# Generated by pormake.
# Topology sqc, (4,8)-cn, num edge types: 1
# Building blocks:
#     Node 0, Type 0, BuildingBlock: NAHDIM_clean_linker_0, # of connection points: 4
#     Node 1, Type 0, BuildingBlock: NAHDIM_clean_linker_0, # of connection points: 4
#     Node 2, Type 0, BuildingBlock: NAHDIM_clean_linker_0, # of connection points: 4
#     Node 3, Type 0, BuildingBlock: NAHDIM_clean_linker_0, # of connection points: 4
#     Node 4, Type 0, BuildingBlock: NAHDIM_clean_linker_0, # of connection points: 4
#     Node 5, Type 0, BuildingBlock: NAHDIM_clean_linker_0, # of connection points: 4
#     Node 6, Type 0, BuildingBlock: NAHDIM_clean_linker_0, # of connection points: 4
#     Node 7, Type 0, BuildingBlock: NAHDIM_clean_linker_0, # of connection points: 4
#     Node 8, Type 1, BuildingBlock: TAGTUT_clean_sbu_3, # of connection points: 8
#     Node 9, Type 1, BuildingBlock: TAGTUT_clean_sbu_3, # of connection points: 8
#     Node 10, Type 1, BuildingBlock: TAGTUT_clean_sbu_3, # of connection points: 8
#     Node 11, Type 1, BuildingBlock: TAGTUT_clean_sbu_3, # of connection points: 8
#     Edge 12, Type (0, 1), BuildingBlock: MIFKUJ_clean_linker_0, # of connection points: 2
#     Edge 13, Type (0, 1), BuildingBlock: MIFKUJ_clean_linker_0, # of connection points: 2
#     Edge 14, Type (0, 1), BuildingBlock: MIFKUJ_clean_linker_0, # of connection points: 2
#     Edge 15, Type (0, 1), BuildingBlock: MIFKUJ_clean_linker_0, # of connection points: 2
#     Edge 16, Type (0, 1), BuildingBlock: MIFKUJ_clean_linker_0, # of connection points: 2
#     Edge 17, Type (0, 1), BuildingBlock: MIFKUJ_clean_linker_0, # of connection points: 2
#     Edge 18, Type (0, 1), BuildingBlock: MIFKUJ_clean_linker_0, # of connection points: 2
#     Edge 19, Type (0, 1), BuildingBlock: MIFKUJ_clean_linker_0, # of connection points: 2
#     Edge 20, Type (0, 1), BuildingBlock: MIFKUJ_clean_linker_0, # of connection points: 2
#     Edge 21, Type (0, 1), BuildingBlock: MIFKUJ_clean_linker_0, # of connection points: 2
#     Edge 22, Type (0, 1), BuildingBlock: MIFKUJ_clean_linker_0, # of connection points: 2
#     Edge 23, Type (0, 1), BuildingBlock: MIFKUJ_clean_linker_0, # of connection points: 2
#     Edge 24, Type (0, 1), BuildingBlock: MIFKUJ_clean_linker_0, # of connection points: 2
#     Edge 25, Type (0, 1), BuildingBlock: MIFKUJ_clean_linker_0, # of connection points: 2
#     Edge 26, Type (0, 1), BuildingBlock: MIFKUJ_clean_linker_0, # of connection points: 2
#     Edge 27, Type (0, 1), BuildingBlock: MIFKUJ_clean_linker_0, # of connection points: 2
#     Edge 28, Type (0, 1), BuildingBlock: MIFKUJ_clean_linker_0, # of connection points: 2
#     Edge 29, Type (0, 1), BuildingBlock: MIFKUJ_clean_linker_0, # of connection points: 2
#     Edge 30, Type (0, 1), BuildingBlock: MIFKUJ_clean_linker_0, # of connection points: 2
#     Edge 31, Type (0, 1), BuildingBlock: MIFKUJ_clean_linker_0, # of connection points: 2
#     Edge 32, Type (0, 1), BuildingBlock: MIFKUJ_clean_linker_0, # of connection points: 2
#     Edge 33, Type (0, 1), BuildingBlock: MIFKUJ_clean_linker_0, # of connection points: 2
#     Edge 34, Type (0, 1), BuildingBlock: MIFKUJ_clean_linker_0, # of connection points: 2
#     Edge 35, Type (0, 1), BuildingBlock: MIFKUJ_clean_linker_0, # of connection points: 2
#     Edge 36, Type (0, 1), BuildingBlock: MIFKUJ_clean_linker_0, # of connection points: 2
#     Edge 37, Type (0, 1), BuildingBlock: MIFKUJ_clean_linker_0, # of connection points: 2
#     Edge 38, Type (0, 1), BuildingBlock: MIFKUJ_clean_linker_0, # of connection points: 2
#     Edge 39, Type (0, 1), BuildingBlock: MIFKUJ_clean_linker_0, # of connection points: 2
#     Edge 40, Type (0, 1), BuildingBlock: MIFKUJ_clean_linker_0, # of connection points: 2
#     Edge 41, Type (0, 1), BuildingBlock: MIFKUJ_clean_linker_0, # of connection points: 2
#     Edge 42, Type (0, 1), BuildingBlock: MIFKUJ_clean_linker_0, # of connection points: 2
#     Edge 43, Type (0, 1), BuildingBlock: MIFKUJ_clean_linker_0, # of connection points: 2
# Relax obj value: 0.121
# Max RMSD: 0.250
# Mean RMSD: 0.122
data_MOF--net-sqc--node1-TAGTUT_clean_sbu_3--node2-NAHDIM_clean_linker_0--edge1-MIFKUJ_clean_linker_0
_symmetry_space_group_name_H-M    P1
_symmetry_Int_Tables_number       1
_symmetry_cell_setting            triclinic
loop_
_symmetry_equiv_pos_as_xyz
'x, y, z'
_cell_length_a     37.305549
_cell_length_b     37.311165
_cell_length_c     125.20294
_cell_angle_alpha  90.256201
_cell_angle_beta   89.632264
_cell_angle_gamma 89.977962
loop_
_atom_site_label
_atom_site_type_symbol
_atom_site_fract_x
_atom_site_fract_y
_atom_site_fract_z
_atom_type_partial_charge
C0 C 0.91469 0.94329 0.43606 0.0
C1 C 0.89634 0.937 0.44686 0.0
C2 C 0.92625 0.96652 0.46171 0.0
C3 C 0.92896 0.93793 0.46892 0.0
C4 C 0.95444 0.93863 0.47712 0.0
C5 C 0.97743 0.96857 0.47811 0.0
C6 C 0.97391 0.99789 0.47105 0.0
C7 C 0.94793 0.99663 0.46302 0.0
C8 C 0.95693 0.90742 0.48469 0.0
C9 C 0.99801 0.03027 0.47186 0.0
C10 C 0.16534 0.82382 0.46331 0.0
C11 C 0.18182 0.86129 0.46434 0.0
C12 C 0.15782 0.89348 0.4795 0.0
C13 C 0.15132 0.92757 0.47529 0.0
C14 C 0.12317 0.94882 0.47926 0.0
C15 C 0.10094 0.93541 0.48753 0.0
C16 C 0.10862 0.90166 0.49213 0.0
C17 C 0.13744 0.8813 0.48814 0.0
C18 C 0.11644 0.98506 0.47436 0.0
C19 C 0.08544 0.8864 0.50092 0.0
C20 C 0.15542 0.06836 0.54338 0.0
C21 C 0.14514 0.08768 0.53432 0.0
C22 C 0.11219 0.08096 0.52938 0.0
C23 C 0.08929 0.0541 0.53354 0.0
C24 C 0.09881 0.03585 0.54298 0.0
C25 C 0.13168 0.04361 0.54787 0.0
C26 C 0.10225 0.10192 0.51954 0.0
C27 C 0.07487 0.00731 0.54766 0.0
C28 C 0.8047 0.0728 0.5238 0.0
C29 C 0.82295 0.07262 0.53473 0.0
C30 C 0.88705 0.08534 0.53301 0.0
C31 C 0.90935 0.10737 0.5269 0.0
C32 C 0.94468 0.0971 0.52443 0.0
C33 C 0.95793 0.0641 0.52829 0.0
C34 C 0.93628 0.04287 0.53508 0.0
C35 C 0.90113 0.05386 0.53745 0.0
C36 C 0.96735 0.12074 0.51736 0.0
C37 C 0.94998 0.00803 0.53958 0.0
C38 C 0.0059 0.96908 0.48631 0.0
C39 C 0.03828 0.95202 0.48389 0.0
C40 C 0.06782 0.95501 0.49064 0.0
C41 C 0.06537 0.97646 0.49996 0.0
C42 C 0.09521 0.98231 0.50652 0.0
C43 C 0.09257 0.00406 0.51555 0.0
C44 C 0.05985 0.02039 0.51844 0.0
C45 C 0.05706 0.04322 0.52746 0.0
C46 C 0.02371 0.05734 0.53047 0.0
C47 C 0.99303 0.0501 0.52447 0.0
C48 C 0.99577 0.02923 0.51503 0.0
C49 C 0.9659 0.02323 0.50846 0.0
C50 C 0.96913 0.00359 0.49903 0.0
C51 C 0.00212 0.98835 0.49598 0.0
C52 C 0.0322 0.99276 0.5027 0.0
C53 C 0.02924 0.01404 0.51209 0.0
C54 C 0.23288 0.03882 0.53901 0.0
C55 C 0.22038 0.07601 0.54269 0.0
O56 O 0.90278 0.96607 0.45349 0.0
O57 O 0.85235 0.09539 0.53452 0.0
O58 O 0.18781 0.07315 0.54804 0.0
O59 O 0.18254 0.87136 0.47501 0.0
H60 H 0.90803 0.91199 0.45017 0.0
H61 H 0.9441 0.94575 0.43719 0.0
H62 H 0.90474 0.96831 0.43232 0.0
H63 H 0.90959 0.92037 0.43058 0.0
H64 H 0.91103 0.91524 0.46821 0.0
H65 H 0.94514 0.01875 0.45751 0.0
H66 H 0.98324 0.89391 0.48362 0.0
H67 H 0.93533 0.88742 0.48338 0.0
H68 H 0.9554 0.91717 0.49308 0.0
H69 H 0.99342 0.04967 0.4653 0.0
H70 H 0.02655 0.0218 0.47166 0.0
H71 H 0.99319 0.04414 0.4796 0.0
H72 H 0.16401 0.87942 0.45971 0.0
H73 H 0.16627 0.81459 0.45487 0.0
H74 H 0.13684 0.82465 0.46594 0.0
H75 H 0.17959 0.80415 0.46839 0.0
H76 H 0.16787 0.93716 0.46876 0.0
H77 H 0.14302 0.855 0.49137 0.0
H78 H 0.11147 0.00542 0.4807 0.0
H79 H 0.09213 0.98368 0.46931 0.0
H80 H 0.1393 0.99402 0.46931 0.0
H81 H 0.09416 0.85915 0.50333 0.0
H82 H 0.05713 0.88504 0.49825 0.0
H83 H 0.08633 0.90427 0.50802 0.0
H84 H 0.21772 0.09336 0.53555 0.0
H85 H 0.16259 0.10818 0.5311 0.0
H86 H 0.13964 0.02936 0.55499 0.0
H87 H 0.10397 0.08414 0.51243 0.0
H88 H 0.12027 0.12522 0.51824 0.0
H89 H 0.07419 0.1117 0.5202 0.0
H90 H 0.08631 0.99532 0.555 0.0
H91 H 0.07057 0.98571 0.54168 0.0
H92 H 0.04826 0.01898 0.54964 0.0
H93 H 0.83106 0.04434 0.53606 0.0
H94 H 0.77948 0.05697 0.52407 0.0
H95 H 0.82283 0.06045 0.51774 0.0
H96 H 0.79863 0.10051 0.52117 0.0
H97 H 0.89854 0.13207 0.52373 0.0
H98 H 0.88484 0.03774 0.54276 0.0
H99 H 0.97241 0.10691 0.50963 0.0
H100 H 0.99376 0.12565 0.52114 0.0
H101 H 0.95429 0.14691 0.51576 0.0
H102 H 0.93045 0.99538 0.54513 0.0
H103 H 0.97547 0.01274 0.54389 0.0
H104 H 0.95577 0.989 0.53294 0.0
H105 H 0.04072 0.9367 0.47653 0.0
H106 H 0.12104 0.97049 0.50467 0.0
H107 H 0.11652 0.00778 0.52027 0.0
H108 H 0.02165 0.07429 0.53751 0.0
H109 H 0.93977 0.03415 0.51041 0.0
H110 H 0.94539 0.00027 0.4942 0.0
H111 H 0.25909 0.0407 0.53478 0.0
H112 H 0.21307 0.0271 0.5334 0.0
H113 H 0.23567 0.0206 0.54596 0.0
C114 C 0.10638 0.81922 0.80553 0.0
C115 C 0.14353 0.83512 0.8033 0.0
C116 C 0.17862 0.81049 0.78877 0.0
C117 C 0.21365 0.81437 0.79256 0.0
C118 C 0.2409 0.79083 0.78924 0.0
C119 C 0.23266 0.76254 0.78209 0.0
C120 C 0.19743 0.75922 0.77803 0.0
C121 C 0.17096 0.78377 0.78129 0.0
C122 C 0.27829 0.79578 0.79352 0.0
C123 C 0.18745 0.72911 0.77053 0.0
C124 C 0.30777 0.59829 0.83834 0.0
C125 C 0.29077 0.58644 0.82781 0.0
C126 C 0.31119 0.60934 0.81083 0.0
C127 C 0.28045 0.6057 0.80455 0.0
C128 C 0.27472 0.6283 0.7958 0.0
C129 C 0.29993 0.65559 0.79345 0.0
C130 C 0.33124 0.65892 0.79974 0.0
C131 C 0.33683 0.6351 0.80821 0.0
C132 C 0.24144 0.62335 0.78916 0.0
C133 C 0.35832 0.68825 0.79774 0.0
C134 C 0.44582 0.59786 0.74005 0.0
C135 C 0.40959 0.59077 0.73792 0.0
C136 C 0.38366 0.61785 0.73904 0.0
C137 C 0.39417 0.65237 0.74257 0.0
C138 C 0.43085 0.65982 0.74433 0.0
C139 C 0.45625 0.63249 0.7429 0.0
C140 C 0.34496 0.60935 0.73669 0.0
C141 C 0.44314 0.69636 0.748 0.0
C142 C 0.26975 0.90265 0.71654 0.0
C143 C 0.30799 0.88773 0.71671 0.0
C144 C 0.31745 0.82351 0.71903 0.0
C145 C 0.29857 0.79152 0.71766 0.0
C146 C 0.30539 0.76175 0.72416 0.0
C147 C 0.33213 0.76411 0.7321 0.0
C148 C 0.35299 0.79562 0.73301 0.0
C149 C 0.34555 0.82498 0.72642 0.0
C150 C 0.28312 0.72831 0.72285 0.0
C151 C 0.38237 0.79864 0.7412 0.0
C152 C 0.26033 0.73531 0.77933 0.0
C153 C 0.26752 0.70875 0.78686 0.0
C154 C 0.29267 0.68176 0.78481 0.0
C155 C 0.3108 0.68071 0.77486 0.0
C156 C 0.33538 0.65333 0.77237 0.0
C157 C 0.3538 0.65308 0.76268 0.0
C158 C 0.34796 0.6799 0.75501 0.0
C159 C 0.36671 0.67995 0.74514 0.0
C160 C 0.36063 0.7073 0.73777 0.0
C161 C 0.3363 0.73489 0.74 0.0
C162 C 0.31708 0.73512 0.74978 0.0
C163 C 0.29233 0.76245 0.75226 0.0
C164 C 0.27377 0.76262 0.76193 0.0
C165 C 0.27917 0.73547 0.7695 0.0
C166 C 0.30425 0.70786 0.76722 0.0
C167 C 0.32299 0.70754 0.75731 0.0
C168 C 0.49953 0.52056 0.74633 0.0
C169 C 0.46661 0.53561 0.74065 0.0
O170 O 0.15161 0.83144 0.79253 0.0
O171 O 0.30765 0.85244 0.71318 0.0
O172 O 0.47152 0.57218 0.73942 0.0
O173 O 0.31595 0.58908 0.81967 0.0
H174 H 0.1624 0.81899 0.80822 0.0
H175 H 0.10708 0.78981 0.80412 0.0
H176 H 0.08586 0.8308 0.80017 0.0
H177 H 0.09837 0.82408 0.81398 0.0
H178 H 0.21954 0.83566 0.79819 0.0
H179 H 0.14377 0.78123 0.77839 0.0
H180 H 0.28443 0.77378 0.79916 0.0
H181 H 0.28142 0.82174 0.79779 0.0
H182 H 0.29823 0.7944 0.78691 0.0
H183 H 0.15824 0.72845 0.76887 0.0
H184 H 0.19551 0.70295 0.77397 0.0
H185 H 0.20205 0.7323 0.76284 0.0
H186 H 0.26816 0.60542 0.82642 0.0
H187 H 0.28819 0.59559 0.84502 0.0
H188 H 0.31591 0.62686 0.8378 0.0
H189 H 0.33197 0.58211 0.84014 0.0
H190 H 0.26094 0.58525 0.80655 0.0
H191 H 0.3605 0.63752 0.81314 0.0
H192 H 0.22253 0.6457 0.79082 0.0
H193 H 0.22759 0.59769 0.79096 0.0
H194 H 0.24829 0.624 0.78052 0.0
H195 H 0.37814 0.69045 0.80429 0.0
H196 H 0.34463 0.71449 0.79684 0.0
H197 H 0.37307 0.68259 0.7902 0.0
H198 H 0.44297 0.53035 0.7459 0.0
H199 H 0.4015 0.56424 0.73536 0.0
H200 H 0.48438 0.63775 0.74435 0.0
H201 H 0.32956 0.60835 0.7443 0.0
H202 H 0.34191 0.58319 0.73253 0.0
H203 H 0.333 0.63072 0.7317 0.0
H204 H 0.47233 0.69709 0.74969 0.0
H205 H 0.42825 0.7045 0.75533 0.0
H206 H 0.43724 0.71638 0.74172 0.0
H207 H 0.31649 0.88957 0.7252 0.0
H208 H 0.26963 0.93134 0.71896 0.0
H209 H 0.2527 0.88752 0.72226 0.0
H210 H 0.25776 0.90003 0.70847 0.0
H211 H 0.27744 0.79042 0.71177 0.0
H212 H 0.36149 0.84912 0.72713 0.0
H213 H 0.26686 0.72395 0.73019 0.0
H214 H 0.3009 0.70466 0.72181 0.0
H215 H 0.2648 0.72995 0.71591 0.0
H216 H 0.39748 0.82419 0.74051 0.0
H217 H 0.40139 0.77594 0.74026 0.0
H218 H 0.37059 0.79699 0.74935 0.0
H219 H 0.25343 0.7092 0.79447 0.0
H220 H 0.34079 0.63184 0.77791 0.0
H221 H 0.37272 0.63152 0.76129 0.0
H222 H 0.3754 0.70742 0.73027 0.0
H223 H 0.287 0.78407 0.74676 0.0
H224 H 0.25517 0.78439 0.76342 0.0
H225 H 0.524 0.52428 0.74134 0.0
H226 H 0.49606 0.49156 0.74802 0.0
H227 H 0.50335 0.53473 0.75406 0.0
C228 C 0.67522 0.95724 0.08343 0.0
C229 C 0.69244 0.94848 0.07262 0.0
C230 C 0.68049 0.9815 0.05638 0.0
C231 C 0.68753 0.9547 0.04878 0.0
C232 C 0.67146 0.95577 0.03868 0.0
C233 C 0.64739 0.9839 0.03625 0.0
C234 C 0.64151 0.0118 0.04377 0.0
C235 C 0.65884 0.01057 0.05369 0.0
C236 C 0.67907 0.92602 0.03079 0.0
C237 C 0.61554 0.04187 0.04158 0.0
C238 C 0.4356 0.8117 0.02374 0.0
C239 C 0.44577 0.84004 0.03204 0.0
C240 C 0.47804 0.89168 0.0246 0.0
C241 C 0.4761 0.92899 0.02418 0.0
C242 C 0.50659 0.94971 0.02198 0.0
C243 C 0.53968 0.93244 0.01982 0.0
C244 C 0.54152 0.89455 0.01979 0.0
C245 C 0.51067 0.87451 0.02222 0.0
C246 C 0.50355 0.99007 0.02224 0.0
C247 C 0.57617 0.87526 0.01734 0.0
C248 C 0.52952 0.01578 0.95366 0.0
C249 C 0.51771 0.03652 0.96235 0.0
C250 C 0.54065 0.0439 0.97093 0.0
C251 C 0.57574 0.02931 0.97091 0.0
C252 C 0.58806 0.00954 0.96192 0.0
C253 C 0.56486 0.00354 0.95332 0.0
C254 C 0.52706 0.06657 0.98011 0.0
C255 C 0.62533 0.99384 0.96156 0.0
C256 C 0.79379 0.211 0.99735 0.0
C257 C 0.78328 0.17818 0.99072 0.0
C258 C 0.72392 0.15105 0.98864 0.0
C259 C 0.68781 0.15736 0.99094 0.0
C260 C 0.66295 0.12919 0.99121 0.0
C261 C 0.67446 0.09388 0.98883 0.0
C262 C 0.71079 0.08744 0.9861 0.0
C263 C 0.73527 0.11608 0.98611 0.0
C264 C 0.62442 0.13717 0.99411 0.0
C265 C 0.72368 0.0503 0.9832 0.0
C266 C 0.62494 0.98139 0.02652 0.0
C267 C 0.59524 0.95861 0.02699 0.0
C268 C 0.57262 0.95419 0.01825 0.0
C269 C 0.58018 0.97231 0.00861 0.0
C270 C 0.55919 0.96689 0.99948 0.0
C271 C 0.56584 0.98601 0.99017 0.0
C272 C 0.59325 0.01188 0.98971 0.0
C273 C 0.59881 0.03301 0.98049 0.0
C274 C 0.62605 0.05874 0.98037 0.0
C275 C 0.64824 0.06391 0.98921 0.0
C276 C 0.64353 0.04254 0.99843 0.0
C277 C 0.66576 0.04646 0.0074 0.0
C278 C 0.66041 0.02575 0.01651 0.0
C279 C 0.63186 0.00126 0.01713 0.0
C280 C 0.60934 0.99665 0.00814 0.0
C281 C 0.61554 0.01687 0.99873 0.0
C282 C 0.47416 0.95391 0.9421 0.0
C283 C 0.47369 0.99156 0.94697 0.0
O284 O 0.69328 0.97931 0.06647 0.0
O285 O 0.74673 0.1794 0.98885 0.0
O286 O 0.50718 0.00704 0.94557 0.0
O287 O 0.44781 0.87343 0.02727 0.0
H288 H 0.67514 0.92776 0.06879 0.0
H289 H 0.64744 0.96712 0.08224 0.0
H290 H 0.69069 0.97833 0.08768 0.0
H291 H 0.67401 0.93286 0.08849 0.0
H292 H 0.70512 0.93268 0.05081 0.0
H293 H 0.65396 0.03129 0.05961 0.0
H294 H 0.65556 0.90784 0.03043 0.0
H295 H 0.70291 0.90998 0.03307 0.0
H296 H 0.68348 0.93711 0.02267 0.0
H297 H 0.61257 0.0604 0.0485 0.0
H298 H 0.58878 0.03071 0.0396 0.0
H299 H 0.62491 0.0575 0.03458 0.0
H300 H 0.4721 0.83254 0.03553 0.0
H301 H 0.43364 0.78491 0.02754 0.0
H302 H 0.45642 0.81039 0.01737 0.0
H303 H 0.4095 0.81832 0.02 0.0
H304 H 0.45068 0.94193 0.0259 0.0
H305 H 0.51217 0.84554 0.02217 0.0
H306 H 0.50821 0.00085 0.0141 0.0
H307 H 0.52433 0.00163 0.02755 0.0
H308 H 0.47678 0.99923 0.02507 0.0
H309 H 0.57211 0.84603 0.01613 0.0
H310 H 0.595 0.87918 0.02407 0.0
H311 H 0.58894 0.8866 0.01006 0.0
H312 H 0.4674 0.98851 0.95564 0.0
H313 H 0.49054 0.04681 0.96241 0.0
H314 H 0.57375 0.98798 0.94647 0.0
H315 H 0.52112 0.04911 0.98705 0.0
H316 H 0.50219 0.08128 0.97803 0.0
H317 H 0.54776 0.08623 0.98261 0.0
H318 H 0.63009 0.97742 0.95426 0.0
H319 H 0.62976 0.97683 0.96869 0.0
H320 H 0.64541 0.01578 0.96177 0.0
H321 H 0.7899 0.15418 0.9956 0.0
H322 H 0.82291 0.21039 0.99917 0.0
H323 H 0.77867 0.2111 0.00502 0.0
H324 H 0.78756 0.23611 0.99299 0.0
H325 H 0.67929 0.1845 0.99276 0.0
H326 H 0.76304 0.11115 0.98402 0.0
H327 H 0.61567 0.11976 0.00081 0.0
H328 H 0.60699 0.13112 0.98718 0.0
H329 H 0.62033 0.16562 0.99647 0.0
H330 H 0.75212 0.05012 0.98052 0.0
H331 H 0.70679 0.03896 0.97674 0.0
H332 H 0.72095 0.03248 0.99023 0.0
H333 H 0.5893 0.9445 0.03436 0.0
H334 H 0.53732 0.9478 0.99944 0.0
H335 H 0.54878 0.98063 0.98339 0.0
H336 H 0.62963 0.0754 0.97336 0.0
H337 H 0.68763 0.06552 0.00748 0.0
H338 H 0.67845 0.0297 0.02315 0.0
H339 H 0.44774 0.94068 0.94326 0.0
H340 H 0.49492 0.93741 0.94608 0.0
H341 H 0.48042 0.95503 0.93342 0.0
C342 C 0.14281 0.18914 0.2052 0.0
C343 C 0.17708 0.17128 0.20927 0.0
C344 C 0.20203 0.20003 0.22494 0.0
C345 C 0.23831 0.20198 0.22201 0.0
C346 C 0.26075 0.22825 0.22642 0.0
C347 C 0.24658 0.25293 0.23396 0.0
C348 C 0.21031 0.25013 0.23723 0.0
C349 C 0.18854 0.22335 0.23275 0.0
C350 C 0.29949 0.22996 0.22292 0.0
C351 C 0.1945 0.27581 0.24532 0.0
C352 C 0.34112 0.51491 0.22073 0.0
C353 C 0.30127 0.50847 0.21862 0.0
C354 C 0.2951 0.44304 0.21919 0.0
C355 C 0.27662 0.43896 0.22891 0.0
C356 C 0.27568 0.40569 0.2341 0.0
C357 C 0.29384 0.37598 0.22952 0.0
C358 C 0.31155 0.37976 0.21956 0.0
C359 C 0.31153 0.41321 0.21446 0.0
C360 C 0.25536 0.40234 0.24452 0.0
C361 C 0.33104 0.34866 0.21442 0.0
C362 C 0.46729 0.40045 0.27682 0.0
C363 C 0.43192 0.40701 0.28021 0.0
C364 C 0.40524 0.38087 0.27891 0.0
C365 C 0.41403 0.34791 0.27389 0.0
C366 C 0.45 0.34068 0.27093 0.0
C367 C 0.4763 0.36696 0.27259 0.0
C368 C 0.36751 0.38888 0.28262 0.0
C369 C 0.46043 0.30567 0.26568 0.0
C370 C 0.27811 0.10622 0.30392 0.0
C371 C 0.31598 0.11835 0.30092 0.0
C372 C 0.33021 0.18096 0.29706 0.0
C373 C 0.31553 0.21495 0.2987 0.0
C374 C 0.32359 0.24328 0.29178 0.0
C375 C 0.34761 0.23749 0.28315 0.0
C376 C 0.36416 0.20362 0.2818 0.0
C377 C 0.35521 0.17558 0.28877 0.0
C378 C 0.30579 0.27918 0.29354 0.0
C379 C 0.39076 0.19698 0.27289 0.0
C380 C 0.26971 0.28208 0.23816 0.0
C381 C 0.2715 0.31413 0.23242 0.0
C382 C 0.29518 0.34143 0.23537 0.0
C383 C 0.31863 0.33623 0.24405 0.0
C384 C 0.34491 0.36174 0.24666 0.0
C385 C 0.36739 0.35673 0.25535 0.0
C386 C 0.36368 0.32658 0.26197 0.0
C387 C 0.38536 0.32198 0.2711 0.0
C388 C 0.38005 0.29234 0.27772 0.0
C389 C 0.35408 0.26656 0.27533 0.0
C390 C 0.33327 0.26984 0.26598 0.0
C391 C 0.30801 0.24359 0.26308 0.0
C392 C 0.28765 0.24715 0.25387 0.0
C393 C 0.2908 0.27774 0.24741 0.0
C394 C 0.3157 0.30474 0.25027 0.0
C395 C 0.33764 0.30033 0.2594 0.0
C396 C 0.51832 0.47787 0.26935 0.0
C397 C 0.48763 0.46238 0.27605 0.0
O398 O 0.1795 0.17626 0.22022 0.0
O399 O 0.31973 0.15417 0.30367 0.0
O400 O 0.49316 0.42595 0.27737 0.0
O401 O 0.29675 0.47489 0.21399 0.0
H402 H 0.19948 0.18506 0.20503 0.0
H403 H 0.14453 0.21858 0.20645 0.0
H404 H 0.11879 0.17923 0.20955 0.0
H405 H 0.13953 0.18391 0.19651 0.0
H406 H 0.24903 0.18303 0.21623 0.0
H407 H 0.16057 0.22128 0.23505 0.0
H408 H 0.30487 0.25614 0.21904 0.0
H409 H 0.30665 0.20816 0.21722 0.0
H410 H 0.31719 0.22808 0.22999 0.0
H411 H 0.1659 0.26991 0.2471 0.0
H412 H 0.19665 0.30366 0.24229 0.0
H413 H 0.20993 0.27447 0.25286 0.0
H414 H 0.28665 0.51034 0.22635 0.0
H415 H 0.34521 0.54172 0.22443 0.0
H416 H 0.3568 0.51328 0.21317 0.0
H417 H 0.35139 0.49432 0.22632 0.0
H418 H 0.26228 0.46134 0.2324 0.0
H419 H 0.32515 0.41648 0.20686 0.0
H420 H 0.23755 0.37851 0.24431 0.0
H421 H 0.23888 0.42646 0.24631 0.0
H422 H 0.27463 0.39853 0.25113 0.0
H423 H 0.34543 0.35657 0.207 0.0
H424 H 0.31155 0.32722 0.21243 0.0
H425 H 0.35066 0.33723 0.22011 0.0
H426 H 0.46267 0.46703 0.2714 0.0
H427 H 0.42507 0.43254 0.28382 0.0
H428 H 0.50381 0.36202 0.27016 0.0
H429 H 0.35027 0.39375 0.27559 0.0
H430 H 0.36629 0.41291 0.28789 0.0
H431 H 0.35622 0.36562 0.28701 0.0
H432 H 0.48934 0.30473 0.26351 0.0
H433 H 0.44434 0.30146 0.25835 0.0
H434 H 0.45447 0.28317 0.27119 0.0
H435 H 0.31878 0.11451 0.29212 0.0
H436 H 0.27403 0.07769 0.30165 0.0
H437 H 0.25811 0.12271 0.29961 0.0
H438 H 0.27338 0.10933 0.31265 0.0
H439 H 0.29677 0.21889 0.30525 0.0
H440 H 0.3678 0.14962 0.28776 0.0
H441 H 0.29029 0.28665 0.28634 0.0
H442 H 0.32653 0.3001 0.29476 0.0
H443 H 0.28741 0.27917 0.30055 0.0
H444 H 0.4033 0.17004 0.27339 0.0
H445 H 0.41216 0.21765 0.27309 0.0
H446 H 0.37702 0.19927 0.26508 0.0
H447 H 0.25431 0.31782 0.22555 0.0
H448 H 0.34863 0.38576 0.24196 0.0
H449 H 0.38731 0.37715 0.25689 0.0
H450 H 0.39609 0.28948 0.28486 0.0
H451 H 0.30392 0.21979 0.26785 0.0
H452 H 0.26889 0.22595 0.25198 0.0
H453 H 0.54459 0.47314 0.27324 0.0
H454 H 0.51452 0.50716 0.26825 0.0
H455 H 0.51881 0.46486 0.26136 0.0
C456 C 0.66341 0.40539 0.27004 0.0
C457 C 0.67412 0.39212 0.28117 0.0
C458 C 0.72257 0.34767 0.27916 0.0
C459 C 0.75775 0.34038 0.28219 0.0
C460 C 0.77321 0.3066 0.28039 0.0
C461 C 0.75322 0.27969 0.2751 0.0
C462 C 0.71754 0.28683 0.27197 0.0
C463 C 0.70244 0.32065 0.27411 0.0
C464 C 0.81104 0.29985 0.2841 0.0
C465 C 0.69558 0.25895 0.26619 0.0
C466 C 0.70555 0.99807 0.30135 0.0
C467 C 0.71035 0.02886 0.294 0.0
C468 C 0.7393 0.0876 0.29327 0.0
C469 C 0.72931 0.0948 0.28269 0.0
C470 C 0.74102 0.12596 0.27753 0.0
C471 C 0.764 0.15005 0.28294 0.0
C472 C 0.77399 0.14304 0.2936 0.0
C473 C 0.76122 0.11198 0.29866 0.0
C474 C 0.729 0.13295 0.26622 0.0
C475 C 0.79862 0.16802 0.29957 0.0
C476 C 0.94978 0.07264 0.24409 0.0
C477 C 0.91783 0.07483 0.23823 0.0
C478 C 0.89729 0.10637 0.2383 0.0
C479 C 0.90895 0.13621 0.24436 0.0
C480 C 0.94187 0.13457 0.24988 0.0
C481 C 0.96199 0.10281 0.2496 0.0
C482 C 0.86276 0.10762 0.2321 0.0
C483 C 0.95531 0.16609 0.25629 0.0
C484 C 0.82748 0.38089 0.21376 0.0
C485 C 0.86828 0.37689 0.21306 0.0
C486 C 0.87877 0.31393 0.21638 0.0
C487 C 0.85879 0.28339 0.21395 0.0
C488 C 0.85717 0.25454 0.22108 0.0
C489 C 0.87678 0.25619 0.23071 0.0
C490 C 0.89911 0.28601 0.23282 0.0
C491 C 0.89973 0.31473 0.22563 0.0
C492 C 0.83347 0.22293 0.21852 0.0
C493 C 0.9213 0.28801 0.24283 0.0
C494 C 0.77022 0.2446 0.27255 0.0
C495 C 0.7615 0.21496 0.27887 0.0
C496 C 0.77824 0.18182 0.27721 0.0
C497 C 0.80591 0.17856 0.2695 0.0
C498 C 0.8256 0.14662 0.2683 0.0
C499 C 0.85225 0.14345 0.26053 0.0
C500 C 0.85956 0.17176 0.25346 0.0
C501 C 0.88601 0.16856 0.24536 0.0
C502 C 0.8914 0.19659 0.23815 0.0
C503 C 0.87146 0.22822 0.23894 0.0
C504 C 0.84606 0.23258 0.24729 0.0
C505 C 0.82645 0.26458 0.24854 0.0
C506 C 0.80188 0.26873 0.25686 0.0
C507 C 0.79521 0.24071 0.26407 0.0
C508 C 0.81376 0.20784 0.26272 0.0
C509 C 0.83988 0.20409 0.2545 0.0
C510 C 0.97482 0.98218 0.2509 0.0
C511 C 0.95696 0.00752 0.24297 0.0
O512 O 0.70961 0.38119 0.28107 0.0
O513 O 0.87699 0.34246 0.20975 0.0
O514 O 0.9694 0.04202 0.24469 0.0
O515 O 0.72848 0.05759 0.29851 0.0
H516 H 0.65618 0.36927 0.28322 0.0
H517 H 0.66326 0.38275 0.26427 0.0
H518 H 0.68281 0.42561 0.26704 0.0
H519 H 0.63603 0.41713 0.27027 0.0
H520 H 0.77307 0.36133 0.28607 0.0
H521 H 0.67525 0.32587 0.27163 0.0
H522 H 0.81273 0.27376 0.2883 0.0
H523 H 0.82074 0.32134 0.28953 0.0
H524 H 0.82926 0.29855 0.27707 0.0
H525 H 0.66955 0.26976 0.26339 0.0
H526 H 0.69014 0.23613 0.27163 0.0
H527 H 0.71079 0.24834 0.25921 0.0
H528 H 0.68551 0.03694 0.28971 0.0
H529 H 0.67571 0.99589 0.30241 0.0
H530 H 0.71053 0.00843 0.30968 0.0
H531 H 0.7363 0.95733 0.2943 0.0
H532 H 0.71236 0.07629 0.27837 0.0
H533 H 0.76877 0.10628 0.30683 0.0
H534 H 0.752 0.12913 0.26067 0.0
H535 H 0.71958 0.16104 0.26541 0.0
H536 H 0.7071 0.11462 0.26373 0.0
H537 H 0.80557 0.1577 0.30761 0.0
H538 H 0.78554 0.19459 0.30053 0.0
H539 H 0.82372 0.17209 0.29492 0.0
H540 H 0.92767 0.00606 0.24471 0.0
H541 H 0.90873 0.05203 0.23361 0.0
H542 H 0.98692 0.10103 0.25396 0.0
H543 H 0.83986 0.11117 0.23772 0.0
H544 H 0.85834 0.08286 0.22733 0.0
H545 H 0.86298 0.13099 0.22664 0.0
H546 H 0.98184 0.1608 0.25995 0.0
H547 H 0.93577 0.1726 0.26274 0.0
H548 H 0.95757 0.19001 0.25109 0.0
H549 H 0.87933 0.38232 0.22114 0.0
H550 H 0.82018 0.40858 0.21626 0.0
H551 H 0.81648 0.36198 0.21978 0.0
H552 H 0.81494 0.37495 0.20592 0.0
H553 H 0.84321 0.28293 0.20667 0.0
H554 H 0.91637 0.33787 0.22726 0.0
H555 H 0.81265 0.21998 0.22484 0.0
H556 H 0.84968 0.19797 0.21842 0.0
H557 H 0.82 0.22573 0.21068 0.0
H558 H 0.94045 0.3108 0.24268 0.0
H559 H 0.93651 0.2627 0.2439 0.0
H560 H 0.90331 0.29129 0.24987 0.0
H561 H 0.74107 0.21758 0.28503 0.0
H562 H 0.82086 0.12384 0.27345 0.0
H563 H 0.86669 0.11832 0.26004 0.0
H564 H 0.91125 0.1937 0.23183 0.0
H565 H 0.83009 0.28696 0.24318 0.0
H566 H 0.78778 0.29404 0.25747 0.0
H567 H 0.00448 0.98305 0.25008 0.0
H568 H 0.9655 0.95423 0.24957 0.0
H569 H 0.96756 0.99023 0.25919 0.0
C570 C 0.69297 0.61176 0.73964 0.0
C571 C 0.70417 0.62188 0.72824 0.0
C572 C 0.75587 0.66263 0.72946 0.0
C573 C 0.79221 0.66622 0.72693 0.0
C574 C 0.81015 0.69888 0.72843 0.0
C575 C 0.79121 0.7286 0.73267 0.0
C576 C 0.75442 0.72527 0.73525 0.0
C577 C 0.73709 0.69232 0.73364 0.0
C578 C 0.84943 0.70155 0.7256 0.0
C579 C 0.73357 0.75644 0.73986 0.0
C580 C 0.81418 0.90125 0.67384 0.0
C581 C 0.80121 0.9132 0.68491 0.0
C582 C 0.82923 0.89157 0.70112 0.0
C583 C 0.79902 0.89013 0.70784 0.0
C584 C 0.79874 0.86815 0.71691 0.0
C585 C 0.8292 0.84697 0.71923 0.0
C586 C 0.86 0.84909 0.71258 0.0
C587 C 0.8598 0.87197 0.70371 0.0
C588 C 0.76575 0.86718 0.72393 0.0
C589 C 0.89281 0.82654 0.71467 0.0
C590 C 0.95927 0.9465 0.76972 0.0
C591 C 0.92427 0.94357 0.77387 0.0
C592 C 0.90579 0.91085 0.77347 0.0
C593 C 0.92264 0.88055 0.76885 0.0
C594 C 0.95848 0.88297 0.76516 0.0
C595 C 0.97639 0.91596 0.76571 0.0
C596 C 0.86785 0.90888 0.77768 0.0
C597 C 0.97741 0.85098 0.76033 0.0
C598 C 0.85823 0.62261 0.79095 0.0
C599 C 0.89288 0.63377 0.79657 0.0
C600 C 0.89126 0.69863 0.79469 0.0
C601 C 0.86594 0.72561 0.79651 0.0
C602 C 0.86451 0.75589 0.78989 0.0
C603 C 0.88944 0.75927 0.78139 0.0
C604 C 0.91669 0.73327 0.78001 0.0
C605 C 0.91739 0.70325 0.7867 0.0
C606 C 0.83546 0.78343 0.79167 0.0
C607 C 0.94434 0.73661 0.77121 0.0
C608 C 0.81021 0.76278 0.73481 0.0
C609 C 0.81076 0.78876 0.72681 0.0
C610 C 0.82833 0.82149 0.72831 0.0
C611 C 0.84565 0.82872 0.7381 0.0
C612 C 0.86296 0.86158 0.73999 0.0
C613 C 0.88114 0.86784 0.74948 0.0
C614 C 0.88252 0.84156 0.7575 0.0
C615 C 0.9019 0.84719 0.76705 0.0
C616 C 0.90297 0.82043 0.77482 0.0
C617 C 0.88508 0.7879 0.77332 0.0
C618 C 0.8653 0.78189 0.76387 0.0
C619 C 0.84685 0.74952 0.76215 0.0
C620 C 0.82844 0.74337 0.7527 0.0
C621 C 0.82795 0.76924 0.74457 0.0
C622 C 0.84583 0.80228 0.7462 0.0
C623 C 0.86436 0.80868 0.7559 0.0
C624 C 0.9838 0.03821 0.76335 0.0
C625 C 0.96245 0.01206 0.77029 0.0
O626 O 0.74036 0.63007 0.72784 0.0
O627 O 0.88943 0.66829 0.80063 0.0
O628 O 0.97724 0.97816 0.76929 0.0
O629 O 0.82946 0.91118 0.69202 0.0
H630 H 0.68799 0.64549 0.72579 0.0
H631 H 0.69628 0.63504 0.74509 0.0
H632 H 0.70963 0.58943 0.74271 0.0
H633 H 0.66432 0.60362 0.73984 0.0
H634 H 0.80653 0.64321 0.72375 0.0
H635 H 0.7091 0.69005 0.7358 0.0
H636 H 0.85381 0.72397 0.71994 0.0
H637 H 0.85994 0.67644 0.72195 0.0
H638 H 0.86507 0.70756 0.73291 0.0
H639 H 0.70499 0.74969 0.74137 0.0
H640 H 0.73486 0.7795 0.73429 0.0
H641 H 0.74588 0.76512 0.7475 0.0
H642 H 0.77957 0.89403 0.68719 0.0
H643 H 0.79205 0.90324 0.66797 0.0
H644 H 0.82317 0.87289 0.67414 0.0
H645 H 0.83707 0.91791 0.67106 0.0
H646 H 0.77568 0.90618 0.70598 0.0
H647 H 0.88308 0.8736 0.69851 0.0
H648 H 0.7524 0.84076 0.72306 0.0
H649 H 0.74622 0.88848 0.72185 0.0
H650 H 0.77332 0.87035 0.73245 0.0
H651 H 0.91288 0.82841 0.7081 0.0
H652 H 0.8851 0.798 0.71569 0.0
H653 H 0.90564 0.83555 0.72219 0.0
H654 H 0.93467 0.01221 0.76708 0.0
H655 H 0.91107 0.9667 0.77733 0.0
H656 H 0.00356 0.91835 0.76268 0.0
H657 H 0.8493 0.90339 0.77097 0.0
H658 H 0.85937 0.93411 0.78171 0.0
H659 H 0.86529 0.88641 0.78342 0.0
H660 H 0.00573 0.85694 0.75819 0.0
H661 H 0.96313 0.84215 0.75303 0.0
H662 H 0.97691 0.82833 0.76605 0.0
H663 H 0.91488 0.63247 0.79057 0.0
H664 H 0.86044 0.5946 0.78795 0.0
H665 H 0.85334 0.64038 0.78401 0.0
H666 H 0.8349 0.62462 0.79648 0.0
H667 H 0.8463 0.72212 0.80283 0.0
H668 H 0.93831 0.68348 0.7856 0.0
H669 H 0.81709 0.78338 0.78472 0.0
H670 H 0.84747 0.81059 0.79224 0.0
H671 H 0.81957 0.77817 0.79903 0.0
H672 H 0.96523 0.71544 0.77164 0.0
H673 H 0.95753 0.76323 0.77166 0.0
H674 H 0.93098 0.73468 0.76333 0.0
H675 H 0.79759 0.7833 0.71927 0.0
H676 H 0.8629 0.88273 0.73409 0.0
H677 H 0.89429 0.89351 0.75042 0.0
H678 H 0.91846 0.82468 0.78202 0.0
H679 H 0.8465 0.72845 0.76806 0.0
H680 H 0.81488 0.71789 0.75182 0.0
H681 H 0.97265 0.06572 0.76415 0.0
H682 H 0.98203 0.02994 0.75483 0.0
H683 H 0.01252 0.03857 0.76564 0.0
C684 C 0.65285 0.66273 0.05772 0.0
C685 C 0.67262 0.62745 0.05556 0.0
C686 C 0.64182 0.5987 0.04087 0.0
C687 C 0.63349 0.56473 0.04492 0.0
C688 C 0.60477 0.54486 0.04077 0.0
C689 C 0.58379 0.55957 0.03248 0.0
C690 C 0.59244 0.59379 0.02833 0.0
C691 C 0.62183 0.61263 0.03247 0.0
C692 C 0.5969 0.5082 0.04523 0.0
C693 C 0.57052 0.61061 0.01959 0.0
C694 C 0.31148 0.45929 0.0461 0.0
C695 C 0.32747 0.49688 0.0471 0.0
C696 C 0.39266 0.50383 0.0473 0.0
C697 C 0.3961 0.53379 0.04063 0.0
C698 C 0.42879 0.54121 0.03546 0.0
C699 C 0.45836 0.51804 0.03699 0.0
C700 C 0.45549 0.48927 0.04427 0.0
C701 C 0.42269 0.48283 0.04944 0.0
C702 C 0.43131 0.57277 0.02801 0.0
C703 C 0.48659 0.4643 0.04621 0.0
C704 C 0.39634 0.41312 0.97794 0.0
C705 C 0.40515 0.44935 0.97663 0.0
C706 C 0.43886 0.46233 0.97973 0.0
C707 C 0.46398 0.4386 0.98436 0.0
C708 C 0.45577 0.40167 0.98513 0.0
C709 C 0.42212 0.38933 0.98176 0.0
C710 C 0.44714 0.50164 0.97839 0.0
C711 C 0.48192 0.37553 0.98993 0.0
C712 C 0.74431 0.46453 0.98536 0.0
C713 C 0.7304 0.4321 0.9791 0.0
C714 C 0.66691 0.44525 0.97615 0.0
C715 C 0.64629 0.47351 0.97222 0.0
C716 C 0.61106 0.47926 0.97588 0.0
C717 C 0.5961 0.45572 0.98353 0.0
C718 C 0.61604 0.42572 0.98699 0.0
C719 C 0.6512 0.42072 0.98325 0.0
C720 C 0.59031 0.51119 0.97192 0.0
C721 C 0.60047 0.39943 0.9949 0.0
C722 C 0.55298 0.53916 0.02808 0.0
C723 C 0.52082 0.53885 0.0339 0.0
C724 C 0.49063 0.5209 0.03004 0.0
C725 C 0.49193 0.50399 0.01992 0.0
C726 C 0.4616 0.48698 0.01561 0.0
C727 C 0.46303 0.47064 0.00563 0.0
C728 C 0.49508 0.46982 -0.00035 0.0
C729 C 0.49676 0.45316 0.98948 0.0
C730 C 0.52977 0.45 0.98418 0.0
C731 C 0.5611 0.46395 0.98868 0.0
C732 C 0.55931 0.48315 0.99845 0.0
C733 C 0.58988 0.49938 0.00288 0.0
C734 C 0.58787 0.51797 0.01253 0.0
C735 C 0.55535 0.52047 0.01823 0.0
C736 C 0.52447 0.50355 0.01404 0.0
C737 C 0.52625 0.48567 0.00401 0.0
C738 C 0.31673 0.39537 0.9883 0.0
C739 C 0.33099 0.4154 0.97852 0.0
O740 O 0.66924 0.61833 0.04487 0.0
O741 O 0.70157 0.44229 0.97284 0.0
O742 O 0.36346 0.40025 0.97542 0.0
O743 O 0.36092 0.49434 0.05182 0.0
H744 H 0.66025 0.60651 0.06071 0.0
H745 H 0.62397 0.65959 0.05584 0.0
H746 H 0.66407 0.68455 0.0527 0.0
H747 H 0.65517 0.67043 0.06627 0.0
H748 H 0.64975 0.55357 0.05123 0.0
H749 H 0.62879 0.6388 0.02935 0.0
H750 H 0.57151 0.50924 0.04989 0.0
H751 H 0.61854 0.4986 0.05057 0.0
H752 H 0.59331 0.48847 0.03866 0.0
H753 H 0.57791 0.63907 0.01822 0.0
H754 H 0.54152 0.60919 0.0216 0.0
H755 H 0.57477 0.59553 0.01202 0.0
H756 H 0.32964 0.50776 0.03886 0.0
H757 H 0.2847 0.46052 0.04228 0.0
H758 H 0.30871 0.44662 0.05408 0.0
H759 H 0.32927 0.44225 0.04105 0.0
H760 H 0.37326 0.55117 0.03937 0.0
H761 H 0.41988 0.46029 0.05481 0.0
H762 H 0.45615 0.58826 0.0296 0.0
H763 H 0.40783 0.59093 0.02881 0.0
H764 H 0.43279 0.56294 0.01964 0.0
H765 H 0.4802 0.44358 0.05228 0.0
H766 H 0.51014 0.4799 0.04895 0.0
H767 H 0.49427 0.45068 0.03863 0.0
H768 H 0.33447 0.44403 0.98083 0.0
H769 H 0.38573 0.46747 0.9732 0.0
H770 H 0.41523 0.36123 0.98249 0.0
H771 H 0.44576 0.51515 0.98629 0.0
H772 H 0.42788 0.51501 0.97297 0.0
H773 H 0.47472 0.50527 0.97517 0.0
H774 H 0.47094 0.34788 0.99031 0.0
H775 H 0.4891 0.3843 0.99813 0.0
H776 H 0.50694 0.37506 0.98509 0.0
H777 H 0.72232 0.41151 0.98501 0.0
H778 H 0.768 0.45689 0.99018 0.0
H779 H 0.72309 0.47449 0.99089 0.0
H780 H 0.75191 0.48664 0.97988 0.0
H781 H 0.65836 0.49186 0.96656 0.0
H782 H 0.66606 0.39752 0.98587 0.0
H783 H 0.58506 0.52991 0.97868 0.0
H784 H 0.56394 0.50236 0.9688 0.0
H785 H 0.60492 0.52584 0.96553 0.0
H786 H 0.6183 0.376 0.99617 0.0
H787 H 0.57406 0.38968 0.99206 0.0
H788 H 0.59602 0.41308 0.00269 0.0
H789 H 0.51939 0.55233 0.04159 0.0
H790 H 0.43623 0.48635 0.01984 0.0
H791 H 0.43871 0.45823 0.00273 0.0
H792 H 0.53122 0.43596 0.97658 0.0
H793 H 0.61569 0.49822 0.99889 0.0
H794 H 0.61223 0.53002 0.01552 0.0
H795 H 0.29111 0.4074 0.99113 0.0
H796 H 0.33645 0.39716 0.99489 0.0
H797 H 0.31224 0.36663 0.98635 0.0
C798 C 0.9479 0.64047 0.48538 0.0
C799 C 0.95852 0.62397 0.47458 0.0
C800 C 0.99639 0.57149 0.47854 0.0
C801 C 0.99817 0.5342 0.47772 0.0
C802 C 0.02927 0.51545 0.48052 0.0
C803 C 0.05921 0.53455 0.48445 0.0
C804 C 0.05767 0.57233 0.48535 0.0
C805 C 0.02634 0.59049 0.48233 0.0
C806 C 0.03011 0.47519 0.47927 0.0
C807 C 0.08907 0.59345 0.48957 0.0
C808 C 0.33526 0.44437 0.46185 0.0
C809 C 0.31097 0.47727 0.46284 0.0
C810 C 0.24543 0.47859 0.46354 0.0
C811 C 0.24216 0.50857 0.47031 0.0
C812 C 0.2101 0.51525 0.47588 0.0
C813 C 0.18081 0.4916 0.4746 0.0
C814 C 0.18297 0.46343 0.46702 0.0
C815 C 0.21535 0.45739 0.46155 0.0
C816 C 0.20824 0.54623 0.48365 0.0
C817 C 0.15193 0.43823 0.46529 0.0
C818 C 0.25317 0.34989 0.52366 0.0
C819 C 0.25311 0.38474 0.52797 0.0
C820 C 0.22182 0.40565 0.52791 0.0
C821 C 0.19007 0.39137 0.52347 0.0
C822 C 0.18945 0.3554 0.51986 0.0
C823 C 0.22106 0.33503 0.52007 0.0
C824 C 0.22312 0.44362 0.53208 0.0
C825 C 0.15591 0.33917 0.51523 0.0
C826 C 0.96042 0.51341 0.55854 0.0
C827 C 0.96086 0.47321 0.55606 0.0
C828 C 0.02045 0.45373 0.55097 0.0
C829 C 0.05362 0.47045 0.55217 0.0
C830 C 0.08064 0.4663 0.54443 0.0
C831 C 0.0745 0.44387 0.53547 0.0
C832 C 0.04153 0.42531 0.53454 0.0
C833 C 0.01462 0.43083 0.54226 0.0
C834 C 0.11548 0.48635 0.54573 0.0
C835 C 0.03457 0.39998 0.52536 0.0
C836 C 0.09203 0.51483 0.48761 0.0
C837 C 0.1203 0.51255 0.48023 0.0
C838 C 0.15091 0.49242 0.48245 0.0
C839 C 0.15323 0.47328 0.49215 0.0
C840 C 0.18306 0.45158 0.4944 0.0
C841 C 0.18501 0.43252 0.50387 0.0
C842 C 0.15746 0.43475 0.51156 0.0
C843 C 0.1593 0.41536 0.52122 0.0
C844 C 0.13175 0.4185 0.52877 0.0
C845 C 0.10219 0.44073 0.52695 0.0
C846 C 0.09968 0.46002 0.51726 0.0
C847 C 0.07033 0.48255 0.51512 0.0
C848 C 0.06769 0.50051 0.50542 0.0
C849 C 0.09466 0.49725 0.49758 0.0
C850 C 0.12511 0.47585 0.49975 0.0
C851 C 0.1274 0.45686 0.50953 0.0
C852 C 0.33921 0.32199 0.51353 0.0
C853 C 0.31826 0.34335 0.52196 0.0
O854 O 0.96522 0.58765 0.47568 0.0
O855 O 0.99453 0.45973 0.55837 0.0
O856 O 0.28361 0.3301 0.52261 0.0
O857 O 0.27718 0.46867 0.45906 0.0
H858 H 0.98293 0.63777 0.47151 0.0
H859 H 0.97011 0.63781 0.49117 0.0
H860 H 0.92391 0.62684 0.48875 0.0
H861 H 0.9419 0.66946 0.48443 0.0
H862 H 0.97498 0.51978 0.47479 0.0
H863 H 0.02546 0.61935 0.48308 0.0
H864 H 0.0543 0.46691 0.47467 0.0
H865 H 0.00595 0.46475 0.47515 0.0
H866 H 0.0317 0.46257 0.48726 0.0
H867 H 0.08282 0.62242 0.49049 0.0
H868 H 0.11222 0.59052 0.48401 0.0
H869 H 0.09735 0.58268 0.49743 0.0
H870 H 0.30975 0.4839 0.47153 0.0
H871 H 0.36263 0.45076 0.46475 0.0
H872 H 0.33707 0.43499 0.45343 0.0
H873 H 0.32426 0.42221 0.46678 0.0
H874 H 0.26481 0.52623 0.4715 0.0
H875 H 0.21789 0.43485 0.4561 0.0
H876 H 0.18308 0.5616 0.48248 0.0
H877 H 0.23143 0.56468 0.48278 0.0
H878 H 0.20789 0.53575 0.49194 0.0
H879 H 0.15629 0.42039 0.45827 0.0
H880 H 0.12681 0.45367 0.46413 0.0
H881 H 0.14823 0.42133 0.47249 0.0
H882 H 0.31805 0.37157 0.51909 0.0
H883 H 0.2775 0.39597 0.5312 0.0
H884 H 0.22122 0.30787 0.51696 0.0
H885 H 0.22035 0.46254 0.52531 0.0
H886 H 0.2486 0.44955 0.53627 0.0
H887 H 0.20035 0.44852 0.53765 0.0
H888 H 0.15893 0.31002 0.51361 0.0
H889 H 0.14934 0.35285 0.50763 0.0
H890 H 0.13297 0.34331 0.52079 0.0
H891 H 0.95472 0.46965 0.54742 0.0
H892 H 0.93403 0.52526 0.55649 0.0
H893 H 0.98138 0.52715 0.55373 0.0
H894 H 0.96585 0.51828 0.56714 0.0
H895 H 0.05784 0.48767 0.55904 0.0
H896 H 0.98911 0.41716 0.54157 0.0
H897 H 0.12178 0.50164 0.53836 0.0
H898 H 0.13758 0.46693 0.54699 0.0
H899 H 0.11471 0.50524 0.55262 0.0
H900 H 0.01017 0.38349 0.5267 0.0
H901 H 0.05786 0.38186 0.5241 0.0
H902 H 0.0309 0.4156 0.51792 0.0
H903 H 0.11837 0.5264 0.47266 0.0
H904 H 0.20523 0.44874 0.48884 0.0
H905 H 0.20854 0.41609 0.50507 0.0
H906 H 0.13343 0.40363 0.53618 0.0
H907 H 0.04884 0.4863 0.52087 0.0
H908 H 0.04432 0.51714 0.50417 0.0
H909 H 0.36725 0.3319 0.51298 0.0
H910 H 0.32645 0.32533 0.5056 0.0
H911 H 0.33954 0.29298 0.51548 0.0
C912 C 0.11672 0.7166 0.14407 0.0
C913 C 0.99023 0.65949 0.14384 0.0
C914 C 0.9795 0.71341 0.11333 0.0
Mg915 Mg 0.14885 0.78638 0.13317 0.0
Mg916 Mg 0.10215 0.85441 0.12348 0.0
O917 O 0.10681 0.8049 0.12486 0.0
Mg918 Mg 0.06908 0.77131 0.13013 0.0
O919 O 0.03559 0.73355 0.13548 0.0
Mg920 Mg 0.05454 0.69133 0.12721 0.0
Mg921 Mg 0.98603 0.73881 0.13658 0.0
C922 C 0.02685 0.82878 0.11412 0.0
O923 O 0.04341 0.81007 0.14255 0.0
O924 O 0.18474 0.82187 0.12244 0.0
O925 O 0.98697 0.78946 0.14518 0.0
O926 O 0.14386 0.83242 0.14588 0.0
O927 O 0.15088 0.8635 0.11443 0.0
O928 O 0.10762 0.87467 0.13937 0.0
O929 O 0.09155 0.73055 0.11811 0.0
O930 O 0.15002 0.74163 0.12071 0.0
C931 C 0.12478 0.72388 0.11623 0.0
C932 C 0.18094 0.84748 0.11573 0.0
O933 O 0.03005 0.79684 0.11789 0.0
O934 O 0.01783 0.65546 0.13777 0.0
O935 O 0.04979 0.85377 0.11592 0.0
O936 O 0.00885 0.69597 0.11455 0.0
O937 O 0.97412 0.68967 0.14485 0.0
O938 O 0.96709 0.73417 0.1206 0.0
O939 O 0.1095 0.74954 0.14211 0.0
O940 O 0.09911 0.69086 0.13974 0.0
C941 C 0.12694 0.8622 0.14687 0.0
C942 C 0.01208 0.81231 0.14689 0.0
C943 C 0.62303 0.79353 0.39463 0.0
C944 C 0.67433 0.67144 0.39822 0.0
C945 C 0.62579 0.64784 0.3672 0.0
Mg946 Mg 0.5561 0.82773 0.38236 0.0
Mg947 Mg 0.48715 0.78018 0.37358 0.0
O948 O 0.53667 0.78508 0.37438 0.0
Mg949 Mg 0.5676 0.74721 0.38064 0.0
O950 O 0.60283 0.71288 0.38679 0.0
Mg951 Mg 0.64684 0.72777 0.37876 0.0
Mg952 Mg 0.59681 0.66447 0.38995 0.0
C953 C 0.51096 0.70462 0.36445 0.0
O954 O 0.52543 0.72664 0.39292 0.0
O955 O 0.5209 0.86325 0.37122 0.0
O956 O 0.54241 0.66948 0.39631 0.0
O957 O 0.51021 0.82611 0.39506 0.0
O958 O 0.47746 0.82791 0.36453 0.0
O959 O 0.46897 0.78666 0.3896 0.0
O960 O 0.61046 0.76459 0.36859 0.0
O961 O 0.60142 0.82405 0.36998 0.0
C962 C 0.61849 0.797 0.3661 0.0
C963 C 0.49389 0.85799 0.36508 0.0
O964 O 0.54211 0.70744 0.36873 0.0
O965 O 0.67992 0.69377 0.39062 0.0
O966 O 0.48612 0.72803 0.36587 0.0
O967 O 0.64135 0.67857 0.36702 0.0
O968 O 0.64335 0.6577 0.39997 0.0
O969 O 0.60674 0.63759 0.37512 0.0
O970 O 0.59009 0.78874 0.39219 0.0
O971 O 0.64806 0.77388 0.39071 0.0
C972 C 0.48137 0.80817 0.39662 0.0
C973 C 0.52023 0.69577 0.39718 0.0
C974 C 0.61036 0.20426 0.65106 0.0
C975 C 0.48426 0.1489 0.6514 0.0
C976 C 0.47512 0.19402 0.62004 0.0
Mg977 Mg 0.64375 0.27238 0.63879 0.0
Mg978 Mg 0.5945 0.33781 0.62865 0.0
O979 O 0.60214 0.28854 0.62986 0.0
Mg980 Mg 0.56467 0.25586 0.63568 0.0
O981 O 0.53065 0.21995 0.64165 0.0
Mg982 Mg 0.54968 0.17604 0.63435 0.0
Mg983 Mg 0.48108 0.22637 0.64257 0.0
C984 C 0.52268 0.30893 0.61824 0.0
O985 O 0.53947 0.29693 0.64725 0.0
O986 O 0.67939 0.30852 0.62792 0.0
O987 O 0.48156 0.2804 0.64943 0.0
O988 O 0.63628 0.31966 0.65095 0.0
O989 O 0.64381 0.34996 0.62043 0.0
O990 O 0.59659 0.35877 0.64451 0.0
O991 O 0.58763 0.21301 0.62452 0.0
O992 O 0.64598 0.22581 0.62682 0.0
C993 C 0.62098 0.20672 0.62266 0.0
C994 C 0.67448 0.33499 0.62155 0.0
O995 O 0.52628 0.27811 0.62271 0.0
O996 O 0.51174 0.14311 0.64539 0.0
O997 O 0.54412 0.33519 0.62004 0.0
O998 O 0.50512 0.17798 0.6214 0.0
O999 O 0.46886 0.17959 0.65195 0.0
O1000 O 0.46177 0.21555 0.62694 0.0
O1001 O 0.60465 0.2366 0.64811 0.0
O1002 O 0.59242 0.17788 0.64728 0.0
C1003 C 0.61721 0.34814 0.65194 0.0
C1004 C 0.50775 0.30217 0.651 0.0
C1005 C 0.12538 0.28996 0.89491 0.0
C1006 C 0.17571 0.16051 0.8946 0.0
C1007 C 0.11267 0.14875 0.86586 0.0
Mg1008 Mg 0.05284 0.32386 0.88533 0.0
Mg1009 Mg 0.98152 0.27687 0.878 0.0
O1010 O 0.03131 0.28181 0.87768 0.0
Mg1011 Mg 0.06486 0.24388 0.8827 0.0
O1012 O 0.10215 0.20936 0.88764 0.0
Mg1013 Mg 0.14291 0.22435 0.87812 0.0
Mg1014 Mg 0.09437 0.16052 0.88964 0.0
C1015 C 0.00375 0.20222 0.8677 0.0
O1016 O 0.02728 0.22179 0.89601 0.0
O1017 O 0.01381 0.35963 0.87566 0.0
O1018 O 0.04577 0.16515 0.89925 0.0
O1019 O 0.01091 0.32072 0.89933 0.0
O1020 O 0.96799 0.32582 0.86987 0.0
O1021 O 0.96733 0.28313 0.89437 0.0
O1022 O 0.10357 0.26276 0.86971 0.0
O1023 O 0.09304 0.32186 0.87147 0.0
C1024 C 0.10957 0.29544 0.86705 0.0
C1025 C 0.98467 0.35581 0.87036 0.0
O1026 O 0.03599 0.20521 0.87119 0.0
O1027 O 0.1797 0.18648 0.88799 0.0
O1028 O 0.97887 0.22491 0.86998 0.0
O1029 O 0.13194 0.17725 0.86615 0.0
O1030 O 0.14491 0.14719 0.89681 0.0
O1031 O 0.09373 0.13879 0.87385 0.0
O1032 O 0.09155 0.28477 0.89369 0.0
O1033 O 0.14871 0.26995 0.8902 0.0
C1034 C 0.98178 0.3036 0.90131 0.0
C1035 C 0.02427 0.19157 0.90086 0.0
H1036 H 0.24094 0.81943 0.46905 0.0
H1037 H 0.29834 0.81721 0.45956 0.0
H1038 H 0.26549 0.90634 0.44004 0.0
H1039 H 0.20734 0.90724 0.4491 0.0
H1040 H 0.28899 0.85733 0.42784 0.0
H1041 H 0.33456 0.91239 0.45922 0.0
H1042 H 0.34493 0.92097 0.47849 0.0
H1043 H 0.39873 0.81936 0.47989 0.0
H1044 H 0.38823 0.80991 0.46065 0.0
H1045 H 0.4852 0.86441 0.41085 0.0
H1046 H 0.4412 0.87913 0.42487 0.0
H1047 H 0.38526 0.78067 0.41827 0.0
H1048 H 0.42861 0.76551 0.40449 0.0
H1049 H 0.40996 0.84402 0.44361 0.0
H1050 H 0.29754 0.80491 0.414 0.0
H1051 H 0.2891 0.80015 0.39454 0.0
H1052 H 0.36965 0.88056 0.38945 0.0
H1053 H 0.37828 0.88612 0.40889 0.0
C1054 C 0.246 0.83853 0.46274 0.0
C1055 C 0.2192 0.86275 0.45958 0.0
C1056 C 0.27905 0.83759 0.45741 0.0
C1057 C 0.28635 0.86162 0.44906 0.0
C1058 C 0.26041 0.88729 0.44638 0.0
C1059 C 0.22719 0.88782 0.45157 0.0
C1060 C 0.31936 0.85778 0.44244 0.0
C1061 C 0.3154 0.85484 0.43133 0.0
C1062 C 0.35404 0.85484 0.44692 0.0
C1063 C 0.36038 0.86035 0.4585 0.0
C1064 C 0.34836 0.89175 0.46365 0.0
C1065 C 0.35431 0.89679 0.47457 0.0
C1066 C 0.37242 0.8707 0.48041 0.0
C1067 C 0.38469 0.83954 0.47535 0.0
C1068 C 0.37879 0.83435 0.46444 0.0
C1069 C 0.46402 0.84545 0.41261 0.0
C1070 C 0.45989 0.81417 0.40641 0.0
C1071 C 0.439 0.85388 0.42063 0.0
C1072 C 0.4097 0.83114 0.42249 0.0
C1073 C 0.40744 0.7986 0.41692 0.0
C1074 C 0.43223 0.79013 0.40897 0.0
C1075 C 0.37904 0.8429 0.42918 0.0
C1076 C 0.38347 0.84712 0.44022 0.0
C1077 C 0.34478 0.84786 0.42463 0.0
C1078 C 0.33896 0.8455 0.41292 0.0
C1079 C 0.31343 0.82162 0.40874 0.0
C1080 C 0.3086 0.81879 0.39771 0.0
C1081 C 0.32894 0.83991 0.39076 0.0
C1082 C 0.35403 0.86407 0.39484 0.0
C1083 C 0.35895 0.86702 0.40587 0.0
H1084 H 0.32519 0.83766 0.38222 0.0
H1085 H 0.37701 0.87466 0.48887 0.0
H1086 H 0.30394 0.90034 0.69507 0.0
H1087 H 0.34088 0.94057 0.68432 0.0
H1088 H 0.40676 0.96298 0.71177 0.0
H1089 H 0.36851 0.92429 0.72269 0.0
H1090 H 0.39276 0.0219 0.70294 0.0
H1091 H 0.43674 0.91123 0.68961 0.0
H1092 H 0.43428 0.85 0.68217 0.0
H1093 H 0.38316 0.8898 0.65397 0.0
H1094 H 0.38484 0.95123 0.66131 0.0
H1095 H 0.51568 0.08394 0.65539 0.0
H1096 H 0.49308 0.03604 0.66689 0.0
H1097 H 0.39798 0.09828 0.67357 0.0
H1098 H 0.42077 0.14657 0.66239 0.0
H1099 H 0.43695 0.99411 0.66638 0.0
H1100 H 0.3693 0.086 0.69848 0.0
H1101 H 0.37916 0.14532 0.70672 0.0
H1102 H 0.49136 0.13882 0.6991 0.0
H1103 H 0.48229 0.07926 0.69095 0.0
C1104 C 0.32629 0.91389 0.6988 0.0
C1105 C 0.33292 0.90976 0.70977 0.0
C1106 C 0.3477 0.93655 0.69262 0.0
C1107 C 0.37687 0.9547 0.69719 0.0
C1108 C 0.38433 0.94947 0.70806 0.0
C1109 C 0.36253 0.92729 0.71429 0.0
C1110 C 0.39799 0.98094 0.69083 0.0
C1111 C 0.40259 0.01565 0.69498 0.0
C1112 C 0.41173 0.97274 0.68052 0.0
C1113 C 0.4107 0.93583 0.67605 0.0
C1114 C 0.42475 0.9069 0.68186 0.0
C1115 C 0.42352 0.87216 0.67765 0.0
C1116 C 0.40852 0.866 0.66761 0.0
C1117 C 0.39476 0.89461 0.66175 0.0
C1118 C 0.39589 0.92941 0.66592 0.0
C1119 C 0.48998 0.08745 0.65932 0.0
C1120 C 0.47019 0.11925 0.65805 0.0
C1121 C 0.47706 0.05999 0.66587 0.0
C1122 C 0.4441 0.06377 0.67123 0.0
C1123 C 0.42388 0.09508 0.66972 0.0
C1124 C 0.4369 0.12264 0.66328 0.0
C1125 C 0.43058 0.03513 0.6784 0.0
C1126 C 0.42741 9e-05 0.67439 0.0
C1127 C 0.41924 0.04266 0.68898 0.0
C1128 C 0.42502 0.07827 0.69403 0.0
C1129 C 0.3961 0.09714 0.69861 0.0
C1130 C 0.40155 0.13083 0.70326 0.0
C1131 C 0.43585 0.14587 0.70341 0.0
C1132 C 0.46479 0.1272 0.69895 0.0
C1133 C 0.4595 0.09349 0.69431 0.0
H1134 H 0.43999 0.17197 0.707 0.0
H1135 H 0.40759 0.83908 0.66437 0.0
H1136 H 0.47707 0.03015 0.92817 0.0
H1137 H 0.42814 0.06158 0.91917 0.0
H1138 H 0.35584 0.03249 0.94472 0.0
H1139 H 0.40467 0.00121 0.95376 0.0
H1140 H 0.32902 0.0173 0.92465 0.0
H1141 H 0.38525 0.11685 0.94287 0.0
H1142 H 0.43607 0.15597 0.94758 0.0
H1143 H 0.45007 0.18393 0.91458 0.0
H1144 H 0.39962 0.14456 0.90966 0.0
H1145 H 0.17761 0.12033 0.91274 0.0
H1146 H 0.22995 0.0946 0.92138 0.0
H1147 H 0.29848 0.13985 0.89704 0.0
H1148 H 0.24615 0.16689 0.88854 0.0
H1149 H 0.3293 0.14667 0.91564 0.0
H1150 H 0.27486 0.04961 0.89694 0.0
H1151 H 0.22552 0.00995 0.89133 0.0
H1152 H 0.21055 0.9756 0.92374 0.0
H1153 H 0.25951 0.01544 0.92957 0.0
C1154 C 0.45091 0.03111 0.93196 0.0
C1155 C 0.44482 0.01394 0.94179 0.0
C1156 C 0.42299 0.04896 0.92681 0.0
C1157 C 0.38845 0.04959 0.93133 0.0
C1158 C 0.38233 0.03243 0.94112 0.0
C1159 C 0.41024 0.0148 0.9463 0.0
C1160 C 0.35827 0.06691 0.92569 0.0
C1161 C 0.32884 0.04567 0.92279 0.0
C1162 C 0.35873 0.10362 0.92292 0.0
C1163 C 0.38889 0.12748 0.92589 0.0
C1164 C 0.39935 0.13111 0.93661 0.0
C1165 C 0.42805 0.15338 0.93932 0.0
C1166 C 0.44635 0.17235 0.93138 0.0
C1167 C 0.4359 0.16918 0.92072 0.0
C1168 C 0.40724 0.14692 0.91797 0.0
C1169 C 0.2038 0.12483 0.90921 0.0
C1170 C 0.20768 0.14542 0.8999 0.0
C1171 C 0.23373 0.10998 0.91415 0.0
C1172 C 0.26813 0.11463 0.90975 0.0
C1173 C 0.2722 0.13577 0.90057 0.0
C1174 C 0.24226 0.15113 0.8957 0.0
C1175 C 0.29968 0.09716 0.91472 0.0
C1176 C 0.32944 0.11827 0.91746 0.0
C1177 C 0.29982 0.06014 0.91719 0.0
C1178 C 0.27068 0.03573 0.9137 0.0
C1179 C 0.26092 0.03375 0.90288 0.0
C1180 C 0.23303 0.01122 0.89966 0.0
C1181 C 0.21486 0.99033 0.90718 0.0
C1182 C 0.22464 0.99182 0.91793 0.0
C1183 C 0.25249 0.01434 0.92119 0.0
H1184 H 0.19325 0.97293 0.90467 0.0
H1185 H 0.46857 0.18957 0.9335 0.0
H1186 H 0.22982 0.13451 0.19854 0.0
H1187 H 0.22772 0.07338 0.19151 0.0
H1188 H 0.12456 0.05768 0.20653 0.0
H1189 H 0.12743 0.11831 0.21406 0.0
H1190 H 0.16104 0.99504 0.20568 0.0
H1191 H 0.13022 0.08901 0.18109 0.0
H1192 H 0.14006 0.14522 0.17121 0.0
H1193 H 0.2339 0.10022 0.1563 0.0
H1194 H 0.22489 0.0439 0.16623 0.0
H1195 H 0.08756 0.92019 0.15296 0.0
H1196 H 0.09964 0.96226 0.16734 0.0
H1197 H 0.19273 0.90089 0.17614 0.0
H1198 H 0.17887 0.85666 0.16229 0.0
H1199 H 0.1667 0.99795 0.1661 0.0
H1200 H 0.19906 0.90607 0.19451 0.0
H1201 H 0.18437 0.85165 0.20475 0.0
H1202 H 0.08108 0.89517 0.21263 0.0
H1203 H 0.09428 0.949 0.20183 0.0
C1204 C 0.20701 0.1178 0.20052 0.0
C1205 C 0.17811 0.13169 0.20649 0.0
C1206 C 0.20584 0.08286 0.1965 0.0
C1207 C 0.17547 0.06134 0.19821 0.0
C1208 C 0.14808 0.07394 0.205 0.0
C1209 C 0.14954 0.10874 0.20919 0.0
C1210 C 0.17024 0.02807 0.19185 0.0
C1211 C 0.16243 0.99563 0.19703 0.0
C1212 C 0.17185 0.02873 0.18054 0.0
C1213 C 0.17712 0.06243 0.17449 0.0
C1214 C 0.15308 0.0912 0.17576 0.0
C1215 C 0.15849 0.12307 0.17014 0.0
C1216 C 0.18764 0.12632 0.16315 0.0
C1217 C 0.21138 0.09768 0.16173 0.0
C1218 C 0.20613 0.06579 0.16735 0.0
C1219 C 0.10961 0.91457 0.15826 0.0
C1220 C 0.13187 0.88467 0.15655 0.0
C1221 C 0.11662 0.93883 0.16647 0.0
C1222 C 0.1466 0.93439 0.17303 0.0
C1223 C 0.16852 0.90413 0.17155 0.0
C1224 C 0.16084 0.8791 0.16349 0.0
C1225 C 0.15772 0.96483 0.1799 0.0
C1226 C 0.16616 0.99709 0.17476 0.0
C1227 C 0.15624 0.96395 0.19118 0.0
C1228 C 0.14724 0.93092 0.19708 0.0
C1229 C 0.17275 0.90349 0.19812 0.0
C1230 C 0.16471 0.87283 0.20405 0.0
C1231 C 0.13158 0.8698 0.20922 0.0
C1232 C 0.10644 0.89741 0.20846 0.0
C1233 C 0.11406 0.92782 0.20236 0.0
H1234 H 0.12547 0.84618 0.21387 0.0
H1235 H 0.19178 0.15101 0.15881 0.0
H1236 H 0.27863 0.11646 0.53703 0.0
H1237 H 0.32523 0.14153 0.54865 0.0
H1238 H 0.27191 0.09659 0.57615 0.0
H1239 H 0.22583 0.07095 0.56463 0.0
H1240 H 0.29251 0.17015 0.57834 0.0
H1241 H 0.34106 0.05524 0.56684 0.0
H1242 H 0.36087 0.01136 0.55325 0.0
H1243 H 0.43772 0.08688 0.54116 0.0
H1244 H 0.41796 0.13142 0.5546 0.0
H1245 H 0.40787 0.16952 0.62127 0.0
H1246 H 0.36815 0.15321 0.60668 0.0
H1247 H 0.4507 0.18127 0.58384 0.0
H1248 H 0.49176 0.19482 0.59866 0.0
H1249 H 0.4178 0.12573 0.57697 0.0
H1250 H 0.37833 0.23585 0.59158 0.0
H1251 H 0.35816 0.27974 0.60509 0.0
H1252 H 0.26316 0.21783 0.61083 0.0
H1253 H 0.28327 0.17275 0.5977 0.0
C1254 C 0.27677 0.11225 0.54557 0.0
C1255 C 0.24812 0.09256 0.54995 0.0
C1256 C 0.30339 0.12643 0.55217 0.0
C1257 C 0.30177 0.12104 0.56323 0.0
C1258 C 0.27333 0.10131 0.56763 0.0
C1259 C 0.247 0.08678 0.56104 0.0
C1260 C 0.32988 0.13538 0.57033 0.0
C1261 C 0.31995 0.16055 0.57813 0.0
C1262 C 0.36582 0.12359 0.56967 0.0
C1263 C 0.37773 0.0968 0.56163 0.0
C1264 C 0.36194 0.06261 0.56122 0.0
C1265 C 0.3732 0.03759 0.55356 0.0
C1266 C 0.40045 0.04637 0.54632 0.0
C1267 C 0.41656 0.08015 0.54675 0.0
C1268 C 0.40535 0.10528 0.55439 0.0
C1269 C 0.41752 0.17204 0.61312 0.0
C1270 C 0.45248 0.18383 0.611 0.0
C1271 C 0.39477 0.16299 0.60478 0.0
C1272 C 0.40592 0.16723 0.59414 0.0
C1273 C 0.44135 0.17815 0.592 0.0
C1274 C 0.46471 0.18597 0.60041 0.0
C1275 C 0.38031 0.15994 0.58536 0.0
C1276 C 0.39067 0.13619 0.57716 0.0
C1277 C 0.3447 0.17343 0.58561 0.0
C1278 C 0.33247 0.2007 0.5936 0.0
C1279 C 0.3533 0.23131 0.59578 0.0
C1280 C 0.34184 0.25647 0.60338 0.0
C1281 C 0.30934 0.25166 0.60877 0.0
C1282 C 0.2883 0.22158 0.60662 0.0
C1283 C 0.29976 0.19617 0.5991 0.0
H1284 H 0.30049 0.27123 0.61462 0.0
H1285 H 0.40915 0.02696 0.5404 0.0
H1286 H 0.09727 0.89174 0.799 0.0
H1287 H 0.09817 0.95175 0.80677 0.0
H1288 H 0.19876 0.92784 0.82205 0.0
H1289 H 0.1966 0.86699 0.8149 0.0
H1290 H 0.15742 0.95224 0.83601 0.0
H1291 H 0.1863 0.99126 0.80086 0.0
H1292 H 0.18018 0.99732 0.78136 0.0
H1293 H 0.07828 0.04908 0.78569 0.0
H1294 H 0.08348 0.04267 0.80521 0.0
H1295 H 0.15866 0.1521 0.84862 0.0
H1296 H 0.168 0.10569 0.83494 0.0
H1297 H 0.08012 0.0448 0.84807 0.0
H1298 H 0.07086 0.09038 0.86177 0.0
H1299 H 0.12504 0.06788 0.8192 0.0
H1300 H 0.11172 0.96187 0.85232 0.0
H1301 H 0.11986 0.95718 0.87181 0.0
H1302 H 0.19826 0.04135 0.87085 0.0
H1303 H 0.19097 0.04615 0.85134 0.0
C1304 C 0.11953 0.89922 0.80403 0.0
C1305 C 0.14615 0.8741 0.80669 0.0
C1306 C 0.12034 0.93386 0.80834 0.0
C1307 C 0.14849 0.94449 0.81507 0.0
C1308 C 0.1765 0.92025 0.81701 0.0
C1309 C 0.17528 0.88544 0.81291 0.0
C1310 C 0.14669 0.97893 0.8211 0.0
C1311 C 0.15083 0.97749 0.83224 0.0
C1312 C 0.13811 0.01217 0.81627 0.0
C1313 C 0.13506 0.01608 0.80451 0.0
C1314 C 0.1624 0.00358 0.79766 0.0
C1315 C 0.15912 0.00711 0.78659 0.0
C1316 C 0.12876 0.02338 0.78228 0.0
C1317 C 0.10167 0.03627 0.78903 0.0
C1318 C 0.10477 0.0327 0.80009 0.0
C1319 C 0.14087 0.12918 0.84846 0.0
C1320 C 0.1145 0.12462 0.85643 0.0
C1321 C 0.14616 0.1028 0.84061 0.0
C1322 C 0.12514 0.07163 0.84064 0.0
C1323 C 0.09696 0.06846 0.84803 0.0
C1324 C 0.09183 0.09454 0.85589 0.0
C1325 C 0.13505 0.04038 0.83393 0.0
C1326 C 0.13231 0.04251 0.82279 0.0
C1327 C 0.14544 0.00775 0.83868 0.0
C1328 C 0.15059 0.00451 0.85038 0.0
C1329 C 0.13084 0.97922 0.85626 0.0
C1330 C 0.13528 0.97657 0.86731 0.0
C1331 C 0.1595 0.99901 0.87257 0.0
C1332 C 0.17943 0.02406 0.86678 0.0
C1333 C 0.17514 0.02677 0.85573 0.0
H1334 H 0.16284 0.99695 0.88113 0.0
H1335 H 0.12629 0.02613 0.77372 0.0
H1336 H 0.45082 0.813 0.05237 0.0
H1337 H 0.4067 0.81669 0.06691 0.0
H1338 H 0.33406 0.87304 0.04621 0.0
H1339 H 0.37825 0.86969 0.03168 0.0
H1340 H 0.33866 0.9054 0.06549 0.0
H1341 H 0.31998 0.78574 0.05236 0.0
H1342 H 0.33671 0.72414 0.04713 0.0
H1343 H 0.37348 0.7036 0.07895 0.0
H1344 H 0.35741 0.76526 0.08433 0.0
H1345 H 0.17939 0.88542 0.09704 0.0
H1346 H 0.22617 0.88774 0.08333 0.0
H1347 H 0.29724 0.82837 0.10376 0.0
H1348 H 0.25048 0.82534 0.11743 0.0
H1349 H 0.29372 0.7982 0.08464 0.0
H1350 H 0.31157 0.91767 0.09793 0.0
H1351 H 0.29355 0.97882 0.10325 0.0
H1352 H 0.25774 0.99958 0.07134 0.0
H1353 H 0.2751 0.93835 0.06587 0.0
C1354 C 0.42542 0.82615 0.05094 0.0
C1355 C 0.41813 0.84146 0.04094 0.0
C1356 C 0.40019 0.8281 0.05922 0.0
C1357 C 0.36704 0.84504 0.05762 0.0
C1358 C 0.35953 0.85999 0.04762 0.0
C1359 C 0.38472 0.85802 0.03934 0.0
C1360 C 0.34044 0.84779 0.06645 0.0
C1361 C 0.32849 0.88195 0.06961 0.0
C1362 C 0.32783 0.81723 0.07197 0.0
C1363 C 0.33788 0.78027 0.06871 0.0
C1364 C 0.33197 0.76821 0.05821 0.0
C1365 C 0.34125 0.73325 0.05523 0.0
C1366 C 0.35624 0.71 0.06269 0.0
C1367 C 0.36192 0.72165 0.07317 0.0
C1368 C 0.35271 0.75659 0.07619 0.0
C1369 C 0.20523 0.87358 0.09873 0.0
C1370 C 0.21109 0.85502 0.10832 0.0
C1371 C 0.23199 0.87493 0.09087 0.0
C1372 C 0.26522 0.85821 0.09252 0.0
C1373 C 0.27173 0.84128 0.1023 0.0
C1374 C 0.24498 0.83972 0.11012 0.0
C1375 C 0.29215 0.85585 0.08377 0.0
C1376 C 0.30404 0.82171 0.08059 0.0
C1377 C 0.3047 0.88642 0.07825 0.0
C1378 C 0.29434 0.92329 0.08152 0.0
C1379 C 0.29959 0.93517 0.09207 0.0
C1380 C 0.28955 0.96987 0.09511 0.0
C1381 C 0.27443 0.99304 0.08764 0.0
C1382 C 0.26942 0.98159 0.07712 0.0
C1383 C 0.27939 0.9469 0.07404 0.0
H1384 H 0.26667 0.01989 0.09001 0.0
H1385 H 0.36338 0.68294 0.06037 0.0
H1386 H 0.34547 0.12869 0.32092 0.0
H1387 H 0.38348 0.08729 0.33089 0.0
H1388 H 0.38354 0.01396 0.30417 0.0
H1389 H 0.34595 0.05554 0.29409 0.0
H1390 H 0.36081 0.98416 0.3236 0.0
H1391 H 0.45869 0.05464 0.30995 0.0
H1392 H 0.49214 0.11046 0.30654 0.0
H1393 H 0.50001 0.12973 0.34028 0.0
H1394 H 0.46616 0.07426 0.34389 0.0
H1395 H 0.46975 0.8512 0.34485 0.0
H1396 H 0.44718 0.89818 0.3332 0.0
H1397 H 0.46687 0.97705 0.35781 0.0
H1398 H 0.49167 0.93004 0.36929 0.0
H1399 H 0.48077 0.00545 0.3393 0.0
H1400 H 0.38132 0.93909 0.35339 0.0
H1401 H 0.34611 0.88492 0.35756 0.0
H1402 H 0.33787 0.86059 0.32411 0.0
H1403 H 0.37343 0.91437 0.31975 0.0
C1404 C 0.35443 0.10422 0.31706 0.0
C1405 C 0.3433 0.09558 0.30664 0.0
C1406 C 0.3761 0.08061 0.32277 0.0
C1407 C 0.38651 0.04775 0.31823 0.0
C1408 C 0.37597 0.03934 0.30778 0.0
C1409 C 0.35465 0.06309 0.30202 0.0
C1410 C 0.40527 0.02068 0.32473 0.0
C1411 C 0.3873 0.98853 0.3269 0.0
C1412 C 0.43918 0.02712 0.32934 0.0
C1413 C 0.45957 0.06046 0.32718 0.0
C1414 C 0.46726 0.07094 0.31664 0.0
C1415 C 0.48636 0.10249 0.31467 0.0
C1416 C 0.49811 0.12368 0.32318 0.0
C1417 C 0.49086 0.11332 0.33369 0.0
C1418 C 0.47175 0.08181 0.3357 0.0
C1419 C 0.46941 0.87861 0.34775 0.0
C1420 C 0.48187 0.88702 0.35801 0.0
C1421 C 0.45641 0.90543 0.34111 0.0
C1422 C 0.45428 0.94103 0.34474 0.0
C1423 C 0.468 0.94974 0.35486 0.0
C1424 C 0.482 0.92293 0.36142 0.0
C1425 C 0.43641 0.96866 0.33812 0.0
C1426 C 0.45435 0.00097 0.33598 0.0
C1427 C 0.40207 0.96273 0.33366 0.0
C1428 C 0.38028 0.9306 0.33626 0.0
C1429 C 0.37215 0.92208 0.34693 0.0
C1430 C 0.35212 0.89146 0.34933 0.0
C1431 C 0.33983 0.86929 0.34111 0.0
C1432 C 0.34743 0.87777 0.33047 0.0
C1433 C 0.36749 0.90834 0.32803 0.0
H1434 H 0.32435 0.84558 0.34298 0.0
H1435 H 0.51289 0.14809 0.32164 0.0
H1436 H 0.81182 0.03967 0.55395 0.0
H1437 H 0.77198 0.05768 0.56857 0.0
H1438 H 0.73757 0.14924 0.55033 0.0
H1439 H 0.779 0.13252 0.53599 0.0
H1440 H 0.74572 0.16951 0.56939 0.0
H1441 H 0.68408 0.07067 0.55394 0.0
H1442 H 0.67585 0.00934 0.54697 0.0
H1443 H 0.69908 0.96621 0.5779 0.0
H1444 H 0.70794 0.02729 0.58503 0.0
H1445 H 0.59025 0.19665 0.60324 0.0
H1446 H 0.61859 0.1673 0.58774 0.0
H1447 H 0.70453 0.13036 0.60774 0.0
H1448 H 0.67708 0.16069 0.62315 0.0
H1449 H 0.6642 0.08259 0.58708 0.0
H1450 H 0.73969 0.18715 0.59986 0.0
H1451 H 0.74265 0.25019 0.60592 0.0
H1452 H 0.68422 0.28318 0.5782 0.0
H1453 H 0.68056 0.22024 0.57208 0.0
C1454 C 0.79557 0.06351 0.55304 0.0
C1455 C 0.79768 0.08394 0.54365 0.0
C1456 C 0.7726 0.07367 0.56137 0.0
C1457 C 0.75085 0.10425 0.56045 0.0
C1458 C 0.75366 0.12526 0.5512 0.0
C1459 C 0.77713 0.11547 0.54294 0.0
C1460 C 0.7262 0.115 0.56929 0.0
C1461 C 0.72769 0.15043 0.57312 0.0
C1462 C 0.70238 0.09037 0.57424 0.0
C1463 C 0.69697 0.05357 0.57 0.0
C1464 C 0.68768 0.0481 0.55924 0.0
C1465 C 0.68286 0.01338 0.55526 0.0
C1466 C 0.68701 0.98389 0.56198 0.0
C1467 C 0.6959 0.98908 0.5727 0.0
C1468 C 0.70079 0.02375 0.57672 0.0
C1469 C 0.61448 0.18115 0.60438 0.0
C1470 C 0.63164 0.1809 0.61433 0.0
C1471 C 0.63067 0.16458 0.59554 0.0
C1472 C 0.66365 0.14697 0.59665 0.0
C1473 C 0.67904 0.14386 0.60678 0.0
C1474 C 0.66336 0.1611 0.61555 0.0
C1475 C 0.68463 0.13643 0.58712 0.0
C1476 C 0.68227 0.10132 0.58321 0.0
C1477 C 0.70713 0.16138 0.58194 0.0
C1478 C 0.70955 0.19909 0.58559 0.0
C1479 C 0.72724 0.20785 0.59512 0.0
C1480 C 0.72909 0.24354 0.59855 0.0
C1481 C 0.71358 0.27065 0.59246 0.0
C1482 C 0.69619 0.26215 0.58292 0.0
C1483 C 0.69421 0.2265 0.57947 0.0
H1484 H 0.71511 0.29825 0.5951 0.0
H1485 H 0.68327 0.95703 0.55889 0.0
H1486 H 0.68104 0.9758 0.27794 0.0
H1487 H 0.66495 0.92151 0.29363 0.0
H1488 H 0.76994 0.95901 0.31589 0.0
H1489 H 0.78941 0.0137 0.30058 0.0
H1490 H 0.75951 0.89265 0.31697 0.0
H1491 H 0.66015 0.97348 0.32258 0.0
H1492 H 0.60902 0.01207 0.31777 0.0
H1493 H 0.55781 0.92283 0.30238 0.0
H1494 H 0.60881 0.88381 0.30708 0.0
H1495 H 0.67214 0.84563 0.36657 0.0
H1496 H 0.70274 0.87102 0.35099 0.0
H1497 H 0.65131 0.79315 0.33068 0.0
H1498 H 0.62165 0.76674 0.34635 0.0
H1499 H 0.63374 0.87179 0.32835 0.0
H1500 H 0.73195 0.78949 0.32879 0.0
H1501 H 0.78185 0.75615 0.33688 0.0
H1502 H 0.83516 0.8551 0.34425 0.0
H1503 H 0.78529 0.88911 0.33635 0.0
C1504 C 0.69837 0.97163 0.28472 0.0
C1505 C 0.73318 0.00478 0.28862 0.0
C1506 C 0.68736 0.93936 0.29486 0.0
C1507 C 0.71392 0.93604 0.30687 0.0
C1508 C 0.75389 0.96271 0.30882 0.0
C1509 C 0.7672 0.99574 0.29912 0.0
C1510 C 0.70444 0.90885 0.31497 0.0
C1511 C 0.73202 0.88842 0.31953 0.0
C1512 C 0.66856 0.90256 0.31817 0.0
C1513 C 0.63861 0.92605 0.31494 0.0
C1514 C 0.63814 0.96224 0.31807 0.0
C1515 C 0.60915 0.98414 0.3154 0.0
C1516 C 0.58029 0.96997 0.30971 0.0
C1517 C 0.58029 0.93383 0.30672 0.0
C1518 C 0.60921 0.91182 0.30939 0.0
C1519 C 0.66877 0.83291 0.35884 0.0
C1520 C 0.64473 0.8043 0.3576 0.0
C1521 C 0.68621 0.84739 0.34997 0.0
C1522 C 0.67917 0.83394 0.33972 0.0
C1523 C 0.65725 0.80361 0.33856 0.0
C1524 C 0.6405 0.78848 0.34749 0.0
C1525 C 0.68873 0.85595 0.33036 0.0
C1526 C 0.66114 0.87565 0.32562 0.0
C1527 C 0.72463 0.86222 0.32727 0.0
C1528 C 0.75469 0.84187 0.33205 0.0
C1529 C 0.75413 0.80418 0.33223 0.0
C1530 C 0.78246 0.78515 0.33676 0.0
C1531 C 0.81163 0.80349 0.34109 0.0
C1532 C 0.81254 0.84092 0.34089 0.0
C1533 C 0.78426 0.86009 0.33637 0.0
H1534 H 0.83355 0.78871 0.3446 0.0
H1535 H 0.55785 0.98695 0.30766 0.0
H1536 H 0.75422 0.98524 0.07748 0.0
H1537 H 0.81293 0.96042 0.08196 0.0
H1538 H 0.7731 0.85359 0.07611 0.0
H1539 H 0.71416 0.87837 0.07179 0.0
H1540 H 0.80664 0.85597 0.09446 0.0
H1541 H 0.8346 0.89088 0.05914 0.0
H1542 H 0.83767 0.93029 0.0434 0.0
H1543 H 0.90421 0.00409 0.06067 0.0
H1544 H 0.90111 0.96536 0.07657 0.0
H1545 H 0.98138 0.78324 0.10355 0.0
H1546 H 0.92644 0.79908 0.09393 0.0
H1547 H 0.94571 0.91086 0.1006 0.0
H1548 H 0.00031 0.89537 0.1101 0.0
H1549 H 0.92285 0.89957 0.0801 0.0
H1550 H 0.89086 0.86123 0.11591 0.0
H1551 H 0.88748 0.81816 0.13075 0.0
H1552 H 0.82737 0.74548 0.11112 0.0
H1553 H 0.83124 0.78773 0.09606 0.0
C1554 C 0.75826 0.95653 0.07696 0.0
C1555 C 0.72982 0.93374 0.07416 0.0
C1556 C 0.79178 0.94236 0.0795 0.0
C1557 C 0.79753 0.90514 0.07927 0.0
C1558 C 0.76931 0.88237 0.07631 0.0
C1559 C 0.73575 0.89654 0.07379 0.0
C1560 C 0.83224 0.89002 0.08283 0.0
C1561 C 0.83204 0.86499 0.09117 0.0
C1562 C 0.86538 0.9019 0.0786 0.0
C1563 C 0.86732 0.92539 0.06908 0.0
C1564 C 0.84962 0.91568 0.05961 0.0
C1565 C 0.85142 0.93786 0.05066 0.0
C1566 C 0.87104 0.96972 0.05104 0.0
C1567 C 0.88898 0.97942 0.06039 0.0
C1568 C 0.88724 0.95735 0.06937 0.0
C1569 C 0.97371 0.8111 0.10301 0.0
C1570 C 0.9948 0.83792 0.10777 0.0
C1571 C 0.9425 0.82011 0.09748 0.0
C1572 C 0.93177 0.85608 0.09672 0.0
C1573 C 0.95349 0.88294 0.10111 0.0
C1574 C 0.98467 0.87399 0.10657 0.0
C1575 C 0.89717 0.86604 0.09181 0.0
C1576 C 0.8974 0.89027 0.08327 0.0
C1577 C 0.86406 0.85279 0.09572 0.0
C1578 C 0.86181 0.82743 0.1048 0.0
C1579 C 0.87729 0.83589 0.11471 0.0
C1580 C 0.87524 0.81164 0.12317 0.0
C1581 C 0.85728 0.77907 0.12187 0.0
C1582 C 0.84127 0.77072 0.11212 0.0
C1583 C 0.84348 0.79476 0.1036 0.0
H1584 H 0.85573 0.76032 0.12843 0.0
H1585 H 0.87242 0.98685 0.0441 0.0
H1586 H 0.01956 0.01478 0.78401 0.0
H1587 H 0.02091 0.03865 0.8022 0.0
H1588 H 0.9069 0.05771 0.80102 0.0
H1589 H 0.90596 0.03594 0.78256 0.0
H1590 H 0.93574 0.11281 0.80855 0.0
H1591 H 0.94985 0.98946 0.81617 0.0
H1592 H 0.97487 0.9284 0.81535 0.0
H1593 H 0.07472 0.96696 0.82769 0.0
H1594 H 0.05119 0.02862 0.82804 0.0
H1595 H 0.93836 0.17388 0.86239 0.0
H1596 H 0.92558 0.1323 0.84767 0.0
H1597 H 0.03845 0.12597 0.84026 0.0
H1598 H 0.0512 0.16786 0.85474 0.0
H1599 H 0.00277 0.05932 0.83862 0.0
H1600 H 0.9899 0.1833 0.82725 0.0
H1601 H 0.96399 0.24401 0.82851 0.0
H1602 H 0.85844 0.20055 0.82426 0.0
H1603 H 0.88374 0.13948 0.82311 0.0
C1604 C 0.99484 0.02408 0.78766 0.0
C1605 C 0.96274 0.02388 0.78186 0.0
C1606 C 0.99553 0.03729 0.7981 0.0
C1607 C 0.96397 0.04962 0.80308 0.0
C1608 C 0.93165 0.0484 0.79738 0.0
C1609 C 0.93109 0.03589 0.78685 0.0
C1610 C 0.96523 0.06646 0.81386 0.0
C1611 C 0.94967 0.10052 0.81517 0.0
C1612 C 0.98398 0.05091 0.82252 0.0
C1613 C 0.99875 0.0139 0.82203 0.0
C1614 C 0.97739 0.98511 0.81853 0.0
C1615 C 0.99139 0.95037 0.81812 0.0
C1616 C 0.02653 0.94389 0.82137 0.0
C1617 C 0.04774 0.97214 0.82504 0.0
C1618 C 0.03411 0.00703 0.82531 0.0
C1619 C 0.96047 0.16309 0.85774 0.0
C1620 C 0.99593 0.17368 0.85983 0.0
C1621 C 0.95314 0.13934 0.84936 0.0
C1622 C 0.98113 0.12605 0.84292 0.0
C1623 C 0.01657 0.13548 0.84526 0.0
C1624 C 0.02386 0.15923 0.85359 0.0
C1625 C 0.97363 0.10526 0.8331 0.0
C1626 C 0.9882 0.0708 0.83199 0.0
C1627 C 0.95379 0.12014 0.82464 0.0
C1628 C 0.93865 0.15684 0.82522 0.0
C1629 C 0.96115 0.18668 0.82666 0.0
C1630 C 0.94658 0.22115 0.82734 0.0
C1631 C 0.90958 0.22613 0.8265 0.0
C1632 C 0.88708 0.19665 0.82493 0.0
C1633 C 0.90152 0.16211 0.82426 0.0
H1634 H 0.89834 0.25283 0.82703 0.0
H1635 H 0.03729 0.91695 0.8211 0.0
H1636 H 0.85799 0.87451 0.44724 0.0
H1637 H 0.79533 0.86534 0.44236 0.0
H1638 H 0.78247 0.97921 0.43789 0.0
H1639 H 0.84542 0.98849 0.44271 0.0
H1640 H 0.72825 0.88986 0.44917 0.0
H1641 H 0.73417 0.98797 0.41461 0.0
H1642 H 0.77866 0.02004 0.40352 0.0
H1643 H 0.85333 0.93348 0.40737 0.0
H1644 H 0.80909 0.90076 0.41833 0.0
H1645 H 0.60872 0.86548 0.39675 0.0
H1646 H 0.63641 0.90636 0.40989 0.0
H1647 H 0.68716 0.81581 0.4249 0.0
H1648 H 0.66027 0.77577 0.41195 0.0
H1649 H 0.70715 0.91451 0.41081 0.0
H1650 H 0.70716 0.82702 0.44965 0.0
H1651 H 0.66408 0.79082 0.45995 0.0
H1652 H 0.57672 0.85108 0.44692 0.0
H1653 H 0.61927 0.88799 0.43662 0.0
C1654 C 0.84157 0.89764 0.44546 0.0
C1655 C 0.85649 0.93219 0.44537 0.0
C1656 C 0.80576 0.89242 0.44273 0.0
C1657 C 0.78434 0.9216 0.43975 0.0
C1658 C 0.79861 0.95637 0.44016 0.0
C1659 C 0.83448 0.96162 0.44291 0.0
C1660 C 0.7489 0.91463 0.43493 0.0
C1661 C 0.72327 0.89545 0.44081 0.0
C1662 C 0.74201 0.92319 0.42414 0.0
C1663 C 0.76855 0.94225 0.4174 0.0
C1664 C 0.76006 0.97581 0.41306 0.0
C1665 C 0.78522 0.99407 0.4068 0.0
C1666 C 0.81886 0.97887 0.40478 0.0
C1667 C 0.82733 0.94528 0.40897 0.0
C1668 C 0.80224 0.92688 0.4152 0.0
C1669 C 0.62497 0.85454 0.4031 0.0
C1670 C 0.63276 0.81777 0.40338 0.0
C1671 C 0.64073 0.87775 0.41056 0.0
C1672 C 0.66365 0.86412 0.41846 0.0
C1673 C 0.66915 0.82701 0.41907 0.0
C1674 C 0.65402 0.80412 0.41159 0.0
C1675 C 0.68706 0.88788 0.42488 0.0
C1676 C 0.71082 0.91027 0.4193 0.0
C1677 C 0.69225 0.88198 0.43593 0.0
C1678 C 0.66652 0.86035 0.44233 0.0
C1679 C 0.6788 0.83284 0.44904 0.0
C1680 C 0.65444 0.81208 0.45486 0.0
C1681 C 0.61768 0.81864 0.45409 0.0
C1682 C 0.6052 0.84599 0.4475 0.0
C1683 C 0.62944 0.8668 0.44165 0.0
H1684 H 0.59887 0.80252 0.4586 0.0
H1685 H 0.83831 0.99308 0.39995 0.0
H1686 H 0.02159 0.00783 0.23222 0.0
H1687 H 0.03484 0.9842 0.21429 0.0
H1688 H 0.9232 0.95768 0.21025 0.0
H1689 H 0.90998 0.98059 0.2282 0.0
H1690 H 0.023 0.91373 0.20777 0.0
H1691 H 0.90357 0.96943 0.18351 0.0
H1692 H 0.86564 0.02356 0.18312 0.0
H1693 H 0.95047 0.0853 0.19713 0.0
H1694 H 0.98912 0.03172 0.19743 0.0
H1695 H 0.97301 0.805 0.16501 0.0
H1696 H 0.96746 0.84759 0.1798 0.0
H1697 H 0.03001 0.92477 0.16225 0.0
H1698 H 0.03679 0.88143 0.14741 0.0
H1699 H 0.96392 0.95147 0.17425 0.0
H1700 H 0.07517 0.8893 0.17866 0.0
H1701 H 0.11455 0.83624 0.17899 0.0
H1702 H 0.05157 0.7916 0.20448 0.0
H1703 H 0.01155 0.84429 0.20418 0.0
C1704 C 0.99991 0.99718 0.22745 0.0
C1705 C 0.96479 0.99587 0.2316 0.0
C1706 C 0.00747 0.98377 0.21724 0.0
C1707 C 0.97994 0.96946 0.21095 0.0
C1708 C 0.94472 0.96903 0.21495 0.0
C1709 C 0.93723 0.98199 0.2252 0.0
C1710 C 0.98825 0.9525 0.20051 0.0
C1711 C 0.01064 0.92232 0.20041 0.0
C1712 C 0.97196 0.96387 0.19093 0.0
C1713 C 0.94915 0.99644 0.19057 0.0
C1714 C 0.91422 0.9946 0.18645 0.0
C1715 C 0.89257 0.02519 0.18625 0.0
C1716 C 0.9056 0.05783 0.19013 0.0
C1717 C 0.94036 0.05998 0.19416 0.0
C1718 C 0.96213 0.02949 0.19436 0.0
C1719 C 0.98526 0.83118 0.16423 0.0
C1720 C 0.00568 0.83991 0.15514 0.0
C1721 C 0.98212 0.8554 0.17268 0.0
C1722 C 0.99875 0.889 0.17211 0.0
C1723 C 0.01742 0.8987 0.16281 0.0
C1724 C 0.02136 0.87403 0.15442 0.0
C1725 C 0.99838 0.91259 0.1816 0.0
C1726 C 0.97716 0.9436 0.18156 0.0
C1727 C 0.01618 0.90236 0.19104 0.0
C1728 C 0.04017 0.8706 0.19131 0.0
C1729 C 0.06953 0.86801 0.18424 0.0
C1730 C 0.092 0.83804 0.18445 0.0
C1731 C 0.08547 0.81048 0.19172 0.0
C1732 C 0.05654 0.81293 0.19883 0.0
C1733 C 0.03398 0.84288 0.19866 0.0
H1734 H 0.10291 0.78729 0.19187 0.0
H1735 H 0.88877 0.08146 0.18998 0.0
H1736 H 0.84737 0.14541 0.98679 0.0
H1737 H 0.88496 0.14859 0.97073 0.0
H1738 H 0.80541 0.21437 0.95544 0.0
H1739 H 0.76778 0.21153 0.97157 0.0
H1740 H 0.83322 0.16106 0.9419 0.0
H1741 H 0.87568 0.25531 0.96388 0.0
H1742 H 0.8977 0.28622 0.97999 0.0
H1743 H 0.98854 0.21562 0.98094 0.0
H1744 H 0.96688 0.18405 0.96488 0.0
H1745 H 0.9558 0.21752 0.90066 0.0
H1746 H 0.911 0.21413 0.91508 0.0
H1747 H 0.9849 0.15285 0.93404 0.0
H1748 H 0.02957 0.15615 0.91968 0.0
H1749 H 0.95699 0.20819 0.94521 0.0
H1750 H 0.91088 0.11443 0.92226 0.0
H1751 H 0.88861 0.08987 0.90523 0.0
H1752 H 0.803 0.16684 0.90537 0.0
H1753 H 0.82505 0.19216 0.92234 0.0
C1754 C 0.83772 0.16012 0.97995 0.0
C1755 C 0.80441 0.17763 0.98035 0.0
C1756 C 0.85925 0.16212 0.97081 0.0
C1757 C 0.84799 0.18183 0.96192 0.0
C1758 C 0.81446 0.19888 0.96221 0.0
C1759 C 0.79299 0.19714 0.9714 0.0
C1760 C 0.87181 0.18508 0.95246 0.0
C1761 C 0.86012 0.17185 0.94257 0.0
C1762 C 0.90689 0.19905 0.95336 0.0
C1763 C 0.91939 0.21699 0.96326 0.0
C1764 C 0.90005 0.24599 0.96763 0.0
C1765 C 0.91256 0.26376 0.97672 0.0
C1766 C 0.94441 0.25278 0.98152 0.0
C1767 C 0.96382 0.22402 0.97723 0.0
C1768 C 0.95146 0.2062 0.96813 0.0
C1769 C 0.96243 0.20354 0.90794 0.0
C1770 C 0.99624 0.18762 0.90914 0.0
C1771 C 0.93679 0.20135 0.91611 0.0
C1772 C 0.94471 0.18347 0.92565 0.0
C1773 C 0.97826 0.16692 0.92676 0.0
C1774 C 0.00368 0.16868 0.91854 0.0
C1775 C 0.91883 0.1834 0.9347 0.0
C1776 C 0.9301 0.19745 0.94453 0.0
C1777 C 0.88322 0.17081 0.93366 0.0
C1778 C 0.86979 0.15537 0.92352 0.0
C1779 C 0.88745 0.12627 0.91862 0.0
C1780 C 0.87484 0.11218 0.90899 0.0
C1781 C 0.84445 0.12683 0.90421 0.0
C1782 C 0.82655 0.15554 0.90907 0.0
C1783 C 0.83906 0.16973 0.91871 0.0
H1784 H 0.83475 0.11591 0.89674 0.0
H1785 H 0.95412 0.26664 0.98854 0.0
H1786 H 0.83692 0.97627 0.68054 0.0
H1787 H 0.81095 0.03575 0.67768 0.0
H1788 H 0.70638 0.99462 0.68604 0.0
H1789 H 0.73202 0.935 0.68846 0.0
H1790 H 0.70208 0.02852 0.66832 0.0
H1791 H 0.75417 0.05488 0.70222 0.0
H1792 H 0.80192 0.05887 0.7157 0.0
H1793 H 0.86103 0.13096 0.69558 0.0
H1794 H 0.81384 0.12701 0.6819 0.0
H1795 H 0.60077 0.17843 0.6708 0.0
H1796 H 0.64367 0.14077 0.6802 0.0
H1797 H 0.7256 0.16886 0.65729 0.0
H1798 H 0.68249 0.20699 0.64787 0.0
H1799 H 0.74442 0.14547 0.68252 0.0
H1800 H 0.69173 0.10915 0.64759 0.0
H1801 H 0.63912 0.1085 0.63574 0.0
H1802 H 0.57716 0.05566 0.66004 0.0
H1803 H 0.62928 0.05667 0.67209 0.0
C1804 C 0.80846 0.98012 0.68186 0.0
C1805 C 0.78639 0.95095 0.68459 0.0
C1806 C 0.79367 0.01416 0.68031 0.0
C1807 C 0.75667 0.01976 0.68165 0.0
C1808 C 0.73496 0.99096 0.68489 0.0
C1809 C 0.74963 0.95691 0.6863 0.0
C1810 C 0.73991 0.05454 0.67879 0.0
C1811 C 0.71139 0.05391 0.67153 0.0
C1812 C 0.75217 0.08797 0.6828 0.0
C1813 C 0.78064 0.09033 0.69099 0.0
C1814 C 0.77751 0.07133 0.70063 0.0
C1815 C 0.80444 0.07363 0.70831 0.0
C1816 C 0.83454 0.09507 0.70648 0.0
C1817 C 0.83772 0.11432 0.69697 0.0
C1818 C 0.81087 0.11208 0.68926 0.0
C1819 C 0.62851 0.17828 0.66817 0.0
C1820 C 0.63857 0.19555 0.65869 0.0
C1821 C 0.65299 0.15681 0.67354 0.0
C1822 C 0.68765 0.15195 0.66939 0.0
C1823 C 0.69906 0.17268 0.66067 0.0
C1824 C 0.67448 0.19443 0.6553 0.0
C1825 C 0.70712 0.11883 0.67216 0.0
C1826 C 0.73577 0.11985 0.67933 0.0
C1827 C 0.69493 0.08553 0.66819 0.0
C1828 C 0.66426 0.08318 0.66074 0.0
C1829 C 0.66684 0.09748 0.6504 0.0
C1830 C 0.63712 0.09709 0.64365 0.0
C1831 C 0.60478 0.08212 0.64714 0.0
C1832 C 0.60219 0.06731 0.65735 0.0
C1833 C 0.63182 0.06775 0.66414 0.0
H1834 H 0.58174 0.08197 0.64193 0.0
H1835 H 0.85536 0.09683 0.71244 0.0
H1836 H 0.76078 0.46147 0.96109 0.0
H1837 H 0.80771 0.43612 0.94958 0.0
H1838 H 0.8128 0.3426 0.96967 0.0
H1839 H 0.76653 0.36835 0.98137 0.0
H1840 H 0.87868 0.36181 0.96346 0.0
H1841 H 0.76648 0.33997 0.94653 0.0
H1842 H 0.70716 0.35521 0.93925 0.0
H1843 H 0.75657 0.42618 0.91663 0.0
H1844 H 0.81617 0.41176 0.92388 0.0
H1845 H 0.91884 0.2732 0.90748 0.0
H1846 H 0.8817 0.28822 0.92279 0.0
H1847 H 0.95996 0.366 0.93304 0.0
H1848 H 0.99874 0.3494 0.9179 0.0
H1849 H 0.85174 0.35009 0.92487 0.0
H1850 H 0.9436 0.38126 0.9615 0.0
H1851 H 0.99996 0.35997 0.96943 0.0
H1852 H 0.98935 0.2596 0.95292 0.0
H1853 H 0.93218 0.27961 0.9452 0.0
C1854 C 0.77204 0.43558 0.96306 0.0
C1855 C 0.75969 0.41666 0.97204 0.0
C1856 C 0.79879 0.4211 0.95649 0.0
C1857 C 0.8134 0.38723 0.95869 0.0
C1858 C 0.80187 0.36874 0.96782 0.0
C1859 C 0.77527 0.38334 0.97444 0.0
C1860 C 0.83951 0.37053 0.95119 0.0
C1861 C 0.87299 0.35925 0.955 0.0
C1862 C 0.83156 0.36634 0.94023 0.0
C1863 C 0.79576 0.37504 0.93582 0.0
C1864 C 0.76467 0.35904 0.94006 0.0
C1865 C 0.731 0.3675 0.93593 0.0
C1866 C 0.72809 0.39172 0.9275 0.0
C1867 C 0.75886 0.40747 0.92317 0.0
C1868 C 0.7926 0.39914 0.92728 0.0
C1869 C 0.92896 0.29259 0.91316 0.0
C1870 C 0.96197 0.30992 0.91145 0.0
C1871 C 0.9074 0.30143 0.92188 0.0
C1872 C 0.91783 0.32845 0.92902 0.0
C1873 C 0.95147 0.34485 0.92767 0.0
C1874 C 0.97353 0.33547 0.91898 0.0
C1875 C 0.89154 0.34187 0.93704 0.0
C1876 C 0.85779 0.35261 0.93331 0.0
C1877 C 0.89917 0.34472 0.94808 0.0
C1878 C 0.93367 0.33221 0.95264 0.0
C1879 C 0.95311 0.35454 0.9596 0.0
C1880 C 0.98515 0.34262 0.96409 0.0
C1881 C 0.99814 0.30841 0.96169 0.0
C1882 C 0.97917 0.28607 0.95477 0.0
C1883 C 0.94694 0.29771 0.95032 0.0
H1884 H 0.02295 0.29923 0.96518 0.0
H1885 H 0.702 0.39822 0.92431 0.0
H1886 H 0.90091 0.44073 0.21766 0.0
H1887 H 0.92228 0.48649 0.20523 0.0
H1888 H 0.89055 0.42009 0.17861 0.0
H1889 H 0.86858 0.37443 0.19106 0.0
H1890 H 0.97277 0.48675 0.1901 0.0
H1891 H 0.86025 0.47556 0.1587 0.0
H1892 H 0.79673 0.45746 0.15765 0.0
H1893 H 0.78193 0.48376 0.19081 0.0
H1894 H 0.84516 0.50249 0.19201 0.0
H1895 H 0.01985 0.59238 0.14513 0.0
H1896 H 0.99984 0.54246 0.15623 0.0
H1897 H 0.91207 0.60665 0.1682 0.0
H1898 H 0.93154 0.65659 0.15706 0.0
H1899 H 0.88998 0.54004 0.16367 0.0
H1900 H 0.98384 0.5928 0.185 0.0
H1901 H 0.0441 0.61642 0.18879 0.0
H1902 H 0.09111 0.51677 0.17861 0.0
H1903 H 0.03082 0.49225 0.17503 0.0
C1904 C 0.89886 0.43577 0.20916 0.0
C1905 C 0.88358 0.40386 0.20531 0.0
C1906 C 0.91108 0.46187 0.20207 0.0
C1907 C 0.9079 0.45673 0.191 0.0
C1908 C 0.893 0.4247 0.18712 0.0
C1909 C 0.8807 0.39859 0.19422 0.0
C1910 C 0.91945 0.48539 0.18359 0.0
C1911 C 0.95472 0.49817 0.18427 0.0
C1912 C 0.89572 0.50081 0.17612 0.0
C1913 C 0.85754 0.49 0.17546 0.0
C1914 C 0.84339 0.47756 0.16575 0.0
C1915 C 0.80745 0.4672 0.16514 0.0
C1916 C 0.78535 0.46932 0.17417 0.0
C1917 C 0.7991 0.48197 0.18383 0.0
C1918 C 0.835 0.49243 0.18448 0.0
C1919 C 0.99617 0.59589 0.15008 0.0
C1920 C 0.97737 0.62861 0.15022 0.0
C1921 C 0.98489 0.56735 0.15646 0.0
C1922 C 0.95469 0.57097 0.16311 0.0
C1923 C 0.93545 0.60328 0.16311 0.0
C1924 C 0.94671 0.63185 0.15676 0.0
C1925 C 0.94329 0.54125 0.17018 0.0
C1926 C 0.90812 0.52822 0.16941 0.0
C1927 C 0.96674 0.52621 0.17777 0.0
C1928 C 0.00299 0.54091 0.17964 0.0
C1929 C 0.00708 0.57606 0.1835 0.0
C1930 C 0.04123 0.58956 0.18564 0.0
C1931 C 0.07152 0.56828 0.18382 0.0
C1932 C 0.06765 0.53328 0.17997 0.0
C1933 C 0.03349 0.51948 0.17795 0.0
H1934 H 0.09796 0.57883 0.18546 0.0
H1935 H 0.75754 0.46126 0.17368 0.0
H1936 H 0.89336 0.58968 0.4739 0.0
H1937 H 0.84489 0.59762 0.46105 0.0
H1938 H 0.90763 0.67738 0.4445 0.0
H1939 H 0.95585 0.67007 0.45751 0.0
H1940 H 0.83988 0.6986 0.44651 0.0
H1941 H 0.89944 0.59166 0.43468 0.0
H1942 H 0.92487 0.53101 0.43653 0.0
H1943 H 0.82101 0.48989 0.44493 0.0
H1944 H 0.79504 0.55043 0.44328 0.0
H1945 H 0.74114 0.70167 0.39836 0.0
H1946 H 0.78823 0.69377 0.41154 0.0
H1947 H 0.72219 0.6179 0.42852 0.0
H1948 H 0.67472 0.62547 0.41531 0.0
H1949 H 0.79095 0.59478 0.42646 0.0
H1950 H 0.73151 0.70287 0.43777 0.0
H1951 H 0.70759 0.76429 0.43654 0.0
H1952 H 0.81266 0.80406 0.42896 0.0
H1953 H 0.83717 0.74276 0.43001 0.0
C1954 C 0.89677 0.60885 0.46751 0.0
C1955 C 0.92857 0.62891 0.46661 0.0
C1956 C 0.86917 0.61328 0.46015 0.0
C1957 C 0.87287 0.63766 0.4517 0.0
C1958 C 0.90426 0.65828 0.45092 0.0
C1959 C 0.93184 0.65398 0.45832 0.0
C1960 C 0.84394 0.64178 0.44371 0.0
C1961 C 0.82952 0.676 0.44201 0.0
C1962 C 0.82987 0.61213 0.43802 0.0
C1963 C 0.84537 0.57565 0.43896 0.0
C1964 C 0.88207 0.56973 0.437 0.0
C1965 C 0.89658 0.53537 0.438 0.0
C1966 C 0.87458 0.50663 0.44087 0.0
C1967 C 0.83802 0.51218 0.44272 0.0
C1968 C 0.82338 0.54651 0.44175 0.0
C1969 C 0.73658 0.68306 0.40484 0.0
C1970 C 0.704 0.66421 0.40576 0.0
C1971 C 0.7635 0.67883 0.41243 0.0
C1972 C 0.75849 0.65572 0.42111 0.0
C1973 C 0.72649 0.63606 0.42191 0.0
C1974 C 0.69942 0.64038 0.41434 0.0
C1975 C 0.78693 0.65165 0.42924 0.0
C1976 C 0.80129 0.6174 0.43096 0.0
C1977 C 0.8011 0.68138 0.43489 0.0
C1978 C 0.78611 0.7181 0.43386 0.0
C1979 C 0.74945 0.72462 0.4357 0.0
C1980 C 0.7358 0.75946 0.43507 0.0
C1981 C 0.75859 0.78807 0.43264 0.0
C1982 C 0.79504 0.78187 0.43082 0.0
C1983 C 0.80882 0.74708 0.43144 0.0
H1984 H 0.74811 0.81507 0.43223 0.0
H1985 H 0.88586 0.48004 0.44164 0.0
H1986 H 0.73211 0.55335 0.72817 0.0
H1987 H 0.71891 0.5041 0.71578 0.0
H1988 H 0.64793 0.57345 0.69829 0.0
H1989 H 0.66046 0.62228 0.7107 0.0
H1990 H 0.65767 0.47052 0.71171 0.0
H1991 H 0.64572 0.55232 0.67257 0.0
H1992 H 0.67289 0.6056 0.66418 0.0
H1993 H 0.76846 0.59061 0.68257 0.0
H1994 H 0.74209 0.53697 0.69094 0.0
H1995 H 0.58233 0.41093 0.6564 0.0
H1996 H 0.596 0.454 0.67049 0.0
H1997 H 0.67502 0.38183 0.68325 0.0
H1998 H 0.66175 0.33838 0.6691 0.0
H1999 H 0.66454 0.48393 0.67237 0.0
H2000 H 0.6752 0.40248 0.71194 0.0
H2001 H 0.64663 0.3504 0.72057 0.0
H2002 H 0.55274 0.36494 0.70139 0.0
H2003 H 0.5807 0.4171 0.69274 0.0
C2004 C 0.71351 0.55792 0.72171 0.0
C2005 C 0.69684 0.5915 0.72051 0.0
C2006 C 0.7061 0.52984 0.71463 0.0
C2007 C 0.68254 0.53506 0.70608 0.0
C2008 C 0.66656 0.56883 0.70474 0.0
C2009 C 0.67352 0.59669 0.71189 0.0
C2010 C 0.67351 0.50502 0.69876 0.0
C2011 C 0.65991 0.47309 0.70311 0.0
C2012 C 0.67549 0.5088 0.68754 0.0
C2013 C 0.69179 0.54078 0.68244 0.0
C2014 C 0.67261 0.56029 0.67478 0.0
C2015 C 0.68785 0.59058 0.67004 0.0
C2016 C 0.72234 0.60153 0.67286 0.0
C2017 C 0.74171 0.58216 0.68041 0.0
C2018 C 0.72661 0.55184 0.68517 0.0
C2019 C 0.60235 0.40388 0.66226 0.0
C2020 C 0.62143 0.37139 0.66149 0.0
C2021 C 0.6101 0.4286 0.67031 0.0
C2022 C 0.63676 0.42123 0.67782 0.0
C2023 C 0.65432 0.38796 0.67751 0.0
C2024 C 0.64673 0.36321 0.66941 0.0
C2025 C 0.64834 0.44965 0.68532 0.0
C2026 C 0.66262 0.4812 0.68098 0.0
C2027 C 0.64691 0.44544 0.69653 0.0
C2028 C 0.63022 0.41354 0.70158 0.0
C2029 C 0.64847 0.39455 0.70956 0.0
C2030 C 0.6324 0.36498 0.71446 0.0
C2031 C 0.59796 0.35425 0.7115 0.0
C2032 C 0.57951 0.37308 0.70364 0.0
C2033 C 0.59553 0.40258 0.69871 0.0
H2034 H 0.58553 0.3314 0.71532 0.0
H2035 H 0.73408 0.625 0.66919 0.0
H2036 H 0.72888 0.65403 0.04342 0.0
H2037 H 0.79086 0.66453 0.04902 0.0
H2038 H 0.76512 0.62345 0.08031 0.0
H2039 H 0.70375 0.61189 0.07463 0.0
H2040 H 0.81586 0.70756 0.06317 0.0
H2041 H 0.83416 0.58661 0.09225 0.0
H2042 H 0.81798 0.52261 0.093 0.0
H2043 H 0.80946 0.51927 0.05883 0.0
H2044 H 0.8261 0.58312 0.05785 0.0
H2045 H 0.91666 0.7461 0.10819 0.0
H2046 H 0.87546 0.72996 0.09402 0.0
H2047 H 0.94992 0.65016 0.08244 0.0
H2048 H 0.99146 0.66583 0.09682 0.0
H2049 H 0.88681 0.62169 0.08455 0.0
H2050 H 0.93007 0.72502 0.06803 0.0
H2051 H 0.94909 0.78751 0.06528 0.0
H2052 H 0.8414 0.82371 0.07092 0.0
H2053 H 0.82198 0.76176 0.07426 0.0
C2054 C 0.73678 0.64641 0.0514 0.0
C2055 C 0.71173 0.63125 0.05851 0.0
C2056 C 0.77211 0.65264 0.05462 0.0
C2057 C 0.78294 0.64416 0.06503 0.0
C2058 C 0.75783 0.62922 0.07214 0.0
C2059 C 0.72269 0.62275 0.06891 0.0
C2060 C 0.81951 0.65331 0.06884 0.0
C2061 C 0.83157 0.68877 0.06778 0.0
C2062 C 0.84078 0.62838 0.07447 0.0
C2063 C 0.83123 0.58977 0.07499 0.0
C2064 C 0.82908 0.57219 0.08489 0.0
C2065 C 0.81977 0.53593 0.08535 0.0
C2066 C 0.81264 0.5169 0.07597 0.0
C2067 C 0.8149 0.53407 0.06609 0.0
C2068 C 0.82422 0.57031 0.06558 0.0
C2069 C 0.92467 0.72549 0.10255 0.0
C2070 C 0.95733 0.7071 0.10371 0.0
C2071 C 0.90111 0.71649 0.09438 0.0
C2072 C 0.90961 0.68903 0.08711 0.0
C2073 C 0.9428 0.67149 0.08796 0.0
C2074 C 0.96656 0.68056 0.09616 0.0
C2075 C 0.882 0.67655 0.07945 0.0
C2076 C 0.87157 0.64041 0.07978 0.0
C2077 C 0.86274 0.70074 0.07294 0.0
C2078 C 0.87455 0.7385 0.07142 0.0
C2079 C 0.91051 0.74632 0.06888 0.0
C2080 C 0.9214 0.78172 0.06724 0.0
C2081 C 0.8965 0.80959 0.06796 0.0
C2082 C 0.86073 0.80216 0.07044 0.0
C2083 C 0.84978 0.76687 0.07223 0.0
H2084 H 0.9049 0.8369 0.06652 0.0
H2085 H 0.8054 0.48885 0.07635 0.0
H2086 H 0.67017 0.46779 0.28006 0.0
H2087 H 0.66388 0.50985 0.29479 0.0
H2088 H 0.66508 0.4223 0.31719 0.0
H2089 H 0.66975 0.37962 0.30238 0.0
H2090 H 0.6154 0.46585 0.32264 0.0
H2091 H 0.7377 0.47949 0.31306 0.0
H2092 H 0.78979 0.48998 0.30129 0.0
H2093 H 0.7518 0.59613 0.29462 0.0
H2094 H 0.69924 0.58619 0.30625 0.0
H2095 H 0.63085 0.57569 0.3687 0.0
H2096 H 0.641 0.5322 0.35445 0.0
H2097 H 0.64136 0.61758 0.33129 0.0
H2098 H 0.63348 0.66167 0.34576 0.0
H2099 H 0.69207 0.57355 0.32658 0.0
H2100 H 0.5665 0.55332 0.33594 0.0
H2101 H 0.51566 0.53862 0.34779 0.0
H2102 H 0.56589 0.43919 0.35606 0.0
H2103 H 0.61703 0.45349 0.34422 0.0
C2104 C 0.66864 0.45713 0.28806 0.0
C2105 C 0.66947 0.4199 0.28999 0.0
C2106 C 0.6655 0.48149 0.29654 0.0
C2107 C 0.66432 0.46936 0.30713 0.0
C2108 C 0.66576 0.43237 0.30908 0.0
C2109 C 0.66836 0.40799 0.30062 0.0
C2110 C 0.66027 0.49502 0.31618 0.0
C2111 C 0.63261 0.48907 0.32359 0.0
C2112 C 0.68242 0.5256 0.31739 0.0
C2113 C 0.71415 0.53185 0.31041 0.0
C2114 C 0.74023 0.50495 0.30901 0.0
C2115 C 0.76991 0.51084 0.30237 0.0
C2116 C 0.77402 0.54364 0.29717 0.0
C2117 C 0.74852 0.57069 0.29863 0.0
C2118 C 0.71877 0.56493 0.30524 0.0
C2119 C 0.633 0.58522 0.36056 0.0
C2120 C 0.63131 0.62207 0.35832 0.0
C2121 C 0.63851 0.56023 0.35238 0.0
C2122 C 0.64115 0.57132 0.34171 0.0
C2123 C 0.63938 0.60824 0.33945 0.0
C2124 C 0.63486 0.63344 0.3477 0.0
C2125 C 0.64687 0.54459 0.33297 0.0
C2126 C 0.67498 0.55025 0.32564 0.0
C2127 C 0.62584 0.51307 0.332 0.0
C2128 C 0.59559 0.50478 0.33929 0.0
C2129 C 0.56667 0.52853 0.34034 0.0
C2130 C 0.5378 0.5202 0.34703 0.0
C2131 C 0.53751 0.48808 0.35272 0.0
C2132 C 0.56613 0.46413 0.35168 0.0
C2133 C 0.59503 0.47232 0.34496 0.0
H2134 H 0.5151 0.48173 0.3579 0.0
H2135 H 0.79703 0.54815 0.29204 0.0
H2136 H 0.96734 0.43441 0.57492 0.0
H2137 H 0.91927 0.40756 0.58558 0.0
H2138 H 0.84121 0.44493 0.56297 0.0
H2139 H 0.88928 0.47092 0.55203 0.0
H2140 H 0.8288 0.46325 0.58557 0.0
H2141 H 0.85451 0.363 0.56233 0.0
H2142 H 0.89347 0.31786 0.5537 0.0
H2143 H 0.92186 0.27614 0.58442 0.0
H2144 H 0.88347 0.32143 0.59325 0.0
H2145 H 0.67202 0.38107 0.60469 0.0
H2146 H 0.72158 0.40159 0.59356 0.0
H2147 H 0.7955 0.33921 0.61224 0.0
H2148 H 0.7457 0.31754 0.62326 0.0
H2149 H 0.81184 0.33311 0.59188 0.0
H2150 H 0.7879 0.43141 0.6154 0.0
H2151 H 0.75127 0.47705 0.62469 0.0
H2152 H 0.72293 0.52351 0.59459 0.0
H2153 H 0.75901 0.47783 0.5851 0.0
C2154 C 0.94006 0.43633 0.57208 0.0
C2155 C 0.93211 0.45429 0.56251 0.0
C2156 C 0.91265 0.42105 0.57821 0.0
C2157 C 0.87685 0.42415 0.575 0.0
C2158 C 0.86876 0.44216 0.56552 0.0
C2159 C 0.89617 0.45685 0.55929 0.0
C2160 C 0.84763 0.41014 0.58182 0.0
C2161 C 0.82472 0.43479 0.58686 0.0
C2162 C 0.84332 0.3731 0.58375 0.0
C2163 C 0.86646 0.3459 0.57845 0.0
C2164 C 0.86937 0.34446 0.56726 0.0
C2165 C 0.89128 0.31879 0.56233 0.0
C2166 C 0.91023 0.29422 0.56851 0.0
C2167 C 0.90722 0.29523 0.57964 0.0
C2168 C 0.88538 0.32089 0.58461 0.0
C2169 C 0.69881 0.3718 0.6065 0.0
C2170 C 0.70491 0.34796 0.61497 0.0
C2171 C 0.72717 0.38365 0.60012 0.0
C2172 C 0.76238 0.37251 0.60219 0.0
C2173 C 0.76856 0.3483 0.61053 0.0
C2174 C 0.74009 0.33608 0.61686 0.0
C2175 C 0.79261 0.38624 0.59562 0.0
C2176 C 0.81584 0.36159 0.59064 0.0
C2177 C 0.7976 0.42341 0.59386 0.0
C2178 C 0.7759 0.45098 0.59954 0.0
C2179 C 0.77364 0.45119 0.61076 0.0
C2180 C 0.75301 0.4771 0.61606 0.0
C2181 C 0.73472 0.50311 0.61023 0.0
C2182 C 0.73708 0.50332 0.59909 0.0
C2183 C 0.75764 0.47745 0.59375 0.0
H2184 H 0.71877 0.52315 0.61435 0.0
H2185 H 0.92715 0.27435 0.56468 0.0
H2186 H 0.9461 0.58322 0.79715 0.0
H2187 H 0.95742 0.53845 0.81089 0.0
H2188 H 0.86906 0.58 0.8296 0.0
H2189 H 0.8582 0.62565 0.81593 0.0
H2190 H 0.92418 0.56338 0.84222 0.0
H2191 H 0.85848 0.50485 0.81468 0.0
H2192 H 0.84448 0.48643 0.79624 0.0
H2193 H 0.94481 0.43038 0.79399 0.0
H2194 H 0.95966 0.44891 0.81237 0.0
H2195 H 0.92167 0.36024 0.85932 0.0
H2196 H 0.90075 0.40977 0.84831 0.0
H2197 H 0.99574 0.47013 0.85613 0.0
H2198 H 0.01637 0.4212 0.86738 0.0
H2199 H 0.92878 0.43576 0.83096 0.0
H2200 H 0.97901 0.55907 0.85525 0.0
H2201 H 0.98706 0.57693 0.87407 0.0
H2202 H 0.90604 0.50185 0.88373 0.0
H2203 H 0.89714 0.48389 0.86496 0.0
C2204 C 0.92936 0.58309 0.80425 0.0
C2205 C 0.90131 0.60795 0.80549 0.0
C2206 C 0.9357 0.55737 0.81206 0.0
C2207 C 0.91373 0.55554 0.82119 0.0
C2208 C 0.88629 0.58092 0.8226 0.0
C2209 C 0.88007 0.60688 0.8148 0.0
C2210 C 0.91896 0.52644 0.82906 0.0
C2211 C 0.92512 0.53546 0.83979 0.0
C2212 C 0.91923 0.48995 0.82592 0.0
C2213 C 0.9103 0.4785 0.81488 0.0
C2214 C 0.87767 0.48879 0.81023 0.0
C2215 C 0.86957 0.47831 0.79979 0.0
C2216 C 0.89377 0.4573 0.79394 0.0
C2217 C 0.9261 0.44667 0.79853 0.0
C2218 C 0.93436 0.45713 0.80896 0.0
C2219 C 0.93796 0.3842 0.8588 0.0
C2220 C 0.97079 0.38666 0.86422 0.0
C2221 C 0.92597 0.41247 0.85248 0.0
C2222 C 0.94652 0.44378 0.85144 0.0
C2223 C 0.97908 0.44653 0.85695 0.0
C2224 C 0.99096 0.41838 0.86334 0.0
C2225 C 0.93497 0.47268 0.84411 0.0
C2226 C 0.92764 0.46363 0.83345 0.0
C2227 C 0.93277 0.509 0.84739 0.0
C2228 C 0.93765 0.51993 0.8587 0.0
C2229 C 0.9628 0.54649 0.86138 0.0
C2230 C 0.96753 0.5566 0.87205 0.0
C2231 C 0.94715 0.54046 0.8801 0.0
C2232 C 0.9219 0.51424 0.87749 0.0
C2233 C 0.91704 0.50405 0.86684 0.0
H2234 H 0.95087 0.54832 0.88835 0.0
H2235 H 0.88745 0.44921 0.78585 0.0
H2236 H 0.32315 0.5021 0.06902 0.0
H2237 H 0.28143 0.53795 0.07974 0.0
H2238 H 0.23306 0.57832 0.05098 0.0
H2239 H 0.27559 0.54315 0.0402 0.0
H2240 H 0.24274 0.63109 0.06518 0.0
H2241 H 0.19152 0.51354 0.06597 0.0
H2242 H 0.19139 0.44805 0.06854 0.0
H2243 H 0.21916 0.46245 0.10151 0.0
H2244 H 0.21998 0.52801 0.09911 0.0
H2245 H 0.09963 0.70859 0.0963 0.0
H2246 H 0.12677 0.66653 0.08335 0.0
H2247 H 0.20092 0.63105 0.1074 0.0
H2248 H 0.17475 0.67356 0.12017 0.0
H2249 H 0.17045 0.5747 0.09397 0.0
H2250 H 0.23184 0.68915 0.09252 0.0
H2251 H 0.23643 0.75464 0.09025 0.0
H2252 H 0.1915 0.74561 0.05886 0.0
H2253 H 0.18628 0.68005 0.06101 0.0
C2254 C 0.30394 0.51899 0.06499 0.0
C2255 C 0.30303 0.52042 0.05378 0.0
C2256 C 0.27984 0.53914 0.07111 0.0
C2257 C 0.25379 0.56044 0.06615 0.0
C2258 C 0.25292 0.56205 0.05496 0.0
C2259 C 0.27721 0.54206 0.04882 0.0
C2260 C 0.22788 0.58135 0.0727 0.0
C2261 C 0.22631 0.61862 0.07131 0.0
C2262 C 0.20691 0.56516 0.08083 0.0
C2263 C 0.20602 0.52571 0.08234 0.0
C2264 C 0.1978 0.50274 0.07376 0.0
C2265 C 0.19759 0.4656 0.07519 0.0
C2266 C 0.20531 0.4511 0.08518 0.0
C2267 C 0.21318 0.47371 0.09377 0.0
C2268 C 0.21348 0.51087 0.09239 0.0
C2269 C 0.12113 0.69113 0.09884 0.0
C2270 C 0.13529 0.69416 0.10916 0.0
C2271 C 0.13669 0.66738 0.09146 0.0
C2272 C 0.16594 0.64599 0.09444 0.0
C2273 C 0.17836 0.64735 0.10497 0.0
C2274 C 0.16346 0.67158 0.11224 0.0
C2275 C 0.18572 0.62422 0.08649 0.0
C2276 C 0.18624 0.5869 0.08766 0.0
C2277 C 0.20586 0.64033 0.07819 0.0
C2278 C 0.20814 0.67979 0.07699 0.0
C2279 C 0.2225 0.70119 0.08519 0.0
C2280 C 0.22536 0.7383 0.08391 0.0
C2281 C 0.21417 0.75429 0.07443 0.0
C2282 C 0.20009 0.7332 0.06621 0.0
C2283 C 0.19718 0.69607 0.06746 0.0
H2284 H 0.21651 0.78301 0.07345 0.0
H2285 H 0.20515 0.42234 0.08627 0.0
H2286 H 0.32782 0.52361 0.8316 0.0
H2287 H 0.30283 0.46416 0.83523 0.0
H2288 H 0.19667 0.50431 0.82875 0.0
H2289 H 0.22137 0.56394 0.82562 0.0
H2290 H 0.19566 0.47176 0.84668 0.0
H2291 H 0.24232 0.44296 0.81203 0.0
H2292 H 0.28795 0.43809 0.79777 0.0
H2293 H 0.3504 0.36765 0.81729 0.0
H2294 H 0.30537 0.3725 0.83175 0.0
H2295 H 0.09503 0.32093 0.84759 0.0
H2296 H 0.13518 0.35878 0.83708 0.0
H2297 H 0.22263 0.3319 0.85791 0.0
H2298 H 0.18226 0.29367 0.86846 0.0
H2299 H 0.23609 0.35387 0.83251 0.0
H2300 H 0.1893 0.39186 0.86802 0.0
H2301 H 0.13923 0.39385 0.88099 0.0
H2302 H 0.07329 0.44683 0.8579 0.0
H2303 H 0.1228 0.4444 0.84474 0.0
C2304 C 0.29919 0.51959 0.83089 0.0
C2305 C 0.27644 0.54855 0.82855 0.0
C2306 C 0.28496 0.48553 0.83286 0.0
C2307 C 0.24781 0.47968 0.83228 0.0
C2308 C 0.22537 0.50818 0.82934 0.0
C2309 C 0.23951 0.54225 0.82753 0.0
C2310 C 0.23176 0.44505 0.83569 0.0
C2311 C 0.20449 0.44616 0.84346 0.0
C2312 C 0.24349 0.41134 0.83169 0.0
C2313 C 0.27064 0.40841 0.82302 0.0
C2314 C 0.26594 0.42669 0.81333 0.0
C2315 C 0.29166 0.42388 0.8052 0.0
C2316 C 0.3221 0.40266 0.80664 0.0
C2317 C 0.32683 0.38412 0.8162 0.0
C2318 C 0.3012 0.38687 0.82436 0.0
C2319 C 0.12331 0.3214 0.84952 0.0
C2320 C 0.1358 0.30438 0.85874 0.0
C2321 C 0.14621 0.34301 0.84352 0.0
C2322 C 0.18173 0.34822 0.84677 0.0
C2323 C 0.19538 0.32782 0.85522 0.0
C2324 C 0.17237 0.306 0.86123 0.0
C2325 C 0.20039 0.38121 0.84336 0.0
C2326 C 0.22783 0.37971 0.83568 0.0
C2327 C 0.18876 0.41479 0.84733 0.0
C2328 C 0.15959 0.4177 0.85539 0.0
C2329 C 0.16405 0.40377 0.86571 0.0
C2330 C 0.13578 0.40496 0.87309 0.0
C2331 C 0.10306 0.42038 0.87027 0.0
C2332 C 0.09861 0.43481 0.86008 0.0
C2333 C 0.12677 0.43356 0.85266 0.0
H2334 H 0.08118 0.4212 0.87598 0.0
H2335 H 0.34199 0.4005 0.80033 0.0
H2336 H 0.32532 0.28431 0.5348 0.0
H2337 H 0.357 0.27962 0.55177 0.0
H2338 H 0.38248 0.39236 0.55045 0.0
H2339 H 0.35209 0.39672 0.53322 0.0
H2340 H 0.43946 0.35517 0.5562 0.0
H2341 H 0.31663 0.36175 0.56988 0.0
H2342 H 0.25282 0.3441 0.56992 0.0
H2343 H 0.28275 0.23402 0.57421 0.0
H2344 H 0.34676 0.25103 0.57396 0.0
H2345 H 0.50118 0.37151 0.60889 0.0
H2346 H 0.46208 0.37834 0.59348 0.0
H2347 H 0.44272 0.2644 0.59311 0.0
H2348 H 0.48191 0.25743 0.60855 0.0
H2349 H 0.38177 0.30335 0.58841 0.0
H2350 H 0.50528 0.29887 0.57695 0.0
H2351 H 0.56866 0.31765 0.57699 0.0
H2352 H 0.53796 0.42399 0.56778 0.0
H2353 H 0.47432 0.40596 0.56783 0.0
C2354 C 0.33763 0.30806 0.53817 0.0
C2355 C 0.33623 0.34088 0.53272 0.0
C2356 C 0.35545 0.30547 0.5479 0.0
C2357 C 0.37159 0.3358 0.55249 0.0
C2358 C 0.37013 0.36864 0.54708 0.0
C2359 C 0.35267 0.37114 0.53727 0.0
C2360 C 0.39086 0.33297 0.56279 0.0
C2361 C 0.42669 0.34427 0.56328 0.0
C2362 C 0.37455 0.31801 0.57196 0.0
C2363 C 0.33628 0.30768 0.57209 0.0
C2364 C 0.30951 0.3338 0.57085 0.0
C2365 C 0.27337 0.3239 0.57088 0.0
C2366 C 0.26375 0.28796 0.57213 0.0
C2367 C 0.29026 0.26184 0.57332 0.0
C2368 C 0.32643 0.2716 0.57328 0.0
C2369 C 0.48827 0.3479 0.60564 0.0
C2370 C 0.4949 0.31375 0.60993 0.0
C2371 C 0.46596 0.35188 0.59681 0.0
C2372 C 0.45002 0.3218 0.59203 0.0
C2373 C 0.45484 0.28797 0.59666 0.0
C2374 C 0.47717 0.284 0.6055 0.0
C2375 C 0.43036 0.32536 0.58183 0.0
C2376 C 0.39453 0.31415 0.58134 0.0
C2377 C 0.44674 0.34038 0.57265 0.0
C2378 C 0.48502 0.35115 0.57249 0.0
C2379 C 0.51203 0.32632 0.575 0.0
C2380 C 0.548 0.33682 0.575 0.0
C2381 C 0.55732 0.37201 0.57242 0.0
C2382 C 0.53069 0.39675 0.5698 0.0
C2383 C 0.49467 0.3864 0.5698 0.0
H2384 H 0.58519 0.3801 0.57243 0.0
H2385 H 0.23576 0.28033 0.57215 0.0
H2386 H 0.43614 0.50936 0.28314 0.0
H2387 H 0.43589 0.54514 0.29958 0.0
H2388 H 0.53414 0.49424 0.30936 0.0
H2389 H 0.53431 0.45812 0.29294 0.0
H2390 H 0.4375 0.53086 0.32152 0.0
H2391 H 0.58933 0.56495 0.31822 0.0
H2392 H 0.63616 0.56746 0.30429 0.0
H2393 H 0.5563 0.5861 0.28046 0.0
H2394 H 0.509 0.58456 0.29427 0.0
H2395 H 0.55489 0.64815 0.35979 0.0
H2396 H 0.547 0.60272 0.34608 0.0
H2397 H 0.44433 0.64818 0.33803 0.0
H2398 H 0.45203 0.6938 0.35185 0.0
H2399 H 0.54131 0.61301 0.32513 0.0
H2400 H 0.39042 0.57935 0.32673 0.0
H2401 H 0.33981 0.57969 0.33947 0.0
H2402 H 0.41271 0.56676 0.36556 0.0
H2403 H 0.46363 0.56598 0.35303 0.0
C2404 C 0.45731 0.50537 0.28889 0.0
C2405 C 0.48534 0.48115 0.28676 0.0
C2406 C 0.45704 0.52566 0.29829 0.0
C2407 C 0.48509 0.52246 0.30562 0.0
C2408 C 0.51233 0.49717 0.30375 0.0
C2409 C 0.51244 0.47664 0.2944 0.0
C2410 C 0.48766 0.54795 0.31468 0.0
C2411 C 0.46008 0.54896 0.32234 0.0
C2412 C 0.51709 0.57159 0.31563 0.0
C2413 C 0.54552 0.57379 0.30729 0.0
C2414 C 0.58174 0.56955 0.31002 0.0
C2415 C 0.6084 0.57087 0.30214 0.0
C2416 C 0.59924 0.57656 0.29149 0.0
C2417 C 0.56337 0.5814 0.2887 0.0
C2418 C 0.53661 0.58031 0.29656 0.0
C2419 C 0.53045 0.64826 0.35522 0.0
C2420 C 0.50425 0.6747 0.35693 0.0
C2421 C 0.52591 0.62217 0.34735 0.0
C2422 C 0.49488 0.6217 0.34108 0.0
C2423 C 0.46822 0.64759 0.3429 0.0
C2424 C 0.47275 0.67373 0.3508 0.0
C2425 C 0.49156 0.59545 0.33223 0.0
C2426 C 0.51886 0.59467 0.32445 0.0
C2427 C 0.46147 0.57255 0.33112 0.0
C2428 C 0.43106 0.57268 0.33887 0.0
C2429 C 0.39571 0.57635 0.33518 0.0
C2430 C 0.36691 0.57669 0.34238 0.0
C2431 C 0.37304 0.57328 0.35332 0.0
C2432 C 0.40799 0.56944 0.35708 0.0
C2433 C 0.43688 0.56904 0.34991 0.0
H2434 H 0.35071 0.57359 0.35888 0.0
H2435 H 0.61996 0.57743 0.2854 0.0
H2436 H 0.33006 0.36968 0.96096 0.0
H2437 H 0.28538 0.36636 0.94684 0.0
H2438 H 0.22447 0.45075 0.96202 0.0
H2439 H 0.27 0.45522 0.9761 0.0
H2440 H 0.18653 0.37925 0.95476 0.0
H2441 H 0.25581 0.47986 0.94261 0.0
H2442 H 0.31216 0.51219 0.93893 0.0
H2443 H 0.34414 0.43 0.91672 0.0
H2444 H 0.28824 0.39688 0.9204 0.0
H2445 H 0.08673 0.33672 0.90779 0.0
H2446 H 0.11105 0.37723 0.92147 0.0
H2447 H 0.21842 0.34521 0.91254 0.0
H2448 H 0.19483 0.30676 0.89875 0.0
H2449 H 0.22037 0.41121 0.91761 0.0
H2450 H 0.16526 0.30354 0.934 0.0
H2451 H 0.11248 0.26539 0.93756 0.0
H2452 H 0.05707 0.35531 0.95145 0.0
H2453 H 0.10953 0.39395 0.94792 0.0
C2454 C 0.30755 0.38799 0.96125 0.0
C2455 C 0.30403 0.41341 0.96952 0.0
C2456 C 0.28192 0.38588 0.9532 0.0
C2457 C 0.25188 0.40848 0.95339 0.0
C2458 C 0.24762 0.43324 0.96175 0.0
C2459 C 0.27365 0.43584 0.96972 0.0
C2460 C 0.22533 0.40568 0.94472 0.0
C2461 C 0.1933 0.38709 0.94666 0.0
C2462 C 0.23446 0.41571 0.93419 0.0
C2463 C 0.26786 0.43583 0.93182 0.0
C2464 C 0.27496 0.46857 0.93699 0.0
C2465 C 0.30681 0.48705 0.9349 0.0
C2466 C 0.33173 0.47315 0.92761 0.0
C2467 C 0.3248 0.44076 0.92237 0.0
C2468 C 0.293 0.42215 0.92444 0.0
C2469 C 0.11552 0.33894 0.90864 0.0
C2470 C 0.13877 0.31798 0.90229 0.0
C2471 C 0.12939 0.36196 0.91649 0.0
C2472 C 0.16662 0.36381 0.9182 0.0
C2473 C 0.18964 0.34443 0.91142 0.0
C2474 C 0.17597 0.32205 0.90355 0.0
C2475 C 0.18246 0.3828 0.92751 0.0
C2476 C 0.21265 0.40455 0.92573 0.0
C2477 C 0.17199 0.37505 0.93816 0.0
C2478 C 0.14108 0.35161 0.94063 0.0
C2479 C 0.1418 0.31509 0.93783 0.0
C2480 C 0.11196 0.29342 0.93983 0.0
C2481 C 0.08141 0.30793 0.94471 0.0
C2482 C 0.08073 0.3441 0.94767 0.0
C2483 C 0.11051 0.36588 0.94568 0.0
H2484 H 0.0583 0.29112 0.94619 0.0
H2485 H 0.35638 0.48748 0.926 0.0
H2486 H 0.44331 0.46741 0.73722 0.0
H2487 H 0.44429 0.43281 0.72059 0.0
H2488 H 0.47765 0.52716 0.70337 0.0
H2489 H 0.47921 0.56108 0.72003 0.0
H2490 H 0.4162 0.42979 0.702 0.0
H2491 H 0.54017 0.50774 0.68561 0.0
H2492 H 0.58781 0.54518 0.69352 0.0
H2493 H 0.57997 0.4862 0.72281 0.0
H2494 H 0.53286 0.44809 0.71503 0.0
H2495 H 0.44936 0.34612 0.65238 0.0
H2496 H 0.43821 0.39311 0.66574 0.0
H2497 H 0.54114 0.37109 0.67995 0.0
H2498 H 0.55314 0.32622 0.66619 0.0
H2499 H 0.53152 0.4357 0.6821 0.0
H2500 H 0.45544 0.33503 0.68929 0.0
H2501 H 0.40953 0.28929 0.68541 0.0
H2502 H 0.33159 0.37199 0.68016 0.0
H2503 H 0.37719 0.41823 0.68389 0.0
C2504 C 0.45054 0.48078 0.72986 0.0
C2505 C 0.46164 0.51678 0.73 0.0
C2506 C 0.45081 0.46109 0.72034 0.0
C2507 C 0.46171 0.47718 0.71075 0.0
C2508 C 0.46994 0.51394 0.71072 0.0
C2509 C 0.47064 0.53339 0.72027 0.0
C2510 C 0.46812 0.45477 0.70107 0.0
C2511 C 0.44137 0.43109 0.69763 0.0
C2512 C 0.50146 0.4554 0.6956 0.0
C2513 C 0.53243 0.47573 0.69983 0.0
C2514 C 0.54888 0.5026 0.6937 0.0
C2515 C 0.57568 0.524 0.69818 0.0
C2516 C 0.58628 0.51852 0.70874 0.0
C2517 C 0.57126 0.49077 0.7147 0.0
C2518 C 0.54459 0.46926 0.71026 0.0
C2519 C 0.46971 0.35187 0.65828 0.0
C2520 C 0.50203 0.33264 0.65831 0.0
C2521 C 0.46326 0.37847 0.66596 0.0
C2522 C 0.48835 0.38508 0.67408 0.0
C2523 C 0.52122 0.36664 0.67383 0.0
C2524 C 0.52811 0.34093 0.66596 0.0
C2525 C 0.47998 0.40974 0.68314 0.0
C2526 C 0.50633 0.43422 0.68644 0.0
C2527 C 0.44728 0.40774 0.68897 0.0
C2528 C 0.4198 0.38005 0.68675 0.0
C2529 C 0.42856 0.34344 0.68724 0.0
C2530 C 0.4026 0.31744 0.68508 0.0
C2531 C 0.36769 0.32773 0.6825 0.0
C2532 C 0.35865 0.36406 0.68213 0.0
C2533 C 0.38453 0.39017 0.68427 0.0
H2534 H 0.34763 0.30756 0.68083 0.0
H2535 H 0.60623 0.53561 0.71233 0.0
H2536 H 0.31469 0.48481 0.44111 0.0
H2537 H 0.34444 0.53212 0.4309 0.0
H2538 H 0.37196 0.58648 0.46019 0.0
H2539 H 0.34236 0.53887 0.47049 0.0
H2540 H 0.34789 0.63305 0.44306 0.0
H2541 H 0.43412 0.54186 0.45003 0.0
H2542 H 0.45705 0.47999 0.45099 0.0
H2543 H 0.44479 0.46809 0.41708 0.0
H2544 H 0.42117 0.52973 0.41594 0.0
H2545 H 0.49802 0.72521 0.41614 0.0
H2546 H 0.45192 0.69982 0.42806 0.0
H2547 H 0.42188 0.62519 0.40326 0.0
H2548 H 0.46839 0.64964 0.39159 0.0
H2549 H 0.44997 0.59281 0.42047 0.0
H2550 H 0.35303 0.67952 0.41434 0.0
H2551 H 0.31963 0.73668 0.41437 0.0
H2552 H 0.35189 0.75696 0.4467 0.0
H2553 H 0.3848 0.69949 0.44692 0.0
C2554 C 0.32674 0.50705 0.44536 0.0
C2555 C 0.32637 0.50819 0.45657 0.0
C2556 C 0.34368 0.534 0.43954 0.0
C2557 C 0.36053 0.56257 0.44482 0.0
C2558 C 0.35901 0.56463 0.456 0.0
C2559 C 0.34226 0.53745 0.46185 0.0
C2560 C 0.38172 0.58869 0.43859 0.0
C2561 C 0.37062 0.62456 0.43823 0.0
C2562 C 0.41114 0.57735 0.43229 0.0
C2563 C 0.42558 0.54032 0.43292 0.0
C2564 C 0.43602 0.52595 0.44279 0.0
C2565 C 0.44918 0.49094 0.44336 0.0
C2566 C 0.4523 0.4701 0.43411 0.0
C2567 C 0.44232 0.48426 0.42425 0.0
C2568 C 0.42907 0.51925 0.42363 0.0
C2569 C 0.48056 0.70428 0.41316 0.0
C2570 C 0.48677 0.6889 0.40306 0.0
C2571 C 0.45415 0.68994 0.41994 0.0
C2572 C 0.43369 0.66037 0.41658 0.0
C2573 C 0.43744 0.64789 0.40603 0.0
C2574 C 0.46402 0.66177 0.39937 0.0
C2575 C 0.41514 0.63717 0.42446 0.0
C2576 C 0.42733 0.60165 0.42529 0.0
C2577 C 0.38695 0.64903 0.4312 0.0
C2578 C 0.37166 0.68551 0.43059 0.0
C2579 C 0.35345 0.69646 0.42138 0.0
C2580 C 0.33416 0.72862 0.42142 0.0
C2581 C 0.33336 0.75022 0.43058 0.0
C2582 C 0.35234 0.74005 0.43965 0.0
C2583 C 0.37119 0.70766 0.43971 0.0
H2584 H 0.3182 0.77491 0.43063 0.0
H2585 H 0.46252 0.443 0.43457 0.0
H2586 H 0.29995 0.50942 0.19654 0.0
H2587 H 0.27674 0.55619 0.18493 0.0
H2588 H 0.25001 0.62088 0.21252 0.0
H2589 H 0.27191 0.57323 0.22422 0.0
H2590 H 0.19743 0.62385 0.19932 0.0
H2591 H 0.32196 0.6419 0.19575 0.0
H2592 H 0.38564 0.62655 0.19302 0.0
H2593 H 0.36292 0.58971 0.16124 0.0
H2594 H 0.29897 0.60432 0.16382 0.0
H2595 H 0.1411 0.75383 0.16149 0.0
H2596 H 0.18323 0.73172 0.17499 0.0
H2597 H 0.20138 0.63641 0.15608 0.0
H2598 H 0.15931 0.65799 0.14274 0.0
H2599 H 0.26409 0.66272 0.16694 0.0
H2600 H 0.13621 0.63669 0.17321 0.0
H2601 H 0.07465 0.65934 0.17568 0.0
H2602 H 0.10744 0.71817 0.20351 0.0
H2603 H 0.16964 0.69696 0.20094 0.0
C2604 C 0.2888 0.53343 0.20014 0.0
C2605 C 0.2869 0.53728 0.2113 0.0
C2606 C 0.27598 0.56043 0.19349 0.0
C2607 C 0.26201 0.59237 0.19783 0.0
C2608 C 0.26059 0.59651 0.20897 0.0
C2609 C 0.27305 0.56929 0.21564 0.0
C2610 C 0.24761 0.6206 0.19068 0.0
C2611 C 0.21244 0.63294 0.19239 0.0
C2612 C 0.26708 0.63286 0.18164 0.0
C2613 C 0.30557 0.62404 0.18001 0.0
C2614 C 0.33047 0.6303 0.1882 0.0
C2615 C 0.36664 0.62175 0.18668 0.0
C2616 C 0.37831 0.60712 0.17697 0.0
C2617 C 0.35384 0.60105 0.16876 0.0
C2618 C 0.31763 0.60951 0.17024 0.0
C2619 C 0.15483 0.72862 0.16012 0.0
C2620 C 0.14656 0.70726 0.1512 0.0
C2621 C 0.17886 0.71607 0.16781 0.0
C2622 C 0.19514 0.68231 0.16654 0.0
C2623 C 0.18914 0.66252 0.15719 0.0
C2624 C 0.16484 0.67473 0.14963 0.0
C2625 C 0.21393 0.66471 0.17547 0.0
C2626 C 0.24973 0.65427 0.17406 0.0
C2627 C 0.19535 0.65477 0.18489 0.0
C2628 C 0.1576 0.66555 0.18682 0.0
C2629 C 0.13033 0.65458 0.17983 0.0
C2630 C 0.09536 0.66727 0.18122 0.0
C2631 C 0.08711 0.69014 0.18976 0.0
C2632 C 0.11387 0.70043 0.19691 0.0
C2633 C 0.14902 0.6882 0.19546 0.0
H2634 H 0.05999 0.69987 0.19084 0.0
H2635 H 0.40633 0.60053 0.17581 0.0
loop_
_geom_bond_atom_site_label_1
_geom_bond_atom_site_label_2
_geom_bond_distance
_geom_bond_site_symmetry_2
_ccdc_geom_bond_type
C0 C1 1.560 . S
C0 H61 0.959 . S
C0 H62 0.959 . S
C0 H63 0.960 . S
C1 C0 1.560 . S
C1 O56 1.426 . S
C1 H60 0.980 . S
C2 C3 1.407 . S
C2 C7 1.418 . S
C2 O56 1.334 . S
C3 C2 1.407 . S
C3 C4 1.360 . S
C3 H64 0.929 . S
C4 C3 1.360 . S
C4 C5 1.401 . S
C4 C8 1.527 . S
C5 C4 1.401 . S
C5 C6 1.405 . S
C5 C38 1.587 . S
C6 C5 1.405 . S
C6 C7 1.332 . S
C6 C9 1.496 1_565 S
C7 C2 1.418 . S
C7 C6 1.332 . S
C7 H65 0.919 1_565 S
C8 C4 1.527 . S
C8 H66 0.959 . S
C8 H67 0.961 . S
C8 H68 0.961 . S
C9 C6 1.496 1_545 S
C9 H69 0.960 . S
C9 H70 0.960 . S
C9 H71 0.961 . S
C10 C11 1.517 . S
C10 H73 0.961 . S
C10 H74 0.960 . S
C10 H75 0.959 . S
C11 C10 1.517 . S
C11 O59 1.468 . S
C11 H72 0.980 . S
C12 C13 1.349 . S
C12 C17 1.367 . S
C12 O59 1.408 . S
C13 C12 1.349 . S
C13 C14 1.407 . S
C13 H76 0.930 . S
C14 C13 1.407 . S
C14 C15 1.449 . S
C14 C18 1.535 . S
C15 C14 1.449 . S
C15 C16 1.384 . S
C15 C40 1.553 . S
C16 C15 1.384 . S
C16 C17 1.364 . S
C16 C19 1.450 . S
C17 C12 1.367 . S
C17 C16 1.364 . S
C17 H77 0.931 . S
C18 C14 1.535 . S
C18 H78 0.959 . S
C18 H79 0.961 . S
C18 H80 0.959 . S
C19 C16 1.450 . S
C19 H81 0.960 . S
C19 H82 0.960 . S
C19 H83 0.960 . S
C20 C21 1.309 . S
C20 C25 1.304 . S
C20 O58 1.435 . S
C21 C20 1.309 . S
C21 C22 1.476 . S
C21 H85 0.930 . S
C22 C21 1.476 . S
C22 C23 1.400 . S
C22 C26 1.567 . S
C23 C22 1.400 . S
C23 C24 1.373 . S
C23 C45 1.432 . S
C24 C23 1.373 . S
C24 C25 1.339 . S
C24 C27 1.530 1_545 S
C25 C20 1.304 . S
C25 C24 1.339 . S
C25 H86 0.930 1_545 S
C26 C22 1.567 . S
C26 H87 0.961 . S
C26 H88 0.960 . S
C26 H89 0.958 . S
C27 C24 1.530 1_565 S
C27 H90 0.961 . S
C27 H91 0.960 . S
C27 H92 0.960 . S
C28 C29 1.530 . S
C28 H94 0.961 . S
C28 H95 0.961 . S
C28 H96 0.959 . S
C29 C28 1.530 . S
C29 O57 1.412 . S
C29 H93 0.980 . S
C30 C31 1.288 . S
C30 C35 1.377 . S
C30 O57 1.393 . S
C31 C30 1.288 . S
C31 C32 1.369 . S
C31 H97 0.932 . S
C32 C31 1.369 . S
C32 C33 1.398 . S
C32 C36 1.527 . S
C33 C32 1.398 . S
C33 C34 1.380 . S
C33 C47 1.497 . S
C34 C33 1.380 . S
C34 C35 1.383 . S
C34 C37 1.603 1_545 S
C35 C30 1.377 . S
C35 C34 1.383 . S
C35 H98 0.929 . S
C36 C32 1.527 . S
C36 H99 0.961 . S
C36 H100 0.959 . S
C36 H101 0.959 . S
C37 C34 1.603 1_565 S
C37 H102 0.960 . S
C37 H103 0.962 . S
C37 H104 0.961 . S
C38 C5 1.587 . S
C38 C39 1.360 1_655 S
C38 C51 1.412 . S
C39 C38 1.360 1_455 S
C39 C40 1.365 . S
C39 H105 0.929 . S
C40 C15 1.553 . S
C40 C39 1.365 . S
C40 C41 1.404 . S
C41 C40 1.404 . S
C41 C42 1.395 . S
C41 C52 1.451 . S
C42 C41 1.395 . S
C42 C43 1.322 . S
C42 H106 0.930 . S
C43 C42 1.322 . S
C43 C44 1.459 . S
C43 H107 0.929 . S
C44 C43 1.459 . S
C44 C45 1.445 1_565 S
C44 C53 1.395 . S
C45 C23 1.432 . S
C45 C44 1.445 1_545 S
C45 C46 1.370 . S
C46 C45 1.370 . S
C46 C47 1.438 1_455 S
C46 H108 0.930 . S
C47 C33 1.497 . S
C47 C46 1.438 1_655 S
C47 C48 1.360 . S
C48 C47 1.360 . S
C48 C49 1.401 . S
C48 C53 1.446 1_645 S
C49 C48 1.401 . S
C49 C50 1.347 1_545 S
C49 H109 0.929 . S
C50 C49 1.347 1_565 S
C50 C51 1.455 . S
C50 H110 0.930 . S
C51 C38 1.412 . S
C51 C50 1.455 . S
C51 C52 1.331 1_655 S
C52 C41 1.451 . S
C52 C51 1.331 1_455 S
C52 C53 1.497 . S
C53 C44 1.395 . S
C53 C48 1.446 1_465 S
C53 C52 1.497 . S
C54 C55 1.582 . S
C54 H111 0.962 . S
C54 H112 0.959 . S
C54 H113 0.958 . S
C55 C54 1.582 . S
C55 O58 1.458 . S
C55 H84 0.980 . S
O56 C1 1.426 . S
O56 C2 1.334 . S
O57 C29 1.412 . S
O57 C30 1.393 . S
O58 C20 1.435 . S
O58 C55 1.458 . S
O59 C11 1.468 . S
O59 C12 1.408 . S
H60 C1 0.980 . S
H61 C0 0.959 . S
H62 C0 0.959 . S
H63 C0 0.960 . S
H64 C3 0.929 . S
H65 C7 0.919 1_545 S
H66 C8 0.959 . S
H67 C8 0.961 . S
H68 C8 0.961 . S
H69 C9 0.960 . S
H70 C9 0.960 . S
H71 C9 0.961 . S
H72 C11 0.980 . S
H73 C10 0.961 . S
H74 C10 0.960 . S
H75 C10 0.959 . S
H76 C13 0.930 . S
H77 C17 0.931 . S
H78 C18 0.959 . S
H79 C18 0.961 . S
H80 C18 0.959 . S
H81 C19 0.960 . S
H82 C19 0.960 . S
H83 C19 0.960 . S
H84 C55 0.980 . S
H85 C21 0.930 . S
H86 C25 0.930 1_565 S
H87 C26 0.961 . S
H88 C26 0.960 . S
H89 C26 0.958 . S
H90 C27 0.961 . S
H91 C27 0.960 . S
H92 C27 0.960 . S
H93 C29 0.980 . S
H94 C28 0.961 . S
H95 C28 0.961 . S
H96 C28 0.959 . S
H97 C31 0.932 . S
H98 C35 0.929 . S
H99 C36 0.961 . S
H100 C36 0.959 . S
H101 C36 0.959 . S
H102 C37 0.960 . S
H103 C37 0.962 . S
H104 C37 0.961 . S
H105 C39 0.929 . S
H106 C42 0.930 . S
H107 C43 0.929 . S
H108 C46 0.930 . S
H109 C49 0.929 . S
H110 C50 0.930 . S
H111 C54 0.962 . S
H112 C54 0.959 . S
H113 C54 0.958 . S
C114 C115 1.560 . S
C114 H175 0.959 . S
C114 H176 0.959 . S
C114 H177 0.960 . S
C115 C114 1.560 . S
C115 O170 1.426 . S
C115 H174 0.980 . S
C116 C117 1.407 . S
C116 C121 1.418 . S
C116 O170 1.334 . S
C117 C116 1.407 . S
C117 C118 1.360 . S
C117 H178 0.929 . S
C118 C117 1.360 . S
C118 C119 1.401 . S
C118 C122 1.527 . S
C119 C118 1.401 . S
C119 C120 1.405 . S
C119 C152 1.587 . S
C120 C119 1.405 . S
C120 C121 1.332 . S
C120 C123 1.496 . S
C121 C116 1.418 . S
C121 C120 1.332 . S
C121 H179 0.929 . S
C122 C118 1.527 . S
C122 H180 0.959 . S
C122 H181 0.961 . S
C122 H182 0.961 . S
C123 C120 1.496 . S
C123 H183 0.960 . S
C123 H184 0.960 . S
C123 H185 0.961 . S
C124 C125 1.517 . S
C124 H187 0.961 . S
C124 H188 0.960 . S
C124 H189 0.959 . S
C125 C124 1.517 . S
C125 O173 1.468 . S
C125 H186 0.980 . S
C126 C127 1.349 . S
C126 C131 1.367 . S
C126 O173 1.408 . S
C127 C126 1.349 . S
C127 C128 1.407 . S
C127 H190 0.930 . S
C128 C127 1.407 . S
C128 C129 1.449 . S
C128 C132 1.535 . S
C129 C128 1.449 . S
C129 C130 1.384 . S
C129 C154 1.553 . S
C130 C129 1.384 . S
C130 C131 1.364 . S
C130 C133 1.450 . S
C131 C126 1.367 . S
C131 C130 1.364 . S
C131 H191 0.931 . S
C132 C128 1.535 . S
C132 H192 0.959 . S
C132 H193 0.961 . S
C132 H194 0.959 . S
C133 C130 1.450 . S
C133 H195 0.960 . S
C133 H196 0.960 . S
C133 H197 0.960 . S
C134 C135 1.309 . S
C134 C139 1.304 . S
C134 O172 1.435 . S
C135 C134 1.309 . S
C135 C136 1.476 . S
C135 H199 0.930 . S
C136 C135 1.476 . S
C136 C137 1.400 . S
C136 C140 1.567 . S
C137 C136 1.400 . S
C137 C138 1.373 . S
C137 C159 1.432 . S
C138 C137 1.373 . S
C138 C139 1.339 . S
C138 C141 1.530 . S
C139 C134 1.304 . S
C139 C138 1.339 . S
C139 H200 0.930 . S
C140 C136 1.567 . S
C140 H201 0.961 . S
C140 H202 0.960 . S
C140 H203 0.958 . S
C141 C138 1.530 . S
C141 H204 0.961 . S
C141 H205 0.960 . S
C141 H206 0.960 . S
C142 C143 1.530 . S
C142 H208 0.961 . S
C142 H209 0.961 . S
C142 H210 0.959 . S
C143 C142 1.530 . S
C143 O171 1.412 . S
C143 H207 0.980 . S
C144 C145 1.288 . S
C144 C149 1.377 . S
C144 O171 1.393 . S
C145 C144 1.288 . S
C145 C146 1.369 . S
C145 H211 0.932 . S
C146 C145 1.369 . S
C146 C147 1.398 . S
C146 C150 1.527 . S
C147 C146 1.398 . S
C147 C148 1.380 . S
C147 C161 1.497 . S
C148 C147 1.380 . S
C148 C149 1.383 . S
C148 C151 1.603 . S
C149 C144 1.377 . S
C149 C148 1.383 . S
C149 H212 0.929 . S
C150 C146 1.527 . S
C150 H213 0.961 . S
C150 H214 0.959 . S
C150 H215 0.959 . S
C151 C148 1.603 . S
C151 H216 0.960 . S
C151 H217 0.962 . S
C151 H218 0.961 . S
C152 C119 1.587 . S
C152 C153 1.360 . S
C152 C165 1.412 . S
C153 C152 1.360 . S
C153 C154 1.365 . S
C153 H219 0.929 . S
C154 C129 1.553 . S
C154 C153 1.365 . S
C154 C155 1.404 . S
C155 C154 1.404 . S
C155 C156 1.395 . S
C155 C166 1.451 . S
C156 C155 1.395 . S
C156 C157 1.322 . S
C156 H220 0.930 . S
C157 C156 1.322 . S
C157 C158 1.459 . S
C157 H221 0.929 . S
C158 C157 1.459 . S
C158 C159 1.445 . S
C158 C167 1.395 . S
C159 C137 1.432 . S
C159 C158 1.445 . S
C159 C160 1.370 . S
C160 C159 1.370 . S
C160 C161 1.438 . S
C160 H222 0.930 . S
C161 C147 1.497 . S
C161 C160 1.438 . S
C161 C162 1.360 . S
C162 C161 1.360 . S
C162 C163 1.401 . S
C162 C167 1.446 . S
C163 C162 1.401 . S
C163 C164 1.347 . S
C163 H223 0.929 . S
C164 C163 1.347 . S
C164 C165 1.455 . S
C164 H224 0.930 . S
C165 C152 1.412 . S
C165 C164 1.455 . S
C165 C166 1.331 . S
C166 C155 1.451 . S
C166 C165 1.331 . S
C166 C167 1.497 . S
C167 C158 1.395 . S
C167 C162 1.446 . S
C167 C166 1.497 . S
C168 C169 1.582 . S
C168 H225 0.962 . S
C168 H226 0.959 . S
C168 H227 0.958 . S
C169 C168 1.582 . S
C169 O172 1.458 . S
C169 H198 0.980 . S
O170 C115 1.426 . S
O170 C116 1.334 . S
O171 C143 1.412 . S
O171 C144 1.393 . S
O172 C134 1.435 . S
O172 C169 1.458 . S
O173 C125 1.468 . S
O173 C126 1.408 . S
H174 C115 0.980 . S
H175 C114 0.959 . S
H176 C114 0.959 . S
H177 C114 0.960 . S
H178 C117 0.929 . S
H179 C121 0.929 . S
H180 C122 0.959 . S
H181 C122 0.961 . S
H182 C122 0.961 . S
H183 C123 0.960 . S
H184 C123 0.960 . S
H185 C123 0.961 . S
H186 C125 0.980 . S
H187 C124 0.961 . S
H188 C124 0.960 . S
H189 C124 0.959 . S
H190 C127 0.930 . S
H191 C131 0.931 . S
H192 C132 0.959 . S
H193 C132 0.961 . S
H194 C132 0.959 . S
H195 C133 0.960 . S
H196 C133 0.960 . S
H197 C133 0.960 . S
H198 C169 0.980 . S
H199 C135 0.930 . S
H200 C139 0.930 . S
H201 C140 0.961 . S
H202 C140 0.960 . S
H203 C140 0.958 . S
H204 C141 0.961 . S
H205 C141 0.960 . S
H206 C141 0.960 . S
H207 C143 0.980 . S
H208 C142 0.961 . S
H209 C142 0.961 . S
H210 C142 0.959 . S
H211 C145 0.932 . S
H212 C149 0.929 . S
H213 C150 0.961 . S
H214 C150 0.959 . S
H215 C150 0.959 . S
H216 C151 0.960 . S
H217 C151 0.962 . S
H218 C151 0.961 . S
H219 C153 0.929 . S
H220 C156 0.930 . S
H221 C157 0.929 . S
H222 C160 0.930 . S
H223 C163 0.929 . S
H224 C164 0.930 . S
H225 C168 0.962 . S
H226 C168 0.959 . S
H227 C168 0.958 . S
C228 C229 1.560 . S
C228 H289 0.959 . S
C228 H290 0.959 . S
C228 H291 0.960 . S
C229 C228 1.560 . S
C229 O284 1.426 . S
C229 H288 0.980 . S
C230 C231 1.407 . S
C230 C235 1.418 . S
C230 O284 1.334 . S
C231 C230 1.407 . S
C231 C232 1.360 . S
C231 H292 0.929 . S
C232 C231 1.360 . S
C232 C233 1.401 . S
C232 C236 1.527 . S
C233 C232 1.401 . S
C233 C234 1.405 . S
C233 C266 1.587 . S
C234 C233 1.405 . S
C234 C235 1.332 . S
C234 C237 1.496 1_565 S
C235 C230 1.418 . S
C235 C234 1.332 . S
C235 H293 0.935 . S
C236 C232 1.527 . S
C236 H294 0.959 . S
C236 H295 0.961 . S
C236 H296 0.961 . S
C237 C234 1.496 1_545 S
C237 H297 0.960 . S
C237 H298 0.970 . S
C237 H299 0.961 . S
C238 C239 1.517 . S
C238 H301 0.961 . S
C238 H302 0.960 . S
C238 H303 0.959 . S
C239 C238 1.517 . S
C239 O287 1.468 . S
C239 H300 0.980 . S
C240 C241 1.349 . S
C240 C245 1.367 . S
C240 O287 1.408 . S
C241 C240 1.349 . S
C241 C242 1.407 . S
C241 H304 0.930 . S
C242 C241 1.407 . S
C242 C243 1.449 . S
C242 C246 1.535 . S
C243 C242 1.449 . S
C243 C244 1.384 . S
C243 C268 1.553 . S
C244 C243 1.384 . S
C244 C245 1.364 . S
C244 C247 1.450 . S
C245 C240 1.367 . S
C245 C244 1.364 . S
C245 H305 0.931 . S
C246 C242 1.535 . S
C246 H306 0.959 . S
C246 H307 0.961 . S
C246 H308 0.959 . S
C247 C244 1.450 . S
C247 H309 0.960 . S
C247 H310 0.960 . S
C247 H311 0.960 . S
C248 C249 1.309 . S
C248 C253 1.304 . S
C248 O286 1.435 . S
C249 C248 1.309 . S
C249 C250 1.476 . S
C249 H313 0.930 . S
C250 C249 1.476 . S
C250 C251 1.400 . S
C250 C254 1.567 . S
C251 C250 1.400 . S
C251 C252 1.373 . S
C251 C273 1.432 . S
C252 C251 1.373 . S
C252 C253 1.339 . S
C252 C255 1.530 1_545 S
C253 C248 1.304 . S
C253 C252 1.339 . S
C253 H314 0.930 1_545 S
C254 C250 1.567 . S
C254 H315 1.029 . S
C254 H316 0.960 . S
C254 H317 0.958 . S
C255 C252 1.530 1_565 S
C255 H318 0.961 . S
C255 H319 0.960 . S
C255 H320 0.960 . S
C256 C257 1.530 . S
C256 H322 0.961 . S
C256 H323 0.961 . S
C256 H324 0.959 . S
C257 C256 1.530 . S
C257 O285 1.412 . S
C257 H321 0.980 . S
C258 C259 1.288 . S
C258 C263 1.377 . S
C258 O285 1.393 . S
C259 C258 1.288 . S
C259 C260 1.369 . S
C259 H325 0.932 . S
C260 C259 1.369 . S
C260 C261 1.398 . S
C260 C264 1.527 . S
C261 C260 1.398 . S
C261 C262 1.380 . S
C261 C275 1.497 . S
C262 C261 1.380 . S
C262 C263 1.383 . S
C262 C265 1.603 1_545 S
C263 C258 1.377 . S
C263 C262 1.383 . S
C263 H326 0.929 . S
C264 C260 1.527 . S
C264 H327 0.889 1_556 S
C264 H328 0.959 . S
C264 H329 0.959 . S
C265 C262 1.603 1_565 S
C265 H330 0.960 . S
C265 H331 0.962 . S
C265 H332 0.961 . S
C266 C233 1.587 . S
C266 C267 1.360 . S
C266 C279 1.412 . S
C267 C266 1.360 . S
C267 C268 1.365 . S
C267 H333 0.929 . S
C268 C243 1.553 . S
C268 C267 1.365 . S
C268 C269 1.404 . S
C269 C268 1.404 . S
C269 C270 1.395 . S
C269 C280 1.451 . S
C270 C269 1.395 . S
C270 C271 1.353 . S
C270 H334 0.930 . S
C271 C270 1.353 . S
C271 C272 1.445 1_554 S
C271 H335 0.912 1_554 S
C272 C271 1.445 1_556 S
C272 C273 1.445 1_565 S
C272 C281 1.349 1_556 S
C273 C251 1.432 . S
C273 C272 1.445 1_545 S
C273 C274 1.370 . S
C274 C273 1.370 . S
C274 C275 1.438 . S
C274 H336 0.930 . S
C275 C261 1.497 . S
C275 C274 1.438 . S
C275 C276 1.360 . S
C276 C275 1.360 . S
C276 C277 1.401 1_556 S
C276 C281 1.413 1_546 S
C277 C276 1.401 1_554 S
C277 C278 1.347 1_545 S
C277 H337 0.939 . S
C278 C277 1.347 1_565 S
C278 C279 1.455 . S
C278 H338 0.930 . S
C279 C266 1.412 . S
C279 C278 1.455 . S
C279 C280 1.331 . S
C280 C269 1.451 . S
C280 C279 1.331 . S
C280 C281 1.592 . S
C281 C272 1.349 1_554 S
C281 C276 1.413 1_564 S
C281 C280 1.592 . S
C282 C283 1.582 . S
C282 H339 0.962 . S
C282 H340 0.959 . S
C282 H341 0.958 . S
C283 C282 1.582 . S
C283 O286 1.458 . S
C283 H312 0.980 . S
O284 C229 1.426 . S
O284 C230 1.334 . S
O285 C257 1.412 . S
O285 C258 1.393 . S
O286 C248 1.435 . S
O286 C283 1.458 . S
O287 C239 1.468 . S
O287 C240 1.408 . S
H288 C229 0.980 . S
H289 C228 0.959 . S
H290 C228 0.959 . S
H291 C228 0.960 . S
H292 C231 0.929 . S
H293 C235 0.935 . S
H294 C236 0.959 . S
H295 C236 0.961 . S
H296 C236 0.961 . S
H297 C237 0.960 . S
H298 C237 0.970 . S
H299 C237 0.961 . S
H300 C239 0.980 . S
H301 C238 0.961 . S
H302 C238 0.960 . S
H303 C238 0.959 . S
H304 C241 0.930 . S
H305 C245 0.931 . S
H306 C246 0.959 . S
H307 C246 0.961 . S
H308 C246 0.959 . S
H309 C247 0.960 . S
H310 C247 0.960 . S
H311 C247 0.960 . S
H312 C283 0.980 . S
H313 C249 0.930 . S
H314 C253 0.930 1_565 S
H315 C254 1.029 . S
H316 C254 0.960 . S
H317 C254 0.958 . S
H318 C255 0.961 . S
H319 C255 0.960 . S
H320 C255 0.960 . S
H321 C257 0.980 . S
H322 C256 0.961 . S
H323 C256 0.961 . S
H324 C256 0.959 . S
H325 C259 0.932 . S
H326 C263 0.929 . S
H327 C264 0.889 1_554 S
H328 C264 0.959 . S
H329 C264 0.959 . S
H330 C265 0.960 . S
H331 C265 0.962 . S
H332 C265 0.961 . S
H333 C267 0.929 . S
H334 C270 0.930 . S
H335 C271 0.912 1_556 S
H336 C274 0.930 . S
H337 C277 0.939 . S
H338 C278 0.930 . S
H339 C282 0.962 . S
H340 C282 0.959 . S
H341 C282 0.958 . S
C342 C343 1.560 . S
C342 H403 0.959 . S
C342 H404 0.959 . S
C342 H405 0.960 . S
C343 C342 1.560 . S
C343 O398 1.426 . S
C343 H402 0.980 . S
C344 C345 1.407 . S
C344 C349 1.418 . S
C344 O398 1.334 . S
C345 C344 1.407 . S
C345 C346 1.360 . S
C345 H406 0.929 . S
C346 C345 1.360 . S
C346 C347 1.401 . S
C346 C350 1.527 . S
C347 C346 1.401 . S
C347 C348 1.405 . S
C347 C380 1.587 . S
C348 C347 1.405 . S
C348 C349 1.332 . S
C348 C351 1.496 . S
C349 C344 1.418 . S
C349 C348 1.332 . S
C349 H407 0.929 . S
C350 C346 1.527 . S
C350 H408 0.959 . S
C350 H409 0.961 . S
C350 H410 0.961 . S
C351 C348 1.496 . S
C351 H411 0.960 . S
C351 H412 0.960 . S
C351 H413 0.961 . S
C352 C353 1.517 . S
C352 H415 0.961 . S
C352 H416 0.960 . S
C352 H417 0.959 . S
C353 C352 1.517 . S
C353 O401 1.468 . S
C353 H414 0.980 . S
C354 C355 1.349 . S
C354 C359 1.367 . S
C354 O401 1.408 . S
C355 C354 1.349 . S
C355 C356 1.407 . S
C355 H418 0.930 . S
C356 C355 1.407 . S
C356 C357 1.449 . S
C356 C360 1.535 . S
C357 C356 1.449 . S
C357 C358 1.384 . S
C357 C382 1.553 . S
C358 C357 1.384 . S
C358 C359 1.364 . S
C358 C361 1.450 . S
C359 C354 1.367 . S
C359 C358 1.364 . S
C359 H419 0.931 . S
C360 C356 1.535 . S
C360 H420 0.959 . S
C360 H421 0.961 . S
C360 H422 0.959 . S
C361 C358 1.450 . S
C361 H423 0.960 . S
C361 H424 0.960 . S
C361 H425 0.960 . S
C362 C363 1.309 . S
C362 C367 1.304 . S
C362 O400 1.435 . S
C363 C362 1.309 . S
C363 C364 1.476 . S
C363 H427 0.930 . S
C364 C363 1.476 . S
C364 C365 1.400 . S
C364 C368 1.567 . S
C365 C364 1.400 . S
C365 C366 1.373 . S
C365 C387 1.432 . S
C366 C365 1.373 . S
C366 C367 1.339 . S
C366 C369 1.530 . S
C367 C362 1.304 . S
C367 C366 1.339 . S
C367 H428 0.930 . S
C368 C364 1.567 . S
C368 H429 0.961 . S
C368 H430 0.960 . S
C368 H431 0.958 . S
C369 C366 1.530 . S
C369 H432 0.961 . S
C369 H433 0.960 . S
C369 H434 0.960 . S
C370 C371 1.530 . S
C370 H436 0.961 . S
C370 H437 0.961 . S
C370 H438 0.959 . S
C371 C370 1.530 . S
C371 O399 1.412 . S
C371 H435 0.980 . S
C372 C373 1.288 . S
C372 C377 1.377 . S
C372 O399 1.393 . S
C373 C372 1.288 . S
C373 C374 1.369 . S
C373 H439 0.932 . S
C374 C373 1.369 . S
C374 C375 1.398 . S
C374 C378 1.527 . S
C375 C374 1.398 . S
C375 C376 1.380 . S
C375 C389 1.497 . S
C376 C375 1.380 . S
C376 C377 1.383 . S
C376 C379 1.603 . S
C377 C372 1.377 . S
C377 C376 1.383 . S
C377 H440 0.929 . S
C378 C374 1.527 . S
C378 H441 0.961 . S
C378 H442 0.959 . S
C378 H443 0.959 . S
C379 C376 1.603 . S
C379 H444 0.960 . S
C379 H445 0.962 . S
C379 H446 0.961 . S
C380 C347 1.587 . S
C380 C381 1.360 . S
C380 C393 1.412 . S
C381 C380 1.360 . S
C381 C382 1.365 . S
C381 H447 0.929 . S
C382 C357 1.553 . S
C382 C381 1.365 . S
C382 C383 1.404 . S
C383 C382 1.404 . S
C383 C384 1.395 . S
C383 C394 1.451 . S
C384 C383 1.395 . S
C384 C385 1.322 . S
C384 H448 0.930 . S
C385 C384 1.322 . S
C385 C386 1.459 . S
C385 H449 0.929 . S
C386 C385 1.459 . S
C386 C387 1.445 . S
C386 C395 1.395 . S
C387 C365 1.432 . S
C387 C386 1.445 . S
C387 C388 1.370 . S
C388 C387 1.370 . S
C388 C389 1.438 . S
C388 H450 0.930 . S
C389 C375 1.497 . S
C389 C388 1.438 . S
C389 C390 1.360 . S
C390 C389 1.360 . S
C390 C391 1.401 . S
C390 C395 1.446 . S
C391 C390 1.401 . S
C391 C392 1.347 . S
C391 H451 0.929 . S
C392 C391 1.347 . S
C392 C393 1.455 . S
C392 H452 0.930 . S
C393 C380 1.412 . S
C393 C392 1.455 . S
C393 C394 1.331 . S
C394 C383 1.451 . S
C394 C393 1.331 . S
C394 C395 1.497 . S
C395 C386 1.395 . S
C395 C390 1.446 . S
C395 C394 1.497 . S
C396 C397 1.582 . S
C396 H453 0.962 . S
C396 H454 0.959 . S
C396 H455 0.958 . S
C397 C396 1.582 . S
C397 O400 1.458 . S
C397 H426 0.980 . S
O398 C343 1.426 . S
O398 C344 1.334 . S
O399 C371 1.412 . S
O399 C372 1.393 . S
O400 C362 1.435 . S
O400 C397 1.458 . S
O401 C353 1.468 . S
O401 C354 1.408 . S
H402 C343 0.980 . S
H403 C342 0.959 . S
H404 C342 0.959 . S
H405 C342 0.960 . S
H406 C345 0.929 . S
H407 C349 0.929 . S
H408 C350 0.959 . S
H409 C350 0.961 . S
H410 C350 0.961 . S
H411 C351 0.960 . S
H412 C351 0.960 . S
H413 C351 0.961 . S
H414 C353 0.980 . S
H415 C352 0.961 . S
H416 C352 0.960 . S
H417 C352 0.959 . S
H418 C355 0.930 . S
H419 C359 0.931 . S
H420 C360 0.959 . S
H421 C360 0.961 . S
H422 C360 0.959 . S
H423 C361 0.960 . S
H424 C361 0.960 . S
H425 C361 0.960 . S
H426 C397 0.980 . S
H427 C363 0.930 . S
H428 C367 0.930 . S
H429 C368 0.961 . S
H430 C368 0.960 . S
H431 C368 0.958 . S
H432 C369 0.961 . S
H433 C369 0.960 . S
H434 C369 0.960 . S
H435 C371 0.980 . S
H436 C370 0.961 . S
H437 C370 0.961 . S
H438 C370 0.959 . S
H439 C373 0.932 . S
H440 C377 0.929 . S
H441 C378 0.961 . S
H442 C378 0.959 . S
H443 C378 0.959 . S
H444 C379 0.960 . S
H445 C379 0.962 . S
H446 C379 0.961 . S
H447 C381 0.929 . S
H448 C384 0.930 . S
H449 C385 0.929 . S
H450 C388 0.930 . S
H451 C391 0.929 . S
H452 C392 0.930 . S
H453 C396 0.962 . S
H454 C396 0.959 . S
H455 C396 0.958 . S
C456 C457 1.560 . S
C456 H517 0.959 . S
C456 H518 0.959 . S
C456 H519 0.960 . S
C457 C456 1.560 . S
C457 O512 1.426 . S
C457 H516 0.980 . S
C458 C459 1.407 . S
C458 C463 1.418 . S
C458 O512 1.334 . S
C459 C458 1.407 . S
C459 C460 1.360 . S
C459 H520 0.929 . S
C460 C459 1.360 . S
C460 C461 1.401 . S
C460 C464 1.527 . S
C461 C460 1.401 . S
C461 C462 1.405 . S
C461 C494 1.587 . S
C462 C461 1.405 . S
C462 C463 1.332 . S
C462 C465 1.496 . S
C463 C458 1.418 . S
C463 C462 1.332 . S
C463 H521 0.929 . S
C464 C460 1.527 . S
C464 H522 0.959 . S
C464 H523 0.961 . S
C464 H524 0.961 . S
C465 C462 1.496 . S
C465 H525 0.960 . S
C465 H526 0.960 . S
C465 H527 0.961 . S
C466 C467 1.517 1_565 S
C466 H529 0.961 . S
C466 H530 0.960 . S
C466 H531 0.959 . S
C467 C466 1.517 1_545 S
C467 O515 1.468 . S
C467 H528 0.980 . S
C468 C469 1.349 . S
C468 C473 1.367 . S
C468 O515 1.408 . S
C469 C468 1.349 . S
C469 C470 1.407 . S
C469 H532 0.930 . S
C470 C469 1.407 . S
C470 C471 1.449 . S
C470 C474 1.535 . S
C471 C470 1.449 . S
C471 C472 1.384 . S
C471 C496 1.553 . S
C472 C471 1.384 . S
C472 C473 1.364 . S
C472 C475 1.450 . S
C473 C468 1.367 . S
C473 C472 1.364 . S
C473 H533 0.931 . S
C474 C470 1.535 . S
C474 H534 0.959 . S
C474 H535 0.961 . S
C474 H536 0.959 . S
C475 C472 1.450 . S
C475 H537 0.960 . S
C475 H538 0.960 . S
C475 H539 0.960 . S
C476 C477 1.309 . S
C476 C481 1.304 . S
C476 O514 1.435 . S
C477 C476 1.309 . S
C477 C478 1.476 . S
C477 H541 0.930 . S
C478 C477 1.476 . S
C478 C479 1.400 . S
C478 C482 1.567 . S
C479 C478 1.400 . S
C479 C480 1.373 . S
C479 C501 1.432 . S
C480 C479 1.373 . S
C480 C481 1.339 . S
C480 C483 1.530 . S
C481 C476 1.304 . S
C481 C480 1.339 . S
C481 H542 0.930 . S
C482 C478 1.567 . S
C482 H543 0.961 . S
C482 H544 0.960 . S
C482 H545 0.958 . S
C483 C480 1.530 . S
C483 H546 0.961 . S
C483 H547 0.960 . S
C483 H548 0.960 . S
C484 C485 1.530 . S
C484 H550 0.961 . S
C484 H551 0.961 . S
C484 H552 0.959 . S
C485 C484 1.530 . S
C485 O513 1.412 . S
C485 H549 0.980 . S
C486 C487 1.288 . S
C486 C491 1.377 . S
C486 O513 1.393 . S
C487 C486 1.288 . S
C487 C488 1.369 . S
C487 H553 0.932 . S
C488 C487 1.369 . S
C488 C489 1.398 . S
C488 C492 1.527 . S
C489 C488 1.398 . S
C489 C490 1.380 . S
C489 C503 1.497 . S
C490 C489 1.380 . S
C490 C491 1.383 . S
C490 C493 1.603 . S
C491 C486 1.377 . S
C491 C490 1.383 . S
C491 H554 0.929 . S
C492 C488 1.527 . S
C492 H555 0.961 . S
C492 H556 0.959 . S
C492 H557 0.959 . S
C493 C490 1.603 . S
C493 H558 0.960 . S
C493 H559 0.962 . S
C493 H560 0.961 . S
C494 C461 1.587 . S
C494 C495 1.360 . S
C494 C507 1.412 . S
C495 C494 1.360 . S
C495 C496 1.365 . S
C495 H561 0.929 . S
C496 C471 1.553 . S
C496 C495 1.365 . S
C496 C497 1.404 . S
C497 C496 1.404 . S
C497 C498 1.395 . S
C497 C508 1.451 . S
C498 C497 1.395 . S
C498 C499 1.322 . S
C498 H562 0.930 . S
C499 C498 1.322 . S
C499 C500 1.459 . S
C499 H563 0.929 . S
C500 C499 1.459 . S
C500 C501 1.445 . S
C500 C509 1.395 . S
C501 C479 1.432 . S
C501 C500 1.445 . S
C501 C502 1.370 . S
C502 C501 1.370 . S
C502 C503 1.438 . S
C502 H564 0.930 . S
C503 C489 1.497 . S
C503 C502 1.438 . S
C503 C504 1.360 . S
C504 C503 1.360 . S
C504 C505 1.401 . S
C504 C509 1.446 . S
C505 C504 1.401 . S
C505 C506 1.347 . S
C505 H565 0.929 . S
C506 C505 1.347 . S
C506 C507 1.455 . S
C506 H566 0.930 . S
C507 C494 1.412 . S
C507 C506 1.455 . S
C507 C508 1.331 . S
C508 C497 1.451 . S
C508 C507 1.331 . S
C508 C509 1.497 . S
C509 C500 1.395 . S
C509 C504 1.446 . S
C509 C508 1.497 . S
C510 C511 1.582 1_565 S
C510 H567 0.962 . S
C510 H568 0.959 . S
C510 H569 0.958 . S
C511 C510 1.582 1_545 S
C511 O514 1.458 . S
C511 H540 0.980 1_545 S
O512 C457 1.426 . S
O512 C458 1.334 . S
O513 C485 1.412 . S
O513 C486 1.393 . S
O514 C476 1.435 . S
O514 C511 1.458 . S
O515 C467 1.468 . S
O515 C468 1.408 . S
H516 C457 0.980 . S
H517 C456 0.959 . S
H518 C456 0.959 . S
H519 C456 0.960 . S
H520 C459 0.929 . S
H521 C463 0.929 . S
H522 C464 0.959 . S
H523 C464 0.961 . S
H524 C464 0.961 . S
H525 C465 0.960 . S
H526 C465 0.960 . S
H527 C465 0.961 . S
H528 C467 0.980 . S
H529 C466 0.961 . S
H530 C466 0.960 . S
H531 C466 0.959 . S
H532 C469 0.930 . S
H533 C473 0.931 . S
H534 C474 0.959 . S
H535 C474 0.961 . S
H536 C474 0.959 . S
H537 C475 0.960 . S
H538 C475 0.960 . S
H539 C475 0.960 . S
H540 C511 0.980 1_565 S
H541 C477 0.930 . S
H542 C481 0.930 . S
H543 C482 0.961 . S
H544 C482 0.960 . S
H545 C482 0.958 . S
H546 C483 0.961 . S
H547 C483 0.960 . S
H548 C483 0.960 . S
H549 C485 0.980 . S
H550 C484 0.961 . S
H551 C484 0.961 . S
H552 C484 0.959 . S
H553 C487 0.932 . S
H554 C491 0.929 . S
H555 C492 0.961 . S
H556 C492 0.959 . S
H557 C492 0.959 . S
H558 C493 0.960 . S
H559 C493 0.962 . S
H560 C493 0.961 . S
H561 C495 0.929 . S
H562 C498 0.930 . S
H563 C499 0.929 . S
H564 C502 0.930 . S
H565 C505 0.929 . S
H566 C506 0.930 . S
H567 C510 0.962 . S
H568 C510 0.959 . S
H569 C510 0.958 . S
C570 C571 1.560 . S
C570 H631 0.959 . S
C570 H632 0.959 . S
C570 H633 0.960 . S
C571 C570 1.560 . S
C571 O626 1.426 . S
C571 H630 0.980 . S
C572 C573 1.407 . S
C572 C577 1.418 . S
C572 O626 1.334 . S
C573 C572 1.407 . S
C573 C574 1.360 . S
C573 H634 0.929 . S
C574 C573 1.360 . S
C574 C575 1.401 . S
C574 C578 1.527 . S
C575 C574 1.401 . S
C575 C576 1.405 . S
C575 C608 1.587 . S
C576 C575 1.405 . S
C576 C577 1.332 . S
C576 C579 1.496 . S
C577 C572 1.418 . S
C577 C576 1.332 . S
C577 H635 0.929 . S
C578 C574 1.527 . S
C578 H636 0.959 . S
C578 H637 0.961 . S
C578 H638 0.961 . S
C579 C576 1.496 . S
C579 H639 0.960 . S
C579 H640 0.960 . S
C579 H641 0.961 . S
C580 C581 1.517 1_545 S
C580 H643 0.961 . S
C580 H644 0.960 . S
C580 H645 0.959 . S
C581 C580 1.517 1_565 S
C581 O629 1.468 . S
C581 H642 0.980 . S
C582 C583 1.349 . S
C582 C587 1.367 . S
C582 O629 1.408 . S
C583 C582 1.349 . S
C583 C584 1.407 . S
C583 H646 0.930 . S
C584 C583 1.407 . S
C584 C585 1.449 . S
C584 C588 1.535 . S
C585 C584 1.449 . S
C585 C586 1.384 . S
C585 C610 1.553 . S
C586 C585 1.384 . S
C586 C587 1.364 . S
C586 C589 1.450 . S
C587 C582 1.367 . S
C587 C586 1.364 . S
C587 H647 0.931 . S
C588 C584 1.535 . S
C588 H648 0.959 . S
C588 H649 0.961 . S
C588 H650 0.959 . S
C589 C586 1.450 . S
C589 H651 0.960 . S
C589 H652 0.960 . S
C589 H653 0.960 . S
C590 C591 1.309 . S
C590 C595 1.304 . S
C590 O628 1.435 . S
C591 C590 1.309 . S
C591 C592 1.476 . S
C591 H655 0.930 . S
C592 C591 1.476 . S
C592 C593 1.400 . S
C592 C596 1.567 . S
C593 C592 1.400 . S
C593 C594 1.373 . S
C593 C615 1.432 . S
C594 C593 1.373 . S
C594 C595 1.339 . S
C594 C597 1.530 . S
C595 C590 1.304 . S
C595 C594 1.339 . S
C595 H656 0.930 . S
C596 C592 1.567 . S
C596 H657 0.961 . S
C596 H658 0.960 . S
C596 H659 0.958 . S
C597 C594 1.530 . S
C597 H660 0.961 . S
C597 H661 0.960 . S
C597 H662 0.960 . S
C598 C599 1.530 . S
C598 H664 0.961 . S
C598 H665 0.961 . S
C598 H666 0.959 . S
C599 C598 1.530 . S
C599 O627 1.412 . S
C599 H663 0.980 . S
C600 C601 1.288 . S
C600 C605 1.377 . S
C600 O627 1.393 . S
C601 C600 1.288 . S
C601 C602 1.369 . S
C601 H667 0.932 . S
C602 C601 1.369 . S
C602 C603 1.398 . S
C602 C606 1.527 . S
C603 C602 1.398 . S
C603 C604 1.380 . S
C603 C617 1.497 . S
C604 C603 1.380 . S
C604 C605 1.383 . S
C604 C607 1.603 . S
C605 C600 1.377 . S
C605 C604 1.383 . S
C605 H668 0.929 . S
C606 C602 1.527 . S
C606 H669 0.961 . S
C606 H670 0.959 . S
C606 H671 0.959 . S
C607 C604 1.603 . S
C607 H672 0.960 . S
C607 H673 0.962 . S
C607 H674 0.961 . S
C608 C575 1.587 . S
C608 C609 1.360 . S
C608 C621 1.412 . S
C609 C608 1.360 . S
C609 C610 1.365 . S
C609 H675 0.929 . S
C610 C585 1.553 . S
C610 C609 1.365 . S
C610 C611 1.404 . S
C611 C610 1.404 . S
C611 C612 1.395 . S
C611 C622 1.451 . S
C612 C611 1.395 . S
C612 C613 1.322 . S
C612 H676 0.930 . S
C613 C612 1.322 . S
C613 C614 1.459 . S
C613 H677 0.929 . S
C614 C613 1.459 . S
C614 C615 1.445 . S
C614 C623 1.395 . S
C615 C593 1.432 . S
C615 C614 1.445 . S
C615 C616 1.370 . S
C616 C615 1.370 . S
C616 C617 1.438 . S
C616 H678 0.930 . S
C617 C603 1.497 . S
C617 C616 1.438 . S
C617 C618 1.360 . S
C618 C617 1.360 . S
C618 C619 1.401 . S
C618 C623 1.446 . S
C619 C618 1.401 . S
C619 C620 1.347 . S
C619 H679 0.929 . S
C620 C619 1.347 . S
C620 C621 1.455 . S
C620 H680 0.930 . S
C621 C608 1.412 . S
C621 C620 1.455 . S
C621 C622 1.331 . S
C622 C611 1.451 . S
C622 C621 1.331 . S
C622 C623 1.497 . S
C623 C614 1.395 . S
C623 C618 1.446 . S
C623 C622 1.497 . S
C624 C625 1.582 . S
C624 H681 0.962 . S
C624 H682 0.959 . S
C624 H683 0.958 . S
C625 C624 1.582 . S
C625 O628 1.458 1_545 S
C625 H654 0.980 . S
O626 C571 1.426 . S
O626 C572 1.334 . S
O627 C599 1.412 . S
O627 C600 1.393 . S
O628 C590 1.435 . S
O628 C625 1.458 1_565 S
O629 C581 1.468 . S
O629 C582 1.408 . S
H630 C571 0.980 . S
H631 C570 0.959 . S
H632 C570 0.959 . S
H633 C570 0.960 . S
H634 C573 0.929 . S
H635 C577 0.929 . S
H636 C578 0.959 . S
H637 C578 0.961 . S
H638 C578 0.961 . S
H639 C579 0.960 . S
H640 C579 0.960 . S
H641 C579 0.961 . S
H642 C581 0.980 . S
H643 C580 0.961 . S
H644 C580 0.960 . S
H645 C580 0.959 . S
H646 C583 0.930 . S
H647 C587 0.931 . S
H648 C588 0.959 . S
H649 C588 0.961 . S
H650 C588 0.959 . S
H651 C589 0.960 . S
H652 C589 0.960 . S
H653 C589 0.960 . S
H654 C625 0.980 . S
H655 C591 0.930 . S
H656 C595 0.930 . S
H657 C596 0.961 . S
H658 C596 0.960 . S
H659 C596 0.958 . S
H660 C597 0.961 . S
H661 C597 0.960 . S
H662 C597 0.960 . S
H663 C599 0.980 . S
H664 C598 0.961 . S
H665 C598 0.961 . S
H666 C598 0.959 . S
H667 C601 0.932 . S
H668 C605 0.929 . S
H669 C606 0.961 . S
H670 C606 0.959 . S
H671 C606 0.959 . S
H672 C607 0.960 . S
H673 C607 0.962 . S
H674 C607 0.961 . S
H675 C609 0.929 . S
H676 C612 0.930 . S
H677 C613 0.929 . S
H678 C616 0.930 . S
H679 C619 0.929 . S
H680 C620 0.930 . S
H681 C624 0.962 . S
H682 C624 0.959 . S
H683 C624 0.958 . S
C684 C685 1.560 . S
C684 H745 0.959 . S
C684 H746 0.959 . S
C684 H747 0.960 . S
C685 C684 1.560 . S
C685 O740 1.426 . S
C685 H744 0.980 . S
C686 C687 1.407 . S
C686 C691 1.418 . S
C686 O740 1.334 . S
C687 C686 1.407 . S
C687 C688 1.360 . S
C687 H748 0.929 . S
C688 C687 1.360 . S
C688 C689 1.401 . S
C688 C692 1.527 . S
C689 C688 1.401 . S
C689 C690 1.405 . S
C689 C722 1.587 . S
C690 C689 1.405 . S
C690 C691 1.332 . S
C690 C693 1.496 . S
C691 C686 1.418 . S
C691 C690 1.332 . S
C691 H749 0.929 . S
C692 C688 1.527 . S
C692 H750 0.959 . S
C692 H751 0.961 . S
C692 H752 0.961 . S
C693 C690 1.496 . S
C693 H753 0.960 . S
C693 H754 0.960 . S
C693 H755 0.961 . S
C694 C695 1.517 . S
C694 H757 0.961 . S
C694 H758 0.960 . S
C694 H759 0.959 . S
C695 C694 1.517 . S
C695 O743 1.468 . S
C695 H756 0.980 . S
C696 C697 1.349 . S
C696 C701 1.367 . S
C696 O743 1.408 . S
C697 C696 1.349 . S
C697 C698 1.407 . S
C697 H760 0.930 . S
C698 C697 1.407 . S
C698 C699 1.449 . S
C698 C702 1.535 . S
C699 C698 1.449 . S
C699 C700 1.384 . S
C699 C724 1.553 . S
C700 C699 1.384 . S
C700 C701 1.364 . S
C700 C703 1.450 . S
C701 C696 1.367 . S
C701 C700 1.364 . S
C701 H761 0.931 . S
C702 C698 1.535 . S
C702 H762 0.959 . S
C702 H763 0.961 . S
C702 H764 0.959 . S
C703 C700 1.450 . S
C703 H765 0.960 . S
C703 H766 0.960 . S
C703 H767 0.960 . S
C704 C705 1.309 . S
C704 C709 1.304 . S
C704 O742 1.435 . S
C705 C704 1.309 . S
C705 C706 1.476 . S
C705 H769 0.930 . S
C706 C705 1.476 . S
C706 C707 1.400 . S
C706 C710 1.567 . S
C707 C706 1.400 . S
C707 C708 1.373 . S
C707 C729 1.432 . S
C708 C707 1.373 . S
C708 C709 1.339 . S
C708 C711 1.530 . S
C709 C704 1.304 . S
C709 C708 1.339 . S
C709 H770 0.930 . S
C710 C706 1.567 . S
C710 H771 0.961 . S
C710 H772 0.960 . S
C710 H773 0.958 . S
C711 C708 1.530 . S
C711 H774 0.961 . S
C711 H775 0.960 1_556 S
C711 H776 0.960 . S
C712 C713 1.530 . S
C712 H778 0.961 . S
C712 H779 0.961 . S
C712 H780 0.959 . S
C713 C712 1.530 . S
C713 O741 1.412 . S
C713 H777 0.980 . S
C714 C715 1.288 . S
C714 C719 1.377 . S
C714 O741 1.393 . S
C715 C714 1.288 . S
C715 C716 1.369 . S
C715 H781 0.932 . S
C716 C715 1.369 . S
C716 C717 1.398 . S
C716 C720 1.527 . S
C717 C716 1.398 . S
C717 C718 1.380 . S
C717 C731 1.497 . S
C718 C717 1.380 . S
C718 C719 1.383 . S
C718 C721 1.603 . S
C719 C714 1.377 . S
C719 C718 1.383 . S
C719 H782 0.929 . S
C720 C716 1.527 . S
C720 H783 0.961 . S
C720 H784 0.959 . S
C720 H785 0.959 . S
C721 C718 1.603 . S
C721 H786 0.960 . S
C721 H787 0.962 . S
C721 H788 0.964 1_556 S
C722 C689 1.587 . S
C722 C723 1.360 . S
C722 C735 1.412 . S
C723 C722 1.360 . S
C723 C724 1.365 . S
C723 H789 0.929 . S
C724 C699 1.553 . S
C724 C723 1.365 . S
C724 C725 1.404 . S
C725 C724 1.404 . S
C725 C726 1.395 . S
C725 C736 1.451 . S
C726 C725 1.395 . S
C726 C727 1.322 . S
C726 H790 0.930 . S
C727 C726 1.322 . S
C727 C728 1.459 . S
C727 H791 0.929 . S
C728 C727 1.459 . S
C728 C729 1.445 1_554 S
C728 C737 1.395 . S
C729 C707 1.432 . S
C729 C728 1.445 1_556 S
C729 C730 1.370 . S
C730 C729 1.370 . S
C730 C731 1.438 . S
C730 H792 0.930 . S
C731 C717 1.497 . S
C731 C730 1.438 . S
C731 C732 1.360 1_556 S
C732 C731 1.360 1_554 S
C732 C733 1.401 . S
C732 C737 1.446 . S
C733 C732 1.401 . S
C733 C734 1.347 . S
C733 H793 0.929 . S
C734 C733 1.347 . S
C734 C735 1.455 . S
C734 H794 0.930 . S
C735 C722 1.412 . S
C735 C734 1.455 . S
C735 C736 1.331 . S
C736 C725 1.451 . S
C736 C735 1.331 . S
C736 C737 1.497 . S
C737 C728 1.395 . S
C737 C732 1.446 . S
C737 C736 1.497 . S
C738 C739 1.582 . S
C738 H795 0.962 . S
C738 H796 0.959 . S
C738 H797 0.958 . S
C739 C738 1.582 . S
C739 O742 1.458 . S
C739 H768 0.980 . S
O740 C685 1.426 . S
O740 C686 1.334 . S
O741 C713 1.412 . S
O741 C714 1.393 . S
O742 C704 1.435 . S
O742 C739 1.458 . S
O743 C695 1.468 . S
O743 C696 1.408 . S
H744 C685 0.980 . S
H745 C684 0.959 . S
H746 C684 0.959 . S
H747 C684 0.960 . S
H748 C687 0.929 . S
H749 C691 0.929 . S
H750 C692 0.959 . S
H751 C692 0.961 . S
H752 C692 0.961 . S
H753 C693 0.960 . S
H754 C693 0.960 . S
H755 C693 0.961 . S
H756 C695 0.980 . S
H757 C694 0.961 . S
H758 C694 0.960 . S
H759 C694 0.959 . S
H760 C697 0.930 . S
H761 C701 0.931 . S
H762 C702 0.959 . S
H763 C702 0.961 . S
H764 C702 0.959 . S
H765 C703 0.960 . S
H766 C703 0.960 . S
H767 C703 0.960 . S
H768 C739 0.980 . S
H769 C705 0.930 . S
H770 C709 0.930 . S
H771 C710 0.961 . S
H772 C710 0.960 . S
H773 C710 0.958 . S
H774 C711 0.961 . S
H775 C711 0.960 1_554 S
H776 C711 0.960 . S
H777 C713 0.980 . S
H778 C712 0.961 . S
H779 C712 0.961 . S
H780 C712 0.959 . S
H781 C715 0.932 . S
H782 C719 0.929 . S
H783 C720 0.961 . S
H784 C720 0.959 . S
H785 C720 0.959 . S
H786 C721 0.960 . S
H787 C721 0.962 . S
H788 C721 0.964 1_554 S
H789 C723 0.929 . S
H790 C726 0.930 . S
H791 C727 0.929 . S
H792 C730 0.930 . S
H793 C733 0.929 . S
H794 C734 0.930 . S
H795 C738 0.962 . S
H796 C738 0.959 . S
H797 C738 0.958 . S
C798 C799 1.560 . S
C798 H859 0.959 . S
C798 H860 0.959 . S
C798 H861 0.960 . S
C799 C798 1.560 . S
C799 O854 1.426 . S
C799 H858 0.980 . S
C800 C801 1.407 . S
C800 C805 1.418 . S
C800 O854 1.334 1_455 S
C801 C800 1.407 . S
C801 C802 1.360 . S
C801 H862 0.929 1_455 S
C802 C801 1.360 . S
C802 C803 1.401 . S
C802 C806 1.527 . S
C803 C802 1.401 . S
C803 C804 1.405 . S
C803 C836 1.587 . S
C804 C803 1.405 . S
C804 C805 1.332 . S
C804 C807 1.496 . S
C805 C800 1.418 . S
C805 C804 1.332 . S
C805 H863 0.929 . S
C806 C802 1.527 . S
C806 H864 0.959 . S
C806 H865 0.961 . S
C806 H866 0.961 . S
C807 C804 1.496 . S
C807 H867 0.960 . S
C807 H868 0.960 . S
C807 H869 0.961 . S
C808 C809 1.517 . S
C808 H871 0.961 . S
C808 H872 0.960 . S
C808 H873 0.959 . S
C809 C808 1.517 . S
C809 O857 1.468 . S
C809 H870 0.980 . S
C810 C811 1.349 . S
C810 C815 1.367 . S
C810 O857 1.408 . S
C811 C810 1.349 . S
C811 C812 1.407 . S
C811 H874 0.930 . S
C812 C811 1.407 . S
C812 C813 1.449 . S
C812 C816 1.535 . S
C813 C812 1.449 . S
C813 C814 1.384 . S
C813 C838 1.553 . S
C814 C813 1.384 . S
C814 C815 1.364 . S
C814 C817 1.450 . S
C815 C810 1.367 . S
C815 C814 1.364 . S
C815 H875 0.931 . S
C816 C812 1.535 . S
C816 H876 0.959 . S
C816 H877 0.961 . S
C816 H878 0.959 . S
C817 C814 1.450 . S
C817 H879 0.960 . S
C817 H880 0.960 . S
C817 H881 0.960 . S
C818 C819 1.309 . S
C818 C823 1.304 . S
C818 O856 1.435 . S
C819 C818 1.309 . S
C819 C820 1.476 . S
C819 H883 0.930 . S
C820 C819 1.476 . S
C820 C821 1.400 . S
C820 C824 1.567 . S
C821 C820 1.400 . S
C821 C822 1.373 . S
C821 C843 1.432 . S
C822 C821 1.373 . S
C822 C823 1.339 . S
C822 C825 1.530 . S
C823 C818 1.304 . S
C823 C822 1.339 . S
C823 H884 0.930 . S
C824 C820 1.567 . S
C824 H885 0.961 . S
C824 H886 0.960 . S
C824 H887 0.958 . S
C825 C822 1.530 . S
C825 H888 0.961 . S
C825 H889 0.960 . S
C825 H890 0.960 . S
C826 C827 1.530 . S
C826 H892 0.961 . S
C826 H893 0.961 . S
C826 H894 0.959 . S
C827 C826 1.530 . S
C827 O855 1.412 . S
C827 H891 0.980 . S
C828 C829 1.288 . S
C828 C833 1.377 . S
C828 O855 1.393 1_455 S
C829 C828 1.288 . S
C829 C830 1.369 . S
C829 H895 0.932 . S
C830 C829 1.369 . S
C830 C831 1.398 . S
C830 C834 1.527 . S
C831 C830 1.398 . S
C831 C832 1.380 . S
C831 C845 1.497 . S
C832 C831 1.380 . S
C832 C833 1.383 . S
C832 C835 1.603 . S
C833 C828 1.377 . S
C833 C832 1.383 . S
C833 H896 0.928 . S
C834 C830 1.527 . S
C834 H897 0.961 . S
C834 H898 0.959 . S
C834 H899 0.959 . S
C835 C832 1.603 . S
C835 H900 0.960 . S
C835 H901 0.962 . S
C835 H902 0.961 . S
C836 C803 1.587 . S
C836 C837 1.360 . S
C836 C849 1.412 . S
C837 C836 1.360 . S
C837 C838 1.365 . S
C837 H903 0.929 . S
C838 C813 1.553 . S
C838 C837 1.365 . S
C838 C839 1.404 . S
C839 C838 1.404 . S
C839 C840 1.395 . S
C839 C850 1.451 . S
C840 C839 1.395 . S
C840 C841 1.322 . S
C840 H904 0.930 . S
C841 C840 1.322 . S
C841 C842 1.459 . S
C841 H905 0.929 . S
C842 C841 1.459 . S
C842 C843 1.445 . S
C842 C851 1.395 . S
C843 C821 1.432 . S
C843 C842 1.445 . S
C843 C844 1.370 . S
C844 C843 1.370 . S
C844 C845 1.438 . S
C844 H906 0.930 . S
C845 C831 1.497 . S
C845 C844 1.438 . S
C845 C846 1.360 . S
C846 C845 1.360 . S
C846 C847 1.401 . S
C846 C851 1.446 . S
C847 C846 1.401 . S
C847 C848 1.347 . S
C847 H907 0.929 . S
C848 C847 1.347 . S
C848 C849 1.455 . S
C848 H908 0.930 . S
C849 C836 1.412 . S
C849 C848 1.455 . S
C849 C850 1.331 . S
C850 C839 1.451 . S
C850 C849 1.331 . S
C850 C851 1.497 . S
C851 C842 1.395 . S
C851 C846 1.446 . S
C851 C850 1.497 . S
C852 C853 1.582 . S
C852 H909 0.962 . S
C852 H910 0.959 . S
C852 H911 0.958 . S
C853 C852 1.582 . S
C853 O856 1.458 . S
C853 H882 0.980 . S
O854 C799 1.426 . S
O854 C800 1.334 1_655 S
O855 C827 1.412 . S
O855 C828 1.393 1_655 S
O856 C818 1.435 . S
O856 C853 1.458 . S
O857 C809 1.468 . S
O857 C810 1.408 . S
H858 C799 0.980 . S
H859 C798 0.959 . S
H860 C798 0.959 . S
H861 C798 0.960 . S
H862 C801 0.929 1_655 S
H863 C805 0.929 . S
H864 C806 0.959 . S
H865 C806 0.961 . S
H866 C806 0.961 . S
H867 C807 0.960 . S
H868 C807 0.960 . S
H869 C807 0.961 . S
H870 C809 0.980 . S
H871 C808 0.961 . S
H872 C808 0.960 . S
H873 C808 0.959 . S
H874 C811 0.930 . S
H875 C815 0.931 . S
H876 C816 0.959 . S
H877 C816 0.961 . S
H878 C816 0.959 . S
H879 C817 0.960 . S
H880 C817 0.960 . S
H881 C817 0.960 . S
H882 C853 0.980 . S
H883 C819 0.930 . S
H884 C823 0.930 . S
H885 C824 0.961 . S
H886 C824 0.960 . S
H887 C824 0.958 . S
H888 C825 0.961 . S
H889 C825 0.960 . S
H890 C825 0.960 . S
H891 C827 0.980 . S
H892 C826 0.961 . S
H893 C826 0.961 . S
H894 C826 0.959 . S
H895 C829 0.932 . S
H896 C833 0.928 . S
H897 C834 0.961 . S
H898 C834 0.959 . S
H899 C834 0.959 . S
H900 C835 0.960 . S
H901 C835 0.962 . S
H902 C835 0.961 . S
H903 C837 0.929 . S
H904 C840 0.930 . S
H905 C841 0.929 . S
H906 C844 0.930 . S
H907 C847 0.929 . S
H908 C848 0.930 . S
H909 C852 0.962 . S
H910 C852 0.959 . S
H911 C852 0.958 . S
C912 O939 1.312 . S
C912 O940 1.208 . S
C913 O934 1.331 1_655 S
C913 O937 1.244 . S
C914 O936 1.264 1_655 S
C914 O938 1.273 . S
Mg915 O917 1.936 . S
Mg915 O924 2.081 . S
Mg915 O926 2.023 . S
Mg915 O930 2.031 . S
Mg915 O939 2.291 . S
Mg916 O917 1.963 . S
Mg916 O927 1.942 . S
Mg916 O928 1.955 . S
Mg916 O935 1.986 . S
O917 Mg915 1.936 . S
O917 Mg916 1.963 . S
O917 Mg918 1.915 . S
Mg918 O917 1.915 . S
Mg918 O919 1.915 . S
Mg918 O923 2.013 . S
Mg918 O929 2.114 . S
Mg918 O933 2.013 . S
Mg918 O939 2.114 . S
O919 Mg918 1.915 . S
O919 Mg920 1.936 . S
O919 Mg921 1.963 1_455 S
Mg920 O919 1.936 . S
Mg920 O929 2.291 . S
Mg920 O934 2.081 . S
Mg920 O936 2.023 . S
Mg920 O940 2.031 . S
Mg921 O919 1.963 1_655 S
Mg921 O925 1.986 . S
Mg921 O937 1.942 . S
Mg921 O938 1.955 . S
C922 O933 1.191 . S
C922 O935 1.307 . S
O923 Mg918 2.013 . S
O923 C942 1.191 . S
O924 Mg915 2.081 . S
O924 C932 1.331 . S
O925 Mg921 1.986 . S
O925 C942 1.307 1_655 S
O926 Mg915 2.023 . S
O926 C941 1.264 . S
O927 Mg916 1.942 . S
O927 C932 1.244 . S
O928 Mg916 1.955 . S
O928 C941 1.273 . S
O929 Mg918 2.114 . S
O929 Mg920 2.291 . S
O929 C931 1.312 . S
O930 Mg915 2.031 . S
O930 C931 1.208 . S
C931 O929 1.312 . S
C931 O930 1.208 . S
C932 O924 1.331 . S
C932 O927 1.244 . S
O933 Mg918 2.013 . S
O933 C922 1.191 . S
O934 C913 1.331 1_455 S
O934 Mg920 2.081 . S
O935 Mg916 1.986 . S
O935 C922 1.307 . S
O936 C914 1.264 1_455 S
O936 Mg920 2.023 . S
O937 C913 1.244 . S
O937 Mg921 1.942 . S
O938 C914 1.273 . S
O938 Mg921 1.955 . S
O939 C912 1.312 . S
O939 Mg915 2.291 . S
O939 Mg918 2.114 . S
O940 C912 1.208 . S
O940 Mg920 2.031 . S
C941 O926 1.264 . S
C941 O928 1.273 . S
C942 O923 1.191 . S
C942 O925 1.307 1_455 S
C943 O970 1.312 . S
C943 O971 1.208 . S
C944 O965 1.331 . S
C944 O968 1.244 . S
C945 O967 1.264 . S
C945 O969 1.273 . S
Mg946 O948 1.936 . S
Mg946 O955 2.081 . S
Mg946 O957 2.023 . S
Mg946 O961 2.031 . S
Mg946 O970 2.291 . S
Mg947 O948 1.963 . S
Mg947 O958 1.942 . S
Mg947 O959 1.955 . S
Mg947 O966 1.986 . S
O948 Mg946 1.936 . S
O948 Mg947 1.963 . S
O948 Mg949 1.915 . S
Mg949 O948 1.915 . S
Mg949 O950 1.915 . S
Mg949 O954 2.013 . S
Mg949 O960 2.114 . S
Mg949 O964 2.013 . S
Mg949 O970 2.114 . S
O950 Mg949 1.915 . S
O950 Mg951 1.936 . S
O950 Mg952 1.963 . S
Mg951 O950 1.936 . S
Mg951 O960 2.291 . S
Mg951 O965 2.081 . S
Mg951 O967 2.023 . S
Mg951 O971 2.031 . S
Mg952 O950 1.963 . S
Mg952 O956 1.986 . S
Mg952 O968 1.942 . S
Mg952 O969 1.955 . S
C953 O964 1.191 . S
C953 O966 1.307 . S
O954 Mg949 2.013 . S
O954 C973 1.191 . S
O955 Mg946 2.081 . S
O955 C963 1.331 . S
O956 Mg952 1.986 . S
O956 C973 1.307 . S
O957 Mg946 2.023 . S
O957 C972 1.264 . S
O958 Mg947 1.942 . S
O958 C963 1.244 . S
O959 Mg947 1.955 . S
O959 C972 1.273 . S
O960 Mg949 2.114 . S
O960 Mg951 2.291 . S
O960 C962 1.312 . S
O961 Mg946 2.031 . S
O961 C962 1.208 . S
C962 O960 1.312 . S
C962 O961 1.208 . S
C963 O955 1.331 . S
C963 O958 1.244 . S
O964 Mg949 2.013 . S
O964 C953 1.191 . S
O965 C944 1.331 . S
O965 Mg951 2.081 . S
O966 Mg947 1.986 . S
O966 C953 1.307 . S
O967 C945 1.264 . S
O967 Mg951 2.023 . S
O968 C944 1.244 . S
O968 Mg952 1.942 . S
O969 C945 1.273 . S
O969 Mg952 1.955 . S
O970 C943 1.312 . S
O970 Mg946 2.291 . S
O970 Mg949 2.114 . S
O971 C943 1.208 . S
O971 Mg951 2.031 . S
C972 O957 1.264 . S
C972 O959 1.273 . S
C973 O954 1.191 . S
C973 O956 1.307 . S
C974 O1001 1.312 . S
C974 O1002 1.208 . S
C975 O996 1.331 . S
C975 O999 1.244 . S
C976 O998 1.264 . S
C976 O1000 1.273 . S
Mg977 O979 1.936 . S
Mg977 O986 2.081 . S
Mg977 O988 2.023 . S
Mg977 O992 2.031 . S
Mg977 O1001 2.291 . S
Mg978 O979 1.963 . S
Mg978 O989 1.942 . S
Mg978 O990 1.955 . S
Mg978 O997 1.986 . S
O979 Mg977 1.936 . S
O979 Mg978 1.963 . S
O979 Mg980 1.915 . S
Mg980 O979 1.915 . S
Mg980 O981 1.915 . S
Mg980 O985 2.013 . S
Mg980 O991 2.114 . S
Mg980 O995 2.013 . S
Mg980 O1001 2.114 . S
O981 Mg980 1.915 . S
O981 Mg982 1.936 . S
O981 Mg983 1.963 . S
Mg982 O981 1.936 . S
Mg982 O991 2.291 . S
Mg982 O996 2.081 . S
Mg982 O998 2.023 . S
Mg982 O1002 2.031 . S
Mg983 O981 1.963 . S
Mg983 O987 1.986 . S
Mg983 O999 1.942 . S
Mg983 O1000 1.955 . S
C984 O995 1.191 . S
C984 O997 1.307 . S
O985 Mg980 2.013 . S
O985 C1004 1.191 . S
O986 Mg977 2.081 . S
O986 C994 1.331 . S
O987 Mg983 1.986 . S
O987 C1004 1.307 . S
O988 Mg977 2.023 . S
O988 C1003 1.264 . S
O989 Mg978 1.942 . S
O989 C994 1.244 . S
O990 Mg978 1.955 . S
O990 C1003 1.273 . S
O991 Mg980 2.114 . S
O991 Mg982 2.291 . S
O991 C993 1.312 . S
O992 Mg977 2.031 . S
O992 C993 1.208 . S
C993 O991 1.312 . S
C993 O992 1.208 . S
C994 O986 1.331 . S
C994 O989 1.244 . S
O995 Mg980 2.013 . S
O995 C984 1.191 . S
O996 C975 1.331 . S
O996 Mg982 2.081 . S
O997 Mg978 1.986 . S
O997 C984 1.307 . S
O998 C976 1.264 . S
O998 Mg982 2.023 . S
O999 C975 1.244 . S
O999 Mg983 1.942 . S
O1000 C976 1.273 . S
O1000 Mg983 1.955 . S
O1001 C974 1.312 . S
O1001 Mg977 2.291 . S
O1001 Mg980 2.114 . S
O1002 C974 1.208 . S
O1002 Mg982 2.031 . S
C1003 O988 1.264 . S
C1003 O990 1.273 . S
C1004 O985 1.191 . S
C1004 O987 1.307 . S
C1005 O1032 1.312 . S
C1005 O1033 1.208 . S
C1006 O1027 1.331 . S
C1006 O1030 1.244 . S
C1007 O1029 1.264 . S
C1007 O1031 1.273 . S
Mg1008 O1010 1.936 . S
Mg1008 O1017 2.081 . S
Mg1008 O1019 2.023 . S
Mg1008 O1023 2.031 . S
Mg1008 O1032 2.291 . S
Mg1009 O1010 1.963 1_655 S
Mg1009 O1020 1.942 . S
Mg1009 O1021 1.955 . S
Mg1009 O1028 1.986 . S
O1010 Mg1008 1.936 . S
O1010 Mg1009 1.963 1_455 S
O1010 Mg1011 1.915 . S
Mg1011 O1010 1.915 . S
Mg1011 O1012 1.915 . S
Mg1011 O1016 2.013 . S
Mg1011 O1022 2.114 . S
Mg1011 O1026 2.013 . S
Mg1011 O1032 2.114 . S
O1012 Mg1011 1.915 . S
O1012 Mg1013 1.936 . S
O1012 Mg1014 1.963 . S
Mg1013 O1012 1.936 . S
Mg1013 O1022 2.291 . S
Mg1013 O1027 2.081 . S
Mg1013 O1029 2.023 . S
Mg1013 O1033 2.031 . S
Mg1014 O1012 1.963 . S
Mg1014 O1018 1.986 . S
Mg1014 O1030 1.942 . S
Mg1014 O1031 1.955 . S
C1015 O1026 1.191 . S
C1015 O1028 1.307 1_455 S
O1016 Mg1011 2.013 . S
O1016 C1035 1.191 . S
O1017 Mg1008 2.081 . S
O1017 C1025 1.331 1_455 S
O1018 Mg1014 1.986 . S
O1018 C1035 1.307 . S
O1019 Mg1008 2.023 . S
O1019 C1034 1.264 1_455 S
O1020 Mg1009 1.942 . S
O1020 C1025 1.244 . S
O1021 Mg1009 1.955 . S
O1021 C1034 1.273 . S
O1022 Mg1011 2.114 . S
O1022 Mg1013 2.291 . S
O1022 C1024 1.312 . S
O1023 Mg1008 2.031 . S
O1023 C1024 1.208 . S
C1024 O1022 1.312 . S
C1024 O1023 1.208 . S
C1025 O1017 1.331 1_655 S
C1025 O1020 1.244 . S
O1026 Mg1011 2.013 . S
O1026 C1015 1.191 . S
O1027 C1006 1.331 . S
O1027 Mg1013 2.081 . S
O1028 Mg1009 1.986 . S
O1028 C1015 1.307 1_655 S
O1029 C1007 1.264 . S
O1029 Mg1013 2.023 . S
O1030 C1006 1.244 . S
O1030 Mg1014 1.942 . S
O1031 C1007 1.273 . S
O1031 Mg1014 1.955 . S
O1032 C1005 1.312 . S
O1032 Mg1008 2.291 . S
O1032 Mg1011 2.114 . S
O1033 C1005 1.208 . S
O1033 Mg1013 2.031 . S
C1034 O1019 1.264 1_655 S
C1034 O1021 1.273 . S
C1035 O1016 1.191 . S
C1035 O1018 1.307 . S
H1036 C1054 0.951 . S
H1037 C1056 0.951 . S
H1038 C1058 0.950 . S
H1039 C1059 0.950 . S
H1040 C1061 0.950 . S
H1041 C1064 0.950 . S
H1042 C1065 0.950 1_545 S
H1043 C1067 0.950 . S
H1044 C1068 0.950 . S
H1045 C1069 0.951 . S
H1046 C1071 0.951 . S
H1047 C1073 0.950 . S
H1048 C1074 0.950 . S
H1049 C1076 0.950 . S
H1050 C1079 0.950 . S
H1051 C1080 0.950 . S
H1052 C1082 0.950 . S
H1053 C1083 0.950 . S
C1054 H1036 0.951 . S
C1054 C1055 1.366 . S
C1054 C1056 1.388 . S
C1055 C1054 1.366 . S
C1055 C1059 1.385 . S
C1056 H1037 0.951 . S
C1056 C1054 1.388 . S
C1056 C1057 1.366 . S
C1057 C1056 1.366 . S
C1057 C1058 1.414 . S
C1057 C1060 1.499 . S
C1058 H1038 0.950 . S
C1058 C1057 1.414 . S
C1058 C1059 1.374 . S
C1059 H1039 0.950 . S
C1059 C1055 1.385 . S
C1059 C1058 1.374 . S
C1060 C1057 1.499 . S
C1060 C1061 1.373 . S
C1060 C1062 1.389 . S
C1061 H1040 0.950 . S
C1061 C1060 1.373 . S
C1061 C1077 1.377 . S
C1062 C1060 1.389 . S
C1062 C1063 1.524 . S
C1062 C1076 1.377 . S
C1063 C1062 1.524 . S
C1063 C1064 1.397 . S
C1063 C1068 1.363 . S
C1064 H1041 0.950 . S
C1064 C1063 1.397 . S
C1064 C1065 1.334 . S
C1065 H1042 0.950 1_565 S
C1065 C1064 1.334 . S
C1065 C1066 1.287 . S
C1066 C1065 1.287 . S
C1066 C1067 1.524 . S
C1066 H1085 0.913 . S
C1067 H1043 0.950 . S
C1067 C1066 1.524 . S
C1067 C1068 1.415 . S
C1068 H1044 0.950 . S
C1068 C1063 1.363 . S
C1068 C1067 1.415 . S
C1069 H1045 0.951 . S
C1069 C1070 1.366 . S
C1069 C1071 1.388 . S
C1070 C1069 1.366 . S
C1070 C1074 1.385 . S
C1071 H1046 0.951 . S
C1071 C1069 1.388 . S
C1071 C1072 1.366 . S
C1072 C1071 1.366 . S
C1072 C1073 1.414 . S
C1072 C1075 1.499 . S
C1073 H1047 0.950 . S
C1073 C1072 1.414 . S
C1073 C1074 1.374 . S
C1074 H1048 0.950 . S
C1074 C1070 1.385 . S
C1074 C1073 1.374 . S
C1075 C1072 1.499 . S
C1075 C1076 1.373 . S
C1075 C1077 1.389 . S
C1076 H1049 0.950 . S
C1076 C1062 1.377 . S
C1076 C1075 1.373 . S
C1077 C1061 1.377 . S
C1077 C1075 1.389 . S
C1077 C1078 1.524 . S
C1078 C1077 1.524 . S
C1078 C1079 1.397 . S
C1078 C1083 1.363 . S
C1079 H1050 0.950 . S
C1079 C1078 1.397 . S
C1079 C1080 1.334 . S
C1080 H1051 0.950 . S
C1080 C1079 1.334 . S
C1080 C1081 1.287 . S
C1081 C1080 1.287 . S
C1081 C1082 1.524 . S
C1081 H1084 0.999 . S
C1082 H1052 0.950 . S
C1082 C1081 1.524 . S
C1082 C1083 1.415 . S
C1083 H1053 0.950 . S
C1083 C1078 1.363 . S
C1083 C1082 1.415 . S
H1084 C1081 0.999 . S
H1085 C1066 0.913 . S
H1086 C1104 0.951 . S
H1087 C1106 0.951 . S
H1088 C1108 0.950 . S
H1089 C1109 0.950 . S
H1090 C1111 0.950 . S
H1091 C1114 0.950 . S
H1092 C1115 0.950 . S
H1093 C1117 0.950 . S
H1094 C1118 0.950 . S
H1095 C1119 0.951 . S
H1096 C1121 0.951 . S
H1097 C1123 0.950 . S
H1098 C1124 0.950 . S
H1099 C1126 0.950 . S
H1100 C1129 0.950 . S
H1101 C1130 0.950 . S
H1102 C1132 0.950 . S
H1103 C1133 0.950 . S
C1104 H1086 0.951 . S
C1104 C1105 1.366 . S
C1104 C1106 1.388 . S
C1105 C1104 1.366 . S
C1105 C1109 1.385 . S
C1106 H1087 0.951 . S
C1106 C1104 1.388 . S
C1106 C1107 1.366 . S
C1107 C1106 1.366 . S
C1107 C1108 1.414 . S
C1107 C1110 1.499 . S
C1108 H1088 0.950 . S
C1108 C1107 1.414 . S
C1108 C1109 1.374 . S
C1109 H1089 0.950 . S
C1109 C1105 1.385 . S
C1109 C1108 1.374 . S
C1110 C1107 1.499 . S
C1110 C1111 1.373 1_565 S
C1110 C1112 1.389 . S
C1111 H1090 0.950 . S
C1111 C1110 1.373 1_545 S
C1111 C1127 1.377 . S
C1112 C1110 1.389 . S
C1112 C1113 1.524 . S
C1112 C1126 1.377 1_565 S
C1113 C1112 1.524 . S
C1113 C1114 1.397 . S
C1113 C1118 1.363 . S
C1114 H1091 0.950 . S
C1114 C1113 1.397 . S
C1114 C1115 1.334 . S
C1115 H1092 0.950 . S
C1115 C1114 1.334 . S
C1115 C1116 1.287 . S
C1116 C1115 1.287 . S
C1116 C1117 1.524 . S
C1116 H1135 0.913 . S
C1117 H1093 0.950 . S
C1117 C1116 1.524 . S
C1117 C1118 1.415 . S
C1118 H1094 0.950 . S
C1118 C1113 1.363 . S
C1118 C1117 1.415 . S
C1119 H1095 0.951 . S
C1119 C1120 1.366 . S
C1119 C1121 1.388 . S
C1120 C1119 1.366 . S
C1120 C1124 1.385 . S
C1121 H1096 0.951 . S
C1121 C1119 1.388 . S
C1121 C1122 1.366 . S
C1122 C1121 1.366 . S
C1122 C1123 1.414 . S
C1122 C1125 1.499 . S
C1123 H1097 0.950 . S
C1123 C1122 1.414 . S
C1123 C1124 1.374 . S
C1124 H1098 0.950 . S
C1124 C1120 1.385 . S
C1124 C1123 1.374 . S
C1125 C1122 1.499 . S
C1125 C1126 1.373 . S
C1125 C1127 1.389 . S
C1126 H1099 0.950 . S
C1126 C1112 1.377 1_545 S
C1126 C1125 1.373 . S
C1127 C1111 1.377 . S
C1127 C1125 1.389 . S
C1127 C1128 1.524 . S
C1128 C1127 1.524 . S
C1128 C1129 1.397 . S
C1128 C1133 1.363 . S
C1129 H1100 0.950 . S
C1129 C1128 1.397 . S
C1129 C1130 1.334 . S
C1130 H1101 0.950 . S
C1130 C1129 1.334 . S
C1130 C1131 1.287 . S
C1131 C1130 1.287 . S
C1131 C1132 1.524 . S
C1131 H1134 0.999 . S
C1132 H1102 0.950 . S
C1132 C1131 1.524 . S
C1132 C1133 1.415 . S
C1133 H1103 0.950 . S
C1133 C1128 1.363 . S
C1133 C1132 1.415 . S
H1134 C1131 0.999 . S
H1135 C1116 0.913 . S
H1136 C1154 0.951 . S
H1137 C1156 0.951 . S
H1138 C1158 0.950 . S
H1139 C1159 0.950 . S
H1140 C1161 0.950 . S
H1141 C1164 0.950 . S
H1142 C1165 0.950 . S
H1143 C1167 0.950 . S
H1144 C1168 0.950 . S
H1145 C1169 0.951 . S
H1146 C1171 0.951 . S
H1147 C1173 0.950 . S
H1148 C1174 0.950 . S
H1149 C1176 0.950 . S
H1150 C1179 0.950 . S
H1151 C1180 0.950 . S
H1152 C1182 0.950 . S
H1153 C1183 0.950 . S
C1154 H1136 0.951 . S
C1154 C1155 1.366 . S
C1154 C1156 1.388 . S
C1155 C1154 1.366 . S
C1155 C1159 1.385 . S
C1156 H1137 0.951 . S
C1156 C1154 1.388 . S
C1156 C1157 1.366 . S
C1157 C1156 1.366 . S
C1157 C1158 1.414 . S
C1157 C1160 1.499 . S
C1158 H1138 0.950 . S
C1158 C1157 1.414 . S
C1158 C1159 1.374 . S
C1159 H1139 0.950 . S
C1159 C1155 1.385 . S
C1159 C1158 1.374 . S
C1160 C1157 1.499 . S
C1160 C1161 1.373 . S
C1160 C1162 1.389 . S
C1161 H1140 0.950 . S
C1161 C1160 1.373 . S
C1161 C1177 1.377 . S
C1162 C1160 1.389 . S
C1162 C1163 1.524 . S
C1162 C1176 1.377 . S
C1163 C1162 1.524 . S
C1163 C1164 1.397 . S
C1163 C1168 1.363 . S
C1164 H1141 0.950 . S
C1164 C1163 1.397 . S
C1164 C1165 1.334 . S
C1165 H1142 0.950 . S
C1165 C1164 1.334 . S
C1165 C1166 1.287 . S
C1166 C1165 1.287 . S
C1166 C1167 1.524 . S
C1166 H1185 0.913 . S
C1167 H1143 0.950 . S
C1167 C1166 1.524 . S
C1167 C1168 1.415 . S
C1168 H1144 0.950 . S
C1168 C1163 1.363 . S
C1168 C1167 1.415 . S
C1169 H1145 0.951 . S
C1169 C1170 1.366 . S
C1169 C1171 1.388 . S
C1170 C1169 1.366 . S
C1170 C1174 1.385 . S
C1171 H1146 0.951 . S
C1171 C1169 1.388 . S
C1171 C1172 1.366 . S
C1172 C1171 1.366 . S
C1172 C1173 1.414 . S
C1172 C1175 1.499 . S
C1173 H1147 0.950 . S
C1173 C1172 1.414 . S
C1173 C1174 1.374 . S
C1174 H1148 0.950 . S
C1174 C1170 1.385 . S
C1174 C1173 1.374 . S
C1175 C1172 1.499 . S
C1175 C1176 1.373 . S
C1175 C1177 1.389 . S
C1176 H1149 0.950 . S
C1176 C1162 1.377 . S
C1176 C1175 1.373 . S
C1177 C1161 1.377 . S
C1177 C1175 1.389 . S
C1177 C1178 1.524 . S
C1178 C1177 1.524 . S
C1178 C1179 1.397 . S
C1178 C1183 1.363 . S
C1179 H1150 0.950 . S
C1179 C1178 1.397 . S
C1179 C1180 1.334 . S
C1180 H1151 0.950 . S
C1180 C1179 1.334 . S
C1180 C1181 1.287 . S
C1181 C1180 1.287 . S
C1181 C1182 1.524 . S
C1181 H1184 0.999 . S
C1182 H1152 0.950 . S
C1182 C1181 1.524 . S
C1182 C1183 1.415 . S
C1183 H1153 0.950 . S
C1183 C1178 1.363 . S
C1183 C1182 1.415 . S
H1184 C1181 0.999 . S
H1185 C1166 0.913 . S
H1186 C1204 0.951 . S
H1187 C1206 0.951 . S
H1188 C1208 0.950 . S
H1189 C1209 0.950 . S
H1190 C1211 0.950 . S
H1191 C1214 0.950 . S
H1192 C1215 0.950 . S
H1193 C1217 0.950 . S
H1194 C1218 0.950 . S
H1195 C1219 0.951 . S
H1196 C1221 0.951 . S
H1197 C1223 0.950 . S
H1198 C1224 0.950 . S
H1199 C1226 0.950 . S
H1200 C1229 0.950 . S
H1201 C1230 0.950 . S
H1202 C1232 0.950 . S
H1203 C1233 0.950 . S
C1204 H1186 0.951 . S
C1204 C1205 1.366 . S
C1204 C1206 1.388 . S
C1205 C1204 1.366 . S
C1205 C1209 1.385 . S
C1206 H1187 0.951 . S
C1206 C1204 1.388 . S
C1206 C1207 1.366 . S
C1207 C1206 1.366 . S
C1207 C1208 1.414 . S
C1207 C1210 1.499 . S
C1208 H1188 0.950 . S
C1208 C1207 1.414 . S
C1208 C1209 1.374 . S
C1209 H1189 0.950 . S
C1209 C1205 1.385 . S
C1209 C1208 1.374 . S
C1210 C1207 1.499 . S
C1210 C1211 1.373 1_545 S
C1210 C1212 1.389 . S
C1211 H1190 0.950 . S
C1211 C1210 1.373 1_565 S
C1211 C1227 1.377 . S
C1212 C1210 1.389 . S
C1212 C1213 1.524 . S
C1212 C1226 1.377 1_545 S
C1213 C1212 1.524 . S
C1213 C1214 1.397 . S
C1213 C1218 1.363 . S
C1214 H1191 0.950 . S
C1214 C1213 1.397 . S
C1214 C1215 1.334 . S
C1215 H1192 0.950 . S
C1215 C1214 1.334 . S
C1215 C1216 1.287 . S
C1216 C1215 1.287 . S
C1216 C1217 1.524 . S
C1216 H1235 0.913 . S
C1217 H1193 0.950 . S
C1217 C1216 1.524 . S
C1217 C1218 1.415 . S
C1218 H1194 0.950 . S
C1218 C1213 1.363 . S
C1218 C1217 1.415 . S
C1219 H1195 0.951 . S
C1219 C1220 1.366 . S
C1219 C1221 1.388 . S
C1220 C1219 1.366 . S
C1220 C1224 1.385 . S
C1221 H1196 0.951 . S
C1221 C1219 1.388 . S
C1221 C1222 1.366 . S
C1222 C1221 1.366 . S
C1222 C1223 1.414 . S
C1222 C1225 1.499 . S
C1223 H1197 0.950 . S
C1223 C1222 1.414 . S
C1223 C1224 1.374 . S
C1224 H1198 0.950 . S
C1224 C1220 1.385 . S
C1224 C1223 1.374 . S
C1225 C1222 1.499 . S
C1225 C1226 1.373 . S
C1225 C1227 1.389 . S
C1226 H1199 0.950 . S
C1226 C1212 1.377 1_565 S
C1226 C1225 1.373 . S
C1227 C1211 1.377 . S
C1227 C1225 1.389 . S
C1227 C1228 1.524 . S
C1228 C1227 1.524 . S
C1228 C1229 1.397 . S
C1228 C1233 1.363 . S
C1229 H1200 0.950 . S
C1229 C1228 1.397 . S
C1229 C1230 1.334 . S
C1230 H1201 0.950 . S
C1230 C1229 1.334 . S
C1230 C1231 1.287 . S
C1231 C1230 1.287 . S
C1231 C1232 1.524 . S
C1231 H1234 0.999 . S
C1232 H1202 0.950 . S
C1232 C1231 1.524 . S
C1232 C1233 1.415 . S
C1233 H1203 0.950 . S
C1233 C1228 1.363 . S
C1233 C1232 1.415 . S
H1234 C1231 0.999 . S
H1235 C1216 0.913 . S
H1236 C1254 0.951 . S
H1237 C1256 0.951 . S
H1238 C1258 0.950 . S
H1239 C1259 0.950 . S
H1240 C1261 0.950 . S
H1241 C1264 0.950 . S
H1242 C1265 0.950 1_565 S
H1243 C1267 0.950 . S
H1244 C1268 0.950 . S
H1245 C1269 0.951 . S
H1246 C1271 0.951 . S
H1247 C1273 0.950 . S
H1248 C1274 0.950 . S
H1249 C1276 0.950 . S
H1250 C1279 0.950 . S
H1251 C1280 0.950 . S
H1252 C1282 0.950 . S
H1253 C1283 0.950 . S
C1254 H1236 0.951 . S
C1254 C1255 1.366 . S
C1254 C1256 1.388 . S
C1255 C1254 1.366 . S
C1255 C1259 1.385 . S
C1256 H1237 0.951 . S
C1256 C1254 1.388 . S
C1256 C1257 1.366 . S
C1257 C1256 1.366 . S
C1257 C1258 1.414 . S
C1257 C1260 1.499 . S
C1258 H1238 0.950 . S
C1258 C1257 1.414 . S
C1258 C1259 1.374 . S
C1259 H1239 0.950 . S
C1259 C1255 1.385 . S
C1259 C1258 1.374 . S
C1260 C1257 1.499 . S
C1260 C1261 1.373 . S
C1260 C1262 1.389 . S
C1261 H1240 0.950 . S
C1261 C1260 1.373 . S
C1261 C1277 1.377 . S
C1262 C1260 1.389 . S
C1262 C1263 1.524 . S
C1262 C1276 1.377 . S
C1263 C1262 1.524 . S
C1263 C1264 1.397 . S
C1263 C1268 1.363 . S
C1264 H1241 0.950 . S
C1264 C1263 1.397 . S
C1264 C1265 1.334 . S
C1265 H1242 0.950 1_545 S
C1265 C1264 1.334 . S
C1265 C1266 1.287 . S
C1266 C1265 1.287 . S
C1266 C1267 1.524 . S
C1266 H1285 0.913 1_545 S
C1267 H1243 0.950 . S
C1267 C1266 1.524 . S
C1267 C1268 1.415 . S
C1268 H1244 0.950 . S
C1268 C1263 1.363 . S
C1268 C1267 1.415 . S
C1269 H1245 0.951 . S
C1269 C1270 1.366 . S
C1269 C1271 1.388 . S
C1270 C1269 1.366 . S
C1270 C1274 1.385 . S
C1271 H1246 0.951 . S
C1271 C1269 1.388 . S
C1271 C1272 1.366 . S
C1272 C1271 1.366 . S
C1272 C1273 1.414 . S
C1272 C1275 1.499 . S
C1273 H1247 0.950 . S
C1273 C1272 1.414 . S
C1273 C1274 1.374 . S
C1274 H1248 0.950 . S
C1274 C1270 1.385 . S
C1274 C1273 1.374 . S
C1275 C1272 1.499 . S
C1275 C1276 1.373 . S
C1275 C1277 1.389 . S
C1276 H1249 0.950 . S
C1276 C1262 1.377 . S
C1276 C1275 1.373 . S
C1277 C1261 1.377 . S
C1277 C1275 1.389 . S
C1277 C1278 1.524 . S
C1278 C1277 1.524 . S
C1278 C1279 1.397 . S
C1278 C1283 1.363 . S
C1279 H1250 0.950 . S
C1279 C1278 1.397 . S
C1279 C1280 1.334 . S
C1280 H1251 0.950 . S
C1280 C1279 1.334 . S
C1280 C1281 1.287 . S
C1281 C1280 1.287 . S
C1281 C1282 1.524 . S
C1281 H1284 0.999 . S
C1282 H1252 0.950 . S
C1282 C1281 1.524 . S
C1282 C1283 1.415 . S
C1283 H1253 0.950 . S
C1283 C1278 1.363 . S
C1283 C1282 1.415 . S
H1284 C1281 0.999 . S
H1285 C1266 0.913 1_565 S
H1286 C1304 0.951 . S
H1287 C1306 0.951 . S
H1288 C1308 0.950 . S
H1289 C1309 0.950 . S
H1290 C1311 0.950 . S
H1291 C1314 0.950 . S
H1292 C1315 0.950 . S
H1293 C1317 0.950 . S
H1294 C1318 0.950 . S
H1295 C1319 0.951 . S
H1296 C1321 0.951 . S
H1297 C1323 0.950 . S
H1298 C1324 0.950 . S
H1299 C1326 0.950 . S
H1300 C1329 0.950 . S
H1301 C1330 0.950 . S
H1302 C1332 0.950 . S
H1303 C1333 0.948 1_565 S
C1304 H1286 0.951 . S
C1304 C1305 1.366 . S
C1304 C1306 1.388 . S
C1305 C1304 1.366 . S
C1305 C1309 1.385 . S
C1306 H1287 0.951 . S
C1306 C1304 1.388 . S
C1306 C1307 1.366 . S
C1307 C1306 1.366 . S
C1307 C1308 1.414 . S
C1307 C1310 1.499 . S
C1308 H1288 0.950 . S
C1308 C1307 1.414 . S
C1308 C1309 1.374 . S
C1309 H1289 0.950 . S
C1309 C1305 1.385 . S
C1309 C1308 1.374 . S
C1310 C1307 1.499 . S
C1310 C1311 1.373 . S
C1310 C1312 1.389 1_565 S
C1311 H1290 0.950 . S
C1311 C1310 1.373 . S
C1311 C1327 1.377 1_565 S
C1312 C1310 1.389 1_545 S
C1312 C1313 1.524 . S
C1312 C1326 1.377 . S
C1313 C1312 1.524 . S
C1313 C1314 1.397 . S
C1313 C1318 1.363 . S
C1314 H1291 0.950 . S
C1314 C1313 1.397 . S
C1314 C1315 1.334 . S
C1315 H1292 0.950 . S
C1315 C1314 1.334 . S
C1315 C1316 1.287 . S
C1316 C1315 1.287 . S
C1316 C1317 1.524 . S
C1316 H1335 0.913 . S
C1317 H1293 0.950 . S
C1317 C1316 1.524 . S
C1317 C1318 1.415 . S
C1318 H1294 0.950 . S
C1318 C1313 1.363 . S
C1318 C1317 1.415 . S
C1319 H1295 0.951 . S
C1319 C1320 1.366 . S
C1319 C1321 1.388 . S
C1320 C1319 1.366 . S
C1320 C1324 1.385 . S
C1321 H1296 0.951 . S
C1321 C1319 1.388 . S
C1321 C1322 1.366 . S
C1322 C1321 1.366 . S
C1322 C1323 1.414 . S
C1322 C1325 1.499 . S
C1323 H1297 0.950 . S
C1323 C1322 1.414 . S
C1323 C1324 1.374 . S
C1324 H1298 0.950 . S
C1324 C1320 1.385 . S
C1324 C1323 1.374 . S
C1325 C1322 1.499 . S
C1325 C1326 1.373 . S
C1325 C1327 1.389 . S
C1326 H1299 0.950 . S
C1326 C1312 1.377 . S
C1326 C1325 1.373 . S
C1327 C1311 1.377 1_545 S
C1327 C1325 1.389 . S
C1327 C1328 1.524 . S
C1328 C1327 1.524 . S
C1328 C1329 1.397 . S
C1328 C1333 1.369 . S
C1329 H1300 0.950 . S
C1329 C1328 1.397 . S
C1329 C1330 1.334 . S
C1330 H1301 0.950 . S
C1330 C1329 1.334 . S
C1330 C1331 1.285 1_545 S
C1331 C1330 1.285 1_565 S
C1331 C1332 1.525 . S
C1331 H1334 1.000 . S
C1332 H1302 0.950 . S
C1332 C1331 1.525 . S
C1332 C1333 1.411 1_565 S
C1333 H1303 0.948 1_545 S
C1333 C1328 1.369 . S
C1333 C1332 1.411 1_545 S
H1334 C1331 1.000 . S
H1335 C1316 0.913 . S
H1336 C1354 0.951 . S
H1337 C1356 0.951 . S
H1338 C1358 0.950 . S
H1339 C1359 0.950 . S
H1340 C1361 0.950 . S
H1341 C1364 0.950 . S
H1342 C1365 0.950 . S
H1343 C1367 0.950 . S
H1344 C1368 0.950 . S
H1345 C1369 0.951 . S
H1346 C1371 0.951 . S
H1347 C1373 0.950 . S
H1348 C1374 0.950 . S
H1349 C1376 0.950 . S
H1350 C1379 0.950 . S
H1351 C1380 0.950 . S
H1352 C1382 0.950 . S
H1353 C1383 0.950 . S
C1354 H1336 0.951 . S
C1354 C1355 1.366 . S
C1354 C1356 1.388 . S
C1355 C1354 1.366 . S
C1355 C1359 1.385 . S
C1356 H1337 0.951 . S
C1356 C1354 1.388 . S
C1356 C1357 1.366 . S
C1357 C1356 1.366 . S
C1357 C1358 1.414 . S
C1357 C1360 1.499 . S
C1358 H1338 0.950 . S
C1358 C1357 1.414 . S
C1358 C1359 1.374 . S
C1359 H1339 0.950 . S
C1359 C1355 1.385 . S
C1359 C1358 1.374 . S
C1360 C1357 1.499 . S
C1360 C1361 1.373 . S
C1360 C1362 1.389 . S
C1361 H1340 0.950 . S
C1361 C1360 1.373 . S
C1361 C1377 1.377 . S
C1362 C1360 1.389 . S
C1362 C1363 1.524 . S
C1362 C1376 1.377 . S
C1363 C1362 1.524 . S
C1363 C1364 1.397 . S
C1363 C1368 1.363 . S
C1364 H1341 0.950 . S
C1364 C1363 1.397 . S
C1364 C1365 1.334 . S
C1365 H1342 0.950 . S
C1365 C1364 1.334 . S
C1365 C1366 1.287 . S
C1366 C1365 1.287 . S
C1366 C1367 1.524 . S
C1366 H1385 0.913 . S
C1367 H1343 0.950 . S
C1367 C1366 1.524 . S
C1367 C1368 1.415 . S
C1368 H1344 0.950 . S
C1368 C1363 1.363 . S
C1368 C1367 1.415 . S
C1369 H1345 0.951 . S
C1369 C1370 1.366 . S
C1369 C1371 1.388 . S
C1370 C1369 1.366 . S
C1370 C1374 1.385 . S
C1371 H1346 0.951 . S
C1371 C1369 1.388 . S
C1371 C1372 1.366 . S
C1372 C1371 1.366 . S
C1372 C1373 1.414 . S
C1372 C1375 1.499 . S
C1373 H1347 0.950 . S
C1373 C1372 1.414 . S
C1373 C1374 1.374 . S
C1374 H1348 0.950 . S
C1374 C1370 1.385 . S
C1374 C1373 1.374 . S
C1375 C1372 1.499 . S
C1375 C1376 1.373 . S
C1375 C1377 1.389 . S
C1376 H1349 0.950 . S
C1376 C1362 1.377 . S
C1376 C1375 1.373 . S
C1377 C1361 1.377 . S
C1377 C1375 1.389 . S
C1377 C1378 1.524 . S
C1378 C1377 1.524 . S
C1378 C1379 1.397 . S
C1378 C1383 1.363 . S
C1379 H1350 0.950 . S
C1379 C1378 1.397 . S
C1379 C1380 1.334 . S
C1380 H1351 0.950 . S
C1380 C1379 1.334 . S
C1380 C1381 1.287 . S
C1381 C1380 1.287 . S
C1381 C1382 1.524 . S
C1381 H1384 0.999 1_565 S
C1382 H1352 0.950 . S
C1382 C1381 1.524 . S
C1382 C1383 1.415 . S
C1383 H1353 0.950 . S
C1383 C1378 1.363 . S
C1383 C1382 1.415 . S
H1384 C1381 0.999 1_545 S
H1385 C1366 0.913 . S
H1386 C1404 0.951 . S
H1387 C1406 0.951 . S
H1388 C1408 0.950 . S
H1389 C1409 0.950 . S
H1390 C1411 0.950 . S
H1391 C1414 0.950 . S
H1392 C1415 0.950 . S
H1393 C1417 0.950 . S
H1394 C1418 0.950 . S
H1395 C1419 0.951 . S
H1396 C1421 0.951 . S
H1397 C1423 0.950 . S
H1398 C1424 0.950 . S
H1399 C1426 0.949 1_545 S
H1400 C1429 0.950 . S
H1401 C1430 0.950 . S
H1402 C1432 0.950 . S
H1403 C1433 0.950 . S
C1404 H1386 0.951 . S
C1404 C1405 1.366 . S
C1404 C1406 1.388 . S
C1405 C1404 1.366 . S
C1405 C1409 1.385 . S
C1406 H1387 0.951 . S
C1406 C1404 1.388 . S
C1406 C1407 1.366 . S
C1407 C1406 1.366 . S
C1407 C1408 1.414 . S
C1407 C1410 1.499 . S
C1408 H1388 0.950 . S
C1408 C1407 1.414 . S
C1408 C1409 1.374 . S
C1409 H1389 0.950 . S
C1409 C1405 1.385 . S
C1409 C1408 1.374 . S
C1410 C1407 1.499 . S
C1410 C1411 1.373 1_545 S
C1410 C1412 1.389 . S
C1411 H1390 0.950 . S
C1411 C1410 1.373 1_565 S
C1411 C1427 1.377 . S
C1412 C1410 1.389 . S
C1412 C1413 1.524 . S
C1412 C1426 1.363 1_545 S
C1413 C1412 1.524 . S
C1413 C1414 1.397 . S
C1413 C1418 1.363 . S
C1414 H1391 0.950 . S
C1414 C1413 1.397 . S
C1414 C1415 1.334 . S
C1415 H1392 0.950 . S
C1415 C1414 1.334 . S
C1415 C1416 1.287 . S
C1416 C1415 1.287 . S
C1416 C1417 1.524 . S
C1416 H1435 0.913 . S
C1417 H1393 0.950 . S
C1417 C1416 1.524 . S
C1417 C1418 1.415 . S
C1418 H1394 0.950 . S
C1418 C1413 1.363 . S
C1418 C1417 1.415 . S
C1419 H1395 0.951 . S
C1419 C1420 1.366 . S
C1419 C1421 1.388 . S
C1420 C1419 1.366 . S
C1420 C1424 1.385 . S
C1421 H1396 0.951 . S
C1421 C1419 1.388 . S
C1421 C1422 1.366 . S
C1422 C1421 1.366 . S
C1422 C1423 1.414 . S
C1422 C1425 1.499 . S
C1423 H1397 0.950 . S
C1423 C1422 1.414 . S
C1423 C1424 1.374 . S
C1424 H1398 0.950 . S
C1424 C1420 1.385 . S
C1424 C1423 1.374 . S
C1425 C1422 1.499 . S
C1425 C1426 1.388 . S
C1425 C1427 1.389 . S
C1426 H1399 0.949 1_565 S
C1426 C1412 1.363 1_565 S
C1426 C1425 1.388 . S
C1427 C1411 1.377 . S
C1427 C1425 1.389 . S
C1427 C1428 1.524 . S
C1428 C1427 1.524 . S
C1428 C1429 1.397 . S
C1428 C1433 1.363 . S
C1429 H1400 0.950 . S
C1429 C1428 1.397 . S
C1429 C1430 1.334 . S
C1430 H1401 0.950 . S
C1430 C1429 1.334 . S
C1430 C1431 1.287 . S
C1431 C1430 1.287 . S
C1431 C1432 1.524 . S
C1431 H1434 0.999 . S
C1432 H1402 0.950 . S
C1432 C1431 1.524 . S
C1432 C1433 1.415 . S
C1433 H1403 0.950 . S
C1433 C1428 1.363 . S
C1433 C1432 1.415 . S
H1434 C1431 0.999 . S
H1435 C1416 0.913 . S
H1436 C1454 0.951 . S
H1437 C1456 0.951 . S
H1438 C1458 0.950 . S
H1439 C1459 0.950 . S
H1440 C1461 0.950 . S
H1441 C1464 0.950 . S
H1442 C1465 0.950 . S
H1443 C1467 0.950 1_565 S
H1444 C1468 0.950 . S
H1445 C1469 0.951 . S
H1446 C1471 0.951 . S
H1447 C1473 0.950 . S
H1448 C1474 0.950 . S
H1449 C1476 0.950 . S
H1450 C1479 0.950 . S
H1451 C1480 0.950 . S
H1452 C1482 0.950 . S
H1453 C1483 0.950 . S
C1454 H1436 0.951 . S
C1454 C1455 1.366 . S
C1454 C1456 1.388 . S
C1455 C1454 1.366 . S
C1455 C1459 1.385 . S
C1456 H1437 0.951 . S
C1456 C1454 1.388 . S
C1456 C1457 1.366 . S
C1457 C1456 1.366 . S
C1457 C1458 1.414 . S
C1457 C1460 1.499 . S
C1458 H1438 0.950 . S
C1458 C1457 1.414 . S
C1458 C1459 1.374 . S
C1459 H1439 0.950 . S
C1459 C1455 1.385 . S
C1459 C1458 1.374 . S
C1460 C1457 1.499 . S
C1460 C1461 1.373 . S
C1460 C1462 1.389 . S
C1461 H1440 0.950 . S
C1461 C1460 1.373 . S
C1461 C1477 1.377 . S
C1462 C1460 1.389 . S
C1462 C1463 1.524 . S
C1462 C1476 1.377 . S
C1463 C1462 1.524 . S
C1463 C1464 1.397 . S
C1463 C1468 1.363 . S
C1464 H1441 0.950 . S
C1464 C1463 1.397 . S
C1464 C1465 1.334 . S
C1465 H1442 0.950 . S
C1465 C1464 1.334 . S
C1465 C1466 1.287 . S
C1466 C1465 1.287 . S
C1466 C1467 1.524 . S
C1466 H1485 0.913 1_545 S
C1467 H1443 0.950 1_545 S
C1467 C1466 1.524 . S
C1467 C1468 1.415 . S
C1468 H1444 0.950 . S
C1468 C1463 1.363 . S
C1468 C1467 1.415 . S
C1469 H1445 0.951 . S
C1469 C1470 1.366 . S
C1469 C1471 1.388 . S
C1470 C1469 1.366 . S
C1470 C1474 1.385 . S
C1471 H1446 0.951 . S
C1471 C1469 1.388 . S
C1471 C1472 1.366 . S
C1472 C1471 1.366 . S
C1472 C1473 1.414 . S
C1472 C1475 1.499 . S
C1473 H1447 0.950 . S
C1473 C1472 1.414 . S
C1473 C1474 1.374 . S
C1474 H1448 0.950 . S
C1474 C1470 1.385 . S
C1474 C1473 1.374 . S
C1475 C1472 1.499 . S
C1475 C1476 1.373 . S
C1475 C1477 1.389 . S
C1476 H1449 0.950 . S
C1476 C1462 1.377 . S
C1476 C1475 1.373 . S
C1477 C1461 1.377 . S
C1477 C1475 1.389 . S
C1477 C1478 1.524 . S
C1478 C1477 1.524 . S
C1478 C1479 1.397 . S
C1478 C1483 1.363 . S
C1479 H1450 0.950 . S
C1479 C1478 1.397 . S
C1479 C1480 1.334 . S
C1480 H1451 0.950 . S
C1480 C1479 1.334 . S
C1480 C1481 1.287 . S
C1481 C1480 1.287 . S
C1481 C1482 1.524 . S
C1481 H1484 0.999 . S
C1482 H1452 0.950 . S
C1482 C1481 1.524 . S
C1482 C1483 1.415 . S
C1483 H1453 0.950 . S
C1483 C1478 1.363 . S
C1483 C1482 1.415 . S
H1484 C1481 0.999 . S
H1485 C1466 0.913 1_565 S
H1486 C1504 0.951 . S
H1487 C1506 0.951 . S
H1488 C1508 0.950 . S
H1489 C1509 0.950 1_545 S
H1490 C1511 0.950 . S
H1491 C1514 0.949 1_545 S
H1492 C1515 0.950 . S
H1493 C1517 0.950 . S
H1494 C1518 0.950 . S
H1495 C1519 0.951 . S
H1496 C1521 0.951 . S
H1497 C1523 0.950 . S
H1498 C1524 0.950 . S
H1499 C1526 0.950 . S
H1500 C1529 0.950 . S
H1501 C1530 0.950 . S
H1502 C1532 0.950 . S
H1503 C1533 0.950 . S
C1504 H1486 0.951 . S
C1504 C1505 1.366 1_565 S
C1504 C1506 1.388 . S
C1505 C1504 1.366 1_545 S
C1505 C1509 1.385 1_545 S
C1506 H1487 0.951 . S
C1506 C1504 1.388 . S
C1506 C1507 1.366 . S
C1507 C1506 1.366 . S
C1507 C1508 1.414 . S
C1507 C1510 1.499 . S
C1508 H1488 0.950 . S
C1508 C1507 1.414 . S
C1508 C1509 1.374 . S
C1509 H1489 0.950 1_565 S
C1509 C1505 1.385 1_565 S
C1509 C1508 1.374 . S
C1510 C1507 1.499 . S
C1510 C1511 1.373 . S
C1510 C1512 1.389 . S
C1511 H1490 0.950 . S
C1511 C1510 1.373 . S
C1511 C1527 1.377 . S
C1512 C1510 1.389 . S
C1512 C1513 1.524 . S
C1512 C1526 1.377 . S
C1513 C1512 1.524 . S
C1513 C1514 1.398 . S
C1513 C1518 1.363 . S
C1514 H1491 0.949 1_565 S
C1514 C1513 1.398 . S
C1514 C1515 1.333 1_565 S
C1515 H1492 0.950 . S
C1515 C1514 1.333 1_545 S
C1515 C1516 1.287 . S
C1516 C1515 1.287 . S
C1516 C1517 1.524 1_545 S
C1516 H1535 0.913 . S
C1517 H1493 0.950 . S
C1517 C1516 1.524 1_565 S
C1517 C1518 1.415 . S
C1518 H1494 0.950 . S
C1518 C1513 1.363 . S
C1518 C1517 1.415 . S
C1519 H1495 0.951 . S
C1519 C1520 1.366 . S
C1519 C1521 1.388 . S
C1520 C1519 1.366 . S
C1520 C1524 1.385 . S
C1521 H1496 0.951 . S
C1521 C1519 1.388 . S
C1521 C1522 1.366 . S
C1522 C1521 1.366 . S
C1522 C1523 1.414 . S
C1522 C1525 1.499 . S
C1523 H1497 0.950 . S
C1523 C1522 1.414 . S
C1523 C1524 1.374 . S
C1524 H1498 0.950 . S
C1524 C1520 1.385 . S
C1524 C1523 1.374 . S
C1525 C1522 1.499 . S
C1525 C1526 1.373 . S
C1525 C1527 1.389 . S
C1526 H1499 0.950 . S
C1526 C1512 1.377 . S
C1526 C1525 1.373 . S
C1527 C1511 1.377 . S
C1527 C1525 1.389 . S
C1527 C1528 1.524 . S
C1528 C1527 1.524 . S
C1528 C1529 1.397 . S
C1528 C1533 1.363 . S
C1529 H1500 0.950 . S
C1529 C1528 1.397 . S
C1529 C1530 1.334 . S
C1530 H1501 0.950 . S
C1530 C1529 1.334 . S
C1530 C1531 1.287 . S
C1531 C1530 1.287 . S
C1531 C1532 1.524 . S
C1531 H1534 0.999 . S
C1532 H1502 0.950 . S
C1532 C1531 1.524 . S
C1532 C1533 1.415 . S
C1533 H1503 0.950 . S
C1533 C1528 1.363 . S
C1533 C1532 1.415 . S
H1534 C1531 0.999 . S
H1535 C1516 0.913 . S
H1536 C1554 0.951 . S
H1537 C1556 0.951 . S
H1538 C1558 0.950 . S
H1539 C1559 0.950 . S
H1540 C1561 0.950 . S
H1541 C1564 0.950 . S
H1542 C1565 0.950 . S
H1543 C1567 0.950 1_455 S
H1544 C1568 0.950 . S
H1545 C1569 0.951 . S
H1546 C1571 0.951 . S
H1547 C1573 0.950 . S
H1548 C1574 0.950 . S
H1549 C1576 0.950 . S
H1550 C1579 0.950 . S
H1551 C1580 0.950 . S
H1552 C1582 0.950 . S
H1553 C1583 0.950 . S
C1554 H1536 0.951 . S
C1554 C1555 1.366 . S
C1554 C1556 1.388 . S
C1555 C1554 1.366 . S
C1555 C1559 1.385 . S
C1556 H1537 0.951 . S
C1556 C1554 1.388 . S
C1556 C1557 1.366 . S
C1557 C1556 1.366 . S
C1557 C1558 1.414 . S
C1557 C1560 1.499 . S
C1558 H1538 0.950 . S
C1558 C1557 1.414 . S
C1558 C1559 1.374 . S
C1559 H1539 0.950 . S
C1559 C1555 1.385 . S
C1559 C1558 1.374 . S
C1560 C1557 1.499 . S
C1560 C1561 1.373 . S
C1560 C1562 1.389 . S
C1561 H1540 0.950 . S
C1561 C1560 1.373 . S
C1561 C1577 1.377 . S
C1562 C1560 1.389 . S
C1562 C1563 1.524 . S
C1562 C1576 1.377 . S
C1563 C1562 1.524 . S
C1563 C1564 1.397 . S
C1563 C1568 1.363 . S
C1564 H1541 0.950 . S
C1564 C1563 1.397 . S
C1564 C1565 1.334 . S
C1565 H1542 0.950 . S
C1565 C1564 1.334 . S
C1565 C1566 1.287 . S
C1566 C1565 1.287 . S
C1566 C1567 1.524 . S
C1566 H1585 0.913 . S
C1567 H1543 0.950 1_655 S
C1567 C1566 1.524 . S
C1567 C1568 1.415 . S
C1568 H1544 0.950 . S
C1568 C1563 1.363 . S
C1568 C1567 1.415 . S
C1569 H1545 0.951 . S
C1569 C1570 1.366 1_655 S
C1569 C1571 1.388 . S
C1570 C1569 1.366 1_455 S
C1570 C1574 1.385 . S
C1571 H1546 0.951 . S
C1571 C1569 1.388 . S
C1571 C1572 1.366 . S
C1572 C1571 1.366 . S
C1572 C1573 1.414 1_655 S
C1572 C1575 1.499 . S
C1573 H1547 0.950 . S
C1573 C1572 1.414 1_455 S
C1573 C1574 1.374 . S
C1574 H1548 0.950 . S
C1574 C1570 1.385 . S
C1574 C1573 1.374 . S
C1575 C1572 1.499 . S
C1575 C1576 1.373 . S
C1575 C1577 1.389 . S
C1576 H1549 0.950 . S
C1576 C1562 1.377 . S
C1576 C1575 1.373 . S
C1577 C1561 1.377 . S
C1577 C1575 1.389 . S
C1577 C1578 1.524 . S
C1578 C1577 1.524 . S
C1578 C1579 1.397 . S
C1578 C1583 1.363 . S
C1579 H1550 0.950 . S
C1579 C1578 1.397 . S
C1579 C1580 1.334 . S
C1580 H1551 0.950 . S
C1580 C1579 1.334 . S
C1580 C1581 1.287 . S
C1581 C1580 1.287 . S
C1581 C1582 1.524 . S
C1581 H1584 0.999 . S
C1582 H1552 0.950 . S
C1582 C1581 1.524 . S
C1582 C1583 1.415 . S
C1583 H1553 0.950 . S
C1583 C1578 1.363 . S
C1583 C1582 1.415 . S
H1584 C1581 0.999 . S
H1585 C1566 0.913 . S
H1586 C1604 0.951 . S
H1587 C1606 0.951 . S
H1588 C1608 0.950 . S
H1589 C1609 0.950 1_565 S
H1590 C1611 0.950 . S
H1591 C1614 0.950 . S
H1592 C1615 0.950 . S
H1593 C1617 0.950 . S
H1594 C1618 0.950 . S
H1595 C1619 0.951 . S
H1596 C1621 0.951 . S
H1597 C1623 0.950 . S
H1598 C1624 0.950 . S
H1599 C1626 0.950 1_455 S
H1600 C1629 0.950 . S
H1601 C1630 0.950 . S
H1602 C1632 0.950 . S
H1603 C1633 0.950 . S
C1604 H1586 0.951 . S
C1604 C1605 1.366 . S
C1604 C1606 1.388 . S
C1605 C1604 1.366 . S
C1605 C1609 1.385 . S
C1606 H1587 0.951 . S
C1606 C1604 1.388 . S
C1606 C1607 1.366 . S
C1607 C1606 1.366 . S
C1607 C1608 1.414 . S
C1607 C1610 1.499 . S
C1608 H1588 0.950 . S
C1608 C1607 1.414 . S
C1608 C1609 1.374 . S
C1609 H1589 0.950 1_545 S
C1609 C1605 1.385 . S
C1609 C1608 1.374 . S
C1610 C1607 1.499 . S
C1610 C1611 1.373 . S
C1610 C1612 1.389 . S
C1611 H1590 0.950 . S
C1611 C1610 1.373 . S
C1611 C1627 1.377 . S
C1612 C1610 1.389 . S
C1612 C1613 1.524 1_655 S
C1612 C1626 1.377 . S
C1613 C1612 1.524 1_455 S
C1613 C1614 1.397 1_455 S
C1613 C1618 1.363 . S
C1614 H1591 0.950 . S
C1614 C1613 1.397 1_655 S
C1614 C1615 1.334 1_645 S
C1615 H1592 0.950 . S
C1615 C1614 1.334 1_465 S
C1615 C1616 1.287 1_565 S
C1616 C1615 1.287 1_545 S
C1616 C1617 1.522 . S
C1616 H1635 0.914 1_545 S
C1617 H1593 0.950 . S
C1617 C1616 1.522 . S
C1617 C1618 1.415 . S
C1618 H1594 0.950 . S
C1618 C1613 1.363 . S
C1618 C1617 1.415 . S
C1619 H1595 0.951 . S
C1619 C1620 1.366 1_655 S
C1619 C1621 1.388 . S
C1620 C1619 1.366 1_455 S
C1620 C1624 1.385 . S
C1621 H1596 0.951 . S
C1621 C1619 1.388 . S
C1621 C1622 1.366 . S
C1622 C1621 1.366 . S
C1622 C1623 1.414 1_655 S
C1622 C1625 1.499 . S
C1623 H1597 0.950 . S
C1623 C1622 1.414 1_455 S
C1623 C1624 1.374 . S
C1624 H1598 0.950 . S
C1624 C1620 1.385 . S
C1624 C1623 1.374 . S
C1625 C1622 1.499 . S
C1625 C1626 1.373 . S
C1625 C1627 1.389 . S
C1626 H1599 0.950 1_655 S
C1626 C1612 1.377 . S
C1626 C1625 1.373 . S
C1627 C1611 1.377 . S
C1627 C1625 1.389 . S
C1627 C1628 1.524 . S
C1628 C1627 1.524 . S
C1628 C1629 1.397 . S
C1628 C1633 1.363 . S
C1629 H1600 0.950 . S
C1629 C1628 1.397 . S
C1629 C1630 1.334 . S
C1630 H1601 0.950 . S
C1630 C1629 1.334 . S
C1630 C1631 1.287 . S
C1631 C1630 1.287 . S
C1631 C1632 1.524 . S
C1631 H1634 0.999 . S
C1632 H1602 0.950 . S
C1632 C1631 1.524 . S
C1632 C1633 1.415 . S
C1633 H1603 0.950 . S
C1633 C1628 1.363 . S
C1633 C1632 1.415 . S
H1634 C1631 0.999 . S
H1635 C1616 0.914 1_565 S
H1636 C1654 0.951 . S
H1637 C1656 0.951 . S
H1638 C1658 0.950 . S
H1639 C1659 0.950 . S
H1640 C1661 0.950 . S
H1641 C1664 0.950 . S
H1642 C1665 0.950 . S
H1643 C1667 0.950 . S
H1644 C1668 0.950 . S
H1645 C1669 0.951 . S
H1646 C1671 0.951 . S
H1647 C1673 0.950 . S
H1648 C1674 0.950 . S
H1649 C1676 0.950 . S
H1650 C1679 0.950 . S
H1651 C1680 0.950 . S
H1652 C1682 0.950 . S
H1653 C1683 0.950 . S
C1654 H1636 0.951 . S
C1654 C1655 1.366 . S
C1654 C1656 1.388 . S
C1655 C1654 1.366 . S
C1655 C1659 1.385 . S
C1656 H1637 0.951 . S
C1656 C1654 1.388 . S
C1656 C1657 1.366 . S
C1657 C1656 1.366 . S
C1657 C1658 1.414 . S
C1657 C1660 1.499 . S
C1658 H1638 0.950 . S
C1658 C1657 1.414 . S
C1658 C1659 1.374 . S
C1659 H1639 0.950 . S
C1659 C1655 1.385 . S
C1659 C1658 1.374 . S
C1660 C1657 1.499 . S
C1660 C1661 1.373 . S
C1660 C1662 1.389 . S
C1661 H1640 0.950 . S
C1661 C1660 1.373 . S
C1661 C1677 1.377 . S
C1662 C1660 1.389 . S
C1662 C1663 1.524 . S
C1662 C1676 1.377 . S
C1663 C1662 1.524 . S
C1663 C1664 1.397 . S
C1663 C1668 1.363 . S
C1664 H1641 0.950 . S
C1664 C1663 1.397 . S
C1664 C1665 1.334 . S
C1665 H1642 0.950 . S
C1665 C1664 1.334 . S
C1665 C1666 1.287 . S
C1666 C1665 1.287 . S
C1666 C1667 1.524 . S
C1666 H1685 0.913 . S
C1667 H1643 0.950 . S
C1667 C1666 1.524 . S
C1667 C1668 1.415 . S
C1668 H1644 0.950 . S
C1668 C1663 1.363 . S
C1668 C1667 1.415 . S
C1669 H1645 0.951 . S
C1669 C1670 1.366 . S
C1669 C1671 1.388 . S
C1670 C1669 1.366 . S
C1670 C1674 1.385 . S
C1671 H1646 0.951 . S
C1671 C1669 1.388 . S
C1671 C1672 1.366 . S
C1672 C1671 1.366 . S
C1672 C1673 1.414 . S
C1672 C1675 1.499 . S
C1673 H1647 0.950 . S
C1673 C1672 1.414 . S
C1673 C1674 1.374 . S
C1674 H1648 0.950 . S
C1674 C1670 1.385 . S
C1674 C1673 1.374 . S
C1675 C1672 1.499 . S
C1675 C1676 1.373 . S
C1675 C1677 1.389 . S
C1676 H1649 0.950 . S
C1676 C1662 1.377 . S
C1676 C1675 1.373 . S
C1677 C1661 1.377 . S
C1677 C1675 1.389 . S
C1677 C1678 1.524 . S
C1678 C1677 1.524 . S
C1678 C1679 1.397 . S
C1678 C1683 1.363 . S
C1679 H1650 0.950 . S
C1679 C1678 1.397 . S
C1679 C1680 1.334 . S
C1680 H1651 0.950 . S
C1680 C1679 1.334 . S
C1680 C1681 1.287 . S
C1681 C1680 1.287 . S
C1681 C1682 1.524 . S
C1681 H1684 0.999 . S
C1682 H1652 0.950 . S
C1682 C1681 1.524 . S
C1682 C1683 1.415 . S
C1683 H1653 0.950 . S
C1683 C1678 1.363 . S
C1683 C1682 1.415 . S
H1684 C1681 0.999 . S
H1685 C1666 0.913 . S
H1686 C1704 0.951 . S
H1687 C1706 0.951 . S
H1688 C1708 0.950 . S
H1689 C1709 0.950 . S
H1690 C1711 0.950 . S
H1691 C1714 0.950 . S
H1692 C1715 0.950 1_545 S
H1693 C1717 0.950 . S
H1694 C1718 0.950 . S
H1695 C1719 0.951 . S
H1696 C1721 0.951 . S
H1697 C1723 0.950 . S
H1698 C1724 0.950 . S
H1699 C1726 0.950 . S
H1700 C1729 0.950 . S
H1701 C1730 0.950 . S
H1702 C1732 0.950 . S
H1703 C1733 0.950 . S
C1704 H1686 0.951 . S
C1704 C1705 1.366 . S
C1704 C1706 1.388 1_545 S
C1705 C1704 1.366 . S
C1705 C1709 1.385 1_545 S
C1706 H1687 0.951 . S
C1706 C1704 1.388 1_565 S
C1706 C1707 1.366 . S
C1707 C1706 1.366 . S
C1707 C1708 1.414 . S
C1707 C1710 1.499 . S
C1708 H1688 0.950 . S
C1708 C1707 1.414 . S
C1708 C1709 1.374 . S
C1709 H1689 0.950 . S
C1709 C1705 1.385 1_565 S
C1709 C1708 1.374 . S
C1710 C1707 1.499 . S
C1710 C1711 1.373 . S
C1710 C1712 1.389 . S
C1711 H1690 0.950 . S
C1711 C1710 1.373 . S
C1711 C1727 1.377 . S
C1712 C1710 1.389 . S
C1712 C1713 1.524 . S
C1712 C1726 1.377 . S
C1713 C1712 1.524 . S
C1713 C1714 1.397 . S
C1713 C1718 1.363 . S
C1714 H1691 0.950 . S
C1714 C1713 1.397 . S
C1714 C1715 1.334 . S
C1715 H1692 0.950 1_565 S
C1715 C1714 1.334 . S
C1715 C1716 1.287 1_565 S
C1716 C1715 1.287 1_545 S
C1716 C1717 1.524 . S
C1716 H1735 0.913 . S
C1717 H1693 0.950 . S
C1717 C1716 1.524 . S
C1717 C1718 1.415 1_545 S
C1718 H1694 0.950 . S
C1718 C1713 1.363 . S
C1718 C1717 1.415 1_565 S
C1719 H1695 0.951 . S
C1719 C1720 1.366 1_655 S
C1719 C1721 1.388 . S
C1720 C1719 1.366 1_455 S
C1720 C1724 1.385 . S
C1721 H1696 0.951 . S
C1721 C1719 1.388 . S
C1721 C1722 1.366 . S
C1722 C1721 1.366 . S
C1722 C1723 1.414 1_655 S
C1722 C1725 1.499 . S
C1723 H1697 0.950 . S
C1723 C1722 1.414 1_455 S
C1723 C1724 1.374 . S
C1724 H1698 0.950 . S
C1724 C1720 1.385 . S
C1724 C1723 1.374 . S
C1725 C1722 1.499 . S
C1725 C1726 1.373 . S
C1725 C1727 1.389 . S
C1726 H1699 0.950 . S
C1726 C1712 1.377 . S
C1726 C1725 1.373 . S
C1727 C1711 1.377 . S
C1727 C1725 1.389 . S
C1727 C1728 1.524 . S
C1728 C1727 1.524 . S
C1728 C1729 1.397 1_655 S
C1728 C1733 1.363 . S
C1729 H1700 0.950 . S
C1729 C1728 1.397 1_455 S
C1729 C1730 1.334 . S
C1730 H1701 0.950 . S
C1730 C1729 1.334 . S
C1730 C1731 1.287 . S
C1731 C1730 1.287 . S
C1731 C1732 1.524 1_455 S
C1731 H1734 0.999 . S
C1732 H1702 0.950 . S
C1732 C1731 1.524 1_655 S
C1732 C1733 1.415 . S
C1733 H1703 0.950 . S
C1733 C1728 1.363 . S
C1733 C1732 1.415 . S
H1734 C1731 0.999 . S
H1735 C1716 0.913 . S
H1736 C1754 0.951 . S
H1737 C1756 0.951 . S
H1738 C1758 0.950 . S
H1739 C1759 0.950 . S
H1740 C1761 0.950 . S
H1741 C1764 0.950 . S
H1742 C1765 0.950 . S
H1743 C1767 0.950 . S
H1744 C1768 0.950 . S
H1745 C1769 0.951 . S
H1746 C1771 0.951 . S
H1747 C1773 0.953 . S
H1748 C1774 0.950 . S
H1749 C1776 0.950 . S
H1750 C1779 0.950 . S
H1751 C1780 0.950 . S
H1752 C1782 0.950 . S
H1753 C1783 0.950 . S
C1754 H1736 0.951 . S
C1754 C1755 1.366 . S
C1754 C1756 1.388 . S
C1755 C1754 1.366 . S
C1755 C1759 1.385 . S
C1756 H1737 0.951 . S
C1756 C1754 1.388 . S
C1756 C1757 1.366 . S
C1757 C1756 1.366 . S
C1757 C1758 1.414 . S
C1757 C1760 1.499 . S
C1758 H1738 0.950 . S
C1758 C1757 1.414 . S
C1758 C1759 1.374 . S
C1759 H1739 0.950 . S
C1759 C1755 1.385 . S
C1759 C1758 1.374 . S
C1760 C1757 1.499 . S
C1760 C1761 1.373 . S
C1760 C1762 1.389 . S
C1761 H1740 0.950 . S
C1761 C1760 1.373 . S
C1761 C1777 1.377 . S
C1762 C1760 1.389 . S
C1762 C1763 1.524 . S
C1762 C1776 1.377 . S
C1763 C1762 1.524 . S
C1763 C1764 1.397 . S
C1763 C1768 1.363 . S
C1764 H1741 0.950 . S
C1764 C1763 1.397 . S
C1764 C1765 1.334 . S
C1765 H1742 0.950 . S
C1765 C1764 1.334 . S
C1765 C1766 1.287 . S
C1766 C1765 1.287 . S
C1766 C1767 1.524 . S
C1766 H1785 0.913 . S
C1767 H1743 0.950 . S
C1767 C1766 1.524 . S
C1767 C1768 1.415 . S
C1768 H1744 0.950 . S
C1768 C1763 1.363 . S
C1768 C1767 1.415 . S
C1769 H1745 0.951 . S
C1769 C1770 1.366 1_655 S
C1769 C1771 1.388 . S
C1770 C1769 1.366 1_455 S
C1770 C1774 1.385 . S
C1771 H1746 0.951 . S
C1771 C1769 1.388 . S
C1771 C1772 1.366 . S
C1772 C1771 1.366 . S
C1772 C1773 1.405 1_655 S
C1772 C1775 1.499 . S
C1773 H1747 0.953 . S
C1773 C1772 1.405 1_455 S
C1773 C1774 1.380 . S
C1774 H1748 0.950 . S
C1774 C1770 1.385 . S
C1774 C1773 1.380 . S
C1775 C1772 1.499 . S
C1775 C1776 1.373 . S
C1775 C1777 1.389 . S
C1776 H1749 0.950 . S
C1776 C1762 1.377 . S
C1776 C1775 1.373 . S
C1777 C1761 1.377 . S
C1777 C1775 1.389 . S
C1777 C1778 1.524 . S
C1778 C1777 1.524 . S
C1778 C1779 1.397 . S
C1778 C1783 1.363 . S
C1779 H1750 0.950 . S
C1779 C1778 1.397 . S
C1779 C1780 1.334 . S
C1780 H1751 0.950 . S
C1780 C1779 1.334 . S
C1780 C1781 1.287 . S
C1781 C1780 1.287 . S
C1781 C1782 1.524 . S
C1781 H1784 0.999 . S
C1782 H1752 0.950 . S
C1782 C1781 1.524 . S
C1782 C1783 1.415 . S
C1783 H1753 0.950 . S
C1783 C1778 1.363 . S
C1783 C1782 1.415 . S
H1784 C1781 0.999 . S
H1785 C1766 0.913 . S
H1786 C1804 0.951 . S
H1787 C1806 0.951 . S
H1788 C1808 0.950 . S
H1789 C1809 0.950 . S
H1790 C1811 0.950 . S
H1791 C1814 0.950 . S
H1792 C1815 0.950 . S
H1793 C1817 0.950 . S
H1794 C1818 0.950 . S
H1795 C1819 0.951 . S
H1796 C1821 0.951 . S
H1797 C1823 0.950 . S
H1798 C1824 0.950 . S
H1799 C1826 0.950 . S
H1800 C1829 0.950 . S
H1801 C1830 0.950 . S
H1802 C1832 0.950 . S
H1803 C1833 0.950 . S
C1804 H1786 0.951 . S
C1804 C1805 1.366 . S
C1804 C1806 1.388 . S
C1805 C1804 1.366 . S
C1805 C1809 1.385 1_545 S
C1806 H1787 0.951 . S
C1806 C1804 1.388 . S
C1806 C1807 1.366 . S
C1807 C1806 1.366 . S
C1807 C1808 1.414 . S
C1807 C1810 1.499 . S
C1808 H1788 0.950 . S
C1808 C1807 1.414 . S
C1808 C1809 1.374 1_545 S
C1809 H1789 0.950 . S
C1809 C1805 1.385 1_565 S
C1809 C1808 1.374 1_565 S
C1810 C1807 1.499 . S
C1810 C1811 1.373 . S
C1810 C1812 1.389 . S
C1811 H1790 0.950 . S
C1811 C1810 1.373 . S
C1811 C1827 1.377 . S
C1812 C1810 1.389 . S
C1812 C1813 1.524 . S
C1812 C1826 1.377 . S
C1813 C1812 1.524 . S
C1813 C1814 1.397 . S
C1813 C1818 1.363 . S
C1814 H1791 0.950 . S
C1814 C1813 1.397 . S
C1814 C1815 1.334 . S
C1815 H1792 0.950 . S
C1815 C1814 1.334 . S
C1815 C1816 1.287 . S
C1816 C1815 1.287 . S
C1816 C1817 1.524 . S
C1816 H1835 0.913 . S
C1817 H1793 0.950 . S
C1817 C1816 1.524 . S
C1817 C1818 1.415 . S
C1818 H1794 0.950 . S
C1818 C1813 1.363 . S
C1818 C1817 1.415 . S
C1819 H1795 0.951 . S
C1819 C1820 1.366 . S
C1819 C1821 1.388 . S
C1820 C1819 1.366 . S
C1820 C1824 1.385 . S
C1821 H1796 0.951 . S
C1821 C1819 1.388 . S
C1821 C1822 1.366 . S
C1822 C1821 1.366 . S
C1822 C1823 1.414 . S
C1822 C1825 1.499 . S
C1823 H1797 0.950 . S
C1823 C1822 1.414 . S
C1823 C1824 1.374 . S
C1824 H1798 0.950 . S
C1824 C1820 1.385 . S
C1824 C1823 1.374 . S
C1825 C1822 1.499 . S
C1825 C1826 1.373 . S
C1825 C1827 1.389 . S
C1826 H1799 0.950 . S
C1826 C1812 1.377 . S
C1826 C1825 1.373 . S
C1827 C1811 1.377 . S
C1827 C1825 1.389 . S
C1827 C1828 1.524 . S
C1828 C1827 1.524 . S
C1828 C1829 1.397 . S
C1828 C1833 1.363 . S
C1829 H1800 0.950 . S
C1829 C1828 1.397 . S
C1829 C1830 1.334 . S
C1830 H1801 0.950 . S
C1830 C1829 1.334 . S
C1830 C1831 1.287 . S
C1831 C1830 1.287 . S
C1831 C1832 1.524 . S
C1831 H1834 0.999 . S
C1832 H1802 0.950 . S
C1832 C1831 1.524 . S
C1832 C1833 1.415 . S
C1833 H1803 0.950 . S
C1833 C1828 1.363 . S
C1833 C1832 1.415 . S
H1834 C1831 0.999 . S
H1835 C1816 0.913 . S
H1836 C1854 0.951 . S
H1837 C1856 0.951 . S
H1838 C1858 0.950 . S
H1839 C1859 0.950 . S
H1840 C1861 0.950 . S
H1841 C1864 0.950 . S
H1842 C1865 0.950 . S
H1843 C1867 0.950 . S
H1844 C1868 0.950 . S
H1845 C1869 0.951 . S
H1846 C1871 0.951 . S
H1847 C1873 0.950 . S
H1848 C1874 0.950 . S
H1849 C1876 0.950 . S
H1850 C1879 0.950 . S
H1851 C1880 0.950 . S
H1852 C1882 0.950 . S
H1853 C1883 0.950 . S
C1854 H1836 0.951 . S
C1854 C1855 1.366 . S
C1854 C1856 1.388 . S
C1855 C1854 1.366 . S
C1855 C1859 1.385 . S
C1856 H1837 0.951 . S
C1856 C1854 1.388 . S
C1856 C1857 1.366 . S
C1857 C1856 1.366 . S
C1857 C1858 1.414 . S
C1857 C1860 1.499 . S
C1858 H1838 0.950 . S
C1858 C1857 1.414 . S
C1858 C1859 1.374 . S
C1859 H1839 0.950 . S
C1859 C1855 1.385 . S
C1859 C1858 1.374 . S
C1860 C1857 1.499 . S
C1860 C1861 1.373 . S
C1860 C1862 1.389 . S
C1861 H1840 0.950 . S
C1861 C1860 1.373 . S
C1861 C1877 1.377 . S
C1862 C1860 1.389 . S
C1862 C1863 1.524 . S
C1862 C1876 1.377 . S
C1863 C1862 1.524 . S
C1863 C1864 1.397 . S
C1863 C1868 1.363 . S
C1864 H1841 0.950 . S
C1864 C1863 1.397 . S
C1864 C1865 1.334 . S
C1865 H1842 0.950 . S
C1865 C1864 1.334 . S
C1865 C1866 1.287 . S
C1866 C1865 1.287 . S
C1866 C1867 1.524 . S
C1866 H1885 0.913 . S
C1867 H1843 0.950 . S
C1867 C1866 1.524 . S
C1867 C1868 1.415 . S
C1868 H1844 0.950 . S
C1868 C1863 1.363 . S
C1868 C1867 1.415 . S
C1869 H1845 0.951 . S
C1869 C1870 1.366 . S
C1869 C1871 1.388 . S
C1870 C1869 1.366 . S
C1870 C1874 1.385 . S
C1871 H1846 0.951 . S
C1871 C1869 1.388 . S
C1871 C1872 1.366 . S
C1872 C1871 1.366 . S
C1872 C1873 1.414 . S
C1872 C1875 1.499 . S
C1873 H1847 0.950 . S
C1873 C1872 1.414 . S
C1873 C1874 1.374 . S
C1874 H1848 0.950 . S
C1874 C1870 1.385 . S
C1874 C1873 1.374 . S
C1875 C1872 1.499 . S
C1875 C1876 1.373 . S
C1875 C1877 1.389 . S
C1876 H1849 0.950 . S
C1876 C1862 1.377 . S
C1876 C1875 1.373 . S
C1877 C1861 1.377 . S
C1877 C1875 1.389 . S
C1877 C1878 1.524 . S
C1878 C1877 1.524 . S
C1878 C1879 1.397 . S
C1878 C1883 1.363 . S
C1879 H1850 0.950 . S
C1879 C1878 1.397 . S
C1879 C1880 1.334 . S
C1880 H1851 0.950 . S
C1880 C1879 1.334 . S
C1880 C1881 1.287 . S
C1881 C1880 1.287 . S
C1881 C1882 1.524 . S
C1881 H1884 0.999 . S
C1882 H1852 0.950 . S
C1882 C1881 1.524 . S
C1882 C1883 1.415 . S
C1883 H1853 0.950 . S
C1883 C1878 1.363 . S
C1883 C1882 1.415 . S
H1884 C1881 0.999 . S
H1885 C1866 0.913 . S
H1886 C1904 0.951 . S
H1887 C1906 0.951 . S
H1888 C1908 0.950 . S
H1889 C1909 0.950 . S
H1890 C1911 0.950 . S
H1891 C1914 0.950 . S
H1892 C1915 0.950 . S
H1893 C1917 0.950 . S
H1894 C1918 0.950 . S
H1895 C1919 0.933 1_455 S
H1896 C1921 0.951 1_455 S
H1897 C1923 0.950 . S
H1898 C1924 0.950 . S
H1899 C1926 0.950 . S
H1900 C1929 0.950 . S
H1901 C1930 0.950 . S
H1902 C1932 0.950 . S
H1903 C1933 0.950 . S
C1904 H1886 0.951 . S
C1904 C1905 1.366 . S
C1904 C1906 1.388 . S
C1905 C1904 1.366 . S
C1905 C1909 1.385 . S
C1906 H1887 0.951 . S
C1906 C1904 1.388 . S
C1906 C1907 1.366 . S
C1907 C1906 1.366 . S
C1907 C1908 1.414 . S
C1907 C1910 1.499 . S
C1908 H1888 0.950 . S
C1908 C1907 1.414 . S
C1908 C1909 1.374 . S
C1909 H1889 0.950 . S
C1909 C1905 1.385 . S
C1909 C1908 1.374 . S
C1910 C1907 1.499 . S
C1910 C1911 1.373 . S
C1910 C1912 1.389 . S
C1911 H1890 0.950 . S
C1911 C1910 1.373 . S
C1911 C1927 1.377 . S
C1912 C1910 1.389 . S
C1912 C1913 1.524 . S
C1912 C1926 1.377 . S
C1913 C1912 1.524 . S
C1913 C1914 1.397 . S
C1913 C1918 1.363 . S
C1914 H1891 0.950 . S
C1914 C1913 1.397 . S
C1914 C1915 1.334 . S
C1915 H1892 0.950 . S
C1915 C1914 1.334 . S
C1915 C1916 1.287 . S
C1916 C1915 1.287 . S
C1916 C1917 1.524 . S
C1916 H1935 0.913 . S
C1917 H1893 0.950 . S
C1917 C1916 1.524 . S
C1917 C1918 1.415 . S
C1918 H1894 0.950 . S
C1918 C1913 1.363 . S
C1918 C1917 1.415 . S
C1919 H1895 0.933 1_655 S
C1919 C1920 1.379 . S
C1919 C1921 1.393 . S
C1920 C1919 1.379 . S
C1920 C1924 1.385 . S
C1921 H1896 0.951 1_655 S
C1921 C1919 1.393 . S
C1921 C1922 1.366 . S
C1922 C1921 1.366 . S
C1922 C1923 1.414 . S
C1922 C1925 1.499 . S
C1923 H1897 0.950 . S
C1923 C1922 1.414 . S
C1923 C1924 1.374 . S
C1924 H1898 0.950 . S
C1924 C1920 1.385 . S
C1924 C1923 1.374 . S
C1925 C1922 1.499 . S
C1925 C1926 1.373 . S
C1925 C1927 1.389 . S
C1926 H1899 0.950 . S
C1926 C1912 1.377 . S
C1926 C1925 1.373 . S
C1927 C1911 1.377 . S
C1927 C1925 1.389 . S
C1927 C1928 1.524 1_655 S
C1928 C1927 1.524 1_455 S
C1928 C1929 1.397 . S
C1928 C1933 1.363 . S
C1929 H1900 0.950 . S
C1929 C1928 1.397 . S
C1929 C1930 1.334 . S
C1930 H1901 0.950 . S
C1930 C1929 1.334 . S
C1930 C1931 1.287 . S
C1931 C1930 1.287 . S
C1931 C1932 1.524 . S
C1931 H1934 0.999 . S
C1932 H1902 0.950 . S
C1932 C1931 1.524 . S
C1932 C1933 1.415 . S
C1933 H1903 0.950 . S
C1933 C1928 1.363 . S
C1933 C1932 1.415 . S
H1934 C1931 0.999 . S
H1935 C1916 0.913 . S
H1936 C1954 0.951 . S
H1937 C1956 0.951 . S
H1938 C1958 0.950 . S
H1939 C1959 0.950 . S
H1940 C1961 0.950 . S
H1941 C1964 0.950 . S
H1942 C1965 0.950 . S
H1943 C1967 0.950 . S
H1944 C1968 0.950 . S
H1945 C1969 0.951 . S
H1946 C1971 0.951 . S
H1947 C1973 0.950 . S
H1948 C1974 0.950 . S
H1949 C1976 0.950 . S
H1950 C1979 0.950 . S
H1951 C1980 0.950 . S
H1952 C1982 0.950 . S
H1953 C1983 0.950 . S
C1954 H1936 0.951 . S
C1954 C1955 1.366 . S
C1954 C1956 1.388 . S
C1955 C1954 1.366 . S
C1955 C1959 1.385 . S
C1956 H1937 0.951 . S
C1956 C1954 1.388 . S
C1956 C1957 1.366 . S
C1957 C1956 1.366 . S
C1957 C1958 1.414 . S
C1957 C1960 1.499 . S
C1958 H1938 0.950 . S
C1958 C1957 1.414 . S
C1958 C1959 1.374 . S
C1959 H1939 0.950 . S
C1959 C1955 1.385 . S
C1959 C1958 1.374 . S
C1960 C1957 1.499 . S
C1960 C1961 1.373 . S
C1960 C1962 1.389 . S
C1961 H1940 0.950 . S
C1961 C1960 1.373 . S
C1961 C1977 1.377 . S
C1962 C1960 1.389 . S
C1962 C1963 1.524 . S
C1962 C1976 1.377 . S
C1963 C1962 1.524 . S
C1963 C1964 1.397 . S
C1963 C1968 1.363 . S
C1964 H1941 0.950 . S
C1964 C1963 1.397 . S
C1964 C1965 1.334 . S
C1965 H1942 0.950 . S
C1965 C1964 1.334 . S
C1965 C1966 1.287 . S
C1966 C1965 1.287 . S
C1966 C1967 1.524 . S
C1966 H1985 0.913 . S
C1967 H1943 0.950 . S
C1967 C1966 1.524 . S
C1967 C1968 1.415 . S
C1968 H1944 0.950 . S
C1968 C1963 1.363 . S
C1968 C1967 1.415 . S
C1969 H1945 0.951 . S
C1969 C1970 1.366 . S
C1969 C1971 1.388 . S
C1970 C1969 1.366 . S
C1970 C1974 1.385 . S
C1971 H1946 0.951 . S
C1971 C1969 1.388 . S
C1971 C1972 1.366 . S
C1972 C1971 1.366 . S
C1972 C1973 1.414 . S
C1972 C1975 1.499 . S
C1973 H1947 0.950 . S
C1973 C1972 1.414 . S
C1973 C1974 1.374 . S
C1974 H1948 0.950 . S
C1974 C1970 1.385 . S
C1974 C1973 1.374 . S
C1975 C1972 1.499 . S
C1975 C1976 1.373 . S
C1975 C1977 1.389 . S
C1976 H1949 0.950 . S
C1976 C1962 1.377 . S
C1976 C1975 1.373 . S
C1977 C1961 1.377 . S
C1977 C1975 1.389 . S
C1977 C1978 1.524 . S
C1978 C1977 1.524 . S
C1978 C1979 1.397 . S
C1978 C1983 1.363 . S
C1979 H1950 0.950 . S
C1979 C1978 1.397 . S
C1979 C1980 1.334 . S
C1980 H1951 0.950 . S
C1980 C1979 1.334 . S
C1980 C1981 1.287 . S
C1981 C1980 1.287 . S
C1981 C1982 1.524 . S
C1981 H1984 0.999 . S
C1982 H1952 0.950 . S
C1982 C1981 1.524 . S
C1982 C1983 1.415 . S
C1983 H1953 0.950 . S
C1983 C1978 1.363 . S
C1983 C1982 1.415 . S
H1984 C1981 0.999 . S
H1985 C1966 0.913 . S
H1986 C2004 0.951 . S
H1987 C2006 0.951 . S
H1988 C2008 0.950 . S
H1989 C2009 0.950 . S
H1990 C2011 0.950 . S
H1991 C2014 0.950 . S
H1992 C2015 0.950 . S
H1993 C2017 0.950 . S
H1994 C2018 0.950 . S
H1995 C2019 0.951 . S
H1996 C2021 0.951 . S
H1997 C2023 0.950 . S
H1998 C2024 0.950 . S
H1999 C2026 0.950 . S
H2000 C2029 0.950 . S
H2001 C2030 0.950 . S
H2002 C2032 0.950 . S
H2003 C2033 0.950 . S
C2004 H1986 0.951 . S
C2004 C2005 1.366 . S
C2004 C2006 1.388 . S
C2005 C2004 1.366 . S
C2005 C2009 1.385 . S
C2006 H1987 0.951 . S
C2006 C2004 1.388 . S
C2006 C2007 1.366 . S
C2007 C2006 1.366 . S
C2007 C2008 1.414 . S
C2007 C2010 1.499 . S
C2008 H1988 0.950 . S
C2008 C2007 1.414 . S
C2008 C2009 1.374 . S
C2009 H1989 0.950 . S
C2009 C2005 1.385 . S
C2009 C2008 1.374 . S
C2010 C2007 1.499 . S
C2010 C2011 1.373 . S
C2010 C2012 1.389 . S
C2011 H1990 0.950 . S
C2011 C2010 1.373 . S
C2011 C2027 1.377 . S
C2012 C2010 1.389 . S
C2012 C2013 1.524 . S
C2012 C2026 1.377 . S
C2013 C2012 1.524 . S
C2013 C2014 1.397 . S
C2013 C2018 1.363 . S
C2014 H1991 0.950 . S
C2014 C2013 1.397 . S
C2014 C2015 1.334 . S
C2015 H1992 0.950 . S
C2015 C2014 1.334 . S
C2015 C2016 1.287 . S
C2016 C2015 1.287 . S
C2016 C2017 1.524 . S
C2016 H2035 0.913 . S
C2017 H1993 0.950 . S
C2017 C2016 1.524 . S
C2017 C2018 1.415 . S
C2018 H1994 0.950 . S
C2018 C2013 1.363 . S
C2018 C2017 1.415 . S
C2019 H1995 0.951 . S
C2019 C2020 1.366 . S
C2019 C2021 1.388 . S
C2020 C2019 1.366 . S
C2020 C2024 1.385 . S
C2021 H1996 0.951 . S
C2021 C2019 1.388 . S
C2021 C2022 1.366 . S
C2022 C2021 1.366 . S
C2022 C2023 1.414 . S
C2022 C2025 1.499 . S
C2023 H1997 0.950 . S
C2023 C2022 1.414 . S
C2023 C2024 1.374 . S
C2024 H1998 0.950 . S
C2024 C2020 1.385 . S
C2024 C2023 1.374 . S
C2025 C2022 1.499 . S
C2025 C2026 1.373 . S
C2025 C2027 1.389 . S
C2026 H1999 0.950 . S
C2026 C2012 1.377 . S
C2026 C2025 1.373 . S
C2027 C2011 1.377 . S
C2027 C2025 1.389 . S
C2027 C2028 1.524 . S
C2028 C2027 1.524 . S
C2028 C2029 1.397 . S
C2028 C2033 1.363 . S
C2029 H2000 0.950 . S
C2029 C2028 1.397 . S
C2029 C2030 1.334 . S
C2030 H2001 0.950 . S
C2030 C2029 1.334 . S
C2030 C2031 1.287 . S
C2031 C2030 1.287 . S
C2031 C2032 1.524 . S
C2031 H2034 0.999 . S
C2032 H2002 0.950 . S
C2032 C2031 1.524 . S
C2032 C2033 1.415 . S
C2033 H2003 0.950 . S
C2033 C2028 1.363 . S
C2033 C2032 1.415 . S
H2034 C2031 0.999 . S
H2035 C2016 0.913 . S
H2036 C2054 0.951 . S
H2037 C2056 0.951 . S
H2038 C2058 0.950 . S
H2039 C2059 0.950 . S
H2040 C2061 0.950 . S
H2041 C2064 0.950 . S
H2042 C2065 0.950 . S
H2043 C2067 0.950 . S
H2044 C2068 0.950 . S
H2045 C2069 0.951 . S
H2046 C2071 0.951 . S
H2047 C2073 0.950 . S
H2048 C2074 0.950 . S
H2049 C2076 0.950 . S
H2050 C2079 0.950 . S
H2051 C2080 0.950 . S
H2052 C2082 0.950 . S
H2053 C2083 0.950 . S
C2054 H2036 0.951 . S
C2054 C2055 1.366 . S
C2054 C2056 1.388 . S
C2055 C2054 1.366 . S
C2055 C2059 1.385 . S
C2056 H2037 0.951 . S
C2056 C2054 1.388 . S
C2056 C2057 1.366 . S
C2057 C2056 1.366 . S
C2057 C2058 1.414 . S
C2057 C2060 1.499 . S
C2058 H2038 0.950 . S
C2058 C2057 1.414 . S
C2058 C2059 1.374 . S
C2059 H2039 0.950 . S
C2059 C2055 1.385 . S
C2059 C2058 1.374 . S
C2060 C2057 1.499 . S
C2060 C2061 1.373 . S
C2060 C2062 1.389 . S
C2061 H2040 0.950 . S
C2061 C2060 1.373 . S
C2061 C2077 1.377 . S
C2062 C2060 1.389 . S
C2062 C2063 1.524 . S
C2062 C2076 1.377 . S
C2063 C2062 1.524 . S
C2063 C2064 1.397 . S
C2063 C2068 1.363 . S
C2064 H2041 0.950 . S
C2064 C2063 1.397 . S
C2064 C2065 1.334 . S
C2065 H2042 0.950 . S
C2065 C2064 1.334 . S
C2065 C2066 1.287 . S
C2066 C2065 1.287 . S
C2066 C2067 1.524 . S
C2066 H2085 0.913 . S
C2067 H2043 0.950 . S
C2067 C2066 1.524 . S
C2067 C2068 1.415 . S
C2068 H2044 0.950 . S
C2068 C2063 1.363 . S
C2068 C2067 1.415 . S
C2069 H2045 0.951 . S
C2069 C2070 1.366 . S
C2069 C2071 1.388 . S
C2070 C2069 1.366 . S
C2070 C2074 1.385 . S
C2071 H2046 0.951 . S
C2071 C2069 1.388 . S
C2071 C2072 1.366 . S
C2072 C2071 1.366 . S
C2072 C2073 1.414 . S
C2072 C2075 1.499 . S
C2073 H2047 0.950 . S
C2073 C2072 1.414 . S
C2073 C2074 1.374 . S
C2074 H2048 0.950 . S
C2074 C2070 1.385 . S
C2074 C2073 1.374 . S
C2075 C2072 1.499 . S
C2075 C2076 1.373 . S
C2075 C2077 1.389 . S
C2076 H2049 0.950 . S
C2076 C2062 1.377 . S
C2076 C2075 1.373 . S
C2077 C2061 1.377 . S
C2077 C2075 1.389 . S
C2077 C2078 1.524 . S
C2078 C2077 1.524 . S
C2078 C2079 1.397 . S
C2078 C2083 1.363 . S
C2079 H2050 0.950 . S
C2079 C2078 1.397 . S
C2079 C2080 1.334 . S
C2080 H2051 0.950 . S
C2080 C2079 1.334 . S
C2080 C2081 1.287 . S
C2081 C2080 1.287 . S
C2081 C2082 1.524 . S
C2081 H2084 0.999 . S
C2082 H2052 0.950 . S
C2082 C2081 1.524 . S
C2082 C2083 1.415 . S
C2083 H2053 0.950 . S
C2083 C2078 1.363 . S
C2083 C2082 1.415 . S
H2084 C2081 0.999 . S
H2085 C2066 0.913 . S
H2086 C2104 0.951 . S
H2087 C2106 0.951 . S
H2088 C2108 0.950 . S
H2089 C2109 0.950 . S
H2090 C2111 0.950 . S
H2091 C2114 0.950 . S
H2092 C2115 0.950 . S
H2093 C2117 0.950 . S
H2094 C2118 0.950 . S
H2095 C2119 0.951 . S
H2096 C2121 0.951 . S
H2097 C2123 0.950 . S
H2098 C2124 0.950 . S
H2099 C2126 0.950 . S
H2100 C2129 0.950 . S
H2101 C2130 0.950 . S
H2102 C2132 0.950 . S
H2103 C2133 0.950 . S
C2104 H2086 0.951 . S
C2104 C2105 1.366 . S
C2104 C2106 1.388 . S
C2105 C2104 1.366 . S
C2105 C2109 1.385 . S
C2106 H2087 0.951 . S
C2106 C2104 1.388 . S
C2106 C2107 1.366 . S
C2107 C2106 1.366 . S
C2107 C2108 1.414 . S
C2107 C2110 1.499 . S
C2108 H2088 0.950 . S
C2108 C2107 1.414 . S
C2108 C2109 1.374 . S
C2109 H2089 0.950 . S
C2109 C2105 1.385 . S
C2109 C2108 1.374 . S
C2110 C2107 1.499 . S
C2110 C2111 1.373 . S
C2110 C2112 1.389 . S
C2111 H2090 0.950 . S
C2111 C2110 1.373 . S
C2111 C2127 1.377 . S
C2112 C2110 1.389 . S
C2112 C2113 1.524 . S
C2112 C2126 1.377 . S
C2113 C2112 1.524 . S
C2113 C2114 1.397 . S
C2113 C2118 1.363 . S
C2114 H2091 0.950 . S
C2114 C2113 1.397 . S
C2114 C2115 1.334 . S
C2115 H2092 0.950 . S
C2115 C2114 1.334 . S
C2115 C2116 1.287 . S
C2116 C2115 1.287 . S
C2116 C2117 1.524 . S
C2116 H2135 0.913 . S
C2117 H2093 0.950 . S
C2117 C2116 1.524 . S
C2117 C2118 1.415 . S
C2118 H2094 0.950 . S
C2118 C2113 1.363 . S
C2118 C2117 1.415 . S
C2119 H2095 0.951 . S
C2119 C2120 1.366 . S
C2119 C2121 1.388 . S
C2120 C2119 1.366 . S
C2120 C2124 1.385 . S
C2121 H2096 0.951 . S
C2121 C2119 1.388 . S
C2121 C2122 1.366 . S
C2122 C2121 1.366 . S
C2122 C2123 1.414 . S
C2122 C2125 1.499 . S
C2123 H2097 0.950 . S
C2123 C2122 1.414 . S
C2123 C2124 1.374 . S
C2124 H2098 0.950 . S
C2124 C2120 1.385 . S
C2124 C2123 1.374 . S
C2125 C2122 1.499 . S
C2125 C2126 1.373 . S
C2125 C2127 1.389 . S
C2126 H2099 0.950 . S
C2126 C2112 1.377 . S
C2126 C2125 1.373 . S
C2127 C2111 1.377 . S
C2127 C2125 1.389 . S
C2127 C2128 1.524 . S
C2128 C2127 1.524 . S
C2128 C2129 1.397 . S
C2128 C2133 1.363 . S
C2129 H2100 0.950 . S
C2129 C2128 1.397 . S
C2129 C2130 1.334 . S
C2130 H2101 0.950 . S
C2130 C2129 1.334 . S
C2130 C2131 1.287 . S
C2131 C2130 1.287 . S
C2131 C2132 1.524 . S
C2131 H2134 0.999 . S
C2132 H2102 0.950 . S
C2132 C2131 1.524 . S
C2132 C2133 1.415 . S
C2133 H2103 0.950 . S
C2133 C2128 1.363 . S
C2133 C2132 1.415 . S
H2134 C2131 0.999 . S
H2135 C2116 0.913 . S
H2136 C2154 0.951 . S
H2137 C2156 0.951 . S
H2138 C2158 0.950 . S
H2139 C2159 0.950 . S
H2140 C2161 0.950 . S
H2141 C2164 0.950 . S
H2142 C2165 0.950 . S
H2143 C2167 0.950 . S
H2144 C2168 0.950 . S
H2145 C2169 0.951 . S
H2146 C2171 0.951 . S
H2147 C2173 0.950 . S
H2148 C2174 0.950 . S
H2149 C2176 0.950 . S
H2150 C2179 0.950 . S
H2151 C2180 0.950 . S
H2152 C2182 0.950 . S
H2153 C2183 0.950 . S
C2154 H2136 0.951 . S
C2154 C2155 1.366 . S
C2154 C2156 1.388 . S
C2155 C2154 1.366 . S
C2155 C2159 1.385 . S
C2156 H2137 0.951 . S
C2156 C2154 1.388 . S
C2156 C2157 1.366 . S
C2157 C2156 1.366 . S
C2157 C2158 1.414 . S
C2157 C2160 1.499 . S
C2158 H2138 0.950 . S
C2158 C2157 1.414 . S
C2158 C2159 1.374 . S
C2159 H2139 0.950 . S
C2159 C2155 1.385 . S
C2159 C2158 1.374 . S
C2160 C2157 1.499 . S
C2160 C2161 1.373 . S
C2160 C2162 1.389 . S
C2161 H2140 0.950 . S
C2161 C2160 1.373 . S
C2161 C2177 1.377 . S
C2162 C2160 1.389 . S
C2162 C2163 1.524 . S
C2162 C2176 1.377 . S
C2163 C2162 1.524 . S
C2163 C2164 1.397 . S
C2163 C2168 1.363 . S
C2164 H2141 0.950 . S
C2164 C2163 1.397 . S
C2164 C2165 1.334 . S
C2165 H2142 0.950 . S
C2165 C2164 1.334 . S
C2165 C2166 1.287 . S
C2166 C2165 1.287 . S
C2166 C2167 1.524 . S
C2166 H2185 0.913 . S
C2167 H2143 0.950 . S
C2167 C2166 1.524 . S
C2167 C2168 1.415 . S
C2168 H2144 0.950 . S
C2168 C2163 1.363 . S
C2168 C2167 1.415 . S
C2169 H2145 0.951 . S
C2169 C2170 1.366 . S
C2169 C2171 1.388 . S
C2170 C2169 1.366 . S
C2170 C2174 1.385 . S
C2171 H2146 0.951 . S
C2171 C2169 1.388 . S
C2171 C2172 1.366 . S
C2172 C2171 1.366 . S
C2172 C2173 1.414 . S
C2172 C2175 1.499 . S
C2173 H2147 0.950 . S
C2173 C2172 1.414 . S
C2173 C2174 1.374 . S
C2174 H2148 0.950 . S
C2174 C2170 1.385 . S
C2174 C2173 1.374 . S
C2175 C2172 1.499 . S
C2175 C2176 1.373 . S
C2175 C2177 1.389 . S
C2176 H2149 0.950 . S
C2176 C2162 1.377 . S
C2176 C2175 1.373 . S
C2177 C2161 1.377 . S
C2177 C2175 1.389 . S
C2177 C2178 1.524 . S
C2178 C2177 1.524 . S
C2178 C2179 1.397 . S
C2178 C2183 1.363 . S
C2179 H2150 0.950 . S
C2179 C2178 1.397 . S
C2179 C2180 1.334 . S
C2180 H2151 0.950 . S
C2180 C2179 1.334 . S
C2180 C2181 1.287 . S
C2181 C2180 1.287 . S
C2181 C2182 1.524 . S
C2181 H2184 0.999 . S
C2182 H2152 0.950 . S
C2182 C2181 1.524 . S
C2182 C2183 1.415 . S
C2183 H2153 0.950 . S
C2183 C2178 1.363 . S
C2183 C2182 1.415 . S
H2184 C2181 0.999 . S
H2185 C2166 0.913 . S
H2186 C2204 0.951 . S
H2187 C2206 0.951 . S
H2188 C2208 0.950 . S
H2189 C2209 0.950 . S
H2190 C2211 0.950 . S
H2191 C2214 0.950 . S
H2192 C2215 0.950 . S
H2193 C2217 0.950 . S
H2194 C2218 0.950 . S
H2195 C2219 0.951 . S
H2196 C2221 0.951 . S
H2197 C2223 0.950 1_455 S
H2198 C2224 0.950 1_455 S
H2199 C2226 0.950 . S
H2200 C2229 0.950 1_455 S
H2201 C2230 0.950 1_455 S
H2202 C2232 0.950 . S
H2203 C2233 0.950 . S
C2204 H2186 0.951 . S
C2204 C2205 1.366 . S
C2204 C2206 1.388 . S
C2205 C2204 1.366 . S
C2205 C2209 1.385 . S
C2206 H2187 0.951 . S
C2206 C2204 1.388 . S
C2206 C2207 1.366 . S
C2207 C2206 1.366 . S
C2207 C2208 1.414 . S
C2207 C2210 1.499 . S
C2208 H2188 0.950 . S
C2208 C2207 1.414 . S
C2208 C2209 1.374 . S
C2209 H2189 0.950 . S
C2209 C2205 1.385 . S
C2209 C2208 1.374 . S
C2210 C2207 1.499 . S
C2210 C2211 1.373 . S
C2210 C2212 1.389 . S
C2211 H2190 0.950 . S
C2211 C2210 1.373 . S
C2211 C2227 1.377 . S
C2212 C2210 1.389 . S
C2212 C2213 1.524 . S
C2212 C2226 1.377 . S
C2213 C2212 1.524 . S
C2213 C2214 1.397 . S
C2213 C2218 1.363 . S
C2214 H2191 0.950 . S
C2214 C2213 1.397 . S
C2214 C2215 1.334 . S
C2215 H2192 0.950 . S
C2215 C2214 1.334 . S
C2215 C2216 1.287 . S
C2216 C2215 1.287 . S
C2216 C2217 1.524 . S
C2216 H2235 0.913 . S
C2217 H2193 0.950 . S
C2217 C2216 1.524 . S
C2217 C2218 1.415 . S
C2218 H2194 0.950 . S
C2218 C2213 1.363 . S
C2218 C2217 1.415 . S
C2219 H2195 0.951 . S
C2219 C2220 1.366 . S
C2219 C2221 1.388 . S
C2220 C2219 1.366 . S
C2220 C2224 1.385 . S
C2221 H2196 0.951 . S
C2221 C2219 1.388 . S
C2221 C2222 1.366 . S
C2222 C2221 1.366 . S
C2222 C2223 1.414 . S
C2222 C2225 1.499 . S
C2223 H2197 0.950 1_655 S
C2223 C2222 1.414 . S
C2223 C2224 1.374 . S
C2224 H2198 0.950 1_655 S
C2224 C2220 1.385 . S
C2224 C2223 1.374 . S
C2225 C2222 1.499 . S
C2225 C2226 1.373 . S
C2225 C2227 1.389 . S
C2226 H2199 0.950 . S
C2226 C2212 1.377 . S
C2226 C2225 1.373 . S
C2227 C2211 1.377 . S
C2227 C2225 1.389 . S
C2227 C2228 1.524 . S
C2228 C2227 1.524 . S
C2228 C2229 1.397 . S
C2228 C2233 1.363 . S
C2229 H2200 0.950 1_655 S
C2229 C2228 1.397 . S
C2229 C2230 1.334 . S
C2230 H2201 0.950 1_655 S
C2230 C2229 1.334 . S
C2230 C2231 1.287 . S
C2231 C2230 1.287 . S
C2231 C2232 1.524 . S
C2231 H2234 0.999 . S
C2232 H2202 0.950 . S
C2232 C2231 1.524 . S
C2232 C2233 1.415 . S
C2233 H2203 0.950 . S
C2233 C2228 1.363 . S
C2233 C2232 1.415 . S
H2234 C2231 0.999 . S
H2235 C2216 0.913 . S
H2236 C2254 0.951 . S
H2237 C2256 0.951 . S
H2238 C2258 0.950 . S
H2239 C2259 0.950 . S
H2240 C2261 0.950 . S
H2241 C2264 0.950 . S
H2242 C2265 0.950 . S
H2243 C2267 0.950 . S
H2244 C2268 0.950 . S
H2245 C2269 0.951 . S
H2246 C2271 0.951 . S
H2247 C2273 0.950 . S
H2248 C2274 0.950 . S
H2249 C2276 0.950 . S
H2250 C2279 0.950 . S
H2251 C2280 0.950 . S
H2252 C2282 0.950 . S
H2253 C2283 0.950 . S
C2254 H2236 0.951 . S
C2254 C2255 1.366 . S
C2254 C2256 1.388 . S
C2255 C2254 1.366 . S
C2255 C2259 1.385 . S
C2256 H2237 0.951 . S
C2256 C2254 1.388 . S
C2256 C2257 1.366 . S
C2257 C2256 1.366 . S
C2257 C2258 1.414 . S
C2257 C2260 1.499 . S
C2258 H2238 0.950 . S
C2258 C2257 1.414 . S
C2258 C2259 1.374 . S
C2259 H2239 0.950 . S
C2259 C2255 1.385 . S
C2259 C2258 1.374 . S
C2260 C2257 1.499 . S
C2260 C2261 1.373 . S
C2260 C2262 1.389 . S
C2261 H2240 0.950 . S
C2261 C2260 1.373 . S
C2261 C2277 1.377 . S
C2262 C2260 1.389 . S
C2262 C2263 1.524 . S
C2262 C2276 1.377 . S
C2263 C2262 1.524 . S
C2263 C2264 1.397 . S
C2263 C2268 1.363 . S
C2264 H2241 0.950 . S
C2264 C2263 1.397 . S
C2264 C2265 1.334 . S
C2265 H2242 0.950 . S
C2265 C2264 1.334 . S
C2265 C2266 1.287 . S
C2266 C2265 1.287 . S
C2266 C2267 1.524 . S
C2266 H2285 0.913 . S
C2267 H2243 0.950 . S
C2267 C2266 1.524 . S
C2267 C2268 1.415 . S
C2268 H2244 0.950 . S
C2268 C2263 1.363 . S
C2268 C2267 1.415 . S
C2269 H2245 0.951 . S
C2269 C2270 1.366 . S
C2269 C2271 1.388 . S
C2270 C2269 1.366 . S
C2270 C2274 1.385 . S
C2271 H2246 0.951 . S
C2271 C2269 1.388 . S
C2271 C2272 1.366 . S
C2272 C2271 1.366 . S
C2272 C2273 1.414 . S
C2272 C2275 1.499 . S
C2273 H2247 0.950 . S
C2273 C2272 1.414 . S
C2273 C2274 1.374 . S
C2274 H2248 0.950 . S
C2274 C2270 1.385 . S
C2274 C2273 1.374 . S
C2275 C2272 1.499 . S
C2275 C2276 1.373 . S
C2275 C2277 1.389 . S
C2276 H2249 0.950 . S
C2276 C2262 1.377 . S
C2276 C2275 1.373 . S
C2277 C2261 1.377 . S
C2277 C2275 1.389 . S
C2277 C2278 1.524 . S
C2278 C2277 1.524 . S
C2278 C2279 1.397 . S
C2278 C2283 1.363 . S
C2279 H2250 0.950 . S
C2279 C2278 1.397 . S
C2279 C2280 1.334 . S
C2280 H2251 0.950 . S
C2280 C2279 1.334 . S
C2280 C2281 1.287 . S
C2281 C2280 1.287 . S
C2281 C2282 1.524 . S
C2281 H2284 0.999 . S
C2282 H2252 0.950 . S
C2282 C2281 1.524 . S
C2282 C2283 1.415 . S
C2283 H2253 0.950 . S
C2283 C2278 1.363 . S
C2283 C2282 1.415 . S
H2284 C2281 0.999 . S
H2285 C2266 0.913 . S
H2286 C2304 0.951 . S
H2287 C2306 0.951 . S
H2288 C2308 0.950 . S
H2289 C2309 0.950 . S
H2290 C2311 0.950 . S
H2291 C2314 0.950 . S
H2292 C2315 0.950 . S
H2293 C2317 0.950 . S
H2294 C2318 0.950 . S
H2295 C2319 0.951 . S
H2296 C2321 0.951 . S
H2297 C2323 0.950 . S
H2298 C2324 0.950 . S
H2299 C2326 0.950 . S
H2300 C2329 0.950 . S
H2301 C2330 0.950 . S
H2302 C2332 0.950 . S
H2303 C2333 0.950 . S
C2304 H2286 0.951 . S
C2304 C2305 1.366 . S
C2304 C2306 1.388 . S
C2305 C2304 1.366 . S
C2305 C2309 1.385 . S
C2306 H2287 0.951 . S
C2306 C2304 1.388 . S
C2306 C2307 1.366 . S
C2307 C2306 1.366 . S
C2307 C2308 1.414 . S
C2307 C2310 1.499 . S
C2308 H2288 0.950 . S
C2308 C2307 1.414 . S
C2308 C2309 1.374 . S
C2309 H2289 0.950 . S
C2309 C2305 1.385 . S
C2309 C2308 1.374 . S
C2310 C2307 1.499 . S
C2310 C2311 1.373 . S
C2310 C2312 1.389 . S
C2311 H2290 0.950 . S
C2311 C2310 1.373 . S
C2311 C2327 1.377 . S
C2312 C2310 1.389 . S
C2312 C2313 1.524 . S
C2312 C2326 1.377 . S
C2313 C2312 1.524 . S
C2313 C2314 1.397 . S
C2313 C2318 1.363 . S
C2314 H2291 0.950 . S
C2314 C2313 1.397 . S
C2314 C2315 1.334 . S
C2315 H2292 0.950 . S
C2315 C2314 1.334 . S
C2315 C2316 1.287 . S
C2316 C2315 1.287 . S
C2316 C2317 1.524 . S
C2316 H2335 0.913 . S
C2317 H2293 0.950 . S
C2317 C2316 1.524 . S
C2317 C2318 1.415 . S
C2318 H2294 0.950 . S
C2318 C2313 1.363 . S
C2318 C2317 1.415 . S
C2319 H2295 0.951 . S
C2319 C2320 1.366 . S
C2319 C2321 1.388 . S
C2320 C2319 1.366 . S
C2320 C2324 1.385 . S
C2321 H2296 0.951 . S
C2321 C2319 1.388 . S
C2321 C2322 1.366 . S
C2322 C2321 1.366 . S
C2322 C2323 1.414 . S
C2322 C2325 1.499 . S
C2323 H2297 0.950 . S
C2323 C2322 1.414 . S
C2323 C2324 1.374 . S
C2324 H2298 0.950 . S
C2324 C2320 1.385 . S
C2324 C2323 1.374 . S
C2325 C2322 1.499 . S
C2325 C2326 1.373 . S
C2325 C2327 1.389 . S
C2326 H2299 0.950 . S
C2326 C2312 1.377 . S
C2326 C2325 1.373 . S
C2327 C2311 1.377 . S
C2327 C2325 1.389 . S
C2327 C2328 1.524 . S
C2328 C2327 1.524 . S
C2328 C2329 1.397 . S
C2328 C2333 1.363 . S
C2329 H2300 0.950 . S
C2329 C2328 1.397 . S
C2329 C2330 1.334 . S
C2330 H2301 0.950 . S
C2330 C2329 1.334 . S
C2330 C2331 1.287 . S
C2331 C2330 1.287 . S
C2331 C2332 1.524 . S
C2331 H2334 0.999 . S
C2332 H2302 0.950 . S
C2332 C2331 1.524 . S
C2332 C2333 1.415 . S
C2333 H2303 0.950 . S
C2333 C2328 1.363 . S
C2333 C2332 1.415 . S
H2334 C2331 0.999 . S
H2335 C2316 0.913 . S
H2336 C2354 0.951 . S
H2337 C2356 0.951 . S
H2338 C2358 0.950 . S
H2339 C2359 0.950 . S
H2340 C2361 0.950 . S
H2341 C2364 0.950 . S
H2342 C2365 0.950 . S
H2343 C2367 0.950 . S
H2344 C2368 0.950 . S
H2345 C2369 0.951 . S
H2346 C2371 0.951 . S
H2347 C2373 0.950 . S
H2348 C2374 0.950 . S
H2349 C2376 0.950 . S
H2350 C2379 0.950 . S
H2351 C2380 0.950 . S
H2352 C2382 0.950 . S
H2353 C2383 0.950 . S
C2354 H2336 0.951 . S
C2354 C2355 1.366 . S
C2354 C2356 1.388 . S
C2355 C2354 1.366 . S
C2355 C2359 1.385 . S
C2356 H2337 0.951 . S
C2356 C2354 1.388 . S
C2356 C2357 1.366 . S
C2357 C2356 1.366 . S
C2357 C2358 1.414 . S
C2357 C2360 1.499 . S
C2358 H2338 0.950 . S
C2358 C2357 1.414 . S
C2358 C2359 1.374 . S
C2359 H2339 0.950 . S
C2359 C2355 1.385 . S
C2359 C2358 1.374 . S
C2360 C2357 1.499 . S
C2360 C2361 1.373 . S
C2360 C2362 1.389 . S
C2361 H2340 0.950 . S
C2361 C2360 1.373 . S
C2361 C2377 1.377 . S
C2362 C2360 1.389 . S
C2362 C2363 1.524 . S
C2362 C2376 1.377 . S
C2363 C2362 1.524 . S
C2363 C2364 1.397 . S
C2363 C2368 1.363 . S
C2364 H2341 0.950 . S
C2364 C2363 1.397 . S
C2364 C2365 1.334 . S
C2365 H2342 0.950 . S
C2365 C2364 1.334 . S
C2365 C2366 1.287 . S
C2366 C2365 1.287 . S
C2366 C2367 1.524 . S
C2366 H2385 0.913 . S
C2367 H2343 0.950 . S
C2367 C2366 1.524 . S
C2367 C2368 1.415 . S
C2368 H2344 0.950 . S
C2368 C2363 1.363 . S
C2368 C2367 1.415 . S
C2369 H2345 0.951 . S
C2369 C2370 1.366 . S
C2369 C2371 1.388 . S
C2370 C2369 1.366 . S
C2370 C2374 1.385 . S
C2371 H2346 0.951 . S
C2371 C2369 1.388 . S
C2371 C2372 1.366 . S
C2372 C2371 1.366 . S
C2372 C2373 1.414 . S
C2372 C2375 1.499 . S
C2373 H2347 0.950 . S
C2373 C2372 1.414 . S
C2373 C2374 1.374 . S
C2374 H2348 0.950 . S
C2374 C2370 1.385 . S
C2374 C2373 1.374 . S
C2375 C2372 1.499 . S
C2375 C2376 1.373 . S
C2375 C2377 1.389 . S
C2376 H2349 0.950 . S
C2376 C2362 1.377 . S
C2376 C2375 1.373 . S
C2377 C2361 1.377 . S
C2377 C2375 1.389 . S
C2377 C2378 1.524 . S
C2378 C2377 1.524 . S
C2378 C2379 1.397 . S
C2378 C2383 1.363 . S
C2379 H2350 0.950 . S
C2379 C2378 1.397 . S
C2379 C2380 1.334 . S
C2380 H2351 0.950 . S
C2380 C2379 1.334 . S
C2380 C2381 1.287 . S
C2381 C2380 1.287 . S
C2381 C2382 1.524 . S
C2381 H2384 0.999 . S
C2382 H2352 0.950 . S
C2382 C2381 1.524 . S
C2382 C2383 1.415 . S
C2383 H2353 0.950 . S
C2383 C2378 1.363 . S
C2383 C2382 1.415 . S
H2384 C2381 0.999 . S
H2385 C2366 0.913 . S
H2386 C2404 0.951 . S
H2387 C2406 0.951 . S
H2388 C2408 0.950 . S
H2389 C2409 0.950 . S
H2390 C2411 0.950 . S
H2391 C2414 0.950 . S
H2392 C2415 0.950 . S
H2393 C2417 0.950 . S
H2394 C2418 0.950 . S
H2395 C2419 0.951 . S
H2396 C2421 0.951 . S
H2397 C2423 0.950 . S
H2398 C2424 0.950 . S
H2399 C2426 0.950 . S
H2400 C2429 0.950 . S
H2401 C2430 0.950 . S
H2402 C2432 0.950 . S
H2403 C2433 0.950 . S
C2404 H2386 0.951 . S
C2404 C2405 1.366 . S
C2404 C2406 1.388 . S
C2405 C2404 1.366 . S
C2405 C2409 1.385 . S
C2406 H2387 0.951 . S
C2406 C2404 1.388 . S
C2406 C2407 1.366 . S
C2407 C2406 1.366 . S
C2407 C2408 1.414 . S
C2407 C2410 1.499 . S
C2408 H2388 0.950 . S
C2408 C2407 1.414 . S
C2408 C2409 1.374 . S
C2409 H2389 0.950 . S
C2409 C2405 1.385 . S
C2409 C2408 1.374 . S
C2410 C2407 1.499 . S
C2410 C2411 1.373 . S
C2410 C2412 1.389 . S
C2411 H2390 0.950 . S
C2411 C2410 1.373 . S
C2411 C2427 1.377 . S
C2412 C2410 1.389 . S
C2412 C2413 1.524 . S
C2412 C2426 1.377 . S
C2413 C2412 1.524 . S
C2413 C2414 1.397 . S
C2413 C2418 1.363 . S
C2414 H2391 0.950 . S
C2414 C2413 1.397 . S
C2414 C2415 1.334 . S
C2415 H2392 0.950 . S
C2415 C2414 1.334 . S
C2415 C2416 1.287 . S
C2416 C2415 1.287 . S
C2416 C2417 1.524 . S
C2416 H2435 0.913 . S
C2417 H2393 0.950 . S
C2417 C2416 1.524 . S
C2417 C2418 1.415 . S
C2418 H2394 0.950 . S
C2418 C2413 1.363 . S
C2418 C2417 1.415 . S
C2419 H2395 0.951 . S
C2419 C2420 1.366 . S
C2419 C2421 1.388 . S
C2420 C2419 1.366 . S
C2420 C2424 1.385 . S
C2421 H2396 0.951 . S
C2421 C2419 1.388 . S
C2421 C2422 1.366 . S
C2422 C2421 1.366 . S
C2422 C2423 1.414 . S
C2422 C2425 1.499 . S
C2423 H2397 0.950 . S
C2423 C2422 1.414 . S
C2423 C2424 1.374 . S
C2424 H2398 0.950 . S
C2424 C2420 1.385 . S
C2424 C2423 1.374 . S
C2425 C2422 1.499 . S
C2425 C2426 1.373 . S
C2425 C2427 1.389 . S
C2426 H2399 0.950 . S
C2426 C2412 1.377 . S
C2426 C2425 1.373 . S
C2427 C2411 1.377 . S
C2427 C2425 1.389 . S
C2427 C2428 1.524 . S
C2428 C2427 1.524 . S
C2428 C2429 1.397 . S
C2428 C2433 1.363 . S
C2429 H2400 0.950 . S
C2429 C2428 1.397 . S
C2429 C2430 1.334 . S
C2430 H2401 0.950 . S
C2430 C2429 1.334 . S
C2430 C2431 1.287 . S
C2431 C2430 1.287 . S
C2431 C2432 1.524 . S
C2431 H2434 0.999 . S
C2432 H2402 0.950 . S
C2432 C2431 1.524 . S
C2432 C2433 1.415 . S
C2433 H2403 0.950 . S
C2433 C2428 1.363 . S
C2433 C2432 1.415 . S
H2434 C2431 0.999 . S
H2435 C2416 0.913 . S
H2436 C2454 0.951 . S
H2437 C2456 0.951 . S
H2438 C2458 0.950 . S
H2439 C2459 0.950 . S
H2440 C2461 0.950 . S
H2441 C2464 0.950 . S
H2442 C2465 0.950 . S
H2443 C2467 0.950 . S
H2444 C2468 0.950 . S
H2445 C2469 0.951 . S
H2446 C2471 0.951 . S
H2447 C2473 0.950 . S
H2448 C2474 0.950 . S
H2449 C2476 0.950 . S
H2450 C2479 0.950 . S
H2451 C2480 0.950 . S
H2452 C2482 0.950 . S
H2453 C2483 0.950 . S
C2454 H2436 0.951 . S
C2454 C2455 1.366 . S
C2454 C2456 1.388 . S
C2455 C2454 1.366 . S
C2455 C2459 1.385 . S
C2456 H2437 0.951 . S
C2456 C2454 1.388 . S
C2456 C2457 1.366 . S
C2457 C2456 1.366 . S
C2457 C2458 1.414 . S
C2457 C2460 1.499 . S
C2458 H2438 0.950 . S
C2458 C2457 1.414 . S
C2458 C2459 1.374 . S
C2459 H2439 0.950 . S
C2459 C2455 1.385 . S
C2459 C2458 1.374 . S
C2460 C2457 1.499 . S
C2460 C2461 1.373 . S
C2460 C2462 1.389 . S
C2461 H2440 0.950 . S
C2461 C2460 1.373 . S
C2461 C2477 1.377 . S
C2462 C2460 1.389 . S
C2462 C2463 1.524 . S
C2462 C2476 1.377 . S
C2463 C2462 1.524 . S
C2463 C2464 1.397 . S
C2463 C2468 1.363 . S
C2464 H2441 0.950 . S
C2464 C2463 1.397 . S
C2464 C2465 1.334 . S
C2465 H2442 0.950 . S
C2465 C2464 1.334 . S
C2465 C2466 1.287 . S
C2466 C2465 1.287 . S
C2466 C2467 1.524 . S
C2466 H2485 0.913 . S
C2467 H2443 0.950 . S
C2467 C2466 1.524 . S
C2467 C2468 1.415 . S
C2468 H2444 0.950 . S
C2468 C2463 1.363 . S
C2468 C2467 1.415 . S
C2469 H2445 0.951 . S
C2469 C2470 1.366 . S
C2469 C2471 1.388 . S
C2470 C2469 1.366 . S
C2470 C2474 1.385 . S
C2471 H2446 0.951 . S
C2471 C2469 1.388 . S
C2471 C2472 1.366 . S
C2472 C2471 1.366 . S
C2472 C2473 1.414 . S
C2472 C2475 1.499 . S
C2473 H2447 0.950 . S
C2473 C2472 1.414 . S
C2473 C2474 1.374 . S
C2474 H2448 0.950 . S
C2474 C2470 1.385 . S
C2474 C2473 1.374 . S
C2475 C2472 1.499 . S
C2475 C2476 1.373 . S
C2475 C2477 1.389 . S
C2476 H2449 0.950 . S
C2476 C2462 1.377 . S
C2476 C2475 1.373 . S
C2477 C2461 1.377 . S
C2477 C2475 1.389 . S
C2477 C2478 1.524 . S
C2478 C2477 1.524 . S
C2478 C2479 1.397 . S
C2478 C2483 1.363 . S
C2479 H2450 0.950 . S
C2479 C2478 1.397 . S
C2479 C2480 1.334 . S
C2480 H2451 0.950 . S
C2480 C2479 1.334 . S
C2480 C2481 1.287 . S
C2481 C2480 1.287 . S
C2481 C2482 1.524 . S
C2481 H2484 0.999 . S
C2482 H2452 0.950 . S
C2482 C2481 1.524 . S
C2482 C2483 1.415 . S
C2483 H2453 0.950 . S
C2483 C2478 1.363 . S
C2483 C2482 1.415 . S
H2484 C2481 0.999 . S
H2485 C2466 0.913 . S
H2486 C2504 0.951 . S
H2487 C2506 0.951 . S
H2488 C2508 0.950 . S
H2489 C2509 0.950 . S
H2490 C2511 0.950 . S
H2491 C2514 0.950 . S
H2492 C2515 0.950 . S
H2493 C2517 0.950 . S
H2494 C2518 0.950 . S
H2495 C2519 0.951 . S
H2496 C2521 0.951 . S
H2497 C2523 0.950 . S
H2498 C2524 0.950 . S
H2499 C2526 0.950 . S
H2500 C2529 0.950 . S
H2501 C2530 0.950 . S
H2502 C2532 0.950 . S
H2503 C2533 0.950 . S
C2504 H2486 0.951 . S
C2504 C2505 1.366 . S
C2504 C2506 1.388 . S
C2505 C2504 1.366 . S
C2505 C2509 1.385 . S
C2506 H2487 0.951 . S
C2506 C2504 1.388 . S
C2506 C2507 1.366 . S
C2507 C2506 1.366 . S
C2507 C2508 1.414 . S
C2507 C2510 1.499 . S
C2508 H2488 0.950 . S
C2508 C2507 1.414 . S
C2508 C2509 1.374 . S
C2509 H2489 0.950 . S
C2509 C2505 1.385 . S
C2509 C2508 1.374 . S
C2510 C2507 1.499 . S
C2510 C2511 1.373 . S
C2510 C2512 1.389 . S
C2511 H2490 0.950 . S
C2511 C2510 1.373 . S
C2511 C2527 1.377 . S
C2512 C2510 1.389 . S
C2512 C2513 1.524 . S
C2512 C2526 1.377 . S
C2513 C2512 1.524 . S
C2513 C2514 1.397 . S
C2513 C2518 1.363 . S
C2514 H2491 0.950 . S
C2514 C2513 1.397 . S
C2514 C2515 1.334 . S
C2515 H2492 0.950 . S
C2515 C2514 1.334 . S
C2515 C2516 1.287 . S
C2516 C2515 1.287 . S
C2516 C2517 1.524 . S
C2516 H2535 0.913 . S
C2517 H2493 0.950 . S
C2517 C2516 1.524 . S
C2517 C2518 1.415 . S
C2518 H2494 0.950 . S
C2518 C2513 1.363 . S
C2518 C2517 1.415 . S
C2519 H2495 0.951 . S
C2519 C2520 1.366 . S
C2519 C2521 1.388 . S
C2520 C2519 1.366 . S
C2520 C2524 1.385 . S
C2521 H2496 0.951 . S
C2521 C2519 1.388 . S
C2521 C2522 1.366 . S
C2522 C2521 1.366 . S
C2522 C2523 1.414 . S
C2522 C2525 1.499 . S
C2523 H2497 0.950 . S
C2523 C2522 1.414 . S
C2523 C2524 1.374 . S
C2524 H2498 0.950 . S
C2524 C2520 1.385 . S
C2524 C2523 1.374 . S
C2525 C2522 1.499 . S
C2525 C2526 1.373 . S
C2525 C2527 1.389 . S
C2526 H2499 0.950 . S
C2526 C2512 1.377 . S
C2526 C2525 1.373 . S
C2527 C2511 1.377 . S
C2527 C2525 1.389 . S
C2527 C2528 1.524 . S
C2528 C2527 1.524 . S
C2528 C2529 1.397 . S
C2528 C2533 1.363 . S
C2529 H2500 0.950 . S
C2529 C2528 1.397 . S
C2529 C2530 1.334 . S
C2530 H2501 0.950 . S
C2530 C2529 1.334 . S
C2530 C2531 1.287 . S
C2531 C2530 1.287 . S
C2531 C2532 1.524 . S
C2531 H2534 0.999 . S
C2532 H2502 0.950 . S
C2532 C2531 1.524 . S
C2532 C2533 1.415 . S
C2533 H2503 0.950 . S
C2533 C2528 1.363 . S
C2533 C2532 1.415 . S
H2534 C2531 0.999 . S
H2535 C2516 0.913 . S
H2536 C2554 0.951 . S
H2537 C2556 0.951 . S
H2538 C2558 0.950 . S
H2539 C2559 0.950 . S
H2540 C2561 0.950 . S
H2541 C2564 0.950 . S
H2542 C2565 0.950 . S
H2543 C2567 0.950 . S
H2544 C2568 0.950 . S
H2545 C2569 0.951 . S
H2546 C2571 0.951 . S
H2547 C2573 0.950 . S
H2548 C2574 0.950 . S
H2549 C2576 0.950 . S
H2550 C2579 0.950 . S
H2551 C2580 0.950 . S
H2552 C2582 0.950 . S
H2553 C2583 0.950 . S
C2554 H2536 0.951 . S
C2554 C2555 1.366 . S
C2554 C2556 1.388 . S
C2555 C2554 1.366 . S
C2555 C2559 1.385 . S
C2556 H2537 0.951 . S
C2556 C2554 1.388 . S
C2556 C2557 1.366 . S
C2557 C2556 1.366 . S
C2557 C2558 1.414 . S
C2557 C2560 1.499 . S
C2558 H2538 0.950 . S
C2558 C2557 1.414 . S
C2558 C2559 1.374 . S
C2559 H2539 0.950 . S
C2559 C2555 1.385 . S
C2559 C2558 1.374 . S
C2560 C2557 1.499 . S
C2560 C2561 1.373 . S
C2560 C2562 1.389 . S
C2561 H2540 0.950 . S
C2561 C2560 1.373 . S
C2561 C2577 1.377 . S
C2562 C2560 1.389 . S
C2562 C2563 1.524 . S
C2562 C2576 1.377 . S
C2563 C2562 1.524 . S
C2563 C2564 1.397 . S
C2563 C2568 1.363 . S
C2564 H2541 0.950 . S
C2564 C2563 1.397 . S
C2564 C2565 1.334 . S
C2565 H2542 0.950 . S
C2565 C2564 1.334 . S
C2565 C2566 1.287 . S
C2566 C2565 1.287 . S
C2566 C2567 1.524 . S
C2566 H2585 0.913 . S
C2567 H2543 0.950 . S
C2567 C2566 1.524 . S
C2567 C2568 1.415 . S
C2568 H2544 0.950 . S
C2568 C2563 1.363 . S
C2568 C2567 1.415 . S
C2569 H2545 0.951 . S
C2569 C2570 1.366 . S
C2569 C2571 1.388 . S
C2570 C2569 1.366 . S
C2570 C2574 1.385 . S
C2571 H2546 0.951 . S
C2571 C2569 1.388 . S
C2571 C2572 1.366 . S
C2572 C2571 1.366 . S
C2572 C2573 1.414 . S
C2572 C2575 1.499 . S
C2573 H2547 0.950 . S
C2573 C2572 1.414 . S
C2573 C2574 1.374 . S
C2574 H2548 0.950 . S
C2574 C2570 1.385 . S
C2574 C2573 1.374 . S
C2575 C2572 1.499 . S
C2575 C2576 1.373 . S
C2575 C2577 1.389 . S
C2576 H2549 0.950 . S
C2576 C2562 1.377 . S
C2576 C2575 1.373 . S
C2577 C2561 1.377 . S
C2577 C2575 1.389 . S
C2577 C2578 1.524 . S
C2578 C2577 1.524 . S
C2578 C2579 1.397 . S
C2578 C2583 1.363 . S
C2579 H2550 0.950 . S
C2579 C2578 1.397 . S
C2579 C2580 1.334 . S
C2580 H2551 0.950 . S
C2580 C2579 1.334 . S
C2580 C2581 1.287 . S
C2581 C2580 1.287 . S
C2581 C2582 1.524 . S
C2581 H2584 0.999 . S
C2582 H2552 0.950 . S
C2582 C2581 1.524 . S
C2582 C2583 1.415 . S
C2583 H2553 0.950 . S
C2583 C2578 1.363 . S
C2583 C2582 1.415 . S
H2584 C2581 0.999 . S
H2585 C2566 0.913 . S
H2586 C2604 0.951 . S
H2587 C2606 0.951 . S
H2588 C2608 0.950 . S
H2589 C2609 0.950 . S
H2590 C2611 0.950 . S
H2591 C2614 0.950 . S
H2592 C2615 0.950 . S
H2593 C2617 0.950 . S
H2594 C2618 0.950 . S
H2595 C2619 0.951 . S
H2596 C2621 0.951 . S
H2597 C2623 0.950 . S
H2598 C2624 0.950 . S
H2599 C2626 0.950 . S
H2600 C2629 0.950 . S
H2601 C2630 0.950 . S
H2602 C2632 0.950 . S
H2603 C2633 0.950 . S
C2604 H2586 0.951 . S
C2604 C2605 1.366 . S
C2604 C2606 1.388 . S
C2605 C2604 1.366 . S
C2605 C2609 1.385 . S
C2606 H2587 0.951 . S
C2606 C2604 1.388 . S
C2606 C2607 1.366 . S
C2607 C2606 1.366 . S
C2607 C2608 1.414 . S
C2607 C2610 1.499 . S
C2608 H2588 0.950 . S
C2608 C2607 1.414 . S
C2608 C2609 1.374 . S
C2609 H2589 0.950 . S
C2609 C2605 1.385 . S
C2609 C2608 1.374 . S
C2610 C2607 1.499 . S
C2610 C2611 1.373 . S
C2610 C2612 1.389 . S
C2611 H2590 0.950 . S
C2611 C2610 1.373 . S
C2611 C2627 1.377 . S
C2612 C2610 1.389 . S
C2612 C2613 1.524 . S
C2612 C2626 1.377 . S
C2613 C2612 1.524 . S
C2613 C2614 1.397 . S
C2613 C2618 1.363 . S
C2614 H2591 0.950 . S
C2614 C2613 1.397 . S
C2614 C2615 1.334 . S
C2615 H2592 0.950 . S
C2615 C2614 1.334 . S
C2615 C2616 1.287 . S
C2616 C2615 1.287 . S
C2616 C2617 1.524 . S
C2616 H2635 0.913 . S
C2617 H2593 0.950 . S
C2617 C2616 1.524 . S
C2617 C2618 1.415 . S
C2618 H2594 0.950 . S
C2618 C2613 1.363 . S
C2618 C2617 1.415 . S
C2619 H2595 0.951 . S
C2619 C2620 1.366 . S
C2619 C2621 1.388 . S
C2620 C2619 1.366 . S
C2620 C2624 1.385 . S
C2621 H2596 0.951 . S
C2621 C2619 1.388 . S
C2621 C2622 1.366 . S
C2622 C2621 1.366 . S
C2622 C2623 1.414 . S
C2622 C2625 1.499 . S
C2623 H2597 0.950 . S
C2623 C2622 1.414 . S
C2623 C2624 1.374 . S
C2624 H2598 0.950 . S
C2624 C2620 1.385 . S
C2624 C2623 1.374 . S
C2625 C2622 1.499 . S
C2625 C2626 1.373 . S
C2625 C2627 1.389 . S
C2626 H2599 0.950 . S
C2626 C2612 1.377 . S
C2626 C2625 1.373 . S
C2627 C2611 1.377 . S
C2627 C2625 1.389 . S
C2627 C2628 1.524 . S
C2628 C2627 1.524 . S
C2628 C2629 1.397 . S
C2628 C2633 1.363 . S
C2629 H2600 0.950 . S
C2629 C2628 1.397 . S
C2629 C2630 1.334 . S
C2630 H2601 0.950 . S
C2630 C2629 1.334 . S
C2630 C2631 1.287 . S
C2631 C2630 1.287 . S
C2631 C2632 1.524 . S
C2631 H2634 0.999 . S
C2632 H2602 0.950 . S
C2632 C2631 1.524 . S
C2632 C2633 1.415 . S
C2633 H2603 0.950 . S
C2633 C2628 1.363 . S
C2633 C2632 1.415 . S
H2634 C2631 0.999 . S
H2635 C2616 0.913 . S
C1070 C972 1.923 . S
C1055 C11 1.317 . S
C1105 C143 1.417 . S
C1120 C975 1.772 . S
C1155 C283 1.364 . S
C1170 C1006 1.874 . S
C1220 C941 1.723 . S
C1205 C343 1.456 . S
C1270 C976 1.981 . S
C1255 C55 1.475 . S
C1320 C1007 1.705 . S
C1305 C115 1.440 . S
C1370 C932 1.815 . S
C1355 C239 1.227 . S
C1420 C963 1.791 . S
C1405 C371 1.433 . S
C1455 C29 0.890 . S
C1470 C993 0.969 . S
C1505 C467 0.708 . S
C1520 C962 1.076 . S
C1555 C229 0.765 . S
C1570 C922 0.852 . S
C1620 C1015 1.127 . S
C1605 C625 0.905 . S
C1670 C943 0.910 . S
C1655 C1 0.800 . S
C1705 C511 0.896 . S
C1720 C942 1.114 . S
C1755 C257 0.836 . S
C1770 C1035 0.917 . S
C1820 C974 1.090 . S
C1805 C581 0.707 1_545 S
C1855 C713 1.500 . S
C1870 C1034 1.852 . S
C1905 C485 1.411 . S
C1920 C913 1.765 . S
C1955 C799 1.374 . S
C1970 C944 1.645 . S
C2005 C571 1.442 . S
C2020 C1003 1.704 . S
C2070 C914 1.750 . S
C2055 C685 1.473 . S
C2105 C457 1.436 . S
C2120 C945 1.698 . S
C2155 C827 1.392 . S
C2170 C994 1.749 . S
C2220 C1025 1.774 . S
C2205 C599 1.418 . S
C2255 C695 0.716 . S
C2270 C931 1.111 . S
C2305 C125 0.709 . S
C2320 C1024 1.101 . S
C2355 C853 0.901 . S
C2370 C984 1.120 . S
C2420 C953 1.155 . S
C2405 C397 0.924 . S
C2470 C1005 1.149 . S
C2455 C739 0.948 . S
C2520 C1004 1.139 . S
C2505 C169 0.913 . S
C2570 C973 1.072 . S
C2555 C809 0.696 . S
C2620 C912 1.117 . S
C2605 C353 0.714 . S
