# Generated by pormake.
# Topology zzz, (3,6)-cn, num edge types: 1
# Building blocks:
#     Node 0, Type 0, BuildingBlock: MIDCAF_clean_linker_0, # of connection points: 3
#     Node 1, Type 0, BuildingBlock: MIDCAF_clean_linker_0, # of connection points: 3
#     Node 2, Type 0, BuildingBlock: MIDCAF_clean_linker_0, # of connection points: 3
#     Node 3, Type 0, BuildingBlock: MIDCAF_clean_linker_0, # of connection points: 3
#     Node 4, Type 0, BuildingBlock: MIDCAF_clean_linker_0, # of connection points: 3
#     Node 5, Type 0, BuildingBlock: MIDCAF_clean_linker_0, # of connection points: 3
#     Node 6, Type 0, BuildingBlock: MIDCAF_clean_linker_0, # of connection points: 3
#     Node 7, Type 0, BuildingBlock: MIDCAF_clean_linker_0, # of connection points: 3
#     Node 8, Type 1, BuildingBlock: BETDIP_clean_sbu_0, # of connection points: 6
#     Node 9, Type 1, BuildingBlock: BETDIP_clean_sbu_0, # of connection points: 6
#     Node 10, Type 1, BuildingBlock: BETDIP_clean_sbu_0, # of connection points: 6
#     Node 11, Type 1, BuildingBlock: BETDIP_clean_sbu_0, # of connection points: 6
#     Edge 12, Type (0, 1), BuildingBlock: KIFKEQ_clean_linker_1, # of connection points: 2
#     Edge 13, Type (0, 1), BuildingBlock: KIFKEQ_clean_linker_1, # of connection points: 2
#     Edge 14, Type (0, 1), BuildingBlock: KIFKEQ_clean_linker_1, # of connection points: 2
#     Edge 15, Type (0, 1), BuildingBlock: KIFKEQ_clean_linker_1, # of connection points: 2
#     Edge 16, Type (0, 1), BuildingBlock: KIFKEQ_clean_linker_1, # of connection points: 2
#     Edge 17, Type (0, 1), BuildingBlock: KIFKEQ_clean_linker_1, # of connection points: 2
#     Edge 18, Type (0, 1), BuildingBlock: KIFKEQ_clean_linker_1, # of connection points: 2
#     Edge 19, Type (0, 1), BuildingBlock: KIFKEQ_clean_linker_1, # of connection points: 2
#     Edge 20, Type (0, 1), BuildingBlock: KIFKEQ_clean_linker_1, # of connection points: 2
#     Edge 21, Type (0, 1), BuildingBlock: KIFKEQ_clean_linker_1, # of connection points: 2
#     Edge 22, Type (0, 1), BuildingBlock: KIFKEQ_clean_linker_1, # of connection points: 2
#     Edge 23, Type (0, 1), BuildingBlock: KIFKEQ_clean_linker_1, # of connection points: 2
#     Edge 24, Type (0, 1), BuildingBlock: KIFKEQ_clean_linker_1, # of connection points: 2
#     Edge 25, Type (0, 1), BuildingBlock: KIFKEQ_clean_linker_1, # of connection points: 2
#     Edge 26, Type (0, 1), BuildingBlock: KIFKEQ_clean_linker_1, # of connection points: 2
#     Edge 27, Type (0, 1), BuildingBlock: KIFKEQ_clean_linker_1, # of connection points: 2
#     Edge 28, Type (0, 1), BuildingBlock: KIFKEQ_clean_linker_1, # of connection points: 2
#     Edge 29, Type (0, 1), BuildingBlock: KIFKEQ_clean_linker_1, # of connection points: 2
#     Edge 30, Type (0, 1), BuildingBlock: KIFKEQ_clean_linker_1, # of connection points: 2
#     Edge 31, Type (0, 1), BuildingBlock: KIFKEQ_clean_linker_1, # of connection points: 2
#     Edge 32, Type (0, 1), BuildingBlock: KIFKEQ_clean_linker_1, # of connection points: 2
#     Edge 33, Type (0, 1), BuildingBlock: KIFKEQ_clean_linker_1, # of connection points: 2
#     Edge 34, Type (0, 1), BuildingBlock: KIFKEQ_clean_linker_1, # of connection points: 2
#     Edge 35, Type (0, 1), BuildingBlock: KIFKEQ_clean_linker_1, # of connection points: 2
# Relax obj value: 0.442
# Max RMSD: 0.266
# Mean RMSD: 0.243
data_MOF--net-zzz--node1-BETDIP_clean_sbu_0--node2-MIDCAF_clean_linker_0--edge1-KIFKEQ_clean_linker_1
_symmetry_space_group_name_H-M    P1
_symmetry_Int_Tables_number       1
_symmetry_cell_setting            triclinic
loop_
_symmetry_equiv_pos_as_xyz
'x, y, z'
_cell_length_a     59.045375
_cell_length_b     59.074491
_cell_length_c     18.547562
_cell_angle_alpha  89.819149
_cell_angle_beta   90.080416
_cell_angle_gamma 90.181113
loop_
_atom_site_label
_atom_site_type_symbol
_atom_site_fract_x
_atom_site_fract_y
_atom_site_fract_z
_atom_type_partial_charge
C0 C 0.79595 0.49321 0.4483 0.0
C1 C 0.79818 0.51301 0.48951 0.0
C2 C 0.78149 0.52994 0.48211 0.0
C3 C 0.76358 0.52742 0.43246 0.0
H4 H 0.6902 0.55003 0.26276 0.0
H5 H 0.6528 0.55653 0.20938 0.0
H6 H 0.64092 0.48425 0.20738 0.0
H7 H 0.67767 0.4782 0.26245 0.0
H8 H 0.72212 0.47156 0.09643 0.0
H9 H 0.73976 0.45754 0.98516 0.0
H10 H 0.8028 0.48923 0.04697 0.0
H11 H 0.78559 0.50267 0.15792 0.0
H12 H 0.77784 0.47575 0.36557 0.0
H13 H 0.80852 0.47993 0.45148 0.0
H14 H 0.78259 0.54535 0.51339 0.0
H15 H 0.75155 0.54106 0.42549 0.0
N16 N 0.72439 0.51214 0.32881 0.0
N17 N 0.72028 0.50085 0.20756 0.0
N18 N 0.75568 0.49881 0.26296 0.0
C19 C 0.71108 0.50899 0.26915 0.0
C20 C 0.74256 0.49599 0.20382 0.0
C21 C 0.74688 0.50666 0.32563 0.0
C22 C 0.6866 0.51365 0.26772 0.0
C23 C 0.67896 0.53573 0.25457 0.0
C24 C 0.65771 0.53936 0.22251 0.0
C25 C 0.64387 0.52091 0.20233 0.0
C26 C 0.65079 0.49898 0.22235 0.0
C27 C 0.67191 0.49543 0.25447 0.0
C28 C 0.75258 0.48807 0.1358 0.0
C29 C 0.7397 0.47561 0.08573 0.0
C30 C 0.7497 0.46764 0.0223 0.0
C31 C 0.77245 0.47264 1.00742 0.0
C32 C 0.78509 0.48551 0.05679 0.0
C33 C 0.77532 0.49298 0.12059 0.0
C34 C 0.76229 0.50809 0.38871 0.0
C35 C 0.77836 0.49085 0.39858 0.0
C36 C 0.9681 0.81843 0.42433 0.0
C37 C 0.98167 0.82073 0.48631 0.0
C38 C 0.99519 0.8022 0.50748 0.0
C39 C 0.99613 0.78248 0.4652 0.0
H40 H 0.95842 0.70175 0.31838 0.0
H41 H 0.95353 0.66345 0.27033 0.0
H42 H 0.02545 0.66037 0.22768 0.0
H43 H 0.0301 0.69786 0.27784 0.0
H44 H 0.03604 0.74074 0.13548 0.0
H45 H 0.05166 0.758 0.02566 0.0
H46 H 1.00883 0.81625 0.05703 0.0
H47 H 0.99359 0.79938 0.16652 0.0
H48 H 0.95992 0.79846 0.3316 0.0
H49 H 0.95768 0.83232 0.4057 0.0
H50 H 1.00571 0.80329 0.55522 0.0
H51 H 1.00783 0.76916 0.48008 0.0
N52 N 0.98919 0.74155 0.354 0.0
N53 N 1.00467 0.73673 0.23797 0.0
N54 N 0.99788 0.77312 0.28093 0.0
C55 C 0.99652 0.72763 0.29991 0.0
C56 C 1.00527 0.75934 0.22789 0.0
C57 C 0.99012 0.76454 0.34423 0.0
C58 C 0.99465 0.70269 0.30223 0.0
C59 C 0.97326 0.69227 0.30248 0.0
C60 C 0.97046 0.67049 0.27334 0.0
C61 C 0.98899 0.65883 0.24304 0.0
C62 C 1.0107 0.66847 0.25047 0.0
C63 C 1.01346 0.69008 0.27968 0.0
C64 C 1.01376 0.76887 0.15965 0.0
C65 C 0.02982 0.75712 0.11823 0.0
C66 C 0.03872 0.7669 0.05557 0.0
C67 C 0.03121 0.78824 0.03268 0.0
C68 C 1.01459 0.79956 0.07287 0.0
C69 C 1.00608 0.79005 0.13599 0.0
C70 C 0.98376 0.78102 0.40065 0.0
C71 C 0.96929 0.79894 0.38186 0.0
C72 C 0.7258 0.99678 0.48534 0.0
C73 C 0.7143 0.01759 0.49065 0.0
C74 C 0.72363 0.03666 0.45603 0.0
C75 C 0.74264 0.03458 0.41177 0.0
H76 H 0.83586 0.02989 0.32994 0.0
H77 H 0.87418 0.03113 0.27957 0.0
H78 H 0.86052 0.9692 0.1638 0.0
H79 H 0.8227 0.96799 0.215 0.0
H80 H 0.7898 0.03044 0.09133 0.0
H81 H 0.77115 0.04405 0.9813 0.0
H82 H 0.70687 0.02021 0.06272 0.0
H83 H 0.72527 1.00708 0.17282 0.0
H84 H 0.75235 0.97818 0.43275 0.0
H85 H 0.71901 0.98174 0.511 0.0
H86 H 0.71548 0.05301 0.45993 0.0
H87 H 0.74832 0.04922 0.38132 0.0
N88 N 0.78978 1.00507 0.34089 0.0
N89 N 0.79164 1.00691 0.21403 0.0
N90 N 0.7574 1.01398 0.27214 0.0
C91 C 0.8019 1.00313 0.27839 0.0
C92 C 0.76946 1.01228 0.21044 0.0
C93 C 0.76726 1.01035 0.33725 0.0
C94 C 0.82644 0.99876 0.27667 0.0
C95 C 0.84161 1.01591 0.29709 0.0
C96 C 0.86341 0.01679 0.26713 0.0
C97 C 0.87034 1.00054 0.2162 0.0
C98 C 0.85597 0.98197 0.2029 0.0
C99 C 0.83424 0.98118 0.23254 0.0
C100 C 0.75889 0.01786 0.14067 0.0
C101 C 0.77175 0.02776 0.08499 0.0
C102 C 0.76115 0.03556 0.02223 0.0
C103 C 0.73768 0.03301 0.0136 0.0
C104 C 0.72507 0.02208 0.06772 0.0
C105 C 0.73554 1.01475 0.13093 0.0
C106 C 0.753 1.01348 0.40175 0.0
C107 C 0.74498 0.99474 0.44097 0.0
C108 C 0.59894 0.73791 0.16747 0.0
C109 C 0.5935 0.74312 0.09542 0.0
C110 C 0.58636 0.76525 0.0788 0.0
C111 C 0.58133 0.7805 0.13401 0.0
H112 H 0.51194 0.82391 0.20795 0.0
H113 H 0.50371 0.86017 0.15004 0.0
H114 H 0.55287 0.89286 0.28795 0.0
H115 H 0.56114 0.85632 0.34508 0.0
H116 H 0.50623 0.77099 0.40805 0.0
H117 H 0.4949 0.73721 0.4768 0.0
H118 H 0.565 0.72464 0.52971 0.0
H119 H 0.57612 0.75809 0.46122 0.0
H120 H 0.59654 0.74774 0.27769 0.0
H121 H 0.60459 0.72116 0.18291 0.0
H122 H 0.5827 0.77008 0.02365 0.0
H123 H 0.57367 0.79655 0.1198 0.0
N124 N 0.56147 0.80626 0.25149 0.0
N125 N 0.54012 0.80314 0.35852 0.0
N126 N 0.56487 0.77409 0.32389 0.0
C127 C 0.54656 0.81526 0.29907 0.0
C128 C 0.54967 0.78248 0.37135 0.0
C129 C 0.5708 0.78568 0.26374 0.0
C130 C 0.53684 0.83751 0.28167 0.0
C131 C 0.52023 0.83906 0.22778 0.0
C132 C 0.5156 0.85984 0.19454 0.0
C133 C 0.52777 0.87945 0.21385 0.0
C134 C 0.54336 0.87806 0.27125 0.0
C135 C 0.5479 0.85725 0.30469 0.0
C136 C 0.54203 0.76723 0.42987 0.0
C137 C 0.51904 0.7615 0.43696 0.0
C138 C 0.51262 0.74197 0.47538 0.0
C139 C 0.52907 0.72807 0.50813 0.0
C140 C 0.55186 0.73498 0.50576 0.0
C141 C 0.55825 0.75421 0.46664 0.0
C142 C 0.58351 0.77385 0.20652 0.0
C143 C 0.59406 0.75315 0.22238 0.0
C144 C 0.22113 0.51539 0.97382 0.0
C145 C 0.21 0.49724 0.93941 0.0
C146 C 0.22064 0.47594 0.93925 0.0
C147 C 0.24058 0.47235 0.97843 0.0
H148 H 0.31934 0.52652 0.13795 0.0
H149 H 0.35475 0.53714 0.1986 0.0
H150 H 0.36932 0.46639 0.23549 0.0
H151 H 0.33438 0.45609 0.17445 0.0
H152 H 0.28367 0.46924 0.33494 0.0
H153 H 0.26073 0.46876 0.444 0.0
H154 H 0.20156 0.45257 0.31663 0.0
H155 H 0.22437 0.45271 0.20826 0.0
H156 H 0.24829 0.52553 0.04415 0.0
H157 H 0.21342 0.53198 0.97558 0.0
H158 H 0.21286 0.46168 0.91217 0.0
H159 H 0.24724 0.45532 0.98252 0.0
N160 N 0.28786 0.49007 0.08201 0.0
N161 N 0.2899 0.47395 0.19823 0.0
N162 N 0.25559 0.47377 0.13604 0.0
C163 C 0.30022 0.48431 0.14171 0.0
C164 C 0.26761 0.46874 0.19614 0.0
C165 C 0.26545 0.4842 0.07889 0.0
C166 C 0.32426 0.4905 0.15121 0.0
C167 C 0.33075 0.51331 0.15586 0.0
C168 C 0.35085 0.51935 0.19169 0.0
C169 C 0.36476 0.50264 0.22325 0.0
C170 C 0.35924 0.47976 0.2117 0.0
C171 C 0.33919 0.4738 0.17646 0.0
C172 C 0.25567 0.4617 0.26259 0.0
C173 C 0.26592 0.46478 0.33044 0.0
C174 C 0.25278 0.46459 0.39305 0.0
C175 C 0.22928 0.46112 0.38882 0.0
C176 C 0.21963 0.45528 0.32201 0.0
C177 C 0.2327 0.45557 0.25952 0.0
C178 C 0.25063 0.49002 0.01756 0.0
C179 C 0.24124 0.51178 1.0127 0.0
C180 C 1.00848 0.24315 0.97868 0.0
C181 C 0.0248 0.23244 0.93517 0.0
C182 C 0.04591 0.24313 0.92587 0.0
C183 C 0.05142 0.26264 0.96462 0.0
H184 H 0.06624 0.35882 0.13648 0.0
H185 H 0.05794 0.39307 0.20471 0.0
H186 H 0.99682 0.36175 0.28612 0.0
H187 H 1.00492 0.32784 0.21514 0.0
H188 H 0.08045 0.29967 0.31103 0.0
H189 H 0.091 0.27253 0.40407 0.0
H190 H 0.10145 0.2218 0.23975 0.0
H191 H 0.09235 0.24905 0.14792 0.0
H192 H 1.00191 0.26955 0.05563 0.0
H193 H 0.99207 0.23536 0.98722 0.0
H194 H 0.05871 0.23567 0.89166 0.0
H195 H 0.06849 0.26932 0.96085 0.0
N196 N 0.03583 0.30703 0.08979 0.0
N197 N 0.06141 0.30923 0.18753 0.0
N198 N 0.06172 0.27769 0.11235 0.0
C199 C 0.04468 0.31865 0.14708 0.0
C200 C 0.06999 0.28869 0.17063 0.0
C201 C 0.04486 0.28655 0.07167 0.0
C202 C 0.03603 0.34091 0.16975 0.0
C203 C 0.05057 0.3597 0.16665 0.0
C204 C 0.04596 0.37917 0.20675 0.0
C205 C 0.02693 0.3801 0.25234 0.0
C206 C 1.01154 0.36179 0.25137 0.0
C207 C 1.01608 0.34237 0.21047 0.0
C208 C 0.08442 0.27614 0.22235 0.0
C209 C 0.08596 0.28299 0.29471 0.0
C210 C 0.09185 0.26732 0.34824 0.0
C211 C 0.09585 0.24452 0.3302 0.0
C212 C 0.0981 0.23896 0.25678 0.0
C213 C 0.09257 0.25466 0.20347 0.0
C214 C 0.03589 0.27217 1.01301 0.0
C215 C 1.01401 0.26286 0.01742 0.0
C216 C 0.29877 1.00344 1.00536 0.0
C217 C 0.30396 0.02429 0.97243 0.0
C218 C 0.28941 0.04279 0.98491 0.0
C219 C 0.27094 0.04075 0.03242 0.0
H220 H 0.19361 0.06036 0.1648 0.0
H221 H 0.15519 0.06895 0.20725 0.0
H222 H 0.14704 0.99902 0.27246 0.0
H223 H 0.18455 0.9907 0.2282 0.0
H224 H 0.22878 0.98382 0.36426 0.0
H225 H 0.24718 0.96987 0.47474 0.0
H226 H 0.31012 1.00044 0.40646 0.0
H227 H 0.29212 1.01388 0.29635 0.0
H228 H 0.27794 0.98554 0.08066 0.0
H229 H 0.30963 0.98889 0.9982 0.0
H230 H 0.29276 0.05905 0.95993 0.0
H231 H 0.26082 0.05553 0.04443 0.0
N232 N 0.22944 0.02417 0.13048 0.0
N233 N 0.22619 1.01247 0.25176 0.0
N234 N 0.26126 1.01095 0.19452 0.0
C235 C 0.2165 0.0207 0.19072 0.0
C236 C 0.24855 1.00786 0.25435 0.0
C237 C 0.25198 0.0189 0.13251 0.0
C238 C 0.19189 0.02485 0.19283 0.0
C239 C 0.18305 0.04675 0.18517 0.0
C240 C 0.1612 0.05169 0.21072 0.0
C241 C 0.14792 0.03478 0.24439 0.0
C242 C 0.15635 1.01253 0.24622 0.0
C243 C 0.17799 1.00767 0.22084 0.0
C244 C 0.2591 0.99983 0.32172 0.0
C245 C 0.24651 0.98762 0.3733 0.0
C246 C 0.25695 0.97967 0.43626 0.0
C247 C 0.27989 0.98439 0.44914 0.0
C248 C 0.29228 0.99691 0.39814 0.0
C249 C 0.28205 1.0044 0.33485 0.0
C250 C 0.26688 0.02023 0.06859 0.0
C251 C 0.28058 1.0015 0.05292 0.0
C252 C 0.60286 0.30144 0.23247 0.0
C253 C 0.60294 0.29706 0.30702 0.0
C254 C 0.59258 0.2771 0.33248 0.0
C255 C 0.58018 0.26328 0.28556 0.0
H256 H 0.49346 0.22563 0.23256 0.0
H257 H 0.48339 0.19113 0.29867 0.0
H258 H 0.5369 0.15524 0.18905 0.0
H259 H 0.54732 0.19005 0.12571 0.0
H260 H 0.48824 0.2745 0.04221 0.0
H261 H 0.47529 0.30615 0.96643 0.0
H262 H 0.54474 0.3206 0.90845 0.0
H263 H 0.55729 0.28911 0.9818 0.0
H264 H 0.58943 0.29254 0.12948 0.0
H265 H 0.61056 0.31665 0.21071 0.0
H266 H 0.59269 0.27304 0.38947 0.0
H267 H 0.5709 0.24904 0.30776 0.0
N268 N 0.54966 0.23945 0.18658 0.0
N269 N 0.52216 0.24457 0.09546 0.0
N270 N 0.55133 0.27121 0.11168 0.0
C271 C 0.53107 0.23193 0.15044 0.0
C272 C 0.53265 0.26424 0.07536 0.0
C273 C 0.55987 0.25913 0.16746 0.0
C274 C 0.52093 0.2103 0.17358 0.0
C275 C 0.50248 0.21011 0.22106 0.0
C276 C 0.4968 0.19032 0.25901 0.0
C277 C 0.50953 0.17036 0.25015 0.0
C278 C 0.52702 0.17034 0.19858 0.0
C279 C 0.5328 0.19016 0.16137 0.0
C280 C 0.52377 0.27937 0.01806 0.0
C281 C 0.50055 0.28404 1.01121 0.0
C282 C 0.49321 0.30236 0.96856 0.0
C283 C 0.50895 0.31615 0.93156 0.0
C284 C 0.532 0.31035 0.93509 0.0
C285 C 0.53927 0.29228 0.97766 0.0
C286 C 0.57791 0.26928 0.2125 0.0
C287 C 0.59048 0.2877 0.18577 0.0
Tb288 Tb 0.02088 0.02081 0.76535 0.0
Tb289 Tb 0.98481 0.03428 0.6509 0.0
C290 C 0.04458 1.00114 0.8584 0.0
C291 C 0.04958 0.97707 0.86941 0.0
C292 C 0.03281 0.96066 0.85691 0.0
C293 C 0.03854 0.93784 0.85419 0.0
C294 C 0.06109 0.93101 0.86399 0.0
C295 C 0.07771 0.94731 0.87977 0.0
C296 C 0.07199 0.97024 0.88198 0.0
C297 C 0.0362 0.03931 0.64505 0.0
C298 C 0.99594 0.98276 0.66534 0.0
C299 C 0.97184 0.05288 0.53745 0.0
C300 C 0.98198 0.07353 0.50534 0.0
C301 C 1.00047 0.07179 0.45796 0.0
C302 C 1.01434 0.09054 0.44446 0.0
C303 C 1.00959 0.11149 0.47657 0.0
C304 C 0.98995 0.11371 0.5185 0.0
C305 C 0.97625 0.09495 0.5326 0.0
C306 C 0.96498 0.02397 0.77504 0.0
C307 C 1.00514 0.07052 0.762 0.0
O308 O 0.0237 1.00769 0.87028 0.0
O309 O 0.05274 1.00939 0.79831 0.0
O310 O 0.01992 0.02559 0.65133 0.0
O311 O 0.045 0.04259 0.70822 0.0
O312 O 1.01075 0.98806 0.71708 0.0
O313 O 0.98361 0.99816 0.63107 0.0
O314 O 0.98475 0.03486 0.53777 0.0
O315 O 0.96161 0.05572 0.59946 0.0
O316 O 0.98565 0.0239 0.75923 0.0
O317 O 0.95404 0.02946 0.71673 0.0
O318 O 0.99781 0.06638 0.69553 0.0
O319 O 1.01217 0.05408 0.80517 0.0
H320 H 1.01541 0.96549 0.84669 0.0
H321 H 0.02532 0.9255 0.84379 0.0
H322 H 0.09516 0.94237 0.8883 0.0
H323 H 0.08518 0.98272 0.89096 0.0
H324 H 1.00501 0.05565 0.43469 0.0
H325 H 0.02909 0.0885 0.41045 0.0
H326 H 0.98582 0.12967 0.54383 0.0
H327 H 0.96202 0.097 0.56877 0.0
Tb328 Tb 0.51396 0.04247 0.78033 0.0
Tb329 Tb 0.50418 1.00643 0.68341 0.0
C330 C 0.53288 0.06886 0.86736 0.0
C331 C 0.55522 0.07965 0.86103 0.0
C332 C 0.56891 0.082 0.92214 0.0
C333 C 0.59181 0.08748 0.91462 0.0
C334 C 0.60137 0.09065 0.8457 0.0
C335 C 0.58714 0.08993 0.78499 0.0
C336 C 0.56429 0.08436 0.79255 0.0
C337 C 0.49919 0.05666 0.6531 0.0
C338 C 0.55334 0.02246 0.68046 0.0
C339 C 0.4858 0.97939 0.59733 0.0
C340 C 0.46465 0.96666 0.60672 0.0
C341 C 0.45121 0.96151 0.54687 0.0
C342 C 0.42928 0.95314 0.55655 0.0
C343 C 0.42044 0.94983 0.62642 0.0
C344 C 0.43454 0.95377 0.68618 0.0
C345 C 0.45642 0.96221 0.67642 0.0
C346 C 0.51898 0.99252 0.81091 0.0
C347 C 0.46452 0.02667 0.78174 0.0
O348 O 0.53342 0.04683 0.87411 0.0
O349 O 0.51772 0.07541 0.82052 0.0
O350 O 0.51314 0.04091 0.66412 0.0
O351 O 0.49341 0.06512 0.71445 0.0
O352 O 0.54801 0.03214 0.74243 0.0
O353 O 0.53725 1.01404 0.63909 0.0
O354 O 0.48329 1.00135 0.59323 0.0
O355 O 0.50231 0.97369 0.64056 0.0
O356 O 0.50483 1.00803 0.79959 0.0
O357 O 0.52494 0.98407 0.74978 0.0
O358 O 0.47013 0.01625 0.72132 0.0
O359 O 0.48033 0.03591 0.82252 0.0
H360 H 0.56225 0.07818 0.97524 0.0
H361 H 0.6023 0.0875 0.96254 0.0
H362 H 0.59391 0.09247 0.73132 0.0
H363 H 0.55405 0.08244 0.74441 0.0
H364 H 0.45722 0.96509 0.49283 0.0
H365 H 0.41879 0.95072 0.50925 0.0
H366 H 0.42833 0.95127 0.74055 0.0
H367 H 0.46652 0.96628 0.7235 0.0
Tb368 Tb 0.48891 0.52891 0.77939 0.0
Tb369 Tb 0.51927 0.51347 0.6503 0.0
C370 C 0.47995 0.54501 0.89974 0.0
C371 C 0.49027 0.56548 0.9321 0.0
C372 C 0.50982 0.56365 0.97501 0.0
C373 C 0.52331 0.58267 0.98833 0.0
C374 C 0.51743 0.60388 0.95934 0.0
C375 C 0.49667 0.60606 0.92293 0.0
C376 C 0.48321 0.5871 0.9096 0.0
C377 C 0.46426 0.52085 0.66137 0.0
C378 C 0.50748 0.56553 0.67076 0.0
C379 C 0.54015 0.5039 0.53725 0.0
C380 C 0.55643 0.48591 0.5202 0.0
C381 C 0.55596 0.47574 0.45215 0.0
C382 C 0.56946 0.45688 0.43804 0.0
C383 C 0.58369 0.44785 0.4919 0.0
C384 C 0.58474 0.45868 0.5592 0.0
C385 C 0.57118 0.47748 0.57331 0.0
C386 C 0.53842 0.51563 0.77881 0.0
C387 C 0.4963 0.47646 0.74917 0.0
O388 O 0.49358 0.52763 0.89148 0.0
O389 O 0.46734 0.54862 0.84249 0.0
O390 O 0.48515 0.51933 0.67116 0.0
O391 O 0.45572 0.52659 0.72312 0.0
O392 O 0.50098 0.56119 0.73761 0.0
O393 O 0.5125 0.54917 0.62458 0.0
O394 O 0.51945 0.4969 0.55055 0.0
O395 O 0.54713 0.5193 0.58316 0.0
O396 O 0.52412 0.52915 0.75302 0.0
O397 O 0.54344 0.50074 0.7305 0.0
O398 O 0.50456 0.48122 0.68422 0.0
O399 O 0.49116 0.49234 0.79703 0.0
H400 H 0.51555 0.54729 0.99409 0.0
H401 H 0.53899 0.58044 0.01772 0.0
H402 H 0.49117 0.62233 0.90237 0.0
H403 H 0.46799 0.58927 0.87768 0.0
H404 H 0.54456 0.4819 0.41072 0.0
H405 H 0.56792 0.44876 0.386 0.0
H406 H 0.59568 0.45232 0.60155 0.0
H407 H 0.57181 0.48502 0.6264 0.0
Tb408 Tb 0.99546 0.50127 0.80203 0.0
Tb409 Tb 1.00611 0.53613 0.69768 0.0
C410 C 0.97683 0.47651 0.89421 0.0
C411 C 0.95669 0.46234 0.88377 0.0
C412 C 0.94209 0.45791 0.94138 0.0
C413 C 0.92094 0.44804 0.92866 0.0
C414 C 0.91406 0.44254 0.85797 0.0
C415 C 0.92935 0.44584 0.80098 0.0
C416 C 0.95045 0.45572 0.81374 0.0
C417 C 1.00991 0.48504 0.67751 0.0
C418 C 0.95576 0.52209 0.70185 0.0
C419 C 0.02705 0.55673 0.60081 0.0
C420 C 0.04974 0.55045 0.57446 0.0
C421 C 0.05361 0.52831 0.54965 0.0
C422 C 0.07555 0.52004 0.54387 0.0
C423 C 0.09413 0.53368 0.56244 0.0
C424 C 0.09047 0.55634 0.58184 0.0
C425 C 0.06839 0.56465 0.58805 0.0
C426 C 0.99116 0.55234 0.82138 0.0
C427 C 0.04493 0.51484 0.79474 0.0
O428 O 0.97312 0.4983 0.88949 0.0
O429 O 0.99468 0.47035 0.85767 0.0
O430 O 0.99665 0.50146 0.68612 0.0
O431 O 1.01459 0.4765 0.73986 0.0
O432 O 0.96165 0.50951 0.7581 0.0
O433 O 0.97103 0.53353 0.66465 0.0
O434 O 1.01074 0.54227 0.58725 0.0
O435 O 0.02655 0.56375 0.66762 0.0
O436 O 1.00462 0.53597 0.81372 0.0
O437 O 0.98681 0.56099 0.75856 0.0
O438 O 0.03912 0.52174 0.72945 0.0
O439 O 0.02906 0.5094 0.84161 0.0
H440 H 0.94654 0.46316 0.99552 0.0
H441 H 0.90942 0.44615 0.97368 0.0
H442 H 0.92462 0.4417 0.74612 0.0
H443 H 0.96145 0.45922 0.7683 0.0
H444 H 0.03971 0.5168 0.53882 0.0
H445 H 0.07795 0.50266 0.52702 0.0
H446 H 0.10458 0.56722 0.59607 0.0
H447 H 0.06585 0.58169 0.60788 0.0
H448 H 0.13842 0.0733 0.32222 0.0
H449 H 0.10946 1.00886 0.26141 0.0
H450 H 0.10772 0.07899 0.4071 0.0
H451 H 0.08025 1.01337 0.35107 0.0
H452 H 0.02616 0.02383 0.50981 0.0
H453 H 0.04854 0.02807 0.40073 0.0
H454 H 0.09813 0.06699 0.52017 0.0
H455 H 0.07451 0.06441 0.62688 0.0
C456 C 0.12537 0.06044 0.32598 0.0
C457 C 0.12685 0.04036 0.28558 0.0
C458 C 0.10789 0.06351 0.37607 0.0
C459 C 0.09162 0.04641 0.38829 0.0
C460 C 0.09222 0.02709 0.34396 0.0
C461 C 0.10936 0.02427 0.29286 0.0
C462 C 0.04146 0.03393 0.51198 0.0
C463 C 0.04848 0.04387 0.57689 0.0
C464 C 0.05461 0.03605 0.44954 0.0
C465 C 0.07558 0.04754 0.45095 0.0
C466 C 0.08207 0.05825 0.51568 0.0
C467 C 0.0686 0.05658 0.57755 0.0
H468 H 0.46954 0.15298 0.30428 0.0
H469 H 0.54199 0.1429 0.30929 0.0
H470 H 0.46485 0.12285 0.39367 0.0
H471 H 0.53725 0.11283 0.39742 0.0
H472 H 0.52223 0.04993 0.52673 0.0
H473 H 0.52283 0.07479 0.42084 0.0
H474 H 0.47331 0.11808 0.52148 0.0
H475 H 0.47253 0.09312 0.62633 0.0
C476 C 0.48445 0.1443 0.32397 0.0
C477 C 0.50615 0.15049 0.29925 0.0
C478 C 0.48176 0.12699 0.3752 0.0
C479 C 0.50067 0.11537 0.40289 0.0
C480 C 0.52225 0.12108 0.37648 0.0
C481 C 0.52496 0.1384 0.32561 0.0
C482 C 0.51121 0.06455 0.52553 0.0
C483 C 0.49747 0.06969 0.58499 0.0
C484 C 0.51165 0.07889 0.46513 0.0
C485 C 0.49825 0.09858 0.46277 0.0
C486 C 0.4837 0.10301 0.52097 0.0
C487 C 0.48334 0.08876 0.58134 0.0
H488 H 0.40647 0.48272 0.24437 0.0
H489 H 0.36338 0.53575 0.3259 0.0
H490 H 0.43188 0.4878 0.34725 0.0
H491 H 0.38913 0.54135 0.42668 0.0
H492 H 0.41877 0.52142 0.64493 0.0
H493 H 0.39692 0.519 0.53386 0.0
H494 H 0.45882 0.51284 0.41169 0.0
H495 H 0.48073 0.51525 0.52394 0.0
C496 C 0.40261 0.49574 0.28341 0.0
C497 C 0.3827 0.50867 0.27689 0.0
C498 C 0.41728 0.49874 0.34219 0.0
C499 C 0.41235 0.51471 0.39599 0.0
C500 C 0.39321 0.52857 0.38705 0.0
C501 C 0.37859 0.52559 0.32842 0.0
C502 C 0.42773 0.51947 0.59441 0.0
C503 C 0.45146 0.5183 0.59317 0.0
C504 C 0.41521 0.51829 0.53056 0.0
C505 C 0.42608 0.51595 0.46356 0.0
C506 C 0.44989 0.5145 0.46235 0.0
C507 C 0.46246 0.51578 0.52658 0.0
H508 H 0.98809 0.40155 0.29917 0.0
H509 H 0.06064 0.40071 0.32971 0.0
H510 H 0.98465 0.42914 0.39676 0.0
H511 H 0.05724 0.42869 0.42459 0.0
H512 H 0.03883 0.45038 0.65494 0.0
H513 H 0.04306 0.42738 0.54721 0.0
H514 H 0.99348 0.46857 0.43707 0.0
H515 H 0.98917 0.49166 0.54617 0.0
C516 C 1.00331 0.4074 0.32596 0.0
C517 C 0.02464 0.39877 0.30627 0.0
C518 C 1.00136 0.4234 0.38146 0.0
C519 C 0.02066 0.43104 0.41896 0.0
C520 C 0.04198 0.42299 0.39758 0.0
C521 C 0.04394 0.4071 0.34226 0.0
C522 C 0.02897 0.45467 0.60755 0.0
C523 C 1.01361 0.47274 0.60908 0.0
C524 C 0.03147 0.44155 0.54554 0.0
C525 C 0.0186 0.44607 0.48328 0.0
C526 C 1.00349 0.46449 0.48428 0.0
C527 C 1.00113 0.4778 0.54648 0.0
H528 H 0.88344 0.04087 0.15686 0.0
H529 H 0.90131 0.97 0.16214 0.0
H530 H 0.90972 0.04698 0.05802 0.0
H531 H 0.92731 0.97615 0.06113 0.0
H532 H 0.98165 1.00145 0.89468 0.0
H533 H 0.96274 0.9966 1.012 0.0
H534 H 0.9051 0.03373 0.93131 0.0
H535 H 0.92389 0.03856 0.81578 0.0
C536 C 0.89343 0.02667 0.13855 0.0
C537 C 0.89004 1.00487 0.16744 0.0
C538 C 0.90833 0.03015 0.08106 0.0
C539 C 0.92028 1.01197 0.05083 0.0
C540 C 0.91831 0.9905 0.08313 0.0
C541 C 0.9033 0.98697 0.14072 0.0
C542 C 0.96512 1.0088 0.90274 0.0
C543 C 0.95437 0.02061 0.84651 0.0
C544 C 0.95421 1.00588 0.96953 0.0
C545 C 0.93255 1.01507 0.98131 0.0
C546 C 0.92195 0.02683 0.92468 0.0
C547 C 0.93265 0.02944 0.85817 0.0
H548 H 0.48978 0.89923 0.15519 0.0
H549 H 0.56251 0.90644 0.16736 0.0
H550 H 0.48839 0.92971 0.0657 0.0
H551 H 0.56102 0.93711 0.07944 0.0
H552 H 0.55046 0.96081 0.84219 0.0
H553 H 0.55273 0.93666 0.94869 0.0
H554 H 0.49535 0.97122 0.04098 0.0
H555 H 0.49317 0.99558 0.93362 0.0
C556 C 0.50541 0.90755 0.13971 0.0
C557 C 0.52626 0.90027 0.16832 0.0
C558 C 0.50459 0.92515 0.08887 0.0
C559 C 0.52462 0.93572 0.06499 0.0
C560 C 0.54531 0.92916 0.09612 0.0
C561 C 0.54612 0.91171 0.1472 0.0
C562 C 0.53854 0.96348 0.88568 0.0
C563 C 0.52163 0.98001 0.8796 0.0
C564 C 0.53989 0.94972 0.94691 0.0
C565 C 0.5242 0.95199 1.00339 0.0
C566 C 0.50759 0.96896 0.99817 0.0
C567 C 0.50643 0.98299 0.93703 0.0
H568 H 0.60363 0.49699 0.19796 0.0
H569 H 0.63963 0.55124 0.09042 0.0
H570 H 0.57551 0.49696 0.10135 0.0
H571 H 0.61106 0.55165 0.9958 0.0
H572 H 0.5467 0.55429 0.85538 0.0
H573 H 0.56961 0.55796 0.96545 0.0
H574 H 0.57905 0.48555 0.9699 0.0
H575 H 0.55693 0.48204 0.85893 0.0
C576 C 0.60545 0.50912 0.15446 0.0
C577 C 0.62421 0.52391 0.15203 0.0
C578 C 0.58927 0.50912 0.09915 0.0
C579 C 0.5912 0.52414 0.04053 0.0
C580 C 0.60901 0.53996 0.04044 0.0
C581 C 0.62536 0.53978 0.09522 0.0
C582 C 0.55348 0.53918 0.88057 0.0
C583 C 0.55009 0.51788 0.84893 0.0
C584 C 0.56659 0.54128 0.94338 0.0
C585 C 0.57594 0.52203 0.97681 0.0
C586 C 0.57182 0.50067 0.94614 0.0
C587 C 0.55927 0.49865 0.88244 0.0
H588 H 0.01716 0.62206 0.2229 0.0
H589 H 0.95334 0.64997 0.15158 0.0
H590 H 1.01557 0.59449 0.12605 0.0
H591 H 0.95091 0.62132 0.05865 0.0
H592 H 0.97067 0.59306 0.83843 0.0
H593 H 0.96784 0.61567 0.94697 0.0
H594 H 1.00021 0.5623 0.06906 0.0
H595 H 1.00384 0.54001 0.95857 0.0
C596 C 1.00256 0.62212 0.18754 0.0
C597 C 0.98563 0.63872 0.19483 0.0
C598 C 1.0015 0.60602 0.13223 0.0
C599 C 0.98332 0.60581 0.08304 0.0
C600 C 0.96553 0.62126 0.09393 0.0
C601 C 0.96673 0.63754 0.14856 0.0
C602 C 0.97704 0.58606 0.88853 0.0
C603 C 0.98763 0.56482 0.88977 0.0
C604 C 0.97524 0.59898 0.95129 0.0
C605 C 0.98375 0.59095 0.01757 0.0
C606 C 0.99374 0.56928 0.01912 0.0
C607 C 0.9957 0.5564 0.9559 0.0
H608 H 0.11488 0.20175 0.33649 0.0
H609 H 0.06679 0.24482 0.44562 0.0
H610 H 0.09609 0.16864 0.38683 0.0
H611 H 0.04954 0.21199 0.50043 0.0
H612 H 0.99903 0.15537 0.44789 0.0
H613 H 0.02462 0.18736 0.43658 0.0
H614 H 0.08169 0.14352 0.47848 0.0
H615 H 0.0558 0.11122 0.48875 0.0
C616 C 0.10085 0.20429 0.37306 0.0
C617 C 0.09173 0.22603 0.38368 0.0
C618 C 0.0902 0.18523 0.40265 0.0
C619 C 0.07064 0.18767 0.44499 0.0
C620 C 0.064 0.20953 0.46545 0.0
C621 C 0.07428 0.2285 0.43476 0.0
C622 C 0.01701 0.1526 0.45537 0.0
C623 C 0.02542 0.13083 0.46885 0.0
C624 C 0.03172 0.17098 0.44963 0.0
C625 C 0.05525 0.16811 0.45777 0.0
C626 C 0.06369 0.1463 0.47174 0.0
C627 C 0.0489 0.12782 0.47717 0.0
H628 H 0.30423 1.0079 0.54755 0.0
H629 H 0.28309 0.94029 0.49122 0.0
H630 H 0.33375 0.99265 0.62426 0.0
H631 H 0.31254 0.92465 0.56971 0.0
H632 H 0.39276 0.92185 0.5481 0.0
H633 H 0.35198 0.92518 0.53754 0.0
H634 H 0.35122 0.97119 0.71825 0.0
H635 H 0.39221 0.9688 0.72624 0.0
C636 C 0.30536 0.98971 0.55425 0.0
C637 C 0.29185 0.97524 0.51259 0.0
C638 C 0.32218 0.98087 0.59875 0.0
C639 C 0.32587 0.95735 0.60193 0.0
C640 C 0.31038 0.94284 0.5673 0.0
C641 C 0.29344 0.95175 0.52278 0.0
C642 C 0.38383 0.93226 0.58666 0.0
C643 C 0.39581 0.94573 0.63604 0.0
C644 C 0.36033 0.93392 0.58142 0.0
C645 C 0.34837 0.94899 0.62584 0.0
C646 C 0.36003 0.95986 0.68212 0.0
C647 C 0.38357 0.95836 0.68694 0.0
H648 H 0.58086 0.31007 0.4287 0.0
H649 H 0.63921 0.3264 0.29791 0.0
H650 H 0.58393 0.34622 0.48824 0.0
H651 H 0.6423 0.36301 0.35815 0.0
H652 H 0.58865 0.41255 0.58653 0.0
H653 H 0.6021 0.37458 0.56019 0.0
H654 H 0.61775 0.39541 0.34227 0.0
H655 H 0.60542 0.43364 0.36973 0.0
C656 C 0.595 0.32094 0.41474 0.0
C657 C 0.60953 0.31546 0.35744 0.0
C658 C 0.59675 0.34183 0.44903 0.0
C659 C 0.61309 0.35776 0.42693 0.0
C660 C 0.62919 0.35131 0.3752 0.0
C661 C 0.62745 0.33033 0.34083 0.0
C662 C 0.59571 0.40927 0.53374 0.0
C663 C 0.59559 0.42606 0.47978 0.0
C664 C 0.60324 0.38741 0.51849 0.0
C665 C 0.61067 0.38182 0.44884 0.0
C666 C 0.61227 0.39909 0.39666 0.0
C667 C 0.60485 0.42097 0.41202 0.0
H668 H 0.19071 0.44003 0.43678 0.0
H669 H 0.23337 0.4984 0.4741 0.0
H670 H 0.16031 0.45798 0.50363 0.0
H671 H 0.2033 0.51595 0.54351 0.0
H672 H 0.13295 0.55139 0.50566 0.0
H673 H 0.16922 0.53235 0.49194 0.0
H674 H 0.14336 0.4746 0.61 0.0
H675 H 0.10695 0.49362 0.62262 0.0
C676 C 0.19387 0.45632 0.46157 0.0
C677 C 0.21423 0.46799 0.44874 0.0
C678 C 0.1765 0.46658 0.50042 0.0
C679 C 0.17925 0.48865 0.5274 0.0
C680 C 0.20055 0.49913 0.52199 0.0
C681 C 0.2179 0.48891 0.48294 0.0
C682 C 0.13522 0.53486 0.53 0.0
C683 C 0.11707 0.52375 0.56363 0.0
C684 C 0.15604 0.52397 0.52268 0.0
C685 C 0.15909 0.50183 0.54935 0.0
C686 C 0.1414 0.49147 0.5878 0.0
C687 C 0.12057 0.5023 0.59471 0.0
H688 H 0.07625 0.79573 1.01262 0.0
H689 H 1.01063 0.80851 0.91871 0.0
H690 H 0.09244 0.82649 0.94079 0.0
H691 H 0.02639 0.83943 0.84863 0.0
H692 H 0.08475 0.90631 0.96213 0.0
H693 H 0.0851 0.86535 0.97266 0.0
H694 H 0.05059 0.85985 0.76755 0.0
H695 H 0.0499 0.9011 0.75826 0.0
C696 C 0.06553 0.80447 0.9742 0.0
C697 C 0.04213 0.80027 0.97224 0.0
C698 C 0.07474 0.82218 0.93349 0.0
C699 C 0.0606 0.83586 0.89071 0.0
C700 C 0.03785 0.82936 0.88107 0.0
C701 C 0.02869 0.81172 0.92167 0.0
C702 C 0.07798 0.89631 0.91818 0.0
C703 C 0.06671 0.90672 0.86051 0.0
C704 C 0.07832 0.87277 0.92376 0.0
C705 C 0.06744 0.85929 0.87152 0.0
C706 C 0.05868 0.86977 0.80938 0.0
C707 C 0.05818 0.89333 0.80417 0.0
H708 H 0.74033 0.07704 0.97121 0.0
H709 H 0.7072 1.0137 0.92252 0.0
H710 H 0.7123 0.09722 0.89837 0.0
H711 H 0.67919 0.03366 0.8504 0.0
H712 H 0.6331 0.11224 0.92923 0.0
H713 H 0.67277 0.10188 0.93939 0.0
H714 H 0.66615 0.05884 0.75259 0.0
H715 H 0.62633 0.06882 0.74347 0.0
C716 C 0.72761 0.06737 0.94241 0.0
C717 C 0.72559 0.04391 0.95317 0.0
C718 C 0.71152 0.07892 0.90108 0.0
C719 C 0.69334 0.0671 0.86966 0.0
C720 C 0.69302 0.0433 0.87355 0.0
C721 C 0.70894 0.03183 0.91531 0.0
C722 C 0.64026 0.10107 0.88912 0.0
C723 C 0.62637 0.0907 0.83727 0.0
C724 C 0.66311 0.09533 0.89431 0.0
C725 C 0.67244 0.07911 0.84769 0.0
C726 C 0.6593 0.07109 0.78999 0.0
C727 C 0.63646 0.07688 0.78472 0.0
H728 H 0.55954 0.7387 0.99611 0.0
H729 H 0.61879 0.70427 0.07844 0.0
H730 H 0.54594 0.7036 0.94515 0.0
H731 H 0.60445 0.66871 0.02911 0.0
H732 H 0.54469 0.61606 0.0727 0.0
H733 H 0.56938 0.64901 0.08139 0.0
H734 H 0.55063 0.66913 0.86547 0.0
H735 H 0.52641 0.63572 0.85555 0.0
C736 C 0.57025 0.72393 1.00083 0.0
C737 C 0.59002 0.72428 0.04337 0.0
C738 C 0.56229 0.70367 0.97173 0.0
C739 C 0.57385 0.68336 0.98495 0.0
C740 C 0.59499 0.68412 0.01963 0.0
C741 C 0.60315 0.70447 0.04789 0.0
C742 C 0.54618 0.62718 0.02643 0.0
C743 C 0.53327 0.62341 0.96393 0.0
C744 C 0.56044 0.64601 0.03126 0.0
C745 C 0.56197 0.66155 0.97393 0.0
C746 C 0.54968 0.65744 0.9105 0.0
C747 C 0.53561 0.63847 0.90534 0.0
H748 H 0.77635 0.42827 0.9706 0.0
H749 H 0.79557 0.49569 0.90465 0.0
H750 H 0.80664 0.41257 0.89636 0.0
H751 H 0.82592 0.48039 0.83211 0.0
H752 H 0.88632 0.41434 0.93521 0.0
H753 H 0.8453 0.41541 0.93567 0.0
H754 H 0.84612 0.45824 0.74622 0.0
H755 H 0.88728 0.45804 0.74803 0.0
C756 C 0.78641 0.43962 0.93755 0.0
C757 C 0.78413 0.46315 0.94428 0.0
C758 C 0.80383 0.43068 0.89545 0.0
C759 C 0.81917 0.44522 0.86006 0.0
C760 C 0.81457 0.46859 0.8586 0.0
C761 C 0.79724 0.47747 0.90064 0.0
C762 C 0.87772 0.42349 0.89254 0.0
C763 C 0.89002 0.43679 0.8434 0.0
C764 C 0.85411 0.42384 0.89199 0.0
C765 C 0.84239 0.43748 0.84207 0.0
C766 C 0.85468 0.44801 0.78638 0.0
C767 C 0.87832 0.44779 0.78726 0.0
H768 H 0.05443 0.19715 0.9373 0.0
H769 H 0.98664 0.21453 0.86981 0.0
H770 H 0.04883 0.15871 0.89443 0.0
H771 H 0.98088 0.17557 0.82758 0.0
H772 H 0.99092 0.10917 0.6924 0.0
H773 H 0.99471 0.14838 0.73277 0.0
H774 H 0.02651 0.12524 0.92919 0.0
H775 H 0.0229 0.08619 0.88904 0.0
C776 C 0.03836 0.19285 0.9126 0.0
C777 C 0.02106 0.20909 0.90646 0.0
C778 C 0.03506 0.17065 0.88879 0.0
C779 C 1.01437 0.16395 0.85785 0.0
C780 C 0.99707 0.18019 0.8508 0.0
C781 C 1.00031 0.20247 0.87539 0.0
C782 C 0.99867 0.11241 0.74433 0.0
C783 C 1.0067 0.09442 0.78724 0.0
C784 C 1.00071 0.13492 0.76762 0.0
C785 C 1.01102 0.14001 0.83409 0.0
C786 C 0.01877 0.12199 0.87726 0.0
C787 C 0.01659 0.09953 0.8543 0.0
H788 H 0.3238 0.99419 0.87905 0.0
H789 H 0.33379 0.06002 0.97481 0.0
H790 H 0.36201 0.99556 0.83014 0.0
H791 H 0.37159 0.06194 0.92263 0.0
H792 H 0.44695 0.04434 0.90594 0.0
H793 H 0.40755 0.0451 0.94414 0.0
H794 H 0.3877 1.01206 0.74625 0.0
H795 H 0.42728 1.01058 0.70917 0.0
C796 C 0.33401 1.00913 0.88882 0.0
C797 C 0.32569 0.02688 0.93173 0.0
C798 C 0.35592 1.01002 0.86004 0.0
C799 C 0.37013 0.02875 0.87298 0.0
C800 C 0.36136 0.04702 0.9127 0.0
C801 C 0.33947 0.04609 0.94172 0.0
C802 C 0.4342 0.03723 0.87048 0.0
C803 C 0.44037 0.02738 0.8045 0.0
C804 C 0.4115 0.03785 0.89213 0.0
C805 C 0.39427 0.02873 0.84827 0.0
C806 C 0.40046 0.01899 0.78197 0.0
C807 C 0.4232 0.01826 0.76048 0.0
H808 H 0.5256 0.33442 0.80579 0.0
H809 H 0.47708 0.34709 0.97484 0.0
H810 H 0.51986 0.3724 0.7592 0.0
H811 H 0.47018 0.38469 0.92533 0.0
H812 H 0.48915 0.45928 0.88453 0.0
H813 H 0.48885 0.41986 0.92214 0.0
H814 H 0.49716 0.39915 0.70044 0.0
H815 H 0.49836 0.43874 0.66324 0.0
C816 C 0.5134 0.34517 0.83243 0.0
C817 C 0.5021 0.33768 0.89495 0.0
C818 C 0.50987 0.36698 0.80504 0.0
C819 C 0.49472 0.38193 0.8388 0.0
C820 C 0.48236 0.37393 0.89868 0.0
C821 C 0.48604 0.35214 0.92648 0.0
C822 C 0.49068 0.44634 0.84359 0.0
C823 C 0.49391 0.45228 0.77082 0.0
C824 C 0.49037 0.42361 0.86518 0.0
C825 C 0.49304 0.4061 0.81455 0.0
C826 C 0.49547 0.41207 0.74134 0.0
C827 C 0.49602 0.43484 0.71984 0.0
H828 H 0.19107 0.53298 0.86415 0.0
H829 H 0.17488 0.46729 0.9535 0.0
H830 H 0.15144 0.53766 0.82799 0.0
H831 H 0.13575 0.47166 0.91563 0.0
H832 H 0.06324 0.4977 0.9192 0.0
H833 H 0.10315 0.49385 0.9505 0.0
H834 H 0.12195 0.52331 0.74566 0.0
H835 H 0.08192 0.52739 0.71473 0.0
C836 C 0.17915 0.51947 0.87562 0.0
C837 C 0.18631 0.49972 0.91159 0.0
C838 C 0.15645 0.52208 0.85441 0.0
C839 C 0.1403 0.5051 0.86934 0.0
C840 C 0.14759 0.48524 0.90412 0.0
C841 C 0.1702 0.48259 0.92492 0.0
C842 C 0.07584 0.50339 0.88079 0.0
C843 C 0.06931 0.51277 0.81427 0.0
C844 C 0.09879 0.50105 0.89855 0.0
C845 C 0.11586 0.50811 0.85042 0.0
C846 C 0.10931 0.5178 0.78423 0.0
C847 C 0.08633 0.52002 0.76631 0.0
H848 H 0.01961 0.8425 0.53685 0.0
H849 H 0.94714 0.85008 0.51923 0.0
H850 H 0.0227 0.88086 0.58368 0.0
H851 H 0.95011 0.88836 0.56715 0.0
H852 H 0.96593 0.96426 0.56843 0.0
H853 H 0.96229 0.92492 0.53178 0.0
H854 H 1.01594 0.90645 0.67898 0.0
H855 H 0.0203 0.94603 0.71292 0.0
C856 C 1.00425 0.85215 0.54447 0.0
C857 C 0.98313 0.84312 0.52385 0.0
C858 C 1.00601 0.87428 0.57134 0.0
C859 C 0.98669 0.88803 0.57871 0.0
C860 C 0.96547 0.87862 0.56071 0.0
C861 C 0.96373 0.85655 0.53353 0.0
C862 C 0.97698 0.95186 0.59313 0.0
C863 C 0.99334 0.95848 0.64424 0.0
C864 C 0.97475 0.92913 0.5725 0.0
C865 C 0.98873 0.91225 0.6025 0.0
C866 C 1.00501 0.91888 0.65393 0.0
C867 C 1.00733 0.94164 0.67419 0.0
H868 H 0.67713 0.03895 0.43676 0.0
H869 H 0.6992 0.99903 0.61904 0.0
H870 H 0.63905 0.0403 0.48607 0.0
H871 H 0.66061 1.00017 0.6684 0.0
H872 H 0.59202 0.02919 0.76055 0.0
H873 H 0.63141 0.02744 0.71902 0.0
H874 H 0.60806 1.01257 0.50367 0.0
H875 H 0.56896 1.0138 0.54505 0.0
C876 C 0.67394 0.03067 0.48793 0.0
C877 C 0.69133 0.01899 0.5241 0.0
C878 C 0.65198 0.03122 0.5158 0.0
C879 C 0.6467 0.0202 0.58089 0.0
C880 C 0.66414 1.0089 0.6182 0.0
C881 C 0.68619 1.00813 0.58976 0.0
C882 C 0.59532 0.02551 0.70437 0.0
C883 C 0.5773 0.02169 0.65607 0.0
C884 C 0.61789 0.02443 0.68069 0.0
C885 C 0.62288 0.02013 0.60788 0.0
C886 C 0.60482 0.01625 0.55989 0.0
C887 C 0.58237 0.01687 0.58373 0.0
H888 H 0.50095 0.69621 0.44914 0.0
H889 H 0.54434 0.70804 0.63283 0.0
H890 H 0.49466 0.65731 0.48958 0.0
H891 H 0.53837 0.66901 0.67266 0.0
H892 H 0.51376 0.58258 0.53421 0.0
H893 H 0.51734 0.62225 0.49805 0.0
H894 H 0.5094 0.64276 0.7198 0.0
H895 H 0.50599 0.60323 0.7561 0.0
C896 C 0.50884 0.69064 0.49883 0.0
C897 C 0.52311 0.7053 0.5378 0.0
C898 C 0.50549 0.66823 0.52147 0.0
C899 C 0.51617 0.65994 0.58401 0.0
C900 C 0.5298 0.67483 0.62441 0.0
C901 C 0.53331 0.69719 0.60141 0.0
C902 C 0.51277 0.59554 0.57526 0.0
C903 C 0.50957 0.58964 0.64804 0.0
C904 C 0.51466 0.61831 0.55447 0.0
C905 C 0.5136 0.63573 0.60599 0.0
C906 C 0.51047 0.6298 0.67878 0.0
C907 C 0.50838 0.60708 0.69948 0.0
H908 H 0.81982 0.48194 0.57574 0.0
H909 H 0.82393 0.55151 0.50479 0.0
H910 H 0.85692 0.48536 0.63198 0.0
H911 H 0.86066 0.5553 0.564 0.0
H912 H 0.93746 0.54376 0.58471 0.0
H913 H 0.89842 0.54296 0.5428 0.0
H914 H 0.87991 0.501 0.72475 0.0
H915 H 0.91921 0.50118 0.76545 0.0
C916 C 0.82849 0.4981 0.57304 0.0
C917 C 0.81891 0.51636 0.5348 0.0
C918 C 0.84975 0.50014 0.60601 0.0
C919 C 0.86208 0.52055 0.60197 0.0
C920 C 0.85194 0.53917 0.56707 0.0
C921 C 0.83066 0.53711 0.53395 0.0
C922 C 0.92509 0.53442 0.61606 0.0
C923 C 0.93161 0.52248 0.6784 0.0
C924 C 0.90256 0.53411 0.59227 0.0
C925 C 0.88583 0.52193 0.63025 0.0
C926 C 0.8923 0.5103 0.6934 0.0
C927 C 0.91488 0.51053 0.71705 0.0
loop_
_geom_bond_atom_site_label_1
_geom_bond_atom_site_label_2
_geom_bond_distance
_geom_bond_site_symmetry_2
_ccdc_geom_bond_type
C0 C1 1.384 . S
C0 H13 0.947 . S
C0 C35 1.382 . S
C1 C0 1.384 . S
C1 C2 1.378 . S
C2 C1 1.378 . S
C2 C3 1.378 . S
C2 H14 0.952 . S
C3 C2 1.378 . S
C3 H15 0.950 . S
C3 C34 1.383 . S
H4 C23 0.947 . S
H5 C24 0.946 . S
H6 C26 0.953 . S
H7 C27 0.945 . S
H8 C29 0.952 . S
H9 C30 0.949 . S
H10 C32 0.950 . S
H11 C33 0.948 . S
H12 C35 0.951 . S
H13 C0 0.947 . S
H14 C2 0.952 . S
H15 C3 0.950 . S
N16 C19 1.382 . S
N16 C21 1.363 . S
N17 C19 1.371 . S
N17 C20 1.372 . S
N18 C20 1.361 . S
N18 C21 1.377 . S
C19 N16 1.382 . S
C19 N17 1.371 . S
C19 C22 1.480 . S
C20 N17 1.372 . S
C20 N18 1.361 . S
C20 C28 1.457 . S
C21 N16 1.363 . S
C21 N18 1.377 . S
C21 C34 1.479 . S
C22 C19 1.480 . S
C22 C23 1.383 . S
C22 C27 1.385 . S
C23 H4 0.947 . S
C23 C22 1.383 . S
C23 C24 1.388 . S
C24 H5 0.946 . S
C24 C23 1.388 . S
C24 C25 1.384 . S
C25 C24 1.384 . S
C25 C26 1.377 . S
C26 H6 0.953 . S
C26 C25 1.377 . S
C26 C27 1.369 . S
C27 H7 0.945 . S
C27 C22 1.385 . S
C27 C26 1.369 . S
C28 C20 1.457 . S
C28 C29 1.372 . S
C28 C33 1.364 . S
C29 H8 0.952 . S
C29 C28 1.372 . S
C29 C30 1.389 . S
C30 H9 0.949 . S
C30 C29 1.389 . S
C30 C31 1.387 . S
C31 C30 1.387 . S
C31 C32 1.372 . S
C32 H10 0.950 . S
C32 C31 1.372 . S
C32 C33 1.379 . S
C33 H11 0.948 . S
C33 C28 1.364 . S
C33 C32 1.379 . S
C34 C3 1.383 . S
C34 C21 1.479 . S
C34 C35 1.398 . S
C35 C0 1.382 . S
C35 H12 0.951 . S
C35 C34 1.398 . S
C36 C37 1.384 1_655 S
C36 H49 0.948 . S
C36 C71 1.382 1_655 S
C37 C36 1.384 1_455 S
C37 C38 1.378 . S
C38 C37 1.378 . S
C38 C39 1.378 . S
C38 H50 0.952 . S
C39 C38 1.378 . S
C39 H51 0.950 . S
C39 C70 1.383 . S
H40 C59 0.947 . S
H41 C60 0.952 . S
H42 C62 0.953 . S
H43 C63 0.945 . S
H44 C65 0.949 1_655 S
H45 C66 0.956 . S
H46 C68 0.950 . S
H47 C69 0.948 . S
H48 C71 0.951 1_655 S
H49 C36 0.948 . S
H50 C38 0.952 . S
H51 C39 0.950 . S
N52 C55 1.382 . S
N52 C57 1.363 . S
N53 C55 1.371 . S
N53 C56 1.372 . S
N54 C56 1.361 . S
N54 C57 1.377 . S
C55 N52 1.382 . S
C55 N53 1.371 . S
C55 C58 1.480 . S
C56 N53 1.372 . S
C56 N54 1.361 . S
C56 C64 1.457 . S
C57 N52 1.363 . S
C57 N54 1.377 . S
C57 C70 1.479 . S
C58 C55 1.480 . S
C58 C59 1.383 . S
C58 C63 1.385 . S
C59 H40 0.947 . S
C59 C58 1.383 . S
C59 C60 1.386 1_455 S
C60 H41 0.952 . S
C60 C59 1.386 1_655 S
C60 C61 1.381 1_655 S
C61 C60 1.381 1_455 S
C61 C62 1.377 . S
C62 H42 0.953 . S
C62 C61 1.377 . S
C62 C63 1.369 . S
C63 H43 0.945 . S
C63 C58 1.385 . S
C63 C62 1.369 . S
C64 C56 1.457 . S
C64 C65 1.376 . S
C64 C69 1.364 . S
C65 H44 0.949 1_455 S
C65 C64 1.376 . S
C65 C66 1.386 1_455 S
C66 H45 0.956 . S
C66 C65 1.386 1_655 S
C66 C67 1.383 1_655 S
C67 C66 1.383 1_455 S
C67 C68 1.372 . S
C68 H46 0.950 . S
C68 C67 1.372 . S
C68 C69 1.379 . S
C69 H47 0.948 . S
C69 C64 1.364 . S
C69 C68 1.379 . S
C70 C39 1.383 . S
C70 C57 1.479 . S
C70 C71 1.398 . S
C71 C36 1.382 1_455 S
C71 H48 0.951 1_455 S
C71 C70 1.398 . S
C72 C73 1.384 1_565 S
C72 H85 0.948 . S
C72 C107 1.382 1_565 S
C73 C72 1.384 1_545 S
C73 C74 1.378 . S
C74 C73 1.378 . S
C74 C75 1.378 . S
C74 H86 0.952 . S
C75 C74 1.378 . S
C75 H87 0.950 . S
C75 C106 1.383 . S
H76 C95 0.947 . S
H77 C96 0.952 . S
H78 C98 0.953 . S
H79 C99 0.945 . S
H80 C101 0.949 1_565 S
H81 C102 0.957 . S
H82 C104 0.950 . S
H83 C105 0.948 . S
H84 C107 0.951 1_565 S
H85 C72 0.948 . S
H86 C74 0.952 . S
H87 C75 0.950 . S
N88 C91 1.382 . S
N88 C93 1.363 . S
N89 C91 1.371 . S
N89 C92 1.372 . S
N90 C92 1.361 . S
N90 C93 1.377 . S
C91 N88 1.382 . S
C91 N89 1.371 . S
C91 C94 1.480 . S
C92 N89 1.372 . S
C92 N90 1.361 . S
C92 C100 1.457 . S
C93 N88 1.363 . S
C93 N90 1.377 . S
C93 C106 1.479 . S
C94 C91 1.480 . S
C94 C95 1.383 . S
C94 C99 1.385 . S
C95 H76 0.947 . S
C95 C94 1.383 . S
C95 C96 1.386 1_545 S
C96 H77 0.952 . S
C96 C95 1.386 1_565 S
C96 C97 1.382 1_565 S
C97 C96 1.382 1_545 S
C97 C98 1.377 . S
C98 H78 0.953 . S
C98 C97 1.377 . S
C98 C99 1.369 . S
C99 H79 0.945 . S
C99 C94 1.385 . S
C99 C98 1.369 . S
C100 C92 1.457 . S
C100 C101 1.376 . S
C100 C105 1.364 . S
C101 H80 0.949 1_545 S
C101 C100 1.376 . S
C101 C102 1.386 1_545 S
C102 H81 0.957 . S
C102 C101 1.386 1_565 S
C102 C103 1.383 1_565 S
C103 C102 1.383 1_545 S
C103 C104 1.372 . S
C104 H82 0.950 . S
C104 C103 1.372 . S
C104 C105 1.379 . S
C105 H83 0.948 . S
C105 C100 1.364 . S
C105 C104 1.379 . S
C106 C75 1.383 . S
C106 C93 1.479 . S
C106 C107 1.398 . S
C107 C72 1.382 1_545 S
C107 H84 0.951 1_545 S
C107 C106 1.398 . S
C108 C109 1.384 . S
C108 H121 0.947 . S
C108 C143 1.382 . S
C109 C108 1.384 . S
C109 C110 1.378 . S
C110 C109 1.378 . S
C110 C111 1.378 . S
C110 H122 0.952 . S
C111 C110 1.378 . S
C111 H123 0.950 . S
C111 C142 1.383 . S
H112 C131 0.947 . S
H113 C132 0.946 . S
H114 C134 0.953 . S
H115 C135 0.945 . S
H116 C137 0.952 . S
H117 C138 0.949 . S
H118 C140 0.950 . S
H119 C141 0.948 . S
H120 C143 0.951 . S
H121 C108 0.947 . S
H122 C110 0.952 . S
H123 C111 0.950 . S
N124 C127 1.382 . S
N124 C129 1.363 . S
N125 C127 1.371 . S
N125 C128 1.372 . S
N126 C128 1.361 . S
N126 C129 1.377 . S
C127 N124 1.382 . S
C127 N125 1.371 . S
C127 C130 1.480 . S
C128 N125 1.372 . S
C128 N126 1.361 . S
C128 C136 1.457 . S
C129 N124 1.363 . S
C129 N126 1.377 . S
C129 C142 1.479 . S
C130 C127 1.480 . S
C130 C131 1.383 . S
C130 C135 1.385 . S
C131 H112 0.947 . S
C131 C130 1.383 . S
C131 C132 1.388 . S
C132 H113 0.946 . S
C132 C131 1.388 . S
C132 C133 1.384 . S
C133 C132 1.384 . S
C133 C134 1.377 . S
C134 H114 0.953 . S
C134 C133 1.377 . S
C134 C135 1.369 . S
C135 H115 0.945 . S
C135 C130 1.385 . S
C135 C134 1.369 . S
C136 C128 1.457 . S
C136 C137 1.372 . S
C136 C141 1.364 . S
C137 H116 0.952 . S
C137 C136 1.372 . S
C137 C138 1.389 . S
C138 H117 0.949 . S
C138 C137 1.389 . S
C138 C139 1.387 . S
C139 C138 1.387 . S
C139 C140 1.372 . S
C140 H118 0.950 . S
C140 C139 1.372 . S
C140 C141 1.379 . S
C141 H119 0.948 . S
C141 C136 1.364 . S
C141 C140 1.379 . S
C142 C111 1.383 . S
C142 C129 1.479 . S
C142 C143 1.398 . S
C143 C108 1.382 . S
C143 H120 0.951 . S
C143 C142 1.398 . S
C144 C145 1.384 . S
C144 H157 0.947 . S
C144 C179 1.382 . S
C145 C144 1.384 . S
C145 C146 1.378 . S
C146 C145 1.378 . S
C146 C147 1.378 . S
C146 H158 0.952 . S
C147 C146 1.378 . S
C147 H159 0.950 . S
C147 C178 1.383 . S
H148 C167 0.947 1_556 S
H149 C168 0.946 . S
H150 C170 0.953 . S
H151 C171 0.945 . S
H152 C173 0.952 . S
H153 C174 0.949 . S
H154 C176 0.950 . S
H155 C177 0.948 . S
H156 C179 0.951 . S
H157 C144 0.947 . S
H158 C146 0.952 . S
H159 C147 0.950 . S
N160 C163 1.382 . S
N160 C165 1.363 1_554 S
N161 C163 1.371 . S
N161 C164 1.372 . S
N162 C164 1.361 . S
N162 C165 1.377 1_554 S
C163 N160 1.382 . S
C163 N161 1.371 . S
C163 C166 1.480 . S
C164 N161 1.372 . S
C164 N162 1.361 . S
C164 C172 1.457 . S
C165 N160 1.363 1_556 S
C165 N162 1.377 1_556 S
C165 C178 1.479 . S
C166 C163 1.480 . S
C166 C167 1.383 . S
C166 C171 1.385 . S
C167 H148 0.947 1_554 S
C167 C166 1.383 . S
C167 C168 1.388 . S
C168 H149 0.946 . S
C168 C167 1.388 . S
C168 C169 1.384 . S
C169 C168 1.384 . S
C169 C170 1.377 . S
C170 H150 0.953 . S
C170 C169 1.377 . S
C170 C171 1.369 . S
C171 H151 0.945 . S
C171 C166 1.385 . S
C171 C170 1.369 . S
C172 C164 1.457 . S
C172 C173 1.372 . S
C172 C177 1.364 . S
C173 H152 0.952 . S
C173 C172 1.372 . S
C173 C174 1.389 . S
C174 H153 0.949 . S
C174 C173 1.389 . S
C174 C175 1.387 . S
C175 C174 1.387 . S
C175 C176 1.372 . S
C176 H154 0.950 . S
C176 C175 1.372 . S
C176 C177 1.379 . S
C177 H155 0.948 . S
C177 C172 1.364 . S
C177 C176 1.379 . S
C178 C147 1.383 . S
C178 C165 1.479 . S
C178 C179 1.398 . S
C179 C144 1.382 . S
C179 H156 0.951 . S
C179 C178 1.398 . S
C180 C181 1.384 . S
C180 H193 0.948 1_455 S
C180 C215 1.382 . S
C181 C180 1.384 . S
C181 C182 1.378 . S
C182 C181 1.378 . S
C182 C183 1.378 . S
C182 H194 0.952 . S
C183 C182 1.378 . S
C183 H195 0.950 . S
C183 C214 1.383 . S
H184 C203 0.947 1_556 S
H185 C204 0.949 . S
H186 C206 0.953 . S
H187 C207 0.945 . S
H188 C209 0.947 1_655 S
H189 C210 0.954 . S
H190 C212 0.950 . S
H191 C213 0.948 . S
H192 C215 0.950 1_655 S
H193 C180 0.948 1_655 S
H194 C182 0.952 . S
H195 C183 0.950 . S
N196 C199 1.382 . S
N196 C201 1.363 1_554 S
N197 C199 1.371 . S
N197 C200 1.372 . S
N198 C200 1.361 . S
N198 C201 1.377 1_554 S
C199 N196 1.382 . S
C199 N197 1.371 . S
C199 C202 1.480 . S
C200 N197 1.372 . S
C200 N198 1.361 . S
C200 C208 1.457 . S
C201 N196 1.363 1_556 S
C201 N198 1.377 1_556 S
C201 C214 1.479 . S
C202 C199 1.480 . S
C202 C203 1.383 . S
C202 C207 1.385 . S
C203 H184 0.947 1_554 S
C203 C202 1.383 . S
C203 C204 1.387 1_455 S
C204 H185 0.949 . S
C204 C203 1.387 1_655 S
C204 C205 1.382 1_655 S
C205 C204 1.382 1_455 S
C205 C206 1.377 . S
C206 H186 0.953 . S
C206 C205 1.377 . S
C206 C207 1.369 . S
C207 H187 0.945 . S
C207 C202 1.385 . S
C207 C206 1.369 . S
C208 C200 1.457 . S
C208 C209 1.379 . S
C208 C213 1.364 . S
C209 H188 0.947 1_455 S
C209 C208 1.379 . S
C209 C210 1.387 1_455 S
C210 H189 0.954 . S
C210 C209 1.387 1_655 S
C210 C211 1.384 1_655 S
C211 C210 1.384 1_455 S
C211 C212 1.372 . S
C212 H190 0.950 . S
C212 C211 1.372 . S
C212 C213 1.379 . S
C213 H191 0.948 . S
C213 C208 1.364 . S
C213 C212 1.379 . S
C214 C183 1.383 . S
C214 C201 1.479 . S
C214 C215 1.399 . S
C215 C180 1.382 . S
C215 H192 0.950 1_455 S
C215 C214 1.399 . S
C216 C217 1.384 . S
C216 H229 0.948 1_545 S
C216 C251 1.382 . S
C217 C216 1.384 . S
C217 C218 1.378 . S
C218 C217 1.378 . S
C218 C219 1.378 . S
C218 H230 0.952 . S
C219 C218 1.378 . S
C219 H231 0.950 . S
C219 C250 1.383 . S
H220 C239 0.947 1_556 S
H221 C240 0.949 . S
H222 C242 0.953 . S
H223 C243 0.945 . S
H224 C245 0.947 1_565 S
H225 C246 0.954 . S
H226 C248 0.950 . S
H227 C249 0.948 . S
H228 C251 0.950 1_565 S
H229 C216 0.948 1_565 S
H230 C218 0.952 . S
H231 C219 0.950 . S
N232 C235 1.382 . S
N232 C237 1.363 1_554 S
N233 C235 1.371 . S
N233 C236 1.372 . S
N234 C236 1.361 . S
N234 C237 1.377 1_554 S
C235 N232 1.382 . S
C235 N233 1.371 . S
C235 C238 1.480 . S
C236 N233 1.372 . S
C236 N234 1.361 . S
C236 C244 1.457 . S
C237 N232 1.363 1_556 S
C237 N234 1.377 1_556 S
C237 C250 1.479 . S
C238 C235 1.480 . S
C238 C239 1.383 . S
C238 C243 1.385 . S
C239 H220 0.947 1_554 S
C239 C238 1.383 . S
C239 C240 1.387 1_545 S
C240 H221 0.949 . S
C240 C239 1.387 1_565 S
C240 C241 1.382 1_565 S
C241 C240 1.382 1_545 S
C241 C242 1.377 . S
C242 H222 0.953 . S
C242 C241 1.377 . S
C242 C243 1.369 . S
C243 H223 0.945 . S
C243 C238 1.385 . S
C243 C242 1.369 . S
C244 C236 1.457 . S
C244 C245 1.379 . S
C244 C249 1.364 . S
C245 H224 0.947 1_545 S
C245 C244 1.379 . S
C245 C246 1.387 1_545 S
C246 H225 0.954 . S
C246 C245 1.387 1_565 S
C246 C247 1.384 1_565 S
C247 C246 1.384 1_545 S
C247 C248 1.372 . S
C248 H226 0.950 . S
C248 C247 1.372 . S
C248 C249 1.379 . S
C249 H227 0.948 . S
C249 C244 1.364 . S
C249 C248 1.379 . S
C250 C219 1.383 . S
C250 C237 1.479 . S
C250 C251 1.399 . S
C251 C216 1.382 . S
C251 H228 0.950 1_545 S
C251 C250 1.399 . S
C252 C253 1.384 . S
C252 H265 0.947 . S
C252 C287 1.382 . S
C253 C252 1.384 . S
C253 C254 1.378 . S
C254 C253 1.378 . S
C254 C255 1.378 . S
C254 H266 0.952 . S
C255 C254 1.378 . S
C255 H267 0.950 . S
C255 C286 1.383 . S
H256 C275 0.947 . S
H257 C276 0.946 . S
H258 C278 0.953 . S
H259 C279 0.945 1_556 S
H260 C281 0.952 . S
H261 C282 0.949 . S
H262 C284 0.950 . S
H263 C285 0.948 . S
H264 C287 0.951 . S
H265 C252 0.947 . S
H266 C254 0.952 . S
H267 C255 0.950 . S
N268 C271 1.382 . S
N268 C273 1.363 . S
N269 C271 1.371 1_556 S
N269 C272 1.372 . S
N270 C272 1.361 1_554 S
N270 C273 1.377 . S
C271 N268 1.382 . S
C271 N269 1.371 1_554 S
C271 C274 1.480 . S
C272 N269 1.372 . S
C272 N270 1.361 1_556 S
C272 C280 1.457 . S
C273 N268 1.363 . S
C273 N270 1.377 . S
C273 C286 1.479 . S
C274 C271 1.480 . S
C274 C275 1.383 . S
C274 C279 1.385 . S
C275 H256 0.947 . S
C275 C274 1.383 . S
C275 C276 1.388 . S
C276 H257 0.946 . S
C276 C275 1.388 . S
C276 C277 1.384 . S
C277 C276 1.384 . S
C277 C278 1.377 . S
C278 H258 0.953 . S
C278 C277 1.377 . S
C278 C279 1.369 . S
C279 H259 0.945 1_554 S
C279 C274 1.385 . S
C279 C278 1.369 . S
C280 C272 1.457 . S
C280 C281 1.372 . S
C280 C285 1.364 . S
C281 H260 0.952 . S
C281 C280 1.372 . S
C281 C282 1.389 . S
C282 H261 0.949 . S
C282 C281 1.389 . S
C282 C283 1.387 . S
C283 C282 1.387 . S
C283 C284 1.372 . S
C284 H262 0.950 . S
C284 C283 1.372 . S
C284 C285 1.379 . S
C285 H263 0.948 . S
C285 C280 1.364 . S
C285 C284 1.379 . S
C286 C255 1.383 . S
C286 C273 1.479 . S
C286 C287 1.398 . S
C287 C252 1.382 . S
C287 H264 0.951 . S
C287 C286 1.398 . S
Tb288 C290 2.809 . S
Tb288 O308 2.484 . S
Tb288 O309 2.440 . S
Tb288 O310 2.658 1_565 S
Tb288 O311 2.409 . S
Tb288 O312 2.378 . S
Tb288 O316 2.325 1_455 S
Tb288 O319 2.341 1_565 S
Tb289 C299 2.809 . S
Tb289 O310 2.325 1_655 S
Tb289 O313 2.341 1_545 S
Tb289 O314 2.484 . S
Tb289 O315 2.440 . S
Tb289 O316 2.658 1_545 S
Tb289 O317 2.409 . S
Tb289 O318 2.378 . S
C290 Tb288 2.809 . S
C290 C291 1.514 . S
C290 O308 1.248 . S
C290 O309 1.266 . S
C291 C290 1.514 . S
C291 C292 1.359 . S
C291 C296 1.348 . S
C292 C291 1.359 . S
C292 C293 1.380 . S
C292 H320 0.929 1_455 S
C293 C292 1.380 . S
C293 C294 1.347 . S
C293 H321 0.931 1_455 S
C294 C293 1.347 . S
C294 C295 1.369 . S
C295 C294 1.369 . S
C295 C296 1.408 . S
C295 H322 0.930 . S
C296 C291 1.348 . S
C296 C295 1.408 . S
C296 H323 0.930 . S
C297 O310 1.281 1_565 S
C297 O311 1.254 . S
C298 O312 1.236 1_655 S
C298 O313 1.266 . S
C299 Tb289 2.809 . S
C299 C300 1.514 . S
C299 O314 1.248 . S
C299 O315 1.266 . S
C300 C299 1.514 . S
C300 C301 1.359 . S
C300 C305 1.348 . S
C301 C300 1.359 . S
C301 C302 1.380 . S
C301 H324 0.929 1_655 S
C302 C301 1.380 . S
C302 C303 1.347 . S
C302 H325 0.931 1_655 S
C303 C302 1.347 . S
C303 C304 1.369 . S
C304 C303 1.369 . S
C304 C305 1.408 . S
C304 H326 0.930 . S
C305 C300 1.348 . S
C305 C304 1.408 . S
C305 H327 0.930 . S
C306 O316 1.281 1_545 S
C306 O317 1.254 . S
C307 O318 1.236 1_455 S
C307 O319 1.266 . S
O308 Tb288 2.484 . S
O308 C290 1.248 . S
O309 Tb288 2.440 . S
O309 C290 1.266 . S
O310 Tb288 2.658 1_545 S
O310 Tb289 2.325 1_455 S
O310 C297 1.281 1_545 S
O311 Tb288 2.409 . S
O311 C297 1.254 . S
O312 Tb288 2.378 . S
O312 C298 1.236 1_455 S
O313 Tb289 2.341 1_565 S
O313 C298 1.266 . S
O314 Tb289 2.484 . S
O314 C299 1.248 . S
O315 Tb289 2.440 . S
O315 C299 1.266 . S
O316 Tb288 2.325 1_655 S
O316 Tb289 2.658 1_565 S
O316 C306 1.281 1_565 S
O317 Tb289 2.409 . S
O317 C306 1.254 . S
O318 Tb289 2.378 . S
O318 C307 1.236 1_655 S
O319 Tb288 2.341 1_545 S
O319 C307 1.266 . S
H320 C292 0.929 1_655 S
H321 C293 0.931 1_655 S
H322 C295 0.930 . S
H323 C296 0.930 . S
H324 C301 0.929 1_455 S
H325 C302 0.931 1_455 S
H326 C304 0.930 . S
H327 C305 0.930 . S
Tb328 C330 2.809 . S
Tb328 O348 2.484 . S
Tb328 O349 2.440 . S
Tb328 O350 2.658 . S
Tb328 O351 2.409 . S
Tb328 O352 2.378 . S
Tb328 O356 2.325 1_545 S
Tb328 O359 2.341 . S
Tb329 C339 2.809 . S
Tb329 O350 2.325 1_565 S
Tb329 O353 2.341 . S
Tb329 O354 2.484 . S
Tb329 O355 2.440 . S
Tb329 O356 2.658 . S
Tb329 O357 2.409 . S
Tb329 O358 2.378 . S
C330 Tb328 2.809 . S
C330 C331 1.514 . S
C330 O348 1.248 . S
C330 O349 1.266 . S
C331 C330 1.514 . S
C331 C332 1.359 . S
C331 C336 1.348 . S
C332 C331 1.359 . S
C332 C333 1.380 . S
C332 H360 0.929 1_545 S
C333 C332 1.380 . S
C333 C334 1.347 . S
C333 H361 0.931 1_545 S
C334 C333 1.347 . S
C334 C335 1.369 . S
C335 C334 1.369 . S
C335 C336 1.408 . S
C335 H362 0.930 . S
C336 C331 1.348 . S
C336 C335 1.408 . S
C336 H363 0.930 . S
C337 O350 1.281 . S
C337 O351 1.254 . S
C338 O352 1.236 1_565 S
C338 O353 1.266 . S
C339 Tb329 2.809 . S
C339 C340 1.514 . S
C339 O354 1.248 . S
C339 O355 1.266 . S
C340 C339 1.514 . S
C340 C341 1.359 . S
C340 C345 1.348 . S
C341 C340 1.359 . S
C341 C342 1.380 . S
C341 H364 0.929 1_565 S
C342 C341 1.380 . S
C342 C343 1.347 . S
C342 H365 0.931 1_565 S
C343 C342 1.347 . S
C343 C344 1.369 . S
C344 C343 1.369 . S
C344 C345 1.408 . S
C344 H366 0.930 . S
C345 C340 1.348 . S
C345 C344 1.408 . S
C345 H367 0.930 . S
C346 O356 1.281 . S
C346 O357 1.254 . S
C347 O358 1.236 1_545 S
C347 O359 1.266 . S
O348 Tb328 2.484 . S
O348 C330 1.248 . S
O349 Tb328 2.440 . S
O349 C330 1.266 . S
O350 Tb328 2.658 . S
O350 Tb329 2.325 1_545 S
O350 C337 1.281 . S
O351 Tb328 2.409 . S
O351 C337 1.254 . S
O352 Tb328 2.378 . S
O352 C338 1.236 1_545 S
O353 Tb329 2.341 . S
O353 C338 1.266 . S
O354 Tb329 2.484 . S
O354 C339 1.248 . S
O355 Tb329 2.440 . S
O355 C339 1.266 . S
O356 Tb328 2.325 1_565 S
O356 Tb329 2.658 . S
O356 C346 1.281 . S
O357 Tb329 2.409 . S
O357 C346 1.254 . S
O358 Tb329 2.378 . S
O358 C347 1.236 1_565 S
O359 Tb328 2.341 . S
O359 C347 1.266 . S
H360 C332 0.929 1_565 S
H361 C333 0.931 1_565 S
H362 C335 0.930 . S
H363 C336 0.930 . S
H364 C341 0.929 1_545 S
H365 C342 0.931 1_545 S
H366 C344 0.930 . S
H367 C345 0.930 . S
Tb368 C370 2.809 . S
Tb368 O388 2.484 . S
Tb368 O389 2.440 . S
Tb368 O390 2.658 . S
Tb368 O391 2.409 . S
Tb368 O392 2.378 . S
Tb368 O396 2.325 . S
Tb368 O399 2.341 . S
Tb369 C379 2.809 . S
Tb369 O390 2.325 . S
Tb369 O393 2.341 . S
Tb369 O394 2.484 . S
Tb369 O395 2.440 . S
Tb369 O396 2.658 . S
Tb369 O397 2.409 . S
Tb369 O398 2.378 . S
C370 Tb368 2.809 . S
C370 C371 1.514 . S
C370 O388 1.248 . S
C370 O389 1.266 . S
C371 C370 1.514 . S
C371 C372 1.359 . S
C371 C376 1.348 . S
C372 C371 1.359 . S
C372 C373 1.380 . S
C372 H400 0.929 . S
C373 C372 1.380 . S
C373 C374 1.347 . S
C373 H401 0.931 . S
C374 C373 1.347 . S
C374 C375 1.369 . S
C375 C374 1.369 . S
C375 C376 1.408 . S
C375 H402 0.930 . S
C376 C371 1.348 . S
C376 C375 1.408 . S
C376 H403 0.930 . S
C377 O390 1.281 . S
C377 O391 1.254 . S
C378 O392 1.236 . S
C378 O393 1.266 . S
C379 Tb369 2.809 . S
C379 C380 1.514 . S
C379 O394 1.248 . S
C379 O395 1.266 . S
C380 C379 1.514 . S
C380 C381 1.359 . S
C380 C385 1.348 . S
C381 C380 1.359 . S
C381 C382 1.380 . S
C381 H404 0.929 . S
C382 C381 1.380 . S
C382 C383 1.347 . S
C382 H405 0.931 . S
C383 C382 1.347 . S
C383 C384 1.369 . S
C384 C383 1.369 . S
C384 C385 1.408 . S
C384 H406 0.930 . S
C385 C380 1.348 . S
C385 C384 1.408 . S
C385 H407 0.930 . S
C386 O396 1.281 . S
C386 O397 1.254 . S
C387 O398 1.236 . S
C387 O399 1.266 . S
O388 Tb368 2.484 . S
O388 C370 1.248 . S
O389 Tb368 2.440 . S
O389 C370 1.266 . S
O390 Tb368 2.658 . S
O390 Tb369 2.325 . S
O390 C377 1.281 . S
O391 Tb368 2.409 . S
O391 C377 1.254 . S
O392 Tb368 2.378 . S
O392 C378 1.236 . S
O393 Tb369 2.341 . S
O393 C378 1.266 . S
O394 Tb369 2.484 . S
O394 C379 1.248 . S
O395 Tb369 2.440 . S
O395 C379 1.266 . S
O396 Tb368 2.325 . S
O396 Tb369 2.658 . S
O396 C386 1.281 . S
O397 Tb369 2.409 . S
O397 C386 1.254 . S
O398 Tb369 2.378 . S
O398 C387 1.236 . S
O399 Tb368 2.341 . S
O399 C387 1.266 . S
H400 C372 0.929 . S
H401 C373 0.931 . S
H402 C375 0.930 . S
H403 C376 0.930 . S
H404 C381 0.929 . S
H405 C382 0.931 . S
H406 C384 0.930 . S
H407 C385 0.930 . S
Tb408 C410 2.809 . S
Tb408 O428 2.484 . S
Tb408 O429 2.440 . S
Tb408 O430 2.658 1_655 S
Tb408 O431 2.409 . S
Tb408 O432 2.378 . S
Tb408 O436 2.325 . S
Tb408 O439 2.341 1_655 S
Tb409 C419 2.809 . S
Tb409 O430 2.325 . S
Tb409 O433 2.341 1_455 S
Tb409 O434 2.484 . S
Tb409 O435 2.440 . S
Tb409 O436 2.658 1_455 S
Tb409 O437 2.409 . S
Tb409 O438 2.378 . S
C410 Tb408 2.809 . S
C410 C411 1.514 . S
C410 O428 1.248 . S
C410 O429 1.266 . S
C411 C410 1.514 . S
C411 C412 1.359 . S
C411 C416 1.348 . S
C412 C411 1.359 . S
C412 C413 1.380 . S
C412 H440 0.929 . S
C413 C412 1.380 . S
C413 C414 1.347 . S
C413 H441 0.931 . S
C414 C413 1.347 . S
C414 C415 1.369 . S
C415 C414 1.369 . S
C415 C416 1.408 . S
C415 H442 0.930 . S
C416 C411 1.348 . S
C416 C415 1.408 . S
C416 H443 0.930 . S
C417 O430 1.276 1_655 S
C417 O431 1.261 . S
C418 O432 1.236 . S
C418 O433 1.266 . S
C419 Tb409 2.809 . S
C419 C420 1.514 . S
C419 O434 1.248 . S
C419 O435 1.266 . S
C420 C419 1.514 . S
C420 C421 1.359 . S
C420 C425 1.348 . S
C421 C420 1.359 . S
C421 C422 1.380 . S
C421 H444 0.929 . S
C422 C421 1.380 . S
C422 C423 1.347 . S
C422 H445 0.931 . S
C423 C422 1.347 . S
C423 C424 1.369 . S
C424 C423 1.369 . S
C424 C425 1.408 . S
C424 H446 0.930 . S
C425 C420 1.348 . S
C425 C424 1.408 . S
C425 H447 0.930 . S
C426 O436 1.272 1_455 S
C426 O437 1.266 . S
C427 O438 1.236 . S
C427 O439 1.266 . S
O428 Tb408 2.484 . S
O428 C410 1.248 . S
O429 Tb408 2.440 . S
O429 C410 1.266 . S
O430 Tb408 2.658 1_455 S
O430 Tb409 2.325 . S
O430 C417 1.276 1_455 S
O431 Tb408 2.409 . S
O431 C417 1.261 . S
O432 Tb408 2.378 . S
O432 C418 1.236 . S
O433 Tb409 2.341 1_655 S
O433 C418 1.266 . S
O434 Tb409 2.484 . S
O434 C419 1.248 . S
O435 Tb409 2.440 . S
O435 C419 1.266 . S
O436 Tb408 2.325 . S
O436 Tb409 2.658 1_655 S
O436 C426 1.272 1_655 S
O437 Tb409 2.409 . S
O437 C426 1.266 . S
O438 Tb409 2.378 . S
O438 C427 1.236 . S
O439 Tb408 2.341 1_455 S
O439 C427 1.266 . S
H440 C412 0.929 . S
H441 C413 0.931 . S
H442 C415 0.930 . S
H443 C416 0.930 . S
H444 C421 0.929 . S
H445 C422 0.931 . S
H446 C424 0.930 . S
H447 C425 0.930 . S
H448 C456 0.950 . S
H449 C461 0.950 . S
H450 C458 0.950 . S
H451 C460 0.950 . S
H452 C462 0.950 . S
H453 C464 0.950 . S
H454 C466 0.950 . S
H455 C467 0.950 . S
C456 H448 0.950 . S
C456 C457 1.389 . S
C456 C458 1.391 . S
C457 C456 1.389 . S
C457 C461 1.390 1_545 S
C458 H450 0.950 . S
C458 C456 1.391 . S
C458 C459 1.407 . S
C459 C458 1.407 . S
C459 C460 1.391 1_545 S
C459 C465 1.491 . S
C460 H451 0.950 . S
C460 C459 1.391 1_565 S
C460 C461 1.391 . S
C461 H449 0.950 . S
C461 C457 1.390 1_565 S
C461 C460 1.391 . S
C462 H452 0.950 . S
C462 C463 1.374 1_565 S
C462 C464 1.391 . S
C463 C462 1.374 1_545 S
C463 C467 1.404 . S
C464 H453 0.950 . S
C464 C462 1.391 . S
C464 C465 1.393 1_565 S
C465 C459 1.491 . S
C465 C464 1.393 1_545 S
C465 C466 1.406 . S
C466 H454 0.950 . S
C466 C465 1.406 . S
C466 C467 1.391 . S
C467 H455 0.950 . S
C467 C463 1.404 . S
C467 C466 1.391 . S
H468 C476 0.950 . S
H469 C481 0.950 . S
H470 C478 0.950 . S
H471 C480 0.950 . S
H472 C482 0.950 . S
H473 C484 0.950 . S
H474 C486 0.950 . S
H475 C487 0.950 . S
C476 H468 0.950 . S
C476 C477 1.386 . S
C476 C478 1.391 . S
C477 C476 1.386 . S
C477 C481 1.393 . S
C478 H470 0.950 . S
C478 C476 1.391 . S
C478 C479 1.400 . S
C479 C478 1.400 . S
C479 C480 1.398 . S
C479 C485 1.491 . S
C480 H471 0.950 . S
C480 C479 1.398 . S
C480 C481 1.391 . S
C481 H469 0.950 . S
C481 C477 1.393 . S
C481 C480 1.391 . S
C482 H472 0.950 . S
C482 C483 1.386 . S
C482 C484 1.391 . S
C483 C482 1.386 . S
C483 C487 1.393 . S
C484 H473 0.950 . S
C484 C482 1.391 . S
C484 C485 1.400 . S
C485 C479 1.491 . S
C485 C484 1.400 . S
C485 C486 1.398 . S
C486 H474 0.950 . S
C486 C485 1.398 . S
C486 C487 1.391 . S
C487 H475 0.950 . S
C487 C483 1.393 . S
C487 C486 1.391 . S
H488 C496 0.950 . S
H489 C501 0.950 . S
H490 C498 0.950 . S
H491 C500 0.950 . S
H492 C502 0.950 . S
H493 C504 0.950 . S
H494 C506 0.950 . S
H495 C507 0.950 . S
C496 H488 0.950 . S
C496 C497 1.386 . S
C496 C498 1.391 . S
C497 C496 1.386 . S
C497 C501 1.393 . S
C498 H490 0.950 . S
C498 C496 1.391 . S
C498 C499 1.400 . S
C499 C498 1.400 . S
C499 C500 1.398 . S
C499 C505 1.491 . S
C500 H491 0.950 . S
C500 C499 1.398 . S
C500 C501 1.391 . S
C501 H489 0.950 . S
C501 C497 1.393 . S
C501 C500 1.391 . S
C502 H492 0.950 . S
C502 C503 1.386 . S
C502 C504 1.391 . S
C503 C502 1.386 . S
C503 C507 1.393 . S
C504 H493 0.950 . S
C504 C502 1.391 . S
C504 C505 1.400 . S
C505 C499 1.491 . S
C505 C504 1.400 . S
C505 C506 1.398 . S
C506 H494 0.950 . S
C506 C505 1.398 . S
C506 C507 1.391 . S
C507 H495 0.950 . S
C507 C503 1.393 . S
C507 C506 1.391 . S
H508 C516 0.950 . S
H509 C521 0.950 . S
H510 C518 0.950 . S
H511 C520 0.950 . S
H512 C522 0.950 . S
H513 C524 0.950 . S
H514 C526 0.950 . S
H515 C527 0.950 . S
C516 H508 0.950 . S
C516 C517 1.392 . S
C516 C518 1.391 . S
C517 C516 1.392 . S
C517 C521 1.387 1_655 S
C518 H510 0.950 . S
C518 C516 1.391 . S
C518 C519 1.398 1_655 S
C519 C518 1.398 1_455 S
C519 C520 1.400 . S
C519 C525 1.491 . S
C520 H511 0.950 . S
C520 C519 1.400 . S
C520 C521 1.391 . S
C521 H509 0.950 . S
C521 C517 1.387 1_455 S
C521 C520 1.391 . S
C522 H512 0.950 . S
C522 C523 1.386 . S
C522 C524 1.391 . S
C523 C522 1.386 . S
C523 C527 1.393 1_455 S
C524 H513 0.950 . S
C524 C522 1.391 . S
C524 C525 1.400 . S
C525 C519 1.491 . S
C525 C524 1.400 . S
C525 C526 1.398 1_455 S
C526 H514 0.950 . S
C526 C525 1.398 1_655 S
C526 C527 1.391 . S
C527 H515 0.950 . S
C527 C523 1.393 1_655 S
C527 C526 1.391 . S
H528 C536 0.950 . S
H529 C541 0.950 . S
H530 C538 0.950 . S
H531 C540 0.950 . S
H532 C542 0.950 . S
H533 C544 0.950 1_554 S
H534 C546 0.950 . S
H535 C547 0.950 . S
C536 H528 0.950 . S
C536 C537 1.402 . S
C536 C538 1.391 . S
C537 C536 1.402 . S
C537 C541 1.377 1_545 S
C538 H530 0.950 . S
C538 C536 1.391 . S
C538 C539 1.405 . S
C539 C538 1.405 . S
C539 C540 1.393 1_545 S
C539 C545 1.490 1_545 S
C540 H531 0.950 . S
C540 C539 1.393 1_565 S
C540 C541 1.391 . S
C541 H529 0.950 . S
C541 C537 1.377 1_565 S
C541 C540 1.391 . S
C542 H532 0.950 . S
C542 C543 1.405 . S
C542 C544 1.391 . S
C543 C542 1.405 . S
C543 C547 1.373 1_565 S
C544 H533 0.950 1_556 S
C544 C542 1.391 . S
C544 C545 1.409 1_556 S
C545 C539 1.490 1_565 S
C545 C544 1.409 1_554 S
C545 C546 1.390 1_564 S
C546 H534 0.950 . S
C546 C545 1.390 1_546 S
C546 C547 1.391 . S
C547 H535 0.950 . S
C547 C543 1.373 1_545 S
C547 C546 1.391 . S
H548 C556 0.950 . S
H549 C561 0.950 . S
H550 C558 0.950 . S
H551 C560 0.950 . S
H552 C562 0.950 . S
H553 C564 0.950 . S
H554 C566 0.950 1_554 S
H555 C567 0.950 . S
C556 H548 0.950 . S
C556 C557 1.386 . S
C556 C558 1.391 . S
C557 C556 1.386 . S
C557 C561 1.393 . S
C558 H550 0.950 . S
C558 C556 1.391 . S
C558 C559 1.400 . S
C559 C558 1.400 . S
C559 C560 1.398 . S
C559 C565 1.491 . S
C560 H551 0.950 . S
C560 C559 1.398 . S
C560 C561 1.391 . S
C561 H549 0.950 . S
C561 C557 1.393 . S
C561 C560 1.391 . S
C562 H552 0.950 . S
C562 C563 1.386 . S
C562 C564 1.391 . S
C563 C562 1.386 . S
C563 C567 1.393 . S
C564 H553 0.950 . S
C564 C562 1.391 . S
C564 C565 1.400 1_556 S
C565 C559 1.491 . S
C565 C564 1.400 1_554 S
C565 C566 1.398 1_554 S
C566 H554 0.950 1_556 S
C566 C565 1.398 1_556 S
C566 C567 1.391 . S
C567 H555 0.950 . S
C567 C563 1.393 . S
C567 C566 1.391 . S
H568 C576 0.950 . S
H569 C581 0.950 . S
H570 C578 0.950 . S
H571 C580 0.950 . S
H572 C582 0.950 . S
H573 C584 0.950 1_554 S
H574 C586 0.950 . S
H575 C587 0.950 . S
C576 H568 0.950 . S
C576 C577 1.386 . S
C576 C578 1.391 . S
C577 C576 1.386 . S
C577 C581 1.393 . S
C578 H570 0.950 . S
C578 C576 1.391 . S
C578 C579 1.400 . S
C579 C578 1.400 . S
C579 C580 1.398 . S
C579 C585 1.491 . S
C580 H571 0.950 . S
C580 C579 1.398 . S
C580 C581 1.391 . S
C581 H569 0.950 . S
C581 C577 1.393 . S
C581 C580 1.391 . S
C582 H572 0.950 . S
C582 C583 1.386 . S
C582 C584 1.391 . S
C583 C582 1.386 . S
C583 C587 1.393 . S
C584 H573 0.950 1_556 S
C584 C582 1.391 . S
C584 C585 1.400 1_556 S
C585 C579 1.491 . S
C585 C584 1.400 1_554 S
C585 C586 1.398 1_554 S
C586 H574 0.950 . S
C586 C585 1.398 1_556 S
C586 C587 1.391 . S
C587 H575 0.950 . S
C587 C583 1.393 . S
C587 C586 1.391 . S
H588 C596 0.950 . S
H589 C601 0.950 . S
H590 C598 0.950 . S
H591 C600 0.950 . S
H592 C602 0.950 . S
H593 C604 0.950 . S
H594 C606 0.950 1_554 S
H595 C607 0.950 . S
C596 H588 0.950 . S
C596 C597 1.359 1_455 S
C596 C598 1.391 . S
C597 C596 1.359 1_655 S
C597 C601 1.422 . S
C598 H590 0.950 . S
C598 C596 1.391 . S
C598 C599 1.375 1_455 S
C599 C598 1.375 1_655 S
C599 C600 1.426 . S
C599 C605 1.490 . S
C600 H591 0.950 . S
C600 C599 1.426 . S
C600 C601 1.391 . S
C601 H589 0.950 . S
C601 C597 1.422 . S
C601 C600 1.391 . S
C602 H592 0.950 . S
C602 C603 1.394 . S
C602 C604 1.391 . S
C603 C602 1.394 . S
C603 C607 1.385 1_655 S
C604 H593 0.950 . S
C604 C602 1.391 . S
C604 C605 1.409 1_556 S
C605 C599 1.490 . S
C605 C604 1.409 1_554 S
C605 C606 1.389 1_654 S
C606 H594 0.950 1_556 S
C606 C605 1.389 1_456 S
C606 C607 1.391 . S
C607 H595 0.950 . S
C607 C603 1.385 1_455 S
C607 C606 1.391 . S
H608 C616 0.950 . S
H609 C621 0.950 . S
H610 C618 0.950 . S
H611 C620 0.950 . S
H612 C622 0.950 . S
H613 C624 0.950 . S
H614 C626 0.950 1_455 S
H615 C627 0.950 . S
C616 H608 0.950 . S
C616 C617 1.386 . S
C616 C618 1.391 . S
C617 C616 1.386 . S
C617 C621 1.393 1_455 S
C618 H610 0.950 . S
C618 C616 1.391 . S
C618 C619 1.400 1_455 S
C619 C618 1.400 1_655 S
C619 C620 1.398 . S
C619 C625 1.491 . S
C620 H611 0.950 . S
C620 C619 1.398 . S
C620 C621 1.391 . S
C621 H609 0.950 . S
C621 C617 1.393 1_655 S
C621 C620 1.391 . S
C622 H612 0.950 . S
C622 C623 1.386 . S
C622 C624 1.391 . S
C623 C622 1.386 . S
C623 C627 1.393 . S
C624 H613 0.950 . S
C624 C622 1.391 . S
C624 C625 1.400 . S
C625 C619 1.491 . S
C625 C624 1.400 . S
C625 C626 1.398 . S
C626 H614 0.950 1_655 S
C626 C625 1.398 . S
C626 C627 1.391 . S
C627 H615 0.950 . S
C627 C623 1.393 . S
C627 C626 1.391 . S
H628 C636 0.950 . S
H629 C641 0.950 . S
H630 C638 0.950 . S
H631 C640 0.950 . S
H632 C642 0.950 . S
H633 C644 0.950 . S
H634 C646 0.950 . S
H635 C647 0.950 . S
C636 H628 0.950 . S
C636 C637 1.386 . S
C636 C638 1.391 1_545 S
C637 C636 1.386 . S
C637 C641 1.393 1_545 S
C638 H630 0.950 . S
C638 C636 1.391 1_565 S
C638 C639 1.400 . S
C639 C638 1.400 . S
C639 C640 1.398 . S
C639 C645 1.491 . S
C640 H631 0.950 . S
C640 C639 1.398 . S
C640 C641 1.391 . S
C641 H629 0.950 . S
C641 C637 1.393 1_565 S
C641 C640 1.391 . S
C642 H632 0.950 . S
C642 C643 1.386 . S
C642 C644 1.391 . S
C643 C642 1.386 . S
C643 C647 1.393 . S
C644 H633 0.950 . S
C644 C642 1.391 . S
C644 C645 1.400 . S
C645 C639 1.491 . S
C645 C644 1.400 . S
C645 C646 1.398 . S
C646 H634 0.950 . S
C646 C645 1.398 . S
C646 C647 1.391 . S
C647 H635 0.950 . S
C647 C643 1.393 . S
C647 C646 1.391 . S
H648 C656 0.950 . S
H649 C661 0.950 . S
H650 C658 0.950 . S
H651 C660 0.950 . S
H652 C662 0.950 . S
H653 C664 0.950 . S
H654 C666 0.950 . S
H655 C667 0.950 . S
C656 H648 0.950 . S
C656 C657 1.386 . S
C656 C658 1.391 . S
C657 C656 1.386 . S
C657 C661 1.393 . S
C658 H650 0.950 . S
C658 C656 1.391 . S
C658 C659 1.400 . S
C659 C658 1.400 . S
C659 C660 1.398 . S
C659 C665 1.491 . S
C660 H651 0.950 . S
C660 C659 1.398 . S
C660 C661 1.391 . S
C661 H649 0.950 . S
C661 C657 1.393 . S
C661 C660 1.391 . S
C662 H652 0.950 . S
C662 C663 1.386 . S
C662 C664 1.391 . S
C663 C662 1.386 . S
C663 C667 1.393 . S
C664 H653 0.950 . S
C664 C662 1.391 . S
C664 C665 1.400 . S
C665 C659 1.491 . S
C665 C664 1.400 . S
C665 C666 1.398 . S
C666 H654 0.950 . S
C666 C665 1.398 . S
C666 C667 1.391 . S
C667 H655 0.950 . S
C667 C663 1.393 . S
C667 C666 1.391 . S
H668 C676 0.950 . S
H669 C681 0.950 . S
H670 C678 0.950 . S
H671 C680 0.950 . S
H672 C682 0.950 . S
H673 C684 0.950 . S
H674 C686 0.950 . S
H675 C687 0.950 . S
C676 H668 0.950 . S
C676 C677 1.386 . S
C676 C678 1.391 . S
C677 C676 1.386 . S
C677 C681 1.393 . S
C678 H670 0.950 . S
C678 C676 1.391 . S
C678 C679 1.400 . S
C679 C678 1.400 . S
C679 C680 1.398 . S
C679 C685 1.491 . S
C680 H671 0.950 . S
C680 C679 1.398 . S
C680 C681 1.391 . S
C681 H669 0.950 . S
C681 C677 1.393 . S
C681 C680 1.391 . S
C682 H672 0.950 . S
C682 C683 1.386 . S
C682 C684 1.391 . S
C683 C682 1.386 . S
C683 C687 1.393 . S
C684 H673 0.950 . S
C684 C682 1.391 . S
C684 C685 1.400 . S
C685 C679 1.491 . S
C685 C684 1.400 . S
C685 C686 1.398 . S
C686 H674 0.950 . S
C686 C685 1.398 . S
C686 C687 1.391 . S
C687 H675 0.950 . S
C687 C683 1.393 . S
C687 C686 1.391 . S
H688 C696 0.950 . S
H689 C701 0.950 . S
H690 C698 0.950 1_556 S
H691 C700 0.950 . S
H692 C702 0.950 . S
H693 C704 0.950 . S
H694 C706 0.950 . S
H695 C707 0.950 . S
C696 H688 0.950 . S
C696 C697 1.386 . S
C696 C698 1.391 1_655 S
C697 C696 1.386 . S
C697 C701 1.393 1_655 S
C698 H690 0.950 1_554 S
C698 C696 1.391 1_455 S
C698 C699 1.400 . S
C699 C698 1.400 . S
C699 C700 1.398 . S
C699 C705 1.491 . S
C700 H691 0.950 . S
C700 C699 1.398 . S
C700 C701 1.391 . S
C701 H689 0.950 . S
C701 C697 1.393 1_455 S
C701 C700 1.391 . S
C702 H692 0.950 . S
C702 C703 1.386 1_554 S
C702 C704 1.391 . S
C703 C702 1.386 1_556 S
C703 C707 1.393 . S
C704 H693 0.950 . S
C704 C702 1.391 . S
C704 C705 1.400 . S
C705 C699 1.491 . S
C705 C704 1.400 . S
C705 C706 1.398 1_554 S
C706 H694 0.950 . S
C706 C705 1.398 1_556 S
C706 C707 1.391 . S
C707 H695 0.950 . S
C707 C703 1.393 . S
C707 C706 1.391 . S
H708 C716 0.950 . S
H709 C721 0.950 . S
H710 C718 0.950 . S
H711 C720 0.950 . S
H712 C722 0.948 1_565 S
H713 C724 0.950 1_565 S
H714 C726 0.950 . S
H715 C727 0.950 . S
C716 H708 0.950 . S
C716 C717 1.386 1_545 S
C716 C718 1.391 . S
C717 C716 1.386 1_565 S
C717 C721 1.393 . S
C718 H710 0.950 . S
C718 C716 1.391 . S
C718 C719 1.400 . S
C719 C718 1.400 . S
C719 C720 1.398 1_545 S
C719 C725 1.491 . S
C720 H711 0.950 . S
C720 C719 1.398 1_565 S
C720 C721 1.391 . S
C721 H709 0.950 . S
C721 C717 1.393 . S
C721 C720 1.391 . S
C722 H712 0.948 1_545 S
C722 C723 1.386 . S
C722 C724 1.391 1_556 S
C723 C722 1.386 . S
C723 C727 1.393 . S
C724 H713 0.950 1_545 S
C724 C722 1.391 1_554 S
C724 C725 1.400 . S
C725 C719 1.491 . S
C725 C724 1.400 . S
C725 C726 1.398 . S
C726 H714 0.950 . S
C726 C725 1.398 . S
C726 C727 1.391 1_554 S
C727 H715 0.950 . S
C727 C723 1.393 . S
C727 C726 1.391 1_556 S
H728 C736 0.950 . S
H729 C741 0.950 . S
H730 C738 0.950 1_556 S
H731 C740 0.950 . S
H732 C742 0.950 . S
H733 C744 0.950 . S
H734 C746 0.950 . S
H735 C747 0.950 . S
C736 H728 0.950 . S
C736 C737 1.386 . S
C736 C738 1.391 . S
C737 C736 1.386 . S
C737 C741 1.393 . S
C738 H730 0.950 1_554 S
C738 C736 1.391 . S
C738 C739 1.400 . S
C739 C738 1.400 . S
C739 C740 1.398 . S
C739 C745 1.491 . S
C740 H731 0.950 . S
C740 C739 1.398 . S
C740 C741 1.391 . S
C741 H729 0.950 . S
C741 C737 1.393 . S
C741 C740 1.391 . S
C742 H732 0.950 . S
C742 C743 1.386 1_554 S
C742 C744 1.391 . S
C743 C742 1.386 1_556 S
C743 C747 1.393 . S
C744 H733 0.950 . S
C744 C742 1.391 . S
C744 C745 1.400 . S
C745 C739 1.491 . S
C745 C744 1.400 . S
C745 C746 1.398 1_554 S
C746 H734 0.950 . S
C746 C745 1.398 1_556 S
C746 C747 1.391 . S
C747 H735 0.950 . S
C747 C743 1.393 . S
C747 C746 1.391 . S
H748 C756 0.950 . S
H749 C761 0.950 . S
H750 C758 0.950 1_556 S
H751 C760 0.950 . S
H752 C762 0.950 . S
H753 C764 0.950 . S
H754 C766 0.950 . S
H755 C767 0.950 . S
C756 H748 0.950 . S
C756 C757 1.386 . S
C756 C758 1.391 . S
C757 C756 1.386 . S
C757 C761 1.393 . S
C758 H750 0.950 1_554 S
C758 C756 1.391 . S
C758 C759 1.400 . S
C759 C758 1.400 . S
C759 C760 1.398 . S
C759 C765 1.491 . S
C760 H751 0.950 . S
C760 C759 1.398 . S
C760 C761 1.391 . S
C761 H749 0.950 . S
C761 C757 1.393 . S
C761 C760 1.391 . S
C762 H752 0.950 . S
C762 C763 1.386 1_554 S
C762 C764 1.391 . S
C763 C762 1.386 1_556 S
C763 C767 1.393 . S
C764 H753 0.950 . S
C764 C762 1.391 . S
C764 C765 1.400 . S
C765 C759 1.491 . S
C765 C764 1.400 . S
C765 C766 1.398 1_554 S
C766 H754 0.950 . S
C766 C765 1.398 1_556 S
C766 C767 1.391 . S
C767 H755 0.950 . S
C767 C763 1.393 . S
C767 C766 1.391 . S
H768 C776 0.950 . S
H769 C781 0.950 . S
H770 C778 0.950 . S
H771 C780 0.950 . S
H772 C782 0.950 . S
H773 C784 0.950 . S
H774 C786 0.950 . S
H775 C787 0.950 . S
C776 H768 0.950 . S
C776 C777 1.386 . S
C776 C778 1.391 . S
C777 C776 1.386 . S
C777 C781 1.393 1_455 S
C778 H770 0.950 . S
C778 C776 1.391 . S
C778 C779 1.400 . S
C779 C778 1.400 . S
C779 C780 1.398 1_455 S
C779 C785 1.491 . S
C780 H771 0.950 . S
C780 C779 1.398 1_655 S
C780 C781 1.391 . S
C781 H769 0.950 . S
C781 C777 1.393 1_655 S
C781 C780 1.391 . S
C782 H772 0.950 . S
C782 C783 1.386 1_655 S
C782 C784 1.391 . S
C783 C782 1.386 1_455 S
C783 C787 1.393 . S
C784 H773 0.950 . S
C784 C782 1.391 . S
C784 C785 1.400 1_655 S
C785 C779 1.491 . S
C785 C784 1.400 1_455 S
C785 C786 1.398 . S
C786 H774 0.950 . S
C786 C785 1.398 . S
C786 C787 1.391 . S
C787 H775 0.950 . S
C787 C783 1.393 . S
C787 C786 1.391 . S
H788 C796 0.950 . S
H789 C801 0.950 . S
H790 C798 0.950 . S
H791 C800 0.950 . S
H792 C802 0.950 . S
H793 C804 0.950 . S
H794 C806 0.950 . S
H795 C807 0.950 . S
C796 H788 0.950 . S
C796 C797 1.386 1_565 S
C796 C798 1.391 . S
C797 C796 1.386 1_545 S
C797 C801 1.393 . S
C798 H790 0.950 . S
C798 C796 1.391 . S
C798 C799 1.400 1_565 S
C799 C798 1.400 1_545 S
C799 C800 1.398 . S
C799 C805 1.491 . S
C800 H791 0.950 . S
C800 C799 1.398 . S
C800 C801 1.391 . S
C801 H789 0.950 . S
C801 C797 1.393 . S
C801 C800 1.391 . S
C802 H792 0.950 . S
C802 C803 1.386 . S
C802 C804 1.391 . S
C803 C802 1.386 . S
C803 C807 1.393 1_545 S
C804 H793 0.950 . S
C804 C802 1.391 . S
C804 C805 1.400 . S
C805 C799 1.491 . S
C805 C804 1.400 . S
C805 C806 1.398 1_545 S
C806 H794 0.950 . S
C806 C805 1.398 1_565 S
C806 C807 1.391 . S
C807 H795 0.950 . S
C807 C803 1.393 1_565 S
C807 C806 1.391 . S
H808 C816 0.950 . S
H809 C821 0.950 . S
H810 C818 0.950 . S
H811 C820 0.950 . S
H812 C822 0.950 . S
H813 C824 0.950 . S
H814 C826 0.950 . S
H815 C827 0.950 . S
C816 H808 0.950 . S
C816 C817 1.386 . S
C816 C818 1.391 . S
C817 C816 1.386 . S
C817 C821 1.393 . S
C818 H810 0.950 . S
C818 C816 1.391 . S
C818 C819 1.400 . S
C819 C818 1.400 . S
C819 C820 1.398 . S
C819 C825 1.491 . S
C820 H811 0.950 . S
C820 C819 1.398 . S
C820 C821 1.391 . S
C821 H809 0.950 . S
C821 C817 1.393 . S
C821 C820 1.391 . S
C822 H812 0.950 . S
C822 C823 1.386 . S
C822 C824 1.391 . S
C823 C822 1.386 . S
C823 C827 1.393 . S
C824 H813 0.950 . S
C824 C822 1.391 . S
C824 C825 1.400 . S
C825 C819 1.491 . S
C825 C824 1.400 . S
C825 C826 1.398 . S
C826 H814 0.950 . S
C826 C825 1.398 . S
C826 C827 1.391 . S
C827 H815 0.950 . S
C827 C823 1.393 . S
C827 C826 1.391 . S
H828 C836 0.950 . S
H829 C841 0.950 . S
H830 C838 0.950 . S
H831 C840 0.950 . S
H832 C842 0.950 . S
H833 C844 0.950 . S
H834 C846 0.950 . S
H835 C847 0.950 . S
C836 H828 0.950 . S
C836 C837 1.386 . S
C836 C838 1.391 . S
C837 C836 1.386 . S
C837 C841 1.393 . S
C838 H830 0.950 . S
C838 C836 1.391 . S
C838 C839 1.400 . S
C839 C838 1.400 . S
C839 C840 1.398 . S
C839 C845 1.491 . S
C840 H831 0.950 . S
C840 C839 1.398 . S
C840 C841 1.391 . S
C841 H829 0.950 . S
C841 C837 1.393 . S
C841 C840 1.391 . S
C842 H832 0.950 . S
C842 C843 1.386 . S
C842 C844 1.391 . S
C843 C842 1.386 . S
C843 C847 1.393 . S
C844 H833 0.950 . S
C844 C842 1.391 . S
C844 C845 1.400 . S
C845 C839 1.491 . S
C845 C844 1.400 . S
C845 C846 1.398 . S
C846 H834 0.950 . S
C846 C845 1.398 . S
C846 C847 1.391 . S
C847 H835 0.950 . S
C847 C843 1.393 . S
C847 C846 1.391 . S
H848 C856 0.950 . S
H849 C861 0.950 . S
H850 C858 0.950 . S
H851 C860 0.950 . S
H852 C862 0.950 . S
H853 C864 0.950 . S
H854 C866 0.950 . S
H855 C867 0.950 . S
C856 H848 0.950 . S
C856 C857 1.386 1_455 S
C856 C858 1.391 . S
C857 C856 1.386 1_655 S
C857 C861 1.393 . S
C858 H850 0.950 . S
C858 C856 1.391 . S
C858 C859 1.400 1_455 S
C859 C858 1.400 1_655 S
C859 C860 1.398 . S
C859 C865 1.491 . S
C860 H851 0.950 . S
C860 C859 1.398 . S
C860 C861 1.391 . S
C861 H849 0.950 . S
C861 C857 1.393 . S
C861 C860 1.391 . S
C862 H852 0.950 . S
C862 C863 1.386 . S
C862 C864 1.391 . S
C863 C862 1.386 . S
C863 C867 1.393 1_655 S
C864 H853 0.950 . S
C864 C862 1.391 . S
C864 C865 1.400 . S
C865 C859 1.491 . S
C865 C864 1.400 . S
C865 C866 1.398 1_655 S
C866 H854 0.950 . S
C866 C865 1.398 1_455 S
C866 C867 1.391 . S
C867 H855 0.950 . S
C867 C863 1.393 1_455 S
C867 C866 1.391 . S
H868 C876 0.950 . S
H869 C881 0.950 . S
H870 C878 0.950 . S
H871 C880 0.950 . S
H872 C882 0.950 . S
H873 C884 0.950 . S
H874 C886 0.950 . S
H875 C887 0.950 . S
C876 H868 0.950 . S
C876 C877 1.386 1_545 S
C876 C878 1.391 . S
C877 C876 1.386 1_565 S
C877 C881 1.393 . S
C878 H870 0.950 . S
C878 C876 1.391 . S
C878 C879 1.400 1_545 S
C879 C878 1.400 1_565 S
C879 C880 1.398 . S
C879 C885 1.491 . S
C880 H871 0.950 . S
C880 C879 1.398 . S
C880 C881 1.391 . S
C881 H869 0.950 . S
C881 C877 1.393 . S
C881 C880 1.391 . S
C882 H872 0.950 . S
C882 C883 1.386 . S
C882 C884 1.391 . S
C883 C882 1.386 . S
C883 C887 1.393 1_565 S
C884 H873 0.950 . S
C884 C882 1.391 . S
C884 C885 1.400 . S
C885 C879 1.491 . S
C885 C884 1.400 . S
C885 C886 1.398 1_565 S
C886 H874 0.950 . S
C886 C885 1.398 1_545 S
C886 C887 1.391 . S
C887 H875 0.950 . S
C887 C883 1.393 1_545 S
C887 C886 1.391 . S
H888 C896 0.950 . S
H889 C901 0.950 . S
H890 C898 0.950 . S
H891 C900 0.950 . S
H892 C902 0.950 . S
H893 C904 0.950 . S
H894 C906 0.950 . S
H895 C907 0.950 . S
C896 H888 0.950 . S
C896 C897 1.386 . S
C896 C898 1.391 . S
C897 C896 1.386 . S
C897 C901 1.393 . S
C898 H890 0.950 . S
C898 C896 1.391 . S
C898 C899 1.400 . S
C899 C898 1.400 . S
C899 C900 1.398 . S
C899 C905 1.491 . S
C900 H891 0.950 . S
C900 C899 1.398 . S
C900 C901 1.391 . S
C901 H889 0.950 . S
C901 C897 1.393 . S
C901 C900 1.391 . S
C902 H892 0.950 . S
C902 C903 1.386 . S
C902 C904 1.391 . S
C903 C902 1.386 . S
C903 C907 1.393 . S
C904 H893 0.950 . S
C904 C902 1.391 . S
C904 C905 1.400 . S
C905 C899 1.491 . S
C905 C904 1.400 . S
C905 C906 1.398 . S
C906 H894 0.950 . S
C906 C905 1.398 . S
C906 C907 1.391 . S
C907 H895 0.950 . S
C907 C903 1.393 . S
C907 C906 1.391 . S
H908 C916 0.950 . S
H909 C921 0.950 . S
H910 C918 0.950 . S
H911 C920 0.950 . S
H912 C922 0.950 . S
H913 C924 0.950 . S
H914 C926 0.950 . S
H915 C927 0.950 . S
C916 H908 0.950 . S
C916 C917 1.386 . S
C916 C918 1.391 . S
C917 C916 1.386 . S
C917 C921 1.393 . S
C918 H910 0.950 . S
C918 C916 1.391 . S
C918 C919 1.400 . S
C919 C918 1.400 . S
C919 C920 1.398 . S
C919 C925 1.491 . S
C920 H911 0.950 . S
C920 C919 1.398 . S
C920 C921 1.391 . S
C921 H909 0.950 . S
C921 C917 1.393 . S
C921 C920 1.391 . S
C922 H912 0.950 . S
C922 C923 1.386 . S
C922 C924 1.391 . S
C923 C922 1.386 . S
C923 C927 1.393 . S
C924 H913 0.950 . S
C924 C922 1.391 . S
C924 C925 1.400 . S
C925 C919 1.491 . S
C925 C924 1.400 . S
C925 C926 1.398 . S
C926 H914 0.950 . S
C926 C925 1.398 . S
C926 C927 1.391 . S
C927 H915 0.950 . S
C927 C923 1.393 . S
C927 C926 1.391 . S
C457 C241 2.101 . S
C463 C297 2.321 1_545 S
C483 C337 2.358 . S
C477 C277 2.192 . S
C503 C377 2.349 . S
C497 C169 2.117 . S
C523 C417 2.340 1_455 S
C517 C205 2.097 1_655 S
C543 C306 2.325 1_565 S
C537 C97 2.102 . S
C557 C133 2.186 . S
C563 C346 2.361 . S
C577 C25 2.128 . S
C583 C386 2.347 . S
C597 C61 2.108 1_655 S
C603 C426 2.336 1_655 S
C623 C303 0.376 . S
C617 C211 0.393 . S
C643 C343 0.374 . S
C637 C247 0.389 . S
C663 C383 0.426 . S
C657 C253 0.433 . S
C677 C175 0.413 . S
C683 C423 0.391 . S
C697 C67 0.471 1_655 S
C703 C294 0.442 . S
C723 C334 0.426 . S
C717 C103 0.485 1_565 S
C743 C374 0.430 . S
C737 C109 0.375 . S
C757 C31 0.456 . S
C763 C414 0.438 . S
C777 C181 2.842 . S
C783 C307 3.199 . S
C797 C217 2.808 . S
C803 C347 3.153 . S
C823 C387 3.148 . S
C817 C283 2.745 . S
C843 C427 3.177 . S
C837 C145 2.828 . S
C857 C37 2.847 1_655 S
C863 C298 3.210 . S
C883 C338 3.153 . S
C877 C73 2.808 1_565 S
C903 C378 3.149 . S
C897 C139 2.705 . S
C917 C1 2.832 . S
C923 C418 3.186 . S
