# Generated by pormake.
# Topology tbo, (3,4)-cn, num edge types: 1
# Building blocks:
#     Node 0, Type 0, BuildingBlock: OLANEW_clean_sbu_2, # of connection points: 3
#     Node 1, Type 0, BuildingBlock: OLANEW_clean_sbu_2, # of connection points: 3
#     Node 2, Type 0, BuildingBlock: OLANEW_clean_sbu_2, # of connection points: 3
#     Node 3, Type 0, BuildingBlock: OLANEW_clean_sbu_2, # of connection points: 3
#     Node 4, Type 0, BuildingBlock: OLANEW_clean_sbu_2, # of connection points: 3
#     Node 5, Type 0, BuildingBlock: OLANEW_clean_sbu_2, # of connection points: 3
#     Node 6, Type 0, BuildingBlock: OLANEW_clean_sbu_2, # of connection points: 3
#     Node 7, Type 0, BuildingBlock: OLANEW_clean_sbu_2, # of connection points: 3
#     Node 8, Type 0, BuildingBlock: OLANEW_clean_sbu_2, # of connection points: 3
#     Node 9, Type 0, BuildingBlock: OLANEW_clean_sbu_2, # of connection points: 3
#     Node 10, Type 0, BuildingBlock: OLANEW_clean_sbu_2, # of connection points: 3
#     Node 11, Type 0, BuildingBlock: OLANEW_clean_sbu_2, # of connection points: 3
#     Node 12, Type 0, BuildingBlock: OLANEW_clean_sbu_2, # of connection points: 3
#     Node 13, Type 0, BuildingBlock: OLANEW_clean_sbu_2, # of connection points: 3
#     Node 14, Type 0, BuildingBlock: OLANEW_clean_sbu_2, # of connection points: 3
#     Node 15, Type 0, BuildingBlock: OLANEW_clean_sbu_2, # of connection points: 3
#     Node 16, Type 0, BuildingBlock: OLANEW_clean_sbu_2, # of connection points: 3
#     Node 17, Type 0, BuildingBlock: OLANEW_clean_sbu_2, # of connection points: 3
#     Node 18, Type 0, BuildingBlock: OLANEW_clean_sbu_2, # of connection points: 3
#     Node 19, Type 0, BuildingBlock: OLANEW_clean_sbu_2, # of connection points: 3
#     Node 20, Type 0, BuildingBlock: OLANEW_clean_sbu_2, # of connection points: 3
#     Node 21, Type 0, BuildingBlock: OLANEW_clean_sbu_2, # of connection points: 3
#     Node 22, Type 0, BuildingBlock: OLANEW_clean_sbu_2, # of connection points: 3
#     Node 23, Type 0, BuildingBlock: OLANEW_clean_sbu_2, # of connection points: 3
#     Node 24, Type 0, BuildingBlock: OLANEW_clean_sbu_2, # of connection points: 3
#     Node 25, Type 0, BuildingBlock: OLANEW_clean_sbu_2, # of connection points: 3
#     Node 26, Type 0, BuildingBlock: OLANEW_clean_sbu_2, # of connection points: 3
#     Node 27, Type 0, BuildingBlock: OLANEW_clean_sbu_2, # of connection points: 3
#     Node 28, Type 0, BuildingBlock: OLANEW_clean_sbu_2, # of connection points: 3
#     Node 29, Type 0, BuildingBlock: OLANEW_clean_sbu_2, # of connection points: 3
#     Node 30, Type 0, BuildingBlock: OLANEW_clean_sbu_2, # of connection points: 3
#     Node 31, Type 0, BuildingBlock: OLANEW_clean_sbu_2, # of connection points: 3
#     Node 32, Type 1, BuildingBlock: NAWXER_clean_linker_0, # of connection points: 4
#     Node 33, Type 1, BuildingBlock: NAWXER_clean_linker_0, # of connection points: 4
#     Node 34, Type 1, BuildingBlock: NAWXER_clean_linker_0, # of connection points: 4
#     Node 35, Type 1, BuildingBlock: NAWXER_clean_linker_0, # of connection points: 4
#     Node 36, Type 1, BuildingBlock: NAWXER_clean_linker_0, # of connection points: 4
#     Node 37, Type 1, BuildingBlock: NAWXER_clean_linker_0, # of connection points: 4
#     Node 38, Type 1, BuildingBlock: NAWXER_clean_linker_0, # of connection points: 4
#     Node 39, Type 1, BuildingBlock: NAWXER_clean_linker_0, # of connection points: 4
#     Node 40, Type 1, BuildingBlock: NAWXER_clean_linker_0, # of connection points: 4
#     Node 41, Type 1, BuildingBlock: NAWXER_clean_linker_0, # of connection points: 4
#     Node 42, Type 1, BuildingBlock: NAWXER_clean_linker_0, # of connection points: 4
#     Node 43, Type 1, BuildingBlock: NAWXER_clean_linker_0, # of connection points: 4
#     Node 44, Type 1, BuildingBlock: NAWXER_clean_linker_0, # of connection points: 4
#     Node 45, Type 1, BuildingBlock: NAWXER_clean_linker_0, # of connection points: 4
#     Node 46, Type 1, BuildingBlock: NAWXER_clean_linker_0, # of connection points: 4
#     Node 47, Type 1, BuildingBlock: NAWXER_clean_linker_0, # of connection points: 4
#     Node 48, Type 1, BuildingBlock: NAWXER_clean_linker_0, # of connection points: 4
#     Node 49, Type 1, BuildingBlock: NAWXER_clean_linker_0, # of connection points: 4
#     Node 50, Type 1, BuildingBlock: NAWXER_clean_linker_0, # of connection points: 4
#     Node 51, Type 1, BuildingBlock: NAWXER_clean_linker_0, # of connection points: 4
#     Node 52, Type 1, BuildingBlock: NAWXER_clean_linker_0, # of connection points: 4
#     Node 53, Type 1, BuildingBlock: NAWXER_clean_linker_0, # of connection points: 4
#     Node 54, Type 1, BuildingBlock: NAWXER_clean_linker_0, # of connection points: 4
#     Node 55, Type 1, BuildingBlock: NAWXER_clean_linker_0, # of connection points: 4
#     Edge 56, Type (0, 1), BuildingBlock: KIFKEQ_clean_linker_1, # of connection points: 2
#     Edge 57, Type (0, 1), BuildingBlock: KIFKEQ_clean_linker_1, # of connection points: 2
#     Edge 58, Type (0, 1), BuildingBlock: KIFKEQ_clean_linker_1, # of connection points: 2
#     Edge 59, Type (0, 1), BuildingBlock: KIFKEQ_clean_linker_1, # of connection points: 2
#     Edge 60, Type (0, 1), BuildingBlock: KIFKEQ_clean_linker_1, # of connection points: 2
#     Edge 61, Type (0, 1), BuildingBlock: KIFKEQ_clean_linker_1, # of connection points: 2
#     Edge 62, Type (0, 1), BuildingBlock: KIFKEQ_clean_linker_1, # of connection points: 2
#     Edge 63, Type (0, 1), BuildingBlock: KIFKEQ_clean_linker_1, # of connection points: 2
#     Edge 64, Type (0, 1), BuildingBlock: KIFKEQ_clean_linker_1, # of connection points: 2
#     Edge 65, Type (0, 1), BuildingBlock: KIFKEQ_clean_linker_1, # of connection points: 2
#     Edge 66, Type (0, 1), BuildingBlock: KIFKEQ_clean_linker_1, # of connection points: 2
#     Edge 67, Type (0, 1), BuildingBlock: KIFKEQ_clean_linker_1, # of connection points: 2
#     Edge 68, Type (0, 1), BuildingBlock: KIFKEQ_clean_linker_1, # of connection points: 2
#     Edge 69, Type (0, 1), BuildingBlock: KIFKEQ_clean_linker_1, # of connection points: 2
#     Edge 70, Type (0, 1), BuildingBlock: KIFKEQ_clean_linker_1, # of connection points: 2
#     Edge 71, Type (0, 1), BuildingBlock: KIFKEQ_clean_linker_1, # of connection points: 2
#     Edge 72, Type (0, 1), BuildingBlock: KIFKEQ_clean_linker_1, # of connection points: 2
#     Edge 73, Type (0, 1), BuildingBlock: KIFKEQ_clean_linker_1, # of connection points: 2
#     Edge 74, Type (0, 1), BuildingBlock: KIFKEQ_clean_linker_1, # of connection points: 2
#     Edge 75, Type (0, 1), BuildingBlock: KIFKEQ_clean_linker_1, # of connection points: 2
#     Edge 76, Type (0, 1), BuildingBlock: KIFKEQ_clean_linker_1, # of connection points: 2
#     Edge 77, Type (0, 1), BuildingBlock: KIFKEQ_clean_linker_1, # of connection points: 2
#     Edge 78, Type (0, 1), BuildingBlock: KIFKEQ_clean_linker_1, # of connection points: 2
#     Edge 79, Type (0, 1), BuildingBlock: KIFKEQ_clean_linker_1, # of connection points: 2
#     Edge 80, Type (0, 1), BuildingBlock: KIFKEQ_clean_linker_1, # of connection points: 2
#     Edge 81, Type (0, 1), BuildingBlock: KIFKEQ_clean_linker_1, # of connection points: 2
#     Edge 82, Type (0, 1), BuildingBlock: KIFKEQ_clean_linker_1, # of connection points: 2
#     Edge 83, Type (0, 1), BuildingBlock: KIFKEQ_clean_linker_1, # of connection points: 2
#     Edge 84, Type (0, 1), BuildingBlock: KIFKEQ_clean_linker_1, # of connection points: 2
#     Edge 85, Type (0, 1), BuildingBlock: KIFKEQ_clean_linker_1, # of connection points: 2
#     Edge 86, Type (0, 1), BuildingBlock: KIFKEQ_clean_linker_1, # of connection points: 2
#     Edge 87, Type (0, 1), BuildingBlock: KIFKEQ_clean_linker_1, # of connection points: 2
#     Edge 88, Type (0, 1), BuildingBlock: KIFKEQ_clean_linker_1, # of connection points: 2
#     Edge 89, Type (0, 1), BuildingBlock: KIFKEQ_clean_linker_1, # of connection points: 2
#     Edge 90, Type (0, 1), BuildingBlock: KIFKEQ_clean_linker_1, # of connection points: 2
#     Edge 91, Type (0, 1), BuildingBlock: KIFKEQ_clean_linker_1, # of connection points: 2
#     Edge 92, Type (0, 1), BuildingBlock: KIFKEQ_clean_linker_1, # of connection points: 2
#     Edge 93, Type (0, 1), BuildingBlock: KIFKEQ_clean_linker_1, # of connection points: 2
#     Edge 94, Type (0, 1), BuildingBlock: KIFKEQ_clean_linker_1, # of connection points: 2
#     Edge 95, Type (0, 1), BuildingBlock: KIFKEQ_clean_linker_1, # of connection points: 2
#     Edge 96, Type (0, 1), BuildingBlock: KIFKEQ_clean_linker_1, # of connection points: 2
#     Edge 97, Type (0, 1), BuildingBlock: KIFKEQ_clean_linker_1, # of connection points: 2
#     Edge 98, Type (0, 1), BuildingBlock: KIFKEQ_clean_linker_1, # of connection points: 2
#     Edge 99, Type (0, 1), BuildingBlock: KIFKEQ_clean_linker_1, # of connection points: 2
#     Edge 100, Type (0, 1), BuildingBlock: KIFKEQ_clean_linker_1, # of connection points: 2
#     Edge 101, Type (0, 1), BuildingBlock: KIFKEQ_clean_linker_1, # of connection points: 2
#     Edge 102, Type (0, 1), BuildingBlock: KIFKEQ_clean_linker_1, # of connection points: 2
#     Edge 103, Type (0, 1), BuildingBlock: KIFKEQ_clean_linker_1, # of connection points: 2
#     Edge 104, Type (0, 1), BuildingBlock: KIFKEQ_clean_linker_1, # of connection points: 2
#     Edge 105, Type (0, 1), BuildingBlock: KIFKEQ_clean_linker_1, # of connection points: 2
#     Edge 106, Type (0, 1), BuildingBlock: KIFKEQ_clean_linker_1, # of connection points: 2
#     Edge 107, Type (0, 1), BuildingBlock: KIFKEQ_clean_linker_1, # of connection points: 2
#     Edge 108, Type (0, 1), BuildingBlock: KIFKEQ_clean_linker_1, # of connection points: 2
#     Edge 109, Type (0, 1), BuildingBlock: KIFKEQ_clean_linker_1, # of connection points: 2
#     Edge 110, Type (0, 1), BuildingBlock: KIFKEQ_clean_linker_1, # of connection points: 2
#     Edge 111, Type (0, 1), BuildingBlock: KIFKEQ_clean_linker_1, # of connection points: 2
#     Edge 112, Type (0, 1), BuildingBlock: KIFKEQ_clean_linker_1, # of connection points: 2
#     Edge 113, Type (0, 1), BuildingBlock: KIFKEQ_clean_linker_1, # of connection points: 2
#     Edge 114, Type (0, 1), BuildingBlock: KIFKEQ_clean_linker_1, # of connection points: 2
#     Edge 115, Type (0, 1), BuildingBlock: KIFKEQ_clean_linker_1, # of connection points: 2
#     Edge 116, Type (0, 1), BuildingBlock: KIFKEQ_clean_linker_1, # of connection points: 2
#     Edge 117, Type (0, 1), BuildingBlock: KIFKEQ_clean_linker_1, # of connection points: 2
#     Edge 118, Type (0, 1), BuildingBlock: KIFKEQ_clean_linker_1, # of connection points: 2
#     Edge 119, Type (0, 1), BuildingBlock: KIFKEQ_clean_linker_1, # of connection points: 2
#     Edge 120, Type (0, 1), BuildingBlock: KIFKEQ_clean_linker_1, # of connection points: 2
#     Edge 121, Type (0, 1), BuildingBlock: KIFKEQ_clean_linker_1, # of connection points: 2
#     Edge 122, Type (0, 1), BuildingBlock: KIFKEQ_clean_linker_1, # of connection points: 2
#     Edge 123, Type (0, 1), BuildingBlock: KIFKEQ_clean_linker_1, # of connection points: 2
#     Edge 124, Type (0, 1), BuildingBlock: KIFKEQ_clean_linker_1, # of connection points: 2
#     Edge 125, Type (0, 1), BuildingBlock: KIFKEQ_clean_linker_1, # of connection points: 2
#     Edge 126, Type (0, 1), BuildingBlock: KIFKEQ_clean_linker_1, # of connection points: 2
#     Edge 127, Type (0, 1), BuildingBlock: KIFKEQ_clean_linker_1, # of connection points: 2
#     Edge 128, Type (0, 1), BuildingBlock: KIFKEQ_clean_linker_1, # of connection points: 2
#     Edge 129, Type (0, 1), BuildingBlock: KIFKEQ_clean_linker_1, # of connection points: 2
#     Edge 130, Type (0, 1), BuildingBlock: KIFKEQ_clean_linker_1, # of connection points: 2
#     Edge 131, Type (0, 1), BuildingBlock: KIFKEQ_clean_linker_1, # of connection points: 2
#     Edge 132, Type (0, 1), BuildingBlock: KIFKEQ_clean_linker_1, # of connection points: 2
#     Edge 133, Type (0, 1), BuildingBlock: KIFKEQ_clean_linker_1, # of connection points: 2
#     Edge 134, Type (0, 1), BuildingBlock: KIFKEQ_clean_linker_1, # of connection points: 2
#     Edge 135, Type (0, 1), BuildingBlock: KIFKEQ_clean_linker_1, # of connection points: 2
#     Edge 136, Type (0, 1), BuildingBlock: KIFKEQ_clean_linker_1, # of connection points: 2
#     Edge 137, Type (0, 1), BuildingBlock: KIFKEQ_clean_linker_1, # of connection points: 2
#     Edge 138, Type (0, 1), BuildingBlock: KIFKEQ_clean_linker_1, # of connection points: 2
#     Edge 139, Type (0, 1), BuildingBlock: KIFKEQ_clean_linker_1, # of connection points: 2
#     Edge 140, Type (0, 1), BuildingBlock: KIFKEQ_clean_linker_1, # of connection points: 2
#     Edge 141, Type (0, 1), BuildingBlock: KIFKEQ_clean_linker_1, # of connection points: 2
#     Edge 142, Type (0, 1), BuildingBlock: KIFKEQ_clean_linker_1, # of connection points: 2
#     Edge 143, Type (0, 1), BuildingBlock: KIFKEQ_clean_linker_1, # of connection points: 2
#     Edge 144, Type (0, 1), BuildingBlock: KIFKEQ_clean_linker_1, # of connection points: 2
#     Edge 145, Type (0, 1), BuildingBlock: KIFKEQ_clean_linker_1, # of connection points: 2
#     Edge 146, Type (0, 1), BuildingBlock: KIFKEQ_clean_linker_1, # of connection points: 2
#     Edge 147, Type (0, 1), BuildingBlock: KIFKEQ_clean_linker_1, # of connection points: 2
#     Edge 148, Type (0, 1), BuildingBlock: KIFKEQ_clean_linker_1, # of connection points: 2
#     Edge 149, Type (0, 1), BuildingBlock: KIFKEQ_clean_linker_1, # of connection points: 2
#     Edge 150, Type (0, 1), BuildingBlock: KIFKEQ_clean_linker_1, # of connection points: 2
#     Edge 151, Type (0, 1), BuildingBlock: KIFKEQ_clean_linker_1, # of connection points: 2
# Relax obj value: 0.024
# Max RMSD: 0.135
# Mean RMSD: 0.094
data_MOF--net-tbo--node1-OLANEW_clean_sbu_2--node2-NAWXER_clean_linker_0--edge1-KIFKEQ_clean_linker_1
_symmetry_space_group_name_H-M    P1
_symmetry_Int_Tables_number       1
_symmetry_cell_setting            triclinic
loop_
_symmetry_equiv_pos_as_xyz
'x, y, z'
_cell_length_a     91.108445
_cell_length_b     94.665919
_cell_length_c     91.353594
_cell_angle_alpha  95.335945
_cell_angle_beta   88.452013
_cell_angle_gamma 96.680138
loop_
_atom_site_label
_atom_site_type_symbol
_atom_site_fract_x
_atom_site_fract_y
_atom_site_fract_z
_atom_type_partial_charge
O0 O 0.21919 0.17058 0.17217 0.0
Cd1 Cd 0.20628 0.1593 0.19282 0.0
O2 O 0.20064 0.1824 0.16729 0.0
Cd3 Cd 0.18509 0.17796 0.18546 0.0
O4 O 0.16479 0.18385 0.19682 0.0
C5 C 0.15555 0.18848 0.18878 0.0
O6 O 0.15857 0.18882 0.17466 0.0
C7 C 0.2135 0.17882 0.16423 0.0
C8 C 0.22128 0.13853 0.2042 0.0
O9 O 0.21321 0.13549 0.19281 0.0
O10 O 0.22243 0.15142 0.21014 0.0
O11 O 0.85856 0.19418 0.17546 0.0
Cd12 Cd 0.83569 0.18 0.1669 0.0
O13 O 0.86958 0.17475 0.17602 0.0
Cd14 Cd 0.84958 0.15984 0.17277 0.0
O15 O 0.834 0.14227 0.17953 0.0
C16 C 0.83941 0.13086 0.18162 0.0
O17 O 0.85354 0.13015 0.17881 0.0
C18 C 0.87013 0.18829 0.17744 0.0
C19 C 0.82541 0.18897 0.14119 0.0
O20 O 0.82026 0.19324 0.15383 0.0
O21 O 0.83545 0.18051 0.14071 0.0
O22 O 0.85504 0.81929 0.17864 0.0
Cd23 Cd 0.86316 0.83413 0.20094 0.0
O24 O 0.85775 0.83784 0.16559 0.0
Cd25 Cd 0.86054 0.85357 0.18461 0.0
O26 O 0.85315 0.87134 0.19873 0.0
C27 C 0.84504 0.87889 0.19239 0.0
O28 O 0.84229 0.87564 0.17836 0.0
C29 C 0.85485 0.82444 0.16628 0.0
C30 C 0.88861 0.8253 0.21171 0.0
O31 O 0.87581 0.82109 0.21692 0.0
O32 O 0.88939 0.83377 0.20149 0.0
O33 O 0.22665 0.86046 0.20365 0.0
Cd34 Cd 0.20831 0.84017 0.19668 0.0
O35 O 0.23713 0.85038 0.22078 0.0
Cd36 Cd 0.22081 0.83166 0.21815 0.0
O37 O 0.19879 0.82038 0.22064 0.0
C38 C 0.18865 0.82834 0.22389 0.0
O39 O 0.19214 0.84226 0.22519 0.0
C40 C 0.23647 0.86102 0.21339 0.0
C41 C 0.21531 0.82699 0.16931 0.0
O42 O 0.208 0.83783 0.17044 0.0
O43 O 0.2192 0.82228 0.18116 0.0
O44 O 0.21733 0.85928 0.84446 0.0
Cd45 Cd 0.20767 0.83472 0.8485 0.0
O46 O 0.19599 0.86768 0.84899 0.0
Cd47 Cd 0.18363 0.84679 0.85103 0.0
O48 O 0.16597 0.83028 0.84369 0.0
C49 C 0.16591 0.82616 0.83005 0.0
O50 O 0.17679 0.83132 0.82164 0.0
C51 C 0.20968 0.86975 0.84573 0.0
C52 C 0.21785 0.82624 0.87446 0.0
O53 O 0.22551 0.82533 0.8625 0.0
O54 O 0.20537 0.83119 0.87417 0.0
O55 O 0.19874 0.18177 0.87293 0.0
Cd56 Cd 0.18383 0.17154 0.85184 0.0
O57 O 0.17922 0.18252 0.88757 0.0
Cd58 Cd 0.16354 0.17705 0.86977 0.0
O59 O 0.14743 0.18008 0.85345 0.0
C60 C 0.15034 0.19081 0.84604 0.0
O61 O 0.16295 0.19892 0.84816 0.0
C62 C 0.19317 0.18433 0.88568 0.0
C63 C 0.19466 0.14678 0.83929 0.0
O64 O 0.19816 0.15876 0.83387 0.0
O65 O 0.18591 0.1465 0.8505 0.0
O66 O 0.82203 0.24857 0.83107 0.0
Cd67 Cd 0.83041 0.25096 0.80577 0.0
O68 O 0.82369 0.22571 0.82699 0.0
Cd69 Cd 0.82127 0.20294 0.8303 0.0
O70 O 0.81957 0.17966 0.8283 0.0
C71 C 0.80698 0.17239 0.82894 0.0
O72 O 0.79519 0.17912 0.83133 0.0
C73 C 0.82063 0.23626 0.83575 0.0
C74 C 0.86082 0.25021 0.80294 0.0
O75 O 0.85535 0.26209 0.80556 0.0
O76 O 0.85187 0.23869 0.80162 0.0
O77 O 0.87819 0.84466 0.8254 0.0
Cd78 Cd 0.85783 0.85568 0.83851 0.0
O79 O 0.88128 0.83092 0.84307 0.0
Cd80 Cd 0.86287 0.83495 0.85824 0.0
O81 O 0.85035 0.82767 0.8776 0.0
C82 C 0.85777 0.82219 0.88675 0.0
O83 O 0.872 0.82186 0.88424 0.0
C84 C 0.88519 0.83547 0.83071 0.0
C85 C 0.84885 0.87929 0.82605 0.0
O86 O 0.85976 0.88075 0.83484 0.0
O87 O 0.84233 0.86666 0.82292 0.0
O88 O 0.21309 0.66382 0.66624 0.0
Cd89 Cd 0.20171 0.65332 0.688 0.0
O90 O 0.20251 0.6838 0.66904 0.0
Cd91 Cd 0.18627 0.67922 0.68667 0.0
O92 O 0.16564 0.68392 0.69826 0.0
C93 C 0.15603 0.68851 0.69062 0.0
O94 O 0.15886 0.68964 0.67657 0.0
C95 C 0.21156 0.6761 0.66226 0.0
C96 C 0.21602 0.6305 0.69603 0.0
O97 O 0.20445 0.62826 0.68809 0.0
O98 O 0.22088 0.64348 0.70012 0.0
O99 O 0.85097 0.70127 0.69453 0.0
Cd100 Cd 0.82631 0.69062 0.68675 0.0
O101 O 0.86261 0.68811 0.67797 0.0
Cd102 Cd 0.84281 0.67293 0.67453 0.0
O103 O 0.82928 0.65401 0.6814 0.0
C104 C 0.83632 0.64364 0.68378 0.0
O105 O 0.85066 0.6448 0.68124 0.0
C106 C 0.86292 0.69834 0.68805 0.0
C107 C 0.81839 0.70184 0.66122 0.0
O108 O 0.81612 0.70815 0.67397 0.0
O109 O 0.8243 0.69015 0.66053 0.0
O110 O 0.86544 0.32601 0.67351 0.0
Cd111 Cd 0.87284 0.3399 0.69656 0.0
O112 O 0.86191 0.34498 0.66245 0.0
Cd113 Cd 0.86553 0.36009 0.68188 0.0
O114 O 0.86052 0.37811 0.69713 0.0
C115 C 0.84814 0.37701 0.70393 0.0
O116 O 0.83946 0.3649 0.70213 0.0
C117 C 0.86208 0.33154 0.66207 0.0
C118 C 0.89788 0.33037 0.70744 0.0
O119 O 0.88487 0.32472 0.71068 0.0
O120 O 0.89906 0.34066 0.69915 0.0
O121 O 0.21984 0.34561 0.67963 0.0
Cd122 Cd 0.20367 0.32385 0.67212 0.0
O123 O 0.23176 0.33616 0.6962 0.0
Cd124 Cd 0.21722 0.31619 0.69336 0.0
O125 O 0.19681 0.30303 0.69834 0.0
C126 C 0.19403 0.30158 0.71186 0.0
O127 O 0.20388 0.30724 0.7216 0.0
C128 C 0.22984 0.34681 0.68926 0.0
C129 C 0.21401 0.3104 0.64611 0.0
O130 O 0.20584 0.32053 0.64595 0.0
O131 O 0.21722 0.30653 0.65861 0.0
O132 O 0.2169 0.36048 0.33699 0.0
Cd133 Cd 0.20404 0.33666 0.33971 0.0
O134 O 0.19807 0.37182 0.34492 0.0
Cd135 Cd 0.1833 0.35218 0.34669 0.0
O136 O 0.16487 0.33649 0.33951 0.0
C137 C 0.1645 0.33251 0.32583 0.0
O138 O 0.17542 0.3374 0.31733 0.0
C139 C 0.21133 0.37212 0.34014 0.0
C140 C 0.21367 0.32435 0.36378 0.0
O141 O 0.22054 0.32345 0.35136 0.0
O142 O 0.20225 0.33114 0.36486 0.0
O143 O 0.19738 0.67338 0.37367 0.0
Cd144 Cd 0.18153 0.66386 0.35307 0.0
O145 O 0.2017 0.69519 0.36688 0.0
Cd146 Cd 0.18615 0.69121 0.34881 0.0
O147 O 0.16799 0.69526 0.33524 0.0
C148 C 0.16709 0.70827 0.33338 0.0
O149 O 0.17721 0.71807 0.33915 0.0
C150 C 0.20383 0.68604 0.37571 0.0
C151 C 0.19348 0.64067 0.33821 0.0
O152 O 0.19585 0.65311 0.33355 0.0
O153 O 0.18524 0.63917 0.34967 0.0
O154 O 0.83492 0.71197 0.3544 0.0
Cd155 Cd 0.83803 0.70127 0.32925 0.0
O156 O 0.84303 0.69426 0.36461 0.0
Cd157 Cd 0.84556 0.68134 0.34392 0.0
O158 O 0.84206 0.66308 0.32757 0.0
C159 C 0.82881 0.65908 0.32378 0.0
O160 O 0.81831 0.66653 0.32924 0.0
C161 C 0.8381 0.70635 0.36585 0.0
C162 C 0.86645 0.70863 0.3183 0.0
O163 O 0.85622 0.71667 0.31717 0.0
O164 O 0.86321 0.69708 0.32455 0.0
O165 O 0.87842 0.34542 0.32435 0.0
Cd166 Cd 0.86022 0.35824 0.33888 0.0
O167 O 0.87266 0.32475 0.33371 0.0
Cd168 Cd 0.85622 0.33025 0.35059 0.0
O169 O 0.84487 0.32418 0.371 0.0
C170 C 0.8529 0.32004 0.38058 0.0
O171 O 0.86718 0.32037 0.37793 0.0
C172 C 0.8803 0.33235 0.32484 0.0
C173 C 0.84991 0.3801 0.32458 0.0
O174 O 0.86195 0.3823 0.33181 0.0
O175 O 0.84282 0.36755 0.32396 0.0
O176 O 0.7206 0.17229 0.66903 0.0
Cd177 Cd 0.70717 0.1612 0.6895 0.0
O178 O 0.70146 0.18222 0.6621 0.0
Cd179 Cd 0.68605 0.17829 0.68052 0.0
O180 O 0.66657 0.18398 0.69349 0.0
C181 C 0.65513 0.18547 0.68635 0.0
O182 O 0.65543 0.18286 0.67197 0.0
C183 C 0.71473 0.17941 0.66006 0.0
C184 C 0.72113 0.13933 0.7001 0.0
O185 O 0.71302 0.13695 0.6887 0.0
O186 O 0.72279 0.15206 0.70645 0.0
O187 O 0.36143 0.19276 0.66914 0.0
Cd188 Cd 0.33667 0.18214 0.66172 0.0
O189 O 0.36875 0.17198 0.6725 0.0
Cd190 Cd 0.3473 0.15942 0.66912 0.0
O191 O 0.33167 0.14306 0.67812 0.0
C192 C 0.3297 0.14459 0.69197 0.0
O193 O 0.33627 0.15604 0.6994 0.0
C194 C 0.37151 0.18545 0.67249 0.0
C195 C 0.32862 0.19046 0.63479 0.0
O196 O 0.3266 0.1981 0.64686 0.0
O197 O 0.33452 0.17889 0.63544 0.0
O198 O 0.3583 0.82799 0.67452 0.0
Cd199 Cd 0.36872 0.84283 0.69594 0.0
O200 O 0.35445 0.84671 0.6632 0.0
Cd201 Cd 0.35987 0.86227 0.68196 0.0
O202 O 0.35558 0.87993 0.69799 0.0
C203 C 0.34357 0.8785 0.70539 0.0
O204 O 0.33498 0.86634 0.70361 0.0
C205 C 0.35411 0.83325 0.66323 0.0
C206 C 0.39291 0.83163 0.70658 0.0
O207 O 0.37991 0.82873 0.71203 0.0
O208 O 0.39447 0.83987 0.69615 0.0
O209 O 0.71555 0.85977 0.69769 0.0
Cd210 Cd 0.69747 0.83876 0.69308 0.0
O211 O 0.73325 0.84921 0.70651 0.0
Cd212 Cd 0.71805 0.82975 0.70749 0.0
O213 O 0.69723 0.81775 0.71355 0.0
C214 C 0.68851 0.825 0.72136 0.0
O215 O 0.69281 0.83854 0.72525 0.0
C216 C 0.72862 0.86038 0.70248 0.0
C217 C 0.70362 0.82385 0.66633 0.0
O218 O 0.69619 0.83458 0.66693 0.0
O219 O 0.70799 0.82002 0.67843 0.0
O220 O 0.71085 0.85908 0.34802 0.0
Cd221 Cd 0.69843 0.83616 0.35481 0.0
O222 O 0.69038 0.86922 0.35187 0.0
Cd223 Cd 0.67633 0.84949 0.35526 0.0
O224 O 0.65871 0.83285 0.34814 0.0
C225 C 0.65845 0.82901 0.33443 0.0
O226 O 0.66897 0.83467 0.32593 0.0
C227 C 0.70406 0.87012 0.34843 0.0
C228 C 0.71115 0.82569 0.37845 0.0
O229 O 0.71447 0.82144 0.36516 0.0
O230 O 0.70196 0.83498 0.38054 0.0
O231 O 0.70186 0.17846 0.37106 0.0
Cd232 Cd 0.68658 0.16858 0.35012 0.0
O233 O 0.68283 0.1773 0.38642 0.0
Cd234 Cd 0.66664 0.17343 0.36891 0.0
O235 O 0.65025 0.1791 0.35415 0.0
C236 C 0.65192 0.19192 0.35077 0.0
O237 O 0.66339 0.2005 0.35587 0.0
C238 C 0.69669 0.1798 0.38413 0.0
C239 C 0.69715 0.14386 0.337 0.0
O240 O 0.70054 0.15589 0.33167 0.0
O241 O 0.68865 0.14349 0.3484 0.0
O242 O 0.31857 0.2467 0.32376 0.0
Cd243 Cd 0.32923 0.25168 0.29977 0.0
O244 O 0.33131 0.22838 0.32292 0.0
Cd245 Cd 0.33655 0.20829 0.33032 0.0
O246 O 0.33588 0.18517 0.33015 0.0
C247 C 0.32343 0.17813 0.33248 0.0
O248 O 0.31195 0.18513 0.33568 0.0
C249 C 0.32227 0.23605 0.32969 0.0
C250 C 0.35958 0.25006 0.29934 0.0
O251 O 0.35433 0.2619 0.30301 0.0
O252 O 0.35046 0.239 0.29575 0.0
O253 O 0.38236 0.84811 0.33196 0.0
Cd254 Cd 0.36554 0.86173 0.34759 0.0
O255 O 0.37556 0.82744 0.341 0.0
Cd256 Cd 0.36004 0.83356 0.35858 0.0
O257 O 0.34829 0.82772 0.37888 0.0
C258 C 0.34356 0.81457 0.3793 0.0
O259 O 0.34544 0.80575 0.3676 0.0
C260 C 0.38337 0.83481 0.33205 0.0
C261 C 0.35638 0.88513 0.33493 0.0
O262 O 0.36858 0.88628 0.34184 0.0
O263 O 0.34861 0.8729 0.33381 0.0
O264 O 0.70838 0.6624 0.16113 0.0
Cd265 Cd 0.69416 0.65037 0.18052 0.0
O266 O 0.70006 0.68344 0.16545 0.0
Cd267 Cd 0.683 0.67864 0.18227 0.0
O268 O 0.66262 0.68382 0.19399 0.0
C269 C 0.65339 0.68916 0.18654 0.0
O270 O 0.65641 0.69067 0.17259 0.0
C271 C 0.70847 0.67533 0.15829 0.0
C272 C 0.70825 0.62806 0.19002 0.0
O273 O 0.69967 0.62598 0.17895 0.0
O274 O 0.7102 0.64068 0.19661 0.0
O275 O 0.35318 0.69233 0.1865 0.0
Cd276 Cd 0.32933 0.68024 0.1779 0.0
O277 O 0.36629 0.68088 0.16975 0.0
Cd278 Cd 0.34747 0.66472 0.16534 0.0
O279 O 0.33363 0.64658 0.17347 0.0
C280 C 0.33257 0.64681 0.18739 0.0
O281 O 0.33917 0.65786 0.19541 0.0
C282 C 0.36557 0.6906 0.18024 0.0
C283 C 0.32027 0.69216 0.15326 0.0
O284 O 0.31727 0.69736 0.16631 0.0
O285 O 0.32747 0.68125 0.15184 0.0
O286 O 0.36477 0.326 0.17501 0.0
Cd287 Cd 0.37258 0.33917 0.19831 0.0
O288 O 0.36379 0.34522 0.16343 0.0
Cd289 Cd 0.36795 0.36019 0.1829 0.0
O290 O 0.36304 0.37827 0.19812 0.0
C291 C 0.35071 0.37718 0.20502 0.0
O292 O 0.34206 0.36504 0.20335 0.0
C293 C 0.36254 0.3317 0.16332 0.0
C294 C 0.39663 0.32786 0.2091 0.0
O295 O 0.38334 0.32254 0.21172 0.0
O296 O 0.39858 0.33867 0.20152 0.0
O297 O 0.72707 0.33661 0.19643 0.0
Cd298 Cd 0.71554 0.31224 0.19034 0.0
O299 O 0.73558 0.3321 0.21761 0.0
Cd300 Cd 0.72293 0.31104 0.21627 0.0
O301 O 0.70151 0.29833 0.2178 0.0
C302 C 0.69062 0.30553 0.21739 0.0
O303 O 0.69327 0.31924 0.21574 0.0
C304 C 0.73453 0.34074 0.20792 0.0
C305 C 0.72341 0.30262 0.16181 0.0
O306 O 0.71144 0.30836 0.16443 0.0
O307 O 0.73156 0.30129 0.17271 0.0
O308 O 0.72327 0.35882 0.83582 0.0
Cd309 Cd 0.71326 0.33403 0.83843 0.0
O310 O 0.7016 0.36676 0.8395 0.0
Cd311 Cd 0.68903 0.34583 0.84078 0.0
O312 O 0.66968 0.33097 0.83425 0.0
C313 C 0.65947 0.33685 0.82885 0.0
O314 O 0.66139 0.35074 0.82807 0.0
C315 C 0.71541 0.36915 0.83698 0.0
C316 C 0.72199 0.32373 0.86409 0.0
O317 O 0.73009 0.32326 0.8524 0.0
O318 O 0.70979 0.3292 0.86369 0.0
O319 O 0.6963 0.67338 0.87414 0.0
Cd320 Cd 0.68012 0.66351 0.8539 0.0
O321 O 0.69894 0.69541 0.86783 0.0
Cd322 Cd 0.68292 0.69095 0.85017 0.0
O323 O 0.66465 0.69461 0.83652 0.0
C324 C 0.66243 0.70759 0.83624 0.0
O325 O 0.67125 0.7175 0.84371 0.0
C326 C 0.70203 0.68629 0.8763 0.0
C327 C 0.692 0.64044 0.83869 0.0
O328 O 0.69415 0.65289 0.83404 0.0
O329 O 0.68406 0.63888 0.85035 0.0
O330 O 0.33419 0.70241 0.85379 0.0
Cd331 Cd 0.34189 0.68849 0.83148 0.0
O332 O 0.34916 0.69375 0.86829 0.0
Cd333 Cd 0.3543 0.67734 0.85132 0.0
O334 O 0.35125 0.65803 0.83631 0.0
C335 C 0.34742 0.64639 0.84199 0.0
O336 O 0.34617 0.64661 0.85638 0.0
C337 C 0.33971 0.70226 0.86642 0.0
C338 C 0.36917 0.69981 0.82031 0.0
O339 O 0.35708 0.70341 0.81573 0.0
O340 O 0.36833 0.69091 0.83011 0.0
O341 O 0.37585 0.33754 0.82287 0.0
Cd342 Cd 0.35506 0.34883 0.83464 0.0
O343 O 0.37192 0.31799 0.83455 0.0
Cd344 Cd 0.35463 0.32345 0.85054 0.0
O345 O 0.34336 0.31852 0.87136 0.0
C346 C 0.35116 0.31351 0.88055 0.0
O347 O 0.36508 0.31219 0.87715 0.0
C348 C 0.37907 0.32516 0.825 0.0
C349 C 0.34762 0.37196 0.82031 0.0
O350 O 0.35635 0.37394 0.83127 0.0
O351 O 0.34251 0.35909 0.81604 0.0
C352 C 0.27989 0.22106 0.07246 0.0
C353 C 0.26456 0.21998 0.07535 0.0
C354 C 0.28596 0.22755 0.06015 0.0
C355 C 0.27684 0.23318 0.05054 0.0
C356 C 0.25551 0.22566 0.06568 0.0
C357 C 0.26156 0.23207 0.05338 0.0
C358 C 0.2829 0.23967 0.03715 0.0
C359 C 0.30139 0.26984 0.07484 0.0
C360 C 0.31689 0.2716 0.07562 0.0
C361 C 0.29435 0.26254 0.0625 0.0
C362 C 0.30267 0.25672 0.05076 0.0
C363 C 0.3252 0.26565 0.06392 0.0
C364 C 0.31815 0.25837 0.05155 0.0
C365 C 0.29537 0.25006 0.03716 0.0
C366 C 0.2942 0.27076 0.97691 0.0
C367 C 0.30931 0.27185 0.97305 0.0
C368 C 0.28895 0.26398 0.98931 0.0
C369 C 0.29866 0.25795 -0.00201 0.0
C370 C 0.31904 0.26605 0.98194 0.0
C371 C 0.31377 0.25925 -0.00569 0.0
C372 C 0.29326 0.25082 0.01123 0.0
C373 C 0.27184 0.22455 0.97234 0.0
C374 C 0.25631 0.2237 0.97257 0.0
C375 C 0.27988 0.2299 0.98488 0.0
C376 C 0.27255 0.23468 -0.00219 0.0
C377 C 0.24903 0.22818 0.98566 0.0
C378 C 0.25707 0.23357 -0.00185 0.0
C379 C 0.2808 0.24041 0.01123 0.0
H380 H 0.28718 0.21662 0.07952 0.0
H381 H 0.29775 0.22794 0.05801 0.0
H382 H 0.2437 0.22527 0.06766 0.0
H383 H 0.25428 0.23631 0.04612 0.0
H384 H 0.29468 0.27423 0.08371 0.0
H385 H 0.28242 0.26178 0.062 0.0
H386 H 0.33716 0.26699 0.06412 0.0
H387 H 0.32478 0.25414 0.04252 0.0
H388 H 0.28645 0.27534 0.97049 0.0
H389 H 0.2773 0.26357 -0.00782 0.0
H390 H 0.33073 0.26658 0.97922 0.0
H391 H 0.3215 0.25481 0.00092 0.0
H392 H 0.27779 0.22122 0.96244 0.0
H393 H 0.2918 0.23026 0.98446 0.0
H394 H 0.23708 0.22739 0.98633 0.0
H395 H 0.25117 0.237 0.00806 0.0
N396 N 0.27608 0.23533 0.02419 0.0
N397 N 0.30011 0.25515 0.02419 0.0
C398 C 0.77182 0.23103 0.94622 0.0
C399 C 0.78675 0.23277 0.94165 0.0
C400 C 0.76782 0.23439 0.96088 0.0
C401 C 0.77869 0.2394 0.97129 0.0
C402 C 0.79764 0.23701 0.95234 0.0
C403 C 0.79363 0.24016 0.96706 0.0
C404 C 0.77445 0.24509 0.98618 0.0
C405 C 0.76741 0.27671 0.95431 0.0
C406 C 0.75257 0.27918 0.95315 0.0
C407 C 0.77185 0.26969 0.96594 0.0
C408 C 0.76151 0.26464 0.97646 0.0
C409 C 0.74234 0.27456 0.96402 0.0
C410 C 0.74678 0.2674 0.97557 0.0
C411 C 0.76602 0.25675 0.98856 0.0
C412 C 0.76909 0.26959 0.05441 0.0
C413 C 0.75433 0.27166 0.05783 0.0
C414 C 0.77317 0.26461 0.04018 0.0
C415 C 0.76247 0.26123 0.02923 0.0
C416 C 0.74378 0.26896 0.04667 0.0
C417 C 0.74783 0.2638 0.03249 0.0
C418 C 0.76643 0.255 0.01439 0.0
C419 C 0.77367 0.22498 0.04732 0.0
C420 C 0.78852 0.22268 0.04849 0.0
C421 C 0.76899 0.231 0.03511 0.0
C422 C 0.77919 0.2353 0.02411 0.0
C423 C 0.79851 0.22606 0.03702 0.0
C424 C 0.79388 0.23235 0.02493 0.0
C425 C 0.77472 0.2432 0.01199 0.0
H426 H 0.76315 0.22742 0.9384 0.0
H427 H 0.75622 0.23355 0.96402 0.0
H428 H 0.80923 0.23861 0.94927 0.0
H429 H 0.80216 0.24402 0.97497 0.0
H430 H 0.7756 0.28 0.94613 0.0
H431 H 0.7834 0.26818 0.96665 0.0
H432 H 0.73089 0.27654 0.96367 0.0
H433 H 0.73865 0.26382 0.9837 0.0
H434 H 0.7775 0.27185 0.06273 0.0
H435 H 0.78464 0.26318 0.0378 0.0
H436 H 0.73231 0.27045 0.04902 0.0
H437 H 0.73943 0.26144 0.02415 0.0
H438 H 0.7657 0.22221 0.0559 0.0
H439 H 0.75746 0.23264 0.03447 0.0
H440 H 0.81002 0.22435 0.03767 0.0
H441 H 0.8019 0.23538 0.01648 0.0
N442 N 0.77857 0.2388 -0.00204 0.0
N443 N 0.76226 0.2612 0.00258 0.0
C444 C 0.79948 0.76523 0.07347 0.0
C445 C 0.81493 0.76648 0.07487 0.0
C446 C 0.7928 0.75891 0.06052 0.0
C447 C 0.80142 0.75357 0.04877 0.0
C448 C 0.82352 0.76116 0.06304 0.0
C449 C 0.81682 0.75485 0.05009 0.0
C450 C 0.79455 0.74733 0.0348 0.0
C451 C 0.77851 0.71846 0.06971 0.0
C452 C 0.76307 0.71603 0.07137 0.0
C453 C 0.78487 0.7249 0.05751 0.0
C454 C 0.77591 0.72946 0.04697 0.0
C455 C 0.75413 0.72012 0.06058 0.0
C456 C 0.76048 0.72678 0.04852 0.0
C457 C 0.78238 0.73655 0.03402 0.0
C458 C 0.77549 0.72229 0.96859 0.0
C459 C 0.75999 0.72077 0.96782 0.0
C460 C 0.78254 0.72779 0.98165 0.0
C461 C 0.77422 0.7321 -0.00589 0.0
C462 C 0.7517 0.72483 0.9804 0.0
C463 C 0.75875 0.73039 -0.00658 0.0
C464 C 0.78146 0.73791 0.00806 0.0
C465 C 0.79597 0.76936 0.97497 0.0
C466 C 0.81128 0.771 0.97204 0.0
C467 C 0.79016 0.76213 0.98689 0.0
C468 C 0.79953 0.75624 -0.00394 0.0
C469 C 0.82064 0.76532 0.98142 0.0
C470 C 0.81483 0.7581 -0.00666 0.0
C471 C 0.79359 0.74871 0.00887 0.0
H472 H 0.79256 0.76949 0.08225 0.0
H473 H 0.78092 0.75841 0.0596 0.0
H474 H 0.83543 0.76184 0.0638 0.0
H475 H 0.82368 0.75089 0.0411 0.0
H476 H 0.78565 0.71518 0.07774 0.0
H477 H 0.79679 0.72623 0.05631 0.0
H478 H 0.74219 0.71841 0.0616 0.0
H479 H 0.7533 0.73001 0.0405 0.0
H480 H 0.78216 0.71901 0.95917 0.0
H481 H 0.79448 0.72856 0.98203 0.0
H482 H 0.73975 0.72392 0.98013 0.0
H483 H 0.7521 0.73353 0.00292 0.0
H484 H 0.78844 0.77356 0.96795 0.0
H485 H 0.77835 0.7612 0.98898 0.0
H486 H 0.83251 0.76662 0.97967 0.0
H487 H 0.8223 0.75386 0.00038 0.0
N488 N 0.79972 0.75289 0.0222 0.0
N489 N 0.77629 0.73235 0.02066 0.0
C490 C 0.28056 0.74568 0.9616 0.0
C491 C 0.29586 0.74488 0.96 0.0
C492 C 0.27442 0.7501 0.97519 0.0
C493 C 0.2835 0.75428 0.98738 0.0
C494 C 0.30482 0.74853 0.97241 0.0
C495 C 0.29869 0.75319 0.98594 0.0
C496 C 0.27727 0.75955 0.00173 0.0
C497 C 0.26842 0.78938 0.9687 0.0
C498 C 0.25333 0.79004 0.96645 0.0
C499 C 0.27298 0.78323 0.98088 0.0
C500 C 0.26251 0.77723 0.99079 0.0
C501 C 0.24291 0.7847 0.97678 0.0
C502 C 0.24748 0.77835 0.98884 0.0
C503 C 0.2671 0.76986 0.00325 0.0
C504 C 0.26459 0.78539 0.06791 0.0
C505 C 0.24932 0.78449 0.07088 0.0
C506 C 0.2699 0.77986 0.05436 0.0
C507 C 0.26003 0.77343 0.04352 0.0
C508 C 0.23945 0.778 0.06003 0.0
C509 C 0.24477 0.77267 0.04637 0.0
C510 C 0.26564 0.76788 0.02908 0.0
C511 C 0.27405 0.73714 0.06137 0.0
C512 C 0.28912 0.73721 0.06445 0.0
C513 C 0.26973 0.74372 0.04938 0.0
C514 C 0.28036 0.75052 0.04019 0.0
C515 C 0.29974 0.74384 0.05503 0.0
C516 C 0.29539 0.75033 0.04296 0.0
C517 C 0.27583 0.75768 0.02759 0.0
H518 H 0.27329 0.74304 0.95232 0.0
H519 H 0.26258 0.75038 0.97611 0.0
H520 H 0.31657 0.74769 0.97174 0.0
H521 H 0.30589 0.7561 -0.00475 0.0
H522 H 0.27668 0.79366 0.96105 0.0
H523 H 0.28469 0.783 0.98243 0.0
H524 H 0.23121 0.78506 0.97529 0.0
H525 H 0.23921 0.77398 -0.00355 0.0
H526 H 0.27242 0.7903 0.07612 0.0
H527 H 0.28172 0.78073 0.05228 0.0
H528 H 0.22762 0.7773 0.06204 0.0
H529 H 0.237 0.76782 0.03808 0.0
H530 H 0.26556 0.73185 0.06814 0.0
H531 H 0.25806 0.7434 0.04722 0.0
H532 H 0.31143 0.74425 0.05713 0.0
H533 H 0.30378 0.75546 0.03596 0.0
N534 N 0.28133 0.75395 0.01399 0.0
N535 N 0.26159 0.77354 0.01687 0.0
C536 C 0.96364 0.24131 0.23758 0.0
C537 C 0.96312 0.24073 0.22215 0.0
C538 C 0.9766 0.24677 0.24496 0.0
C539 C 0.98924 0.25192 0.23707 0.0
C540 C 0.97583 0.24582 0.2143 0.0
C541 C 0.98877 0.25129 0.22169 0.0
C542 C 0.00318 0.25738 0.24466 0.0
C543 C 0.96946 0.28701 0.25966 0.0
C544 C 0.96676 0.28824 0.27495 0.0
C545 C 0.98164 0.28058 0.25371 0.0
C546 C 0.99121 0.27495 0.26288 0.0
C547 C 0.97671 0.28307 0.28411 0.0
C548 C 0.98878 0.27653 0.27815 0.0
C549 C 0.00404 0.26781 0.25684 0.0
C550 C 0.06966 0.28218 0.26364 0.0
C551 C 0.07068 0.2838 0.27905 0.0
C552 C 0.05644 0.27644 0.25693 0.0
C553 C 0.04402 0.27194 0.26546 0.0
C554 C 0.05816 0.27948 0.28759 0.0
C555 C 0.04494 0.27367 0.28085 0.0
C556 C 0.02989 0.26604 0.25843 0.0
C557 C 0.06271 0.23516 0.24524 0.0
C558 C 0.06606 0.23379 0.23009 0.0
C559 C 0.0506 0.24204 0.25059 0.0
C560 C 0.04167 0.24784 0.24091 0.0
C561 C 0.05683 0.23925 0.22041 0.0
C562 C 0.04474 0.24613 0.22576 0.0
C563 C 0.02895 0.25541 0.24644 0.0
H564 H 0.95414 0.2372 0.24393 0.0
H565 H 0.97682 0.24677 0.25681 0.0
H566 H 0.97576 0.24563 0.20243 0.0
H567 H -0.00157 0.25512 0.21539 0.0
H568 H 0.96205 0.29082 0.25224 0.0
H569 H 0.98352 0.27998 0.24193 0.0
H570 H 0.97524 0.28414 0.29595 0.0
H571 H 0.99614 0.27253 0.28549 0.0
H572 H 0.0791 0.28531 0.25673 0.0
H573 H 0.05591 0.27562 0.24504 0.0
H574 H 0.05849 0.2808 0.29948 0.0
H575 H 0.03543 0.27046 0.28765 0.0
H576 H 0.06958 0.23113 0.25302 0.0
H577 H 0.04824 0.24285 0.2623 0.0
H578 H 0.0589 0.23813 0.20865 0.0
H579 H 0.0379 0.25032 0.21806 0.0
N580 N 0.01566 0.25163 0.23993 0.0
N581 N 0.01739 0.27169 0.26325 0.0
C582 C 0.74637 0.95681 0.28525 0.0
C583 C 0.74814 0.95723 0.30053 0.0
C584 C 0.75134 0.96866 0.2777 0.0
C585 C 0.75824 0.98116 0.28527 0.0
C586 C 0.75511 0.96973 0.30809 0.0
C587 C 0.75998 0.98164 0.30053 0.0
C588 C 0.76296 -0.00607 0.2774 0.0
C589 C 0.79397 0.96179 0.26057 0.0
C590 C 0.7935 0.95808 0.24531 0.0
C591 C 0.78656 0.97303 0.26695 0.0
C592 C 0.77842 0.98065 0.25818 0.0
C593 C 0.78514 0.96559 0.23664 0.0
C594 C 0.77775 0.97679 0.243 0.0
C595 C 0.77167 -0.00657 0.26439 0.0
C596 C 0.78619 0.05449 0.25227 0.0
C597 C 0.78492 0.05292 0.23687 0.0
C598 C 0.78083 0.04331 0.26066 0.0
C599 C 0.77395 0.03043 0.25381 0.0
C600 C 0.7778 0.0401 0.23011 0.0
C601 C 0.77246 0.02895 0.23848 0.0
C602 C 0.76939 0.01801 0.26224 0.0
C603 C 0.74081 0.05194 0.27796 0.0
C604 C 0.74069 0.05562 0.29319 0.0
C605 C 0.74705 0.0398 0.27208 0.0
C606 C 0.75382 0.03143 0.28129 0.0
C607 C 0.74689 0.04697 0.30247 0.0
C608 C 0.75345 0.03502 0.29656 0.0
C609 C 0.76064 0.01856 0.27527 0.0
H610 H 0.74109 0.9473 0.27913 0.0
H611 H 0.74958 0.96813 0.26597 0.0
H612 H 0.75646 0.97041 0.31988 0.0
H613 H 0.76514 -0.00876 0.30659 0.0
H614 H 0.80047 0.95633 0.26752 0.0
H615 H 0.78761 0.97606 0.27863 0.0
H616 H 0.78436 0.96286 0.22488 0.0
H617 H 0.77159 0.98254 0.23601 0.0
H618 H 0.79182 0.06415 0.2578 0.0
H619 H 0.78242 0.04457 0.27244 0.0
H620 H 0.77647 0.03861 0.2183 0.0
H621 H 0.76726 0.01908 0.23296 0.0
H622 H 0.73582 0.05832 0.27063 0.0
H623 H 0.74644 0.03694 0.26035 0.0
H624 H 0.74687 0.0496 0.31427 0.0
H625 H 0.75836 0.02864 0.30394 0.0
N626 N 0.75785 0.00648 0.28238 0.0
N627 N 0.77446 0.00547 0.25732 0.0
C628 C 0.08144 0.78602 0.2649 0.0
C629 C 0.08516 0.787 0.24996 0.0
C630 C 0.0674 0.78002 0.26907 0.0
C631 C 0.05688 0.77473 0.25839 0.0
C632 C 0.07447 0.78202 0.2393 0.0
C633 C 0.06042 0.77602 0.2435 0.0
C634 C 0.04215 0.76797 0.26268 0.0
C635 C 0.07587 0.74002 0.27379 0.0
C636 C 0.07708 0.73933 0.28901 0.0
C637 C 0.06375 0.7454 0.26817 0.0
C638 C 0.05268 0.75031 0.27768 0.0
C639 C 0.0657 0.74376 0.29844 0.0
C640 C 0.05358 0.74913 0.2928 0.0
C641 C 0.04019 0.75677 0.27201 0.0
C642 C 0.97461 0.7393 0.26886 0.0
C643 C 0.97073 0.73872 0.28382 0.0
C644 C 0.98881 0.74484 0.26466 0.0
C645 C -0.00061 0.74996 0.27534 0.0
C646 C 0.98155 0.7434 0.29446 0.0
C647 C 0.99577 0.74887 0.29024 0.0
C648 C 0.0141 0.75676 0.27108 0.0
C649 C 0.98035 0.7852 0.26222 0.0
C650 C 0.97939 0.78775 0.24741 0.0
C651 C 0.99245 0.77922 0.26705 0.0
C652 C 0.00357 0.77522 0.25707 0.0
C653 C 0.99087 0.78447 0.23756 0.0
C654 C 0.00286 0.77823 0.24235 0.0
C655 C 0.01604 0.76813 0.26194 0.0
H656 H 0.08945 0.78968 0.27337 0.0
H657 H 0.0648 0.77944 0.28066 0.0
H658 H 0.07692 0.78285 0.22773 0.0
H659 H 0.05238 0.77216 0.2351 0.0
H660 H 0.08447 0.73674 0.26625 0.0
H661 H 0.06311 0.7459 0.25641 0.0
H662 H 0.06618 0.74312 0.31019 0.0
H663 H 0.04507 0.75268 0.30032 0.0
H664 H 0.96666 0.7355 0.26037 0.0
H665 H 0.9915 0.74529 0.25308 0.0
H666 H 0.97891 0.74323 0.30607 0.0
H667 H 0.00381 0.75272 0.29864 0.0
H668 H 0.97177 0.78791 0.27007 0.0
H669 H 0.99304 0.77766 0.2786 0.0
H670 H 0.99038 0.78638 0.22608 0.0
H671 H 0.01142 0.77546 0.2345 0.0
N672 N 0.03001 0.77319 0.25794 0.0
N673 N 0.02624 0.75163 0.27591 0.0
C674 C 0.29439 0.96626 0.24663 0.0
C675 C 0.27955 0.96025 0.24667 0.0
C676 C 0.29823 0.98033 0.25251 0.0
C677 C 0.28726 0.98859 0.2584 0.0
C678 C 0.26857 0.9687 0.25213 0.0
C679 C 0.27239 0.98282 0.25781 0.0
C680 C 0.29124 0.00302 0.26575 0.0
C681 C 0.30349 0.97054 0.29395 0.0
C682 C 0.31877 0.97093 0.29599 0.0
C683 C 0.29769 0.982 0.28851 0.0
C684 C 0.30706 -0.00602 0.28459 0.0
C685 C 0.32808 0.98323 0.29279 0.0
C686 C 0.32227 -0.00535 0.28713 0.0
C687 C 0.301 0.00568 0.27774 0.0
C688 C 0.29234 0.06607 0.29886 0.0
C689 C 0.30684 0.07301 0.29981 0.0
C690 C 0.28962 0.05215 0.29229 0.0
C691 C 0.30133 0.04486 0.2865 0.0
C692 C 0.31862 0.06545 0.29453 0.0
C693 C 0.31588 0.05144 0.28799 0.0
C694 C 0.29828 0.0305 0.27865 0.0
C695 C 0.28447 0.06165 0.2487 0.0
C696 C 0.26903 0.06118 0.24792 0.0
C697 C 0.29081 0.05085 0.25486 0.0
C698 C 0.28184 0.03929 0.26021 0.0
C699 C 0.26007 0.04959 0.25326 0.0
C700 C 0.26643 0.03866 0.25919 0.0
C701 C 0.28848 0.02779 0.26672 0.0
H702 H 0.30304 0.95994 0.24248 0.0
H703 H 0.30976 0.98469 0.25273 0.0
H704 H 0.25704 0.96434 0.25211 0.0
H705 H 0.26378 -0.01094 0.26223 0.0
H706 H 0.29599 0.96137 0.29665 0.0
H707 H 0.28584 0.98142 0.28724 0.0
H708 H 0.3399 0.98385 0.29427 0.0
H709 H 0.3297 0.00384 0.28438 0.0
H710 H 0.28304 0.07143 0.30315 0.0
H711 H 0.27833 0.04711 0.29158 0.0
H712 H 0.32991 0.07049 0.29501 0.0
H713 H 0.32506 0.04594 0.28367 0.0
H714 H 0.29163 0.07048 0.24471 0.0
H715 H 0.30274 0.05147 0.25538 0.0
H716 H 0.24815 0.0489 0.25267 0.0
H717 H 0.25931 0.02981 0.26319 0.0
N718 N 0.28524 0.01413 0.26078 0.0
N719 N 0.30427 0.01938 0.28368 0.0
C720 C 0.96222 0.74291 0.74459 0.0
C721 C 0.96153 0.74063 0.72921 0.0
C722 C 0.97571 0.7474 0.75143 0.0
C723 C 0.98868 0.75019 0.74298 0.0
C724 C 0.97456 0.74292 0.72077 0.0
C725 C 0.988 0.74769 0.7276 0.0
C726 C 0.0031 0.75505 0.75003 0.0
C727 C 0.97318 0.78878 0.76474 0.0
C728 C 0.97026 0.78992 0.78 0.0
C729 C 0.98445 0.78099 0.75878 0.0
C730 C 0.99292 0.77408 0.76792 0.0
C731 C 0.97891 0.7831 0.7891 0.0
C732 C 0.99017 0.77538 0.78314 0.0
C733 C 0.00493 0.76581 0.76189 0.0
C734 C 0.07093 0.77647 0.76745 0.0
C735 C 0.07219 0.77816 0.78285 0.0
C736 C 0.0574 0.77138 0.76097 0.0
C737 C 0.04491 0.7676 0.76973 0.0
C738 C 0.05962 0.77452 0.79159 0.0
C739 C 0.0461 0.76936 0.78509 0.0
C740 C 0.03045 0.76247 0.76299 0.0
C741 C 0.06139 0.73006 0.74948 0.0
C742 C 0.06463 0.72872 0.7343 0.0
C743 C 0.04953 0.73722 0.75498 0.0
C744 C 0.04077 0.74338 0.74545 0.0
C745 C 0.0555 0.73446 0.72475 0.0
C746 C 0.04366 0.74166 0.73026 0.0
C747 C 0.02862 0.75165 0.75121 0.0
H748 H 0.95237 0.74092 0.75134 0.0
H749 H 0.97597 0.74856 0.76332 0.0
H750 H 0.97429 0.74118 0.70888 0.0
H751 H 0.99788 0.74955 0.72084 0.0
H752 H 0.96692 0.79406 0.75743 0.0
H753 H 0.98659 0.78044 0.74703 0.0
H754 H 0.97686 0.78353 0.80085 0.0
H755 H 0.99659 0.7702 0.79042 0.0
H756 H 0.0804 0.77909 0.76039 0.0
H757 H 0.05669 0.77051 0.7491 0.0
H758 H 0.06013 0.77593 0.80347 0.0
H759 H 0.03656 0.7667 0.79206 0.0
H760 H 0.06799 0.72551 0.75712 0.0
H761 H 0.04726 0.73801 0.76671 0.0
H762 H 0.05773 0.73373 0.71301 0.0
H763 H 0.037 0.74621 0.72268 0.0
N764 N 0.01505 0.74846 0.74512 0.0
N765 N 0.01852 0.76902 0.76793 0.0
C766 C 0.25057 0.96127 0.78926 0.0
C767 C 0.2511 0.96133 0.80463 0.0
C768 C 0.25577 0.97347 0.78236 0.0
C769 C 0.26162 0.98597 0.7907 0.0
C770 C 0.25697 0.97385 0.81296 0.0
C771 C 0.26205 0.98611 0.80605 0.0
C772 C 0.26666 -0.00093 0.7835 0.0
C773 C 0.29902 0.96772 0.77003 0.0
C774 C 0.29956 0.96368 0.75483 0.0
C775 C 0.29161 0.97928 0.77551 0.0
C776 C 0.28443 0.98689 0.76591 0.0
C777 C 0.29253 0.97147 0.74526 0.0
C778 C 0.28511 0.98299 0.75074 0.0
C779 C 0.27674 -0.00069 0.77148 0.0
C780 C 0.28828 0.06178 0.76238 0.0
C781 C 0.28797 0.06104 0.74694 0.0
C782 C 0.28376 0.0497 0.76978 0.0
C783 C 0.27863 0.0367 0.7619 0.0
C784 C 0.28307 0.04793 0.73908 0.0
C785 C 0.27851 0.03587 0.74649 0.0
C786 C 0.27383 0.02378 0.76952 0.0
C787 C 0.24254 0.05599 0.7831 0.0
C788 C 0.24126 0.05952 0.79837 0.0
C789 C 0.24954 0.04419 0.77759 0.0
C790 C 0.25592 0.03593 0.78717 0.0
C791 C 0.24706 0.0508 0.80793 0.0
C792 C 0.25434 0.03919 0.80238 0.0
C793 C 0.26371 0.02355 0.78156 0.0
H794 H 0.24617 0.95175 0.78257 0.0
H795 H 0.25504 0.97321 0.77052 0.0
H796 H 0.25735 0.97424 0.82483 0.0
H797 H 0.26639 -0.00431 0.81268 0.0
H798 H 0.30454 0.96211 0.77767 0.0
H799 H 0.29166 0.98236 0.78722 0.0
H800 H 0.29259 0.96853 0.73351 0.0
H801 H 0.27975 -0.01122 0.74312 0.0
H802 H 0.29192 0.07172 0.76878 0.0
H803 H 0.28429 0.05052 0.78167 0.0
H804 H 0.28297 0.04691 0.72717 0.0
H805 H 0.27479 0.0259 0.74017 0.0
H806 H 0.23832 0.06242 0.77534 0.0
H807 H 0.24998 0.04158 0.7658 0.0
H808 H 0.24593 0.05286 0.81973 0.0
H809 H 0.25885 0.03281 0.81003 0.0
N810 N 0.26062 0.01121 0.78812 0.0
N811 N 0.27985 0.01163 0.76491 0.0
C812 C 0.08643 0.27212 0.76124 0.0
C813 C 0.09007 0.27147 0.74615 0.0
C814 C 0.07179 0.26911 0.76595 0.0
C815 C 0.06052 0.26517 0.75567 0.0
C816 C 0.07872 0.26779 0.73588 0.0
C817 C 0.06407 0.26474 0.74061 0.0
C818 C 0.04499 0.26188 0.76054 0.0
C819 C 0.07071 0.22827 0.775 0.0
C820 C 0.07172 0.22869 0.79037 0.0
C821 C 0.06044 0.23565 0.76868 0.0
C822 C 0.05109 0.24372 0.77762 0.0
C823 C 0.062 0.23642 0.79927 0.0
C824 C 0.05174 0.24379 0.79294 0.0
C825 C 0.04065 0.25215 0.77115 0.0
C826 C 0.97433 0.24861 0.76847 0.0
C827 C 0.97025 0.25027 0.78343 0.0
C828 C 0.98916 0.25046 0.76414 0.0
C829 C 0.00023 0.25423 0.77464 0.0
C830 C 0.98141 0.25345 0.79398 0.0
C831 C 0.99629 0.25534 0.78961 0.0
C832 C 0.01583 0.25742 0.76995 0.0
C833 C 0.99081 0.2922 0.75876 0.0
C834 C 0.98735 0.29087 0.74374 0.0
C835 C 0.00189 0.28496 0.7638 0.0
C836 C 0.00975 0.27625 0.75394 0.0
C837 C 0.99577 0.28269 0.7338 0.0
C838 C 0.00696 0.27551 0.73886 0.0
C839 C 0.0202 0.26727 0.75952 0.0
H840 H 0.09491 0.27485 0.76943 0.0
H841 H 0.06927 0.26988 0.77763 0.0
H842 H 0.08112 0.26745 0.72419 0.0
H843 H 0.05551 0.26192 0.7325 0.0
H844 H 0.07783 0.2222 0.76784 0.0
H845 H 0.05985 0.23513 0.75681 0.0
H846 H 0.06258 0.2371 0.81114 0.0
H847 H 0.04458 0.24988 0.80004 0.0
H848 H 0.96603 0.24629 0.76005 0.0
H849 H 0.99198 0.24924 0.75253 0.0
H850 H 0.97864 0.25457 0.8056 0.0
H851 H 0.00469 0.25809 0.79789 0.0
H852 H 0.98482 0.29869 0.76668 0.0
H853 H 0.00409 0.28587 0.77547 0.0
H854 H 0.99335 0.28135 0.72218 0.0
H855 H 0.01295 0.26886 0.73109 0.0
N856 N 0.03458 0.26905 0.75507 0.0
N857 N 0.02623 0.25033 0.77551 0.0
C858 C 0.79273 0.96262 0.73644 0.0
C859 C 0.77841 0.95813 0.73129 0.0
C860 C 0.79598 0.97614 0.74393 0.0
C861 C 0.78481 0.98515 0.74688 0.0
C862 C 0.7675 0.96747 0.73348 0.0
C863 C 0.77067 0.98084 0.74123 0.0
C864 C 0.78759 -0.00092 0.75578 0.0
C865 C 0.79644 0.96476 0.78365 0.0
C866 C 0.81121 0.96557 0.78803 0.0
C867 C 0.79113 0.9764 0.77802 0.0
C868 C 0.80059 -0.01102 0.77623 0.0
C869 C 0.82045 0.97843 0.78697 0.0
C870 C 0.81519 -0.00998 0.78113 0.0
C871 C 0.79535 0.001 0.76922 0.0
C872 C 0.78249 0.05983 0.79223 0.0
C873 C 0.79654 0.06741 0.7947 0.0
C874 C 0.78106 0.04608 0.7851 0.0
C875 C 0.79364 0.03962 0.78025 0.0
C876 C 0.80915 0.06063 0.79047 0.0
C877 C 0.8077 0.0468 0.78335 0.0
C878 C 0.79201 0.02574 0.7713 0.0
C879 C 0.7813 0.05896 0.74217 0.0
C880 C 0.76599 0.05839 0.7402 0.0
C881 C 0.78723 0.0477 0.74795 0.0
C882 C 0.77796 0.0356 0.75168 0.0
C883 C 0.75675 0.04624 0.7439 0.0
C884 C 0.76271 0.03487 0.74942 0.0
C885 C 0.78411 0.02376 0.75806 0.0
H886 H 0.80136 0.95564 0.73471 0.0
H887 H 0.80715 0.97944 0.74764 0.0
H888 H 0.75635 0.96422 0.72968 0.0
H889 H 0.76191 0.98764 0.74318 0.0
H890 H 0.78896 0.95511 0.78463 0.0
H891 H 0.77967 0.97547 0.77484 0.0
H892 H 0.83188 0.97939 0.79027 0.0
H893 H 0.82264 -0.00033 0.78006 0.0
H894 H 0.77256 0.06459 0.79566 0.0
H895 H 0.7701 0.04057 0.78307 0.0
H896 H 0.82013 0.0662 0.79214 0.0
H897 H 0.81753 0.04196 0.77973 0.0
H898 H 0.78866 0.06822 0.73945 0.0
H899 H 0.79905 0.04843 0.74951 0.0
H900 H 0.74492 0.04549 0.74238 0.0
H901 H 0.75539 0.02562 0.7522 0.0
N902 N 0.78215 0.01051 0.75084 0.0
N903 N 0.79741 0.01434 0.77639 0.0
C904 C 0.27827 0.72007 0.57189 0.0
C905 C 0.26298 0.71618 0.57336 0.0
C906 C 0.2841 0.72662 0.55953 0.0
C907 C 0.27469 0.72983 0.54864 0.0
C908 C 0.25364 0.71892 0.56222 0.0
C909 C 0.25944 0.72568 0.55001 0.0
C910 C 0.28052 0.73703 0.53552 0.0
C911 C 0.29458 0.76823 0.5743 0.0
C912 C 0.30999 0.77124 0.57575 0.0
C913 C 0.28856 0.7608 0.56152 0.0
C914 C 0.29783 0.75609 0.55 0.0
C915 C 0.31923 0.76652 0.56418 0.0
C916 C 0.3132 0.7591 0.55139 0.0
C917 C 0.29161 0.74885 0.53612 0.0
C918 C 0.28965 0.7688 0.47558 0.0
C919 C 0.30479 0.77166 0.47218 0.0
C920 C 0.28496 0.76174 0.48795 0.0
C921 C 0.29529 0.75718 0.4971 0.0
C922 C 0.31513 0.76747 0.48162 0.0
C923 C 0.31042 0.76037 0.49399 0.0
C924 C 0.2904 0.74945 0.5101 0.0
C925 C 0.27484 0.72135 0.4701 0.0
C926 C 0.25937 0.719 0.46903 0.0
C927 C 0.28142 0.72718 0.48328 0.0
C928 C 0.27265 0.73095 0.49558 0.0
C929 C 0.25064 0.72241 0.48151 0.0
C930 C 0.25722 0.72826 0.49467 0.0
C931 C 0.2794 0.73759 0.50948 0.0
H932 H 0.28574 0.71787 0.5802 0.0
H933 H 0.29596 0.7291 0.55851 0.0
H934 H 0.2418 0.71609 0.5631 0.0
H935 H 0.25193 0.72786 0.54172 0.0
H936 H 0.28717 0.77166 0.58305 0.0
H937 H 0.27666 0.7589 0.56056 0.0
H938 H 0.33113 0.76888 0.56484 0.0
H939 H 0.32054 0.75574 0.54255 0.0
H940 H 0.2814 0.77214 0.46874 0.0
H941 H 0.27323 0.75986 0.49038 0.0
H942 H 0.32687 0.76941 0.47929 0.0
H943 H 0.3186 0.7571 0.50097 0.0
H944 H 0.28188 0.71858 0.46077 0.0
H945 H 0.29337 0.72878 0.48385 0.0
H946 H 0.23869 0.72087 0.48102 0.0
H947 H 0.25024 0.731 0.50405 0.0
N948 N 0.27483 0.73193 0.5222 0.0
N949 N 0.29617 0.75452 0.52339 0.0
C950 C 0.78933 0.75768 0.56869 0.0
C951 C 0.79113 0.74314 0.56875 0.0
C952 C 0.78478 0.763 0.55599 0.0
C953 C 0.78153 0.75378 0.54323 0.0
C954 C 0.78853 0.73408 0.55578 0.0
C955 C 0.78378 0.73936 0.54315 0.0
C956 C 0.77594 0.75904 0.52989 0.0
C957 C 0.74314 0.76598 0.56647 0.0
C958 C 0.74051 0.78028 0.56957 0.0
C959 C 0.75043 0.76169 0.55344 0.0
C960 C 0.75572 0.77175 0.54359 0.0
C961 C 0.74506 0.79016 0.55935 0.0
C962 C 0.75263 0.78593 0.54648 0.0
C963 C 0.76423 0.76765 0.53012 0.0
C964 C 0.75315 0.77058 0.46556 0.0
C965 C 0.75073 0.78504 0.46586 0.0
C966 C 0.75821 0.76518 0.478 0.0
C967 C 0.76144 0.77421 0.49088 0.0
C968 C 0.75342 0.79388 0.479 0.0
C969 C 0.75873 0.78853 0.49132 0.0
C970 C 0.76706 0.76884 0.50416 0.0
C971 C 0.79937 0.7608 0.46724 0.0
C972 C 0.80153 0.74633 0.46421 0.0
C973 C 0.79238 0.76549 0.48032 0.0
C974 C 0.78699 0.75571 0.49041 0.0
C975 C 0.79694 0.73679 0.47481 0.0
C976 C 0.78972 0.74142 0.48772 0.0
C977 C 0.77872 0.76015 0.50392 0.0
H978 H 0.79153 0.76496 0.57846 0.0
H979 H 0.78366 0.77428 0.55619 0.0
H980 H 0.7898 0.72282 0.55552 0.0
H981 H 0.78153 0.73208 0.53339 0.0
H982 H 0.73952 0.75814 0.57411 0.0
H983 H 0.75209 0.75055 0.55118 0.0
H984 H 0.74316 0.80125 0.56152 0.0
H985 H 0.75638 0.79384 0.53895 0.0
H986 H 0.75129 0.76342 0.45567 0.0
H987 H 0.75967 0.75395 0.4775 0.0
H988 H 0.7513 0.80495 0.47986 0.0
H989 H 0.76082 0.79565 0.50122 0.0
H990 H 0.80274 0.76848 0.45938 0.0
H991 H 0.79094 0.7767 0.4824 0.0
H992 H 0.79882 0.72567 0.47312 0.0
H993 H 0.78599 0.73374 0.49549 0.0
N994 N 0.78259 0.75553 0.51678 0.0
N995 N 0.76039 0.77231 0.51728 0.0
C996 C 0.80964 0.25711 0.46953 0.0
C997 C 0.81041 0.27204 0.46942 0.0
C998 C 0.80458 0.25043 0.48205 0.0
C999 C 0.79999 0.25851 0.49467 0.0
C1000 C 0.80594 0.2801 0.48214 0.0
C1001 C 0.80087 0.27341 0.49464 0.0
C1002 C 0.79489 0.25166 0.50817 0.0
C1003 C 0.76174 0.23487 0.47352 0.0
C1004 C 0.76055 0.21999 0.47009 0.0
C1005 C 0.76949 0.24123 0.48586 0.0
C1006 C 0.77643 0.23286 0.49489 0.0
C1007 C 0.76731 0.21162 0.47929 0.0
C1008 C 0.77512 0.218 0.4916 0.0
C1009 C 0.78441 0.23942 0.50818 0.0
C1010 C 0.77103 0.23497 0.57269 0.0
C1011 C 0.76887 0.22003 0.57266 0.0
C1012 C 0.77694 0.24137 0.56029 0.0
C1013 C 0.78121 0.23295 0.54774 0.0
C1014 C 0.77296 0.21161 0.56005 0.0
C1015 C 0.77906 0.21801 0.54774 0.0
C1016 C 0.78684 0.23948 0.53419 0.0
C1017 C 0.8191 0.25767 0.56958 0.0
C1018 C 0.82059 0.27265 0.57201 0.0
C1019 C 0.81158 0.25074 0.5573 0.0
C1020 C 0.80513 0.25866 0.54743 0.0
C1021 C 0.81433 0.28053 0.56199 0.0
C1022 C 0.80672 0.27361 0.54983 0.0
C1023 C 0.7974 0.25169 0.53416 0.0
H1024 H 0.81291 0.25056 0.45992 0.0
H1025 H 0.8044 0.23896 0.48189 0.0
H1026 H 0.80663 0.29163 0.48256 0.0
H1027 H 0.79757 0.2799 0.5043 0.0
H1028 H 0.75638 0.24157 0.46684 0.0
H1029 H 0.76988 0.25266 0.48845 0.0
H1030 H 0.76666 0.20014 0.4769 0.0
H1031 H 0.78026 0.21133 0.4985 0.0
H1032 H 0.7677 0.24172 0.58214 0.0
H1033 H 0.77786 0.25288 0.56044 0.0
H1034 H 0.77144 0.20007 0.55972 0.0
H1035 H 0.78208 0.21126 0.53815 0.0
H1036 H 0.82398 0.25135 0.57703 0.0
H1037 H 0.81094 0.23922 0.55545 0.0
H1038 H 0.81516 0.29208 0.56365 0.0
H1039 H 0.80195 0.27997 0.54232 0.0
N1040 N 0.8009 0.25731 0.52117 0.0
N1041 N 0.78087 0.23379 0.52115 0.0
C1042 C 0.26317 0.27282 0.44841 0.0
C1043 C 0.2482 0.27504 0.44785 0.0
C1044 C 0.26815 0.26536 0.45944 0.0
C1045 C 0.25819 0.25954 0.4699 0.0
C1046 C 0.23837 0.26967 0.4587 0.0
C1047 C 0.24332 0.26201 0.46961 0.0
C1048 C 0.26331 0.2513 0.48145 0.0
C1049 C 0.27034 0.22901 0.43784 0.0
C1050 C 0.28532 0.22919 0.43378 0.0
C1051 C 0.26619 0.23179 0.45254 0.0
C1052 C 0.277 0.23525 0.46339 0.0
C1053 C 0.29605 0.23142 0.44478 0.0
C1054 C 0.29191 0.23444 0.45949 0.0
C1055 C 0.27286 0.24054 0.47853 0.0
C1056 C 0.2774 0.21912 0.53823 0.0
C1057 C 0.29277 0.22074 0.54024 0.0
C1058 C 0.27142 0.22459 0.52632 0.0
C1059 C 0.28069 0.23173 0.51618 0.0
C1060 C 0.30205 0.22753 0.52982 0.0
C1061 C 0.29606 0.23287 0.51781 0.0
C1062 C 0.2744 0.23855 0.50425 0.0
C1063 C 0.26608 0.26603 0.54614 0.0
C1064 C 0.25104 0.26491 0.55023 0.0
C1065 C 0.27049 0.26056 0.53219 0.0
C1066 C 0.25991 0.25398 0.52208 0.0
C1067 C 0.24049 0.25818 0.54014 0.0
C1068 C 0.24489 0.25291 0.52611 0.0
C1069 C 0.26439 0.24882 0.50708 0.0
H1070 H 0.27108 0.27666 0.44022 0.0
H1071 H 0.27979 0.26407 0.45971 0.0
H1072 H 0.22684 0.27145 0.45886 0.0
H1073 H 0.23549 0.25788 0.47773 0.0
H1074 H 0.26186 0.2271 0.42957 0.0
H1075 H 0.25457 0.23186 0.45535 0.0
H1076 H 0.30768 0.2316 0.44189 0.0
H1077 H 0.30041 0.23688 0.46771 0.0
H1078 H 0.26998 0.21401 0.54612 0.0
H1079 H 0.25953 0.22345 0.52516 0.0
H1080 H 0.31394 0.22878 0.53101 0.0
H1081 H 0.30339 0.23829 0.51006 0.0
H1082 H 0.27441 0.27115 0.55374 0.0
H1083 H 0.28212 0.26167 0.52919 0.0
H1084 H 0.22882 0.25734 0.54298 0.0
H1085 H 0.23658 0.24796 0.5184 0.0
N1086 N 0.25925 0.25484 0.49561 0.0
N1087 N 0.27827 0.23475 0.49007 0.0
C1088 C 0.75486 0.46188 0.7825 0.0
C1089 C 0.75552 0.46197 0.79787 0.0
C1090 C 0.75991 0.47409 0.77555 0.0
C1091 C 0.76576 0.48662 0.78382 0.0
C1092 C 0.76138 0.47453 0.80614 0.0
C1093 C 0.76631 0.48681 0.79918 0.0
C1094 C 0.77079 0.49966 0.7765 0.0
C1095 C 0.80322 0.46837 0.76405 0.0
C1096 C 0.80373 0.46384 0.74896 0.0
C1097 C 0.79585 0.48007 0.76911 0.0
C1098 C 0.78865 0.48734 0.75921 0.0
C1099 C 0.79678 0.47133 0.73905 0.0
C1100 C 0.78938 0.48301 0.74413 0.0
C1101 C 0.78077 0.49974 0.76442 0.0
C1102 C 0.7919 0.5615 0.75275 0.0
C1103 C 0.79146 0.56001 0.73729 0.0
C1104 C 0.78723 0.5499 0.76083 0.0
C1105 C 0.78185 0.53664 0.7536 0.0
C1106 C 0.78606 0.5467 0.73012 0.0
C1107 C 0.78139 0.53513 0.73819 0.0
C1108 C 0.77747 0.52403 0.76183 0.0
C1109 C 0.7455 0.55589 0.77579 0.0
C1110 C 0.74398 0.55901 0.79104 0.0
C1111 C 0.75312 0.54452 0.77016 0.0
C1112 C 0.75982 0.53642 0.77969 0.0
C1113 C 0.75034 0.55073 0.80057 0.0
C1114 C 0.75823 0.53958 0.79495 0.0
C1115 C 0.76762 0.52403 0.7741 0.0
H1116 H 0.75047 0.45233 0.77585 0.0
H1117 H 0.75911 0.47378 0.76372 0.0
H1118 H 0.76187 0.47493 0.81801 0.0
H1119 H 0.77066 0.49642 0.80576 0.0
H1120 H 0.80871 0.463 0.77193 0.0
H1121 H 0.79589 0.48349 0.78075 0.0
H1122 H 0.79685 0.46803 0.72738 0.0
H1123 H 0.78401 0.48852 0.73628 0.0
H1124 H 0.79624 0.57153 0.7586 0.0
H1125 H 0.78805 0.55122 0.7727 0.0
H1126 H 0.78542 0.54522 0.71825 0.0
H1127 H 0.77736 0.52498 0.73238 0.0
H1128 H 0.74047 0.56202 0.76826 0.0
H1129 H 0.75352 0.54195 0.75837 0.0
H1130 H 0.7493 0.55296 0.81237 0.0
H1131 H 0.7631 0.53341 0.80255 0.0
N1132 N 0.76472 0.51182 0.78094 0.0
N1133 N 0.7836 0.51187 0.75748 0.0
C1134 C 0.2868 0.45197 0.72314 0.0
C1135 C 0.27178 0.4467 0.72399 0.0
C1136 C 0.29171 0.46574 0.72918 0.0
C1137 C 0.28164 0.47449 0.73607 0.0
C1138 C 0.26168 0.4556 0.73058 0.0
C1139 C 0.26656 0.46946 0.73644 0.0
C1140 C 0.28689 0.48872 0.74325 0.0
C1141 C 0.29862 0.45653 0.77275 0.0
C1142 C 0.31387 0.45527 0.77292 0.0
C1143 C 0.2934 0.46796 0.76666 0.0
C1144 C 0.30328 0.47846 0.7606 0.0
C1145 C 0.32374 0.46592 0.76695 0.0
C1146 C 0.3185 0.47746 0.76098 0.0
C1147 C 0.29771 0.49063 0.75423 0.0
C1148 C 0.29691 0.55154 0.77809 0.0
C1149 C 0.31215 0.55578 0.77964 0.0
C1150 C 0.29187 0.53861 0.7702 0.0
C1151 C 0.30197 0.52978 0.76353 0.0
C1152 C 0.32222 0.54685 0.77303 0.0
C1153 C 0.31717 0.53394 0.76512 0.0
C1154 C 0.29684 0.5158 0.75568 0.0
C1155 C 0.28127 0.5498 0.73066 0.0
C1156 C 0.26594 0.54853 0.72852 0.0
C1157 C 0.28787 0.53852 0.73561 0.0
C1158 C 0.27921 0.5259 0.73901 0.0
C1159 C 0.25736 0.53572 0.73134 0.0
C1160 C 0.26393 0.52455 0.73655 0.0
C1161 C 0.2859 0.5139 0.7447 0.0
H1162 H 0.2948 0.44529 0.71815 0.0
H1163 H 0.30338 0.46952 0.72864 0.0
H1164 H 0.25001 0.45182 0.73124 0.0
H1165 H 0.25864 0.4761 0.74166 0.0
H1166 H 0.29066 0.4488 0.77756 0.0
H1167 H 0.28162 0.4687 0.76683 0.0
H1168 H 0.33553 0.46528 0.7667 0.0
H1169 H 0.32632 0.48548 0.75644 0.0
H1170 H 0.28887 0.55821 0.78298 0.0
H1171 H 0.28008 0.53545 0.76944 0.0
H1172 H 0.33402 0.54968 0.77423 0.0
H1173 H 0.32515 0.52718 0.76025 0.0
H1174 H 0.28819 0.55945 0.7283 0.0
H1175 H 0.29976 0.53968 0.73674 0.0
H1176 H 0.24552 0.53446 0.7298 0.0
H1177 H 0.25699 0.5149 0.73889 0.0
N1178 N 0.28131 0.50036 0.73897 0.0
N1179 N 0.30236 0.5041 0.75995 0.0
C1180 C 0.2583 0.46152 0.28454 0.0
C1181 C 0.25889 0.46202 0.29996 0.0
C1182 C 0.26294 0.47364 0.27727 0.0
C1183 C 0.26834 0.4865 0.28525 0.0
C1184 C 0.2642 0.47496 0.30792 0.0
C1185 C 0.26878 0.48711 0.30063 0.0
C1186 C 0.27296 0.49946 0.27765 0.0
C1187 C 0.30583 0.46863 0.26501 0.0
C1188 C 0.30613 0.46397 0.24994 0.0
C1189 C 0.29838 0.48027 0.27009 0.0
C1190 C 0.29089 0.48735 0.26025 0.0
C1191 C 0.29891 0.47129 0.24008 0.0
C1192 C 0.29143 0.4829 0.24518 0.0
C1193 C 0.28287 0.49964 0.2655 0.0
C1194 C 0.29309 0.56177 0.25486 0.0
C1195 C 0.29231 0.56074 0.23943 0.0
C1196 C 0.28893 0.54983 0.26259 0.0
C1197 C 0.28371 0.53667 0.25505 0.0
C1198 C 0.28733 0.54747 0.23191 0.0
C1199 C 0.28314 0.53556 0.23965 0.0
C1200 C 0.27934 0.5239 0.26303 0.0
C1201 C 0.24758 0.55577 0.27723 0.0
C1202 C 0.2464 0.55918 0.29252 0.0
C1203 C 0.25491 0.54422 0.27154 0.0
C1204 C 0.26167 0.5361 0.28099 0.0
C1205 C 0.25273 0.55067 0.30193 0.0
C1206 C 0.26031 0.53934 0.29623 0.0
C1207 C 0.2695 0.52376 0.27529 0.0
H1208 H 0.25394 0.45185 0.27808 0.0
H1209 H 0.2621 0.47302 0.26542 0.0
H1210 H 0.26493 0.4757 0.31979 0.0
H1211 H 0.27282 0.49696 0.307 0.0
H1212 H 0.31152 0.4634 0.27285 0.0
H1213 H 0.29855 0.48379 0.28172 0.0
H1214 H 0.29883 0.4679 0.22842 0.0
H1215 H 0.28584 0.48828 0.23737 0.0
H1216 H 0.29718 0.57175 0.26095 0.0
H1217 H 0.28988 0.55086 0.27444 0.0
H1218 H 0.2865 0.54634 0.22005 0.0
H1219 H 0.27926 0.52548 0.23361 0.0
H1220 H 0.24295 0.56205 0.26959 0.0
H1221 H 0.25519 0.54163 0.25975 0.0
H1222 H 0.25171 0.55263 0.31376 0.0
H1223 H 0.26514 0.53308 0.30378 0.0
N1224 N 0.26676 0.51154 0.28213 0.0
N1225 N 0.28557 0.5118 0.25858 0.0
C1226 C 0.78256 0.45142 0.22842 0.0
C1227 C 0.76765 0.44568 0.22912 0.0
C1228 C 0.78673 0.46577 0.23306 0.0
C1229 C 0.77606 0.47459 0.23847 0.0
C1230 C 0.75693 0.45469 0.23395 0.0
C1231 C 0.7611 0.46907 0.23847 0.0
C1232 C 0.78049 0.48935 0.24477 0.0
C1233 C 0.79395 0.45924 0.27547 0.0
C1234 C 0.80926 0.46009 0.27778 0.0
C1235 C 0.78799 0.4699 0.26874 0.0
C1236 C 0.79719 0.48149 0.26371 0.0
C1237 C 0.81839 0.47199 0.27322 0.0
C1238 C 0.81241 0.48257 0.26629 0.0
C1239 C 0.79094 0.49263 0.25613 0.0
C1240 C 0.78629 0.55483 0.27305 0.0
C1241 C 0.80127 0.56032 0.27419 0.0
C1242 C 0.78224 0.54086 0.26705 0.0
C1243 C 0.79308 0.53217 0.26182 0.0
C1244 C 0.81212 0.55148 0.26922 0.0
C1245 C 0.80804 0.53751 0.26316 0.0
C1246 C 0.78885 0.51743 0.25526 0.0
C1247 C 0.77323 0.54743 0.22548 0.0
C1248 C 0.75773 0.54712 0.22561 0.0
C1249 C 0.77991 0.5366 0.2312 0.0
C1250 C 0.77126 0.52521 0.23721 0.0
C1251 C 0.74912 0.53546 0.23129 0.0
C1252 C 0.75582 0.52458 0.23691 0.0
C1253 C 0.77824 0.51411 0.24407 0.0
H1254 H 0.79104 0.44471 0.22478 0.0
H1255 H 0.79832 0.46991 0.23279 0.0
H1256 H 0.74535 0.45056 0.23441 0.0
H1257 H 0.7527 0.47574 0.2425 0.0
H1258 H 0.78653 0.45024 0.27869 0.0
H1259 H 0.77613 0.46902 0.26743 0.0
H1260 H 0.83017 0.47323 0.27509 0.0
H1261 H 0.81972 0.49153 0.26278 0.0
H1262 H 0.77765 0.56136 0.27667 0.0
H1263 H 0.77062 0.53686 0.26652 0.0
H1264 H 0.82376 0.55529 0.27019 0.0
H1265 H 0.81658 0.5309 0.25937 0.0
H1266 H 0.78024 0.55602 0.2209 0.0
H1267 H 0.79186 0.53716 0.23103 0.0
H1268 H 0.73718 0.53489 0.23174 0.0
H1269 H 0.74893 0.51588 0.24146 0.0
N1270 N 0.77441 0.50017 0.23929 0.0
N1271 N 0.79484 0.50659 0.26082 0.0
C1272 C 0.56786 0.24515 0.73319 0.0
C1273 C 0.56735 0.23018 0.73247 0.0
C1274 C 0.55562 0.25194 0.7383 0.0
C1275 C 0.54268 0.24394 0.74301 0.0
C1276 C 0.55433 0.2222 0.73708 0.0
C1277 C 0.54212 0.22901 0.74223 0.0
C1278 C 0.52941 0.25088 0.74804 0.0
C1279 C 0.56492 0.26766 0.7807 0.0
C1280 C 0.56835 0.28259 0.78184 0.0
C1281 C 0.55246 0.26118 0.77304 0.0
C1282 C 0.54335 0.2695 0.76615 0.0
C1283 C 0.55912 0.29087 0.77507 0.0
C1284 C 0.54673 0.2844 0.76736 0.0
C1285 C 0.52982 0.26297 0.75841 0.0
C1286 C 0.46603 0.26713 0.77326 0.0
C1287 C 0.46563 0.28199 0.774 0.0
C1288 C 0.4783 0.261 0.76715 0.0
C1289 C 0.49042 0.2696 0.76163 0.0
C1290 C 0.47773 0.29057 0.76837 0.0
C1291 C 0.49007 0.28443 0.76238 0.0
C1292 C 0.50382 0.26327 0.75595 0.0
C1293 C 0.46804 0.24747 0.72367 0.0
C1294 C 0.46455 0.23255 0.72193 0.0
C1295 C 0.48063 0.25363 0.7313 0.0
C1296 C 0.48987 0.245 0.73756 0.0
C1297 C 0.47401 0.22395 0.72794 0.0
C1298 C 0.48655 0.23011 0.73563 0.0
C1299 C 0.50343 0.25131 0.74543 0.0
H1300 H 0.5776 0.2516 0.72945 0.0
H1301 H 0.5562 0.26344 0.73833 0.0
H1302 H 0.5536 0.21068 0.7368 0.0
H1303 H 0.53224 0.22258 0.74569 0.0
H1304 H 0.5717 0.26102 0.78599 0.0
H1305 H 0.54982 0.2497 0.7727 0.0
H1306 H 0.56155 0.30238 0.77561 0.0
H1307 H 0.53981 0.29104 0.76225 0.0
H1308 H 0.45685 0.26024 0.77744 0.0
H1309 H 0.47842 0.24956 0.76699 0.0
H1310 H 0.47782 0.30206 0.76895 0.0
H1311 H 0.49937 0.29128 0.75834 0.0
H1312 H 0.46097 0.25442 0.71923 0.0
H1313 H 0.48319 0.26513 0.73219 0.0
H1314 H 0.47184 0.21241 0.72656 0.0
H1315 H 0.49363 0.22322 0.74013 0.0
N1316 N 0.51621 0.24552 0.742 0.0
N1317 N 0.51702 0.2687 0.76191 0.0
C1318 C 0.48004 0.77298 0.73963 0.0
C1319 C 0.47922 0.78767 0.74295 0.0
C1320 C 0.49167 0.76655 0.74485 0.0
C1321 C 0.50271 0.77472 0.75342 0.0
C1322 C 0.49036 0.79584 0.75141 0.0
C1323 C 0.5021 0.78944 0.75647 0.0
C1324 C 0.51498 0.76799 0.75911 0.0
C1325 C 0.47433 0.75374 0.78499 0.0
C1326 C 0.46939 0.73914 0.78199 0.0
C1327 C 0.48837 0.7593 0.78033 0.0
C1328 C 0.49774 0.7504 0.77255 0.0
C1329 C 0.4789 0.73024 0.77428 0.0
C1330 C 0.49299 0.7358 0.76972 0.0
C1331 C 0.51262 0.75622 0.76765 0.0
C1332 C 0.57388 0.75354 0.78915 0.0
C1333 C 0.57509 0.73881 0.7874 0.0
C1334 C 0.56189 0.75898 0.78342 0.0
C1335 C 0.55096 0.74985 0.77561 0.0
C1336 C 0.56383 0.7296 0.78008 0.0
C1337 C 0.55184 0.73509 0.77427 0.0
C1338 C 0.53863 0.75576 0.76894 0.0
C1339 C 0.57995 0.76951 0.74439 0.0
C1340 C 0.58471 0.78415 0.74713 0.0
C1341 C 0.56563 0.76406 0.74834 0.0
C1342 C 0.55585 0.77314 0.75517 0.0
C1343 C 0.57474 0.79328 0.75359 0.0
C1344 C 0.56039 0.78783 0.75747 0.0
C1345 C 0.54096 0.76734 0.7601 0.0
H1346 H 0.47156 0.76643 0.73318 0.0
H1347 H 0.49206 0.75521 0.74219 0.0
H1348 H 0.49007 0.80721 0.75398 0.0
H1349 H 0.51057 0.79593 0.76298 0.0
H1350 H 0.46747 0.76086 0.79118 0.0
H1351 H 0.49197 0.77055 0.78294 0.0
H1352 H 0.47541 0.71898 0.77161 0.0
H1353 H 0.5001 0.72875 0.76378 0.0
H1354 H 0.58215 0.76088 0.79507 0.0
H1355 H 0.5612 0.77037 0.78504 0.0
H1356 H 0.56447 0.7182 0.77857 0.0
H1357 H 0.54343 0.72784 0.76843 0.0
H1358 H 0.58739 0.76221 0.73947 0.0
H1359 H 0.56225 0.75271 0.7462 0.0
H1360 H 0.57803 0.80465 0.75562 0.0
H1361 H 0.55296 0.79503 0.76261 0.0
N1362 N 0.52906 0.77314 0.75566 0.0
N1363 N 0.52453 0.75051 0.77226 0.0
C1364 C 0.46812 0.78479 0.2642 0.0
C1365 C 0.46539 0.78587 0.27948 0.0
C1366 C 0.47991 0.77782 0.25813 0.0
C1367 C 0.48907 0.77153 0.26718 0.0
C1368 C 0.47491 0.77998 0.28852 0.0
C1369 C 0.4866 0.77292 0.28244 0.0
C1370 C 0.50161 0.76399 0.26104 0.0
C1371 C 0.46043 0.73965 0.24149 0.0
C1372 C 0.46028 0.73799 0.22606 0.0
C1373 C 0.4735 0.74468 0.24888 0.0
C1374 C 0.48655 0.74863 0.24096 0.0
C1375 C 0.4734 0.74151 0.21814 0.0
C1376 C 0.48641 0.74682 0.22552 0.0
C1377 C 0.50058 0.75386 0.24857 0.0
C1378 C 0.56008 0.73115 0.24722 0.0
C1379 C 0.56354 0.73101 0.23211 0.0
C1380 C 0.54791 0.73761 0.25314 0.0
C1381 C 0.53903 0.74421 0.2441 0.0
C1382 C 0.55434 0.73724 0.22303 0.0
C1383 C 0.54219 0.7437 0.22896 0.0
C1384 C 0.52632 0.75147 0.25022 0.0
C1385 C 0.56706 0.77652 0.27024 0.0
C1386 C 0.5674 0.77703 0.28567 0.0
C1387 C 0.55408 0.77141 0.26273 0.0
C1388 C 0.54126 0.76648 0.27048 0.0
C1389 C 0.55451 0.77223 0.2934 0.0
C1390 C 0.54156 0.76705 0.28587 0.0
C1391 C 0.52729 0.76147 0.26275 0.0
H1392 H 0.46103 0.78915 0.25688 0.0
H1393 H 0.48184 0.77732 0.24635 0.0
H1394 H 0.47343 0.7809 0.30036 0.0
H1395 H 0.49365 0.76841 0.2897 0.0
H1396 H 0.4505 0.73672 0.24784 0.0
H1397 H 0.4734 0.74534 0.26077 0.0
H1398 H 0.47355 0.74027 0.20623 0.0
H1399 H 0.49637 0.74957 0.21915 0.0
H1400 H 0.56693 0.72649 0.25454 0.0
H1401 H 0.54549 0.7375 0.2648 0.0
H1402 H 0.55648 0.73707 0.2113 0.0
H1403 H 0.53539 0.74853 0.22172 0.0
H1404 H 0.57672 0.78043 0.264 0.0
H1405 H 0.55401 0.77153 0.25089 0.0
H1406 H 0.55445 0.77241 0.30527 0.0
H1407 H 0.53176 0.76343 0.29208 0.0
N1408 N 0.5149 0.76726 0.26768 0.0
N1409 N 0.51302 0.74813 0.24361 0.0
C1410 C 0.48101 0.26762 0.24547 0.0
C1411 C 0.48291 0.28231 0.24373 0.0
C1412 C 0.49244 0.26105 0.25083 0.0
C1413 C 0.50585 0.26913 0.255 0.0
C1414 C 0.49662 0.29023 0.24705 0.0
C1415 C 0.508 0.28368 0.25266 0.0
C1416 C 0.51748 0.26255 0.26211 0.0
C1417 C 0.47799 0.26261 0.29112 0.0
C1418 C 0.46986 0.24901 0.2904 0.0
C1419 C 0.49278 0.2642 0.28654 0.0
C1420 C 0.49967 0.25224 0.28108 0.0
C1421 C 0.47707 0.23697 0.28577 0.0
C1422 C 0.49192 0.23857 0.28124 0.0
C1423 C 0.51446 0.25413 0.27405 0.0
C1424 C 0.57496 0.24704 0.29459 0.0
C1425 C 0.57331 0.23243 0.29682 0.0
C1426 C 0.56407 0.2529 0.28742 0.0
C1427 C 0.55141 0.24423 0.28215 0.0
C1428 C 0.56046 0.22385 0.29179 0.0
C1429 C 0.54959 0.22972 0.2846 0.0
C1430 C 0.53982 0.25031 0.2745 0.0
C1431 C 0.58107 0.25417 0.24641 0.0
C1432 C 0.58632 0.26829 0.2438 0.0
C1433 C 0.56687 0.25096 0.25229 0.0
C1434 C 0.55783 0.26186 0.25601 0.0
C1435 C 0.57707 0.27908 0.24708 0.0
C1436 C 0.56297 0.27589 0.2531 0.0
C1437 C 0.54289 0.25885 0.26261 0.0
H1438 H 0.47064 0.26123 0.24269 0.0
H1439 H 0.4907 0.2497 0.25197 0.0
H1440 H 0.49837 0.30156 0.24578 0.0
H1441 H 0.51831 0.29009 0.25563 0.0
H1442 H 0.47275 0.27211 0.29453 0.0
H1443 H 0.49866 0.27484 0.28665 0.0
H1444 H 0.47113 0.22634 0.28529 0.0
H1445 H 0.4971 0.22921 0.27715 0.0
H1446 H 0.58474 0.25394 0.29824 0.0
H1447 H 0.56555 0.26421 0.286 0.0
H1448 H 0.55873 0.21262 0.29357 0.0
H1449 H 0.5398 0.22289 0.28081 0.0
H1450 H 0.5879 0.24562 0.24378 0.0
H1451 H 0.56298 0.23996 0.25392 0.0
H1452 H 0.58086 0.29007 0.2453 0.0
H1453 H 0.55616 0.28447 0.25574 0.0
N1454 N 0.53159 0.2647 0.25694 0.0
N1455 N 0.52569 0.2482 0.27971 0.0
H1456 H 0.24266 0.1773 0.15613 0.0
H1457 H 0.20273 0.19282 0.14284 0.0
H1458 H 0.25571 0.18656 0.13456 0.0
H1459 H 0.21571 0.20199 0.1215 0.0
H1460 H 0.23851 0.20249 0.07676 0.0
H1461 H 0.22683 0.19208 0.09815 0.0
H1462 H 0.26395 0.21051 0.12465 0.0
H1463 H 0.2756 0.22125 0.10327 0.0
C1464 C 0.23667 0.18265 0.14863 0.0
C1465 C 0.22164 0.18429 0.15123 0.0
C1466 C 0.24415 0.18801 0.13633 0.0
C1467 C 0.23671 0.19493 0.1263 0.0
C1468 C 0.22171 0.19654 0.12891 0.0
C1469 C 0.21429 0.19134 0.14122 0.0
C1470 C 0.24417 0.20446 0.08715 0.0
C1471 C 0.25793 0.21289 0.08829 0.0
C1472 C 0.23748 0.19843 0.09941 0.0
C1473 C 0.24441 0.20056 0.11312 0.0
C1474 C 0.25839 0.20858 0.1142 0.0
C1475 C 0.26506 0.21472 0.10194 0.0
H1476 H 0.79958 0.20009 0.13755 0.0
H1477 H 0.83875 0.18836 0.11406 0.0
H1478 H 0.79029 0.2075 0.11509 0.0
H1479 H 0.82993 0.19652 0.09174 0.0
H1480 H 0.80448 0.20027 0.05053 0.0
H1481 H 0.81297 0.19161 0.07282 0.0
H1482 H 0.79334 0.22523 0.09902 0.0
H1483 H 0.78427 0.23327 0.07675 0.0
C1484 C 0.80628 0.19925 0.12759 0.0
C1485 C 0.81989 0.19365 0.12756 0.0
C1486 C 0.80101 0.20359 0.1147 0.0
C1487 C 0.80935 0.2027 0.1015 0.0
C1488 C 0.82303 0.19714 0.10155 0.0
C1489 C 0.82816 0.19255 0.1144 0.0
C1490 C 0.80198 0.20572 0.0611 0.0
C1491 C 0.79367 0.21736 0.06197 0.0
C1492 C 0.80691 0.20084 0.07389 0.0
C1493 C 0.80388 0.20769 0.08783 0.0
C1494 C 0.79563 0.21944 0.08858 0.0
C1495 C 0.79049 0.22413 0.07582 0.0
H1496 H 0.84638 0.79555 0.16367 0.0
H1497 H 0.85358 0.83218 0.13835 0.0
H1498 H 0.83797 0.78058 0.14158 0.0
H1499 H 0.84494 0.81733 0.11646 0.0
H1500 H 0.84014 0.78526 0.07687 0.0
H1501 H 0.85123 0.7981 0.09893 0.0
H1502 H 0.81659 0.7776 0.12553 0.0
H1503 H 0.80583 0.76429 0.10349 0.0
C1504 C 0.84624 0.8004 0.1534 0.0
C1505 C 0.85062 0.81508 0.1528 0.0
C1506 C 0.84134 0.79183 0.14077 0.0
C1507 C 0.84075 0.79776 0.12727 0.0
C1508 C 0.84544 0.81237 0.12663 0.0
C1509 C 0.85031 0.82092 0.13922 0.0
C1510 C 0.83503 0.78329 0.08744 0.0
C1511 C 0.82206 0.77378 0.08841 0.0
C1512 C 0.84131 0.79077 0.10008 0.0
C1513 C 0.83475 0.78895 0.11398 0.0
C1514 C 0.82199 0.77917 0.115 0.0
C1515 C 0.81572 0.77167 0.10235 0.0
H1516 H 0.22519 0.80091 0.16284 0.0
H1517 H 0.21479 0.83809 0.14286 0.0
H1518 H 0.23277 0.79033 0.13876 0.0
H1519 H 0.22254 0.82755 0.11887 0.0
H1520 H 0.2568 0.8111 0.08434 0.0
H1521 H 0.24785 0.82114 0.10812 0.0
H1522 H 0.22046 0.7815 0.11346 0.0
H1523 H 0.22935 0.77148 0.08957 0.0
C1524 C 0.22449 0.8068 0.15332 0.0
C1525 C 0.21942 0.82034 0.15473 0.0
C1526 C 0.22875 0.80072 0.13955 0.0
C1527 C 0.22826 0.80817 0.12701 0.0
C1528 C 0.22311 0.82165 0.12841 0.0
C1529 C 0.21862 0.82763 0.14211 0.0
C1530 C 0.24888 0.80455 0.09062 0.0
C1531 C 0.24375 0.79053 0.08518 0.0
C1532 C 0.2437 0.81031 0.10414 0.0
C1533 C 0.23347 0.80208 0.11257 0.0
C1534 C 0.22839 0.78803 0.10718 0.0
C1535 C 0.23339 0.78234 0.09352 0.0
H1536 H 0.24575 0.82063 0.88016 0.0
H1537 H 0.20211 0.82124 0.89971 0.0
H1538 H 0.25461 0.81271 0.90257 0.0
H1539 H 0.21075 0.81269 0.92192 0.0
H1540 H 0.23361 0.80948 0.96486 0.0
H1541 H 0.22539 0.81891 0.94289 0.0
H1542 H 0.25338 0.79265 0.91602 0.0
H1543 H 0.26194 0.78372 0.93806 0.0
C1544 C 0.23802 0.81897 0.88922 0.0
C1545 C 0.22323 0.82155 0.88816 0.0
C1546 C 0.24307 0.81434 0.90207 0.0
C1547 C 0.23341 0.81196 0.9141 0.0
C1548 C 0.2186 0.81461 0.91301 0.0
C1549 C 0.2136 0.81943 0.90023 0.0
C1550 C 0.23799 0.80578 0.95423 0.0
C1551 C 0.24844 0.79592 0.95315 0.0
C1552 C 0.23324 0.81111 0.94162 0.0
C1553 C 0.23869 0.80656 0.92761 0.0
C1554 C 0.24914 0.79665 0.92659 0.0
C1555 C 0.25402 0.79147 0.93922 0.0
H1556 H 0.18466 0.19284 0.91369 0.0
H1557 H 0.22347 0.18806 0.8862 0.0
H1558 H 0.20034 0.20229 0.9343 0.0
H1559 H 0.23918 0.19768 0.9069 0.0
H1560 H 0.26098 0.20094 0.95281 0.0
H1561 H 0.24611 0.19134 0.93153 0.0
H1562 H 0.21718 0.22417 0.94111 0.0
H1563 H 0.23208 0.23387 0.96223 0.0
C1564 C 0.19654 0.19379 0.91203 0.0
C1565 C 0.20281 0.18972 0.89827 0.0
C1566 C 0.20552 0.1993 0.92383 0.0
C1567 C 0.22098 0.20081 0.92219 0.0
C1568 C 0.22729 0.19655 0.90851 0.0
C1569 C 0.21829 0.1911 0.89665 0.0
C1570 C 0.25156 0.20622 0.95027 0.0
C1571 C 0.24766 0.21812 0.95929 0.0
C1572 C 0.24304 0.2007 0.93809 0.0
C1573 C 0.23042 0.20694 0.93473 0.0
C1574 C 0.22668 0.21897 0.94359 0.0
C1575 C 0.23522 0.22451 0.9557 0.0
H1576 H 0.80473 0.2541 0.85288 0.0
H1577 H 0.82477 0.21501 0.85342 0.0
H1578 H 0.79628 0.25218 0.87811 0.0
H1579 H 0.81534 0.21246 0.87833 0.0
H1580 H 0.81128 0.22219 0.92854 0.0
H1581 H 0.81916 0.2224 0.90288 0.0
H1582 H 0.77895 0.23943 0.89287 0.0
H1583 H 0.77165 0.24027 0.91859 0.0
C1584 C 0.80711 0.24493 0.85829 0.0
C1585 C 0.81511 0.23451 0.85095 0.0
C1586 C 0.80211 0.24374 0.87274 0.0
C1587 C 0.80491 0.23204 0.88025 0.0
C1588 C 0.81297 0.22162 0.87292 0.0
C1589 C 0.81811 0.22291 0.85847 0.0
C1590 C 0.80416 0.22606 0.92088 0.0
C1591 C 0.79086 0.2313 0.92573 0.0
C1592 C 0.80859 0.22599 0.90609 0.0
C1593 C 0.79976 0.23104 0.89577 0.0
C1594 C 0.78619 0.23573 0.90053 0.0
C1595 C 0.78186 0.23597 0.91531 0.0
H1596 H 0.87106 0.81031 0.90821 0.0
H1597 H 0.82823 0.81888 0.89439 0.0
H1598 H 0.85949 0.79833 0.92868 0.0
H1599 H 0.81658 0.80659 0.91485 0.0
H1600 H 0.8033 0.79554 0.96221 0.0
H1601 H 0.81412 0.80828 0.94173 0.0
H1602 H 0.84416 0.77635 0.93258 0.0
H1603 H 0.83339 0.76366 0.95299 0.0
C1604 C 0.85915 0.80964 0.90953 0.0
C1605 C 0.85057 0.81552 0.8996 0.0
C1606 C 0.8525 0.80267 0.92124 0.0
C1607 C 0.83708 0.80135 0.92335 0.0
C1608 C 0.82849 0.80749 0.91361 0.0
C1609 C 0.83517 0.81449 0.90184 0.0
C1610 C 0.81212 0.79117 0.95573 0.0
C1611 C 0.81754 0.77862 0.95931 0.0
C1612 C 0.81832 0.79848 0.94399 0.0
C1613 C 0.83009 0.79341 0.93556 0.0
C1614 C 0.83532 0.78074 0.93902 0.0
C1615 C 0.82914 0.77345 0.95073 0.0
H1616 H 0.13393 0.19869 0.17413 0.0
H1617 H 0.1465 0.19121 0.21778 0.0
H1618 H 0.11231 0.20911 0.18433 0.0
H1619 H 0.12486 0.20193 0.22805 0.0
H1620 H 0.07631 0.20977 0.23887 0.0
H1621 H 0.09772 0.19835 0.22924 0.0
H1622 H 0.10694 0.2307 0.19884 0.0
H1623 H 0.08563 0.24211 0.20845 0.0
C1624 C 0.13209 0.19925 0.18593 0.0
C1625 C 0.14201 0.19416 0.19514 0.0
C1626 C 0.11971 0.20533 0.19179 0.0
C1627 C 0.1169 0.20649 0.20703 0.0
C1628 C 0.12664 0.20111 0.21625 0.0
C1629 C 0.13907 0.19502 0.21037 0.0
C1630 C 0.08298 0.21451 0.23021 0.0
C1631 C 0.07918 0.22682 0.22438 0.0
C1632 C 0.09526 0.20796 0.22469 0.0
C1633 C 0.104 0.21355 0.2132 0.0
C1634 C 0.10028 0.22594 0.20749 0.0
C1635 C 0.08804 0.23248 0.213 0.0
H1636 H 0.81071 0.12992 0.19167 0.0
H1637 H 0.84773 0.10506 0.18681 0.0
H1638 H 0.79653 0.11091 0.20417 0.0
H1639 H 0.83368 0.08626 0.19945 0.0
H1640 H 0.80053 0.04965 0.21108 0.0
H1641 H 0.81241 0.06818 0.19656 0.0
H1642 H 0.79711 0.10052 0.2279 0.0
H1643 H 0.78472 0.08191 0.2422 0.0
C1644 C 0.81579 0.12038 0.19318 0.0
C1645 C 0.83036 0.11901 0.18827 0.0
C1646 C 0.8077 0.10954 0.20043 0.0
C1647 C 0.81399 0.0971 0.20284 0.0
C1648 C 0.82844 0.09563 0.19762 0.0
C1649 C 0.83653 0.10645 0.19044 0.0
C1650 C 0.79947 0.0607 0.21476 0.0
C1651 C 0.79167 0.0643 0.22781 0.0
C1652 C 0.80643 0.07133 0.20651 0.0
C1653 C 0.80577 0.08582 0.21111 0.0
C1654 C 0.79771 0.08944 0.224 0.0
C1655 C 0.79077 0.07879 0.23228 0.0
H1656 H 0.91574 0.82571 0.19825 0.0
H1657 H 0.89187 0.8137 0.2375 0.0
H1658 H 0.93764 0.81665 0.20674 0.0
H1659 H 0.91396 0.80535 0.24645 0.0
H1660 H 0.95055 0.77775 0.25159 0.0
H1661 H 0.92879 0.78691 0.2429 0.0
H1662 H 0.95693 0.82045 0.22343 0.0
H1663 H 0.97868 0.81072 0.23156 0.0
C1664 C 0.91525 0.82129 0.2088 0.0
C1665 C 0.90208 0.82035 0.21718 0.0
C1666 C 0.92785 0.81617 0.21374 0.0
C1667 C 0.92765 0.8102 0.22731 0.0
C1668 C 0.9145 0.80956 0.2358 0.0
C1669 C 0.90183 0.81445 0.23073 0.0
C1670 C 0.95202 0.78709 0.24546 0.0
C1671 C 0.96625 0.79355 0.24223 0.0
C1672 C 0.93955 0.79242 0.24055 0.0
C1673 C 0.94101 0.80451 0.23249 0.0
C1674 C 0.95532 0.811 0.22936 0.0
C1675 C 0.9678 0.80549 0.23407 0.0
H1676 H 0.25337 0.86853 0.23776 0.0
H1677 H 0.24116 0.88412 0.19731 0.0
H1678 H 0.26613 0.89207 0.24546 0.0
H1679 H 0.25399 0.90761 0.20504 0.0
H1680 H 0.28729 0.94611 0.22066 0.0
H1681 H 0.27946 0.92115 0.21184 0.0
H1682 H 0.25499 0.91542 0.25241 0.0
H1683 H 0.26274 0.94026 0.26114 0.0
C1684 C 0.25365 0.87688 0.23039 0.0
C1685 C 0.24611 0.87451 0.217 0.0
C1686 C 0.26089 0.89036 0.23484 0.0
C1687 C 0.26092 0.90166 0.22589 0.0
C1688 C 0.25419 0.89906 0.21211 0.0
C1689 C 0.24678 0.88563 0.20773 0.0
C1690 C 0.28035 0.93943 0.22769 0.0
C1691 C 0.2755 0.94507 0.24151 0.0
C1692 C 0.27585 0.92522 0.22265 0.0
C1693 C 0.26667 0.91638 0.23148 0.0
C1694 C 0.2622 0.92195 0.24546 0.0
C1695 C 0.2665 0.93618 0.25039 0.0
H1696 H 0.162 0.81666 0.80114 0.0
H1697 H 0.14061 0.8152 0.84388 0.0
H1698 H 0.13987 0.80385 0.78975 0.0
H1699 H 0.11837 0.80252 0.83241 0.0
H1700 H 0.08482 0.76977 0.80709 0.0
H1701 H 0.10804 0.77997 0.81862 0.0
H1702 H 0.115 0.81009 0.78569 0.0
H1703 H 0.09182 0.80006 0.77428 0.0
C1704 C 0.15262 0.81351 0.80813 0.0
C1705 C 0.15303 0.81706 0.82341 0.0
C1706 C 0.13991 0.80624 0.80158 0.0
C1707 C 0.12732 0.80231 0.81016 0.0
C1708 C 0.12792 0.80533 0.82551 0.0
C1709 C 0.14065 0.81264 0.83207 0.0
C1710 C 0.09127 0.77862 0.80236 0.0
C1711 C 0.08647 0.78408 0.78974 0.0
C1712 C 0.10458 0.78444 0.80896 0.0
C1713 C 0.11338 0.79578 0.80302 0.0
C1714 C 0.10861 0.80117 0.79037 0.0
C1715 C 0.09531 0.79541 0.78382 0.0
H1716 H 0.19717 0.12272 0.8528 0.0
H1717 H 0.20612 0.14144 0.81166 0.0
H1718 H 0.20827 0.10146 0.84276 0.0
H1719 H 0.21688 0.11998 0.80155 0.0
H1720 H 0.21774 0.07059 0.78704 0.0
H1721 H 0.20638 0.09176 0.79656 0.0
H1722 H 0.23619 0.0981 0.83305 0.0
H1723 H 0.24825 0.07751 0.8232 0.0
C1724 C 0.20139 0.12223 0.84158 0.0
C1725 C 0.20081 0.13373 0.83301 0.0
C1726 C 0.20777 0.11012 0.83589 0.0
C1727 C 0.21339 0.10915 0.82142 0.0
C1728 C 0.21254 0.12049 0.81272 0.0
C1729 C 0.20645 0.13275 0.81852 0.0
C1730 C 0.2221 0.07658 0.79695 0.0
C1731 C 0.23399 0.07224 0.8043 0.0
C1732 C 0.2155 0.08865 0.80243 0.0
C1733 C 0.22041 0.09645 0.81553 0.0
C1734 C 0.23212 0.09212 0.82299 0.0
C1735 C 0.23894 0.08025 0.81737 0.0
H1736 H 0.87583 0.22672 0.79942 0.0
H1737 H 0.88233 0.27285 0.80279 0.0
H1738 H 0.90241 0.22611 0.79621 0.0
H1739 H 0.90883 0.27224 0.79917 0.0
H1740 H 0.95698 0.26725 0.80447 0.0
H1741 H 0.93071 0.26662 0.81054 0.0
H1742 H 0.92128 0.2309 0.77785 0.0
H1743 H 0.94758 0.23109 0.7723 0.0
C1744 C 0.88293 0.23673 0.79945 0.0
C1745 C 0.87697 0.24983 0.80131 0.0
C1746 C 0.89816 0.23638 0.79755 0.0
C1747 C 0.90776 0.24912 0.7974 0.0
C1748 C 0.90179 0.26223 0.79944 0.0
C1749 C 0.88657 0.26258 0.80141 0.0
C1750 C 0.94933 0.25908 0.79879 0.0
C1751 C 0.95438 0.24925 0.78786 0.0
C1752 C 0.93425 0.25884 0.80214 0.0
C1753 C 0.92387 0.24878 0.7946 0.0
C1754 C 0.92897 0.23871 0.78396 0.0
C1755 C 0.94404 0.23893 0.78065 0.0
H1756 H 0.82309 0.88049 0.81177 0.0
H1757 H 0.86286 0.90653 0.82673 0.0
H1758 H 0.81407 0.90126 0.80279 0.0
H1759 H 0.85419 0.92723 0.81718 0.0
H1760 H 0.82799 0.96472 0.81229 0.0
H1761 H 0.83709 0.94395 0.82132 0.0
H1762 H 0.81698 0.91723 0.78457 0.0
H1763 H 0.80748 0.93794 0.77594 0.0
C1764 C 0.83 0.89063 0.81298 0.0
C1765 C 0.84369 0.89184 0.81999 0.0
C1766 C 0.82486 0.90257 0.80775 0.0
C1767 C 0.83336 0.91603 0.80921 0.0
C1768 C 0.84717 0.91715 0.81607 0.0
C1769 C 0.85222 0.90524 0.82146 0.0
C1770 C 0.82556 0.9544 0.80615 0.0
C1771 C 0.81696 0.95296 0.79345 0.0
C1772 C 0.83084 0.94247 0.81127 0.0
C1773 C 0.82781 0.92881 0.80372 0.0
C1774 C 0.81931 0.92746 0.7909 0.0
C1775 C 0.8139 0.93936 0.78589 0.0
H1776 H 0.22664 0.11247 0.19098 0.0
H1777 H 0.23281 0.13945 0.23165 0.0
H1778 H 0.23854 0.09396 0.20154 0.0
H1779 H 0.24449 0.12082 0.24225 0.0
H1780 H 0.24696 0.07611 0.25968 0.0
H1781 H 0.23578 0.09508 0.24908 0.0
H1782 H 0.26461 0.09111 0.21101 0.0
H1783 H 0.2759 0.07224 0.22169 0.0
C1784 C 0.23054 0.11445 0.20216 0.0
C1785 C 0.22879 0.12743 0.21048 0.0
C1786 C 0.2374 0.10388 0.20817 0.0
C1787 C 0.24241 0.10595 0.22272 0.0
C1788 C 0.24064 0.1189 0.23104 0.0
C1789 C 0.23403 0.12959 0.22495 0.0
C1790 C 0.25088 0.07929 0.24905 0.0
C1791 C 0.26228 0.07271 0.24151 0.0
C1792 C 0.24456 0.0902 0.24303 0.0
C1793 C 0.24933 0.09456 0.22922 0.0
C1794 C 0.26067 0.08791 0.22163 0.0
C1795 C 0.26717 0.07719 0.22778 0.0
H1796 H 0.23867 0.87839 0.83907 0.0
H1797 H 0.1957 0.89357 0.84416 0.0
H1798 H 0.24889 0.9012 0.83039 0.0
H1799 H 0.20596 0.91631 0.83556 0.0
H1800 H 0.22504 0.94461 0.79943 0.0
H1801 H 0.21543 0.92314 0.81099 0.0
H1802 H 0.25411 0.92759 0.83807 0.0
H1803 H 0.26385 0.94905 0.82633 0.0
C1804 C 0.23145 0.88664 0.83854 0.0
C1805 C 0.21634 0.8841 0.8422 0.0
C1806 C 0.23733 0.89972 0.83362 0.0
C1807 C 0.22818 0.91046 0.83216 0.0
C1808 C 0.21322 0.90813 0.83637 0.0
C1809 C 0.20737 0.89512 0.84138 0.0
C1810 C 0.23151 0.94097 0.80781 0.0
C1811 C 0.24521 0.94846 0.81194 0.0
C1812 C 0.22594 0.92878 0.81454 0.0
C1813 C 0.234 0.92373 0.82548 0.0
C1814 C 0.2477 0.93121 0.82964 0.0
C1815 C 0.25321 0.94353 0.82299 0.0
H1816 H 0.15257 0.21405 0.83022 0.0
H1817 H 0.12291 0.17683 0.83961 0.0
H1818 H 0.13358 0.22196 0.81573 0.0
H1819 H 0.10398 0.18459 0.82478 0.0
H1820 H 0.06875 0.21352 0.8146 0.0
H1821 H 0.08795 0.20337 0.82684 0.0
H1822 H 0.11961 0.2169 0.79342 0.0
H1823 H 0.10055 0.22763 0.78156 0.0
C1824 C 0.14206 0.20745 0.82903 0.0
C1825 C 0.13922 0.19486 0.83616 0.0
C1826 C 0.13119 0.21194 0.82063 0.0
C1827 C 0.11723 0.20394 0.81913 0.0
C1828 C 0.11454 0.19111 0.8259 0.0
C1829 C 0.12542 0.18662 0.83433 0.0
C1830 C 0.07982 0.21437 0.80989 0.0
C1831 C 0.08313 0.22148 0.79716 0.0
C1832 C 0.09079 0.20838 0.8168 0.0
C1833 C 0.10534 0.20934 0.81113 0.0
C1834 C 0.10856 0.21612 0.79817 0.0
C1835 C 0.09759 0.22213 0.79127 0.0
H1836 H 0.82902 0.15528 0.82291 0.0
H1837 H 0.78158 0.15389 0.82792 0.0
H1838 H 0.82638 0.12965 0.8158 0.0
H1839 H 0.77899 0.12824 0.82103 0.0
H1840 H 0.77995 0.08824 0.78846 0.0
H1841 H 0.78236 0.11316 0.79822 0.0
H1842 H 0.8189 0.10603 0.82471 0.0
H1843 H 0.81642 0.08093 0.81499 0.0
C1844 C 0.81804 0.14949 0.82266 0.0
C1845 C 0.8055 0.15666 0.82587 0.0
C1846 C 0.81654 0.13478 0.81866 0.0
C1847 C 0.80247 0.12693 0.81775 0.0
C1848 C 0.78997 0.13403 0.82141 0.0
C1849 C 0.79146 0.14873 0.82543 0.0
C1850 C 0.78835 0.0919 0.79655 0.0
C1851 C 0.79794 0.08255 0.80101 0.0
C1852 C 0.78973 0.1062 0.80214 0.0
C1853 C 0.80077 0.11156 0.8123 0.0
C1854 C 0.81037 0.10224 0.8168 0.0
C1855 C 0.80896 0.08788 0.81122 0.0
H1856 H 0.89402 0.838 0.80188 0.0
H1857 H 0.90536 0.82011 0.84135 0.0
H1858 H 0.91493 0.82803 0.78886 0.0
H1859 H 0.92604 0.81026 0.82842 0.0
H1860 H 0.9705 0.80718 0.80582 0.0
H1861 H 0.95029 0.81905 0.81741 0.0
H1862 H 0.92256 0.80348 0.78045 0.0
H1863 H 0.94271 0.79128 0.7689 0.0
C1864 C 0.90098 0.83201 0.80779 0.0
C1865 C 0.89799 0.82986 0.82266 0.0
C1866 C 0.91289 0.82625 0.80031 0.0
C1867 C 0.92217 0.81841 0.80763 0.0
C1868 C 0.91923 0.8164 0.82251 0.0
C1869 C 0.90729 0.82199 0.8299 0.0
C1870 C 0.96008 0.80618 0.80016 0.0
C1871 C 0.95822 0.79808 0.78649 0.0
C1872 C 0.94852 0.81305 0.80679 0.0
C1873 C 0.93479 0.81211 0.7999 0.0
C1874 C 0.93305 0.80449 0.78598 0.0
C1875 C 0.94461 0.79751 0.77936 0.0
H1876 H 0.82815 0.89724 0.18146 0.0
H1877 H 0.84661 0.88747 0.22192 0.0
H1878 H 0.81639 0.91642 0.19481 0.0
H1879 H 0.83493 0.90692 0.23531 0.0
H1880 H 0.79656 0.93196 0.25488 0.0
H1881 H 0.80986 0.91307 0.24259 0.0
H1882 H 0.82315 0.9399 0.2077 0.0
H1883 H 0.80994 0.9587 0.21993 0.0
C1884 C 0.82979 0.89924 0.1932 0.0
C1885 C 0.83834 0.89082 0.20062 0.0
C1886 C 0.8231 0.9103 0.20085 0.0
C1887 C 0.82477 0.91323 0.21611 0.0
C1888 C 0.83334 0.90484 0.22357 0.0
C1889 C 0.8401 0.89376 0.21588 0.0
C1890 C 0.80246 0.93385 0.24466 0.0
C1891 C 0.80204 0.94676 0.23828 0.0
C1892 C 0.81008 0.92305 0.23764 0.0
C1893 C 0.81744 0.92495 0.22411 0.0
C1894 C 0.81734 0.938 0.21796 0.0
C1895 C 0.80974 0.94876 0.22496 0.0
H1896 H 0.1778 0.80007 0.22348 0.0
H1897 H 0.16474 0.84266 0.23078 0.0
H1898 H 0.15264 0.79009 0.22936 0.0
H1899 H 0.13961 0.83268 0.23636 0.0
H1900 H 0.10171 0.81065 0.26273 0.0
H1901 H 0.12664 0.82036 0.25597 0.0
H1902 H 0.12736 0.78727 0.22012 0.0
H1903 H 0.10258 0.77722 0.22724 0.0
C1904 C 0.16955 0.80729 0.22622 0.0
C1905 C 0.17329 0.82216 0.22674 0.0
C1906 C 0.15512 0.80157 0.22952 0.0
C1907 C 0.14415 0.8106 0.2334 0.0
C1908 C 0.14786 0.82545 0.23365 0.0
C1909 C 0.16226 0.83116 0.23036 0.0
C1910 C 0.10723 0.80538 0.25347 0.0
C1911 C 0.10018 0.79315 0.24554 0.0
C1912 C 0.12145 0.81104 0.24949 0.0
C1913 C 0.12897 0.80461 0.23748 0.0
C1914 C 0.12191 0.7924 0.22951 0.0
C1915 C 0.10766 0.78674 0.23348 0.0
H1916 H 0.87476 0.21716 0.1853 0.0
H1917 H 0.89703 0.17904 0.18048 0.0
H1918 H 0.89742 0.23091 0.19488 0.0
H1919 H 0.91944 0.19268 0.1902 0.0
H1920 H 0.9612 0.2227 0.19693 0.0
H1921 H 0.93896 0.21132 0.18456 0.0
H1922 H 0.91203 0.23241 0.21745 0.0
H1923 H 0.93433 0.24423 0.22955 0.0
C1924 C 0.8845 0.21174 0.18617 0.0
C1925 C 0.88406 0.19699 0.18217 0.0
C1926 C 0.89744 0.2196 0.19174 0.0
C1927 C 0.91021 0.21288 0.19333 0.0
C1928 C 0.90986 0.19822 0.18895 0.0
C1929 C 0.89695 0.19038 0.18346 0.0
C1930 C 0.95055 0.22512 0.20138 0.0
C1931 C 0.94954 0.23434 0.21426 0.0
C1932 C 0.9378 0.21848 0.19437 0.0
C1933 C 0.92373 0.22089 0.20007 0.0
C1934 C 0.92271 0.23042 0.21272 0.0
C1935 C 0.93547 0.23705 0.21975 0.0
H1936 H 0.21702 0.70374 0.65559 0.0
H1937 H 0.22565 0.66089 0.6402 0.0
H1938 H 0.23052 0.71284 0.63437 0.0
H1939 H 0.23905 0.67007 0.6188 0.0
H1940 H 0.24303 0.69237 0.57437 0.0
H1941 H 0.23163 0.68217 0.59619 0.0
H1942 H 0.25715 0.71491 0.62398 0.0
H1943 H 0.26862 0.72505 0.60215 0.0
C1944 C 0.22182 0.69626 0.6477 0.0
C1945 C 0.22023 0.68158 0.64958 0.0
C1946 C 0.22963 0.7015 0.63559 0.0
C1947 C 0.23584 0.69217 0.62495 0.0
C1948 C 0.23431 0.67749 0.62682 0.0
C1949 C 0.22671 0.67226 0.63909 0.0
C1950 C 0.24625 0.69732 0.58515 0.0
C1951 C 0.25668 0.70952 0.58658 0.0
C1952 C 0.23981 0.69144 0.59762 0.0
C1953 C 0.24349 0.69777 0.61177 0.0
C1954 C 0.25406 0.70986 0.6132 0.0
C1955 C 0.26068 0.7156 0.60073 0.0
H1956 H 0.81732 0.68899 0.63315 0.0
H1957 H 0.81052 0.72848 0.65874 0.0
H1958 H 0.81065 0.69896 0.61095 0.0
H1959 H 0.80445 0.7387 0.63648 0.0
H1960 H 0.77961 0.74778 0.59641 0.0
H1961 H 0.78602 0.73772 0.61867 0.0
H1962 H 0.81909 0.71568 0.59409 0.0
H1963 H 0.81226 0.72541 0.57176 0.0
C1964 C 0.8145 0.69985 0.63402 0.0
C1965 C 0.81441 0.70793 0.64771 0.0
C1966 C 0.81077 0.70562 0.62126 0.0
C1967 C 0.80703 0.71968 0.62185 0.0
C1968 C 0.80702 0.72776 0.63559 0.0
C1969 C 0.81059 0.72193 0.64836 0.0
C1970 C 0.78831 0.74085 0.59582 0.0
C1971 C 0.79544 0.73737 0.58236 0.0
C1972 C 0.79203 0.7351 0.60859 0.0
C1973 C 0.8031 0.72586 0.60824 0.0
C1974 C 0.81033 0.72253 0.59476 0.0
C1975 C 0.80648 0.72815 0.58196 0.0
H1976 H 0.86089 0.30238 0.65717 0.0
H1977 H 0.85327 0.33995 0.63625 0.0
H1978 H 0.85248 0.28737 0.63511 0.0
H1979 H 0.84459 0.32499 0.61447 0.0
H1980 H 0.84099 0.29616 0.57264 0.0
H1981 H 0.85263 0.3097 0.59409 0.0
H1982 H 0.82957 0.27976 0.62213 0.0
H1983 H 0.81811 0.26609 0.60057 0.0
C1984 C 0.85748 0.30745 0.64786 0.0
C1985 C 0.85774 0.32237 0.64849 0.0
C1986 C 0.85258 0.29883 0.63526 0.0
C1987 C 0.84786 0.30497 0.62302 0.0
C1988 C 0.84836 0.31991 0.62359 0.0
C1989 C 0.85327 0.3285 0.63615 0.0
C1990 C 0.83845 0.29246 0.58339 0.0
C1991 C 0.82854 0.28015 0.58495 0.0
C1992 C 0.8451 0.30022 0.59568 0.0
C1993 C 0.84191 0.29591 0.60985 0.0
C1994 C 0.83238 0.2833 0.61136 0.0
C1995 C 0.82579 0.27548 0.59903 0.0
H1996 H 0.21507 0.32023 0.61895 0.0
H1997 H 0.22574 0.28499 0.64199 0.0
H1998 H 0.22461 0.30899 0.59605 0.0
H1999 H 0.2351 0.27367 0.61897 0.0
H2000 H 0.23222 0.25229 0.57018 0.0
H2001 H 0.22358 0.26314 0.59378 0.0
H2002 H 0.25034 0.30265 0.58642 0.0
H2003 H 0.25905 0.29178 0.5629 0.0
C2004 C 0.21941 0.31007 0.61912 0.0
C2005 C 0.21966 0.30349 0.63226 0.0
C2006 C 0.22493 0.30369 0.60604 0.0
C2007 C 0.2306 0.29049 0.60579 0.0
C2008 C 0.23072 0.28382 0.61888 0.0
C2009 C 0.22542 0.29032 0.63203 0.0
C2010 C 0.23627 0.26327 0.57366 0.0
C2011 C 0.24628 0.27122 0.56476 0.0
C2012 C 0.23141 0.26943 0.58716 0.0
C2013 C 0.23628 0.28372 0.59185 0.0
C2014 C 0.24636 0.29163 0.58299 0.0
C2015 C 0.2514 0.2854 0.56961 0.0
H2016 H 0.19848 0.31908 0.38928 0.0
H2017 H 0.24024 0.31436 0.36686 0.0
H2018 H 0.20669 0.30747 0.40996 0.0
H2019 H 0.24845 0.3029 0.38759 0.0
H2020 H 0.26262 0.29801 0.43501 0.0
H2021 H 0.2543 0.31007 0.41484 0.0
H2022 H 0.21321 0.2823 0.41381 0.0
H2023 H 0.22168 0.26979 0.43359 0.0
C2024 C 0.20943 0.31563 0.3888 0.0
C2025 C 0.21871 0.31762 0.37644 0.0
C2026 C 0.21408 0.30893 0.40059 0.0
C2027 C 0.2282 0.30431 0.40036 0.0
C2028 C 0.23755 0.30647 0.3881 0.0
C2029 C 0.23282 0.31296 0.37621 0.0
C2030 C 0.25188 0.29432 0.4304 0.0
C2031 C 0.24287 0.28284 0.43594 0.0
C2032 C 0.2471 0.30129 0.41889 0.0
C2033 C 0.23312 0.29711 0.41278 0.0
C2034 C 0.22398 0.28584 0.41844 0.0
C2035 C 0.22884 0.27872 0.42982 0.0
H2036 H 0.21102 0.6692 0.39661 0.0
H2037 H 0.21809 0.71246 0.38419 0.0
H2038 H 0.22554 0.67647 0.41862 0.0
H2039 H 0.23232 0.71977 0.40634 0.0
H2040 H 0.26743 0.72609 0.44134 0.0
H2041 H 0.25527 0.71734 0.41825 0.0
H2042 H 0.22279 0.69071 0.4418 0.0
H2043 H 0.23529 0.69901 0.46478 0.0
C2044 C 0.2157 0.68025 0.39854 0.0
C2045 C 0.21333 0.69026 0.38866 0.0
C2046 C 0.22395 0.68443 0.41121 0.0
C2047 C 0.23003 0.69871 0.41428 0.0
C2048 C 0.22794 0.70865 0.40422 0.0
C2049 C 0.2197 0.70447 0.39155 0.0
C2050 C 0.25783 0.71819 0.44155 0.0
C2051 C 0.2523 0.71327 0.4549 0.0
C2052 C 0.25077 0.7133 0.42834 0.0
C2053 C 0.23803 0.70337 0.42818 0.0
C2054 C 0.23267 0.69825 0.44151 0.0
C2055 C 0.23972 0.70314 0.45471 0.0
H2056 H 0.83105 0.73354 0.37309 0.0
H2057 H 0.83811 0.69475 0.39207 0.0
H2058 H 0.82352 0.74389 0.39731 0.0
H2059 H 0.83047 0.70508 0.4161 0.0
H2060 H 0.79401 0.7208 0.4481 0.0
H2061 H 0.80471 0.71188 0.4249 0.0
H2062 H 0.83397 0.75106 0.42402 0.0
H2063 H 0.82374 0.75989 0.44771 0.0
C2064 C 0.83115 0.72729 0.38243 0.0
C2065 C 0.83506 0.71328 0.38063 0.0
C2066 C 0.82691 0.73324 0.39627 0.0
C2067 C 0.82632 0.72521 0.40849 0.0
C2068 C 0.83071 0.71142 0.4068 0.0
C2069 C 0.83513 0.70555 0.39304 0.0
C2070 C 0.80293 0.72746 0.44319 0.0
C2071 C 0.80809 0.74104 0.44993 0.0
C2072 C 0.809 0.72235 0.42985 0.0
C2073 C 0.82021 0.73076 0.42276 0.0
C2074 C 0.82528 0.7444 0.42927 0.0
C2075 C 0.81936 0.74946 0.44279 0.0
H2076 H 0.82354 0.31506 0.3884 0.0
H2077 H 0.86743 0.31125 0.40319 0.0
H2078 H 0.81296 0.30357 0.40978 0.0
H2079 H 0.85691 0.30009 0.4246 0.0
H2080 H 0.83384 0.26586 0.45152 0.0
H2081 H 0.84353 0.27769 0.43018 0.0
H2082 H 0.81025 0.30679 0.43646 0.0
H2083 H 0.80015 0.29454 0.45751 0.0
C2084 C 0.83093 0.31191 0.39627 0.0
C2085 C 0.84633 0.31401 0.39402 0.0
C2086 C 0.82487 0.30536 0.40856 0.0
C2087 C 0.83408 0.30078 0.41886 0.0
C2088 C 0.84948 0.30321 0.41675 0.0
C2089 C 0.85552 0.30972 0.4045 0.0
C2090 C 0.82845 0.27465 0.44826 0.0
C2091 C 0.8162 0.27922 0.45626 0.0
C2092 C 0.83414 0.28158 0.43611 0.0
C2093 C 0.82775 0.29328 0.43164 0.0
C2094 C 0.81539 0.29776 0.43953 0.0
C2095 C 0.8097 0.29083 0.4517 0.0
H2096 H 0.13358 0.69838 0.67686 0.0
H2097 H 0.1471 0.68934 0.71966 0.0
H2098 H 0.11141 0.7072 0.6878 0.0
H2099 H 0.12464 0.69796 0.73062 0.0
H2100 H 0.09233 0.73107 0.74594 0.0
H2101 H 0.11393 0.72035 0.73584 0.0
H2102 H 0.08804 0.69961 0.69935 0.0
H2103 H 0.06645 0.71034 0.70944 0.0
C2104 C 0.13177 0.69815 0.68861 0.0
C2105 C 0.14217 0.69317 0.69738 0.0
C2106 C 0.11897 0.70314 0.69488 0.0
C2107 C 0.11619 0.70329 0.7101 0.0
C2108 C 0.12651 0.69815 0.71888 0.0
C2109 C 0.13934 0.69312 0.71259 0.0
C2110 C 0.09118 0.72406 0.73587 0.0
C2111 C 0.07765 0.72163 0.72848 0.0
C2112 C 0.10359 0.7179 0.73008 0.0
C2113 C 0.10277 0.70915 0.71674 0.0
C2114 C 0.08915 0.70649 0.70951 0.0
C2115 C 0.07676 0.71265 0.71529 0.0
H2116 H 0.84834 0.61966 0.68929 0.0
H2117 H 0.80749 0.63889 0.69328 0.0
H2118 H 0.83679 0.59942 0.7016 0.0
H2119 H 0.79582 0.61842 0.70546 0.0
H2120 H 0.7873 0.58825 0.74285 0.0
H2121 H 0.79747 0.60818 0.7291 0.0
H2122 H 0.8181 0.57893 0.69814 0.0
H2123 H 0.8084 0.55913 0.71214 0.0
C2124 C 0.83684 0.61951 0.69266 0.0
C2125 C 0.82885 0.63092 0.69033 0.0
C2126 C 0.83019 0.60785 0.69966 0.0
C2127 C 0.81538 0.60731 0.70453 0.0
C2128 C 0.8073 0.6186 0.70199 0.0
C2129 C 0.81395 0.63028 0.69492 0.0
C2130 C 0.79406 0.5861 0.73315 0.0
C2131 C 0.79708 0.5721 0.72863 0.0
C2132 C 0.79974 0.59749 0.72517 0.0
C2133 C 0.80861 0.59514 0.71253 0.0
C2134 C 0.81143 0.58112 0.70791 0.0
C2135 C 0.80574 0.56975 0.71586 0.0
H2136 H 0.89895 0.30692 0.72246 0.0
H2137 H 0.92678 0.34168 0.70485 0.0
H2138 H 0.9207 0.29774 0.73109 0.0
H2139 H 0.94857 0.33274 0.71391 0.0
H2140 H 0.98507 0.30387 0.71835 0.0
H2141 H 0.96354 0.31346 0.70958 0.0
H2142 H 0.93935 0.30283 0.74917 0.0
H2143 H 0.96049 0.29253 0.7575 0.0
C2144 C 0.90972 0.31268 0.72054 0.0
C2145 C 0.91113 0.32503 0.71297 0.0
C2146 C 0.9222 0.30746 0.72557 0.0
C2147 C 0.93642 0.31452 0.72325 0.0
C2148 C 0.93782 0.32692 0.71572 0.0
C2149 C 0.92532 0.3321 0.7106 0.0
C2150 C 0.97511 0.30348 0.72512 0.0
C2151 C 0.97454 0.29742 0.73863 0.0
C2152 C 0.96282 0.30914 0.72017 0.0
C2153 C 0.94968 0.3089 0.72865 0.0
C2154 C 0.9492 0.30302 0.74225 0.0
C2155 C 0.96143 0.2973 0.74714 0.0
H2156 H 0.23218 0.37044 0.67391 0.0
H2157 H 0.24641 0.35508 0.7137 0.0
H2158 H 0.24368 0.39443 0.68192 0.0
H2159 H 0.2578 0.3791 0.7217 0.0
H2160 H 0.25451 0.42682 0.73832 0.0
H2161 H 0.24607 0.40218 0.72926 0.0
H2162 H 0.26924 0.40835 0.68808 0.0
H2163 H 0.27775 0.43306 0.69719 0.0
C2164 C 0.23791 0.37214 0.68427 0.0
C2165 C 0.2383 0.36089 0.69322 0.0
C2166 C 0.24453 0.38586 0.68881 0.0
C2167 C 0.2515 0.3886 0.70247 0.0
C2168 C 0.25235 0.37727 0.71118 0.0
C2169 C 0.24591 0.36352 0.70656 0.0
C2170 C 0.25776 0.42291 0.72733 0.0
C2171 C 0.26671 0.43181 0.71841 0.0
C2172 C 0.25307 0.4088 0.72221 0.0
C2173 C 0.25707 0.40338 0.70801 0.0
C2174 C 0.26599 0.4123 0.69906 0.0
C2175 C 0.27088 0.42637 0.70428 0.0
H2176 H 0.13933 0.32166 0.33998 0.0
H2177 H 0.15991 0.32356 0.2969 0.0
H2178 H 0.11685 0.30914 0.32879 0.0
H2179 H 0.13755 0.31094 0.2858 0.0
H2180 H 0.08944 0.30653 0.27092 0.0
H2181 H 0.11245 0.31707 0.28234 0.0
H2182 H 0.10661 0.28649 0.31488 0.0
H2183 H 0.08357 0.27578 0.30333 0.0
C2184 C 0.13913 0.31926 0.32815 0.0
C2185 C 0.15137 0.32371 0.31932 0.0
C2186 C 0.12627 0.31205 0.32175 0.0
C2187 C 0.12538 0.30918 0.30641 0.0
C2188 C 0.1378 0.31321 0.29764 0.0
C2189 C 0.15065 0.32038 0.30402 0.0
C2190 C 0.09313 0.30191 0.28039 0.0
C2191 C 0.08468 0.29025 0.28616 0.0
C2192 C 0.10633 0.30797 0.28695 0.0
C2193 C 0.11139 0.30256 0.29946 0.0
C2194 C 0.10292 0.29097 0.30532 0.0
C2195 C 0.08972 0.28486 0.29872 0.0
H2196 H 0.19832 0.61624 0.34992 0.0
H2197 H 0.20458 0.63771 0.31011 0.0
H2198 H 0.21112 0.59664 0.33841 0.0
H2199 H 0.21708 0.61785 0.29851 0.0
H2200 H 0.22196 0.56913 0.28169 0.0
H2201 H 0.20907 0.58905 0.29211 0.0
H2202 H 0.23942 0.59647 0.32814 0.0
H2203 H 0.25294 0.5772 0.31742 0.0
C2204 C 0.20229 0.6167 0.33867 0.0
C2205 C 0.20048 0.6285 0.33091 0.0
C2206 C 0.20966 0.60553 0.33213 0.0
C2207 C 0.21507 0.60581 0.31762 0.0
C2208 C 0.21294 0.61741 0.3097 0.0
C2209 C 0.20585 0.62875 0.31635 0.0
C2210 C 0.22612 0.57514 0.29167 0.0
C2211 C 0.23853 0.57143 0.2987 0.0
C2212 C 0.21865 0.58649 0.29766 0.0
C2213 C 0.22323 0.59416 0.31094 0.0
C2214 C 0.23559 0.59056 0.31797 0.0
C2215 C 0.24325 0.57944 0.31184 0.0
H2216 H 0.87754 0.73377 0.30762 0.0
H2217 H 0.88962 0.69261 0.31641 0.0
H2218 H 0.90268 0.74068 0.2991 0.0
H2219 H 0.91466 0.69934 0.30745 0.0
H2220 H 0.96172 0.72208 0.30614 0.0
H2221 H 0.93653 0.71483 0.31427 0.0
H2222 H 0.91976 0.73605 0.2794 0.0
H2223 H 0.94494 0.74398 0.2718 0.0
C2224 C 0.88554 0.72615 0.30761 0.0
C2225 C 0.8816 0.71266 0.31272 0.0
C2226 C 0.89994 0.73008 0.30264 0.0
C2227 C 0.91071 0.72056 0.30257 0.0
C2228 C 0.90671 0.70701 0.30756 0.0
C2229 C 0.89233 0.70312 0.31262 0.0
C2230 C 0.95266 0.7253 0.30028 0.0
C2231 C 0.95537 0.73365 0.28834 0.0
C2232 C 0.9382 0.72099 0.30483 0.0
C2233 C 0.92609 0.72485 0.2975 0.0
C2234 C 0.92881 0.73303 0.28543 0.0
C2235 C 0.94326 0.73741 0.28093 0.0
H2236 H 0.8224 0.38047 0.31347 0.0
H2237 H 0.86456 0.40616 0.3195 0.0
H2238 H 0.81284 0.39992 0.30224 0.0
H2239 H 0.85498 0.42556 0.30816 0.0
H2240 H 0.83588 0.44947 0.27174 0.0
H2241 H 0.84595 0.43039 0.28305 0.0
H2242 H 0.80697 0.42505 0.31076 0.0
H2243 H 0.79709 0.44445 0.29995 0.0
C2244 C 0.82965 0.39024 0.31234 0.0
C2245 C 0.84424 0.39177 0.3174 0.0
C2246 C 0.82414 0.4014 0.30599 0.0
C2247 C 0.83315 0.41427 0.30435 0.0
C2248 C 0.84781 0.41573 0.30919 0.0
C2249 C 0.85326 0.40464 0.31574 0.0
C2250 C 0.82953 0.44443 0.28041 0.0
C2251 C 0.8156 0.44857 0.28485 0.0
C2252 C 0.83529 0.43343 0.28684 0.0
C2253 C 0.82721 0.42617 0.29773 0.0
C2254 C 0.81336 0.4303 0.30223 0.0
C2255 C 0.80767 0.44141 0.29596 0.0
H2256 H 0.24393 0.63149 0.70663 0.0
H2257 H 0.20501 0.60233 0.69545 0.0
H2258 H 0.25626 0.61179 0.71382 0.0
H2259 H 0.21697 0.58271 0.70337 0.0
H2260 H 0.24646 0.54767 0.70615 0.0
H2261 H 0.23485 0.56738 0.69782 0.0
H2262 H 0.25739 0.59616 0.73175 0.0
H2263 H 0.26948 0.57651 0.7395 0.0
C2264 C 0.23796 0.62087 0.70583 0.0
C2265 C 0.2235 0.61848 0.70044 0.0
C2266 C 0.245 0.60954 0.71007 0.0
C2267 C 0.23767 0.59555 0.70927 0.0
C2268 C 0.22314 0.59322 0.70391 0.0
C2269 C 0.21621 0.60451 0.69944 0.0
C2270 C 0.24891 0.55824 0.71178 0.0
C2271 C 0.25889 0.56056 0.72344 0.0
C2272 C 0.24219 0.56956 0.70708 0.0
C2273 C 0.24508 0.58348 0.71409 0.0
C2274 C 0.25506 0.58572 0.72583 0.0
C2275 C 0.26196 0.57444 0.73036 0.0
H2276 H 0.20139 0.39837 0.34169 0.0
H2277 H 0.24029 0.37702 0.33127 0.0
H2278 H 0.21412 0.42029 0.33346 0.0
H2279 H 0.25323 0.39914 0.32346 0.0
H2280 H 0.26275 0.43414 0.29155 0.0
H2281 H 0.25232 0.41295 0.30298 0.0
H2282 H 0.23325 0.43956 0.33774 0.0
H2283 H 0.24298 0.46073 0.32583 0.0
C2284 C 0.21277 0.39842 0.33792 0.0
C2285 C 0.21977 0.38589 0.33702 0.0
C2286 C 0.22012 0.41105 0.33325 0.0
C2287 C 0.23469 0.41148 0.32767 0.0
C2288 C 0.24192 0.39911 0.32742 0.0
C2289 C 0.23453 0.38645 0.332 0.0
C2290 C 0.25627 0.43548 0.30159 0.0
C2291 C 0.25359 0.44915 0.30767 0.0
C2292 C 0.25046 0.42331 0.30828 0.0
C2293 C 0.2419 0.42451 0.32129 0.0
C2294 C 0.23963 0.43822 0.32763 0.0
C2295 C 0.24537 0.45039 0.32089 0.0
H2296 H 0.14347 0.69095 0.32121 0.0
H2297 H 0.16193 0.73516 0.32823 0.0
H2298 H 0.12181 0.69824 0.31005 0.0
H2299 H 0.14045 0.74239 0.31691 0.0
H2300 H 0.09253 0.75099 0.31323 0.0
H2301 H 0.11435 0.74311 0.32331 0.0
H2302 H 0.1139 0.709 0.28839 0.0
H2303 H 0.09171 0.71663 0.27854 0.0
C2304 C 0.14298 0.7022 0.32026 0.0
C2305 C 0.15439 0.71248 0.3257 0.0
C2306 C 0.1306 0.70637 0.3138 0.0
C2307 C 0.12937 0.7209 0.3127 0.0
C2308 C 0.14095 0.73113 0.31783 0.0
C2309 C 0.15331 0.72697 0.32424 0.0
C2310 C 0.09698 0.74171 0.30778 0.0
C2311 C 0.09036 0.73441 0.29511 0.0
C2312 C 0.1096 0.7373 0.31346 0.0
C2313 C 0.1159 0.72547 0.3066 0.0
C2314 C 0.10924 0.7181 0.29397 0.0
C2315 C 0.09663 0.72255 0.28826 0.0
H2316 H 0.80138 0.64671 0.31549 0.0
H2317 H 0.84764 0.64052 0.31158 0.0
H2318 H 0.79486 0.62325 0.30253 0.0
H2319 H 0.84105 0.61694 0.29875 0.0
H2320 H 0.82329 0.57999 0.26503 0.0
H2321 H 0.8301 0.60441 0.2758 0.0
H2322 H 0.79559 0.59856 0.30877 0.0
H2323 H 0.7889 0.5742 0.29816 0.0
C2324 C 0.81017 0.6404 0.31178 0.0
C2325 C 0.82502 0.64544 0.31467 0.0
C2326 C 0.80642 0.62692 0.30443 0.0
C2327 C 0.81743 0.61819 0.29977 0.0
C2328 C 0.83233 0.62345 0.30214 0.0
C2329 C 0.83609 0.63694 0.30955 0.0
C2330 C 0.81725 0.58389 0.27465 0.0
C2331 C 0.80552 0.57515 0.28071 0.0
C2332 C 0.82112 0.59787 0.28078 0.0
C2333 C 0.81331 0.60343 0.29306 0.0
C2334 C 0.80163 0.59468 0.29913 0.0
C2335 C 0.7978 0.58071 0.29305 0.0
H2336 H 0.90386 0.34614 0.31051 0.0
H2337 H 0.88323 0.30408 0.31856 0.0
H2338 H 0.92438 0.33553 0.29778 0.0
H2339 H 0.90335 0.29345 0.3054 0.0
H2340 H 0.94925 0.27999 0.2982 0.0
H2341 H 0.9283 0.29087 0.30923 0.0
H2342 H 0.93265 0.32157 0.27675 0.0
H2343 H 0.9543 0.3112 0.26624 0.0
C2344 C 0.90358 0.33462 0.30934 0.0
C2345 C 0.89198 0.32597 0.31568 0.0
C2346 C 0.91533 0.32851 0.30199 0.0
C2347 C 0.91567 0.31361 0.30069 0.0
C2348 C 0.90371 0.30498 0.3065 0.0
C2349 C 0.89208 0.31107 0.31397 0.0
C2350 C 0.9459 0.28918 0.29349 0.0
C2351 C 0.95359 0.29474 0.28136 0.0
C2352 C 0.93368 0.2953 0.29969 0.0
C2353 C 0.92865 0.30708 0.29385 0.0
C2354 C 0.93626 0.3126 0.28164 0.0
C2355 C 0.94858 0.30652 0.27549 0.0
H2356 H 0.82197 0.3783 0.719 0.0
H2357 H 0.86232 0.40418 0.70806 0.0
H2358 H 0.81218 0.3994 0.73091 0.0
H2359 H 0.8526 0.42527 0.72023 0.0
H2360 H 0.82174 0.46093 0.72468 0.0
H2361 H 0.8333 0.43992 0.71513 0.0
H2362 H 0.81503 0.4175 0.75175 0.0
H2363 H 0.80302 0.43836 0.76103 0.0
C2364 C 0.82884 0.38846 0.71931 0.0
C2365 C 0.84288 0.38957 0.71248 0.0
C2366 C 0.82325 0.40055 0.72621 0.0
C2367 C 0.83157 0.41404 0.72644 0.0
C2368 C 0.84582 0.41507 0.72004 0.0
C2369 C 0.85143 0.40297 0.71315 0.0
C2370 C 0.82014 0.45149 0.73066 0.0
C2371 C 0.81139 0.45129 0.74357 0.0
C2372 C 0.82692 0.43952 0.72529 0.0
C2373 C 0.8251 0.42704 0.73269 0.0
C2374 C 0.81654 0.4269 0.74573 0.0
C2375 C 0.80978 0.4389 0.75112 0.0
H2376 H 0.17026 0.29097 0.69483 0.0
H2377 H 0.18457 0.29765 0.73993 0.0
H2378 H 0.14535 0.28273 0.70321 0.0
H2379 H 0.15975 0.28919 0.74825 0.0
H2380 H 0.11045 0.29292 0.75741 0.0
H2381 H 0.13588 0.2987 0.74916 0.0
H2382 H 0.13035 0.26363 0.71524 0.0
H2383 H 0.10485 0.25777 0.72356 0.0
C2384 C 0.16815 0.29049 0.70651 0.0
C2385 C 0.17937 0.29509 0.71672 0.0
C2386 C 0.15388 0.28571 0.7113 0.0
C2387 C 0.15055 0.28544 0.7264 0.0
C2388 C 0.16191 0.28952 0.73656 0.0
C2389 C 0.17616 0.29428 0.73178 0.0
C2390 C 0.1147 0.28632 0.74831 0.0
C2391 C 0.10562 0.27487 0.74116 0.0
C2392 C 0.12929 0.28963 0.74359 0.0
C2393 C 0.13515 0.28158 0.73159 0.0
C2394 C 0.1261 0.27011 0.72443 0.0
C2395 C 0.11149 0.26678 0.72918 0.0
H2396 H 0.86872 0.71439 0.71402 0.0
H2397 H 0.88947 0.69976 0.67322 0.0
H2398 H 0.89255 0.72524 0.72318 0.0
H2399 H 0.9133 0.71131 0.68204 0.0
H2400 H 0.95546 0.71771 0.70914 0.0
H2401 H 0.93164 0.70846 0.69848 0.0
H2402 H 0.91182 0.74347 0.72203 0.0
H2403 H 0.93556 0.75218 0.73322 0.0
C2404 C 0.87835 0.71375 0.70688 0.0
C2405 C 0.87722 0.70615 0.69293 0.0
C2406 C 0.89206 0.72006 0.71211 0.0
C2407 C 0.90497 0.71916 0.70341 0.0
C2408 C 0.9037 0.71198 0.68921 0.0
C2409 C 0.89001 0.70544 0.68408 0.0
C2410 C 0.94599 0.72343 0.71193 0.0
C2411 C 0.94727 0.73558 0.72204 0.0
C2412 C 0.93233 0.7182 0.70576 0.0
C2413 C 0.91969 0.72517 0.70938 0.0
C2414 C 0.92117 0.73761 0.71921 0.0
C2415 C 0.93478 0.74267 0.72557 0.0
H2416 H 0.74482 0.18221 0.65541 0.0
H2417 H 0.70384 0.18841 0.63548 0.0
H2418 H 0.75859 0.19151 0.63424 0.0
H2419 H 0.71756 0.1975 0.61441 0.0
H2420 H 0.74632 0.19837 0.57247 0.0
H2421 H 0.73384 0.18782 0.59356 0.0
H2422 H 0.7628 0.21584 0.62295 0.0
H2423 H 0.77531 0.22643 0.6018 0.0
C2424 C 0.73875 0.18547 0.6465 0.0
C2425 C 0.72323 0.18458 0.64714 0.0
C2426 C 0.74664 0.19085 0.63444 0.0
C2427 C 0.73913 0.19519 0.62268 0.0
C2428 C 0.72363 0.19411 0.62325 0.0
C2429 C 0.71579 0.18897 0.63537 0.0
C2430 C 0.75012 0.20217 0.58342 0.0
C2431 C 0.76177 0.21323 0.58549 0.0
C2432 C 0.74292 0.1962 0.59549 0.0
C2433 C 0.74734 0.20103 0.60989 0.0
C2434 C 0.75923 0.21185 0.61196 0.0
C2435 C 0.7663 0.21798 0.59989 0.0
H2436 H 0.32002 0.21613 0.62932 0.0
H2437 H 0.32701 0.17465 0.60813 0.0
H2438 H 0.3121 0.22318 0.60603 0.0
H2439 H 0.31904 0.18175 0.58481 0.0
H2440 H 0.28588 0.19518 0.55193 0.0
H2441 H 0.2952 0.18774 0.57453 0.0
H2442 H 0.32301 0.2279 0.58104 0.0
H2443 H 0.31361 0.23537 0.55851 0.0
C2444 C 0.3199 0.20853 0.61969 0.0
C2445 C 0.32413 0.19482 0.62058 0.0
C2446 C 0.31545 0.2126 0.60633 0.0
C2447 C 0.31497 0.20302 0.59361 0.0
C2448 C 0.3192 0.18932 0.59448 0.0
C2449 C 0.32383 0.18529 0.60781 0.0
C2450 C 0.29401 0.20238 0.55818 0.0
C2451 C 0.29902 0.21585 0.55347 0.0
C2452 C 0.29942 0.19809 0.57105 0.0
C2453 C 0.3098 0.20726 0.57956 0.0
C2454 C 0.31492 0.22066 0.57476 0.0
C2455 C 0.30965 0.22488 0.56181 0.0
H2456 H 0.34397 0.8412 0.63774 0.0
H2457 H 0.35117 0.80396 0.65943 0.0
H2458 H 0.33355 0.82586 0.61685 0.0
H2459 H 0.34049 0.78858 0.63851 0.0
H2460 H 0.33418 0.76678 0.59117 0.0
H2461 H 0.34532 0.78157 0.61225 0.0
H2462 H 0.31116 0.80954 0.61153 0.0
H2463 H 0.30034 0.79507 0.59022 0.0
C2464 C 0.34335 0.82973 0.63806 0.0
C2465 C 0.34837 0.82381 0.6503 0.0
C2466 C 0.33727 0.82094 0.62611 0.0
C2467 C 0.33607 0.80601 0.62608 0.0
C2468 C 0.34135 0.80005 0.63818 0.0
C2469 C 0.34741 0.80887 0.65018 0.0
C2470 C 0.3291 0.77613 0.59548 0.0
C2471 C 0.3164 0.77977 0.589 0.0
C2472 C 0.3354 0.78451 0.60764 0.0
C2473 C 0.32916 0.79676 0.61351 0.0
C2474 C 0.31635 0.80028 0.60714 0.0
C2475 C 0.31004 0.79189 0.59504 0.0
H2476 H 0.71261 0.79727 0.66122 0.0
H2477 H 0.7034 0.83366 0.63927 0.0
H2478 H 0.71983 0.78539 0.63776 0.0
H2479 H 0.71137 0.82223 0.61596 0.0
H2480 H 0.71663 0.79512 0.57373 0.0
H2481 H 0.7061 0.80431 0.59705 0.0
H2482 H 0.73904 0.78616 0.6204 0.0
H2483 H 0.74892 0.77638 0.59706 0.0
C2484 C 0.71219 0.80275 0.65137 0.0
C2485 C 0.70746 0.81639 0.65207 0.0
C2486 C 0.71642 0.79599 0.63792 0.0
C2487 C 0.71628 0.80284 0.62489 0.0
C2488 C 0.71137 0.81646 0.62565 0.0
C2489 C 0.70689 0.82309 0.63905 0.0
C2490 C 0.72146 0.79301 0.58391 0.0
C2491 C 0.73355 0.78508 0.58367 0.0
C2492 C 0.71553 0.79835 0.59727 0.0
C2493 C 0.72177 0.79612 0.61069 0.0
C2494 C 0.73374 0.78792 0.61037 0.0
C2495 C 0.73948 0.78236 0.597 0.0
H2496 H 0.72435 0.80119 0.37823 0.0
H2497 H 0.71224 0.83695 0.40706 0.0
H2498 H 0.7342 0.7912 0.3992 0.0
H2499 H 0.72232 0.82705 0.42793 0.0
H2500 H 0.75798 0.8118 0.45656 0.0
H2501 H 0.74853 0.82166 0.43546 0.0
H2502 H 0.72255 0.78139 0.42346 0.0
H2503 H 0.73134 0.77162 0.44496 0.0
C2504 C 0.72388 0.80695 0.38902 0.0
C2505 C 0.71752 0.81985 0.39101 0.0
C2506 C 0.72944 0.8012 0.401 0.0
C2507 C 0.729 0.80837 0.41514 0.0
C2508 C 0.72286 0.82136 0.41711 0.0
C2509 C 0.71705 0.82699 0.40518 0.0
C2510 C 0.75007 0.80506 0.44961 0.0
C2511 C 0.74538 0.79089 0.45261 0.0
C2512 C 0.74475 0.81071 0.43746 0.0
C2513 C 0.73482 0.80228 0.42787 0.0
C2514 C 0.73032 0.78807 0.43063 0.0
C2515 C 0.73544 0.78247 0.44292 0.0
H2516 H 0.6894 0.1823 0.41339 0.0
H2517 H 0.72647 0.18832 0.38317 0.0
H2518 H 0.70543 0.19132 0.43388 0.0
H2519 H 0.74254 0.1972 0.40377 0.0
H2520 H 0.76076 0.22899 0.44249 0.0
H2521 H 0.74577 0.21853 0.42161 0.0
H2522 H 0.72627 0.18507 0.44754 0.0
H2523 H 0.74096 0.19575 0.46854 0.0
C2524 C 0.70099 0.18545 0.41111 0.0
C2525 C 0.70663 0.18463 0.39662 0.0
C2526 C 0.7102 0.19054 0.42288 0.0
C2527 C 0.72525 0.19498 0.42044 0.0
C2528 C 0.73095 0.194 0.40598 0.0
C2529 C 0.72175 0.18884 0.39419 0.0
C2530 C 0.75324 0.21943 0.44373 0.0
C2531 C 0.75199 0.21323 0.45718 0.0
C2532 C 0.74477 0.21335 0.43173 0.0
C2533 C 0.73482 0.20098 0.43294 0.0
C2534 C 0.73374 0.19467 0.44632 0.0
C2535 C 0.74225 0.20071 0.45829 0.0
H2536 H 0.29425 0.23815 0.3398 0.0
H2537 H 0.33638 0.22685 0.35228 0.0
H2538 H 0.2843 0.23438 0.36433 0.0
H2539 H 0.32684 0.22384 0.3771 0.0
H2540 H 0.30366 0.21151 0.41915 0.0
H2541 H 0.31156 0.2111 0.39333 0.0
H2542 H 0.28563 0.2457 0.38778 0.0
H2543 H 0.27724 0.24543 0.41321 0.0
C2544 C 0.30136 0.23483 0.34784 0.0
C2545 C 0.31603 0.23271 0.34418 0.0
C2546 C 0.29573 0.23278 0.36195 0.0
C2547 C 0.30478 0.22896 0.37286 0.0
C2548 C 0.31941 0.22654 0.36901 0.0
C2549 C 0.32493 0.22829 0.35478 0.0
C2550 C 0.29959 0.21888 0.41228 0.0
C2551 C 0.28978 0.22842 0.41807 0.0
C2552 C 0.30417 0.21874 0.39752 0.0
C2553 C 0.29925 0.22835 0.38835 0.0
C2554 C 0.28939 0.23786 0.39428 0.0
C2555 C 0.28462 0.2378 0.40891 0.0
H2556 H 0.34031 0.82912 0.40646 0.0
H2557 H 0.33169 0.78731 0.38299 0.0
H2558 H 0.33023 0.8194 0.429 0.0
H2559 H 0.3219 0.77761 0.40545 0.0
H2560 H 0.29279 0.76692 0.44477 0.0
H2561 H 0.30113 0.77812 0.42259 0.0
H2562 H 0.33673 0.80326 0.44672 0.0
H2563 H 0.32806 0.79241 0.46907 0.0
C2564 C 0.33622 0.81789 0.40609 0.0
C2565 C 0.33683 0.809 0.39291 0.0
C2566 C 0.33054 0.81229 0.41902 0.0
C2567 C 0.32526 0.79772 0.41905 0.0
C2568 C 0.32568 0.78892 0.40581 0.0
C2569 C 0.33139 0.79448 0.39292 0.0
C2570 C 0.30228 0.77498 0.44541 0.0
C2571 C 0.30976 0.77875 0.45872 0.0
C2572 C 0.30716 0.7813 0.43264 0.0
C2573 C 0.31964 0.79156 0.43284 0.0
C2574 C 0.327 0.7955 0.4462 0.0
C2575 C 0.32213 0.78915 0.45898 0.0
H2576 H 0.62882 0.18855 0.67415 0.0
H2577 H 0.65169 0.19488 0.71548 0.0
H2578 H 0.60772 0.1988 0.68588 0.0
H2579 H 0.63038 0.20501 0.7273 0.0
H2580 H 0.59683 0.23813 0.73758 0.0
H2581 H 0.61784 0.22665 0.72701 0.0
H2582 H 0.58786 0.19403 0.70371 0.0
H2583 H 0.56692 0.20574 0.71387 0.0
C2584 C 0.62931 0.19201 0.68578 0.0
C2585 C 0.64198 0.19091 0.69386 0.0
C2586 C 0.61715 0.19783 0.69253 0.0
C2587 C 0.61734 0.20274 0.70754 0.0
C2588 C 0.62994 0.20147 0.71569 0.0
C2589 C 0.64211 0.19558 0.70893 0.0
C2590 C 0.59474 0.22854 0.73015 0.0
C2591 C 0.58018 0.22289 0.72654 0.0
C2592 C 0.60677 0.22187 0.72422 0.0
C2593 C 0.60455 0.20943 0.71449 0.0
C2594 C 0.58999 0.20368 0.71104 0.0
C2595 C 0.57796 0.21032 0.717 0.0
H2596 H 0.31668 0.11852 0.68037 0.0
H2597 H 0.32443 0.1445 0.7215 0.0
H2598 H 0.30562 0.0987 0.69379 0.0
H2599 H 0.31321 0.12478 0.73484 0.0
H2600 H 0.31175 0.08095 0.75306 0.0
H2601 H 0.32038 0.10158 0.73983 0.0
H2602 H 0.28442 0.09062 0.7095 0.0
H2603 H 0.27567 0.06998 0.72283 0.0
C2604 C 0.31585 0.12007 0.69225 0.0
C2605 C 0.32155 0.13305 0.69987 0.0
C2606 C 0.30946 0.10873 0.69993 0.0
C2607 C 0.30867 0.11013 0.71538 0.0
C2608 C 0.31389 0.12329 0.72295 0.0
C2609 C 0.32024 0.13462 0.71528 0.0
C2610 C 0.30555 0.08303 0.7437 0.0
C2611 C 0.29301 0.07381 0.73902 0.0
C2612 C 0.3105 0.09487 0.73611 0.0
C2613 C 0.30306 0.09776 0.72364 0.0
C2614 C 0.29048 0.08859 0.71897 0.0
C2615 C 0.2855 0.07675 0.7266 0.0
H2616 H 0.39434 0.81807 0.73155 0.0
H2617 H 0.42043 0.83137 0.69399 0.0
H2618 H 0.41543 0.80773 0.74042 0.0
H2619 H 0.44146 0.82094 0.70285 0.0
H2620 H 0.46822 0.78489 0.71521 0.0
H2621 H 0.44741 0.79581 0.70649 0.0
H2622 H 0.44128 0.81659 0.74998 0.0
H2623 H 0.46208 0.80564 0.7587 0.0
C2624 C 0.40457 0.81879 0.7252 0.0
C2625 C 0.40572 0.82552 0.71207 0.0
C2626 C 0.41665 0.81294 0.73032 0.0
C2627 C 0.43005 0.81353 0.72231 0.0
C2628 C 0.43121 0.82024 0.70917 0.0
C2629 C 0.4192 0.82626 0.70416 0.0
C2630 C 0.46239 0.79176 0.72289 0.0
C2631 C 0.46674 0.79442 0.73762 0.0
C2632 C 0.45057 0.79809 0.71789 0.0
C2633 C 0.44275 0.80704 0.72757 0.0
C2634 C 0.44707 0.80966 0.74231 0.0
C2635 C 0.45901 0.80349 0.74727 0.0
H2636 H 0.75768 0.8658 0.7106 0.0
H2637 H 0.72064 0.88651 0.69817 0.0
H2638 H 0.77225 0.88908 0.71506 0.0
H2639 H 0.73487 0.90961 0.70313 0.0
H2640 H 0.76434 0.95006 0.7054 0.0
H2641 H 0.75462 0.92593 0.69593 0.0
H2642 H 0.77309 0.90913 0.73292 0.0
H2643 H 0.78329 0.93323 0.74195 0.0
C2644 C 0.75267 0.8753 0.70875 0.0
C2645 C 0.73797 0.87429 0.7041 0.0
C2646 C 0.76099 0.88865 0.71138 0.0
C2647 C 0.75475 0.90127 0.7095 0.0
C2648 C 0.74018 0.90016 0.70444 0.0
C2649 C 0.73194 0.88686 0.70171 0.0
C2650 C 0.76651 0.94114 0.71132 0.0
C2651 C 0.77444 0.94346 0.72443 0.0
C2652 C 0.76088 0.92733 0.70597 0.0
C2653 C 0.76284 0.91557 0.71378 0.0
C2654 C 0.77148 0.91788 0.72651 0.0
C2655 C 0.77729 0.93168 0.73174 0.0
H2656 H 0.63426 0.81621 0.34859 0.0
H2657 H 0.65405 0.82025 0.30543 0.0
H2658 H 0.61262 0.80204 0.33746 0.0
H2659 H 0.63235 0.80645 0.29433 0.0
H2660 H 0.59593 0.77228 0.27877 0.0
H2661 H 0.61839 0.78315 0.29121 0.0
H2662 H 0.59204 0.80639 0.32295 0.0
H2663 H 0.56964 0.79543 0.31059 0.0
C2664 C 0.63404 0.81401 0.33675 0.0
C2665 C 0.64585 0.81943 0.3279 0.0
C2666 C 0.6216 0.80597 0.33036 0.0
C2667 C 0.6207 0.80318 0.31499 0.0
C2668 C 0.63273 0.80824 0.3062 0.0
C2669 C 0.64515 0.81625 0.31258 0.0
C2670 C 0.59496 0.77971 0.28841 0.0
C2671 C 0.58102 0.78304 0.29366 0.0
C2672 C 0.60782 0.78594 0.29554 0.0
C2673 C 0.60703 0.79568 0.30806 0.0
C2674 C 0.59305 0.79876 0.31348 0.0
C2675 C 0.5802 0.7925 0.30638 0.0
H2676 H 0.70742 0.13857 0.30892 0.0
H2677 H 0.70034 0.11976 0.35015 0.0
H2678 H 0.71721 0.11708 0.298 0.0
H2679 H 0.711 0.09863 0.33965 0.0
H2680 H 0.71873 0.05702 0.31388 0.0
H2681 H 0.70753 0.07807 0.32394 0.0
H2682 H 0.73731 0.10426 0.29707 0.0
H2683 H 0.74773 0.08296 0.28643 0.0
C2684 C 0.7081 0.12986 0.31568 0.0
C2685 C 0.70309 0.13081 0.33036 0.0
C2686 C 0.71383 0.11755 0.30947 0.0
C2687 C 0.715 0.10601 0.3179 0.0
C2688 C 0.71002 0.10708 0.33265 0.0
C2689 C 0.70399 0.11926 0.33875 0.0
C2690 C 0.72279 0.06731 0.31015 0.0
C2691 C 0.73404 0.06843 0.2994 0.0
C2692 C 0.71647 0.07943 0.31597 0.0
C2693 C 0.72149 0.093 0.31141 0.0
C2694 C 0.73288 0.09403 0.30067 0.0
C2695 C 0.73896 0.08186 0.29463 0.0
H2696 H 0.38165 0.27189 0.30479 0.0
H2697 H 0.37397 0.22632 0.29351 0.0
H2698 H 0.4082 0.27066 0.30375 0.0
H2699 H 0.40056 0.22503 0.29282 0.0
H2700 H 0.44835 0.23256 0.27436 0.0
H2701 H 0.42169 0.23215 0.27751 0.0
H2702 H 0.42809 0.26207 0.31613 0.0
H2703 H 0.45483 0.26256 0.31286 0.0
C2704 C 0.38562 0.26159 0.3022 0.0
C2705 C 0.3757 0.24922 0.29915 0.0
C2706 C 0.40086 0.26087 0.30172 0.0
C2707 C 0.40652 0.24774 0.29822 0.0
C2708 C 0.39657 0.23534 0.29537 0.0
C2709 C 0.38133 0.23606 0.29582 0.0
C2710 C 0.44406 0.23882 0.28369 0.0
C2711 C 0.45369 0.24761 0.29335 0.0
C2712 C 0.42877 0.2386 0.28549 0.0
C2713 C 0.42275 0.24714 0.29702 0.0
C2714 C 0.43238 0.25556 0.30698 0.0
C2715 C 0.44768 0.25581 0.30514 0.0
H2716 H 0.37203 0.91118 0.33165 0.0
H2717 H 0.3291 0.88739 0.32421 0.0
H2718 H 0.36351 0.93177 0.32171 0.0
H2719 H 0.32035 0.9081 0.31487 0.0
H2720 H 0.31229 0.94283 0.28624 0.0
H2721 H 0.32183 0.92221 0.295 0.0
H2722 H 0.34827 0.95016 0.32678 0.0
H2723 H 0.33904 0.97081 0.31757 0.0
C2724 C 0.36074 0.91037 0.32796 0.0
C2725 C 0.35126 0.89762 0.3287 0.0
C2726 C 0.3558 0.92223 0.32234 0.0
C2727 C 0.3412 0.9217 0.31746 0.0
C2728 C 0.33174 0.9089 0.31824 0.0
C2729 C 0.33673 0.89701 0.3237 0.0
C2730 C 0.32013 0.94454 0.29511 0.0
C2731 C 0.32487 0.95844 0.30126 0.0
C2732 C 0.32557 0.93271 0.3002 0.0
C2733 C 0.33579 0.93442 0.31171 0.0
C2734 C 0.34061 0.94837 0.31776 0.0
C2735 C 0.33528 0.96024 0.31254 0.0
H2736 H 0.72624 0.11371 0.68567 0.0
H2737 H 0.73185 0.13857 0.72765 0.0
H2738 H 0.73748 0.09432 0.69538 0.0
H2739 H 0.74281 0.11903 0.7374 0.0
H2740 H 0.74345 0.07264 0.75193 0.0
H2741 H 0.73296 0.09252 0.74225 0.0
H2742 H 0.76363 0.09099 0.70545 0.0
H2743 H 0.77428 0.07126 0.71527 0.0
C2744 C 0.72986 0.11503 0.69697 0.0
C2745 C 0.72817 0.12768 0.7059 0.0
C2746 C 0.73634 0.10396 0.70249 0.0
C2747 C 0.74098 0.10518 0.71714 0.0
C2748 C 0.73924 0.11779 0.72609 0.0
C2749 C 0.73304 0.12898 0.72049 0.0
C2750 C 0.74793 0.07657 0.74178 0.0
C2751 C 0.75966 0.07043 0.73434 0.0
C2752 C 0.742 0.08798 0.7363 0.0
C2753 C 0.74749 0.09327 0.7231 0.0
C2754 C 0.75915 0.08706 0.7156 0.0
C2755 C 0.76528 0.07585 0.72125 0.0
H2756 H 0.69209 0.89501 0.34666 0.0
H2757 H 0.73294 0.8761 0.33936 0.0
H2758 H 0.70333 0.91648 0.33622 0.0
H2759 H 0.74417 0.89772 0.32882 0.0
H2760 H 0.76178 0.94482 0.3216 0.0
H2761 H 0.75179 0.9243 0.33477 0.0
H2762 H 0.71127 0.9212 0.31062 0.0
H2763 H 0.72113 0.9417 0.29765 0.0
C2764 C 0.70352 0.89547 0.34297 0.0
C2765 C 0.71157 0.88375 0.34373 0.0
C2766 C 0.70993 0.90777 0.33692 0.0
C2767 C 0.72456 0.9087 0.33154 0.0
C2768 C 0.73287 0.8973 0.33292 0.0
C2769 C 0.72643 0.88491 0.33891 0.0
C2770 C 0.75071 0.93978 0.3192 0.0
C2771 C 0.74224 0.94483 0.30858 0.0
C2772 C 0.74505 0.928 0.32665 0.0
C2773 C 0.73074 0.9212 0.32377 0.0
C2774 C 0.72227 0.92632 0.3132 0.0
C2775 C 0.72797 0.93797 0.30567 0.0
H2776 H 0.62642 0.17743 0.33919 0.0
H2777 H 0.65216 0.21891 0.34251 0.0
H2778 H 0.60747 0.18704 0.3259 0.0
H2779 H 0.63336 0.2284 0.32907 0.0
H2780 H 0.58889 0.2441 0.32106 0.0
H2781 H 0.60804 0.23405 0.33348 0.0
H2782 H 0.60309 0.19658 0.30244 0.0
H2783 H 0.58394 0.20666 0.28993 0.0
C2784 C 0.6281 0.18856 0.33699 0.0
C2785 C 0.64077 0.19742 0.34197 0.0
C2786 C 0.61727 0.19404 0.32932 0.0
C2787 C 0.61887 0.2085 0.32651 0.0
C2788 C 0.63168 0.21727 0.33127 0.0
C2789 C 0.6425 0.2118 0.3389 0.0
C2790 C 0.59198 0.23378 0.31678 0.0
C2791 C 0.5849 0.22621 0.30447 0.0
C2792 C 0.60296 0.22802 0.32391 0.0
C2793 C 0.60713 0.21454 0.31891 0.0
C2794 C 0.60001 0.20691 0.30666 0.0
C2795 C 0.58903 0.21269 0.2995 0.0
H2796 H 0.34451 0.16036 0.32437 0.0
H2797 H 0.29795 0.16018 0.33485 0.0
H2798 H 0.34067 0.13464 0.31765 0.0
H2799 H 0.29419 0.1345 0.32831 0.0
H2800 H 0.29062 0.09464 0.29524 0.0
H2801 H 0.29484 0.11956 0.30482 0.0
H2802 H 0.33355 0.11101 0.32724 0.0
H2803 H 0.32922 0.08587 0.31777 0.0
C2804 C 0.3335 0.15482 0.32543 0.0
C2805 C 0.32151 0.16235 0.33 0.0
C2806 C 0.33132 0.14007 0.32165 0.0
C2807 C 0.3171 0.13258 0.32231 0.0
C2808 C 0.30523 0.14002 0.32744 0.0
C2809 C 0.30741 0.15473 0.33127 0.0
C2810 C 0.29991 0.09798 0.3024 0.0
C2811 C 0.30952 0.08821 0.30582 0.0
C2812 C 0.30233 0.11229 0.30789 0.0
C2813 C 0.31447 0.11724 0.31688 0.0
C2814 C 0.32415 0.10752 0.32026 0.0
C2815 C 0.32169 0.09314 0.31481 0.0
H2816 H 0.38401 0.8063 0.32477 0.0
H2817 H 0.40743 0.84745 0.31745 0.0
H2818 H 0.4029 0.79453 0.31078 0.0
H2819 H 0.42674 0.83565 0.30388 0.0
H2820 H 0.45448 0.8099 0.27137 0.0
H2821 H 0.43377 0.82152 0.28237 0.0
H2822 H 0.4274 0.79007 0.31405 0.0
H2823 H 0.44738 0.77803 0.30253 0.0
C2824 C 0.39321 0.81285 0.32015 0.0
C2825 C 0.39425 0.82782 0.32233 0.0
C2826 C 0.40413 0.80608 0.3122 0.0
C2827 C 0.41653 0.81409 0.30636 0.0
C2828 C 0.41732 0.82911 0.30809 0.0
C2829 C 0.40626 0.83589 0.31593 0.0
C2830 C 0.4485 0.80534 0.28053 0.0
C2831 C 0.45268 0.79302 0.28606 0.0
C2832 C 0.43673 0.81212 0.28697 0.0
C2833 C 0.42885 0.80677 0.29913 0.0
C2834 C 0.43301 0.79442 0.30458 0.0
C2835 C 0.44467 0.78761 0.29809 0.0
H2836 H 0.35781 0.9056 0.71024 0.0
H2837 H 0.31789 0.87919 0.72141 0.0
H2838 H 0.34838 0.92627 0.72364 0.0
H2839 H 0.30837 0.89987 0.7345 0.0
H2840 H 0.29934 0.93778 0.76597 0.0
H2841 H 0.31144 0.91729 0.75575 0.0
H2842 H 0.32904 0.94113 0.71986 0.0
H2843 H 0.31745 0.96176 0.73037 0.0
C2844 C 0.34708 0.90418 0.71564 0.0
C2845 C 0.33856 0.89076 0.71467 0.0
C2846 C 0.34164 0.91604 0.72324 0.0
C2847 C 0.32757 0.91475 0.73004 0.0
C2848 C 0.3193 0.90122 0.72952 0.0
C2849 C 0.32474 0.88937 0.72192 0.0
C2850 C 0.30599 0.93871 0.75603 0.0
C2851 C 0.30737 0.95138 0.74895 0.0
C2852 C 0.3128 0.92692 0.75009 0.0
C2853 C 0.32117 0.92755 0.73696 0.0
C2854 C 0.32281 0.94033 0.73007 0.0
C2855 C 0.316 0.95209 0.73599 0.0
H2856 H 0.66685 0.83843 0.73596 0.0
H2857 H 0.67631 0.79719 0.71604 0.0
H2858 H 0.64195 0.82834 0.74214 0.0
H2859 H 0.65143 0.78695 0.72261 0.0
H2860 H 0.60069 0.77801 0.72204 0.0
H2861 H 0.62597 0.78753 0.71605 0.0
H2862 H 0.6288 0.81242 0.75822 0.0
H2863 H 0.60349 0.80305 0.76407 0.0
C2864 C 0.66366 0.82717 0.73301 0.0
C2865 C 0.67356 0.81861 0.7255 0.0
C2866 C 0.64939 0.82136 0.73664 0.0
C2867 C 0.64469 0.80682 0.73291 0.0
C2868 C 0.65464 0.79823 0.72548 0.0
C2869 C 0.66892 0.80407 0.7218 0.0
C2870 C 0.60677 0.78545 0.73005 0.0
C2871 C 0.60009 0.78985 0.74349 0.0
C2872 C 0.62126 0.79087 0.72664 0.0
C2873 C 0.62941 0.80076 0.73664 0.0
C2874 C 0.62275 0.80503 0.75015 0.0
C2875 C 0.60825 0.79966 0.75352 0.0
H2876 H 0.39497 0.17288 0.681 0.0
H2877 H 0.38094 0.21418 0.67576 0.0
H2878 H 0.41779 0.18448 0.69201 0.0
H2879 H 0.40382 0.22578 0.68696 0.0
H2880 H 0.45324 0.24048 0.69674 0.0
H2881 H 0.43127 0.22934 0.68355 0.0
H2882 H 0.42365 0.19849 0.71569 0.0
H2883 H 0.44539 0.20967 0.72897 0.0
C2884 C 0.39679 0.18443 0.68208 0.0
C2885 C 0.38605 0.19259 0.6776 0.0
C2886 C 0.40984 0.19108 0.68848 0.0
C2887 C 0.41251 0.20603 0.69053 0.0
C2888 C 0.40209 0.21423 0.68548 0.0
C2889 C 0.38897 0.20757 0.6791 0.0
C2890 C 0.44679 0.2314 0.70107 0.0
C2891 C 0.45113 0.22593 0.71389 0.0
C2892 C 0.43423 0.22501 0.69349 0.0
C2893 C 0.42581 0.21297 0.69851 0.0
C2894 C 0.43009 0.20758 0.71137 0.0
C2895 C 0.44256 0.21399 0.71898 0.0
H2896 H 0.72141 0.66012 0.13547 0.0
H2897 H 0.71689 0.70322 0.15364 0.0
H2898 H 0.73561 0.66949 0.11465 0.0
H2899 H 0.73121 0.71252 0.13294 0.0
H2900 H 0.7696 0.72324 0.10029 0.0
H2901 H 0.75752 0.71298 0.1218 0.0
H2902 H 0.72909 0.68351 0.09323 0.0
H2903 H 0.7411 0.69382 0.07175 0.0
C2904 C 0.72358 0.67158 0.13511 0.0
C2905 C 0.71798 0.68092 0.14619 0.0
C2906 C 0.73164 0.67693 0.12316 0.0
C2907 C 0.73449 0.69173 0.12218 0.0
C2908 C 0.72927 0.70107 0.13346 0.0
C2909 C 0.72101 0.69573 0.14528 0.0
C2910 C 0.76086 0.71449 0.09863 0.0
C2911 C 0.75625 0.70935 0.08437 0.0
C2912 C 0.7539 0.70868 0.11092 0.0
C2913 C 0.74237 0.69745 0.10917 0.0
C2914 C 0.73802 0.69208 0.09489 0.0
C2915 C 0.74481 0.69804 0.08262 0.0
H2916 H 0.32155 0.68162 0.12441 0.0
H2917 H 0.30856 0.71737 0.15265 0.0
H2918 H 0.31381 0.69224 0.103 0.0
H2919 H 0.30134 0.72827 0.13125 0.0
H2920 H 0.27597 0.73728 0.0918 0.0
H2921 H 0.28311 0.72596 0.11291 0.0
H2922 H 0.32036 0.71134 0.08806 0.0
H2923 H 0.31266 0.72188 0.06664 0.0
C2924 C 0.31712 0.69179 0.12604 0.0
C2925 C 0.31564 0.69863 0.14023 0.0
C2926 C 0.31277 0.69794 0.11374 0.0
C2927 C 0.30695 0.71114 0.11535 0.0
C2928 C 0.30553 0.71799 0.12958 0.0
C2929 C 0.30976 0.71178 0.14187 0.0
C2930 C 0.28556 0.73147 0.09074 0.0
C2931 C 0.29369 0.73048 0.07745 0.0
C2932 C 0.28979 0.72515 0.10295 0.0
C2933 C 0.30236 0.71776 0.10226 0.0
C2934 C 0.31052 0.71679 0.08898 0.0
C2935 C 0.30622 0.72303 0.07673 0.0
H2936 H 0.35804 0.30247 0.15922 0.0
H2937 H 0.35579 0.34046 0.1369 0.0
H2938 H 0.34779 0.28779 0.13769 0.0
H2939 H 0.34576 0.32577 0.11538 0.0
H2940 H 0.31008 0.29705 0.08894 0.0
H2941 H 0.32215 0.31126 0.10975 0.0
H2942 H 0.35299 0.28011 0.11152 0.0
H2943 H 0.34061 0.26563 0.09086 0.0
C2944 C 0.35552 0.30768 0.14968 0.0
C2945 C 0.35763 0.32265 0.14984 0.0
C2946 C 0.34971 0.29926 0.13732 0.0
C2947 C 0.34584 0.30563 0.1249 0.0
C2948 C 0.3484 0.32056 0.12489 0.0
C2949 C 0.35424 0.32897 0.1372 0.0
C2950 C 0.31935 0.29316 0.09385 0.0
C2951 C 0.32435 0.28018 0.0883 0.0
C2952 C 0.32638 0.30139 0.10565 0.0
C2953 C 0.33857 0.29685 0.11223 0.0
C2954 C 0.34357 0.28385 0.10673 0.0
C2955 C 0.33657 0.27563 0.09484 0.0
H2956 H 0.75001 0.29433 0.15225 0.0
H2957 H 0.70686 0.30026 0.13702 0.0
H2958 H 0.75759 0.28718 0.12716 0.0
H2959 H 0.71422 0.29257 0.11198 0.0
H2960 H 0.73693 0.29254 0.06691 0.0
H2961 H 0.72955 0.30008 0.09204 0.0
H2962 H 0.75395 0.26833 0.10818 0.0
H2963 H 0.76163 0.26114 0.08309 0.0
C2964 C 0.74209 0.29397 0.14355 0.0
C2965 C 0.72784 0.29787 0.14662 0.0
C2966 C 0.74641 0.28979 0.12916 0.0
C2967 C 0.73652 0.28927 0.1175 0.0
C2968 C 0.72221 0.29307 0.12062 0.0
C2969 C 0.71795 0.29738 0.135 0.0
C2970 C 0.74067 0.28719 0.07586 0.0
C2971 C 0.74989 0.2763 0.07308 0.0
C2972 C 0.7364 0.29145 0.09025 0.0
C2973 C 0.74113 0.28481 0.10217 0.0
C2974 C 0.75031 0.27387 0.09932 0.0
C2975 C 0.75469 0.26972 0.08495 0.0
H2976 H 0.74875 0.3152 0.86969 0.0
H2977 H 0.70537 0.31901 0.88891 0.0
H2978 H 0.75596 0.30496 0.8916 0.0
H2979 H 0.71262 0.30874 0.91083 0.0
H2980 H 0.72669 0.2733 0.93792 0.0
H2981 H 0.71919 0.28474 0.91693 0.0
H2982 H 0.76027 0.31256 0.91851 0.0
H2983 H 0.76765 0.30145 0.93976 0.0
C2984 C 0.74077 0.3139 0.8786 0.0
C2985 C 0.72648 0.31791 0.87756 0.0
C2986 C 0.74493 0.3081 0.89118 0.0
C2987 C 0.73485 0.30605 0.90291 0.0
C2988 C 0.72058 0.31009 0.9019 0.0
C2989 C 0.71646 0.31604 0.88939 0.0
C2990 C 0.73404 0.28201 0.93398 0.0
C2991 C 0.7478 0.28641 0.94056 0.0
C2992 C 0.72974 0.28853 0.92191 0.0
C2993 C 0.73917 0.29951 0.91606 0.0
C2994 C 0.75287 0.30399 0.92267 0.0
C2995 C 0.75711 0.29758 0.93482 0.0
H2996 H 0.70989 0.66993 0.89735 0.0
H2997 H 0.7163 0.71289 0.88402 0.0
H2998 H 0.72488 0.6777 0.91896 0.0
H2999 H 0.73109 0.72066 0.90575 0.0
H3000 H 0.76753 0.72713 0.93979 0.0
H3001 H 0.75466 0.71812 0.91711 0.0
H3002 H 0.72226 0.69272 0.94199 0.0
H3003 H 0.73536 0.70138 0.96456 0.0
C3004 C 0.71454 0.68102 0.89898 0.0
C3005 C 0.71183 0.6908 0.88898 0.0
C3006 C 0.72306 0.68547 0.91142 0.0
C3007 C 0.72911 0.6998 0.91411 0.0
C3008 C 0.72671 0.70951 0.90392 0.0
C3009 C 0.71816 0.70507 0.8915 0.0
C3010 C 0.75777 0.71948 0.94038 0.0
C3011 C 0.75244 0.715 0.95397 0.0
C3012 C 0.75032 0.71443 0.92741 0.0
C3013 C 0.73742 0.70474 0.92775 0.0
C3014 C 0.73224 0.70008 0.94132 0.0
C3015 C 0.73965 0.70516 0.95428 0.0
H3016 H 0.35283 0.70929 0.89303 0.0
H3017 H 0.3141 0.71477 0.8688 0.0
H3018 H 0.34238 0.72123 0.91508 0.0
H3019 H 0.30361 0.72656 0.89096 0.0
H3020 H 0.28388 0.72441 0.93906 0.0
H3021 H 0.29483 0.71631 0.91561 0.0
H3022 H 0.33394 0.74581 0.92484 0.0
H3023 H 0.32279 0.75447 0.94806 0.0
C3024 C 0.34218 0.7132 0.89237 0.0
C3025 C 0.33425 0.71103 0.87921 0.0
C3026 C 0.33624 0.72008 0.90497 0.0
C3027 C 0.32217 0.72471 0.9047 0.0
C3028 C 0.31444 0.72297 0.89144 0.0
C3029 C 0.32049 0.71631 0.87877 0.0
C3030 C 0.29467 0.72943 0.93601 0.0
C3031 C 0.30243 0.7401 0.94554 0.0
C3032 C 0.30095 0.72474 0.92258 0.0
C3033 C 0.3152 0.73046 0.91845 0.0
C3034 C 0.32296 0.74117 0.92785 0.0
C3035 C 0.3166 0.74603 0.94119 0.0
H3036 H 0.32233 0.31271 0.89047 0.0
H3037 H 0.36538 0.30293 0.90227 0.0
H3038 H 0.31183 0.30359 0.91315 0.0
H3039 H 0.3549 0.29364 0.92466 0.0
H3040 H 0.33468 0.29006 0.97017 0.0
H3041 H 0.34434 0.30106 0.94828 0.0
H3042 H 0.30635 0.28084 0.92398 0.0
H3043 H 0.29666 0.26983 0.94591 0.0
C3044 C 0.32956 0.30866 0.8979 0.0
C3045 C 0.3447 0.30855 0.89453 0.0
C3046 C 0.32353 0.30335 0.91085 0.0
C3047 C 0.33252 0.29787 0.92075 0.0
C3048 C 0.34768 0.29795 0.91742 0.0
C3049 C 0.35368 0.30321 0.9045 0.0
C3050 C 0.32841 0.2879 0.96015 0.0
C3051 C 0.31494 0.27898 0.95979 0.0
C3052 C 0.33395 0.29422 0.94759 0.0
C3053 C 0.32616 0.29179 0.93433 0.0
C3054 C 0.31254 0.2831 0.93404 0.0
C3055 C 0.307 0.27677 0.94662 0.0
H3056 H 0.63178 0.7007 0.1732 0.0
H3057 H 0.64429 0.68946 0.21552 0.0
H3058 H 0.6101 0.71028 0.1844 0.0
H3059 H 0.6226 0.69933 0.22684 0.0
H3060 H 0.57396 0.70624 0.23864 0.0
H3061 H 0.59547 0.69565 0.22795 0.0
H3062 H 0.60459 0.73068 0.20073 0.0
H3063 H 0.58319 0.74125 0.21138 0.0
C3064 C 0.62991 0.70026 0.18491 0.0
C3065 C 0.63984 0.69435 0.19346 0.0
C3066 C 0.6175 0.70585 0.19136 0.0
C3067 C 0.61466 0.70571 0.20655 0.0
C3068 C 0.6244 0.69953 0.21509 0.0
C3069 C 0.63687 0.69392 0.20861 0.0
C3070 C 0.58063 0.71174 0.23046 0.0
C3071 C 0.57676 0.72456 0.22581 0.0
C3072 C 0.59297 0.70566 0.22433 0.0
C3073 C 0.60171 0.71225 0.2134 0.0
C3074 C 0.59793 0.72515 0.2089 0.0
C3075 C 0.58564 0.73122 0.21501 0.0
H3076 H 0.32856 0.64442 0.21677 0.0
H3077 H 0.31957 0.62132 0.17431 0.0
H3078 H 0.31783 0.62371 0.22881 0.0
H3079 H 0.30853 0.60059 0.18643 0.0
H3080 H 0.30865 0.56181 0.21388 0.0
H3081 H 0.31695 0.5827 0.20085 0.0
H3082 H 0.2947 0.60919 0.23331 0.0
H3083 H 0.28641 0.58828 0.24636 0.0
C3084 C 0.32415 0.63497 0.20999 0.0
C3085 C 0.325 0.63451 0.19457 0.0
C3086 C 0.3179 0.62311 0.21691 0.0
C3087 C 0.31234 0.61048 0.20859 0.0
C3088 C 0.31288 0.61011 0.19315 0.0
C3089 C 0.31913 0.62201 0.18621 0.0
C3090 C 0.30536 0.57206 0.21813 0.0
C3091 C 0.29692 0.57339 0.2312 0.0
C3092 C 0.3101 0.58403 0.21065 0.0
C3093 C 0.30652 0.59762 0.21605 0.0
C3094 C 0.29785 0.59891 0.22897 0.0
C3095 C 0.29311 0.58693 0.23646 0.0
H3096 H 0.39647 0.30182 0.21961 0.0
H3097 H 0.4255 0.33955 0.21066 0.0
H3098 H 0.41738 0.29099 0.22776 0.0
H3099 H 0.4464 0.32903 0.21949 0.0
H3100 H 0.48302 0.30023 0.22194 0.0
H3101 H 0.46225 0.31133 0.21358 0.0
H3102 H 0.43414 0.29186 0.24685 0.0
H3103 H 0.45478 0.28035 0.25467 0.0
C3104 C 0.40732 0.30787 0.21956 0.0
C3105 C 0.40934 0.32153 0.21449 0.0
C3106 C 0.41933 0.3017 0.22433 0.0
C3107 C 0.43365 0.30912 0.22436 0.0
C3108 C 0.43561 0.32287 0.2194 0.0
C3109 C 0.42361 0.32896 0.21443 0.0
C3110 C 0.47238 0.29838 0.22743 0.0
C3111 C 0.47045 0.28937 0.23886 0.0
C3112 C 0.46048 0.30479 0.22272 0.0
C3113 C 0.44643 0.30249 0.22949 0.0
C3114 C 0.44465 0.29364 0.24112 0.0
C3115 C 0.45649 0.28708 0.24567 0.0
H3116 H 0.74669 0.3544 0.23317 0.0
H3117 H 0.73722 0.36114 0.18839 0.0
H3118 H 0.75555 0.3797 0.23794 0.0
H3119 H 0.74609 0.38646 0.19323 0.0
H3120 H 0.77619 0.42875 0.20522 0.0
H3121 H 0.76945 0.40302 0.19974 0.0
H3122 H 0.74283 0.40208 0.23956 0.0
H3123 H 0.74965 0.42769 0.24507 0.0
C3124 C 0.74664 0.36123 0.2243 0.0
C3125 C 0.74117 0.35577 0.21042 0.0
C3126 C 0.75163 0.37573 0.22707 0.0
C3127 C 0.7514 0.38504 0.21599 0.0
C3128 C 0.74646 0.3795 0.20195 0.0
C3129 C 0.74132 0.36502 0.19921 0.0
C3130 C 0.76893 0.423 0.21279 0.0
C3131 C 0.76338 0.43019 0.22553 0.0
C3132 C 0.76503 0.40833 0.20963 0.0
C3133 C 0.75567 0.40057 0.21926 0.0
C3134 C 0.75019 0.40777 0.23202 0.0
C3135 C 0.75395 0.42244 0.23509 0.0
H3136 H 0.63608 0.34666 0.81673 0.0
H3137 H 0.65208 0.30781 0.82774 0.0
H3138 H 0.61405 0.33291 0.80634 0.0
H3139 H 0.62973 0.29398 0.81753 0.0
H3140 H 0.5963 0.27456 0.7812 0.0
H3141 H 0.61814 0.2871 0.79359 0.0
H3142 H 0.59164 0.31888 0.81366 0.0
H3143 H 0.56991 0.30643 0.80121 0.0
C3144 C 0.63485 0.33518 0.81705 0.0
C3145 C 0.64586 0.32834 0.82306 0.0
C3146 C 0.62214 0.32729 0.81117 0.0
C3147 C 0.62009 0.31234 0.81116 0.0
C3148 C 0.63105 0.30547 0.81725 0.0
C3149 C 0.6438 0.31339 0.82317 0.0
C3150 C 0.59513 0.28413 0.78841 0.0
C3151 C 0.58143 0.2896 0.79011 0.0
C3152 C 0.60763 0.2913 0.79553 0.0
C3153 C 0.60666 0.30406 0.80451 0.0
C3154 C 0.59283 0.30924 0.80657 0.0
C3155 C 0.58038 0.30211 0.79944 0.0
H3156 H 0.7026 0.63773 0.81041 0.0
H3157 H 0.69693 0.6158 0.84991 0.0
H3158 H 0.71415 0.61778 0.79809 0.0
H3159 H 0.70922 0.59627 0.83801 0.0
H3160 H 0.72067 0.55737 0.81021 0.0
H3161 H 0.70714 0.5767 0.8208 0.0
H3162 H 0.73562 0.6066 0.79668 0.0
H3163 H 0.74848 0.58697 0.78549 0.0
C3164 C 0.70392 0.62867 0.81648 0.0
C3165 C 0.69883 0.6283 0.8311 0.0
C3166 C 0.71065 0.61726 0.80946 0.0
C3167 C 0.71269 0.60533 0.817 0.0
C3168 C 0.70759 0.60506 0.83168 0.0
C3169 C 0.70061 0.61633 0.83857 0.0
C3170 C 0.72392 0.56809 0.80716 0.0
C3171 C 0.73559 0.57075 0.7971 0.0
C3172 C 0.71626 0.57922 0.8133 0.0
C3173 C 0.72032 0.59333 0.80976 0.0
C3174 C 0.73197 0.59589 0.79953 0.0
C3175 C 0.73942 0.58469 0.79317 0.0
H3176 H 0.3748 0.71551 0.79668 0.0
H3177 H 0.39638 0.69736 0.83082 0.0
H3178 H 0.39884 0.7247 0.78689 0.0
H3179 H 0.42034 0.70696 0.82142 0.0
H3180 H 0.46138 0.71332 0.79297 0.0
H3181 H 0.43708 0.70367 0.80143 0.0
H3182 H 0.41945 0.74224 0.79196 0.0
H3183 H 0.44357 0.75151 0.78259 0.0
C3184 C 0.38467 0.71358 0.80215 0.0
C3185 C 0.38369 0.70568 0.81449 0.0
C3186 C 0.39846 0.7189 0.7966 0.0
C3187 C 0.41157 0.71655 0.80333 0.0
C3188 C 0.41052 0.70875 0.81576 0.0
C3189 C 0.39676 0.70332 0.82123 0.0
C3190 C 0.45228 0.71966 0.79245 0.0
C3191 C 0.45447 0.73321 0.78709 0.0
C3192 C 0.43836 0.71421 0.79752 0.0
C3193 C 0.42628 0.7222 0.79749 0.0
C3194 C 0.42844 0.73571 0.79202 0.0
C3195 C 0.44235 0.74112 0.78684 0.0
H3196 H 0.35167 0.40034 0.83002 0.0
H3197 H 0.33389 0.37122 0.79396 0.0
H3198 H 0.34376 0.42029 0.81846 0.0
H3199 H 0.32656 0.3912 0.78201 0.0
H3200 H 0.30105 0.42744 0.77191 0.0
H3201 H 0.30929 0.40771 0.78337 0.0
H3202 H 0.34804 0.43501 0.79916 0.0
H3203 H 0.33921 0.45505 0.78863 0.0
C3204 C 0.34622 0.39822 0.81953 0.0
C3205 C 0.34336 0.38418 0.81295 0.0
C3206 C 0.34175 0.40969 0.81282 0.0
C3207 C 0.33446 0.40745 0.79925 0.0
C3208 C 0.33186 0.39338 0.79258 0.0
C3209 C 0.33616 0.3819 0.79938 0.0
C3210 C 0.31123 0.42934 0.778 0.0
C3211 C 0.31937 0.44296 0.77938 0.0
C3212 C 0.31611 0.4179 0.7844 0.0
C3213 C 0.32939 0.41966 0.79223 0.0
C3214 C 0.33766 0.43323 0.79342 0.0
C3215 C 0.33268 0.44472 0.78715 0.0
H3216 H 0.72383 0.62811 0.21522 0.0
H3217 H 0.70933 0.60124 0.17629 0.0
H3218 H 0.73558 0.6086 0.22374 0.0
H3219 H 0.72154 0.58188 0.18451 0.0
H3220 H 0.73192 0.54542 0.21027 0.0
H3221 H 0.71992 0.56486 0.20205 0.0
H3222 H 0.7558 0.59517 0.21939 0.0
H3223 H 0.76731 0.57583 0.22844 0.0
C3224 C 0.72325 0.61806 0.20842 0.0
C3225 C 0.71562 0.61624 0.19508 0.0
C3226 C 0.73008 0.60688 0.21326 0.0
C3227 C 0.72957 0.5936 0.20483 0.0
C3228 C 0.72198 0.59183 0.19144 0.0
C3229 C 0.71505 0.60299 0.18666 0.0
C3230 C 0.73718 0.55624 0.2125 0.0
C3231 C 0.75061 0.55899 0.22008 0.0
C3232 C 0.73038 0.56741 0.20759 0.0
C3233 C 0.73686 0.58166 0.21 0.0
C3234 C 0.75035 0.58439 0.21747 0.0
C3235 C 0.75709 0.57323 0.22249 0.0
H3236 H 0.74439 0.37832 0.83065 0.0
H3237 H 0.70123 0.39297 0.83652 0.0
H3238 H 0.75434 0.40153 0.82271 0.0
H3239 H 0.71121 0.41609 0.82866 0.0
H3240 H 0.72949 0.44515 0.79291 0.0
H3241 H 0.72029 0.42345 0.80423 0.0
H3242 H 0.75933 0.42791 0.83082 0.0
H3243 H 0.76866 0.44965 0.8193 0.0
C3244 C 0.73708 0.38654 0.83047 0.0
C3245 C 0.72198 0.38372 0.83408 0.0
C3246 C 0.7428 0.39984 0.82597 0.0
C3247 C 0.73351 0.41055 0.82491 0.0
C3248 C 0.71858 0.40795 0.82916 0.0
C3249 C 0.71289 0.39471 0.83373 0.0
C3250 C 0.73612 0.44149 0.80116 0.0
C3251 C 0.74981 0.44905 0.80519 0.0
C3252 C 0.73079 0.42915 0.80775 0.0
C3253 C 0.73906 0.42402 0.81845 0.0
C3254 C 0.75275 0.4316 0.82255 0.0
C3255 C 0.75803 0.44406 0.81605 0.0
H3256 H 0.65525 0.73436 0.83355 0.0
H3257 H 0.64123 0.68986 0.82059 0.0
H3258 H 0.63434 0.74111 0.82095 0.0
H3259 H 0.62034 0.69669 0.80769 0.0
H3260 H 0.57563 0.71508 0.80238 0.0
H3261 H 0.59699 0.70691 0.81328 0.0
H3262 H 0.62531 0.74171 0.79632 0.0
H3263 H 0.60402 0.74988 0.78552 0.0
C3264 C 0.64777 0.726 0.82792 0.0
C3265 C 0.64992 0.71156 0.82809 0.0
C3266 C 0.63581 0.72989 0.82061 0.0
C3267 C 0.62569 0.71945 0.81326 0.0
C3268 C 0.62786 0.70499 0.81336 0.0
C3269 C 0.63987 0.70108 0.82068 0.0
C3270 C 0.58646 0.72087 0.80084 0.0
C3271 C 0.58812 0.73322 0.79323 0.0
C3272 C 0.59869 0.71618 0.80706 0.0
C3273 C 0.61284 0.72374 0.80578 0.0
C3274 C 0.61453 0.73582 0.79777 0.0
C3275 C 0.60233 0.7405 0.79159 0.0
H3276 H 0.34637 0.64263 0.81194 0.0
H3277 H 0.3392 0.61984 0.85084 0.0
H3278 H 0.33802 0.62079 0.79668 0.0
H3279 H 0.33117 0.59799 0.83558 0.0
H3280 H 0.30111 0.56653 0.80592 0.0
H3281 H 0.31008 0.58846 0.82062 0.0
H3282 H 0.34478 0.59713 0.78841 0.0
H3283 H 0.33542 0.57545 0.77338 0.0
C3284 C 0.34316 0.63293 0.81722 0.0
C3285 C 0.34337 0.63298 0.83261 0.0
C3286 C 0.33843 0.62041 0.80847 0.0
C3287 C 0.33384 0.60768 0.81492 0.0
C3288 C 0.33439 0.60768 0.83028 0.0
C3289 C 0.33909 0.62019 0.83903 0.0
C3290 C 0.31054 0.5732 0.80188 0.0
C3291 C 0.31754 0.56926 0.78847 0.0
C3292 C 0.3158 0.58568 0.8104 0.0
C3293 C 0.32821 0.5945 0.80573 0.0
C3294 C 0.33514 0.59062 0.79227 0.0
C3295 C 0.32987 0.57813 0.78373 0.0
H3296 H 0.40097 0.3388 0.80837 0.0
H3297 H 0.38494 0.29746 0.82262 0.0
H3298 H 0.42188 0.32863 0.79586 0.0
H3299 H 0.40539 0.2872 0.80972 0.0
H3300 H 0.45184 0.27622 0.79998 0.0
H3301 H 0.43103 0.2869 0.8118 0.0
H3302 H 0.42949 0.31313 0.7757 0.0
H3303 H 0.45067 0.30264 0.76408 0.0
C3304 C 0.40181 0.32752 0.8087 0.0
C3305 C 0.39134 0.31898 0.8166 0.0
C3306 C 0.41377 0.32165 0.80146 0.0
C3307 C 0.41545 0.30709 0.80186 0.0
C3308 C 0.40471 0.29852 0.80945 0.0
C3309 C 0.39289 0.3044 0.81678 0.0
C3310 C 0.44699 0.2842 0.79453 0.0
C3311 C 0.45284 0.28853 0.78106 0.0
C3312 C 0.43501 0.29032 0.80128 0.0
C3313 C 0.42843 0.30083 0.79468 0.0
C3314 C 0.43435 0.3052 0.78121 0.0
C3315 C 0.44646 0.29917 0.77452 0.0
H3316 H 0.32471 0.37844 0.22041 0.0
H3317 H 0.36472 0.40445 0.20872 0.0
H3318 H 0.3149 0.39955 0.23225 0.0
H3319 H 0.35497 0.42556 0.22082 0.0
H3320 H 0.32379 0.46097 0.22542 0.0
H3321 H 0.33542 0.44 0.21587 0.0
H3322 H 0.31793 0.41783 0.25294 0.0
H3323 H 0.30586 0.43865 0.26223 0.0
C3324 C 0.33151 0.38863 0.22053 0.0
C3325 C 0.34546 0.38977 0.21352 0.0
C3326 C 0.3259 0.40073 0.2274 0.0
C3327 C 0.33411 0.41425 0.22741 0.0
C3328 C 0.34828 0.41532 0.22081 0.0
C3329 C 0.3539 0.40321 0.21396 0.0
C3330 C 0.32238 0.4516 0.23149 0.0
C3331 C 0.31383 0.45145 0.24453 0.0
C3332 C 0.3292 0.43964 0.22612 0.0
C3333 C 0.32761 0.42724 0.23365 0.0
C3334 C 0.31926 0.42717 0.24681 0.0
C3335 C 0.31247 0.43915 0.25221 0.0
H3336 H 0.68092 0.27746 0.22089 0.0
H3337 H 0.66557 0.31874 0.21887 0.0
H3338 H 0.65558 0.26708 0.22556 0.0
H3339 H 0.64048 0.30852 0.22391 0.0
H3340 H 0.59497 0.28514 0.22177 0.0
H3341 H 0.62011 0.29286 0.21371 0.0
H3342 H 0.63713 0.26763 0.24507 0.0
H3343 H 0.61192 0.25969 0.25287 0.0
C3344 C 0.67215 0.28431 0.22141 0.0
C3345 C 0.67527 0.29893 0.21954 0.0
C3346 C 0.65765 0.27837 0.22416 0.0
C3347 C 0.64598 0.28696 0.22511 0.0
C3348 C 0.64913 0.30153 0.223 0.0
C3349 C 0.66357 0.30742 0.22022 0.0
C3350 C 0.6041 0.28119 0.22686 0.0
C3351 C 0.60151 0.27192 0.23802 0.0
C3352 C 0.6185 0.28563 0.22229 0.0
C3353 C 0.63066 0.281 0.22886 0.0
C3354 C 0.62803 0.27129 0.23966 0.0
C3355 C 0.61359 0.26676 0.24416 0.0
H3356 H 0.36946 0.70584 0.20692 0.0
H3357 H 0.39254 0.69457 0.16636 0.0
H3358 H 0.39231 0.71795 0.21724 0.0
H3359 H 0.41536 0.7074 0.17637 0.0
H3360 H 0.45648 0.71566 0.20497 0.0
H3361 H 0.43356 0.70522 0.19321 0.0
H3362 H 0.41029 0.73748 0.21747 0.0
H3363 H 0.43316 0.74736 0.22974 0.0
C3364 C 0.37939 0.70621 0.20009 0.0
C3365 C 0.37921 0.69918 0.18585 0.0
C3366 C 0.39252 0.71325 0.20598 0.0
C3367 C 0.40579 0.71367 0.1977 0.0
C3368 C 0.40547 0.70706 0.18323 0.0
C3369 C 0.39235 0.69979 0.17742 0.0
C3370 C 0.44644 0.72053 0.20768 0.0
C3371 C 0.44652 0.73224 0.21829 0.0
C3372 C 0.4333 0.71462 0.20088 0.0
C3373 C 0.41996 0.72045 0.20436 0.0
C3374 C 0.42021 0.73248 0.21472 0.0
C3375 C 0.43332 0.73821 0.2217 0.0
loop_
_geom_bond_atom_site_label_1
_geom_bond_atom_site_label_2
_geom_bond_distance
_geom_bond_site_symmetry_2
_ccdc_geom_bond_type
O0 Cd1 2.300 . S
O0 C7 1.275 . S
Cd1 O0 2.300 . S
Cd1 O9 2.381 . S
Cd1 O10 2.378 . S
O2 Cd3 2.385 . S
O2 C7 1.255 . S
Cd3 O2 2.385 . S
Cd3 O4 2.317 . S
O4 Cd3 2.317 . S
O4 C5 1.232 . S
C5 O4 1.232 . S
C5 O6 1.218 . S
O6 C5 1.218 . S
C7 O0 1.275 . S
C7 O2 1.255 . S
C8 O9 1.258 . S
C8 O10 1.256 . S
O9 Cd1 2.381 . S
O9 C8 1.258 . S
O10 Cd1 2.378 . S
O10 C8 1.256 . S
O11 Cd12 2.300 . S
O11 C18 1.275 . S
Cd12 O11 2.300 . S
Cd12 O20 2.381 . S
Cd12 O21 2.378 . S
O13 Cd14 2.385 . S
O13 C18 1.255 . S
Cd14 O13 2.385 . S
Cd14 O15 2.317 . S
O15 Cd14 2.317 . S
O15 C16 1.232 . S
C16 O15 1.232 . S
C16 O17 1.218 . S
O17 C16 1.218 . S
C18 O11 1.275 . S
C18 O13 1.255 . S
C19 O20 1.258 . S
C19 O21 1.256 . S
O20 Cd12 2.381 . S
O20 C19 1.258 . S
O21 Cd12 2.378 . S
O21 C19 1.256 . S
O22 Cd23 2.300 . S
O22 C29 1.275 . S
Cd23 O22 2.300 . S
Cd23 O31 2.381 . S
Cd23 O32 2.378 . S
O24 Cd25 2.385 . S
O24 C29 1.255 . S
Cd25 O24 2.385 . S
Cd25 O26 2.317 . S
O26 Cd25 2.317 . S
O26 C27 1.232 . S
C27 O26 1.232 . S
C27 O28 1.218 . S
O28 C27 1.218 . S
C29 O22 1.275 . S
C29 O24 1.255 . S
C30 O31 1.258 . S
C30 O32 1.256 . S
O31 Cd23 2.381 . S
O31 C30 1.258 . S
O32 Cd23 2.378 . S
O32 C30 1.256 . S
O33 Cd34 2.300 . S
O33 C40 1.275 . S
Cd34 O33 2.300 . S
Cd34 O42 2.381 . S
Cd34 O43 2.378 . S
O35 Cd36 2.385 . S
O35 C40 1.255 . S
Cd36 O35 2.385 . S
Cd36 O37 2.317 . S
O37 Cd36 2.317 . S
O37 C38 1.232 . S
C38 O37 1.232 . S
C38 O39 1.218 . S
O39 C38 1.218 . S
C40 O33 1.275 . S
C40 O35 1.255 . S
C41 O42 1.258 . S
C41 O43 1.256 . S
O42 Cd34 2.381 . S
O42 C41 1.258 . S
O43 Cd34 2.378 . S
O43 C41 1.256 . S
O44 Cd45 2.300 . S
O44 C51 1.275 . S
Cd45 O44 2.300 . S
Cd45 O53 2.381 . S
Cd45 O54 2.378 . S
O46 Cd47 2.385 . S
O46 C51 1.255 . S
Cd47 O46 2.385 . S
Cd47 O48 2.317 . S
O48 Cd47 2.317 . S
O48 C49 1.232 . S
C49 O48 1.232 . S
C49 O50 1.218 . S
O50 C49 1.218 . S
C51 O44 1.275 . S
C51 O46 1.255 . S
C52 O53 1.258 . S
C52 O54 1.256 . S
O53 Cd45 2.381 . S
O53 C52 1.258 . S
O54 Cd45 2.378 . S
O54 C52 1.256 . S
O55 Cd56 2.300 . S
O55 C62 1.275 . S
Cd56 O55 2.300 . S
Cd56 O64 2.381 . S
Cd56 O65 2.378 . S
O57 Cd58 2.385 . S
O57 C62 1.255 . S
Cd58 O57 2.385 . S
Cd58 O59 2.317 . S
O59 Cd58 2.317 . S
O59 C60 1.232 . S
C60 O59 1.232 . S
C60 O61 1.218 . S
O61 C60 1.218 . S
C62 O55 1.275 . S
C62 O57 1.255 . S
C63 O64 1.258 . S
C63 O65 1.256 . S
O64 Cd56 2.381 . S
O64 C63 1.258 . S
O65 Cd56 2.378 . S
O65 C63 1.256 . S
O66 Cd67 2.300 . S
O66 C73 1.275 . S
Cd67 O66 2.300 . S
Cd67 O75 2.381 . S
Cd67 O76 2.378 . S
O68 Cd69 2.385 . S
O68 C73 1.255 . S
Cd69 O68 2.385 . S
Cd69 O70 2.317 . S
O70 Cd69 2.317 . S
O70 C71 1.232 . S
C71 O70 1.232 . S
C71 O72 1.218 . S
O72 C71 1.218 . S
C73 O66 1.275 . S
C73 O68 1.255 . S
C74 O75 1.258 . S
C74 O76 1.256 . S
O75 Cd67 2.381 . S
O75 C74 1.258 . S
O76 Cd67 2.378 . S
O76 C74 1.256 . S
O77 Cd78 2.300 . S
O77 C84 1.275 . S
Cd78 O77 2.300 . S
Cd78 O86 2.381 . S
Cd78 O87 2.378 . S
O79 Cd80 2.385 . S
O79 C84 1.255 . S
Cd80 O79 2.385 . S
Cd80 O81 2.317 . S
O81 Cd80 2.317 . S
O81 C82 1.232 . S
C82 O81 1.232 . S
C82 O83 1.218 . S
O83 C82 1.218 . S
C84 O77 1.275 . S
C84 O79 1.255 . S
C85 O86 1.258 . S
C85 O87 1.256 . S
O86 Cd78 2.381 . S
O86 C85 1.258 . S
O87 Cd78 2.378 . S
O87 C85 1.256 . S
O88 Cd89 2.300 . S
O88 C95 1.275 . S
Cd89 O88 2.300 . S
Cd89 O97 2.381 . S
Cd89 O98 2.378 . S
O90 Cd91 2.385 . S
O90 C95 1.255 . S
Cd91 O90 2.385 . S
Cd91 O92 2.317 . S
O92 Cd91 2.317 . S
O92 C93 1.232 . S
C93 O92 1.232 . S
C93 O94 1.218 . S
O94 C93 1.218 . S
C95 O88 1.275 . S
C95 O90 1.255 . S
C96 O97 1.258 . S
C96 O98 1.256 . S
O97 Cd89 2.381 . S
O97 C96 1.258 . S
O98 Cd89 2.378 . S
O98 C96 1.256 . S
O99 Cd100 2.300 . S
O99 C106 1.275 . S
Cd100 O99 2.300 . S
Cd100 O108 2.381 . S
Cd100 O109 2.378 . S
O101 Cd102 2.385 . S
O101 C106 1.255 . S
Cd102 O101 2.385 . S
Cd102 O103 2.317 . S
O103 Cd102 2.317 . S
O103 C104 1.232 . S
C104 O103 1.232 . S
C104 O105 1.218 . S
O105 C104 1.218 . S
C106 O99 1.275 . S
C106 O101 1.255 . S
C107 O108 1.258 . S
C107 O109 1.256 . S
O108 Cd100 2.381 . S
O108 C107 1.258 . S
O109 Cd100 2.378 . S
O109 C107 1.256 . S
O110 Cd111 2.300 . S
O110 C117 1.275 . S
Cd111 O110 2.300 . S
Cd111 O119 2.381 . S
Cd111 O120 2.378 . S
O112 Cd113 2.385 . S
O112 C117 1.255 . S
Cd113 O112 2.385 . S
Cd113 O114 2.317 . S
O114 Cd113 2.317 . S
O114 C115 1.232 . S
C115 O114 1.232 . S
C115 O116 1.218 . S
O116 C115 1.218 . S
C117 O110 1.275 . S
C117 O112 1.255 . S
C118 O119 1.258 . S
C118 O120 1.256 . S
O119 Cd111 2.381 . S
O119 C118 1.258 . S
O120 Cd111 2.378 . S
O120 C118 1.256 . S
O121 Cd122 2.300 . S
O121 C128 1.275 . S
Cd122 O121 2.300 . S
Cd122 O130 2.381 . S
Cd122 O131 2.378 . S
O123 Cd124 2.385 . S
O123 C128 1.255 . S
Cd124 O123 2.385 . S
Cd124 O125 2.317 . S
O125 Cd124 2.317 . S
O125 C126 1.232 . S
C126 O125 1.232 . S
C126 O127 1.218 . S
O127 C126 1.218 . S
C128 O121 1.275 . S
C128 O123 1.255 . S
C129 O130 1.258 . S
C129 O131 1.256 . S
O130 Cd122 2.381 . S
O130 C129 1.258 . S
O131 Cd122 2.378 . S
O131 C129 1.256 . S
O132 Cd133 2.300 . S
O132 C139 1.275 . S
Cd133 O132 2.300 . S
Cd133 O141 2.381 . S
Cd133 O142 2.378 . S
O134 Cd135 2.385 . S
O134 C139 1.255 . S
Cd135 O134 2.385 . S
Cd135 O136 2.317 . S
O136 Cd135 2.317 . S
O136 C137 1.232 . S
C137 O136 1.232 . S
C137 O138 1.218 . S
O138 C137 1.218 . S
C139 O132 1.275 . S
C139 O134 1.255 . S
C140 O141 1.258 . S
C140 O142 1.256 . S
O141 Cd133 2.381 . S
O141 C140 1.258 . S
O142 Cd133 2.378 . S
O142 C140 1.256 . S
O143 Cd144 2.300 . S
O143 C150 1.275 . S
Cd144 O143 2.300 . S
Cd144 O152 2.381 . S
Cd144 O153 2.378 . S
O145 Cd146 2.385 . S
O145 C150 1.255 . S
Cd146 O145 2.385 . S
Cd146 O147 2.317 . S
O147 Cd146 2.317 . S
O147 C148 1.232 . S
C148 O147 1.232 . S
C148 O149 1.218 . S
O149 C148 1.218 . S
C150 O143 1.275 . S
C150 O145 1.255 . S
C151 O152 1.258 . S
C151 O153 1.256 . S
O152 Cd144 2.381 . S
O152 C151 1.258 . S
O153 Cd144 2.378 . S
O153 C151 1.256 . S
O154 Cd155 2.300 . S
O154 C161 1.275 . S
Cd155 O154 2.300 . S
Cd155 O163 2.381 . S
Cd155 O164 2.378 . S
O156 Cd157 2.385 . S
O156 C161 1.255 . S
Cd157 O156 2.385 . S
Cd157 O158 2.317 . S
O158 Cd157 2.317 . S
O158 C159 1.232 . S
C159 O158 1.232 . S
C159 O160 1.218 . S
O160 C159 1.218 . S
C161 O154 1.275 . S
C161 O156 1.255 . S
C162 O163 1.258 . S
C162 O164 1.256 . S
O163 Cd155 2.381 . S
O163 C162 1.258 . S
O164 Cd155 2.378 . S
O164 C162 1.256 . S
O165 Cd166 2.300 . S
O165 C172 1.275 . S
Cd166 O165 2.300 . S
Cd166 O174 2.381 . S
Cd166 O175 2.378 . S
O167 Cd168 2.385 . S
O167 C172 1.255 . S
Cd168 O167 2.385 . S
Cd168 O169 2.317 . S
O169 Cd168 2.317 . S
O169 C170 1.232 . S
C170 O169 1.232 . S
C170 O171 1.218 . S
O171 C170 1.218 . S
C172 O165 1.275 . S
C172 O167 1.255 . S
C173 O174 1.258 . S
C173 O175 1.256 . S
O174 Cd166 2.381 . S
O174 C173 1.258 . S
O175 Cd166 2.378 . S
O175 C173 1.256 . S
O176 Cd177 2.300 . S
O176 C183 1.275 . S
Cd177 O176 2.300 . S
Cd177 O185 2.381 . S
Cd177 O186 2.378 . S
O178 Cd179 2.385 . S
O178 C183 1.255 . S
Cd179 O178 2.385 . S
Cd179 O180 2.317 . S
O180 Cd179 2.317 . S
O180 C181 1.232 . S
C181 O180 1.232 . S
C181 O182 1.218 . S
O182 C181 1.218 . S
C183 O176 1.275 . S
C183 O178 1.255 . S
C184 O185 1.258 . S
C184 O186 1.256 . S
O185 Cd177 2.381 . S
O185 C184 1.258 . S
O186 Cd177 2.378 . S
O186 C184 1.256 . S
O187 Cd188 2.300 . S
O187 C194 1.275 . S
Cd188 O187 2.300 . S
Cd188 O196 2.381 . S
Cd188 O197 2.378 . S
O189 Cd190 2.385 . S
O189 C194 1.255 . S
Cd190 O189 2.385 . S
Cd190 O191 2.317 . S
O191 Cd190 2.317 . S
O191 C192 1.232 . S
C192 O191 1.232 . S
C192 O193 1.218 . S
O193 C192 1.218 . S
C194 O187 1.275 . S
C194 O189 1.255 . S
C195 O196 1.258 . S
C195 O197 1.256 . S
O196 Cd188 2.381 . S
O196 C195 1.258 . S
O197 Cd188 2.378 . S
O197 C195 1.256 . S
O198 Cd199 2.300 . S
O198 C205 1.275 . S
Cd199 O198 2.300 . S
Cd199 O207 2.381 . S
Cd199 O208 2.378 . S
O200 Cd201 2.385 . S
O200 C205 1.255 . S
Cd201 O200 2.385 . S
Cd201 O202 2.317 . S
O202 Cd201 2.317 . S
O202 C203 1.232 . S
C203 O202 1.232 . S
C203 O204 1.218 . S
O204 C203 1.218 . S
C205 O198 1.275 . S
C205 O200 1.255 . S
C206 O207 1.258 . S
C206 O208 1.256 . S
O207 Cd199 2.381 . S
O207 C206 1.258 . S
O208 Cd199 2.378 . S
O208 C206 1.256 . S
O209 Cd210 2.300 . S
O209 C216 1.275 . S
Cd210 O209 2.300 . S
Cd210 O218 2.381 . S
Cd210 O219 2.378 . S
O211 Cd212 2.385 . S
O211 C216 1.255 . S
Cd212 O211 2.385 . S
Cd212 O213 2.317 . S
O213 Cd212 2.317 . S
O213 C214 1.232 . S
C214 O213 1.232 . S
C214 O215 1.218 . S
O215 C214 1.218 . S
C216 O209 1.275 . S
C216 O211 1.255 . S
C217 O218 1.258 . S
C217 O219 1.256 . S
O218 Cd210 2.381 . S
O218 C217 1.258 . S
O219 Cd210 2.378 . S
O219 C217 1.256 . S
O220 Cd221 2.300 . S
O220 C227 1.275 . S
Cd221 O220 2.300 . S
Cd221 O229 2.381 . S
Cd221 O230 2.378 . S
O222 Cd223 2.385 . S
O222 C227 1.255 . S
Cd223 O222 2.385 . S
Cd223 O224 2.317 . S
O224 Cd223 2.317 . S
O224 C225 1.232 . S
C225 O224 1.232 . S
C225 O226 1.218 . S
O226 C225 1.218 . S
C227 O220 1.275 . S
C227 O222 1.255 . S
C228 O229 1.258 . S
C228 O230 1.256 . S
O229 Cd221 2.381 . S
O229 C228 1.258 . S
O230 Cd221 2.378 . S
O230 C228 1.256 . S
O231 Cd232 2.300 . S
O231 C238 1.275 . S
Cd232 O231 2.300 . S
Cd232 O240 2.381 . S
Cd232 O241 2.378 . S
O233 Cd234 2.385 . S
O233 C238 1.255 . S
Cd234 O233 2.385 . S
Cd234 O235 2.317 . S
O235 Cd234 2.317 . S
O235 C236 1.232 . S
C236 O235 1.232 . S
C236 O237 1.218 . S
O237 C236 1.218 . S
C238 O231 1.275 . S
C238 O233 1.255 . S
C239 O240 1.258 . S
C239 O241 1.256 . S
O240 Cd232 2.381 . S
O240 C239 1.258 . S
O241 Cd232 2.378 . S
O241 C239 1.256 . S
O242 Cd243 2.300 . S
O242 C249 1.275 . S
Cd243 O242 2.300 . S
Cd243 O251 2.381 . S
Cd243 O252 2.378 . S
O244 Cd245 2.385 . S
O244 C249 1.255 . S
Cd245 O244 2.385 . S
Cd245 O246 2.317 . S
O246 Cd245 2.317 . S
O246 C247 1.232 . S
C247 O246 1.232 . S
C247 O248 1.218 . S
O248 C247 1.218 . S
C249 O242 1.275 . S
C249 O244 1.255 . S
C250 O251 1.258 . S
C250 O252 1.256 . S
O251 Cd243 2.381 . S
O251 C250 1.258 . S
O252 Cd243 2.378 . S
O252 C250 1.256 . S
O253 Cd254 2.300 . S
O253 C260 1.275 . S
Cd254 O253 2.300 . S
Cd254 O262 2.381 . S
Cd254 O263 2.378 . S
O255 Cd256 2.385 . S
O255 C260 1.255 . S
Cd256 O255 2.385 . S
Cd256 O257 2.317 . S
O257 Cd256 2.317 . S
O257 C258 1.232 . S
C258 O257 1.232 . S
C258 O259 1.218 . S
O259 C258 1.218 . S
C260 O253 1.275 . S
C260 O255 1.255 . S
C261 O262 1.258 . S
C261 O263 1.256 . S
O262 Cd254 2.381 . S
O262 C261 1.258 . S
O263 Cd254 2.378 . S
O263 C261 1.256 . S
O264 Cd265 2.300 . S
O264 C271 1.275 . S
Cd265 O264 2.300 . S
Cd265 O273 2.381 . S
Cd265 O274 2.378 . S
O266 Cd267 2.385 . S
O266 C271 1.255 . S
Cd267 O266 2.385 . S
Cd267 O268 2.317 . S
O268 Cd267 2.317 . S
O268 C269 1.232 . S
C269 O268 1.232 . S
C269 O270 1.218 . S
O270 C269 1.218 . S
C271 O264 1.275 . S
C271 O266 1.255 . S
C272 O273 1.258 . S
C272 O274 1.256 . S
O273 Cd265 2.381 . S
O273 C272 1.258 . S
O274 Cd265 2.378 . S
O274 C272 1.256 . S
O275 Cd276 2.300 . S
O275 C282 1.275 . S
Cd276 O275 2.300 . S
Cd276 O284 2.381 . S
Cd276 O285 2.378 . S
O277 Cd278 2.385 . S
O277 C282 1.255 . S
Cd278 O277 2.385 . S
Cd278 O279 2.317 . S
O279 Cd278 2.317 . S
O279 C280 1.232 . S
C280 O279 1.232 . S
C280 O281 1.218 . S
O281 C280 1.218 . S
C282 O275 1.275 . S
C282 O277 1.255 . S
C283 O284 1.258 . S
C283 O285 1.256 . S
O284 Cd276 2.381 . S
O284 C283 1.258 . S
O285 Cd276 2.378 . S
O285 C283 1.256 . S
O286 Cd287 2.300 . S
O286 C293 1.275 . S
Cd287 O286 2.300 . S
Cd287 O295 2.381 . S
Cd287 O296 2.378 . S
O288 Cd289 2.385 . S
O288 C293 1.255 . S
Cd289 O288 2.385 . S
Cd289 O290 2.317 . S
O290 Cd289 2.317 . S
O290 C291 1.232 . S
C291 O290 1.232 . S
C291 O292 1.218 . S
O292 C291 1.218 . S
C293 O286 1.275 . S
C293 O288 1.255 . S
C294 O295 1.258 . S
C294 O296 1.256 . S
O295 Cd287 2.381 . S
O295 C294 1.258 . S
O296 Cd287 2.378 . S
O296 C294 1.256 . S
O297 Cd298 2.300 . S
O297 C304 1.275 . S
Cd298 O297 2.300 . S
Cd298 O306 2.381 . S
Cd298 O307 2.378 . S
O299 Cd300 2.385 . S
O299 C304 1.255 . S
Cd300 O299 2.385 . S
Cd300 O301 2.317 . S
O301 Cd300 2.317 . S
O301 C302 1.232 . S
C302 O301 1.232 . S
C302 O303 1.218 . S
O303 C302 1.218 . S
C304 O297 1.275 . S
C304 O299 1.255 . S
C305 O306 1.258 . S
C305 O307 1.256 . S
O306 Cd298 2.381 . S
O306 C305 1.258 . S
O307 Cd298 2.378 . S
O307 C305 1.256 . S
O308 Cd309 2.300 . S
O308 C315 1.275 . S
Cd309 O308 2.300 . S
Cd309 O317 2.381 . S
Cd309 O318 2.378 . S
O310 Cd311 2.385 . S
O310 C315 1.255 . S
Cd311 O310 2.385 . S
Cd311 O312 2.317 . S
O312 Cd311 2.317 . S
O312 C313 1.232 . S
C313 O312 1.232 . S
C313 O314 1.218 . S
O314 C313 1.218 . S
C315 O308 1.275 . S
C315 O310 1.255 . S
C316 O317 1.258 . S
C316 O318 1.256 . S
O317 Cd309 2.381 . S
O317 C316 1.258 . S
O318 Cd309 2.378 . S
O318 C316 1.256 . S
O319 Cd320 2.300 . S
O319 C326 1.275 . S
Cd320 O319 2.300 . S
Cd320 O328 2.381 . S
Cd320 O329 2.378 . S
O321 Cd322 2.385 . S
O321 C326 1.255 . S
Cd322 O321 2.385 . S
Cd322 O323 2.317 . S
O323 Cd322 2.317 . S
O323 C324 1.232 . S
C324 O323 1.232 . S
C324 O325 1.218 . S
O325 C324 1.218 . S
C326 O319 1.275 . S
C326 O321 1.255 . S
C327 O328 1.258 . S
C327 O329 1.256 . S
O328 Cd320 2.381 . S
O328 C327 1.258 . S
O329 Cd320 2.378 . S
O329 C327 1.256 . S
O330 Cd331 2.300 . S
O330 C337 1.275 . S
Cd331 O330 2.300 . S
Cd331 O339 2.381 . S
Cd331 O340 2.378 . S
O332 Cd333 2.385 . S
O332 C337 1.255 . S
Cd333 O332 2.385 . S
Cd333 O334 2.317 . S
O334 Cd333 2.317 . S
O334 C335 1.232 . S
C335 O334 1.232 . S
C335 O336 1.218 . S
O336 C335 1.218 . S
C337 O330 1.275 . S
C337 O332 1.255 . S
C338 O339 1.258 . S
C338 O340 1.256 . S
O339 Cd331 2.381 . S
O339 C338 1.258 . S
O340 Cd331 2.378 . S
O340 C338 1.256 . S
O341 Cd342 2.300 . S
O341 C348 1.275 . S
Cd342 O341 2.300 . S
Cd342 O350 2.381 . S
Cd342 O351 2.378 . S
O343 Cd344 2.385 . S
O343 C348 1.255 . S
Cd344 O343 2.385 . S
Cd344 O345 2.317 . S
O345 Cd344 2.317 . S
O345 C346 1.232 . S
C346 O345 1.232 . S
C346 O347 1.218 . S
O347 C346 1.218 . S
C348 O341 1.275 . S
C348 O343 1.255 . S
C349 O350 1.258 . S
C349 O351 1.256 . S
O350 Cd342 2.381 . S
O350 C349 1.258 . S
O351 Cd342 2.378 . S
O351 C349 1.256 . S
C352 C353 1.384 . S
C352 C354 1.384 . S
C352 H380 0.931 . S
C353 C352 1.384 . S
C353 C356 1.382 . S
C354 C352 1.384 . S
C354 C355 1.381 . S
C354 H381 0.930 . S
C355 C354 1.381 . S
C355 C357 1.381 . S
C355 C358 1.487 . S
C356 C353 1.382 . S
C356 C357 1.387 . S
C356 H382 0.930 . S
C357 C355 1.381 . S
C357 C356 1.387 . S
C357 H383 0.931 . S
C358 C355 1.487 . S
C358 C365 1.399 . S
C358 N396 1.343 . S
C359 C360 1.384 . S
C359 C361 1.384 . S
C359 H384 0.931 . S
C360 C359 1.384 . S
C360 C363 1.382 . S
C361 C359 1.384 . S
C361 C362 1.381 . S
C361 H385 0.930 . S
C362 C361 1.381 . S
C362 C364 1.381 . S
C362 C365 1.487 . S
C363 C360 1.382 . S
C363 C364 1.387 . S
C363 H386 0.930 . S
C364 C362 1.381 . S
C364 C363 1.387 . S
C364 H387 0.931 . S
C365 C358 1.399 . S
C365 C362 1.487 . S
C365 N397 1.343 . S
C366 C367 1.384 . S
C366 C368 1.384 1_556 S
C366 H388 0.931 . S
C367 C366 1.384 . S
C367 C370 1.382 . S
C368 C366 1.384 1_554 S
C368 C369 1.381 . S
C368 H389 0.930 . S
C369 C368 1.381 . S
C369 C371 1.381 . S
C369 C372 1.487 . S
C370 C367 1.382 . S
C370 C371 1.387 1_556 S
C370 H390 0.930 . S
C371 C369 1.381 . S
C371 C370 1.387 1_554 S
C371 H391 0.931 . S
C372 C369 1.487 . S
C372 C379 1.399 . S
C372 N397 1.343 . S
C373 C374 1.384 . S
C373 C375 1.384 . S
C373 H392 0.931 . S
C374 C373 1.384 . S
C374 C377 1.382 . S
C375 C373 1.384 . S
C375 C376 1.381 1_556 S
C375 H393 0.930 . S
C376 C375 1.381 1_554 S
C376 C378 1.381 . S
C376 C379 1.487 . S
C377 C374 1.382 . S
C377 C378 1.387 1_556 S
C377 H394 0.930 . S
C378 C376 1.381 . S
C378 C377 1.387 1_554 S
C378 H395 0.931 . S
C379 C372 1.399 . S
C379 C376 1.487 . S
C379 N396 1.343 . S
H380 C352 0.931 . S
H381 C354 0.930 . S
H382 C356 0.930 . S
H383 C357 0.931 . S
H384 C359 0.931 . S
H385 C361 0.930 . S
H386 C363 0.930 . S
H387 C364 0.931 . S
H388 C366 0.931 . S
H389 C368 0.930 . S
H390 C370 0.930 . S
H391 C371 0.931 . S
H392 C373 0.931 . S
H393 C375 0.930 . S
H394 C377 0.930 . S
H395 C378 0.931 . S
N396 C358 1.343 . S
N396 C379 1.343 . S
N397 C365 1.343 . S
N397 C372 1.343 . S
C398 C399 1.384 . S
C398 C400 1.384 . S
C398 H426 0.931 . S
C399 C398 1.384 . S
C399 C402 1.382 . S
C400 C398 1.384 . S
C400 C401 1.381 . S
C400 H427 0.930 . S
C401 C400 1.381 . S
C401 C403 1.381 . S
C401 C404 1.487 . S
C402 C399 1.382 . S
C402 C403 1.387 . S
C402 H428 0.930 . S
C403 C401 1.381 . S
C403 C402 1.387 . S
C403 H429 0.931 . S
C404 C401 1.487 . S
C404 C411 1.399 . S
C404 N442 1.343 . S
C405 C406 1.384 . S
C405 C407 1.384 . S
C405 H430 0.931 . S
C406 C405 1.384 . S
C406 C409 1.382 . S
C407 C405 1.384 . S
C407 C408 1.381 . S
C407 H431 0.930 . S
C408 C407 1.381 . S
C408 C410 1.381 . S
C408 C411 1.487 . S
C409 C406 1.382 . S
C409 C410 1.387 . S
C409 H432 0.930 . S
C410 C408 1.381 . S
C410 C409 1.387 . S
C410 H433 0.931 . S
C411 C404 1.399 . S
C411 C408 1.487 . S
C411 N443 1.343 1_556 S
C412 C413 1.384 . S
C412 C414 1.384 . S
C412 H434 0.931 . S
C413 C412 1.384 . S
C413 C416 1.382 . S
C414 C412 1.384 . S
C414 C415 1.381 . S
C414 H435 0.930 . S
C415 C414 1.381 . S
C415 C417 1.381 . S
C415 C418 1.487 . S
C416 C413 1.382 . S
C416 C417 1.387 . S
C416 H436 0.930 . S
C417 C415 1.381 . S
C417 C416 1.387 . S
C417 H437 0.931 . S
C418 C415 1.487 . S
C418 C425 1.399 . S
C418 N443 1.343 . S
C419 C420 1.384 . S
C419 C421 1.384 . S
C419 H438 0.931 . S
C420 C419 1.384 . S
C420 C423 1.382 . S
C421 C419 1.384 . S
C421 C422 1.381 . S
C421 H439 0.930 . S
C422 C421 1.381 . S
C422 C424 1.381 . S
C422 C425 1.487 . S
C423 C420 1.382 . S
C423 C424 1.387 . S
C423 H440 0.930 . S
C424 C422 1.381 . S
C424 C423 1.387 . S
C424 H441 0.931 . S
C425 C418 1.399 . S
C425 C422 1.487 . S
C425 N442 1.343 1_554 S
H426 C398 0.931 . S
H427 C400 0.930 . S
H428 C402 0.930 . S
H429 C403 0.931 . S
H430 C405 0.931 . S
H431 C407 0.930 . S
H432 C409 0.930 . S
H433 C410 0.931 . S
H434 C412 0.931 . S
H435 C414 0.930 . S
H436 C416 0.930 . S
H437 C417 0.931 . S
H438 C419 0.931 . S
H439 C421 0.930 . S
H440 C423 0.930 . S
H441 C424 0.931 . S
N442 C404 1.343 . S
N442 C425 1.343 1_556 S
N443 C411 1.343 1_554 S
N443 C418 1.343 . S
C444 C445 1.384 . S
C444 C446 1.384 . S
C444 H472 0.931 . S
C445 C444 1.384 . S
C445 C448 1.382 . S
C446 C444 1.384 . S
C446 C447 1.381 . S
C446 H473 0.930 . S
C447 C446 1.381 . S
C447 C449 1.381 . S
C447 C450 1.487 . S
C448 C445 1.382 . S
C448 C449 1.387 . S
C448 H474 0.930 . S
C449 C447 1.381 . S
C449 C448 1.387 . S
C449 H475 0.931 . S
C450 C447 1.487 . S
C450 C457 1.399 . S
C450 N488 1.343 . S
C451 C452 1.384 . S
C451 C453 1.384 . S
C451 H476 0.931 . S
C452 C451 1.384 . S
C452 C455 1.382 . S
C453 C451 1.384 . S
C453 C454 1.381 . S
C453 H477 0.930 . S
C454 C453 1.381 . S
C454 C456 1.381 . S
C454 C457 1.487 . S
C455 C452 1.382 . S
C455 C456 1.387 . S
C455 H478 0.930 . S
C456 C454 1.381 . S
C456 C455 1.387 . S
C456 H479 0.931 . S
C457 C450 1.399 . S
C457 C454 1.487 . S
C457 N489 1.343 . S
C458 C459 1.384 . S
C458 C460 1.384 . S
C458 H480 0.931 . S
C459 C458 1.384 . S
C459 C462 1.382 . S
C460 C458 1.384 . S
C460 C461 1.381 1_556 S
C460 H481 0.930 . S
C461 C460 1.381 1_554 S
C461 C463 1.381 . S
C461 C464 1.487 . S
C462 C459 1.382 . S
C462 C463 1.387 1_556 S
C462 H482 0.930 . S
C463 C461 1.381 . S
C463 C462 1.387 1_554 S
C463 H483 0.931 . S
C464 C461 1.487 . S
C464 C471 1.399 . S
C464 N489 1.343 . S
C465 C466 1.384 . S
C465 C467 1.384 1_556 S
C465 H484 0.931 . S
C466 C465 1.384 . S
C466 C469 1.382 . S
C467 C465 1.384 1_554 S
C467 C468 1.381 . S
C467 H485 0.930 . S
C468 C467 1.381 . S
C468 C470 1.381 . S
C468 C471 1.487 . S
C469 C466 1.382 . S
C469 C470 1.387 1_556 S
C469 H486 0.930 . S
C470 C468 1.381 . S
C470 C469 1.387 1_554 S
C470 H487 0.931 . S
C471 C464 1.399 . S
C471 C468 1.487 . S
C471 N488 1.343 . S
H472 C444 0.931 . S
H473 C446 0.930 . S
H474 C448 0.930 . S
H475 C449 0.931 . S
H476 C451 0.931 . S
H477 C453 0.930 . S
H478 C455 0.930 . S
H479 C456 0.931 . S
H480 C458 0.931 . S
H481 C460 0.930 . S
H482 C462 0.930 . S
H483 C463 0.931 . S
H484 C465 0.931 . S
H485 C467 0.930 . S
H486 C469 0.930 . S
H487 C470 0.931 . S
N488 C450 1.343 . S
N488 C471 1.343 . S
N489 C457 1.343 . S
N489 C464 1.343 . S
C490 C491 1.384 . S
C490 C492 1.384 . S
C490 H518 0.931 . S
C491 C490 1.384 . S
C491 C494 1.382 . S
C492 C490 1.384 . S
C492 C493 1.381 . S
C492 H519 0.930 . S
C493 C492 1.381 . S
C493 C495 1.381 . S
C493 C496 1.487 . S
C494 C491 1.382 . S
C494 C495 1.387 . S
C494 H520 0.930 . S
C495 C493 1.381 . S
C495 C494 1.387 . S
C495 H521 0.931 . S
C496 C493 1.487 . S
C496 C503 1.399 . S
C496 N534 1.343 . S
C497 C498 1.384 . S
C497 C499 1.384 . S
C497 H522 0.931 . S
C498 C497 1.384 . S
C498 C501 1.382 . S
C499 C497 1.384 . S
C499 C500 1.381 . S
C499 H523 0.930 . S
C500 C499 1.381 . S
C500 C502 1.381 . S
C500 C503 1.487 . S
C501 C498 1.382 . S
C501 C502 1.387 . S
C501 H524 0.930 . S
C502 C500 1.381 . S
C502 C501 1.387 . S
C502 H525 0.931 . S
C503 C496 1.399 . S
C503 C500 1.487 . S
C503 N535 1.343 1_556 S
C504 C505 1.384 . S
C504 C506 1.384 . S
C504 H526 0.931 . S
C505 C504 1.384 . S
C505 C508 1.382 . S
C506 C504 1.384 . S
C506 C507 1.381 . S
C506 H527 0.930 . S
C507 C506 1.381 . S
C507 C509 1.381 . S
C507 C510 1.487 . S
C508 C505 1.382 . S
C508 C509 1.387 . S
C508 H528 0.930 . S
C509 C507 1.381 . S
C509 C508 1.387 . S
C509 H529 0.931 . S
C510 C507 1.487 . S
C510 C517 1.399 . S
C510 N535 1.343 . S
C511 C512 1.384 . S
C511 C513 1.384 . S
C511 H530 0.931 . S
C512 C511 1.384 . S
C512 C515 1.382 . S
C513 C511 1.384 . S
C513 C514 1.381 . S
C513 H531 0.930 . S
C514 C513 1.381 . S
C514 C516 1.381 . S
C514 C517 1.487 . S
C515 C512 1.382 . S
C515 C516 1.387 . S
C515 H532 0.930 . S
C516 C514 1.381 . S
C516 C515 1.387 . S
C516 H533 0.931 . S
C517 C510 1.399 . S
C517 C514 1.487 . S
C517 N534 1.343 1_554 S
H518 C490 0.931 . S
H519 C492 0.930 . S
H520 C494 0.930 . S
H521 C495 0.931 . S
H522 C497 0.931 . S
H523 C499 0.930 . S
H524 C501 0.930 . S
H525 C502 0.931 . S
H526 C504 0.931 . S
H527 C506 0.930 . S
H528 C508 0.930 . S
H529 C509 0.931 . S
H530 C511 0.931 . S
H531 C513 0.930 . S
H532 C515 0.930 . S
H533 C516 0.931 . S
N534 C496 1.343 . S
N534 C517 1.343 1_556 S
N535 C503 1.343 1_554 S
N535 C510 1.343 . S
C536 C537 1.384 . S
C536 C538 1.384 . S
C536 H564 0.931 . S
C537 C536 1.384 . S
C537 C540 1.382 . S
C538 C536 1.384 . S
C538 C539 1.381 . S
C538 H565 0.930 . S
C539 C538 1.381 . S
C539 C541 1.381 . S
C539 C542 1.487 . S
C540 C537 1.382 . S
C540 C541 1.387 . S
C540 H566 0.930 . S
C541 C539 1.381 . S
C541 C540 1.387 . S
C541 H567 0.931 . S
C542 C539 1.487 . S
C542 C549 1.399 . S
C542 N580 1.343 1_655 S
C543 C544 1.384 . S
C543 C545 1.384 . S
C543 H568 0.931 . S
C544 C543 1.384 . S
C544 C547 1.382 . S
C545 C543 1.384 . S
C545 C546 1.381 . S
C545 H569 0.930 . S
C546 C545 1.381 . S
C546 C548 1.381 . S
C546 C549 1.487 . S
C547 C544 1.382 . S
C547 C548 1.387 . S
C547 H570 0.930 . S
C548 C546 1.381 . S
C548 C547 1.387 . S
C548 H571 0.931 . S
C549 C542 1.399 . S
C549 C546 1.487 . S
C549 N581 1.343 1_655 S
C550 C551 1.384 . S
C550 C552 1.384 . S
C550 H572 0.931 . S
C551 C550 1.384 . S
C551 C554 1.382 . S
C552 C550 1.384 . S
C552 C553 1.381 . S
C552 H573 0.930 . S
C553 C552 1.381 . S
C553 C555 1.381 . S
C553 C556 1.487 . S
C554 C551 1.382 . S
C554 C555 1.387 . S
C554 H574 0.930 . S
C555 C553 1.381 . S
C555 C554 1.387 . S
C555 H575 0.931 . S
C556 C553 1.487 . S
C556 C563 1.399 . S
C556 N581 1.343 . S
C557 C558 1.384 . S
C557 C559 1.384 . S
C557 H576 0.931 . S
C558 C557 1.384 . S
C558 C561 1.382 . S
C559 C557 1.384 . S
C559 C560 1.381 . S
C559 H577 0.930 . S
C560 C559 1.381 . S
C560 C562 1.381 . S
C560 C563 1.487 . S
C561 C558 1.382 . S
C561 C562 1.387 . S
C561 H578 0.930 . S
C562 C560 1.381 . S
C562 C561 1.387 . S
C562 H579 0.931 . S
C563 C556 1.399 . S
C563 C560 1.487 . S
C563 N580 1.343 . S
H564 C536 0.931 . S
H565 C538 0.930 . S
H566 C540 0.930 . S
H567 C541 0.931 . S
H568 C543 0.931 . S
H569 C545 0.930 . S
H570 C547 0.930 . S
H571 C548 0.931 . S
H572 C550 0.931 . S
H573 C552 0.930 . S
H574 C554 0.930 . S
H575 C555 0.931 . S
H576 C557 0.931 . S
H577 C559 0.930 . S
H578 C561 0.930 . S
H579 C562 0.931 . S
N580 C542 1.343 1_455 S
N580 C563 1.343 . S
N581 C549 1.343 1_455 S
N581 C556 1.343 . S
C582 C583 1.384 . S
C582 C584 1.384 . S
C582 H610 0.931 . S
C583 C582 1.384 . S
C583 C586 1.382 . S
C584 C582 1.384 . S
C584 C585 1.381 . S
C584 H611 0.930 . S
C585 C584 1.381 . S
C585 C587 1.381 . S
C585 C588 1.487 . S
C586 C583 1.382 . S
C586 C587 1.387 . S
C586 H612 0.930 . S
C587 C585 1.381 . S
C587 C586 1.387 . S
C587 H613 0.931 . S
C588 C585 1.487 . S
C588 C595 1.399 . S
C588 N626 1.343 1_565 S
C589 C590 1.384 . S
C589 C591 1.384 . S
C589 H614 0.931 . S
C590 C589 1.384 . S
C590 C593 1.382 . S
C591 C589 1.384 . S
C591 C592 1.381 . S
C591 H615 0.930 . S
C592 C591 1.381 . S
C592 C594 1.381 . S
C592 C595 1.487 . S
C593 C590 1.382 . S
C593 C594 1.387 . S
C593 H616 0.930 . S
C594 C592 1.381 . S
C594 C593 1.387 . S
C594 H617 0.931 . S
C595 C588 1.399 . S
C595 C592 1.487 . S
C595 N627 1.343 1_565 S
C596 C597 1.384 . S
C596 C598 1.384 . S
C596 H618 0.931 . S
C597 C596 1.384 . S
C597 C600 1.382 . S
C598 C596 1.384 . S
C598 C599 1.381 . S
C598 H619 0.930 . S
C599 C598 1.381 . S
C599 C601 1.381 . S
C599 C602 1.487 . S
C600 C597 1.382 . S
C600 C601 1.387 . S
C600 H620 0.930 . S
C601 C599 1.381 . S
C601 C600 1.387 . S
C601 H621 0.931 . S
C602 C599 1.487 . S
C602 C609 1.399 . S
C602 N627 1.343 . S
C603 C604 1.384 . S
C603 C605 1.384 . S
C603 H622 0.931 . S
C604 C603 1.384 . S
C604 C607 1.382 . S
C605 C603 1.384 . S
C605 C606 1.381 . S
C605 H623 0.930 . S
C606 C605 1.381 . S
C606 C608 1.381 . S
C606 C609 1.487 . S
C607 C604 1.382 . S
C607 C608 1.387 . S
C607 H624 0.930 . S
C608 C606 1.381 . S
C608 C607 1.387 . S
C608 H625 0.931 . S
C609 C602 1.399 . S
C609 C606 1.487 . S
C609 N626 1.343 . S
H610 C582 0.931 . S
H611 C584 0.930 . S
H612 C586 0.930 . S
H613 C587 0.931 . S
H614 C589 0.931 . S
H615 C591 0.930 . S
H616 C593 0.930 . S
H617 C594 0.931 . S
H618 C596 0.931 . S
H619 C598 0.930 . S
H620 C600 0.930 . S
H621 C601 0.931 . S
H622 C603 0.931 . S
H623 C605 0.930 . S
H624 C607 0.930 . S
H625 C608 0.931 . S
N626 C588 1.343 1_545 S
N626 C609 1.343 . S
N627 C595 1.343 1_545 S
N627 C602 1.343 . S
C628 C629 1.384 . S
C628 C630 1.384 . S
C628 H656 0.931 . S
C629 C628 1.384 . S
C629 C632 1.382 . S
C630 C628 1.384 . S
C630 C631 1.381 . S
C630 H657 0.930 . S
C631 C630 1.381 . S
C631 C633 1.381 . S
C631 C634 1.487 . S
C632 C629 1.382 . S
C632 C633 1.387 . S
C632 H658 0.930 . S
C633 C631 1.381 . S
C633 C632 1.387 . S
C633 H659 0.931 . S
C634 C631 1.487 . S
C634 C641 1.399 . S
C634 N672 1.343 . S
C635 C636 1.384 . S
C635 C637 1.384 . S
C635 H660 0.931 . S
C636 C635 1.384 . S
C636 C639 1.382 . S
C637 C635 1.384 . S
C637 C638 1.381 . S
C637 H661 0.930 . S
C638 C637 1.381 . S
C638 C640 1.381 . S
C638 C641 1.487 . S
C639 C636 1.382 . S
C639 C640 1.387 . S
C639 H662 0.930 . S
C640 C638 1.381 . S
C640 C639 1.387 . S
C640 H663 0.931 . S
C641 C634 1.399 . S
C641 C638 1.487 . S
C641 N673 1.343 . S
C642 C643 1.385 . S
C642 C644 1.384 . S
C642 H664 0.931 1_455 S
C643 C642 1.385 . S
C643 C646 1.386 . S
C644 C642 1.384 . S
C644 C645 1.381 . S
C644 H665 0.930 . S
C645 C644 1.381 . S
C645 C647 1.381 . S
C645 C648 1.487 . S
C646 C643 1.386 . S
C646 C647 1.387 . S
C646 H666 0.930 . S
C647 C645 1.381 . S
C647 C646 1.387 . S
C647 H667 0.931 . S
C648 C645 1.487 . S
C648 C655 1.399 . S
C648 N673 1.343 . S
C649 C650 1.384 . S
C649 C651 1.384 . S
C649 H668 0.931 . S
C650 C649 1.384 . S
C650 C653 1.382 . S
C651 C649 1.384 . S
C651 C652 1.381 . S
C651 H669 0.930 . S
C652 C651 1.381 . S
C652 C654 1.381 . S
C652 C655 1.487 . S
C653 C650 1.382 . S
C653 C654 1.387 . S
C653 H670 0.930 . S
C654 C652 1.381 . S
C654 C653 1.387 . S
C654 H671 0.931 . S
C655 C648 1.399 . S
C655 C652 1.487 . S
C655 N672 1.343 . S
H656 C628 0.931 . S
H657 C630 0.930 . S
H658 C632 0.930 . S
H659 C633 0.931 . S
H660 C635 0.931 . S
H661 C637 0.930 . S
H662 C639 0.930 . S
H663 C640 0.931 . S
H664 C642 0.931 1_655 S
H665 C644 0.930 . S
H666 C646 0.930 . S
H667 C647 0.931 . S
H668 C649 0.931 . S
H669 C651 0.930 . S
H670 C653 0.930 . S
H671 C654 0.931 . S
N672 C634 1.343 . S
N672 C655 1.343 . S
N673 C641 1.343 . S
N673 C648 1.343 . S
C674 C675 1.384 . S
C674 C676 1.384 . S
C674 H702 0.931 . S
C675 C674 1.384 . S
C675 C678 1.382 . S
C676 C674 1.384 . S
C676 C677 1.381 . S
C676 H703 0.930 . S
C677 C676 1.381 . S
C677 C679 1.381 . S
C677 C680 1.487 1_565 S
C678 C675 1.382 . S
C678 C679 1.387 . S
C678 H704 0.930 . S
C679 C677 1.381 . S
C679 C678 1.387 . S
C679 H705 0.931 . S
C680 C677 1.487 1_545 S
C680 C687 1.399 . S
C680 N718 1.343 . S
C681 C682 1.384 . S
C681 C683 1.384 . S
C681 H706 0.931 . S
C682 C681 1.384 . S
C682 C685 1.382 . S
C683 C681 1.384 . S
C683 C684 1.381 . S
C683 H707 0.930 . S
C684 C683 1.381 . S
C684 C686 1.381 . S
C684 C687 1.487 1_565 S
C685 C682 1.382 . S
C685 C686 1.387 . S
C685 H708 0.930 . S
C686 C684 1.381 . S
C686 C685 1.387 . S
C686 H709 0.931 1_565 S
C687 C680 1.399 . S
C687 C684 1.487 1_545 S
C687 N719 1.343 . S
C688 C689 1.384 . S
C688 C690 1.384 . S
C688 H710 0.931 . S
C689 C688 1.384 . S
C689 C692 1.382 . S
C690 C688 1.384 . S
C690 C691 1.381 . S
C690 H711 0.930 . S
C691 C690 1.381 . S
C691 C693 1.381 . S
C691 C694 1.487 . S
C692 C689 1.382 . S
C692 C693 1.387 . S
C692 H712 0.930 . S
C693 C691 1.381 . S
C693 C692 1.387 . S
C693 H713 0.931 . S
C694 C691 1.487 . S
C694 C701 1.399 . S
C694 N719 1.343 . S
C695 C696 1.384 . S
C695 C697 1.384 . S
C695 H714 0.931 . S
C696 C695 1.384 . S
C696 C699 1.382 . S
C697 C695 1.384 . S
C697 C698 1.381 . S
C697 H715 0.930 . S
C698 C697 1.381 . S
C698 C700 1.381 . S
C698 C701 1.487 . S
C699 C696 1.382 . S
C699 C700 1.387 . S
C699 H716 0.930 . S
C700 C698 1.381 . S
C700 C699 1.387 . S
C700 H717 0.931 . S
C701 C694 1.399 . S
C701 C698 1.487 . S
C701 N718 1.343 . S
H702 C674 0.931 . S
H703 C676 0.930 . S
H704 C678 0.930 . S
H705 C679 0.931 . S
H706 C681 0.931 . S
H707 C683 0.930 . S
H708 C685 0.930 . S
H709 C686 0.931 1_545 S
H710 C688 0.931 . S
H711 C690 0.930 . S
H712 C692 0.930 . S
H713 C693 0.931 . S
H714 C695 0.931 . S
H715 C697 0.930 . S
H716 C699 0.930 . S
H717 C700 0.931 . S
N718 C680 1.343 . S
N718 C701 1.343 . S
N719 C687 1.343 . S
N719 C694 1.343 . S
C720 C721 1.384 . S
C720 C722 1.384 . S
C720 H748 0.931 . S
C721 C720 1.384 . S
C721 C724 1.382 . S
C722 C720 1.384 . S
C722 C723 1.381 . S
C722 H749 0.930 . S
C723 C722 1.381 . S
C723 C725 1.381 . S
C723 C726 1.487 . S
C724 C721 1.382 . S
C724 C725 1.387 . S
C724 H750 0.930 . S
C725 C723 1.381 . S
C725 C724 1.387 . S
C725 H751 0.931 . S
C726 C723 1.487 . S
C726 C733 1.399 . S
C726 N764 1.343 1_655 S
C727 C728 1.384 . S
C727 C729 1.384 . S
C727 H752 0.931 . S
C728 C727 1.384 . S
C728 C731 1.382 . S
C729 C727 1.384 . S
C729 C730 1.381 . S
C729 H753 0.930 . S
C730 C729 1.381 . S
C730 C732 1.381 . S
C730 C733 1.487 . S
C731 C728 1.382 . S
C731 C732 1.387 . S
C731 H754 0.930 . S
C732 C730 1.381 . S
C732 C731 1.387 . S
C732 H755 0.931 . S
C733 C726 1.399 . S
C733 C730 1.487 . S
C733 N765 1.343 1_655 S
C734 C735 1.384 . S
C734 C736 1.384 . S
C734 H756 0.931 . S
C735 C734 1.384 . S
C735 C738 1.382 . S
C736 C734 1.384 . S
C736 C737 1.381 . S
C736 H757 0.930 . S
C737 C736 1.381 . S
C737 C739 1.381 . S
C737 C740 1.487 . S
C738 C735 1.382 . S
C738 C739 1.387 . S
C738 H758 0.930 . S
C739 C737 1.381 . S
C739 C738 1.387 . S
C739 H759 0.931 . S
C740 C737 1.487 . S
C740 C747 1.399 . S
C740 N765 1.343 . S
C741 C742 1.384 . S
C741 C743 1.384 . S
C741 H760 0.931 . S
C742 C741 1.384 . S
C742 C745 1.382 . S
C743 C741 1.384 . S
C743 C744 1.381 . S
C743 H761 0.930 . S
C744 C743 1.381 . S
C744 C746 1.381 . S
C744 C747 1.487 . S
C745 C742 1.382 . S
C745 C746 1.387 . S
C745 H762 0.930 . S
C746 C744 1.381 . S
C746 C745 1.387 . S
C746 H763 0.931 . S
C747 C740 1.399 . S
C747 C744 1.487 . S
C747 N764 1.343 . S
H748 C720 0.931 . S
H749 C722 0.930 . S
H750 C724 0.930 . S
H751 C725 0.931 . S
H752 C727 0.931 . S
H753 C729 0.930 . S
H754 C731 0.930 . S
H755 C732 0.931 . S
H756 C734 0.931 . S
H757 C736 0.930 . S
H758 C738 0.930 . S
H759 C739 0.931 . S
H760 C741 0.931 . S
H761 C743 0.930 . S
H762 C745 0.930 . S
H763 C746 0.931 . S
N764 C726 1.343 1_455 S
N764 C747 1.343 . S
N765 C733 1.343 1_455 S
N765 C740 1.343 . S
C766 C767 1.384 . S
C766 C768 1.384 . S
C766 H794 0.931 . S
C767 C766 1.384 . S
C767 C770 1.382 . S
C768 C766 1.384 . S
C768 C769 1.381 . S
C768 H795 0.930 . S
C769 C768 1.381 . S
C769 C771 1.381 . S
C769 C772 1.487 . S
C770 C767 1.382 . S
C770 C771 1.387 . S
C770 H796 0.930 . S
C771 C769 1.381 . S
C771 C770 1.387 . S
C771 H797 0.931 . S
C772 C769 1.487 . S
C772 C779 1.399 . S
C772 N810 1.343 1_565 S
C773 C774 1.384 . S
C773 C775 1.384 . S
C773 H798 0.931 . S
C774 C773 1.384 . S
C774 C777 1.382 . S
C775 C773 1.384 . S
C775 C776 1.381 . S
C775 H799 0.930 . S
C776 C775 1.381 . S
C776 C778 1.381 . S
C776 C779 1.487 . S
C777 C774 1.382 . S
C777 C778 1.387 . S
C777 H800 0.930 . S
C778 C776 1.381 . S
C778 C777 1.387 . S
C778 H801 0.931 . S
C779 C772 1.399 . S
C779 C776 1.487 . S
C779 N811 1.343 1_565 S
C780 C781 1.384 . S
C780 C782 1.384 . S
C780 H802 0.931 . S
C781 C780 1.384 . S
C781 C784 1.382 . S
C782 C780 1.384 . S
C782 C783 1.381 . S
C782 H803 0.930 . S
C783 C782 1.381 . S
C783 C785 1.381 . S
C783 C786 1.487 . S
C784 C781 1.382 . S
C784 C785 1.387 . S
C784 H804 0.930 . S
C785 C783 1.381 . S
C785 C784 1.387 . S
C785 H805 0.931 . S
C786 C783 1.487 . S
C786 C793 1.399 . S
C786 N811 1.343 . S
C787 C788 1.384 . S
C787 C789 1.384 . S
C787 H806 0.931 . S
C788 C787 1.384 . S
C788 C791 1.382 . S
C789 C787 1.384 . S
C789 C790 1.381 . S
C789 H807 0.930 . S
C790 C789 1.381 . S
C790 C792 1.381 . S
C790 C793 1.487 . S
C791 C788 1.382 . S
C791 C792 1.387 . S
C791 H808 0.930 . S
C792 C790 1.381 . S
C792 C791 1.387 . S
C792 H809 0.931 . S
C793 C786 1.399 . S
C793 C790 1.487 . S
C793 N810 1.343 . S
H794 C766 0.931 . S
H795 C768 0.930 . S
H796 C770 0.930 . S
H797 C771 0.931 . S
H798 C773 0.931 . S
H799 C775 0.930 . S
H800 C777 0.930 . S
H801 C778 0.931 . S
H802 C780 0.931 . S
H803 C782 0.930 . S
H804 C784 0.930 . S
H805 C785 0.931 . S
H806 C787 0.931 . S
H807 C789 0.930 . S
H808 C791 0.930 . S
H809 C792 0.931 . S
N810 C772 1.343 1_545 S
N810 C793 1.343 . S
N811 C779 1.343 1_545 S
N811 C786 1.343 . S
C812 C813 1.384 . S
C812 C814 1.384 . S
C812 H840 0.931 . S
C813 C812 1.384 . S
C813 C816 1.382 . S
C814 C812 1.384 . S
C814 C815 1.381 . S
C814 H841 0.930 . S
C815 C814 1.381 . S
C815 C817 1.381 . S
C815 C818 1.487 . S
C816 C813 1.382 . S
C816 C817 1.387 . S
C816 H842 0.930 . S
C817 C815 1.381 . S
C817 C816 1.387 . S
C817 H843 0.931 . S
C818 C815 1.487 . S
C818 C825 1.399 . S
C818 N856 1.343 . S
C819 C820 1.384 . S
C819 C821 1.384 . S
C819 H844 0.931 . S
C820 C819 1.384 . S
C820 C823 1.382 . S
C821 C819 1.384 . S
C821 C822 1.381 . S
C821 H845 0.930 . S
C822 C821 1.381 . S
C822 C824 1.381 . S
C822 C825 1.487 . S
C823 C820 1.382 . S
C823 C824 1.387 . S
C823 H846 0.930 . S
C824 C822 1.381 . S
C824 C823 1.387 . S
C824 H847 0.931 . S
C825 C818 1.399 . S
C825 C822 1.487 . S
C825 N857 1.343 . S
C826 C827 1.385 . S
C826 C828 1.384 . S
C826 H848 0.931 1_455 S
C827 C826 1.385 . S
C827 C830 1.387 . S
C828 C826 1.384 . S
C828 C829 1.381 . S
C828 H849 0.930 . S
C829 C828 1.381 . S
C829 C831 1.381 . S
C829 C832 1.487 . S
C830 C827 1.387 . S
C830 C831 1.387 . S
C830 H850 0.930 . S
C831 C829 1.381 . S
C831 C830 1.387 . S
C831 H851 0.931 . S
C832 C829 1.487 . S
C832 C839 1.399 . S
C832 N857 1.343 . S
C833 C834 1.384 . S
C833 C835 1.384 . S
C833 H852 0.931 . S
C834 C833 1.384 . S
C834 C837 1.382 . S
C835 C833 1.384 . S
C835 C836 1.381 . S
C835 H853 0.930 . S
C836 C835 1.381 . S
C836 C838 1.381 . S
C836 C839 1.487 . S
C837 C834 1.382 . S
C837 C838 1.387 . S
C837 H854 0.930 . S
C838 C836 1.381 . S
C838 C837 1.387 . S
C838 H855 0.931 . S
C839 C832 1.399 . S
C839 C836 1.487 . S
C839 N856 1.343 . S
H840 C812 0.931 . S
H841 C814 0.930 . S
H842 C816 0.930 . S
H843 C817 0.931 . S
H844 C819 0.931 . S
H845 C821 0.930 . S
H846 C823 0.930 . S
H847 C824 0.931 . S
H848 C826 0.931 1_655 S
H849 C828 0.930 . S
H850 C830 0.930 . S
H851 C831 0.931 . S
H852 C833 0.931 . S
H853 C835 0.930 . S
H854 C837 0.930 . S
H855 C838 0.931 . S
N856 C818 1.343 . S
N856 C839 1.343 . S
N857 C825 1.343 . S
N857 C832 1.343 . S
C858 C859 1.384 . S
C858 C860 1.384 . S
C858 H886 0.931 . S
C859 C858 1.384 . S
C859 C862 1.382 . S
C860 C858 1.384 . S
C860 C861 1.381 . S
C860 H887 0.930 . S
C861 C860 1.381 . S
C861 C863 1.381 . S
C861 C864 1.487 1_565 S
C862 C859 1.382 . S
C862 C863 1.387 . S
C862 H888 0.930 . S
C863 C861 1.381 . S
C863 C862 1.387 . S
C863 H889 0.931 . S
C864 C861 1.487 1_545 S
C864 C871 1.399 . S
C864 N902 1.343 . S
C865 C866 1.384 . S
C865 C867 1.384 . S
C865 H890 0.931 . S
C866 C865 1.384 . S
C866 C869 1.382 . S
C867 C865 1.384 . S
C867 C868 1.381 . S
C867 H891 0.930 . S
C868 C867 1.381 . S
C868 C870 1.381 . S
C868 C871 1.487 1_565 S
C869 C866 1.382 . S
C869 C870 1.387 . S
C869 H892 0.930 . S
C870 C868 1.381 . S
C870 C869 1.387 . S
C870 H893 0.931 1_565 S
C871 C864 1.399 . S
C871 C868 1.487 1_545 S
C871 N903 1.343 . S
C872 C873 1.384 . S
C872 C874 1.384 . S
C872 H894 0.931 . S
C873 C872 1.384 . S
C873 C876 1.382 . S
C874 C872 1.384 . S
C874 C875 1.381 . S
C874 H895 0.930 . S
C875 C874 1.381 . S
C875 C877 1.381 . S
C875 C878 1.487 . S
C876 C873 1.382 . S
C876 C877 1.387 . S
C876 H896 0.930 . S
C877 C875 1.381 . S
C877 C876 1.387 . S
C877 H897 0.931 . S
C878 C875 1.487 . S
C878 C885 1.399 . S
C878 N903 1.343 . S
C879 C880 1.384 . S
C879 C881 1.384 . S
C879 H898 0.931 . S
C880 C879 1.384 . S
C880 C883 1.382 . S
C881 C879 1.384 . S
C881 C882 1.381 . S
C881 H899 0.930 . S
C882 C881 1.381 . S
C882 C884 1.381 . S
C882 C885 1.487 . S
C883 C880 1.382 . S
C883 C884 1.387 . S
C883 H900 0.930 . S
C884 C882 1.381 . S
C884 C883 1.387 . S
C884 H901 0.931 . S
C885 C878 1.399 . S
C885 C882 1.487 . S
C885 N902 1.343 . S
H886 C858 0.931 . S
H887 C860 0.930 . S
H888 C862 0.930 . S
H889 C863 0.931 . S
H890 C865 0.931 . S
H891 C867 0.930 . S
H892 C869 0.930 . S
H893 C870 0.931 1_545 S
H894 C872 0.931 . S
H895 C874 0.930 . S
H896 C876 0.930 . S
H897 C877 0.931 . S
H898 C879 0.931 . S
H899 C881 0.930 . S
H900 C883 0.930 . S
H901 C884 0.931 . S
N902 C864 1.343 . S
N902 C885 1.343 . S
N903 C871 1.343 . S
N903 C878 1.343 . S
C904 C905 1.384 . S
C904 C906 1.384 . S
C904 H932 0.931 . S
C905 C904 1.384 . S
C905 C908 1.382 . S
C906 C904 1.384 . S
C906 C907 1.381 . S
C906 H933 0.930 . S
C907 C906 1.381 . S
C907 C909 1.381 . S
C907 C910 1.487 . S
C908 C905 1.382 . S
C908 C909 1.387 . S
C908 H934 0.930 . S
C909 C907 1.381 . S
C909 C908 1.387 . S
C909 H935 0.931 . S
C910 C907 1.487 . S
C910 C917 1.399 . S
C910 N948 1.343 . S
C911 C912 1.384 . S
C911 C913 1.384 . S
C911 H936 0.931 . S
C912 C911 1.384 . S
C912 C915 1.382 . S
C913 C911 1.384 . S
C913 C914 1.381 . S
C913 H937 0.930 . S
C914 C913 1.381 . S
C914 C916 1.381 . S
C914 C917 1.487 . S
C915 C912 1.382 . S
C915 C916 1.387 . S
C915 H938 0.930 . S
C916 C914 1.381 . S
C916 C915 1.387 . S
C916 H939 0.931 . S
C917 C910 1.399 . S
C917 C914 1.487 . S
C917 N949 1.343 . S
C918 C919 1.384 . S
C918 C920 1.384 . S
C918 H940 0.931 . S
C919 C918 1.384 . S
C919 C922 1.382 . S
C920 C918 1.384 . S
C920 C921 1.381 . S
C920 H941 0.930 . S
C921 C920 1.381 . S
C921 C923 1.381 . S
C921 C924 1.487 . S
C922 C919 1.382 . S
C922 C923 1.387 . S
C922 H942 0.930 . S
C923 C921 1.381 . S
C923 C922 1.387 . S
C923 H943 0.931 . S
C924 C921 1.487 . S
C924 C931 1.399 . S
C924 N949 1.343 . S
C925 C926 1.384 . S
C925 C927 1.384 . S
C925 H944 0.931 . S
C926 C925 1.384 . S
C926 C929 1.382 . S
C927 C925 1.384 . S
C927 C928 1.381 . S
C927 H945 0.930 . S
C928 C927 1.381 . S
C928 C930 1.381 . S
C928 C931 1.487 . S
C929 C926 1.382 . S
C929 C930 1.387 . S
C929 H946 0.930 . S
C930 C928 1.381 . S
C930 C929 1.387 . S
C930 H947 0.931 . S
C931 C924 1.399 . S
C931 C928 1.487 . S
C931 N948 1.343 . S
H932 C904 0.931 . S
H933 C906 0.930 . S
H934 C908 0.930 . S
H935 C909 0.931 . S
H936 C911 0.931 . S
H937 C913 0.930 . S
H938 C915 0.930 . S
H939 C916 0.931 . S
H940 C918 0.931 . S
H941 C920 0.930 . S
H942 C922 0.930 . S
H943 C923 0.931 . S
H944 C925 0.931 . S
H945 C927 0.930 . S
H946 C929 0.930 . S
H947 C930 0.931 . S
N948 C910 1.343 . S
N948 C931 1.343 . S
N949 C917 1.343 . S
N949 C924 1.343 . S
C950 C951 1.384 . S
C950 C952 1.384 . S
C950 H978 0.931 . S
C951 C950 1.384 . S
C951 C954 1.382 . S
C952 C950 1.384 . S
C952 C953 1.381 . S
C952 H979 0.930 . S
C953 C952 1.381 . S
C953 C955 1.381 . S
C953 C956 1.487 . S
C954 C951 1.382 . S
C954 C955 1.387 . S
C954 H980 0.930 . S
C955 C953 1.381 . S
C955 C954 1.387 . S
C955 H981 0.931 . S
C956 C953 1.487 . S
C956 C963 1.399 . S
C956 N994 1.343 . S
C957 C958 1.384 . S
C957 C959 1.384 . S
C957 H982 0.931 . S
C958 C957 1.384 . S
C958 C961 1.382 . S
C959 C957 1.384 . S
C959 C960 1.381 . S
C959 H983 0.930 . S
C960 C959 1.381 . S
C960 C962 1.381 . S
C960 C963 1.487 . S
C961 C958 1.382 . S
C961 C962 1.387 . S
C961 H984 0.930 . S
C962 C960 1.381 . S
C962 C961 1.387 . S
C962 H985 0.931 . S
C963 C956 1.399 . S
C963 C960 1.487 . S
C963 N995 1.343 . S
C964 C965 1.384 . S
C964 C966 1.384 . S
C964 H986 0.931 . S
C965 C964 1.384 . S
C965 C968 1.382 . S
C966 C964 1.384 . S
C966 C967 1.381 . S
C966 H987 0.930 . S
C967 C966 1.381 . S
C967 C969 1.381 . S
C967 C970 1.487 . S
C968 C965 1.382 . S
C968 C969 1.387 . S
C968 H988 0.930 . S
C969 C967 1.381 . S
C969 C968 1.387 . S
C969 H989 0.931 . S
C970 C967 1.487 . S
C970 C977 1.399 . S
C970 N995 1.343 . S
C971 C972 1.384 . S
C971 C973 1.384 . S
C971 H990 0.931 . S
C972 C971 1.384 . S
C972 C975 1.382 . S
C973 C971 1.384 . S
C973 C974 1.381 . S
C973 H991 0.930 . S
C974 C973 1.381 . S
C974 C976 1.381 . S
C974 C977 1.487 . S
C975 C972 1.382 . S
C975 C976 1.387 . S
C975 H992 0.930 . S
C976 C974 1.381 . S
C976 C975 1.387 . S
C976 H993 0.931 . S
C977 C970 1.399 . S
C977 C974 1.487 . S
C977 N994 1.343 . S
H978 C950 0.931 . S
H979 C952 0.930 . S
H980 C954 0.930 . S
H981 C955 0.931 . S
H982 C957 0.931 . S
H983 C959 0.930 . S
H984 C961 0.930 . S
H985 C962 0.931 . S
H986 C964 0.931 . S
H987 C966 0.930 . S
H988 C968 0.930 . S
H989 C969 0.931 . S
H990 C971 0.931 . S
H991 C973 0.930 . S
H992 C975 0.930 . S
H993 C976 0.931 . S
N994 C956 1.343 . S
N994 C977 1.343 . S
N995 C963 1.343 . S
N995 C970 1.343 . S
C996 C997 1.384 . S
C996 C998 1.384 . S
C996 H1024 0.931 . S
C997 C996 1.384 . S
C997 C1000 1.382 . S
C998 C996 1.384 . S
C998 C999 1.381 . S
C998 H1025 0.930 . S
C999 C998 1.381 . S
C999 C1001 1.381 . S
C999 C1002 1.487 . S
C1000 C997 1.382 . S
C1000 C1001 1.387 . S
C1000 H1026 0.930 . S
C1001 C999 1.381 . S
C1001 C1000 1.387 . S
C1001 H1027 0.931 . S
C1002 C999 1.487 . S
C1002 C1009 1.399 . S
C1002 N1040 1.343 . S
C1003 C1004 1.384 . S
C1003 C1005 1.384 . S
C1003 H1028 0.931 . S
C1004 C1003 1.384 . S
C1004 C1007 1.382 . S
C1005 C1003 1.384 . S
C1005 C1006 1.381 . S
C1005 H1029 0.930 . S
C1006 C1005 1.381 . S
C1006 C1008 1.381 . S
C1006 C1009 1.487 . S
C1007 C1004 1.382 . S
C1007 C1008 1.387 . S
C1007 H1030 0.930 . S
C1008 C1006 1.381 . S
C1008 C1007 1.387 . S
C1008 H1031 0.931 . S
C1009 C1002 1.399 . S
C1009 C1006 1.487 . S
C1009 N1041 1.343 . S
C1010 C1011 1.384 . S
C1010 C1012 1.384 . S
C1010 H1032 0.931 . S
C1011 C1010 1.384 . S
C1011 C1014 1.382 . S
C1012 C1010 1.384 . S
C1012 C1013 1.381 . S
C1012 H1033 0.930 . S
C1013 C1012 1.381 . S
C1013 C1015 1.381 . S
C1013 C1016 1.487 . S
C1014 C1011 1.382 . S
C1014 C1015 1.387 . S
C1014 H1034 0.930 . S
C1015 C1013 1.381 . S
C1015 C1014 1.387 . S
C1015 H1035 0.931 . S
C1016 C1013 1.487 . S
C1016 C1023 1.399 . S
C1016 N1041 1.343 . S
C1017 C1018 1.384 . S
C1017 C1019 1.384 . S
C1017 H1036 0.931 . S
C1018 C1017 1.384 . S
C1018 C1021 1.382 . S
C1019 C1017 1.384 . S
C1019 C1020 1.381 . S
C1019 H1037 0.930 . S
C1020 C1019 1.381 . S
C1020 C1022 1.381 . S
C1020 C1023 1.487 . S
C1021 C1018 1.382 . S
C1021 C1022 1.387 . S
C1021 H1038 0.930 . S
C1022 C1020 1.381 . S
C1022 C1021 1.387 . S
C1022 H1039 0.931 . S
C1023 C1016 1.399 . S
C1023 C1020 1.487 . S
C1023 N1040 1.343 . S
H1024 C996 0.931 . S
H1025 C998 0.930 . S
H1026 C1000 0.930 . S
H1027 C1001 0.931 . S
H1028 C1003 0.931 . S
H1029 C1005 0.930 . S
H1030 C1007 0.930 . S
H1031 C1008 0.931 . S
H1032 C1010 0.931 . S
H1033 C1012 0.930 . S
H1034 C1014 0.930 . S
H1035 C1015 0.931 . S
H1036 C1017 0.931 . S
H1037 C1019 0.930 . S
H1038 C1021 0.930 . S
H1039 C1022 0.931 . S
N1040 C1002 1.343 . S
N1040 C1023 1.343 . S
N1041 C1009 1.343 . S
N1041 C1016 1.343 . S
C1042 C1043 1.384 . S
C1042 C1044 1.384 . S
C1042 H1070 0.931 . S
C1043 C1042 1.384 . S
C1043 C1046 1.382 . S
C1044 C1042 1.384 . S
C1044 C1045 1.381 . S
C1044 H1071 0.930 . S
C1045 C1044 1.381 . S
C1045 C1047 1.381 . S
C1045 C1048 1.487 . S
C1046 C1043 1.382 . S
C1046 C1047 1.387 . S
C1046 H1072 0.930 . S
C1047 C1045 1.381 . S
C1047 C1046 1.387 . S
C1047 H1073 0.931 . S
C1048 C1045 1.487 . S
C1048 C1055 1.399 . S
C1048 N1086 1.343 . S
C1049 C1050 1.384 . S
C1049 C1051 1.384 . S
C1049 H1074 0.931 . S
C1050 C1049 1.384 . S
C1050 C1053 1.382 . S
C1051 C1049 1.384 . S
C1051 C1052 1.381 . S
C1051 H1075 0.930 . S
C1052 C1051 1.381 . S
C1052 C1054 1.381 . S
C1052 C1055 1.487 . S
C1053 C1050 1.382 . S
C1053 C1054 1.387 . S
C1053 H1076 0.930 . S
C1054 C1052 1.381 . S
C1054 C1053 1.387 . S
C1054 H1077 0.931 . S
C1055 C1048 1.399 . S
C1055 C1052 1.487 . S
C1055 N1087 1.343 . S
C1056 C1057 1.384 . S
C1056 C1058 1.384 . S
C1056 H1078 0.931 . S
C1057 C1056 1.384 . S
C1057 C1060 1.382 . S
C1058 C1056 1.384 . S
C1058 C1059 1.381 . S
C1058 H1079 0.930 . S
C1059 C1058 1.381 . S
C1059 C1061 1.381 . S
C1059 C1062 1.487 . S
C1060 C1057 1.382 . S
C1060 C1061 1.387 . S
C1060 H1080 0.930 . S
C1061 C1059 1.381 . S
C1061 C1060 1.387 . S
C1061 H1081 0.931 . S
C1062 C1059 1.487 . S
C1062 C1069 1.399 . S
C1062 N1087 1.343 . S
C1063 C1064 1.384 . S
C1063 C1065 1.384 . S
C1063 H1082 0.931 . S
C1064 C1063 1.384 . S
C1064 C1067 1.382 . S
C1065 C1063 1.384 . S
C1065 C1066 1.381 . S
C1065 H1083 0.930 . S
C1066 C1065 1.381 . S
C1066 C1068 1.381 . S
C1066 C1069 1.487 . S
C1067 C1064 1.382 . S
C1067 C1068 1.387 . S
C1067 H1084 0.930 . S
C1068 C1066 1.381 . S
C1068 C1067 1.387 . S
C1068 H1085 0.931 . S
C1069 C1062 1.399 . S
C1069 C1066 1.487 . S
C1069 N1086 1.343 . S
H1070 C1042 0.931 . S
H1071 C1044 0.930 . S
H1072 C1046 0.930 . S
H1073 C1047 0.931 . S
H1074 C1049 0.931 . S
H1075 C1051 0.930 . S
H1076 C1053 0.930 . S
H1077 C1054 0.931 . S
H1078 C1056 0.931 . S
H1079 C1058 0.930 . S
H1080 C1060 0.930 . S
H1081 C1061 0.931 . S
H1082 C1063 0.931 . S
H1083 C1065 0.930 . S
H1084 C1067 0.930 . S
H1085 C1068 0.931 . S
N1086 C1048 1.343 . S
N1086 C1069 1.343 . S
N1087 C1055 1.343 . S
N1087 C1062 1.343 . S
C1088 C1089 1.384 . S
C1088 C1090 1.384 . S
C1088 H1116 0.931 . S
C1089 C1088 1.384 . S
C1089 C1092 1.382 . S
C1090 C1088 1.384 . S
C1090 C1091 1.381 . S
C1090 H1117 0.930 . S
C1091 C1090 1.381 . S
C1091 C1093 1.381 . S
C1091 C1094 1.487 . S
C1092 C1089 1.382 . S
C1092 C1093 1.387 . S
C1092 H1118 0.930 . S
C1093 C1091 1.381 . S
C1093 C1092 1.387 . S
C1093 H1119 0.931 . S
C1094 C1091 1.487 . S
C1094 C1101 1.399 . S
C1094 N1132 1.343 . S
C1095 C1096 1.384 . S
C1095 C1097 1.384 . S
C1095 H1120 0.931 . S
C1096 C1095 1.384 . S
C1096 C1099 1.382 . S
C1097 C1095 1.384 . S
C1097 C1098 1.381 . S
C1097 H1121 0.930 . S
C1098 C1097 1.381 . S
C1098 C1100 1.381 . S
C1098 C1101 1.487 . S
C1099 C1096 1.382 . S
C1099 C1100 1.387 . S
C1099 H1122 0.930 . S
C1100 C1098 1.381 . S
C1100 C1099 1.387 . S
C1100 H1123 0.931 . S
C1101 C1094 1.399 . S
C1101 C1098 1.487 . S
C1101 N1133 1.343 . S
C1102 C1103 1.384 . S
C1102 C1104 1.384 . S
C1102 H1124 0.931 . S
C1103 C1102 1.384 . S
C1103 C1106 1.382 . S
C1104 C1102 1.384 . S
C1104 C1105 1.381 . S
C1104 H1125 0.930 . S
C1105 C1104 1.381 . S
C1105 C1107 1.381 . S
C1105 C1108 1.487 . S
C1106 C1103 1.382 . S
C1106 C1107 1.387 . S
C1106 H1126 0.930 . S
C1107 C1105 1.381 . S
C1107 C1106 1.387 . S
C1107 H1127 0.931 . S
C1108 C1105 1.487 . S
C1108 C1115 1.399 . S
C1108 N1133 1.343 . S
C1109 C1110 1.384 . S
C1109 C1111 1.384 . S
C1109 H1128 0.931 . S
C1110 C1109 1.384 . S
C1110 C1113 1.382 . S
C1111 C1109 1.384 . S
C1111 C1112 1.381 . S
C1111 H1129 0.930 . S
C1112 C1111 1.381 . S
C1112 C1114 1.381 . S
C1112 C1115 1.487 . S
C1113 C1110 1.382 . S
C1113 C1114 1.387 . S
C1113 H1130 0.930 . S
C1114 C1112 1.381 . S
C1114 C1113 1.387 . S
C1114 H1131 0.931 . S
C1115 C1108 1.399 . S
C1115 C1112 1.487 . S
C1115 N1132 1.343 . S
H1116 C1088 0.931 . S
H1117 C1090 0.930 . S
H1118 C1092 0.930 . S
H1119 C1093 0.931 . S
H1120 C1095 0.931 . S
H1121 C1097 0.930 . S
H1122 C1099 0.930 . S
H1123 C1100 0.931 . S
H1124 C1102 0.931 . S
H1125 C1104 0.930 . S
H1126 C1106 0.930 . S
H1127 C1107 0.931 . S
H1128 C1109 0.931 . S
H1129 C1111 0.930 . S
H1130 C1113 0.930 . S
H1131 C1114 0.931 . S
N1132 C1094 1.343 . S
N1132 C1115 1.343 . S
N1133 C1101 1.343 . S
N1133 C1108 1.343 . S
C1134 C1135 1.384 . S
C1134 C1136 1.384 . S
C1134 H1162 0.931 . S
C1135 C1134 1.384 . S
C1135 C1138 1.382 . S
C1136 C1134 1.384 . S
C1136 C1137 1.381 . S
C1136 H1163 0.930 . S
C1137 C1136 1.381 . S
C1137 C1139 1.381 . S
C1137 C1140 1.487 . S
C1138 C1135 1.382 . S
C1138 C1139 1.387 . S
C1138 H1164 0.930 . S
C1139 C1137 1.381 . S
C1139 C1138 1.387 . S
C1139 H1165 0.931 . S
C1140 C1137 1.487 . S
C1140 C1147 1.399 . S
C1140 N1178 1.343 . S
C1141 C1142 1.384 . S
C1141 C1143 1.384 . S
C1141 H1166 0.931 . S
C1142 C1141 1.384 . S
C1142 C1145 1.382 . S
C1143 C1141 1.384 . S
C1143 C1144 1.381 . S
C1143 H1167 0.930 . S
C1144 C1143 1.381 . S
C1144 C1146 1.381 . S
C1144 C1147 1.487 . S
C1145 C1142 1.382 . S
C1145 C1146 1.387 . S
C1145 H1168 0.930 . S
C1146 C1144 1.381 . S
C1146 C1145 1.387 . S
C1146 H1169 0.931 . S
C1147 C1140 1.399 . S
C1147 C1144 1.487 . S
C1147 N1179 1.343 . S
C1148 C1149 1.384 . S
C1148 C1150 1.384 . S
C1148 H1170 0.931 . S
C1149 C1148 1.384 . S
C1149 C1152 1.382 . S
C1150 C1148 1.384 . S
C1150 C1151 1.381 . S
C1150 H1171 0.930 . S
C1151 C1150 1.381 . S
C1151 C1153 1.381 . S
C1151 C1154 1.487 . S
C1152 C1149 1.382 . S
C1152 C1153 1.387 . S
C1152 H1172 0.930 . S
C1153 C1151 1.381 . S
C1153 C1152 1.387 . S
C1153 H1173 0.931 . S
C1154 C1151 1.487 . S
C1154 C1161 1.399 . S
C1154 N1179 1.343 . S
C1155 C1156 1.384 . S
C1155 C1157 1.384 . S
C1155 H1174 0.931 . S
C1156 C1155 1.384 . S
C1156 C1159 1.382 . S
C1157 C1155 1.384 . S
C1157 C1158 1.381 . S
C1157 H1175 0.930 . S
C1158 C1157 1.381 . S
C1158 C1160 1.381 . S
C1158 C1161 1.487 . S
C1159 C1156 1.382 . S
C1159 C1160 1.387 . S
C1159 H1176 0.930 . S
C1160 C1158 1.381 . S
C1160 C1159 1.387 . S
C1160 H1177 0.931 . S
C1161 C1154 1.399 . S
C1161 C1158 1.487 . S
C1161 N1178 1.343 . S
H1162 C1134 0.931 . S
H1163 C1136 0.930 . S
H1164 C1138 0.930 . S
H1165 C1139 0.931 . S
H1166 C1141 0.931 . S
H1167 C1143 0.930 . S
H1168 C1145 0.930 . S
H1169 C1146 0.931 . S
H1170 C1148 0.931 . S
H1171 C1150 0.930 . S
H1172 C1152 0.930 . S
H1173 C1153 0.931 . S
H1174 C1155 0.931 . S
H1175 C1157 0.930 . S
H1176 C1159 0.930 . S
H1177 C1160 0.931 . S
N1178 C1140 1.343 . S
N1178 C1161 1.343 . S
N1179 C1147 1.343 . S
N1179 C1154 1.343 . S
C1180 C1181 1.384 . S
C1180 C1182 1.384 . S
C1180 H1208 0.931 . S
C1181 C1180 1.384 . S
C1181 C1184 1.382 . S
C1182 C1180 1.384 . S
C1182 C1183 1.381 . S
C1182 H1209 0.930 . S
C1183 C1182 1.381 . S
C1183 C1185 1.381 . S
C1183 C1186 1.487 . S
C1184 C1181 1.382 . S
C1184 C1185 1.387 . S
C1184 H1210 0.930 . S
C1185 C1183 1.381 . S
C1185 C1184 1.387 . S
C1185 H1211 0.931 . S
C1186 C1183 1.487 . S
C1186 C1193 1.399 . S
C1186 N1224 1.343 . S
C1187 C1188 1.384 . S
C1187 C1189 1.384 . S
C1187 H1212 0.931 . S
C1188 C1187 1.384 . S
C1188 C1191 1.382 . S
C1189 C1187 1.384 . S
C1189 C1190 1.381 . S
C1189 H1213 0.930 . S
C1190 C1189 1.381 . S
C1190 C1192 1.381 . S
C1190 C1193 1.487 . S
C1191 C1188 1.382 . S
C1191 C1192 1.387 . S
C1191 H1214 0.930 . S
C1192 C1190 1.381 . S
C1192 C1191 1.387 . S
C1192 H1215 0.931 . S
C1193 C1186 1.399 . S
C1193 C1190 1.487 . S
C1193 N1225 1.343 . S
C1194 C1195 1.384 . S
C1194 C1196 1.384 . S
C1194 H1216 0.931 . S
C1195 C1194 1.384 . S
C1195 C1198 1.382 . S
C1196 C1194 1.384 . S
C1196 C1197 1.381 . S
C1196 H1217 0.930 . S
C1197 C1196 1.381 . S
C1197 C1199 1.381 . S
C1197 C1200 1.487 . S
C1198 C1195 1.382 . S
C1198 C1199 1.387 . S
C1198 H1218 0.930 . S
C1199 C1197 1.381 . S
C1199 C1198 1.387 . S
C1199 H1219 0.931 . S
C1200 C1197 1.487 . S
C1200 C1207 1.399 . S
C1200 N1225 1.343 . S
C1201 C1202 1.384 . S
C1201 C1203 1.384 . S
C1201 H1220 0.931 . S
C1202 C1201 1.384 . S
C1202 C1205 1.382 . S
C1203 C1201 1.384 . S
C1203 C1204 1.381 . S
C1203 H1221 0.930 . S
C1204 C1203 1.381 . S
C1204 C1206 1.381 . S
C1204 C1207 1.487 . S
C1205 C1202 1.382 . S
C1205 C1206 1.387 . S
C1205 H1222 0.930 . S
C1206 C1204 1.381 . S
C1206 C1205 1.387 . S
C1206 H1223 0.931 . S
C1207 C1200 1.399 . S
C1207 C1204 1.487 . S
C1207 N1224 1.343 . S
H1208 C1180 0.931 . S
H1209 C1182 0.930 . S
H1210 C1184 0.930 . S
H1211 C1185 0.931 . S
H1212 C1187 0.931 . S
H1213 C1189 0.930 . S
H1214 C1191 0.930 . S
H1215 C1192 0.931 . S
H1216 C1194 0.931 . S
H1217 C1196 0.930 . S
H1218 C1198 0.930 . S
H1219 C1199 0.931 . S
H1220 C1201 0.931 . S
H1221 C1203 0.930 . S
H1222 C1205 0.930 . S
H1223 C1206 0.931 . S
N1224 C1186 1.343 . S
N1224 C1207 1.343 . S
N1225 C1193 1.343 . S
N1225 C1200 1.343 . S
C1226 C1227 1.384 . S
C1226 C1228 1.384 . S
C1226 H1254 0.931 . S
C1227 C1226 1.384 . S
C1227 C1230 1.382 . S
C1228 C1226 1.384 . S
C1228 C1229 1.381 . S
C1228 H1255 0.930 . S
C1229 C1228 1.381 . S
C1229 C1231 1.381 . S
C1229 C1232 1.487 . S
C1230 C1227 1.382 . S
C1230 C1231 1.387 . S
C1230 H1256 0.930 . S
C1231 C1229 1.381 . S
C1231 C1230 1.387 . S
C1231 H1257 0.931 . S
C1232 C1229 1.487 . S
C1232 C1239 1.399 . S
C1232 N1270 1.343 . S
C1233 C1234 1.384 . S
C1233 C1235 1.384 . S
C1233 H1258 0.931 . S
C1234 C1233 1.384 . S
C1234 C1237 1.382 . S
C1235 C1233 1.384 . S
C1235 C1236 1.381 . S
C1235 H1259 0.930 . S
C1236 C1235 1.381 . S
C1236 C1238 1.381 . S
C1236 C1239 1.487 . S
C1237 C1234 1.382 . S
C1237 C1238 1.387 . S
C1237 H1260 0.930 . S
C1238 C1236 1.381 . S
C1238 C1237 1.387 . S
C1238 H1261 0.931 . S
C1239 C1232 1.399 . S
C1239 C1236 1.487 . S
C1239 N1271 1.343 . S
C1240 C1241 1.384 . S
C1240 C1242 1.384 . S
C1240 H1262 0.931 . S
C1241 C1240 1.384 . S
C1241 C1244 1.382 . S
C1242 C1240 1.384 . S
C1242 C1243 1.381 . S
C1242 H1263 0.930 . S
C1243 C1242 1.381 . S
C1243 C1245 1.381 . S
C1243 C1246 1.487 . S
C1244 C1241 1.382 . S
C1244 C1245 1.387 . S
C1244 H1264 0.930 . S
C1245 C1243 1.381 . S
C1245 C1244 1.387 . S
C1245 H1265 0.931 . S
C1246 C1243 1.487 . S
C1246 C1253 1.399 . S
C1246 N1271 1.343 . S
C1247 C1248 1.384 . S
C1247 C1249 1.384 . S
C1247 H1266 0.931 . S
C1248 C1247 1.384 . S
C1248 C1251 1.382 . S
C1249 C1247 1.384 . S
C1249 C1250 1.381 . S
C1249 H1267 0.930 . S
C1250 C1249 1.381 . S
C1250 C1252 1.381 . S
C1250 C1253 1.487 . S
C1251 C1248 1.382 . S
C1251 C1252 1.387 . S
C1251 H1268 0.930 . S
C1252 C1250 1.381 . S
C1252 C1251 1.387 . S
C1252 H1269 0.931 . S
C1253 C1246 1.399 . S
C1253 C1250 1.487 . S
C1253 N1270 1.343 . S
H1254 C1226 0.931 . S
H1255 C1228 0.930 . S
H1256 C1230 0.930 . S
H1257 C1231 0.931 . S
H1258 C1233 0.931 . S
H1259 C1235 0.930 . S
H1260 C1237 0.930 . S
H1261 C1238 0.931 . S
H1262 C1240 0.931 . S
H1263 C1242 0.930 . S
H1264 C1244 0.930 . S
H1265 C1245 0.931 . S
H1266 C1247 0.931 . S
H1267 C1249 0.930 . S
H1268 C1251 0.930 . S
H1269 C1252 0.931 . S
N1270 C1232 1.343 . S
N1270 C1253 1.343 . S
N1271 C1239 1.343 . S
N1271 C1246 1.343 . S
C1272 C1273 1.384 . S
C1272 C1274 1.384 . S
C1272 H1300 0.931 . S
C1273 C1272 1.384 . S
C1273 C1276 1.382 . S
C1274 C1272 1.384 . S
C1274 C1275 1.381 . S
C1274 H1301 0.930 . S
C1275 C1274 1.381 . S
C1275 C1277 1.381 . S
C1275 C1278 1.487 . S
C1276 C1273 1.382 . S
C1276 C1277 1.387 . S
C1276 H1302 0.930 . S
C1277 C1275 1.381 . S
C1277 C1276 1.387 . S
C1277 H1303 0.931 . S
C1278 C1275 1.487 . S
C1278 C1285 1.399 . S
C1278 N1316 1.343 . S
C1279 C1280 1.384 . S
C1279 C1281 1.384 . S
C1279 H1304 0.931 . S
C1280 C1279 1.384 . S
C1280 C1283 1.382 . S
C1281 C1279 1.384 . S
C1281 C1282 1.381 . S
C1281 H1305 0.930 . S
C1282 C1281 1.381 . S
C1282 C1284 1.381 . S
C1282 C1285 1.487 . S
C1283 C1280 1.382 . S
C1283 C1284 1.387 . S
C1283 H1306 0.930 . S
C1284 C1282 1.381 . S
C1284 C1283 1.387 . S
C1284 H1307 0.931 . S
C1285 C1278 1.399 . S
C1285 C1282 1.487 . S
C1285 N1317 1.343 . S
C1286 C1287 1.384 . S
C1286 C1288 1.384 . S
C1286 H1308 0.931 . S
C1287 C1286 1.384 . S
C1287 C1290 1.382 . S
C1288 C1286 1.384 . S
C1288 C1289 1.381 . S
C1288 H1309 0.930 . S
C1289 C1288 1.381 . S
C1289 C1291 1.381 . S
C1289 C1292 1.487 . S
C1290 C1287 1.382 . S
C1290 C1291 1.387 . S
C1290 H1310 0.930 . S
C1291 C1289 1.381 . S
C1291 C1290 1.387 . S
C1291 H1311 0.931 . S
C1292 C1289 1.487 . S
C1292 C1299 1.399 . S
C1292 N1317 1.343 . S
C1293 C1294 1.384 . S
C1293 C1295 1.384 . S
C1293 H1312 0.931 . S
C1294 C1293 1.384 . S
C1294 C1297 1.382 . S
C1295 C1293 1.384 . S
C1295 C1296 1.381 . S
C1295 H1313 0.930 . S
C1296 C1295 1.381 . S
C1296 C1298 1.381 . S
C1296 C1299 1.487 . S
C1297 C1294 1.382 . S
C1297 C1298 1.387 . S
C1297 H1314 0.930 . S
C1298 C1296 1.381 . S
C1298 C1297 1.387 . S
C1298 H1315 0.931 . S
C1299 C1292 1.399 . S
C1299 C1296 1.487 . S
C1299 N1316 1.343 . S
H1300 C1272 0.931 . S
H1301 C1274 0.930 . S
H1302 C1276 0.930 . S
H1303 C1277 0.931 . S
H1304 C1279 0.931 . S
H1305 C1281 0.930 . S
H1306 C1283 0.930 . S
H1307 C1284 0.931 . S
H1308 C1286 0.931 . S
H1309 C1288 0.930 . S
H1310 C1290 0.930 . S
H1311 C1291 0.931 . S
H1312 C1293 0.931 . S
H1313 C1295 0.930 . S
H1314 C1297 0.930 . S
H1315 C1298 0.931 . S
N1316 C1278 1.343 . S
N1316 C1299 1.343 . S
N1317 C1285 1.343 . S
N1317 C1292 1.343 . S
C1318 C1319 1.384 . S
C1318 C1320 1.384 . S
C1318 H1346 0.931 . S
C1319 C1318 1.384 . S
C1319 C1322 1.382 . S
C1320 C1318 1.384 . S
C1320 C1321 1.381 . S
C1320 H1347 0.930 . S
C1321 C1320 1.381 . S
C1321 C1323 1.381 . S
C1321 C1324 1.487 . S
C1322 C1319 1.382 . S
C1322 C1323 1.387 . S
C1322 H1348 0.930 . S
C1323 C1321 1.381 . S
C1323 C1322 1.387 . S
C1323 H1349 0.931 . S
C1324 C1321 1.487 . S
C1324 C1331 1.399 . S
C1324 N1362 1.343 . S
C1325 C1326 1.384 . S
C1325 C1327 1.384 . S
C1325 H1350 0.931 . S
C1326 C1325 1.384 . S
C1326 C1329 1.382 . S
C1327 C1325 1.384 . S
C1327 C1328 1.381 . S
C1327 H1351 0.930 . S
C1328 C1327 1.381 . S
C1328 C1330 1.381 . S
C1328 C1331 1.487 . S
C1329 C1326 1.382 . S
C1329 C1330 1.387 . S
C1329 H1352 0.930 . S
C1330 C1328 1.381 . S
C1330 C1329 1.387 . S
C1330 H1353 0.931 . S
C1331 C1324 1.399 . S
C1331 C1328 1.487 . S
C1331 N1363 1.343 . S
C1332 C1333 1.384 . S
C1332 C1334 1.384 . S
C1332 H1354 0.931 . S
C1333 C1332 1.384 . S
C1333 C1336 1.382 . S
C1334 C1332 1.384 . S
C1334 C1335 1.381 . S
C1334 H1355 0.930 . S
C1335 C1334 1.381 . S
C1335 C1337 1.381 . S
C1335 C1338 1.487 . S
C1336 C1333 1.382 . S
C1336 C1337 1.387 . S
C1336 H1356 0.930 . S
C1337 C1335 1.381 . S
C1337 C1336 1.387 . S
C1337 H1357 0.931 . S
C1338 C1335 1.487 . S
C1338 C1345 1.399 . S
C1338 N1363 1.343 . S
C1339 C1340 1.384 . S
C1339 C1341 1.384 . S
C1339 H1358 0.931 . S
C1340 C1339 1.384 . S
C1340 C1343 1.382 . S
C1341 C1339 1.384 . S
C1341 C1342 1.381 . S
C1341 H1359 0.930 . S
C1342 C1341 1.381 . S
C1342 C1344 1.381 . S
C1342 C1345 1.487 . S
C1343 C1340 1.382 . S
C1343 C1344 1.387 . S
C1343 H1360 0.930 . S
C1344 C1342 1.381 . S
C1344 C1343 1.387 . S
C1344 H1361 0.931 . S
C1345 C1338 1.399 . S
C1345 C1342 1.487 . S
C1345 N1362 1.343 . S
H1346 C1318 0.931 . S
H1347 C1320 0.930 . S
H1348 C1322 0.930 . S
H1349 C1323 0.931 . S
H1350 C1325 0.931 . S
H1351 C1327 0.930 . S
H1352 C1329 0.930 . S
H1353 C1330 0.931 . S
H1354 C1332 0.931 . S
H1355 C1334 0.930 . S
H1356 C1336 0.930 . S
H1357 C1337 0.931 . S
H1358 C1339 0.931 . S
H1359 C1341 0.930 . S
H1360 C1343 0.930 . S
H1361 C1344 0.931 . S
N1362 C1324 1.343 . S
N1362 C1345 1.343 . S
N1363 C1331 1.343 . S
N1363 C1338 1.343 . S
C1364 C1365 1.384 . S
C1364 C1366 1.384 . S
C1364 H1392 0.931 . S
C1365 C1364 1.384 . S
C1365 C1368 1.382 . S
C1366 C1364 1.384 . S
C1366 C1367 1.381 . S
C1366 H1393 0.930 . S
C1367 C1366 1.381 . S
C1367 C1369 1.381 . S
C1367 C1370 1.487 . S
C1368 C1365 1.382 . S
C1368 C1369 1.387 . S
C1368 H1394 0.930 . S
C1369 C1367 1.381 . S
C1369 C1368 1.387 . S
C1369 H1395 0.931 . S
C1370 C1367 1.487 . S
C1370 C1377 1.399 . S
C1370 N1408 1.343 . S
C1371 C1372 1.384 . S
C1371 C1373 1.384 . S
C1371 H1396 0.931 . S
C1372 C1371 1.384 . S
C1372 C1375 1.382 . S
C1373 C1371 1.384 . S
C1373 C1374 1.381 . S
C1373 H1397 0.930 . S
C1374 C1373 1.381 . S
C1374 C1376 1.381 . S
C1374 C1377 1.487 . S
C1375 C1372 1.382 . S
C1375 C1376 1.387 . S
C1375 H1398 0.930 . S
C1376 C1374 1.381 . S
C1376 C1375 1.387 . S
C1376 H1399 0.931 . S
C1377 C1370 1.399 . S
C1377 C1374 1.487 . S
C1377 N1409 1.343 . S
C1378 C1379 1.384 . S
C1378 C1380 1.384 . S
C1378 H1400 0.931 . S
C1379 C1378 1.384 . S
C1379 C1382 1.382 . S
C1380 C1378 1.384 . S
C1380 C1381 1.381 . S
C1380 H1401 0.930 . S
C1381 C1380 1.381 . S
C1381 C1383 1.381 . S
C1381 C1384 1.487 . S
C1382 C1379 1.382 . S
C1382 C1383 1.387 . S
C1382 H1402 0.930 . S
C1383 C1381 1.381 . S
C1383 C1382 1.387 . S
C1383 H1403 0.931 . S
C1384 C1381 1.487 . S
C1384 C1391 1.399 . S
C1384 N1409 1.343 . S
C1385 C1386 1.384 . S
C1385 C1387 1.384 . S
C1385 H1404 0.931 . S
C1386 C1385 1.384 . S
C1386 C1389 1.382 . S
C1387 C1385 1.384 . S
C1387 C1388 1.381 . S
C1387 H1405 0.930 . S
C1388 C1387 1.381 . S
C1388 C1390 1.381 . S
C1388 C1391 1.487 . S
C1389 C1386 1.382 . S
C1389 C1390 1.387 . S
C1389 H1406 0.930 . S
C1390 C1388 1.381 . S
C1390 C1389 1.387 . S
C1390 H1407 0.931 . S
C1391 C1384 1.399 . S
C1391 C1388 1.487 . S
C1391 N1408 1.343 . S
H1392 C1364 0.931 . S
H1393 C1366 0.930 . S
H1394 C1368 0.930 . S
H1395 C1369 0.931 . S
H1396 C1371 0.931 . S
H1397 C1373 0.930 . S
H1398 C1375 0.930 . S
H1399 C1376 0.931 . S
H1400 C1378 0.931 . S
H1401 C1380 0.930 . S
H1402 C1382 0.930 . S
H1403 C1383 0.931 . S
H1404 C1385 0.931 . S
H1405 C1387 0.930 . S
H1406 C1389 0.930 . S
H1407 C1390 0.931 . S
N1408 C1370 1.343 . S
N1408 C1391 1.343 . S
N1409 C1377 1.343 . S
N1409 C1384 1.343 . S
C1410 C1411 1.384 . S
C1410 C1412 1.384 . S
C1410 H1438 0.931 . S
C1411 C1410 1.384 . S
C1411 C1414 1.382 . S
C1412 C1410 1.384 . S
C1412 C1413 1.381 . S
C1412 H1439 0.930 . S
C1413 C1412 1.381 . S
C1413 C1415 1.381 . S
C1413 C1416 1.487 . S
C1414 C1411 1.382 . S
C1414 C1415 1.387 . S
C1414 H1440 0.930 . S
C1415 C1413 1.381 . S
C1415 C1414 1.387 . S
C1415 H1441 0.931 . S
C1416 C1413 1.487 . S
C1416 C1423 1.399 . S
C1416 N1454 1.343 . S
C1417 C1418 1.384 . S
C1417 C1419 1.384 . S
C1417 H1442 0.931 . S
C1418 C1417 1.384 . S
C1418 C1421 1.382 . S
C1419 C1417 1.384 . S
C1419 C1420 1.381 . S
C1419 H1443 0.930 . S
C1420 C1419 1.381 . S
C1420 C1422 1.381 . S
C1420 C1423 1.487 . S
C1421 C1418 1.382 . S
C1421 C1422 1.387 . S
C1421 H1444 0.930 . S
C1422 C1420 1.381 . S
C1422 C1421 1.387 . S
C1422 H1445 0.931 . S
C1423 C1416 1.399 . S
C1423 C1420 1.487 . S
C1423 N1455 1.343 . S
C1424 C1425 1.384 . S
C1424 C1426 1.384 . S
C1424 H1446 0.931 . S
C1425 C1424 1.384 . S
C1425 C1428 1.382 . S
C1426 C1424 1.384 . S
C1426 C1427 1.381 . S
C1426 H1447 0.930 . S
C1427 C1426 1.381 . S
C1427 C1429 1.381 . S
C1427 C1430 1.487 . S
C1428 C1425 1.382 . S
C1428 C1429 1.387 . S
C1428 H1448 0.930 . S
C1429 C1427 1.381 . S
C1429 C1428 1.387 . S
C1429 H1449 0.931 . S
C1430 C1427 1.487 . S
C1430 C1437 1.399 . S
C1430 N1455 1.343 . S
C1431 C1432 1.384 . S
C1431 C1433 1.384 . S
C1431 H1450 0.931 . S
C1432 C1431 1.384 . S
C1432 C1435 1.382 . S
C1433 C1431 1.384 . S
C1433 C1434 1.381 . S
C1433 H1451 0.930 . S
C1434 C1433 1.381 . S
C1434 C1436 1.381 . S
C1434 C1437 1.487 . S
C1435 C1432 1.382 . S
C1435 C1436 1.387 . S
C1435 H1452 0.930 . S
C1436 C1434 1.381 . S
C1436 C1435 1.387 . S
C1436 H1453 0.931 . S
C1437 C1430 1.399 . S
C1437 C1434 1.487 . S
C1437 N1454 1.343 . S
H1438 C1410 0.931 . S
H1439 C1412 0.930 . S
H1440 C1414 0.930 . S
H1441 C1415 0.931 . S
H1442 C1417 0.931 . S
H1443 C1419 0.930 . S
H1444 C1421 0.930 . S
H1445 C1422 0.931 . S
H1446 C1424 0.931 . S
H1447 C1426 0.930 . S
H1448 C1428 0.930 . S
H1449 C1429 0.931 . S
H1450 C1431 0.931 . S
H1451 C1433 0.930 . S
H1452 C1435 0.930 . S
H1453 C1436 0.931 . S
N1454 C1416 1.343 . S
N1454 C1437 1.343 . S
N1455 C1423 1.343 . S
N1455 C1430 1.343 . S
H1456 C1464 0.950 . S
H1457 C1469 0.950 . S
H1458 C1466 0.950 . S
H1459 C1468 0.950 . S
H1460 C1470 0.950 . S
H1461 C1472 0.950 . S
H1462 C1474 0.950 . S
H1463 C1475 0.950 . S
C1464 H1456 0.950 . S
C1464 C1465 1.386 . S
C1464 C1466 1.391 . S
C1465 C1464 1.386 . S
C1465 C1469 1.393 . S
C1466 H1458 0.950 . S
C1466 C1464 1.391 . S
C1466 C1467 1.400 . S
C1467 C1466 1.400 . S
C1467 C1468 1.398 . S
C1467 C1473 1.491 . S
C1468 H1459 0.950 . S
C1468 C1467 1.398 . S
C1468 C1469 1.391 . S
C1469 H1457 0.950 . S
C1469 C1465 1.393 . S
C1469 C1468 1.391 . S
C1470 H1460 0.950 . S
C1470 C1471 1.386 . S
C1470 C1472 1.391 . S
C1471 C1470 1.386 . S
C1471 C1475 1.393 . S
C1472 H1461 0.950 . S
C1472 C1470 1.391 . S
C1472 C1473 1.400 . S
C1473 C1467 1.491 . S
C1473 C1472 1.400 . S
C1473 C1474 1.398 . S
C1474 H1462 0.950 . S
C1474 C1473 1.398 . S
C1474 C1475 1.391 . S
C1475 H1463 0.950 . S
C1475 C1471 1.393 . S
C1475 C1474 1.391 . S
H1476 C1484 0.950 . S
H1477 C1489 0.950 . S
H1478 C1486 0.950 . S
H1479 C1488 0.950 . S
H1480 C1490 0.950 . S
H1481 C1492 0.950 . S
H1482 C1494 0.950 . S
H1483 C1495 0.950 . S
C1484 H1476 0.950 . S
C1484 C1485 1.386 . S
C1484 C1486 1.391 . S
C1485 C1484 1.386 . S
C1485 C1489 1.393 . S
C1486 H1478 0.950 . S
C1486 C1484 1.391 . S
C1486 C1487 1.400 . S
C1487 C1486 1.400 . S
C1487 C1488 1.398 . S
C1487 C1493 1.491 . S
C1488 H1479 0.950 . S
C1488 C1487 1.398 . S
C1488 C1489 1.391 . S
C1489 H1477 0.950 . S
C1489 C1485 1.393 . S
C1489 C1488 1.391 . S
C1490 H1480 0.950 . S
C1490 C1491 1.386 . S
C1490 C1492 1.391 . S
C1491 C1490 1.386 . S
C1491 C1495 1.393 . S
C1492 H1481 0.950 . S
C1492 C1490 1.391 . S
C1492 C1493 1.400 . S
C1493 C1487 1.491 . S
C1493 C1492 1.400 . S
C1493 C1494 1.398 . S
C1494 H1482 0.950 . S
C1494 C1493 1.398 . S
C1494 C1495 1.391 . S
C1495 H1483 0.950 . S
C1495 C1491 1.393 . S
C1495 C1494 1.391 . S
H1496 C1504 0.950 . S
H1497 C1509 0.950 . S
H1498 C1506 0.950 . S
H1499 C1508 0.950 . S
H1500 C1510 0.950 . S
H1501 C1512 0.950 . S
H1502 C1514 0.950 . S
H1503 C1515 0.950 . S
C1504 H1496 0.950 . S
C1504 C1505 1.386 . S
C1504 C1506 1.391 . S
C1505 C1504 1.386 . S
C1505 C1509 1.393 . S
C1506 H1498 0.950 . S
C1506 C1504 1.391 . S
C1506 C1507 1.400 . S
C1507 C1506 1.400 . S
C1507 C1508 1.398 . S
C1507 C1513 1.491 . S
C1508 H1499 0.950 . S
C1508 C1507 1.398 . S
C1508 C1509 1.391 . S
C1509 H1497 0.950 . S
C1509 C1505 1.393 . S
C1509 C1508 1.391 . S
C1510 H1500 0.950 . S
C1510 C1511 1.386 . S
C1510 C1512 1.391 . S
C1511 C1510 1.386 . S
C1511 C1515 1.393 . S
C1512 H1501 0.950 . S
C1512 C1510 1.391 . S
C1512 C1513 1.400 . S
C1513 C1507 1.491 . S
C1513 C1512 1.400 . S
C1513 C1514 1.398 . S
C1514 H1502 0.950 . S
C1514 C1513 1.398 . S
C1514 C1515 1.391 . S
C1515 H1503 0.950 . S
C1515 C1511 1.393 . S
C1515 C1514 1.391 . S
H1516 C1524 0.950 . S
H1517 C1529 0.950 . S
H1518 C1526 0.950 . S
H1519 C1528 0.950 . S
H1520 C1530 0.950 . S
H1521 C1532 0.950 . S
H1522 C1534 0.950 . S
H1523 C1535 0.950 . S
C1524 H1516 0.950 . S
C1524 C1525 1.386 . S
C1524 C1526 1.391 . S
C1525 C1524 1.386 . S
C1525 C1529 1.393 . S
C1526 H1518 0.950 . S
C1526 C1524 1.391 . S
C1526 C1527 1.400 . S
C1527 C1526 1.400 . S
C1527 C1528 1.398 . S
C1527 C1533 1.491 . S
C1528 H1519 0.950 . S
C1528 C1527 1.398 . S
C1528 C1529 1.391 . S
C1529 H1517 0.950 . S
C1529 C1525 1.393 . S
C1529 C1528 1.391 . S
C1530 H1520 0.950 . S
C1530 C1531 1.386 . S
C1530 C1532 1.391 . S
C1531 C1530 1.386 . S
C1531 C1535 1.393 . S
C1532 H1521 0.950 . S
C1532 C1530 1.391 . S
C1532 C1533 1.400 . S
C1533 C1527 1.491 . S
C1533 C1532 1.400 . S
C1533 C1534 1.398 . S
C1534 H1522 0.950 . S
C1534 C1533 1.398 . S
C1534 C1535 1.391 . S
C1535 H1523 0.950 . S
C1535 C1531 1.393 . S
C1535 C1534 1.391 . S
H1536 C1544 0.950 . S
H1537 C1549 0.950 . S
H1538 C1546 0.950 . S
H1539 C1548 0.950 . S
H1540 C1550 0.950 . S
H1541 C1552 0.950 . S
H1542 C1554 0.950 . S
H1543 C1555 0.950 . S
C1544 H1536 0.950 . S
C1544 C1545 1.386 . S
C1544 C1546 1.391 . S
C1545 C1544 1.386 . S
C1545 C1549 1.393 . S
C1546 H1538 0.950 . S
C1546 C1544 1.391 . S
C1546 C1547 1.400 . S
C1547 C1546 1.400 . S
C1547 C1548 1.398 . S
C1547 C1553 1.491 . S
C1548 H1539 0.950 . S
C1548 C1547 1.398 . S
C1548 C1549 1.391 . S
C1549 H1537 0.950 . S
C1549 C1545 1.393 . S
C1549 C1548 1.391 . S
C1550 H1540 0.950 . S
C1550 C1551 1.386 . S
C1550 C1552 1.391 . S
C1551 C1550 1.386 . S
C1551 C1555 1.393 . S
C1552 H1541 0.950 . S
C1552 C1550 1.391 . S
C1552 C1553 1.400 . S
C1553 C1547 1.491 . S
C1553 C1552 1.400 . S
C1553 C1554 1.398 . S
C1554 H1542 0.950 . S
C1554 C1553 1.398 . S
C1554 C1555 1.391 . S
C1555 H1543 0.950 . S
C1555 C1551 1.393 . S
C1555 C1554 1.391 . S
H1556 C1564 0.950 . S
H1557 C1569 0.950 . S
H1558 C1566 0.950 . S
H1559 C1568 0.950 . S
H1560 C1570 0.950 . S
H1561 C1572 0.950 . S
H1562 C1574 0.950 . S
H1563 C1575 0.950 . S
C1564 H1556 0.950 . S
C1564 C1565 1.386 . S
C1564 C1566 1.391 . S
C1565 C1564 1.386 . S
C1565 C1569 1.393 . S
C1566 H1558 0.950 . S
C1566 C1564 1.391 . S
C1566 C1567 1.400 . S
C1567 C1566 1.400 . S
C1567 C1568 1.398 . S
C1567 C1573 1.491 . S
C1568 H1559 0.950 . S
C1568 C1567 1.398 . S
C1568 C1569 1.391 . S
C1569 H1557 0.950 . S
C1569 C1565 1.393 . S
C1569 C1568 1.391 . S
C1570 H1560 0.950 . S
C1570 C1571 1.386 . S
C1570 C1572 1.391 . S
C1571 C1570 1.386 . S
C1571 C1575 1.393 . S
C1572 H1561 0.950 . S
C1572 C1570 1.391 . S
C1572 C1573 1.400 . S
C1573 C1567 1.491 . S
C1573 C1572 1.400 . S
C1573 C1574 1.398 . S
C1574 H1562 0.950 . S
C1574 C1573 1.398 . S
C1574 C1575 1.391 . S
C1575 H1563 0.950 . S
C1575 C1571 1.393 . S
C1575 C1574 1.391 . S
H1576 C1584 0.950 . S
H1577 C1589 0.950 . S
H1578 C1586 0.950 . S
H1579 C1588 0.950 . S
H1580 C1590 0.950 . S
H1581 C1592 0.950 . S
H1582 C1594 0.950 . S
H1583 C1595 0.950 . S
C1584 H1576 0.950 . S
C1584 C1585 1.386 . S
C1584 C1586 1.391 . S
C1585 C1584 1.386 . S
C1585 C1589 1.393 . S
C1586 H1578 0.950 . S
C1586 C1584 1.391 . S
C1586 C1587 1.400 . S
C1587 C1586 1.400 . S
C1587 C1588 1.398 . S
C1587 C1593 1.491 . S
C1588 H1579 0.950 . S
C1588 C1587 1.398 . S
C1588 C1589 1.391 . S
C1589 H1577 0.950 . S
C1589 C1585 1.393 . S
C1589 C1588 1.391 . S
C1590 H1580 0.950 . S
C1590 C1591 1.386 . S
C1590 C1592 1.391 . S
C1591 C1590 1.386 . S
C1591 C1595 1.393 . S
C1592 H1581 0.950 . S
C1592 C1590 1.391 . S
C1592 C1593 1.400 . S
C1593 C1587 1.491 . S
C1593 C1592 1.400 . S
C1593 C1594 1.398 . S
C1594 H1582 0.950 . S
C1594 C1593 1.398 . S
C1594 C1595 1.391 . S
C1595 H1583 0.950 . S
C1595 C1591 1.393 . S
C1595 C1594 1.391 . S
H1596 C1604 0.950 . S
H1597 C1609 0.950 . S
H1598 C1606 0.950 . S
H1599 C1608 0.950 . S
H1600 C1610 0.950 . S
H1601 C1612 0.950 . S
H1602 C1614 0.950 . S
H1603 C1615 0.950 . S
C1604 H1596 0.950 . S
C1604 C1605 1.386 . S
C1604 C1606 1.391 . S
C1605 C1604 1.386 . S
C1605 C1609 1.393 . S
C1606 H1598 0.950 . S
C1606 C1604 1.391 . S
C1606 C1607 1.400 . S
C1607 C1606 1.400 . S
C1607 C1608 1.398 . S
C1607 C1613 1.491 . S
C1608 H1599 0.950 . S
C1608 C1607 1.398 . S
C1608 C1609 1.391 . S
C1609 H1597 0.950 . S
C1609 C1605 1.393 . S
C1609 C1608 1.391 . S
C1610 H1600 0.950 . S
C1610 C1611 1.386 . S
C1610 C1612 1.391 . S
C1611 C1610 1.386 . S
C1611 C1615 1.393 . S
C1612 H1601 0.950 . S
C1612 C1610 1.391 . S
C1612 C1613 1.400 . S
C1613 C1607 1.491 . S
C1613 C1612 1.400 . S
C1613 C1614 1.398 . S
C1614 H1602 0.950 . S
C1614 C1613 1.398 . S
C1614 C1615 1.391 . S
C1615 H1603 0.950 . S
C1615 C1611 1.393 . S
C1615 C1614 1.391 . S
H1616 C1624 0.950 . S
H1617 C1629 0.950 . S
H1618 C1626 0.950 . S
H1619 C1628 0.950 . S
H1620 C1630 0.950 . S
H1621 C1632 0.950 . S
H1622 C1634 0.950 . S
H1623 C1635 0.950 . S
C1624 H1616 0.950 . S
C1624 C1625 1.386 . S
C1624 C1626 1.391 . S
C1625 C1624 1.386 . S
C1625 C1629 1.393 . S
C1626 H1618 0.950 . S
C1626 C1624 1.391 . S
C1626 C1627 1.400 . S
C1627 C1626 1.400 . S
C1627 C1628 1.398 . S
C1627 C1633 1.491 . S
C1628 H1619 0.950 . S
C1628 C1627 1.398 . S
C1628 C1629 1.391 . S
C1629 H1617 0.950 . S
C1629 C1625 1.393 . S
C1629 C1628 1.391 . S
C1630 H1620 0.950 . S
C1630 C1631 1.386 . S
C1630 C1632 1.391 . S
C1631 C1630 1.386 . S
C1631 C1635 1.393 . S
C1632 H1621 0.950 . S
C1632 C1630 1.391 . S
C1632 C1633 1.400 . S
C1633 C1627 1.491 . S
C1633 C1632 1.400 . S
C1633 C1634 1.398 . S
C1634 H1622 0.950 . S
C1634 C1633 1.398 . S
C1634 C1635 1.391 . S
C1635 H1623 0.950 . S
C1635 C1631 1.393 . S
C1635 C1634 1.391 . S
H1636 C1644 0.950 . S
H1637 C1649 0.950 . S
H1638 C1646 0.950 . S
H1639 C1648 0.950 . S
H1640 C1650 0.950 . S
H1641 C1652 0.950 . S
H1642 C1654 0.950 . S
H1643 C1655 0.950 . S
C1644 H1636 0.950 . S
C1644 C1645 1.386 . S
C1644 C1646 1.391 . S
C1645 C1644 1.386 . S
C1645 C1649 1.393 . S
C1646 H1638 0.950 . S
C1646 C1644 1.391 . S
C1646 C1647 1.400 . S
C1647 C1646 1.400 . S
C1647 C1648 1.398 . S
C1647 C1653 1.491 . S
C1648 H1639 0.950 . S
C1648 C1647 1.398 . S
C1648 C1649 1.391 . S
C1649 H1637 0.950 . S
C1649 C1645 1.393 . S
C1649 C1648 1.391 . S
C1650 H1640 0.950 . S
C1650 C1651 1.386 . S
C1650 C1652 1.391 . S
C1651 C1650 1.386 . S
C1651 C1655 1.393 . S
C1652 H1641 0.950 . S
C1652 C1650 1.391 . S
C1652 C1653 1.400 . S
C1653 C1647 1.491 . S
C1653 C1652 1.400 . S
C1653 C1654 1.398 . S
C1654 H1642 0.950 . S
C1654 C1653 1.398 . S
C1654 C1655 1.391 . S
C1655 H1643 0.950 . S
C1655 C1651 1.393 . S
C1655 C1654 1.391 . S
H1656 C1664 0.950 . S
H1657 C1669 0.950 . S
H1658 C1666 0.950 . S
H1659 C1668 0.950 . S
H1660 C1670 0.950 . S
H1661 C1672 0.950 . S
H1662 C1674 0.950 . S
H1663 C1675 0.908 1_455 S
C1664 H1656 0.950 . S
C1664 C1665 1.386 . S
C1664 C1666 1.391 . S
C1665 C1664 1.386 . S
C1665 C1669 1.393 . S
C1666 H1658 0.950 . S
C1666 C1664 1.391 . S
C1666 C1667 1.400 . S
C1667 C1666 1.400 . S
C1667 C1668 1.398 . S
C1667 C1673 1.491 . S
C1668 H1659 0.950 . S
C1668 C1667 1.398 . S
C1668 C1669 1.391 . S
C1669 H1657 0.950 . S
C1669 C1665 1.393 . S
C1669 C1668 1.391 . S
C1670 H1660 0.950 . S
C1670 C1671 1.386 . S
C1670 C1672 1.391 . S
C1671 C1670 1.386 . S
C1671 C1675 1.398 . S
C1672 H1661 0.950 . S
C1672 C1670 1.391 . S
C1672 C1673 1.400 . S
C1673 C1667 1.491 . S
C1673 C1672 1.400 . S
C1673 C1674 1.398 . S
C1674 H1662 0.950 . S
C1674 C1673 1.398 . S
C1674 C1675 1.429 . S
C1675 H1663 0.908 1_655 S
C1675 C1671 1.398 . S
C1675 C1674 1.429 . S
H1676 C1684 0.950 . S
H1677 C1689 0.950 . S
H1678 C1686 0.950 . S
H1679 C1688 0.950 . S
H1680 C1690 0.950 . S
H1681 C1692 0.950 . S
H1682 C1694 0.950 . S
H1683 C1695 0.950 . S
C1684 H1676 0.950 . S
C1684 C1685 1.386 . S
C1684 C1686 1.391 . S
C1685 C1684 1.386 . S
C1685 C1689 1.393 . S
C1686 H1678 0.950 . S
C1686 C1684 1.391 . S
C1686 C1687 1.400 . S
C1687 C1686 1.400 . S
C1687 C1688 1.398 . S
C1687 C1693 1.491 . S
C1688 H1679 0.950 . S
C1688 C1687 1.398 . S
C1688 C1689 1.391 . S
C1689 H1677 0.950 . S
C1689 C1685 1.393 . S
C1689 C1688 1.391 . S
C1690 H1680 0.950 . S
C1690 C1691 1.386 . S
C1690 C1692 1.391 . S
C1691 C1690 1.386 . S
C1691 C1695 1.393 . S
C1692 H1681 0.950 . S
C1692 C1690 1.391 . S
C1692 C1693 1.400 . S
C1693 C1687 1.491 . S
C1693 C1692 1.400 . S
C1693 C1694 1.398 . S
C1694 H1682 0.950 . S
C1694 C1693 1.398 . S
C1694 C1695 1.391 . S
C1695 H1683 0.950 . S
C1695 C1691 1.393 . S
C1695 C1694 1.391 . S
H1696 C1704 0.950 . S
H1697 C1709 0.950 . S
H1698 C1706 0.950 . S
H1699 C1708 0.950 . S
H1700 C1710 0.950 . S
H1701 C1712 0.950 . S
H1702 C1714 0.950 . S
H1703 C1715 0.950 . S
C1704 H1696 0.950 . S
C1704 C1705 1.386 . S
C1704 C1706 1.391 . S
C1705 C1704 1.386 . S
C1705 C1709 1.393 . S
C1706 H1698 0.950 . S
C1706 C1704 1.391 . S
C1706 C1707 1.400 . S
C1707 C1706 1.400 . S
C1707 C1708 1.398 . S
C1707 C1713 1.491 . S
C1708 H1699 0.950 . S
C1708 C1707 1.398 . S
C1708 C1709 1.391 . S
C1709 H1697 0.950 . S
C1709 C1705 1.393 . S
C1709 C1708 1.391 . S
C1710 H1700 0.950 . S
C1710 C1711 1.386 . S
C1710 C1712 1.391 . S
C1711 C1710 1.386 . S
C1711 C1715 1.393 . S
C1712 H1701 0.950 . S
C1712 C1710 1.391 . S
C1712 C1713 1.400 . S
C1713 C1707 1.491 . S
C1713 C1712 1.400 . S
C1713 C1714 1.398 . S
C1714 H1702 0.950 . S
C1714 C1713 1.398 . S
C1714 C1715 1.391 . S
C1715 H1703 0.950 . S
C1715 C1711 1.393 . S
C1715 C1714 1.391 . S
H1716 C1724 0.950 . S
H1717 C1729 0.950 . S
H1718 C1726 0.950 . S
H1719 C1728 0.950 . S
H1720 C1730 0.950 . S
H1721 C1732 0.950 . S
H1722 C1734 0.950 . S
H1723 C1735 0.950 . S
C1724 H1716 0.950 . S
C1724 C1725 1.386 . S
C1724 C1726 1.391 . S
C1725 C1724 1.386 . S
C1725 C1729 1.393 . S
C1726 H1718 0.950 . S
C1726 C1724 1.391 . S
C1726 C1727 1.400 . S
C1727 C1726 1.400 . S
C1727 C1728 1.398 . S
C1727 C1733 1.491 . S
C1728 H1719 0.950 . S
C1728 C1727 1.398 . S
C1728 C1729 1.391 . S
C1729 H1717 0.950 . S
C1729 C1725 1.393 . S
C1729 C1728 1.391 . S
C1730 H1720 0.950 . S
C1730 C1731 1.386 . S
C1730 C1732 1.391 . S
C1731 C1730 1.386 . S
C1731 C1735 1.393 . S
C1732 H1721 0.950 . S
C1732 C1730 1.391 . S
C1732 C1733 1.400 . S
C1733 C1727 1.491 . S
C1733 C1732 1.400 . S
C1733 C1734 1.398 . S
C1734 H1722 0.950 . S
C1734 C1733 1.398 . S
C1734 C1735 1.391 . S
C1735 H1723 0.950 . S
C1735 C1731 1.393 . S
C1735 C1734 1.391 . S
H1736 C1744 0.950 . S
H1737 C1749 0.950 . S
H1738 C1746 0.950 . S
H1739 C1748 0.950 . S
H1740 C1750 0.950 . S
H1741 C1752 0.950 . S
H1742 C1754 0.950 . S
H1743 C1755 0.950 . S
C1744 H1736 0.950 . S
C1744 C1745 1.386 . S
C1744 C1746 1.391 . S
C1745 C1744 1.386 . S
C1745 C1749 1.393 . S
C1746 H1738 0.950 . S
C1746 C1744 1.391 . S
C1746 C1747 1.400 . S
C1747 C1746 1.400 . S
C1747 C1748 1.398 . S
C1747 C1753 1.491 . S
C1748 H1739 0.950 . S
C1748 C1747 1.398 . S
C1748 C1749 1.391 . S
C1749 H1737 0.950 . S
C1749 C1745 1.393 . S
C1749 C1748 1.391 . S
C1750 H1740 0.950 . S
C1750 C1751 1.386 . S
C1750 C1752 1.391 . S
C1751 C1750 1.386 . S
C1751 C1755 1.393 . S
C1752 H1741 0.950 . S
C1752 C1750 1.391 . S
C1752 C1753 1.400 . S
C1753 C1747 1.491 . S
C1753 C1752 1.400 . S
C1753 C1754 1.398 . S
C1754 H1742 0.950 . S
C1754 C1753 1.398 . S
C1754 C1755 1.391 . S
C1755 H1743 0.950 . S
C1755 C1751 1.393 . S
C1755 C1754 1.391 . S
H1756 C1764 0.950 . S
H1757 C1769 0.950 . S
H1758 C1766 0.950 . S
H1759 C1768 0.950 . S
H1760 C1770 0.950 . S
H1761 C1772 0.950 . S
H1762 C1774 0.950 . S
H1763 C1775 0.950 . S
C1764 H1756 0.950 . S
C1764 C1765 1.386 . S
C1764 C1766 1.391 . S
C1765 C1764 1.386 . S
C1765 C1769 1.393 . S
C1766 H1758 0.950 . S
C1766 C1764 1.391 . S
C1766 C1767 1.400 . S
C1767 C1766 1.400 . S
C1767 C1768 1.398 . S
C1767 C1773 1.491 . S
C1768 H1759 0.950 . S
C1768 C1767 1.398 . S
C1768 C1769 1.391 . S
C1769 H1757 0.950 . S
C1769 C1765 1.393 . S
C1769 C1768 1.391 . S
C1770 H1760 0.950 . S
C1770 C1771 1.386 . S
C1770 C1772 1.391 . S
C1771 C1770 1.386 . S
C1771 C1775 1.393 . S
C1772 H1761 0.950 . S
C1772 C1770 1.391 . S
C1772 C1773 1.400 . S
C1773 C1767 1.491 . S
C1773 C1772 1.400 . S
C1773 C1774 1.398 . S
C1774 H1762 0.950 . S
C1774 C1773 1.398 . S
C1774 C1775 1.391 . S
C1775 H1763 0.950 . S
C1775 C1771 1.393 . S
C1775 C1774 1.391 . S
H1776 C1784 0.950 . S
H1777 C1789 0.950 . S
H1778 C1786 0.950 . S
H1779 C1788 0.950 . S
H1780 C1790 0.950 . S
H1781 C1792 0.950 . S
H1782 C1794 0.950 . S
H1783 C1795 0.950 . S
C1784 H1776 0.950 . S
C1784 C1785 1.386 . S
C1784 C1786 1.391 . S
C1785 C1784 1.386 . S
C1785 C1789 1.393 . S
C1786 H1778 0.950 . S
C1786 C1784 1.391 . S
C1786 C1787 1.400 . S
C1787 C1786 1.400 . S
C1787 C1788 1.398 . S
C1787 C1793 1.491 . S
C1788 H1779 0.950 . S
C1788 C1787 1.398 . S
C1788 C1789 1.391 . S
C1789 H1777 0.950 . S
C1789 C1785 1.393 . S
C1789 C1788 1.391 . S
C1790 H1780 0.950 . S
C1790 C1791 1.386 . S
C1790 C1792 1.391 . S
C1791 C1790 1.386 . S
C1791 C1795 1.393 . S
C1792 H1781 0.950 . S
C1792 C1790 1.391 . S
C1792 C1793 1.400 . S
C1793 C1787 1.491 . S
C1793 C1792 1.400 . S
C1793 C1794 1.398 . S
C1794 H1782 0.950 . S
C1794 C1793 1.398 . S
C1794 C1795 1.391 . S
C1795 H1783 0.950 . S
C1795 C1791 1.393 . S
C1795 C1794 1.391 . S
H1796 C1804 0.950 . S
H1797 C1809 0.950 . S
H1798 C1806 0.950 . S
H1799 C1808 0.950 . S
H1800 C1810 0.950 . S
H1801 C1812 0.950 . S
H1802 C1814 0.950 . S
H1803 C1815 0.950 . S
C1804 H1796 0.950 . S
C1804 C1805 1.386 . S
C1804 C1806 1.391 . S
C1805 C1804 1.386 . S
C1805 C1809 1.393 . S
C1806 H1798 0.950 . S
C1806 C1804 1.391 . S
C1806 C1807 1.400 . S
C1807 C1806 1.400 . S
C1807 C1808 1.398 . S
C1807 C1813 1.491 . S
C1808 H1799 0.950 . S
C1808 C1807 1.398 . S
C1808 C1809 1.391 . S
C1809 H1797 0.950 . S
C1809 C1805 1.393 . S
C1809 C1808 1.391 . S
C1810 H1800 0.950 . S
C1810 C1811 1.386 . S
C1810 C1812 1.391 . S
C1811 C1810 1.386 . S
C1811 C1815 1.393 . S
C1812 H1801 0.950 . S
C1812 C1810 1.391 . S
C1812 C1813 1.400 . S
C1813 C1807 1.491 . S
C1813 C1812 1.400 . S
C1813 C1814 1.398 . S
C1814 H1802 0.950 . S
C1814 C1813 1.398 . S
C1814 C1815 1.391 . S
C1815 H1803 0.950 . S
C1815 C1811 1.393 . S
C1815 C1814 1.391 . S
H1816 C1824 0.950 . S
H1817 C1829 0.950 . S
H1818 C1826 0.950 . S
H1819 C1828 0.950 . S
H1820 C1830 0.950 . S
H1821 C1832 0.950 . S
H1822 C1834 0.950 . S
H1823 C1835 0.950 . S
C1824 H1816 0.950 . S
C1824 C1825 1.386 . S
C1824 C1826 1.391 . S
C1825 C1824 1.386 . S
C1825 C1829 1.393 . S
C1826 H1818 0.950 . S
C1826 C1824 1.391 . S
C1826 C1827 1.400 . S
C1827 C1826 1.400 . S
C1827 C1828 1.398 . S
C1827 C1833 1.491 . S
C1828 H1819 0.950 . S
C1828 C1827 1.398 . S
C1828 C1829 1.391 . S
C1829 H1817 0.950 . S
C1829 C1825 1.393 . S
C1829 C1828 1.391 . S
C1830 H1820 0.950 . S
C1830 C1831 1.386 . S
C1830 C1832 1.391 . S
C1831 C1830 1.386 . S
C1831 C1835 1.393 . S
C1832 H1821 0.950 . S
C1832 C1830 1.391 . S
C1832 C1833 1.400 . S
C1833 C1827 1.491 . S
C1833 C1832 1.400 . S
C1833 C1834 1.398 . S
C1834 H1822 0.950 . S
C1834 C1833 1.398 . S
C1834 C1835 1.391 . S
C1835 H1823 0.950 . S
C1835 C1831 1.393 . S
C1835 C1834 1.391 . S
H1836 C1844 0.950 . S
H1837 C1849 0.950 . S
H1838 C1846 0.950 . S
H1839 C1848 0.950 . S
H1840 C1850 0.950 . S
H1841 C1852 0.950 . S
H1842 C1854 0.950 . S
H1843 C1855 0.950 . S
C1844 H1836 0.950 . S
C1844 C1845 1.386 . S
C1844 C1846 1.391 . S
C1845 C1844 1.386 . S
C1845 C1849 1.393 . S
C1846 H1838 0.950 . S
C1846 C1844 1.391 . S
C1846 C1847 1.400 . S
C1847 C1846 1.400 . S
C1847 C1848 1.398 . S
C1847 C1853 1.491 . S
C1848 H1839 0.950 . S
C1848 C1847 1.398 . S
C1848 C1849 1.391 . S
C1849 H1837 0.950 . S
C1849 C1845 1.393 . S
C1849 C1848 1.391 . S
C1850 H1840 0.950 . S
C1850 C1851 1.386 . S
C1850 C1852 1.391 . S
C1851 C1850 1.386 . S
C1851 C1855 1.393 . S
C1852 H1841 0.950 . S
C1852 C1850 1.391 . S
C1852 C1853 1.400 . S
C1853 C1847 1.491 . S
C1853 C1852 1.400 . S
C1853 C1854 1.398 . S
C1854 H1842 0.950 . S
C1854 C1853 1.398 . S
C1854 C1855 1.391 . S
C1855 H1843 0.950 . S
C1855 C1851 1.393 . S
C1855 C1854 1.391 . S
H1856 C1864 0.950 . S
H1857 C1869 0.950 . S
H1858 C1866 0.950 . S
H1859 C1868 0.950 . S
H1860 C1870 0.950 . S
H1861 C1872 0.950 . S
H1862 C1874 0.950 . S
H1863 C1875 0.950 . S
C1864 H1856 0.950 . S
C1864 C1865 1.386 . S
C1864 C1866 1.391 . S
C1865 C1864 1.386 . S
C1865 C1869 1.393 . S
C1866 H1858 0.950 . S
C1866 C1864 1.391 . S
C1866 C1867 1.400 . S
C1867 C1866 1.400 . S
C1867 C1868 1.398 . S
C1867 C1873 1.491 . S
C1868 H1859 0.950 . S
C1868 C1867 1.398 . S
C1868 C1869 1.391 . S
C1869 H1857 0.950 . S
C1869 C1865 1.393 . S
C1869 C1868 1.391 . S
C1870 H1860 0.950 . S
C1870 C1871 1.386 . S
C1870 C1872 1.391 . S
C1871 C1870 1.386 . S
C1871 C1875 1.393 . S
C1872 H1861 0.950 . S
C1872 C1870 1.391 . S
C1872 C1873 1.400 . S
C1873 C1867 1.491 . S
C1873 C1872 1.400 . S
C1873 C1874 1.398 . S
C1874 H1862 0.950 . S
C1874 C1873 1.398 . S
C1874 C1875 1.391 . S
C1875 H1863 0.950 . S
C1875 C1871 1.393 . S
C1875 C1874 1.391 . S
H1876 C1884 0.950 . S
H1877 C1889 0.950 . S
H1878 C1886 0.950 . S
H1879 C1888 0.950 . S
H1880 C1890 0.950 . S
H1881 C1892 0.950 . S
H1882 C1894 0.950 . S
H1883 C1895 0.950 . S
C1884 H1876 0.950 . S
C1884 C1885 1.386 . S
C1884 C1886 1.391 . S
C1885 C1884 1.386 . S
C1885 C1889 1.393 . S
C1886 H1878 0.950 . S
C1886 C1884 1.391 . S
C1886 C1887 1.400 . S
C1887 C1886 1.400 . S
C1887 C1888 1.398 . S
C1887 C1893 1.491 . S
C1888 H1879 0.950 . S
C1888 C1887 1.398 . S
C1888 C1889 1.391 . S
C1889 H1877 0.950 . S
C1889 C1885 1.393 . S
C1889 C1888 1.391 . S
C1890 H1880 0.950 . S
C1890 C1891 1.386 . S
C1890 C1892 1.391 . S
C1891 C1890 1.386 . S
C1891 C1895 1.393 . S
C1892 H1881 0.950 . S
C1892 C1890 1.391 . S
C1892 C1893 1.400 . S
C1893 C1887 1.491 . S
C1893 C1892 1.400 . S
C1893 C1894 1.398 . S
C1894 H1882 0.950 . S
C1894 C1893 1.398 . S
C1894 C1895 1.391 . S
C1895 H1883 0.950 . S
C1895 C1891 1.393 . S
C1895 C1894 1.391 . S
H1896 C1904 0.950 . S
H1897 C1909 0.950 . S
H1898 C1906 0.950 . S
H1899 C1908 0.950 . S
H1900 C1910 0.950 . S
H1901 C1912 0.950 . S
H1902 C1914 0.950 . S
H1903 C1915 0.950 . S
C1904 H1896 0.950 . S
C1904 C1905 1.386 . S
C1904 C1906 1.391 . S
C1905 C1904 1.386 . S
C1905 C1909 1.393 . S
C1906 H1898 0.950 . S
C1906 C1904 1.391 . S
C1906 C1907 1.400 . S
C1907 C1906 1.400 . S
C1907 C1908 1.398 . S
C1907 C1913 1.491 . S
C1908 H1899 0.950 . S
C1908 C1907 1.398 . S
C1908 C1909 1.391 . S
C1909 H1897 0.950 . S
C1909 C1905 1.393 . S
C1909 C1908 1.391 . S
C1910 H1900 0.950 . S
C1910 C1911 1.386 . S
C1910 C1912 1.391 . S
C1911 C1910 1.386 . S
C1911 C1915 1.393 . S
C1912 H1901 0.950 . S
C1912 C1910 1.391 . S
C1912 C1913 1.400 . S
C1913 C1907 1.491 . S
C1913 C1912 1.400 . S
C1913 C1914 1.398 . S
C1914 H1902 0.950 . S
C1914 C1913 1.398 . S
C1914 C1915 1.391 . S
C1915 H1903 0.950 . S
C1915 C1911 1.393 . S
C1915 C1914 1.391 . S
H1916 C1924 0.950 . S
H1917 C1929 0.950 . S
H1918 C1926 0.950 . S
H1919 C1928 0.950 . S
H1920 C1930 0.950 . S
H1921 C1932 0.950 . S
H1922 C1934 0.950 . S
H1923 C1935 0.950 . S
C1924 H1916 0.950 . S
C1924 C1925 1.386 . S
C1924 C1926 1.391 . S
C1925 C1924 1.386 . S
C1925 C1929 1.393 . S
C1926 H1918 0.950 . S
C1926 C1924 1.391 . S
C1926 C1927 1.400 . S
C1927 C1926 1.400 . S
C1927 C1928 1.398 . S
C1927 C1933 1.491 . S
C1928 H1919 0.950 . S
C1928 C1927 1.398 . S
C1928 C1929 1.391 . S
C1929 H1917 0.950 . S
C1929 C1925 1.393 . S
C1929 C1928 1.391 . S
C1930 H1920 0.950 . S
C1930 C1931 1.386 . S
C1930 C1932 1.391 . S
C1931 C1930 1.386 . S
C1931 C1935 1.393 . S
C1932 H1921 0.950 . S
C1932 C1930 1.391 . S
C1932 C1933 1.400 . S
C1933 C1927 1.491 . S
C1933 C1932 1.400 . S
C1933 C1934 1.398 . S
C1934 H1922 0.950 . S
C1934 C1933 1.398 . S
C1934 C1935 1.391 . S
C1935 H1923 0.950 . S
C1935 C1931 1.393 . S
C1935 C1934 1.391 . S
H1936 C1944 0.950 . S
H1937 C1949 0.950 . S
H1938 C1946 0.950 . S
H1939 C1948 0.950 . S
H1940 C1950 0.950 . S
H1941 C1952 0.950 . S
H1942 C1954 0.950 . S
H1943 C1955 0.950 . S
C1944 H1936 0.950 . S
C1944 C1945 1.386 . S
C1944 C1946 1.391 . S
C1945 C1944 1.386 . S
C1945 C1949 1.393 . S
C1946 H1938 0.950 . S
C1946 C1944 1.391 . S
C1946 C1947 1.400 . S
C1947 C1946 1.400 . S
C1947 C1948 1.398 . S
C1947 C1953 1.491 . S
C1948 H1939 0.950 . S
C1948 C1947 1.398 . S
C1948 C1949 1.391 . S
C1949 H1937 0.950 . S
C1949 C1945 1.393 . S
C1949 C1948 1.391 . S
C1950 H1940 0.950 . S
C1950 C1951 1.386 . S
C1950 C1952 1.391 . S
C1951 C1950 1.386 . S
C1951 C1955 1.393 . S
C1952 H1941 0.950 . S
C1952 C1950 1.391 . S
C1952 C1953 1.400 . S
C1953 C1947 1.491 . S
C1953 C1952 1.400 . S
C1953 C1954 1.398 . S
C1954 H1942 0.950 . S
C1954 C1953 1.398 . S
C1954 C1955 1.391 . S
C1955 H1943 0.950 . S
C1955 C1951 1.393 . S
C1955 C1954 1.391 . S
H1956 C1964 0.950 . S
H1957 C1969 0.950 . S
H1958 C1966 0.950 . S
H1959 C1968 0.950 . S
H1960 C1970 0.950 . S
H1961 C1972 0.950 . S
H1962 C1974 0.950 . S
H1963 C1975 0.950 . S
C1964 H1956 0.950 . S
C1964 C1965 1.386 . S
C1964 C1966 1.391 . S
C1965 C1964 1.386 . S
C1965 C1969 1.393 . S
C1966 H1958 0.950 . S
C1966 C1964 1.391 . S
C1966 C1967 1.400 . S
C1967 C1966 1.400 . S
C1967 C1968 1.398 . S
C1967 C1973 1.491 . S
C1968 H1959 0.950 . S
C1968 C1967 1.398 . S
C1968 C1969 1.391 . S
C1969 H1957 0.950 . S
C1969 C1965 1.393 . S
C1969 C1968 1.391 . S
C1970 H1960 0.950 . S
C1970 C1971 1.386 . S
C1970 C1972 1.391 . S
C1971 C1970 1.386 . S
C1971 C1975 1.393 . S
C1972 H1961 0.950 . S
C1972 C1970 1.391 . S
C1972 C1973 1.400 . S
C1973 C1967 1.491 . S
C1973 C1972 1.400 . S
C1973 C1974 1.398 . S
C1974 H1962 0.950 . S
C1974 C1973 1.398 . S
C1974 C1975 1.391 . S
C1975 H1963 0.950 . S
C1975 C1971 1.393 . S
C1975 C1974 1.391 . S
H1976 C1984 0.950 . S
H1977 C1989 0.950 . S
H1978 C1986 0.950 . S
H1979 C1988 0.950 . S
H1980 C1990 0.950 . S
H1981 C1992 0.950 . S
H1982 C1994 0.950 . S
H1983 C1995 0.950 . S
C1984 H1976 0.950 . S
C1984 C1985 1.386 . S
C1984 C1986 1.391 . S
C1985 C1984 1.386 . S
C1985 C1989 1.393 . S
C1986 H1978 0.950 . S
C1986 C1984 1.391 . S
C1986 C1987 1.400 . S
C1987 C1986 1.400 . S
C1987 C1988 1.398 . S
C1987 C1993 1.491 . S
C1988 H1979 0.950 . S
C1988 C1987 1.398 . S
C1988 C1989 1.391 . S
C1989 H1977 0.950 . S
C1989 C1985 1.393 . S
C1989 C1988 1.391 . S
C1990 H1980 0.950 . S
C1990 C1991 1.386 . S
C1990 C1992 1.391 . S
C1991 C1990 1.386 . S
C1991 C1995 1.393 . S
C1992 H1981 0.950 . S
C1992 C1990 1.391 . S
C1992 C1993 1.400 . S
C1993 C1987 1.491 . S
C1993 C1992 1.400 . S
C1993 C1994 1.398 . S
C1994 H1982 0.950 . S
C1994 C1993 1.398 . S
C1994 C1995 1.391 . S
C1995 H1983 0.950 . S
C1995 C1991 1.393 . S
C1995 C1994 1.391 . S
H1996 C2004 0.950 . S
H1997 C2009 0.950 . S
H1998 C2006 0.950 . S
H1999 C2008 0.950 . S
H2000 C2010 0.950 . S
H2001 C2012 0.950 . S
H2002 C2014 0.950 . S
H2003 C2015 0.950 . S
C2004 H1996 0.950 . S
C2004 C2005 1.386 . S
C2004 C2006 1.391 . S
C2005 C2004 1.386 . S
C2005 C2009 1.393 . S
C2006 H1998 0.950 . S
C2006 C2004 1.391 . S
C2006 C2007 1.400 . S
C2007 C2006 1.400 . S
C2007 C2008 1.398 . S
C2007 C2013 1.491 . S
C2008 H1999 0.950 . S
C2008 C2007 1.398 . S
C2008 C2009 1.391 . S
C2009 H1997 0.950 . S
C2009 C2005 1.393 . S
C2009 C2008 1.391 . S
C2010 H2000 0.950 . S
C2010 C2011 1.386 . S
C2010 C2012 1.391 . S
C2011 C2010 1.386 . S
C2011 C2015 1.393 . S
C2012 H2001 0.950 . S
C2012 C2010 1.391 . S
C2012 C2013 1.400 . S
C2013 C2007 1.491 . S
C2013 C2012 1.400 . S
C2013 C2014 1.398 . S
C2014 H2002 0.950 . S
C2014 C2013 1.398 . S
C2014 C2015 1.391 . S
C2015 H2003 0.950 . S
C2015 C2011 1.393 . S
C2015 C2014 1.391 . S
H2016 C2024 0.950 . S
H2017 C2029 0.950 . S
H2018 C2026 0.950 . S
H2019 C2028 0.950 . S
H2020 C2030 0.950 . S
H2021 C2032 0.950 . S
H2022 C2034 0.950 . S
H2023 C2035 0.950 . S
C2024 H2016 0.950 . S
C2024 C2025 1.386 . S
C2024 C2026 1.391 . S
C2025 C2024 1.386 . S
C2025 C2029 1.393 . S
C2026 H2018 0.950 . S
C2026 C2024 1.391 . S
C2026 C2027 1.400 . S
C2027 C2026 1.400 . S
C2027 C2028 1.398 . S
C2027 C2033 1.491 . S
C2028 H2019 0.950 . S
C2028 C2027 1.398 . S
C2028 C2029 1.391 . S
C2029 H2017 0.950 . S
C2029 C2025 1.393 . S
C2029 C2028 1.391 . S
C2030 H2020 0.950 . S
C2030 C2031 1.386 . S
C2030 C2032 1.391 . S
C2031 C2030 1.386 . S
C2031 C2035 1.393 . S
C2032 H2021 0.950 . S
C2032 C2030 1.391 . S
C2032 C2033 1.400 . S
C2033 C2027 1.491 . S
C2033 C2032 1.400 . S
C2033 C2034 1.398 . S
C2034 H2022 0.950 . S
C2034 C2033 1.398 . S
C2034 C2035 1.391 . S
C2035 H2023 0.950 . S
C2035 C2031 1.393 . S
C2035 C2034 1.391 . S
H2036 C2044 0.950 . S
H2037 C2049 0.950 . S
H2038 C2046 0.950 . S
H2039 C2048 0.950 . S
H2040 C2050 0.950 . S
H2041 C2052 0.950 . S
H2042 C2054 0.950 . S
H2043 C2055 0.950 . S
C2044 H2036 0.950 . S
C2044 C2045 1.386 . S
C2044 C2046 1.391 . S
C2045 C2044 1.386 . S
C2045 C2049 1.393 . S
C2046 H2038 0.950 . S
C2046 C2044 1.391 . S
C2046 C2047 1.400 . S
C2047 C2046 1.400 . S
C2047 C2048 1.398 . S
C2047 C2053 1.491 . S
C2048 H2039 0.950 . S
C2048 C2047 1.398 . S
C2048 C2049 1.391 . S
C2049 H2037 0.950 . S
C2049 C2045 1.393 . S
C2049 C2048 1.391 . S
C2050 H2040 0.950 . S
C2050 C2051 1.386 . S
C2050 C2052 1.391 . S
C2051 C2050 1.386 . S
C2051 C2055 1.393 . S
C2052 H2041 0.950 . S
C2052 C2050 1.391 . S
C2052 C2053 1.400 . S
C2053 C2047 1.491 . S
C2053 C2052 1.400 . S
C2053 C2054 1.398 . S
C2054 H2042 0.950 . S
C2054 C2053 1.398 . S
C2054 C2055 1.391 . S
C2055 H2043 0.950 . S
C2055 C2051 1.393 . S
C2055 C2054 1.391 . S
H2056 C2064 0.950 . S
H2057 C2069 0.950 . S
H2058 C2066 0.950 . S
H2059 C2068 0.950 . S
H2060 C2070 0.950 . S
H2061 C2072 0.950 . S
H2062 C2074 0.950 . S
H2063 C2075 0.950 . S
C2064 H2056 0.950 . S
C2064 C2065 1.386 . S
C2064 C2066 1.391 . S
C2065 C2064 1.386 . S
C2065 C2069 1.393 . S
C2066 H2058 0.950 . S
C2066 C2064 1.391 . S
C2066 C2067 1.400 . S
C2067 C2066 1.400 . S
C2067 C2068 1.398 . S
C2067 C2073 1.491 . S
C2068 H2059 0.950 . S
C2068 C2067 1.398 . S
C2068 C2069 1.391 . S
C2069 H2057 0.950 . S
C2069 C2065 1.393 . S
C2069 C2068 1.391 . S
C2070 H2060 0.950 . S
C2070 C2071 1.386 . S
C2070 C2072 1.391 . S
C2071 C2070 1.386 . S
C2071 C2075 1.393 . S
C2072 H2061 0.950 . S
C2072 C2070 1.391 . S
C2072 C2073 1.400 . S
C2073 C2067 1.491 . S
C2073 C2072 1.400 . S
C2073 C2074 1.398 . S
C2074 H2062 0.950 . S
C2074 C2073 1.398 . S
C2074 C2075 1.391 . S
C2075 H2063 0.950 . S
C2075 C2071 1.393 . S
C2075 C2074 1.391 . S
H2076 C2084 0.950 . S
H2077 C2089 0.950 . S
H2078 C2086 0.950 . S
H2079 C2088 0.950 . S
H2080 C2090 0.950 . S
H2081 C2092 0.950 . S
H2082 C2094 0.950 . S
H2083 C2095 0.950 . S
C2084 H2076 0.950 . S
C2084 C2085 1.386 . S
C2084 C2086 1.391 . S
C2085 C2084 1.386 . S
C2085 C2089 1.393 . S
C2086 H2078 0.950 . S
C2086 C2084 1.391 . S
C2086 C2087 1.400 . S
C2087 C2086 1.400 . S
C2087 C2088 1.398 . S
C2087 C2093 1.491 . S
C2088 H2079 0.950 . S
C2088 C2087 1.398 . S
C2088 C2089 1.391 . S
C2089 H2077 0.950 . S
C2089 C2085 1.393 . S
C2089 C2088 1.391 . S
C2090 H2080 0.950 . S
C2090 C2091 1.386 . S
C2090 C2092 1.391 . S
C2091 C2090 1.386 . S
C2091 C2095 1.393 . S
C2092 H2081 0.950 . S
C2092 C2090 1.391 . S
C2092 C2093 1.400 . S
C2093 C2087 1.491 . S
C2093 C2092 1.400 . S
C2093 C2094 1.398 . S
C2094 H2082 0.950 . S
C2094 C2093 1.398 . S
C2094 C2095 1.391 . S
C2095 H2083 0.950 . S
C2095 C2091 1.393 . S
C2095 C2094 1.391 . S
H2096 C2104 0.950 . S
H2097 C2109 0.950 . S
H2098 C2106 0.950 . S
H2099 C2108 0.950 . S
H2100 C2110 0.950 . S
H2101 C2112 0.950 . S
H2102 C2114 0.950 . S
H2103 C2115 0.950 . S
C2104 H2096 0.950 . S
C2104 C2105 1.386 . S
C2104 C2106 1.391 . S
C2105 C2104 1.386 . S
C2105 C2109 1.393 . S
C2106 H2098 0.950 . S
C2106 C2104 1.391 . S
C2106 C2107 1.400 . S
C2107 C2106 1.400 . S
C2107 C2108 1.398 . S
C2107 C2113 1.491 . S
C2108 H2099 0.950 . S
C2108 C2107 1.398 . S
C2108 C2109 1.391 . S
C2109 H2097 0.950 . S
C2109 C2105 1.393 . S
C2109 C2108 1.391 . S
C2110 H2100 0.950 . S
C2110 C2111 1.386 . S
C2110 C2112 1.391 . S
C2111 C2110 1.386 . S
C2111 C2115 1.393 . S
C2112 H2101 0.950 . S
C2112 C2110 1.391 . S
C2112 C2113 1.400 . S
C2113 C2107 1.491 . S
C2113 C2112 1.400 . S
C2113 C2114 1.398 . S
C2114 H2102 0.950 . S
C2114 C2113 1.398 . S
C2114 C2115 1.391 . S
C2115 H2103 0.950 . S
C2115 C2111 1.393 . S
C2115 C2114 1.391 . S
H2116 C2124 0.950 . S
H2117 C2129 0.950 . S
H2118 C2126 0.950 . S
H2119 C2128 0.950 . S
H2120 C2130 0.950 . S
H2121 C2132 0.950 . S
H2122 C2134 0.950 . S
H2123 C2135 0.950 . S
C2124 H2116 0.950 . S
C2124 C2125 1.386 . S
C2124 C2126 1.391 . S
C2125 C2124 1.386 . S
C2125 C2129 1.393 . S
C2126 H2118 0.950 . S
C2126 C2124 1.391 . S
C2126 C2127 1.400 . S
C2127 C2126 1.400 . S
C2127 C2128 1.398 . S
C2127 C2133 1.491 . S
C2128 H2119 0.950 . S
C2128 C2127 1.398 . S
C2128 C2129 1.391 . S
C2129 H2117 0.950 . S
C2129 C2125 1.393 . S
C2129 C2128 1.391 . S
C2130 H2120 0.950 . S
C2130 C2131 1.386 . S
C2130 C2132 1.391 . S
C2131 C2130 1.386 . S
C2131 C2135 1.393 . S
C2132 H2121 0.950 . S
C2132 C2130 1.391 . S
C2132 C2133 1.400 . S
C2133 C2127 1.491 . S
C2133 C2132 1.400 . S
C2133 C2134 1.398 . S
C2134 H2122 0.950 . S
C2134 C2133 1.398 . S
C2134 C2135 1.391 . S
C2135 H2123 0.950 . S
C2135 C2131 1.393 . S
C2135 C2134 1.391 . S
H2136 C2144 0.950 . S
H2137 C2149 0.950 . S
H2138 C2146 0.950 . S
H2139 C2148 0.950 . S
H2140 C2150 0.950 1_455 S
H2141 C2152 0.950 . S
H2142 C2154 0.950 . S
H2143 C2155 0.950 . S
C2144 H2136 0.950 . S
C2144 C2145 1.386 . S
C2144 C2146 1.391 . S
C2145 C2144 1.386 . S
C2145 C2149 1.393 . S
C2146 H2138 0.950 . S
C2146 C2144 1.391 . S
C2146 C2147 1.400 . S
C2147 C2146 1.400 . S
C2147 C2148 1.398 . S
C2147 C2153 1.491 . S
C2148 H2139 0.950 . S
C2148 C2147 1.398 . S
C2148 C2149 1.391 . S
C2149 H2137 0.950 . S
C2149 C2145 1.393 . S
C2149 C2148 1.391 . S
C2150 H2140 0.950 1_655 S
C2150 C2151 1.386 . S
C2150 C2152 1.391 . S
C2151 C2150 1.386 . S
C2151 C2155 1.393 . S
C2152 H2141 0.950 . S
C2152 C2150 1.391 . S
C2152 C2153 1.400 . S
C2153 C2147 1.491 . S
C2153 C2152 1.400 . S
C2153 C2154 1.398 . S
C2154 H2142 0.950 . S
C2154 C2153 1.398 . S
C2154 C2155 1.391 . S
C2155 H2143 0.950 . S
C2155 C2151 1.393 . S
C2155 C2154 1.391 . S
H2156 C2164 0.950 . S
H2157 C2169 0.950 . S
H2158 C2166 0.950 . S
H2159 C2168 0.950 . S
H2160 C2170 0.950 . S
H2161 C2172 0.950 . S
H2162 C2174 0.950 . S
H2163 C2175 0.950 . S
C2164 H2156 0.950 . S
C2164 C2165 1.386 . S
C2164 C2166 1.391 . S
C2165 C2164 1.386 . S
C2165 C2169 1.393 . S
C2166 H2158 0.950 . S
C2166 C2164 1.391 . S
C2166 C2167 1.400 . S
C2167 C2166 1.400 . S
C2167 C2168 1.398 . S
C2167 C2173 1.491 . S
C2168 H2159 0.950 . S
C2168 C2167 1.398 . S
C2168 C2169 1.391 . S
C2169 H2157 0.950 . S
C2169 C2165 1.393 . S
C2169 C2168 1.391 . S
C2170 H2160 0.950 . S
C2170 C2171 1.386 . S
C2170 C2172 1.391 . S
C2171 C2170 1.386 . S
C2171 C2175 1.393 . S
C2172 H2161 0.950 . S
C2172 C2170 1.391 . S
C2172 C2173 1.400 . S
C2173 C2167 1.491 . S
C2173 C2172 1.400 . S
C2173 C2174 1.398 . S
C2174 H2162 0.950 . S
C2174 C2173 1.398 . S
C2174 C2175 1.391 . S
C2175 H2163 0.950 . S
C2175 C2171 1.393 . S
C2175 C2174 1.391 . S
H2176 C2184 0.950 . S
H2177 C2189 0.950 . S
H2178 C2186 0.950 . S
H2179 C2188 0.950 . S
H2180 C2190 0.950 . S
H2181 C2192 0.950 . S
H2182 C2194 0.950 . S
H2183 C2195 0.950 . S
C2184 H2176 0.950 . S
C2184 C2185 1.386 . S
C2184 C2186 1.391 . S
C2185 C2184 1.386 . S
C2185 C2189 1.393 . S
C2186 H2178 0.950 . S
C2186 C2184 1.391 . S
C2186 C2187 1.400 . S
C2187 C2186 1.400 . S
C2187 C2188 1.398 . S
C2187 C2193 1.491 . S
C2188 H2179 0.950 . S
C2188 C2187 1.398 . S
C2188 C2189 1.391 . S
C2189 H2177 0.950 . S
C2189 C2185 1.393 . S
C2189 C2188 1.391 . S
C2190 H2180 0.950 . S
C2190 C2191 1.386 . S
C2190 C2192 1.391 . S
C2191 C2190 1.386 . S
C2191 C2195 1.393 . S
C2192 H2181 0.950 . S
C2192 C2190 1.391 . S
C2192 C2193 1.400 . S
C2193 C2187 1.491 . S
C2193 C2192 1.400 . S
C2193 C2194 1.398 . S
C2194 H2182 0.950 . S
C2194 C2193 1.398 . S
C2194 C2195 1.391 . S
C2195 H2183 0.950 . S
C2195 C2191 1.393 . S
C2195 C2194 1.391 . S
H2196 C2204 0.950 . S
H2197 C2209 0.950 . S
H2198 C2206 0.950 . S
H2199 C2208 0.950 . S
H2200 C2210 0.950 . S
H2201 C2212 0.950 . S
H2202 C2214 0.950 . S
H2203 C2215 0.950 . S
C2204 H2196 0.950 . S
C2204 C2205 1.386 . S
C2204 C2206 1.391 . S
C2205 C2204 1.386 . S
C2205 C2209 1.393 . S
C2206 H2198 0.950 . S
C2206 C2204 1.391 . S
C2206 C2207 1.400 . S
C2207 C2206 1.400 . S
C2207 C2208 1.398 . S
C2207 C2213 1.491 . S
C2208 H2199 0.950 . S
C2208 C2207 1.398 . S
C2208 C2209 1.391 . S
C2209 H2197 0.950 . S
C2209 C2205 1.393 . S
C2209 C2208 1.391 . S
C2210 H2200 0.950 . S
C2210 C2211 1.386 . S
C2210 C2212 1.391 . S
C2211 C2210 1.386 . S
C2211 C2215 1.393 . S
C2212 H2201 0.950 . S
C2212 C2210 1.391 . S
C2212 C2213 1.400 . S
C2213 C2207 1.491 . S
C2213 C2212 1.400 . S
C2213 C2214 1.398 . S
C2214 H2202 0.950 . S
C2214 C2213 1.398 . S
C2214 C2215 1.391 . S
C2215 H2203 0.950 . S
C2215 C2211 1.393 . S
C2215 C2214 1.391 . S
H2216 C2224 0.950 . S
H2217 C2229 0.950 . S
H2218 C2226 0.950 . S
H2219 C2228 0.950 . S
H2220 C2230 0.950 . S
H2221 C2232 0.950 . S
H2222 C2234 0.950 . S
H2223 C2235 0.950 . S
C2224 H2216 0.950 . S
C2224 C2225 1.386 . S
C2224 C2226 1.391 . S
C2225 C2224 1.386 . S
C2225 C2229 1.393 . S
C2226 H2218 0.950 . S
C2226 C2224 1.391 . S
C2226 C2227 1.400 . S
C2227 C2226 1.400 . S
C2227 C2228 1.398 . S
C2227 C2233 1.491 . S
C2228 H2219 0.950 . S
C2228 C2227 1.398 . S
C2228 C2229 1.391 . S
C2229 H2217 0.950 . S
C2229 C2225 1.393 . S
C2229 C2228 1.391 . S
C2230 H2220 0.950 . S
C2230 C2231 1.386 . S
C2230 C2232 1.391 . S
C2231 C2230 1.386 . S
C2231 C2235 1.393 . S
C2232 H2221 0.950 . S
C2232 C2230 1.391 . S
C2232 C2233 1.400 . S
C2233 C2227 1.491 . S
C2233 C2232 1.400 . S
C2233 C2234 1.398 . S
C2234 H2222 0.950 . S
C2234 C2233 1.398 . S
C2234 C2235 1.391 . S
C2235 H2223 0.950 . S
C2235 C2231 1.393 . S
C2235 C2234 1.391 . S
H2236 C2244 0.950 . S
H2237 C2249 0.950 . S
H2238 C2246 0.950 . S
H2239 C2248 0.950 . S
H2240 C2250 0.950 . S
H2241 C2252 0.950 . S
H2242 C2254 0.950 . S
H2243 C2255 0.950 . S
C2244 H2236 0.950 . S
C2244 C2245 1.386 . S
C2244 C2246 1.391 . S
C2245 C2244 1.386 . S
C2245 C2249 1.393 . S
C2246 H2238 0.950 . S
C2246 C2244 1.391 . S
C2246 C2247 1.400 . S
C2247 C2246 1.400 . S
C2247 C2248 1.398 . S
C2247 C2253 1.491 . S
C2248 H2239 0.950 . S
C2248 C2247 1.398 . S
C2248 C2249 1.391 . S
C2249 H2237 0.950 . S
C2249 C2245 1.393 . S
C2249 C2248 1.391 . S
C2250 H2240 0.950 . S
C2250 C2251 1.386 . S
C2250 C2252 1.391 . S
C2251 C2250 1.386 . S
C2251 C2255 1.393 . S
C2252 H2241 0.950 . S
C2252 C2250 1.391 . S
C2252 C2253 1.400 . S
C2253 C2247 1.491 . S
C2253 C2252 1.400 . S
C2253 C2254 1.398 . S
C2254 H2242 0.950 . S
C2254 C2253 1.398 . S
C2254 C2255 1.391 . S
C2255 H2243 0.950 . S
C2255 C2251 1.393 . S
C2255 C2254 1.391 . S
H2256 C2264 0.950 . S
H2257 C2269 0.950 . S
H2258 C2266 0.950 . S
H2259 C2268 0.950 . S
H2260 C2270 0.950 . S
H2261 C2272 0.950 . S
H2262 C2274 0.950 . S
H2263 C2275 0.950 . S
C2264 H2256 0.950 . S
C2264 C2265 1.386 . S
C2264 C2266 1.391 . S
C2265 C2264 1.386 . S
C2265 C2269 1.393 . S
C2266 H2258 0.950 . S
C2266 C2264 1.391 . S
C2266 C2267 1.400 . S
C2267 C2266 1.400 . S
C2267 C2268 1.398 . S
C2267 C2273 1.491 . S
C2268 H2259 0.950 . S
C2268 C2267 1.398 . S
C2268 C2269 1.391 . S
C2269 H2257 0.950 . S
C2269 C2265 1.393 . S
C2269 C2268 1.391 . S
C2270 H2260 0.950 . S
C2270 C2271 1.386 . S
C2270 C2272 1.391 . S
C2271 C2270 1.386 . S
C2271 C2275 1.393 . S
C2272 H2261 0.950 . S
C2272 C2270 1.391 . S
C2272 C2273 1.400 . S
C2273 C2267 1.491 . S
C2273 C2272 1.400 . S
C2273 C2274 1.398 . S
C2274 H2262 0.950 . S
C2274 C2273 1.398 . S
C2274 C2275 1.391 . S
C2275 H2263 0.950 . S
C2275 C2271 1.393 . S
C2275 C2274 1.391 . S
H2276 C2284 0.950 . S
H2277 C2289 0.950 . S
H2278 C2286 0.950 . S
H2279 C2288 0.950 . S
H2280 C2290 0.950 . S
H2281 C2292 0.950 . S
H2282 C2294 0.950 . S
H2283 C2295 0.950 . S
C2284 H2276 0.950 . S
C2284 C2285 1.386 . S
C2284 C2286 1.391 . S
C2285 C2284 1.386 . S
C2285 C2289 1.393 . S
C2286 H2278 0.950 . S
C2286 C2284 1.391 . S
C2286 C2287 1.400 . S
C2287 C2286 1.400 . S
C2287 C2288 1.398 . S
C2287 C2293 1.491 . S
C2288 H2279 0.950 . S
C2288 C2287 1.398 . S
C2288 C2289 1.391 . S
C2289 H2277 0.950 . S
C2289 C2285 1.393 . S
C2289 C2288 1.391 . S
C2290 H2280 0.950 . S
C2290 C2291 1.386 . S
C2290 C2292 1.391 . S
C2291 C2290 1.386 . S
C2291 C2295 1.393 . S
C2292 H2281 0.950 . S
C2292 C2290 1.391 . S
C2292 C2293 1.400 . S
C2293 C2287 1.491 . S
C2293 C2292 1.400 . S
C2293 C2294 1.398 . S
C2294 H2282 0.950 . S
C2294 C2293 1.398 . S
C2294 C2295 1.391 . S
C2295 H2283 0.950 . S
C2295 C2291 1.393 . S
C2295 C2294 1.391 . S
H2296 C2304 0.950 . S
H2297 C2309 0.950 . S
H2298 C2306 0.950 . S
H2299 C2308 0.950 . S
H2300 C2310 0.950 . S
H2301 C2312 0.950 . S
H2302 C2314 0.950 . S
H2303 C2315 0.950 . S
C2304 H2296 0.950 . S
C2304 C2305 1.386 . S
C2304 C2306 1.391 . S
C2305 C2304 1.386 . S
C2305 C2309 1.393 . S
C2306 H2298 0.950 . S
C2306 C2304 1.391 . S
C2306 C2307 1.400 . S
C2307 C2306 1.400 . S
C2307 C2308 1.398 . S
C2307 C2313 1.491 . S
C2308 H2299 0.950 . S
C2308 C2307 1.398 . S
C2308 C2309 1.391 . S
C2309 H2297 0.950 . S
C2309 C2305 1.393 . S
C2309 C2308 1.391 . S
C2310 H2300 0.950 . S
C2310 C2311 1.386 . S
C2310 C2312 1.391 . S
C2311 C2310 1.386 . S
C2311 C2315 1.393 . S
C2312 H2301 0.950 . S
C2312 C2310 1.391 . S
C2312 C2313 1.400 . S
C2313 C2307 1.491 . S
C2313 C2312 1.400 . S
C2313 C2314 1.398 . S
C2314 H2302 0.950 . S
C2314 C2313 1.398 . S
C2314 C2315 1.391 . S
C2315 H2303 0.950 . S
C2315 C2311 1.393 . S
C2315 C2314 1.391 . S
H2316 C2324 0.950 . S
H2317 C2329 0.950 . S
H2318 C2326 0.950 . S
H2319 C2328 0.950 . S
H2320 C2330 0.950 . S
H2321 C2332 0.950 . S
H2322 C2334 0.950 . S
H2323 C2335 0.950 . S
C2324 H2316 0.950 . S
C2324 C2325 1.386 . S
C2324 C2326 1.391 . S
C2325 C2324 1.386 . S
C2325 C2329 1.393 . S
C2326 H2318 0.950 . S
C2326 C2324 1.391 . S
C2326 C2327 1.400 . S
C2327 C2326 1.400 . S
C2327 C2328 1.398 . S
C2327 C2333 1.491 . S
C2328 H2319 0.950 . S
C2328 C2327 1.398 . S
C2328 C2329 1.391 . S
C2329 H2317 0.950 . S
C2329 C2325 1.393 . S
C2329 C2328 1.391 . S
C2330 H2320 0.950 . S
C2330 C2331 1.386 . S
C2330 C2332 1.391 . S
C2331 C2330 1.386 . S
C2331 C2335 1.393 . S
C2332 H2321 0.950 . S
C2332 C2330 1.391 . S
C2332 C2333 1.400 . S
C2333 C2327 1.491 . S
C2333 C2332 1.400 . S
C2333 C2334 1.398 . S
C2334 H2322 0.950 . S
C2334 C2333 1.398 . S
C2334 C2335 1.391 . S
C2335 H2323 0.950 . S
C2335 C2331 1.393 . S
C2335 C2334 1.391 . S
H2336 C2344 0.950 . S
H2337 C2349 0.950 . S
H2338 C2346 0.950 . S
H2339 C2348 0.950 . S
H2340 C2350 0.950 . S
H2341 C2352 0.950 . S
H2342 C2354 0.950 . S
H2343 C2355 0.950 . S
C2344 H2336 0.950 . S
C2344 C2345 1.386 . S
C2344 C2346 1.391 . S
C2345 C2344 1.386 . S
C2345 C2349 1.393 . S
C2346 H2338 0.950 . S
C2346 C2344 1.391 . S
C2346 C2347 1.400 . S
C2347 C2346 1.400 . S
C2347 C2348 1.398 . S
C2347 C2353 1.491 . S
C2348 H2339 0.950 . S
C2348 C2347 1.398 . S
C2348 C2349 1.391 . S
C2349 H2337 0.950 . S
C2349 C2345 1.393 . S
C2349 C2348 1.391 . S
C2350 H2340 0.950 . S
C2350 C2351 1.386 . S
C2350 C2352 1.391 . S
C2351 C2350 1.386 . S
C2351 C2355 1.393 . S
C2352 H2341 0.950 . S
C2352 C2350 1.391 . S
C2352 C2353 1.400 . S
C2353 C2347 1.491 . S
C2353 C2352 1.400 . S
C2353 C2354 1.398 . S
C2354 H2342 0.950 . S
C2354 C2353 1.398 . S
C2354 C2355 1.391 . S
C2355 H2343 0.950 . S
C2355 C2351 1.393 . S
C2355 C2354 1.391 . S
H2356 C2364 0.950 . S
H2357 C2369 0.950 . S
H2358 C2366 0.950 . S
H2359 C2368 0.950 . S
H2360 C2370 0.950 . S
H2361 C2372 0.950 . S
H2362 C2374 0.950 . S
H2363 C2375 0.950 . S
C2364 H2356 0.950 . S
C2364 C2365 1.386 . S
C2364 C2366 1.391 . S
C2365 C2364 1.386 . S
C2365 C2369 1.393 . S
C2366 H2358 0.950 . S
C2366 C2364 1.391 . S
C2366 C2367 1.400 . S
C2367 C2366 1.400 . S
C2367 C2368 1.398 . S
C2367 C2373 1.491 . S
C2368 H2359 0.950 . S
C2368 C2367 1.398 . S
C2368 C2369 1.391 . S
C2369 H2357 0.950 . S
C2369 C2365 1.393 . S
C2369 C2368 1.391 . S
C2370 H2360 0.950 . S
C2370 C2371 1.386 . S
C2370 C2372 1.391 . S
C2371 C2370 1.386 . S
C2371 C2375 1.393 . S
C2372 H2361 0.950 . S
C2372 C2370 1.391 . S
C2372 C2373 1.400 . S
C2373 C2367 1.491 . S
C2373 C2372 1.400 . S
C2373 C2374 1.398 . S
C2374 H2362 0.950 . S
C2374 C2373 1.398 . S
C2374 C2375 1.391 . S
C2375 H2363 0.950 . S
C2375 C2371 1.393 . S
C2375 C2374 1.391 . S
H2376 C2384 0.950 . S
H2377 C2389 0.950 . S
H2378 C2386 0.950 . S
H2379 C2388 0.950 . S
H2380 C2390 0.950 . S
H2381 C2392 0.950 . S
H2382 C2394 0.950 . S
H2383 C2395 0.950 . S
C2384 H2376 0.950 . S
C2384 C2385 1.386 . S
C2384 C2386 1.391 . S
C2385 C2384 1.386 . S
C2385 C2389 1.393 . S
C2386 H2378 0.950 . S
C2386 C2384 1.391 . S
C2386 C2387 1.400 . S
C2387 C2386 1.400 . S
C2387 C2388 1.398 . S
C2387 C2393 1.491 . S
C2388 H2379 0.950 . S
C2388 C2387 1.398 . S
C2388 C2389 1.391 . S
C2389 H2377 0.950 . S
C2389 C2385 1.393 . S
C2389 C2388 1.391 . S
C2390 H2380 0.950 . S
C2390 C2391 1.386 . S
C2390 C2392 1.391 . S
C2391 C2390 1.386 . S
C2391 C2395 1.393 . S
C2392 H2381 0.950 . S
C2392 C2390 1.391 . S
C2392 C2393 1.400 . S
C2393 C2387 1.491 . S
C2393 C2392 1.400 . S
C2393 C2394 1.398 . S
C2394 H2382 0.950 . S
C2394 C2393 1.398 . S
C2394 C2395 1.391 . S
C2395 H2383 0.950 . S
C2395 C2391 1.393 . S
C2395 C2394 1.391 . S
H2396 C2404 0.950 . S
H2397 C2409 0.950 . S
H2398 C2406 0.950 . S
H2399 C2408 0.950 . S
H2400 C2410 0.950 . S
H2401 C2412 0.950 . S
H2402 C2414 0.950 . S
H2403 C2415 0.950 . S
C2404 H2396 0.950 . S
C2404 C2405 1.386 . S
C2404 C2406 1.391 . S
C2405 C2404 1.386 . S
C2405 C2409 1.393 . S
C2406 H2398 0.950 . S
C2406 C2404 1.391 . S
C2406 C2407 1.400 . S
C2407 C2406 1.400 . S
C2407 C2408 1.398 . S
C2407 C2413 1.491 . S
C2408 H2399 0.950 . S
C2408 C2407 1.398 . S
C2408 C2409 1.391 . S
C2409 H2397 0.950 . S
C2409 C2405 1.393 . S
C2409 C2408 1.391 . S
C2410 H2400 0.950 . S
C2410 C2411 1.386 . S
C2410 C2412 1.391 . S
C2411 C2410 1.386 . S
C2411 C2415 1.393 . S
C2412 H2401 0.950 . S
C2412 C2410 1.391 . S
C2412 C2413 1.400 . S
C2413 C2407 1.491 . S
C2413 C2412 1.400 . S
C2413 C2414 1.398 . S
C2414 H2402 0.950 . S
C2414 C2413 1.398 . S
C2414 C2415 1.391 . S
C2415 H2403 0.950 . S
C2415 C2411 1.393 . S
C2415 C2414 1.391 . S
H2416 C2424 0.950 . S
H2417 C2429 0.950 . S
H2418 C2426 0.950 . S
H2419 C2428 0.950 . S
H2420 C2430 0.950 . S
H2421 C2432 0.950 . S
H2422 C2434 0.950 . S
H2423 C2435 0.950 . S
C2424 H2416 0.950 . S
C2424 C2425 1.386 . S
C2424 C2426 1.391 . S
C2425 C2424 1.386 . S
C2425 C2429 1.393 . S
C2426 H2418 0.950 . S
C2426 C2424 1.391 . S
C2426 C2427 1.400 . S
C2427 C2426 1.400 . S
C2427 C2428 1.398 . S
C2427 C2433 1.491 . S
C2428 H2419 0.950 . S
C2428 C2427 1.398 . S
C2428 C2429 1.391 . S
C2429 H2417 0.950 . S
C2429 C2425 1.393 . S
C2429 C2428 1.391 . S
C2430 H2420 0.950 . S
C2430 C2431 1.386 . S
C2430 C2432 1.391 . S
C2431 C2430 1.386 . S
C2431 C2435 1.393 . S
C2432 H2421 0.950 . S
C2432 C2430 1.391 . S
C2432 C2433 1.400 . S
C2433 C2427 1.491 . S
C2433 C2432 1.400 . S
C2433 C2434 1.398 . S
C2434 H2422 0.950 . S
C2434 C2433 1.398 . S
C2434 C2435 1.391 . S
C2435 H2423 0.950 . S
C2435 C2431 1.393 . S
C2435 C2434 1.391 . S
H2436 C2444 0.950 . S
H2437 C2449 0.950 . S
H2438 C2446 0.950 . S
H2439 C2448 0.950 . S
H2440 C2450 0.950 . S
H2441 C2452 0.950 . S
H2442 C2454 0.950 . S
H2443 C2455 0.950 . S
C2444 H2436 0.950 . S
C2444 C2445 1.386 . S
C2444 C2446 1.391 . S
C2445 C2444 1.386 . S
C2445 C2449 1.393 . S
C2446 H2438 0.950 . S
C2446 C2444 1.391 . S
C2446 C2447 1.400 . S
C2447 C2446 1.400 . S
C2447 C2448 1.398 . S
C2447 C2453 1.491 . S
C2448 H2439 0.950 . S
C2448 C2447 1.398 . S
C2448 C2449 1.391 . S
C2449 H2437 0.950 . S
C2449 C2445 1.393 . S
C2449 C2448 1.391 . S
C2450 H2440 0.950 . S
C2450 C2451 1.386 . S
C2450 C2452 1.391 . S
C2451 C2450 1.386 . S
C2451 C2455 1.393 . S
C2452 H2441 0.950 . S
C2452 C2450 1.391 . S
C2452 C2453 1.400 . S
C2453 C2447 1.491 . S
C2453 C2452 1.400 . S
C2453 C2454 1.398 . S
C2454 H2442 0.950 . S
C2454 C2453 1.398 . S
C2454 C2455 1.391 . S
C2455 H2443 0.950 . S
C2455 C2451 1.393 . S
C2455 C2454 1.391 . S
H2456 C2464 0.950 . S
H2457 C2469 0.950 . S
H2458 C2466 0.950 . S
H2459 C2468 0.950 . S
H2460 C2470 0.950 . S
H2461 C2472 0.950 . S
H2462 C2474 0.950 . S
H2463 C2475 0.950 . S
C2464 H2456 0.950 . S
C2464 C2465 1.386 . S
C2464 C2466 1.391 . S
C2465 C2464 1.386 . S
C2465 C2469 1.393 . S
C2466 H2458 0.950 . S
C2466 C2464 1.391 . S
C2466 C2467 1.400 . S
C2467 C2466 1.400 . S
C2467 C2468 1.398 . S
C2467 C2473 1.491 . S
C2468 H2459 0.950 . S
C2468 C2467 1.398 . S
C2468 C2469 1.391 . S
C2469 H2457 0.950 . S
C2469 C2465 1.393 . S
C2469 C2468 1.391 . S
C2470 H2460 0.950 . S
C2470 C2471 1.386 . S
C2470 C2472 1.391 . S
C2471 C2470 1.386 . S
C2471 C2475 1.393 . S
C2472 H2461 0.950 . S
C2472 C2470 1.391 . S
C2472 C2473 1.400 . S
C2473 C2467 1.491 . S
C2473 C2472 1.400 . S
C2473 C2474 1.398 . S
C2474 H2462 0.950 . S
C2474 C2473 1.398 . S
C2474 C2475 1.391 . S
C2475 H2463 0.950 . S
C2475 C2471 1.393 . S
C2475 C2474 1.391 . S
H2476 C2484 0.950 . S
H2477 C2489 0.950 . S
H2478 C2486 0.950 . S
H2479 C2488 0.950 . S
H2480 C2490 0.950 . S
H2481 C2492 0.950 . S
H2482 C2494 0.950 . S
H2483 C2495 0.950 . S
C2484 H2476 0.950 . S
C2484 C2485 1.386 . S
C2484 C2486 1.391 . S
C2485 C2484 1.386 . S
C2485 C2489 1.393 . S
C2486 H2478 0.950 . S
C2486 C2484 1.391 . S
C2486 C2487 1.400 . S
C2487 C2486 1.400 . S
C2487 C2488 1.398 . S
C2487 C2493 1.491 . S
C2488 H2479 0.950 . S
C2488 C2487 1.398 . S
C2488 C2489 1.391 . S
C2489 H2477 0.950 . S
C2489 C2485 1.393 . S
C2489 C2488 1.391 . S
C2490 H2480 0.950 . S
C2490 C2491 1.386 . S
C2490 C2492 1.391 . S
C2491 C2490 1.386 . S
C2491 C2495 1.393 . S
C2492 H2481 0.950 . S
C2492 C2490 1.391 . S
C2492 C2493 1.400 . S
C2493 C2487 1.491 . S
C2493 C2492 1.400 . S
C2493 C2494 1.398 . S
C2494 H2482 0.950 . S
C2494 C2493 1.398 . S
C2494 C2495 1.391 . S
C2495 H2483 0.950 . S
C2495 C2491 1.393 . S
C2495 C2494 1.391 . S
H2496 C2504 0.950 . S
H2497 C2509 0.950 . S
H2498 C2506 0.950 . S
H2499 C2508 0.950 . S
H2500 C2510 0.950 . S
H2501 C2512 0.950 . S
H2502 C2514 0.950 . S
H2503 C2515 0.950 . S
C2504 H2496 0.950 . S
C2504 C2505 1.386 . S
C2504 C2506 1.391 . S
C2505 C2504 1.386 . S
C2505 C2509 1.393 . S
C2506 H2498 0.950 . S
C2506 C2504 1.391 . S
C2506 C2507 1.400 . S
C2507 C2506 1.400 . S
C2507 C2508 1.398 . S
C2507 C2513 1.491 . S
C2508 H2499 0.950 . S
C2508 C2507 1.398 . S
C2508 C2509 1.391 . S
C2509 H2497 0.950 . S
C2509 C2505 1.393 . S
C2509 C2508 1.391 . S
C2510 H2500 0.950 . S
C2510 C2511 1.386 . S
C2510 C2512 1.391 . S
C2511 C2510 1.386 . S
C2511 C2515 1.393 . S
C2512 H2501 0.950 . S
C2512 C2510 1.391 . S
C2512 C2513 1.400 . S
C2513 C2507 1.491 . S
C2513 C2512 1.400 . S
C2513 C2514 1.398 . S
C2514 H2502 0.950 . S
C2514 C2513 1.398 . S
C2514 C2515 1.391 . S
C2515 H2503 0.950 . S
C2515 C2511 1.393 . S
C2515 C2514 1.391 . S
H2516 C2524 0.950 . S
H2517 C2529 0.950 . S
H2518 C2526 0.950 . S
H2519 C2528 0.950 . S
H2520 C2530 0.950 . S
H2521 C2532 0.950 . S
H2522 C2534 0.950 . S
H2523 C2535 0.950 . S
C2524 H2516 0.950 . S
C2524 C2525 1.386 . S
C2524 C2526 1.391 . S
C2525 C2524 1.386 . S
C2525 C2529 1.393 . S
C2526 H2518 0.950 . S
C2526 C2524 1.391 . S
C2526 C2527 1.400 . S
C2527 C2526 1.400 . S
C2527 C2528 1.398 . S
C2527 C2533 1.491 . S
C2528 H2519 0.950 . S
C2528 C2527 1.398 . S
C2528 C2529 1.391 . S
C2529 H2517 0.950 . S
C2529 C2525 1.393 . S
C2529 C2528 1.391 . S
C2530 H2520 0.950 . S
C2530 C2531 1.386 . S
C2530 C2532 1.391 . S
C2531 C2530 1.386 . S
C2531 C2535 1.393 . S
C2532 H2521 0.950 . S
C2532 C2530 1.391 . S
C2532 C2533 1.400 . S
C2533 C2527 1.491 . S
C2533 C2532 1.400 . S
C2533 C2534 1.398 . S
C2534 H2522 0.950 . S
C2534 C2533 1.398 . S
C2534 C2535 1.391 . S
C2535 H2523 0.950 . S
C2535 C2531 1.393 . S
C2535 C2534 1.391 . S
H2536 C2544 0.950 . S
H2537 C2549 0.950 . S
H2538 C2546 0.950 . S
H2539 C2548 0.950 . S
H2540 C2550 0.950 . S
H2541 C2552 0.950 . S
H2542 C2554 0.950 . S
H2543 C2555 0.950 . S
C2544 H2536 0.950 . S
C2544 C2545 1.386 . S
C2544 C2546 1.391 . S
C2545 C2544 1.386 . S
C2545 C2549 1.393 . S
C2546 H2538 0.950 . S
C2546 C2544 1.391 . S
C2546 C2547 1.400 . S
C2547 C2546 1.400 . S
C2547 C2548 1.398 . S
C2547 C2553 1.491 . S
C2548 H2539 0.950 . S
C2548 C2547 1.398 . S
C2548 C2549 1.391 . S
C2549 H2537 0.950 . S
C2549 C2545 1.393 . S
C2549 C2548 1.391 . S
C2550 H2540 0.950 . S
C2550 C2551 1.386 . S
C2550 C2552 1.391 . S
C2551 C2550 1.386 . S
C2551 C2555 1.393 . S
C2552 H2541 0.950 . S
C2552 C2550 1.391 . S
C2552 C2553 1.400 . S
C2553 C2547 1.491 . S
C2553 C2552 1.400 . S
C2553 C2554 1.398 . S
C2554 H2542 0.950 . S
C2554 C2553 1.398 . S
C2554 C2555 1.391 . S
C2555 H2543 0.950 . S
C2555 C2551 1.393 . S
C2555 C2554 1.391 . S
H2556 C2564 0.950 . S
H2557 C2569 0.950 . S
H2558 C2566 0.950 . S
H2559 C2568 0.950 . S
H2560 C2570 0.950 . S
H2561 C2572 0.950 . S
H2562 C2574 0.950 . S
H2563 C2575 0.950 . S
C2564 H2556 0.950 . S
C2564 C2565 1.386 . S
C2564 C2566 1.391 . S
C2565 C2564 1.386 . S
C2565 C2569 1.393 . S
C2566 H2558 0.950 . S
C2566 C2564 1.391 . S
C2566 C2567 1.400 . S
C2567 C2566 1.400 . S
C2567 C2568 1.398 . S
C2567 C2573 1.491 . S
C2568 H2559 0.950 . S
C2568 C2567 1.398 . S
C2568 C2569 1.391 . S
C2569 H2557 0.950 . S
C2569 C2565 1.393 . S
C2569 C2568 1.391 . S
C2570 H2560 0.950 . S
C2570 C2571 1.386 . S
C2570 C2572 1.391 . S
C2571 C2570 1.386 . S
C2571 C2575 1.393 . S
C2572 H2561 0.950 . S
C2572 C2570 1.391 . S
C2572 C2573 1.400 . S
C2573 C2567 1.491 . S
C2573 C2572 1.400 . S
C2573 C2574 1.398 . S
C2574 H2562 0.950 . S
C2574 C2573 1.398 . S
C2574 C2575 1.391 . S
C2575 H2563 0.950 . S
C2575 C2571 1.393 . S
C2575 C2574 1.391 . S
H2576 C2584 0.950 . S
H2577 C2589 0.950 . S
H2578 C2586 0.950 . S
H2579 C2588 0.950 . S
H2580 C2590 0.950 . S
H2581 C2592 0.950 . S
H2582 C2594 0.950 . S
H2583 C2595 0.950 . S
C2584 H2576 0.950 . S
C2584 C2585 1.386 . S
C2584 C2586 1.391 . S
C2585 C2584 1.386 . S
C2585 C2589 1.393 . S
C2586 H2578 0.950 . S
C2586 C2584 1.391 . S
C2586 C2587 1.400 . S
C2587 C2586 1.400 . S
C2587 C2588 1.398 . S
C2587 C2593 1.491 . S
C2588 H2579 0.950 . S
C2588 C2587 1.398 . S
C2588 C2589 1.391 . S
C2589 H2577 0.950 . S
C2589 C2585 1.393 . S
C2589 C2588 1.391 . S
C2590 H2580 0.950 . S
C2590 C2591 1.386 . S
C2590 C2592 1.391 . S
C2591 C2590 1.386 . S
C2591 C2595 1.393 . S
C2592 H2581 0.950 . S
C2592 C2590 1.391 . S
C2592 C2593 1.400 . S
C2593 C2587 1.491 . S
C2593 C2592 1.400 . S
C2593 C2594 1.398 . S
C2594 H2582 0.950 . S
C2594 C2593 1.398 . S
C2594 C2595 1.391 . S
C2595 H2583 0.950 . S
C2595 C2591 1.393 . S
C2595 C2594 1.391 . S
H2596 C2604 0.950 . S
H2597 C2609 0.950 . S
H2598 C2606 0.950 . S
H2599 C2608 0.950 . S
H2600 C2610 0.950 . S
H2601 C2612 0.950 . S
H2602 C2614 0.950 . S
H2603 C2615 0.950 . S
C2604 H2596 0.950 . S
C2604 C2605 1.386 . S
C2604 C2606 1.391 . S
C2605 C2604 1.386 . S
C2605 C2609 1.393 . S
C2606 H2598 0.950 . S
C2606 C2604 1.391 . S
C2606 C2607 1.400 . S
C2607 C2606 1.400 . S
C2607 C2608 1.398 . S
C2607 C2613 1.491 . S
C2608 H2599 0.950 . S
C2608 C2607 1.398 . S
C2608 C2609 1.391 . S
C2609 H2597 0.950 . S
C2609 C2605 1.393 . S
C2609 C2608 1.391 . S
C2610 H2600 0.950 . S
C2610 C2611 1.386 . S
C2610 C2612 1.391 . S
C2611 C2610 1.386 . S
C2611 C2615 1.393 . S
C2612 H2601 0.950 . S
C2612 C2610 1.391 . S
C2612 C2613 1.400 . S
C2613 C2607 1.491 . S
C2613 C2612 1.400 . S
C2613 C2614 1.398 . S
C2614 H2602 0.950 . S
C2614 C2613 1.398 . S
C2614 C2615 1.391 . S
C2615 H2603 0.950 . S
C2615 C2611 1.393 . S
C2615 C2614 1.391 . S
H2616 C2624 0.950 . S
H2617 C2629 0.950 . S
H2618 C2626 0.950 . S
H2619 C2628 0.950 . S
H2620 C2630 0.950 . S
H2621 C2632 0.950 . S
H2622 C2634 0.950 . S
H2623 C2635 0.950 . S
C2624 H2616 0.950 . S
C2624 C2625 1.386 . S
C2624 C2626 1.391 . S
C2625 C2624 1.386 . S
C2625 C2629 1.393 . S
C2626 H2618 0.950 . S
C2626 C2624 1.391 . S
C2626 C2627 1.400 . S
C2627 C2626 1.400 . S
C2627 C2628 1.398 . S
C2627 C2633 1.491 . S
C2628 H2619 0.950 . S
C2628 C2627 1.398 . S
C2628 C2629 1.391 . S
C2629 H2617 0.950 . S
C2629 C2625 1.393 . S
C2629 C2628 1.391 . S
C2630 H2620 0.950 . S
C2630 C2631 1.386 . S
C2630 C2632 1.391 . S
C2631 C2630 1.386 . S
C2631 C2635 1.393 . S
C2632 H2621 0.950 . S
C2632 C2630 1.391 . S
C2632 C2633 1.400 . S
C2633 C2627 1.491 . S
C2633 C2632 1.400 . S
C2633 C2634 1.398 . S
C2634 H2622 0.950 . S
C2634 C2633 1.398 . S
C2634 C2635 1.391 . S
C2635 H2623 0.950 . S
C2635 C2631 1.393 . S
C2635 C2634 1.391 . S
H2636 C2644 0.950 . S
H2637 C2649 0.950 . S
H2638 C2646 0.950 . S
H2639 C2648 0.950 . S
H2640 C2650 0.950 . S
H2641 C2652 0.950 . S
H2642 C2654 0.950 . S
H2643 C2655 0.950 . S
C2644 H2636 0.950 . S
C2644 C2645 1.386 . S
C2644 C2646 1.391 . S
C2645 C2644 1.386 . S
C2645 C2649 1.393 . S
C2646 H2638 0.950 . S
C2646 C2644 1.391 . S
C2646 C2647 1.400 . S
C2647 C2646 1.400 . S
C2647 C2648 1.398 . S
C2647 C2653 1.491 . S
C2648 H2639 0.950 . S
C2648 C2647 1.398 . S
C2648 C2649 1.391 . S
C2649 H2637 0.950 . S
C2649 C2645 1.393 . S
C2649 C2648 1.391 . S
C2650 H2640 0.950 . S
C2650 C2651 1.386 . S
C2650 C2652 1.391 . S
C2651 C2650 1.386 . S
C2651 C2655 1.393 . S
C2652 H2641 0.950 . S
C2652 C2650 1.391 . S
C2652 C2653 1.400 . S
C2653 C2647 1.491 . S
C2653 C2652 1.400 . S
C2653 C2654 1.398 . S
C2654 H2642 0.950 . S
C2654 C2653 1.398 . S
C2654 C2655 1.391 . S
C2655 H2643 0.950 . S
C2655 C2651 1.393 . S
C2655 C2654 1.391 . S
H2656 C2664 0.950 . S
H2657 C2669 0.950 . S
H2658 C2666 0.950 . S
H2659 C2668 0.950 . S
H2660 C2670 0.950 . S
H2661 C2672 0.950 . S
H2662 C2674 0.950 . S
H2663 C2675 0.950 . S
C2664 H2656 0.950 . S
C2664 C2665 1.386 . S
C2664 C2666 1.391 . S
C2665 C2664 1.386 . S
C2665 C2669 1.393 . S
C2666 H2658 0.950 . S
C2666 C2664 1.391 . S
C2666 C2667 1.400 . S
C2667 C2666 1.400 . S
C2667 C2668 1.398 . S
C2667 C2673 1.491 . S
C2668 H2659 0.950 . S
C2668 C2667 1.398 . S
C2668 C2669 1.391 . S
C2669 H2657 0.950 . S
C2669 C2665 1.393 . S
C2669 C2668 1.391 . S
C2670 H2660 0.950 . S
C2670 C2671 1.386 . S
C2670 C2672 1.391 . S
C2671 C2670 1.386 . S
C2671 C2675 1.393 . S
C2672 H2661 0.950 . S
C2672 C2670 1.391 . S
C2672 C2673 1.400 . S
C2673 C2667 1.491 . S
C2673 C2672 1.400 . S
C2673 C2674 1.398 . S
C2674 H2662 0.950 . S
C2674 C2673 1.398 . S
C2674 C2675 1.391 . S
C2675 H2663 0.950 . S
C2675 C2671 1.393 . S
C2675 C2674 1.391 . S
H2676 C2684 0.950 . S
H2677 C2689 0.950 . S
H2678 C2686 0.950 . S
H2679 C2688 0.950 . S
H2680 C2690 0.950 . S
H2681 C2692 0.950 . S
H2682 C2694 0.950 . S
H2683 C2695 0.950 . S
C2684 H2676 0.950 . S
C2684 C2685 1.386 . S
C2684 C2686 1.391 . S
C2685 C2684 1.386 . S
C2685 C2689 1.393 . S
C2686 H2678 0.950 . S
C2686 C2684 1.391 . S
C2686 C2687 1.400 . S
C2687 C2686 1.400 . S
C2687 C2688 1.398 . S
C2687 C2693 1.491 . S
C2688 H2679 0.950 . S
C2688 C2687 1.398 . S
C2688 C2689 1.391 . S
C2689 H2677 0.950 . S
C2689 C2685 1.393 . S
C2689 C2688 1.391 . S
C2690 H2680 0.950 . S
C2690 C2691 1.386 . S
C2690 C2692 1.391 . S
C2691 C2690 1.386 . S
C2691 C2695 1.393 . S
C2692 H2681 0.950 . S
C2692 C2690 1.391 . S
C2692 C2693 1.400 . S
C2693 C2687 1.491 . S
C2693 C2692 1.400 . S
C2693 C2694 1.398 . S
C2694 H2682 0.950 . S
C2694 C2693 1.398 . S
C2694 C2695 1.391 . S
C2695 H2683 0.950 . S
C2695 C2691 1.393 . S
C2695 C2694 1.391 . S
H2696 C2704 0.950 . S
H2697 C2709 0.950 . S
H2698 C2706 0.950 . S
H2699 C2708 0.950 . S
H2700 C2710 0.950 . S
H2701 C2712 0.950 . S
H2702 C2714 0.950 . S
H2703 C2715 0.950 . S
C2704 H2696 0.950 . S
C2704 C2705 1.386 . S
C2704 C2706 1.391 . S
C2705 C2704 1.386 . S
C2705 C2709 1.393 . S
C2706 H2698 0.950 . S
C2706 C2704 1.391 . S
C2706 C2707 1.400 . S
C2707 C2706 1.400 . S
C2707 C2708 1.398 . S
C2707 C2713 1.491 . S
C2708 H2699 0.950 . S
C2708 C2707 1.398 . S
C2708 C2709 1.391 . S
C2709 H2697 0.950 . S
C2709 C2705 1.393 . S
C2709 C2708 1.391 . S
C2710 H2700 0.950 . S
C2710 C2711 1.386 . S
C2710 C2712 1.391 . S
C2711 C2710 1.386 . S
C2711 C2715 1.393 . S
C2712 H2701 0.950 . S
C2712 C2710 1.391 . S
C2712 C2713 1.400 . S
C2713 C2707 1.491 . S
C2713 C2712 1.400 . S
C2713 C2714 1.398 . S
C2714 H2702 0.950 . S
C2714 C2713 1.398 . S
C2714 C2715 1.391 . S
C2715 H2703 0.950 . S
C2715 C2711 1.393 . S
C2715 C2714 1.391 . S
H2716 C2724 0.950 . S
H2717 C2729 0.950 . S
H2718 C2726 0.950 . S
H2719 C2728 0.950 . S
H2720 C2730 0.950 . S
H2721 C2732 0.950 . S
H2722 C2734 0.950 . S
H2723 C2735 0.950 . S
C2724 H2716 0.950 . S
C2724 C2725 1.386 . S
C2724 C2726 1.391 . S
C2725 C2724 1.386 . S
C2725 C2729 1.393 . S
C2726 H2718 0.950 . S
C2726 C2724 1.391 . S
C2726 C2727 1.400 . S
C2727 C2726 1.400 . S
C2727 C2728 1.398 . S
C2727 C2733 1.491 . S
C2728 H2719 0.950 . S
C2728 C2727 1.398 . S
C2728 C2729 1.391 . S
C2729 H2717 0.950 . S
C2729 C2725 1.393 . S
C2729 C2728 1.391 . S
C2730 H2720 0.950 . S
C2730 C2731 1.386 . S
C2730 C2732 1.391 . S
C2731 C2730 1.386 . S
C2731 C2735 1.393 . S
C2732 H2721 0.950 . S
C2732 C2730 1.391 . S
C2732 C2733 1.400 . S
C2733 C2727 1.491 . S
C2733 C2732 1.400 . S
C2733 C2734 1.398 . S
C2734 H2722 0.950 . S
C2734 C2733 1.398 . S
C2734 C2735 1.391 . S
C2735 H2723 0.950 . S
C2735 C2731 1.393 . S
C2735 C2734 1.391 . S
H2736 C2744 0.950 . S
H2737 C2749 0.950 . S
H2738 C2746 0.950 . S
H2739 C2748 0.950 . S
H2740 C2750 0.950 . S
H2741 C2752 0.950 . S
H2742 C2754 0.950 . S
H2743 C2755 0.950 . S
C2744 H2736 0.950 . S
C2744 C2745 1.386 . S
C2744 C2746 1.391 . S
C2745 C2744 1.386 . S
C2745 C2749 1.393 . S
C2746 H2738 0.950 . S
C2746 C2744 1.391 . S
C2746 C2747 1.400 . S
C2747 C2746 1.400 . S
C2747 C2748 1.398 . S
C2747 C2753 1.491 . S
C2748 H2739 0.950 . S
C2748 C2747 1.398 . S
C2748 C2749 1.391 . S
C2749 H2737 0.950 . S
C2749 C2745 1.393 . S
C2749 C2748 1.391 . S
C2750 H2740 0.950 . S
C2750 C2751 1.386 . S
C2750 C2752 1.391 . S
C2751 C2750 1.386 . S
C2751 C2755 1.393 . S
C2752 H2741 0.950 . S
C2752 C2750 1.391 . S
C2752 C2753 1.400 . S
C2753 C2747 1.491 . S
C2753 C2752 1.400 . S
C2753 C2754 1.398 . S
C2754 H2742 0.950 . S
C2754 C2753 1.398 . S
C2754 C2755 1.391 . S
C2755 H2743 0.950 . S
C2755 C2751 1.393 . S
C2755 C2754 1.391 . S
H2756 C2764 0.950 . S
H2757 C2769 0.950 . S
H2758 C2766 0.950 . S
H2759 C2768 0.950 . S
H2760 C2770 0.950 . S
H2761 C2772 0.950 . S
H2762 C2774 0.950 . S
H2763 C2775 0.950 . S
C2764 H2756 0.950 . S
C2764 C2765 1.386 . S
C2764 C2766 1.391 . S
C2765 C2764 1.386 . S
C2765 C2769 1.393 . S
C2766 H2758 0.950 . S
C2766 C2764 1.391 . S
C2766 C2767 1.400 . S
C2767 C2766 1.400 . S
C2767 C2768 1.398 . S
C2767 C2773 1.491 . S
C2768 H2759 0.950 . S
C2768 C2767 1.398 . S
C2768 C2769 1.391 . S
C2769 H2757 0.950 . S
C2769 C2765 1.393 . S
C2769 C2768 1.391 . S
C2770 H2760 0.950 . S
C2770 C2771 1.386 . S
C2770 C2772 1.391 . S
C2771 C2770 1.386 . S
C2771 C2775 1.393 . S
C2772 H2761 0.950 . S
C2772 C2770 1.391 . S
C2772 C2773 1.400 . S
C2773 C2767 1.491 . S
C2773 C2772 1.400 . S
C2773 C2774 1.398 . S
C2774 H2762 0.950 . S
C2774 C2773 1.398 . S
C2774 C2775 1.391 . S
C2775 H2763 0.950 . S
C2775 C2771 1.393 . S
C2775 C2774 1.391 . S
H2776 C2784 0.950 . S
H2777 C2789 0.950 . S
H2778 C2786 0.950 . S
H2779 C2788 0.950 . S
H2780 C2790 0.950 . S
H2781 C2792 0.950 . S
H2782 C2794 0.950 . S
H2783 C2795 0.950 . S
C2784 H2776 0.950 . S
C2784 C2785 1.386 . S
C2784 C2786 1.391 . S
C2785 C2784 1.386 . S
C2785 C2789 1.393 . S
C2786 H2778 0.950 . S
C2786 C2784 1.391 . S
C2786 C2787 1.400 . S
C2787 C2786 1.400 . S
C2787 C2788 1.398 . S
C2787 C2793 1.491 . S
C2788 H2779 0.950 . S
C2788 C2787 1.398 . S
C2788 C2789 1.391 . S
C2789 H2777 0.950 . S
C2789 C2785 1.393 . S
C2789 C2788 1.391 . S
C2790 H2780 0.950 . S
C2790 C2791 1.386 . S
C2790 C2792 1.391 . S
C2791 C2790 1.386 . S
C2791 C2795 1.393 . S
C2792 H2781 0.950 . S
C2792 C2790 1.391 . S
C2792 C2793 1.400 . S
C2793 C2787 1.491 . S
C2793 C2792 1.400 . S
C2793 C2794 1.398 . S
C2794 H2782 0.950 . S
C2794 C2793 1.398 . S
C2794 C2795 1.391 . S
C2795 H2783 0.950 . S
C2795 C2791 1.393 . S
C2795 C2794 1.391 . S
H2796 C2804 0.950 . S
H2797 C2809 0.950 . S
H2798 C2806 0.950 . S
H2799 C2808 0.950 . S
H2800 C2810 0.950 . S
H2801 C2812 0.950 . S
H2802 C2814 0.950 . S
H2803 C2815 0.950 . S
C2804 H2796 0.950 . S
C2804 C2805 1.386 . S
C2804 C2806 1.391 . S
C2805 C2804 1.386 . S
C2805 C2809 1.393 . S
C2806 H2798 0.950 . S
C2806 C2804 1.391 . S
C2806 C2807 1.400 . S
C2807 C2806 1.400 . S
C2807 C2808 1.398 . S
C2807 C2813 1.491 . S
C2808 H2799 0.950 . S
C2808 C2807 1.398 . S
C2808 C2809 1.391 . S
C2809 H2797 0.950 . S
C2809 C2805 1.393 . S
C2809 C2808 1.391 . S
C2810 H2800 0.950 . S
C2810 C2811 1.386 . S
C2810 C2812 1.391 . S
C2811 C2810 1.386 . S
C2811 C2815 1.393 . S
C2812 H2801 0.950 . S
C2812 C2810 1.391 . S
C2812 C2813 1.400 . S
C2813 C2807 1.491 . S
C2813 C2812 1.400 . S
C2813 C2814 1.398 . S
C2814 H2802 0.950 . S
C2814 C2813 1.398 . S
C2814 C2815 1.391 . S
C2815 H2803 0.950 . S
C2815 C2811 1.393 . S
C2815 C2814 1.391 . S
H2816 C2824 0.950 . S
H2817 C2829 0.950 . S
H2818 C2826 0.950 . S
H2819 C2828 0.950 . S
H2820 C2830 0.950 . S
H2821 C2832 0.950 . S
H2822 C2834 0.950 . S
H2823 C2835 0.950 . S
C2824 H2816 0.950 . S
C2824 C2825 1.386 . S
C2824 C2826 1.391 . S
C2825 C2824 1.386 . S
C2825 C2829 1.393 . S
C2826 H2818 0.950 . S
C2826 C2824 1.391 . S
C2826 C2827 1.400 . S
C2827 C2826 1.400 . S
C2827 C2828 1.398 . S
C2827 C2833 1.491 . S
C2828 H2819 0.950 . S
C2828 C2827 1.398 . S
C2828 C2829 1.391 . S
C2829 H2817 0.950 . S
C2829 C2825 1.393 . S
C2829 C2828 1.391 . S
C2830 H2820 0.950 . S
C2830 C2831 1.386 . S
C2830 C2832 1.391 . S
C2831 C2830 1.386 . S
C2831 C2835 1.393 . S
C2832 H2821 0.950 . S
C2832 C2830 1.391 . S
C2832 C2833 1.400 . S
C2833 C2827 1.491 . S
C2833 C2832 1.400 . S
C2833 C2834 1.398 . S
C2834 H2822 0.950 . S
C2834 C2833 1.398 . S
C2834 C2835 1.391 . S
C2835 H2823 0.950 . S
C2835 C2831 1.393 . S
C2835 C2834 1.391 . S
H2836 C2844 0.950 . S
H2837 C2849 0.950 . S
H2838 C2846 0.950 . S
H2839 C2848 0.950 . S
H2840 C2850 0.950 . S
H2841 C2852 0.950 . S
H2842 C2854 0.950 . S
H2843 C2855 0.950 . S
C2844 H2836 0.950 . S
C2844 C2845 1.386 . S
C2844 C2846 1.391 . S
C2845 C2844 1.386 . S
C2845 C2849 1.393 . S
C2846 H2838 0.950 . S
C2846 C2844 1.391 . S
C2846 C2847 1.400 . S
C2847 C2846 1.400 . S
C2847 C2848 1.398 . S
C2847 C2853 1.491 . S
C2848 H2839 0.950 . S
C2848 C2847 1.398 . S
C2848 C2849 1.391 . S
C2849 H2837 0.950 . S
C2849 C2845 1.393 . S
C2849 C2848 1.391 . S
C2850 H2840 0.950 . S
C2850 C2851 1.386 . S
C2850 C2852 1.391 . S
C2851 C2850 1.386 . S
C2851 C2855 1.393 . S
C2852 H2841 0.950 . S
C2852 C2850 1.391 . S
C2852 C2853 1.400 . S
C2853 C2847 1.491 . S
C2853 C2852 1.400 . S
C2853 C2854 1.398 . S
C2854 H2842 0.950 . S
C2854 C2853 1.398 . S
C2854 C2855 1.391 . S
C2855 H2843 0.950 . S
C2855 C2851 1.393 . S
C2855 C2854 1.391 . S
H2856 C2864 0.950 . S
H2857 C2869 0.950 . S
H2858 C2866 0.950 . S
H2859 C2868 0.950 . S
H2860 C2870 0.950 . S
H2861 C2872 0.950 . S
H2862 C2874 0.950 . S
H2863 C2875 0.950 . S
C2864 H2856 0.950 . S
C2864 C2865 1.386 . S
C2864 C2866 1.391 . S
C2865 C2864 1.386 . S
C2865 C2869 1.393 . S
C2866 H2858 0.950 . S
C2866 C2864 1.391 . S
C2866 C2867 1.400 . S
C2867 C2866 1.400 . S
C2867 C2868 1.398 . S
C2867 C2873 1.491 . S
C2868 H2859 0.950 . S
C2868 C2867 1.398 . S
C2868 C2869 1.391 . S
C2869 H2857 0.950 . S
C2869 C2865 1.393 . S
C2869 C2868 1.391 . S
C2870 H2860 0.950 . S
C2870 C2871 1.386 . S
C2870 C2872 1.391 . S
C2871 C2870 1.386 . S
C2871 C2875 1.393 . S
C2872 H2861 0.950 . S
C2872 C2870 1.391 . S
C2872 C2873 1.400 . S
C2873 C2867 1.491 . S
C2873 C2872 1.400 . S
C2873 C2874 1.398 . S
C2874 H2862 0.950 . S
C2874 C2873 1.398 . S
C2874 C2875 1.391 . S
C2875 H2863 0.950 . S
C2875 C2871 1.393 . S
C2875 C2874 1.391 . S
H2876 C2884 0.950 . S
H2877 C2889 0.950 . S
H2878 C2886 0.950 . S
H2879 C2888 0.950 . S
H2880 C2890 0.950 . S
H2881 C2892 0.950 . S
H2882 C2894 0.950 . S
H2883 C2895 0.950 . S
C2884 H2876 0.950 . S
C2884 C2885 1.386 . S
C2884 C2886 1.391 . S
C2885 C2884 1.386 . S
C2885 C2889 1.393 . S
C2886 H2878 0.950 . S
C2886 C2884 1.391 . S
C2886 C2887 1.400 . S
C2887 C2886 1.400 . S
C2887 C2888 1.398 . S
C2887 C2893 1.491 . S
C2888 H2879 0.950 . S
C2888 C2887 1.398 . S
C2888 C2889 1.391 . S
C2889 H2877 0.950 . S
C2889 C2885 1.393 . S
C2889 C2888 1.391 . S
C2890 H2880 0.950 . S
C2890 C2891 1.386 . S
C2890 C2892 1.391 . S
C2891 C2890 1.386 . S
C2891 C2895 1.393 . S
C2892 H2881 0.950 . S
C2892 C2890 1.391 . S
C2892 C2893 1.400 . S
C2893 C2887 1.491 . S
C2893 C2892 1.400 . S
C2893 C2894 1.398 . S
C2894 H2882 0.950 . S
C2894 C2893 1.398 . S
C2894 C2895 1.391 . S
C2895 H2883 0.950 . S
C2895 C2891 1.393 . S
C2895 C2894 1.391 . S
H2896 C2904 0.950 . S
H2897 C2909 0.950 . S
H2898 C2906 0.950 . S
H2899 C2908 0.950 . S
H2900 C2910 0.950 . S
H2901 C2912 0.950 . S
H2902 C2914 0.950 . S
H2903 C2915 0.950 . S
C2904 H2896 0.950 . S
C2904 C2905 1.386 . S
C2904 C2906 1.391 . S
C2905 C2904 1.386 . S
C2905 C2909 1.393 . S
C2906 H2898 0.950 . S
C2906 C2904 1.391 . S
C2906 C2907 1.400 . S
C2907 C2906 1.400 . S
C2907 C2908 1.398 . S
C2907 C2913 1.491 . S
C2908 H2899 0.950 . S
C2908 C2907 1.398 . S
C2908 C2909 1.391 . S
C2909 H2897 0.950 . S
C2909 C2905 1.393 . S
C2909 C2908 1.391 . S
C2910 H2900 0.950 . S
C2910 C2911 1.386 . S
C2910 C2912 1.391 . S
C2911 C2910 1.386 . S
C2911 C2915 1.393 . S
C2912 H2901 0.950 . S
C2912 C2910 1.391 . S
C2912 C2913 1.400 . S
C2913 C2907 1.491 . S
C2913 C2912 1.400 . S
C2913 C2914 1.398 . S
C2914 H2902 0.950 . S
C2914 C2913 1.398 . S
C2914 C2915 1.391 . S
C2915 H2903 0.950 . S
C2915 C2911 1.393 . S
C2915 C2914 1.391 . S
H2916 C2924 0.950 . S
H2917 C2929 0.950 . S
H2918 C2926 0.950 . S
H2919 C2928 0.950 . S
H2920 C2930 0.950 . S
H2921 C2932 0.950 . S
H2922 C2934 0.950 . S
H2923 C2935 0.950 . S
C2924 H2916 0.950 . S
C2924 C2925 1.386 . S
C2924 C2926 1.391 . S
C2925 C2924 1.386 . S
C2925 C2929 1.393 . S
C2926 H2918 0.950 . S
C2926 C2924 1.391 . S
C2926 C2927 1.400 . S
C2927 C2926 1.400 . S
C2927 C2928 1.398 . S
C2927 C2933 1.491 . S
C2928 H2919 0.950 . S
C2928 C2927 1.398 . S
C2928 C2929 1.391 . S
C2929 H2917 0.950 . S
C2929 C2925 1.393 . S
C2929 C2928 1.391 . S
C2930 H2920 0.950 . S
C2930 C2931 1.386 . S
C2930 C2932 1.391 . S
C2931 C2930 1.386 . S
C2931 C2935 1.393 . S
C2932 H2921 0.950 . S
C2932 C2930 1.391 . S
C2932 C2933 1.400 . S
C2933 C2927 1.491 . S
C2933 C2932 1.400 . S
C2933 C2934 1.398 . S
C2934 H2922 0.950 . S
C2934 C2933 1.398 . S
C2934 C2935 1.391 . S
C2935 H2923 0.950 . S
C2935 C2931 1.393 . S
C2935 C2934 1.391 . S
H2936 C2944 0.950 . S
H2937 C2949 0.950 . S
H2938 C2946 0.950 . S
H2939 C2948 0.950 . S
H2940 C2950 0.950 . S
H2941 C2952 0.950 . S
H2942 C2954 0.950 . S
H2943 C2955 0.950 . S
C2944 H2936 0.950 . S
C2944 C2945 1.386 . S
C2944 C2946 1.391 . S
C2945 C2944 1.386 . S
C2945 C2949 1.393 . S
C2946 H2938 0.950 . S
C2946 C2944 1.391 . S
C2946 C2947 1.400 . S
C2947 C2946 1.400 . S
C2947 C2948 1.398 . S
C2947 C2953 1.491 . S
C2948 H2939 0.950 . S
C2948 C2947 1.398 . S
C2948 C2949 1.391 . S
C2949 H2937 0.950 . S
C2949 C2945 1.393 . S
C2949 C2948 1.391 . S
C2950 H2940 0.950 . S
C2950 C2951 1.386 . S
C2950 C2952 1.391 . S
C2951 C2950 1.386 . S
C2951 C2955 1.393 . S
C2952 H2941 0.950 . S
C2952 C2950 1.391 . S
C2952 C2953 1.400 . S
C2953 C2947 1.491 . S
C2953 C2952 1.400 . S
C2953 C2954 1.398 . S
C2954 H2942 0.950 . S
C2954 C2953 1.398 . S
C2954 C2955 1.391 . S
C2955 H2943 0.950 . S
C2955 C2951 1.393 . S
C2955 C2954 1.391 . S
H2956 C2964 0.950 . S
H2957 C2969 0.950 . S
H2958 C2966 0.950 . S
H2959 C2968 0.950 . S
H2960 C2970 0.950 . S
H2961 C2972 0.950 . S
H2962 C2974 0.950 . S
H2963 C2975 0.950 . S
C2964 H2956 0.950 . S
C2964 C2965 1.386 . S
C2964 C2966 1.391 . S
C2965 C2964 1.386 . S
C2965 C2969 1.393 . S
C2966 H2958 0.950 . S
C2966 C2964 1.391 . S
C2966 C2967 1.400 . S
C2967 C2966 1.400 . S
C2967 C2968 1.398 . S
C2967 C2973 1.491 . S
C2968 H2959 0.950 . S
C2968 C2967 1.398 . S
C2968 C2969 1.391 . S
C2969 H2957 0.950 . S
C2969 C2965 1.393 . S
C2969 C2968 1.391 . S
C2970 H2960 0.950 . S
C2970 C2971 1.386 . S
C2970 C2972 1.391 . S
C2971 C2970 1.386 . S
C2971 C2975 1.393 . S
C2972 H2961 0.950 . S
C2972 C2970 1.391 . S
C2972 C2973 1.400 . S
C2973 C2967 1.491 . S
C2973 C2972 1.400 . S
C2973 C2974 1.398 . S
C2974 H2962 0.950 . S
C2974 C2973 1.398 . S
C2974 C2975 1.391 . S
C2975 H2963 0.950 . S
C2975 C2971 1.393 . S
C2975 C2974 1.391 . S
H2976 C2984 0.950 . S
H2977 C2989 0.950 . S
H2978 C2986 0.950 . S
H2979 C2988 0.950 . S
H2980 C2990 0.950 . S
H2981 C2992 0.950 . S
H2982 C2994 0.950 . S
H2983 C2995 0.950 . S
C2984 H2976 0.950 . S
C2984 C2985 1.386 . S
C2984 C2986 1.391 . S
C2985 C2984 1.386 . S
C2985 C2989 1.393 . S
C2986 H2978 0.950 . S
C2986 C2984 1.391 . S
C2986 C2987 1.400 . S
C2987 C2986 1.400 . S
C2987 C2988 1.398 . S
C2987 C2993 1.491 . S
C2988 H2979 0.950 . S
C2988 C2987 1.398 . S
C2988 C2989 1.391 . S
C2989 H2977 0.950 . S
C2989 C2985 1.393 . S
C2989 C2988 1.391 . S
C2990 H2980 0.950 . S
C2990 C2991 1.386 . S
C2990 C2992 1.391 . S
C2991 C2990 1.386 . S
C2991 C2995 1.393 . S
C2992 H2981 0.950 . S
C2992 C2990 1.391 . S
C2992 C2993 1.400 . S
C2993 C2987 1.491 . S
C2993 C2992 1.400 . S
C2993 C2994 1.398 . S
C2994 H2982 0.950 . S
C2994 C2993 1.398 . S
C2994 C2995 1.391 . S
C2995 H2983 0.950 . S
C2995 C2991 1.393 . S
C2995 C2994 1.391 . S
H2996 C3004 0.950 . S
H2997 C3009 0.950 . S
H2998 C3006 0.950 . S
H2999 C3008 0.950 . S
H3000 C3010 0.950 . S
H3001 C3012 0.950 . S
H3002 C3014 0.950 . S
H3003 C3015 0.950 . S
C3004 H2996 0.950 . S
C3004 C3005 1.386 . S
C3004 C3006 1.391 . S
C3005 C3004 1.386 . S
C3005 C3009 1.393 . S
C3006 H2998 0.950 . S
C3006 C3004 1.391 . S
C3006 C3007 1.400 . S
C3007 C3006 1.400 . S
C3007 C3008 1.398 . S
C3007 C3013 1.491 . S
C3008 H2999 0.950 . S
C3008 C3007 1.398 . S
C3008 C3009 1.391 . S
C3009 H2997 0.950 . S
C3009 C3005 1.393 . S
C3009 C3008 1.391 . S
C3010 H3000 0.950 . S
C3010 C3011 1.386 . S
C3010 C3012 1.391 . S
C3011 C3010 1.386 . S
C3011 C3015 1.393 . S
C3012 H3001 0.950 . S
C3012 C3010 1.391 . S
C3012 C3013 1.400 . S
C3013 C3007 1.491 . S
C3013 C3012 1.400 . S
C3013 C3014 1.398 . S
C3014 H3002 0.950 . S
C3014 C3013 1.398 . S
C3014 C3015 1.391 . S
C3015 H3003 0.950 . S
C3015 C3011 1.393 . S
C3015 C3014 1.391 . S
H3016 C3024 0.950 . S
H3017 C3029 0.950 . S
H3018 C3026 0.950 . S
H3019 C3028 0.950 . S
H3020 C3030 0.950 . S
H3021 C3032 0.950 . S
H3022 C3034 0.950 . S
H3023 C3035 0.950 . S
C3024 H3016 0.950 . S
C3024 C3025 1.386 . S
C3024 C3026 1.391 . S
C3025 C3024 1.386 . S
C3025 C3029 1.393 . S
C3026 H3018 0.950 . S
C3026 C3024 1.391 . S
C3026 C3027 1.400 . S
C3027 C3026 1.400 . S
C3027 C3028 1.398 . S
C3027 C3033 1.491 . S
C3028 H3019 0.950 . S
C3028 C3027 1.398 . S
C3028 C3029 1.391 . S
C3029 H3017 0.950 . S
C3029 C3025 1.393 . S
C3029 C3028 1.391 . S
C3030 H3020 0.950 . S
C3030 C3031 1.386 . S
C3030 C3032 1.391 . S
C3031 C3030 1.386 . S
C3031 C3035 1.393 . S
C3032 H3021 0.950 . S
C3032 C3030 1.391 . S
C3032 C3033 1.400 . S
C3033 C3027 1.491 . S
C3033 C3032 1.400 . S
C3033 C3034 1.398 . S
C3034 H3022 0.950 . S
C3034 C3033 1.398 . S
C3034 C3035 1.391 . S
C3035 H3023 0.950 . S
C3035 C3031 1.393 . S
C3035 C3034 1.391 . S
H3036 C3044 0.950 . S
H3037 C3049 0.950 . S
H3038 C3046 0.950 . S
H3039 C3048 0.950 . S
H3040 C3050 0.950 . S
H3041 C3052 0.950 . S
H3042 C3054 0.950 . S
H3043 C3055 0.950 . S
C3044 H3036 0.950 . S
C3044 C3045 1.386 . S
C3044 C3046 1.391 . S
C3045 C3044 1.386 . S
C3045 C3049 1.393 . S
C3046 H3038 0.950 . S
C3046 C3044 1.391 . S
C3046 C3047 1.400 . S
C3047 C3046 1.400 . S
C3047 C3048 1.398 . S
C3047 C3053 1.491 . S
C3048 H3039 0.950 . S
C3048 C3047 1.398 . S
C3048 C3049 1.391 . S
C3049 H3037 0.950 . S
C3049 C3045 1.393 . S
C3049 C3048 1.391 . S
C3050 H3040 0.950 . S
C3050 C3051 1.386 . S
C3050 C3052 1.391 . S
C3051 C3050 1.386 . S
C3051 C3055 1.393 . S
C3052 H3041 0.950 . S
C3052 C3050 1.391 . S
C3052 C3053 1.400 . S
C3053 C3047 1.491 . S
C3053 C3052 1.400 . S
C3053 C3054 1.398 . S
C3054 H3042 0.950 . S
C3054 C3053 1.398 . S
C3054 C3055 1.391 . S
C3055 H3043 0.950 . S
C3055 C3051 1.393 . S
C3055 C3054 1.391 . S
H3056 C3064 0.950 . S
H3057 C3069 0.950 . S
H3058 C3066 0.950 . S
H3059 C3068 0.950 . S
H3060 C3070 0.950 . S
H3061 C3072 0.950 . S
H3062 C3074 0.950 . S
H3063 C3075 0.950 . S
C3064 H3056 0.950 . S
C3064 C3065 1.386 . S
C3064 C3066 1.391 . S
C3065 C3064 1.386 . S
C3065 C3069 1.393 . S
C3066 H3058 0.950 . S
C3066 C3064 1.391 . S
C3066 C3067 1.400 . S
C3067 C3066 1.400 . S
C3067 C3068 1.398 . S
C3067 C3073 1.491 . S
C3068 H3059 0.950 . S
C3068 C3067 1.398 . S
C3068 C3069 1.391 . S
C3069 H3057 0.950 . S
C3069 C3065 1.393 . S
C3069 C3068 1.391 . S
C3070 H3060 0.950 . S
C3070 C3071 1.386 . S
C3070 C3072 1.391 . S
C3071 C3070 1.386 . S
C3071 C3075 1.393 . S
C3072 H3061 0.950 . S
C3072 C3070 1.391 . S
C3072 C3073 1.400 . S
C3073 C3067 1.491 . S
C3073 C3072 1.400 . S
C3073 C3074 1.398 . S
C3074 H3062 0.950 . S
C3074 C3073 1.398 . S
C3074 C3075 1.391 . S
C3075 H3063 0.950 . S
C3075 C3071 1.393 . S
C3075 C3074 1.391 . S
H3076 C3084 0.950 . S
H3077 C3089 0.950 . S
H3078 C3086 0.950 . S
H3079 C3088 0.950 . S
H3080 C3090 0.950 . S
H3081 C3092 0.950 . S
H3082 C3094 0.950 . S
H3083 C3095 0.950 . S
C3084 H3076 0.950 . S
C3084 C3085 1.386 . S
C3084 C3086 1.391 . S
C3085 C3084 1.386 . S
C3085 C3089 1.393 . S
C3086 H3078 0.950 . S
C3086 C3084 1.391 . S
C3086 C3087 1.400 . S
C3087 C3086 1.400 . S
C3087 C3088 1.398 . S
C3087 C3093 1.491 . S
C3088 H3079 0.950 . S
C3088 C3087 1.398 . S
C3088 C3089 1.391 . S
C3089 H3077 0.950 . S
C3089 C3085 1.393 . S
C3089 C3088 1.391 . S
C3090 H3080 0.950 . S
C3090 C3091 1.386 . S
C3090 C3092 1.391 . S
C3091 C3090 1.386 . S
C3091 C3095 1.393 . S
C3092 H3081 0.950 . S
C3092 C3090 1.391 . S
C3092 C3093 1.400 . S
C3093 C3087 1.491 . S
C3093 C3092 1.400 . S
C3093 C3094 1.398 . S
C3094 H3082 0.950 . S
C3094 C3093 1.398 . S
C3094 C3095 1.391 . S
C3095 H3083 0.950 . S
C3095 C3091 1.393 . S
C3095 C3094 1.391 . S
H3096 C3104 0.950 . S
H3097 C3109 0.950 . S
H3098 C3106 0.950 . S
H3099 C3108 0.950 . S
H3100 C3110 0.950 . S
H3101 C3112 0.950 . S
H3102 C3114 0.950 . S
H3103 C3115 0.950 . S
C3104 H3096 0.950 . S
C3104 C3105 1.386 . S
C3104 C3106 1.391 . S
C3105 C3104 1.386 . S
C3105 C3109 1.393 . S
C3106 H3098 0.950 . S
C3106 C3104 1.391 . S
C3106 C3107 1.400 . S
C3107 C3106 1.400 . S
C3107 C3108 1.398 . S
C3107 C3113 1.491 . S
C3108 H3099 0.950 . S
C3108 C3107 1.398 . S
C3108 C3109 1.391 . S
C3109 H3097 0.950 . S
C3109 C3105 1.393 . S
C3109 C3108 1.391 . S
C3110 H3100 0.950 . S
C3110 C3111 1.386 . S
C3110 C3112 1.391 . S
C3111 C3110 1.386 . S
C3111 C3115 1.393 . S
C3112 H3101 0.950 . S
C3112 C3110 1.391 . S
C3112 C3113 1.400 . S
C3113 C3107 1.491 . S
C3113 C3112 1.400 . S
C3113 C3114 1.398 . S
C3114 H3102 0.950 . S
C3114 C3113 1.398 . S
C3114 C3115 1.391 . S
C3115 H3103 0.950 . S
C3115 C3111 1.393 . S
C3115 C3114 1.391 . S
H3116 C3124 0.950 . S
H3117 C3129 0.950 . S
H3118 C3126 0.950 . S
H3119 C3128 0.950 . S
H3120 C3130 0.950 . S
H3121 C3132 0.950 . S
H3122 C3134 0.950 . S
H3123 C3135 0.950 . S
C3124 H3116 0.950 . S
C3124 C3125 1.386 . S
C3124 C3126 1.391 . S
C3125 C3124 1.386 . S
C3125 C3129 1.393 . S
C3126 H3118 0.950 . S
C3126 C3124 1.391 . S
C3126 C3127 1.400 . S
C3127 C3126 1.400 . S
C3127 C3128 1.398 . S
C3127 C3133 1.491 . S
C3128 H3119 0.950 . S
C3128 C3127 1.398 . S
C3128 C3129 1.391 . S
C3129 H3117 0.950 . S
C3129 C3125 1.393 . S
C3129 C3128 1.391 . S
C3130 H3120 0.950 . S
C3130 C3131 1.386 . S
C3130 C3132 1.391 . S
C3131 C3130 1.386 . S
C3131 C3135 1.393 . S
C3132 H3121 0.950 . S
C3132 C3130 1.391 . S
C3132 C3133 1.400 . S
C3133 C3127 1.491 . S
C3133 C3132 1.400 . S
C3133 C3134 1.398 . S
C3134 H3122 0.950 . S
C3134 C3133 1.398 . S
C3134 C3135 1.391 . S
C3135 H3123 0.950 . S
C3135 C3131 1.393 . S
C3135 C3134 1.391 . S
H3136 C3144 0.950 . S
H3137 C3149 0.950 . S
H3138 C3146 0.950 . S
H3139 C3148 0.950 . S
H3140 C3150 0.950 . S
H3141 C3152 0.950 . S
H3142 C3154 0.950 . S
H3143 C3155 0.950 . S
C3144 H3136 0.950 . S
C3144 C3145 1.386 . S
C3144 C3146 1.391 . S
C3145 C3144 1.386 . S
C3145 C3149 1.393 . S
C3146 H3138 0.950 . S
C3146 C3144 1.391 . S
C3146 C3147 1.400 . S
C3147 C3146 1.400 . S
C3147 C3148 1.398 . S
C3147 C3153 1.491 . S
C3148 H3139 0.950 . S
C3148 C3147 1.398 . S
C3148 C3149 1.391 . S
C3149 H3137 0.950 . S
C3149 C3145 1.393 . S
C3149 C3148 1.391 . S
C3150 H3140 0.950 . S
C3150 C3151 1.386 . S
C3150 C3152 1.391 . S
C3151 C3150 1.386 . S
C3151 C3155 1.393 . S
C3152 H3141 0.950 . S
C3152 C3150 1.391 . S
C3152 C3153 1.400 . S
C3153 C3147 1.491 . S
C3153 C3152 1.400 . S
C3153 C3154 1.398 . S
C3154 H3142 0.950 . S
C3154 C3153 1.398 . S
C3154 C3155 1.391 . S
C3155 H3143 0.950 . S
C3155 C3151 1.393 . S
C3155 C3154 1.391 . S
H3156 C3164 0.950 . S
H3157 C3169 0.950 . S
H3158 C3166 0.950 . S
H3159 C3168 0.950 . S
H3160 C3170 0.950 . S
H3161 C3172 0.950 . S
H3162 C3174 0.950 . S
H3163 C3175 0.950 . S
C3164 H3156 0.950 . S
C3164 C3165 1.386 . S
C3164 C3166 1.391 . S
C3165 C3164 1.386 . S
C3165 C3169 1.393 . S
C3166 H3158 0.950 . S
C3166 C3164 1.391 . S
C3166 C3167 1.400 . S
C3167 C3166 1.400 . S
C3167 C3168 1.398 . S
C3167 C3173 1.491 . S
C3168 H3159 0.950 . S
C3168 C3167 1.398 . S
C3168 C3169 1.391 . S
C3169 H3157 0.950 . S
C3169 C3165 1.393 . S
C3169 C3168 1.391 . S
C3170 H3160 0.950 . S
C3170 C3171 1.386 . S
C3170 C3172 1.391 . S
C3171 C3170 1.386 . S
C3171 C3175 1.393 . S
C3172 H3161 0.950 . S
C3172 C3170 1.391 . S
C3172 C3173 1.400 . S
C3173 C3167 1.491 . S
C3173 C3172 1.400 . S
C3173 C3174 1.398 . S
C3174 H3162 0.950 . S
C3174 C3173 1.398 . S
C3174 C3175 1.391 . S
C3175 H3163 0.950 . S
C3175 C3171 1.393 . S
C3175 C3174 1.391 . S
H3176 C3184 0.950 . S
H3177 C3189 0.950 . S
H3178 C3186 0.950 . S
H3179 C3188 0.950 . S
H3180 C3190 0.950 . S
H3181 C3192 0.950 . S
H3182 C3194 0.950 . S
H3183 C3195 0.950 . S
C3184 H3176 0.950 . S
C3184 C3185 1.386 . S
C3184 C3186 1.391 . S
C3185 C3184 1.386 . S
C3185 C3189 1.393 . S
C3186 H3178 0.950 . S
C3186 C3184 1.391 . S
C3186 C3187 1.400 . S
C3187 C3186 1.400 . S
C3187 C3188 1.398 . S
C3187 C3193 1.491 . S
C3188 H3179 0.950 . S
C3188 C3187 1.398 . S
C3188 C3189 1.391 . S
C3189 H3177 0.950 . S
C3189 C3185 1.393 . S
C3189 C3188 1.391 . S
C3190 H3180 0.950 . S
C3190 C3191 1.386 . S
C3190 C3192 1.391 . S
C3191 C3190 1.386 . S
C3191 C3195 1.393 . S
C3192 H3181 0.950 . S
C3192 C3190 1.391 . S
C3192 C3193 1.400 . S
C3193 C3187 1.491 . S
C3193 C3192 1.400 . S
C3193 C3194 1.398 . S
C3194 H3182 0.950 . S
C3194 C3193 1.398 . S
C3194 C3195 1.391 . S
C3195 H3183 0.950 . S
C3195 C3191 1.393 . S
C3195 C3194 1.391 . S
H3196 C3204 0.950 . S
H3197 C3209 0.950 . S
H3198 C3206 0.950 . S
H3199 C3208 0.950 . S
H3200 C3210 0.950 . S
H3201 C3212 0.950 . S
H3202 C3214 0.950 . S
H3203 C3215 0.950 . S
C3204 H3196 0.950 . S
C3204 C3205 1.386 . S
C3204 C3206 1.391 . S
C3205 C3204 1.386 . S
C3205 C3209 1.393 . S
C3206 H3198 0.950 . S
C3206 C3204 1.391 . S
C3206 C3207 1.400 . S
C3207 C3206 1.400 . S
C3207 C3208 1.398 . S
C3207 C3213 1.491 . S
C3208 H3199 0.950 . S
C3208 C3207 1.398 . S
C3208 C3209 1.391 . S
C3209 H3197 0.950 . S
C3209 C3205 1.393 . S
C3209 C3208 1.391 . S
C3210 H3200 0.950 . S
C3210 C3211 1.386 . S
C3210 C3212 1.391 . S
C3211 C3210 1.386 . S
C3211 C3215 1.393 . S
C3212 H3201 0.950 . S
C3212 C3210 1.391 . S
C3212 C3213 1.400 . S
C3213 C3207 1.491 . S
C3213 C3212 1.400 . S
C3213 C3214 1.398 . S
C3214 H3202 0.950 . S
C3214 C3213 1.398 . S
C3214 C3215 1.391 . S
C3215 H3203 0.950 . S
C3215 C3211 1.393 . S
C3215 C3214 1.391 . S
H3216 C3224 0.950 . S
H3217 C3229 0.950 . S
H3218 C3226 0.950 . S
H3219 C3228 0.950 . S
H3220 C3230 0.950 . S
H3221 C3232 0.950 . S
H3222 C3234 0.950 . S
H3223 C3235 0.950 . S
C3224 H3216 0.950 . S
C3224 C3225 1.386 . S
C3224 C3226 1.391 . S
C3225 C3224 1.386 . S
C3225 C3229 1.393 . S
C3226 H3218 0.950 . S
C3226 C3224 1.391 . S
C3226 C3227 1.400 . S
C3227 C3226 1.400 . S
C3227 C3228 1.398 . S
C3227 C3233 1.491 . S
C3228 H3219 0.950 . S
C3228 C3227 1.398 . S
C3228 C3229 1.391 . S
C3229 H3217 0.950 . S
C3229 C3225 1.393 . S
C3229 C3228 1.391 . S
C3230 H3220 0.950 . S
C3230 C3231 1.386 . S
C3230 C3232 1.391 . S
C3231 C3230 1.386 . S
C3231 C3235 1.393 . S
C3232 H3221 0.950 . S
C3232 C3230 1.391 . S
C3232 C3233 1.400 . S
C3233 C3227 1.491 . S
C3233 C3232 1.400 . S
C3233 C3234 1.398 . S
C3234 H3222 0.950 . S
C3234 C3233 1.398 . S
C3234 C3235 1.391 . S
C3235 H3223 0.950 . S
C3235 C3231 1.393 . S
C3235 C3234 1.391 . S
H3236 C3244 0.950 . S
H3237 C3249 0.950 . S
H3238 C3246 0.950 . S
H3239 C3248 0.950 . S
H3240 C3250 0.950 . S
H3241 C3252 0.950 . S
H3242 C3254 0.950 . S
H3243 C3255 0.950 . S
C3244 H3236 0.950 . S
C3244 C3245 1.386 . S
C3244 C3246 1.391 . S
C3245 C3244 1.386 . S
C3245 C3249 1.393 . S
C3246 H3238 0.950 . S
C3246 C3244 1.391 . S
C3246 C3247 1.400 . S
C3247 C3246 1.400 . S
C3247 C3248 1.398 . S
C3247 C3253 1.491 . S
C3248 H3239 0.950 . S
C3248 C3247 1.398 . S
C3248 C3249 1.391 . S
C3249 H3237 0.950 . S
C3249 C3245 1.393 . S
C3249 C3248 1.391 . S
C3250 H3240 0.950 . S
C3250 C3251 1.386 . S
C3250 C3252 1.391 . S
C3251 C3250 1.386 . S
C3251 C3255 1.393 . S
C3252 H3241 0.950 . S
C3252 C3250 1.391 . S
C3252 C3253 1.400 . S
C3253 C3247 1.491 . S
C3253 C3252 1.400 . S
C3253 C3254 1.398 . S
C3254 H3242 0.950 . S
C3254 C3253 1.398 . S
C3254 C3255 1.391 . S
C3255 H3243 0.950 . S
C3255 C3251 1.393 . S
C3255 C3254 1.391 . S
H3256 C3264 0.950 . S
H3257 C3269 0.950 . S
H3258 C3266 0.950 . S
H3259 C3268 0.950 . S
H3260 C3270 0.950 . S
H3261 C3272 0.950 . S
H3262 C3274 0.950 . S
H3263 C3275 0.950 . S
C3264 H3256 0.950 . S
C3264 C3265 1.386 . S
C3264 C3266 1.391 . S
C3265 C3264 1.386 . S
C3265 C3269 1.393 . S
C3266 H3258 0.950 . S
C3266 C3264 1.391 . S
C3266 C3267 1.400 . S
C3267 C3266 1.400 . S
C3267 C3268 1.398 . S
C3267 C3273 1.491 . S
C3268 H3259 0.950 . S
C3268 C3267 1.398 . S
C3268 C3269 1.391 . S
C3269 H3257 0.950 . S
C3269 C3265 1.393 . S
C3269 C3268 1.391 . S
C3270 H3260 0.950 . S
C3270 C3271 1.386 . S
C3270 C3272 1.391 . S
C3271 C3270 1.386 . S
C3271 C3275 1.393 . S
C3272 H3261 0.950 . S
C3272 C3270 1.391 . S
C3272 C3273 1.400 . S
C3273 C3267 1.491 . S
C3273 C3272 1.400 . S
C3273 C3274 1.398 . S
C3274 H3262 0.950 . S
C3274 C3273 1.398 . S
C3274 C3275 1.391 . S
C3275 H3263 0.950 . S
C3275 C3271 1.393 . S
C3275 C3274 1.391 . S
H3276 C3284 0.950 . S
H3277 C3289 0.950 . S
H3278 C3286 0.950 . S
H3279 C3288 0.950 . S
H3280 C3290 0.950 . S
H3281 C3292 0.950 . S
H3282 C3294 0.950 . S
H3283 C3295 0.950 . S
C3284 H3276 0.950 . S
C3284 C3285 1.386 . S
C3284 C3286 1.391 . S
C3285 C3284 1.386 . S
C3285 C3289 1.393 . S
C3286 H3278 0.950 . S
C3286 C3284 1.391 . S
C3286 C3287 1.400 . S
C3287 C3286 1.400 . S
C3287 C3288 1.398 . S
C3287 C3293 1.491 . S
C3288 H3279 0.950 . S
C3288 C3287 1.398 . S
C3288 C3289 1.391 . S
C3289 H3277 0.950 . S
C3289 C3285 1.393 . S
C3289 C3288 1.391 . S
C3290 H3280 0.950 . S
C3290 C3291 1.386 . S
C3290 C3292 1.391 . S
C3291 C3290 1.386 . S
C3291 C3295 1.393 . S
C3292 H3281 0.950 . S
C3292 C3290 1.391 . S
C3292 C3293 1.400 . S
C3293 C3287 1.491 . S
C3293 C3292 1.400 . S
C3293 C3294 1.398 . S
C3294 H3282 0.950 . S
C3294 C3293 1.398 . S
C3294 C3295 1.391 . S
C3295 H3283 0.950 . S
C3295 C3291 1.393 . S
C3295 C3294 1.391 . S
H3296 C3304 0.950 . S
H3297 C3309 0.950 . S
H3298 C3306 0.950 . S
H3299 C3308 0.950 . S
H3300 C3310 0.950 . S
H3301 C3312 0.950 . S
H3302 C3314 0.950 . S
H3303 C3315 0.950 . S
C3304 H3296 0.950 . S
C3304 C3305 1.386 . S
C3304 C3306 1.391 . S
C3305 C3304 1.386 . S
C3305 C3309 1.393 . S
C3306 H3298 0.950 . S
C3306 C3304 1.391 . S
C3306 C3307 1.400 . S
C3307 C3306 1.400 . S
C3307 C3308 1.398 . S
C3307 C3313 1.491 . S
C3308 H3299 0.950 . S
C3308 C3307 1.398 . S
C3308 C3309 1.391 . S
C3309 H3297 0.950 . S
C3309 C3305 1.393 . S
C3309 C3308 1.391 . S
C3310 H3300 0.950 . S
C3310 C3311 1.386 . S
C3310 C3312 1.391 . S
C3311 C3310 1.386 . S
C3311 C3315 1.393 . S
C3312 H3301 0.950 . S
C3312 C3310 1.391 . S
C3312 C3313 1.400 . S
C3313 C3307 1.491 . S
C3313 C3312 1.400 . S
C3313 C3314 1.398 . S
C3314 H3302 0.950 . S
C3314 C3313 1.398 . S
C3314 C3315 1.391 . S
C3315 H3303 0.950 . S
C3315 C3311 1.393 . S
C3315 C3314 1.391 . S
H3316 C3324 0.950 . S
H3317 C3329 0.950 . S
H3318 C3326 0.950 . S
H3319 C3328 0.950 . S
H3320 C3330 0.950 . S
H3321 C3332 0.950 . S
H3322 C3334 0.950 . S
H3323 C3335 0.950 . S
C3324 H3316 0.950 . S
C3324 C3325 1.386 . S
C3324 C3326 1.391 . S
C3325 C3324 1.386 . S
C3325 C3329 1.393 . S
C3326 H3318 0.950 . S
C3326 C3324 1.391 . S
C3326 C3327 1.400 . S
C3327 C3326 1.400 . S
C3327 C3328 1.398 . S
C3327 C3333 1.491 . S
C3328 H3319 0.950 . S
C3328 C3327 1.398 . S
C3328 C3329 1.391 . S
C3329 H3317 0.950 . S
C3329 C3325 1.393 . S
C3329 C3328 1.391 . S
C3330 H3320 0.950 . S
C3330 C3331 1.386 . S
C3330 C3332 1.391 . S
C3331 C3330 1.386 . S
C3331 C3335 1.393 . S
C3332 H3321 0.950 . S
C3332 C3330 1.391 . S
C3332 C3333 1.400 . S
C3333 C3327 1.491 . S
C3333 C3332 1.400 . S
C3333 C3334 1.398 . S
C3334 H3322 0.950 . S
C3334 C3333 1.398 . S
C3334 C3335 1.391 . S
C3335 H3323 0.950 . S
C3335 C3331 1.393 . S
C3335 C3334 1.391 . S
H3336 C3344 0.950 . S
H3337 C3349 0.950 . S
H3338 C3346 0.950 . S
H3339 C3348 0.950 . S
H3340 C3350 0.950 . S
H3341 C3352 0.950 . S
H3342 C3354 0.950 . S
H3343 C3355 0.950 . S
C3344 H3336 0.950 . S
C3344 C3345 1.386 . S
C3344 C3346 1.391 . S
C3345 C3344 1.386 . S
C3345 C3349 1.393 . S
C3346 H3338 0.950 . S
C3346 C3344 1.391 . S
C3346 C3347 1.400 . S
C3347 C3346 1.400 . S
C3347 C3348 1.398 . S
C3347 C3353 1.491 . S
C3348 H3339 0.950 . S
C3348 C3347 1.398 . S
C3348 C3349 1.391 . S
C3349 H3337 0.950 . S
C3349 C3345 1.393 . S
C3349 C3348 1.391 . S
C3350 H3340 0.950 . S
C3350 C3351 1.386 . S
C3350 C3352 1.391 . S
C3351 C3350 1.386 . S
C3351 C3355 1.393 . S
C3352 H3341 0.950 . S
C3352 C3350 1.391 . S
C3352 C3353 1.400 . S
C3353 C3347 1.491 . S
C3353 C3352 1.400 . S
C3353 C3354 1.398 . S
C3354 H3342 0.950 . S
C3354 C3353 1.398 . S
C3354 C3355 1.391 . S
C3355 H3343 0.950 . S
C3355 C3351 1.393 . S
C3355 C3354 1.391 . S
H3356 C3364 0.950 . S
H3357 C3369 0.950 . S
H3358 C3366 0.950 . S
H3359 C3368 0.950 . S
H3360 C3370 0.950 . S
H3361 C3372 0.950 . S
H3362 C3374 0.950 . S
H3363 C3375 0.950 . S
C3364 H3356 0.950 . S
C3364 C3365 1.386 . S
C3364 C3366 1.391 . S
C3365 C3364 1.386 . S
C3365 C3369 1.393 . S
C3366 H3358 0.950 . S
C3366 C3364 1.391 . S
C3366 C3367 1.400 . S
C3367 C3366 1.400 . S
C3367 C3368 1.398 . S
C3367 C3373 1.491 . S
C3368 H3359 0.950 . S
C3368 C3367 1.398 . S
C3368 C3369 1.391 . S
C3369 H3357 0.950 . S
C3369 C3365 1.393 . S
C3369 C3368 1.391 . S
C3370 H3360 0.950 . S
C3370 C3371 1.386 . S
C3370 C3372 1.391 . S
C3371 C3370 1.386 . S
C3371 C3375 1.393 . S
C3372 H3361 0.950 . S
C3372 C3370 1.391 . S
C3372 C3373 1.400 . S
C3373 C3367 1.491 . S
C3373 C3372 1.400 . S
C3373 C3374 1.398 . S
C3374 H3362 0.950 . S
C3374 C3373 1.398 . S
C3374 C3375 1.391 . S
C3375 H3363 0.950 . S
C3375 C3371 1.393 . S
C3375 C3374 1.391 . S
C1471 C353 2.044 . S
C1465 C7 1.948 . S
C1491 C420 1.312 . S
C1485 C19 1.305 . S
C1505 C29 1.849 . S
C1511 C445 1.864 . S
C1531 C505 1.105 . S
C1525 C41 1.117 . S
C1545 C52 1.419 . S
C1551 C498 1.415 . S
C1565 C62 1.599 . S
C1571 C374 1.660 . S
C1585 C73 1.099 . S
C1591 C399 1.132 . S
C1611 C466 1.837 . S
C1605 C82 1.611 . S
C1631 C558 1.880 . S
C1625 C5 1.650 . S
C1645 C16 1.410 . S
C1651 C597 1.609 . S
C1665 C30 1.781 . S
C1671 C650 1.755 1_655 S
C1691 C675 1.193 . S
C1685 C40 1.186 . S
C1705 C49 1.268 . S
C1711 C735 1.412 . S
C1731 C788 1.505 . S
C1725 C63 1.518 . S
C1745 C74 1.120 . S
C1751 C827 1.125 1_655 S
C1771 C866 1.616 . S
C1765 C85 1.609 . S
C1785 C8 1.644 . S
C1791 C696 1.668 . S
C1805 C51 1.603 . S
C1811 C767 1.640 . S
C1831 C820 1.864 . S
C1825 C60 1.684 . S
C1845 C71 1.066 . S
C1851 C873 1.274 . S
C1871 C728 2.113 . S
C1865 C84 2.013 . S
C1891 C590 1.542 . S
C1885 C27 1.384 . S
C1905 C38 1.136 . S
C1911 C629 1.290 . S
C1931 C537 1.689 . S
C1925 C18 1.630 . S
C1951 C905 2.041 . S
C1945 C95 1.934 . S
C1965 C107 1.311 . S
C1971 C951 1.313 . S
C1985 C117 1.852 . S
C1991 C1018 1.869 . S
C2011 C1064 1.119 . S
C2005 C129 1.116 . S
C2025 C140 1.422 . S
C2031 C1043 1.416 . S
C2045 C150 1.607 . S
C2051 C926 1.663 . S
C2065 C161 1.109 . S
C2071 C972 1.141 . S
C2085 C170 1.575 . S
C2091 C997 1.839 . S
C2111 C742 1.884 . S
C2105 C93 1.633 . S
C2125 C104 1.434 . S
C2131 C1103 1.610 . S
C2151 C834 1.771 1_655 S
C2145 C118 1.791 . S
C2165 C128 1.197 . S
C2171 C1135 1.175 . S
C2185 C137 1.225 . S
C2191 C551 1.406 . S
C2211 C1202 1.504 . S
C2205 C151 1.518 . S
C2225 C162 1.094 . S
C2231 C643 1.104 1_655 S
C2251 C1234 1.616 . S
C2245 C173 1.610 . S
C2265 C96 1.648 . S
C2271 C1156 1.669 . S
C2291 C1181 1.639 . S
C2285 C139 1.582 . S
C2305 C148 1.656 . S
C2311 C636 1.860 . S
C2331 C1241 1.287 . S
C2325 C159 1.104 . S
C2345 C172 2.020 . S
C2351 C544 2.115 . S
C2365 C115 1.364 . S
C2371 C1096 1.548 . S
C2385 C126 1.145 . S
C2391 C813 1.298 . S
C2405 C106 1.629 . S
C2411 C721 1.689 . S
C2425 C183 1.947 . S
C2431 C1011 2.050 . S
C2451 C1057 1.307 . S
C2445 C195 1.298 . S
C2465 C205 1.840 . S
C2471 C912 1.868 . S
C2485 C217 1.115 . S
C2491 C958 1.098 . S
C2505 C228 1.422 . S
C2511 C965 1.420 . S
C2525 C238 1.606 . S
C2531 C1004 1.664 . S
C2551 C1050 1.133 . S
C2545 C249 1.087 . S
C2565 C258 1.584 . S
C2571 C919 1.841 . S
C2591 C1273 1.882 . S
C2585 C181 1.633 . S
C2605 C192 1.401 . S
C2611 C781 1.608 . S
C2631 C1319 1.787 . S
C2625 C206 1.794 . S
C2645 C216 1.192 . S
C2651 C859 1.181 . S
C2665 C225 1.231 . S
C2671 C1386 1.406 . S
C2685 C239 1.527 . S
C2691 C604 1.518 . S
C2711 C1418 1.106 . S
C2705 C250 1.102 . S
C2725 C261 1.603 . S
C2731 C682 1.621 . S
C2751 C880 1.668 . S
C2745 C184 1.644 . S
C2771 C583 1.638 . S
C2765 C227 1.583 . S
C2785 C236 1.656 . S
C2791 C1425 1.848 . S
C2805 C247 1.057 . S
C2811 C689 1.273 . S
C2831 C1365 2.113 . S
C2825 C260 2.003 . S
C2851 C774 1.540 . S
C2845 C203 1.372 . S
C2871 C1340 1.311 . S
C2865 C214 1.189 . S
C2891 C1294 1.686 . S
C2885 C194 1.621 . S
C2905 C271 1.946 . S
C2911 C452 2.046 . S
C2925 C283 1.312 . S
C2931 C512 1.316 . S
C2951 C360 1.867 . S
C2945 C293 1.848 . S
C2971 C413 1.109 . S
C2965 C305 1.114 . S
C2991 C406 1.418 . S
C2985 C316 1.416 . S
C3011 C459 1.664 . S
C3005 C326 1.612 . S
C3031 C491 1.140 . S
C3025 C337 1.100 . S
C3045 C346 1.595 . S
C3051 C367 1.839 . S
C3065 C269 1.646 . S
C3071 C1379 1.880 . S
C3091 C1195 1.611 . S
C3085 C280 1.436 . S
C3111 C1411 1.785 . S
C3105 C294 1.791 . S
C3131 C1227 1.192 . S
C3125 C304 1.186 . S
C3145 C313 1.257 . S
C3151 C1280 1.412 . S
C3171 C1110 1.518 . S
C3165 C327 1.526 . S
C3191 C1326 1.105 . S
C3185 C338 1.115 . S
C3205 C349 1.605 . S
C3211 C1142 1.620 . S
C3231 C1248 1.669 . S
C3225 C272 1.649 . S
C3251 C1089 1.640 . S
C3245 C315 1.597 . S
C3271 C1333 1.856 . S
C3265 C324 1.675 . S
C3285 C335 1.043 . S
C3291 C1149 1.273 . S
C3305 C348 2.024 . S
C3311 C1287 2.124 . S
C3325 C291 1.379 . S
C3331 C1188 1.548 . S
C3345 C302 1.161 . S
C3351 C1432 1.297 . S
C3371 C1372 1.689 . S
C3365 C282 1.629 . S
