# Generated by pormake.
# Topology zzz, (3,6)-cn, num edge types: 1
# Building blocks:
#     Node 0, Type 0, BuildingBlock: ESEHIV_clean_linker_0, # of connection points: 3
#     Node 1, Type 0, BuildingBlock: ESEHIV_clean_linker_0, # of connection points: 3
#     Node 2, Type 0, BuildingBlock: ESEHIV_clean_linker_0, # of connection points: 3
#     Node 3, Type 0, BuildingBlock: ESEHIV_clean_linker_0, # of connection points: 3
#     Node 4, Type 0, BuildingBlock: ESEHIV_clean_linker_0, # of connection points: 3
#     Node 5, Type 0, BuildingBlock: ESEHIV_clean_linker_0, # of connection points: 3
#     Node 6, Type 0, BuildingBlock: ESEHIV_clean_linker_0, # of connection points: 3
#     Node 7, Type 0, BuildingBlock: ESEHIV_clean_linker_0, # of connection points: 3
#     Node 8, Type 1, BuildingBlock: PAMTUU_clean_sbu_0, # of connection points: 6
#     Node 9, Type 1, BuildingBlock: PAMTUU_clean_sbu_0, # of connection points: 6
#     Node 10, Type 1, BuildingBlock: PAMTUU_clean_sbu_0, # of connection points: 6
#     Node 11, Type 1, BuildingBlock: PAMTUU_clean_sbu_0, # of connection points: 6
#     Edge 12, Type (0, 1), BuildingBlock: MIFKUJ_clean_linker_0, # of connection points: 2
#     Edge 13, Type (0, 1), BuildingBlock: MIFKUJ_clean_linker_0, # of connection points: 2
#     Edge 14, Type (0, 1), BuildingBlock: MIFKUJ_clean_linker_0, # of connection points: 2
#     Edge 15, Type (0, 1), BuildingBlock: MIFKUJ_clean_linker_0, # of connection points: 2
#     Edge 16, Type (0, 1), BuildingBlock: MIFKUJ_clean_linker_0, # of connection points: 2
#     Edge 17, Type (0, 1), BuildingBlock: MIFKUJ_clean_linker_0, # of connection points: 2
#     Edge 18, Type (0, 1), BuildingBlock: MIFKUJ_clean_linker_0, # of connection points: 2
#     Edge 19, Type (0, 1), BuildingBlock: MIFKUJ_clean_linker_0, # of connection points: 2
#     Edge 20, Type (0, 1), BuildingBlock: MIFKUJ_clean_linker_0, # of connection points: 2
#     Edge 21, Type (0, 1), BuildingBlock: MIFKUJ_clean_linker_0, # of connection points: 2
#     Edge 22, Type (0, 1), BuildingBlock: MIFKUJ_clean_linker_0, # of connection points: 2
#     Edge 23, Type (0, 1), BuildingBlock: MIFKUJ_clean_linker_0, # of connection points: 2
#     Edge 24, Type (0, 1), BuildingBlock: MIFKUJ_clean_linker_0, # of connection points: 2
#     Edge 25, Type (0, 1), BuildingBlock: MIFKUJ_clean_linker_0, # of connection points: 2
#     Edge 26, Type (0, 1), BuildingBlock: MIFKUJ_clean_linker_0, # of connection points: 2
#     Edge 27, Type (0, 1), BuildingBlock: MIFKUJ_clean_linker_0, # of connection points: 2
#     Edge 28, Type (0, 1), BuildingBlock: MIFKUJ_clean_linker_0, # of connection points: 2
#     Edge 29, Type (0, 1), BuildingBlock: MIFKUJ_clean_linker_0, # of connection points: 2
#     Edge 30, Type (0, 1), BuildingBlock: MIFKUJ_clean_linker_0, # of connection points: 2
#     Edge 31, Type (0, 1), BuildingBlock: MIFKUJ_clean_linker_0, # of connection points: 2
#     Edge 32, Type (0, 1), BuildingBlock: MIFKUJ_clean_linker_0, # of connection points: 2
#     Edge 33, Type (0, 1), BuildingBlock: MIFKUJ_clean_linker_0, # of connection points: 2
#     Edge 34, Type (0, 1), BuildingBlock: MIFKUJ_clean_linker_0, # of connection points: 2
#     Edge 35, Type (0, 1), BuildingBlock: MIFKUJ_clean_linker_0, # of connection points: 2
# Relax obj value: 0.380
# Max RMSD: 0.262
# Mean RMSD: 0.220
data_MOF--net-zzz--node1-PAMTUU_clean_sbu_0--node2-ESEHIV_clean_linker_0--edge1-MIFKUJ_clean_linker_0
_symmetry_space_group_name_H-M    P1
_symmetry_Int_Tables_number       1
_symmetry_cell_setting            triclinic
loop_
_symmetry_equiv_pos_as_xyz
'x, y, z'
_cell_length_a     59.07251
_cell_length_b     62.360022
_cell_length_c     20.972951
_cell_angle_alpha  98.475656
_cell_angle_beta   90.083197
_cell_angle_gamma 89.936296
loop_
_atom_site_label
_atom_site_type_symbol
_atom_site_fract_x
_atom_site_fract_y
_atom_site_fract_z
_atom_type_partial_charge
H0 H 0.80296 0.54454 0.34879 0.0
H1 H 0.74185 0.5451 0.23905 0.0
H2 H 0.74833 0.50156 0.3798 0.0
C3 C 0.7856 0.53925 0.34006 0.0
C4 C 0.77699 0.5229 0.3726 0.0
C5 C 0.77324 0.54697 0.29118 0.0
C6 C 0.75116 0.53956 0.27824 0.0
C7 C 0.74184 0.52339 0.31002 0.0
C8 C 0.75487 0.51485 0.35739 0.0
H9 H 0.99304 0.77827 0.32547 0.0
H10 H 0.99239 0.71615 0.20722 0.0
H11 H 0.99666 0.72025 0.41423 0.0
C12 C 0.99278 0.76071 0.32146 0.0
C13 C 0.99481 0.75094 0.37729 0.0
C14 C 0.99202 0.74831 0.26034 0.0
C15 C 0.9926 0.72575 0.25479 0.0
C16 C 0.99386 0.71544 0.30984 0.0
C17 C 0.99487 0.72806 0.37167 0.0
H18 H 0.74616 0.94539 0.32709 0.0
H19 H 0.80953 0.94056 0.22579 0.0
H20 H 0.79284 0.99853 0.35585 0.0
C21 C 0.76267 0.95181 0.31811 0.0
C22 C 0.76799 0.97271 0.34895 0.0
C23 C 0.77684 0.9404 0.27108 0.0
C24 C 0.79822 0.94917 0.26137 0.0
C25 C 0.80419 0.97012 0.29112 0.0
C26 C 0.78888 0.98204 0.33488 0.0
H27 H 0.57031 0.72386 0.16672 0.0
H28 H 0.57748 0.78986 0.25863 0.0
H29 H 0.55876 0.77597 0.05782 0.0
C30 C 0.57024 0.74106 0.16348 0.0
C31 C 0.5643 0.74808 0.1053 0.0
C32 C 0.57512 0.75585 0.21875 0.0
C33 C 0.57402 0.77827 0.21596 0.0
C34 C 0.5681 0.78552 0.15746 0.0
C35 C 0.56328 0.77035 0.1027 0.0
H36 H 0.24717 0.53254 0.21862 0.0
H37 H 0.29903 0.52463 0.35673 0.0
H38 H 0.29641 0.48142 0.1764 0.0
C39 C 0.26208 0.52413 0.23238 0.0
C40 C 0.27035 0.50631 0.19027 0.0
C41 C 0.27195 0.53063 0.29289 0.0
C42 C 0.29136 0.51989 0.30977 0.0
C43 C 0.30062 0.50243 0.26801 0.0
C44 C 0.28985 0.4953 0.20815 0.0
H45 H 0.03569 0.22717 0.16372 0.0
H46 H 0.0489 0.28317 0.30294 0.0
H47 H 0.05354 0.28739 0.09946 0.0
C48 C 0.04009 0.2442 0.1746 0.0
C49 C 0.04461 0.25592 0.12411 0.0
C50 C 0.04181 0.25384 0.23876 0.0
C51 C 0.04795 0.27563 0.25297 0.0
C52 C 0.05183 0.28804 0.20323 0.0
C53 C 0.0503 0.27809 0.13821 0.0
H54 H 0.29862 0.96174 0.22808 0.0
H55 H 0.23972 0.97316 0.3458 0.0
H56 H 0.2523 0.01314 0.19842 0.0
C57 C 0.28287 0.97047 0.23851 0.0
C58 C 0.27698 0.98748 0.20419 0.0
C59 C 0.26952 0.96523 0.28895 0.0
C60 C 0.24996 0.97716 0.30625 0.0
C61 C 0.2436 0.99447 0.27443 0.0
C62 C 0.25713 0.99974 0.22303 0.0
H63 H 0.4497 0.28056 0.41388 0.0
H64 H 0.46734 0.21751 0.31383 0.0
H65 H 0.46573 0.2293 0.52164 0.0
C66 C 0.4533 0.26356 0.41501 0.0
C67 C 0.45686 0.25639 0.47436 0.0
C68 C 0.45714 0.24979 0.35693 0.0
C69 C 0.4636 0.22808 0.35834 0.0
C70 C 0.46623 0.2205 0.41809 0.0
C71 C 0.46277 0.23478 0.47557 0.0
Tb72 Tb 1.00183 0.00704 0.72084 0.0
Tb73 Tb 0.03853 0.99555 0.82642 0.0
C74 C 0.98671 0.9978 0.859 0.0
C75 C 0.9799 0.03685 0.59987 0.0
C76 C 0.99104 0.07494 0.54998 0.0
C77 C 0.96882 0.07154 0.57034 0.0
C78 C 0.96331 0.0526 0.59514 0.0
C79 C 1.00182 0.03977 0.57675 0.0
C80 C 1.00729 0.05858 0.55169 0.0
C81 C 0.97567 0.01979 0.63962 0.0
O82 O 0.021 0.03659 0.75167 0.0
O83 O 0.03087 0.02994 0.85238 0.0
O84 O 0.05833 0.00822 0.75252 0.0
O85 O 0.0336 0.99981 0.66862 0.0
O86 O 0.04974 0.99707 0.92217 0.0
O87 O 0.06933 0.98046 0.84315 0.0
O88 O 0.03073 0.965 0.7655 0.0
O89 O 0.99637 0.97266 0.72253 0.0
O90 O 0.98357 0.00942 0.81227 0.0
O91 O 1.00578 0.98736 0.86413 0.0
C92 C 0.02733 0.04351 0.81108 0.0
O93 O 0.98803 0.00231 0.62734 0.0
O94 O 0.97475 0.02684 0.70116 0.0
C95 C 0.05409 0.00485 0.69032 0.0
C96 C 0.0641 0.96237 0.93135 0.0
C97 C 0.05877 0.91921 0.95275 0.0
C98 C 0.08045 0.92733 0.94261 0.0
C99 C 0.08307 0.94879 0.93145 0.0
C100 C 0.04266 0.95447 0.94494 0.0
C101 C 0.04004 0.93315 0.95556 0.0
C102 C 0.06571 0.98289 0.90505 0.0
C103 C 0.01178 0.95873 0.73557 0.0
H104 H 0.95599 0.08394 0.57011 0.0
H105 H 0.94644 0.05081 0.61388 0.0
H106 H 0.01507 0.02801 0.58081 0.0
H107 H 0.02444 0.06057 0.5353 0.0
H108 H 0.09515 0.91686 0.94068 0.0
H109 H 0.09969 0.95447 0.91996 0.0
H110 H 0.02768 0.96444 0.94454 0.0
H111 H 0.02322 0.92742 0.96485 0.0
Tb112 Tb 0.51294 0.98513 0.72344 0.0
Tb113 Tb 0.53284 0.01988 0.84103 0.0
C114 C 0.53329 0.97103 0.84655 0.0
C115 C 0.47752 0.94229 0.6336 0.0
C116 C 0.43719 0.9182 0.62141 0.0
C117 C 0.45269 0.91664 0.57002 0.0
C118 C 0.4727 0.92865 0.57611 0.0
C119 C 0.46282 0.94296 0.68632 0.0
C120 C 0.44276 0.931 0.68025 0.0
C121 C 0.49696 0.95691 0.63675 0.0
O122 O 0.48268 0.9985 0.77464 0.0
O123 O 0.49896 0.01176 0.8719 0.0
O124 O 0.51404 0.03861 0.77894 0.0
O125 O 0.51917 0.01521 0.68539 0.0
O126 O 0.53565 0.02822 0.94129 0.0
O127 O 0.5507 0.04828 0.87735 0.0
O128 O 0.56095 0.01516 0.77268 0.0
O129 O 0.54932 0.98465 0.70499 0.0
O130 O 0.51527 0.96965 0.80975 0.0
O131 O 0.54632 0.98809 0.8504 0.0
C132 C 0.481 0.00574 0.83662 0.0
O133 O 0.49194 0.97748 0.64273 0.0
O134 O 0.51319 0.95308 0.67574 0.0
C135 C 0.51475 0.03472 0.71565 0.0
C136 C 0.57273 0.03909 0.96379 0.0
C137 C 0.60989 0.01717 0.00854 0.0
C138 C 0.59251 0.0254 0.0511 0.0
C139 C 0.57403 0.03624 0.02881 0.0
C140 C 0.59106 0.03262 0.92287 0.0
C141 C 0.60939 0.0217 0.94487 0.0
C142 C 0.55059 0.04316 0.93557 0.0
C143 C 0.56482 0.99921 0.72541 0.0
H144 H 0.44872 0.90722 0.52374 0.0
H145 H 0.48392 0.928 0.53504 0.0
H146 H 0.46641 0.9534 0.73123 0.0
H147 H 0.43119 0.93245 0.72062 0.0
H148 H 0.59266 0.02261 0.10086 0.0
H149 H 0.56 0.04093 0.06111 0.0
H150 H 0.59049 0.03444 0.8724 0.0
H151 H 0.62234 0.01551 0.9105 0.0
Tb152 Tb 0.50234 0.49908 0.84561 0.0
Tb153 Tb 0.53849 0.50795 0.73123 0.0
C154 C 0.48661 0.50131 0.70062 0.0
C155 C 0.47821 0.46926 0.96913 0.0
C156 C 0.47788 0.4314 0.02757 0.0
C157 C 0.45944 0.44576 0.03523 0.0
C158 C 0.45956 0.46453 0.00589 0.0
C159 C 0.49701 0.45528 0.96344 0.0
C160 C 0.49677 0.43637 0.99204 0.0
C161 C 0.47712 0.48754 0.93201 0.0
O162 O 0.52275 0.47046 0.819 0.0
O163 O 0.53107 0.47339 0.7142 0.0
O164 O 0.55822 0.4985 0.81112 0.0
O165 O 0.53382 0.51133 0.89226 0.0
O166 O 0.54922 0.50608 0.63489 0.0
O167 O 0.5695 0.52233 0.7129 0.0
O168 O 0.5277 0.53921 0.78074 0.0
O169 O 0.49469 0.53212 0.83299 0.0
O170 O 0.48393 0.49273 0.75394 0.0
O171 O 0.50522 0.5117 0.68931 0.0
C172 C 0.52664 0.46156 0.75958 0.0
O173 O 0.47387 0.48202 0.87046 0.0
O174 O 0.49285 0.50222 0.94341 0.0
C175 C 0.55427 0.50527 0.87252 0.0
C176 C 0.56777 0.53867 0.61921 0.0
C177 C 0.57122 0.57807 0.56751 0.0
C178 C 0.59075 0.56655 0.58123 0.0
C179 C 0.58902 0.54708 0.60667 0.0
C180 C 0.54821 0.55008 0.60604 0.0
C181 C 0.5499 0.56947 0.58011 0.0
C182 C 0.5663 0.51904 0.65079 0.0
C183 C 0.50861 0.54543 0.8098 0.0
H184 H 0.4447 0.44211 0.06239 0.0
H185 H 0.44486 0.47505 0.01052 0.0
H186 H 0.51159 0.45868 0.93538 0.0
H187 H 0.51112 0.42543 0.98552 0.0
H188 H 0.60748 0.57279 0.57382 0.0
H189 H 0.60434 0.53878 0.61769 0.0
H190 H 0.53159 0.5441 0.61628 0.0
H191 H 0.53444 0.57759 0.56955 0.0
Tb192 Tb 0.02957 0.51786 0.73983 0.0
Tb193 Tb 0.01613 0.47665 0.81065 0.0
C194 C 1.00717 0.52418 0.87512 0.0
C195 C 0.06018 0.56339 0.68114 0.0
C196 C 0.09978 0.58537 0.65485 0.0
C197 C 0.07893 0.59051 0.6284 0.0
C198 C 0.05926 0.57962 0.64165 0.0
C199 C 0.08084 0.55849 0.70874 0.0
C200 C 0.10051 0.56946 0.69585 0.0
C201 C 0.03946 0.55191 0.69376 0.0
O202 O 0.05813 0.51318 0.80353 0.0
O203 O 0.05291 0.47755 0.81656 0.0
O204 O 0.02564 0.46289 0.7134 0.0
O205 O 0.04594 0.4907 0.67991 0.0
O206 O 0.01587 0.46117 0.89317 0.0
O207 O 1.0001 0.44637 0.80512 0.0
O208 O 0.98421 0.4897 0.77855 0.0
O209 O 0.99807 0.5052 0.69442 0.0
O210 O 1.00586 0.52925 0.81683 0.0
O211 O 0.01514 0.50525 0.8841 0.0
C212 C 0.0656 0.49506 0.82166 0.0
O213 O 0.0362 0.53311 0.65871 0.0
O214 O 0.03511 0.55136 0.75428 0.0
C215 C 0.03938 0.47033 0.67264 0.0
C216 C 0.97898 0.44811 0.90099 0.0
C217 C 0.94148 0.4696 0.96174 0.0
C218 C 0.94053 0.46146 0.8959 0.0
C219 C 0.95906 0.45055 0.86575 0.0
C220 C 0.97851 0.45335 0.96849 0.0
C221 C 0.95981 0.46413 0.99879 0.0
C222 C 1.00099 0.44702 0.86749 0.0
C223 C 0.9811 0.49712 0.72361 0.0
H224 H 0.07795 0.6027 0.59664 0.0
H225 H 0.04337 0.58366 0.62041 0.0
H226 H 0.08179 0.54598 0.73942 0.0
H227 H 0.11642 0.56489 0.71583 0.0
H228 H 0.92628 0.46519 0.86682 0.0
H229 H 0.95861 0.44635 0.81377 0.0
H230 H 0.99354 0.45147 0.99683 0.0
H231 H 0.96072 0.47014 0.04991 0.0
H232 H 0.20033 0.99012 0.22803 0.0
H233 H 0.16599 0.99806 0.29344 0.0
H234 H 0.20644 0.03119 0.44855 0.0
H235 H 0.24055 0.02362 0.38295 0.0
H236 H 0.18257 0.99493 0.47938 0.0
H237 H 0.16848 0.05922 0.38642 0.0
H238 H 0.16172 0.08172 0.30102 0.0
H239 H 0.10253 0.04434 0.23982 0.0
H240 H 0.10913 0.02136 0.3242 0.0
H241 H 0.09783 0.01822 0.71675 0.0
H242 H 0.12844 0.02152 0.64071 0.0
H243 H 0.08363 0.99975 0.48185 0.0
H244 H 0.0527 0.99695 0.55775 0.0
H245 H 0.1093 0.03121 0.45091 0.0
H246 H 0.12394 0.96573 0.5373 0.0
H247 H 0.12993 0.94264 0.62171 0.0
H248 H 0.18776 0.98075 0.69151 0.0
H249 H 0.18191 0.00427 0.60806 0.0
C250 C 0.20166 0.00021 0.27456 0.0
C251 C 0.22308 0.00666 0.29982 0.0
C252 C 0.18205 0.00453 0.31232 0.0
C253 C 0.18359 0.01511 0.37625 0.0
C254 C 0.20476 0.02304 0.39945 0.0
C255 C 0.22424 0.01898 0.36156 0.0
C256 C 0.16416 0.01494 0.42186 0.0
C257 C 0.16668 0.00318 0.47366 0.0
C258 C 0.1431 0.025 0.41327 0.0
C259 C 0.1395 0.03835 0.36114 0.0
C260 C 0.15421 0.05557 0.35416 0.0
C261 C 0.15036 0.06848 0.30608 0.0
C262 C 0.13176 0.06442 0.26487 0.0
C263 C 0.11697 0.04743 0.27166 0.0
C264 C 0.12076 0.03446 0.31962 0.0
C265 C 0.09441 0.01412 0.66567 0.0
C266 C 0.07274 0.0071 0.64367 0.0
C267 C 0.11203 0.01596 0.62205 0.0
C268 C 0.1086 0.01054 0.55519 0.0
C269 C 0.08685 0.00399 0.53302 0.0
C270 C 0.06915 0.00229 0.57665 0.0
C271 C 0.12779 0.01132 0.50876 0.0
C272 C 0.12522 0.02302 0.45669 0.0
C273 C 0.1488 0.00098 0.51648 0.0
C274 C 0.15233 0.9869 0.56685 0.0
C275 C 0.13782 0.9693 0.57099 0.0
C276 C 0.14121 0.95611 0.61861 0.0
C277 C 0.15917 0.96026 0.66206 0.0
C278 C 0.17382 0.97758 0.65789 0.0
C279 C 0.17048 0.99084 0.61043 0.0
H280 H 0.16178 0.95003 0.69886 0.0
H281 H 0.12876 0.07447 0.22781 0.0
H282 H 0.4456 0.18163 0.37615 0.0
H283 H 0.45504 0.14655 0.41017 0.0
H284 H 0.51384 0.17548 0.51068 0.0
H285 H 0.50477 0.21004 0.47544 0.0
H286 H 0.5234 0.13593 0.46506 0.0
H287 H 0.46176 0.1725 0.58591 0.0
H288 H 0.42393 0.18928 0.60009 0.0
H289 H 0.39314 0.12893 0.51987 0.0
H290 H 0.43086 0.11187 0.5044 0.0
H291 H 0.49862 0.07556 0.75789 0.0
H292 H 0.49195 0.10485 0.69431 0.0
H293 H 0.51545 0.06387 0.52348 0.0
H294 H 0.52219 0.03451 0.58666 0.0
H295 H 0.4639 0.10732 0.59626 0.0
H296 H 0.54223 0.09727 0.42536 0.0
H297 H 0.58299 0.08864 0.42655 0.0
H298 H 0.58395 0.10406 0.6329 0.0
H299 H 0.5433 0.11305 0.63293 0.0
C300 C 0.46095 0.18016 0.40351 0.0
C301 C 0.47447 0.19843 0.42337 0.0
C302 C 0.4662 0.16024 0.42359 0.0
C303 C 0.48491 0.15846 0.46418 0.0
C304 C 0.49931 0.17637 0.47959 0.0
C305 C 0.49414 0.19613 0.45944 0.0
C306 C 0.48865 0.13887 0.49576 0.0
C307 C 0.51028 0.12943 0.4929 0.0
C308 C 0.47178 0.13081 0.53387 0.0
C309 C 0.44911 0.141 0.54326 0.0
C310 C 0.44692 0.16286 0.57087 0.0
C311 C 0.42551 0.17241 0.57919 0.0
C312 C 0.40615 0.1602 0.5607 0.0
C313 C 0.40816 0.13838 0.53401 0.0
C314 C 0.42955 0.12876 0.52544 0.0
C315 C 0.50243 0.07277 0.70684 0.0
C316 C 0.51087 0.05264 0.67743 0.0
C317 C 0.49854 0.08952 0.67047 0.0
C318 C 0.50326 0.08661 0.6041 0.0
C319 C 0.51185 0.06658 0.57467 0.0
C320 C 0.51558 0.04976 0.61089 0.0
C321 C 0.49872 0.1044 0.56564 0.0
C322 C 0.4769 0.11344 0.56719 0.0
C323 C 0.51568 0.11263 0.5282 0.0
C324 C 0.53964 0.10556 0.52913 0.0
C325 C 0.55111 0.09869 0.47101 0.0
C326 C 0.57422 0.09386 0.47144 0.0
C327 C 0.58607 0.09596 0.52972 0.0
C328 C 0.57475 0.10251 0.58779 0.0
C329 C 0.55165 0.10737 0.58762 0.0
H330 H 0.60399 0.09236 0.52991 0.0
H331 H 0.38958 0.16762 0.56722 0.0
H332 H 0.30302 0.47725 0.3626 0.0
H333 H 0.33648 0.4719 0.42747 0.0
H334 H 0.37817 0.50149 0.29622 0.0
H335 H 0.34452 0.50686 0.23108 0.0
H336 H 0.4007 0.4669 0.35299 0.0
H337 H 0.3595 0.53353 0.41812 0.0
H338 H 0.32487 0.55481 0.4471 0.0
H339 H 0.31326 0.51949 0.60493 0.0
H340 H 0.34786 0.49791 0.57665 0.0
H341 H 0.48828 0.50954 0.57524 0.0
H342 H 0.45827 0.50447 0.49363 0.0
H343 H 0.41327 0.48186 0.63095 0.0
H344 H 0.44317 0.48673 0.7126 0.0
H345 H 0.39265 0.51135 0.56842 0.0
H346 H 0.43644 0.44744 0.51118 0.0
H347 H 0.47006 0.42491 0.48023 0.0
H348 H 0.47618 0.45292 0.30595 0.0
H349 H 0.44298 0.47613 0.33672 0.0
C350 C 0.31948 0.48164 0.34588 0.0
C351 C 0.3212 0.49215 0.29118 0.0
C352 C 0.33859 0.47881 0.3834 0.0
C353 C 0.35986 0.48656 0.36737 0.0
C354 C 0.36199 0.49532 0.30956 0.0
C355 C 0.34278 0.49822 0.27198 0.0
C356 C 0.37885 0.48819 0.41516 0.0
C357 C 0.39913 0.47683 0.39979 0.0
C358 C 0.37663 0.50075 0.47687 0.0
C359 C 0.35613 0.514 0.49494 0.0
C360 C 0.3495 0.53023 0.45882 0.0
C361 C 0.32988 0.54235 0.47513 0.0
C362 C 0.31679 0.53842 0.5276 0.0
C363 C 0.3234 0.52248 0.5642 0.0
C364 C 0.34304 0.51034 0.54817 0.0
C365 C 0.47201 0.50349 0.58822 0.0
C366 C 0.46823 0.49861 0.65088 0.0
C367 C 0.45487 0.50044 0.5412 0.0
C368 C 0.43345 0.49259 0.55567 0.0
C369 C 0.4296 0.48788 0.6183 0.0
C370 C 0.44679 0.49068 0.66508 0.0
C371 C 0.41478 0.4901 0.50661 0.0
C372 C 0.39443 0.50138 0.52173 0.0
C373 C 0.41704 0.47742 0.44482 0.0
C374 C 0.43739 0.46383 0.42687 0.0
C375 C 0.44517 0.44911 0.4668 0.0
C376 C 0.46416 0.43619 0.44925 0.0
C377 C 0.47534 0.43759 0.39137 0.0
C378 C 0.46757 0.45194 0.35094 0.0
C379 C 0.44869 0.46502 0.36851 0.0
H380 H 0.48993 0.42745 0.37763 0.0
H381 H 0.30156 0.54778 0.53999 0.0
H382 H 0.02519 0.32168 0.17962 0.0
H383 H 0.02607 0.35873 0.23878 0.0
H384 H 0.08784 0.34377 0.33305 0.0
H385 H 0.0869 0.3069 0.27417 0.0
H386 H 0.02172 0.36588 0.36679 0.0
H387 H 0.1172 0.38983 0.38587 0.0
H388 H 0.15089 0.38744 0.31589 0.0
H389 H 0.10833 0.38394 0.14857 0.0
H390 H 0.07439 0.38664 0.21751 0.0
H391 H 0.04296 0.42657 0.66265 0.0
H392 H 0.04884 0.40055 0.56545 0.0
H393 H 0.05684 0.45295 0.45426 0.0
H394 H 0.05151 0.47933 0.5526 0.0
H395 H 0.08528 0.41794 0.41149 0.0
H396 H 1.00625 0.4295 0.45707 0.0
H397 H 0.97331 0.43299 0.53004 0.0
H398 H 0.98176 0.36694 0.5613 0.0
H399 H 0.015 0.36316 0.48949 0.0
C400 C 0.03944 0.32667 0.21083 0.0
C401 C 0.05608 0.31155 0.22201 0.0
C402 C 0.03984 0.34775 0.24511 0.0
C403 C 0.05702 0.3541 0.2905 0.0
C404 C 0.07458 0.33945 0.29778 0.0
C405 C 0.07407 0.31837 0.26403 0.0
C406 C 0.05496 0.37455 0.33698 0.0
C407 C 0.03552 0.37739 0.37578 0.0
C408 C 0.07286 0.38974 0.34876 0.0
C409 C 0.09322 0.38829 0.30695 0.0
C410 C 0.11502 0.38867 0.33418 0.0
C411 C 0.13417 0.38723 0.29467 0.0
C412 C 0.13176 0.38549 0.22783 0.0
C413 C 0.11018 0.38522 0.20034 0.0
C414 C 0.09098 0.38666 0.23962 0.0
C415 C 0.0463 0.43263 0.61776 0.0
C416 C 0.04647 0.45502 0.61517 0.0
C417 C 0.04964 0.4177 0.56214 0.0
C418 C 0.05273 0.42476 0.50222 0.0
C419 C 0.05434 0.44713 0.4999 0.0
C420 C 0.05129 0.46218 0.55608 0.0
C421 C 0.05244 0.40865 0.44223 0.0
C422 C 0.07136 0.40662 0.40133 0.0
C423 C 0.03398 0.39425 0.42791 0.0
C424 C 0.01319 0.39609 0.46811 0.0
C425 C 1.00109 0.41572 0.47953 0.0
C426 C 0.9824 0.41777 0.52083 0.0
C427 C 0.97552 0.40022 0.5505 0.0
C428 C 0.98715 0.38052 0.53838 0.0
C429 C 1.00589 0.37841 0.49731 0.0
H430 H 0.96117 0.40186 0.58284 0.0
H431 H 0.1466 0.38437 0.19733 0.0
H432 H 0.84809 0.95743 0.3013 0.0
H433 H 0.88015 0.96629 0.23574 0.0
H434 H 0.8383 0.01174 0.15287 0.0
H435 H 0.8063 0.00309 0.21935 0.0
H436 H 0.85864 0.98137 0.06055 0.0
H437 H 0.88185 0.03019 0.24646 0.0
H438 H 0.89175 0.04159 0.36064 0.0
H439 H 0.94611 0.99536 0.34447 0.0
H440 H 0.93634 0.98344 0.23035 0.0
H441 H 0.94474 0.01709 0.86441 0.0
H442 H 0.91492 0.01562 0.94428 0.0
H443 H 0.95686 0.97457 0.04373 0.0
H444 H 0.98692 0.97615 0.96437 0.0
H445 H 0.93635 0.0044 0.12928 0.0
H446 H 0.91249 0.95384 0.94819 0.0
H447 H 0.90298 0.94109 0.83441 0.0
H448 H 0.85005 0.98866 0.84239 0.0
H449 H 0.85946 0.0019 0.95605 0.0
C450 C 0.84604 0.96997 0.27106 0.0
C451 C 0.82482 0.9799 0.26647 0.0
C452 C 0.86433 0.97492 0.23319 0.0
C453 C 0.86173 0.98969 0.18908 0.0
C454 C 0.8408 0.00033 0.18653 0.0
C455 C 0.82259 0.99561 0.22517 0.0
C456 C 0.8801 0.99242 0.14176 0.0
C457 C 0.87551 0.98682 0.07562 0.0
C458 C 0.90239 0.99878 0.16118 0.0
C459 C 0.90821 0.00577 0.22996 0.0
C460 C 0.89577 0.02229 0.26739 0.0
C461 C 0.90139 0.02889 0.33208 0.0
C462 C 0.91951 0.01917 0.35984 0.0
C463 C 0.93206 0.00285 0.32292 0.0
C464 C 0.9265 0.99618 0.25821 0.0
C465 C 0.94769 0.00769 0.90313 0.0
C466 C 0.96833 0.99666 0.90745 0.0
C467 C 0.93052 0.00682 0.94887 0.0
C468 C 0.93342 0.9948 1.00005 0.0
C469 C 0.95411 0.98397 0.00491 0.0
C470 C 0.9713 0.98482 0.95914 0.0
C471 C 0.91485 0.9934 0.04802 0.0
C472 C 0.91943 0.99912 0.1142 0.0
C473 C 0.89257 0.98692 0.02877 0.0
C474 C 0.88685 0.97902 0.96043 0.0
C475 C 0.89895 0.9617 0.92553 0.0
C476 C 0.89356 0.95437 0.86109 0.0
C477 C 0.87597 0.9641 0.83113 0.0
C478 C 0.8637 0.98116 0.86563 0.0
C479 C 0.86904 0.98858 0.93008 0.0
H480 H 0.87181 0.9584 0.78124 0.0
H481 H 0.92386 0.02432 0.40991 0.0
H482 H 0.60211 0.81493 0.15287 0.0
H483 H 0.59886 0.84968 0.11105 0.0
H484 H 0.5263 0.84208 0.10101 0.0
H485 H 0.52961 0.80746 0.14198 0.0
H486 H 0.54519 0.84661 0.98503 0.0
H487 H 0.55149 0.88193 0.20701 0.0
H488 H 0.57047 0.89054 0.31246 0.0
H489 H 0.62788 0.91537 0.22155 0.0
H490 H 0.60942 0.90654 0.11531 0.0
H491 H 0.50476 0.9399 0.87796 0.0
H492 H 0.51319 0.91111 0.9414 0.0
H493 H 0.58229 0.9334 0.96484 0.0
H494 H 0.57356 0.96302 0.90385 0.0
H495 H 0.56981 0.92127 0.07129 0.0
H496 H 0.5666 0.88759 0.85375 0.0
H497 H 0.55113 0.87839 0.74388 0.0
H498 H 0.49323 0.84893 0.81894 0.0
H499 H 0.5082 0.85822 0.92942 0.0
C500 C 0.58547 0.8212 0.14412 0.0
C501 C 0.56607 0.80875 0.1512 0.0
C502 C 0.58361 0.84096 0.11992 0.0
C503 C 0.56232 0.84844 0.1026 0.0
C504 C 0.54288 0.83662 0.11387 0.0
C505 C 0.54474 0.81696 0.1378 0.0
C506 C 0.56021 0.867 0.06578 0.0
C507 C 0.5503 0.86301 1.00431 0.0
C508 C 0.56805 0.88813 0.08929 0.0
C509 C 0.57916 0.89334 0.15312 0.0
C510 C 0.56826 0.88901 0.20939 0.0
C511 C 0.57891 0.89396 0.26932 0.0
C512 C 0.6004 0.90341 0.27364 0.0
C513 C 0.61127 0.90798 0.21806 0.0
C514 C 0.60072 0.90301 0.158 0.0
C515 C 0.52177 0.93868 0.89652 0.0
C516 C 0.53856 0.95357 0.88516 0.0
C517 C 0.52662 0.92213 0.93266 0.0
C518 C 0.54857 0.91964 0.95669 0.0
C519 C 0.56527 0.93482 0.9466 0.0
C520 C 0.56028 0.9517 0.91145 0.0
C521 C 0.55393 0.90103 0.99147 0.0
C522 C 0.5647 0.9049 0.05196 0.0
C523 C 0.54746 0.87956 0.96641 0.0
C524 C 0.53845 0.87376 0.89995 0.0
C525 C 0.5505 0.87926 0.84688 0.0
C526 C 0.54183 0.87402 0.78448 0.0
C527 C 0.52118 0.86312 0.77445 0.0
C528 C 0.5092 0.85739 0.8268 0.0
C529 C 0.51779 0.86261 0.88931 0.0
H530 H 0.51449 0.85909 0.72611 0.0
H531 H 0.60861 0.90726 0.32009 0.0
H532 H 0.6991 0.53791 0.34126 0.0
H533 H 0.66538 0.53098 0.27257 0.0
H534 H 0.70256 0.48318 0.14435 0.0
H535 H 0.73607 0.48989 0.21359 0.0
H536 H 0.68405 0.51577 0.08274 0.0
H537 H 0.65879 0.46733 0.22604 0.0
H538 H 0.64897 0.45677 0.33132 0.0
H539 H 0.59796 0.50636 0.35908 0.0
H540 H 0.60767 0.51742 0.25428 0.0
H541 H 0.59642 0.4866 0.85554 0.0
H542 H 0.62659 0.48622 0.93522 0.0
H543 H 0.58497 0.52418 0.07865 0.0
H544 H 0.55441 0.5239 0.9997 0.0
H545 H 0.6057 0.4957 0.1342 0.0
H546 H 0.63088 0.546 0.99878 0.0
H547 H 0.6405 0.5591 0.89684 0.0
H548 H 0.69158 0.50985 0.8587 0.0
H549 H 0.68203 0.49625 0.96004 0.0
C550 C 0.69966 0.52514 0.30026 0.0
C551 C 0.72002 0.51398 0.28385 0.0
C552 C 0.68046 0.52135 0.26052 0.0
C553 C 0.68136 0.50658 0.20293 0.0
C554 C 0.70135 0.49461 0.18843 0.0
C555 C 0.72042 0.49819 0.22858 0.0
C556 C 0.66247 0.50531 0.15476 0.0
C557 C 0.667 0.511 0.09365 0.0
C558 C 0.63998 0.49994 0.16954 0.0
C559 C 0.63412 0.49333 0.23257 0.0
C560 C 0.64561 0.47611 0.25484 0.0
C561 C 0.64003 0.47001 0.31438 0.0
C562 C 0.62289 0.48092 0.35194 0.0
C563 C 0.61125 0.49793 0.32996 0.0
C564 C 0.61677 0.50411 0.27046 0.0
C565 C 0.59367 0.49493 0.90397 0.0
C566 C 0.57294 0.5054 0.92082 0.0
C567 C 0.61104 0.49478 0.94968 0.0
C568 C 0.6084 0.50549 0.01323 0.0
C569 C 0.58761 0.51578 0.03024 0.0
C570 C 0.57011 0.5157 0.98476 0.0
C571 C 0.62727 0.50604 0.06171 0.0
C572 C 0.62275 0.50035 0.12299 0.0
C573 C 0.64975 0.51181 0.04758 0.0
C574 C 0.65557 0.51996 0.98666 0.0
C575 C 0.64405 0.53786 0.96841 0.0
C576 C 0.6495 0.54539 0.91078 0.0
C577 C 0.66659 0.53527 0.87123 0.0
C578 C 0.67831 0.51764 0.88933 0.0
C579 C 0.6729 0.51002 0.94688 0.0
H580 H 0.6708 0.54113 0.82664 0.0
H581 H 0.61859 0.47616 0.39801 0.0
H582 H 0.96073 0.68628 0.32589 0.0
H583 H 0.95957 0.64826 0.27435 0.0
H584 H 0.02839 0.65364 0.20974 0.0
H585 H 0.02959 0.69122 0.26237 0.0
H586 H 0.96097 0.63636 0.15195 0.0
H587 H 0.05399 0.60596 0.17175 0.0
H588 H 0.08421 0.60761 0.25354 0.0
H589 H 0.03467 0.61826 0.40451 0.0
H590 H 1.00411 0.61638 0.32369 0.0
H591 H 0.99551 0.56668 0.87538 0.0
H592 H 0.98887 0.59439 0.96809 0.0
H593 H 0.99729 0.54664 0.09564 0.0
H594 H 1.00455 0.51881 1.00269 0.0
H595 H 0.02085 0.58013 0.13997 0.0
H596 H 0.94143 0.57367 0.08612 0.0
H597 H 0.90704 0.57169 0.01847 0.0
H598 H 0.92542 0.63095 0.95102 0.0
H599 H 0.95946 0.63381 0.02023 0.0
C600 C 0.97591 0.67892 0.30343 0.0
C601 C 0.99539 0.69148 0.29906 0.0
C602 C 0.97518 0.65729 0.2732 0.0
C603 C 0.9939 0.64791 0.23801 0.0
C604 C 0.01385 0.66016 0.23747 0.0
C605 C 0.01458 0.68167 0.26777 0.0
C606 C 0.99182 0.62667 0.19485 0.0
C607 C 0.97396 0.62397 0.15006 0.0
C608 C 1.00844 0.61018 0.19257 0.0
C609 C 0.02675 0.61116 0.24154 0.0
C610 C 0.04951 0.60853 0.22238 0.0
C611 C 0.06671 0.60954 0.26859 0.0
C612 C 0.06137 0.61309 0.33417 0.0
C613 C 0.0388 0.61559 0.35369 0.0
C614 C 0.02153 0.61459 0.30769 0.0
C615 C 0.99563 0.56194 0.92302 0.0
C616 C 1.0007 0.54048 0.9314 0.0
C617 C 0.99163 0.57784 0.97625 0.0
C618 C 0.99227 0.57269 0.03929 0.0
C619 C 0.99666 0.55111 0.04768 0.0
C620 C 1.00081 0.53518 0.99438 0.0
C621 C 0.99041 0.59022 0.09598 0.0
C622 C 1.00762 0.59231 0.14291 0.0
C623 C 0.97291 0.60592 0.10136 0.0
C624 C 0.95307 0.60381 0.05769 0.0
C625 C 0.93823 0.58617 0.0564 0.0
C626 C 0.91877 0.58492 0.018 0.0
C627 C 0.91423 0.60096 0.97975 0.0
C628 C 0.929 0.61848 0.98044 0.0
C629 C 0.94827 0.62003 0.01965 0.0
H630 H 0.89918 0.5999 0.94994 0.0
H631 H 0.07471 0.61386 0.36987 0.0
H632 H 1.00403 0.2305 0.25244 0.0
H633 H 0.9979 0.20481 0.32805 0.0
H634 H 0.06303 0.22131 0.41504 0.0
H635 H 0.06921 0.24723 0.33893 0.0
H636 H 0.05679 0.17703 0.3775 0.0
H637 H 0.01792 0.23501 0.50319 0.0
H638 H 0.9916 0.26591 0.5248 0.0
H639 H 0.93561 0.22399 0.46378 0.0
H640 H 0.96162 0.19287 0.44084 0.0
H641 H 0.02954 0.09831 0.58201 0.0
H642 H 0.04067 0.13259 0.54783 0.0
H643 H 0.9783 0.13348 0.44093 0.0
H644 H 0.9672 0.09902 0.47402 0.0
H645 H 0.98791 0.17286 0.51026 0.0
H646 H 0.02735 0.11715 0.36582 0.0
H647 H 0.05336 0.08617 0.33906 0.0
H648 H 0.10801 0.12396 0.43223 0.0
H649 H 0.08223 0.1551 0.46031 0.0
C650 C 0.01683 0.2289 0.28851 0.0
C651 C 0.03705 0.24074 0.29021 0.0
C652 C 0.01329 0.21434 0.33178 0.0
C653 C 0.02995 0.21133 0.37737 0.0
C654 C 0.04995 0.22357 0.38039 0.0
C655 C 0.0534 0.23838 0.33734 0.0
C656 C 0.027 0.19391 0.41728 0.0
C657 C 0.04207 0.17633 0.40804 0.0
C658 C 1.00756 0.19294 0.45598 0.0
C659 C 0.99177 0.21159 0.47001 0.0
C660 C 1.00002 0.23239 0.49394 0.0
C661 C 0.98514 0.24995 0.5065 0.0
C662 C 0.96195 0.24692 0.49561 0.0
C663 C 0.95358 0.22631 0.47223 0.0
C664 C 0.96838 0.20869 0.45955 0.0
C665 C 0.01832 0.10567 0.55053 0.0
C666 C 0.9976 0.09585 0.52996 0.0
C667 C 0.02466 0.1253 0.53141 0.0
C668 C 0.01038 0.13544 0.49153 0.0
C669 C 0.9895 0.12591 0.472 0.0
C670 C 0.98318 0.10626 0.49091 0.0
C671 C 0.01726 0.15573 0.46855 0.0
C672 C 1.00293 0.1738 0.48109 0.0
C673 C 0.03733 0.15711 0.43259 0.0
C674 C 0.0528 0.13836 0.41592 0.0
C675 C 0.04486 0.11879 0.38114 0.0
C676 C 0.05957 0.10121 0.36562 0.0
C677 C 0.0823 0.10306 0.38413 0.0
C678 C 0.09038 0.12253 0.41807 0.0
C679 C 0.07573 0.14014 0.43379 0.0
H680 H 0.09367 0.08944 0.37201 0.0
H681 H 0.95046 0.26054 0.50535 0.0
H682 H 0.28354 0.9239 0.24525 0.0
H683 H 0.30233 0.89885 0.3081 0.0
H684 H 0.29297 0.94492 0.48112 0.0
H685 H 0.27361 0.96939 0.41904 0.0
H686 H 0.34035 0.90763 0.35986 0.0
H687 H 0.29801 0.92551 0.61552 0.0
H688 H 0.25952 0.92818 0.66107 0.0
H689 H 0.23388 0.88868 0.49142 0.0
H690 H 0.27227 0.88545 0.44512 0.0
H691 H 0.39766 0.93893 0.65524 0.0
H692 H 0.36051 0.92945 0.6102 0.0
H693 H 0.387 0.86904 0.51183 0.0
H694 H 0.42446 0.87831 0.55822 0.0
H695 H 0.32695 0.89683 0.5864 0.0
H696 H 0.37422 0.8693 0.3563 0.0
H697 H 0.41286 0.86927 0.31129 0.0
H698 H 0.42646 0.93043 0.4282 0.0
H699 H 0.38783 0.9309 0.47307 0.0
C700 C 0.28498 0.92829 0.29703 0.0
C701 C 0.2773 0.94857 0.3274 0.0
C702 C 0.29559 0.91397 0.33291 0.0
C703 C 0.29894 0.91984 0.39956 0.0
C704 C 0.29008 0.93962 0.43025 0.0
C705 C 0.27917 0.95376 0.39459 0.0
C706 C 0.31528 0.90775 0.43473 0.0
C707 C 0.33705 0.90439 0.40842 0.0
C708 C 0.31122 0.90371 0.49849 0.0
C709 C 0.28811 0.90525 0.52676 0.0
C710 C 0.28423 0.9172 0.58811 0.0
C711 C 0.2624 0.91887 0.61402 0.0
C712 C 0.24427 0.90862 0.57915 0.0
C713 C 0.24794 0.89664 0.51834 0.0
C714 C 0.26974 0.89491 0.49219 0.0
C715 C 0.3954 0.92311 0.6268 0.0
C716 C 0.41403 0.90947 0.60959 0.0
C717 C 0.37407 0.91768 0.60111 0.0
C718 C 0.37111 0.89871 0.55691 0.0
C719 C 0.38902 0.88382 0.54563 0.0
C720 C 0.41042 0.88922 0.57165 0.0
C721 C 0.35174 0.89777 0.51192 0.0
C722 C 0.32963 0.89885 0.53649 0.0
C723 C 0.35534 0.89981 0.44644 0.0
C724 C 0.37832 0.89998 0.41844 0.0
C725 C 0.38547 0.88275 0.37211 0.0
C726 C 0.40734 0.88266 0.34666 0.0
C727 C 0.42213 0.89981 0.36703 0.0
C728 C 0.41502 0.91715 0.41254 0.0
C729 C 0.39315 0.91734 0.43794 0.0
H730 H 0.43908 0.89967 0.34744 0.0
H731 H 0.22737 0.90996 0.59927 0.0
H732 H 0.42719 0.28848 0.52238 0.0
H733 H 0.43716 0.32151 0.59546 0.0
H734 H 0.50296 0.29458 0.62576 0.0
H735 H 0.49278 0.26144 0.55519 0.0
H736 H 0.4912 0.32292 0.72826 0.0
H737 H 0.49198 0.32054 0.49419 0.0
H738 H 0.47303 0.31478 0.388 0.0
H739 H 0.42623 0.36613 0.4524 0.0
H740 H 0.44468 0.37197 0.55921 0.0
H741 H 0.54031 0.43445 0.65138 0.0
H742 H 0.52923 0.39649 0.61982 0.0
H743 H 0.49145 0.39866 0.79677 0.0
H744 H 0.50319 0.43583 0.82941 0.0
H745 H 0.48917 0.38216 0.59414 0.0
H746 H 0.48321 0.34918 0.83765 0.0
H747 H 0.50234 0.35368 0.94339 0.0
H748 H 0.56348 0.37269 0.8566 0.0
H749 H 0.54489 0.36789 0.75009 0.0
C750 C 0.44337 0.28933 0.547 0.0
C751 C 0.45935 0.27264 0.53263 0.0
C752 C 0.44909 0.30817 0.58845 0.0
C753 C 0.47107 0.31071 0.61415 0.0
C754 C 0.48598 0.29302 0.60602 0.0
C755 C 0.48012 0.27405 0.56566 0.0
C756 C 0.48003 0.33249 0.63884 0.0
C757 C 0.49065 0.33597 0.69933 0.0
C758 C 0.47979 0.3493 0.60016 0.0
C759 C 0.46951 0.3465 0.53488 0.0
C760 C 0.47764 0.33057 0.48567 0.0
C761 C 0.46696 0.32727 0.42547 0.0
C762 C 0.44831 0.33994 0.41384 0.0
C763 C 0.44057 0.35622 0.46178 0.0
C764 C 0.45113 0.35955 0.5221 0.0
C765 C 0.53014 0.42659 0.68409 0.0
C766 C 0.52283 0.43805 0.74308 0.0
C767 C 0.52373 0.40497 0.66602 0.0
C768 C 0.50969 0.39463 0.70626 0.0
C769 C 0.5028 0.40599 0.76567 0.0
C770 C 0.50953 0.42736 0.78423 0.0
C771 C 0.50054 0.37272 0.68374 0.0
C772 C 0.48979 0.36921 0.62345 0.0
C773 C 0.50102 0.35586 0.72232 0.0
C774 C 0.51257 0.35835 0.78592 0.0
C775 C 0.50078 0.3542 0.84103 0.0
C776 C 0.51151 0.35684 0.90114 0.0
C777 C 0.53406 0.36359 0.90677 0.0
C778 C 0.54598 0.36756 0.85221 0.0
C779 C 0.53535 0.36488 0.79195 0.0
H780 H 0.54231 0.36567 0.95338 0.0
H781 H 0.43981 0.33716 0.36774 0.0
H782 H 0.22671 0.53598 0.31318 0.0
H783 H 0.2076 0.56174 0.39314 0.0
H784 H 0.2719 0.58714 0.4665 0.0
H785 H 0.29145 0.56226 0.38229 0.0
H786 H 0.23367 0.56834 0.55483 0.0
H787 H 0.24969 0.62387 0.42663 0.0
H788 H 0.2545 0.63758 0.32303 0.0
H789 H 0.18486 0.62331 0.27562 0.0
H790 H 0.17969 0.60932 0.37859 0.0
H791 H 0.13565 0.60212 0.72932 0.0
H792 H 0.17341 0.61035 0.69074 0.0
H793 H 0.14957 0.59613 0.49428 0.0
H794 H 0.11205 0.58874 0.53246 0.0
H795 H 0.1812 0.62481 0.49837 0.0
H796 H 0.17132 0.5557 0.58398 0.0
H797 H 0.16332 0.53449 0.67189 0.0
H798 H 0.21752 0.56688 0.78396 0.0
H799 H 0.22563 0.58846 0.69684 0.0
C800 C 0.2369 0.54752 0.3444 0.0
C801 C 0.26065 0.54721 0.3405 0.0
C802 C 0.22593 0.56209 0.39062 0.0
C803 C 0.2384 0.57637 0.43504 0.0
C804 C 0.26208 0.57627 0.43207 0.0
C805 C 0.27316 0.56193 0.38444 0.0
C806 C 0.22588 0.5899 0.48672 0.0
C807 C 0.2228 0.58143 0.5443 0.0
C808 C 0.21155 0.60657 0.4717 0.0
C809 C 0.21429 0.61566 0.41059 0.0
C810 C 0.2354 0.62366 0.39412 0.0
C811 C 0.23819 0.63147 0.33547 0.0
C812 C 0.21998 0.63136 0.29283 0.0
C813 C 0.19893 0.62348 0.30883 0.0
C814 C 0.19604 0.61568 0.36745 0.0
C815 C 0.13845 0.60137 0.67801 0.0
C816 C 0.12107 0.59454 0.63375 0.0
C817 C 0.15996 0.6061 0.65605 0.0
C818 C 0.16447 0.60343 0.58959 0.0
C819 C 0.14657 0.59839 0.5458 0.0
C820 C 0.12507 0.59407 0.56767 0.0
C821 C 0.18793 0.60211 0.56425 0.0
C822 C 0.19297 0.61285 0.51165 0.0
C823 C 0.20361 0.58686 0.5824 0.0
C824 C 0.19886 0.57386 0.63449 0.0
C825 C 0.18145 0.55834 0.62754 0.0
C826 C 0.17689 0.54627 0.67717 0.0
C827 C 0.18985 0.54939 0.73357 0.0
C828 C 0.20744 0.56454 0.74034 0.0
C829 C 0.21201 0.57671 0.69091 0.0
H830 H 0.18631 0.54003 0.77195 0.0
H831 H 0.22219 0.63735 0.24737 0.0
H832 H 0.96477 0.78034 0.22883 0.0
H833 H 0.97303 0.80448 0.14986 0.0
H834 H 0.03197 0.76611 0.08718 0.0
H835 H 0.02333 0.74166 0.16483 0.0
H836 H 1.0089 0.8282 0.16497 0.0
H837 H 0.0494 0.77671 0.9389 0.0
H838 H 0.04318 0.7417 0.86957 0.0
H839 H 0.97309 0.74313 0.92398 0.0
H840 H 0.97879 0.77829 0.99285 0.0
H841 H 0.08158 0.89573 0.03218 0.0
H842 H 0.07009 0.8607 0.06135 0.0
H843 H 0.01605 0.85654 0.92147 0.0
H844 H 0.02771 0.89132 0.89137 0.0
H845 H 0.03365 0.81569 0.93647 0.0
H846 H 1.00425 0.88021 0.06366 0.0
H847 H 1.00725 0.9163 0.12934 0.0
H848 H 0.04803 0.88956 0.26798 0.0
H849 H 0.0456 0.85335 0.20244 0.0
C850 C 0.97901 0.7767 0.19652 0.0
C851 C 0.99353 0.75933 0.20293 0.0
C852 C 0.98374 0.79046 0.15158 0.0
C853 C 1.00321 0.78719 0.11296 0.0
C854 C 0.01671 0.76881 0.11581 0.0
C855 C 0.0118 0.75487 0.16026 0.0
C856 C 0.01142 0.80476 0.0786 0.0
C857 C 0.01413 0.82538 0.11484 0.0
C858 C 0.01824 0.80119 0.01319 0.0
C859 C 0.01461 0.78007 0.97159 0.0
C860 C 0.03264 0.7696 0.9359 0.0
C861 C 0.0292 0.74972 0.89669 0.0
C862 C 1.00777 0.74016 0.89253 0.0
C863 C 0.98971 0.7505 0.92745 0.0
C864 C 0.99305 0.77039 0.96669 0.0
C865 C 0.06775 0.88697 0.00625 0.0
C866 C 0.0552 0.89633 0.96065 0.0
C867 C 0.06119 0.86703 0.02291 0.0
C868 C 0.042 0.85631 0.99423 0.0
C869 C 0.03085 0.86462 0.94422 0.0
C870 C 0.03737 0.88455 0.92762 0.0
C871 C 0.0314 0.83869 0.02348 0.0
C872 C 0.0283 0.81825 0.98648 0.0
C873 C 0.02367 0.84244 0.08791 0.0
C874 C 0.02494 0.86413 0.12784 0.0
C875 C 0.014 0.88206 0.10791 0.0
C876 C 0.01558 0.90254 0.14512 0.0
C877 C 0.02787 0.90523 0.20272 0.0
C878 C 0.03855 0.88745 0.2233 0.0
C879 C 0.03708 0.86695 0.18614 0.0
H880 H 0.02907 0.92109 0.23149 0.0
H881 H 1.00514 0.72476 0.86216 0.0
H882 H 0.74324 0.90996 0.28482 0.0
H883 H 0.71201 0.90663 0.20834 0.0
H884 H 0.75605 0.92586 0.06366 0.0
H885 H 0.78642 0.93153 0.14061 0.0
H886 H 0.73154 0.95974 0.14013 0.0
H887 H 0.71733 0.88845 0.02197 0.0
H888 H 0.70912 0.84932 0.00993 0.0
H889 H 0.64745 0.86235 0.11689 0.0
H890 H 0.65551 0.90152 0.13069 0.0
H891 H 0.65471 0.01498 0.97511 0.0
H892 H 0.68277 0.98894 1.00056 0.0
H893 H 0.63343 0.96023 0.11378 0.0
H894 H 0.60469 0.98535 0.08472 0.0
H895 H 0.65877 0.92925 0.0509 0.0
H896 H 0.67302 0.99557 0.18708 0.0
H897 H 0.67941 0.0348 0.21787 0.0
H898 H 0.73921 0.03081 0.10055 0.0
H899 H 0.73302 0.99158 0.06843 0.0
C900 C 0.74659 0.91277 0.23598 0.0
C901 C 0.76651 0.92351 0.22129 0.0
C902 C 0.7287 0.91038 0.19172 0.0
C903 C 0.73141 0.91747 0.1318 0.0
C904 C 0.75343 0.92113 0.11081 0.0
C905 C 0.77097 0.92449 0.15575 0.0
C906 C 0.7129 0.93033 0.10845 0.0
C907 C 0.71591 0.95293 0.11867 0.0
C908 C 0.69182 0.9216 0.08578 0.0
C909 C 0.68715 0.89798 0.07792 0.0
C910 C 0.70216 0.88299 0.04365 0.0
C911 C 0.6975 0.86078 0.03634 0.0
C912 C 0.67782 0.85334 0.06278 0.0
C913 C 0.66272 0.86811 0.09652 0.0
C914 C 0.66733 0.89032 0.10405 0.0
C915 C 0.6497 0.00302 0.0049 0.0
C916 C 0.62747 0.00242 0.02832 0.0
C917 C 0.66582 0.9882 0.01976 0.0
C918 C 0.66028 0.97282 0.05981 0.0
C919 C 0.63808 0.97199 0.08291 0.0
C920 C 0.6218 0.98664 0.06721 0.0
C921 C 0.67807 0.95841 0.07971 0.0
C922 C 0.67471 0.93582 0.07068 0.0
C923 C 0.69871 0.96703 0.10608 0.0
C924 C 0.7024 0.99069 0.12475 0.0
C925 C 0.68741 0.0031 0.16737 0.0
C926 C 0.69103 0.02532 0.18517 0.0
C927 C 0.70966 0.03531 0.16101 0.0
C928 C 0.72476 0.02307 0.11912 0.0
C929 C 0.72121 0.00083 0.10114 0.0
H930 H 0.71244 0.05252 0.17487 0.0
H931 H 0.67424 0.83615 0.05698 0.0
H932 H 0.52907 0.74982 0.02066 0.0
H933 H 0.51516 0.72024 0.94045 0.0
H934 H 0.57055 0.67989 0.9861 0.0
H935 H 0.58524 0.70967 0.06278 0.0
H936 H 0.56109 0.66957 0.86657 0.0
H937 H 0.51734 0.68179 0.06496 0.0
H938 H 0.49329 0.70346 0.14651 0.0
H939 H 0.44369 0.71068 1.00125 0.0
H940 H 0.46761 0.68925 0.91871 0.0
H941 H 0.49603 0.57001 0.92182 0.0
H942 H 0.49921 0.60945 0.94647 0.0
H943 H 0.51384 0.6128 0.74642 0.0
H944 H 0.51209 0.57322 0.7228 0.0
H945 H 0.48417 0.64575 0.91999 0.0
H946 H 0.55676 0.64922 0.73795 0.0
H947 H 0.58438 0.62496 0.67519 0.0
H948 H 0.58118 0.5813 0.8152 0.0
H949 H 0.55417 0.60565 0.87989 0.0
C950 C 0.53868 0.73488 0.01197 0.0
C951 C 0.55799 0.73189 0.04902 0.0
C952 C 0.53059 0.71792 0.96655 0.0
C953 C 0.54147 0.69766 0.95844 0.0
C954 C 0.56174 0.6953 0.9917 0.0
C955 C 0.56999 0.71227 0.03619 0.0
C956 C 0.53081 0.67814 0.92157 0.0
C957 C 0.54411 0.66453 0.87732 0.0
C958 C 0.50876 0.67141 0.93617 0.0
C959 C 0.49435 0.6842 0.98565 0.0
C960 C 0.50136 0.68813 0.05042 0.0
C961 C 0.48776 0.70034 0.09679 0.0
C962 C 0.46701 0.7085 0.07903 0.0
C963 C 0.45979 0.7044 0.01489 0.0
C964 C 0.47336 0.69223 0.9683 0.0
C965 C 0.49926 0.57928 0.88297 0.0
C966 C 0.50414 0.56878 0.82083 0.0
C967 C 0.50105 0.60181 0.89691 0.0
C968 C 0.50736 0.61404 0.84855 0.0
C969 C 0.50953 0.60365 0.78478 0.0
C970 C 0.50843 0.5811 0.77127 0.0
C971 C 0.51481 0.63681 0.86707 0.0
C972 C 0.50085 0.65108 0.90744 0.0
C973 C 0.53671 0.64374 0.8513 0.0
C974 C 0.55315 0.62908 0.81312 0.0
C975 C 0.56199 0.63446 0.75536 0.0
C976 C 0.57755 0.62071 0.7195 0.0
C977 C 0.58436 0.60151 0.74088 0.0
C978 C 0.5758 0.59612 0.79852 0.0
C979 C 0.56043 0.60993 0.83492 0.0
H980 H 0.59639 0.59089 0.71306 0.0
H981 H 0.4565 0.71795 0.11499 0.0
H982 H 0.77482 0.5334 0.1634 0.0
H983 H 0.80583 0.53941 0.09387 0.0
H984 H 0.83097 0.59072 0.2375 0.0
H985 H 0.8005 0.58322 0.31041 0.0
H986 H 0.83091 0.56137 0.03465 0.0
H987 H 0.88505 0.58884 0.24254 0.0
H988 H 0.88662 0.59526 0.36158 0.0
H989 H 0.84574 0.53882 0.369 0.0
H990 H 0.84386 0.53213 0.24991 0.0
H991 H 0.93306 0.5071 0.91603 0.0
H992 H 0.90827 0.53661 0.9619 0.0
H993 H 0.88971 0.50026 0.1142 0.0
H994 H 0.91526 0.471 0.06913 0.0
H995 H 0.89554 0.54021 0.16317 0.0
H996 H 0.85606 0.50403 0.96799 0.0
H997 H 0.85525 0.49247 0.85024 0.0
H998 H 0.86472 0.5584 0.81907 0.0
H999 H 0.86584 0.57029 0.93682 0.0
C1000 C 0.78637 0.54659 0.17943 0.0
C1001 C 0.78567 0.55741 0.24295 0.0
C1002 C 0.80425 0.55012 0.13927 0.0
C1003 C 0.82156 0.5648 0.16154 0.0
C1004 C 0.81847 0.57853 0.22042 0.0
C1005 C 0.80093 0.57444 0.26184 0.0
C1006 C 0.8442 0.56136 0.13057 0.0
C1007 C 0.84527 0.55722 0.06281 0.0
C1008 C 0.86335 0.55633 0.1666 0.0
C1009 C 0.86412 0.56018 0.23779 0.0
C1010 C 0.87637 0.57786 0.26973 0.0
C1011 C 0.87728 0.58154 0.33707 0.0
C1012 C 0.86618 0.5675 0.37278 0.0
C1013 C 0.85422 0.5497 0.34122 0.0
C1014 C 0.85322 0.54596 0.27386 0.0
C1015 C 0.92353 0.50544 0.95915 0.0
C1016 C 0.92563 0.48673 0.98873 0.0
C1017 C 0.90949 0.52239 0.98562 0.0
C1018 C 0.897 0.52073 0.04151 0.0
C1019 C 0.89931 0.50203 0.07129 0.0
C1020 C 0.91368 0.48523 0.04542 0.0
C1021 C 0.88075 0.53779 0.06851 0.0
C1022 C 0.88151 0.54504 0.13492 0.0
C1023 C 0.863 0.54496 0.0314 0.0
C1024 C 0.86124 0.538 0.96095 0.0
C1025 C 0.85795 0.51604 0.93594 0.0
C1026 C 0.85748 0.50943 0.86929 0.0
C1027 C 0.86004 0.52467 0.82723 0.0
C1028 C 0.86282 0.54661 0.85175 0.0
C1029 C 0.86336 0.55329 0.91841 0.0
H1030 H 0.85989 0.51947 0.77568 0.0
H1031 H 0.86692 0.57041 0.42488 0.0
H1032 H 1.00772 0.24142 0.05384 0.0
H1033 H 1.00683 0.20773 0.97762 0.0
H1034 H 0.0798 0.20641 0.97538 0.0
H1035 H 0.08063 0.24004 0.05225 0.0
H1036 H 0.02279 0.18656 0.86145 0.0
H1037 H 0.09606 0.15791 0.00817 0.0
H1038 H 0.11409 0.16696 0.11507 0.0
H1039 H 0.05113 0.19256 0.19539 0.0
H1040 H 0.03276 0.18373 0.08892 0.0
H1041 H 0.03962 0.07423 0.73694 0.0
H1042 H 0.04504 0.11313 0.77163 0.0
H1043 H 0.02622 0.105 0.96556 0.0
H1044 H 0.02237 0.06602 0.93178 0.0
H1045 H 0.05808 0.13083 0.97587 0.0
H1046 H 0.99063 0.12616 0.84395 0.0
H1047 H 0.96845 0.11633 0.74419 0.0
H1048 H 0.01125 0.15637 0.64579 0.0
H1049 H 0.03413 0.16589 0.74431 0.0
C1050 C 0.02353 0.23464 0.03395 0.0
C1051 C 0.04424 0.24343 0.05842 0.0
C1052 C 0.02303 0.21524 0.99083 0.0
C1053 C 0.04324 0.20426 0.97187 0.0
C1054 C 0.06398 0.21447 0.98993 0.0
C1055 C 0.06447 0.23389 0.0331 0.0
C1056 C 0.0425 0.18087 0.94365 0.0
C1057 C 0.03066 0.17432 0.88594 0.0
C1058 C 0.05223 0.16484 0.97648 0.0
C1059 C 0.06315 0.17037 0.0405 0.0
C1060 C 0.0861 0.1655 0.04865 0.0
C1061 C 0.09637 0.17063 0.1091 0.0
C1062 C 0.08378 0.18045 0.16186 0.0
C1063 C 0.06088 0.18512 0.15433 0.0
C1064 C 0.05056 0.18011 0.09393 0.0
C1065 C 0.03674 0.0808 0.78703 0.0
C1066 C 0.0306 0.06708 0.83172 0.0
C1067 C 0.03966 0.1031 0.80679 0.0
C1068 C 0.03568 0.11231 0.8712 0.0
C1069 C 0.02952 0.09849 0.91566 0.0
C1070 C 0.02726 0.07615 0.89633 0.0
C1071 C 0.03817 0.13615 0.89329 0.0
C1072 C 0.05039 0.14289 0.9503 0.0
C1073 C 0.02815 0.15221 0.86058 0.0
C1074 C 0.01428 0.14653 0.80139 0.0
C1075 C 0.99545 0.1327 0.80087 0.0
C1076 C 0.98277 0.12715 0.74448 0.0
C1077 C 0.98852 0.13561 0.68856 0.0
C1078 C 1.00692 0.14969 0.68897 0.0
C1079 C 0.01977 0.15514 0.74504 0.0
H1080 H 0.97867 0.13132 0.64499 0.0
H1081 H 0.09175 0.18436 0.20863 0.0
H1082 H 0.29951 0.95821 0.11676 0.0
H1083 H 0.33162 0.9645 0.05115 0.0
H1084 H 0.32128 0.03361 0.09753 0.0
H1085 H 0.29049 0.02719 0.17089 0.0
H1086 H 0.34276 0.97692 0.95632 0.0
H1087 H 0.36916 0.06208 0.0818 0.0
H1088 H 0.36664 0.08484 0.18835 0.0
H1089 H 0.36145 0.02779 0.27977 0.0
H1090 H 0.36419 0.00472 0.17387 0.0
H1091 H 0.43865 0.00297 0.78055 0.0
H1092 H 0.40181 0.00321 0.83394 0.0
H1093 H 0.43521 0.00861 0.01875 0.0
H1094 H 0.47186 0.00946 0.96588 0.0
H1095 H 0.40104 0.03105 0.0388 0.0
H1096 H 0.4106 0.95946 0.93585 0.0
H1097 H 0.41687 0.92785 0.85231 0.0
H1098 H 0.35821 0.94482 0.74938 0.0
H1099 H 0.35173 0.97676 0.83203 0.0
C1100 C 0.30413 0.97485 0.11396 0.0
C1101 C 0.29276 0.99216 0.15157 0.0
C1102 C 0.32252 0.97848 0.07515 0.0
C1103 C 0.32977 0.99962 0.06996 0.0
C1104 C 0.31694 0.01707 0.10228 0.0
C1105 C 0.2989 0.0134 0.1434 0.0
C1106 C 0.35111 0.00282 0.03268 0.0
C1107 C 0.35538 0.98887 0.9747 0.0
C1108 C 0.3682 0.018 0.05612 0.0
C1109 C 0.36655 0.03172 0.11991 0.0
C1110 C 0.3675 0.05442 0.12469 0.0
C1111 C 0.36604 0.06736 0.18493 0.0
C1112 C 0.36379 0.05777 0.24076 0.0
C1113 C 0.3631 0.0352 0.23648 0.0
C1114 C 0.36459 0.02219 0.17638 0.0
C1115 C 0.43814 0.00432 0.83261 0.0
C1116 C 0.45834 0.00621 0.86872 0.0
C1117 C 0.41698 0.00431 0.86327 0.0
C1118 C 0.41541 0.00563 0.93083 0.0
C1119 C 0.43564 0.0077 0.9668 0.0
C1120 C 0.45674 0.00811 0.93631 0.0
C1121 C 0.39291 0.00459 0.96411 0.0
C1122 C 0.38834 0.01915 0.02059 0.0
C1123 C 0.37622 0.98889 0.94199 0.0
C1124 C 0.38084 0.97065 0.88974 0.0
C1125 C 0.39923 0.95666 0.8949 0.0
C1126 C 0.40276 0.93863 0.84791 0.0
C1127 C 0.38789 0.9343 0.79579 0.0
C1128 C 0.36967 0.94818 0.78994 0.0
C1129 C 0.36607 0.96627 0.83681 0.0
H1130 H 0.39046 0.92011 0.76015 0.0
H1131 H 0.36264 0.06782 0.28734 0.0
H1132 H 0.42187 0.26694 0.29832 0.0
H1133 H 0.42451 0.29405 0.22529 0.0
H1134 H 0.49703 0.28551 0.21698 0.0
H1135 H 0.49415 0.25782 0.28801 0.0
H1136 H 0.44301 0.33079 0.25628 0.0
H1137 H 0.51966 0.30546 0.0888 0.0
H1138 H 0.53643 0.27221 0.02906 0.0
H1139 H 0.47171 0.24069 0.02248 0.0
H1140 H 0.45448 0.27383 0.0814 0.0
H1141 H 0.48797 0.42436 0.14944 0.0
H1142 H 0.48479 0.39014 0.19364 0.0
H1143 H 0.46131 0.35813 0.00876 0.0
H1144 H 0.46549 0.39216 0.96421 0.0
H1145 H 0.48822 0.33201 0.05813 0.0
H1146 H 0.42507 0.37712 0.13955 0.0
H1147 H 0.40657 0.40981 0.19728 0.0
H1148 H 0.44039 0.40023 0.37222 0.0
H1149 H 0.45983 0.36808 0.31495 0.0
C1150 C 0.43819 0.2701 0.27813 0.0
C1151 C 0.45775 0.26 0.29759 0.0
C1152 C 0.43977 0.28582 0.23715 0.0
C1153 C 0.46098 0.29198 0.21549 0.0
C1154 C 0.4804 0.28086 0.23177 0.0
C1155 C 0.47877 0.26491 0.27212 0.0
C1156 C 0.46301 0.31169 0.18315 0.0
C1157 C 0.45294 0.331 0.21305 0.0
C1158 C 0.4757 0.31205 0.12607 0.0
C1159 C 0.48583 0.29209 0.09007 0.0
C1160 C 0.50898 0.29147 0.07438 0.0
C1161 C 0.51857 0.27263 0.0407 0.0
C1162 C 0.50516 0.25433 0.02216 0.0
C1163 C 0.4821 0.25485 0.03709 0.0
C1164 C 0.47242 0.27365 0.07073 0.0
C1165 C 0.48232 0.40991 0.11844 0.0
C1166 C 0.47684 0.41073 0.05378 0.0
C1167 C 0.48037 0.39042 0.14363 0.0
C1168 C 0.47239 0.37156 0.1049 0.0
C1169 C 0.46743 0.3724 0.03973 0.0
C1170 C 0.46971 0.39181 0.01435 0.0
C1171 C 0.46865 0.35114 0.13246 0.0
C1172 C 0.4784 0.33176 0.10167 0.0
C1173 C 0.4555 0.35064 0.18866 0.0
C1174 C 0.44399 0.37022 0.22283 0.0
C1175 C 0.42875 0.38213 0.19016 0.0
C1176 C 0.41816 0.40062 0.22278 0.0
C1177 C 0.42242 0.4072 0.28831 0.0
C1178 C 0.43726 0.39527 0.32136 0.0
C1179 C 0.44809 0.37693 0.28883 0.0
H1180 H 0.41417 0.42149 0.31353 0.0
H1181 H 0.51262 0.23976 0.99612 0.0
H1182 H 0.26221 0.52902 0.09165 0.0
H1183 H 0.22985 0.52434 0.01797 0.0
H1184 H 0.2131 0.46433 0.08562 0.0
H1185 H 0.24563 0.46906 0.15981 0.0
H1186 H 0.20346 0.46399 0.95093 0.0
H1187 H 0.187 0.50761 0.15471 0.0
H1188 H 0.19363 0.53733 0.24409 0.0
H1189 H 0.18883 0.58386 0.11282 0.0
H1190 H 0.18212 0.55436 0.02252 0.0
H1191 H 0.08568 0.46189 0.87425 0.0
H1192 H 0.1227 0.4615 0.92596 0.0
H1193 H 0.13544 0.52638 0.88694 0.0
H1194 H 0.09814 0.52707 0.83631 0.0
H1195 H 0.14795 0.52367 0.00526 0.0
H1196 H 0.16214 0.48012 0.80167 0.0
H1197 H 0.15559 0.45034 0.71237 0.0
H1198 H 0.16529 0.40366 0.84142 0.0
H1199 H 0.1716 0.43319 0.93172 0.0
C1200 C 0.25223 0.51434 0.08876 0.0
C1201 C 0.25666 0.49928 0.13106 0.0
C1202 C 0.23353 0.51181 0.04718 0.0
C1203 C 0.2187 0.49419 0.04695 0.0
C1204 C 0.22423 0.47809 0.08489 0.0
C1205 C 0.24299 0.48066 0.12682 0.0
C1206 C 0.19641 0.49394 0.0126 0.0
C1207 C 0.1912 0.4769 0.96323 0.0
C1208 C 0.1805 0.51097 0.02763 0.0
C1209 C 0.18428 0.52878 0.0818 0.0
C1210 C 0.1875 0.52417 0.14485 0.0
C1211 C 0.19126 0.54098 0.19568 0.0
C1212 C 0.19183 0.56247 0.18411 0.0
C1213 C 0.18845 0.5672 0.12169 0.0
C1214 C 0.18459 0.55045 0.07069 0.0
C1215 C 0.09635 0.47607 0.87618 0.0
C1216 C 0.08875 0.49451 0.85073 0.0
C1217 C 0.11769 0.47578 0.90565 0.0
C1218 C 0.13222 0.49381 0.90997 0.0
C1219 C 0.1247 0.51222 0.88441 0.0
C1220 C 0.1033 0.51256 0.85516 0.0
C1221 C 0.15486 0.49373 0.94287 0.0
C1222 C 0.16015 0.51075 0.9924 0.0
C1223 C 0.17082 0.47667 0.92779 0.0
C1224 C 0.16713 0.45888 0.87358 0.0
C1225 C 0.16271 0.46351 0.81111 0.0
C1226 C 0.15907 0.44667 0.76029 0.0
C1227 C 0.15997 0.42512 0.77125 0.0
C1228 C 0.16457 0.42036 0.83302 0.0
C1229 C 0.16821 0.43714 0.88403 0.0
H1230 H 0.15714 0.41211 0.73185 0.0
H1231 H 0.1948 0.57544 0.22354 0.0
H1232 H 0.02959 0.77871 0.40373 0.0
H1233 H 0.03137 0.80999 0.48739 0.0
H1234 H 0.97077 0.78849 0.57384 0.0
H1235 H 0.96836 0.75744 0.48662 0.0
H1236 H 0.96547 0.82795 0.56884 0.0
H1237 H 0.02572 0.79211 0.65263 0.0
H1238 H 0.06072 0.77068 0.655 0.0
H1239 H 0.09861 0.82091 0.58408 0.0
H1240 H 0.0638 0.84254 0.5804 0.0
H1241 H 0.02778 0.92497 0.79234 0.0
H1242 H 0.02285 0.88613 0.75612 0.0
H1243 H 0.98413 0.90053 0.59276 0.0
H1244 H 0.98783 0.93927 0.63132 0.0
H1245 H 0.0365 0.86071 0.6643 0.0
H1246 H 0.94913 0.86194 0.53109 0.0
H1247 H 0.91267 0.88127 0.54716 0.0
H1248 H 0.92604 0.89613 0.75015 0.0
H1249 H 0.96241 0.87661 0.73552 0.0
C1250 C 0.01703 0.78027 0.44175 0.0
C1251 C 0.99891 0.76557 0.43887 0.0
C1252 C 0.01809 0.7982 0.49002 0.0
C1253 C 1.00135 0.80174 0.53801 0.0
C1254 C 0.98393 0.78625 0.53758 0.0
C1255 C 0.9827 0.76832 0.48832 0.0
C1256 C 1.00105 0.82271 0.58342 0.0
C1257 C 0.98098 0.83497 0.59028 0.0
C1258 C 0.02099 0.83182 0.61396 0.0
C1259 C 0.04208 0.81892 0.616 0.0
C1260 C 0.04148 0.79854 0.63715 0.0
C1261 C 0.0613 0.78636 0.63878 0.0
C1262 C 0.08187 0.79442 0.61964 0.0
C1263 C 0.08266 0.8147 0.59893 0.0
C1264 C 0.06289 0.82695 0.59719 0.0
C1265 C 0.01797 0.9198 0.7491 0.0
C1266 C 1.00811 0.93518 0.71477 0.0
C1267 C 0.0152 0.89754 0.72825 0.0
C1268 C 1.00284 0.8901 0.67189 0.0
C1269 C 0.99313 0.90558 0.63745 0.0
C1270 C 0.99539 0.92782 0.65924 0.0
C1271 C 1.00117 0.86633 0.64696 0.0
C1272 C 0.02089 0.85356 0.64395 0.0
C1273 C 0.98066 0.85642 0.62283 0.0
C1274 C 0.9586 0.86792 0.63207 0.0
C1275 C 0.94424 0.86921 0.57922 0.0
C1276 C 0.92359 0.88023 0.58807 0.0
C1277 C 0.91707 0.88996 0.6496 0.0
C1278 C 0.93114 0.88863 0.70248 0.0
C1279 C 0.95178 0.87761 0.69392 0.0
H1280 H 0.90109 0.89851 0.65633 0.0
H1281 H 0.09719 0.78496 0.62092 0.0
H1282 H 0.77006 0.99203 0.47646 0.0
H1283 H 0.73761 0.00251 0.54773 0.0
H1284 H 0.69234 0.98793 0.38529 0.0
H1285 H 0.72456 0.97937 0.31438 0.0
H1286 H 0.673 0.01621 0.45655 0.0
H1287 H 0.70855 0.95059 0.50199 0.0
H1288 H 0.73965 0.9279 0.5337 0.0
H1289 H 0.74465 0.96865 0.71701 0.0
H1290 H 0.71374 0.99173 0.68602 0.0
H1291 H 0.57565 0.97775 0.6056 0.0
H1292 H 0.61193 0.97742 0.54903 0.0
H1293 H 0.64147 0.01708 0.7137 0.0
H1294 H 0.60512 0.01782 0.77025 0.0
H1295 H 0.66956 0.98 0.65159 0.0
H1296 H 0.6248 0.03994 0.60084 0.0
H1297 H 0.58905 0.05412 0.5638 0.0
H1298 H 0.59865 0.01725 0.37617 0.0
H1299 H 0.63364 0.00145 0.41362 0.0
C1300 C 0.75323 0.9919 0.4559 0.0
C1301 C 0.7499 0.98459 0.38992 0.0
C1302 C 0.73455 0.99746 0.49684 0.0
C1303 C 0.71215 0.99522 0.4729 0.0
C1304 C 0.70917 0.98968 0.40599 0.0
C1305 C 0.72772 0.9847 0.36518 0.0
C1306 C 0.69175 0.99714 0.51656 0.0
C1307 C 0.67237 0.00814 0.4989 0.0
C1308 C 0.69051 0.98684 0.57264 0.0
C1309 C 0.70906 0.97303 0.59139 0.0
C1310 C 0.71639 0.95478 0.54889 0.0
C1311 C 0.73397 0.94185 0.56675 0.0
C1312 C 0.74417 0.94688 0.62725 0.0
C1313 C 0.73677 0.96481 0.6701 0.0
C1314 C 0.71923 0.97782 0.65243 0.0
C1315 C 0.58988 0.98627 0.63014 0.0
C1316 C 0.58732 0.99793 0.69254 0.0
C1317 C 0.61065 0.98607 0.59763 0.0
C1318 C 0.62947 0.99728 0.62693 0.0
C1319 C 0.62723 0.00828 0.69006 0.0
C1320 C 0.60635 0.0088 0.72222 0.0
C1321 C 0.65101 0.99851 0.59025 0.0
C1322 C 0.67046 0.9882 0.60949 0.0
C1323 C 0.65203 0.00868 0.53421 0.0
C1324 C 0.63179 0.01929 0.51038 0.0
C1325 C 0.61922 0.03465 0.55185 0.0
C1326 C 0.59903 0.04296 0.53079 0.0
C1327 C 0.59165 0.03676 0.46747 0.0
C1328 C 0.60439 0.02207 0.42521 0.0
C1329 C 0.62433 0.01329 0.44652 0.0
H1330 H 0.57604 0.04328 0.45122 0.0
H1331 H 0.75777 0.93684 0.64099 0.0
H1332 H 0.54787 0.75548 0.3233 0.0
H1333 H 0.5499 0.7288 0.39842 0.0
H1334 H 0.61453 0.70681 0.31839 0.0
H1335 H 0.61243 0.73336 0.24354 0.0
H1336 H 0.58279 0.67468 0.30698 0.0
H1337 H 0.61045 0.72955 0.47416 0.0
H1338 H 0.60964 0.76472 0.54539 0.0
H1339 H 0.54614 0.74798 0.62432 0.0
H1340 H 0.5464 0.71282 0.55287 0.0
H1341 H 0.60304 0.5894 0.48272 0.0
H1342 H 0.60616 0.62316 0.43831 0.0
H1343 H 0.54622 0.64752 0.54186 0.0
H1344 H 0.54384 0.61431 0.59031 0.0
H1345 H 0.57509 0.67929 0.54402 0.0
H1346 H 0.54537 0.62633 0.37721 0.0
H1347 H 0.54372 0.59148 0.30447 0.0
H1348 H 0.60767 0.60513 0.22207 0.0
H1349 H 0.60985 0.63995 0.29495 0.0
C1350 C 0.56302 0.74572 0.32427 0.0
C1351 C 0.58015 0.74664 0.27837 0.0
C1352 C 0.56409 0.73033 0.36676 0.0
C1353 C 0.58231 0.71566 0.36374 0.0
C1354 C 0.6003 0.7179 0.32155 0.0
C1355 C 0.59924 0.73324 0.27935 0.0
C1356 C 0.58119 0.69619 0.39715 0.0
C1357 C 0.58152 0.67571 0.35896 0.0
C1358 C 0.57851 0.6975 0.46465 0.0
C1359 C 0.57834 0.71863 0.50766 0.0
C1360 C 0.5962 0.73345 0.50626 0.0
C1361 C 0.59587 0.75337 0.54678 0.0
C1362 C 0.57782 0.75861 0.58923 0.0
C1363 C 0.56009 0.74391 0.59136 0.0
C1364 C 0.56034 0.72398 0.5509 0.0
C1365 C 0.59068 0.602 0.49718 0.0
C1366 C 0.57308 0.59887 0.54008 0.0
C1367 C 0.59234 0.62129 0.47089 0.0
C1368 C 0.57616 0.63782 0.4855 0.0
C1369 C 0.55884 0.635 0.5293 0.0
C1370 C 0.55731 0.61578 0.55628 0.0
C1371 C 0.57709 0.65775 0.45383 0.0
C1372 C 0.57651 0.67827 0.4921 0.0
C1373 C 0.57916 0.65656 0.38608 0.0
C1374 C 0.57787 0.63565 0.342 0.0
C1375 C 0.55916 0.62183 0.3439 0.0
C1376 C 0.55812 0.6021 0.30259 0.0
C1377 C 0.57561 0.59607 0.2588 0.0
C1378 C 0.59415 0.6098 0.25609 0.0
C1379 C 0.59529 0.62955 0.29734 0.0
H1380 H 0.57477 0.58078 0.22687 0.0
H1381 H 0.57759 0.77404 0.62057 0.0
H1382 H 0.77522 0.52337 0.50438 0.0
H1383 H 0.80652 0.51487 0.57432 0.0
H1384 H 0.8473 0.49402 0.40598 0.0
H1385 H 0.81598 0.5017 0.33699 0.0
H1386 H 0.85801 0.47004 0.48802 0.0
H1387 H 0.84988 0.54673 0.49928 0.0
H1388 H 0.83047 0.58211 0.51914 0.0
H1389 H 0.82088 0.57468 0.71769 0.0
H1390 H 0.83995 0.5391 0.69855 0.0
H1391 H 0.97022 0.49793 0.59724 0.0
H1392 H 0.93262 0.498 0.5481 0.0
H1393 H 0.90177 0.49649 0.73344 0.0
H1394 H 0.93954 0.49579 0.78293 0.0
H1395 H 0.88367 0.52943 0.65616 0.0
H1396 H 0.89853 0.45279 0.63793 0.0
H1397 H 0.91992 0.41883 0.60799 0.0
H1398 H 0.9202 0.42897 0.40991 0.0
H1399 H 0.89905 0.46314 0.43874 0.0
C1400 C 0.79061 0.51625 0.48257 0.0
C1401 C 0.79306 0.51305 0.41518 0.0
C1402 C 0.80869 0.51172 0.52253 0.0
C1403 C 0.8297 0.50421 0.4959 0.0
C1404 C 0.83148 0.49977 0.42839 0.0
C1405 C 0.81347 0.50411 0.38874 0.0
C1406 C 0.85028 0.50203 0.53705 0.0
C1407 C 0.86357 0.48314 0.52451 0.0
C1408 C 0.85773 0.51888 0.58564 0.0
C1409 C 0.84614 0.54018 0.59734 0.0
C1410 C 0.84349 0.5526 0.54703 0.0
C1411 C 0.83256 0.57269 0.55816 0.0
C1412 C 0.82439 0.58062 0.61962 0.0
C1413 C 0.82718 0.5685 0.67008 0.0
C1414 C 0.83805 0.54837 0.65912 0.0
C1415 C 0.95548 0.49756 0.6277 0.0
C1416 C 0.958 0.49688 0.69416 0.0
C1417 C 0.93394 0.49753 0.59941 0.0
C1418 C 0.91427 0.49721 0.63686 0.0
C1419 C 0.91665 0.49672 0.70342 0.0
C1420 C 0.93827 0.49626 0.73162 0.0
C1421 C 0.89141 0.49766 0.60599 0.0
C1422 C 0.87782 0.51625 0.62035 0.0
C1423 C 0.88401 0.48082 0.55769 0.0
C1424 C 0.89731 0.4606 0.5406 0.0
C1425 C 0.90337 0.44791 0.58811 0.0
C1426 C 0.91539 0.42858 0.57129 0.0
C1427 C 0.92135 0.42173 0.50706 0.0
C1428 C 0.9155 0.43428 0.4596 0.0
C1429 C 0.90348 0.45361 0.47615 0.0
H1430 H 0.93045 0.40666 0.49396 0.0
H1431 H 0.81594 0.59619 0.62818 0.0
loop_
_geom_bond_atom_site_label_1
_geom_bond_atom_site_label_2
_geom_bond_distance
_geom_bond_site_symmetry_2
_ccdc_geom_bond_type
H0 C3 0.931 . S
H1 C6 0.928 . S
H2 C8 0.930 . S
C3 H0 0.931 . S
C3 C4 1.413 . S
C3 C5 1.360 . S
C4 C3 1.413 . S
C4 C8 1.429 . S
C5 C3 1.360 . S
C5 C6 1.372 . S
C6 H1 0.928 . S
C6 C5 1.372 . S
C6 C7 1.404 . S
C7 C6 1.404 . S
C7 C8 1.391 . S
C8 H2 0.930 . S
C8 C4 1.429 . S
C8 C7 1.391 . S
H9 C12 0.931 . S
H10 C15 0.928 . S
H11 C17 0.930 . S
C12 H9 0.931 . S
C12 C13 1.413 . S
C12 C14 1.360 . S
C13 C12 1.413 . S
C13 C17 1.429 . S
C14 C12 1.360 . S
C14 C15 1.372 . S
C15 H10 0.928 . S
C15 C14 1.372 . S
C15 C16 1.404 . S
C16 C15 1.404 . S
C16 C17 1.391 . S
C17 H11 0.930 . S
C17 C13 1.429 . S
C17 C16 1.391 . S
H18 C21 0.930 . S
H19 C24 0.928 . S
H20 C26 0.933 . S
C21 H18 0.930 . S
C21 C22 1.414 . S
C21 C23 1.360 . S
C22 C21 1.414 . S
C22 C26 1.429 1_565 S
C23 C21 1.360 . S
C23 C24 1.372 . S
C24 H19 0.928 . S
C24 C23 1.372 . S
C24 C25 1.403 . S
C25 C24 1.403 . S
C25 C26 1.392 1_565 S
C26 H20 0.933 . S
C26 C22 1.429 1_545 S
C26 C25 1.392 1_545 S
H27 C30 0.931 . S
H28 C33 0.928 . S
H29 C35 0.930 . S
C30 H27 0.931 . S
C30 C31 1.413 1_554 S
C30 C32 1.360 . S
C31 C30 1.413 1_556 S
C31 C35 1.429 . S
C32 C30 1.360 . S
C32 C33 1.372 . S
C33 H28 0.928 . S
C33 C32 1.372 . S
C33 C34 1.404 1_554 S
C34 C33 1.404 1_556 S
C34 C35 1.391 . S
C35 H29 0.930 . S
C35 C31 1.429 . S
C35 C34 1.391 . S
H36 C39 0.931 . S
H37 C42 0.928 . S
H38 C44 0.930 . S
C39 H36 0.931 . S
C39 C40 1.413 . S
C39 C41 1.360 . S
C40 C39 1.413 . S
C40 C44 1.429 . S
C41 C39 1.360 . S
C41 C42 1.372 . S
C42 H37 0.928 . S
C42 C41 1.372 . S
C42 C43 1.404 . S
C43 C42 1.404 . S
C43 C44 1.391 . S
C44 H38 0.930 . S
C44 C40 1.429 . S
C44 C43 1.391 . S
H45 C48 0.931 . S
H46 C51 0.928 . S
H47 C53 0.930 . S
C48 H45 0.931 . S
C48 C49 1.413 . S
C48 C50 1.360 . S
C49 C48 1.413 . S
C49 C53 1.429 . S
C50 C48 1.360 . S
C50 C51 1.372 . S
C51 H46 0.928 . S
C51 C50 1.372 . S
C51 C52 1.404 . S
C52 C51 1.404 . S
C52 C53 1.391 . S
C53 H47 0.930 . S
C53 C49 1.429 . S
C53 C52 1.391 . S
H54 C57 0.931 . S
H55 C60 0.928 . S
H56 C62 0.927 . S
C57 H54 0.931 . S
C57 C58 1.412 . S
C57 C59 1.360 . S
C58 C57 1.412 . S
C58 C62 1.429 1_565 S
C59 C57 1.360 . S
C59 C60 1.372 . S
C60 H55 0.928 . S
C60 C59 1.372 . S
C60 C61 1.404 . S
C61 C60 1.404 . S
C61 C62 1.389 1_565 S
C62 H56 0.927 . S
C62 C58 1.429 1_545 S
C62 C61 1.389 1_545 S
H63 C66 0.931 . S
H64 C69 0.928 . S
H65 C71 0.930 . S
C66 H63 0.931 . S
C66 C67 1.413 . S
C66 C68 1.360 . S
C67 C66 1.413 . S
C67 C71 1.429 . S
C68 C66 1.360 . S
C68 C69 1.372 . S
C69 H64 0.928 . S
C69 C68 1.372 . S
C69 C70 1.404 . S
C70 C69 1.404 . S
C70 C71 1.391 . S
C71 H65 0.930 . S
C71 C67 1.429 . S
C71 C70 1.391 . S
Tb72 C81 2.764 . S
Tb72 O82 2.325 1_655 S
Tb72 O85 2.303 1_655 S
Tb72 O89 2.322 1_545 S
Tb72 O90 2.349 . S
Tb72 O93 2.415 1_655 S
Tb72 O94 2.399 . S
Tb73 O83 2.322 1_565 S
Tb73 O84 2.349 . S
Tb73 O86 2.415 . S
Tb73 O87 2.399 . S
Tb73 O88 2.325 . S
Tb73 O91 2.303 1_455 S
Tb73 C102 2.764 . S
C74 O90 1.261 . S
C74 O91 1.257 1_545 S
C75 C78 1.358 . S
C75 C79 1.332 1_655 S
C75 C81 1.504 . S
C76 C77 1.373 . S
C76 C80 1.308 1_655 S
C77 C76 1.373 . S
C77 C78 1.429 . S
C77 H104 0.932 . S
C78 C75 1.358 . S
C78 C77 1.429 . S
C78 H105 0.930 . S
C79 C75 1.332 1_455 S
C79 C80 1.394 . S
C79 H106 0.932 . S
C80 C76 1.308 1_455 S
C80 C79 1.394 . S
C80 H107 0.929 . S
C81 Tb72 2.764 . S
C81 C75 1.504 . S
C81 O93 1.239 1_655 S
C81 O94 1.263 . S
O82 Tb72 2.325 1_455 S
O82 C92 1.236 . S
O83 Tb73 2.322 1_545 S
O83 C92 1.257 . S
O84 Tb73 2.349 . S
O84 C95 1.261 . S
O85 Tb72 2.303 1_455 S
O85 C95 1.257 1_545 S
O86 Tb73 2.415 . S
O86 C102 1.239 . S
O87 Tb73 2.399 . S
O87 C102 1.263 . S
O88 Tb73 2.325 . S
O88 C103 1.216 1_455 S
O89 Tb72 2.322 1_565 S
O89 C103 1.269 . S
O90 Tb72 2.349 . S
O90 C74 1.261 . S
O91 Tb73 2.303 1_655 S
O91 C74 1.257 1_565 S
C92 O82 1.236 . S
C92 O83 1.257 . S
O93 Tb72 2.415 1_455 S
O93 C81 1.239 1_455 S
O94 Tb72 2.399 . S
O94 C81 1.263 . S
C95 O84 1.261 . S
C95 O85 1.257 1_565 S
C96 C99 1.358 . S
C96 C100 1.332 . S
C96 C102 1.504 . S
C97 C98 1.373 . S
C97 C101 1.308 . S
C98 C97 1.373 . S
C98 C99 1.429 . S
C98 H108 0.932 . S
C99 C96 1.358 . S
C99 C98 1.429 . S
C99 H109 0.930 . S
C100 C96 1.332 . S
C100 C101 1.394 . S
C100 H110 0.940 . S
C101 C97 1.308 . S
C101 C100 1.394 . S
C101 H111 0.929 . S
C102 Tb73 2.764 . S
C102 O86 1.239 . S
C102 O87 1.263 . S
C102 C96 1.504 . S
C103 O88 1.216 1_655 S
C103 O89 1.269 . S
H104 C77 0.932 . S
H105 C78 0.930 . S
H106 C79 0.932 . S
H107 C80 0.929 . S
H108 C98 0.932 . S
H109 C99 0.930 . S
H110 C100 0.940 . S
H111 C101 0.929 . S
Tb112 C121 2.764 . S
Tb112 O122 2.325 . S
Tb112 O125 2.303 1_565 S
Tb112 O129 2.322 . S
Tb112 O130 2.349 . S
Tb112 O133 2.415 1_565 S
Tb112 O134 2.399 . S
Tb113 O123 2.322 . S
Tb113 O124 2.349 . S
Tb113 O126 2.415 1_545 S
Tb113 O127 2.399 . S
Tb113 O128 2.325 . S
Tb113 O131 2.303 1_545 S
Tb113 C142 2.764 . S
C114 O130 1.261 . S
C114 O131 1.257 . S
C115 C118 1.358 . S
C115 C119 1.328 . S
C115 C121 1.504 . S
C116 C117 1.373 . S
C116 C120 1.308 . S
C117 C116 1.373 . S
C117 C118 1.429 . S
C117 H144 0.932 . S
C118 C115 1.358 . S
C118 C117 1.429 . S
C118 H145 0.930 . S
C119 C115 1.328 . S
C119 C120 1.394 . S
C119 H146 0.936 1_565 S
C120 C116 1.308 . S
C120 C119 1.394 . S
C120 H147 0.929 1_565 S
C121 Tb112 2.764 . S
C121 C115 1.504 . S
C121 O133 1.239 1_565 S
C121 O134 1.263 . S
O122 Tb112 2.325 . S
O122 C132 1.236 1_565 S
O123 Tb113 2.322 . S
O123 C132 1.257 . S
O124 Tb113 2.349 . S
O124 C135 1.261 . S
O125 Tb112 2.303 1_545 S
O125 C135 1.257 . S
O126 Tb113 2.415 1_565 S
O126 C142 1.239 1_565 S
O127 Tb113 2.399 . S
O127 C142 1.263 . S
O128 Tb113 2.325 . S
O128 C143 1.236 1_545 S
O129 Tb112 2.322 . S
O129 C143 1.257 . S
O130 Tb112 2.349 . S
O130 C114 1.261 . S
O131 Tb113 2.303 1_565 S
O131 C114 1.257 . S
C132 O122 1.236 1_545 S
C132 O123 1.257 . S
O133 Tb112 2.415 1_545 S
O133 C121 1.239 1_545 S
O134 Tb112 2.399 . S
O134 C121 1.263 . S
C135 O124 1.261 . S
C135 O125 1.257 . S
C136 C139 1.358 . S
C136 C140 1.338 . S
C136 C142 1.504 . S
C137 C138 1.373 . S
C137 C141 1.308 1_554 S
C138 C137 1.373 . S
C138 C139 1.429 1_554 S
C138 H148 0.932 . S
C139 C136 1.358 . S
C139 C138 1.429 1_556 S
C139 H149 0.930 . S
C140 C136 1.338 . S
C140 C141 1.394 . S
C140 H150 0.926 1_545 S
C141 C137 1.308 1_556 S
C141 C140 1.394 . S
C141 H151 0.929 1_545 S
C142 Tb113 2.764 . S
C142 O126 1.239 1_545 S
C142 O127 1.263 . S
C142 C136 1.504 . S
C143 O128 1.236 1_565 S
C143 O129 1.257 . S
H144 C117 0.932 . S
H145 C118 0.930 . S
H146 C119 0.936 1_545 S
H147 C120 0.929 1_545 S
H148 C138 0.932 . S
H149 C139 0.930 . S
H150 C140 0.926 1_565 S
H151 C141 0.929 1_565 S
Tb152 C161 2.764 . S
Tb152 O162 2.325 . S
Tb152 O165 2.303 . S
Tb152 O169 2.322 . S
Tb152 O170 2.349 . S
Tb152 O173 2.415 . S
Tb152 O174 2.399 . S
Tb153 O163 2.322 . S
Tb153 O164 2.349 . S
Tb153 O166 2.415 . S
Tb153 O167 2.399 . S
Tb153 O168 2.325 . S
Tb153 O171 2.303 . S
Tb153 C182 2.764 . S
C154 O170 1.261 . S
C154 O171 1.257 . S
C155 C158 1.358 . S
C155 C159 1.332 . S
C155 C161 1.504 . S
C156 C157 1.373 . S
C156 C160 1.308 . S
C157 C156 1.373 . S
C157 C158 1.429 1_554 S
C157 H184 0.932 . S
C158 C155 1.358 . S
C158 C157 1.429 1_556 S
C158 H185 0.930 . S
C159 C155 1.332 . S
C159 C160 1.394 1_556 S
C159 H186 0.932 . S
C160 C156 1.308 . S
C160 C159 1.394 1_554 S
C160 H187 0.929 . S
C161 Tb152 2.764 . S
C161 C155 1.504 . S
C161 O173 1.239 . S
C161 O174 1.263 . S
O162 Tb152 2.325 . S
O162 C172 1.236 . S
O163 Tb153 2.322 . S
O163 C172 1.257 . S
O164 Tb153 2.349 . S
O164 C175 1.261 . S
O165 Tb152 2.303 . S
O165 C175 1.257 . S
O166 Tb153 2.415 . S
O166 C182 1.239 . S
O167 Tb153 2.399 . S
O167 C182 1.263 . S
O168 Tb153 2.325 . S
O168 C183 1.236 . S
O169 Tb152 2.322 . S
O169 C183 1.257 . S
O170 Tb152 2.349 . S
O170 C154 1.261 . S
O171 Tb153 2.303 . S
O171 C154 1.257 . S
C172 O162 1.236 . S
C172 O163 1.257 . S
O173 Tb152 2.415 . S
O173 C161 1.239 . S
O174 Tb152 2.399 . S
O174 C161 1.263 . S
C175 O164 1.261 . S
C175 O165 1.257 . S
C176 C179 1.358 . S
C176 C180 1.332 . S
C176 C182 1.504 . S
C177 C178 1.373 . S
C177 C181 1.308 . S
C178 C177 1.373 . S
C178 C179 1.429 . S
C178 H188 0.932 . S
C179 C176 1.358 . S
C179 C178 1.429 . S
C179 H189 0.930 . S
C180 C176 1.332 . S
C180 C181 1.394 . S
C180 H190 0.932 . S
C181 C177 1.308 . S
C181 C180 1.394 . S
C181 H191 0.929 . S
C182 Tb153 2.764 . S
C182 O166 1.239 . S
C182 O167 1.263 . S
C182 C176 1.504 . S
C183 O168 1.236 . S
C183 O169 1.257 . S
H184 C157 0.932 . S
H185 C158 0.930 . S
H186 C159 0.932 . S
H187 C160 0.929 . S
H188 C178 0.932 . S
H189 C179 0.930 . S
H190 C180 0.932 . S
H191 C181 0.929 . S
Tb192 C201 2.764 . S
Tb192 O202 2.325 . S
Tb192 O205 2.303 . S
Tb192 O209 2.322 1_455 S
Tb192 O210 2.349 . S
Tb192 O213 2.415 . S
Tb192 O214 2.399 . S
Tb193 O203 2.322 1_655 S
Tb193 O204 2.349 1_655 S
Tb193 O206 2.415 . S
Tb193 O207 2.399 . S
Tb193 O208 2.325 . S
Tb193 O211 2.303 1_655 S
Tb193 C222 2.764 . S
C194 O210 1.261 . S
C194 O211 1.257 . S
C195 C198 1.358 . S
C195 C199 1.332 . S
C195 C201 1.504 . S
C196 C197 1.373 . S
C196 C200 1.308 . S
C197 C196 1.373 . S
C197 C198 1.429 . S
C197 H224 0.932 . S
C198 C195 1.358 . S
C198 C197 1.429 . S
C198 H225 0.930 . S
C199 C195 1.332 . S
C199 C200 1.394 . S
C199 H226 0.932 . S
C200 C196 1.308 . S
C200 C199 1.394 . S
C200 H227 0.929 . S
C201 Tb192 2.764 . S
C201 C195 1.504 . S
C201 O213 1.239 . S
C201 O214 1.263 . S
O202 Tb192 2.325 . S
O202 C212 1.236 . S
O203 Tb193 2.322 1_455 S
O203 C212 1.257 . S
O204 Tb193 2.349 1_455 S
O204 C215 1.261 . S
O205 Tb192 2.303 . S
O205 C215 1.257 . S
O206 Tb193 2.415 . S
O206 C222 1.239 . S
O207 Tb193 2.399 . S
O207 C222 1.263 . S
O208 Tb193 2.325 . S
O208 C223 1.236 . S
O209 Tb192 2.322 1_655 S
O209 C223 1.257 . S
O210 Tb192 2.349 . S
O210 C194 1.261 . S
O211 Tb193 2.303 1_455 S
O211 C194 1.257 . S
C212 O202 1.236 . S
C212 O203 1.257 . S
O213 Tb192 2.415 . S
O213 C201 1.239 . S
O214 Tb192 2.399 . S
O214 C201 1.263 . S
C215 O204 1.261 . S
C215 O205 1.257 . S
C216 C219 1.358 . S
C216 C220 1.332 . S
C216 C222 1.504 . S
C217 C218 1.373 . S
C217 C221 1.308 . S
C218 C217 1.373 . S
C218 C219 1.429 . S
C218 H228 0.932 . S
C219 C216 1.358 . S
C219 C218 1.429 . S
C219 H229 0.930 . S
C220 C216 1.332 . S
C220 C221 1.394 . S
C220 H230 0.932 . S
C221 C217 1.308 . S
C221 C220 1.394 . S
C221 H231 0.929 . S
C222 Tb193 2.764 . S
C222 O206 1.239 . S
C222 O207 1.263 . S
C222 C216 1.504 . S
C223 O208 1.236 . S
C223 O209 1.257 . S
H224 C197 0.932 . S
H225 C198 0.930 . S
H226 C199 0.932 . S
H227 C200 0.929 . S
H228 C218 0.932 . S
H229 C219 0.930 . S
H230 C220 0.932 . S
H231 C221 0.929 . S
H232 C250 0.951 . S
H233 C252 0.951 . S
H234 C254 0.950 . S
H235 C255 0.950 . S
H236 C257 0.950 . S
H237 C260 0.950 . S
H238 C261 0.950 . S
H239 C263 0.950 . S
H240 C264 0.950 . S
H241 C265 0.951 . S
H242 C267 0.951 . S
H243 C269 0.950 . S
H244 C270 0.950 . S
H245 C272 0.950 . S
H246 C275 0.950 . S
H247 C276 0.950 . S
H248 C278 0.950 . S
H249 C279 0.950 . S
C250 H232 0.951 . S
C250 C251 1.366 1_565 S
C250 C252 1.388 . S
C251 C250 1.366 1_545 S
C251 C255 1.384 . S
C252 H233 0.951 . S
C252 C250 1.388 . S
C252 C253 1.366 1_565 S
C253 C252 1.366 1_545 S
C253 C254 1.414 . S
C253 C256 1.499 . S
C254 H234 0.950 . S
C254 C253 1.414 . S
C254 C255 1.374 . S
C255 H235 0.950 . S
C255 C251 1.384 . S
C255 C254 1.374 . S
C256 C253 1.499 . S
C256 C257 1.373 1_545 S
C256 C258 1.389 . S
C257 H236 0.950 . S
C257 C256 1.373 1_565 S
C257 C273 1.377 . S
C258 C256 1.389 . S
C258 C259 1.524 . S
C258 C272 1.377 . S
C259 C258 1.524 . S
C259 C260 1.397 . S
C259 C264 1.363 . S
C260 H237 0.950 . S
C260 C259 1.397 . S
C260 C261 1.334 . S
C261 H238 0.950 . S
C261 C260 1.334 . S
C261 C262 1.287 . S
C262 C261 1.287 . S
C262 C263 1.524 . S
C262 H281 0.913 . S
C263 H239 0.950 . S
C263 C262 1.524 . S
C263 C264 1.415 . S
C264 H240 0.950 . S
C264 C259 1.363 . S
C264 C263 1.415 . S
C265 H241 0.951 . S
C265 C266 1.370 . S
C265 C267 1.388 . S
C266 C265 1.370 . S
C266 C270 1.382 1_545 S
C267 H242 0.951 . S
C267 C265 1.388 . S
C267 C268 1.356 1_545 S
C268 C267 1.356 1_565 S
C268 C269 1.429 . S
C268 C271 1.494 . S
C269 H243 0.950 . S
C269 C268 1.429 . S
C269 C270 1.374 . S
C270 H244 0.950 . S
C270 C266 1.382 1_565 S
C270 C269 1.374 . S
C271 C268 1.494 . S
C271 C272 1.373 1_565 S
C271 C273 1.389 . S
C272 H245 0.950 . S
C272 C258 1.377 . S
C272 C271 1.373 1_545 S
C273 C257 1.377 . S
C273 C271 1.389 . S
C273 C274 1.524 . S
C274 C273 1.524 . S
C274 C275 1.397 . S
C274 C279 1.363 . S
C275 H246 0.950 . S
C275 C274 1.397 . S
C275 C276 1.334 . S
C276 H247 0.950 . S
C276 C275 1.334 . S
C276 C277 1.287 . S
C277 C276 1.287 . S
C277 C278 1.524 . S
C277 H280 0.999 . S
C278 H248 0.950 . S
C278 C277 1.524 . S
C278 C279 1.415 . S
C279 H249 0.950 . S
C279 C274 1.363 . S
C279 C278 1.415 . S
H280 C277 0.999 . S
H281 C262 0.913 . S
H282 C300 0.951 . S
H283 C302 0.951 . S
H284 C304 0.950 . S
H285 C305 0.950 . S
H286 C307 0.950 . S
H287 C310 0.950 . S
H288 C311 0.950 . S
H289 C313 0.950 . S
H290 C314 0.950 . S
H291 C315 0.951 . S
H292 C317 0.951 . S
H293 C319 0.950 . S
H294 C320 0.950 . S
H295 C322 0.950 . S
H296 C325 0.950 . S
H297 C326 0.950 . S
H298 C328 0.950 . S
H299 C329 0.950 . S
C300 H282 0.951 . S
C300 C301 1.366 . S
C300 C302 1.388 . S
C301 C300 1.366 . S
C301 C305 1.385 . S
C302 H283 0.951 . S
C302 C300 1.388 . S
C302 C303 1.366 . S
C303 C302 1.366 . S
C303 C304 1.414 . S
C303 C306 1.499 . S
C304 H284 0.950 . S
C304 C303 1.414 . S
C304 C305 1.374 . S
C305 H285 0.950 . S
C305 C301 1.385 . S
C305 C304 1.374 . S
C306 C303 1.499 . S
C306 C307 1.373 . S
C306 C308 1.389 . S
C307 H286 0.950 . S
C307 C306 1.373 . S
C307 C323 1.377 . S
C308 C306 1.389 . S
C308 C309 1.524 . S
C308 C322 1.377 . S
C309 C308 1.524 . S
C309 C310 1.397 . S
C309 C314 1.363 . S
C310 H287 0.950 . S
C310 C309 1.397 . S
C310 C311 1.334 . S
C311 H288 0.950 . S
C311 C310 1.334 . S
C311 C312 1.287 . S
C312 C311 1.287 . S
C312 C313 1.524 . S
C312 H331 0.913 . S
C313 H289 0.950 . S
C313 C312 1.524 . S
C313 C314 1.415 . S
C314 H290 0.950 . S
C314 C309 1.363 . S
C314 C313 1.415 . S
C315 H291 0.951 . S
C315 C316 1.366 . S
C315 C317 1.388 . S
C316 C315 1.366 . S
C316 C320 1.385 . S
C317 H292 0.951 . S
C317 C315 1.388 . S
C317 C318 1.366 . S
C318 C317 1.366 . S
C318 C319 1.414 . S
C318 C321 1.499 . S
C319 H293 0.950 . S
C319 C318 1.414 . S
C319 C320 1.374 . S
C320 H294 0.950 . S
C320 C316 1.385 . S
C320 C319 1.374 . S
C321 C318 1.499 . S
C321 C322 1.373 . S
C321 C323 1.389 . S
C322 H295 0.950 . S
C322 C308 1.377 . S
C322 C321 1.373 . S
C323 C307 1.377 . S
C323 C321 1.389 . S
C323 C324 1.524 . S
C324 C323 1.524 . S
C324 C325 1.397 . S
C324 C329 1.363 . S
C325 H296 0.950 . S
C325 C324 1.397 . S
C325 C326 1.334 . S
C326 H297 0.950 . S
C326 C325 1.334 . S
C326 C327 1.287 . S
C327 C326 1.287 . S
C327 C328 1.524 . S
C327 H330 0.999 . S
C328 H298 0.950 . S
C328 C327 1.524 . S
C328 C329 1.415 . S
C329 H299 0.950 . S
C329 C324 1.363 . S
C329 C328 1.415 . S
H330 C327 0.999 . S
H331 C312 0.913 . S
H332 C350 0.951 . S
H333 C352 0.951 . S
H334 C354 0.950 . S
H335 C355 0.950 . S
H336 C357 0.950 . S
H337 C360 0.950 . S
H338 C361 0.950 . S
H339 C363 0.950 . S
H340 C364 0.950 . S
H341 C365 0.951 . S
H342 C367 0.951 . S
H343 C369 0.950 . S
H344 C370 0.950 . S
H345 C372 0.950 . S
H346 C375 0.950 . S
H347 C376 0.950 . S
H348 C378 0.950 . S
H349 C379 0.950 . S
C350 H332 0.951 . S
C350 C351 1.366 . S
C350 C352 1.388 . S
C351 C350 1.366 . S
C351 C355 1.385 . S
C352 H333 0.951 . S
C352 C350 1.388 . S
C352 C353 1.366 . S
C353 C352 1.366 . S
C353 C354 1.414 . S
C353 C356 1.499 . S
C354 H334 0.950 . S
C354 C353 1.414 . S
C354 C355 1.374 . S
C355 H335 0.950 . S
C355 C351 1.385 . S
C355 C354 1.374 . S
C356 C353 1.499 . S
C356 C357 1.373 . S
C356 C358 1.389 . S
C357 H336 0.950 . S
C357 C356 1.373 . S
C357 C373 1.377 . S
C358 C356 1.389 . S
C358 C359 1.524 . S
C358 C372 1.377 . S
C359 C358 1.524 . S
C359 C360 1.397 . S
C359 C364 1.363 . S
C360 H337 0.950 . S
C360 C359 1.397 . S
C360 C361 1.334 . S
C361 H338 0.950 . S
C361 C360 1.334 . S
C361 C362 1.287 . S
C362 C361 1.287 . S
C362 C363 1.524 . S
C362 H381 0.913 . S
C363 H339 0.950 . S
C363 C362 1.524 . S
C363 C364 1.415 . S
C364 H340 0.950 . S
C364 C359 1.363 . S
C364 C363 1.415 . S
C365 H341 0.951 . S
C365 C366 1.366 . S
C365 C367 1.388 . S
C366 C365 1.366 . S
C366 C370 1.385 . S
C367 H342 0.951 . S
C367 C365 1.388 . S
C367 C368 1.366 . S
C368 C367 1.366 . S
C368 C369 1.414 . S
C368 C371 1.499 . S
C369 H343 0.950 . S
C369 C368 1.414 . S
C369 C370 1.374 . S
C370 H344 0.950 . S
C370 C366 1.385 . S
C370 C369 1.374 . S
C371 C368 1.499 . S
C371 C372 1.373 . S
C371 C373 1.389 . S
C372 H345 0.950 . S
C372 C358 1.377 . S
C372 C371 1.373 . S
C373 C357 1.377 . S
C373 C371 1.389 . S
C373 C374 1.524 . S
C374 C373 1.524 . S
C374 C375 1.397 . S
C374 C379 1.363 . S
C375 H346 0.950 . S
C375 C374 1.397 . S
C375 C376 1.334 . S
C376 H347 0.950 . S
C376 C375 1.334 . S
C376 C377 1.287 . S
C377 C376 1.287 . S
C377 C378 1.524 . S
C377 H380 0.999 . S
C378 H348 0.950 . S
C378 C377 1.524 . S
C378 C379 1.415 . S
C379 H349 0.950 . S
C379 C374 1.363 . S
C379 C378 1.415 . S
H380 C377 0.999 . S
H381 C362 0.913 . S
H382 C400 0.951 . S
H383 C402 0.951 . S
H384 C404 0.950 . S
H385 C405 0.950 . S
H386 C407 0.950 . S
H387 C410 0.950 . S
H388 C411 0.950 . S
H389 C413 0.950 . S
H390 C414 0.950 . S
H391 C415 0.951 . S
H392 C417 0.951 . S
H393 C419 0.950 . S
H394 C420 0.934 1_655 S
H395 C422 0.950 . S
H396 C425 0.950 . S
H397 C426 0.950 . S
H398 C428 0.950 . S
H399 C429 0.950 . S
C400 H382 0.951 . S
C400 C401 1.366 . S
C400 C402 1.388 . S
C401 C400 1.366 . S
C401 C405 1.385 . S
C402 H383 0.951 . S
C402 C400 1.388 . S
C402 C403 1.366 . S
C403 C402 1.366 . S
C403 C404 1.414 . S
C403 C406 1.499 . S
C404 H384 0.950 . S
C404 C403 1.414 . S
C404 C405 1.374 . S
C405 H385 0.950 . S
C405 C401 1.385 . S
C405 C404 1.374 . S
C406 C403 1.499 . S
C406 C407 1.373 . S
C406 C408 1.389 . S
C407 H386 0.950 . S
C407 C406 1.373 . S
C407 C423 1.377 . S
C408 C406 1.389 . S
C408 C409 1.524 . S
C408 C422 1.377 . S
C409 C408 1.524 . S
C409 C410 1.397 . S
C409 C414 1.363 . S
C410 H387 0.950 . S
C410 C409 1.397 . S
C410 C411 1.334 . S
C411 H388 0.950 . S
C411 C410 1.334 . S
C411 C412 1.287 . S
C412 C411 1.287 . S
C412 C413 1.524 . S
C412 H431 0.913 . S
C413 H389 0.950 . S
C413 C412 1.524 . S
C413 C414 1.415 . S
C414 H390 0.950 . S
C414 C409 1.363 . S
C414 C413 1.415 . S
C415 H391 0.951 . S
C415 C416 1.366 . S
C415 C417 1.388 . S
C416 C415 1.366 . S
C416 C420 1.385 . S
C417 H392 0.951 . S
C417 C415 1.388 . S
C417 C418 1.366 . S
C418 C417 1.366 . S
C418 C419 1.414 . S
C418 C421 1.499 . S
C419 H393 0.950 . S
C419 C418 1.414 . S
C419 C420 1.374 . S
C420 H394 0.934 1_455 S
C420 C416 1.385 . S
C420 C419 1.374 . S
C421 C418 1.499 . S
C421 C422 1.373 . S
C421 C423 1.389 . S
C422 H395 0.950 . S
C422 C408 1.377 . S
C422 C421 1.373 . S
C423 C407 1.377 . S
C423 C421 1.389 . S
C423 C424 1.524 . S
C424 C423 1.524 . S
C424 C425 1.397 1_455 S
C424 C429 1.363 . S
C425 H396 0.950 . S
C425 C424 1.397 1_655 S
C425 C426 1.334 . S
C426 H397 0.950 . S
C426 C425 1.334 . S
C426 C427 1.287 . S
C427 C426 1.287 . S
C427 C428 1.524 1_655 S
C427 H430 0.999 . S
C428 H398 0.950 . S
C428 C427 1.524 1_455 S
C428 C429 1.415 . S
C429 H399 0.950 . S
C429 C424 1.363 . S
C429 C428 1.415 . S
H430 C427 0.999 . S
H431 C412 0.913 . S
H432 C450 0.951 . S
H433 C452 0.951 . S
H434 C454 0.949 . S
H435 C455 0.950 . S
H436 C457 0.950 . S
H437 C460 0.950 . S
H438 C461 0.950 . S
H439 C463 0.950 . S
H440 C464 0.950 . S
H441 C465 0.951 . S
H442 C467 0.951 . S
H443 C469 0.965 . S
H444 C470 0.950 . S
H445 C472 0.950 . S
H446 C475 0.950 1_554 S
H447 C476 0.950 . S
H448 C478 0.950 . S
H449 C479 0.950 . S
C450 H432 0.951 . S
C450 C451 1.366 . S
C450 C452 1.388 . S
C451 C450 1.366 . S
C451 C455 1.384 1_545 S
C452 H433 0.951 . S
C452 C450 1.388 . S
C452 C453 1.366 . S
C453 C452 1.366 . S
C453 C454 1.411 1_545 S
C453 C456 1.499 . S
C454 H434 0.949 . S
C454 C453 1.411 1_565 S
C454 C455 1.382 . S
C455 H435 0.950 . S
C455 C451 1.384 1_565 S
C455 C454 1.382 . S
C456 C453 1.499 . S
C456 C457 1.373 1_545 S
C456 C458 1.389 . S
C457 H436 0.950 . S
C457 C456 1.373 1_565 S
C457 C473 1.377 . S
C458 C456 1.389 . S
C458 C459 1.524 . S
C458 C472 1.377 . S
C459 C458 1.524 . S
C459 C460 1.397 . S
C459 C464 1.363 . S
C460 H437 0.950 . S
C460 C459 1.397 . S
C460 C461 1.334 . S
C461 H438 0.950 . S
C461 C460 1.334 . S
C461 C462 1.287 . S
C462 C461 1.287 . S
C462 C463 1.524 . S
C462 H481 0.913 . S
C463 H439 0.950 . S
C463 C462 1.524 . S
C463 C464 1.415 . S
C464 H440 0.950 . S
C464 C459 1.363 . S
C464 C463 1.415 . S
C465 H441 0.951 . S
C465 C466 1.366 . S
C465 C467 1.388 . S
C466 C465 1.366 . S
C466 C470 1.384 1_565 S
C467 H442 0.951 . S
C467 C465 1.388 . S
C467 C468 1.366 . S
C468 C467 1.366 . S
C468 C469 1.409 1_566 S
C468 C471 1.499 1_556 S
C469 H443 0.965 . S
C469 C468 1.409 1_544 S
C469 C470 1.368 1_554 S
C470 H444 0.950 . S
C470 C466 1.384 1_545 S
C470 C469 1.368 1_556 S
C471 C468 1.499 1_554 S
C471 C472 1.373 1_565 S
C471 C473 1.389 . S
C472 H445 0.950 . S
C472 C458 1.377 . S
C472 C471 1.373 1_545 S
C473 C457 1.377 . S
C473 C471 1.389 . S
C473 C474 1.524 1_554 S
C474 C473 1.524 1_556 S
C474 C475 1.397 . S
C474 C479 1.363 . S
C475 H446 0.950 1_556 S
C475 C474 1.397 . S
C475 C476 1.334 . S
C476 H447 0.950 . S
C476 C475 1.334 . S
C476 C477 1.287 . S
C477 C476 1.287 . S
C477 C478 1.524 . S
C477 H480 0.999 . S
C478 H448 0.950 . S
C478 C477 1.524 . S
C478 C479 1.415 . S
C479 H449 0.950 . S
C479 C474 1.363 . S
C479 C478 1.415 . S
H480 C477 0.999 . S
H481 C462 0.913 . S
H482 C500 0.951 . S
H483 C502 0.951 . S
H484 C504 0.950 . S
H485 C505 0.950 . S
H486 C507 0.950 . S
H487 C510 0.950 . S
H488 C511 0.950 . S
H489 C513 0.950 . S
H490 C514 0.950 . S
H491 C515 0.951 . S
H492 C517 0.951 . S
H493 C519 0.950 . S
H494 C520 0.950 . S
H495 C522 0.950 . S
H496 C525 0.950 . S
H497 C526 0.950 . S
H498 C528 0.950 . S
H499 C529 0.950 . S
C500 H482 0.951 . S
C500 C501 1.366 . S
C500 C502 1.388 . S
C501 C500 1.366 . S
C501 C505 1.385 . S
C502 H483 0.951 . S
C502 C500 1.388 . S
C502 C503 1.366 . S
C503 C502 1.366 . S
C503 C504 1.414 . S
C503 C506 1.499 . S
C504 H484 0.950 . S
C504 C503 1.414 . S
C504 C505 1.374 . S
C505 H485 0.950 . S
C505 C501 1.385 . S
C505 C504 1.374 . S
C506 C503 1.499 . S
C506 C507 1.373 . S
C506 C508 1.389 . S
C507 H486 0.950 . S
C507 C506 1.373 . S
C507 C523 1.377 . S
C508 C506 1.389 . S
C508 C509 1.524 1_556 S
C508 C522 1.377 . S
C509 C508 1.524 1_554 S
C509 C510 1.397 . S
C509 C514 1.363 . S
C510 H487 0.950 . S
C510 C509 1.397 . S
C510 C511 1.334 . S
C511 H488 0.950 . S
C511 C510 1.334 . S
C511 C512 1.287 . S
C512 C511 1.287 . S
C512 C513 1.524 . S
C512 H531 0.913 . S
C513 H489 0.950 . S
C513 C512 1.524 . S
C513 C514 1.415 . S
C514 H490 0.950 . S
C514 C509 1.363 . S
C514 C513 1.415 . S
C515 H491 0.951 . S
C515 C516 1.366 . S
C515 C517 1.388 . S
C516 C515 1.366 . S
C516 C520 1.385 . S
C517 H492 0.951 . S
C517 C515 1.388 . S
C517 C518 1.366 . S
C518 C517 1.366 . S
C518 C519 1.414 . S
C518 C521 1.499 . S
C519 H493 0.950 . S
C519 C518 1.414 . S
C519 C520 1.374 . S
C520 H494 0.950 . S
C520 C516 1.385 . S
C520 C519 1.374 . S
C521 C518 1.499 . S
C521 C522 1.373 . S
C521 C523 1.389 . S
C522 H495 0.950 . S
C522 C508 1.377 . S
C522 C521 1.373 . S
C523 C507 1.377 . S
C523 C521 1.389 . S
C523 C524 1.524 . S
C524 C523 1.524 . S
C524 C525 1.397 . S
C524 C529 1.363 . S
C525 H496 0.950 . S
C525 C524 1.397 . S
C525 C526 1.334 . S
C526 H497 0.950 . S
C526 C525 1.334 . S
C526 C527 1.287 . S
C527 C526 1.287 . S
C527 C528 1.524 . S
C527 H530 0.999 . S
C528 H498 0.950 . S
C528 C527 1.524 . S
C528 C529 1.415 . S
C529 H499 0.950 . S
C529 C524 1.363 . S
C529 C528 1.415 . S
H530 C527 0.999 . S
H531 C512 0.913 . S
H532 C550 0.951 . S
H533 C552 0.951 . S
H534 C554 0.950 . S
H535 C555 0.950 . S
H536 C557 0.950 . S
H537 C560 0.950 . S
H538 C561 0.950 . S
H539 C563 0.950 . S
H540 C564 0.950 . S
H541 C565 0.951 . S
H542 C567 0.951 . S
H543 C569 0.950 . S
H544 C570 0.950 . S
H545 C572 0.950 . S
H546 C575 0.950 . S
H547 C576 0.950 . S
H548 C578 0.950 . S
H549 C579 0.950 1_554 S
C550 H532 0.951 . S
C550 C551 1.366 . S
C550 C552 1.388 . S
C551 C550 1.366 . S
C551 C555 1.385 . S
C552 H533 0.951 . S
C552 C550 1.388 . S
C552 C553 1.366 . S
C553 C552 1.366 . S
C553 C554 1.414 . S
C553 C556 1.499 . S
C554 H534 0.950 . S
C554 C553 1.414 . S
C554 C555 1.374 . S
C555 H535 0.950 . S
C555 C551 1.385 . S
C555 C554 1.374 . S
C556 C553 1.499 . S
C556 C557 1.373 . S
C556 C558 1.389 . S
C557 H536 0.950 . S
C557 C556 1.373 . S
C557 C573 1.377 . S
C558 C556 1.389 . S
C558 C559 1.524 . S
C558 C572 1.377 . S
C559 C558 1.524 . S
C559 C560 1.397 . S
C559 C564 1.363 . S
C560 H537 0.950 . S
C560 C559 1.397 . S
C560 C561 1.334 . S
C561 H538 0.950 . S
C561 C560 1.334 . S
C561 C562 1.287 . S
C562 C561 1.287 . S
C562 C563 1.524 . S
C562 H581 0.913 . S
C563 H539 0.950 . S
C563 C562 1.524 . S
C563 C564 1.415 . S
C564 H540 0.950 . S
C564 C559 1.363 . S
C564 C563 1.415 . S
C565 H541 0.951 . S
C565 C566 1.366 . S
C565 C567 1.388 . S
C566 C565 1.366 . S
C566 C570 1.385 . S
C567 H542 0.951 . S
C567 C565 1.388 . S
C567 C568 1.366 . S
C568 C567 1.366 . S
C568 C569 1.414 1_556 S
C568 C571 1.499 1_556 S
C569 H543 0.950 . S
C569 C568 1.414 1_554 S
C569 C570 1.374 1_554 S
C570 H544 0.950 . S
C570 C566 1.385 . S
C570 C569 1.374 1_556 S
C571 C568 1.499 1_554 S
C571 C572 1.373 . S
C571 C573 1.389 . S
C572 H545 0.950 . S
C572 C558 1.377 . S
C572 C571 1.373 . S
C573 C557 1.377 . S
C573 C571 1.389 . S
C573 C574 1.524 . S
C574 C573 1.524 . S
C574 C575 1.397 . S
C574 C579 1.363 1_554 S
C575 H546 0.950 . S
C575 C574 1.397 . S
C575 C576 1.334 1_554 S
C576 H547 0.950 . S
C576 C575 1.334 1_556 S
C576 C577 1.287 . S
C577 C576 1.287 . S
C577 C578 1.524 . S
C577 H580 0.999 . S
C578 H548 0.950 . S
C578 C577 1.524 . S
C578 C579 1.415 . S
C579 H549 0.950 1_556 S
C579 C574 1.363 1_556 S
C579 C578 1.415 . S
H580 C577 0.999 . S
H581 C562 0.913 . S
H582 C600 0.951 . S
H583 C602 0.951 . S
H584 C604 0.950 1_455 S
H585 C605 0.950 1_455 S
H586 C607 0.950 . S
H587 C610 0.950 . S
H588 C611 0.950 . S
H589 C613 0.950 1_655 S
H590 C614 0.950 . S
H591 C615 0.951 . S
H592 C617 0.951 . S
H593 C619 0.950 1_554 S
H594 C620 0.950 . S
H595 C622 0.941 1_455 S
H596 C625 0.950 . S
H597 C626 0.950 . S
H598 C628 0.950 . S
H599 C629 0.915 1_455 S
C600 H582 0.951 . S
C600 C601 1.366 . S
C600 C602 1.388 . S
C601 C600 1.366 . S
C601 C605 1.385 . S
C602 H583 0.951 . S
C602 C600 1.388 . S
C602 C603 1.366 . S
C603 C602 1.366 . S
C603 C604 1.414 . S
C603 C606 1.499 . S
C604 H584 0.950 1_655 S
C604 C603 1.414 . S
C604 C605 1.374 . S
C605 H585 0.950 1_655 S
C605 C601 1.385 . S
C605 C604 1.374 . S
C606 C603 1.499 . S
C606 C607 1.373 . S
C606 C608 1.389 . S
C607 H586 0.950 . S
C607 C606 1.373 . S
C607 C623 1.377 . S
C608 C606 1.389 . S
C608 C609 1.524 1_655 S
C608 C622 1.379 . S
C609 C608 1.524 1_455 S
C609 C610 1.397 . S
C609 C614 1.363 1_455 S
C610 H587 0.950 . S
C610 C609 1.397 . S
C610 C611 1.334 . S
C611 H588 0.950 . S
C611 C610 1.334 . S
C611 C612 1.287 . S
C612 C611 1.287 . S
C612 C613 1.524 . S
C612 H631 0.913 . S
C613 H589 0.950 1_455 S
C613 C612 1.524 . S
C613 C614 1.415 1_455 S
C614 H590 0.950 . S
C614 C609 1.363 1_655 S
C614 C613 1.415 1_655 S
C615 H591 0.951 . S
C615 C616 1.366 . S
C615 C617 1.388 . S
C616 C615 1.366 . S
C616 C620 1.385 1_455 S
C617 H592 0.951 . S
C617 C615 1.388 . S
C617 C618 1.366 1_455 S
C618 C617 1.366 1_655 S
C618 C619 1.414 . S
C618 C621 1.499 1_556 S
C619 H593 0.950 1_556 S
C619 C618 1.414 . S
C619 C620 1.374 . S
C620 H594 0.950 . S
C620 C616 1.385 1_655 S
C620 C619 1.374 . S
C621 C618 1.499 1_554 S
C621 C622 1.382 . S
C621 C623 1.389 . S
C622 H595 0.941 1_655 S
C622 C608 1.379 . S
C622 C621 1.382 . S
C623 C607 1.377 . S
C623 C621 1.389 . S
C623 C624 1.524 1_554 S
C624 C623 1.524 1_556 S
C624 C625 1.397 . S
C624 C629 1.363 . S
C625 H596 0.950 . S
C625 C624 1.397 . S
C625 C626 1.334 . S
C626 H597 0.950 . S
C626 C625 1.334 . S
C626 C627 1.287 . S
C627 C626 1.287 . S
C627 C628 1.524 . S
C627 H630 0.999 . S
C628 H598 0.950 . S
C628 C627 1.524 . S
C628 C629 1.415 . S
C629 H599 0.915 1_655 S
C629 C624 1.363 . S
C629 C628 1.415 . S
H630 C627 0.999 . S
H631 C612 0.913 . S
H632 C650 0.951 . S
H633 C652 0.951 . S
H634 C654 0.950 . S
H635 C655 0.950 . S
H636 C657 0.950 . S
H637 C660 0.950 1_455 S
H638 C661 0.950 . S
H639 C663 0.950 . S
H640 C664 0.950 . S
H641 C665 0.951 . S
H642 C667 0.951 . S
H643 C669 0.950 . S
H644 C670 0.950 . S
H645 C672 0.950 . S
H646 C675 0.950 . S
H647 C676 0.950 . S
H648 C678 0.950 . S
H649 C679 0.950 . S
C650 H632 0.951 . S
C650 C651 1.366 . S
C650 C652 1.388 . S
C651 C650 1.366 . S
C651 C655 1.385 . S
C652 H633 0.951 . S
C652 C650 1.388 . S
C652 C653 1.366 . S
C653 C652 1.366 . S
C653 C654 1.414 . S
C653 C656 1.499 . S
C654 H634 0.950 . S
C654 C653 1.414 . S
C654 C655 1.374 . S
C655 H635 0.950 . S
C655 C651 1.385 . S
C655 C654 1.374 . S
C656 C653 1.499 . S
C656 C657 1.373 . S
C656 C658 1.398 . S
C657 H636 0.950 . S
C657 C656 1.373 . S
C657 C673 1.377 . S
C658 C656 1.398 . S
C658 C659 1.518 1_455 S
C658 C672 1.374 1_455 S
C659 C658 1.518 1_655 S
C659 C660 1.397 . S
C659 C664 1.363 . S
C660 H637 0.950 1_655 S
C660 C659 1.397 . S
C660 C661 1.334 . S
C661 H638 0.950 . S
C661 C660 1.334 . S
C661 C662 1.287 . S
C662 C661 1.287 . S
C662 C663 1.524 . S
C662 H681 0.913 . S
C663 H639 0.950 . S
C663 C662 1.524 . S
C663 C664 1.415 . S
C664 H640 0.950 . S
C664 C659 1.363 . S
C664 C663 1.415 . S
C665 H641 0.951 . S
C665 C666 1.366 1_455 S
C665 C667 1.388 . S
C666 C665 1.366 1_655 S
C666 C670 1.385 . S
C667 H642 0.951 . S
C667 C665 1.388 . S
C667 C668 1.370 . S
C668 C667 1.370 . S
C668 C669 1.406 1_455 S
C668 C671 1.501 . S
C669 H643 0.950 . S
C669 C668 1.406 1_655 S
C669 C670 1.374 . S
C670 H644 0.950 . S
C670 C666 1.385 . S
C670 C669 1.374 . S
C671 C668 1.501 . S
C671 C672 1.373 1_455 S
C671 C673 1.389 . S
C672 H645 0.950 . S
C672 C658 1.374 1_655 S
C672 C671 1.373 1_655 S
C673 C657 1.377 . S
C673 C671 1.389 . S
C673 C674 1.524 . S
C674 C673 1.524 . S
C674 C675 1.397 . S
C674 C679 1.363 . S
C675 H646 0.950 . S
C675 C674 1.397 . S
C675 C676 1.334 . S
C676 H647 0.950 . S
C676 C675 1.334 . S
C676 C677 1.287 . S
C677 C676 1.287 . S
C677 C678 1.524 . S
C677 H680 0.999 . S
C678 H648 0.950 . S
C678 C677 1.524 . S
C678 C679 1.415 . S
C679 H649 0.950 . S
C679 C674 1.363 . S
C679 C678 1.415 . S
H680 C677 0.999 . S
H681 C662 0.913 . S
H682 C700 0.951 . S
H683 C702 0.951 . S
H684 C704 0.950 . S
H685 C705 0.950 . S
H686 C707 0.950 . S
H687 C710 0.950 . S
H688 C711 0.950 . S
H689 C713 0.950 . S
H690 C714 0.950 . S
H691 C715 0.951 . S
H692 C717 0.951 . S
H693 C719 0.950 . S
H694 C720 0.950 . S
H695 C722 0.950 . S
H696 C725 0.950 . S
H697 C726 0.950 . S
H698 C728 0.950 . S
H699 C729 0.950 . S
C700 H682 0.951 . S
C700 C701 1.366 1_565 S
C700 C702 1.388 . S
C701 C700 1.366 1_545 S
C701 C705 1.385 . S
C702 H683 0.951 . S
C702 C700 1.388 . S
C702 C703 1.366 . S
C703 C702 1.366 . S
C703 C704 1.414 1_565 S
C703 C706 1.499 . S
C704 H684 0.950 . S
C704 C703 1.414 1_545 S
C704 C705 1.374 . S
C705 H685 0.950 . S
C705 C701 1.385 . S
C705 C704 1.374 . S
C706 C703 1.499 . S
C706 C707 1.373 . S
C706 C708 1.389 . S
C707 H686 0.950 . S
C707 C706 1.373 . S
C707 C723 1.377 . S
C708 C706 1.389 . S
C708 C709 1.524 1_565 S
C708 C722 1.377 . S
C709 C708 1.524 1_545 S
C709 C710 1.397 . S
C709 C714 1.363 1_545 S
C710 H687 0.950 . S
C710 C709 1.397 . S
C710 C711 1.334 . S
C711 H688 0.950 . S
C711 C710 1.334 . S
C711 C712 1.287 . S
C712 C711 1.287 . S
C712 C713 1.524 . S
C712 H731 0.913 . S
C713 H689 0.950 . S
C713 C712 1.524 . S
C713 C714 1.415 1_545 S
C714 H690 0.950 . S
C714 C709 1.363 1_565 S
C714 C713 1.415 1_565 S
C715 H691 0.951 . S
C715 C716 1.366 . S
C715 C717 1.388 . S
C716 C715 1.366 . S
C716 C720 1.385 . S
C717 H692 0.951 . S
C717 C715 1.388 . S
C717 C718 1.366 . S
C718 C717 1.366 . S
C718 C719 1.414 . S
C718 C721 1.499 . S
C719 H693 0.950 . S
C719 C718 1.414 . S
C719 C720 1.374 . S
C720 H694 0.950 . S
C720 C716 1.385 . S
C720 C719 1.374 . S
C721 C718 1.499 . S
C721 C722 1.373 . S
C721 C723 1.389 . S
C722 H695 0.950 . S
C722 C708 1.377 . S
C722 C721 1.373 . S
C723 C707 1.377 . S
C723 C721 1.389 . S
C723 C724 1.524 . S
C724 C723 1.524 . S
C724 C725 1.397 . S
C724 C729 1.363 . S
C725 H696 0.950 . S
C725 C724 1.397 . S
C725 C726 1.334 . S
C726 H697 0.950 . S
C726 C725 1.334 . S
C726 C727 1.287 . S
C727 C726 1.287 . S
C727 C728 1.524 . S
C727 H730 0.999 . S
C728 H698 0.950 . S
C728 C727 1.524 . S
C728 C729 1.415 . S
C729 H699 0.950 . S
C729 C724 1.363 . S
C729 C728 1.415 . S
H730 C727 0.999 . S
H731 C712 0.913 . S
H732 C750 0.951 . S
H733 C752 0.951 . S
H734 C754 0.950 . S
H735 C755 0.950 . S
H736 C757 0.950 . S
H737 C760 0.950 . S
H738 C761 0.950 . S
H739 C763 0.950 . S
H740 C764 0.950 . S
H741 C765 0.951 . S
H742 C767 0.951 . S
H743 C769 0.950 . S
H744 C770 0.950 . S
H745 C772 0.950 . S
H746 C775 0.950 . S
H747 C776 0.950 . S
H748 C778 0.950 . S
H749 C779 0.950 . S
C750 H732 0.951 . S
C750 C751 1.366 . S
C750 C752 1.388 . S
C751 C750 1.366 . S
C751 C755 1.385 . S
C752 H733 0.951 . S
C752 C750 1.388 . S
C752 C753 1.366 . S
C753 C752 1.366 . S
C753 C754 1.414 . S
C753 C756 1.499 . S
C754 H734 0.950 . S
C754 C753 1.414 . S
C754 C755 1.374 . S
C755 H735 0.950 . S
C755 C751 1.385 . S
C755 C754 1.374 . S
C756 C753 1.499 . S
C756 C757 1.373 . S
C756 C758 1.389 . S
C757 H736 0.950 . S
C757 C756 1.373 . S
C757 C773 1.377 . S
C758 C756 1.389 . S
C758 C759 1.524 . S
C758 C772 1.377 . S
C759 C758 1.524 . S
C759 C760 1.397 . S
C759 C764 1.363 . S
C760 H737 0.950 . S
C760 C759 1.397 . S
C760 C761 1.334 . S
C761 H738 0.950 . S
C761 C760 1.334 . S
C761 C762 1.287 . S
C762 C761 1.287 . S
C762 C763 1.524 . S
C762 H781 0.913 . S
C763 H739 0.950 . S
C763 C762 1.524 . S
C763 C764 1.415 . S
C764 H740 0.950 . S
C764 C759 1.363 . S
C764 C763 1.415 . S
C765 H741 0.951 . S
C765 C766 1.366 . S
C765 C767 1.388 . S
C766 C765 1.366 . S
C766 C770 1.385 . S
C767 H742 0.951 . S
C767 C765 1.388 . S
C767 C768 1.366 . S
C768 C767 1.366 . S
C768 C769 1.414 . S
C768 C771 1.499 . S
C769 H743 0.950 . S
C769 C768 1.414 . S
C769 C770 1.374 . S
C770 H744 0.950 . S
C770 C766 1.385 . S
C770 C769 1.374 . S
C771 C768 1.499 . S
C771 C772 1.373 . S
C771 C773 1.389 . S
C772 H745 0.950 . S
C772 C758 1.377 . S
C772 C771 1.373 . S
C773 C757 1.377 . S
C773 C771 1.389 . S
C773 C774 1.524 . S
C774 C773 1.524 . S
C774 C775 1.397 . S
C774 C779 1.363 . S
C775 H746 0.950 . S
C775 C774 1.397 . S
C775 C776 1.334 . S
C776 H747 0.950 . S
C776 C775 1.334 . S
C776 C777 1.287 . S
C777 C776 1.287 . S
C777 C778 1.524 . S
C777 H780 0.999 . S
C778 H748 0.950 . S
C778 C777 1.524 . S
C778 C779 1.415 . S
C779 H749 0.950 . S
C779 C774 1.363 . S
C779 C778 1.415 . S
H780 C777 0.999 . S
H781 C762 0.913 . S
H782 C800 0.951 . S
H783 C802 0.951 . S
H784 C804 0.950 . S
H785 C805 0.950 . S
H786 C807 0.950 . S
H787 C810 0.950 . S
H788 C811 0.950 . S
H789 C813 0.950 . S
H790 C814 0.950 . S
H791 C815 0.951 . S
H792 C817 0.951 . S
H793 C819 0.950 . S
H794 C820 0.950 . S
H795 C822 0.950 . S
H796 C825 0.950 . S
H797 C826 0.950 . S
H798 C828 0.950 . S
H799 C829 0.950 . S
C800 H782 0.951 . S
C800 C801 1.366 . S
C800 C802 1.388 . S
C801 C800 1.366 . S
C801 C805 1.385 . S
C802 H783 0.951 . S
C802 C800 1.388 . S
C802 C803 1.366 . S
C803 C802 1.366 . S
C803 C804 1.414 . S
C803 C806 1.499 . S
C804 H784 0.950 . S
C804 C803 1.414 . S
C804 C805 1.374 . S
C805 H785 0.950 . S
C805 C801 1.385 . S
C805 C804 1.374 . S
C806 C803 1.499 . S
C806 C807 1.373 . S
C806 C808 1.389 . S
C807 H786 0.950 . S
C807 C806 1.373 . S
C807 C823 1.377 . S
C808 C806 1.389 . S
C808 C809 1.524 . S
C808 C822 1.377 . S
C809 C808 1.524 . S
C809 C810 1.397 . S
C809 C814 1.363 . S
C810 H787 0.950 . S
C810 C809 1.397 . S
C810 C811 1.334 . S
C811 H788 0.950 . S
C811 C810 1.334 . S
C811 C812 1.287 . S
C812 C811 1.287 . S
C812 C813 1.524 . S
C812 H831 0.913 . S
C813 H789 0.950 . S
C813 C812 1.524 . S
C813 C814 1.415 . S
C814 H790 0.950 . S
C814 C809 1.363 . S
C814 C813 1.415 . S
C815 H791 0.951 . S
C815 C816 1.366 . S
C815 C817 1.388 . S
C816 C815 1.366 . S
C816 C820 1.385 . S
C817 H792 0.951 . S
C817 C815 1.388 . S
C817 C818 1.366 . S
C818 C817 1.366 . S
C818 C819 1.414 . S
C818 C821 1.499 . S
C819 H793 0.950 . S
C819 C818 1.414 . S
C819 C820 1.374 . S
C820 H794 0.950 . S
C820 C816 1.385 . S
C820 C819 1.374 . S
C821 C818 1.499 . S
C821 C822 1.373 . S
C821 C823 1.389 . S
C822 H795 0.950 . S
C822 C808 1.377 . S
C822 C821 1.373 . S
C823 C807 1.377 . S
C823 C821 1.389 . S
C823 C824 1.524 . S
C824 C823 1.524 . S
C824 C825 1.397 . S
C824 C829 1.363 . S
C825 H796 0.950 . S
C825 C824 1.397 . S
C825 C826 1.334 . S
C826 H797 0.950 . S
C826 C825 1.334 . S
C826 C827 1.287 . S
C827 C826 1.287 . S
C827 C828 1.524 . S
C827 H830 0.999 . S
C828 H798 0.950 . S
C828 C827 1.524 . S
C828 C829 1.415 . S
C829 H799 0.950 . S
C829 C824 1.363 . S
C829 C828 1.415 . S
H830 C827 0.999 . S
H831 C812 0.913 . S
H832 C850 0.951 . S
H833 C852 0.951 . S
H834 C854 0.950 . S
H835 C855 0.950 1_455 S
H836 C857 0.950 . S
H837 C860 0.950 . S
H838 C861 0.950 . S
H839 C863 0.950 . S
H840 C864 0.943 1_556 S
H841 C865 0.951 . S
H842 C867 0.951 . S
H843 C869 0.950 . S
H844 C870 0.950 . S
H845 C872 0.950 . S
H846 C875 0.950 . S
H847 C876 0.950 . S
H848 C878 0.950 . S
H849 C879 0.950 . S
C850 H832 0.951 . S
C850 C851 1.366 . S
C850 C852 1.388 . S
C851 C850 1.366 . S
C851 C855 1.385 . S
C852 H833 0.951 . S
C852 C850 1.388 . S
C852 C853 1.366 . S
C853 C852 1.366 . S
C853 C854 1.414 1_655 S
C853 C856 1.499 1_655 S
C854 H834 0.950 . S
C854 C853 1.414 1_455 S
C854 C855 1.374 1_455 S
C855 H835 0.950 1_655 S
C855 C851 1.385 . S
C855 C854 1.374 1_655 S
C856 C853 1.499 1_455 S
C856 C857 1.373 . S
C856 C858 1.389 . S
C857 H836 0.950 . S
C857 C856 1.373 . S
C857 C873 1.377 . S
C858 C856 1.389 . S
C858 C859 1.524 . S
C858 C872 1.377 . S
C859 C858 1.524 . S
C859 C860 1.397 . S
C859 C864 1.378 1_455 S
C860 H837 0.950 . S
C860 C859 1.397 . S
C860 C861 1.334 . S
C861 H838 0.950 . S
C861 C860 1.334 . S
C861 C862 1.287 1_554 S
C862 C861 1.287 1_556 S
C862 C863 1.524 1_455 S
C862 H881 0.913 . S
C863 H839 0.950 . S
C863 C862 1.524 1_655 S
C863 C864 1.408 1_556 S
C864 H840 0.943 1_554 S
C864 C859 1.378 1_655 S
C864 C863 1.408 1_554 S
C865 H841 0.951 . S
C865 C866 1.366 1_554 S
C865 C867 1.388 . S
C866 C865 1.366 1_556 S
C866 C870 1.385 . S
C867 H842 0.951 . S
C867 C865 1.388 . S
C867 C868 1.366 . S
C868 C867 1.366 . S
C868 C869 1.414 1_554 S
C868 C871 1.499 . S
C869 H843 0.950 . S
C869 C868 1.414 1_556 S
C869 C870 1.374 . S
C870 H844 0.950 . S
C870 C866 1.385 . S
C870 C869 1.374 . S
C871 C868 1.499 . S
C871 C872 1.373 . S
C871 C873 1.389 . S
C872 H845 0.950 . S
C872 C858 1.377 . S
C872 C871 1.373 . S
C873 C857 1.377 . S
C873 C871 1.389 . S
C873 C874 1.524 . S
C874 C873 1.524 . S
C874 C875 1.397 1_455 S
C874 C879 1.363 . S
C875 H846 0.950 . S
C875 C874 1.397 1_655 S
C875 C876 1.334 . S
C876 H847 0.950 . S
C876 C875 1.334 . S
C876 C877 1.287 1_655 S
C877 C876 1.287 1_455 S
C877 C878 1.524 . S
C877 H880 0.999 . S
C878 H848 0.950 . S
C878 C877 1.524 . S
C878 C879 1.415 . S
C879 H849 0.950 . S
C879 C874 1.363 . S
C879 C878 1.415 . S
H880 C877 0.999 . S
H881 C862 0.913 . S
H882 C900 0.965 . S
H883 C902 0.951 . S
H884 C904 0.950 . S
H885 C905 0.951 1_565 S
H886 C907 0.950 . S
H887 C910 0.950 . S
H888 C911 0.950 . S
H889 C913 0.950 . S
H890 C914 0.950 . S
H891 C915 0.951 . S
H892 C917 0.951 . S
H893 C919 0.950 . S
H894 C920 0.950 . S
H895 C922 0.950 . S
H896 C925 0.950 . S
H897 C926 0.950 . S
H898 C928 0.950 . S
H899 C929 0.950 . S
C900 H882 0.965 . S
C900 C901 1.365 . S
C900 C902 1.378 1_565 S
C901 C900 1.365 . S
C901 C905 1.380 1_565 S
C902 H883 0.951 . S
C902 C900 1.378 1_545 S
C902 C903 1.366 . S
C903 C902 1.366 . S
C903 C904 1.414 . S
C903 C906 1.499 . S
C904 H884 0.950 . S
C904 C903 1.414 . S
C904 C905 1.378 . S
C905 H885 0.951 1_545 S
C905 C901 1.380 1_545 S
C905 C904 1.378 . S
C906 C903 1.499 . S
C906 C907 1.373 . S
C906 C908 1.389 1_545 S
C907 H886 0.950 . S
C907 C906 1.373 . S
C907 C923 1.377 . S
C908 C906 1.389 1_565 S
C908 C909 1.524 . S
C908 C922 1.377 . S
C909 C908 1.524 . S
C909 C910 1.397 . S
C909 C914 1.363 . S
C910 H887 0.950 . S
C910 C909 1.397 . S
C910 C911 1.334 . S
C911 H888 0.950 . S
C911 C910 1.334 . S
C911 C912 1.287 . S
C912 C911 1.287 . S
C912 C913 1.524 . S
C912 H931 0.913 . S
C913 H889 0.950 . S
C913 C912 1.524 . S
C913 C914 1.415 . S
C914 H890 0.950 . S
C914 C909 1.363 . S
C914 C913 1.415 . S
C915 H891 0.951 . S
C915 C916 1.366 1_556 S
C915 C917 1.388 1_556 S
C916 C915 1.366 1_554 S
C916 C920 1.385 . S
C917 H892 0.951 . S
C917 C915 1.388 1_554 S
C917 C918 1.366 . S
C918 C917 1.366 . S
C918 C919 1.414 . S
C918 C921 1.499 . S
C919 H893 0.950 . S
C919 C918 1.414 . S
C919 C920 1.374 . S
C920 H894 0.950 . S
C920 C916 1.385 . S
C920 C919 1.374 . S
C921 C918 1.499 . S
C921 C922 1.373 1_545 S
C921 C923 1.389 . S
C922 H895 0.950 . S
C922 C908 1.377 . S
C922 C921 1.373 1_565 S
C923 C907 1.377 . S
C923 C921 1.389 . S
C923 C924 1.524 . S
C924 C923 1.524 . S
C924 C925 1.397 . S
C924 C929 1.363 . S
C925 H896 0.950 . S
C925 C924 1.397 . S
C925 C926 1.334 . S
C926 H897 0.950 . S
C926 C925 1.334 . S
C926 C927 1.287 . S
C927 C926 1.287 . S
C927 C928 1.524 . S
C927 H930 0.999 . S
C928 H898 0.950 . S
C928 C927 1.524 . S
C928 C929 1.415 . S
C929 H899 0.950 . S
C929 C924 1.363 . S
C929 C928 1.415 . S
H930 C927 0.999 . S
H931 C912 0.913 . S
H932 C950 0.951 . S
H933 C952 0.951 . S
H934 C954 0.950 . S
H935 C955 0.950 . S
H936 C957 0.950 . S
H937 C960 0.950 . S
H938 C961 0.950 . S
H939 C963 0.950 . S
H940 C964 0.950 . S
H941 C965 0.951 . S
H942 C967 0.951 . S
H943 C969 0.950 . S
H944 C970 0.950 . S
H945 C972 0.950 . S
H946 C975 0.950 . S
H947 C976 0.950 . S
H948 C978 0.950 . S
H949 C979 0.950 . S
C950 H932 0.951 . S
C950 C951 1.366 . S
C950 C952 1.388 . S
C951 C950 1.366 . S
C951 C955 1.385 . S
C952 H933 0.951 . S
C952 C950 1.388 . S
C952 C953 1.366 . S
C953 C952 1.366 . S
C953 C954 1.414 . S
C953 C956 1.499 . S
C954 H934 0.950 . S
C954 C953 1.414 . S
C954 C955 1.374 . S
C955 H935 0.950 . S
C955 C951 1.385 . S
C955 C954 1.374 . S
C956 C953 1.499 . S
C956 C957 1.373 . S
C956 C958 1.389 . S
C957 H936 0.950 . S
C957 C956 1.373 . S
C957 C973 1.377 . S
C958 C956 1.389 . S
C958 C959 1.524 . S
C958 C972 1.377 . S
C959 C958 1.524 . S
C959 C960 1.397 1_556 S
C959 C964 1.363 . S
C960 H937 0.950 . S
C960 C959 1.397 1_554 S
C960 C961 1.334 . S
C961 H938 0.950 . S
C961 C960 1.334 . S
C961 C962 1.287 . S
C962 C961 1.287 . S
C962 C963 1.524 . S
C962 H981 0.913 . S
C963 H939 0.950 . S
C963 C962 1.524 . S
C963 C964 1.415 1_554 S
C964 H940 0.950 . S
C964 C959 1.363 . S
C964 C963 1.415 1_556 S
C965 H941 0.951 . S
C965 C966 1.366 . S
C965 C967 1.388 . S
C966 C965 1.366 . S
C966 C970 1.385 . S
C967 H942 0.951 . S
C967 C965 1.388 . S
C967 C968 1.366 . S
C968 C967 1.366 . S
C968 C969 1.414 . S
C968 C971 1.499 . S
C969 H943 0.950 . S
C969 C968 1.414 . S
C969 C970 1.374 . S
C970 H944 0.950 . S
C970 C966 1.385 . S
C970 C969 1.374 . S
C971 C968 1.499 . S
C971 C972 1.373 . S
C971 C973 1.389 . S
C972 H945 0.950 . S
C972 C958 1.377 . S
C972 C971 1.373 . S
C973 C957 1.377 . S
C973 C971 1.389 . S
C973 C974 1.524 . S
C974 C973 1.524 . S
C974 C975 1.397 . S
C974 C979 1.363 . S
C975 H946 0.950 . S
C975 C974 1.397 . S
C975 C976 1.334 . S
C976 H947 0.950 . S
C976 C975 1.334 . S
C976 C977 1.287 . S
C977 C976 1.287 . S
C977 C978 1.524 . S
C977 H980 0.999 . S
C978 H948 0.950 . S
C978 C977 1.524 . S
C978 C979 1.415 . S
C979 H949 0.950 . S
C979 C974 1.363 . S
C979 C978 1.415 . S
H980 C977 0.999 . S
H981 C962 0.913 . S
H982 C1000 0.951 . S
H983 C1002 0.951 . S
H984 C1004 0.950 . S
H985 C1005 0.950 . S
H986 C1007 0.950 . S
H987 C1010 0.950 . S
H988 C1011 0.950 . S
H989 C1013 0.950 . S
H990 C1014 0.950 . S
H991 C1015 0.951 . S
H992 C1017 0.951 1_556 S
H993 C1019 0.950 . S
H994 C1020 0.950 . S
H995 C1022 0.950 . S
H996 C1025 0.950 . S
H997 C1026 0.950 . S
H998 C1028 0.950 . S
H999 C1029 0.950 . S
C1000 H982 0.951 . S
C1000 C1001 1.366 . S
C1000 C1002 1.388 . S
C1001 C1000 1.366 . S
C1001 C1005 1.385 . S
C1002 H983 0.951 . S
C1002 C1000 1.388 . S
C1002 C1003 1.366 . S
C1003 C1002 1.366 . S
C1003 C1004 1.414 . S
C1003 C1006 1.499 . S
C1004 H984 0.950 . S
C1004 C1003 1.414 . S
C1004 C1005 1.374 . S
C1005 H985 0.950 . S
C1005 C1001 1.385 . S
C1005 C1004 1.374 . S
C1006 C1003 1.499 . S
C1006 C1007 1.373 . S
C1006 C1008 1.389 . S
C1007 H986 0.950 . S
C1007 C1006 1.373 . S
C1007 C1023 1.377 . S
C1008 C1006 1.389 . S
C1008 C1009 1.524 . S
C1008 C1022 1.377 . S
C1009 C1008 1.524 . S
C1009 C1010 1.397 . S
C1009 C1014 1.363 . S
C1010 H987 0.950 . S
C1010 C1009 1.397 . S
C1010 C1011 1.334 . S
C1011 H988 0.950 . S
C1011 C1010 1.334 . S
C1011 C1012 1.287 . S
C1012 C1011 1.287 . S
C1012 C1013 1.524 . S
C1012 H1031 0.913 . S
C1013 H989 0.950 . S
C1013 C1012 1.524 . S
C1013 C1014 1.415 . S
C1014 H990 0.950 . S
C1014 C1009 1.363 . S
C1014 C1013 1.415 . S
C1015 H991 0.951 . S
C1015 C1016 1.366 . S
C1015 C1017 1.388 1_556 S
C1016 C1015 1.366 . S
C1016 C1020 1.385 1_556 S
C1017 H992 0.951 1_554 S
C1017 C1015 1.388 1_554 S
C1017 C1018 1.366 . S
C1018 C1017 1.366 . S
C1018 C1019 1.414 . S
C1018 C1021 1.499 . S
C1019 H993 0.950 . S
C1019 C1018 1.414 . S
C1019 C1020 1.374 . S
C1020 H994 0.950 . S
C1020 C1016 1.385 1_554 S
C1020 C1019 1.374 . S
C1021 C1018 1.499 . S
C1021 C1022 1.373 . S
C1021 C1023 1.389 . S
C1022 H995 0.950 . S
C1022 C1008 1.377 . S
C1022 C1021 1.373 . S
C1023 C1007 1.377 . S
C1023 C1021 1.389 . S
C1023 C1024 1.524 . S
C1024 C1023 1.524 . S
C1024 C1025 1.397 . S
C1024 C1029 1.363 . S
C1025 H996 0.950 . S
C1025 C1024 1.397 . S
C1025 C1026 1.334 . S
C1026 H997 0.950 . S
C1026 C1025 1.334 . S
C1026 C1027 1.287 1_554 S
C1027 C1026 1.287 1_556 S
C1027 C1028 1.524 . S
C1027 H1030 0.999 . S
C1028 H998 0.950 . S
C1028 C1027 1.524 . S
C1028 C1029 1.415 1_556 S
C1029 H999 0.950 . S
C1029 C1024 1.363 . S
C1029 C1028 1.415 1_554 S
H1030 C1027 0.999 . S
H1031 C1012 0.913 . S
H1032 C1050 0.951 . S
H1033 C1052 0.951 . S
H1034 C1054 0.950 1_556 S
H1035 C1055 0.950 . S
H1036 C1057 0.950 . S
H1037 C1060 0.950 . S
H1038 C1061 0.950 . S
H1039 C1063 0.950 . S
H1040 C1064 0.950 . S
H1041 C1065 0.951 . S
H1042 C1067 0.951 . S
H1043 C1069 0.950 . S
H1044 C1070 0.950 . S
H1045 C1072 0.950 . S
H1046 C1075 0.950 . S
H1047 C1076 0.950 . S
H1048 C1078 0.950 . S
H1049 C1079 0.950 . S
C1050 H1032 0.951 . S
C1050 C1051 1.366 . S
C1050 C1052 1.388 . S
C1051 C1050 1.366 . S
C1051 C1055 1.385 . S
C1052 H1033 0.951 . S
C1052 C1050 1.388 . S
C1052 C1053 1.366 . S
C1053 C1052 1.366 . S
C1053 C1054 1.414 . S
C1053 C1056 1.499 . S
C1054 H1034 0.950 1_554 S
C1054 C1053 1.414 . S
C1054 C1055 1.374 . S
C1055 H1035 0.950 . S
C1055 C1051 1.385 . S
C1055 C1054 1.374 . S
C1056 C1053 1.499 . S
C1056 C1057 1.373 1_554 S
C1056 C1058 1.389 . S
C1057 H1036 0.950 . S
C1057 C1056 1.373 1_556 S
C1057 C1073 1.377 . S
C1058 C1056 1.389 . S
C1058 C1059 1.524 . S
C1058 C1072 1.377 . S
C1059 C1058 1.524 . S
C1059 C1060 1.397 . S
C1059 C1064 1.363 . S
C1060 H1037 0.950 . S
C1060 C1059 1.397 . S
C1060 C1061 1.334 . S
C1061 H1038 0.950 . S
C1061 C1060 1.334 . S
C1061 C1062 1.287 . S
C1062 C1061 1.287 . S
C1062 C1063 1.524 . S
C1062 H1081 0.913 . S
C1063 H1039 0.950 . S
C1063 C1062 1.524 . S
C1063 C1064 1.415 . S
C1064 H1040 0.950 . S
C1064 C1059 1.363 . S
C1064 C1063 1.415 . S
C1065 H1041 0.951 . S
C1065 C1066 1.366 . S
C1065 C1067 1.388 . S
C1066 C1065 1.366 . S
C1066 C1070 1.385 . S
C1067 H1042 0.951 . S
C1067 C1065 1.388 . S
C1067 C1068 1.366 . S
C1068 C1067 1.366 . S
C1068 C1069 1.414 . S
C1068 C1071 1.499 . S
C1069 H1043 0.950 . S
C1069 C1068 1.414 . S
C1069 C1070 1.374 . S
C1070 H1044 0.950 . S
C1070 C1066 1.385 . S
C1070 C1069 1.374 . S
C1071 C1068 1.499 . S
C1071 C1072 1.373 1_556 S
C1071 C1073 1.389 . S
C1072 H1045 0.950 . S
C1072 C1058 1.377 . S
C1072 C1071 1.373 1_554 S
C1073 C1057 1.377 . S
C1073 C1071 1.389 . S
C1073 C1074 1.524 . S
C1074 C1073 1.524 . S
C1074 C1075 1.397 1_455 S
C1074 C1079 1.363 . S
C1075 H1046 0.950 . S
C1075 C1074 1.397 1_655 S
C1075 C1076 1.334 . S
C1076 H1047 0.950 . S
C1076 C1075 1.334 . S
C1076 C1077 1.287 . S
C1077 C1076 1.287 . S
C1077 C1078 1.524 1_655 S
C1077 H1080 0.999 . S
C1078 H1048 0.950 . S
C1078 C1077 1.524 1_455 S
C1078 C1079 1.415 . S
C1079 H1049 0.950 . S
C1079 C1074 1.363 . S
C1079 C1078 1.415 . S
H1080 C1077 0.999 . S
H1081 C1062 0.913 . S
H1082 C1100 0.951 . S
H1083 C1102 0.951 . S
H1084 C1104 0.950 . S
H1085 C1105 0.950 1_556 S
H1086 C1107 0.950 . S
H1087 C1110 0.950 . S
H1088 C1111 0.950 . S
H1089 C1113 0.950 . S
H1090 C1114 0.950 . S
H1091 C1115 0.951 . S
H1092 C1117 0.951 . S
H1093 C1119 0.950 . S
H1094 C1120 0.950 . S
H1095 C1122 0.950 . S
H1096 C1125 0.950 . S
H1097 C1126 0.950 . S
H1098 C1128 0.950 . S
H1099 C1129 0.950 . S
C1100 H1082 0.951 . S
C1100 C1101 1.355 1_565 S
C1100 C1102 1.388 . S
C1101 C1100 1.355 1_545 S
C1101 C1105 1.399 . S
C1102 H1083 0.951 . S
C1102 C1100 1.388 . S
C1102 C1103 1.366 1_565 S
C1103 C1102 1.366 1_545 S
C1103 C1104 1.414 1_554 S
C1103 C1106 1.499 1_554 S
C1104 H1084 0.950 . S
C1104 C1103 1.414 1_556 S
C1104 C1105 1.374 1_556 S
C1105 H1085 0.950 1_554 S
C1105 C1101 1.399 . S
C1105 C1104 1.374 1_554 S
C1106 C1103 1.499 1_556 S
C1106 C1107 1.373 1_545 S
C1106 C1108 1.389 1_556 S
C1107 H1086 0.950 . S
C1107 C1106 1.373 1_565 S
C1107 C1123 1.377 . S
C1108 C1106 1.389 1_554 S
C1108 C1109 1.524 . S
C1108 C1122 1.377 . S
C1109 C1108 1.524 . S
C1109 C1110 1.397 . S
C1109 C1114 1.363 . S
C1110 H1087 0.950 . S
C1110 C1109 1.397 . S
C1110 C1111 1.334 . S
C1111 H1088 0.950 . S
C1111 C1110 1.334 . S
C1111 C1112 1.287 . S
C1112 C1111 1.287 . S
C1112 C1113 1.524 . S
C1112 H1131 0.913 . S
C1113 H1089 0.950 . S
C1113 C1112 1.524 . S
C1113 C1114 1.415 . S
C1114 H1090 0.950 . S
C1114 C1109 1.363 . S
C1114 C1113 1.415 . S
C1115 H1091 0.951 . S
C1115 C1116 1.366 . S
C1115 C1117 1.388 . S
C1116 C1115 1.366 . S
C1116 C1120 1.385 1_545 S
C1117 H1092 0.951 . S
C1117 C1115 1.388 . S
C1117 C1118 1.366 . S
C1118 C1117 1.366 . S
C1118 C1119 1.414 1_545 S
C1118 C1121 1.499 . S
C1119 H1093 0.950 . S
C1119 C1118 1.414 1_565 S
C1119 C1120 1.374 . S
C1120 H1094 0.950 . S
C1120 C1116 1.385 1_565 S
C1120 C1119 1.374 . S
C1121 C1118 1.499 . S
C1121 C1122 1.373 1_556 S
C1121 C1123 1.389 1_545 S
C1122 H1095 0.950 . S
C1122 C1108 1.377 . S
C1122 C1121 1.373 1_554 S
C1123 C1107 1.377 . S
C1123 C1121 1.389 1_565 S
C1123 C1124 1.524 . S
C1124 C1123 1.524 . S
C1124 C1125 1.397 . S
C1124 C1129 1.363 . S
C1125 H1096 0.950 . S
C1125 C1124 1.397 . S
C1125 C1126 1.334 . S
C1126 H1097 0.950 . S
C1126 C1125 1.334 . S
C1126 C1127 1.287 . S
C1127 C1126 1.287 . S
C1127 C1128 1.524 . S
C1127 H1130 0.999 . S
C1128 H1098 0.950 . S
C1128 C1127 1.524 . S
C1128 C1129 1.415 . S
C1129 H1099 0.950 . S
C1129 C1124 1.363 . S
C1129 C1128 1.415 . S
H1130 C1127 0.999 . S
H1131 C1112 0.913 . S
H1132 C1150 0.951 . S
H1133 C1152 0.951 . S
H1134 C1154 0.950 . S
H1135 C1155 0.950 . S
H1136 C1157 0.950 . S
H1137 C1160 0.950 . S
H1138 C1161 0.950 . S
H1139 C1163 0.950 . S
H1140 C1164 0.950 . S
H1141 C1165 0.951 . S
H1142 C1167 0.951 . S
H1143 C1169 0.950 . S
H1144 C1170 0.950 . S
H1145 C1172 0.950 . S
H1146 C1175 0.950 . S
H1147 C1176 0.950 . S
H1148 C1178 0.950 . S
H1149 C1179 0.950 . S
C1150 H1132 0.951 . S
C1150 C1151 1.366 . S
C1150 C1152 1.388 . S
C1151 C1150 1.366 . S
C1151 C1155 1.385 . S
C1152 H1133 0.951 . S
C1152 C1150 1.388 . S
C1152 C1153 1.366 . S
C1153 C1152 1.366 . S
C1153 C1154 1.414 . S
C1153 C1156 1.499 . S
C1154 H1134 0.950 . S
C1154 C1153 1.414 . S
C1154 C1155 1.374 . S
C1155 H1135 0.950 . S
C1155 C1151 1.385 . S
C1155 C1154 1.374 . S
C1156 C1153 1.499 . S
C1156 C1157 1.373 . S
C1156 C1158 1.389 . S
C1157 H1136 0.950 . S
C1157 C1156 1.373 . S
C1157 C1173 1.377 . S
C1158 C1156 1.389 . S
C1158 C1159 1.524 . S
C1158 C1172 1.377 . S
C1159 C1158 1.524 . S
C1159 C1160 1.397 . S
C1159 C1164 1.363 . S
C1160 H1137 0.950 . S
C1160 C1159 1.397 . S
C1160 C1161 1.334 . S
C1161 H1138 0.950 . S
C1161 C1160 1.334 . S
C1161 C1162 1.287 . S
C1162 C1161 1.287 . S
C1162 C1163 1.524 . S
C1162 H1181 0.913 . S
C1163 H1139 0.950 . S
C1163 C1162 1.524 . S
C1163 C1164 1.415 . S
C1164 H1140 0.950 . S
C1164 C1159 1.363 . S
C1164 C1163 1.415 . S
C1165 H1141 0.951 . S
C1165 C1166 1.366 . S
C1165 C1167 1.388 . S
C1166 C1165 1.366 . S
C1166 C1170 1.385 . S
C1167 H1142 0.951 . S
C1167 C1165 1.388 . S
C1167 C1168 1.366 . S
C1168 C1167 1.366 . S
C1168 C1169 1.414 . S
C1168 C1171 1.499 . S
C1169 H1143 0.950 . S
C1169 C1168 1.414 . S
C1169 C1170 1.374 . S
C1170 H1144 0.950 . S
C1170 C1166 1.385 . S
C1170 C1169 1.374 . S
C1171 C1168 1.499 . S
C1171 C1172 1.373 . S
C1171 C1173 1.389 . S
C1172 H1145 0.950 . S
C1172 C1158 1.377 . S
C1172 C1171 1.373 . S
C1173 C1157 1.377 . S
C1173 C1171 1.389 . S
C1173 C1174 1.524 . S
C1174 C1173 1.524 . S
C1174 C1175 1.397 . S
C1174 C1179 1.363 . S
C1175 H1146 0.950 . S
C1175 C1174 1.397 . S
C1175 C1176 1.334 . S
C1176 H1147 0.950 . S
C1176 C1175 1.334 . S
C1176 C1177 1.287 . S
C1177 C1176 1.287 . S
C1177 C1178 1.524 . S
C1177 H1180 0.999 . S
C1178 H1148 0.950 . S
C1178 C1177 1.524 . S
C1178 C1179 1.415 . S
C1179 H1149 0.950 . S
C1179 C1174 1.363 . S
C1179 C1178 1.415 . S
H1180 C1177 0.999 . S
H1181 C1162 0.913 . S
H1182 C1200 0.951 . S
H1183 C1202 0.951 1_556 S
H1184 C1204 0.950 . S
H1185 C1205 0.950 . S
H1186 C1207 0.950 . S
H1187 C1210 0.950 . S
H1188 C1211 0.950 . S
H1189 C1213 0.950 . S
H1190 C1214 0.950 1_556 S
H1191 C1215 0.951 . S
H1192 C1217 0.951 . S
H1193 C1219 0.950 . S
H1194 C1220 0.950 . S
H1195 C1222 0.950 . S
H1196 C1225 0.950 . S
H1197 C1226 0.950 . S
H1198 C1228 0.950 . S
H1199 C1229 0.950 . S
C1200 H1182 0.951 . S
C1200 C1201 1.366 . S
C1200 C1202 1.388 . S
C1201 C1200 1.366 . S
C1201 C1205 1.385 . S
C1202 H1183 0.951 1_554 S
C1202 C1200 1.388 . S
C1202 C1203 1.366 . S
C1203 C1202 1.366 . S
C1203 C1204 1.414 . S
C1203 C1206 1.499 1_554 S
C1204 H1184 0.950 . S
C1204 C1203 1.414 . S
C1204 C1205 1.374 . S
C1205 H1185 0.950 . S
C1205 C1201 1.385 . S
C1205 C1204 1.374 . S
C1206 C1203 1.499 1_556 S
C1206 C1207 1.373 . S
C1206 C1208 1.389 . S
C1207 H1186 0.950 . S
C1207 C1206 1.373 . S
C1207 C1223 1.377 . S
C1208 C1206 1.389 . S
C1208 C1209 1.524 1_556 S
C1208 C1222 1.377 . S
C1209 C1208 1.524 1_554 S
C1209 C1210 1.397 . S
C1209 C1214 1.363 . S
C1210 H1187 0.950 . S
C1210 C1209 1.397 . S
C1210 C1211 1.334 . S
C1211 H1188 0.950 . S
C1211 C1210 1.334 . S
C1211 C1212 1.287 . S
C1212 C1211 1.287 . S
C1212 C1213 1.524 . S
C1212 H1231 0.913 . S
C1213 H1189 0.950 . S
C1213 C1212 1.524 . S
C1213 C1214 1.415 . S
C1214 H1190 0.950 1_554 S
C1214 C1209 1.363 . S
C1214 C1213 1.415 . S
C1215 H1191 0.951 . S
C1215 C1216 1.366 . S
C1215 C1217 1.388 . S
C1216 C1215 1.366 . S
C1216 C1220 1.385 . S
C1217 H1192 0.951 . S
C1217 C1215 1.388 . S
C1217 C1218 1.366 . S
C1218 C1217 1.366 . S
C1218 C1219 1.414 . S
C1218 C1221 1.499 . S
C1219 H1193 0.950 . S
C1219 C1218 1.414 . S
C1219 C1220 1.374 . S
C1220 H1194 0.950 . S
C1220 C1216 1.385 . S
C1220 C1219 1.374 . S
C1221 C1218 1.499 . S
C1221 C1222 1.373 . S
C1221 C1223 1.389 . S
C1222 H1195 0.950 . S
C1222 C1208 1.377 . S
C1222 C1221 1.373 . S
C1223 C1207 1.377 . S
C1223 C1221 1.389 . S
C1223 C1224 1.524 . S
C1224 C1223 1.524 . S
C1224 C1225 1.397 . S
C1224 C1229 1.363 . S
C1225 H1196 0.950 . S
C1225 C1224 1.397 . S
C1225 C1226 1.334 . S
C1226 H1197 0.950 . S
C1226 C1225 1.334 . S
C1226 C1227 1.287 . S
C1227 C1226 1.287 . S
C1227 C1228 1.524 . S
C1227 H1230 0.999 . S
C1228 H1198 0.950 . S
C1228 C1227 1.524 . S
C1228 C1229 1.415 . S
C1229 H1199 0.950 . S
C1229 C1224 1.363 . S
C1229 C1228 1.415 . S
H1230 C1227 0.999 . S
H1231 C1212 0.913 . S
H1232 C1250 0.951 . S
H1233 C1252 0.951 . S
H1234 C1254 0.950 . S
H1235 C1255 0.950 . S
H1236 C1257 0.950 . S
H1237 C1260 0.950 . S
H1238 C1261 0.950 . S
H1239 C1263 0.950 . S
H1240 C1264 0.950 . S
H1241 C1265 0.951 . S
H1242 C1267 0.951 . S
H1243 C1269 0.950 1_455 S
H1244 C1270 0.945 1_455 S
H1245 C1272 0.950 . S
H1246 C1275 0.950 . S
H1247 C1276 0.950 . S
H1248 C1278 0.950 . S
H1249 C1279 0.950 . S
C1250 H1232 0.951 . S
C1250 C1251 1.366 . S
C1250 C1252 1.388 . S
C1251 C1250 1.366 . S
C1251 C1255 1.385 . S
C1252 H1233 0.951 . S
C1252 C1250 1.388 . S
C1252 C1253 1.366 . S
C1253 C1252 1.366 . S
C1253 C1254 1.414 . S
C1253 C1256 1.499 . S
C1254 H1234 0.950 . S
C1254 C1253 1.414 . S
C1254 C1255 1.374 . S
C1255 H1235 0.950 . S
C1255 C1251 1.385 . S
C1255 C1254 1.374 . S
C1256 C1253 1.499 . S
C1256 C1257 1.373 . S
C1256 C1258 1.389 1_655 S
C1257 H1236 0.950 . S
C1257 C1256 1.373 . S
C1257 C1273 1.377 . S
C1258 C1256 1.389 1_455 S
C1258 C1259 1.524 . S
C1258 C1272 1.377 . S
C1259 C1258 1.524 . S
C1259 C1260 1.397 . S
C1259 C1264 1.363 . S
C1260 H1237 0.950 . S
C1260 C1259 1.397 . S
C1260 C1261 1.334 . S
C1261 H1238 0.950 . S
C1261 C1260 1.334 . S
C1261 C1262 1.287 . S
C1262 C1261 1.287 . S
C1262 C1263 1.524 . S
C1262 H1281 0.913 . S
C1263 H1239 0.950 . S
C1263 C1262 1.524 . S
C1263 C1264 1.415 . S
C1264 H1240 0.950 . S
C1264 C1259 1.363 . S
C1264 C1263 1.415 . S
C1265 H1241 0.951 . S
C1265 C1266 1.366 . S
C1265 C1267 1.388 . S
C1266 C1265 1.366 . S
C1266 C1270 1.389 . S
C1267 H1242 0.951 . S
C1267 C1265 1.388 . S
C1267 C1268 1.366 . S
C1268 C1267 1.366 . S
C1268 C1269 1.414 . S
C1268 C1271 1.499 . S
C1269 H1243 0.950 1_655 S
C1269 C1268 1.414 . S
C1269 C1270 1.375 . S
C1270 H1244 0.945 1_655 S
C1270 C1266 1.389 . S
C1270 C1269 1.375 . S
C1271 C1268 1.499 . S
C1271 C1272 1.373 1_655 S
C1271 C1273 1.389 . S
C1272 H1245 0.950 . S
C1272 C1258 1.377 . S
C1272 C1271 1.373 1_455 S
C1273 C1257 1.377 . S
C1273 C1271 1.389 . S
C1273 C1274 1.524 . S
C1274 C1273 1.524 . S
C1274 C1275 1.397 . S
C1274 C1279 1.363 . S
C1275 H1246 0.950 . S
C1275 C1274 1.397 . S
C1275 C1276 1.334 . S
C1276 H1247 0.950 . S
C1276 C1275 1.334 . S
C1276 C1277 1.287 . S
C1277 C1276 1.287 . S
C1277 C1278 1.524 . S
C1277 H1280 0.999 . S
C1278 H1248 0.950 . S
C1278 C1277 1.524 . S
C1278 C1279 1.415 . S
C1279 H1249 0.950 . S
C1279 C1274 1.363 . S
C1279 C1278 1.415 . S
H1280 C1277 0.999 . S
H1281 C1262 0.913 . S
H1282 C1300 0.951 . S
H1283 C1302 0.955 1_545 S
H1284 C1304 0.950 . S
H1285 C1305 0.950 . S
H1286 C1307 0.950 . S
H1287 C1310 0.950 . S
H1288 C1311 0.950 . S
H1289 C1313 0.950 . S
H1290 C1314 0.950 . S
H1291 C1315 0.951 . S
H1292 C1317 0.951 . S
H1293 C1319 0.950 . S
H1294 C1320 0.950 . S
H1295 C1322 0.950 . S
H1296 C1325 0.950 . S
H1297 C1326 0.950 . S
H1298 C1328 0.950 . S
H1299 C1329 0.950 . S
C1300 H1282 0.951 . S
C1300 C1301 1.372 1_545 S
C1300 C1302 1.383 1_545 S
C1301 C1300 1.372 1_565 S
C1301 C1305 1.385 . S
C1302 H1283 0.955 1_565 S
C1302 C1300 1.383 1_565 S
C1302 C1303 1.366 . S
C1303 C1302 1.366 . S
C1303 C1304 1.414 . S
C1303 C1306 1.499 . S
C1304 H1284 0.950 . S
C1304 C1303 1.414 . S
C1304 C1305 1.374 . S
C1305 H1285 0.950 . S
C1305 C1301 1.385 . S
C1305 C1304 1.374 . S
C1306 C1303 1.499 . S
C1306 C1307 1.373 1_565 S
C1306 C1308 1.389 . S
C1307 H1286 0.950 . S
C1307 C1306 1.373 1_545 S
C1307 C1323 1.377 . S
C1308 C1306 1.389 . S
C1308 C1309 1.524 . S
C1308 C1322 1.377 . S
C1309 C1308 1.524 . S
C1309 C1310 1.397 . S
C1309 C1314 1.363 . S
C1310 H1287 0.950 . S
C1310 C1309 1.397 . S
C1310 C1311 1.334 . S
C1311 H1288 0.950 . S
C1311 C1310 1.334 . S
C1311 C1312 1.287 . S
C1312 C1311 1.287 . S
C1312 C1313 1.524 . S
C1312 H1331 0.913 . S
C1313 H1289 0.950 . S
C1313 C1312 1.524 . S
C1313 C1314 1.415 . S
C1314 H1290 0.950 . S
C1314 C1309 1.363 . S
C1314 C1313 1.415 . S
C1315 H1291 0.951 . S
C1315 C1316 1.366 . S
C1315 C1317 1.388 . S
C1316 C1315 1.366 . S
C1316 C1320 1.385 . S
C1317 H1292 0.951 . S
C1317 C1315 1.388 . S
C1317 C1318 1.366 . S
C1318 C1317 1.366 . S
C1318 C1319 1.414 . S
C1318 C1321 1.499 . S
C1319 H1293 0.950 . S
C1319 C1318 1.414 . S
C1319 C1320 1.374 . S
C1320 H1294 0.950 . S
C1320 C1316 1.385 . S
C1320 C1319 1.374 . S
C1321 C1318 1.499 . S
C1321 C1322 1.373 . S
C1321 C1323 1.389 1_565 S
C1322 H1295 0.950 . S
C1322 C1308 1.377 . S
C1322 C1321 1.373 . S
C1323 C1307 1.377 . S
C1323 C1321 1.389 1_545 S
C1323 C1324 1.524 . S
C1324 C1323 1.524 . S
C1324 C1325 1.397 . S
C1324 C1329 1.363 . S
C1325 H1296 0.950 . S
C1325 C1324 1.397 . S
C1325 C1326 1.334 . S
C1326 H1297 0.950 . S
C1326 C1325 1.334 . S
C1326 C1327 1.287 . S
C1327 C1326 1.287 . S
C1327 C1328 1.524 . S
C1327 H1330 0.999 . S
C1328 H1298 0.950 . S
C1328 C1327 1.524 . S
C1328 C1329 1.415 . S
C1329 H1299 0.950 . S
C1329 C1324 1.363 . S
C1329 C1328 1.415 . S
H1330 C1327 0.999 . S
H1331 C1312 0.913 . S
H1332 C1350 0.951 . S
H1333 C1352 0.951 . S
H1334 C1354 0.950 . S
H1335 C1355 0.950 . S
H1336 C1357 0.950 . S
H1337 C1360 0.950 . S
H1338 C1361 0.950 . S
H1339 C1363 0.950 . S
H1340 C1364 0.950 . S
H1341 C1365 0.951 . S
H1342 C1367 0.951 . S
H1343 C1369 0.950 . S
H1344 C1370 0.950 . S
H1345 C1372 0.950 . S
H1346 C1375 0.950 . S
H1347 C1376 0.950 . S
H1348 C1378 0.950 . S
H1349 C1379 0.950 . S
C1350 H1332 0.951 . S
C1350 C1351 1.366 . S
C1350 C1352 1.388 . S
C1351 C1350 1.366 . S
C1351 C1355 1.385 . S
C1352 H1333 0.951 . S
C1352 C1350 1.388 . S
C1352 C1353 1.366 . S
C1353 C1352 1.366 . S
C1353 C1354 1.414 . S
C1353 C1356 1.499 . S
C1354 H1334 0.950 . S
C1354 C1353 1.414 . S
C1354 C1355 1.374 . S
C1355 H1335 0.950 . S
C1355 C1351 1.385 . S
C1355 C1354 1.374 . S
C1356 C1353 1.499 . S
C1356 C1357 1.373 . S
C1356 C1358 1.389 . S
C1357 H1336 0.950 . S
C1357 C1356 1.373 . S
C1357 C1373 1.377 . S
C1358 C1356 1.389 . S
C1358 C1359 1.524 . S
C1358 C1372 1.377 . S
C1359 C1358 1.524 . S
C1359 C1360 1.397 . S
C1359 C1364 1.363 . S
C1360 H1337 0.950 . S
C1360 C1359 1.397 . S
C1360 C1361 1.334 . S
C1361 H1338 0.950 . S
C1361 C1360 1.334 . S
C1361 C1362 1.287 . S
C1362 C1361 1.287 . S
C1362 C1363 1.524 . S
C1362 H1381 0.913 . S
C1363 H1339 0.950 . S
C1363 C1362 1.524 . S
C1363 C1364 1.415 . S
C1364 H1340 0.950 . S
C1364 C1359 1.363 . S
C1364 C1363 1.415 . S
C1365 H1341 0.951 . S
C1365 C1366 1.366 . S
C1365 C1367 1.388 . S
C1366 C1365 1.366 . S
C1366 C1370 1.385 . S
C1367 H1342 0.951 . S
C1367 C1365 1.388 . S
C1367 C1368 1.366 . S
C1368 C1367 1.366 . S
C1368 C1369 1.414 . S
C1368 C1371 1.499 . S
C1369 H1343 0.950 . S
C1369 C1368 1.414 . S
C1369 C1370 1.374 . S
C1370 H1344 0.950 . S
C1370 C1366 1.385 . S
C1370 C1369 1.374 . S
C1371 C1368 1.499 . S
C1371 C1372 1.373 . S
C1371 C1373 1.389 . S
C1372 H1345 0.950 . S
C1372 C1358 1.377 . S
C1372 C1371 1.373 . S
C1373 C1357 1.377 . S
C1373 C1371 1.389 . S
C1373 C1374 1.524 . S
C1374 C1373 1.524 . S
C1374 C1375 1.397 . S
C1374 C1379 1.363 . S
C1375 H1346 0.950 . S
C1375 C1374 1.397 . S
C1375 C1376 1.334 . S
C1376 H1347 0.950 . S
C1376 C1375 1.334 . S
C1376 C1377 1.287 . S
C1377 C1376 1.287 . S
C1377 C1378 1.524 . S
C1377 H1380 0.999 . S
C1378 H1348 0.950 . S
C1378 C1377 1.524 . S
C1378 C1379 1.415 . S
C1379 H1349 0.950 . S
C1379 C1374 1.363 . S
C1379 C1378 1.415 . S
H1380 C1377 0.999 . S
H1381 C1362 0.913 . S
H1382 C1400 0.951 . S
H1383 C1402 0.951 . S
H1384 C1404 0.950 . S
H1385 C1405 0.950 . S
H1386 C1407 0.950 . S
H1387 C1410 0.950 . S
H1388 C1411 0.950 . S
H1389 C1413 0.950 . S
H1390 C1414 0.950 . S
H1391 C1415 0.951 . S
H1392 C1417 0.951 . S
H1393 C1419 0.950 . S
H1394 C1420 0.950 . S
H1395 C1422 0.950 . S
H1396 C1425 0.950 . S
H1397 C1426 0.950 . S
H1398 C1428 0.950 . S
H1399 C1429 0.950 . S
C1400 H1382 0.951 . S
C1400 C1401 1.366 . S
C1400 C1402 1.388 . S
C1401 C1400 1.366 . S
C1401 C1405 1.385 . S
C1402 H1383 0.951 . S
C1402 C1400 1.388 . S
C1402 C1403 1.366 . S
C1403 C1402 1.366 . S
C1403 C1404 1.414 . S
C1403 C1406 1.499 . S
C1404 H1384 0.950 . S
C1404 C1403 1.414 . S
C1404 C1405 1.374 . S
C1405 H1385 0.950 . S
C1405 C1401 1.385 . S
C1405 C1404 1.374 . S
C1406 C1403 1.499 . S
C1406 C1407 1.373 . S
C1406 C1408 1.389 . S
C1407 H1386 0.950 . S
C1407 C1406 1.373 . S
C1407 C1423 1.377 . S
C1408 C1406 1.389 . S
C1408 C1409 1.524 . S
C1408 C1422 1.377 . S
C1409 C1408 1.524 . S
C1409 C1410 1.397 . S
C1409 C1414 1.363 . S
C1410 H1387 0.950 . S
C1410 C1409 1.397 . S
C1410 C1411 1.334 . S
C1411 H1388 0.950 . S
C1411 C1410 1.334 . S
C1411 C1412 1.287 . S
C1412 C1411 1.287 . S
C1412 C1413 1.524 . S
C1412 H1431 0.913 . S
C1413 H1389 0.950 . S
C1413 C1412 1.524 . S
C1413 C1414 1.415 . S
C1414 H1390 0.950 . S
C1414 C1409 1.363 . S
C1414 C1413 1.415 . S
C1415 H1391 0.951 . S
C1415 C1416 1.366 . S
C1415 C1417 1.388 . S
C1416 C1415 1.366 . S
C1416 C1420 1.385 . S
C1417 H1392 0.951 . S
C1417 C1415 1.388 . S
C1417 C1418 1.366 . S
C1418 C1417 1.366 . S
C1418 C1419 1.414 . S
C1418 C1421 1.499 . S
C1419 H1393 0.950 . S
C1419 C1418 1.414 . S
C1419 C1420 1.374 . S
C1420 H1394 0.950 . S
C1420 C1416 1.385 . S
C1420 C1419 1.374 . S
C1421 C1418 1.499 . S
C1421 C1422 1.373 . S
C1421 C1423 1.389 . S
C1422 H1395 0.950 . S
C1422 C1408 1.377 . S
C1422 C1421 1.373 . S
C1423 C1407 1.377 . S
C1423 C1421 1.389 . S
C1423 C1424 1.524 . S
C1424 C1423 1.524 . S
C1424 C1425 1.397 . S
C1424 C1429 1.363 . S
C1425 H1396 0.950 . S
C1425 C1424 1.397 . S
C1425 C1426 1.334 . S
C1426 H1397 0.950 . S
C1426 C1425 1.334 . S
C1426 C1427 1.287 . S
C1427 C1426 1.287 . S
C1427 C1428 1.524 . S
C1427 H1430 0.999 . S
C1428 H1398 0.950 . S
C1428 C1427 1.524 . S
C1428 C1429 1.415 . S
C1429 H1399 0.950 . S
C1429 C1424 1.363 . S
C1429 C1428 1.415 . S
H1430 C1427 0.999 . S
H1431 C1412 0.913 . S
C251 C61 1.644 1_545 S
C266 C95 1.729 1_545 S
C316 C135 1.490 . S
C301 C70 1.484 . S
C366 C154 1.781 . S
C351 C43 1.699 . S
C416 C215 1.281 . S
C401 C52 1.232 . S
C466 C74 1.733 1_565 S
C451 C25 1.644 1_545 S
C501 C34 1.485 . S
C516 C114 1.496 . S
C551 C7 1.697 . S
C566 C175 1.780 . S
C601 C16 1.234 . S
C616 C194 1.281 . S
C666 C76 0.557 . S
C651 C50 0.529 . S
C716 C116 0.249 . S
C701 C59 0.178 1_545 S
C766 C172 0.371 . S
C751 C67 0.483 . S
C801 C41 0.202 . S
C816 C196 0.291 . S
C851 C14 0.527 . S
C866 C97 0.562 . S
C916 C137 0.249 . S
C901 C23 0.164 . S
C966 C183 0.373 . S
C951 C31 0.494 . S
C1001 C5 0.175 . S
C1016 C217 0.287 . S
C1051 C49 1.450 . S
C1066 C92 1.560 . S
C1101 C58 1.971 1_545 S
C1116 C132 2.149 . S
C1166 C156 1.549 . S
C1151 C68 1.534 . S
C1216 C212 2.120 . S
C1201 C40 1.955 . S
C1251 C13 1.450 . S
C1266 C103 1.577 . S
C1316 C143 2.148 . S
C1301 C22 1.970 . S
C1366 C177 1.549 . S
C1351 C32 1.531 . S
C1401 C4 1.954 . S
C1416 C223 2.120 . S
