# Generated by pormake.
# Topology llk, (3,12)-cn, num edge types: 1
# Building blocks:
#     Node 0, Type 0, BuildingBlock: KAKCAD_clean_linker_0, # of connection points: 3
#     Node 1, Type 0, BuildingBlock: KAKCAD_clean_linker_0, # of connection points: 3
#     Node 2, Type 0, BuildingBlock: KAKCAD_clean_linker_0, # of connection points: 3
#     Node 3, Type 0, BuildingBlock: KAKCAD_clean_linker_0, # of connection points: 3
#     Node 4, Type 0, BuildingBlock: KAKCAD_clean_linker_0, # of connection points: 3
#     Node 5, Type 0, BuildingBlock: KAKCAD_clean_linker_0, # of connection points: 3
#     Node 6, Type 0, BuildingBlock: KAKCAD_clean_linker_0, # of connection points: 3
#     Node 7, Type 0, BuildingBlock: KAKCAD_clean_linker_0, # of connection points: 3
#     Node 8, Type 0, BuildingBlock: KAKCAD_clean_linker_0, # of connection points: 3
#     Node 9, Type 0, BuildingBlock: KAKCAD_clean_linker_0, # of connection points: 3
#     Node 10, Type 0, BuildingBlock: KAKCAD_clean_linker_0, # of connection points: 3
#     Node 11, Type 0, BuildingBlock: KAKCAD_clean_linker_0, # of connection points: 3
#     Node 12, Type 0, BuildingBlock: KAKCAD_clean_linker_0, # of connection points: 3
#     Node 13, Type 0, BuildingBlock: KAKCAD_clean_linker_0, # of connection points: 3
#     Node 14, Type 0, BuildingBlock: KAKCAD_clean_linker_0, # of connection points: 3
#     Node 15, Type 0, BuildingBlock: KAKCAD_clean_linker_0, # of connection points: 3
#     Node 16, Type 0, BuildingBlock: KAKCAD_clean_linker_0, # of connection points: 3
#     Node 17, Type 0, BuildingBlock: KAKCAD_clean_linker_0, # of connection points: 3
#     Node 18, Type 0, BuildingBlock: KAKCAD_clean_linker_0, # of connection points: 3
#     Node 19, Type 0, BuildingBlock: KAKCAD_clean_linker_0, # of connection points: 3
#     Node 20, Type 0, BuildingBlock: KAKCAD_clean_linker_0, # of connection points: 3
#     Node 21, Type 0, BuildingBlock: KAKCAD_clean_linker_0, # of connection points: 3
#     Node 22, Type 0, BuildingBlock: KAKCAD_clean_linker_0, # of connection points: 3
#     Node 23, Type 0, BuildingBlock: KAKCAD_clean_linker_0, # of connection points: 3
#     Node 24, Type 1, BuildingBlock: EZIPEK_clean_sbu_0, # of connection points: 12
#     Node 25, Type 1, BuildingBlock: EZIPEK_clean_sbu_0, # of connection points: 12
#     Node 26, Type 1, BuildingBlock: EZIPEK_clean_sbu_0, # of connection points: 12
#     Node 27, Type 1, BuildingBlock: EZIPEK_clean_sbu_0, # of connection points: 12
#     Node 28, Type 1, BuildingBlock: EZIPEK_clean_sbu_0, # of connection points: 12
#     Node 29, Type 1, BuildingBlock: EZIPEK_clean_sbu_0, # of connection points: 12
#     Edge 30, Type (0, 1), BuildingBlock: XUDNAN_clean_linker_2, # of connection points: 2
#     Edge 31, Type (0, 1), BuildingBlock: XUDNAN_clean_linker_2, # of connection points: 2
#     Edge 32, Type (0, 1), BuildingBlock: XUDNAN_clean_linker_2, # of connection points: 2
#     Edge 33, Type (0, 1), BuildingBlock: XUDNAN_clean_linker_2, # of connection points: 2
#     Edge 34, Type (0, 1), BuildingBlock: XUDNAN_clean_linker_2, # of connection points: 2
#     Edge 35, Type (0, 1), BuildingBlock: XUDNAN_clean_linker_2, # of connection points: 2
#     Edge 36, Type (0, 1), BuildingBlock: XUDNAN_clean_linker_2, # of connection points: 2
#     Edge 37, Type (0, 1), BuildingBlock: XUDNAN_clean_linker_2, # of connection points: 2
#     Edge 38, Type (0, 1), BuildingBlock: XUDNAN_clean_linker_2, # of connection points: 2
#     Edge 39, Type (0, 1), BuildingBlock: XUDNAN_clean_linker_2, # of connection points: 2
#     Edge 40, Type (0, 1), BuildingBlock: XUDNAN_clean_linker_2, # of connection points: 2
#     Edge 41, Type (0, 1), BuildingBlock: XUDNAN_clean_linker_2, # of connection points: 2
#     Edge 42, Type (0, 1), BuildingBlock: XUDNAN_clean_linker_2, # of connection points: 2
#     Edge 43, Type (0, 1), BuildingBlock: XUDNAN_clean_linker_2, # of connection points: 2
#     Edge 44, Type (0, 1), BuildingBlock: XUDNAN_clean_linker_2, # of connection points: 2
#     Edge 45, Type (0, 1), BuildingBlock: XUDNAN_clean_linker_2, # of connection points: 2
#     Edge 46, Type (0, 1), BuildingBlock: XUDNAN_clean_linker_2, # of connection points: 2
#     Edge 47, Type (0, 1), BuildingBlock: XUDNAN_clean_linker_2, # of connection points: 2
#     Edge 48, Type (0, 1), BuildingBlock: XUDNAN_clean_linker_2, # of connection points: 2
#     Edge 49, Type (0, 1), BuildingBlock: XUDNAN_clean_linker_2, # of connection points: 2
#     Edge 50, Type (0, 1), BuildingBlock: XUDNAN_clean_linker_2, # of connection points: 2
#     Edge 51, Type (0, 1), BuildingBlock: XUDNAN_clean_linker_2, # of connection points: 2
#     Edge 52, Type (0, 1), BuildingBlock: XUDNAN_clean_linker_2, # of connection points: 2
#     Edge 53, Type (0, 1), BuildingBlock: XUDNAN_clean_linker_2, # of connection points: 2
#     Edge 54, Type (0, 1), BuildingBlock: XUDNAN_clean_linker_2, # of connection points: 2
#     Edge 55, Type (0, 1), BuildingBlock: XUDNAN_clean_linker_2, # of connection points: 2
#     Edge 56, Type (0, 1), BuildingBlock: XUDNAN_clean_linker_2, # of connection points: 2
#     Edge 57, Type (0, 1), BuildingBlock: XUDNAN_clean_linker_2, # of connection points: 2
#     Edge 58, Type (0, 1), BuildingBlock: XUDNAN_clean_linker_2, # of connection points: 2
#     Edge 59, Type (0, 1), BuildingBlock: XUDNAN_clean_linker_2, # of connection points: 2
#     Edge 60, Type (0, 1), BuildingBlock: XUDNAN_clean_linker_2, # of connection points: 2
#     Edge 61, Type (0, 1), BuildingBlock: XUDNAN_clean_linker_2, # of connection points: 2
#     Edge 62, Type (0, 1), BuildingBlock: XUDNAN_clean_linker_2, # of connection points: 2
#     Edge 63, Type (0, 1), BuildingBlock: XUDNAN_clean_linker_2, # of connection points: 2
#     Edge 64, Type (0, 1), BuildingBlock: XUDNAN_clean_linker_2, # of connection points: 2
#     Edge 65, Type (0, 1), BuildingBlock: XUDNAN_clean_linker_2, # of connection points: 2
#     Edge 66, Type (0, 1), BuildingBlock: XUDNAN_clean_linker_2, # of connection points: 2
#     Edge 67, Type (0, 1), BuildingBlock: XUDNAN_clean_linker_2, # of connection points: 2
#     Edge 68, Type (0, 1), BuildingBlock: XUDNAN_clean_linker_2, # of connection points: 2
#     Edge 69, Type (0, 1), BuildingBlock: XUDNAN_clean_linker_2, # of connection points: 2
#     Edge 70, Type (0, 1), BuildingBlock: XUDNAN_clean_linker_2, # of connection points: 2
#     Edge 71, Type (0, 1), BuildingBlock: XUDNAN_clean_linker_2, # of connection points: 2
#     Edge 72, Type (0, 1), BuildingBlock: XUDNAN_clean_linker_2, # of connection points: 2
#     Edge 73, Type (0, 1), BuildingBlock: XUDNAN_clean_linker_2, # of connection points: 2
#     Edge 74, Type (0, 1), BuildingBlock: XUDNAN_clean_linker_2, # of connection points: 2
#     Edge 75, Type (0, 1), BuildingBlock: XUDNAN_clean_linker_2, # of connection points: 2
#     Edge 76, Type (0, 1), BuildingBlock: XUDNAN_clean_linker_2, # of connection points: 2
#     Edge 77, Type (0, 1), BuildingBlock: XUDNAN_clean_linker_2, # of connection points: 2
#     Edge 78, Type (0, 1), BuildingBlock: XUDNAN_clean_linker_2, # of connection points: 2
#     Edge 79, Type (0, 1), BuildingBlock: XUDNAN_clean_linker_2, # of connection points: 2
#     Edge 80, Type (0, 1), BuildingBlock: XUDNAN_clean_linker_2, # of connection points: 2
#     Edge 81, Type (0, 1), BuildingBlock: XUDNAN_clean_linker_2, # of connection points: 2
#     Edge 82, Type (0, 1), BuildingBlock: XUDNAN_clean_linker_2, # of connection points: 2
#     Edge 83, Type (0, 1), BuildingBlock: XUDNAN_clean_linker_2, # of connection points: 2
#     Edge 84, Type (0, 1), BuildingBlock: XUDNAN_clean_linker_2, # of connection points: 2
#     Edge 85, Type (0, 1), BuildingBlock: XUDNAN_clean_linker_2, # of connection points: 2
#     Edge 86, Type (0, 1), BuildingBlock: XUDNAN_clean_linker_2, # of connection points: 2
#     Edge 87, Type (0, 1), BuildingBlock: XUDNAN_clean_linker_2, # of connection points: 2
#     Edge 88, Type (0, 1), BuildingBlock: XUDNAN_clean_linker_2, # of connection points: 2
#     Edge 89, Type (0, 1), BuildingBlock: XUDNAN_clean_linker_2, # of connection points: 2
#     Edge 90, Type (0, 1), BuildingBlock: XUDNAN_clean_linker_2, # of connection points: 2
#     Edge 91, Type (0, 1), BuildingBlock: XUDNAN_clean_linker_2, # of connection points: 2
#     Edge 92, Type (0, 1), BuildingBlock: XUDNAN_clean_linker_2, # of connection points: 2
#     Edge 93, Type (0, 1), BuildingBlock: XUDNAN_clean_linker_2, # of connection points: 2
#     Edge 94, Type (0, 1), BuildingBlock: XUDNAN_clean_linker_2, # of connection points: 2
#     Edge 95, Type (0, 1), BuildingBlock: XUDNAN_clean_linker_2, # of connection points: 2
#     Edge 96, Type (0, 1), BuildingBlock: XUDNAN_clean_linker_2, # of connection points: 2
#     Edge 97, Type (0, 1), BuildingBlock: XUDNAN_clean_linker_2, # of connection points: 2
#     Edge 98, Type (0, 1), BuildingBlock: XUDNAN_clean_linker_2, # of connection points: 2
#     Edge 99, Type (0, 1), BuildingBlock: XUDNAN_clean_linker_2, # of connection points: 2
#     Edge 100, Type (0, 1), BuildingBlock: XUDNAN_clean_linker_2, # of connection points: 2
#     Edge 101, Type (0, 1), BuildingBlock: XUDNAN_clean_linker_2, # of connection points: 2
# Relax obj value: 0.106
# Max RMSD: 0.160
# Mean RMSD: 0.134
data_MOF--net-llk--node1-EZIPEK_clean_sbu_0--node2-KAKCAD_clean_linker_0--edge1-XUDNAN_clean_linker_2
_symmetry_space_group_name_H-M    P1
_symmetry_Int_Tables_number       1
_symmetry_cell_setting            triclinic
loop_
_symmetry_equiv_pos_as_xyz
'x, y, z'
_cell_length_a     55.834262
_cell_length_b     55.81078
_cell_length_c     55.903952
_cell_angle_alpha  90.029073
_cell_angle_beta   90.100022
_cell_angle_gamma 89.958976
loop_
_atom_site_label
_atom_site_type_symbol
_atom_site_fract_x
_atom_site_fract_y
_atom_site_fract_z
_atom_type_partial_charge
C0 C 0.96223 0.33562 0.3143 0.0
C1 C 0.97162 0.33127 0.33717 0.0
C2 C 0.96522 0.31867 0.29608 0.0
C3 C 0.9781 0.29735 0.30036 0.0
C4 C 0.9875 0.2933 0.32337 0.0
C5 C 0.9841 0.30993 0.34157 0.0
C6 C 0.98329 0.28002 0.28081 0.0
C7 C 0.98876 0.28814 0.25777 0.0
C8 C 0.99729 0.27241 0.24014 0.0
C9 C 1.00093 0.24796 0.2459 0.0
C10 C 0.99475 0.23945 0.26894 0.0
C11 C 0.98535 0.2555 0.28578 0.0
C12 C 1.00048 0.215 0.27791 0.0
C13 C 0.98172 0.1994 0.28419 0.0
C14 C 0.02332 0.21083 0.28764 0.0
C15 C 0.02678 0.19299 0.30498 0.0
C16 C 1.00754 0.17871 0.31278 0.0
C17 C 1.00372 0.2833 0.21678 0.0
C18 C 0.98576 0.2872 0.19952 0.0
C19 C 0.0251 0.29641 0.2151 0.0
C20 C 0.02771 0.3144 0.19782 0.0
C21 C 1.00899 0.3197 0.18176 0.0
C22 C 0.98846 0.30509 0.18202 0.0
C23 C 0.98527 0.18125 0.30128 0.0
H24 H 0.95252 0.35203 0.31061 0.0
H25 H 0.95755 0.32232 0.27866 0.0
H26 H 0.9982 0.27759 0.32727 0.0
H27 H 0.99187 0.30642 0.359 0.0
H28 H 0.98755 0.3071 0.25369 0.0
H29 H 0.98082 0.2489 0.30345 0.0
H30 H 1.00872 0.2359 0.23286 0.0
H31 H 0.96378 0.20263 0.27752 0.0
H32 H 0.03793 0.22296 0.28368 0.0
H33 H 0.04414 0.19148 0.31355 0.0
H34 H 0.96882 0.27785 0.20085 0.0
H35 H 0.03896 0.29422 0.22852 0.0
H36 H 0.97006 0.17071 0.30706 0.0
H37 H 0.97365 0.30881 0.17004 0.0
H38 H 0.04382 0.32521 0.19799 0.0
C39 C 0.7243 0.06373 0.33539 0.0
C40 C 0.70234 0.0519 0.33857 0.0
C41 C 0.73776 0.05988 0.31468 0.0
C42 C 0.72957 0.04399 0.29691 0.0
C43 C 0.70703 0.03318 0.29964 0.0
C44 C 0.69357 0.03712 0.3202 0.0
C45 C 0.74545 0.03623 0.27713 0.0
C46 C 0.76941 0.0307 0.28188 0.0
C47 C 0.7838 0.01925 0.2648 0.0
C48 C 0.77373 0.01303 0.24236 0.0
C49 C 0.7498 0.01963 0.23692 0.0
C50 C 0.73607 0.03133 0.25443 0.0
C51 C 0.73757 0.01343 0.214 0.0
C52 C 0.72451 0.0312 0.20175 0.0
C53 C 0.73483 0.98946 0.20687 0.0
C54 C 0.71833 0.98329 0.18885 0.0
C55 C 0.70418 1.00099 0.17759 0.0
C56 C 0.80844 0.01257 0.27255 0.0
C57 C 0.82347 0.03042 0.28211 0.0
C58 C 0.8143 0.98847 0.27669 0.0
C59 C 0.83334 0.98246 0.29202 0.0
C60 C 0.84685 1.00043 0.30364 0.0
C61 C 0.84242 0.02445 0.29745 0.0
C62 C 0.70808 0.02509 0.18383 0.0
H63 H 0.73134 0.07541 0.34918 0.0
H64 H 0.75493 0.06871 0.31292 0.0
H65 H 0.70036 0.02048 0.28658 0.0
H66 H 0.67692 0.0274 0.32228 0.0
H67 H 0.7766 0.0339 0.29963 0.0
H68 H 0.71752 0.03572 0.25068 0.0
H69 H 0.7844 1.00348 0.22929 0.0
H70 H 0.72621 0.04985 0.20687 0.0
H71 H 0.74431 0.97534 0.21624 0.0
H72 H 0.71581 0.96453 0.18462 0.0
H73 H 0.81921 0.04917 0.27942 0.0
H74 H 0.80289 0.97435 0.26982 0.0
H75 H 0.69804 0.03928 0.17519 0.0
H76 H 0.85223 0.03885 0.30598 0.0
H77 H 0.83655 0.96372 0.29587 0.0
C78 C 0.95936 0.7032 0.34047 0.0
C79 C 0.96787 0.67962 0.33995 0.0
C80 C 0.96583 0.71922 0.3224 0.0
C81 C 0.98142 0.71201 0.30393 0.0
C82 C 0.98973 0.68822 0.30357 0.0
C83 C 0.98283 0.67215 0.32129 0.0
C84 C 0.98988 0.7294 0.28569 0.0
C85 C 0.99454 0.75317 0.29209 0.0
C86 C 1.00325 0.76978 0.27543 0.0
C87 C 1.00807 0.76209 0.25174 0.0
C88 C 1.00363 0.73797 0.24512 0.0
C89 C 0.99425 0.72209 0.26213 0.0
C90 C 1.00822 0.72812 0.22078 0.0
C91 C 0.99319 0.73409 0.20155 0.0
C92 C 0.02402 0.70864 0.21814 0.0
C93 C 0.0241 0.69481 0.1972 0.0
C94 C 1.00818 0.6999 0.17831 0.0
C95 C 1.00746 0.79461 0.28434 0.0
C96 C 0.98883 0.8065 0.29646 0.0
C97 C 0.03074 0.80404 0.28593 0.0
C98 C 0.03547 0.82399 0.30062 0.0
C99 C 0.01704 0.83475 0.31414 0.0
C100 C 0.99355 0.82621 0.31119 0.0
C101 C 0.99314 0.72016 0.18058 0.0
H102 H 0.94777 0.70917 0.35481 0.0
H103 H 0.95871 0.73726 0.32302 0.0
H104 H 1.00216 0.68212 0.29003 0.0
H105 H 0.9898 0.65403 0.32086 0.0
H106 H 0.99202 0.75878 0.31049 0.0
H107 H 0.9902 0.70386 0.25679 0.0
H108 H 0.01514 0.77461 0.23875 0.0
H109 H 0.98038 0.74857 0.20332 0.0
H110 H 0.03555 0.7034 0.23285 0.0
H111 H 0.03631 0.67978 0.19606 0.0
H112 H 0.97073 0.79955 0.29568 0.0
H113 H 0.04551 0.79501 0.27719 0.0
H114 H 0.98041 0.72462 0.16666 0.0
H115 H 0.97884 0.83434 0.32087 0.0
H116 H 0.05378 0.83012 0.30244 0.0
C117 C 0.34783 0.04201 0.30125 0.0
C118 C 0.34658 0.03477 0.32532 0.0
C119 C 0.32789 0.04013 0.2863 0.0
C120 C 0.30634 0.03022 0.29474 0.0
C121 C 0.30491 0.02351 0.31895 0.0
C122 C 0.32462 0.02611 0.33409 0.0
C123 C 0.28588 0.02584 0.27815 0.0
C124 C 0.29008 0.01948 0.2543 0.0
C125 C 0.27121 0.01444 0.23854 0.0
C126 C 0.24736 0.01476 0.24711 0.0
C127 C 0.24283 0.02127 0.27119 0.0
C128 C 0.26217 0.02708 0.28622 0.0
C129 C 0.21854 0.02197 0.28215 0.0
C130 C 0.21061 0.04356 0.29244 0.0
C131 C 0.20682 1.00058 0.28847 0.0
C132 C 0.18898 1.0006 0.30628 0.0
C133 C 0.18282 0.02196 0.31817 0.0
C134 C 0.27815 1.00876 0.21352 0.0
C135 C 0.28692 0.02736 0.19899 0.0
C136 C 0.284 0.98505 0.20753 0.0
C137 C 0.30004 0.9802 0.18883 0.0
C138 C 0.31077 0.99899 0.1758 0.0
C139 C 0.30296 0.02254 0.18028 0.0
C140 C 0.19307 0.04354 0.31029 0.0
H141 H 0.36437 0.04854 0.29361 0.0
H142 H 0.32959 0.04614 0.26798 0.0
H143 H 0.2888 0.01557 0.32619 0.0
H144 H 0.3226 0.02097 0.35264 0.0
H145 H 0.3083 0.01789 0.24781 0.0
H146 H 0.25858 0.03241 0.30452 0.0
H147 H 0.23265 0.01038 0.23524 0.0
H148 H 0.21955 0.06025 0.2882 0.0
H149 H 0.21292 0.98364 0.28125 0.0
H150 H 0.1815 0.98368 0.31211 0.0
H151 H 0.28324 0.04585 0.20362 0.0
H152 H 0.278 0.97042 0.21874 0.0
H153 H 0.18864 0.06027 0.31908 0.0
H154 H 0.31085 0.03749 0.1708 0.0
H155 H 0.30527 0.96179 0.18563 0.0
C156 C 0.93289 0.68655 0.70237 0.0
C157 C 0.94537 0.68485 0.68059 0.0
C158 C 0.93795 0.70509 0.71842 0.0
C159 C 0.95539 0.72232 0.71283 0.0
C160 C 0.96574 0.72213 0.68994 0.0
C161 C 0.9608 0.70359 0.67399 0.0
C162 C 0.96601 0.73766 0.73172 0.0
C163 C 0.97286 0.72741 0.75355 0.0
C164 C 0.98805 0.73957 0.76951 0.0
C165 C 0.99657 0.76265 0.76321 0.0
C166 C 0.98864 0.77363 0.74178 0.0
C167 C 0.9732 0.76104 0.72648 0.0
C168 C 0.99794 0.79685 0.73273 0.0
C169 C 0.98171 0.81546 0.72761 0.0
C170 C 0.02084 0.79767 0.72245 0.0
C171 C 0.02651 0.81536 0.70555 0.0
C172 C 0.00942 0.83266 0.69868 0.0
C173 C 0.99592 0.72641 0.79143 0.0
C174 C 0.97877 0.71451 0.80552 0.0
C175 C 0.02028 0.72212 0.79606 0.0
C176 C 0.02725 0.70532 0.81349 0.0
C177 C 0.01001 0.69246 0.82675 0.0
C178 C 0.98569 0.69782 0.82291 0.0
C179 C 0.98744 0.83328 0.71089 0.0
H180 H 0.92051 0.67264 0.70774 0.0
H181 H 0.92938 0.70507 0.73579 0.0
H182 H 0.97941 0.73501 0.68511 0.0
H183 H 0.97092 0.70284 0.6575 0.0
H184 H 0.96785 0.70904 0.75739 0.0
H185 H 0.96798 0.76897 0.70953 0.0
H186 H 1.00909 0.77191 0.77479 0.0
H187 H 0.96376 0.81497 0.73493 0.0
H188 H 0.03351 0.78331 0.72568 0.0
H189 H 0.04372 0.81454 0.69668 0.0
H190 H 0.95984 0.71746 0.80242 0.0
H191 H 0.0339 0.73068 0.78526 0.0
H192 H 0.97382 0.84622 0.70598 0.0
H193 H 0.97189 0.68884 0.8331 0.0
H194 H 0.04616 0.70166 0.81581 0.0
C195 C 0.33632 1.00877 0.70111 0.0
C196 C 0.32915 0.01869 0.67908 0.0
C197 C 0.31993 1.00623 0.71978 0.0
C198 C 0.29616 0.01408 0.71706 0.0
C199 C 0.28922 0.02453 0.69524 0.0
C200 C 0.30534 0.02639 0.6764 0.0
C201 C 0.27852 0.01167 0.73678 0.0
C202 C 0.2854 0.0148 0.76066 0.0
C203 C 0.26853 0.01422 0.77921 0.0
C204 C 0.24389 0.01125 0.77353 0.0
C205 C 0.23683 1.00768 0.74936 0.0
C206 C 0.25441 1.00731 0.73154 0.0
C207 C 0.21151 1.00618 0.74083 0.0
C208 C 0.20452 0.9866 0.7265 0.0
C209 C 0.19715 0.02684 0.74055 0.0
C210 C 0.17726 0.02847 0.72515 0.0
C211 C 0.17124 0.00947 0.70953 0.0
C212 C 0.27813 0.0176 0.80388 0.0
C213 C 0.28728 0.99775 0.81647 0.0
C214 C 0.28534 0.04063 0.81104 0.0
C215 C 0.30263 0.04368 0.82904 0.0
C216 C 0.31327 0.02376 0.84035 0.0
C217 C 0.30451 1.0008 0.83464 0.0
C218 C 0.18472 0.98822 0.71108 0.0
H219 H 0.3546 1.003 0.70406 0.0
H220 H 0.32591 0.99792 0.73624 0.0
H221 H 0.27128 0.03141 0.69258 0.0
H222 H 0.29888 0.03368 0.65965 0.0
H223 H 0.304 0.01834 0.76497 0.0
H224 H 0.249 1.00432 0.71314 0.0
H225 H 0.23055 0.0117 0.78757 0.0
H226 H 0.21548 0.97058 0.72597 0.0
H227 H 0.20243 0.04247 0.75077 0.0
H228 H 0.16749 0.04522 0.72447 0.0
H229 H 0.28265 0.97976 0.81085 0.0
H230 H 0.27913 0.05621 0.80128 0.0
H231 H 0.18045 0.97303 0.6998 0.0
H232 H 0.31237 0.98505 0.84282 0.0
H233 H 0.30872 0.06165 0.83312 0.0
C234 C 0.05515 0.30379 0.67856 0.0
C235 C 0.06967 0.32292 0.68582 0.0
C236 C 0.04795 0.28652 0.695 0.0
C237 C 0.05554 0.28776 0.71899 0.0
C238 C 0.07117 0.30639 0.72585 0.0
C239 C 0.07788 0.32404 0.70946 0.0
C240 C 0.0453 0.27107 0.73701 0.0
C241 C 0.03913 0.24754 0.73078 0.0
C242 C 0.02582 0.23297 0.74633 0.0
C243 C 0.01941 0.24192 0.76915 0.0
C244 C 0.02708 0.26502 0.77627 0.0
C245 C 0.03949 0.2794 0.75989 0.0
C246 C 0.02194 0.27571 0.80012 0.0
C247 C 0.99833 0.27995 0.80762 0.0
C248 C 0.04084 0.28622 0.81308 0.0
C249 C 0.03628 0.30191 0.83203 0.0
C250 C 0.01267 0.30743 0.83867 0.0
C251 C 0.01745 0.20952 0.73678 0.0
C252 C 0.99312 0.20614 0.73139 0.0
C253 C 0.03425 0.19322 0.72741 0.0
C254 C 0.02715 0.17517 0.71146 0.0
C255 C 1.00308 0.17315 0.70427 0.0
C256 C 0.98601 0.18818 0.71527 0.0
C257 C 0.99373 0.29563 0.82678 0.0
H258 H 0.04843 0.30284 0.66039 0.0
H259 H 0.0355 0.2729 0.68904 0.0
H260 H 0.0778 0.30767 0.74402 0.0
H261 H 0.08919 0.33871 0.71528 0.0
H262 H 0.04383 0.24073 0.71324 0.0
H263 H 0.04364 0.29773 0.76478 0.0
H264 H 1.00898 0.23096 0.78125 0.0
H265 H 0.98343 0.27243 0.79773 0.0
H266 H 0.05924 0.2833 0.80765 0.0
H267 H 0.05129 0.3102 0.84112 0.0
H268 H 0.97984 0.21863 0.73804 0.0
H269 H 0.05317 0.19561 0.73102 0.0
H270 H 0.97531 0.29947 0.83144 0.0
H271 H 0.96727 0.18691 0.71043 0.0
H272 H 0.04081 0.16407 0.70333 0.0
C273 C 0.70936 0.07984 0.67742 0.0
C274 C 0.68596 0.08448 0.68545 0.0
C275 C 0.72719 0.07323 0.69358 0.0
C276 C 0.72244 0.07259 0.71834 0.0
C277 C 0.70075 0.08271 0.72634 0.0
C278 C 0.68243 0.0879 0.71013 0.0
C279 C 0.73748 0.05749 0.73471 0.0
C280 C 0.7611 0.05129 0.72872 0.0
C281 C 0.77306 0.03224 0.74009 0.0
C282 C 0.76186 0.02066 0.75967 0.0
C283 C 0.73873 0.02785 0.7671 0.0
C284 C 0.72682 0.04586 0.75428 0.0
C285 C 0.72565 0.01685 0.78762 0.0
C286 C 0.70217 1.00823 0.78422 0.0
C287 C 0.73418 0.01947 0.8111 0.0
C288 C 0.71913 0.01482 0.8307 0.0
C289 C 0.69516 1.00744 0.82729 0.0
C290 C 0.79552 0.02322 0.72862 0.0
C291 C 0.79712 0.99932 0.7208 0.0
C292 C 0.8131 0.03954 0.72085 0.0
C293 C 0.83068 0.03265 0.70434 0.0
C294 C 0.83133 1.00916 0.69522 0.0
C295 C 0.81481 0.99237 0.70432 0.0
C296 C 0.68714 1.00364 0.80374 0.0
H297 H 0.7134 0.07885 0.65851 0.0
H298 H 0.7437 0.06649 0.68612 0.0
H299 H 0.69692 0.08457 0.74521 0.0
H300 H 0.66502 0.09233 0.71732 0.0
H301 H 0.76983 0.06022 0.71396 0.0
H302 H 0.70858 0.04997 0.75929 0.0
H303 H 0.77078 1.00594 0.76865 0.0
H304 H 0.69504 1.00615 0.7663 0.0
H305 H 0.75196 0.02655 0.8143 0.0
H306 H 0.72598 0.01811 0.84853 0.0
H307 H 0.78367 0.98639 0.72609 0.0
H308 H 0.81245 0.05807 0.72658 0.0
H309 H 0.66906 0.99749 0.80034 0.0
H310 H 0.81468 0.97413 0.69773 0.0
H311 H 0.84341 0.04593 0.69826 0.0
C312 C 0.33836 0.31575 0.95958 0.0
C313 C 0.33463 0.33959 0.96664 0.0
C314 C 0.322 0.29796 0.9662 0.0
C315 C 0.30198 0.30372 0.98037 0.0
C316 C 0.29846 0.3277 0.9873 0.0
C317 C 0.31445 0.34541 0.98032 0.0
C318 C 0.28529 0.28494 0.98911 0.0
C319 C 0.29385 0.26257 0.99651 0.0
C320 C 0.27869 0.24589 1.00756 0.0
C321 C 0.2544 0.25204 0.01179 0.0
C322 C 0.24537 0.27436 1.00362 0.0
C323 C 0.26096 0.2902 0.99198 0.0
C324 C 0.22047 0.28316 1.00802 0.0
C325 C 0.20752 0.29351 0.98898 0.0
C326 C 0.21203 0.28667 0.03143 0.0
C327 C 0.19213 0.30155 0.03576 0.0
C328 C 0.18039 0.31342 0.01677 0.0
C329 C 0.28981 0.22284 0.01503 0.0
C330 C 0.29586 0.20584 0.99747 0.0
C331 C 0.30059 0.22104 0.03767 0.0
C332 C 0.3182 0.20361 0.04214 0.0
C333 C 0.32555 0.18762 0.02403 0.0
C334 C 0.31338 0.18832 1.00196 0.0
C335 C 0.1879 0.30853 0.99329 0.0
H336 H 0.35393 0.31092 0.9491 0.0
H337 H 0.32515 0.27973 0.96036 0.0
H338 H 0.28376 0.33279 0.99885 0.0
H339 H 0.31154 0.36359 0.98649 0.0
H340 H 0.31271 0.25832 0.99459 0.0
H341 H 0.25417 0.30735 0.98587 0.0
H342 H 0.24273 0.23962 0.02102 0.0
H343 H 0.2136 0.29121 0.97073 0.0
H344 H 0.22183 0.27934 0.04649 0.0
H345 H 0.18679 0.30487 0.05408 0.0
H346 H 0.28835 0.20726 0.97965 0.0
H347 H 0.29674 0.23427 0.05132 0.0
H348 H 0.179 0.31689 0.97822 0.0
H349 H 0.31862 0.17651 0.9875 0.0
H350 H 0.3269 0.20343 0.05947 0.0
C351 C 0.3216 0.68051 0.98031 0.0
C352 C 0.34097 0.68585 0.96523 0.0
C353 C 0.3016 0.69544 0.98097 0.0
C354 C 0.30054 0.71602 0.96656 0.0
C355 C 0.31921 0.72052 0.95035 0.0
C356 C 0.33927 0.70557 0.9497 0.0
C357 C 0.28162 0.73414 0.97082 0.0
C358 C 0.2879 0.75827 0.97337 0.0
C359 C 0.27131 0.77528 0.98153 0.0
C360 C 0.2478 0.76784 0.9873 0.0
C361 C 0.24102 0.7437 0.98369 0.0
C362 C 0.25801 0.72716 0.97537 0.0
C363 C 0.21715 0.73407 0.99015 0.0
C364 C 0.21249 0.72793 0.01403 0.0
C365 C 0.20228 0.72474 0.97209 0.0
C366 C 0.18425 0.70818 0.97761 0.0
C367 C 0.18103 0.7003 1.00127 0.0
C368 C 0.28026 0.80009 0.9853 0.0
C369 C 0.28175 0.80981 1.00842 0.0
C370 C 0.29221 0.81179 0.96651 0.0
C371 C 0.30659 0.83182 0.97094 0.0
C372 C 0.30948 0.84068 0.99431 0.0
C373 C 0.29621 0.82992 0.01289 0.0
C374 C 0.19463 0.71117 0.01954 0.0
H375 H 0.32248 0.66563 0.99271 0.0
H376 H 0.28768 0.69167 0.99391 0.0
H377 H 0.3187 0.73609 0.9388 0.0
H378 H 0.35377 0.70987 0.93761 0.0
H379 H 0.30632 0.76367 0.97044 0.0
H380 H 0.25302 0.70848 0.97337 0.0
H381 H 0.235 0.78061 0.99435 0.0
H382 H 0.22402 0.73445 0.0282 0.0
H383 H 0.20589 0.72879 0.95349 0.0
H384 H 0.17423 0.70006 0.96311 0.0
H385 H 0.27312 0.80089 0.02329 0.0
H386 H 0.29147 0.80458 0.94853 0.0
H387 H 0.19244 0.70564 0.03797 0.0
H388 H 0.29804 0.83617 0.03114 0.0
H389 H 0.31602 0.83994 0.9561 0.0
C390 C 0.71634 0.33471 0.05225 0.0
C391 C 0.69402 0.32783 0.06155 0.0
C392 C 0.73359 0.31758 0.04673 0.0
C393 C 0.72945 0.29314 0.05136 0.0
C394 C 0.70831 0.28669 0.06344 0.0
C395 C 0.69062 0.30375 0.0681 0.0
C396 C 0.74561 0.27453 0.04104 0.0
C397 C 0.76984 0.27949 0.03688 0.0
C398 C 0.78406 0.26434 0.02277 0.0
C399 C 0.77429 0.24247 0.01435 0.0
C400 C 0.75026 0.23647 0.0198 0.0
C401 C 0.73617 0.25282 0.03261 0.0
C402 C 0.73871 0.2135 0.01264 0.0
C403 C 0.71752 0.21395 0.99896 0.0
C404 C 0.74522 0.19204 0.02397 0.0
C405 C 0.7302 0.17189 0.02276 0.0
C406 C 0.70829 0.17265 0.01008 0.0
C407 C 0.80756 0.27415 0.01481 0.0
C408 C 0.81039 0.28135 0.99092 0.0
C409 C 0.82387 0.28287 0.03198 0.0
C410 C 0.84104 0.30014 0.02586 0.0
C411 C 0.84225 0.30924 1.00243 0.0
C412 C 0.82751 0.29872 0.9848 0.0
C413 C 0.70257 0.19381 0.99762 0.0
H414 H 0.72008 0.35323 0.0479 0.0
H415 H 0.74944 0.32359 0.03741 0.0
H416 H 0.70479 0.26824 0.06826 0.0
H417 H 0.67379 0.29765 0.07546 0.0
H418 H 0.77749 0.29607 0.04346 0.0
H419 H 0.71743 0.24866 0.03539 0.0
H420 H 0.78503 0.23057 1.00345 0.0
H421 H 0.71189 0.23038 0.9903 0.0
H422 H 0.76108 0.19135 0.03514 0.0
H423 H 0.73524 0.15612 0.03286 0.0
H424 H 0.7979 0.27527 0.97737 0.0
H425 H 0.82189 0.27791 0.05061 0.0
H426 H 0.68623 0.19506 0.98725 0.0
H427 H 0.82823 0.30494 0.96646 0.0
H428 H 0.85197 0.30776 0.03996 0.0
C429 C 0.71999 0.68691 0.06462 0.0
C430 C 0.69558 0.68884 0.05863 0.0
C431 C 0.73584 0.70564 0.05963 0.0
C432 C 0.7279 0.72636 0.04755 0.0
C433 C 0.70306 0.72903 0.04374 0.0
C434 C 0.68716 0.71083 0.04975 0.0
C435 C 0.74524 0.74323 0.03589 0.0
C436 C 0.76777 0.73506 0.02817 0.0
C437 C 0.78194 0.74854 0.01237 0.0
C438 C 0.77271 0.77026 1.00307 0.0
C439 C 0.75053 0.77914 0.01146 0.0
C440 C 0.73789 0.76621 0.02879 0.0
C441 C 0.73734 0.79921 0.99996 0.0
C442 C 0.7372 0.82214 0.01028 0.0
C443 C 0.71946 0.79346 0.98326 0.0
C444 C 0.70096 0.80959 0.97812 0.0
C445 C 0.6999 0.8323 0.98923 0.0
C446 C 0.80499 0.73759 1.00438 0.0
C447 C 0.8215 0.72947 0.02164 0.0
C448 C 0.80818 0.73048 0.9805 0.0
C449 C 0.82628 0.71405 0.97443 0.0
C450 C 0.84164 0.70441 0.99208 0.0
C451 C 0.83965 0.7132 0.01557 0.0
C452 C 0.71892 0.83863 1.00471 0.0
H453 H 0.72729 0.67046 0.07181 0.0
H454 H 0.75452 0.70315 0.06412 0.0
H455 H 0.69563 0.74437 0.03458 0.0
H456 H 0.66833 0.71359 0.04602 0.0
H457 H 0.7739 0.71731 0.03295 0.0
H458 H 0.72113 0.77353 0.03522 0.0
H459 H 0.78242 0.77989 0.98935 0.0
H460 H 0.7504 0.82681 0.02371 0.0
H461 H 0.71866 0.7756 0.97568 0.0
H462 H 0.68672 0.80338 0.96656 0.0
H463 H 0.81935 0.7345 0.04024 0.0
H464 H 0.7956 0.73618 0.96687 0.0
H465 H 0.71935 0.85599 0.01331 0.0
H466 H 0.85095 0.70618 0.02969 0.0
H467 H 0.82751 0.708 0.95607 0.0
C468 C 0.44871 0.82845 0.80777 0.0
C469 C 0.46145 0.83133 0.82927 0.0
C470 C 0.45342 0.8089 0.79287 0.0
C471 C 0.47102 0.792 0.7992 0.0
C472 C 0.48237 0.79397 0.82154 0.0
C473 C 0.47764 0.81341 0.83641 0.0
C474 C 0.48031 0.77468 0.78139 0.0
C475 C 0.48531 0.78249 0.75818 0.0
C476 C 0.4984 0.76829 0.74215 0.0
C477 C 0.50692 0.74559 0.74988 0.0
C478 C 0.50092 0.73704 0.77302 0.0
C479 C 0.48748 0.75171 0.78835 0.0
C480 C 0.50975 0.71399 0.78324 0.0
C481 C 0.49309 0.69714 0.7918 0.0
C482 C 0.53374 0.71186 0.79052 0.0
C483 C 0.54049 0.69451 0.80747 0.0
C484 C 0.5234 0.67885 0.81752 0.0
C485 C 0.50382 0.77912 0.71832 0.0
C486 C 0.48507 0.78961 0.70506 0.0
C487 C 0.52751 0.7838 0.71131 0.0
C488 C 0.53228 0.79976 0.69241 0.0
C489 C 0.51346 0.81148 0.6802 0.0
C490 C 0.4898 0.80559 0.68637 0.0
C491 C 0.49984 0.6797 0.80859 0.0
H492 H 0.43586 0.84181 0.80201 0.0
H493 H 0.44413 0.80762 0.77589 0.0
H494 H 0.49628 0.78149 0.82682 0.0
H495 H 0.48802 0.81523 0.85269 0.0
H496 H 0.48034 0.80055 0.75297 0.0
H497 H 0.48358 0.74562 0.80636 0.0
H498 H 0.51777 0.7347 0.73806 0.0
H499 H 0.47437 0.69865 0.78687 0.0
H500 H 0.54686 0.72486 0.78463 0.0
H501 H 0.55888 0.69418 0.81363 0.0
H502 H 0.4666 0.78642 0.71008 0.0
H503 H 0.54233 0.7764 0.72143 0.0
H504 H 0.48614 0.66813 0.81593 0.0
H505 H 0.47485 0.81377 0.67707 0.0
H506 H 0.55075 0.80385 0.68819 0.0
C507 C 0.1894 0.47326 0.81836 0.0
C508 C 0.19478 0.45625 0.83613 0.0
C509 C 0.20565 0.47798 0.80007 0.0
C510 C 0.22769 0.46591 0.79919 0.0
C511 C 0.23253 0.44792 0.8161 0.0
C512 C 0.21619 0.44309 0.83437 0.0
C513 C 0.24645 0.4741 0.78238 0.0
C514 C 0.26958 0.47872 0.79081 0.0
C515 C 0.28678 0.4899 0.7763 0.0
C516 C 0.28036 0.49677 0.75275 0.0
C517 C 0.25729 0.49125 0.74377 0.0
C518 C 0.24065 0.4799 0.75875 0.0
C519 C 0.24879 0.49842 0.7196 0.0
C520 C 0.24471 0.52267 0.71438 0.0
C521 C 0.23906 0.48093 0.70429 0.0
C522 C 0.22388 0.48743 0.6854 0.0
C523 C 0.21789 0.51159 0.68151 0.0
C524 C 0.31066 0.49504 0.78719 0.0
C525 C 0.32012 0.51837 0.7876 0.0
C526 C 0.32218 0.47714 0.80072 0.0
C527 C 0.34161 0.48266 0.81551 0.0
C528 C 0.35025 0.50623 0.8171 0.0
C529 C 0.33977 0.5239 0.80239 0.0
C530 C 0.22939 0.5292 0.69554 0.0
H531 H 0.1733 0.48404 0.81935 0.0
H532 H 0.20155 0.49218 0.7875 0.0
H533 H 0.24929 0.43815 0.81563 0.0
H534 H 0.22068 0.42961 0.84757 0.0
H535 H 0.27385 0.47481 0.80933 0.0
H536 H 0.22269 0.47635 0.75221 0.0
H537 H 0.29318 0.50595 0.74149 0.0
H538 H 0.2517 0.53649 0.72608 0.0
H539 H 0.24169 0.46208 0.70811 0.0
H540 H 0.21532 0.47336 0.67514 0.0
H541 H 0.3115 0.5326 0.77761 0.0
H542 H 0.31545 0.45893 0.80062 0.0
H543 H 0.22547 0.54801 0.69281 0.0
H544 H 0.34601 0.54225 0.80315 0.0
H545 H 0.3496 0.46848 0.82609 0.0
C546 C 0.46814 0.21481 0.83994 0.0
C547 C 0.48077 0.19305 0.84038 0.0
C548 C 0.46991 0.23001 0.82021 0.0
C549 C 0.48445 0.22373 0.80069 0.0
C550 C 0.49607 0.2014 0.80068 0.0
C551 C 0.49421 0.18621 0.8203 0.0
C552 C 0.48949 0.24116 0.78143 0.0
C553 C 0.49457 0.26501 0.78712 0.0
C554 C 0.50228 0.28122 0.76963 0.0
C555 C 0.50491 0.27322 0.74566 0.0
C556 C 0.49918 0.24916 0.73971 0.0
C557 C 0.49145 0.23355 0.75771 0.0
C558 C 0.50062 0.23886 0.71522 0.0
C559 C 0.47923 0.23464 0.70272 0.0
C560 C 0.52138 0.22659 0.70793 0.0
C561 C 0.52051 0.20979 0.68915 0.0
C562 C 0.49874 0.20456 0.6774 0.0
C563 C 0.50876 0.30559 0.77834 0.0
C564 C 0.49049 0.32088 0.78665 0.0
C565 C 0.53233 0.30989 0.78601 0.0
C566 C 0.53719 0.32761 0.80319 0.0
C567 C 0.51859 0.3415 0.81314 0.0
C568 C 0.49537 0.33876 0.8037 0.0
C569 C 0.47826 0.21777 0.68418 0.0
H570 H 0.45743 0.22034 0.85511 0.0
H571 H 0.46047 0.24697 0.82052 0.0
H572 H 0.5077 0.1962 0.78608 0.0
H573 H 0.50446 0.16972 0.82029 0.0
H574 H 0.49364 0.27085 0.80562 0.0
H575 H 0.48719 0.21512 0.75318 0.0
H576 H 0.51118 0.28542 0.73199 0.0
H577 H 0.46275 0.24308 0.70856 0.0
H578 H 0.53795 0.22887 0.71778 0.0
H579 H 0.53678 0.20038 0.68438 0.0
H580 H 0.47205 0.31755 0.78161 0.0
H581 H 0.54665 0.29803 0.78046 0.0
H582 H 0.46097 0.21415 0.67619 0.0
H583 H 0.48059 0.34897 0.81099 0.0
H584 H 0.55534 0.32939 0.80984 0.0
C585 C 0.83676 0.57151 0.80156 0.0
C586 C 0.83892 0.55958 0.82362 0.0
C587 C 0.81701 0.56721 0.78671 0.0
C588 C 0.79908 0.55102 0.79377 0.0
C589 C 0.8004 0.54064 0.81659 0.0
C590 C 0.82006 0.54476 0.83125 0.0
C591 C 0.78149 0.54137 0.77641 0.0
C592 C 0.78941 0.53358 0.75401 0.0
C593 C 0.77557 0.51791 0.74007 0.0
C594 C 0.75315 0.51001 0.74883 0.0
C595 C 0.7443 0.51917 0.77074 0.0
C596 C 0.75845 0.53515 0.78399 0.0
C597 C 0.72204 0.5105 0.78243 0.0
C598 C 0.70425 0.5271 0.78889 0.0
C599 C 0.72155 0.48762 0.79281 0.0
C600 C 0.7046 0.48201 0.81047 0.0
C601 C 0.68767 0.49916 0.81813 0.0
C602 C 0.78711 0.50831 0.71813 0.0
C603 C 0.79402 0.52435 0.70002 0.0
C604 C 0.79742 0.48537 0.71851 0.0
C605 C 0.81577 0.47937 0.70243 0.0
C606 C 0.82416 0.49619 0.6856 0.0
C607 C 0.81223 0.51833 0.68386 0.0
C608 C 0.68718 0.52147 0.80636 0.0
H609 H 0.85079 0.58334 0.79532 0.0
H610 H 0.81634 0.5756 0.76925 0.0
H611 H 0.78722 0.52767 0.82245 0.0
H612 H 0.82117 0.53477 0.84781 0.0
H613 H 0.80744 0.53791 0.74825 0.0
H614 H 0.75226 0.54121 0.80136 0.0
H615 H 0.74286 0.4969 0.73888 0.0
H616 H 0.70447 0.54503 0.78146 0.0
H617 H 0.73546 0.47472 0.78868 0.0
H618 H 0.70581 0.46471 0.81914 0.0
H619 H 0.78673 0.54235 0.69965 0.0
H620 H 0.79281 0.47285 0.73257 0.0
H621 H 0.67414 0.53497 0.81122 0.0
H622 H 0.81823 0.53181 0.6713 0.0
H623 H 0.82429 0.462 0.70406 0.0
C624 C 0.46323 0.18242 0.21158 0.0
C625 C 0.47792 0.1811 0.19124 0.0
C626 C 0.4648 0.20202 0.22704 0.0
C627 C 0.4811 0.22061 0.22241 0.0
C628 C 0.49449 0.22009 0.20116 0.0
C629 C 0.49292 0.20052 0.18574 0.0
C630 C 0.4867 0.23868 0.24099 0.0
C631 C 0.49073 0.23126 0.26454 0.0
C632 C 0.50004 0.24698 0.2818 0.0
C633 C 0.50548 0.27086 0.27509 0.0
C634 C 0.50053 0.27873 0.2515 0.0
C635 C 0.49107 0.26252 0.2348 0.0
C636 C 0.50671 0.30289 0.2423 0.0
C637 C 0.48826 0.31943 0.2376 0.0
C638 C 0.52891 0.30605 0.231 0.0
C639 C 0.53189 0.32393 0.21365 0.0
C640 C 0.51277 0.33914 0.20738 0.0
C641 C 0.50526 0.23671 0.30589 0.0
C642 C 0.48758 0.22291 0.31736 0.0
C643 C 0.52873 0.23612 0.31497 0.0
C644 C 0.53465 0.22083 0.3341 0.0
C645 C 0.51723 0.20573 0.34441 0.0
C646 C 0.49349 0.20758 0.33627 0.0
C647 C 0.49134 0.33757 0.22045 0.0
H648 H 0.45118 0.16789 0.21603 0.0
H649 H 0.45403 0.20215 0.24313 0.0
H650 H 0.50743 0.23399 0.19724 0.0
H651 H 0.50466 0.19994 0.17035 0.0
H652 H 0.48804 0.21258 0.26916 0.0
H653 H 0.48798 0.26834 0.21653 0.0
H654 H 0.51339 0.28306 0.28793 0.0
H655 H 0.47076 0.31697 0.24555 0.0
H656 H 0.54319 0.29318 0.23379 0.0
H657 H 0.54859 0.3247 0.20385 0.0
H658 H 0.46932 0.22297 0.31076 0.0
H659 H 0.5428 0.24622 0.30628 0.0
H660 H 0.47623 0.34884 0.21583 0.0
H661 H 0.47951 0.19669 0.34412 0.0
H662 H 0.55313 0.21988 0.33994 0.0
C663 C 0.81202 0.46412 0.18416 0.0
C664 C 0.8306 0.48081 0.18148 0.0
C665 C 0.79813 0.46412 0.20486 0.0
C666 C 0.8026 0.48085 0.22311 0.0
C667 C 0.82194 0.49672 0.22091 0.0
C668 C 0.83581 0.49671 0.20027 0.0
C669 C 0.7856 0.48372 0.24306 0.0
C670 C 0.79378 0.48784 0.2663 0.0
C671 C 0.77778 0.49323 0.28484 0.0
C672 C 0.75286 0.4945 0.27979 0.0
C673 C 0.74452 0.49009 0.25619 0.0
C674 C 0.7611 0.48463 0.23826 0.0
C675 C 0.71921 0.49272 0.2482 0.0
C676 C 0.70806 0.47325 0.23667 0.0
C677 C 0.70946 0.51569 0.24502 0.0
C678 C 0.69012 0.51933 0.2293 0.0
C679 C 0.68014 0.50006 0.21629 0.0
C680 C 0.78845 0.49713 0.30894 0.0
C681 C 0.78693 0.47914 0.32637 0.0
C682 C 0.80524 0.51565 0.3122 0.0
C683 C 0.82088 0.51564 0.33187 0.0
C684 C 0.82033 0.49696 0.34876 0.0
C685 C 0.80267 0.47902 0.34601 0.0
C686 C 0.68882 0.47686 0.22092 0.0
H687 H 0.80791 0.45145 0.17006 0.0
H688 H 0.78346 0.45152 0.2063 0.0
H689 H 0.82554 0.51005 0.23454 0.0
H690 H 0.84985 0.50999 0.19854 0.0
H691 H 0.81284 0.4869 0.27002 0.0
H692 H 0.75488 0.48231 0.21999 0.0
H693 H 0.7403 0.49901 0.29383 0.0
H694 H 0.71549 0.45539 0.2384 0.0
H695 H 0.71809 0.53111 0.25305 0.0
H696 H 0.68405 0.53749 0.22618 0.0
H697 H 0.77472 0.46425 0.32394 0.0
H698 H 0.80713 0.52949 0.29875 0.0
H699 H 0.68133 0.46153 0.21168 0.0
H700 H 0.80174 0.46411 0.35833 0.0
H701 H 0.83379 0.53002 0.33349 0.0
C702 C 0.45845 0.80278 0.18871 0.0
C703 C 0.47114 0.82434 0.18581 0.0
C704 C 0.46313 0.78789 0.20828 0.0
C705 C 0.48055 0.79431 0.2253 0.0
C706 C 0.49212 0.81655 0.22312 0.0
C707 C 0.48748 0.83137 0.20362 0.0
C708 C 0.48902 0.77689 0.24347 0.0
C709 C 0.49393 0.75323 0.23676 0.0
C710 C 0.5065 0.73767 0.25201 0.0
C711 C 0.51431 0.74616 0.27459 0.0
C712 C 0.50824 0.76964 0.28203 0.0
C713 C 0.49548 0.78462 0.2664 0.0
C714 C 0.51657 0.7805 0.30485 0.0
C715 C 0.49956 0.78906 0.3213 0.0
C716 C 0.54039 0.78821 0.30703 0.0
C717 C 0.54666 0.80559 0.32409 0.0
C718 C 0.52924 0.81557 0.33937 0.0
C719 C 0.5129 0.7137 0.24222 0.0
C720 C 0.49469 0.69888 0.23302 0.0
C721 C 0.53679 0.70833 0.23655 0.0
C722 C 0.54215 0.68989 0.2203 0.0
C723 C 0.52374 0.67639 0.20943 0.0
C724 C 0.50004 0.68038 0.21692 0.0
C725 C 0.50585 0.80625 0.33849 0.0
H726 H 0.4455 0.79706 0.17545 0.0
H727 H 0.45373 0.77097 0.20965 0.0
H728 H 0.50594 0.82187 0.23566 0.0
H729 H 0.49787 0.84764 0.20179 0.0
H730 H 0.48946 0.7473 0.21882 0.0
H731 H 0.4916 0.80291 0.27172 0.0
H732 H 0.52485 0.7347 0.28618 0.0
H733 H 0.48096 0.78378 0.31967 0.0
H734 H 0.55374 0.78229 0.29428 0.0
H735 H 0.56491 0.81214 0.32447 0.0
H736 H 0.47609 0.7028 0.23687 0.0
H737 H 0.55114 0.71964 0.24308 0.0
H738 H 0.49192 0.81358 0.34981 0.0
H739 H 0.48537 0.67052 0.20891 0.0
H740 H 0.56066 0.68707 0.21525 0.0
C741 C 0.19861 0.5465 0.1754 0.0
C742 C 0.18086 0.56315 0.18193 0.0
C743 C 0.21748 0.5414 0.19082 0.0
C744 C 0.21894 0.55267 0.21319 0.0
C745 C 0.20208 0.57033 0.21924 0.0
C746 C 0.18323 0.57563 0.20366 0.0
C747 C 0.23651 0.54396 0.2309 0.0
C748 C 0.26012 0.53937 0.22406 0.0
C749 C 0.27621 0.52798 0.23961 0.0
C750 C 0.26836 0.52132 0.26281 0.0
C751 C 0.24455 0.52652 0.27001 0.0
C752 C 0.22897 0.53777 0.25389 0.0
C753 C 0.2348 0.52138 0.2942 0.0
C754 C 0.21886 0.50216 0.29754 0.0
C755 C 0.23572 0.53938 0.31165 0.0
C756 C 0.22048 0.53873 0.33153 0.0
C757 C 0.20388 0.51989 0.33474 0.0
C758 C 0.30033 0.52232 0.22975 0.0
C759 C 0.30628 0.49864 0.22371 0.0
C760 C 0.31453 0.541 0.22058 0.0
C761 C 0.33337 0.53625 0.20471 0.0
C762 C 0.33848 0.51267 0.1974 0.0
C763 C 0.32511 0.49386 0.20774 0.0
C764 C 0.20374 0.50129 0.31765 0.0
H765 H 0.19717 0.53613 0.15909 0.0
H766 H 0.23005 0.52747 0.18586 0.0
H767 H 0.20304 0.57944 0.23633 0.0
H768 H 0.17002 0.58878 0.20903 0.0
H769 H 0.26582 0.54403 0.20611 0.0
H770 H 0.21057 0.54111 0.25915 0.0
H771 H 0.28052 0.51241 0.27502 0.0
H772 H 0.2172 0.48844 0.28393 0.0
H773 H 0.24707 0.5549 0.30905 0.0
H774 H 0.22096 0.55381 0.34369 0.0
H775 H 0.29526 0.48395 0.22993 0.0
H776 H 0.31011 0.55947 0.22461 0.0
H777 H 0.19157 0.48632 0.31945 0.0
H778 H 0.32826 0.47545 0.20249 0.0
H779 H 0.3435 0.55119 0.19765 0.0
C780 C 0.83313 0.80539 0.44916 0.0
C781 C 0.82934 0.82942 0.45579 0.0
C782 C 0.81619 0.78786 0.45468 0.0
C783 C 0.7955 0.79375 0.46779 0.0
C784 C 0.79082 0.81812 0.47243 0.0
C785 C 0.80724 0.83571 0.466 0.0
C786 C 0.78053 0.77473 0.47915 0.0
C787 C 0.79097 0.75318 0.48679 0.0
C788 C 0.77827 0.73651 0.50068 0.0
C789 C 0.75491 0.74255 0.50861 0.0
C790 C 0.74397 0.76403 0.50059 0.0
C791 C 0.7566 0.77919 0.4851 0.0
C792 C 0.72079 0.77344 0.50982 0.0
C793 C 0.70287 0.78029 0.49344 0.0
C794 C 0.71983 0.78275 0.53314 0.0
C795 C 0.70293 0.80042 0.53913 0.0
C796 C 0.68662 0.80918 0.52192 0.0
C797 C 0.79081 0.71361 0.50687 0.0
C798 C 0.80371 0.70147 0.48891 0.0
C799 C 0.7931 0.70561 0.53061 0.0
C800 C 0.80895 0.68677 0.53631 0.0
C801 C 0.82294 0.67571 0.51841 0.0
C802 C 0.81962 0.68296 0.4946 0.0
C803 C 0.68596 0.7979 0.49941 0.0
H804 H 0.84978 0.79969 0.44108 0.0
H805 H 0.82004 0.76951 0.44975 0.0
H806 H 0.77527 0.82378 0.48246 0.0
H807 H 0.80312 0.85414 0.47041 0.0
H808 H 0.80964 0.74963 0.48294 0.0
H809 H 0.748 0.79543 0.47887 0.0
H810 H 0.74531 0.73067 0.52052 0.0
H811 H 0.70343 0.77373 0.4752 0.0
H812 H 0.7336 0.77816 0.54602 0.0
H813 H 0.70366 0.8083 0.55682 0.0
H814 H 0.80217 0.70695 0.47038 0.0
H815 H 0.78363 0.71467 0.54488 0.0
H816 H 0.67379 0.8041 0.48564 0.0
H817 H 0.82956 0.67448 0.48028 0.0
H818 H 0.811 0.68154 0.55485 0.0
C819 C 0.84022 0.21083 0.47382 0.0
C820 C 0.83201 0.18899 0.46438 0.0
C821 C 0.82421 0.22915 0.47927 0.0
C822 C 0.79956 0.22663 0.47447 0.0
C823 C 0.79182 0.20587 0.4624 0.0
C824 C 0.80775 0.18711 0.4578 0.0
C825 C 0.78202 0.24401 0.4848 0.0
C826 C 0.78885 0.26766 0.48979 0.0
C827 C 0.77524 0.28227 0.50501 0.0
C828 C 0.75312 0.27373 0.51388 0.0
C829 C 0.74475 0.25086 0.50683 0.0
C830 C 0.75957 0.23614 0.49287 0.0
C831 C 0.72159 0.24044 0.51486 0.0
C832 C 0.71826 0.23379 0.53883 0.0
C833 C 0.70541 0.23178 0.49758 0.0
C834 C 0.6875 0.21537 0.50376 0.0
C835 C 0.68538 0.20703 0.5274 0.0
C836 C 0.78688 0.30471 0.51338 0.0
C837 C 0.79761 0.30513 0.53611 0.0
C838 C 0.79379 0.32206 0.4965 0.0
C839 C 0.81244 0.33812 0.5015 0.0
C840 C 0.82483 0.33697 0.52341 0.0
C841 C 0.81643 0.32105 0.54106 0.0
C842 C 0.70033 0.21727 0.54504 0.0
H843 H 0.85893 0.21343 0.47821 0.0
H844 H 0.83124 0.24458 0.48863 0.0
H845 H 0.77321 0.2035 0.45749 0.0
H846 H 0.80063 0.17069 0.45034 0.0
H847 H 0.80576 0.2744 0.48312 0.0
H848 H 0.75395 0.21786 0.48961 0.0
H849 H 0.7426 0.28469 0.52592 0.0
H850 H 0.73066 0.2399 0.55245 0.0
H851 H 0.70779 0.23637 0.4789 0.0
H852 H 0.67654 0.20788 0.48961 0.0
H853 H 0.79302 0.29166 0.54927 0.0
H854 H 0.78618 0.32178 0.47866 0.0
H855 H 0.69898 0.21161 0.56352 0.0
H856 H 0.82534 0.31992 0.55824 0.0
H857 H 0.81845 0.35003 0.48745 0.0
C858 C 0.2104 0.84857 0.53309 0.0
C859 C 0.19733 0.84582 0.55442 0.0
C860 C 0.22657 0.83104 0.52584 0.0
C861 C 0.2297 0.81026 0.53954 0.0
C862 C 0.21752 0.80781 0.56129 0.0
C863 C 0.20165 0.82559 0.56882 0.0
C864 C 0.24519 0.79093 0.53064 0.0
C865 C 0.26887 0.79585 0.52467 0.0
C866 C 0.28398 0.77792 0.51574 0.0
C867 C 0.27468 0.75451 0.51214 0.0
C868 C 0.25046 0.7495 0.51811 0.0
C869 C 0.2361 0.76784 0.52747 0.0
C870 C 0.23925 0.72536 0.51631 0.0
C871 C 0.2245 0.71958 0.4967 0.0
C872 C 0.23781 0.71114 0.53691 0.0
C873 C 0.22156 0.69205 0.53824 0.0
C874 C 0.20622 0.68641 0.51891 0.0
C875 C 0.30918 0.78521 0.51091 0.0
C876 C 0.31714 0.78871 0.48734 0.0
C877 C 0.32267 0.79516 0.52974 0.0
C878 C 0.34251 0.80976 0.52513 0.0
C879 C 0.3496 0.81466 0.50154 0.0
C880 C 0.33727 0.80316 0.4827 0.0
C881 C 0.20833 0.70024 0.4979 0.0
H882 H 0.20724 0.86359 0.52124 0.0
H883 H 0.23583 0.83318 0.50895 0.0
H884 H 0.22005 0.79201 0.57226 0.0
H885 H 0.19222 0.82312 0.58555 0.0
H886 H 0.27569 0.81389 0.52719 0.0
H887 H 0.2176 0.76416 0.53212 0.0
H888 H 0.28612 0.74042 0.50529 0.0
H889 H 0.22464 0.73077 0.48088 0.0
H890 H 0.2482 0.71577 0.55264 0.0
H891 H 0.2203 0.6825 0.55503 0.0
H892 H 0.30678 0.78181 0.47246 0.0
H893 H 0.31675 0.79308 0.54807 0.0
H894 H 0.19717 0.69649 0.4825 0.0
H895 H 0.34226 0.80654 0.4643 0.0
H896 H 0.35182 0.81793 0.54007 0.0
C897 C 0.21002 0.17936 0.50904 0.0
C898 C 0.1884 0.18688 0.49846 0.0
C899 C 0.22888 0.19549 0.51229 0.0
C900 C 0.22669 0.21938 0.50462 0.0
C901 C 0.20525 0.22669 0.4936 0.0
C902 C 0.18627 0.2108 0.49092 0.0
C903 C 0.2466 0.23675 0.50773 0.0
C904 C 0.27046 0.22968 0.50481 0.0
C905 C 0.28916 0.24642 0.50586 0.0
C906 C 0.28379 0.27099 0.5092 0.0
C907 C 0.25972 0.2782 0.51261 0.0
C908 C 0.2416 0.26087 0.51241 0.0
C909 C 0.25177 0.30358 0.5143 0.0
C910 C 0.23742 0.31065 0.53374 0.0
C911 C 0.25228 0.31817 0.49387 0.0
C912 C 0.23735 0.33837 0.4922 0.0
C913 C 0.22153 0.34437 0.51094 0.0
C914 C 0.31377 0.23695 0.50259 0.0
C915 C 0.32611 0.22744 0.52236 0.0
C916 C 0.32129 0.23056 0.4795 0.0
C917 C 0.33947 0.21355 0.47626 0.0
C918 C 0.35048 0.20244 0.49605 0.0
C919 C 0.34442 0.21047 0.51914 0.0
C920 C 0.2225 0.33077 0.53209 0.0
H921 H 0.2125 0.161 0.51477 0.0
H922 H 0.24505 0.18926 0.521 0.0
H923 H 0.20303 0.24475 0.48688 0.0
H924 H 0.16981 0.2175 0.48315 0.0
H925 H 0.27464 0.21108 0.50103 0.0
H926 H 0.22321 0.26648 0.51516 0.0
H927 H 0.298 0.28419 0.50913 0.0
H928 H 0.23641 0.29951 0.54958 0.0
H929 H 0.26266 0.31283 0.4784 0.0
H930 H 0.23707 0.34831 0.47558 0.0
H931 H 0.32019 0.23155 0.54035 0.0
H932 H 0.31171 0.23718 0.46398 0.0
H933 H 0.21103 0.33511 0.54708 0.0
H934 H 0.35239 0.20221 0.53477 0.0
H935 H 0.34391 0.20801 0.45823 0.0
C936 C 1.00735 0.94583 0.56227 0.0
C937 C 0.02074 0.95199 0.44645 0.0
C938 C 0.99584 0.06217 0.56677 0.0
C939 C 1.00629 0.06706 0.45075 0.0
C940 C 0.9441 0.05801 0.49769 0.0
C941 C 0.95613 0.94377 0.49446 0.0
C942 C 0.05856 0.06971 0.51024 0.0
C943 C 0.06862 0.95429 0.51899 0.0
C944 C 0.07019 0.01318 0.45456 0.0
C945 C 0.9547 1.00007 0.44395 0.0
C946 C 0.05894 0.01183 0.57139 0.0
C947 C 0.94462 0.99809 0.56044 0.0
Eu948 Eu 0.01163 0.96158 0.50479 0.0
O949 O 0.99007 0.98479 0.48323 0.0
O950 O 0.02786 0.98687 0.52894 0.0
Eu951 Eu 0.96189 1.00188 0.50321 0.0
Eu952 Eu 0.05231 0.01087 0.51174 0.0
O953 O 0.98614 0.98199 0.52556 0.0
O954 O 0.03281 0.98837 0.4868 0.0
Eu955 Eu 1.00293 1.00461 0.55215 0.0
Eu956 Eu 0.01116 1.00868 0.46177 0.0
O957 O 0.98136 0.02495 0.52731 0.0
O958 O 0.98563 0.02615 0.48478 0.0
O959 O 0.02775 0.03036 0.48898 0.0
O960 O 0.02407 0.02899 0.53097 0.0
Eu961 Eu 1.00213 0.05153 0.50844 0.0
O962 O 1.00842 0.93983 0.5391 0.0
O963 O 0.01937 0.94326 0.46875 0.0
O964 O 0.99664 0.07018 0.54423 0.0
O965 O 1.00375 0.07313 0.47379 0.0
O966 O 0.93907 0.03468 0.49726 0.0
O967 O 0.94597 0.96495 0.49877 0.0
O968 O 0.0684 0.04801 0.51213 0.0
O969 O 0.07454 0.97747 0.51861 0.0
O970 O 0.04811 0.01274 0.44527 0.0
O971 O 0.97763 1.00453 0.43855 0.0
O972 O 0.03571 1.0083 0.57573 0.0
O973 O 0.96676 0.99919 0.56928 0.0
O974 O 0.03524 0.07474 0.50909 0.0
O975 O 0.96536 0.06778 0.50264 0.0
O976 O 0.04743 0.94513 0.51296 0.0
O977 O 0.97947 0.93886 0.49544 0.0
O978 O 0.01797 0.97495 0.44043 0.0
O979 O 1.0089 0.04468 0.44265 0.0
O980 O 1.00585 0.96826 0.57068 0.0
O981 O 0.9979 0.03922 0.57341 0.0
O982 O 0.93872 0.99936 0.53719 0.0
O983 O 0.94572 0.99826 0.46604 0.0
O984 O 0.06881 0.01343 0.54956 0.0
O985 O 0.07545 0.01218 0.47797 0.0
C986 C 0.49997 0.93957 0.05779 0.0
C987 C 0.51164 0.05363 0.07569 0.0
C988 C 0.49766 0.95786 0.94347 0.0
C989 C 0.51347 0.07141 0.9615 0.0
C990 C 0.56838 1.00415 0.95199 0.0
C991 C 0.56727 0.9904 0.06638 0.0
C992 C 0.4518 0.01928 0.95196 0.0
C993 C 0.45067 1.00142 0.06696 0.0
C994 C 0.45844 0.06972 0.01861 0.0
C995 C 0.57488 0.05488 0.01587 0.0
C996 C 0.44402 0.95533 1.0055 0.0
C997 C 0.56031 0.94137 0.99956 0.0
Eu998 Eu 0.50911 0.99828 0.05448 0.0
O999 O 0.53308 0.02055 0.03413 0.0
O1000 O 0.48596 0.98429 0.02703 0.0
Eu1001 Eu 0.55368 0.99944 0.00942 0.0
Eu1002 Eu 0.46441 0.0111 0.00976 0.0
O1003 O 0.52741 0.97788 0.02738 0.0
O1004 O 0.49086 0.0255 0.0339 0.0
Eu1005 Eu 0.50353 0.96049 1.00246 0.0
Eu1006 Eu 0.51514 0.04995 0.0166 0.0
O1007 O 0.52784 0.98468 0.98488 0.0
O1008 O 0.53324 0.02678 0.99149 0.0
O1009 O 0.49149 0.03191 0.99186 0.0
O1010 O 0.48596 0.99038 0.98535 0.0
Eu1011 Eu 0.51006 0.01208 0.9643 0.0
O1012 O 0.50356 0.96065 0.06854 0.0
O1013 O 0.50938 0.03013 0.07939 0.0
O1014 O 0.50261 0.9809 0.93941 0.0
O1015 O 0.51239 0.05016 0.95053 0.0
O1016 O 0.57414 1.00045 0.97484 0.0
O1017 O 0.5739 0.99185 0.04356 0.0
O1018 O 0.44434 0.01601 0.97445 0.0
O1019 O 0.44391 1.00801 0.04495 0.0
O1020 O 0.48202 0.07394 0.02042 0.0
O1021 O 0.55337 0.0655 0.01774 0.0
O1022 O 0.46547 0.94499 1.00239 0.0
O1023 O 0.53684 0.93693 0.99689 0.0
O1024 O 0.47473 0.01939 0.9449 0.0
O1025 O 0.54616 1.00914 0.94408 0.0
O1026 O 0.47322 0.99692 0.07376 0.0
O1027 O 0.54478 0.99271 0.07445 0.0
O1028 O 0.51498 0.06418 0.05452 0.0
O1029 O 0.51507 0.07496 0.98503 0.0
O1030 O 0.50005 0.93572 0.03423 0.0
O1031 O 0.49749 0.94719 0.96482 0.0
O1032 O 0.56985 0.96255 1.00505 0.0
O1033 O 0.57826 0.03137 0.01305 0.0
O1034 O 0.44017 0.97876 1.00815 0.0
O1035 O 0.44862 0.04833 0.01431 0.0
C1036 C 1.00195 0.45499 0.06717 0.0
C1037 C 0.00926 0.44331 0.95205 0.0
C1038 C 1.00335 0.57146 0.05534 0.0
C1039 C 0.02241 0.55956 0.94172 0.0
C1040 C 0.95429 0.56733 0.99145 0.0
C1041 C 0.9492 0.45078 0.99898 0.0
C1042 C 0.06986 0.56265 1.00649 0.0
C1043 C 0.0632 0.44637 0.01846 0.0
C1044 C 0.07493 0.49257 0.95691 0.0
C1045 C 0.96194 0.51174 0.93722 0.0
C1046 C 0.05737 0.51759 0.06903 0.0
C1047 C 0.94309 0.51055 0.05146 0.0
Eu1048 Eu 1.00668 0.46223 1.00841 0.0
O1049 O 0.99044 0.48455 0.98131 0.0
O1050 O 0.02603 0.48736 0.03046 0.0
Eu1051 Eu 0.96455 0.50863 0.99649 0.0
Eu1052 Eu 0.05412 0.50511 0.01095 0.0
O1053 O 0.98374 0.48907 0.02361 0.0
O1054 O 0.03208 0.48305 0.98832 0.0
Eu1055 Eu 1.00233 0.51198 0.04842 0.0
Eu1056 Eu 0.01631 0.50241 0.95888 0.0
O1057 O 0.98594 0.53134 0.01935 0.0
O1058 O 0.99296 0.52655 0.97777 0.0
O1059 O 0.0349 0.52528 0.98401 0.0
O1060 O 0.0279 0.52926 0.0256 0.0
Eu1061 Eu 0.01158 0.55219 0.99951 0.0
O1062 O 1.00256 0.44551 0.04523 0.0
O1063 O 1.00759 0.43881 0.97543 0.0
O1064 O 1.00797 0.57574 0.03231 0.0
O1065 O 0.01811 0.56875 0.96329 0.0
O1066 O 0.9462 0.54479 0.99235 0.0
O1067 O 0.94358 0.47349 0.99347 0.0
O1068 O 0.07593 0.53959 0.00921 0.0
O1069 O 0.07195 0.46874 0.01838 0.0
O1070 O 0.05379 0.49409 0.94577 0.0
O1071 O 0.98523 0.50787 0.93351 0.0
O1072 O 0.03383 0.5175 0.07277 0.0
O1073 O 0.96442 0.51201 0.06216 0.0
O1074 O 0.04763 0.57083 1.00298 0.0
O1075 O 0.97728 0.57386 0.99344 0.0
O1076 O 0.04033 0.44044 0.01478 0.0
O1077 O 0.97077 0.44338 1.00617 0.0
O1078 O 0.01256 0.46497 0.94219 0.0
O1079 O 0.02318 0.53616 0.93625 0.0
O1080 O 1.00195 0.47852 0.07203 0.0
O1081 O 1.00016 0.54966 0.0649 0.0
O1082 O 0.93926 0.50955 0.02792 0.0
O1083 O 0.95101 0.51151 0.95845 0.0
O1084 O 0.06826 0.51256 0.04834 0.0
O1085 O 0.07883 0.49695 0.98005 0.0
C1086 C 0.50919 0.44999 0.06906 0.0
C1087 C 0.52188 0.56583 0.07103 0.0
C1088 C 0.52071 0.45084 0.95324 0.0
C1089 C 0.53103 0.5667 0.95473 0.0
C1090 C 0.58187 0.50015 0.95906 0.0
C1091 C 0.57149 0.5062 0.07594 0.0
C1092 C 0.46736 0.51687 0.94906 0.0
C1093 C 0.45638 0.50944 0.06553 0.0
C1094 C 0.46926 0.57303 1.00541 0.0
C1095 C 0.58316 0.55889 0.02274 0.0
C1096 C 0.45632 0.45829 0.99866 0.0
C1097 C 0.56896 0.44432 0.02308 0.0
Eu1098 Eu 0.51501 0.50822 0.05715 0.0
O1099 O 0.54041 0.52629 0.03481 0.0
O1100 O 0.4935 0.48942 0.03115 0.0
Eu1101 Eu 0.56473 0.50301 0.01637 0.0
Eu1102 Eu 0.47423 0.51395 1.00842 0.0
O1103 O 0.536 0.48504 0.03466 0.0
O1104 O 0.49845 0.5327 0.0321 0.0
Eu1105 Eu 0.51417 0.46352 0.01129 0.0
Eu1106 Eu 0.52489 0.55344 0.01268 0.0
O1107 O 0.54025 0.48486 0.99252 0.0
O1108 O 0.54573 0.52747 0.99289 0.0
O1109 O 0.50293 0.53178 0.98981 0.0
O1110 O 0.49809 0.49051 0.9891 0.0
Eu1111 Eu 0.5237 0.5088 0.96701 0.0
O1112 O 0.5126 0.47241 0.07685 0.0
O1113 O 0.51675 0.54345 0.07789 0.0
O1114 O 0.521 0.47371 0.94611 0.0
O1115 O 0.52842 0.54414 0.94714 0.0
O1116 O 0.58753 0.49921 0.98237 0.0
O1117 O 0.58135 0.50327 0.05423 0.0
O1118 O 0.45768 0.5171 0.97099 0.0
O1119 O 0.45064 0.51224 0.04235 0.0
O1120 O 0.49263 0.5775 1.00778 0.0
O1121 O 0.56183 0.569 0.01887 0.0
O1122 O 0.47759 0.44798 1.00255 0.0
O1123 O 0.54574 0.43969 0.01996 0.0
O1124 O 0.49059 0.51409 0.94412 0.0
O1125 O 0.56007 0.50381 0.95003 0.0
O1126 O 0.47855 0.50812 0.07424 0.0
O1127 O 0.54809 0.50796 0.08035 0.0
O1128 O 0.52523 0.57291 0.04843 0.0
O1129 O 0.53111 0.57359 0.97768 0.0
O1130 O 0.50751 0.44354 0.04606 0.0
O1131 O 0.51948 0.44354 0.97603 0.0
O1132 O 0.57953 0.46566 0.02137 0.0
O1133 O 0.58809 0.53554 0.0219 0.0
O1134 O 0.45145 0.48157 1.00085 0.0
O1135 O 0.45904 0.55143 1.00616 0.0
C1136 C 0.03722 0.44816 0.57193 0.0
C1137 C 0.012 0.44852 0.45902 0.0
C1138 C 1.00791 0.56084 0.57643 0.0
C1139 C 1.0023 0.5636 0.46095 0.0
C1140 C 0.95579 0.55863 0.52372 0.0
C1141 C 0.96662 0.44305 0.52094 0.0
C1142 C 0.07248 0.56907 0.51888 0.0
C1143 C 0.08268 0.45473 0.50833 0.0
C1144 C 0.07355 0.51493 0.45582 0.0
C1145 C 0.95666 0.50021 0.46333 0.0
C1146 C 0.07998 0.51365 0.5712 0.0
C1147 C 0.96493 0.49737 0.57844 0.0
Eu1148 Eu 0.02356 0.46076 0.51576 0.0
O1149 O 0.99925 0.48381 0.49689 0.0
O1150 O 0.04314 0.48662 0.53625 0.0
Eu1151 Eu 0.97465 0.50193 0.52009 0.0
Eu1152 Eu 0.06314 0.51059 0.51421 0.0
O1153 O 1.00127 0.4817 0.5395 0.0
O1154 O 0.04076 0.48701 0.49324 0.0
Eu1155 Eu 0.02187 0.50487 0.56242 0.0
Eu1156 Eu 0.01598 0.50669 0.47094 0.0
O1157 O 0.99819 0.52485 0.53958 0.0
O1158 O 0.99514 0.52556 0.49761 0.0
O1159 O 0.03649 0.53033 0.49416 0.0
O1160 O 0.03893 0.5292 0.53762 0.0
Eu1161 Eu 0.01482 0.55207 0.51785 0.0
O1162 O 0.03366 0.44121 0.54939 0.0
O1163 O 0.01658 0.44131 0.48128 0.0
O1164 O 1.00884 0.56952 0.55414 0.0
O1165 O 1.00616 0.57163 0.48317 0.0
O1166 O 0.95136 0.5351 0.52403 0.0
O1167 O 0.95767 0.46519 0.51996 0.0
O1168 O 0.08064 0.54676 0.5167 0.0
O1169 O 0.08688 0.47817 0.51018 0.0
O1170 O 0.05079 0.51128 0.4487 0.0
O1171 O 0.97852 0.50263 0.45358 0.0
O1172 O 0.05767 0.51325 0.57981 0.0
O1173 O 0.98816 0.4976 0.58445 0.0
O1174 O 0.04922 0.57537 0.51906 0.0
O1175 O 0.9774 0.5686 0.52083 0.0
O1176 O 0.06099 0.44445 0.50956 0.0
O1177 O 0.99003 0.43758 0.52086 0.0
O1178 O 0.01272 0.47112 0.45111 0.0
O1179 O 1.00597 0.54135 0.45311 0.0
O1180 O 0.03323 0.47012 0.58068 0.0
O1181 O 0.013 0.53842 0.58297 0.0
O1182 O 0.9565 0.49943 0.55621 0.0
O1183 O 0.95211 0.50024 0.48673 0.0
O1184 O 0.08594 0.51116 0.54817 0.0
O1185 O 0.08087 0.51533 0.47852 0.0
C1186 C 0.51861 0.94661 0.56522 0.0
C1187 C 0.5328 0.95352 0.45038 0.0
C1188 C 0.50579 0.06385 0.56981 0.0
C1189 C 0.53028 0.07044 0.45718 0.0
C1190 C 0.46165 0.06434 0.50118 0.0
C1191 C 0.46694 0.94732 0.49834 0.0
C1192 C 0.57564 0.06831 0.52522 0.0
C1193 C 0.58074 0.95169 0.51867 0.0
C1194 C 0.58845 0.01757 0.46521 0.0
C1195 C 0.47469 0.01234 0.44332 0.0
C1196 C 0.56644 0.01495 0.57842 0.0
C1197 C 0.45345 1.00596 0.55656 0.0
Eu1198 Eu 0.52339 0.96338 0.50828 0.0
O1199 O 0.50517 0.98767 0.4845 0.0
O1200 O 0.53905 0.98667 0.53484 0.0
Eu1201 Eu 0.47653 1.00634 0.5022 0.0
Eu1202 Eu 0.56567 0.00974 0.51934 0.0
O1203 O 0.49708 0.98479 0.5269 0.0
O1204 O 0.54724 0.98917 0.49234 0.0
Eu1205 Eu 0.51258 1.00564 0.55572 0.0
Eu1206 Eu 0.52942 0.01127 0.46603 0.0
O1207 O 0.49556 0.02719 0.52857 0.0
O1208 O 0.50312 0.02991 0.48707 0.0
O1209 O 0.54486 0.03136 0.49505 0.0
O1210 O 0.53676 0.02867 0.53645 0.0
Eu1211 Eu 0.51908 0.05348 0.51299 0.0
O1212 O 0.52142 0.94131 0.54211 0.0
O1213 O 0.52901 0.94514 0.47242 0.0
O1214 O 0.51044 0.07175 0.54783 0.0
O1215 O 0.52622 0.07584 0.48005 0.0
O1216 O 0.45562 0.04129 0.4984 0.0
O1217 O 0.45812 0.96968 0.4985 0.0
O1218 O 0.58373 0.04575 0.5254 0.0
O1219 O 0.58672 0.97464 0.52246 0.0
O1220 O 0.56753 0.01603 0.45374 0.0
O1221 O 0.49829 0.0143 0.44035 0.0
O1222 O 0.54292 0.01237 0.58154 0.0
O1223 O 0.47414 1.00326 0.56822 0.0
O1224 O 0.55298 0.07488 0.52104 0.0
O1225 O 0.4835 0.07237 0.50674 0.0
O1226 O 0.55892 0.94409 0.51249 0.0
O1227 O 0.48992 0.94149 0.50141 0.0
O1228 O 0.53404 0.97675 0.44441 0.0
O1229 O 0.5315 0.04824 0.44812 0.0
O1230 O 0.51469 0.96866 0.57409 0.0
O1231 O 0.50553 0.04076 0.57663 0.0
O1232 O 0.45058 1.00785 0.53297 0.0
O1233 O 0.4634 1.00803 0.4639 0.0
O1234 O 0.57818 0.01276 0.55774 0.0
O1235 O 0.59172 0.01505 0.48874 0.0
H1236 H 0.17491 0.14992 0.52834 0.0
H1237 H 0.15541 0.18558 0.46191 0.0
H1238 H 0.11928 0.16065 0.45919 0.0
H1239 H 0.15635 0.09053 0.50796 0.0
H1240 H 0.1462 0.08163 0.53722 0.0
H1241 H 0.17034 0.10282 0.53433 0.0
H1242 H 0.14681 0.133 0.56061 0.0
H1243 H 0.12245 0.11205 0.56326 0.0
H1244 H 0.11697 0.14177 0.55187 0.0
H1245 H 0.08418 0.13403 0.46481 0.0
H1246 H 0.05499 0.10253 0.47522 0.0
H1247 H 0.09929 0.08093 0.5352 0.0
C1248 C 0.16337 0.15228 0.51295 0.0
C1249 C 0.16788 0.17018 0.49563 0.0
C1250 C 0.15203 0.17263 0.47591 0.0
C1251 C 0.13151 0.15843 0.47406 0.0
C1252 C 0.12737 0.14144 0.49174 0.0
C1253 C 0.14309 0.13785 0.51048 0.0
C1254 C 0.13483 0.11765 0.52654 0.0
C1255 C 0.15301 0.09693 0.5265 0.0
C1256 C 0.12998 0.12667 0.55208 0.0
C1257 C 0.11184 0.11068 0.51399 0.0
C1258 C 0.10774 0.12493 0.49417 0.0
C1259 C 0.08725 0.12262 0.48016 0.0
C1260 C 0.07069 0.10493 0.48632 0.0
C1261 C 0.07497 0.08965 0.50603 0.0
C1262 C 0.09575 0.09251 0.52005 0.0
H1263 H 0.86826 0.17806 0.49585 0.0
H1264 H 0.83207 0.15108 0.43236 0.0
H1265 H 0.85603 0.11401 0.43489 0.0
H1266 H 0.92719 0.1551 0.47944 0.0
H1267 H 0.93509 0.14897 0.51011 0.0
H1268 H 0.9149 0.17318 0.50317 0.0
H1269 H 0.88337 0.15478 0.53177 0.0
H1270 H 0.90328 0.1303 0.53847 0.0
H1271 H 0.87362 0.12433 0.52716 0.0
H1272 H 0.88205 0.07881 0.44616 0.0
H1273 H 0.91199 0.05026 0.46203 0.0
H1274 H 0.93369 0.10246 0.51533 0.0
C1275 C 0.86566 0.16482 0.48196 0.0
C1276 C 0.84807 0.16768 0.46391 0.0
C1277 C 0.84504 0.14928 0.44666 0.0
C1278 C 0.85867 0.12817 0.44785 0.0
C1279 C 0.87552 0.12594 0.46612 0.0
C1280 C 0.8794 0.14399 0.48254 0.0
C1281 C 0.89891 0.13746 0.50018 0.0
C1282 C 0.92029 0.1547 0.49809 0.0
C1283 C 0.8892 0.13667 0.52591 0.0
C1284 C 0.90524 0.11271 0.4913 0.0
C1285 C 0.89133 0.10625 0.47184 0.0
C1286 C 0.89321 0.08377 0.46121 0.0
C1287 C 0.91008 0.06764 0.47046 0.0
C1288 C 0.92501 0.0743 0.48986 0.0
C1289 C 0.92252 0.09707 0.5004 0.0
H1290 H 0.8379 0.8661 0.48739 0.0
H1291 H 0.8667 0.83256 0.42333 0.0
H1292 H 0.90268 0.85797 0.42671 0.0
H1293 H 0.85961 0.9268 0.47284 0.0
H1294 H 0.86491 0.93362 0.50392 0.0
H1295 H 0.84121 0.91335 0.49564 0.0
H1296 H 0.8595 0.88112 0.52365 0.0
H1297 H 0.88358 0.90103 0.53155 0.0
H1298 H 0.89014 0.87186 0.51935 0.0
H1299 H 0.9371 0.88401 0.43975 0.0
H1300 H 0.96509 0.91333 0.45776 0.0
H1301 H 0.91153 0.93226 0.51053 0.0
C1302 C 0.8512 0.86449 0.47344 0.0
C1303 C 0.8493 0.84707 0.45512 0.0
C1304 C 0.86781 0.84535 0.43784 0.0
C1305 C 0.88828 0.85982 0.43951 0.0
C1306 C 0.88971 0.87624 0.45822 0.0
C1307 C 0.87138 0.87908 0.47449 0.0
C1308 C 0.87722 0.89799 0.49298 0.0
C1309 C 0.8597 0.9192 0.49123 0.0
C1310 C 0.87764 0.88735 0.51837 0.0
C1311 C 0.90202 0.905 0.48491 0.0
C1312 C 0.90901 0.89209 0.46498 0.0
C1313 C 0.93174 0.89448 0.45511 0.0
C1314 C 0.94755 0.9109 0.46561 0.0
C1315 C 0.94035 0.92482 0.4855 0.0
C1316 C 0.91733 0.92182 0.49525 0.0
H1317 H 0.19452 0.89449 0.54636 0.0
H1318 H 0.15369 0.83378 0.57279 0.0
H1319 H 0.11733 0.85823 0.57263 0.0
H1320 H 0.15645 0.94318 0.57552 0.0
H1321 H 0.15873 0.96228 0.54963 0.0
H1322 H 0.18327 0.94281 0.55768 0.0
H1323 H 0.18259 0.92367 0.51568 0.0
H1324 H 0.15821 0.94286 0.50705 0.0
H1325 H 0.15515 0.9108 0.50448 0.0
H1326 H 0.0848 0.88421 0.56043 0.0
H1327 H 0.05767 0.91267 0.54106 0.0
H1328 H 0.11798 0.9576 0.52156 0.0
C1329 C 0.17806 0.88658 0.5528 0.0
C1330 C 0.17707 0.86219 0.55965 0.0
C1331 C 0.15517 0.8525 0.56796 0.0
C1332 C 0.13429 0.86625 0.56781 0.0
C1333 C 0.13559 0.88968 0.55946 0.0
C1334 C 0.15694 0.90003 0.55251 0.0
C1335 C 0.15279 0.92442 0.54125 0.0
C1336 C 0.16343 0.94437 0.55695 0.0
C1337 C 0.16277 0.92547 0.5156 0.0
C1338 C 0.12568 0.92526 0.54135 0.0
C1339 C 0.11627 0.90518 0.55236 0.0
C1340 C 0.09189 0.90033 0.55237 0.0
C1341 C 0.07664 0.91648 0.54098 0.0
C1342 C 0.08572 0.93732 0.52975 0.0
C1343 C 0.11056 0.94193 0.53022 0.0
H1344 H 0.4813 0.17599 0.14248 0.0
H1345 H 0.47983 0.13548 0.20875 0.0
H1346 H 0.48823 0.09838 0.18634 0.0
H1347 H 0.4546 0.12947 0.10428 0.0
H1348 H 0.47355 0.13701 0.07935 0.0
H1349 H 0.46513 0.15977 0.10057 0.0
H1350 H 0.51017 0.16921 0.10744 0.0
H1351 H 0.51854 0.14601 0.08668 0.0
H1352 H 0.53008 0.14555 0.11681 0.0
H1353 H 0.49957 0.0663 0.15731 0.0
H1354 H 0.50986 0.04062 0.12297 0.0
H1355 H 0.50471 0.10231 0.07576 0.0
C1356 C 0.48247 0.15927 0.15223 0.0
C1357 C 0.47977 0.1586 0.17733 0.0
C1358 C 0.48138 0.13636 0.18947 0.0
C1359 C 0.48637 0.11522 0.17693 0.0
C1360 C 0.48963 0.11665 0.1523 0.0
C1361 C 0.48746 0.13802 0.14002 0.0
C1362 C 0.49244 0.13473 0.11363 0.0
C1363 C 0.47009 0.14058 0.09858 0.0
C1364 C 0.5141 0.14977 0.10569 0.0
C1365 C 0.49809 0.10824 0.11309 0.0
C1366 C 0.49634 0.09814 0.13557 0.0
C1367 C 0.50086 0.07395 0.13958 0.0
C1368 C 0.50678 0.05953 0.11995 0.0
C1369 C 0.50816 0.06941 0.09662 0.0
C1370 C 0.50404 0.09417 0.09333 0.0
H1371 H 0.87863 0.48688 0.17528 0.0
H1372 H 0.81166 0.48014 0.13633 0.0
H1373 H 0.833 0.48772 0.09838 0.0
H1374 H 0.90167 0.53531 0.14154 0.0
H1375 H 0.93223 0.52492 0.14253 0.0
H1376 H 0.91195 0.51747 0.1664 0.0
H1377 H 0.92056 0.47221 0.16005 0.0
H1378 H 0.94112 0.47955 0.1364 0.0
H1379 H 0.91664 0.45929 0.13074 0.0
H1380 H 0.86158 0.4976 0.06502 0.0
H1381 H 0.89569 0.50645 0.03844 0.0
H1382 H 0.94311 0.50797 0.10023 0.0
C1383 C 0.86848 0.48689 0.15875 0.0
C1384 C 0.84357 0.4829 0.15865 0.0
C1385 C 0.83086 0.48283 0.13669 0.0
C1386 C 0.84276 0.48732 0.11512 0.0
C1387 C 0.86727 0.4918 0.11595 0.0
C1388 C 0.88 0.49142 0.13718 0.0
C1389 C 0.90611 0.4971 0.13336 0.0
C1390 C 0.9134 0.52007 0.14675 0.0
C1391 C 0.92204 0.47576 0.14055 0.0
C1392 C 0.90608 0.50087 0.10665 0.0
C1393 C 0.88357 0.49776 0.09688 0.0
C1394 C 0.87932 0.50007 0.07244 0.0
C1395 C 0.8988 0.50519 0.05752 0.0
C1396 C 0.92212 0.50794 0.06721 0.0
C1397 C 0.92557 0.50611 0.09215 0.0
H1398 H 0.47095 0.87325 0.18034 0.0
H1399 H 0.46916 0.80665 0.14021 0.0
H1400 H 0.47365 0.82927 0.10264 0.0
H1401 H 0.44056 0.91138 0.1346 0.0
H1402 H 0.45967 0.93653 0.14127 0.0
H1403 H 0.45222 0.91538 0.16443 0.0
H1404 H 0.49755 0.90873 0.1724 0.0
H1405 H 0.50502 0.92944 0.14892 0.0
H1406 H 0.51664 0.8993 0.14816 0.0
H1407 H 0.48328 0.85844 0.0701 0.0
H1408 H 0.49478 0.89245 0.0445 0.0
H1409 H 0.49159 0.93984 0.10617 0.0
C1410 C 0.47102 0.86346 0.16361 0.0
C1411 C 0.46958 0.83819 0.16323 0.0
C1412 C 0.46976 0.82603 0.14096 0.0
C1413 C 0.47248 0.83871 0.11952 0.0
C1414 C 0.47486 0.86352 0.12065 0.0
C1415 C 0.47383 0.87582 0.14209 0.0
C1416 C 0.47861 0.90227 0.13859 0.0
C1417 C 0.45644 0.91727 0.1451 0.0
C1418 C 0.50077 0.91039 0.15286 0.0
C1419 C 0.48327 0.90277 0.11197 0.0
C1420 C 0.48078 0.88031 0.1019 0.0
C1421 C 0.485 0.87618 0.07771 0.0
C1422 C 0.49166 0.89563 0.06335 0.0
C1423 C 0.49419 0.91889 0.07328 0.0
C1424 C 0.48995 0.92234 0.09796 0.0
H1425 H 0.17639 0.56158 0.13309 0.0
H1426 H 0.13489 0.56656 0.19855 0.0
H1427 H 0.09798 0.55918 0.17567 0.0
H1428 H 0.12933 0.58488 0.09049 0.0
H1429 H 0.13823 0.56321 0.0683 0.0
H1430 H 0.1601 0.57518 0.08877 0.0
H1431 H 0.17106 0.53158 0.10079 0.0
H1432 H 0.14851 0.51985 0.08102 0.0
H1433 H 0.14803 0.51213 0.11232 0.0
H1434 H 0.06693 0.54442 0.14748 0.0
H1435 H 0.04306 0.52662 0.11505 0.0
H1436 H 0.10527 0.52863 0.06838 0.0
C1437 C 0.15947 0.56177 0.14253 0.0
C1438 C 0.15857 0.56469 0.16761 0.0
C1439 C 0.13607 0.56485 0.17929 0.0
C1440 C 0.11497 0.56047 0.16647 0.0
C1441 C 0.11673 0.55602 0.14204 0.0
C1442 C 0.13836 0.55699 0.13009 0.0
C1443 C 0.13585 0.54871 0.10445 0.0
C1444 C 0.14119 0.56925 0.08698 0.0
C1445 C 0.15181 0.52677 0.09937 0.0
C1446 C 0.10963 0.5421 0.1041 0.0
C1447 C 0.09887 0.54675 0.12585 0.0
C1448 C 0.07504 0.54104 0.13024 0.0
C1449 C 0.06171 0.53073 0.11171 0.0
C1450 C 0.07229 0.52611 0.0891 0.0
C1451 C 0.09663 0.53179 0.08542 0.0
H1452 H 0.46092 0.8372 0.87789 0.0
H1453 H 0.46109 0.87683 0.81111 0.0
H1454 H 0.46749 0.91443 0.83342 0.0
H1455 H 0.433 0.88433 0.91501 0.0
H1456 H 0.4516 0.87763 0.94057 0.0
H1457 H 0.44336 0.85417 0.91999 0.0
H1458 H 0.48793 0.84384 0.91303 0.0
H1459 H 0.49668 0.86698 0.93366 0.0
H1460 H 0.50829 0.86704 0.90359 0.0
H1461 H 0.47944 0.94672 0.86247 0.0
H1462 H 0.49286 0.97167 0.89641 0.0
H1463 H 0.48599 0.91022 0.94368 0.0
C1464 C 0.46177 0.85385 0.868 0.0
C1465 C 0.4604 0.8541 0.8428 0.0
C1466 C 0.46162 0.87626 0.83047 0.0
C1467 C 0.46546 0.89769 0.84296 0.0
C1468 C 0.46788 0.89663 0.86773 0.0
C1469 C 0.46576 0.87531 0.88014 0.0
C1470 C 0.47083 0.87865 0.90648 0.0
C1471 C 0.44836 0.87338 0.92141 0.0
C1472 C 0.4922 0.86322 0.91465 0.0
C1473 C 0.47694 0.905 0.90683 0.0
C1474 C 0.47494 0.91515 0.88439 0.0
C1475 C 0.48075 0.93906 0.88021 0.0
C1476 C 0.48853 0.95303 0.89958 0.0
C1477 C 0.49055 0.94296 0.92278 0.0
C1478 C 0.48465 0.9186 0.92626 0.0
H1479 H 0.14563 0.45795 0.8385 0.0
H1480 H 0.20941 0.45203 0.88266 0.0
H1481 H 0.18474 0.45657 0.91881 0.0
H1482 H 0.12025 0.50411 0.86946 0.0
H1483 H 0.0896 0.49432 0.86683 0.0
H1484 H 0.11113 0.48565 0.84458 0.0
H1485 H 0.10125 0.44088 0.8518 0.0
H1486 H 0.07943 0.44933 0.87399 0.0
H1487 H 0.10317 0.4288 0.88163 0.0
H1488 H 0.15451 0.46774 0.94954 0.0
H1489 H 0.12035 0.48266 0.97299 0.0
H1490 H 0.07637 0.48285 0.90872 0.0
C1491 C 0.15434 0.45706 0.8558 0.0
C1492 C 0.17945 0.45451 0.85771 0.0
C1493 C 0.19017 0.45346 0.88069 0.0
C1494 C 0.17631 0.45618 0.90137 0.0
C1495 C 0.15177 0.45976 0.89878 0.0
C1496 C 0.14079 0.45988 0.8766 0.0
C1497 C 0.11451 0.4663 0.87858 0.0
C1498 C 0.10854 0.48894 0.864 0.0
C1499 C 0.09866 0.44506 0.87106 0.0
C1500 C 0.11276 0.47092 0.90517 0.0
C1501 C 0.13432 0.46666 0.91655 0.0
C1502 C 0.13743 0.47085 0.9409 0.0
C1503 C 0.11793 0.47955 0.95401 0.0
C1504 C 0.09562 0.48412 0.94271 0.0
C1505 C 0.09311 0.47958 0.91796 0.0
H1506 H 0.47812 0.14426 0.84442 0.0
H1507 H 0.48779 0.20935 0.88586 0.0
H1508 H 0.49669 0.18514 0.9217 0.0
H1509 H 0.45168 0.10772 0.89294 0.0
H1510 H 0.46701 0.08114 0.88292 0.0
H1511 H 0.45853 0.10385 0.86167 0.0
H1512 H 0.50283 0.10611 0.84768 0.0
H1513 H 0.51138 0.084 0.86951 0.0
H1514 H 0.52595 0.1128 0.86922 0.0
H1515 H 0.50838 0.15423 0.95172 0.0
H1516 H 0.5181 0.11832 0.97538 0.0
H1517 H 0.50137 0.07343 0.91397 0.0
C1518 C 0.48171 0.15338 0.86115 0.0
C1519 C 0.48219 0.17863 0.86245 0.0
C1520 C 0.48694 0.19 0.88461 0.0
C1521 C 0.49222 0.17643 0.90499 0.0
C1522 C 0.4925 0.15158 0.90286 0.0
C1523 C 0.487 0.14013 0.88163 0.0
C1524 C 0.48951 0.11325 0.88387 0.0
C1525 C 0.46523 0.10077 0.88014 0.0
C1526 C 0.50855 0.10348 0.86654 0.0
C1527 C 0.49777 0.11143 0.90955 0.0
C1528 C 0.49934 0.13372 0.92018 0.0
C1529 C 0.507 0.13663 0.94369 0.0
C1530 C 0.5126 0.1161 0.95693 0.0
C1531 C 0.51051 0.09299 0.94657 0.0
C1532 C 0.50331 0.09078 0.92244 0.0
H1533 H 0.84449 0.55814 0.87229 0.0
H1534 H 0.88492 0.55979 0.80602 0.0
H1535 H 0.92182 0.5504 0.82842 0.0
H1536 H 0.89192 0.57827 0.91453 0.0
H1537 H 0.88133 0.55688 0.93628 0.0
H1538 H 0.86072 0.56995 0.91527 0.0
H1539 H 0.84865 0.52628 0.90359 0.0
H1540 H 0.87082 0.51397 0.92347 0.0
H1541 H 0.87125 0.50624 0.89217 0.0
H1542 H 0.95327 0.53549 0.85742 0.0
H1543 H 0.97687 0.51869 0.8908 0.0
H1544 H 0.9142 0.523 0.93667 0.0
C1545 C 0.86114 0.55701 0.86246 0.0
C1546 C 0.8617 0.5597 0.83737 0.0
C1547 C 0.88399 0.55826 0.8253 0.0
C1548 C 0.90506 0.55267 0.83785 0.0
C1549 C 0.90346 0.54846 0.86235 0.0
C1550 C 0.88206 0.55074 0.87452 0.0
C1551 C 0.88429 0.5425 0.90014 0.0
C1552 C 0.8793 0.56317 0.91756 0.0
C1553 C 0.86777 0.52097 0.90511 0.0
C1554 C 0.9103 0.53516 0.90056 0.0
C1555 C 0.92115 0.53884 0.87868 0.0
C1556 C 0.94499 0.53269 0.87469 0.0
C1557 C 0.95818 0.52294 0.89373 0.0
C1558 C 0.94741 0.51933 0.91642 0.0
C1559 C 0.92307 0.52538 0.91963 0.0
H1560 H 0.6584 0.67895 0.0279 0.0
H1561 H 0.69654 0.64965 0.0892 0.0
H1562 H 0.67271 0.61257 0.08579 0.0
H1563 H 0.60003 0.65492 0.04507 0.0
H1564 H 0.59135 0.65018 0.01436 0.0
H1565 H 0.61152 0.6742 0.02192 0.0
H1566 H 0.64237 0.65738 0.99159 0.0
H1567 H 0.62251 0.63305 0.98432 0.0
H1568 H 0.65252 0.62684 0.99451 0.0
H1569 H 0.64647 0.5776 0.07363 0.0
H1570 H 0.61629 0.54962 0.05719 0.0
H1571 H 0.59304 0.60403 1.00686 0.0
C1572 C 0.66146 0.66522 0.04121 0.0
C1573 C 0.67956 0.66747 0.05884 0.0
C1574 C 0.68316 0.64838 0.07523 0.0
C1575 C 0.66961 0.62726 0.07353 0.0
C1576 C 0.65225 0.62568 0.05566 0.0
C1577 C 0.6478 0.64438 0.04016 0.0
C1578 C 0.62788 0.63851 0.02276 0.0
C1579 C 0.60642 0.65545 0.02625 0.0
C1580 C 0.63687 0.63897 0.99676 0.0
C1581 C 0.62199 0.61334 0.03064 0.0
C1582 C 0.63642 0.60612 0.04946 0.0
C1583 C 0.63493 0.58316 0.05908 0.0
C1584 C 0.61793 0.56735 0.04949 0.0
C1585 C 0.60251 0.57478 0.03076 0.0
C1586 C 0.60461 0.59802 0.02124 0.0
H1587 H 0.34673 0.63727 0.97031 0.0
H1588 H 0.38637 0.70406 0.96659 0.0
H1589 H 0.42376 0.68234 0.97577 0.0
H1590 H 0.37722 0.61369 0.01992 0.0
H1591 H 0.37712 0.58312 0.0095 0.0
H1592 H 0.35377 0.60336 1.00025 0.0
H1593 H 0.36351 0.59482 0.9557 0.0
H1594 H 0.38668 0.57427 0.96483 0.0
H1595 H 0.39372 0.59877 0.94508 0.0
H1596 H 0.45616 0.65398 0.98845 0.0
H1597 H 0.48199 0.62037 1.00081 0.0
H1598 H 0.4208 0.57234 0.99704 0.0
C1599 C 0.36332 0.64728 0.97115 0.0
C1600 C 0.36367 0.67232 0.96761 0.0
C1601 C 0.38575 0.68479 0.96879 0.0
C1602 C 0.40704 0.67266 0.9742 0.0
C1603 C 0.40593 0.64808 0.97827 0.0
C1604 C 0.38471 0.63547 0.97653 0.0
C1605 C 0.38826 0.60928 0.98252 0.0
C1606 C 0.3732 0.60195 1.00434 0.0
C1607 C 0.38272 0.59335 0.96074 0.0
C1608 C 0.41472 0.60925 0.98833 0.0
C1609 C 0.4246 0.63177 0.98571 0.0
C1610 C 0.44868 0.63621 0.9904 0.0
C1611 C 0.46317 0.61699 0.99755 0.0
C1612 C 0.45349 0.59363 0.99996 0.0
C1613 C 0.42885 0.58991 0.99546 0.0
H1614 H 0.38222 0.33853 0.97725 0.0
H1615 H 0.32652 0.38335 0.94688 0.0
H1616 H 0.3538 0.41811 0.948 0.0
H1617 H 0.40167 0.37796 0.01836 0.0
H1618 H 0.43327 0.37162 0.01651 0.0
H1619 H 0.41187 0.34894 1.00848 0.0
H1620 H 0.43104 0.34468 0.96653 0.0
H1621 H 0.45298 0.36697 0.97461 0.0
H1622 H 0.43494 0.3709 0.94812 0.0
H1623 H 0.38312 0.44872 0.95982 0.0
H1624 H 0.4152 0.47337 0.97695 0.0
H1625 H 0.45296 0.409 0.99927 0.0
C1626 C 0.37625 0.35543 0.9698 0.0
C1627 C 0.35247 0.35839 0.96178 0.0
C1628 C 0.3448 0.38086 0.95294 0.0
C1629 C 0.36014 0.40064 0.95351 0.0
C1630 C 0.38309 0.39749 0.96276 0.0
C1631 C 0.39138 0.37539 0.9703 0.0
C1632 C 0.4159 0.37747 0.98179 0.0
C1633 C 0.41564 0.36847 1.00782 0.0
C1634 C 0.43484 0.36422 0.96687 0.0
C1635 C 0.41948 0.40432 0.98065 0.0
C1636 C 0.40042 0.41543 0.96939 0.0
C1637 C 0.39849 0.44023 0.96806 0.0
C1638 C 0.41674 0.45408 0.97811 0.0
C1639 C 0.43674 0.44314 0.98936 0.0
C1640 C 0.43808 0.41789 0.99054 0.0
H1641 H 0.68546 0.36396 0.02942 0.0
H1642 H 0.65583 0.33041 0.09303 0.0
H1643 H 0.61979 0.35577 0.08916 0.0
H1644 H 0.66433 0.42422 0.04384 0.0
H1645 H 0.65923 0.43139 0.01281 0.0
H1646 H 0.68253 0.41059 0.02095 0.0
H1647 H 0.66371 0.37889 0.99268 0.0
H1648 H 0.64007 0.39938 0.98484 0.0
H1649 H 0.63288 0.37027 0.99677 0.0
H1650 H 0.5858 0.3828 0.07636 0.0
H1651 H 0.55894 0.41354 0.05903 0.0
H1652 H 0.61296 0.43154 1.00654 0.0
C1653 C 0.67188 0.36227 0.0431 0.0
C1654 C 0.67364 0.345 0.06154 0.0
C1655 C 0.65483 0.34315 0.07847 0.0
C1656 C 0.63432 0.35755 0.0765 0.0
C1657 C 0.63312 0.37397 0.05777 0.0
C1658 C 0.65165 0.37676 0.04172 0.0
C1659 C 0.64623 0.39593 0.0234 0.0
C1660 C 0.66414 0.41677 0.02538 0.0
C1661 C 0.64569 0.38548 0.99793 0.0
C1662 C 0.62154 0.40334 0.03146 0.0
C1663 C 0.61413 0.39025 0.05111 0.0
C1664 C 0.59151 0.39328 0.06112 0.0
C1665 C 0.5763 0.41051 0.05104 0.0
C1666 C 0.58398 0.42456 0.03146 0.0
C1667 C 0.60681 0.42093 0.02154 0.0
H1668 H 0.94769 0.67786 0.63175 0.0
H1669 H 0.94739 0.63999 0.69962 0.0
H1670 H 0.96024 0.60327 0.6793 0.0
H1671 H 0.93039 0.62391 0.59315 0.0
H1672 H 0.95005 0.63353 0.56953 0.0
H1673 H 0.93535 0.65543 0.58814 0.0
H1674 H 0.97664 0.67399 0.5984 0.0
H1675 H 0.99154 0.65188 0.58035 0.0
H1676 H 0.99963 0.65536 0.61139 0.0
H1677 H 0.98078 0.5736 0.65415 0.0
H1678 H 1.00209 0.55007 0.62384 0.0
H1679 H 0.9899 0.60665 0.57169 0.0
C1680 C 0.94951 0.66161 0.64217 0.0
C1681 C 0.9464 0.66186 0.66729 0.0
C1682 C 0.94912 0.64026 0.68033 0.0
C1683 C 0.95666 0.61927 0.66897 0.0
C1684 C 0.96112 0.62007 0.64452 0.0
C1685 C 0.95705 0.64044 0.63107 0.0
C1686 C 0.96538 0.63701 0.60547 0.0
C1687 C 0.94402 0.6375 0.58805 0.0
C1688 C 0.98443 0.65567 0.59851 0.0
C1689 C 0.97606 0.61212 0.60715 0.0
C1690 C 0.97312 0.60263 0.62976 0.0
C1691 C 0.98272 0.58056 0.6362 0.0
C1692 C 0.99506 0.56745 0.61884 0.0
C1693 C 0.99774 0.57643 0.59526 0.0
C1694 C 0.98825 0.59922 0.5895 0.0
H1695 H 0.36662 0.98849 0.66761 0.0
H1696 H 0.33081 0.05384 0.64459 0.0
H1697 H 0.35695 0.05557 0.60937 0.0
H1698 H 0.42583 1.00941 0.65177 0.0
H1699 H 0.43606 0.98008 0.6429 0.0
H1700 H 0.41339 0.98303 0.66559 0.0
H1701 H 0.38533 0.95542 0.64092 0.0
H1702 H 0.40782 0.95267 0.61802 0.0
H1703 H 0.37824 0.96318 0.61042 0.0
H1704 H 0.38558 0.04952 0.57596 0.0
H1705 H 0.41946 0.03961 0.5494 0.0
H1706 H 0.43994 0.98142 0.59664 0.0
C1707 C 0.36438 1.00341 0.65545 0.0
C1708 C 0.34617 0.02072 0.65878 0.0
C1709 C 0.34396 0.0398 0.64213 0.0
C1710 C 0.35885 0.04108 0.62211 0.0
C1711 C 0.37624 0.0235 0.61924 0.0
C1712 C 0.37949 1.00535 0.63569 0.0
C1713 C 0.40055 0.98959 0.62911 0.0
C1714 C 0.42012 0.99061 0.64849 0.0
C1715 C 0.39249 0.96368 0.62433 0.0
C1716 C 0.40855 1.00175 0.60633 0.0
C1717 C 0.39396 0.02098 0.60073 0.0
C1718 C 0.39726 0.03463 0.58019 0.0
C1719 C 0.41638 0.02878 0.56518 0.0
C1720 C 0.43209 0.00979 0.57113 0.0
C1721 C 0.4281 0.99605 0.59186 0.0
H1722 H 0.05436 0.36901 0.68891 0.0
H1723 H 0.0938 0.31965 0.64395 0.0
H1724 H 0.09448 0.34974 0.61158 0.0
H1725 H 0.01623 0.38823 0.64602 0.0
H1726 H 0.01434 0.41921 0.65497 0.0
H1727 H 0.02164 0.39663 0.67671 0.0
H1728 H 0.06076 0.41903 0.68765 0.0
H1729 H 0.05339 0.442 0.66618 0.0
H1730 H 0.08176 0.42666 0.66441 0.0
H1731 H 0.08429 0.38051 0.58253 0.0
H1732 H 0.06662 0.41234 0.55796 0.0
H1733 H 0.03299 0.44291 0.62097 0.0
C1734 C 0.06405 0.36512 0.6726 0.0
C1735 C 0.07448 0.3424 0.66885 0.0
C1736 C 0.08612 0.33721 0.64707 0.0
C1737 C 0.08658 0.35417 0.62868 0.0
C1738 C 0.07528 0.37611 0.63248 0.0
C1739 C 0.06446 0.38184 0.65396 0.0
C1740 C 0.05102 0.40544 0.65222 0.0
C1741 C 0.02423 0.40216 0.6578 0.0
C1742 C 0.06242 0.42441 0.66859 0.0
C1743 C 0.05499 0.41141 0.62609 0.0
C1744 C 0.06932 0.39435 0.61526 0.0
C1745 C 0.07369 0.39441 0.59084 0.0
C1746 C 0.06325 0.4124 0.57702 0.0
C1747 C 0.04842 0.43009 0.58758 0.0
C1748 C 0.04455 0.42982 0.61252 0.0
H1749 H 0.68392 0.05504 0.64606 0.0
H1750 H 0.64009 0.10405 0.68793 0.0
H1751 H 0.60424 0.08947 0.66662 0.0
H1752 H 0.65035 0.06388 0.59007 0.0
H1753 H 0.65511 0.03324 0.58107 0.0
H1754 H 0.67719 0.04837 0.59911 0.0
H1755 H 0.67444 0.0144 0.63052 0.0
H1756 H 0.65188 0.99937 0.61307 0.0
H1757 H 0.64586 1.00735 0.64373 0.0
H1758 H 0.57281 0.06543 0.64421 0.0
H1759 H 0.54916 0.04119 0.61578 0.0
H1760 H 0.61471 0.01177 0.58625 0.0
C1761 C 0.66713 0.06365 0.65038 0.0
C1762 C 0.66513 0.08062 0.66913 0.0
C1763 C 0.64227 0.0906 0.67417 0.0
C1764 C 0.62174 0.08248 0.66211 0.0
C1765 C 0.62445 0.06485 0.64467 0.0
C1766 C 0.64668 0.05622 0.63825 0.0
C1767 C 0.64499 0.03761 0.61868 0.0
C1768 C 0.65766 0.04629 0.59587 0.0
C1769 C 0.65488 0.01325 0.62702 0.0
C1770 C 0.6182 0.03671 0.61537 0.0
C1771 C 0.60661 0.05225 0.63076 0.0
C1772 C 0.58174 0.05362 0.63172 0.0
C1773 C 0.56847 0.03959 0.61568 0.0
C1774 C 0.58015 0.02483 0.59865 0.0
C1775 C 0.60531 0.02299 0.59896 0.0
H1776 H 0.98673 0.37788 0.33715 0.0
H1777 H 0.95298 0.32367 0.38116 0.0
H1778 H 0.95656 0.35003 0.41639 0.0
H1779 H 0.02973 0.39422 0.37717 0.0
H1780 H 0.02965 0.42598 0.37133 0.0
H1781 H 0.02041 0.40538 0.34835 0.0
H1782 H 0.9796 0.42716 0.34441 0.0
H1783 H 0.98891 0.44822 0.36707 0.0
H1784 H 0.96142 0.43172 0.37065 0.0
H1785 H 0.96947 0.37815 0.4472 0.0
H1786 H 0.98776 0.40887 0.47258 0.0
H1787 H 0.01328 0.44639 0.40946 0.0
C1788 C 0.97925 0.3721 0.35405 0.0
C1789 C 0.96937 0.34895 0.35659 0.0
C1790 C 0.96044 0.34145 0.379 0.0
C1791 C 0.96238 0.35629 0.39903 0.0
C1792 C 0.97317 0.37859 0.39625 0.0
C1793 C 0.98111 0.38676 0.37432 0.0
C1794 C 0.99399 0.41059 0.37689 0.0
C1795 C 0.01998 0.40892 0.3679 0.0
C1796 C 0.98015 0.43061 0.36399 0.0
C1797 C 0.99307 0.41383 0.4038 0.0
C1798 C 0.98073 0.39521 0.41445 0.0
C1799 C 0.97882 0.39304 0.4391 0.0
C1800 C 0.98962 0.41047 0.45336 0.0
C1801 C 1.0022 0.42993 0.44299 0.0
C1802 C 1.00373 0.43175 0.41784 0.0
H1803 H 0.65415 0.056 0.34576 0.0
H1804 H 0.7217 0.04838 0.38344 0.0
H1805 H 0.69984 0.04186 0.42125 0.0
H1806 H 0.61971 0.08421 0.39563 0.0
H1807 H 0.59303 0.06783 0.38776 0.0
H1808 H 0.61407 0.07627 0.36487 0.0
H1809 H 0.61722 0.03179 0.35175 0.0
H1810 H 0.59658 0.02316 0.37484 0.0
H1811 H 0.62578 0.00944 0.37342 0.0
H1812 H 0.67049 0.03071 0.45373 0.0
H1813 H 0.63602 0.01836 0.47855 0.0
H1814 H 0.58832 0.032 0.41856 0.0
C1815 C 0.66434 0.05354 0.36208 0.0
C1816 C 0.68958 0.05278 0.36172 0.0
C1817 C 0.70234 0.04945 0.3834 0.0
C1818 C 0.69008 0.04558 0.40493 0.0
C1819 C 0.66513 0.0453 0.40442 0.0
C1820 C 0.65242 0.04955 0.38359 0.0
C1821 C 0.62583 0.04627 0.38725 0.0
C1822 C 0.61237 0.07006 0.38367 0.0
C1823 C 0.61578 0.02649 0.37085 0.0
C1824 C 0.62563 0.03865 0.41315 0.0
C1825 C 0.64836 0.03847 0.4229 0.0
C1826 C 0.65255 0.03109 0.44637 0.0
C1827 C 0.63289 0.02397 0.46027 0.0
C1828 C 0.60944 0.02405 0.45052 0.0
C1829 C 0.60596 0.03154 0.42663 0.0
H1830 H 0.98294 0.68239 0.386 0.0
H1831 H 0.94268 0.63839 0.33644 0.0
H1832 H 0.94152 0.60573 0.36619 0.0
H1833 H 0.02065 0.64006 0.40393 0.0
H1834 H 0.02298 0.64798 0.43511 0.0
H1835 H 0.01505 0.67042 0.41348 0.0
H1836 H 0.97611 0.68009 0.43674 0.0
H1837 H 0.98417 0.65795 0.45884 0.0
H1838 H 0.95557 0.65627 0.44396 0.0
H1839 H 0.95194 0.57598 0.39613 0.0
H1840 H 0.97148 0.55046 0.42604 0.0
H1841 H 1.00595 0.61283 0.45726 0.0
C1842 C 0.97289 0.66627 0.38207 0.0
C1843 C 0.96246 0.66281 0.35934 0.0
C1844 C 0.95035 0.64127 0.35403 0.0
C1845 C 0.94958 0.62275 0.3708 0.0
C1846 C 0.96101 0.62618 0.39272 0.0
C1847 C 0.97217 0.6475 0.39862 0.0
C1848 C 0.98608 0.64521 0.42186 0.0
C1849 C 0.01276 0.65126 0.41836 0.0
C1850 C 0.9748 0.66081 0.44151 0.0
C1851 C 0.98249 0.61884 0.42706 0.0
C1852 C 0.96747 0.60845 0.41029 0.0
C1853 C 0.96327 0.58394 0.40969 0.0
C1854 C 0.97477 0.56958 0.42656 0.0
C1855 C 0.99042 0.5797 0.4438 0.0
C1856 C 0.99393 0.60472 0.44438 0.0
H1857 H 0.35822 1.00401 0.36216 0.0
H1858 H 0.38437 0.06672 0.32412 0.0
H1859 H 0.42123 0.06574 0.34829 0.0
H1860 H 0.37902 0.02411 0.41993 0.0
H1861 H 0.38586 0.99421 0.43003 0.0
H1862 H 0.36227 0.99895 0.40855 0.0
H1863 H 0.38288 0.96903 0.37963 0.0
H1864 H 0.40671 0.96447 0.4009 0.0
H1865 H 0.41353 0.97403 0.37088 0.0
H1866 H 0.45581 0.0572 0.37583 0.0
H1867 H 0.48311 0.04517 0.40852 0.0
H1868 H 0.43208 0.99134 0.43144 0.0
C1869 C 0.37137 0.01787 0.35902 0.0
C1870 C 0.36828 0.03527 0.34086 0.0
C1871 C 0.38642 0.05273 0.33736 0.0
C1872 C 0.40742 0.05245 0.35112 0.0
C1873 C 0.40984 0.0349 0.36864 0.0
C1874 C 0.39211 0.01826 0.37296 0.0
C1875 C 0.39847 1.00217 0.3938 0.0
C1876 C 0.38033 1.00504 0.41429 0.0
C1877 C 0.40052 0.97587 0.38581 0.0
C1878 C 0.42264 0.01233 0.40048 0.0
C1879 C 0.42908 0.03092 0.38548 0.0
C1880 C 0.4509 0.04277 0.38778 0.0
C1881 C 0.46633 0.03572 0.40626 0.0
C1882 C 0.45959 0.01739 0.42239 0.0
C1883 C 0.43756 1.00547 0.41935 0.0
H1884 H 0.99749 0.13047 0.32102 0.0
H1885 H 0.02178 0.19549 0.35592 0.0
H1886 H 0.0233 0.17427 0.39459 0.0
H1887 H 0.96085 0.10792 0.36909 0.0
H1888 H 0.96941 0.07703 0.36509 0.0
H1889 H 0.96974 0.09725 0.33998 0.0
H1890 H 0.01429 0.0868 0.33224 0.0
H1891 H 0.01395 0.06653 0.35731 0.0
H1892 H 0.0358 0.09025 0.35607 0.0
H1893 H 0.01985 0.14708 0.4299 0.0
H1894 H 0.01632 0.1143 0.45912 0.0
H1895 H 0.99769 0.06514 0.4018 0.0
C1896 C 1.00323 0.14011 0.33683 0.0
C1897 C 0.00962 0.16467 0.33544 0.0
C1898 C 0.01708 0.17667 0.3565 0.0
C1899 C 0.01784 0.1648 0.37859 0.0
C1900 C 0.01141 0.1407 0.37944 0.0
C1901 C 1.00462 0.1283 0.35911 0.0
C1902 C 0.9995 0.10218 0.36511 0.0
C1903 C 0.97331 0.09573 0.35948 0.0
C1904 C 0.01693 0.08545 0.3519 0.0
C1905 C 1.00418 0.10202 0.39195 0.0
C1906 C 0.01074 0.12455 0.39981 0.0
C1907 C 0.01506 0.12928 0.42391 0.0
C1908 C 0.01298 0.11047 0.44043 0.0
C1909 C 1.00711 0.08694 0.43287 0.0
C1910 C 1.00256 0.08279 0.40821 0.0
H1911 H 0.89004 0.02172 0.31708 0.0
H1912 H 0.83952 0.9665 0.3382 0.0
H1913 H 0.8628 0.95933 0.37483 0.0
H1914 H 0.94411 0.99244 0.34155 0.0
H1915 H 0.95706 0.02029 0.35154 0.0
H1916 H 0.9376 0.01986 0.32578 0.0
H1917 H 0.91072 0.05191 0.34573 0.0
H1918 H 0.92987 0.05219 0.37168 0.0
H1919 H 0.89833 0.0462 0.37494 0.0
H1920 H 0.88884 0.96057 0.41107 0.0
H1921 H 0.91797 0.96824 0.44339 0.0
H1922 H 0.95284 0.02193 0.39947 0.0
C1923 C 0.88401 1.00791 0.32925 0.0
C1924 C 0.86293 0.9945 0.32437 0.0
C1925 C 0.8558 0.97665 0.34097 0.0
C1926 C 0.86883 0.97257 0.36205 0.0
C1927 C 0.88914 0.98635 0.36647 0.0
C1928 C 0.89692 1.0035 0.35046 0.0
C1929 C 0.91902 0.0163 0.36006 0.0
C1930 C 0.94074 0.01195 0.34376 0.0
C1931 C 0.91418 0.04324 0.36329 0.0
C1932 C 0.92215 1.00388 0.38408 0.0
C1933 C 0.90461 0.98674 0.38737 0.0
C1934 C 0.90283 0.97375 0.40857 0.0
C1935 C 0.91938 0.97834 0.4269 0.0
C1936 C 0.93773 0.9956 0.42394 0.0
C1937 C 0.93922 1.00839 0.40211 0.0
H1938 H 0.9995 0.83923 0.36003 0.0
H1939 H 0.04636 0.87395 0.30886 0.0
H1940 H 0.05428 0.90626 0.33816 0.0
H1941 H 0.97334 0.8924 0.38399 0.0
H1942 H 0.97225 0.88156 0.41431 0.0
H1943 H 0.97081 0.86071 0.38978 0.0
H1944 H 1.00721 0.8377 0.407 0.0
H1945 H 1.00866 0.85843 0.43168 0.0
H1946 H 0.03462 0.85361 0.41316 0.0
H1947 H 0.05484 0.93621 0.37198 0.0
H1948 H 0.04908 0.96099 0.40809 0.0
H1949 H 1.00348 0.90609 0.43853 0.0
C1950 C 0.01141 0.85365 0.35495 0.0
C1951 C 0.02224 0.85406 0.332 0.0
C1952 C 0.03797 0.87311 0.32629 0.0
C1953 C 0.04252 0.89158 0.34283 0.0
C1954 C 0.03146 0.89066 0.36519 0.0
C1955 C 0.01636 0.87209 0.37135 0.0
C1956 C 1.00656 0.8755 0.39649 0.0
C1957 C 0.9791 0.87767 0.39609 0.0
C1958 C 0.01476 0.85509 0.41306 0.0
C1959 C 0.01821 0.89909 0.40343 0.0
C1960 C 0.03246 0.90752 0.38504 0.0
C1961 C 0.04396 0.92961 0.38656 0.0
C1962 C 0.04056 0.94358 0.40717 0.0
C1963 C 0.02598 0.93543 0.42625 0.0
C1964 C 0.01503 0.91264 0.42446 0.0
H1965 H 0.13645 1.00577 0.32665 0.0
H1966 H 0.19833 0.03738 0.36136 0.0
H1967 H 0.17685 0.03746 0.39992 0.0
H1968 H 0.09259 0.04025 0.3596 0.0
H1969 H 0.07113 0.01622 0.36154 0.0
H1970 H 0.09165 0.01747 0.33674 0.0
H1971 H 0.10634 0.97456 0.34664 0.0
H1972 H 0.0859 0.97326 0.37152 0.0
H1973 H 0.11741 0.96802 0.37625 0.0
H1974 H 0.14908 0.03379 0.43494 0.0
H1975 H 0.11578 0.02911 0.46357 0.0
H1976 H 0.07059 1.00202 0.40635 0.0
C1977 C 0.14542 0.01257 0.34244 0.0
C1978 C 0.16909 0.02157 0.34104 0.0
C1979 C 0.18018 0.03054 0.36202 0.0
C1980 C 0.16816 0.03057 0.38402 0.0
C1981 C 0.14484 0.02178 0.38486 0.0
C1982 C 0.13343 0.01313 0.36463 0.0
C1983 C 0.10789 1.00571 0.37046 0.0
C1984 C 0.08975 0.02082 0.35624 0.0
C1985 C 0.10417 0.97879 0.36595 0.0
C1986 C 0.10683 0.01149 0.39704 0.0
C1987 C 0.12845 0.0205 0.405 0.0
C1988 C 0.13203 0.02682 0.42889 0.0
C1989 C 0.113 0.02402 0.44508 0.0
C1990 C 0.09047 0.01524 0.43734 0.0
C1991 C 0.08749 1.00891 0.41291 0.0
H1992 H 0.99975 0.88101 0.69105 0.0
H1993 H 0.02601 0.81693 0.65572 0.0
H1994 H 0.02828 0.8389 0.61761 0.0
H1995 H 0.96333 0.90238 0.6431 0.0
H1996 H 0.97043 0.9336 0.6473 0.0
H1997 H 0.97151 0.91333 0.67234 0.0
H1998 H 0.01551 0.92546 0.68071 0.0
H1999 H 0.01447 0.94595 0.65582 0.0
H2000 H 0.03733 0.92317 0.65709 0.0
H2001 H 0.02444 0.86635 0.58267 0.0
H2002 H 0.01934 0.89901 0.55367 0.0
H2003 H 0.99822 0.94696 0.61117 0.0
C2004 C 1.00622 0.87172 0.67533 0.0
C2005 C 0.01291 0.84722 0.67651 0.0
C2006 C 0.02122 0.83573 0.65547 0.0
C2007 C 0.02238 0.84803 0.63364 0.0
C2008 C 0.01541 0.87198 0.63301 0.0
C2009 C 1.00786 0.8839 0.65332 0.0
C2010 C 1.00165 0.90982 0.64752 0.0
C2011 C 0.97516 0.91508 0.65289 0.0
C2012 C 0.01823 0.92712 0.66109 0.0
C2013 C 1.00654 0.9104 0.62077 0.0
C2014 C 0.01424 0.88827 0.61282 0.0
C2015 C 0.01883 0.88389 0.58874 0.0
C2016 C 0.01587 0.90267 0.57236 0.0
C2017 C 1.00885 0.92587 0.58001 0.0
C2018 C 1.00397 0.92962 0.60465 0.0
H2019 H 0.16996 0.99293 0.6625 0.0
H2020 H 0.12789 0.03224 0.71473 0.0
H2021 H 0.09617 0.03816 0.6846 0.0
H2022 H 0.15405 0.02845 0.61089 0.0
H2023 H 0.15225 1.00328 0.59073 0.0
H2024 H 0.17198 1.0021 0.61624 0.0
H2025 H 0.15155 0.963 0.62988 0.0
H2026 H 0.13115 0.96418 0.60488 0.0
H2027 H 0.11966 0.96261 0.6349 0.0
H2028 H 0.06846 0.03915 0.64958 0.0
H2029 H 0.04625 0.03513 0.61177 0.0
H2030 H 0.10558 0.99579 0.58075 0.0
C2031 C 0.154 1.00261 0.66771 0.0
C2032 C 0.15164 0.0122 0.69121 0.0
C2033 C 0.13047 0.025 0.69695 0.0
C2034 C 0.11223 0.02838 0.67992 0.0
C2035 C 0.11524 0.01891 0.65702 0.0
C2036 C 0.13554 1.00623 0.65083 0.0
C2037 C 0.13398 0.99778 0.6249 0.0
C2038 C 0.15428 1.00856 0.6098 0.0
C2039 C 0.13411 0.97026 0.62357 0.0
C2040 C 0.10972 1.00785 0.61748 0.0
C2041 C 0.09927 0.01984 0.63646 0.0
C2042 C 0.07656 0.02995 0.63459 0.0
C2043 C 0.06405 0.02756 0.61296 0.0
C2044 C 0.07415 0.01536 0.59313 0.0
C2045 C 0.09751 1.0056 0.59539 0.0
H2046 H 0.01829 0.12697 0.69322 0.0
H2047 H 0.97367 0.18508 0.66706 0.0
H2048 H 0.9656 0.16228 0.63019 0.0
H2049 H 0.04499 0.1122 0.6377 0.0
H2050 H 0.04502 0.08025 0.64232 0.0
H2051 H 0.04628 0.1002 0.66762 0.0
H2052 H 1.00863 0.08016 0.68566 0.0
H2053 H 1.00744 0.05993 0.66055 0.0
H2054 H 0.98171 0.07799 0.66795 0.0
H2055 H 0.9655 0.13519 0.59439 0.0
H2056 H 0.97062 0.10395 0.56351 0.0
H2057 H 0.01329 0.06196 0.61304 0.0
C2058 C 1.00658 0.13476 0.67986 0.0
C2059 C 0.99644 0.15783 0.68327 0.0
C2060 C 0.98128 0.16733 0.66523 0.0
C2061 C 0.97672 0.15456 0.64407 0.0
C2062 C 0.98723 0.1321 0.64114 0.0
C2063 C 1.00158 0.12208 0.65865 0.0
C2064 C 0.01091 0.09772 0.65072 0.0
C2065 C 0.03843 0.0976 0.64952 0.0
C2066 C 1.00161 0.07777 0.6672 0.0
C2067 C 0.9999 0.09589 0.6259 0.0
C2068 C 0.98644 0.11601 0.62071 0.0
C2069 C 0.97571 0.11919 0.59839 0.0
C2070 C 0.97881 0.10138 0.58091 0.0
C2071 C 0.99225 0.08042 0.58585 0.0
C2072 C 1.00269 0.07761 0.60879 0.0
H2073 H 0.84454 0.03588 0.65568 0.0
H2074 H 0.85706 0.96738 0.69025 0.0
H2075 H 0.88491 0.95616 0.65783 0.0
H2076 H 0.84661 0.01412 0.59457 0.0
H2077 H 0.86185 0.04022 0.58327 0.0
H2078 H 0.8424 0.04279 0.60884 0.0
H2079 H 0.87702 0.06124 0.63363 0.0
H2080 H 0.89647 0.05895 0.60807 0.0
H2081 H 0.90503 0.04533 0.63604 0.0
H2082 H 0.91317 0.95317 0.62285 0.0
H2083 H 0.9398 0.95876 0.58798 0.0
H2084 H 0.90853 0.02861 0.57503 0.0
C2085 C 0.85323 0.01856 0.65655 0.0
C2086 C 0.8485 1.00252 0.67568 0.0
C2087 C 0.86008 0.9799 0.67578 0.0
C2088 C 0.87601 0.97339 0.65743 0.0
C2089 C 0.88016 0.98957 0.63887 0.0
C2090 C 0.86911 0.0117 0.63827 0.0
C2091 C 0.87701 0.02593 0.61646 0.0
C2092 C 0.85569 0.03106 0.5998 0.0
C2093 C 0.88963 0.04924 0.62401 0.0
C2094 C 0.89447 1.00846 0.60501 0.0
C2095 C 0.89596 0.98757 0.61828 0.0
C2096 C 0.91182 0.96927 0.61214 0.0
C2097 C 0.92679 0.97253 0.59225 0.0
C2098 C 0.92568 0.99376 0.57845 0.0
C2099 C 0.90912 0.01186 0.58479 0.0
H2100 H 0.32317 0.01972 0.13212 0.0
H2101 H 0.348 0.96866 0.18526 0.0
H2102 H 0.38543 0.96327 0.16277 0.0
H2103 H 0.34979 0.98888 0.08016 0.0
H2104 H 0.35765 0.01642 0.0653 0.0
H2105 H 0.33204 0.01546 0.08484 0.0
H2106 H 0.34968 0.05062 0.10949 0.0
H2107 H 0.37538 0.05151 0.09009 0.0
H2108 H 0.37939 0.04793 0.12189 0.0
H2109 H 0.4215 0.96541 0.13654 0.0
H2110 H 0.4528 0.9727 0.10642 0.0
H2111 H 0.40516 0.02148 0.06889 0.0
C2112 C 0.33638 1.00723 0.13889 0.0
C2113 C 0.33232 0.99441 0.16045 0.0
C2114 C 0.35023 0.9783 0.16861 0.0
C2115 C 0.37174 0.97525 0.15604 0.0
C2116 C 0.37525 0.98829 0.13511 0.0
C2117 C 0.358 1.00375 0.12636 0.0
C2118 C 0.3666 0.01569 0.10344 0.0
C2119 C 0.35056 1.00869 0.08218 0.0
C2120 C 0.36783 0.04306 0.10642 0.0
C2121 C 0.39149 1.00486 0.10102 0.0
C2122 C 0.39607 0.98915 0.11957 0.0
C2123 C 0.41806 0.97753 0.12183 0.0
C2124 C 0.43582 0.98193 0.10466 0.0
C2125 C 0.43158 0.99771 0.08522 0.0
C2126 C 0.40897 1.00921 0.08341 0.0
H2127 H 0.99878 0.32668 0.13348 0.0
H2128 H 0.01977 0.36424 0.19816 0.0
H2129 H 0.01907 0.40259 0.17629 0.0
H2130 H 0.03487 0.36326 0.09322 0.0
H2131 H 0.01316 0.36269 0.06934 0.0
H2132 H 0.01492 0.33805 0.09008 0.0
H2133 H 0.96986 0.34332 0.09992 0.0
H2134 H 0.9681 0.36804 0.07928 0.0
H2135 H 0.95909 0.37207 0.10997 0.0
H2136 H 0.01492 0.43716 0.14803 0.0
H2137 H 0.01112 0.46533 0.1143 0.0
H2138 H 0.99452 0.40586 0.0669 0.0
C2139 C 1.00327 0.343 0.14296 0.0
C2140 C 0.00948 0.34239 0.16756 0.0
C2141 C 0.0153 0.36416 0.17929 0.0
C2142 C 0.01478 0.38609 0.16705 0.0
C2143 C 1.0086 0.38612 0.14291 0.0
C2144 C 1.00323 0.36516 0.13084 0.0
C2145 C 0.99795 0.37032 0.10463 0.0
C2146 C 0.01632 0.35784 0.08836 0.0
C2147 C 0.97222 0.363 0.09807 0.0
C2148 C 1.00097 0.3974 0.104 0.0
C2149 C 1.00691 0.40612 0.12635 0.0
C2150 C 0.01038 0.43053 0.13041 0.0
C2151 C 1.00806 0.44644 0.11108 0.0
C2152 C 1.00254 0.43798 0.0878 0.0
C2153 C 0.99883 0.41304 0.08439 0.0
H2154 H 0.65898 0.02081 0.17249 0.0
H2155 H 0.70574 0.96635 0.14258 0.0
H2156 H 0.67432 0.95569 0.11333 0.0
H2157 H 0.60305 0.98798 0.16527 0.0
H2158 H 0.58598 0.01423 0.15729 0.0
H2159 H 0.61165 0.01695 0.1767 0.0
H2160 H 0.63032 0.04819 0.14801 0.0
H2161 H 0.60465 0.04569 0.12865 0.0
H2162 H 0.63427 0.04065 0.1169 0.0
H2163 H 0.63905 0.95267 0.0856 0.0
H2164 H 0.6025 0.95759 0.06124 0.0
H2165 H 0.57762 0.01336 0.10914 0.0
C2166 C 0.66269 1.00668 0.15975 0.0
C2167 C 0.685 0.99442 0.15995 0.0
C2168 C 0.68883 0.97583 0.14309 0.0
C2169 C 0.67107 0.96969 0.12633 0.0
C2170 C 0.6494 0.98215 0.12664 0.0
C2171 C 0.6451 1.00024 0.14292 0.0
C2172 C 0.62047 0.01126 0.13896 0.0
C2173 C 0.60434 1.00736 0.16086 0.0
C2174 C 0.62256 0.03803 0.13276 0.0
C2175 C 0.61172 0.99679 0.11764 0.0
C2176 C 0.62873 0.98005 0.11091 0.0
C2177 C 0.62551 0.96549 0.09092 0.0
C2178 C 0.60466 0.96838 0.0772 0.0
C2179 C 0.58704 0.98554 0.08351 0.0
C2180 C 0.59046 0.99965 0.10427 0.0
H2181 H 0.01307 0.65029 0.17599 0.0
H2182 H 1.00005 0.71275 0.13144 0.0
H2183 H 0.9961 0.68653 0.09622 0.0
H2184 H 0.04904 0.61803 0.13224 0.0
H2185 H 0.03736 0.58906 0.14035 0.0
H2186 H 0.03892 0.61262 0.16235 0.0
H2187 H 0.99353 0.60787 0.17055 0.0
H2188 H 0.99182 0.58441 0.14846 0.0
H2189 H 0.97259 0.61026 0.14608 0.0
H2190 H 0.99346 0.65393 0.06568 0.0
H2191 H 0.99376 0.61725 0.04138 0.0
H2192 H 0.00946 0.57505 0.10479 0.0
C2193 C 0.00967 0.65857 0.15882 0.0
C2194 C 1.00674 0.68382 0.15675 0.0
C2195 C 1.00194 0.69359 0.13382 0.0
C2196 C 0.9998 0.6788 0.11359 0.0
C2197 C 1.00259 0.65413 0.11634 0.0
C2198 C 1.00758 0.64403 0.13832 0.0
C2199 C 0.00998 0.6169 0.13617 0.0
C2200 C 0.03533 0.60867 0.14319 0.0
C2201 C 0.99083 0.60411 0.15121 0.0
C2202 C 1.00548 0.61338 0.10955 0.0
C2203 C 1.00125 0.63517 0.09855 0.0
C2204 C 0.99684 0.6368 0.0741 0.0
C2205 C 0.9971 0.61574 0.06041 0.0
C2206 C 1.00171 0.59309 0.07104 0.0
C2207 C 1.00569 0.59197 0.09609 0.0
H2208 H 0.32511 1.00259 0.88408 0.0
H2209 H 0.3521 0.0515 0.83018 0.0
H2210 H 0.38969 0.05588 0.8529 0.0
H2211 H 0.35138 0.0341 0.93523 0.0
H2212 H 0.35834 1.00702 0.95137 0.0
H2213 H 0.33328 1.00768 0.93103 0.0
H2214 H 0.35089 0.97133 0.9082 0.0
H2215 H 0.37601 0.97064 0.92845 0.0
H2216 H 0.38099 0.97294 0.89669 0.0
H2217 H 0.4255 0.05339 0.88008 0.0
H2218 H 0.45583 0.04645 0.91157 0.0
H2219 H 0.4057 1.00104 0.94964 0.0
C2220 C 0.3389 0.01429 0.87714 0.0
C2221 C 0.33542 0.02686 0.85533 0.0
C2222 C 0.35402 0.04199 0.84697 0.0
C2223 C 0.37558 0.04448 0.85969 0.0
C2224 C 0.37845 0.03191 0.88102 0.0
C2225 C 0.36056 0.0173 0.88989 0.0
C2226 C 0.36831 1.0061 0.91352 0.0
C2227 C 0.35185 0.01421 0.934 0.0
C2228 C 0.3691 0.97862 0.91159 0.0
C2229 C 0.39337 0.0165 0.91634 0.0
C2230 C 0.39889 0.03118 0.89723 0.0
C2231 C 0.42128 0.0421 0.89523 0.0
C2232 C 0.43845 0.03799 0.91318 0.0
C2233 C 0.43318 0.02336 0.93319 0.0
C2234 C 0.41021 0.01259 0.93475 0.0
H2235 H 0.03485 0.35127 0.84443 0.0
H2236 H 0.97985 0.30583 0.87513 0.0
H2237 H 0.97234 0.33635 0.90628 0.0
H2238 H 0.0585 0.37344 0.89991 0.0
H2239 H 0.06383 0.40336 0.88906 0.0
H2240 H 0.06475 0.37838 0.86867 0.0
H2241 H 0.03276 0.39864 0.84194 0.0
H2242 H 0.03191 0.42382 0.86209 0.0
H2243 H 1.00472 0.40795 0.85491 0.0
H2244 H 0.97207 0.37062 0.93513 0.0
H2245 H 0.97792 0.40711 0.95922 0.0
H2246 H 0.03224 0.43167 0.90952 0.0
C2247 C 0.02128 0.34768 0.85777 0.0
C2248 C 1.00796 0.32602 0.85734 0.0
C2249 C 0.99014 0.32227 0.87493 0.0
C2250 C 0.98582 0.33949 0.89275 0.0
C2251 C 0.9993 0.36053 0.89268 0.0
C2252 C 0.01659 0.36479 0.87559 0.0
C2253 C 0.02858 0.38894 0.87966 0.0
C2254 C 0.05551 0.38583 0.88462 0.0
C2255 C 0.02422 0.40583 0.85838 0.0
C2256 C 0.01542 0.39752 0.90183 0.0
C2257 C 0.9987 0.38072 0.90904 0.0
C2258 C 0.98497 0.38394 0.92954 0.0
C2259 C 0.9885 0.40473 0.94316 0.0
C2260 C 1.00547 0.42228 0.93621 0.0
C2261 C 0.01891 0.41873 0.91507 0.0
H2262 H 0.6469 0.01955 0.83103 0.0
H2263 H 0.70565 0.98774 0.87098 0.0
H2264 H 0.67919 0.98304 0.90584 0.0
H2265 H 0.62118 0.05241 0.87979 0.0
H2266 H 0.5905 0.04719 0.87113 0.0
H2267 H 0.61368 0.04767 0.84876 0.0
H2268 H 0.60105 1.00538 0.83455 0.0
H2269 H 0.5778 1.00477 0.85688 0.0
H2270 H 0.59983 0.98117 0.85586 0.0
H2271 H 0.64732 0.98184 0.93628 0.0
H2272 H 0.61208 0.98485 0.96174 0.0
H2273 H 0.57207 0.01765 0.90344 0.0
C2274 C 0.65414 0.01132 0.84701 0.0
C2275 C 0.67858 1.00406 0.84813 0.0
C2276 C 0.68726 0.99375 0.86962 0.0
C2277 C 0.67227 0.99084 0.88952 0.0
C2278 C 0.64848 0.99827 0.88783 0.0
C2279 C 0.63935 1.00829 0.8672 0.0
C2280 C 0.61307 0.01509 0.87059 0.0
C2281 C 0.6094 0.0422 0.86738 0.0
C2282 C 0.59698 1.00075 0.85345 0.0
C2283 C 0.609 1.00756 0.89647 0.0
C2284 C 0.62977 0.99777 0.90581 0.0
C2285 C 0.63099 0.98952 0.92918 0.0
C2286 C 0.61065 0.99146 0.94358 0.0
C2287 C 0.58897 1.00175 0.9349 0.0
C2288 C 0.58818 0.0097 0.91077 0.0
H2289 H 0.98779 0.64891 0.83553 0.0
H2290 H 0.04844 0.69232 0.85764 0.0
H2291 H 0.06014 0.66102 0.88656 0.0
H2292 H 0.9727 0.62756 0.89386 0.0
H2293 H 0.9642 0.59805 0.88384 0.0
H2294 H 0.96141 0.62324 0.86393 0.0
H2295 H 0.98769 0.60117 0.83275 0.0
H2296 H 0.99069 0.57605 0.85279 0.0
H2297 H 0.01704 0.59067 0.84126 0.0
H2298 H 0.06371 0.62658 0.91518 0.0
H2299 H 0.05861 0.59153 0.9417 0.0
H2300 H 0.99625 0.56954 0.90105 0.0
C2301 C 1.00352 0.65193 0.84647 0.0
C2302 C 0.01721 0.67325 0.84413 0.0
C2303 C 0.03782 0.67614 0.85871 0.0
C2304 C 0.04457 0.65844 0.87529 0.0
C2305 C 0.03068 0.63776 0.87711 0.0
C2306 C 0.01057 0.63438 0.86311 0.0
C2307 C 0.9983 0.61082 0.86924 0.0
C2308 C 0.97264 0.61519 0.87826 0.0
C2309 C 0.99845 0.59366 0.84772 0.0
C2310 C 0.01444 0.60168 0.88916 0.0
C2311 C 0.03307 0.61751 0.89332 0.0
C2312 C 0.04947 0.61388 0.91179 0.0
C2313 C 0.04651 0.59387 0.92669 0.0
C2314 C 0.0275 0.57752 0.92295 0.0
C2315 C 0.01144 0.58131 0.90372 0.0
H2316 H 0.17469 0.3581 0.99625 0.0
H2317 H 0.14236 0.30978 0.04765 0.0
H2318 H 0.11012 0.33933 0.05486 0.0
H2319 H 0.16154 0.41312 0.0287 0.0
H2320 H 0.15554 0.43028 1.00204 0.0
H2321 H 0.17623 0.4055 1.00102 0.0
H2322 H 0.15164 0.38627 0.9667 0.0
H2323 H 0.131 0.41107 0.96761 0.0
H2324 H 0.12009 0.38086 0.97087 0.0
H2325 H 0.07999 0.373 0.05463 0.0
H2326 H 0.05511 0.40909 0.04841 0.0
H2327 H 0.10777 0.4371 0.99887 0.0
C2328 C 0.16077 0.3537 0.00897 0.0
C2329 C 0.16104 0.33146 0.02132 0.0
C2330 C 0.14267 0.32664 0.03808 0.0
C2331 C 0.12423 0.34332 0.04223 0.0
C2332 C 0.12449 0.36498 0.02974 0.0
C2333 C 0.14238 0.37031 0.01356 0.0
C2334 C 0.13847 0.39498 1.00259 0.0
C2335 C 0.15918 0.41197 0.00898 0.0
C2336 C 0.13509 0.39317 0.97533 0.0
C2337 C 0.11541 0.40255 0.01487 0.0
C2338 C 0.10762 0.38488 0.03037 0.0
C2339 C 0.0861 0.38705 0.04279 0.0
C2340 C 0.07208 0.40763 0.03914 0.0
C2341 C 0.07968 0.42605 0.02347 0.0
C2342 C 0.10181 0.42357 0.0114 0.0
H2343 H 0.13531 0.6892 0.98509 0.0
H2344 H 0.19392 0.66174 0.02819 0.0
H2345 H 0.17193 0.62393 0.03407 0.0
H2346 H 0.08751 0.66188 0.02079 0.0
H2347 H 0.06894 0.65548 0.99517 0.0
H2348 H 0.08903 0.68073 0.99465 0.0
H2349 H 0.10843 0.66429 0.95591 0.0
H2350 H 0.08853 0.63891 0.95645 0.0
H2351 H 0.12048 0.63431 0.95565 0.0
H2352 H 0.14531 0.58799 0.03273 0.0
H2353 H 0.11331 0.55773 0.02866 0.0
H2354 H 0.07063 0.60858 0.98807 0.0
C2355 C 0.14338 0.67528 0.99592 0.0
C2356 C 0.16631 0.67856 1.00633 0.0
C2357 C 0.17625 0.65988 0.02038 0.0
C2358 C 0.16398 0.63822 0.02366 0.0
C2359 C 0.1416 0.63546 0.01298 0.0
C2360 C 0.13117 0.65357 0.9997 0.0
C2361 C 0.10669 0.64592 0.9905 0.0
C2362 C 0.08687 0.66196 1.0009 0.0
C2363 C 0.10601 0.64586 0.96299 0.0
C2364 C 0.10522 0.62063 1.00044 0.0
C2365 C 0.12567 0.61492 0.01313 0.0
C2366 C 0.129 0.59233 0.02319 0.0
C2367 C 0.11078 0.5752 0.02061 0.0
C2368 C 0.08934 0.58074 1.00818 0.0
C2369 C 0.08665 0.60383 0.99793 0.0
H2370 H 0.33324 0.14064 0.0092 0.0
H2371 H 0.36798 0.20009 0.04532 0.0
H2372 H 0.40521 0.17651 0.04833 0.0
H2373 H 0.3626 0.09326 0.04378 0.0
H2374 H 0.36514 0.07338 0.0185 0.0
H2375 H 0.34088 0.09463 0.01992 0.0
H2376 H 0.3534 0.11171 0.97869 0.0
H2377 H 0.37776 0.09059 0.97726 0.0
H2378 H 0.38363 0.12222 0.97447 0.0
H2379 H 0.43974 0.14722 0.04545 0.0
H2380 H 0.46782 0.11355 0.03911 0.0
H2381 H 0.41075 0.07264 1.00564 0.0
C2382 C 0.34863 0.14867 0.01785 0.0
C2383 C 0.34744 0.17229 0.02719 0.0
C2384 C 0.36811 0.18196 0.03843 0.0
C2385 C 0.38949 0.16874 0.04006 0.0
C2386 C 0.3901 0.14568 0.03052 0.0
C2387 C 0.37015 0.1356 0.01984 0.0
C2388 C 0.37565 0.11042 0.01101 0.0
C2389 C 0.36014 0.09183 0.02409 0.0
C2390 C 0.37242 0.10864 0.98374 0.0
C2391 C 0.40185 0.1081 0.01807 0.0
C2392 C 0.40986 0.12866 0.02924 0.0
C2393 C 0.43359 0.13097 0.03684 0.0
C2394 C 0.44947 0.11175 0.03306 0.0
C2395 C 0.44163 0.09031 0.02193 0.0
C2396 C 0.4174 0.08863 0.01438 0.0
H2397 H 0.88769 0.32199 0.01852 0.0
H2398 H 0.82833 0.34759 0.97525 0.0
H2399 H 0.84925 0.38596 0.96926 0.0
H2400 H 0.89982 0.3771 0.04822 0.0
H2401 H 0.93193 0.37375 0.04801 0.0
H2402 H 0.91304 0.34761 0.04807 0.0
H2403 H 0.93372 0.33211 0.00959 0.0
H2404 H 0.95286 0.35809 0.00962 0.0
H2405 H 0.93505 0.35118 0.9836 0.0
H2406 H 0.87537 0.42285 0.97007 0.0
H2407 H 0.90618 0.45419 0.97516 0.0
H2408 H 0.94914 0.40476 0.01719 0.0
C2409 C 0.87917 0.33558 1.00762 0.0
C2410 C 0.85635 0.3315 0.99719 0.0
C2411 C 0.84594 0.3499 0.98305 0.0
C2412 C 0.85762 0.37193 0.9797 0.0
C2413 C 0.87987 0.37545 0.99046 0.0
C2414 C 0.8907 0.3577 1.00391 0.0
C2415 C 0.9147 0.36622 0.01359 0.0
C2416 C 0.91487 0.36616 0.0411 0.0
C2417 C 0.9353 0.35099 1.00349 0.0
C2418 C 0.91543 0.3916 1.00378 0.0
C2419 C 0.89513 0.39659 0.99055 0.0
C2420 C 0.89144 0.41906 0.98024 0.0
C2421 C 0.90903 0.43683 0.98334 0.0
C2422 C 0.93022 0.43208 0.99651 0.0
C2423 C 0.9333 0.40905 1.00685 0.0
H2424 H 0.68071 0.86636 0.02053 0.0
H2425 H 0.66936 0.83522 0.95005 0.0
H2426 H 0.63146 0.85722 0.94659 0.0
H2427 H 0.62047 0.86842 0.03997 0.0
H2428 H 0.62275 0.89747 0.0539 0.0
H2429 H 0.64883 0.87859 0.05161 0.0
H2430 H 0.67171 0.91237 0.02958 0.0
H2431 H 0.64579 0.93143 0.03222 0.0
H2432 H 0.65868 0.92572 1.00323 0.0
H2433 H 0.59285 0.88083 0.95178 0.0
H2434 H 0.56072 0.90972 0.9622 0.0
H2435 H 0.59961 0.92943 0.02638 0.0
C2436 C 0.67068 0.86433 1.00409 0.0
C2437 C 0.67824 0.84822 0.98588 0.0
C2438 C 0.66395 0.84645 0.96485 0.0
C2439 C 0.6423 0.85911 0.96255 0.0
C2440 C 0.63519 0.87416 0.9811 0.0
C2441 C 0.64929 0.87737 1.00117 0.0
C2442 C 0.63815 0.89567 0.01794 0.0
C2443 C 0.6322 0.88435 0.04229 0.0
C2444 C 0.65456 0.9176 0.02091 0.0
C2445 C 0.6155 0.90203 1.00425 0.0
C2446 C 0.61389 0.88909 0.98324 0.0
C2447 C 0.59409 0.89125 0.96807 0.0
C2448 C 0.57581 0.90752 0.97421 0.0
C2449 C 0.57769 0.92176 0.99506 0.0
C2450 C 0.59775 0.91879 0.01029 0.0
H2451 H 0.88794 0.69468 1.0083 0.0
H2452 H 0.83051 0.66545 0.9647 0.0
H2453 H 0.85387 0.62856 0.9587 0.0
H2454 H 0.93743 0.66818 0.97334 0.0
H2455 H 0.95555 0.66219 0.99938 0.0
H2456 H 0.93501 0.68712 0.99936 0.0
H2457 H 0.915 0.67058 0.0377 0.0
H2458 H 0.93543 0.64559 0.03774 0.0
H2459 H 0.90357 0.64038 0.03783 0.0
H2460 H 0.88102 0.59345 0.96066 0.0
H2461 H 0.91263 0.56307 0.9667 0.0
H2462 H 0.95417 0.6145 1.00759 0.0
C2463 C 0.8804 0.68062 0.99728 0.0
C2464 C 0.85734 0.68324 0.98678 0.0
C2465 C 0.84823 0.66428 0.97253 0.0
C2466 C 0.86131 0.64309 0.96917 0.0
C2467 C 0.88372 0.64098 0.97998 0.0
C2468 C 0.89342 0.65929 0.99348 0.0
C2469 C 0.91789 0.65205 1.00325 0.0
C2470 C 0.93764 0.66836 0.99323 0.0
C2471 C 0.91796 0.65216 0.03076 0.0
C2472 C 0.92012 0.62668 0.99347 0.0
C2473 C 0.90007 0.62073 0.98022 0.0
C2474 C 0.89707 0.59797 0.97051 0.0
C2475 C 0.91506 0.5808 0.9742 0.0
C2476 C 0.93601 0.58639 0.9874 0.0
C2477 C 0.93859 0.60978 0.99703 0.0
H2478 H 0.3545 0.84691 0.97486 0.0
H2479 H 0.30466 0.87868 0.0253 0.0
H2480 H 0.33409 0.91051 0.03415 0.0
H2481 H 0.40863 0.85869 1.00759 0.0
H2482 H 0.426 0.86584 0.9814 0.0
H2483 H 0.40115 0.8454 0.97914 0.0
H2484 H 0.38309 0.87164 0.94582 0.0
H2485 H 0.40695 0.89323 0.94842 0.0
H2486 H 0.37635 0.9027 0.95171 0.0
H2487 H 0.36835 0.93947 0.03677 0.0
H2488 H 0.4053 0.96333 0.03361 0.0
H2489 H 0.4337 0.91277 0.98188 0.0
C2490 C 0.34964 0.86066 0.98764 0.0
C2491 C 0.32712 0.86021 0.99937 0.0
C2492 C 0.32178 0.8784 0.01625 0.0
C2493 C 0.33838 0.89663 0.02132 0.0
C2494 C 0.36034 0.89647 0.00946 0.0
C2495 C 0.36604 0.87895 0.99299 0.0
C2496 C 0.39081 0.88312 0.98254 0.0
C2497 C 0.40764 0.862 0.98801 0.0
C2498 C 0.38919 0.88793 0.95551 0.0
C2499 C 0.39833 0.90552 0.99599 0.0
C2500 C 0.38033 0.91301 0.01124 0.0
C2501 C 0.38257 0.93371 0.02496 0.0
C2502 C 0.40364 0.94719 0.02295 0.0
C2503 C 0.42244 0.93991 1.00752 0.0
C2504 C 0.41979 0.91862 0.99403 0.0
H2505 H 0.65838 0.17316 0.01096 0.0
H2506 H 0.71925 0.12459 0.01025 0.0
H2507 H 0.69176 0.09028 0.01299 0.0
H2508 H 0.62181 0.1398 0.05194 0.0
H2509 H 0.59404 0.14572 0.03655 0.0
H2510 H 0.61831 0.16691 0.03475 0.0
H2511 H 0.61717 0.16452 0.98852 0.0
H2512 H 0.59279 0.14345 0.99017 0.0
H2513 H 0.61966 0.13574 0.97406 0.0
H2514 H 0.65832 0.0612 0.01635 0.0
H2515 H 0.62093 0.03849 0.01792 0.0
H2516 H 0.58021 0.1049 0.01487 0.0
C2517 C 0.666 0.15532 0.01108 0.0
C2518 C 0.69125 0.15181 0.01056 0.0
C2519 C 0.70019 0.12802 0.0111 0.0
C2520 C 0.68465 0.10832 0.01252 0.0
C2521 C 0.66004 0.11247 0.01325 0.0
C2522 C 0.65067 0.13533 0.01235 0.0
C2523 C 0.62337 0.13458 0.0131 0.0
C2524 C 0.61383 0.14752 0.03541 0.0
C2525 C 0.61262 0.1452 0.99009 0.0
C2526 C 0.61893 0.1077 0.01458 0.0
C2527 C 0.64045 0.09544 0.01475 0.0
C2528 C 0.64136 0.0706 0.0161 0.0
C2529 C 0.61981 0.05784 0.01699 0.0
C2530 C 0.59727 0.06971 0.01641 0.0
C2531 C 0.59697 0.09515 0.01539 0.0
H2532 H 0.50928 0.63219 0.82824 0.0
H2533 H 0.5502 0.69205 0.85635 0.0
H2534 H 0.55753 0.66957 0.89356 0.0
H2535 H 0.4809 0.61594 0.88303 0.0
H2536 H 0.48253 0.58408 0.87803 0.0
H2537 H 0.4812 0.60428 0.85295 0.0
H2538 H 0.52034 0.58605 0.83605 0.0
H2539 H 0.52165 0.56568 0.86102 0.0
H2540 H 0.54673 0.58497 0.85465 0.0
H2541 H 0.55787 0.64198 0.92922 0.0
H2542 H 0.55378 0.60993 0.9594 0.0
H2543 H 0.51433 0.56683 0.90815 0.0
C2544 C 0.51995 0.6405 0.84214 0.0
C2545 C 0.52934 0.66394 0.8391 0.0
C2546 C 0.5432 0.67403 0.85786 0.0
C2547 C 0.54731 0.66144 0.87924 0.0
C2548 C 0.53765 0.63857 0.88173 0.0
C2549 C 0.52448 0.62802 0.8636 0.0
C2550 C 0.51605 0.60319 0.87103 0.0
C2551 C 0.48854 0.60181 0.87127 0.0
C2552 C 0.52684 0.58383 0.85471 0.0
C2553 C 0.52627 0.60161 0.89622 0.0
C2554 C 0.53852 0.62231 0.90207 0.0
C2555 C 0.54856 0.62559 0.92472 0.0
C2556 C 0.54606 0.60729 0.94181 0.0
C2557 C 0.53389 0.58573 0.93619 0.0
C2558 C 0.52402 0.58292 0.91296 0.0
H2559 H 0.35474 0.49116 0.86384 0.0
H2560 H 0.3896 0.53492 0.81005 0.0
H2561 H 0.42221 0.54393 0.83868 0.0
H2562 H 0.36998 0.52854 0.91508 0.0
H2563 H 0.37468 0.50338 0.93475 0.0
H2564 H 0.35372 0.50105 0.9103 0.0
H2565 H 0.37623 0.46359 0.89479 0.0
H2566 H 0.39745 0.46594 0.91896 0.0
H2567 H 0.40783 0.46555 0.88848 0.0
H2568 H 0.45241 0.54589 0.87222 0.0
H2569 H 0.4771 0.54214 0.90871 0.0
H2570 H 0.42201 0.49857 0.94159 0.0
C2571 C 0.36925 0.50263 0.85805 0.0
C2572 C 0.36962 0.51227 0.83458 0.0
C2573 C 0.38879 0.52747 0.82791 0.0
C2574 C 0.40744 0.53261 0.84404 0.0
C2575 C 0.40658 0.52266 0.86693 0.0
C2576 C 0.38789 0.50813 0.87401 0.0
C2577 C 0.3914 0.4995 0.89956 0.0
C2578 C 0.37124 0.50867 0.91588 0.0
C2579 C 0.39334 0.47202 0.90049 0.0
C2580 C 0.41513 0.51126 0.9057 0.0
C2581 C 0.42361 0.52444 0.88655 0.0
C2582 C 0.44578 0.53586 0.88738 0.0
C2583 C 0.45971 0.53358 0.90818 0.0
C2584 C 0.45138 0.52027 0.92808 0.0
C2585 C 0.42863 0.50923 0.92687 0.0
H2586 H 0.50234 0.38743 0.82456 0.0
H2587 H 0.54355 0.32779 0.85275 0.0
H2588 H 0.54853 0.34926 0.89093 0.0
H2589 H 0.53796 0.4344 0.85361 0.0
H2590 H 0.51249 0.45335 0.8595 0.0
H2591 H 0.51227 0.43351 0.83405 0.0
H2592 H 0.47277 0.41453 0.84911 0.0
H2593 H 0.47296 0.43423 0.87465 0.0
H2594 H 0.4715 0.40226 0.87891 0.0
H2595 H 0.54696 0.37571 0.9271 0.0
H2596 H 0.5422 0.40721 0.95771 0.0
H2597 H 0.50414 0.45146 0.90637 0.0
C2598 C 0.51255 0.379 0.83873 0.0
C2599 C 0.52274 0.3559 0.83544 0.0
C2600 C 0.53594 0.34556 0.85453 0.0
C2601 C 0.53872 0.35756 0.87643 0.0
C2602 C 0.52841 0.38014 0.87913 0.0
C2603 C 0.51586 0.39097 0.86074 0.0
C2604 C 0.50691 0.41558 0.86846 0.0
C2605 C 0.51808 0.43538 0.85298 0.0
C2606 C 0.4794 0.4167 0.86774 0.0
C2607 C 0.5162 0.41671 0.89407 0.0
C2608 C 0.52833 0.39591 0.89986 0.0
C2609 C 0.5377 0.39217 0.92269 0.0
C2610 C 0.5348 0.41015 0.94003 0.0
C2611 C 0.52291 0.4319 0.93451 0.0
C2612 C 0.51356 0.43517 0.9111 0.0
H2613 H 0.67251 0.53093 0.85312 0.0
H2614 H 0.66638 0.45649 0.83122 0.0
H2615 H 0.64167 0.44824 0.8668 0.0
H2616 H 0.67509 0.52082 0.91667 0.0
H2617 H 0.65709 0.5466 0.92404 0.0
H2618 H 0.67512 0.54667 0.89734 0.0
H2619 H 0.6376 0.55604 0.87166 0.0
H2620 H 0.61954 0.55633 0.89831 0.0
H2621 H 0.61173 0.53685 0.87379 0.0
H2622 H 0.61678 0.44811 0.90452 0.0
H2623 H 0.59141 0.4569 0.93976 0.0
H2624 H 0.61235 0.53151 0.93658 0.0
C2625 C 0.6658 0.51291 0.85554 0.0
C2626 C 0.67166 0.49435 0.83916 0.0
C2627 C 0.66265 0.47099 0.84353 0.0
C2628 C 0.64848 0.46612 0.86372 0.0
C2629 C 0.64329 0.48476 0.87951 0.0
C2630 C 0.65149 0.50775 0.87553 0.0
C2631 C 0.64265 0.52477 0.89484 0.0
C2632 C 0.66375 0.53533 0.90906 0.0
C2633 C 0.62694 0.54467 0.884 0.0
C2634 C 0.628 0.50782 0.91018 0.0
C2635 C 0.62883 0.48475 0.90114 0.0
C2636 C 0.61622 0.46605 0.91185 0.0
C2637 C 0.60202 0.47114 0.93195 0.0
C2638 C 0.60053 0.49468 0.94118 0.0
C2639 C 0.6138 0.51322 0.93025 0.0
H2640 H 0.50419 0.38776 0.1996 0.0
H2641 H 0.52282 0.32149 0.16353 0.0
H2642 H 0.52237 0.34243 0.12473 0.0
H2643 H 0.46511 0.41167 0.15373 0.0
H2644 H 0.47522 0.44218 0.15679 0.0
H2645 H 0.47637 0.42221 0.18209 0.0
H2646 H 0.52175 0.4305 0.18701 0.0
H2647 H 0.52068 0.45066 0.16186 0.0
H2648 H 0.54148 0.42595 0.16191 0.0
H2649 H 0.51802 0.36943 0.08979 0.0
H2650 H 0.51506 0.40215 0.06064 0.0
H2651 H 0.50242 0.45274 0.11839 0.0
C2652 C 0.50826 0.37778 0.18349 0.0
C2653 C 0.51366 0.35297 0.18459 0.0
C2654 C 0.51892 0.34051 0.16315 0.0
C2655 C 0.51854 0.35222 0.141 0.0
C2656 C 0.51313 0.37657 0.14045 0.0
C2657 C 0.50845 0.38939 0.16108 0.0
C2658 C 0.50415 0.41571 0.15522 0.0
C2659 C 0.4787 0.42339 0.16239 0.0
C2660 C 0.52315 0.43165 0.16721 0.0
C2661 C 0.50705 0.41552 0.12814 0.0
C2662 C 0.51184 0.39261 0.1201 0.0
C2663 C 0.51452 0.3875 0.09588 0.0
C2664 C 0.51269 0.40632 0.07941 0.0
C2665 C 0.50876 0.43023 0.08707 0.0
C2666 C 0.50569 0.43477 0.11188 0.0
H2667 H 0.67621 0.47849 0.17168 0.0
H2668 H 0.64219 0.5314 0.21739 0.0
H2669 H 0.61253 0.5396 0.18568 0.0
H2670 H 0.6679 0.5103 0.11586 0.0
H2671 H 0.66175 0.48373 0.09857 0.0
H2672 H 0.68068 0.48196 0.12466 0.0
H2673 H 0.65324 0.44915 0.1425 0.0
H2674 H 0.63435 0.45073 0.11639 0.0
H2675 H 0.62164 0.45498 0.14571 0.0
H2676 H 0.5861 0.5417 0.14981 0.0
H2677 H 0.56371 0.53713 0.11219 0.0
H2678 H 0.61421 0.48299 0.0884 0.0
C2679 C 0.6624 0.49165 0.17514 0.0
C2680 C 0.66167 0.50432 0.19722 0.0
C2681 C 0.64343 0.52164 0.20069 0.0
C2682 C 0.62641 0.52638 0.18276 0.0
C2683 C 0.62778 0.51373 0.16128 0.0
C2684 C 0.64524 0.49668 0.15734 0.0
C2685 C 0.64244 0.48557 0.13256 0.0
C2686 C 0.66451 0.4907 0.117 0.0
C2687 C 0.63763 0.4585 0.13441 0.0
C2688 C 0.62053 0.49891 0.1233 0.0
C2689 C 0.61249 0.51508 0.14026 0.0
C2690 C 0.59226 0.52912 0.13641 0.0
C2691 C 0.57962 0.52633 0.11494 0.0
C2692 C 0.58713 0.50966 0.09729 0.0
C2693 C 0.60816 0.49604 0.1014 0.0
H2694 H 0.5042 0.63195 0.19795 0.0
H2695 H 0.55383 0.6859 0.17218 0.0
H2696 H 0.55936 0.66293 0.13501 0.0
H2697 H 0.53588 0.58012 0.17161 0.0
H2698 H 0.50854 0.56461 0.16425 0.0
H2699 H 0.50949 0.5845 0.18964 0.0
H2700 H 0.4736 0.60828 0.17226 0.0
H2701 H 0.4727 0.58859 0.14674 0.0
H2702 H 0.4756 0.62047 0.14247 0.0
H2703 H 0.55709 0.63628 0.09922 0.0
H2704 H 0.54976 0.60575 0.06826 0.0
H2705 H 0.50259 0.56763 0.11678 0.0
C2706 C 0.51644 0.63878 0.1846 0.0
C2707 C 0.52875 0.66074 0.18824 0.0
C2708 C 0.54457 0.66898 0.17021 0.0
C2709 C 0.54769 0.65612 0.14887 0.0
C2710 C 0.53505 0.63484 0.14572 0.0
C2711 C 0.51999 0.62599 0.16318 0.0
C2712 C 0.50837 0.60272 0.15497 0.0
C2713 C 0.51603 0.58175 0.17108 0.0
C2714 C 0.48094 0.60517 0.15406 0.0
C2715 C 0.51887 0.60023 0.13001 0.0
C2716 C 0.53416 0.61904 0.12509 0.0
C2717 C 0.54531 0.62136 0.10294 0.0
C2718 C 0.54087 0.60396 0.08538 0.0
C2719 C 0.52553 0.58426 0.08997 0.0
C2720 C 0.51451 0.58237 0.11273 0.0
H2721 H 0.34928 0.53948 0.15688 0.0
H2722 H 0.36993 0.47477 0.19485 0.0
H2723 H 0.39959 0.46591 0.16348 0.0
H2724 H 0.35605 0.51607 0.09678 0.0
H2725 H 0.36835 0.54338 0.08479 0.0
H2726 H 0.34797 0.54453 0.10973 0.0
H2727 H 0.37932 0.568 0.1346 0.0
H2728 H 0.39967 0.56713 0.10966 0.0
H2729 H 0.40896 0.55573 0.13838 0.0
H2730 H 0.428 0.46451 0.12916 0.0
H2731 H 0.45458 0.47139 0.09471 0.0
H2732 H 0.41654 0.53707 0.07803 0.0
C2733 C 0.36013 0.52352 0.15876 0.0
C2734 C 0.35699 0.50776 0.17851 0.0
C2735 C 0.37151 0.48695 0.17987 0.0
C2736 C 0.38854 0.48179 0.16212 0.0
C2737 C 0.39099 0.49756 0.14294 0.0
C2738 C 0.37731 0.51807 0.14114 0.0
C2739 C 0.38412 0.53233 0.11892 0.0
C2740 C 0.36285 0.53418 0.10153 0.0
C2741 C 0.39358 0.55727 0.12581 0.0
C2742 C 0.40394 0.5167 0.10862 0.0
C2743 C 0.40744 0.49669 0.12283 0.0
C2744 C 0.42526 0.47999 0.11782 0.0
C2745 C 0.44023 0.48403 0.09815 0.0
C2746 C 0.4374 0.50453 0.08346 0.0
C2747 C 0.41873 0.52094 0.08856 0.0
H2748 H 0.83482 0.50747 0.63844 0.0
H2749 H 0.86564 0.47626 0.7026 0.0
H2750 H 0.90459 0.47256 0.68222 0.0
H2751 H 0.86834 0.4706 0.59585 0.0
H2752 H 0.87188 0.4947 0.57471 0.0
H2753 H 0.84609 0.49395 0.59401 0.0
H2754 H 0.8564 0.53658 0.6093 0.0
H2755 H 0.8823 0.53733 0.59016 0.0
H2756 H 0.88561 0.54227 0.62186 0.0
H2757 H 0.94124 0.47484 0.65573 0.0
H2758 H 0.97167 0.47999 0.62404 0.0
H2759 H 0.91698 0.50874 0.57678 0.0
C2760 C 0.84971 0.49968 0.64815 0.0
C2761 C 0.84697 0.49198 0.67215 0.0
C2762 C 0.867 0.48186 0.68411 0.0
C2763 C 0.88933 0.47988 0.67274 0.0
C2764 C 0.89148 0.48792 0.64925 0.0
C2765 C 0.87214 0.49737 0.63697 0.0
C2766 C 0.87933 0.50478 0.61185 0.0
C2767 C 0.86559 0.49013 0.593 0.0
C2768 C 0.87569 0.53185 0.60808 0.0
C2769 C 0.90574 0.4983 0.61207 0.0
C2770 C 0.91245 0.48871 0.63384 0.0
C2771 C 0.93612 0.48212 0.63853 0.0
C2772 C 0.95334 0.48521 0.62044 0.0
C2773 C 0.94681 0.4946 0.5978 0.0
C2774 C 0.92261 0.50123 0.59374 0.0
H2775 H 0.49042 0.85496 0.67313 0.0
H2776 H 0.54758 0.81047 0.64491 0.0
H2777 H 0.55571 0.84094 0.61397 0.0
H2778 H 0.4686 0.87659 0.61644 0.0
H2779 H 0.4622 0.90638 0.62715 0.0
H2780 H 0.46107 0.88134 0.64743 0.0
H2781 H 0.4915 0.90252 0.67529 0.0
H2782 H 0.49279 0.92759 0.65503 0.0
H2783 H 0.5199 0.91216 0.66341 0.0
H2784 H 0.55665 0.87507 0.58508 0.0
H2785 H 0.55114 0.91113 0.5604 0.0
H2786 H 0.49402 0.9351 0.60725 0.0
C2787 C 0.50458 0.85155 0.66037 0.0
C2788 C 0.51836 0.83014 0.66153 0.0
C2789 C 0.53694 0.82669 0.64464 0.0
C2790 C 0.54162 0.8439 0.62691 0.0
C2791 C 0.52773 0.86469 0.62629 0.0
C2792 C 0.50964 0.86869 0.64261 0.0
C2793 C 0.49739 0.89264 0.63784 0.0
C2794 C 0.47074 0.88901 0.63185 0.0
C2795 C 0.50059 0.90974 0.65917 0.0
C2796 C 0.51126 0.90136 0.61612 0.0
C2797 C 0.52863 0.88482 0.60982 0.0
C2798 C 0.54321 0.88817 0.58995 0.0
C2799 C 0.53987 0.90875 0.57598 0.0
C2800 C 0.52219 0.92604 0.58186 0.0
C2801 C 0.50788 0.9224 0.60246 0.0
H2802 H 0.20648 0.49315 0.6367 0.0
H2803 H 0.18207 0.54365 0.69051 0.0
H2804 H 0.14552 0.55109 0.66699 0.0
H2805 H 0.18193 0.52616 0.58453 0.0
H2806 H 0.17363 0.4991 0.56899 0.0
H2807 H 0.19895 0.49906 0.58905 0.0
H2808 H 0.18008 0.46392 0.61267 0.0
H2809 H 0.15467 0.46398 0.5928 0.0
H2810 H 0.15026 0.46712 0.62458 0.0
H2811 H 0.10965 0.54983 0.64036 0.0
H2812 H 0.07814 0.5426 0.61021 0.0
H2813 H 0.12563 0.49439 0.57208 0.0
C2814 C 0.19361 0.50604 0.64335 0.0
C2815 C 0.1974 0.51798 0.66545 0.0
C2816 C 0.17998 0.53464 0.67348 0.0
C2817 C 0.159 0.53887 0.66031 0.0
C2818 C 0.15563 0.52651 0.63891 0.0
C2819 C 0.17257 0.51069 0.63024 0.0
C2820 C 0.16411 0.49935 0.60696 0.0
C2821 C 0.18064 0.50634 0.58615 0.0
C2822 C 0.16217 0.47197 0.60941 0.0
C2823 C 0.13956 0.51083 0.60429 0.0
C2824 C 0.13507 0.52638 0.62301 0.0
C2825 C 0.1131 0.53799 0.62542 0.0
C2826 C 0.09526 0.53367 0.60828 0.0
C2827 C 0.09947 0.51808 0.58874 0.0
C2828 C 0.12204 0.5067 0.58663 0.0
H2829 H 0.52404 0.16127 0.6745 0.0
H2830 H 0.46931 0.20291 0.63785 0.0
H2831 H 0.46302 0.16971 0.60977 0.0
H2832 H 0.5493 0.13625 0.61978 0.0
H2833 H 0.55613 0.10761 0.633 0.0
H2834 H 0.55586 0.13417 0.6513 0.0
H2835 H 0.52511 0.11426 0.67957 0.0
H2836 H 0.52513 0.0877 0.66122 0.0
H2837 H 0.49737 0.10296 0.66748 0.0
H2838 H 0.46193 0.13244 0.58569 0.0
H2839 H 0.4698 0.09508 0.56347 0.0
H2840 H 0.52679 0.07731 0.61313 0.0
C2841 C 0.51089 0.16361 0.66046 0.0
C2842 C 0.49681 0.18487 0.659 0.0
C2843 C 0.47983 0.18679 0.64015 0.0
C2844 C 0.47617 0.16797 0.62391 0.0
C2845 C 0.48983 0.14722 0.62627 0.0
C2846 C 0.5072 0.14502 0.64373 0.0
C2847 C 0.52022 0.12109 0.64129 0.0
C2848 C 0.54696 0.12502 0.63603 0.0
C2849 C 0.51674 0.10559 0.66374 0.0
C2850 C 0.50734 0.11026 0.61981 0.0
C2851 C 0.48971 0.12567 0.6117 0.0
C2852 C 0.47563 0.12021 0.59186 0.0
C2853 C 0.48014 0.09886 0.57945 0.0
C2854 C 0.49858 0.08303 0.58678 0.0
C2855 C 0.51213 0.08864 0.60752 0.0
H2856 H 0.86858 0.51016 0.34847 0.0
H2857 H 0.81325 0.48112 0.39472 0.0
H2858 H 0.84273 0.47716 0.42718 0.0
H2859 H 0.91747 0.47355 0.37047 0.0
H2860 H 0.93945 0.49714 0.36916 0.0
H2861 H 0.91438 0.49729 0.34881 0.0
H2862 H 0.90265 0.53991 0.3631 0.0
H2863 H 0.92793 0.53984 0.38316 0.0
H2864 H 0.89826 0.54536 0.39459 0.0
H2865 H 0.87738 0.47582 0.45454 0.0
H2866 H 0.91476 0.47982 0.47692 0.0
H2867 H 0.94906 0.51154 0.41475 0.0
C2868 C 0.86254 0.50318 0.36548 0.0
C2869 C 0.83837 0.49572 0.36874 0.0
C2870 C 0.83156 0.48648 0.39135 0.0
C2871 C 0.84822 0.48427 0.41003 0.0
C2872 C 0.87176 0.4915 0.4061 0.0
C2873 C 0.879 0.50098 0.38452 0.0
C2874 C 0.90546 0.50782 0.38548 0.0
C2875 C 0.92005 0.49307 0.3674 0.0
C2876 C 0.90875 0.53484 0.38134 0.0
C2877 C 0.91182 0.5009 0.41108 0.0
C2878 C 0.89201 0.49132 0.4224 0.0
C2879 C 0.89294 0.48349 0.44594 0.0
C2880 C 0.91443 0.48597 0.45855 0.0
C2881 C 0.93505 0.49639 0.44788 0.0
C2882 C 0.93375 0.50357 0.42354 0.0
H2883 H 0.51538 0.8261 0.38587 0.0
H2884 H 0.55439 0.85515 0.3254 0.0
H2885 H 0.56032 0.89302 0.34735 0.0
H2886 H 0.48471 0.87959 0.40179 0.0
H2887 H 0.48699 0.87507 0.43363 0.0
H2888 H 0.48665 0.84966 0.41377 0.0
H2889 H 0.52685 0.83483 0.43167 0.0
H2890 H 0.52714 0.8601 0.45174 0.0
H2891 H 0.55227 0.85473 0.43227 0.0
H2892 H 0.55938 0.92908 0.37466 0.0
H2893 H 0.55447 0.95928 0.40665 0.0
H2894 H 0.51746 0.90661 0.45011 0.0
C2895 C 0.52536 0.84035 0.37734 0.0
C2896 C 0.53457 0.83747 0.3539 0.0
C2897 C 0.54753 0.85664 0.34345 0.0
C2898 C 0.55084 0.87835 0.35572 0.0
C2899 C 0.54129 0.88071 0.37862 0.0
C2900 C 0.52908 0.86213 0.38949 0.0
C2901 C 0.52058 0.86942 0.41425 0.0
C2902 C 0.4931 0.86837 0.41594 0.0
C2903 C 0.53242 0.85384 0.43363 0.0
C2904 C 0.52955 0.89507 0.41539 0.0
C2905 C 0.54136 0.90128 0.39462 0.0
C2906 C 0.55039 0.92432 0.39112 0.0
C2907 C 0.54742 0.94142 0.40937 0.0
C2908 C 0.53572 0.93539 0.43101 0.0
C2909 C 0.52675 0.9118 0.43394 0.0
H2910 H 0.15677 0.50225 0.33741 0.0
H2911 H 0.21154 0.53801 0.37981 0.0
H2912 H 0.18293 0.54273 0.41259 0.0
H2913 H 0.10589 0.53596 0.35809 0.0
H2914 H 0.08589 0.5107 0.36001 0.0
H2915 H 0.11013 0.51045 0.33875 0.0
H2916 H 0.12587 0.47065 0.35657 0.0
H2917 H 0.1015 0.47062 0.37767 0.0
H2918 H 0.13199 0.46877 0.38819 0.0
H2919 H 0.14902 0.54578 0.44001 0.0
H2920 H 0.11304 0.5414 0.46428 0.0
H2921 H 0.07924 0.49989 0.40769 0.0
C2922 C 0.16292 0.51084 0.35365 0.0
C2923 C 0.18657 0.52035 0.35544 0.0
C2924 C 0.19351 0.53137 0.37726 0.0
C2925 C 0.17736 0.53401 0.39621 0.0
C2926 C 0.15422 0.52513 0.39356 0.0
C2927 C 0.14701 0.51326 0.37316 0.0
C2928 C 0.12121 0.50448 0.37588 0.0
C2929 C 0.10481 0.51609 0.35706 0.0
C2930 C 0.12008 0.477 0.3745 0.0
C2931 C 0.11517 0.51341 0.40099 0.0
C2932 C 0.13457 0.52556 0.41045 0.0
C2933 C 0.13384 0.53599 0.43297 0.0
C2934 C 0.11315 0.5333 0.44666 0.0
C2935 C 0.09319 0.51989 0.43826 0.0
C2936 C 0.09405 0.51023 0.41472 0.0
H2937 H 0.50228 0.15869 0.3476 0.0
H2938 H 0.54701 0.21138 0.38319 0.0
H2939 H 0.55721 0.18152 0.41426 0.0
H2940 H 0.47848 0.13158 0.40022 0.0
H2941 H 0.47877 0.10154 0.38835 0.0
H2942 H 0.47573 0.12671 0.36845 0.0
H2943 H 0.51263 0.11209 0.34447 0.0
H2944 H 0.51577 0.08691 0.36441 0.0
H2945 H 0.5406 0.107 0.35982 0.0
H2946 H 0.56028 0.14696 0.44297 0.0
H2947 H 0.55684 0.10989 0.46678 0.0
H2948 H 0.51157 0.07859 0.41203 0.0
C2949 C 0.5142 0.16399 0.36195 0.0
C2950 C 0.52379 0.18752 0.36295 0.0
C2951 C 0.53958 0.19351 0.38189 0.0
C2952 C 0.54543 0.17666 0.39966 0.0
C2953 C 0.53558 0.15372 0.39817 0.0
C2954 C 0.52041 0.14729 0.37972 0.0
C2955 C 0.51204 0.1215 0.3825 0.0
C2956 C 0.48463 0.12027 0.38504 0.0
C2957 C 0.52079 0.10596 0.36155 0.0
C2958 C 0.52449 0.11458 0.40566 0.0
C2959 C 0.53798 0.13347 0.41436 0.0
C2960 C 0.55002 0.13198 0.43616 0.0
C2961 C 0.54794 0.11085 0.44958 0.0
C2962 C 0.53416 0.09127 0.44114 0.0
C2963 C 0.52262 0.09305 0.41867 0.0
H2964 H 0.64008 0.82071 0.50802 0.0
H2965 H 0.70231 0.84975 0.54457 0.0
H2966 H 0.68186 0.88865 0.54845 0.0
H2967 H 0.62618 0.87274 0.47415 0.0
H2968 H 0.59414 0.86975 0.47675 0.0
H2969 H 0.61294 0.84355 0.47804 0.0
H2970 H 0.59468 0.83219 0.51909 0.0
H2971 H 0.57572 0.8583 0.51778 0.0
H2972 H 0.59516 0.85372 0.54314 0.0
H2973 H 0.65586 0.92552 0.54596 0.0
H2974 H 0.62506 0.95667 0.53967 0.0
H2975 H 0.57928 0.904 0.50522 0.0
C2976 C 0.64934 0.83517 0.51704 0.0
C2977 C 0.67284 0.83188 0.5262 0.0
C2978 C 0.68418 0.85144 0.53786 0.0
C2979 C 0.67277 0.87377 0.53997 0.0
C2980 C 0.64985 0.87647 0.53047 0.0
C2981 C 0.6381 0.85764 0.51947 0.0
C2982 C 0.61358 0.86549 0.51057 0.0
C2983 C 0.61161 0.86272 0.48326 0.0
C2984 C 0.59361 0.8516 0.52342 0.0
C2985 C 0.61361 0.89172 0.51789 0.0
C2986 C 0.63471 0.89768 0.52933 0.0
C2987 C 0.63917 0.921 0.53717 0.0
C2988 C 0.62157 0.93864 0.53341 0.0
C2989 C 0.59961 0.93296 0.52197 0.0
C2990 C 0.59573 0.90907 0.51415 0.0
H2991 H 0.64004 0.19603 0.50975 0.0
H2992 H 0.69603 0.16914 0.55663 0.0
H2993 H 0.67308 0.132 0.56265 0.0
H2994 H 0.58939 0.16938 0.54255 0.0
H2995 H 0.57298 0.16239 0.51564 0.0
H2996 H 0.59291 0.18778 0.51629 0.0
H2997 H 0.61548 0.17083 0.47954 0.0
H2998 H 0.59572 0.14535 0.47891 0.0
H2999 H 0.62765 0.14092 0.48078 0.0
H3000 H 0.64629 0.09615 0.56058 0.0
H3001 H 0.61574 0.06504 0.55307 0.0
H3002 H 0.5761 0.11488 0.50843 0.0
C3003 C 0.64737 0.18246 0.52149 0.0
C3004 C 0.66988 0.1858 0.53288 0.0
C3005 C 0.67869 0.16744 0.54809 0.0
C3006 C 0.66585 0.1461 0.55148 0.0
C3007 C 0.64403 0.14325 0.53969 0.0
C3008 C 0.63467 0.161 0.52521 0.0
C3009 C 0.61104 0.15303 0.5142 0.0
C3010 C 0.59035 0.1691 0.52268 0.0
C3011 C 0.61258 0.1525 0.48673 0.0
C3012 C 0.60886 0.1279 0.52442 0.0
C3013 C 0.62816 0.12264 0.53901 0.0
C3014 C 0.63091 0.10014 0.54948 0.0
C3015 C 0.61352 0.08254 0.54498 0.0
C3016 C 0.59344 0.0875 0.53024 0.0
C3017 C 0.59105 0.11062 0.52003 0.0
H3018 H 0.86913 0.67143 0.50136 0.0
H3019 H 0.81791 0.63715 0.54849 0.0
H3020 H 0.84709 0.60471 0.5564 0.0
H3021 H 0.89292 0.61868 0.47505 0.0
H3022 H 0.9234 0.62925 0.47405 0.0
H3023 H 0.89901 0.65033 0.47297 0.0
H3024 H 0.91661 0.6726 0.50961 0.0
H3025 H 0.94103 0.6515 0.51092 0.0
H3026 H 0.92244 0.65629 0.53683 0.0
H3027 H 0.88054 0.57435 0.55662 0.0
H3028 H 0.91654 0.54935 0.55099 0.0
H3029 H 0.94727 0.60388 0.50508 0.0
C3030 C 0.86407 0.65713 0.51341 0.0
C3031 C 0.8411 0.65684 0.52426 0.0
C3032 C 0.83537 0.63792 0.54013 0.0
C3033 C 0.85183 0.61936 0.54464 0.0
C3034 C 0.87416 0.62007 0.53345 0.0
C3035 C 0.88043 0.6386 0.51836 0.0
C3036 C 0.90555 0.63497 0.50848 0.0
C3037 C 0.90518 0.6332 0.48101 0.0
C3038 C 0.92241 0.65504 0.51697 0.0
C3039 C 0.91219 0.61115 0.51983 0.0
C3040 C 0.89379 0.60291 0.53419 0.0
C3041 C 0.89513 0.58077 0.54563 0.0
C3042 C 0.91564 0.56663 0.54221 0.0
C3043 C 0.9348 0.57463 0.52763 0.0
C3044 C 0.93309 0.59739 0.51657 0.0
H3045 H 0.35562 0.85931 0.52189 0.0
H3046 H 0.38724 0.81078 0.47017 0.0
H3047 H 0.41951 0.8402 0.4626 0.0
H3048 H 0.36852 0.91416 0.48919 0.0
H3049 H 0.37478 0.93137 0.51577 0.0
H3050 H 0.35407 0.90665 0.51701 0.0
H3051 H 0.37892 0.88739 0.55112 0.0
H3052 H 0.39963 0.91209 0.55004 0.0
H3053 H 0.41041 0.88183 0.54667 0.0
H3054 H 0.44973 0.8738 0.46256 0.0
H3055 H 0.47469 0.90986 0.46849 0.0
H3056 H 0.42256 0.93809 0.51852 0.0
C3057 C 0.36939 0.85483 0.50902 0.0
C3058 C 0.36895 0.83257 0.49671 0.0
C3059 C 0.38711 0.82766 0.47974 0.0
C3060 C 0.40554 0.84426 0.47537 0.0
C3061 C 0.40547 0.86594 0.48786 0.0
C3062 C 0.38775 0.87137 0.5042 0.0
C3063 C 0.39179 0.89602 0.51512 0.0
C3064 C 0.37105 0.91306 0.5089 0.0
C3065 C 0.39541 0.89421 0.54235 0.0
C3066 C 0.41476 0.90351 0.50264 0.0
C3067 C 0.42237 0.88579 0.48708 0.0
C3068 C 0.44377 0.88789 0.47446 0.0
C3069 C 0.45785 0.90843 0.47797 0.0
C3070 C 0.45044 0.92691 0.4937 0.0
C3071 C 0.42841 0.9245 0.50598 0.0
H3072 H 0.17424 0.34462 0.52583 0.0
H3073 H 0.22706 0.38809 0.48898 0.0
H3074 H 0.19656 0.41947 0.48259 0.0
H3075 H 0.12357 0.36049 0.48884 0.0
H3076 H 0.1026 0.36132 0.51331 0.0
H3077 H 0.12836 0.3419 0.51478 0.0
H3078 H 0.14107 0.36151 0.55479 0.0
H3079 H 0.11538 0.38097 0.5534 0.0
H3080 H 0.14493 0.39356 0.55627 0.0
H3081 H 0.16094 0.44646 0.48081 0.0
H3082 H 0.12284 0.46817 0.48472 0.0
H3083 H 0.09212 0.40772 0.52267 0.0
C3084 C 0.17951 0.36083 0.51661 0.0
C3085 C 0.20322 0.36378 0.5079 0.0
C3086 C 0.20908 0.38518 0.49559 0.0
C3087 C 0.19186 0.40317 0.49193 0.0
C3088 C 0.16872 0.39958 0.50059 0.0
C3089 C 0.16249 0.379 0.51273 0.0
C3090 C 0.13637 0.3799 0.52047 0.0
C3091 C 0.12187 0.3597 0.50864 0.0
C3092 C 0.13435 0.37892 0.54787 0.0
C3093 C 0.12892 0.40428 0.5109 0.0
C3094 C 0.14795 0.41523 0.49946 0.0
C3095 C 0.14593 0.43805 0.4897 0.0
C3096 C 0.12414 0.45025 0.49207 0.0
C3097 C 0.10438 0.43975 0.50409 0.0
C3098 C 0.10674 0.4162 0.51323 0.0
H3099 H 0.3934 0.19021 0.51823 0.0
H3100 H 0.34109 0.16451 0.46678 0.0
H3101 H 0.36376 0.12687 0.46246 0.0
H3102 H 0.44565 0.16428 0.48862 0.0
H3103 H 0.46049 0.1567 0.51627 0.0
H3104 H 0.44036 0.18193 0.51512 0.0
H3105 H 0.41592 0.16379 0.54997 0.0
H3106 H 0.43571 0.13831 0.55097 0.0
H3107 H 0.40398 0.13391 0.54714 0.0
H3108 H 0.39066 0.09091 0.46533 0.0
H3109 H 0.42193 0.06046 0.47273 0.0
H3110 H 0.45822 0.10961 0.52083 0.0
C3111 C 0.38683 0.17671 0.50596 0.0
C3112 C 0.36551 0.1805 0.49268 0.0
C3113 C 0.35755 0.16231 0.47682 0.0
C3114 C 0.37022 0.14074 0.47437 0.0
C3115 C 0.39103 0.13751 0.48775 0.0
C3116 C 0.39949 0.15507 0.50303 0.0
C3117 C 0.42251 0.14699 0.51515 0.0
C3118 C 0.44349 0.16346 0.50838 0.0
C3119 C 0.41932 0.14568 0.54243 0.0
C3120 C 0.42553 0.12216 0.5044 0.0
C3121 C 0.40702 0.11698 0.48882 0.0
C3122 C 0.40535 0.09484 0.47735 0.0
C3123 C 0.42315 0.07759 0.48176 0.0
C3124 C 0.4426 0.08261 0.49728 0.0
C3125 C 0.44372 0.10527 0.50868 0.0
H3126 H 0.8361 0.38382 0.51132 0.0
H3127 H 0.86656 0.31915 0.54189 0.0
H3128 H 0.90606 0.3388 0.54425 0.0
H3129 H 0.88645 0.39993 0.47525 0.0
H3130 H 0.88367 0.43168 0.48049 0.0
H3131 H 0.85753 0.41282 0.48164 0.0
H3132 H 0.84834 0.42791 0.52452 0.0
H3133 H 0.87434 0.44696 0.52335 0.0
H3134 H 0.87108 0.42564 0.54734 0.0
H3135 H 0.94314 0.36491 0.54124 0.0
H3136 H 0.97367 0.39671 0.53654 0.0
H3137 H 0.91888 0.44464 0.50907 0.0
C3138 C 0.85105 0.37385 0.51864 0.0
C3139 C 0.84808 0.34993 0.52658 0.0
C3140 C 0.86818 0.33758 0.53609 0.0
C3141 C 0.89079 0.34853 0.5373 0.0
C3142 C 0.89316 0.37198 0.5291 0.0
C3143 C 0.87376 0.38462 0.52023 0.0
C3144 C 0.88111 0.40974 0.51288 0.0
C3145 C 0.87694 0.41377 0.48597 0.0
C3146 C 0.86794 0.42867 0.52792 0.0
C3147 C 0.90765 0.40914 0.5188 0.0
C3148 C 0.91432 0.38716 0.52797 0.0
C3149 C 0.93805 0.38226 0.53424 0.0
C3150 C 0.95532 0.4004 0.53141 0.0
C3151 C 0.94877 0.42329 0.52261 0.0
C3152 C 0.92456 0.42748 0.5161 0.0
H3153 H 0.16034 0.68269 0.49843 0.0
H3154 H 0.21042 0.64442 0.54426 0.0
H3155 H 0.18016 0.61349 0.55132 0.0
H3156 H 0.10616 0.66862 0.53074 0.0
H3157 H 0.08805 0.66377 0.50446 0.0
H3158 H 0.1131 0.68409 0.50331 0.0
H3159 H 0.13103 0.6604 0.46779 0.0
H3160 H 0.10588 0.64021 0.46864 0.0
H3161 H 0.13595 0.6286 0.47076 0.0
H3162 H 0.14516 0.58698 0.55457 0.0
H3163 H 0.1088 0.56287 0.54956 0.0
H3164 H 0.0805 0.61505 0.49932 0.0
C3165 C 0.1651 0.66773 0.50978 0.0
C3166 C 0.18793 0.66663 0.52124 0.0
C3167 C 0.19305 0.64649 0.5359 0.0
C3168 C 0.17593 0.6286 0.53994 0.0
C3169 C 0.15363 0.63058 0.52894 0.0
C3170 C 0.1482 0.64931 0.51379 0.0
C3171 C 0.12305 0.64613 0.50339 0.0
C3172 C 0.10662 0.66689 0.51093 0.0
C3173 C 0.12405 0.64369 0.47602 0.0
C3174 C 0.11533 0.62268 0.51512 0.0
C3175 C 0.13333 0.61439 0.53001 0.0
C3176 C 0.13101 0.59321 0.54286 0.0
C3177 C 0.11019 0.57964 0.53989 0.0
C3178 C 0.09171 0.58694 0.52402 0.0
C3179 C 0.0941 0.60912 0.5118 0.0
loop_
_geom_bond_atom_site_label_1
_geom_bond_atom_site_label_2
_geom_bond_distance
_geom_bond_site_symmetry_2
_ccdc_geom_bond_type
C0 C1 1.386 1_655 S
C0 C2 1.397 . S
C0 H24 0.931 . S
C1 C0 1.386 1_455 S
C1 C5 1.397 . S
C2 C0 1.397 . S
C2 C3 1.384 1_655 S
C2 H25 0.930 . S
C3 C2 1.384 1_455 S
C3 C4 1.377 . S
C3 C6 1.482 . S
C4 C3 1.377 . S
C4 C5 1.389 . S
C4 H26 0.929 . S
C5 C1 1.397 . S
C5 C4 1.389 . S
C5 H27 0.931 . S
C6 C3 1.482 . S
C6 C7 1.386 . S
C6 C11 1.392 . S
C7 C6 1.386 . S
C7 C8 1.400 . S
C7 H28 0.929 1_455 S
C8 C7 1.400 . S
C8 C9 1.376 . S
C8 C17 1.510 1_455 S
C9 C8 1.376 . S
C9 C10 1.394 . S
C9 H30 0.930 1_455 S
C10 C9 1.394 . S
C10 C11 1.361 . S
C10 C12 1.500 . S
C11 C6 1.392 . S
C11 C10 1.361 . S
C11 H29 0.931 . S
C12 C10 1.500 . S
C12 C13 1.371 1_455 S
C12 C14 1.365 . S
C13 C12 1.371 1_655 S
C13 C23 1.386 . S
C13 H31 0.931 . S
C14 C12 1.365 . S
C14 C15 1.409 . S
C14 H32 0.929 . S
C15 C14 1.409 . S
C15 C16 1.380 . S
C15 H33 0.930 . S
C16 C15 1.380 . S
C16 C23 1.357 1_455 S
C17 C8 1.510 1_655 S
C17 C18 1.341 . S
C17 C19 1.371 1_655 S
C18 C17 1.341 . S
C18 C22 1.394 . S
C18 H34 0.930 . S
C19 C17 1.371 1_455 S
C19 C20 1.392 . S
C19 H35 0.931 . S
C20 C19 1.392 . S
C20 C21 1.346 . S
C20 H38 0.932 . S
C21 C20 1.346 . S
C21 C22 1.323 1_455 S
C22 C18 1.394 . S
C22 C21 1.323 1_655 S
C22 H37 0.929 . S
C23 C13 1.386 . S
C23 C16 1.357 1_655 S
C23 H36 0.928 . S
H24 C0 0.931 . S
H25 C2 0.930 . S
H26 C4 0.929 . S
H27 C5 0.931 . S
H28 C7 0.929 1_655 S
H29 C11 0.931 . S
H30 C9 0.930 1_655 S
H31 C13 0.931 . S
H32 C14 0.929 . S
H33 C15 0.930 . S
H34 C18 0.930 . S
H35 C19 0.931 . S
H36 C23 0.928 . S
H37 C22 0.929 . S
H38 C20 0.932 . S
C39 C40 1.395 . S
C39 C41 1.397 . S
C39 H63 0.931 . S
C40 C39 1.395 . S
C40 C44 1.388 1_545 S
C41 C39 1.397 . S
C41 C42 1.389 . S
C41 H64 0.930 . S
C42 C41 1.389 . S
C42 C43 1.372 1_545 S
C42 C45 1.480 . S
C43 C42 1.372 1_565 S
C43 C44 1.389 . S
C43 H65 0.929 . S
C44 C40 1.388 1_565 S
C44 C43 1.389 . S
C44 H66 0.931 . S
C45 C42 1.480 . S
C45 C46 1.388 . S
C45 C50 1.390 . S
C46 C45 1.388 . S
C46 C47 1.402 . S
C46 H67 0.930 . S
C47 C46 1.402 . S
C47 C48 1.376 . S
C47 C56 1.513 . S
C48 C47 1.376 . S
C48 C49 1.392 . S
C48 H69 0.934 . S
C49 C48 1.392 . S
C49 C50 1.361 . S
C49 C51 1.499 1_545 S
C50 C45 1.390 . S
C50 C49 1.361 . S
C50 H68 0.931 . S
C51 C49 1.499 1_565 S
C51 C52 1.362 1_565 S
C51 C53 1.374 . S
C52 C51 1.362 1_545 S
C52 C62 1.386 . S
C52 H70 0.931 . S
C53 C51 1.374 . S
C53 C54 1.409 . S
C53 H71 0.929 . S
C54 C53 1.409 . S
C54 C55 1.379 . S
C54 H72 0.930 . S
C55 C54 1.379 . S
C55 C62 1.359 1_565 S
C56 C47 1.513 . S
C56 C57 1.341 . S
C56 C58 1.371 1_545 S
C57 C56 1.341 . S
C57 C61 1.394 . S
C57 H73 0.930 . S
C58 C56 1.371 1_565 S
C58 C59 1.392 . S
C58 H74 0.931 . S
C59 C58 1.392 . S
C59 C60 1.322 1_565 S
C59 H77 0.932 . S
C60 C59 1.322 1_545 S
C60 C61 1.345 . S
C61 C57 1.394 . S
C61 C60 1.345 . S
C61 H76 0.929 . S
C62 C52 1.386 . S
C62 C55 1.359 1_545 S
C62 H75 0.928 . S
H63 C39 0.931 . S
H64 C41 0.930 . S
H65 C43 0.929 . S
H66 C44 0.931 . S
H67 C46 0.930 . S
H68 C50 0.931 . S
H69 C48 0.934 . S
H70 C52 0.931 . S
H71 C53 0.929 . S
H72 C54 0.930 . S
H73 C57 0.930 . S
H74 C58 0.931 . S
H75 C62 0.928 . S
H76 C61 0.929 . S
H77 C59 0.932 . S
C78 C79 1.386 1_655 S
C78 C80 1.397 . S
C78 H102 0.931 . S
C79 C78 1.386 1_455 S
C79 C83 1.397 . S
C80 C78 1.397 . S
C80 C81 1.384 1_655 S
C80 H103 0.930 . S
C81 C80 1.384 1_455 S
C81 C82 1.377 . S
C81 C84 1.482 . S
C82 C81 1.377 . S
C82 C83 1.389 . S
C82 H104 0.929 . S
C83 C79 1.397 . S
C83 C82 1.389 . S
C83 H105 0.931 . S
C84 C81 1.482 . S
C84 C85 1.386 . S
C84 C89 1.392 . S
C85 C84 1.386 . S
C85 C86 1.400 . S
C85 H106 0.929 1_455 S
C86 C85 1.400 . S
C86 C87 1.376 . S
C86 C95 1.510 1_455 S
C87 C86 1.376 . S
C87 C88 1.394 . S
C87 H108 0.930 1_455 S
C88 C87 1.394 . S
C88 C89 1.361 . S
C88 C90 1.500 . S
C89 C84 1.392 . S
C89 C88 1.361 . S
C89 H107 0.931 . S
C90 C88 1.500 . S
C90 C91 1.371 1_455 S
C90 C92 1.365 . S
C91 C90 1.371 1_655 S
C91 C101 1.386 . S
C91 H109 0.931 . S
C92 C90 1.365 . S
C92 C93 1.409 . S
C92 H110 0.929 . S
C93 C92 1.409 . S
C93 C94 1.380 . S
C93 H111 0.930 . S
C94 C93 1.380 . S
C94 C101 1.357 1_455 S
C95 C86 1.510 1_655 S
C95 C96 1.341 . S
C95 C97 1.371 1_655 S
C96 C95 1.341 . S
C96 C100 1.394 . S
C96 H112 0.930 . S
C97 C95 1.371 1_455 S
C97 C98 1.392 . S
C97 H113 0.931 . S
C98 C97 1.392 . S
C98 C99 1.346 . S
C98 H116 0.932 . S
C99 C98 1.346 . S
C99 C100 1.323 1_455 S
C100 C96 1.394 . S
C100 C99 1.323 1_655 S
C100 H115 0.929 . S
C101 C91 1.386 . S
C101 C94 1.357 1_655 S
C101 H114 0.928 . S
H102 C78 0.931 . S
H103 C80 0.930 . S
H104 C82 0.929 . S
H105 C83 0.931 . S
H106 C85 0.929 1_655 S
H107 C89 0.931 . S
H108 C87 0.930 1_655 S
H109 C91 0.931 . S
H110 C92 0.929 . S
H111 C93 0.930 . S
H112 C96 0.930 . S
H113 C97 0.931 . S
H114 C101 0.928 . S
H115 C100 0.929 . S
H116 C98 0.932 . S
C117 C118 1.395 . S
C117 C119 1.397 . S
C117 H141 0.931 . S
C118 C117 1.395 . S
C118 C122 1.388 1_545 S
C119 C117 1.397 . S
C119 C120 1.389 . S
C119 H142 0.930 . S
C120 C119 1.389 . S
C120 C121 1.372 1_545 S
C120 C123 1.480 . S
C121 C120 1.372 1_565 S
C121 C122 1.389 . S
C121 H143 0.929 . S
C122 C118 1.388 1_565 S
C122 C121 1.389 . S
C122 H144 0.931 . S
C123 C120 1.480 . S
C123 C124 1.388 . S
C123 C128 1.390 . S
C124 C123 1.388 . S
C124 C125 1.402 . S
C124 H145 0.930 . S
C125 C124 1.402 . S
C125 C126 1.376 . S
C125 C134 1.513 . S
C126 C125 1.376 . S
C126 C127 1.392 . S
C126 H147 0.934 . S
C127 C126 1.392 . S
C127 C128 1.361 . S
C127 C129 1.499 1_545 S
C128 C123 1.390 . S
C128 C127 1.361 . S
C128 H146 0.931 . S
C129 C127 1.499 1_565 S
C129 C130 1.362 1_565 S
C129 C131 1.374 . S
C130 C129 1.362 1_545 S
C130 C140 1.386 . S
C130 H148 0.931 . S
C131 C129 1.374 . S
C131 C132 1.409 . S
C131 H149 0.929 . S
C132 C131 1.409 . S
C132 C133 1.379 . S
C132 H150 0.930 . S
C133 C132 1.379 . S
C133 C140 1.359 1_565 S
C134 C125 1.513 . S
C134 C135 1.341 . S
C134 C136 1.371 1_545 S
C135 C134 1.341 . S
C135 C139 1.394 . S
C135 H151 0.930 . S
C136 C134 1.371 1_565 S
C136 C137 1.392 . S
C136 H152 0.931 . S
C137 C136 1.392 . S
C137 C138 1.322 1_565 S
C137 H155 0.932 . S
C138 C137 1.322 1_545 S
C138 C139 1.345 . S
C139 C135 1.394 . S
C139 C138 1.345 . S
C139 H154 0.929 . S
C140 C130 1.386 . S
C140 C133 1.359 1_545 S
C140 H153 0.928 . S
H141 C117 0.931 . S
H142 C119 0.930 . S
H143 C121 0.929 . S
H144 C122 0.931 . S
H145 C124 0.930 . S
H146 C128 0.931 . S
H147 C126 0.934 . S
H148 C130 0.931 . S
H149 C131 0.929 . S
H150 C132 0.930 . S
H151 C135 0.930 . S
H152 C136 0.931 . S
H153 C140 0.928 . S
H154 C139 0.929 . S
H155 C137 0.932 . S
C156 C157 1.386 1_655 S
C156 C158 1.397 . S
C156 H180 0.931 . S
C157 C156 1.386 1_455 S
C157 C161 1.397 . S
C158 C156 1.397 . S
C158 C159 1.384 1_655 S
C158 H181 0.930 . S
C159 C158 1.384 1_455 S
C159 C160 1.377 . S
C159 C162 1.482 . S
C160 C159 1.377 . S
C160 C161 1.389 . S
C160 H182 0.929 . S
C161 C157 1.397 . S
C161 C160 1.389 . S
C161 H183 0.931 . S
C162 C159 1.482 . S
C162 C163 1.386 . S
C162 C167 1.392 . S
C163 C162 1.386 . S
C163 C164 1.400 . S
C163 H184 0.929 1_455 S
C164 C163 1.400 . S
C164 C165 1.376 . S
C164 C173 1.510 1_455 S
C165 C164 1.376 . S
C165 C166 1.394 . S
C165 H186 0.930 1_455 S
C166 C165 1.394 . S
C166 C167 1.361 . S
C166 C168 1.500 . S
C167 C162 1.392 . S
C167 C166 1.361 . S
C167 H185 0.931 . S
C168 C166 1.500 . S
C168 C169 1.371 1_455 S
C168 C170 1.365 . S
C169 C168 1.371 1_655 S
C169 C179 1.386 . S
C169 H187 0.931 . S
C170 C168 1.365 . S
C170 C171 1.409 . S
C170 H188 0.929 . S
C171 C170 1.409 . S
C171 C172 1.380 . S
C171 H189 0.930 . S
C172 C171 1.380 . S
C172 C179 1.357 1_455 S
C173 C164 1.510 1_655 S
C173 C174 1.341 . S
C173 C175 1.371 1_655 S
C174 C173 1.341 . S
C174 C178 1.394 . S
C174 H190 0.930 . S
C175 C173 1.371 1_455 S
C175 C176 1.392 . S
C175 H191 0.931 . S
C176 C175 1.392 . S
C176 C177 1.346 . S
C176 H194 0.932 . S
C177 C176 1.346 . S
C177 C178 1.323 1_455 S
C178 C174 1.394 . S
C178 C177 1.323 1_655 S
C178 H193 0.929 . S
C179 C169 1.386 . S
C179 C172 1.357 1_655 S
C179 H192 0.928 . S
H180 C156 0.931 . S
H181 C158 0.930 . S
H182 C160 0.929 . S
H183 C161 0.931 . S
H184 C163 0.929 1_655 S
H185 C167 0.931 . S
H186 C165 0.930 1_655 S
H187 C169 0.931 . S
H188 C170 0.929 . S
H189 C171 0.930 . S
H190 C174 0.930 . S
H191 C175 0.931 . S
H192 C179 0.928 . S
H193 C178 0.929 . S
H194 C176 0.932 . S
C195 C196 1.388 . S
C195 C197 1.397 . S
C195 H219 0.931 . S
C196 C195 1.388 . S
C196 C200 1.396 1_565 S
C197 C195 1.397 . S
C197 C198 1.382 . S
C197 H220 0.930 . S
C198 C197 1.382 . S
C198 C199 1.379 1_565 S
C198 C201 1.480 . S
C199 C198 1.379 1_545 S
C199 C200 1.389 . S
C199 H221 0.929 . S
C200 C196 1.396 1_545 S
C200 C199 1.389 . S
C200 H222 0.931 . S
C201 C198 1.480 . S
C201 C202 1.388 . S
C201 C206 1.390 . S
C202 C201 1.388 . S
C202 C203 1.402 . S
C202 H223 0.930 . S
C203 C202 1.402 . S
C203 C204 1.376 . S
C203 C212 1.512 . S
C204 C203 1.376 . S
C204 C205 1.392 1_565 S
C204 H225 0.933 . S
C205 C204 1.392 1_545 S
C205 C206 1.361 1_545 S
C205 C207 1.499 . S
C206 C201 1.390 . S
C206 C205 1.361 1_565 S
C206 H224 0.931 . S
C207 C205 1.499 . S
C207 C208 1.357 1_545 S
C207 C209 1.380 . S
C208 C207 1.357 1_565 S
C208 C218 1.386 . S
C208 H226 0.931 . S
C209 C207 1.380 . S
C209 C210 1.409 . S
C209 H227 0.929 . S
C210 C209 1.409 . S
C210 C211 1.384 . S
C210 H228 0.930 . S
C211 C210 1.384 . S
C211 C218 1.353 1_545 S
C212 C203 1.512 . S
C212 C213 1.341 . S
C212 C214 1.371 1_565 S
C213 C212 1.341 . S
C213 C217 1.394 . S
C213 H229 0.930 . S
C214 C212 1.371 1_545 S
C214 C215 1.392 . S
C214 H230 0.931 . S
C215 C214 1.392 . S
C215 C216 1.325 1_545 S
C215 H233 0.932 . S
C216 C215 1.325 1_565 S
C216 C217 1.342 . S
C217 C213 1.394 . S
C217 C216 1.342 . S
C217 H232 0.929 . S
C218 C208 1.386 . S
C218 C211 1.353 1_565 S
C218 H231 0.928 . S
H219 C195 0.931 . S
H220 C197 0.930 . S
H221 C199 0.929 . S
H222 C200 0.931 . S
H223 C202 0.930 . S
H224 C206 0.931 . S
H225 C204 0.933 . S
H226 C208 0.931 . S
H227 C209 0.929 . S
H228 C210 0.930 . S
H229 C213 0.930 . S
H230 C214 0.931 . S
H231 C218 0.928 . S
H232 C217 0.929 . S
H233 C215 0.932 . S
C234 C235 1.386 1_655 S
C234 C236 1.397 . S
C234 H258 0.931 . S
C235 C234 1.386 1_455 S
C235 C239 1.397 . S
C236 C234 1.397 . S
C236 C237 1.384 1_655 S
C236 H259 0.930 . S
C237 C236 1.384 1_455 S
C237 C238 1.377 . S
C237 C240 1.482 . S
C238 C237 1.377 . S
C238 C239 1.389 . S
C238 H260 0.929 . S
C239 C235 1.397 . S
C239 C238 1.389 . S
C239 H261 0.931 . S
C240 C237 1.482 . S
C240 C241 1.386 . S
C240 C245 1.392 . S
C241 C240 1.386 . S
C241 C242 1.400 . S
C241 H262 0.929 1_455 S
C242 C241 1.400 . S
C242 C243 1.376 . S
C242 C251 1.510 1_455 S
C243 C242 1.376 . S
C243 C244 1.394 . S
C243 H264 0.930 1_455 S
C244 C243 1.394 . S
C244 C245 1.361 . S
C244 C246 1.500 . S
C245 C240 1.392 . S
C245 C244 1.361 . S
C245 H263 0.931 . S
C246 C244 1.500 . S
C246 C247 1.371 1_455 S
C246 C248 1.365 . S
C247 C246 1.371 1_655 S
C247 C257 1.386 . S
C247 H265 0.931 . S
C248 C246 1.365 . S
C248 C249 1.409 . S
C248 H266 0.929 . S
C249 C248 1.409 . S
C249 C250 1.380 . S
C249 H267 0.930 . S
C250 C249 1.380 . S
C250 C257 1.357 1_455 S
C251 C242 1.510 1_655 S
C251 C252 1.341 . S
C251 C253 1.371 1_655 S
C252 C251 1.341 . S
C252 C256 1.394 . S
C252 H268 0.930 . S
C253 C251 1.371 1_455 S
C253 C254 1.392 . S
C253 H269 0.931 . S
C254 C253 1.392 . S
C254 C255 1.346 . S
C254 H272 0.932 . S
C255 C254 1.346 . S
C255 C256 1.323 1_455 S
C256 C252 1.394 . S
C256 C255 1.323 1_655 S
C256 H271 0.929 . S
C257 C247 1.386 . S
C257 C250 1.357 1_655 S
C257 H270 0.928 . S
H258 C234 0.931 . S
H259 C236 0.930 . S
H260 C238 0.929 . S
H261 C239 0.931 . S
H262 C241 0.929 1_655 S
H263 C245 0.931 . S
H264 C243 0.930 1_655 S
H265 C247 0.931 . S
H266 C248 0.929 . S
H267 C249 0.930 . S
H268 C252 0.930 . S
H269 C253 0.931 . S
H270 C257 0.928 . S
H271 C256 0.929 . S
H272 C254 0.932 . S
C273 C274 1.388 . S
C273 C275 1.397 . S
C273 H297 0.931 . S
C274 C273 1.388 . S
C274 C278 1.396 1_565 S
C275 C273 1.397 . S
C275 C276 1.382 . S
C275 H298 0.930 . S
C276 C275 1.382 . S
C276 C277 1.379 1_565 S
C276 C279 1.480 . S
C277 C276 1.379 1_545 S
C277 C278 1.389 . S
C277 H299 0.929 . S
C278 C274 1.396 1_545 S
C278 C277 1.389 . S
C278 H300 0.931 . S
C279 C276 1.480 . S
C279 C280 1.388 . S
C279 C284 1.390 . S
C280 C279 1.388 . S
C280 C281 1.402 . S
C280 H301 0.930 . S
C281 C280 1.402 . S
C281 C282 1.376 . S
C281 C290 1.512 . S
C282 C281 1.376 . S
C282 C283 1.392 1_565 S
C282 H303 0.933 . S
C283 C282 1.392 1_545 S
C283 C284 1.361 1_545 S
C283 C285 1.499 . S
C284 C279 1.390 . S
C284 C283 1.361 1_565 S
C284 H302 0.931 . S
C285 C283 1.499 . S
C285 C286 1.357 1_545 S
C285 C287 1.380 . S
C286 C285 1.357 1_565 S
C286 C296 1.386 . S
C286 H304 0.931 . S
C287 C285 1.380 . S
C287 C288 1.409 . S
C287 H305 0.929 . S
C288 C287 1.409 . S
C288 C289 1.384 . S
C288 H306 0.930 . S
C289 C288 1.384 . S
C289 C296 1.353 1_545 S
C290 C281 1.512 . S
C290 C291 1.341 . S
C290 C292 1.371 1_565 S
C291 C290 1.341 . S
C291 C295 1.394 . S
C291 H307 0.930 . S
C292 C290 1.371 1_545 S
C292 C293 1.392 . S
C292 H308 0.931 . S
C293 C292 1.392 . S
C293 C294 1.325 1_545 S
C293 H311 0.932 . S
C294 C293 1.325 1_565 S
C294 C295 1.342 . S
C295 C291 1.394 . S
C295 C294 1.342 . S
C295 H310 0.929 . S
C296 C286 1.386 . S
C296 C289 1.353 1_565 S
C296 H309 0.928 . S
H297 C273 0.931 . S
H298 C275 0.930 . S
H299 C277 0.929 . S
H300 C278 0.931 . S
H301 C280 0.930 . S
H302 C284 0.931 . S
H303 C282 0.933 . S
H304 C286 0.931 . S
H305 C287 0.929 . S
H306 C288 0.930 . S
H307 C291 0.930 . S
H308 C292 0.931 . S
H309 C296 0.928 . S
H310 C295 0.929 . S
H311 C293 0.932 . S
C312 C313 1.388 . S
C312 C314 1.397 . S
C312 H336 0.931 . S
C313 C312 1.388 . S
C313 C317 1.396 1_556 S
C314 C312 1.397 . S
C314 C315 1.382 . S
C314 H337 0.930 . S
C315 C314 1.382 . S
C315 C316 1.379 1_556 S
C315 C318 1.480 . S
C316 C315 1.379 1_554 S
C316 C317 1.389 . S
C316 H338 0.929 . S
C317 C313 1.396 1_554 S
C317 C316 1.389 . S
C317 H339 0.931 . S
C318 C315 1.480 . S
C318 C319 1.388 . S
C318 C323 1.390 . S
C319 C318 1.388 . S
C319 C320 1.402 . S
C319 H340 0.930 . S
C320 C319 1.402 . S
C320 C321 1.376 . S
C320 C329 1.512 . S
C321 C320 1.376 . S
C321 C322 1.392 1_556 S
C321 H342 0.933 . S
C322 C321 1.392 1_554 S
C322 C323 1.361 1_554 S
C322 C324 1.499 . S
C323 C318 1.390 . S
C323 C322 1.361 1_556 S
C323 H341 0.931 . S
C324 C322 1.499 . S
C324 C325 1.357 1_554 S
C324 C326 1.380 . S
C325 C324 1.357 1_556 S
C325 C335 1.386 . S
C325 H343 0.931 . S
C326 C324 1.380 . S
C326 C327 1.409 . S
C326 H344 0.929 . S
C327 C326 1.409 . S
C327 C328 1.384 . S
C327 H345 0.930 . S
C328 C327 1.384 . S
C328 C335 1.353 1_554 S
C329 C320 1.512 . S
C329 C330 1.341 . S
C329 C331 1.371 1_556 S
C330 C329 1.341 . S
C330 C334 1.394 . S
C330 H346 0.930 . S
C331 C329 1.371 1_554 S
C331 C332 1.392 . S
C331 H347 0.931 . S
C332 C331 1.392 . S
C332 C333 1.325 1_554 S
C332 H350 0.932 . S
C333 C332 1.325 1_556 S
C333 C334 1.342 . S
C334 C330 1.394 . S
C334 C333 1.342 . S
C334 H349 0.929 . S
C335 C325 1.386 . S
C335 C328 1.353 1_556 S
C335 H348 0.928 . S
H336 C312 0.931 . S
H337 C314 0.930 . S
H338 C316 0.929 . S
H339 C317 0.931 . S
H340 C319 0.930 . S
H341 C323 0.931 . S
H342 C321 0.933 . S
H343 C325 0.931 . S
H344 C326 0.929 . S
H345 C327 0.930 . S
H346 C330 0.930 . S
H347 C331 0.931 . S
H348 C335 0.928 . S
H349 C334 0.929 . S
H350 C332 0.932 . S
C351 C352 1.395 . S
C351 C353 1.397 . S
C351 H375 0.931 . S
C352 C351 1.395 . S
C352 C356 1.388 1_554 S
C353 C351 1.397 . S
C353 C354 1.389 . S
C353 H376 0.930 . S
C354 C353 1.389 . S
C354 C355 1.372 1_554 S
C354 C357 1.480 . S
C355 C354 1.372 1_556 S
C355 C356 1.389 . S
C355 H377 0.929 . S
C356 C352 1.388 1_556 S
C356 C355 1.389 . S
C356 H378 0.931 . S
C357 C354 1.480 . S
C357 C358 1.388 . S
C357 C362 1.390 . S
C358 C357 1.388 . S
C358 C359 1.402 . S
C358 H379 0.930 . S
C359 C358 1.402 . S
C359 C360 1.376 . S
C359 C368 1.513 . S
C360 C359 1.376 . S
C360 C361 1.392 . S
C360 H381 0.934 . S
C361 C360 1.392 . S
C361 C362 1.361 . S
C361 C363 1.499 1_554 S
C362 C357 1.390 . S
C362 C361 1.361 . S
C362 H380 0.931 . S
C363 C361 1.499 1_556 S
C363 C364 1.362 1_556 S
C363 C365 1.374 . S
C364 C363 1.362 1_554 S
C364 C374 1.386 . S
C364 H382 0.931 . S
C365 C363 1.374 . S
C365 C366 1.409 . S
C365 H383 0.929 . S
C366 C365 1.409 . S
C366 C367 1.379 . S
C366 H384 0.930 . S
C367 C366 1.379 . S
C367 C374 1.359 1_556 S
C368 C359 1.513 . S
C368 C369 1.341 . S
C368 C370 1.371 1_554 S
C369 C368 1.341 . S
C369 C373 1.394 . S
C369 H385 0.930 . S
C370 C368 1.371 1_556 S
C370 C371 1.392 . S
C370 H386 0.931 . S
C371 C370 1.392 . S
C371 C372 1.322 1_556 S
C371 H389 0.932 . S
C372 C371 1.322 1_554 S
C372 C373 1.345 . S
C373 C369 1.394 . S
C373 C372 1.345 . S
C373 H388 0.929 . S
C374 C364 1.386 . S
C374 C367 1.359 1_554 S
C374 H387 0.928 . S
H375 C351 0.931 . S
H376 C353 0.930 . S
H377 C355 0.929 . S
H378 C356 0.931 . S
H379 C358 0.930 . S
H380 C362 0.931 . S
H381 C360 0.934 . S
H382 C364 0.931 . S
H383 C365 0.929 . S
H384 C366 0.930 . S
H385 C369 0.930 . S
H386 C370 0.931 . S
H387 C374 0.928 . S
H388 C373 0.929 . S
H389 C371 0.932 . S
C390 C391 1.388 . S
C390 C392 1.397 . S
C390 H414 0.931 . S
C391 C390 1.388 . S
C391 C395 1.396 1_556 S
C392 C390 1.397 . S
C392 C393 1.382 . S
C392 H415 0.930 . S
C393 C392 1.382 . S
C393 C394 1.379 1_556 S
C393 C396 1.480 . S
C394 C393 1.379 1_554 S
C394 C395 1.389 . S
C394 H416 0.929 . S
C395 C391 1.396 1_554 S
C395 C394 1.389 . S
C395 H417 0.931 . S
C396 C393 1.480 . S
C396 C397 1.388 . S
C396 C401 1.390 . S
C397 C396 1.388 . S
C397 C398 1.402 . S
C397 H418 0.930 . S
C398 C397 1.402 . S
C398 C399 1.376 . S
C398 C407 1.512 . S
C399 C398 1.376 . S
C399 C400 1.392 1_556 S
C399 H420 0.933 . S
C400 C399 1.392 1_554 S
C400 C401 1.361 1_554 S
C400 C402 1.499 . S
C401 C396 1.390 . S
C401 C400 1.361 1_556 S
C401 H419 0.931 . S
C402 C400 1.499 . S
C402 C403 1.357 1_554 S
C402 C404 1.380 . S
C403 C402 1.357 1_556 S
C403 C413 1.386 . S
C403 H421 0.931 . S
C404 C402 1.380 . S
C404 C405 1.409 . S
C404 H422 0.929 . S
C405 C404 1.409 . S
C405 C406 1.384 . S
C405 H423 0.930 . S
C406 C405 1.384 . S
C406 C413 1.353 1_554 S
C407 C398 1.512 . S
C407 C408 1.341 . S
C407 C409 1.371 1_556 S
C408 C407 1.341 . S
C408 C412 1.394 . S
C408 H424 0.930 . S
C409 C407 1.371 1_554 S
C409 C410 1.392 . S
C409 H425 0.931 . S
C410 C409 1.392 . S
C410 C411 1.325 1_554 S
C410 H428 0.932 . S
C411 C410 1.325 1_556 S
C411 C412 1.342 . S
C412 C408 1.394 . S
C412 C411 1.342 . S
C412 H427 0.929 . S
C413 C403 1.386 . S
C413 C406 1.353 1_556 S
C413 H426 0.928 . S
H414 C390 0.931 . S
H415 C392 0.930 . S
H416 C394 0.929 . S
H417 C395 0.931 . S
H418 C397 0.930 . S
H419 C401 0.931 . S
H420 C399 0.933 . S
H421 C403 0.931 . S
H422 C404 0.929 . S
H423 C405 0.930 . S
H424 C408 0.930 . S
H425 C409 0.931 . S
H426 C413 0.928 . S
H427 C412 0.929 . S
H428 C410 0.932 . S
C429 C430 1.395 . S
C429 C431 1.397 . S
C429 H453 0.931 . S
C430 C429 1.395 . S
C430 C434 1.388 1_554 S
C431 C429 1.397 . S
C431 C432 1.389 . S
C431 H454 0.930 . S
C432 C431 1.389 . S
C432 C433 1.372 1_554 S
C432 C435 1.480 . S
C433 C432 1.372 1_556 S
C433 C434 1.389 . S
C433 H455 0.929 . S
C434 C430 1.388 1_556 S
C434 C433 1.389 . S
C434 H456 0.931 . S
C435 C432 1.480 . S
C435 C436 1.388 . S
C435 C440 1.390 . S
C436 C435 1.388 . S
C436 C437 1.402 . S
C436 H457 0.930 . S
C437 C436 1.402 . S
C437 C438 1.376 . S
C437 C446 1.513 . S
C438 C437 1.376 . S
C438 C439 1.392 . S
C438 H459 0.934 . S
C439 C438 1.392 . S
C439 C440 1.361 . S
C439 C441 1.499 1_554 S
C440 C435 1.390 . S
C440 C439 1.361 . S
C440 H458 0.931 . S
C441 C439 1.499 1_556 S
C441 C442 1.362 1_556 S
C441 C443 1.374 . S
C442 C441 1.362 1_554 S
C442 C452 1.386 . S
C442 H460 0.931 . S
C443 C441 1.374 . S
C443 C444 1.409 . S
C443 H461 0.929 . S
C444 C443 1.409 . S
C444 C445 1.379 . S
C444 H462 0.930 . S
C445 C444 1.379 . S
C445 C452 1.359 1_556 S
C446 C437 1.513 . S
C446 C447 1.341 . S
C446 C448 1.371 1_554 S
C447 C446 1.341 . S
C447 C451 1.394 . S
C447 H463 0.930 . S
C448 C446 1.371 1_556 S
C448 C449 1.392 . S
C448 H464 0.931 . S
C449 C448 1.392 . S
C449 C450 1.322 1_556 S
C449 H467 0.932 . S
C450 C449 1.322 1_554 S
C450 C451 1.345 . S
C451 C447 1.394 . S
C451 C450 1.345 . S
C451 H466 0.929 . S
C452 C442 1.386 . S
C452 C445 1.359 1_554 S
C452 H465 0.928 . S
H453 C429 0.931 . S
H454 C431 0.930 . S
H455 C433 0.929 . S
H456 C434 0.931 . S
H457 C436 0.930 . S
H458 C440 0.931 . S
H459 C438 0.934 . S
H460 C442 0.931 . S
H461 C443 0.929 . S
H462 C444 0.930 . S
H463 C447 0.930 . S
H464 C448 0.931 . S
H465 C452 0.928 . S
H466 C451 0.929 . S
H467 C449 0.932 . S
C468 C469 1.386 . S
C468 C470 1.397 . S
C468 H492 0.931 . S
C469 C468 1.386 . S
C469 C473 1.397 . S
C470 C468 1.397 . S
C470 C471 1.384 . S
C470 H493 0.930 . S
C471 C470 1.384 . S
C471 C472 1.377 . S
C471 C474 1.481 . S
C472 C471 1.377 . S
C472 C473 1.389 . S
C472 H494 0.929 . S
C473 C469 1.397 . S
C473 C472 1.389 . S
C473 H495 0.931 . S
C474 C471 1.481 . S
C474 C475 1.387 . S
C474 C479 1.390 . S
C475 C474 1.387 . S
C475 C476 1.401 . S
C475 H496 0.930 . S
C476 C475 1.401 . S
C476 C477 1.376 . S
C476 C485 1.511 . S
C477 C476 1.376 . S
C477 C478 1.392 . S
C477 H498 0.931 . S
C478 C477 1.392 . S
C478 C479 1.361 . S
C478 C480 1.500 . S
C479 C474 1.390 . S
C479 C478 1.361 . S
C479 H497 0.931 . S
C480 C478 1.500 . S
C480 C481 1.371 . S
C480 C482 1.365 . S
C481 C480 1.371 . S
C481 C491 1.386 . S
C481 H499 0.931 . S
C482 C480 1.365 . S
C482 C483 1.409 . S
C482 H500 0.929 . S
C483 C482 1.409 . S
C483 C484 1.380 . S
C483 H501 0.930 . S
C484 C483 1.380 . S
C484 C491 1.357 . S
C485 C476 1.511 . S
C485 C486 1.341 . S
C485 C487 1.371 . S
C486 C485 1.341 . S
C486 C490 1.394 . S
C486 H502 0.930 . S
C487 C485 1.371 . S
C487 C488 1.392 . S
C487 H503 0.931 . S
C488 C487 1.392 . S
C488 C489 1.331 . S
C488 H506 0.932 . S
C489 C488 1.331 . S
C489 C490 1.336 . S
C490 C486 1.394 . S
C490 C489 1.336 . S
C490 H505 0.929 . S
C491 C481 1.386 . S
C491 C484 1.357 . S
C491 H504 0.928 . S
H492 C468 0.931 . S
H493 C470 0.930 . S
H494 C472 0.929 . S
H495 C473 0.931 . S
H496 C475 0.930 . S
H497 C479 0.931 . S
H498 C477 0.931 . S
H499 C481 0.931 . S
H500 C482 0.929 . S
H501 C483 0.930 . S
H502 C486 0.930 . S
H503 C487 0.931 . S
H504 C491 0.928 . S
H505 C490 0.929 . S
H506 C488 0.932 . S
C507 C508 1.386 . S
C507 C509 1.397 . S
C507 H531 0.931 . S
C508 C507 1.386 . S
C508 C512 1.397 . S
C509 C507 1.397 . S
C509 C510 1.384 . S
C509 H532 0.930 . S
C510 C509 1.384 . S
C510 C511 1.377 . S
C510 C513 1.481 . S
C511 C510 1.377 . S
C511 C512 1.389 . S
C511 H533 0.929 . S
C512 C508 1.397 . S
C512 C511 1.389 . S
C512 H534 0.931 . S
C513 C510 1.481 . S
C513 C514 1.387 . S
C513 C518 1.390 . S
C514 C513 1.387 . S
C514 C515 1.401 . S
C514 H535 0.930 . S
C515 C514 1.401 . S
C515 C516 1.376 . S
C515 C524 1.511 . S
C516 C515 1.376 . S
C516 C517 1.392 . S
C516 H537 0.931 . S
C517 C516 1.392 . S
C517 C518 1.361 . S
C517 C519 1.500 . S
C518 C513 1.390 . S
C518 C517 1.361 . S
C518 H536 0.931 . S
C519 C517 1.500 . S
C519 C520 1.371 . S
C519 C521 1.365 . S
C520 C519 1.371 . S
C520 C530 1.386 . S
C520 H538 0.931 . S
C521 C519 1.365 . S
C521 C522 1.409 . S
C521 H539 0.929 . S
C522 C521 1.409 . S
C522 C523 1.380 . S
C522 H540 0.930 . S
C523 C522 1.380 . S
C523 C530 1.357 . S
C524 C515 1.511 . S
C524 C525 1.341 . S
C524 C526 1.371 . S
C525 C524 1.341 . S
C525 C529 1.394 . S
C525 H541 0.930 . S
C526 C524 1.371 . S
C526 C527 1.392 . S
C526 H542 0.931 . S
C527 C526 1.392 . S
C527 C528 1.331 . S
C527 H545 0.932 . S
C528 C527 1.331 . S
C528 C529 1.336 . S
C529 C525 1.394 . S
C529 C528 1.336 . S
C529 H544 0.929 . S
C530 C520 1.386 . S
C530 C523 1.357 . S
C530 H543 0.928 . S
H531 C507 0.931 . S
H532 C509 0.930 . S
H533 C511 0.929 . S
H534 C512 0.931 . S
H535 C514 0.930 . S
H536 C518 0.931 . S
H537 C516 0.931 . S
H538 C520 0.931 . S
H539 C521 0.929 . S
H540 C522 0.930 . S
H541 C525 0.930 . S
H542 C526 0.931 . S
H543 C530 0.928 . S
H544 C529 0.929 . S
H545 C527 0.932 . S
C546 C547 1.386 . S
C546 C548 1.397 . S
C546 H570 0.931 . S
C547 C546 1.386 . S
C547 C551 1.397 . S
C548 C546 1.397 . S
C548 C549 1.384 . S
C548 H571 0.930 . S
C549 C548 1.384 . S
C549 C550 1.377 . S
C549 C552 1.481 . S
C550 C549 1.377 . S
C550 C551 1.389 . S
C550 H572 0.929 . S
C551 C547 1.397 . S
C551 C550 1.389 . S
C551 H573 0.931 . S
C552 C549 1.481 . S
C552 C553 1.387 . S
C552 C557 1.390 . S
C553 C552 1.387 . S
C553 C554 1.401 . S
C553 H574 0.930 . S
C554 C553 1.401 . S
C554 C555 1.376 . S
C554 C563 1.511 . S
C555 C554 1.376 . S
C555 C556 1.392 . S
C555 H576 0.931 . S
C556 C555 1.392 . S
C556 C557 1.361 . S
C556 C558 1.500 . S
C557 C552 1.390 . S
C557 C556 1.361 . S
C557 H575 0.931 . S
C558 C556 1.500 . S
C558 C559 1.371 . S
C558 C560 1.365 . S
C559 C558 1.371 . S
C559 C569 1.386 . S
C559 H577 0.931 . S
C560 C558 1.365 . S
C560 C561 1.409 . S
C560 H578 0.929 . S
C561 C560 1.409 . S
C561 C562 1.380 . S
C561 H579 0.930 . S
C562 C561 1.380 . S
C562 C569 1.357 . S
C563 C554 1.511 . S
C563 C564 1.341 . S
C563 C565 1.371 . S
C564 C563 1.341 . S
C564 C568 1.394 . S
C564 H580 0.930 . S
C565 C563 1.371 . S
C565 C566 1.392 . S
C565 H581 0.931 . S
C566 C565 1.392 . S
C566 C567 1.331 . S
C566 H584 0.932 . S
C567 C566 1.331 . S
C567 C568 1.336 . S
C568 C564 1.394 . S
C568 C567 1.336 . S
C568 H583 0.929 . S
C569 C559 1.386 . S
C569 C562 1.357 . S
C569 H582 0.928 . S
H570 C546 0.931 . S
H571 C548 0.930 . S
H572 C550 0.929 . S
H573 C551 0.931 . S
H574 C553 0.930 . S
H575 C557 0.931 . S
H576 C555 0.931 . S
H577 C559 0.931 . S
H578 C560 0.929 . S
H579 C561 0.930 . S
H580 C564 0.930 . S
H581 C565 0.931 . S
H582 C569 0.928 . S
H583 C568 0.929 . S
H584 C566 0.932 . S
C585 C586 1.386 . S
C585 C587 1.397 . S
C585 H609 0.931 . S
C586 C585 1.386 . S
C586 C590 1.397 . S
C587 C585 1.397 . S
C587 C588 1.384 . S
C587 H610 0.930 . S
C588 C587 1.384 . S
C588 C589 1.377 . S
C588 C591 1.481 . S
C589 C588 1.377 . S
C589 C590 1.389 . S
C589 H611 0.929 . S
C590 C586 1.397 . S
C590 C589 1.389 . S
C590 H612 0.931 . S
C591 C588 1.481 . S
C591 C592 1.387 . S
C591 C596 1.390 . S
C592 C591 1.387 . S
C592 C593 1.401 . S
C592 H613 0.930 . S
C593 C592 1.401 . S
C593 C594 1.376 . S
C593 C602 1.511 . S
C594 C593 1.376 . S
C594 C595 1.392 . S
C594 H615 0.931 . S
C595 C594 1.392 . S
C595 C596 1.361 . S
C595 C597 1.500 . S
C596 C591 1.390 . S
C596 C595 1.361 . S
C596 H614 0.931 . S
C597 C595 1.500 . S
C597 C598 1.371 . S
C597 C599 1.365 . S
C598 C597 1.371 . S
C598 C608 1.386 . S
C598 H616 0.931 . S
C599 C597 1.365 . S
C599 C600 1.409 . S
C599 H617 0.929 . S
C600 C599 1.409 . S
C600 C601 1.380 . S
C600 H618 0.930 . S
C601 C600 1.380 . S
C601 C608 1.357 . S
C602 C593 1.511 . S
C602 C603 1.341 . S
C602 C604 1.371 . S
C603 C602 1.341 . S
C603 C607 1.394 . S
C603 H619 0.930 . S
C604 C602 1.371 . S
C604 C605 1.392 . S
C604 H620 0.931 . S
C605 C604 1.392 . S
C605 C606 1.331 . S
C605 H623 0.932 . S
C606 C605 1.331 . S
C606 C607 1.336 . S
C607 C603 1.394 . S
C607 C606 1.336 . S
C607 H622 0.929 . S
C608 C598 1.386 . S
C608 C601 1.357 . S
C608 H621 0.928 . S
H609 C585 0.931 . S
H610 C587 0.930 . S
H611 C589 0.929 . S
H612 C590 0.931 . S
H613 C592 0.930 . S
H614 C596 0.931 . S
H615 C594 0.931 . S
H616 C598 0.931 . S
H617 C599 0.929 . S
H618 C600 0.930 . S
H619 C603 0.930 . S
H620 C604 0.931 . S
H621 C608 0.928 . S
H622 C607 0.929 . S
H623 C605 0.932 . S
C624 C625 1.386 . S
C624 C626 1.397 . S
C624 H648 0.931 . S
C625 C624 1.386 . S
C625 C629 1.397 . S
C626 C624 1.397 . S
C626 C627 1.384 . S
C626 H649 0.930 . S
C627 C626 1.384 . S
C627 C628 1.377 . S
C627 C630 1.481 . S
C628 C627 1.377 . S
C628 C629 1.389 . S
C628 H650 0.929 . S
C629 C625 1.397 . S
C629 C628 1.389 . S
C629 H651 0.931 . S
C630 C627 1.481 . S
C630 C631 1.387 . S
C630 C635 1.390 . S
C631 C630 1.387 . S
C631 C632 1.401 . S
C631 H652 0.930 . S
C632 C631 1.401 . S
C632 C633 1.376 . S
C632 C641 1.511 . S
C633 C632 1.376 . S
C633 C634 1.392 . S
C633 H654 0.931 . S
C634 C633 1.392 . S
C634 C635 1.361 . S
C634 C636 1.500 . S
C635 C630 1.390 . S
C635 C634 1.361 . S
C635 H653 0.931 . S
C636 C634 1.500 . S
C636 C637 1.371 . S
C636 C638 1.365 . S
C637 C636 1.371 . S
C637 C647 1.386 . S
C637 H655 0.931 . S
C638 C636 1.365 . S
C638 C639 1.409 . S
C638 H656 0.929 . S
C639 C638 1.409 . S
C639 C640 1.380 . S
C639 H657 0.930 . S
C640 C639 1.380 . S
C640 C647 1.357 . S
C641 C632 1.511 . S
C641 C642 1.341 . S
C641 C643 1.371 . S
C642 C641 1.341 . S
C642 C646 1.394 . S
C642 H658 0.930 . S
C643 C641 1.371 . S
C643 C644 1.392 . S
C643 H659 0.931 . S
C644 C643 1.392 . S
C644 C645 1.331 . S
C644 H662 0.932 . S
C645 C644 1.331 . S
C645 C646 1.336 . S
C646 C642 1.394 . S
C646 C645 1.336 . S
C646 H661 0.929 . S
C647 C637 1.386 . S
C647 C640 1.357 . S
C647 H660 0.928 . S
H648 C624 0.931 . S
H649 C626 0.930 . S
H650 C628 0.929 . S
H651 C629 0.931 . S
H652 C631 0.930 . S
H653 C635 0.931 . S
H654 C633 0.931 . S
H655 C637 0.931 . S
H656 C638 0.929 . S
H657 C639 0.930 . S
H658 C642 0.930 . S
H659 C643 0.931 . S
H660 C647 0.928 . S
H661 C646 0.929 . S
H662 C644 0.932 . S
C663 C664 1.386 . S
C663 C665 1.397 . S
C663 H687 0.931 . S
C664 C663 1.386 . S
C664 C668 1.397 . S
C665 C663 1.397 . S
C665 C666 1.384 . S
C665 H688 0.930 . S
C666 C665 1.384 . S
C666 C667 1.377 . S
C666 C669 1.481 . S
C667 C666 1.377 . S
C667 C668 1.389 . S
C667 H689 0.929 . S
C668 C664 1.397 . S
C668 C667 1.389 . S
C668 H690 0.931 . S
C669 C666 1.481 . S
C669 C670 1.387 . S
C669 C674 1.390 . S
C670 C669 1.387 . S
C670 C671 1.401 . S
C670 H691 0.930 . S
C671 C670 1.401 . S
C671 C672 1.376 . S
C671 C680 1.511 . S
C672 C671 1.376 . S
C672 C673 1.392 . S
C672 H693 0.931 . S
C673 C672 1.392 . S
C673 C674 1.361 . S
C673 C675 1.500 . S
C674 C669 1.390 . S
C674 C673 1.361 . S
C674 H692 0.931 . S
C675 C673 1.500 . S
C675 C676 1.371 . S
C675 C677 1.365 . S
C676 C675 1.371 . S
C676 C686 1.386 . S
C676 H694 0.931 . S
C677 C675 1.365 . S
C677 C678 1.409 . S
C677 H695 0.929 . S
C678 C677 1.409 . S
C678 C679 1.380 . S
C678 H696 0.930 . S
C679 C678 1.380 . S
C679 C686 1.357 . S
C680 C671 1.511 . S
C680 C681 1.341 . S
C680 C682 1.371 . S
C681 C680 1.341 . S
C681 C685 1.394 . S
C681 H697 0.930 . S
C682 C680 1.371 . S
C682 C683 1.392 . S
C682 H698 0.931 . S
C683 C682 1.392 . S
C683 C684 1.331 . S
C683 H701 0.932 . S
C684 C683 1.331 . S
C684 C685 1.336 . S
C685 C681 1.394 . S
C685 C684 1.336 . S
C685 H700 0.929 . S
C686 C676 1.386 . S
C686 C679 1.357 . S
C686 H699 0.928 . S
H687 C663 0.931 . S
H688 C665 0.930 . S
H689 C667 0.929 . S
H690 C668 0.931 . S
H691 C670 0.930 . S
H692 C674 0.931 . S
H693 C672 0.931 . S
H694 C676 0.931 . S
H695 C677 0.929 . S
H696 C678 0.930 . S
H697 C681 0.930 . S
H698 C682 0.931 . S
H699 C686 0.928 . S
H700 C685 0.929 . S
H701 C683 0.932 . S
C702 C703 1.386 . S
C702 C704 1.397 . S
C702 H726 0.931 . S
C703 C702 1.386 . S
C703 C707 1.397 . S
C704 C702 1.397 . S
C704 C705 1.384 . S
C704 H727 0.930 . S
C705 C704 1.384 . S
C705 C706 1.377 . S
C705 C708 1.481 . S
C706 C705 1.377 . S
C706 C707 1.389 . S
C706 H728 0.929 . S
C707 C703 1.397 . S
C707 C706 1.389 . S
C707 H729 0.931 . S
C708 C705 1.481 . S
C708 C709 1.387 . S
C708 C713 1.390 . S
C709 C708 1.387 . S
C709 C710 1.401 . S
C709 H730 0.930 . S
C710 C709 1.401 . S
C710 C711 1.376 . S
C710 C719 1.511 . S
C711 C710 1.376 . S
C711 C712 1.392 . S
C711 H732 0.931 . S
C712 C711 1.392 . S
C712 C713 1.361 . S
C712 C714 1.500 . S
C713 C708 1.390 . S
C713 C712 1.361 . S
C713 H731 0.931 . S
C714 C712 1.500 . S
C714 C715 1.371 . S
C714 C716 1.365 . S
C715 C714 1.371 . S
C715 C725 1.386 . S
C715 H733 0.931 . S
C716 C714 1.365 . S
C716 C717 1.409 . S
C716 H734 0.929 . S
C717 C716 1.409 . S
C717 C718 1.380 . S
C717 H735 0.930 . S
C718 C717 1.380 . S
C718 C725 1.357 . S
C719 C710 1.511 . S
C719 C720 1.341 . S
C719 C721 1.371 . S
C720 C719 1.341 . S
C720 C724 1.394 . S
C720 H736 0.930 . S
C721 C719 1.371 . S
C721 C722 1.392 . S
C721 H737 0.931 . S
C722 C721 1.392 . S
C722 C723 1.331 . S
C722 H740 0.932 . S
C723 C722 1.331 . S
C723 C724 1.336 . S
C724 C720 1.394 . S
C724 C723 1.336 . S
C724 H739 0.929 . S
C725 C715 1.386 . S
C725 C718 1.357 . S
C725 H738 0.928 . S
H726 C702 0.931 . S
H727 C704 0.930 . S
H728 C706 0.929 . S
H729 C707 0.931 . S
H730 C709 0.930 . S
H731 C713 0.931 . S
H732 C711 0.931 . S
H733 C715 0.931 . S
H734 C716 0.929 . S
H735 C717 0.930 . S
H736 C720 0.930 . S
H737 C721 0.931 . S
H738 C725 0.928 . S
H739 C724 0.929 . S
H740 C722 0.932 . S
C741 C742 1.386 . S
C741 C743 1.397 . S
C741 H765 0.931 . S
C742 C741 1.386 . S
C742 C746 1.397 . S
C743 C741 1.397 . S
C743 C744 1.384 . S
C743 H766 0.930 . S
C744 C743 1.384 . S
C744 C745 1.377 . S
C744 C747 1.481 . S
C745 C744 1.377 . S
C745 C746 1.389 . S
C745 H767 0.929 . S
C746 C742 1.397 . S
C746 C745 1.389 . S
C746 H768 0.931 . S
C747 C744 1.481 . S
C747 C748 1.387 . S
C747 C752 1.390 . S
C748 C747 1.387 . S
C748 C749 1.401 . S
C748 H769 0.930 . S
C749 C748 1.401 . S
C749 C750 1.376 . S
C749 C758 1.511 . S
C750 C749 1.376 . S
C750 C751 1.392 . S
C750 H771 0.931 . S
C751 C750 1.392 . S
C751 C752 1.361 . S
C751 C753 1.500 . S
C752 C747 1.390 . S
C752 C751 1.361 . S
C752 H770 0.931 . S
C753 C751 1.500 . S
C753 C754 1.371 . S
C753 C755 1.365 . S
C754 C753 1.371 . S
C754 C764 1.386 . S
C754 H772 0.931 . S
C755 C753 1.365 . S
C755 C756 1.409 . S
C755 H773 0.929 . S
C756 C755 1.409 . S
C756 C757 1.380 . S
C756 H774 0.930 . S
C757 C756 1.380 . S
C757 C764 1.357 . S
C758 C749 1.511 . S
C758 C759 1.341 . S
C758 C760 1.371 . S
C759 C758 1.341 . S
C759 C763 1.394 . S
C759 H775 0.930 . S
C760 C758 1.371 . S
C760 C761 1.392 . S
C760 H776 0.931 . S
C761 C760 1.392 . S
C761 C762 1.331 . S
C761 H779 0.932 . S
C762 C761 1.331 . S
C762 C763 1.336 . S
C763 C759 1.394 . S
C763 C762 1.336 . S
C763 H778 0.929 . S
C764 C754 1.386 . S
C764 C757 1.357 . S
C764 H777 0.928 . S
H765 C741 0.931 . S
H766 C743 0.930 . S
H767 C745 0.929 . S
H768 C746 0.931 . S
H769 C748 0.930 . S
H770 C752 0.931 . S
H771 C750 0.931 . S
H772 C754 0.931 . S
H773 C755 0.929 . S
H774 C756 0.930 . S
H775 C759 0.930 . S
H776 C760 0.931 . S
H777 C764 0.928 . S
H778 C763 0.929 . S
H779 C761 0.932 . S
C780 C781 1.386 . S
C780 C782 1.397 . S
C780 H804 0.931 . S
C781 C780 1.386 . S
C781 C785 1.397 . S
C782 C780 1.397 . S
C782 C783 1.384 . S
C782 H805 0.930 . S
C783 C782 1.384 . S
C783 C784 1.377 . S
C783 C786 1.481 . S
C784 C783 1.377 . S
C784 C785 1.389 . S
C784 H806 0.929 . S
C785 C781 1.397 . S
C785 C784 1.389 . S
C785 H807 0.931 . S
C786 C783 1.481 . S
C786 C787 1.387 . S
C786 C791 1.390 . S
C787 C786 1.387 . S
C787 C788 1.401 . S
C787 H808 0.930 . S
C788 C787 1.401 . S
C788 C789 1.376 . S
C788 C797 1.511 . S
C789 C788 1.376 . S
C789 C790 1.392 . S
C789 H810 0.931 . S
C790 C789 1.392 . S
C790 C791 1.361 . S
C790 C792 1.500 . S
C791 C786 1.390 . S
C791 C790 1.361 . S
C791 H809 0.931 . S
C792 C790 1.500 . S
C792 C793 1.371 . S
C792 C794 1.365 . S
C793 C792 1.371 . S
C793 C803 1.386 . S
C793 H811 0.931 . S
C794 C792 1.365 . S
C794 C795 1.409 . S
C794 H812 0.929 . S
C795 C794 1.409 . S
C795 C796 1.380 . S
C795 H813 0.930 . S
C796 C795 1.380 . S
C796 C803 1.357 . S
C797 C788 1.511 . S
C797 C798 1.341 . S
C797 C799 1.371 . S
C798 C797 1.341 . S
C798 C802 1.394 . S
C798 H814 0.930 . S
C799 C797 1.371 . S
C799 C800 1.392 . S
C799 H815 0.931 . S
C800 C799 1.392 . S
C800 C801 1.331 . S
C800 H818 0.932 . S
C801 C800 1.331 . S
C801 C802 1.336 . S
C802 C798 1.394 . S
C802 C801 1.336 . S
C802 H817 0.929 . S
C803 C793 1.386 . S
C803 C796 1.357 . S
C803 H816 0.928 . S
H804 C780 0.931 . S
H805 C782 0.930 . S
H806 C784 0.929 . S
H807 C785 0.931 . S
H808 C787 0.930 . S
H809 C791 0.931 . S
H810 C789 0.931 . S
H811 C793 0.931 . S
H812 C794 0.929 . S
H813 C795 0.930 . S
H814 C798 0.930 . S
H815 C799 0.931 . S
H816 C803 0.928 . S
H817 C802 0.929 . S
H818 C800 0.932 . S
C819 C820 1.386 . S
C819 C821 1.397 . S
C819 H843 0.931 . S
C820 C819 1.386 . S
C820 C824 1.397 . S
C821 C819 1.397 . S
C821 C822 1.384 . S
C821 H844 0.930 . S
C822 C821 1.384 . S
C822 C823 1.377 . S
C822 C825 1.481 . S
C823 C822 1.377 . S
C823 C824 1.389 . S
C823 H845 0.929 . S
C824 C820 1.397 . S
C824 C823 1.389 . S
C824 H846 0.931 . S
C825 C822 1.481 . S
C825 C826 1.387 . S
C825 C830 1.390 . S
C826 C825 1.387 . S
C826 C827 1.401 . S
C826 H847 0.930 . S
C827 C826 1.401 . S
C827 C828 1.376 . S
C827 C836 1.511 . S
C828 C827 1.376 . S
C828 C829 1.392 . S
C828 H849 0.931 . S
C829 C828 1.392 . S
C829 C830 1.361 . S
C829 C831 1.500 . S
C830 C825 1.390 . S
C830 C829 1.361 . S
C830 H848 0.931 . S
C831 C829 1.500 . S
C831 C832 1.371 . S
C831 C833 1.365 . S
C832 C831 1.371 . S
C832 C842 1.386 . S
C832 H850 0.931 . S
C833 C831 1.365 . S
C833 C834 1.409 . S
C833 H851 0.929 . S
C834 C833 1.409 . S
C834 C835 1.380 . S
C834 H852 0.930 . S
C835 C834 1.380 . S
C835 C842 1.357 . S
C836 C827 1.511 . S
C836 C837 1.341 . S
C836 C838 1.371 . S
C837 C836 1.341 . S
C837 C841 1.394 . S
C837 H853 0.930 . S
C838 C836 1.371 . S
C838 C839 1.392 . S
C838 H854 0.931 . S
C839 C838 1.392 . S
C839 C840 1.331 . S
C839 H857 0.932 . S
C840 C839 1.331 . S
C840 C841 1.336 . S
C841 C837 1.394 . S
C841 C840 1.336 . S
C841 H856 0.929 . S
C842 C832 1.386 . S
C842 C835 1.357 . S
C842 H855 0.928 . S
H843 C819 0.931 . S
H844 C821 0.930 . S
H845 C823 0.929 . S
H846 C824 0.931 . S
H847 C826 0.930 . S
H848 C830 0.931 . S
H849 C828 0.931 . S
H850 C832 0.931 . S
H851 C833 0.929 . S
H852 C834 0.930 . S
H853 C837 0.930 . S
H854 C838 0.931 . S
H855 C842 0.928 . S
H856 C841 0.929 . S
H857 C839 0.932 . S
C858 C859 1.386 . S
C858 C860 1.397 . S
C858 H882 0.931 . S
C859 C858 1.386 . S
C859 C863 1.397 . S
C860 C858 1.397 . S
C860 C861 1.384 . S
C860 H883 0.930 . S
C861 C860 1.384 . S
C861 C862 1.377 . S
C861 C864 1.481 . S
C862 C861 1.377 . S
C862 C863 1.389 . S
C862 H884 0.929 . S
C863 C859 1.397 . S
C863 C862 1.389 . S
C863 H885 0.931 . S
C864 C861 1.481 . S
C864 C865 1.387 . S
C864 C869 1.390 . S
C865 C864 1.387 . S
C865 C866 1.401 . S
C865 H886 0.930 . S
C866 C865 1.401 . S
C866 C867 1.376 . S
C866 C875 1.511 . S
C867 C866 1.376 . S
C867 C868 1.392 . S
C867 H888 0.931 . S
C868 C867 1.392 . S
C868 C869 1.361 . S
C868 C870 1.500 . S
C869 C864 1.390 . S
C869 C868 1.361 . S
C869 H887 0.931 . S
C870 C868 1.500 . S
C870 C871 1.371 . S
C870 C872 1.365 . S
C871 C870 1.371 . S
C871 C881 1.386 . S
C871 H889 0.931 . S
C872 C870 1.365 . S
C872 C873 1.409 . S
C872 H890 0.929 . S
C873 C872 1.409 . S
C873 C874 1.380 . S
C873 H891 0.930 . S
C874 C873 1.380 . S
C874 C881 1.357 . S
C875 C866 1.511 . S
C875 C876 1.341 . S
C875 C877 1.371 . S
C876 C875 1.341 . S
C876 C880 1.394 . S
C876 H892 0.930 . S
C877 C875 1.371 . S
C877 C878 1.392 . S
C877 H893 0.931 . S
C878 C877 1.392 . S
C878 C879 1.331 . S
C878 H896 0.932 . S
C879 C878 1.331 . S
C879 C880 1.336 . S
C880 C876 1.394 . S
C880 C879 1.336 . S
C880 H895 0.929 . S
C881 C871 1.386 . S
C881 C874 1.357 . S
C881 H894 0.928 . S
H882 C858 0.931 . S
H883 C860 0.930 . S
H884 C862 0.929 . S
H885 C863 0.931 . S
H886 C865 0.930 . S
H887 C869 0.931 . S
H888 C867 0.931 . S
H889 C871 0.931 . S
H890 C872 0.929 . S
H891 C873 0.930 . S
H892 C876 0.930 . S
H893 C877 0.931 . S
H894 C881 0.928 . S
H895 C880 0.929 . S
H896 C878 0.932 . S
C897 C898 1.386 . S
C897 C899 1.397 . S
C897 H921 0.931 . S
C898 C897 1.386 . S
C898 C902 1.397 . S
C899 C897 1.397 . S
C899 C900 1.384 . S
C899 H922 0.930 . S
C900 C899 1.384 . S
C900 C901 1.377 . S
C900 C903 1.481 . S
C901 C900 1.377 . S
C901 C902 1.389 . S
C901 H923 0.929 . S
C902 C898 1.397 . S
C902 C901 1.389 . S
C902 H924 0.931 . S
C903 C900 1.481 . S
C903 C904 1.387 . S
C903 C908 1.390 . S
C904 C903 1.387 . S
C904 C905 1.401 . S
C904 H925 0.930 . S
C905 C904 1.401 . S
C905 C906 1.376 . S
C905 C914 1.511 . S
C906 C905 1.376 . S
C906 C907 1.392 . S
C906 H927 0.931 . S
C907 C906 1.392 . S
C907 C908 1.361 . S
C907 C909 1.500 . S
C908 C903 1.390 . S
C908 C907 1.361 . S
C908 H926 0.931 . S
C909 C907 1.500 . S
C909 C910 1.371 . S
C909 C911 1.365 . S
C910 C909 1.371 . S
C910 C920 1.386 . S
C910 H928 0.931 . S
C911 C909 1.365 . S
C911 C912 1.409 . S
C911 H929 0.929 . S
C912 C911 1.409 . S
C912 C913 1.380 . S
C912 H930 0.930 . S
C913 C912 1.380 . S
C913 C920 1.357 . S
C914 C905 1.511 . S
C914 C915 1.341 . S
C914 C916 1.371 . S
C915 C914 1.341 . S
C915 C919 1.394 . S
C915 H931 0.930 . S
C916 C914 1.371 . S
C916 C917 1.392 . S
C916 H932 0.931 . S
C917 C916 1.392 . S
C917 C918 1.331 . S
C917 H935 0.932 . S
C918 C917 1.331 . S
C918 C919 1.336 . S
C919 C915 1.394 . S
C919 C918 1.336 . S
C919 H934 0.929 . S
C920 C910 1.386 . S
C920 C913 1.357 . S
C920 H933 0.928 . S
H921 C897 0.931 . S
H922 C899 0.930 . S
H923 C901 0.929 . S
H924 C902 0.931 . S
H925 C904 0.930 . S
H926 C908 0.931 . S
H927 C906 0.931 . S
H928 C910 0.931 . S
H929 C911 0.929 . S
H930 C912 0.930 . S
H931 C915 0.930 . S
H932 C916 0.931 . S
H933 C920 0.928 . S
H934 C919 0.929 . S
H935 C917 0.932 . S
C936 O962 1.283 . S
C936 O980 1.283 . S
C937 O963 1.283 . S
C937 O978 1.283 . S
C938 O964 1.283 . S
C938 O981 1.283 . S
C939 O965 1.283 . S
C939 O979 1.283 . S
C940 O966 1.283 . S
C940 O975 1.283 . S
C941 O967 1.283 . S
C941 O977 1.283 . S
C942 O968 1.283 . S
C942 O974 1.283 . S
C943 O969 1.283 . S
C943 O976 1.283 . S
C944 O970 1.283 . S
C944 O985 1.283 . S
C945 O971 1.283 . S
C945 O983 1.283 . S
C946 O972 1.283 . S
C946 O984 1.283 . S
C947 O973 1.283 . S
C947 O982 1.283 . S
Eu948 O949 2.370 1_455 S
Eu948 O950 2.370 . S
Eu948 O953 2.370 1_455 S
Eu948 O954 2.370 . S
Eu948 O962 2.363 . S
Eu948 O963 2.363 . S
Eu948 O976 2.363 . S
Eu948 O977 2.363 1_455 S
O949 Eu948 2.370 1_655 S
O949 Eu951 2.370 1_565 S
O949 Eu956 2.370 1_665 S
O950 Eu948 2.370 . S
O950 Eu952 2.370 1_565 S
O950 Eu955 2.370 1_565 S
Eu951 O949 2.370 1_545 S
Eu951 O953 2.370 1_545 S
Eu951 O957 2.370 . S
Eu951 O958 2.370 . S
Eu951 O966 2.363 . S
Eu951 O967 2.363 1_545 S
Eu951 O982 2.363 . S
Eu951 O983 2.363 . S
Eu952 O950 2.370 1_545 S
Eu952 O954 2.370 1_545 S
Eu952 O959 2.370 . S
Eu952 O960 2.370 . S
Eu952 O968 2.363 . S
Eu952 O969 2.363 1_545 S
Eu952 O984 2.363 . S
Eu952 O985 2.363 . S
O953 Eu948 2.370 1_655 S
O953 Eu951 2.370 1_565 S
O953 Eu955 2.370 1_665 S
O954 Eu948 2.370 . S
O954 Eu952 2.370 1_565 S
O954 Eu956 2.370 1_565 S
Eu955 O950 2.370 1_545 S
Eu955 O953 2.370 1_445 S
Eu955 O957 2.370 1_455 S
Eu955 O960 2.370 . S
Eu955 O972 2.363 . S
Eu955 O973 2.363 1_455 S
Eu955 O980 2.363 1_545 S
Eu955 O981 2.363 . S
Eu956 O949 2.370 1_445 S
Eu956 O954 2.370 1_545 S
Eu956 O958 2.370 1_455 S
Eu956 O959 2.370 . S
Eu956 O970 2.363 . S
Eu956 O971 2.363 1_455 S
Eu956 O978 2.363 1_545 S
Eu956 O979 2.363 . S
O957 Eu951 2.370 . S
O957 Eu955 2.370 1_655 S
O957 Eu961 2.370 1_655 S
O958 Eu951 2.370 . S
O958 Eu956 2.370 1_655 S
O958 Eu961 2.370 1_655 S
O959 Eu952 2.370 . S
O959 Eu956 2.370 . S
O959 Eu961 2.370 . S
O960 Eu952 2.370 . S
O960 Eu955 2.370 . S
O960 Eu961 2.370 . S
Eu961 O957 2.370 1_455 S
Eu961 O958 2.370 1_455 S
Eu961 O959 2.370 . S
Eu961 O960 2.370 . S
Eu961 O964 2.363 . S
Eu961 O965 2.363 . S
Eu961 O974 2.363 . S
Eu961 O975 2.363 1_455 S
O962 C936 1.283 . S
O962 Eu948 2.363 . S
O963 C937 1.283 . S
O963 Eu948 2.363 . S
O964 C938 1.283 . S
O964 Eu961 2.363 . S
O965 C939 1.283 . S
O965 Eu961 2.363 . S
O966 C940 1.283 . S
O966 Eu951 2.363 . S
O967 C941 1.283 . S
O967 Eu951 2.363 1_565 S
O968 C942 1.283 . S
O968 Eu952 2.363 . S
O969 C943 1.283 . S
O969 Eu952 2.363 1_565 S
O970 C944 1.283 . S
O970 Eu956 2.363 . S
O971 C945 1.283 . S
O971 Eu956 2.363 1_655 S
O972 C946 1.283 . S
O972 Eu955 2.363 . S
O973 C947 1.283 . S
O973 Eu955 2.363 1_655 S
O974 C942 1.283 . S
O974 Eu961 2.363 . S
O975 C940 1.283 . S
O975 Eu961 2.363 1_655 S
O976 C943 1.283 . S
O976 Eu948 2.363 . S
O977 C941 1.283 . S
O977 Eu948 2.363 1_655 S
O978 C937 1.283 . S
O978 Eu956 2.363 1_565 S
O979 C939 1.283 . S
O979 Eu956 2.363 . S
O980 C936 1.283 . S
O980 Eu955 2.363 1_565 S
O981 C938 1.283 . S
O981 Eu955 2.363 . S
O982 C947 1.283 . S
O982 Eu951 2.363 . S
O983 C945 1.283 . S
O983 Eu951 2.363 . S
O984 C946 1.283 . S
O984 Eu952 2.363 . S
O985 C944 1.283 . S
O985 Eu952 2.363 . S
C986 O1012 1.283 . S
C986 O1030 1.283 . S
C987 O1013 1.283 . S
C987 O1028 1.283 . S
C988 O1014 1.283 . S
C988 O1031 1.283 . S
C989 O1015 1.283 . S
C989 O1029 1.283 . S
C990 O1016 1.283 . S
C990 O1025 1.283 . S
C991 O1017 1.283 . S
C991 O1027 1.283 . S
C992 O1018 1.283 . S
C992 O1024 1.283 . S
C993 O1019 1.283 . S
C993 O1026 1.283 . S
C994 O1020 1.283 . S
C994 O1035 1.283 . S
C995 O1021 1.283 . S
C995 O1033 1.283 . S
C996 O1022 1.283 . S
C996 O1034 1.283 . S
C997 O1023 1.283 . S
C997 O1032 1.283 . S
Eu998 O999 2.371 . S
Eu998 O1000 2.369 1_545 S
Eu998 O1003 2.369 1_545 S
Eu998 O1004 2.371 . S
Eu998 O1012 2.361 1_545 S
Eu998 O1013 2.365 . S
Eu998 O1026 2.363 . S
Eu998 O1027 2.363 . S
O999 Eu998 2.371 . S
O999 Eu1001 2.370 . S
O999 Eu1006 2.369 . S
O1000 Eu998 2.369 1_565 S
O1000 Eu1002 2.370 1_565 S
O1000 Eu1005 2.371 . S
Eu1001 O999 2.370 . S
Eu1001 O1003 2.370 1_545 S
Eu1001 O1007 2.370 1_544 S
Eu1001 O1008 2.370 1_554 S
Eu1001 O1016 2.363 1_554 S
Eu1001 O1017 2.363 . S
Eu1001 O1032 2.363 1_545 S
Eu1001 O1033 2.363 . S
Eu1002 O1000 2.370 1_545 S
Eu1002 O1004 2.370 . S
Eu1002 O1009 2.370 1_554 S
Eu1002 O1010 2.370 1_544 S
Eu1002 O1018 2.363 1_554 S
Eu1002 O1019 2.363 . S
Eu1002 O1034 2.363 1_545 S
Eu1002 O1035 2.363 . S
O1003 Eu998 2.369 1_565 S
O1003 Eu1001 2.370 1_565 S
O1003 Eu1005 2.371 . S
O1004 Eu998 2.371 . S
O1004 Eu1002 2.370 . S
O1004 Eu1006 2.369 . S
Eu1005 O1000 2.371 . S
Eu1005 O1003 2.371 . S
Eu1005 O1007 2.369 1_554 S
Eu1005 O1010 2.369 1_554 S
Eu1005 O1022 2.363 . S
Eu1005 O1023 2.363 . S
Eu1005 O1030 2.365 . S
Eu1005 O1031 2.361 1_554 S
Eu1006 O999 2.369 . S
Eu1006 O1004 2.369 . S
Eu1006 O1008 2.371 1_554 S
Eu1006 O1009 2.371 1_554 S
Eu1006 O1020 2.363 . S
Eu1006 O1021 2.363 . S
Eu1006 O1028 2.361 . S
Eu1006 O1029 2.365 1_554 S
O1007 Eu1001 2.370 1_566 S
O1007 Eu1005 2.369 1_556 S
O1007 Eu1011 2.371 1_565 S
O1008 Eu1001 2.370 1_556 S
O1008 Eu1006 2.371 1_556 S
O1008 Eu1011 2.369 . S
O1009 Eu1002 2.370 1_556 S
O1009 Eu1006 2.371 1_556 S
O1009 Eu1011 2.369 . S
O1010 Eu1002 2.370 1_566 S
O1010 Eu1005 2.369 1_556 S
O1010 Eu1011 2.371 1_565 S
Eu1011 O1007 2.371 1_545 S
Eu1011 O1008 2.369 . S
Eu1011 O1009 2.369 . S
Eu1011 O1010 2.371 1_545 S
Eu1011 O1014 2.365 1_545 S
Eu1011 O1015 2.361 . S
Eu1011 O1024 2.363 . S
Eu1011 O1025 2.363 . S
O1012 C986 1.283 . S
O1012 Eu998 2.361 1_565 S
O1013 C987 1.283 . S
O1013 Eu998 2.365 . S
O1014 C988 1.283 . S
O1014 Eu1011 2.365 1_565 S
O1015 C989 1.283 . S
O1015 Eu1011 2.361 . S
O1016 C990 1.283 . S
O1016 Eu1001 2.363 1_556 S
O1017 C991 1.283 . S
O1017 Eu1001 2.363 . S
O1018 C992 1.283 . S
O1018 Eu1002 2.363 1_556 S
O1019 C993 1.283 . S
O1019 Eu1002 2.363 . S
O1020 C994 1.283 . S
O1020 Eu1006 2.363 . S
O1021 C995 1.283 . S
O1021 Eu1006 2.363 . S
O1022 C996 1.283 . S
O1022 Eu1005 2.363 . S
O1023 C997 1.283 . S
O1023 Eu1005 2.363 . S
O1024 C992 1.283 . S
O1024 Eu1011 2.363 . S
O1025 C990 1.283 . S
O1025 Eu1011 2.363 . S
O1026 C993 1.283 . S
O1026 Eu998 2.363 . S
O1027 C991 1.283 . S
O1027 Eu998 2.363 . S
O1028 C987 1.283 . S
O1028 Eu1006 2.361 . S
O1029 C989 1.283 . S
O1029 Eu1006 2.365 1_556 S
O1030 C986 1.283 . S
O1030 Eu1005 2.365 . S
O1031 C988 1.283 . S
O1031 Eu1005 2.361 1_556 S
O1032 C997 1.283 . S
O1032 Eu1001 2.363 1_565 S
O1033 C995 1.283 . S
O1033 Eu1001 2.363 . S
O1034 C996 1.283 . S
O1034 Eu1002 2.363 1_565 S
O1035 C994 1.283 . S
O1035 Eu1002 2.363 . S
C1036 O1062 1.283 . S
C1036 O1080 1.283 . S
C1037 O1063 1.283 . S
C1037 O1078 1.283 . S
C1038 O1064 1.283 . S
C1038 O1081 1.283 . S
C1039 O1065 1.283 . S
C1039 O1079 1.283 . S
C1040 O1066 1.283 . S
C1040 O1075 1.283 . S
C1041 O1067 1.283 . S
C1041 O1077 1.283 . S
C1042 O1068 1.283 . S
C1042 O1074 1.283 . S
C1043 O1069 1.283 . S
C1043 O1076 1.283 . S
C1044 O1070 1.283 . S
C1044 O1085 1.283 . S
C1045 O1071 1.283 . S
C1045 O1083 1.283 . S
C1046 O1072 1.283 . S
C1046 O1084 1.283 . S
C1047 O1073 1.283 . S
C1047 O1082 1.283 . S
Eu1048 O1049 2.370 1_454 S
Eu1048 O1050 2.370 . S
Eu1048 O1053 2.370 1_455 S
Eu1048 O1054 2.370 1_554 S
Eu1048 O1062 2.363 . S
Eu1048 O1063 2.363 1_554 S
Eu1048 O1076 2.363 . S
Eu1048 O1077 2.363 1_455 S
O1049 Eu1048 2.370 1_656 S
O1049 Eu1051 2.370 1_556 S
O1049 Eu1056 2.370 1_655 S
O1050 Eu1048 2.370 . S
O1050 Eu1052 2.370 . S
O1050 Eu1055 2.370 . S
Eu1051 O1049 2.370 1_554 S
Eu1051 O1053 2.370 . S
Eu1051 O1057 2.370 . S
Eu1051 O1058 2.370 1_554 S
Eu1051 O1066 2.363 . S
Eu1051 O1067 2.363 . S
Eu1051 O1082 2.363 . S
Eu1051 O1083 2.363 1_554 S
Eu1052 O1050 2.370 . S
Eu1052 O1054 2.370 1_554 S
Eu1052 O1059 2.370 1_554 S
Eu1052 O1060 2.370 . S
Eu1052 O1068 2.363 . S
Eu1052 O1069 2.363 . S
Eu1052 O1084 2.363 . S
Eu1052 O1085 2.363 1_554 S
O1053 Eu1048 2.370 1_655 S
O1053 Eu1051 2.370 . S
O1053 Eu1055 2.370 1_655 S
O1054 Eu1048 2.370 1_556 S
O1054 Eu1052 2.370 1_556 S
O1054 Eu1056 2.370 . S
Eu1055 O1050 2.370 . S
Eu1055 O1053 2.370 1_455 S
Eu1055 O1057 2.370 1_455 S
Eu1055 O1060 2.370 . S
Eu1055 O1072 2.363 . S
Eu1055 O1073 2.363 1_455 S
Eu1055 O1080 2.363 . S
Eu1055 O1081 2.363 . S
Eu1056 O1049 2.370 1_455 S
Eu1056 O1054 2.370 . S
Eu1056 O1058 2.370 1_455 S
Eu1056 O1059 2.370 . S
Eu1056 O1070 2.363 . S
Eu1056 O1071 2.363 1_455 S
Eu1056 O1078 2.363 . S
Eu1056 O1079 2.363 . S
O1057 Eu1051 2.370 . S
O1057 Eu1055 2.370 1_655 S
O1057 Eu1061 2.370 1_655 S
O1058 Eu1051 2.370 1_556 S
O1058 Eu1056 2.370 1_655 S
O1058 Eu1061 2.370 1_656 S
O1059 Eu1052 2.370 1_556 S
O1059 Eu1056 2.370 . S
O1059 Eu1061 2.370 1_556 S
O1060 Eu1052 2.370 . S
O1060 Eu1055 2.370 . S
O1060 Eu1061 2.370 . S
Eu1061 O1057 2.370 1_455 S
Eu1061 O1058 2.370 1_454 S
Eu1061 O1059 2.370 1_554 S
Eu1061 O1060 2.370 . S
Eu1061 O1064 2.363 . S
Eu1061 O1065 2.363 1_554 S
Eu1061 O1074 2.363 . S
Eu1061 O1075 2.363 1_455 S
O1062 C1036 1.283 . S
O1062 Eu1048 2.363 . S
O1063 C1037 1.283 . S
O1063 Eu1048 2.363 1_556 S
O1064 C1038 1.283 . S
O1064 Eu1061 2.363 . S
O1065 C1039 1.283 . S
O1065 Eu1061 2.363 1_556 S
O1066 C1040 1.283 . S
O1066 Eu1051 2.363 . S
O1067 C1041 1.283 . S
O1067 Eu1051 2.363 . S
O1068 C1042 1.283 . S
O1068 Eu1052 2.363 . S
O1069 C1043 1.283 . S
O1069 Eu1052 2.363 . S
O1070 C1044 1.283 . S
O1070 Eu1056 2.363 . S
O1071 C1045 1.283 . S
O1071 Eu1056 2.363 1_655 S
O1072 C1046 1.283 . S
O1072 Eu1055 2.363 . S
O1073 C1047 1.283 . S
O1073 Eu1055 2.363 1_655 S
O1074 C1042 1.283 . S
O1074 Eu1061 2.363 . S
O1075 C1040 1.283 . S
O1075 Eu1061 2.363 1_655 S
O1076 C1043 1.283 . S
O1076 Eu1048 2.363 . S
O1077 C1041 1.283 . S
O1077 Eu1048 2.363 1_655 S
O1078 C1037 1.283 . S
O1078 Eu1056 2.363 . S
O1079 C1039 1.283 . S
O1079 Eu1056 2.363 . S
O1080 C1036 1.283 . S
O1080 Eu1055 2.363 . S
O1081 C1038 1.283 . S
O1081 Eu1055 2.363 . S
O1082 C1047 1.283 . S
O1082 Eu1051 2.363 . S
O1083 C1045 1.283 . S
O1083 Eu1051 2.363 1_556 S
O1084 C1046 1.283 . S
O1084 Eu1052 2.363 . S
O1085 C1044 1.283 . S
O1085 Eu1052 2.363 1_556 S
C1086 O1112 1.283 . S
C1086 O1130 1.283 . S
C1087 O1113 1.283 . S
C1087 O1128 1.283 . S
C1088 O1114 1.283 . S
C1088 O1131 1.283 . S
C1089 O1115 1.283 . S
C1089 O1129 1.283 . S
C1090 O1116 1.283 . S
C1090 O1125 1.283 . S
C1091 O1117 1.283 . S
C1091 O1127 1.283 . S
C1092 O1118 1.283 . S
C1092 O1124 1.283 . S
C1093 O1119 1.283 . S
C1093 O1126 1.283 . S
C1094 O1120 1.283 . S
C1094 O1135 1.283 . S
C1095 O1121 1.283 . S
C1095 O1133 1.283 . S
C1096 O1122 1.283 . S
C1096 O1134 1.283 . S
C1097 O1123 1.283 . S
C1097 O1132 1.283 . S
Eu1098 O1099 2.370 . S
Eu1098 O1100 2.370 . S
Eu1098 O1103 2.370 . S
Eu1098 O1104 2.370 . S
Eu1098 O1112 2.363 . S
Eu1098 O1113 2.363 . S
Eu1098 O1126 2.363 . S
Eu1098 O1127 2.363 . S
O1099 Eu1098 2.370 . S
O1099 Eu1101 2.370 . S
O1099 Eu1106 2.370 . S
O1100 Eu1098 2.370 . S
O1100 Eu1102 2.370 . S
O1100 Eu1105 2.370 . S
Eu1101 O1099 2.370 . S
Eu1101 O1103 2.370 . S
Eu1101 O1107 2.370 1_554 S
Eu1101 O1108 2.370 1_554 S
Eu1101 O1116 2.363 1_554 S
Eu1101 O1117 2.363 . S
Eu1101 O1132 2.363 . S
Eu1101 O1133 2.363 . S
Eu1102 O1100 2.370 . S
Eu1102 O1104 2.370 . S
Eu1102 O1109 2.370 1_554 S
Eu1102 O1110 2.370 1_554 S
Eu1102 O1118 2.363 1_554 S
Eu1102 O1119 2.363 . S
Eu1102 O1134 2.363 . S
Eu1102 O1135 2.363 . S
O1103 Eu1098 2.370 . S
O1103 Eu1101 2.370 . S
O1103 Eu1105 2.370 . S
O1104 Eu1098 2.370 . S
O1104 Eu1102 2.370 . S
O1104 Eu1106 2.370 . S
Eu1105 O1100 2.370 . S
Eu1105 O1103 2.370 . S
Eu1105 O1107 2.370 1_554 S
Eu1105 O1110 2.370 1_554 S
Eu1105 O1122 2.363 . S
Eu1105 O1123 2.363 . S
Eu1105 O1130 2.363 . S
Eu1105 O1131 2.363 1_554 S
Eu1106 O1099 2.370 . S
Eu1106 O1104 2.370 . S
Eu1106 O1108 2.370 1_554 S
Eu1106 O1109 2.370 1_554 S
Eu1106 O1120 2.363 . S
Eu1106 O1121 2.363 . S
Eu1106 O1128 2.363 . S
Eu1106 O1129 2.363 1_554 S
O1107 Eu1101 2.370 1_556 S
O1107 Eu1105 2.370 1_556 S
O1107 Eu1111 2.370 . S
O1108 Eu1101 2.370 1_556 S
O1108 Eu1106 2.370 1_556 S
O1108 Eu1111 2.370 . S
O1109 Eu1102 2.370 1_556 S
O1109 Eu1106 2.370 1_556 S
O1109 Eu1111 2.370 . S
O1110 Eu1102 2.370 1_556 S
O1110 Eu1105 2.370 1_556 S
O1110 Eu1111 2.370 . S
Eu1111 O1107 2.370 . S
Eu1111 O1108 2.370 . S
Eu1111 O1109 2.370 . S
Eu1111 O1110 2.370 . S
Eu1111 O1114 2.363 . S
Eu1111 O1115 2.363 . S
Eu1111 O1124 2.363 . S
Eu1111 O1125 2.363 . S
O1112 C1086 1.283 . S
O1112 Eu1098 2.363 . S
O1113 C1087 1.283 . S
O1113 Eu1098 2.363 . S
O1114 C1088 1.283 . S
O1114 Eu1111 2.363 . S
O1115 C1089 1.283 . S
O1115 Eu1111 2.363 . S
O1116 C1090 1.283 . S
O1116 Eu1101 2.363 1_556 S
O1117 C1091 1.283 . S
O1117 Eu1101 2.363 . S
O1118 C1092 1.283 . S
O1118 Eu1102 2.363 1_556 S
O1119 C1093 1.283 . S
O1119 Eu1102 2.363 . S
O1120 C1094 1.283 . S
O1120 Eu1106 2.363 . S
O1121 C1095 1.283 . S
O1121 Eu1106 2.363 . S
O1122 C1096 1.283 . S
O1122 Eu1105 2.363 . S
O1123 C1097 1.283 . S
O1123 Eu1105 2.363 . S
O1124 C1092 1.283 . S
O1124 Eu1111 2.363 . S
O1125 C1090 1.283 . S
O1125 Eu1111 2.363 . S
O1126 C1093 1.283 . S
O1126 Eu1098 2.363 . S
O1127 C1091 1.283 . S
O1127 Eu1098 2.363 . S
O1128 C1087 1.283 . S
O1128 Eu1106 2.363 . S
O1129 C1089 1.283 . S
O1129 Eu1106 2.363 1_556 S
O1130 C1086 1.283 . S
O1130 Eu1105 2.363 . S
O1131 C1088 1.283 . S
O1131 Eu1105 2.363 1_556 S
O1132 C1097 1.283 . S
O1132 Eu1101 2.363 . S
O1133 C1095 1.283 . S
O1133 Eu1101 2.363 . S
O1134 C1096 1.283 . S
O1134 Eu1102 2.363 . S
O1135 C1094 1.283 . S
O1135 Eu1102 2.363 . S
C1136 O1162 1.283 . S
C1136 O1180 1.283 . S
C1137 O1163 1.283 . S
C1137 O1178 1.283 . S
C1138 O1164 1.283 . S
C1138 O1181 1.283 . S
C1139 O1165 1.283 . S
C1139 O1179 1.283 . S
C1140 O1166 1.283 . S
C1140 O1175 1.283 . S
C1141 O1167 1.283 . S
C1141 O1177 1.283 . S
C1142 O1168 1.283 . S
C1142 O1174 1.283 . S
C1143 O1169 1.283 . S
C1143 O1176 1.283 . S
C1144 O1170 1.283 . S
C1144 O1185 1.283 . S
C1145 O1171 1.283 . S
C1145 O1183 1.283 . S
C1146 O1172 1.283 . S
C1146 O1184 1.283 . S
C1147 O1173 1.283 . S
C1147 O1182 1.283 . S
Eu1148 O1149 2.370 1_455 S
Eu1148 O1150 2.370 . S
Eu1148 O1153 2.370 1_455 S
Eu1148 O1154 2.370 . S
Eu1148 O1162 2.363 . S
Eu1148 O1163 2.363 . S
Eu1148 O1176 2.363 . S
Eu1148 O1177 2.363 1_455 S
O1149 Eu1148 2.370 1_655 S
O1149 Eu1151 2.370 . S
O1149 Eu1156 2.370 1_655 S
O1150 Eu1148 2.370 . S
O1150 Eu1152 2.370 . S
O1150 Eu1155 2.370 . S
Eu1151 O1149 2.370 . S
Eu1151 O1153 2.370 . S
Eu1151 O1157 2.370 . S
Eu1151 O1158 2.370 . S
Eu1151 O1166 2.363 . S
Eu1151 O1167 2.363 . S
Eu1151 O1182 2.363 . S
Eu1151 O1183 2.363 . S
Eu1152 O1150 2.370 . S
Eu1152 O1154 2.370 . S
Eu1152 O1159 2.370 . S
Eu1152 O1160 2.370 . S
Eu1152 O1168 2.363 . S
Eu1152 O1169 2.363 . S
Eu1152 O1184 2.363 . S
Eu1152 O1185 2.363 . S
O1153 Eu1148 2.370 1_655 S
O1153 Eu1151 2.370 . S
O1153 Eu1155 2.370 1_655 S
O1154 Eu1148 2.370 . S
O1154 Eu1152 2.370 . S
O1154 Eu1156 2.370 . S
Eu1155 O1150 2.370 . S
Eu1155 O1153 2.370 1_455 S
Eu1155 O1157 2.370 1_455 S
Eu1155 O1160 2.370 . S
Eu1155 O1172 2.363 . S
Eu1155 O1173 2.363 1_455 S
Eu1155 O1180 2.363 . S
Eu1155 O1181 2.363 . S
Eu1156 O1149 2.370 1_455 S
Eu1156 O1154 2.370 . S
Eu1156 O1158 2.370 1_455 S
Eu1156 O1159 2.370 . S
Eu1156 O1170 2.363 . S
Eu1156 O1171 2.363 1_455 S
Eu1156 O1178 2.363 . S
Eu1156 O1179 2.363 . S
O1157 Eu1151 2.370 . S
O1157 Eu1155 2.370 1_655 S
O1157 Eu1161 2.370 1_655 S
O1158 Eu1151 2.370 . S
O1158 Eu1156 2.370 1_655 S
O1158 Eu1161 2.370 1_655 S
O1159 Eu1152 2.370 . S
O1159 Eu1156 2.370 . S
O1159 Eu1161 2.370 . S
O1160 Eu1152 2.370 . S
O1160 Eu1155 2.370 . S
O1160 Eu1161 2.370 . S
Eu1161 O1157 2.370 1_455 S
Eu1161 O1158 2.370 1_455 S
Eu1161 O1159 2.370 . S
Eu1161 O1160 2.370 . S
Eu1161 O1164 2.363 . S
Eu1161 O1165 2.363 . S
Eu1161 O1174 2.363 . S
Eu1161 O1175 2.363 1_455 S
O1162 C1136 1.283 . S
O1162 Eu1148 2.363 . S
O1163 C1137 1.283 . S
O1163 Eu1148 2.363 . S
O1164 C1138 1.283 . S
O1164 Eu1161 2.363 . S
O1165 C1139 1.283 . S
O1165 Eu1161 2.363 . S
O1166 C1140 1.283 . S
O1166 Eu1151 2.363 . S
O1167 C1141 1.283 . S
O1167 Eu1151 2.363 . S
O1168 C1142 1.283 . S
O1168 Eu1152 2.363 . S
O1169 C1143 1.283 . S
O1169 Eu1152 2.363 . S
O1170 C1144 1.283 . S
O1170 Eu1156 2.363 . S
O1171 C1145 1.283 . S
O1171 Eu1156 2.363 1_655 S
O1172 C1146 1.283 . S
O1172 Eu1155 2.363 . S
O1173 C1147 1.283 . S
O1173 Eu1155 2.363 1_655 S
O1174 C1142 1.283 . S
O1174 Eu1161 2.363 . S
O1175 C1140 1.283 . S
O1175 Eu1161 2.363 1_655 S
O1176 C1143 1.283 . S
O1176 Eu1148 2.363 . S
O1177 C1141 1.283 . S
O1177 Eu1148 2.363 1_655 S
O1178 C1137 1.283 . S
O1178 Eu1156 2.363 . S
O1179 C1139 1.283 . S
O1179 Eu1156 2.363 . S
O1180 C1136 1.283 . S
O1180 Eu1155 2.363 . S
O1181 C1138 1.283 . S
O1181 Eu1155 2.363 . S
O1182 C1147 1.283 . S
O1182 Eu1151 2.363 . S
O1183 C1145 1.283 . S
O1183 Eu1151 2.363 . S
O1184 C1146 1.283 . S
O1184 Eu1152 2.363 . S
O1185 C1144 1.283 . S
O1185 Eu1152 2.363 . S
C1186 O1212 1.283 . S
C1186 O1230 1.283 . S
C1187 O1213 1.283 . S
C1187 O1228 1.283 . S
C1188 O1214 1.283 . S
C1188 O1231 1.283 . S
C1189 O1215 1.283 . S
C1189 O1229 1.283 . S
C1190 O1216 1.283 . S
C1190 O1225 1.283 . S
C1191 O1217 1.283 . S
C1191 O1227 1.283 . S
C1192 O1218 1.283 . S
C1192 O1224 1.283 . S
C1193 O1219 1.283 . S
C1193 O1226 1.283 . S
C1194 O1220 1.283 . S
C1194 O1235 1.283 . S
C1195 O1221 1.283 . S
C1195 O1233 1.283 . S
C1196 O1222 1.283 . S
C1196 O1234 1.283 . S
C1197 O1223 1.283 . S
C1197 O1232 1.283 . S
Eu1198 O1199 2.370 . S
Eu1198 O1200 2.370 . S
Eu1198 O1203 2.370 . S
Eu1198 O1204 2.370 . S
Eu1198 O1212 2.363 . S
Eu1198 O1213 2.363 . S
Eu1198 O1226 2.363 . S
Eu1198 O1227 2.363 . S
O1199 Eu1198 2.370 . S
O1199 Eu1201 2.370 1_565 S
O1199 Eu1206 2.370 1_565 S
O1200 Eu1198 2.370 . S
O1200 Eu1202 2.370 1_565 S
O1200 Eu1205 2.370 1_565 S
Eu1201 O1199 2.370 1_545 S
Eu1201 O1203 2.370 1_545 S
Eu1201 O1207 2.370 . S
Eu1201 O1208 2.370 . S
Eu1201 O1216 2.363 . S
Eu1201 O1217 2.363 1_545 S
Eu1201 O1232 2.363 . S
Eu1201 O1233 2.363 . S
Eu1202 O1200 2.370 1_545 S
Eu1202 O1204 2.370 1_545 S
Eu1202 O1209 2.370 . S
Eu1202 O1210 2.370 . S
Eu1202 O1218 2.363 . S
Eu1202 O1219 2.363 1_545 S
Eu1202 O1234 2.363 . S
Eu1202 O1235 2.363 . S
O1203 Eu1198 2.370 . S
O1203 Eu1201 2.370 1_565 S
O1203 Eu1205 2.370 1_565 S
O1204 Eu1198 2.370 . S
O1204 Eu1202 2.370 1_565 S
O1204 Eu1206 2.370 1_565 S
Eu1205 O1200 2.370 1_545 S
Eu1205 O1203 2.370 1_545 S
Eu1205 O1207 2.370 . S
Eu1205 O1210 2.370 . S
Eu1205 O1222 2.363 . S
Eu1205 O1223 2.363 . S
Eu1205 O1230 2.363 1_545 S
Eu1205 O1231 2.363 . S
Eu1206 O1199 2.370 1_545 S
Eu1206 O1204 2.370 1_545 S
Eu1206 O1208 2.370 . S
Eu1206 O1209 2.370 . S
Eu1206 O1220 2.363 . S
Eu1206 O1221 2.363 . S
Eu1206 O1228 2.363 1_545 S
Eu1206 O1229 2.363 . S
O1207 Eu1201 2.370 . S
O1207 Eu1205 2.370 . S
O1207 Eu1211 2.370 . S
O1208 Eu1201 2.370 . S
O1208 Eu1206 2.370 . S
O1208 Eu1211 2.370 . S
O1209 Eu1202 2.370 . S
O1209 Eu1206 2.370 . S
O1209 Eu1211 2.370 . S
O1210 Eu1202 2.370 . S
O1210 Eu1205 2.370 . S
O1210 Eu1211 2.370 . S
Eu1211 O1207 2.370 . S
Eu1211 O1208 2.370 . S
Eu1211 O1209 2.370 . S
Eu1211 O1210 2.370 . S
Eu1211 O1214 2.363 . S
Eu1211 O1215 2.363 . S
Eu1211 O1224 2.363 . S
Eu1211 O1225 2.363 . S
O1212 C1186 1.283 . S
O1212 Eu1198 2.363 . S
O1213 C1187 1.283 . S
O1213 Eu1198 2.363 . S
O1214 C1188 1.283 . S
O1214 Eu1211 2.363 . S
O1215 C1189 1.283 . S
O1215 Eu1211 2.363 . S
O1216 C1190 1.283 . S
O1216 Eu1201 2.363 . S
O1217 C1191 1.283 . S
O1217 Eu1201 2.363 1_565 S
O1218 C1192 1.283 . S
O1218 Eu1202 2.363 . S
O1219 C1193 1.283 . S
O1219 Eu1202 2.363 1_565 S
O1220 C1194 1.283 . S
O1220 Eu1206 2.363 . S
O1221 C1195 1.283 . S
O1221 Eu1206 2.363 . S
O1222 C1196 1.283 . S
O1222 Eu1205 2.363 . S
O1223 C1197 1.283 . S
O1223 Eu1205 2.363 . S
O1224 C1192 1.283 . S
O1224 Eu1211 2.363 . S
O1225 C1190 1.283 . S
O1225 Eu1211 2.363 . S
O1226 C1193 1.283 . S
O1226 Eu1198 2.363 . S
O1227 C1191 1.283 . S
O1227 Eu1198 2.363 . S
O1228 C1187 1.283 . S
O1228 Eu1206 2.363 1_565 S
O1229 C1189 1.283 . S
O1229 Eu1206 2.363 . S
O1230 C1186 1.283 . S
O1230 Eu1205 2.363 1_565 S
O1231 C1188 1.283 . S
O1231 Eu1205 2.363 . S
O1232 C1197 1.283 . S
O1232 Eu1201 2.363 . S
O1233 C1195 1.283 . S
O1233 Eu1201 2.363 . S
O1234 C1196 1.283 . S
O1234 Eu1202 2.363 . S
O1235 C1194 1.283 . S
O1235 Eu1202 2.363 . S
H1236 C1248 0.930 . S
H1237 C1250 0.930 . S
H1238 C1251 0.930 . S
H1239 C1255 0.959 . S
H1240 C1255 0.959 . S
H1241 C1255 0.961 . S
H1242 C1256 0.960 . S
H1243 C1256 0.961 . S
H1244 C1256 0.959 . S
H1245 C1259 0.929 . S
H1246 C1260 0.931 . S
H1247 C1262 0.930 . S
C1248 H1236 0.930 . S
C1248 C1249 1.399 . S
C1248 C1253 1.399 . S
C1249 C1248 1.399 . S
C1249 C1250 1.376 . S
C1250 H1237 0.930 . S
C1250 C1249 1.376 . S
C1250 C1251 1.388 . S
C1251 H1238 0.930 . S
C1251 C1250 1.388 . S
C1251 C1252 1.390 . S
C1252 C1251 1.390 . S
C1252 C1253 1.394 . S
C1252 C1258 1.465 . S
C1253 C1248 1.399 . S
C1253 C1252 1.394 . S
C1253 C1254 1.516 . S
C1254 C1253 1.516 . S
C1254 C1255 1.502 . S
C1254 C1256 1.561 . S
C1254 C1257 1.526 . S
C1255 H1239 0.959 . S
C1255 H1240 0.959 . S
C1255 H1241 0.961 . S
C1255 C1254 1.502 . S
C1256 H1242 0.960 . S
C1256 H1243 0.961 . S
C1256 H1244 0.959 . S
C1256 C1254 1.561 . S
C1257 C1254 1.526 . S
C1257 C1258 1.396 . S
C1257 C1262 1.390 . S
C1258 C1252 1.465 . S
C1258 C1257 1.396 . S
C1258 C1259 1.399 . S
C1259 H1245 0.929 . S
C1259 C1258 1.399 . S
C1259 C1260 1.385 . S
C1260 H1246 0.931 . S
C1260 C1259 1.385 . S
C1260 C1261 1.389 . S
C1261 C1260 1.389 . S
C1261 C1262 1.387 . S
C1262 H1247 0.930 . S
C1262 C1257 1.390 . S
C1262 C1261 1.387 . S
H1263 C1275 0.930 . S
H1264 C1277 0.930 . S
H1265 C1278 0.930 . S
H1266 C1282 0.959 . S
H1267 C1282 0.959 . S
H1268 C1282 0.961 . S
H1269 C1283 0.960 . S
H1270 C1283 0.961 . S
H1271 C1283 0.959 . S
H1272 C1286 0.929 . S
H1273 C1287 0.931 . S
H1274 C1289 0.930 . S
C1275 H1263 0.930 . S
C1275 C1276 1.399 . S
C1275 C1280 1.399 . S
C1276 C1275 1.399 . S
C1276 C1277 1.376 . S
C1277 H1264 0.930 . S
C1277 C1276 1.376 . S
C1277 C1278 1.388 . S
C1278 H1265 0.930 . S
C1278 C1277 1.388 . S
C1278 C1279 1.390 . S
C1279 C1278 1.390 . S
C1279 C1280 1.394 . S
C1279 C1285 1.465 . S
C1280 C1275 1.399 . S
C1280 C1279 1.394 . S
C1280 C1281 1.516 . S
C1281 C1280 1.516 . S
C1281 C1282 1.502 . S
C1281 C1283 1.561 . S
C1281 C1284 1.526 . S
C1282 H1266 0.959 . S
C1282 H1267 0.959 . S
C1282 H1268 0.961 . S
C1282 C1281 1.502 . S
C1283 H1269 0.960 . S
C1283 H1270 0.961 . S
C1283 H1271 0.959 . S
C1283 C1281 1.561 . S
C1284 C1281 1.526 . S
C1284 C1285 1.396 . S
C1284 C1289 1.390 . S
C1285 C1279 1.465 . S
C1285 C1284 1.396 . S
C1285 C1286 1.399 . S
C1286 H1272 0.929 . S
C1286 C1285 1.399 . S
C1286 C1287 1.385 . S
C1287 H1273 0.931 . S
C1287 C1286 1.385 . S
C1287 C1288 1.389 . S
C1288 C1287 1.389 . S
C1288 C1289 1.387 . S
C1289 H1274 0.930 . S
C1289 C1284 1.390 . S
C1289 C1288 1.387 . S
H1290 C1302 0.930 . S
H1291 C1304 0.930 . S
H1292 C1305 0.930 . S
H1293 C1309 0.959 . S
H1294 C1309 0.959 . S
H1295 C1309 0.961 . S
H1296 C1310 0.960 . S
H1297 C1310 0.961 . S
H1298 C1310 0.959 . S
H1299 C1313 0.929 . S
H1300 C1314 0.931 . S
H1301 C1316 0.930 . S
C1302 H1290 0.930 . S
C1302 C1303 1.399 . S
C1302 C1307 1.399 . S
C1303 C1302 1.399 . S
C1303 C1304 1.376 . S
C1304 H1291 0.930 . S
C1304 C1303 1.376 . S
C1304 C1305 1.388 . S
C1305 H1292 0.930 . S
C1305 C1304 1.388 . S
C1305 C1306 1.390 . S
C1306 C1305 1.390 . S
C1306 C1307 1.394 . S
C1306 C1312 1.465 . S
C1307 C1302 1.399 . S
C1307 C1306 1.394 . S
C1307 C1308 1.516 . S
C1308 C1307 1.516 . S
C1308 C1309 1.502 . S
C1308 C1310 1.561 . S
C1308 C1311 1.526 . S
C1309 H1293 0.959 . S
C1309 H1294 0.959 . S
C1309 H1295 0.961 . S
C1309 C1308 1.502 . S
C1310 H1296 0.960 . S
C1310 H1297 0.961 . S
C1310 H1298 0.959 . S
C1310 C1308 1.561 . S
C1311 C1308 1.526 . S
C1311 C1312 1.396 . S
C1311 C1316 1.390 . S
C1312 C1306 1.465 . S
C1312 C1311 1.396 . S
C1312 C1313 1.399 . S
C1313 H1299 0.929 . S
C1313 C1312 1.399 . S
C1313 C1314 1.385 . S
C1314 H1300 0.931 . S
C1314 C1313 1.385 . S
C1314 C1315 1.389 . S
C1315 C1314 1.389 . S
C1315 C1316 1.387 . S
C1316 H1301 0.930 . S
C1316 C1311 1.390 . S
C1316 C1315 1.387 . S
H1317 C1329 0.930 . S
H1318 C1331 0.930 . S
H1319 C1332 0.930 . S
H1320 C1336 0.959 . S
H1321 C1336 0.959 . S
H1322 C1336 0.961 . S
H1323 C1337 0.960 . S
H1324 C1337 0.961 . S
H1325 C1337 0.959 . S
H1326 C1340 0.929 . S
H1327 C1341 0.931 . S
H1328 C1343 0.930 . S
C1329 H1317 0.930 . S
C1329 C1330 1.399 . S
C1329 C1334 1.399 . S
C1330 C1329 1.399 . S
C1330 C1331 1.376 . S
C1331 H1318 0.930 . S
C1331 C1330 1.376 . S
C1331 C1332 1.388 . S
C1332 H1319 0.930 . S
C1332 C1331 1.388 . S
C1332 C1333 1.390 . S
C1333 C1332 1.390 . S
C1333 C1334 1.394 . S
C1333 C1339 1.465 . S
C1334 C1329 1.399 . S
C1334 C1333 1.394 . S
C1334 C1335 1.516 . S
C1335 C1334 1.516 . S
C1335 C1336 1.502 . S
C1335 C1337 1.561 . S
C1335 C1338 1.526 . S
C1336 H1320 0.959 . S
C1336 H1321 0.959 . S
C1336 H1322 0.961 . S
C1336 C1335 1.502 . S
C1337 H1323 0.960 . S
C1337 H1324 0.961 . S
C1337 H1325 0.959 . S
C1337 C1335 1.561 . S
C1338 C1335 1.526 . S
C1338 C1339 1.396 . S
C1338 C1343 1.390 . S
C1339 C1333 1.465 . S
C1339 C1338 1.396 . S
C1339 C1340 1.399 . S
C1340 H1326 0.929 . S
C1340 C1339 1.399 . S
C1340 C1341 1.385 . S
C1341 H1327 0.931 . S
C1341 C1340 1.385 . S
C1341 C1342 1.389 . S
C1342 C1341 1.389 . S
C1342 C1343 1.387 . S
C1343 H1328 0.930 . S
C1343 C1338 1.390 . S
C1343 C1342 1.387 . S
H1344 C1356 0.930 . S
H1345 C1358 0.930 . S
H1346 C1359 0.930 . S
H1347 C1363 0.959 . S
H1348 C1363 0.959 . S
H1349 C1363 0.961 . S
H1350 C1364 0.960 . S
H1351 C1364 0.961 . S
H1352 C1364 0.959 . S
H1353 C1367 0.929 . S
H1354 C1368 0.931 . S
H1355 C1370 0.930 . S
C1356 H1344 0.930 . S
C1356 C1357 1.399 . S
C1356 C1361 1.399 . S
C1357 C1356 1.399 . S
C1357 C1358 1.376 . S
C1358 H1345 0.930 . S
C1358 C1357 1.376 . S
C1358 C1359 1.388 . S
C1359 H1346 0.930 . S
C1359 C1358 1.388 . S
C1359 C1360 1.390 . S
C1360 C1359 1.390 . S
C1360 C1361 1.394 . S
C1360 C1366 1.465 . S
C1361 C1356 1.399 . S
C1361 C1360 1.394 . S
C1361 C1362 1.516 . S
C1362 C1361 1.516 . S
C1362 C1363 1.502 . S
C1362 C1364 1.561 . S
C1362 C1365 1.526 . S
C1363 H1347 0.959 . S
C1363 H1348 0.959 . S
C1363 H1349 0.961 . S
C1363 C1362 1.502 . S
C1364 H1350 0.960 . S
C1364 H1351 0.961 . S
C1364 H1352 0.959 . S
C1364 C1362 1.561 . S
C1365 C1362 1.526 . S
C1365 C1366 1.396 . S
C1365 C1370 1.390 . S
C1366 C1360 1.465 . S
C1366 C1365 1.396 . S
C1366 C1367 1.399 . S
C1367 H1353 0.929 . S
C1367 C1366 1.399 . S
C1367 C1368 1.385 . S
C1368 H1354 0.931 . S
C1368 C1367 1.385 . S
C1368 C1369 1.389 . S
C1369 C1368 1.389 . S
C1369 C1370 1.387 . S
C1370 H1355 0.930 . S
C1370 C1365 1.390 . S
C1370 C1369 1.387 . S
H1371 C1383 0.930 . S
H1372 C1385 0.930 . S
H1373 C1386 0.930 . S
H1374 C1390 0.959 . S
H1375 C1390 0.959 . S
H1376 C1390 0.961 . S
H1377 C1391 0.960 . S
H1378 C1391 0.961 . S
H1379 C1391 0.959 . S
H1380 C1394 0.929 . S
H1381 C1395 0.931 . S
H1382 C1397 0.930 . S
C1383 H1371 0.930 . S
C1383 C1384 1.399 . S
C1383 C1388 1.399 . S
C1384 C1383 1.399 . S
C1384 C1385 1.376 . S
C1385 H1372 0.930 . S
C1385 C1384 1.376 . S
C1385 C1386 1.388 . S
C1386 H1373 0.930 . S
C1386 C1385 1.388 . S
C1386 C1387 1.390 . S
C1387 C1386 1.390 . S
C1387 C1388 1.394 . S
C1387 C1393 1.465 . S
C1388 C1383 1.399 . S
C1388 C1387 1.394 . S
C1388 C1389 1.516 . S
C1389 C1388 1.516 . S
C1389 C1390 1.502 . S
C1389 C1391 1.561 . S
C1389 C1392 1.526 . S
C1390 H1374 0.959 . S
C1390 H1375 0.959 . S
C1390 H1376 0.961 . S
C1390 C1389 1.502 . S
C1391 H1377 0.960 . S
C1391 H1378 0.961 . S
C1391 H1379 0.959 . S
C1391 C1389 1.561 . S
C1392 C1389 1.526 . S
C1392 C1393 1.396 . S
C1392 C1397 1.390 . S
C1393 C1387 1.465 . S
C1393 C1392 1.396 . S
C1393 C1394 1.399 . S
C1394 H1380 0.929 . S
C1394 C1393 1.399 . S
C1394 C1395 1.385 . S
C1395 H1381 0.931 . S
C1395 C1394 1.385 . S
C1395 C1396 1.389 . S
C1396 C1395 1.389 . S
C1396 C1397 1.387 . S
C1397 H1382 0.930 . S
C1397 C1392 1.390 . S
C1397 C1396 1.387 . S
H1398 C1410 0.930 . S
H1399 C1412 0.930 . S
H1400 C1413 0.930 . S
H1401 C1417 0.959 . S
H1402 C1417 0.959 . S
H1403 C1417 0.961 . S
H1404 C1418 0.960 . S
H1405 C1418 0.961 . S
H1406 C1418 0.959 . S
H1407 C1421 0.929 . S
H1408 C1422 0.931 . S
H1409 C1424 0.930 . S
C1410 H1398 0.930 . S
C1410 C1411 1.399 . S
C1410 C1415 1.399 . S
C1411 C1410 1.399 . S
C1411 C1412 1.376 . S
C1412 H1399 0.930 . S
C1412 C1411 1.376 . S
C1412 C1413 1.388 . S
C1413 H1400 0.930 . S
C1413 C1412 1.388 . S
C1413 C1414 1.390 . S
C1414 C1413 1.390 . S
C1414 C1415 1.394 . S
C1414 C1420 1.465 . S
C1415 C1410 1.399 . S
C1415 C1414 1.394 . S
C1415 C1416 1.516 . S
C1416 C1415 1.516 . S
C1416 C1417 1.502 . S
C1416 C1418 1.561 . S
C1416 C1419 1.526 . S
C1417 H1401 0.959 . S
C1417 H1402 0.959 . S
C1417 H1403 0.961 . S
C1417 C1416 1.502 . S
C1418 H1404 0.960 . S
C1418 H1405 0.961 . S
C1418 H1406 0.959 . S
C1418 C1416 1.561 . S
C1419 C1416 1.526 . S
C1419 C1420 1.396 . S
C1419 C1424 1.390 . S
C1420 C1414 1.465 . S
C1420 C1419 1.396 . S
C1420 C1421 1.399 . S
C1421 H1407 0.929 . S
C1421 C1420 1.399 . S
C1421 C1422 1.385 . S
C1422 H1408 0.931 . S
C1422 C1421 1.385 . S
C1422 C1423 1.389 . S
C1423 C1422 1.389 . S
C1423 C1424 1.387 . S
C1424 H1409 0.930 . S
C1424 C1419 1.390 . S
C1424 C1423 1.387 . S
H1425 C1437 0.930 . S
H1426 C1439 0.930 . S
H1427 C1440 0.930 . S
H1428 C1444 0.959 . S
H1429 C1444 0.959 . S
H1430 C1444 0.961 . S
H1431 C1445 0.960 . S
H1432 C1445 0.961 . S
H1433 C1445 0.959 . S
H1434 C1448 0.929 . S
H1435 C1449 0.931 . S
H1436 C1451 0.930 . S
C1437 H1425 0.930 . S
C1437 C1438 1.399 . S
C1437 C1442 1.399 . S
C1438 C1437 1.399 . S
C1438 C1439 1.376 . S
C1439 H1426 0.930 . S
C1439 C1438 1.376 . S
C1439 C1440 1.388 . S
C1440 H1427 0.930 . S
C1440 C1439 1.388 . S
C1440 C1441 1.390 . S
C1441 C1440 1.390 . S
C1441 C1442 1.394 . S
C1441 C1447 1.465 . S
C1442 C1437 1.399 . S
C1442 C1441 1.394 . S
C1442 C1443 1.516 . S
C1443 C1442 1.516 . S
C1443 C1444 1.502 . S
C1443 C1445 1.561 . S
C1443 C1446 1.526 . S
C1444 H1428 0.959 . S
C1444 H1429 0.959 . S
C1444 H1430 0.961 . S
C1444 C1443 1.502 . S
C1445 H1431 0.960 . S
C1445 H1432 0.961 . S
C1445 H1433 0.959 . S
C1445 C1443 1.561 . S
C1446 C1443 1.526 . S
C1446 C1447 1.396 . S
C1446 C1451 1.390 . S
C1447 C1441 1.465 . S
C1447 C1446 1.396 . S
C1447 C1448 1.399 . S
C1448 H1434 0.929 . S
C1448 C1447 1.399 . S
C1448 C1449 1.385 . S
C1449 H1435 0.931 . S
C1449 C1448 1.385 . S
C1449 C1450 1.389 . S
C1450 C1449 1.389 . S
C1450 C1451 1.387 . S
C1451 H1436 0.930 . S
C1451 C1446 1.390 . S
C1451 C1450 1.387 . S
H1452 C1464 0.930 . S
H1453 C1466 0.930 . S
H1454 C1467 0.930 . S
H1455 C1471 0.959 . S
H1456 C1471 0.959 . S
H1457 C1471 0.961 . S
H1458 C1472 0.960 . S
H1459 C1472 0.961 . S
H1460 C1472 0.959 . S
H1461 C1475 0.929 . S
H1462 C1476 0.931 . S
H1463 C1478 0.930 . S
C1464 H1452 0.930 . S
C1464 C1465 1.399 . S
C1464 C1469 1.399 . S
C1465 C1464 1.399 . S
C1465 C1466 1.376 . S
C1466 H1453 0.930 . S
C1466 C1465 1.376 . S
C1466 C1467 1.388 . S
C1467 H1454 0.930 . S
C1467 C1466 1.388 . S
C1467 C1468 1.390 . S
C1468 C1467 1.390 . S
C1468 C1469 1.394 . S
C1468 C1474 1.465 . S
C1469 C1464 1.399 . S
C1469 C1468 1.394 . S
C1469 C1470 1.516 . S
C1470 C1469 1.516 . S
C1470 C1471 1.502 . S
C1470 C1472 1.561 . S
C1470 C1473 1.526 . S
C1471 H1455 0.959 . S
C1471 H1456 0.959 . S
C1471 H1457 0.961 . S
C1471 C1470 1.502 . S
C1472 H1458 0.960 . S
C1472 H1459 0.961 . S
C1472 H1460 0.959 . S
C1472 C1470 1.561 . S
C1473 C1470 1.526 . S
C1473 C1474 1.396 . S
C1473 C1478 1.390 . S
C1474 C1468 1.465 . S
C1474 C1473 1.396 . S
C1474 C1475 1.399 . S
C1475 H1461 0.929 . S
C1475 C1474 1.399 . S
C1475 C1476 1.385 . S
C1476 H1462 0.931 . S
C1476 C1475 1.385 . S
C1476 C1477 1.389 . S
C1477 C1476 1.389 . S
C1477 C1478 1.387 . S
C1478 H1463 0.930 . S
C1478 C1473 1.390 . S
C1478 C1477 1.387 . S
H1479 C1491 0.930 . S
H1480 C1493 0.930 . S
H1481 C1494 0.930 . S
H1482 C1498 0.959 . S
H1483 C1498 0.959 . S
H1484 C1498 0.961 . S
H1485 C1499 0.960 . S
H1486 C1499 0.961 . S
H1487 C1499 0.959 . S
H1488 C1502 0.929 . S
H1489 C1503 0.931 . S
H1490 C1505 0.930 . S
C1491 H1479 0.930 . S
C1491 C1492 1.399 . S
C1491 C1496 1.399 . S
C1492 C1491 1.399 . S
C1492 C1493 1.376 . S
C1493 H1480 0.930 . S
C1493 C1492 1.376 . S
C1493 C1494 1.388 . S
C1494 H1481 0.930 . S
C1494 C1493 1.388 . S
C1494 C1495 1.390 . S
C1495 C1494 1.390 . S
C1495 C1496 1.394 . S
C1495 C1501 1.465 . S
C1496 C1491 1.399 . S
C1496 C1495 1.394 . S
C1496 C1497 1.516 . S
C1497 C1496 1.516 . S
C1497 C1498 1.502 . S
C1497 C1499 1.561 . S
C1497 C1500 1.526 . S
C1498 H1482 0.959 . S
C1498 H1483 0.959 . S
C1498 H1484 0.961 . S
C1498 C1497 1.502 . S
C1499 H1485 0.960 . S
C1499 H1486 0.961 . S
C1499 H1487 0.959 . S
C1499 C1497 1.561 . S
C1500 C1497 1.526 . S
C1500 C1501 1.396 . S
C1500 C1505 1.390 . S
C1501 C1495 1.465 . S
C1501 C1500 1.396 . S
C1501 C1502 1.399 . S
C1502 H1488 0.929 . S
C1502 C1501 1.399 . S
C1502 C1503 1.385 . S
C1503 H1489 0.931 . S
C1503 C1502 1.385 . S
C1503 C1504 1.389 . S
C1504 C1503 1.389 . S
C1504 C1505 1.387 . S
C1505 H1490 0.930 . S
C1505 C1500 1.390 . S
C1505 C1504 1.387 . S
H1506 C1518 0.930 . S
H1507 C1520 0.930 . S
H1508 C1521 0.930 . S
H1509 C1525 0.959 . S
H1510 C1525 0.959 . S
H1511 C1525 0.961 . S
H1512 C1526 0.960 . S
H1513 C1526 0.961 . S
H1514 C1526 0.959 . S
H1515 C1529 0.929 . S
H1516 C1530 0.931 . S
H1517 C1532 0.930 . S
C1518 H1506 0.930 . S
C1518 C1519 1.399 . S
C1518 C1523 1.399 . S
C1519 C1518 1.399 . S
C1519 C1520 1.376 . S
C1520 H1507 0.930 . S
C1520 C1519 1.376 . S
C1520 C1521 1.388 . S
C1521 H1508 0.930 . S
C1521 C1520 1.388 . S
C1521 C1522 1.390 . S
C1522 C1521 1.390 . S
C1522 C1523 1.394 . S
C1522 C1528 1.465 . S
C1523 C1518 1.399 . S
C1523 C1522 1.394 . S
C1523 C1524 1.516 . S
C1524 C1523 1.516 . S
C1524 C1525 1.502 . S
C1524 C1526 1.561 . S
C1524 C1527 1.526 . S
C1525 H1509 0.959 . S
C1525 H1510 0.959 . S
C1525 H1511 0.961 . S
C1525 C1524 1.502 . S
C1526 H1512 0.960 . S
C1526 H1513 0.961 . S
C1526 H1514 0.959 . S
C1526 C1524 1.561 . S
C1527 C1524 1.526 . S
C1527 C1528 1.396 . S
C1527 C1532 1.390 . S
C1528 C1522 1.465 . S
C1528 C1527 1.396 . S
C1528 C1529 1.399 . S
C1529 H1515 0.929 . S
C1529 C1528 1.399 . S
C1529 C1530 1.385 . S
C1530 H1516 0.931 . S
C1530 C1529 1.385 . S
C1530 C1531 1.389 . S
C1531 C1530 1.389 . S
C1531 C1532 1.387 . S
C1532 H1517 0.930 . S
C1532 C1527 1.390 . S
C1532 C1531 1.387 . S
H1533 C1545 0.930 . S
H1534 C1547 0.930 . S
H1535 C1548 0.930 . S
H1536 C1552 0.959 . S
H1537 C1552 0.959 . S
H1538 C1552 0.961 . S
H1539 C1553 0.960 . S
H1540 C1553 0.961 . S
H1541 C1553 0.959 . S
H1542 C1556 0.929 . S
H1543 C1557 0.931 . S
H1544 C1559 0.930 . S
C1545 H1533 0.930 . S
C1545 C1546 1.399 . S
C1545 C1550 1.399 . S
C1546 C1545 1.399 . S
C1546 C1547 1.376 . S
C1547 H1534 0.930 . S
C1547 C1546 1.376 . S
C1547 C1548 1.388 . S
C1548 H1535 0.930 . S
C1548 C1547 1.388 . S
C1548 C1549 1.390 . S
C1549 C1548 1.390 . S
C1549 C1550 1.394 . S
C1549 C1555 1.465 . S
C1550 C1545 1.399 . S
C1550 C1549 1.394 . S
C1550 C1551 1.516 . S
C1551 C1550 1.516 . S
C1551 C1552 1.502 . S
C1551 C1553 1.561 . S
C1551 C1554 1.526 . S
C1552 H1536 0.959 . S
C1552 H1537 0.959 . S
C1552 H1538 0.961 . S
C1552 C1551 1.502 . S
C1553 H1539 0.960 . S
C1553 H1540 0.961 . S
C1553 H1541 0.959 . S
C1553 C1551 1.561 . S
C1554 C1551 1.526 . S
C1554 C1555 1.396 . S
C1554 C1559 1.390 . S
C1555 C1549 1.465 . S
C1555 C1554 1.396 . S
C1555 C1556 1.399 . S
C1556 H1542 0.929 . S
C1556 C1555 1.399 . S
C1556 C1557 1.385 . S
C1557 H1543 0.931 . S
C1557 C1556 1.385 . S
C1557 C1558 1.389 . S
C1558 C1557 1.389 . S
C1558 C1559 1.387 . S
C1559 H1544 0.930 . S
C1559 C1554 1.390 . S
C1559 C1558 1.387 . S
H1560 C1572 0.930 . S
H1561 C1574 0.930 . S
H1562 C1575 0.930 . S
H1563 C1579 0.959 . S
H1564 C1579 0.959 . S
H1565 C1579 0.961 . S
H1566 C1580 0.960 . S
H1567 C1580 0.961 . S
H1568 C1580 0.959 . S
H1569 C1583 0.929 . S
H1570 C1584 0.931 . S
H1571 C1586 0.930 . S
C1572 H1560 0.930 . S
C1572 C1573 1.399 1_556 S
C1572 C1577 1.399 . S
C1573 C1572 1.399 1_554 S
C1573 C1574 1.376 . S
C1574 H1561 0.930 . S
C1574 C1573 1.376 . S
C1574 C1575 1.388 . S
C1575 H1562 0.930 . S
C1575 C1574 1.388 . S
C1575 C1576 1.390 . S
C1576 C1575 1.390 . S
C1576 C1577 1.394 1_554 S
C1576 C1582 1.465 . S
C1577 C1572 1.399 . S
C1577 C1576 1.394 1_556 S
C1577 C1578 1.516 . S
C1578 C1577 1.516 . S
C1578 C1579 1.502 . S
C1578 C1580 1.561 . S
C1578 C1581 1.526 . S
C1579 H1563 0.959 . S
C1579 H1564 0.959 . S
C1579 H1565 0.961 . S
C1579 C1578 1.502 . S
C1580 H1566 0.960 . S
C1580 H1567 0.961 . S
C1580 H1568 0.959 . S
C1580 C1578 1.561 . S
C1581 C1578 1.526 . S
C1581 C1582 1.396 1_556 S
C1581 C1586 1.390 . S
C1582 C1576 1.465 . S
C1582 C1581 1.396 1_554 S
C1582 C1583 1.399 . S
C1583 H1569 0.929 . S
C1583 C1582 1.399 . S
C1583 C1584 1.385 . S
C1584 H1570 0.931 . S
C1584 C1583 1.385 . S
C1584 C1585 1.389 . S
C1585 C1584 1.389 . S
C1585 C1586 1.387 1_554 S
C1586 H1571 0.930 . S
C1586 C1581 1.390 . S
C1586 C1585 1.387 1_556 S
H1587 C1599 0.930 . S
H1588 C1601 0.930 . S
H1589 C1602 0.930 . S
H1590 C1606 0.959 . S
H1591 C1606 0.959 . S
H1592 C1606 0.961 . S
H1593 C1607 0.960 . S
H1594 C1607 0.961 . S
H1595 C1607 0.959 . S
H1596 C1610 0.929 . S
H1597 C1611 0.931 . S
H1598 C1613 0.930 . S
C1599 H1587 0.930 . S
C1599 C1600 1.399 1_554 S
C1599 C1604 1.399 . S
C1600 C1599 1.399 1_556 S
C1600 C1601 1.376 . S
C1601 H1588 0.930 . S
C1601 C1600 1.376 . S
C1601 C1602 1.388 . S
C1602 H1589 0.930 . S
C1602 C1601 1.388 . S
C1602 C1603 1.390 . S
C1603 C1602 1.390 . S
C1603 C1604 1.394 1_556 S
C1603 C1609 1.465 . S
C1604 C1599 1.399 . S
C1604 C1603 1.394 1_554 S
C1604 C1605 1.516 . S
C1605 C1604 1.516 . S
C1605 C1606 1.502 . S
C1605 C1607 1.561 . S
C1605 C1608 1.526 . S
C1606 H1590 0.959 . S
C1606 H1591 0.959 . S
C1606 H1592 0.961 . S
C1606 C1605 1.502 . S
C1607 H1593 0.960 . S
C1607 H1594 0.961 . S
C1607 H1595 0.959 . S
C1607 C1605 1.561 . S
C1608 C1605 1.526 . S
C1608 C1609 1.396 1_554 S
C1608 C1613 1.390 . S
C1609 C1603 1.465 . S
C1609 C1608 1.396 1_556 S
C1609 C1610 1.399 . S
C1610 H1596 0.929 . S
C1610 C1609 1.399 . S
C1610 C1611 1.385 . S
C1611 H1597 0.931 . S
C1611 C1610 1.385 . S
C1611 C1612 1.389 . S
C1612 C1611 1.389 . S
C1612 C1613 1.387 1_556 S
C1613 H1598 0.930 . S
C1613 C1608 1.390 . S
C1613 C1612 1.387 1_554 S
H1614 C1626 0.930 . S
H1615 C1628 0.930 . S
H1616 C1629 0.930 . S
H1617 C1633 0.959 . S
H1618 C1633 0.959 . S
H1619 C1633 0.961 . S
H1620 C1634 0.960 . S
H1621 C1634 0.961 . S
H1622 C1634 0.959 . S
H1623 C1637 0.929 . S
H1624 C1638 0.931 . S
H1625 C1640 0.930 . S
C1626 H1614 0.930 . S
C1626 C1627 1.399 1_554 S
C1626 C1631 1.399 . S
C1627 C1626 1.399 1_556 S
C1627 C1628 1.376 . S
C1628 H1615 0.930 . S
C1628 C1627 1.376 . S
C1628 C1629 1.388 . S
C1629 H1616 0.930 . S
C1629 C1628 1.388 . S
C1629 C1630 1.390 . S
C1630 C1629 1.390 . S
C1630 C1631 1.394 1_556 S
C1630 C1636 1.465 . S
C1631 C1626 1.399 . S
C1631 C1630 1.394 1_554 S
C1631 C1632 1.516 . S
C1632 C1631 1.516 . S
C1632 C1633 1.502 . S
C1632 C1634 1.561 . S
C1632 C1635 1.526 . S
C1633 H1617 0.959 . S
C1633 H1618 0.959 . S
C1633 H1619 0.961 . S
C1633 C1632 1.502 . S
C1634 H1620 0.960 . S
C1634 H1621 0.961 . S
C1634 H1622 0.959 . S
C1634 C1632 1.561 . S
C1635 C1632 1.526 . S
C1635 C1636 1.396 1_554 S
C1635 C1640 1.390 . S
C1636 C1630 1.465 . S
C1636 C1635 1.396 1_556 S
C1636 C1637 1.399 . S
C1637 H1623 0.929 . S
C1637 C1636 1.399 . S
C1637 C1638 1.385 . S
C1638 H1624 0.931 . S
C1638 C1637 1.385 . S
C1638 C1639 1.389 . S
C1639 C1638 1.389 . S
C1639 C1640 1.387 1_556 S
C1640 H1625 0.930 . S
C1640 C1635 1.390 . S
C1640 C1639 1.387 1_554 S
H1641 C1653 0.930 . S
H1642 C1655 0.930 . S
H1643 C1656 0.930 . S
H1644 C1660 0.959 . S
H1645 C1660 0.959 . S
H1646 C1660 0.961 . S
H1647 C1661 0.960 . S
H1648 C1661 0.961 . S
H1649 C1661 0.959 . S
H1650 C1664 0.929 . S
H1651 C1665 0.931 . S
H1652 C1667 0.930 . S
C1653 H1641 0.930 . S
C1653 C1654 1.399 1_556 S
C1653 C1658 1.399 . S
C1654 C1653 1.399 1_554 S
C1654 C1655 1.376 . S
C1655 H1642 0.930 . S
C1655 C1654 1.376 . S
C1655 C1656 1.388 . S
C1656 H1643 0.930 . S
C1656 C1655 1.388 . S
C1656 C1657 1.390 . S
C1657 C1656 1.390 . S
C1657 C1658 1.394 1_554 S
C1657 C1663 1.465 . S
C1658 C1653 1.399 . S
C1658 C1657 1.394 1_556 S
C1658 C1659 1.516 . S
C1659 C1658 1.516 . S
C1659 C1660 1.502 . S
C1659 C1661 1.561 . S
C1659 C1662 1.526 . S
C1660 H1644 0.959 . S
C1660 H1645 0.959 . S
C1660 H1646 0.961 . S
C1660 C1659 1.502 . S
C1661 H1647 0.960 . S
C1661 H1648 0.961 . S
C1661 H1649 0.959 . S
C1661 C1659 1.561 . S
C1662 C1659 1.526 . S
C1662 C1663 1.396 1_556 S
C1662 C1667 1.390 . S
C1663 C1657 1.465 . S
C1663 C1662 1.396 1_554 S
C1663 C1664 1.399 . S
C1664 H1650 0.929 . S
C1664 C1663 1.399 . S
C1664 C1665 1.385 . S
C1665 H1651 0.931 . S
C1665 C1664 1.385 . S
C1665 C1666 1.389 . S
C1666 C1665 1.389 . S
C1666 C1667 1.387 1_554 S
C1667 H1652 0.930 . S
C1667 C1662 1.390 . S
C1667 C1666 1.387 1_556 S
H1668 C1680 0.930 . S
H1669 C1682 0.930 . S
H1670 C1683 0.930 . S
H1671 C1687 0.959 . S
H1672 C1687 0.959 . S
H1673 C1687 0.961 . S
H1674 C1688 0.960 . S
H1675 C1688 0.961 . S
H1676 C1688 0.959 . S
H1677 C1691 0.929 . S
H1678 C1692 0.931 . S
H1679 C1694 0.930 . S
C1680 H1668 0.930 . S
C1680 C1681 1.399 1_655 S
C1680 C1685 1.399 . S
C1681 C1680 1.399 1_455 S
C1681 C1682 1.376 . S
C1682 H1669 0.930 . S
C1682 C1681 1.376 . S
C1682 C1683 1.388 . S
C1683 H1670 0.930 . S
C1683 C1682 1.388 . S
C1683 C1684 1.390 . S
C1684 C1683 1.390 . S
C1684 C1685 1.394 1_455 S
C1684 C1690 1.465 . S
C1685 C1680 1.399 . S
C1685 C1684 1.394 1_655 S
C1685 C1686 1.516 . S
C1686 C1685 1.516 . S
C1686 C1687 1.502 . S
C1686 C1688 1.561 1_655 S
C1686 C1689 1.526 . S
C1687 H1671 0.959 . S
C1687 H1672 0.959 . S
C1687 H1673 0.961 . S
C1687 C1686 1.502 . S
C1688 H1674 0.960 . S
C1688 H1675 0.961 . S
C1688 H1676 0.959 . S
C1688 C1686 1.561 1_455 S
C1689 C1686 1.526 . S
C1689 C1690 1.396 1_655 S
C1689 C1694 1.390 . S
C1690 C1684 1.465 . S
C1690 C1689 1.396 1_455 S
C1690 C1691 1.399 . S
C1691 H1677 0.929 . S
C1691 C1690 1.399 . S
C1691 C1692 1.385 . S
C1692 H1678 0.931 . S
C1692 C1691 1.385 . S
C1692 C1693 1.389 . S
C1693 C1692 1.389 . S
C1693 C1694 1.387 1_455 S
C1694 H1679 0.930 . S
C1694 C1689 1.390 . S
C1694 C1693 1.387 1_655 S
H1695 C1707 0.930 . S
H1696 C1709 0.930 . S
H1697 C1710 0.930 . S
H1698 C1714 0.959 . S
H1699 C1714 0.959 . S
H1700 C1714 0.961 . S
H1701 C1715 0.960 . S
H1702 C1715 0.961 . S
H1703 C1715 0.959 . S
H1704 C1718 0.929 . S
H1705 C1719 0.931 . S
H1706 C1721 0.930 . S
C1707 H1695 0.930 . S
C1707 C1708 1.399 1_565 S
C1707 C1712 1.399 . S
C1708 C1707 1.399 1_545 S
C1708 C1709 1.376 . S
C1709 H1696 0.930 . S
C1709 C1708 1.376 . S
C1709 C1710 1.388 . S
C1710 H1697 0.930 . S
C1710 C1709 1.388 . S
C1710 C1711 1.390 . S
C1711 C1710 1.390 . S
C1711 C1712 1.394 1_545 S
C1711 C1717 1.465 . S
C1712 C1707 1.399 . S
C1712 C1711 1.394 1_565 S
C1712 C1713 1.516 . S
C1713 C1712 1.516 . S
C1713 C1714 1.502 . S
C1713 C1715 1.561 . S
C1713 C1716 1.526 . S
C1714 H1698 0.959 . S
C1714 H1699 0.959 . S
C1714 H1700 0.961 . S
C1714 C1713 1.502 . S
C1715 H1701 0.960 . S
C1715 H1702 0.961 . S
C1715 H1703 0.959 . S
C1715 C1713 1.561 . S
C1716 C1713 1.526 . S
C1716 C1717 1.396 1_565 S
C1716 C1721 1.390 . S
C1717 C1711 1.465 . S
C1717 C1716 1.396 1_545 S
C1717 C1718 1.399 . S
C1718 H1704 0.929 . S
C1718 C1717 1.399 . S
C1718 C1719 1.385 . S
C1719 H1705 0.931 . S
C1719 C1718 1.385 . S
C1719 C1720 1.389 . S
C1720 C1719 1.389 . S
C1720 C1721 1.387 1_545 S
C1721 H1706 0.930 . S
C1721 C1716 1.390 . S
C1721 C1720 1.387 1_565 S
H1722 C1734 0.930 . S
H1723 C1736 0.930 . S
H1724 C1737 0.930 . S
H1725 C1741 0.959 . S
H1726 C1741 0.959 . S
H1727 C1741 0.961 . S
H1728 C1742 0.954 1_655 S
H1729 C1742 0.961 1_655 S
H1730 C1742 0.959 . S
H1731 C1745 0.929 . S
H1732 C1746 0.931 . S
H1733 C1748 0.930 . S
C1734 H1722 0.930 . S
C1734 C1735 1.399 1_655 S
C1734 C1739 1.399 . S
C1735 C1734 1.399 1_455 S
C1735 C1736 1.376 . S
C1736 H1723 0.930 . S
C1736 C1735 1.376 . S
C1736 C1737 1.388 . S
C1737 H1724 0.930 . S
C1737 C1736 1.388 . S
C1737 C1738 1.390 . S
C1738 C1737 1.390 . S
C1738 C1739 1.394 1_455 S
C1738 C1744 1.465 . S
C1739 C1734 1.399 . S
C1739 C1738 1.394 1_655 S
C1739 C1740 1.516 . S
C1740 C1739 1.516 . S
C1740 C1741 1.502 . S
C1740 C1742 1.561 1_655 S
C1740 C1743 1.526 . S
C1741 H1725 0.959 . S
C1741 H1726 0.959 . S
C1741 H1727 0.961 . S
C1741 C1740 1.502 . S
C1742 H1728 0.954 1_455 S
C1742 H1729 0.961 1_455 S
C1742 H1730 0.959 . S
C1742 C1740 1.561 1_455 S
C1743 C1740 1.526 . S
C1743 C1744 1.396 1_655 S
C1743 C1748 1.390 . S
C1744 C1738 1.465 . S
C1744 C1743 1.396 1_455 S
C1744 C1745 1.399 . S
C1745 H1731 0.929 . S
C1745 C1744 1.399 . S
C1745 C1746 1.385 . S
C1746 H1732 0.931 . S
C1746 C1745 1.385 . S
C1746 C1747 1.389 . S
C1747 C1746 1.389 . S
C1747 C1748 1.387 1_455 S
C1748 H1733 0.930 . S
C1748 C1743 1.390 . S
C1748 C1747 1.387 1_655 S
H1749 C1761 0.930 . S
H1750 C1763 0.930 . S
H1751 C1764 0.930 . S
H1752 C1768 0.959 . S
H1753 C1768 0.959 . S
H1754 C1768 0.961 . S
H1755 C1769 0.960 . S
H1756 C1769 0.961 . S
H1757 C1769 0.959 . S
H1758 C1772 0.929 . S
H1759 C1773 0.931 . S
H1760 C1775 0.930 . S
C1761 H1749 0.930 . S
C1761 C1762 1.399 1_565 S
C1761 C1766 1.399 . S
C1762 C1761 1.399 1_545 S
C1762 C1763 1.376 . S
C1763 H1750 0.930 . S
C1763 C1762 1.376 . S
C1763 C1764 1.388 . S
C1764 H1751 0.930 . S
C1764 C1763 1.388 . S
C1764 C1765 1.390 . S
C1765 C1764 1.390 . S
C1765 C1766 1.394 1_545 S
C1765 C1771 1.465 . S
C1766 C1761 1.399 . S
C1766 C1765 1.394 1_565 S
C1766 C1767 1.516 . S
C1767 C1766 1.516 . S
C1767 C1768 1.502 . S
C1767 C1769 1.561 . S
C1767 C1770 1.526 . S
C1768 H1752 0.959 . S
C1768 H1753 0.959 . S
C1768 H1754 0.961 . S
C1768 C1767 1.502 . S
C1769 H1755 0.960 . S
C1769 H1756 0.961 . S
C1769 H1757 0.959 . S
C1769 C1767 1.561 . S
C1770 C1767 1.526 . S
C1770 C1771 1.396 1_565 S
C1770 C1775 1.390 . S
C1771 C1765 1.465 . S
C1771 C1770 1.396 1_545 S
C1771 C1772 1.399 . S
C1772 H1758 0.929 . S
C1772 C1771 1.399 . S
C1772 C1773 1.385 . S
C1773 H1759 0.931 . S
C1773 C1772 1.385 . S
C1773 C1774 1.389 . S
C1774 C1773 1.389 . S
C1774 C1775 1.387 1_545 S
C1775 H1760 0.930 . S
C1775 C1770 1.390 . S
C1775 C1774 1.387 1_565 S
H1776 C1788 0.930 1_455 S
H1777 C1790 0.930 . S
H1778 C1791 0.930 1_455 S
H1779 C1795 0.959 . S
H1780 C1795 0.959 . S
H1781 C1795 0.961 . S
H1782 C1796 0.960 . S
H1783 C1796 0.961 . S
H1784 C1796 0.959 . S
H1785 C1799 0.929 . S
H1786 C1800 0.931 . S
H1787 C1802 0.929 . S
C1788 H1776 0.930 1_655 S
C1788 C1789 1.399 1_655 S
C1788 C1793 1.399 . S
C1789 C1788 1.399 1_455 S
C1789 C1790 1.376 . S
C1790 H1777 0.930 . S
C1790 C1789 1.376 . S
C1790 C1791 1.388 1_455 S
C1791 H1778 0.930 1_655 S
C1791 C1790 1.388 1_655 S
C1791 C1792 1.389 . S
C1792 C1791 1.389 . S
C1792 C1793 1.394 . S
C1792 C1798 1.465 . S
C1793 C1788 1.399 . S
C1793 C1792 1.394 . S
C1793 C1794 1.516 . S
C1794 C1793 1.516 . S
C1794 C1795 1.502 1_655 S
C1794 C1796 1.561 . S
C1794 C1797 1.530 . S
C1795 H1779 0.959 . S
C1795 H1780 0.959 . S
C1795 H1781 0.961 . S
C1795 C1794 1.502 1_455 S
C1796 H1782 0.960 . S
C1796 H1783 0.961 . S
C1796 H1784 0.959 . S
C1796 C1794 1.561 . S
C1797 C1794 1.530 . S
C1797 C1798 1.395 . S
C1797 C1802 1.389 . S
C1798 C1792 1.465 . S
C1798 C1797 1.395 . S
C1798 C1799 1.398 1_655 S
C1799 H1785 0.929 . S
C1799 C1798 1.398 1_455 S
C1799 C1800 1.387 . S
C1800 H1786 0.931 . S
C1800 C1799 1.387 . S
C1800 C1801 1.389 . S
C1801 C1800 1.389 . S
C1801 C1802 1.386 1_455 S
C1802 H1787 0.929 . S
C1802 C1797 1.389 . S
C1802 C1801 1.386 1_655 S
H1803 C1815 0.930 . S
H1804 C1817 0.930 . S
H1805 C1818 0.930 . S
H1806 C1822 0.959 . S
H1807 C1822 0.959 . S
H1808 C1822 0.961 . S
H1809 C1823 0.960 . S
H1810 C1823 0.961 . S
H1811 C1823 0.959 . S
H1812 C1826 0.929 . S
H1813 C1827 0.931 . S
H1814 C1829 0.930 . S
C1815 H1803 0.930 . S
C1815 C1816 1.399 1_545 S
C1815 C1820 1.399 . S
C1816 C1815 1.399 1_565 S
C1816 C1817 1.376 . S
C1817 H1804 0.930 . S
C1817 C1816 1.376 . S
C1817 C1818 1.388 . S
C1818 H1805 0.930 . S
C1818 C1817 1.388 . S
C1818 C1819 1.390 . S
C1819 C1818 1.390 . S
C1819 C1820 1.394 1_565 S
C1819 C1825 1.465 . S
C1820 C1815 1.399 . S
C1820 C1819 1.394 1_545 S
C1820 C1821 1.516 . S
C1821 C1820 1.516 . S
C1821 C1822 1.502 . S
C1821 C1823 1.561 . S
C1821 C1824 1.526 . S
C1822 H1806 0.959 . S
C1822 H1807 0.959 . S
C1822 H1808 0.961 . S
C1822 C1821 1.502 . S
C1823 H1809 0.960 . S
C1823 H1810 0.961 . S
C1823 H1811 0.959 . S
C1823 C1821 1.561 . S
C1824 C1821 1.526 . S
C1824 C1825 1.396 1_545 S
C1824 C1829 1.390 . S
C1825 C1819 1.465 . S
C1825 C1824 1.396 1_565 S
C1825 C1826 1.399 . S
C1826 H1812 0.929 . S
C1826 C1825 1.399 . S
C1826 C1827 1.385 . S
C1827 H1813 0.931 . S
C1827 C1826 1.385 . S
C1827 C1828 1.389 . S
C1828 C1827 1.389 . S
C1828 C1829 1.387 1_565 S
C1829 H1814 0.930 . S
C1829 C1824 1.390 . S
C1829 C1828 1.387 1_545 S
H1830 C1842 0.930 . S
H1831 C1844 0.930 . S
H1832 C1845 0.930 . S
H1833 C1849 0.959 . S
H1834 C1849 0.959 . S
H1835 C1849 0.961 . S
H1836 C1850 0.960 . S
H1837 C1850 0.961 . S
H1838 C1850 0.959 . S
H1839 C1853 0.929 . S
H1840 C1854 0.931 . S
H1841 C1856 0.930 . S
C1842 H1830 0.930 . S
C1842 C1843 1.398 1_455 S
C1842 C1847 1.399 . S
C1843 C1842 1.398 1_655 S
C1843 C1844 1.379 . S
C1844 H1831 0.930 . S
C1844 C1843 1.379 . S
C1844 C1845 1.388 . S
C1845 H1832 0.930 . S
C1845 C1844 1.388 . S
C1845 C1846 1.390 . S
C1846 C1845 1.390 . S
C1846 C1847 1.394 1_655 S
C1846 C1852 1.465 . S
C1847 C1842 1.399 . S
C1847 C1846 1.394 1_455 S
C1847 C1848 1.516 . S
C1848 C1847 1.516 . S
C1848 C1849 1.502 . S
C1848 C1850 1.561 1_455 S
C1848 C1851 1.526 . S
C1849 H1833 0.959 . S
C1849 H1834 0.959 . S
C1849 H1835 0.961 . S
C1849 C1848 1.502 . S
C1850 H1836 0.960 . S
C1850 H1837 0.961 . S
C1850 H1838 0.959 . S
C1850 C1848 1.561 1_655 S
C1851 C1848 1.526 . S
C1851 C1852 1.396 1_455 S
C1851 C1856 1.390 . S
C1852 C1846 1.465 . S
C1852 C1851 1.396 1_655 S
C1852 C1853 1.399 . S
C1853 H1839 0.929 . S
C1853 C1852 1.399 . S
C1853 C1854 1.385 . S
C1854 H1840 0.931 . S
C1854 C1853 1.385 . S
C1854 C1855 1.383 1_655 S
C1855 C1854 1.383 1_455 S
C1855 C1856 1.391 . S
C1856 H1841 0.930 . S
C1856 C1851 1.390 . S
C1856 C1855 1.391 . S
H1857 C1869 0.930 . S
H1858 C1871 0.930 . S
H1859 C1872 0.930 . S
H1860 C1876 0.959 . S
H1861 C1876 0.959 . S
H1862 C1876 0.961 . S
H1863 C1877 0.960 . S
H1864 C1877 0.961 . S
H1865 C1877 0.959 . S
H1866 C1880 0.929 . S
H1867 C1881 0.931 . S
H1868 C1883 0.930 . S
C1869 H1857 0.930 . S
C1869 C1870 1.399 1_565 S
C1869 C1874 1.399 . S
C1870 C1869 1.399 1_545 S
C1870 C1871 1.376 . S
C1871 H1858 0.930 . S
C1871 C1870 1.376 . S
C1871 C1872 1.388 . S
C1872 H1859 0.930 . S
C1872 C1871 1.388 . S
C1872 C1873 1.390 . S
C1873 C1872 1.390 . S
C1873 C1874 1.394 1_545 S
C1873 C1879 1.465 . S
C1874 C1869 1.399 . S
C1874 C1873 1.394 1_565 S
C1874 C1875 1.516 . S
C1875 C1874 1.516 . S
C1875 C1876 1.502 . S
C1875 C1877 1.561 . S
C1875 C1878 1.526 . S
C1876 H1860 0.959 . S
C1876 H1861 0.959 . S
C1876 H1862 0.961 . S
C1876 C1875 1.502 . S
C1877 H1863 0.960 . S
C1877 H1864 0.961 . S
C1877 H1865 0.959 . S
C1877 C1875 1.561 . S
C1878 C1875 1.526 . S
C1878 C1879 1.396 1_565 S
C1878 C1883 1.390 . S
C1879 C1873 1.465 . S
C1879 C1878 1.396 1_545 S
C1879 C1880 1.399 . S
C1880 H1866 0.929 . S
C1880 C1879 1.399 . S
C1880 C1881 1.385 . S
C1881 H1867 0.931 . S
C1881 C1880 1.385 . S
C1881 C1882 1.389 . S
C1882 C1881 1.389 . S
C1882 C1883 1.387 1_545 S
C1883 H1868 0.930 . S
C1883 C1878 1.390 . S
C1883 C1882 1.387 1_565 S
H1884 C1896 0.930 . S
H1885 C1898 0.930 . S
H1886 C1899 0.930 . S
H1887 C1903 0.959 . S
H1888 C1903 0.959 . S
H1889 C1903 0.961 . S
H1890 C1904 0.960 . S
H1891 C1904 0.961 . S
H1892 C1904 0.959 . S
H1893 C1907 0.929 . S
H1894 C1908 0.931 . S
H1895 C1910 0.930 . S
C1896 H1884 0.930 . S
C1896 C1897 1.399 1_655 S
C1896 C1901 1.399 . S
C1897 C1896 1.399 1_455 S
C1897 C1898 1.376 . S
C1898 H1885 0.930 . S
C1898 C1897 1.376 . S
C1898 C1899 1.388 . S
C1899 H1886 0.930 . S
C1899 C1898 1.388 . S
C1899 C1900 1.390 . S
C1900 C1899 1.390 . S
C1900 C1901 1.394 1_455 S
C1900 C1906 1.465 . S
C1901 C1896 1.399 . S
C1901 C1900 1.394 1_655 S
C1901 C1902 1.516 . S
C1902 C1901 1.516 . S
C1902 C1903 1.502 . S
C1902 C1904 1.561 1_655 S
C1902 C1905 1.526 . S
C1903 H1887 0.959 . S
C1903 H1888 0.959 . S
C1903 H1889 0.961 . S
C1903 C1902 1.502 . S
C1904 H1890 0.960 . S
C1904 H1891 0.961 . S
C1904 H1892 0.959 . S
C1904 C1902 1.561 1_455 S
C1905 C1902 1.526 . S
C1905 C1906 1.396 1_655 S
C1905 C1910 1.390 . S
C1906 C1900 1.465 . S
C1906 C1905 1.396 1_455 S
C1906 C1907 1.399 . S
C1907 H1893 0.929 . S
C1907 C1906 1.399 . S
C1907 C1908 1.385 . S
C1908 H1894 0.931 . S
C1908 C1907 1.385 . S
C1908 C1909 1.389 . S
C1909 C1908 1.389 . S
C1909 C1910 1.387 1_455 S
C1910 H1895 0.930 . S
C1910 C1905 1.390 . S
C1910 C1909 1.387 1_655 S
H1911 C1923 0.930 . S
H1912 C1925 0.930 . S
H1913 C1926 0.930 . S
H1914 C1930 0.959 . S
H1915 C1930 0.959 . S
H1916 C1930 0.961 . S
H1917 C1931 0.960 . S
H1918 C1931 0.961 . S
H1919 C1931 0.959 . S
H1920 C1934 0.929 . S
H1921 C1935 0.931 . S
H1922 C1937 0.930 . S
C1923 H1911 0.930 . S
C1923 C1924 1.399 1_545 S
C1923 C1928 1.399 . S
C1924 C1923 1.399 1_565 S
C1924 C1925 1.376 . S
C1925 H1912 0.930 . S
C1925 C1924 1.376 . S
C1925 C1926 1.388 . S
C1926 H1913 0.930 . S
C1926 C1925 1.388 . S
C1926 C1927 1.390 . S
C1927 C1926 1.390 . S
C1927 C1928 1.394 1_565 S
C1927 C1933 1.465 . S
C1928 C1923 1.399 . S
C1928 C1927 1.394 1_545 S
C1928 C1929 1.516 . S
C1929 C1928 1.516 . S
C1929 C1930 1.502 . S
C1929 C1931 1.561 . S
C1929 C1932 1.526 . S
C1930 H1914 0.959 . S
C1930 H1915 0.959 . S
C1930 H1916 0.961 . S
C1930 C1929 1.502 . S
C1931 H1917 0.960 . S
C1931 H1918 0.961 . S
C1931 H1919 0.959 . S
C1931 C1929 1.561 . S
C1932 C1929 1.526 . S
C1932 C1933 1.396 1_545 S
C1932 C1937 1.390 . S
C1933 C1927 1.465 . S
C1933 C1932 1.396 1_565 S
C1933 C1934 1.399 . S
C1934 H1920 0.929 . S
C1934 C1933 1.399 . S
C1934 C1935 1.385 . S
C1935 H1921 0.931 . S
C1935 C1934 1.385 . S
C1935 C1936 1.389 . S
C1936 C1935 1.389 . S
C1936 C1937 1.387 1_565 S
C1937 H1922 0.930 . S
C1937 C1932 1.390 . S
C1937 C1936 1.387 1_545 S
H1938 C1950 0.930 . S
H1939 C1952 0.930 . S
H1940 C1953 0.930 . S
H1941 C1957 0.959 . S
H1942 C1957 0.959 . S
H1943 C1957 0.961 . S
H1944 C1958 0.960 . S
H1945 C1958 0.961 . S
H1946 C1958 0.959 . S
H1947 C1961 0.929 . S
H1948 C1962 0.931 . S
H1949 C1964 0.930 . S
C1950 H1938 0.930 . S
C1950 C1951 1.399 1_655 S
C1950 C1955 1.401 . S
C1951 C1950 1.399 1_455 S
C1951 C1952 1.376 . S
C1952 H1939 0.930 . S
C1952 C1951 1.376 . S
C1952 C1953 1.388 . S
C1953 H1940 0.930 . S
C1953 C1952 1.388 . S
C1953 C1954 1.390 . S
C1954 C1953 1.390 . S
C1954 C1955 1.388 1_455 S
C1954 C1960 1.465 . S
C1955 C1950 1.401 . S
C1955 C1954 1.388 1_655 S
C1955 C1956 1.519 . S
C1956 C1955 1.519 . S
C1956 C1957 1.502 . S
C1956 C1958 1.561 1_655 S
C1956 C1959 1.529 . S
C1957 H1941 0.959 . S
C1957 H1942 0.959 . S
C1957 H1943 0.961 . S
C1957 C1956 1.502 . S
C1958 H1944 0.960 . S
C1958 H1945 0.961 . S
C1958 H1946 0.959 . S
C1958 C1956 1.561 1_455 S
C1959 C1956 1.529 . S
C1959 C1960 1.391 1_655 S
C1959 C1964 1.391 . S
C1960 C1954 1.465 . S
C1960 C1959 1.391 1_455 S
C1960 C1961 1.399 . S
C1961 H1947 0.929 . S
C1961 C1960 1.399 . S
C1961 C1962 1.385 . S
C1962 H1948 0.931 . S
C1962 C1961 1.385 . S
C1962 C1963 1.389 . S
C1963 C1962 1.389 . S
C1963 C1964 1.387 1_455 S
C1964 H1949 0.930 . S
C1964 C1959 1.391 . S
C1964 C1963 1.387 1_655 S
H1965 C1977 0.930 . S
H1966 C1979 0.930 . S
H1967 C1980 0.930 . S
H1968 C1984 0.959 . S
H1969 C1984 0.959 . S
H1970 C1984 0.961 . S
H1971 C1985 0.960 . S
H1972 C1985 0.961 . S
H1973 C1985 0.959 . S
H1974 C1988 0.929 . S
H1975 C1989 0.931 . S
H1976 C1991 0.930 . S
C1977 H1965 0.930 . S
C1977 C1978 1.399 1_565 S
C1977 C1982 1.399 . S
C1978 C1977 1.399 1_545 S
C1978 C1979 1.376 . S
C1979 H1966 0.930 . S
C1979 C1978 1.376 . S
C1979 C1980 1.388 . S
C1980 H1967 0.930 . S
C1980 C1979 1.388 . S
C1980 C1981 1.390 . S
C1981 C1980 1.390 . S
C1981 C1982 1.394 1_545 S
C1981 C1987 1.465 . S
C1982 C1977 1.399 . S
C1982 C1981 1.394 1_565 S
C1982 C1983 1.516 . S
C1983 C1982 1.516 . S
C1983 C1984 1.502 . S
C1983 C1985 1.561 . S
C1983 C1986 1.526 . S
C1984 H1968 0.959 . S
C1984 H1969 0.959 . S
C1984 H1970 0.961 . S
C1984 C1983 1.502 . S
C1985 H1971 0.960 . S
C1985 H1972 0.961 . S
C1985 H1973 0.959 . S
C1985 C1983 1.561 . S
C1986 C1983 1.526 . S
C1986 C1987 1.396 1_565 S
C1986 C1991 1.390 . S
C1987 C1981 1.465 . S
C1987 C1986 1.396 1_545 S
C1987 C1988 1.399 . S
C1988 H1974 0.929 . S
C1988 C1987 1.399 . S
C1988 C1989 1.385 . S
C1989 H1975 0.931 . S
C1989 C1988 1.385 . S
C1989 C1990 1.389 . S
C1990 C1989 1.389 . S
C1990 C1991 1.387 1_545 S
C1991 H1976 0.930 . S
C1991 C1986 1.390 . S
C1991 C1990 1.387 1_565 S
H1992 C2004 0.931 . S
H1993 C2006 0.930 . S
H1994 C2007 0.930 . S
H1995 C2011 0.959 . S
H1996 C2011 0.959 . S
H1997 C2011 0.961 . S
H1998 C2012 0.960 . S
H1999 C2012 0.961 . S
H2000 C2012 0.959 . S
H2001 C2015 0.929 . S
H2002 C2016 0.931 . S
H2003 C2018 0.930 . S
C2004 H1992 0.931 . S
C2004 C2005 1.399 . S
C2004 C2009 1.399 . S
C2005 C2004 1.399 . S
C2005 C2006 1.376 . S
C2006 H1993 0.930 . S
C2006 C2005 1.376 . S
C2006 C2007 1.388 . S
C2007 H1994 0.930 . S
C2007 C2006 1.388 . S
C2007 C2008 1.390 . S
C2008 C2007 1.390 . S
C2008 C2009 1.394 . S
C2008 C2014 1.465 . S
C2009 C2004 1.399 . S
C2009 C2008 1.394 . S
C2009 C2010 1.516 . S
C2010 C2009 1.516 . S
C2010 C2011 1.502 1_455 S
C2010 C2012 1.561 . S
C2010 C2013 1.526 . S
C2011 H1995 0.959 . S
C2011 H1996 0.959 . S
C2011 H1997 0.961 . S
C2011 C2010 1.502 1_655 S
C2012 H1998 0.960 . S
C2012 H1999 0.961 . S
C2012 H2000 0.959 . S
C2012 C2010 1.561 . S
C2013 C2010 1.526 . S
C2013 C2014 1.396 . S
C2013 C2018 1.390 . S
C2014 C2008 1.465 . S
C2014 C2013 1.396 . S
C2014 C2015 1.399 . S
C2015 H2001 0.929 . S
C2015 C2014 1.399 . S
C2015 C2016 1.385 . S
C2016 H2002 0.931 . S
C2016 C2015 1.385 . S
C2016 C2017 1.389 . S
C2017 C2016 1.389 . S
C2017 C2018 1.387 . S
C2018 H2003 0.930 . S
C2018 C2013 1.390 . S
C2018 C2017 1.387 . S
H2019 C2031 0.930 . S
H2020 C2033 0.930 . S
H2021 C2034 0.930 . S
H2022 C2038 0.959 . S
H2023 C2038 0.959 . S
H2024 C2038 0.961 . S
H2025 C2039 0.960 . S
H2026 C2039 0.961 . S
H2027 C2039 0.959 . S
H2028 C2042 0.929 . S
H2029 C2043 0.931 . S
H2030 C2045 0.930 . S
C2031 H2019 0.930 . S
C2031 C2032 1.399 1_565 S
C2031 C2036 1.399 . S
C2032 C2031 1.399 1_545 S
C2032 C2033 1.376 . S
C2033 H2020 0.930 . S
C2033 C2032 1.376 . S
C2033 C2034 1.388 . S
C2034 H2021 0.930 . S
C2034 C2033 1.388 . S
C2034 C2035 1.390 . S
C2035 C2034 1.390 . S
C2035 C2036 1.394 1_545 S
C2035 C2041 1.465 . S
C2036 C2031 1.399 . S
C2036 C2035 1.394 1_565 S
C2036 C2037 1.516 . S
C2037 C2036 1.516 . S
C2037 C2038 1.502 . S
C2037 C2039 1.561 . S
C2037 C2040 1.526 . S
C2038 H2022 0.959 . S
C2038 H2023 0.959 . S
C2038 H2024 0.961 . S
C2038 C2037 1.502 . S
C2039 H2025 0.960 . S
C2039 H2026 0.961 . S
C2039 H2027 0.959 . S
C2039 C2037 1.561 . S
C2040 C2037 1.526 . S
C2040 C2041 1.396 1_565 S
C2040 C2045 1.390 . S
C2041 C2035 1.465 . S
C2041 C2040 1.396 1_545 S
C2041 C2042 1.399 . S
C2042 H2028 0.929 . S
C2042 C2041 1.399 . S
C2042 C2043 1.385 . S
C2043 H2029 0.931 . S
C2043 C2042 1.385 . S
C2043 C2044 1.389 . S
C2044 C2043 1.389 . S
C2044 C2045 1.387 1_545 S
C2045 H2030 0.930 . S
C2045 C2040 1.390 . S
C2045 C2044 1.387 1_565 S
H2046 C2058 0.930 . S
H2047 C2060 0.930 . S
H2048 C2061 0.930 . S
H2049 C2065 0.959 . S
H2050 C2065 0.959 . S
H2051 C2065 0.961 . S
H2052 C2066 0.960 . S
H2053 C2066 0.961 . S
H2054 C2066 0.959 1_655 S
H2055 C2069 0.929 . S
H2056 C2070 0.931 . S
H2057 C2072 0.930 . S
C2058 H2046 0.930 . S
C2058 C2059 1.382 1_455 S
C2058 C2063 1.399 . S
C2059 C2058 1.382 1_655 S
C2059 C2060 1.400 . S
C2060 H2047 0.930 . S
C2060 C2059 1.400 . S
C2060 C2061 1.388 . S
C2061 H2048 0.930 . S
C2061 C2060 1.388 . S
C2061 C2062 1.390 . S
C2062 C2061 1.390 . S
C2062 C2063 1.394 1_655 S
C2062 C2068 1.465 . S
C2063 C2058 1.399 . S
C2063 C2062 1.394 1_455 S
C2063 C2064 1.516 . S
C2064 C2063 1.516 . S
C2064 C2065 1.502 . S
C2064 C2066 1.561 . S
C2064 C2067 1.526 . S
C2065 H2049 0.959 . S
C2065 H2050 0.959 . S
C2065 H2051 0.961 . S
C2065 C2064 1.502 . S
C2066 H2052 0.960 . S
C2066 H2053 0.961 . S
C2066 H2054 0.959 1_455 S
C2066 C2064 1.561 . S
C2067 C2064 1.526 . S
C2067 C2068 1.396 1_455 S
C2067 C2072 1.390 . S
C2068 C2062 1.465 . S
C2068 C2067 1.396 1_655 S
C2068 C2069 1.399 . S
C2069 H2055 0.929 . S
C2069 C2068 1.399 . S
C2069 C2070 1.385 . S
C2070 H2056 0.931 . S
C2070 C2069 1.385 . S
C2070 C2071 1.395 . S
C2071 C2070 1.395 . S
C2071 C2072 1.382 1_655 S
C2072 H2057 0.930 . S
C2072 C2067 1.390 . S
C2072 C2071 1.382 1_455 S
H2073 C2085 0.930 . S
H2074 C2087 0.930 . S
H2075 C2088 0.930 . S
H2076 C2092 0.959 1_565 S
H2077 C2092 0.959 . S
H2078 C2092 0.961 . S
H2079 C2093 0.960 . S
H2080 C2093 0.961 . S
H2081 C2093 0.959 . S
H2082 C2096 0.929 . S
H2083 C2097 0.931 . S
H2084 C2099 0.930 . S
C2085 H2073 0.930 . S
C2085 C2086 1.401 . S
C2085 C2090 1.399 . S
C2086 C2085 1.401 . S
C2086 C2087 1.374 1_545 S
C2087 H2074 0.930 . S
C2087 C2086 1.374 1_565 S
C2087 C2088 1.388 . S
C2088 H2075 0.930 . S
C2088 C2087 1.388 . S
C2088 C2089 1.390 . S
C2089 C2088 1.390 . S
C2089 C2090 1.394 1_565 S
C2089 C2095 1.465 . S
C2090 C2085 1.399 . S
C2090 C2089 1.394 1_545 S
C2090 C2091 1.516 . S
C2091 C2090 1.516 . S
C2091 C2092 1.502 . S
C2091 C2093 1.561 . S
C2091 C2094 1.526 . S
C2092 H2076 0.959 1_545 S
C2092 H2077 0.959 . S
C2092 H2078 0.961 . S
C2092 C2091 1.502 . S
C2093 H2079 0.960 . S
C2093 H2080 0.961 . S
C2093 H2081 0.959 . S
C2093 C2091 1.561 . S
C2094 C2091 1.526 . S
C2094 C2095 1.396 1_545 S
C2094 C2099 1.390 . S
C2095 C2089 1.465 . S
C2095 C2094 1.396 1_565 S
C2095 C2096 1.399 . S
C2096 H2082 0.929 . S
C2096 C2095 1.399 . S
C2096 C2097 1.385 . S
C2097 H2083 0.931 . S
C2097 C2096 1.385 . S
C2097 C2098 1.397 . S
C2098 C2097 1.397 . S
C2098 C2099 1.380 1_565 S
C2099 H2084 0.930 . S
C2099 C2094 1.390 . S
C2099 C2098 1.380 1_545 S
H2100 C2112 0.930 . S
H2101 C2114 0.930 . S
H2102 C2115 0.930 . S
H2103 C2119 0.959 . S
H2104 C2119 0.959 . S
H2105 C2119 0.961 . S
H2106 C2120 0.960 . S
H2107 C2120 0.961 . S
H2108 C2120 0.959 . S
H2109 C2123 0.929 . S
H2110 C2124 0.931 . S
H2111 C2126 0.930 . S
C2112 H2100 0.930 . S
C2112 C2113 1.399 1_545 S
C2112 C2117 1.399 . S
C2113 C2112 1.399 1_565 S
C2113 C2114 1.376 . S
C2114 H2101 0.930 . S
C2114 C2113 1.376 . S
C2114 C2115 1.388 . S
C2115 H2102 0.930 . S
C2115 C2114 1.388 . S
C2115 C2116 1.390 . S
C2116 C2115 1.390 . S
C2116 C2117 1.394 1_565 S
C2116 C2122 1.465 . S
C2117 C2112 1.399 . S
C2117 C2116 1.394 1_545 S
C2117 C2118 1.516 . S
C2118 C2117 1.516 . S
C2118 C2119 1.502 . S
C2118 C2120 1.561 . S
C2118 C2121 1.526 . S
C2119 H2103 0.959 . S
C2119 H2104 0.959 . S
C2119 H2105 0.961 . S
C2119 C2118 1.502 . S
C2120 H2106 0.960 . S
C2120 H2107 0.961 . S
C2120 H2108 0.959 . S
C2120 C2118 1.561 . S
C2121 C2118 1.526 . S
C2121 C2122 1.396 1_545 S
C2121 C2126 1.390 . S
C2122 C2116 1.465 . S
C2122 C2121 1.396 1_565 S
C2122 C2123 1.399 . S
C2123 H2109 0.929 . S
C2123 C2122 1.399 . S
C2123 C2124 1.385 . S
C2124 H2110 0.931 . S
C2124 C2123 1.385 . S
C2124 C2125 1.389 . S
C2125 C2124 1.389 . S
C2125 C2126 1.387 1_565 S
C2126 H2111 0.930 . S
C2126 C2121 1.390 . S
C2126 C2125 1.387 1_545 S
H2127 C2139 0.933 . S
H2128 C2141 0.930 . S
H2129 C2142 0.930 . S
H2130 C2146 0.959 . S
H2131 C2146 0.959 . S
H2132 C2146 0.961 . S
H2133 C2147 0.960 . S
H2134 C2147 0.961 . S
H2135 C2147 0.959 . S
H2136 C2150 0.929 . S
H2137 C2151 0.931 . S
H2138 C2153 0.930 . S
C2139 H2127 0.933 . S
C2139 C2140 1.396 1_655 S
C2139 C2144 1.401 . S
C2140 C2139 1.396 1_455 S
C2140 C2141 1.378 . S
C2141 H2128 0.930 . S
C2141 C2140 1.378 . S
C2141 C2142 1.388 . S
C2142 H2129 0.930 . S
C2142 C2141 1.388 . S
C2142 C2143 1.390 1_455 S
C2143 C2142 1.390 1_655 S
C2143 C2144 1.394 . S
C2143 C2149 1.465 1_655 S
C2144 C2139 1.401 . S
C2144 C2143 1.394 . S
C2144 C2145 1.516 . S
C2145 C2144 1.516 . S
C2145 C2146 1.502 1_655 S
C2145 C2147 1.561 . S
C2145 C2148 1.526 . S
C2146 H2130 0.959 . S
C2146 H2131 0.959 . S
C2146 H2132 0.961 . S
C2146 C2145 1.502 1_455 S
C2147 H2133 0.960 . S
C2147 H2134 0.961 . S
C2147 H2135 0.959 . S
C2147 C2145 1.561 . S
C2148 C2145 1.526 . S
C2148 C2149 1.395 1_655 S
C2148 C2153 1.390 . S
C2149 C2143 1.465 1_455 S
C2149 C2148 1.395 1_455 S
C2149 C2150 1.400 . S
C2150 H2136 0.929 . S
C2150 C2149 1.400 . S
C2150 C2151 1.385 . S
C2151 H2137 0.931 . S
C2151 C2150 1.385 . S
C2151 C2152 1.389 . S
C2152 C2151 1.389 . S
C2152 C2153 1.387 1_455 S
C2153 H2138 0.930 . S
C2153 C2148 1.390 . S
C2153 C2152 1.387 1_655 S
H2154 C2166 0.930 . S
H2155 C2168 0.930 . S
H2156 C2169 0.930 . S
H2157 C2173 0.959 . S
H2158 C2173 0.959 . S
H2159 C2173 0.961 . S
H2160 C2174 0.960 . S
H2161 C2174 0.961 . S
H2162 C2174 0.959 . S
H2163 C2177 0.929 . S
H2164 C2178 0.931 . S
H2165 C2180 0.930 . S
C2166 H2154 0.930 . S
C2166 C2167 1.399 1_545 S
C2166 C2171 1.399 . S
C2167 C2166 1.399 1_565 S
C2167 C2168 1.376 . S
C2168 H2155 0.930 . S
C2168 C2167 1.376 . S
C2168 C2169 1.388 . S
C2169 H2156 0.930 . S
C2169 C2168 1.388 . S
C2169 C2170 1.390 . S
C2170 C2169 1.390 . S
C2170 C2171 1.394 1_565 S
C2170 C2176 1.465 . S
C2171 C2166 1.399 . S
C2171 C2170 1.394 1_545 S
C2171 C2172 1.516 . S
C2172 C2171 1.516 . S
C2172 C2173 1.502 . S
C2172 C2174 1.561 . S
C2172 C2175 1.526 . S
C2173 H2157 0.959 . S
C2173 H2158 0.959 . S
C2173 H2159 0.961 . S
C2173 C2172 1.502 . S
C2174 H2160 0.960 . S
C2174 H2161 0.961 . S
C2174 H2162 0.959 . S
C2174 C2172 1.561 . S
C2175 C2172 1.526 . S
C2175 C2176 1.396 1_545 S
C2175 C2180 1.390 . S
C2176 C2170 1.465 . S
C2176 C2175 1.396 1_565 S
C2176 C2177 1.399 . S
C2177 H2163 0.929 . S
C2177 C2176 1.399 . S
C2177 C2178 1.385 . S
C2178 H2164 0.931 . S
C2178 C2177 1.385 . S
C2178 C2179 1.389 . S
C2179 C2178 1.389 . S
C2179 C2180 1.387 1_565 S
C2180 H2165 0.930 . S
C2180 C2175 1.390 . S
C2180 C2179 1.387 1_545 S
H2181 C2193 0.930 . S
H2182 C2195 0.930 . S
H2183 C2196 0.930 . S
H2184 C2200 0.959 . S
H2185 C2200 0.959 . S
H2186 C2200 0.961 . S
H2187 C2201 0.960 . S
H2188 C2201 0.961 . S
H2189 C2201 0.959 . S
H2190 C2204 0.929 . S
H2191 C2205 0.931 . S
H2192 C2207 0.930 . S
C2193 H2181 0.930 . S
C2193 C2194 1.398 1_455 S
C2193 C2198 1.399 . S
C2194 C2193 1.398 1_655 S
C2194 C2195 1.378 . S
C2195 H2182 0.930 . S
C2195 C2194 1.378 . S
C2195 C2196 1.388 . S
C2196 H2183 0.930 . S
C2196 C2195 1.388 . S
C2196 C2197 1.390 . S
C2197 C2196 1.390 . S
C2197 C2198 1.394 1_655 S
C2197 C2203 1.465 . S
C2198 C2193 1.399 . S
C2198 C2197 1.394 1_455 S
C2198 C2199 1.516 . S
C2199 C2198 1.516 . S
C2199 C2200 1.502 . S
C2199 C2201 1.561 1_455 S
C2199 C2202 1.526 . S
C2200 H2184 0.959 . S
C2200 H2185 0.959 . S
C2200 H2186 0.961 . S
C2200 C2199 1.502 . S
C2201 H2187 0.960 . S
C2201 H2188 0.961 . S
C2201 H2189 0.959 . S
C2201 C2199 1.561 1_655 S
C2202 C2199 1.526 . S
C2202 C2203 1.396 1_455 S
C2202 C2207 1.390 . S
C2203 C2197 1.465 . S
C2203 C2202 1.396 1_655 S
C2203 C2204 1.399 . S
C2204 H2190 0.929 . S
C2204 C2203 1.399 . S
C2204 C2205 1.385 . S
C2205 H2191 0.931 . S
C2205 C2204 1.385 . S
C2205 C2206 1.383 1_655 S
C2206 C2205 1.383 1_455 S
C2206 C2207 1.391 . S
C2207 H2192 0.930 . S
C2207 C2202 1.390 . S
C2207 C2206 1.391 . S
H2208 C2220 0.930 . S
H2209 C2222 0.930 . S
H2210 C2223 0.930 . S
H2211 C2227 0.959 . S
H2212 C2227 0.959 . S
H2213 C2227 0.961 . S
H2214 C2228 0.960 . S
H2215 C2228 0.961 . S
H2216 C2228 0.959 . S
H2217 C2231 0.929 . S
H2218 C2232 0.931 . S
H2219 C2234 0.930 . S
C2220 H2208 0.930 . S
C2220 C2221 1.403 . S
C2220 C2225 1.399 . S
C2221 C2220 1.403 . S
C2221 C2222 1.374 1_565 S
C2222 H2209 0.930 . S
C2222 C2221 1.374 1_545 S
C2222 C2223 1.388 . S
C2223 H2210 0.930 . S
C2223 C2222 1.388 . S
C2223 C2224 1.386 1_545 S
C2224 C2223 1.386 1_565 S
C2224 C2225 1.399 . S
C2224 C2230 1.465 . S
C2225 C2220 1.399 . S
C2225 C2224 1.399 . S
C2225 C2226 1.516 . S
C2226 C2225 1.516 . S
C2226 C2227 1.502 1_565 S
C2226 C2228 1.561 . S
C2226 C2229 1.526 . S
C2227 H2211 0.959 . S
C2227 H2212 0.959 . S
C2227 H2213 0.961 . S
C2227 C2226 1.502 1_545 S
C2228 H2214 0.960 . S
C2228 H2215 0.961 . S
C2228 H2216 0.959 . S
C2228 C2226 1.561 . S
C2229 C2226 1.526 . S
C2229 C2230 1.398 . S
C2229 C2234 1.390 . S
C2230 C2224 1.465 . S
C2230 C2229 1.398 . S
C2230 C2231 1.397 1_565 S
C2231 H2217 0.929 . S
C2231 C2230 1.397 1_545 S
C2231 C2232 1.385 . S
C2232 H2218 0.931 . S
C2232 C2231 1.385 . S
C2232 C2233 1.390 . S
C2233 C2232 1.390 . S
C2233 C2234 1.386 1_545 S
C2234 H2219 0.930 . S
C2234 C2229 1.390 . S
C2234 C2233 1.386 1_565 S
H2235 C2247 0.930 . S
H2236 C2249 0.930 . S
H2237 C2250 0.930 . S
H2238 C2254 0.959 . S
H2239 C2254 0.959 . S
H2240 C2254 0.961 . S
H2241 C2255 0.960 . S
H2242 C2255 0.959 . S
H2243 C2255 0.959 . S
H2244 C2258 0.929 . S
H2245 C2259 0.931 . S
H2246 C2261 0.930 . S
C2247 H2235 0.930 . S
C2247 C2248 1.390 1_455 S
C2247 C2252 1.399 . S
C2248 C2247 1.390 1_655 S
C2248 C2249 1.390 . S
C2249 H2236 0.930 . S
C2249 C2248 1.390 . S
C2249 C2250 1.388 . S
C2250 H2237 0.930 . S
C2250 C2249 1.388 . S
C2250 C2251 1.390 . S
C2251 C2250 1.390 . S
C2251 C2252 1.394 1_655 S
C2251 C2257 1.465 . S
C2252 C2247 1.399 . S
C2252 C2251 1.394 1_455 S
C2252 C2253 1.516 . S
C2253 C2252 1.516 . S
C2253 C2254 1.502 . S
C2253 C2255 1.561 1_455 S
C2253 C2256 1.526 . S
C2254 H2238 0.959 . S
C2254 H2239 0.959 . S
C2254 H2240 0.961 . S
C2254 C2253 1.502 . S
C2255 H2241 0.960 . S
C2255 H2242 0.959 . S
C2255 H2243 0.959 . S
C2255 C2253 1.561 1_655 S
C2256 C2253 1.526 . S
C2256 C2257 1.396 1_455 S
C2256 C2261 1.390 . S
C2257 C2251 1.465 . S
C2257 C2256 1.396 1_655 S
C2257 C2258 1.399 . S
C2258 H2244 0.929 . S
C2258 C2257 1.399 . S
C2258 C2259 1.385 . S
C2259 H2245 0.931 . S
C2259 C2258 1.385 . S
C2259 C2260 1.391 1_655 S
C2260 C2259 1.391 1_455 S
C2260 C2261 1.385 . S
C2261 H2246 0.930 . S
C2261 C2256 1.390 . S
C2261 C2260 1.385 . S
H2262 C2274 0.930 . S
H2263 C2276 0.930 . S
H2264 C2277 0.930 . S
H2265 C2281 0.959 . S
H2266 C2281 0.959 . S
H2267 C2281 0.961 . S
H2268 C2282 0.960 . S
H2269 C2282 0.961 . S
H2270 C2282 0.959 . S
H2271 C2285 0.929 . S
H2272 C2286 0.931 . S
H2273 C2288 0.930 . S
C2274 H2262 0.930 . S
C2274 C2275 1.399 1_565 S
C2274 C2279 1.399 . S
C2275 C2274 1.399 1_545 S
C2275 C2276 1.376 . S
C2276 H2263 0.930 . S
C2276 C2275 1.376 . S
C2276 C2277 1.388 . S
C2277 H2264 0.930 . S
C2277 C2276 1.388 . S
C2277 C2278 1.390 . S
C2278 C2277 1.390 . S
C2278 C2279 1.394 1_545 S
C2278 C2284 1.465 . S
C2279 C2274 1.399 . S
C2279 C2278 1.394 1_565 S
C2279 C2280 1.516 . S
C2280 C2279 1.516 . S
C2280 C2281 1.502 . S
C2280 C2282 1.561 . S
C2280 C2283 1.526 . S
C2281 H2265 0.959 . S
C2281 H2266 0.959 . S
C2281 H2267 0.961 . S
C2281 C2280 1.502 . S
C2282 H2268 0.960 . S
C2282 H2269 0.961 . S
C2282 H2270 0.959 . S
C2282 C2280 1.561 . S
C2283 C2280 1.526 . S
C2283 C2284 1.396 1_565 S
C2283 C2288 1.390 . S
C2284 C2278 1.465 . S
C2284 C2283 1.396 1_545 S
C2284 C2285 1.399 . S
C2285 H2271 0.929 . S
C2285 C2284 1.399 . S
C2285 C2286 1.385 . S
C2286 H2272 0.931 . S
C2286 C2285 1.385 . S
C2286 C2287 1.389 . S
C2287 C2286 1.389 . S
C2287 C2288 1.387 1_545 S
C2288 H2273 0.930 . S
C2288 C2283 1.390 . S
C2288 C2287 1.387 1_565 S
H2289 C2301 0.930 . S
H2290 C2303 0.930 . S
H2291 C2304 0.930 . S
H2292 C2308 0.959 . S
H2293 C2308 0.959 . S
H2294 C2308 0.961 . S
H2295 C2309 0.960 . S
H2296 C2309 0.961 . S
H2297 C2309 0.959 . S
H2298 C2312 0.929 . S
H2299 C2313 0.931 . S
H2300 C2315 0.930 . S
C2301 H2289 0.930 . S
C2301 C2302 1.399 1_655 S
C2301 C2306 1.398 1_655 S
C2302 C2301 1.399 1_455 S
C2302 C2303 1.376 . S
C2303 H2290 0.930 . S
C2303 C2302 1.376 . S
C2303 C2304 1.388 . S
C2304 H2291 0.930 . S
C2304 C2303 1.388 . S
C2304 C2305 1.390 . S
C2305 C2304 1.390 . S
C2305 C2306 1.395 . S
C2305 C2311 1.465 . S
C2306 C2301 1.398 1_455 S
C2306 C2305 1.395 . S
C2306 C2307 1.516 1_455 S
C2307 C2306 1.516 1_655 S
C2307 C2308 1.502 . S
C2307 C2309 1.561 1_655 S
C2307 C2310 1.525 1_655 S
C2308 H2292 0.959 . S
C2308 H2293 0.959 . S
C2308 H2294 0.961 . S
C2308 C2307 1.502 . S
C2309 H2295 0.960 . S
C2309 H2296 0.961 . S
C2309 H2297 0.959 . S
C2309 C2307 1.561 1_455 S
C2310 C2307 1.525 1_455 S
C2310 C2311 1.397 . S
C2310 C2315 1.389 1_455 S
C2311 C2305 1.465 . S
C2311 C2310 1.397 . S
C2311 C2312 1.399 . S
C2312 H2298 0.929 . S
C2312 C2311 1.399 . S
C2312 C2313 1.385 . S
C2313 H2299 0.931 . S
C2313 C2312 1.385 . S
C2313 C2314 1.389 . S
C2314 C2313 1.389 . S
C2314 C2315 1.387 1_455 S
C2315 H2300 0.930 . S
C2315 C2310 1.389 1_655 S
C2315 C2314 1.387 1_655 S
H2316 C2328 0.930 . S
H2317 C2330 0.930 . S
H2318 C2331 0.930 . S
H2319 C2335 0.959 . S
H2320 C2335 0.959 . S
H2321 C2335 0.961 . S
H2322 C2336 0.960 . S
H2323 C2336 0.961 . S
H2324 C2336 0.959 . S
H2325 C2339 0.929 . S
H2326 C2340 0.931 . S
H2327 C2342 0.930 . S
C2328 H2316 0.930 . S
C2328 C2329 1.399 1_556 S
C2328 C2333 1.399 . S
C2329 C2328 1.399 1_554 S
C2329 C2330 1.376 . S
C2330 H2317 0.930 . S
C2330 C2329 1.376 . S
C2330 C2331 1.388 . S
C2331 H2318 0.930 . S
C2331 C2330 1.388 . S
C2331 C2332 1.390 . S
C2332 C2331 1.390 . S
C2332 C2333 1.394 1_554 S
C2332 C2338 1.465 . S
C2333 C2328 1.399 . S
C2333 C2332 1.394 1_556 S
C2333 C2334 1.516 . S
C2334 C2333 1.516 . S
C2334 C2335 1.502 . S
C2334 C2336 1.561 . S
C2334 C2337 1.526 . S
C2335 H2319 0.959 . S
C2335 H2320 0.959 . S
C2335 H2321 0.961 . S
C2335 C2334 1.502 . S
C2336 H2322 0.960 . S
C2336 H2323 0.961 . S
C2336 H2324 0.959 . S
C2336 C2334 1.561 . S
C2337 C2334 1.526 . S
C2337 C2338 1.396 1_556 S
C2337 C2342 1.390 . S
C2338 C2332 1.465 . S
C2338 C2337 1.396 1_554 S
C2338 C2339 1.399 . S
C2339 H2325 0.929 . S
C2339 C2338 1.399 . S
C2339 C2340 1.385 . S
C2340 H2326 0.931 . S
C2340 C2339 1.385 . S
C2340 C2341 1.389 . S
C2341 C2340 1.389 . S
C2341 C2342 1.387 1_554 S
C2342 H2327 0.930 . S
C2342 C2337 1.390 . S
C2342 C2341 1.387 1_556 S
H2343 C2355 0.929 . S
H2344 C2357 0.930 . S
H2345 C2358 0.930 . S
H2346 C2362 0.959 . S
H2347 C2362 0.959 . S
H2348 C2362 0.961 . S
H2349 C2363 0.960 . S
H2350 C2363 0.961 . S
H2351 C2363 0.959 . S
H2352 C2366 0.929 . S
H2353 C2367 0.930 . S
H2354 C2369 0.930 . S
C2355 H2343 0.929 . S
C2355 C2356 1.399 . S
C2355 C2360 1.402 . S
C2356 C2355 1.399 . S
C2356 C2357 1.380 . S
C2357 H2344 0.930 . S
C2357 C2356 1.380 . S
C2357 C2358 1.388 . S
C2358 H2345 0.930 . S
C2358 C2357 1.388 . S
C2358 C2359 1.390 . S
C2359 C2358 1.390 . S
C2359 C2360 1.394 . S
C2359 C2365 1.465 . S
C2360 C2355 1.402 . S
C2360 C2359 1.394 . S
C2360 C2361 1.516 . S
C2361 C2360 1.516 . S
C2361 C2362 1.502 1_556 S
C2361 C2363 1.561 . S
C2361 C2364 1.526 . S
C2362 H2346 0.959 . S
C2362 H2347 0.959 . S
C2362 H2348 0.961 . S
C2362 C2361 1.502 1_554 S
C2363 H2349 0.960 . S
C2363 H2350 0.961 . S
C2363 H2351 0.959 . S
C2363 C2361 1.561 . S
C2364 C2361 1.526 . S
C2364 C2365 1.396 . S
C2364 C2369 1.390 . S
C2365 C2359 1.465 . S
C2365 C2364 1.396 . S
C2365 C2366 1.399 . S
C2366 H2352 0.929 . S
C2366 C2365 1.399 . S
C2366 C2367 1.387 . S
C2367 H2353 0.930 . S
C2367 C2366 1.387 . S
C2367 C2368 1.389 . S
C2368 C2367 1.389 . S
C2368 C2369 1.387 . S
C2369 H2354 0.930 . S
C2369 C2364 1.390 . S
C2369 C2368 1.387 . S
H2370 C2382 0.930 . S
H2371 C2384 0.930 . S
H2372 C2385 0.930 . S
H2373 C2389 0.959 . S
H2374 C2389 0.959 . S
H2375 C2389 0.961 . S
H2376 C2390 0.960 . S
H2377 C2390 0.961 . S
H2378 C2390 0.959 . S
H2379 C2393 0.929 . S
H2380 C2394 0.931 . S
H2381 C2396 0.930 . S
C2382 H2370 0.930 . S
C2382 C2383 1.399 1_556 S
C2382 C2387 1.399 . S
C2383 C2382 1.399 1_554 S
C2383 C2384 1.376 . S
C2384 H2371 0.930 . S
C2384 C2383 1.376 . S
C2384 C2385 1.388 . S
C2385 H2372 0.930 . S
C2385 C2384 1.388 . S
C2385 C2386 1.390 . S
C2386 C2385 1.390 . S
C2386 C2387 1.394 1_554 S
C2386 C2392 1.465 . S
C2387 C2382 1.399 . S
C2387 C2386 1.394 1_556 S
C2387 C2388 1.516 . S
C2388 C2387 1.516 . S
C2388 C2389 1.502 . S
C2388 C2390 1.561 . S
C2388 C2391 1.526 . S
C2389 H2373 0.959 . S
C2389 H2374 0.959 . S
C2389 H2375 0.961 . S
C2389 C2388 1.502 . S
C2390 H2376 0.960 . S
C2390 H2377 0.961 . S
C2390 H2378 0.959 . S
C2390 C2388 1.561 . S
C2391 C2388 1.526 . S
C2391 C2392 1.396 1_556 S
C2391 C2396 1.390 . S
C2392 C2386 1.465 . S
C2392 C2391 1.396 1_554 S
C2392 C2393 1.399 . S
C2393 H2379 0.929 . S
C2393 C2392 1.399 . S
C2393 C2394 1.385 . S
C2394 H2380 0.931 . S
C2394 C2393 1.385 . S
C2394 C2395 1.389 . S
C2395 C2394 1.389 . S
C2395 C2396 1.387 1_554 S
C2396 H2381 0.930 . S
C2396 C2391 1.390 . S
C2396 C2395 1.387 1_556 S
H2397 C2409 0.930 . S
H2398 C2411 0.930 . S
H2399 C2412 0.930 . S
H2400 C2416 0.959 . S
H2401 C2416 0.959 . S
H2402 C2416 0.961 . S
H2403 C2417 0.960 . S
H2404 C2417 0.961 . S
H2405 C2417 0.959 . S
H2406 C2420 0.929 . S
H2407 C2421 0.931 . S
H2408 C2423 0.930 . S
C2409 H2397 0.930 . S
C2409 C2410 1.399 1_556 S
C2409 C2414 1.399 . S
C2410 C2409 1.399 1_554 S
C2410 C2411 1.376 . S
C2411 H2398 0.930 . S
C2411 C2410 1.376 . S
C2411 C2412 1.388 . S
C2412 H2399 0.930 . S
C2412 C2411 1.388 . S
C2412 C2413 1.390 . S
C2413 C2412 1.390 . S
C2413 C2414 1.394 1_554 S
C2413 C2419 1.465 . S
C2414 C2409 1.399 . S
C2414 C2413 1.394 1_556 S
C2414 C2415 1.516 . S
C2415 C2414 1.516 . S
C2415 C2416 1.502 . S
C2415 C2417 1.561 . S
C2415 C2418 1.526 . S
C2416 H2400 0.959 . S
C2416 H2401 0.959 . S
C2416 H2402 0.961 . S
C2416 C2415 1.502 . S
C2417 H2403 0.960 . S
C2417 H2404 0.961 . S
C2417 H2405 0.959 . S
C2417 C2415 1.561 . S
C2418 C2415 1.526 . S
C2418 C2419 1.396 1_556 S
C2418 C2423 1.390 . S
C2419 C2413 1.465 . S
C2419 C2418 1.396 1_554 S
C2419 C2420 1.399 . S
C2420 H2406 0.929 . S
C2420 C2419 1.399 . S
C2420 C2421 1.385 . S
C2421 H2407 0.931 . S
C2421 C2420 1.385 . S
C2421 C2422 1.389 . S
C2422 C2421 1.389 . S
C2422 C2423 1.387 1_554 S
C2423 H2408 0.930 . S
C2423 C2418 1.390 . S
C2423 C2422 1.387 1_556 S
H2424 C2436 0.930 . S
H2425 C2438 0.930 . S
H2426 C2439 0.930 . S
H2427 C2443 0.959 . S
H2428 C2443 0.959 . S
H2429 C2443 0.961 . S
H2430 C2444 0.960 . S
H2431 C2444 0.961 . S
H2432 C2444 0.959 . S
H2433 C2447 0.929 . S
H2434 C2448 0.931 . S
H2435 C2450 0.930 . S
C2436 H2424 0.930 . S
C2436 C2437 1.399 1_554 S
C2436 C2441 1.399 . S
C2437 C2436 1.399 1_556 S
C2437 C2438 1.376 . S
C2438 H2425 0.930 . S
C2438 C2437 1.376 . S
C2438 C2439 1.388 . S
C2439 H2426 0.930 . S
C2439 C2438 1.388 . S
C2439 C2440 1.390 . S
C2440 C2439 1.390 . S
C2440 C2441 1.394 1_556 S
C2440 C2446 1.465 . S
C2441 C2436 1.399 . S
C2441 C2440 1.394 1_554 S
C2441 C2442 1.516 . S
C2442 C2441 1.516 . S
C2442 C2443 1.502 . S
C2442 C2444 1.561 . S
C2442 C2445 1.526 . S
C2443 H2427 0.959 . S
C2443 H2428 0.959 . S
C2443 H2429 0.961 . S
C2443 C2442 1.502 . S
C2444 H2430 0.960 . S
C2444 H2431 0.961 . S
C2444 H2432 0.959 . S
C2444 C2442 1.561 . S
C2445 C2442 1.526 . S
C2445 C2446 1.396 1_554 S
C2445 C2450 1.390 . S
C2446 C2440 1.465 . S
C2446 C2445 1.396 1_556 S
C2446 C2447 1.399 . S
C2447 H2433 0.929 . S
C2447 C2446 1.399 . S
C2447 C2448 1.385 . S
C2448 H2434 0.931 . S
C2448 C2447 1.385 . S
C2448 C2449 1.389 . S
C2449 C2448 1.389 . S
C2449 C2450 1.387 1_556 S
C2450 H2435 0.930 . S
C2450 C2445 1.390 . S
C2450 C2449 1.387 1_554 S
H2451 C2463 0.930 . S
H2452 C2465 0.930 . S
H2453 C2466 0.930 . S
H2454 C2470 0.959 . S
H2455 C2470 0.959 . S
H2456 C2470 0.961 . S
H2457 C2471 0.960 . S
H2458 C2471 0.961 . S
H2459 C2471 0.959 . S
H2460 C2474 0.929 . S
H2461 C2475 0.931 . S
H2462 C2477 0.930 . S
C2463 H2451 0.930 . S
C2463 C2464 1.382 1_554 S
C2463 C2468 1.399 . S
C2464 C2463 1.382 1_556 S
C2464 C2465 1.398 . S
C2465 H2452 0.930 . S
C2465 C2464 1.398 . S
C2465 C2466 1.388 . S
C2466 H2453 0.930 . S
C2466 C2465 1.388 . S
C2466 C2467 1.390 . S
C2467 C2466 1.390 . S
C2467 C2468 1.394 1_556 S
C2467 C2473 1.465 . S
C2468 C2463 1.399 . S
C2468 C2467 1.394 1_554 S
C2468 C2469 1.516 . S
C2469 C2468 1.516 . S
C2469 C2470 1.502 . S
C2469 C2471 1.561 . S
C2469 C2472 1.526 . S
C2470 H2454 0.959 . S
C2470 H2455 0.959 . S
C2470 H2456 0.961 . S
C2470 C2469 1.502 . S
C2471 H2457 0.960 . S
C2471 H2458 0.961 . S
C2471 H2459 0.959 . S
C2471 C2469 1.561 . S
C2472 C2469 1.526 . S
C2472 C2473 1.396 1_554 S
C2472 C2477 1.390 . S
C2473 C2467 1.465 . S
C2473 C2472 1.396 1_556 S
C2473 C2474 1.399 . S
C2474 H2460 0.929 . S
C2474 C2473 1.399 . S
C2474 C2475 1.385 . S
C2475 H2461 0.931 . S
C2475 C2474 1.385 . S
C2475 C2476 1.389 . S
C2476 C2475 1.389 . S
C2476 C2477 1.387 1_556 S
C2477 H2462 0.930 . S
C2477 C2472 1.390 . S
C2477 C2476 1.387 1_554 S
H2478 C2490 0.930 . S
H2479 C2492 0.930 . S
H2480 C2493 0.930 . S
H2481 C2497 0.959 . S
H2482 C2497 0.959 . S
H2483 C2497 0.961 . S
H2484 C2498 0.960 . S
H2485 C2498 0.961 . S
H2486 C2498 0.959 . S
H2487 C2501 0.929 . S
H2488 C2502 0.931 . S
H2489 C2504 0.930 . S
C2490 H2478 0.930 . S
C2490 C2491 1.375 1_556 S
C2490 C2495 1.399 . S
C2491 C2490 1.375 1_554 S
C2491 C2492 1.406 . S
C2492 H2479 0.930 . S
C2492 C2491 1.406 . S
C2492 C2493 1.388 . S
C2493 H2480 0.930 . S
C2493 C2492 1.388 . S
C2493 C2494 1.390 . S
C2494 C2493 1.390 . S
C2494 C2495 1.394 1_554 S
C2494 C2500 1.465 . S
C2495 C2490 1.399 . S
C2495 C2494 1.394 1_556 S
C2495 C2496 1.516 . S
C2496 C2495 1.516 . S
C2496 C2497 1.502 . S
C2496 C2498 1.561 . S
C2496 C2499 1.526 . S
C2497 H2481 0.959 . S
C2497 H2482 0.959 . S
C2497 H2483 0.961 . S
C2497 C2496 1.502 . S
C2498 H2484 0.960 . S
C2498 H2485 0.961 . S
C2498 H2486 0.959 . S
C2498 C2496 1.561 . S
C2499 C2496 1.526 . S
C2499 C2500 1.396 1_556 S
C2499 C2504 1.390 . S
C2500 C2494 1.465 . S
C2500 C2499 1.396 1_554 S
C2500 C2501 1.399 . S
C2501 H2487 0.929 . S
C2501 C2500 1.399 . S
C2501 C2502 1.385 . S
C2502 H2488 0.931 . S
C2502 C2501 1.385 . S
C2502 C2503 1.389 . S
C2503 C2502 1.389 . S
C2503 C2504 1.387 1_554 S
C2504 H2489 0.930 . S
C2504 C2499 1.390 . S
C2504 C2503 1.387 1_556 S
H2505 C2517 0.930 . S
H2506 C2519 0.930 . S
H2507 C2520 0.930 . S
H2508 C2524 0.959 . S
H2509 C2524 0.959 . S
H2510 C2524 0.961 . S
H2511 C2525 0.960 . S
H2512 C2525 0.961 . S
H2513 C2525 0.959 . S
H2514 C2528 0.929 . S
H2515 C2529 0.931 . S
H2516 C2531 0.930 . S
C2517 H2505 0.930 . S
C2517 C2518 1.399 1_556 S
C2517 C2522 1.399 . S
C2518 C2517 1.399 1_554 S
C2518 C2519 1.376 . S
C2519 H2506 0.930 . S
C2519 C2518 1.376 . S
C2519 C2520 1.388 . S
C2520 H2507 0.930 . S
C2520 C2519 1.388 . S
C2520 C2521 1.390 . S
C2521 C2520 1.390 . S
C2521 C2522 1.394 1_554 S
C2521 C2527 1.465 . S
C2522 C2517 1.399 . S
C2522 C2521 1.394 1_556 S
C2522 C2523 1.516 . S
C2523 C2522 1.516 . S
C2523 C2524 1.502 . S
C2523 C2525 1.561 . S
C2523 C2526 1.526 . S
C2524 H2508 0.959 . S
C2524 H2509 0.959 . S
C2524 H2510 0.961 . S
C2524 C2523 1.502 . S
C2525 H2511 0.960 . S
C2525 H2512 0.961 . S
C2525 H2513 0.959 . S
C2525 C2523 1.561 . S
C2526 C2523 1.526 . S
C2526 C2527 1.396 1_556 S
C2526 C2531 1.390 . S
C2527 C2521 1.465 . S
C2527 C2526 1.396 1_554 S
C2527 C2528 1.399 . S
C2528 H2514 0.929 . S
C2528 C2527 1.399 . S
C2528 C2529 1.385 . S
C2529 H2515 0.931 . S
C2529 C2528 1.385 . S
C2529 C2530 1.389 . S
C2530 C2529 1.389 . S
C2530 C2531 1.387 1_554 S
C2531 H2516 0.930 . S
C2531 C2526 1.390 . S
C2531 C2530 1.387 1_556 S
H2532 C2544 0.930 . S
H2533 C2546 0.930 . S
H2534 C2547 0.930 . S
H2535 C2551 0.959 . S
H2536 C2551 0.959 . S
H2537 C2551 0.961 . S
H2538 C2552 0.960 . S
H2539 C2552 0.961 . S
H2540 C2552 0.959 . S
H2541 C2555 0.929 . S
H2542 C2556 0.931 . S
H2543 C2558 0.930 . S
C2544 H2532 0.930 . S
C2544 C2545 1.399 . S
C2544 C2549 1.399 . S
C2545 C2544 1.399 . S
C2545 C2546 1.376 . S
C2546 H2533 0.930 . S
C2546 C2545 1.376 . S
C2546 C2547 1.388 . S
C2547 H2534 0.930 . S
C2547 C2546 1.388 . S
C2547 C2548 1.390 . S
C2548 C2547 1.390 . S
C2548 C2549 1.394 . S
C2548 C2554 1.465 . S
C2549 C2544 1.399 . S
C2549 C2548 1.394 . S
C2549 C2550 1.516 . S
C2550 C2549 1.516 . S
C2550 C2551 1.502 . S
C2550 C2552 1.561 . S
C2550 C2553 1.526 . S
C2551 H2535 0.959 . S
C2551 H2536 0.959 . S
C2551 H2537 0.961 . S
C2551 C2550 1.502 . S
C2552 H2538 0.960 . S
C2552 H2539 0.961 . S
C2552 H2540 0.959 . S
C2552 C2550 1.561 . S
C2553 C2550 1.526 . S
C2553 C2554 1.396 . S
C2553 C2558 1.390 . S
C2554 C2548 1.465 . S
C2554 C2553 1.396 . S
C2554 C2555 1.399 . S
C2555 H2541 0.929 . S
C2555 C2554 1.399 . S
C2555 C2556 1.385 . S
C2556 H2542 0.931 . S
C2556 C2555 1.385 . S
C2556 C2557 1.389 . S
C2557 C2556 1.389 . S
C2557 C2558 1.387 . S
C2558 H2543 0.930 . S
C2558 C2553 1.390 . S
C2558 C2557 1.387 . S
H2559 C2571 0.930 . S
H2560 C2573 0.930 . S
H2561 C2574 0.930 . S
H2562 C2578 0.959 . S
H2563 C2578 0.959 . S
H2564 C2578 0.961 . S
H2565 C2579 0.960 . S
H2566 C2579 0.961 . S
H2567 C2579 0.959 . S
H2568 C2582 0.929 . S
H2569 C2583 0.931 . S
H2570 C2585 0.930 . S
C2571 H2559 0.930 . S
C2571 C2572 1.399 . S
C2571 C2576 1.399 . S
C2572 C2571 1.399 . S
C2572 C2573 1.376 . S
C2573 H2560 0.930 . S
C2573 C2572 1.376 . S
C2573 C2574 1.388 . S
C2574 H2561 0.930 . S
C2574 C2573 1.388 . S
C2574 C2575 1.390 . S
C2575 C2574 1.390 . S
C2575 C2576 1.394 . S
C2575 C2581 1.465 . S
C2576 C2571 1.399 . S
C2576 C2575 1.394 . S
C2576 C2577 1.516 . S
C2577 C2576 1.516 . S
C2577 C2578 1.502 . S
C2577 C2579 1.561 . S
C2577 C2580 1.526 . S
C2578 H2562 0.959 . S
C2578 H2563 0.959 . S
C2578 H2564 0.961 . S
C2578 C2577 1.502 . S
C2579 H2565 0.960 . S
C2579 H2566 0.961 . S
C2579 H2567 0.959 . S
C2579 C2577 1.561 . S
C2580 C2577 1.526 . S
C2580 C2581 1.396 . S
C2580 C2585 1.390 . S
C2581 C2575 1.465 . S
C2581 C2580 1.396 . S
C2581 C2582 1.399 . S
C2582 H2568 0.929 . S
C2582 C2581 1.399 . S
C2582 C2583 1.385 . S
C2583 H2569 0.931 . S
C2583 C2582 1.385 . S
C2583 C2584 1.389 . S
C2584 C2583 1.389 . S
C2584 C2585 1.387 . S
C2585 H2570 0.930 . S
C2585 C2580 1.390 . S
C2585 C2584 1.387 . S
H2586 C2598 0.930 . S
H2587 C2600 0.930 . S
H2588 C2601 0.930 . S
H2589 C2605 0.959 . S
H2590 C2605 0.959 . S
H2591 C2605 0.961 . S
H2592 C2606 0.960 . S
H2593 C2606 0.961 . S
H2594 C2606 0.959 . S
H2595 C2609 0.929 . S
H2596 C2610 0.931 . S
H2597 C2612 0.930 . S
C2598 H2586 0.930 . S
C2598 C2599 1.399 . S
C2598 C2603 1.399 . S
C2599 C2598 1.399 . S
C2599 C2600 1.376 . S
C2600 H2587 0.930 . S
C2600 C2599 1.376 . S
C2600 C2601 1.388 . S
C2601 H2588 0.930 . S
C2601 C2600 1.388 . S
C2601 C2602 1.390 . S
C2602 C2601 1.390 . S
C2602 C2603 1.394 . S
C2602 C2608 1.465 . S
C2603 C2598 1.399 . S
C2603 C2602 1.394 . S
C2603 C2604 1.516 . S
C2604 C2603 1.516 . S
C2604 C2605 1.502 . S
C2604 C2606 1.561 . S
C2604 C2607 1.526 . S
C2605 H2589 0.959 . S
C2605 H2590 0.959 . S
C2605 H2591 0.961 . S
C2605 C2604 1.502 . S
C2606 H2592 0.960 . S
C2606 H2593 0.961 . S
C2606 H2594 0.959 . S
C2606 C2604 1.561 . S
C2607 C2604 1.526 . S
C2607 C2608 1.396 . S
C2607 C2612 1.390 . S
C2608 C2602 1.465 . S
C2608 C2607 1.396 . S
C2608 C2609 1.399 . S
C2609 H2595 0.929 . S
C2609 C2608 1.399 . S
C2609 C2610 1.385 . S
C2610 H2596 0.931 . S
C2610 C2609 1.385 . S
C2610 C2611 1.389 . S
C2611 C2610 1.389 . S
C2611 C2612 1.387 . S
C2612 H2597 0.930 . S
C2612 C2607 1.390 . S
C2612 C2611 1.387 . S
H2613 C2625 0.930 . S
H2614 C2627 0.930 . S
H2615 C2628 0.930 . S
H2616 C2632 0.959 . S
H2617 C2632 0.959 . S
H2618 C2632 0.961 . S
H2619 C2633 0.960 . S
H2620 C2633 0.961 . S
H2621 C2633 0.959 . S
H2622 C2636 0.929 . S
H2623 C2637 0.931 . S
H2624 C2639 0.930 . S
C2625 H2613 0.930 . S
C2625 C2626 1.399 . S
C2625 C2630 1.399 . S
C2626 C2625 1.399 . S
C2626 C2627 1.376 . S
C2627 H2614 0.930 . S
C2627 C2626 1.376 . S
C2627 C2628 1.388 . S
C2628 H2615 0.930 . S
C2628 C2627 1.388 . S
C2628 C2629 1.390 . S
C2629 C2628 1.390 . S
C2629 C2630 1.394 . S
C2629 C2635 1.465 . S
C2630 C2625 1.399 . S
C2630 C2629 1.394 . S
C2630 C2631 1.516 . S
C2631 C2630 1.516 . S
C2631 C2632 1.502 . S
C2631 C2633 1.561 . S
C2631 C2634 1.526 . S
C2632 H2616 0.959 . S
C2632 H2617 0.959 . S
C2632 H2618 0.961 . S
C2632 C2631 1.502 . S
C2633 H2619 0.960 . S
C2633 H2620 0.961 . S
C2633 H2621 0.959 . S
C2633 C2631 1.561 . S
C2634 C2631 1.526 . S
C2634 C2635 1.396 . S
C2634 C2639 1.390 . S
C2635 C2629 1.465 . S
C2635 C2634 1.396 . S
C2635 C2636 1.399 . S
C2636 H2622 0.929 . S
C2636 C2635 1.399 . S
C2636 C2637 1.385 . S
C2637 H2623 0.931 . S
C2637 C2636 1.385 . S
C2637 C2638 1.389 . S
C2638 C2637 1.389 . S
C2638 C2639 1.387 . S
C2639 H2624 0.930 . S
C2639 C2634 1.390 . S
C2639 C2638 1.387 . S
H2640 C2652 0.930 . S
H2641 C2654 0.930 . S
H2642 C2655 0.930 . S
H2643 C2659 0.959 . S
H2644 C2659 0.959 . S
H2645 C2659 0.961 . S
H2646 C2660 0.960 . S
H2647 C2660 0.961 . S
H2648 C2660 0.959 . S
H2649 C2663 0.929 . S
H2650 C2664 0.931 . S
H2651 C2666 0.930 . S
C2652 H2640 0.930 . S
C2652 C2653 1.399 . S
C2652 C2657 1.399 . S
C2653 C2652 1.399 . S
C2653 C2654 1.376 . S
C2654 H2641 0.930 . S
C2654 C2653 1.376 . S
C2654 C2655 1.388 . S
C2655 H2642 0.930 . S
C2655 C2654 1.388 . S
C2655 C2656 1.390 . S
C2656 C2655 1.390 . S
C2656 C2657 1.394 . S
C2656 C2662 1.465 . S
C2657 C2652 1.399 . S
C2657 C2656 1.394 . S
C2657 C2658 1.516 . S
C2658 C2657 1.516 . S
C2658 C2659 1.502 . S
C2658 C2660 1.561 . S
C2658 C2661 1.526 . S
C2659 H2643 0.959 . S
C2659 H2644 0.959 . S
C2659 H2645 0.961 . S
C2659 C2658 1.502 . S
C2660 H2646 0.960 . S
C2660 H2647 0.961 . S
C2660 H2648 0.959 . S
C2660 C2658 1.561 . S
C2661 C2658 1.526 . S
C2661 C2662 1.396 . S
C2661 C2666 1.390 . S
C2662 C2656 1.465 . S
C2662 C2661 1.396 . S
C2662 C2663 1.399 . S
C2663 H2649 0.929 . S
C2663 C2662 1.399 . S
C2663 C2664 1.385 . S
C2664 H2650 0.931 . S
C2664 C2663 1.385 . S
C2664 C2665 1.389 . S
C2665 C2664 1.389 . S
C2665 C2666 1.387 . S
C2666 H2651 0.930 . S
C2666 C2661 1.390 . S
C2666 C2665 1.387 . S
H2667 C2679 0.930 . S
H2668 C2681 0.930 . S
H2669 C2682 0.930 . S
H2670 C2686 0.959 . S
H2671 C2686 0.959 . S
H2672 C2686 0.961 . S
H2673 C2687 0.960 . S
H2674 C2687 0.961 . S
H2675 C2687 0.959 . S
H2676 C2690 0.929 . S
H2677 C2691 0.931 . S
H2678 C2693 0.930 . S
C2679 H2667 0.930 . S
C2679 C2680 1.399 . S
C2679 C2684 1.399 . S
C2680 C2679 1.399 . S
C2680 C2681 1.376 . S
C2681 H2668 0.930 . S
C2681 C2680 1.376 . S
C2681 C2682 1.388 . S
C2682 H2669 0.930 . S
C2682 C2681 1.388 . S
C2682 C2683 1.390 . S
C2683 C2682 1.390 . S
C2683 C2684 1.394 . S
C2683 C2689 1.465 . S
C2684 C2679 1.399 . S
C2684 C2683 1.394 . S
C2684 C2685 1.516 . S
C2685 C2684 1.516 . S
C2685 C2686 1.502 . S
C2685 C2687 1.561 . S
C2685 C2688 1.526 . S
C2686 H2670 0.959 . S
C2686 H2671 0.959 . S
C2686 H2672 0.961 . S
C2686 C2685 1.502 . S
C2687 H2673 0.960 . S
C2687 H2674 0.961 . S
C2687 H2675 0.959 . S
C2687 C2685 1.561 . S
C2688 C2685 1.526 . S
C2688 C2689 1.396 . S
C2688 C2693 1.390 . S
C2689 C2683 1.465 . S
C2689 C2688 1.396 . S
C2689 C2690 1.399 . S
C2690 H2676 0.929 . S
C2690 C2689 1.399 . S
C2690 C2691 1.385 . S
C2691 H2677 0.931 . S
C2691 C2690 1.385 . S
C2691 C2692 1.389 . S
C2692 C2691 1.389 . S
C2692 C2693 1.387 . S
C2693 H2678 0.930 . S
C2693 C2688 1.390 . S
C2693 C2692 1.387 . S
H2694 C2706 0.930 . S
H2695 C2708 0.930 . S
H2696 C2709 0.930 . S
H2697 C2713 0.959 . S
H2698 C2713 0.959 . S
H2699 C2713 0.961 . S
H2700 C2714 0.960 . S
H2701 C2714 0.961 . S
H2702 C2714 0.959 . S
H2703 C2717 0.929 . S
H2704 C2718 0.931 . S
H2705 C2720 0.930 . S
C2706 H2694 0.930 . S
C2706 C2707 1.399 . S
C2706 C2711 1.399 . S
C2707 C2706 1.399 . S
C2707 C2708 1.376 . S
C2708 H2695 0.930 . S
C2708 C2707 1.376 . S
C2708 C2709 1.388 . S
C2709 H2696 0.930 . S
C2709 C2708 1.388 . S
C2709 C2710 1.390 . S
C2710 C2709 1.390 . S
C2710 C2711 1.394 . S
C2710 C2716 1.465 . S
C2711 C2706 1.399 . S
C2711 C2710 1.394 . S
C2711 C2712 1.516 . S
C2712 C2711 1.516 . S
C2712 C2713 1.502 . S
C2712 C2714 1.561 . S
C2712 C2715 1.526 . S
C2713 H2697 0.959 . S
C2713 H2698 0.959 . S
C2713 H2699 0.961 . S
C2713 C2712 1.502 . S
C2714 H2700 0.960 . S
C2714 H2701 0.961 . S
C2714 H2702 0.959 . S
C2714 C2712 1.561 . S
C2715 C2712 1.526 . S
C2715 C2716 1.396 . S
C2715 C2720 1.390 . S
C2716 C2710 1.465 . S
C2716 C2715 1.396 . S
C2716 C2717 1.399 . S
C2717 H2703 0.929 . S
C2717 C2716 1.399 . S
C2717 C2718 1.385 . S
C2718 H2704 0.931 . S
C2718 C2717 1.385 . S
C2718 C2719 1.389 . S
C2719 C2718 1.389 . S
C2719 C2720 1.387 . S
C2720 H2705 0.930 . S
C2720 C2715 1.390 . S
C2720 C2719 1.387 . S
H2721 C2733 0.930 . S
H2722 C2735 0.930 . S
H2723 C2736 0.930 . S
H2724 C2740 0.959 . S
H2725 C2740 0.959 . S
H2726 C2740 0.961 . S
H2727 C2741 0.960 . S
H2728 C2741 0.961 . S
H2729 C2741 0.959 . S
H2730 C2744 0.929 . S
H2731 C2745 0.931 . S
H2732 C2747 0.930 . S
C2733 H2721 0.930 . S
C2733 C2734 1.399 . S
C2733 C2738 1.399 . S
C2734 C2733 1.399 . S
C2734 C2735 1.376 . S
C2735 H2722 0.930 . S
C2735 C2734 1.376 . S
C2735 C2736 1.388 . S
C2736 H2723 0.930 . S
C2736 C2735 1.388 . S
C2736 C2737 1.390 . S
C2737 C2736 1.390 . S
C2737 C2738 1.394 . S
C2737 C2743 1.465 . S
C2738 C2733 1.399 . S
C2738 C2737 1.394 . S
C2738 C2739 1.516 . S
C2739 C2738 1.516 . S
C2739 C2740 1.502 . S
C2739 C2741 1.561 . S
C2739 C2742 1.526 . S
C2740 H2724 0.959 . S
C2740 H2725 0.959 . S
C2740 H2726 0.961 . S
C2740 C2739 1.502 . S
C2741 H2727 0.960 . S
C2741 H2728 0.961 . S
C2741 H2729 0.959 . S
C2741 C2739 1.561 . S
C2742 C2739 1.526 . S
C2742 C2743 1.396 . S
C2742 C2747 1.390 . S
C2743 C2737 1.465 . S
C2743 C2742 1.396 . S
C2743 C2744 1.399 . S
C2744 H2730 0.929 . S
C2744 C2743 1.399 . S
C2744 C2745 1.385 . S
C2745 H2731 0.931 . S
C2745 C2744 1.385 . S
C2745 C2746 1.389 . S
C2746 C2745 1.389 . S
C2746 C2747 1.387 . S
C2747 H2732 0.930 . S
C2747 C2742 1.390 . S
C2747 C2746 1.387 . S
H2748 C2760 0.930 . S
H2749 C2762 0.930 . S
H2750 C2763 0.930 . S
H2751 C2767 0.959 . S
H2752 C2767 0.959 . S
H2753 C2767 0.961 . S
H2754 C2768 0.960 . S
H2755 C2768 0.961 . S
H2756 C2768 0.959 . S
H2757 C2771 0.929 . S
H2758 C2772 0.931 . S
H2759 C2774 0.930 . S
C2760 H2748 0.930 . S
C2760 C2761 1.399 . S
C2760 C2765 1.399 . S
C2761 C2760 1.399 . S
C2761 C2762 1.376 . S
C2762 H2749 0.930 . S
C2762 C2761 1.376 . S
C2762 C2763 1.388 . S
C2763 H2750 0.930 . S
C2763 C2762 1.388 . S
C2763 C2764 1.390 . S
C2764 C2763 1.390 . S
C2764 C2765 1.394 . S
C2764 C2770 1.465 . S
C2765 C2760 1.399 . S
C2765 C2764 1.394 . S
C2765 C2766 1.516 . S
C2766 C2765 1.516 . S
C2766 C2767 1.502 . S
C2766 C2768 1.561 . S
C2766 C2769 1.526 . S
C2767 H2751 0.959 . S
C2767 H2752 0.959 . S
C2767 H2753 0.961 . S
C2767 C2766 1.502 . S
C2768 H2754 0.960 . S
C2768 H2755 0.961 . S
C2768 H2756 0.959 . S
C2768 C2766 1.561 . S
C2769 C2766 1.526 . S
C2769 C2770 1.396 . S
C2769 C2774 1.390 . S
C2770 C2764 1.465 . S
C2770 C2769 1.396 . S
C2770 C2771 1.399 . S
C2771 H2757 0.929 . S
C2771 C2770 1.399 . S
C2771 C2772 1.385 . S
C2772 H2758 0.931 . S
C2772 C2771 1.385 . S
C2772 C2773 1.389 . S
C2773 C2772 1.389 . S
C2773 C2774 1.387 . S
C2774 H2759 0.930 . S
C2774 C2769 1.390 . S
C2774 C2773 1.387 . S
H2775 C2787 0.930 . S
H2776 C2789 0.930 . S
H2777 C2790 0.930 . S
H2778 C2794 0.959 . S
H2779 C2794 0.959 . S
H2780 C2794 0.961 . S
H2781 C2795 0.960 . S
H2782 C2795 0.961 . S
H2783 C2795 0.959 . S
H2784 C2798 0.929 . S
H2785 C2799 0.931 . S
H2786 C2801 0.930 . S
C2787 H2775 0.930 . S
C2787 C2788 1.399 . S
C2787 C2792 1.399 . S
C2788 C2787 1.399 . S
C2788 C2789 1.376 . S
C2789 H2776 0.930 . S
C2789 C2788 1.376 . S
C2789 C2790 1.388 . S
C2790 H2777 0.930 . S
C2790 C2789 1.388 . S
C2790 C2791 1.390 . S
C2791 C2790 1.390 . S
C2791 C2792 1.394 . S
C2791 C2797 1.465 . S
C2792 C2787 1.399 . S
C2792 C2791 1.394 . S
C2792 C2793 1.516 . S
C2793 C2792 1.516 . S
C2793 C2794 1.502 . S
C2793 C2795 1.561 . S
C2793 C2796 1.526 . S
C2794 H2778 0.959 . S
C2794 H2779 0.959 . S
C2794 H2780 0.961 . S
C2794 C2793 1.502 . S
C2795 H2781 0.960 . S
C2795 H2782 0.961 . S
C2795 H2783 0.959 . S
C2795 C2793 1.561 . S
C2796 C2793 1.526 . S
C2796 C2797 1.396 . S
C2796 C2801 1.390 . S
C2797 C2791 1.465 . S
C2797 C2796 1.396 . S
C2797 C2798 1.399 . S
C2798 H2784 0.929 . S
C2798 C2797 1.399 . S
C2798 C2799 1.385 . S
C2799 H2785 0.931 . S
C2799 C2798 1.385 . S
C2799 C2800 1.389 . S
C2800 C2799 1.389 . S
C2800 C2801 1.387 . S
C2801 H2786 0.930 . S
C2801 C2796 1.390 . S
C2801 C2800 1.387 . S
H2802 C2814 0.930 . S
H2803 C2816 0.930 . S
H2804 C2817 0.930 . S
H2805 C2821 0.959 . S
H2806 C2821 0.959 . S
H2807 C2821 0.961 . S
H2808 C2822 0.960 . S
H2809 C2822 0.961 . S
H2810 C2822 0.959 . S
H2811 C2825 0.929 . S
H2812 C2826 0.931 . S
H2813 C2828 0.930 . S
C2814 H2802 0.930 . S
C2814 C2815 1.399 . S
C2814 C2819 1.399 . S
C2815 C2814 1.399 . S
C2815 C2816 1.376 . S
C2816 H2803 0.930 . S
C2816 C2815 1.376 . S
C2816 C2817 1.388 . S
C2817 H2804 0.930 . S
C2817 C2816 1.388 . S
C2817 C2818 1.390 . S
C2818 C2817 1.390 . S
C2818 C2819 1.394 . S
C2818 C2824 1.465 . S
C2819 C2814 1.399 . S
C2819 C2818 1.394 . S
C2819 C2820 1.516 . S
C2820 C2819 1.516 . S
C2820 C2821 1.502 . S
C2820 C2822 1.561 . S
C2820 C2823 1.526 . S
C2821 H2805 0.959 . S
C2821 H2806 0.959 . S
C2821 H2807 0.961 . S
C2821 C2820 1.502 . S
C2822 H2808 0.960 . S
C2822 H2809 0.961 . S
C2822 H2810 0.959 . S
C2822 C2820 1.561 . S
C2823 C2820 1.526 . S
C2823 C2824 1.396 . S
C2823 C2828 1.390 . S
C2824 C2818 1.465 . S
C2824 C2823 1.396 . S
C2824 C2825 1.399 . S
C2825 H2811 0.929 . S
C2825 C2824 1.399 . S
C2825 C2826 1.385 . S
C2826 H2812 0.931 . S
C2826 C2825 1.385 . S
C2826 C2827 1.389 . S
C2827 C2826 1.389 . S
C2827 C2828 1.387 . S
C2828 H2813 0.930 . S
C2828 C2823 1.390 . S
C2828 C2827 1.387 . S
H2829 C2841 0.930 . S
H2830 C2843 0.930 . S
H2831 C2844 0.930 . S
H2832 C2848 0.959 . S
H2833 C2848 0.959 . S
H2834 C2848 0.961 . S
H2835 C2849 0.960 . S
H2836 C2849 0.961 . S
H2837 C2849 0.959 . S
H2838 C2852 0.929 . S
H2839 C2853 0.931 . S
H2840 C2855 0.930 . S
C2841 H2829 0.930 . S
C2841 C2842 1.399 . S
C2841 C2846 1.399 . S
C2842 C2841 1.399 . S
C2842 C2843 1.376 . S
C2843 H2830 0.930 . S
C2843 C2842 1.376 . S
C2843 C2844 1.388 . S
C2844 H2831 0.930 . S
C2844 C2843 1.388 . S
C2844 C2845 1.390 . S
C2845 C2844 1.390 . S
C2845 C2846 1.394 . S
C2845 C2851 1.465 . S
C2846 C2841 1.399 . S
C2846 C2845 1.394 . S
C2846 C2847 1.516 . S
C2847 C2846 1.516 . S
C2847 C2848 1.502 . S
C2847 C2849 1.561 . S
C2847 C2850 1.526 . S
C2848 H2832 0.959 . S
C2848 H2833 0.959 . S
C2848 H2834 0.961 . S
C2848 C2847 1.502 . S
C2849 H2835 0.960 . S
C2849 H2836 0.961 . S
C2849 H2837 0.959 . S
C2849 C2847 1.561 . S
C2850 C2847 1.526 . S
C2850 C2851 1.396 . S
C2850 C2855 1.390 . S
C2851 C2845 1.465 . S
C2851 C2850 1.396 . S
C2851 C2852 1.399 . S
C2852 H2838 0.929 . S
C2852 C2851 1.399 . S
C2852 C2853 1.385 . S
C2853 H2839 0.931 . S
C2853 C2852 1.385 . S
C2853 C2854 1.389 . S
C2854 C2853 1.389 . S
C2854 C2855 1.387 . S
C2855 H2840 0.930 . S
C2855 C2850 1.390 . S
C2855 C2854 1.387 . S
H2856 C2868 0.930 . S
H2857 C2870 0.930 . S
H2858 C2871 0.930 . S
H2859 C2875 0.959 . S
H2860 C2875 0.959 . S
H2861 C2875 0.961 . S
H2862 C2876 0.960 . S
H2863 C2876 0.961 . S
H2864 C2876 0.959 . S
H2865 C2879 0.929 . S
H2866 C2880 0.931 . S
H2867 C2882 0.930 . S
C2868 H2856 0.930 . S
C2868 C2869 1.399 . S
C2868 C2873 1.399 . S
C2869 C2868 1.399 . S
C2869 C2870 1.376 . S
C2870 H2857 0.930 . S
C2870 C2869 1.376 . S
C2870 C2871 1.388 . S
C2871 H2858 0.930 . S
C2871 C2870 1.388 . S
C2871 C2872 1.390 . S
C2872 C2871 1.390 . S
C2872 C2873 1.394 . S
C2872 C2878 1.465 . S
C2873 C2868 1.399 . S
C2873 C2872 1.394 . S
C2873 C2874 1.516 . S
C2874 C2873 1.516 . S
C2874 C2875 1.502 . S
C2874 C2876 1.561 . S
C2874 C2877 1.526 . S
C2875 H2859 0.959 . S
C2875 H2860 0.959 . S
C2875 H2861 0.961 . S
C2875 C2874 1.502 . S
C2876 H2862 0.960 . S
C2876 H2863 0.961 . S
C2876 H2864 0.959 . S
C2876 C2874 1.561 . S
C2877 C2874 1.526 . S
C2877 C2878 1.396 . S
C2877 C2882 1.390 . S
C2878 C2872 1.465 . S
C2878 C2877 1.396 . S
C2878 C2879 1.399 . S
C2879 H2865 0.929 . S
C2879 C2878 1.399 . S
C2879 C2880 1.385 . S
C2880 H2866 0.931 . S
C2880 C2879 1.385 . S
C2880 C2881 1.389 . S
C2881 C2880 1.389 . S
C2881 C2882 1.387 . S
C2882 H2867 0.930 . S
C2882 C2877 1.390 . S
C2882 C2881 1.387 . S
H2883 C2895 0.930 . S
H2884 C2897 0.930 . S
H2885 C2898 0.930 . S
H2886 C2902 0.959 . S
H2887 C2902 0.959 . S
H2888 C2902 0.961 . S
H2889 C2903 0.960 . S
H2890 C2903 0.961 . S
H2891 C2903 0.959 . S
H2892 C2906 0.929 . S
H2893 C2907 0.931 . S
H2894 C2909 0.930 . S
C2895 H2883 0.930 . S
C2895 C2896 1.399 . S
C2895 C2900 1.399 . S
C2896 C2895 1.399 . S
C2896 C2897 1.376 . S
C2897 H2884 0.930 . S
C2897 C2896 1.376 . S
C2897 C2898 1.388 . S
C2898 H2885 0.930 . S
C2898 C2897 1.388 . S
C2898 C2899 1.390 . S
C2899 C2898 1.390 . S
C2899 C2900 1.394 . S
C2899 C2905 1.465 . S
C2900 C2895 1.399 . S
C2900 C2899 1.394 . S
C2900 C2901 1.516 . S
C2901 C2900 1.516 . S
C2901 C2902 1.502 . S
C2901 C2903 1.561 . S
C2901 C2904 1.526 . S
C2902 H2886 0.959 . S
C2902 H2887 0.959 . S
C2902 H2888 0.961 . S
C2902 C2901 1.502 . S
C2903 H2889 0.960 . S
C2903 H2890 0.961 . S
C2903 H2891 0.959 . S
C2903 C2901 1.561 . S
C2904 C2901 1.526 . S
C2904 C2905 1.396 . S
C2904 C2909 1.390 . S
C2905 C2899 1.465 . S
C2905 C2904 1.396 . S
C2905 C2906 1.399 . S
C2906 H2892 0.929 . S
C2906 C2905 1.399 . S
C2906 C2907 1.385 . S
C2907 H2893 0.931 . S
C2907 C2906 1.385 . S
C2907 C2908 1.389 . S
C2908 C2907 1.389 . S
C2908 C2909 1.387 . S
C2909 H2894 0.930 . S
C2909 C2904 1.390 . S
C2909 C2908 1.387 . S
H2910 C2922 0.930 . S
H2911 C2924 0.930 . S
H2912 C2925 0.930 . S
H2913 C2929 0.959 . S
H2914 C2929 0.959 . S
H2915 C2929 0.961 . S
H2916 C2930 0.960 . S
H2917 C2930 0.961 . S
H2918 C2930 0.959 . S
H2919 C2933 0.929 . S
H2920 C2934 0.931 . S
H2921 C2936 0.930 . S
C2922 H2910 0.930 . S
C2922 C2923 1.399 . S
C2922 C2927 1.399 . S
C2923 C2922 1.399 . S
C2923 C2924 1.376 . S
C2924 H2911 0.930 . S
C2924 C2923 1.376 . S
C2924 C2925 1.388 . S
C2925 H2912 0.930 . S
C2925 C2924 1.388 . S
C2925 C2926 1.390 . S
C2926 C2925 1.390 . S
C2926 C2927 1.394 . S
C2926 C2932 1.465 . S
C2927 C2922 1.399 . S
C2927 C2926 1.394 . S
C2927 C2928 1.516 . S
C2928 C2927 1.516 . S
C2928 C2929 1.502 . S
C2928 C2930 1.561 . S
C2928 C2931 1.526 . S
C2929 H2913 0.959 . S
C2929 H2914 0.959 . S
C2929 H2915 0.961 . S
C2929 C2928 1.502 . S
C2930 H2916 0.960 . S
C2930 H2917 0.961 . S
C2930 H2918 0.959 . S
C2930 C2928 1.561 . S
C2931 C2928 1.526 . S
C2931 C2932 1.396 . S
C2931 C2936 1.390 . S
C2932 C2926 1.465 . S
C2932 C2931 1.396 . S
C2932 C2933 1.399 . S
C2933 H2919 0.929 . S
C2933 C2932 1.399 . S
C2933 C2934 1.385 . S
C2934 H2920 0.931 . S
C2934 C2933 1.385 . S
C2934 C2935 1.389 . S
C2935 C2934 1.389 . S
C2935 C2936 1.387 . S
C2936 H2921 0.930 . S
C2936 C2931 1.390 . S
C2936 C2935 1.387 . S
H2937 C2949 0.930 . S
H2938 C2951 0.930 . S
H2939 C2952 0.930 . S
H2940 C2956 0.959 . S
H2941 C2956 0.959 . S
H2942 C2956 0.961 . S
H2943 C2957 0.960 . S
H2944 C2957 0.961 . S
H2945 C2957 0.959 . S
H2946 C2960 0.929 . S
H2947 C2961 0.931 . S
H2948 C2963 0.930 . S
C2949 H2937 0.930 . S
C2949 C2950 1.399 . S
C2949 C2954 1.399 . S
C2950 C2949 1.399 . S
C2950 C2951 1.376 . S
C2951 H2938 0.930 . S
C2951 C2950 1.376 . S
C2951 C2952 1.388 . S
C2952 H2939 0.930 . S
C2952 C2951 1.388 . S
C2952 C2953 1.390 . S
C2953 C2952 1.390 . S
C2953 C2954 1.394 . S
C2953 C2959 1.465 . S
C2954 C2949 1.399 . S
C2954 C2953 1.394 . S
C2954 C2955 1.516 . S
C2955 C2954 1.516 . S
C2955 C2956 1.502 . S
C2955 C2957 1.561 . S
C2955 C2958 1.526 . S
C2956 H2940 0.959 . S
C2956 H2941 0.959 . S
C2956 H2942 0.961 . S
C2956 C2955 1.502 . S
C2957 H2943 0.960 . S
C2957 H2944 0.961 . S
C2957 H2945 0.959 . S
C2957 C2955 1.561 . S
C2958 C2955 1.526 . S
C2958 C2959 1.396 . S
C2958 C2963 1.390 . S
C2959 C2953 1.465 . S
C2959 C2958 1.396 . S
C2959 C2960 1.399 . S
C2960 H2946 0.929 . S
C2960 C2959 1.399 . S
C2960 C2961 1.385 . S
C2961 H2947 0.931 . S
C2961 C2960 1.385 . S
C2961 C2962 1.389 . S
C2962 C2961 1.389 . S
C2962 C2963 1.387 . S
C2963 H2948 0.930 . S
C2963 C2958 1.390 . S
C2963 C2962 1.387 . S
H2964 C2976 0.930 . S
H2965 C2978 0.930 . S
H2966 C2979 0.930 . S
H2967 C2983 0.959 . S
H2968 C2983 0.959 . S
H2969 C2983 0.961 . S
H2970 C2984 0.960 . S
H2971 C2984 0.961 . S
H2972 C2984 0.959 . S
H2973 C2987 0.929 . S
H2974 C2988 0.931 . S
H2975 C2990 0.930 . S
C2976 H2964 0.930 . S
C2976 C2977 1.399 . S
C2976 C2981 1.399 . S
C2977 C2976 1.399 . S
C2977 C2978 1.376 . S
C2978 H2965 0.930 . S
C2978 C2977 1.376 . S
C2978 C2979 1.388 . S
C2979 H2966 0.930 . S
C2979 C2978 1.388 . S
C2979 C2980 1.390 . S
C2980 C2979 1.390 . S
C2980 C2981 1.394 . S
C2980 C2986 1.465 . S
C2981 C2976 1.399 . S
C2981 C2980 1.394 . S
C2981 C2982 1.516 . S
C2982 C2981 1.516 . S
C2982 C2983 1.502 . S
C2982 C2984 1.561 . S
C2982 C2985 1.526 . S
C2983 H2967 0.959 . S
C2983 H2968 0.959 . S
C2983 H2969 0.961 . S
C2983 C2982 1.502 . S
C2984 H2970 0.960 . S
C2984 H2971 0.961 . S
C2984 H2972 0.959 . S
C2984 C2982 1.561 . S
C2985 C2982 1.526 . S
C2985 C2986 1.396 . S
C2985 C2990 1.390 . S
C2986 C2980 1.465 . S
C2986 C2985 1.396 . S
C2986 C2987 1.399 . S
C2987 H2973 0.929 . S
C2987 C2986 1.399 . S
C2987 C2988 1.385 . S
C2988 H2974 0.931 . S
C2988 C2987 1.385 . S
C2988 C2989 1.389 . S
C2989 C2988 1.389 . S
C2989 C2990 1.387 . S
C2990 H2975 0.930 . S
C2990 C2985 1.390 . S
C2990 C2989 1.387 . S
H2991 C3003 0.930 . S
H2992 C3005 0.930 . S
H2993 C3006 0.930 . S
H2994 C3010 0.959 . S
H2995 C3010 0.959 . S
H2996 C3010 0.961 . S
H2997 C3011 0.960 . S
H2998 C3011 0.961 . S
H2999 C3011 0.959 . S
H3000 C3014 0.929 . S
H3001 C3015 0.931 . S
H3002 C3017 0.930 . S
C3003 H2991 0.930 . S
C3003 C3004 1.399 . S
C3003 C3008 1.399 . S
C3004 C3003 1.399 . S
C3004 C3005 1.376 . S
C3005 H2992 0.930 . S
C3005 C3004 1.376 . S
C3005 C3006 1.388 . S
C3006 H2993 0.930 . S
C3006 C3005 1.388 . S
C3006 C3007 1.390 . S
C3007 C3006 1.390 . S
C3007 C3008 1.394 . S
C3007 C3013 1.465 . S
C3008 C3003 1.399 . S
C3008 C3007 1.394 . S
C3008 C3009 1.516 . S
C3009 C3008 1.516 . S
C3009 C3010 1.502 . S
C3009 C3011 1.561 . S
C3009 C3012 1.526 . S
C3010 H2994 0.959 . S
C3010 H2995 0.959 . S
C3010 H2996 0.961 . S
C3010 C3009 1.502 . S
C3011 H2997 0.960 . S
C3011 H2998 0.961 . S
C3011 H2999 0.959 . S
C3011 C3009 1.561 . S
C3012 C3009 1.526 . S
C3012 C3013 1.396 . S
C3012 C3017 1.390 . S
C3013 C3007 1.465 . S
C3013 C3012 1.396 . S
C3013 C3014 1.399 . S
C3014 H3000 0.929 . S
C3014 C3013 1.399 . S
C3014 C3015 1.385 . S
C3015 H3001 0.931 . S
C3015 C3014 1.385 . S
C3015 C3016 1.389 . S
C3016 C3015 1.389 . S
C3016 C3017 1.387 . S
C3017 H3002 0.930 . S
C3017 C3012 1.390 . S
C3017 C3016 1.387 . S
H3018 C3030 0.930 . S
H3019 C3032 0.930 . S
H3020 C3033 0.930 . S
H3021 C3037 0.959 . S
H3022 C3037 0.959 . S
H3023 C3037 0.961 . S
H3024 C3038 0.960 . S
H3025 C3038 0.961 . S
H3026 C3038 0.959 . S
H3027 C3041 0.929 . S
H3028 C3042 0.931 . S
H3029 C3044 0.930 . S
C3030 H3018 0.930 . S
C3030 C3031 1.399 . S
C3030 C3035 1.399 . S
C3031 C3030 1.399 . S
C3031 C3032 1.376 . S
C3032 H3019 0.930 . S
C3032 C3031 1.376 . S
C3032 C3033 1.388 . S
C3033 H3020 0.930 . S
C3033 C3032 1.388 . S
C3033 C3034 1.390 . S
C3034 C3033 1.390 . S
C3034 C3035 1.394 . S
C3034 C3040 1.465 . S
C3035 C3030 1.399 . S
C3035 C3034 1.394 . S
C3035 C3036 1.516 . S
C3036 C3035 1.516 . S
C3036 C3037 1.502 . S
C3036 C3038 1.561 . S
C3036 C3039 1.526 . S
C3037 H3021 0.959 . S
C3037 H3022 0.959 . S
C3037 H3023 0.961 . S
C3037 C3036 1.502 . S
C3038 H3024 0.960 . S
C3038 H3025 0.961 . S
C3038 H3026 0.959 . S
C3038 C3036 1.561 . S
C3039 C3036 1.526 . S
C3039 C3040 1.396 . S
C3039 C3044 1.390 . S
C3040 C3034 1.465 . S
C3040 C3039 1.396 . S
C3040 C3041 1.399 . S
C3041 H3027 0.929 . S
C3041 C3040 1.399 . S
C3041 C3042 1.385 . S
C3042 H3028 0.931 . S
C3042 C3041 1.385 . S
C3042 C3043 1.389 . S
C3043 C3042 1.389 . S
C3043 C3044 1.387 . S
C3044 H3029 0.930 . S
C3044 C3039 1.390 . S
C3044 C3043 1.387 . S
H3045 C3057 0.930 . S
H3046 C3059 0.930 . S
H3047 C3060 0.930 . S
H3048 C3064 0.959 . S
H3049 C3064 0.959 . S
H3050 C3064 0.961 . S
H3051 C3065 0.960 . S
H3052 C3065 0.961 . S
H3053 C3065 0.959 . S
H3054 C3068 0.929 . S
H3055 C3069 0.931 . S
H3056 C3071 0.930 . S
C3057 H3045 0.930 . S
C3057 C3058 1.399 . S
C3057 C3062 1.399 . S
C3058 C3057 1.399 . S
C3058 C3059 1.376 . S
C3059 H3046 0.930 . S
C3059 C3058 1.376 . S
C3059 C3060 1.388 . S
C3060 H3047 0.930 . S
C3060 C3059 1.388 . S
C3060 C3061 1.390 . S
C3061 C3060 1.390 . S
C3061 C3062 1.394 . S
C3061 C3067 1.465 . S
C3062 C3057 1.399 . S
C3062 C3061 1.394 . S
C3062 C3063 1.516 . S
C3063 C3062 1.516 . S
C3063 C3064 1.502 . S
C3063 C3065 1.561 . S
C3063 C3066 1.526 . S
C3064 H3048 0.959 . S
C3064 H3049 0.959 . S
C3064 H3050 0.961 . S
C3064 C3063 1.502 . S
C3065 H3051 0.960 . S
C3065 H3052 0.961 . S
C3065 H3053 0.959 . S
C3065 C3063 1.561 . S
C3066 C3063 1.526 . S
C3066 C3067 1.396 . S
C3066 C3071 1.390 . S
C3067 C3061 1.465 . S
C3067 C3066 1.396 . S
C3067 C3068 1.399 . S
C3068 H3054 0.929 . S
C3068 C3067 1.399 . S
C3068 C3069 1.385 . S
C3069 H3055 0.931 . S
C3069 C3068 1.385 . S
C3069 C3070 1.389 . S
C3070 C3069 1.389 . S
C3070 C3071 1.387 . S
C3071 H3056 0.930 . S
C3071 C3066 1.390 . S
C3071 C3070 1.387 . S
H3072 C3084 0.930 . S
H3073 C3086 0.930 . S
H3074 C3087 0.930 . S
H3075 C3091 0.959 . S
H3076 C3091 0.959 . S
H3077 C3091 0.961 . S
H3078 C3092 0.960 . S
H3079 C3092 0.961 . S
H3080 C3092 0.959 . S
H3081 C3095 0.929 . S
H3082 C3096 0.931 . S
H3083 C3098 0.930 . S
C3084 H3072 0.930 . S
C3084 C3085 1.399 . S
C3084 C3089 1.399 . S
C3085 C3084 1.399 . S
C3085 C3086 1.376 . S
C3086 H3073 0.930 . S
C3086 C3085 1.376 . S
C3086 C3087 1.388 . S
C3087 H3074 0.930 . S
C3087 C3086 1.388 . S
C3087 C3088 1.390 . S
C3088 C3087 1.390 . S
C3088 C3089 1.394 . S
C3088 C3094 1.465 . S
C3089 C3084 1.399 . S
C3089 C3088 1.394 . S
C3089 C3090 1.516 . S
C3090 C3089 1.516 . S
C3090 C3091 1.502 . S
C3090 C3092 1.561 . S
C3090 C3093 1.526 . S
C3091 H3075 0.959 . S
C3091 H3076 0.959 . S
C3091 H3077 0.961 . S
C3091 C3090 1.502 . S
C3092 H3078 0.960 . S
C3092 H3079 0.961 . S
C3092 H3080 0.959 . S
C3092 C3090 1.561 . S
C3093 C3090 1.526 . S
C3093 C3094 1.396 . S
C3093 C3098 1.390 . S
C3094 C3088 1.465 . S
C3094 C3093 1.396 . S
C3094 C3095 1.399 . S
C3095 H3081 0.929 . S
C3095 C3094 1.399 . S
C3095 C3096 1.385 . S
C3096 H3082 0.931 . S
C3096 C3095 1.385 . S
C3096 C3097 1.389 . S
C3097 C3096 1.389 . S
C3097 C3098 1.387 . S
C3098 H3083 0.930 . S
C3098 C3093 1.390 . S
C3098 C3097 1.387 . S
H3099 C3111 0.930 . S
H3100 C3113 0.930 . S
H3101 C3114 0.930 . S
H3102 C3118 0.959 . S
H3103 C3118 0.959 . S
H3104 C3118 0.961 . S
H3105 C3119 0.960 . S
H3106 C3119 0.961 . S
H3107 C3119 0.959 . S
H3108 C3122 0.929 . S
H3109 C3123 0.931 . S
H3110 C3125 0.930 . S
C3111 H3099 0.930 . S
C3111 C3112 1.399 . S
C3111 C3116 1.399 . S
C3112 C3111 1.399 . S
C3112 C3113 1.376 . S
C3113 H3100 0.930 . S
C3113 C3112 1.376 . S
C3113 C3114 1.388 . S
C3114 H3101 0.930 . S
C3114 C3113 1.388 . S
C3114 C3115 1.390 . S
C3115 C3114 1.390 . S
C3115 C3116 1.394 . S
C3115 C3121 1.465 . S
C3116 C3111 1.399 . S
C3116 C3115 1.394 . S
C3116 C3117 1.516 . S
C3117 C3116 1.516 . S
C3117 C3118 1.502 . S
C3117 C3119 1.561 . S
C3117 C3120 1.526 . S
C3118 H3102 0.959 . S
C3118 H3103 0.959 . S
C3118 H3104 0.961 . S
C3118 C3117 1.502 . S
C3119 H3105 0.960 . S
C3119 H3106 0.961 . S
C3119 H3107 0.959 . S
C3119 C3117 1.561 . S
C3120 C3117 1.526 . S
C3120 C3121 1.396 . S
C3120 C3125 1.390 . S
C3121 C3115 1.465 . S
C3121 C3120 1.396 . S
C3121 C3122 1.399 . S
C3122 H3108 0.929 . S
C3122 C3121 1.399 . S
C3122 C3123 1.385 . S
C3123 H3109 0.931 . S
C3123 C3122 1.385 . S
C3123 C3124 1.389 . S
C3124 C3123 1.389 . S
C3124 C3125 1.387 . S
C3125 H3110 0.930 . S
C3125 C3120 1.390 . S
C3125 C3124 1.387 . S
H3126 C3138 0.930 . S
H3127 C3140 0.930 . S
H3128 C3141 0.930 . S
H3129 C3145 0.959 . S
H3130 C3145 0.959 . S
H3131 C3145 0.961 . S
H3132 C3146 0.960 . S
H3133 C3146 0.961 . S
H3134 C3146 0.959 . S
H3135 C3149 0.929 . S
H3136 C3150 0.931 . S
H3137 C3152 0.930 . S
C3138 H3126 0.930 . S
C3138 C3139 1.399 . S
C3138 C3143 1.399 . S
C3139 C3138 1.399 . S
C3139 C3140 1.376 . S
C3140 H3127 0.930 . S
C3140 C3139 1.376 . S
C3140 C3141 1.388 . S
C3141 H3128 0.930 . S
C3141 C3140 1.388 . S
C3141 C3142 1.390 . S
C3142 C3141 1.390 . S
C3142 C3143 1.394 . S
C3142 C3148 1.465 . S
C3143 C3138 1.399 . S
C3143 C3142 1.394 . S
C3143 C3144 1.516 . S
C3144 C3143 1.516 . S
C3144 C3145 1.502 . S
C3144 C3146 1.561 . S
C3144 C3147 1.526 . S
C3145 H3129 0.959 . S
C3145 H3130 0.959 . S
C3145 H3131 0.961 . S
C3145 C3144 1.502 . S
C3146 H3132 0.960 . S
C3146 H3133 0.961 . S
C3146 H3134 0.959 . S
C3146 C3144 1.561 . S
C3147 C3144 1.526 . S
C3147 C3148 1.396 . S
C3147 C3152 1.390 . S
C3148 C3142 1.465 . S
C3148 C3147 1.396 . S
C3148 C3149 1.399 . S
C3149 H3135 0.929 . S
C3149 C3148 1.399 . S
C3149 C3150 1.385 . S
C3150 H3136 0.931 . S
C3150 C3149 1.385 . S
C3150 C3151 1.389 . S
C3151 C3150 1.389 . S
C3151 C3152 1.387 . S
C3152 H3137 0.930 . S
C3152 C3147 1.390 . S
C3152 C3151 1.387 . S
H3153 C3165 0.930 . S
H3154 C3167 0.930 . S
H3155 C3168 0.930 . S
H3156 C3172 0.959 . S
H3157 C3172 0.959 . S
H3158 C3172 0.961 . S
H3159 C3173 0.960 . S
H3160 C3173 0.961 . S
H3161 C3173 0.959 . S
H3162 C3176 0.929 . S
H3163 C3177 0.931 . S
H3164 C3179 0.930 . S
C3165 H3153 0.930 . S
C3165 C3166 1.399 . S
C3165 C3170 1.399 . S
C3166 C3165 1.399 . S
C3166 C3167 1.376 . S
C3167 H3154 0.930 . S
C3167 C3166 1.376 . S
C3167 C3168 1.388 . S
C3168 H3155 0.930 . S
C3168 C3167 1.388 . S
C3168 C3169 1.390 . S
C3169 C3168 1.390 . S
C3169 C3170 1.394 . S
C3169 C3175 1.465 . S
C3170 C3165 1.399 . S
C3170 C3169 1.394 . S
C3170 C3171 1.516 . S
C3171 C3170 1.516 . S
C3171 C3172 1.502 . S
C3171 C3173 1.561 . S
C3171 C3174 1.526 . S
C3172 H3156 0.959 . S
C3172 H3157 0.959 . S
C3172 H3158 0.961 . S
C3172 C3171 1.502 . S
C3173 H3159 0.960 . S
C3173 H3160 0.961 . S
C3173 H3161 0.959 . S
C3173 C3171 1.561 . S
C3174 C3171 1.526 . S
C3174 C3175 1.396 . S
C3174 C3179 1.390 . S
C3175 C3169 1.465 . S
C3175 C3174 1.396 . S
C3175 C3176 1.399 . S
C3176 H3162 0.929 . S
C3176 C3175 1.399 . S
C3176 C3177 1.385 . S
C3177 H3163 0.931 . S
C3177 C3176 1.385 . S
C3177 C3178 1.389 . S
C3178 C3177 1.389 . S
C3178 C3179 1.387 . S
C3179 H3164 0.930 . S
C3179 C3174 1.390 . S
C3179 C3178 1.387 . S
C1261 C942 1.041 . S
C1249 C898 1.044 . S
C1276 C820 1.044 . S
C1288 C940 1.039 . S
C1315 C941 1.041 . S
C1303 C781 1.038 . S
C1330 C859 1.045 . S
C1342 C943 1.042 . S
C1369 C987 1.042 . S
C1357 C625 1.036 . S
C1396 C1047 1.041 . S
C1384 C664 1.035 . S
C1411 C703 1.045 . S
C1423 C986 1.040 . S
C1450 C1046 1.040 . S
C1438 C742 1.042 . S
C1465 C469 1.039 . S
C1477 C988 1.045 . S
C1504 C1044 1.041 . S
C1492 C508 1.047 . S
C1519 C547 1.037 . S
C1531 C989 1.041 . S
C1546 C586 1.045 . S
C1558 C1045 1.042 . S
C1585 C1095 1.042 . S
C1573 C430 1.038 . S
C1600 C352 1.043 1_556 S
C1612 C1094 1.040 1_556 S
C1627 C313 1.038 . S
C1639 C1096 1.040 1_556 S
C1666 C1097 1.041 . S
C1654 C391 1.044 1_554 S
C1681 C157 1.040 . S
C1693 C1138 1.042 . S
C1708 C196 1.044 1_545 S
C1720 C1197 1.040 . S
C1735 C235 1.040 . S
C1747 C1136 1.042 . S
C1762 C274 1.045 1_545 S
C1774 C1196 1.041 . S
C1801 C1137 1.040 . S
C1789 C1 1.045 . S
C1828 C1194 1.041 1_565 S
C1816 C40 1.043 1_565 S
C1843 C79 1.042 1_655 S
C1855 C1139 1.042 . S
C1882 C1195 1.041 . S
C1870 C118 1.038 . S
C1909 C939 1.953 . S
C1897 C16 1.793 . S
C1924 C60 1.799 1_565 S
C1936 C945 1.950 1_565 S
C1951 C99 1.865 . S
C1963 C937 1.935 . S
C1978 C133 1.814 1_545 S
C1990 C944 1.943 . S
C2005 C172 1.784 . S
C2017 C936 1.956 . S
C2044 C946 1.937 . S
C2032 C211 1.854 . S
C2059 C255 1.805 1_655 S
C2071 C938 1.955 1_655 S
C2098 C947 1.929 1_565 S
C2086 C294 1.868 1_545 S
C2125 C993 1.952 1_565 S
C2113 C138 1.796 1_565 S
C2140 C21 1.789 . S
C2152 C1036 1.960 . S
C2179 C991 1.939 1_565 S
C2167 C55 1.840 . S
C2206 C1038 1.928 . S
C2194 C94 1.853 1_655 S
C2221 C216 1.787 . S
C2233 C992 1.961 . S
C2260 C1037 1.928 . S
C2248 C250 1.849 1_655 S
C2287 C990 1.936 . S
C2275 C289 1.851 . S
C2314 C1039 1.933 . S
C2302 C177 1.868 . S
C2341 C1043 1.934 . S
C2329 C328 1.860 . S
C2356 C367 1.786 . S
C2368 C1042 1.957 1_556 S
C2395 C994 1.952 . S
C2383 C333 1.796 1_554 S
C2422 C1041 1.951 . S
C2410 C411 1.797 1_554 S
C2437 C445 1.852 . S
C2449 C997 1.937 1_556 S
C2464 C450 1.786 1_556 S
C2476 C1040 1.955 1_556 S
C2503 C996 1.933 . S
C2491 C372 1.869 . S
C2530 C995 1.934 . S
C2518 C406 1.853 . S
C2557 C1089 1.953 . S
C2545 C484 1.796 . S
C2584 C1092 1.938 . S
C2572 C528 1.853 . S
C2599 C567 1.793 . S
C2611 C1088 1.960 . S
C2638 C1090 1.929 . S
C2626 C601 1.868 . S
C2665 C1086 1.950 . S
C2653 C640 1.804 . S
C2680 C679 1.856 . S
C2692 C1091 1.934 . S
C2707 C723 1.789 . S
C2719 C1087 1.957 . S
C2746 C1093 1.938 . S
C2734 C762 1.849 . S
C2773 C1147 1.952 . S
C2761 C606 1.799 . S
C2788 C489 1.863 . S
C2800 C1186 1.935 . S
C2827 C1146 1.950 . S
C2815 C523 1.791 . S
C2854 C1188 1.928 . S
C2842 C562 1.849 . S
C2881 C1145 1.940 . S
C2869 C684 1.851 . S
C2896 C718 1.798 . S
C2908 C1187 1.954 . S
C2935 C1144 1.938 . S
C2923 C757 1.847 . S
C2962 C1189 1.932 . S
C2950 C645 1.867 . S
C2989 C1193 1.949 . S
C2977 C796 1.802 . S
C3004 C835 1.801 . S
C3016 C1192 1.946 . S
C3043 C1140 1.930 . S
C3031 C801 1.867 . S
C3058 C879 1.841 . S
C3070 C1191 1.944 . S
C3097 C1143 1.932 . S
C3085 C913 1.860 . S
C3124 C1190 1.951 . S
C3112 C918 1.794 . S
C3151 C1141 1.953 . S
C3139 C840 1.798 . S
C3166 C874 1.847 . S
C3178 C1142 1.937 . S
