# Generated by pormake.
# Topology eea, (3,6)-cn, num edge types: 1
# Building blocks:
#     Node 0, Type 0, BuildingBlock: CUQRIR_clean_linker_1, # of connection points: 3
#     Node 1, Type 0, BuildingBlock: CUQRIR_clean_linker_1, # of connection points: 3
#     Node 2, Type 0, BuildingBlock: CUQRIR_clean_linker_1, # of connection points: 3
#     Node 3, Type 0, BuildingBlock: CUQRIR_clean_linker_1, # of connection points: 3
#     Node 4, Type 0, BuildingBlock: CUQRIR_clean_linker_1, # of connection points: 3
#     Node 5, Type 0, BuildingBlock: CUQRIR_clean_linker_1, # of connection points: 3
#     Node 6, Type 0, BuildingBlock: CUQRIR_clean_linker_1, # of connection points: 3
#     Node 7, Type 0, BuildingBlock: CUQRIR_clean_linker_1, # of connection points: 3
#     Node 8, Type 0, BuildingBlock: CUQRIR_clean_linker_1, # of connection points: 3
#     Node 9, Type 0, BuildingBlock: CUQRIR_clean_linker_1, # of connection points: 3
#     Node 10, Type 0, BuildingBlock: CUQRIR_clean_linker_1, # of connection points: 3
#     Node 11, Type 0, BuildingBlock: CUQRIR_clean_linker_1, # of connection points: 3
#     Node 12, Type 0, BuildingBlock: CUQRIR_clean_linker_1, # of connection points: 3
#     Node 13, Type 0, BuildingBlock: CUQRIR_clean_linker_1, # of connection points: 3
#     Node 14, Type 0, BuildingBlock: CUQRIR_clean_linker_1, # of connection points: 3
#     Node 15, Type 0, BuildingBlock: CUQRIR_clean_linker_1, # of connection points: 3
#     Node 16, Type 0, BuildingBlock: CUQRIR_clean_linker_1, # of connection points: 3
#     Node 17, Type 0, BuildingBlock: CUQRIR_clean_linker_1, # of connection points: 3
#     Node 18, Type 1, BuildingBlock: CUWYAW_clean_sbu_0, # of connection points: 6
#     Node 19, Type 1, BuildingBlock: CUWYAW_clean_sbu_0, # of connection points: 6
#     Node 20, Type 1, BuildingBlock: CUWYAW_clean_sbu_0, # of connection points: 6
#     Node 21, Type 1, BuildingBlock: CUWYAW_clean_sbu_0, # of connection points: 6
#     Node 22, Type 1, BuildingBlock: CUWYAW_clean_sbu_0, # of connection points: 6
#     Node 23, Type 1, BuildingBlock: CUWYAW_clean_sbu_0, # of connection points: 6
#     Node 24, Type 1, BuildingBlock: CUWYAW_clean_sbu_0, # of connection points: 6
#     Node 25, Type 1, BuildingBlock: CUWYAW_clean_sbu_0, # of connection points: 6
#     Node 26, Type 1, BuildingBlock: CUWYAW_clean_sbu_0, # of connection points: 6
#     Edge 27, Type (0, 1), BuildingBlock: ZUJKAS_clean_linker_0, # of connection points: 2
#     Edge 28, Type (0, 1), BuildingBlock: ZUJKAS_clean_linker_0, # of connection points: 2
#     Edge 29, Type (0, 1), BuildingBlock: ZUJKAS_clean_linker_0, # of connection points: 2
#     Edge 30, Type (0, 1), BuildingBlock: ZUJKAS_clean_linker_0, # of connection points: 2
#     Edge 31, Type (0, 1), BuildingBlock: ZUJKAS_clean_linker_0, # of connection points: 2
#     Edge 32, Type (0, 1), BuildingBlock: ZUJKAS_clean_linker_0, # of connection points: 2
#     Edge 33, Type (0, 1), BuildingBlock: ZUJKAS_clean_linker_0, # of connection points: 2
#     Edge 34, Type (0, 1), BuildingBlock: ZUJKAS_clean_linker_0, # of connection points: 2
#     Edge 35, Type (0, 1), BuildingBlock: ZUJKAS_clean_linker_0, # of connection points: 2
#     Edge 36, Type (0, 1), BuildingBlock: ZUJKAS_clean_linker_0, # of connection points: 2
#     Edge 37, Type (0, 1), BuildingBlock: ZUJKAS_clean_linker_0, # of connection points: 2
#     Edge 38, Type (0, 1), BuildingBlock: ZUJKAS_clean_linker_0, # of connection points: 2
#     Edge 39, Type (0, 1), BuildingBlock: ZUJKAS_clean_linker_0, # of connection points: 2
#     Edge 40, Type (0, 1), BuildingBlock: ZUJKAS_clean_linker_0, # of connection points: 2
#     Edge 41, Type (0, 1), BuildingBlock: ZUJKAS_clean_linker_0, # of connection points: 2
#     Edge 42, Type (0, 1), BuildingBlock: ZUJKAS_clean_linker_0, # of connection points: 2
#     Edge 43, Type (0, 1), BuildingBlock: ZUJKAS_clean_linker_0, # of connection points: 2
#     Edge 44, Type (0, 1), BuildingBlock: ZUJKAS_clean_linker_0, # of connection points: 2
#     Edge 45, Type (0, 1), BuildingBlock: ZUJKAS_clean_linker_0, # of connection points: 2
#     Edge 46, Type (0, 1), BuildingBlock: ZUJKAS_clean_linker_0, # of connection points: 2
#     Edge 47, Type (0, 1), BuildingBlock: ZUJKAS_clean_linker_0, # of connection points: 2
#     Edge 48, Type (0, 1), BuildingBlock: ZUJKAS_clean_linker_0, # of connection points: 2
#     Edge 49, Type (0, 1), BuildingBlock: ZUJKAS_clean_linker_0, # of connection points: 2
#     Edge 50, Type (0, 1), BuildingBlock: ZUJKAS_clean_linker_0, # of connection points: 2
#     Edge 51, Type (0, 1), BuildingBlock: ZUJKAS_clean_linker_0, # of connection points: 2
#     Edge 52, Type (0, 1), BuildingBlock: ZUJKAS_clean_linker_0, # of connection points: 2
#     Edge 53, Type (0, 1), BuildingBlock: ZUJKAS_clean_linker_0, # of connection points: 2
#     Edge 54, Type (0, 1), BuildingBlock: ZUJKAS_clean_linker_0, # of connection points: 2
#     Edge 55, Type (0, 1), BuildingBlock: ZUJKAS_clean_linker_0, # of connection points: 2
#     Edge 56, Type (0, 1), BuildingBlock: ZUJKAS_clean_linker_0, # of connection points: 2
#     Edge 57, Type (0, 1), BuildingBlock: ZUJKAS_clean_linker_0, # of connection points: 2
#     Edge 58, Type (0, 1), BuildingBlock: ZUJKAS_clean_linker_0, # of connection points: 2
#     Edge 59, Type (0, 1), BuildingBlock: ZUJKAS_clean_linker_0, # of connection points: 2
#     Edge 60, Type (0, 1), BuildingBlock: ZUJKAS_clean_linker_0, # of connection points: 2
#     Edge 61, Type (0, 1), BuildingBlock: ZUJKAS_clean_linker_0, # of connection points: 2
#     Edge 62, Type (0, 1), BuildingBlock: ZUJKAS_clean_linker_0, # of connection points: 2
#     Edge 63, Type (0, 1), BuildingBlock: ZUJKAS_clean_linker_0, # of connection points: 2
#     Edge 64, Type (0, 1), BuildingBlock: ZUJKAS_clean_linker_0, # of connection points: 2
#     Edge 65, Type (0, 1), BuildingBlock: ZUJKAS_clean_linker_0, # of connection points: 2
#     Edge 66, Type (0, 1), BuildingBlock: ZUJKAS_clean_linker_0, # of connection points: 2
#     Edge 67, Type (0, 1), BuildingBlock: ZUJKAS_clean_linker_0, # of connection points: 2
#     Edge 68, Type (0, 1), BuildingBlock: ZUJKAS_clean_linker_0, # of connection points: 2
#     Edge 69, Type (0, 1), BuildingBlock: ZUJKAS_clean_linker_0, # of connection points: 2
#     Edge 70, Type (0, 1), BuildingBlock: ZUJKAS_clean_linker_0, # of connection points: 2
#     Edge 71, Type (0, 1), BuildingBlock: ZUJKAS_clean_linker_0, # of connection points: 2
#     Edge 72, Type (0, 1), BuildingBlock: ZUJKAS_clean_linker_0, # of connection points: 2
#     Edge 73, Type (0, 1), BuildingBlock: ZUJKAS_clean_linker_0, # of connection points: 2
#     Edge 74, Type (0, 1), BuildingBlock: ZUJKAS_clean_linker_0, # of connection points: 2
#     Edge 75, Type (0, 1), BuildingBlock: ZUJKAS_clean_linker_0, # of connection points: 2
#     Edge 76, Type (0, 1), BuildingBlock: ZUJKAS_clean_linker_0, # of connection points: 2
#     Edge 77, Type (0, 1), BuildingBlock: ZUJKAS_clean_linker_0, # of connection points: 2
#     Edge 78, Type (0, 1), BuildingBlock: ZUJKAS_clean_linker_0, # of connection points: 2
#     Edge 79, Type (0, 1), BuildingBlock: ZUJKAS_clean_linker_0, # of connection points: 2
#     Edge 80, Type (0, 1), BuildingBlock: ZUJKAS_clean_linker_0, # of connection points: 2
# Relax obj value: 0.103
# Max RMSD: 0.235
# Mean RMSD: 0.171
data_MOF--net-eea--node1-CUWYAW_clean_sbu_0--node2-CUQRIR_clean_linker_1--edge1-ZUJKAS_clean_linker_0
_symmetry_space_group_name_H-M    P1
_symmetry_Int_Tables_number       1
_symmetry_cell_setting            triclinic
loop_
_symmetry_equiv_pos_as_xyz
'x, y, z'
_cell_length_a     65.875804
_cell_length_b     65.909381
_cell_length_c     81.729146
_cell_angle_alpha  87.544314
_cell_angle_beta   93.573605
_cell_angle_gamma 119.58546
loop_
_atom_site_label
_atom_site_type_symbol
_atom_site_fract_x
_atom_site_fract_y
_atom_site_fract_z
_atom_type_partial_charge
C0 C 0.2193 0.11248 0.40446 0.0
N1 N 0.22601 0.13005 0.41518 0.0
N2 N 0.22399 0.0959 0.41098 0.0
C3 C 0.2096 0.1122 0.38726 0.0
C4 C 0.23384 0.10404 0.42602 0.0
N5 N 0.23531 0.12491 0.42849 0.0
C6 C 0.2398 0.09054 0.43892 0.0
H7 H 0.1903 0.10395 0.3874 0.0
H8 H 0.21395 0.10198 0.37912 0.0
H9 H 0.21657 0.13021 0.38225 0.0
H10 H 0.25837 0.09529 0.43804 0.0
H11 H 0.22877 0.07147 0.43712 0.0
H12 H 0.23745 0.09478 0.4514 0.0
C13 C 0.90044 0.13078 0.41703 0.0
N14 N 0.91268 0.14722 0.42858 0.0
N15 N 0.88187 0.11212 0.42357 0.0
C16 C 0.90758 0.13198 0.39973 0.0
C17 C 0.88326 0.11766 0.4395 0.0
N18 N 0.90212 0.13883 0.44261 0.0
C19 C 0.86519 0.10315 0.4517 0.0
H20 H 0.90056 0.1415 0.39193 0.0
H21 H 0.90051 0.11425 0.39469 0.0
H22 H 0.9269 0.14143 0.39917 0.0
H23 H 0.87105 0.09218 0.45891 0.0
H24 H 0.84802 0.09155 0.44547 0.0
H25 H 0.86302 0.11443 0.46032 0.0
C26 C 0.89471 0.7957 0.41134 0.0
N27 N 0.90874 0.79253 0.42277 0.0
N28 N 0.88078 0.80203 0.41854 0.0
C29 C 0.89566 0.79426 0.39311 0.0
C30 C 0.88683 0.80271 0.4347 0.0
N31 N 0.90408 0.7973 0.43724 0.0
C32 C 0.87447 0.80661 0.4481 0.0
H33 H 0.91379 0.8002 0.38964 0.0
H34 H 0.88906 0.805 0.3864 0.0
H35 H 0.8845 0.77585 0.38933 0.0
H36 H 0.85648 0.80242 0.44396 0.0
H37 H 0.88442 0.82522 0.45164 0.0
H38 H 0.87357 0.79581 0.45911 0.0
C39 C 0.12314 0.27514 0.63742 0.0
N40 N 0.14076 0.28421 0.62701 0.0
N41 N 0.10794 0.28298 0.63351 0.0
C42 C 0.12084 0.25883 0.65152 0.0
C43 C 0.117 0.29722 0.62035 0.0
N44 N 0.13716 0.29817 0.61652 0.0
C45 C 0.10473 0.30779 0.61006 0.0
H46 H 0.11166 0.24063 0.64706 0.0
H47 H 0.11057 0.26019 0.66125 0.0
H48 H 0.13833 0.26271 0.65675 0.0
H49 H 0.1119 0.32619 0.61372 0.0
H50 H 0.08565 0.29834 0.61176 0.0
H51 H 0.10776 0.30771 0.59686 0.0
C52 C 0.78739 0.89959 0.63723 0.0
N53 N 0.77904 0.88161 0.62672 0.0
N54 N 0.77831 0.91369 0.63312 0.0
C55 C 0.80367 0.90287 0.65186 0.0
C56 C 0.76407 0.90358 0.61977 0.0
N57 N 0.76428 0.88388 0.616 0.0
C58 C 0.75156 0.91401 0.60959 0.0
H59 H 0.80017 0.88576 0.65725 0.0
H60 H 0.80197 0.91339 0.66137 0.0
H61 H 0.82191 0.91212 0.64786 0.0
H62 H 0.75976 0.93306 0.61153 0.0
H63 H 0.73314 0.90556 0.61317 0.0
H64 H 0.75153 0.91085 0.59636 0.0
C65 C 0.11003 0.92698 0.62999 0.0
N66 N 0.09975 0.90898 0.61936 0.0
N67 N 0.13145 0.9432 0.62506 0.0
C68 C 0.09998 0.92788 0.64579 0.0
C69 C 0.13382 0.93439 0.61109 0.0
N70 N 0.11471 0.91349 0.60773 0.0
C71 C 0.15387 0.94716 0.59995 0.0
H72 H 0.0889 0.93613 0.6434 0.0
H73 H 0.11404 0.93836 0.65503 0.0
H74 H 0.08893 0.91006 0.65084 0.0
H75 H 0.16724 0.9419 0.60316 0.0
H76 H 0.16207 0.96632 0.60134 0.0
H77 H 0.14793 0.94274 0.58693 0.0
C78 C 0.88079 0.44631 0.73746 0.0
N79 N 0.88835 0.46444 0.7478 0.0
N80 N 0.88627 0.43025 0.74385 0.0
C81 C 0.86938 0.44489 0.7207 0.0
C82 C 0.89748 0.43922 0.75841 0.0
N83 N 0.89896 0.46014 0.76075 0.0
C84 C 0.90498 0.42652 0.77095 0.0
H85 H 0.85022 0.43672 0.72181 0.0
H86 H 0.87279 0.43404 0.71248 0.0
H87 H 0.87583 0.46254 0.71514 0.0
H88 H 0.92367 0.43216 0.76952 0.0
H89 H 0.89465 0.40737 0.76929 0.0
H90 H 0.90299 0.43065 0.78358 0.0
C91 C 0.57237 0.46962 0.75065 0.0
N92 N 0.58414 0.48612 0.76224 0.0
N93 N 0.5527 0.45166 0.75668 0.0
C94 C 0.57982 0.47141 0.73337 0.0
C95 C 0.55301 0.45773 0.77233 0.0
N96 N 0.57214 0.47854 0.77576 0.0
C97 C 0.53456 0.44329 0.78429 0.0
H98 H 0.57486 0.48305 0.72612 0.0
H99 H 0.5713 0.45425 0.72732 0.0
H100 H 0.59908 0.47919 0.73326 0.0
H101 H 0.52602 0.42447 0.7814 0.0
H102 H 0.52106 0.44874 0.78347 0.0
H103 H 0.54213 0.446 0.79705 0.0
C104 C 0.56895 0.14326 0.75384 0.0
N105 N 0.58237 0.1373 0.76387 0.0
N106 N 0.55653 0.1498 0.76271 0.0
C107 C 0.56881 0.14396 0.73541 0.0
C108 C 0.56291 0.14773 0.77846 0.0
N109 N 0.57889 0.14047 0.77916 0.0
C110 C 0.55192 0.15079 0.7931 0.0
H111 H 0.56355 0.15666 0.73031 0.0
H112 H 0.55604 0.12643 0.73067 0.0
H113 H 0.58631 0.14877 0.73114 0.0
H114 H 0.53292 0.14387 0.79052 0.0
H115 H 0.55997 0.16969 0.79559 0.0
H116 H 0.55455 0.14199 0.80424 0.0
C117 C 0.78619 0.60604 0.96548 0.0
N118 N 0.8034 0.61377 0.95472 0.0
N119 N 0.76687 0.60542 0.9582 0.0
C120 C 0.78736 0.59681 0.98247 0.0
C121 C 0.77281 0.61282 0.94266 0.0
N122 N 0.79496 0.61775 0.94051 0.0
C123 C 0.75723 0.61604 0.92981 0.0
H124 H 0.76968 0.58435 0.98668 0.0
H125 H 0.79575 0.61165 0.99106 0.0
H126 H 0.79803 0.58799 0.9829 0.0
H127 H 0.74431 0.61934 0.93555 0.0
H128 H 0.74757 0.59991 0.92251 0.0
H129 H 0.76768 0.63076 0.92138 0.0
C130 C 0.45002 0.22862 0.96933 0.0
N131 N 0.44279 0.21109 0.95855 0.0
N132 N 0.44139 0.24292 0.96462 0.0
C133 C 0.46481 0.23132 0.98473 0.0
C134 C 0.42862 0.23343 0.95061 0.0
N135 N 0.42918 0.21384 0.94703 0.0
C136 C 0.41757 0.24457 0.93959 0.0
H137 H 0.4606 0.214 0.9901 0.0
H138 H 0.46225 0.24164 0.99394 0.0
H139 H 0.48347 0.24051 0.98166 0.0
H140 H 0.42537 0.26345 0.94206 0.0
H141 H 0.39861 0.23586 0.94174 0.0
H142 H 0.41959 0.24239 0.92651 0.0
C143 C 0.77392 0.25581 0.96418 0.0
N144 N 0.76323 0.23819 0.95325 0.0
N145 N 0.79449 0.27291 0.95861 0.0
C146 C 0.76544 0.25544 0.98092 0.0
C147 C 0.79601 0.26504 0.94395 0.0
N148 N 0.77719 0.24388 0.94078 0.0
C149 C 0.81495 0.27884 0.93215 0.0
H150 H 0.75377 0.26315 0.98006 0.0
H151 H 0.7803 0.26586 0.98966 0.0
H152 H 0.75547 0.23731 0.98574 0.0
H153 H 0.82249 0.29786 0.93389 0.0
H154 H 0.80812 0.27456 0.91927 0.0
H155 H 0.82908 0.27438 0.93438 0.0
C156 C 0.55073 0.77898 0.07102 0.0
N157 N 0.55744 0.79704 0.08127 0.0
N158 N 0.55538 0.76267 0.07812 0.0
C159 C 0.54103 0.77793 0.05373 0.0
C160 C 0.5652 0.77149 0.09304 0.0
N161 N 0.56666 0.79249 0.09489 0.0
C162 C 0.57111 0.75852 0.10639 0.0
H163 H 0.52173 0.76969 0.05383 0.0
H164 H 0.5454 0.76734 0.04596 0.0
H165 H 0.54795 0.79571 0.0483 0.0
H166 H 0.5897 0.76325 0.10572 0.0
H167 H 0.56013 0.73937 0.10494 0.0
H168 H 0.56862 0.76326 0.11868 0.0
C169 C 0.23356 0.7997 0.08463 0.0
N170 N 0.24593 0.81622 0.0961 0.0
N171 N 0.21506 0.78109 0.09128 0.0
C172 C 0.24068 0.80067 0.06734 0.0
C173 C 0.21666 0.78672 0.10721 0.0
N174 N 0.23556 0.80792 0.11021 0.0
C175 C 0.19888 0.77217 0.11956 0.0
H176 H 0.23375 0.81021 0.05946 0.0
H177 H 0.23355 0.7829 0.06238 0.0
H178 H 0.25999 0.81 0.06678 0.0
H179 H 0.20484 0.76112 0.12656 0.0
H180 H 0.18159 0.76064 0.11345 0.0
H181 H 0.19696 0.78342 0.12835 0.0
C182 C 0.22835 0.46978 0.08883 0.0
N183 N 0.2415 0.46378 0.09913 0.0
N184 N 0.20868 0.46563 0.09603 0.0
C185 C 0.23353 0.47763 0.07128 0.0
C186 C 0.21023 0.45683 0.11099 0.0
N187 N 0.23008 0.45551 0.11283 0.0
C188 C 0.193 0.45082 0.12411 0.0
H189 H 0.24476 0.49688 0.07088 0.0
H190 H 0.21724 0.47294 0.06377 0.0
H191 H 0.24297 0.4697 0.06584 0.0
H192 H 0.17986 0.432 0.12338 0.0
H193 H 0.18376 0.46104 0.12241 0.0
H194 H 0.20191 0.45419 0.13648 0.0
C195 C 0.46695 0.96383 0.30975 0.0
N196 N 0.48191 0.96814 0.29777 0.0
N197 N 0.44735 0.96377 0.30357 0.0
C198 C 0.47034 0.95704 0.32709 0.0
C199 C 0.45092 0.96814 0.28737 0.0
N200 N 0.4718 0.97058 0.28385 0.0
C201 C 0.43295 0.96753 0.27477 0.0
H202 H 0.4678 0.93908 0.32725 0.0
H203 H 0.45782 0.95766 0.33525 0.0
H204 H 0.48841 0.9689 0.33186 0.0
H205 H 0.42411 0.97663 0.27929 0.0
H206 H 0.4195 0.9491 0.27251 0.0
H207 H 0.44093 0.97588 0.26304 0.0
C208 C 0.12081 0.56316 0.30149 0.0
N209 N 0.11349 0.54596 0.29042 0.0
N210 N 0.11518 0.57952 0.29602 0.0
C211 C 0.13277 0.56352 0.31786 0.0
C212 C 0.10409 0.57156 0.28122 0.0
N213 N 0.10285 0.551 0.2779 0.0
C214 C 0.09639 0.58488 0.2694 0.0
H215 H 0.12684 0.54554 0.32263 0.0
H216 H 0.12939 0.57344 0.32691 0.0
H217 H 0.15188 0.57206 0.31635 0.0
H218 H 0.09805 0.5814 0.25653 0.0
H219 H 0.10686 0.60393 0.27152 0.0
H220 H 0.07777 0.57919 0.27118 0.0
C221 C 0.43986 0.58534 0.29699 0.0
N222 N 0.42954 0.56765 0.28609 0.0
N223 N 0.46036 0.60266 0.29149 0.0
C224 C 0.43111 0.58482 0.31366 0.0
C225 C 0.46221 0.59486 0.2769 0.0
N226 N 0.44367 0.57352 0.2737 0.0
C227 C 0.48115 0.60891 0.26515 0.0
H228 H 0.41928 0.59235 0.3127 0.0
H229 H 0.44582 0.59532 0.32248 0.0
H230 H 0.42123 0.56666 0.31845 0.0
H231 H 0.49555 0.60486 0.26748 0.0
H232 H 0.48828 0.62789 0.26682 0.0
H233 H 0.47444 0.60448 0.25226 0.0
C234 C 0.54349 1.01672 0.06509 0.0
Eu235 Eu 0.52226 1.01744 0.03742 0.0
C236 C 0.5399 1.01527 0.08267 0.0
C237 C 0.52137 1.01708 0.08864 0.0
C238 C 0.51738 1.01416 0.10539 0.0
C239 C 0.53176 1.0092 0.11635 0.0
C240 C 0.55047 1.00771 0.11027 0.0
C241 C 0.55449 1.01073 0.09355 0.0
C242 C 0.50284 0.04379 0.0258 0.0
C243 C 0.46543 0.98249 0.03364 0.0
C244 C 0.4827 0.99893 0.97106 0.0
Eu245 Eu 0.4962 1.00104 1.00167 0.0
C246 C 0.49471 1.01275 0.95648 0.0
C247 C 0.50525 1.00432 0.94629 0.0
C248 C 0.51867 0.01808 0.93347 0.0
C249 C 0.52154 0.04042 0.93038 0.0
C250 C 0.51041 0.04863 0.94018 0.0
C251 C 0.49716 0.03495 0.95316 0.0
C252 C 0.50984 0.97307 0.01802 0.0
C253 C 0.55169 0.04165 1.0053 0.0
O254 O 0.52924 0.9979 0.05682 0.0
O255 O 0.54719 0.0361 0.05746 0.0
O256 O 0.51334 0.04694 0.04027 0.0
O257 O 0.503 0.02697 0.01951 0.0
O258 O 0.48507 0.99006 0.04292 0.0
O259 O 0.46513 0.98702 0.01764 0.0
O260 O 0.47749 1.00945 0.98201 0.0
O261 O 0.49099 0.98589 0.9777 0.0
O262 O 0.49075 0.96525 1.0088 0.0
O263 O 0.52118 0.99507 0.01757 0.0
O264 O 0.53223 0.03097 0.99591 0.0
O265 O 0.55257 0.03744 0.02124 0.0
H266 H 0.50981 0.02035 0.08031 0.0
H267 H 0.50268 1.01514 0.10972 0.0
H268 H 0.56197 1.00416 0.11844 0.0
H269 H 0.56881 1.00919 0.08907 0.0
H270 H 0.50351 0.9872 0.94843 0.0
H271 H 0.52671 1.01117 0.92589 0.0
H272 H 0.51234 0.06581 0.93802 0.0
H273 H 0.48923 0.04197 0.96073 0.0
C274 C 0.99917 0.54819 0.0681 0.0
Eu275 Eu 0.99658 0.5363 0.03767 0.0
C276 C 0.00695 0.54279 0.08411 0.0
C277 C 0.01451 0.52624 0.08566 0.0
C278 C 0.02202 0.52145 0.101 0.0
C279 C 0.02194 0.53304 0.11505 0.0
C280 C 0.01432 0.54961 0.11336 0.0
C281 C 0.00692 0.55443 0.09802 0.0
C282 C 0.96347 0.49566 0.02413 0.0
C283 C 0.02897 0.51219 0.03337 0.0
C284 C 0.00402 0.51499 0.97345 0.0
Eu285 Eu 0.00625 0.5273 1.00368 0.0
C286 C 0.99534 0.51805 0.9569 0.0
C287 C 0.01134 0.53238 0.94527 0.0
C288 C 0.00369 0.53403 0.92919 0.0
C289 C 0.97986 0.52119 0.92432 0.0
C290 C 0.96378 0.50726 0.93608 0.0
C291 C 0.97143 0.50568 0.95219 0.0
C292 C 0.03963 0.56755 0.01746 0.0
C293 C 0.97488 0.55252 1.00789 0.0
O294 O 0.01554 0.56009 0.05778 0.0
O295 O 0.98047 0.53114 0.06109 0.0
O296 O 0.95875 0.5086 0.03292 0.0
O297 O 0.98523 0.50413 0.02349 0.0
O298 O 0.02379 0.52489 0.04255 0.0
O299 O 0.02102 0.50747 0.01801 0.0
O300 O 0.98851 0.5022 0.98413 0.0
O301 O 0.02196 0.53333 0.98001 0.0
O302 O 0.04419 0.55452 1.00863 0.0
O303 O 0.0179 0.5594 0.01795 0.0
O304 O 0.97934 0.53924 0.99871 0.0
O305 O 0.98292 0.55704 0.02326 0.0
H306 H 0.01455 0.51701 0.07503 0.0
H307 H 0.02759 0.50848 0.1019 0.0
H308 H 0.01441 0.55913 0.12387 0.0
H309 H 0.00124 0.56733 0.09702 0.0
H310 H 0.02988 0.54201 0.94852 0.0
H311 H 0.01652 0.54517 0.92051 0.0
H312 H 0.94535 0.49688 0.93272 0.0
H313 H 0.95863 0.49434 0.96082 0.0
C314 C 0.47161 0.4825 0.97813 0.0
Eu315 Eu 0.48189 0.49425 1.0089 0.0
C316 C 0.48392 0.48617 0.96285 0.0
C317 C 0.47329 0.48801 0.94789 0.0
C318 C 0.48432 0.49105 0.93319 0.0
C319 C 0.5063 0.49233 0.93312 0.0
C320 C 0.51709 0.49083 0.9482 0.0
C321 C 0.50599 0.48774 0.96292 0.0
C322 C 0.4916 0.53516 0.02196 0.0
C323 C 0.53846 0.51593 0.01695 0.0
C324 C 0.51252 0.51341 0.07516 0.0
Eu325 Eu 0.50205 0.50184 0.04444 0.0
C326 C 0.50055 0.5126 0.09009 0.0
C327 C 0.5037 0.50152 0.10426 0.0
C328 C 0.49353 0.5014 0.1188 0.0
C329 C 0.48012 0.51258 0.11955 0.0
C330 C 0.47655 0.52326 0.1052 0.0
C331 C 0.48662 0.52323 0.09061 0.0
C332 C 0.49259 0.46111 0.03116 0.0
C333 C 0.44598 0.48125 0.03677 0.0
O334 O 0.47443 0.46944 0.98956 0.0
O335 O 0.47197 0.5008 0.98405 0.0
O336 O 0.47389 0.5235 0.01183 0.0
O337 O 0.504 0.52549 0.02393 0.0
O338 O 0.52028 0.50533 1.00644 0.0
O339 O 0.53612 0.51922 0.03236 0.0
O340 O 0.51343 0.52795 0.06341 0.0
O341 O 0.50859 0.49339 0.06964 0.0
O342 O 0.51044 0.47291 0.04116 0.0
O343 O 0.48002 0.47061 0.02936 0.0
O344 O 0.46445 0.49255 0.04684 0.0
O345 O 0.44775 0.47697 0.02142 0.0
H346 H 0.45633 0.48698 0.94757 0.0
H347 H 0.47565 0.49249 0.92186 0.0
H348 H 0.53388 0.49152 0.94861 0.0
H349 H 0.51453 0.48633 0.97432 0.0
H350 H 0.51428 0.49311 0.10415 0.0
H351 H 0.49629 0.4926 0.12948 0.0
H352 H 0.46654 0.53224 0.10533 0.0
H353 H 0.48378 0.53185 0.07985 0.0
C354 C 0.21189 0.35529 0.40148 0.0
Eu355 Eu 0.19005 0.35268 0.37343 0.0
C356 C 0.20933 0.35741 0.41888 0.0
C357 C 0.18769 0.35219 0.42473 0.0
C358 C 0.1853 0.35302 0.44152 0.0
C359 C 0.20454 0.35912 0.45267 0.0
C360 C 0.22631 0.36493 0.44663 0.0
C361 C 0.22866 0.36406 0.42986 0.0
C362 C 0.1705 0.37833 0.36048 0.0
C363 C 0.13331 0.3173 0.37015 0.0
C364 C 0.15005 0.32798 0.30764 0.0
Eu365 Eu 0.16408 0.33365 0.33826 0.0
C366 C 0.16149 0.33999 0.29255 0.0
C367 C 0.15943 0.32669 0.279 0.0
C368 C 0.1725 0.33736 0.26529 0.0
C369 C 0.18779 0.36162 0.26481 0.0
C370 C 0.18953 0.37495 0.27835 0.0
C371 C 0.1766 0.36422 0.29214 0.0
C372 C 0.17722 0.30655 0.35642 0.0
C373 C 0.21945 0.37407 0.34091 0.0
O374 O 0.19657 0.33548 0.39468 0.0
O375 O 0.21639 0.37359 0.39215 0.0
O376 O 0.18104 0.38224 0.37495 0.0
O377 O 0.17071 0.36119 0.35473 0.0
O378 O 0.15297 0.32545 0.37947 0.0
O379 O 0.13303 0.32098 0.35404 0.0
O380 O 0.14499 0.33973 0.31766 0.0
O381 O 0.15916 0.31624 0.31522 0.0
O382 O 0.15805 0.29832 0.3473 0.0
O383 O 0.18893 0.32846 0.35502 0.0
O384 O 0.1999 0.36305 0.3317 0.0
O385 O 0.22035 0.37084 0.35697 0.0
H386 H 0.17259 0.34704 0.41636 0.0
H387 H 0.16824 0.34818 0.4458 0.0
H388 H 0.2415 0.37 0.45488 0.0
H389 H 0.2455 0.36824 0.42548 0.0
H390 H 0.14822 0.30791 0.27923 0.0
H391 H 0.171 0.32646 0.25522 0.0
H392 H 0.20086 0.39369 0.27834 0.0
H393 H 0.17881 0.37482 0.30258 0.0
C394 C 0.66546 0.87569 0.403 0.0
Eu395 Eu 0.66135 0.86543 0.37207 0.0
C396 C 0.67284 0.86934 0.419 0.0
C397 C 0.65824 0.84823 0.42711 0.0
C398 C 0.6648 0.84327 0.44273 0.0
C399 C 0.68609 0.85928 0.45059 0.0
C400 C 0.70087 0.88017 0.44233 0.0
C401 C 0.69427 0.88517 0.42675 0.0
C402 C 0.62827 0.82515 0.35806 0.0
C403 C 0.69409 0.84249 0.36492 0.0
C404 C 0.66629 0.84823 0.30641 0.0
Eu405 Eu 0.66975 0.85896 0.33716 0.0
C406 C 0.6578 0.85259 0.29018 0.0
C407 C 0.67387 0.86814 0.27901 0.0
C408 C 0.66643 0.87063 0.26304 0.0
C409 C 0.64278 0.85745 0.25783 0.0
C410 C 0.62659 0.84242 0.26917 0.0
C411 C 0.63402 0.83998 0.28516 0.0
C412 C 0.70323 0.89876 0.35142 0.0
C413 C 0.63812 0.88307 0.34403 0.0
O414 O 0.68179 0.88757 0.39264 0.0
O415 O 0.64596 0.85999 0.3958 0.0
O416 O 0.62362 0.83712 0.36787 0.0
O417 O 0.64999 0.83426 0.35675 0.0
O418 O 0.68874 0.85388 0.37523 0.0
O419 O 0.68567 0.83896 0.34962 0.0
O420 O 0.65067 0.83538 0.31702 0.0
O421 O 0.68486 0.86571 0.31323 0.0
O422 O 0.70763 0.88659 0.34162 0.0
O423 O 0.68151 0.89011 0.35258 0.0
O424 O 0.64279 0.87101 0.33384 0.0
O425 O 0.64638 0.88631 0.3594 0.0
H426 H 0.64156 0.83565 0.42153 0.0
H427 H 0.65311 0.82694 0.4487 0.0
H428 H 0.71722 0.89304 0.44813 0.0
H429 H 0.70577 0.90169 0.4209 0.0
H430 H 0.69233 0.87798 0.28247 0.0
H431 H 0.67931 0.88257 0.25468 0.0
H432 H 0.60829 0.83176 0.2655 0.0
H433 H 0.62119 0.82768 0.2934 0.0
C434 C 0.14668 0.81457 0.31363 0.0
Eu435 Eu 0.15544 0.82773 0.34411 0.0
C436 C 0.15934 0.81955 0.2984 0.0
C437 C 0.17835 0.84169 0.29507 0.0
C438 C 0.18985 0.84597 0.28039 0.0
C439 C 0.1827 0.82812 0.26889 0.0
C440 C 0.16382 0.80594 0.27242 0.0
C441 C 0.15227 0.80173 0.28701 0.0
C442 C 0.16373 0.86866 0.35632 0.0
C443 C 0.21192 0.85115 0.35362 0.0
C444 C 0.18261 0.84697 0.41088 0.0
Eu445 Eu 0.17364 0.83587 0.38002 0.0
C446 C 0.17051 0.84704 0.4255 0.0
C447 C 0.17107 0.83417 0.43947 0.0
C448 C 0.16096 0.83487 0.45381 0.0
C449 C 0.15021 0.84867 0.45458 0.0
C450 C 0.1492 0.86119 0.44045 0.0
C451 C 0.15923 0.86038 0.42604 0.0
C452 C 0.16545 0.79524 0.36718 0.0
C453 C 0.11805 0.81475 0.3708 0.0
O454 O 0.15216 0.80363 0.32529 0.0
O455 O 0.14366 0.83119 0.31917 0.0
O456 O 0.14679 0.8568 0.34568 0.0
O457 O 0.17627 0.85926 0.35913 0.0
O458 O 0.19446 0.84082 0.34253 0.0
O459 O 0.20848 0.85355 0.36897 0.0
O460 O 0.18513 0.86196 0.39904 0.0
O461 O 0.1776 0.82654 0.40547 0.0
O462 O 0.18303 0.80742 0.37726 0.0
O463 O 0.15271 0.80446 0.36495 0.0
O464 O 0.13604 0.82763 0.38087 0.0
O465 O 0.12094 0.80902 0.35616 0.0
H466 H 0.18427 0.85565 0.30379 0.0
H467 H 0.20447 0.86316 0.27812 0.0
H468 H 0.15769 0.79189 0.26375 0.0
H469 H 0.13768 0.78454 0.28937 0.0
H470 H 0.17962 0.82373 0.43936 0.0
H471 H 0.16171 0.82466 0.46433 0.0
H472 H 0.14128 0.87218 0.44063 0.0
H473 H 0.15849 0.87051 0.41546 0.0
C474 C 0.88251 0.68615 0.72837 0.0
Eu475 Eu 0.85971 0.68669 0.70144 0.0
C476 C 0.88105 0.68672 0.74609 0.0
C477 C 0.86425 0.69075 0.75271 0.0
C478 C 0.86224 0.68981 0.76968 0.0
C479 C 0.8769 0.68468 0.7802 0.0
C480 C 0.89396 0.68108 0.77345 0.0
C481 C 0.89601 0.68211 0.75651 0.0
C482 C 0.84116 0.7143 0.69091 0.0
C483 C 0.80271 0.65244 0.69889 0.0
C484 C 0.81596 0.66832 0.63602 0.0
Eu485 Eu 0.83195 0.6711 0.66616 0.0
C486 C 0.82507 0.68272 0.62124 0.0
C487 C 0.81795 0.67234 0.60581 0.0
C488 C 0.82867 0.68508 0.59178 0.0
C489 C 0.84679 0.70837 0.59299 0.0
C490 C 0.85347 0.71886 0.60846 0.0
C491 C 0.84268 0.70613 0.62246 0.0
C492 C 0.84506 0.6421 0.68169 0.0
C493 C 0.88765 0.71071 0.66887 0.0
O494 O 0.86626 0.66719 0.72113 0.0
O495 O 0.8871 0.70537 0.72013 0.0
O496 O 0.85242 0.71715 0.70505 0.0
O497 O 0.84027 0.69714 0.68431 0.0
O498 O 0.82269 0.65967 0.70771 0.0
O499 O 0.80179 0.65726 0.68298 0.0
O500 O 0.81025 0.67738 0.6477 0.0
O501 O 0.82768 0.65796 0.64155 0.0
O502 O 0.8257 0.63483 0.67287 0.0
O503 O 0.85687 0.66404 0.68123 0.0
O504 O 0.86749 0.70181 0.66018 0.0
O505 O 0.88922 0.70475 0.68437 0.0
H506 H 0.85246 0.69416 0.74475 0.0
H507 H 0.84873 0.69235 0.77453 0.0
H508 H 0.90562 0.67731 0.78128 0.0
H509 H 0.90903 0.67893 0.75153 0.0
H510 H 0.80459 0.65419 0.60468 0.0
H511 H 0.8233 0.67644 0.58006 0.0
H512 H 0.86717 0.73685 0.60976 0.0
H513 H 0.8485 0.71442 0.63427 0.0
C514 C 0.3352 0.21986 0.73456 0.0
Eu515 Eu 0.33346 0.20637 0.70474 0.0
C516 C 0.34202 0.21457 0.75095 0.0
C517 C 0.3444 0.19469 0.75384 0.0
C518 C 0.35088 0.1899 0.76955 0.0
C519 C 0.35512 0.20496 0.78261 0.0
C520 C 0.35295 0.22501 0.77951 0.0
C521 C 0.34643 0.22973 0.76384 0.0
C522 C 0.30114 0.16485 0.69193 0.0
C523 C 0.36773 0.18375 0.70256 0.0
C524 C 0.34255 0.18128 0.64213 0.0
Eu525 Eu 0.34428 0.19584 0.67157 0.0
C526 C 0.33098 0.17992 0.62587 0.0
C527 C 0.3321 0.19975 0.61789 0.0
C528 C 0.32238 0.19816 0.60196 0.0
C529 C 0.3113 0.17673 0.59376 0.0
C530 C 0.30951 0.1568 0.60206 0.0
C531 C 0.31933 0.15842 0.61792 0.0
C532 C 0.37701 0.23691 0.68468 0.0
C533 C 0.31163 0.21998 0.67369 0.0
O534 O 0.35213 0.23093 0.72451 0.0
O535 O 0.31641 0.20302 0.72746 0.0
O536 O 0.29591 0.178 0.70004 0.0
O537 O 0.32297 0.17359 0.69161 0.0
O538 O 0.36065 0.19536 0.71125 0.0
O539 O 0.36115 0.17891 0.68699 0.0
O540 O 0.32927 0.16786 0.65372 0.0
O541 O 0.35828 0.20197 0.64733 0.0
O542 O 0.38198 0.22364 0.67646 0.0
O543 O 0.3552 0.22859 0.68486 0.0
O544 O 0.31636 0.20609 0.66543 0.0
O545 O 0.31977 0.22594 0.68892 0.0
H546 H 0.34115 0.18283 0.74398 0.0
H547 H 0.35223 0.17425 0.7715 0.0
H548 H 0.35655 0.23725 0.78917 0.0
H549 H 0.34488 0.24527 0.76177 0.0
H550 H 0.34088 0.21656 0.6238 0.0
H551 H 0.32418 0.21387 0.5959 0.0
H552 H 0.30066 0.13992 0.59626 0.0
H553 H 0.31811 0.14288 0.62389 0.0
C554 C 0.80993 0.14977 0.64485 0.0
Eu555 Eu 0.81827 0.16323 0.67527 0.0
C556 C 0.82278 0.15495 0.62966 0.0
C557 C 0.81261 0.15808 0.61487 0.0
C558 C 0.82414 0.1625 0.60024 0.0
C559 C 0.84613 0.16386 0.60007 0.0
C560 C 0.85639 0.16091 0.61496 0.0
C561 C 0.84484 0.15651 0.62961 0.0
C562 C 0.82711 0.20497 0.68637 0.0
C563 C 0.87457 0.18675 0.68521 0.0
C564 C 0.84467 0.18538 0.74186 0.0
Eu565 Eu 0.83615 0.17286 0.71124 0.0
C566 C 0.83197 0.18406 0.75655 0.0
C567 C 0.83239 0.17041 0.77009 0.0
C568 C 0.82191 0.17006 0.78452 0.0
C569 C 0.81092 0.18356 0.78583 0.0
C570 C 0.81005 0.19684 0.77213 0.0
C571 C 0.82046 0.1971 0.75764 0.0
C572 C 0.82766 0.13143 0.69968 0.0
C573 C 0.78054 0.15107 0.70157 0.0
O574 O 0.8153 0.13903 0.65674 0.0
O575 O 0.80649 0.16624 0.65015 0.0
O576 O 0.8102 0.19286 0.67581 0.0
O577 O 0.8393 0.19534 0.6897 0.0
O578 O 0.85709 0.17495 0.6744 0.0
O579 O 0.87097 0.19087 0.70011 0.0
O580 O 0.84477 0.19908 0.72974 0.0
O581 O 0.8425 0.16581 0.73682 0.0
O582 O 0.84502 0.14386 0.70984 0.0
O583 O 0.81514 0.14079 0.69676 0.0
O584 O 0.79841 0.16422 0.71164 0.0
O585 O 0.78358 0.1449 0.68714 0.0
H586 H 0.79558 0.15687 0.61461 0.0
H587 H 0.81555 0.16432 0.58899 0.0
H588 H 0.8734 0.16208 0.61532 0.0
H589 H 0.8531 0.15419 0.64085 0.0
H590 H 0.84117 0.16023 0.76961 0.0
H591 H 0.82259 0.15933 0.79471 0.0
H592 H 0.80199 0.20765 0.77274 0.0
H593 H 0.81988 0.20789 0.74745 0.0
H594 H 0.25404 0.84986 0.0734 0.0
H595 H 0.29237 0.88115 0.06536 0.0
H596 H 0.32533 0.86218 0.10577 0.0
H597 H 0.28694 0.83012 0.11327 0.0
H598 H 0.32869 0.91944 0.07898 0.0
H599 H 0.35625 0.85439 0.06734 0.0
H600 H 0.3266 0.84603 0.07167 0.0
H601 H 0.34859 0.85404 0.08808 0.0
C602 C 0.26951 0.85262 0.08063 0.0
C603 C 0.26768 0.83746 0.09377 0.0
C604 C 0.29138 0.87049 0.07608 0.0
C605 C 0.31184 0.87362 0.08466 0.0
C606 C 0.30986 0.85969 0.09866 0.0
H607 H 0.4588 0.96342 0.0646 0.0
H608 H 0.42184 0.93836 0.07751 0.0
C609 C 0.28794 0.84163 0.10312 0.0
C610 C 0.33509 0.89045 0.07828 0.0
H611 H 0.38436 0.89406 0.06371 0.0
C612 C 0.34087 0.91388 0.07568 0.0
C613 C 0.35094 0.88318 0.07377 0.0
C614 C 0.34525 0.85802 0.07519 0.0
C615 C 0.36205 0.9302 0.06884 0.0
C616 C 0.37784 0.9229 0.06443 0.0
C617 C 0.37223 0.8996 0.06717 0.0
C618 C 0.40018 0.93906 0.05675 0.0
C619 C 0.36754 0.95518 0.06646 0.0
C620 C 0.40027 0.94768 0.04073 0.0
C621 C 0.42141 0.9619 0.03321 0.0
C622 C 0.44289 0.96785 0.04162 0.0
C623 C 0.44266 0.95932 0.05775 0.0
C624 C 0.42153 0.94495 0.06517 0.0
H625 H 0.35577 0.95901 0.07328 0.0
H626 H 0.38593 0.96733 0.07052 0.0
H627 H 0.36541 0.95862 0.05323 0.0
H628 H 0.38395 0.94307 0.03393 0.0
H629 H 0.4209 0.96814 0.0208 0.0
H630 H 0.1638 0.43225 0.09237 0.0
H631 H 0.13107 0.43712 0.08093 0.0
H632 H 0.17846 0.51055 0.07308 0.0
H633 H 0.21117 0.50542 0.08428 0.0
H634 H 0.11441 0.4642 0.09182 0.0
H635 H 0.14434 0.49089 0.02865 0.0
H636 H 0.15718 0.47835 0.043 0.0
H637 H 0.16578 0.50879 0.04399 0.0
C638 C 0.16705 0.44934 0.08812 0.0
C639 C 0.18974 0.46849 0.08907 0.0
C640 C 0.14849 0.45212 0.0816 0.0
C641 C 0.15243 0.47412 0.07594 0.0
C642 C 0.17516 0.49332 0.07701 0.0
H643 H 0.05468 0.5246 0.06235 0.0
H644 H 0.08301 0.51308 0.07287 0.0
C645 C 0.19374 0.49047 0.08343 0.0
C646 C 0.13264 0.47712 0.06944 0.0
H647 H 0.11336 0.49702 0.03621 0.0
C648 C 0.11405 0.47118 0.07961 0.0
C649 C 0.13207 0.48585 0.05342 0.0
C650 C 0.15079 0.49111 0.04157 0.0
C651 C 0.09517 0.4744 0.07435 0.0
C652 C 0.09522 0.48431 0.05865 0.0
C653 C 0.11348 0.4896 0.04831 0.0
C654 C 0.0769 0.49 0.05282 0.0
C655 C 0.07531 0.46702 0.08561 0.0
C656 C 0.06434 0.48113 0.03791 0.0
C657 C 0.04835 0.48794 0.03173 0.0
C658 C 0.04466 0.50373 0.04037 0.0
C659 C 0.05696 0.51224 0.05546 0.0
C660 C 0.07307 0.50557 0.06155 0.0
H661 H 0.07426 0.45335 0.09451 0.0
H662 H 0.07825 0.4823 0.0927 0.0
H663 H 0.05829 0.46023 0.07858 0.0
H664 H 0.06714 0.46917 0.03096 0.0
H665 H 0.03911 0.48105 0.02009 0.0
H666 H 0.51334 0.72974 0.06607 0.0
H667 H 0.50324 0.691 0.05626 0.0
H668 H 0.57438 0.70637 0.06666 0.0
H669 H 0.58456 0.74531 0.07616 0.0
H670 H 0.52632 0.68023 0.03036 0.0
H671 H 0.53166 0.64362 0.09211 0.0
H672 H 0.52804 0.669 0.08928 0.0
H673 H 0.55602 0.67143 0.08676 0.0
C674 C 0.52681 0.72488 0.06603 0.0
C675 C 0.54969 0.74034 0.07181 0.0
C676 C 0.52104 0.7028 0.06053 0.0
C677 C 0.53803 0.69582 0.06093 0.0
C678 C 0.56099 0.71138 0.06648 0.0
H679 H 0.53221 0.5653 0.03839 0.0
H680 H 0.54375 0.60457 0.04767 0.0
C681 C 0.56678 0.73351 0.07188 0.0
C682 C 0.53168 0.67223 0.0555 0.0
H683 H 0.52416 0.61951 0.06942 0.0
C684 C 0.5258 0.6669 0.03886 0.0
C685 C 0.53118 0.65504 0.06667 0.0
C686 C 0.53689 0.65987 0.08474 0.0
C687 C 0.51965 0.64479 0.03302 0.0
C688 C 0.51876 0.62741 0.04423 0.0
C689 C 0.5248 0.63284 0.06087 0.0
C690 C 0.51151 0.60345 0.03893 0.0
C691 C 0.51465 0.64043 0.01485 0.0
C692 C 0.48938 0.58963 0.03127 0.0
C693 C 0.48283 0.5673 0.02589 0.0
C694 C 0.49819 0.55831 0.02827 0.0
C695 C 0.52006 0.57185 0.03638 0.0
C696 C 0.52666 0.59426 0.04167 0.0
H697 H 0.52258 0.657 1.00761 0.0
H698 H 0.52138 0.62915 1.01064 0.0
H699 H 0.49548 0.63149 0.01219 0.0
H700 H 0.47717 0.59614 0.02943 0.0
H701 H 0.46577 0.5571 0.01983 0.0
H702 H 0.78554 0.30528 0.97023 0.0
H703 H 0.81419 0.34324 0.98195 0.0
H704 H 0.86939 0.32738 0.97573 0.0
H705 H 0.84069 0.28934 0.9643 0.0
H706 H 0.84792 0.35319 1.00997 0.0
H707 H 0.88993 0.39103 0.95101 0.0
H708 H 0.86126 0.36561 0.95199 0.0
H709 H 0.88688 0.36305 0.95674 0.0
C710 C 0.80376 0.30988 0.97158 0.0
C711 C 0.81103 0.29457 0.96631 0.0
C712 C 0.82009 0.33152 0.97818 0.0
C713 C 0.84393 0.33823 0.97946 0.0
C714 C 0.85112 0.3227 0.97457 0.0
H715 H 0.97116 0.46383 1.00939 0.0
H716 H 0.94186 0.42552 0.99889 0.0
C717 C 0.83479 0.30104 0.96807 0.0
C718 C 0.86135 0.36153 0.98582 0.0
H719 H 0.90778 0.4136 0.97473 0.0
C720 C 0.86096 0.36647 1.00228 0.0
C721 C 0.87838 0.37873 0.97575 0.0
C722 C 0.87915 0.37452 0.95785 0.0
C723 C 0.87748 0.38804 1.00906 0.0
C724 C 0.89446 0.40534 0.99896 0.0
C725 C 0.89477 0.40036 0.98247 0.0
C726 C 0.91213 0.42867 1.00526 0.0
C727 C 0.87696 0.39181 0.02707 0.0
C728 C 0.9052 0.44339 0.01206 0.0
C729 C 0.92191 0.46521 0.01814 0.0
C730 C 0.94586 0.47284 0.01735 0.0
C731 C 0.95281 0.45836 1.0102 0.0
C732 C 0.93609 0.43648 1.0042 0.0
H733 H 0.86759 0.375 0.0339 0.0
H734 H 0.89492 0.40195 0.03267 0.0
H735 H 0.86765 0.40173 0.02858 0.0
H736 H 0.88685 0.43804 0.01261 0.0
H737 H 0.91607 0.47613 0.02345 0.0
H738 H 0.7565 0.6211 0.98447 0.0
H739 H 0.71756 0.60556 0.99562 0.0
H740 H 0.68802 0.55366 0.95782 0.0
H741 H 0.72688 0.56924 0.94675 0.0
H742 H 0.67462 0.59962 0.97544 0.0
H743 H 0.66756 0.51826 1.00396 0.0
H744 H 0.69533 0.54367 0.99986 0.0
H745 H 0.67747 0.52513 0.98337 0.0
C746 C 0.74159 0.60635 0.97868 0.0
C747 C 0.74433 0.59629 0.96482 0.0
C748 C 0.71952 0.59755 0.98497 0.0
C749 C 0.70013 0.57843 0.97755 0.0
C750 C 0.7029 0.56832 0.96374 0.0
H751 H 0.5516 0.52107 0.98527 0.0
H752 H 0.59119 0.53656 0.97587 0.0
C753 C 0.72491 0.57723 0.95739 0.0
C754 C 0.67678 0.56936 0.98396 0.0
H755 H 0.63373 0.5223 1.00335 0.0
C756 C 0.66565 0.58278 0.9816 0.0
C757 C 0.66537 0.54744 0.99201 0.0
C758 C 0.67701 0.53276 0.9951 0.0
C759 C 0.64304 0.57457 0.98689 0.0
C760 C 0.63145 0.55243 0.99464 0.0
C761 C 0.64274 0.5392 0.99727 0.0
C762 C 0.6076 0.54284 1.00027 0.0
C763 C 0.6317 0.58958 0.98425 0.0
C764 C 0.6039 0.54102 0.01708 0.0
C765 C 0.58138 0.53223 0.0225 0.0
C766 C 0.5622 0.52491 1.01116 0.0
C767 C 0.56599 0.52647 0.9943 0.0
C768 C 0.58856 0.53542 0.9889 0.0
H769 H 0.6444 0.60773 0.98057 0.0
H770 H 0.61771 0.58198 0.97442 0.0
H771 H 0.62348 0.59005 0.99558 0.0
H772 H 0.61848 0.54662 0.02599 0.0
H773 H 0.57902 0.53113 0.03557 0.0
H774 H 0.41126 0.16679 0.96552 0.0
H775 H 0.41994 0.13581 0.97493 0.0
H776 H 0.49255 0.18108 0.96494 0.0
H777 H 0.48381 0.21223 0.95627 0.0
H778 H 0.43842 0.11131 0.96333 0.0
H779 H 0.49709 0.16853 0.01313 0.0
H780 H 0.47868 0.17613 1.00012 0.0
H781 H 0.50616 0.18098 0.99317 0.0
C782 C 0.4289 0.16974 0.96503 0.0
C783 C 0.44694 0.19166 0.9603 0.0
C784 C 0.4339 0.15218 0.97044 0.0
C785 C 0.45703 0.15635 0.97108 0.0
C786 C 0.47471 0.1777 0.96502 0.0
H787 H 0.49989 0.05201 0.99318 0.0
H788 H 0.48753 0.07818 0.97964 0.0
C789 C 0.46975 0.19535 0.95989 0.0
C790 C 0.46284 0.13907 0.9791 0.0
H791 H 0.49713 0.133 1.0098 0.0
C792 C 0.45121 0.116 0.97352 0.0
C793 C 0.4791 0.14504 0.99269 0.0
C794 C 0.49078 0.16894 1.00025 0.0
C795 C 0.45569 0.09887 0.98095 0.0
C796 C 0.47279 0.10516 0.99402 0.0
C797 C 0.48417 0.12816 0.99971 0.0
C798 C 0.47924 0.08831 1.00208 0.0
C799 C 0.44158 0.07413 0.97496 0.0
C800 C 0.47946 0.08574 0.01927 0.0
C801 C 0.48698 0.07111 0.02702 0.0
C802 C 0.49406 0.05852 0.01771 0.0
C803 C 0.49375 0.06095 1.00056 0.0
C804 C 0.48665 0.07589 0.99282 0.0
H805 H 0.42458 0.07077 0.96903 0.0
H806 H 0.45141 0.07119 0.96567 0.0
H807 H 0.43812 0.06131 0.98515 0.0
H808 H 0.474 0.09524 0.02671 0.0
H809 H 0.48724 0.06961 0.04027 0.0
H810 H 0.7222 0.23429 0.96078 0.0
H811 H 0.68609 0.19833 0.96678 0.0
H812 H 0.71804 0.15783 0.95438 0.0
H813 H 0.75471 0.19396 0.94956 0.0
H814 H 0.65565 0.16163 0.95006 0.0
H815 H 0.69785 0.13244 0.99919 0.0
H816 H 0.71288 0.16095 0.98973 0.0
H817 H 0.71004 0.1359 0.97958 0.0
C818 C 0.72149 0.21768 0.95949 0.0
C819 C 0.7413 0.21687 0.955 0.0
C820 C 0.70082 0.19713 0.96277 0.0
C821 C 0.69943 0.17529 0.96142 0.0
C822 C 0.71884 0.17443 0.95599 0.0
H823 H 0.5618 0.04855 0.97271 0.0
H824 H 0.59749 0.07915 0.96065 0.0
C825 C 0.73968 0.19505 0.95299 0.0
C826 C 0.67791 0.15369 0.96627 0.0
H827 H 0.65802 0.10688 0.99265 0.0
C828 C 0.65616 0.14961 0.95934 0.0
C829 C 0.67851 0.1381 0.97853 0.0
C830 C 0.70103 0.14213 0.98731 0.0
C831 C 0.63505 0.13079 0.96457 0.0
C832 C 0.63569 0.11507 0.97671 0.0
C833 C 0.65747 0.11882 0.9833 0.0
C834 C 0.61413 0.09573 0.98375 0.0
C835 C 0.61235 0.12868 0.95756 0.0
C836 C 0.61186 0.09415 1.00081 0.0
C837 C 0.59181 0.07634 1.00775 0.0
C838 C 0.57335 0.05976 0.9978 0.0
C839 C 0.57563 0.06116 0.98072 0.0
C840 C 0.59597 0.07879 0.97379 0.0
H841 H 0.61489 0.14539 0.95196 0.0
H842 H 0.60503 0.11535 0.94783 0.0
H843 H 0.59934 0.12325 0.96715 0.0
H844 H 0.62556 0.10695 1.0088 0.0
H845 H 0.59061 0.07591 0.02093 0.0
H846 H 0.83697 0.63656 0.97805 0.0
H847 H 0.87104 0.63148 0.98507 0.0
H848 H 0.85205 0.58496 0.94433 0.0
H849 H 0.81798 0.58997 0.93746 0.0
H850 H 0.86446 0.58665 0.99319 0.0
H851 H 0.92358 0.62654 0.94159 0.0
H852 H 0.90137 0.63388 0.94576 0.0
H853 H 0.89349 0.60714 0.93565 0.0
C854 C 0.84049 0.62568 0.97047 0.0
C855 C 0.8251 0.61366 0.95726 0.0
C856 C 0.85986 0.62283 0.97441 0.0
C857 C 0.86415 0.60805 0.9651 0.0
C858 C 0.84933 0.59684 0.95144 0.0
H859 H 0.94954 0.54213 0.97861 0.0
H860 H 0.92379 0.55705 0.96794 0.0
C861 C 0.82992 0.59967 0.94753 0.0
C862 C 0.88217 0.60195 0.97093 0.0
H863 H 0.93168 0.60241 0.9603 0.0
C864 C 0.87931 0.59031 0.98609 0.0
C865 C 0.90127 0.60648 0.96149 0.0
C866 C 0.90531 0.61936 0.94527 0.0
C867 C 0.89483 0.58265 0.992 0.0
C868 C 0.91405 0.58729 0.98264 0.0
C869 C 0.91697 0.59899 0.96746 0.0
C870 C 0.93105 0.57978 0.98842 0.0
C871 C 0.89006 0.56903 1.00797 0.0
C872 C 0.94405 0.58808 1.00324 0.0
C873 C 0.95855 0.57946 1.00945 0.0
C874 C 0.96055 0.56258 1.00082 0.0
C875 C 0.94829 0.55504 0.9856 0.0
C876 C 0.93363 0.56358 0.97945 0.0
H877 H 0.87163 0.56175 1.01132 0.0
H878 H 0.89386 0.55445 1.00731 0.0
H879 H 0.90147 0.58079 0.01793 0.0
H880 H 0.94266 0.60097 1.01016 0.0
H881 H 0.96801 0.58588 0.02109 0.0
H882 H 0.40969 0.25298 0.97539 0.0
H883 H 0.41747 0.2902 0.98695 0.0
H884 H 0.49134 0.31797 0.98177 0.0
H885 H 0.48348 0.28073 0.97027 0.0
H886 H 0.45151 0.31539 0.01605 0.0
H887 H 0.47081 0.36405 0.95648 0.0
H888 H 0.45345 0.33262 0.95775 0.0
H889 H 0.48457 0.34658 0.96119 0.0
C890 C 0.42753 0.26709 0.97684 0.0
C891 C 0.44604 0.26424 0.97205 0.0
C892 C 0.43196 0.2882 0.9834 0.0
C893 C 0.45494 0.30677 0.98507 0.0
C894 C 0.47349 0.30383 0.98047 0.0
H895 H 0.51734 0.43812 0.03514 0.0
H896 H 0.50725 0.40015 0.02404 0.0
C897 C 0.46905 0.28266 0.97402 0.0
C898 C 0.45956 0.32931 0.99154 0.0
H899 H 0.47684 0.38581 0.98034 0.0
C900 C 0.457 0.33079 1.00828 0.0
C901 C 0.46651 0.34922 0.98127 0.0
C902 C 0.4689 0.34819 0.96313 0.0
C903 C 0.4617 0.35195 0.0151 0.0
C904 C 0.46913 0.37198 1.0049 0.0
C905 C 0.47123 0.37037 0.9881 0.0
C906 C 0.47512 0.39486 1.01154 0.0
C907 C 0.45868 0.35282 0.03316 0.0
C908 C 0.46046 0.40443 1.008 0.0
C909 C 0.46608 0.42601 0.01441 0.0
C910 C 0.48662 0.43844 0.02425 0.0
C911 C 0.50138 0.42889 0.02761 0.0
C912 C 0.49565 0.40724 0.02132 0.0
H913 H 0.44915 0.33511 0.03878 0.0
H914 H 0.47613 0.36246 0.03956 0.0
H915 H 0.44904 0.3623 0.03516 0.0
H916 H 0.44456 0.39508 1.00043 0.0
H917 H 0.45432 0.43291 0.01173 0.0
H918 H 0.20473 0.73741 0.10023 0.0
H919 H 0.175 0.70099 0.08729 0.0
H920 H 0.1568 0.74066 0.05197 0.0
H921 H 0.18685 0.77705 0.06484 0.0
H922 H 0.1281 0.68318 0.08359 0.0
H923 H 0.16599 0.69822 0.0226 0.0
H924 H 0.1821 0.71576 0.04013 0.0
H925 H 0.16107 0.72125 0.02863 0.0
C926 C 0.19437 0.7382 0.08967 0.0
C927 C 0.19798 0.75984 0.08343 0.0
C928 C 0.17745 0.71749 0.08229 0.0
C929 C 0.16387 0.71808 0.06852 0.0
C930 C 0.16741 0.73977 0.06234 0.0
H931 H 0.03284 0.59946 0.03297 0.0
H932 H 0.06273 0.63599 0.04553 0.0
C933 C 0.18445 0.7605 0.06968 0.0
C934 C 0.14562 0.69596 0.06095 0.0
H935 H 0.12767 0.66604 0.02503 0.0
C936 C 0.12803 0.6794 0.07079 0.0
C937 C 0.14572 0.6909 0.04431 0.0
C938 C 0.16485 0.70735 0.03333 0.0
C939 C 0.11042 0.65804 0.06442 0.0
C940 C 0.11009 0.65332 0.04765 0.0
C941 C 0.12781 0.66977 0.03785 0.0
C942 C 0.09183 0.6312 0.04008 0.0
C943 C 0.09267 0.64053 0.07582 0.0
C944 C 0.09826 0.61664 0.03247 0.0
C945 C 0.08125 0.59593 0.02514 0.0
C946 C 0.05749 0.58941 0.02527 0.0
C947 C 0.05104 0.604 0.03281 0.0
C948 C 0.06808 0.6248 0.04007 0.0
H949 H 0.09906 0.64397 0.08886 0.0
H950 H 0.07642 0.6417 0.0744 0.0
H951 H 0.08827 0.62246 0.07294 0.0
H952 H 0.11648 0.62126 0.03228 0.0
H953 H 0.0867 0.58499 0.01941 0.0
H954 H 0.24956 0.42745 0.10134 0.0
H955 H 0.28451 0.42707 0.09291 0.0
H956 H 0.31496 0.49982 0.07895 0.0
H957 H 0.28054 0.50036 0.08814 0.0
H958 H 0.30088 0.43487 0.06268 0.0
H959 H 0.36852 0.49947 0.10504 0.0
H960 H 0.33769 0.48701 0.10802 0.0
H961 H 0.35217 0.51117 0.09396 0.0
C962 C 0.26405 0.44343 0.09687 0.0
C963 C 0.26262 0.46397 0.09542 0.0
C964 C 0.28384 0.44318 0.09193 0.0
C965 C 0.30244 0.46349 0.08548 0.0
C966 C 0.30107 0.48409 0.08423 0.0
H967 H 0.4066 0.47656 0.02008 0.0
H968 H 0.37042 0.46952 0.03205 0.0
C969 C 0.28139 0.48437 0.08931 0.0
C970 C 0.32271 0.4629 0.07917 0.0
H971 H 0.38222 0.49101 0.08116 0.0
C972 C 0.31868 0.44694 0.06685 0.0
C973 C 0.34588 0.47841 0.08479 0.0
C974 C 0.35132 0.4948 0.0988 0.0
C975 C 0.33727 0.44656 0.05963 0.0
C976 C 0.36047 0.46303 0.06458 0.0
C977 C 0.36444 0.47853 0.07723 0.0
C978 C 0.38107 0.46474 0.05689 0.0
C979 C 0.33181 0.42837 0.04694 0.0
C980 C 0.3991 0.46455 0.06685 0.0
C981 C 0.41986 0.46911 0.06011 0.0
C982 C 0.42291 0.47366 0.04323 0.0
C983 C 0.40453 0.47283 0.0331 0.0
C984 C 0.38383 0.46869 0.03992 0.0
H985 H 0.31427 0.41289 0.04847 0.0
H986 H 0.33176 0.43591 0.03455 0.0
H987 H 0.34503 0.42253 0.0476 0.0
H988 H 0.39736 0.46152 0.07996 0.0
H989 H 0.43374 0.46953 0.0682 0.0
H990 H 0.59151 0.84202 0.08292 0.0
H991 H 0.58731 0.87664 0.07644 0.0
H992 H 0.51347 0.83194 0.0659 0.0
H993 H 0.51769 0.79761 0.07274 0.0
H994 H 0.5716 0.88653 0.04649 0.0
H995 H 0.51453 0.88075 0.09541 0.0
H996 H 0.53054 0.86498 0.09648 0.0
H997 H 0.5032 0.85378 0.08474 0.0
C998 C 0.57441 0.8398 0.07945 0.0
C999 C 0.55491 0.81735 0.07822 0.0
C1000 C 0.57201 0.85945 0.07573 0.0
C1001 C 0.55002 0.85686 0.07091 0.0
C1002 C 0.53051 0.83438 0.06991 0.0
H1003 H 0.48399 0.92648 0.02349 0.0
H1004 H 0.49638 0.9009 0.038 0.0
C1005 C 0.53293 0.8148 0.07361 0.0
C1006 C 0.54752 0.87736 0.06572 0.0
H1007 H 0.51498 0.90359 0.07144 0.0
C1008 C 0.55959 0.89061 0.05213 0.0
C1009 C 0.53189 0.88265 0.07315 0.0
C1010 C 0.51948 0.86994 0.08836 0.0
C1011 C 0.55534 0.90807 0.04513 0.0
C1012 C 0.53882 0.91252 0.05207 0.0
C1013 C 0.52756 0.90002 0.06611 0.0
C1014 C 0.53145 0.92856 0.04406 0.0
C1015 C 0.5676 0.92075 0.02987 0.0
C1016 C 0.54701 0.95263 0.04287 0.0
C1017 C 0.53997 0.96729 0.03455 0.0
C1018 C 0.51725 0.95805 0.02738 0.0
C1019 C 0.50162 0.93404 0.02886 0.0
C1020 C 0.50864 0.91944 0.03719 0.0
H1021 H 0.5771 0.91273 0.02462 0.0
H1022 H 0.55485 0.92091 0.02038 0.0
H1023 H 0.58044 0.93913 0.03288 0.0
H1024 H 0.56461 0.96001 0.04827 0.0
H1025 H 0.55234 0.98577 0.03355 0.0
H1026 H 0.95335 0.16141 0.44619 0.0
H1027 H 0.99163 0.19452 0.43965 0.0
H1028 H 0.95921 0.2132 0.39871 0.0
H1029 H 0.92101 0.18083 0.40576 0.0
H1030 H 0.01329 0.19898 0.41228 0.0
H1031 H 0.00241 0.27647 0.41681 0.0
H1032 H 0.98192 0.24834 0.42514 0.0
H1033 H 0.97997 0.25495 0.40367 0.0
C1034 C 0.95441 0.17313 0.43616 0.0
C1035 C 0.93435 0.16864 0.42644 0.0
C1036 C 0.97626 0.1919 0.43233 0.0
C1037 C 0.97839 0.20656 0.41874 0.0
C1038 C 0.9581 0.20257 0.40945 0.0
H1039 H 0.08882 0.30054 0.35652 0.0
H1040 H 0.05184 0.27469 0.36934 0.0
C1041 C 0.93629 0.18394 0.41337 0.0
C1042 C 0.00188 0.22441 0.41326 0.0
H1043 H 0.03431 0.28146 0.40104 0.0
C1044 C 0.01798 0.21709 0.41007 0.0
C1045 C 0.00807 0.24807 0.41028 0.0
C1046 C 0.99225 0.25747 0.41432 0.0
C1047 C 0.03967 0.23251 0.40354 0.0
C1048 C 0.04554 0.25594 0.40015 0.0
C1049 C 0.02969 0.26343 0.40356 0.0
C1050 C 0.06794 0.27271 0.39278 0.0
C1051 C 0.05594 0.2235 0.39983 0.0
C1052 C 0.08922 0.28048 0.40181 0.0
C1053 C 0.1104 0.29532 0.39457 0.0
C1054 C 0.11073 0.30265 0.37809 0.0
C1055 C 0.08928 0.2952 0.36919 0.0
C1056 C 0.0681 0.28046 0.37651 0.0
H1057 H 0.04728 0.20416 0.40063 0.0
H1058 H 0.06266 0.22923 0.38737 0.0
H1059 H 0.07116 0.23078 0.40876 0.0
H1060 H 0.08945 0.27484 0.41444 0.0
H1061 H 0.12651 0.3007 0.40184 0.0
H1062 H 0.84346 0.77103 0.40063 0.0
H1063 H 0.81028 0.77568 0.38975 0.0
H1064 H 0.8436 0.84517 0.40932 0.0
H1065 H 0.87674 0.84045 0.4201 0.0
H1066 H 0.78203 0.78683 0.41013 0.0
H1067 H 0.82471 0.85177 0.36022 0.0
H1068 H 0.83614 0.83352 0.36885 0.0
H1069 H 0.84049 0.85851 0.37979 0.0
C1070 C 0.84372 0.78736 0.40229 0.0
C1071 C 0.86244 0.80547 0.41104 0.0
C1072 C 0.82484 0.78997 0.39621 0.0
C1073 C 0.82468 0.81082 0.39866 0.0
C1074 C 0.84362 0.82908 0.40715 0.0
H1075 H 0.71493 0.84591 0.3955 0.0
H1076 H 0.74525 0.83583 0.40365 0.0
C1077 C 0.86239 0.8264 0.41331 0.0
C1078 C 0.80422 0.81315 0.39305 0.0
H1079 H 0.78722 0.84453 0.36719 0.0
C1080 C 0.78305 0.7993 0.40066 0.0
C1081 C 0.80571 0.82934 0.38064 0.0
C1082 C 0.82791 0.84404 0.37177 0.0
C1083 C 0.76335 0.80167 0.39643 0.0
C1084 C 0.76507 0.81839 0.38439 0.0
C1085 C 0.78608 0.83181 0.37649 0.0
C1086 C 0.74539 0.82257 0.37991 0.0
C1087 C 0.74088 0.78629 0.40483 0.0
C1088 C 0.7355 0.8184 0.36389 0.0
C1089 C 0.71821 0.82413 0.35919 0.0
C1090 C 0.71069 0.83435 0.3704 0.0
C1091 C 0.72029 0.83802 0.38658 0.0
C1092 C 0.73754 0.83219 0.39128 0.0
H1093 H 0.74088 0.7709 0.41093 0.0
H1094 H 0.73866 0.79649 0.41433 0.0
H1095 H 0.72564 0.78012 0.39593 0.0
H1096 H 0.74145 0.81106 0.35496 0.0
H1097 H 0.71122 0.82109 0.34663 0.0
H1098 H 0.253 0.07847 0.40833 0.0
H1099 H 0.24248 0.03954 0.39861 0.0
H1100 H 0.17148 0.02477 0.38849 0.0
H1101 H 0.18189 0.06345 0.3986 0.0
H1102 H 0.20331 0.99479 0.4123 0.0
H1103 H 0.19378 1.00913 0.34529 0.0
H1104 H 0.21135 0.03284 0.35915 0.0
H1105 H 0.18009 0.01917 0.35878 0.0
C1106 C 0.2352 0.06686 0.40397 0.0
C1107 C 0.21823 0.07383 0.40414 0.0
C1108 C 0.22923 0.04475 0.39842 0.0
C1109 C 0.20627 0.02943 0.39276 0.0
C1110 C 0.18936 0.0365 0.39264 0.0
H1111 H 0.13742 0.89008 0.35255 0.0
H1112 H 0.14733 0.92873 0.3622 0.0
C1113 C 0.1953 0.05854 0.39832 0.0
C1114 C 0.19975 1.00567 0.3876 0.0
H1115 H 0.18356 0.97087 0.35415 0.0
C1116 C 0.19905 0.98951 0.3996 0.0
C1117 C 0.19404 0.99892 0.37105 0.0
C1118 C 0.19493 1.01588 0.35773 0.0
C1119 C 0.19246 0.96653 0.39548 0.0
C1120 C 0.18706 0.95981 0.37886 0.0
C1121 C 0.18772 0.97604 0.36688 0.0
C1122 C 0.18079 0.93609 0.37358 0.0
C1123 C 0.19079 0.94955 0.40904 0.0
C1124 C 0.19635 0.92744 0.37672 0.0
C1125 C 0.19063 0.90532 0.37134 0.0
C1126 C 0.16942 0.89163 0.36251 0.0
C1127 C 0.1539 0.9003 0.35933 0.0
C1128 C 0.15954 0.92236 0.36481 0.0
H1129 H 0.1886 0.95522 0.4211 0.0
H1130 H 0.17593 0.93179 0.40655 0.0
H1131 H 0.20715 0.94855 0.40997 0.0
H1132 H 0.21308 0.93794 0.38311 0.0
H1133 H 0.203 0.89912 0.37383 0.0
H1134 H 0.45052 0.63435 0.30327 0.0
H1135 H 0.47844 0.67217 0.31537 0.0
H1136 H 0.53482 0.65824 0.30854 0.0
H1137 H 0.50672 0.62002 0.29716 0.0
H1138 H 0.5391 0.67689 0.33812 0.0
H1139 H 0.52246 0.72973 0.29015 0.0
H1140 H 0.49668 0.70914 0.30031 0.0
H1141 H 0.51146 0.69885 0.28809 0.0
C1142 C 0.46885 0.63935 0.30456 0.0
C1143 C 0.47657 0.62445 0.29921 0.0
C1144 C 0.48482 0.66104 0.31125 0.0
C1145 C 0.50883 0.66833 0.31251 0.0
C1146 C 0.51644 0.65313 0.30755 0.0
H1147 H 0.63621 0.79481 0.34152 0.0
H1148 H 0.60709 0.75665 0.3306 0.0
C1149 C 0.50045 0.63139 0.30099 0.0
C1150 C 0.52607 0.69167 0.31906 0.0
H1151 H 0.54679 0.7502 0.3132 0.0
C1152 C 0.54082 0.69291 0.33263 0.0
C1153 C 0.52841 0.71262 0.31185 0.0
C1154 C 0.51408 0.71261 0.2967 0.0
C1155 C 0.55758 0.71445 0.33929 0.0
C1156 C 0.55974 0.7353 0.33216 0.0
C1157 C 0.545 0.73414 0.31866 0.0
C1158 C 0.57733 0.75852 0.33853 0.0
C1159 C 0.5727 0.7148 0.35404 0.0
C1160 C 0.5702 0.77235 0.34633 0.0
C1161 C 0.58678 0.79409 0.35263 0.0
C1162 C 0.61076 0.80245 0.35106 0.0
C1163 C 0.61785 0.78877 0.34295 0.0
C1164 C 0.60126 0.76696 0.33676 0.0
H1165 H 0.56601 0.69728 0.3599 0.0
H1166 H 0.59067 0.72076 0.35018 0.0
H1167 H 0.57379 0.72723 0.36327 0.0
H1168 H 0.5518 0.76618 0.34773 0.0
H1169 H 0.58084 0.80432 0.35876 0.0
H1170 H 0.42111 0.98399 0.30758 0.0
H1171 H 0.38101 0.96463 0.31693 0.0
H1172 H 0.38398 0.90107 0.32583 0.0
H1173 H 0.42341 0.9201 0.31548 0.0
H1174 H 0.3452 0.89234 0.30929 0.0
H1175 H 0.3566 0.94778 0.36193 0.0
H1176 H 0.3659 0.96436 0.34325 0.0
H1177 H 0.38106 0.94965 0.35184 0.0
C1178 C 0.4131 0.96595 0.31165 0.0
C1179 C 0.42513 0.95346 0.31093 0.0
C1180 C 0.39038 0.95497 0.31714 0.0
C1181 C 0.37962 0.93149 0.32232 0.0
C1182 C 0.39196 0.91922 0.32196 0.0
H1183 H 0.25062 0.86156 0.37322 0.0
H1184 H 0.29105 0.87987 0.36522 0.0
C1185 C 0.41448 0.93009 0.31623 0.0
C1186 C 0.35502 0.91919 0.32712 0.0
H1187 H 0.31734 0.92167 0.35268 0.0
C1188 C 0.33914 0.89866 0.31887 0.0
C1189 C 0.34719 0.92731 0.33973 0.0
C1190 C 0.36364 0.94834 0.34981 0.0
C1191 C 0.31561 0.88607 0.3228 0.0
C1192 C 0.30757 0.89474 0.33492 0.0
C1193 C 0.32348 0.91518 0.34326 0.0
C1194 C 0.28285 0.88267 0.33945 0.0
C1195 C 0.2998 0.86337 0.31419 0.0
C1196 C 0.26478 0.87809 0.32759 0.0
C1197 C 0.24157 0.86723 0.33209 0.0
C1198 C 0.23616 0.86133 0.34859 0.0
C1199 C 0.25428 0.86601 0.36042 0.0
C1200 C 0.27739 0.87649 0.35588 0.0
H1201 H 0.30992 0.8558 0.30926 0.0
H1202 H 0.28685 0.85033 0.32256 0.0
H1203 H 0.29019 0.8666 0.3037 0.0
H1204 H 0.26863 0.88327 0.31491 0.0
H1205 H 0.22797 0.86407 0.32274 0.0
H1206 H 0.08145 0.50407 0.30157 0.0
H1207 H 0.08878 0.47231 0.31133 0.0
H1208 H 0.1586 0.51069 0.29381 0.0
H1209 H 0.15134 0.54267 0.2847 0.0
H1210 H 0.10226 0.4432 0.29875 0.0
H1211 H 0.17093 0.50479 0.34234 0.0
H1212 H 0.15138 0.5121 0.33046 0.0
H1213 H 0.17648 0.51404 0.32135 0.0
C1214 C 0.09806 0.50523 0.29946 0.0
C1215 C 0.11584 0.52548 0.29237 0.0
C1216 C 0.10231 0.48725 0.30507 0.0
C1217 C 0.12443 0.48937 0.30364 0.0
C1218 C 0.1416 0.50892 0.29539 0.0
H1219 H 0.16308 0.38226 0.32769 0.0
H1220 H 0.15033 0.40786 0.31362 0.0
C1221 C 0.13742 0.52699 0.29 0.0
C1222 C 0.1301 0.47214 0.3119 0.0
H1223 H 0.16745 0.46742 0.34069 0.0
C1224 C 0.11649 0.44845 0.30794 0.0
C1225 C 0.14832 0.47893 0.32419 0.0
C1226 C 0.16246 0.5038 0.32998 0.0
C1227 C 0.12085 0.43143 0.31572 0.0
C1228 C 0.13971 0.4384 0.32751 0.0
C1229 C 0.15311 0.46206 0.33158 0.0
C1230 C 0.14593 0.4216 0.33593 0.0
C1231 C 0.10483 0.40614 0.31152 0.0
C1232 C 0.14826 0.4211 0.35314 0.0
C1233 C 0.1559 0.40673 0.36114 0.0
C1234 C 0.1611 0.39239 0.35209 0.0
C1235 C 0.15852 0.39264 0.33492 0.0
C1236 C 0.1512 0.40726 0.32689 0.0
H1237 H 0.08753 0.40313 0.30648 0.0
H1238 H 0.11275 0.40106 0.30203 0.0
H1239 H 0.10212 0.3946 0.32243 0.0
H1240 H 0.14445 0.43208 0.36039 0.0
H1241 H 0.15789 0.40693 0.3744 0.0
H1242 H 0.42166 0.52357 0.283 0.0
H1243 H 0.38503 0.48723 0.28762 0.0
H1244 H 0.35219 0.52736 0.29891 0.0
H1245 H 0.38822 0.5634 0.29318 0.0
H1246 H 0.36356 0.47122 0.31438 0.0
H1247 H 0.30151 0.48018 0.27043 0.0
H1248 H 0.33267 0.49906 0.26964 0.0
H1249 H 0.31591 0.50535 0.28316 0.0
C1250 C 0.40636 0.52449 0.28601 0.0
C1251 C 0.40768 0.54622 0.28773 0.0
C1252 C 0.3855 0.50377 0.28877 0.0
C1253 C 0.3656 0.50442 0.29339 0.0
C1254 C 0.36695 0.52621 0.29492 0.0
H1255 H 0.25976 0.40758 0.35581 0.0
H1256 H 0.29488 0.43714 0.34299 0.0
C1257 C 0.38766 0.54685 0.2919 0.0
C1258 C 0.3441 0.48256 0.29796 0.0
H1259 H 0.28448 0.45457 0.29382 0.0
C1260 C 0.3463 0.46742 0.30965 0.0
C1261 C 0.3215 0.47711 0.29159 0.0
C1262 C 0.3178 0.49118 0.27787 0.0
C1263 C 0.3266 0.44779 0.31575 0.0
C1264 C 0.30396 0.44359 0.3105 0.0
C1265 C 0.30176 0.45798 0.29815 0.0
C1266 C 0.28248 0.42514 0.3182 0.0
C1267 C 0.33039 0.43175 0.32773 0.0
C1268 C 0.26324 0.40897 0.30854 0.0
C1269 C 0.24279 0.39224 0.31587 0.0
C1270 C 0.24122 0.39127 0.33301 0.0
C1271 C 0.26047 0.40752 0.34261 0.0
C1272 C 0.28071 0.42439 0.33528 0.0
H1273 H 0.34708 0.43208 0.32571 0.0
H1274 H 0.3315 0.43776 0.3404 0.0
H1275 H 0.31591 0.41347 0.32671 0.0
H1276 H 0.26403 0.40928 0.29533 0.0
H1277 H 0.22826 0.38006 0.30809 0.0
H1278 H 0.48182 0.93129 0.28516 0.0
H1279 H 0.5114 0.91914 0.29066 0.0
H1280 H 0.55347 0.98104 0.31918 0.0
H1281 H 0.5238 0.99321 0.31352 0.0
H1282 H 0.57768 0.96436 0.29551 0.0
H1283 H 0.51875 0.89945 0.34068 0.0
H1284 H 0.50608 0.90017 0.32066 0.0
H1285 H 0.51624 0.92461 0.33394 0.0
C1286 C 0.49772 0.94251 0.29221 0.0
C1287 C 0.5008 0.96311 0.29894 0.0
C1288 C 0.51447 0.93557 0.2954 0.0
C1289 C 0.53446 0.94918 0.30538 0.0
C1290 C 0.53814 0.9704 0.31142 0.0
H1291 H 0.62319 0.90721 0.36157 0.0
H1292 H 0.59924 0.92441 0.35157 0.0
C1293 C 0.52131 0.9773 0.30824 0.0
C1294 C 0.55029 0.94012 0.31078 0.0
H1295 H 0.55366 0.89931 0.33614 0.0
C1296 C 0.57252 0.95014 0.30437 0.0
C1297 C 0.54343 0.92174 0.32246 0.0
C1298 C 0.5199 0.91087 0.32997 0.0
C1299 C 0.58808 0.94198 0.30927 0.0
C1300 C 0.58105 0.92334 0.32077 0.0
C1301 C 0.5589 0.91354 0.32727 0.0
C1302 C 0.59649 0.91386 0.32647 0.0
C1303 C 0.612 0.95354 0.30233 0.0
C1304 C 0.60269 0.90212 0.31564 0.0
C1305 C 0.61631 0.89216 0.32132 0.0
C1306 C 0.6239 0.89377 0.33794 0.0
C1307 C 0.61768 0.90566 0.34871 0.0
C1308 C 0.60402 0.91552 0.34303 0.0
H1309 H 0.61646 0.97061 0.29636 0.0
H1310 H 0.62558 0.9563 0.31211 0.0
H1311 H 0.61247 0.94204 0.29301 0.0
H1312 H 0.59669 0.90032 0.30287 0.0
H1313 H 0.62075 0.8831 0.31269 0.0
H1314 H 0.08476 0.59424 0.30169 0.0
H1315 H 0.09382 0.63147 0.31369 0.0
H1316 H 0.16629 0.64956 0.32048 0.0
H1317 H 0.15731 0.6128 0.30778 0.0
H1318 H 0.11173 0.64908 0.34381 0.0
H1319 H 0.17154 0.70666 0.29648 0.0
H1320 H 0.15315 0.67564 0.29379 0.0
H1321 H 0.18019 0.68683 0.30588 0.0
C1322 C 0.10261 0.60633 0.30564 0.0
C1323 C 0.12038 0.60086 0.30378 0.0
C1324 C 0.10777 0.62748 0.31254 0.0
C1325 C 0.13081 0.64349 0.31771 0.0
C1326 C 0.14849 0.63773 0.31623 0.0
H1327 H 0.19351 0.77566 0.36822 0.0
H1328 H 0.18494 0.73856 0.35626 0.0
C1329 C 0.14334 0.61666 0.3092 0.0
C1330 C 0.13621 0.66604 0.32482 0.0
H1331 H 0.16994 0.72516 0.32036 0.0
C1332 C 0.12438 0.66571 0.33863 0.0
C1333 C 0.15266 0.68774 0.31801 0.0
C1334 C 0.16496 0.68933 0.30263 0.0
C1335 C 0.12881 0.68647 0.34595 0.0
C1336 C 0.14544 0.70807 0.33925 0.0
C1337 C 0.15729 0.70848 0.32548 0.0
C1338 C 0.1506 0.73046 0.34633 0.0
C1339 C 0.11593 0.68526 0.36091 0.0
C1340 C 0.13418 0.73818 0.34451 0.0
C1341 C 0.13907 0.75935 0.35123 0.0
C1342 C 0.16043 0.77306 0.35991 0.0
C1343 C 0.17689 0.76536 0.36164 0.0
C1344 C 0.17205 0.74425 0.35481 0.0
H1345 H 0.10642 0.66728 0.36611 0.0
H1346 H 0.1283 0.69709 0.37052 0.0
H1347 H 0.10306 0.69114 0.35755 0.0
H1348 H 0.11762 0.72783 0.33786 0.0
H1349 H 0.1261 0.76493 0.3497 0.0
H1350 H 0.85359 0.10902 0.39739 0.0
H1351 H 0.82219 0.07303 0.38485 0.0
H1352 H 0.84016 0.03214 0.41918 0.0
H1353 H 0.87112 0.06813 0.43185 0.0
H1354 H 0.82259 0.03768 0.36986 0.0
H1355 H 0.77109 1.00359 0.42536 0.0
H1356 H 0.79503 0.03306 0.42384 0.0
H1357 H 0.80059 1.00933 0.42888 0.0
C1358 C 0.85076 0.09227 0.40213 0.0
C1359 C 0.86449 0.09114 0.41558 0.0
C1360 C 0.83287 0.07178 0.39504 0.0
C1361 C 0.82846 0.04985 0.40131 0.0
C1362 C 0.84275 0.0488 0.41444 0.0
H1363 H 0.7504 0.91747 0.35159 0.0
H1364 H 0.78033 0.95433 0.36358 0.0
C1365 C 0.86049 0.06928 0.42158 0.0
C1366 C 0.80913 0.02808 0.394 0.0
H1367 H 0.76033 0.97692 0.40339 0.0
C1368 C 0.8089 0.02445 0.37717 0.0
C1369 C 0.791 1.011 0.40347 0.0
C1370 C 0.78925 1.01451 0.42134 0.0
C1371 C 0.7914 1.00399 0.36964 0.0
C1372 C 0.77397 0.98637 0.37929 0.0
C1373 C 0.77385 0.99026 0.39603 0.0
C1374 C 0.75575 0.96376 0.37228 0.0
C1375 C 0.7916 1.00164 0.35137 0.0
C1376 C 0.73192 0.95629 0.37373 0.0
C1377 C 0.71477 0.93503 0.3671 0.0
C1378 C 0.72117 0.92089 0.35888 0.0
C1379 C 0.74498 0.92816 0.35769 0.0
C1380 C 0.76211 0.9493 0.36444 0.0
H1381 H 0.80122 0.01897 0.34521 0.0
H1382 H 0.80055 0.99164 0.34897 0.0
H1383 H 0.77357 0.99226 0.34578 0.0
H1384 H 0.7266 0.96704 0.37985 0.0
H1385 H 0.69653 0.92978 0.36824 0.0
H1386 H 0.95359 0.81687 0.43361 0.0
H1387 H 0.98604 0.81183 0.42544 0.0
H1388 H 0.93765 0.75226 0.39668 0.0
H1389 H 0.9051 0.75701 0.4052 0.0
H1390 H 0.99233 0.76836 0.42616 0.0
H1391 H 0.98565 0.80483 0.36447 0.0
H1392 H 0.9735 0.80957 0.38217 0.0
H1393 H 0.95953 0.78144 0.37285 0.0
C1394 C 0.94991 0.80237 0.42591 0.0
C1395 C 0.92706 0.78749 0.41983 0.0
C1396 C 0.96836 0.79954 0.42121 0.0
C1397 C 0.96416 0.78184 0.41034 0.0
C1398 C 0.94117 0.76613 0.40497 0.0
H1399 H 0.07594 0.78436 0.35556 0.0
H1400 H 0.0368 0.77167 0.36508 0.0
C1401 C 0.9227 0.7689 0.40976 0.0
C1402 C 0.98411 0.78129 0.40356 0.0
H1403 H 0.0173 0.79833 0.36999 0.0
C1404 C 0.99768 0.7746 0.41382 0.0
C1405 C 0.9908 0.78926 0.38741 0.0
C1406 C 0.97676 0.79681 0.37602 0.0
C1407 C 0.01831 0.77632 0.40847 0.0
C1408 C 0.02578 0.78561 0.39263 0.0
C1409 C 0.01157 0.79126 0.38213 0.0
C1410 C 0.04926 0.79182 0.38732 0.0
C1411 C 0.032 0.7684 0.4199 0.0
C1412 C 0.06917 0.80756 0.39654 0.0
C1413 C 0.09142 0.81476 0.3912 0.0
C1414 C 0.09428 0.80663 0.37636 0.0
C1415 C 0.07432 0.79093 0.36704 0.0
C1416 C 0.05198 0.78362 0.37248 0.0
H1417 H 0.02037 0.7545 0.42846 0.0
H1418 H 0.04146 0.76172 0.41303 0.0
H1419 H 0.04497 0.78336 0.42738 0.0
H1420 H 0.06752 0.81472 0.40775 0.0
H1421 H 0.10637 0.82702 0.39863 0.0
H1422 H 0.18646 0.13114 0.40669 0.0
H1423 H 0.18253 0.16586 0.40081 0.0
H1424 H 0.25594 0.20983 0.41325 0.0
H1425 H 0.25993 0.17491 0.41862 0.0
H1426 H 0.192 0.20368 0.42041 0.0
H1427 H 0.24848 0.23198 0.36678 0.0
H1428 H 0.23741 0.20333 0.37603 0.0
H1429 H 0.26142 0.22818 0.38585 0.0
C1430 C 0.20171 0.14825 0.40806 0.0
C1431 C 0.22354 0.15051 0.41282 0.0
C1432 C 0.19946 0.16803 0.40484 0.0
C1433 C 0.21902 0.19042 0.40634 0.0
C1434 C 0.24072 0.19272 0.41172 0.0
H1435 H 0.21995 0.31948 0.37177 0.0
H1436 H 0.2323 0.29382 0.38662 0.0
C1437 C 0.24297 0.17286 0.4149 0.0
C1438 C 0.21652 0.21111 0.40175 0.0
H1439 H 0.23104 0.25427 0.37269 0.0
C1440 C 0.20074 0.21492 0.4101 0.0
C1441 C 0.22803 0.22581 0.38833 0.0
C1442 C 0.24467 0.22213 0.37861 0.0
C1443 C 0.19559 0.23258 0.40506 0.0
C1444 C 0.20629 0.24656 0.3912 0.0
C1445 C 0.22291 0.24351 0.38333 0.0
C1446 C 0.19863 0.2626 0.38357 0.0
C1447 C 0.17842 0.23585 0.41443 0.0
C1448 C 0.17569 0.25351 0.37695 0.0
C1449 C 0.1687 0.268 0.36843 0.0
C1450 C 0.18453 0.29187 0.36637 0.0
C1451 C 0.2074 0.30112 0.37326 0.0
C1452 C 0.21445 0.28653 0.38171 0.0
H1453 H 0.17738 0.2291 0.42722 0.0
H1454 H 0.18326 0.25454 0.41472 0.0
H1455 H 0.16079 0.22605 0.40831 0.0
H1456 H 0.16334 0.23503 0.37795 0.0
H1457 H 0.15098 0.26041 0.36323 0.0
H1458 H 0.62542 0.49864 0.77846 0.0
H1459 H 0.66373 0.53104 0.77113 0.0
H1460 H 0.63002 0.55268 0.73288 0.0
H1461 H 0.59188 0.52098 0.74076 0.0
H1462 H 0.68265 0.53514 0.74261 0.0
H1463 H 0.67691 0.61494 0.75075 0.0
H1464 H 0.6562 0.58703 0.75926 0.0
H1465 H 0.65291 0.59428 0.73811 0.0
C1466 C 0.62626 0.51096 0.76897 0.0
C1467 C 0.60583 0.50753 0.76024 0.0
C1468 C 0.64812 0.52929 0.76464 0.0
C1469 C 0.64987 0.54454 0.75152 0.0
C1470 C 0.62925 0.54162 0.74328 0.0
H1471 H 0.75775 0.63769 0.68678 0.0
H1472 H 0.72129 0.61231 0.70038 0.0
C1473 C 0.60746 0.52342 0.74769 0.0
C1474 C 0.67314 0.56173 0.74527 0.0
H1475 H 0.70674 0.61873 0.73327 0.0
C1476 C 0.68803 0.55348 0.74081 0.0
C1477 C 0.68022 0.58569 0.7428 0.0
C1478 C 0.66581 0.59605 0.74814 0.0
C1479 C 0.70933 0.56829 0.73356 0.0
C1480 C 0.71608 0.59205 0.73072 0.0
C1481 C 0.70144 0.60045 0.73536 0.0
C1482 C 0.73824 0.60832 0.72282 0.0
C1483 C 0.72423 0.55829 0.72853 0.0
C1484 C 0.75987 0.61477 0.73103 0.0
C1485 C 0.78074 0.62934 0.72334 0.0
C1486 C 0.78045 0.63773 0.70723 0.0
C1487 C 0.7587 0.63151 0.69915 0.0
C1488 C 0.73781 0.61705 0.70691 0.0
H1489 H 0.7147 0.53891 0.72891 0.0
H1490 H 0.73029 0.56429 0.71595 0.0
H1491 H 0.73991 0.56454 0.737 0.0
H1492 H 0.76059 0.60839 0.74337 0.0
H1493 H 0.7971 0.63373 0.72999 0.0
H1494 H 0.55257 0.1876 0.76828 0.0
H1495 H 0.51928 0.19344 0.75974 0.0
H1496 H 0.48528 0.12672 0.73588 0.0
H1497 H 0.51839 0.12087 0.74459 0.0
H1498 H 0.50053 0.19269 0.72648 0.0
H1499 H 0.43633 0.12442 0.76718 0.0
H1500 H 0.46754 0.13669 0.77063 0.0
H1501 H 0.45208 0.11503 0.75518 0.0
C1502 C 0.53792 0.17431 0.7612 0.0
C1503 C 0.53783 0.15387 0.75698 0.0
C1504 C 0.51903 0.1776 0.75635 0.0
C1505 C 0.49979 0.16034 0.7474 0.0
C1506 C 0.49987 0.14005 0.74299 0.0
H1507 H 0.39038 0.16472 0.68778 0.0
H1508 H 0.42208 0.15887 0.69966 0.0
C1509 C 0.51878 0.13683 0.74777 0.0
C1510 C 0.47976 0.16366 0.74233 0.0
H1511 H 0.42117 0.14053 0.74647 0.0
C1512 C 0.4832 0.18143 0.73092 0.0
C1513 C 0.45731 0.14903 0.74832 0.0
C1514 C 0.45302 0.13033 0.76112 0.0
C1515 C 0.4645 0.18449 0.7249 0.0
C1516 C 0.44188 0.16925 0.73038 0.0
C1517 C 0.43856 0.15197 0.7422 0.0
C1518 C 0.42145 0.1709 0.72373 0.0
C1519 C 0.469 0.20393 0.7127 0.0
C1520 C 0.41019 0.17882 0.73357 0.0
C1521 C 0.39206 0.1822 0.72684 0.0
C1522 C 0.38486 0.17753 0.7102 0.0
C1523 C 0.39553 0.16855 0.70062 0.0
C1524 C 0.4137 0.16529 0.70734 0.0
H1525 H 0.48789 0.217 0.71237 0.0
H1526 H 0.46285 0.19649 0.70027 0.0
H1527 H 0.45924 0.21294 0.71566 0.0
H1528 H 0.41593 0.18309 0.74629 0.0
H1529 H 0.38414 0.18905 0.73458 0.0
H1530 H 0.91588 0.41485 0.73748 0.0
H1531 H 0.90541 0.37622 0.72703 0.0
H1532 H 0.83254 0.35704 0.72523 0.0
H1533 H 0.84308 0.3957 0.73563 0.0
H1534 H 0.85022 0.32457 0.74309 0.0
H1535 H 0.87341 0.35075 0.67818 0.0
H1536 H 0.89311 0.3691 0.69428 0.0
H1537 H 0.86487 0.36671 0.69098 0.0
C1538 C 0.89769 0.40232 0.73476 0.0
C1539 C 0.88023 0.40802 0.73723 0.0
C1540 C 0.89174 0.38041 0.7288 0.0
C1541 C 0.86824 0.36394 0.72534 0.0
C1542 C 0.85076 0.36962 0.7278 0.0
H1543 H 0.80329 0.22853 0.67934 0.0
H1544 H 0.81305 0.26717 0.68906 0.0
C1545 C 0.85675 0.3916 0.73363 0.0
C1546 C 0.86185 0.34056 0.71949 0.0
H1547 H 0.86102 0.31149 0.68567 0.0
C1548 C 0.85255 0.32164 0.73055 0.0
C1549 C 0.86486 0.33696 0.70312 0.0
C1550 C 0.87451 0.35686 0.69084 0.0
C1551 C 0.84639 0.29909 0.72565 0.0
C1552 C 0.84963 0.29552 0.70932 0.0
C1553 C 0.85866 0.3144 0.6982 0.0
C1554 C 0.84375 0.27223 0.70356 0.0
C1555 C 0.83632 0.27914 0.73788 0.0
C1556 C 0.85794 0.26253 0.70845 0.0
C1557 C 0.85255 0.24062 0.70283 0.0
C1558 C 0.83278 0.22805 0.69234 0.0
C1559 C 0.8186 0.23784 0.68746 0.0
C1560 C 0.82413 0.25985 0.69297 0.0
H1561 H 0.83181 0.28417 0.74934 0.0
H1562 H 0.8204 0.26407 0.73246 0.0
H1563 H 0.84929 0.27332 0.74107 0.0
H1564 H 0.87329 0.272 0.7165 0.0
H1565 H 0.86393 0.23361 0.70661 0.0
H1566 H 0.17695 0.95808 0.63289 0.0
H1567 H 0.20579 0.99594 0.64453 0.0
H1568 H 0.15207 1.01501 0.64632 0.0
H1569 H 0.12334 0.9773 0.63436 0.0
H1570 H 0.2168 0.0418 0.63054 0.0
H1571 H 0.18422 0.02724 0.69351 0.0
H1572 H 0.17703 1.00352 0.67986 0.0
H1573 H 0.16273 0.02066 0.67692 0.0
C1574 C 0.17139 0.97042 0.63578 0.0
C1575 C 0.148 0.96488 0.63277 0.0
C1576 C 0.1878 0.99195 0.64244 0.0
C1577 C 0.18102 1.00819 0.64639 0.0
C1578 C 0.15759 1.00259 0.64357 0.0
H1579 H 0.25391 0.14627 0.68899 0.0
H1580 H 0.22508 0.10862 0.67731 0.0
C1581 C 0.14121 0.98109 0.63679 0.0
C1582 C 0.19864 0.03126 0.65301 0.0
H1583 H 0.21464 0.06499 0.68708 0.0
C1584 C 0.21642 0.0469 0.64291 0.0
C1585 C 0.19798 0.03784 0.66911 0.0
C1586 C 0.1796 0.02144 0.68058 0.0
C1587 C 0.23336 0.06915 0.6484 0.0
C1588 C 0.23287 0.07569 0.6646 0.0
C1589 C 0.21505 0.05999 0.67468 0.0
C1590 C 0.25056 0.09875 0.67133 0.0
C1591 C 0.25124 0.08564 0.63665 0.0
C1592 C 0.27448 0.10569 0.672 0.0
C1593 C 0.29099 0.12727 0.67857 0.0
C1594 C 0.28383 0.14217 0.68479 0.0
C1595 C 0.25991 0.13513 0.68428 0.0
C1596 C 0.24343 0.11362 0.67761 0.0
H1597 H 0.24519 0.08077 0.62368 0.0
H1598 H 0.25524 0.1039 0.63833 0.0
H1599 H 0.26765 0.08492 0.63894 0.0
H1600 H 0.28039 0.09429 0.66762 0.0
H1601 H 0.30931 0.13217 0.67897 0.0
H1602 H 0.07403 0.23826 0.63373 0.0
H1603 H 0.03441 0.22271 0.64323 0.0
H1604 H 0.05064 0.29218 0.65598 0.0
H1605 H 0.09043 0.30769 0.64637 0.0
H1606 H 0.02058 0.2256 0.6744 0.0
H1607 H 0.99071 0.26833 0.62613 0.0
H1608 H 0.01682 0.2662 0.62462 0.0
H1609 H 0.01706 0.28765 0.6376 0.0
C1610 C 0.06909 0.25007 0.63872 0.0
C1611 C 0.08503 0.27404 0.63949 0.0
C1612 C 0.04656 0.24126 0.64406 0.0
C1613 C 0.03962 0.25635 0.65014 0.0
C1614 C 0.05562 0.28034 0.65108 0.0
H1615 H 0.91469 0.21297 0.70365 0.0
H1616 H 0.95484 0.22992 0.69531 0.0
C1617 C 0.07823 0.28915 0.64571 0.0
C1618 C 0.01558 0.24675 0.65553 0.0
H1619 H 0.96446 0.24717 0.6469 0.0
C1620 C 0.00829 0.23032 0.66843 0.0
C1621 C 0.9996 0.25277 0.64752 0.0
C1622 C 0.00629 0.26955 0.6331 0.0
C1623 C 0.98536 0.21976 0.67362 0.0
C1624 C 0.96952 0.22613 0.66583 0.0
C1625 C 0.97677 0.24248 0.65288 0.0
C1626 C 0.94522 0.21583 0.67085 0.0
C1627 C 0.97814 0.20152 0.68713 0.0
C1628 C 0.92656 0.20271 0.65972 0.0
C1629 C 0.90355 0.19309 0.66439 0.0
C1630 C 0.89886 0.19655 0.68027 0.0
C1631 C 0.91766 0.20984 0.69136 0.0
C1632 C 0.94064 0.21946 0.68666 0.0
H1633 H 0.99041 0.19451 0.68892 0.0
H1634 H 0.97806 0.20946 0.69881 0.0
H1635 H 0.96028 0.18679 0.68447 0.0
H1636 H 0.92982 0.19983 0.64743 0.0
H1637 H 0.8895 0.18305 0.65553 0.0
H1638 H 0.819 0.882 0.62142 0.0
H1639 H 0.82834 0.85096 0.62905 0.0
H1640 H 0.75806 0.80753 0.64492 0.0
H1641 H 0.74869 0.83825 0.63645 0.0
H1642 H 0.82993 0.83614 0.65847 0.0
H1643 H 0.76582 0.75968 0.62264 0.0
H1644 H 0.77055 0.78868 0.6181 0.0
H1645 H 0.75152 0.77119 0.63406 0.0
C1646 C 0.80546 0.86542 0.62598 0.0
C1647 C 0.78312 0.86213 0.62818 0.0
C1648 C 0.81076 0.84779 0.63045 0.0
C1649 C 0.79386 0.82671 0.63744 0.0
C1650 C 0.77124 0.82325 0.63914 0.0
H1651 H 0.83134 0.74427 0.70614 0.0
H1652 H 0.81903 0.77096 0.69315 0.0
C1653 C 0.76586 0.84076 0.63436 0.0
C1654 C 0.80062 0.80959 0.64453 0.0
H1655 H 0.78445 0.7517 0.64631 0.0
C1656 C 0.8201 0.81771 0.65564 0.0
C1657 C 0.788 0.78554 0.64079 0.0
C1658 C 0.76798 0.77581 0.62811 0.0
C1659 C 0.82711 0.80253 0.66326 0.0
C1660 C 0.81373 0.77831 0.66021 0.0
C1661 C 0.7945 0.7702 0.64888 0.0
C1662 C 0.81979 0.76121 0.66829 0.0
C1663 C 0.84912 0.81278 0.67418 0.0
C1664 C 0.82327 0.74607 0.65874 0.0
C1665 C 0.8297 0.73047 0.66619 0.0
C1666 C 0.83291 0.72977 0.6833 0.0
C1667 C 0.8291 0.7446 0.6929 0.0
C1668 C 0.82226 0.75996 0.68547 0.0
H1669 H 0.86091 0.83147 0.67115 0.0
H1670 H 0.84444 0.81172 0.68712 0.0
H1671 H 0.85888 0.80319 0.67313 0.0
H1672 H 0.82149 0.74665 0.64549 0.0
H1673 H 0.83291 0.71948 0.65855 0.0
H1674 H 0.09121 0.86451 0.62058 0.0
H1675 H 0.05378 0.82939 0.62594 0.0
H1676 H 0.02062 0.87172 0.6269 0.0
H1677 H 0.05814 0.90674 0.62175 0.0
H1678 H 0.0113 0.84374 0.65339 0.0
H1679 H 0.99481 0.79132 0.59794 0.0
H1680 H 0.02296 0.80017 0.60786 0.0
H1681 H 0.01645 0.82188 0.59897 0.0
C1682 C 0.07575 0.8661 0.62162 0.0
C1683 C 0.07739 0.88817 0.62081 0.0
C1684 C 0.05439 0.84609 0.62462 0.0
C1685 C 0.03426 0.84783 0.62665 0.0
C1686 C 0.03585 0.8699 0.62536 0.0
H1687 H 0.89201 0.73239 0.63872 0.0
H1688 H 0.92724 0.76521 0.62778 0.0
C1689 C 0.05721 0.88987 0.62245 0.0
C1690 C 0.01207 0.82708 0.63151 0.0
H1691 H 0.97139 0.77137 0.62075 0.0
C1692 C 0.00252 0.828 0.64617 0.0
C1693 C 0.00041 0.80658 0.62203 0.0
C1694 C 0.00903 0.80495 0.60574 0.0
C1695 C 0.98199 0.8089 0.65178 0.0
C1696 C 0.97091 0.78804 0.6427 0.0
C1697 C 0.98007 0.78726 0.62782 0.0
C1698 C 0.94992 0.76691 0.64863 0.0
C1699 C 0.97224 0.81136 0.66734 0.0
C1700 C 0.95109 0.75648 0.66373 0.0
C1701 C 0.93101 0.73782 0.67004 0.0
C1702 C 0.90927 0.72899 0.66132 0.0
C1703 C 0.90836 0.73877 0.64582 0.0
C1704 C 0.92851 0.75754 0.63953 0.0
H1705 H 0.97881 0.82997 0.67024 0.0
H1706 H 0.95284 0.80226 0.66641 0.0
H1707 H 0.97772 0.80346 0.67773 0.0
H1708 H 0.96752 0.76307 0.6708 0.0
H1709 H 0.9325 0.73062 0.68192 0.0
H1710 H 0.1869 0.31413 0.63009 0.0
H1711 H 0.21804 0.30373 0.63343 0.0
H1712 H 0.16676 0.23125 0.62618 0.0
H1713 H 0.13581 0.24177 0.62316 0.0
H1714 H 0.1924 0.23826 0.65454 0.0
H1715 H 0.25113 0.28271 0.60349 0.0
H1716 H 0.24524 0.30183 0.61482 0.0
H1717 H 0.2218 0.27833 0.60341 0.0
C1718 C 0.18256 0.29611 0.62889 0.0
C1719 C 0.1592 0.27863 0.62664 0.0
C1720 C 0.20025 0.29018 0.63067 0.0
C1721 C 0.1947 0.26672 0.62994 0.0
C1722 C 0.1714 0.24944 0.62677 0.0
H1723 H 0.28994 0.21018 0.64304 0.0
H1724 H 0.26222 0.22204 0.63123 0.0
C1725 C 0.15379 0.25537 0.62513 0.0
C1726 C 0.21251 0.25979 0.63458 0.0
H1727 H 0.26636 0.26863 0.62588 0.0
C1728 C 0.20845 0.24472 0.64815 0.0
C1729 C 0.23336 0.26814 0.62618 0.0
C1730 C 0.23809 0.28347 0.61106 0.0
C1731 C 0.22492 0.23821 0.65382 0.0
C1732 C 0.24621 0.24737 0.64589 0.0
C1733 C 0.25008 0.2619 0.63202 0.0
C1734 C 0.26469 0.24223 0.65219 0.0
C1735 C 0.21942 0.22158 0.66829 0.0
C1736 C 0.27559 0.25018 0.66767 0.0
C1737 C 0.2913 0.2434 0.67448 0.0
C1738 C 0.29645 0.2286 0.66588 0.0
C1739 C 0.28623 0.22146 0.65004 0.0
C1740 C 0.27047 0.22827 0.64323 0.0
H1741 H 0.2004 0.21186 0.6704 0.0
H1742 H 0.22544 0.20882 0.66647 0.0
H1743 H 0.22865 0.23162 0.67949 0.0
H1744 H 0.27151 0.26121 0.67465 0.0
H1745 H 0.29901 0.2494 0.68663 0.0
H1746 H 0.82064 0.95175 0.63721 0.0
H1747 H 0.82948 0.98898 0.64926 0.0
H1748 H 0.75635 0.9611 0.6576 0.0
H1749 H 0.74762 0.92388 0.64556 0.0
H1750 H 0.80769 0.01769 0.63781 0.0
H1751 H 0.79304 0.98801 0.70294 0.0
H1752 H 0.79923 0.97277 0.68787 0.0
H1753 H 0.77073 0.96995 0.68801 0.0
C1754 C 0.8066 0.95364 0.64179 0.0
C1755 C 0.78353 0.93516 0.64062 0.0
C1756 C 0.81159 0.97481 0.64857 0.0
C1757 C 0.79357 0.97764 0.65441 0.0
C1758 C 0.7705 0.95912 0.65331 0.0
H1759 H 0.79102 0.10292 0.67924 0.0
H1760 H 0.7831 0.06571 0.66793 0.0
C1761 C 0.76551 0.93801 0.64642 0.0
C1762 C 0.79884 1.0002 0.66127 0.0
H1763 H 0.80011 0.02632 0.6968 0.0
C1764 C 0.80607 0.01963 0.6507 0.0
C1765 C 0.79682 1.00259 0.67811 0.0
C1766 C 0.78969 0.98231 0.68998 0.0
C1767 C 0.81105 0.04142 0.65651 0.0
C1768 C 0.80867 0.04372 0.67329 0.0
C1769 C 0.80176 0.02438 0.68392 0.0
C1770 C 0.81347 0.06617 0.68006 0.0
C1771 C 0.81903 0.06192 0.64475 0.0
C1772 C 0.833 0.07851 0.69073 0.0
C1773 C 0.83766 0.09982 0.69709 0.0
C1774 C 0.8227 0.10894 0.69299 0.0
C1775 C 0.80295 0.09637 0.68247 0.0
C1776 C 0.79842 0.07517 0.67601 0.0
H1777 H 0.82387 0.05827 0.63288 0.0
H1778 H 0.80469 0.06604 0.64227 0.0
H1779 H 0.83428 0.0776 0.65019 0.0
H1780 H 0.84475 0.07174 0.69401 0.0
H1781 H 0.85296 0.10913 0.70521 0.0
H1782 H 0.55835 0.41752 0.74456 0.0
H1783 H 0.52789 0.38133 0.73168 0.0
H1784 H 0.47666 0.40249 0.7387 0.0
H1785 H 0.50735 0.43894 0.75108 0.0
H1786 H 0.4885 0.34653 0.74512 0.0
H1787 H 0.46391 0.38459 0.69081 0.0
H1788 H 0.49017 0.40133 0.70339 0.0
H1789 H 0.46238 0.39605 0.70994 0.0
C1790 C 0.54064 0.41451 0.743 0.0
C1791 C 0.53511 0.431 0.74847 0.0
C1792 C 0.52325 0.39386 0.73578 0.0
C1793 C 0.50004 0.38936 0.73395 0.0
C1794 C 0.49451 0.40582 0.73958 0.0
H1795 H 0.3697 0.2693 0.6991 0.0
H1796 H 0.39931 0.30616 0.7116 0.0
C1797 C 0.51193 0.4265 0.74673 0.0
C1798 C 0.4815 0.36703 0.72679 0.0
H1799 H 0.43932 0.34404 0.6959 0.0
C1800 C 0.47783 0.34599 0.73431 0.0
C1801 C 0.46751 0.36634 0.71271 0.0
C1802 C 0.47129 0.38826 0.70363 0.0
C1803 C 0.46042 0.32432 0.72825 0.0
C1804 C 0.44648 0.32365 0.71419 0.0
C1805 C 0.45 0.34464 0.70672 0.0
C1806 C 0.42855 0.3013 0.7068 0.0
C1807 C 0.45685 0.30229 0.73706 0.0
C1808 C 0.43523 0.28651 0.69985 0.0
C1809 C 0.41841 0.26557 0.69268 0.0
C1810 C 0.39462 0.25905 0.69232 0.0
C1811 C 0.38793 0.27388 0.69926 0.0
C1812 C 0.40479 0.29492 0.70636 0.0
H1813 H 0.46504 0.30582 0.74967 0.0
H1814 H 0.43794 0.2895 0.73779 0.0
H1815 H 0.46492 0.29417 0.73015 0.0
H1816 H 0.45349 0.29127 0.69985 0.0
H1817 H 0.42406 0.25448 0.68741 0.0
H1818 H 0.57314 0.1027 0.74304 0.0
H1819 H 0.60191 0.09416 0.73194 0.0
H1820 H 0.65607 0.14657 0.76314 0.0
H1821 H 0.62748 0.15553 0.7738 0.0
H1822 H 0.64181 0.13001 0.71571 0.0
H1823 H 0.66759 0.08994 0.76798 0.0
H1824 H 0.6402 0.09018 0.76668 0.0
H1825 H 0.66675 0.11566 0.77333 0.0
C1826 C 0.59118 0.11218 0.74757 0.0
C1827 C 0.59831 0.12991 0.7591 0.0
C1828 C 0.60749 0.1072 0.74134 0.0
C1829 C 0.63101 0.11959 0.74685 0.0
C1830 C 0.6379 0.13651 0.75897 0.0
H1831 H 0.76887 0.16486 0.72863 0.0
H1832 H 0.73008 0.15217 0.73799 0.0
C1833 C 0.62164 0.14163 0.76506 0.0
C1834 C 0.64899 0.11706 0.73869 0.0
H1835 H 0.69529 0.10805 0.74687 0.0
C1836 C 0.65323 0.12468 0.72233 0.0
C1837 C 0.66369 0.11002 0.74742 0.0
C1838 C 0.65923 0.10077 0.76479 0.0
C1839 C 0.67301 0.1273 0.71487 0.0
C1840 C 0.68857 0.12164 0.72397 0.0
C1841 C 0.68336 0.11245 0.73995 0.0
C1842 C 0.71184 0.12822 0.7181 0.0
C1843 C 0.67799 0.1377 0.69779 0.0
C1844 C 0.71447 0.11889 0.70377 0.0
C1845 C 0.73681 0.12633 0.69822 0.0
C1846 C 0.75675 0.143 0.70704 0.0
C1847 C 0.75393 0.15198 0.7215 0.0
C1848 C 0.73174 0.14468 0.72694 0.0
H1849 H 0.66616 0.14457 0.69353 0.0
H1850 H 0.69633 0.1521 0.6973 0.0
H1851 H 0.67557 0.12409 0.68913 0.0
H1852 H 0.69931 0.1059 0.6969 0.0
H1853 H 0.73844 0.11895 0.68712 0.0
H1854 H 0.84868 0.46586 0.74054 0.0
H1855 H 0.84525 0.50047 0.73293 0.0
H1856 H 0.91957 0.5441 0.74209 0.0
H1857 H 0.92301 0.50921 0.74911 0.0
H1858 H 0.85666 0.54098 0.74938 0.0
H1859 H 0.90979 0.56032 0.69458 0.0
H1860 H 0.89897 0.53311 0.70587 0.0
H1861 H 0.92388 0.55903 0.71382 0.0
C1862 C 0.86421 0.48287 0.74088 0.0
C1863 C 0.88613 0.485 0.74509 0.0
C1864 C 0.86226 0.50261 0.73667 0.0
C1865 C 0.88222 0.52481 0.73665 0.0
C1866 C 0.90402 0.52708 0.74169 0.0
H1867 H 0.88764 0.65336 0.69643 0.0
H1868 H 0.89853 0.62708 0.7119 0.0
C1869 C 0.90597 0.50727 0.74584 0.0
C1870 C 0.88007 0.54523 0.73061 0.0
H1871 H 0.89442 0.58496 0.69909 0.0
C1872 C 0.86509 0.55075 0.73847 0.0
C1873 C 0.89111 0.55797 0.71638 0.0
C1874 C 0.9067 0.55227 0.70705 0.0
C1875 C 0.86043 0.5683 0.73226 0.0
C1876 C 0.87083 0.58043 0.71774 0.0
C1877 C 0.88653 0.57561 0.71024 0.0
C1878 C 0.86412 0.59674 0.70932 0.0
C1879 C 0.84418 0.57353 0.74114 0.0
C1880 C 0.84127 0.58829 0.70268 0.0
C1881 C 0.83509 0.60314 0.69379 0.0
C1882 C 0.85166 0.62673 0.69143 0.0
C1883 C 0.87452 0.63525 0.69817 0.0
C1884 C 0.88075 0.62031 0.70698 0.0
H1885 H 0.84279 0.56752 0.75414 0.0
H1886 H 0.85016 0.59252 0.74077 0.0
H1887 H 0.82646 0.5643 0.73506 0.0
H1888 H 0.82831 0.57005 0.70409 0.0
H1889 H 0.81736 0.59613 0.6887 0.0
H1890 H 0.45171 0.93931 0.25974 0.0
H1891 H 0.46425 0.94415 0.23149 0.0
H1892 H 0.52353 1.01118 0.24386 0.0
H1893 H 0.51106 1.00591 0.27222 0.0
H1894 H 0.46719 0.97827 0.21065 0.0
H1895 H 0.55327 0.98222 0.21818 0.0
H1896 H 0.53264 0.97173 0.23422 0.0
H1897 H 0.55097 1.00256 0.2308 0.0
C1898 C 0.46755 0.95487 0.25635 0.0
C1899 C 0.48039 0.97242 0.26785 0.0
C1900 C 0.47472 0.95764 0.24032 0.0
C1901 C 0.49489 0.97797 0.2356 0.0
C1902 C 0.50817 0.99517 0.2473 0.0
H1903 H 0.52098 0.03419 0.13653 0.0
H1904 H 0.5123 0.02657 0.16557 0.0
C1905 C 0.50104 0.99228 0.2634 0.0
C1906 C 0.50078 0.98198 0.21816 0.0
H1907 H 0.54414 0.99443 0.19214 0.0
C1908 C 0.48397 0.98166 0.20658 0.0
C1909 C 0.52258 0.98617 0.21289 0.0
C1910 C 0.54083 0.98547 0.22465 0.0
C1911 C 0.48847 0.98576 0.18989 0.0
C1912 C 0.5106 0.99088 0.1847 0.0
C1913 C 0.52729 0.99079 0.19622 0.0
C1914 C 0.51659 0.99601 0.16731 0.0
C1915 C 0.46933 0.98419 0.17795 0.0
C1916 C 0.52251 0.98176 0.15884 0.0
C1917 C 0.52761 0.98616 0.14232 0.0
C1918 C 0.5269 1.00493 0.13398 0.0
C1919 C 0.5213 0.0194 0.14257 0.0
C1920 C 0.51633 1.01506 0.15913 0.0
H1921 H 0.45182 0.974 0.18316 0.0
H1922 H 0.47231 1.00202 0.17501 0.0
H1923 H 0.46923 0.97596 0.16635 0.0
H1924 H 0.52282 0.96699 0.16496 0.0
H1925 H 0.53165 0.97459 0.13597 0.0
H1926 H 0.0588 0.53281 0.26558 0.0
H1927 H 0.04538 0.52042 0.23729 0.0
H1928 H 0.11298 0.52906 0.22789 0.0
H1929 H 0.12646 0.54206 0.25622 0.0
H1930 H 0.10096 0.55429 0.20698 0.0
H1931 H 0.02635 0.46459 0.2092 0.0
H1932 H 0.02294 0.48327 0.22274 0.0
H1933 H 0.04685 0.47745 0.22645 0.0
C1934 C 0.07042 0.53122 0.25757 0.0
C1935 C 0.09354 0.53821 0.26295 0.0
C1936 C 0.06277 0.52404 0.24145 0.0
C1937 C 0.07808 0.52354 0.23046 0.0
C1938 C 0.1008 0.52911 0.23618 0.0
H1939 H 0.05978 0.52695 0.12268 0.0
H1940 H 0.07418 0.52143 0.14995 0.0
C1941 C 0.10845 0.53634 0.25235 0.0
C1942 C 0.07148 0.52086 0.21265 0.0
H1943 H 0.02719 0.48776 0.18507 0.0
C1944 C 0.08512 0.53947 0.2021 0.0
C1945 C 0.05075 0.5016 0.2063 0.0
C1946 C 0.03603 0.48051 0.21676 0.0
C1947 C 0.0779 0.54001 0.18564 0.0
C1948 C 0.05661 0.52126 0.1795 0.0
C1949 C 0.04346 0.50216 0.18983 0.0
C1950 C 0.04684 0.52218 0.16282 0.0
C1951 C 0.09244 0.56125 0.17521 0.0
C1952 C 0.0263 0.52365 0.16099 0.0
C1953 C 0.01796 0.52667 0.14546 0.0
C1954 C 0.02997 0.52818 0.13142 0.0
C1955 C 0.05008 0.52579 0.13323 0.0
C1956 C 0.05843 0.5228 0.14881 0.0
H1957 H 0.10612 0.57591 0.18261 0.0
H1958 H 0.10122 0.55667 0.16606 0.0
H1959 H 0.08121 0.56731 0.16845 0.0
H1960 H 0.01704 0.52312 0.17165 0.0
H1961 H 0.00219 0.52801 0.14447 0.0
H1962 H 0.47213 0.55893 0.26356 0.0
H1963 H 0.4698 0.54194 0.23696 0.0
H1964 H 0.40444 0.54057 0.22483 0.0
H1965 H 0.40721 0.55821 0.25146 0.0
H1966 H 0.43719 0.50147 0.22083 0.0
H1967 H 0.44604 0.58116 0.18814 0.0
H1968 H 0.45098 0.58017 0.21004 0.0
H1969 H 0.42171 0.5663 0.20112 0.0
C1970 C 0.45716 0.55469 0.25524 0.0
C1971 C 0.43998 0.56001 0.25933 0.0
C1972 C 0.45578 0.54496 0.24011 0.0
C1973 C 0.43718 0.5404 0.22877 0.0
C1974 C 0.41918 0.54437 0.23326 0.0
H1975 H 0.43783 0.50967 0.12485 0.0
H1976 H 0.42362 0.51355 0.15092 0.0
C1977 C 0.42061 0.55419 0.24847 0.0
C1978 C 0.4378 0.53301 0.21199 0.0
H1979 H 0.44639 0.55257 0.17224 0.0
C1980 C 0.43887 0.51248 0.21016 0.0
C1981 C 0.44002 0.54741 0.19807 0.0
C1982 C 0.43981 0.57009 0.19935 0.0
C1983 C 0.44284 0.50634 0.19492 0.0
C1984 C 0.4461 0.52126 0.18119 0.0
C1985 C 0.44388 0.54118 0.18281 0.0
C1986 C 0.45397 0.51773 0.16547 0.0
C1987 C 0.44395 0.48414 0.19369 0.0
C1988 C 0.47586 0.51911 0.165 0.0
C1989 C 0.48416 0.51722 0.15015 0.0
C1990 C 0.47075 0.51388 0.13539 0.0
C1991 C 0.44874 0.51244 0.13593 0.0
C1992 C 0.4405 0.51449 0.15082 0.0
H1993 H 0.43447 0.47151 0.20362 0.0
H1994 H 0.43645 0.47572 0.18166 0.0
H1995 H 0.46249 0.48832 0.19486 0.0
H1996 H 0.48682 0.52222 0.17609 0.0
H1997 H 0.50141 0.51899 0.15022 0.0
H1998 H 0.94197 0.47694 0.77504 0.0
H1999 H 0.9549 0.49424 0.80233 0.0
H2000 H 0.88865 0.49155 0.80664 0.0
H2001 H 0.87553 0.4735 0.77953 0.0
H2002 H 0.95894 0.53379 0.8173 0.0
H2003 H 0.89132 0.45112 0.84526 0.0
H2004 H 0.89854 0.45323 0.8241 0.0
H2005 H 0.88055 0.46472 0.83031 0.0
C2006 C 0.93038 0.48034 0.78181 0.0
C2007 C 0.90775 0.47374 0.77542 0.0
C2008 C 0.93774 0.49027 0.79731 0.0
C2009 C 0.92256 0.49376 0.80662 0.0
C2010 C 0.90047 0.4886 0.79977 0.0
H2011 H 0.94016 0.5214 0.91206 0.0
H2012 H 0.92589 0.5181 0.88335 0.0
C2013 C 0.89307 0.47855 0.78427 0.0
C2014 C 0.92932 0.50101 0.82392 0.0
H2015 H 0.91646 0.48097 0.86324 0.0
C2016 C 0.94953 0.52237 0.82736 0.0
C2017 C 0.91703 0.48602 0.83702 0.0
C2018 C 0.89576 0.4624 0.83408 0.0
C2019 C 0.95801 0.52898 0.84357 0.0
C2020 C 0.94612 0.51366 0.85661 0.0
C2021 C 0.92547 0.4927 0.8532 0.0
C2022 C 0.95572 0.518 0.87377 0.0
C2023 C 0.97973 0.55218 0.84659 0.0
C2024 C 0.97717 0.51896 0.87788 0.0
C2025 C 0.98524 0.52061 0.89424 0.0
C2026 C 0.97199 0.52124 0.90686 0.0
C2027 C 0.95068 0.52071 0.90267 0.0
C2028 C 0.94258 0.51899 0.88627 0.0
H2029 H 0.98254 0.56458 0.83619 0.0
H2030 H 0.97878 0.56016 0.85801 0.0
H2031 H 0.99513 0.54953 0.84792 0.0
H2032 H 0.98729 0.51759 0.86848 0.0
H2033 H 0.00147 0.52049 0.89702 0.0
H2034 H 0.55399 0.50475 0.78426 0.0
H2035 H 0.5508 0.51388 0.81242 0.0
H2036 H 0.59584 0.48656 0.82994 0.0
H2037 H 0.59837 0.47696 0.8017 0.0
H2038 H 0.55504 0.46496 0.84417 0.0
H2039 H 0.58895 0.55995 0.8479 0.0
H2040 H 0.5684 0.54743 0.83085 0.0
H2041 H 0.59561 0.54711 0.83141 0.0
C2042 C 0.56412 0.50187 0.7941 0.0
C2043 C 0.57689 0.49075 0.7909 0.0
C2044 C 0.56227 0.507 0.8102 0.0
C2045 C 0.57328 0.50115 0.82337 0.0
C2046 C 0.58736 0.49144 0.82 0.0
H2047 H 0.55268 0.51928 0.92622 0.0
H2048 H 0.57089 0.52208 0.9003 0.0
C2049 C 0.58909 0.48624 0.80389 0.0
C2050 C 0.56708 0.50167 0.84052 0.0
H2051 H 0.56187 0.53593 0.86836 0.0
C2052 C 0.55691 0.4806 0.84953 0.0
C2053 C 0.56956 0.52204 0.84763 0.0
C2054 C 0.58145 0.54545 0.839 0.0
C2055 C 0.54836 0.47913 0.8651 0.0
C2056 C 0.54958 0.49917 0.87179 0.0
C2057 C 0.56065 0.5205 0.86314 0.0
C2058 C 0.53862 0.49797 0.88743 0.0
C2059 C 0.53791 0.45603 0.87421 0.0
C2060 C 0.51442 0.48375 0.88875 0.0
C2061 C 0.504 0.48201 0.90351 0.0
C2062 C 0.51753 0.49459 0.91733 0.0
C2063 C 0.54178 0.50912 0.91591 0.0
C2064 C 0.5522 0.51088 0.90107 0.0
H2065 H 0.54423 0.44453 0.86975 0.0
H2066 H 0.54217 0.45854 0.88759 0.0
H2067 H 0.51862 0.44695 0.87222 0.0
H2068 H 0.50354 0.47388 0.87832 0.0
H2069 H 0.48535 0.47049 0.90417 0.0
H2070 H 0.61227 0.1661 0.80179 0.0
H2071 H 0.61727 0.15268 0.8295 0.0
H2072 H 0.56334 0.08277 0.81707 0.0
H2073 H 0.55969 0.09617 0.78929 0.0
H2074 H 0.58634 0.13936 0.85001 0.0
H2075 H 0.60303 0.06613 0.84575 0.0
H2076 H 0.60683 0.08562 0.82856 0.0
H2077 H 0.57863 0.06047 0.83205 0.0
C2078 C 0.60244 0.14771 0.80491 0.0
C2079 C 0.58586 0.13197 0.79361 0.0
C2080 C 0.60513 0.14005 0.82069 0.0
C2081 C 0.59087 0.11661 0.82543 0.0
C2082 C 0.57517 0.10072 0.81369 0.0
H2083 H 0.50971 0.06351 0.90672 0.0
H2084 H 0.53191 0.0851 0.88308 0.0
C2085 C 0.57291 0.10833 0.79785 0.0
C2086 C 0.5891 0.1096 0.84303 0.0
H2087 H 0.57791 0.06296 0.86819 0.0
C2088 C 0.58519 0.12295 0.85407 0.0
C2089 C 0.58812 0.08852 0.84863 0.0
C2090 C 0.59468 0.07459 0.8381 0.0
C2091 C 0.57828 0.1148 0.86999 0.0
C2092 C 0.57428 0.09232 0.87479 0.0
C2093 C 0.58031 0.07994 0.86435 0.0
C2094 C 0.56173 0.08045 0.88976 0.0
C2095 C 0.57472 0.13016 0.88131 0.0
C2096 C 0.5708 0.07009 0.90116 0.0
C2097 C 0.55791 0.05738 0.91455 0.0
C2098 C 0.53577 0.05488 0.91674 0.0
C2099 C 0.52688 0.0655 0.90545 0.0
C2100 C 0.53963 0.07795 0.892 0.0
H2101 H 0.58682 0.1489 0.87865 0.0
H2102 H 0.55663 0.12714 0.87932 0.0
H2103 H 0.57752 0.12645 0.89438 0.0
H2104 H 0.58773 0.07165 0.89961 0.0
H2105 H 0.56519 0.04945 0.92316 0.0
H2106 H 0.15786 0.34321 0.60683 0.0
H2107 H 0.17346 0.35878 0.5797 0.0
H2108 H 0.1586 0.29019 0.56585 0.0
H2109 H 0.14275 0.2747 0.59278 0.0
H2110 H 0.2098 0.35556 0.56103 0.0
H2111 H 0.11956 0.31046 0.53288 0.0
H2112 H 0.12558 0.31581 0.5546 0.0
H2113 H 0.12749 0.29239 0.54573 0.0
C2114 C 0.15839 0.33171 0.59801 0.0
C2115 C 0.1493 0.3079 0.60172 0.0
C2116 C 0.16726 0.34053 0.58263 0.0
C2117 C 0.16694 0.32553 0.57082 0.0
C2118 C 0.15885 0.30195 0.57482 0.0
H2119 H 0.22253 0.3416 0.47665 0.0
H2120 H 0.2153 0.33728 0.50585 0.0
C2121 C 0.15002 0.29318 0.59017 0.0
C2122 C 0.17343 0.33401 0.55393 0.0
H2123 H 0.15059 0.32708 0.51466 0.0
C2124 C 0.1969 0.34953 0.55087 0.0
C2125 C 0.15642 0.32637 0.54082 0.0
C2126 C 0.1308 0.31049 0.54361 0.0
C2127 C 0.20397 0.35694 0.53482 0.0
C2128 C 0.18709 0.34836 0.52162 0.0
C2129 C 0.1635 0.33354 0.5248 0.0
C2130 C 0.19352 0.35342 0.50432 0.0
C2131 C 0.22939 0.3738 0.53213 0.0
C2132 C 0.18349 0.36377 0.49376 0.0
C2133 C 0.18755 0.36623 0.47703 0.0
C2134 C 0.2016 0.35824 0.47058 0.0
C2135 C 0.21198 0.34831 0.48127 0.0
C2136 C 0.20791 0.34587 0.49798 0.0
H2137 H 0.23854 0.38383 0.54337 0.0
H2138 H 0.23811 0.36389 0.52888 0.0
H2139 H 0.23135 0.38624 0.52194 0.0
H2140 H 0.1722 0.36957 0.49843 0.0
H2141 H 0.17951 0.37415 0.46913 0.0
H2142 H 0.78761 0.88108 0.59124 0.0
H2143 H 0.77142 0.86878 0.56322 0.0
H2144 H 0.70217 0.84576 0.57943 0.0
H2145 H 0.71861 0.8587 0.60731 0.0
H2146 H 0.73663 0.82874 0.54679 0.0
H2147 H 0.71315 0.89892 0.54722 0.0
H2148 H 0.73145 0.89559 0.56321 0.0
H2149 H 0.70026 0.87706 0.56296 0.0
C2150 C 0.76888 0.87262 0.58884 0.0
C2151 C 0.75426 0.87082 0.60122 0.0
C2152 C 0.75964 0.86572 0.57287 0.0
C2153 C 0.73566 0.85688 0.56918 0.0
C2154 C 0.72078 0.85299 0.58195 0.0
H2155 H 0.65758 0.84192 0.47647 0.0
H2156 H 0.66853 0.83795 0.50508 0.0
C2157 C 0.73007 0.86013 0.59785 0.0
C2158 C 0.72675 0.8544 0.55183 0.0
H2159 H 0.70226 0.87639 0.52337 0.0
C2160 C 0.72903 0.83906 0.54166 0.0
C2161 C 0.71709 0.86813 0.54512 0.0
C2162 C 0.71551 0.88602 0.55512 0.0
C2163 C 0.72161 0.83689 0.52499 0.0
C2164 C 0.71192 0.85059 0.51835 0.0
C2165 C 0.70952 0.86577 0.52855 0.0
C2166 C 0.70486 0.85024 0.50073 0.0
C2167 C 0.72404 0.81989 0.51463 0.0
C2168 C 0.72165 0.85834 0.48877 0.0
C2169 C 0.71544 0.86062 0.47239 0.0
C2170 C 0.69233 0.8549 0.46767 0.0
C2171 C 0.67545 0.84619 0.47963 0.0
C2172 C 0.68169 0.844 0.49601 0.0
H2173 H 0.72627 0.80671 0.52228 0.0
H2174 H 0.70854 0.81071 0.50609 0.0
H2175 H 0.73966 0.82957 0.5072 0.0
H2176 H 0.73972 0.86365 0.4922 0.0
H2177 H 0.72881 0.86722 0.46346 0.0
H2178 H 0.14161 0.89627 0.5987 0.0
H2179 H 0.13936 0.87891 0.57223 0.0
H2180 H 0.07664 0.88198 0.55833 0.0
H2181 H 0.07933 0.8999 0.5848 0.0
H2182 H 0.10522 0.8393 0.55513 0.0
H2183 H 0.12223 0.92215 0.5231 0.0
H2184 H 0.12587 0.92019 0.54507 0.0
H2185 H 0.09711 0.90858 0.53547 0.0
C2186 C 0.1272 0.89286 0.59004 0.0
C2187 C 0.11078 0.89954 0.59357 0.0
C2188 C 0.12586 0.88294 0.57498 0.0
C2189 C 0.10809 0.87957 0.56319 0.0
C2190 C 0.09074 0.88482 0.56715 0.0
H2191 H 0.11026 0.85082 0.45922 0.0
H2192 H 0.09635 0.85564 0.48513 0.0
C2193 C 0.09211 0.8948 0.58226 0.0
C2194 C 0.10902 0.87225 0.54646 0.0
H2195 H 0.12057 0.89267 0.50707 0.0
C2196 C 0.10828 0.85083 0.54457 0.0
C2197 C 0.11303 0.88734 0.5327 0.0
C2198 C 0.1148 0.91094 0.5341 0.0
C2199 C 0.11204 0.84435 0.52938 0.0
C2200 C 0.11703 0.85987 0.51581 0.0
C2201 C 0.11674 0.88081 0.51751 0.0
C2202 C 0.12459 0.8557 0.50017 0.0
C2203 C 0.11095 0.82107 0.52805 0.0
C2204 C 0.14523 0.85446 0.50001 0.0
C2205 C 0.15334 0.85196 0.48526 0.0
C2206 C 0.14102 0.85069 0.47029 0.0
C2207 C 0.12029 0.85193 0.47048 0.0
C2208 C 0.11222 0.85452 0.48529 0.0
H2209 H 0.10014 0.80856 0.53763 0.0
H2210 H 0.10368 0.81333 0.51581 0.0
H2211 H 0.12887 0.82354 0.52978 0.0
H2212 H 0.15541 0.856 0.51128 0.0
H2213 H 0.16964 0.85164 0.48558 0.0
H2214 H 0.60878 0.8093 0.11052 0.0
H2215 H 0.62043 0.82778 0.13748 0.0
H2216 H 0.55387 0.8253 0.13897 0.0
H2217 H 0.54206 0.80618 0.11216 0.0
H2218 H 0.62327 0.8685 0.15051 0.0
H2219 H 0.55557 0.78662 0.17937 0.0
H2220 H 0.56385 0.78772 0.15858 0.0
H2221 H 0.54528 0.79926 0.1633 0.0
C2222 C 0.59684 0.81299 0.1166 0.0
C2223 C 0.57454 0.80624 0.10949 0.0
C2224 C 0.60348 0.82359 0.13189 0.0
C2225 C 0.58786 0.82756 0.1403 0.0
C2226 C 0.56603 0.82206 0.13277 0.0
H2227 H 0.60282 0.85696 0.24537 0.0
H2228 H 0.5889 0.85365 0.21657 0.0
C2229 C 0.55937 0.81136 0.11746 0.0
C2230 C 0.59391 0.83571 0.15743 0.0
H2231 H 0.58043 0.81712 0.19692 0.0
C2232 C 0.61376 0.85742 0.16067 0.0
C2233 C 0.58144 0.82118 0.17065 0.0
C2234 C 0.56045 0.79732 0.16791 0.0
C2235 C 0.62181 0.86477 0.17682 0.0
C2236 C 0.60989 0.84982 0.19001 0.0
C2237 C 0.58948 0.82856 0.18677 0.0
C2238 C 0.6194 0.85469 0.20718 0.0
C2239 C 0.64317 0.88832 0.17961 0.0
C2240 C 0.64114 0.85639 0.21143 0.0
C2241 C 0.64904 0.8581 0.22782 0.0
C2242 C 0.63528 0.858 0.24035 0.0
C2243 C 0.61373 0.85687 0.23603 0.0
C2244 C 0.60582 0.85513 0.21959 0.0
H2245 H 0.64553 0.90039 0.16907 0.0
H2246 H 0.64209 0.8964 0.19094 0.0
H2247 H 0.65889 0.88619 0.18093 0.0
H2248 H 0.6516 0.85541 0.20211 0.0
H2249 H 0.66548 0.85845 0.23071 0.0
H2250 H 0.23664 0.84815 0.11684 0.0
H2251 H 0.23687 0.86204 0.14439 0.0
H2252 H 0.24665 0.8063 0.16585 0.0
H2253 H 0.247 0.79306 0.13844 0.0
H2254 H 0.20362 0.83613 0.16501 0.0
H2255 H 0.28818 0.85771 0.19654 0.0
H2256 H 0.28368 0.855 0.17454 0.0
H2257 H 0.27522 0.82949 0.18747 0.0
C2258 C 0.23988 0.83964 0.12751 0.0
C2259 C 0.24191 0.81967 0.12568 0.0
C2260 C 0.23981 0.8474 0.14321 0.0
C2261 C 0.24196 0.83535 0.15727 0.0
C2262 C 0.24555 0.8163 0.15531 0.0
H2263 H 0.19577 0.80022 0.25402 0.0
H2264 H 0.21238 0.80592 0.22713 0.0
C2265 C 0.24566 0.80864 0.13966 0.0
C2266 C 0.23695 0.8402 0.17374 0.0
H2267 H 0.25549 0.84552 0.21414 0.0
C2268 C 0.21523 0.83878 0.17569 0.0
C2269 C 0.25202 0.84356 0.18774 0.0
C2270 C 0.27617 0.84677 0.18643 0.0
C2271 C 0.20761 0.8392 0.19129 0.0
C2272 C 0.22216 0.84129 0.20532 0.0
C2273 C 0.2443 0.84376 0.20337 0.0
C2274 C 0.21386 0.8391 0.22213 0.0
C2275 C 0.18352 0.83614 0.19273 0.0
C2276 C 0.20959 0.85609 0.22836 0.0
C2277 C 0.20005 0.85286 0.24374 0.0
C2278 C 0.19451 0.83252 0.25312 0.0
C2279 C 0.19949 0.8159 0.24701 0.0
C2280 C 0.20915 0.81921 0.2317 0.0
H2281 H 0.17316 0.83136 0.18088 0.0
H2282 H 0.1738 0.82242 0.20201 0.0
H2283 H 0.18511 0.85271 0.19685 0.0
H2284 H 0.21327 0.87165 0.22121 0.0
H2285 H 0.19632 0.86593 0.24806 0.0
H2286 H 0.20664 0.41304 0.1265 0.0
H2287 H 0.21495 0.40097 0.15364 0.0
H2288 H 0.27899 0.46679 0.15839 0.0
H2289 H 0.2701 0.47908 0.13122 0.0
H2290 H 0.25135 0.39667 0.16965 0.0
H2291 H 0.24113 0.46787 0.19574 0.0
H2292 H 0.23382 0.46004 0.17447 0.0
H2293 H 0.26388 0.4759 0.18167 0.0
C2294 C 0.22264 0.42469 0.13329 0.0
C2295 C 0.23755 0.44704 0.12712 0.0
C2296 C 0.22748 0.4178 0.1487 0.0
C2297 C 0.24736 0.43317 0.15815 0.0
C2298 C 0.26334 0.45486 0.1514 0.0
H2299 H 0.23296 0.39808 0.26374 0.0
H2300 H 0.25479 0.41746 0.2393 0.0
C2301 C 0.2584 0.46179 0.13592 0.0
C2302 C 0.24928 0.4271 0.1756 0.0
H2303 H 0.23799 0.43795 0.21349 0.0
C2304 C 0.24912 0.40604 0.17935 0.0
C2305 C 0.24648 0.43943 0.18826 0.0
C2306 C 0.24621 0.46201 0.18494 0.0
C2307 C 0.24419 0.39597 0.19508 0.0
C2308 C 0.23921 0.40723 0.20726 0.0
C2309 C 0.24172 0.42938 0.20402 0.0
C2310 C 0.22729 0.39464 0.22218 0.0
C2311 C 0.24292 0.37269 0.19829 0.0
C2312 C 0.20453 0.37572 0.22056 0.0
C2313 C 0.19184 0.365 0.23438 0.0
C2314 C 0.20169 0.37289 0.25016 0.0
C2315 C 0.2247 0.39175 0.25176 0.0
C2316 C 0.23732 0.40267 0.23785 0.0
H2317 H 0.25405 0.36999 0.18995 0.0
H2318 H 0.24845 0.37114 0.21119 0.0
H2319 H 0.22461 0.35857 0.19608 0.0
H2320 H 0.19627 0.36971 0.20852 0.0
H2321 H 0.17404 0.35091 0.23262 0.0
H2322 H 0.83595 0.65694 0.93634 0.0
H2323 H 0.85489 0.67267 0.91017 0.0
H2324 H 0.80043 0.61188 0.88537 0.0
H2325 H 0.78161 0.59641 0.91146 0.0
H2326 H 0.87113 0.65443 0.88653 0.0
H2327 H 0.79777 0.66682 0.86151 0.0
H2328 H 0.80152 0.66132 0.88301 0.0
H2329 H 0.78853 0.6376 0.8688 0.0
C2330 C 0.82832 0.64699 0.92526 0.0
C2331 C 0.80726 0.6258 0.92565 0.0
C2332 C 0.83903 0.65591 0.9104 0.0
C2333 C 0.8287 0.64365 0.89584 0.0
C2334 C 0.80831 0.62184 0.89643 0.0
H2335 H 0.87588 0.65012 0.80024 0.0
H2336 H 0.8675 0.64363 0.82925 0.0
C2337 C 0.79762 0.61302 0.91124 0.0
C2338 C 0.83868 0.65381 0.87988 0.0
H2339 H 0.82463 0.66901 0.84226 0.0
C2340 C 0.86113 0.65789 0.87688 0.0
C2341 C 0.82575 0.65877 0.86748 0.0
C2342 C 0.80215 0.65614 0.87038 0.0
C2343 C 0.87055 0.66576 0.86144 0.0
C2344 C 0.85695 0.6692 0.84871 0.0
C2345 C 0.83496 0.66617 0.85199 0.0
C2346 C 0.8644 0.67457 0.83162 0.0
C2347 C 0.89491 0.67019 0.85891 0.0
C2348 C 0.86507 0.69393 0.82325 0.0
C2349 C 0.86964 0.69755 0.80661 0.0
C2350 C 0.87358 0.68186 0.79807 0.0
C2351 C 0.87333 0.66274 0.80657 0.0
C2352 C 0.86864 0.65906 0.82316 0.0
H2353 H 0.90552 0.6743 0.87065 0.0
H2354 H 0.89384 0.65425 0.85397 0.0
H2355 H 0.90405 0.6848 0.85007 0.0
H2356 H 0.86167 0.706 0.82955 0.0
H2357 H 0.86989 0.71251 0.80038 0.0
H2358 H 0.45546 0.21097 0.92442 0.0
H2359 H 0.44327 0.20123 0.89545 0.0
H2360 H 0.37244 0.18108 0.90618 0.0
H2361 H 0.38472 0.19078 0.93511 0.0
H2362 H 0.38019 0.15368 0.87963 0.0
H2363 H 0.42524 0.25062 0.87311 0.0
H2364 H 0.44142 0.2379 0.88327 0.0
H2365 H 0.41666 0.23599 0.89271 0.0
C2366 C 0.43714 0.20343 0.92065 0.0
C2367 C 0.42096 0.2016 0.9318 0.0
C2368 C 0.43022 0.19803 0.90415 0.0
C2369 C 0.40702 0.19067 0.89871 0.0
C2370 C 0.3904 0.18667 0.91017 0.0
H2371 H 0.3407 0.21088 0.81183 0.0
H2372 H 0.35372 0.20532 0.83946 0.0
C2373 C 0.39736 0.19215 0.92664 0.0
C2374 C 0.40088 0.19107 0.88102 0.0
H2375 H 0.40573 0.22888 0.84964 0.0
C2376 C 0.38599 0.17005 0.87296 0.0
C2377 C 0.40824 0.21253 0.8725 0.0
C2378 C 0.42366 0.23562 0.88078 0.0
C2379 C 0.37814 0.17003 0.85654 0.0
C2380 C 0.3853 0.19152 0.84815 0.0
C2381 C 0.4004 0.21246 0.85615 0.0
C2382 C 0.37624 0.19292 0.83137 0.0
C2383 C 0.36165 0.14719 0.84838 0.0
C2384 C 0.38461 0.18771 0.8177 0.0
C2385 C 0.37745 0.19119 0.80183 0.0
C2386 C 0.36182 0.19995 0.7994 0.0
C2387 C 0.35308 0.20455 0.81322 0.0
C2388 C 0.36033 0.20119 0.82902 0.0
H2389 H 0.35634 0.13207 0.85696 0.0
H2390 H 0.34576 0.14749 0.84331 0.0
H2391 H 0.37024 0.14473 0.83797 0.0
H2392 H 0.39714 0.18158 0.81931 0.0
H2393 H 0.38472 0.1877 0.79149 0.0
H2394 H 0.80446 0.22805 0.93031 0.0
H2395 H 0.80137 0.21113 0.90351 0.0
H2396 H 0.73739 0.21271 0.89172 0.0
H2397 H 0.74085 0.23009 0.9186 0.0
H2398 H 0.76638 0.17094 0.88688 0.0
H2399 H 0.78139 0.25372 0.85567 0.0
H2400 H 0.78627 0.25181 0.87751 0.0
H2401 H 0.75703 0.23983 0.86873 0.0
C2402 C 0.78961 0.22441 0.92203 0.0
C2403 C 0.773 0.23045 0.92629 0.0
C2404 C 0.78779 0.21474 0.9068 0.0
C2405 C 0.76937 0.21103 0.89553 0.0
C2406 C 0.75195 0.21578 0.90015 0.0
H2407 H 0.77067 0.18492 0.79087 0.0
H2408 H 0.75655 0.18862 0.81704 0.0
C2409 C 0.75378 0.22547 0.91548 0.0
C2410 C 0.76968 0.20385 0.87863 0.0
H2411 H 0.78026 0.22482 0.83931 0.0
C2412 C 0.76908 0.18256 0.87643 0.0
C2413 C 0.7732 0.21905 0.86501 0.0
C2414 C 0.77469 0.24247 0.86675 0.0
C2415 C 0.7726 0.17636 0.86106 0.0
C2416 C 0.77725 0.19206 0.84762 0.0
C2417 C 0.77672 0.21283 0.84964 0.0
C2418 C 0.78481 0.18835 0.83183 0.0
C2419 C 0.77169 0.15322 0.8594 0.0
C2420 C 0.80551 0.18725 0.83146 0.0
C2421 C 0.81372 0.18537 0.81658 0.0
C2422 C 0.80147 0.18462 0.80168 0.0
C2423 C 0.78065 0.18564 0.80209 0.0
C2424 C 0.77247 0.18759 0.81703 0.0
H2425 H 0.7609 0.14046 0.86887 0.0
H2426 H 0.76448 0.14572 0.84709 0.0
H2427 H 0.78965 0.15578 0.86108 0.0
H2428 H 0.81569 0.18848 0.84268 0.0
H2429 H 0.83008 0.18519 0.81674 0.0
H2430 H 0.2779 0.14263 0.44342 0.0
H2431 H 0.289 0.15797 0.47136 0.0
H2432 H 0.22075 0.15078 0.47537 0.0
H2433 H 0.20967 0.13521 0.4474 0.0
H2434 H 0.28774 0.1958 0.48864 0.0
H2435 H 0.22668 0.10587 0.51094 0.0
H2436 H 0.23616 0.11184 0.49017 0.0
H2437 H 0.21488 0.11906 0.4964 0.0
C2438 C 0.26556 0.14487 0.45021 0.0
C2439 C 0.24298 0.13773 0.44349 0.0
C2440 C 0.27186 0.15364 0.46607 0.0
C2441 C 0.25559 0.15526 0.47544 0.0
C2442 C 0.23347 0.14951 0.46834 0.0
H2443 H 0.28824 0.1984 0.57896 0.0
H2444 H 0.27373 0.19543 0.55026 0.0
C2445 C 0.2272 0.14079 0.45242 0.0
C2446 C 0.26105 0.16036 0.49311 0.0
H2447 H 0.24981 0.13366 0.53077 0.0
C2448 C 0.27922 0.1824 0.49792 0.0
C2449 C 0.25005 0.14266 0.50509 0.0
C2450 C 0.23095 0.11845 0.50049 0.0
C2451 C 0.28703 0.18702 0.51444 0.0
C2452 C 0.27636 0.16913 0.52633 0.0
C2453 C 0.2578 0.14733 0.52157 0.0
C2454 C 0.28565 0.17183 0.5435 0.0
C2455 C 0.3073 0.21056 0.51904 0.0
C2456 C 0.29703 0.15948 0.54911 0.0
C2457 C 0.30543 0.16122 0.56537 0.0
C2458 C 0.30242 0.1752 0.57642 0.0
C2459 C 0.29105 0.18766 0.57073 0.0
C2460 C 0.28271 0.18597 0.55437 0.0
H2461 H 0.31502 0.22186 0.50813 0.0
H2462 H 0.30128 0.21954 0.52704 0.0
H2463 H 0.3211 0.20842 0.52609 0.0
H2464 H 0.2995 0.14852 0.54085 0.0
H2465 H 0.3145 0.15176 0.56922 0.0
H2466 H 0.91345 0.12496 0.47136 0.0
H2467 H 0.91138 0.13822 0.49848 0.0
H2468 H 0.90023 0.19234 0.47559 0.0
H2469 H 0.90197 0.17867 0.4484 0.0
H2470 H 0.93286 0.18068 0.51639 0.0
H2471 H 0.83921 0.14978 0.49889 0.0
H2472 H 0.85736 0.14329 0.48694 0.0
H2473 H 0.86007 0.1718 0.48576 0.0
C2474 C 0.91136 0.14018 0.47223 0.0
C2475 C 0.90776 0.1508 0.45795 0.0
C2476 C 0.91011 0.1477 0.48766 0.0
C2477 C 0.90515 0.16595 0.48904 0.0
C2478 C 0.9037 0.17799 0.47478 0.0
H2479 H 0.849 0.19352 0.57457 0.0
H2480 H 0.86588 0.19749 0.54798 0.0
C2481 C 0.90496 0.17041 0.45931 0.0
C2482 C 0.89877 0.17024 0.50514 0.0
H2483 H 0.852 0.163 0.52571 0.0
C2484 C 0.91527 0.17708 0.51842 0.0
C2485 C 0.87574 0.16537 0.50778 0.0
C2486 C 0.85696 0.15697 0.49417 0.0
C2487 C 0.90927 0.17898 0.53429 0.0
C2488 C 0.88606 0.17344 0.537 0.0
C2489 C 0.86979 0.16727 0.52363 0.0
C2490 C 0.87778 0.17261 0.55367 0.0
C2491 C 0.92785 0.18685 0.548 0.0
C2492 C 0.8788 0.15727 0.56573 0.0
C2493 C 0.86908 0.15487 0.58092 0.0
C2494 C 0.8579 0.16761 0.58433 0.0
C2495 C 0.85722 0.18323 0.5723 0.0
C2496 C 0.86699 0.18564 0.55712 0.0
H2497 H 0.94564 0.19722 0.54325 0.0
H2498 H 0.92534 0.19751 0.55697 0.0
H2499 H 0.92686 0.1713 0.55453 0.0
H2500 H 0.88644 0.14654 0.56322 0.0
H2501 H 0.86958 0.1424 0.58977 0.0
H2502 H 0.92825 0.82857 0.46076 0.0
H2503 H 0.93173 0.8193 0.48985 0.0
H2504 H 0.8992 0.74624 0.47817 0.0
H2505 H 0.89656 0.75583 0.44913 0.0
H2506 H 0.89312 0.79526 0.50516 0.0
H2507 H 0.94367 0.74919 0.51487 0.0
H2508 H 0.94572 0.76638 0.49658 0.0
H2509 H 0.92255 0.73655 0.49816 0.0
C2510 C 0.92294 0.81073 0.46445 0.0
C2511 C 0.91219 0.79284 0.45295 0.0
C2512 C 0.92482 0.80541 0.481 0.0
C2513 C 0.91579 0.78207 0.48623 0.0
C2514 C 0.90681 0.7644 0.47445 0.0
H2515 H 0.82741 0.70937 0.56268 0.0
H2516 H 0.84762 0.72999 0.53809 0.0
C2517 C 0.90521 0.76981 0.45788 0.0
C2518 C 0.91135 0.77576 0.50379 0.0
H2519 H 0.91269 0.73891 0.53394 0.0
C2520 C 0.89794 0.78339 0.51158 0.0
C2521 C 0.91772 0.76043 0.51227 0.0
C2522 C 0.93343 0.75289 0.50506 0.0
C2523 C 0.88946 0.77493 0.52713 0.0
C2524 C 0.89409 0.75802 0.53495 0.0
C2525 C 0.90883 0.75158 0.52775 0.0
C2526 C 0.88222 0.74558 0.54994 0.0
C2527 C 0.87502 0.78365 0.53484 0.0
C2528 C 0.89506 0.74718 0.56463 0.0
C2529 C 0.88355 0.7353 0.5787 0.0
C2530 C 0.85903 0.72145 0.57821 0.0
C2531 C 0.8463 0.71978 0.56341 0.0
C2532 C 0.85779 0.73169 0.5494 0.0
H2533 H 0.87897 0.80112 0.52988 0.0
H2534 H 0.85622 0.77138 0.53206 0.0
H2535 H 0.87811 0.78472 0.54836 0.0
H2536 H 0.91394 0.75769 0.56521 0.0
H2537 H 0.89385 0.73664 0.58987 0.0
loop_
_geom_bond_atom_site_label_1
_geom_bond_atom_site_label_2
_geom_bond_distance
_geom_bond_site_symmetry_2
_ccdc_geom_bond_type
C0 N1 1.317 . S
C0 N2 1.348 . S
C0 C3 1.485 . S
N1 C0 1.317 . S
N1 N5 1.370 . S
N2 C0 1.348 . S
N2 C4 1.346 . S
C3 C0 1.485 . S
C3 H7 0.960 . S
C3 H8 0.961 . S
C3 H9 0.960 . S
C4 N2 1.346 . S
C4 N5 1.307 . S
C4 C6 1.486 . S
N5 N1 1.370 . S
N5 C4 1.307 . S
C6 C4 1.486 . S
C6 H10 0.960 . S
C6 H11 0.960 . S
C6 H12 0.959 . S
H7 C3 0.960 . S
H8 C3 0.961 . S
H9 C3 0.960 . S
H10 C6 0.960 . S
H11 C6 0.960 . S
H12 C6 0.959 . S
C13 N14 1.317 . S
C13 N15 1.348 . S
C13 C16 1.485 . S
N14 C13 1.317 . S
N14 N18 1.370 . S
N15 C13 1.348 . S
N15 C17 1.346 . S
C16 C13 1.485 . S
C16 H20 0.960 . S
C16 H21 0.961 . S
C16 H22 0.960 . S
C17 N15 1.346 . S
C17 N18 1.307 . S
C17 C19 1.486 . S
N18 N14 1.370 . S
N18 C17 1.307 . S
C19 C17 1.486 . S
C19 H23 0.960 . S
C19 H24 0.960 . S
C19 H25 0.959 . S
H20 C16 0.960 . S
H21 C16 0.961 . S
H22 C16 0.960 . S
H23 C19 0.960 . S
H24 C19 0.960 . S
H25 C19 0.959 . S
C26 N27 1.317 . S
C26 N28 1.348 . S
C26 C29 1.485 . S
N27 C26 1.317 . S
N27 N31 1.370 . S
N28 C26 1.348 . S
N28 C30 1.346 . S
C29 C26 1.485 . S
C29 H33 0.960 . S
C29 H34 0.961 . S
C29 H35 0.960 . S
C30 N28 1.346 . S
C30 N31 1.307 . S
C30 C32 1.486 . S
N31 N27 1.370 . S
N31 C30 1.307 . S
C32 C30 1.486 . S
C32 H36 0.960 . S
C32 H37 0.960 . S
C32 H38 0.959 . S
H33 C29 0.960 . S
H34 C29 0.961 . S
H35 C29 0.960 . S
H36 C32 0.960 . S
H37 C32 0.960 . S
H38 C32 0.959 . S
C39 N40 1.317 . S
C39 N41 1.348 . S
C39 C42 1.485 . S
N40 C39 1.317 . S
N40 N44 1.370 . S
N41 C39 1.348 . S
N41 C43 1.346 . S
C42 C39 1.485 . S
C42 H46 0.960 . S
C42 H47 0.961 . S
C42 H48 0.960 . S
C43 N41 1.346 . S
C43 N44 1.307 . S
C43 C45 1.486 . S
N44 N40 1.370 . S
N44 C43 1.307 . S
C45 C43 1.486 . S
C45 H49 0.960 . S
C45 H50 0.960 . S
C45 H51 0.959 . S
H46 C42 0.960 . S
H47 C42 0.961 . S
H48 C42 0.960 . S
H49 C45 0.960 . S
H50 C45 0.960 . S
H51 C45 0.959 . S
C52 N53 1.317 . S
C52 N54 1.348 . S
C52 C55 1.485 . S
N53 C52 1.317 . S
N53 N57 1.370 . S
N54 C52 1.348 . S
N54 C56 1.346 . S
C55 C52 1.485 . S
C55 H59 0.960 . S
C55 H60 0.961 . S
C55 H61 0.960 . S
C56 N54 1.346 . S
C56 N57 1.307 . S
C56 C58 1.486 . S
N57 N53 1.370 . S
N57 C56 1.307 . S
C58 C56 1.486 . S
C58 H62 0.960 . S
C58 H63 0.960 . S
C58 H64 0.959 . S
H59 C55 0.960 . S
H60 C55 0.961 . S
H61 C55 0.960 . S
H62 C58 0.960 . S
H63 C58 0.960 . S
H64 C58 0.959 . S
C65 N66 1.317 . S
C65 N67 1.348 . S
C65 C68 1.485 . S
N66 C65 1.317 . S
N66 N70 1.370 . S
N67 C65 1.348 . S
N67 C69 1.346 . S
C68 C65 1.485 . S
C68 H72 0.960 . S
C68 H73 0.961 . S
C68 H74 0.960 . S
C69 N67 1.346 . S
C69 N70 1.307 . S
C69 C71 1.486 . S
N70 N66 1.370 . S
N70 C69 1.307 . S
C71 C69 1.486 . S
C71 H75 0.960 . S
C71 H76 0.960 . S
C71 H77 0.959 . S
H72 C68 0.960 . S
H73 C68 0.961 . S
H74 C68 0.960 . S
H75 C71 0.960 . S
H76 C71 0.960 . S
H77 C71 0.959 . S
C78 N79 1.317 . S
C78 N80 1.348 . S
C78 C81 1.485 . S
N79 C78 1.317 . S
N79 N83 1.370 . S
N80 C78 1.348 . S
N80 C82 1.346 . S
C81 C78 1.485 . S
C81 H85 0.960 . S
C81 H86 0.961 . S
C81 H87 0.960 . S
C82 N80 1.346 . S
C82 N83 1.307 . S
C82 C84 1.486 . S
N83 N79 1.370 . S
N83 C82 1.307 . S
C84 C82 1.486 . S
C84 H88 0.960 . S
C84 H89 0.960 . S
C84 H90 0.959 . S
H85 C81 0.960 . S
H86 C81 0.961 . S
H87 C81 0.960 . S
H88 C84 0.960 . S
H89 C84 0.960 . S
H90 C84 0.959 . S
C91 N92 1.317 . S
C91 N93 1.348 . S
C91 C94 1.485 . S
N92 C91 1.317 . S
N92 N96 1.370 . S
N93 C91 1.348 . S
N93 C95 1.346 . S
C94 C91 1.485 . S
C94 H98 0.960 . S
C94 H99 0.961 . S
C94 H100 0.960 . S
C95 N93 1.346 . S
C95 N96 1.307 . S
C95 C97 1.486 . S
N96 N92 1.370 . S
N96 C95 1.307 . S
C97 C95 1.486 . S
C97 H101 0.960 . S
C97 H102 0.960 . S
C97 H103 0.959 . S
H98 C94 0.960 . S
H99 C94 0.961 . S
H100 C94 0.960 . S
H101 C97 0.960 . S
H102 C97 0.960 . S
H103 C97 0.959 . S
C104 N105 1.317 . S
C104 N106 1.348 . S
C104 C107 1.485 . S
N105 C104 1.317 . S
N105 N109 1.370 . S
N106 C104 1.348 . S
N106 C108 1.346 . S
C107 C104 1.485 . S
C107 H111 0.960 . S
C107 H112 0.961 . S
C107 H113 0.960 . S
C108 N106 1.346 . S
C108 N109 1.307 . S
C108 C110 1.486 . S
N109 N105 1.370 . S
N109 C108 1.307 . S
C110 C108 1.486 . S
C110 H114 0.960 . S
C110 H115 0.960 . S
C110 H116 0.959 . S
H111 C107 0.960 . S
H112 C107 0.961 . S
H113 C107 0.960 . S
H114 C110 0.960 . S
H115 C110 0.960 . S
H116 C110 0.959 . S
C117 N118 1.317 . S
C117 N119 1.348 . S
C117 C120 1.485 . S
N118 C117 1.317 . S
N118 N122 1.370 . S
N119 C117 1.348 . S
N119 C121 1.346 . S
C120 C117 1.485 . S
C120 H124 0.960 . S
C120 H125 0.961 . S
C120 H126 0.960 . S
C121 N119 1.346 . S
C121 N122 1.307 . S
C121 C123 1.486 . S
N122 N118 1.370 . S
N122 C121 1.307 . S
C123 C121 1.486 . S
C123 H127 0.960 . S
C123 H128 0.960 . S
C123 H129 0.959 . S
H124 C120 0.960 . S
H125 C120 0.961 . S
H126 C120 0.960 . S
H127 C123 0.960 . S
H128 C123 0.960 . S
H129 C123 0.959 . S
C130 N131 1.317 . S
C130 N132 1.348 . S
C130 C133 1.437 1_556 S
N131 C130 1.317 . S
N131 N135 1.370 . S
N132 C130 1.348 . S
N132 C134 1.346 . S
C133 C130 1.437 1_554 S
C133 H137 0.997 . S
C133 H138 0.979 . S
C133 H139 0.958 . S
C134 N132 1.346 . S
C134 N135 1.307 . S
C134 C136 1.486 . S
N135 N131 1.370 . S
N135 C134 1.307 . S
C136 C134 1.486 . S
C136 H140 0.960 . S
C136 H141 0.960 . S
C136 H142 0.959 . S
H137 C133 0.997 . S
H138 C133 0.979 . S
H139 C133 0.958 . S
H140 C136 0.960 . S
H141 C136 0.960 . S
H142 C136 0.959 . S
C143 N144 1.317 . S
C143 N145 1.348 . S
C143 C146 1.485 . S
N144 C143 1.317 . S
N144 N148 1.370 . S
N145 C143 1.348 . S
N145 C147 1.346 . S
C146 C143 1.485 . S
C146 H150 0.960 . S
C146 H151 0.961 1_556 S
C146 H152 0.978 . S
C147 N145 1.346 . S
C147 N148 1.307 . S
C147 C149 1.486 . S
N148 N144 1.370 . S
N148 C147 1.307 . S
C149 C147 1.486 . S
C149 H153 0.960 . S
C149 H154 0.960 . S
C149 H155 0.959 . S
H150 C146 0.960 . S
H151 C146 0.961 1_554 S
H152 C146 0.978 . S
H153 C149 0.960 . S
H154 C149 0.960 . S
H155 C149 0.959 . S
C156 N157 1.317 . S
C156 N158 1.348 . S
C156 C159 1.485 . S
N157 C156 1.317 . S
N157 N161 1.370 . S
N158 C156 1.348 . S
N158 C160 1.346 . S
C159 C156 1.485 . S
C159 H163 0.960 . S
C159 H164 0.961 . S
C159 H165 0.960 . S
C160 N158 1.346 . S
C160 N161 1.307 . S
C160 C162 1.486 . S
N161 N157 1.370 . S
N161 C160 1.307 . S
C162 C160 1.486 . S
C162 H166 0.960 . S
C162 H167 0.960 . S
C162 H168 0.959 . S
H163 C159 0.960 . S
H164 C159 0.961 . S
H165 C159 0.960 . S
H166 C162 0.960 . S
H167 C162 0.960 . S
H168 C162 0.959 . S
C169 N170 1.317 . S
C169 N171 1.348 . S
C169 C172 1.485 . S
N170 C169 1.317 . S
N170 N174 1.370 . S
N171 C169 1.348 . S
N171 C173 1.346 . S
C172 C169 1.485 . S
C172 H176 0.960 . S
C172 H177 0.961 . S
C172 H178 0.960 . S
C173 N171 1.346 . S
C173 N174 1.307 . S
C173 C175 1.486 . S
N174 N170 1.370 . S
N174 C173 1.307 . S
C175 C173 1.486 . S
C175 H179 0.960 . S
C175 H180 0.960 . S
C175 H181 0.959 . S
H176 C172 0.960 . S
H177 C172 0.961 . S
H178 C172 0.960 . S
H179 C175 0.960 . S
H180 C175 0.960 . S
H181 C175 0.959 . S
C182 N183 1.317 . S
C182 N184 1.348 . S
C182 C185 1.485 . S
N183 C182 1.317 . S
N183 N187 1.370 . S
N184 C182 1.348 . S
N184 C186 1.346 . S
C185 C182 1.485 . S
C185 H189 0.960 . S
C185 H190 0.961 . S
C185 H191 0.960 . S
C186 N184 1.346 . S
C186 N187 1.307 . S
C186 C188 1.486 . S
N187 N183 1.370 . S
N187 C186 1.307 . S
C188 C186 1.486 . S
C188 H192 0.960 . S
C188 H193 0.960 . S
C188 H194 0.959 . S
H189 C185 0.960 . S
H190 C185 0.961 . S
H191 C185 0.960 . S
H192 C188 0.960 . S
H193 C188 0.960 . S
H194 C188 0.959 . S
C195 N196 1.317 . S
C195 N197 1.348 . S
C195 C198 1.485 . S
N196 C195 1.317 . S
N196 N200 1.370 . S
N197 C195 1.348 . S
N197 C199 1.346 . S
C198 C195 1.485 . S
C198 H202 0.960 . S
C198 H203 0.961 . S
C198 H204 0.960 . S
C199 N197 1.346 . S
C199 N200 1.307 . S
C199 C201 1.486 . S
N200 N196 1.370 . S
N200 C199 1.307 . S
C201 C199 1.486 . S
C201 H205 0.960 . S
C201 H206 0.960 . S
C201 H207 0.959 . S
H202 C198 0.960 . S
H203 C198 0.961 . S
H204 C198 0.960 . S
H205 C201 0.960 . S
H206 C201 0.960 . S
H207 C201 0.959 . S
C208 N209 1.317 . S
C208 N210 1.348 . S
C208 C211 1.485 . S
N209 C208 1.317 . S
N209 N213 1.370 . S
N210 C208 1.348 . S
N210 C212 1.346 . S
C211 C208 1.485 . S
C211 H215 0.960 . S
C211 H216 0.961 . S
C211 H217 0.960 . S
C212 N210 1.346 . S
C212 N213 1.307 . S
C212 C214 1.486 . S
N213 N209 1.370 . S
N213 C212 1.307 . S
C214 C212 1.486 . S
C214 H218 0.960 . S
C214 H219 0.960 . S
C214 H220 0.959 . S
H215 C211 0.960 . S
H216 C211 0.961 . S
H217 C211 0.960 . S
H218 C214 0.960 . S
H219 C214 0.960 . S
H220 C214 0.959 . S
C221 N222 1.317 . S
C221 N223 1.348 . S
C221 C224 1.485 . S
N222 C221 1.317 . S
N222 N226 1.370 . S
N223 C221 1.348 . S
N223 C225 1.346 . S
C224 C221 1.485 . S
C224 H228 0.960 . S
C224 H229 0.961 . S
C224 H230 0.960 . S
C225 N223 1.346 . S
C225 N226 1.307 . S
C225 C227 1.486 . S
N226 N222 1.370 . S
N226 C225 1.307 . S
C227 C225 1.486 . S
C227 H231 0.960 . S
C227 H232 0.960 . S
C227 H233 0.959 . S
H228 C224 0.960 . S
H229 C224 0.961 . S
H230 C224 0.960 . S
H231 C227 0.960 . S
H232 C227 0.960 . S
H233 C227 0.959 . S
C234 Eu235 2.835 1_565 S
C234 C236 1.500 . S
C234 O254 1.257 . S
C234 O255 1.260 1_565 S
Eu235 C234 2.835 1_545 S
Eu235 O254 2.473 1_545 S
Eu235 O255 2.480 . S
Eu235 O256 2.430 . S
Eu235 O257 2.670 . S
Eu235 O258 2.394 1_545 S
Eu235 O263 2.355 1_545 S
Eu235 O265 2.374 . S
C236 C234 1.500 . S
C236 C237 1.377 . S
C236 C241 1.377 . S
C237 C236 1.377 . S
C237 C238 1.395 . S
C237 H266 0.931 1_565 S
C238 C237 1.395 . S
C238 C239 1.383 . S
C238 H267 0.931 . S
C239 C238 1.383 . S
C239 C240 1.394 . S
C240 C239 1.394 . S
C240 C241 1.378 . S
C240 H268 0.931 . S
C241 C236 1.377 . S
C241 C240 1.378 . S
C241 H269 0.931 . S
C242 O256 1.259 . S
C242 O257 1.270 . S
C243 O258 1.251 . S
C243 O259 1.251 . S
C244 Eu245 2.835 1_545 S
C244 C246 1.500 . S
C244 O260 1.257 . S
C244 O261 1.260 1_545 S
Eu245 C244 2.835 1_565 S
Eu245 O257 2.355 1_566 S
Eu245 O259 2.374 1_556 S
Eu245 O260 2.473 1_565 S
Eu245 O261 2.480 . S
Eu245 O262 2.430 . S
Eu245 O263 2.670 1_556 S
Eu245 O264 2.394 1_565 S
C246 C244 1.500 . S
C246 C247 1.377 . S
C246 C251 1.377 . S
C247 C246 1.377 . S
C247 C248 1.395 . S
C247 H270 0.885 1_545 S
C248 C247 1.395 . S
C248 C249 1.383 . S
C248 H271 0.931 . S
C249 C248 1.383 . S
C249 C250 1.394 . S
C250 C249 1.394 . S
C250 C251 1.378 . S
C250 H272 0.931 . S
C251 C246 1.377 . S
C251 C250 1.378 . S
C251 H273 0.931 . S
C252 O262 1.259 1_554 S
C252 O263 1.270 . S
C253 O264 1.251 1_554 S
C253 O265 1.251 . S
O254 C234 1.257 . S
O254 Eu235 2.473 1_565 S
O255 C234 1.260 1_545 S
O255 Eu235 2.480 . S
O256 Eu235 2.430 . S
O256 C242 1.259 . S
O257 Eu235 2.670 . S
O257 C242 1.270 . S
O257 Eu245 2.355 1_544 S
O258 Eu235 2.394 1_565 S
O258 C243 1.251 . S
O259 C243 1.251 . S
O259 Eu245 2.374 1_554 S
O260 C244 1.257 . S
O260 Eu245 2.473 1_545 S
O261 C244 1.260 1_565 S
O261 Eu245 2.480 . S
O262 Eu245 2.430 . S
O262 C252 1.259 1_556 S
O263 Eu235 2.355 1_565 S
O263 Eu245 2.670 1_554 S
O263 C252 1.270 . S
O264 Eu245 2.394 1_545 S
O264 C253 1.251 1_556 S
O265 Eu235 2.374 . S
O265 C253 1.251 . S
H266 C237 0.931 1_545 S
H267 C238 0.931 . S
H268 C240 0.931 . S
H269 C241 0.931 . S
H270 C247 0.885 1_565 S
H271 C248 0.931 . S
H272 C250 0.931 . S
H273 C251 0.931 . S
C274 Eu275 2.835 1_455 S
C274 C276 1.500 . S
C274 O294 1.257 . S
C274 O295 1.260 1_455 S
Eu275 C274 2.835 1_655 S
Eu275 O294 2.473 1_655 S
Eu275 O295 2.480 . S
Eu275 O296 2.430 . S
Eu275 O297 2.670 1_554 S
Eu275 O298 2.394 1_655 S
Eu275 O303 2.355 1_655 S
Eu275 O305 2.374 . S
C276 C274 1.500 . S
C276 C277 1.377 . S
C276 C281 1.377 . S
C277 C276 1.377 . S
C277 C278 1.395 . S
C277 H306 0.931 1_455 S
C278 C277 1.395 . S
C278 C279 1.383 . S
C278 H307 0.931 . S
C279 C278 1.383 . S
C279 C280 1.394 . S
C280 C279 1.394 . S
C280 C281 1.378 . S
C280 H308 0.931 . S
C281 C276 1.377 . S
C281 C280 1.378 . S
C281 H309 0.931 . S
C282 O296 1.259 . S
C282 O297 1.270 1_554 S
C283 O298 1.251 . S
C283 O299 1.251 . S
C284 Eu285 2.835 . S
C284 C286 1.500 1_455 S
C284 O300 1.257 1_455 S
C284 O301 1.260 . S
Eu285 C284 2.835 . S
Eu285 O297 2.355 1_455 S
Eu285 O299 2.374 1_556 S
Eu285 O300 2.473 1_455 S
Eu285 O301 2.480 . S
Eu285 O302 2.430 . S
Eu285 O303 2.670 1_556 S
Eu285 O304 2.394 1_455 S
C286 C284 1.500 1_655 S
C286 C287 1.377 1_655 S
C286 C291 1.377 . S
C287 C286 1.377 1_455 S
C287 C288 1.395 . S
C287 H310 0.931 . S
C288 C287 1.395 . S
C288 C289 1.383 1_455 S
C288 H311 0.931 . S
C289 C288 1.383 1_655 S
C289 C290 1.394 . S
C290 C289 1.394 . S
C290 C291 1.378 . S
C290 H312 0.931 . S
C291 C286 1.377 . S
C291 C290 1.378 . S
C291 H313 0.931 . S
C292 O302 1.259 1_554 S
C292 O303 1.270 . S
C293 O304 1.251 . S
C293 O305 1.251 1_556 S
O294 C274 1.257 . S
O294 Eu275 2.473 1_455 S
O295 C274 1.260 1_655 S
O295 Eu275 2.480 . S
O296 Eu275 2.430 . S
O296 C282 1.259 . S
O297 Eu275 2.670 1_556 S
O297 C282 1.270 1_556 S
O297 Eu285 2.355 1_655 S
O298 Eu275 2.394 1_455 S
O298 C283 1.251 . S
O299 C283 1.251 . S
O299 Eu285 2.374 1_554 S
O300 C284 1.257 1_655 S
O300 Eu285 2.473 1_655 S
O301 C284 1.260 . S
O301 Eu285 2.480 . S
O302 Eu285 2.430 . S
O302 C292 1.259 1_556 S
O303 Eu275 2.355 1_455 S
O303 Eu285 2.670 1_554 S
O303 C292 1.270 . S
O304 Eu285 2.394 1_655 S
O304 C293 1.251 . S
O305 Eu275 2.374 . S
O305 C293 1.251 1_554 S
H306 C277 0.931 1_655 S
H307 C278 0.931 . S
H308 C280 0.931 . S
H309 C281 0.931 . S
H310 C287 0.931 . S
H311 C288 0.931 . S
H312 C290 0.931 . S
H313 C291 0.931 . S
C314 Eu315 2.835 . S
C314 C316 1.500 . S
C314 O334 1.257 . S
C314 O335 1.260 . S
Eu315 C314 2.835 . S
Eu315 O334 2.473 . S
Eu315 O335 2.480 . S
Eu315 O336 2.430 1_556 S
Eu315 O337 2.670 1_556 S
Eu315 O338 2.395 . S
Eu315 O343 2.355 1_556 S
Eu315 O345 2.374 1_556 S
C316 C314 1.500 . S
C316 C317 1.377 . S
C316 C321 1.377 . S
C317 C316 1.377 . S
C317 C318 1.395 . S
C317 H346 0.931 . S
C318 C317 1.395 . S
C318 C319 1.383 . S
C318 H347 0.931 . S
C319 C318 1.383 . S
C319 C320 1.394 . S
C320 C319 1.394 . S
C320 C321 1.378 . S
C320 H348 0.931 . S
C321 C316 1.377 . S
C321 C320 1.378 . S
C321 H349 0.931 . S
C322 O336 1.259 . S
C322 O337 1.270 . S
C323 O338 1.226 1_554 S
C323 O339 1.251 . S
C324 Eu325 2.835 . S
C324 C326 1.500 . S
C324 O340 1.257 . S
C324 O341 1.260 . S
Eu325 C324 2.835 . S
Eu325 O337 2.355 . S
Eu325 O339 2.374 . S
Eu325 O340 2.473 . S
Eu325 O341 2.480 . S
Eu325 O342 2.430 . S
Eu325 O343 2.670 . S
Eu325 O344 2.394 . S
C326 C324 1.500 . S
C326 C327 1.377 . S
C326 C331 1.377 . S
C327 C326 1.377 . S
C327 C328 1.395 . S
C327 H350 0.931 . S
C328 C327 1.395 . S
C328 C329 1.383 . S
C328 H351 0.931 . S
C329 C328 1.383 . S
C329 C330 1.394 . S
C330 C329 1.394 . S
C330 C331 1.378 . S
C330 H352 0.931 . S
C331 C326 1.377 . S
C331 C330 1.378 . S
C331 H353 0.931 . S
C332 O342 1.259 . S
C332 O343 1.270 . S
C333 O344 1.251 . S
C333 O345 1.251 . S
O334 C314 1.257 . S
O334 Eu315 2.473 . S
O335 C314 1.260 . S
O335 Eu315 2.480 . S
O336 Eu315 2.430 1_554 S
O336 C322 1.259 . S
O337 Eu315 2.670 1_554 S
O337 C322 1.270 . S
O337 Eu325 2.355 . S
O338 Eu315 2.395 . S
O338 C323 1.226 1_556 S
O339 C323 1.251 . S
O339 Eu325 2.374 . S
O340 C324 1.257 . S
O340 Eu325 2.473 . S
O341 C324 1.260 . S
O341 Eu325 2.480 . S
O342 Eu325 2.430 . S
O342 C332 1.259 . S
O343 Eu315 2.355 1_554 S
O343 Eu325 2.670 . S
O343 C332 1.270 . S
O344 Eu325 2.394 . S
O344 C333 1.251 . S
O345 Eu315 2.374 1_554 S
O345 C333 1.251 . S
H346 C317 0.931 . S
H347 C318 0.931 . S
H348 C320 0.931 . S
H349 C321 0.931 . S
H350 C327 0.931 . S
H351 C328 0.931 . S
H352 C330 0.931 . S
H353 C331 0.931 . S
C354 Eu355 2.835 . S
C354 C356 1.500 . S
C354 O374 1.257 . S
C354 O375 1.260 . S
Eu355 C354 2.835 . S
Eu355 O374 2.473 . S
Eu355 O375 2.480 . S
Eu355 O376 2.430 . S
Eu355 O377 2.670 . S
Eu355 O378 2.394 . S
Eu355 O383 2.355 . S
Eu355 O385 2.374 . S
C356 C354 1.500 . S
C356 C357 1.377 . S
C356 C361 1.377 . S
C357 C356 1.377 . S
C357 C358 1.395 . S
C357 H386 0.931 . S
C358 C357 1.395 . S
C358 C359 1.383 . S
C358 H387 0.931 . S
C359 C358 1.383 . S
C359 C360 1.394 . S
C360 C359 1.394 . S
C360 C361 1.378 . S
C360 H388 0.931 . S
C361 C356 1.377 . S
C361 C360 1.378 . S
C361 H389 0.931 . S
C362 O376 1.259 . S
C362 O377 1.270 . S
C363 O378 1.251 . S
C363 O379 1.251 . S
C364 Eu365 2.835 . S
C364 C366 1.500 . S
C364 O380 1.257 . S
C364 O381 1.260 . S
Eu365 C364 2.835 . S
Eu365 O377 2.355 . S
Eu365 O379 2.374 . S
Eu365 O380 2.473 . S
Eu365 O381 2.480 . S
Eu365 O382 2.430 . S
Eu365 O383 2.670 . S
Eu365 O384 2.394 . S
C366 C364 1.500 . S
C366 C367 1.377 . S
C366 C371 1.377 . S
C367 C366 1.377 . S
C367 C368 1.395 . S
C367 H390 0.931 . S
C368 C367 1.395 . S
C368 C369 1.383 . S
C368 H391 0.931 . S
C369 C368 1.383 . S
C369 C370 1.394 . S
C370 C369 1.394 . S
C370 C371 1.378 . S
C370 H392 0.931 . S
C371 C366 1.377 . S
C371 C370 1.378 . S
C371 H393 0.931 . S
C372 O382 1.259 . S
C372 O383 1.270 . S
C373 O384 1.251 . S
C373 O385 1.251 . S
O374 C354 1.257 . S
O374 Eu355 2.473 . S
O375 C354 1.260 . S
O375 Eu355 2.480 . S
O376 Eu355 2.430 . S
O376 C362 1.259 . S
O377 Eu355 2.670 . S
O377 C362 1.270 . S
O377 Eu365 2.355 . S
O378 Eu355 2.394 . S
O378 C363 1.251 . S
O379 C363 1.251 . S
O379 Eu365 2.374 . S
O380 C364 1.257 . S
O380 Eu365 2.473 . S
O381 C364 1.260 . S
O381 Eu365 2.480 . S
O382 Eu365 2.430 . S
O382 C372 1.259 . S
O383 Eu355 2.355 . S
O383 Eu365 2.670 . S
O383 C372 1.270 . S
O384 Eu365 2.394 . S
O384 C373 1.251 . S
O385 Eu355 2.374 . S
O385 C373 1.251 . S
H386 C357 0.931 . S
H387 C358 0.931 . S
H388 C360 0.931 . S
H389 C361 0.931 . S
H390 C367 0.931 . S
H391 C368 0.931 . S
H392 C370 0.931 . S
H393 C371 0.931 . S
C394 Eu395 2.835 . S
C394 C396 1.500 . S
C394 O414 1.257 . S
C394 O415 1.260 . S
Eu395 C394 2.835 . S
Eu395 O414 2.473 . S
Eu395 O415 2.480 . S
Eu395 O416 2.430 . S
Eu395 O417 2.670 . S
Eu395 O418 2.394 . S
Eu395 O423 2.355 . S
Eu395 O425 2.374 . S
C396 C394 1.500 . S
C396 C397 1.377 . S
C396 C401 1.377 . S
C397 C396 1.377 . S
C397 C398 1.395 . S
C397 H426 0.931 . S
C398 C397 1.395 . S
C398 C399 1.383 . S
C398 H427 0.931 . S
C399 C398 1.383 . S
C399 C400 1.394 . S
C400 C399 1.394 . S
C400 C401 1.378 . S
C400 H428 0.931 . S
C401 C396 1.377 . S
C401 C400 1.378 . S
C401 H429 0.931 . S
C402 O416 1.259 . S
C402 O417 1.270 . S
C403 O418 1.251 . S
C403 O419 1.251 . S
C404 Eu405 2.835 . S
C404 C406 1.500 . S
C404 O420 1.257 . S
C404 O421 1.260 . S
Eu405 C404 2.835 . S
Eu405 O417 2.355 . S
Eu405 O419 2.374 . S
Eu405 O420 2.473 . S
Eu405 O421 2.480 . S
Eu405 O422 2.430 . S
Eu405 O423 2.670 . S
Eu405 O424 2.394 . S
C406 C404 1.500 . S
C406 C407 1.377 . S
C406 C411 1.377 . S
C407 C406 1.377 . S
C407 C408 1.395 . S
C407 H430 0.931 . S
C408 C407 1.395 . S
C408 C409 1.383 . S
C408 H431 0.931 . S
C409 C408 1.383 . S
C409 C410 1.394 . S
C410 C409 1.394 . S
C410 C411 1.378 . S
C410 H432 0.931 . S
C411 C406 1.377 . S
C411 C410 1.378 . S
C411 H433 0.931 . S
C412 O422 1.259 . S
C412 O423 1.270 . S
C413 O424 1.251 . S
C413 O425 1.251 . S
O414 C394 1.257 . S
O414 Eu395 2.473 . S
O415 C394 1.260 . S
O415 Eu395 2.480 . S
O416 Eu395 2.430 . S
O416 C402 1.259 . S
O417 Eu395 2.670 . S
O417 C402 1.270 . S
O417 Eu405 2.355 . S
O418 Eu395 2.394 . S
O418 C403 1.251 . S
O419 C403 1.251 . S
O419 Eu405 2.374 . S
O420 C404 1.257 . S
O420 Eu405 2.473 . S
O421 C404 1.260 . S
O421 Eu405 2.480 . S
O422 Eu405 2.430 . S
O422 C412 1.259 . S
O423 Eu395 2.355 . S
O423 Eu405 2.670 . S
O423 C412 1.270 . S
O424 Eu405 2.394 . S
O424 C413 1.251 . S
O425 Eu395 2.374 . S
O425 C413 1.251 . S
H426 C397 0.931 . S
H427 C398 0.931 . S
H428 C400 0.931 . S
H429 C401 0.931 . S
H430 C407 0.931 . S
H431 C408 0.931 . S
H432 C410 0.931 . S
H433 C411 0.931 . S
C434 Eu435 2.835 . S
C434 C436 1.500 . S
C434 O454 1.257 . S
C434 O455 1.260 . S
Eu435 C434 2.835 . S
Eu435 O454 2.473 . S
Eu435 O455 2.480 . S
Eu435 O456 2.430 . S
Eu435 O457 2.670 . S
Eu435 O458 2.394 . S
Eu435 O463 2.355 . S
Eu435 O465 2.374 . S
C436 C434 1.500 . S
C436 C437 1.377 . S
C436 C441 1.377 . S
C437 C436 1.377 . S
C437 C438 1.395 . S
C437 H466 0.931 . S
C438 C437 1.395 . S
C438 C439 1.383 . S
C438 H467 0.931 . S
C439 C438 1.383 . S
C439 C440 1.394 . S
C440 C439 1.394 . S
C440 C441 1.378 . S
C440 H468 0.931 . S
C441 C436 1.377 . S
C441 C440 1.378 . S
C441 H469 0.931 . S
C442 O456 1.259 . S
C442 O457 1.270 . S
C443 O458 1.251 . S
C443 O459 1.251 . S
C444 Eu445 2.835 . S
C444 C446 1.500 . S
C444 O460 1.257 . S
C444 O461 1.260 . S
Eu445 C444 2.835 . S
Eu445 O457 2.355 . S
Eu445 O459 2.374 . S
Eu445 O460 2.473 . S
Eu445 O461 2.480 . S
Eu445 O462 2.430 . S
Eu445 O463 2.670 . S
Eu445 O464 2.394 . S
C446 C444 1.500 . S
C446 C447 1.377 . S
C446 C451 1.377 . S
C447 C446 1.377 . S
C447 C448 1.395 . S
C447 H470 0.931 . S
C448 C447 1.395 . S
C448 C449 1.383 . S
C448 H471 0.931 . S
C449 C448 1.383 . S
C449 C450 1.394 . S
C450 C449 1.394 . S
C450 C451 1.378 . S
C450 H472 0.931 . S
C451 C446 1.377 . S
C451 C450 1.378 . S
C451 H473 0.931 . S
C452 O462 1.259 . S
C452 O463 1.270 . S
C453 O464 1.251 . S
C453 O465 1.251 . S
O454 C434 1.257 . S
O454 Eu435 2.473 . S
O455 C434 1.260 . S
O455 Eu435 2.480 . S
O456 Eu435 2.430 . S
O456 C442 1.259 . S
O457 Eu435 2.670 . S
O457 C442 1.270 . S
O457 Eu445 2.355 . S
O458 Eu435 2.394 . S
O458 C443 1.251 . S
O459 C443 1.251 . S
O459 Eu445 2.374 . S
O460 C444 1.257 . S
O460 Eu445 2.473 . S
O461 C444 1.260 . S
O461 Eu445 2.480 . S
O462 Eu445 2.430 . S
O462 C452 1.259 . S
O463 Eu435 2.355 . S
O463 Eu445 2.670 . S
O463 C452 1.270 . S
O464 Eu445 2.394 . S
O464 C453 1.251 . S
O465 Eu435 2.374 . S
O465 C453 1.251 . S
H466 C437 0.931 . S
H467 C438 0.931 . S
H468 C440 0.931 . S
H469 C441 0.931 . S
H470 C447 0.931 . S
H471 C448 0.931 . S
H472 C450 0.931 . S
H473 C451 0.931 . S
C474 Eu475 2.835 . S
C474 C476 1.500 . S
C474 O494 1.257 . S
C474 O495 1.260 . S
Eu475 C474 2.835 . S
Eu475 O494 2.473 . S
Eu475 O495 2.480 . S
Eu475 O496 2.430 . S
Eu475 O497 2.670 . S
Eu475 O498 2.394 . S
Eu475 O503 2.355 . S
Eu475 O505 2.374 . S
C476 C474 1.500 . S
C476 C477 1.377 . S
C476 C481 1.377 . S
C477 C476 1.377 . S
C477 C478 1.395 . S
C477 H506 0.931 . S
C478 C477 1.395 . S
C478 C479 1.383 . S
C478 H507 0.931 . S
C479 C478 1.383 . S
C479 C480 1.394 . S
C480 C479 1.394 . S
C480 C481 1.378 . S
C480 H508 0.931 . S
C481 C476 1.377 . S
C481 C480 1.378 . S
C481 H509 0.931 . S
C482 O496 1.259 . S
C482 O497 1.270 . S
C483 O498 1.251 . S
C483 O499 1.251 . S
C484 Eu485 2.835 . S
C484 C486 1.500 . S
C484 O500 1.257 . S
C484 O501 1.260 . S
Eu485 C484 2.835 . S
Eu485 O497 2.355 . S
Eu485 O499 2.374 . S
Eu485 O500 2.473 . S
Eu485 O501 2.480 . S
Eu485 O502 2.430 . S
Eu485 O503 2.670 . S
Eu485 O504 2.394 . S
C486 C484 1.500 . S
C486 C487 1.377 . S
C486 C491 1.377 . S
C487 C486 1.377 . S
C487 C488 1.395 . S
C487 H510 0.931 . S
C488 C487 1.395 . S
C488 C489 1.383 . S
C488 H511 0.931 . S
C489 C488 1.383 . S
C489 C490 1.394 . S
C490 C489 1.394 . S
C490 C491 1.378 . S
C490 H512 0.931 . S
C491 C486 1.377 . S
C491 C490 1.378 . S
C491 H513 0.931 . S
C492 O502 1.259 . S
C492 O503 1.270 . S
C493 O504 1.251 . S
C493 O505 1.251 . S
O494 C474 1.257 . S
O494 Eu475 2.473 . S
O495 C474 1.260 . S
O495 Eu475 2.480 . S
O496 Eu475 2.430 . S
O496 C482 1.259 . S
O497 Eu475 2.670 . S
O497 C482 1.270 . S
O497 Eu485 2.355 . S
O498 Eu475 2.394 . S
O498 C483 1.251 . S
O499 C483 1.251 . S
O499 Eu485 2.374 . S
O500 C484 1.257 . S
O500 Eu485 2.473 . S
O501 C484 1.260 . S
O501 Eu485 2.480 . S
O502 Eu485 2.430 . S
O502 C492 1.259 . S
O503 Eu475 2.355 . S
O503 Eu485 2.670 . S
O503 C492 1.270 . S
O504 Eu485 2.394 . S
O504 C493 1.251 . S
O505 Eu475 2.374 . S
O505 C493 1.251 . S
H506 C477 0.931 . S
H507 C478 0.931 . S
H508 C480 0.931 . S
H509 C481 0.931 . S
H510 C487 0.931 . S
H511 C488 0.931 . S
H512 C490 0.931 . S
H513 C491 0.931 . S
C514 Eu515 2.835 . S
C514 C516 1.500 . S
C514 O534 1.257 . S
C514 O535 1.260 . S
Eu515 C514 2.835 . S
Eu515 O534 2.473 . S
Eu515 O535 2.480 . S
Eu515 O536 2.430 . S
Eu515 O537 2.670 . S
Eu515 O538 2.394 . S
Eu515 O543 2.355 . S
Eu515 O545 2.374 . S
C516 C514 1.500 . S
C516 C517 1.377 . S
C516 C521 1.377 . S
C517 C516 1.377 . S
C517 C518 1.395 . S
C517 H546 0.931 . S
C518 C517 1.395 . S
C518 C519 1.383 . S
C518 H547 0.931 . S
C519 C518 1.383 . S
C519 C520 1.394 . S
C520 C519 1.394 . S
C520 C521 1.378 . S
C520 H548 0.931 . S
C521 C516 1.377 . S
C521 C520 1.378 . S
C521 H549 0.931 . S
C522 O536 1.259 . S
C522 O537 1.270 . S
C523 O538 1.251 . S
C523 O539 1.251 . S
C524 Eu525 2.835 . S
C524 C526 1.500 . S
C524 O540 1.257 . S
C524 O541 1.260 . S
Eu525 C524 2.835 . S
Eu525 O537 2.355 . S
Eu525 O539 2.374 . S
Eu525 O540 2.473 . S
Eu525 O541 2.480 . S
Eu525 O542 2.430 . S
Eu525 O543 2.670 . S
Eu525 O544 2.394 . S
C526 C524 1.500 . S
C526 C527 1.377 . S
C526 C531 1.377 . S
C527 C526 1.377 . S
C527 C528 1.395 . S
C527 H550 0.931 . S
C528 C527 1.395 . S
C528 C529 1.383 . S
C528 H551 0.931 . S
C529 C528 1.383 . S
C529 C530 1.394 . S
C530 C529 1.394 . S
C530 C531 1.378 . S
C530 H552 0.931 . S
C531 C526 1.377 . S
C531 C530 1.378 . S
C531 H553 0.931 . S
C532 O542 1.259 . S
C532 O543 1.270 . S
C533 O544 1.251 . S
C533 O545 1.251 . S
O534 C514 1.257 . S
O534 Eu515 2.473 . S
O535 C514 1.260 . S
O535 Eu515 2.480 . S
O536 Eu515 2.430 . S
O536 C522 1.259 . S
O537 Eu515 2.670 . S
O537 C522 1.270 . S
O537 Eu525 2.355 . S
O538 Eu515 2.394 . S
O538 C523 1.251 . S
O539 C523 1.251 . S
O539 Eu525 2.374 . S
O540 C524 1.257 . S
O540 Eu525 2.473 . S
O541 C524 1.260 . S
O541 Eu525 2.480 . S
O542 Eu525 2.430 . S
O542 C532 1.259 . S
O543 Eu515 2.355 . S
O543 Eu525 2.670 . S
O543 C532 1.270 . S
O544 Eu525 2.394 . S
O544 C533 1.251 . S
O545 Eu515 2.374 . S
O545 C533 1.251 . S
H546 C517 0.931 . S
H547 C518 0.931 . S
H548 C520 0.931 . S
H549 C521 0.931 . S
H550 C527 0.931 . S
H551 C528 0.931 . S
H552 C530 0.931 . S
H553 C531 0.931 . S
C554 Eu555 2.835 . S
C554 C556 1.500 . S
C554 O574 1.257 . S
C554 O575 1.260 . S
Eu555 C554 2.835 . S
Eu555 O574 2.473 . S
Eu555 O575 2.480 . S
Eu555 O576 2.430 . S
Eu555 O577 2.670 . S
Eu555 O578 2.394 . S
Eu555 O583 2.355 . S
Eu555 O585 2.374 . S
C556 C554 1.500 . S
C556 C557 1.377 . S
C556 C561 1.377 . S
C557 C556 1.377 . S
C557 C558 1.395 . S
C557 H586 0.931 . S
C558 C557 1.395 . S
C558 C559 1.383 . S
C558 H587 0.931 . S
C559 C558 1.383 . S
C559 C560 1.394 . S
C560 C559 1.394 . S
C560 C561 1.378 . S
C560 H588 0.931 . S
C561 C556 1.377 . S
C561 C560 1.378 . S
C561 H589 0.931 . S
C562 O576 1.259 . S
C562 O577 1.270 . S
C563 O578 1.251 . S
C563 O579 1.251 . S
C564 Eu565 2.835 . S
C564 C566 1.500 . S
C564 O580 1.257 . S
C564 O581 1.260 . S
Eu565 C564 2.835 . S
Eu565 O577 2.355 . S
Eu565 O579 2.374 . S
Eu565 O580 2.473 . S
Eu565 O581 2.480 . S
Eu565 O582 2.430 . S
Eu565 O583 2.670 . S
Eu565 O584 2.394 . S
C566 C564 1.500 . S
C566 C567 1.377 . S
C566 C571 1.377 . S
C567 C566 1.377 . S
C567 C568 1.395 . S
C567 H590 0.931 . S
C568 C567 1.395 . S
C568 C569 1.383 . S
C568 H591 0.931 . S
C569 C568 1.383 . S
C569 C570 1.394 . S
C570 C569 1.394 . S
C570 C571 1.378 . S
C570 H592 0.931 . S
C571 C566 1.377 . S
C571 C570 1.378 . S
C571 H593 0.931 . S
C572 O582 1.259 . S
C572 O583 1.270 . S
C573 O584 1.251 . S
C573 O585 1.251 . S
O574 C554 1.257 . S
O574 Eu555 2.473 . S
O575 C554 1.260 . S
O575 Eu555 2.480 . S
O576 Eu555 2.430 . S
O576 C562 1.259 . S
O577 Eu555 2.670 . S
O577 C562 1.270 . S
O577 Eu565 2.355 . S
O578 Eu555 2.394 . S
O578 C563 1.251 . S
O579 C563 1.251 . S
O579 Eu565 2.374 . S
O580 C564 1.257 . S
O580 Eu565 2.473 . S
O581 C564 1.260 . S
O581 Eu565 2.480 . S
O582 Eu565 2.430 . S
O582 C572 1.259 . S
O583 Eu555 2.355 . S
O583 Eu565 2.670 . S
O583 C572 1.270 . S
O584 Eu565 2.394 . S
O584 C573 1.251 . S
O585 Eu555 2.374 . S
O585 C573 1.251 . S
H586 C557 0.931 . S
H587 C558 0.931 . S
H588 C560 0.931 . S
H589 C561 0.931 . S
H590 C567 0.931 . S
H591 C568 0.931 . S
H592 C570 0.931 . S
H593 C571 0.931 . S
H594 C602 0.929 . S
H595 C604 0.930 . S
H596 C606 0.930 . S
H597 C609 0.929 . S
H598 C612 0.930 . S
H599 C614 0.960 . S
H600 C614 0.960 . S
H601 C614 0.960 . S
C602 H594 0.929 . S
C602 C603 1.377 . S
C602 C604 1.384 . S
C603 C602 1.377 . S
C603 C609 1.390 . S
C604 H595 0.930 . S
C604 C602 1.384 . S
C604 C605 1.372 . S
C605 C604 1.372 . S
C605 C606 1.400 . S
C605 C610 1.490 . S
C606 H596 0.930 . S
C606 C605 1.400 . S
C606 C609 1.386 . S
H607 C623 0.930 . S
H608 C624 0.931 . S
C609 H597 0.929 . S
C609 C603 1.390 . S
C609 C606 1.386 . S
C610 C605 1.490 . S
C610 C612 1.395 . S
C610 C613 1.403 . S
H611 C617 0.930 . S
C612 H598 0.930 . S
C612 C610 1.395 . S
C612 C615 1.403 . S
C613 C610 1.403 . S
C613 C614 1.524 . S
C613 C617 1.400 . S
C614 H599 0.960 . S
C614 H600 0.960 . S
C614 H601 0.960 . S
C614 C613 1.524 . S
C615 C612 1.403 . S
C615 C616 1.392 . S
C615 C619 1.495 . S
C616 C615 1.392 . S
C616 C617 1.385 . S
C616 C618 1.478 . S
C617 H611 0.930 . S
C617 C613 1.400 . S
C617 C616 1.385 . S
C618 C616 1.478 . S
C618 C620 1.381 . S
C618 C624 1.383 . S
C619 C615 1.495 . S
C619 H625 0.959 . S
C619 H626 0.961 . S
C619 H627 0.960 . S
C620 C618 1.381 . S
C620 C621 1.394 . S
C620 H628 0.930 . S
C621 C620 1.394 . S
C621 C622 1.383 . S
C621 H629 0.929 . S
C622 C621 1.383 . S
C622 C623 1.377 . S
C623 H607 0.930 . S
C623 C622 1.377 . S
C623 C624 1.379 . S
C624 H608 0.931 . S
C624 C618 1.383 . S
C624 C623 1.379 . S
H625 C619 0.959 . S
H626 C619 0.961 . S
H627 C619 0.960 . S
H628 C620 0.930 . S
H629 C621 0.929 . S
H630 C638 0.929 . S
H631 C640 0.930 . S
H632 C642 0.930 . S
H633 C645 0.929 . S
H634 C648 0.930 . S
H635 C650 0.960 . S
H636 C650 0.960 . S
H637 C650 0.960 . S
C638 H630 0.929 . S
C638 C639 1.377 . S
C638 C640 1.384 . S
C639 C638 1.377 . S
C639 C645 1.390 . S
C640 H631 0.930 . S
C640 C638 1.384 . S
C640 C641 1.372 . S
C641 C640 1.372 . S
C641 C642 1.400 . S
C641 C646 1.490 . S
C642 H632 0.930 . S
C642 C641 1.400 . S
C642 C645 1.386 . S
H643 C659 0.930 . S
H644 C660 0.931 . S
C645 H633 0.929 . S
C645 C639 1.390 . S
C645 C642 1.386 . S
C646 C641 1.490 . S
C646 C648 1.395 . S
C646 C649 1.403 . S
H647 C653 0.930 . S
C648 H634 0.930 . S
C648 C646 1.395 . S
C648 C651 1.403 . S
C649 C646 1.403 . S
C649 C650 1.524 . S
C649 C653 1.400 . S
C650 H635 0.960 . S
C650 H636 0.960 . S
C650 H637 0.960 . S
C650 C649 1.524 . S
C651 C648 1.403 . S
C651 C652 1.392 . S
C651 C655 1.495 . S
C652 C651 1.392 . S
C652 C653 1.385 . S
C652 C654 1.478 . S
C653 H647 0.930 . S
C653 C649 1.400 . S
C653 C652 1.385 . S
C654 C652 1.478 . S
C654 C656 1.381 . S
C654 C660 1.383 . S
C655 C651 1.495 . S
C655 H661 0.959 . S
C655 H662 0.961 . S
C655 H663 0.960 . S
C656 C654 1.381 . S
C656 C657 1.394 . S
C656 H664 0.930 . S
C657 C656 1.394 . S
C657 C658 1.383 . S
C657 H665 0.929 . S
C658 C657 1.383 . S
C658 C659 1.377 . S
C659 H643 0.930 . S
C659 C658 1.377 . S
C659 C660 1.379 . S
C660 H644 0.931 . S
C660 C654 1.383 . S
C660 C659 1.379 . S
H661 C655 0.959 . S
H662 C655 0.961 . S
H663 C655 0.960 . S
H664 C656 0.930 . S
H665 C657 0.929 . S
H666 C674 0.929 . S
H667 C676 0.930 . S
H668 C678 0.930 . S
H669 C681 0.929 . S
H670 C684 0.930 . S
H671 C686 0.960 . S
H672 C686 0.960 . S
H673 C686 0.960 . S
C674 H666 0.929 . S
C674 C675 1.377 . S
C674 C676 1.384 . S
C675 C674 1.377 . S
C675 C681 1.390 . S
C676 H667 0.930 . S
C676 C674 1.384 . S
C676 C677 1.372 . S
C677 C676 1.372 . S
C677 C678 1.400 . S
C677 C682 1.490 . S
C678 H668 0.930 . S
C678 C677 1.400 . S
C678 C681 1.386 . S
H679 C695 0.930 . S
H680 C696 0.931 . S
C681 H669 0.929 . S
C681 C675 1.390 . S
C681 C678 1.386 . S
C682 C677 1.490 . S
C682 C684 1.395 . S
C682 C685 1.403 . S
H683 C689 0.930 . S
C684 H670 0.930 . S
C684 C682 1.395 . S
C684 C687 1.403 . S
C685 C682 1.403 . S
C685 C686 1.524 . S
C685 C689 1.400 . S
C686 H671 0.960 . S
C686 H672 0.960 . S
C686 H673 0.960 . S
C686 C685 1.524 . S
C687 C684 1.403 . S
C687 C688 1.392 . S
C687 C691 1.435 1_554 S
C688 C687 1.392 . S
C688 C689 1.385 . S
C688 C690 1.478 . S
C689 H683 0.930 . S
C689 C685 1.400 . S
C689 C688 1.385 . S
C690 C688 1.478 . S
C690 C692 1.381 . S
C690 C696 1.383 . S
C691 C687 1.435 1_556 S
C691 H697 0.997 . S
C691 H698 1.001 . S
C691 H699 0.943 1_556 S
C692 C690 1.381 . S
C692 C693 1.394 . S
C692 H700 0.930 . S
C693 C692 1.394 . S
C693 C694 1.383 . S
C693 H701 0.929 . S
C694 C693 1.383 . S
C694 C695 1.377 . S
C695 H679 0.930 . S
C695 C694 1.377 . S
C695 C696 1.379 . S
C696 H680 0.931 . S
C696 C690 1.383 . S
C696 C695 1.379 . S
H697 C691 0.997 . S
H698 C691 1.001 . S
H699 C691 0.943 1_554 S
H700 C692 0.930 . S
H701 C693 0.929 . S
H702 C710 0.929 . S
H703 C712 0.930 . S
H704 C714 0.948 . S
H705 C717 0.929 . S
H706 C720 0.930 . S
H707 C722 0.960 . S
H708 C722 0.960 . S
H709 C722 0.960 . S
C710 H702 0.929 . S
C710 C711 1.377 . S
C710 C712 1.384 . S
C711 C710 1.377 . S
C711 C717 1.390 . S
C712 H703 0.930 . S
C712 C710 1.384 . S
C712 C713 1.372 . S
C713 C712 1.372 . S
C713 C714 1.400 . S
C713 C718 1.490 . S
C714 H704 0.948 . S
C714 C713 1.400 . S
C714 C717 1.386 . S
H715 C731 0.930 . S
H716 C732 0.931 . S
C717 H705 0.929 . S
C717 C711 1.390 . S
C717 C714 1.386 . S
C718 C713 1.490 . S
C718 C720 1.395 . S
C718 C721 1.403 . S
H719 C725 0.930 . S
C720 H706 0.930 . S
C720 C718 1.395 . S
C720 C723 1.403 . S
C721 C718 1.403 . S
C721 C722 1.524 . S
C721 C725 1.400 . S
C722 H707 0.960 . S
C722 H708 0.960 . S
C722 H709 0.960 . S
C722 C721 1.524 . S
C723 C720 1.403 . S
C723 C724 1.392 . S
C723 C727 1.495 . S
C724 C723 1.392 . S
C724 C725 1.385 . S
C724 C726 1.478 . S
C725 H719 0.930 . S
C725 C721 1.400 . S
C725 C724 1.385 . S
C726 C724 1.478 . S
C726 C728 1.381 . S
C726 C732 1.383 1_556 S
C727 C723 1.495 . S
C727 H733 0.959 . S
C727 H734 0.961 1_556 S
C727 H735 0.960 . S
C728 C726 1.381 . S
C728 C729 1.394 . S
C728 H736 0.930 . S
C729 C728 1.394 . S
C729 C730 1.383 . S
C729 H737 0.929 . S
C730 C729 1.383 . S
C730 C731 1.377 1_556 S
C731 H715 0.930 . S
C731 C730 1.377 1_554 S
C731 C732 1.379 . S
C732 H716 0.931 . S
C732 C726 1.383 1_554 S
C732 C731 1.379 . S
H733 C727 0.959 . S
H734 C727 0.961 1_554 S
H735 C727 0.960 . S
H736 C728 0.930 . S
H737 C729 0.929 . S
H738 C746 0.929 . S
H739 C748 0.930 . S
H740 C750 0.930 . S
H741 C753 0.929 . S
H742 C756 0.930 . S
H743 C758 0.960 . S
H744 C758 0.960 . S
H745 C758 0.960 . S
C746 H738 0.929 . S
C746 C747 1.377 . S
C746 C748 1.384 . S
C747 C746 1.377 . S
C747 C753 1.390 . S
C748 H739 0.930 . S
C748 C746 1.384 . S
C748 C749 1.372 . S
C749 C748 1.372 . S
C749 C750 1.400 . S
C749 C754 1.490 . S
C750 H740 0.930 . S
C750 C749 1.400 . S
C750 C753 1.386 . S
H751 C767 0.930 . S
H752 C768 0.931 . S
C753 H741 0.929 . S
C753 C747 1.390 . S
C753 C750 1.386 . S
C754 C749 1.490 . S
C754 C756 1.395 . S
C754 C757 1.403 . S
H755 C761 0.930 . S
C756 H742 0.930 . S
C756 C754 1.395 . S
C756 C759 1.403 . S
C757 C754 1.403 . S
C757 C758 1.524 . S
C757 C761 1.400 . S
C758 H743 0.960 . S
C758 H744 0.960 . S
C758 H745 0.960 . S
C758 C757 1.524 . S
C759 C756 1.403 . S
C759 C760 1.392 . S
C759 C763 1.495 . S
C760 C759 1.392 . S
C760 C761 1.385 . S
C760 C762 1.478 . S
C761 H755 0.930 . S
C761 C757 1.400 . S
C761 C760 1.385 . S
C762 C760 1.478 . S
C762 C764 1.381 1_556 S
C762 C768 1.383 . S
C763 C759 1.495 . S
C763 H769 0.959 . S
C763 H770 0.961 . S
C763 H771 0.960 . S
C764 C762 1.381 1_554 S
C764 C765 1.394 . S
C764 H772 0.930 . S
C765 C764 1.394 . S
C765 C766 1.383 . S
C765 H773 0.929 . S
C766 C765 1.383 . S
C766 C767 1.377 1_554 S
C767 H751 0.930 . S
C767 C766 1.377 1_556 S
C767 C768 1.379 . S
C768 H752 0.931 . S
C768 C762 1.383 . S
C768 C767 1.379 . S
H769 C763 0.959 . S
H770 C763 0.961 . S
H771 C763 0.960 . S
H772 C764 0.930 . S
H773 C765 0.929 . S
H774 C782 0.929 . S
H775 C784 0.965 . S
H776 C786 0.930 . S
H777 C789 0.929 . S
H778 C792 0.930 . S
H779 C794 0.981 . S
H780 C794 1.005 . S
H781 C794 0.915 1_556 S
C782 H774 0.929 . S
C782 C783 1.377 . S
C782 C784 1.384 . S
C783 C782 1.377 . S
C783 C789 1.390 . S
C784 H775 0.965 . S
C784 C782 1.384 . S
C784 C785 1.372 . S
C785 C784 1.372 . S
C785 C786 1.400 . S
C785 C790 1.490 . S
C786 H776 0.930 . S
C786 C785 1.400 . S
C786 C789 1.386 . S
H787 C803 0.930 . S
H788 C804 0.931 . S
C789 H777 0.929 . S
C789 C783 1.390 . S
C789 C786 1.386 . S
C790 C785 1.490 . S
C790 C792 1.395 . S
C790 C793 1.403 . S
H791 C797 0.930 1_554 S
C792 H778 0.930 . S
C792 C790 1.395 . S
C792 C795 1.403 . S
C793 C790 1.403 . S
C793 C794 1.507 1_556 S
C793 C797 1.400 . S
C794 H779 0.981 . S
C794 H780 1.005 . S
C794 H781 0.915 1_554 S
C794 C793 1.507 1_554 S
C795 C792 1.403 . S
C795 C796 1.392 . S
C795 C799 1.495 . S
C796 C795 1.392 . S
C796 C797 1.385 . S
C796 C798 1.478 . S
C797 H791 0.930 1_556 S
C797 C793 1.400 . S
C797 C796 1.385 . S
C798 C796 1.478 . S
C798 C800 1.381 1_556 S
C798 C804 1.383 . S
C799 C795 1.495 . S
C799 H805 0.959 . S
C799 H806 0.961 . S
C799 H807 0.960 . S
C800 C798 1.381 1_554 S
C800 C801 1.394 . S
C800 H808 0.930 . S
C801 C800 1.394 . S
C801 C802 1.383 . S
C801 H809 0.929 . S
C802 C801 1.383 . S
C802 C803 1.377 1_554 S
C803 H787 0.930 . S
C803 C802 1.377 1_556 S
C803 C804 1.379 . S
C804 H788 0.931 . S
C804 C798 1.383 . S
C804 C803 1.379 . S
H805 C799 0.959 . S
H806 C799 0.961 . S
H807 C799 0.960 . S
H808 C800 0.930 . S
H809 C801 0.929 . S
H810 C818 0.929 . S
H811 C820 0.930 . S
H812 C822 0.930 . S
H813 C825 0.929 . S
H814 C828 0.930 . S
H815 C830 0.974 . S
H816 C830 0.960 1_554 S
H817 C830 0.960 . S
C818 H810 0.929 . S
C818 C819 1.377 . S
C818 C820 1.384 . S
C819 C818 1.377 . S
C819 C825 1.390 . S
C820 H811 0.930 . S
C820 C818 1.384 . S
C820 C821 1.372 . S
C821 C820 1.372 . S
C821 C822 1.400 . S
C821 C826 1.490 . S
C822 H812 0.930 . S
C822 C821 1.400 . S
C822 C825 1.386 . S
H823 C839 0.930 . S
H824 C840 0.931 . S
C825 H813 0.929 . S
C825 C819 1.390 . S
C825 C822 1.386 . S
C826 C821 1.490 . S
C826 C828 1.395 . S
C826 C829 1.403 . S
H827 C833 0.930 . S
C828 H814 0.930 . S
C828 C826 1.395 . S
C828 C831 1.403 . S
C829 C826 1.403 . S
C829 C830 1.524 . S
C829 C833 1.400 . S
C830 H815 0.974 . S
C830 H816 0.960 1_556 S
C830 H817 0.960 . S
C830 C829 1.524 . S
C831 C828 1.403 . S
C831 C832 1.392 . S
C831 C835 1.495 . S
C832 C831 1.392 . S
C832 C833 1.385 . S
C832 C834 1.478 . S
C833 H827 0.930 . S
C833 C829 1.400 . S
C833 C832 1.385 . S
C834 C832 1.478 . S
C834 C836 1.381 1_556 S
C834 C840 1.383 . S
C835 C831 1.495 . S
C835 H841 0.959 . S
C835 H842 0.961 . S
C835 H843 0.960 . S
C836 C834 1.381 1_554 S
C836 C837 1.394 . S
C836 H844 0.930 . S
C837 C836 1.394 . S
C837 C838 1.360 1_554 S
C837 H845 0.929 . S
C838 C837 1.360 1_556 S
C838 C839 1.412 . S
C839 H823 0.930 . S
C839 C838 1.412 . S
C839 C840 1.379 . S
C840 H824 0.931 . S
C840 C834 1.383 . S
C840 C839 1.379 . S
H841 C835 0.959 . S
H842 C835 0.961 . S
H843 C835 0.960 . S
H844 C836 0.930 . S
H845 C837 0.929 . S
H846 C854 0.929 . S
H847 C856 0.930 . S
H848 C858 0.930 . S
H849 C861 0.929 . S
H850 C864 0.930 . S
H851 C866 0.960 . S
H852 C866 0.960 . S
H853 C866 0.960 . S
C854 H846 0.929 . S
C854 C855 1.377 . S
C854 C856 1.384 . S
C855 C854 1.377 . S
C855 C861 1.390 . S
C856 H847 0.930 . S
C856 C854 1.384 . S
C856 C857 1.372 . S
C857 C856 1.372 . S
C857 C858 1.400 . S
C857 C862 1.490 . S
C858 H848 0.930 . S
C858 C857 1.400 . S
C858 C861 1.386 . S
H859 C875 0.930 . S
H860 C876 0.931 . S
C861 H849 0.929 . S
C861 C855 1.390 . S
C861 C858 1.386 . S
C862 C857 1.490 . S
C862 C864 1.395 . S
C862 C865 1.403 . S
H863 C869 0.930 . S
C864 H850 0.930 . S
C864 C862 1.395 . S
C864 C867 1.403 . S
C865 C862 1.403 . S
C865 C866 1.524 . S
C865 C869 1.400 . S
C866 H851 0.960 . S
C866 H852 0.960 . S
C866 H853 0.960 . S
C866 C865 1.524 . S
C867 C864 1.403 . S
C867 C868 1.392 . S
C867 C871 1.495 . S
C868 C867 1.392 . S
C868 C869 1.385 . S
C868 C870 1.478 . S
C869 H863 0.930 . S
C869 C865 1.400 . S
C869 C868 1.385 . S
C870 C868 1.478 . S
C870 C872 1.381 . S
C870 C876 1.383 . S
C871 C867 1.495 . S
C871 H877 0.959 1_556 S
C871 H878 0.961 . S
C871 H879 0.960 1_556 S
C872 C870 1.381 . S
C872 C873 1.394 . S
C872 H880 0.930 . S
C873 C872 1.394 . S
C873 C874 1.383 . S
C873 H881 0.973 . S
C874 C873 1.383 . S
C874 C875 1.377 . S
C875 H859 0.930 . S
C875 C874 1.377 . S
C875 C876 1.379 . S
C876 H860 0.931 . S
C876 C870 1.383 . S
C876 C875 1.379 . S
H877 C871 0.959 1_554 S
H878 C871 0.961 . S
H879 C871 0.960 1_554 S
H880 C872 0.930 . S
H881 C873 0.973 . S
H882 C890 0.929 . S
H883 C892 0.930 . S
H884 C894 0.930 . S
H885 C897 0.929 . S
H886 C900 0.930 . S
H887 C902 0.960 . S
H888 C902 0.960 . S
H889 C902 0.960 . S
C890 H882 0.929 . S
C890 C891 1.377 . S
C890 C892 1.384 . S
C891 C890 1.377 . S
C891 C897 1.390 . S
C892 H883 0.930 . S
C892 C890 1.384 . S
C892 C893 1.372 . S
C893 C892 1.372 . S
C893 C894 1.400 . S
C893 C898 1.490 . S
C894 H884 0.930 . S
C894 C893 1.400 . S
C894 C897 1.386 . S
H895 C911 0.930 . S
H896 C912 0.931 . S
C897 H885 0.929 . S
C897 C891 1.390 . S
C897 C894 1.386 . S
C898 C893 1.490 . S
C898 C900 1.395 1_556 S
C898 C901 1.403 . S
H899 C905 0.930 . S
C900 H886 0.930 . S
C900 C898 1.395 1_554 S
C900 C903 1.403 . S
C901 C898 1.403 . S
C901 C902 1.524 . S
C901 C905 1.400 . S
C902 H887 0.960 . S
C902 H888 0.960 . S
C902 H889 0.960 . S
C902 C901 1.524 . S
C903 C900 1.403 . S
C903 C904 1.392 . S
C903 C907 1.495 . S
C904 C903 1.392 . S
C904 C905 1.385 1_554 S
C904 C906 1.478 . S
C905 H899 0.930 . S
C905 C901 1.400 . S
C905 C904 1.385 1_556 S
C906 C904 1.478 . S
C906 C908 1.381 . S
C906 C912 1.383 . S
C907 C903 1.495 . S
C907 H913 0.959 . S
C907 H914 0.961 . S
C907 H915 0.960 . S
C908 C906 1.381 . S
C908 C909 1.394 . S
C908 H916 0.930 . S
C909 C908 1.394 . S
C909 C910 1.383 . S
C909 H917 0.929 . S
C910 C909 1.383 . S
C910 C911 1.377 . S
C911 H895 0.930 . S
C911 C910 1.377 . S
C911 C912 1.379 . S
C912 H896 0.931 . S
C912 C906 1.383 . S
C912 C911 1.379 . S
H913 C907 0.959 . S
H914 C907 0.961 . S
H915 C907 0.960 . S
H916 C908 0.930 . S
H917 C909 0.929 . S
H918 C926 0.929 . S
H919 C928 0.930 . S
H920 C930 0.930 . S
H921 C933 0.929 . S
H922 C936 0.930 . S
H923 C938 0.927 1_556 S
H924 C938 0.960 . S
H925 C938 0.960 . S
C926 H918 0.929 . S
C926 C927 1.377 . S
C926 C928 1.384 . S
C927 C926 1.377 . S
C927 C933 1.390 . S
C928 H919 0.930 . S
C928 C926 1.384 . S
C928 C929 1.372 . S
C929 C928 1.372 . S
C929 C930 1.400 . S
C929 C934 1.490 . S
C930 H920 0.930 . S
C930 C929 1.400 . S
C930 C933 1.386 . S
H931 C947 0.930 1_556 S
H932 C948 0.931 . S
C933 H921 0.929 . S
C933 C927 1.390 . S
C933 C930 1.386 . S
C934 C929 1.490 . S
C934 C936 1.395 . S
C934 C937 1.403 . S
H935 C941 0.930 . S
C936 H922 0.930 . S
C936 C934 1.395 . S
C936 C939 1.403 . S
C937 C934 1.403 . S
C937 C938 1.524 . S
C937 C941 1.400 . S
C938 H923 0.927 1_554 S
C938 H924 0.960 . S
C938 H925 0.960 . S
C938 C937 1.524 . S
C939 C936 1.403 . S
C939 C940 1.392 . S
C939 C943 1.495 . S
C940 C939 1.392 . S
C940 C941 1.385 . S
C940 C942 1.478 . S
C941 H935 0.930 . S
C941 C937 1.400 . S
C941 C940 1.385 . S
C942 C940 1.478 . S
C942 C944 1.381 . S
C942 C948 1.383 . S
C943 C939 1.495 . S
C943 H949 0.959 . S
C943 H950 0.961 . S
C943 H951 0.960 . S
C944 C942 1.381 . S
C944 C945 1.394 . S
C944 H952 0.930 . S
C945 C944 1.394 . S
C945 C946 1.383 . S
C945 H953 0.929 . S
C946 C945 1.383 . S
C946 C947 1.377 . S
C947 H931 0.930 1_554 S
C947 C946 1.377 . S
C947 C948 1.379 . S
C948 H932 0.931 . S
C948 C942 1.383 . S
C948 C947 1.379 . S
H949 C943 0.959 . S
H950 C943 0.961 . S
H951 C943 0.960 . S
H952 C944 0.930 . S
H953 C945 0.929 . S
H954 C962 0.929 . S
H955 C964 0.930 . S
H956 C966 0.930 . S
H957 C969 0.929 . S
H958 C972 0.930 . S
H959 C974 0.960 . S
H960 C974 0.960 . S
H961 C974 0.960 . S
C962 H954 0.929 . S
C962 C963 1.377 . S
C962 C964 1.384 . S
C963 C962 1.377 . S
C963 C969 1.390 . S
C964 H955 0.930 . S
C964 C962 1.384 . S
C964 C965 1.372 . S
C965 C964 1.372 . S
C965 C966 1.400 . S
C965 C970 1.490 . S
C966 H956 0.930 . S
C966 C965 1.400 . S
C966 C969 1.386 . S
H967 C983 0.930 . S
H968 C984 0.931 . S
C969 H957 0.929 . S
C969 C963 1.390 . S
C969 C966 1.386 . S
C970 C965 1.490 . S
C970 C972 1.395 . S
C970 C973 1.403 . S
H971 C977 0.930 . S
C972 H958 0.930 . S
C972 C970 1.395 . S
C972 C975 1.403 . S
C973 C970 1.403 . S
C973 C974 1.524 . S
C973 C977 1.400 . S
C974 H959 0.960 . S
C974 H960 0.960 . S
C974 H961 0.960 . S
C974 C973 1.524 . S
C975 C972 1.403 . S
C975 C976 1.392 . S
C975 C979 1.495 . S
C976 C975 1.392 . S
C976 C977 1.385 . S
C976 C978 1.478 . S
C977 H971 0.930 . S
C977 C973 1.400 . S
C977 C976 1.385 . S
C978 C976 1.478 . S
C978 C980 1.381 . S
C978 C984 1.383 . S
C979 C975 1.495 . S
C979 H985 0.959 . S
C979 H986 0.961 . S
C979 H987 0.960 . S
C980 C978 1.381 . S
C980 C981 1.394 . S
C980 H988 0.930 . S
C981 C980 1.394 . S
C981 C982 1.383 . S
C981 H989 0.929 . S
C982 C981 1.383 . S
C982 C983 1.377 . S
C983 H967 0.930 . S
C983 C982 1.377 . S
C983 C984 1.379 . S
C984 H968 0.931 . S
C984 C978 1.383 . S
C984 C983 1.379 . S
H985 C979 0.959 . S
H986 C979 0.961 . S
H987 C979 0.960 . S
H988 C980 0.930 . S
H989 C981 0.929 . S
H990 C998 0.929 . S
H991 C1000 0.930 . S
H992 C1002 0.930 . S
H993 C1005 0.929 . S
H994 C1008 0.930 . S
H995 C1010 0.960 . S
H996 C1010 0.960 . S
H997 C1010 0.960 . S
C998 H990 0.929 . S
C998 C999 1.377 . S
C998 C1000 1.384 . S
C999 C998 1.377 . S
C999 C1005 1.390 . S
C1000 H991 0.930 . S
C1000 C998 1.384 . S
C1000 C1001 1.372 . S
C1001 C1000 1.372 . S
C1001 C1002 1.400 . S
C1001 C1006 1.490 . S
C1002 H992 0.930 . S
C1002 C1001 1.400 . S
C1002 C1005 1.386 . S
H1003 C1019 0.930 . S
H1004 C1020 0.931 . S
C1005 H993 0.929 . S
C1005 C999 1.390 . S
C1005 C1002 1.386 . S
C1006 C1001 1.490 . S
C1006 C1008 1.395 . S
C1006 C1009 1.403 . S
H1007 C1013 0.930 . S
C1008 H994 0.930 . S
C1008 C1006 1.395 . S
C1008 C1011 1.403 . S
C1009 C1006 1.403 . S
C1009 C1010 1.524 . S
C1009 C1013 1.400 . S
C1010 H995 0.960 . S
C1010 H996 0.960 . S
C1010 H997 0.960 . S
C1010 C1009 1.524 . S
C1011 C1008 1.403 . S
C1011 C1012 1.392 . S
C1011 C1015 1.495 . S
C1012 C1011 1.392 . S
C1012 C1013 1.385 . S
C1012 C1014 1.478 . S
C1013 H1007 0.930 . S
C1013 C1009 1.400 . S
C1013 C1012 1.385 . S
C1014 C1012 1.478 . S
C1014 C1016 1.381 . S
C1014 C1020 1.383 . S
C1015 C1011 1.495 . S
C1015 H1021 0.959 1_554 S
C1015 H1022 0.961 1_554 S
C1015 H1023 0.960 . S
C1016 C1014 1.381 . S
C1016 C1017 1.394 . S
C1016 H1024 0.930 . S
C1017 C1016 1.394 . S
C1017 C1018 1.383 . S
C1017 H1025 0.929 . S
C1018 C1017 1.383 . S
C1018 C1019 1.377 . S
C1019 H1003 0.930 . S
C1019 C1018 1.377 . S
C1019 C1020 1.379 . S
C1020 H1004 0.931 . S
C1020 C1014 1.383 . S
C1020 C1019 1.379 . S
H1021 C1015 0.959 1_556 S
H1022 C1015 0.961 1_556 S
H1023 C1015 0.960 . S
H1024 C1016 0.930 . S
H1025 C1017 0.929 . S
H1026 C1034 0.929 . S
H1027 C1036 0.930 . S
H1028 C1038 0.930 . S
H1029 C1041 0.929 . S
H1030 C1044 0.930 . S
H1031 C1046 0.972 . S
H1032 C1046 0.960 . S
H1033 C1046 0.960 . S
C1034 H1026 0.929 . S
C1034 C1035 1.377 . S
C1034 C1036 1.384 . S
C1035 C1034 1.377 . S
C1035 C1041 1.390 . S
C1036 H1027 0.930 . S
C1036 C1034 1.384 . S
C1036 C1037 1.372 . S
C1037 C1036 1.372 . S
C1037 C1038 1.400 . S
C1037 C1042 1.490 . S
C1038 H1028 0.930 . S
C1038 C1037 1.400 . S
C1038 C1041 1.386 . S
H1039 C1055 0.930 . S
H1040 C1056 0.931 . S
C1041 H1029 0.929 . S
C1041 C1035 1.390 . S
C1041 C1038 1.386 . S
C1042 C1037 1.490 . S
C1042 C1044 1.390 . S
C1042 C1045 1.403 . S
H1043 C1049 0.930 . S
C1044 H1030 0.930 . S
C1044 C1042 1.390 . S
C1044 C1047 1.408 1_655 S
C1045 C1042 1.403 . S
C1045 C1046 1.539 . S
C1045 C1049 1.383 1_655 S
C1046 H1031 0.972 . S
C1046 H1032 0.960 . S
C1046 H1033 0.960 . S
C1046 C1045 1.539 . S
C1047 C1044 1.408 1_455 S
C1047 C1048 1.392 . S
C1047 C1051 1.495 . S
C1048 C1047 1.392 . S
C1048 C1049 1.385 . S
C1048 C1050 1.478 . S
C1049 H1043 0.930 . S
C1049 C1045 1.383 1_455 S
C1049 C1048 1.385 . S
C1050 C1048 1.478 . S
C1050 C1052 1.381 . S
C1050 C1056 1.383 . S
C1051 C1047 1.495 . S
C1051 H1057 0.959 . S
C1051 H1058 0.961 . S
C1051 H1059 0.960 . S
C1052 C1050 1.381 . S
C1052 C1053 1.394 . S
C1052 H1060 0.930 . S
C1053 C1052 1.394 . S
C1053 C1054 1.383 . S
C1053 H1061 0.929 . S
C1054 C1053 1.383 . S
C1054 C1055 1.377 . S
C1055 H1039 0.930 . S
C1055 C1054 1.377 . S
C1055 C1056 1.379 . S
C1056 H1040 0.931 . S
C1056 C1050 1.383 . S
C1056 C1055 1.379 . S
H1057 C1051 0.959 . S
H1058 C1051 0.961 . S
H1059 C1051 0.960 . S
H1060 C1052 0.930 . S
H1061 C1053 0.929 . S
H1062 C1070 0.929 . S
H1063 C1072 0.930 . S
H1064 C1074 0.930 . S
H1065 C1077 0.929 . S
H1066 C1080 0.930 . S
H1067 C1082 0.960 . S
H1068 C1082 0.960 . S
H1069 C1082 0.960 . S
C1070 H1062 0.929 . S
C1070 C1071 1.377 . S
C1070 C1072 1.384 . S
C1071 C1070 1.377 . S
C1071 C1077 1.390 . S
C1072 H1063 0.930 . S
C1072 C1070 1.384 . S
C1072 C1073 1.372 . S
C1073 C1072 1.372 . S
C1073 C1074 1.400 . S
C1073 C1078 1.490 . S
C1074 H1064 0.930 . S
C1074 C1073 1.400 . S
C1074 C1077 1.386 . S
H1075 C1091 0.930 . S
H1076 C1092 0.931 . S
C1077 H1065 0.929 . S
C1077 C1071 1.390 . S
C1077 C1074 1.386 . S
C1078 C1073 1.490 . S
C1078 C1080 1.395 . S
C1078 C1081 1.403 . S
H1079 C1085 0.930 . S
C1080 H1066 0.930 . S
C1080 C1078 1.395 . S
C1080 C1083 1.403 . S
C1081 C1078 1.403 . S
C1081 C1082 1.524 . S
C1081 C1085 1.400 . S
C1082 H1067 0.960 . S
C1082 H1068 0.960 . S
C1082 H1069 0.960 . S
C1082 C1081 1.524 . S
C1083 C1080 1.403 . S
C1083 C1084 1.392 . S
C1083 C1087 1.495 . S
C1084 C1083 1.392 . S
C1084 C1085 1.385 . S
C1084 C1086 1.478 . S
C1085 H1079 0.930 . S
C1085 C1081 1.400 . S
C1085 C1084 1.385 . S
C1086 C1084 1.478 . S
C1086 C1088 1.381 . S
C1086 C1092 1.383 . S
C1087 C1083 1.495 . S
C1087 H1093 0.959 . S
C1087 H1094 0.961 . S
C1087 H1095 0.960 . S
C1088 C1086 1.381 . S
C1088 C1089 1.394 . S
C1088 H1096 0.930 . S
C1089 C1088 1.394 . S
C1089 C1090 1.383 . S
C1089 H1097 0.929 . S
C1090 C1089 1.383 . S
C1090 C1091 1.377 . S
C1091 H1075 0.930 . S
C1091 C1090 1.377 . S
C1091 C1092 1.379 . S
C1092 H1076 0.931 . S
C1092 C1086 1.383 . S
C1092 C1091 1.379 . S
H1093 C1087 0.959 . S
H1094 C1087 0.961 . S
H1095 C1087 0.960 . S
H1096 C1088 0.930 . S
H1097 C1089 0.929 . S
H1098 C1106 0.929 . S
H1099 C1108 0.930 . S
H1100 C1110 0.930 . S
H1101 C1113 0.929 . S
H1102 C1116 0.930 . S
H1103 C1118 0.960 1_565 S
H1104 C1118 0.960 . S
H1105 C1118 0.960 . S
C1106 H1098 0.929 . S
C1106 C1107 1.377 . S
C1106 C1108 1.384 . S
C1107 C1106 1.377 . S
C1107 C1113 1.390 . S
C1108 H1099 0.930 . S
C1108 C1106 1.384 . S
C1108 C1109 1.372 . S
C1109 C1108 1.372 . S
C1109 C1110 1.400 . S
C1109 C1114 1.490 . S
C1110 H1100 0.930 . S
C1110 C1109 1.400 . S
C1110 C1113 1.386 . S
H1111 C1127 0.930 . S
H1112 C1128 0.931 . S
C1113 H1101 0.929 . S
C1113 C1107 1.390 . S
C1113 C1110 1.386 . S
C1114 C1109 1.490 . S
C1114 C1116 1.395 . S
C1114 C1117 1.398 1_545 S
H1115 C1121 0.930 . S
C1116 H1102 0.930 . S
C1116 C1114 1.395 . S
C1116 C1119 1.403 1_545 S
C1117 C1114 1.398 1_565 S
C1117 C1118 1.505 1_565 S
C1117 C1121 1.425 . S
C1118 H1103 0.960 1_545 S
C1118 H1104 0.960 . S
C1118 H1105 0.960 . S
C1118 C1117 1.505 1_545 S
C1119 C1116 1.403 1_565 S
C1119 C1120 1.392 . S
C1119 C1123 1.495 . S
C1120 C1119 1.392 . S
C1120 C1121 1.385 . S
C1120 C1122 1.478 . S
C1121 H1115 0.930 . S
C1121 C1117 1.425 . S
C1121 C1120 1.385 . S
C1122 C1120 1.478 . S
C1122 C1124 1.381 . S
C1122 C1128 1.383 . S
C1123 C1119 1.495 . S
C1123 H1129 0.959 . S
C1123 H1130 0.961 . S
C1123 H1131 0.960 . S
C1124 C1122 1.381 . S
C1124 C1125 1.394 . S
C1124 H1132 0.930 . S
C1125 C1124 1.394 . S
C1125 C1126 1.383 . S
C1125 H1133 0.929 . S
C1126 C1125 1.383 . S
C1126 C1127 1.377 . S
C1127 H1111 0.930 . S
C1127 C1126 1.377 . S
C1127 C1128 1.379 . S
C1128 H1112 0.931 . S
C1128 C1122 1.383 . S
C1128 C1127 1.379 . S
H1129 C1123 0.959 . S
H1130 C1123 0.961 . S
H1131 C1123 0.960 . S
H1132 C1124 0.930 . S
H1133 C1125 0.929 . S
H1134 C1142 0.929 . S
H1135 C1144 0.930 . S
H1136 C1146 0.930 . S
H1137 C1149 0.929 . S
H1138 C1152 0.930 . S
H1139 C1154 0.960 . S
H1140 C1154 0.960 . S
H1141 C1154 0.960 . S
C1142 H1134 0.929 . S
C1142 C1143 1.377 . S
C1142 C1144 1.384 . S
C1143 C1142 1.377 . S
C1143 C1149 1.390 . S
C1144 H1135 0.930 . S
C1144 C1142 1.384 . S
C1144 C1145 1.372 . S
C1145 C1144 1.372 . S
C1145 C1146 1.400 . S
C1145 C1150 1.490 . S
C1146 H1136 0.930 . S
C1146 C1145 1.400 . S
C1146 C1149 1.386 . S
H1147 C1163 0.930 . S
H1148 C1164 0.931 . S
C1149 H1137 0.929 . S
C1149 C1143 1.390 . S
C1149 C1146 1.386 . S
C1150 C1145 1.490 . S
C1150 C1152 1.395 . S
C1150 C1153 1.403 . S
H1151 C1157 0.930 . S
C1152 H1138 0.930 . S
C1152 C1150 1.395 . S
C1152 C1155 1.403 . S
C1153 C1150 1.403 . S
C1153 C1154 1.524 . S
C1153 C1157 1.400 . S
C1154 H1139 0.960 . S
C1154 H1140 0.960 . S
C1154 H1141 0.960 . S
C1154 C1153 1.524 . S
C1155 C1152 1.403 . S
C1155 C1156 1.392 . S
C1155 C1159 1.495 . S
C1156 C1155 1.392 . S
C1156 C1157 1.385 . S
C1156 C1158 1.478 . S
C1157 H1151 0.930 . S
C1157 C1153 1.400 . S
C1157 C1156 1.385 . S
C1158 C1156 1.478 . S
C1158 C1160 1.381 . S
C1158 C1164 1.383 . S
C1159 C1155 1.495 . S
C1159 H1165 0.959 . S
C1159 H1166 0.961 . S
C1159 H1167 0.960 . S
C1160 C1158 1.381 . S
C1160 C1161 1.394 . S
C1160 H1168 0.930 . S
C1161 C1160 1.394 . S
C1161 C1162 1.383 . S
C1161 H1169 0.929 . S
C1162 C1161 1.383 . S
C1162 C1163 1.377 . S
C1163 H1147 0.930 . S
C1163 C1162 1.377 . S
C1163 C1164 1.379 . S
C1164 H1148 0.931 . S
C1164 C1158 1.383 . S
C1164 C1163 1.379 . S
H1165 C1159 0.959 . S
H1166 C1159 0.961 . S
H1167 C1159 0.960 . S
H1168 C1160 0.930 . S
H1169 C1161 0.929 . S
H1170 C1178 0.929 . S
H1171 C1180 0.930 . S
H1172 C1182 0.930 . S
H1173 C1185 0.929 . S
H1174 C1188 0.930 . S
H1175 C1190 0.960 . S
H1176 C1190 0.960 . S
H1177 C1190 0.960 . S
C1178 H1170 0.929 . S
C1178 C1179 1.377 . S
C1178 C1180 1.384 . S
C1179 C1178 1.377 . S
C1179 C1185 1.390 . S
C1180 H1171 0.930 . S
C1180 C1178 1.384 . S
C1180 C1181 1.372 . S
C1181 C1180 1.372 . S
C1181 C1182 1.400 . S
C1181 C1186 1.490 . S
C1182 H1172 0.930 . S
C1182 C1181 1.400 . S
C1182 C1185 1.386 . S
H1183 C1199 0.930 . S
H1184 C1200 0.931 . S
C1185 H1173 0.929 . S
C1185 C1179 1.390 . S
C1185 C1182 1.386 . S
C1186 C1181 1.490 . S
C1186 C1188 1.395 . S
C1186 C1189 1.403 . S
H1187 C1193 0.930 . S
C1188 H1174 0.930 . S
C1188 C1186 1.395 . S
C1188 C1191 1.403 . S
C1189 C1186 1.403 . S
C1189 C1190 1.524 . S
C1189 C1193 1.400 . S
C1190 H1175 0.960 . S
C1190 H1176 0.960 . S
C1190 H1177 0.960 . S
C1190 C1189 1.524 . S
C1191 C1188 1.403 . S
C1191 C1192 1.392 . S
C1191 C1195 1.495 . S
C1192 C1191 1.392 . S
C1192 C1193 1.385 . S
C1192 C1194 1.478 . S
C1193 H1187 0.930 . S
C1193 C1189 1.400 . S
C1193 C1192 1.385 . S
C1194 C1192 1.478 . S
C1194 C1196 1.381 . S
C1194 C1200 1.383 . S
C1195 C1191 1.495 . S
C1195 H1201 0.959 . S
C1195 H1202 0.961 . S
C1195 H1203 0.960 . S
C1196 C1194 1.381 . S
C1196 C1197 1.394 . S
C1196 H1204 0.930 . S
C1197 C1196 1.394 . S
C1197 C1198 1.383 . S
C1197 H1205 0.929 . S
C1198 C1197 1.383 . S
C1198 C1199 1.377 . S
C1199 H1183 0.930 . S
C1199 C1198 1.377 . S
C1199 C1200 1.379 . S
C1200 H1184 0.931 . S
C1200 C1194 1.383 . S
C1200 C1199 1.379 . S
H1201 C1195 0.959 . S
H1202 C1195 0.961 . S
H1203 C1195 0.960 . S
H1204 C1196 0.930 . S
H1205 C1197 0.929 . S
H1206 C1214 0.929 . S
H1207 C1216 0.930 . S
H1208 C1218 0.930 . S
H1209 C1221 0.929 . S
H1210 C1224 0.930 . S
H1211 C1226 0.960 . S
H1212 C1226 0.960 . S
H1213 C1226 0.960 . S
C1214 H1206 0.929 . S
C1214 C1215 1.377 . S
C1214 C1216 1.384 . S
C1215 C1214 1.377 . S
C1215 C1221 1.390 . S
C1216 H1207 0.930 . S
C1216 C1214 1.384 . S
C1216 C1217 1.372 . S
C1217 C1216 1.372 . S
C1217 C1218 1.400 . S
C1217 C1222 1.490 . S
C1218 H1208 0.930 . S
C1218 C1217 1.400 . S
C1218 C1221 1.386 . S
H1219 C1235 0.930 . S
H1220 C1236 0.931 . S
C1221 H1209 0.929 . S
C1221 C1215 1.390 . S
C1221 C1218 1.386 . S
C1222 C1217 1.490 . S
C1222 C1224 1.395 . S
C1222 C1225 1.403 . S
H1223 C1229 0.930 . S
C1224 H1210 0.930 . S
C1224 C1222 1.395 . S
C1224 C1227 1.403 . S
C1225 C1222 1.403 . S
C1225 C1226 1.524 . S
C1225 C1229 1.400 . S
C1226 H1211 0.960 . S
C1226 H1212 0.960 . S
C1226 H1213 0.960 . S
C1226 C1225 1.524 . S
C1227 C1224 1.403 . S
C1227 C1228 1.392 . S
C1227 C1231 1.495 . S
C1228 C1227 1.392 . S
C1228 C1229 1.385 . S
C1228 C1230 1.478 . S
C1229 H1223 0.930 . S
C1229 C1225 1.400 . S
C1229 C1228 1.385 . S
C1230 C1228 1.478 . S
C1230 C1232 1.381 . S
C1230 C1236 1.383 . S
C1231 C1227 1.495 . S
C1231 H1237 0.959 . S
C1231 H1238 0.961 . S
C1231 H1239 0.960 . S
C1232 C1230 1.381 . S
C1232 C1233 1.394 . S
C1232 H1240 0.930 . S
C1233 C1232 1.394 . S
C1233 C1234 1.383 . S
C1233 H1241 0.929 . S
C1234 C1233 1.383 . S
C1234 C1235 1.377 . S
C1235 H1219 0.930 . S
C1235 C1234 1.377 . S
C1235 C1236 1.379 . S
C1236 H1220 0.931 . S
C1236 C1230 1.383 . S
C1236 C1235 1.379 . S
H1237 C1231 0.959 . S
H1238 C1231 0.961 . S
H1239 C1231 0.960 . S
H1240 C1232 0.930 . S
H1241 C1233 0.929 . S
H1242 C1250 0.929 . S
H1243 C1252 0.930 . S
H1244 C1254 0.930 . S
H1245 C1257 0.929 . S
H1246 C1260 0.930 . S
H1247 C1262 0.960 . S
H1248 C1262 0.960 . S
H1249 C1262 0.960 . S
C1250 H1242 0.929 . S
C1250 C1251 1.377 . S
C1250 C1252 1.384 . S
C1251 C1250 1.377 . S
C1251 C1257 1.390 . S
C1252 H1243 0.930 . S
C1252 C1250 1.384 . S
C1252 C1253 1.372 . S
C1253 C1252 1.372 . S
C1253 C1254 1.400 . S
C1253 C1258 1.490 . S
C1254 H1244 0.930 . S
C1254 C1253 1.400 . S
C1254 C1257 1.386 . S
H1255 C1271 0.930 . S
H1256 C1272 0.931 . S
C1257 H1245 0.929 . S
C1257 C1251 1.390 . S
C1257 C1254 1.386 . S
C1258 C1253 1.490 . S
C1258 C1260 1.395 . S
C1258 C1261 1.403 . S
H1259 C1265 0.930 . S
C1260 H1246 0.930 . S
C1260 C1258 1.395 . S
C1260 C1263 1.403 . S
C1261 C1258 1.403 . S
C1261 C1262 1.524 . S
C1261 C1265 1.400 . S
C1262 H1247 0.960 . S
C1262 H1248 0.960 . S
C1262 H1249 0.960 . S
C1262 C1261 1.524 . S
C1263 C1260 1.403 . S
C1263 C1264 1.392 . S
C1263 C1267 1.495 . S
C1264 C1263 1.392 . S
C1264 C1265 1.385 . S
C1264 C1266 1.478 . S
C1265 H1259 0.930 . S
C1265 C1261 1.400 . S
C1265 C1264 1.385 . S
C1266 C1264 1.478 . S
C1266 C1268 1.381 . S
C1266 C1272 1.383 . S
C1267 C1263 1.495 . S
C1267 H1273 0.959 . S
C1267 H1274 0.961 . S
C1267 H1275 0.960 . S
C1268 C1266 1.381 . S
C1268 C1269 1.394 . S
C1268 H1276 0.930 . S
C1269 C1268 1.394 . S
C1269 C1270 1.383 . S
C1269 H1277 0.929 . S
C1270 C1269 1.383 . S
C1270 C1271 1.377 . S
C1271 H1255 0.930 . S
C1271 C1270 1.377 . S
C1271 C1272 1.379 . S
C1272 H1256 0.931 . S
C1272 C1266 1.383 . S
C1272 C1271 1.379 . S
H1273 C1267 0.959 . S
H1274 C1267 0.961 . S
H1275 C1267 0.960 . S
H1276 C1268 0.930 . S
H1277 C1269 0.929 . S
H1278 C1286 0.929 . S
H1279 C1288 0.930 . S
H1280 C1290 0.930 . S
H1281 C1293 0.929 . S
H1282 C1296 0.930 . S
H1283 C1298 0.960 . S
H1284 C1298 0.960 . S
H1285 C1298 0.960 . S
C1286 H1278 0.929 . S
C1286 C1287 1.377 . S
C1286 C1288 1.384 . S
C1287 C1286 1.377 . S
C1287 C1293 1.390 . S
C1288 H1279 0.930 . S
C1288 C1286 1.384 . S
C1288 C1289 1.372 . S
C1289 C1288 1.372 . S
C1289 C1290 1.400 . S
C1289 C1294 1.490 . S
C1290 H1280 0.930 . S
C1290 C1289 1.400 . S
C1290 C1293 1.386 . S
H1291 C1307 0.930 . S
H1292 C1308 0.931 . S
C1293 H1281 0.929 . S
C1293 C1287 1.390 . S
C1293 C1290 1.386 . S
C1294 C1289 1.490 . S
C1294 C1296 1.395 . S
C1294 C1297 1.403 . S
H1295 C1301 0.930 . S
C1296 H1282 0.930 . S
C1296 C1294 1.395 . S
C1296 C1299 1.403 . S
C1297 C1294 1.403 . S
C1297 C1298 1.524 . S
C1297 C1301 1.400 . S
C1298 H1283 0.960 . S
C1298 H1284 0.960 . S
C1298 H1285 0.960 . S
C1298 C1297 1.524 . S
C1299 C1296 1.403 . S
C1299 C1300 1.392 . S
C1299 C1303 1.495 . S
C1300 C1299 1.392 . S
C1300 C1301 1.385 . S
C1300 C1302 1.478 . S
C1301 H1295 0.930 . S
C1301 C1297 1.400 . S
C1301 C1300 1.385 . S
C1302 C1300 1.478 . S
C1302 C1304 1.381 . S
C1302 C1308 1.383 . S
C1303 C1299 1.495 . S
C1303 H1309 0.959 . S
C1303 H1310 0.961 . S
C1303 H1311 0.960 . S
C1304 C1302 1.381 . S
C1304 C1305 1.394 . S
C1304 H1312 0.930 . S
C1305 C1304 1.394 . S
C1305 C1306 1.383 . S
C1305 H1313 0.929 . S
C1306 C1305 1.383 . S
C1306 C1307 1.377 . S
C1307 H1291 0.930 . S
C1307 C1306 1.377 . S
C1307 C1308 1.379 . S
C1308 H1292 0.931 . S
C1308 C1302 1.383 . S
C1308 C1307 1.379 . S
H1309 C1303 0.959 . S
H1310 C1303 0.961 . S
H1311 C1303 0.960 . S
H1312 C1304 0.930 . S
H1313 C1305 0.929 . S
H1314 C1322 0.929 . S
H1315 C1324 0.930 . S
H1316 C1326 0.930 . S
H1317 C1329 0.929 . S
H1318 C1332 0.930 . S
H1319 C1334 0.960 . S
H1320 C1334 0.960 . S
H1321 C1334 0.960 . S
C1322 H1314 0.929 . S
C1322 C1323 1.377 . S
C1322 C1324 1.384 . S
C1323 C1322 1.377 . S
C1323 C1329 1.390 . S
C1324 H1315 0.930 . S
C1324 C1322 1.384 . S
C1324 C1325 1.372 . S
C1325 C1324 1.372 . S
C1325 C1326 1.400 . S
C1325 C1330 1.490 . S
C1326 H1316 0.930 . S
C1326 C1325 1.400 . S
C1326 C1329 1.386 . S
H1327 C1343 0.930 . S
H1328 C1344 0.931 . S
C1329 H1317 0.929 . S
C1329 C1323 1.390 . S
C1329 C1326 1.386 . S
C1330 C1325 1.490 . S
C1330 C1332 1.395 . S
C1330 C1333 1.403 . S
H1331 C1337 0.930 . S
C1332 H1318 0.930 . S
C1332 C1330 1.395 . S
C1332 C1335 1.403 . S
C1333 C1330 1.403 . S
C1333 C1334 1.524 . S
C1333 C1337 1.400 . S
C1334 H1319 0.960 . S
C1334 H1320 0.960 . S
C1334 H1321 0.960 . S
C1334 C1333 1.524 . S
C1335 C1332 1.403 . S
C1335 C1336 1.392 . S
C1335 C1339 1.495 . S
C1336 C1335 1.392 . S
C1336 C1337 1.385 . S
C1336 C1338 1.478 . S
C1337 H1331 0.930 . S
C1337 C1333 1.400 . S
C1337 C1336 1.385 . S
C1338 C1336 1.478 . S
C1338 C1340 1.381 . S
C1338 C1344 1.383 . S
C1339 C1335 1.495 . S
C1339 H1345 0.959 . S
C1339 H1346 0.961 . S
C1339 H1347 0.960 . S
C1340 C1338 1.381 . S
C1340 C1341 1.394 . S
C1340 H1348 0.930 . S
C1341 C1340 1.394 . S
C1341 C1342 1.383 . S
C1341 H1349 0.929 . S
C1342 C1341 1.383 . S
C1342 C1343 1.377 . S
C1343 H1327 0.930 . S
C1343 C1342 1.377 . S
C1343 C1344 1.379 . S
C1344 H1328 0.931 . S
C1344 C1338 1.383 . S
C1344 C1343 1.379 . S
H1345 C1339 0.959 . S
H1346 C1339 0.961 . S
H1347 C1339 0.960 . S
H1348 C1340 0.930 . S
H1349 C1341 0.929 . S
H1350 C1358 0.929 . S
H1351 C1360 0.930 . S
H1352 C1362 0.930 . S
H1353 C1365 0.929 . S
H1354 C1368 0.930 . S
H1355 C1370 0.966 . S
H1356 C1370 0.960 . S
H1357 C1370 0.960 . S
C1358 H1350 0.929 . S
C1358 C1359 1.377 . S
C1358 C1360 1.384 . S
C1359 C1358 1.377 . S
C1359 C1365 1.390 . S
C1360 H1351 0.930 . S
C1360 C1358 1.384 . S
C1360 C1361 1.372 . S
C1361 C1360 1.372 . S
C1361 C1362 1.400 . S
C1361 C1366 1.490 . S
C1362 H1352 0.930 . S
C1362 C1361 1.400 . S
C1362 C1365 1.386 . S
H1363 C1379 0.930 . S
H1364 C1380 0.931 . S
C1365 H1353 0.929 . S
C1365 C1359 1.390 . S
C1365 C1362 1.386 . S
C1366 C1361 1.490 . S
C1366 C1368 1.395 . S
C1366 C1369 1.403 . S
H1367 C1373 0.930 . S
C1368 H1354 0.930 . S
C1368 C1366 1.395 . S
C1368 C1371 1.403 1_545 S
C1369 C1366 1.403 . S
C1369 C1370 1.524 . S
C1369 C1373 1.400 1_545 S
C1370 H1355 0.966 . S
C1370 H1356 0.960 . S
C1370 H1357 0.960 . S
C1370 C1369 1.524 . S
C1371 C1368 1.403 1_565 S
C1371 C1372 1.392 . S
C1371 C1375 1.495 . S
C1372 C1371 1.392 . S
C1372 C1373 1.385 . S
C1372 C1374 1.478 . S
C1373 H1367 0.930 . S
C1373 C1369 1.400 1_565 S
C1373 C1372 1.385 . S
C1374 C1372 1.478 . S
C1374 C1376 1.381 . S
C1374 C1380 1.383 . S
C1375 C1371 1.495 . S
C1375 H1381 0.959 1_565 S
C1375 H1382 0.961 . S
C1375 H1383 0.960 . S
C1376 C1374 1.381 . S
C1376 C1377 1.394 . S
C1376 H1384 0.930 . S
C1377 C1376 1.394 . S
C1377 C1378 1.383 . S
C1377 H1385 0.929 . S
C1378 C1377 1.383 . S
C1378 C1379 1.377 . S
C1379 H1363 0.930 . S
C1379 C1378 1.377 . S
C1379 C1380 1.379 . S
C1380 H1364 0.931 . S
C1380 C1374 1.383 . S
C1380 C1379 1.379 . S
H1381 C1375 0.959 1_545 S
H1382 C1375 0.961 . S
H1383 C1375 0.960 . S
H1384 C1376 0.930 . S
H1385 C1377 0.929 . S
H1386 C1394 0.929 . S
H1387 C1396 0.930 . S
H1388 C1398 0.930 . S
H1389 C1401 0.929 . S
H1390 C1404 0.930 . S
H1391 C1406 0.942 1_455 S
H1392 C1406 0.960 . S
H1393 C1406 0.960 . S
C1394 H1386 0.929 . S
C1394 C1395 1.377 . S
C1394 C1396 1.384 . S
C1395 C1394 1.377 . S
C1395 C1401 1.390 . S
C1396 H1387 0.930 . S
C1396 C1394 1.384 . S
C1396 C1397 1.372 . S
C1397 C1396 1.372 . S
C1397 C1398 1.400 . S
C1397 C1402 1.490 . S
C1398 H1388 0.930 . S
C1398 C1397 1.400 . S
C1398 C1401 1.386 . S
H1399 C1415 0.930 . S
H1400 C1416 0.931 . S
C1401 H1389 0.929 . S
C1401 C1395 1.390 . S
C1401 C1398 1.386 . S
C1402 C1397 1.490 . S
C1402 C1404 1.395 1_655 S
C1402 C1405 1.403 1_655 S
H1403 C1409 0.930 . S
C1404 H1390 0.930 . S
C1404 C1402 1.395 1_455 S
C1404 C1407 1.403 . S
C1405 C1402 1.403 1_455 S
C1405 C1406 1.524 1_455 S
C1405 C1409 1.400 . S
C1406 H1391 0.942 1_655 S
C1406 H1392 0.960 . S
C1406 H1393 0.960 . S
C1406 C1405 1.524 1_655 S
C1407 C1404 1.403 . S
C1407 C1408 1.392 . S
C1407 C1411 1.495 . S
C1408 C1407 1.392 . S
C1408 C1409 1.385 . S
C1408 C1410 1.478 . S
C1409 H1403 0.930 . S
C1409 C1405 1.400 . S
C1409 C1408 1.385 . S
C1410 C1408 1.478 . S
C1410 C1412 1.381 . S
C1410 C1416 1.383 . S
C1411 C1407 1.495 . S
C1411 H1417 0.959 . S
C1411 H1418 0.961 . S
C1411 H1419 0.960 . S
C1412 C1410 1.381 . S
C1412 C1413 1.394 . S
C1412 H1420 0.930 . S
C1413 C1412 1.394 . S
C1413 C1414 1.383 . S
C1413 H1421 0.929 . S
C1414 C1413 1.383 . S
C1414 C1415 1.377 . S
C1415 H1399 0.930 . S
C1415 C1414 1.377 . S
C1415 C1416 1.379 . S
C1416 H1400 0.931 . S
C1416 C1410 1.383 . S
C1416 C1415 1.379 . S
H1417 C1411 0.959 . S
H1418 C1411 0.961 . S
H1419 C1411 0.960 . S
H1420 C1412 0.930 . S
H1421 C1413 0.929 . S
H1422 C1430 0.929 . S
H1423 C1432 0.930 . S
H1424 C1434 0.930 . S
H1425 C1437 0.929 . S
H1426 C1440 0.930 . S
H1427 C1442 0.960 . S
H1428 C1442 0.960 . S
H1429 C1442 0.960 . S
C1430 H1422 0.929 . S
C1430 C1431 1.377 . S
C1430 C1432 1.384 . S
C1431 C1430 1.377 . S
C1431 C1437 1.390 . S
C1432 H1423 0.930 . S
C1432 C1430 1.384 . S
C1432 C1433 1.372 . S
C1433 C1432 1.372 . S
C1433 C1434 1.400 . S
C1433 C1438 1.490 . S
C1434 H1424 0.930 . S
C1434 C1433 1.400 . S
C1434 C1437 1.386 . S
H1435 C1451 0.930 . S
H1436 C1452 0.931 . S
C1437 H1425 0.929 . S
C1437 C1431 1.390 . S
C1437 C1434 1.386 . S
C1438 C1433 1.490 . S
C1438 C1440 1.395 . S
C1438 C1441 1.403 . S
H1439 C1445 0.930 . S
C1440 H1426 0.930 . S
C1440 C1438 1.395 . S
C1440 C1443 1.403 . S
C1441 C1438 1.403 . S
C1441 C1442 1.524 . S
C1441 C1445 1.400 . S
C1442 H1427 0.960 . S
C1442 H1428 0.960 . S
C1442 H1429 0.960 . S
C1442 C1441 1.524 . S
C1443 C1440 1.403 . S
C1443 C1444 1.392 . S
C1443 C1447 1.495 . S
C1444 C1443 1.392 . S
C1444 C1445 1.385 . S
C1444 C1446 1.478 . S
C1445 H1439 0.930 . S
C1445 C1441 1.400 . S
C1445 C1444 1.385 . S
C1446 C1444 1.478 . S
C1446 C1448 1.381 . S
C1446 C1452 1.383 . S
C1447 C1443 1.495 . S
C1447 H1453 0.959 . S
C1447 H1454 0.961 . S
C1447 H1455 0.960 . S
C1448 C1446 1.381 . S
C1448 C1449 1.394 . S
C1448 H1456 0.930 . S
C1449 C1448 1.394 . S
C1449 C1450 1.383 . S
C1449 H1457 0.929 . S
C1450 C1449 1.383 . S
C1450 C1451 1.377 . S
C1451 H1435 0.930 . S
C1451 C1450 1.377 . S
C1451 C1452 1.379 . S
C1452 H1436 0.931 . S
C1452 C1446 1.383 . S
C1452 C1451 1.379 . S
H1453 C1447 0.959 . S
H1454 C1447 0.961 . S
H1455 C1447 0.960 . S
H1456 C1448 0.930 . S
H1457 C1449 0.929 . S
H1458 C1466 0.929 . S
H1459 C1468 0.930 . S
H1460 C1470 0.930 . S
H1461 C1473 0.929 . S
H1462 C1476 0.930 . S
H1463 C1478 0.960 . S
H1464 C1478 0.960 . S
H1465 C1478 0.960 . S
C1466 H1458 0.929 . S
C1466 C1467 1.377 . S
C1466 C1468 1.384 . S
C1467 C1466 1.377 . S
C1467 C1473 1.390 . S
C1468 H1459 0.930 . S
C1468 C1466 1.384 . S
C1468 C1469 1.372 . S
C1469 C1468 1.372 . S
C1469 C1470 1.400 . S
C1469 C1474 1.490 . S
C1470 H1460 0.930 . S
C1470 C1469 1.400 . S
C1470 C1473 1.386 . S
H1471 C1487 0.930 . S
H1472 C1488 0.931 . S
C1473 H1461 0.929 . S
C1473 C1467 1.390 . S
C1473 C1470 1.386 . S
C1474 C1469 1.490 . S
C1474 C1476 1.395 . S
C1474 C1477 1.403 . S
H1475 C1481 0.930 . S
C1476 H1462 0.930 . S
C1476 C1474 1.395 . S
C1476 C1479 1.403 . S
C1477 C1474 1.403 . S
C1477 C1478 1.524 . S
C1477 C1481 1.400 . S
C1478 H1463 0.960 . S
C1478 H1464 0.960 . S
C1478 H1465 0.960 . S
C1478 C1477 1.524 . S
C1479 C1476 1.403 . S
C1479 C1480 1.392 . S
C1479 C1483 1.495 . S
C1480 C1479 1.392 . S
C1480 C1481 1.385 . S
C1480 C1482 1.478 . S
C1481 H1475 0.930 . S
C1481 C1477 1.400 . S
C1481 C1480 1.385 . S
C1482 C1480 1.478 . S
C1482 C1484 1.381 . S
C1482 C1488 1.383 . S
C1483 C1479 1.495 . S
C1483 H1489 0.959 . S
C1483 H1490 0.961 . S
C1483 H1491 0.960 . S
C1484 C1482 1.381 . S
C1484 C1485 1.394 . S
C1484 H1492 0.930 . S
C1485 C1484 1.394 . S
C1485 C1486 1.383 . S
C1485 H1493 0.929 . S
C1486 C1485 1.383 . S
C1486 C1487 1.377 . S
C1487 H1471 0.930 . S
C1487 C1486 1.377 . S
C1487 C1488 1.379 . S
C1488 H1472 0.931 . S
C1488 C1482 1.383 . S
C1488 C1487 1.379 . S
H1489 C1483 0.959 . S
H1490 C1483 0.961 . S
H1491 C1483 0.960 . S
H1492 C1484 0.930 . S
H1493 C1485 0.929 . S
H1494 C1502 0.929 . S
H1495 C1504 0.930 . S
H1496 C1506 0.930 . S
H1497 C1509 0.929 . S
H1498 C1512 0.930 . S
H1499 C1514 0.960 . S
H1500 C1514 0.960 . S
H1501 C1514 0.960 . S
C1502 H1494 0.929 . S
C1502 C1503 1.377 . S
C1502 C1504 1.384 . S
C1503 C1502 1.377 . S
C1503 C1509 1.390 . S
C1504 H1495 0.930 . S
C1504 C1502 1.384 . S
C1504 C1505 1.372 . S
C1505 C1504 1.372 . S
C1505 C1506 1.400 . S
C1505 C1510 1.490 . S
C1506 H1496 0.930 . S
C1506 C1505 1.400 . S
C1506 C1509 1.386 . S
H1507 C1523 0.930 . S
H1508 C1524 0.931 . S
C1509 H1497 0.929 . S
C1509 C1503 1.390 . S
C1509 C1506 1.386 . S
C1510 C1505 1.490 . S
C1510 C1512 1.395 . S
C1510 C1513 1.403 . S
H1511 C1517 0.930 . S
C1512 H1498 0.930 . S
C1512 C1510 1.395 . S
C1512 C1515 1.403 . S
C1513 C1510 1.403 . S
C1513 C1514 1.524 . S
C1513 C1517 1.400 . S
C1514 H1499 0.960 . S
C1514 H1500 0.960 . S
C1514 H1501 0.960 . S
C1514 C1513 1.524 . S
C1515 C1512 1.403 . S
C1515 C1516 1.392 . S
C1515 C1519 1.495 . S
C1516 C1515 1.392 . S
C1516 C1517 1.385 . S
C1516 C1518 1.478 . S
C1517 H1511 0.930 . S
C1517 C1513 1.400 . S
C1517 C1516 1.385 . S
C1518 C1516 1.478 . S
C1518 C1520 1.381 . S
C1518 C1524 1.383 . S
C1519 C1515 1.495 . S
C1519 H1525 0.959 . S
C1519 H1526 0.961 . S
C1519 H1527 0.960 . S
C1520 C1518 1.381 . S
C1520 C1521 1.394 . S
C1520 H1528 0.930 . S
C1521 C1520 1.394 . S
C1521 C1522 1.383 . S
C1521 H1529 0.929 . S
C1522 C1521 1.383 . S
C1522 C1523 1.377 . S
C1523 H1507 0.930 . S
C1523 C1522 1.377 . S
C1523 C1524 1.379 . S
C1524 H1508 0.931 . S
C1524 C1518 1.383 . S
C1524 C1523 1.379 . S
H1525 C1519 0.959 . S
H1526 C1519 0.961 . S
H1527 C1519 0.960 . S
H1528 C1520 0.930 . S
H1529 C1521 0.929 . S
H1530 C1538 0.929 . S
H1531 C1540 0.930 . S
H1532 C1542 0.930 . S
H1533 C1545 0.929 . S
H1534 C1548 0.930 . S
H1535 C1550 0.960 . S
H1536 C1550 0.960 . S
H1537 C1550 0.960 . S
C1538 H1530 0.929 . S
C1538 C1539 1.377 . S
C1538 C1540 1.384 . S
C1539 C1538 1.377 . S
C1539 C1545 1.390 . S
C1540 H1531 0.930 . S
C1540 C1538 1.384 . S
C1540 C1541 1.372 . S
C1541 C1540 1.372 . S
C1541 C1542 1.400 . S
C1541 C1546 1.490 . S
C1542 H1532 0.930 . S
C1542 C1541 1.400 . S
C1542 C1545 1.386 . S
H1543 C1559 0.930 . S
H1544 C1560 0.931 . S
C1545 H1533 0.929 . S
C1545 C1539 1.390 . S
C1545 C1542 1.386 . S
C1546 C1541 1.490 . S
C1546 C1548 1.395 . S
C1546 C1549 1.403 . S
H1547 C1553 0.930 . S
C1548 H1534 0.930 . S
C1548 C1546 1.395 . S
C1548 C1551 1.403 . S
C1549 C1546 1.403 . S
C1549 C1550 1.524 . S
C1549 C1553 1.400 . S
C1550 H1535 0.960 . S
C1550 H1536 0.960 . S
C1550 H1537 0.960 . S
C1550 C1549 1.524 . S
C1551 C1548 1.403 . S
C1551 C1552 1.392 . S
C1551 C1555 1.495 . S
C1552 C1551 1.392 . S
C1552 C1553 1.385 . S
C1552 C1554 1.478 . S
C1553 H1547 0.930 . S
C1553 C1549 1.400 . S
C1553 C1552 1.385 . S
C1554 C1552 1.478 . S
C1554 C1556 1.381 . S
C1554 C1560 1.383 . S
C1555 C1551 1.495 . S
C1555 H1561 0.959 . S
C1555 H1562 0.961 . S
C1555 H1563 0.960 . S
C1556 C1554 1.381 . S
C1556 C1557 1.394 . S
C1556 H1564 0.930 . S
C1557 C1556 1.394 . S
C1557 C1558 1.383 . S
C1557 H1565 0.929 . S
C1558 C1557 1.383 . S
C1558 C1559 1.377 . S
C1559 H1543 0.930 . S
C1559 C1558 1.377 . S
C1559 C1560 1.379 . S
C1560 H1544 0.931 . S
C1560 C1554 1.383 . S
C1560 C1559 1.379 . S
H1561 C1555 0.959 . S
H1562 C1555 0.961 . S
H1563 C1555 0.960 . S
H1564 C1556 0.930 . S
H1565 C1557 0.929 . S
H1566 C1574 0.929 . S
H1567 C1576 0.930 . S
H1568 C1578 0.930 . S
H1569 C1581 0.929 . S
H1570 C1584 0.930 1_565 S
H1571 C1586 0.960 . S
H1572 C1586 0.960 1_565 S
H1573 C1586 0.960 1_565 S
C1574 H1566 0.929 . S
C1574 C1575 1.377 . S
C1574 C1576 1.384 . S
C1575 C1574 1.377 . S
C1575 C1581 1.390 . S
C1576 H1567 0.930 . S
C1576 C1574 1.384 . S
C1576 C1577 1.372 . S
C1577 C1576 1.372 . S
C1577 C1578 1.400 . S
C1577 C1582 1.490 . S
C1578 H1568 0.930 . S
C1578 C1577 1.400 . S
C1578 C1581 1.386 . S
H1579 C1595 0.930 . S
H1580 C1596 0.931 . S
C1581 H1569 0.929 . S
C1581 C1575 1.390 . S
C1581 C1578 1.386 . S
C1582 C1577 1.490 . S
C1582 C1584 1.395 1_565 S
C1582 C1585 1.403 1_565 S
H1583 C1589 0.930 . S
C1584 H1570 0.930 1_545 S
C1584 C1582 1.395 1_545 S
C1584 C1587 1.403 . S
C1585 C1582 1.403 1_545 S
C1585 C1586 1.524 . S
C1585 C1589 1.400 . S
C1586 H1571 0.960 . S
C1586 H1572 0.960 1_545 S
C1586 H1573 0.960 1_545 S
C1586 C1585 1.524 . S
C1587 C1584 1.403 . S
C1587 C1588 1.392 . S
C1587 C1591 1.495 . S
C1588 C1587 1.392 . S
C1588 C1589 1.385 . S
C1588 C1590 1.478 . S
C1589 H1583 0.930 . S
C1589 C1585 1.400 . S
C1589 C1588 1.385 . S
C1590 C1588 1.478 . S
C1590 C1592 1.381 . S
C1590 C1596 1.383 . S
C1591 C1587 1.495 . S
C1591 H1597 0.959 . S
C1591 H1598 0.961 . S
C1591 H1599 0.960 . S
C1592 C1590 1.381 . S
C1592 C1593 1.394 . S
C1592 H1600 0.930 . S
C1593 C1592 1.394 . S
C1593 C1594 1.383 . S
C1593 H1601 0.929 . S
C1594 C1593 1.383 . S
C1594 C1595 1.377 . S
C1595 H1579 0.930 . S
C1595 C1594 1.377 . S
C1595 C1596 1.379 . S
C1596 H1580 0.931 . S
C1596 C1590 1.383 . S
C1596 C1595 1.379 . S
H1597 C1591 0.959 . S
H1598 C1591 0.961 . S
H1599 C1591 0.960 . S
H1600 C1592 0.930 . S
H1601 C1593 0.929 . S
H1602 C1610 0.929 . S
H1603 C1612 0.930 . S
H1604 C1614 0.930 . S
H1605 C1617 0.929 . S
H1606 C1620 0.930 . S
H1607 C1622 0.960 . S
H1608 C1622 0.960 . S
H1609 C1622 0.960 . S
C1610 H1602 0.929 . S
C1610 C1611 1.377 . S
C1610 C1612 1.384 . S
C1611 C1610 1.377 . S
C1611 C1617 1.390 . S
C1612 H1603 0.930 . S
C1612 C1610 1.384 . S
C1612 C1613 1.372 . S
C1613 C1612 1.372 . S
C1613 C1614 1.400 . S
C1613 C1618 1.490 1_455 S
C1614 H1604 0.930 . S
C1614 C1613 1.400 . S
C1614 C1617 1.386 . S
H1615 C1631 0.930 . S
H1616 C1632 0.931 . S
C1617 H1605 0.929 . S
C1617 C1611 1.390 . S
C1617 C1614 1.386 . S
C1618 C1613 1.490 1_655 S
C1618 C1620 1.395 . S
C1618 C1621 1.403 . S
H1619 C1625 0.930 . S
C1620 H1606 0.930 . S
C1620 C1618 1.395 . S
C1620 C1623 1.403 . S
C1621 C1618 1.403 . S
C1621 C1622 1.524 . S
C1621 C1625 1.400 . S
C1622 H1607 0.960 . S
C1622 H1608 0.960 . S
C1622 H1609 0.960 . S
C1622 C1621 1.524 . S
C1623 C1620 1.403 . S
C1623 C1624 1.392 . S
C1623 C1627 1.495 . S
C1624 C1623 1.392 . S
C1624 C1625 1.385 . S
C1624 C1626 1.478 . S
C1625 H1619 0.930 . S
C1625 C1621 1.400 . S
C1625 C1624 1.385 . S
C1626 C1624 1.478 . S
C1626 C1628 1.381 . S
C1626 C1632 1.383 . S
C1627 C1623 1.495 . S
C1627 H1633 0.959 . S
C1627 H1634 0.961 . S
C1627 H1635 0.960 . S
C1628 C1626 1.381 . S
C1628 C1629 1.394 . S
C1628 H1636 0.930 . S
C1629 C1628 1.394 . S
C1629 C1630 1.383 . S
C1629 H1637 0.929 . S
C1630 C1629 1.383 . S
C1630 C1631 1.377 . S
C1631 H1615 0.930 . S
C1631 C1630 1.377 . S
C1631 C1632 1.379 . S
C1632 H1616 0.931 . S
C1632 C1626 1.383 . S
C1632 C1631 1.379 . S
H1633 C1627 0.959 . S
H1634 C1627 0.961 . S
H1635 C1627 0.960 . S
H1636 C1628 0.930 . S
H1637 C1629 0.929 . S
H1638 C1646 0.929 . S
H1639 C1648 0.930 . S
H1640 C1650 0.930 . S
H1641 C1653 0.929 . S
H1642 C1656 0.930 . S
H1643 C1658 0.960 . S
H1644 C1658 0.960 . S
H1645 C1658 0.960 . S
C1646 H1638 0.929 . S
C1646 C1647 1.377 . S
C1646 C1648 1.384 . S
C1647 C1646 1.377 . S
C1647 C1653 1.390 . S
C1648 H1639 0.930 . S
C1648 C1646 1.384 . S
C1648 C1649 1.372 . S
C1649 C1648 1.372 . S
C1649 C1650 1.400 . S
C1649 C1654 1.490 . S
C1650 H1640 0.930 . S
C1650 C1649 1.400 . S
C1650 C1653 1.386 . S
H1651 C1667 0.930 . S
H1652 C1668 0.931 . S
C1653 H1641 0.929 . S
C1653 C1647 1.390 . S
C1653 C1650 1.386 . S
C1654 C1649 1.490 . S
C1654 C1656 1.395 . S
C1654 C1657 1.403 . S
H1655 C1661 0.930 . S
C1656 H1642 0.930 . S
C1656 C1654 1.395 . S
C1656 C1659 1.403 . S
C1657 C1654 1.403 . S
C1657 C1658 1.524 . S
C1657 C1661 1.400 . S
C1658 H1643 0.960 . S
C1658 H1644 0.960 . S
C1658 H1645 0.960 . S
C1658 C1657 1.524 . S
C1659 C1656 1.403 . S
C1659 C1660 1.392 . S
C1659 C1663 1.495 . S
C1660 C1659 1.392 . S
C1660 C1661 1.385 . S
C1660 C1662 1.478 . S
C1661 H1655 0.930 . S
C1661 C1657 1.400 . S
C1661 C1660 1.385 . S
C1662 C1660 1.478 . S
C1662 C1664 1.381 . S
C1662 C1668 1.383 . S
C1663 C1659 1.495 . S
C1663 H1669 0.959 . S
C1663 H1670 0.961 . S
C1663 H1671 0.960 . S
C1664 C1662 1.381 . S
C1664 C1665 1.394 . S
C1664 H1672 0.930 . S
C1665 C1664 1.394 . S
C1665 C1666 1.383 . S
C1665 H1673 0.929 . S
C1666 C1665 1.383 . S
C1666 C1667 1.377 . S
C1667 H1651 0.930 . S
C1667 C1666 1.377 . S
C1667 C1668 1.379 . S
C1668 H1652 0.931 . S
C1668 C1662 1.383 . S
C1668 C1667 1.379 . S
H1669 C1663 0.959 . S
H1670 C1663 0.961 . S
H1671 C1663 0.960 . S
H1672 C1664 0.930 . S
H1673 C1665 0.929 . S
H1674 C1682 0.929 . S
H1675 C1684 0.930 . S
H1676 C1686 0.930 . S
H1677 C1689 0.929 . S
H1678 C1692 0.930 . S
H1679 C1694 0.960 . S
H1680 C1694 0.960 . S
H1681 C1694 0.960 . S
C1682 H1674 0.929 . S
C1682 C1683 1.377 . S
C1682 C1684 1.384 . S
C1683 C1682 1.377 . S
C1683 C1689 1.390 . S
C1684 H1675 0.930 . S
C1684 C1682 1.384 . S
C1684 C1685 1.372 . S
C1685 C1684 1.372 . S
C1685 C1686 1.400 . S
C1685 C1690 1.490 . S
C1686 H1676 0.930 . S
C1686 C1685 1.400 . S
C1686 C1689 1.386 . S
H1687 C1703 0.930 . S
H1688 C1704 0.931 . S
C1689 H1677 0.929 . S
C1689 C1683 1.390 . S
C1689 C1686 1.386 . S
C1690 C1685 1.490 . S
C1690 C1692 1.395 . S
C1690 C1693 1.403 . S
H1691 C1697 0.930 . S
C1692 H1678 0.930 . S
C1692 C1690 1.395 . S
C1692 C1695 1.403 . S
C1693 C1690 1.403 . S
C1693 C1694 1.524 . S
C1693 C1697 1.400 . S
C1694 H1679 0.960 . S
C1694 H1680 0.960 . S
C1694 H1681 0.960 . S
C1694 C1693 1.524 . S
C1695 C1692 1.403 . S
C1695 C1696 1.392 1_455 S
C1695 C1699 1.495 1_455 S
C1696 C1695 1.392 1_655 S
C1696 C1697 1.385 1_655 S
C1696 C1698 1.478 . S
C1697 H1691 0.930 . S
C1697 C1693 1.400 . S
C1697 C1696 1.385 1_455 S
C1698 C1696 1.478 . S
C1698 C1700 1.381 . S
C1698 C1704 1.383 . S
C1699 C1695 1.495 1_655 S
C1699 H1705 0.959 1_655 S
C1699 H1706 0.961 . S
C1699 H1707 0.960 . S
C1700 C1698 1.381 . S
C1700 C1701 1.394 . S
C1700 H1708 0.930 . S
C1701 C1700 1.394 . S
C1701 C1702 1.383 . S
C1701 H1709 0.929 . S
C1702 C1701 1.383 . S
C1702 C1703 1.377 . S
C1703 H1687 0.930 . S
C1703 C1702 1.377 . S
C1703 C1704 1.379 . S
C1704 H1688 0.931 . S
C1704 C1698 1.383 . S
C1704 C1703 1.379 . S
H1705 C1699 0.959 1_455 S
H1706 C1699 0.961 . S
H1707 C1699 0.960 . S
H1708 C1700 0.930 . S
H1709 C1701 0.929 . S
H1710 C1718 0.929 . S
H1711 C1720 0.930 . S
H1712 C1722 0.930 . S
H1713 C1725 0.929 . S
H1714 C1728 0.930 . S
H1715 C1730 0.960 . S
H1716 C1730 0.960 . S
H1717 C1730 0.960 . S
C1718 H1710 0.929 . S
C1718 C1719 1.377 . S
C1718 C1720 1.384 . S
C1719 C1718 1.377 . S
C1719 C1725 1.390 . S
C1720 H1711 0.930 . S
C1720 C1718 1.384 . S
C1720 C1721 1.372 . S
C1721 C1720 1.372 . S
C1721 C1722 1.400 . S
C1721 C1726 1.490 . S
C1722 H1712 0.930 . S
C1722 C1721 1.400 . S
C1722 C1725 1.386 . S
H1723 C1739 0.930 . S
H1724 C1740 0.931 . S
C1725 H1713 0.929 . S
C1725 C1719 1.390 . S
C1725 C1722 1.386 . S
C1726 C1721 1.490 . S
C1726 C1728 1.395 . S
C1726 C1729 1.403 . S
H1727 C1733 0.930 . S
C1728 H1714 0.930 . S
C1728 C1726 1.395 . S
C1728 C1731 1.403 . S
C1729 C1726 1.403 . S
C1729 C1730 1.524 . S
C1729 C1733 1.400 . S
C1730 H1715 0.960 . S
C1730 H1716 0.960 . S
C1730 H1717 0.960 . S
C1730 C1729 1.524 . S
C1731 C1728 1.403 . S
C1731 C1732 1.392 . S
C1731 C1735 1.495 . S
C1732 C1731 1.392 . S
C1732 C1733 1.385 . S
C1732 C1734 1.478 . S
C1733 H1727 0.930 . S
C1733 C1729 1.400 . S
C1733 C1732 1.385 . S
C1734 C1732 1.478 . S
C1734 C1736 1.381 . S
C1734 C1740 1.383 . S
C1735 C1731 1.495 . S
C1735 H1741 0.959 . S
C1735 H1742 0.961 . S
C1735 H1743 0.960 . S
C1736 C1734 1.381 . S
C1736 C1737 1.394 . S
C1736 H1744 0.930 . S
C1737 C1736 1.394 . S
C1737 C1738 1.383 . S
C1737 H1745 0.929 . S
C1738 C1737 1.383 . S
C1738 C1739 1.377 . S
C1739 H1723 0.930 . S
C1739 C1738 1.377 . S
C1739 C1740 1.379 . S
C1740 H1724 0.931 . S
C1740 C1734 1.383 . S
C1740 C1739 1.379 . S
H1741 C1735 0.959 . S
H1742 C1735 0.961 . S
H1743 C1735 0.960 . S
H1744 C1736 0.930 . S
H1745 C1737 0.929 . S
H1746 C1754 0.929 . S
H1747 C1756 0.930 . S
H1748 C1758 0.930 . S
H1749 C1761 0.929 . S
H1750 C1764 0.930 . S
H1751 C1766 0.960 . S
H1752 C1766 0.960 . S
H1753 C1766 0.960 . S
C1754 H1746 0.929 . S
C1754 C1755 1.377 . S
C1754 C1756 1.384 . S
C1755 C1754 1.377 . S
C1755 C1761 1.390 . S
C1756 H1747 0.930 . S
C1756 C1754 1.384 . S
C1756 C1757 1.372 . S
C1757 C1756 1.372 . S
C1757 C1758 1.400 . S
C1757 C1762 1.490 . S
C1758 H1748 0.930 . S
C1758 C1757 1.400 . S
C1758 C1761 1.386 . S
H1759 C1775 0.930 . S
H1760 C1776 0.931 . S
C1761 H1749 0.929 . S
C1761 C1755 1.390 . S
C1761 C1758 1.386 . S
C1762 C1757 1.490 . S
C1762 C1764 1.395 . S
C1762 C1765 1.403 . S
H1763 C1769 0.930 . S
C1764 H1750 0.930 . S
C1764 C1762 1.395 . S
C1764 C1767 1.403 1_565 S
C1765 C1762 1.403 . S
C1765 C1766 1.524 . S
C1765 C1769 1.400 1_565 S
C1766 H1751 0.960 . S
C1766 H1752 0.960 . S
C1766 H1753 0.960 . S
C1766 C1765 1.524 . S
C1767 C1764 1.403 1_545 S
C1767 C1768 1.392 . S
C1767 C1771 1.495 . S
C1768 C1767 1.392 . S
C1768 C1769 1.385 . S
C1768 C1770 1.478 . S
C1769 H1763 0.930 . S
C1769 C1765 1.400 1_545 S
C1769 C1768 1.385 . S
C1770 C1768 1.478 . S
C1770 C1772 1.381 . S
C1770 C1776 1.383 . S
C1771 C1767 1.495 . S
C1771 H1777 0.959 . S
C1771 H1778 0.961 . S
C1771 H1779 0.960 . S
C1772 C1770 1.381 . S
C1772 C1773 1.394 . S
C1772 H1780 0.930 . S
C1773 C1772 1.394 . S
C1773 C1774 1.383 . S
C1773 H1781 0.929 . S
C1774 C1773 1.383 . S
C1774 C1775 1.377 . S
C1775 H1759 0.930 . S
C1775 C1774 1.377 . S
C1775 C1776 1.379 . S
C1776 H1760 0.931 . S
C1776 C1770 1.383 . S
C1776 C1775 1.379 . S
H1777 C1771 0.959 . S
H1778 C1771 0.961 . S
H1779 C1771 0.960 . S
H1780 C1772 0.930 . S
H1781 C1773 0.929 . S
H1782 C1790 0.929 . S
H1783 C1792 0.930 . S
H1784 C1794 0.930 . S
H1785 C1797 0.929 . S
H1786 C1800 0.930 . S
H1787 C1802 0.960 . S
H1788 C1802 0.960 . S
H1789 C1802 0.960 . S
C1790 H1782 0.929 . S
C1790 C1791 1.377 . S
C1790 C1792 1.384 . S
C1791 C1790 1.377 . S
C1791 C1797 1.390 . S
C1792 H1783 0.930 . S
C1792 C1790 1.384 . S
C1792 C1793 1.372 . S
C1793 C1792 1.372 . S
C1793 C1794 1.400 . S
C1793 C1798 1.490 . S
C1794 H1784 0.930 . S
C1794 C1793 1.400 . S
C1794 C1797 1.386 . S
H1795 C1811 0.930 . S
H1796 C1812 0.931 . S
C1797 H1785 0.929 . S
C1797 C1791 1.390 . S
C1797 C1794 1.386 . S
C1798 C1793 1.490 . S
C1798 C1800 1.395 . S
C1798 C1801 1.403 . S
H1799 C1805 0.930 . S
C1800 H1786 0.930 . S
C1800 C1798 1.395 . S
C1800 C1803 1.403 . S
C1801 C1798 1.403 . S
C1801 C1802 1.524 . S
C1801 C1805 1.400 . S
C1802 H1787 0.960 . S
C1802 H1788 0.960 . S
C1802 H1789 0.960 . S
C1802 C1801 1.524 . S
C1803 C1800 1.403 . S
C1803 C1804 1.392 . S
C1803 C1807 1.495 . S
C1804 C1803 1.392 . S
C1804 C1805 1.385 . S
C1804 C1806 1.478 . S
C1805 H1799 0.930 . S
C1805 C1801 1.400 . S
C1805 C1804 1.385 . S
C1806 C1804 1.478 . S
C1806 C1808 1.381 . S
C1806 C1812 1.383 . S
C1807 C1803 1.495 . S
C1807 H1813 0.959 . S
C1807 H1814 0.961 . S
C1807 H1815 0.960 . S
C1808 C1806 1.381 . S
C1808 C1809 1.394 . S
C1808 H1816 0.930 . S
C1809 C1808 1.394 . S
C1809 C1810 1.383 . S
C1809 H1817 0.929 . S
C1810 C1809 1.383 . S
C1810 C1811 1.377 . S
C1811 H1795 0.930 . S
C1811 C1810 1.377 . S
C1811 C1812 1.379 . S
C1812 H1796 0.931 . S
C1812 C1806 1.383 . S
C1812 C1811 1.379 . S
H1813 C1807 0.959 . S
H1814 C1807 0.961 . S
H1815 C1807 0.960 . S
H1816 C1808 0.930 . S
H1817 C1809 0.929 . S
H1818 C1826 0.929 . S
H1819 C1828 0.930 . S
H1820 C1830 0.930 . S
H1821 C1833 0.929 . S
H1822 C1836 0.930 . S
H1823 C1838 0.960 . S
H1824 C1838 0.960 . S
H1825 C1838 0.960 . S
C1826 H1818 0.929 . S
C1826 C1827 1.377 . S
C1826 C1828 1.384 . S
C1827 C1826 1.377 . S
C1827 C1833 1.390 . S
C1828 H1819 0.930 . S
C1828 C1826 1.384 . S
C1828 C1829 1.372 . S
C1829 C1828 1.372 . S
C1829 C1830 1.400 . S
C1829 C1834 1.490 . S
C1830 H1820 0.930 . S
C1830 C1829 1.400 . S
C1830 C1833 1.386 . S
H1831 C1847 0.930 . S
H1832 C1848 0.931 . S
C1833 H1821 0.929 . S
C1833 C1827 1.390 . S
C1833 C1830 1.386 . S
C1834 C1829 1.490 . S
C1834 C1836 1.395 . S
C1834 C1837 1.403 . S
H1835 C1841 0.930 . S
C1836 H1822 0.930 . S
C1836 C1834 1.395 . S
C1836 C1839 1.403 . S
C1837 C1834 1.403 . S
C1837 C1838 1.524 . S
C1837 C1841 1.400 . S
C1838 H1823 0.960 . S
C1838 H1824 0.960 . S
C1838 H1825 0.960 . S
C1838 C1837 1.524 . S
C1839 C1836 1.403 . S
C1839 C1840 1.392 . S
C1839 C1843 1.495 . S
C1840 C1839 1.392 . S
C1840 C1841 1.385 . S
C1840 C1842 1.478 . S
C1841 H1835 0.930 . S
C1841 C1837 1.400 . S
C1841 C1840 1.385 . S
C1842 C1840 1.478 . S
C1842 C1844 1.381 . S
C1842 C1848 1.383 . S
C1843 C1839 1.495 . S
C1843 H1849 0.959 . S
C1843 H1850 0.961 . S
C1843 H1851 0.960 . S
C1844 C1842 1.381 . S
C1844 C1845 1.394 . S
C1844 H1852 0.930 . S
C1845 C1844 1.394 . S
C1845 C1846 1.383 . S
C1845 H1853 0.929 . S
C1846 C1845 1.383 . S
C1846 C1847 1.377 . S
C1847 H1831 0.930 . S
C1847 C1846 1.377 . S
C1847 C1848 1.379 . S
C1848 H1832 0.931 . S
C1848 C1842 1.383 . S
C1848 C1847 1.379 . S
H1849 C1843 0.959 . S
H1850 C1843 0.961 . S
H1851 C1843 0.960 . S
H1852 C1844 0.930 . S
H1853 C1845 0.929 . S
H1854 C1862 0.929 . S
H1855 C1864 0.930 . S
H1856 C1866 0.930 . S
H1857 C1869 0.929 . S
H1858 C1872 0.930 . S
H1859 C1874 0.960 . S
H1860 C1874 0.960 . S
H1861 C1874 0.960 . S
C1862 H1854 0.929 . S
C1862 C1863 1.377 . S
C1862 C1864 1.384 . S
C1863 C1862 1.377 . S
C1863 C1869 1.390 . S
C1864 H1855 0.930 . S
C1864 C1862 1.384 . S
C1864 C1865 1.372 . S
C1865 C1864 1.372 . S
C1865 C1866 1.400 . S
C1865 C1870 1.490 . S
C1866 H1856 0.930 . S
C1866 C1865 1.400 . S
C1866 C1869 1.386 . S
H1867 C1883 0.930 . S
H1868 C1884 0.931 . S
C1869 H1857 0.929 . S
C1869 C1863 1.390 . S
C1869 C1866 1.386 . S
C1870 C1865 1.490 . S
C1870 C1872 1.395 . S
C1870 C1873 1.403 . S
H1871 C1877 0.930 . S
C1872 H1858 0.930 . S
C1872 C1870 1.395 . S
C1872 C1875 1.403 . S
C1873 C1870 1.403 . S
C1873 C1874 1.524 . S
C1873 C1877 1.400 . S
C1874 H1859 0.960 . S
C1874 H1860 0.960 . S
C1874 H1861 0.960 . S
C1874 C1873 1.524 . S
C1875 C1872 1.403 . S
C1875 C1876 1.392 . S
C1875 C1879 1.495 . S
C1876 C1875 1.392 . S
C1876 C1877 1.385 . S
C1876 C1878 1.478 . S
C1877 H1871 0.930 . S
C1877 C1873 1.400 . S
C1877 C1876 1.385 . S
C1878 C1876 1.478 . S
C1878 C1880 1.381 . S
C1878 C1884 1.383 . S
C1879 C1875 1.495 . S
C1879 H1885 0.959 . S
C1879 H1886 0.961 . S
C1879 H1887 0.960 . S
C1880 C1878 1.381 . S
C1880 C1881 1.394 . S
C1880 H1888 0.930 . S
C1881 C1880 1.394 . S
C1881 C1882 1.383 . S
C1881 H1889 0.929 . S
C1882 C1881 1.383 . S
C1882 C1883 1.377 . S
C1883 H1867 0.930 . S
C1883 C1882 1.377 . S
C1883 C1884 1.379 . S
C1884 H1868 0.931 . S
C1884 C1878 1.383 . S
C1884 C1883 1.379 . S
H1885 C1879 0.959 . S
H1886 C1879 0.961 . S
H1887 C1879 0.960 . S
H1888 C1880 0.930 . S
H1889 C1881 0.929 . S
H1890 C1898 0.929 . S
H1891 C1900 0.930 . S
H1892 C1902 0.930 . S
H1893 C1905 0.929 . S
H1894 C1908 0.930 . S
H1895 C1910 0.960 . S
H1896 C1910 0.960 . S
H1897 C1910 0.960 . S
C1898 H1890 0.929 . S
C1898 C1899 1.377 . S
C1898 C1900 1.384 . S
C1899 C1898 1.377 . S
C1899 C1905 1.390 . S
C1900 H1891 0.930 . S
C1900 C1898 1.384 . S
C1900 C1901 1.372 . S
C1901 C1900 1.372 . S
C1901 C1902 1.400 . S
C1901 C1906 1.490 . S
C1902 H1892 0.930 . S
C1902 C1901 1.400 . S
C1902 C1905 1.386 . S
H1903 C1919 0.930 . S
H1904 C1920 0.931 . S
C1905 H1893 0.929 . S
C1905 C1899 1.390 . S
C1905 C1902 1.386 . S
C1906 C1901 1.490 . S
C1906 C1908 1.395 . S
C1906 C1909 1.403 . S
H1907 C1913 0.930 . S
C1908 H1894 0.930 . S
C1908 C1906 1.395 . S
C1908 C1911 1.403 . S
C1909 C1906 1.403 . S
C1909 C1910 1.524 . S
C1909 C1913 1.400 . S
C1910 H1895 0.960 . S
C1910 H1896 0.960 . S
C1910 H1897 0.960 . S
C1910 C1909 1.524 . S
C1911 C1908 1.403 . S
C1911 C1912 1.392 . S
C1911 C1915 1.495 . S
C1912 C1911 1.392 . S
C1912 C1913 1.385 . S
C1912 C1914 1.478 . S
C1913 H1907 0.930 . S
C1913 C1909 1.400 . S
C1913 C1912 1.385 . S
C1914 C1912 1.478 . S
C1914 C1916 1.381 . S
C1914 C1920 1.383 . S
C1915 C1911 1.495 . S
C1915 H1921 0.959 . S
C1915 H1922 0.961 . S
C1915 H1923 0.960 . S
C1916 C1914 1.381 . S
C1916 C1917 1.394 . S
C1916 H1924 0.930 . S
C1917 C1916 1.394 . S
C1917 C1918 1.383 . S
C1917 H1925 0.929 . S
C1918 C1917 1.383 . S
C1918 C1919 1.377 . S
C1919 H1903 0.930 . S
C1919 C1918 1.377 . S
C1919 C1920 1.379 . S
C1920 H1904 0.931 . S
C1920 C1914 1.383 . S
C1920 C1919 1.379 . S
H1921 C1915 0.959 . S
H1922 C1915 0.961 . S
H1923 C1915 0.960 . S
H1924 C1916 0.930 . S
H1925 C1917 0.929 . S
H1926 C1934 0.929 . S
H1927 C1936 0.930 . S
H1928 C1938 0.930 . S
H1929 C1941 0.929 . S
H1930 C1944 0.930 . S
H1931 C1946 0.960 . S
H1932 C1946 0.960 . S
H1933 C1946 0.960 . S
C1934 H1926 0.929 . S
C1934 C1935 1.377 . S
C1934 C1936 1.384 . S
C1935 C1934 1.377 . S
C1935 C1941 1.390 . S
C1936 H1927 0.930 . S
C1936 C1934 1.384 . S
C1936 C1937 1.372 . S
C1937 C1936 1.372 . S
C1937 C1938 1.400 . S
C1937 C1942 1.490 . S
C1938 H1928 0.930 . S
C1938 C1937 1.400 . S
C1938 C1941 1.386 . S
H1939 C1955 0.930 . S
H1940 C1956 0.931 . S
C1941 H1929 0.929 . S
C1941 C1935 1.390 . S
C1941 C1938 1.386 . S
C1942 C1937 1.490 . S
C1942 C1944 1.395 . S
C1942 C1945 1.403 . S
H1943 C1949 0.930 . S
C1944 H1930 0.930 . S
C1944 C1942 1.395 . S
C1944 C1947 1.403 . S
C1945 C1942 1.403 . S
C1945 C1946 1.524 . S
C1945 C1949 1.400 . S
C1946 H1931 0.960 . S
C1946 H1932 0.960 . S
C1946 H1933 0.960 . S
C1946 C1945 1.524 . S
C1947 C1944 1.403 . S
C1947 C1948 1.392 . S
C1947 C1951 1.495 . S
C1948 C1947 1.392 . S
C1948 C1949 1.385 . S
C1948 C1950 1.478 . S
C1949 H1943 0.930 . S
C1949 C1945 1.400 . S
C1949 C1948 1.385 . S
C1950 C1948 1.478 . S
C1950 C1952 1.381 . S
C1950 C1956 1.383 . S
C1951 C1947 1.495 . S
C1951 H1957 0.959 . S
C1951 H1958 0.961 . S
C1951 H1959 0.960 . S
C1952 C1950 1.381 . S
C1952 C1953 1.394 . S
C1952 H1960 0.930 . S
C1953 C1952 1.394 . S
C1953 C1954 1.383 . S
C1953 H1961 0.929 . S
C1954 C1953 1.383 . S
C1954 C1955 1.377 . S
C1955 H1939 0.930 . S
C1955 C1954 1.377 . S
C1955 C1956 1.379 . S
C1956 H1940 0.931 . S
C1956 C1950 1.383 . S
C1956 C1955 1.379 . S
H1957 C1951 0.959 . S
H1958 C1951 0.961 . S
H1959 C1951 0.960 . S
H1960 C1952 0.930 . S
H1961 C1953 0.929 . S
H1962 C1970 0.929 . S
H1963 C1972 0.930 . S
H1964 C1974 0.930 . S
H1965 C1977 0.929 . S
H1966 C1980 0.930 . S
H1967 C1982 0.960 . S
H1968 C1982 0.960 . S
H1969 C1982 0.960 . S
C1970 H1962 0.929 . S
C1970 C1971 1.377 . S
C1970 C1972 1.384 . S
C1971 C1970 1.377 . S
C1971 C1977 1.390 . S
C1972 H1963 0.930 . S
C1972 C1970 1.384 . S
C1972 C1973 1.372 . S
C1973 C1972 1.372 . S
C1973 C1974 1.400 . S
C1973 C1978 1.490 . S
C1974 H1964 0.930 . S
C1974 C1973 1.400 . S
C1974 C1977 1.386 . S
H1975 C1991 0.930 . S
H1976 C1992 0.931 . S
C1977 H1965 0.929 . S
C1977 C1971 1.390 . S
C1977 C1974 1.386 . S
C1978 C1973 1.490 . S
C1978 C1980 1.395 . S
C1978 C1981 1.403 . S
H1979 C1985 0.930 . S
C1980 H1966 0.930 . S
C1980 C1978 1.395 . S
C1980 C1983 1.403 . S
C1981 C1978 1.403 . S
C1981 C1982 1.524 . S
C1981 C1985 1.400 . S
C1982 H1967 0.960 . S
C1982 H1968 0.960 . S
C1982 H1969 0.960 . S
C1982 C1981 1.524 . S
C1983 C1980 1.403 . S
C1983 C1984 1.392 . S
C1983 C1987 1.495 . S
C1984 C1983 1.392 . S
C1984 C1985 1.385 . S
C1984 C1986 1.478 . S
C1985 H1979 0.930 . S
C1985 C1981 1.400 . S
C1985 C1984 1.385 . S
C1986 C1984 1.478 . S
C1986 C1988 1.381 . S
C1986 C1992 1.383 . S
C1987 C1983 1.495 . S
C1987 H1993 0.959 . S
C1987 H1994 0.961 . S
C1987 H1995 0.960 . S
C1988 C1986 1.381 . S
C1988 C1989 1.394 . S
C1988 H1996 0.930 . S
C1989 C1988 1.394 . S
C1989 C1990 1.383 . S
C1989 H1997 0.929 . S
C1990 C1989 1.383 . S
C1990 C1991 1.377 . S
C1991 H1975 0.930 . S
C1991 C1990 1.377 . S
C1991 C1992 1.379 . S
C1992 H1976 0.931 . S
C1992 C1986 1.383 . S
C1992 C1991 1.379 . S
H1993 C1987 0.959 . S
H1994 C1987 0.961 . S
H1995 C1987 0.960 . S
H1996 C1988 0.930 . S
H1997 C1989 0.929 . S
H1998 C2006 0.929 . S
H1999 C2008 0.930 . S
H2000 C2010 0.930 . S
H2001 C2013 0.929 . S
H2002 C2016 0.930 1_455 S
H2003 C2018 0.960 . S
H2004 C2018 0.960 . S
H2005 C2018 0.960 . S
C2006 H1998 0.929 . S
C2006 C2007 1.377 . S
C2006 C2008 1.384 . S
C2007 C2006 1.377 . S
C2007 C2013 1.390 . S
C2008 H1999 0.930 . S
C2008 C2006 1.384 . S
C2008 C2009 1.372 . S
C2009 C2008 1.372 . S
C2009 C2010 1.400 . S
C2009 C2014 1.490 . S
C2010 H2000 0.930 . S
C2010 C2009 1.400 . S
C2010 C2013 1.386 . S
H2011 C2027 0.930 . S
H2012 C2028 0.931 . S
C2013 H2001 0.929 . S
C2013 C2007 1.390 . S
C2013 C2010 1.386 . S
C2014 C2009 1.490 . S
C2014 C2016 1.395 . S
C2014 C2017 1.403 . S
H2015 C2021 0.930 . S
C2016 H2002 0.930 1_655 S
C2016 C2014 1.395 . S
C2016 C2019 1.403 . S
C2017 C2014 1.403 . S
C2017 C2018 1.524 . S
C2017 C2021 1.400 . S
C2018 H2003 0.960 . S
C2018 H2004 0.960 . S
C2018 H2005 0.960 . S
C2018 C2017 1.524 . S
C2019 C2016 1.403 . S
C2019 C2020 1.392 . S
C2019 C2023 1.495 1_655 S
C2020 C2019 1.392 . S
C2020 C2021 1.385 . S
C2020 C2022 1.478 . S
C2021 H2015 0.930 . S
C2021 C2017 1.400 . S
C2021 C2020 1.385 . S
C2022 C2020 1.478 . S
C2022 C2024 1.381 . S
C2022 C2028 1.383 . S
C2023 C2019 1.495 1_455 S
C2023 H2029 0.959 . S
C2023 H2030 0.961 . S
C2023 H2031 0.960 . S
C2024 C2022 1.381 . S
C2024 C2025 1.394 . S
C2024 H2032 0.930 1_655 S
C2025 C2024 1.394 . S
C2025 C2026 1.383 . S
C2025 H2033 0.929 1_655 S
C2026 C2025 1.383 . S
C2026 C2027 1.377 . S
C2027 H2011 0.930 . S
C2027 C2026 1.377 . S
C2027 C2028 1.379 . S
C2028 H2012 0.931 . S
C2028 C2022 1.383 . S
C2028 C2027 1.379 . S
H2029 C2023 0.959 . S
H2030 C2023 0.961 . S
H2031 C2023 0.960 . S
H2032 C2024 0.930 1_455 S
H2033 C2025 0.929 1_455 S
H2034 C2042 0.929 . S
H2035 C2044 0.930 . S
H2036 C2046 0.930 . S
H2037 C2049 0.929 . S
H2038 C2052 0.930 . S
H2039 C2054 0.960 . S
H2040 C2054 0.960 . S
H2041 C2054 0.960 . S
C2042 H2034 0.929 . S
C2042 C2043 1.377 . S
C2042 C2044 1.384 . S
C2043 C2042 1.377 . S
C2043 C2049 1.390 . S
C2044 H2035 0.930 . S
C2044 C2042 1.384 . S
C2044 C2045 1.372 . S
C2045 C2044 1.372 . S
C2045 C2046 1.400 . S
C2045 C2050 1.490 . S
C2046 H2036 0.930 . S
C2046 C2045 1.400 . S
C2046 C2049 1.386 . S
H2047 C2063 0.930 . S
H2048 C2064 0.931 . S
C2049 H2037 0.929 . S
C2049 C2043 1.390 . S
C2049 C2046 1.386 . S
C2050 C2045 1.490 . S
C2050 C2052 1.395 . S
C2050 C2053 1.403 . S
H2051 C2057 0.930 . S
C2052 H2038 0.930 . S
C2052 C2050 1.395 . S
C2052 C2055 1.403 . S
C2053 C2050 1.403 . S
C2053 C2054 1.524 . S
C2053 C2057 1.400 . S
C2054 H2039 0.960 . S
C2054 H2040 0.960 . S
C2054 H2041 0.960 . S
C2054 C2053 1.524 . S
C2055 C2052 1.403 . S
C2055 C2056 1.392 . S
C2055 C2059 1.495 . S
C2056 C2055 1.392 . S
C2056 C2057 1.385 . S
C2056 C2058 1.478 . S
C2057 H2051 0.930 . S
C2057 C2053 1.400 . S
C2057 C2056 1.385 . S
C2058 C2056 1.478 . S
C2058 C2060 1.381 . S
C2058 C2064 1.383 . S
C2059 C2055 1.495 . S
C2059 H2065 0.959 . S
C2059 H2066 0.961 . S
C2059 H2067 0.960 . S
C2060 C2058 1.381 . S
C2060 C2061 1.394 . S
C2060 H2068 0.930 . S
C2061 C2060 1.394 . S
C2061 C2062 1.383 . S
C2061 H2069 0.929 . S
C2062 C2061 1.383 . S
C2062 C2063 1.377 . S
C2063 H2047 0.930 . S
C2063 C2062 1.377 . S
C2063 C2064 1.379 . S
C2064 H2048 0.931 . S
C2064 C2058 1.383 . S
C2064 C2063 1.379 . S
H2065 C2059 0.959 . S
H2066 C2059 0.961 . S
H2067 C2059 0.960 . S
H2068 C2060 0.930 . S
H2069 C2061 0.929 . S
H2070 C2078 0.929 . S
H2071 C2080 0.930 . S
H2072 C2082 0.930 . S
H2073 C2085 0.929 . S
H2074 C2088 0.930 . S
H2075 C2090 0.960 . S
H2076 C2090 0.960 . S
H2077 C2090 0.960 . S
C2078 H2070 0.929 . S
C2078 C2079 1.377 . S
C2078 C2080 1.384 . S
C2079 C2078 1.377 . S
C2079 C2085 1.390 . S
C2080 H2071 0.930 . S
C2080 C2078 1.384 . S
C2080 C2081 1.372 . S
C2081 C2080 1.372 . S
C2081 C2082 1.400 . S
C2081 C2086 1.490 . S
C2082 H2072 0.930 . S
C2082 C2081 1.400 . S
C2082 C2085 1.386 . S
H2083 C2099 0.930 . S
H2084 C2100 0.931 . S
C2085 H2073 0.929 . S
C2085 C2079 1.390 . S
C2085 C2082 1.386 . S
C2086 C2081 1.490 . S
C2086 C2088 1.395 . S
C2086 C2089 1.403 . S
H2087 C2093 0.930 . S
C2088 H2074 0.930 . S
C2088 C2086 1.395 . S
C2088 C2091 1.403 . S
C2089 C2086 1.403 . S
C2089 C2090 1.524 . S
C2089 C2093 1.400 . S
C2090 H2075 0.960 . S
C2090 H2076 0.960 . S
C2090 H2077 0.960 . S
C2090 C2089 1.524 . S
C2091 C2088 1.403 . S
C2091 C2092 1.392 . S
C2091 C2095 1.495 . S
C2092 C2091 1.392 . S
C2092 C2093 1.385 . S
C2092 C2094 1.478 . S
C2093 H2087 0.930 . S
C2093 C2089 1.400 . S
C2093 C2092 1.385 . S
C2094 C2092 1.478 . S
C2094 C2096 1.381 . S
C2094 C2100 1.383 . S
C2095 C2091 1.495 . S
C2095 H2101 0.959 . S
C2095 H2102 0.961 . S
C2095 H2103 0.960 . S
C2096 C2094 1.381 . S
C2096 C2097 1.394 . S
C2096 H2104 0.930 . S
C2097 C2096 1.394 . S
C2097 C2098 1.383 . S
C2097 H2105 0.929 . S
C2098 C2097 1.383 . S
C2098 C2099 1.377 . S
C2099 H2083 0.930 . S
C2099 C2098 1.377 . S
C2099 C2100 1.379 . S
C2100 H2084 0.931 . S
C2100 C2094 1.383 . S
C2100 C2099 1.379 . S
H2101 C2095 0.959 . S
H2102 C2095 0.961 . S
H2103 C2095 0.960 . S
H2104 C2096 0.930 . S
H2105 C2097 0.929 . S
H2106 C2114 0.929 . S
H2107 C2116 0.930 . S
H2108 C2118 0.930 . S
H2109 C2121 0.929 . S
H2110 C2124 0.930 . S
H2111 C2126 0.960 . S
H2112 C2126 0.960 . S
H2113 C2126 0.960 . S
C2114 H2106 0.929 . S
C2114 C2115 1.377 . S
C2114 C2116 1.384 . S
C2115 C2114 1.377 . S
C2115 C2121 1.390 . S
C2116 H2107 0.930 . S
C2116 C2114 1.384 . S
C2116 C2117 1.372 . S
C2117 C2116 1.372 . S
C2117 C2118 1.400 . S
C2117 C2122 1.490 . S
C2118 H2108 0.930 . S
C2118 C2117 1.400 . S
C2118 C2121 1.386 . S
H2119 C2135 0.930 . S
H2120 C2136 0.931 . S
C2121 H2109 0.929 . S
C2121 C2115 1.390 . S
C2121 C2118 1.386 . S
C2122 C2117 1.490 . S
C2122 C2124 1.395 . S
C2122 C2125 1.403 . S
H2123 C2129 0.930 . S
C2124 H2110 0.930 . S
C2124 C2122 1.395 . S
C2124 C2127 1.403 . S
C2125 C2122 1.403 . S
C2125 C2126 1.524 . S
C2125 C2129 1.400 . S
C2126 H2111 0.960 . S
C2126 H2112 0.960 . S
C2126 H2113 0.960 . S
C2126 C2125 1.524 . S
C2127 C2124 1.403 . S
C2127 C2128 1.392 . S
C2127 C2131 1.495 . S
C2128 C2127 1.392 . S
C2128 C2129 1.385 . S
C2128 C2130 1.478 . S
C2129 H2123 0.930 . S
C2129 C2125 1.400 . S
C2129 C2128 1.385 . S
C2130 C2128 1.478 . S
C2130 C2132 1.381 . S
C2130 C2136 1.383 . S
C2131 C2127 1.495 . S
C2131 H2137 0.959 . S
C2131 H2138 0.961 . S
C2131 H2139 0.960 . S
C2132 C2130 1.381 . S
C2132 C2133 1.394 . S
C2132 H2140 0.930 . S
C2133 C2132 1.394 . S
C2133 C2134 1.383 . S
C2133 H2141 0.929 . S
C2134 C2133 1.383 . S
C2134 C2135 1.377 . S
C2135 H2119 0.930 . S
C2135 C2134 1.377 . S
C2135 C2136 1.379 . S
C2136 H2120 0.931 . S
C2136 C2130 1.383 . S
C2136 C2135 1.379 . S
H2137 C2131 0.959 . S
H2138 C2131 0.961 . S
H2139 C2131 0.960 . S
H2140 C2132 0.930 . S
H2141 C2133 0.929 . S
H2142 C2150 0.929 . S
H2143 C2152 0.930 . S
H2144 C2154 0.930 . S
H2145 C2157 0.929 . S
H2146 C2160 0.930 . S
H2147 C2162 0.960 . S
H2148 C2162 0.960 . S
H2149 C2162 0.960 . S
C2150 H2142 0.929 . S
C2150 C2151 1.377 . S
C2150 C2152 1.384 . S
C2151 C2150 1.377 . S
C2151 C2157 1.390 . S
C2152 H2143 0.930 . S
C2152 C2150 1.384 . S
C2152 C2153 1.372 . S
C2153 C2152 1.372 . S
C2153 C2154 1.400 . S
C2153 C2158 1.490 . S
C2154 H2144 0.930 . S
C2154 C2153 1.400 . S
C2154 C2157 1.386 . S
H2155 C2171 0.930 . S
H2156 C2172 0.931 . S
C2157 H2145 0.929 . S
C2157 C2151 1.390 . S
C2157 C2154 1.386 . S
C2158 C2153 1.490 . S
C2158 C2160 1.395 . S
C2158 C2161 1.403 . S
H2159 C2165 0.930 . S
C2160 H2146 0.930 . S
C2160 C2158 1.395 . S
C2160 C2163 1.403 . S
C2161 C2158 1.403 . S
C2161 C2162 1.524 . S
C2161 C2165 1.400 . S
C2162 H2147 0.960 . S
C2162 H2148 0.960 . S
C2162 H2149 0.960 . S
C2162 C2161 1.524 . S
C2163 C2160 1.403 . S
C2163 C2164 1.392 . S
C2163 C2167 1.495 . S
C2164 C2163 1.392 . S
C2164 C2165 1.385 . S
C2164 C2166 1.478 . S
C2165 H2159 0.930 . S
C2165 C2161 1.400 . S
C2165 C2164 1.385 . S
C2166 C2164 1.478 . S
C2166 C2168 1.381 . S
C2166 C2172 1.383 . S
C2167 C2163 1.495 . S
C2167 H2173 0.959 . S
C2167 H2174 0.961 . S
C2167 H2175 0.960 . S
C2168 C2166 1.381 . S
C2168 C2169 1.394 . S
C2168 H2176 0.930 . S
C2169 C2168 1.394 . S
C2169 C2170 1.383 . S
C2169 H2177 0.929 . S
C2170 C2169 1.383 . S
C2170 C2171 1.377 . S
C2171 H2155 0.930 . S
C2171 C2170 1.377 . S
C2171 C2172 1.379 . S
C2172 H2156 0.931 . S
C2172 C2166 1.383 . S
C2172 C2171 1.379 . S
H2173 C2167 0.959 . S
H2174 C2167 0.961 . S
H2175 C2167 0.960 . S
H2176 C2168 0.930 . S
H2177 C2169 0.929 . S
H2178 C2186 0.929 . S
H2179 C2188 0.930 . S
H2180 C2190 0.930 . S
H2181 C2193 0.929 . S
H2182 C2196 0.930 . S
H2183 C2198 0.960 . S
H2184 C2198 0.960 . S
H2185 C2198 0.960 . S
C2186 H2178 0.929 . S
C2186 C2187 1.377 . S
C2186 C2188 1.384 . S
C2187 C2186 1.377 . S
C2187 C2193 1.390 . S
C2188 H2179 0.930 . S
C2188 C2186 1.384 . S
C2188 C2189 1.372 . S
C2189 C2188 1.372 . S
C2189 C2190 1.400 . S
C2189 C2194 1.490 . S
C2190 H2180 0.930 . S
C2190 C2189 1.400 . S
C2190 C2193 1.386 . S
H2191 C2207 0.930 . S
H2192 C2208 0.931 . S
C2193 H2181 0.929 . S
C2193 C2187 1.390 . S
C2193 C2190 1.386 . S
C2194 C2189 1.490 . S
C2194 C2196 1.395 . S
C2194 C2197 1.403 . S
H2195 C2201 0.930 . S
C2196 H2182 0.930 . S
C2196 C2194 1.395 . S
C2196 C2199 1.403 . S
C2197 C2194 1.403 . S
C2197 C2198 1.524 . S
C2197 C2201 1.400 . S
C2198 H2183 0.960 . S
C2198 H2184 0.960 . S
C2198 H2185 0.960 . S
C2198 C2197 1.524 . S
C2199 C2196 1.403 . S
C2199 C2200 1.392 . S
C2199 C2203 1.495 . S
C2200 C2199 1.392 . S
C2200 C2201 1.385 . S
C2200 C2202 1.478 . S
C2201 H2195 0.930 . S
C2201 C2197 1.400 . S
C2201 C2200 1.385 . S
C2202 C2200 1.478 . S
C2202 C2204 1.381 . S
C2202 C2208 1.383 . S
C2203 C2199 1.495 . S
C2203 H2209 0.959 . S
C2203 H2210 0.961 . S
C2203 H2211 0.960 . S
C2204 C2202 1.381 . S
C2204 C2205 1.394 . S
C2204 H2212 0.930 . S
C2205 C2204 1.394 . S
C2205 C2206 1.383 . S
C2205 H2213 0.929 . S
C2206 C2205 1.383 . S
C2206 C2207 1.377 . S
C2207 H2191 0.930 . S
C2207 C2206 1.377 . S
C2207 C2208 1.379 . S
C2208 H2192 0.931 . S
C2208 C2202 1.383 . S
C2208 C2207 1.379 . S
H2209 C2203 0.959 . S
H2210 C2203 0.961 . S
H2211 C2203 0.960 . S
H2212 C2204 0.930 . S
H2213 C2205 0.929 . S
H2214 C2222 0.929 . S
H2215 C2224 0.930 . S
H2216 C2226 0.930 . S
H2217 C2229 0.929 . S
H2218 C2232 0.930 . S
H2219 C2234 0.960 . S
H2220 C2234 0.960 . S
H2221 C2234 0.960 . S
C2222 H2214 0.929 . S
C2222 C2223 1.377 . S
C2222 C2224 1.384 . S
C2223 C2222 1.377 . S
C2223 C2229 1.390 . S
C2224 H2215 0.930 . S
C2224 C2222 1.384 . S
C2224 C2225 1.372 . S
C2225 C2224 1.372 . S
C2225 C2226 1.400 . S
C2225 C2230 1.490 . S
C2226 H2216 0.930 . S
C2226 C2225 1.400 . S
C2226 C2229 1.386 . S
H2227 C2243 0.930 . S
H2228 C2244 0.931 . S
C2229 H2217 0.929 . S
C2229 C2223 1.390 . S
C2229 C2226 1.386 . S
C2230 C2225 1.490 . S
C2230 C2232 1.395 . S
C2230 C2233 1.403 . S
H2231 C2237 0.930 . S
C2232 H2218 0.930 . S
C2232 C2230 1.395 . S
C2232 C2235 1.403 . S
C2233 C2230 1.403 . S
C2233 C2234 1.524 . S
C2233 C2237 1.400 . S
C2234 H2219 0.960 . S
C2234 H2220 0.960 . S
C2234 H2221 0.960 . S
C2234 C2233 1.524 . S
C2235 C2232 1.403 . S
C2235 C2236 1.392 . S
C2235 C2239 1.495 . S
C2236 C2235 1.392 . S
C2236 C2237 1.385 . S
C2236 C2238 1.478 . S
C2237 H2231 0.930 . S
C2237 C2233 1.400 . S
C2237 C2236 1.385 . S
C2238 C2236 1.478 . S
C2238 C2240 1.381 . S
C2238 C2244 1.383 . S
C2239 C2235 1.495 . S
C2239 H2245 0.959 . S
C2239 H2246 0.961 . S
C2239 H2247 0.960 . S
C2240 C2238 1.381 . S
C2240 C2241 1.394 . S
C2240 H2248 0.930 . S
C2241 C2240 1.394 . S
C2241 C2242 1.383 . S
C2241 H2249 0.929 . S
C2242 C2241 1.383 . S
C2242 C2243 1.377 . S
C2243 H2227 0.930 . S
C2243 C2242 1.377 . S
C2243 C2244 1.379 . S
C2244 H2228 0.931 . S
C2244 C2238 1.383 . S
C2244 C2243 1.379 . S
H2245 C2239 0.959 . S
H2246 C2239 0.961 . S
H2247 C2239 0.960 . S
H2248 C2240 0.930 . S
H2249 C2241 0.929 . S
H2250 C2258 0.929 . S
H2251 C2260 0.930 . S
H2252 C2262 0.930 . S
H2253 C2265 0.929 . S
H2254 C2268 0.930 . S
H2255 C2270 0.960 . S
H2256 C2270 0.960 . S
H2257 C2270 0.960 . S
C2258 H2250 0.929 . S
C2258 C2259 1.377 . S
C2258 C2260 1.384 . S
C2259 C2258 1.377 . S
C2259 C2265 1.390 . S
C2260 H2251 0.930 . S
C2260 C2258 1.384 . S
C2260 C2261 1.372 . S
C2261 C2260 1.372 . S
C2261 C2262 1.400 . S
C2261 C2266 1.490 . S
C2262 H2252 0.930 . S
C2262 C2261 1.400 . S
C2262 C2265 1.386 . S
H2263 C2279 0.930 . S
H2264 C2280 0.931 . S
C2265 H2253 0.929 . S
C2265 C2259 1.390 . S
C2265 C2262 1.386 . S
C2266 C2261 1.490 . S
C2266 C2268 1.395 . S
C2266 C2269 1.403 . S
H2267 C2273 0.930 . S
C2268 H2254 0.930 . S
C2268 C2266 1.395 . S
C2268 C2271 1.403 . S
C2269 C2266 1.403 . S
C2269 C2270 1.524 . S
C2269 C2273 1.400 . S
C2270 H2255 0.960 . S
C2270 H2256 0.960 . S
C2270 H2257 0.960 . S
C2270 C2269 1.524 . S
C2271 C2268 1.403 . S
C2271 C2272 1.392 . S
C2271 C2275 1.495 . S
C2272 C2271 1.392 . S
C2272 C2273 1.385 . S
C2272 C2274 1.478 . S
C2273 H2267 0.930 . S
C2273 C2269 1.400 . S
C2273 C2272 1.385 . S
C2274 C2272 1.478 . S
C2274 C2276 1.381 . S
C2274 C2280 1.383 . S
C2275 C2271 1.495 . S
C2275 H2281 0.959 . S
C2275 H2282 0.961 . S
C2275 H2283 0.960 . S
C2276 C2274 1.381 . S
C2276 C2277 1.394 . S
C2276 H2284 0.930 . S
C2277 C2276 1.394 . S
C2277 C2278 1.383 . S
C2277 H2285 0.929 . S
C2278 C2277 1.383 . S
C2278 C2279 1.377 . S
C2279 H2263 0.930 . S
C2279 C2278 1.377 . S
C2279 C2280 1.379 . S
C2280 H2264 0.931 . S
C2280 C2274 1.383 . S
C2280 C2279 1.379 . S
H2281 C2275 0.959 . S
H2282 C2275 0.961 . S
H2283 C2275 0.960 . S
H2284 C2276 0.930 . S
H2285 C2277 0.929 . S
H2286 C2294 0.929 . S
H2287 C2296 0.930 . S
H2288 C2298 0.930 . S
H2289 C2301 0.929 . S
H2290 C2304 0.930 . S
H2291 C2306 0.960 . S
H2292 C2306 0.960 . S
H2293 C2306 0.960 . S
C2294 H2286 0.929 . S
C2294 C2295 1.377 . S
C2294 C2296 1.384 . S
C2295 C2294 1.377 . S
C2295 C2301 1.390 . S
C2296 H2287 0.930 . S
C2296 C2294 1.384 . S
C2296 C2297 1.372 . S
C2297 C2296 1.372 . S
C2297 C2298 1.400 . S
C2297 C2302 1.490 . S
C2298 H2288 0.930 . S
C2298 C2297 1.400 . S
C2298 C2301 1.386 . S
H2299 C2315 0.930 . S
H2300 C2316 0.931 . S
C2301 H2289 0.929 . S
C2301 C2295 1.390 . S
C2301 C2298 1.386 . S
C2302 C2297 1.490 . S
C2302 C2304 1.395 . S
C2302 C2305 1.403 . S
H2303 C2309 0.930 . S
C2304 H2290 0.930 . S
C2304 C2302 1.395 . S
C2304 C2307 1.403 . S
C2305 C2302 1.403 . S
C2305 C2306 1.524 . S
C2305 C2309 1.400 . S
C2306 H2291 0.960 . S
C2306 H2292 0.960 . S
C2306 H2293 0.960 . S
C2306 C2305 1.524 . S
C2307 C2304 1.403 . S
C2307 C2308 1.392 . S
C2307 C2311 1.495 . S
C2308 C2307 1.392 . S
C2308 C2309 1.385 . S
C2308 C2310 1.478 . S
C2309 H2303 0.930 . S
C2309 C2305 1.400 . S
C2309 C2308 1.385 . S
C2310 C2308 1.478 . S
C2310 C2312 1.381 . S
C2310 C2316 1.383 . S
C2311 C2307 1.495 . S
C2311 H2317 0.959 . S
C2311 H2318 0.961 . S
C2311 H2319 0.960 . S
C2312 C2310 1.381 . S
C2312 C2313 1.394 . S
C2312 H2320 0.930 . S
C2313 C2312 1.394 . S
C2313 C2314 1.383 . S
C2313 H2321 0.929 . S
C2314 C2313 1.383 . S
C2314 C2315 1.377 . S
C2315 H2299 0.930 . S
C2315 C2314 1.377 . S
C2315 C2316 1.379 . S
C2316 H2300 0.931 . S
C2316 C2310 1.383 . S
C2316 C2315 1.379 . S
H2317 C2311 0.959 . S
H2318 C2311 0.961 . S
H2319 C2311 0.960 . S
H2320 C2312 0.930 . S
H2321 C2313 0.929 . S
H2322 C2330 0.929 . S
H2323 C2332 0.930 . S
H2324 C2334 0.930 . S
H2325 C2337 0.929 . S
H2326 C2340 0.930 . S
H2327 C2342 0.960 . S
H2328 C2342 0.960 . S
H2329 C2342 0.960 . S
C2330 H2322 0.929 . S
C2330 C2331 1.377 . S
C2330 C2332 1.384 . S
C2331 C2330 1.377 . S
C2331 C2337 1.390 . S
C2332 H2323 0.930 . S
C2332 C2330 1.384 . S
C2332 C2333 1.372 . S
C2333 C2332 1.372 . S
C2333 C2334 1.400 . S
C2333 C2338 1.490 . S
C2334 H2324 0.930 . S
C2334 C2333 1.400 . S
C2334 C2337 1.386 . S
H2335 C2351 0.930 . S
H2336 C2352 0.931 . S
C2337 H2325 0.929 . S
C2337 C2331 1.390 . S
C2337 C2334 1.386 . S
C2338 C2333 1.490 . S
C2338 C2340 1.395 . S
C2338 C2341 1.403 . S
H2339 C2345 0.930 . S
C2340 H2326 0.930 . S
C2340 C2338 1.395 . S
C2340 C2343 1.403 . S
C2341 C2338 1.403 . S
C2341 C2342 1.524 . S
C2341 C2345 1.400 . S
C2342 H2327 0.960 . S
C2342 H2328 0.960 . S
C2342 H2329 0.960 . S
C2342 C2341 1.524 . S
C2343 C2340 1.403 . S
C2343 C2344 1.392 . S
C2343 C2347 1.495 . S
C2344 C2343 1.392 . S
C2344 C2345 1.385 . S
C2344 C2346 1.478 . S
C2345 H2339 0.930 . S
C2345 C2341 1.400 . S
C2345 C2344 1.385 . S
C2346 C2344 1.478 . S
C2346 C2348 1.381 . S
C2346 C2352 1.383 . S
C2347 C2343 1.495 . S
C2347 H2353 0.959 . S
C2347 H2354 0.961 . S
C2347 H2355 0.960 . S
C2348 C2346 1.381 . S
C2348 C2349 1.394 . S
C2348 H2356 0.930 . S
C2349 C2348 1.394 . S
C2349 C2350 1.383 . S
C2349 H2357 0.929 . S
C2350 C2349 1.383 . S
C2350 C2351 1.377 . S
C2351 H2335 0.930 . S
C2351 C2350 1.377 . S
C2351 C2352 1.379 . S
C2352 H2336 0.931 . S
C2352 C2346 1.383 . S
C2352 C2351 1.379 . S
H2353 C2347 0.959 . S
H2354 C2347 0.961 . S
H2355 C2347 0.960 . S
H2356 C2348 0.930 . S
H2357 C2349 0.929 . S
H2358 C2366 0.929 . S
H2359 C2368 0.930 . S
H2360 C2370 0.930 . S
H2361 C2373 0.929 . S
H2362 C2376 0.930 . S
H2363 C2378 0.960 . S
H2364 C2378 0.960 . S
H2365 C2378 0.960 . S
C2366 H2358 0.929 . S
C2366 C2367 1.377 . S
C2366 C2368 1.384 . S
C2367 C2366 1.377 . S
C2367 C2373 1.390 . S
C2368 H2359 0.930 . S
C2368 C2366 1.384 . S
C2368 C2369 1.372 . S
C2369 C2368 1.372 . S
C2369 C2370 1.400 . S
C2369 C2374 1.490 . S
C2370 H2360 0.930 . S
C2370 C2369 1.400 . S
C2370 C2373 1.386 . S
H2371 C2387 0.930 . S
H2372 C2388 0.931 . S
C2373 H2361 0.929 . S
C2373 C2367 1.390 . S
C2373 C2370 1.386 . S
C2374 C2369 1.490 . S
C2374 C2376 1.395 . S
C2374 C2377 1.403 . S
H2375 C2381 0.930 . S
C2376 H2362 0.930 . S
C2376 C2374 1.395 . S
C2376 C2379 1.403 . S
C2377 C2374 1.403 . S
C2377 C2378 1.524 . S
C2377 C2381 1.400 . S
C2378 H2363 0.960 . S
C2378 H2364 0.960 . S
C2378 H2365 0.960 . S
C2378 C2377 1.524 . S
C2379 C2376 1.403 . S
C2379 C2380 1.392 . S
C2379 C2383 1.495 . S
C2380 C2379 1.392 . S
C2380 C2381 1.385 . S
C2380 C2382 1.478 . S
C2381 H2375 0.930 . S
C2381 C2377 1.400 . S
C2381 C2380 1.385 . S
C2382 C2380 1.478 . S
C2382 C2384 1.381 . S
C2382 C2388 1.383 . S
C2383 C2379 1.495 . S
C2383 H2389 0.959 . S
C2383 H2390 0.961 . S
C2383 H2391 0.960 . S
C2384 C2382 1.381 . S
C2384 C2385 1.394 . S
C2384 H2392 0.930 . S
C2385 C2384 1.394 . S
C2385 C2386 1.383 . S
C2385 H2393 0.929 . S
C2386 C2385 1.383 . S
C2386 C2387 1.377 . S
C2387 H2371 0.930 . S
C2387 C2386 1.377 . S
C2387 C2388 1.379 . S
C2388 H2372 0.931 . S
C2388 C2382 1.383 . S
C2388 C2387 1.379 . S
H2389 C2383 0.959 . S
H2390 C2383 0.961 . S
H2391 C2383 0.960 . S
H2392 C2384 0.930 . S
H2393 C2385 0.929 . S
H2394 C2402 0.929 . S
H2395 C2404 0.930 . S
H2396 C2406 0.930 . S
H2397 C2409 0.929 . S
H2398 C2412 0.930 . S
H2399 C2414 0.960 . S
H2400 C2414 0.960 . S
H2401 C2414 0.960 . S
C2402 H2394 0.929 . S
C2402 C2403 1.377 . S
C2402 C2404 1.384 . S
C2403 C2402 1.377 . S
C2403 C2409 1.390 . S
C2404 H2395 0.930 . S
C2404 C2402 1.384 . S
C2404 C2405 1.372 . S
C2405 C2404 1.372 . S
C2405 C2406 1.400 . S
C2405 C2410 1.490 . S
C2406 H2396 0.930 . S
C2406 C2405 1.400 . S
C2406 C2409 1.386 . S
H2407 C2423 0.930 . S
H2408 C2424 0.931 . S
C2409 H2397 0.929 . S
C2409 C2403 1.390 . S
C2409 C2406 1.386 . S
C2410 C2405 1.490 . S
C2410 C2412 1.395 . S
C2410 C2413 1.403 . S
H2411 C2417 0.930 . S
C2412 H2398 0.930 . S
C2412 C2410 1.395 . S
C2412 C2415 1.403 . S
C2413 C2410 1.403 . S
C2413 C2414 1.524 . S
C2413 C2417 1.400 . S
C2414 H2399 0.960 . S
C2414 H2400 0.960 . S
C2414 H2401 0.960 . S
C2414 C2413 1.524 . S
C2415 C2412 1.403 . S
C2415 C2416 1.392 . S
C2415 C2419 1.495 . S
C2416 C2415 1.392 . S
C2416 C2417 1.385 . S
C2416 C2418 1.478 . S
C2417 H2411 0.930 . S
C2417 C2413 1.400 . S
C2417 C2416 1.385 . S
C2418 C2416 1.478 . S
C2418 C2420 1.381 . S
C2418 C2424 1.383 . S
C2419 C2415 1.495 . S
C2419 H2425 0.959 . S
C2419 H2426 0.961 . S
C2419 H2427 0.960 . S
C2420 C2418 1.381 . S
C2420 C2421 1.394 . S
C2420 H2428 0.930 . S
C2421 C2420 1.394 . S
C2421 C2422 1.383 . S
C2421 H2429 0.929 . S
C2422 C2421 1.383 . S
C2422 C2423 1.377 . S
C2423 H2407 0.930 . S
C2423 C2422 1.377 . S
C2423 C2424 1.379 . S
C2424 H2408 0.931 . S
C2424 C2418 1.383 . S
C2424 C2423 1.379 . S
H2425 C2419 0.959 . S
H2426 C2419 0.961 . S
H2427 C2419 0.960 . S
H2428 C2420 0.930 . S
H2429 C2421 0.929 . S
H2430 C2438 0.929 . S
H2431 C2440 0.930 . S
H2432 C2442 0.930 . S
H2433 C2445 0.929 . S
H2434 C2448 0.930 . S
H2435 C2450 0.960 . S
H2436 C2450 0.960 . S
H2437 C2450 0.960 . S
C2438 H2430 0.929 . S
C2438 C2439 1.377 . S
C2438 C2440 1.384 . S
C2439 C2438 1.377 . S
C2439 C2445 1.390 . S
C2440 H2431 0.930 . S
C2440 C2438 1.384 . S
C2440 C2441 1.372 . S
C2441 C2440 1.372 . S
C2441 C2442 1.400 . S
C2441 C2446 1.490 . S
C2442 H2432 0.930 . S
C2442 C2441 1.400 . S
C2442 C2445 1.386 . S
H2443 C2459 0.930 . S
H2444 C2460 0.931 . S
C2445 H2433 0.929 . S
C2445 C2439 1.390 . S
C2445 C2442 1.386 . S
C2446 C2441 1.490 . S
C2446 C2448 1.395 . S
C2446 C2449 1.403 . S
H2447 C2453 0.930 . S
C2448 H2434 0.930 . S
C2448 C2446 1.395 . S
C2448 C2451 1.403 . S
C2449 C2446 1.403 . S
C2449 C2450 1.524 . S
C2449 C2453 1.400 . S
C2450 H2435 0.960 . S
C2450 H2436 0.960 . S
C2450 H2437 0.960 . S
C2450 C2449 1.524 . S
C2451 C2448 1.403 . S
C2451 C2452 1.392 . S
C2451 C2455 1.495 . S
C2452 C2451 1.392 . S
C2452 C2453 1.385 . S
C2452 C2454 1.478 . S
C2453 H2447 0.930 . S
C2453 C2449 1.400 . S
C2453 C2452 1.385 . S
C2454 C2452 1.478 . S
C2454 C2456 1.381 . S
C2454 C2460 1.383 . S
C2455 C2451 1.495 . S
C2455 H2461 0.959 . S
C2455 H2462 0.961 . S
C2455 H2463 0.960 . S
C2456 C2454 1.381 . S
C2456 C2457 1.394 . S
C2456 H2464 0.930 . S
C2457 C2456 1.394 . S
C2457 C2458 1.383 . S
C2457 H2465 0.929 . S
C2458 C2457 1.383 . S
C2458 C2459 1.377 . S
C2459 H2443 0.930 . S
C2459 C2458 1.377 . S
C2459 C2460 1.379 . S
C2460 H2444 0.931 . S
C2460 C2454 1.383 . S
C2460 C2459 1.379 . S
H2461 C2455 0.959 . S
H2462 C2455 0.961 . S
H2463 C2455 0.960 . S
H2464 C2456 0.930 . S
H2465 C2457 0.929 . S
H2466 C2474 0.929 . S
H2467 C2476 0.930 . S
H2468 C2478 0.930 . S
H2469 C2481 0.929 . S
H2470 C2484 0.930 . S
H2471 C2486 0.960 . S
H2472 C2486 0.960 . S
H2473 C2486 0.960 . S
C2474 H2466 0.929 . S
C2474 C2475 1.377 . S
C2474 C2476 1.384 . S
C2475 C2474 1.377 . S
C2475 C2481 1.390 . S
C2476 H2467 0.930 . S
C2476 C2474 1.384 . S
C2476 C2477 1.372 . S
C2477 C2476 1.372 . S
C2477 C2478 1.400 . S
C2477 C2482 1.490 . S
C2478 H2468 0.930 . S
C2478 C2477 1.400 . S
C2478 C2481 1.386 . S
H2479 C2495 0.930 . S
H2480 C2496 0.931 . S
C2481 H2469 0.929 . S
C2481 C2475 1.390 . S
C2481 C2478 1.386 . S
C2482 C2477 1.490 . S
C2482 C2484 1.395 . S
C2482 C2485 1.403 . S
H2483 C2489 0.930 . S
C2484 H2470 0.930 . S
C2484 C2482 1.395 . S
C2484 C2487 1.403 . S
C2485 C2482 1.403 . S
C2485 C2486 1.524 . S
C2485 C2489 1.400 . S
C2486 H2471 0.960 . S
C2486 H2472 0.960 . S
C2486 H2473 0.960 . S
C2486 C2485 1.524 . S
C2487 C2484 1.403 . S
C2487 C2488 1.392 . S
C2487 C2491 1.495 . S
C2488 C2487 1.392 . S
C2488 C2489 1.385 . S
C2488 C2490 1.478 . S
C2489 H2483 0.930 . S
C2489 C2485 1.400 . S
C2489 C2488 1.385 . S
C2490 C2488 1.478 . S
C2490 C2492 1.381 . S
C2490 C2496 1.383 . S
C2491 C2487 1.495 . S
C2491 H2497 0.959 . S
C2491 H2498 0.961 . S
C2491 H2499 0.960 . S
C2492 C2490 1.381 . S
C2492 C2493 1.394 . S
C2492 H2500 0.930 . S
C2493 C2492 1.394 . S
C2493 C2494 1.383 . S
C2493 H2501 0.929 . S
C2494 C2493 1.383 . S
C2494 C2495 1.377 . S
C2495 H2479 0.930 . S
C2495 C2494 1.377 . S
C2495 C2496 1.379 . S
C2496 H2480 0.931 . S
C2496 C2490 1.383 . S
C2496 C2495 1.379 . S
H2497 C2491 0.959 . S
H2498 C2491 0.961 . S
H2499 C2491 0.960 . S
H2500 C2492 0.930 . S
H2501 C2493 0.929 . S
H2502 C2510 0.929 . S
H2503 C2512 0.930 . S
H2504 C2514 0.930 . S
H2505 C2517 0.929 . S
H2506 C2520 0.930 . S
H2507 C2522 0.960 . S
H2508 C2522 0.960 . S
H2509 C2522 0.960 . S
C2510 H2502 0.929 . S
C2510 C2511 1.377 . S
C2510 C2512 1.384 . S
C2511 C2510 1.377 . S
C2511 C2517 1.390 . S
C2512 H2503 0.930 . S
C2512 C2510 1.384 . S
C2512 C2513 1.372 . S
C2513 C2512 1.372 . S
C2513 C2514 1.400 . S
C2513 C2518 1.490 . S
C2514 H2504 0.930 . S
C2514 C2513 1.400 . S
C2514 C2517 1.386 . S
H2515 C2531 0.930 . S
H2516 C2532 0.931 . S
C2517 H2505 0.929 . S
C2517 C2511 1.390 . S
C2517 C2514 1.386 . S
C2518 C2513 1.490 . S
C2518 C2520 1.395 . S
C2518 C2521 1.403 . S
H2519 C2525 0.930 . S
C2520 H2506 0.930 . S
C2520 C2518 1.395 . S
C2520 C2523 1.403 . S
C2521 C2518 1.403 . S
C2521 C2522 1.524 . S
C2521 C2525 1.400 . S
C2522 H2507 0.960 . S
C2522 H2508 0.960 . S
C2522 H2509 0.960 . S
C2522 C2521 1.524 . S
C2523 C2520 1.403 . S
C2523 C2524 1.392 . S
C2523 C2527 1.495 . S
C2524 C2523 1.392 . S
C2524 C2525 1.385 . S
C2524 C2526 1.478 . S
C2525 H2519 0.930 . S
C2525 C2521 1.400 . S
C2525 C2524 1.385 . S
C2526 C2524 1.478 . S
C2526 C2528 1.381 . S
C2526 C2532 1.383 . S
C2527 C2523 1.495 . S
C2527 H2533 0.959 . S
C2527 H2534 0.961 . S
C2527 H2535 0.960 . S
C2528 C2526 1.381 . S
C2528 C2529 1.394 . S
C2528 H2536 0.930 . S
C2529 C2528 1.394 . S
C2529 C2530 1.383 . S
C2529 H2537 0.929 . S
C2530 C2529 1.383 . S
C2530 C2531 1.377 . S
C2531 H2515 0.930 . S
C2531 C2530 1.377 . S
C2531 C2532 1.379 . S
C2532 H2516 0.931 . S
C2532 C2526 1.383 . S
C2532 C2531 1.379 . S
H2533 C2527 0.959 . S
H2534 C2527 0.961 . S
H2535 C2527 0.960 . S
H2536 C2528 0.930 . S
H2537 C2529 0.929 . S
C603 N170 2.187 . S
C622 C243 2.184 . S
C639 N184 1.075 . S
C658 C283 1.071 . S
C675 N158 1.694 . S
C694 C322 1.646 . S
C711 N145 1.551 . S
C730 C282 1.500 1_556 S
C766 C323 0.685 . S
C747 N119 0.705 . S
C783 N131 1.892 . S
C802 C242 1.914 . S
C838 C253 1.790 1_556 S
C819 N144 1.801 . S
C874 C293 1.660 . S
C855 N118 1.685 . S
C891 N132 1.563 . S
C910 C332 1.550 . S
C927 N171 1.457 . S
C946 C292 1.462 . S
C963 N183 1.287 . S
C982 C333 1.270 . S
C1018 C252 1.413 . S
C999 N157 1.456 . S
C1054 C363 2.207 . S
C1035 N14 2.191 . S
C1071 N28 1.075 . S
C1090 C403 1.077 . S
C1107 N2 1.699 . S
C1126 C442 1.686 . S
C1143 N223 1.553 . S
C1162 C402 1.516 . S
C1179 N197 0.706 . S
C1198 C443 0.732 . S
C1215 N209 1.889 . S
C1234 C362 1.902 . S
C1251 N222 1.803 . S
C1270 C373 1.777 . S
C1287 N196 1.686 . S
C1306 C413 1.665 . S
C1342 C452 1.559 . S
C1323 N210 1.562 . S
C1359 N15 1.461 . S
C1378 C412 1.420 . S
C1414 C453 1.288 . S
C1395 N27 1.284 . S
C1431 N1 1.454 . S
C1450 C372 1.427 . S
C1486 C483 2.210 . S
C1467 N92 2.193 . S
C1503 N106 1.072 . S
C1522 C523 1.077 . S
C1558 C562 1.676 . S
C1539 N80 1.698 . S
C1594 C522 1.537 . S
C1575 N67 1.555 . S
C1630 C563 0.714 . S
C1611 N41 0.706 . S
C1647 N53 1.892 . S
C1666 C482 1.892 . S
C1683 N66 1.803 . S
C1702 C493 1.799 . S
C1719 N40 1.686 . S
C1738 C533 1.655 . S
C1774 C572 1.563 . S
C1755 N54 1.565 . S
C1791 N93 1.461 . S
C1810 C532 1.436 . S
C1827 N105 1.285 . S
C1846 C573 1.278 . S
C1863 N79 1.454 . S
C1882 C492 1.434 . S
C1899 N200 0.888 . S
C1918 C239 0.892 . S
C1954 C279 2.148 . S
C1935 N213 2.112 . S
C1971 N226 1.574 . S
C1990 C329 1.598 . S
C2007 N83 1.825 . S
C2026 C289 1.837 . S
C2043 N96 1.902 . S
C2062 C319 1.940 . S
C2098 C249 1.019 . S
C2079 N109 1.025 . S
C2115 N44 0.882 . S
C2134 C359 0.889 . S
C2151 N57 2.109 . S
C2170 C399 2.148 . S
C2187 N70 1.573 . S
C2206 C449 1.595 . S
C2223 N161 1.827 . S
C2242 C409 1.844 . S
C2278 C439 1.940 . S
C2259 N174 1.903 . S
C2295 N187 1.016 . S
C2314 C369 1.030 . S
C2331 N122 0.882 . S
C2350 C479 0.889 . S
C2367 N135 2.110 . S
C2386 C519 2.146 . S
C2422 C569 1.600 . S
C2403 N148 1.575 . S
C2439 N5 1.825 . S
C2458 C529 1.834 . S
C2475 N18 1.897 . S
C2494 C559 1.942 . S
C2511 N31 1.023 . S
C2530 C489 1.003 . S
