# Generated by pormake.
# Topology llj, (12,3)-cn, num edge types: 1
# Building blocks:
#     Node 0, Type 0, BuildingBlock: QEWDON_clean_sbu_0, # of connection points: 12
#     Node 1, Type 0, BuildingBlock: QEWDON_clean_sbu_0, # of connection points: 12
#     Node 2, Type 1, BuildingBlock: ESEHIV_clean_linker_0, # of connection points: 3
#     Node 3, Type 1, BuildingBlock: ESEHIV_clean_linker_0, # of connection points: 3
#     Node 4, Type 1, BuildingBlock: ESEHIV_clean_linker_0, # of connection points: 3
#     Node 5, Type 1, BuildingBlock: ESEHIV_clean_linker_0, # of connection points: 3
#     Node 6, Type 1, BuildingBlock: ESEHIV_clean_linker_0, # of connection points: 3
#     Node 7, Type 1, BuildingBlock: ESEHIV_clean_linker_0, # of connection points: 3
#     Node 8, Type 1, BuildingBlock: ESEHIV_clean_linker_0, # of connection points: 3
#     Node 9, Type 1, BuildingBlock: ESEHIV_clean_linker_0, # of connection points: 3
#     Edge 10, Type (0, 1), BuildingBlock: CIFDUS_clean_linker_0, # of connection points: 2
#     Edge 11, Type (0, 1), BuildingBlock: CIFDUS_clean_linker_0, # of connection points: 2
#     Edge 12, Type (0, 1), BuildingBlock: CIFDUS_clean_linker_0, # of connection points: 2
#     Edge 13, Type (0, 1), BuildingBlock: CIFDUS_clean_linker_0, # of connection points: 2
#     Edge 14, Type (0, 1), BuildingBlock: CIFDUS_clean_linker_0, # of connection points: 2
#     Edge 15, Type (0, 1), BuildingBlock: CIFDUS_clean_linker_0, # of connection points: 2
#     Edge 16, Type (0, 1), BuildingBlock: CIFDUS_clean_linker_0, # of connection points: 2
#     Edge 17, Type (0, 1), BuildingBlock: CIFDUS_clean_linker_0, # of connection points: 2
#     Edge 18, Type (0, 1), BuildingBlock: CIFDUS_clean_linker_0, # of connection points: 2
#     Edge 19, Type (0, 1), BuildingBlock: CIFDUS_clean_linker_0, # of connection points: 2
#     Edge 20, Type (0, 1), BuildingBlock: CIFDUS_clean_linker_0, # of connection points: 2
#     Edge 21, Type (0, 1), BuildingBlock: CIFDUS_clean_linker_0, # of connection points: 2
#     Edge 22, Type (0, 1), BuildingBlock: CIFDUS_clean_linker_0, # of connection points: 2
#     Edge 23, Type (0, 1), BuildingBlock: CIFDUS_clean_linker_0, # of connection points: 2
#     Edge 24, Type (0, 1), BuildingBlock: CIFDUS_clean_linker_0, # of connection points: 2
#     Edge 25, Type (0, 1), BuildingBlock: CIFDUS_clean_linker_0, # of connection points: 2
#     Edge 26, Type (0, 1), BuildingBlock: CIFDUS_clean_linker_0, # of connection points: 2
#     Edge 27, Type (0, 1), BuildingBlock: CIFDUS_clean_linker_0, # of connection points: 2
#     Edge 28, Type (0, 1), BuildingBlock: CIFDUS_clean_linker_0, # of connection points: 2
#     Edge 29, Type (0, 1), BuildingBlock: CIFDUS_clean_linker_0, # of connection points: 2
#     Edge 30, Type (0, 1), BuildingBlock: CIFDUS_clean_linker_0, # of connection points: 2
#     Edge 31, Type (0, 1), BuildingBlock: CIFDUS_clean_linker_0, # of connection points: 2
#     Edge 32, Type (0, 1), BuildingBlock: CIFDUS_clean_linker_0, # of connection points: 2
#     Edge 33, Type (0, 1), BuildingBlock: CIFDUS_clean_linker_0, # of connection points: 2
# Relax obj value: 0.011
# Max RMSD: 0.057
# Mean RMSD: 0.052
data_MOF--net-llj--node1-QEWDON_clean_sbu_0--node2-ESEHIV_clean_linker_0--edge1-CIFDUS_clean_linker_0
_symmetry_space_group_name_H-M    P1
_symmetry_Int_Tables_number       1
_symmetry_cell_setting            triclinic
loop_
_symmetry_equiv_pos_as_xyz
'x, y, z'
_cell_length_a     31.735945
_cell_length_b     31.71733
_cell_length_c     22.027864
_cell_angle_alpha  90.190924
_cell_angle_beta   89.850266
_cell_angle_gamma 89.970906
loop_
_atom_site_label
_atom_site_type_symbol
_atom_site_fract_x
_atom_site_fract_y
_atom_site_fract_z
_atom_type_partial_charge
Zn0 Zn 0.93679 0.08657 0.92067 0.0
Zn1 Zn 0.92773 0.08516 0.06689 0.0
O2 O 0.96508 0.07019 -0.00273 0.0
H3 H 0.98921 0.05175 -0.00265 0.0
C4 C 0.9035 0.99461 0.87274 0.0
O5 O 0.87514 0.0023 0.91493 0.0
Zn6 Zn 0.06879 0.90646 0.09146 0.0
Zn7 Zn 0.0612 0.91593 0.95809 0.0
O8 O 0.02394 0.90258 0.0288 0.0
H9 H 0.00127 0.88224 0.02813 0.0
Zn10 Zn 0.92913 0.93694 0.96623 0.0
O11 O 0.95073 0.97099 0.03664 0.0
Zn12 Zn 0.93304 0.93998 0.11049 0.0
H13 H 0.97721 0.98586 0.03521 0.0
Zn14 Zn 0.08257 0.06047 0.9227 0.0
O15 O 0.06614 0.02522 -0.00364 0.0
H16 H 0.05062 0.99903 -0.00455 0.0
Zn17 Zn 0.07434 0.06317 0.06699 0.0
C18 C 0.10696 0.98777 0.85352 0.0
O19 O 0.11225 0.97446 0.90936 0.0
O20 O 0.88547 0.12392 0.93673 0.0
O21 O 0.87692 0.1195 0.03731 0.0
O22 O 0.11493 0.88008 0.96324 0.0
O23 O 0.12031 0.87235 0.06302 0.0
O24 O 0.87984 0.89793 0.99046 0.0
O25 O 0.88646 0.89745 0.0913 0.0
C26 C 0.00094 0.10972 0.13192 0.0
O27 O 0.11785 0.11403 0.94247 0.0
O28 O 0.11436 0.11002 0.0432 0.0
O29 O 0.02904 0.91222 0.87799 0.0
C30 C 0.86544 0.13314 0.98522 0.0
O31 O 0.97758 0.10274 0.85227 0.0
C32 C 0.00447 0.89075 0.17526 0.0
O33 O 0.93097 0.96628 0.8822 0.0
C34 C 0.13371 0.86507 0.00926 0.0
O35 O 0.09515 0.02559 0.84493 0.0
C36 C 0.9104 0.01996 0.15975 0.0
O37 O 0.96148 0.11661 0.12998 0.0
O38 O 0.01714 0.08697 0.09022 0.0
C39 C 0.86816 0.88514 0.04276 0.0
O40 O 0.04328 0.88216 0.16851 0.0
O41 O 0.98742 0.91356 0.13514 0.0
C42 C 0.09754 0.99112 0.14227 0.0
O43 O 0.91458 0.9816 0.17494 0.0
O44 O 0.9136 0.02947 0.10398 0.0
C45 C 0.12797 0.12754 -0.00495 0.0
O46 O 0.09845 0.03102 0.13729 0.0
O47 O 0.08189 0.96923 0.09932 0.0
C48 C 0.01294 0.87601 0.87044 0.0
O49 O 0.01866 0.84722 0.91239 0.0
C50 C 0.00493 0.131 0.863 0.0
O51 O 0.00549 0.14949 0.91646 0.0
Zn52 Zn 0.43579 0.59741 0.44281 0.0
Zn53 Zn 0.44046 0.58375 0.58811 0.0
O54 O 0.47317 0.57773 0.5112 0.0
H55 H 0.49777 0.5603 0.50512 0.0
C56 C 0.37646 0.52034 0.3711 0.0
O57 O 0.35282 0.52384 0.41993 0.0
Zn58 Zn 0.56726 0.38902 0.55867 0.0
Zn59 Zn 0.5444 0.36027 0.42293 0.0
O60 O 0.5278 0.40056 0.48952 0.0
H61 H 0.50971 0.42478 0.48458 0.0
Zn62 Zn 0.40899 0.45145 0.44206 0.0
O63 O 0.4399 0.47363 0.51541 0.0
Zn64 Zn 0.42753 0.43294 0.58153 0.0
H65 H 0.46482 0.49099 0.51334 0.0
Zn66 Zn 0.58545 0.5484 0.44683 0.0
O67 O 0.56691 0.50958 0.51356 0.0
H68 H 0.5437 0.49015 0.50935 0.0
Zn69 Zn 0.58113 0.54029 0.58915 0.0
C70 C 0.59115 0.4822 0.35899 0.0
O71 O 0.5925 0.46067 0.40979 0.0
O72 O 0.38323 0.62932 0.47434 0.0
O73 O 0.38972 0.62179 0.57471 0.0
O74 O 0.60204 0.33235 0.43532 0.0
O75 O 0.61737 0.35256 0.52974 0.0
O76 O 0.36408 0.40592 0.45976 0.0
O77 O 0.38037 0.39283 0.55611 0.0
C78 C 0.51547 0.59393 0.65343 0.0
O79 O 0.63122 0.58996 0.47365 0.0
O80 O 0.62635 0.58472 0.57437 0.0
O81 O 0.51641 0.36233 0.3378 0.0
C82 C 0.37057 0.63651 0.52845 0.0
O83 O 0.46667 0.61741 0.36419 0.0
C84 C 0.49697 0.37668 0.63495 0.0
O85 O 0.40351 0.49091 0.36816 0.0
C86 C 0.6268 0.33272 0.48081 0.0
O87 O 0.58837 0.52211 0.36148 0.0
C88 C 0.41243 0.50509 0.65998 0.0
O89 O 0.47815 0.60812 0.65229 0.0
O90 O 0.52661 0.56774 0.61284 0.0
C91 C 0.35825 0.38559 0.5089 0.0
O92 O 0.53431 0.363 0.62776 0.0
O93 O 0.48182 0.40055 0.59413 0.0
C94 C 0.59768 0.45873 0.6422 0.0
O95 O 0.41037 0.46507 0.65756 0.0
O96 O 0.42453 0.5245 0.61255 0.0
C97 C 0.64296 0.60065 0.52678 0.0
O98 O 0.59998 0.49826 0.6517 0.0
O99 O 0.58633 0.44591 0.58987 0.0
C100 C 0.481 0.37997 0.32877 0.0
O101 O 0.46119 0.39764 0.37468 0.0
C102 C 0.50663 0.62048 0.36613 0.0
O103 O 0.5261 0.61156 0.41701 0.0
H104 H 0.38885 0.3892 0.9756 0.0
H105 H 0.28711 0.33036 0.07278 0.0
H106 H 0.29515 0.31908 0.87829 0.0
C107 C 0.35997 0.37095 0.97554 0.0
C108 C 0.34342 0.3564 0.92036 0.0
C109 C 0.33999 0.36145 0.03076 0.0
C110 C 0.30232 0.3381 0.03017 0.0
C111 C 0.28559 0.32273 0.97521 0.0
C112 C 0.30635 0.33241 0.92063 0.0
H113 H 0.58082 0.37349 0.01721 0.0
H114 H 0.66374 0.2886 0.10932 0.0
H115 H 0.66598 0.29504 0.91492 0.0
C116 C 0.60539 0.34984 0.01543 0.0
C117 C 0.62329 0.33846 0.95924 0.0
C118 C 0.62074 0.33323 0.06998 0.0
C119 C 0.65043 0.30054 0.06755 0.0
C120 C 0.66559 0.28519 0.01173 0.0
C121 C 0.65242 0.30492 0.95772 0.0
H122 H 0.56945 0.66328 0.99152 0.0
H123 H 0.66566 0.73798 0.90822 0.0
H124 H 0.64867 0.74237 0.10245 0.0
C125 C 0.59532 0.68539 -0.00401 0.0
C126 C 0.60669 0.70078 0.05353 0.0
C127 C 0.61628 0.69924 0.94382 0.0
C128 C 0.6494 0.72798 0.94905 0.0
C129 C 0.66164 0.74374 0.00603 0.0
C130 C 0.64032 0.72965 0.05839 0.0
H131 H 0.39913 0.60508 0.00301 0.0
H132 H 0.33351 0.69895 0.10691 0.0
H133 H 0.3299 0.70274 0.91189 0.0
C134 C 0.38003 0.63334 0.00467 0.0
C135 C 0.36613 0.65181 0.95024 0.0
C136 C 0.36805 0.64988 0.06135 0.0
C137 C 0.34319 0.68647 0.06327 0.0
C138 C 0.32908 0.70594 0.00981 0.0
C139 C 0.34107 0.68847 0.9534 0.0
H140 H 0.95119 0.8115 0.53337 0.0
H141 H 0.8498 0.74122 0.61307 0.0
H142 H 0.86053 0.75162 0.41819 0.0
C143 C 0.92297 0.79255 0.52837 0.0
C144 C 0.90862 0.7825 0.47024 0.0
C145 C 0.90123 0.77875 0.57995 0.0
C146 C 0.86559 0.75303 0.57297 0.0
C147 C 0.85049 0.74259 0.51472 0.0
C148 C 0.87194 0.75835 0.46349 0.0
H149 H 0.10895 0.89808 0.4819 0.0
H150 H 0.18074 0.8147 0.59461 0.0
H151 H 0.18657 0.80284 0.40034 0.0
C152 C 0.13102 0.87223 0.48636 0.0
C153 C 0.14687 0.85259 0.43411 0.0
C154 C 0.14521 0.86083 0.54415 0.0
C155 C 0.17051 0.82456 0.55006 0.0
C156 C 0.18376 0.80187 0.49821 0.0
C157 C 0.17296 0.81727 0.44046 0.0
H158 H 0.06395 0.1542 0.50019 0.0
H159 H 0.14379 0.23365 0.39331 0.0
H160 H 0.16387 0.22321 0.58641 0.0
C161 C 0.09051 0.1756 0.49736 0.0
C162 C 0.11358 0.18549 0.54968 0.0
C163 C 0.1011 0.19308 0.44124 0.0
C164 C 0.13532 0.22089 0.43723 0.0
C165 C 0.15811 0.23261 0.48943 0.0
C166 C 0.14695 0.21452 0.54564 0.0
H167 H 0.89942 0.09178 0.52736 0.0
H168 H 0.82587 0.18685 0.61709 0.0
H169 H 0.85314 0.19865 0.42715 0.0
C170 C 0.88379 0.1221 0.52607 0.0
C171 C 0.87993 0.14368 0.47043 0.0
C172 C 0.86487 0.13766 0.57942 0.0
C173 C 0.84152 0.17523 0.57663 0.0
C174 C 0.83591 0.19656 0.52154 0.0
C175 C 0.85647 0.18141 0.4692 0.0
H176 H 0.13879 0.19394 0.9183 0.0
H177 H 0.18263 0.1413 0.08717 0.0
H178 H 0.23351 0.19836 0.09786 0.0
H179 H 0.26846 0.26037 0.05635 0.0
H180 H 0.22164 0.31691 0.89167 0.0
H181 H 0.16917 0.26104 0.88221 0.0
C182 C 0.15952 0.1951 0.95736 0.0
C183 C 0.15741 0.16324 0.00142 0.0
C184 C 0.1882 0.22856 0.96399 0.0
C185 C 0.1838 0.16543 0.05249 0.0
C186 C 0.21292 0.19802 0.05868 0.0
C187 C 0.24616 0.26132 0.01919 0.0
C188 C 0.2495 0.29271 0.97449 0.0
C189 C 0.21566 0.22952 0.01445 0.0
C190 C 0.2205 0.29268 0.92616 0.0
C191 C 0.19035 0.2608 0.92074 0.0
H192 H 0.79574 0.13748 0.05742 0.0
H193 H 0.85527 0.19497 0.90203 0.0
H194 H 0.79842 0.24641 0.89542 0.0
H195 H 0.73395 0.27721 0.93666 0.0
H196 H 0.67037 0.21626 0.08615 0.0
H197 H 0.72695 0.16447 0.09258 0.0
C198 C 0.79608 0.16124 0.02211 0.0
C199 C 0.82971 0.16266 0.98063 0.0
C200 C 0.76278 0.19027 0.01767 0.0
C201 C 0.82962 0.1932 0.93449 0.0
C202 C 0.7972 0.22271 0.93072 0.0
C203 C 0.73171 0.2521 0.96975 0.0
C204 C 0.69795 0.25112 0.01119 0.0
C205 C 0.76377 0.22173 0.97231 0.0
C206 C 0.6964 0.21851 0.05444 0.0
C207 C 0.72864 0.18866 0.05802 0.0
H208 H 0.80205 0.88139 0.96643 0.0
H209 H 0.85157 0.82593 0.12983 0.0
H210 H 0.79108 0.77794 0.13476 0.0
H211 H 0.72538 0.74996 0.08952 0.0
H212 H 0.6745 0.81016 0.93008 0.0
H213 H 0.73426 0.85799 0.92679 0.0
C214 C 0.79967 0.85871 0.00304 0.0
C215 C 0.83145 0.85669 0.04712 0.0
C216 C 0.76457 0.83202 0.00625 0.0
C217 C 0.82752 0.82785 0.09512 0.0
C218 C 0.79298 0.80045 0.09794 0.0
C219 C 0.72707 0.77395 0.05464 0.0
C220 C 0.6959 0.7757 0.00931 0.0
C221 C 0.76139 0.80206 0.05345 0.0
C222 C 0.69862 0.80714 0.9645 0.0
C223 C 0.73269 0.83474 0.96269 0.0
H224 H 0.20331 0.85365 0.07995 0.0
H225 H 0.14379 0.81128 0.91483 0.0
H226 H 0.19962 0.75953 0.8989 0.0
H227 H 0.26257 0.72335 0.93509 0.0
H228 H 0.32703 0.77038 0.09403 0.0
H229 H 0.27189 0.82285 0.10928 0.0
C230 C 0.20281 0.83316 0.04043 0.0
C231 C 0.16933 0.83592 -0.00098 0.0
C232 C 0.23568 0.8041 0.03057 0.0
C233 C 0.16926 0.80971 0.94742 0.0
C234 C 0.20112 0.78004 0.93829 0.0
C235 C 0.26545 0.74565 0.97222 0.0
C236 C 0.29885 0.74205 0.01385 0.0
C237 C 0.23426 0.77665 0.97988 0.0
C238 C 0.30117 0.77128 0.0621 0.0
C239 C 0.26973 0.80161 0.07076 0.0
H240 H 0.70814 0.61086 0.44975 0.0
H241 H 0.65613 0.65762 0.61807 0.0
H242 H 0.7147 0.70754 0.62752 0.0
H243 H 0.78045 0.73742 0.58763 0.0
H244 H 0.8362 0.68386 0.42541 0.0
H245 H 0.77558 0.63799 0.41298 0.0
C246 C 0.70955 0.63217 0.48834 0.0
C247 C 0.67788 0.63091 0.53293 0.0
C248 C 0.74373 0.65975 0.49428 0.0
C249 C 0.68031 0.65809 0.58324 0.0
C250 C 0.71367 0.68662 0.58855 0.0
C251 C 0.77987 0.71534 0.55001 0.0
C252 C 0.81309 0.71463 0.50736 0.0
C253 C 0.74568 0.68755 0.54443 0.0
C254 C 0.81087 0.68618 0.45824 0.0
C255 C 0.77634 0.65946 0.45135 0.0
H256 H 0.30108 0.64375 0.45854 0.0
H257 H 0.36031 0.69397 0.61917 0.0
H258 H 0.30613 0.74868 0.62662 0.0
H259 H 0.24642 0.78617 0.58106 0.0
H260 H 0.18331 0.73156 0.42595 0.0
H261 H 0.23486 0.67484 0.42257 0.0
C262 C 0.30174 0.66643 0.49554 0.0
C263 C 0.33477 0.66538 0.53769 0.0
C264 C 0.27022 0.69728 0.50009 0.0
C265 C 0.3351 0.69433 0.58609 0.0
C266 C 0.30429 0.7257 0.5902 0.0
C267 C 0.24308 0.7614 0.54743 0.0
C268 C 0.21147 0.76404 0.50283 0.0
C269 C 0.27222 0.72805 0.5466 0.0
C270 C 0.20813 0.73137 0.45959 0.0
C271 C 0.23743 0.69864 0.4578 0.0
H272 H 0.28757 0.38054 0.44014 0.0
H273 H 0.35394 0.31812 0.58504 0.0
H274 H 0.29876 0.26453 0.59052 0.0
H275 H 0.23192 0.23533 0.55381 0.0
H276 H 0.1623 0.30217 0.41586 0.0
H277 H 0.21895 0.35335 0.40716 0.0
C278 C 0.29003 0.35509 0.47271 0.0
C279 C 0.32489 0.35313 0.51179 0.0
C280 C 0.25773 0.32497 0.47664 0.0
C281 C 0.32737 0.32033 0.55442 0.0
C282 C 0.29586 0.28965 0.55754 0.0
C283 C 0.22869 0.26135 0.5224 0.0
C284 C 0.19276 0.26431 0.48518 0.0
C285 C 0.26082 0.29173 0.51898 0.0
C286 C 0.18986 0.29813 0.44409 0.0
C287 C 0.22214 0.32782 0.43942 0.0
H288 H 0.69249 0.33194 0.56125 0.0
H289 H 0.6512 0.27902 0.39046 0.0
H290 H 0.71425 0.23557 0.38536 0.0
H291 H 0.77792 0.20813 0.4329 0.0
H292 H 0.82094 0.26124 0.60236 0.0
H293 H 0.76047 0.30903 0.60421 0.0
C294 C 0.69738 0.31108 0.52276 0.0
C295 C 0.66673 0.30847 0.47677 0.0
C296 C 0.73398 0.28605 0.51983 0.0
C297 C 0.67396 0.28158 0.42685 0.0
C298 C 0.71009 0.25663 0.42377 0.0
C299 C 0.77484 0.23092 0.46947 0.0
C300 C 0.8039 0.23082 0.51759 0.0
C301 C 0.73996 0.25811 0.47041 0.0
C302 C 0.79876 0.26019 0.5651 0.0
C303 C 0.76417 0.28754 0.56621 0.0
H304 H 0.97138 0.14348 0.23704 0.0
H305 H 0.0868 0.11235 0.14398 0.0
H306 H 0.1278 0.13693 0.22971 0.0
H307 H 0.13097 0.16564 0.33308 0.0
H308 H 0.01568 0.19436 0.42863 0.0
H309 H 0.97443 0.17242 0.34033 0.0
C310 C 0.00552 0.1423 0.23527 0.0
C311 C 0.02602 0.1261 0.18346 0.0
C312 C 0.02888 0.15601 0.28558 0.0
C313 C 0.07018 0.12455 0.18258 0.0
C314 C 0.09371 0.13867 0.23193 0.0
C315 C 0.09684 0.16752 0.33415 0.0
C316 C 0.07634 0.18172 0.38686 0.0
C317 C 0.07339 0.15428 0.28377 0.0
C318 C 0.03207 0.18335 0.38838 0.0
C319 C 0.00852 0.17087 0.33801 0.0
H320 H 0.9548 0.02727 0.26368 0.0
H321 H 0.85486 0.08507 0.16136 0.0
H322 H 0.83824 0.1313 0.2476 0.0
H323 H 0.84657 0.14811 0.35552 0.0
H324 H 0.9515 0.09558 0.45479 0.0
H325 H 0.97153 0.05411 0.36605 0.0
C326 C 0.92979 0.05047 0.26019 0.0
C327 C 0.90547 0.05246 0.20708 0.0
C328 C 0.92092 0.07724 0.30949 0.0
C329 C 0.87375 0.08303 0.20215 0.0
C330 C 0.86417 0.10923 0.25148 0.0
C331 C 0.87462 0.12871 0.35779 0.0
C332 C 0.8966 0.12431 0.41307 0.0
C333 C 0.88677 0.1057 0.306 0.0
C334 C 0.93275 0.09849 0.41404 0.0
C335 C 0.94452 0.07492 0.36305 0.0
H336 H 0.03478 0.84529 0.26931 0.0
H337 H 0.91985 0.89771 0.19752 0.0
H338 H 0.87978 0.86698 0.28056 0.0
H339 H 0.87742 0.82562 0.37465 0.0
H340 H 0.99254 0.77488 0.448 0.0
H341 H 0.03262 0.80452 0.36333 0.0
C342 C 0.00097 0.85002 0.27177 0.0
C343 C 0.98031 0.87358 0.22687 0.0
C344 C 0.97816 0.83243 0.31995 0.0
C345 C 0.93655 0.87962 0.23109 0.0
C346 C 0.91355 0.86198 0.27866 0.0
C347 C 0.91119 0.82068 0.37147 0.0
C348 C 0.93209 0.79806 0.41695 0.0
C349 C 0.93401 0.83823 0.32324 0.0
C350 C 0.97593 0.79235 0.41329 0.0
C351 C 0.9988 0.80925 0.36504 0.0
H352 H 0.11977 0.9094 0.16293 0.0
H353 H 0.10879 0.03048 0.25087 0.0
H354 H 0.12614 0.99843 0.34799 0.0
H355 H 0.1407 0.936 0.40793 0.0
H356 H 0.13747 0.81276 0.32351 0.0
H357 H 0.12822 0.84562 0.22438 0.0
C358 C 0.11959 0.9285 0.20339 0.0
C359 C 0.11121 0.97181 0.19973 0.0
C360 C 0.12689 0.90948 0.25959 0.0
C361 C 0.11452 0.99681 0.25235 0.0
C362 C 0.12417 0.97852 0.30801 0.0
C363 C 0.13684 0.91596 0.36838 0.0
C364 C 0.13943 0.8718 0.37365 0.0
C365 C 0.12946 0.93478 0.31223 0.0
C366 C 0.13612 0.84681 0.321 0.0
C367 C 0.13061 0.86555 0.2643 0.0
H368 H 0.11508 0.00762 0.73417 0.0
H369 H 0.11348 0.90223 0.85699 0.0
H370 H 0.1224 0.85334 0.77278 0.0
H371 H 0.13141 0.84044 0.66364 0.0
H372 H 0.14153 0.947 0.54257 0.0
H373 H 0.12772 0.99502 0.62603 0.0
C374 C 0.1167 0.97396 0.74247 0.0
C375 C 0.11336 0.95859 0.80191 0.0
C376 C 0.12307 0.94603 0.69379 0.0
C377 C 0.11594 0.91493 0.81186 0.0
C378 C 0.12099 0.88686 0.76356 0.0
C379 C 0.13101 0.87412 0.65546 0.0
C380 C 0.13672 0.88964 0.59634 0.0
C381 C 0.12483 0.90206 0.70426 0.0
C382 C 0.1358 0.93365 0.587 0.0
C383 C 0.12842 0.96143 0.63493 0.0
H384 H 0.02805 0.08683 0.76332 0.0
H385 H 0.04632 0.20612 0.85417 0.0
H386 H 0.08591 0.23248 0.76681 0.0
H387 H 0.10753 0.22424 0.66008 0.0
H388 H 0.09131 0.10381 0.57122 0.0
H389 H 0.05863 0.07527 0.66253 0.0
C390 C 0.04099 0.11849 0.76412 0.0
C391 C 0.03349 0.14489 0.81426 0.0
C392 C 0.06367 0.13334 0.71398 0.0
C393 C 0.05132 0.18541 0.81562 0.0
C394 C 0.07383 0.20053 0.76566 0.0
C395 C 0.09782 0.19147 0.66115 0.0
C396 C 0.10095 0.16651 0.60846 0.0
C397 C 0.07914 0.17517 0.7139 0.0
C398 C 0.08816 0.12406 0.61068 0.0
C399 C 0.06959 0.10764 0.66288 0.0
H400 H 0.83987 0.04165 0.82783 0.0
H401 H 0.96754 0.00271 0.78992 0.0
H402 H 0.96753 0.04447 0.69665 0.0
H403 H 0.93094 0.09235 0.62604 0.0
H404 H 0.80126 0.12617 0.66186 0.0
H405 H 0.8028 0.08682 0.75616 0.0
C406 C 0.86772 0.04226 0.79919 0.0
C407 C 0.90358 0.01908 0.81571 0.0
C408 C 0.86727 0.06574 0.74538 0.0
C409 C 0.93935 0.02001 0.77791 0.0
C410 C 0.93942 0.04401 0.72469 0.0
C411 C 0.90289 0.09084 0.65416 0.0
C412 C 0.86628 0.11293 0.63691 0.0
C413 C 0.90346 0.06694 0.70787 0.0
C414 C 0.83035 0.11069 0.67444 0.0
C415 C 0.83098 0.08774 0.72827 0.0
H416 H 0.97617 0.80161 0.84204 0.0
H417 H 0.99757 0.92731 0.7737 0.0
H418 H 0.96161 0.90892 0.67944 0.0
H419 H 0.92718 0.85627 0.61504 0.0
H420 H 0.90931 0.72953 0.68104 0.0
H421 H 0.94002 0.74955 0.77862 0.0
C422 C 0.97283 0.82507 0.80665 0.0
C423 C 0.98962 0.86569 0.81468 0.0
C424 C 0.95267 0.81413 0.75242 0.0
C425 C 0.98491 0.89579 0.76855 0.0
C426 C 0.96442 0.8853 0.71466 0.0
C427 C 0.93016 0.83298 0.65074 0.0
C428 C 0.91642 0.7914 0.64075 0.0
C429 C 0.94872 0.84441 0.70588 0.0
C430 C 0.91946 0.7618 0.68781 0.0
C431 C 0.9373 0.77314 0.74335 0.0
H432 H 0.53279 0.67322 0.68823 0.0
H433 H 0.55796 0.54331 0.73017 0.0
H434 H 0.59403 0.56425 0.82376 0.0
H435 H 0.61204 0.61985 0.89826 0.0
H436 H 0.58754 0.74993 0.85476 0.0
H437 H 0.55739 0.72901 0.7571 0.0
C438 C 0.54714 0.64974 0.71735 0.0
C439 C 0.54374 0.60693 0.70239 0.0
C440 C 0.56721 0.66214 0.77106 0.0
C441 C 0.56176 0.57647 0.74025 0.0
C442 C 0.58165 0.58845 0.7941 0.0
C443 C 0.60039 0.64343 0.86691 0.0
C444 C 0.60148 0.6862 0.8833 0.0
C445 C 0.58365 0.63117 0.81066 0.0
C446 C 0.58684 0.7168 0.84261 0.0
C447 C 0.5696 0.70487 0.78701 0.0
H448 H 0.40328 0.59003 0.6813 0.0
H449 H 0.3985 0.46912 0.77012 0.0
H450 H 0.38267 0.50352 0.86632 0.0
H451 H 0.37013 0.56749 0.9253 0.0
H452 H 0.38275 0.68928 0.83991 0.0
H453 H 0.39583 0.65491 0.74227 0.0
C454 C 0.39995 0.57126 0.72175 0.0
C455 C 0.403 0.52707 0.71813 0.0
C456 C 0.39202 0.59139 0.77766 0.0
C457 C 0.39656 0.50321 0.77115 0.0
C458 C 0.38758 0.52286 0.82644 0.0
C459 C 0.37667 0.5868 0.88588 0.0
C460 C 0.37555 0.63112 0.8906 0.0
C461 C 0.38544 0.56692 0.83027 0.0
C462 C 0.38277 0.65517 0.83795 0.0
C463 C 0.39057 0.63553 0.78201 0.0
H464 H 0.41266 0.38164 0.65515 0.0
H465 H 0.52964 0.35155 0.74322 0.0
H466 H 0.4929 0.34389 0.84002 0.0
H467 H 0.42731 0.34692 0.89967 0.0
H468 H 0.31073 0.38001 0.8113 0.0
H469 H 0.34762 0.38633 0.71425 0.0
C470 C 0.43017 0.37406 0.69542 0.0
C471 C 0.47387 0.36816 0.69195 0.0
C472 C 0.40888 0.37047 0.75089 0.0
C473 C 0.49595 0.35652 0.74456 0.0
C474 C 0.47499 0.35236 0.80004 0.0
C475 C 0.41012 0.35615 0.85935 0.0
C476 C 0.36641 0.36313 0.8626 0.0
C477 C 0.43148 0.35971 0.8038 0.0
C478 C 0.34436 0.37422 0.80976 0.0
C479 C 0.36538 0.37781 0.75435 0.0
H480 H 0.59152 0.47794 0.76091 0.0
H481 H 0.61965 0.37466 0.64005 0.0
H482 H 0.62693 0.3272 0.72683 0.0
H483 H 0.62431 0.31549 0.83761 0.0
H484 H 0.60624 0.4232 0.95629 0.0
H485 H 0.59442 0.46784 0.86968 0.0
C486 C 0.59922 0.44505 0.75327 0.0
C487 C 0.60375 0.42958 0.69382 0.0
C488 C 0.60441 0.41848 0.80323 0.0
C489 C 0.61456 0.38705 0.68515 0.0
C490 C 0.61907 0.36 0.73488 0.0
C491 C 0.61825 0.34873 0.8449 0.0
C492 C 0.61519 0.36511 0.90446 0.0
C493 C 0.61378 0.37537 0.7943 0.0
C494 C 0.60697 0.40858 0.91187 0.0
C495 C 0.6009 0.43466 0.86206 0.0
H496 H 0.59751 0.39796 0.33928 0.0
H497 H 0.59037 0.51736 0.24612 0.0
H498 H 0.59674 0.48129 0.14859 0.0
H499 H 0.60821 0.41685 0.09078 0.0
H500 H 0.61119 0.29664 0.18254 0.0
H501 H 0.60354 0.33247 0.28022 0.0
C502 C 0.59706 0.41608 0.29764 0.0
C503 C 0.59362 0.46026 0.29997 0.0
C504 C 0.60043 0.39515 0.2417 0.0
C505 C 0.59312 0.48331 0.24562 0.0
C506 C 0.59672 0.46273 0.18983 0.0
C507 C 0.60588 0.3981 0.1317 0.0
C508 C 0.61032 0.35395 0.1289 0.0
C509 C 0.60066 0.41873 0.18744 0.0
C510 C 0.60854 0.33067 0.18314 0.0
C511 C 0.60407 0.35111 0.23907 0.0
H512 H 0.47665 0.64653 0.25655 0.0
H513 H 0.59208 0.62526 0.35521 0.0
H514 H 0.63314 0.64885 0.26804 0.0
H515 H 0.63655 0.67549 0.16335 0.0
H516 H 0.5212 0.69699 0.065 0.0
H517 H 0.48003 0.67366 0.15236 0.0
C518 C 0.51078 0.64702 0.25898 0.0
C519 C 0.53116 0.63426 0.31247 0.0
C520 C 0.53432 0.66074 0.20867 0.0
C521 C 0.57547 0.63506 0.31474 0.0
C522 C 0.59906 0.64856 0.26487 0.0
C523 C 0.6024 0.67531 0.1613 0.0
C524 C 0.58202 0.68779 0.10774 0.0
C525 C 0.57885 0.6616 0.21164 0.0
C526 C 0.53771 0.687 0.10547 0.0
C527 C 0.5141 0.67372 0.15543 0.0
H528 H 0.43083 0.5355 0.27798 0.0
H529 H 0.30845 0.56997 0.34845 0.0
H530 H 0.29581 0.61396 0.25973 0.0
H531 H 0.31739 0.63875 0.15983 0.0
H532 H 0.44142 0.60851 0.09112 0.0
H533 H 0.45525 0.56614 0.18134 0.0
C534 C 0.40145 0.55274 0.27391 0.0
C535 C 0.37035 0.54903 0.31925 0.0
C536 C 0.39454 0.57838 0.22303 0.0
C537 C 0.33278 0.57212 0.31402 0.0
C538 C 0.32548 0.59721 0.26325 0.0
C539 C 0.34791 0.62382 0.16492 0.0
C540 C 0.37822 0.62686 0.11835 0.0
C541 C 0.35591 0.60013 0.2172 0.0
C542 C 0.41714 0.60619 0.12558 0.0
C543 C 0.42519 0.58211 0.17734 0.0
H544 H 0.40101 0.40267 0.29743 0.0
H545 H 0.51699 0.35333 0.22304 0.0
H546 H 0.48448 0.3466 0.12363 0.0
H547 H 0.42189 0.34979 0.05944 0.0
H548 H 0.30457 0.39595 0.13325 0.0
H549 H 0.33861 0.40847 0.23144 0.0
C550 C 0.41924 0.39073 0.25936 0.0
C551 C 0.46146 0.37846 0.26783 0.0
C552 C 0.39993 0.38596 0.20235 0.0
C553 C 0.48456 0.36302 0.21796 0.0
C554 C 0.46591 0.35902 0.16101 0.0
C555 C 0.40392 0.36328 0.09671 0.0
C556 C 0.36083 0.37207 0.0891 0.0
C557 C 0.42347 0.36975 0.15294 0.0
C558 C 0.33775 0.38871 0.13817 0.0
C559 C 0.3572 0.39592 0.1942 0.0
loop_
_geom_bond_atom_site_label_1
_geom_bond_atom_site_label_2
_geom_bond_distance
_geom_bond_site_symmetry_2
_ccdc_geom_bond_type
Zn0 O2 1.933 1_556 S
Zn0 O20 1.985 . S
Zn0 O31 1.955 . S
Zn1 O2 1.911 . S
Zn1 O21 1.970 . S
Zn1 O37 1.945 . S
Zn1 O44 1.981 . S
O2 Zn0 1.933 1_554 S
O2 Zn1 1.911 . S
O2 H3 0.841 1_655 S
H3 O2 0.841 1_455 S
C4 O5 1.246 . S
C4 O33 1.276 1_545 S
O5 C4 1.246 . S
Zn6 O8 1.911 . S
Zn6 O23 1.970 . S
Zn6 O40 1.945 . S
Zn6 O47 1.981 . S
Zn7 O8 1.933 1_556 S
Zn7 O22 1.985 . S
Zn7 O29 1.955 . S
O8 Zn6 1.911 . S
O8 Zn7 1.933 1_554 S
O8 H9 0.841 1_455 S
H9 O8 0.841 1_655 S
Zn10 O11 1.933 1_556 S
Zn10 O24 1.985 . S
Zn10 O33 1.955 . S
O11 Zn10 1.933 1_554 S
O11 Zn12 1.911 . S
O11 H13 0.841 1_565 S
Zn12 O11 1.911 . S
Zn12 O25 1.970 . S
Zn12 O41 1.981 . S
Zn12 O43 1.945 . S
H13 O11 0.841 1_545 S
Zn14 O15 1.933 1_556 S
Zn14 O27 1.985 . S
Zn14 O35 1.955 . S
O15 Zn14 1.933 1_554 S
O15 H16 0.841 1_545 S
O15 Zn17 1.911 . S
H16 O15 0.841 1_565 S
Zn17 O15 1.911 . S
Zn17 O28 1.970 . S
Zn17 O38 1.981 . S
Zn17 O46 1.945 . S
C18 O19 1.246 . S
C18 O35 1.276 1_565 S
O19 C18 1.246 . S
O20 Zn0 1.985 . S
O20 C30 1.245 1_556 S
O21 Zn1 1.970 . S
O21 C30 1.263 . S
O22 Zn7 1.985 . S
O22 C34 1.245 1_556 S
O23 Zn6 1.970 . S
O23 C34 1.263 . S
O24 Zn10 1.985 . S
O24 C39 1.245 1_556 S
O25 Zn12 1.970 . S
O25 C39 1.263 . S
C26 O37 1.262 1_455 S
C26 O38 1.245 . S
O27 Zn14 1.985 . S
O27 C45 1.245 1_556 S
O28 Zn17 1.970 . S
O28 C45 1.263 . S
O29 Zn7 1.955 . S
O29 C48 1.276 1_455 S
C30 O20 1.245 1_554 S
C30 O21 1.263 . S
O31 Zn0 1.955 . S
O31 C50 1.276 1_655 S
C32 O40 1.262 1_655 S
C32 O41 1.245 . S
O33 C4 1.276 1_565 S
O33 Zn10 1.955 . S
C34 O22 1.245 1_554 S
C34 O23 1.263 . S
O35 Zn14 1.955 . S
O35 C18 1.276 1_545 S
C36 O43 1.262 1_545 S
C36 O44 1.245 . S
O37 Zn1 1.945 . S
O37 C26 1.262 1_655 S
O38 Zn17 1.981 . S
O38 C26 1.245 . S
C39 O24 1.245 1_554 S
C39 O25 1.263 . S
O40 Zn6 1.945 . S
O40 C32 1.262 1_455 S
O41 Zn12 1.981 . S
O41 C32 1.245 . S
C42 O46 1.262 1_565 S
C42 O47 1.245 . S
O43 Zn12 1.945 . S
O43 C36 1.262 1_565 S
O44 Zn1 1.981 . S
O44 C36 1.245 . S
C45 O27 1.245 1_554 S
C45 O28 1.263 . S
O46 Zn17 1.945 . S
O46 C42 1.262 1_545 S
O47 Zn6 1.981 . S
O47 C42 1.245 . S
C48 O29 1.276 1_655 S
C48 O49 1.246 . S
O49 C48 1.246 . S
C50 O31 1.276 1_455 S
C50 O51 1.246 . S
O51 C50 1.246 . S
Zn52 O54 1.933 . S
Zn52 O72 1.985 . S
Zn52 O83 1.955 . S
Zn53 O54 1.911 . S
Zn53 O73 1.970 . S
Zn53 O89 1.945 . S
Zn53 O96 1.981 . S
O54 Zn52 1.933 . S
O54 Zn53 1.911 . S
O54 H55 0.841 . S
H55 O54 0.841 . S
C56 O57 1.246 . S
C56 O85 1.276 . S
O57 C56 1.246 . S
Zn58 O60 1.911 . S
Zn58 O75 1.970 . S
Zn58 O92 1.945 . S
Zn58 O99 1.981 . S
Zn59 O60 1.933 . S
Zn59 O74 1.985 . S
Zn59 O81 1.955 . S
O60 Zn58 1.911 . S
O60 Zn59 1.933 . S
O60 H61 0.841 . S
H61 O60 0.841 . S
Zn62 O63 1.933 . S
Zn62 O76 1.985 . S
Zn62 O85 1.955 . S
O63 Zn62 1.933 . S
O63 Zn64 1.911 . S
O63 H65 0.841 . S
Zn64 O63 1.911 . S
Zn64 O77 1.970 . S
Zn64 O93 1.981 . S
Zn64 O95 1.945 . S
H65 O63 0.841 . S
Zn66 O67 1.933 . S
Zn66 O79 1.985 . S
Zn66 O87 1.955 . S
O67 Zn66 1.933 . S
O67 H68 0.841 . S
O67 Zn69 1.911 . S
H68 O67 0.841 . S
Zn69 O67 1.911 . S
Zn69 O80 1.970 . S
Zn69 O90 1.981 . S
Zn69 O98 1.945 . S
C70 O71 1.246 . S
C70 O87 1.276 . S
O71 C70 1.246 . S
O72 Zn52 1.985 . S
O72 C82 1.245 . S
O73 Zn53 1.970 . S
O73 C82 1.263 . S
O74 Zn59 1.985 . S
O74 C86 1.245 . S
O75 Zn58 1.970 . S
O75 C86 1.263 . S
O76 Zn62 1.985 . S
O76 C91 1.245 . S
O77 Zn64 1.970 . S
O77 C91 1.263 . S
C78 O89 1.262 . S
C78 O90 1.245 . S
O79 Zn66 1.985 . S
O79 C97 1.245 . S
O80 Zn69 1.970 . S
O80 C97 1.263 . S
O81 Zn59 1.955 . S
O81 C100 1.276 . S
C82 O72 1.245 . S
C82 O73 1.263 . S
O83 Zn52 1.955 . S
O83 C102 1.276 . S
C84 O92 1.262 . S
C84 O93 1.245 . S
O85 C56 1.276 . S
O85 Zn62 1.955 . S
C86 O74 1.245 . S
C86 O75 1.263 . S
O87 Zn66 1.955 . S
O87 C70 1.276 . S
C88 O95 1.262 . S
C88 O96 1.245 . S
O89 Zn53 1.945 . S
O89 C78 1.262 . S
O90 Zn69 1.981 . S
O90 C78 1.245 . S
C91 O76 1.245 . S
C91 O77 1.263 . S
O92 Zn58 1.945 . S
O92 C84 1.262 . S
O93 Zn64 1.981 . S
O93 C84 1.245 . S
C94 O98 1.262 . S
C94 O99 1.245 . S
O95 Zn64 1.945 . S
O95 C88 1.262 . S
O96 Zn53 1.981 . S
O96 C88 1.245 . S
C97 O79 1.245 . S
C97 O80 1.263 . S
O98 Zn69 1.945 . S
O98 C94 1.262 . S
O99 Zn58 1.981 . S
O99 C94 1.245 . S
C100 O81 1.276 . S
C100 O101 1.246 . S
O101 C100 1.246 . S
C102 O83 1.276 . S
C102 O103 1.246 . S
O103 C102 1.246 . S
H104 C107 0.931 . S
H105 C110 0.928 . S
H106 C112 0.930 . S
C107 H104 0.931 . S
C107 C108 1.413 1_554 S
C107 C109 1.360 . S
C108 C107 1.413 1_556 S
C108 C112 1.429 . S
C109 C107 1.360 . S
C109 C110 1.372 . S
C110 H105 0.928 . S
C110 C109 1.372 . S
C110 C111 1.404 . S
C111 C110 1.404 . S
C111 C112 1.391 1_554 S
C112 H106 0.930 . S
C112 C108 1.429 . S
C112 C111 1.391 1_556 S
H113 C116 0.931 . S
H114 C119 0.928 . S
H115 C121 0.930 . S
C116 H113 0.931 . S
C116 C117 1.413 1_554 S
C116 C118 1.360 . S
C117 C116 1.413 1_556 S
C117 C121 1.429 . S
C118 C116 1.360 . S
C118 C119 1.372 . S
C119 H114 0.928 . S
C119 C118 1.372 . S
C119 C120 1.404 . S
C120 C119 1.404 . S
C120 C121 1.391 1_554 S
C121 H115 0.930 . S
C121 C117 1.429 . S
C121 C120 1.391 1_556 S
H122 C125 0.931 . S
H123 C128 0.928 . S
H124 C130 0.930 . S
C125 H122 0.931 . S
C125 C126 1.413 . S
C125 C127 1.360 1_554 S
C126 C125 1.413 . S
C126 C130 1.429 . S
C127 C125 1.360 1_556 S
C127 C128 1.372 . S
C128 H123 0.928 . S
C128 C127 1.372 . S
C128 C129 1.404 1_556 S
C129 C128 1.404 1_554 S
C129 C130 1.391 . S
C130 H124 0.930 . S
C130 C126 1.429 . S
C130 C129 1.391 . S
H131 C134 0.931 . S
H132 C137 0.928 . S
H133 C139 0.930 . S
C134 H131 0.931 . S
C134 C135 1.413 1_554 S
C134 C136 1.360 . S
C135 C134 1.413 1_556 S
C135 C139 1.429 . S
C136 C134 1.360 . S
C136 C137 1.372 . S
C137 H132 0.928 . S
C137 C136 1.372 . S
C137 C138 1.404 . S
C138 C137 1.404 . S
C138 C139 1.391 1_554 S
C139 H133 0.930 . S
C139 C135 1.429 . S
C139 C138 1.391 1_556 S
H140 C143 0.931 . S
H141 C146 0.928 . S
H142 C148 0.930 . S
C143 H140 0.931 . S
C143 C144 1.413 . S
C143 C145 1.360 . S
C144 C143 1.413 . S
C144 C148 1.429 . S
C145 C143 1.360 . S
C145 C146 1.372 . S
C146 H141 0.928 . S
C146 C145 1.372 . S
C146 C147 1.404 . S
C147 C146 1.404 . S
C147 C148 1.391 . S
C148 H142 0.930 . S
C148 C144 1.429 . S
C148 C147 1.391 . S
H149 C152 0.931 . S
H150 C155 0.928 . S
H151 C157 0.930 . S
C152 H149 0.931 . S
C152 C153 1.413 . S
C152 C154 1.360 . S
C153 C152 1.413 . S
C153 C157 1.429 . S
C154 C152 1.360 . S
C154 C155 1.372 . S
C155 H150 0.928 . S
C155 C154 1.372 . S
C155 C156 1.404 . S
C156 C155 1.404 . S
C156 C157 1.391 . S
C157 H151 0.930 . S
C157 C153 1.429 . S
C157 C156 1.391 . S
H158 C161 0.931 . S
H159 C164 0.928 . S
H160 C166 0.930 . S
C161 H158 0.931 . S
C161 C162 1.413 . S
C161 C163 1.360 . S
C162 C161 1.413 . S
C162 C166 1.429 . S
C163 C161 1.360 . S
C163 C164 1.372 . S
C164 H159 0.928 . S
C164 C163 1.372 . S
C164 C165 1.404 . S
C165 C164 1.404 . S
C165 C166 1.391 . S
C166 H160 0.930 . S
C166 C162 1.429 . S
C166 C165 1.391 . S
H167 C170 0.931 . S
H168 C173 0.928 . S
H169 C175 0.930 . S
C170 H167 0.931 . S
C170 C171 1.413 . S
C170 C172 1.360 . S
C171 C170 1.413 . S
C171 C175 1.429 . S
C172 C170 1.360 . S
C172 C173 1.372 . S
C173 H168 0.928 . S
C173 C172 1.372 . S
C173 C174 1.404 . S
C174 C173 1.404 . S
C174 C175 1.391 . S
C175 H169 0.930 . S
C175 C171 1.429 . S
C175 C174 1.391 . S
H176 C182 0.930 . S
H177 C185 0.930 . S
H178 C186 0.930 . S
H179 C187 0.930 . S
H180 C190 0.930 . S
H181 C191 0.930 . S
C182 H176 0.930 . S
C182 C183 1.355 1_556 S
C182 C184 1.415 . S
C183 C182 1.355 1_554 S
C183 C185 1.419 . S
C184 C182 1.415 . S
C184 C189 1.425 1_556 S
C184 C191 1.409 . S
C185 H177 0.930 . S
C185 C183 1.419 . S
C185 C186 1.362 . S
C186 H178 0.930 . S
C186 C185 1.362 . S
C186 C189 1.409 . S
C187 H179 0.930 . S
C187 C188 1.355 . S
C187 C189 1.415 . S
C188 C187 1.355 . S
C188 C190 1.419 1_554 S
C189 C184 1.425 1_554 S
C189 C186 1.409 . S
C189 C187 1.415 . S
C190 H180 0.930 . S
C190 C188 1.419 1_556 S
C190 C191 1.362 . S
C191 H181 0.930 . S
C191 C184 1.409 . S
C191 C190 1.362 . S
H192 C198 0.930 . S
H193 C201 0.930 . S
H194 C202 0.930 . S
H195 C203 0.930 . S
H196 C206 0.930 . S
H197 C207 0.930 . S
C198 H192 0.930 . S
C198 C199 1.355 . S
C198 C200 1.415 . S
C199 C198 1.355 . S
C199 C201 1.419 1_554 S
C200 C198 1.415 . S
C200 C205 1.425 1_554 S
C200 C207 1.409 . S
C201 H193 0.930 . S
C201 C199 1.419 1_556 S
C201 C202 1.362 . S
C202 H194 0.930 . S
C202 C201 1.362 . S
C202 C205 1.409 . S
C203 H195 0.930 . S
C203 C204 1.355 1_556 S
C203 C205 1.415 . S
C204 C203 1.355 1_554 S
C204 C206 1.419 . S
C205 C200 1.425 1_556 S
C205 C202 1.409 . S
C205 C203 1.415 . S
C206 H196 0.930 . S
C206 C204 1.419 . S
C206 C207 1.362 . S
C207 H197 0.930 . S
C207 C200 1.409 . S
C207 C206 1.362 . S
H208 C214 0.929 1_556 S
H209 C217 0.930 . S
H210 C218 0.930 . S
H211 C219 0.930 . S
H212 C222 0.930 . S
H213 C223 0.930 . S
C214 H208 0.929 1_554 S
C214 C215 1.355 . S
C214 C216 1.415 . S
C215 C214 1.355 . S
C215 C217 1.419 . S
C216 C214 1.415 . S
C216 C221 1.425 . S
C216 C223 1.409 1_554 S
C217 H209 0.930 . S
C217 C215 1.419 . S
C217 C218 1.362 . S
C218 H210 0.930 . S
C218 C217 1.362 . S
C218 C221 1.409 . S
C219 H211 0.930 . S
C219 C220 1.355 . S
C219 C221 1.415 . S
C220 C219 1.355 . S
C220 C222 1.419 1_554 S
C221 C216 1.425 . S
C221 C218 1.409 . S
C221 C219 1.415 . S
C222 H212 0.930 . S
C222 C220 1.419 1_556 S
C222 C223 1.362 . S
C223 H213 0.930 . S
C223 C216 1.409 1_556 S
C223 C222 1.362 . S
H224 C230 0.930 . S
H225 C233 0.930 . S
H226 C234 0.930 . S
H227 C235 0.930 1_556 S
H228 C238 0.930 . S
H229 C239 0.930 . S
C230 H224 0.930 . S
C230 C231 1.355 . S
C230 C232 1.415 . S
C231 C230 1.355 . S
C231 C233 1.419 1_554 S
C232 C230 1.415 . S
C232 C237 1.425 . S
C232 C239 1.409 . S
C233 H225 0.930 . S
C233 C231 1.419 1_556 S
C233 C234 1.362 . S
C234 H226 0.930 . S
C234 C233 1.362 . S
C234 C237 1.409 1_556 S
C235 H227 0.930 1_554 S
C235 C236 1.355 . S
C235 C237 1.415 . S
C236 C235 1.355 . S
C236 C238 1.419 . S
C237 C232 1.425 . S
C237 C234 1.409 1_554 S
C237 C235 1.415 . S
C238 H228 0.930 . S
C238 C236 1.419 . S
C238 C239 1.362 . S
C239 H229 0.930 . S
C239 C232 1.409 . S
C239 C238 1.362 . S
H240 C246 0.930 . S
H241 C249 0.930 . S
H242 C250 0.930 . S
H243 C251 0.930 . S
H244 C254 0.930 . S
H245 C255 0.930 . S
C246 H240 0.930 . S
C246 C247 1.355 . S
C246 C248 1.415 . S
C247 C246 1.355 . S
C247 C249 1.419 . S
C248 C246 1.415 . S
C248 C253 1.425 . S
C248 C255 1.409 . S
C249 H241 0.930 . S
C249 C247 1.419 . S
C249 C250 1.362 . S
C250 H242 0.930 . S
C250 C249 1.362 . S
C250 C253 1.409 . S
C251 H243 0.930 . S
C251 C252 1.355 . S
C251 C253 1.415 . S
C252 C251 1.355 . S
C252 C254 1.419 . S
C253 C248 1.425 . S
C253 C250 1.409 . S
C253 C251 1.415 . S
C254 H244 0.930 . S
C254 C252 1.419 . S
C254 C255 1.362 . S
C255 H245 0.930 . S
C255 C248 1.409 . S
C255 C254 1.362 . S
H256 C262 0.930 . S
H257 C265 0.930 . S
H258 C266 0.930 . S
H259 C267 0.930 . S
H260 C270 0.930 . S
H261 C271 0.930 . S
C262 H256 0.930 . S
C262 C263 1.355 . S
C262 C264 1.415 . S
C263 C262 1.355 . S
C263 C265 1.419 . S
C264 C262 1.415 . S
C264 C269 1.425 . S
C264 C271 1.409 . S
C265 H257 0.930 . S
C265 C263 1.419 . S
C265 C266 1.362 . S
C266 H258 0.930 . S
C266 C265 1.362 . S
C266 C269 1.409 . S
C267 H259 0.930 . S
C267 C268 1.355 . S
C267 C269 1.415 . S
C268 C267 1.355 . S
C268 C270 1.419 . S
C269 C264 1.425 . S
C269 C266 1.409 . S
C269 C267 1.415 . S
C270 H260 0.930 . S
C270 C268 1.419 . S
C270 C271 1.362 . S
C271 H261 0.930 . S
C271 C264 1.409 . S
C271 C270 1.362 . S
H272 C278 0.930 . S
H273 C281 0.930 . S
H274 C282 0.930 . S
H275 C283 0.930 . S
H276 C286 0.930 . S
H277 C287 0.930 . S
C278 H272 0.930 . S
C278 C279 1.355 . S
C278 C280 1.415 . S
C279 C278 1.355 . S
C279 C281 1.419 . S
C280 C278 1.415 . S
C280 C285 1.425 . S
C280 C287 1.409 . S
C281 H273 0.930 . S
C281 C279 1.419 . S
C281 C282 1.362 . S
C282 H274 0.930 . S
C282 C281 1.362 . S
C282 C285 1.409 . S
C283 H275 0.930 . S
C283 C284 1.355 . S
C283 C285 1.415 . S
C284 C283 1.355 . S
C284 C286 1.419 . S
C285 C280 1.425 . S
C285 C282 1.409 . S
C285 C283 1.415 . S
C286 H276 0.930 . S
C286 C284 1.419 . S
C286 C287 1.362 . S
C287 H277 0.930 . S
C287 C280 1.409 . S
C287 C286 1.362 . S
H288 C294 0.930 . S
H289 C297 0.930 . S
H290 C298 0.930 . S
H291 C299 0.930 . S
H292 C302 0.930 . S
H293 C303 0.930 . S
C294 H288 0.930 . S
C294 C295 1.355 . S
C294 C296 1.415 . S
C295 C294 1.355 . S
C295 C297 1.419 . S
C296 C294 1.415 . S
C296 C301 1.425 . S
C296 C303 1.409 . S
C297 H289 0.930 . S
C297 C295 1.419 . S
C297 C298 1.362 . S
C298 H290 0.930 . S
C298 C297 1.362 . S
C298 C301 1.409 . S
C299 H291 0.930 . S
C299 C300 1.355 . S
C299 C301 1.415 . S
C300 C299 1.355 . S
C300 C302 1.419 . S
C301 C296 1.425 . S
C301 C298 1.409 . S
C301 C299 1.415 . S
C302 H292 0.930 . S
C302 C300 1.419 . S
C302 C303 1.362 . S
C303 H293 0.930 . S
C303 C296 1.409 . S
C303 C302 1.362 . S
H304 C310 0.930 . S
H305 C313 0.930 . S
H306 C314 0.930 . S
H307 C315 0.930 . S
H308 C318 0.930 . S
H309 C319 0.911 1_655 S
C310 H304 0.930 . S
C310 C311 1.355 . S
C310 C312 1.415 . S
C311 C310 1.355 . S
C311 C313 1.419 . S
C312 C310 1.415 . S
C312 C317 1.425 . S
C312 C319 1.409 . S
C313 H305 0.930 . S
C313 C311 1.419 . S
C313 C314 1.362 . S
C314 H306 0.930 . S
C314 C313 1.362 . S
C314 C317 1.409 . S
C315 H307 0.930 . S
C315 C316 1.355 . S
C315 C317 1.415 . S
C316 C315 1.355 . S
C316 C318 1.419 . S
C317 C312 1.425 . S
C317 C314 1.409 . S
C317 C315 1.415 . S
C318 H308 0.930 . S
C318 C316 1.419 . S
C318 C319 1.362 . S
C319 H309 0.911 1_455 S
C319 C312 1.409 . S
C319 C318 1.362 . S
H320 C326 0.930 . S
H321 C329 0.930 . S
H322 C330 0.930 . S
H323 C331 0.930 . S
H324 C334 0.930 . S
H325 C335 0.930 . S
C326 H320 0.930 . S
C326 C327 1.355 . S
C326 C328 1.415 . S
C327 C326 1.355 . S
C327 C329 1.419 . S
C328 C326 1.415 . S
C328 C333 1.425 . S
C328 C335 1.409 . S
C329 H321 0.930 . S
C329 C327 1.419 . S
C329 C330 1.362 . S
C330 H322 0.930 . S
C330 C329 1.362 . S
C330 C333 1.409 . S
C331 H323 0.930 . S
C331 C332 1.355 . S
C331 C333 1.415 . S
C332 C331 1.355 . S
C332 C334 1.419 . S
C333 C328 1.425 . S
C333 C330 1.409 . S
C333 C331 1.415 . S
C334 H324 0.930 . S
C334 C332 1.419 . S
C334 C335 1.362 . S
C335 H325 0.930 . S
C335 C328 1.409 . S
C335 C334 1.362 . S
H336 C342 0.930 1_455 S
H337 C345 0.930 . S
H338 C346 0.930 . S
H339 C347 0.930 . S
H340 C350 0.930 . S
H341 C351 0.930 1_455 S
C342 H336 0.930 1_655 S
C342 C343 1.355 . S
C342 C344 1.415 . S
C343 C342 1.355 . S
C343 C345 1.419 . S
C344 C342 1.415 . S
C344 C349 1.425 . S
C344 C351 1.409 . S
C345 H337 0.930 . S
C345 C343 1.419 . S
C345 C346 1.362 . S
C346 H338 0.930 . S
C346 C345 1.362 . S
C346 C349 1.409 . S
C347 H339 0.930 . S
C347 C348 1.355 . S
C347 C349 1.415 . S
C348 C347 1.355 . S
C348 C350 1.419 . S
C349 C344 1.425 . S
C349 C346 1.409 . S
C349 C347 1.415 . S
C350 H340 0.930 . S
C350 C348 1.419 . S
C350 C351 1.362 . S
C351 H341 0.930 1_655 S
C351 C344 1.409 . S
C351 C350 1.362 . S
H352 C358 0.930 . S
H353 C361 0.930 1_545 S
H354 C362 0.930 1_545 S
H355 C363 0.930 . S
H356 C366 0.930 . S
H357 C367 0.930 . S
C358 H352 0.930 . S
C358 C359 1.355 . S
C358 C360 1.415 . S
C359 C358 1.355 . S
C359 C361 1.419 . S
C360 C358 1.415 . S
C360 C365 1.425 . S
C360 C367 1.409 . S
C361 H353 0.930 1_565 S
C361 C359 1.419 . S
C361 C362 1.362 . S
C362 H354 0.930 1_565 S
C362 C361 1.362 . S
C362 C365 1.409 . S
C363 H355 0.930 . S
C363 C364 1.355 . S
C363 C365 1.415 . S
C364 C363 1.355 . S
C364 C366 1.419 . S
C365 C360 1.425 . S
C365 C362 1.409 . S
C365 C363 1.415 . S
C366 H356 0.930 . S
C366 C364 1.419 . S
C366 C367 1.362 . S
C367 H357 0.930 . S
C367 C360 1.409 . S
C367 C366 1.362 . S
H368 C374 0.930 . S
H369 C377 0.930 . S
H370 C378 0.930 . S
H371 C379 0.930 . S
H372 C382 0.930 . S
H373 C383 0.930 . S
C374 H368 0.930 . S
C374 C375 1.355 . S
C374 C376 1.415 . S
C375 C374 1.355 . S
C375 C377 1.419 . S
C376 C374 1.415 . S
C376 C381 1.425 . S
C376 C383 1.409 . S
C377 H369 0.930 . S
C377 C375 1.419 . S
C377 C378 1.362 . S
C378 H370 0.930 . S
C378 C377 1.362 . S
C378 C381 1.409 . S
C379 H371 0.930 . S
C379 C380 1.355 . S
C379 C381 1.415 . S
C380 C379 1.355 . S
C380 C382 1.419 . S
C381 C376 1.425 . S
C381 C378 1.409 . S
C381 C379 1.415 . S
C382 H372 0.930 . S
C382 C380 1.419 . S
C382 C383 1.362 . S
C383 H373 0.930 . S
C383 C376 1.409 . S
C383 C382 1.362 . S
H384 C390 0.930 . S
H385 C393 0.930 . S
H386 C394 0.930 . S
H387 C395 0.930 . S
H388 C398 0.930 . S
H389 C399 0.930 . S
C390 H384 0.930 . S
C390 C391 1.355 . S
C390 C392 1.415 . S
C391 C390 1.355 . S
C391 C393 1.419 . S
C392 C390 1.415 . S
C392 C397 1.425 . S
C392 C399 1.409 . S
C393 H385 0.930 . S
C393 C391 1.419 . S
C393 C394 1.362 . S
C394 H386 0.930 . S
C394 C393 1.362 . S
C394 C397 1.409 . S
C395 H387 0.930 . S
C395 C396 1.355 . S
C395 C397 1.415 . S
C396 C395 1.355 . S
C396 C398 1.419 . S
C397 C392 1.425 . S
C397 C394 1.409 . S
C397 C395 1.415 . S
C398 H388 0.930 . S
C398 C396 1.419 . S
C398 C399 1.362 . S
C399 H389 0.930 . S
C399 C392 1.409 . S
C399 C398 1.362 . S
H400 C406 0.930 . S
H401 C409 0.946 . S
H402 C410 0.930 . S
H403 C411 0.930 . S
H404 C414 0.930 . S
H405 C415 0.930 . S
C406 H400 0.930 . S
C406 C407 1.355 . S
C406 C408 1.415 . S
C407 C406 1.355 . S
C407 C409 1.419 . S
C408 C406 1.415 . S
C408 C413 1.425 . S
C408 C415 1.409 . S
C409 H401 0.946 . S
C409 C407 1.419 . S
C409 C410 1.362 . S
C410 H402 0.930 . S
C410 C409 1.362 . S
C410 C413 1.409 . S
C411 H403 0.930 . S
C411 C412 1.355 . S
C411 C413 1.415 . S
C412 C411 1.355 . S
C412 C414 1.419 . S
C413 C408 1.425 . S
C413 C410 1.409 . S
C413 C411 1.415 . S
C414 H404 0.930 . S
C414 C412 1.419 . S
C414 C415 1.362 . S
C415 H405 0.930 . S
C415 C408 1.409 . S
C415 C414 1.362 . S
H416 C422 0.930 . S
H417 C425 0.930 . S
H418 C426 0.930 . S
H419 C427 0.930 . S
H420 C430 0.930 . S
H421 C431 0.930 . S
C422 H416 0.930 . S
C422 C423 1.355 . S
C422 C424 1.415 . S
C423 C422 1.355 . S
C423 C425 1.419 . S
C424 C422 1.415 . S
C424 C429 1.425 . S
C424 C431 1.409 . S
C425 H417 0.930 . S
C425 C423 1.419 . S
C425 C426 1.362 . S
C426 H418 0.930 . S
C426 C425 1.362 . S
C426 C429 1.409 . S
C427 H419 0.930 . S
C427 C428 1.355 . S
C427 C429 1.415 . S
C428 C427 1.355 . S
C428 C430 1.419 . S
C429 C424 1.425 . S
C429 C426 1.409 . S
C429 C427 1.415 . S
C430 H420 0.930 . S
C430 C428 1.419 . S
C430 C431 1.362 . S
C431 H421 0.930 . S
C431 C424 1.409 . S
C431 C430 1.362 . S
H432 C438 0.930 . S
H433 C441 0.930 . S
H434 C442 0.930 . S
H435 C443 0.930 . S
H436 C446 0.930 . S
H437 C447 0.930 . S
C438 H432 0.930 . S
C438 C439 1.355 . S
C438 C440 1.415 . S
C439 C438 1.355 . S
C439 C441 1.419 . S
C440 C438 1.415 . S
C440 C445 1.425 . S
C440 C447 1.409 . S
C441 H433 0.930 . S
C441 C439 1.419 . S
C441 C442 1.362 . S
C442 H434 0.930 . S
C442 C441 1.362 . S
C442 C445 1.409 . S
C443 H435 0.930 . S
C443 C444 1.355 . S
C443 C445 1.415 . S
C444 C443 1.355 . S
C444 C446 1.419 . S
C445 C440 1.425 . S
C445 C442 1.409 . S
C445 C443 1.415 . S
C446 H436 0.930 . S
C446 C444 1.419 . S
C446 C447 1.362 . S
C447 H437 0.930 . S
C447 C440 1.409 . S
C447 C446 1.362 . S
H448 C454 0.930 . S
H449 C457 0.930 . S
H450 C458 0.930 . S
H451 C459 0.930 . S
H452 C462 0.930 . S
H453 C463 0.930 . S
C454 H448 0.930 . S
C454 C455 1.355 . S
C454 C456 1.415 . S
C455 C454 1.355 . S
C455 C457 1.419 . S
C456 C454 1.415 . S
C456 C461 1.425 . S
C456 C463 1.409 . S
C457 H449 0.930 . S
C457 C455 1.419 . S
C457 C458 1.362 . S
C458 H450 0.930 . S
C458 C457 1.362 . S
C458 C461 1.409 . S
C459 H451 0.930 . S
C459 C460 1.355 . S
C459 C461 1.415 . S
C460 C459 1.355 . S
C460 C462 1.419 . S
C461 C456 1.425 . S
C461 C458 1.409 . S
C461 C459 1.415 . S
C462 H452 0.930 . S
C462 C460 1.419 . S
C462 C463 1.362 . S
C463 H453 0.930 . S
C463 C456 1.409 . S
C463 C462 1.362 . S
H464 C470 0.930 . S
H465 C473 0.930 . S
H466 C474 0.930 . S
H467 C475 0.930 . S
H468 C478 0.930 . S
H469 C479 0.930 . S
C470 H464 0.930 . S
C470 C471 1.355 . S
C470 C472 1.415 . S
C471 C470 1.355 . S
C471 C473 1.419 . S
C472 C470 1.415 . S
C472 C477 1.425 . S
C472 C479 1.409 . S
C473 H465 0.930 . S
C473 C471 1.419 . S
C473 C474 1.362 . S
C474 H466 0.930 . S
C474 C473 1.362 . S
C474 C477 1.409 . S
C475 H467 0.930 . S
C475 C476 1.355 . S
C475 C477 1.415 . S
C476 C475 1.355 . S
C476 C478 1.419 . S
C477 C472 1.425 . S
C477 C474 1.409 . S
C477 C475 1.415 . S
C478 H468 0.930 . S
C478 C476 1.419 . S
C478 C479 1.362 . S
C479 H469 0.930 . S
C479 C472 1.409 . S
C479 C478 1.362 . S
H480 C486 0.930 . S
H481 C489 0.930 . S
H482 C490 0.930 . S
H483 C491 0.930 . S
H484 C494 0.930 . S
H485 C495 0.930 . S
C486 H480 0.930 . S
C486 C487 1.355 . S
C486 C488 1.415 . S
C487 C486 1.355 . S
C487 C489 1.419 . S
C488 C486 1.415 . S
C488 C493 1.425 . S
C488 C495 1.409 . S
C489 H481 0.930 . S
C489 C487 1.419 . S
C489 C490 1.362 . S
C490 H482 0.930 . S
C490 C489 1.362 . S
C490 C493 1.409 . S
C491 H483 0.930 . S
C491 C492 1.355 . S
C491 C493 1.415 . S
C492 C491 1.355 . S
C492 C494 1.419 . S
C493 C488 1.425 . S
C493 C490 1.409 . S
C493 C491 1.415 . S
C494 H484 0.930 . S
C494 C492 1.419 . S
C494 C495 1.362 . S
C495 H485 0.930 . S
C495 C488 1.409 . S
C495 C494 1.362 . S
H496 C502 0.930 . S
H497 C505 0.930 . S
H498 C506 0.930 . S
H499 C507 0.930 . S
H500 C510 0.930 . S
H501 C511 0.930 . S
C502 H496 0.930 . S
C502 C503 1.355 . S
C502 C504 1.415 . S
C503 C502 1.355 . S
C503 C505 1.419 . S
C504 C502 1.415 . S
C504 C509 1.425 . S
C504 C511 1.409 . S
C505 H497 0.930 . S
C505 C503 1.419 . S
C505 C506 1.362 . S
C506 H498 0.930 . S
C506 C505 1.362 . S
C506 C509 1.409 . S
C507 H499 0.930 . S
C507 C508 1.355 . S
C507 C509 1.415 . S
C508 C507 1.355 . S
C508 C510 1.419 . S
C509 C504 1.425 . S
C509 C506 1.409 . S
C509 C507 1.415 . S
C510 H500 0.930 . S
C510 C508 1.419 . S
C510 C511 1.362 . S
C511 H501 0.930 . S
C511 C504 1.409 . S
C511 C510 1.362 . S
H512 C518 0.930 . S
H513 C521 0.930 . S
H514 C522 0.930 . S
H515 C523 0.930 . S
H516 C526 0.930 . S
H517 C527 0.930 . S
C518 H512 0.930 . S
C518 C519 1.355 . S
C518 C520 1.415 . S
C519 C518 1.355 . S
C519 C521 1.419 . S
C520 C518 1.415 . S
C520 C525 1.425 . S
C520 C527 1.409 . S
C521 H513 0.930 . S
C521 C519 1.419 . S
C521 C522 1.362 . S
C522 H514 0.930 . S
C522 C521 1.362 . S
C522 C525 1.409 . S
C523 H515 0.930 . S
C523 C524 1.355 . S
C523 C525 1.415 . S
C524 C523 1.355 . S
C524 C526 1.419 . S
C525 C520 1.425 . S
C525 C522 1.409 . S
C525 C523 1.415 . S
C526 H516 0.930 . S
C526 C524 1.419 . S
C526 C527 1.362 . S
C527 H517 0.930 . S
C527 C520 1.409 . S
C527 C526 1.362 . S
H528 C534 0.930 . S
H529 C537 0.930 . S
H530 C538 0.930 . S
H531 C539 0.930 . S
H532 C542 0.930 . S
H533 C543 0.930 . S
C534 H528 0.930 . S
C534 C535 1.355 . S
C534 C536 1.415 . S
C535 C534 1.355 . S
C535 C537 1.419 . S
C536 C534 1.415 . S
C536 C541 1.425 . S
C536 C543 1.409 . S
C537 H529 0.930 . S
C537 C535 1.419 . S
C537 C538 1.362 . S
C538 H530 0.930 . S
C538 C537 1.362 . S
C538 C541 1.409 . S
C539 H531 0.930 . S
C539 C540 1.355 . S
C539 C541 1.415 . S
C540 C539 1.355 . S
C540 C542 1.419 . S
C541 C536 1.425 . S
C541 C538 1.409 . S
C541 C539 1.415 . S
C542 H532 0.930 . S
C542 C540 1.419 . S
C542 C543 1.362 . S
C543 H533 0.930 . S
C543 C536 1.409 . S
C543 C542 1.362 . S
H544 C550 0.930 . S
H545 C553 0.930 . S
H546 C554 0.930 . S
H547 C555 0.930 . S
H548 C558 0.930 . S
H549 C559 0.930 . S
C550 H544 0.930 . S
C550 C551 1.355 . S
C550 C552 1.415 . S
C551 C550 1.355 . S
C551 C553 1.419 . S
C552 C550 1.415 . S
C552 C557 1.425 . S
C552 C559 1.409 . S
C553 H545 0.930 . S
C553 C551 1.419 . S
C553 C554 1.362 . S
C554 H546 0.930 . S
C554 C553 1.362 . S
C554 C557 1.409 . S
C555 H547 0.930 . S
C555 C556 1.355 . S
C555 C557 1.415 . S
C556 C555 1.355 . S
C556 C558 1.419 . S
C557 C552 1.425 . S
C557 C554 1.409 . S
C557 C555 1.415 . S
C558 H548 0.930 . S
C558 C556 1.419 . S
C558 C559 1.362 . S
C559 H549 0.930 . S
C559 C552 1.409 . S
C559 C558 1.362 . S
C183 C45 1.514 . S
C188 C111 1.529 . S
C199 C30 1.526 . S
C204 C120 1.537 . S
C215 C39 1.553 . S
C220 C129 1.559 . S
C236 C138 1.530 . S
C231 C34 1.515 . S
C247 C97 1.535 . S
C252 C147 1.547 . S
C268 C156 1.538 . S
C263 C82 1.523 . S
C284 C165 1.553 . S
C279 C91 1.550 . S
C300 C174 1.536 . S
C295 C86 1.523 . S
C316 C163 1.460 . S
C311 C26 1.418 . S
C332 C171 1.454 . S
C327 C36 1.399 . S
C348 C144 1.473 . S
C343 C32 1.438 . S
C364 C153 1.458 . S
C359 C42 1.409 . S
C375 C18 1.489 . S
C380 C154 1.542 . S
C396 C162 1.512 . S
C391 C50 1.439 . S
C407 C4 1.475 . S
C412 C172 1.537 . S
C423 C48 1.492 . S
C428 C145 1.545 . S
C444 C127 1.483 . S
C439 C78 1.461 . S
C455 C88 1.435 . S
C460 C135 1.471 . S
C476 C108 1.461 . S
C471 C84 1.414 . S
C492 C117 1.480 . S
C487 C94 1.452 . S
C508 C118 1.536 . S
C503 C70 1.475 . S
C524 C126 1.553 . S
C519 C102 1.517 . S
C535 C56 1.475 . S
C540 C136 1.535 . S
C551 C100 1.467 . S
C556 C109 1.532 . S
