# Generated by pormake.
# Topology rtl, (3,6)-cn, num edge types: 1
# Building blocks:
#     Node 0, Type 0, BuildingBlock: PAMTOO_clean_linker_0, # of connection points: 3
#     Node 1, Type 0, BuildingBlock: PAMTOO_clean_linker_0, # of connection points: 3
#     Node 2, Type 0, BuildingBlock: PAMTOO_clean_linker_0, # of connection points: 3
#     Node 3, Type 0, BuildingBlock: PAMTOO_clean_linker_0, # of connection points: 3
#     Node 4, Type 1, BuildingBlock: KUMJIN_clean_sbu_1, # of connection points: 6
#     Node 5, Type 1, BuildingBlock: KUMJIN_clean_sbu_1, # of connection points: 6
#     Edge 6, Type (0, 1), BuildingBlock: MIFKUJ_clean_linker_0, # of connection points: 2
#     Edge 7, Type (0, 1), BuildingBlock: MIFKUJ_clean_linker_0, # of connection points: 2
#     Edge 8, Type (0, 1), BuildingBlock: MIFKUJ_clean_linker_0, # of connection points: 2
#     Edge 9, Type (0, 1), BuildingBlock: MIFKUJ_clean_linker_0, # of connection points: 2
#     Edge 10, Type (0, 1), BuildingBlock: MIFKUJ_clean_linker_0, # of connection points: 2
#     Edge 11, Type (0, 1), BuildingBlock: MIFKUJ_clean_linker_0, # of connection points: 2
#     Edge 12, Type (0, 1), BuildingBlock: MIFKUJ_clean_linker_0, # of connection points: 2
#     Edge 13, Type (0, 1), BuildingBlock: MIFKUJ_clean_linker_0, # of connection points: 2
#     Edge 14, Type (0, 1), BuildingBlock: MIFKUJ_clean_linker_0, # of connection points: 2
#     Edge 15, Type (0, 1), BuildingBlock: MIFKUJ_clean_linker_0, # of connection points: 2
#     Edge 16, Type (0, 1), BuildingBlock: MIFKUJ_clean_linker_0, # of connection points: 2
#     Edge 17, Type (0, 1), BuildingBlock: MIFKUJ_clean_linker_0, # of connection points: 2
# Relax obj value: 0.051
# Max RMSD: 0.206
# Mean RMSD: 0.156
data_MOF--net-rtl--node1-KUMJIN_clean_sbu_1--node2-PAMTOO_clean_linker_0--edge1-MIFKUJ_clean_linker_0
_symmetry_space_group_name_H-M    P1
_symmetry_Int_Tables_number       1
_symmetry_cell_setting            triclinic
loop_
_symmetry_equiv_pos_as_xyz
'x, y, z'
_cell_length_a     45.331364
_cell_length_b     45.408668
_cell_length_c     34.292494
_cell_angle_alpha  81.861257
_cell_angle_beta   99.278034
_cell_angle_gamma 91.250659
loop_
_atom_site_label
_atom_site_type_symbol
_atom_site_fract_x
_atom_site_fract_y
_atom_site_fract_z
_atom_type_partial_charge
H0 H 0.17879 0.88001 0.01314 0.0
H1 H 0.23831 0.81653 0.09106 0.0
H2 H 0.23532 0.82477 0.96433 0.0
H3 H 0.23366 0.76439 0.00622 0.0
C4 C 0.2508 0.76658 0.03283 0.0
O5 O 0.25916 0.79597 0.03317 0.0
H6 H 0.24067 0.75867 0.05992 0.0
C7 C 0.19617 0.8633 0.01749 0.0
C8 C 0.20593 0.85457 0.98402 0.0
C9 C 0.20771 0.85 0.05636 0.0
C10 C 0.22902 0.82714 0.06144 0.0
C11 C 0.23872 0.818 0.02819 0.0
C12 C 0.22735 0.83182 0.98968 0.0
H13 H 0.65736 0.65632 0.61982 0.0
H14 H 0.71938 0.7157 0.56564 0.0
H15 H 0.70995 0.71749 0.68778 0.0
H16 H 0.71896 0.77755 0.64299 0.0
C17 C 0.73051 0.77066 0.61945 0.0
O18 O 0.73774 0.74083 0.62919 0.0
H19 H 0.715 0.7745 0.59054 0.0
C20 C 0.67384 0.67394 0.62176 0.0
C21 C 0.68175 0.68566 0.65787 0.0
C22 C 0.68726 0.68456 0.58826 0.0
C23 C 0.7086 0.70739 0.59103 0.0
C24 C 0.71672 0.71923 0.62681 0.0
C25 C 0.70349 0.70822 0.66022 0.0
H26 H 0.86057 0.14272 0.06594 0.0
H27 H 0.79987 0.20661 0.99057 0.0
H28 H 0.80083 0.19262 0.11724 0.0
H29 H 0.74161 0.198 0.06478 0.0
C30 C 0.74673 0.21719 0.04287 0.0
O31 O 0.77694 0.22331 0.04945 0.0
H32 H 0.74026 0.21108 0.01237 0.0
C33 C 0.84333 0.15953 0.06229 0.0
C34 C 0.83223 0.16605 0.09597 0.0
C35 C 0.83162 0.17368 0.02395 0.0
C36 C 0.80887 0.19504 0.01977 0.0
C37 C 0.79792 0.20192 0.05342 0.0
C38 C 0.80939 0.1872 0.09138 0.0
H39 H 0.37719 0.35737 0.44511 0.0
H40 H 0.32172 0.29263 0.50311 0.0
H41 H 0.31847 0.30122 0.37631 0.0
H42 H 0.25964 0.29276 0.40181 0.0
C43 C 0.26637 0.2807 0.43246 0.0
O44 O 0.29632 0.27345 0.43756 0.0
H45 H 0.2625 0.29563 0.45423 0.0
C46 C 0.36078 0.33969 0.44364 0.0
C47 C 0.34935 0.33094 0.40642 0.0
C48 C 0.35113 0.32614 0.47886 0.0
C49 C 0.32956 0.30346 0.47645 0.0
C50 C 0.3178 0.29461 0.43954 0.0
C51 C 0.3279 0.30809 0.4047 0.0
Eu52 Eu 0.03473 0.97815 0.50795 0.0
C53 C 0.95377 0.08416 0.50937 0.0
N54 N 0.98353 0.08075 0.52332 0.0
C55 C 0.99294 0.13028 0.49355 0.0
C56 C 0.94257 0.11092 0.48618 0.0
C57 C 1.00306 0.10346 0.51654 0.0
C58 C 0.96263 0.13398 0.47802 0.0
C59 C 0.90337 0.06473 0.50696 0.0
C60 C 0.93447 0.0611 0.51934 0.0
C61 C 0.89223 0.09125 0.4836 0.0
C62 C 0.91175 0.11414 0.47285 0.0
Eu63 Eu 0.99813 0.03601 0.5652 0.0
N64 N 0.94578 0.03613 0.54348 0.0
C65 C 0.88423 0.04228 0.52019 0.0
C66 C 0.92693 0.01579 0.55955 0.0
C67 C 0.89608 0.01794 0.54719 0.0
H68 H 0.02633 0.101 0.52942 0.0
H69 H 0.88149 1.00136 0.55976 0.0
H70 H 0.9937 0.91559 0.5135 0.0
H71 H 0.15341 0.99527 0.56043 0.0
H72 H 0.93536 0.99867 0.58344 0.0
H73 H 0.86024 0.04429 0.51133 0.0
H74 H 0.10241 0.01028 0.52949 0.0
H75 H 0.00842 0.14823 0.48839 0.0
H76 H 0.86845 0.09474 0.47508 0.0
H77 H 0.90269 0.13459 0.4552 0.0
H78 H 1.00059 0.8625 0.54099 0.0
H79 H 0.95487 0.15492 0.46046 0.0
H80 H 0.16454 0.94262 0.58678 0.0
N81 N 0.03867 0.92719 0.53348 0.0
C82 C 0.06639 0.91743 0.55132 0.0
C83 C 0.01923 0.87774 0.5443 0.0
C84 C 0.07151 0.88716 0.56662 0.0
C85 C 0.01527 0.9079 0.52928 0.0
C86 C 0.04745 0.86732 0.56312 0.0
N87 N 0.08386 0.9672 0.54134 0.0
C88 C 0.10641 0.98759 0.54266 0.0
C89 C 0.11871 0.92827 0.57277 0.0
C90 C 0.08967 0.9379 0.55494 0.0
C91 C 0.14177 0.94924 0.57467 0.0
C92 C 0.13559 0.97901 0.55966 0.0
H93 H 0.05048 0.8439 0.57457 0.0
H94 H 0.10471 0.85446 0.59673 0.0
H95 H 0.14609 0.89032 0.60142 0.0
O96 O 0.05867 0.98851 0.45746 0.0
O97 O 0.04265 0.96891 0.57571 0.0
O98 O 0.04173 0.01467 0.59726 0.0
O99 O 0.03173 0.94871 0.46218 0.0
O100 O 0.05017 0.02657 0.49969 0.0
O101 O 0.04589 0.04659 0.55702 0.0
O102 O 0.97926 0.03534 0.62043 0.0
O103 O 0.99414 0.04415 0.49721 0.0
O104 O 0.98978 0.99758 0.47885 0.0
O105 O 1.00694 0.07196 0.60162 0.0
O106 O 0.98569 0.98658 0.57639 0.0
O107 O 0.98658 0.96979 0.51615 0.0
C108 C 0.04989 0.98662 0.60289 0.0
C109 C 0.03884 0.97044 0.39764 0.0
C110 C 0.0469 0.96255 0.33124 0.0
C111 C 0.0224 0.98125 0.31454 0.0
C112 C 0.01454 0.98905 0.3806 0.0
C113 C 1.00629 0.99431 0.33916 0.0
C114 C 0.05486 0.95719 0.37299 0.0
C115 C 0.05767 0.04627 0.52442 0.0
C116 C 0.04868 0.96536 0.44092 0.0
C117 C 0.10035 0.87764 0.58488 0.0
C118 C 0.12391 0.89809 0.58768 0.0
C119 C 0.98302 0.02594 0.47212 0.0
C120 C 0.96685 0.08287 0.63375 0.0
C121 C 0.93513 0.09973 0.67751 0.0
C122 C 0.92313 0.12181 0.64636 0.0
C123 C 0.95525 0.10587 0.60368 0.0
C124 C 0.95696 0.08013 0.67097 0.0
C125 C 0.93328 0.1249 0.60978 0.0
C126 C 0.97622 0.96843 0.5501 0.0
C127 C 0.98903 0.06175 0.62639 0.0
H128 H 0.01559 0.98562 0.2825 0.0
H129 H 1.00224 0.99963 0.3993 0.0
H130 H 0.98748 0.00869 0.3261 0.0
H131 H 0.07401 0.9433 0.38638 0.0
H132 H 0.90654 0.13732 0.65074 0.0
H133 H 0.96333 0.10949 0.57557 0.0
H134 H 0.96616 0.06284 0.69467 0.0
H135 H 0.9244 0.14239 0.58624 0.0
Eu136 Eu 0.48796 0.49101 0.9921 0.0
C137 C 0.59486 0.57097 0.04421 0.0
N138 N 0.59062 0.54165 0.05652 0.0
C139 C 0.64057 0.53057 0.04857 0.0
C140 C 0.62201 0.58109 0.032 0.0
C141 C 0.61312 0.52152 0.05987 0.0
C142 C 0.64493 0.56044 0.03414 0.0
C143 C 0.57606 0.62154 0.03234 0.0
C144 C 0.5721 0.59088 0.04442 0.0
C145 C 0.60263 0.63159 0.01869 0.0
C146 C 0.62554 0.61143 0.01854 0.0
Eu147 Eu 0.54405 0.52818 0.07583 0.0
N148 N 0.54686 0.58054 0.05846 0.0
C149 C 0.55363 0.64131 0.0356 0.0
C150 C 0.52617 0.60003 0.0648 0.0
C151 C 0.52882 0.63054 0.05254 0.0
H152 H 0.6097 0.49842 0.07084 0.0
H153 H 0.51198 0.64579 0.05682 0.0
H154 H 0.42831 0.53817 0.97191 0.0
H155 H 0.48887 0.3713 0.03794 0.0
H156 H 0.50782 0.59234 0.08002 0.0
H157 H 0.5558 0.66501 0.02658 0.0
H158 H 0.50894 0.42009 0.01204 0.0
H159 H 0.65827 0.51452 0.05085 0.0
H160 H 0.606 0.65503 0.00916 0.0
H161 H 0.64611 0.6196 0.00862 0.0
H162 H 0.37767 0.53956 0.98834 0.0
H163 H 0.66615 0.56736 0.02515 0.0
H164 H 0.4384 0.36833 0.05708 0.0
N165 N 0.43767 0.49437 1.00252 0.0
C166 C 0.42562 0.46885 0.01918 0.0
C167 C 0.39099 0.51963 0.99752 0.0
C168 C 0.39591 0.46809 0.02678 0.0
C169 C 0.42019 0.51903 0.98944 0.0
C170 C 0.37885 0.49415 0.01658 0.0
N171 N 0.47067 0.44415 0.01797 0.0
C172 C 0.48703 0.41885 0.02069 0.0
C173 C 0.42998 0.41562 0.04112 0.0
C174 C 0.44237 0.44288 0.02631 0.0
C175 C 0.44714 0.3897 0.04583 0.0
C176 C 0.47566 0.39128 0.03512 0.0
H177 H 0.35593 0.49453 0.02179 0.0
H178 H 0.36109 0.44021 0.04903 0.0
H179 H 0.39103 0.39438 0.06193 0.0
O180 O 0.50202 0.47037 0.94439 0.0
O181 O 0.49553 0.47015 0.05752 0.0
O182 O 0.49922 0.51088 0.08971 0.0
O183 O 0.45716 0.4874 0.93687 0.0
O184 O 0.53564 0.47384 0.00514 0.0
O185 O 0.55433 0.48007 0.07073 0.0
O186 O 0.5591 0.54982 0.12882 0.0
O187 O 0.55599 0.52754 0.01381 0.0
O188 O 0.51097 0.53421 0.97261 0.0
O189 O 0.56309 0.50221 0.1324 0.0
O190 O 0.49559 0.54399 0.06162 0.0
O191 O 0.48089 0.5403 0.99479 0.0
C192 C 0.49046 0.48344 0.08735 0.0
C193 C 0.47851 0.48655 0.87874 0.0
C194 C 0.46843 0.47984 0.80849 0.0
C195 C 0.48315 0.50687 0.79891 0.0
C196 C 0.49296 0.51348 0.8687 0.0
C197 C 0.49524 0.52359 0.8289 0.0
C198 C 0.46618 0.46989 0.84866 0.0
C199 C 0.55367 0.46621 0.03919 0.0
C200 C 0.47672 0.47505 0.92046 0.0
C201 C 0.38384 0.4412 0.04295 0.0
C202 C 0.40084 0.41504 0.05014 0.0
C203 C 0.53991 0.53882 0.97983 0.0
C204 C 0.59891 0.52648 0.17545 0.0
C205 C 0.63042 0.54238 0.23358 0.0
C206 C 0.65451 0.52669 0.22522 0.0
C207 C 0.6233 0.51091 0.16772 0.0
C208 C 0.60269 0.54243 0.20823 0.0
C209 C 0.65096 0.51122 0.19236 0.0
C210 C 0.47932 0.553 0.02667 0.0
C211 C 0.56913 0.52531 0.15089 0.0
H212 H 0.48503 0.51522 0.76822 0.0
H213 H 0.50255 0.52647 0.89166 0.0
H214 H 0.50646 0.5444 0.82129 0.0
H215 H 0.45536 0.44887 0.85668 0.0
H216 H 0.67614 0.52647 0.24406 0.0
H217 H 0.62093 0.49816 0.14305 0.0
H218 H 0.58382 0.55412 0.21467 0.0
H219 H 0.66964 0.49916 0.18622 0.0
H220 H 0.27594 0.23317 0.4926 0.0
H221 H 0.2422 0.1913 0.50663 0.0
H222 H 0.17942 0.22593 0.40272 0.0
H223 H 0.21303 0.26762 0.38867 0.0
H224 H 0.15231 0.21271 0.46689 0.0
H225 H 0.21985 0.16464 0.40216 0.0
H226 H 0.26885 0.14802 0.39097 0.0
H227 H 0.283 0.09712 0.50788 0.0
H228 H 0.23424 0.11378 0.51999 0.0
H229 H 0.08676 0.05394 0.45946 0.0
H230 H 0.12328 0.09217 0.44295 0.0
H231 H 0.11652 0.12905 0.5503 0.0
H232 H 0.0802 0.09074 0.56737 0.0
H233 H 0.1785 0.10572 0.4824 0.0
H234 H 0.1205 0.2025 0.53115 0.0
H235 H 0.06988 0.2209 0.53265 0.0
H236 H 0.03458 0.17556 0.43349 0.0
H237 H 0.08487 0.15657 0.43187 0.0
C238 C 0.25521 0.23143 0.47237 0.0
C239 C 0.24739 0.25325 0.43904 0.0
C240 C 0.23594 0.20757 0.48042 0.0
C241 C 0.20836 0.20534 0.45555 0.0
C242 C 0.20061 0.22712 0.42225 0.0
C243 C 0.21989 0.25082 0.4141 0.0
C244 C 0.18681 0.18126 0.46518 0.0
C245 C 0.15816 0.18933 0.47044 0.0
C246 C 0.19418 0.15071 0.46928 0.0
C247 C 0.22354 0.14072 0.46214 0.0
C248 C 0.23353 0.15013 0.42563 0.0
C249 C 0.26124 0.14065 0.41909 0.0
C250 C 0.27907 0.1216 0.44874 0.0
C251 C 0.26919 0.11192 0.48496 0.0
C252 C 0.24151 0.12136 0.49167 0.0
C253 C 0.09302 0.07012 0.47969 0.0
C254 C 0.08028 0.06929 0.51468 0.0
C255 C 0.11401 0.09193 0.4702 0.0
C256 C 0.12248 0.11363 0.4952 0.0
C257 C 0.11007 0.11274 0.53032 0.0
C258 C 0.0893 0.09076 0.54005 0.0
C259 C 0.14418 0.13727 0.48445 0.0
C260 C 0.17284 0.12912 0.47915 0.0
C261 C 0.13674 0.16779 0.47959 0.0
C262 C 0.10631 0.17794 0.48165 0.0
C263 C 0.10186 0.19634 0.50986 0.0
C264 C 0.07324 0.20683 0.51077 0.0
C265 C 0.04901 0.19933 0.48326 0.0
C266 C 0.05333 0.18122 0.45492 0.0
C267 C 0.08182 0.1704 0.4542 0.0
H268 H 0.02689 0.20758 0.48387 0.0
H269 H 0.3005 0.11427 0.44361 0.0
H270 H 0.2783 0.72295 0.09002 0.0
H271 H 0.31969 0.69059 0.08545 0.0
H272 H 0.32495 0.73588 0.96731 0.0
H273 H 0.28294 0.76793 0.97163 0.0
H274 H 0.32735 0.67797 0.96774 0.0
H275 H 0.37867 0.74606 0.04777 0.0
H276 H 0.38851 0.77588 0.10321 0.0
H277 H 0.39728 0.69603 0.18783 0.0
H278 H 0.38706 0.66571 0.1329 0.0
H279 H 0.46004 0.59553 0.96332 0.0
H280 H 0.4237 0.63534 0.96043 0.0
H281 H 0.41108 0.60256 0.08109 0.0
H282 H 0.4482 0.56375 0.08449 0.0
H283 H 0.41562 0.65936 0.07404 0.0
H284 H 0.35583 0.59256 0.99073 0.0
H285 H 0.34445 0.56476 0.93304 0.0
H286 H 0.3539 0.64477 0.85298 0.0
H287 H 0.36482 0.67309 0.90999 0.0
C288 C 0.28845 0.7261 0.06322 0.0
C289 C 0.27749 0.74786 0.03113 0.0
C290 C 0.31221 0.70772 0.06068 0.0
C291 C 0.32573 0.71097 0.02618 0.0
C292 C 0.31495 0.73295 0.99423 0.0
C293 C 0.29108 0.75129 0.99673 0.0
C294 C 0.35022 0.69053 0.02302 0.0
C295 C 0.34689 0.67424 0.9907 0.0
C296 C 0.37567 0.68546 0.053 0.0
C297 C 0.38185 0.70361 0.08618 0.0
C298 C 0.38246 0.73485 0.0782 0.0
C299 C 0.38815 0.75185 0.10954 0.0
C300 C 0.39346 0.73786 0.14902 0.0
C301 C 0.39315 0.70684 0.15723 0.0
C302 C 0.38744 0.68973 0.126 0.0
C303 C 0.44936 0.59688 0.98909 0.0
C304 C 0.45693 0.57667 0.02415 0.0
C305 C 0.42845 0.61949 0.98736 0.0
C306 C 0.41421 0.62183 0.02036 0.0
C307 C 0.42173 0.6014 0.05524 0.0
C308 C 0.44296 0.57919 0.05719 0.0
C309 C 0.3922 0.64594 0.01953 0.0
C310 C 0.39612 0.66313 0.05101 0.0
C311 C 0.36743 0.65201 0.98861 0.0
C312 C 0.36146 0.63482 0.95457 0.0
C313 C 0.35569 0.60413 0.96082 0.0
C314 C 0.34925 0.58832 0.92829 0.0
C315 C 0.34874 0.60293 0.88949 0.0
C316 C 0.3544 0.63345 0.88306 0.0
C317 C 0.36057 0.64941 0.91542 0.0
H318 H 0.34382 0.59062 0.86439 0.0
H319 H 0.39786 0.75106 0.17324 0.0
H320 H 0.7734 0.76368 0.57345 0.0
H321 H 0.81645 0.79588 0.56281 0.0
H322 H 0.79206 0.85216 0.64391 0.0
H323 H 0.74906 0.8201 0.65441 0.0
H324 H 0.80405 0.88465 0.57638 0.0
H325 H 0.85169 0.80515 0.67158 0.0
H326 H 0.86503 0.75299 0.69816 0.0
H327 H 0.90672 0.74547 0.59609 0.0
H328 H 0.89326 0.7975 0.56862 0.0
H329 H 0.9568 0.94898 0.62124 0.0
H330 H 0.91523 0.91497 0.63247 0.0
H331 H 0.90074 0.90324 0.50836 0.0
H332 H 0.94108 0.93829 0.4963 0.0
H333 H 0.90882 0.84884 0.5975 0.0
H334 H 0.85073 0.92553 0.49703 0.0
H335 H 0.8348 0.97708 0.4705 0.0
H336 H 0.81232 0.989 0.5842 0.0
H337 H 0.82883 0.93768 0.61161 0.0
C338 C 0.77757 0.7827 0.5894 0.0
C339 C 0.75823 0.78913 0.61526 0.0
C340 C 0.80212 0.80107 0.58333 0.0
C341 C 0.80769 0.82632 0.60286 0.0
C342 C 0.7883 0.83278 0.62861 0.0
C343 C 0.76384 0.81437 0.63477 0.0
C344 C 0.83309 0.8466 0.59549 0.0
C345 C 0.82694 0.87675 0.58128 0.0
C346 C 0.86301 0.83638 0.60133 0.0
C347 C 0.8712 0.80513 0.61786 0.0
C348 C 0.86349 0.7923 0.65464 0.0
C349 C 0.87111 0.76277 0.6699 0.0
C350 C 0.88664 0.7459 0.64878 0.0
C351 C 0.89465 0.75856 0.6124 0.0
C352 C 0.88706 0.78807 0.59699 0.0
C353 C 0.94463 0.93935 0.59625 0.0
C354 C 0.95215 0.94661 0.5578 0.0
C355 C 0.92093 0.91992 0.60275 0.0
C356 C 0.90464 0.90705 0.57109 0.0
C357 C 0.91268 0.91341 0.53302 0.0
C358 C 0.93597 0.93324 0.52631 0.0
C359 C 0.87955 0.88654 0.57804 0.0
C360 C 0.88584 0.8565 0.59246 0.0
C361 C 0.84974 0.89673 0.5722 0.0
C362 C 0.84157 0.92804 0.55654 0.0
C363 C 0.84301 0.93936 0.51658 0.0
C364 C 0.83366 0.96845 0.5013 0.0
C365 C 0.82246 0.98626 0.52561 0.0
C366 C 0.82094 0.97515 0.56539 0.0
C367 C 0.8304 0.94612 0.58084 0.0
H368 H 0.81504 0.0087 0.51367 0.0
H369 H 0.89253 0.72305 0.66065 0.0
H370 H 0.70526 0.22201 0.09195 0.0
H371 H 0.67438 0.2652 0.09415 0.0
H372 H 0.71713 0.31624 1.00298 0.0
H373 H 0.74812 0.27296 1.00076 0.0
H374 H 0.70906 0.3493 0.06235 0.0
H375 H 0.65084 0.28658 0.97719 0.0
H376 H 0.62754 0.23959 0.9598 0.0
H377 H 0.57661 0.23621 0.05563 0.0
H378 H 0.59994 0.283 0.07393 0.0
H379 H 0.55935 0.43244 0.98082 0.0
H380 H 0.5935 0.39117 0.98421 0.0
H381 H 0.62971 0.40135 0.10579 0.0
H382 H 0.59556 0.44295 0.10274 0.0
H383 H 0.59895 0.33817 0.0311 0.0
H384 H 0.70454 0.38363 0.12068 0.0
H385 H 0.72679 0.43219 0.13317 0.0
H386 H 0.68232 0.47264 0.01859 0.0
H387 H 0.66013 0.4243 0.00525 0.0
C388 C 0.70823 0.24254 0.07266 0.0
C389 C 0.72908 0.24425 0.04622 0.0
C390 C 0.69058 0.26716 0.07389 0.0
C391 C 0.69334 0.29389 0.04857 0.0
C392 C 0.71472 0.29588 0.02288 0.0
C393 C 0.73231 0.2712 0.02154 0.0
C394 C 0.67288 0.31924 0.04743 0.0
C395 C 0.68499 0.34685 0.05568 0.0
C396 C 0.64148 0.31619 0.03819 0.0
C397 C 0.62737 0.28811 0.02718 0.0
C398 C 0.63485 0.27568 0.99475 0.0
C399 C 0.62161 0.24911 0.9847 0.0
C400 C 0.60067 0.23488 0.00667 0.0
C401 C 0.59287 0.24723 0.03868 0.0
C402 C 0.60608 0.27378 0.04889 0.0
C403 C 0.57453 0.42602 0.00838 0.0
C404 C 0.57465 0.44114 0.04152 0.0
C405 C 0.594 0.40229 0.01026 0.0
C406 C 0.61424 0.39324 0.04515 0.0
C407 C 0.61445 0.40815 0.07841 0.0
C408 C 0.59485 0.4319 0.07662 0.0
C409 C 0.63505 0.36817 0.04642 0.0
C410 C 0.62301 0.34058 0.03815 0.0
C411 C 0.66647 0.37142 0.05499 0.0
C412 C 0.68046 0.4004 0.06217 0.0
C413 C 0.69965 0.40286 0.09808 0.0
C414 C 0.71222 0.43036 0.10533 0.0
C415 C 0.70588 0.45551 0.07676 0.0
C416 C 0.68711 0.45318 0.04077 0.0
C417 C 0.67452 0.42575 0.03337 0.0
H418 H 0.71555 0.47679 0.08247 0.0
H419 H 0.59043 0.21432 0.99883 0.0
H420 H 0.19639 0.90688 0.0672 0.0
H421 H 0.17275 0.92302 0.11941 0.0
H422 H 0.17146 0.83233 0.17738 0.0
H423 H 0.19379 0.81574 0.12371 0.0
H424 H 0.11935 0.85669 0.17355 0.0
H425 H 0.219 0.88622 0.21737 0.0
H426 H 0.26797 0.90975 0.21188 0.0
H427 H 0.22579 0.99534 0.1783 0.0
H428 H 0.1765 0.97229 0.18303 0.0
H429 H 0.06785 0.90546 0.34069 0.0
H430 H 0.09864 0.88406 0.2993 0.0
H431 H 0.09683 0.96786 0.22198 0.0
H432 H 0.06646 0.98954 0.2636 0.0
H433 H 0.15351 0.94335 0.24223 0.0
H434 H 0.05338 0.91159 0.19359 0.0
H435 H 1.00499 0.88718 0.20048 0.0
H436 H 0.04992 0.80419 0.24618 0.0
H437 H 0.09863 0.82823 0.24006 0.0
C438 C 0.1911 0.8903 0.09103 0.0
C439 C 0.19674 0.85995 0.09102 0.0
C440 C 0.17791 0.89964 0.12123 0.0
C441 C 0.17057 0.87897 0.15268 0.0
C442 C 0.17698 0.84872 0.15348 0.0
C443 C 0.19 0.83929 0.12298 0.0
C444 C 0.15448 0.88891 0.18305 0.0
C445 C 0.12719 0.87524 0.18919 0.0
C446 C 0.16436 0.91345 0.20305 0.0
C447 C 0.194 0.92747 0.2003 0.0
C448 C 0.22013 0.91003 0.20854 0.0
C449 C 0.24796 0.92329 0.20561 0.0
C450 C 0.24998 0.95401 0.19468 0.0
C451 C 0.22419 0.97155 0.18675 0.0
C452 C 0.1963 0.9584 0.18961 0.0
C453 C 0.0741 0.91935 0.31494 0.0
C454 C 0.06467 0.94918 0.30535 0.0
C455 C 0.09154 0.90704 0.29121 0.0
C456 C 0.09989 0.92433 0.25746 0.0
C457 C 0.09062 0.95413 0.2479 0.0
C458 C 0.07304 0.96641 0.27148 0.0
C459 C 0.11831 0.91144 0.23202 0.0
C460 C 0.14597 0.92457 0.22689 0.0
C461 C 0.10893 0.88625 0.21326 0.0
C462 C 0.07966 0.87178 0.21678 0.0
C463 C 0.05295 0.8882 0.20542 0.0
C464 C 0.02547 0.87442 0.20912 0.0
C465 C 0.02439 0.84417 0.22387 0.0
C466 C 0.05079 0.82762 0.23483 0.0
C467 C 0.07834 0.84131 0.23122 0.0
H468 H 1.00309 0.83354 0.22672 0.0
H469 H 0.27155 0.96424 0.19243 0.0
H470 H 0.70913 0.66648 0.73407 0.0
H471 H 0.68557 0.64388 0.79078 0.0
H472 H 0.59876 0.65576 0.7177 0.0
H473 H 0.62221 0.67801 0.66081 0.0
H474 H 0.6026 0.67165 0.79794 0.0
H475 H 0.62671 0.59125 0.72943 0.0
H476 H 0.66072 0.56189 0.70067 0.0
H477 H 0.71588 0.5425 0.81535 0.0
H478 H 0.68242 0.57216 0.84467 0.0
H479 H 0.51432 0.57651 0.91421 0.0
H480 H 0.53875 0.60281 0.86099 0.0
H481 H 0.62398 0.567 0.92186 0.0
H482 H 0.59909 0.53834 0.97279 0.0
H483 H 0.62252 0.56498 0.84885 0.0
H484 H 0.59916 0.64279 0.91966 0.0
H485 H 0.56684 0.67293 0.95005 0.0
H486 H 0.51336 0.69874 0.83559 0.0
H487 H 0.54506 0.6685 0.80448 0.0
C488 C 0.68501 0.66456 0.73028 0.0
C489 C 0.66749 0.67388 0.69302 0.0
C490 C 0.6716 0.65158 0.76261 0.0
C491 C 0.64043 0.64807 0.75838 0.0
C492 C 0.62283 0.6583 0.72159 0.0
C493 C 0.63625 0.67082 0.68911 0.0
C494 C 0.62625 0.63247 0.79169 0.0
C495 C 0.6067 0.64827 0.80897 0.0
C496 C 0.63226 0.6022 0.80668 0.0
C497 C 0.65225 0.58419 0.78913 0.0
C498 C 0.64623 0.58095 0.74843 0.0
C499 C 0.66538 0.56421 0.73204 0.0
C500 C 0.69049 0.55041 0.75614 0.0
C501 C 0.69645 0.55325 0.79671 0.0
C502 C 0.6774 0.57 0.81323 0.0
C503 C 0.53825 0.57408 0.9161 0.0
C504 C 0.55484 0.55561 0.94812 0.0
C505 C 0.55231 0.5895 0.88587 0.0
C506 C 0.58345 0.58761 0.88767 0.0
C507 C 0.6 0.56911 0.9197 0.0
C508 C 0.5858 0.55305 0.94927 0.0
C509 C 0.59868 0.60409 0.85563 0.0
C510 C 0.61846 0.58844 0.83836 0.0
C511 C 0.59322 0.63466 0.84116 0.0
C512 C 0.57438 0.65319 0.85977 0.0
C513 C 0.58042 0.65476 0.90098 0.0
C514 C 0.56222 0.67185 0.91835 0.0
C515 C 0.53805 0.68764 0.89481 0.0
C516 C 0.53208 0.68647 0.8538 0.0
C517 C 0.55018 0.6694 0.83626 0.0
H518 H 0.52398 0.70083 0.90834 0.0
H519 H 0.70529 0.53745 0.7434 0.0
H520 H 0.88983 0.16598 0.13297 0.0
H521 H 0.91115 0.13842 0.19756 0.0
H522 H 0.82409 0.10191 0.21173 0.0
H523 H 0.80255 0.13096 0.14802 0.0
H524 H 0.84859 0.11286 0.2787 0.0
H525 H 0.88181 0.06132 0.18348 0.0
H526 H 0.90454 0.05395 0.12493 0.0
H527 H 0.98917 0.08399 0.18127 0.0
H528 H 0.96684 0.092 0.23992 0.0
H529 H 0.94576 0.99426 0.42257 0.0
H530 H 0.91479 0.01325 0.35895 0.0
H531 H 0.94365 0.10256 0.374 0.0
H532 H 0.97658 0.08355 0.43576 0.0
H533 H 0.94298 0.05634 0.29223 0.0
H534 H 0.86064 0.13336 0.34682 0.0
H535 H 0.82853 0.13207 0.39868 0.0
H536 H 0.83304 0.03667 0.4189 0.0
H537 H 0.86435 0.03734 0.36641 0.0
C538 C 0.87532 0.15219 0.15014 0.0
C539 C 0.84465 0.15045 0.13578 0.0
C540 C 0.88751 0.13622 0.18683 0.0
C541 C 0.86941 0.11743 0.20922 0.0
C542 C 0.83858 0.11613 0.19506 0.0
C543 C 0.82626 0.13269 0.15874 0.0
C544 C 0.88267 0.09951 0.24758 0.0
C545 C 0.8692 0.10049 0.28151 0.0
C546 C 0.90896 0.0823 0.25119 0.0
C547 C 0.92256 0.0775 0.21599 0.0
C548 C 0.90521 0.06656 0.18327 0.0
C549 C 0.91804 0.06225 0.15007 0.0
C550 C 0.94826 0.06856 0.14934 0.0
C551 C 0.96575 0.07914 0.18186 0.0
C552 C 0.95302 0.08355 0.21511 0.0
C553 C 0.9455 0.01797 0.41238 0.0
C554 C 0.96323 0.03753 0.43465 0.0
C555 C 0.92765 0.02874 0.37621 0.0
C556 C 0.9265 0.05931 0.36242 0.0
C557 C 0.9438 0.07893 0.38473 0.0
C558 C 0.96237 0.06808 0.42021 0.0
C559 C 0.9094 0.07078 0.32303 0.0
C560 C 0.9223 0.06869 0.28907 0.0
C561 C 0.88193 0.08582 0.3191 0.0
C562 C 0.8653 0.08545 0.35306 0.0
C563 C 0.85491 0.11212 0.36246 0.0
C564 C 0.8366 0.11148 0.39171 0.0
C565 C 0.8285 0.08429 0.41175 0.0
C566 C 0.83919 0.05771 0.40318 0.0
C567 C 0.85735 0.05822 0.3738 0.0
H568 H 0.81424 0.08383 0.43429 0.0
H569 H 0.95815 0.0652 0.12361 0.0
H570 H 0.40874 0.3416 0.5061 0.0
H571 H 0.4272 0.3639 0.56589 0.0
H572 H 0.33963 0.35559 0.60038 0.0
H573 H 0.32054 0.33472 0.53924 0.0
H574 H 0.36032 0.40858 0.60836 0.0
H575 H 0.40022 0.31104 0.65024 0.0
H576 H 0.42731 0.26546 0.64569 0.0
H577 H 0.50834 0.31561 0.64062 0.0
H578 H 0.48165 0.36158 0.64458 0.0
H579 H 0.41394 0.45234 0.79924 0.0
H580 H 0.39319 0.42248 0.74719 0.0
H581 H 0.47323 0.43699 0.69409 0.0
H582 H 0.49429 0.46655 0.74635 0.0
H583 H 0.45427 0.37806 0.69981 0.0
H584 H 0.41208 0.47603 0.65355 0.0
H585 H 0.38429 0.52089 0.6593 0.0
H586 H 0.30632 0.4679 0.67489 0.0
H587 H 0.3338 0.42264 0.66978 0.0
C588 C 0.39333 0.34454 0.52632 0.0
C589 C 0.36306 0.33656 0.51762 0.0
C590 C 0.40405 0.35696 0.56086 0.0
C591 C 0.38492 0.36117 0.58799 0.0
C592 C 0.35486 0.3525 0.57997 0.0
C593 C 0.34403 0.3403 0.54517 0.0
C594 C 0.39596 0.37627 0.62332 0.0
C595 C 0.38055 0.40149 0.6288 0.0
C596 C 0.42267 0.36744 0.64966 0.0
C597 C 0.43886 0.33981 0.6474 0.0
C598 C 0.42377 0.3124 0.64786 0.0
C599 C 0.43906 0.28648 0.64544 0.0
C600 C 0.46951 0.28765 0.64279 0.0
C601 C 0.48475 0.31474 0.64265 0.0
C602 C 0.46956 0.34073 0.64504 0.0
C603 C 0.42719 0.44901 0.77661 0.0
C604 C 0.45571 0.46187 0.7768 0.0
C605 C 0.41524 0.43209 0.7468 0.0
C606 C 0.4316 0.42768 0.71666 0.0
C607 C 0.46023 0.44015 0.71706 0.0
C608 C 0.47211 0.45724 0.74671 0.0
C609 C 0.41878 0.41037 0.68438 0.0
C610 C 0.43388 0.38482 0.67953 0.0
C611 C 0.39166 0.41871 0.65883 0.0
C612 C 0.37509 0.44592 0.66172 0.0
C613 C 0.38908 0.47391 0.65854 0.0
C614 C 0.37337 0.49942 0.66161 0.0
C615 C 0.34358 0.49724 0.66757 0.0
C616 C 0.32941 0.46955 0.67034 0.0
C617 C 0.34504 0.44397 0.66733 0.0
H618 H 0.33146 0.51701 0.66994 0.0
H619 H 0.48131 0.26756 0.64091 0.0
H620 H 0.68514 0.62567 0.58001 0.0
H621 H 0.67401 0.6035 0.51814 0.0
H622 H 0.66081 0.69095 0.45019 0.0
H623 H 0.67227 0.71332 0.5121 0.0
H624 H 0.61533 0.64621 0.4286 0.0
H625 H 0.722 0.66111 0.44821 0.0
H626 H 0.77288 0.65692 0.48695 0.0
H627 H 0.76616 0.56164 0.50157 0.0
H628 H 0.71502 0.56528 0.46342 0.0
H629 H 0.6149 0.59959 0.23809 0.0
H630 H 0.62316 0.62554 0.29692 0.0
H631 H 0.66181 0.54567 0.3687 0.0
H632 H 0.65459 0.52018 0.30972 0.0
H633 H 0.69452 0.58939 0.38738 0.0
H634 H 0.58869 0.57252 0.37114 0.0
H635 H 0.53679 0.57456 0.33563 0.0
H636 H 0.54005 0.67003 0.31805 0.0
H637 H 0.59214 0.66854 0.35301 0.0
C638 C 0.67965 0.64015 0.55191 0.0
C639 C 0.6796 0.67121 0.55081 0.0
C640 C 0.6734 0.62748 0.51663 0.0
C641 C 0.66667 0.64561 0.47964 0.0
C642 C 0.66593 0.6766 0.47847 0.0
C643 C 0.67265 0.68933 0.51374 0.0
C644 C 0.66126 0.63208 0.44222 0.0
C645 C 0.63268 0.63412 0.41915 0.0
C646 C 0.68376 0.61572 0.43061 0.0
C647 C 0.71458 0.61348 0.45329 0.0
C648 C 0.73127 0.63927 0.45998 0.0
C649 C 0.76017 0.63699 0.48177 0.0
C650 C 0.77271 0.60904 0.4968 0.0
C651 C 0.7564 0.58329 0.48996 0.0
C652 C 0.72747 0.58544 0.46822 0.0
C653 C 0.62498 0.58761 0.26653 0.0
C654 C 0.63417 0.55792 0.26936 0.0
C655 C 0.6296 0.60239 0.3002 0.0
C656 C 0.64283 0.58753 0.33755 0.0
C657 C 0.65169 0.55774 0.34032 0.0
C658 C 0.64754 0.54315 0.30661 0.0
C659 C 0.64828 0.60304 0.37359 0.0
C660 C 0.677 0.60146 0.39652 0.0
C661 C 0.62574 0.61945 0.38533 0.0
C662 C 0.59443 0.62041 0.36431 0.0
C663 C 0.57842 0.59394 0.35943 0.0
C664 C 0.54895 0.595 0.33945 0.0
C665 C 0.53516 0.6224 0.32449 0.0
C666 C 0.55078 0.64881 0.32958 0.0
C667 C 0.58027 0.64788 0.3495 0.0
H668 H 0.51234 0.62318 0.30904 0.0
H669 H 0.7951 0.60732 0.51366 0.0
H670 H 0.88973 0.1663 0.01518 0.0
H671 H 0.90837 0.14986 0.95874 0.0
H672 H 0.81805 0.14619 0.89646 0.0
H673 H 0.79918 0.16223 0.95321 0.0
H674 H 0.85076 0.09616 0.89347 0.0
H675 H 0.8621 0.20216 0.86908 0.0
H676 H 0.87882 0.25161 0.88549 0.0
H677 H 0.97026 0.22275 0.90542 0.0
H678 H 0.95405 0.17295 0.88967 0.0
H679 H 0.8783 0.09874 0.69407 0.0
H680 H 0.86262 0.10595 0.7571 0.0
H681 H 0.95494 0.10698 0.81288 0.0
H682 H 0.97072 0.09969 0.74969 0.0
H683 H 0.92343 0.15614 0.82191 0.0
H684 H 0.91211 0.05087 0.84193 0.0
H685 H 0.8952 1.00161 0.82507 0.0
H686 H 0.8037 0.02895 0.81276 0.0
H687 H 0.82006 0.07858 0.82897 0.0
C688 C 0.87383 0.16197 0.98946 0.0
C689 C 0.84298 0.16557 0.9886 0.0
C690 C 0.88452 0.15272 0.95718 0.0
C691 C 0.8646 0.1469 0.92335 0.0
C692 C 0.83379 0.15055 0.9223 0.0
C693 C 0.82307 0.15999 0.95454 0.0
C694 C 0.87598 0.13691 0.88916 0.0
C695 C 0.86637 0.10941 0.87747 0.0
C696 C 0.89701 0.15382 0.86911 0.0
C697 C 0.90683 0.18373 0.87863 0.0
C698 C 0.88576 0.20627 0.87732 0.0
C699 C 0.89514 0.23438 0.88643 0.0
C700 C 0.92558 0.24029 0.89661 0.0
C701 C 0.94669 0.21812 0.8976 0.0
C702 C 0.93742 0.18996 0.88856 0.0
C703 C 0.8952 0.0999 0.72003 0.0
C704 C 0.9257 0.09872 0.71708 0.0
C705 C 0.88624 0.10392 0.75602 0.0
C706 C 0.90762 0.107 0.78967 0.0
C707 C 0.9381 0.10461 0.78725 0.0
C708 C 0.94707 0.10024 0.7513 0.0
C709 C 0.8981 0.11544 0.826 0.0
C710 C 0.908 0.14273 0.83807 0.0
C711 C 0.87731 0.09834 0.8463 0.0
C712 C 0.86733 0.06857 0.83629 0.0
C713 C 0.88838 0.0465 0.83524 0.0
C714 C 0.8789 0.01848 0.82588 0.0
C715 C 0.8484 0.01218 0.81774 0.0
C716 C 0.82732 0.03388 0.81902 0.0
C717 C 0.83669 0.06195 0.82833 0.0
H718 H 0.8411 0.99046 0.81054 0.0
H719 H 0.9328 0.26208 0.90363 0.0
H720 H 0.36468 0.30571 0.34426 0.0
H721 H 0.38584 0.33066 0.28683 0.0
H722 H 0.37993 0.41506 0.32917 0.0
H723 H 0.35791 0.39049 0.38564 0.0
H724 H 0.36414 0.42131 0.25073 0.0
H725 H 0.44597 0.37592 0.34557 0.0
H726 H 0.47373 0.33454 0.38961 0.0
H727 H 0.47745 0.28927 0.28873 0.0
H728 H 0.44933 0.33022 0.24414 0.0
H729 H 0.46447 0.50703 0.14262 0.0
H730 H 0.43872 0.48055 0.19437 0.0
H731 H 0.45428 0.39727 0.15394 0.0
H732 H 0.48242 0.42347 0.10472 0.0
H733 H 0.46344 0.38904 0.22941 0.0
H734 H 0.38135 0.43622 0.13415 0.0
H735 H 0.35316 0.47829 0.09201 0.0
H736 H 0.35113 0.52146 0.19497 0.0
H737 H 0.37902 0.47961 0.23785 0.0
C738 C 0.36747 0.32963 0.34095 0.0
C739 C 0.35994 0.34606 0.36978 0.0
C740 C 0.37983 0.34384 0.30834 0.0
C741 C 0.38498 0.37469 0.30403 0.0
C742 C 0.37636 0.39123 0.33193 0.0
C743 C 0.364 0.37709 0.36441 0.0
C744 C 0.40004 0.38983 0.2712 0.0
C745 C 0.38594 0.41437 0.2462 0.0
C746 C 0.42829 0.38056 0.26485 0.0
C747 C 0.44526 0.35597 0.29159 0.0
C748 C 0.4525 0.35703 0.33283 0.0
C749 C 0.46833 0.33367 0.35788 0.0
C750 C 0.47727 0.30925 0.342 0.0
C751 C 0.47046 0.30817 0.301 0.0
C752 C 0.45459 0.33145 0.27582 0.0
C753 C 0.4625 0.48305 0.14486 0.0
C754 C 0.47484 0.46739 0.1188 0.0
C755 C 0.44737 0.46793 0.17416 0.0
C756 C 0.44363 0.43689 0.17747 0.0
C757 C 0.45644 0.42123 0.15184 0.0
C758 C 0.47218 0.43628 0.12322 0.0
C759 C 0.4275 0.42057 0.20859 0.0
C760 C 0.44146 0.39583 0.23348 0.0
C761 C 0.39917 0.42976 0.21494 0.0
C762 C 0.38246 0.45491 0.18912 0.0
C763 C 0.37503 0.45477 0.14774 0.0
C764 C 0.3591 0.47855 0.12374 0.0
C765 C 0.3506 0.5026 0.14071 0.0
C766 C 0.35779 0.50285 0.18183 0.0
C767 C 0.37353 0.47906 0.20602 0.0
H768 H 0.33833 0.52099 0.122 0.0
H769 H 0.48954 0.29119 0.36144 0.0
H770 H 0.19503 0.91375 0.95906 0.0
H771 H 0.17039 0.93718 0.89374 0.0
H772 H 0.16313 0.85176 0.85169 0.0
H773 H 0.18766 0.82808 0.91718 0.0
H774 H 0.18084 0.89484 0.79712 0.0
H775 H 0.10328 0.88243 0.87822 0.0
H776 H 0.07985 0.88742 0.93703 0.0
H777 H 0.08377 0.98259 0.91062 0.0
H778 H 0.10766 0.97816 0.85194 0.0
H779 H 0.06605 0.92857 0.62961 0.0
H780 H 0.09681 0.90847 0.69223 0.0
H781 H 0.10531 0.99614 0.72735 0.0
H782 H 0.07537 0.01679 0.66378 0.0
H783 H 0.08803 0.95357 0.78547 0.0
H784 H 0.16631 0.9667 0.7065 0.0
H785 H 0.19488 0.96275 0.65206 0.0
H786 H 0.19072 0.86744 0.67539 0.0
H787 H 0.16217 0.87083 0.73008 0.0
C788 C 0.18811 0.89992 0.93595 0.0
C789 C 0.19306 0.86901 0.94339 0.0
C790 C 0.17402 0.91335 0.89865 0.0
C791 C 0.16447 0.89614 0.86808 0.0
C792 C 0.17024 0.86543 0.87494 0.0
C793 C 0.18437 0.85195 0.9123 0.0
C794 C 0.14836 0.9102 0.829 0.0
C795 C 0.16028 0.90729 0.79448 0.0
C796 C 0.12206 0.92723 0.82577 0.0
C797 C 0.10754 0.92995 0.86091 0.0
C798 C 0.09937 0.90442 0.88513 0.0
C799 C 0.08597 0.90715 0.91841 0.0
C800 C 0.0804 0.93531 0.92762 0.0
C801 C 0.08814 0.9608 0.90348 0.0
C802 C 0.10159 0.95819 0.87019 0.0
C803 C 0.07499 0.9438 0.65005 0.0
C804 C 0.06857 0.97443 0.64118 0.0
C805 C 0.09253 0.93219 0.68602 0.0
C806 C 0.10362 0.95085 0.71427 0.0
C807 C 0.09709 0.98138 0.70582 0.0
C808 C 0.07991 0.99312 0.6695 0.0
C809 C 0.12045 0.93806 0.75353 0.0
C810 C 0.10859 0.94112 0.7881 0.0
C811 C 0.14682 0.92118 0.75685 0.0
C812 C 0.1619 0.91903 0.72212 0.0
C813 C 0.17116 0.94491 0.69969 0.0
C814 C 0.18758 0.94276 0.66904 0.0
C815 C 0.19474 0.91485 0.66043 0.0
C816 C 0.18528 0.88903 0.68223 0.0
C817 C 0.16903 0.89105 0.71308 0.0
H818 H 0.20748 0.91324 0.6367 0.0
H819 H 0.07001 0.93737 0.9534 0.0
loop_
_geom_bond_atom_site_label_1
_geom_bond_atom_site_label_2
_geom_bond_distance
_geom_bond_site_symmetry_2
_ccdc_geom_bond_type
H0 C7 0.929 . S
H1 C10 0.930 . S
H2 C12 0.929 . S
H3 C4 0.969 . S
C4 H3 0.969 . S
C4 O5 1.550 . S
C4 H6 0.973 . S
O5 C4 1.550 . S
O5 C11 1.412 . S
H6 C4 0.973 . S
C7 H0 0.929 . S
C7 C8 1.400 1_554 S
C7 C9 1.364 . S
C8 C7 1.400 1_556 S
C8 C12 1.377 . S
C9 C7 1.364 . S
C9 C10 1.374 . S
C10 H1 0.930 . S
C10 C9 1.374 . S
C10 C11 1.383 . S
C11 O5 1.412 . S
C11 C10 1.383 . S
C11 C12 1.394 1_554 S
C12 H2 0.929 . S
C12 C8 1.377 . S
C12 C11 1.394 1_556 S
H13 C20 0.929 . S
H14 C23 0.930 . S
H15 C25 0.929 . S
H16 C17 0.969 . S
C17 H16 0.969 . S
C17 O18 1.550 . S
C17 H19 0.973 . S
O18 C17 1.550 . S
O18 C24 1.412 . S
H19 C17 0.973 . S
C20 H13 0.929 . S
C20 C21 1.400 . S
C20 C22 1.364 . S
C21 C20 1.400 . S
C21 C25 1.377 . S
C22 C20 1.364 . S
C22 C23 1.374 . S
C23 H14 0.930 . S
C23 C22 1.374 . S
C23 C24 1.383 . S
C24 O18 1.412 . S
C24 C23 1.383 . S
C24 C25 1.394 . S
C25 H15 0.929 . S
C25 C21 1.377 . S
C25 C24 1.394 . S
H26 C33 0.929 . S
H27 C36 0.930 1_556 S
H28 C38 0.929 . S
H29 C30 0.969 . S
C30 H29 0.969 . S
C30 O31 1.550 . S
C30 H32 0.973 1_554 S
O31 C30 1.550 . S
O31 C37 1.412 . S
H32 C30 0.973 1_556 S
C33 H26 0.929 . S
C33 C34 1.400 . S
C33 C35 1.364 . S
C34 C33 1.400 . S
C34 C38 1.377 . S
C35 C33 1.364 . S
C35 C36 1.374 . S
C36 H27 0.930 1_554 S
C36 C35 1.374 . S
C36 C37 1.383 . S
C37 O31 1.412 . S
C37 C36 1.383 . S
C37 C38 1.394 . S
C38 H28 0.929 . S
C38 C34 1.377 . S
C38 C37 1.394 . S
H39 C46 0.929 . S
H40 C49 0.930 . S
H41 C51 0.929 . S
H42 C43 0.969 . S
C43 H42 0.969 . S
C43 O44 1.550 . S
C43 H45 0.973 . S
O44 C43 1.550 . S
O44 C50 1.412 . S
H45 C43 0.973 . S
C46 H39 0.929 . S
C46 C47 1.400 . S
C46 C48 1.364 . S
C47 C46 1.400 . S
C47 C51 1.377 . S
C48 C46 1.364 . S
C48 C49 1.374 . S
C49 H40 0.930 . S
C49 C48 1.374 . S
C49 C50 1.383 . S
C50 O44 1.412 . S
C50 C49 1.383 . S
C50 C51 1.394 . S
C51 H41 0.929 . S
C51 C47 1.377 . S
C51 C50 1.394 . S
Eu52 N81 2.600 . S
Eu52 N87 2.562 . S
Eu52 O96 2.462 . S
Eu52 O97 2.373 . S
Eu52 O99 2.432 . S
Eu52 O100 2.291 1_565 S
Eu52 O104 2.335 1_465 S
Eu52 O107 2.372 1_455 S
Eu52 C116 2.787 . S
C53 N54 1.365 . S
C53 C56 1.405 . S
C53 C60 1.448 . S
N54 C53 1.365 . S
N54 C57 1.319 1_655 S
N54 Eu63 2.600 . S
C55 C57 1.397 . S
C55 C58 1.367 1_455 S
C55 H75 0.931 . S
C56 C53 1.405 . S
C56 C58 1.403 . S
C56 C62 1.439 . S
C57 N54 1.319 1_455 S
C57 C55 1.397 . S
C57 H68 0.930 . S
C58 C55 1.367 1_655 S
C58 C56 1.403 . S
C58 H79 0.929 . S
C59 C60 1.430 . S
C59 C61 1.387 . S
C59 C65 1.404 . S
C60 C53 1.448 . S
C60 C59 1.430 . S
C60 N64 1.351 . S
C61 C59 1.387 . S
C61 C62 1.374 . S
C61 H76 0.931 . S
C62 C56 1.439 . S
C62 C61 1.374 . S
C62 H77 0.931 . S
Eu63 N54 2.600 . S
Eu63 N64 2.562 . S
Eu63 O98 2.335 1_655 S
Eu63 O101 2.372 1_655 S
Eu63 O102 2.462 . S
Eu63 O103 2.373 . S
Eu63 O105 2.432 . S
Eu63 O106 2.291 1_545 S
Eu63 C127 2.787 . S
N64 C60 1.351 . S
N64 Eu63 2.562 . S
N64 C66 1.325 . S
C65 C59 1.404 . S
C65 C67 1.366 . S
C65 H73 0.930 . S
C66 N64 1.325 . S
C66 C67 1.416 . S
C66 H72 0.929 . S
C67 C65 1.366 . S
C67 C66 1.416 . S
C67 H69 0.930 . S
H68 C57 0.930 . S
H69 C67 0.930 . S
H70 C85 0.930 1_655 S
H71 C92 0.930 . S
H72 C66 0.929 . S
H73 C65 0.930 . S
H74 C88 0.929 . S
H75 C55 0.931 . S
H76 C61 0.931 . S
H77 C62 0.931 . S
H78 C83 0.931 1_655 S
H79 C58 0.929 . S
H80 C91 0.930 . S
N81 Eu52 2.600 . S
N81 C82 1.365 . S
N81 C85 1.319 . S
C82 N81 1.365 . S
C82 C84 1.405 . S
C82 C90 1.448 . S
C83 H78 0.931 1_455 S
C83 C85 1.397 . S
C83 C86 1.367 . S
C84 C82 1.405 . S
C84 C86 1.403 . S
C84 C117 1.439 . S
C85 H70 0.930 1_455 S
C85 N81 1.319 . S
C85 C83 1.397 . S
C86 C83 1.367 . S
C86 C84 1.403 . S
C86 H93 0.929 . S
N87 Eu52 2.562 . S
N87 C88 1.325 . S
N87 C90 1.351 . S
C88 H74 0.929 . S
C88 N87 1.325 . S
C88 C92 1.416 . S
C89 C90 1.430 . S
C89 C91 1.404 . S
C89 C118 1.387 . S
C90 C82 1.448 . S
C90 N87 1.351 . S
C90 C89 1.430 . S
C91 H80 0.930 . S
C91 C89 1.404 . S
C91 C92 1.366 . S
C92 H71 0.930 . S
C92 C88 1.416 . S
C92 C91 1.366 . S
H93 C86 0.929 . S
H94 C117 0.931 . S
H95 C118 0.931 . S
O96 Eu52 2.462 . S
O96 C116 1.252 . S
O97 Eu52 2.373 . S
O97 C108 1.249 . S
O98 Eu63 2.335 1_455 S
O98 C108 1.264 1_545 S
O99 Eu52 2.432 . S
O99 C116 1.268 . S
O100 Eu52 2.291 1_545 S
O100 C115 1.255 . S
O101 Eu63 2.372 1_455 S
O101 C115 1.257 . S
O102 Eu63 2.462 . S
O102 C127 1.252 . S
O103 Eu63 2.373 . S
O103 C119 1.249 . S
O104 Eu52 2.335 1_645 S
O104 C119 1.264 . S
O105 Eu63 2.432 . S
O105 C127 1.268 . S
O106 Eu63 2.291 1_565 S
O106 C126 1.255 . S
O107 Eu52 2.372 1_655 S
O107 C126 1.257 . S
C108 O97 1.249 . S
C108 O98 1.264 1_565 S
C109 C112 1.382 . S
C109 C114 1.390 . S
C109 C116 1.506 . S
C110 C111 1.398 . S
C110 C114 1.392 . S
C111 C110 1.398 . S
C111 C113 1.372 . S
C111 H128 0.931 . S
C112 C109 1.382 . S
C112 C113 1.390 . S
C112 H129 0.931 . S
C113 C111 1.372 . S
C113 C112 1.390 . S
C113 H130 0.929 . S
C114 C109 1.390 . S
C114 C110 1.392 . S
C114 H131 0.930 . S
C115 O100 1.255 . S
C115 O101 1.257 . S
C116 Eu52 2.787 . S
C116 O96 1.252 . S
C116 O99 1.268 . S
C116 C109 1.506 . S
C117 C84 1.439 . S
C117 H94 0.931 . S
C117 C118 1.374 . S
C118 C89 1.387 . S
C118 H95 0.931 . S
C118 C117 1.374 . S
C119 O103 1.249 . S
C119 O104 1.264 . S
C120 C123 1.382 . S
C120 C124 1.390 . S
C120 C127 1.506 . S
C121 C122 1.398 . S
C121 C124 1.392 . S
C122 C121 1.398 . S
C122 C125 1.372 . S
C122 H132 0.931 . S
C123 C120 1.382 . S
C123 C125 1.390 . S
C123 H133 0.931 . S
C124 C120 1.390 . S
C124 C121 1.392 . S
C124 H134 0.930 . S
C125 C122 1.372 . S
C125 C123 1.390 . S
C125 H135 0.929 . S
C126 O106 1.255 . S
C126 O107 1.257 . S
C127 Eu63 2.787 . S
C127 O102 1.252 . S
C127 O105 1.268 . S
C127 C120 1.506 . S
H128 C111 0.931 . S
H129 C112 0.931 . S
H130 C113 0.929 . S
H131 C114 0.930 . S
H132 C122 0.931 . S
H133 C123 0.931 . S
H134 C124 0.930 . S
H135 C125 0.929 . S
Eu136 N165 2.600 . S
Eu136 N171 2.562 1_556 S
Eu136 O180 2.462 . S
Eu136 O181 2.373 1_556 S
Eu136 O183 2.432 . S
Eu136 O184 2.291 1_556 S
Eu136 O188 2.335 . S
Eu136 O191 2.372 . S
Eu136 C200 2.787 . S
C137 N138 1.365 . S
C137 C140 1.405 . S
C137 C144 1.448 . S
N138 C137 1.365 . S
N138 C141 1.319 . S
N138 Eu147 2.600 . S
C139 C141 1.397 . S
C139 C142 1.367 . S
C139 H159 0.931 . S
C140 C137 1.405 . S
C140 C142 1.403 . S
C140 C146 1.439 . S
C141 N138 1.319 . S
C141 C139 1.397 . S
C141 H152 0.930 . S
C142 C139 1.367 . S
C142 C140 1.403 . S
C142 H163 0.929 . S
C143 C144 1.430 . S
C143 C145 1.387 . S
C143 C149 1.404 . S
C144 C137 1.448 . S
C144 C143 1.430 . S
C144 N148 1.351 . S
C145 C143 1.387 . S
C145 C146 1.374 . S
C145 H160 0.931 . S
C146 C140 1.439 . S
C146 C145 1.374 . S
C146 H161 0.931 . S
Eu147 N138 2.600 . S
Eu147 N148 2.562 . S
Eu147 O182 2.335 . S
Eu147 O185 2.372 . S
Eu147 O186 2.462 . S
Eu147 O187 2.373 1_554 S
Eu147 O189 2.432 . S
Eu147 O190 2.291 . S
Eu147 C211 2.787 . S
N148 C144 1.351 . S
N148 Eu147 2.562 . S
N148 C150 1.325 . S
C149 C143 1.404 . S
C149 C151 1.366 . S
C149 H157 0.930 . S
C150 N148 1.325 . S
C150 C151 1.416 . S
C150 H156 0.929 . S
C151 C149 1.366 . S
C151 C150 1.416 . S
C151 H153 0.930 . S
H152 C141 0.930 . S
H153 C151 0.930 . S
H154 C169 0.930 . S
H155 C176 0.930 . S
H156 C150 0.929 . S
H157 C149 0.930 . S
H158 C172 0.929 . S
H159 C139 0.931 . S
H160 C145 0.931 . S
H161 C146 0.931 . S
H162 C167 0.931 . S
H163 C142 0.929 . S
H164 C175 0.930 . S
N165 Eu136 2.600 . S
N165 C166 1.365 1_556 S
N165 C169 1.319 . S
C166 N165 1.365 1_554 S
C166 C168 1.405 . S
C166 C174 1.448 . S
C167 H162 0.931 . S
C167 C169 1.397 . S
C167 C170 1.367 1_556 S
C168 C166 1.405 . S
C168 C170 1.403 . S
C168 C201 1.439 . S
C169 H154 0.930 . S
C169 N165 1.319 . S
C169 C167 1.397 . S
C170 C167 1.367 1_554 S
C170 C168 1.403 . S
C170 H177 0.929 . S
N171 Eu136 2.562 1_554 S
N171 C172 1.325 . S
N171 C174 1.351 . S
C172 H158 0.929 . S
C172 N171 1.325 . S
C172 C176 1.416 . S
C173 C174 1.430 . S
C173 C175 1.404 . S
C173 C202 1.387 . S
C174 C166 1.448 . S
C174 N171 1.351 . S
C174 C173 1.430 . S
C175 H164 0.930 . S
C175 C173 1.404 . S
C175 C176 1.366 . S
C176 H155 0.930 . S
C176 C172 1.416 . S
C176 C175 1.366 . S
H177 C170 0.929 . S
H178 C201 0.931 . S
H179 C202 0.931 . S
O180 Eu136 2.462 . S
O180 C200 1.252 . S
O181 Eu136 2.373 1_554 S
O181 C192 1.249 . S
O182 Eu147 2.335 . S
O182 C192 1.264 . S
O183 Eu136 2.432 . S
O183 C200 1.268 . S
O184 Eu136 2.291 1_554 S
O184 C199 1.255 . S
O185 Eu147 2.372 . S
O185 C199 1.257 . S
O186 Eu147 2.462 . S
O186 C211 1.252 . S
O187 Eu147 2.373 1_556 S
O187 C203 1.249 . S
O188 Eu136 2.335 . S
O188 C203 1.264 . S
O189 Eu147 2.432 . S
O189 C211 1.268 . S
O190 Eu147 2.291 . S
O190 C210 1.255 . S
O191 Eu136 2.372 . S
O191 C210 1.257 1_556 S
C192 O181 1.249 . S
C192 O182 1.264 . S
C193 C196 1.382 . S
C193 C198 1.390 . S
C193 C200 1.506 . S
C194 C195 1.398 . S
C194 C198 1.392 . S
C195 C194 1.398 . S
C195 C197 1.372 . S
C195 H212 0.931 . S
C196 C193 1.382 . S
C196 C197 1.390 . S
C196 H213 0.931 . S
C197 C195 1.372 . S
C197 C196 1.390 . S
C197 H214 0.929 . S
C198 C193 1.390 . S
C198 C194 1.392 . S
C198 H215 0.930 . S
C199 O184 1.255 . S
C199 O185 1.257 . S
C200 Eu136 2.787 . S
C200 O180 1.252 . S
C200 O183 1.268 . S
C200 C193 1.506 . S
C201 C168 1.439 . S
C201 H178 0.931 . S
C201 C202 1.374 . S
C202 C173 1.387 . S
C202 H179 0.931 . S
C202 C201 1.374 . S
C203 O187 1.249 . S
C203 O188 1.264 . S
C204 C207 1.382 . S
C204 C208 1.390 . S
C204 C211 1.506 . S
C205 C206 1.398 . S
C205 C208 1.392 . S
C206 C205 1.398 . S
C206 C209 1.372 . S
C206 H216 0.931 . S
C207 C204 1.382 . S
C207 C209 1.390 . S
C207 H217 0.931 . S
C208 C204 1.390 . S
C208 C205 1.392 . S
C208 H218 0.930 . S
C209 C206 1.372 . S
C209 C207 1.390 . S
C209 H219 0.929 . S
C210 O190 1.255 . S
C210 O191 1.257 1_554 S
C211 Eu147 2.787 . S
C211 O186 1.252 . S
C211 O189 1.268 . S
C211 C204 1.506 . S
H212 C195 0.931 . S
H213 C196 0.931 . S
H214 C197 0.929 . S
H215 C198 0.930 . S
H216 C206 0.931 . S
H217 C207 0.931 . S
H218 C208 0.930 . S
H219 C209 0.929 . S
H220 C238 0.951 . S
H221 C240 0.951 . S
H222 C242 0.950 . S
H223 C243 0.950 . S
H224 C245 0.950 . S
H225 C248 0.950 . S
H226 C249 0.950 . S
H227 C251 0.950 . S
H228 C252 0.950 . S
H229 C253 0.951 . S
H230 C255 0.951 . S
H231 C257 0.950 . S
H232 C258 0.950 . S
H233 C260 0.950 . S
H234 C263 0.950 . S
H235 C264 0.950 . S
H236 C266 0.950 . S
H237 C267 0.950 . S
C238 H220 0.951 . S
C238 C239 1.366 . S
C238 C240 1.388 . S
C239 C238 1.366 . S
C239 C243 1.385 . S
C240 H221 0.951 . S
C240 C238 1.388 . S
C240 C241 1.366 . S
C241 C240 1.366 . S
C241 C242 1.414 . S
C241 C244 1.499 . S
C242 H222 0.950 . S
C242 C241 1.414 . S
C242 C243 1.374 . S
C243 H223 0.950 . S
C243 C239 1.385 . S
C243 C242 1.374 . S
C244 C241 1.499 . S
C244 C245 1.373 . S
C244 C246 1.389 . S
C245 H224 0.950 . S
C245 C244 1.373 . S
C245 C261 1.377 . S
C246 C244 1.389 . S
C246 C247 1.524 . S
C246 C260 1.377 . S
C247 C246 1.524 . S
C247 C248 1.397 . S
C247 C252 1.363 . S
C248 H225 0.950 . S
C248 C247 1.397 . S
C248 C249 1.334 . S
C249 H226 0.950 . S
C249 C248 1.334 . S
C249 C250 1.287 . S
C250 C249 1.287 . S
C250 C251 1.524 . S
C250 H269 0.913 . S
C251 H227 0.950 . S
C251 C250 1.524 . S
C251 C252 1.415 . S
C252 H228 0.950 . S
C252 C247 1.363 . S
C252 C251 1.415 . S
C253 H229 0.951 . S
C253 C254 1.366 . S
C253 C255 1.388 . S
C254 C253 1.366 . S
C254 C258 1.385 . S
C255 H230 0.951 . S
C255 C253 1.388 . S
C255 C256 1.366 . S
C256 C255 1.366 . S
C256 C257 1.414 . S
C256 C259 1.499 . S
C257 H231 0.950 . S
C257 C256 1.414 . S
C257 C258 1.374 . S
C258 H232 0.950 . S
C258 C254 1.385 . S
C258 C257 1.374 . S
C259 C256 1.499 . S
C259 C260 1.373 . S
C259 C261 1.389 . S
C260 H233 0.950 . S
C260 C246 1.377 . S
C260 C259 1.373 . S
C261 C245 1.377 . S
C261 C259 1.389 . S
C261 C262 1.524 . S
C262 C261 1.524 . S
C262 C263 1.397 . S
C262 C267 1.363 . S
C263 H234 0.950 . S
C263 C262 1.397 . S
C263 C264 1.334 . S
C264 H235 0.950 . S
C264 C263 1.334 . S
C264 C265 1.287 . S
C265 C264 1.287 . S
C265 C266 1.524 . S
C265 H268 0.999 . S
C266 H236 0.950 . S
C266 C265 1.524 . S
C266 C267 1.415 . S
C267 H237 0.950 . S
C267 C262 1.363 . S
C267 C266 1.415 . S
H268 C265 0.999 . S
H269 C250 0.913 . S
H270 C288 0.951 . S
H271 C290 0.951 . S
H272 C292 0.950 1_556 S
H273 C293 0.950 1_556 S
H274 C295 0.950 1_556 S
H275 C298 0.950 . S
H276 C299 0.950 . S
H277 C301 0.950 . S
H278 C302 0.950 . S
H279 C303 0.951 1_556 S
H280 C305 0.951 1_556 S
H281 C307 0.950 . S
H282 C308 0.950 . S
H283 C310 0.950 . S
H284 C313 0.950 1_554 S
H285 C314 0.950 . S
H286 C316 0.950 . S
H287 C317 0.950 . S
C288 H270 0.951 . S
C288 C289 1.366 . S
C288 C290 1.388 . S
C289 C288 1.366 . S
C289 C293 1.385 . S
C290 H271 0.951 . S
C290 C288 1.388 . S
C290 C291 1.366 . S
C291 C290 1.366 . S
C291 C292 1.414 . S
C291 C294 1.499 . S
C292 H272 0.950 1_554 S
C292 C291 1.414 . S
C292 C293 1.374 . S
C293 H273 0.950 1_554 S
C293 C289 1.385 . S
C293 C292 1.374 . S
C294 C291 1.499 . S
C294 C295 1.373 . S
C294 C296 1.389 . S
C295 H274 0.950 1_554 S
C295 C294 1.373 . S
C295 C311 1.377 . S
C296 C294 1.389 . S
C296 C297 1.524 . S
C296 C310 1.377 . S
C297 C296 1.524 . S
C297 C298 1.397 . S
C297 C302 1.363 . S
C298 H275 0.950 . S
C298 C297 1.397 . S
C298 C299 1.334 . S
C299 H276 0.950 . S
C299 C298 1.334 . S
C299 C300 1.287 . S
C300 C299 1.287 . S
C300 C301 1.524 . S
C300 H319 0.913 . S
C301 H277 0.950 . S
C301 C300 1.524 . S
C301 C302 1.415 . S
C302 H278 0.950 . S
C302 C297 1.363 . S
C302 C301 1.415 . S
C303 H279 0.951 1_554 S
C303 C304 1.366 . S
C303 C305 1.388 . S
C304 C303 1.366 . S
C304 C308 1.385 . S
C305 H280 0.951 1_554 S
C305 C303 1.388 . S
C305 C306 1.366 . S
C306 C305 1.366 . S
C306 C307 1.414 . S
C306 C309 1.499 . S
C307 H281 0.950 . S
C307 C306 1.414 . S
C307 C308 1.374 . S
C308 H282 0.950 . S
C308 C304 1.385 . S
C308 C307 1.374 . S
C309 C306 1.499 . S
C309 C310 1.373 . S
C309 C311 1.389 . S
C310 H283 0.950 . S
C310 C296 1.377 . S
C310 C309 1.373 . S
C311 C295 1.377 . S
C311 C309 1.389 . S
C311 C312 1.524 1_554 S
C312 C311 1.524 1_556 S
C312 C313 1.397 . S
C312 C317 1.363 . S
C313 H284 0.950 1_556 S
C313 C312 1.397 . S
C313 C314 1.334 . S
C314 H285 0.950 . S
C314 C313 1.334 . S
C314 C315 1.287 . S
C315 C314 1.287 . S
C315 C316 1.524 . S
C315 H318 0.999 . S
C316 H286 0.950 . S
C316 C315 1.524 . S
C316 C317 1.415 . S
C317 H287 0.950 . S
C317 C312 1.363 . S
C317 C316 1.415 . S
H318 C315 0.999 . S
H319 C300 0.913 . S
H320 C338 0.951 . S
H321 C340 0.951 . S
H322 C342 0.950 . S
H323 C343 0.950 . S
H324 C345 0.950 . S
H325 C348 0.950 . S
H326 C349 0.950 . S
H327 C351 0.950 . S
H328 C352 0.950 . S
H329 C353 0.951 . S
H330 C355 0.951 . S
H331 C357 0.950 . S
H332 C358 0.950 . S
H333 C360 0.950 . S
H334 C363 0.950 . S
H335 C364 0.950 . S
H336 C366 0.950 . S
H337 C367 0.950 . S
C338 H320 0.951 . S
C338 C339 1.366 . S
C338 C340 1.388 . S
C339 C338 1.366 . S
C339 C343 1.385 . S
C340 H321 0.951 . S
C340 C338 1.388 . S
C340 C341 1.366 . S
C341 C340 1.366 . S
C341 C342 1.414 . S
C341 C344 1.499 . S
C342 H322 0.950 . S
C342 C341 1.414 . S
C342 C343 1.374 . S
C343 H323 0.950 . S
C343 C339 1.385 . S
C343 C342 1.374 . S
C344 C341 1.499 . S
C344 C345 1.373 . S
C344 C346 1.389 . S
C345 H324 0.950 . S
C345 C344 1.373 . S
C345 C361 1.377 . S
C346 C344 1.389 . S
C346 C347 1.524 . S
C346 C360 1.377 . S
C347 C346 1.524 . S
C347 C348 1.397 . S
C347 C352 1.363 . S
C348 H325 0.950 . S
C348 C347 1.397 . S
C348 C349 1.334 . S
C349 H326 0.950 . S
C349 C348 1.334 . S
C349 C350 1.287 . S
C350 C349 1.287 . S
C350 C351 1.524 . S
C350 H369 0.913 . S
C351 H327 0.950 . S
C351 C350 1.524 . S
C351 C352 1.415 . S
C352 H328 0.950 . S
C352 C347 1.363 . S
C352 C351 1.415 . S
C353 H329 0.951 . S
C353 C354 1.366 . S
C353 C355 1.388 . S
C354 C353 1.366 . S
C354 C358 1.385 . S
C355 H330 0.951 . S
C355 C353 1.388 . S
C355 C356 1.366 . S
C356 C355 1.366 . S
C356 C357 1.414 . S
C356 C359 1.499 . S
C357 H331 0.950 . S
C357 C356 1.414 . S
C357 C358 1.374 . S
C358 H332 0.950 . S
C358 C354 1.385 . S
C358 C357 1.374 . S
C359 C356 1.499 . S
C359 C360 1.373 . S
C359 C361 1.389 . S
C360 H333 0.950 . S
C360 C346 1.377 . S
C360 C359 1.373 . S
C361 C345 1.377 . S
C361 C359 1.389 . S
C361 C362 1.524 . S
C362 C361 1.524 . S
C362 C363 1.397 . S
C362 C367 1.363 . S
C363 H334 0.950 . S
C363 C362 1.397 . S
C363 C364 1.334 . S
C364 H335 0.950 . S
C364 C363 1.334 . S
C364 C365 1.287 . S
C365 C364 1.287 . S
C365 C366 1.524 . S
C365 H368 0.999 . S
C366 H336 0.950 . S
C366 C365 1.524 . S
C366 C367 1.415 . S
C367 H337 0.950 . S
C367 C362 1.363 . S
C367 C366 1.415 . S
H368 C365 0.999 . S
H369 C350 0.913 . S
H370 C388 0.951 . S
H371 C390 0.951 . S
H372 C392 0.950 . S
H373 C393 0.950 . S
H374 C395 0.950 . S
H375 C398 0.950 . S
H376 C399 0.950 . S
H377 C401 0.950 . S
H378 C402 0.950 1_554 S
H379 C403 0.951 1_556 S
H380 C405 0.951 1_556 S
H381 C407 0.950 . S
H382 C408 0.950 . S
H383 C410 0.952 . S
H384 C413 0.950 . S
H385 C414 0.950 . S
H386 C416 0.950 . S
H387 C417 0.950 . S
C388 H370 0.951 . S
C388 C389 1.366 . S
C388 C390 1.388 . S
C389 C388 1.366 . S
C389 C393 1.385 1_554 S
C390 H371 0.951 . S
C390 C388 1.388 . S
C390 C391 1.366 . S
C391 C390 1.366 . S
C391 C392 1.414 1_554 S
C391 C394 1.499 . S
C392 H372 0.950 . S
C392 C391 1.414 1_556 S
C392 C393 1.374 . S
C393 H373 0.950 . S
C393 C389 1.385 1_556 S
C393 C392 1.374 . S
C394 C391 1.499 . S
C394 C395 1.373 . S
C394 C396 1.389 . S
C395 H374 0.950 . S
C395 C394 1.373 . S
C395 C411 1.377 . S
C396 C394 1.389 . S
C396 C397 1.524 1_554 S
C396 C410 1.377 . S
C397 C396 1.524 1_556 S
C397 C398 1.397 . S
C397 C402 1.363 . S
C398 H375 0.950 . S
C398 C397 1.397 . S
C398 C399 1.334 . S
C399 H376 0.950 . S
C399 C398 1.334 . S
C399 C400 1.287 . S
C400 C399 1.287 . S
C400 C401 1.524 . S
C400 H419 0.913 . S
C401 H377 0.950 . S
C401 C400 1.524 . S
C401 C402 1.415 . S
C402 H378 0.950 1_556 S
C402 C397 1.363 . S
C402 C401 1.415 . S
C403 H379 0.951 1_554 S
C403 C404 1.366 . S
C403 C405 1.388 . S
C404 C403 1.366 . S
C404 C408 1.385 . S
C405 H380 0.951 1_554 S
C405 C403 1.388 . S
C405 C406 1.366 . S
C406 C405 1.366 . S
C406 C407 1.414 . S
C406 C409 1.499 . S
C407 H381 0.950 . S
C407 C406 1.414 . S
C407 C408 1.374 . S
C408 H382 0.950 . S
C408 C404 1.385 . S
C408 C407 1.374 . S
C409 C406 1.499 . S
C409 C410 1.373 . S
C409 C411 1.389 . S
C410 H383 0.952 . S
C410 C396 1.377 . S
C410 C409 1.373 . S
C411 C395 1.377 . S
C411 C409 1.389 . S
C411 C412 1.524 . S
C412 C411 1.524 . S
C412 C413 1.397 . S
C412 C417 1.363 . S
C413 H384 0.950 . S
C413 C412 1.397 . S
C413 C414 1.334 . S
C414 H385 0.950 . S
C414 C413 1.334 . S
C414 C415 1.287 . S
C415 C414 1.287 . S
C415 C416 1.524 . S
C415 H418 0.999 . S
C416 H386 0.950 . S
C416 C415 1.524 . S
C416 C417 1.415 . S
C417 H387 0.950 . S
C417 C412 1.363 . S
C417 C416 1.415 . S
H418 C415 0.999 . S
H419 C400 0.913 . S
H420 C438 0.951 . S
H421 C440 0.951 . S
H422 C442 0.950 . S
H423 C443 0.950 . S
H424 C445 0.950 . S
H425 C448 0.950 . S
H426 C449 0.950 . S
H427 C451 0.950 . S
H428 C452 0.950 . S
H429 C453 0.951 . S
H430 C455 0.951 . S
H431 C457 0.950 . S
H432 C458 0.950 . S
H433 C460 0.950 . S
H434 C463 0.950 . S
H435 C464 0.950 . S
H436 C466 0.950 . S
H437 C467 0.950 . S
C438 H420 0.951 . S
C438 C439 1.366 . S
C438 C440 1.388 . S
C439 C438 1.366 . S
C439 C443 1.385 . S
C440 H421 0.951 . S
C440 C438 1.388 . S
C440 C441 1.366 . S
C441 C440 1.366 . S
C441 C442 1.414 . S
C441 C444 1.499 . S
C442 H422 0.950 . S
C442 C441 1.414 . S
C442 C443 1.374 . S
C443 H423 0.950 . S
C443 C439 1.385 . S
C443 C442 1.374 . S
C444 C441 1.499 . S
C444 C445 1.373 . S
C444 C446 1.389 . S
C445 H424 0.950 . S
C445 C444 1.373 . S
C445 C461 1.377 . S
C446 C444 1.389 . S
C446 C447 1.524 . S
C446 C460 1.377 . S
C447 C446 1.524 . S
C447 C448 1.397 . S
C447 C452 1.363 . S
C448 H425 0.950 . S
C448 C447 1.397 . S
C448 C449 1.334 . S
C449 H426 0.950 . S
C449 C448 1.334 . S
C449 C450 1.254 1_565 S
C450 C449 1.254 1_545 S
C450 C451 1.534 . S
C450 H469 0.937 . S
C451 H427 0.950 . S
C451 C450 1.534 . S
C451 C452 1.415 1_545 S
C452 H428 0.950 . S
C452 C447 1.363 . S
C452 C451 1.415 1_565 S
C453 H429 0.951 . S
C453 C454 1.366 . S
C453 C455 1.388 . S
C454 C453 1.366 . S
C454 C458 1.385 . S
C455 H430 0.951 . S
C455 C453 1.388 . S
C455 C456 1.366 . S
C456 C455 1.366 . S
C456 C457 1.414 . S
C456 C459 1.499 . S
C457 H431 0.950 . S
C457 C456 1.414 . S
C457 C458 1.374 . S
C458 H432 0.950 . S
C458 C454 1.385 . S
C458 C457 1.374 . S
C459 C456 1.499 . S
C459 C460 1.373 . S
C459 C461 1.389 . S
C460 H433 0.950 . S
C460 C446 1.377 . S
C460 C459 1.373 . S
C461 C445 1.377 . S
C461 C459 1.389 . S
C461 C462 1.524 . S
C462 C461 1.524 . S
C462 C463 1.397 . S
C462 C467 1.363 . S
C463 H434 0.950 . S
C463 C462 1.397 . S
C463 C464 1.334 . S
C464 H435 0.950 . S
C464 C463 1.334 . S
C464 C465 1.287 . S
C465 C464 1.287 . S
C465 C466 1.524 . S
C465 H468 0.999 . S
C466 H436 0.950 . S
C466 C465 1.524 . S
C466 C467 1.415 . S
C467 H437 0.950 . S
C467 C462 1.363 . S
C467 C466 1.415 . S
H468 C465 0.999 . S
H469 C450 0.937 . S
H470 C488 0.951 . S
H471 C490 0.951 . S
H472 C492 0.950 . S
H473 C493 0.950 . S
H474 C495 0.950 . S
H475 C498 0.950 . S
H476 C499 0.950 . S
H477 C501 0.950 . S
H478 C502 0.950 . S
H479 C503 0.951 . S
H480 C505 0.951 . S
H481 C507 0.950 . S
H482 C508 0.950 . S
H483 C510 0.950 . S
H484 C513 0.950 . S
H485 C514 0.950 . S
H486 C516 0.950 . S
H487 C517 0.950 . S
C488 H470 0.951 . S
C488 C489 1.366 . S
C488 C490 1.388 . S
C489 C488 1.366 . S
C489 C493 1.385 . S
C490 H471 0.951 . S
C490 C488 1.388 . S
C490 C491 1.366 . S
C491 C490 1.366 . S
C491 C492 1.414 . S
C491 C494 1.499 . S
C492 H472 0.950 . S
C492 C491 1.414 . S
C492 C493 1.374 . S
C493 H473 0.950 . S
C493 C489 1.385 . S
C493 C492 1.374 . S
C494 C491 1.499 . S
C494 C495 1.373 . S
C494 C496 1.389 . S
C495 H474 0.950 . S
C495 C494 1.373 . S
C495 C511 1.377 . S
C496 C494 1.389 . S
C496 C497 1.524 . S
C496 C510 1.377 . S
C497 C496 1.524 . S
C497 C498 1.397 . S
C497 C502 1.363 . S
C498 H475 0.950 . S
C498 C497 1.397 . S
C498 C499 1.334 . S
C499 H476 0.950 . S
C499 C498 1.334 . S
C499 C500 1.287 . S
C500 C499 1.287 . S
C500 C501 1.524 . S
C500 H519 0.913 . S
C501 H477 0.950 . S
C501 C500 1.524 . S
C501 C502 1.415 . S
C502 H478 0.950 . S
C502 C497 1.363 . S
C502 C501 1.415 . S
C503 H479 0.951 . S
C503 C504 1.366 . S
C503 C505 1.388 . S
C504 C503 1.366 . S
C504 C508 1.385 . S
C505 H480 0.951 . S
C505 C503 1.388 . S
C505 C506 1.366 . S
C506 C505 1.366 . S
C506 C507 1.414 . S
C506 C509 1.499 . S
C507 H481 0.950 . S
C507 C506 1.414 . S
C507 C508 1.374 . S
C508 H482 0.950 . S
C508 C504 1.385 . S
C508 C507 1.374 . S
C509 C506 1.499 . S
C509 C510 1.373 . S
C509 C511 1.389 . S
C510 H483 0.950 . S
C510 C496 1.377 . S
C510 C509 1.373 . S
C511 C495 1.377 . S
C511 C509 1.389 . S
C511 C512 1.524 . S
C512 C511 1.524 . S
C512 C513 1.397 . S
C512 C517 1.363 . S
C513 H484 0.950 . S
C513 C512 1.397 . S
C513 C514 1.334 . S
C514 H485 0.950 . S
C514 C513 1.334 . S
C514 C515 1.287 . S
C515 C514 1.287 . S
C515 C516 1.524 . S
C515 H518 0.999 . S
C516 H486 0.950 . S
C516 C515 1.524 . S
C516 C517 1.415 . S
C517 H487 0.950 . S
C517 C512 1.363 . S
C517 C516 1.415 . S
H518 C515 0.999 . S
H519 C500 0.913 . S
H520 C538 0.951 . S
H521 C540 0.951 . S
H522 C542 0.950 . S
H523 C543 0.950 . S
H524 C545 0.950 . S
H525 C548 0.950 . S
H526 C549 0.950 . S
H527 C551 0.950 . S
H528 C552 0.950 . S
H529 C553 0.951 . S
H530 C555 0.951 . S
H531 C557 0.950 . S
H532 C558 0.950 . S
H533 C560 0.950 . S
H534 C563 0.950 . S
H535 C564 0.950 . S
H536 C566 0.950 . S
H537 C567 0.950 . S
C538 H520 0.951 . S
C538 C539 1.366 . S
C538 C540 1.388 . S
C539 C538 1.366 . S
C539 C543 1.385 . S
C540 H521 0.951 . S
C540 C538 1.388 . S
C540 C541 1.366 . S
C541 C540 1.366 . S
C541 C542 1.414 . S
C541 C544 1.499 . S
C542 H522 0.950 . S
C542 C541 1.414 . S
C542 C543 1.374 . S
C543 H523 0.950 . S
C543 C539 1.385 . S
C543 C542 1.374 . S
C544 C541 1.499 . S
C544 C545 1.373 . S
C544 C546 1.389 . S
C545 H524 0.950 . S
C545 C544 1.373 . S
C545 C561 1.377 . S
C546 C544 1.389 . S
C546 C547 1.524 . S
C546 C560 1.377 . S
C547 C546 1.524 . S
C547 C548 1.397 . S
C547 C552 1.363 . S
C548 H525 0.950 . S
C548 C547 1.397 . S
C548 C549 1.334 . S
C549 H526 0.950 . S
C549 C548 1.334 . S
C549 C550 1.287 . S
C550 C549 1.287 . S
C550 C551 1.524 . S
C550 H569 0.913 . S
C551 H527 0.950 . S
C551 C550 1.524 . S
C551 C552 1.415 . S
C552 H528 0.950 . S
C552 C547 1.363 . S
C552 C551 1.415 . S
C553 H529 0.951 . S
C553 C554 1.366 . S
C553 C555 1.388 . S
C554 C553 1.366 . S
C554 C558 1.385 . S
C555 H530 0.951 . S
C555 C553 1.388 . S
C555 C556 1.366 . S
C556 C555 1.366 . S
C556 C557 1.414 . S
C556 C559 1.499 . S
C557 H531 0.950 . S
C557 C556 1.414 . S
C557 C558 1.374 . S
C558 H532 0.950 . S
C558 C554 1.385 . S
C558 C557 1.374 . S
C559 C556 1.499 . S
C559 C560 1.373 . S
C559 C561 1.389 . S
C560 H533 0.950 . S
C560 C546 1.377 . S
C560 C559 1.373 . S
C561 C545 1.377 . S
C561 C559 1.389 . S
C561 C562 1.524 . S
C562 C561 1.524 . S
C562 C563 1.397 . S
C562 C567 1.363 . S
C563 H534 0.950 . S
C563 C562 1.397 . S
C563 C564 1.334 . S
C564 H535 0.950 . S
C564 C563 1.334 . S
C564 C565 1.287 . S
C565 C564 1.287 . S
C565 C566 1.524 . S
C565 H568 0.999 . S
C566 H536 0.950 . S
C566 C565 1.524 . S
C566 C567 1.415 . S
C567 H537 0.950 . S
C567 C562 1.363 . S
C567 C566 1.415 . S
H568 C565 0.999 . S
H569 C550 0.913 . S
H570 C588 0.951 . S
H571 C590 0.951 . S
H572 C592 0.950 . S
H573 C593 0.950 . S
H574 C595 0.950 . S
H575 C598 0.950 . S
H576 C599 0.950 . S
H577 C601 0.950 . S
H578 C602 0.950 . S
H579 C603 0.951 . S
H580 C605 0.951 . S
H581 C607 0.950 . S
H582 C608 0.950 . S
H583 C610 0.950 . S
H584 C613 0.950 . S
H585 C614 0.950 . S
H586 C616 0.950 . S
H587 C617 0.950 . S
C588 H570 0.951 . S
C588 C589 1.366 . S
C588 C590 1.388 . S
C589 C588 1.366 . S
C589 C593 1.385 . S
C590 H571 0.951 . S
C590 C588 1.388 . S
C590 C591 1.366 . S
C591 C590 1.366 . S
C591 C592 1.414 . S
C591 C594 1.499 . S
C592 H572 0.950 . S
C592 C591 1.414 . S
C592 C593 1.374 . S
C593 H573 0.950 . S
C593 C589 1.385 . S
C593 C592 1.374 . S
C594 C591 1.499 . S
C594 C595 1.373 . S
C594 C596 1.389 . S
C595 H574 0.950 . S
C595 C594 1.373 . S
C595 C611 1.377 . S
C596 C594 1.389 . S
C596 C597 1.524 . S
C596 C610 1.377 . S
C597 C596 1.524 . S
C597 C598 1.397 . S
C597 C602 1.363 . S
C598 H575 0.950 . S
C598 C597 1.397 . S
C598 C599 1.334 . S
C599 H576 0.950 . S
C599 C598 1.334 . S
C599 C600 1.287 . S
C600 C599 1.287 . S
C600 C601 1.524 . S
C600 H619 0.913 . S
C601 H577 0.950 . S
C601 C600 1.524 . S
C601 C602 1.415 . S
C602 H578 0.950 . S
C602 C597 1.363 . S
C602 C601 1.415 . S
C603 H579 0.951 . S
C603 C604 1.366 . S
C603 C605 1.388 . S
C604 C603 1.366 . S
C604 C608 1.385 . S
C605 H580 0.951 . S
C605 C603 1.388 . S
C605 C606 1.366 . S
C606 C605 1.366 . S
C606 C607 1.414 . S
C606 C609 1.499 . S
C607 H581 0.950 . S
C607 C606 1.414 . S
C607 C608 1.374 . S
C608 H582 0.950 . S
C608 C604 1.385 . S
C608 C607 1.374 . S
C609 C606 1.499 . S
C609 C610 1.373 . S
C609 C611 1.389 . S
C610 H583 0.950 . S
C610 C596 1.377 . S
C610 C609 1.373 . S
C611 C595 1.377 . S
C611 C609 1.389 . S
C611 C612 1.524 . S
C612 C611 1.524 . S
C612 C613 1.397 . S
C612 C617 1.363 . S
C613 H584 0.950 . S
C613 C612 1.397 . S
C613 C614 1.334 . S
C614 H585 0.950 . S
C614 C613 1.334 . S
C614 C615 1.287 . S
C615 C614 1.287 . S
C615 C616 1.524 . S
C615 H618 0.999 . S
C616 H586 0.950 . S
C616 C615 1.524 . S
C616 C617 1.415 . S
C617 H587 0.950 . S
C617 C612 1.363 . S
C617 C616 1.415 . S
H618 C615 0.999 . S
H619 C600 0.913 . S
H620 C638 0.951 . S
H621 C640 0.951 . S
H622 C642 0.950 . S
H623 C643 0.950 . S
H624 C645 0.950 . S
H625 C648 0.950 . S
H626 C649 0.950 . S
H627 C651 0.950 . S
H628 C652 0.950 . S
H629 C653 0.951 . S
H630 C655 0.951 . S
H631 C657 0.950 . S
H632 C658 0.950 . S
H633 C660 0.950 . S
H634 C663 0.950 . S
H635 C664 0.950 . S
H636 C666 0.950 . S
H637 C667 0.950 . S
C638 H620 0.951 . S
C638 C639 1.366 . S
C638 C640 1.388 . S
C639 C638 1.366 . S
C639 C643 1.385 . S
C640 H621 0.951 . S
C640 C638 1.388 . S
C640 C641 1.366 . S
C641 C640 1.366 . S
C641 C642 1.414 . S
C641 C644 1.499 . S
C642 H622 0.950 . S
C642 C641 1.414 . S
C642 C643 1.374 . S
C643 H623 0.950 . S
C643 C639 1.385 . S
C643 C642 1.374 . S
C644 C641 1.499 . S
C644 C645 1.373 . S
C644 C646 1.389 . S
C645 H624 0.950 . S
C645 C644 1.373 . S
C645 C661 1.377 . S
C646 C644 1.389 . S
C646 C647 1.524 . S
C646 C660 1.377 . S
C647 C646 1.524 . S
C647 C648 1.397 . S
C647 C652 1.363 . S
C648 H625 0.950 . S
C648 C647 1.397 . S
C648 C649 1.334 . S
C649 H626 0.950 . S
C649 C648 1.334 . S
C649 C650 1.287 . S
C650 C649 1.287 . S
C650 C651 1.524 . S
C650 H669 0.913 . S
C651 H627 0.950 . S
C651 C650 1.524 . S
C651 C652 1.415 . S
C652 H628 0.950 . S
C652 C647 1.363 . S
C652 C651 1.415 . S
C653 H629 0.951 . S
C653 C654 1.366 . S
C653 C655 1.388 . S
C654 C653 1.366 . S
C654 C658 1.385 . S
C655 H630 0.951 . S
C655 C653 1.388 . S
C655 C656 1.366 . S
C656 C655 1.366 . S
C656 C657 1.414 . S
C656 C659 1.499 . S
C657 H631 0.950 . S
C657 C656 1.414 . S
C657 C658 1.374 . S
C658 H632 0.950 . S
C658 C654 1.385 . S
C658 C657 1.374 . S
C659 C656 1.499 . S
C659 C660 1.373 . S
C659 C661 1.389 . S
C660 H633 0.950 . S
C660 C646 1.377 . S
C660 C659 1.373 . S
C661 C645 1.377 . S
C661 C659 1.389 . S
C661 C662 1.524 . S
C662 C661 1.524 . S
C662 C663 1.397 . S
C662 C667 1.363 . S
C663 H634 0.950 . S
C663 C662 1.397 . S
C663 C664 1.334 . S
C664 H635 0.950 . S
C664 C663 1.334 . S
C664 C665 1.287 . S
C665 C664 1.287 . S
C665 C666 1.524 . S
C665 H668 0.999 . S
C666 H636 0.950 . S
C666 C665 1.524 . S
C666 C667 1.415 . S
C667 H637 0.950 . S
C667 C662 1.363 . S
C667 C666 1.415 . S
H668 C665 0.999 . S
H669 C650 0.913 . S
H670 C688 0.951 . S
H671 C690 0.951 . S
H672 C692 0.950 . S
H673 C693 0.950 . S
H674 C695 0.950 . S
H675 C698 0.950 . S
H676 C699 0.950 . S
H677 C701 0.950 . S
H678 C702 0.950 . S
H679 C703 0.951 . S
H680 C705 0.951 . S
H681 C707 0.950 . S
H682 C708 0.950 . S
H683 C710 0.950 . S
H684 C713 0.950 . S
H685 C714 0.950 . S
H686 C716 0.950 . S
H687 C717 0.950 . S
C688 H670 0.951 . S
C688 C689 1.366 . S
C688 C690 1.388 . S
C689 C688 1.366 . S
C689 C693 1.385 . S
C690 H671 0.951 . S
C690 C688 1.388 . S
C690 C691 1.366 . S
C691 C690 1.366 . S
C691 C692 1.414 . S
C691 C694 1.499 . S
C692 H672 0.950 . S
C692 C691 1.414 . S
C692 C693 1.374 . S
C693 H673 0.950 . S
C693 C689 1.385 . S
C693 C692 1.374 . S
C694 C691 1.499 . S
C694 C695 1.373 . S
C694 C696 1.389 . S
C695 H674 0.950 . S
C695 C694 1.373 . S
C695 C711 1.377 . S
C696 C694 1.389 . S
C696 C697 1.524 . S
C696 C710 1.377 . S
C697 C696 1.524 . S
C697 C698 1.397 . S
C697 C702 1.363 . S
C698 H675 0.950 . S
C698 C697 1.397 . S
C698 C699 1.334 . S
C699 H676 0.950 . S
C699 C698 1.334 . S
C699 C700 1.287 . S
C700 C699 1.287 . S
C700 C701 1.524 . S
C700 H719 0.913 . S
C701 H677 0.950 . S
C701 C700 1.524 . S
C701 C702 1.415 . S
C702 H678 0.950 . S
C702 C697 1.363 . S
C702 C701 1.415 . S
C703 H679 0.951 . S
C703 C704 1.366 . S
C703 C705 1.388 . S
C704 C703 1.366 . S
C704 C708 1.385 . S
C705 H680 0.951 . S
C705 C703 1.388 . S
C705 C706 1.366 . S
C706 C705 1.366 . S
C706 C707 1.414 . S
C706 C709 1.499 . S
C707 H681 0.950 . S
C707 C706 1.414 . S
C707 C708 1.374 . S
C708 H682 0.950 . S
C708 C704 1.385 . S
C708 C707 1.374 . S
C709 C706 1.499 . S
C709 C710 1.373 . S
C709 C711 1.389 . S
C710 H683 0.950 . S
C710 C696 1.377 . S
C710 C709 1.373 . S
C711 C695 1.377 . S
C711 C709 1.389 . S
C711 C712 1.524 . S
C712 C711 1.524 . S
C712 C713 1.397 . S
C712 C717 1.363 . S
C713 H684 0.950 . S
C713 C712 1.397 . S
C713 C714 1.334 1_545 S
C714 H685 0.950 . S
C714 C713 1.334 1_565 S
C714 C715 1.287 . S
C715 C714 1.287 . S
C715 C716 1.524 . S
C715 H718 0.999 . S
C716 H686 0.950 . S
C716 C715 1.524 . S
C716 C717 1.415 1_565 S
C717 H687 0.950 . S
C717 C712 1.363 . S
C717 C716 1.415 1_545 S
H718 C715 0.999 . S
H719 C700 0.913 . S
H720 C738 0.951 . S
H721 C740 0.951 . S
H722 C742 0.950 . S
H723 C743 0.950 . S
H724 C745 0.950 . S
H725 C748 0.950 . S
H726 C749 0.950 . S
H727 C751 0.950 . S
H728 C752 0.950 . S
H729 C753 0.951 . S
H730 C755 0.951 . S
H731 C757 0.950 . S
H732 C758 0.950 . S
H733 C760 0.950 . S
H734 C763 0.950 . S
H735 C764 0.950 . S
H736 C766 0.950 . S
H737 C767 0.950 . S
C738 H720 0.951 . S
C738 C739 1.366 . S
C738 C740 1.388 . S
C739 C738 1.366 . S
C739 C743 1.385 . S
C740 H721 0.951 . S
C740 C738 1.388 . S
C740 C741 1.366 . S
C741 C740 1.366 . S
C741 C742 1.414 . S
C741 C744 1.499 . S
C742 H722 0.950 . S
C742 C741 1.414 . S
C742 C743 1.374 . S
C743 H723 0.950 . S
C743 C739 1.385 . S
C743 C742 1.374 . S
C744 C741 1.499 . S
C744 C745 1.373 . S
C744 C746 1.389 . S
C745 H724 0.950 . S
C745 C744 1.373 . S
C745 C761 1.377 . S
C746 C744 1.389 . S
C746 C747 1.524 . S
C746 C760 1.377 . S
C747 C746 1.524 . S
C747 C748 1.397 . S
C747 C752 1.363 . S
C748 H725 0.950 . S
C748 C747 1.397 . S
C748 C749 1.334 . S
C749 H726 0.950 . S
C749 C748 1.334 . S
C749 C750 1.287 . S
C750 C749 1.287 . S
C750 C751 1.524 . S
C750 H769 0.913 . S
C751 H727 0.950 . S
C751 C750 1.524 . S
C751 C752 1.415 . S
C752 H728 0.950 . S
C752 C747 1.363 . S
C752 C751 1.415 . S
C753 H729 0.951 . S
C753 C754 1.366 . S
C753 C755 1.388 . S
C754 C753 1.366 . S
C754 C758 1.385 . S
C755 H730 0.951 . S
C755 C753 1.388 . S
C755 C756 1.366 . S
C756 C755 1.366 . S
C756 C757 1.414 . S
C756 C759 1.499 . S
C757 H731 0.950 . S
C757 C756 1.414 . S
C757 C758 1.374 . S
C758 H732 0.950 . S
C758 C754 1.385 . S
C758 C757 1.374 . S
C759 C756 1.499 . S
C759 C760 1.373 . S
C759 C761 1.389 . S
C760 H733 0.950 . S
C760 C746 1.377 . S
C760 C759 1.373 . S
C761 C745 1.377 . S
C761 C759 1.389 . S
C761 C762 1.524 . S
C762 C761 1.524 . S
C762 C763 1.397 . S
C762 C767 1.363 . S
C763 H734 0.950 . S
C763 C762 1.397 . S
C763 C764 1.334 . S
C764 H735 0.950 . S
C764 C763 1.334 . S
C764 C765 1.287 . S
C765 C764 1.287 . S
C765 C766 1.524 . S
C765 H768 0.999 . S
C766 H736 0.950 . S
C766 C765 1.524 . S
C766 C767 1.415 . S
C767 H737 0.950 . S
C767 C762 1.363 . S
C767 C766 1.415 . S
H768 C765 0.999 . S
H769 C750 0.913 . S
H770 C788 0.951 . S
H771 C790 0.951 . S
H772 C792 0.950 . S
H773 C793 0.950 . S
H774 C795 0.950 . S
H775 C798 0.950 . S
H776 C799 0.950 . S
H777 C801 0.950 . S
H778 C802 0.950 . S
H779 C803 0.951 . S
H780 C805 0.951 . S
H781 C807 0.950 . S
H782 C808 0.950 1_545 S
H783 C810 0.950 . S
H784 C813 0.950 . S
H785 C814 0.950 . S
H786 C816 0.950 . S
H787 C817 0.950 . S
C788 H770 0.951 . S
C788 C789 1.366 . S
C788 C790 1.388 . S
C789 C788 1.366 . S
C789 C793 1.385 . S
C790 H771 0.951 . S
C790 C788 1.388 . S
C790 C791 1.366 . S
C791 C790 1.366 . S
C791 C792 1.414 . S
C791 C794 1.499 . S
C792 H772 0.950 . S
C792 C791 1.414 . S
C792 C793 1.374 . S
C793 H773 0.950 . S
C793 C789 1.385 . S
C793 C792 1.374 . S
C794 C791 1.499 . S
C794 C795 1.373 . S
C794 C796 1.389 . S
C795 H774 0.950 . S
C795 C794 1.373 . S
C795 C811 1.377 . S
C796 C794 1.389 . S
C796 C797 1.524 . S
C796 C810 1.377 . S
C797 C796 1.524 . S
C797 C798 1.397 . S
C797 C802 1.363 . S
C798 H775 0.950 . S
C798 C797 1.397 . S
C798 C799 1.334 . S
C799 H776 0.950 . S
C799 C798 1.334 . S
C799 C800 1.287 . S
C800 C799 1.287 . S
C800 C801 1.524 . S
C800 H819 0.913 . S
C801 H777 0.950 . S
C801 C800 1.524 . S
C801 C802 1.415 . S
C802 H778 0.950 . S
C802 C797 1.363 . S
C802 C801 1.415 . S
C803 H779 0.951 . S
C803 C804 1.366 . S
C803 C805 1.388 . S
C804 C803 1.366 . S
C804 C808 1.385 . S
C805 H780 0.951 . S
C805 C803 1.388 . S
C805 C806 1.366 . S
C806 C805 1.366 . S
C806 C807 1.414 . S
C806 C809 1.499 . S
C807 H781 0.950 . S
C807 C806 1.414 . S
C807 C808 1.374 . S
C808 H782 0.950 1_565 S
C808 C804 1.385 . S
C808 C807 1.374 . S
C809 C806 1.499 . S
C809 C810 1.373 . S
C809 C811 1.389 . S
C810 H783 0.950 . S
C810 C796 1.377 . S
C810 C809 1.373 . S
C811 C795 1.377 . S
C811 C809 1.389 . S
C811 C812 1.524 . S
C812 C811 1.524 . S
C812 C813 1.397 . S
C812 C817 1.363 . S
C813 H784 0.950 . S
C813 C812 1.397 . S
C813 C814 1.334 . S
C814 H785 0.950 . S
C814 C813 1.334 . S
C814 C815 1.287 . S
C815 C814 1.287 . S
C815 C816 1.524 . S
C815 H818 0.999 . S
C816 H786 0.950 . S
C816 C815 1.524 . S
C816 C817 1.415 . S
C817 H787 0.950 . S
C817 C812 1.363 . S
C817 C816 1.415 . S
H818 C815 0.999 . S
H819 C800 0.913 . S
C254 C115 1.682 . S
C239 C43 1.600 . S
C289 C4 1.630 . S
C304 C210 1.666 . S
C339 C17 1.631 . S
C354 C126 1.682 . S
C389 C30 1.669 . S
C404 C199 1.666 . S
C454 C110 1.435 . S
C439 C9 1.597 . S
C504 C203 1.693 . S
C489 C21 1.691 . S
C539 C34 1.633 . S
C554 C119 1.636 . S
C589 C48 1.596 . S
C604 C194 1.427 . S
C654 C205 1.425 . S
C639 C22 1.597 . S
C704 C121 1.433 . S
C689 C35 1.598 1_556 S
C754 C192 1.693 . S
C739 C47 1.688 . S
C789 C8 1.629 . S
C804 C108 1.636 . S
