# Generated by pormake.
# Topology anh, (6,3)-cn, num edge types: 1
# Building blocks:
#     Node 0, Type 0, BuildingBlock: BETFEN_clean_sbu_0, # of connection points: 6
#     Node 1, Type 0, BuildingBlock: BETFEN_clean_sbu_0, # of connection points: 6
#     Node 2, Type 0, BuildingBlock: BETFEN_clean_sbu_0, # of connection points: 6
#     Node 3, Type 1, BuildingBlock: BELTOD_clean_linker_0, # of connection points: 3
#     Node 4, Type 1, BuildingBlock: BELTOD_clean_linker_0, # of connection points: 3
#     Node 5, Type 1, BuildingBlock: BELTOD_clean_linker_0, # of connection points: 3
#     Node 6, Type 1, BuildingBlock: BELTOD_clean_linker_0, # of connection points: 3
#     Node 7, Type 1, BuildingBlock: BELTOD_clean_linker_0, # of connection points: 3
#     Node 8, Type 1, BuildingBlock: BELTOD_clean_linker_0, # of connection points: 3
#     Edge 9, Type (0, 1), BuildingBlock: MIFKUJ_clean_linker_0, # of connection points: 2
#     Edge 10, Type (0, 1), BuildingBlock: MIFKUJ_clean_linker_0, # of connection points: 2
#     Edge 11, Type (0, 1), BuildingBlock: MIFKUJ_clean_linker_0, # of connection points: 2
#     Edge 12, Type (0, 1), BuildingBlock: MIFKUJ_clean_linker_0, # of connection points: 2
#     Edge 13, Type (0, 1), BuildingBlock: MIFKUJ_clean_linker_0, # of connection points: 2
#     Edge 14, Type (0, 1), BuildingBlock: MIFKUJ_clean_linker_0, # of connection points: 2
#     Edge 15, Type (0, 1), BuildingBlock: MIFKUJ_clean_linker_0, # of connection points: 2
#     Edge 16, Type (0, 1), BuildingBlock: MIFKUJ_clean_linker_0, # of connection points: 2
#     Edge 17, Type (0, 1), BuildingBlock: MIFKUJ_clean_linker_0, # of connection points: 2
#     Edge 18, Type (0, 1), BuildingBlock: MIFKUJ_clean_linker_0, # of connection points: 2
#     Edge 19, Type (0, 1), BuildingBlock: MIFKUJ_clean_linker_0, # of connection points: 2
#     Edge 20, Type (0, 1), BuildingBlock: MIFKUJ_clean_linker_0, # of connection points: 2
#     Edge 21, Type (0, 1), BuildingBlock: MIFKUJ_clean_linker_0, # of connection points: 2
#     Edge 22, Type (0, 1), BuildingBlock: MIFKUJ_clean_linker_0, # of connection points: 2
#     Edge 23, Type (0, 1), BuildingBlock: MIFKUJ_clean_linker_0, # of connection points: 2
#     Edge 24, Type (0, 1), BuildingBlock: MIFKUJ_clean_linker_0, # of connection points: 2
#     Edge 25, Type (0, 1), BuildingBlock: MIFKUJ_clean_linker_0, # of connection points: 2
#     Edge 26, Type (0, 1), BuildingBlock: MIFKUJ_clean_linker_0, # of connection points: 2
# Relax obj value: 0.158
# Max RMSD: 0.194
# Mean RMSD: 0.142
data_MOF--net-anh--node1-BETFEN_clean_sbu_0--node2-BELTOD_clean_linker_0--edge1-MIFKUJ_clean_linker_0
_symmetry_space_group_name_H-M    P1
_symmetry_Int_Tables_number       1
_symmetry_cell_setting            triclinic
loop_
_symmetry_equiv_pos_as_xyz
'x, y, z'
_cell_length_a     42.353843
_cell_length_b     44.260876
_cell_length_c     76.697528
_cell_angle_alpha  89.637231
_cell_angle_beta   93.11432
_cell_angle_gamma 109.05555
loop_
_atom_site_label
_atom_site_type_symbol
_atom_site_fract_x
_atom_site_fract_y
_atom_site_fract_z
_atom_type_partial_charge
Pr0 Pr 0.0229 0.5369 0.15825 0.0
Pr1 Pr 0.04367 0.60728 0.14904 0.0
C2 C 0.99767 0.47928 0.17322 0.0
C3 C 0.966 0.45342 0.17547 0.0
C4 C 0.93708 0.45099 0.16496 0.0
C5 C 0.90752 0.42548 0.1671 0.0
C6 C 0.90649 0.40205 0.17977 0.0
C7 C 0.93547 0.40515 0.19048 0.0
C8 C 0.9649 0.43055 0.18832 0.0
C9 C 0.02757 0.54815 0.12258 0.0
C10 C 0.96392 0.57152 0.15071 0.0
C11 C 0.07268 0.66707 0.1375 0.0
C12 C 0.10514 0.6924 0.14119 0.0
C13 C 0.10581 0.72341 0.14538 0.0
C14 C 0.13603 0.74708 0.15036 0.0
C15 C 0.1663 0.74025 0.15118 0.0
C16 C 0.16559 0.7093 0.14654 0.0
C17 C 0.13534 0.6856 0.14168 0.0
C18 C 0.04119 0.59505 0.18483 0.0
C19 C 0.10189 0.57134 0.15311 0.0
O20 O 1.0018 0.50629 0.18138 0.0
O21 O 1.00899 0.48306 0.15755 0.0
O22 O 1.0148 0.56253 0.13285 0.0
O23 O 0.03656 0.52591 0.13042 0.0
O24 O 0.98636 0.59512 0.14309 0.0
O25 O 0.97249 0.5488 0.15899 0.0
O26 O 0.07305 0.64152 0.12912 0.0
O27 O 0.05233 0.66054 0.15025 0.0
O28 O 0.05346 0.58146 0.17397 0.0
O29 O 0.03079 0.61675 0.17746 0.0
O30 O 0.08073 0.54829 0.16173 0.0
O31 O 0.09248 0.59411 0.14553 0.0
H32 H 0.93748 0.46859 0.15502 0.0
H33 H 0.88574 0.42373 0.15857 0.0
H34 H 0.93542 0.38797 0.2006 0.0
H35 H 0.98694 0.43223 0.19664 0.0
H36 H 0.0828 0.72913 0.14522 0.0
H37 H 0.13547 0.77045 0.15407 0.0
H38 H 0.18841 0.70326 0.14674 0.0
H39 H 0.1356 0.66183 0.1386 0.0
Pr40 Pr 0.57044 0.06839 0.51673 0.0
Pr41 Pr 0.49093 0.04204 0.52444 0.0
C42 C 0.62953 0.09942 0.50322 0.0
C43 C 0.64977 0.13259 0.49921 0.0
C44 C 0.65845 0.15692 0.51204 0.0
C45 C 0.67887 0.18781 0.50816 0.0
C46 C 0.69077 0.19507 0.49136 0.0
C47 C 0.68121 0.17096 0.47842 0.0
C48 C 0.661 0.14 0.48233 0.0
C49 C 0.55488 0.05367 0.55099 0.0
C50 C 0.52904 0.12179 0.52327 0.0
C51 C 0.43197 1.01472 0.53872 0.0
C52 C 0.40248 0.9867 0.53393 0.0
C53 C 0.39251 0.97882 0.51631 0.0
C54 C 0.36575 0.95126 0.51178 0.0
C55 C 0.34854 0.93079 0.52476 0.0
C56 C 0.35853 0.93881 0.54241 0.0
C57 C 0.38524 0.96654 0.54694 0.0
C58 C 0.50051 0.04108 0.48847 0.0
C59 C 0.53414 0.98964 0.51964 0.0
O60 O 0.60192 0.08682 0.49354 0.0
O61 O 0.62651 0.09169 0.51972 0.0
O62 O 0.53959 0.06712 0.54059 0.0
O63 O 0.58083 0.04971 0.54419 0.0
O64 O 0.50134 0.09806 0.52668 0.0
O65 O 0.55677 0.11633 0.51901 0.0
O66 O 0.45918 1.00844 0.54389 0.0
O67 O 0.43763 0.03939 0.52833 0.0
O68 O 0.52189 0.04945 0.50093 0.0
O69 O 0.47092 0.0327 0.49457 0.0
O70 O 0.55939 1.01264 0.51306 0.0
O71 O 0.50828 0.99585 0.52606 0.0
H72 H 0.64979 0.15205 0.52512 0.0
H73 H 0.6855 0.20601 0.51833 0.0
H74 H 0.69018 0.17578 0.46539 0.0
H75 H 0.65451 0.12169 0.47221 0.0
H76 H 0.40574 0.9937 0.50601 0.0
H77 H 0.35911 0.94554 0.49808 0.0
H78 H 0.34566 0.92366 0.55271 0.0
H79 H 0.39271 0.97205 0.5606 0.0
Pr80 Pr 0.49933 0.52391 0.81691 0.0
Pr81 Pr 0.52483 0.59164 0.83183 0.0
C82 C 0.48958 0.46844 0.79998 0.0
C83 C 0.50406 0.44275 0.80278 0.0
C84 C 0.48353 0.41087 0.8007 0.0
C85 C 0.49596 0.38616 0.80529 0.0
C86 C 0.52917 0.39301 0.81197 0.0
C87 C 0.54995 0.42497 0.81366 0.0
C88 C 0.5374 0.44967 0.80923 0.0
C89 C 0.50115 0.5271 0.85321 0.0
C90 C 0.58234 0.55956 0.82563 0.0
C91 C 0.53292 0.64294 0.8523 0.0
C92 C 0.50964 0.65752 0.85932 0.0
C93 C 0.48035 0.65681 0.84963 0.0
C94 C 0.45803 0.6702 0.8565 0.0
C95 C 0.46455 0.68448 0.87323 0.0
C96 C 0.49335 0.68404 0.88315 0.0
C97 C 0.51569 0.67064 0.87624 0.0
C98 C 0.52521 0.58857 0.7956 0.0
C99 C 0.44268 0.5569 0.82273 0.0
O100 O 0.50968 0.49579 0.79467 0.0
O101 O 0.4705 0.47156 0.8122 0.0
O102 O 0.52349 0.54385 0.84374 0.0
O103 O 0.47736 0.50643 0.84402 0.0
O104 O 0.5759 0.58257 0.83405 0.0
O105 O 0.55829 0.53677 0.81704 0.0
O106 O 0.53067 0.6148 0.8585 0.0
O107 O 0.53649 0.64494 0.83543 0.0
O108 O 0.50189 0.57167 0.8046 0.0
O109 O 0.54845 0.60945 0.80516 0.0
O110 O 0.4493 0.53535 0.8131 0.0
O111 O 0.46634 0.57796 0.8324 0.0
H112 H 0.45767 0.40512 0.79592 0.0
H113 H 0.47957 0.36166 0.80365 0.0
H114 H 0.57556 0.43086 0.81888 0.0
H115 H 0.55351 0.47414 0.81125 0.0
H116 H 0.47498 0.64635 0.83664 0.0
H117 H 0.43642 0.67055 0.84838 0.0
H118 H 0.49893 0.69462 0.89612 0.0
H119 H 0.53785 0.67077 0.88404 0.0
P120 P 0.57637 1.02753 0.24792 0.0
H121 H 0.55663 0.96703 0.2285 0.0
H122 H 0.50387 0.93415 0.21431 0.0
H123 H 0.45896 1.00565 0.22661 0.0
H124 H 0.51252 0.03899 0.24046 0.0
H125 H 0.62404 0.03947 0.22073 0.0
H126 H 0.65877 0.0883 0.20732 0.0
H127 H 0.6118 0.14338 0.23667 0.0
H128 H 0.57625 0.09406 0.24958 0.0
H129 H 0.52013 0.99919 0.27028 0.0
H130 H 0.61679 0.07257 0.27461 0.0
O131 O 0.60125 1.00505 0.24971 0.0
H132 H 0.5121 1.00736 0.30088 0.0
H133 H 0.60874 0.08115 0.30531 0.0
C134 C 0.53833 1.00524 0.23576 0.0
C135 C 0.53557 0.97582 0.22804 0.0
C136 C 0.50523 0.95689 0.22002 0.0
C137 C 0.47694 0.96695 0.21958 0.0
C138 C 0.48024 0.99718 0.22667 0.0
C139 C 0.51077 1.01623 0.23464 0.0
C140 C 0.59832 0.0633 0.23652 0.0
C141 C 0.62101 0.06203 0.22417 0.0
C142 C 0.64101 0.09003 0.21658 0.0
C143 C 0.63866 0.11991 0.2212 0.0
C144 C 0.61433 0.12082 0.23282 0.0
C145 C 0.59415 0.09267 0.24032 0.0
C146 C 0.56857 0.03608 0.26993 0.0
C147 C 0.53928 1.01769 0.27764 0.0
C148 C 0.53472 1.02236 0.29521 0.0
C149 C 0.55965 0.04513 0.30551 0.0
C150 C 0.58908 0.0634 0.29775 0.0
C151 C 0.59355 0.05875 0.28015 0.0
P152 P 0.56296 0.56454 0.54966 0.0
H153 H 0.58613 0.53193 0.52202 0.0
H154 H 0.57751 0.47541 0.51627 0.0
H155 H 0.49774 0.44908 0.55183 0.0
H156 H 0.50612 0.50572 0.55729 0.0
H157 H 0.60826 0.62754 0.54033 0.0
H158 H 0.60101 0.67842 0.5343 0.0
H159 H 0.49372 0.63324 0.53174 0.0
H160 H 0.5015 0.58162 0.53861 0.0
H161 H 0.56659 0.52058 0.57771 0.0
H162 H 0.54132 0.60723 0.5726 0.0
O163 O 0.60439 0.5728 0.55039 0.0
H164 H 0.5574 0.51973 0.6088 0.0
H165 H 0.53398 0.60753 0.60368 0.0
C166 C 0.54703 0.52373 0.54022 0.0
C167 C 0.56592 0.51413 0.52815 0.0
C168 C 0.56112 0.48148 0.52495 0.0
C169 C 0.53739 0.45715 0.53386 0.0
C170 C 0.51683 0.46682 0.54498 0.0
C171 C 0.52133 0.4995 0.54795 0.0
C172 C 0.55551 0.59986 0.53961 0.0
C173 C 0.58299 0.62796 0.53801 0.0
C174 C 0.57874 0.65765 0.53451 0.0
C175 C 0.54669 0.66085 0.53239 0.0
C176 C 0.51895 0.6324 0.53342 0.0
C177 C 0.5233 0.60244 0.53703 0.0
C178 C 0.55348 0.56324 0.5725 0.0
C179 C 0.55857 0.53919 0.58317 0.0
C180 C 0.55383 0.53905 0.60109 0.0
C181 C 0.54482 0.56354 0.6089 0.0
C182 C 0.54009 0.58781 0.59817 0.0
C183 C 0.54439 0.58767 0.58021 0.0
P184 P 0.03375 0.60989 0.87745 0.0
H185 H 0.1021 0.64812 0.87253 0.0
H186 H 0.14969 0.63691 0.86137 0.0
H187 H 0.08706 0.53998 0.84895 0.0
H188 H 0.03923 0.55145 0.86078 0.0
H189 H 0.97255 0.5838 0.89628 0.0
H190 H 0.91384 0.56632 0.88669 0.0
H191 H 0.94058 0.57362 0.83294 0.0
H192 H 1.00009 0.59063 0.84272 0.0
H193 H 0.05463 0.65616 0.90648 0.0
H194 H 0.0273 0.55411 0.8994 0.0
O195 O 0.03845 0.64819 0.87349 0.0
H196 H 0.05994 0.65013 0.938 0.0
H197 H 0.03154 0.54766 0.9311 0.0
C198 C 0.06689 0.6009 0.86704 0.0
C199 C 0.09835 0.62458 0.86711 0.0
C200 C 0.12566 0.61812 0.86064 0.0
C201 C 0.12231 0.58764 0.85395 0.0
C202 C 0.09063 0.56373 0.85399 0.0
C203 C 0.06316 0.57029 0.86058 0.0
C204 C 0.99103 0.58789 0.87025 0.0
C205 C 0.96611 0.58053 0.88242 0.0
C206 C 0.93231 0.57091 0.87691 0.0
C207 C 0.92245 0.56894 0.85904 0.0
C208 C 0.94731 0.57466 0.8468 0.0
C209 C 0.98135 0.58429 0.85237 0.0
C210 C 0.04016 0.60551 0.90063 0.0
C211 C 0.04975 0.6324 0.91171 0.0
C212 C 0.05259 0.62889 0.92978 0.0
C213 C 0.04577 0.59837 0.93715 0.0
C214 C 0.03723 0.57154 0.9259 0.0
C215 C 0.03461 0.57513 0.90779 0.0
P216 P 0.06448 0.53836 0.43058 0.0
H217 H 0.06536 0.55985 0.46661 0.0
H218 H 0.09277 0.61155 0.48127 0.0
H219 H 0.1242 0.65399 0.43156 0.0
H220 H 0.09666 0.6026 0.41707 0.0
H221 H 0.04453 0.47181 0.4414 0.0
H222 H 0.9923 0.43478 0.45127 0.0
H223 H 0.94721 0.50925 0.44729 0.0
H224 H 1.00016 0.54672 0.43779 0.0
H225 H 0.10133 0.52593 0.40177 0.0
H226 H 1.01659 0.55781 0.40791 0.0
O227 O 0.09476 0.52258 0.43511 0.0
H228 H 0.09585 0.53164 0.37024 0.0
H229 H 1.0102 0.56261 0.37625 0.0
C230 C 0.07829 0.57746 0.44071 0.0
C231 C 0.0774 0.58051 0.45884 0.0
C232 C 0.09337 0.61 0.46722 0.0
C233 C 0.11071 0.63694 0.45759 0.0
C234 C 0.11062 0.63392 0.43934 0.0
C235 C 0.0948 0.60443 0.43101 0.0
C236 C 0.02635 0.51212 0.43899 0.0
C237 C 0.02365 0.48042 0.44288 0.0
C238 C 0.99376 0.45923 0.44854 0.0
C239 C 0.96574 0.46917 0.45011 0.0
C240 C 0.96841 0.50095 0.44614 0.0
C241 C 0.9986 0.52234 0.44073 0.0
C242 C 0.0591 0.54105 0.40721 0.0
C243 C 0.08122 0.53375 0.39633 0.0
C244 C 0.07795 0.53688 0.37824 0.0
C245 C 0.05245 0.54742 0.37065 0.0
C246 C 0.03029 0.5547 0.38164 0.0
C247 C 0.03369 0.55164 0.39976 0.0
P248 P 0.57271 0.99829 0.78987 0.0
H249 H 0.61702 0.04018 0.81663 0.0
H250 H 0.6272 0.09619 0.8248 0.0
H251 H 0.5547 0.10204 0.78414 0.0
H252 H 0.5452 0.04662 0.77593 0.0
H253 H 0.56699 0.94015 0.80931 0.0
H254 H 0.52485 0.90748 0.82821 0.0
H255 H 0.46587 0.96987 0.81901 0.0
H256 H 0.50861 1.00298 0.80016 0.0
H257 H 0.61154 1.01154 0.7591 0.0
H258 H 0.5073 0.97278 0.77019 0.0
O259 O 0.60786 0.98946 0.7937 0.0
H260 H 0.5962 1.00809 0.72785 0.0
H261 H 0.49176 0.96901 0.73894 0.0
C262 C 0.581 0.03958 0.79542 0.0
C263 C 0.60371 0.05375 0.80936 0.0
C264 C 0.60934 0.08564 0.81408 0.0
C265 C 0.59215 0.10367 0.80493 0.0
C266 C 0.56905 0.08909 0.79112 0.0
C267 C 0.56348 0.05732 0.78645 0.0
C268 C 0.54108 0.97413 0.80349 0.0
C269 C 0.54517 0.94701 0.81142 0.0
C270 C 0.52113 0.92844 0.82228 0.0
C271 C 0.49234 0.93646 0.82523 0.0
C272 C 0.48791 0.96331 0.81699 0.0
C273 C 0.5123 0.98219 0.80628 0.0
C274 C 0.56067 0.99195 0.76697 0.0
C275 C 0.58537 1.00171 0.75479 0.0
C276 C 0.57656 0.99966 0.73693 0.0
C277 C 0.54275 0.98807 0.73091 0.0
C278 C 0.518 0.97815 0.74317 0.0
C279 C 0.5269 0.98011 0.76107 0.0
P280 P 0.50844 0.51576 0.10069 0.0
H281 H 0.53734 0.50108 0.13384 0.0
H282 H 0.59503 0.51462 0.1458 0.0
H283 H 0.62861 0.57706 0.10217 0.0
H284 H 0.5712 0.56454 0.09083 0.0
H285 H 0.45171 0.52867 0.08258 0.0
H286 H 0.40671 0.5456 0.09263 0.0
H287 H 0.45116 0.55554 0.14517 0.0
H288 H 0.49718 0.53918 0.13487 0.0
H289 H 0.50667 0.46911 0.0734 0.0
H290 H 0.51718 0.56922 0.07657 0.0
O291 O 0.49311 0.47706 0.10553 0.0
H292 H 0.50929 0.47277 0.04166 0.0
H293 H 0.52009 0.57308 0.04476 0.0
C294 C 0.54984 0.53126 0.11125 0.0
C295 C 0.55709 0.5182 0.12706 0.0
C296 C 0.59018 0.52575 0.1338 0.0
C297 C 0.61672 0.5465 0.12481 0.0
C298 C 0.60899 0.56113 0.10956 0.0
C299 C 0.5759 0.55373 0.10292 0.0
C300 C 0.47871 0.53381 0.10783 0.0
C301 C 0.45274 0.53565 0.09615 0.0
C302 C 0.42675 0.54519 0.10193 0.0
C303 C 0.42553 0.55222 0.11966 0.0
C304 C 0.45154 0.5504 0.13141 0.0
C305 C 0.47797 0.54131 0.12552 0.0
C306 C 0.51133 0.51881 0.07731 0.0
C307 C 0.50951 0.49188 0.06728 0.0
C308 C 0.51096 0.49397 0.04914 0.0
C309 C 0.51476 0.52318 0.04075 0.0
C310 C 0.51738 0.55032 0.05089 0.0
C311 C 0.51557 0.54811 0.06902 0.0
H312 H 0.13439 0.53464 0.17051 0.0
H313 H 0.19133 0.5342 0.16668 0.0
H314 H 0.20476 0.60772 0.12793 0.0
H315 H 0.14813 0.60835 0.13164 0.0
H316 H 0.22391 0.55784 0.11703 0.0
H317 H 0.24245 0.62617 0.16761 0.0
H318 H 0.23275 0.64059 0.19737 0.0
H319 H 0.25964 0.56139 0.21804 0.0
H320 H 0.26906 0.54621 0.18835 0.0
H321 H 0.39536 0.59329 0.10547 0.0
H322 H 0.34242 0.59938 0.11309 0.0
H323 H 0.33495 0.53198 0.15481 0.0
H324 H 0.38834 0.52633 0.14744 0.0
H325 H 0.3125 0.57831 0.16474 0.0
H326 H 0.29363 0.50944 0.11459 0.0
H327 H 0.30212 0.49359 0.0849 0.0
H328 H 0.274 0.57158 0.06347 0.0
H329 H 0.26588 0.58824 0.09306 0.0
C330 C 0.14953 0.55083 0.16124 0.0
C331 C 0.13669 0.57157 0.15142 0.0
C332 C 0.18211 0.55064 0.15912 0.0
C333 C 0.20236 0.57107 0.14709 0.0
C334 C 0.1896 0.59179 0.1373 0.0
C335 C 0.15722 0.59219 0.13951 0.0
C336 C 0.23646 0.57018 0.14421 0.0
C337 C 0.24344 0.56275 0.1274 0.0
C338 C 0.26161 0.57569 0.15786 0.0
C339 C 0.25613 0.58486 0.17573 0.0
C340 C 0.24603 0.61166 0.17848 0.0
C341 C 0.24063 0.62 0.19534 0.0
C342 C 0.24548 0.60186 0.20959 0.0
C343 C 0.25584 0.57539 0.207 0.0
C344 C 0.26124 0.56692 0.19016 0.0
C345 C 0.38259 0.58004 0.11639 0.0
C346 C 0.39586 0.55914 0.12577 0.0
C347 C 0.35228 0.58345 0.1207 0.0
C348 C 0.33424 0.56557 0.13427 0.0
C349 C 0.34829 0.54592 0.14424 0.0
C350 C 0.37885 0.54277 0.14005 0.0
C351 C 0.3001 0.56622 0.13749 0.0
C352 C 0.29303 0.57346 0.15435 0.0
C353 C 0.2747 0.56031 0.1239 0.0
C354 C 0.27952 0.5503 0.10607 0.0
C355 C 0.28954 0.52338 0.10356 0.0
C356 C 0.29425 0.51423 0.08675 0.0
C357 C 0.2887 0.53162 0.07231 0.0
C358 C 0.27836 0.55817 0.07466 0.0
C359 C 0.2737 0.56748 0.09145 0.0
H360 H 0.29234 0.52448 0.05931 0.0
H361 H 0.24129 0.60836 0.22263 0.0
H362 H 0.74602 0.2296 0.51114 0.0
H363 H 0.78739 0.28058 0.50424 0.0
H364 H 0.73067 0.28438 0.45626 0.0
H365 H 0.68958 0.23266 0.46295 0.0
H366 H 0.7928 0.29922 0.44976 0.0
H367 H 0.73575 0.33526 0.4925 0.0
H368 H 0.71026 0.33616 0.52057 0.0
H369 H 0.80578 0.35354 0.54793 0.0
H370 H 0.83184 0.35247 0.52006 0.0
H371 H 0.90329 0.45704 0.43435 0.0
H372 H 0.85154 0.41497 0.44157 0.0
H373 H 0.90444 0.38676 0.48491 0.0
H374 H 0.95618 0.42858 0.47771 0.0
H375 H 0.83948 0.38849 0.49249 0.0
H376 H 0.89367 0.34645 0.44888 0.0
H377 H 0.91803 0.3468 0.42037 0.0
H378 H 0.8245 0.34243 0.39405 0.0
H379 H 0.79972 0.34254 0.42244 0.0
C380 C 0.74209 0.24154 0.49925 0.0
C381 C 0.7145 0.22719 0.48761 0.0
C382 C 0.76573 0.27079 0.49533 0.0
C383 C 0.76199 0.28674 0.47984 0.0
C384 C 0.73415 0.27263 0.4683 0.0
C385 C 0.71069 0.24309 0.47212 0.0
C386 C 0.78826 0.31704 0.47529 0.0
C387 C 0.80242 0.31899 0.459 0.0
C388 C 0.80128 0.34283 0.48736 0.0
C389 C 0.78572 0.34358 0.50417 0.0
C390 C 0.7513 0.33907 0.50451 0.0
C391 C 0.73675 0.33964 0.52038 0.0
C392 C 0.75636 0.3448 0.53601 0.0
C393 C 0.79061 0.34953 0.5358 0.0
C394 C 0.8053 0.34901 0.51997 0.0
C395 C 0.9037 0.44217 0.44558 0.0
C396 C 0.93375 0.44594 0.45543 0.0
C397 C 0.87421 0.4181 0.44963 0.0
C398 C 0.87424 0.39766 0.46371 0.0
C399 C 0.90389 0.40229 0.47401 0.0
C400 C 0.93343 0.42603 0.46982 0.0
C401 C 0.84401 0.37021 0.46716 0.0
C402 C 0.82928 0.36885 0.48322 0.0
C403 C 0.83014 0.34514 0.45482 0.0
C404 C 0.84498 0.3449 0.43777 0.0
C405 C 0.87839 0.34585 0.43701 0.0
C406 C 0.89226 0.34591 0.42088 0.0
C407 C 0.87286 0.34474 0.40541 0.0
C408 C 0.83952 0.34341 0.40605 0.0
C409 C 0.82555 0.3434 0.42215 0.0
H410 H 0.88363 0.34478 0.39293 0.0
H411 H 0.74504 0.34522 0.54829 0.0
H412 H 0.39601 0.66982 0.8701 0.0
H413 H 0.36576 0.70829 0.87147 0.0
H414 H 0.45663 0.78074 0.89043 0.0
H415 H 0.48667 0.74285 0.88923 0.0
H416 H 0.40133 0.79458 0.90033 0.0
H417 H 0.44174 0.76082 0.84395 0.0
H418 H 0.43627 0.71682 0.82311 0.0
H419 H 0.32966 0.69561 0.8191 0.0
H420 H 0.3346 0.73932 0.84006 0.0
H421 H 0.50311 0.91587 0.85766 0.0
H422 H 0.46487 0.87286 0.87346 0.0
H423 H 0.38574 0.86743 0.8344 0.0
H424 H 0.42474 0.91043 0.81823 0.0
H425 H 0.39435 0.81303 0.83661 0.0
H426 H 0.37246 0.87579 0.87926 0.0
H427 H 0.38128 0.92024 0.90014 0.0
H428 H 0.45136 0.88792 0.93101 0.0
H429 H 0.44348 0.84361 0.91021 0.0
C430 C 0.40921 0.69369 0.87513 0.0
C431 C 0.44397 0.70357 0.87907 0.0
C432 C 0.39179 0.71555 0.87604 0.0
C433 C 0.4091 0.74761 0.88059 0.0
C434 C 0.44267 0.75617 0.88682 0.0
C435 C 0.45997 0.73438 0.88605 0.0
C436 C 0.39648 0.77373 0.87468 0.0
C437 C 0.39896 0.79868 0.88644 0.0
C438 C 0.39139 0.7784 0.85661 0.0
C439 C 0.38851 0.75314 0.84351 0.0
C440 C 0.4172 0.74683 0.83852 0.0
C441 C 0.41417 0.72189 0.82676 0.0
C442 C 0.38262 0.70338 0.81982 0.0
C443 C 0.35406 0.70991 0.82453 0.0
C444 C 0.35694 0.73474 0.83634 0.0
C445 C 0.47732 0.9061 0.8527 0.0
C446 C 0.467 0.91599 0.8366 0.0
C447 C 0.45519 0.88178 0.86189 0.0
C448 C 0.42215 0.86689 0.85524 0.0
C449 C 0.411 0.87865 0.83986 0.0
C450 C 0.43327 0.90317 0.83063 0.0
C451 C 0.40296 0.83518 0.86221 0.0
C452 C 0.3943 0.80902 0.85058 0.0
C453 C 0.40216 0.82955 0.8804 0.0
C454 C 0.40715 0.85612 0.89315 0.0
C455 C 0.38985 0.87818 0.89046 0.0
C456 C 0.3947 0.90339 0.9023 0.0
C457 C 0.4168 0.90686 0.91691 0.0
C458 C 0.43413 0.88512 0.91972 0.0
C459 C 0.42938 0.85986 0.90793 0.0
H460 H 0.42054 0.92641 0.92605 0.0
H461 H 0.38031 0.68401 0.81077 0.0
H462 H 0.93762 0.61723 0.13882 0.0
H463 H 0.87871 0.61381 0.13636 0.0
H464 H 0.85057 0.51852 0.15716 0.0
H465 H 0.90939 0.52169 0.15969 0.0
H466 H 0.81213 0.52292 0.1276 0.0
H467 H 0.84884 0.57893 0.18235 0.0
H468 H 0.88527 0.62164 0.20188 0.0
H469 H 0.85984 0.69227 0.17081 0.0
H470 H 0.82361 0.64999 0.15093 0.0
H471 H 0.64278 0.50168 0.13845 0.0
H472 H 0.70134 0.50724 0.145 0.0
H473 H 0.73045 0.60587 0.12934 0.0
H474 H 0.67163 0.60103 0.12364 0.0
H475 H 0.76873 0.59997 0.15669 0.0
H476 H 0.73411 0.54605 0.10152 0.0
H477 H 0.69862 0.50466 0.08097 0.0
H478 H 0.72136 0.43184 0.11137 0.0
H479 H 0.75663 0.47279 0.13225 0.0
C480 C 0.91894 0.59556 0.14292 0.0
C481 C 0.92827 0.56975 0.14947 0.0
C482 C 0.88527 0.59371 0.14157 0.0
C483 C 0.86026 0.566 0.1467 0.0
C484 C 0.86947 0.54015 0.15316 0.0
C485 C 0.90314 0.54206 0.15465 0.0
C486 C 0.82442 0.56367 0.14492 0.0
C487 C 0.80252 0.53946 0.13417 0.0
C488 C 0.81211 0.58586 0.15308 0.0
C489 C 0.83376 0.6113 0.16506 0.0
C490 C 0.85123 0.60358 0.1796 0.0
C491 C 0.87181 0.62771 0.19075 0.0
C492 C 0.87494 0.65965 0.18756 0.0
C493 C 0.85743 0.66752 0.17325 0.0
C494 C 0.83684 0.64348 0.16204 0.0
C495 C 0.66146 0.52482 0.13678 0.0
C496 C 0.65229 0.55086 0.13039 0.0
C497 C 0.69508 0.52783 0.14032 0.0
C498 C 0.72043 0.55677 0.13729 0.0
C499 C 0.71139 0.5832 0.13164 0.0
C500 C 0.6777 0.5803 0.12823 0.0
C501 C 0.75632 0.55908 0.13942 0.0
C502 C 0.77827 0.58334 0.15017 0.0
C503 C 0.76882 0.53713 0.13111 0.0
C504 C 0.74773 0.51246 0.11854 0.0
C505 C 0.73134 0.52119 0.10389 0.0
C506 C 0.7113 0.49782 0.09218 0.0
C507 C 0.70766 0.46563 0.09489 0.0
C508 C 0.72415 0.45677 0.1093 0.0
C509 C 0.74419 0.48006 0.12107 0.0
H510 H 0.69214 0.44757 0.0858 0.0
H511 H 0.89088 0.6783 0.19621 0.0
H512 H 0.29826 0.92237 0.49937 0.0
H513 H 0.25517 0.87243 0.48997 0.0
H514 H 0.29304 0.82145 0.5295 0.0
H515 H 0.33673 0.87123 0.53871 0.0
H516 H 0.28302 0.79117 0.4983 0.0
H517 H 0.21976 0.83576 0.53403 0.0
H518 H 0.19749 0.8771 0.54425 0.0
H519 H 0.14822 0.87736 0.49385 0.0
H520 H 0.17059 0.83632 0.48324 0.0
H521 H 0.15119 0.64459 0.48741 0.0
H522 H 0.1883 0.6945 0.50067 0.0
H523 H 0.15439 0.74814 0.46104 0.0
H524 H 0.11654 0.69825 0.44791 0.0
H525 H 0.1616 0.77655 0.49333 0.0
H526 H 0.22666 0.73418 0.45724 0.0
H527 H 0.24909 0.6932 0.44666 0.0
H528 H 0.29533 0.6894 0.49749 0.0
H529 H 0.27274 0.73006 0.50845 0.0
C530 C 0.29742 0.90053 0.50607 0.0
C531 C 0.32097 0.9008 0.51978 0.0
C532 C 0.27258 0.87203 0.50078 0.0
C533 C 0.27067 0.8432 0.50912 0.0
C534 C 0.29395 0.84342 0.52291 0.0
C535 C 0.31875 0.87194 0.52825 0.0
C536 C 0.24529 0.81264 0.50294 0.0
C537 C 0.25642 0.7878 0.49751 0.0
C538 C 0.21065 0.8085 0.50146 0.0
C539 C 0.19712 0.83317 0.5078 0.0
C540 C 0.20441 0.84482 0.52508 0.0
C541 C 0.19172 0.86817 0.53095 0.0
C542 C 0.17152 0.87991 0.51969 0.0
C543 C 0.1639 0.86827 0.50255 0.0
C544 C 0.17655 0.84494 0.49661 0.0
C545 C 0.1511 0.667 0.4817 0.0
C546 C 0.13095 0.6674 0.46655 0.0
C547 C 0.17258 0.69552 0.4892 0.0
C548 C 0.17447 0.72504 0.4817 0.0
C549 C 0.15344 0.72563 0.467 0.0
C550 C 0.132 0.6971 0.45945 0.0
C551 C 0.19938 0.75515 0.48875 0.0
C552 C 0.18818 0.7799 0.49426 0.0
C553 C 0.23401 0.75929 0.49027 0.0
C554 C 0.2477 0.7349 0.48371 0.0
C555 C 0.24137 0.72441 0.4662 0.0
C556 C 0.25415 0.70127 0.46013 0.0
C557 C 0.27354 0.68864 0.47141 0.0
C558 C 0.28026 0.69917 0.48878 0.0
C559 C 0.26748 0.72227 0.49492 0.0
H560 H 0.28343 0.67074 0.46668 0.0
H561 H 0.16171 0.89798 0.52427 0.0
H562 H 0.49903 0.34181 0.832 0.0
H563 H 0.51723 0.29566 0.83829 0.0
H564 H 0.60563 0.33853 0.80966 0.0
H565 H 0.58787 0.38507 0.80374 0.0
H566 H 0.52181 0.25589 0.81515 0.0
H567 H 0.66718 0.30945 0.82207 0.0
H568 H 0.7099 0.35802 0.83435 0.0
H569 H 0.64056 0.36938 0.87049 0.0
H570 H 0.59756 0.32065 0.85862 0.0
H571 H 0.59799 0.15416 0.78338 0.0
H572 H 0.5956 0.20667 0.79129 0.0
H573 H 0.59554 0.18209 0.84575 0.0
H574 H 0.59705 0.12893 0.83794 0.0
H575 H 0.63491 0.25332 0.83401 0.0
H576 H 0.52688 0.16966 0.83436 0.0
H577 H 0.48392 0.12122 0.8221 0.0
H578 H 0.47663 0.17065 0.77448 0.0
H579 H 0.52003 0.21922 0.78637 0.0
C580 C 0.52253 0.34148 0.82724 0.0
C581 C 0.54186 0.36672 0.8172 0.0
C582 C 0.53298 0.31523 0.83091 0.0
C583 C 0.56283 0.31364 0.8245 0.0
C584 C 0.58283 0.33945 0.81503 0.0
C585 C 0.57258 0.36593 0.81155 0.0
C586 C 0.57089 0.28353 0.82586 0.0
C587 C 0.5464 0.25539 0.81959 0.0
C588 C 0.60293 0.28271 0.8317 0.0
C589 C 0.62907 0.31143 0.83937 0.0
C590 C 0.66112 0.32213 0.83274 0.0
C591 C 0.68537 0.34974 0.83961 0.0
C592 C 0.67794 0.36678 0.85318 0.0
C593 C 0.64628 0.35617 0.85997 0.0
C594 C 0.62194 0.32858 0.85315 0.0
C595 C 0.59792 0.16003 0.79706 0.0
C596 C 0.59702 0.13721 0.81002 0.0
C597 C 0.59697 0.19014 0.80156 0.0
C598 C 0.59531 0.19804 0.81907 0.0
C599 C 0.59711 0.17638 0.83218 0.0
C600 C 0.59788 0.14605 0.82768 0.0
C601 C 0.58597 0.22643 0.82306 0.0
C602 C 0.61017 0.25403 0.8301 0.0
C603 C 0.55348 0.22685 0.81825 0.0
C604 C 0.52686 0.19795 0.8112 0.0
C605 C 0.51629 0.1701 0.82123 0.0
C606 C 0.49185 0.14264 0.81436 0.0
C607 C 0.4776 0.14283 0.79751 0.0
C608 C 0.48771 0.17053 0.78752 0.0
C609 C 0.5122 0.19803 0.79433 0.0
H610 H 0.45869 0.12155 0.7922 0.0
H611 H 0.69669 0.38823 0.85843 0.0
H612 H 0.58312 0.96556 0.50922 0.0
H613 H 0.58427 0.91064 0.51102 0.0
H614 H 0.48785 0.8809 0.53338 0.0
H615 H 0.48693 0.93581 0.53199 0.0
H616 H 0.52363 0.85148 0.54992 0.0
H617 H 0.50217 0.86437 0.48865 0.0
H618 H 0.51286 0.89008 0.45995 0.0
H619 H 0.60817 0.87524 0.46062 0.0
H620 H 0.59822 0.84978 0.48942 0.0
H621 H 0.49594 0.68343 0.54251 0.0
H622 H 0.49181 0.73702 0.53956 0.0
H623 H 0.58552 0.76822 0.51452 0.0
H624 H 0.58862 0.71438 0.51625 0.0
H625 H 0.5499 0.79682 0.49923 0.0
H626 H 0.57211 0.78479 0.56063 0.0
H627 H 0.56213 0.75988 0.58956 0.0
H628 H 0.46639 0.77383 0.58897 0.0
H629 H 0.47563 0.79845 0.55993 0.0
C630 C 0.56203 0.94739 0.51447 0.0
C631 C 0.53484 0.95561 0.52032 0.0
C632 C 0.56262 0.91566 0.51542 0.0
C633 C 0.53588 0.8908 0.52209 0.0
C634 C 0.50889 0.89911 0.52811 0.0
C635 C 0.50834 0.9308 0.52722 0.0
C636 C 0.53605 0.85645 0.52299 0.0
C637 C 0.52895 0.8395 0.53871 0.0
C638 C 0.54366 0.84036 0.50863 0.0
C639 C 0.54958 0.85544 0.49126 0.0
C640 C 0.52549 0.86677 0.48272 0.0
C641 C 0.53141 0.88127 0.46643 0.0
C642 C 0.56121 0.88436 0.45849 0.0
C643 C 0.58512 0.87286 0.46679 0.0
C644 C 0.57934 0.85837 0.48309 0.0
C645 C 0.51554 0.70139 0.53611 0.0
C646 C 0.54288 0.69381 0.52986 0.0
C647 C 0.51341 0.73258 0.53468 0.0
C648 C 0.53879 0.75769 0.52721 0.0
C649 C 0.56555 0.74992 0.52052 0.0
C650 C 0.56751 0.71875 0.52175 0.0
C651 C 0.53767 0.79179 0.52622 0.0
C652 C 0.54457 0.80873 0.51046 0.0
C653 C 0.52998 0.8079 0.54058 0.0
C654 C 0.52441 0.79312 0.55802 0.0
C655 C 0.54884 0.78233 0.56662 0.0
C656 C 0.54332 0.76829 0.58304 0.0
C657 C 0.5136 0.76518 0.59107 0.0
C658 C 0.48937 0.77619 0.58272 0.0
C659 C 0.49473 0.79019 0.56628 0.0
H660 H 0.50938 0.75431 0.60379 0.0
H661 H 0.56575 0.89561 0.44588 0.0
H662 H 0.60755 0.51923 0.80801 0.0
H663 H 0.66466 0.517 0.8104 0.0
H664 H 0.69272 0.59466 0.84794 0.0
H665 H 0.63614 0.5974 0.84543 0.0
H666 H 0.73902 0.60402 0.8251 0.0
H667 H 0.6761 0.51404 0.85939 0.0
H668 H 0.63083 0.46321 0.86362 0.0
H669 H 0.66884 0.41804 0.82421 0.0
H670 H 0.71414 0.46877 0.81958 0.0
H671 H 0.8813 0.59757 0.87275 0.0
H672 H 0.82352 0.59156 0.86369 0.0
H673 H 0.82474 0.52447 0.82344 0.0
H674 H 0.88313 0.53024 0.8326 0.0
H675 H 0.76428 0.50593 0.84273 0.0
H676 H 0.8302 0.59426 0.81051 0.0
H677 H 0.87523 0.64509 0.80604 0.0
H678 H 0.83106 0.69301 0.8411 0.0
H679 H 0.78602 0.64233 0.846 0.0
C680 C 0.62587 0.53583 0.81678 0.0
C681 C 0.61712 0.55845 0.82656 0.0
C682 C 0.65853 0.53444 0.81818 0.0
C683 C 0.68303 0.55543 0.82951 0.0
C684 C 0.67436 0.57821 0.8391 0.0
C685 C 0.64188 0.57972 0.83765 0.0
C686 C 0.71784 0.55423 0.83142 0.0
C687 C 0.74444 0.58258 0.82907 0.0
C688 C 0.72511 0.52597 0.83596 0.0
C689 C 0.69828 0.49532 0.83899 0.0
C690 C 0.67469 0.49333 0.85155 0.0
C691 C 0.64904 0.46453 0.85402 0.0
C692 C 0.64687 0.43745 0.84412 0.0
C693 C 0.6705 0.43907 0.83182 0.0
C694 C 0.69619 0.46783 0.82928 0.0
C695 C 0.86926 0.58117 0.86211 0.0
C696 C 0.88684 0.56422 0.85347 0.0
C697 C 0.83623 0.57792 0.85687 0.0
C698 C 0.81981 0.55768 0.84284 0.0
C699 C 0.83694 0.54021 0.83431 0.0
C700 C 0.87031 0.54369 0.83948 0.0
C701 C 0.78517 0.556 0.83698 0.0
C702 C 0.75873 0.52719 0.83854 0.0
C703 C 0.77789 0.58379 0.83167 0.0
C704 C 0.80485 0.61441 0.82871 0.0
C705 C 0.83023 0.61557 0.81737 0.0
C706 C 0.85574 0.64437 0.81475 0.0
C707 C 0.85604 0.67225 0.8233 0.0
C708 C 0.8308 0.67139 0.83448 0.0
C709 C 0.80525 0.64263 0.83718 0.0
H710 H 0.87581 0.69453 0.82125 0.0
H711 H 0.62693 0.41521 0.846 0.0
H712 H 0.21728 0.73172 0.17208 0.0
H713 H 0.26888 0.7721 0.18296 0.0
H714 H 0.23885 0.84535 0.1564 0.0
H715 H 0.1878 0.80478 0.14467 0.0
H716 H 0.30347 0.85534 0.15292 0.0
H717 H 0.23178 0.83405 0.20085 0.0
H718 H 0.194 0.80021 0.22185 0.0
H719 H 0.27279 0.76643 0.24204 0.0
H720 H 0.31094 0.79975 0.22099 0.0
H721 H 0.42888 0.98245 0.19931 0.0
H722 H 0.37484 0.94629 0.18766 0.0
H723 H 0.3968 0.8664 0.21155 0.0
H724 H 0.45006 0.90238 0.22374 0.0
H725 H 0.3341 0.86273 0.21649 0.0
H726 H 0.40464 0.88189 0.16745 0.0
H727 H 0.44215 0.91522 0.14618 0.0
H728 H 0.36512 0.95317 0.12812 0.0
H729 H 0.32729 0.92034 0.14945 0.0
C730 C 0.22178 0.75632 0.16829 0.0
C731 C 0.19821 0.76492 0.1575 0.0
C732 C 0.25118 0.77949 0.17473 0.0
C733 C 0.25751 0.81189 0.17079 0.0
C734 C 0.23442 0.82054 0.15974 0.0
C735 C 0.20507 0.79732 0.15317 0.0
C736 C 0.28819 0.83665 0.17824 0.0
C737 C 0.3099 0.85729 0.16685 0.0
C738 C 0.29689 0.83895 0.1964 0.0
C739 C 0.27415 0.81923 0.20925 0.0
C740 C 0.241 0.81927 0.2097 0.0
C741 C 0.21952 0.80019 0.22162 0.0
C742 C 0.23096 0.78112 0.23324 0.0
C743 C 0.26395 0.78119 0.23302 0.0
C744 C 0.28553 0.8002 0.22111 0.0
C745 C 0.42208 0.95722 0.2022 0.0
C746 C 0.44399 0.94532 0.21235 0.0
C747 C 0.39129 0.93653 0.1954 0.0
C748 C 0.3819 0.90353 0.19854 0.0
C749 C 0.40351 0.89172 0.20888 0.0
C750 C 0.43416 0.91233 0.21569 0.0
C751 C 0.34962 0.88109 0.19115 0.0
C752 C 0.32756 0.86092 0.20257 0.0
C753 C 0.34059 0.87929 0.17303 0.0
C754 C 0.36327 0.89893 0.16017 0.0
C755 C 0.39579 0.89753 0.15903 0.0
C756 C 0.4171 0.91629 0.14695 0.0
C757 C 0.40606 0.93637 0.13584 0.0
C758 C 0.37366 0.93765 0.13676 0.0
C759 C 0.35227 0.91896 0.14883 0.0
H760 H 0.42259 0.95088 0.12649 0.0
H761 H 0.21428 0.76633 0.24244 0.0
H762 H 0.47593 0.14528 0.52037 0.0
H763 H 0.47719 0.201 0.52111 0.0
H764 H 0.58432 0.23194 0.53086 0.0
H765 H 0.58324 0.17656 0.52889 0.0
H766 H 0.48863 0.24572 0.54173 0.0
H767 H 0.62353 0.30771 0.5203 0.0
H768 H 0.66428 0.29586 0.50194 0.0
H769 H 0.58404 0.22957 0.47121 0.0
H770 H 0.54281 0.24125 0.48922 0.0
H771 H 0.52851 0.41184 0.55974 0.0
H772 H 0.52744 0.35648 0.55767 0.0
H773 H 0.54046 0.36698 0.50236 0.0
H774 H 0.54268 0.42288 0.50452 0.0
H775 H 0.57431 0.33232 0.51254 0.0
H776 H 0.4615 0.32304 0.52247 0.0
H777 H 0.41515 0.33236 0.53724 0.0
H778 H 0.44174 0.2904 0.58403 0.0
H779 H 0.48853 0.28119 0.5696 0.0
C780 C 0.49982 0.16396 0.52256 0.0
C781 C 0.52949 0.15605 0.5244 0.0
C782 C 0.50057 0.19611 0.52305 0.0
C783 C 0.53095 0.22164 0.52569 0.0
C784 C 0.56048 0.2135 0.52813 0.0
C785 C 0.55983 0.18145 0.52718 0.0
C786 C 0.53157 0.25634 0.52609 0.0
C787 C 0.50749 0.26447 0.5353 0.0
C788 C 0.55551 0.28154 0.51749 0.0
C789 C 0.5801 0.27516 0.50622 0.0
C790 C 0.61458 0.29076 0.50956 0.0
C791 C 0.63776 0.28403 0.49924 0.0
C792 C 0.62676 0.26192 0.48547 0.0
C793 C 0.59254 0.24662 0.48191 0.0
C794 C 0.56925 0.25328 0.49217 0.0
C795 C 0.53078 0.4024 0.54705 0.0
C796 C 0.53537 0.42229 0.53229 0.0
C797 C 0.53009 0.37036 0.54585 0.0
C798 C 0.53317 0.35652 0.52976 0.0
C799 C 0.53799 0.37645 0.51501 0.0
C800 C 0.53919 0.40869 0.51625 0.0
C801 C 0.5316 0.32165 0.52836 0.0
C802 C 0.55549 0.31351 0.51897 0.0
C803 C 0.5068 0.29624 0.53628 0.0
C804 C 0.47871 0.30171 0.54501 0.0
C805 C 0.45759 0.316 0.53595 0.0
C806 C 0.43123 0.32123 0.54425 0.0
C807 C 0.42556 0.31206 0.56158 0.0
C808 C 0.44619 0.29754 0.57062 0.0
C809 C 0.47262 0.29228 0.56238 0.0
H810 H 0.40513 0.31613 0.56798 0.0
H811 H 0.64474 0.25668 0.47754 0.0
H812 H 0.38439 0.50683 0.82413 0.0
H813 H 0.32827 0.50957 0.82773 0.0
H814 H 0.36729 0.61254 0.82452 0.0
H815 H 0.42349 0.60969 0.82221 0.0
H816 H 0.32899 0.6014 0.8482 0.0
H817 H 0.31427 0.55743 0.7905 0.0
H818 H 0.31554 0.51995 0.7671 0.0
H819 H 0.24709 0.44256 0.79391 0.0
H820 H 0.24573 0.47952 0.81759 0.0
H821 H 0.17308 0.62737 0.83557 0.0
H822 H 0.22538 0.61955 0.82849 0.0
H823 H 0.19207 0.52518 0.85033 0.0
H824 H 0.13987 0.53313 0.85804 0.0
H825 H 0.22561 0.53079 0.81724 0.0
H826 H 0.24255 0.58058 0.875 0.0
H827 H 0.24061 0.62232 0.89568 0.0
H828 H 0.30501 0.69463 0.86418 0.0
H829 H 0.30741 0.65327 0.84334 0.0
C830 C 0.38076 0.52995 0.82401 0.0
C831 C 0.4082 0.55804 0.8229 0.0
C832 C 0.34861 0.53156 0.82597 0.0
C833 C 0.34306 0.56128 0.82618 0.0
C834 C 0.37058 0.58927 0.82454 0.0
C835 C 0.40277 0.58767 0.82315 0.0
C836 C 0.30915 0.56354 0.82898 0.0
C837 C 0.30661 0.58617 0.84116 0.0
C838 C 0.27944 0.5435 0.82011 0.0
C839 C 0.28018 0.52119 0.8059 0.0
C840 C 0.29968 0.53238 0.79147 0.0
C841 C 0.30038 0.51123 0.77815 0.0
C842 C 0.28148 0.47888 0.77905 0.0
C843 C 0.26176 0.46762 0.79325 0.0
C844 C 0.26099 0.48866 0.80661 0.0
C845 C 0.17677 0.60492 0.83894 0.0
C846 C 0.1523 0.58108 0.84766 0.0
C847 C 0.20667 0.60045 0.83476 0.0
C848 C 0.21279 0.57194 0.83905 0.0
C849 C 0.18783 0.54738 0.84691 0.0
C850 C 0.15793 0.55194 0.85124 0.0
C851 C 0.246 0.56866 0.83621 0.0
C852 C 0.24826 0.54588 0.82413 0.0
C853 C 0.27561 0.58915 0.84475 0.0
C854 C 0.27491 0.61388 0.85754 0.0
C855 C 0.25622 0.60539 0.87247 0.0
C856 C 0.25513 0.62897 0.88424 0.0
C857 C 0.27272 0.66111 0.88125 0.0
C858 C 0.29155 0.66972 0.86652 0.0
C859 C 0.29285 0.64623 0.85475 0.0
H860 H 0.27176 0.67933 0.89036 0.0
H861 H 0.28206 0.46254 0.76872 0.0
H862 H 0.90221 0.33985 0.18546 0.0
H863 H 0.85235 0.29425 0.18981 0.0
H864 H 0.79082 0.35454 0.18227 0.0
H865 H 0.84103 0.40083 0.17854 0.0
H866 H 0.77195 0.31627 0.20967 0.0
H867 H 0.7923 0.30119 0.15051 0.0
H868 H 0.82535 0.29729 0.12564 0.0
H869 H 0.84577 0.21684 0.14914 0.0
H870 H 0.81323 0.22052 0.17428 0.0
H871 H 0.62686 0.17504 0.21052 0.0
H872 H 0.66774 0.22471 0.20086 0.0
H873 H 0.74589 0.18234 0.20766 0.0
H874 H 0.70555 0.13303 0.21746 0.0
H875 H 0.75033 0.21417 0.1773 0.0
H876 H 0.73544 0.23414 0.23794 0.0
H877 H 0.70248 0.23838 0.2628 0.0
H878 H 0.67116 0.31001 0.23588 0.0
H879 H 0.70361 0.30588 0.21076 0.0
C880 C 0.87814 0.34356 0.18484 0.0
C881 C 0.87569 0.3741 0.18172 0.0
C882 C 0.84955 0.31732 0.18712 0.0
C883 C 0.81773 0.32082 0.18613 0.0
C884 C 0.81509 0.35123 0.183 0.0
C885 C 0.84378 0.37761 0.18074 0.0
C886 C 0.78756 0.29273 0.18891 0.0
C887 C 0.76681 0.29414 0.20234 0.0
C888 C 0.781 0.26371 0.17949 0.0
C889 C 0.80047 0.26127 0.16434 0.0
C890 C 0.80402 0.28279 0.15044 0.0
C891 C 0.82264 0.2806 0.13628 0.0
C892 C 0.83769 0.25687 0.13583 0.0
C893 C 0.8341 0.23522 0.14951 0.0
C894 C 0.81552 0.23732 0.16371 0.0
C895 C 0.65278 0.17636 0.21002 0.0
C896 C 0.66285 0.14994 0.21472 0.0
C897 C 0.67609 0.20474 0.20446 0.0
C898 C 0.70993 0.2073 0.20361 0.0
C899 C 0.7199 0.18087 0.20809 0.0
C900 C 0.69671 0.1526 0.21363 0.0
C901 C 0.73537 0.2375 0.19836 0.0
C902 C 0.75519 0.23647 0.18443 0.0
C903 C 0.74098 0.26686 0.20727 0.0
C904 C 0.72161 0.26942 0.2224 0.0
C905 C 0.7213 0.25061 0.23727 0.0
C906 C 0.70276 0.25302 0.25142 0.0
C907 C 0.68465 0.27437 0.2509 0.0
C908 C 0.68514 0.29343 0.23625 0.0
C909 C 0.70361 0.29107 0.22206 0.0
H910 H 0.67031 0.27621 0.26186 0.0
H911 H 0.85211 0.25521 0.12486 0.0
H912 H 0.05224 0.51754 0.09888 0.0
H913 H 0.05695 0.52766 0.06761 0.0
H914 H 1.01438 0.60329 0.07239 0.0
H915 H 1.00918 0.59293 0.10374 0.0
H916 H 0.98668 0.56505 0.04447 0.0
H917 H 0.09772 0.61988 0.06818 0.0
H918 H 0.14971 0.62474 0.08573 0.0
H919 H 0.16672 0.55277 0.05385 0.0
H920 H 0.11448 0.54704 0.03628 0.0
H921 H 0.02357 0.63101 0.96125 0.0
H922 H 0.02302 0.62414 0.9928 0.0
H923 H 0.06692 0.5494 0.98852 0.0
H924 H 0.06889 0.55706 0.9569 0.0
H925 H 0.09466 0.58788 0.0163 0.0
H926 H 0.98334 0.53149 0.9934 0.0
H927 H 0.93056 0.52492 0.97621 0.0
H928 H 0.91385 0.59863 0.00682 0.0
H929 H 0.9668 0.60595 0.02404 0.0
C930 C 0.04388 0.53633 0.09327 0.0
C931 C 0.03031 0.55444 0.10371 0.0
C932 C 0.04675 0.5422 0.07541 0.0
C933 C 0.03638 0.56648 0.06769 0.0
C934 C 0.02259 0.58447 0.07809 0.0
C935 C 0.01967 0.57858 0.09598 0.0
C936 C 0.0394 0.57267 0.0487 0.0
C937 C 1.01039 0.57055 0.03836 0.0
C938 C 0.0702 0.57898 0.04066 0.0
C939 C 0.10199 0.58283 0.051 0.0
C940 C 0.11242 0.60493 0.06497 0.0
C941 C 0.14195 0.60786 0.07492 0.0
C942 C 0.16147 0.58903 0.07093 0.0
C943 C 0.15155 0.56732 0.05694 0.0
C944 C 0.12199 0.56423 0.04697 0.0
C945 C 0.03364 0.61344 0.96699 0.0
C946 C 0.04625 0.59456 0.95648 0.0
C947 C 0.03297 0.60931 0.98505 0.0
C948 C 0.04447 0.58593 0.99302 0.0
C949 C 0.05776 0.56749 0.98265 0.0
C950 C 0.05857 0.5717 0.96455 0.0
C951 C 0.04192 0.58034 0.0121 0.0
C952 C 0.07099 0.5825 0.02244 0.0
C953 C 1.01115 0.57396 0.02017 0.0
C954 C 0.97919 0.56947 0.0099 0.0
C955 C 0.96853 0.54646 0.99638 0.0
C956 C 0.93857 0.54258 0.98665 0.0
C957 C 0.91891 0.5614 0.99039 0.0
C958 C 0.92913 0.5841 0.00392 0.0
C959 C 0.9591 0.5881 0.01368 0.0
H960 H 0.89572 0.55837 0.98284 0.0
H961 H 0.1843 0.5913 0.07866 0.0
H962 H 0.55919 0.04475 0.47424 0.0
H963 H 0.571 0.04801 0.44324 0.0
H964 H 0.46885 0.04192 0.4297 0.0
H965 H 0.45714 0.03885 0.46071 0.0
H966 H 0.48882 1.00308 0.40944 0.0
H967 H 0.53229 0.11328 0.42814 0.0
H968 H 0.56676 0.158 0.4471 0.0
H969 H 0.65577 0.14027 0.43276 0.0
H970 H 0.62178 0.09518 0.41383 0.0
H971 H 0.50345 0.04625 0.32112 0.0
H972 H 0.49528 0.04792 0.35236 0.0
H973 H 0.59789 0.05365 0.36397 0.0
H974 H 0.60625 0.05194 0.33271 0.0
H975 H 0.57931 0.09297 0.3854 0.0
H976 H 0.53645 0.98326 0.36676 0.0
H977 H 0.50235 0.9376 0.34832 0.0
H978 H 0.41268 0.95341 0.36322 0.0
H979 H 0.4463 0.9995 0.38157 0.0
C980 C 0.53952 0.04472 0.46465 0.0
C981 C 0.50753 0.0423 0.46983 0.0
C982 C 0.54619 0.04641 0.44695 0.0
C983 C 0.52093 0.04575 0.43417 0.0
C984 C 0.48874 0.04264 0.43935 0.0
C985 C 0.48209 0.04091 0.45704 0.0
C986 C 0.52783 0.04771 0.41536 0.0
C987 C 0.50829 1.02297 0.40414 0.0
C988 C 0.55388 0.07322 0.40856 0.0
C989 C 0.57446 0.1007 0.41966 0.0
C990 C 0.5592 0.11881 0.42909 0.0
C991 C 0.57865 0.14424 0.43982 0.0
C992 C 0.61342 0.15195 0.44114 0.0
C993 C 0.62883 0.13428 0.43171 0.0
C994 C 0.60949 0.10881 0.42095 0.0
C995 C 0.52429 0.04788 0.33032 0.0
C996 C 0.55541 0.04868 0.32443 0.0
C997 C 0.51961 0.04891 0.34817 0.0
C998 C 0.54585 0.05044 0.36051 0.0
C999 C 0.5773 0.05247 0.35468 0.0
C1000 C 0.58204 0.05154 0.3368 0.0
C1001 C 0.53997 0.04851 0.37946 0.0
C1002 C 0.55979 0.07315 0.3907 0.0
C1003 C 0.51422 1.02284 0.38634 0.0
C1004 C 0.49392 0.99502 0.3754 0.0
C1005 C 0.50948 0.97715 0.366 0.0
C1006 C 0.49023 0.95117 0.35558 0.0
C1007 C 0.45538 0.94266 0.35457 0.0
C1008 C 0.43969 0.96007 0.36401 0.0
C1009 C 0.45882 0.9861 0.37443 0.0
H1010 H 0.44052 0.92254 0.34649 0.0
H1011 H 0.62841 0.17166 0.44945 0.0
H1012 H 0.4908 0.53747 0.77481 0.0
H1013 H 0.49443 0.53149 0.7434 0.0
H1014 H 0.56056 0.62908 0.74146 0.0
H1015 H 0.55943 0.63387 0.77312 0.0
H1016 H 0.47783 0.55292 0.71627 0.0
H1017 H 0.61152 0.64269 0.70903 0.0
H1018 H 0.6651 0.66348 0.72636 0.0
H1019 H 0.63946 0.57791 0.75677 0.0
H1020 H 0.58592 0.55645 0.73948 0.0
H1021 H 0.50064 0.58406 0.62669 0.0
H1022 H 0.49703 0.58759 0.65817 0.0
H1023 H 0.57609 0.54667 0.66648 0.0
H1024 H 0.5816 0.54529 0.63508 0.0
H1025 H 0.58672 0.59122 0.68852 0.0
H1026 H 0.49073 0.5034 0.67199 0.0
H1027 H 0.43833 0.47349 0.65548 0.0
H1028 H 0.39112 0.53865 0.67389 0.0
H1029 H 0.44342 0.56925 0.69033 0.0
C1030 C 0.50645 0.55745 0.76767 0.0
C1031 C 0.52538 0.58588 0.77642 0.0
C1032 C 0.50832 0.55415 0.74966 0.0
C1033 C 0.52843 0.57956 0.73992 0.0
C1034 C 0.54591 0.60861 0.74862 0.0
C1035 C 0.545 0.61149 0.76673 0.0
C1036 C 0.53107 0.57559 0.72076 0.0
C1037 C 0.50171 0.56127 0.71026 0.0
C1038 C 0.56221 0.58566 0.71277 0.0
C1039 C 0.59459 0.59812 0.72306 0.0
C1040 C 0.6174 0.62826 0.71936 0.0
C1041 C 0.64774 0.64017 0.72919 0.0
C1042 C 0.65564 0.62207 0.74269 0.0
C1043 C 0.63327 0.59195 0.74634 0.0
C1044 C 0.60291 0.57991 0.73654 0.0
C1045 C 0.51758 0.57614 0.63517 0.0
C1046 C 0.54141 0.56434 0.62819 0.0
C1047 C 0.51513 0.57774 0.65324 0.0
C1048 C 0.53593 0.56696 0.66481 0.0
C1049 C 0.55966 0.55508 0.65789 0.0
C1050 C 0.56247 0.55391 0.63984 0.0
C1051 C 0.53352 0.5687 0.68409 0.0
C1052 C 0.56289 0.58274 0.69457 0.0
C1053 C 0.5026 0.55699 0.69217 0.0
C1054 C 0.47111 0.53881 0.68224 0.0
C1055 C 0.46926 0.51152 0.6724 0.0
C1056 C 0.43956 0.49441 0.66308 0.0
C1057 C 0.41144 0.50422 0.6636 0.0
C1058 C 0.41294 0.53112 0.67348 0.0
C1059 C 0.4426 0.54834 0.68281 0.0
H1060 H 0.38846 0.49092 0.65638 0.0
H1061 H 0.67912 0.63136 0.75029 0.0
H1062 H 0.58237 1.02006 0.57308 0.0
H1063 H 0.56706 1.00327 0.60265 0.0
H1064 H 0.48874 0.04586 0.59844 0.0
H1065 H 0.50422 0.06302 0.56864 0.0
H1066 H 0.52757 0.06275 0.62878 0.0
H1067 H 0.4678 0.96656 0.59843 0.0
H1068 H 0.45934 0.9228 0.57712 0.0
H1069 H 0.53404 0.89276 0.60535 0.0
H1070 H 0.54346 0.93673 0.62666 0.0
H1071 H 0.4928 1.00658 0.71485 0.0
H1072 H 0.48169 1.01129 0.68346 0.0
H1073 H 0.5615 0.97471 0.67279 0.0
H1074 H 0.57212 0.96912 0.70408 0.0
H1075 H 0.50822 0.95184 0.6492 0.0
H1076 H 0.57545 0.05429 0.67501 0.0
H1077 H 0.58679 0.09973 0.69555 0.0
H1078 H 0.49852 0.11817 0.6751 0.0
H1079 H 0.48643 0.07253 0.65459 0.0
C1080 C 0.56177 1.02573 0.5784 0.0
C1081 C 0.54454 0.04292 0.56863 0.0
C1082 C 0.55288 1.01591 0.59525 0.0
C1083 C 0.52648 1.02295 0.60265 0.0
C1084 C 0.50907 0.04005 0.5929 0.0
C1085 C 0.51791 0.04982 0.57594 0.0
C1086 C 0.51878 1.01391 0.62095 0.0
C1087 C 0.52241 0.03836 0.6332 0.0
C1088 C 0.51254 0.98213 0.6267 0.0
C1089 C 0.50645 0.95511 0.61413 0.0
C1090 C 0.48257 0.95075 0.60006 0.0
C1091 C 0.4776 0.92589 0.58797 0.0
C1092 C 0.49617 0.90504 0.58986 0.0
C1093 C 0.51967 0.90894 0.6039 0.0
C1094 C 0.52481 0.93381 0.616 0.0
C1095 C 0.50748 0.99887 0.7058 0.0
C1096 C 0.53358 0.98778 0.71194 0.0
C1097 C 0.50122 1.00176 0.68788 0.0
C1098 C 0.52104 0.99372 0.67582 0.0
C1099 C 0.54594 0.9811 0.68188 0.0
C1100 C 0.55221 0.97822 0.69976 0.0
C1101 C 0.51798 1.00084 0.65701 0.0
C1102 C 0.51242 0.97605 0.6447 0.0
C1103 C 0.52249 0.03231 0.65116 0.0
C1104 C 0.52981 0.05978 0.66344 0.0
C1105 C 0.55833 0.06789 0.675 0.0
C1106 C 0.56491 0.09369 0.68661 0.0
C1107 C 0.54332 0.11176 0.68667 0.0
C1108 C 0.51517 0.10411 0.67507 0.0
C1109 C 0.50844 0.07828 0.66345 0.0
H1110 H 0.54847 0.13174 0.69567 0.0
H1111 H 0.49233 0.88584 0.58047 0.0
H1112 H 0.55107 0.56691 0.87439 0.0
H1113 H 0.55487 0.56901 0.90634 0.0
H1114 H 0.46122 0.4916 0.90732 0.0
H1115 H 0.45679 0.49019 0.87539 0.0
H1116 H 0.46265 0.53604 0.93029 0.0
H1117 H 0.53789 0.48015 0.91553 0.0
H1118 H 0.58521 0.47288 0.90072 0.0
H1119 H 0.65254 0.55655 0.92684 0.0
H1120 H 0.60551 0.56458 0.94162 0.0
H1121 H 0.47214 0.48242 0.01686 0.0
H1122 H 0.47193 0.48592 0.98501 0.0
H1123 H 0.55775 0.57167 0.98916 0.0
H1124 H 0.55814 0.56827 0.02114 0.0
H1125 H 0.56236 0.52659 0.96395 0.0
H1126 H 0.48632 0.58044 0.9797 0.0
H1127 H 0.43842 0.58657 0.99443 0.0
H1128 H 0.37197 0.5048 0.96638 0.0
H1129 H 0.41958 0.49788 0.95167 0.0
C1130 C 0.53123 0.55048 0.88144 0.0
C1131 C 0.50362 0.52839 0.87245 0.0
C1132 C 0.53353 0.55154 0.89969 0.0
C1133 C 0.50854 0.53018 0.90925 0.0
C1134 C 0.48081 0.5083 0.90023 0.0
C1135 C 0.47836 0.50742 0.882 0.0
C1136 C 0.51112 0.53054 0.92863 0.0
C1137 C 0.48431 0.53361 0.93762 0.0
C1138 C 0.53974 0.52817 0.93823 0.0
C1139 C 0.56812 0.52315 0.92954 0.0
C1140 C 0.56275 0.49712 0.91802 0.0
C1141 C 0.58952 0.49284 0.90965 0.0
C1142 C 0.62185 0.51429 0.9128 0.0
C1143 C 0.62748 0.53999 0.92439 0.0
C1144 C 0.60078 0.5444 0.93278 0.0
C1145 C 0.49111 0.50188 0.01099 0.0
C1146 C 0.51514 0.5251 0.02146 0.0
C1147 C 0.49085 0.50395 0.99281 0.0
C1148 C 0.51469 0.52916 0.98477 0.0
C1149 C 0.53911 0.55208 0.99515 0.0
C1150 C 0.53917 0.55022 0.01337 0.0
C1151 C 0.51372 0.53163 0.9655 0.0
C1152 C 0.54082 0.52915 0.95656 0.0
C1153 C 0.48529 0.53431 0.95592 0.0
C1154 C 0.45658 0.53846 0.9647 0.0
C1155 C 0.46154 0.56359 0.97678 0.0
C1156 C 0.43443 0.56724 0.98511 0.0
C1157 C 0.40219 0.54604 0.98137 0.0
C1158 C 0.39697 0.52118 0.96927 0.0
C1159 C 0.42401 0.5174 0.96093 0.0
H1160 H 0.38123 0.54891 0.98783 0.0
H1161 H 0.64254 0.51096 0.90629 0.0
H1162 H 0.02354 0.62813 0.21023 0.0
H1163 H 0.02506 0.6192 0.24175 0.0
H1164 H 0.06102 0.53998 0.23376 0.0
H1165 H 0.0598 0.54896 0.20217 0.0
H1166 H 1.00947 0.52659 0.25697 0.0
H1167 H 0.11469 0.60771 0.24824 0.0
H1168 H 0.15164 0.65907 0.23756 0.0
H1169 H 0.10364 0.70977 0.26867 0.0
H1170 H 0.06605 0.65866 0.27936 0.0
H1171 H 0.06084 0.50844 0.3449 0.0
H1172 H 0.05825 0.51606 0.31337 0.0
H1173 H 0.03361 0.60203 0.32112 0.0
H1174 H 0.03762 0.59535 0.35273 0.0
H1175 H 0.07939 0.61175 0.29777 0.0
H1176 H 0.97413 0.53137 0.30659 0.0
H1177 H 0.9362 0.48031 0.31707 0.0
H1178 H 0.98272 0.42858 0.28572 0.0
H1179 H 0.02127 0.47935 0.27523 0.0
C1180 C 0.03178 0.60882 0.2152 0.0
C1181 C 0.04168 0.5893 0.20379 0.0
C1182 C 0.0327 0.60379 0.23319 0.0
C1183 C 0.0434 0.57909 0.24008 0.0
C1184 C 0.05273 0.55919 0.22868 0.0
C1185 C 0.0521 0.56439 0.21068 0.0
C1186 C 0.04494 0.57417 0.25921 0.0
C1187 C 0.02509 0.54501 0.26591 0.0
C1188 C 0.06469 0.59855 0.27083 0.0
C1189 C 0.08733 0.62933 0.26446 0.0
C1190 C 0.11181 0.6298 0.25269 0.0
C1191 C 0.13291 0.65887 0.24666 0.0
C1192 C 0.12993 0.68766 0.2524 0.0
C1193 C 0.10589 0.68744 0.26422 0.0
C1194 C 0.0847 0.65843 0.27028 0.0
C1195 C 0.05509 0.52911 0.33993 0.0
C1196 C 0.04945 0.55129 0.35139 0.0
C1197 C 0.05325 0.53324 0.32186 0.0
C1198 C 0.04534 0.55942 0.31484 0.0
C1199 C 0.03964 0.58158 0.32623 0.0
C1200 C 0.04162 0.57755 0.3443 0.0
C1201 C 0.0438 0.56412 0.29564 0.0
C1202 C 0.06371 0.59328 0.28889 0.0
C1203 C 0.02396 0.53977 0.28398 0.0
C1204 C 1.00081 0.50918 0.29026 0.0
C1205 C 0.97646 0.50911 0.30204 0.0
C1206 C 0.95481 0.48022 0.30796 0.0
C1207 C 0.95711 0.45122 0.3021 0.0
C1208 C 0.981 0.45106 0.29027 0.0
C1209 C 1.00274 0.47989 0.28432 0.0
H1210 H 0.94032 0.42888 0.30669 0.0
H1211 H 0.14631 0.71014 0.24771 0.0
loop_
_geom_bond_atom_site_label_1
_geom_bond_atom_site_label_2
_geom_bond_distance
_geom_bond_site_symmetry_2
_ccdc_geom_bond_type
Pr0 C2 2.880 . S
Pr0 O20 2.562 . S
Pr0 O21 2.490 . S
Pr0 O22 2.695 1_655 S
Pr0 O23 2.512 . S
Pr0 O25 2.437 . S
Pr0 O28 2.440 1_655 S
Pr0 O30 2.438 1_655 S
Pr1 C11 2.880 . S
Pr1 O22 2.436 . S
Pr1 O24 2.438 1_455 S
Pr1 O26 2.562 . S
Pr1 O27 2.490 . S
Pr1 O28 2.698 . S
Pr1 O29 2.512 . S
Pr1 O31 2.437 . S
C2 Pr0 2.880 . S
C2 C3 1.491 . S
C2 O20 1.254 . S
C2 O21 1.225 . S
C3 C2 1.491 . S
C3 C4 1.392 . S
C3 C8 1.356 . S
C4 C3 1.392 . S
C4 C5 1.368 . S
C4 H32 0.929 . S
C5 C4 1.368 . S
C5 C6 1.386 . S
C5 H33 0.929 . S
C6 C5 1.386 . S
C6 C7 1.373 . S
C7 C6 1.373 . S
C7 C8 1.409 . S
C7 H34 0.931 . S
C8 C3 1.356 . S
C8 C7 1.409 . S
C8 H35 0.930 . S
C9 O22 1.270 . S
C9 O23 1.248 1_455 S
C10 O24 1.267 . S
C10 O25 1.278 . S
C11 Pr1 2.880 . S
C11 C12 1.491 . S
C11 O26 1.254 . S
C11 O27 1.225 . S
C12 C11 1.491 . S
C12 C13 1.392 . S
C12 C17 1.356 . S
C13 C12 1.392 . S
C13 C14 1.368 . S
C13 H36 0.929 . S
C14 C13 1.368 . S
C14 C15 1.386 . S
C14 H37 0.929 . S
C15 C14 1.386 . S
C15 C16 1.373 . S
C16 C15 1.373 . S
C16 C17 1.409 . S
C16 H38 0.931 . S
C17 C12 1.356 . S
C17 C16 1.409 . S
C17 H39 0.930 . S
C18 O28 1.274 . S
C18 O29 1.248 . S
C19 O30 1.267 . S
C19 O31 1.278 . S
O20 Pr0 2.562 . S
O20 C2 1.254 . S
O21 Pr0 2.490 . S
O21 C2 1.225 . S
O22 Pr0 2.695 1_455 S
O22 Pr1 2.436 . S
O22 C9 1.270 . S
O23 Pr0 2.512 . S
O23 C9 1.248 1_655 S
O24 Pr1 2.438 1_655 S
O24 C10 1.267 . S
O25 Pr0 2.437 . S
O25 C10 1.278 . S
O26 Pr1 2.562 . S
O26 C11 1.254 . S
O27 Pr1 2.490 . S
O27 C11 1.225 . S
O28 Pr0 2.440 1_455 S
O28 Pr1 2.698 . S
O28 C18 1.274 . S
O29 Pr1 2.512 . S
O29 C18 1.248 . S
O30 Pr0 2.438 1_455 S
O30 C19 1.267 . S
O31 Pr1 2.437 . S
O31 C19 1.278 . S
H32 C4 0.929 . S
H33 C5 0.929 . S
H34 C7 0.931 . S
H35 C8 0.930 . S
H36 C13 0.929 . S
H37 C14 0.929 . S
H38 C16 0.931 . S
H39 C17 0.930 . S
Pr40 C42 2.880 . S
Pr40 O60 2.562 . S
Pr40 O61 2.490 . S
Pr40 O62 2.695 . S
Pr40 O63 2.512 . S
Pr40 O65 2.437 . S
Pr40 O68 2.436 . S
Pr40 O70 2.438 1_545 S
Pr41 C51 2.880 1_545 S
Pr41 O62 2.436 . S
Pr41 O64 2.438 . S
Pr41 O66 2.562 1_545 S
Pr41 O67 2.490 1_545 S
Pr41 O68 2.695 . S
Pr41 O69 2.512 . S
Pr41 O71 2.437 1_545 S
C42 Pr40 2.880 . S
C42 C43 1.491 . S
C42 O60 1.254 . S
C42 O61 1.225 . S
C43 C42 1.491 . S
C43 C44 1.392 . S
C43 C48 1.356 . S
C44 C43 1.392 . S
C44 C45 1.368 . S
C44 H72 0.929 . S
C45 C44 1.368 . S
C45 C46 1.386 . S
C45 H73 0.929 . S
C46 C45 1.386 . S
C46 C47 1.373 . S
C47 C46 1.373 . S
C47 C48 1.409 . S
C47 H74 0.931 . S
C48 C43 1.356 . S
C48 C47 1.409 . S
C48 H75 0.930 . S
C49 O62 1.270 . S
C49 O63 1.248 . S
C50 O64 1.267 . S
C50 O65 1.278 . S
C51 Pr41 2.880 1_565 S
C51 C52 1.491 . S
C51 O66 1.254 . S
C51 O67 1.225 . S
C52 C51 1.491 . S
C52 C53 1.392 . S
C52 C57 1.356 . S
C53 C52 1.392 . S
C53 C54 1.368 . S
C53 H76 0.929 . S
C54 C53 1.368 . S
C54 C55 1.386 . S
C54 H77 0.929 . S
C55 C54 1.386 . S
C55 C56 1.373 . S
C56 C55 1.373 . S
C56 C57 1.409 . S
C56 H78 0.931 . S
C57 C52 1.356 . S
C57 C56 1.409 . S
C57 H79 0.930 . S
C58 O68 1.270 . S
C58 O69 1.248 . S
C59 O70 1.267 . S
C59 O71 1.278 . S
O60 Pr40 2.562 . S
O60 C42 1.254 . S
O61 Pr40 2.490 . S
O61 C42 1.225 . S
O62 Pr40 2.695 . S
O62 Pr41 2.436 . S
O62 C49 1.270 . S
O63 Pr40 2.512 . S
O63 C49 1.248 . S
O64 Pr41 2.438 . S
O64 C50 1.267 . S
O65 Pr40 2.437 . S
O65 C50 1.278 . S
O66 Pr41 2.562 1_565 S
O66 C51 1.254 . S
O67 Pr41 2.490 1_565 S
O67 C51 1.225 . S
O68 Pr40 2.436 . S
O68 Pr41 2.695 . S
O68 C58 1.270 . S
O69 Pr41 2.512 . S
O69 C58 1.248 . S
O70 Pr40 2.438 1_565 S
O70 C59 1.267 . S
O71 Pr41 2.437 1_565 S
O71 C59 1.278 . S
H72 C44 0.929 . S
H73 C45 0.929 . S
H74 C47 0.931 . S
H75 C48 0.930 . S
H76 C53 0.929 . S
H77 C54 0.929 . S
H78 C56 0.931 . S
H79 C57 0.930 . S
Pr80 C82 2.880 . S
Pr80 O100 2.562 . S
Pr80 O101 2.490 . S
Pr80 O102 2.695 . S
Pr80 O103 2.512 . S
Pr80 O105 2.437 . S
Pr80 O108 2.436 . S
Pr80 O110 2.438 . S
Pr81 C91 2.880 . S
Pr81 O102 2.436 . S
Pr81 O104 2.438 . S
Pr81 O106 2.562 . S
Pr81 O107 2.490 . S
Pr81 O108 2.695 . S
Pr81 O109 2.512 . S
Pr81 O111 2.437 . S
C82 Pr80 2.880 . S
C82 C83 1.491 . S
C82 O100 1.254 . S
C82 O101 1.225 . S
C83 C82 1.491 . S
C83 C84 1.392 . S
C83 C88 1.356 . S
C84 C83 1.392 . S
C84 C85 1.368 . S
C84 H112 0.929 . S
C85 C84 1.368 . S
C85 C86 1.386 . S
C85 H113 0.929 . S
C86 C85 1.386 . S
C86 C87 1.373 . S
C87 C86 1.373 . S
C87 C88 1.409 . S
C87 H114 0.931 . S
C88 C83 1.356 . S
C88 C87 1.409 . S
C88 H115 0.930 . S
C89 O102 1.270 . S
C89 O103 1.248 . S
C90 O104 1.267 . S
C90 O105 1.278 . S
C91 Pr81 2.880 . S
C91 C92 1.491 . S
C91 O106 1.254 . S
C91 O107 1.225 . S
C92 C91 1.491 . S
C92 C93 1.392 . S
C92 C97 1.356 . S
C93 C92 1.392 . S
C93 C94 1.368 . S
C93 H116 0.929 . S
C94 C93 1.368 . S
C94 C95 1.386 . S
C94 H117 0.929 . S
C95 C94 1.386 . S
C95 C96 1.373 . S
C96 C95 1.373 . S
C96 C97 1.409 . S
C96 H118 0.931 . S
C97 C92 1.356 . S
C97 C96 1.409 . S
C97 H119 0.930 . S
C98 O108 1.270 . S
C98 O109 1.248 . S
C99 O110 1.267 . S
C99 O111 1.278 . S
O100 Pr80 2.562 . S
O100 C82 1.254 . S
O101 Pr80 2.490 . S
O101 C82 1.225 . S
O102 Pr80 2.695 . S
O102 Pr81 2.436 . S
O102 C89 1.270 . S
O103 Pr80 2.512 . S
O103 C89 1.248 . S
O104 Pr81 2.438 . S
O104 C90 1.267 . S
O105 Pr80 2.437 . S
O105 C90 1.278 . S
O106 Pr81 2.562 . S
O106 C91 1.254 . S
O107 Pr81 2.490 . S
O107 C91 1.225 . S
O108 Pr80 2.436 . S
O108 Pr81 2.695 . S
O108 C98 1.270 . S
O109 Pr81 2.512 . S
O109 C98 1.248 . S
O110 Pr80 2.438 . S
O110 C99 1.267 . S
O111 Pr81 2.437 . S
O111 C99 1.278 . S
H112 C84 0.929 . S
H113 C85 0.929 . S
H114 C87 0.931 . S
H115 C88 0.930 . S
H116 C93 0.929 . S
H117 C94 0.929 . S
H118 C96 0.931 . S
H119 C97 0.930 . S
P120 O131 1.490 1_545 S
P120 C134 1.812 1_545 S
P120 C140 1.803 . S
P120 C146 1.819 . S
H121 C135 0.941 . S
H122 C136 0.939 . S
H123 C138 0.940 . S
H124 C139 0.940 1_545 S
H125 C141 0.939 . S
H126 C142 0.942 . S
H127 C144 0.940 . S
H128 C145 0.939 . S
H129 C147 0.941 . S
H130 C151 0.939 . S
O131 P120 1.490 1_565 S
H132 C148 0.939 1_565 S
H133 C150 0.940 . S
C134 P120 1.812 1_565 S
C134 C135 1.389 . S
C134 C139 1.391 . S
C135 H121 0.941 . S
C135 C134 1.389 . S
C135 C136 1.397 . S
C136 H122 0.939 . S
C136 C135 1.397 . S
C136 C137 1.378 . S
C137 C136 1.378 . S
C137 C138 1.378 . S
C138 H123 0.940 . S
C138 C137 1.378 . S
C138 C139 1.396 . S
C139 H124 0.940 1_565 S
C139 C134 1.391 . S
C139 C138 1.396 . S
C140 P120 1.803 . S
C140 C141 1.378 . S
C140 C145 1.400 . S
C141 H125 0.939 . S
C141 C140 1.378 . S
C141 C142 1.361 . S
C142 H126 0.942 . S
C142 C141 1.361 . S
C142 C143 1.369 . S
C143 C142 1.369 . S
C143 C144 1.404 . S
C144 H127 0.940 . S
C144 C143 1.404 . S
C144 C145 1.389 . S
C145 H128 0.939 . S
C145 C140 1.400 . S
C145 C144 1.389 . S
C146 P120 1.819 . S
C146 C147 1.391 1_545 S
C146 C151 1.391 . S
C147 H129 0.941 . S
C147 C146 1.391 1_565 S
C147 C148 1.396 1_565 S
C148 H132 0.939 1_545 S
C148 C147 1.396 1_545 S
C148 C149 1.397 . S
C149 C148 1.397 . S
C149 C150 1.385 . S
C150 H133 0.940 . S
C150 C149 1.385 . S
C150 C151 1.388 . S
C151 H130 0.939 . S
C151 C146 1.391 . S
C151 C150 1.388 . S
P152 O163 1.490 . S
P152 C166 1.812 . S
P152 C172 1.803 . S
P152 C178 1.819 . S
H153 C167 0.941 . S
H154 C168 0.939 . S
H155 C170 0.940 . S
H156 C171 0.940 . S
H157 C173 0.939 . S
H158 C174 0.942 . S
H159 C176 0.940 . S
H160 C177 0.939 . S
H161 C179 0.941 . S
H162 C183 0.939 . S
O163 P152 1.490 . S
H164 C180 0.939 . S
H165 C182 0.940 . S
C166 P152 1.812 . S
C166 C167 1.389 . S
C166 C171 1.391 . S
C167 H153 0.941 . S
C167 C166 1.389 . S
C167 C168 1.397 . S
C168 H154 0.939 . S
C168 C167 1.397 . S
C168 C169 1.378 . S
C169 C168 1.378 . S
C169 C170 1.378 . S
C170 H155 0.940 . S
C170 C169 1.378 . S
C170 C171 1.396 . S
C171 H156 0.940 . S
C171 C166 1.391 . S
C171 C170 1.396 . S
C172 P152 1.803 . S
C172 C173 1.378 . S
C172 C177 1.400 . S
C173 H157 0.939 . S
C173 C172 1.378 . S
C173 C174 1.361 . S
C174 H158 0.942 . S
C174 C173 1.361 . S
C174 C175 1.369 . S
C175 C174 1.369 . S
C175 C176 1.404 . S
C176 H159 0.940 . S
C176 C175 1.404 . S
C176 C177 1.389 . S
C177 H160 0.939 . S
C177 C172 1.400 . S
C177 C176 1.389 . S
C178 P152 1.819 . S
C178 C179 1.391 . S
C178 C183 1.391 . S
C179 H161 0.941 . S
C179 C178 1.391 . S
C179 C180 1.396 . S
C180 H164 0.939 . S
C180 C179 1.396 . S
C180 C181 1.397 . S
C181 C180 1.397 . S
C181 C182 1.385 . S
C182 H165 0.940 . S
C182 C181 1.385 . S
C182 C183 1.388 . S
C183 H162 0.939 . S
C183 C178 1.391 . S
C183 C182 1.388 . S
P184 O195 1.490 . S
P184 C198 1.812 . S
P184 C204 1.803 1_455 S
P184 C210 1.819 . S
H185 C199 0.941 . S
H186 C200 0.939 . S
H187 C202 0.940 . S
H188 C203 0.940 . S
H189 C205 0.939 . S
H190 C206 0.942 . S
H191 C208 0.940 . S
H192 C209 0.939 . S
H193 C211 0.941 . S
H194 C215 0.939 . S
O195 P184 1.490 . S
H196 C212 0.939 . S
H197 C214 0.940 . S
C198 P184 1.812 . S
C198 C199 1.389 . S
C198 C203 1.391 . S
C199 H185 0.941 . S
C199 C198 1.389 . S
C199 C200 1.397 . S
C200 H186 0.939 . S
C200 C199 1.397 . S
C200 C201 1.378 . S
C201 C200 1.378 . S
C201 C202 1.378 . S
C202 H187 0.940 . S
C202 C201 1.378 . S
C202 C203 1.396 . S
C203 H188 0.940 . S
C203 C198 1.391 . S
C203 C202 1.396 . S
C204 P184 1.803 1_655 S
C204 C205 1.378 . S
C204 C209 1.400 . S
C205 H189 0.939 . S
C205 C204 1.378 . S
C205 C206 1.361 . S
C206 H190 0.942 . S
C206 C205 1.361 . S
C206 C207 1.369 . S
C207 C206 1.369 . S
C207 C208 1.404 . S
C208 H191 0.940 . S
C208 C207 1.404 . S
C208 C209 1.389 . S
C209 H192 0.939 . S
C209 C204 1.400 . S
C209 C208 1.389 . S
C210 P184 1.819 . S
C210 C211 1.391 . S
C210 C215 1.391 1_455 S
C211 H193 0.941 . S
C211 C210 1.391 . S
C211 C212 1.396 . S
C212 H196 0.939 . S
C212 C211 1.396 . S
C212 C213 1.397 . S
C213 C212 1.397 . S
C213 C214 1.385 1_455 S
C214 H197 0.940 . S
C214 C213 1.385 1_655 S
C214 C215 1.388 . S
C215 H194 0.939 . S
C215 C210 1.391 1_655 S
C215 C214 1.388 . S
P216 O227 1.490 . S
P216 C230 1.812 . S
P216 C236 1.803 1_455 S
P216 C242 1.819 . S
H217 C231 0.941 . S
H218 C232 0.939 . S
H219 C234 0.940 . S
H220 C235 0.940 . S
H221 C237 0.939 . S
H222 C238 0.942 . S
H223 C240 0.940 . S
H224 C241 0.939 . S
H225 C243 0.941 . S
H226 C247 0.939 . S
O227 P216 1.490 . S
H228 C244 0.939 . S
H229 C246 0.940 . S
C230 P216 1.812 . S
C230 C231 1.389 . S
C230 C235 1.391 . S
C231 H217 0.941 . S
C231 C230 1.389 . S
C231 C232 1.397 . S
C232 H218 0.939 . S
C232 C231 1.397 . S
C232 C233 1.378 . S
C233 C232 1.378 . S
C233 C234 1.378 . S
C234 H219 0.940 . S
C234 C233 1.378 . S
C234 C235 1.396 . S
C235 H220 0.940 . S
C235 C230 1.391 . S
C235 C234 1.396 . S
C236 P216 1.803 1_655 S
C236 C237 1.378 . S
C236 C241 1.400 . S
C237 H221 0.939 . S
C237 C236 1.378 . S
C237 C238 1.361 . S
C238 H222 0.942 . S
C238 C237 1.361 . S
C238 C239 1.369 . S
C239 C238 1.369 . S
C239 C240 1.404 . S
C240 H223 0.940 . S
C240 C239 1.404 . S
C240 C241 1.389 . S
C241 H224 0.939 . S
C241 C236 1.400 . S
C241 C240 1.389 . S
C242 P216 1.819 . S
C242 C243 1.391 . S
C242 C247 1.391 1_455 S
C243 H225 0.941 . S
C243 C242 1.391 . S
C243 C244 1.396 . S
C244 H228 0.939 . S
C244 C243 1.396 . S
C244 C245 1.397 . S
C245 C244 1.397 . S
C245 C246 1.385 1_455 S
C246 H229 0.940 . S
C246 C245 1.385 1_655 S
C246 C247 1.388 . S
C247 H226 0.939 . S
C247 C242 1.391 1_655 S
C247 C246 1.388 . S
P248 O259 1.490 . S
P248 C262 1.812 . S
P248 C268 1.803 1_545 S
P248 C274 1.819 . S
H249 C263 0.941 . S
H250 C264 0.939 . S
H251 C266 0.940 . S
H252 C267 0.940 . S
H253 C269 0.939 . S
H254 C270 0.942 . S
H255 C272 0.940 . S
H256 C273 0.939 . S
H257 C275 0.941 . S
H258 C279 0.939 . S
O259 P248 1.490 . S
H260 C276 0.939 . S
H261 C278 0.940 . S
C262 P248 1.812 . S
C262 C263 1.389 . S
C262 C267 1.391 . S
C263 H249 0.941 . S
C263 C262 1.389 . S
C263 C264 1.397 . S
C264 H250 0.939 . S
C264 C263 1.397 . S
C264 C265 1.378 . S
C265 C264 1.378 . S
C265 C266 1.378 . S
C266 H251 0.940 . S
C266 C265 1.378 . S
C266 C267 1.396 . S
C267 H252 0.940 . S
C267 C262 1.391 . S
C267 C266 1.396 . S
C268 P248 1.803 1_565 S
C268 C269 1.378 . S
C268 C273 1.400 . S
C269 H253 0.939 . S
C269 C268 1.378 . S
C269 C270 1.361 . S
C270 H254 0.942 . S
C270 C269 1.361 . S
C270 C271 1.369 . S
C271 C270 1.369 . S
C271 C272 1.404 . S
C272 H255 0.940 . S
C272 C271 1.404 . S
C272 C273 1.389 . S
C273 H256 0.939 . S
C273 C268 1.400 . S
C273 C272 1.389 . S
C274 P248 1.819 . S
C274 C275 1.391 . S
C274 C279 1.391 1_545 S
C275 H257 0.941 . S
C275 C274 1.391 . S
C275 C276 1.396 . S
C276 H260 0.939 . S
C276 C275 1.396 . S
C276 C277 1.397 . S
C277 C276 1.397 . S
C277 C278 1.385 1_545 S
C278 H261 0.940 . S
C278 C277 1.385 1_565 S
C278 C279 1.388 . S
C279 H258 0.939 . S
C279 C274 1.391 1_565 S
C279 C278 1.388 . S
P280 O291 1.490 . S
P280 C294 1.812 . S
P280 C300 1.803 . S
P280 C306 1.819 . S
H281 C295 0.941 . S
H282 C296 0.939 . S
H283 C298 0.940 . S
H284 C299 0.940 . S
H285 C301 0.939 . S
H286 C302 0.942 . S
H287 C304 0.940 . S
H288 C305 0.939 . S
H289 C307 0.941 . S
H290 C311 0.939 . S
O291 P280 1.490 . S
H292 C308 0.939 . S
H293 C310 0.940 . S
C294 P280 1.812 . S
C294 C295 1.389 . S
C294 C299 1.391 . S
C295 H281 0.941 . S
C295 C294 1.389 . S
C295 C296 1.397 . S
C296 H282 0.939 . S
C296 C295 1.397 . S
C296 C297 1.378 . S
C297 C296 1.378 . S
C297 C298 1.378 . S
C298 H283 0.940 . S
C298 C297 1.378 . S
C298 C299 1.396 . S
C299 H284 0.940 . S
C299 C294 1.391 . S
C299 C298 1.396 . S
C300 P280 1.803 . S
C300 C301 1.378 . S
C300 C305 1.400 . S
C301 H285 0.939 . S
C301 C300 1.378 . S
C301 C302 1.361 . S
C302 H286 0.942 . S
C302 C301 1.361 . S
C302 C303 1.369 . S
C303 C302 1.369 . S
C303 C304 1.404 . S
C304 H287 0.940 . S
C304 C303 1.404 . S
C304 C305 1.389 . S
C305 H288 0.939 . S
C305 C300 1.400 . S
C305 C304 1.389 . S
C306 P280 1.819 . S
C306 C307 1.391 . S
C306 C311 1.391 . S
C307 H289 0.941 . S
C307 C306 1.391 . S
C307 C308 1.396 . S
C308 H292 0.939 . S
C308 C307 1.396 . S
C308 C309 1.397 . S
C309 C308 1.397 . S
C309 C310 1.385 . S
C310 H293 0.940 . S
C310 C309 1.385 . S
C310 C311 1.388 . S
C311 H290 0.939 . S
C311 C306 1.391 . S
C311 C310 1.388 . S
H312 C330 0.951 . S
H313 C332 0.951 . S
H314 C334 0.950 . S
H315 C335 0.950 . S
H316 C337 0.950 . S
H317 C340 0.950 . S
H318 C341 0.950 . S
H319 C343 0.950 . S
H320 C344 0.950 . S
H321 C345 0.951 . S
H322 C347 0.951 . S
H323 C349 0.950 . S
H324 C350 0.950 . S
H325 C352 0.950 . S
H326 C355 0.950 . S
H327 C356 0.950 . S
H328 C358 0.950 . S
H329 C359 0.950 . S
C330 H312 0.951 . S
C330 C331 1.366 . S
C330 C332 1.388 . S
C331 C330 1.366 . S
C331 C335 1.385 . S
C332 H313 0.951 . S
C332 C330 1.388 . S
C332 C333 1.366 . S
C333 C332 1.366 . S
C333 C334 1.414 . S
C333 C336 1.499 . S
C334 H314 0.950 . S
C334 C333 1.414 . S
C334 C335 1.374 . S
C335 H315 0.950 . S
C335 C331 1.385 . S
C335 C334 1.374 . S
C336 C333 1.499 . S
C336 C337 1.373 . S
C336 C338 1.389 . S
C337 H316 0.950 . S
C337 C336 1.373 . S
C337 C353 1.377 . S
C338 C336 1.389 . S
C338 C339 1.524 . S
C338 C352 1.377 . S
C339 C338 1.524 . S
C339 C340 1.397 . S
C339 C344 1.363 . S
C340 H317 0.950 . S
C340 C339 1.397 . S
C340 C341 1.334 . S
C341 H318 0.950 . S
C341 C340 1.334 . S
C341 C342 1.287 . S
C342 C341 1.287 . S
C342 C343 1.524 . S
C342 H361 0.913 . S
C343 H319 0.950 . S
C343 C342 1.524 . S
C343 C344 1.415 . S
C344 H320 0.950 . S
C344 C339 1.363 . S
C344 C343 1.415 . S
C345 H321 0.951 . S
C345 C346 1.366 . S
C345 C347 1.388 . S
C346 C345 1.366 . S
C346 C350 1.385 . S
C347 H322 0.951 . S
C347 C345 1.388 . S
C347 C348 1.366 . S
C348 C347 1.366 . S
C348 C349 1.414 . S
C348 C351 1.499 . S
C349 H323 0.950 . S
C349 C348 1.414 . S
C349 C350 1.374 . S
C350 H324 0.950 . S
C350 C346 1.385 . S
C350 C349 1.374 . S
C351 C348 1.499 . S
C351 C352 1.373 . S
C351 C353 1.389 . S
C352 H325 0.950 . S
C352 C338 1.377 . S
C352 C351 1.373 . S
C353 C337 1.377 . S
C353 C351 1.389 . S
C353 C354 1.524 . S
C354 C353 1.524 . S
C354 C355 1.397 . S
C354 C359 1.363 . S
C355 H326 0.950 . S
C355 C354 1.397 . S
C355 C356 1.334 . S
C356 H327 0.950 . S
C356 C355 1.334 . S
C356 C357 1.287 . S
C357 C356 1.287 . S
C357 C358 1.524 . S
C357 H360 0.999 . S
C358 H328 0.950 . S
C358 C357 1.524 . S
C358 C359 1.415 . S
C359 H329 0.950 . S
C359 C354 1.363 . S
C359 C358 1.415 . S
H360 C357 0.999 . S
H361 C342 0.913 . S
H362 C380 0.951 . S
H363 C382 0.951 . S
H364 C384 0.950 . S
H365 C385 0.950 . S
H366 C387 0.950 . S
H367 C390 0.950 . S
H368 C391 0.950 . S
H369 C393 0.950 . S
H370 C394 0.950 . S
H371 C395 0.951 . S
H372 C397 0.951 . S
H373 C399 0.950 . S
H374 C400 0.950 . S
H375 C402 0.950 . S
H376 C405 0.950 . S
H377 C406 0.950 . S
H378 C408 0.950 . S
H379 C409 0.950 . S
C380 H362 0.951 . S
C380 C381 1.366 . S
C380 C382 1.388 . S
C381 C380 1.366 . S
C381 C385 1.385 . S
C382 H363 0.951 . S
C382 C380 1.388 . S
C382 C383 1.366 . S
C383 C382 1.366 . S
C383 C384 1.414 . S
C383 C386 1.499 . S
C384 H364 0.950 . S
C384 C383 1.414 . S
C384 C385 1.374 . S
C385 H365 0.950 . S
C385 C381 1.385 . S
C385 C384 1.374 . S
C386 C383 1.499 . S
C386 C387 1.373 . S
C386 C388 1.389 . S
C387 H366 0.950 . S
C387 C386 1.373 . S
C387 C403 1.377 . S
C388 C386 1.389 . S
C388 C389 1.524 . S
C388 C402 1.377 . S
C389 C388 1.524 . S
C389 C390 1.397 . S
C389 C394 1.363 . S
C390 H367 0.950 . S
C390 C389 1.397 . S
C390 C391 1.334 . S
C391 H368 0.950 . S
C391 C390 1.334 . S
C391 C392 1.287 . S
C392 C391 1.287 . S
C392 C393 1.524 . S
C392 H411 0.913 . S
C393 H369 0.950 . S
C393 C392 1.524 . S
C393 C394 1.415 . S
C394 H370 0.950 . S
C394 C389 1.363 . S
C394 C393 1.415 . S
C395 H371 0.951 . S
C395 C396 1.366 . S
C395 C397 1.388 . S
C396 C395 1.366 . S
C396 C400 1.385 . S
C397 H372 0.951 . S
C397 C395 1.388 . S
C397 C398 1.366 . S
C398 C397 1.366 . S
C398 C399 1.414 . S
C398 C401 1.499 . S
C399 H373 0.950 . S
C399 C398 1.414 . S
C399 C400 1.374 . S
C400 H374 0.950 . S
C400 C396 1.385 . S
C400 C399 1.374 . S
C401 C398 1.499 . S
C401 C402 1.373 . S
C401 C403 1.389 . S
C402 H375 0.950 . S
C402 C388 1.377 . S
C402 C401 1.373 . S
C403 C387 1.377 . S
C403 C401 1.389 . S
C403 C404 1.524 . S
C404 C403 1.524 . S
C404 C405 1.397 . S
C404 C409 1.363 . S
C405 H376 0.950 . S
C405 C404 1.397 . S
C405 C406 1.334 . S
C406 H377 0.950 . S
C406 C405 1.334 . S
C406 C407 1.287 . S
C407 C406 1.287 . S
C407 C408 1.524 . S
C407 H410 0.999 . S
C408 H378 0.950 . S
C408 C407 1.524 . S
C408 C409 1.415 . S
C409 H379 0.950 . S
C409 C404 1.363 . S
C409 C408 1.415 . S
H410 C407 0.999 . S
H411 C392 0.913 . S
H412 C430 0.951 . S
H413 C432 0.951 . S
H414 C434 0.950 . S
H415 C435 0.950 . S
H416 C437 0.950 . S
H417 C440 0.950 . S
H418 C441 0.950 . S
H419 C443 0.950 . S
H420 C444 0.950 . S
H421 C445 0.951 . S
H422 C447 0.951 . S
H423 C449 0.950 . S
H424 C450 0.950 . S
H425 C452 0.950 . S
H426 C455 0.950 . S
H427 C456 0.950 . S
H428 C458 0.950 . S
H429 C459 0.950 . S
C430 H412 0.951 . S
C430 C431 1.366 . S
C430 C432 1.388 . S
C431 C430 1.366 . S
C431 C435 1.385 . S
C432 H413 0.951 . S
C432 C430 1.388 . S
C432 C433 1.366 . S
C433 C432 1.366 . S
C433 C434 1.414 . S
C433 C436 1.499 . S
C434 H414 0.950 . S
C434 C433 1.414 . S
C434 C435 1.374 . S
C435 H415 0.950 . S
C435 C431 1.385 . S
C435 C434 1.374 . S
C436 C433 1.499 . S
C436 C437 1.373 . S
C436 C438 1.389 . S
C437 H416 0.950 . S
C437 C436 1.373 . S
C437 C453 1.377 . S
C438 C436 1.389 . S
C438 C439 1.524 . S
C438 C452 1.377 . S
C439 C438 1.524 . S
C439 C440 1.397 . S
C439 C444 1.363 . S
C440 H417 0.950 . S
C440 C439 1.397 . S
C440 C441 1.334 . S
C441 H418 0.950 . S
C441 C440 1.334 . S
C441 C442 1.287 . S
C442 C441 1.287 . S
C442 C443 1.524 . S
C442 H461 0.913 . S
C443 H419 0.950 . S
C443 C442 1.524 . S
C443 C444 1.415 . S
C444 H420 0.950 . S
C444 C439 1.363 . S
C444 C443 1.415 . S
C445 H421 0.951 . S
C445 C446 1.366 . S
C445 C447 1.388 . S
C446 C445 1.366 . S
C446 C450 1.385 . S
C447 H422 0.951 . S
C447 C445 1.388 . S
C447 C448 1.366 . S
C448 C447 1.366 . S
C448 C449 1.414 . S
C448 C451 1.499 . S
C449 H423 0.950 . S
C449 C448 1.414 . S
C449 C450 1.374 . S
C450 H424 0.950 . S
C450 C446 1.385 . S
C450 C449 1.374 . S
C451 C448 1.499 . S
C451 C452 1.373 . S
C451 C453 1.389 . S
C452 H425 0.950 . S
C452 C438 1.377 . S
C452 C451 1.373 . S
C453 C437 1.377 . S
C453 C451 1.389 . S
C453 C454 1.524 . S
C454 C453 1.524 . S
C454 C455 1.397 . S
C454 C459 1.363 . S
C455 H426 0.950 . S
C455 C454 1.397 . S
C455 C456 1.334 . S
C456 H427 0.950 . S
C456 C455 1.334 . S
C456 C457 1.287 . S
C457 C456 1.287 . S
C457 C458 1.524 . S
C457 H460 0.999 . S
C458 H428 0.950 . S
C458 C457 1.524 . S
C458 C459 1.415 . S
C459 H429 0.950 . S
C459 C454 1.363 . S
C459 C458 1.415 . S
H460 C457 0.999 . S
H461 C442 0.913 . S
H462 C480 0.951 . S
H463 C482 0.951 . S
H464 C484 0.950 . S
H465 C485 0.950 . S
H466 C487 0.950 . S
H467 C490 0.950 . S
H468 C491 0.950 . S
H469 C493 0.950 . S
H470 C494 0.950 . S
H471 C495 0.951 . S
H472 C497 0.951 . S
H473 C499 0.950 . S
H474 C500 0.950 . S
H475 C502 0.950 . S
H476 C505 0.950 . S
H477 C506 0.950 . S
H478 C508 0.950 . S
H479 C509 0.950 . S
C480 H462 0.951 . S
C480 C481 1.366 . S
C480 C482 1.388 . S
C481 C480 1.366 . S
C481 C485 1.385 . S
C482 H463 0.951 . S
C482 C480 1.388 . S
C482 C483 1.366 . S
C483 C482 1.366 . S
C483 C484 1.414 . S
C483 C486 1.499 . S
C484 H464 0.950 . S
C484 C483 1.414 . S
C484 C485 1.374 . S
C485 H465 0.950 . S
C485 C481 1.385 . S
C485 C484 1.374 . S
C486 C483 1.499 . S
C486 C487 1.373 . S
C486 C488 1.389 . S
C487 H466 0.950 . S
C487 C486 1.373 . S
C487 C503 1.377 . S
C488 C486 1.389 . S
C488 C489 1.524 . S
C488 C502 1.377 . S
C489 C488 1.524 . S
C489 C490 1.397 . S
C489 C494 1.363 . S
C490 H467 0.950 . S
C490 C489 1.397 . S
C490 C491 1.334 . S
C491 H468 0.950 . S
C491 C490 1.334 . S
C491 C492 1.287 . S
C492 C491 1.287 . S
C492 C493 1.524 . S
C492 H511 0.913 . S
C493 H469 0.950 . S
C493 C492 1.524 . S
C493 C494 1.415 . S
C494 H470 0.950 . S
C494 C489 1.363 . S
C494 C493 1.415 . S
C495 H471 0.951 . S
C495 C496 1.366 . S
C495 C497 1.388 . S
C496 C495 1.366 . S
C496 C500 1.385 . S
C497 H472 0.951 . S
C497 C495 1.388 . S
C497 C498 1.366 . S
C498 C497 1.366 . S
C498 C499 1.414 . S
C498 C501 1.499 . S
C499 H473 0.950 . S
C499 C498 1.414 . S
C499 C500 1.374 . S
C500 H474 0.950 . S
C500 C496 1.385 . S
C500 C499 1.374 . S
C501 C498 1.499 . S
C501 C502 1.373 . S
C501 C503 1.389 . S
C502 H475 0.950 . S
C502 C488 1.377 . S
C502 C501 1.373 . S
C503 C487 1.377 . S
C503 C501 1.389 . S
C503 C504 1.524 . S
C504 C503 1.524 . S
C504 C505 1.397 . S
C504 C509 1.363 . S
C505 H476 0.950 . S
C505 C504 1.397 . S
C505 C506 1.334 . S
C506 H477 0.950 . S
C506 C505 1.334 . S
C506 C507 1.287 . S
C507 C506 1.287 . S
C507 C508 1.524 . S
C507 H510 0.999 . S
C508 H478 0.950 . S
C508 C507 1.524 . S
C508 C509 1.415 . S
C509 H479 0.950 . S
C509 C504 1.363 . S
C509 C508 1.415 . S
H510 C507 0.999 . S
H511 C492 0.913 . S
H512 C530 0.951 . S
H513 C532 0.951 . S
H514 C534 0.950 . S
H515 C535 0.950 . S
H516 C537 0.950 . S
H517 C540 0.950 . S
H518 C541 0.950 . S
H519 C543 0.950 . S
H520 C544 0.950 . S
H521 C545 0.951 . S
H522 C547 0.951 . S
H523 C549 0.950 . S
H524 C550 0.950 . S
H525 C552 0.950 . S
H526 C555 0.950 . S
H527 C556 0.950 . S
H528 C558 0.950 . S
H529 C559 0.950 . S
C530 H512 0.951 . S
C530 C531 1.366 . S
C530 C532 1.388 . S
C531 C530 1.366 . S
C531 C535 1.385 . S
C532 H513 0.951 . S
C532 C530 1.388 . S
C532 C533 1.366 . S
C533 C532 1.366 . S
C533 C534 1.414 . S
C533 C536 1.499 . S
C534 H514 0.950 . S
C534 C533 1.414 . S
C534 C535 1.374 . S
C535 H515 0.950 . S
C535 C531 1.385 . S
C535 C534 1.374 . S
C536 C533 1.499 . S
C536 C537 1.373 . S
C536 C538 1.389 . S
C537 H516 0.950 . S
C537 C536 1.373 . S
C537 C553 1.377 . S
C538 C536 1.389 . S
C538 C539 1.524 . S
C538 C552 1.377 . S
C539 C538 1.524 . S
C539 C540 1.397 . S
C539 C544 1.363 . S
C540 H517 0.950 . S
C540 C539 1.397 . S
C540 C541 1.334 . S
C541 H518 0.950 . S
C541 C540 1.334 . S
C541 C542 1.287 . S
C542 C541 1.287 . S
C542 C543 1.524 . S
C542 H561 0.913 . S
C543 H519 0.950 . S
C543 C542 1.524 . S
C543 C544 1.415 . S
C544 H520 0.950 . S
C544 C539 1.363 . S
C544 C543 1.415 . S
C545 H521 0.951 . S
C545 C546 1.366 . S
C545 C547 1.388 . S
C546 C545 1.366 . S
C546 C550 1.385 . S
C547 H522 0.951 . S
C547 C545 1.388 . S
C547 C548 1.366 . S
C548 C547 1.366 . S
C548 C549 1.414 . S
C548 C551 1.499 . S
C549 H523 0.950 . S
C549 C548 1.414 . S
C549 C550 1.374 . S
C550 H524 0.950 . S
C550 C546 1.385 . S
C550 C549 1.374 . S
C551 C548 1.499 . S
C551 C552 1.373 . S
C551 C553 1.389 . S
C552 H525 0.950 . S
C552 C538 1.377 . S
C552 C551 1.373 . S
C553 C537 1.377 . S
C553 C551 1.389 . S
C553 C554 1.524 . S
C554 C553 1.524 . S
C554 C555 1.397 . S
C554 C559 1.363 . S
C555 H526 0.950 . S
C555 C554 1.397 . S
C555 C556 1.334 . S
C556 H527 0.950 . S
C556 C555 1.334 . S
C556 C557 1.287 . S
C557 C556 1.287 . S
C557 C558 1.524 . S
C557 H560 0.999 . S
C558 H528 0.950 . S
C558 C557 1.524 . S
C558 C559 1.415 . S
C559 H529 0.950 . S
C559 C554 1.363 . S
C559 C558 1.415 . S
H560 C557 0.999 . S
H561 C542 0.913 . S
H562 C580 0.951 . S
H563 C582 0.951 . S
H564 C584 0.950 . S
H565 C585 0.950 . S
H566 C587 0.950 . S
H567 C590 0.950 . S
H568 C591 0.950 . S
H569 C593 0.950 . S
H570 C594 0.950 . S
H571 C595 0.951 . S
H572 C597 0.951 . S
H573 C599 0.950 . S
H574 C600 0.950 . S
H575 C602 0.950 . S
H576 C605 0.950 . S
H577 C606 0.950 . S
H578 C608 0.950 . S
H579 C609 0.950 . S
C580 H562 0.951 . S
C580 C581 1.366 . S
C580 C582 1.388 . S
C581 C580 1.366 . S
C581 C585 1.385 . S
C582 H563 0.951 . S
C582 C580 1.388 . S
C582 C583 1.366 . S
C583 C582 1.366 . S
C583 C584 1.414 . S
C583 C586 1.499 . S
C584 H564 0.950 . S
C584 C583 1.414 . S
C584 C585 1.374 . S
C585 H565 0.950 . S
C585 C581 1.385 . S
C585 C584 1.374 . S
C586 C583 1.499 . S
C586 C587 1.373 . S
C586 C588 1.389 . S
C587 H566 0.950 . S
C587 C586 1.373 . S
C587 C603 1.377 . S
C588 C586 1.389 . S
C588 C589 1.524 . S
C588 C602 1.377 . S
C589 C588 1.524 . S
C589 C590 1.397 . S
C589 C594 1.363 . S
C590 H567 0.950 . S
C590 C589 1.397 . S
C590 C591 1.334 . S
C591 H568 0.950 . S
C591 C590 1.334 . S
C591 C592 1.287 . S
C592 C591 1.287 . S
C592 C593 1.524 . S
C592 H611 0.913 . S
C593 H569 0.950 . S
C593 C592 1.524 . S
C593 C594 1.415 . S
C594 H570 0.950 . S
C594 C589 1.363 . S
C594 C593 1.415 . S
C595 H571 0.951 . S
C595 C596 1.366 . S
C595 C597 1.388 . S
C596 C595 1.366 . S
C596 C600 1.385 . S
C597 H572 0.951 . S
C597 C595 1.388 . S
C597 C598 1.366 . S
C598 C597 1.366 . S
C598 C599 1.414 . S
C598 C601 1.499 . S
C599 H573 0.950 . S
C599 C598 1.414 . S
C599 C600 1.374 . S
C600 H574 0.950 . S
C600 C596 1.385 . S
C600 C599 1.374 . S
C601 C598 1.499 . S
C601 C602 1.373 . S
C601 C603 1.389 . S
C602 H575 0.950 . S
C602 C588 1.377 . S
C602 C601 1.373 . S
C603 C587 1.377 . S
C603 C601 1.389 . S
C603 C604 1.524 . S
C604 C603 1.524 . S
C604 C605 1.397 . S
C604 C609 1.363 . S
C605 H576 0.950 . S
C605 C604 1.397 . S
C605 C606 1.334 . S
C606 H577 0.950 . S
C606 C605 1.334 . S
C606 C607 1.287 . S
C607 C606 1.287 . S
C607 C608 1.524 . S
C607 H610 0.999 . S
C608 H578 0.950 . S
C608 C607 1.524 . S
C608 C609 1.415 . S
C609 H579 0.950 . S
C609 C604 1.363 . S
C609 C608 1.415 . S
H610 C607 0.999 . S
H611 C592 0.913 . S
H612 C630 0.951 . S
H613 C632 0.951 . S
H614 C634 0.950 . S
H615 C635 0.950 . S
H616 C637 0.950 . S
H617 C640 0.950 . S
H618 C641 0.950 . S
H619 C643 0.950 . S
H620 C644 0.950 . S
H621 C645 0.951 . S
H622 C647 0.951 . S
H623 C649 0.950 . S
H624 C650 0.950 . S
H625 C652 0.950 . S
H626 C655 0.950 . S
H627 C656 0.950 . S
H628 C658 0.950 . S
H629 C659 0.950 . S
C630 H612 0.951 . S
C630 C631 1.366 . S
C630 C632 1.388 . S
C631 C630 1.366 . S
C631 C635 1.385 . S
C632 H613 0.951 . S
C632 C630 1.388 . S
C632 C633 1.366 . S
C633 C632 1.366 . S
C633 C634 1.414 . S
C633 C636 1.499 . S
C634 H614 0.950 . S
C634 C633 1.414 . S
C634 C635 1.374 . S
C635 H615 0.950 . S
C635 C631 1.385 . S
C635 C634 1.374 . S
C636 C633 1.499 . S
C636 C637 1.373 . S
C636 C638 1.389 . S
C637 H616 0.950 . S
C637 C636 1.373 . S
C637 C653 1.377 . S
C638 C636 1.389 . S
C638 C639 1.524 . S
C638 C652 1.377 . S
C639 C638 1.524 . S
C639 C640 1.397 . S
C639 C644 1.363 . S
C640 H617 0.950 . S
C640 C639 1.397 . S
C640 C641 1.334 . S
C641 H618 0.950 . S
C641 C640 1.334 . S
C641 C642 1.287 . S
C642 C641 1.287 . S
C642 C643 1.524 . S
C642 H661 0.913 . S
C643 H619 0.950 . S
C643 C642 1.524 . S
C643 C644 1.415 . S
C644 H620 0.950 . S
C644 C639 1.363 . S
C644 C643 1.415 . S
C645 H621 0.951 . S
C645 C646 1.366 . S
C645 C647 1.388 . S
C646 C645 1.366 . S
C646 C650 1.385 . S
C647 H622 0.951 . S
C647 C645 1.388 . S
C647 C648 1.366 . S
C648 C647 1.366 . S
C648 C649 1.414 . S
C648 C651 1.499 . S
C649 H623 0.950 . S
C649 C648 1.414 . S
C649 C650 1.374 . S
C650 H624 0.950 . S
C650 C646 1.385 . S
C650 C649 1.374 . S
C651 C648 1.499 . S
C651 C652 1.373 . S
C651 C653 1.389 . S
C652 H625 0.950 . S
C652 C638 1.377 . S
C652 C651 1.373 . S
C653 C637 1.377 . S
C653 C651 1.389 . S
C653 C654 1.524 . S
C654 C653 1.524 . S
C654 C655 1.397 . S
C654 C659 1.363 . S
C655 H626 0.950 . S
C655 C654 1.397 . S
C655 C656 1.334 . S
C656 H627 0.950 . S
C656 C655 1.334 . S
C656 C657 1.287 . S
C657 C656 1.287 . S
C657 C658 1.524 . S
C657 H660 0.999 . S
C658 H628 0.950 . S
C658 C657 1.524 . S
C658 C659 1.415 . S
C659 H629 0.950 . S
C659 C654 1.363 . S
C659 C658 1.415 . S
H660 C657 0.999 . S
H661 C642 0.913 . S
H662 C680 0.951 . S
H663 C682 0.951 . S
H664 C684 0.950 . S
H665 C685 0.950 . S
H666 C687 0.950 . S
H667 C690 0.950 . S
H668 C691 0.950 . S
H669 C693 0.950 . S
H670 C694 0.950 . S
H671 C695 0.951 . S
H672 C697 0.951 . S
H673 C699 0.950 . S
H674 C700 0.950 . S
H675 C702 0.950 . S
H676 C705 0.950 . S
H677 C706 0.950 . S
H678 C708 0.950 . S
H679 C709 0.950 . S
C680 H662 0.951 . S
C680 C681 1.366 . S
C680 C682 1.388 . S
C681 C680 1.366 . S
C681 C685 1.385 . S
C682 H663 0.951 . S
C682 C680 1.388 . S
C682 C683 1.366 . S
C683 C682 1.366 . S
C683 C684 1.414 . S
C683 C686 1.499 . S
C684 H664 0.950 . S
C684 C683 1.414 . S
C684 C685 1.374 . S
C685 H665 0.950 . S
C685 C681 1.385 . S
C685 C684 1.374 . S
C686 C683 1.499 . S
C686 C687 1.373 . S
C686 C688 1.389 . S
C687 H666 0.950 . S
C687 C686 1.373 . S
C687 C703 1.377 . S
C688 C686 1.389 . S
C688 C689 1.524 . S
C688 C702 1.377 . S
C689 C688 1.524 . S
C689 C690 1.397 . S
C689 C694 1.363 . S
C690 H667 0.950 . S
C690 C689 1.397 . S
C690 C691 1.334 . S
C691 H668 0.950 . S
C691 C690 1.334 . S
C691 C692 1.287 . S
C692 C691 1.287 . S
C692 C693 1.524 . S
C692 H711 0.913 . S
C693 H669 0.950 . S
C693 C692 1.524 . S
C693 C694 1.415 . S
C694 H670 0.950 . S
C694 C689 1.363 . S
C694 C693 1.415 . S
C695 H671 0.951 . S
C695 C696 1.366 . S
C695 C697 1.388 . S
C696 C695 1.366 . S
C696 C700 1.385 . S
C697 H672 0.951 . S
C697 C695 1.388 . S
C697 C698 1.366 . S
C698 C697 1.366 . S
C698 C699 1.414 . S
C698 C701 1.499 . S
C699 H673 0.950 . S
C699 C698 1.414 . S
C699 C700 1.374 . S
C700 H674 0.950 . S
C700 C696 1.385 . S
C700 C699 1.374 . S
C701 C698 1.499 . S
C701 C702 1.373 . S
C701 C703 1.389 . S
C702 H675 0.950 . S
C702 C688 1.377 . S
C702 C701 1.373 . S
C703 C687 1.377 . S
C703 C701 1.389 . S
C703 C704 1.524 . S
C704 C703 1.524 . S
C704 C705 1.397 . S
C704 C709 1.363 . S
C705 H676 0.950 . S
C705 C704 1.397 . S
C705 C706 1.334 . S
C706 H677 0.950 . S
C706 C705 1.334 . S
C706 C707 1.287 . S
C707 C706 1.287 . S
C707 C708 1.524 . S
C707 H710 0.999 . S
C708 H678 0.950 . S
C708 C707 1.524 . S
C708 C709 1.415 . S
C709 H679 0.950 . S
C709 C704 1.363 . S
C709 C708 1.415 . S
H710 C707 0.999 . S
H711 C692 0.913 . S
H712 C730 0.951 . S
H713 C732 0.951 . S
H714 C734 0.950 . S
H715 C735 0.950 . S
H716 C737 0.950 . S
H717 C740 0.950 . S
H718 C741 0.950 . S
H719 C743 0.950 . S
H720 C744 0.950 . S
H721 C745 0.951 . S
H722 C747 0.951 . S
H723 C749 0.950 . S
H724 C750 0.950 . S
H725 C752 0.950 . S
H726 C755 0.950 . S
H727 C756 0.950 . S
H728 C758 0.950 . S
H729 C759 0.950 . S
C730 H712 0.951 . S
C730 C731 1.366 . S
C730 C732 1.388 . S
C731 C730 1.366 . S
C731 C735 1.385 . S
C732 H713 0.951 . S
C732 C730 1.388 . S
C732 C733 1.366 . S
C733 C732 1.366 . S
C733 C734 1.414 . S
C733 C736 1.499 . S
C734 H714 0.950 . S
C734 C733 1.414 . S
C734 C735 1.374 . S
C735 H715 0.950 . S
C735 C731 1.385 . S
C735 C734 1.374 . S
C736 C733 1.499 . S
C736 C737 1.373 . S
C736 C738 1.389 . S
C737 H716 0.950 . S
C737 C736 1.373 . S
C737 C753 1.377 . S
C738 C736 1.389 . S
C738 C739 1.524 . S
C738 C752 1.377 . S
C739 C738 1.524 . S
C739 C740 1.397 . S
C739 C744 1.363 . S
C740 H717 0.950 . S
C740 C739 1.397 . S
C740 C741 1.334 . S
C741 H718 0.950 . S
C741 C740 1.334 . S
C741 C742 1.287 . S
C742 C741 1.287 . S
C742 C743 1.524 . S
C742 H761 0.913 . S
C743 H719 0.950 . S
C743 C742 1.524 . S
C743 C744 1.415 . S
C744 H720 0.950 . S
C744 C739 1.363 . S
C744 C743 1.415 . S
C745 H721 0.951 . S
C745 C746 1.366 . S
C745 C747 1.388 . S
C746 C745 1.366 . S
C746 C750 1.385 . S
C747 H722 0.951 . S
C747 C745 1.388 . S
C747 C748 1.366 . S
C748 C747 1.366 . S
C748 C749 1.414 . S
C748 C751 1.499 . S
C749 H723 0.950 . S
C749 C748 1.414 . S
C749 C750 1.374 . S
C750 H724 0.950 . S
C750 C746 1.385 . S
C750 C749 1.374 . S
C751 C748 1.499 . S
C751 C752 1.373 . S
C751 C753 1.389 . S
C752 H725 0.950 . S
C752 C738 1.377 . S
C752 C751 1.373 . S
C753 C737 1.377 . S
C753 C751 1.389 . S
C753 C754 1.524 . S
C754 C753 1.524 . S
C754 C755 1.397 . S
C754 C759 1.363 . S
C755 H726 0.950 . S
C755 C754 1.397 . S
C755 C756 1.334 . S
C756 H727 0.950 . S
C756 C755 1.334 . S
C756 C757 1.287 . S
C757 C756 1.287 . S
C757 C758 1.524 . S
C757 H760 0.999 . S
C758 H728 0.950 . S
C758 C757 1.524 . S
C758 C759 1.415 . S
C759 H729 0.950 . S
C759 C754 1.363 . S
C759 C758 1.415 . S
H760 C757 0.999 . S
H761 C742 0.913 . S
H762 C780 0.951 . S
H763 C782 0.951 . S
H764 C784 0.950 . S
H765 C785 0.950 . S
H766 C787 0.950 . S
H767 C790 0.950 . S
H768 C791 0.950 . S
H769 C793 0.950 . S
H770 C794 0.950 . S
H771 C795 0.951 . S
H772 C797 0.951 . S
H773 C799 0.950 . S
H774 C800 0.950 . S
H775 C802 0.950 . S
H776 C805 0.950 . S
H777 C806 0.950 . S
H778 C808 0.950 . S
H779 C809 0.950 . S
C780 H762 0.951 . S
C780 C781 1.366 . S
C780 C782 1.388 . S
C781 C780 1.366 . S
C781 C785 1.385 . S
C782 H763 0.951 . S
C782 C780 1.388 . S
C782 C783 1.366 . S
C783 C782 1.366 . S
C783 C784 1.414 . S
C783 C786 1.499 . S
C784 H764 0.950 . S
C784 C783 1.414 . S
C784 C785 1.374 . S
C785 H765 0.950 . S
C785 C781 1.385 . S
C785 C784 1.374 . S
C786 C783 1.499 . S
C786 C787 1.373 . S
C786 C788 1.389 . S
C787 H766 0.950 . S
C787 C786 1.373 . S
C787 C803 1.377 . S
C788 C786 1.389 . S
C788 C789 1.524 . S
C788 C802 1.377 . S
C789 C788 1.524 . S
C789 C790 1.397 . S
C789 C794 1.363 . S
C790 H767 0.950 . S
C790 C789 1.397 . S
C790 C791 1.334 . S
C791 H768 0.950 . S
C791 C790 1.334 . S
C791 C792 1.287 . S
C792 C791 1.287 . S
C792 C793 1.524 . S
C792 H811 0.913 . S
C793 H769 0.950 . S
C793 C792 1.524 . S
C793 C794 1.415 . S
C794 H770 0.950 . S
C794 C789 1.363 . S
C794 C793 1.415 . S
C795 H771 0.951 . S
C795 C796 1.366 . S
C795 C797 1.388 . S
C796 C795 1.366 . S
C796 C800 1.385 . S
C797 H772 0.951 . S
C797 C795 1.388 . S
C797 C798 1.366 . S
C798 C797 1.366 . S
C798 C799 1.414 . S
C798 C801 1.499 . S
C799 H773 0.950 . S
C799 C798 1.414 . S
C799 C800 1.374 . S
C800 H774 0.950 . S
C800 C796 1.385 . S
C800 C799 1.374 . S
C801 C798 1.499 . S
C801 C802 1.373 . S
C801 C803 1.389 . S
C802 H775 0.950 . S
C802 C788 1.377 . S
C802 C801 1.373 . S
C803 C787 1.377 . S
C803 C801 1.389 . S
C803 C804 1.524 . S
C804 C803 1.524 . S
C804 C805 1.397 . S
C804 C809 1.363 . S
C805 H776 0.950 . S
C805 C804 1.397 . S
C805 C806 1.334 . S
C806 H777 0.950 . S
C806 C805 1.334 . S
C806 C807 1.287 . S
C807 C806 1.287 . S
C807 C808 1.524 . S
C807 H810 0.999 . S
C808 H778 0.950 . S
C808 C807 1.524 . S
C808 C809 1.415 . S
C809 H779 0.950 . S
C809 C804 1.363 . S
C809 C808 1.415 . S
H810 C807 0.999 . S
H811 C792 0.913 . S
H812 C830 0.951 . S
H813 C832 0.951 . S
H814 C834 0.950 . S
H815 C835 0.950 . S
H816 C837 0.950 . S
H817 C840 0.950 . S
H818 C841 0.950 . S
H819 C843 0.950 . S
H820 C844 0.950 . S
H821 C845 0.951 . S
H822 C847 0.951 . S
H823 C849 0.950 . S
H824 C850 0.950 . S
H825 C852 0.950 . S
H826 C855 0.950 . S
H827 C856 0.950 . S
H828 C858 0.950 . S
H829 C859 0.950 . S
C830 H812 0.951 . S
C830 C831 1.366 . S
C830 C832 1.388 . S
C831 C830 1.366 . S
C831 C835 1.385 . S
C832 H813 0.951 . S
C832 C830 1.388 . S
C832 C833 1.366 . S
C833 C832 1.366 . S
C833 C834 1.414 . S
C833 C836 1.499 . S
C834 H814 0.950 . S
C834 C833 1.414 . S
C834 C835 1.374 . S
C835 H815 0.950 . S
C835 C831 1.385 . S
C835 C834 1.374 . S
C836 C833 1.499 . S
C836 C837 1.373 . S
C836 C838 1.389 . S
C837 H816 0.950 . S
C837 C836 1.373 . S
C837 C853 1.377 . S
C838 C836 1.389 . S
C838 C839 1.524 . S
C838 C852 1.377 . S
C839 C838 1.524 . S
C839 C840 1.397 . S
C839 C844 1.363 . S
C840 H817 0.950 . S
C840 C839 1.397 . S
C840 C841 1.334 . S
C841 H818 0.950 . S
C841 C840 1.334 . S
C841 C842 1.287 . S
C842 C841 1.287 . S
C842 C843 1.524 . S
C842 H861 0.913 . S
C843 H819 0.950 . S
C843 C842 1.524 . S
C843 C844 1.415 . S
C844 H820 0.950 . S
C844 C839 1.363 . S
C844 C843 1.415 . S
C845 H821 0.951 . S
C845 C846 1.366 . S
C845 C847 1.388 . S
C846 C845 1.366 . S
C846 C850 1.385 . S
C847 H822 0.951 . S
C847 C845 1.388 . S
C847 C848 1.366 . S
C848 C847 1.366 . S
C848 C849 1.414 . S
C848 C851 1.499 . S
C849 H823 0.950 . S
C849 C848 1.414 . S
C849 C850 1.374 . S
C850 H824 0.950 . S
C850 C846 1.385 . S
C850 C849 1.374 . S
C851 C848 1.499 . S
C851 C852 1.373 . S
C851 C853 1.389 . S
C852 H825 0.950 . S
C852 C838 1.377 . S
C852 C851 1.373 . S
C853 C837 1.377 . S
C853 C851 1.389 . S
C853 C854 1.524 . S
C854 C853 1.524 . S
C854 C855 1.397 . S
C854 C859 1.363 . S
C855 H826 0.950 . S
C855 C854 1.397 . S
C855 C856 1.334 . S
C856 H827 0.950 . S
C856 C855 1.334 . S
C856 C857 1.287 . S
C857 C856 1.287 . S
C857 C858 1.524 . S
C857 H860 0.999 . S
C858 H828 0.950 . S
C858 C857 1.524 . S
C858 C859 1.415 . S
C859 H829 0.950 . S
C859 C854 1.363 . S
C859 C858 1.415 . S
H860 C857 0.999 . S
H861 C842 0.913 . S
H862 C880 0.951 . S
H863 C882 0.951 . S
H864 C884 0.950 . S
H865 C885 0.950 . S
H866 C887 0.950 . S
H867 C890 0.950 . S
H868 C891 0.950 . S
H869 C893 0.950 . S
H870 C894 0.950 . S
H871 C895 0.951 . S
H872 C897 0.951 . S
H873 C899 0.950 . S
H874 C900 0.950 . S
H875 C902 0.950 . S
H876 C905 0.950 . S
H877 C906 0.950 . S
H878 C908 0.950 . S
H879 C909 0.950 . S
C880 H862 0.951 . S
C880 C881 1.366 . S
C880 C882 1.388 . S
C881 C880 1.366 . S
C881 C885 1.385 . S
C882 H863 0.951 . S
C882 C880 1.388 . S
C882 C883 1.366 . S
C883 C882 1.366 . S
C883 C884 1.414 . S
C883 C886 1.499 . S
C884 H864 0.950 . S
C884 C883 1.414 . S
C884 C885 1.374 . S
C885 H865 0.950 . S
C885 C881 1.385 . S
C885 C884 1.374 . S
C886 C883 1.499 . S
C886 C887 1.373 . S
C886 C888 1.389 . S
C887 H866 0.950 . S
C887 C886 1.373 . S
C887 C903 1.377 . S
C888 C886 1.389 . S
C888 C889 1.524 . S
C888 C902 1.377 . S
C889 C888 1.524 . S
C889 C890 1.397 . S
C889 C894 1.363 . S
C890 H867 0.950 . S
C890 C889 1.397 . S
C890 C891 1.334 . S
C891 H868 0.950 . S
C891 C890 1.334 . S
C891 C892 1.287 . S
C892 C891 1.287 . S
C892 C893 1.524 . S
C892 H911 0.913 . S
C893 H869 0.950 . S
C893 C892 1.524 . S
C893 C894 1.415 . S
C894 H870 0.950 . S
C894 C889 1.363 . S
C894 C893 1.415 . S
C895 H871 0.951 . S
C895 C896 1.366 . S
C895 C897 1.388 . S
C896 C895 1.366 . S
C896 C900 1.385 . S
C897 H872 0.951 . S
C897 C895 1.388 . S
C897 C898 1.366 . S
C898 C897 1.366 . S
C898 C899 1.414 . S
C898 C901 1.499 . S
C899 H873 0.950 . S
C899 C898 1.414 . S
C899 C900 1.374 . S
C900 H874 0.950 . S
C900 C896 1.385 . S
C900 C899 1.374 . S
C901 C898 1.499 . S
C901 C902 1.373 . S
C901 C903 1.389 . S
C902 H875 0.950 . S
C902 C888 1.377 . S
C902 C901 1.373 . S
C903 C887 1.377 . S
C903 C901 1.389 . S
C903 C904 1.524 . S
C904 C903 1.524 . S
C904 C905 1.397 . S
C904 C909 1.363 . S
C905 H876 0.950 . S
C905 C904 1.397 . S
C905 C906 1.334 . S
C906 H877 0.950 . S
C906 C905 1.334 . S
C906 C907 1.287 . S
C907 C906 1.287 . S
C907 C908 1.524 . S
C907 H910 0.999 . S
C908 H878 0.950 . S
C908 C907 1.524 . S
C908 C909 1.415 . S
C909 H879 0.950 . S
C909 C904 1.363 . S
C909 C908 1.415 . S
H910 C907 0.999 . S
H911 C892 0.913 . S
H912 C930 0.951 . S
H913 C932 0.951 . S
H914 C934 0.950 . S
H915 C935 0.950 1_655 S
H916 C937 0.950 . S
H917 C940 0.950 . S
H918 C941 0.950 . S
H919 C943 0.950 . S
H920 C944 0.950 . S
H921 C945 0.951 . S
H922 C947 0.951 . S
H923 C949 0.950 . S
H924 C950 0.950 . S
H925 C952 0.950 . S
H926 C955 0.950 . S
H927 C956 0.950 . S
H928 C958 0.950 . S
H929 C959 0.950 . S
C930 H912 0.951 . S
C930 C931 1.366 . S
C930 C932 1.388 . S
C931 C930 1.366 . S
C931 C935 1.385 . S
C932 H913 0.951 . S
C932 C930 1.388 . S
C932 C933 1.366 . S
C933 C932 1.366 . S
C933 C934 1.414 . S
C933 C936 1.499 . S
C934 H914 0.950 . S
C934 C933 1.414 . S
C934 C935 1.374 . S
C935 H915 0.950 1_455 S
C935 C931 1.385 . S
C935 C934 1.374 . S
C936 C933 1.499 . S
C936 C937 1.373 1_455 S
C936 C938 1.389 . S
C937 H916 0.950 . S
C937 C936 1.373 1_655 S
C937 C953 1.377 . S
C938 C936 1.389 . S
C938 C939 1.524 . S
C938 C952 1.377 . S
C939 C938 1.524 . S
C939 C940 1.397 . S
C939 C944 1.363 . S
C940 H917 0.950 . S
C940 C939 1.397 . S
C940 C941 1.334 . S
C941 H918 0.950 . S
C941 C940 1.334 . S
C941 C942 1.287 . S
C942 C941 1.287 . S
C942 C943 1.524 . S
C942 H961 0.913 . S
C943 H919 0.950 . S
C943 C942 1.524 . S
C943 C944 1.415 . S
C944 H920 0.950 . S
C944 C939 1.363 . S
C944 C943 1.415 . S
C945 H921 0.951 . S
C945 C946 1.366 . S
C945 C947 1.388 . S
C946 C945 1.366 . S
C946 C950 1.385 . S
C947 H922 0.951 . S
C947 C945 1.388 . S
C947 C948 1.366 . S
C948 C947 1.366 . S
C948 C949 1.414 . S
C948 C951 1.499 1_556 S
C949 H923 0.950 . S
C949 C948 1.414 . S
C949 C950 1.374 . S
C950 H924 0.950 . S
C950 C946 1.385 . S
C950 C949 1.374 . S
C951 C948 1.499 1_554 S
C951 C952 1.373 . S
C951 C953 1.389 1_455 S
C952 H925 0.950 . S
C952 C938 1.377 . S
C952 C951 1.373 . S
C953 C937 1.377 . S
C953 C951 1.389 1_655 S
C953 C954 1.524 . S
C954 C953 1.524 . S
C954 C955 1.397 . S
C954 C959 1.363 . S
C955 H926 0.950 . S
C955 C954 1.397 . S
C955 C956 1.334 1_554 S
C956 H927 0.950 . S
C956 C955 1.334 1_556 S
C956 C957 1.288 . S
C957 C956 1.288 . S
C957 C958 1.520 1_556 S
C957 H960 1.002 . S
C958 H928 0.950 . S
C958 C957 1.520 1_554 S
C958 C959 1.415 . S
C959 H929 0.950 . S
C959 C954 1.363 . S
C959 C958 1.415 . S
H960 C957 1.002 . S
H961 C942 0.913 . S
H962 C980 0.951 . S
H963 C982 0.951 . S
H964 C984 0.950 . S
H965 C985 0.950 . S
H966 C987 0.950 1_565 S
H967 C990 0.950 . S
H968 C991 0.950 . S
H969 C993 0.950 . S
H970 C994 0.950 . S
H971 C995 0.951 . S
H972 C997 0.951 . S
H973 C999 0.950 . S
H974 C1000 0.950 . S
H975 C1002 0.950 . S
H976 C1005 0.950 . S
H977 C1006 0.950 . S
H978 C1008 0.950 . S
H979 C1009 0.950 . S
C980 H962 0.951 . S
C980 C981 1.366 . S
C980 C982 1.388 . S
C981 C980 1.366 . S
C981 C985 1.385 . S
C982 H963 0.951 . S
C982 C980 1.388 . S
C982 C983 1.366 . S
C983 C982 1.366 . S
C983 C984 1.414 . S
C983 C986 1.499 . S
C984 H964 0.950 . S
C984 C983 1.414 . S
C984 C985 1.374 . S
C985 H965 0.950 . S
C985 C981 1.385 . S
C985 C984 1.374 . S
C986 C983 1.499 . S
C986 C987 1.373 . S
C986 C988 1.389 . S
C987 H966 0.950 1_545 S
C987 C986 1.373 . S
C987 C1003 1.377 . S
C988 C986 1.389 . S
C988 C989 1.524 . S
C988 C1002 1.377 . S
C989 C988 1.524 . S
C989 C990 1.397 . S
C989 C994 1.363 . S
C990 H967 0.950 . S
C990 C989 1.397 . S
C990 C991 1.334 . S
C991 H968 0.950 . S
C991 C990 1.334 . S
C991 C992 1.287 . S
C992 C991 1.287 . S
C992 C993 1.524 . S
C992 H1011 0.913 . S
C993 H969 0.950 . S
C993 C992 1.524 . S
C993 C994 1.415 . S
C994 H970 0.950 . S
C994 C989 1.363 . S
C994 C993 1.415 . S
C995 H971 0.951 . S
C995 C996 1.366 . S
C995 C997 1.388 . S
C996 C995 1.366 . S
C996 C1000 1.385 . S
C997 H972 0.951 . S
C997 C995 1.388 . S
C997 C998 1.366 . S
C998 C997 1.366 . S
C998 C999 1.414 . S
C998 C1001 1.499 . S
C999 H973 0.950 . S
C999 C998 1.414 . S
C999 C1000 1.374 . S
C1000 H974 0.950 . S
C1000 C996 1.385 . S
C1000 C999 1.374 . S
C1001 C998 1.499 . S
C1001 C1002 1.373 . S
C1001 C1003 1.389 . S
C1002 H975 0.950 . S
C1002 C988 1.377 . S
C1002 C1001 1.373 . S
C1003 C987 1.377 . S
C1003 C1001 1.389 . S
C1003 C1004 1.524 1_545 S
C1004 C1003 1.524 1_565 S
C1004 C1005 1.397 . S
C1004 C1009 1.363 . S
C1005 H976 0.950 . S
C1005 C1004 1.397 . S
C1005 C1006 1.334 . S
C1006 H977 0.950 . S
C1006 C1005 1.334 . S
C1006 C1007 1.287 . S
C1007 C1006 1.287 . S
C1007 C1008 1.524 . S
C1007 H1010 0.999 . S
C1008 H978 0.950 . S
C1008 C1007 1.524 . S
C1008 C1009 1.415 . S
C1009 H979 0.950 . S
C1009 C1004 1.363 . S
C1009 C1008 1.415 . S
H1010 C1007 0.999 . S
H1011 C992 0.913 . S
H1012 C1030 0.951 . S
H1013 C1032 0.951 . S
H1014 C1034 0.950 . S
H1015 C1035 0.950 . S
H1016 C1037 0.950 . S
H1017 C1040 0.950 . S
H1018 C1041 0.950 . S
H1019 C1043 0.950 . S
H1020 C1044 0.950 . S
H1021 C1045 0.951 . S
H1022 C1047 0.951 . S
H1023 C1049 0.950 . S
H1024 C1050 0.950 . S
H1025 C1052 0.950 . S
H1026 C1055 0.950 . S
H1027 C1056 0.950 . S
H1028 C1058 0.950 . S
H1029 C1059 0.950 . S
C1030 H1012 0.951 . S
C1030 C1031 1.366 . S
C1030 C1032 1.388 . S
C1031 C1030 1.366 . S
C1031 C1035 1.385 . S
C1032 H1013 0.951 . S
C1032 C1030 1.388 . S
C1032 C1033 1.366 . S
C1033 C1032 1.366 . S
C1033 C1034 1.414 . S
C1033 C1036 1.499 . S
C1034 H1014 0.950 . S
C1034 C1033 1.414 . S
C1034 C1035 1.374 . S
C1035 H1015 0.950 . S
C1035 C1031 1.385 . S
C1035 C1034 1.374 . S
C1036 C1033 1.499 . S
C1036 C1037 1.373 . S
C1036 C1038 1.389 . S
C1037 H1016 0.950 . S
C1037 C1036 1.373 . S
C1037 C1053 1.377 . S
C1038 C1036 1.389 . S
C1038 C1039 1.524 . S
C1038 C1052 1.377 . S
C1039 C1038 1.524 . S
C1039 C1040 1.397 . S
C1039 C1044 1.363 . S
C1040 H1017 0.950 . S
C1040 C1039 1.397 . S
C1040 C1041 1.334 . S
C1041 H1018 0.950 . S
C1041 C1040 1.334 . S
C1041 C1042 1.287 . S
C1042 C1041 1.287 . S
C1042 C1043 1.524 . S
C1042 H1061 0.913 . S
C1043 H1019 0.950 . S
C1043 C1042 1.524 . S
C1043 C1044 1.415 . S
C1044 H1020 0.950 . S
C1044 C1039 1.363 . S
C1044 C1043 1.415 . S
C1045 H1021 0.951 . S
C1045 C1046 1.366 . S
C1045 C1047 1.388 . S
C1046 C1045 1.366 . S
C1046 C1050 1.385 . S
C1047 H1022 0.951 . S
C1047 C1045 1.388 . S
C1047 C1048 1.366 . S
C1048 C1047 1.366 . S
C1048 C1049 1.414 . S
C1048 C1051 1.499 . S
C1049 H1023 0.950 . S
C1049 C1048 1.414 . S
C1049 C1050 1.374 . S
C1050 H1024 0.950 . S
C1050 C1046 1.385 . S
C1050 C1049 1.374 . S
C1051 C1048 1.499 . S
C1051 C1052 1.373 . S
C1051 C1053 1.389 . S
C1052 H1025 0.950 . S
C1052 C1038 1.377 . S
C1052 C1051 1.373 . S
C1053 C1037 1.377 . S
C1053 C1051 1.389 . S
C1053 C1054 1.524 . S
C1054 C1053 1.524 . S
C1054 C1055 1.397 . S
C1054 C1059 1.363 . S
C1055 H1026 0.950 . S
C1055 C1054 1.397 . S
C1055 C1056 1.334 . S
C1056 H1027 0.950 . S
C1056 C1055 1.334 . S
C1056 C1057 1.287 . S
C1057 C1056 1.287 . S
C1057 C1058 1.524 . S
C1057 H1060 0.999 . S
C1058 H1028 0.950 . S
C1058 C1057 1.524 . S
C1058 C1059 1.415 . S
C1059 H1029 0.950 . S
C1059 C1054 1.363 . S
C1059 C1058 1.415 . S
H1060 C1057 0.999 . S
H1061 C1042 0.913 . S
H1062 C1080 0.951 . S
H1063 C1082 0.951 . S
H1064 C1084 0.950 . S
H1065 C1085 0.950 . S
H1066 C1087 0.950 . S
H1067 C1090 0.950 . S
H1068 C1091 0.950 . S
H1069 C1093 0.950 . S
H1070 C1094 0.950 . S
H1071 C1095 0.951 . S
H1072 C1097 0.951 . S
H1073 C1099 0.950 . S
H1074 C1100 0.950 . S
H1075 C1102 0.950 . S
H1076 C1105 0.950 . S
H1077 C1106 0.950 . S
H1078 C1108 0.950 . S
H1079 C1109 0.950 . S
C1080 H1062 0.951 . S
C1080 C1081 1.366 . S
C1080 C1082 1.388 . S
C1081 C1080 1.366 . S
C1081 C1085 1.385 . S
C1082 H1063 0.951 . S
C1082 C1080 1.388 . S
C1082 C1083 1.366 . S
C1083 C1082 1.366 . S
C1083 C1084 1.414 . S
C1083 C1086 1.499 . S
C1084 H1064 0.950 . S
C1084 C1083 1.414 . S
C1084 C1085 1.374 . S
C1085 H1065 0.950 . S
C1085 C1081 1.385 . S
C1085 C1084 1.374 . S
C1086 C1083 1.499 . S
C1086 C1087 1.373 . S
C1086 C1088 1.389 1_545 S
C1087 H1066 0.950 . S
C1087 C1086 1.373 . S
C1087 C1103 1.377 . S
C1088 C1086 1.389 1_565 S
C1088 C1089 1.524 . S
C1088 C1102 1.377 . S
C1089 C1088 1.524 . S
C1089 C1090 1.397 . S
C1089 C1094 1.363 . S
C1090 H1067 0.950 . S
C1090 C1089 1.397 . S
C1090 C1091 1.334 . S
C1091 H1068 0.950 . S
C1091 C1090 1.334 . S
C1091 C1092 1.287 . S
C1092 C1091 1.287 . S
C1092 C1093 1.524 . S
C1092 H1111 0.913 . S
C1093 H1069 0.950 . S
C1093 C1092 1.524 . S
C1093 C1094 1.415 . S
C1094 H1070 0.950 . S
C1094 C1089 1.363 . S
C1094 C1093 1.415 . S
C1095 H1071 0.951 . S
C1095 C1096 1.366 . S
C1095 C1097 1.388 . S
C1096 C1095 1.366 . S
C1096 C1100 1.385 . S
C1097 H1072 0.951 . S
C1097 C1095 1.388 . S
C1097 C1098 1.366 . S
C1098 C1097 1.366 . S
C1098 C1099 1.414 . S
C1098 C1101 1.499 . S
C1099 H1073 0.950 . S
C1099 C1098 1.414 . S
C1099 C1100 1.374 . S
C1100 H1074 0.950 . S
C1100 C1096 1.385 . S
C1100 C1099 1.374 . S
C1101 C1098 1.499 . S
C1101 C1102 1.373 1_545 S
C1101 C1103 1.389 . S
C1102 H1075 0.950 . S
C1102 C1088 1.377 . S
C1102 C1101 1.373 1_565 S
C1103 C1087 1.377 . S
C1103 C1101 1.389 . S
C1103 C1104 1.524 . S
C1104 C1103 1.524 . S
C1104 C1105 1.397 . S
C1104 C1109 1.363 . S
C1105 H1076 0.950 . S
C1105 C1104 1.397 . S
C1105 C1106 1.334 . S
C1106 H1077 0.950 . S
C1106 C1105 1.334 . S
C1106 C1107 1.287 . S
C1107 C1106 1.287 . S
C1107 C1108 1.524 . S
C1107 H1110 0.999 . S
C1108 H1078 0.950 . S
C1108 C1107 1.524 . S
C1108 C1109 1.415 . S
C1109 H1079 0.950 . S
C1109 C1104 1.363 . S
C1109 C1108 1.415 . S
H1110 C1107 0.999 . S
H1111 C1092 0.913 . S
H1112 C1130 0.951 . S
H1113 C1132 0.951 . S
H1114 C1134 0.950 . S
H1115 C1135 0.950 . S
H1116 C1137 0.950 . S
H1117 C1140 0.950 . S
H1118 C1141 0.950 . S
H1119 C1143 0.950 . S
H1120 C1144 0.950 . S
H1121 C1145 0.951 . S
H1122 C1147 0.951 . S
H1123 C1149 0.950 . S
H1124 C1150 0.950 . S
H1125 C1152 0.950 . S
H1126 C1155 0.950 . S
H1127 C1156 0.950 1_554 S
H1128 C1158 0.950 . S
H1129 C1159 0.950 . S
C1130 H1112 0.951 . S
C1130 C1131 1.366 . S
C1130 C1132 1.388 . S
C1131 C1130 1.366 . S
C1131 C1135 1.385 . S
C1132 H1113 0.951 . S
C1132 C1130 1.388 . S
C1132 C1133 1.366 . S
C1133 C1132 1.366 . S
C1133 C1134 1.414 . S
C1133 C1136 1.499 . S
C1134 H1114 0.950 . S
C1134 C1133 1.414 . S
C1134 C1135 1.374 . S
C1135 H1115 0.950 . S
C1135 C1131 1.385 . S
C1135 C1134 1.374 . S
C1136 C1133 1.499 . S
C1136 C1137 1.373 . S
C1136 C1138 1.389 . S
C1137 H1116 0.950 . S
C1137 C1136 1.373 . S
C1137 C1153 1.377 . S
C1138 C1136 1.389 . S
C1138 C1139 1.524 . S
C1138 C1152 1.377 . S
C1139 C1138 1.524 . S
C1139 C1140 1.397 . S
C1139 C1144 1.363 . S
C1140 H1117 0.950 . S
C1140 C1139 1.397 . S
C1140 C1141 1.334 . S
C1141 H1118 0.950 . S
C1141 C1140 1.334 . S
C1141 C1142 1.287 . S
C1142 C1141 1.287 . S
C1142 C1143 1.524 . S
C1142 H1161 0.913 . S
C1143 H1119 0.950 . S
C1143 C1142 1.524 . S
C1143 C1144 1.415 . S
C1144 H1120 0.950 . S
C1144 C1139 1.363 . S
C1144 C1143 1.415 . S
C1145 H1121 0.951 . S
C1145 C1146 1.366 . S
C1145 C1147 1.388 . S
C1146 C1145 1.366 . S
C1146 C1150 1.385 . S
C1147 H1122 0.951 . S
C1147 C1145 1.388 . S
C1147 C1148 1.366 . S
C1148 C1147 1.366 . S
C1148 C1149 1.414 . S
C1148 C1151 1.499 1_554 S
C1149 H1123 0.950 . S
C1149 C1148 1.414 . S
C1149 C1150 1.374 . S
C1150 H1124 0.950 . S
C1150 C1146 1.385 . S
C1150 C1149 1.374 . S
C1151 C1148 1.499 1_556 S
C1151 C1152 1.373 . S
C1151 C1153 1.389 . S
C1152 H1125 0.950 . S
C1152 C1138 1.377 . S
C1152 C1151 1.373 . S
C1153 C1137 1.377 . S
C1153 C1151 1.389 . S
C1153 C1154 1.524 . S
C1154 C1153 1.524 . S
C1154 C1155 1.397 . S
C1154 C1159 1.363 . S
C1155 H1126 0.950 . S
C1155 C1154 1.397 . S
C1155 C1156 1.334 . S
C1156 H1127 0.950 1_556 S
C1156 C1155 1.334 . S
C1156 C1157 1.287 . S
C1157 C1156 1.287 . S
C1157 C1158 1.524 . S
C1157 H1160 1.020 . S
C1158 H1128 0.950 . S
C1158 C1157 1.524 . S
C1158 C1159 1.415 . S
C1159 H1129 0.950 . S
C1159 C1154 1.363 . S
C1159 C1158 1.415 . S
H1160 C1157 1.020 . S
H1161 C1142 0.913 . S
H1162 C1180 0.951 . S
H1163 C1182 0.966 . S
H1164 C1184 0.950 . S
H1165 C1185 0.950 . S
H1166 C1187 0.950 . S
H1167 C1190 0.950 . S
H1168 C1191 0.950 . S
H1169 C1193 0.950 . S
H1170 C1194 0.950 . S
H1171 C1195 0.951 . S
H1172 C1197 0.951 . S
H1173 C1199 0.950 . S
H1174 C1200 0.950 . S
H1175 C1202 0.950 . S
H1176 C1205 0.950 . S
H1177 C1206 0.950 . S
H1178 C1208 0.950 . S
H1179 C1209 0.950 . S
C1180 H1162 0.951 . S
C1180 C1181 1.366 . S
C1180 C1182 1.388 . S
C1181 C1180 1.366 . S
C1181 C1185 1.385 . S
C1182 H1163 0.966 . S
C1182 C1180 1.388 . S
C1182 C1183 1.366 . S
C1183 C1182 1.366 . S
C1183 C1184 1.414 . S
C1183 C1186 1.499 . S
C1184 H1164 0.950 . S
C1184 C1183 1.414 . S
C1184 C1185 1.374 . S
C1185 H1165 0.950 . S
C1185 C1181 1.385 . S
C1185 C1184 1.374 . S
C1186 C1183 1.499 . S
C1186 C1187 1.373 1_455 S
C1186 C1188 1.389 . S
C1187 H1166 0.950 . S
C1187 C1186 1.373 1_655 S
C1187 C1203 1.377 . S
C1188 C1186 1.389 . S
C1188 C1189 1.524 . S
C1188 C1202 1.377 . S
C1189 C1188 1.524 . S
C1189 C1190 1.397 . S
C1189 C1194 1.363 . S
C1190 H1167 0.950 . S
C1190 C1189 1.397 . S
C1190 C1191 1.334 . S
C1191 H1168 0.950 . S
C1191 C1190 1.334 . S
C1191 C1192 1.287 . S
C1192 C1191 1.287 . S
C1192 C1193 1.524 . S
C1192 H1211 0.913 . S
C1193 H1169 0.950 . S
C1193 C1192 1.524 . S
C1193 C1194 1.415 . S
C1194 H1170 0.950 . S
C1194 C1189 1.363 . S
C1194 C1193 1.415 . S
C1195 H1171 0.951 . S
C1195 C1196 1.365 . S
C1195 C1197 1.388 . S
C1196 C1195 1.365 . S
C1196 C1200 1.385 1_455 S
C1197 H1172 0.951 . S
C1197 C1195 1.388 . S
C1197 C1198 1.366 1_455 S
C1198 C1197 1.366 1_655 S
C1198 C1199 1.414 . S
C1198 C1201 1.498 1_655 S
C1199 H1173 0.950 . S
C1199 C1198 1.414 . S
C1199 C1200 1.374 . S
C1200 H1174 0.950 . S
C1200 C1196 1.385 1_655 S
C1200 C1199 1.374 . S
C1201 C1198 1.498 1_455 S
C1201 C1202 1.380 . S
C1201 C1203 1.385 1_455 S
C1202 H1175 0.950 . S
C1202 C1188 1.377 . S
C1202 C1201 1.380 . S
C1203 C1187 1.377 . S
C1203 C1201 1.385 1_655 S
C1203 C1204 1.524 . S
C1204 C1203 1.524 . S
C1204 C1205 1.397 . S
C1204 C1209 1.363 . S
C1205 H1176 0.950 . S
C1205 C1204 1.397 . S
C1205 C1206 1.334 . S
C1206 H1177 0.950 . S
C1206 C1205 1.334 . S
C1206 C1207 1.287 . S
C1207 C1206 1.287 . S
C1207 C1208 1.524 . S
C1207 H1210 0.999 . S
C1208 H1178 0.950 . S
C1208 C1207 1.524 . S
C1208 C1209 1.415 . S
C1209 H1179 0.950 . S
C1209 C1204 1.363 . S
C1209 C1208 1.415 . S
H1210 C1207 0.999 . S
H1211 C1192 0.913 . S
C331 C19 1.808 . S
C346 C303 1.756 . S
C381 C46 1.158 . S
C396 C239 1.141 . S
C431 C95 0.355 . S
C446 C271 0.309 . S
C481 C10 1.923 . S
C496 C297 1.891 . S
C546 C233 1.211 . S
C531 C55 1.219 . S
C596 C265 0.461 . S
C581 C86 0.416 . S
C631 C59 3.031 . S
C646 C175 2.968 . S
C681 C90 1.907 . S
C696 C207 1.890 . S
C731 C15 1.214 . S
C746 C137 1.208 . S
C796 C169 2.868 . S
C781 C50 2.889 . S
C846 C201 1.812 . S
C831 C99 1.843 . S
C881 C6 1.153 . S
C896 C143 1.145 . S
C946 C213 1.365 . S
C931 C9 1.343 . S
C981 C58 1.454 . S
C996 C149 1.479 . S
C1031 C98 1.689 . S
C1046 C181 1.726 . S
C1096 C277 1.091 . S
C1081 C49 1.094 . S
C1146 C309 1.346 . S
C1131 C89 1.336 . S
C1181 C18 1.442 . S
C1196 C245 1.455 . S
