# Generated by pormake.
# Topology tbo, (3,4)-cn, num edge types: 1
# Building blocks:
#     Node 0, Type 0, BuildingBlock: WUSLED_clean_sbu_0, # of connection points: 3
#     Node 1, Type 0, BuildingBlock: WUSLED_clean_sbu_0, # of connection points: 3
#     Node 2, Type 0, BuildingBlock: WUSLED_clean_sbu_0, # of connection points: 3
#     Node 3, Type 0, BuildingBlock: WUSLED_clean_sbu_0, # of connection points: 3
#     Node 4, Type 0, BuildingBlock: WUSLED_clean_sbu_0, # of connection points: 3
#     Node 5, Type 0, BuildingBlock: WUSLED_clean_sbu_0, # of connection points: 3
#     Node 6, Type 0, BuildingBlock: WUSLED_clean_sbu_0, # of connection points: 3
#     Node 7, Type 0, BuildingBlock: WUSLED_clean_sbu_0, # of connection points: 3
#     Node 8, Type 0, BuildingBlock: WUSLED_clean_sbu_0, # of connection points: 3
#     Node 9, Type 0, BuildingBlock: WUSLED_clean_sbu_0, # of connection points: 3
#     Node 10, Type 0, BuildingBlock: WUSLED_clean_sbu_0, # of connection points: 3
#     Node 11, Type 0, BuildingBlock: WUSLED_clean_sbu_0, # of connection points: 3
#     Node 12, Type 0, BuildingBlock: WUSLED_clean_sbu_0, # of connection points: 3
#     Node 13, Type 0, BuildingBlock: WUSLED_clean_sbu_0, # of connection points: 3
#     Node 14, Type 0, BuildingBlock: WUSLED_clean_sbu_0, # of connection points: 3
#     Node 15, Type 0, BuildingBlock: WUSLED_clean_sbu_0, # of connection points: 3
#     Node 16, Type 0, BuildingBlock: WUSLED_clean_sbu_0, # of connection points: 3
#     Node 17, Type 0, BuildingBlock: WUSLED_clean_sbu_0, # of connection points: 3
#     Node 18, Type 0, BuildingBlock: WUSLED_clean_sbu_0, # of connection points: 3
#     Node 19, Type 0, BuildingBlock: WUSLED_clean_sbu_0, # of connection points: 3
#     Node 20, Type 0, BuildingBlock: WUSLED_clean_sbu_0, # of connection points: 3
#     Node 21, Type 0, BuildingBlock: WUSLED_clean_sbu_0, # of connection points: 3
#     Node 22, Type 0, BuildingBlock: WUSLED_clean_sbu_0, # of connection points: 3
#     Node 23, Type 0, BuildingBlock: WUSLED_clean_sbu_0, # of connection points: 3
#     Node 24, Type 0, BuildingBlock: WUSLED_clean_sbu_0, # of connection points: 3
#     Node 25, Type 0, BuildingBlock: WUSLED_clean_sbu_0, # of connection points: 3
#     Node 26, Type 0, BuildingBlock: WUSLED_clean_sbu_0, # of connection points: 3
#     Node 27, Type 0, BuildingBlock: WUSLED_clean_sbu_0, # of connection points: 3
#     Node 28, Type 0, BuildingBlock: WUSLED_clean_sbu_0, # of connection points: 3
#     Node 29, Type 0, BuildingBlock: WUSLED_clean_sbu_0, # of connection points: 3
#     Node 30, Type 0, BuildingBlock: WUSLED_clean_sbu_0, # of connection points: 3
#     Node 31, Type 0, BuildingBlock: WUSLED_clean_sbu_0, # of connection points: 3
#     Node 32, Type 1, BuildingBlock: MUDLON_clean_linker_0, # of connection points: 4
#     Node 33, Type 1, BuildingBlock: MUDLON_clean_linker_0, # of connection points: 4
#     Node 34, Type 1, BuildingBlock: MUDLON_clean_linker_0, # of connection points: 4
#     Node 35, Type 1, BuildingBlock: MUDLON_clean_linker_0, # of connection points: 4
#     Node 36, Type 1, BuildingBlock: MUDLON_clean_linker_0, # of connection points: 4
#     Node 37, Type 1, BuildingBlock: MUDLON_clean_linker_0, # of connection points: 4
#     Node 38, Type 1, BuildingBlock: MUDLON_clean_linker_0, # of connection points: 4
#     Node 39, Type 1, BuildingBlock: MUDLON_clean_linker_0, # of connection points: 4
#     Node 40, Type 1, BuildingBlock: MUDLON_clean_linker_0, # of connection points: 4
#     Node 41, Type 1, BuildingBlock: MUDLON_clean_linker_0, # of connection points: 4
#     Node 42, Type 1, BuildingBlock: MUDLON_clean_linker_0, # of connection points: 4
#     Node 43, Type 1, BuildingBlock: MUDLON_clean_linker_0, # of connection points: 4
#     Node 44, Type 1, BuildingBlock: MUDLON_clean_linker_0, # of connection points: 4
#     Node 45, Type 1, BuildingBlock: MUDLON_clean_linker_0, # of connection points: 4
#     Node 46, Type 1, BuildingBlock: MUDLON_clean_linker_0, # of connection points: 4
#     Node 47, Type 1, BuildingBlock: MUDLON_clean_linker_0, # of connection points: 4
#     Node 48, Type 1, BuildingBlock: MUDLON_clean_linker_0, # of connection points: 4
#     Node 49, Type 1, BuildingBlock: MUDLON_clean_linker_0, # of connection points: 4
#     Node 50, Type 1, BuildingBlock: MUDLON_clean_linker_0, # of connection points: 4
#     Node 51, Type 1, BuildingBlock: MUDLON_clean_linker_0, # of connection points: 4
#     Node 52, Type 1, BuildingBlock: MUDLON_clean_linker_0, # of connection points: 4
#     Node 53, Type 1, BuildingBlock: MUDLON_clean_linker_0, # of connection points: 4
#     Node 54, Type 1, BuildingBlock: MUDLON_clean_linker_0, # of connection points: 4
#     Node 55, Type 1, BuildingBlock: MUDLON_clean_linker_0, # of connection points: 4
#     Edge 56, Type (0, 1), BuildingBlock: EZIPEK_clean_linker_0, # of connection points: 2
#     Edge 57, Type (0, 1), BuildingBlock: EZIPEK_clean_linker_0, # of connection points: 2
#     Edge 58, Type (0, 1), BuildingBlock: EZIPEK_clean_linker_0, # of connection points: 2
#     Edge 59, Type (0, 1), BuildingBlock: EZIPEK_clean_linker_0, # of connection points: 2
#     Edge 60, Type (0, 1), BuildingBlock: EZIPEK_clean_linker_0, # of connection points: 2
#     Edge 61, Type (0, 1), BuildingBlock: EZIPEK_clean_linker_0, # of connection points: 2
#     Edge 62, Type (0, 1), BuildingBlock: EZIPEK_clean_linker_0, # of connection points: 2
#     Edge 63, Type (0, 1), BuildingBlock: EZIPEK_clean_linker_0, # of connection points: 2
#     Edge 64, Type (0, 1), BuildingBlock: EZIPEK_clean_linker_0, # of connection points: 2
#     Edge 65, Type (0, 1), BuildingBlock: EZIPEK_clean_linker_0, # of connection points: 2
#     Edge 66, Type (0, 1), BuildingBlock: EZIPEK_clean_linker_0, # of connection points: 2
#     Edge 67, Type (0, 1), BuildingBlock: EZIPEK_clean_linker_0, # of connection points: 2
#     Edge 68, Type (0, 1), BuildingBlock: EZIPEK_clean_linker_0, # of connection points: 2
#     Edge 69, Type (0, 1), BuildingBlock: EZIPEK_clean_linker_0, # of connection points: 2
#     Edge 70, Type (0, 1), BuildingBlock: EZIPEK_clean_linker_0, # of connection points: 2
#     Edge 71, Type (0, 1), BuildingBlock: EZIPEK_clean_linker_0, # of connection points: 2
#     Edge 72, Type (0, 1), BuildingBlock: EZIPEK_clean_linker_0, # of connection points: 2
#     Edge 73, Type (0, 1), BuildingBlock: EZIPEK_clean_linker_0, # of connection points: 2
#     Edge 74, Type (0, 1), BuildingBlock: EZIPEK_clean_linker_0, # of connection points: 2
#     Edge 75, Type (0, 1), BuildingBlock: EZIPEK_clean_linker_0, # of connection points: 2
#     Edge 76, Type (0, 1), BuildingBlock: EZIPEK_clean_linker_0, # of connection points: 2
#     Edge 77, Type (0, 1), BuildingBlock: EZIPEK_clean_linker_0, # of connection points: 2
#     Edge 78, Type (0, 1), BuildingBlock: EZIPEK_clean_linker_0, # of connection points: 2
#     Edge 79, Type (0, 1), BuildingBlock: EZIPEK_clean_linker_0, # of connection points: 2
#     Edge 80, Type (0, 1), BuildingBlock: EZIPEK_clean_linker_0, # of connection points: 2
#     Edge 81, Type (0, 1), BuildingBlock: EZIPEK_clean_linker_0, # of connection points: 2
#     Edge 82, Type (0, 1), BuildingBlock: EZIPEK_clean_linker_0, # of connection points: 2
#     Edge 83, Type (0, 1), BuildingBlock: EZIPEK_clean_linker_0, # of connection points: 2
#     Edge 84, Type (0, 1), BuildingBlock: EZIPEK_clean_linker_0, # of connection points: 2
#     Edge 85, Type (0, 1), BuildingBlock: EZIPEK_clean_linker_0, # of connection points: 2
#     Edge 86, Type (0, 1), BuildingBlock: EZIPEK_clean_linker_0, # of connection points: 2
#     Edge 87, Type (0, 1), BuildingBlock: EZIPEK_clean_linker_0, # of connection points: 2
#     Edge 88, Type (0, 1), BuildingBlock: EZIPEK_clean_linker_0, # of connection points: 2
#     Edge 89, Type (0, 1), BuildingBlock: EZIPEK_clean_linker_0, # of connection points: 2
#     Edge 90, Type (0, 1), BuildingBlock: EZIPEK_clean_linker_0, # of connection points: 2
#     Edge 91, Type (0, 1), BuildingBlock: EZIPEK_clean_linker_0, # of connection points: 2
#     Edge 92, Type (0, 1), BuildingBlock: EZIPEK_clean_linker_0, # of connection points: 2
#     Edge 93, Type (0, 1), BuildingBlock: EZIPEK_clean_linker_0, # of connection points: 2
#     Edge 94, Type (0, 1), BuildingBlock: EZIPEK_clean_linker_0, # of connection points: 2
#     Edge 95, Type (0, 1), BuildingBlock: EZIPEK_clean_linker_0, # of connection points: 2
#     Edge 96, Type (0, 1), BuildingBlock: EZIPEK_clean_linker_0, # of connection points: 2
#     Edge 97, Type (0, 1), BuildingBlock: EZIPEK_clean_linker_0, # of connection points: 2
#     Edge 98, Type (0, 1), BuildingBlock: EZIPEK_clean_linker_0, # of connection points: 2
#     Edge 99, Type (0, 1), BuildingBlock: EZIPEK_clean_linker_0, # of connection points: 2
#     Edge 100, Type (0, 1), BuildingBlock: EZIPEK_clean_linker_0, # of connection points: 2
#     Edge 101, Type (0, 1), BuildingBlock: EZIPEK_clean_linker_0, # of connection points: 2
#     Edge 102, Type (0, 1), BuildingBlock: EZIPEK_clean_linker_0, # of connection points: 2
#     Edge 103, Type (0, 1), BuildingBlock: EZIPEK_clean_linker_0, # of connection points: 2
#     Edge 104, Type (0, 1), BuildingBlock: EZIPEK_clean_linker_0, # of connection points: 2
#     Edge 105, Type (0, 1), BuildingBlock: EZIPEK_clean_linker_0, # of connection points: 2
#     Edge 106, Type (0, 1), BuildingBlock: EZIPEK_clean_linker_0, # of connection points: 2
#     Edge 107, Type (0, 1), BuildingBlock: EZIPEK_clean_linker_0, # of connection points: 2
#     Edge 108, Type (0, 1), BuildingBlock: EZIPEK_clean_linker_0, # of connection points: 2
#     Edge 109, Type (0, 1), BuildingBlock: EZIPEK_clean_linker_0, # of connection points: 2
#     Edge 110, Type (0, 1), BuildingBlock: EZIPEK_clean_linker_0, # of connection points: 2
#     Edge 111, Type (0, 1), BuildingBlock: EZIPEK_clean_linker_0, # of connection points: 2
#     Edge 112, Type (0, 1), BuildingBlock: EZIPEK_clean_linker_0, # of connection points: 2
#     Edge 113, Type (0, 1), BuildingBlock: EZIPEK_clean_linker_0, # of connection points: 2
#     Edge 114, Type (0, 1), BuildingBlock: EZIPEK_clean_linker_0, # of connection points: 2
#     Edge 115, Type (0, 1), BuildingBlock: EZIPEK_clean_linker_0, # of connection points: 2
#     Edge 116, Type (0, 1), BuildingBlock: EZIPEK_clean_linker_0, # of connection points: 2
#     Edge 117, Type (0, 1), BuildingBlock: EZIPEK_clean_linker_0, # of connection points: 2
#     Edge 118, Type (0, 1), BuildingBlock: EZIPEK_clean_linker_0, # of connection points: 2
#     Edge 119, Type (0, 1), BuildingBlock: EZIPEK_clean_linker_0, # of connection points: 2
#     Edge 120, Type (0, 1), BuildingBlock: EZIPEK_clean_linker_0, # of connection points: 2
#     Edge 121, Type (0, 1), BuildingBlock: EZIPEK_clean_linker_0, # of connection points: 2
#     Edge 122, Type (0, 1), BuildingBlock: EZIPEK_clean_linker_0, # of connection points: 2
#     Edge 123, Type (0, 1), BuildingBlock: EZIPEK_clean_linker_0, # of connection points: 2
#     Edge 124, Type (0, 1), BuildingBlock: EZIPEK_clean_linker_0, # of connection points: 2
#     Edge 125, Type (0, 1), BuildingBlock: EZIPEK_clean_linker_0, # of connection points: 2
#     Edge 126, Type (0, 1), BuildingBlock: EZIPEK_clean_linker_0, # of connection points: 2
#     Edge 127, Type (0, 1), BuildingBlock: EZIPEK_clean_linker_0, # of connection points: 2
#     Edge 128, Type (0, 1), BuildingBlock: EZIPEK_clean_linker_0, # of connection points: 2
#     Edge 129, Type (0, 1), BuildingBlock: EZIPEK_clean_linker_0, # of connection points: 2
#     Edge 130, Type (0, 1), BuildingBlock: EZIPEK_clean_linker_0, # of connection points: 2
#     Edge 131, Type (0, 1), BuildingBlock: EZIPEK_clean_linker_0, # of connection points: 2
#     Edge 132, Type (0, 1), BuildingBlock: EZIPEK_clean_linker_0, # of connection points: 2
#     Edge 133, Type (0, 1), BuildingBlock: EZIPEK_clean_linker_0, # of connection points: 2
#     Edge 134, Type (0, 1), BuildingBlock: EZIPEK_clean_linker_0, # of connection points: 2
#     Edge 135, Type (0, 1), BuildingBlock: EZIPEK_clean_linker_0, # of connection points: 2
#     Edge 136, Type (0, 1), BuildingBlock: EZIPEK_clean_linker_0, # of connection points: 2
#     Edge 137, Type (0, 1), BuildingBlock: EZIPEK_clean_linker_0, # of connection points: 2
#     Edge 138, Type (0, 1), BuildingBlock: EZIPEK_clean_linker_0, # of connection points: 2
#     Edge 139, Type (0, 1), BuildingBlock: EZIPEK_clean_linker_0, # of connection points: 2
#     Edge 140, Type (0, 1), BuildingBlock: EZIPEK_clean_linker_0, # of connection points: 2
#     Edge 141, Type (0, 1), BuildingBlock: EZIPEK_clean_linker_0, # of connection points: 2
#     Edge 142, Type (0, 1), BuildingBlock: EZIPEK_clean_linker_0, # of connection points: 2
#     Edge 143, Type (0, 1), BuildingBlock: EZIPEK_clean_linker_0, # of connection points: 2
#     Edge 144, Type (0, 1), BuildingBlock: EZIPEK_clean_linker_0, # of connection points: 2
#     Edge 145, Type (0, 1), BuildingBlock: EZIPEK_clean_linker_0, # of connection points: 2
#     Edge 146, Type (0, 1), BuildingBlock: EZIPEK_clean_linker_0, # of connection points: 2
#     Edge 147, Type (0, 1), BuildingBlock: EZIPEK_clean_linker_0, # of connection points: 2
#     Edge 148, Type (0, 1), BuildingBlock: EZIPEK_clean_linker_0, # of connection points: 2
#     Edge 149, Type (0, 1), BuildingBlock: EZIPEK_clean_linker_0, # of connection points: 2
#     Edge 150, Type (0, 1), BuildingBlock: EZIPEK_clean_linker_0, # of connection points: 2
#     Edge 151, Type (0, 1), BuildingBlock: EZIPEK_clean_linker_0, # of connection points: 2
# Relax obj value: 0.002
# Max RMSD: 0.047
# Mean RMSD: 0.021
data_MOF--net-tbo--node1-WUSLED_clean_sbu_0--node2-MUDLON_clean_linker_0--edge1-EZIPEK_clean_linker_0
_symmetry_space_group_name_H-M    P1
_symmetry_Int_Tables_number       1
_symmetry_cell_setting            triclinic
loop_
_symmetry_equiv_pos_as_xyz
'x, y, z'
_cell_length_a     98.934672
_cell_length_b     99.295612
_cell_length_c     99.048647
_cell_angle_alpha  89.490217
_cell_angle_beta   90.447264
_cell_angle_gamma 91.01842
loop_
_atom_site_label
_atom_site_type_symbol
_atom_site_fract_x
_atom_site_fract_y
_atom_site_fract_z
_atom_type_partial_charge
C0 C 0.19606 0.15015 0.20653 0.0
C1 C 0.2093 0.14888 0.20176 0.0
C2 C 0.21204 0.12847 0.21522 0.0
C3 C 0.21726 0.13812 0.2061 0.0
C4 C 0.19872 0.12962 0.21978 0.0
C5 C 0.19079 0.1404 0.21547 0.0
U6 U 0.18898 0.18088 0.18412 0.0
O7 O 0.16964 0.18853 0.17623 0.0
O8 O 0.18226 0.20107 0.18962 0.0
C9 C 0.17066 0.19973 0.18317 0.0
C10 C 0.18777 0.16176 0.20262 0.0
C11 C 0.15854 0.20361 0.19069 0.0
C12 C 0.14571 0.20483 0.21151 0.0
C13 C 0.15687 0.20017 0.20438 0.0
C14 C 0.13758 0.21602 0.19125 0.0
C15 C 0.13608 0.21291 0.205 0.0
C16 C 0.14873 0.21141 0.18416 0.0
C17 C 0.21407 0.18958 0.15526 0.0
C18 C 0.22499 0.20996 0.14651 0.0
C19 C 0.22195 0.19082 0.13206 0.0
C20 C 0.21543 0.18378 0.14253 0.0
C21 C 0.22824 0.20356 0.13424 0.0
C22 C 0.21839 0.20299 0.15697 0.0
C23 C 0.20887 0.18128 0.16668 0.0
O24 O 0.19339 0.17366 0.2047 0.0
O25 O 0.18153 0.16089 0.19089 0.0
O26 O 0.19745 0.1746 0.16465 0.0
O27 O 0.20984 0.18654 0.17879 0.0
H28 H 0.21354 0.15631 0.19483 0.0
H29 H 0.22753 0.13739 0.2025 0.0
H30 H 0.19455 0.12229 0.22684 0.0
H31 H 0.18059 0.14122 0.21926 0.0
H32 H 0.1447 0.20236 0.22213 0.0
H33 H 0.1643 0.19413 0.20961 0.0
H34 H 0.13027 0.22227 0.18609 0.0
H35 H 0.14985 0.21417 0.17361 0.0
H36 H 0.22746 0.22043 0.14827 0.0
H37 H 0.22177 0.18605 0.12234 0.0
H38 H 0.21156 0.17368 0.14067 0.0
H39 H 0.21683 0.20809 0.16643 0.0
C40 C 0.81468 0.19179 0.15684 0.0
C41 C 0.8241 0.20014 0.1501 0.0
C42 C 0.80647 0.20787 0.1348 0.0
C43 C 0.82002 0.2081 0.13911 0.0
C44 C 0.79707 0.19952 0.14152 0.0
C45 C 0.80116 0.19152 0.15245 0.0
U46 U 0.83853 0.18386 0.18634 0.0
O47 O 0.83382 0.1778 0.20723 0.0
O48 O 0.84547 0.16442 0.1944 0.0
C49 C 0.83928 0.1659 0.20598 0.0
C50 C 0.81864 0.18355 0.16861 0.0
C51 C 0.83145 0.15413 0.21133 0.0
C52 C 0.81707 0.14431 0.22879 0.0
C53 C 0.82303 0.15558 0.22251 0.0
C54 C 0.82701 0.12993 0.21235 0.0
C55 C 0.82002 0.13103 0.22472 0.0
C56 C 0.83298 0.1412 0.20603 0.0
C57 C 0.86982 0.20613 0.19263 0.0
C58 C 0.88386 0.20385 0.21275 0.0
C59 C 0.88998 0.22021 0.19543 0.0
C60 C 0.87866 0.21624 0.1878 0.0
C61 C 0.89259 0.21411 0.208 0.0
C62 C 0.87254 0.19987 0.2051 0.0
C63 C 0.85766 0.20249 0.18473 0.0
O64 O 0.82967 0.1765 0.16728 0.0
O65 O 0.81792 0.18956 0.18034 0.0
O66 O 0.84611 0.20428 0.19086 0.0
O67 O 0.8581 0.19101 0.17827 0.0
H68 H 0.83457 0.20056 0.1534 0.0
H69 H 0.82738 0.21456 0.13406 0.0
H70 H 0.78657 0.19927 0.13835 0.0
H71 H 0.79374 0.18518 0.15756 0.0
H72 H 0.81009 0.14628 0.23681 0.0
H73 H 0.82114 0.16546 0.22657 0.0
H74 H 0.82792 0.12048 0.20721 0.0
H75 H 0.83891 0.13971 0.19704 0.0
H76 H 0.88572 0.19907 0.22245 0.0
H77 H 0.8966 0.22816 0.19164 0.0
H78 H 0.87671 0.22117 0.1782 0.0
H79 H 0.86582 0.19204 0.20898 0.0
C80 C 0.81332 0.83544 0.1561 0.0
C81 C 0.79989 0.83661 0.15169 0.0
C82 C 0.8037 0.82048 0.13386 0.0
C83 C 0.7951 0.82917 0.14066 0.0
C84 C 0.81717 0.81928 0.13825 0.0
C85 C 0.82195 0.8267 0.14933 0.0
U86 U 0.83806 0.84262 0.18537 0.0
O87 O 0.84607 0.86209 0.19275 0.0
O88 O 0.83387 0.84907 0.20608 0.0
C89 C 0.83993 0.86085 0.20443 0.0
C90 C 0.81806 0.84339 0.16777 0.0
C91 C 0.83221 0.87258 0.20879 0.0
C92 C 0.81195 0.88613 0.20818 0.0
C93 C 0.81936 0.87528 0.20338 0.0
C94 C 0.83025 0.8918 0.22363 0.0
C95 C 0.81731 0.89438 0.21843 0.0
C96 C 0.83764 0.88097 0.21885 0.0
C97 C 0.86821 0.81857 0.19115 0.0
C98 C 0.88001 0.80016 0.20217 0.0
C99 C 0.892 0.8209 0.19738 0.0
C100 C 0.88014 0.82637 0.19197 0.0
C101 C 0.89259 0.80717 0.20143 0.0
C102 C 0.86818 0.80558 0.19674 0.0
C103 C 0.85593 0.8234 0.18405 0.0
O104 O 0.81709 0.83736 0.17959 0.0
O105 O 0.82953 0.85008 0.1662 0.0
O106 O 0.85698 0.83481 0.17724 0.0
O107 O 0.84445 0.82205 0.19055 0.0
H108 H 0.79308 0.84327 0.1568 0.0
H109 H 0.78467 0.83016 0.13744 0.0
H110 H 0.82391 0.81256 0.13314 0.0
H111 H 0.83234 0.82562 0.15263 0.0
H112 H 0.80197 0.88797 0.20407 0.0
H113 H 0.81501 0.8689 0.1956 0.0
H114 H 0.83454 0.89804 0.23155 0.0
H115 H 0.84753 0.87904 0.22314 0.0
H116 H 0.87897 0.79045 0.20705 0.0
H117 H 0.90052 0.82773 0.19845 0.0
H118 H 0.88036 0.83672 0.1884 0.0
H119 H 0.85896 0.79952 0.19684 0.0
C120 C 0.15778 0.81434 0.1922 0.0
C121 C 0.15204 0.80137 0.19113 0.0
C122 C 0.13502 0.80688 0.20765 0.0
C123 C 0.14075 0.79766 0.19881 0.0
C124 C 0.14069 0.81991 0.20868 0.0
C125 C 0.15203 0.82361 0.20103 0.0
U126 U 0.18892 0.83666 0.18488 0.0
O127 O 0.20948 0.83081 0.17923 0.0
O128 O 0.1975 0.84337 0.16547 0.0
C129 C 0.20865 0.83654 0.16725 0.0
C130 C 0.16987 0.81788 0.18425 0.0
C131 C 0.2129 0.82823 0.15583 0.0
C132 C 0.20809 0.8121 0.13797 0.0
C133 C 0.20371 0.81983 0.14883 0.0
C134 C 0.23087 0.82098 0.14111 0.0
C135 C 0.22171 0.81264 0.13406 0.0
C136 C 0.22649 0.82873 0.15189 0.0
C137 C 0.19687 0.86701 0.2076 0.0
C138 C 0.20299 0.88358 0.22461 0.0
C139 C 0.21485 0.8835 0.20328 0.0
C140 C 0.20685 0.8725 0.19905 0.0
C141 C 0.21298 0.88907 0.21611 0.0
C142 C 0.19499 0.87264 0.22037 0.0
C143 C 0.18846 0.85532 0.20352 0.0
O144 O 0.16931 0.82911 0.17716 0.0
O145 O 0.18149 0.81638 0.19057 0.0
O146 O 0.19394 0.84349 0.20543 0.0
O147 O 0.18216 0.8564 0.19184 0.0
H148 H 0.15636 0.79408 0.18441 0.0
H149 H 0.13653 0.78756 0.19794 0.0
H150 H 0.13642 0.82712 0.21552 0.0
H151 H 0.15637 0.83365 0.20204 0.0
H152 H 0.20091 0.80567 0.13265 0.0
H153 H 0.19319 0.81926 0.15176 0.0
H154 H 0.24141 0.82149 0.13824 0.0
H155 H 0.23373 0.83512 0.15718 0.0
H156 H 0.20147 0.88773 0.23455 0.0
H157 H 0.22256 0.88758 0.19663 0.0
H158 H 0.20849 0.86824 0.18918 0.0
H159 H 0.18737 0.86851 0.22711 0.0
C160 C 0.15939 0.81019 0.83665 0.0
C161 C 0.15315 0.81952 0.82799 0.0
C162 C 0.13711 0.80223 0.82056 0.0
C163 C 0.14204 0.81557 0.82002 0.0
C164 C 0.14335 0.79292 0.82922 0.0
C165 C 0.1544 0.79689 0.83723 0.0
U166 U 0.18954 0.83352 0.84483 0.0
O167 O 0.19758 0.84025 0.86446 0.0
O168 O 0.21024 0.82842 0.85108 0.0
C169 C 0.20901 0.83388 0.86304 0.0
C170 C 0.17124 0.81402 0.84495 0.0
C171 C 0.2132 0.82542 0.87455 0.0
C172 C 0.20921 0.80676 0.89018 0.0
C173 C 0.2049 0.81482 0.87934 0.0
C174 C 0.23011 0.81982 0.89153 0.0
C175 C 0.22186 0.8092 0.8963 0.0
C176 C 0.22579 0.82788 0.88073 0.0
C177 C 0.19668 0.86448 0.82242 0.0
C178 C 0.21725 0.87817 0.8241 0.0
C179 C 0.19954 0.88448 0.80833 0.0
C180 C 0.19175 0.87333 0.8125 0.0
C181 C 0.21238 0.88691 0.81402 0.0
C182 C 0.20943 0.86702 0.82829 0.0
C183 C 0.18857 0.85248 0.82618 0.0
O184 O 0.18299 0.81307 0.83898 0.0
O185 O 0.17016 0.82509 0.85202 0.0
O186 O 0.1821 0.85314 0.83769 0.0
O187 O 0.19446 0.84087 0.82442 0.0
H188 H 0.15693 0.82982 0.82734 0.0
H189 H 0.13737 0.82285 0.81333 0.0
H190 H 0.13969 0.78258 0.82972 0.0
H191 H 0.15911 0.78954 0.84381 0.0
H192 H 0.20276 0.79856 0.89372 0.0
H193 H 0.19516 0.81275 0.87466 0.0
H194 H 0.23991 0.82181 0.89611 0.0
H195 H 0.23233 0.836 0.87714 0.0
H196 H 0.22715 0.8799 0.82857 0.0
H197 H 0.19566 0.8911 0.80052 0.0
H198 H 0.18194 0.87152 0.80786 0.0
H199 H 0.21339 0.86028 0.83597 0.0
C200 C 0.15748 0.18743 0.81995 0.0
C201 C 0.1587 0.19642 0.80902 0.0
C202 C 0.13401 0.19836 0.80718 0.0
C203 C 0.14725 0.20211 0.80306 0.0
C204 C 0.13313 0.19078 0.81936 0.0
C205 C 0.14458 0.18506 0.82535 0.0
U206 U 0.18798 0.18072 0.84405 0.0
O207 O 0.19537 0.16126 0.85171 0.0
O208 O 0.20836 0.17403 0.83889 0.0
C209 C 0.20677 0.16232 0.84501 0.0
C210 C 0.16942 0.17989 0.8249 0.0
C211 C 0.21046 0.15046 0.8371 0.0
C212 C 0.22406 0.13045 0.83484 0.0
C213 C 0.22 0.14151 0.84237 0.0
C214 C 0.20893 0.13705 0.81668 0.0
C215 C 0.21863 0.12821 0.8219 0.0
C216 C 0.20484 0.1481 0.82425 0.0
C217 C 0.1964 0.20417 0.87368 0.0
C218 C 0.19954 0.21832 0.89341 0.0
C219 C 0.21747 0.20361 0.8865 0.0
C220 C 0.20939 0.19902 0.87574 0.0
C221 C 0.21262 0.21337 0.89534 0.0
C222 C 0.19149 0.21375 0.88265 0.0
C223 C 0.18798 0.20002 0.86204 0.0
O224 O 0.18134 0.18577 0.82338 0.0
O225 O 0.16825 0.17334 0.83644 0.0
O226 O 0.1811 0.18866 0.86349 0.0
O227 O 0.19373 0.20127 0.85017 0.0
H228 H 0.16854 0.19895 0.80489 0.0
H229 H 0.14905 0.20952 0.79522 0.0
H230 H 0.12373 0.18921 0.8246 0.0
H231 H 0.14325 0.17866 0.83417 0.0
H232 H 0.23158 0.12375 0.839 0.0
H233 H 0.22443 0.14316 0.85227 0.0
H234 H 0.20466 0.13547 0.80671 0.0
H235 H 0.19744 0.1549 0.82002 0.0
H236 H 0.19565 0.22587 0.90012 0.0
H237 H 0.22755 0.19971 0.88784 0.0
H238 H 0.21334 0.1916 0.86893 0.0
H239 H 0.1815 0.21784 0.88122 0.0
C240 C 0.81597 0.1534 0.83776 0.0
C241 C 0.82441 0.14878 0.82751 0.0
C242 C 0.80773 0.13145 0.82168 0.0
C243 C 0.82031 0.13785 0.81952 0.0
C244 C 0.79937 0.13601 0.832 0.0
C245 C 0.80347 0.14691 0.83999 0.0
U246 U 0.83935 0.1835 0.84565 0.0
O247 O 0.83417 0.20411 0.85152 0.0
O248 O 0.84626 0.19154 0.86519 0.0
C249 C 0.83972 0.20287 0.86356 0.0
C250 C 0.81984 0.16517 0.84594 0.0
C251 C 0.83128 0.207 0.87495 0.0
C252 C 0.82356 0.22477 0.88959 0.0
C253 C 0.83155 0.22054 0.8789 0.0
C254 C 0.81494 0.20195 0.89262 0.0
C255 C 0.81522 0.21551 0.89652 0.0
C256 C 0.8229 0.19772 0.88185 0.0
C257 C 0.87022 0.19031 0.82294 0.0
C258 C 0.88426 0.21068 0.82344 0.0
C259 C 0.89 0.19236 0.80863 0.0
C260 C 0.87883 0.18491 0.81329 0.0
C261 C 0.89272 0.20534 0.81357 0.0
C262 C 0.87305 0.2032 0.8281 0.0
C263 C 0.85814 0.18249 0.82708 0.0
O264 O 0.83105 0.1641 0.85306 0.0
O265 O 0.8188 0.17689 0.8398 0.0
O266 O 0.84651 0.18844 0.82521 0.0
O267 O 0.85899 0.17613 0.83875 0.0
H268 H 0.83407 0.15372 0.82561 0.0
H269 H 0.82685 0.13448 0.81155 0.0
H270 H 0.78961 0.13121 0.83376 0.0
H271 H 0.79682 0.15036 0.84782 0.0
H272 H 0.82385 0.23528 0.89246 0.0
H273 H 0.83791 0.22785 0.87367 0.0
H274 H 0.80851 0.19469 0.89783 0.0
H275 H 0.82248 0.18724 0.8789 0.0
H276 H 0.88622 0.22069 0.82734 0.0
H277 H 0.89641 0.1881 0.80101 0.0
H278 H 0.87679 0.17499 0.80919 0.0
H279 H 0.86651 0.20752 0.83558 0.0
C280 C 0.83617 0.86938 0.81784 0.0
C281 C 0.83801 0.87489 0.80488 0.0
C282 C 0.82089 0.89156 0.80914 0.0
C283 C 0.83042 0.8859 0.80055 0.0
C284 C 0.8191 0.88612 0.82216 0.0
C285 C 0.82667 0.87507 0.82648 0.0
U286 U 0.84285 0.8393 0.84137 0.0
O287 O 0.84874 0.81866 0.83638 0.0
O288 O 0.86209 0.83128 0.84897 0.0
C289 C 0.8605 0.81982 0.84255 0.0
C290 C 0.84403 0.85756 0.82201 0.0
C291 C 0.87225 0.81519 0.83493 0.0
C292 C 0.88986 0.81865 0.81817 0.0
C293 C 0.87872 0.82343 0.82526 0.0
C294 C 0.8881 0.79741 0.83033 0.0
C295 C 0.8946 0.8056 0.82067 0.0
C296 C 0.87702 0.80218 0.83741 0.0
C297 C 0.81937 0.83204 0.87129 0.0
C298 C 0.82006 0.81139 0.88467 0.0
C299 C 0.80494 0.82921 0.89091 0.0
C300 C 0.80956 0.83701 0.87999 0.0
C301 C 0.81009 0.81632 0.89326 0.0
C302 C 0.82469 0.81922 0.87375 0.0
C303 C 0.82365 0.84019 0.85953 0.0
O304 O 0.85075 0.85865 0.83347 0.0
O305 O 0.83779 0.84585 0.82067 0.0
O306 O 0.82209 0.83437 0.84774 0.0
O307 O 0.83528 0.84667 0.86078 0.0
H308 H 0.84525 0.87061 0.79806 0.0
H309 H 0.83189 0.88994 0.79046 0.0
H310 H 0.81174 0.89034 0.82889 0.0
H311 H 0.82506 0.8709 0.8365 0.0
H312 H 0.89473 0.82508 0.81069 0.0
H313 H 0.87514 0.83349 0.82318 0.0
H314 H 0.89158 0.78731 0.83234 0.0
H315 H 0.87214 0.79568 0.84482 0.0
H316 H 0.82411 0.80145 0.88634 0.0
H317 H 0.79723 0.83315 0.89742 0.0
H318 H 0.80534 0.84688 0.87823 0.0
H319 H 0.83229 0.81522 0.86715 0.0
C320 C 0.193 0.65181 0.70798 0.0
C321 C 0.20203 0.64613 0.69884 0.0
C322 C 0.20871 0.62965 0.71584 0.0
C323 C 0.20981 0.63508 0.70274 0.0
C324 C 0.19967 0.63532 0.72494 0.0
C325 C 0.19186 0.64631 0.72102 0.0
U326 U 0.18574 0.68234 0.68532 0.0
O327 O 0.16636 0.69042 0.67818 0.0
O328 O 0.17978 0.70281 0.69092 0.0
C329 C 0.1679 0.70166 0.68499 0.0
C330 C 0.18494 0.66363 0.70424 0.0
C331 C 0.15627 0.70581 0.69308 0.0
C332 C 0.138 0.7009 0.70881 0.0
C333 C 0.14904 0.6966 0.70127 0.0
C334 C 0.14142 0.72361 0.70019 0.0
C335 C 0.13414 0.71445 0.70831 0.0
C336 C 0.15238 0.71932 0.69262 0.0
C337 C 0.2094 0.68999 0.65534 0.0
C338 C 0.22733 0.69611 0.63968 0.0
C339 C 0.20551 0.70671 0.63767 0.0
C340 C 0.20083 0.69914 0.64877 0.0
C341 C 0.2188 0.70523 0.63308 0.0
C342 C 0.22265 0.68854 0.65071 0.0
C343 C 0.20486 0.68189 0.66705 0.0
O344 O 0.19107 0.67536 0.7058 0.0
O345 O 0.17807 0.66276 0.69286 0.0
O346 O 0.1932 0.67546 0.66572 0.0
O347 O 0.20643 0.68761 0.67888 0.0
H348 H 0.20311 0.65029 0.68875 0.0
H349 H 0.2168 0.63085 0.69563 0.0
H350 H 0.19874 0.63128 0.73509 0.0
H351 H 0.18499 0.65059 0.72822 0.0
H352 H 0.13252 0.69371 0.71508 0.0
H353 H 0.15193 0.68614 0.70182 0.0
H354 H 0.13859 0.7341 0.69972 0.0
H355 H 0.15785 0.72657 0.6864 0.0
H356 H 0.23762 0.69488 0.63631 0.0
H357 H 0.19883 0.71376 0.63272 0.0
H358 H 0.19058 0.70044 0.65224 0.0
H359 H 0.2294 0.68155 0.65567 0.0
C360 C 0.81888 0.69271 0.65716 0.0
C361 C 0.82517 0.70527 0.65468 0.0
C362 C 0.81041 0.70882 0.63527 0.0
C363 C 0.82094 0.71329 0.64379 0.0
C364 C 0.80427 0.69619 0.63765 0.0
C365 C 0.80848 0.68819 0.64854 0.0
U366 U 0.84206 0.68496 0.68726 0.0
O367 O 0.83691 0.67802 0.70775 0.0
O368 O 0.84932 0.66543 0.69485 0.0
C369 C 0.84271 0.66633 0.70626 0.0
C370 C 0.82282 0.68434 0.66883 0.0
C371 C 0.83442 0.65446 0.71009 0.0
C372 C 0.8136 0.64115 0.70856 0.0
C373 C 0.82158 0.65217 0.70432 0.0
C374 C 0.83132 0.63448 0.72415 0.0
C375 C 0.81839 0.6323 0.71857 0.0
C376 C 0.83928 0.6455 0.71993 0.0
C377 C 0.87221 0.70843 0.69513 0.0
C378 C 0.88815 0.70423 0.71344 0.0
C379 C 0.8895 0.7252 0.70075 0.0
C380 C 0.8785 0.721 0.69279 0.0
C381 C 0.89436 0.71687 0.71114 0.0
C382 C 0.87711 0.70004 0.70549 0.0
C383 C 0.86043 0.7044 0.68686 0.0
O384 O 0.83423 0.6779 0.66763 0.0
O385 O 0.82146 0.68995 0.6807 0.0
O386 O 0.84864 0.70549 0.69273 0.0
O387 O 0.86157 0.69314 0.68012 0.0
H388 H 0.83323 0.70891 0.66124 0.0
H389 H 0.82577 0.72303 0.64209 0.0
H390 H 0.79611 0.69261 0.63119 0.0
H391 H 0.80352 0.67852 0.65031 0.0
H392 H 0.80363 0.63962 0.70418 0.0
H393 H 0.81768 0.65899 0.6967 0.0
H394 H 0.83516 0.62776 0.7319 0.0
H395 H 0.84916 0.64712 0.72448 0.0
H396 H 0.89176 0.69772 0.72147 0.0
H397 H 0.89415 0.73499 0.69888 0.0
H398 H 0.87482 0.72761 0.68486 0.0
H399 H 0.87234 0.69032 0.70747 0.0
C400 C 0.82097 0.33401 0.65741 0.0
C401 C 0.82643 0.32138 0.65457 0.0
C402 C 0.8116 0.31923 0.63495 0.0
C403 C 0.82177 0.31403 0.6434 0.0
C404 C 0.80635 0.33195 0.63767 0.0
C405 C 0.811 0.33927 0.64883 0.0
U406 U 0.84404 0.33999 0.68823 0.0
O407 O 0.85197 0.35903 0.69664 0.0
O408 O 0.83866 0.34597 0.70883 0.0
C409 C 0.84513 0.35761 0.7079 0.0
C410 C 0.8252 0.34166 0.66945 0.0
C411 C 0.83752 0.36941 0.71224 0.0
C412 C 0.82061 0.38656 0.70831 0.0
C413 C 0.82785 0.37547 0.70379 0.0
C414 C 0.8326 0.38559 0.72972 0.0
C415 C 0.82293 0.39166 0.72133 0.0
C416 C 0.83985 0.37457 0.7252 0.0
C417 C 0.87307 0.31562 0.69566 0.0
C418 C 0.89014 0.31878 0.71324 0.0
C419 C 0.88876 0.29775 0.70102 0.0
C420 C 0.87792 0.30265 0.69342 0.0
C421 C 0.89495 0.30577 0.71097 0.0
C422 C 0.87923 0.32368 0.70563 0.0
C423 C 0.86156 0.32041 0.68753 0.0
O424 O 0.82337 0.33546 0.68109 0.0
O425 O 0.83693 0.34803 0.66867 0.0
O426 O 0.86335 0.33201 0.68123 0.0
O427 O 0.84964 0.31915 0.6932 0.0
H428 H 0.83414 0.31717 0.66109 0.0
H429 H 0.82592 0.30423 0.64144 0.0
H430 H 0.7985 0.33609 0.63128 0.0
H431 H 0.80667 0.34899 0.65087 0.0
H432 H 0.81312 0.39108 0.70174 0.0
H433 H 0.82588 0.37158 0.69376 0.0
H434 H 0.83448 0.38936 0.73981 0.0
H435 H 0.84723 0.37 0.73186 0.0
H436 H 0.89477 0.32508 0.72093 0.0
H437 H 0.89232 0.28768 0.69918 0.0
H438 H 0.87327 0.29628 0.68579 0.0
H439 H 0.87559 0.33371 0.70753 0.0
C440 C 0.15674 0.31047 0.69474 0.0
C441 C 0.15119 0.31946 0.70398 0.0
C442 C 0.13492 0.30223 0.71114 0.0
C443 C 0.14031 0.31537 0.71211 0.0
C444 C 0.14045 0.29328 0.70188 0.0
C445 C 0.15127 0.29738 0.69373 0.0
U446 U 0.18659 0.33405 0.68671 0.0
O447 O 0.20729 0.32932 0.68054 0.0
O448 O 0.19439 0.34138 0.66718 0.0
C449 C 0.20593 0.33514 0.66865 0.0
C450 C 0.16841 0.31444 0.68637 0.0
C451 C 0.21035 0.32721 0.65705 0.0
C452 C 0.20656 0.30975 0.64027 0.0
C453 C 0.20197 0.31724 0.65121 0.0
C454 C 0.22792 0.32209 0.64096 0.0
C455 C 0.21958 0.31213 0.63511 0.0
C456 C 0.22333 0.32958 0.65184 0.0
C457 C 0.19334 0.36436 0.70995 0.0
C458 C 0.21042 0.38187 0.70602 0.0
C459 C 0.19852 0.38082 0.72732 0.0
C460 C 0.19113 0.36958 0.72284 0.0
C461 C 0.20821 0.38703 0.71897 0.0
C462 C 0.20303 0.37056 0.70154 0.0
C463 C 0.18555 0.35235 0.70567 0.0
O464 O 0.16717 0.32566 0.67936 0.0
O465 O 0.18027 0.31338 0.69229 0.0
O466 O 0.19168 0.34081 0.70726 0.0
O467 O 0.17904 0.35333 0.69409 0.0
H468 H 0.15533 0.32958 0.70497 0.0
H469 H 0.13619 0.32237 0.71925 0.0
H470 H 0.13644 0.28309 0.70105 0.0
H471 H 0.15546 0.2903 0.6867 0.0
H472 H 0.20003 0.30205 0.6359 0.0
H473 H 0.19194 0.31524 0.65515 0.0
H474 H 0.23801 0.324 0.63714 0.0
H475 H 0.22994 0.33719 0.65624 0.0
H476 H 0.21792 0.38651 0.69948 0.0
H477 H 0.19674 0.38465 0.73735 0.0
H478 H 0.18372 0.36491 0.72947 0.0
H479 H 0.20491 0.36662 0.69158 0.0
C480 C 0.15549 0.30903 0.33581 0.0
C481 C 0.15426 0.31359 0.32239 0.0
C482 C 0.1338 0.29993 0.31952 0.0
C483 C 0.14349 0.30902 0.31428 0.0
C484 C 0.1349 0.29558 0.33299 0.0
C485 C 0.1457 0.30009 0.34108 0.0
U486 U 0.18499 0.33306 0.34443 0.0
O487 O 0.19235 0.34002 0.36427 0.0
O488 O 0.20563 0.32852 0.35121 0.0
C489 C 0.20395 0.33389 0.36314 0.0
C490 C 0.16705 0.31322 0.34434 0.0
C491 C 0.20793 0.32543 0.37473 0.0
C492 C 0.22208 0.32217 0.39462 0.0
C493 C 0.21775 0.33026 0.38385 0.0
C494 C 0.20666 0.30435 0.38739 0.0
C495 C 0.21664 0.30914 0.3964 0.0
C496 C 0.20232 0.31247 0.37662 0.0
C497 C 0.19193 0.36403 0.32192 0.0
C498 C 0.21219 0.37815 0.32374 0.0
C499 C 0.19439 0.38417 0.30796 0.0
C500 C 0.18683 0.37283 0.31204 0.0
C501 C 0.20715 0.38685 0.3137 0.0
C502 C 0.20461 0.36681 0.32784 0.0
C503 C 0.18403 0.35187 0.32562 0.0
O504 O 0.17901 0.31245 0.33873 0.0
O505 O 0.16551 0.32435 0.3512 0.0
O506 O 0.17729 0.35246 0.33698 0.0
O507 O 0.19023 0.34038 0.32409 0.0
H508 H 0.1617 0.32053 0.31816 0.0
H509 H 0.14278 0.31247 0.3039 0.0
H510 H 0.12752 0.28855 0.33717 0.0
H511 H 0.14648 0.29648 0.3514 0.0
H512 H 0.2298 0.326 0.40147 0.0
H513 H 0.22219 0.34024 0.38254 0.0
H514 H 0.20239 0.2943 0.38862 0.0
H515 H 0.19471 0.30858 0.36968 0.0
H516 H 0.22204 0.38007 0.32825 0.0
H517 H 0.19037 0.39076 0.30019 0.0
H518 H 0.17707 0.37084 0.30737 0.0
H519 H 0.20869 0.36012 0.33549 0.0
C520 C 0.15077 0.6915 0.31709 0.0
C521 C 0.1404 0.68569 0.3092 0.0
C522 C 0.1291 0.70721 0.30778 0.0
C523 C 0.12963 0.69349 0.30459 0.0
C524 C 0.13937 0.71299 0.31584 0.0
C525 C 0.15012 0.70517 0.32051 0.0
U526 U 0.18109 0.68417 0.34023 0.0
O527 O 0.18843 0.66483 0.34817 0.0
O528 O 0.20141 0.67727 0.33503 0.0
C529 C 0.1998 0.6657 0.3414 0.0
C530 C 0.16234 0.68324 0.3213 0.0
C531 C 0.20348 0.65369 0.33371 0.0
C532 C 0.19839 0.63648 0.31698 0.0
C533 C 0.19449 0.64774 0.32436 0.0
C534 C 0.22026 0.63705 0.32819 0.0
C535 C 0.21133 0.63112 0.31882 0.0
C536 C 0.21635 0.64825 0.33559 0.0
C537 C 0.18943 0.70854 0.36934 0.0
C538 C 0.20677 0.70502 0.38652 0.0
C539 C 0.19519 0.7263 0.38522 0.0
C540 C 0.18753 0.72156 0.37427 0.0
C541 C 0.20485 0.71808 0.39143 0.0
C542 C 0.19911 0.70027 0.37551 0.0
C543 C 0.18123 0.70392 0.35774 0.0
O544 O 0.17436 0.68881 0.31954 0.0
O545 O 0.16114 0.67695 0.33297 0.0
O546 O 0.17436 0.69259 0.35947 0.0
O547 O 0.1871 0.70483 0.34591 0.0
H548 H 0.14073 0.67516 0.30647 0.0
H549 H 0.12181 0.68888 0.29836 0.0
H550 H 0.13911 0.72357 0.31838 0.0
H551 H 0.158 0.70983 0.32662 0.0
H552 H 0.19141 0.63205 0.30973 0.0
H553 H 0.18454 0.65185 0.32272 0.0
H554 H 0.23028 0.63307 0.3297 0.0
H555 H 0.22342 0.65273 0.34272 0.0
H556 H 0.21424 0.69857 0.39116 0.0
H557 H 0.19361 0.73641 0.38884 0.0
H558 H 0.18013 0.72809 0.36963 0.0
H559 H 0.20074 0.6902 0.37181 0.0
C560 C 0.82018 0.65508 0.33626 0.0
C561 C 0.82857 0.6507 0.32585 0.0
C562 C 0.81238 0.63276 0.32049 0.0
C563 C 0.82469 0.63957 0.31802 0.0
C564 C 0.80408 0.63709 0.33096 0.0
C565 C 0.80797 0.64817 0.3388 0.0
U566 U 0.84235 0.6863 0.34345 0.0
O567 O 0.83632 0.70659 0.34956 0.0
O568 O 0.84942 0.69464 0.36281 0.0
C569 C 0.84233 0.70564 0.3614 0.0
C570 C 0.82379 0.66703 0.34431 0.0
C571 C 0.83411 0.70941 0.37307 0.0
C572 C 0.81807 0.70382 0.39086 0.0
C573 C 0.82582 0.69992 0.37982 0.0
C574 C 0.82672 0.7267 0.38845 0.0
C575 C 0.81846 0.71725 0.39521 0.0
C576 C 0.8345 0.7228 0.37747 0.0
C577 C 0.87212 0.69508 0.32012 0.0
C578 C 0.89219 0.6983 0.30637 0.0
C579 C 0.88414 0.71667 0.31993 0.0
C580 C 0.87353 0.70841 0.32465 0.0
C581 C 0.89347 0.71169 0.31067 0.0
C582 C 0.88158 0.69006 0.31106 0.0
C583 C 0.86066 0.68641 0.32437 0.0
O584 O 0.83528 0.6665 0.35104 0.0
O585 O 0.82197 0.67867 0.33822 0.0
O586 O 0.84862 0.69162 0.32282 0.0
O587 O 0.86216 0.68001 0.33594 0.0
H588 H 0.83801 0.65596 0.32372 0.0
H589 H 0.83117 0.63639 0.30994 0.0
H590 H 0.79453 0.63197 0.33296 0.0
H591 H 0.80136 0.65145 0.34675 0.0
H592 H 0.8117 0.69642 0.39594 0.0
H593 H 0.82533 0.68955 0.37653 0.0
H594 H 0.82709 0.73711 0.39165 0.0
H595 H 0.8408 0.73026 0.37237 0.0
H596 H 0.89928 0.69431 0.29922 0.0
H597 H 0.88498 0.72699 0.32332 0.0
H598 H 0.86634 0.71245 0.33167 0.0
H599 H 0.88065 0.67981 0.30747 0.0
C600 C 0.84113 0.36915 0.31846 0.0
C601 C 0.8277 0.37063 0.32262 0.0
C602 C 0.82619 0.39154 0.30973 0.0
C603 C 0.82026 0.38175 0.31824 0.0
C604 C 0.83968 0.39017 0.30578 0.0
C605 C 0.84709 0.37904 0.31011 0.0
U606 U 0.84773 0.33866 0.34149 0.0
O607 O 0.85354 0.3181 0.33625 0.0
O608 O 0.86703 0.33051 0.34889 0.0
C609 C 0.86536 0.31915 0.34232 0.0
C610 C 0.84897 0.35724 0.32244 0.0
C611 C 0.87701 0.31467 0.33446 0.0
C612 C 0.89073 0.31524 0.31416 0.0
C613 C 0.88 0.32023 0.32171 0.0
C614 C 0.89569 0.29931 0.33214 0.0
C615 C 0.89855 0.30465 0.31929 0.0
C616 C 0.885 0.30428 0.33966 0.0
C617 C 0.8242 0.33126 0.37141 0.0
C618 C 0.8276 0.31293 0.38748 0.0
C619 C 0.8073 0.32619 0.38849 0.0
C620 C 0.81181 0.33396 0.37752 0.0
C621 C 0.81515 0.3156 0.39352 0.0
C622 C 0.83211 0.3207 0.37646 0.0
C623 C 0.82855 0.33942 0.35968 0.0
O624 O 0.85569 0.35816 0.3339 0.0
O625 O 0.84275 0.34553 0.32092 0.0
O626 O 0.82696 0.33366 0.34787 0.0
O627 O 0.84023 0.34583 0.36097 0.0
H628 H 0.82293 0.36313 0.3291 0.0
H629 H 0.80985 0.38265 0.32136 0.0
H630 H 0.84439 0.39762 0.29919 0.0
H631 H 0.85744 0.37807 0.30681 0.0
H632 H 0.89279 0.31946 0.30426 0.0
H633 H 0.87394 0.32826 0.31754 0.0
H634 H 0.9016 0.29113 0.33623 0.0
H635 H 0.88283 0.29987 0.34946 0.0
H636 H 0.83375 0.30475 0.3912 0.0
H637 H 0.79765 0.32835 0.39301 0.0
H638 H 0.80557 0.34204 0.37373 0.0
H639 H 0.84168 0.31844 0.37183 0.0
C640 C 0.69491 0.15337 0.70844 0.0
C641 C 0.70782 0.15139 0.70308 0.0
C642 C 0.71044 0.1314 0.71719 0.0
C643 C 0.71555 0.14047 0.70745 0.0
C644 C 0.69745 0.13326 0.72236 0.0
C645 C 0.68974 0.14418 0.71801 0.0
U646 U 0.68766 0.18392 0.68565 0.0
O647 O 0.66823 0.1918 0.67843 0.0
O648 O 0.68146 0.20431 0.69125 0.0
C649 C 0.66961 0.20304 0.68526 0.0
C650 C 0.68687 0.16516 0.70454 0.0
C651 C 0.65789 0.20699 0.69333 0.0
C652 C 0.63985 0.20176 0.70921 0.0
C653 C 0.65096 0.19769 0.70165 0.0
C654 C 0.64258 0.22446 0.70032 0.0
C655 C 0.63562 0.21518 0.7086 0.0
C656 C 0.65362 0.22038 0.69273 0.0
C657 C 0.71089 0.19206 0.65565 0.0
C658 C 0.70971 0.21269 0.64228 0.0
C659 C 0.72531 0.19528 0.63608 0.0
C660 C 0.72087 0.18735 0.64698 0.0
C661 C 0.71983 0.20803 0.63371 0.0
C662 C 0.70525 0.20474 0.65319 0.0
C663 C 0.70674 0.18372 0.66732 0.0
O664 O 0.69292 0.17693 0.70612 0.0
O665 O 0.68014 0.1642 0.69308 0.0
O666 O 0.69518 0.17711 0.66602 0.0
O667 O 0.70828 0.18936 0.6792 0.0
H668 H 0.71197 0.15838 0.69567 0.0
H669 H 0.72557 0.13918 0.70338 0.0
H670 H 0.69337 0.12638 0.7299 0.0
H671 H 0.67981 0.14556 0.72226 0.0
H672 H 0.63462 0.1945 0.71561 0.0
H673 H 0.65415 0.18732 0.70231 0.0
H674 H 0.63947 0.23486 0.69977 0.0
H675 H 0.65886 0.2277 0.68639 0.0
H676 H 0.70539 0.22251 0.6406 0.0
H677 H 0.73314 0.19154 0.62958 0.0
H678 H 0.72532 0.1776 0.64872 0.0
H679 H 0.69752 0.20852 0.65978 0.0
C680 C 0.31653 0.18553 0.65855 0.0
C681 C 0.32468 0.19597 0.65319 0.0
C682 C 0.30746 0.20073 0.63624 0.0
C683 C 0.32017 0.20351 0.64208 0.0
C684 C 0.29937 0.19024 0.64155 0.0
C685 C 0.30389 0.18268 0.65263 0.0
U686 U 0.34064 0.17978 0.6883 0.0
O687 O 0.33617 0.17386 0.70928 0.0
O688 O 0.34863 0.16094 0.69678 0.0
C689 C 0.34224 0.16226 0.70827 0.0
C690 C 0.3209 0.17778 0.67049 0.0
C691 C 0.3343 0.15042 0.71284 0.0
C692 C 0.32937 0.13367 0.73023 0.0
C693 C 0.33708 0.14466 0.72551 0.0
C694 C 0.31608 0.13398 0.70957 0.0
C695 C 0.3188 0.12829 0.72231 0.0
C696 C 0.32378 0.145 0.70486 0.0
C697 C 0.37034 0.2048 0.69362 0.0
C698 C 0.38765 0.20252 0.71103 0.0
C699 C 0.38675 0.22288 0.69739 0.0
C700 C 0.37559 0.21761 0.69036 0.0
C701 C 0.39284 0.21539 0.70778 0.0
C702 C 0.37643 0.19724 0.70399 0.0
C703 C 0.35839 0.19968 0.6862 0.0
O704 O 0.33241 0.17149 0.66935 0.0
O705 O 0.31972 0.18396 0.68208 0.0
O706 O 0.3468 0.20076 0.69244 0.0
O707 O 0.35972 0.18805 0.68016 0.0
H708 H 0.33445 0.19834 0.65769 0.0
H709 H 0.3265 0.21162 0.63813 0.0
H710 H 0.28952 0.188 0.63719 0.0
H711 H 0.29746 0.17469 0.65667 0.0
H712 H 0.33156 0.12942 0.74011 0.0
H713 H 0.34513 0.14874 0.73182 0.0
H714 H 0.30791 0.12998 0.70336 0.0
H715 H 0.32146 0.14937 0.69507 0.0
H716 H 0.39221 0.19664 0.71907 0.0
H717 H 0.39061 0.23285 0.6948 0.0
H718 H 0.37099 0.22359 0.68241 0.0
H719 H 0.37246 0.18735 0.70668 0.0
C720 C 0.31683 0.83268 0.65533 0.0
C721 C 0.32092 0.81933 0.65359 0.0
C722 C 0.30756 0.81777 0.63291 0.0
C723 C 0.31628 0.81191 0.64246 0.0
C724 C 0.30365 0.83117 0.63454 0.0
C725 C 0.30825 0.83856 0.64569 0.0
U726 U 0.34044 0.83896 0.68557 0.0
O727 O 0.34861 0.85806 0.69368 0.0
O728 O 0.3357 0.84499 0.70628 0.0
C729 C 0.34212 0.85664 0.70515 0.0
C730 C 0.32117 0.8405 0.66723 0.0
C731 C 0.33467 0.86846 0.70972 0.0
C732 C 0.31466 0.88238 0.70956 0.0
C733 C 0.32182 0.87148 0.70449 0.0
C734 C 0.33322 0.88746 0.72491 0.0
C735 C 0.32028 0.89035 0.7199 0.0
C736 C 0.34035 0.87659 0.71985 0.0
C737 C 0.36969 0.81457 0.69215 0.0
C738 C 0.38713 0.8176 0.70939 0.0
C739 C 0.38567 0.79678 0.69681 0.0
C740 C 0.37461 0.8017 0.68955 0.0
C741 C 0.39201 0.80468 0.70677 0.0
C742 C 0.376 0.82252 0.70212 0.0
C743 C 0.35794 0.81938 0.68438 0.0
O744 O 0.3196 0.83441 0.67897 0.0
O745 O 0.33283 0.84695 0.66618 0.0
O746 O 0.35955 0.83098 0.67804 0.0
O747 O 0.3462 0.81813 0.69041 0.0
H748 H 0.32758 0.81462 0.6609 0.0
H749 H 0.31938 0.80158 0.64135 0.0
H750 H 0.29692 0.83583 0.62728 0.0
H751 H 0.305 0.84885 0.64686 0.0
H752 H 0.30467 0.88447 0.70559 0.0
H753 H 0.31727 0.86531 0.69665 0.0
H754 H 0.3377 0.8935 0.73289 0.0
H755 H 0.35024 0.87441 0.72401 0.0
H756 H 0.39187 0.82379 0.7171 0.0
H757 H 0.38928 0.78679 0.6947 0.0
H758 H 0.36985 0.79543 0.68191 0.0
H759 H 0.37231 0.83247 0.7043 0.0
C760 C 0.65574 0.81657 0.69283 0.0
C761 C 0.64681 0.80668 0.68776 0.0
C762 C 0.63366 0.80735 0.70836 0.0
C763 C 0.63583 0.8021 0.69547 0.0
C764 C 0.64248 0.81738 0.71338 0.0
C765 C 0.65345 0.82199 0.70565 0.0
U766 U 0.68588 0.84028 0.68598 0.0
O767 O 0.70657 0.83566 0.67978 0.0
O768 O 0.69382 0.84817 0.66669 0.0
C769 C 0.70531 0.84183 0.66805 0.0
C770 C 0.66754 0.82085 0.68479 0.0
C771 C 0.70972 0.83421 0.65624 0.0
C772 C 0.70881 0.81425 0.64215 0.0
C773 C 0.70399 0.82156 0.65311 0.0
C774 C 0.72493 0.83227 0.63724 0.0
C775 C 0.7194 0.81953 0.63422 0.0
C776 C 0.72013 0.83955 0.64817 0.0
C777 C 0.69282 0.86994 0.70995 0.0
C778 C 0.71393 0.88282 0.71135 0.0
C779 C 0.6943 0.89013 0.72362 0.0
C780 C 0.6868 0.8792 0.71855 0.0
C781 C 0.70794 0.89193 0.72017 0.0
C782 C 0.7064 0.87189 0.70624 0.0
C783 C 0.68488 0.85811 0.7054 0.0
O784 O 0.6664 0.83235 0.67824 0.0
O785 O 0.67934 0.81953 0.69078 0.0
O786 O 0.69081 0.84642 0.70673 0.0
O787 O 0.67842 0.85946 0.69383 0.0
H788 H 0.64842 0.80239 0.67789 0.0
H789 H 0.62914 0.79434 0.69147 0.0
H790 H 0.64095 0.82151 0.72333 0.0
H791 H 0.66024 0.82964 0.70972 0.0
H792 H 0.70444 0.80443 0.63996 0.0
H793 H 0.69594 0.81729 0.65924 0.0
H794 H 0.73311 0.83648 0.63124 0.0
H795 H 0.72466 0.84929 0.65044 0.0
H796 H 0.72446 0.88407 0.70861 0.0
H797 H 0.68954 0.89705 0.73044 0.0
H798 H 0.67634 0.87785 0.72152 0.0
H799 H 0.71121 0.86486 0.69958 0.0
C800 C 0.6571 0.81359 0.33627 0.0
C801 C 0.6519 0.82151 0.32569 0.0
C802 C 0.63534 0.80388 0.32045 0.0
C803 C 0.64105 0.81668 0.31783 0.0
C804 C 0.64049 0.79603 0.33109 0.0
C805 C 0.6513 0.80087 0.33895 0.0
U806 U 0.68636 0.83838 0.34336 0.0
O807 O 0.69419 0.84612 0.3627 0.0
O808 O 0.70726 0.83428 0.34973 0.0
C809 C 0.70584 0.84008 0.36149 0.0
C810 C 0.66879 0.81824 0.34436 0.0
C811 C 0.71027 0.83211 0.37326 0.0
C812 C 0.70675 0.81388 0.38948 0.0
C813 C 0.70219 0.82155 0.37847 0.0
C814 C 0.72748 0.82726 0.39016 0.0
C815 C 0.71945 0.81666 0.39534 0.0
C816 C 0.72291 0.83494 0.3792 0.0
C817 C 0.69252 0.86865 0.31983 0.0
C818 C 0.71276 0.88287 0.32098 0.0
C819 C 0.69477 0.88834 0.30521 0.0
C820 C 0.68729 0.87712 0.30973 0.0
C821 C 0.7076 0.89122 0.31073 0.0
C822 C 0.70525 0.87165 0.32553 0.0
C823 C 0.68474 0.85657 0.324 0.0
O824 O 0.68056 0.8175 0.3384 0.0
O825 O 0.66726 0.82958 0.35089 0.0
O826 O 0.67824 0.85744 0.33547 0.0
O827 O 0.69098 0.84509 0.32267 0.0
H828 H 0.6563 0.83133 0.32345 0.0
H829 H 0.63722 0.82283 0.30962 0.0
H830 H 0.63622 0.78612 0.33319 0.0
H831 H 0.65522 0.79461 0.34704 0.0
H832 H 0.70047 0.80568 0.39332 0.0
H833 H 0.69242 0.81919 0.37396 0.0
H834 H 0.73732 0.8295 0.39454 0.0
H835 H 0.72928 0.84303 0.37527 0.0
H836 H 0.72265 0.88494 0.32532 0.0
H837 H 0.69067 0.89467 0.29727 0.0
H838 H 0.67748 0.87496 0.30523 0.0
H839 H 0.70944 0.86522 0.33334 0.0
C840 C 0.65524 0.19391 0.32005 0.0
C841 C 0.64968 0.20296 0.32922 0.0
C842 C 0.6334 0.21011 0.31217 0.0
C843 C 0.63879 0.21099 0.32531 0.0
C844 C 0.63896 0.20106 0.30304 0.0
C845 C 0.64979 0.193 0.30697 0.0
U846 U 0.68571 0.18525 0.34261 0.0
O847 O 0.69299 0.16547 0.34936 0.0
O848 O 0.7059 0.17851 0.33673 0.0
C849 C 0.70426 0.16662 0.34246 0.0
C850 C 0.66683 0.1855 0.32379 0.0
C851 C 0.70771 0.15501 0.33407 0.0
C852 C 0.7018 0.13797 0.3174 0.0
C853 C 0.69819 0.14897 0.32531 0.0
C854 C 0.72447 0.13902 0.32685 0.0
C855 C 0.71498 0.13296 0.31812 0.0
C856 C 0.72085 0.14995 0.33478 0.0
C857 C 0.69486 0.20754 0.37298 0.0
C858 C 0.71575 0.20571 0.38594 0.0
C859 C 0.69873 0.2215 0.39273 0.0
C860 C 0.6905 0.21742 0.38191 0.0
C861 C 0.71145 0.21576 0.39476 0.0
C862 C 0.7075 0.20161 0.37512 0.0
C863 C 0.68627 0.20388 0.36132 0.0
O864 O 0.6788 0.19123 0.32228 0.0
O865 O 0.66571 0.17856 0.33511 0.0
O866 O 0.67928 0.19255 0.36246 0.0
O867 O 0.69188 0.20547 0.34941 0.0
H868 H 0.6538 0.20385 0.33935 0.0
H869 H 0.63465 0.21799 0.33245 0.0
H870 H 0.63496 0.20029 0.29286 0.0
H871 H 0.65397 0.18612 0.29975 0.0
H872 H 0.69438 0.13344 0.31066 0.0
H873 H 0.68801 0.15278 0.32457 0.0
H874 H 0.73468 0.1353 0.32749 0.0
H875 H 0.72833 0.15449 0.34144 0.0
H876 H 0.72555 0.2012 0.38736 0.0
H877 H 0.69527 0.22928 0.39941 0.0
H878 H 0.68079 0.2221 0.38041 0.0
H879 H 0.71103 0.19396 0.36832 0.0
C880 C 0.3208 0.15077 0.33496 0.0
C881 C 0.31341 0.14 0.3407 0.0
C882 C 0.31232 0.1288 0.31899 0.0
C883 C 0.30922 0.12907 0.33278 0.0
C884 C 0.31992 0.13945 0.31327 0.0
C885 C 0.32417 0.15036 0.32121 0.0
U886 U 0.343 0.18179 0.34318 0.0
O887 O 0.33702 0.2019 0.34985 0.0
O888 O 0.34993 0.1895 0.36287 0.0
C889 C 0.34295 0.2006 0.3617 0.0
C890 C 0.32446 0.1625 0.34335 0.0
C891 C 0.33469 0.20412 0.37341 0.0
C892 C 0.32857 0.22056 0.39025 0.0
C893 C 0.33647 0.21684 0.37929 0.0
C894 C 0.31704 0.19882 0.38969 0.0
C895 C 0.31879 0.2116 0.3955 0.0
C896 C 0.32493 0.19511 0.37869 0.0
C897 C 0.37308 0.19117 0.32039 0.0
C898 C 0.39448 0.19388 0.30864 0.0
C899 C 0.38434 0.21313 0.31921 0.0
C900 C 0.37355 0.20492 0.32361 0.0
C901 C 0.39482 0.20767 0.31162 0.0
C902 C 0.38367 0.1857 0.31298 0.0
C903 C 0.36152 0.18244 0.32428 0.0
O904 O 0.3359 0.16173 0.35012 0.0
O905 O 0.32266 0.17437 0.33769 0.0
O906 O 0.34948 0.18768 0.32276 0.0
O907 O 0.36288 0.17567 0.33566 0.0
H908 H 0.31072 0.14014 0.35128 0.0
H909 H 0.30334 0.12094 0.33733 0.0
H910 H 0.32239 0.13939 0.30264 0.0
H911 H 0.32991 0.15854 0.31659 0.0
H912 H 0.33001 0.23047 0.39458 0.0
H913 H 0.34392 0.22393 0.37533 0.0
H914 H 0.30948 0.19182 0.3936 0.0
H915 H 0.32338 0.18526 0.37424 0.0
H916 H 0.40247 0.18952 0.30278 0.0
H917 H 0.38446 0.22376 0.32159 0.0
H918 H 0.36551 0.20934 0.32936 0.0
H919 H 0.38349 0.17511 0.31041 0.0
C920 C 0.33891 0.86665 0.3149 0.0
C921 C 0.34076 0.87132 0.30163 0.0
C922 C 0.3246 0.88907 0.30517 0.0
C923 C 0.33365 0.88243 0.29679 0.0
C924 C 0.32275 0.88445 0.31849 0.0
C925 C 0.32985 0.87327 0.32333 0.0
U926 U 0.34476 0.83702 0.33939 0.0
O927 O 0.35037 0.81618 0.33485 0.0
O928 O 0.36383 0.82887 0.34725 0.0
C929 C 0.36217 0.81736 0.34095 0.0
C930 C 0.3464 0.85478 0.3196 0.0
C931 C 0.37385 0.81268 0.33324 0.0
C932 C 0.39182 0.81644 0.3169 0.0
C933 C 0.38072 0.82118 0.32406 0.0
C934 C 0.3892 0.79467 0.32792 0.0
C935 C 0.39611 0.80314 0.3188 0.0
C936 C 0.37816 0.79941 0.3351 0.0
C937 C 0.32078 0.83115 0.36935 0.0
C938 C 0.32033 0.81094 0.38344 0.0
C939 C 0.30593 0.82963 0.38877 0.0
C940 C 0.31108 0.83685 0.3777 0.0
C941 C 0.31042 0.81658 0.39164 0.0
C942 C 0.32549 0.81818 0.37235 0.0
C943 C 0.32548 0.83873 0.35738 0.0
O944 O 0.35302 0.85606 0.33109 0.0
O945 O 0.33991 0.84317 0.31852 0.0
O946 O 0.32391 0.83256 0.34577 0.0
O947 O 0.33724 0.84499 0.35857 0.0
H948 H 0.34768 0.86632 0.29497 0.0
H949 H 0.33516 0.88583 0.28648 0.0
H950 H 0.31575 0.88943 0.32506 0.0
H951 H 0.32823 0.86977 0.33359 0.0
H952 H 0.39701 0.82309 0.30985 0.0
H953 H 0.37749 0.83145 0.32244 0.0
H954 H 0.39236 0.78437 0.32948 0.0
H955 H 0.37298 0.79271 0.34211 0.0
H956 H 0.32389 0.80087 0.38551 0.0
H957 H 0.29829 0.83413 0.39497 0.0
H958 H 0.30733 0.84684 0.37554 0.0
H959 H 0.333 0.81363 0.36602 0.0
C960 C 0.69739 0.65222 0.21048 0.0
C961 C 0.71015 0.6502 0.20478 0.0
C962 C 0.71329 0.63047 0.21914 0.0
C963 C 0.71806 0.6394 0.20911 0.0
C964 C 0.70045 0.63238 0.22467 0.0
C965 C 0.69256 0.64319 0.22036 0.0
U966 U 0.68995 0.68228 0.18729 0.0
O967 O 0.67051 0.68993 0.17979 0.0
O968 O 0.68364 0.70276 0.1924 0.0
C969 C 0.67186 0.70137 0.18631 0.0
C970 C 0.68917 0.66385 0.2065 0.0
C971 C 0.66006 0.70561 0.19409 0.0
C972 C 0.64286 0.70157 0.21117 0.0
C973 C 0.65401 0.69715 0.20385 0.0
C974 C 0.64379 0.72289 0.19908 0.0
C975 C 0.63771 0.71449 0.20883 0.0
C976 C 0.65487 0.71847 0.19176 0.0
C977 C 0.714 0.68952 0.15709 0.0
C978 C 0.7292 0.7063 0.14706 0.0
C979 C 0.71598 0.69175 0.13266 0.0
C980 C 0.71008 0.68565 0.14404 0.0
C981 C 0.72673 0.70131 0.13389 0.0
C982 C 0.7233 0.70025 0.15845 0.0
C983 C 0.70917 0.68181 0.16912 0.0
O984 O 0.69509 0.67571 0.20793 0.0
O985 O 0.68246 0.66268 0.19506 0.0
O986 O 0.69767 0.67506 0.1679 0.0
O987 O 0.71062 0.68764 0.18093 0.0
H988 H 0.71404 0.65707 0.19712 0.0
H989 H 0.72796 0.63808 0.20476 0.0
H990 H 0.69663 0.62561 0.23244 0.0
H991 H 0.68275 0.64459 0.22487 0.0
H992 H 0.63833 0.69499 0.21871 0.0
H993 H 0.65792 0.6872 0.20582 0.0
H994 H 0.63998 0.7329 0.19718 0.0
H995 H 0.65943 0.72514 0.1843 0.0
H996 H 0.73566 0.71498 0.14885 0.0
H997 H 0.71179 0.68886 0.12303 0.0
H998 H 0.7025 0.67779 0.14255 0.0
H999 H 0.72618 0.70394 0.16834 0.0
C1000 C 0.3172 0.68647 0.1614 0.0
C1001 C 0.32664 0.69501 0.15491 0.0
C1002 C 0.30943 0.70183 0.13869 0.0
C1003 C 0.32278 0.70262 0.14359 0.0
C1004 C 0.30003 0.69329 0.14517 0.0
C1005 C 0.3039 0.68565 0.15644 0.0
U1006 U 0.34047 0.6793 0.19159 0.0
O1007 O 0.33541 0.67372 0.2125 0.0
O1008 O 0.34721 0.65999 0.2002 0.0
C1009 C 0.3408 0.66175 0.21162 0.0
C1010 C 0.32095 0.67854 0.17346 0.0
C1011 C 0.3328 0.65012 0.21703 0.0
C1012 C 0.31601 0.64108 0.23266 0.0
C1013 C 0.32227 0.65206 0.22617 0.0
C1014 C 0.3299 0.62591 0.22037 0.0
C1015 C 0.32058 0.62776 0.23097 0.0
C1016 C 0.33621 0.63688 0.21388 0.0
C1017 C 0.37157 0.70193 0.19797 0.0
C1018 C 0.38834 0.69732 0.21542 0.0
C1019 C 0.38863 0.71888 0.20372 0.0
C1020 C 0.37743 0.71475 0.196 0.0
C1021 C 0.39413 0.71021 0.2135 0.0
C1022 C 0.37709 0.69321 0.20772 0.0
C1023 C 0.35955 0.69798 0.18998 0.0
O1024 O 0.33203 0.67149 0.17253 0.0
O1025 O 0.31998 0.68483 0.18502 0.0
O1026 O 0.34789 0.69986 0.19587 0.0
O1027 O 0.36014 0.68636 0.18378 0.0
H1028 H 0.33694 0.69583 0.15865 0.0
H1029 H 0.33014 0.70921 0.13873 0.0
H1030 H 0.28968 0.69262 0.14154 0.0
H1031 H 0.29648 0.67916 0.16134 0.0
H1032 H 0.3075 0.64329 0.23898 0.0
H1033 H 0.31892 0.66211 0.22847 0.0
H1034 H 0.33243 0.61609 0.21675 0.0
H1035 H 0.3439 0.63494 0.20645 0.0
H1036 H 0.39244 0.69055 0.22298 0.0
H1037 H 0.39295 0.72886 0.20215 0.0
H1038 H 0.37328 0.72161 0.18855 0.0
H1039 H 0.37264 0.6833 0.20944 0.0
C1040 C 0.31835 0.33651 0.15742 0.0
C1041 C 0.32484 0.32457 0.15394 0.0
C1042 C 0.30948 0.32166 0.13481 0.0
C1043 C 0.32042 0.31718 0.14269 0.0
C1044 C 0.30317 0.33371 0.13819 0.0
C1045 C 0.30758 0.34107 0.14941 0.0
U1046 U 0.34139 0.34333 0.18817 0.0
O1047 O 0.34836 0.36273 0.19662 0.0
O1048 O 0.33585 0.3489 0.20882 0.0
C1049 C 0.3417 0.36086 0.20793 0.0
C1050 C 0.32236 0.34417 0.16952 0.0
C1051 C 0.33358 0.37224 0.21246 0.0
C1052 C 0.31299 0.38529 0.21189 0.0
C1053 C 0.32073 0.37475 0.20693 0.0
C1054 C 0.33094 0.39102 0.22773 0.0
C1055 C 0.31801 0.39341 0.22241 0.0
C1056 C 0.33866 0.3805 0.22279 0.0
C1057 C 0.37179 0.32096 0.1957 0.0
C1058 C 0.38437 0.32135 0.21691 0.0
C1059 C 0.3922 0.30786 0.19834 0.0
C1060 C 0.38129 0.31213 0.19042 0.0
C1061 C 0.39376 0.31235 0.21167 0.0
C1062 C 0.37346 0.32565 0.20896 0.0
C1063 C 0.36007 0.32486 0.18736 0.0
O1064 O 0.32095 0.33775 0.18109 0.0
O1065 O 0.33376 0.35111 0.16871 0.0
O1066 O 0.36117 0.33653 0.18105 0.0
O1067 O 0.34817 0.32285 0.19291 0.0
H1068 H 0.33317 0.3209 0.16002 0.0
H1069 H 0.32539 0.3079 0.14022 0.0
H1070 H 0.29471 0.33729 0.13225 0.0
H1071 H 0.30246 0.35025 0.15195 0.0
H1072 H 0.30302 0.387 0.20768 0.0
H1073 H 0.31666 0.36847 0.19894 0.0
H1074 H 0.33496 0.39717 0.23585 0.0
H1075 H 0.34854 0.37871 0.22717 0.0
H1076 H 0.38542 0.32489 0.22718 0.0
H1077 H 0.39933 0.3009 0.19416 0.0
H1078 H 0.38016 0.30842 0.18021 0.0
H1079 H 0.36625 0.33249 0.2132 0.0
C1080 C 0.65722 0.31749 0.19551 0.0
C1081 C 0.6509 0.30496 0.19314 0.0
C1082 C 0.63495 0.30896 0.21115 0.0
C1083 C 0.63984 0.30072 0.20091 0.0
C1084 C 0.64119 0.32155 0.21346 0.0
C1085 C 0.65229 0.32579 0.2057 0.0
U1086 U 0.68802 0.34042 0.1887 0.0
O1087 O 0.70848 0.33507 0.18225 0.0
O1088 O 0.6961 0.34824 0.16948 0.0
C1089 C 0.70731 0.34139 0.1706 0.0
C1090 C 0.66909 0.32155 0.18747 0.0
C1091 C 0.71128 0.33368 0.15865 0.0
C1092 C 0.70594 0.31873 0.13993 0.0
C1093 C 0.70183 0.32593 0.15126 0.0
C1094 C 0.72895 0.32684 0.14338 0.0
C1095 C 0.71954 0.31914 0.13595 0.0
C1096 C 0.72484 0.33407 0.15464 0.0
C1097 C 0.69614 0.36954 0.21304 0.0
C1098 C 0.7025 0.38485 0.23111 0.0
C1099 C 0.71326 0.38707 0.20928 0.0
C1100 C 0.70549 0.37613 0.20451 0.0
C1101 C 0.7118 0.39148 0.22263 0.0
C1102 C 0.69472 0.37398 0.22635 0.0
C1103 C 0.68784 0.35801 0.20838 0.0
O1104 O 0.66828 0.33315 0.18105 0.0
O1105 O 0.68086 0.31982 0.19342 0.0
O1106 O 0.69347 0.34616 0.20949 0.0
O1107 O 0.68129 0.35968 0.1969 0.0
H1108 H 0.6546 0.29841 0.18535 0.0
H1109 H 0.63518 0.29095 0.19904 0.0
H1110 H 0.63757 0.328 0.22137 0.0
H1111 H 0.65709 0.33547 0.20771 0.0
H1112 H 0.69857 0.31279 0.13432 0.0
H1113 H 0.69132 0.32544 0.15424 0.0
H1114 H 0.73948 0.32724 0.14046 0.0
H1115 H 0.73228 0.33996 0.16023 0.0
H1116 H 0.70128 0.3881 0.24144 0.0
H1117 H 0.72044 0.39204 0.20263 0.0
H1118 H 0.70677 0.37281 0.19422 0.0
H1119 H 0.6876 0.369 0.23307 0.0
C1120 C 0.65677 0.3157 0.83335 0.0
C1121 C 0.6502 0.32449 0.82434 0.0
C1122 C 0.63465 0.30642 0.81775 0.0
C1123 C 0.63916 0.31987 0.81661 0.0
C1124 C 0.64125 0.29767 0.82672 0.0
C1125 C 0.65221 0.30229 0.83447 0.0
U1126 U 0.68663 0.3398 0.84086 0.0
O1127 O 0.6942 0.34746 0.86034 0.0
O1128 O 0.70721 0.33511 0.84781 0.0
C1129 C 0.70568 0.34107 0.85947 0.0
C1130 C 0.66844 0.32021 0.84157 0.0
C1131 C 0.7096 0.33308 0.87142 0.0
C1132 C 0.70535 0.31488 0.88752 0.0
C1133 C 0.70123 0.3226 0.87637 0.0
C1134 C 0.72618 0.32805 0.8889 0.0
C1135 C 0.71788 0.31753 0.8938 0.0
C1136 C 0.72206 0.33578 0.87778 0.0
C1137 C 0.69432 0.36963 0.8172 0.0
C1138 C 0.71263 0.38577 0.82133 0.0
C1139 C 0.70002 0.38661 0.80026 0.0
C1140 C 0.69203 0.37565 0.80454 0.0
C1141 C 0.71041 0.3917 0.8086 0.0
C1142 C 0.70464 0.37477 0.8256 0.0
C1143 C 0.68608 0.35782 0.82127 0.0
O1144 O 0.68031 0.31905 0.83588 0.0
O1145 O 0.66711 0.33164 0.84798 0.0
O1146 O 0.6793 0.35899 0.83255 0.0
O1147 O 0.69204 0.34616 0.82023 0.0
H1148 H 0.65363 0.33486 0.82329 0.0
H1149 H 0.63419 0.32673 0.80969 0.0
H1150 H 0.6379 0.28726 0.82769 0.0
H1151 H 0.65718 0.29537 0.84134 0.0
H1152 H 0.69886 0.30675 0.89115 0.0
H1153 H 0.69161 0.32035 0.87153 0.0
H1154 H 0.7359 0.33018 0.8936 0.0
H1155 H 0.72865 0.34379 0.87407 0.0
H1156 H 0.72065 0.38954 0.82785 0.0
H1157 H 0.69822 0.39105 0.79039 0.0
H1158 H 0.68413 0.37179 0.79791 0.0
H1159 H 0.70658 0.3702 0.83538 0.0
C1160 C 0.6551 0.68934 0.81689 0.0
C1161 C 0.64925 0.68713 0.80413 0.0
C1162 C 0.63318 0.70491 0.80796 0.0
C1163 C 0.63837 0.69487 0.79969 0.0
C1164 C 0.63897 0.70709 0.82077 0.0
C1165 C 0.64989 0.69936 0.82521 0.0
U1166 U 0.68495 0.6818 0.84064 0.0
O1167 O 0.69219 0.66224 0.84823 0.0
O1168 O 0.70541 0.67518 0.83581 0.0
C1169 C 0.70371 0.66339 0.84175 0.0
C1170 C 0.66669 0.68121 0.8212 0.0
C1171 C 0.70765 0.6516 0.83382 0.0
C1172 C 0.70876 0.63954 0.81258 0.0
C1173 C 0.70423 0.65047 0.82007 0.0
C1174 C 0.71984 0.63059 0.83255 0.0
C1175 C 0.71668 0.6296 0.81876 0.0
C1176 C 0.71537 0.64153 0.84002 0.0
C1177 C 0.6927 0.70521 0.87055 0.0
C1178 C 0.71081 0.7015 0.88685 0.0
C1179 C 0.69807 0.72211 0.88746 0.0
C1180 C 0.69026 0.7177 0.87647 0.0
C1181 C 0.70842 0.71407 0.89269 0.0
C1182 C 0.703 0.69709 0.87582 0.0
C1183 C 0.68459 0.70102 0.85872 0.0
O1184 O 0.67863 0.68707 0.81992 0.0
O1185 O 0.66531 0.6746 0.83269 0.0
O1186 O 0.67773 0.68963 0.85998 0.0
O1187 O 0.69063 0.70232 0.84701 0.0
H1188 H 0.65315 0.67947 0.79757 0.0
H1189 H 0.63405 0.69309 0.78977 0.0
H1190 H 0.63512 0.71485 0.82725 0.0
H1191 H 0.65432 0.70124 0.83507 0.0
H1192 H 0.70624 0.63893 0.80194 0.0
H1193 H 0.69825 0.65811 0.8151 0.0
H1194 H 0.72597 0.62302 0.83746 0.0
H1195 H 0.71811 0.64223 0.8506 0.0
H1196 H 0.71881 0.6952 0.89073 0.0
H1197 H 0.69613 0.73185 0.89182 0.0
H1198 H 0.68238 0.7241 0.87252 0.0
H1199 H 0.70506 0.68744 0.87133 0.0
C1200 C 0.31737 0.64982 0.8335 0.0
C1201 C 0.3045 0.64397 0.83538 0.0
C1202 C 0.30848 0.62821 0.81727 0.0
C1203 C 0.30008 0.63325 0.82732 0.0
C1204 C 0.32141 0.63399 0.81542 0.0
C1205 C 0.32582 0.64476 0.82348 0.0
U1206 U 0.34087 0.67992 0.84123 0.0
O1207 O 0.3358 0.70016 0.8483 0.0
O1208 O 0.3488 0.68724 0.8607 0.0
C1209 C 0.34204 0.69851 0.85995 0.0
C1210 C 0.32164 0.66133 0.84188 0.0
C1211 C 0.33418 0.70201 0.87196 0.0
C1212 C 0.32708 0.71899 0.88783 0.0
C1213 C 0.33464 0.71531 0.87662 0.0
C1214 C 0.31855 0.69604 0.88999 0.0
C1215 C 0.31898 0.70938 0.89458 0.0
C1216 C 0.32607 0.69238 0.87871 0.0
C1217 C 0.37023 0.68826 0.81697 0.0
C1218 C 0.38453 0.69603 0.79853 0.0
C1219 C 0.38957 0.70314 0.82139 0.0
C1220 C 0.37835 0.69567 0.82607 0.0
C1221 C 0.39272 0.70333 0.80759 0.0
C1222 C 0.37339 0.68854 0.80319 0.0
C1223 C 0.35851 0.68009 0.82152 0.0
O1224 O 0.33326 0.66014 0.84828 0.0
O1225 O 0.32009 0.67325 0.8363 0.0
O1226 O 0.34672 0.68593 0.82059 0.0
O1227 O 0.36008 0.67317 0.83279 0.0
H1228 H 0.29783 0.64777 0.84304 0.0
H1229 H 0.29006 0.62893 0.82883 0.0
H1230 H 0.32799 0.63025 0.80766 0.0
H1231 H 0.33576 0.6492 0.82184 0.0
H1232 H 0.32748 0.72933 0.89121 0.0
H1233 H 0.3408 0.72289 0.87151 0.0
H1234 H 0.31228 0.68853 0.89506 0.0
H1235 H 0.32551 0.68207 0.87522 0.0
H1236 H 0.3868 0.69609 0.78785 0.0
H1237 H 0.39577 0.70877 0.8285 0.0
H1238 H 0.37605 0.69565 0.83674 0.0
H1239 H 0.36724 0.68291 0.79603 0.0
C1240 C 0.33715 0.36943 0.81622 0.0
C1241 C 0.34295 0.37953 0.80802 0.0
C1242 C 0.32161 0.39127 0.80717 0.0
C1243 C 0.33524 0.3904 0.80353 0.0
C1244 C 0.31584 0.38128 0.81555 0.0
C1245 C 0.32358 0.37044 0.8201 0.0
U1246 U 0.3449 0.33947 0.83963 0.0
O1247 O 0.35099 0.31893 0.83449 0.0
O1248 O 0.3645 0.3318 0.84665 0.0
C1249 C 0.36296 0.32035 0.84019 0.0
C1250 C 0.3453 0.35774 0.82027 0.0
C1251 C 0.37448 0.31626 0.83193 0.0
C1252 C 0.39029 0.32025 0.81357 0.0
C1253 C 0.37948 0.32451 0.82144 0.0
C1254 C 0.39119 0.2995 0.8266 0.0
C1255 C 0.39617 0.30769 0.81608 0.0
C1256 C 0.38043 0.30376 0.83447 0.0
C1257 C 0.32225 0.33218 0.87033 0.0
C1258 C 0.32104 0.31098 0.88282 0.0
C1259 C 0.31028 0.33075 0.89167 0.0
C1260 C 0.31471 0.33826 0.88047 0.0
C1261 C 0.31332 0.31705 0.89285 0.0
C1262 C 0.32553 0.31852 0.87164 0.0
C1263 C 0.32623 0.34018 0.85834 0.0
O1264 O 0.35227 0.359 0.83155 0.0
O1265 O 0.33928 0.3459 0.81909 0.0
O1266 O 0.32442 0.33427 0.84662 0.0
O1267 O 0.33782 0.3468 0.85925 0.0
H1268 H 0.3534 0.37893 0.80493 0.0
H1269 H 0.33982 0.39801 0.79705 0.0
H1270 H 0.30532 0.38181 0.81844 0.0
H1271 H 0.31892 0.36277 0.82646 0.0
H1272 H 0.39398 0.32666 0.80545 0.0
H1273 H 0.37497 0.33417 0.81931 0.0
H1274 H 0.39558 0.28976 0.82864 0.0
H1275 H 0.37668 0.29726 0.8425 0.0
H1276 H 0.32346 0.30041 0.88358 0.0
H1277 H 0.30431 0.33557 0.8993 0.0
H1278 H 0.31209 0.34879 0.87964 0.0
H1279 H 0.33138 0.31365 0.86394 0.0
H1280 H 0.2734 0.23033 0.95792 0.0
N1281 N 0.27398 0.25637 0.96412 0.0
H1282 H 0.25795 0.21889 0.94193 0.0
H1283 H 0.25099 0.26691 0.95286 0.0
H1284 H 0.23563 0.25551 0.93702 0.0
H1285 H 0.26783 0.28301 0.961 0.0
H1286 H 0.27793 0.29868 0.94435 0.0
H1287 H 0.29578 0.25251 0.9493 0.0
H1288 H 0.30602 0.26823 0.93283 0.0
H1289 H 0.29174 0.25167 0.98373 0.0
H1290 H 0.25188 0.26711 0.97663 0.0
H1291 H 0.28927 0.25532 0.00794 0.0
H1292 H 0.24896 0.27011 1.00078 0.0
H1293 H 0.2761 0.24925 0.07491 0.0
H1294 H 0.26888 0.23203 0.09122 0.0
H1295 H 0.22777 0.2453 0.08758 0.0
H1296 H 0.235 0.26259 0.071 0.0
H1297 H 0.25191 0.28876 0.07929 0.0
H1298 H 0.26541 0.30184 0.09564 0.0
H1299 H 0.30146 0.2823 0.08234 0.0
H1300 H 0.28793 0.26927 0.06588 0.0
H1301 H 0.27553 0.2497 0.05142 0.0
H1302 H 0.27863 0.24705 0.02728 0.0
H1303 H 0.25504 0.28264 0.01979 0.0
N1304 N 0.26025 0.26892 0.06386 0.0
H1305 H 0.25138 0.28472 0.04406 0.0
C1306 C 0.26335 0.24942 0.95672 0.0
C1307 C 0.26496 0.23577 0.95367 0.0
C1308 C 0.25621 0.22928 0.94454 0.0
C1309 C 0.24569 0.23639 0.93831 0.0
C1310 C 0.24367 0.24987 0.94178 0.0
C1311 C 0.25243 0.25635 0.95089 0.0
C1312 C 0.28108 0.26656 0.95635 0.0
C1313 C 0.27631 0.27978 0.95508 0.0
C1314 C 0.28205 0.28871 0.9456 0.0
C1315 C 0.29268 0.28455 0.93737 0.0
C1316 C 0.29786 0.2716 0.93912 0.0
C1317 C 0.29208 0.26268 0.94852 0.0
C1318 C 0.272 0.25893 0.97831 0.0
C1319 C 0.28241 0.25576 0.98742 0.0
C1320 C 0.2809 0.25776 1.0013 0.0
C1321 C 0.26884 0.2629 0.00649 0.0
C1322 C 0.25847 0.26627 0.99726 0.0
C1323 C 0.26006 0.26442 0.98334 0.0
C1324 C 0.25602 0.25716 0.07154 0.0
C1325 C 0.26547 0.24825 0.07721 0.0
C1326 C 0.26137 0.23846 0.08661 0.0
C1327 C 0.24782 0.23743 0.09058 0.0
C1328 C 0.23827 0.24591 0.08457 0.0
C1329 C 0.24236 0.2557 0.0751 0.0
C1330 C 0.26887 0.2781 0.07136 0.0
C1331 C 0.26277 0.28758 0.07964 0.0
C1332 C 0.27044 0.29496 0.08898 0.0
C1333 C 0.2844 0.29299 0.0902 0.0
C1334 C 0.29069 0.28397 0.0815 0.0
C1335 C 0.28298 0.27657 0.07211 0.0
C1336 C 0.263 0.26735 0.04964 0.0
C1337 C 0.27094 0.25691 0.04466 0.0
C1338 C 0.27283 0.25548 0.03073 0.0
C1339 C 0.26705 0.26458 0.02141 0.0
C1340 C 0.25942 0.27522 0.02651 0.0
C1341 C 0.25741 0.27653 0.04042 0.0
H1342 H 0.77766 0.26699 0.95416 0.0
N1343 N 0.75458 0.25585 0.96507 0.0
H1344 H 0.79292 0.25598 0.93855 0.0
H1345 H 0.7548 0.22987 0.95873 0.0
H1346 H 0.77007 0.21887 0.94288 0.0
H1347 H 0.73333 0.25158 0.94907 0.0
H1348 H 0.72365 0.26732 0.93249 0.0
H1349 H 0.7608 0.28279 0.96289 0.0
H1350 H 0.75112 0.29854 0.94627 0.0
H1351 H 0.77682 0.26733 0.97774 0.0
H1352 H 0.73701 0.25047 0.98458 0.0
H1353 H 0.77986 0.27062 1.00187 0.0
H1354 H 0.73966 0.25435 0.0088 0.0
H1355 H 0.79473 0.26877 0.07167 0.0
H1356 H 0.8049 0.25298 0.08798 0.0
H1357 H 0.76658 0.23202 0.09173 0.0
H1358 H 0.7564 0.24783 0.0757 0.0
H1359 H 0.74172 0.26581 0.06881 0.0
H1360 H 0.72776 0.27761 0.08527 0.0
H1361 H 0.76133 0.30437 0.09431 0.0
H1362 H 0.77532 0.29245 0.07804 0.0
H1363 H 0.77724 0.28616 0.04472 0.0
H1364 H 0.7735 0.28342 0.02046 0.0
H1365 H 0.75068 0.24669 0.0284 0.0
N1366 N 0.7688 0.27023 0.06468 0.0
H1367 H 0.75392 0.24994 0.05255 0.0
C1368 C 0.76511 0.24918 0.9578 0.0
C1369 C 0.77612 0.25639 0.95216 0.0
C1370 C 0.78481 0.25014 0.94317 0.0
C1371 C 0.78258 0.23664 0.93959 0.0
C1372 C 0.77196 0.22928 0.94559 0.0
C1373 C 0.76332 0.23551 0.95465 0.0
C1374 C 0.74772 0.26599 0.95723 0.0
C1375 C 0.73702 0.26191 0.94875 0.0
C1376 C 0.73155 0.27084 0.93929 0.0
C1377 C 0.73671 0.28405 0.93818 0.0
C1378 C 0.74701 0.28838 0.94704 0.0
C1379 C 0.7525 0.27941 0.95652 0.0
C1380 C 0.75669 0.25844 0.97928 0.0
C1381 C 0.76867 0.26437 0.98439 0.0
C1382 C 0.77035 0.26639 0.99829 0.0
C1383 C 0.76003 0.26273 0.00744 0.0
C1384 C 0.74797 0.25705 1.00221 0.0
C1385 C 0.74637 0.25492 0.98833 0.0
C1386 C 0.77488 0.25944 0.0723 0.0
C1387 C 0.78863 0.26056 0.07575 0.0
C1388 C 0.7944 0.25162 0.08505 0.0
C1389 C 0.78647 0.24136 0.091 0.0
C1390 C 0.77286 0.23983 0.08715 0.0
C1391 C 0.76708 0.24883 0.07791 0.0
C1392 C 0.75959 0.27828 0.07224 0.0
C1393 C 0.746 0.27435 0.07414 0.0
C1394 C 0.73805 0.28106 0.08352 0.0
C1395 C 0.74357 0.29181 0.09101 0.0
C1396 C 0.75691 0.29613 0.0886 0.0
C1397 C 0.76484 0.28939 0.07931 0.0
C1398 C 0.76602 0.26825 0.05049 0.0
C1399 C 0.77138 0.27757 0.04117 0.0
C1400 C 0.76932 0.27589 0.02729 0.0
C1401 C 0.76188 0.26474 0.02233 0.0
C1402 C 0.75634 0.25549 0.03175 0.0
C1403 C 0.7583 0.25726 0.04566 0.0
H1404 H 0.75759 0.77724 0.95193 0.0
N1405 N 0.76921 0.75485 0.96313 0.0
H1406 H 0.76825 0.79289 0.93582 0.0
H1407 H 0.79522 0.7564 0.95662 0.0
H1408 H 0.80592 0.77212 0.94039 0.0
H1409 H 0.77409 0.7335 0.94813 0.0
H1410 H 0.75872 0.72263 0.93175 0.0
H1411 H 0.74204 0.75946 0.96041 0.0
H1412 H 0.7267 0.74862 0.944 0.0
H1413 H 0.75494 0.77486 0.97536 0.0
H1414 H 0.77819 0.7393 0.98306 0.0
H1415 H 0.75194 0.77781 0.99959 0.0
H1416 H 0.77498 0.74196 0.00736 0.0
H1417 H 0.75145 0.79227 0.06964 0.0
H1418 H 0.76456 0.80575 0.08605 0.0
H1419 H 0.79329 0.77381 0.08995 0.0
H1420 H 0.78024 0.76036 0.07369 0.0
H1421 H 0.76625 0.74157 0.06445 0.0
H1422 H 0.75983 0.72386 0.08072 0.0
H1423 H 0.72774 0.74852 0.0953 0.0
H1424 H 0.73419 0.76631 0.079 0.0
H1425 H 0.73768 0.77112 0.04322 0.0
H1426 H 0.74059 0.76826 0.01889 0.0
H1427 H 0.78172 0.75591 0.02599 0.0
N1428 N 0.75552 0.76683 0.06287 0.0
H1429 H 0.77859 0.75848 0.05022 0.0
C1430 C 0.77567 0.76565 0.9556 0.0
C1431 C 0.76822 0.77623 0.94983 0.0
C1432 C 0.77428 0.78514 0.94056 0.0
C1433 C 0.78784 0.78362 0.93691 0.0
C1434 C 0.79545 0.77347 0.94312 0.0
C1435 C 0.78939 0.76457 0.95239 0.0
C1436 C 0.75925 0.74723 0.95553 0.0
C1437 C 0.76366 0.7366 0.94753 0.0
C1438 C 0.75494 0.73046 0.93818 0.0
C1439 C 0.74162 0.73486 0.93667 0.0
C1440 C 0.73695 0.74508 0.94508 0.0
C1441 C 0.7457 0.75124 0.95445 0.0
C1442 C 0.76687 0.75684 0.97735 0.0
C1443 C 0.75936 0.76763 0.98223 0.0
C1444 C 0.75758 0.76927 0.99615 0.0
C1445 C 0.76325 0.76015 1.00552 0.0
C1446 C 0.77066 0.74932 1.00053 0.0
C1447 C 0.77242 0.74771 0.98663 0.0
C1448 C 0.76484 0.77537 0.07031 0.0
C1449 C 0.76078 0.78835 0.07374 0.0
C1450 C 0.76821 0.79599 0.08311 0.0
C1451 C 0.77984 0.79073 0.08922 0.0
C1452 C 0.78435 0.77804 0.0853 0.0
C1453 C 0.77692 0.7704 0.07594 0.0
C1454 C 0.75062 0.75529 0.07046 0.0
C1455 C 0.75764 0.74308 0.07088 0.0
C1456 C 0.75401 0.73298 0.08018 0.0
C1457 C 0.74333 0.73493 0.08918 0.0
C1458 C 0.73596 0.74683 0.08838 0.0
C1459 C 0.73959 0.75692 0.07908 0.0
C1460 C 0.75786 0.76508 0.0486 0.0
C1461 C 0.74732 0.76779 0.03949 0.0
C1462 C 0.74905 0.76624 0.02557 0.0
C1463 C 0.76142 0.76188 0.02039 0.0
C1464 C 0.772 0.75912 0.02958 0.0
C1465 C 0.77024 0.76068 0.04351 0.0
H1466 H 0.28274 0.7582 0.9553 0.0
N1467 N 0.25983 0.74656 0.96604 0.0
H1468 H 0.29778 0.74788 0.93902 0.0
H1469 H 0.26025 0.72078 0.959 0.0
H1470 H 0.27529 0.71047 0.94248 0.0
H1471 H 0.23854 0.74226 0.95009 0.0
H1472 H 0.22853 0.75815 0.93385 0.0
H1473 H 0.26566 0.7736 0.96428 0.0
H1474 H 0.25566 0.78949 0.94801 0.0
H1475 H 0.28214 0.75777 0.97886 0.0
H1476 H 0.24222 0.74109 0.98548 0.0
H1477 H 0.28507 0.76105 1.00301 0.0
H1478 H 0.24475 0.74495 0.00971 0.0
H1479 H 0.2986 0.76089 0.07368 0.0
H1480 H 0.30853 0.74572 0.09072 0.0
H1481 H 0.27061 0.72387 0.09347 0.0
H1482 H 0.26066 0.73908 0.07672 0.0
H1483 H 0.24586 0.75681 0.06971 0.0
H1484 H 0.23145 0.76898 0.08549 0.0
H1485 H 0.2644 0.79671 0.09388 0.0
H1486 H 0.27884 0.78441 0.07831 0.0
H1487 H 0.2819 0.77709 0.04569 0.0
H1488 H 0.2786 0.774 0.02143 0.0
H1489 H 0.25551 0.73746 0.02949 0.0
N1490 N 0.27289 0.76158 0.06573 0.0
H1491 H 0.25831 0.74107 0.05364 0.0
C1492 C 0.2704 0.74018 0.95856 0.0
C1493 C 0.28127 0.74766 0.95298 0.0
C1494 C 0.28982 0.7418 0.9436 0.0
C1495 C 0.28761 0.72844 0.93957 0.0
C1496 C 0.27718 0.72078 0.94554 0.0
C1497 C 0.26867 0.72662 0.95499 0.0
C1498 C 0.25277 0.75673 0.95842 0.0
C1499 C 0.24209 0.75264 0.94992 0.0
C1500 C 0.23644 0.76166 0.94065 0.0
C1501 C 0.2414 0.77494 0.93975 0.0
C1502 C 0.25169 0.77927 0.94862 0.0
C1503 C 0.25736 0.77022 0.95791 0.0
C1504 C 0.26196 0.74898 0.98028 0.0
C1505 C 0.27395 0.75483 0.98546 0.0
C1506 C 0.27556 0.75684 0.99938 0.0
C1507 C 0.26517 0.75325 0.00847 0.0
C1508 C 0.25312 0.7476 1.00317 0.0
C1509 C 0.25159 0.74547 0.98928 0.0
C1510 C 0.27897 0.75107 0.07375 0.0
C1511 C 0.29256 0.7526 0.07769 0.0
C1512 C 0.29818 0.74402 0.08742 0.0
C1513 C 0.29028 0.7337 0.0933 0.0
C1514 C 0.27687 0.73173 0.08895 0.0
C1515 C 0.27122 0.74038 0.0793 0.0
C1516 C 0.26345 0.76973 0.07288 0.0
C1517 C 0.24991 0.76562 0.07476 0.0
C1518 C 0.2417 0.77255 0.08375 0.0
C1519 C 0.24691 0.78369 0.09085 0.0
C1520 C 0.26021 0.78815 0.08846 0.0
C1521 C 0.2684 0.7812 0.07957 0.0
C1522 C 0.27051 0.7593 0.05153 0.0
C1523 C 0.27609 0.76845 0.04217 0.0
C1524 C 0.27428 0.76658 0.02828 0.0
C1525 C 0.26687 0.75539 0.02335 0.0
C1526 C 0.26115 0.74628 0.03281 0.0
C1527 C 0.26286 0.74826 0.04673 0.0
H1528 H 0.95069 0.24419 0.29081 0.0
N1529 N 0.96533 0.2502 0.26921 0.0
H1530 H 0.93535 0.25904 0.30284 0.0
H1531 H 0.96364 0.27756 0.26565 0.0
H1532 H 0.94822 0.29242 0.27766 0.0
H1533 H 0.95373 0.26338 0.24774 0.0
H1534 H 0.93691 0.25387 0.23209 0.0
H1535 H 0.95807 0.22442 0.2667 0.0
H1536 H 0.94112 0.21488 0.25097 0.0
H1537 H 0.98535 0.24146 0.28476 0.0
H1538 H 0.97753 0.26433 0.24848 0.0
H1539 H 0.00968 0.24452 0.28144 0.0
H1540 H 1.00175 0.26696 0.2447 0.0
H1541 H 0.06841 0.25397 0.28024 0.0
H1542 H 0.08443 0.26324 0.297 0.0
H1543 H 0.09547 0.29512 0.26918 0.0
H1544 H 0.0796 0.28574 0.25234 0.0
H1545 H 0.0726 0.26585 0.22861 0.0
H1546 H 0.08907 0.25232 0.21644 0.0
H1547 H 0.09177 0.22528 0.25058 0.0
H1548 H 0.07549 0.23882 0.26278 0.0
H1549 H 0.05219 0.2406 0.26478 0.0
H1550 H 0.02792 0.23767 0.26804 0.0
H1551 H 0.02167 0.2779 0.25242 0.0
N1552 N 0.06523 0.26298 0.25422 0.0
H1553 H 0.04598 0.28046 0.24868 0.0
C1554 C 0.95834 0.25974 0.27741 0.0
C1555 C 0.95046 0.25478 0.28812 0.0
C1556 C 0.94169 0.26322 0.29491 0.0
C1557 C 0.94066 0.27679 0.2911 0.0
C1558 C 0.94893 0.28197 0.28075 0.0
C1559 C 0.95774 0.2735 0.27394 0.0
C1560 C 0.95726 0.24455 0.25839 0.0
C1561 C 0.95138 0.25272 0.24833 0.0
C1562 C 0.94172 0.24732 0.23942 0.0
C1563 C 0.93779 0.23371 0.24042 0.0
C1564 C 0.94408 0.2254 0.25003 0.0
C1565 C 0.95375 0.23081 0.25893 0.0
C1566 C 0.97958 0.25255 0.26689 0.0
C1567 C 0.98891 0.24709 0.27604 0.0
C1568 C 1.00283 0.24875 0.27403 0.0
C1569 C 0.0078 0.25591 0.26272 0.0
C1570 C 0.99838 0.26152 0.25361 0.0
C1571 C 0.98444 0.25993 0.2557 0.0
C1572 C 0.07285 0.2692 0.26502 0.0
C1573 C 0.07411 0.26306 0.27781 0.0
C1574 C 0.08323 0.26833 0.28736 0.0
C1575 C 0.09111 0.27983 0.28427 0.0
C1576 C 0.08943 0.28627 0.27173 0.0
C1577 C 0.08039 0.28097 0.26218 0.0
C1578 C 0.07266 0.25334 0.24653 0.0
C1579 C 0.07643 0.25678 0.23331 0.0
C1580 C 0.08585 0.24912 0.22641 0.0
C1581 C 0.0916 0.23783 0.23264 0.0
C1582 C 0.08735 0.23392 0.2456 0.0
C1583 C 0.07798 0.24163 0.25252 0.0
C1584 C 0.05093 0.26074 0.25631 0.0
C1585 C 0.04563 0.24874 0.26194 0.0
C1586 C 0.03167 0.24714 0.26393 0.0
C1587 C 0.0227 0.25753 0.26049 0.0
C1588 C 0.02813 0.26955 0.25496 0.0
C1589 C 0.04205 0.27109 0.25289 0.0
H1590 H 0.78068 0.06261 0.26726 0.0
N1591 N 0.75409 0.06256 0.25918 0.0
H1592 H 0.7985 0.07812 0.25924 0.0
H1593 H 0.75278 0.07969 0.23845 0.0
H1594 H 0.77068 0.09525 0.23042 0.0
H1595 H 0.72851 0.07034 0.25791 0.0
H1596 H 0.71749 0.08667 0.27261 0.0
H1597 H 0.76424 0.07246 0.28309 0.0
H1598 H 0.75318 0.0885 0.29777 0.0
H1599 H 0.76327 0.04913 0.28192 0.0
H1600 H 0.74917 0.04353 0.24104 0.0
H1601 H 0.76621 0.02499 0.28444 0.0
H1602 H 0.75256 0.01925 0.2433 0.0
H1603 H 0.78992 0.94924 0.27729 0.0
H1604 H 0.80178 0.93339 0.26283 0.0
H1605 H 0.77563 0.94386 0.22949 0.0
H1606 H 0.7638 0.95979 0.24398 0.0
H1607 H 0.74581 0.95135 0.25891 0.0
H1608 H 0.7303 0.93477 0.26916 0.0
H1609 H 0.75076 0.93951 0.30744 0.0
H1610 H 0.76634 0.95619 0.29716 0.0
H1611 H 0.78333 0.983 0.28053 0.0
H1612 H 0.78016 0.00722 0.27758 0.0
H1613 H 0.74421 0.9991 0.25371 0.0
N1614 N 0.76795 0.96297 0.27118 0.0
H1615 H 0.7478 0.97494 0.25634 0.0
C1616 C 0.76536 0.06994 0.25336 0.0
C1617 C 0.77845 0.06946 0.25902 0.0
C1618 C 0.78861 0.07833 0.25448 0.0
C1619 C 0.78586 0.08779 0.24426 0.0
C1620 C 0.77298 0.08796 0.23827 0.0
C1621 C 0.76283 0.07909 0.2428 0.0
C1622 C 0.74711 0.06998 0.26942 0.0
C1623 C 0.7338 0.07396 0.26681 0.0
C1624 C 0.72756 0.0833 0.27513 0.0
C1625 C 0.73455 0.08874 0.28625 0.0
C1626 C 0.74761 0.08432 0.28928 0.0
C1627 C 0.75388 0.07506 0.28092 0.0
C1628 C 0.75584 0.04824 0.26126 0.0
C1629 C 0.76078 0.04277 0.27345 0.0
C1630 C 0.76259 0.02885 0.27484 0.0
C1631 C 0.75966 0.02006 0.26407 0.0
C1632 C 0.75474 0.02561 0.2519 0.0
C1633 C 0.75286 0.03951 0.25055 0.0
C1634 C 0.77605 0.95572 0.26174 0.0
C1635 C 0.78699 0.94837 0.26678 0.0
C1636 C 0.79368 0.93932 0.25857 0.0
C1637 C 0.78955 0.93746 0.24513 0.0
C1638 C 0.77897 0.94521 0.23984 0.0
C1639 C 0.77226 0.95431 0.24809 0.0
C1640 C 0.75723 0.9551 0.27733 0.0
C1641 C 0.74677 0.94916 0.26958 0.0
C1642 C 0.73795 0.93964 0.2754 0.0
C1643 C 0.73944 0.93592 0.28902 0.0
C1644 C 0.74944 0.9423 0.29692 0.0
C1645 C 0.75827 0.95182 0.29109 0.0
C1646 C 0.76582 0.97714 0.26875 0.0
C1647 C 0.77482 0.98649 0.27461 0.0
C1648 C 0.7729 1.00034 0.273 0.0
C1649 C 0.76184 1.00522 0.2655 0.0
C1650 C 0.75291 0.99578 0.25945 0.0
C1651 C 0.7549 0.98189 0.26102 0.0
H1652 H 0.07625 0.7735 0.29139 0.0
N1653 N 0.06238 0.77124 0.26846 0.0
H1654 H 0.09147 0.75682 0.30149 0.0
H1655 H 0.06422 0.74496 0.26088 0.0
H1656 H 0.0796 0.72831 0.27085 0.0
H1657 H 0.06849 0.76162 0.24349 0.0
H1658 H 0.08528 0.77135 0.22797 0.0
H1659 H 0.07441 0.79532 0.27015 0.0
H1660 H 0.09133 0.80504 0.25461 0.0
H1661 H 0.04596 0.78307 0.28549 0.0
H1662 H 0.04595 0.75865 0.2498 0.0
H1663 H 0.0213 0.78346 0.28488 0.0
H1664 H 0.02125 0.75941 0.24869 0.0
H1665 H 0.953 0.77516 0.29296 0.0
H1666 H 0.93738 0.75927 0.30438 0.0
H1667 H 0.93629 0.73447 0.26888 0.0
H1668 H 0.95183 0.75028 0.2575 0.0
H1669 H 0.96188 0.76701 0.24085 0.0
H1670 H 0.94679 0.77475 0.22263 0.0
H1671 H 0.92787 0.80184 0.2502 0.0
H1672 H 0.94303 0.79416 0.26839 0.0
H1673 H 0.97863 0.79388 0.27338 0.0
H1674 H 1.00327 0.79305 0.27286 0.0
H1675 H 1.0006 0.75197 0.25887 0.0
N1676 N 0.96087 0.77453 0.26735 0.0
H1677 H 0.97595 0.75316 0.25887 0.0
C1678 C 0.06913 0.76047 0.27544 0.0
C1679 C 0.07666 0.76353 0.2871 0.0
C1680 C 0.08535 0.75407 0.2928 0.0
C1681 C 0.08668 0.7414 0.28686 0.0
C1682 C 0.07868 0.73806 0.27555 0.0
C1683 C 0.06991 0.74753 0.26989 0.0
C1684 C 0.07008 0.77784 0.25795 0.0
C1685 C 0.07306 0.77129 0.24582 0.0
C1686 C 0.0827 0.7768 0.23699 0.0
C1687 C 0.08952 0.78888 0.24018 0.0
C1688 C 0.08611 0.79574 0.25197 0.0
C1689 C 0.07645 0.79025 0.26076 0.0
C1690 C 0.04782 0.77099 0.26766 0.0
C1691 C 0.04059 0.77787 0.27745 0.0
C1692 C 0.02647 0.77816 0.27699 0.0
C1693 C 0.01916 0.77162 0.26661 0.0
C1694 C 0.02646 0.76451 0.25688 0.0
C1695 C 0.04065 0.76415 0.25743 0.0
C1696 C 0.95365 0.76391 0.27445 0.0
C1697 C 0.94966 0.76612 0.28779 0.0
C1698 C 0.94074 0.75711 0.29425 0.0
C1699 C 0.93569 0.74575 0.28744 0.0
C1700 C 0.94013 0.74317 0.2743 0.0
C1701 C 0.94905 0.75218 0.26784 0.0
C1702 C 0.95363 0.78012 0.25598 0.0
C1703 C 0.9547 0.77481 0.24292 0.0
C1704 C 0.94607 0.77918 0.23255 0.0
C1705 C 0.9362 0.78882 0.23512 0.0
C1706 C 0.93542 0.79441 0.24803 0.0
C1707 C 0.94408 0.79009 0.25835 0.0
C1708 C 0.97539 0.7736 0.26636 0.0
C1709 C 0.98339 0.78473 0.27014 0.0
C1710 C 0.9975 0.78417 0.26994 0.0
C1711 C 1.00405 0.77235 0.26603 0.0
C1712 C 0.99599 0.76126 0.26188 0.0
C1713 C 0.98181 0.76189 0.26198 0.0
H1714 H 0.30227 0.95177 0.2503 0.0
N1715 N 0.27679 0.95955 0.25212 0.0
H1716 H 0.31386 0.93558 0.26511 0.0
H1717 H 0.2678 0.95048 0.27664 0.0
H1718 H 0.27936 0.9343 0.29142 0.0
H1719 H 0.25044 0.9566 0.25973 0.0
H1720 H 0.23398 0.94015 0.25044 0.0
H1721 H 0.27953 0.94479 0.23014 0.0
H1722 H 0.26311 0.92842 0.22081 0.0
H1723 H 0.28466 0.97721 0.23347 0.0
H1724 H 0.26605 0.97437 0.27255 0.0
H1725 H 0.28363 1.00173 0.23419 0.0
H1726 H 0.26546 0.99901 0.27371 0.0
H1727 H 0.29691 0.07671 0.2514 0.0
H1728 H 0.30645 0.09232 0.26825 0.0
H1729 H 0.27787 0.0772 0.29758 0.0
H1730 H 0.26848 0.06142 0.28074 0.0
H1731 H 0.25093 0.06736 0.26467 0.0
H1732 H 0.23474 0.08297 0.25452 0.0
H1733 H 0.2592 0.08597 0.21876 0.0
H1734 H 0.27548 0.07033 0.22898 0.0
H1735 H 0.29415 0.04464 0.24477 0.0
H1736 H 0.29429 0.02006 0.24496 0.0
H1737 H 0.25559 0.01926 0.26497 0.0
N1738 N 0.27535 0.06066 0.2541 0.0
H1739 H 0.2559 0.04394 0.2652 0.0
C1740 C 0.28425 0.9524 0.26238 0.0
C1741 C 0.29739 0.94831 0.25948 0.0
C1742 C 0.30395 0.93905 0.26786 0.0
C1743 C 0.29742 0.93372 0.27929 0.0
C1744 C 0.28455 0.93834 0.28265 0.0
C1745 C 0.27799 0.94762 0.27425 0.0
C1746 C 0.26618 0.9519 0.24556 0.0
C1747 C 0.25316 0.9507 0.25106 0.0
C1748 C 0.2438 0.94132 0.24579 0.0
C1749 C 0.24738 0.93308 0.23497 0.0
C1750 C 0.26017 0.93472 0.22913 0.0
C1751 C 0.26948 0.94406 0.23439 0.0
C1752 C 0.2756 0.97397 0.25297 0.0
C1753 C 0.28041 0.98194 0.24225 0.0
C1754 C 0.27991 0.99598 0.24277 0.0
C1755 C 0.27466 1.00248 0.25412 0.0
C1756 C 0.26953 0.99442 0.26478 0.0
C1757 C 0.26994 0.98029 0.26418 0.0
C1758 C 0.28203 0.06795 0.26481 0.0
C1759 C 0.29295 0.07653 0.26156 0.0
C1760 C 0.29833 0.08544 0.27112 0.0
C1761 C 0.29281 0.08592 0.2841 0.0
C1762 C 0.28225 0.07694 0.2876 0.0
C1763 C 0.2769 0.06796 0.27801 0.0
C1764 C 0.26442 0.06761 0.24751 0.0
C1765 C 0.25266 0.07104 0.25452 0.0
C1766 C 0.24344 0.08 0.24876 0.0
C1767 C 0.24582 0.08562 0.23592 0.0
C1768 C 0.25719 0.08168 0.22866 0.0
C1769 C 0.2664 0.07275 0.23443 0.0
C1770 C 0.275 0.04614 0.25479 0.0
C1771 C 0.28573 0.03913 0.24923 0.0
C1772 C 0.28571 0.02506 0.24926 0.0
C1773 C 0.27483 0.01756 0.25478 0.0
C1774 C 0.26417 0.02464 0.26067 0.0
C1775 C 0.26427 0.0388 0.26072 0.0
H1776 H 0.0689 0.73838 0.76341 0.0
N1777 N 0.06526 0.76533 0.75877 0.0
H1778 H 0.08475 0.72401 0.75133 0.0
H1779 H 0.07815 0.77117 0.73604 0.0
H1780 H 0.09379 0.75678 0.72383 0.0
H1781 H 0.07345 0.79095 0.75976 0.0
H1782 H 0.09026 0.80093 0.77537 0.0
H1783 H 0.07594 0.75314 0.78131 0.0
H1784 H 0.09246 0.76315 0.79694 0.0
H1785 H 0.0529 0.75054 0.77895 0.0
H1786 H 0.04536 0.77474 0.74348 0.0
H1787 H 0.02868 0.74801 0.78263 0.0
H1788 H 0.021 0.77174 0.74665 0.0
H1789 H 0.94915 0.73203 0.77794 0.0
H1790 H 0.93261 0.72248 0.76187 0.0
H1791 H 0.94663 0.7504 0.73126 0.0
H1792 H 0.96321 0.75994 0.74734 0.0
H1793 H 0.95464 0.77651 0.76364 0.0
H1794 H 0.93847 0.79099 0.77487 0.0
H1795 H 0.94265 0.76755 0.81145 0.0
H1796 H 0.95893 0.75303 0.8002 0.0
H1797 H 0.98436 0.73541 0.77894 0.0
H1798 H 0.00863 0.73767 0.77489 0.0
H1799 H 1.00278 0.77824 0.76001 0.0
N1800 N 0.96531 0.75332 0.77418 0.0
H1801 H 0.97852 0.77559 0.7635 0.0
C1802 C 0.07238 0.75588 0.7506 0.0
C1803 C 0.07409 0.7424 0.75465 0.0
C1804 C 0.08312 0.73421 0.74778 0.0
C1805 C 0.09044 0.73939 0.73674 0.0
C1806 C 0.0882 0.75261 0.7323 0.0
C1807 C 0.07927 0.76078 0.73921 0.0
C1808 C 0.07327 0.77139 0.76942 0.0
C1809 C 0.0773 0.78494 0.76807 0.0
C1810 C 0.0869 0.79059 0.7769 0.0
C1811 C 0.09254 0.78275 0.78728 0.0
C1812 C 0.08812 0.76936 0.78903 0.0
C1813 C 0.07861 0.76368 0.78014 0.0
C1814 C 0.051 0.76299 0.76098 0.0
C1815 C 0.04606 0.75526 0.77188 0.0
C1816 C 0.0321 0.75372 0.7739 0.0
C1817 C 0.02274 0.75971 0.76498 0.0
C1818 C 0.0278 0.7672 0.75392 0.0
C1819 C 0.04174 0.76883 0.752 0.0
C1820 C 0.95743 0.74661 0.76385 0.0
C1821 C 0.94888 0.73585 0.76767 0.0
C1822 C 0.93944 0.73046 0.75855 0.0
C1823 C 0.93843 0.73577 0.74543 0.0
C1824 C 0.94734 0.74617 0.74135 0.0
C1825 C 0.95679 0.75158 0.75051 0.0
C1826 C 0.95811 0.76368 0.78114 0.0
C1827 C 0.95246 0.7747 0.77419 0.0
C1828 C 0.94316 0.78294 0.78056 0.0
C1829 C 0.93933 0.78027 0.79395 0.0
C1830 C 0.94551 0.76977 0.80112 0.0
C1831 C 0.95482 0.76155 0.79475 0.0
C1832 C 0.97958 0.75531 0.77169 0.0
C1833 C 0.98835 0.74478 0.77479 0.0
C1834 C 1.00226 0.74615 0.77255 0.0
C1835 C 0.00781 0.75819 0.76719 0.0
C1836 C 0.99894 0.76874 0.76399 0.0
C1837 C 0.98499 0.7673 0.76612 0.0
H1838 H 0.28433 0.06004 0.76747 0.0
N1839 N 0.25711 0.05789 0.76231 0.0
H1840 H 0.30005 0.07647 0.75706 0.0
H1841 H 0.25242 0.07371 0.74112 0.0
H1842 H 0.26815 0.09009 0.73067 0.0
H1843 H 0.23114 0.06423 0.76356 0.0
H1844 H 0.22087 0.08051 0.77884 0.0
H1845 H 0.26912 0.06892 0.78481 0.0
H1846 H 0.25887 0.08505 0.80001 0.0
H1847 H 0.26926 0.04528 0.78402 0.0
H1848 H 0.25095 0.03843 0.74503 0.0
H1849 H 0.27286 0.02121 0.78675 0.0
H1850 H 0.25504 0.0143 0.74736 0.0
H1851 H 0.29479 0.94437 0.78035 0.0
H1852 H 0.30612 0.92863 0.76535 0.0
H1853 H 0.27977 0.9404 0.73262 0.0
H1854 H 0.26847 0.95623 0.74764 0.0
H1855 H 0.25099 0.94675 0.76269 0.0
H1856 H 0.23561 0.93015 0.77307 0.0
H1857 H 0.25606 0.9353 0.8113 0.0
H1858 H 0.27152 0.95204 0.80089 0.0
H1859 H 0.28914 0.9789 0.78256 0.0
H1860 H 0.2858 1.00307 0.77936 0.0
H1861 H 0.24799 0.9945 0.7587 0.0
N1862 N 0.27305 0.95869 0.77487 0.0
H1863 H 0.25178 0.97044 0.76143 0.0
C1864 C 0.26718 0.06564 0.755 0.0
C1865 C 0.28078 0.06633 0.75926 0.0
C1866 C 0.28974 0.07571 0.75335 0.0
C1867 C 0.28521 0.08447 0.74314 0.0
C1868 C 0.27181 0.08337 0.73851 0.0
C1869 C 0.26289 0.07403 0.74441 0.0
C1870 C 0.25083 0.06522 0.77305 0.0
C1871 C 0.23713 0.06843 0.77175 0.0
C1872 C 0.23131 0.07774 0.7804 0.0
C1873 C 0.23914 0.08398 0.79051 0.0
C1874 C 0.25266 0.08029 0.79229 0.0
C1875 C 0.25848 0.071 0.78364 0.0
C1876 C 0.25964 0.04371 0.76434 0.0
C1877 C 0.26602 0.03864 0.776 0.0
C1878 C 0.26821 0.02478 0.77749 0.0
C1879 C 0.26423 0.01567 0.76729 0.0
C1880 C 0.25802 0.02087 0.75557 0.0
C1881 C 0.25574 0.03469 0.75416 0.0
C1882 C 0.28086 0.9515 0.76514 0.0
C1883 C 0.2917 0.94381 0.76985 0.0
C1884 C 0.29809 0.93482 0.76133 0.0
C1885 C 0.29375 0.93336 0.74791 0.0
C1886 C 0.28328 0.94144 0.74295 0.0
C1887 C 0.27687 0.95048 0.7515 0.0
C1888 C 0.2624 0.95075 0.78108 0.0
C1889 C 0.25198 0.94465 0.77338 0.0
C1890 C 0.24323 0.93512 0.77927 0.0
C1891 C 0.24475 0.93151 0.79292 0.0
C1892 C 0.25472 0.93801 0.80076 0.0
C1893 C 0.26347 0.94756 0.79486 0.0
C1894 C 0.27073 0.97283 0.77237 0.0
C1895 C 0.28018 0.98229 0.77728 0.0
C1896 C 0.27816 0.99611 0.77554 0.0
C1897 C 0.26654 1.00086 0.76887 0.0
C1898 C 0.25714 0.9913 0.76377 0.0
C1899 C 0.25924 0.97745 0.76542 0.0
H1900 H 0.94986 0.2302 0.75482 0.0
N1901 N 0.96447 0.25227 0.75976 0.0
H1902 H 0.93319 0.21922 0.76973 0.0
H1903 H 0.96072 0.25797 0.78644 0.0
H1904 H 0.94395 0.24701 0.80139 0.0
H1905 H 0.95423 0.27546 0.76999 0.0
H1906 H 0.93825 0.29035 0.75842 0.0
H1907 H 0.95794 0.25222 0.7337 0.0
H1908 H 0.94192 0.26714 0.7221 0.0
H1909 H 0.98335 0.23554 0.75181 0.0
H1910 H 0.97791 0.27251 0.77331 0.0
H1911 H 0.0078 0.23748 0.75523 0.0
H1912 H 1.00239 0.27489 0.77639 0.0
H1913 H 0.06454 0.23549 0.76563 0.0
H1914 H 0.08006 0.21817 0.77378 0.0
H1915 H 0.09792 0.24646 0.80174 0.0
H1916 H 0.08237 0.26386 0.79356 0.0
H1917 H 0.07371 0.28766 0.77339 0.0
H1918 H 0.09 0.29871 0.758 0.0
H1919 H 0.09059 0.26285 0.73385 0.0
H1920 H 0.07463 0.25176 0.74923 0.0
H1921 H 0.05139 0.25184 0.75083 0.0
H1922 H 0.02703 0.24989 0.74797 0.0
H1923 H 0.02158 0.26606 0.7879 0.0
N1924 N 0.06515 0.26211 0.77291 0.0
H1925 H 0.04615 0.26845 0.79045 0.0
C1926 C 0.95654 0.24482 0.76952 0.0
C1927 C 0.94885 0.2337 0.76508 0.0
C1928 C 0.93934 0.22751 0.77354 0.0
C1929 C 0.93735 0.23234 0.78662 0.0
C1930 C 0.9454 0.24313 0.79133 0.0
C1931 C 0.95496 0.24936 0.78282 0.0
C1932 C 0.95736 0.26274 0.75264 0.0
C1933 C 0.95195 0.27379 0.75944 0.0
C1934 C 0.94277 0.28225 0.75287 0.0
C1935 C 0.93887 0.27977 0.73944 0.0
C1936 C 0.94483 0.26921 0.73245 0.0
C1937 C 0.95399 0.26077 0.73902 0.0
C1938 C 0.9788 0.25388 0.76219 0.0
C1939 C 0.98748 0.24413 0.75721 0.0
C1940 C 1.00147 0.24534 0.7591 0.0
C1941 C 0.00719 0.25642 0.76599 0.0
C1942 C 0.99841 0.26614 0.77114 0.0
C1943 C 0.98436 0.26486 0.7693 0.0
C1944 C 0.07224 0.25101 0.77906 0.0
C1945 C 0.07152 0.23792 0.77374 0.0
C1946 C 0.0804 0.22804 0.77835 0.0
C1947 C 0.09012 0.23108 0.78834 0.0
C1948 C 0.09045 0.24393 0.79408 0.0
C1949 C 0.08157 0.2538 0.78947 0.0
C1950 C 0.07276 0.26898 0.76244 0.0
C1951 C 0.07709 0.28232 0.76458 0.0
C1952 C 0.08639 0.28858 0.75587 0.0
C1953 C 0.09144 0.28157 0.74481 0.0
C1954 C 0.08671 0.26843 0.74228 0.0
C1955 C 0.0775 0.26215 0.75105 0.0
C1956 C 0.05071 0.26043 0.77088 0.0
C1957 C 0.04505 0.25504 0.75898 0.0
C1958 C 0.031 0.25382 0.7574 0.0
C1959 C 0.02221 0.25781 0.7677 0.0
C1960 C 0.02794 0.26307 0.77964 0.0
C1961 C 0.042 0.26436 0.78117 0.0
H1962 H 0.78529 0.9588 0.76454 0.0
N1963 N 0.75909 0.96196 0.77254 0.0
H1964 H 0.80122 0.94242 0.77401 0.0
H1965 H 0.7563 0.94759 0.79507 0.0
H1966 H 0.77223 0.93126 0.80458 0.0
H1967 H 0.73331 0.95442 0.77486 0.0
H1968 H 0.7208 0.93807 0.76077 0.0
H1969 H 0.76761 0.95174 0.74849 0.0
H1970 H 0.75507 0.9356 0.73436 0.0
H1971 H 0.77127 0.97476 0.75098 0.0
H1972 H 0.75194 0.98139 0.7891 0.0
H1973 H 0.7738 0.99903 0.74753 0.0
H1974 H 0.75485 1.00574 0.78601 0.0
H1975 H 0.79186 0.0784 0.75429 0.0
H1976 H 0.80166 0.09457 0.77044 0.0
H1977 H 0.77478 0.07927 0.80123 0.0
H1978 H 0.765 0.06309 0.78509 0.0
H1979 H 0.74787 0.07216 0.76923 0.0
H1980 H 0.73256 0.08812 0.75839 0.0
H1981 H 0.75461 0.08504 0.72122 0.0
H1982 H 0.77001 0.06895 0.7321 0.0
H1983 H 0.78797 0.04294 0.75141 0.0
H1984 H 0.7857 0.01859 0.75499 0.0
H1985 H 0.74673 0.02432 0.77332 0.0
N1986 N 0.77079 0.06194 0.75808 0.0
H1987 H 0.74935 0.04859 0.77013 0.0
C1988 C 0.76959 0.95444 0.77916 0.0
C1989 C 0.78247 0.95308 0.77345 0.0
C1990 C 0.79154 0.94372 0.77883 0.0
C1991 C 0.78785 0.93564 0.78996 0.0
C1992 C 0.77526 0.93744 0.79602 0.0
C1993 C 0.76623 0.94677 0.79065 0.0
C1994 C 0.75131 0.95445 0.7627 0.0
C1995 C 0.73797 0.95064 0.76582 0.0
C1996 C 0.73089 0.9413 0.75785 0.0
C1997 C 0.73704 0.93567 0.74656 0.0
C1998 C 0.75015 0.93993 0.743 0.0
C1999 C 0.75726 0.94921 0.75103 0.0
C2000 C 0.76129 0.97622 0.7703 0.0
C2001 C 0.76762 0.98141 0.75867 0.0
C2002 C 0.76916 0.99537 0.75675 0.0
C2003 C 0.76449 1.00446 0.76646 0.0
C2004 C 0.75835 0.99915 0.77818 0.0
C2005 C 0.75677 0.98522 0.78003 0.0
C2006 C 0.77777 0.06951 0.76846 0.0
C2007 C 0.78833 0.07831 0.76461 0.0
C2008 C 0.79386 0.08753 0.77378 0.0
C2009 C 0.78891 0.0881 0.78698 0.0
C2010 C 0.77875 0.07892 0.79108 0.0
C2011 C 0.7732 0.06968 0.78188 0.0
C2012 C 0.76009 0.06923 0.75142 0.0
C2013 C 0.74923 0.07454 0.75865 0.0
C2014 C 0.74051 0.08372 0.75249 0.0
C2015 C 0.7425 0.08776 0.73903 0.0
C2016 C 0.7529 0.08199 0.73161 0.0
C2017 C 0.76161 0.07279 0.73777 0.0
C2018 C 0.76885 0.04764 0.76038 0.0
C2019 C 0.77895 0.0389 0.75621 0.0
C2020 C 0.77757 0.02496 0.75819 0.0
C2021 C 0.76599 0.01938 0.7644 0.0
C2022 C 0.75588 0.0282 0.76865 0.0
C2023 C 0.75731 0.04216 0.76672 0.0
H2024 H 0.26456 0.74728 0.45097 0.0
N2025 N 0.25464 0.77017 0.46222 0.0
H2026 H 0.25265 0.73281 0.43465 0.0
H2027 H 0.22849 0.7704 0.45593 0.0
H2028 H 0.21656 0.7559 0.43953 0.0
H2029 H 0.25022 0.79238 0.44795 0.0
H2030 H 0.26547 0.80334 0.43158 0.0
H2031 H 0.28131 0.76427 0.45859 0.0
H2032 H 0.29659 0.77521 0.44214 0.0
H2033 H 0.26749 0.74905 0.47464 0.0
H2034 H 0.24764 0.7865 0.48192 0.0
H2035 H 0.27077 0.74578 0.4989 0.0
H2036 H 0.25133 0.78365 0.50621 0.0
H2037 H 0.27149 0.73071 0.56902 0.0
H2038 H 0.2575 0.71817 0.58546 0.0
H2039 H 0.23166 0.75242 0.58907 0.0
H2040 H 0.2456 0.76493 0.57277 0.0
H2041 H 0.26133 0.78243 0.56576 0.0
H2042 H 0.27095 0.79833 0.5823 0.0
H2043 H 0.30212 0.77005 0.59226 0.0
H2044 H 0.29236 0.75406 0.57589 0.0
H2045 H 0.28614 0.75015 0.54231 0.0
H2046 H 0.28305 0.75352 0.51799 0.0
H2047 H 0.24414 0.77109 0.52529 0.0
N2048 N 0.26947 0.7565 0.56202 0.0
H2049 H 0.24761 0.76814 0.54953 0.0
C2050 C 0.24735 0.75991 0.45476 0.0
C2051 C 0.25399 0.74901 0.44889 0.0
C2052 C 0.24722 0.74079 0.43951 0.0
C2053 C 0.23377 0.74335 0.43586 0.0
C2054 C 0.22694 0.75376 0.44225 0.0
C2055 C 0.2337 0.76197 0.45162 0.0
C2056 C 0.26462 0.77759 0.45451 0.0
C2057 C 0.26044 0.7888 0.44697 0.0
C2058 C 0.26909 0.79499 0.43762 0.0
C2059 C 0.28211 0.79006 0.43566 0.0
C2060 C 0.28657 0.77917 0.44357 0.0
C2061 C 0.27788 0.77296 0.45296 0.0
C2062 C 0.25718 0.768 0.47644 0.0
C2063 C 0.26388 0.75662 0.48144 0.0
C2064 C 0.26585 0.75482 0.49538 0.0
C2065 C 0.26128 0.76442 0.50464 0.0
C2066 C 0.25476 0.77589 0.49951 0.0
C2067 C 0.25273 0.77761 0.4856 0.0
C2068 C 0.2596 0.7487 0.56954 0.0
C2069 C 0.26258 0.73536 0.57306 0.0
C2070 C 0.25467 0.72826 0.58246 0.0
C2071 C 0.2436 0.73442 0.5885 0.0
C2072 C 0.24014 0.74751 0.58449 0.0
C2073 C 0.24809 0.75462 0.5751 0.0
C2074 C 0.27616 0.76702 0.56962 0.0
C2075 C 0.27036 0.77973 0.5713 0.0
C2076 C 0.27584 0.7888 0.58073 0.0
C2077 C 0.28721 0.7853 0.58849 0.0
C2078 C 0.29337 0.77291 0.58632 0.0
C2079 C 0.28786 0.76385 0.57698 0.0
C2080 C 0.26713 0.75879 0.54777 0.0
C2081 C 0.27696 0.75476 0.53862 0.0
C2082 C 0.27512 0.7566 0.5247 0.0
C2083 C 0.26329 0.76252 0.51955 0.0
C2084 C 0.25345 0.76665 0.52881 0.0
C2085 C 0.25537 0.76486 0.54276 0.0
H2086 H 0.77881 0.79243 0.57976 0.0
N2087 N 0.77244 0.77104 0.56507 0.0
H2088 H 0.76427 0.8041 0.59572 0.0
H2089 H 0.74504 0.76723 0.56759 0.0
H2090 H 0.73047 0.77887 0.58362 0.0
H2091 H 0.7595 0.74945 0.57702 0.0
H2092 H 0.76949 0.73369 0.59323 0.0
H2093 H 0.7985 0.76864 0.57128 0.0
H2094 H 0.80852 0.7528 0.58763 0.0
H2095 H 0.78018 0.7871 0.54492 0.0
H2096 H 0.75837 0.75006 0.55319 0.0
H2097 H 0.77658 0.78391 0.5207 0.0
H2098 H 0.75526 0.74641 0.52907 0.0
H2099 H 0.76436 0.78245 0.4634 0.0
H2100 H 0.75414 0.79808 0.44702 0.0
H2101 H 0.72692 0.76646 0.43363 0.0
H2102 H 0.73717 0.75083 0.44997 0.0
H2103 H 0.75911 0.72957 0.45885 0.0
H2104 H 0.77428 0.7191 0.44254 0.0
H2105 H 0.79667 0.75654 0.43872 0.0
H2106 H 0.78149 0.76703 0.45476 0.0
H2107 H 0.7806 0.76746 0.4782 0.0
H2108 H 0.78356 0.77102 0.50232 0.0
H2109 H 0.74387 0.75355 0.5094 0.0
N2110 N 0.75861 0.75541 0.46562 0.0
H2111 H 0.74131 0.74946 0.4852 0.0
C2112 C 0.76303 0.77903 0.57247 0.0
C2113 C 0.76819 0.78966 0.58031 0.0
C2114 C 0.75994 0.79624 0.58942 0.0
C2115 C 0.74634 0.79231 0.59084 0.0
C2116 C 0.74095 0.78205 0.58261 0.0
C2117 C 0.74924 0.77545 0.57346 0.0
C2118 C 0.77831 0.76022 0.57283 0.0
C2119 C 0.77026 0.75008 0.57894 0.0
C2120 C 0.77594 0.7411 0.58826 0.0
C2121 C 0.78972 0.74213 0.59162 0.0
C2122 C 0.79788 0.75185 0.58511 0.0
C2123 C 0.79219 0.76081 0.57578 0.0
C2124 C 0.76969 0.76882 0.55091 0.0
C2125 C 0.77466 0.77824 0.54148 0.0
C2126 C 0.77269 0.77632 0.52762 0.0
C2127 C 0.76573 0.76482 0.5228 0.0
C2128 C 0.76055 0.75546 0.53232 0.0
C2129 C 0.76242 0.75748 0.54621 0.0
C2130 C 0.75146 0.76545 0.45791 0.0
C2131 C 0.75601 0.77895 0.45717 0.0
C2132 C 0.75021 0.78785 0.44782 0.0
C2133 C 0.73982 0.78337 0.43914 0.0
C2134 C 0.7349 0.77009 0.44029 0.0
C2135 C 0.74069 0.76122 0.44961 0.0
C2136 C 0.76921 0.749 0.4582 0.0
C2137 C 0.76753 0.73539 0.45479 0.0
C2138 C 0.7761 0.72946 0.44547 0.0
C2139 C 0.78656 0.73707 0.43947 0.0
C2140 C 0.7887 0.7505 0.44333 0.0
C2141 C 0.78007 0.75645 0.45258 0.0
C2142 C 0.76075 0.75799 0.47983 0.0
C2143 C 0.77256 0.76429 0.48488 0.0
C2144 C 0.77418 0.76646 0.49877 0.0
C2145 C 0.76397 0.76256 0.50794 0.0
C2146 C 0.75209 0.75646 0.50277 0.0
C2147 C 0.75055 0.75419 0.48891 0.0
H2148 H 0.78694 0.26634 0.56728 0.0
N2149 N 0.75973 0.26974 0.56351 0.0
H2150 H 0.80125 0.27826 0.58395 0.0
H2151 H 0.75337 0.29117 0.57773 0.0
H2152 H 0.76765 0.30312 0.5943 0.0
H2153 H 0.73359 0.26723 0.5693 0.0
H2154 H 0.7231 0.25147 0.58562 0.0
H2155 H 0.77195 0.2481 0.57552 0.0
H2156 H 0.7615 0.23241 0.59171 0.0
H2157 H 0.77345 0.24906 0.55177 0.0
H2158 H 0.75271 0.28599 0.54334 0.0
H2159 H 0.77688 0.24579 0.52769 0.0
H2160 H 0.75666 0.28322 0.51921 0.0
H2161 H 0.79537 0.25006 0.44864 0.0
H2162 H 0.80617 0.26539 0.43218 0.0
H2163 H 0.78102 0.29761 0.4455 0.0
H2164 H 0.77023 0.28228 0.46199 0.0
H2165 H 0.75246 0.26711 0.45247 0.0
H2166 H 0.73664 0.25661 0.43645 0.0
H2167 H 0.75622 0.21853 0.44216 0.0
H2168 H 0.77213 0.22907 0.45832 0.0
H2169 H 0.79137 0.24919 0.48426 0.0
H2170 H 0.78866 0.2531 0.50842 0.0
H2171 H 0.74973 0.27073 0.50036 0.0
N2172 N 0.77442 0.25512 0.46425 0.0
H2173 H 0.75288 0.26738 0.47629 0.0
C2174 C 0.76907 0.27794 0.57126 0.0
C2175 C 0.78274 0.27454 0.57291 0.0
C2176 C 0.79089 0.28131 0.58242 0.0
C2177 C 0.78546 0.29153 0.59034 0.0
C2178 C 0.77201 0.29529 0.58825 0.0
C2179 C 0.76391 0.28854 0.57879 0.0
C2180 C 0.75349 0.25882 0.57107 0.0
C2181 C 0.73964 0.25941 0.57387 0.0
C2182 C 0.7337 0.25049 0.5832 0.0
C2183 C 0.74155 0.24082 0.58987 0.0
C2184 C 0.75528 0.23978 0.58662 0.0
C2185 C 0.76122 0.24871 0.57731 0.0
C2186 C 0.76263 0.26773 0.5494 0.0
C2187 C 0.7697 0.25653 0.54477 0.0
C2188 C 0.77176 0.25474 0.5309 0.0
C2189 C 0.76699 0.26419 0.52134 0.0
C2190 C 0.76023 0.27554 0.52613 0.0
C2191 C 0.75806 0.27723 0.53995 0.0
C2192 C 0.78206 0.265 0.45657 0.0
C2193 C 0.79244 0.26051 0.44825 0.0
C2194 C 0.79854 0.26922 0.43886 0.0
C2195 C 0.79435 0.28259 0.43763 0.0
C2196 C 0.78439 0.28732 0.44635 0.0
C2197 C 0.77827 0.27858 0.45577 0.0
C2198 C 0.76348 0.24882 0.45673 0.0
C2199 C 0.75317 0.25644 0.45063 0.0
C2200 C 0.74416 0.25047 0.44141 0.0
C2201 C 0.7453 0.23682 0.43812 0.0
C2202 C 0.75517 0.22907 0.44462 0.0
C2203 C 0.76417 0.23504 0.45386 0.0
C2204 C 0.77234 0.25783 0.47841 0.0
C2205 C 0.78229 0.25395 0.48775 0.0
C2206 C 0.78064 0.2561 0.50159 0.0
C2207 C 0.76891 0.26216 0.50649 0.0
C2208 C 0.75899 0.2662 0.49705 0.0
C2209 C 0.76072 0.26415 0.48318 0.0
H2210 H 0.28445 0.25357 0.46374 0.0
N2211 N 0.25731 0.24765 0.46574 0.0
H2212 H 0.29998 0.24384 0.44739 0.0
H2213 H 0.25284 0.22626 0.45037 0.0
H2214 H 0.26841 0.21646 0.43409 0.0
H2215 H 0.23123 0.24833 0.45908 0.0
H2216 H 0.22035 0.2638 0.44292 0.0
H2217 H 0.26888 0.27038 0.45447 0.0
H2218 H 0.25804 0.28577 0.43849 0.0
H2219 H 0.27056 0.26898 0.47794 0.0
H2220 H 0.24968 0.23131 0.48572 0.0
H2221 H 0.27343 0.27247 0.5021 0.0
H2222 H 0.25294 0.23444 0.51003 0.0
H2223 H 0.29235 0.26632 0.58077 0.0
H2224 H 0.30182 0.25037 0.59728 0.0
H2225 H 0.27271 0.22013 0.58464 0.0
H2226 H 0.26324 0.23609 0.56811 0.0
H2227 H 0.24712 0.25288 0.57655 0.0
H2228 H 0.23294 0.26476 0.59258 0.0
H2229 H 0.25751 0.30067 0.58729 0.0
H2230 H 0.27173 0.28877 0.57117 0.0
H2231 H 0.2879 0.26871 0.54578 0.0
H2232 H 0.28525 0.26485 0.52154 0.0
H2233 H 0.24555 0.2474 0.52857 0.0
N2234 N 0.2706 0.26271 0.56532 0.0
H2235 H 0.24855 0.25089 0.55278 0.0
C2236 C 0.26744 0.24059 0.45829 0.0
C2237 C 0.28093 0.24528 0.45756 0.0
C2238 C 0.28979 0.23975 0.44822 0.0
C2239 C 0.2853 0.22948 0.43953 0.0
C2240 C 0.27206 0.22436 0.44074 0.0
C2241 C 0.26322 0.22988 0.45004 0.0
C2242 C 0.2508 0.2582 0.45811 0.0
C2243 C 0.23703 0.25669 0.45488 0.0
C2244 C 0.23087 0.26545 0.44566 0.0
C2245 C 0.23843 0.27588 0.43954 0.0
C2246 C 0.25206 0.2778 0.44317 0.0
C2247 C 0.25821 0.26903 0.45237 0.0
C2248 C 0.25978 0.24987 0.47996 0.0
C2249 C 0.26665 0.26139 0.48481 0.0
C2250 C 0.26837 0.26333 0.49872 0.0
C2251 C 0.26339 0.25376 0.50813 0.0
C2252 C 0.25671 0.24216 0.50317 0.0
C2253 C 0.25493 0.24028 0.48927 0.0
C2254 C 0.27717 0.2524 0.57318 0.0
C2255 C 0.28824 0.25615 0.58134 0.0
C2256 C 0.29358 0.2471 0.59075 0.0
C2257 C 0.28794 0.23412 0.59215 0.0
C2258 C 0.27721 0.23011 0.58364 0.0
C2259 C 0.27184 0.2392 0.57421 0.0
C2260 C 0.26049 0.27 0.57256 0.0
C2261 C 0.24925 0.26341 0.57846 0.0
C2262 C 0.24118 0.27016 0.58768 0.0
C2263 C 0.24424 0.28355 0.59114 0.0
C2264 C 0.25499 0.29034 0.58471 0.0
C2265 C 0.26304 0.2836 0.5755 0.0
C2266 C 0.26844 0.26022 0.55111 0.0
C2267 C 0.27864 0.26404 0.54205 0.0
C2268 C 0.27705 0.2619 0.52818 0.0
C2269 C 0.26514 0.25587 0.52299 0.0
C2270 C 0.25493 0.25193 0.53215 0.0
C2271 C 0.25658 0.25403 0.54606 0.0
H2272 H 0.77746 0.44672 0.7935 0.0
N2273 N 0.77408 0.46209 0.77173 0.0
H2274 H 0.76124 0.43029 0.80311 0.0
H2275 H 0.7474 0.45924 0.76449 0.0
H2276 H 0.73118 0.44281 0.7741 0.0
H2277 H 0.76428 0.45076 0.74837 0.0
H2278 H 0.77612 0.4346 0.73436 0.0
H2279 H 0.80018 0.45627 0.77279 0.0
H2280 H 0.81204 0.44002 0.75874 0.0
H2281 H 0.77964 0.48167 0.78904 0.0
H2282 H 0.76268 0.47446 0.74953 0.0
H2283 H 0.7755 0.50575 0.78642 0.0
H2284 H 0.75894 0.49854 0.74656 0.0
H2285 H 0.76338 0.56374 0.78575 0.0
H2286 H 0.75278 0.57963 0.80115 0.0
H2287 H 0.72458 0.59076 0.76978 0.0
H2288 H 0.73533 0.57503 0.7543 0.0
H2289 H 0.7583 0.56808 0.73276 0.0
H2290 H 0.77362 0.58472 0.72199 0.0
H2291 H 0.79534 0.58932 0.7596 0.0
H2292 H 0.78012 0.57287 0.77033 0.0
H2293 H 0.77895 0.54949 0.77219 0.0
H2294 H 0.78293 0.52548 0.77491 0.0
H2295 H 0.74545 0.5166 0.75381 0.0
N2296 N 0.75759 0.56111 0.75875 0.0
H2297 H 0.74185 0.54075 0.7507 0.0
C2298 C 0.76365 0.45423 0.77836 0.0
C2299 C 0.76727 0.44614 0.78943 0.0
C2300 C 0.75807 0.43677 0.79486 0.0
C2301 C 0.74506 0.43537 0.78929 0.0
C2302 C 0.74118 0.44382 0.77855 0.0
C2303 C 0.75042 0.45319 0.77309 0.0
C2304 C 0.78141 0.45484 0.76164 0.0
C2305 C 0.77482 0.44885 0.75049 0.0
C2306 C 0.78154 0.43956 0.74251 0.0
C2307 C 0.79492 0.43608 0.74558 0.0
C2308 C 0.80173 0.4426 0.75621 0.0
C2309 C 0.79501 0.4519 0.76417 0.0
C2310 C 0.77161 0.47624 0.7695 0.0
C2311 C 0.77513 0.48533 0.77974 0.0
C2312 C 0.77282 0.49912 0.77817 0.0
C2313 C 0.76694 0.50421 0.76623 0.0
C2314 C 0.76335 0.49503 0.75596 0.0
C2315 C 0.76559 0.4812 0.7576 0.0
C2316 C 0.75012 0.56821 0.76882 0.0
C2317 C 0.75476 0.56937 0.78224 0.0
C2318 C 0.74873 0.57843 0.79103 0.0
C2319 C 0.73794 0.58636 0.78655 0.0
C2320 C 0.73286 0.58469 0.77341 0.0
C2321 C 0.73894 0.57571 0.76463 0.0
C2322 C 0.76806 0.56911 0.75229 0.0
C2323 C 0.76658 0.57243 0.73857 0.0
C2324 C 0.77525 0.58192 0.73247 0.0
C2325 C 0.78557 0.58822 0.74004 0.0
C2326 C 0.78746 0.58451 0.75361 0.0
C2327 C 0.77878 0.57504 0.7597 0.0
C2328 C 0.76009 0.54698 0.76112 0.0
C2329 C 0.77159 0.54244 0.76811 0.0
C2330 C 0.77381 0.52861 0.76975 0.0
C2331 C 0.76455 0.51899 0.76455 0.0
C2332 C 0.75296 0.52363 0.75774 0.0
C2333 C 0.7508 0.53744 0.75605 0.0
H2334 H 0.26358 0.56104 0.78116 0.0
N2335 N 0.26943 0.55929 0.75422 0.0
H2336 H 0.27385 0.57712 0.79711 0.0
H2337 H 0.29109 0.57492 0.75029 0.0
H2338 H 0.30143 0.59095 0.76627 0.0
H2339 H 0.26909 0.56734 0.72855 0.0
H2340 H 0.25374 0.58369 0.71803 0.0
H2341 H 0.24623 0.56891 0.76537 0.0
H2342 H 0.23084 0.58494 0.75481 0.0
H2343 H 0.24838 0.54592 0.76693 0.0
H2344 H 0.28621 0.54027 0.74669 0.0
H2345 H 0.24578 0.52167 0.77003 0.0
H2346 H 0.28399 0.51591 0.7502 0.0
H2347 H 0.25584 0.4452 0.79169 0.0
H2348 H 0.27231 0.42957 0.80149 0.0
H2349 H 0.30085 0.44095 0.77058 0.0
H2350 H 0.28444 0.45673 0.7609 0.0
H2351 H 0.26722 0.4485 0.74534 0.0
H2352 H 0.25507 0.43185 0.7315 0.0
H2353 H 0.22013 0.43519 0.75689 0.0
H2354 H 0.23231 0.45193 0.77079 0.0
H2355 H 0.25153 0.4788 0.78563 0.0
H2356 H 0.25432 0.50313 0.78239 0.0
H2357 H 0.27184 0.49632 0.74324 0.0
N2358 N 0.25818 0.45932 0.76894 0.0
H2359 H 0.26947 0.47205 0.74686 0.0
C2360 C 0.27663 0.56677 0.76451 0.0
C2361 C 0.27201 0.5673 0.77789 0.0
C2362 C 0.27784 0.57648 0.78699 0.0
C2363 C 0.28836 0.58522 0.78282 0.0
C2364 C 0.29335 0.58426 0.76966 0.0
C2365 C 0.28752 0.57512 0.7606 0.0
C2366 C 0.25877 0.5667 0.74766 0.0
C2367 C 0.26053 0.57085 0.7342 0.0
C2368 C 0.25184 0.58019 0.72824 0.0
C2369 C 0.24118 0.58547 0.73566 0.0
C2370 C 0.23896 0.58088 0.74891 0.0
C2371 C 0.24772 0.57162 0.7549 0.0
C2372 C 0.26749 0.54498 0.75642 0.0
C2373 C 0.25617 0.53951 0.76315 0.0
C2374 C 0.25475 0.52554 0.76504 0.0
C2375 C 0.26467 0.51671 0.76037 0.0
C2376 C 0.27602 0.52229 0.75374 0.0
C2377 C 0.27737 0.53623 0.7518 0.0
C2378 C 0.26889 0.45213 0.77562 0.0
C2379 C 0.26577 0.44458 0.78725 0.0
C2380 C 0.27512 0.43566 0.79278 0.0
C2381 C 0.28774 0.4341 0.78671 0.0
C2382 C 0.29115 0.44205 0.7754 0.0
C2383 C 0.28179 0.45105 0.76989 0.0
C2384 C 0.25062 0.45155 0.75912 0.0
C2385 C 0.25683 0.446 0.74775 0.0
C2386 C 0.24993 0.43644 0.73987 0.0
C2387 C 0.23674 0.43228 0.74323 0.0
C2388 C 0.23029 0.43831 0.75413 0.0
C2389 C 0.23719 0.44787 0.76201 0.0
C2390 C 0.26018 0.47358 0.76652 0.0
C2391 C 0.25601 0.4826 0.77638 0.0
C2392 C 0.25751 0.49652 0.77443 0.0
C2393 C 0.26322 0.5018 0.76249 0.0
C2394 C 0.26753 0.49268 0.75263 0.0
C2395 C 0.26608 0.47873 0.75464 0.0
H2396 H 0.27937 0.56023 0.27325 0.0
N2397 N 0.25335 0.55957 0.26351 0.0
H2398 H 0.29743 0.57585 0.26599 0.0
H2399 H 0.25315 0.57598 0.24217 0.0
H2400 H 0.2713 0.5916 0.23485 0.0
H2401 H 0.22799 0.5676 0.26048 0.0
H2402 H 0.21621 0.5842 0.27424 0.0
H2403 H 0.26197 0.56947 0.28799 0.0
H2404 H 0.25015 0.58576 0.30175 0.0
H2405 H 0.26188 0.54633 0.2866 0.0
H2406 H 0.24874 0.54039 0.24547 0.0
H2407 H 0.26469 0.52218 0.28942 0.0
H2408 H 0.25197 0.51612 0.24805 0.0
H2409 H 0.28913 0.44639 0.28224 0.0
H2410 H 0.30132 0.431 0.26756 0.0
H2411 H 0.27534 0.44184 0.23421 0.0
H2412 H 0.26318 0.4573 0.24891 0.0
H2413 H 0.24519 0.44834 0.26357 0.0
H2414 H 0.22984 0.43138 0.27343 0.0
H2415 H 0.24992 0.43579 0.31194 0.0
H2416 H 0.26534 0.45286 0.30206 0.0
H2417 H 0.28213 0.48016 0.2859 0.0
H2418 H 0.27888 0.50436 0.2829 0.0
H2419 H 0.24329 0.49607 0.25854 0.0
N2420 N 0.26709 0.46005 0.2762 0.0
H2421 H 0.24695 0.47193 0.26126 0.0
C2422 C 0.26488 0.5669 0.25818 0.0
C2423 C 0.27758 0.5668 0.26468 0.0
C2424 C 0.28788 0.57573 0.26056 0.0
C2425 C 0.28565 0.58485 0.2499 0.0
C2426 C 0.2732 0.58458 0.24305 0.0
C2427 C 0.2629 0.57567 0.24718 0.0
C2428 C 0.24577 0.56709 0.27322 0.0
C2429 C 0.23271 0.57122 0.26969 0.0
C2430 C 0.22604 0.58071 0.27748 0.0
C2431 C 0.23233 0.58616 0.28899 0.0
C2432 C 0.2451 0.58157 0.29295 0.0
C2433 C 0.25181 0.57217 0.28511 0.0
C2434 C 0.25495 0.54526 0.26579 0.0
C2435 C 0.25957 0.53988 0.27814 0.0
C2436 C 0.26131 0.52598 0.27971 0.0
C2437 C 0.25859 0.51709 0.26896 0.0
C2438 C 0.25397 0.52254 0.25663 0.0
C2439 C 0.25219 0.53644 0.2551 0.0
C2440 C 0.27532 0.45303 0.2667 0.0
C2441 C 0.28629 0.4457 0.27169 0.0
C2442 C 0.29318 0.4369 0.26335 0.0
C2443 C 0.2892 0.43529 0.24984 0.0
C2444 C 0.27857 0.44301 0.24461 0.0
C2445 C 0.27166 0.45184 0.25299 0.0
C2446 C 0.2564 0.45197 0.28214 0.0
C2447 C 0.24609 0.44601 0.27421 0.0
C2448 C 0.23736 0.43626 0.27981 0.0
C2449 C 0.2388 0.43234 0.29338 0.0
C2450 C 0.24865 0.43873 0.30146 0.0
C2451 C 0.25737 0.44848 0.29586 0.0
C2452 C 0.2648 0.47421 0.27389 0.0
C2453 C 0.27366 0.4836 0.27988 0.0
C2454 C 0.2717 0.49744 0.27824 0.0
C2455 C 0.26074 0.50227 0.27056 0.0
C2456 C 0.25192 0.49279 0.26442 0.0
C2457 C 0.25394 0.47891 0.26603 0.0
H2458 H 0.7902 0.4584 0.26449 0.0
N2459 N 0.76427 0.46179 0.27318 0.0
H2460 H 0.80632 0.44207 0.27373 0.0
H2461 H 0.76212 0.44786 0.29607 0.0
H2462 H 0.77832 0.43169 0.30544 0.0
H2463 H 0.73843 0.45453 0.27573 0.0
H2464 H 0.72563 0.43825 0.26181 0.0
H2465 H 0.77246 0.45135 0.24909 0.0
H2466 H 0.7597 0.43517 0.23524 0.0
H2467 H 0.77585 0.47464 0.25134 0.0
H2468 H 0.75761 0.48116 0.29001 0.0
H2469 H 0.77832 0.49892 0.24791 0.0
H2470 H 0.76047 0.50551 0.28695 0.0
H2471 H 0.79621 0.57846 0.2541 0.0
H2472 H 0.80617 0.59497 0.2698 0.0
H2473 H 0.78038 0.5796 0.30147 0.0
H2474 H 0.77045 0.56306 0.28578 0.0
H2475 H 0.75278 0.5719 0.27041 0.0
H2476 H 0.73701 0.58765 0.25997 0.0
H2477 H 0.75793 0.58457 0.22215 0.0
H2478 H 0.7738 0.56868 0.23263 0.0
H2479 H 0.79249 0.54286 0.25146 0.0
H2480 H 0.79039 0.5185 0.25507 0.0
H2481 H 0.752 0.52411 0.2746 0.0
N2482 N 0.77543 0.5618 0.25861 0.0
H2483 H 0.75447 0.54838 0.27139 0.0
C2484 C 0.77493 0.45432 0.27963 0.0
C2485 C 0.78762 0.45282 0.27356 0.0
C2486 C 0.79681 0.44351 0.27882 0.0
C2487 C 0.79345 0.43568 0.29023 0.0
C2488 C 0.78108 0.43768 0.29666 0.0
C2489 C 0.7719 0.4469 0.29137 0.0
C2490 C 0.75634 0.45426 0.26346 0.0
C2491 C 0.74299 0.45062 0.2667 0.0
C2492 C 0.73574 0.44132 0.25882 0.0
C2493 C 0.74176 0.43549 0.24756 0.0
C2494 C 0.75489 0.43959 0.24388 0.0
C2495 C 0.76214 0.4489 0.25178 0.0
C2496 C 0.76641 0.47605 0.27093 0.0
C2497 C 0.77243 0.48127 0.25915 0.0
C2498 C 0.77393 0.49524 0.25725 0.0
C2499 C 0.76955 0.5043 0.26712 0.0
C2500 C 0.76373 0.49895 0.27899 0.0
C2501 C 0.76218 0.48502 0.28082 0.0
C2502 C 0.78265 0.5695 0.26873 0.0
C2503 C 0.79298 0.57841 0.26452 0.0
C2504 C 0.79859 0.58783 0.27343 0.0
C2505 C 0.79397 0.58849 0.28675 0.0
C2506 C 0.78409 0.57919 0.29122 0.0
C2507 C 0.77846 0.56974 0.28228 0.0
C2508 C 0.76448 0.56897 0.25224 0.0
C2509 C 0.7538 0.57422 0.25979 0.0
C2510 C 0.74481 0.58329 0.25386 0.0
C2511 C 0.74635 0.58728 0.24032 0.0
C2512 C 0.75657 0.58157 0.2326 0.0
C2513 C 0.76555 0.57248 0.23854 0.0
C2514 C 0.77366 0.5475 0.26103 0.0
C2515 C 0.78364 0.53879 0.25654 0.0
C2516 C 0.78236 0.52485 0.25853 0.0
C2517 C 0.77098 0.51923 0.26508 0.0
C2518 C 0.761 0.52802 0.26967 0.0
C2519 C 0.76234 0.54199 0.26773 0.0
H2520 H 0.56913 0.28043 0.76191 0.0
N2521 N 0.56445 0.25367 0.76735 0.0
H2522 H 0.58545 0.2952 0.77381 0.0
H2523 H 0.57745 0.2484 0.79025 0.0
H2524 H 0.59357 0.26321 0.80228 0.0
H2525 H 0.57154 0.22798 0.76716 0.0
H2526 H 0.58806 0.21756 0.7522 0.0
H2527 H 0.57529 0.26509 0.74445 0.0
H2528 H 0.59156 0.25465 0.72948 0.0
H2529 H 0.55224 0.26756 0.74656 0.0
H2530 H 0.54459 0.2457 0.78354 0.0
H2531 H 0.52809 0.2711 0.74357 0.0
H2532 H 0.5204 0.24972 0.78104 0.0
H2533 H 0.44999 0.29108 0.75004 0.0
H2534 H 0.43405 0.30115 0.76578 0.0
H2535 H 0.44696 0.27364 0.79702 0.0
H2536 H 0.46294 0.26359 0.78126 0.0
H2537 H 0.45286 0.24701 0.76531 0.0
H2538 H 0.43622 0.23228 0.75409 0.0
H2539 H 0.44188 0.25445 0.7169 0.0
H2540 H 0.45864 0.26923 0.72813 0.0
H2541 H 0.48527 0.28635 0.74827 0.0
H2542 H 0.50949 0.28299 0.7516 0.0
H2543 H 0.5009 0.24359 0.76875 0.0
N2544 N 0.46499 0.26956 0.75427 0.0
H2545 H 0.47678 0.24737 0.76597 0.0
C2546 C 0.57213 0.26329 0.77523 0.0
C2547 C 0.57426 0.27666 0.77082 0.0
C2548 C 0.58354 0.28508 0.77759 0.0
C2549 C 0.5907 0.28024 0.78888 0.0
C2550 C 0.58811 0.26711 0.79361 0.0
C2551 C 0.57892 0.25871 0.78681 0.0
C2552 C 0.572 0.24723 0.75688 0.0
C2553 C 0.57558 0.23373 0.75871 0.0
C2554 C 0.58502 0.22782 0.75025 0.0
C2555 C 0.59099 0.23536 0.73977 0.0
C2556 C 0.58697 0.24867 0.73748 0.0
C2557 C 0.57759 0.2546 0.74599 0.0
C2558 C 0.55026 0.25617 0.76522 0.0
C2559 C 0.5454 0.26352 0.75407 0.0
C2560 C 0.5315 0.26567 0.75245 0.0
C2561 C 0.52215 0.26068 0.76204 0.0
C2562 C 0.52715 0.25349 0.77328 0.0
C2563 C 0.54101 0.25126 0.7748 0.0
C2564 C 0.45768 0.27666 0.76446 0.0
C2565 C 0.44964 0.28747 0.76038 0.0
C2566 C 0.44053 0.29315 0.76931 0.0
C2567 C 0.43934 0.2881 0.78252 0.0
C2568 C 0.4478 0.27769 0.78687 0.0
C2569 C 0.45692 0.27198 0.77789 0.0
C2570 C 0.4571 0.25924 0.7475 0.0
C2571 C 0.45087 0.24852 0.75466 0.0
C2572 C 0.44131 0.24013 0.74829 0.0
C2573 C 0.43781 0.24234 0.73471 0.0
C2574 C 0.44449 0.25258 0.72738 0.0
C2575 C 0.45406 0.26096 0.73375 0.0
C2576 C 0.47916 0.26714 0.75674 0.0
C2577 C 0.48866 0.27703 0.75281 0.0
C2578 C 0.50252 0.27501 0.75462 0.0
C2579 C 0.50729 0.26295 0.76035 0.0
C2580 C 0.49769 0.25308 0.76444 0.0
C2581 C 0.4838 0.25518 0.76275 0.0
H2582 H 0.44949 0.72935 0.74911 0.0
N2583 N 0.46334 0.75192 0.75397 0.0
H2584 H 0.43338 0.7177 0.76416 0.0
H2585 H 0.45957 0.75742 0.7807 0.0
H2586 H 0.44331 0.74586 0.79575 0.0
H2587 H 0.45221 0.77452 0.76465 0.0
H2588 H 0.43578 0.78908 0.75336 0.0
H2589 H 0.45677 0.75217 0.72791 0.0
H2590 H 0.44026 0.76677 0.71659 0.0
H2591 H 0.48293 0.73557 0.74692 0.0
H2592 H 0.47593 0.77307 0.76699 0.0
H2593 H 0.50725 0.73839 0.75075 0.0
H2594 H 0.50023 0.77634 0.77036 0.0
H2595 H 0.56503 0.73901 0.7635 0.0
H2596 H 0.58128 0.72345 0.77379 0.0
H2597 H 0.59526 0.75482 0.80055 0.0
H2598 H 0.57906 0.7704 0.79022 0.0
H2599 H 0.57019 0.79202 0.76769 0.0
H2600 H 0.58654 0.80295 0.75229 0.0
H2601 H 0.59061 0.76556 0.73106 0.0
H2602 H 0.57442 0.75467 0.74638 0.0
H2603 H 0.55072 0.75376 0.74717 0.0
H2604 H 0.52646 0.75072 0.74375 0.0
H2605 H 0.5193 0.76886 0.78252 0.0
N2606 N 0.56336 0.766 0.76882 0.0
H2607 H 0.54367 0.7724 0.78552 0.0
C2608 C 0.45571 0.7442 0.76377 0.0
C2609 C 0.44842 0.7328 0.75938 0.0
C2610 C 0.43923 0.72622 0.76792 0.0
C2611 C 0.43714 0.73098 0.78101 0.0
C2612 C 0.44481 0.74207 0.78566 0.0
C2613 C 0.45408 0.74863 0.7771 0.0
C2614 C 0.45582 0.76225 0.74707 0.0
C2615 C 0.45002 0.77297 0.75407 0.0
C2616 C 0.44058 0.78125 0.74766 0.0
C2617 C 0.43678 0.77894 0.73418 0.0
C2618 C 0.44309 0.76872 0.72699 0.0
C2619 C 0.45252 0.76045 0.7334 0.0
C2620 C 0.47759 0.75411 0.75653 0.0
C2621 C 0.48668 0.74448 0.75207 0.0
C2622 C 0.50061 0.74618 0.75419 0.0
C2623 C 0.50584 0.75766 0.76079 0.0
C2624 C 0.49664 0.76728 0.76538 0.0
C2625 C 0.48267 0.7655 0.76335 0.0
C2626 C 0.57082 0.7559 0.77615 0.0
C2627 C 0.57135 0.74247 0.77178 0.0
C2628 C 0.58063 0.7336 0.77762 0.0
C2629 C 0.58947 0.73803 0.78789 0.0
C2630 C 0.58849 0.75122 0.79267 0.0
C2631 C 0.57924 0.76006 0.78684 0.0
C2632 C 0.57096 0.77259 0.75818 0.0
C2633 C 0.57433 0.7863 0.75949 0.0
C2634 C 0.58367 0.79249 0.75077 0.0
C2635 C 0.58977 0.78503 0.74058 0.0
C2636 C 0.58596 0.77148 0.73884 0.0
C2637 C 0.57664 0.76529 0.74757 0.0
C2638 C 0.54908 0.76348 0.7666 0.0
C2639 C 0.54399 0.75715 0.75492 0.0
C2640 C 0.53002 0.75531 0.75303 0.0
C2641 C 0.52078 0.75957 0.76283 0.0
C2642 C 0.52599 0.76567 0.7746 0.0
C2643 C 0.53994 0.76761 0.77641 0.0
H2644 H 0.58193 0.78639 0.25334 0.0
N2645 N 0.56638 0.76462 0.25683 0.0
H2646 H 0.59796 0.79641 0.26964 0.0
H2647 H 0.5686 0.75776 0.28359 0.0
H2648 H 0.58466 0.76778 0.29992 0.0
H2649 H 0.57771 0.74162 0.26705 0.0
H2650 H 0.59413 0.72763 0.25552 0.0
H2651 H 0.57262 0.76537 0.23078 0.0
H2652 H 0.58912 0.75135 0.21923 0.0
H2653 H 0.54698 0.78223 0.25239 0.0
H2654 H 0.5536 0.74188 0.26701 0.0
H2655 H 0.52275 0.77939 0.25631 0.0
H2656 H 0.52937 0.73865 0.27034 0.0
H2657 H 0.4611 0.77699 0.26484 0.0
H2658 H 0.44475 0.7915 0.27598 0.0
H2659 H 0.43888 0.76131 0.30703 0.0
H2660 H 0.45503 0.74671 0.29574 0.0
H2661 H 0.45755 0.72559 0.27382 0.0
H2662 H 0.4406 0.71442 0.2592 0.0
H2663 H 0.44023 0.74942 0.23318 0.0
H2664 H 0.45684 0.76064 0.24783 0.0
H2665 H 0.47879 0.76606 0.25196 0.0
H2666 H 0.50296 0.76887 0.24828 0.0
H2667 H 0.51092 0.74447 0.28375 0.0
N2668 N 0.46657 0.7509 0.27196 0.0
H2669 H 0.48658 0.74119 0.2869 0.0
C2670 C 0.57406 0.77141 0.26725 0.0
C2671 C 0.58226 0.78249 0.26358 0.0
C2672 C 0.5914 0.78815 0.27283 0.0
C2673 C 0.59246 0.78281 0.28594 0.0
C2674 C 0.58391 0.77204 0.28984 0.0
C2675 C 0.57476 0.76636 0.28055 0.0
C2676 C 0.57384 0.75455 0.24972 0.0
C2677 C 0.57979 0.7436 0.25651 0.0
C2678 C 0.58922 0.73564 0.24996 0.0
C2679 C 0.59287 0.73852 0.23657 0.0
C2680 C 0.5864 0.74896 0.22957 0.0
C2681 C 0.57697 0.7569 0.23611 0.0
C2682 C 0.55214 0.76229 0.25923 0.0
C2683 C 0.54316 0.7727 0.25632 0.0
C2684 C 0.52928 0.771 0.25848 0.0
C2685 C 0.52395 0.75873 0.26356 0.0
C2686 C 0.53303 0.7483 0.26657 0.0
C2687 C 0.54696 0.75008 0.26454 0.0
C2688 C 0.45926 0.76072 0.27948 0.0
C2689 C 0.45652 0.77358 0.27416 0.0
C2690 C 0.44719 0.78186 0.2805 0.0
C2691 C 0.4406 0.77742 0.29228 0.0
C2692 C 0.44389 0.76491 0.29796 0.0
C2693 C 0.45312 0.75663 0.29159 0.0
C2694 C 0.45867 0.74385 0.26188 0.0
C2695 C 0.45409 0.73069 0.26476 0.0
C2696 C 0.44441 0.72437 0.25649 0.0
C2697 C 0.43923 0.73112 0.24513 0.0
C2698 C 0.44422 0.74404 0.24186 0.0
C2699 C 0.4538 0.7504 0.2502 0.0
C2700 C 0.48081 0.75325 0.26967 0.0
C2701 C 0.48566 0.76122 0.2589 0.0
C2702 C 0.49961 0.76293 0.25688 0.0
C2703 C 0.50904 0.75688 0.26569 0.0
C2704 C 0.50407 0.74908 0.27657 0.0
C2705 C 0.49014 0.74728 0.27848 0.0
H2706 H 0.57442 0.27328 0.29946 0.0
N2707 N 0.5646 0.27282 0.27442 0.0
H2708 H 0.59033 0.2573 0.30971 0.0
H2709 H 0.57127 0.24836 0.26413 0.0
H2710 H 0.587 0.23237 0.27441 0.0
H2711 H 0.56592 0.26624 0.24774 0.0
H2712 H 0.58229 0.27559 0.23137 0.0
H2713 H 0.5808 0.29412 0.27768 0.0
H2714 H 0.59708 0.30353 0.26135 0.0
H2715 H 0.54818 0.29143 0.2834 0.0
H2716 H 0.54818 0.25338 0.2629 0.0
H2717 H 0.52352 0.29144 0.28261 0.0
H2718 H 0.52343 0.25292 0.26259 0.0
H2719 H 0.44754 0.27586 0.29566 0.0
H2720 H 0.43185 0.25893 0.3053 0.0
H2721 H 0.44554 0.22978 0.2767 0.0
H2722 H 0.46141 0.24669 0.2672 0.0
H2723 H 0.45483 0.26274 0.24987 0.0
H2724 H 0.43887 0.27301 0.23394 0.0
H2725 H 0.43826 0.30875 0.25828 0.0
H2726 H 0.45427 0.29843 0.27429 0.0
H2727 H 0.48021 0.28161 0.29297 0.0
H2728 H 0.50485 0.28089 0.29283 0.0
H2729 H 0.5033 0.26244 0.25345 0.0
N2730 N 0.463 0.27327 0.2741 0.0
H2731 H 0.47857 0.26267 0.25405 0.0
C2732 C 0.57152 0.26197 0.28113 0.0
C2733 C 0.57681 0.26416 0.29413 0.0
C2734 C 0.5859 0.25511 0.29992 0.0
C2735 C 0.58981 0.2437 0.29279 0.0
C2736 C 0.58402 0.2411 0.28008 0.0
C2737 C 0.57497 0.25019 0.27425 0.0
C2738 C 0.57217 0.27955 0.26391 0.0
C2739 C 0.57248 0.27456 0.25068 0.0
C2740 C 0.5818 0.27987 0.24137 0.0
C2741 C 0.59089 0.29021 0.24521 0.0
C2742 C 0.59013 0.29558 0.25821 0.0
C2743 C 0.58084 0.29028 0.26748 0.0
C2744 C 0.55004 0.27238 0.2734 0.0
C2745 C 0.54281 0.28302 0.2788 0.0
C2746 C 0.52868 0.28293 0.27844 0.0
C2747 C 0.52135 0.27206 0.27273 0.0
C2748 C 0.52867 0.26149 0.26702 0.0
C2749 C 0.54287 0.26167 0.26729 0.0
C2750 C 0.4556 0.26253 0.28076 0.0
C2751 C 0.44738 0.26572 0.2917 0.0
C2752 C 0.43843 0.25612 0.29715 0.0
C2753 C 0.43754 0.24316 0.29167 0.0
C2754 C 0.44613 0.23974 0.28105 0.0
C2755 C 0.45516 0.24937 0.27565 0.0
C2756 C 0.45583 0.27989 0.26327 0.0
C2757 C 0.45161 0.27292 0.25162 0.0
C2758 C 0.44244 0.27874 0.24255 0.0
C2759 C 0.43738 0.29161 0.24498 0.0
C2760 C 0.4421 0.29884 0.25623 0.0
C2761 C 0.45125 0.293 0.26529 0.0
C2762 C 0.47753 0.27239 0.2735 0.0
C2763 C 0.48521 0.27738 0.28433 0.0
C2764 C 0.49933 0.27706 0.28415 0.0
C2765 C 0.5062 0.2718 0.27302 0.0
C2766 C 0.49843 0.26651 0.26223 0.0
C2767 C 0.48423 0.26674 0.2625 0.0
C2768 C 0.23864 0.20552 0.11034 0.0
C2769 C 0.23688 0.21076 0.12351 0.0
C2770 C 0.24566 0.23261 0.1154 0.0
C2771 C 0.24401 0.22821 0.10189 0.0
N2772 N 0.23914 0.21015 0.08634 0.0
N2773 N 0.24966 0.22532 0.13835 0.0
C2774 C 0.24056 0.21456 0.0993 0.0
C2775 C 0.2435 0.22329 0.12616 0.0
N2776 N 0.24125 0.19219 0.10877 0.0
N2777 N 0.24916 0.2457 0.11804 0.0
H2778 H 0.25025 0.21764 0.14559 0.0
H2779 H 0.25573 0.23374 0.14047 0.0
H2780 H 0.25113 0.25282 0.11046 0.0
H2781 H 0.24911 0.24966 0.12775 0.0
H2782 H 0.24375 0.18801 0.09952 0.0
H2783 H 0.24312 0.18593 0.11708 0.0
H2784 H 0.23539 0.20055 0.08405 0.0
H2785 H 0.24076 0.2164 0.07796 0.0
C2786 C 0.79687 0.22961 0.12628 0.0
C2787 C 0.80194 0.21666 0.12346 0.0
C2788 C 0.79816 0.22048 0.09918 0.0
C2789 C 0.79208 0.23294 0.10213 0.0
N2790 N 0.78425 0.24892 0.11838 0.0
N2791 N 0.80636 0.19904 0.1076 0.0
C2792 C 0.79108 0.2374 0.11566 0.0
C2793 C 0.80233 0.2119 0.10999 0.0
N2794 N 0.79786 0.23456 0.13911 0.0
N2795 N 0.80016 0.217 0.08603 0.0
H2796 H 0.80985 0.19264 0.11522 0.0
H2797 H 0.80547 0.19437 0.09827 0.0
H2798 H 0.79692 0.22289 0.07789 0.0
H2799 H 0.80582 0.2088 0.08311 0.0
H2800 H 0.79579 0.24447 0.14159 0.0
H2801 H 0.80174 0.22902 0.14721 0.0
H2802 H 0.78172 0.25189 0.12807 0.0
H2803 H 0.78025 0.25514 0.11087 0.0
C2804 C 0.79087 0.80038 0.12491 0.0
C2805 C 0.79839 0.81241 0.12231 0.0
C2806 C 0.79522 0.80926 0.0979 0.0
C2807 C 0.78658 0.798 0.10058 0.0
N2808 N 0.77465 0.7838 0.11658 0.0
N2809 N 0.80669 0.82923 0.1066 0.0
C2810 C 0.78403 0.79378 0.11408 0.0
C2811 C 0.80033 0.81709 0.10886 0.0
N2812 N 0.79049 0.79514 0.13771 0.0
N2813 N 0.79876 0.81225 0.08489 0.0
H2814 H 0.81083 0.83507 0.11435 0.0
H2815 H 0.80709 0.83396 0.09719 0.0
H2816 H 0.79509 0.8068 0.07664 0.0
H2817 H 0.80612 0.81943 0.08231 0.0
H2818 H 0.78646 0.78565 0.14004 0.0
H2819 H 0.79523 0.79979 0.14593 0.0
H2820 H 0.77119 0.78132 0.1262 0.0
H2821 H 0.76946 0.77864 0.10895 0.0
C2822 C 0.23253 0.79176 0.12543 0.0
C2823 C 0.2266 0.8044 0.12266 0.0
C2824 C 0.2316 0.80201 0.09854 0.0
C2825 C 0.23892 0.79019 0.10158 0.0
N2826 N 0.24728 0.77411 0.11787 0.0
N2827 N 0.22099 0.82213 0.10693 0.0
C2828 C 0.23954 0.78508 0.11501 0.0
C2829 C 0.22617 0.80964 0.10927 0.0
N2830 N 0.23129 0.78609 0.138 0.0
N2831 N 0.22974 0.8058 0.08537 0.0
H2832 H 0.21655 0.82781 0.11446 0.0
H2833 H 0.22177 0.82725 0.09774 0.0
H2834 H 0.23376 0.80051 0.07732 0.0
H2835 H 0.22339 0.81352 0.0823 0.0
H2836 H 0.23411 0.7763 0.14035 0.0
H2837 H 0.2264 0.79082 0.14591 0.0
H2838 H 0.24953 0.77085 0.12764 0.0
H2839 H 0.25221 0.76868 0.11048 0.0
C2840 C 0.23594 0.79002 0.90467 0.0
C2841 C 0.22672 0.80039 0.90749 0.0
C2842 C 0.22652 0.79365 0.93142 0.0
C2843 C 0.2365 0.78396 0.92875 0.0
N2844 N 0.25231 0.77419 0.91339 0.0
N2845 N 0.21453 0.81342 0.92363 0.0
C2846 C 0.24166 0.7825 0.91551 0.0
C2847 C 0.22236 0.80258 0.92091 0.0
N2848 N 0.23893 0.7871 0.89156 0.0
N2849 N 0.22078 0.79406 0.94392 0.0
H2850 H 0.2111 0.82002 0.91616 0.0
H2851 H 0.21222 0.81647 0.93336 0.0
H2852 H 0.22378 0.78785 0.95191 0.0
H2853 H 0.21242 0.79983 0.94614 0.0
H2854 H 0.24435 0.77871 0.88874 0.0
H2855 H 0.23506 0.79248 0.88335 0.0
H2856 H 0.25753 0.77381 0.90432 0.0
H2857 H 0.2567 0.76841 0.92104 0.0
C2858 C 0.21945 0.21442 0.91987 0.0
C2859 C 0.2214 0.21886 0.90635 0.0
C2860 C 0.24025 0.23353 0.91368 0.0
C2861 C 0.23745 0.23008 0.92733 0.0
N2862 N 0.22349 0.21853 0.94372 0.0
N2863 N 0.23229 0.23397 0.89046 0.0
C2864 C 0.22682 0.22084 0.93052 0.0
C2865 C 0.23145 0.22877 0.90327 0.0
N2866 N 0.21079 0.20385 0.92248 0.0
N2867 N 0.25155 0.24106 0.91063 0.0
H2868 H 0.22616 0.23065 0.88251 0.0
H2869 H 0.23831 0.24231 0.88793 0.0
H2870 H 0.25822 0.24479 0.91796 0.0
H2871 H 0.25497 0.24266 0.90082 0.0
H2872 H 0.20996 0.19918 0.9319 0.0
H2873 H 0.20516 0.19902 0.91495 0.0
H2874 H 0.21493 0.21308 0.94671 0.0
H2875 H 0.22877 0.22292 0.95175 0.0
C2876 C 0.81155 0.21996 0.9212 0.0
C2877 C 0.80657 0.22018 0.90771 0.0
C2878 C 0.78602 0.23139 0.91511 0.0
C2879 C 0.79071 0.2306 0.92869 0.0
N2880 N 0.80682 0.22256 0.94508 0.0
N2881 N 0.78837 0.22411 0.89193 0.0
C2882 C 0.80316 0.2244 0.93186 0.0
C2883 C 0.79358 0.22531 0.90471 0.0
N2884 N 0.82444 0.21585 0.92374 0.0
N2885 N 0.77453 0.23834 0.91213 0.0
H2886 H 0.79374 0.21999 0.88398 0.0
H2887 H 0.77841 0.22624 0.88938 0.0
H2888 H 0.7685 0.24261 0.91949 0.0
H2889 H 0.77142 0.24069 0.90235 0.0
H2890 H 0.82929 0.21686 0.93305 0.0
H2891 H 0.83071 0.21215 0.91626 0.0
H2892 H 0.81502 0.21687 0.94818 0.0
H2893 H 0.80104 0.22595 0.95309 0.0
C2894 C 0.79493 0.79748 0.9016 0.0
C2895 C 0.80463 0.80779 0.90447 0.0
C2896 C 0.80268 0.80287 0.92875 0.0
C2897 C 0.79375 0.79194 0.92578 0.0
N2898 N 0.7831 0.77731 0.90937 0.0
N2899 N 0.81931 0.81913 0.92041 0.0
C2900 C 0.79036 0.78881 0.91219 0.0
C2901 C 0.80896 0.81016 0.91796 0.0
N2902 N 0.78976 0.79626 0.88881 0.0
N2903 N 0.80486 0.80651 0.94188 0.0
H2904 H 0.82403 0.82473 0.91277 0.0
H2905 H 0.82393 0.82029 0.92981 0.0
H2906 H 0.80055 0.8013 0.95001 0.0
H2907 H 0.81006 0.81526 0.9447 0.0
H2908 H 0.78156 0.79001 0.8864 0.0
H2909 H 0.79296 0.80231 0.88075 0.0
H2910 H 0.7816 0.77367 0.89964 0.0
H2911 H 0.77949 0.77073 0.91683 0.0
C2912 C 0.11165 0.21277 0.21201 0.0
C2913 C 0.12477 0.21878 0.21271 0.0
C2914 C 0.11637 0.23616 0.22783 0.0
C2915 C 0.10303 0.23092 0.22609 0.0
N2916 N 0.08755 0.21508 0.21571 0.0
N2917 N 0.13949 0.23702 0.21986 0.0
C2918 C 0.10055 0.21942 0.21798 0.0
C2919 C 0.12711 0.23068 0.22028 0.0
N2920 N 0.1099 0.20057 0.20589 0.0
N2921 N 0.11881 0.24624 0.23691 0.0
H2922 H 0.1477 0.2332 0.21466 0.0
H2923 H 0.14141 0.24655 0.2238 0.0
H2924 H 0.11118 0.25074 0.24241 0.0
H2925 H 0.12847 0.24945 0.23981 0.0
H2926 H 0.10093 0.19495 0.2062 0.0
H2927 H 0.11779 0.19554 0.2013 0.0
H2928 H 0.08487 0.20772 0.20872 0.0
H2929 H 0.07924 0.2195 0.22021 0.0
C2930 C 0.81619 0.10535 0.2278 0.0
C2931 C 0.8146 0.1187 0.23249 0.0
C2932 C 0.79698 0.11042 0.24786 0.0
C2933 C 0.7962 0.09818 0.24057 0.0
N2934 N 0.80561 0.08357 0.22386 0.0
N2935 N 0.81176 0.1289 0.25422 0.0
C2936 C 0.80601 0.09547 0.23065 0.0
C2937 C 0.80732 0.11999 0.24469 0.0
N2938 N 0.82836 0.10152 0.2229 0.0
N2939 N 0.7878 0.11303 0.25768 0.0
H2940 H 0.82083 0.13431 0.25308 0.0
H2941 H 0.80759 0.12943 0.26383 0.0
H2942 H 0.78026 0.10614 0.26059 0.0
H2943 H 0.78719 0.12242 0.26225 0.0
H2944 H 0.83049 0.0916 0.22043 0.0
H2945 H 0.83685 0.1079 0.22337 0.0
H2946 H 0.81178 0.08175 0.2156 0.0
H2947 H 0.7985 0.07594 0.2259 0.0
C2948 C 0.91826 0.80795 0.20675 0.0
C2949 C 0.90575 0.80071 0.20626 0.0
C2950 C 0.91531 0.78361 0.22135 0.0
C2951 C 0.92621 0.79256 0.22449 0.0
N2952 N 0.93868 0.81309 0.21945 0.0
N2953 N 0.89922 0.77735 0.20403 0.0
C2954 C 0.92792 0.80467 0.21693 0.0
C2955 C 0.90606 0.78717 0.21095 0.0
N2956 N 0.92188 0.81611 0.1962 0.0
N2957 N 0.91349 0.77189 0.22847 0.0
H2958 H 0.89433 0.77943 0.19488 0.0
H2959 H 0.90007 0.76712 0.20628 0.0
H2960 H 0.92002 0.76883 0.23618 0.0
H2961 H 0.90488 0.76577 0.22733 0.0
H2962 H 0.93138 0.82074 0.1954 0.0
H2963 H 0.91607 0.8165 0.18736 0.0
H2964 H 0.93955 0.8227 0.21518 0.0
H2965 H 0.94629 0.81077 0.22639 0.0
C2966 C 0.233 0.8977 0.22938 0.0
C2967 C 0.22176 0.90042 0.22087 0.0
C2968 C 0.22755 0.92459 0.22114 0.0
C2969 C 0.23822 0.92195 0.2304 0.0
N2970 N 0.24991 0.90642 0.24505 0.0
N2971 N 0.20708 0.9164 0.21003 0.0
C2972 C 0.24061 0.90861 0.23501 0.0
C2973 C 0.21868 0.91387 0.21713 0.0
N2974 N 0.23664 0.88467 0.23178 0.0
N2975 N 0.22616 0.93729 0.21591 0.0
H2976 H 0.20049 0.90878 0.2067 0.0
H2977 H 0.20344 0.92603 0.20825 0.0
H2978 H 0.2323 0.94541 0.21885 0.0
H2979 H 0.21959 0.93961 0.20801 0.0
H2980 H 0.2456 0.88201 0.23661 0.0
H2981 H 0.23121 0.87641 0.22799 0.0
H2982 H 0.25108 0.89717 0.24991 0.0
H2983 H 0.25577 0.91412 0.24934 0.0
C2984 C 0.12827 0.7921 0.79904 0.0
C2985 C 0.12561 0.79782 0.8118 0.0
C2986 C 0.10117 0.79492 0.80789 0.0
C2987 C 0.10389 0.78821 0.79564 0.0
N2988 N 0.11985 0.77908 0.78003 0.0
N2989 N 0.10987 0.80364 0.82916 0.0
C2990 C 0.1174 0.78646 0.79133 0.0
C2991 C 0.11213 0.79899 0.81643 0.0
N2992 N 0.14118 0.79233 0.79418 0.0
N2993 N 0.08811 0.7976 0.8112 0.0
H2994 H 0.11762 0.80706 0.83553 0.0
H2995 H 0.10045 0.80334 0.83377 0.0
H2996 H 0.07985 0.79444 0.80535 0.0
H2997 H 0.08543 0.80371 0.81919 0.0
H2998 H 0.14364 0.78973 0.78436 0.0
H2999 H 0.14943 0.79609 0.79967 0.0
H3000 H 0.12942 0.77603 0.77721 0.0
H3001 H 0.11217 0.7752 0.77383 0.0
C3002 C 0.23319 0.11945 0.80335 0.0
C3003 C 0.22355 0.11686 0.81364 0.0
C3004 C 0.22466 0.09257 0.80932 0.0
C3005 C 0.23356 0.09527 0.79842 0.0
N3006 N 0.24446 0.11132 0.78345 0.0
N3007 N 0.20851 0.10136 0.82519 0.0
C3008 C 0.2373 0.10874 0.79498 0.0
C3009 C 0.21883 0.10351 0.81628 0.0
N3010 N 0.23875 0.13208 0.80189 0.0
N3011 N 0.22213 0.07955 0.81327 0.0
H3012 H 0.2041 0.10912 0.83054 0.0
H3013 H 0.20361 0.09209 0.82652 0.0
H3014 H 0.22611 0.07131 0.8083 0.0
H3015 H 0.21694 0.0769 0.82203 0.0
H3016 H 0.24695 0.13427 0.79566 0.0
H3017 H 0.2359 0.14024 0.80771 0.0
H3018 H 0.2462 0.12097 0.77959 0.0
H3019 H 0.24772 0.10376 0.77706 0.0
C3020 C 0.91763 0.21053 0.81192 0.0
C3021 C 0.90418 0.21343 0.80789 0.0
C3022 C 0.91269 0.23072 0.79211 0.0
C3023 C 0.9261 0.22661 0.79487 0.0
N3024 N 0.94155 0.21208 0.80666 0.0
N3025 N 0.88873 0.22533 0.7933 0.0
C3026 C 0.92865 0.21643 0.80466 0.0
C3027 C 0.90165 0.22336 0.79783 0.0
N3028 N 0.91982 0.20229 0.82282 0.0
N3029 N 0.91055 0.2418 0.78412 0.0
H3030 H 0.88034 0.22028 0.79735 0.0
H3031 H 0.88638 0.23122 0.78489 0.0
H3032 H 0.91839 0.24737 0.77966 0.0
H3033 H 0.90114 0.24619 0.78285 0.0
H3034 H 0.92931 0.20079 0.82713 0.0
H3035 H 0.91196 0.19778 0.82829 0.0
H3036 H 0.94394 0.20365 0.81247 0.0
H3037 H 0.94989 0.21642 0.80178 0.0
C3038 C 0.8009 0.90021 0.79614 0.0
C3039 C 0.81248 0.90294 0.80428 0.0
C3040 C 0.80765 0.92713 0.80354 0.0
C3041 C 0.79663 0.92447 0.79465 0.0
N3042 N 0.78394 0.9089 0.78071 0.0
N3043 N 0.82809 0.91891 0.81432 0.0
C3044 C 0.79359 0.91112 0.79044 0.0
C3045 C 0.8162 0.91639 0.80759 0.0
N3046 N 0.79667 0.88718 0.79418 0.0
N3047 N 0.8097 0.93985 0.80841 0.0
H3048 H 0.83445 0.91128 0.81765 0.0
H3049 H 0.83216 0.92853 0.81575 0.0
H3050 H 0.80381 0.94799 0.80543 0.0
H3051 H 0.81659 0.94221 0.81606 0.0
H3052 H 0.78747 0.88454 0.78967 0.0
H3053 H 0.80186 0.87892 0.79803 0.0
H3054 H 0.78227 0.89963 0.77611 0.0
H3055 H 0.77827 0.9166 0.77637 0.0
C3056 C 0.2195 0.10435 0.21487 0.0
C3057 C 0.22071 0.11745 0.22044 0.0
C3058 C 0.23902 0.10987 0.23538 0.0
C3059 C 0.23708 0.09653 0.23058 0.0
N3060 N 0.22447 0.08055 0.2171 0.0
N3061 N 0.23007 0.13235 0.23731 0.0
C3062 C 0.22704 0.09362 0.22068 0.0
C3063 C 0.23005 0.12012 0.23107 0.0
N3064 N 0.21141 0.10227 0.2038 0.0
N3065 N 0.24971 0.11283 0.24375 0.0
H3066 H 0.2238 0.14019 0.23432 0.0
H3067 H 0.23551 0.13441 0.24612 0.0
H3068 H 0.25643 0.1056 0.24727 0.0
H3069 H 0.2526 0.12261 0.24636 0.0
H3070 H 0.21118 0.09336 0.19834 0.0
H3071 H 0.20562 0.10984 0.19941 0.0
H3072 H 0.21633 0.07755 0.21105 0.0
H3073 H 0.22992 0.07249 0.22103 0.0
C3074 C 0.23146 0.89587 0.79974 0.0
C3075 C 0.22092 0.89835 0.80899 0.0
C3076 C 0.2255 0.92269 0.80719 0.0
C3077 C 0.23662 0.92012 0.79868 0.0
N3078 N 0.25176 0.90428 0.78874 0.0
N3079 N 0.20912 0.91373 0.8232 0.0
C3080 C 0.24005 0.9067 0.7955 0.0
C3081 C 0.21828 0.91167 0.81321 0.0
N3082 N 0.23296 0.88323 0.79465 0.0
N3083 N 0.22159 0.93566 0.80918 0.0
H3084 H 0.20358 0.9059 0.82774 0.0
H3085 H 0.20775 0.92301 0.82776 0.0
H3086 H 0.22675 0.94396 0.80506 0.0
H3087 H 0.21271 0.93818 0.81404 0.0
H3088 H 0.2394 0.88109 0.78672 0.0
H3089 H 0.22697 0.87498 0.79761 0.0
H3090 H 0.25559 0.89469 0.78743 0.0
H3091 H 0.2583 0.91194 0.78539 0.0
C3092 C 0.12262 0.21111 0.7875 0.0
C3093 C 0.1215 0.20351 0.79966 0.0
C3094 C 0.09814 0.21106 0.80181 0.0
C3095 C 0.10067 0.22116 0.79189 0.0
N3096 N 0.11533 0.23052 0.77466 0.0
N3097 N 0.1044 0.18886 0.80929 0.0
C3098 C 0.11289 0.22106 0.78448 0.0
C3099 C 0.10815 0.20127 0.80449 0.0
N3100 N 0.13153 0.20733 0.77787 0.0
N3101 N 0.08629 0.21083 0.80877 0.0
H3102 H 0.1108 0.18065 0.80856 0.0
H3103 H 0.09448 0.18629 0.81186 0.0
H3104 H 0.07858 0.21764 0.80687 0.0
H3105 H 0.0846 0.20443 0.81701 0.0
H3106 H 0.13195 0.21172 0.76828 0.0
H3107 H 0.13708 0.19852 0.7789 0.0
H3108 H 0.12471 0.23167 0.77002 0.0
H3109 H 0.10832 0.23777 0.77182 0.0
C3110 C 0.79379 0.123 0.80212 0.0
C3111 C 0.80302 0.12027 0.81279 0.0
C3112 C 0.8036 0.09651 0.80614 0.0
C3113 C 0.79362 0.09906 0.79612 0.0
N3114 N 0.77758 0.11411 0.78584 0.0
N3115 N 0.81541 0.1043 0.82628 0.0
C3116 C 0.78825 0.11215 0.79447 0.0
C3117 C 0.80758 0.10697 0.81517 0.0
N3118 N 0.79063 0.13603 0.79904 0.0
N3119 N 0.80953 0.08418 0.80677 0.0
H3120 H 0.81868 0.11175 0.83297 0.0
H3121 H 0.81785 0.09461 0.82944 0.0
H3122 H 0.80667 0.07623 0.80048 0.0
H3123 H 0.81789 0.08209 0.81281 0.0
H3124 H 0.78519 0.13883 0.79045 0.0
H3125 H 0.79436 0.14425 0.8045 0.0
H3126 H 0.77222 0.12303 0.78529 0.0
H3127 H 0.77332 0.10646 0.77996 0.0
C3128 C 0.91965 0.80324 0.81712 0.0
C3129 C 0.90617 0.80021 0.81299 0.0
C3130 C 0.91442 0.78414 0.79643 0.0
C3131 C 0.92795 0.78762 0.8001 0.0
N3132 N 0.94361 0.80204 0.81214 0.0
N3133 N 0.89071 0.7899 0.79709 0.0
C3134 C 0.93061 0.79766 0.80991 0.0
C3135 C 0.90357 0.79131 0.80212 0.0
N3136 N 0.92196 0.81107 0.82822 0.0
N3137 N 0.91193 0.77357 0.78794 0.0
H3138 H 0.88249 0.79491 0.80109 0.0
H3139 H 0.88836 0.78471 0.78826 0.0
H3140 H 0.91957 0.76807 0.78349 0.0
H3141 H 0.90231 0.76953 0.78612 0.0
H3142 H 0.93143 0.8124 0.8327 0.0
H3143 H 0.91421 0.81556 0.83354 0.0
H3144 H 0.94616 0.81029 0.81812 0.0
H3145 H 0.95185 0.79809 0.8071 0.0
C3146 C 0.79903 0.90239 0.2338 0.0
C3147 C 0.80925 0.90545 0.2242 0.0
C3148 C 0.80621 0.92966 0.22784 0.0
C3149 C 0.79568 0.92659 0.23707 0.0
N3150 N 0.78013 0.91033 0.24681 0.0
N3151 N 0.82089 0.92175 0.21014 0.0
C3152 C 0.79149 0.91302 0.2394 0.0
C3153 C 0.81232 0.91904 0.22062 0.0
N3154 N 0.79695 0.88937 0.238 0.0
N3155 N 0.81068 0.94269 0.22634 0.0
H3156 H 0.82556 0.9142 0.20471 0.0
H3157 H 0.82252 0.93134 0.2061 0.0
H3158 H 0.80623 0.95074 0.23121 0.0
H3159 H 0.81932 0.94547 0.22098 0.0
H3160 H 0.79081 0.88666 0.24611 0.0
H3161 H 0.80213 0.88127 0.23404 0.0
H3162 H 0.7757 0.90078 0.2477 0.0
H3163 H 0.77441 0.91785 0.25116 0.0
C3164 C 0.10993 0.80544 0.21175 0.0
C3165 C 0.12331 0.80268 0.21614 0.0
C3166 C 0.11446 0.79022 0.23578 0.0
C3167 C 0.10112 0.79371 0.23186 0.0
N3168 N 0.08606 0.80601 0.21728 0.0
N3169 N 0.13856 0.79429 0.23321 0.0
C3170 C 0.09883 0.80172 0.22016 0.0
C3171 C 0.12564 0.7956 0.22842 0.0
N3172 N 0.10786 0.81127 0.19937 0.0
N3173 N 0.11641 0.78142 0.24629 0.0
H3174 H 0.14703 0.79789 0.22799 0.0
H3175 H 0.14089 0.7906 0.2428 0.0
H3176 H 0.10851 0.77745 0.2521 0.0
H3177 H 0.12571 0.77723 0.24867 0.0
H3178 H 0.09837 0.8122 0.19488 0.0
H3179 H 0.11576 0.8144 0.1931 0.0
H3180 H 0.08387 0.81305 0.20977 0.0
H3181 H 0.07768 0.80323 0.22307 0.0
C3182 C 0.90189 0.22773 0.22731 0.0
C3183 C 0.90421 0.21889 0.21642 0.0
C3184 C 0.92867 0.2204 0.2207 0.0
C3185 C 0.92626 0.22844 0.23218 0.0
N3186 N 0.91056 0.23789 0.24786 0.0
N3187 N 0.9194 0.20515 0.20383 0.0
C3188 C 0.91285 0.23158 0.2359 0.0
C3189 C 0.9175 0.21475 0.21341 0.0
N3190 N 0.88929 0.23281 0.22917 0.0
N3191 N 0.94164 0.21851 0.21655 0.0
H3192 H 0.91146 0.2009 0.19822 0.0
H3193 H 0.92863 0.20063 0.20215 0.0
H3194 H 0.95005 0.22236 0.22174 0.0
H3195 H 0.94408 0.214 0.20745 0.0
H3196 H 0.88728 0.24048 0.23593 0.0
H3197 H 0.88096 0.23013 0.22319 0.0
H3198 H 0.90097 0.2391 0.25187 0.0
H3199 H 0.91831 0.24094 0.25441 0.0
C3200 C 0.23224 0.72498 0.62414 0.0
C3201 C 0.22406 0.71341 0.62153 0.0
C3202 C 0.22702 0.71689 0.59713 0.0
C3203 C 0.23639 0.72753 0.59983 0.0
N3204 N 0.24931 0.74075 0.61588 0.0
N3205 N 0.21452 0.69744 0.60578 0.0
C3206 C 0.23933 0.73138 0.61334 0.0
C3207 C 0.22162 0.70914 0.60807 0.0
N3208 N 0.23305 0.72999 0.63695 0.0
N3209 N 0.22309 0.7144 0.58412 0.0
H3210 H 0.21015 0.69169 0.61352 0.0
H3211 H 0.2137 0.69293 0.59636 0.0
H3212 H 0.22693 0.71983 0.57589 0.0
H3213 H 0.21527 0.70774 0.58153 0.0
H3214 H 0.23764 0.7392 0.63928 0.0
H3215 H 0.22811 0.72547 0.64513 0.0
H3216 H 0.25301 0.74285 0.62552 0.0
H3217 H 0.25471 0.74573 0.60828 0.0
C3218 C 0.80923 0.7149 0.61056 0.0
C3219 C 0.80544 0.71756 0.62406 0.0
C3220 C 0.79261 0.73713 0.61635 0.0
C3221 C 0.79534 0.73373 0.60276 0.0
N3222 N 0.80479 0.71854 0.58667 0.0
N3223 N 0.792 0.72989 0.63978 0.0
C3224 C 0.80328 0.72238 0.59978 0.0
C3225 C 0.79672 0.72834 0.62696 0.0
N3226 N 0.81877 0.70545 0.60809 0.0
N3227 N 0.78642 0.74899 0.61914 0.0
H3228 H 0.79488 0.72376 0.64786 0.0
H3229 H 0.78441 0.73656 0.64223 0.0
H3230 H 0.78319 0.75568 0.61165 0.0
H3231 H 0.78549 0.75276 0.62885 0.0
H3232 H 0.82304 0.70402 0.59866 0.0
H3233 H 0.82324 0.69972 0.61573 0.0
H3234 H 0.80919 0.70954 0.58388 0.0
H3235 H 0.80072 0.72388 0.57853 0.0
C3236 C 0.79635 0.30075 0.62604 0.0
C3237 C 0.80599 0.31121 0.62349 0.0
C3238 C 0.80267 0.30845 0.59905 0.0
C3239 C 0.7934 0.29768 0.60162 0.0
N3240 N 0.78346 0.2817 0.61726 0.0
N3241 N 0.82027 0.3234 0.60785 0.0
C3242 C 0.7909 0.29324 0.61504 0.0
C3243 C 0.80975 0.31456 0.61005 0.0
N3244 N 0.79197 0.29837 0.63892 0.0
N3245 N 0.80434 0.31313 0.58614 0.0
H3246 H 0.82561 0.32808 0.61569 0.0
H3247 H 0.82444 0.32527 0.59839 0.0
H3248 H 0.79956 0.3087 0.57782 0.0
H3249 H 0.80973 0.32191 0.58372 0.0
H3250 H 0.78382 0.29202 0.64125 0.0
H3251 H 0.79582 0.30353 0.64727 0.0
H3252 H 0.78246 0.27713 0.62671 0.0
H3253 H 0.77923 0.27599 0.60945 0.0
C3254 C 0.22173 0.30761 0.61022 0.0
C3255 C 0.2248 0.30398 0.62379 0.0
C3256 C 0.24052 0.28694 0.61595 0.0
C3257 C 0.23701 0.29014 0.60237 0.0
N3258 N 0.22271 0.30173 0.58648 0.0
N3259 N 0.23496 0.28863 0.63969 0.0
C3260 C 0.22712 0.29995 0.59948 0.0
C3261 C 0.23353 0.29314 0.62668 0.0
N3262 N 0.21404 0.31865 0.60761 0.0
N3263 N 0.25093 0.2784 0.6186 0.0
H3264 H 0.2301 0.29302 0.64781 0.0
H3265 H 0.24 0.27986 0.64231 0.0
H3266 H 0.25626 0.27356 0.61107 0.0
H3267 H 0.25502 0.27689 0.6282 0.0
H3268 H 0.21271 0.32277 0.598 0.0
H3269 H 0.20966 0.32429 0.61521 0.0
H3270 H 0.21455 0.3077 0.58382 0.0
H3271 H 0.22654 0.29636 0.5784 0.0
C3272 C 0.23136 0.29029 0.40447 0.0
C3273 C 0.22181 0.30032 0.40744 0.0
C3274 C 0.22356 0.29478 0.43161 0.0
C3275 C 0.23241 0.28416 0.42851 0.0
N3276 N 0.24286 0.27016 0.41192 0.0
N3277 N 0.20715 0.31084 0.42337 0.0
C3278 C 0.23577 0.28144 0.4149 0.0
C3279 C 0.21742 0.3022 0.4209 0.0
N3280 N 0.23657 0.28952 0.39175 0.0
N3281 N 0.22138 0.29802 0.44479 0.0
H3282 H 0.20251 0.31652 0.41579 0.0
H3283 H 0.20248 0.31162 0.43271 0.0
H3284 H 0.22559 0.2927 0.45287 0.0
H3285 H 0.21625 0.30656 0.44773 0.0
H3286 H 0.24469 0.2835 0.38932 0.0
H3287 H 0.23349 0.29571 0.38378 0.0
H3288 H 0.24434 0.26681 0.40212 0.0
H3289 H 0.24632 0.26344 0.41928 0.0
C3290 C 0.22413 0.73234 0.40017 0.0
C3291 C 0.2131 0.72342 0.40288 0.0
C3292 C 0.21716 0.72586 0.42726 0.0
C3293 C 0.22713 0.73595 0.42452 0.0
N3294 N 0.23908 0.75007 0.40846 0.0
N3295 N 0.19818 0.71247 0.41884 0.0
C3296 C 0.2304 0.73948 0.41099 0.0
C3297 C 0.2094 0.72032 0.4164 0.0
N3298 N 0.22873 0.73381 0.38725 0.0
N3299 N 0.21531 0.72141 0.44023 0.0
H3300 H 0.19244 0.708 0.41115 0.0
H3301 H 0.19401 0.71108 0.42838 0.0
H3302 H 0.22077 0.72533 0.44839 0.0
H3303 H 0.20922 0.71314 0.44278 0.0
H3304 H 0.23761 0.73901 0.38478 0.0
H3305 H 0.2243 0.72881 0.37907 0.0
H3306 H 0.24066 0.75415 0.39887 0.0
H3307 H 0.24397 0.75554 0.41606 0.0
C3308 C 0.79709 0.72707 0.40402 0.0
C3309 C 0.80999 0.72159 0.40669 0.0
C3310 C 0.80687 0.72485 0.43103 0.0
C3311 C 0.79451 0.73139 0.42824 0.0
N3312 N 0.77832 0.74006 0.41218 0.0
N3313 N 0.82792 0.71627 0.42235 0.0
C3314 C 0.78972 0.73283 0.41475 0.0
C3315 C 0.81508 0.72071 0.42011 0.0
N3316 N 0.79176 0.72649 0.39125 0.0
N3317 N 0.81062 0.72242 0.44413 0.0
H3318 H 0.83405 0.7128 0.41465 0.0
H3319 H 0.83285 0.71679 0.43165 0.0
H3320 H 0.805 0.72561 0.45234 0.0
H3321 H 0.81873 0.71645 0.44692 0.0
H3322 H 0.78182 0.72891 0.38887 0.0
H3323 H 0.79697 0.7226 0.38308 0.0
H3324 H 0.77518 0.74289 0.40253 0.0
H3325 H 0.7724 0.74406 0.41978 0.0
C3326 C 0.81467 0.30945 0.41826 0.0
C3327 C 0.81003 0.30706 0.40488 0.0
C3328 C 0.79425 0.28959 0.41322 0.0
C3329 C 0.79963 0.29125 0.42645 0.0
N3330 N 0.81607 0.3014 0.44146 0.0
N3331 N 0.79697 0.2936 0.38919 0.0
C3332 C 0.81016 0.30082 0.42895 0.0
C3333 C 0.80025 0.29677 0.40224 0.0
N3334 N 0.8231 0.32021 0.42079 0.0
N3335 N 0.78314 0.28143 0.41122 0.0
H3336 H 0.80104 0.29872 0.38089 0.0
H3337 H 0.79109 0.28523 0.38653 0.0
H3338 H 0.77853 0.2759 0.41898 0.0
H3339 H 0.77781 0.28094 0.40214 0.0
H3340 H 0.82568 0.32343 0.43046 0.0
H3341 H 0.82679 0.32659 0.41319 0.0
H3342 H 0.82476 0.30708 0.44359 0.0
H3343 H 0.81283 0.29542 0.44956 0.0
C3344 C 0.1093 0.71884 0.71086 0.0
C3345 C 0.12258 0.71925 0.7164 0.0
C3346 C 0.11459 0.73205 0.73578 0.0
C3347 C 0.10126 0.73145 0.73035 0.0
N3348 N 0.0853 0.72236 0.71424 0.0
N3349 N 0.13756 0.72384 0.73515 0.0
C3350 C 0.09843 0.72421 0.71835 0.0
C3351 C 0.12511 0.72509 0.72921 0.0
N3352 N 0.10718 0.71373 0.69823 0.0
N3353 N 0.11729 0.73972 0.74692 0.0
H3354 H 0.14554 0.719 0.73052 0.0
H3355 H 0.1397 0.72659 0.74506 0.0
H3356 H 0.10981 0.74462 0.75226 0.0
H3357 H 0.12701 0.74195 0.75043 0.0
H3358 H 0.09812 0.71452 0.69291 0.0
H3359 H 0.11481 0.70932 0.69265 0.0
H3360 H 0.08236 0.71607 0.70636 0.0
H3361 H 0.07717 0.72632 0.71943 0.0
C3362 C 0.79941 0.62364 0.73313 0.0
C3363 C 0.80969 0.62101 0.72365 0.0
C3364 C 0.80459 0.59675 0.7253 0.0
C3365 C 0.79374 0.59949 0.73409 0.0
N3366 N 0.77919 0.61556 0.74453 0.0
N3367 N 0.82083 0.60551 0.70904 0.0
C3368 C 0.79067 0.61296 0.73747 0.0
C3369 C 0.81193 0.60767 0.71925 0.0
N3370 N 0.79828 0.63628 0.73835 0.0
N3371 N 0.80814 0.58372 0.7231 0.0
H3372 H 0.82646 0.61326 0.70448 0.0
H3373 H 0.82189 0.59624 0.70436 0.0
H3374 H 0.80289 0.57549 0.72723 0.0
H3375 H 0.81685 0.58105 0.71801 0.0
H3376 H 0.79206 0.63849 0.74643 0.0
H3377 H 0.80436 0.64442 0.73531 0.0
H3378 H 0.7756 0.62522 0.74602 0.0
H3379 H 0.77256 0.60801 0.74795 0.0
C3380 C 0.90339 0.2913 0.73003 0.0
C3381 C 0.9063 0.30027 0.71917 0.0
C3382 C 0.93064 0.29755 0.72322 0.0
C3383 C 0.92768 0.28742 0.733 0.0
N3384 N 0.91132 0.27343 0.74476 0.0
N3385 N 0.9225 0.31123 0.70451 0.0
C3386 C 0.91407 0.28402 0.73622 0.0
C3387 C 0.91989 0.30328 0.71556 0.0
N3388 N 0.89041 0.28991 0.73455 0.0
N3389 N 0.94372 0.30185 0.72146 0.0
H3390 H 0.9149 0.31585 0.69887 0.0
H3391 H 0.93208 0.31257 0.70039 0.0
H3392 H 0.9518 0.29779 0.72685 0.0
H3393 H 0.94646 0.31014 0.71551 0.0
H3394 H 0.88781 0.28467 0.74333 0.0
H3395 H 0.88232 0.29499 0.73017 0.0
H3396 H 0.90164 0.26943 0.74627 0.0
H3397 H 0.91882 0.26789 0.74961 0.0
C3398 C 0.21223 0.41206 0.72106 0.0
C3399 C 0.21629 0.39872 0.72409 0.0
C3400 C 0.23375 0.40739 0.73962 0.0
C3401 C 0.23009 0.42076 0.73615 0.0
N3402 N 0.21757 0.43602 0.722 0.0
N3403 N 0.23239 0.38363 0.73414 0.0
C3404 C 0.21983 0.42315 0.72637 0.0
C3405 C 0.22753 0.39638 0.73272 0.0
N3406 N 0.20084 0.4141 0.71346 0.0
N3407 N 0.24276 0.40519 0.74992 0.0
H3408 H 0.22798 0.3753 0.72936 0.0
H3409 H 0.24141 0.38144 0.73909 0.0
H3410 H 0.24765 0.41295 0.75516 0.0
H3411 H 0.24466 0.3957 0.75399 0.0
H3412 H 0.19642 0.42346 0.71216 0.0
H3413 H 0.19523 0.40624 0.70912 0.0
H3414 H 0.21123 0.43837 0.71391 0.0
H3415 H 0.22289 0.44435 0.72579 0.0
C3416 C 0.10993 0.30087 0.31067 0.0
C3417 C 0.12272 0.29461 0.31074 0.0
C3418 C 0.11487 0.27889 0.29325 0.0
C3419 C 0.10185 0.28465 0.29373 0.0
N3420 N 0.08624 0.29974 0.304 0.0
N3421 N 0.13694 0.27652 0.30377 0.0
C3422 C 0.09916 0.29525 0.30278 0.0
C3423 C 0.12506 0.28328 0.3025 0.0
N3424 N 0.10821 0.31239 0.31787 0.0
N3425 N 0.1176 0.26952 0.28365 0.0
H3426 H 0.14477 0.27961 0.31021 0.0
H3427 H 0.1387 0.26731 0.29923 0.0
H3428 H 0.11032 0.26577 0.27693 0.0
H3429 H 0.12727 0.2661 0.28168 0.0
H3430 H 0.09966 0.31831 0.31712 0.0
H3431 H 0.11578 0.3166 0.32398 0.0
H3432 H 0.08327 0.30644 0.31139 0.0
H3433 H 0.07819 0.29601 0.2982 0.0
C3434 C 0.22336 0.62198 0.29875 0.0
C3435 C 0.21581 0.61951 0.31066 0.0
C3436 C 0.21757 0.5951 0.30736 0.0
C3437 C 0.22619 0.5976 0.29619 0.0
N3438 N 0.23842 0.61325 0.28184 0.0
N3439 N 0.20654 0.60399 0.32713 0.0
C3440 C 0.22935 0.61101 0.29201 0.0
C3441 C 0.21307 0.60612 0.31516 0.0
N3442 N 0.22455 0.63482 0.29373 0.0
N3443 N 0.21355 0.58217 0.31034 0.0
H3444 H 0.20278 0.61181 0.3329 0.0
H3445 H 0.20554 0.5946 0.3318 0.0
H3446 H 0.21693 0.57387 0.30502 0.0
H3447 H 0.20618 0.57969 0.31741 0.0
H3448 H 0.22862 0.63718 0.28432 0.0
H3449 H 0.22049 0.64313 0.29851 0.0
H3450 H 0.24244 0.6227 0.27939 0.0
H3451 H 0.24267 0.60551 0.27633 0.0
C3452 C 0.9011 0.72974 0.29437 0.0
C3453 C 0.90428 0.72064 0.305 0.0
C3454 C 0.92825 0.72737 0.3036 0.0
C3455 C 0.9249 0.73713 0.29363 0.0
N3456 N 0.90796 0.74931 0.28111 0.0
N3457 N 0.92033 0.71203 0.32119 0.0
C3458 C 0.91126 0.7388 0.28946 0.0
C3459 C 0.91772 0.7198 0.31004 0.0
N3460 N 0.88847 0.72943 0.28865 0.0
N3461 N 0.94152 0.72507 0.30661 0.0
H3462 H 0.91288 0.70626 0.32605 0.0
H3463 H 0.92958 0.71208 0.32625 0.0
H3464 H 0.94946 0.73054 0.30221 0.0
H3465 H 0.94474 0.71712 0.31268 0.0
H3466 H 0.88598 0.73468 0.27986 0.0
H3467 H 0.88069 0.72308 0.29207 0.0
H3468 H 0.89804 0.75198 0.27893 0.0
H3469 H 0.9151 0.75611 0.27722 0.0
C3470 C 0.8188 0.41563 0.31116 0.0
C3471 C 0.8181 0.40301 0.30454 0.0
C3472 C 0.80106 0.41175 0.28874 0.0
C3473 C 0.80234 0.42459 0.29487 0.0
N3474 N 0.81359 0.43946 0.31057 0.0
N3475 N 0.81029 0.38948 0.28586 0.0
C3476 C 0.81157 0.42674 0.3057 0.0
C3477 C 0.80972 0.4012 0.29298 0.0
N3478 N 0.82609 0.41686 0.32289 0.0
N3479 N 0.79127 0.40952 0.27914 0.0
H3480 H 0.81629 0.38142 0.2888 0.0
H3481 H 0.80565 0.38809 0.2765 0.0
H3482 H 0.78496 0.41706 0.2755 0.0
H3483 H 0.78872 0.40003 0.27544 0.0
H3484 H 0.82586 0.4253 0.32904 0.0
H3485 H 0.83172 0.40903 0.32701 0.0
H3486 H 0.82117 0.44203 0.31747 0.0
H3487 H 0.8083 0.44775 0.30693 0.0
C3488 C 0.21279 0.60478 0.71826 0.0
C3489 C 0.21733 0.61826 0.72026 0.0
C3490 C 0.23731 0.61024 0.73256 0.0
C3491 C 0.23308 0.59674 0.73004 0.0
N3492 N 0.21799 0.58094 0.71906 0.0
N3493 N 0.23469 0.63401 0.72743 0.0
C3494 C 0.22116 0.59394 0.72244 0.0
C3495 C 0.22983 0.62104 0.72687 0.0
N3496 N 0.20029 0.60236 0.7127 0.0
N3497 N 0.2483 0.61272 0.7407 0.0
H3498 H 0.22936 0.64221 0.72365 0.0
H3499 H 0.24439 0.63662 0.73073 0.0
H3500 H 0.25436 0.60512 0.74463 0.0
H3501 H 0.25097 0.62222 0.7443 0.0
H3502 H 0.19568 0.59287 0.71231 0.0
H3503 H 0.19408 0.61002 0.70916 0.0
H3504 H 0.21028 0.57827 0.71234 0.0
H3505 H 0.2237 0.57276 0.72228 0.0
C3506 C 0.22604 0.39637 0.29952 0.0
C3507 C 0.21544 0.39852 0.30879 0.0
C3508 C 0.21956 0.42296 0.30733 0.0
C3509 C 0.23076 0.42072 0.29883 0.0
N3510 N 0.2462 0.40532 0.28866 0.0
N3511 N 0.20328 0.41348 0.32315 0.0
C3512 C 0.23444 0.40742 0.29544 0.0
C3513 C 0.21253 0.41173 0.31317 0.0
N3514 N 0.22779 0.38384 0.29427 0.0
N3515 N 0.21541 0.43582 0.30948 0.0
H3516 H 0.19787 0.40549 0.32756 0.0
H3517 H 0.20171 0.42267 0.32782 0.0
H3518 H 0.22042 0.44427 0.30549 0.0
H3519 H 0.20646 0.43811 0.31435 0.0
H3520 H 0.23429 0.38194 0.28631 0.0
H3521 H 0.22196 0.37545 0.29711 0.0
H3522 H 0.25022 0.39582 0.28723 0.0
H3523 H 0.2526 0.41313 0.28542 0.0
C3524 C 0.1202 0.7232 0.29019 0.0
C3525 C 0.11805 0.71566 0.30224 0.0
C3526 C 0.09473 0.7237 0.30327 0.0
C3527 C 0.09729 0.73212 0.29189 0.0
N3528 N 0.11284 0.74131 0.27543 0.0
N3529 N 0.10397 0.70966 0.32118 0.0
C3530 C 0.11013 0.73223 0.28557 0.0
C3531 C 0.10548 0.71614 0.30903 0.0
N3532 N 0.13178 0.72147 0.28298 0.0
N3533 N 0.08194 0.72275 0.30837 0.0
H3534 H 0.11152 0.70381 0.32555 0.0
H3535 H 0.09564 0.71078 0.3274 0.0
H3536 H 0.07391 0.7283 0.30449 0.0
H3537 H 0.07901 0.71578 0.31573 0.0
H3538 H 0.13331 0.72546 0.27335 0.0
H3539 H 0.13951 0.71516 0.28618 0.0
H3540 H 0.12245 0.74303 0.27149 0.0
H3541 H 0.10566 0.74789 0.27154 0.0
C3542 C 0.81281 0.60823 0.31423 0.0
C3543 C 0.80786 0.62137 0.31179 0.0
C3544 C 0.79293 0.61264 0.29387 0.0
C3545 C 0.79865 0.59971 0.29559 0.0
N3546 N 0.81515 0.58538 0.30609 0.0
N3547 N 0.79481 0.63663 0.29808 0.0
C3548 C 0.80891 0.59754 0.30543 0.0
C3549 C 0.79836 0.62372 0.30126 0.0
N3550 N 0.82096 0.6059 0.32519 0.0
N3551 N 0.78205 0.61423 0.28544 0.0
H3552 H 0.79844 0.645 0.30336 0.0
H3553 H 0.78914 0.63917 0.28957 0.0
H3554 H 0.77785 0.60639 0.27975 0.0
H3555 H 0.77646 0.623 0.28488 0.0
H3556 H 0.82372 0.59633 0.32842 0.0
H3557 H 0.82421 0.61353 0.3317 0.0
H3558 H 0.8237 0.58358 0.31198 0.0
H3559 H 0.81236 0.57728 0.29997 0.0
C3560 C 0.906 0.28942 0.30069 0.0
C3561 C 0.90943 0.29867 0.31108 0.0
C3562 C 0.93354 0.29407 0.30802 0.0
C3563 C 0.93011 0.28519 0.29734 0.0
N3564 N 0.91353 0.27649 0.28158 0.0
N3565 N 0.92633 0.3118 0.32297 0.0
C3566 C 0.91646 0.28353 0.29307 0.0
C3567 C 0.92319 0.30161 0.31422 0.0
N3568 N 0.89277 0.2858 0.29852 0.0
N3569 N 0.94661 0.29491 0.31256 0.0
H3570 H 0.91899 0.31746 0.3277 0.0
H3571 H 0.93614 0.31539 0.32468 0.0
H3572 H 0.95448 0.28978 0.30806 0.0
H3573 H 0.94955 0.29998 0.32129 0.0
H3574 H 0.88972 0.27794 0.29224 0.0
H3575 H 0.88478 0.28998 0.30376 0.0
H3576 H 0.90396 0.27611 0.27712 0.0
H3577 H 0.92092 0.27196 0.27578 0.0
C3578 C 0.80396 0.40043 0.73524 0.0
C3579 C 0.81499 0.4031 0.72649 0.0
C3580 C 0.81143 0.42743 0.72861 0.0
C3581 C 0.80142 0.42474 0.73851 0.0
N3582 N 0.78921 0.40879 0.75257 0.0
N3583 N 0.83018 0.41899 0.71566 0.0
C3584 C 0.79791 0.41126 0.74213 0.0
C3585 C 0.81895 0.41658 0.72333 0.0
N3586 N 0.79912 0.38752 0.73676 0.0
N3587 N 0.81354 0.44034 0.72409 0.0
H3588 H 0.83573 0.4113 0.71138 0.0
H3589 H 0.83454 0.42851 0.71426 0.0
H3590 H 0.80828 0.4485 0.72783 0.0
H3591 H 0.81967 0.44285 0.71592 0.0
H3592 H 0.79021 0.38505 0.74181 0.0
H3593 H 0.80339 0.37932 0.73197 0.0
H3594 H 0.78746 0.39926 0.75674 0.0
H3595 H 0.78447 0.41641 0.75785 0.0
C3596 C 0.11009 0.29964 0.71612 0.0
C3597 C 0.12373 0.29762 0.7201 0.0
C3598 C 0.11618 0.28499 0.74017 0.0
C3599 C 0.10254 0.28751 0.7365 0.0
N3600 N 0.08634 0.29868 0.72223 0.0
N3601 N 0.13996 0.29031 0.73675 0.0
C3602 C 0.09944 0.29529 0.72484 0.0
C3603 C 0.12683 0.29086 0.73239 0.0
N3604 N 0.10734 0.30536 0.70381 0.0
N3605 N 0.11893 0.27669 0.75091 0.0
H3606 H 0.14805 0.29424 0.73119 0.0
H3607 H 0.14282 0.28688 0.7463 0.0
H3608 H 0.11146 0.27261 0.75718 0.0
H3609 H 0.12852 0.2731 0.75315 0.0
H3610 H 0.09769 0.30578 0.69958 0.0
H3611 H 0.11487 0.30899 0.69735 0.0
H3612 H 0.08348 0.3055 0.71475 0.0
H3613 H 0.07829 0.29536 0.72822 0.0
C3614 C 0.90311 0.73064 0.73058 0.0
C3615 C 0.90572 0.72163 0.71991 0.0
C3616 C 0.92975 0.72134 0.72633 0.0
C3617 C 0.92728 0.73109 0.73636 0.0
N3618 N 0.91219 0.74666 0.74678 0.0
N3619 N 0.9216 0.70973 0.7063 0.0
C3620 C 0.91411 0.73621 0.73813 0.0
C3621 C 0.91908 0.71734 0.71741 0.0
N3622 N 0.89005 0.73356 0.73374 0.0
N3623 N 0.94221 0.71566 0.72559 0.0
H3624 H 0.914 0.70642 0.6997 0.0
H3625 H 0.93128 0.70749 0.70305 0.0
H3626 H 0.95031 0.71856 0.73178 0.0
H3627 H 0.94429 0.70744 0.71955 0.0
H3628 H 0.88738 0.73882 0.74234 0.0
H3629 H 0.88173 0.7298 0.72835 0.0
H3630 H 0.90317 0.75185 0.74742 0.0
H3631 H 0.91996 0.75092 0.7526 0.0
C3632 C 0.72097 0.21396 0.60896 0.0
C3633 C 0.72505 0.21665 0.62246 0.0
C3634 C 0.73876 0.23599 0.61464 0.0
C3635 C 0.7357 0.23253 0.60106 0.0
N3636 N 0.72532 0.21734 0.58506 0.0
N3637 N 0.73934 0.22889 0.63812 0.0
C3638 C 0.72716 0.22128 0.59815 0.0
C3639 C 0.73436 0.22732 0.6253 0.0
N3640 N 0.71092 0.20465 0.60652 0.0
N3641 N 0.74555 0.24779 0.61737 0.0
H3642 H 0.73627 0.22284 0.64623 0.0
H3643 H 0.7473 0.23546 0.64053 0.0
H3644 H 0.749 0.2544 0.60986 0.0
H3645 H 0.74678 0.25161 0.62707 0.0
H3646 H 0.70646 0.20322 0.59708 0.0
H3647 H 0.70625 0.19905 0.61419 0.0
H3648 H 0.72044 0.20839 0.58232 0.0
H3649 H 0.72958 0.22255 0.5769 0.0
C3650 C 0.29332 0.21971 0.62749 0.0
C3651 C 0.30236 0.20912 0.62484 0.0
C3652 C 0.30233 0.21516 0.60074 0.0
C3653 C 0.29263 0.22516 0.60328 0.0
N3654 N 0.27721 0.23567 0.61852 0.0
N3655 N 0.31408 0.1954 0.60894 0.0
C3656 C 0.28763 0.22706 0.61651 0.0
C3657 C 0.30648 0.20646 0.61145 0.0
N3658 N 0.29051 0.223 0.64054 0.0
N3659 N 0.30784 0.21425 0.58817 0.0
H3660 H 0.31748 0.18895 0.61657 0.0
H3661 H 0.31621 0.19202 0.59928 0.0
H3662 H 0.3048 0.22025 0.58003 0.0
H3663 H 0.31603 0.20823 0.58598 0.0
H3664 H 0.28527 0.23156 0.64321 0.0
H3665 H 0.29433 0.21773 0.64885 0.0
H3666 H 0.27209 0.2364 0.62762 0.0
H3667 H 0.27289 0.24137 0.61077 0.0
C3668 C 0.30857 0.81058 0.60862 0.0
C3669 C 0.30217 0.80973 0.62139 0.0
C3670 C 0.28617 0.79268 0.61265 0.0
C3671 C 0.29208 0.79409 0.59968 0.0
N3672 N 0.30757 0.80553 0.58466 0.0
N3673 N 0.28373 0.80165 0.63519 0.0
C3674 C 0.30291 0.8034 0.59747 0.0
C3675 C 0.29063 0.80125 0.62329 0.0
N3676 N 0.32029 0.81797 0.60728 0.0
N3677 N 0.27656 0.78285 0.61488 0.0
H3678 H 0.28683 0.80759 0.64332 0.0
H3679 H 0.27438 0.79692 0.63671 0.0
H3680 H 0.27274 0.77662 0.60728 0.0
H3681 H 0.27301 0.78019 0.62443 0.0
H3682 H 0.3263 0.81786 0.5987 0.0
H3683 H 0.32457 0.82356 0.61514 0.0
H3684 H 0.31444 0.81317 0.58207 0.0
H3685 H 0.3038 0.80026 0.57634 0.0
C3686 C 0.72196 0.81498 0.60943 0.0
C3687 C 0.72516 0.81159 0.62302 0.0
C3688 C 0.74007 0.79381 0.61524 0.0
C3689 C 0.73817 0.79831 0.60173 0.0
N3690 N 0.72819 0.81375 0.5858 0.0
N3691 N 0.73827 0.79878 0.63907 0.0
C3692 C 0.72927 0.809 0.59876 0.0
C3693 C 0.73442 0.80119 0.626 0.0
N3694 N 0.71176 0.82375 0.60675 0.0
N3695 N 0.74713 0.78232 0.61776 0.0
H3696 H 0.73426 0.80384 0.64726 0.0
H3697 H 0.74617 0.79248 0.64178 0.0
H3698 H 0.7515 0.7767 0.61014 0.0
H3699 H 0.74767 0.77769 0.62722 0.0
H3700 H 0.70798 0.82564 0.5971 0.0
H3701 H 0.70627 0.82833 0.61434 0.0
H3702 H 0.72312 0.8225 0.58317 0.0
H3703 H 0.73315 0.80941 0.57771 0.0
C3704 C 0.73382 0.79777 0.40388 0.0
C3705 C 0.72462 0.80818 0.40664 0.0
C3706 C 0.72486 0.80197 0.43071 0.0
C3707 C 0.73478 0.79221 0.42806 0.0
N3708 N 0.75037 0.78216 0.41266 0.0
N3709 N 0.7127 0.82156 0.4227 0.0
C3710 C 0.73973 0.79049 0.41478 0.0
C3711 C 0.7205 0.81066 0.42008 0.0
N3712 N 0.73659 0.79458 0.39079 0.0
N3713 N 0.71934 0.80265 0.44329 0.0
H3714 H 0.70914 0.82799 0.41514 0.0
H3715 H 0.71057 0.82482 0.4324 0.0
H3716 H 0.72249 0.79661 0.45135 0.0
H3717 H 0.71103 0.80847 0.44554 0.0
H3718 H 0.74197 0.78613 0.38806 0.0
H3719 H 0.73259 0.79979 0.38253 0.0
H3720 H 0.75544 0.78161 0.40352 0.0
H3721 H 0.75491 0.77657 0.42036 0.0
C3722 C 0.71795 0.21653 0.41938 0.0
C3723 C 0.72044 0.22069 0.40586 0.0
C3724 C 0.74014 0.23407 0.41342 0.0
C3725 C 0.73685 0.23097 0.42705 0.0
N3726 N 0.72182 0.2206 0.44326 0.0
N3727 N 0.73264 0.23487 0.39007 0.0
C3728 C 0.72554 0.22253 0.43011 0.0
C3729 C 0.73122 0.22984 0.40289 0.0
N3730 N 0.70854 0.20659 0.42192 0.0
N3731 N 0.75199 0.24074 0.41053 0.0
H3732 H 0.72641 0.23192 0.38204 0.0
H3733 H 0.73929 0.24273 0.38758 0.0
H3734 H 0.75877 0.24407 0.41795 0.0
H3735 H 0.75569 0.24199 0.40077 0.0
H3736 H 0.70722 0.20208 0.43135 0.0
H3737 H 0.70274 0.20206 0.41432 0.0
H3738 H 0.71285 0.2158 0.44613 0.0
H3739 H 0.72725 0.2247 0.45135 0.0
C3740 C 0.31315 0.21182 0.42028 0.0
C3741 C 0.31007 0.21587 0.40683 0.0
C3742 C 0.29163 0.22975 0.41503 0.0
C3743 C 0.29401 0.22487 0.42835 0.0
N3744 N 0.30574 0.20996 0.44356 0.0
N3745 N 0.29519 0.22691 0.39103 0.0
C3746 C 0.30443 0.21554 0.43096 0.0
C3747 C 0.29896 0.22433 0.4041 0.0
N3748 N 0.32463 0.20473 0.42287 0.0
N3749 N 0.28265 0.23988 0.41289 0.0
H3750 H 0.30039 0.22323 0.38276 0.0
H3751 H 0.28629 0.23173 0.38835 0.0
H3752 H 0.27704 0.24409 0.42061 0.0
H3753 H 0.28156 0.24491 0.40369 0.0
H3754 H 0.32827 0.20276 0.43256 0.0
H3755 H 0.3311 0.20164 0.41529 0.0
H3756 H 0.31213 0.20202 0.4458 0.0
H3757 H 0.29966 0.21262 0.45164 0.0
C3758 C 0.29392 0.79899 0.40021 0.0
C3759 C 0.30424 0.80872 0.40296 0.0
C3760 C 0.30058 0.8058 0.42733 0.0
C3761 C 0.29057 0.79576 0.42456 0.0
N3762 N 0.27959 0.78079 0.40873 0.0
N3763 N 0.31922 0.81965 0.4189 0.0
C3764 C 0.28785 0.79172 0.41109 0.0
C3765 C 0.30814 0.81158 0.41648 0.0
N3766 N 0.28952 0.7971 0.38723 0.0
N3767 N 0.3025 0.81012 0.44028 0.0
H3768 H 0.32491 0.82408 0.41117 0.0
H3769 H 0.32344 0.82108 0.42844 0.0
H3770 H 0.29739 0.80587 0.44849 0.0
H3771 H 0.30849 0.81846 0.44282 0.0
H3772 H 0.28097 0.79137 0.38471 0.0
H3773 H 0.29381 0.80208 0.37895 0.0
H3774 H 0.27831 0.77643 0.39927 0.0
H3775 H 0.27486 0.7753 0.41644 0.0
C3776 C 0.6266 0.22555 0.72966 0.0
C3777 C 0.62406 0.21971 0.71684 0.0
C3778 C 0.59965 0.22287 0.71967 0.0
C3779 C 0.60232 0.22972 0.73194 0.0
N3780 N 0.61826 0.23896 0.74808 0.0
N3781 N 0.60854 0.21387 0.69887 0.0
C3782 C 0.61579 0.23142 0.7368 0.0
C3783 C 0.61067 0.21862 0.71164 0.0
N3784 N 0.63934 0.22522 0.73511 0.0
N3785 N 0.58657 0.22023 0.71583 0.0
H3786 H 0.61631 0.21032 0.69287 0.0
H3787 H 0.59928 0.21421 0.69384 0.0
H3788 H 0.5783 0.22351 0.7213 0.0
H3789 H 0.58386 0.21404 0.7078 0.0
H3790 H 0.64162 0.22792 0.74501 0.0
H3791 H 0.64756 0.22125 0.73006 0.0
H3792 H 0.62789 0.24196 0.75126 0.0
H3793 H 0.6106 0.24307 0.75384 0.0
C3794 C 0.29985 0.1197 0.73694 0.0
C3795 C 0.31026 0.11698 0.72763 0.0
C3796 C 0.30389 0.09295 0.72796 0.0
C3797 C 0.29413 0.09556 0.73799 0.0
N3798 N 0.28422 0.11088 0.7537 0.0
N3799 N 0.3236 0.101 0.71562 0.0
C3800 C 0.29251 0.1088 0.74296 0.0
C3801 C 0.31268 0.10358 0.72351 0.0
N3802 N 0.29671 0.13274 0.73971 0.0
N3803 N 0.30448 0.08041 0.72244 0.0
H3804 H 0.33011 0.10856 0.712 0.0
H3805 H 0.32681 0.09133 0.71347 0.0
H3806 H 0.29837 0.07235 0.72564 0.0
H3807 H 0.3103 0.07819 0.71407 0.0
H3808 H 0.28825 0.13543 0.74519 0.0
H3809 H 0.30195 0.141 0.73563 0.0
H3810 H 0.28373 0.12 0.75876 0.0
H3811 H 0.27859 0.10317 0.75833 0.0
C3812 C 0.40096 0.78985 0.7253 0.0
C3813 C 0.40357 0.79913 0.71463 0.0
C3814 C 0.42801 0.79677 0.71829 0.0
C3815 C 0.42537 0.78638 0.72789 0.0
N3816 N 0.40941 0.77177 0.73946 0.0
N3817 N 0.41938 0.81067 0.69998 0.0
C3818 C 0.41185 0.78263 0.73117 0.0
C3819 C 0.41706 0.80245 0.7109 0.0
N3820 N 0.38807 0.78812 0.72998 0.0
N3821 N 0.44098 0.80137 0.71646 0.0
H3822 H 0.41163 0.81524 0.69452 0.0
H3823 H 0.42888 0.81226 0.69576 0.0
H3824 H 0.44922 0.79734 0.72165 0.0
H3825 H 0.44349 0.80983 0.71067 0.0
H3826 H 0.38569 0.78262 0.73866 0.0
H3827 H 0.37983 0.79315 0.72583 0.0
H3828 H 0.39982 0.76756 0.74098 0.0
H3829 H 0.41707 0.76624 0.74405 0.0
C3830 C 0.72406 0.9004 0.73803 0.0
C3831 C 0.71607 0.90305 0.72637 0.0
C3832 C 0.72171 0.92719 0.72794 0.0
C3833 C 0.73018 0.92443 0.73922 0.0
N3834 N 0.74125 0.90837 0.75378 0.0
N3835 N 0.70879 0.91838 0.70891 0.0
C3836 C 0.73192 0.911 0.74388 0.0
C3837 C 0.71534 0.9163 0.72093 0.0
N3838 N 0.72373 0.88783 0.7438 0.0
N3839 N 0.71951 0.94026 0.72417 0.0
H3840 H 0.7039 0.91065 0.70361 0.0
H3841 H 0.70902 0.9275 0.70364 0.0
H3842 H 0.72433 0.94843 0.72883 0.0
H3843 H 0.7123 0.94309 0.71704 0.0
H3844 H 0.728 0.88561 0.75318 0.0
H3845 H 0.71833 0.87972 0.73967 0.0
H3846 H 0.74415 0.8987 0.75655 0.0
H3847 H 0.74694 0.9159 0.75859 0.0
C3848 C 0.62735 0.78935 0.30126 0.0
C3849 C 0.62425 0.79843 0.31173 0.0
C3850 C 0.60029 0.79766 0.30505 0.0
C3851 C 0.60327 0.7879 0.29518 0.0
N3852 N 0.61909 0.77278 0.28519 0.0
N3853 N 0.60775 0.80988 0.32497 0.0
C3854 C 0.61666 0.78326 0.29366 0.0
C3855 C 0.61069 0.80222 0.31402 0.0
N3856 N 0.64055 0.78686 0.29832 0.0
N3857 N 0.58759 0.80284 0.30558 0.0
H3858 H 0.61514 0.81357 0.33161 0.0
H3859 H 0.59794 0.81178 0.32809 0.0
H3860 H 0.57967 0.79951 0.29937 0.0
H3861 H 0.5851 0.81104 0.31148 0.0
H3862 H 0.64355 0.78157 0.28985 0.0
H3863 H 0.64866 0.79099 0.30376 0.0
H3864 H 0.62831 0.76793 0.28474 0.0
H3865 H 0.61156 0.76817 0.27933 0.0
C3866 C 0.72546 0.12425 0.29699 0.0
C3867 C 0.71906 0.12153 0.30951 0.0
C3868 C 0.7212 0.0972 0.30589 0.0
C3869 C 0.72873 0.09999 0.29402 0.0
N3870 N 0.73924 0.11601 0.27877 0.0
N3871 N 0.71172 0.1057 0.32664 0.0
C3872 C 0.73115 0.11348 0.28967 0.0
C3873 C 0.71711 0.10806 0.31415 0.0
N3874 N 0.72586 0.13713 0.29197 0.0
N3875 N 0.7178 0.08416 0.30911 0.0
H3876 H 0.70826 0.11338 0.33278 0.0
H3877 H 0.71142 0.09628 0.33132 0.0
H3878 H 0.72089 0.07599 0.30344 0.0
H3879 H 0.71115 0.08145 0.3168 0.0
H3880 H 0.72902 0.13963 0.28226 0.0
H3881 H 0.72202 0.1453 0.29717 0.0
H3882 H 0.74277 0.12558 0.27604 0.0
H3883 H 0.74325 0.10841 0.27288 0.0
C3884 C 0.40409 0.22359 0.29401 0.0
C3885 C 0.40594 0.2165 0.30637 0.0
C3886 C 0.42913 0.2256 0.30821 0.0
C3887 C 0.42686 0.23356 0.29646 0.0
N3888 N 0.4118 0.24153 0.27899 0.0
N3889 N 0.41947 0.21165 0.32609 0.0
C3890 C 0.41423 0.23291 0.28956 0.0
C3891 C 0.41828 0.21773 0.3137 0.0
N3892 N 0.39274 0.22117 0.28636 0.0
N3893 N 0.44175 0.22539 0.31392 0.0
H3894 H 0.41184 0.20559 0.33028 0.0
H3895 H 0.42759 0.21332 0.33264 0.0
H3896 H 0.44984 0.23119 0.31026 0.0
H3897 H 0.44451 0.21878 0.32163 0.0
H3898 H 0.39146 0.2248 0.27656 0.0
H3899 H 0.38494 0.21465 0.28943 0.0
H3900 H 0.40231 0.24271 0.27456 0.0
H3901 H 0.41906 0.24826 0.2752 0.0
C3902 C 0.30514 0.89816 0.29173 0.0
C3903 C 0.31685 0.90066 0.29973 0.0
C3904 C 0.31437 0.92502 0.29619 0.0
C3905 C 0.30362 0.9224 0.28697 0.0
N3906 N 0.28962 0.90649 0.27467 0.0
N3907 N 0.33345 0.91622 0.30883 0.0
C3908 C 0.29916 0.90897 0.28445 0.0
C3909 C 0.32166 0.91405 0.30183 0.0
N3910 N 0.29961 0.88544 0.29128 0.0
N3911 N 0.31742 0.93801 0.29971 0.0
H3912 H 0.33886 0.90846 0.31339 0.0
H3913 H 0.33836 0.92556 0.30941 0.0
H3914 H 0.31233 0.94625 0.29568 0.0
H3915 H 0.32421 0.94059 0.30739 0.0
H3916 H 0.29028 0.8832 0.28684 0.0
H3917 H 0.30382 0.87726 0.29635 0.0
H3918 H 0.28711 0.89688 0.27124 0.0
H3919 H 0.28489 0.9141 0.26918 0.0
C3920 C 0.71653 0.10687 0.71785 0.0
C3921 C 0.71889 0.12021 0.72245 0.0
C3922 C 0.7376 0.11241 0.73675 0.0
C3923 C 0.73443 0.09891 0.73311 0.0
N3924 N 0.71997 0.08295 0.72153 0.0
N3925 N 0.73028 0.13556 0.73767 0.0
C3926 C 0.72365 0.09604 0.72399 0.0
C3927 C 0.72907 0.12296 0.73227 0.0
N3928 N 0.70772 0.10461 0.70738 0.0
N3929 N 0.74902 0.1152 0.74417 0.0
H3930 H 0.72434 0.1436 0.73455 0.0
H3931 H 0.73641 0.13781 0.74597 0.0
H3932 H 0.7555 0.10776 0.74772 0.0
H3933 H 0.75271 0.12492 0.74588 0.0
H3934 H 0.70659 0.09537 0.70258 0.0
H3935 H 0.70225 0.11229 0.70275 0.0
H3936 H 0.7113 0.08013 0.71617 0.0
H3937 H 0.72508 0.07479 0.72572 0.0
C3938 C 0.7263 0.90024 0.29602 0.0
C3939 C 0.71584 0.90272 0.30535 0.0
C3940 C 0.72017 0.92708 0.30325 0.0
C3941 C 0.73128 0.92452 0.29472 0.0
N3942 N 0.74642 0.90871 0.28474 0.0
N3943 N 0.70393 0.91815 0.31942 0.0
C3944 C 0.73477 0.9111 0.29159 0.0
C3945 C 0.71308 0.91606 0.30941 0.0
N3946 N 0.72787 0.88756 0.29105 0.0
N3947 N 0.71618 0.94004 0.30514 0.0
H3948 H 0.69846 0.91032 0.32405 0.0
H3949 H 0.70249 0.92746 0.32388 0.0
H3950 H 0.72125 0.94834 0.3009 0.0
H3951 H 0.70731 0.94254 0.31002 0.0
H3952 H 0.73425 0.8854 0.28307 0.0
H3953 H 0.72198 0.8793 0.29415 0.0
H3954 H 0.75032 0.89914 0.28347 0.0
H3955 H 0.75287 0.91638 0.28124 0.0
C3956 C 0.60855 0.21489 0.31007 0.0
C3957 C 0.62218 0.21895 0.30774 0.0
C3958 C 0.61453 0.23882 0.29509 0.0
C3959 C 0.60092 0.23517 0.29807 0.0
N3960 N 0.58484 0.22092 0.30977 0.0
N3961 N 0.63836 0.23561 0.2999 0.0
C3962 C 0.59789 0.22354 0.30598 0.0
C3963 C 0.62523 0.23117 0.30079 0.0
N3964 N 0.60582 0.2026 0.31586 0.0
N3965 N 0.61721 0.24939 0.28651 0.0
H3966 H 0.64648 0.23017 0.30373 0.0
H3967 H 0.64119 0.24513 0.29633 0.0
H3968 H 0.6097 0.25547 0.28242 0.0
H3969 H 0.62675 0.2516 0.28265 0.0
H3970 H 0.59615 0.19833 0.31649 0.0
H3971 H 0.61336 0.19618 0.31929 0.0
H3972 H 0.58207 0.21347 0.31672 0.0
H3973 H 0.57677 0.22686 0.30666 0.0
C3974 C 0.29475 0.11907 0.30327 0.0
C3975 C 0.30715 0.11759 0.31039 0.0
C3976 C 0.30924 0.09465 0.30162 0.0
C3977 C 0.29747 0.09659 0.2936 0.0
N3978 N 0.27982 0.11106 0.28541 0.0
N3979 N 0.327 0.10475 0.31549 0.0
C3980 C 0.29041 0.10891 0.29408 0.0
C3981 C 0.31461 0.10557 0.30936 0.0
N3982 N 0.28698 0.13007 0.30551 0.0
N3983 N 0.31509 0.08228 0.30201 0.0
H3984 H 0.33109 0.11241 0.32147 0.0
H3985 H 0.33366 0.09691 0.31395 0.0
H3986 H 0.31151 0.07416 0.29631 0.0
H3987 H 0.32283 0.07973 0.30868 0.0
H3988 H 0.27715 0.13104 0.30186 0.0
H3989 H 0.28997 0.13788 0.31191 0.0
H3990 H 0.27528 0.12036 0.28408 0.0
H3991 H 0.2761 0.10376 0.27876 0.0
C3992 C 0.40525 0.79032 0.29925 0.0
C3993 C 0.40774 0.79786 0.31114 0.0
C3994 C 0.43212 0.79405 0.3091 0.0
C3995 C 0.42943 0.78527 0.29815 0.0
N3996 N 0.41351 0.77407 0.28327 0.0
N3997 N 0.42322 0.80633 0.32808 0.0
C3998 C 0.41602 0.78321 0.29328 0.0
C3999 C 0.42111 0.79966 0.31621 0.0
N4000 N 0.39261 0.79015 0.29356 0.0
N4001 N 0.44521 0.79713 0.31256 0.0
H4002 H 0.41546 0.81089 0.33334 0.0
H4003 H 0.43245 0.80668 0.33317 0.0
H4004 H 0.45346 0.79303 0.30767 0.0
H4005 H 0.44795 0.8045 0.31952 0.0
H4006 H 0.39039 0.78606 0.28415 0.0
H4007 H 0.38445 0.79509 0.29778 0.0
H4008 H 0.40385 0.77086 0.28039 0.0
H4009 H 0.42114 0.76896 0.27836 0.0
C4010 C 0.31576 0.91505 0.72264 0.0
C4011 C 0.31248 0.90145 0.72598 0.0
C4012 C 0.2951 0.90902 0.74161 0.0
C4013 C 0.29954 0.92255 0.73951 0.0
N4014 N 0.31469 0.9386 0.7289 0.0
N4015 N 0.30007 0.8853 0.73962 0.0
C4016 C 0.30998 0.92563 0.73018 0.0
C4017 C 0.30235 0.89837 0.73566 0.0
N4018 N 0.32423 0.91781 0.71209 0.0
N4019 N 0.28381 0.90639 0.74913 0.0
H4020 H 0.30503 0.87719 0.7354 0.0
H4021 H 0.29401 0.88254 0.74776 0.0
H4022 H 0.2783 0.91393 0.75373 0.0
H4023 H 0.27921 0.8969 0.74987 0.0
H4024 H 0.326 0.92746 0.70824 0.0
H4025 H 0.32867 0.91029 0.70643 0.0
H4026 H 0.32329 0.94132 0.72348 0.0
H4027 H 0.31047 0.94662 0.73403 0.0
C4028 C 0.62516 0.79231 0.72711 0.0
C4029 C 0.6224 0.80193 0.71681 0.0
C4030 C 0.5981 0.79994 0.72156 0.0
C4031 C 0.60097 0.79106 0.73247 0.0
N4032 N 0.61729 0.78056 0.7472 0.0
N4033 N 0.60668 0.81649 0.70542 0.0
C4034 C 0.61453 0.78775 0.73569 0.0
C4035 C 0.60897 0.8062 0.71437 0.0
N4036 N 0.63786 0.78721 0.72841 0.0
N4037 N 0.58497 0.80207 0.71782 0.0
H4038 H 0.61438 0.82119 0.69989 0.0
H4039 H 0.59736 0.82107 0.70422 0.0
H4040 H 0.57677 0.79778 0.72296 0.0
H4041 H 0.58218 0.80723 0.70907 0.0
H4042 H 0.64015 0.77906 0.73465 0.0
H4043 H 0.64595 0.79041 0.72243 0.0
H4044 H 0.62704 0.7791 0.75091 0.0
H4045 H 0.6098 0.77697 0.75373 0.0
C4046 C 0.40189 0.23082 0.72574 0.0
C4047 C 0.40443 0.22136 0.71546 0.0
C4048 C 0.42888 0.22421 0.71923 0.0
C4049 C 0.42633 0.23472 0.72844 0.0
N4050 N 0.41054 0.24931 0.73929 0.0
N4051 N 0.42015 0.2098 0.70138 0.0
C4052 C 0.41286 0.23833 0.73144 0.0
C4053 C 0.41789 0.2182 0.71196 0.0
N4054 N 0.38898 0.23245 0.73021 0.0
N4055 N 0.44178 0.21981 0.71768 0.0
H4056 H 0.41236 0.20498 0.69603 0.0
H4057 H 0.42966 0.20829 0.6973 0.0
H4058 H 0.45005 0.22408 0.72278 0.0
H4059 H 0.44419 0.21128 0.71222 0.0
H4060 H 0.38661 0.23808 0.73866 0.0
H4061 H 0.38068 0.22721 0.72617 0.0
H4062 H 0.40103 0.2534 0.74057 0.0
H4063 H 0.41827 0.25505 0.74374 0.0
C4064 C 0.74505 0.71662 0.1231 0.0
C4065 C 0.73428 0.7071 0.12163 0.0
C4066 C 0.73256 0.71331 0.09768 0.0
C4067 C 0.74066 0.72496 0.10017 0.0
N4068 N 0.75538 0.73749 0.11528 0.0
N4069 N 0.72824 0.69046 0.105 0.0
C4070 C 0.74721 0.72652 0.11287 0.0
C4071 C 0.73077 0.7036 0.10816 0.0
N4072 N 0.75449 0.71484 0.13304 0.0
N4073 N 0.72647 0.71152 0.0854 0.0
H4074 H 0.72982 0.68274 0.11204 0.0
H4075 H 0.72677 0.68715 0.09513 0.0
H4076 H 0.72777 0.71828 0.07736 0.0
H4077 H 0.71943 0.70379 0.0836 0.0
H4078 H 0.76327 0.72074 0.13387 0.0
H4079 H 0.75438 0.70625 0.1392 0.0
H4080 H 0.75918 0.73974 0.12486 0.0
H4081 H 0.75762 0.74477 0.10794 0.0
C4082 C 0.29932 0.72297 0.12927 0.0
C4083 C 0.30512 0.71023 0.12696 0.0
C4084 C 0.30246 0.71349 0.10247 0.0
C4085 C 0.29566 0.7257 0.10485 0.0
N4086 N 0.28631 0.74158 0.12036 0.0
N4087 N 0.31116 0.69259 0.11172 0.0
C4088 C 0.29376 0.73032 0.11822 0.0
C4089 C 0.30644 0.70529 0.11364 0.0
N4090 N 0.29943 0.72815 0.14203 0.0
N4091 N 0.30529 0.70989 0.08951 0.0
H4092 H 0.31453 0.68647 0.11963 0.0
H4093 H 0.31098 0.68775 0.10244 0.0
H4094 H 0.30219 0.71548 0.08111 0.0
H4095 H 0.31147 0.70192 0.08706 0.0
H4096 H 0.29678 0.73799 0.14421 0.0
H4097 H 0.30314 0.72293 0.15042 0.0
H4098 H 0.28314 0.74459 0.12984 0.0
H4099 H 0.28248 0.74752 0.11253 0.0
C4100 C 0.29585 0.30203 0.12578 0.0
C4101 C 0.30419 0.31355 0.12327 0.0
C4102 C 0.29997 0.31142 0.09888 0.0
C4103 C 0.29208 0.2996 0.10139 0.0
N4104 N 0.28477 0.28202 0.11676 0.0
N4105 N 0.3163 0.32781 0.10752 0.0
C4106 C 0.29074 0.2944 0.11472 0.0
C4107 C 0.3069 0.31782 0.10982 0.0
N4108 N 0.29233 0.29871 0.13873 0.0
N4109 N 0.30043 0.31679 0.08614 0.0
H4110 H 0.32151 0.33272 0.11531 0.0
H4111 H 0.31977 0.33049 0.09796 0.0
H4112 H 0.29572 0.31222 0.07786 0.0
H4113 H 0.30469 0.3262 0.08389 0.0
H4114 H 0.28502 0.29142 0.14113 0.0
H4115 H 0.29595 0.30395 0.14713 0.0
H4116 H 0.28476 0.27702 0.12604 0.0
H4117 H 0.28085 0.27617 0.10891 0.0
C4118 C 0.72958 0.29842 0.12607 0.0
C4119 C 0.72414 0.31141 0.12407 0.0
C4120 C 0.72902 0.31023 0.09982 0.0
C4121 C 0.73587 0.29798 0.10214 0.0
N4122 N 0.74368 0.28073 0.11747 0.0
N4123 N 0.71922 0.33022 0.10941 0.0
C4124 C 0.73632 0.29209 0.11526 0.0
C4125 C 0.72391 0.31743 0.11101 0.0
N4126 N 0.72813 0.29208 0.13831 0.0
N4127 N 0.72728 0.31484 0.08689 0.0
H4128 H 0.715 0.33562 0.11728 0.0
H4129 H 0.7202 0.33583 0.10054 0.0
H4130 H 0.73105 0.30985 0.07853 0.0
H4131 H 0.72124 0.32295 0.08431 0.0
H4132 H 0.73057 0.28206 0.14006 0.0
H4133 H 0.72346 0.29652 0.14651 0.0
H4134 H 0.74581 0.27685 0.12703 0.0
H4135 H 0.74844 0.27558 0.10976 0.0
C4136 C 0.73181 0.29849 0.90276 0.0
C4137 C 0.72261 0.30896 0.90525 0.0
C4138 C 0.7221 0.30273 0.9293 0.0
C4139 C 0.73204 0.29291 0.92695 0.0
N4140 N 0.74797 0.28274 0.91201 0.0
N4141 N 0.71028 0.32239 0.92094 0.0
C4142 C 0.73735 0.29116 0.91382 0.0
C4143 C 0.7181 0.31146 0.91855 0.0
N4144 N 0.73495 0.29529 0.88976 0.0
N4145 N 0.71623 0.30345 0.94172 0.0
H4146 H 0.70697 0.32885 0.91328 0.0
H4147 H 0.70787 0.32566 0.93057 0.0
H4148 H 0.71912 0.2974 0.94988 0.0
H4149 H 0.70789 0.30933 0.94373 0.0
H4150 H 0.74035 0.2868 0.88718 0.0
H4151 H 0.73122 0.30053 0.88139 0.0
H4152 H 0.7533 0.28214 0.90302 0.0
H4153 H 0.75223 0.27708 0.91983 0.0
C4154 C 0.72768 0.72851 0.90126 0.0
C4155 C 0.71706 0.71912 0.90401 0.0
C4156 C 0.72306 0.71934 0.92814 0.0
C4157 C 0.73297 0.72952 0.9255 0.0
N4158 N 0.74343 0.74534 0.91001 0.0
N4159 N 0.70336 0.70678 0.92007 0.0
C4160 C 0.73493 0.73454 0.91218 0.0
C4161 C 0.7144 0.71484 0.91747 0.0
N4162 N 0.73108 0.7314 0.88818 0.0
N4163 N 0.72219 0.71375 0.94077 0.0
H4164 H 0.69695 0.7031 0.91249 0.0
H4165 H 0.69996 0.70451 0.92976 0.0
H4166 H 0.7282 0.71698 0.94886 0.0
H4167 H 0.71624 0.70529 0.94305 0.0
H4168 H 0.73967 0.73697 0.88547 0.0
H4169 H 0.72592 0.7273 0.87992 0.0
H4170 H 0.74415 0.75044 0.90081 0.0
H4171 H 0.74902 0.74997 0.91771 0.0
C4172 C 0.31604 0.71269 0.91956 0.0
C4173 C 0.31066 0.7135 0.90625 0.0
C4174 C 0.29033 0.72429 0.91478 0.0
C4175 C 0.29542 0.72291 0.92816 0.0
N4176 N 0.31203 0.71423 0.94368 0.0
N4177 N 0.292 0.71806 0.89121 0.0
C4178 C 0.30797 0.71663 0.93067 0.0
C4179 C 0.29758 0.7187 0.90387 0.0
N4180 N 0.32901 0.7085 0.92152 0.0
N4181 N 0.27876 0.73132 0.91246 0.0
H4182 H 0.29713 0.71433 0.88292 0.0
H4183 H 0.28196 0.72026 0.88906 0.0
H4184 H 0.27293 0.73524 0.92018 0.0
H4185 H 0.27536 0.73411 0.90288 0.0
H4186 H 0.33413 0.7091 0.93072 0.0
H4187 H 0.33504 0.70515 0.91368 0.0
H4188 H 0.32034 0.70844 0.94628 0.0
H4189 H 0.3065 0.71725 0.95201 0.0
C4190 C 0.31503 0.30877 0.9169 0.0
C4191 C 0.30795 0.30891 0.90438 0.0
C4192 C 0.29109 0.29284 0.9134 0.0
C4193 C 0.29772 0.29331 0.92616 0.0
N4194 N 0.31482 0.3029 0.94078 0.0
N4195 N 0.28827 0.30283 0.89112 0.0
C4196 C 0.30936 0.30163 0.92812 0.0
C4197 C 0.29569 0.30144 0.90275 0.0
N4198 N 0.32735 0.31515 0.91793 0.0
N4199 N 0.28062 0.28388 0.91136 0.0
H4200 H 0.29144 0.30879 0.88298 0.0
H4201 H 0.27852 0.29891 0.88988 0.0
H4202 H 0.27669 0.2777 0.91899 0.0
H4203 H 0.27641 0.28186 0.90191 0.0
H4204 H 0.33375 0.31425 0.92627 0.0
H4205 H 0.33166 0.32067 0.91 0.0
H4206 H 0.32242 0.30986 0.94324 0.0
H4207 H 0.31106 0.29763 0.94914 0.0
C4208 C 0.62874 0.72837 0.2277 0.0
C4209 C 0.62616 0.71952 0.21678 0.0
C4210 C 0.60171 0.72144 0.22034 0.0
C4211 C 0.60432 0.73145 0.2302 0.0
N4212 N 0.62021 0.74574 0.24224 0.0
N4213 N 0.61035 0.7084 0.20176 0.0
C4214 C 0.61782 0.73521 0.23367 0.0
C4215 C 0.61267 0.7162 0.21288 0.0
N4216 N 0.64166 0.73004 0.2325 0.0
N4217 N 0.58878 0.71678 0.21831 0.0
H4218 H 0.61811 0.70414 0.19626 0.0
H4219 H 0.60083 0.70687 0.19744 0.0
H4220 H 0.58054 0.72049 0.22354 0.0
H4221 H 0.58631 0.70854 0.21229 0.0
H4222 H 0.64405 0.73519 0.24134 0.0
H4223 H 0.64992 0.72528 0.22829 0.0
H4224 H 0.62977 0.74998 0.24393 0.0
H4225 H 0.61253 0.75098 0.24691 0.0
C4226 C 0.31744 0.60234 0.23635 0.0
C4227 C 0.31458 0.61599 0.23917 0.0
C4228 C 0.29518 0.6083 0.25263 0.0
C4229 C 0.296 0.59539 0.24667 0.0
N4230 N 0.30841 0.5798 0.23312 0.0
N4231 N 0.30788 0.62833 0.25874 0.0
C4232 C 0.30732 0.59227 0.23866 0.0
C4233 C 0.30543 0.61812 0.24989 0.0
N4234 N 0.33041 0.59867 0.23399 0.0
N4235 N 0.2846 0.61128 0.26079 0.0
H4236 H 0.3167 0.63425 0.25823 0.0
H4237 H 0.3023 0.62966 0.2675 0.0
H4238 H 0.27714 0.60422 0.26351 0.0
H4239 H 0.28283 0.62101 0.26414 0.0
H4240 H 0.33327 0.58867 0.23302 0.0
H4241 H 0.33849 0.60548 0.23524 0.0
H4242 H 0.31588 0.57756 0.22616 0.0
H4243 H 0.30132 0.57207 0.23476 0.0
C4244 C 0.41821 0.31276 0.21898 0.0
C4245 C 0.40496 0.3072 0.2203 0.0
C4246 C 0.4128 0.29227 0.23851 0.0
C4247 C 0.42625 0.29703 0.23643 0.0
N4248 N 0.44221 0.31049 0.22368 0.0
N4249 N 0.38988 0.29035 0.22979 0.0
C4250 C 0.42909 0.30694 0.22638 0.0
C4251 C 0.40232 0.29658 0.22965 0.0
N4252 N 0.42031 0.32384 0.21092 0.0
N4253 N 0.40997 0.28393 0.24923 0.0
H4254 H 0.38188 0.29333 0.2236 0.0
H4255 H 0.38777 0.28156 0.23523 0.0
H4256 H 0.41737 0.28042 0.25588 0.0
H4257 H 0.40019 0.28133 0.25221 0.0
H4258 H 0.42939 0.32929 0.21062 0.0
H4259 H 0.41261 0.32826 0.20525 0.0
H4260 H 0.44509 0.31655 0.21553 0.0
H4261 H 0.45038 0.30655 0.22902 0.0
C4262 C 0.7161 0.41636 0.22568 0.0
C4263 C 0.72017 0.40288 0.22795 0.0
C4264 C 0.73835 0.41078 0.24307 0.0
C4265 C 0.7347 0.42431 0.24031 0.0
N4266 N 0.72175 0.44021 0.22733 0.0
N4267 N 0.73654 0.38729 0.23663 0.0
C4268 C 0.72405 0.42717 0.2311 0.0
C4269 C 0.73174 0.40011 0.23598 0.0
N4270 N 0.70439 0.4188 0.21873 0.0
N4271 N 0.74776 0.40809 0.25288 0.0
H4272 H 0.73187 0.37921 0.23168 0.0
H4273 H 0.74575 0.38484 0.24109 0.0
H4274 H 0.75291 0.41559 0.25825 0.0
H4275 H 0.74973 0.39843 0.25647 0.0
H4276 H 0.70002 0.42824 0.21805 0.0
H4277 H 0.69849 0.41117 0.21435 0.0
H4278 H 0.7151 0.44292 0.21962 0.0
H4279 H 0.72732 0.44834 0.23119 0.0
C4280 C 0.60972 0.30199 0.81444 0.0
C4281 C 0.6231 0.30127 0.80946 0.0
C4282 C 0.61507 0.2876 0.79039 0.0
C4283 C 0.60166 0.28846 0.79528 0.0
N4284 N 0.58568 0.2983 0.81033 0.0
N4285 N 0.63834 0.29574 0.79157 0.0
C4286 C 0.59882 0.29627 0.80681 0.0
C4287 C 0.62571 0.29482 0.79705 0.0
N4288 N 0.60752 0.30774 0.82671 0.0
N4289 N 0.6177 0.27947 0.77968 0.0
H4290 H 0.64642 0.30075 0.7963 0.0
H4291 H 0.64062 0.29251 0.7819 0.0
H4292 H 0.61014 0.27439 0.77425 0.0
H4293 H 0.6274 0.27706 0.77664 0.0
H4294 H 0.59831 0.30723 0.8317 0.0
H4295 H 0.61519 0.31242 0.83235 0.0
H4296 H 0.58279 0.30496 0.81778 0.0
H4297 H 0.57751 0.29408 0.80504 0.0
C4298 C 0.71529 0.60574 0.81033 0.0
C4299 C 0.72217 0.61841 0.81065 0.0
C4300 C 0.73908 0.61018 0.79484 0.0
C4301 C 0.73267 0.59727 0.79517 0.0
N4302 N 0.71585 0.58206 0.80438 0.0
N4303 N 0.74158 0.63227 0.80494 0.0
C4304 C 0.7211 0.59485 0.80326 0.0
C4305 C 0.73435 0.62051 0.80339 0.0
N4306 N 0.70303 0.60427 0.81649 0.0
N4307 N 0.74946 0.61268 0.78607 0.0
H4308 H 0.73831 0.64019 0.81087 0.0
H4309 H 0.75129 0.63385 0.80121 0.0
H4310 H 0.75349 0.6053 0.77992 0.0
H4311 H 0.75349 0.62225 0.78414 0.0
H4312 H 0.69676 0.59581 0.81545 0.0
H4313 H 0.69862 0.61195 0.82196 0.0
H4314 H 0.70833 0.57926 0.8112 0.0
H4315 H 0.71971 0.57393 0.79914 0.0
C4316 C 0.4175 0.70523 0.80216 0.0
C4317 C 0.40457 0.71119 0.80241 0.0
C4318 C 0.41322 0.7306 0.7894 0.0
C4319 C 0.42623 0.72478 0.78939 0.0
N4320 N 0.44153 0.70802 0.79775 0.0
N4321 N 0.3906 0.73052 0.79875 0.0
C4322 C 0.42861 0.71253 0.79643 0.0
C4323 C 0.4026 0.72421 0.79682 0.0
N4324 N 0.41904 0.69239 0.80696 0.0
N4325 N 0.41087 0.74193 0.78184 0.0
H4326 H 0.38256 0.72604 0.80398 0.0
H4327 H 0.38897 0.74055 0.79618 0.0
H4328 H 0.41843 0.74708 0.77651 0.0
H4329 H 0.40128 0.74575 0.78008 0.0
H4330 H 0.42776 0.68684 0.80566 0.0
H4331 H 0.41124 0.6869 0.81159 0.0
H4332 H 0.4442 0.6999 0.80387 0.0
H4333 H 0.44984 0.7131 0.79356 0.0
C4334 C 0.31312 0.41498 0.80848 0.0
C4335 C 0.31321 0.40241 0.80176 0.0
C4336 C 0.2964 0.41054 0.78539 0.0
C4337 C 0.2969 0.42336 0.79163 0.0
N4338 N 0.30691 0.43856 0.80782 0.0
N4339 N 0.30668 0.38872 0.78274 0.0
C4340 C 0.30561 0.42581 0.80281 0.0
C4341 C 0.30535 0.40034 0.78989 0.0
N4342 N 0.31992 0.41643 0.82046 0.0
N4343 N 0.28706 0.40797 0.77544 0.0
H4344 H 0.31289 0.38089 0.78587 0.0
H4345 H 0.30245 0.3872 0.77321 0.0
H4346 H 0.28054 0.41525 0.77163 0.0
H4347 H 0.28506 0.39842 0.77159 0.0
H4348 H 0.31909 0.42478 0.82666 0.0
H4349 H 0.32574 0.40882 0.82474 0.0
H4350 H 0.31411 0.44139 0.81502 0.0
H4351 H 0.30141 0.44664 0.80403 0.0
C4352 C 0.73238 0.62229 0.23377 0.0
C4353 C 0.72193 0.61939 0.22428 0.0
C4354 C 0.72695 0.59527 0.22584 0.0
C4355 C 0.73799 0.59831 0.2346 0.0
N4356 N 0.75275 0.6148 0.24511 0.0
N4357 N 0.71042 0.60357 0.20969 0.0
C4358 C 0.74115 0.61186 0.23805 0.0
C4359 C 0.71954 0.60599 0.21986 0.0
N4360 N 0.73365 0.63495 0.23903 0.0
N4361 N 0.72332 0.58213 0.22359 0.0
H4362 H 0.70472 0.61116 0.20518 0.0
H4363 H 0.70922 0.59429 0.20498 0.0
H4364 H 0.72863 0.57405 0.22767 0.0
H4365 H 0.7145 0.5792 0.21852 0.0
H4366 H 0.74002 0.63733 0.24711 0.0
H4367 H 0.72755 0.64291 0.23603 0.0
H4368 H 0.7564 0.62457 0.24664 0.0
H4369 H 0.7594 0.60745 0.24851 0.0
C4370 C 0.71674 0.41636 0.80776 0.0
C4371 C 0.71926 0.40296 0.80373 0.0
C4372 C 0.73773 0.41106 0.78922 0.0
C4373 C 0.73591 0.42431 0.79407 0.0
N4374 N 0.72493 0.43953 0.8091 0.0
N4375 N 0.73323 0.38714 0.79222 0.0
C4376 C 0.72574 0.42696 0.80366 0.0
C4377 C 0.73006 0.40019 0.79488 0.0
N4378 N 0.70553 0.41898 0.81522 0.0
N4379 N 0.74656 0.40894 0.77892 0.0
H4380 H 0.72774 0.3789 0.79604 0.0
H4381 H 0.7419 0.38438 0.78711 0.0
H4382 H 0.7525 0.41661 0.77461 0.0
H4383 H 0.74727 0.39982 0.77389 0.0
H4384 H 0.70226 0.42866 0.81725 0.0
H4385 H 0.69886 0.41144 0.8186 0.0
H4386 H 0.71877 0.44178 0.81721 0.0
H4387 H 0.73117 0.44758 0.80611 0.0
C4388 C 0.60843 0.71048 0.80701 0.0
C4389 C 0.62191 0.71342 0.80296 0.0
C4390 C 0.61386 0.73148 0.78803 0.0
C4391 C 0.60053 0.72928 0.79291 0.0
N4392 N 0.58522 0.71796 0.80821 0.0
N4393 N 0.63786 0.72786 0.79125 0.0
C4394 C 0.59783 0.71911 0.80272 0.0
C4395 C 0.62473 0.72425 0.79392 0.0
N4396 N 0.60572 0.69922 0.81463 0.0
N4397 N 0.61605 0.7402 0.77747 0.0
H4398 H 0.64609 0.72272 0.79526 0.0
H4399 H 0.64063 0.73658 0.78598 0.0
H4400 H 0.60837 0.74575 0.77293 0.0
H4401 H 0.62523 0.74114 0.77246 0.0
H4402 H 0.59599 0.69566 0.81668 0.0
H4403 H 0.61325 0.69281 0.81813 0.0
H4404 H 0.58294 0.71177 0.81645 0.0
H4405 H 0.57719 0.72395 0.80514 0.0
C4406 C 0.30717 0.60363 0.81121 0.0
C4407 C 0.30351 0.61714 0.8084 0.0
C4408 C 0.28894 0.60948 0.78972 0.0
C4409 C 0.29345 0.59612 0.79184 0.0
N4410 N 0.3081 0.58057 0.80333 0.0
N4411 N 0.2926 0.63331 0.79387 0.0
C4412 C 0.30291 0.59321 0.80226 0.0
C4413 C 0.29486 0.62017 0.79733 0.0
N4414 N 0.31443 0.60074 0.82265 0.0
N4415 N 0.27869 0.61188 0.78072 0.0
H4416 H 0.29661 0.64142 0.7993 0.0
H4417 H 0.28766 0.63623 0.78503 0.0
H4418 H 0.27412 0.60434 0.7749 0.0
H4419 H 0.27391 0.62111 0.77979 0.0
H4420 H 0.31616 0.59099 0.8261 0.0
H4421 H 0.31793 0.60814 0.82929 0.0
H4422 H 0.31611 0.57813 0.80972 0.0
H4423 H 0.30504 0.57267 0.79708 0.0
C4424 C 0.40428 0.29361 0.79693 0.0
C4425 C 0.4073 0.30284 0.80743 0.0
C4426 C 0.4313 0.30299 0.8012 0.0
C4427 C 0.42841 0.29301 0.79137 0.0
N4428 N 0.41267 0.27726 0.78113 0.0
N4429 N 0.4237 0.31506 0.82089 0.0
C4430 C 0.41503 0.28788 0.78959 0.0
C4431 C 0.42083 0.3072 0.80993 0.0
N4432 N 0.3911 0.29063 0.79371 0.0
N4433 N 0.44396 0.30868 0.80193 0.0
H4434 H 0.41627 0.31853 0.82734 0.0
H4435 H 0.43348 0.31738 0.82417 0.0
H4436 H 0.45192 0.30563 0.79589 0.0
H4437 H 0.44639 0.31703 0.8078 0.0
H4438 H 0.38817 0.2852 0.78521 0.0
H4439 H 0.38296 0.29451 0.79895 0.0
H4440 H 0.40345 0.27207 0.78051 0.0
H4441 H 0.42023 0.27288 0.77545 0.0
C4442 C 0.29939 0.4007 0.23774 0.0
C4443 C 0.30963 0.40417 0.2283 0.0
C4444 C 0.30614 0.42822 0.2325 0.0
C4445 C 0.29559 0.42473 0.24158 0.0
N4446 N 0.28025 0.40798 0.25081 0.0
N4447 N 0.32109 0.42099 0.21473 0.0
C4448 C 0.29161 0.41105 0.24355 0.0
C4449 C 0.31249 0.41789 0.22507 0.0
N4450 N 0.29749 0.38755 0.24161 0.0
N4451 N 0.3104 0.44135 0.23135 0.0
H4452 H 0.32594 0.41366 0.20914 0.0
H4453 H 0.32259 0.43071 0.21093 0.0
H4454 H 0.30577 0.44919 0.23639 0.0
H4455 H 0.31903 0.44439 0.22613 0.0
H4456 H 0.29134 0.38453 0.2496 0.0
H4457 H 0.30285 0.37964 0.23748 0.0
H4458 H 0.27598 0.39834 0.25143 0.0
H4459 H 0.27436 0.41529 0.25529 0.0
C4460 C 0.62616 0.29513 0.23064 0.0
C4461 C 0.62356 0.30413 0.21976 0.0
C4462 C 0.59951 0.3044 0.22577 0.0
C4463 C 0.60198 0.29471 0.23607 0.0
N4464 N 0.61706 0.27914 0.24701 0.0
N4465 N 0.60769 0.31596 0.20563 0.0
C4466 C 0.61515 0.28958 0.23813 0.0
C4467 C 0.61019 0.30839 0.21694 0.0
N4468 N 0.63921 0.29221 0.23408 0.0
N4469 N 0.58705 0.31007 0.22469 0.0
H4470 H 0.6153 0.31925 0.19909 0.0
H4471 H 0.59801 0.31818 0.20216 0.0
H4472 H 0.57894 0.30718 0.2308 0.0
H4473 H 0.58497 0.31826 0.21843 0.0
H4474 H 0.64188 0.28697 0.24282 0.0
H4475 H 0.64754 0.29593 0.22873 0.0
H4476 H 0.62608 0.27395 0.2479 0.0
H4477 H 0.60928 0.27488 0.25277 0.0
C4478 C 0.41916 0.71228 0.21794 0.0
C4479 C 0.40573 0.71488 0.22199 0.0
C4480 C 0.41428 0.72826 0.24105 0.0
C4481 C 0.42771 0.72519 0.23734 0.0
N4482 N 0.44312 0.71289 0.22359 0.0
N4483 N 0.39026 0.72347 0.23835 0.0
C4484 C 0.4302 0.71676 0.22617 0.0
C4485 C 0.40322 0.72233 0.23384 0.0
N4486 N 0.42134 0.70587 0.206 0.0
N4487 N 0.41211 0.73714 0.25127 0.0
H4488 H 0.38189 0.7195 0.23319 0.0
H4489 H 0.38781 0.72745 0.24768 0.0
H4490 H 0.4199 0.74129 0.25715 0.0
H4491 H 0.40271 0.7411 0.25342 0.0
H4492 H 0.43082 0.70497 0.20166 0.0
H4493 H 0.4135 0.70212 0.19993 0.0
H4494 H 0.44554 0.70562 0.21654 0.0
H4495 H 0.45145 0.71629 0.2292 0.0
loop_
_geom_bond_atom_site_label_1
_geom_bond_atom_site_label_2
_geom_bond_distance
_geom_bond_site_symmetry_2
_ccdc_geom_bond_type
C0 C1 1.264 . S
C0 C5 1.479 . S
C0 C10 1.465 . S
C1 C0 1.264 . S
C1 C3 1.339 . S
C1 H28 0.931 . S
C2 C3 1.395 . S
C2 C4 1.320 . S
C3 C1 1.339 . S
C3 C2 1.395 . S
C3 H29 0.929 . S
C4 C2 1.320 . S
C4 C5 1.405 . S
C4 H30 0.930 . S
C5 C0 1.479 . S
C5 C4 1.405 . S
C5 H31 0.931 . S
U6 O7 2.454 . S
U6 O8 2.458 . S
U6 C9 2.984 . S
U6 C10 2.847 . S
U6 C23 2.882 . S
U6 O24 2.441 . S
U6 O25 2.420 . S
U6 O26 2.455 . S
U6 O27 2.449 . S
O7 U6 2.454 . S
O7 C9 1.353 . S
O8 U6 2.458 . S
O8 C9 1.286 . S
C9 U6 2.984 . S
C9 O7 1.353 . S
C9 O8 1.286 . S
C9 C11 1.363 . S
C10 C0 1.465 . S
C10 U6 2.847 . S
C10 O24 1.249 . S
C10 O25 1.202 . S
C11 C9 1.363 . S
C11 C13 1.408 . S
C11 C16 1.342 . S
C12 C13 1.310 . S
C12 C15 1.461 . S
C12 H32 0.932 . S
C13 C11 1.408 . S
C13 C12 1.310 . S
C13 H33 0.930 . S
C14 C15 1.474 . S
C14 C16 1.285 . S
C14 H34 0.929 . S
C15 C12 1.461 . S
C15 C14 1.474 . S
C16 C11 1.342 . S
C16 C14 1.285 . S
C16 H35 0.930 . S
C17 C20 1.424 . S
C17 C22 1.245 . S
C17 C23 1.428 . S
C18 C21 1.260 . S
C18 C22 1.477 . S
C18 H36 0.932 . S
C19 C20 1.384 . S
C19 C21 1.479 . S
C19 H37 0.929 . S
C20 C17 1.424 . S
C20 C19 1.384 . S
C20 H38 0.928 . S
C21 C18 1.260 . S
C21 C19 1.479 . S
C22 C17 1.245 . S
C22 C18 1.477 . S
C22 H39 0.932 . S
C23 U6 2.882 . S
C23 C17 1.428 . S
C23 O26 1.301 . S
C23 O27 1.282 . S
O24 U6 2.441 . S
O24 C10 1.249 . S
O25 U6 2.420 . S
O25 C10 1.202 . S
O26 U6 2.455 . S
O26 C23 1.301 . S
O27 U6 2.449 . S
O27 C23 1.282 . S
H28 C1 0.931 . S
H29 C3 0.929 . S
H30 C4 0.930 . S
H31 C5 0.931 . S
H32 C12 0.932 . S
H33 C13 0.930 . S
H34 C14 0.929 . S
H35 C16 0.930 . S
H36 C18 0.932 . S
H37 C19 0.929 . S
H38 C20 0.928 . S
H39 C22 0.932 . S
C40 C41 1.264 . S
C40 C45 1.479 . S
C40 C50 1.465 . S
C41 C40 1.264 . S
C41 C43 1.339 . S
C41 H68 0.931 . S
C42 C43 1.395 . S
C42 C44 1.320 . S
C43 C41 1.339 . S
C43 C42 1.395 . S
C43 H69 0.929 . S
C44 C42 1.320 . S
C44 C45 1.405 . S
C44 H70 0.930 . S
C45 C40 1.479 . S
C45 C44 1.405 . S
C45 H71 0.931 . S
U46 O47 2.454 . S
U46 O48 2.458 . S
U46 C49 2.984 . S
U46 C50 2.847 . S
U46 C63 2.882 . S
U46 O64 2.441 . S
U46 O65 2.420 . S
U46 O66 2.455 . S
U46 O67 2.449 . S
O47 U46 2.454 . S
O47 C49 1.353 . S
O48 U46 2.458 . S
O48 C49 1.286 . S
C49 U46 2.984 . S
C49 O47 1.353 . S
C49 O48 1.286 . S
C49 C51 1.363 . S
C50 C40 1.465 . S
C50 U46 2.847 . S
C50 O64 1.249 . S
C50 O65 1.202 . S
C51 C49 1.363 . S
C51 C53 1.408 . S
C51 C56 1.342 . S
C52 C53 1.310 . S
C52 C55 1.461 . S
C52 H72 0.932 . S
C53 C51 1.408 . S
C53 C52 1.310 . S
C53 H73 0.930 . S
C54 C55 1.474 . S
C54 C56 1.285 . S
C54 H74 0.929 . S
C55 C52 1.461 . S
C55 C54 1.474 . S
C56 C51 1.342 . S
C56 C54 1.285 . S
C56 H75 0.930 . S
C57 C60 1.424 . S
C57 C62 1.245 . S
C57 C63 1.428 . S
C58 C61 1.260 . S
C58 C62 1.477 . S
C58 H76 0.932 . S
C59 C60 1.384 . S
C59 C61 1.479 . S
C59 H77 0.929 . S
C60 C57 1.424 . S
C60 C59 1.384 . S
C60 H78 0.928 . S
C61 C58 1.260 . S
C61 C59 1.479 . S
C62 C57 1.245 . S
C62 C58 1.477 . S
C62 H79 0.932 . S
C63 U46 2.882 . S
C63 C57 1.428 . S
C63 O66 1.301 . S
C63 O67 1.282 . S
O64 U46 2.441 . S
O64 C50 1.249 . S
O65 U46 2.420 . S
O65 C50 1.202 . S
O66 U46 2.455 . S
O66 C63 1.301 . S
O67 U46 2.449 . S
O67 C63 1.282 . S
H68 C41 0.931 . S
H69 C43 0.929 . S
H70 C44 0.930 . S
H71 C45 0.931 . S
H72 C52 0.932 . S
H73 C53 0.930 . S
H74 C54 0.929 . S
H75 C56 0.930 . S
H76 C58 0.932 . S
H77 C59 0.929 . S
H78 C60 0.928 . S
H79 C62 0.932 . S
C80 C81 1.264 . S
C80 C85 1.479 . S
C80 C90 1.465 . S
C81 C80 1.264 . S
C81 C83 1.339 . S
C81 H108 0.931 . S
C82 C83 1.395 . S
C82 C84 1.320 . S
C83 C81 1.339 . S
C83 C82 1.395 . S
C83 H109 0.929 . S
C84 C82 1.320 . S
C84 C85 1.405 . S
C84 H110 0.930 . S
C85 C80 1.479 . S
C85 C84 1.405 . S
C85 H111 0.931 . S
U86 O87 2.454 . S
U86 O88 2.458 . S
U86 C89 2.984 . S
U86 C90 2.847 . S
U86 C103 2.882 . S
U86 O104 2.441 . S
U86 O105 2.420 . S
U86 O106 2.455 . S
U86 O107 2.449 . S
O87 U86 2.454 . S
O87 C89 1.353 . S
O88 U86 2.458 . S
O88 C89 1.286 . S
C89 U86 2.984 . S
C89 O87 1.353 . S
C89 O88 1.286 . S
C89 C91 1.363 . S
C90 C80 1.465 . S
C90 U86 2.847 . S
C90 O104 1.249 . S
C90 O105 1.202 . S
C91 C89 1.363 . S
C91 C93 1.408 . S
C91 C96 1.342 . S
C92 C93 1.310 . S
C92 C95 1.461 . S
C92 H112 0.932 . S
C93 C91 1.408 . S
C93 C92 1.310 . S
C93 H113 0.930 . S
C94 C95 1.474 . S
C94 C96 1.285 . S
C94 H114 0.929 . S
C95 C92 1.461 . S
C95 C94 1.474 . S
C96 C91 1.342 . S
C96 C94 1.285 . S
C96 H115 0.930 . S
C97 C100 1.424 . S
C97 C102 1.245 . S
C97 C103 1.428 . S
C98 C101 1.260 . S
C98 C102 1.477 . S
C98 H116 0.932 . S
C99 C100 1.384 . S
C99 C101 1.479 . S
C99 H117 0.929 . S
C100 C97 1.424 . S
C100 C99 1.384 . S
C100 H118 0.928 . S
C101 C98 1.260 . S
C101 C99 1.479 . S
C102 C97 1.245 . S
C102 C98 1.477 . S
C102 H119 0.932 . S
C103 U86 2.882 . S
C103 C97 1.428 . S
C103 O106 1.301 . S
C103 O107 1.282 . S
O104 U86 2.441 . S
O104 C90 1.249 . S
O105 U86 2.420 . S
O105 C90 1.202 . S
O106 U86 2.455 . S
O106 C103 1.301 . S
O107 U86 2.449 . S
O107 C103 1.282 . S
H108 C81 0.931 . S
H109 C83 0.929 . S
H110 C84 0.930 . S
H111 C85 0.931 . S
H112 C92 0.932 . S
H113 C93 0.930 . S
H114 C94 0.929 . S
H115 C96 0.930 . S
H116 C98 0.932 . S
H117 C99 0.929 . S
H118 C100 0.928 . S
H119 C102 0.932 . S
C120 C121 1.264 . S
C120 C125 1.479 . S
C120 C130 1.465 . S
C121 C120 1.264 . S
C121 C123 1.339 . S
C121 H148 0.931 . S
C122 C123 1.395 . S
C122 C124 1.320 . S
C123 C121 1.339 . S
C123 C122 1.395 . S
C123 H149 0.929 . S
C124 C122 1.320 . S
C124 C125 1.405 . S
C124 H150 0.930 . S
C125 C120 1.479 . S
C125 C124 1.405 . S
C125 H151 0.931 . S
U126 O127 2.454 . S
U126 O128 2.458 . S
U126 C129 2.984 . S
U126 C130 2.847 . S
U126 C143 2.882 . S
U126 O144 2.441 . S
U126 O145 2.420 . S
U126 O146 2.455 . S
U126 O147 2.449 . S
O127 U126 2.454 . S
O127 C129 1.353 . S
O128 U126 2.458 . S
O128 C129 1.286 . S
C129 U126 2.984 . S
C129 O127 1.353 . S
C129 O128 1.286 . S
C129 C131 1.363 . S
C130 C120 1.465 . S
C130 U126 2.847 . S
C130 O144 1.249 . S
C130 O145 1.202 . S
C131 C129 1.363 . S
C131 C133 1.408 . S
C131 C136 1.342 . S
C132 C133 1.310 . S
C132 C135 1.461 . S
C132 H152 0.932 . S
C133 C131 1.408 . S
C133 C132 1.310 . S
C133 H153 0.930 . S
C134 C135 1.474 . S
C134 C136 1.285 . S
C134 H154 0.929 . S
C135 C132 1.461 . S
C135 C134 1.474 . S
C136 C131 1.342 . S
C136 C134 1.285 . S
C136 H155 0.930 . S
C137 C140 1.424 . S
C137 C142 1.245 . S
C137 C143 1.428 . S
C138 C141 1.260 . S
C138 C142 1.477 . S
C138 H156 0.932 . S
C139 C140 1.384 . S
C139 C141 1.479 . S
C139 H157 0.929 . S
C140 C137 1.424 . S
C140 C139 1.384 . S
C140 H158 0.928 . S
C141 C138 1.260 . S
C141 C139 1.479 . S
C142 C137 1.245 . S
C142 C138 1.477 . S
C142 H159 0.932 . S
C143 U126 2.882 . S
C143 C137 1.428 . S
C143 O146 1.301 . S
C143 O147 1.282 . S
O144 U126 2.441 . S
O144 C130 1.249 . S
O145 U126 2.420 . S
O145 C130 1.202 . S
O146 U126 2.455 . S
O146 C143 1.301 . S
O147 U126 2.449 . S
O147 C143 1.282 . S
H148 C121 0.931 . S
H149 C123 0.929 . S
H150 C124 0.930 . S
H151 C125 0.931 . S
H152 C132 0.932 . S
H153 C133 0.930 . S
H154 C134 0.929 . S
H155 C136 0.930 . S
H156 C138 0.932 . S
H157 C139 0.929 . S
H158 C140 0.928 . S
H159 C142 0.932 . S
C160 C161 1.264 . S
C160 C165 1.479 . S
C160 C170 1.465 . S
C161 C160 1.264 . S
C161 C163 1.339 . S
C161 H188 0.931 . S
C162 C163 1.395 . S
C162 C164 1.320 . S
C163 C161 1.339 . S
C163 C162 1.395 . S
C163 H189 0.929 . S
C164 C162 1.320 . S
C164 C165 1.405 . S
C164 H190 0.930 . S
C165 C160 1.479 . S
C165 C164 1.405 . S
C165 H191 0.931 . S
U166 O167 2.454 . S
U166 O168 2.458 . S
U166 C169 2.984 . S
U166 C170 2.847 . S
U166 C183 2.882 . S
U166 O184 2.441 . S
U166 O185 2.420 . S
U166 O186 2.455 . S
U166 O187 2.449 . S
O167 U166 2.454 . S
O167 C169 1.353 . S
O168 U166 2.458 . S
O168 C169 1.286 . S
C169 U166 2.984 . S
C169 O167 1.353 . S
C169 O168 1.286 . S
C169 C171 1.363 . S
C170 C160 1.465 . S
C170 U166 2.847 . S
C170 O184 1.249 . S
C170 O185 1.202 . S
C171 C169 1.363 . S
C171 C173 1.408 . S
C171 C176 1.342 . S
C172 C173 1.310 . S
C172 C175 1.461 . S
C172 H192 0.932 . S
C173 C171 1.408 . S
C173 C172 1.310 . S
C173 H193 0.930 . S
C174 C175 1.474 . S
C174 C176 1.285 . S
C174 H194 0.929 . S
C175 C172 1.461 . S
C175 C174 1.474 . S
C176 C171 1.342 . S
C176 C174 1.285 . S
C176 H195 0.930 . S
C177 C180 1.424 . S
C177 C182 1.245 . S
C177 C183 1.428 . S
C178 C181 1.260 . S
C178 C182 1.477 . S
C178 H196 0.932 . S
C179 C180 1.384 . S
C179 C181 1.479 . S
C179 H197 0.929 . S
C180 C177 1.424 . S
C180 C179 1.384 . S
C180 H198 0.928 . S
C181 C178 1.260 . S
C181 C179 1.479 . S
C182 C177 1.245 . S
C182 C178 1.477 . S
C182 H199 0.932 . S
C183 U166 2.882 . S
C183 C177 1.428 . S
C183 O186 1.301 . S
C183 O187 1.282 . S
O184 U166 2.441 . S
O184 C170 1.249 . S
O185 U166 2.420 . S
O185 C170 1.202 . S
O186 U166 2.455 . S
O186 C183 1.301 . S
O187 U166 2.449 . S
O187 C183 1.282 . S
H188 C161 0.931 . S
H189 C163 0.929 . S
H190 C164 0.930 . S
H191 C165 0.931 . S
H192 C172 0.932 . S
H193 C173 0.930 . S
H194 C174 0.929 . S
H195 C176 0.930 . S
H196 C178 0.932 . S
H197 C179 0.929 . S
H198 C180 0.928 . S
H199 C182 0.932 . S
C200 C201 1.264 . S
C200 C205 1.479 . S
C200 C210 1.465 . S
C201 C200 1.264 . S
C201 C203 1.339 . S
C201 H228 0.931 . S
C202 C203 1.395 . S
C202 C204 1.320 . S
C203 C201 1.339 . S
C203 C202 1.395 . S
C203 H229 0.929 . S
C204 C202 1.320 . S
C204 C205 1.405 . S
C204 H230 0.930 . S
C205 C200 1.479 . S
C205 C204 1.405 . S
C205 H231 0.931 . S
U206 O207 2.454 . S
U206 O208 2.458 . S
U206 C209 2.984 . S
U206 C210 2.847 . S
U206 C223 2.882 . S
U206 O224 2.441 . S
U206 O225 2.420 . S
U206 O226 2.455 . S
U206 O227 2.449 . S
O207 U206 2.454 . S
O207 C209 1.353 . S
O208 U206 2.458 . S
O208 C209 1.286 . S
C209 U206 2.984 . S
C209 O207 1.353 . S
C209 O208 1.286 . S
C209 C211 1.363 . S
C210 C200 1.465 . S
C210 U206 2.847 . S
C210 O224 1.249 . S
C210 O225 1.202 . S
C211 C209 1.363 . S
C211 C213 1.408 . S
C211 C216 1.342 . S
C212 C213 1.310 . S
C212 C215 1.461 . S
C212 H232 0.932 . S
C213 C211 1.408 . S
C213 C212 1.310 . S
C213 H233 0.930 . S
C214 C215 1.474 . S
C214 C216 1.285 . S
C214 H234 0.929 . S
C215 C212 1.461 . S
C215 C214 1.474 . S
C216 C211 1.342 . S
C216 C214 1.285 . S
C216 H235 0.930 . S
C217 C220 1.424 . S
C217 C222 1.245 . S
C217 C223 1.428 . S
C218 C221 1.260 . S
C218 C222 1.477 . S
C218 H236 0.932 . S
C219 C220 1.384 . S
C219 C221 1.479 . S
C219 H237 0.929 . S
C220 C217 1.424 . S
C220 C219 1.384 . S
C220 H238 0.928 . S
C221 C218 1.260 . S
C221 C219 1.479 . S
C222 C217 1.245 . S
C222 C218 1.477 . S
C222 H239 0.932 . S
C223 U206 2.882 . S
C223 C217 1.428 . S
C223 O226 1.301 . S
C223 O227 1.282 . S
O224 U206 2.441 . S
O224 C210 1.249 . S
O225 U206 2.420 . S
O225 C210 1.202 . S
O226 U206 2.455 . S
O226 C223 1.301 . S
O227 U206 2.449 . S
O227 C223 1.282 . S
H228 C201 0.931 . S
H229 C203 0.929 . S
H230 C204 0.930 . S
H231 C205 0.931 . S
H232 C212 0.932 . S
H233 C213 0.930 . S
H234 C214 0.929 . S
H235 C216 0.930 . S
H236 C218 0.932 . S
H237 C219 0.929 . S
H238 C220 0.928 . S
H239 C222 0.932 . S
C240 C241 1.264 . S
C240 C245 1.479 . S
C240 C250 1.465 . S
C241 C240 1.264 . S
C241 C243 1.339 . S
C241 H268 0.931 . S
C242 C243 1.395 . S
C242 C244 1.320 . S
C243 C241 1.339 . S
C243 C242 1.395 . S
C243 H269 0.929 . S
C244 C242 1.320 . S
C244 C245 1.405 . S
C244 H270 0.930 . S
C245 C240 1.479 . S
C245 C244 1.405 . S
C245 H271 0.931 . S
U246 O247 2.454 . S
U246 O248 2.458 . S
U246 C249 2.984 . S
U246 C250 2.847 . S
U246 C263 2.882 . S
U246 O264 2.441 . S
U246 O265 2.420 . S
U246 O266 2.455 . S
U246 O267 2.449 . S
O247 U246 2.454 . S
O247 C249 1.353 . S
O248 U246 2.458 . S
O248 C249 1.286 . S
C249 U246 2.984 . S
C249 O247 1.353 . S
C249 O248 1.286 . S
C249 C251 1.363 . S
C250 C240 1.465 . S
C250 U246 2.847 . S
C250 O264 1.249 . S
C250 O265 1.202 . S
C251 C249 1.363 . S
C251 C253 1.408 . S
C251 C256 1.342 . S
C252 C253 1.310 . S
C252 C255 1.461 . S
C252 H272 0.932 . S
C253 C251 1.408 . S
C253 C252 1.310 . S
C253 H273 0.930 . S
C254 C255 1.474 . S
C254 C256 1.285 . S
C254 H274 0.929 . S
C255 C252 1.461 . S
C255 C254 1.474 . S
C256 C251 1.342 . S
C256 C254 1.285 . S
C256 H275 0.930 . S
C257 C260 1.424 . S
C257 C262 1.245 . S
C257 C263 1.428 . S
C258 C261 1.260 . S
C258 C262 1.477 . S
C258 H276 0.932 . S
C259 C260 1.384 . S
C259 C261 1.479 . S
C259 H277 0.929 . S
C260 C257 1.424 . S
C260 C259 1.384 . S
C260 H278 0.928 . S
C261 C258 1.260 . S
C261 C259 1.479 . S
C262 C257 1.245 . S
C262 C258 1.477 . S
C262 H279 0.932 . S
C263 U246 2.882 . S
C263 C257 1.428 . S
C263 O266 1.301 . S
C263 O267 1.282 . S
O264 U246 2.441 . S
O264 C250 1.249 . S
O265 U246 2.420 . S
O265 C250 1.202 . S
O266 U246 2.455 . S
O266 C263 1.301 . S
O267 U246 2.449 . S
O267 C263 1.282 . S
H268 C241 0.931 . S
H269 C243 0.929 . S
H270 C244 0.930 . S
H271 C245 0.931 . S
H272 C252 0.932 . S
H273 C253 0.930 . S
H274 C254 0.929 . S
H275 C256 0.930 . S
H276 C258 0.932 . S
H277 C259 0.929 . S
H278 C260 0.928 . S
H279 C262 0.932 . S
C280 C281 1.264 . S
C280 C285 1.479 . S
C280 C290 1.465 . S
C281 C280 1.264 . S
C281 C283 1.339 . S
C281 H308 0.931 . S
C282 C283 1.395 . S
C282 C284 1.320 . S
C283 C281 1.339 . S
C283 C282 1.395 . S
C283 H309 0.929 . S
C284 C282 1.320 . S
C284 C285 1.405 . S
C284 H310 0.930 . S
C285 C280 1.479 . S
C285 C284 1.405 . S
C285 H311 0.931 . S
U286 O287 2.454 . S
U286 O288 2.458 . S
U286 C289 2.984 . S
U286 C290 2.847 . S
U286 C303 2.882 . S
U286 O304 2.441 . S
U286 O305 2.420 . S
U286 O306 2.455 . S
U286 O307 2.449 . S
O287 U286 2.454 . S
O287 C289 1.353 . S
O288 U286 2.458 . S
O288 C289 1.286 . S
C289 U286 2.984 . S
C289 O287 1.353 . S
C289 O288 1.286 . S
C289 C291 1.363 . S
C290 C280 1.465 . S
C290 U286 2.847 . S
C290 O304 1.249 . S
C290 O305 1.202 . S
C291 C289 1.363 . S
C291 C293 1.408 . S
C291 C296 1.342 . S
C292 C293 1.310 . S
C292 C295 1.461 . S
C292 H312 0.932 . S
C293 C291 1.408 . S
C293 C292 1.310 . S
C293 H313 0.930 . S
C294 C295 1.474 . S
C294 C296 1.285 . S
C294 H314 0.929 . S
C295 C292 1.461 . S
C295 C294 1.474 . S
C296 C291 1.342 . S
C296 C294 1.285 . S
C296 H315 0.930 . S
C297 C300 1.424 . S
C297 C302 1.245 . S
C297 C303 1.428 . S
C298 C301 1.260 . S
C298 C302 1.477 . S
C298 H316 0.932 . S
C299 C300 1.384 . S
C299 C301 1.479 . S
C299 H317 0.929 . S
C300 C297 1.424 . S
C300 C299 1.384 . S
C300 H318 0.928 . S
C301 C298 1.260 . S
C301 C299 1.479 . S
C302 C297 1.245 . S
C302 C298 1.477 . S
C302 H319 0.932 . S
C303 U286 2.882 . S
C303 C297 1.428 . S
C303 O306 1.301 . S
C303 O307 1.282 . S
O304 U286 2.441 . S
O304 C290 1.249 . S
O305 U286 2.420 . S
O305 C290 1.202 . S
O306 U286 2.455 . S
O306 C303 1.301 . S
O307 U286 2.449 . S
O307 C303 1.282 . S
H308 C281 0.931 . S
H309 C283 0.929 . S
H310 C284 0.930 . S
H311 C285 0.931 . S
H312 C292 0.932 . S
H313 C293 0.930 . S
H314 C294 0.929 . S
H315 C296 0.930 . S
H316 C298 0.932 . S
H317 C299 0.929 . S
H318 C300 0.928 . S
H319 C302 0.932 . S
C320 C321 1.264 . S
C320 C325 1.479 . S
C320 C330 1.465 . S
C321 C320 1.264 . S
C321 C323 1.339 . S
C321 H348 0.931 . S
C322 C323 1.395 . S
C322 C324 1.320 . S
C323 C321 1.339 . S
C323 C322 1.395 . S
C323 H349 0.929 . S
C324 C322 1.320 . S
C324 C325 1.405 . S
C324 H350 0.930 . S
C325 C320 1.479 . S
C325 C324 1.405 . S
C325 H351 0.931 . S
U326 O327 2.454 . S
U326 O328 2.458 . S
U326 C329 2.984 . S
U326 C330 2.847 . S
U326 C343 2.882 . S
U326 O344 2.441 . S
U326 O345 2.420 . S
U326 O346 2.455 . S
U326 O347 2.449 . S
O327 U326 2.454 . S
O327 C329 1.353 . S
O328 U326 2.458 . S
O328 C329 1.286 . S
C329 U326 2.984 . S
C329 O327 1.353 . S
C329 O328 1.286 . S
C329 C331 1.363 . S
C330 C320 1.465 . S
C330 U326 2.847 . S
C330 O344 1.249 . S
C330 O345 1.202 . S
C331 C329 1.363 . S
C331 C333 1.408 . S
C331 C336 1.342 . S
C332 C333 1.310 . S
C332 C335 1.461 . S
C332 H352 0.932 . S
C333 C331 1.408 . S
C333 C332 1.310 . S
C333 H353 0.930 . S
C334 C335 1.474 . S
C334 C336 1.285 . S
C334 H354 0.929 . S
C335 C332 1.461 . S
C335 C334 1.474 . S
C336 C331 1.342 . S
C336 C334 1.285 . S
C336 H355 0.930 . S
C337 C340 1.424 . S
C337 C342 1.245 . S
C337 C343 1.428 . S
C338 C341 1.260 . S
C338 C342 1.477 . S
C338 H356 0.932 . S
C339 C340 1.384 . S
C339 C341 1.479 . S
C339 H357 0.929 . S
C340 C337 1.424 . S
C340 C339 1.384 . S
C340 H358 0.928 . S
C341 C338 1.260 . S
C341 C339 1.479 . S
C342 C337 1.245 . S
C342 C338 1.477 . S
C342 H359 0.932 . S
C343 U326 2.882 . S
C343 C337 1.428 . S
C343 O346 1.301 . S
C343 O347 1.282 . S
O344 U326 2.441 . S
O344 C330 1.249 . S
O345 U326 2.420 . S
O345 C330 1.202 . S
O346 U326 2.455 . S
O346 C343 1.301 . S
O347 U326 2.449 . S
O347 C343 1.282 . S
H348 C321 0.931 . S
H349 C323 0.929 . S
H350 C324 0.930 . S
H351 C325 0.931 . S
H352 C332 0.932 . S
H353 C333 0.930 . S
H354 C334 0.929 . S
H355 C336 0.930 . S
H356 C338 0.932 . S
H357 C339 0.929 . S
H358 C340 0.928 . S
H359 C342 0.932 . S
C360 C361 1.264 . S
C360 C365 1.479 . S
C360 C370 1.465 . S
C361 C360 1.264 . S
C361 C363 1.339 . S
C361 H388 0.931 . S
C362 C363 1.395 . S
C362 C364 1.320 . S
C363 C361 1.339 . S
C363 C362 1.395 . S
C363 H389 0.929 . S
C364 C362 1.320 . S
C364 C365 1.405 . S
C364 H390 0.930 . S
C365 C360 1.479 . S
C365 C364 1.405 . S
C365 H391 0.931 . S
U366 O367 2.454 . S
U366 O368 2.458 . S
U366 C369 2.984 . S
U366 C370 2.847 . S
U366 C383 2.882 . S
U366 O384 2.441 . S
U366 O385 2.420 . S
U366 O386 2.455 . S
U366 O387 2.449 . S
O367 U366 2.454 . S
O367 C369 1.353 . S
O368 U366 2.458 . S
O368 C369 1.286 . S
C369 U366 2.984 . S
C369 O367 1.353 . S
C369 O368 1.286 . S
C369 C371 1.363 . S
C370 C360 1.465 . S
C370 U366 2.847 . S
C370 O384 1.249 . S
C370 O385 1.202 . S
C371 C369 1.363 . S
C371 C373 1.408 . S
C371 C376 1.342 . S
C372 C373 1.310 . S
C372 C375 1.461 . S
C372 H392 0.932 . S
C373 C371 1.408 . S
C373 C372 1.310 . S
C373 H393 0.930 . S
C374 C375 1.474 . S
C374 C376 1.285 . S
C374 H394 0.929 . S
C375 C372 1.461 . S
C375 C374 1.474 . S
C376 C371 1.342 . S
C376 C374 1.285 . S
C376 H395 0.930 . S
C377 C380 1.424 . S
C377 C382 1.245 . S
C377 C383 1.428 . S
C378 C381 1.260 . S
C378 C382 1.477 . S
C378 H396 0.932 . S
C379 C380 1.384 . S
C379 C381 1.479 . S
C379 H397 0.929 . S
C380 C377 1.424 . S
C380 C379 1.384 . S
C380 H398 0.928 . S
C381 C378 1.260 . S
C381 C379 1.479 . S
C382 C377 1.245 . S
C382 C378 1.477 . S
C382 H399 0.932 . S
C383 U366 2.882 . S
C383 C377 1.428 . S
C383 O386 1.301 . S
C383 O387 1.282 . S
O384 U366 2.441 . S
O384 C370 1.249 . S
O385 U366 2.420 . S
O385 C370 1.202 . S
O386 U366 2.455 . S
O386 C383 1.301 . S
O387 U366 2.449 . S
O387 C383 1.282 . S
H388 C361 0.931 . S
H389 C363 0.929 . S
H390 C364 0.930 . S
H391 C365 0.931 . S
H392 C372 0.932 . S
H393 C373 0.930 . S
H394 C374 0.929 . S
H395 C376 0.930 . S
H396 C378 0.932 . S
H397 C379 0.929 . S
H398 C380 0.928 . S
H399 C382 0.932 . S
C400 C401 1.264 . S
C400 C405 1.479 . S
C400 C410 1.465 . S
C401 C400 1.264 . S
C401 C403 1.339 . S
C401 H428 0.931 . S
C402 C403 1.395 . S
C402 C404 1.320 . S
C403 C401 1.339 . S
C403 C402 1.395 . S
C403 H429 0.929 . S
C404 C402 1.320 . S
C404 C405 1.405 . S
C404 H430 0.930 . S
C405 C400 1.479 . S
C405 C404 1.405 . S
C405 H431 0.931 . S
U406 O407 2.454 . S
U406 O408 2.458 . S
U406 C409 2.984 . S
U406 C410 2.847 . S
U406 C423 2.882 . S
U406 O424 2.441 . S
U406 O425 2.420 . S
U406 O426 2.455 . S
U406 O427 2.449 . S
O407 U406 2.454 . S
O407 C409 1.353 . S
O408 U406 2.458 . S
O408 C409 1.286 . S
C409 U406 2.984 . S
C409 O407 1.353 . S
C409 O408 1.286 . S
C409 C411 1.363 . S
C410 C400 1.465 . S
C410 U406 2.847 . S
C410 O424 1.249 . S
C410 O425 1.202 . S
C411 C409 1.363 . S
C411 C413 1.408 . S
C411 C416 1.342 . S
C412 C413 1.310 . S
C412 C415 1.461 . S
C412 H432 0.932 . S
C413 C411 1.408 . S
C413 C412 1.310 . S
C413 H433 0.930 . S
C414 C415 1.474 . S
C414 C416 1.285 . S
C414 H434 0.929 . S
C415 C412 1.461 . S
C415 C414 1.474 . S
C416 C411 1.342 . S
C416 C414 1.285 . S
C416 H435 0.930 . S
C417 C420 1.424 . S
C417 C422 1.245 . S
C417 C423 1.428 . S
C418 C421 1.260 . S
C418 C422 1.477 . S
C418 H436 0.932 . S
C419 C420 1.384 . S
C419 C421 1.479 . S
C419 H437 0.929 . S
C420 C417 1.424 . S
C420 C419 1.384 . S
C420 H438 0.928 . S
C421 C418 1.260 . S
C421 C419 1.479 . S
C422 C417 1.245 . S
C422 C418 1.477 . S
C422 H439 0.932 . S
C423 U406 2.882 . S
C423 C417 1.428 . S
C423 O426 1.301 . S
C423 O427 1.282 . S
O424 U406 2.441 . S
O424 C410 1.249 . S
O425 U406 2.420 . S
O425 C410 1.202 . S
O426 U406 2.455 . S
O426 C423 1.301 . S
O427 U406 2.449 . S
O427 C423 1.282 . S
H428 C401 0.931 . S
H429 C403 0.929 . S
H430 C404 0.930 . S
H431 C405 0.931 . S
H432 C412 0.932 . S
H433 C413 0.930 . S
H434 C414 0.929 . S
H435 C416 0.930 . S
H436 C418 0.932 . S
H437 C419 0.929 . S
H438 C420 0.928 . S
H439 C422 0.932 . S
C440 C441 1.264 . S
C440 C445 1.479 . S
C440 C450 1.465 . S
C441 C440 1.264 . S
C441 C443 1.339 . S
C441 H468 0.931 . S
C442 C443 1.395 . S
C442 C444 1.320 . S
C443 C441 1.339 . S
C443 C442 1.395 . S
C443 H469 0.929 . S
C444 C442 1.320 . S
C444 C445 1.405 . S
C444 H470 0.930 . S
C445 C440 1.479 . S
C445 C444 1.405 . S
C445 H471 0.931 . S
U446 O447 2.454 . S
U446 O448 2.458 . S
U446 C449 2.984 . S
U446 C450 2.847 . S
U446 C463 2.882 . S
U446 O464 2.441 . S
U446 O465 2.420 . S
U446 O466 2.455 . S
U446 O467 2.449 . S
O447 U446 2.454 . S
O447 C449 1.353 . S
O448 U446 2.458 . S
O448 C449 1.286 . S
C449 U446 2.984 . S
C449 O447 1.353 . S
C449 O448 1.286 . S
C449 C451 1.363 . S
C450 C440 1.465 . S
C450 U446 2.847 . S
C450 O464 1.249 . S
C450 O465 1.202 . S
C451 C449 1.363 . S
C451 C453 1.408 . S
C451 C456 1.342 . S
C452 C453 1.310 . S
C452 C455 1.461 . S
C452 H472 0.932 . S
C453 C451 1.408 . S
C453 C452 1.310 . S
C453 H473 0.930 . S
C454 C455 1.474 . S
C454 C456 1.285 . S
C454 H474 0.929 . S
C455 C452 1.461 . S
C455 C454 1.474 . S
C456 C451 1.342 . S
C456 C454 1.285 . S
C456 H475 0.930 . S
C457 C460 1.424 . S
C457 C462 1.245 . S
C457 C463 1.428 . S
C458 C461 1.260 . S
C458 C462 1.477 . S
C458 H476 0.932 . S
C459 C460 1.384 . S
C459 C461 1.479 . S
C459 H477 0.929 . S
C460 C457 1.424 . S
C460 C459 1.384 . S
C460 H478 0.928 . S
C461 C458 1.260 . S
C461 C459 1.479 . S
C462 C457 1.245 . S
C462 C458 1.477 . S
C462 H479 0.932 . S
C463 U446 2.882 . S
C463 C457 1.428 . S
C463 O466 1.301 . S
C463 O467 1.282 . S
O464 U446 2.441 . S
O464 C450 1.249 . S
O465 U446 2.420 . S
O465 C450 1.202 . S
O466 U446 2.455 . S
O466 C463 1.301 . S
O467 U446 2.449 . S
O467 C463 1.282 . S
H468 C441 0.931 . S
H469 C443 0.929 . S
H470 C444 0.930 . S
H471 C445 0.931 . S
H472 C452 0.932 . S
H473 C453 0.930 . S
H474 C454 0.929 . S
H475 C456 0.930 . S
H476 C458 0.932 . S
H477 C459 0.929 . S
H478 C460 0.928 . S
H479 C462 0.932 . S
C480 C481 1.264 . S
C480 C485 1.479 . S
C480 C490 1.465 . S
C481 C480 1.264 . S
C481 C483 1.339 . S
C481 H508 0.931 . S
C482 C483 1.395 . S
C482 C484 1.320 . S
C483 C481 1.339 . S
C483 C482 1.395 . S
C483 H509 0.929 . S
C484 C482 1.320 . S
C484 C485 1.405 . S
C484 H510 0.930 . S
C485 C480 1.479 . S
C485 C484 1.405 . S
C485 H511 0.931 . S
U486 O487 2.454 . S
U486 O488 2.458 . S
U486 C489 2.984 . S
U486 C490 2.847 . S
U486 C503 2.882 . S
U486 O504 2.441 . S
U486 O505 2.420 . S
U486 O506 2.455 . S
U486 O507 2.449 . S
O487 U486 2.454 . S
O487 C489 1.353 . S
O488 U486 2.458 . S
O488 C489 1.286 . S
C489 U486 2.984 . S
C489 O487 1.353 . S
C489 O488 1.286 . S
C489 C491 1.363 . S
C490 C480 1.465 . S
C490 U486 2.847 . S
C490 O504 1.249 . S
C490 O505 1.202 . S
C491 C489 1.363 . S
C491 C493 1.408 . S
C491 C496 1.342 . S
C492 C493 1.310 . S
C492 C495 1.461 . S
C492 H512 0.932 . S
C493 C491 1.408 . S
C493 C492 1.310 . S
C493 H513 0.930 . S
C494 C495 1.474 . S
C494 C496 1.285 . S
C494 H514 0.929 . S
C495 C492 1.461 . S
C495 C494 1.474 . S
C496 C491 1.342 . S
C496 C494 1.285 . S
C496 H515 0.930 . S
C497 C500 1.424 . S
C497 C502 1.245 . S
C497 C503 1.428 . S
C498 C501 1.260 . S
C498 C502 1.477 . S
C498 H516 0.932 . S
C499 C500 1.384 . S
C499 C501 1.479 . S
C499 H517 0.929 . S
C500 C497 1.424 . S
C500 C499 1.384 . S
C500 H518 0.928 . S
C501 C498 1.260 . S
C501 C499 1.479 . S
C502 C497 1.245 . S
C502 C498 1.477 . S
C502 H519 0.932 . S
C503 U486 2.882 . S
C503 C497 1.428 . S
C503 O506 1.301 . S
C503 O507 1.282 . S
O504 U486 2.441 . S
O504 C490 1.249 . S
O505 U486 2.420 . S
O505 C490 1.202 . S
O506 U486 2.455 . S
O506 C503 1.301 . S
O507 U486 2.449 . S
O507 C503 1.282 . S
H508 C481 0.931 . S
H509 C483 0.929 . S
H510 C484 0.930 . S
H511 C485 0.931 . S
H512 C492 0.932 . S
H513 C493 0.930 . S
H514 C494 0.929 . S
H515 C496 0.930 . S
H516 C498 0.932 . S
H517 C499 0.929 . S
H518 C500 0.928 . S
H519 C502 0.932 . S
C520 C521 1.264 . S
C520 C525 1.479 . S
C520 C530 1.465 . S
C521 C520 1.264 . S
C521 C523 1.339 . S
C521 H548 0.931 . S
C522 C523 1.395 . S
C522 C524 1.320 . S
C523 C521 1.339 . S
C523 C522 1.395 . S
C523 H549 0.929 . S
C524 C522 1.320 . S
C524 C525 1.405 . S
C524 H550 0.930 . S
C525 C520 1.479 . S
C525 C524 1.405 . S
C525 H551 0.931 . S
U526 O527 2.454 . S
U526 O528 2.458 . S
U526 C529 2.984 . S
U526 C530 2.847 . S
U526 C543 2.882 . S
U526 O544 2.441 . S
U526 O545 2.420 . S
U526 O546 2.455 . S
U526 O547 2.449 . S
O527 U526 2.454 . S
O527 C529 1.353 . S
O528 U526 2.458 . S
O528 C529 1.286 . S
C529 U526 2.984 . S
C529 O527 1.353 . S
C529 O528 1.286 . S
C529 C531 1.363 . S
C530 C520 1.465 . S
C530 U526 2.847 . S
C530 O544 1.249 . S
C530 O545 1.202 . S
C531 C529 1.363 . S
C531 C533 1.408 . S
C531 C536 1.342 . S
C532 C533 1.310 . S
C532 C535 1.461 . S
C532 H552 0.932 . S
C533 C531 1.408 . S
C533 C532 1.310 . S
C533 H553 0.930 . S
C534 C535 1.474 . S
C534 C536 1.285 . S
C534 H554 0.929 . S
C535 C532 1.461 . S
C535 C534 1.474 . S
C536 C531 1.342 . S
C536 C534 1.285 . S
C536 H555 0.930 . S
C537 C540 1.424 . S
C537 C542 1.245 . S
C537 C543 1.428 . S
C538 C541 1.260 . S
C538 C542 1.477 . S
C538 H556 0.932 . S
C539 C540 1.384 . S
C539 C541 1.479 . S
C539 H557 0.929 . S
C540 C537 1.424 . S
C540 C539 1.384 . S
C540 H558 0.928 . S
C541 C538 1.260 . S
C541 C539 1.479 . S
C542 C537 1.245 . S
C542 C538 1.477 . S
C542 H559 0.932 . S
C543 U526 2.882 . S
C543 C537 1.428 . S
C543 O546 1.301 . S
C543 O547 1.282 . S
O544 U526 2.441 . S
O544 C530 1.249 . S
O545 U526 2.420 . S
O545 C530 1.202 . S
O546 U526 2.455 . S
O546 C543 1.301 . S
O547 U526 2.449 . S
O547 C543 1.282 . S
H548 C521 0.931 . S
H549 C523 0.929 . S
H550 C524 0.930 . S
H551 C525 0.931 . S
H552 C532 0.932 . S
H553 C533 0.930 . S
H554 C534 0.929 . S
H555 C536 0.930 . S
H556 C538 0.932 . S
H557 C539 0.929 . S
H558 C540 0.928 . S
H559 C542 0.932 . S
C560 C561 1.264 . S
C560 C565 1.479 . S
C560 C570 1.465 . S
C561 C560 1.264 . S
C561 C563 1.339 . S
C561 H588 0.931 . S
C562 C563 1.395 . S
C562 C564 1.320 . S
C563 C561 1.339 . S
C563 C562 1.395 . S
C563 H589 0.929 . S
C564 C562 1.320 . S
C564 C565 1.405 . S
C564 H590 0.930 . S
C565 C560 1.479 . S
C565 C564 1.405 . S
C565 H591 0.931 . S
U566 O567 2.454 . S
U566 O568 2.458 . S
U566 C569 2.984 . S
U566 C570 2.847 . S
U566 C583 2.882 . S
U566 O584 2.441 . S
U566 O585 2.420 . S
U566 O586 2.455 . S
U566 O587 2.449 . S
O567 U566 2.454 . S
O567 C569 1.353 . S
O568 U566 2.458 . S
O568 C569 1.286 . S
C569 U566 2.984 . S
C569 O567 1.353 . S
C569 O568 1.286 . S
C569 C571 1.363 . S
C570 C560 1.465 . S
C570 U566 2.847 . S
C570 O584 1.249 . S
C570 O585 1.202 . S
C571 C569 1.363 . S
C571 C573 1.408 . S
C571 C576 1.342 . S
C572 C573 1.310 . S
C572 C575 1.461 . S
C572 H592 0.932 . S
C573 C571 1.408 . S
C573 C572 1.310 . S
C573 H593 0.930 . S
C574 C575 1.474 . S
C574 C576 1.285 . S
C574 H594 0.929 . S
C575 C572 1.461 . S
C575 C574 1.474 . S
C576 C571 1.342 . S
C576 C574 1.285 . S
C576 H595 0.930 . S
C577 C580 1.424 . S
C577 C582 1.245 . S
C577 C583 1.428 . S
C578 C581 1.260 . S
C578 C582 1.477 . S
C578 H596 0.932 . S
C579 C580 1.384 . S
C579 C581 1.479 . S
C579 H597 0.929 . S
C580 C577 1.424 . S
C580 C579 1.384 . S
C580 H598 0.928 . S
C581 C578 1.260 . S
C581 C579 1.479 . S
C582 C577 1.245 . S
C582 C578 1.477 . S
C582 H599 0.932 . S
C583 U566 2.882 . S
C583 C577 1.428 . S
C583 O586 1.301 . S
C583 O587 1.282 . S
O584 U566 2.441 . S
O584 C570 1.249 . S
O585 U566 2.420 . S
O585 C570 1.202 . S
O586 U566 2.455 . S
O586 C583 1.301 . S
O587 U566 2.449 . S
O587 C583 1.282 . S
H588 C561 0.931 . S
H589 C563 0.929 . S
H590 C564 0.930 . S
H591 C565 0.931 . S
H592 C572 0.932 . S
H593 C573 0.930 . S
H594 C574 0.929 . S
H595 C576 0.930 . S
H596 C578 0.932 . S
H597 C579 0.929 . S
H598 C580 0.928 . S
H599 C582 0.932 . S
C600 C601 1.264 . S
C600 C605 1.479 . S
C600 C610 1.465 . S
C601 C600 1.264 . S
C601 C603 1.339 . S
C601 H628 0.931 . S
C602 C603 1.395 . S
C602 C604 1.320 . S
C603 C601 1.339 . S
C603 C602 1.395 . S
C603 H629 0.929 . S
C604 C602 1.320 . S
C604 C605 1.405 . S
C604 H630 0.930 . S
C605 C600 1.479 . S
C605 C604 1.405 . S
C605 H631 0.931 . S
U606 O607 2.454 . S
U606 O608 2.458 . S
U606 C609 2.984 . S
U606 C610 2.847 . S
U606 C623 2.882 . S
U606 O624 2.441 . S
U606 O625 2.420 . S
U606 O626 2.455 . S
U606 O627 2.449 . S
O607 U606 2.454 . S
O607 C609 1.353 . S
O608 U606 2.458 . S
O608 C609 1.286 . S
C609 U606 2.984 . S
C609 O607 1.353 . S
C609 O608 1.286 . S
C609 C611 1.363 . S
C610 C600 1.465 . S
C610 U606 2.847 . S
C610 O624 1.249 . S
C610 O625 1.202 . S
C611 C609 1.363 . S
C611 C613 1.408 . S
C611 C616 1.342 . S
C612 C613 1.310 . S
C612 C615 1.461 . S
C612 H632 0.932 . S
C613 C611 1.408 . S
C613 C612 1.310 . S
C613 H633 0.930 . S
C614 C615 1.474 . S
C614 C616 1.285 . S
C614 H634 0.929 . S
C615 C612 1.461 . S
C615 C614 1.474 . S
C616 C611 1.342 . S
C616 C614 1.285 . S
C616 H635 0.930 . S
C617 C620 1.424 . S
C617 C622 1.245 . S
C617 C623 1.428 . S
C618 C621 1.260 . S
C618 C622 1.477 . S
C618 H636 0.932 . S
C619 C620 1.384 . S
C619 C621 1.479 . S
C619 H637 0.929 . S
C620 C617 1.424 . S
C620 C619 1.384 . S
C620 H638 0.928 . S
C621 C618 1.260 . S
C621 C619 1.479 . S
C622 C617 1.245 . S
C622 C618 1.477 . S
C622 H639 0.932 . S
C623 U606 2.882 . S
C623 C617 1.428 . S
C623 O626 1.301 . S
C623 O627 1.282 . S
O624 U606 2.441 . S
O624 C610 1.249 . S
O625 U606 2.420 . S
O625 C610 1.202 . S
O626 U606 2.455 . S
O626 C623 1.301 . S
O627 U606 2.449 . S
O627 C623 1.282 . S
H628 C601 0.931 . S
H629 C603 0.929 . S
H630 C604 0.930 . S
H631 C605 0.931 . S
H632 C612 0.932 . S
H633 C613 0.930 . S
H634 C614 0.929 . S
H635 C616 0.930 . S
H636 C618 0.932 . S
H637 C619 0.929 . S
H638 C620 0.928 . S
H639 C622 0.932 . S
C640 C641 1.264 . S
C640 C645 1.479 . S
C640 C650 1.465 . S
C641 C640 1.264 . S
C641 C643 1.339 . S
C641 H668 0.931 . S
C642 C643 1.395 . S
C642 C644 1.320 . S
C643 C641 1.339 . S
C643 C642 1.395 . S
C643 H669 0.929 . S
C644 C642 1.320 . S
C644 C645 1.405 . S
C644 H670 0.930 . S
C645 C640 1.479 . S
C645 C644 1.405 . S
C645 H671 0.931 . S
U646 O647 2.454 . S
U646 O648 2.458 . S
U646 C649 2.984 . S
U646 C650 2.847 . S
U646 C663 2.882 . S
U646 O664 2.441 . S
U646 O665 2.420 . S
U646 O666 2.455 . S
U646 O667 2.449 . S
O647 U646 2.454 . S
O647 C649 1.353 . S
O648 U646 2.458 . S
O648 C649 1.286 . S
C649 U646 2.984 . S
C649 O647 1.353 . S
C649 O648 1.286 . S
C649 C651 1.363 . S
C650 C640 1.465 . S
C650 U646 2.847 . S
C650 O664 1.249 . S
C650 O665 1.202 . S
C651 C649 1.363 . S
C651 C653 1.408 . S
C651 C656 1.342 . S
C652 C653 1.310 . S
C652 C655 1.461 . S
C652 H672 0.932 . S
C653 C651 1.408 . S
C653 C652 1.310 . S
C653 H673 0.930 . S
C654 C655 1.474 . S
C654 C656 1.285 . S
C654 H674 0.929 . S
C655 C652 1.461 . S
C655 C654 1.474 . S
C656 C651 1.342 . S
C656 C654 1.285 . S
C656 H675 0.930 . S
C657 C660 1.424 . S
C657 C662 1.245 . S
C657 C663 1.428 . S
C658 C661 1.260 . S
C658 C662 1.477 . S
C658 H676 0.932 . S
C659 C660 1.384 . S
C659 C661 1.479 . S
C659 H677 0.929 . S
C660 C657 1.424 . S
C660 C659 1.384 . S
C660 H678 0.928 . S
C661 C658 1.260 . S
C661 C659 1.479 . S
C662 C657 1.245 . S
C662 C658 1.477 . S
C662 H679 0.932 . S
C663 U646 2.882 . S
C663 C657 1.428 . S
C663 O666 1.301 . S
C663 O667 1.282 . S
O664 U646 2.441 . S
O664 C650 1.249 . S
O665 U646 2.420 . S
O665 C650 1.202 . S
O666 U646 2.455 . S
O666 C663 1.301 . S
O667 U646 2.449 . S
O667 C663 1.282 . S
H668 C641 0.931 . S
H669 C643 0.929 . S
H670 C644 0.930 . S
H671 C645 0.931 . S
H672 C652 0.932 . S
H673 C653 0.930 . S
H674 C654 0.929 . S
H675 C656 0.930 . S
H676 C658 0.932 . S
H677 C659 0.929 . S
H678 C660 0.928 . S
H679 C662 0.932 . S
C680 C681 1.264 . S
C680 C685 1.479 . S
C680 C690 1.465 . S
C681 C680 1.264 . S
C681 C683 1.339 . S
C681 H708 0.931 . S
C682 C683 1.395 . S
C682 C684 1.320 . S
C683 C681 1.339 . S
C683 C682 1.395 . S
C683 H709 0.929 . S
C684 C682 1.320 . S
C684 C685 1.405 . S
C684 H710 0.930 . S
C685 C680 1.479 . S
C685 C684 1.405 . S
C685 H711 0.931 . S
U686 O687 2.454 . S
U686 O688 2.458 . S
U686 C689 2.984 . S
U686 C690 2.847 . S
U686 C703 2.882 . S
U686 O704 2.441 . S
U686 O705 2.420 . S
U686 O706 2.455 . S
U686 O707 2.449 . S
O687 U686 2.454 . S
O687 C689 1.353 . S
O688 U686 2.458 . S
O688 C689 1.286 . S
C689 U686 2.984 . S
C689 O687 1.353 . S
C689 O688 1.286 . S
C689 C691 1.363 . S
C690 C680 1.465 . S
C690 U686 2.847 . S
C690 O704 1.249 . S
C690 O705 1.202 . S
C691 C689 1.363 . S
C691 C693 1.408 . S
C691 C696 1.342 . S
C692 C693 1.310 . S
C692 C695 1.461 . S
C692 H712 0.932 . S
C693 C691 1.408 . S
C693 C692 1.310 . S
C693 H713 0.930 . S
C694 C695 1.474 . S
C694 C696 1.285 . S
C694 H714 0.929 . S
C695 C692 1.461 . S
C695 C694 1.474 . S
C696 C691 1.342 . S
C696 C694 1.285 . S
C696 H715 0.930 . S
C697 C700 1.424 . S
C697 C702 1.245 . S
C697 C703 1.428 . S
C698 C701 1.260 . S
C698 C702 1.477 . S
C698 H716 0.932 . S
C699 C700 1.384 . S
C699 C701 1.479 . S
C699 H717 0.929 . S
C700 C697 1.424 . S
C700 C699 1.384 . S
C700 H718 0.928 . S
C701 C698 1.260 . S
C701 C699 1.479 . S
C702 C697 1.245 . S
C702 C698 1.477 . S
C702 H719 0.932 . S
C703 U686 2.882 . S
C703 C697 1.428 . S
C703 O706 1.301 . S
C703 O707 1.282 . S
O704 U686 2.441 . S
O704 C690 1.249 . S
O705 U686 2.420 . S
O705 C690 1.202 . S
O706 U686 2.455 . S
O706 C703 1.301 . S
O707 U686 2.449 . S
O707 C703 1.282 . S
H708 C681 0.931 . S
H709 C683 0.929 . S
H710 C684 0.930 . S
H711 C685 0.931 . S
H712 C692 0.932 . S
H713 C693 0.930 . S
H714 C694 0.929 . S
H715 C696 0.930 . S
H716 C698 0.932 . S
H717 C699 0.929 . S
H718 C700 0.928 . S
H719 C702 0.932 . S
C720 C721 1.264 . S
C720 C725 1.479 . S
C720 C730 1.465 . S
C721 C720 1.264 . S
C721 C723 1.339 . S
C721 H748 0.931 . S
C722 C723 1.395 . S
C722 C724 1.320 . S
C723 C721 1.339 . S
C723 C722 1.395 . S
C723 H749 0.929 . S
C724 C722 1.320 . S
C724 C725 1.405 . S
C724 H750 0.930 . S
C725 C720 1.479 . S
C725 C724 1.405 . S
C725 H751 0.931 . S
U726 O727 2.454 . S
U726 O728 2.458 . S
U726 C729 2.984 . S
U726 C730 2.847 . S
U726 C743 2.882 . S
U726 O744 2.441 . S
U726 O745 2.420 . S
U726 O746 2.455 . S
U726 O747 2.449 . S
O727 U726 2.454 . S
O727 C729 1.353 . S
O728 U726 2.458 . S
O728 C729 1.286 . S
C729 U726 2.984 . S
C729 O727 1.353 . S
C729 O728 1.286 . S
C729 C731 1.363 . S
C730 C720 1.465 . S
C730 U726 2.847 . S
C730 O744 1.249 . S
C730 O745 1.202 . S
C731 C729 1.363 . S
C731 C733 1.408 . S
C731 C736 1.342 . S
C732 C733 1.310 . S
C732 C735 1.461 . S
C732 H752 0.932 . S
C733 C731 1.408 . S
C733 C732 1.310 . S
C733 H753 0.930 . S
C734 C735 1.474 . S
C734 C736 1.285 . S
C734 H754 0.929 . S
C735 C732 1.461 . S
C735 C734 1.474 . S
C736 C731 1.342 . S
C736 C734 1.285 . S
C736 H755 0.930 . S
C737 C740 1.424 . S
C737 C742 1.245 . S
C737 C743 1.428 . S
C738 C741 1.260 . S
C738 C742 1.477 . S
C738 H756 0.932 . S
C739 C740 1.384 . S
C739 C741 1.479 . S
C739 H757 0.929 . S
C740 C737 1.424 . S
C740 C739 1.384 . S
C740 H758 0.928 . S
C741 C738 1.260 . S
C741 C739 1.479 . S
C742 C737 1.245 . S
C742 C738 1.477 . S
C742 H759 0.932 . S
C743 U726 2.882 . S
C743 C737 1.428 . S
C743 O746 1.301 . S
C743 O747 1.282 . S
O744 U726 2.441 . S
O744 C730 1.249 . S
O745 U726 2.420 . S
O745 C730 1.202 . S
O746 U726 2.455 . S
O746 C743 1.301 . S
O747 U726 2.449 . S
O747 C743 1.282 . S
H748 C721 0.931 . S
H749 C723 0.929 . S
H750 C724 0.930 . S
H751 C725 0.931 . S
H752 C732 0.932 . S
H753 C733 0.930 . S
H754 C734 0.929 . S
H755 C736 0.930 . S
H756 C738 0.932 . S
H757 C739 0.929 . S
H758 C740 0.928 . S
H759 C742 0.932 . S
C760 C761 1.264 . S
C760 C765 1.479 . S
C760 C770 1.465 . S
C761 C760 1.264 . S
C761 C763 1.339 . S
C761 H788 0.931 . S
C762 C763 1.395 . S
C762 C764 1.320 . S
C763 C761 1.339 . S
C763 C762 1.395 . S
C763 H789 0.929 . S
C764 C762 1.320 . S
C764 C765 1.405 . S
C764 H790 0.930 . S
C765 C760 1.479 . S
C765 C764 1.405 . S
C765 H791 0.931 . S
U766 O767 2.454 . S
U766 O768 2.458 . S
U766 C769 2.984 . S
U766 C770 2.847 . S
U766 C783 2.882 . S
U766 O784 2.441 . S
U766 O785 2.420 . S
U766 O786 2.455 . S
U766 O787 2.449 . S
O767 U766 2.454 . S
O767 C769 1.353 . S
O768 U766 2.458 . S
O768 C769 1.286 . S
C769 U766 2.984 . S
C769 O767 1.353 . S
C769 O768 1.286 . S
C769 C771 1.363 . S
C770 C760 1.465 . S
C770 U766 2.847 . S
C770 O784 1.249 . S
C770 O785 1.202 . S
C771 C769 1.363 . S
C771 C773 1.408 . S
C771 C776 1.342 . S
C772 C773 1.310 . S
C772 C775 1.461 . S
C772 H792 0.932 . S
C773 C771 1.408 . S
C773 C772 1.310 . S
C773 H793 0.930 . S
C774 C775 1.474 . S
C774 C776 1.285 . S
C774 H794 0.929 . S
C775 C772 1.461 . S
C775 C774 1.474 . S
C776 C771 1.342 . S
C776 C774 1.285 . S
C776 H795 0.930 . S
C777 C780 1.424 . S
C777 C782 1.245 . S
C777 C783 1.428 . S
C778 C781 1.260 . S
C778 C782 1.477 . S
C778 H796 0.932 . S
C779 C780 1.384 . S
C779 C781 1.479 . S
C779 H797 0.929 . S
C780 C777 1.424 . S
C780 C779 1.384 . S
C780 H798 0.928 . S
C781 C778 1.260 . S
C781 C779 1.479 . S
C782 C777 1.245 . S
C782 C778 1.477 . S
C782 H799 0.932 . S
C783 U766 2.882 . S
C783 C777 1.428 . S
C783 O786 1.301 . S
C783 O787 1.282 . S
O784 U766 2.441 . S
O784 C770 1.249 . S
O785 U766 2.420 . S
O785 C770 1.202 . S
O786 U766 2.455 . S
O786 C783 1.301 . S
O787 U766 2.449 . S
O787 C783 1.282 . S
H788 C761 0.931 . S
H789 C763 0.929 . S
H790 C764 0.930 . S
H791 C765 0.931 . S
H792 C772 0.932 . S
H793 C773 0.930 . S
H794 C774 0.929 . S
H795 C776 0.930 . S
H796 C778 0.932 . S
H797 C779 0.929 . S
H798 C780 0.928 . S
H799 C782 0.932 . S
C800 C801 1.264 . S
C800 C805 1.479 . S
C800 C810 1.465 . S
C801 C800 1.264 . S
C801 C803 1.339 . S
C801 H828 0.931 . S
C802 C803 1.395 . S
C802 C804 1.320 . S
C803 C801 1.339 . S
C803 C802 1.395 . S
C803 H829 0.929 . S
C804 C802 1.320 . S
C804 C805 1.405 . S
C804 H830 0.930 . S
C805 C800 1.479 . S
C805 C804 1.405 . S
C805 H831 0.931 . S
U806 O807 2.454 . S
U806 O808 2.458 . S
U806 C809 2.984 . S
U806 C810 2.847 . S
U806 C823 2.882 . S
U806 O824 2.441 . S
U806 O825 2.420 . S
U806 O826 2.455 . S
U806 O827 2.449 . S
O807 U806 2.454 . S
O807 C809 1.353 . S
O808 U806 2.458 . S
O808 C809 1.286 . S
C809 U806 2.984 . S
C809 O807 1.353 . S
C809 O808 1.286 . S
C809 C811 1.363 . S
C810 C800 1.465 . S
C810 U806 2.847 . S
C810 O824 1.249 . S
C810 O825 1.202 . S
C811 C809 1.363 . S
C811 C813 1.408 . S
C811 C816 1.342 . S
C812 C813 1.310 . S
C812 C815 1.461 . S
C812 H832 0.932 . S
C813 C811 1.408 . S
C813 C812 1.310 . S
C813 H833 0.930 . S
C814 C815 1.474 . S
C814 C816 1.285 . S
C814 H834 0.929 . S
C815 C812 1.461 . S
C815 C814 1.474 . S
C816 C811 1.342 . S
C816 C814 1.285 . S
C816 H835 0.930 . S
C817 C820 1.424 . S
C817 C822 1.245 . S
C817 C823 1.428 . S
C818 C821 1.260 . S
C818 C822 1.477 . S
C818 H836 0.932 . S
C819 C820 1.384 . S
C819 C821 1.479 . S
C819 H837 0.929 . S
C820 C817 1.424 . S
C820 C819 1.384 . S
C820 H838 0.928 . S
C821 C818 1.260 . S
C821 C819 1.479 . S
C822 C817 1.245 . S
C822 C818 1.477 . S
C822 H839 0.932 . S
C823 U806 2.882 . S
C823 C817 1.428 . S
C823 O826 1.301 . S
C823 O827 1.282 . S
O824 U806 2.441 . S
O824 C810 1.249 . S
O825 U806 2.420 . S
O825 C810 1.202 . S
O826 U806 2.455 . S
O826 C823 1.301 . S
O827 U806 2.449 . S
O827 C823 1.282 . S
H828 C801 0.931 . S
H829 C803 0.929 . S
H830 C804 0.930 . S
H831 C805 0.931 . S
H832 C812 0.932 . S
H833 C813 0.930 . S
H834 C814 0.929 . S
H835 C816 0.930 . S
H836 C818 0.932 . S
H837 C819 0.929 . S
H838 C820 0.928 . S
H839 C822 0.932 . S
C840 C841 1.264 . S
C840 C845 1.479 . S
C840 C850 1.465 . S
C841 C840 1.264 . S
C841 C843 1.339 . S
C841 H868 0.931 . S
C842 C843 1.395 . S
C842 C844 1.320 . S
C843 C841 1.339 . S
C843 C842 1.395 . S
C843 H869 0.929 . S
C844 C842 1.320 . S
C844 C845 1.405 . S
C844 H870 0.930 . S
C845 C840 1.479 . S
C845 C844 1.405 . S
C845 H871 0.931 . S
U846 O847 2.454 . S
U846 O848 2.458 . S
U846 C849 2.984 . S
U846 C850 2.847 . S
U846 C863 2.882 . S
U846 O864 2.441 . S
U846 O865 2.420 . S
U846 O866 2.455 . S
U846 O867 2.449 . S
O847 U846 2.454 . S
O847 C849 1.353 . S
O848 U846 2.458 . S
O848 C849 1.286 . S
C849 U846 2.984 . S
C849 O847 1.353 . S
C849 O848 1.286 . S
C849 C851 1.363 . S
C850 C840 1.465 . S
C850 U846 2.847 . S
C850 O864 1.249 . S
C850 O865 1.202 . S
C851 C849 1.363 . S
C851 C853 1.408 . S
C851 C856 1.342 . S
C852 C853 1.310 . S
C852 C855 1.461 . S
C852 H872 0.932 . S
C853 C851 1.408 . S
C853 C852 1.310 . S
C853 H873 0.930 . S
C854 C855 1.474 . S
C854 C856 1.285 . S
C854 H874 0.929 . S
C855 C852 1.461 . S
C855 C854 1.474 . S
C856 C851 1.342 . S
C856 C854 1.285 . S
C856 H875 0.930 . S
C857 C860 1.424 . S
C857 C862 1.245 . S
C857 C863 1.428 . S
C858 C861 1.260 . S
C858 C862 1.477 . S
C858 H876 0.932 . S
C859 C860 1.384 . S
C859 C861 1.479 . S
C859 H877 0.929 . S
C860 C857 1.424 . S
C860 C859 1.384 . S
C860 H878 0.928 . S
C861 C858 1.260 . S
C861 C859 1.479 . S
C862 C857 1.245 . S
C862 C858 1.477 . S
C862 H879 0.932 . S
C863 U846 2.882 . S
C863 C857 1.428 . S
C863 O866 1.301 . S
C863 O867 1.282 . S
O864 U846 2.441 . S
O864 C850 1.249 . S
O865 U846 2.420 . S
O865 C850 1.202 . S
O866 U846 2.455 . S
O866 C863 1.301 . S
O867 U846 2.449 . S
O867 C863 1.282 . S
H868 C841 0.931 . S
H869 C843 0.929 . S
H870 C844 0.930 . S
H871 C845 0.931 . S
H872 C852 0.932 . S
H873 C853 0.930 . S
H874 C854 0.929 . S
H875 C856 0.930 . S
H876 C858 0.932 . S
H877 C859 0.929 . S
H878 C860 0.928 . S
H879 C862 0.932 . S
C880 C881 1.264 . S
C880 C885 1.479 . S
C880 C890 1.465 . S
C881 C880 1.264 . S
C881 C883 1.339 . S
C881 H908 0.931 . S
C882 C883 1.395 . S
C882 C884 1.320 . S
C883 C881 1.339 . S
C883 C882 1.395 . S
C883 H909 0.929 . S
C884 C882 1.320 . S
C884 C885 1.405 . S
C884 H910 0.930 . S
C885 C880 1.479 . S
C885 C884 1.405 . S
C885 H911 0.931 . S
U886 O887 2.454 . S
U886 O888 2.458 . S
U886 C889 2.984 . S
U886 C890 2.847 . S
U886 C903 2.882 . S
U886 O904 2.441 . S
U886 O905 2.420 . S
U886 O906 2.455 . S
U886 O907 2.449 . S
O887 U886 2.454 . S
O887 C889 1.353 . S
O888 U886 2.458 . S
O888 C889 1.286 . S
C889 U886 2.984 . S
C889 O887 1.353 . S
C889 O888 1.286 . S
C889 C891 1.363 . S
C890 C880 1.465 . S
C890 U886 2.847 . S
C890 O904 1.249 . S
C890 O905 1.202 . S
C891 C889 1.363 . S
C891 C893 1.408 . S
C891 C896 1.342 . S
C892 C893 1.310 . S
C892 C895 1.461 . S
C892 H912 0.932 . S
C893 C891 1.408 . S
C893 C892 1.310 . S
C893 H913 0.930 . S
C894 C895 1.474 . S
C894 C896 1.285 . S
C894 H914 0.929 . S
C895 C892 1.461 . S
C895 C894 1.474 . S
C896 C891 1.342 . S
C896 C894 1.285 . S
C896 H915 0.930 . S
C897 C900 1.424 . S
C897 C902 1.245 . S
C897 C903 1.428 . S
C898 C901 1.260 . S
C898 C902 1.477 . S
C898 H916 0.932 . S
C899 C900 1.384 . S
C899 C901 1.479 . S
C899 H917 0.929 . S
C900 C897 1.424 . S
C900 C899 1.384 . S
C900 H918 0.928 . S
C901 C898 1.260 . S
C901 C899 1.479 . S
C902 C897 1.245 . S
C902 C898 1.477 . S
C902 H919 0.932 . S
C903 U886 2.882 . S
C903 C897 1.428 . S
C903 O906 1.301 . S
C903 O907 1.282 . S
O904 U886 2.441 . S
O904 C890 1.249 . S
O905 U886 2.420 . S
O905 C890 1.202 . S
O906 U886 2.455 . S
O906 C903 1.301 . S
O907 U886 2.449 . S
O907 C903 1.282 . S
H908 C881 0.931 . S
H909 C883 0.929 . S
H910 C884 0.930 . S
H911 C885 0.931 . S
H912 C892 0.932 . S
H913 C893 0.930 . S
H914 C894 0.929 . S
H915 C896 0.930 . S
H916 C898 0.932 . S
H917 C899 0.929 . S
H918 C900 0.928 . S
H919 C902 0.932 . S
C920 C921 1.264 . S
C920 C925 1.479 . S
C920 C930 1.465 . S
C921 C920 1.264 . S
C921 C923 1.339 . S
C921 H948 0.931 . S
C922 C923 1.395 . S
C922 C924 1.320 . S
C923 C921 1.339 . S
C923 C922 1.395 . S
C923 H949 0.929 . S
C924 C922 1.320 . S
C924 C925 1.405 . S
C924 H950 0.930 . S
C925 C920 1.479 . S
C925 C924 1.405 . S
C925 H951 0.931 . S
U926 O927 2.454 . S
U926 O928 2.458 . S
U926 C929 2.984 . S
U926 C930 2.847 . S
U926 C943 2.882 . S
U926 O944 2.441 . S
U926 O945 2.420 . S
U926 O946 2.455 . S
U926 O947 2.449 . S
O927 U926 2.454 . S
O927 C929 1.353 . S
O928 U926 2.458 . S
O928 C929 1.286 . S
C929 U926 2.984 . S
C929 O927 1.353 . S
C929 O928 1.286 . S
C929 C931 1.363 . S
C930 C920 1.465 . S
C930 U926 2.847 . S
C930 O944 1.249 . S
C930 O945 1.202 . S
C931 C929 1.363 . S
C931 C933 1.408 . S
C931 C936 1.342 . S
C932 C933 1.310 . S
C932 C935 1.461 . S
C932 H952 0.932 . S
C933 C931 1.408 . S
C933 C932 1.310 . S
C933 H953 0.930 . S
C934 C935 1.474 . S
C934 C936 1.285 . S
C934 H954 0.929 . S
C935 C932 1.461 . S
C935 C934 1.474 . S
C936 C931 1.342 . S
C936 C934 1.285 . S
C936 H955 0.930 . S
C937 C940 1.424 . S
C937 C942 1.245 . S
C937 C943 1.428 . S
C938 C941 1.260 . S
C938 C942 1.477 . S
C938 H956 0.932 . S
C939 C940 1.384 . S
C939 C941 1.479 . S
C939 H957 0.929 . S
C940 C937 1.424 . S
C940 C939 1.384 . S
C940 H958 0.928 . S
C941 C938 1.260 . S
C941 C939 1.479 . S
C942 C937 1.245 . S
C942 C938 1.477 . S
C942 H959 0.932 . S
C943 U926 2.882 . S
C943 C937 1.428 . S
C943 O946 1.301 . S
C943 O947 1.282 . S
O944 U926 2.441 . S
O944 C930 1.249 . S
O945 U926 2.420 . S
O945 C930 1.202 . S
O946 U926 2.455 . S
O946 C943 1.301 . S
O947 U926 2.449 . S
O947 C943 1.282 . S
H948 C921 0.931 . S
H949 C923 0.929 . S
H950 C924 0.930 . S
H951 C925 0.931 . S
H952 C932 0.932 . S
H953 C933 0.930 . S
H954 C934 0.929 . S
H955 C936 0.930 . S
H956 C938 0.932 . S
H957 C939 0.929 . S
H958 C940 0.928 . S
H959 C942 0.932 . S
C960 C961 1.264 . S
C960 C965 1.479 . S
C960 C970 1.465 . S
C961 C960 1.264 . S
C961 C963 1.339 . S
C961 H988 0.931 . S
C962 C963 1.395 . S
C962 C964 1.320 . S
C963 C961 1.339 . S
C963 C962 1.395 . S
C963 H989 0.929 . S
C964 C962 1.320 . S
C964 C965 1.405 . S
C964 H990 0.930 . S
C965 C960 1.479 . S
C965 C964 1.405 . S
C965 H991 0.931 . S
U966 O967 2.454 . S
U966 O968 2.458 . S
U966 C969 2.984 . S
U966 C970 2.847 . S
U966 C983 2.882 . S
U966 O984 2.441 . S
U966 O985 2.420 . S
U966 O986 2.455 . S
U966 O987 2.449 . S
O967 U966 2.454 . S
O967 C969 1.353 . S
O968 U966 2.458 . S
O968 C969 1.286 . S
C969 U966 2.984 . S
C969 O967 1.353 . S
C969 O968 1.286 . S
C969 C971 1.363 . S
C970 C960 1.465 . S
C970 U966 2.847 . S
C970 O984 1.249 . S
C970 O985 1.202 . S
C971 C969 1.363 . S
C971 C973 1.408 . S
C971 C976 1.342 . S
C972 C973 1.310 . S
C972 C975 1.461 . S
C972 H992 0.932 . S
C973 C971 1.408 . S
C973 C972 1.310 . S
C973 H993 0.930 . S
C974 C975 1.474 . S
C974 C976 1.285 . S
C974 H994 0.929 . S
C975 C972 1.461 . S
C975 C974 1.474 . S
C976 C971 1.342 . S
C976 C974 1.285 . S
C976 H995 0.930 . S
C977 C980 1.424 . S
C977 C982 1.245 . S
C977 C983 1.428 . S
C978 C981 1.260 . S
C978 C982 1.477 . S
C978 H996 0.932 . S
C979 C980 1.384 . S
C979 C981 1.479 . S
C979 H997 0.929 . S
C980 C977 1.424 . S
C980 C979 1.384 . S
C980 H998 0.928 . S
C981 C978 1.260 . S
C981 C979 1.479 . S
C982 C977 1.245 . S
C982 C978 1.477 . S
C982 H999 0.932 . S
C983 U966 2.882 . S
C983 C977 1.428 . S
C983 O986 1.301 . S
C983 O987 1.282 . S
O984 U966 2.441 . S
O984 C970 1.249 . S
O985 U966 2.420 . S
O985 C970 1.202 . S
O986 U966 2.455 . S
O986 C983 1.301 . S
O987 U966 2.449 . S
O987 C983 1.282 . S
H988 C961 0.931 . S
H989 C963 0.929 . S
H990 C964 0.930 . S
H991 C965 0.931 . S
H992 C972 0.932 . S
H993 C973 0.930 . S
H994 C974 0.929 . S
H995 C976 0.930 . S
H996 C978 0.932 . S
H997 C979 0.929 . S
H998 C980 0.928 . S
H999 C982 0.932 . S
C1000 C1001 1.264 . S
C1000 C1005 1.479 . S
C1000 C1010 1.465 . S
C1001 C1000 1.264 . S
C1001 C1003 1.339 . S
C1001 H1028 0.931 . S
C1002 C1003 1.395 . S
C1002 C1004 1.320 . S
C1003 C1001 1.339 . S
C1003 C1002 1.395 . S
C1003 H1029 0.929 . S
C1004 C1002 1.320 . S
C1004 C1005 1.405 . S
C1004 H1030 0.930 . S
C1005 C1000 1.479 . S
C1005 C1004 1.405 . S
C1005 H1031 0.931 . S
U1006 O1007 2.454 . S
U1006 O1008 2.458 . S
U1006 C1009 2.984 . S
U1006 C1010 2.847 . S
U1006 C1023 2.882 . S
U1006 O1024 2.441 . S
U1006 O1025 2.420 . S
U1006 O1026 2.455 . S
U1006 O1027 2.449 . S
O1007 U1006 2.454 . S
O1007 C1009 1.353 . S
O1008 U1006 2.458 . S
O1008 C1009 1.286 . S
C1009 U1006 2.984 . S
C1009 O1007 1.353 . S
C1009 O1008 1.286 . S
C1009 C1011 1.363 . S
C1010 C1000 1.465 . S
C1010 U1006 2.847 . S
C1010 O1024 1.249 . S
C1010 O1025 1.202 . S
C1011 C1009 1.363 . S
C1011 C1013 1.408 . S
C1011 C1016 1.342 . S
C1012 C1013 1.310 . S
C1012 C1015 1.461 . S
C1012 H1032 0.932 . S
C1013 C1011 1.408 . S
C1013 C1012 1.310 . S
C1013 H1033 0.930 . S
C1014 C1015 1.474 . S
C1014 C1016 1.285 . S
C1014 H1034 0.929 . S
C1015 C1012 1.461 . S
C1015 C1014 1.474 . S
C1016 C1011 1.342 . S
C1016 C1014 1.285 . S
C1016 H1035 0.930 . S
C1017 C1020 1.424 . S
C1017 C1022 1.245 . S
C1017 C1023 1.428 . S
C1018 C1021 1.260 . S
C1018 C1022 1.477 . S
C1018 H1036 0.932 . S
C1019 C1020 1.384 . S
C1019 C1021 1.479 . S
C1019 H1037 0.929 . S
C1020 C1017 1.424 . S
C1020 C1019 1.384 . S
C1020 H1038 0.928 . S
C1021 C1018 1.260 . S
C1021 C1019 1.479 . S
C1022 C1017 1.245 . S
C1022 C1018 1.477 . S
C1022 H1039 0.932 . S
C1023 U1006 2.882 . S
C1023 C1017 1.428 . S
C1023 O1026 1.301 . S
C1023 O1027 1.282 . S
O1024 U1006 2.441 . S
O1024 C1010 1.249 . S
O1025 U1006 2.420 . S
O1025 C1010 1.202 . S
O1026 U1006 2.455 . S
O1026 C1023 1.301 . S
O1027 U1006 2.449 . S
O1027 C1023 1.282 . S
H1028 C1001 0.931 . S
H1029 C1003 0.929 . S
H1030 C1004 0.930 . S
H1031 C1005 0.931 . S
H1032 C1012 0.932 . S
H1033 C1013 0.930 . S
H1034 C1014 0.929 . S
H1035 C1016 0.930 . S
H1036 C1018 0.932 . S
H1037 C1019 0.929 . S
H1038 C1020 0.928 . S
H1039 C1022 0.932 . S
C1040 C1041 1.264 . S
C1040 C1045 1.479 . S
C1040 C1050 1.465 . S
C1041 C1040 1.264 . S
C1041 C1043 1.339 . S
C1041 H1068 0.931 . S
C1042 C1043 1.395 . S
C1042 C1044 1.320 . S
C1043 C1041 1.339 . S
C1043 C1042 1.395 . S
C1043 H1069 0.929 . S
C1044 C1042 1.320 . S
C1044 C1045 1.405 . S
C1044 H1070 0.930 . S
C1045 C1040 1.479 . S
C1045 C1044 1.405 . S
C1045 H1071 0.931 . S
U1046 O1047 2.454 . S
U1046 O1048 2.458 . S
U1046 C1049 2.984 . S
U1046 C1050 2.847 . S
U1046 C1063 2.882 . S
U1046 O1064 2.441 . S
U1046 O1065 2.420 . S
U1046 O1066 2.455 . S
U1046 O1067 2.449 . S
O1047 U1046 2.454 . S
O1047 C1049 1.353 . S
O1048 U1046 2.458 . S
O1048 C1049 1.286 . S
C1049 U1046 2.984 . S
C1049 O1047 1.353 . S
C1049 O1048 1.286 . S
C1049 C1051 1.363 . S
C1050 C1040 1.465 . S
C1050 U1046 2.847 . S
C1050 O1064 1.249 . S
C1050 O1065 1.202 . S
C1051 C1049 1.363 . S
C1051 C1053 1.408 . S
C1051 C1056 1.342 . S
C1052 C1053 1.310 . S
C1052 C1055 1.461 . S
C1052 H1072 0.932 . S
C1053 C1051 1.408 . S
C1053 C1052 1.310 . S
C1053 H1073 0.930 . S
C1054 C1055 1.474 . S
C1054 C1056 1.285 . S
C1054 H1074 0.929 . S
C1055 C1052 1.461 . S
C1055 C1054 1.474 . S
C1056 C1051 1.342 . S
C1056 C1054 1.285 . S
C1056 H1075 0.930 . S
C1057 C1060 1.424 . S
C1057 C1062 1.245 . S
C1057 C1063 1.428 . S
C1058 C1061 1.260 . S
C1058 C1062 1.477 . S
C1058 H1076 0.932 . S
C1059 C1060 1.384 . S
C1059 C1061 1.479 . S
C1059 H1077 0.929 . S
C1060 C1057 1.424 . S
C1060 C1059 1.384 . S
C1060 H1078 0.928 . S
C1061 C1058 1.260 . S
C1061 C1059 1.479 . S
C1062 C1057 1.245 . S
C1062 C1058 1.477 . S
C1062 H1079 0.932 . S
C1063 U1046 2.882 . S
C1063 C1057 1.428 . S
C1063 O1066 1.301 . S
C1063 O1067 1.282 . S
O1064 U1046 2.441 . S
O1064 C1050 1.249 . S
O1065 U1046 2.420 . S
O1065 C1050 1.202 . S
O1066 U1046 2.455 . S
O1066 C1063 1.301 . S
O1067 U1046 2.449 . S
O1067 C1063 1.282 . S
H1068 C1041 0.931 . S
H1069 C1043 0.929 . S
H1070 C1044 0.930 . S
H1071 C1045 0.931 . S
H1072 C1052 0.932 . S
H1073 C1053 0.930 . S
H1074 C1054 0.929 . S
H1075 C1056 0.930 . S
H1076 C1058 0.932 . S
H1077 C1059 0.929 . S
H1078 C1060 0.928 . S
H1079 C1062 0.932 . S
C1080 C1081 1.264 . S
C1080 C1085 1.479 . S
C1080 C1090 1.465 . S
C1081 C1080 1.264 . S
C1081 C1083 1.339 . S
C1081 H1108 0.931 . S
C1082 C1083 1.395 . S
C1082 C1084 1.320 . S
C1083 C1081 1.339 . S
C1083 C1082 1.395 . S
C1083 H1109 0.929 . S
C1084 C1082 1.320 . S
C1084 C1085 1.405 . S
C1084 H1110 0.930 . S
C1085 C1080 1.479 . S
C1085 C1084 1.405 . S
C1085 H1111 0.931 . S
U1086 O1087 2.454 . S
U1086 O1088 2.458 . S
U1086 C1089 2.984 . S
U1086 C1090 2.847 . S
U1086 C1103 2.882 . S
U1086 O1104 2.441 . S
U1086 O1105 2.420 . S
U1086 O1106 2.455 . S
U1086 O1107 2.449 . S
O1087 U1086 2.454 . S
O1087 C1089 1.353 . S
O1088 U1086 2.458 . S
O1088 C1089 1.286 . S
C1089 U1086 2.984 . S
C1089 O1087 1.353 . S
C1089 O1088 1.286 . S
C1089 C1091 1.363 . S
C1090 C1080 1.465 . S
C1090 U1086 2.847 . S
C1090 O1104 1.249 . S
C1090 O1105 1.202 . S
C1091 C1089 1.363 . S
C1091 C1093 1.408 . S
C1091 C1096 1.342 . S
C1092 C1093 1.310 . S
C1092 C1095 1.461 . S
C1092 H1112 0.932 . S
C1093 C1091 1.408 . S
C1093 C1092 1.310 . S
C1093 H1113 0.930 . S
C1094 C1095 1.474 . S
C1094 C1096 1.285 . S
C1094 H1114 0.929 . S
C1095 C1092 1.461 . S
C1095 C1094 1.474 . S
C1096 C1091 1.342 . S
C1096 C1094 1.285 . S
C1096 H1115 0.930 . S
C1097 C1100 1.424 . S
C1097 C1102 1.245 . S
C1097 C1103 1.428 . S
C1098 C1101 1.260 . S
C1098 C1102 1.477 . S
C1098 H1116 0.932 . S
C1099 C1100 1.384 . S
C1099 C1101 1.479 . S
C1099 H1117 0.929 . S
C1100 C1097 1.424 . S
C1100 C1099 1.384 . S
C1100 H1118 0.928 . S
C1101 C1098 1.260 . S
C1101 C1099 1.479 . S
C1102 C1097 1.245 . S
C1102 C1098 1.477 . S
C1102 H1119 0.932 . S
C1103 U1086 2.882 . S
C1103 C1097 1.428 . S
C1103 O1106 1.301 . S
C1103 O1107 1.282 . S
O1104 U1086 2.441 . S
O1104 C1090 1.249 . S
O1105 U1086 2.420 . S
O1105 C1090 1.202 . S
O1106 U1086 2.455 . S
O1106 C1103 1.301 . S
O1107 U1086 2.449 . S
O1107 C1103 1.282 . S
H1108 C1081 0.931 . S
H1109 C1083 0.929 . S
H1110 C1084 0.930 . S
H1111 C1085 0.931 . S
H1112 C1092 0.932 . S
H1113 C1093 0.930 . S
H1114 C1094 0.929 . S
H1115 C1096 0.930 . S
H1116 C1098 0.932 . S
H1117 C1099 0.929 . S
H1118 C1100 0.928 . S
H1119 C1102 0.932 . S
C1120 C1121 1.264 . S
C1120 C1125 1.479 . S
C1120 C1130 1.465 . S
C1121 C1120 1.264 . S
C1121 C1123 1.339 . S
C1121 H1148 0.931 . S
C1122 C1123 1.395 . S
C1122 C1124 1.320 . S
C1123 C1121 1.339 . S
C1123 C1122 1.395 . S
C1123 H1149 0.929 . S
C1124 C1122 1.320 . S
C1124 C1125 1.405 . S
C1124 H1150 0.930 . S
C1125 C1120 1.479 . S
C1125 C1124 1.405 . S
C1125 H1151 0.931 . S
U1126 O1127 2.454 . S
U1126 O1128 2.458 . S
U1126 C1129 2.984 . S
U1126 C1130 2.847 . S
U1126 C1143 2.882 . S
U1126 O1144 2.441 . S
U1126 O1145 2.420 . S
U1126 O1146 2.455 . S
U1126 O1147 2.449 . S
O1127 U1126 2.454 . S
O1127 C1129 1.353 . S
O1128 U1126 2.458 . S
O1128 C1129 1.286 . S
C1129 U1126 2.984 . S
C1129 O1127 1.353 . S
C1129 O1128 1.286 . S
C1129 C1131 1.363 . S
C1130 C1120 1.465 . S
C1130 U1126 2.847 . S
C1130 O1144 1.249 . S
C1130 O1145 1.202 . S
C1131 C1129 1.363 . S
C1131 C1133 1.408 . S
C1131 C1136 1.342 . S
C1132 C1133 1.310 . S
C1132 C1135 1.461 . S
C1132 H1152 0.932 . S
C1133 C1131 1.408 . S
C1133 C1132 1.310 . S
C1133 H1153 0.930 . S
C1134 C1135 1.474 . S
C1134 C1136 1.285 . S
C1134 H1154 0.929 . S
C1135 C1132 1.461 . S
C1135 C1134 1.474 . S
C1136 C1131 1.342 . S
C1136 C1134 1.285 . S
C1136 H1155 0.930 . S
C1137 C1140 1.424 . S
C1137 C1142 1.245 . S
C1137 C1143 1.428 . S
C1138 C1141 1.260 . S
C1138 C1142 1.477 . S
C1138 H1156 0.932 . S
C1139 C1140 1.384 . S
C1139 C1141 1.479 . S
C1139 H1157 0.929 . S
C1140 C1137 1.424 . S
C1140 C1139 1.384 . S
C1140 H1158 0.928 . S
C1141 C1138 1.260 . S
C1141 C1139 1.479 . S
C1142 C1137 1.245 . S
C1142 C1138 1.477 . S
C1142 H1159 0.932 . S
C1143 U1126 2.882 . S
C1143 C1137 1.428 . S
C1143 O1146 1.301 . S
C1143 O1147 1.282 . S
O1144 U1126 2.441 . S
O1144 C1130 1.249 . S
O1145 U1126 2.420 . S
O1145 C1130 1.202 . S
O1146 U1126 2.455 . S
O1146 C1143 1.301 . S
O1147 U1126 2.449 . S
O1147 C1143 1.282 . S
H1148 C1121 0.931 . S
H1149 C1123 0.929 . S
H1150 C1124 0.930 . S
H1151 C1125 0.931 . S
H1152 C1132 0.932 . S
H1153 C1133 0.930 . S
H1154 C1134 0.929 . S
H1155 C1136 0.930 . S
H1156 C1138 0.932 . S
H1157 C1139 0.929 . S
H1158 C1140 0.928 . S
H1159 C1142 0.932 . S
C1160 C1161 1.264 . S
C1160 C1165 1.479 . S
C1160 C1170 1.465 . S
C1161 C1160 1.264 . S
C1161 C1163 1.339 . S
C1161 H1188 0.931 . S
C1162 C1163 1.395 . S
C1162 C1164 1.320 . S
C1163 C1161 1.339 . S
C1163 C1162 1.395 . S
C1163 H1189 0.929 . S
C1164 C1162 1.320 . S
C1164 C1165 1.405 . S
C1164 H1190 0.930 . S
C1165 C1160 1.479 . S
C1165 C1164 1.405 . S
C1165 H1191 0.931 . S
U1166 O1167 2.454 . S
U1166 O1168 2.458 . S
U1166 C1169 2.984 . S
U1166 C1170 2.847 . S
U1166 C1183 2.882 . S
U1166 O1184 2.441 . S
U1166 O1185 2.420 . S
U1166 O1186 2.455 . S
U1166 O1187 2.449 . S
O1167 U1166 2.454 . S
O1167 C1169 1.353 . S
O1168 U1166 2.458 . S
O1168 C1169 1.286 . S
C1169 U1166 2.984 . S
C1169 O1167 1.353 . S
C1169 O1168 1.286 . S
C1169 C1171 1.363 . S
C1170 C1160 1.465 . S
C1170 U1166 2.847 . S
C1170 O1184 1.249 . S
C1170 O1185 1.202 . S
C1171 C1169 1.363 . S
C1171 C1173 1.408 . S
C1171 C1176 1.342 . S
C1172 C1173 1.310 . S
C1172 C1175 1.461 . S
C1172 H1192 0.932 . S
C1173 C1171 1.408 . S
C1173 C1172 1.310 . S
C1173 H1193 0.930 . S
C1174 C1175 1.474 . S
C1174 C1176 1.285 . S
C1174 H1194 0.929 . S
C1175 C1172 1.461 . S
C1175 C1174 1.474 . S
C1176 C1171 1.342 . S
C1176 C1174 1.285 . S
C1176 H1195 0.930 . S
C1177 C1180 1.424 . S
C1177 C1182 1.245 . S
C1177 C1183 1.428 . S
C1178 C1181 1.260 . S
C1178 C1182 1.477 . S
C1178 H1196 0.932 . S
C1179 C1180 1.384 . S
C1179 C1181 1.479 . S
C1179 H1197 0.929 . S
C1180 C1177 1.424 . S
C1180 C1179 1.384 . S
C1180 H1198 0.928 . S
C1181 C1178 1.260 . S
C1181 C1179 1.479 . S
C1182 C1177 1.245 . S
C1182 C1178 1.477 . S
C1182 H1199 0.932 . S
C1183 U1166 2.882 . S
C1183 C1177 1.428 . S
C1183 O1186 1.301 . S
C1183 O1187 1.282 . S
O1184 U1166 2.441 . S
O1184 C1170 1.249 . S
O1185 U1166 2.420 . S
O1185 C1170 1.202 . S
O1186 U1166 2.455 . S
O1186 C1183 1.301 . S
O1187 U1166 2.449 . S
O1187 C1183 1.282 . S
H1188 C1161 0.931 . S
H1189 C1163 0.929 . S
H1190 C1164 0.930 . S
H1191 C1165 0.931 . S
H1192 C1172 0.932 . S
H1193 C1173 0.930 . S
H1194 C1174 0.929 . S
H1195 C1176 0.930 . S
H1196 C1178 0.932 . S
H1197 C1179 0.929 . S
H1198 C1180 0.928 . S
H1199 C1182 0.932 . S
C1200 C1201 1.264 . S
C1200 C1205 1.479 . S
C1200 C1210 1.465 . S
C1201 C1200 1.264 . S
C1201 C1203 1.339 . S
C1201 H1228 0.931 . S
C1202 C1203 1.395 . S
C1202 C1204 1.320 . S
C1203 C1201 1.339 . S
C1203 C1202 1.395 . S
C1203 H1229 0.929 . S
C1204 C1202 1.320 . S
C1204 C1205 1.405 . S
C1204 H1230 0.930 . S
C1205 C1200 1.479 . S
C1205 C1204 1.405 . S
C1205 H1231 0.931 . S
U1206 O1207 2.454 . S
U1206 O1208 2.458 . S
U1206 C1209 2.984 . S
U1206 C1210 2.847 . S
U1206 C1223 2.882 . S
U1206 O1224 2.441 . S
U1206 O1225 2.420 . S
U1206 O1226 2.455 . S
U1206 O1227 2.449 . S
O1207 U1206 2.454 . S
O1207 C1209 1.353 . S
O1208 U1206 2.458 . S
O1208 C1209 1.286 . S
C1209 U1206 2.984 . S
C1209 O1207 1.353 . S
C1209 O1208 1.286 . S
C1209 C1211 1.363 . S
C1210 C1200 1.465 . S
C1210 U1206 2.847 . S
C1210 O1224 1.249 . S
C1210 O1225 1.202 . S
C1211 C1209 1.363 . S
C1211 C1213 1.408 . S
C1211 C1216 1.342 . S
C1212 C1213 1.310 . S
C1212 C1215 1.461 . S
C1212 H1232 0.932 . S
C1213 C1211 1.408 . S
C1213 C1212 1.310 . S
C1213 H1233 0.930 . S
C1214 C1215 1.474 . S
C1214 C1216 1.285 . S
C1214 H1234 0.929 . S
C1215 C1212 1.461 . S
C1215 C1214 1.474 . S
C1216 C1211 1.342 . S
C1216 C1214 1.285 . S
C1216 H1235 0.930 . S
C1217 C1220 1.424 . S
C1217 C1222 1.245 . S
C1217 C1223 1.428 . S
C1218 C1221 1.260 . S
C1218 C1222 1.477 . S
C1218 H1236 0.932 . S
C1219 C1220 1.384 . S
C1219 C1221 1.479 . S
C1219 H1237 0.929 . S
C1220 C1217 1.424 . S
C1220 C1219 1.384 . S
C1220 H1238 0.928 . S
C1221 C1218 1.260 . S
C1221 C1219 1.479 . S
C1222 C1217 1.245 . S
C1222 C1218 1.477 . S
C1222 H1239 0.932 . S
C1223 U1206 2.882 . S
C1223 C1217 1.428 . S
C1223 O1226 1.301 . S
C1223 O1227 1.282 . S
O1224 U1206 2.441 . S
O1224 C1210 1.249 . S
O1225 U1206 2.420 . S
O1225 C1210 1.202 . S
O1226 U1206 2.455 . S
O1226 C1223 1.301 . S
O1227 U1206 2.449 . S
O1227 C1223 1.282 . S
H1228 C1201 0.931 . S
H1229 C1203 0.929 . S
H1230 C1204 0.930 . S
H1231 C1205 0.931 . S
H1232 C1212 0.932 . S
H1233 C1213 0.930 . S
H1234 C1214 0.929 . S
H1235 C1216 0.930 . S
H1236 C1218 0.932 . S
H1237 C1219 0.929 . S
H1238 C1220 0.928 . S
H1239 C1222 0.932 . S
C1240 C1241 1.264 . S
C1240 C1245 1.479 . S
C1240 C1250 1.465 . S
C1241 C1240 1.264 . S
C1241 C1243 1.339 . S
C1241 H1268 0.931 . S
C1242 C1243 1.395 . S
C1242 C1244 1.320 . S
C1243 C1241 1.339 . S
C1243 C1242 1.395 . S
C1243 H1269 0.929 . S
C1244 C1242 1.320 . S
C1244 C1245 1.405 . S
C1244 H1270 0.930 . S
C1245 C1240 1.479 . S
C1245 C1244 1.405 . S
C1245 H1271 0.931 . S
U1246 O1247 2.454 . S
U1246 O1248 2.458 . S
U1246 C1249 2.984 . S
U1246 C1250 2.847 . S
U1246 C1263 2.882 . S
U1246 O1264 2.441 . S
U1246 O1265 2.420 . S
U1246 O1266 2.455 . S
U1246 O1267 2.449 . S
O1247 U1246 2.454 . S
O1247 C1249 1.353 . S
O1248 U1246 2.458 . S
O1248 C1249 1.286 . S
C1249 U1246 2.984 . S
C1249 O1247 1.353 . S
C1249 O1248 1.286 . S
C1249 C1251 1.363 . S
C1250 C1240 1.465 . S
C1250 U1246 2.847 . S
C1250 O1264 1.249 . S
C1250 O1265 1.202 . S
C1251 C1249 1.363 . S
C1251 C1253 1.408 . S
C1251 C1256 1.342 . S
C1252 C1253 1.310 . S
C1252 C1255 1.461 . S
C1252 H1272 0.932 . S
C1253 C1251 1.408 . S
C1253 C1252 1.310 . S
C1253 H1273 0.930 . S
C1254 C1255 1.474 . S
C1254 C1256 1.285 . S
C1254 H1274 0.929 . S
C1255 C1252 1.461 . S
C1255 C1254 1.474 . S
C1256 C1251 1.342 . S
C1256 C1254 1.285 . S
C1256 H1275 0.930 . S
C1257 C1260 1.424 . S
C1257 C1262 1.245 . S
C1257 C1263 1.428 . S
C1258 C1261 1.260 . S
C1258 C1262 1.477 . S
C1258 H1276 0.932 . S
C1259 C1260 1.384 . S
C1259 C1261 1.479 . S
C1259 H1277 0.929 . S
C1260 C1257 1.424 . S
C1260 C1259 1.384 . S
C1260 H1278 0.928 . S
C1261 C1258 1.260 . S
C1261 C1259 1.479 . S
C1262 C1257 1.245 . S
C1262 C1258 1.477 . S
C1262 H1279 0.932 . S
C1263 U1246 2.882 . S
C1263 C1257 1.428 . S
C1263 O1266 1.301 . S
C1263 O1267 1.282 . S
O1264 U1246 2.441 . S
O1264 C1250 1.249 . S
O1265 U1246 2.420 . S
O1265 C1250 1.202 . S
O1266 U1246 2.455 . S
O1266 C1263 1.301 . S
O1267 U1246 2.449 . S
O1267 C1263 1.282 . S
H1268 C1241 0.931 . S
H1269 C1243 0.929 . S
H1270 C1244 0.930 . S
H1271 C1245 0.931 . S
H1272 C1252 0.932 . S
H1273 C1253 0.930 . S
H1274 C1254 0.929 . S
H1275 C1256 0.930 . S
H1276 C1258 0.932 . S
H1277 C1259 0.929 . S
H1278 C1260 0.928 . S
H1279 C1262 0.932 . S
H1280 C1307 0.929 . S
N1281 C1306 1.433 . S
N1281 C1312 1.435 . S
N1281 C1318 1.423 . S
H1282 C1308 0.930 . S
H1283 C1311 0.931 . S
H1284 C1310 0.929 . S
H1285 C1313 0.930 . S
H1286 C1314 0.932 . S
H1287 C1317 0.929 . S
H1288 C1316 0.931 . S
H1289 C1319 0.929 . S
H1290 C1323 0.932 . S
H1291 C1320 0.931 . S
H1292 C1322 0.929 . S
H1293 C1325 0.929 . S
H1294 C1326 0.930 . S
H1295 C1328 0.929 . S
H1296 C1329 0.931 . S
H1297 C1331 0.930 . S
H1298 C1332 0.932 . S
H1299 C1334 0.931 . S
H1300 C1335 0.929 . S
H1301 C1337 0.929 . S
H1302 C1338 0.931 . S
H1303 C1340 0.929 . S
N1304 C1324 1.433 . S
N1304 C1330 1.435 . S
N1304 C1336 1.423 . S
H1305 C1341 0.932 . S
C1306 N1281 1.433 . S
C1306 C1307 1.363 . S
C1306 C1311 1.370 . S
C1307 H1280 0.929 . S
C1307 C1306 1.363 . S
C1307 C1308 1.385 . S
C1308 H1282 0.930 . S
C1308 C1307 1.385 . S
C1308 C1309 1.357 . S
C1309 C1308 1.357 . S
C1309 C1310 1.406 . S
C1310 H1284 0.929 . S
C1310 C1309 1.406 . S
C1310 C1311 1.391 . S
C1311 H1283 0.931 . S
C1311 C1306 1.370 . S
C1311 C1310 1.391 . S
C1312 N1281 1.435 . S
C1312 C1313 1.358 . S
C1312 C1317 1.371 . S
C1313 H1285 0.930 . S
C1313 C1312 1.358 . S
C1313 C1314 1.405 . S
C1314 H1286 0.932 . S
C1314 C1313 1.405 . S
C1314 C1315 1.383 . S
C1315 C1314 1.383 . S
C1315 C1316 1.393 . S
C1316 H1288 0.931 . S
C1316 C1315 1.393 . S
C1316 C1317 1.382 . S
C1317 H1287 0.929 . S
C1317 C1312 1.371 . S
C1317 C1316 1.382 . S
C1318 N1281 1.423 . S
C1318 C1319 1.362 . S
C1318 C1323 1.388 . S
C1319 H1289 0.929 . S
C1319 C1318 1.362 . S
C1319 C1320 1.376 . S
C1320 H1291 0.931 . S
C1320 C1319 1.376 . S
C1320 C1321 1.396 . S
C1321 C1320 1.396 . S
C1321 C1322 1.348 . S
C1321 C1339 1.472 1_556 S
C1322 H1292 0.929 . S
C1322 C1321 1.348 . S
C1322 C1323 1.443 . S
C1323 H1290 0.932 . S
C1323 C1318 1.388 . S
C1323 C1322 1.443 . S
C1324 N1304 1.433 . S
C1324 C1325 1.363 . S
C1324 C1329 1.370 . S
C1325 H1293 0.929 . S
C1325 C1324 1.363 . S
C1325 C1326 1.385 . S
C1326 H1294 0.930 . S
C1326 C1325 1.385 . S
C1326 C1327 1.357 . S
C1327 C1326 1.357 . S
C1327 C1328 1.406 . S
C1328 H1295 0.929 . S
C1328 C1327 1.406 . S
C1328 C1329 1.391 . S
C1329 H1296 0.931 . S
C1329 C1324 1.370 . S
C1329 C1328 1.391 . S
C1330 N1304 1.435 . S
C1330 C1331 1.358 . S
C1330 C1335 1.371 . S
C1331 H1297 0.930 . S
C1331 C1330 1.358 . S
C1331 C1332 1.405 . S
C1332 H1298 0.932 . S
C1332 C1331 1.405 . S
C1332 C1333 1.383 . S
C1333 C1332 1.383 . S
C1333 C1334 1.393 . S
C1334 H1299 0.931 . S
C1334 C1333 1.393 . S
C1334 C1335 1.382 . S
C1335 H1300 0.929 . S
C1335 C1330 1.371 . S
C1335 C1334 1.382 . S
C1336 N1304 1.423 . S
C1336 C1337 1.362 . S
C1336 C1341 1.388 . S
C1337 H1301 0.929 . S
C1337 C1336 1.362 . S
C1337 C1338 1.376 . S
C1338 H1302 0.931 . S
C1338 C1337 1.376 . S
C1338 C1339 1.396 . S
C1339 C1321 1.472 1_554 S
C1339 C1338 1.396 . S
C1339 C1340 1.348 . S
C1340 H1303 0.929 . S
C1340 C1339 1.348 . S
C1340 C1341 1.443 . S
C1341 H1305 0.932 . S
C1341 C1336 1.388 . S
C1341 C1340 1.443 . S
H1342 C1369 0.929 . S
N1343 C1368 1.433 . S
N1343 C1374 1.435 . S
N1343 C1380 1.423 . S
H1344 C1370 0.930 . S
H1345 C1373 0.931 . S
H1346 C1372 0.929 . S
H1347 C1375 0.930 . S
H1348 C1376 0.932 . S
H1349 C1379 0.929 . S
H1350 C1378 0.931 . S
H1351 C1381 0.929 . S
H1352 C1385 0.932 . S
H1353 C1382 0.931 . S
H1354 C1384 0.929 . S
H1355 C1387 0.929 . S
H1356 C1388 0.930 . S
H1357 C1390 0.929 . S
H1358 C1391 0.931 . S
H1359 C1393 0.930 . S
H1360 C1394 0.932 . S
H1361 C1396 0.931 . S
H1362 C1397 0.929 . S
H1363 C1399 0.929 . S
H1364 C1400 0.931 . S
H1365 C1402 0.929 . S
N1366 C1386 1.433 . S
N1366 C1392 1.435 . S
N1366 C1398 1.423 . S
H1367 C1403 0.932 . S
C1368 N1343 1.433 . S
C1368 C1369 1.363 . S
C1368 C1373 1.370 . S
C1369 H1342 0.929 . S
C1369 C1368 1.363 . S
C1369 C1370 1.385 . S
C1370 H1344 0.930 . S
C1370 C1369 1.385 . S
C1370 C1371 1.357 . S
C1371 C1370 1.357 . S
C1371 C1372 1.406 . S
C1372 H1346 0.929 . S
C1372 C1371 1.406 . S
C1372 C1373 1.391 . S
C1373 H1345 0.931 . S
C1373 C1368 1.370 . S
C1373 C1372 1.391 . S
C1374 N1343 1.435 . S
C1374 C1375 1.358 . S
C1374 C1379 1.371 . S
C1375 H1347 0.930 . S
C1375 C1374 1.358 . S
C1375 C1376 1.405 . S
C1376 H1348 0.932 . S
C1376 C1375 1.405 . S
C1376 C1377 1.383 . S
C1377 C1376 1.383 . S
C1377 C1378 1.393 . S
C1378 H1350 0.931 . S
C1378 C1377 1.393 . S
C1378 C1379 1.382 . S
C1379 H1349 0.929 . S
C1379 C1374 1.371 . S
C1379 C1378 1.382 . S
C1380 N1343 1.423 . S
C1380 C1381 1.362 . S
C1380 C1385 1.388 . S
C1381 H1351 0.929 . S
C1381 C1380 1.362 . S
C1381 C1382 1.376 . S
C1382 H1353 0.931 . S
C1382 C1381 1.376 . S
C1382 C1383 1.396 1_556 S
C1383 C1382 1.396 1_554 S
C1383 C1384 1.348 1_554 S
C1383 C1401 1.472 . S
C1384 H1354 0.929 . S
C1384 C1383 1.348 1_556 S
C1384 C1385 1.443 . S
C1385 H1352 0.932 . S
C1385 C1380 1.388 . S
C1385 C1384 1.443 . S
C1386 N1366 1.433 . S
C1386 C1387 1.363 . S
C1386 C1391 1.370 . S
C1387 H1355 0.929 . S
C1387 C1386 1.363 . S
C1387 C1388 1.385 . S
C1388 H1356 0.930 . S
C1388 C1387 1.385 . S
C1388 C1389 1.357 . S
C1389 C1388 1.357 . S
C1389 C1390 1.406 . S
C1390 H1357 0.929 . S
C1390 C1389 1.406 . S
C1390 C1391 1.391 . S
C1391 H1358 0.931 . S
C1391 C1386 1.370 . S
C1391 C1390 1.391 . S
C1392 N1366 1.435 . S
C1392 C1393 1.358 . S
C1392 C1397 1.371 . S
C1393 H1359 0.930 . S
C1393 C1392 1.358 . S
C1393 C1394 1.405 . S
C1394 H1360 0.932 . S
C1394 C1393 1.405 . S
C1394 C1395 1.383 . S
C1395 C1394 1.383 . S
C1395 C1396 1.393 . S
C1396 H1361 0.931 . S
C1396 C1395 1.393 . S
C1396 C1397 1.382 . S
C1397 H1362 0.929 . S
C1397 C1392 1.371 . S
C1397 C1396 1.382 . S
C1398 N1366 1.423 . S
C1398 C1399 1.362 . S
C1398 C1403 1.388 . S
C1399 H1363 0.929 . S
C1399 C1398 1.362 . S
C1399 C1400 1.376 . S
C1400 H1364 0.931 . S
C1400 C1399 1.376 . S
C1400 C1401 1.396 . S
C1401 C1383 1.472 . S
C1401 C1400 1.396 . S
C1401 C1402 1.348 . S
C1402 H1365 0.929 . S
C1402 C1401 1.348 . S
C1402 C1403 1.443 . S
C1403 H1367 0.932 . S
C1403 C1398 1.388 . S
C1403 C1402 1.443 . S
H1404 C1431 0.929 . S
N1405 C1430 1.433 . S
N1405 C1436 1.435 . S
N1405 C1442 1.423 . S
H1406 C1432 0.930 . S
H1407 C1435 0.931 . S
H1408 C1434 0.929 . S
H1409 C1437 0.930 . S
H1410 C1438 0.932 . S
H1411 C1441 0.929 . S
H1412 C1440 0.931 . S
H1413 C1443 0.929 . S
H1414 C1447 0.932 . S
H1415 C1444 0.931 . S
H1416 C1446 0.929 . S
H1417 C1449 0.929 . S
H1418 C1450 0.930 . S
H1419 C1452 0.929 . S
H1420 C1453 0.931 . S
H1421 C1455 0.930 . S
H1422 C1456 0.932 . S
H1423 C1458 0.931 . S
H1424 C1459 0.929 . S
H1425 C1461 0.929 . S
H1426 C1462 0.931 . S
H1427 C1464 0.929 . S
N1428 C1448 1.433 . S
N1428 C1454 1.435 . S
N1428 C1460 1.423 . S
H1429 C1465 0.932 . S
C1430 N1405 1.433 . S
C1430 C1431 1.363 . S
C1430 C1435 1.370 . S
C1431 H1404 0.929 . S
C1431 C1430 1.363 . S
C1431 C1432 1.385 . S
C1432 H1406 0.930 . S
C1432 C1431 1.385 . S
C1432 C1433 1.357 . S
C1433 C1432 1.357 . S
C1433 C1434 1.406 . S
C1434 H1408 0.929 . S
C1434 C1433 1.406 . S
C1434 C1435 1.391 . S
C1435 H1407 0.931 . S
C1435 C1430 1.370 . S
C1435 C1434 1.391 . S
C1436 N1405 1.435 . S
C1436 C1437 1.358 . S
C1436 C1441 1.371 . S
C1437 H1409 0.930 . S
C1437 C1436 1.358 . S
C1437 C1438 1.405 . S
C1438 H1410 0.932 . S
C1438 C1437 1.405 . S
C1438 C1439 1.383 . S
C1439 C1438 1.383 . S
C1439 C1440 1.393 . S
C1440 H1412 0.931 . S
C1440 C1439 1.393 . S
C1440 C1441 1.382 . S
C1441 H1411 0.929 . S
C1441 C1436 1.371 . S
C1441 C1440 1.382 . S
C1442 N1405 1.423 . S
C1442 C1443 1.362 . S
C1442 C1447 1.388 . S
C1443 H1413 0.929 . S
C1443 C1442 1.362 . S
C1443 C1444 1.376 . S
C1444 H1415 0.931 . S
C1444 C1443 1.376 . S
C1444 C1445 1.396 . S
C1445 C1444 1.396 . S
C1445 C1446 1.348 . S
C1445 C1463 1.472 1_556 S
C1446 H1416 0.929 . S
C1446 C1445 1.348 . S
C1446 C1447 1.443 . S
C1447 H1414 0.932 . S
C1447 C1442 1.388 . S
C1447 C1446 1.443 . S
C1448 N1428 1.433 . S
C1448 C1449 1.363 . S
C1448 C1453 1.370 . S
C1449 H1417 0.929 . S
C1449 C1448 1.363 . S
C1449 C1450 1.385 . S
C1450 H1418 0.930 . S
C1450 C1449 1.385 . S
C1450 C1451 1.357 . S
C1451 C1450 1.357 . S
C1451 C1452 1.406 . S
C1452 H1419 0.929 . S
C1452 C1451 1.406 . S
C1452 C1453 1.391 . S
C1453 H1420 0.931 . S
C1453 C1448 1.370 . S
C1453 C1452 1.391 . S
C1454 N1428 1.435 . S
C1454 C1455 1.358 . S
C1454 C1459 1.371 . S
C1455 H1421 0.930 . S
C1455 C1454 1.358 . S
C1455 C1456 1.405 . S
C1456 H1422 0.932 . S
C1456 C1455 1.405 . S
C1456 C1457 1.383 . S
C1457 C1456 1.383 . S
C1457 C1458 1.393 . S
C1458 H1423 0.931 . S
C1458 C1457 1.393 . S
C1458 C1459 1.382 . S
C1459 H1424 0.929 . S
C1459 C1454 1.371 . S
C1459 C1458 1.382 . S
C1460 N1428 1.423 . S
C1460 C1461 1.362 . S
C1460 C1465 1.388 . S
C1461 H1425 0.929 . S
C1461 C1460 1.362 . S
C1461 C1462 1.376 . S
C1462 H1426 0.931 . S
C1462 C1461 1.376 . S
C1462 C1463 1.396 . S
C1463 C1445 1.472 1_554 S
C1463 C1462 1.396 . S
C1463 C1464 1.348 . S
C1464 H1427 0.929 . S
C1464 C1463 1.348 . S
C1464 C1465 1.443 . S
C1465 H1429 0.932 . S
C1465 C1460 1.388 . S
C1465 C1464 1.443 . S
H1466 C1493 0.929 . S
N1467 C1492 1.433 . S
N1467 C1498 1.435 . S
N1467 C1504 1.423 . S
H1468 C1494 0.930 . S
H1469 C1497 0.931 . S
H1470 C1496 0.929 . S
H1471 C1499 0.930 . S
H1472 C1500 0.932 . S
H1473 C1503 0.929 . S
H1474 C1502 0.931 . S
H1475 C1505 0.929 . S
H1476 C1509 0.932 . S
H1477 C1506 0.931 . S
H1478 C1508 0.929 . S
H1479 C1511 0.929 . S
H1480 C1512 0.930 . S
H1481 C1514 0.929 . S
H1482 C1515 0.931 . S
H1483 C1517 0.930 . S
H1484 C1518 0.932 . S
H1485 C1520 0.931 . S
H1486 C1521 0.929 . S
H1487 C1523 0.929 . S
H1488 C1524 0.931 . S
H1489 C1526 0.929 . S
N1490 C1510 1.433 . S
N1490 C1516 1.435 . S
N1490 C1522 1.423 . S
H1491 C1527 0.932 . S
C1492 N1467 1.433 . S
C1492 C1493 1.363 . S
C1492 C1497 1.370 . S
C1493 H1466 0.929 . S
C1493 C1492 1.363 . S
C1493 C1494 1.385 . S
C1494 H1468 0.930 . S
C1494 C1493 1.385 . S
C1494 C1495 1.357 . S
C1495 C1494 1.357 . S
C1495 C1496 1.406 . S
C1496 H1470 0.929 . S
C1496 C1495 1.406 . S
C1496 C1497 1.391 . S
C1497 H1469 0.931 . S
C1497 C1492 1.370 . S
C1497 C1496 1.391 . S
C1498 N1467 1.435 . S
C1498 C1499 1.358 . S
C1498 C1503 1.371 . S
C1499 H1471 0.930 . S
C1499 C1498 1.358 . S
C1499 C1500 1.405 . S
C1500 H1472 0.932 . S
C1500 C1499 1.405 . S
C1500 C1501 1.383 . S
C1501 C1500 1.383 . S
C1501 C1502 1.393 . S
C1502 H1474 0.931 . S
C1502 C1501 1.393 . S
C1502 C1503 1.382 . S
C1503 H1473 0.929 . S
C1503 C1498 1.371 . S
C1503 C1502 1.382 . S
C1504 N1467 1.423 . S
C1504 C1505 1.362 . S
C1504 C1509 1.388 . S
C1505 H1475 0.929 . S
C1505 C1504 1.362 . S
C1505 C1506 1.376 . S
C1506 H1477 0.931 . S
C1506 C1505 1.376 . S
C1506 C1507 1.385 1_556 S
C1507 C1506 1.385 1_554 S
C1507 C1508 1.336 1_554 S
C1507 C1525 1.494 . S
C1508 H1478 0.929 . S
C1508 C1507 1.336 1_556 S
C1508 C1509 1.443 . S
C1509 H1476 0.932 . S
C1509 C1504 1.388 . S
C1509 C1508 1.443 . S
C1510 N1490 1.433 . S
C1510 C1511 1.363 . S
C1510 C1515 1.370 . S
C1511 H1479 0.929 . S
C1511 C1510 1.363 . S
C1511 C1512 1.385 . S
C1512 H1480 0.930 . S
C1512 C1511 1.385 . S
C1512 C1513 1.357 . S
C1513 C1512 1.357 . S
C1513 C1514 1.406 . S
C1514 H1481 0.929 . S
C1514 C1513 1.406 . S
C1514 C1515 1.391 . S
C1515 H1482 0.931 . S
C1515 C1510 1.370 . S
C1515 C1514 1.391 . S
C1516 N1490 1.435 . S
C1516 C1517 1.358 . S
C1516 C1521 1.371 . S
C1517 H1483 0.930 . S
C1517 C1516 1.358 . S
C1517 C1518 1.405 . S
C1518 H1484 0.932 . S
C1518 C1517 1.405 . S
C1518 C1519 1.383 . S
C1519 C1518 1.383 . S
C1519 C1520 1.393 . S
C1520 H1485 0.931 . S
C1520 C1519 1.393 . S
C1520 C1521 1.382 . S
C1521 H1486 0.929 . S
C1521 C1516 1.371 . S
C1521 C1520 1.382 . S
C1522 N1490 1.423 . S
C1522 C1523 1.362 . S
C1522 C1527 1.388 . S
C1523 H1487 0.929 . S
C1523 C1522 1.362 . S
C1523 C1524 1.376 . S
C1524 H1488 0.931 . S
C1524 C1523 1.376 . S
C1524 C1525 1.396 . S
C1525 C1507 1.494 . S
C1525 C1524 1.396 . S
C1525 C1526 1.348 . S
C1526 H1489 0.929 . S
C1526 C1525 1.348 . S
C1526 C1527 1.443 . S
C1527 H1491 0.932 . S
C1527 C1522 1.388 . S
C1527 C1526 1.443 . S
H1528 C1555 0.929 . S
N1529 C1554 1.433 . S
N1529 C1560 1.435 . S
N1529 C1566 1.423 . S
H1530 C1556 0.930 . S
H1531 C1559 0.931 . S
H1532 C1558 0.929 . S
H1533 C1561 0.930 . S
H1534 C1562 0.932 . S
H1535 C1565 0.929 . S
H1536 C1564 0.931 . S
H1537 C1567 0.929 . S
H1538 C1571 0.932 . S
H1539 C1568 0.931 . S
H1540 C1570 0.929 . S
H1541 C1573 0.929 . S
H1542 C1574 0.930 . S
H1543 C1576 0.929 . S
H1544 C1577 0.931 . S
H1545 C1579 0.930 . S
H1546 C1580 0.932 . S
H1547 C1582 0.931 . S
H1548 C1583 0.929 . S
H1549 C1585 0.929 . S
H1550 C1586 0.931 . S
H1551 C1588 0.929 . S
N1552 C1572 1.433 . S
N1552 C1578 1.435 . S
N1552 C1584 1.423 . S
H1553 C1589 0.932 . S
C1554 N1529 1.433 . S
C1554 C1555 1.363 . S
C1554 C1559 1.370 . S
C1555 H1528 0.929 . S
C1555 C1554 1.363 . S
C1555 C1556 1.385 . S
C1556 H1530 0.930 . S
C1556 C1555 1.385 . S
C1556 C1557 1.357 . S
C1557 C1556 1.357 . S
C1557 C1558 1.406 . S
C1558 H1532 0.929 . S
C1558 C1557 1.406 . S
C1558 C1559 1.391 . S
C1559 H1531 0.931 . S
C1559 C1554 1.370 . S
C1559 C1558 1.391 . S
C1560 N1529 1.435 . S
C1560 C1561 1.358 . S
C1560 C1565 1.371 . S
C1561 H1533 0.930 . S
C1561 C1560 1.358 . S
C1561 C1562 1.405 . S
C1562 H1534 0.932 . S
C1562 C1561 1.405 . S
C1562 C1563 1.383 . S
C1563 C1562 1.383 . S
C1563 C1564 1.393 . S
C1564 H1536 0.931 . S
C1564 C1563 1.393 . S
C1564 C1565 1.382 . S
C1565 H1535 0.929 . S
C1565 C1560 1.371 . S
C1565 C1564 1.382 . S
C1566 N1529 1.423 . S
C1566 C1567 1.362 . S
C1566 C1571 1.388 . S
C1567 H1537 0.929 . S
C1567 C1566 1.362 . S
C1567 C1568 1.376 . S
C1568 H1539 0.931 . S
C1568 C1567 1.376 . S
C1568 C1569 1.421 . S
C1569 C1568 1.421 . S
C1569 C1570 1.375 . S
C1569 C1587 1.424 1_655 S
C1570 H1540 0.929 . S
C1570 C1569 1.375 . S
C1570 C1571 1.443 . S
C1571 H1538 0.932 . S
C1571 C1566 1.388 . S
C1571 C1570 1.443 . S
C1572 N1552 1.433 . S
C1572 C1573 1.363 . S
C1572 C1577 1.370 . S
C1573 H1541 0.929 . S
C1573 C1572 1.363 . S
C1573 C1574 1.385 . S
C1574 H1542 0.930 . S
C1574 C1573 1.385 . S
C1574 C1575 1.357 . S
C1575 C1574 1.357 . S
C1575 C1576 1.406 . S
C1576 H1543 0.929 . S
C1576 C1575 1.406 . S
C1576 C1577 1.391 . S
C1577 H1544 0.931 . S
C1577 C1572 1.370 . S
C1577 C1576 1.391 . S
C1578 N1552 1.435 . S
C1578 C1579 1.358 . S
C1578 C1583 1.371 . S
C1579 H1545 0.930 . S
C1579 C1578 1.358 . S
C1579 C1580 1.405 . S
C1580 H1546 0.932 . S
C1580 C1579 1.405 . S
C1580 C1581 1.383 . S
C1581 C1580 1.383 . S
C1581 C1582 1.393 . S
C1582 H1547 0.931 . S
C1582 C1581 1.393 . S
C1582 C1583 1.382 . S
C1583 H1548 0.929 . S
C1583 C1578 1.371 . S
C1583 C1582 1.382 . S
C1584 N1552 1.423 . S
C1584 C1585 1.362 . S
C1584 C1589 1.388 . S
C1585 H1549 0.929 . S
C1585 C1584 1.362 . S
C1585 C1586 1.376 . S
C1586 H1550 0.931 . S
C1586 C1585 1.376 . S
C1586 C1587 1.396 . S
C1587 C1569 1.424 1_455 S
C1587 C1586 1.396 . S
C1587 C1588 1.348 . S
C1588 H1551 0.929 . S
C1588 C1587 1.348 . S
C1588 C1589 1.443 . S
C1589 H1553 0.932 . S
C1589 C1584 1.388 . S
C1589 C1588 1.443 . S
H1590 C1617 0.929 . S
N1591 C1616 1.433 . S
N1591 C1622 1.435 . S
N1591 C1628 1.423 . S
H1592 C1618 0.930 . S
H1593 C1621 0.931 . S
H1594 C1620 0.929 . S
H1595 C1623 0.930 . S
H1596 C1624 0.932 . S
H1597 C1627 0.929 . S
H1598 C1626 0.931 . S
H1599 C1629 0.929 . S
H1600 C1633 0.932 . S
H1601 C1630 0.931 . S
H1602 C1632 0.929 . S
H1603 C1635 0.929 . S
H1604 C1636 0.930 . S
H1605 C1638 0.929 . S
H1606 C1639 0.931 . S
H1607 C1641 0.930 . S
H1608 C1642 0.932 . S
H1609 C1644 0.931 . S
H1610 C1645 0.929 . S
H1611 C1647 0.929 . S
H1612 C1648 0.931 . S
H1613 C1650 0.929 . S
N1614 C1634 1.433 . S
N1614 C1640 1.435 . S
N1614 C1646 1.423 . S
H1615 C1651 0.932 . S
C1616 N1591 1.433 . S
C1616 C1617 1.363 . S
C1616 C1621 1.370 . S
C1617 H1590 0.929 . S
C1617 C1616 1.363 . S
C1617 C1618 1.385 . S
C1618 H1592 0.930 . S
C1618 C1617 1.385 . S
C1618 C1619 1.357 . S
C1619 C1618 1.357 . S
C1619 C1620 1.406 . S
C1620 H1594 0.929 . S
C1620 C1619 1.406 . S
C1620 C1621 1.391 . S
C1621 H1593 0.931 . S
C1621 C1616 1.370 . S
C1621 C1620 1.391 . S
C1622 N1591 1.435 . S
C1622 C1623 1.358 . S
C1622 C1627 1.371 . S
C1623 H1595 0.930 . S
C1623 C1622 1.358 . S
C1623 C1624 1.405 . S
C1624 H1596 0.932 . S
C1624 C1623 1.405 . S
C1624 C1625 1.383 . S
C1625 C1624 1.383 . S
C1625 C1626 1.393 . S
C1626 H1598 0.931 . S
C1626 C1625 1.393 . S
C1626 C1627 1.382 . S
C1627 H1597 0.929 . S
C1627 C1622 1.371 . S
C1627 C1626 1.382 . S
C1628 N1591 1.423 . S
C1628 C1629 1.362 . S
C1628 C1633 1.388 . S
C1629 H1599 0.929 . S
C1629 C1628 1.362 . S
C1629 C1630 1.376 . S
C1630 H1601 0.931 . S
C1630 C1629 1.376 . S
C1630 C1631 1.396 . S
C1631 C1630 1.396 . S
C1631 C1632 1.348 . S
C1631 C1649 1.472 1_545 S
C1632 H1602 0.929 . S
C1632 C1631 1.348 . S
C1632 C1633 1.443 . S
C1633 H1600 0.932 . S
C1633 C1628 1.388 . S
C1633 C1632 1.443 . S
C1634 N1614 1.433 . S
C1634 C1635 1.363 . S
C1634 C1639 1.370 . S
C1635 H1603 0.929 . S
C1635 C1634 1.363 . S
C1635 C1636 1.385 . S
C1636 H1604 0.930 . S
C1636 C1635 1.385 . S
C1636 C1637 1.357 . S
C1637 C1636 1.357 . S
C1637 C1638 1.406 . S
C1638 H1605 0.929 . S
C1638 C1637 1.406 . S
C1638 C1639 1.391 . S
C1639 H1606 0.931 . S
C1639 C1634 1.370 . S
C1639 C1638 1.391 . S
C1640 N1614 1.435 . S
C1640 C1641 1.358 . S
C1640 C1645 1.371 . S
C1641 H1607 0.930 . S
C1641 C1640 1.358 . S
C1641 C1642 1.405 . S
C1642 H1608 0.932 . S
C1642 C1641 1.405 . S
C1642 C1643 1.383 . S
C1643 C1642 1.383 . S
C1643 C1644 1.393 . S
C1644 H1609 0.931 . S
C1644 C1643 1.393 . S
C1644 C1645 1.382 . S
C1645 H1610 0.929 . S
C1645 C1640 1.371 . S
C1645 C1644 1.382 . S
C1646 N1614 1.423 . S
C1646 C1647 1.362 . S
C1646 C1651 1.388 . S
C1647 H1611 0.929 . S
C1647 C1646 1.362 . S
C1647 C1648 1.376 . S
C1648 H1612 0.931 . S
C1648 C1647 1.376 . S
C1648 C1649 1.396 . S
C1649 C1631 1.472 1_565 S
C1649 C1648 1.396 . S
C1649 C1650 1.348 . S
C1650 H1613 0.929 . S
C1650 C1649 1.348 . S
C1650 C1651 1.443 . S
C1651 H1615 0.932 . S
C1651 C1646 1.388 . S
C1651 C1650 1.443 . S
H1652 C1679 0.929 . S
N1653 C1678 1.433 . S
N1653 C1684 1.435 . S
N1653 C1690 1.423 . S
H1654 C1680 0.930 . S
H1655 C1683 0.931 . S
H1656 C1682 0.929 . S
H1657 C1685 0.930 . S
H1658 C1686 0.932 . S
H1659 C1689 0.929 . S
H1660 C1688 0.931 . S
H1661 C1691 0.929 . S
H1662 C1695 0.932 . S
H1663 C1692 0.931 . S
H1664 C1694 0.929 . S
H1665 C1697 0.929 . S
H1666 C1698 0.930 . S
H1667 C1700 0.929 . S
H1668 C1701 0.931 . S
H1669 C1703 0.930 . S
H1670 C1704 0.932 . S
H1671 C1706 0.931 . S
H1672 C1707 0.929 . S
H1673 C1709 0.929 . S
H1674 C1710 0.931 . S
H1675 C1712 0.929 . S
N1676 C1696 1.433 . S
N1676 C1702 1.435 . S
N1676 C1708 1.423 . S
H1677 C1713 0.932 . S
C1678 N1653 1.433 . S
C1678 C1679 1.363 . S
C1678 C1683 1.370 . S
C1679 H1652 0.929 . S
C1679 C1678 1.363 . S
C1679 C1680 1.385 . S
C1680 H1654 0.930 . S
C1680 C1679 1.385 . S
C1680 C1681 1.357 . S
C1681 C1680 1.357 . S
C1681 C1682 1.406 . S
C1682 H1656 0.929 . S
C1682 C1681 1.406 . S
C1682 C1683 1.391 . S
C1683 H1655 0.931 . S
C1683 C1678 1.370 . S
C1683 C1682 1.391 . S
C1684 N1653 1.435 . S
C1684 C1685 1.358 . S
C1684 C1689 1.371 . S
C1685 H1657 0.930 . S
C1685 C1684 1.358 . S
C1685 C1686 1.405 . S
C1686 H1658 0.932 . S
C1686 C1685 1.405 . S
C1686 C1687 1.383 . S
C1687 C1686 1.383 . S
C1687 C1688 1.393 . S
C1688 H1660 0.931 . S
C1688 C1687 1.393 . S
C1688 C1689 1.382 . S
C1689 H1659 0.929 . S
C1689 C1684 1.371 . S
C1689 C1688 1.382 . S
C1690 N1653 1.423 . S
C1690 C1691 1.362 . S
C1690 C1695 1.388 . S
C1691 H1661 0.929 . S
C1691 C1690 1.362 . S
C1691 C1692 1.376 . S
C1692 H1663 0.931 . S
C1692 C1691 1.376 . S
C1692 C1693 1.396 . S
C1693 C1692 1.396 . S
C1693 C1694 1.348 . S
C1693 C1711 1.422 1_455 S
C1694 H1664 0.929 . S
C1694 C1693 1.348 . S
C1694 C1695 1.443 . S
C1695 H1662 0.932 . S
C1695 C1690 1.388 . S
C1695 C1694 1.443 . S
C1696 N1676 1.433 . S
C1696 C1697 1.363 . S
C1696 C1701 1.370 . S
C1697 H1665 0.929 . S
C1697 C1696 1.363 . S
C1697 C1698 1.385 . S
C1698 H1666 0.930 . S
C1698 C1697 1.385 . S
C1698 C1699 1.357 . S
C1699 C1698 1.357 . S
C1699 C1700 1.406 . S
C1700 H1667 0.929 . S
C1700 C1699 1.406 . S
C1700 C1701 1.391 . S
C1701 H1668 0.931 . S
C1701 C1696 1.370 . S
C1701 C1700 1.391 . S
C1702 N1676 1.435 . S
C1702 C1703 1.358 . S
C1702 C1707 1.371 . S
C1703 H1669 0.930 . S
C1703 C1702 1.358 . S
C1703 C1704 1.405 . S
C1704 H1670 0.932 . S
C1704 C1703 1.405 . S
C1704 C1705 1.383 . S
C1705 C1704 1.383 . S
C1705 C1706 1.393 . S
C1706 H1671 0.931 . S
C1706 C1705 1.393 . S
C1706 C1707 1.382 . S
C1707 H1672 0.929 . S
C1707 C1702 1.371 . S
C1707 C1706 1.382 . S
C1708 N1676 1.423 . S
C1708 C1709 1.362 . S
C1708 C1713 1.388 . S
C1709 H1673 0.929 . S
C1709 C1708 1.362 . S
C1709 C1710 1.376 . S
C1710 H1674 0.931 . S
C1710 C1709 1.376 . S
C1710 C1711 1.424 . S
C1711 C1693 1.422 1_655 S
C1711 C1710 1.424 . S
C1711 C1712 1.374 . S
C1712 H1675 0.929 . S
C1712 C1711 1.374 . S
C1712 C1713 1.443 . S
C1713 H1677 0.932 . S
C1713 C1708 1.388 . S
C1713 C1712 1.443 . S
H1714 C1741 0.929 . S
N1715 C1740 1.433 . S
N1715 C1746 1.435 . S
N1715 C1752 1.423 . S
H1716 C1742 0.930 . S
H1717 C1745 0.931 . S
H1718 C1744 0.929 . S
H1719 C1747 0.930 . S
H1720 C1748 0.932 . S
H1721 C1751 0.929 . S
H1722 C1750 0.931 . S
H1723 C1753 0.929 . S
H1724 C1757 0.932 . S
H1725 C1754 0.931 . S
H1726 C1756 0.929 . S
H1727 C1759 0.929 . S
H1728 C1760 0.930 . S
H1729 C1762 0.929 . S
H1730 C1763 0.931 . S
H1731 C1765 0.930 . S
H1732 C1766 0.932 . S
H1733 C1768 0.931 . S
H1734 C1769 0.929 . S
H1735 C1771 0.929 . S
H1736 C1772 0.931 . S
H1737 C1774 0.929 . S
N1738 C1758 1.433 . S
N1738 C1764 1.435 . S
N1738 C1770 1.423 . S
H1739 C1775 0.932 . S
C1740 N1715 1.433 . S
C1740 C1741 1.363 . S
C1740 C1745 1.370 . S
C1741 H1714 0.929 . S
C1741 C1740 1.363 . S
C1741 C1742 1.385 . S
C1742 H1716 0.930 . S
C1742 C1741 1.385 . S
C1742 C1743 1.357 . S
C1743 C1742 1.357 . S
C1743 C1744 1.406 . S
C1744 H1718 0.929 . S
C1744 C1743 1.406 . S
C1744 C1745 1.391 . S
C1745 H1717 0.931 . S
C1745 C1740 1.370 . S
C1745 C1744 1.391 . S
C1746 N1715 1.435 . S
C1746 C1747 1.358 . S
C1746 C1751 1.371 . S
C1747 H1719 0.930 . S
C1747 C1746 1.358 . S
C1747 C1748 1.405 . S
C1748 H1720 0.932 . S
C1748 C1747 1.405 . S
C1748 C1749 1.383 . S
C1749 C1748 1.383 . S
C1749 C1750 1.393 . S
C1750 H1722 0.931 . S
C1750 C1749 1.393 . S
C1750 C1751 1.382 . S
C1751 H1721 0.929 . S
C1751 C1746 1.371 . S
C1751 C1750 1.382 . S
C1752 N1715 1.423 . S
C1752 C1753 1.362 . S
C1752 C1757 1.388 . S
C1753 H1723 0.929 . S
C1753 C1752 1.362 . S
C1753 C1754 1.376 . S
C1754 H1725 0.931 . S
C1754 C1753 1.376 . S
C1754 C1755 1.396 . S
C1755 C1754 1.396 . S
C1755 C1756 1.348 . S
C1755 C1773 1.472 1_565 S
C1756 H1726 0.929 . S
C1756 C1755 1.348 . S
C1756 C1757 1.443 . S
C1757 H1724 0.932 . S
C1757 C1752 1.388 . S
C1757 C1756 1.443 . S
C1758 N1738 1.433 . S
C1758 C1759 1.363 . S
C1758 C1763 1.370 . S
C1759 H1727 0.929 . S
C1759 C1758 1.363 . S
C1759 C1760 1.385 . S
C1760 H1728 0.930 . S
C1760 C1759 1.385 . S
C1760 C1761 1.357 . S
C1761 C1760 1.357 . S
C1761 C1762 1.406 . S
C1762 H1729 0.929 . S
C1762 C1761 1.406 . S
C1762 C1763 1.391 . S
C1763 H1730 0.931 . S
C1763 C1758 1.370 . S
C1763 C1762 1.391 . S
C1764 N1738 1.435 . S
C1764 C1765 1.358 . S
C1764 C1769 1.371 . S
C1765 H1731 0.930 . S
C1765 C1764 1.358 . S
C1765 C1766 1.405 . S
C1766 H1732 0.932 . S
C1766 C1765 1.405 . S
C1766 C1767 1.383 . S
C1767 C1766 1.383 . S
C1767 C1768 1.393 . S
C1768 H1733 0.931 . S
C1768 C1767 1.393 . S
C1768 C1769 1.382 . S
C1769 H1734 0.929 . S
C1769 C1764 1.371 . S
C1769 C1768 1.382 . S
C1770 N1738 1.423 . S
C1770 C1771 1.362 . S
C1770 C1775 1.388 . S
C1771 H1735 0.929 . S
C1771 C1770 1.362 . S
C1771 C1772 1.376 . S
C1772 H1736 0.931 . S
C1772 C1771 1.376 . S
C1772 C1773 1.396 . S
C1773 C1755 1.472 1_545 S
C1773 C1772 1.396 . S
C1773 C1774 1.348 . S
C1774 H1737 0.929 . S
C1774 C1773 1.348 . S
C1774 C1775 1.443 . S
C1775 H1739 0.932 . S
C1775 C1770 1.388 . S
C1775 C1774 1.443 . S
H1776 C1803 0.929 . S
N1777 C1802 1.433 . S
N1777 C1808 1.435 . S
N1777 C1814 1.423 . S
H1778 C1804 0.930 . S
H1779 C1807 0.931 . S
H1780 C1806 0.929 . S
H1781 C1809 0.930 . S
H1782 C1810 0.932 . S
H1783 C1813 0.929 . S
H1784 C1812 0.931 . S
H1785 C1815 0.929 . S
H1786 C1819 0.932 . S
H1787 C1816 0.931 . S
H1788 C1818 0.929 . S
H1789 C1821 0.929 . S
H1790 C1822 0.930 . S
H1791 C1824 0.929 . S
H1792 C1825 0.931 . S
H1793 C1827 0.930 . S
H1794 C1828 0.932 . S
H1795 C1830 0.931 . S
H1796 C1831 0.929 . S
H1797 C1833 0.929 . S
H1798 C1834 0.931 . S
H1799 C1836 0.929 . S
N1800 C1820 1.433 . S
N1800 C1826 1.435 . S
N1800 C1832 1.423 . S
H1801 C1837 0.932 . S
C1802 N1777 1.433 . S
C1802 C1803 1.363 . S
C1802 C1807 1.370 . S
C1803 H1776 0.929 . S
C1803 C1802 1.363 . S
C1803 C1804 1.385 . S
C1804 H1778 0.930 . S
C1804 C1803 1.385 . S
C1804 C1805 1.357 . S
C1805 C1804 1.357 . S
C1805 C1806 1.406 . S
C1806 H1780 0.929 . S
C1806 C1805 1.406 . S
C1806 C1807 1.391 . S
C1807 H1779 0.931 . S
C1807 C1802 1.370 . S
C1807 C1806 1.391 . S
C1808 N1777 1.435 . S
C1808 C1809 1.358 . S
C1808 C1813 1.371 . S
C1809 H1781 0.930 . S
C1809 C1808 1.358 . S
C1809 C1810 1.405 . S
C1810 H1782 0.932 . S
C1810 C1809 1.405 . S
C1810 C1811 1.383 . S
C1811 C1810 1.383 . S
C1811 C1812 1.393 . S
C1812 H1784 0.931 . S
C1812 C1811 1.393 . S
C1812 C1813 1.382 . S
C1813 H1783 0.929 . S
C1813 C1808 1.371 . S
C1813 C1812 1.382 . S
C1814 N1777 1.423 . S
C1814 C1815 1.362 . S
C1814 C1819 1.388 . S
C1815 H1785 0.929 . S
C1815 C1814 1.362 . S
C1815 C1816 1.376 . S
C1816 H1787 0.931 . S
C1816 C1815 1.376 . S
C1816 C1817 1.396 . S
C1817 C1816 1.396 . S
C1817 C1818 1.348 . S
C1817 C1835 1.491 . S
C1818 H1788 0.929 . S
C1818 C1817 1.348 . S
C1818 C1819 1.443 . S
C1819 H1786 0.932 . S
C1819 C1814 1.388 . S
C1819 C1818 1.443 . S
C1820 N1800 1.433 . S
C1820 C1821 1.363 . S
C1820 C1825 1.370 . S
C1821 H1789 0.929 . S
C1821 C1820 1.363 . S
C1821 C1822 1.385 . S
C1822 H1790 0.930 . S
C1822 C1821 1.385 . S
C1822 C1823 1.357 . S
C1823 C1822 1.357 . S
C1823 C1824 1.406 . S
C1824 H1791 0.929 . S
C1824 C1823 1.406 . S
C1824 C1825 1.391 . S
C1825 H1792 0.931 . S
C1825 C1820 1.370 . S
C1825 C1824 1.391 . S
C1826 N1800 1.435 . S
C1826 C1827 1.358 . S
C1826 C1831 1.371 . S
C1827 H1793 0.930 . S
C1827 C1826 1.358 . S
C1827 C1828 1.405 . S
C1828 H1794 0.932 . S
C1828 C1827 1.405 . S
C1828 C1829 1.383 . S
C1829 C1828 1.383 . S
C1829 C1830 1.393 . S
C1830 H1795 0.931 . S
C1830 C1829 1.393 . S
C1830 C1831 1.382 . S
C1831 H1796 0.929 . S
C1831 C1826 1.371 . S
C1831 C1830 1.382 . S
C1832 N1800 1.423 . S
C1832 C1833 1.362 . S
C1832 C1837 1.388 . S
C1833 H1797 0.929 . S
C1833 C1832 1.362 . S
C1833 C1834 1.376 . S
C1834 H1798 0.931 . S
C1834 C1833 1.376 . S
C1834 C1835 1.385 1_655 S
C1835 C1817 1.491 . S
C1835 C1834 1.385 1_455 S
C1835 C1836 1.338 1_455 S
C1836 H1799 0.929 . S
C1836 C1835 1.338 1_655 S
C1836 C1837 1.443 . S
C1837 H1801 0.932 . S
C1837 C1832 1.388 . S
C1837 C1836 1.443 . S
H1838 C1865 0.929 . S
N1839 C1864 1.433 . S
N1839 C1870 1.435 . S
N1839 C1876 1.423 . S
H1840 C1866 0.930 . S
H1841 C1869 0.931 . S
H1842 C1868 0.929 . S
H1843 C1871 0.930 . S
H1844 C1872 0.932 . S
H1845 C1875 0.929 . S
H1846 C1874 0.931 . S
H1847 C1877 0.929 . S
H1848 C1881 0.932 . S
H1849 C1878 0.931 . S
H1850 C1880 0.929 . S
H1851 C1883 0.929 . S
H1852 C1884 0.930 . S
H1853 C1886 0.929 . S
H1854 C1887 0.931 . S
H1855 C1889 0.930 . S
H1856 C1890 0.932 . S
H1857 C1892 0.931 . S
H1858 C1893 0.929 . S
H1859 C1895 0.929 . S
H1860 C1896 0.931 . S
H1861 C1898 0.929 . S
N1862 C1882 1.433 . S
N1862 C1888 1.435 . S
N1862 C1894 1.423 . S
H1863 C1899 0.932 . S
C1864 N1839 1.433 . S
C1864 C1865 1.363 . S
C1864 C1869 1.370 . S
C1865 H1838 0.929 . S
C1865 C1864 1.363 . S
C1865 C1866 1.385 . S
C1866 H1840 0.930 . S
C1866 C1865 1.385 . S
C1866 C1867 1.357 . S
C1867 C1866 1.357 . S
C1867 C1868 1.406 . S
C1868 H1842 0.929 . S
C1868 C1867 1.406 . S
C1868 C1869 1.391 . S
C1869 H1841 0.931 . S
C1869 C1864 1.370 . S
C1869 C1868 1.391 . S
C1870 N1839 1.435 . S
C1870 C1871 1.358 . S
C1870 C1875 1.371 . S
C1871 H1843 0.930 . S
C1871 C1870 1.358 . S
C1871 C1872 1.405 . S
C1872 H1844 0.932 . S
C1872 C1871 1.405 . S
C1872 C1873 1.383 . S
C1873 C1872 1.383 . S
C1873 C1874 1.393 . S
C1874 H1846 0.931 . S
C1874 C1873 1.393 . S
C1874 C1875 1.382 . S
C1875 H1845 0.929 . S
C1875 C1870 1.371 . S
C1875 C1874 1.382 . S
C1876 N1839 1.423 . S
C1876 C1877 1.362 . S
C1876 C1881 1.388 . S
C1877 H1847 0.929 . S
C1877 C1876 1.362 . S
C1877 C1878 1.376 . S
C1878 H1849 0.931 . S
C1878 C1877 1.376 . S
C1878 C1879 1.396 . S
C1879 C1878 1.396 . S
C1879 C1880 1.348 . S
C1879 C1897 1.472 1_545 S
C1880 H1850 0.929 . S
C1880 C1879 1.348 . S
C1880 C1881 1.443 . S
C1881 H1848 0.932 . S
C1881 C1876 1.388 . S
C1881 C1880 1.443 . S
C1882 N1862 1.433 . S
C1882 C1883 1.363 . S
C1882 C1887 1.370 . S
C1883 H1851 0.929 . S
C1883 C1882 1.363 . S
C1883 C1884 1.385 . S
C1884 H1852 0.930 . S
C1884 C1883 1.385 . S
C1884 C1885 1.357 . S
C1885 C1884 1.357 . S
C1885 C1886 1.406 . S
C1886 H1853 0.929 . S
C1886 C1885 1.406 . S
C1886 C1887 1.391 . S
C1887 H1854 0.931 . S
C1887 C1882 1.370 . S
C1887 C1886 1.391 . S
C1888 N1862 1.435 . S
C1888 C1889 1.358 . S
C1888 C1893 1.371 . S
C1889 H1855 0.930 . S
C1889 C1888 1.358 . S
C1889 C1890 1.405 . S
C1890 H1856 0.932 . S
C1890 C1889 1.405 . S
C1890 C1891 1.383 . S
C1891 C1890 1.383 . S
C1891 C1892 1.393 . S
C1892 H1857 0.931 . S
C1892 C1891 1.393 . S
C1892 C1893 1.382 . S
C1893 H1858 0.929 . S
C1893 C1888 1.371 . S
C1893 C1892 1.382 . S
C1894 N1862 1.423 . S
C1894 C1895 1.362 . S
C1894 C1899 1.388 . S
C1895 H1859 0.929 . S
C1895 C1894 1.362 . S
C1895 C1896 1.376 . S
C1896 H1860 0.931 . S
C1896 C1895 1.376 . S
C1896 C1897 1.396 . S
C1897 C1879 1.472 1_565 S
C1897 C1896 1.396 . S
C1897 C1898 1.348 . S
C1898 H1861 0.929 . S
C1898 C1897 1.348 . S
C1898 C1899 1.443 . S
C1899 H1863 0.932 . S
C1899 C1894 1.388 . S
C1899 C1898 1.443 . S
H1900 C1927 0.929 . S
N1901 C1926 1.433 . S
N1901 C1932 1.435 . S
N1901 C1938 1.423 . S
H1902 C1928 0.930 . S
H1903 C1931 0.931 . S
H1904 C1930 0.929 . S
H1905 C1933 0.930 . S
H1906 C1934 0.932 . S
H1907 C1937 0.929 . S
H1908 C1936 0.931 . S
H1909 C1939 0.929 . S
H1910 C1943 0.932 . S
H1911 C1940 0.931 . S
H1912 C1942 0.929 . S
H1913 C1945 0.929 . S
H1914 C1946 0.930 . S
H1915 C1948 0.929 . S
H1916 C1949 0.931 . S
H1917 C1951 0.930 . S
H1918 C1952 0.932 . S
H1919 C1954 0.931 . S
H1920 C1955 0.929 . S
H1921 C1957 0.929 . S
H1922 C1958 0.931 . S
H1923 C1960 0.929 . S
N1924 C1944 1.433 . S
N1924 C1950 1.435 . S
N1924 C1956 1.423 . S
H1925 C1961 0.932 . S
C1926 N1901 1.433 . S
C1926 C1927 1.363 . S
C1926 C1931 1.370 . S
C1927 H1900 0.929 . S
C1927 C1926 1.363 . S
C1927 C1928 1.385 . S
C1928 H1902 0.930 . S
C1928 C1927 1.385 . S
C1928 C1929 1.357 . S
C1929 C1928 1.357 . S
C1929 C1930 1.406 . S
C1930 H1904 0.929 . S
C1930 C1929 1.406 . S
C1930 C1931 1.391 . S
C1931 H1903 0.931 . S
C1931 C1926 1.370 . S
C1931 C1930 1.391 . S
C1932 N1901 1.435 . S
C1932 C1933 1.358 . S
C1932 C1937 1.371 . S
C1933 H1905 0.930 . S
C1933 C1932 1.358 . S
C1933 C1934 1.405 . S
C1934 H1906 0.932 . S
C1934 C1933 1.405 . S
C1934 C1935 1.383 . S
C1935 C1934 1.383 . S
C1935 C1936 1.393 . S
C1936 H1908 0.931 . S
C1936 C1935 1.393 . S
C1936 C1937 1.382 . S
C1937 H1907 0.929 . S
C1937 C1932 1.371 . S
C1937 C1936 1.382 . S
C1938 N1901 1.423 . S
C1938 C1939 1.362 . S
C1938 C1943 1.388 . S
C1939 H1909 0.929 . S
C1939 C1938 1.362 . S
C1939 C1940 1.376 . S
C1940 H1911 0.931 . S
C1940 C1939 1.376 . S
C1940 C1941 1.396 . S
C1941 C1940 1.396 . S
C1941 C1942 1.348 . S
C1941 C1959 1.472 1_655 S
C1942 H1912 0.929 . S
C1942 C1941 1.348 . S
C1942 C1943 1.443 . S
C1943 H1910 0.932 . S
C1943 C1938 1.388 . S
C1943 C1942 1.443 . S
C1944 N1924 1.433 . S
C1944 C1945 1.363 . S
C1944 C1949 1.370 . S
C1945 H1913 0.929 . S
C1945 C1944 1.363 . S
C1945 C1946 1.385 . S
C1946 H1914 0.930 . S
C1946 C1945 1.385 . S
C1946 C1947 1.357 . S
C1947 C1946 1.357 . S
C1947 C1948 1.406 . S
C1948 H1915 0.929 . S
C1948 C1947 1.406 . S
C1948 C1949 1.391 . S
C1949 H1916 0.931 . S
C1949 C1944 1.370 . S
C1949 C1948 1.391 . S
C1950 N1924 1.435 . S
C1950 C1951 1.358 . S
C1950 C1955 1.371 . S
C1951 H1917 0.930 . S
C1951 C1950 1.358 . S
C1951 C1952 1.405 . S
C1952 H1918 0.932 . S
C1952 C1951 1.405 . S
C1952 C1953 1.383 . S
C1953 C1952 1.383 . S
C1953 C1954 1.393 . S
C1954 H1919 0.931 . S
C1954 C1953 1.393 . S
C1954 C1955 1.382 . S
C1955 H1920 0.929 . S
C1955 C1950 1.371 . S
C1955 C1954 1.382 . S
C1956 N1924 1.423 . S
C1956 C1957 1.362 . S
C1956 C1961 1.388 . S
C1957 H1921 0.929 . S
C1957 C1956 1.362 . S
C1957 C1958 1.376 . S
C1958 H1922 0.931 . S
C1958 C1957 1.376 . S
C1958 C1959 1.396 . S
C1959 C1941 1.472 1_455 S
C1959 C1958 1.396 . S
C1959 C1960 1.348 . S
C1960 H1923 0.929 . S
C1960 C1959 1.348 . S
C1960 C1961 1.443 . S
C1961 H1925 0.932 . S
C1961 C1956 1.388 . S
C1961 C1960 1.443 . S
H1962 C1989 0.929 . S
N1963 C1988 1.433 . S
N1963 C1994 1.435 . S
N1963 C2000 1.423 . S
H1964 C1990 0.930 . S
H1965 C1993 0.931 . S
H1966 C1992 0.929 . S
H1967 C1995 0.930 . S
H1968 C1996 0.932 . S
H1969 C1999 0.929 . S
H1970 C1998 0.931 . S
H1971 C2001 0.929 . S
H1972 C2005 0.932 . S
H1973 C2002 0.931 . S
H1974 C2004 0.929 . S
H1975 C2007 0.929 . S
H1976 C2008 0.930 . S
H1977 C2010 0.929 . S
H1978 C2011 0.931 . S
H1979 C2013 0.930 . S
H1980 C2014 0.932 . S
H1981 C2016 0.931 . S
H1982 C2017 0.929 . S
H1983 C2019 0.929 . S
H1984 C2020 0.931 . S
H1985 C2022 0.929 . S
N1986 C2006 1.433 . S
N1986 C2012 1.435 . S
N1986 C2018 1.423 . S
H1987 C2023 0.932 . S
C1988 N1963 1.433 . S
C1988 C1989 1.363 . S
C1988 C1993 1.370 . S
C1989 H1962 0.929 . S
C1989 C1988 1.363 . S
C1989 C1990 1.385 . S
C1990 H1964 0.930 . S
C1990 C1989 1.385 . S
C1990 C1991 1.357 . S
C1991 C1990 1.357 . S
C1991 C1992 1.406 . S
C1992 H1966 0.929 . S
C1992 C1991 1.406 . S
C1992 C1993 1.391 . S
C1993 H1965 0.931 . S
C1993 C1988 1.370 . S
C1993 C1992 1.391 . S
C1994 N1963 1.435 . S
C1994 C1995 1.358 . S
C1994 C1999 1.371 . S
C1995 H1967 0.930 . S
C1995 C1994 1.358 . S
C1995 C1996 1.405 . S
C1996 H1968 0.932 . S
C1996 C1995 1.405 . S
C1996 C1997 1.383 . S
C1997 C1996 1.383 . S
C1997 C1998 1.393 . S
C1998 H1970 0.931 . S
C1998 C1997 1.393 . S
C1998 C1999 1.382 . S
C1999 H1969 0.929 . S
C1999 C1994 1.371 . S
C1999 C1998 1.382 . S
C2000 N1963 1.423 . S
C2000 C2001 1.362 . S
C2000 C2005 1.388 . S
C2001 H1971 0.929 . S
C2001 C2000 1.362 . S
C2001 C2002 1.376 . S
C2002 H1973 0.931 . S
C2002 C2001 1.376 . S
C2002 C2003 1.396 . S
C2003 C2002 1.396 . S
C2003 C2004 1.348 . S
C2003 C2021 1.472 1_565 S
C2004 H1974 0.929 . S
C2004 C2003 1.348 . S
C2004 C2005 1.443 . S
C2005 H1972 0.932 . S
C2005 C2000 1.388 . S
C2005 C2004 1.443 . S
C2006 N1986 1.433 . S
C2006 C2007 1.363 . S
C2006 C2011 1.370 . S
C2007 H1975 0.929 . S
C2007 C2006 1.363 . S
C2007 C2008 1.385 . S
C2008 H1976 0.930 . S
C2008 C2007 1.385 . S
C2008 C2009 1.357 . S
C2009 C2008 1.357 . S
C2009 C2010 1.406 . S
C2010 H1977 0.929 . S
C2010 C2009 1.406 . S
C2010 C2011 1.391 . S
C2011 H1978 0.931 . S
C2011 C2006 1.370 . S
C2011 C2010 1.391 . S
C2012 N1986 1.435 . S
C2012 C2013 1.358 . S
C2012 C2017 1.371 . S
C2013 H1979 0.930 . S
C2013 C2012 1.358 . S
C2013 C2014 1.405 . S
C2014 H1980 0.932 . S
C2014 C2013 1.405 . S
C2014 C2015 1.383 . S
C2015 C2014 1.383 . S
C2015 C2016 1.393 . S
C2016 H1981 0.931 . S
C2016 C2015 1.393 . S
C2016 C2017 1.382 . S
C2017 H1982 0.929 . S
C2017 C2012 1.371 . S
C2017 C2016 1.382 . S
C2018 N1986 1.423 . S
C2018 C2019 1.362 . S
C2018 C2023 1.388 . S
C2019 H1983 0.929 . S
C2019 C2018 1.362 . S
C2019 C2020 1.376 . S
C2020 H1984 0.931 . S
C2020 C2019 1.376 . S
C2020 C2021 1.396 . S
C2021 C2003 1.472 1_545 S
C2021 C2020 1.396 . S
C2021 C2022 1.348 . S
C2022 H1985 0.929 . S
C2022 C2021 1.348 . S
C2022 C2023 1.443 . S
C2023 H1987 0.932 . S
C2023 C2018 1.388 . S
C2023 C2022 1.443 . S
H2024 C2051 0.929 . S
N2025 C2050 1.433 . S
N2025 C2056 1.435 . S
N2025 C2062 1.423 . S
H2026 C2052 0.930 . S
H2027 C2055 0.931 . S
H2028 C2054 0.929 . S
H2029 C2057 0.930 . S
H2030 C2058 0.932 . S
H2031 C2061 0.929 . S
H2032 C2060 0.931 . S
H2033 C2063 0.929 . S
H2034 C2067 0.932 . S
H2035 C2064 0.931 . S
H2036 C2066 0.929 . S
H2037 C2069 0.929 . S
H2038 C2070 0.930 . S
H2039 C2072 0.929 . S
H2040 C2073 0.931 . S
H2041 C2075 0.930 . S
H2042 C2076 0.932 . S
H2043 C2078 0.931 . S
H2044 C2079 0.929 . S
H2045 C2081 0.929 . S
H2046 C2082 0.931 . S
H2047 C2084 0.929 . S
N2048 C2068 1.433 . S
N2048 C2074 1.435 . S
N2048 C2080 1.423 . S
H2049 C2085 0.932 . S
C2050 N2025 1.433 . S
C2050 C2051 1.363 . S
C2050 C2055 1.370 . S
C2051 H2024 0.929 . S
C2051 C2050 1.363 . S
C2051 C2052 1.385 . S
C2052 H2026 0.930 . S
C2052 C2051 1.385 . S
C2052 C2053 1.357 . S
C2053 C2052 1.357 . S
C2053 C2054 1.406 . S
C2054 H2028 0.929 . S
C2054 C2053 1.406 . S
C2054 C2055 1.391 . S
C2055 H2027 0.931 . S
C2055 C2050 1.370 . S
C2055 C2054 1.391 . S
C2056 N2025 1.435 . S
C2056 C2057 1.358 . S
C2056 C2061 1.371 . S
C2057 H2029 0.930 . S
C2057 C2056 1.358 . S
C2057 C2058 1.405 . S
C2058 H2030 0.932 . S
C2058 C2057 1.405 . S
C2058 C2059 1.383 . S
C2059 C2058 1.383 . S
C2059 C2060 1.393 . S
C2060 H2032 0.931 . S
C2060 C2059 1.393 . S
C2060 C2061 1.382 . S
C2061 H2031 0.929 . S
C2061 C2056 1.371 . S
C2061 C2060 1.382 . S
C2062 N2025 1.423 . S
C2062 C2063 1.362 . S
C2062 C2067 1.388 . S
C2063 H2033 0.929 . S
C2063 C2062 1.362 . S
C2063 C2064 1.376 . S
C2064 H2035 0.931 . S
C2064 C2063 1.376 . S
C2064 C2065 1.396 . S
C2065 C2064 1.396 . S
C2065 C2066 1.348 . S
C2065 C2083 1.472 . S
C2066 H2036 0.929 . S
C2066 C2065 1.348 . S
C2066 C2067 1.443 . S
C2067 H2034 0.932 . S
C2067 C2062 1.388 . S
C2067 C2066 1.443 . S
C2068 N2048 1.433 . S
C2068 C2069 1.363 . S
C2068 C2073 1.370 . S
C2069 H2037 0.929 . S
C2069 C2068 1.363 . S
C2069 C2070 1.385 . S
C2070 H2038 0.930 . S
C2070 C2069 1.385 . S
C2070 C2071 1.357 . S
C2071 C2070 1.357 . S
C2071 C2072 1.406 . S
C2072 H2039 0.929 . S
C2072 C2071 1.406 . S
C2072 C2073 1.391 . S
C2073 H2040 0.931 . S
C2073 C2068 1.370 . S
C2073 C2072 1.391 . S
C2074 N2048 1.435 . S
C2074 C2075 1.358 . S
C2074 C2079 1.371 . S
C2075 H2041 0.930 . S
C2075 C2074 1.358 . S
C2075 C2076 1.405 . S
C2076 H2042 0.932 . S
C2076 C2075 1.405 . S
C2076 C2077 1.383 . S
C2077 C2076 1.383 . S
C2077 C2078 1.393 . S
C2078 H2043 0.931 . S
C2078 C2077 1.393 . S
C2078 C2079 1.382 . S
C2079 H2044 0.929 . S
C2079 C2074 1.371 . S
C2079 C2078 1.382 . S
C2080 N2048 1.423 . S
C2080 C2081 1.362 . S
C2080 C2085 1.388 . S
C2081 H2045 0.929 . S
C2081 C2080 1.362 . S
C2081 C2082 1.376 . S
C2082 H2046 0.931 . S
C2082 C2081 1.376 . S
C2082 C2083 1.396 . S
C2083 C2065 1.472 . S
C2083 C2082 1.396 . S
C2083 C2084 1.348 . S
C2084 H2047 0.929 . S
C2084 C2083 1.348 . S
C2084 C2085 1.443 . S
C2085 H2049 0.932 . S
C2085 C2080 1.388 . S
C2085 C2084 1.443 . S
H2086 C2113 0.929 . S
N2087 C2112 1.433 . S
N2087 C2118 1.435 . S
N2087 C2124 1.423 . S
H2088 C2114 0.930 . S
H2089 C2117 0.931 . S
H2090 C2116 0.929 . S
H2091 C2119 0.930 . S
H2092 C2120 0.932 . S
H2093 C2123 0.929 . S
H2094 C2122 0.931 . S
H2095 C2125 0.929 . S
H2096 C2129 0.932 . S
H2097 C2126 0.931 . S
H2098 C2128 0.929 . S
H2099 C2131 0.929 . S
H2100 C2132 0.930 . S
H2101 C2134 0.929 . S
H2102 C2135 0.931 . S
H2103 C2137 0.930 . S
H2104 C2138 0.932 . S
H2105 C2140 0.931 . S
H2106 C2141 0.929 . S
H2107 C2143 0.929 . S
H2108 C2144 0.931 . S
H2109 C2146 0.929 . S
N2110 C2130 1.433 . S
N2110 C2136 1.435 . S
N2110 C2142 1.423 . S
H2111 C2147 0.932 . S
C2112 N2087 1.433 . S
C2112 C2113 1.363 . S
C2112 C2117 1.370 . S
C2113 H2086 0.929 . S
C2113 C2112 1.363 . S
C2113 C2114 1.385 . S
C2114 H2088 0.930 . S
C2114 C2113 1.385 . S
C2114 C2115 1.357 . S
C2115 C2114 1.357 . S
C2115 C2116 1.406 . S
C2116 H2090 0.929 . S
C2116 C2115 1.406 . S
C2116 C2117 1.391 . S
C2117 H2089 0.931 . S
C2117 C2112 1.370 . S
C2117 C2116 1.391 . S
C2118 N2087 1.435 . S
C2118 C2119 1.358 . S
C2118 C2123 1.371 . S
C2119 H2091 0.930 . S
C2119 C2118 1.358 . S
C2119 C2120 1.405 . S
C2120 H2092 0.932 . S
C2120 C2119 1.405 . S
C2120 C2121 1.383 . S
C2121 C2120 1.383 . S
C2121 C2122 1.393 . S
C2122 H2094 0.931 . S
C2122 C2121 1.393 . S
C2122 C2123 1.382 . S
C2123 H2093 0.929 . S
C2123 C2118 1.371 . S
C2123 C2122 1.382 . S
C2124 N2087 1.423 . S
C2124 C2125 1.362 . S
C2124 C2129 1.388 . S
C2125 H2095 0.929 . S
C2125 C2124 1.362 . S
C2125 C2126 1.376 . S
C2126 H2097 0.931 . S
C2126 C2125 1.376 . S
C2126 C2127 1.396 . S
C2127 C2126 1.396 . S
C2127 C2128 1.348 . S
C2127 C2145 1.472 . S
C2128 H2098 0.929 . S
C2128 C2127 1.348 . S
C2128 C2129 1.443 . S
C2129 H2096 0.932 . S
C2129 C2124 1.388 . S
C2129 C2128 1.443 . S
C2130 N2110 1.433 . S
C2130 C2131 1.363 . S
C2130 C2135 1.370 . S
C2131 H2099 0.929 . S
C2131 C2130 1.363 . S
C2131 C2132 1.385 . S
C2132 H2100 0.930 . S
C2132 C2131 1.385 . S
C2132 C2133 1.357 . S
C2133 C2132 1.357 . S
C2133 C2134 1.406 . S
C2134 H2101 0.929 . S
C2134 C2133 1.406 . S
C2134 C2135 1.391 . S
C2135 H2102 0.931 . S
C2135 C2130 1.370 . S
C2135 C2134 1.391 . S
C2136 N2110 1.435 . S
C2136 C2137 1.358 . S
C2136 C2141 1.371 . S
C2137 H2103 0.930 . S
C2137 C2136 1.358 . S
C2137 C2138 1.405 . S
C2138 H2104 0.932 . S
C2138 C2137 1.405 . S
C2138 C2139 1.383 . S
C2139 C2138 1.383 . S
C2139 C2140 1.393 . S
C2140 H2105 0.931 . S
C2140 C2139 1.393 . S
C2140 C2141 1.382 . S
C2141 H2106 0.929 . S
C2141 C2136 1.371 . S
C2141 C2140 1.382 . S
C2142 N2110 1.423 . S
C2142 C2143 1.362 . S
C2142 C2147 1.388 . S
C2143 H2107 0.929 . S
C2143 C2142 1.362 . S
C2143 C2144 1.376 . S
C2144 H2108 0.931 . S
C2144 C2143 1.376 . S
C2144 C2145 1.396 . S
C2145 C2127 1.472 . S
C2145 C2144 1.396 . S
C2145 C2146 1.348 . S
C2146 H2109 0.929 . S
C2146 C2145 1.348 . S
C2146 C2147 1.443 . S
C2147 H2111 0.932 . S
C2147 C2142 1.388 . S
C2147 C2146 1.443 . S
H2148 C2175 0.929 . S
N2149 C2174 1.433 . S
N2149 C2180 1.435 . S
N2149 C2186 1.423 . S
H2150 C2176 0.930 . S
H2151 C2179 0.931 . S
H2152 C2178 0.929 . S
H2153 C2181 0.930 . S
H2154 C2182 0.932 . S
H2155 C2185 0.929 . S
H2156 C2184 0.931 . S
H2157 C2187 0.929 . S
H2158 C2191 0.932 . S
H2159 C2188 0.931 . S
H2160 C2190 0.929 . S
H2161 C2193 0.929 . S
H2162 C2194 0.930 . S
H2163 C2196 0.929 . S
H2164 C2197 0.931 . S
H2165 C2199 0.930 . S
H2166 C2200 0.932 . S
H2167 C2202 0.931 . S
H2168 C2203 0.929 . S
H2169 C2205 0.929 . S
H2170 C2206 0.931 . S
H2171 C2208 0.929 . S
N2172 C2192 1.433 . S
N2172 C2198 1.435 . S
N2172 C2204 1.423 . S
H2173 C2209 0.932 . S
C2174 N2149 1.433 . S
C2174 C2175 1.363 . S
C2174 C2179 1.370 . S
C2175 H2148 0.929 . S
C2175 C2174 1.363 . S
C2175 C2176 1.385 . S
C2176 H2150 0.930 . S
C2176 C2175 1.385 . S
C2176 C2177 1.357 . S
C2177 C2176 1.357 . S
C2177 C2178 1.406 . S
C2178 H2152 0.929 . S
C2178 C2177 1.406 . S
C2178 C2179 1.391 . S
C2179 H2151 0.931 . S
C2179 C2174 1.370 . S
C2179 C2178 1.391 . S
C2180 N2149 1.435 . S
C2180 C2181 1.358 . S
C2180 C2185 1.371 . S
C2181 H2153 0.930 . S
C2181 C2180 1.358 . S
C2181 C2182 1.405 . S
C2182 H2154 0.932 . S
C2182 C2181 1.405 . S
C2182 C2183 1.383 . S
C2183 C2182 1.383 . S
C2183 C2184 1.393 . S
C2184 H2156 0.931 . S
C2184 C2183 1.393 . S
C2184 C2185 1.382 . S
C2185 H2155 0.929 . S
C2185 C2180 1.371 . S
C2185 C2184 1.382 . S
C2186 N2149 1.423 . S
C2186 C2187 1.362 . S
C2186 C2191 1.388 . S
C2187 H2157 0.929 . S
C2187 C2186 1.362 . S
C2187 C2188 1.376 . S
C2188 H2159 0.931 . S
C2188 C2187 1.376 . S
C2188 C2189 1.396 . S
C2189 C2188 1.396 . S
C2189 C2190 1.348 . S
C2189 C2207 1.472 . S
C2190 H2160 0.929 . S
C2190 C2189 1.348 . S
C2190 C2191 1.443 . S
C2191 H2158 0.932 . S
C2191 C2186 1.388 . S
C2191 C2190 1.443 . S
C2192 N2172 1.433 . S
C2192 C2193 1.363 . S
C2192 C2197 1.370 . S
C2193 H2161 0.929 . S
C2193 C2192 1.363 . S
C2193 C2194 1.385 . S
C2194 H2162 0.930 . S
C2194 C2193 1.385 . S
C2194 C2195 1.357 . S
C2195 C2194 1.357 . S
C2195 C2196 1.406 . S
C2196 H2163 0.929 . S
C2196 C2195 1.406 . S
C2196 C2197 1.391 . S
C2197 H2164 0.931 . S
C2197 C2192 1.370 . S
C2197 C2196 1.391 . S
C2198 N2172 1.435 . S
C2198 C2199 1.358 . S
C2198 C2203 1.371 . S
C2199 H2165 0.930 . S
C2199 C2198 1.358 . S
C2199 C2200 1.405 . S
C2200 H2166 0.932 . S
C2200 C2199 1.405 . S
C2200 C2201 1.383 . S
C2201 C2200 1.383 . S
C2201 C2202 1.393 . S
C2202 H2167 0.931 . S
C2202 C2201 1.393 . S
C2202 C2203 1.382 . S
C2203 H2168 0.929 . S
C2203 C2198 1.371 . S
C2203 C2202 1.382 . S
C2204 N2172 1.423 . S
C2204 C2205 1.362 . S
C2204 C2209 1.388 . S
C2205 H2169 0.929 . S
C2205 C2204 1.362 . S
C2205 C2206 1.376 . S
C2206 H2170 0.931 . S
C2206 C2205 1.376 . S
C2206 C2207 1.396 . S
C2207 C2189 1.472 . S
C2207 C2206 1.396 . S
C2207 C2208 1.348 . S
C2208 H2171 0.929 . S
C2208 C2207 1.348 . S
C2208 C2209 1.443 . S
C2209 H2173 0.932 . S
C2209 C2204 1.388 . S
C2209 C2208 1.443 . S
H2210 C2237 0.929 . S
N2211 C2236 1.433 . S
N2211 C2242 1.435 . S
N2211 C2248 1.423 . S
H2212 C2238 0.930 . S
H2213 C2241 0.931 . S
H2214 C2240 0.929 . S
H2215 C2243 0.930 . S
H2216 C2244 0.932 . S
H2217 C2247 0.929 . S
H2218 C2246 0.931 . S
H2219 C2249 0.929 . S
H2220 C2253 0.932 . S
H2221 C2250 0.931 . S
H2222 C2252 0.929 . S
H2223 C2255 0.929 . S
H2224 C2256 0.930 . S
H2225 C2258 0.929 . S
H2226 C2259 0.931 . S
H2227 C2261 0.930 . S
H2228 C2262 0.932 . S
H2229 C2264 0.931 . S
H2230 C2265 0.929 . S
H2231 C2267 0.929 . S
H2232 C2268 0.931 . S
H2233 C2270 0.929 . S
N2234 C2254 1.433 . S
N2234 C2260 1.435 . S
N2234 C2266 1.423 . S
H2235 C2271 0.932 . S
C2236 N2211 1.433 . S
C2236 C2237 1.363 . S
C2236 C2241 1.370 . S
C2237 H2210 0.929 . S
C2237 C2236 1.363 . S
C2237 C2238 1.385 . S
C2238 H2212 0.930 . S
C2238 C2237 1.385 . S
C2238 C2239 1.357 . S
C2239 C2238 1.357 . S
C2239 C2240 1.406 . S
C2240 H2214 0.929 . S
C2240 C2239 1.406 . S
C2240 C2241 1.391 . S
C2241 H2213 0.931 . S
C2241 C2236 1.370 . S
C2241 C2240 1.391 . S
C2242 N2211 1.435 . S
C2242 C2243 1.358 . S
C2242 C2247 1.371 . S
C2243 H2215 0.930 . S
C2243 C2242 1.358 . S
C2243 C2244 1.405 . S
C2244 H2216 0.932 . S
C2244 C2243 1.405 . S
C2244 C2245 1.383 . S
C2245 C2244 1.383 . S
C2245 C2246 1.393 . S
C2246 H2218 0.931 . S
C2246 C2245 1.393 . S
C2246 C2247 1.382 . S
C2247 H2217 0.929 . S
C2247 C2242 1.371 . S
C2247 C2246 1.382 . S
C2248 N2211 1.423 . S
C2248 C2249 1.362 . S
C2248 C2253 1.388 . S
C2249 H2219 0.929 . S
C2249 C2248 1.362 . S
C2249 C2250 1.376 . S
C2250 H2221 0.931 . S
C2250 C2249 1.376 . S
C2250 C2251 1.396 . S
C2251 C2250 1.396 . S
C2251 C2252 1.348 . S
C2251 C2269 1.472 . S
C2252 H2222 0.929 . S
C2252 C2251 1.348 . S
C2252 C2253 1.443 . S
C2253 H2220 0.932 . S
C2253 C2248 1.388 . S
C2253 C2252 1.443 . S
C2254 N2234 1.433 . S
C2254 C2255 1.363 . S
C2254 C2259 1.370 . S
C2255 H2223 0.929 . S
C2255 C2254 1.363 . S
C2255 C2256 1.385 . S
C2256 H2224 0.930 . S
C2256 C2255 1.385 . S
C2256 C2257 1.357 . S
C2257 C2256 1.357 . S
C2257 C2258 1.406 . S
C2258 H2225 0.929 . S
C2258 C2257 1.406 . S
C2258 C2259 1.391 . S
C2259 H2226 0.931 . S
C2259 C2254 1.370 . S
C2259 C2258 1.391 . S
C2260 N2234 1.435 . S
C2260 C2261 1.358 . S
C2260 C2265 1.371 . S
C2261 H2227 0.930 . S
C2261 C2260 1.358 . S
C2261 C2262 1.405 . S
C2262 H2228 0.932 . S
C2262 C2261 1.405 . S
C2262 C2263 1.383 . S
C2263 C2262 1.383 . S
C2263 C2264 1.393 . S
C2264 H2229 0.931 . S
C2264 C2263 1.393 . S
C2264 C2265 1.382 . S
C2265 H2230 0.929 . S
C2265 C2260 1.371 . S
C2265 C2264 1.382 . S
C2266 N2234 1.423 . S
C2266 C2267 1.362 . S
C2266 C2271 1.388 . S
C2267 H2231 0.929 . S
C2267 C2266 1.362 . S
C2267 C2268 1.376 . S
C2268 H2232 0.931 . S
C2268 C2267 1.376 . S
C2268 C2269 1.396 . S
C2269 C2251 1.472 . S
C2269 C2268 1.396 . S
C2269 C2270 1.348 . S
C2270 H2233 0.929 . S
C2270 C2269 1.348 . S
C2270 C2271 1.443 . S
C2271 H2235 0.932 . S
C2271 C2266 1.388 . S
C2271 C2270 1.443 . S
H2272 C2299 0.929 . S
N2273 C2298 1.433 . S
N2273 C2304 1.435 . S
N2273 C2310 1.423 . S
H2274 C2300 0.930 . S
H2275 C2303 0.931 . S
H2276 C2302 0.929 . S
H2277 C2305 0.930 . S
H2278 C2306 0.932 . S
H2279 C2309 0.929 . S
H2280 C2308 0.931 . S
H2281 C2311 0.929 . S
H2282 C2315 0.932 . S
H2283 C2312 0.931 . S
H2284 C2314 0.929 . S
H2285 C2317 0.929 . S
H2286 C2318 0.930 . S
H2287 C2320 0.929 . S
H2288 C2321 0.931 . S
H2289 C2323 0.930 . S
H2290 C2324 0.932 . S
H2291 C2326 0.931 . S
H2292 C2327 0.929 . S
H2293 C2329 0.929 . S
H2294 C2330 0.931 . S
H2295 C2332 0.929 . S
N2296 C2316 1.433 . S
N2296 C2322 1.435 . S
N2296 C2328 1.423 . S
H2297 C2333 0.932 . S
C2298 N2273 1.433 . S
C2298 C2299 1.363 . S
C2298 C2303 1.370 . S
C2299 H2272 0.929 . S
C2299 C2298 1.363 . S
C2299 C2300 1.385 . S
C2300 H2274 0.930 . S
C2300 C2299 1.385 . S
C2300 C2301 1.357 . S
C2301 C2300 1.357 . S
C2301 C2302 1.406 . S
C2302 H2276 0.929 . S
C2302 C2301 1.406 . S
C2302 C2303 1.391 . S
C2303 H2275 0.931 . S
C2303 C2298 1.370 . S
C2303 C2302 1.391 . S
C2304 N2273 1.435 . S
C2304 C2305 1.358 . S
C2304 C2309 1.371 . S
C2305 H2277 0.930 . S
C2305 C2304 1.358 . S
C2305 C2306 1.405 . S
C2306 H2278 0.932 . S
C2306 C2305 1.405 . S
C2306 C2307 1.383 . S
C2307 C2306 1.383 . S
C2307 C2308 1.393 . S
C2308 H2280 0.931 . S
C2308 C2307 1.393 . S
C2308 C2309 1.382 . S
C2309 H2279 0.929 . S
C2309 C2304 1.371 . S
C2309 C2308 1.382 . S
C2310 N2273 1.423 . S
C2310 C2311 1.362 . S
C2310 C2315 1.388 . S
C2311 H2281 0.929 . S
C2311 C2310 1.362 . S
C2311 C2312 1.376 . S
C2312 H2283 0.931 . S
C2312 C2311 1.376 . S
C2312 C2313 1.396 . S
C2313 C2312 1.396 . S
C2313 C2314 1.348 . S
C2313 C2331 1.472 . S
C2314 H2284 0.929 . S
C2314 C2313 1.348 . S
C2314 C2315 1.443 . S
C2315 H2282 0.932 . S
C2315 C2310 1.388 . S
C2315 C2314 1.443 . S
C2316 N2296 1.433 . S
C2316 C2317 1.363 . S
C2316 C2321 1.370 . S
C2317 H2285 0.929 . S
C2317 C2316 1.363 . S
C2317 C2318 1.385 . S
C2318 H2286 0.930 . S
C2318 C2317 1.385 . S
C2318 C2319 1.357 . S
C2319 C2318 1.357 . S
C2319 C2320 1.406 . S
C2320 H2287 0.929 . S
C2320 C2319 1.406 . S
C2320 C2321 1.391 . S
C2321 H2288 0.931 . S
C2321 C2316 1.370 . S
C2321 C2320 1.391 . S
C2322 N2296 1.435 . S
C2322 C2323 1.358 . S
C2322 C2327 1.371 . S
C2323 H2289 0.930 . S
C2323 C2322 1.358 . S
C2323 C2324 1.405 . S
C2324 H2290 0.932 . S
C2324 C2323 1.405 . S
C2324 C2325 1.383 . S
C2325 C2324 1.383 . S
C2325 C2326 1.393 . S
C2326 H2291 0.931 . S
C2326 C2325 1.393 . S
C2326 C2327 1.382 . S
C2327 H2292 0.929 . S
C2327 C2322 1.371 . S
C2327 C2326 1.382 . S
C2328 N2296 1.423 . S
C2328 C2329 1.362 . S
C2328 C2333 1.388 . S
C2329 H2293 0.929 . S
C2329 C2328 1.362 . S
C2329 C2330 1.376 . S
C2330 H2294 0.931 . S
C2330 C2329 1.376 . S
C2330 C2331 1.396 . S
C2331 C2313 1.472 . S
C2331 C2330 1.396 . S
C2331 C2332 1.348 . S
C2332 H2295 0.929 . S
C2332 C2331 1.348 . S
C2332 C2333 1.443 . S
C2333 H2297 0.932 . S
C2333 C2328 1.388 . S
C2333 C2332 1.443 . S
H2334 C2361 0.929 . S
N2335 C2360 1.433 . S
N2335 C2366 1.435 . S
N2335 C2372 1.423 . S
H2336 C2362 0.930 . S
H2337 C2365 0.931 . S
H2338 C2364 0.929 . S
H2339 C2367 0.930 . S
H2340 C2368 0.932 . S
H2341 C2371 0.929 . S
H2342 C2370 0.931 . S
H2343 C2373 0.929 . S
H2344 C2377 0.932 . S
H2345 C2374 0.931 . S
H2346 C2376 0.929 . S
H2347 C2379 0.929 . S
H2348 C2380 0.930 . S
H2349 C2382 0.929 . S
H2350 C2383 0.931 . S
H2351 C2385 0.930 . S
H2352 C2386 0.932 . S
H2353 C2388 0.931 . S
H2354 C2389 0.929 . S
H2355 C2391 0.929 . S
H2356 C2392 0.931 . S
H2357 C2394 0.929 . S
N2358 C2378 1.433 . S
N2358 C2384 1.435 . S
N2358 C2390 1.423 . S
H2359 C2395 0.932 . S
C2360 N2335 1.433 . S
C2360 C2361 1.363 . S
C2360 C2365 1.370 . S
C2361 H2334 0.929 . S
C2361 C2360 1.363 . S
C2361 C2362 1.385 . S
C2362 H2336 0.930 . S
C2362 C2361 1.385 . S
C2362 C2363 1.357 . S
C2363 C2362 1.357 . S
C2363 C2364 1.406 . S
C2364 H2338 0.929 . S
C2364 C2363 1.406 . S
C2364 C2365 1.391 . S
C2365 H2337 0.931 . S
C2365 C2360 1.370 . S
C2365 C2364 1.391 . S
C2366 N2335 1.435 . S
C2366 C2367 1.358 . S
C2366 C2371 1.371 . S
C2367 H2339 0.930 . S
C2367 C2366 1.358 . S
C2367 C2368 1.405 . S
C2368 H2340 0.932 . S
C2368 C2367 1.405 . S
C2368 C2369 1.383 . S
C2369 C2368 1.383 . S
C2369 C2370 1.393 . S
C2370 H2342 0.931 . S
C2370 C2369 1.393 . S
C2370 C2371 1.382 . S
C2371 H2341 0.929 . S
C2371 C2366 1.371 . S
C2371 C2370 1.382 . S
C2372 N2335 1.423 . S
C2372 C2373 1.362 . S
C2372 C2377 1.388 . S
C2373 H2343 0.929 . S
C2373 C2372 1.362 . S
C2373 C2374 1.376 . S
C2374 H2345 0.931 . S
C2374 C2373 1.376 . S
C2374 C2375 1.396 . S
C2375 C2374 1.396 . S
C2375 C2376 1.348 . S
C2375 C2393 1.472 . S
C2376 H2346 0.929 . S
C2376 C2375 1.348 . S
C2376 C2377 1.443 . S
C2377 H2344 0.932 . S
C2377 C2372 1.388 . S
C2377 C2376 1.443 . S
C2378 N2358 1.433 . S
C2378 C2379 1.363 . S
C2378 C2383 1.370 . S
C2379 H2347 0.929 . S
C2379 C2378 1.363 . S
C2379 C2380 1.385 . S
C2380 H2348 0.930 . S
C2380 C2379 1.385 . S
C2380 C2381 1.357 . S
C2381 C2380 1.357 . S
C2381 C2382 1.406 . S
C2382 H2349 0.929 . S
C2382 C2381 1.406 . S
C2382 C2383 1.391 . S
C2383 H2350 0.931 . S
C2383 C2378 1.370 . S
C2383 C2382 1.391 . S
C2384 N2358 1.435 . S
C2384 C2385 1.358 . S
C2384 C2389 1.371 . S
C2385 H2351 0.930 . S
C2385 C2384 1.358 . S
C2385 C2386 1.405 . S
C2386 H2352 0.932 . S
C2386 C2385 1.405 . S
C2386 C2387 1.383 . S
C2387 C2386 1.383 . S
C2387 C2388 1.393 . S
C2388 H2353 0.931 . S
C2388 C2387 1.393 . S
C2388 C2389 1.382 . S
C2389 H2354 0.929 . S
C2389 C2384 1.371 . S
C2389 C2388 1.382 . S
C2390 N2358 1.423 . S
C2390 C2391 1.362 . S
C2390 C2395 1.388 . S
C2391 H2355 0.929 . S
C2391 C2390 1.362 . S
C2391 C2392 1.376 . S
C2392 H2356 0.931 . S
C2392 C2391 1.376 . S
C2392 C2393 1.396 . S
C2393 C2375 1.472 . S
C2393 C2392 1.396 . S
C2393 C2394 1.348 . S
C2394 H2357 0.929 . S
C2394 C2393 1.348 . S
C2394 C2395 1.443 . S
C2395 H2359 0.932 . S
C2395 C2390 1.388 . S
C2395 C2394 1.443 . S
H2396 C2423 0.929 . S
N2397 C2422 1.433 . S
N2397 C2428 1.435 . S
N2397 C2434 1.423 . S
H2398 C2424 0.930 . S
H2399 C2427 0.931 . S
H2400 C2426 0.929 . S
H2401 C2429 0.930 . S
H2402 C2430 0.932 . S
H2403 C2433 0.929 . S
H2404 C2432 0.931 . S
H2405 C2435 0.929 . S
H2406 C2439 0.932 . S
H2407 C2436 0.931 . S
H2408 C2438 0.929 . S
H2409 C2441 0.929 . S
H2410 C2442 0.930 . S
H2411 C2444 0.929 . S
H2412 C2445 0.931 . S
H2413 C2447 0.930 . S
H2414 C2448 0.932 . S
H2415 C2450 0.931 . S
H2416 C2451 0.929 . S
H2417 C2453 0.929 . S
H2418 C2454 0.931 . S
H2419 C2456 0.929 . S
N2420 C2440 1.433 . S
N2420 C2446 1.435 . S
N2420 C2452 1.423 . S
H2421 C2457 0.932 . S
C2422 N2397 1.433 . S
C2422 C2423 1.363 . S
C2422 C2427 1.370 . S
C2423 H2396 0.929 . S
C2423 C2422 1.363 . S
C2423 C2424 1.385 . S
C2424 H2398 0.930 . S
C2424 C2423 1.385 . S
C2424 C2425 1.357 . S
C2425 C2424 1.357 . S
C2425 C2426 1.406 . S
C2426 H2400 0.929 . S
C2426 C2425 1.406 . S
C2426 C2427 1.391 . S
C2427 H2399 0.931 . S
C2427 C2422 1.370 . S
C2427 C2426 1.391 . S
C2428 N2397 1.435 . S
C2428 C2429 1.358 . S
C2428 C2433 1.371 . S
C2429 H2401 0.930 . S
C2429 C2428 1.358 . S
C2429 C2430 1.405 . S
C2430 H2402 0.932 . S
C2430 C2429 1.405 . S
C2430 C2431 1.383 . S
C2431 C2430 1.383 . S
C2431 C2432 1.393 . S
C2432 H2404 0.931 . S
C2432 C2431 1.393 . S
C2432 C2433 1.382 . S
C2433 H2403 0.929 . S
C2433 C2428 1.371 . S
C2433 C2432 1.382 . S
C2434 N2397 1.423 . S
C2434 C2435 1.362 . S
C2434 C2439 1.388 . S
C2435 H2405 0.929 . S
C2435 C2434 1.362 . S
C2435 C2436 1.376 . S
C2436 H2407 0.931 . S
C2436 C2435 1.376 . S
C2436 C2437 1.396 . S
C2437 C2436 1.396 . S
C2437 C2438 1.348 . S
C2437 C2455 1.472 . S
C2438 H2408 0.929 . S
C2438 C2437 1.348 . S
C2438 C2439 1.443 . S
C2439 H2406 0.932 . S
C2439 C2434 1.388 . S
C2439 C2438 1.443 . S
C2440 N2420 1.433 . S
C2440 C2441 1.363 . S
C2440 C2445 1.370 . S
C2441 H2409 0.929 . S
C2441 C2440 1.363 . S
C2441 C2442 1.385 . S
C2442 H2410 0.930 . S
C2442 C2441 1.385 . S
C2442 C2443 1.357 . S
C2443 C2442 1.357 . S
C2443 C2444 1.406 . S
C2444 H2411 0.929 . S
C2444 C2443 1.406 . S
C2444 C2445 1.391 . S
C2445 H2412 0.931 . S
C2445 C2440 1.370 . S
C2445 C2444 1.391 . S
C2446 N2420 1.435 . S
C2446 C2447 1.358 . S
C2446 C2451 1.371 . S
C2447 H2413 0.930 . S
C2447 C2446 1.358 . S
C2447 C2448 1.405 . S
C2448 H2414 0.932 . S
C2448 C2447 1.405 . S
C2448 C2449 1.383 . S
C2449 C2448 1.383 . S
C2449 C2450 1.393 . S
C2450 H2415 0.931 . S
C2450 C2449 1.393 . S
C2450 C2451 1.382 . S
C2451 H2416 0.929 . S
C2451 C2446 1.371 . S
C2451 C2450 1.382 . S
C2452 N2420 1.423 . S
C2452 C2453 1.362 . S
C2452 C2457 1.388 . S
C2453 H2417 0.929 . S
C2453 C2452 1.362 . S
C2453 C2454 1.376 . S
C2454 H2418 0.931 . S
C2454 C2453 1.376 . S
C2454 C2455 1.396 . S
C2455 C2437 1.472 . S
C2455 C2454 1.396 . S
C2455 C2456 1.348 . S
C2456 H2419 0.929 . S
C2456 C2455 1.348 . S
C2456 C2457 1.443 . S
C2457 H2421 0.932 . S
C2457 C2452 1.388 . S
C2457 C2456 1.443 . S
H2458 C2485 0.929 . S
N2459 C2484 1.433 . S
N2459 C2490 1.435 . S
N2459 C2496 1.423 . S
H2460 C2486 0.930 . S
H2461 C2489 0.931 . S
H2462 C2488 0.929 . S
H2463 C2491 0.930 . S
H2464 C2492 0.932 . S
H2465 C2495 0.929 . S
H2466 C2494 0.931 . S
H2467 C2497 0.929 . S
H2468 C2501 0.932 . S
H2469 C2498 0.931 . S
H2470 C2500 0.929 . S
H2471 C2503 0.929 . S
H2472 C2504 0.930 . S
H2473 C2506 0.929 . S
H2474 C2507 0.931 . S
H2475 C2509 0.930 . S
H2476 C2510 0.932 . S
H2477 C2512 0.931 . S
H2478 C2513 0.929 . S
H2479 C2515 0.929 . S
H2480 C2516 0.931 . S
H2481 C2518 0.929 . S
N2482 C2502 1.433 . S
N2482 C2508 1.435 . S
N2482 C2514 1.423 . S
H2483 C2519 0.932 . S
C2484 N2459 1.433 . S
C2484 C2485 1.363 . S
C2484 C2489 1.370 . S
C2485 H2458 0.929 . S
C2485 C2484 1.363 . S
C2485 C2486 1.385 . S
C2486 H2460 0.930 . S
C2486 C2485 1.385 . S
C2486 C2487 1.357 . S
C2487 C2486 1.357 . S
C2487 C2488 1.406 . S
C2488 H2462 0.929 . S
C2488 C2487 1.406 . S
C2488 C2489 1.391 . S
C2489 H2461 0.931 . S
C2489 C2484 1.370 . S
C2489 C2488 1.391 . S
C2490 N2459 1.435 . S
C2490 C2491 1.358 . S
C2490 C2495 1.371 . S
C2491 H2463 0.930 . S
C2491 C2490 1.358 . S
C2491 C2492 1.405 . S
C2492 H2464 0.932 . S
C2492 C2491 1.405 . S
C2492 C2493 1.383 . S
C2493 C2492 1.383 . S
C2493 C2494 1.393 . S
C2494 H2466 0.931 . S
C2494 C2493 1.393 . S
C2494 C2495 1.382 . S
C2495 H2465 0.929 . S
C2495 C2490 1.371 . S
C2495 C2494 1.382 . S
C2496 N2459 1.423 . S
C2496 C2497 1.362 . S
C2496 C2501 1.388 . S
C2497 H2467 0.929 . S
C2497 C2496 1.362 . S
C2497 C2498 1.376 . S
C2498 H2469 0.931 . S
C2498 C2497 1.376 . S
C2498 C2499 1.396 . S
C2499 C2498 1.396 . S
C2499 C2500 1.348 . S
C2499 C2517 1.472 . S
C2500 H2470 0.929 . S
C2500 C2499 1.348 . S
C2500 C2501 1.443 . S
C2501 H2468 0.932 . S
C2501 C2496 1.388 . S
C2501 C2500 1.443 . S
C2502 N2482 1.433 . S
C2502 C2503 1.363 . S
C2502 C2507 1.370 . S
C2503 H2471 0.929 . S
C2503 C2502 1.363 . S
C2503 C2504 1.385 . S
C2504 H2472 0.930 . S
C2504 C2503 1.385 . S
C2504 C2505 1.357 . S
C2505 C2504 1.357 . S
C2505 C2506 1.406 . S
C2506 H2473 0.929 . S
C2506 C2505 1.406 . S
C2506 C2507 1.391 . S
C2507 H2474 0.931 . S
C2507 C2502 1.370 . S
C2507 C2506 1.391 . S
C2508 N2482 1.435 . S
C2508 C2509 1.358 . S
C2508 C2513 1.371 . S
C2509 H2475 0.930 . S
C2509 C2508 1.358 . S
C2509 C2510 1.405 . S
C2510 H2476 0.932 . S
C2510 C2509 1.405 . S
C2510 C2511 1.383 . S
C2511 C2510 1.383 . S
C2511 C2512 1.393 . S
C2512 H2477 0.931 . S
C2512 C2511 1.393 . S
C2512 C2513 1.382 . S
C2513 H2478 0.929 . S
C2513 C2508 1.371 . S
C2513 C2512 1.382 . S
C2514 N2482 1.423 . S
C2514 C2515 1.362 . S
C2514 C2519 1.388 . S
C2515 H2479 0.929 . S
C2515 C2514 1.362 . S
C2515 C2516 1.376 . S
C2516 H2480 0.931 . S
C2516 C2515 1.376 . S
C2516 C2517 1.396 . S
C2517 C2499 1.472 . S
C2517 C2516 1.396 . S
C2517 C2518 1.348 . S
C2518 H2481 0.929 . S
C2518 C2517 1.348 . S
C2518 C2519 1.443 . S
C2519 H2483 0.932 . S
C2519 C2514 1.388 . S
C2519 C2518 1.443 . S
H2520 C2547 0.929 . S
N2521 C2546 1.433 . S
N2521 C2552 1.435 . S
N2521 C2558 1.423 . S
H2522 C2548 0.930 . S
H2523 C2551 0.931 . S
H2524 C2550 0.929 . S
H2525 C2553 0.930 . S
H2526 C2554 0.932 . S
H2527 C2557 0.929 . S
H2528 C2556 0.931 . S
H2529 C2559 0.929 . S
H2530 C2563 0.932 . S
H2531 C2560 0.931 . S
H2532 C2562 0.929 . S
H2533 C2565 0.929 . S
H2534 C2566 0.930 . S
H2535 C2568 0.929 . S
H2536 C2569 0.931 . S
H2537 C2571 0.930 . S
H2538 C2572 0.932 . S
H2539 C2574 0.931 . S
H2540 C2575 0.929 . S
H2541 C2577 0.929 . S
H2542 C2578 0.931 . S
H2543 C2580 0.929 . S
N2544 C2564 1.433 . S
N2544 C2570 1.435 . S
N2544 C2576 1.423 . S
H2545 C2581 0.932 . S
C2546 N2521 1.433 . S
C2546 C2547 1.363 . S
C2546 C2551 1.370 . S
C2547 H2520 0.929 . S
C2547 C2546 1.363 . S
C2547 C2548 1.385 . S
C2548 H2522 0.930 . S
C2548 C2547 1.385 . S
C2548 C2549 1.357 . S
C2549 C2548 1.357 . S
C2549 C2550 1.406 . S
C2550 H2524 0.929 . S
C2550 C2549 1.406 . S
C2550 C2551 1.391 . S
C2551 H2523 0.931 . S
C2551 C2546 1.370 . S
C2551 C2550 1.391 . S
C2552 N2521 1.435 . S
C2552 C2553 1.358 . S
C2552 C2557 1.371 . S
C2553 H2525 0.930 . S
C2553 C2552 1.358 . S
C2553 C2554 1.405 . S
C2554 H2526 0.932 . S
C2554 C2553 1.405 . S
C2554 C2555 1.383 . S
C2555 C2554 1.383 . S
C2555 C2556 1.393 . S
C2556 H2528 0.931 . S
C2556 C2555 1.393 . S
C2556 C2557 1.382 . S
C2557 H2527 0.929 . S
C2557 C2552 1.371 . S
C2557 C2556 1.382 . S
C2558 N2521 1.423 . S
C2558 C2559 1.362 . S
C2558 C2563 1.388 . S
C2559 H2529 0.929 . S
C2559 C2558 1.362 . S
C2559 C2560 1.376 . S
C2560 H2531 0.931 . S
C2560 C2559 1.376 . S
C2560 C2561 1.396 . S
C2561 C2560 1.396 . S
C2561 C2562 1.348 . S
C2561 C2579 1.472 . S
C2562 H2532 0.929 . S
C2562 C2561 1.348 . S
C2562 C2563 1.443 . S
C2563 H2530 0.932 . S
C2563 C2558 1.388 . S
C2563 C2562 1.443 . S
C2564 N2544 1.433 . S
C2564 C2565 1.363 . S
C2564 C2569 1.370 . S
C2565 H2533 0.929 . S
C2565 C2564 1.363 . S
C2565 C2566 1.385 . S
C2566 H2534 0.930 . S
C2566 C2565 1.385 . S
C2566 C2567 1.357 . S
C2567 C2566 1.357 . S
C2567 C2568 1.406 . S
C2568 H2535 0.929 . S
C2568 C2567 1.406 . S
C2568 C2569 1.391 . S
C2569 H2536 0.931 . S
C2569 C2564 1.370 . S
C2569 C2568 1.391 . S
C2570 N2544 1.435 . S
C2570 C2571 1.358 . S
C2570 C2575 1.371 . S
C2571 H2537 0.930 . S
C2571 C2570 1.358 . S
C2571 C2572 1.405 . S
C2572 H2538 0.932 . S
C2572 C2571 1.405 . S
C2572 C2573 1.383 . S
C2573 C2572 1.383 . S
C2573 C2574 1.393 . S
C2574 H2539 0.931 . S
C2574 C2573 1.393 . S
C2574 C2575 1.382 . S
C2575 H2540 0.929 . S
C2575 C2570 1.371 . S
C2575 C2574 1.382 . S
C2576 N2544 1.423 . S
C2576 C2577 1.362 . S
C2576 C2581 1.388 . S
C2577 H2541 0.929 . S
C2577 C2576 1.362 . S
C2577 C2578 1.376 . S
C2578 H2542 0.931 . S
C2578 C2577 1.376 . S
C2578 C2579 1.396 . S
C2579 C2561 1.472 . S
C2579 C2578 1.396 . S
C2579 C2580 1.348 . S
C2580 H2543 0.929 . S
C2580 C2579 1.348 . S
C2580 C2581 1.443 . S
C2581 H2545 0.932 . S
C2581 C2576 1.388 . S
C2581 C2580 1.443 . S
H2582 C2609 0.929 . S
N2583 C2608 1.433 . S
N2583 C2614 1.435 . S
N2583 C2620 1.423 . S
H2584 C2610 0.930 . S
H2585 C2613 0.931 . S
H2586 C2612 0.929 . S
H2587 C2615 0.930 . S
H2588 C2616 0.932 . S
H2589 C2619 0.929 . S
H2590 C2618 0.931 . S
H2591 C2621 0.929 . S
H2592 C2625 0.932 . S
H2593 C2622 0.931 . S
H2594 C2624 0.929 . S
H2595 C2627 0.929 . S
H2596 C2628 0.930 . S
H2597 C2630 0.929 . S
H2598 C2631 0.931 . S
H2599 C2633 0.930 . S
H2600 C2634 0.932 . S
H2601 C2636 0.931 . S
H2602 C2637 0.929 . S
H2603 C2639 0.929 . S
H2604 C2640 0.931 . S
H2605 C2642 0.929 . S
N2606 C2626 1.433 . S
N2606 C2632 1.435 . S
N2606 C2638 1.423 . S
H2607 C2643 0.932 . S
C2608 N2583 1.433 . S
C2608 C2609 1.363 . S
C2608 C2613 1.370 . S
C2609 H2582 0.929 . S
C2609 C2608 1.363 . S
C2609 C2610 1.385 . S
C2610 H2584 0.930 . S
C2610 C2609 1.385 . S
C2610 C2611 1.357 . S
C2611 C2610 1.357 . S
C2611 C2612 1.406 . S
C2612 H2586 0.929 . S
C2612 C2611 1.406 . S
C2612 C2613 1.391 . S
C2613 H2585 0.931 . S
C2613 C2608 1.370 . S
C2613 C2612 1.391 . S
C2614 N2583 1.435 . S
C2614 C2615 1.358 . S
C2614 C2619 1.371 . S
C2615 H2587 0.930 . S
C2615 C2614 1.358 . S
C2615 C2616 1.405 . S
C2616 H2588 0.932 . S
C2616 C2615 1.405 . S
C2616 C2617 1.383 . S
C2617 C2616 1.383 . S
C2617 C2618 1.393 . S
C2618 H2590 0.931 . S
C2618 C2617 1.393 . S
C2618 C2619 1.382 . S
C2619 H2589 0.929 . S
C2619 C2614 1.371 . S
C2619 C2618 1.382 . S
C2620 N2583 1.423 . S
C2620 C2621 1.362 . S
C2620 C2625 1.388 . S
C2621 H2591 0.929 . S
C2621 C2620 1.362 . S
C2621 C2622 1.376 . S
C2622 H2593 0.931 . S
C2622 C2621 1.376 . S
C2622 C2623 1.396 . S
C2623 C2622 1.396 . S
C2623 C2624 1.348 . S
C2623 C2641 1.472 . S
C2624 H2594 0.929 . S
C2624 C2623 1.348 . S
C2624 C2625 1.443 . S
C2625 H2592 0.932 . S
C2625 C2620 1.388 . S
C2625 C2624 1.443 . S
C2626 N2606 1.433 . S
C2626 C2627 1.363 . S
C2626 C2631 1.370 . S
C2627 H2595 0.929 . S
C2627 C2626 1.363 . S
C2627 C2628 1.385 . S
C2628 H2596 0.930 . S
C2628 C2627 1.385 . S
C2628 C2629 1.357 . S
C2629 C2628 1.357 . S
C2629 C2630 1.406 . S
C2630 H2597 0.929 . S
C2630 C2629 1.406 . S
C2630 C2631 1.391 . S
C2631 H2598 0.931 . S
C2631 C2626 1.370 . S
C2631 C2630 1.391 . S
C2632 N2606 1.435 . S
C2632 C2633 1.358 . S
C2632 C2637 1.371 . S
C2633 H2599 0.930 . S
C2633 C2632 1.358 . S
C2633 C2634 1.405 . S
C2634 H2600 0.932 . S
C2634 C2633 1.405 . S
C2634 C2635 1.383 . S
C2635 C2634 1.383 . S
C2635 C2636 1.393 . S
C2636 H2601 0.931 . S
C2636 C2635 1.393 . S
C2636 C2637 1.382 . S
C2637 H2602 0.929 . S
C2637 C2632 1.371 . S
C2637 C2636 1.382 . S
C2638 N2606 1.423 . S
C2638 C2639 1.362 . S
C2638 C2643 1.388 . S
C2639 H2603 0.929 . S
C2639 C2638 1.362 . S
C2639 C2640 1.376 . S
C2640 H2604 0.931 . S
C2640 C2639 1.376 . S
C2640 C2641 1.396 . S
C2641 C2623 1.472 . S
C2641 C2640 1.396 . S
C2641 C2642 1.348 . S
C2642 H2605 0.929 . S
C2642 C2641 1.348 . S
C2642 C2643 1.443 . S
C2643 H2607 0.932 . S
C2643 C2638 1.388 . S
C2643 C2642 1.443 . S
H2644 C2671 0.929 . S
N2645 C2670 1.433 . S
N2645 C2676 1.435 . S
N2645 C2682 1.423 . S
H2646 C2672 0.930 . S
H2647 C2675 0.931 . S
H2648 C2674 0.929 . S
H2649 C2677 0.930 . S
H2650 C2678 0.932 . S
H2651 C2681 0.929 . S
H2652 C2680 0.931 . S
H2653 C2683 0.929 . S
H2654 C2687 0.932 . S
H2655 C2684 0.931 . S
H2656 C2686 0.929 . S
H2657 C2689 0.929 . S
H2658 C2690 0.930 . S
H2659 C2692 0.929 . S
H2660 C2693 0.931 . S
H2661 C2695 0.930 . S
H2662 C2696 0.932 . S
H2663 C2698 0.931 . S
H2664 C2699 0.929 . S
H2665 C2701 0.929 . S
H2666 C2702 0.931 . S
H2667 C2704 0.929 . S
N2668 C2688 1.433 . S
N2668 C2694 1.435 . S
N2668 C2700 1.423 . S
H2669 C2705 0.932 . S
C2670 N2645 1.433 . S
C2670 C2671 1.363 . S
C2670 C2675 1.370 . S
C2671 H2644 0.929 . S
C2671 C2670 1.363 . S
C2671 C2672 1.385 . S
C2672 H2646 0.930 . S
C2672 C2671 1.385 . S
C2672 C2673 1.357 . S
C2673 C2672 1.357 . S
C2673 C2674 1.406 . S
C2674 H2648 0.929 . S
C2674 C2673 1.406 . S
C2674 C2675 1.391 . S
C2675 H2647 0.931 . S
C2675 C2670 1.370 . S
C2675 C2674 1.391 . S
C2676 N2645 1.435 . S
C2676 C2677 1.358 . S
C2676 C2681 1.371 . S
C2677 H2649 0.930 . S
C2677 C2676 1.358 . S
C2677 C2678 1.405 . S
C2678 H2650 0.932 . S
C2678 C2677 1.405 . S
C2678 C2679 1.383 . S
C2679 C2678 1.383 . S
C2679 C2680 1.393 . S
C2680 H2652 0.931 . S
C2680 C2679 1.393 . S
C2680 C2681 1.382 . S
C2681 H2651 0.929 . S
C2681 C2676 1.371 . S
C2681 C2680 1.382 . S
C2682 N2645 1.423 . S
C2682 C2683 1.362 . S
C2682 C2687 1.388 . S
C2683 H2653 0.929 . S
C2683 C2682 1.362 . S
C2683 C2684 1.376 . S
C2684 H2655 0.931 . S
C2684 C2683 1.376 . S
C2684 C2685 1.396 . S
C2685 C2684 1.396 . S
C2685 C2686 1.348 . S
C2685 C2703 1.472 . S
C2686 H2656 0.929 . S
C2686 C2685 1.348 . S
C2686 C2687 1.443 . S
C2687 H2654 0.932 . S
C2687 C2682 1.388 . S
C2687 C2686 1.443 . S
C2688 N2668 1.433 . S
C2688 C2689 1.363 . S
C2688 C2693 1.370 . S
C2689 H2657 0.929 . S
C2689 C2688 1.363 . S
C2689 C2690 1.385 . S
C2690 H2658 0.930 . S
C2690 C2689 1.385 . S
C2690 C2691 1.357 . S
C2691 C2690 1.357 . S
C2691 C2692 1.406 . S
C2692 H2659 0.929 . S
C2692 C2691 1.406 . S
C2692 C2693 1.391 . S
C2693 H2660 0.931 . S
C2693 C2688 1.370 . S
C2693 C2692 1.391 . S
C2694 N2668 1.435 . S
C2694 C2695 1.358 . S
C2694 C2699 1.371 . S
C2695 H2661 0.930 . S
C2695 C2694 1.358 . S
C2695 C2696 1.405 . S
C2696 H2662 0.932 . S
C2696 C2695 1.405 . S
C2696 C2697 1.383 . S
C2697 C2696 1.383 . S
C2697 C2698 1.393 . S
C2698 H2663 0.931 . S
C2698 C2697 1.393 . S
C2698 C2699 1.382 . S
C2699 H2664 0.929 . S
C2699 C2694 1.371 . S
C2699 C2698 1.382 . S
C2700 N2668 1.423 . S
C2700 C2701 1.362 . S
C2700 C2705 1.388 . S
C2701 H2665 0.929 . S
C2701 C2700 1.362 . S
C2701 C2702 1.376 . S
C2702 H2666 0.931 . S
C2702 C2701 1.376 . S
C2702 C2703 1.396 . S
C2703 C2685 1.472 . S
C2703 C2702 1.396 . S
C2703 C2704 1.348 . S
C2704 H2667 0.929 . S
C2704 C2703 1.348 . S
C2704 C2705 1.443 . S
C2705 H2669 0.932 . S
C2705 C2700 1.388 . S
C2705 C2704 1.443 . S
H2706 C2733 0.929 . S
N2707 C2732 1.433 . S
N2707 C2738 1.435 . S
N2707 C2744 1.423 . S
H2708 C2734 0.930 . S
H2709 C2737 0.931 . S
H2710 C2736 0.929 . S
H2711 C2739 0.930 . S
H2712 C2740 0.932 . S
H2713 C2743 0.929 . S
H2714 C2742 0.931 . S
H2715 C2745 0.929 . S
H2716 C2749 0.932 . S
H2717 C2746 0.931 . S
H2718 C2748 0.929 . S
H2719 C2751 0.929 . S
H2720 C2752 0.930 . S
H2721 C2754 0.929 . S
H2722 C2755 0.931 . S
H2723 C2757 0.930 . S
H2724 C2758 0.932 . S
H2725 C2760 0.931 . S
H2726 C2761 0.929 . S
H2727 C2763 0.929 . S
H2728 C2764 0.931 . S
H2729 C2766 0.929 . S
N2730 C2750 1.433 . S
N2730 C2756 1.435 . S
N2730 C2762 1.423 . S
H2731 C2767 0.932 . S
C2732 N2707 1.433 . S
C2732 C2733 1.363 . S
C2732 C2737 1.370 . S
C2733 H2706 0.929 . S
C2733 C2732 1.363 . S
C2733 C2734 1.385 . S
C2734 H2708 0.930 . S
C2734 C2733 1.385 . S
C2734 C2735 1.357 . S
C2735 C2734 1.357 . S
C2735 C2736 1.406 . S
C2736 H2710 0.929 . S
C2736 C2735 1.406 . S
C2736 C2737 1.391 . S
C2737 H2709 0.931 . S
C2737 C2732 1.370 . S
C2737 C2736 1.391 . S
C2738 N2707 1.435 . S
C2738 C2739 1.358 . S
C2738 C2743 1.371 . S
C2739 H2711 0.930 . S
C2739 C2738 1.358 . S
C2739 C2740 1.405 . S
C2740 H2712 0.932 . S
C2740 C2739 1.405 . S
C2740 C2741 1.383 . S
C2741 C2740 1.383 . S
C2741 C2742 1.393 . S
C2742 H2714 0.931 . S
C2742 C2741 1.393 . S
C2742 C2743 1.382 . S
C2743 H2713 0.929 . S
C2743 C2738 1.371 . S
C2743 C2742 1.382 . S
C2744 N2707 1.423 . S
C2744 C2745 1.362 . S
C2744 C2749 1.388 . S
C2745 H2715 0.929 . S
C2745 C2744 1.362 . S
C2745 C2746 1.376 . S
C2746 H2717 0.931 . S
C2746 C2745 1.376 . S
C2746 C2747 1.396 . S
C2747 C2746 1.396 . S
C2747 C2748 1.348 . S
C2747 C2765 1.472 . S
C2748 H2718 0.929 . S
C2748 C2747 1.348 . S
C2748 C2749 1.443 . S
C2749 H2716 0.932 . S
C2749 C2744 1.388 . S
C2749 C2748 1.443 . S
C2750 N2730 1.433 . S
C2750 C2751 1.363 . S
C2750 C2755 1.370 . S
C2751 H2719 0.929 . S
C2751 C2750 1.363 . S
C2751 C2752 1.385 . S
C2752 H2720 0.930 . S
C2752 C2751 1.385 . S
C2752 C2753 1.357 . S
C2753 C2752 1.357 . S
C2753 C2754 1.406 . S
C2754 H2721 0.929 . S
C2754 C2753 1.406 . S
C2754 C2755 1.391 . S
C2755 H2722 0.931 . S
C2755 C2750 1.370 . S
C2755 C2754 1.391 . S
C2756 N2730 1.435 . S
C2756 C2757 1.358 . S
C2756 C2761 1.371 . S
C2757 H2723 0.930 . S
C2757 C2756 1.358 . S
C2757 C2758 1.405 . S
C2758 H2724 0.932 . S
C2758 C2757 1.405 . S
C2758 C2759 1.383 . S
C2759 C2758 1.383 . S
C2759 C2760 1.393 . S
C2760 H2725 0.931 . S
C2760 C2759 1.393 . S
C2760 C2761 1.382 . S
C2761 H2726 0.929 . S
C2761 C2756 1.371 . S
C2761 C2760 1.382 . S
C2762 N2730 1.423 . S
C2762 C2763 1.362 . S
C2762 C2767 1.388 . S
C2763 H2727 0.929 . S
C2763 C2762 1.362 . S
C2763 C2764 1.376 . S
C2764 H2728 0.931 . S
C2764 C2763 1.376 . S
C2764 C2765 1.396 . S
C2765 C2747 1.472 . S
C2765 C2764 1.396 . S
C2765 C2766 1.348 . S
C2766 H2729 0.929 . S
C2766 C2765 1.348 . S
C2766 C2767 1.443 . S
C2767 H2731 0.932 . S
C2767 C2762 1.388 . S
C2767 C2766 1.443 . S
C2768 C2769 1.363 . S
C2768 C2774 1.379 . S
C2768 N2776 1.356 . S
C2769 C2768 1.363 . S
C2769 C2775 1.363 . S
C2770 C2771 1.363 . S
C2770 C2775 1.379 . S
C2770 N2777 1.356 . S
C2771 C2770 1.363 . S
C2771 C2774 1.363 . S
N2772 C2774 1.356 . S
N2772 H2784 0.984 . S
N2772 H2785 0.985 . S
N2773 C2775 1.356 . S
N2773 H2778 0.984 . S
N2773 H2779 0.985 . S
C2774 C2768 1.379 . S
C2774 C2771 1.363 . S
C2774 N2772 1.356 . S
C2775 C2769 1.363 . S
C2775 C2770 1.379 . S
C2775 N2773 1.356 . S
N2776 C2768 1.356 . S
N2776 H2782 0.984 . S
N2776 H2783 0.984 . S
N2777 C2770 1.356 . S
N2777 H2780 0.984 . S
N2777 H2781 0.985 . S
H2778 N2773 0.984 . S
H2779 N2773 0.985 . S
H2780 N2777 0.984 . S
H2781 N2777 0.985 . S
H2782 N2776 0.984 . S
H2783 N2776 0.984 . S
H2784 N2772 0.984 . S
H2785 N2772 0.985 . S
C2786 C2787 1.363 . S
C2786 C2792 1.379 . S
C2786 N2794 1.356 . S
C2787 C2786 1.363 . S
C2787 C2793 1.363 . S
C2788 C2789 1.363 . S
C2788 C2793 1.379 . S
C2788 N2795 1.356 . S
C2789 C2788 1.363 . S
C2789 C2792 1.363 . S
N2790 C2792 1.356 . S
N2790 H2802 0.984 . S
N2790 H2803 0.985 . S
N2791 C2793 1.356 . S
N2791 H2796 0.984 . S
N2791 H2797 0.985 . S
C2792 C2786 1.379 . S
C2792 C2789 1.363 . S
C2792 N2790 1.356 . S
C2793 C2787 1.363 . S
C2793 C2788 1.379 . S
C2793 N2791 1.356 . S
N2794 C2786 1.356 . S
N2794 H2800 0.984 . S
N2794 H2801 0.984 . S
N2795 C2788 1.356 . S
N2795 H2798 0.984 . S
N2795 H2799 0.985 . S
H2796 N2791 0.984 . S
H2797 N2791 0.985 . S
H2798 N2795 0.984 . S
H2799 N2795 0.985 . S
H2800 N2794 0.984 . S
H2801 N2794 0.984 . S
H2802 N2790 0.984 . S
H2803 N2790 0.985 . S
C2804 C2805 1.363 . S
C2804 C2810 1.379 . S
C2804 N2812 1.356 . S
C2805 C2804 1.363 . S
C2805 C2811 1.363 . S
C2806 C2807 1.363 . S
C2806 C2811 1.379 . S
C2806 N2813 1.356 . S
C2807 C2806 1.363 . S
C2807 C2810 1.363 . S
N2808 C2810 1.356 . S
N2808 H2820 0.984 . S
N2808 H2821 0.985 . S
N2809 C2811 1.356 . S
N2809 H2814 0.984 . S
N2809 H2815 0.985 . S
C2810 C2804 1.379 . S
C2810 C2807 1.363 . S
C2810 N2808 1.356 . S
C2811 C2805 1.363 . S
C2811 C2806 1.379 . S
C2811 N2809 1.356 . S
N2812 C2804 1.356 . S
N2812 H2818 0.984 . S
N2812 H2819 0.984 . S
N2813 C2806 1.356 . S
N2813 H2816 0.984 . S
N2813 H2817 0.985 . S
H2814 N2809 0.984 . S
H2815 N2809 0.985 . S
H2816 N2813 0.984 . S
H2817 N2813 0.985 . S
H2818 N2812 0.984 . S
H2819 N2812 0.984 . S
H2820 N2808 0.984 . S
H2821 N2808 0.985 . S
C2822 C2823 1.363 . S
C2822 C2828 1.379 . S
C2822 N2830 1.356 . S
C2823 C2822 1.363 . S
C2823 C2829 1.363 . S
C2824 C2825 1.363 . S
C2824 C2829 1.379 . S
C2824 N2831 1.356 . S
C2825 C2824 1.363 . S
C2825 C2828 1.363 . S
N2826 C2828 1.356 . S
N2826 H2838 0.984 . S
N2826 H2839 0.985 . S
N2827 C2829 1.356 . S
N2827 H2832 0.984 . S
N2827 H2833 0.985 . S
C2828 C2822 1.379 . S
C2828 C2825 1.363 . S
C2828 N2826 1.356 . S
C2829 C2823 1.363 . S
C2829 C2824 1.379 . S
C2829 N2827 1.356 . S
N2830 C2822 1.356 . S
N2830 H2836 0.984 . S
N2830 H2837 0.984 . S
N2831 C2824 1.356 . S
N2831 H2834 0.984 . S
N2831 H2835 0.985 . S
H2832 N2827 0.984 . S
H2833 N2827 0.985 . S
H2834 N2831 0.984 . S
H2835 N2831 0.985 . S
H2836 N2830 0.984 . S
H2837 N2830 0.984 . S
H2838 N2826 0.984 . S
H2839 N2826 0.985 . S
C2840 C2841 1.363 . S
C2840 C2846 1.379 . S
C2840 N2848 1.356 . S
C2841 C2840 1.363 . S
C2841 C2847 1.363 . S
C2842 C2843 1.363 . S
C2842 C2847 1.379 . S
C2842 N2849 1.356 . S
C2843 C2842 1.363 . S
C2843 C2846 1.363 . S
N2844 C2846 1.356 . S
N2844 H2856 0.984 . S
N2844 H2857 0.985 . S
N2845 C2847 1.356 . S
N2845 H2850 0.984 . S
N2845 H2851 0.985 . S
C2846 C2840 1.379 . S
C2846 C2843 1.363 . S
C2846 N2844 1.356 . S
C2847 C2841 1.363 . S
C2847 C2842 1.379 . S
C2847 N2845 1.356 . S
N2848 C2840 1.356 . S
N2848 H2854 0.984 . S
N2848 H2855 0.984 . S
N2849 C2842 1.356 . S
N2849 H2852 0.984 . S
N2849 H2853 0.985 . S
H2850 N2845 0.984 . S
H2851 N2845 0.985 . S
H2852 N2849 0.984 . S
H2853 N2849 0.985 . S
H2854 N2848 0.984 . S
H2855 N2848 0.984 . S
H2856 N2844 0.984 . S
H2857 N2844 0.985 . S
C2858 C2859 1.363 . S
C2858 C2864 1.379 . S
C2858 N2866 1.356 . S
C2859 C2858 1.363 . S
C2859 C2865 1.363 . S
C2860 C2861 1.363 . S
C2860 C2865 1.379 . S
C2860 N2867 1.356 . S
C2861 C2860 1.363 . S
C2861 C2864 1.363 . S
N2862 C2864 1.356 . S
N2862 H2874 0.984 . S
N2862 H2875 0.985 . S
N2863 C2865 1.356 . S
N2863 H2868 0.984 . S
N2863 H2869 0.985 . S
C2864 C2858 1.379 . S
C2864 C2861 1.363 . S
C2864 N2862 1.356 . S
C2865 C2859 1.363 . S
C2865 C2860 1.379 . S
C2865 N2863 1.356 . S
N2866 C2858 1.356 . S
N2866 H2872 0.984 . S
N2866 H2873 0.984 . S
N2867 C2860 1.356 . S
N2867 H2870 0.984 . S
N2867 H2871 0.985 . S
H2868 N2863 0.984 . S
H2869 N2863 0.985 . S
H2870 N2867 0.984 . S
H2871 N2867 0.985 . S
H2872 N2866 0.984 . S
H2873 N2866 0.984 . S
H2874 N2862 0.984 . S
H2875 N2862 0.985 . S
C2876 C2877 1.363 . S
C2876 C2882 1.379 . S
C2876 N2884 1.356 . S
C2877 C2876 1.363 . S
C2877 C2883 1.363 . S
C2878 C2879 1.363 . S
C2878 C2883 1.379 . S
C2878 N2885 1.356 . S
C2879 C2878 1.363 . S
C2879 C2882 1.363 . S
N2880 C2882 1.356 . S
N2880 H2892 0.984 . S
N2880 H2893 0.985 . S
N2881 C2883 1.356 . S
N2881 H2886 0.984 . S
N2881 H2887 0.985 . S
C2882 C2876 1.379 . S
C2882 C2879 1.363 . S
C2882 N2880 1.356 . S
C2883 C2877 1.363 . S
C2883 C2878 1.379 . S
C2883 N2881 1.356 . S
N2884 C2876 1.356 . S
N2884 H2890 0.984 . S
N2884 H2891 0.984 . S
N2885 C2878 1.356 . S
N2885 H2888 0.984 . S
N2885 H2889 0.985 . S
H2886 N2881 0.984 . S
H2887 N2881 0.985 . S
H2888 N2885 0.984 . S
H2889 N2885 0.985 . S
H2890 N2884 0.984 . S
H2891 N2884 0.984 . S
H2892 N2880 0.984 . S
H2893 N2880 0.985 . S
C2894 C2895 1.363 . S
C2894 C2900 1.379 . S
C2894 N2902 1.356 . S
C2895 C2894 1.363 . S
C2895 C2901 1.363 . S
C2896 C2897 1.363 . S
C2896 C2901 1.379 . S
C2896 N2903 1.356 . S
C2897 C2896 1.363 . S
C2897 C2900 1.363 . S
N2898 C2900 1.356 . S
N2898 H2910 0.984 . S
N2898 H2911 0.985 . S
N2899 C2901 1.356 . S
N2899 H2904 0.984 . S
N2899 H2905 0.985 . S
C2900 C2894 1.379 . S
C2900 C2897 1.363 . S
C2900 N2898 1.356 . S
C2901 C2895 1.363 . S
C2901 C2896 1.379 . S
C2901 N2899 1.356 . S
N2902 C2894 1.356 . S
N2902 H2908 0.984 . S
N2902 H2909 0.984 . S
N2903 C2896 1.356 . S
N2903 H2906 0.984 . S
N2903 H2907 0.985 . S
H2904 N2899 0.984 . S
H2905 N2899 0.985 . S
H2906 N2903 0.984 . S
H2907 N2903 0.985 . S
H2908 N2902 0.984 . S
H2909 N2902 0.984 . S
H2910 N2898 0.984 . S
H2911 N2898 0.985 . S
C2912 C2913 1.363 . S
C2912 C2918 1.379 . S
C2912 N2920 1.356 . S
C2913 C2912 1.363 . S
C2913 C2919 1.363 . S
C2914 C2915 1.363 . S
C2914 C2919 1.379 . S
C2914 N2921 1.356 . S
C2915 C2914 1.363 . S
C2915 C2918 1.363 . S
N2916 C2918 1.356 . S
N2916 H2928 0.984 . S
N2916 H2929 0.985 . S
N2917 C2919 1.356 . S
N2917 H2922 0.984 . S
N2917 H2923 0.985 . S
C2918 C2912 1.379 . S
C2918 C2915 1.363 . S
C2918 N2916 1.356 . S
C2919 C2913 1.363 . S
C2919 C2914 1.379 . S
C2919 N2917 1.356 . S
N2920 C2912 1.356 . S
N2920 H2926 0.984 . S
N2920 H2927 0.984 . S
N2921 C2914 1.356 . S
N2921 H2924 0.984 . S
N2921 H2925 0.985 . S
H2922 N2917 0.984 . S
H2923 N2917 0.985 . S
H2924 N2921 0.984 . S
H2925 N2921 0.985 . S
H2926 N2920 0.984 . S
H2927 N2920 0.984 . S
H2928 N2916 0.984 . S
H2929 N2916 0.985 . S
C2930 C2931 1.363 . S
C2930 C2936 1.379 . S
C2930 N2938 1.356 . S
C2931 C2930 1.363 . S
C2931 C2937 1.363 . S
C2932 C2933 1.363 . S
C2932 C2937 1.379 . S
C2932 N2939 1.356 . S
C2933 C2932 1.363 . S
C2933 C2936 1.363 . S
N2934 C2936 1.356 . S
N2934 H2946 0.984 . S
N2934 H2947 0.985 . S
N2935 C2937 1.356 . S
N2935 H2940 0.984 . S
N2935 H2941 0.985 . S
C2936 C2930 1.379 . S
C2936 C2933 1.363 . S
C2936 N2934 1.356 . S
C2937 C2931 1.363 . S
C2937 C2932 1.379 . S
C2937 N2935 1.356 . S
N2938 C2930 1.356 . S
N2938 H2944 0.984 . S
N2938 H2945 0.984 . S
N2939 C2932 1.356 . S
N2939 H2942 0.984 . S
N2939 H2943 0.985 . S
H2940 N2935 0.984 . S
H2941 N2935 0.985 . S
H2942 N2939 0.984 . S
H2943 N2939 0.985 . S
H2944 N2938 0.984 . S
H2945 N2938 0.984 . S
H2946 N2934 0.984 . S
H2947 N2934 0.985 . S
C2948 C2949 1.363 . S
C2948 C2954 1.379 . S
C2948 N2956 1.356 . S
C2949 C2948 1.363 . S
C2949 C2955 1.363 . S
C2950 C2951 1.363 . S
C2950 C2955 1.379 . S
C2950 N2957 1.356 . S
C2951 C2950 1.363 . S
C2951 C2954 1.363 . S
N2952 C2954 1.356 . S
N2952 H2964 0.984 . S
N2952 H2965 0.985 . S
N2953 C2955 1.356 . S
N2953 H2958 0.984 . S
N2953 H2959 0.985 . S
C2954 C2948 1.379 . S
C2954 C2951 1.363 . S
C2954 N2952 1.356 . S
C2955 C2949 1.363 . S
C2955 C2950 1.379 . S
C2955 N2953 1.356 . S
N2956 C2948 1.356 . S
N2956 H2962 0.984 . S
N2956 H2963 0.984 . S
N2957 C2950 1.356 . S
N2957 H2960 0.984 . S
N2957 H2961 0.985 . S
H2958 N2953 0.984 . S
H2959 N2953 0.985 . S
H2960 N2957 0.984 . S
H2961 N2957 0.985 . S
H2962 N2956 0.984 . S
H2963 N2956 0.984 . S
H2964 N2952 0.984 . S
H2965 N2952 0.985 . S
C2966 C2967 1.363 . S
C2966 C2972 1.379 . S
C2966 N2974 1.356 . S
C2967 C2966 1.363 . S
C2967 C2973 1.363 . S
C2968 C2969 1.363 . S
C2968 C2973 1.379 . S
C2968 N2975 1.356 . S
C2969 C2968 1.363 . S
C2969 C2972 1.363 . S
N2970 C2972 1.356 . S
N2970 H2982 0.984 . S
N2970 H2983 0.985 . S
N2971 C2973 1.356 . S
N2971 H2976 0.984 . S
N2971 H2977 0.985 . S
C2972 C2966 1.379 . S
C2972 C2969 1.363 . S
C2972 N2970 1.356 . S
C2973 C2967 1.363 . S
C2973 C2968 1.379 . S
C2973 N2971 1.356 . S
N2974 C2966 1.356 . S
N2974 H2980 0.984 . S
N2974 H2981 0.984 . S
N2975 C2968 1.356 . S
N2975 H2978 0.984 . S
N2975 H2979 0.985 . S
H2976 N2971 0.984 . S
H2977 N2971 0.985 . S
H2978 N2975 0.984 . S
H2979 N2975 0.985 . S
H2980 N2974 0.984 . S
H2981 N2974 0.984 . S
H2982 N2970 0.984 . S
H2983 N2970 0.985 . S
C2984 C2985 1.363 . S
C2984 C2990 1.379 . S
C2984 N2992 1.356 . S
C2985 C2984 1.363 . S
C2985 C2991 1.363 . S
C2986 C2987 1.363 . S
C2986 C2991 1.379 . S
C2986 N2993 1.356 . S
C2987 C2986 1.363 . S
C2987 C2990 1.363 . S
N2988 C2990 1.356 . S
N2988 H3000 0.984 . S
N2988 H3001 0.985 . S
N2989 C2991 1.356 . S
N2989 H2994 0.984 . S
N2989 H2995 0.985 . S
C2990 C2984 1.379 . S
C2990 C2987 1.363 . S
C2990 N2988 1.356 . S
C2991 C2985 1.363 . S
C2991 C2986 1.379 . S
C2991 N2989 1.356 . S
N2992 C2984 1.356 . S
N2992 H2998 0.984 . S
N2992 H2999 0.984 . S
N2993 C2986 1.356 . S
N2993 H2996 0.984 . S
N2993 H2997 0.985 . S
H2994 N2989 0.984 . S
H2995 N2989 0.985 . S
H2996 N2993 0.984 . S
H2997 N2993 0.985 . S
H2998 N2992 0.984 . S
H2999 N2992 0.984 . S
H3000 N2988 0.984 . S
H3001 N2988 0.985 . S
C3002 C3003 1.363 . S
C3002 C3008 1.379 . S
C3002 N3010 1.356 . S
C3003 C3002 1.363 . S
C3003 C3009 1.363 . S
C3004 C3005 1.363 . S
C3004 C3009 1.379 . S
C3004 N3011 1.356 . S
C3005 C3004 1.363 . S
C3005 C3008 1.363 . S
N3006 C3008 1.356 . S
N3006 H3018 0.984 . S
N3006 H3019 0.985 . S
N3007 C3009 1.356 . S
N3007 H3012 0.984 . S
N3007 H3013 0.985 . S
C3008 C3002 1.379 . S
C3008 C3005 1.363 . S
C3008 N3006 1.356 . S
C3009 C3003 1.363 . S
C3009 C3004 1.379 . S
C3009 N3007 1.356 . S
N3010 C3002 1.356 . S
N3010 H3016 0.984 . S
N3010 H3017 0.984 . S
N3011 C3004 1.356 . S
N3011 H3014 0.984 . S
N3011 H3015 0.985 . S
H3012 N3007 0.984 . S
H3013 N3007 0.985 . S
H3014 N3011 0.984 . S
H3015 N3011 0.985 . S
H3016 N3010 0.984 . S
H3017 N3010 0.984 . S
H3018 N3006 0.984 . S
H3019 N3006 0.985 . S
C3020 C3021 1.363 . S
C3020 C3026 1.379 . S
C3020 N3028 1.356 . S
C3021 C3020 1.363 . S
C3021 C3027 1.363 . S
C3022 C3023 1.363 . S
C3022 C3027 1.379 . S
C3022 N3029 1.356 . S
C3023 C3022 1.363 . S
C3023 C3026 1.363 . S
N3024 C3026 1.356 . S
N3024 H3036 0.984 . S
N3024 H3037 0.985 . S
N3025 C3027 1.356 . S
N3025 H3030 0.984 . S
N3025 H3031 0.985 . S
C3026 C3020 1.379 . S
C3026 C3023 1.363 . S
C3026 N3024 1.356 . S
C3027 C3021 1.363 . S
C3027 C3022 1.379 . S
C3027 N3025 1.356 . S
N3028 C3020 1.356 . S
N3028 H3034 0.984 . S
N3028 H3035 0.984 . S
N3029 C3022 1.356 . S
N3029 H3032 0.984 . S
N3029 H3033 0.985 . S
H3030 N3025 0.984 . S
H3031 N3025 0.985 . S
H3032 N3029 0.984 . S
H3033 N3029 0.985 . S
H3034 N3028 0.984 . S
H3035 N3028 0.984 . S
H3036 N3024 0.984 . S
H3037 N3024 0.985 . S
C3038 C3039 1.363 . S
C3038 C3044 1.379 . S
C3038 N3046 1.356 . S
C3039 C3038 1.363 . S
C3039 C3045 1.363 . S
C3040 C3041 1.363 . S
C3040 C3045 1.379 . S
C3040 N3047 1.356 . S
C3041 C3040 1.363 . S
C3041 C3044 1.363 . S
N3042 C3044 1.356 . S
N3042 H3054 0.984 . S
N3042 H3055 0.985 . S
N3043 C3045 1.356 . S
N3043 H3048 0.984 . S
N3043 H3049 0.985 . S
C3044 C3038 1.379 . S
C3044 C3041 1.363 . S
C3044 N3042 1.356 . S
C3045 C3039 1.363 . S
C3045 C3040 1.379 . S
C3045 N3043 1.356 . S
N3046 C3038 1.356 . S
N3046 H3052 0.984 . S
N3046 H3053 0.984 . S
N3047 C3040 1.356 . S
N3047 H3050 0.984 . S
N3047 H3051 0.985 . S
H3048 N3043 0.984 . S
H3049 N3043 0.985 . S
H3050 N3047 0.984 . S
H3051 N3047 0.985 . S
H3052 N3046 0.984 . S
H3053 N3046 0.984 . S
H3054 N3042 0.984 . S
H3055 N3042 0.985 . S
C3056 C3057 1.363 . S
C3056 C3062 1.379 . S
C3056 N3064 1.356 . S
C3057 C3056 1.363 . S
C3057 C3063 1.363 . S
C3058 C3059 1.363 . S
C3058 C3063 1.379 . S
C3058 N3065 1.356 . S
C3059 C3058 1.363 . S
C3059 C3062 1.363 . S
N3060 C3062 1.356 . S
N3060 H3072 0.984 . S
N3060 H3073 0.985 . S
N3061 C3063 1.356 . S
N3061 H3066 0.984 . S
N3061 H3067 0.985 . S
C3062 C3056 1.379 . S
C3062 C3059 1.363 . S
C3062 N3060 1.356 . S
C3063 C3057 1.363 . S
C3063 C3058 1.379 . S
C3063 N3061 1.356 . S
N3064 C3056 1.356 . S
N3064 H3070 0.984 . S
N3064 H3071 0.984 . S
N3065 C3058 1.356 . S
N3065 H3068 0.984 . S
N3065 H3069 0.985 . S
H3066 N3061 0.984 . S
H3067 N3061 0.985 . S
H3068 N3065 0.984 . S
H3069 N3065 0.985 . S
H3070 N3064 0.984 . S
H3071 N3064 0.984 . S
H3072 N3060 0.984 . S
H3073 N3060 0.985 . S
C3074 C3075 1.363 . S
C3074 C3080 1.379 . S
C3074 N3082 1.356 . S
C3075 C3074 1.363 . S
C3075 C3081 1.363 . S
C3076 C3077 1.363 . S
C3076 C3081 1.379 . S
C3076 N3083 1.356 . S
C3077 C3076 1.363 . S
C3077 C3080 1.363 . S
N3078 C3080 1.356 . S
N3078 H3090 0.984 . S
N3078 H3091 0.985 . S
N3079 C3081 1.356 . S
N3079 H3084 0.984 . S
N3079 H3085 0.985 . S
C3080 C3074 1.379 . S
C3080 C3077 1.363 . S
C3080 N3078 1.356 . S
C3081 C3075 1.363 . S
C3081 C3076 1.379 . S
C3081 N3079 1.356 . S
N3082 C3074 1.356 . S
N3082 H3088 0.984 . S
N3082 H3089 0.984 . S
N3083 C3076 1.356 . S
N3083 H3086 0.984 . S
N3083 H3087 0.985 . S
H3084 N3079 0.984 . S
H3085 N3079 0.985 . S
H3086 N3083 0.984 . S
H3087 N3083 0.985 . S
H3088 N3082 0.984 . S
H3089 N3082 0.984 . S
H3090 N3078 0.984 . S
H3091 N3078 0.985 . S
C3092 C3093 1.363 . S
C3092 C3098 1.379 . S
C3092 N3100 1.356 . S
C3093 C3092 1.363 . S
C3093 C3099 1.363 . S
C3094 C3095 1.363 . S
C3094 C3099 1.379 . S
C3094 N3101 1.356 . S
C3095 C3094 1.363 . S
C3095 C3098 1.363 . S
N3096 C3098 1.356 . S
N3096 H3108 0.984 . S
N3096 H3109 0.985 . S
N3097 C3099 1.356 . S
N3097 H3102 0.984 . S
N3097 H3103 0.985 . S
C3098 C3092 1.379 . S
C3098 C3095 1.363 . S
C3098 N3096 1.356 . S
C3099 C3093 1.363 . S
C3099 C3094 1.379 . S
C3099 N3097 1.356 . S
N3100 C3092 1.356 . S
N3100 H3106 0.984 . S
N3100 H3107 0.984 . S
N3101 C3094 1.356 . S
N3101 H3104 0.984 . S
N3101 H3105 0.985 . S
H3102 N3097 0.984 . S
H3103 N3097 0.985 . S
H3104 N3101 0.984 . S
H3105 N3101 0.985 . S
H3106 N3100 0.984 . S
H3107 N3100 0.984 . S
H3108 N3096 0.984 . S
H3109 N3096 0.985 . S
C3110 C3111 1.363 . S
C3110 C3116 1.379 . S
C3110 N3118 1.356 . S
C3111 C3110 1.363 . S
C3111 C3117 1.363 . S
C3112 C3113 1.363 . S
C3112 C3117 1.379 . S
C3112 N3119 1.356 . S
C3113 C3112 1.363 . S
C3113 C3116 1.363 . S
N3114 C3116 1.356 . S
N3114 H3126 0.984 . S
N3114 H3127 0.985 . S
N3115 C3117 1.356 . S
N3115 H3120 0.984 . S
N3115 H3121 0.985 . S
C3116 C3110 1.379 . S
C3116 C3113 1.363 . S
C3116 N3114 1.356 . S
C3117 C3111 1.363 . S
C3117 C3112 1.379 . S
C3117 N3115 1.356 . S
N3118 C3110 1.356 . S
N3118 H3124 0.984 . S
N3118 H3125 0.984 . S
N3119 C3112 1.356 . S
N3119 H3122 0.984 . S
N3119 H3123 0.985 . S
H3120 N3115 0.984 . S
H3121 N3115 0.985 . S
H3122 N3119 0.984 . S
H3123 N3119 0.985 . S
H3124 N3118 0.984 . S
H3125 N3118 0.984 . S
H3126 N3114 0.984 . S
H3127 N3114 0.985 . S
C3128 C3129 1.363 . S
C3128 C3134 1.379 . S
C3128 N3136 1.356 . S
C3129 C3128 1.363 . S
C3129 C3135 1.363 . S
C3130 C3131 1.363 . S
C3130 C3135 1.379 . S
C3130 N3137 1.356 . S
C3131 C3130 1.363 . S
C3131 C3134 1.363 . S
N3132 C3134 1.356 . S
N3132 H3144 0.984 . S
N3132 H3145 0.985 . S
N3133 C3135 1.356 . S
N3133 H3138 0.984 . S
N3133 H3139 0.985 . S
C3134 C3128 1.379 . S
C3134 C3131 1.363 . S
C3134 N3132 1.356 . S
C3135 C3129 1.363 . S
C3135 C3130 1.379 . S
C3135 N3133 1.356 . S
N3136 C3128 1.356 . S
N3136 H3142 0.984 . S
N3136 H3143 0.984 . S
N3137 C3130 1.356 . S
N3137 H3140 0.984 . S
N3137 H3141 0.985 . S
H3138 N3133 0.984 . S
H3139 N3133 0.985 . S
H3140 N3137 0.984 . S
H3141 N3137 0.985 . S
H3142 N3136 0.984 . S
H3143 N3136 0.984 . S
H3144 N3132 0.984 . S
H3145 N3132 0.985 . S
C3146 C3147 1.363 . S
C3146 C3152 1.379 . S
C3146 N3154 1.356 . S
C3147 C3146 1.363 . S
C3147 C3153 1.363 . S
C3148 C3149 1.363 . S
C3148 C3153 1.379 . S
C3148 N3155 1.356 . S
C3149 C3148 1.363 . S
C3149 C3152 1.363 . S
N3150 C3152 1.356 . S
N3150 H3162 0.984 . S
N3150 H3163 0.985 . S
N3151 C3153 1.356 . S
N3151 H3156 0.984 . S
N3151 H3157 0.985 . S
C3152 C3146 1.379 . S
C3152 C3149 1.363 . S
C3152 N3150 1.356 . S
C3153 C3147 1.363 . S
C3153 C3148 1.379 . S
C3153 N3151 1.356 . S
N3154 C3146 1.356 . S
N3154 H3160 0.984 . S
N3154 H3161 0.984 . S
N3155 C3148 1.356 . S
N3155 H3158 0.984 . S
N3155 H3159 0.985 . S
H3156 N3151 0.984 . S
H3157 N3151 0.985 . S
H3158 N3155 0.984 . S
H3159 N3155 0.985 . S
H3160 N3154 0.984 . S
H3161 N3154 0.984 . S
H3162 N3150 0.984 . S
H3163 N3150 0.985 . S
C3164 C3165 1.363 . S
C3164 C3170 1.379 . S
C3164 N3172 1.356 . S
C3165 C3164 1.363 . S
C3165 C3171 1.363 . S
C3166 C3167 1.363 . S
C3166 C3171 1.379 . S
C3166 N3173 1.356 . S
C3167 C3166 1.363 . S
C3167 C3170 1.363 . S
N3168 C3170 1.356 . S
N3168 H3180 0.984 . S
N3168 H3181 0.985 . S
N3169 C3171 1.356 . S
N3169 H3174 0.984 . S
N3169 H3175 0.985 . S
C3170 C3164 1.379 . S
C3170 C3167 1.363 . S
C3170 N3168 1.356 . S
C3171 C3165 1.363 . S
C3171 C3166 1.379 . S
C3171 N3169 1.356 . S
N3172 C3164 1.356 . S
N3172 H3178 0.984 . S
N3172 H3179 0.984 . S
N3173 C3166 1.356 . S
N3173 H3176 0.984 . S
N3173 H3177 0.985 . S
H3174 N3169 0.984 . S
H3175 N3169 0.985 . S
H3176 N3173 0.984 . S
H3177 N3173 0.985 . S
H3178 N3172 0.984 . S
H3179 N3172 0.984 . S
H3180 N3168 0.984 . S
H3181 N3168 0.985 . S
C3182 C3183 1.363 . S
C3182 C3188 1.379 . S
C3182 N3190 1.356 . S
C3183 C3182 1.363 . S
C3183 C3189 1.363 . S
C3184 C3185 1.363 . S
C3184 C3189 1.379 . S
C3184 N3191 1.356 . S
C3185 C3184 1.363 . S
C3185 C3188 1.363 . S
N3186 C3188 1.356 . S
N3186 H3198 0.984 . S
N3186 H3199 0.985 . S
N3187 C3189 1.356 . S
N3187 H3192 0.984 . S
N3187 H3193 0.985 . S
C3188 C3182 1.379 . S
C3188 C3185 1.363 . S
C3188 N3186 1.356 . S
C3189 C3183 1.363 . S
C3189 C3184 1.379 . S
C3189 N3187 1.356 . S
N3190 C3182 1.356 . S
N3190 H3196 0.984 . S
N3190 H3197 0.984 . S
N3191 C3184 1.356 . S
N3191 H3194 0.984 . S
N3191 H3195 0.985 . S
H3192 N3187 0.984 . S
H3193 N3187 0.985 . S
H3194 N3191 0.984 . S
H3195 N3191 0.985 . S
H3196 N3190 0.984 . S
H3197 N3190 0.984 . S
H3198 N3186 0.984 . S
H3199 N3186 0.985 . S
C3200 C3201 1.363 . S
C3200 C3206 1.379 . S
C3200 N3208 1.356 . S
C3201 C3200 1.363 . S
C3201 C3207 1.363 . S
C3202 C3203 1.363 . S
C3202 C3207 1.379 . S
C3202 N3209 1.356 . S
C3203 C3202 1.363 . S
C3203 C3206 1.363 . S
N3204 C3206 1.356 . S
N3204 H3216 0.984 . S
N3204 H3217 0.985 . S
N3205 C3207 1.356 . S
N3205 H3210 0.984 . S
N3205 H3211 0.985 . S
C3206 C3200 1.379 . S
C3206 C3203 1.363 . S
C3206 N3204 1.356 . S
C3207 C3201 1.363 . S
C3207 C3202 1.379 . S
C3207 N3205 1.356 . S
N3208 C3200 1.356 . S
N3208 H3214 0.984 . S
N3208 H3215 0.984 . S
N3209 C3202 1.356 . S
N3209 H3212 0.984 . S
N3209 H3213 0.985 . S
H3210 N3205 0.984 . S
H3211 N3205 0.985 . S
H3212 N3209 0.984 . S
H3213 N3209 0.985 . S
H3214 N3208 0.984 . S
H3215 N3208 0.984 . S
H3216 N3204 0.984 . S
H3217 N3204 0.985 . S
C3218 C3219 1.363 . S
C3218 C3224 1.379 . S
C3218 N3226 1.356 . S
C3219 C3218 1.363 . S
C3219 C3225 1.363 . S
C3220 C3221 1.363 . S
C3220 C3225 1.379 . S
C3220 N3227 1.356 . S
C3221 C3220 1.363 . S
C3221 C3224 1.363 . S
N3222 C3224 1.356 . S
N3222 H3234 0.984 . S
N3222 H3235 0.985 . S
N3223 C3225 1.356 . S
N3223 H3228 0.984 . S
N3223 H3229 0.985 . S
C3224 C3218 1.379 . S
C3224 C3221 1.363 . S
C3224 N3222 1.356 . S
C3225 C3219 1.363 . S
C3225 C3220 1.379 . S
C3225 N3223 1.356 . S
N3226 C3218 1.356 . S
N3226 H3232 0.984 . S
N3226 H3233 0.984 . S
N3227 C3220 1.356 . S
N3227 H3230 0.984 . S
N3227 H3231 0.985 . S
H3228 N3223 0.984 . S
H3229 N3223 0.985 . S
H3230 N3227 0.984 . S
H3231 N3227 0.985 . S
H3232 N3226 0.984 . S
H3233 N3226 0.984 . S
H3234 N3222 0.984 . S
H3235 N3222 0.985 . S
C3236 C3237 1.363 . S
C3236 C3242 1.379 . S
C3236 N3244 1.356 . S
C3237 C3236 1.363 . S
C3237 C3243 1.363 . S
C3238 C3239 1.363 . S
C3238 C3243 1.379 . S
C3238 N3245 1.356 . S
C3239 C3238 1.363 . S
C3239 C3242 1.363 . S
N3240 C3242 1.356 . S
N3240 H3252 0.984 . S
N3240 H3253 0.985 . S
N3241 C3243 1.356 . S
N3241 H3246 0.984 . S
N3241 H3247 0.985 . S
C3242 C3236 1.379 . S
C3242 C3239 1.363 . S
C3242 N3240 1.356 . S
C3243 C3237 1.363 . S
C3243 C3238 1.379 . S
C3243 N3241 1.356 . S
N3244 C3236 1.356 . S
N3244 H3250 0.984 . S
N3244 H3251 0.984 . S
N3245 C3238 1.356 . S
N3245 H3248 0.984 . S
N3245 H3249 0.985 . S
H3246 N3241 0.984 . S
H3247 N3241 0.985 . S
H3248 N3245 0.984 . S
H3249 N3245 0.985 . S
H3250 N3244 0.984 . S
H3251 N3244 0.984 . S
H3252 N3240 0.984 . S
H3253 N3240 0.985 . S
C3254 C3255 1.363 . S
C3254 C3260 1.379 . S
C3254 N3262 1.356 . S
C3255 C3254 1.363 . S
C3255 C3261 1.363 . S
C3256 C3257 1.363 . S
C3256 C3261 1.379 . S
C3256 N3263 1.356 . S
C3257 C3256 1.363 . S
C3257 C3260 1.363 . S
N3258 C3260 1.356 . S
N3258 H3270 0.984 . S
N3258 H3271 0.985 . S
N3259 C3261 1.356 . S
N3259 H3264 0.984 . S
N3259 H3265 0.985 . S
C3260 C3254 1.379 . S
C3260 C3257 1.363 . S
C3260 N3258 1.356 . S
C3261 C3255 1.363 . S
C3261 C3256 1.379 . S
C3261 N3259 1.356 . S
N3262 C3254 1.356 . S
N3262 H3268 0.984 . S
N3262 H3269 0.984 . S
N3263 C3256 1.356 . S
N3263 H3266 0.984 . S
N3263 H3267 0.985 . S
H3264 N3259 0.984 . S
H3265 N3259 0.985 . S
H3266 N3263 0.984 . S
H3267 N3263 0.985 . S
H3268 N3262 0.984 . S
H3269 N3262 0.984 . S
H3270 N3258 0.984 . S
H3271 N3258 0.985 . S
C3272 C3273 1.363 . S
C3272 C3278 1.379 . S
C3272 N3280 1.356 . S
C3273 C3272 1.363 . S
C3273 C3279 1.363 . S
C3274 C3275 1.363 . S
C3274 C3279 1.379 . S
C3274 N3281 1.356 . S
C3275 C3274 1.363 . S
C3275 C3278 1.363 . S
N3276 C3278 1.356 . S
N3276 H3288 0.984 . S
N3276 H3289 0.985 . S
N3277 C3279 1.356 . S
N3277 H3282 0.984 . S
N3277 H3283 0.985 . S
C3278 C3272 1.379 . S
C3278 C3275 1.363 . S
C3278 N3276 1.356 . S
C3279 C3273 1.363 . S
C3279 C3274 1.379 . S
C3279 N3277 1.356 . S
N3280 C3272 1.356 . S
N3280 H3286 0.984 . S
N3280 H3287 0.984 . S
N3281 C3274 1.356 . S
N3281 H3284 0.984 . S
N3281 H3285 0.985 . S
H3282 N3277 0.984 . S
H3283 N3277 0.985 . S
H3284 N3281 0.984 . S
H3285 N3281 0.985 . S
H3286 N3280 0.984 . S
H3287 N3280 0.984 . S
H3288 N3276 0.984 . S
H3289 N3276 0.985 . S
C3290 C3291 1.363 . S
C3290 C3296 1.379 . S
C3290 N3298 1.356 . S
C3291 C3290 1.363 . S
C3291 C3297 1.363 . S
C3292 C3293 1.363 . S
C3292 C3297 1.379 . S
C3292 N3299 1.356 . S
C3293 C3292 1.363 . S
C3293 C3296 1.363 . S
N3294 C3296 1.356 . S
N3294 H3306 0.984 . S
N3294 H3307 0.985 . S
N3295 C3297 1.356 . S
N3295 H3300 0.984 . S
N3295 H3301 0.985 . S
C3296 C3290 1.379 . S
C3296 C3293 1.363 . S
C3296 N3294 1.356 . S
C3297 C3291 1.363 . S
C3297 C3292 1.379 . S
C3297 N3295 1.356 . S
N3298 C3290 1.356 . S
N3298 H3304 0.984 . S
N3298 H3305 0.984 . S
N3299 C3292 1.356 . S
N3299 H3302 0.984 . S
N3299 H3303 0.985 . S
H3300 N3295 0.984 . S
H3301 N3295 0.985 . S
H3302 N3299 0.984 . S
H3303 N3299 0.985 . S
H3304 N3298 0.984 . S
H3305 N3298 0.984 . S
H3306 N3294 0.984 . S
H3307 N3294 0.985 . S
C3308 C3309 1.363 . S
C3308 C3314 1.379 . S
C3308 N3316 1.356 . S
C3309 C3308 1.363 . S
C3309 C3315 1.363 . S
C3310 C3311 1.363 . S
C3310 C3315 1.379 . S
C3310 N3317 1.356 . S
C3311 C3310 1.363 . S
C3311 C3314 1.363 . S
N3312 C3314 1.356 . S
N3312 H3324 0.984 . S
N3312 H3325 0.985 . S
N3313 C3315 1.356 . S
N3313 H3318 0.984 . S
N3313 H3319 0.985 . S
C3314 C3308 1.379 . S
C3314 C3311 1.363 . S
C3314 N3312 1.356 . S
C3315 C3309 1.363 . S
C3315 C3310 1.379 . S
C3315 N3313 1.356 . S
N3316 C3308 1.356 . S
N3316 H3322 0.984 . S
N3316 H3323 0.984 . S
N3317 C3310 1.356 . S
N3317 H3320 0.984 . S
N3317 H3321 0.985 . S
H3318 N3313 0.984 . S
H3319 N3313 0.985 . S
H3320 N3317 0.984 . S
H3321 N3317 0.985 . S
H3322 N3316 0.984 . S
H3323 N3316 0.984 . S
H3324 N3312 0.984 . S
H3325 N3312 0.985 . S
C3326 C3327 1.363 . S
C3326 C3332 1.379 . S
C3326 N3334 1.356 . S
C3327 C3326 1.363 . S
C3327 C3333 1.363 . S
C3328 C3329 1.363 . S
C3328 C3333 1.379 . S
C3328 N3335 1.356 . S
C3329 C3328 1.363 . S
C3329 C3332 1.363 . S
N3330 C3332 1.356 . S
N3330 H3342 0.984 . S
N3330 H3343 0.985 . S
N3331 C3333 1.356 . S
N3331 H3336 0.984 . S
N3331 H3337 0.985 . S
C3332 C3326 1.379 . S
C3332 C3329 1.363 . S
C3332 N3330 1.356 . S
C3333 C3327 1.363 . S
C3333 C3328 1.379 . S
C3333 N3331 1.356 . S
N3334 C3326 1.356 . S
N3334 H3340 0.984 . S
N3334 H3341 0.984 . S
N3335 C3328 1.356 . S
N3335 H3338 0.984 . S
N3335 H3339 0.985 . S
H3336 N3331 0.984 . S
H3337 N3331 0.985 . S
H3338 N3335 0.984 . S
H3339 N3335 0.985 . S
H3340 N3334 0.984 . S
H3341 N3334 0.984 . S
H3342 N3330 0.984 . S
H3343 N3330 0.985 . S
C3344 C3345 1.363 . S
C3344 C3350 1.379 . S
C3344 N3352 1.356 . S
C3345 C3344 1.363 . S
C3345 C3351 1.363 . S
C3346 C3347 1.363 . S
C3346 C3351 1.379 . S
C3346 N3353 1.356 . S
C3347 C3346 1.363 . S
C3347 C3350 1.363 . S
N3348 C3350 1.356 . S
N3348 H3360 0.984 . S
N3348 H3361 0.985 . S
N3349 C3351 1.356 . S
N3349 H3354 0.984 . S
N3349 H3355 0.985 . S
C3350 C3344 1.379 . S
C3350 C3347 1.363 . S
C3350 N3348 1.356 . S
C3351 C3345 1.363 . S
C3351 C3346 1.379 . S
C3351 N3349 1.356 . S
N3352 C3344 1.356 . S
N3352 H3358 0.984 . S
N3352 H3359 0.984 . S
N3353 C3346 1.356 . S
N3353 H3356 0.984 . S
N3353 H3357 0.985 . S
H3354 N3349 0.984 . S
H3355 N3349 0.985 . S
H3356 N3353 0.984 . S
H3357 N3353 0.985 . S
H3358 N3352 0.984 . S
H3359 N3352 0.984 . S
H3360 N3348 0.984 . S
H3361 N3348 0.985 . S
C3362 C3363 1.363 . S
C3362 C3368 1.379 . S
C3362 N3370 1.356 . S
C3363 C3362 1.363 . S
C3363 C3369 1.363 . S
C3364 C3365 1.363 . S
C3364 C3369 1.379 . S
C3364 N3371 1.356 . S
C3365 C3364 1.363 . S
C3365 C3368 1.363 . S
N3366 C3368 1.356 . S
N3366 H3378 0.984 . S
N3366 H3379 0.985 . S
N3367 C3369 1.356 . S
N3367 H3372 0.984 . S
N3367 H3373 0.985 . S
C3368 C3362 1.379 . S
C3368 C3365 1.363 . S
C3368 N3366 1.356 . S
C3369 C3363 1.363 . S
C3369 C3364 1.379 . S
C3369 N3367 1.356 . S
N3370 C3362 1.356 . S
N3370 H3376 0.984 . S
N3370 H3377 0.984 . S
N3371 C3364 1.356 . S
N3371 H3374 0.984 . S
N3371 H3375 0.985 . S
H3372 N3367 0.984 . S
H3373 N3367 0.985 . S
H3374 N3371 0.984 . S
H3375 N3371 0.985 . S
H3376 N3370 0.984 . S
H3377 N3370 0.984 . S
H3378 N3366 0.984 . S
H3379 N3366 0.985 . S
C3380 C3381 1.363 . S
C3380 C3386 1.379 . S
C3380 N3388 1.356 . S
C3381 C3380 1.363 . S
C3381 C3387 1.363 . S
C3382 C3383 1.363 . S
C3382 C3387 1.379 . S
C3382 N3389 1.356 . S
C3383 C3382 1.363 . S
C3383 C3386 1.363 . S
N3384 C3386 1.356 . S
N3384 H3396 0.984 . S
N3384 H3397 0.985 . S
N3385 C3387 1.356 . S
N3385 H3390 0.984 . S
N3385 H3391 0.985 . S
C3386 C3380 1.379 . S
C3386 C3383 1.363 . S
C3386 N3384 1.356 . S
C3387 C3381 1.363 . S
C3387 C3382 1.379 . S
C3387 N3385 1.356 . S
N3388 C3380 1.356 . S
N3388 H3394 0.984 . S
N3388 H3395 0.984 . S
N3389 C3382 1.356 . S
N3389 H3392 0.984 . S
N3389 H3393 0.985 . S
H3390 N3385 0.984 . S
H3391 N3385 0.985 . S
H3392 N3389 0.984 . S
H3393 N3389 0.985 . S
H3394 N3388 0.984 . S
H3395 N3388 0.984 . S
H3396 N3384 0.984 . S
H3397 N3384 0.985 . S
C3398 C3399 1.363 . S
C3398 C3404 1.379 . S
C3398 N3406 1.356 . S
C3399 C3398 1.363 . S
C3399 C3405 1.363 . S
C3400 C3401 1.363 . S
C3400 C3405 1.379 . S
C3400 N3407 1.356 . S
C3401 C3400 1.363 . S
C3401 C3404 1.363 . S
N3402 C3404 1.356 . S
N3402 H3414 0.984 . S
N3402 H3415 0.985 . S
N3403 C3405 1.356 . S
N3403 H3408 0.984 . S
N3403 H3409 0.985 . S
C3404 C3398 1.379 . S
C3404 C3401 1.363 . S
C3404 N3402 1.356 . S
C3405 C3399 1.363 . S
C3405 C3400 1.379 . S
C3405 N3403 1.356 . S
N3406 C3398 1.356 . S
N3406 H3412 0.984 . S
N3406 H3413 0.984 . S
N3407 C3400 1.356 . S
N3407 H3410 0.984 . S
N3407 H3411 0.985 . S
H3408 N3403 0.984 . S
H3409 N3403 0.985 . S
H3410 N3407 0.984 . S
H3411 N3407 0.985 . S
H3412 N3406 0.984 . S
H3413 N3406 0.984 . S
H3414 N3402 0.984 . S
H3415 N3402 0.985 . S
C3416 C3417 1.363 . S
C3416 C3422 1.379 . S
C3416 N3424 1.356 . S
C3417 C3416 1.363 . S
C3417 C3423 1.363 . S
C3418 C3419 1.363 . S
C3418 C3423 1.379 . S
C3418 N3425 1.356 . S
C3419 C3418 1.363 . S
C3419 C3422 1.363 . S
N3420 C3422 1.356 . S
N3420 H3432 0.984 . S
N3420 H3433 0.985 . S
N3421 C3423 1.356 . S
N3421 H3426 0.984 . S
N3421 H3427 0.985 . S
C3422 C3416 1.379 . S
C3422 C3419 1.363 . S
C3422 N3420 1.356 . S
C3423 C3417 1.363 . S
C3423 C3418 1.379 . S
C3423 N3421 1.356 . S
N3424 C3416 1.356 . S
N3424 H3430 0.984 . S
N3424 H3431 0.984 . S
N3425 C3418 1.356 . S
N3425 H3428 0.984 . S
N3425 H3429 0.985 . S
H3426 N3421 0.984 . S
H3427 N3421 0.985 . S
H3428 N3425 0.984 . S
H3429 N3425 0.985 . S
H3430 N3424 0.984 . S
H3431 N3424 0.984 . S
H3432 N3420 0.984 . S
H3433 N3420 0.985 . S
C3434 C3435 1.363 . S
C3434 C3440 1.379 . S
C3434 N3442 1.356 . S
C3435 C3434 1.363 . S
C3435 C3441 1.363 . S
C3436 C3437 1.363 . S
C3436 C3441 1.379 . S
C3436 N3443 1.356 . S
C3437 C3436 1.363 . S
C3437 C3440 1.363 . S
N3438 C3440 1.356 . S
N3438 H3450 0.984 . S
N3438 H3451 0.985 . S
N3439 C3441 1.356 . S
N3439 H3444 0.984 . S
N3439 H3445 0.985 . S
C3440 C3434 1.379 . S
C3440 C3437 1.363 . S
C3440 N3438 1.356 . S
C3441 C3435 1.363 . S
C3441 C3436 1.379 . S
C3441 N3439 1.356 . S
N3442 C3434 1.356 . S
N3442 H3448 0.984 . S
N3442 H3449 0.984 . S
N3443 C3436 1.356 . S
N3443 H3446 0.984 . S
N3443 H3447 0.985 . S
H3444 N3439 0.984 . S
H3445 N3439 0.985 . S
H3446 N3443 0.984 . S
H3447 N3443 0.985 . S
H3448 N3442 0.984 . S
H3449 N3442 0.984 . S
H3450 N3438 0.984 . S
H3451 N3438 0.985 . S
C3452 C3453 1.363 . S
C3452 C3458 1.379 . S
C3452 N3460 1.356 . S
C3453 C3452 1.363 . S
C3453 C3459 1.363 . S
C3454 C3455 1.363 . S
C3454 C3459 1.379 . S
C3454 N3461 1.356 . S
C3455 C3454 1.363 . S
C3455 C3458 1.363 . S
N3456 C3458 1.356 . S
N3456 H3468 0.984 . S
N3456 H3469 0.985 . S
N3457 C3459 1.356 . S
N3457 H3462 0.984 . S
N3457 H3463 0.985 . S
C3458 C3452 1.379 . S
C3458 C3455 1.363 . S
C3458 N3456 1.356 . S
C3459 C3453 1.363 . S
C3459 C3454 1.379 . S
C3459 N3457 1.356 . S
N3460 C3452 1.356 . S
N3460 H3466 0.984 . S
N3460 H3467 0.984 . S
N3461 C3454 1.356 . S
N3461 H3464 0.984 . S
N3461 H3465 0.985 . S
H3462 N3457 0.984 . S
H3463 N3457 0.985 . S
H3464 N3461 0.984 . S
H3465 N3461 0.985 . S
H3466 N3460 0.984 . S
H3467 N3460 0.984 . S
H3468 N3456 0.984 . S
H3469 N3456 0.985 . S
C3470 C3471 1.363 . S
C3470 C3476 1.379 . S
C3470 N3478 1.356 . S
C3471 C3470 1.363 . S
C3471 C3477 1.363 . S
C3472 C3473 1.363 . S
C3472 C3477 1.379 . S
C3472 N3479 1.356 . S
C3473 C3472 1.363 . S
C3473 C3476 1.363 . S
N3474 C3476 1.356 . S
N3474 H3486 0.984 . S
N3474 H3487 0.985 . S
N3475 C3477 1.356 . S
N3475 H3480 0.984 . S
N3475 H3481 0.985 . S
C3476 C3470 1.379 . S
C3476 C3473 1.363 . S
C3476 N3474 1.356 . S
C3477 C3471 1.363 . S
C3477 C3472 1.379 . S
C3477 N3475 1.356 . S
N3478 C3470 1.356 . S
N3478 H3484 0.984 . S
N3478 H3485 0.984 . S
N3479 C3472 1.356 . S
N3479 H3482 0.984 . S
N3479 H3483 0.985 . S
H3480 N3475 0.984 . S
H3481 N3475 0.985 . S
H3482 N3479 0.984 . S
H3483 N3479 0.985 . S
H3484 N3478 0.984 . S
H3485 N3478 0.984 . S
H3486 N3474 0.984 . S
H3487 N3474 0.985 . S
C3488 C3489 1.363 . S
C3488 C3494 1.379 . S
C3488 N3496 1.356 . S
C3489 C3488 1.363 . S
C3489 C3495 1.363 . S
C3490 C3491 1.363 . S
C3490 C3495 1.379 . S
C3490 N3497 1.356 . S
C3491 C3490 1.363 . S
C3491 C3494 1.363 . S
N3492 C3494 1.356 . S
N3492 H3504 0.984 . S
N3492 H3505 0.985 . S
N3493 C3495 1.356 . S
N3493 H3498 0.984 . S
N3493 H3499 0.985 . S
C3494 C3488 1.379 . S
C3494 C3491 1.363 . S
C3494 N3492 1.356 . S
C3495 C3489 1.363 . S
C3495 C3490 1.379 . S
C3495 N3493 1.356 . S
N3496 C3488 1.356 . S
N3496 H3502 0.984 . S
N3496 H3503 0.984 . S
N3497 C3490 1.356 . S
N3497 H3500 0.984 . S
N3497 H3501 0.985 . S
H3498 N3493 0.984 . S
H3499 N3493 0.985 . S
H3500 N3497 0.984 . S
H3501 N3497 0.985 . S
H3502 N3496 0.984 . S
H3503 N3496 0.984 . S
H3504 N3492 0.984 . S
H3505 N3492 0.985 . S
C3506 C3507 1.363 . S
C3506 C3512 1.379 . S
C3506 N3514 1.356 . S
C3507 C3506 1.363 . S
C3507 C3513 1.363 . S
C3508 C3509 1.363 . S
C3508 C3513 1.379 . S
C3508 N3515 1.356 . S
C3509 C3508 1.363 . S
C3509 C3512 1.363 . S
N3510 C3512 1.356 . S
N3510 H3522 0.984 . S
N3510 H3523 0.985 . S
N3511 C3513 1.356 . S
N3511 H3516 0.984 . S
N3511 H3517 0.985 . S
C3512 C3506 1.379 . S
C3512 C3509 1.363 . S
C3512 N3510 1.356 . S
C3513 C3507 1.363 . S
C3513 C3508 1.379 . S
C3513 N3511 1.356 . S
N3514 C3506 1.356 . S
N3514 H3520 0.984 . S
N3514 H3521 0.984 . S
N3515 C3508 1.356 . S
N3515 H3518 0.984 . S
N3515 H3519 0.985 . S
H3516 N3511 0.984 . S
H3517 N3511 0.985 . S
H3518 N3515 0.984 . S
H3519 N3515 0.985 . S
H3520 N3514 0.984 . S
H3521 N3514 0.984 . S
H3522 N3510 0.984 . S
H3523 N3510 0.985 . S
C3524 C3525 1.363 . S
C3524 C3530 1.379 . S
C3524 N3532 1.356 . S
C3525 C3524 1.363 . S
C3525 C3531 1.363 . S
C3526 C3527 1.363 . S
C3526 C3531 1.379 . S
C3526 N3533 1.356 . S
C3527 C3526 1.363 . S
C3527 C3530 1.363 . S
N3528 C3530 1.356 . S
N3528 H3540 0.984 . S
N3528 H3541 0.985 . S
N3529 C3531 1.356 . S
N3529 H3534 0.984 . S
N3529 H3535 0.985 . S
C3530 C3524 1.379 . S
C3530 C3527 1.363 . S
C3530 N3528 1.356 . S
C3531 C3525 1.363 . S
C3531 C3526 1.379 . S
C3531 N3529 1.356 . S
N3532 C3524 1.356 . S
N3532 H3538 0.984 . S
N3532 H3539 0.984 . S
N3533 C3526 1.356 . S
N3533 H3536 0.984 . S
N3533 H3537 0.985 . S
H3534 N3529 0.984 . S
H3535 N3529 0.985 . S
H3536 N3533 0.984 . S
H3537 N3533 0.985 . S
H3538 N3532 0.984 . S
H3539 N3532 0.984 . S
H3540 N3528 0.984 . S
H3541 N3528 0.985 . S
C3542 C3543 1.363 . S
C3542 C3548 1.379 . S
C3542 N3550 1.356 . S
C3543 C3542 1.363 . S
C3543 C3549 1.363 . S
C3544 C3545 1.363 . S
C3544 C3549 1.379 . S
C3544 N3551 1.356 . S
C3545 C3544 1.363 . S
C3545 C3548 1.363 . S
N3546 C3548 1.356 . S
N3546 H3558 0.984 . S
N3546 H3559 0.985 . S
N3547 C3549 1.356 . S
N3547 H3552 0.984 . S
N3547 H3553 0.985 . S
C3548 C3542 1.379 . S
C3548 C3545 1.363 . S
C3548 N3546 1.356 . S
C3549 C3543 1.363 . S
C3549 C3544 1.379 . S
C3549 N3547 1.356 . S
N3550 C3542 1.356 . S
N3550 H3556 0.984 . S
N3550 H3557 0.984 . S
N3551 C3544 1.356 . S
N3551 H3554 0.984 . S
N3551 H3555 0.985 . S
H3552 N3547 0.984 . S
H3553 N3547 0.985 . S
H3554 N3551 0.984 . S
H3555 N3551 0.985 . S
H3556 N3550 0.984 . S
H3557 N3550 0.984 . S
H3558 N3546 0.984 . S
H3559 N3546 0.985 . S
C3560 C3561 1.363 . S
C3560 C3566 1.379 . S
C3560 N3568 1.356 . S
C3561 C3560 1.363 . S
C3561 C3567 1.363 . S
C3562 C3563 1.363 . S
C3562 C3567 1.379 . S
C3562 N3569 1.356 . S
C3563 C3562 1.363 . S
C3563 C3566 1.363 . S
N3564 C3566 1.356 . S
N3564 H3576 0.984 . S
N3564 H3577 0.985 . S
N3565 C3567 1.356 . S
N3565 H3570 0.984 . S
N3565 H3571 0.985 . S
C3566 C3560 1.379 . S
C3566 C3563 1.363 . S
C3566 N3564 1.356 . S
C3567 C3561 1.363 . S
C3567 C3562 1.379 . S
C3567 N3565 1.356 . S
N3568 C3560 1.356 . S
N3568 H3574 0.984 . S
N3568 H3575 0.984 . S
N3569 C3562 1.356 . S
N3569 H3572 0.984 . S
N3569 H3573 0.985 . S
H3570 N3565 0.984 . S
H3571 N3565 0.985 . S
H3572 N3569 0.984 . S
H3573 N3569 0.985 . S
H3574 N3568 0.984 . S
H3575 N3568 0.984 . S
H3576 N3564 0.984 . S
H3577 N3564 0.985 . S
C3578 C3579 1.363 . S
C3578 C3584 1.379 . S
C3578 N3586 1.356 . S
C3579 C3578 1.363 . S
C3579 C3585 1.363 . S
C3580 C3581 1.363 . S
C3580 C3585 1.379 . S
C3580 N3587 1.356 . S
C3581 C3580 1.363 . S
C3581 C3584 1.363 . S
N3582 C3584 1.356 . S
N3582 H3594 0.984 . S
N3582 H3595 0.985 . S
N3583 C3585 1.356 . S
N3583 H3588 0.984 . S
N3583 H3589 0.985 . S
C3584 C3578 1.379 . S
C3584 C3581 1.363 . S
C3584 N3582 1.356 . S
C3585 C3579 1.363 . S
C3585 C3580 1.379 . S
C3585 N3583 1.356 . S
N3586 C3578 1.356 . S
N3586 H3592 0.984 . S
N3586 H3593 0.984 . S
N3587 C3580 1.356 . S
N3587 H3590 0.984 . S
N3587 H3591 0.985 . S
H3588 N3583 0.984 . S
H3589 N3583 0.985 . S
H3590 N3587 0.984 . S
H3591 N3587 0.985 . S
H3592 N3586 0.984 . S
H3593 N3586 0.984 . S
H3594 N3582 0.984 . S
H3595 N3582 0.985 . S
C3596 C3597 1.363 . S
C3596 C3602 1.379 . S
C3596 N3604 1.356 . S
C3597 C3596 1.363 . S
C3597 C3603 1.363 . S
C3598 C3599 1.363 . S
C3598 C3603 1.379 . S
C3598 N3605 1.356 . S
C3599 C3598 1.363 . S
C3599 C3602 1.363 . S
N3600 C3602 1.356 . S
N3600 H3612 0.984 . S
N3600 H3613 0.985 . S
N3601 C3603 1.356 . S
N3601 H3606 0.984 . S
N3601 H3607 0.985 . S
C3602 C3596 1.379 . S
C3602 C3599 1.363 . S
C3602 N3600 1.356 . S
C3603 C3597 1.363 . S
C3603 C3598 1.379 . S
C3603 N3601 1.356 . S
N3604 C3596 1.356 . S
N3604 H3610 0.984 . S
N3604 H3611 0.984 . S
N3605 C3598 1.356 . S
N3605 H3608 0.984 . S
N3605 H3609 0.985 . S
H3606 N3601 0.984 . S
H3607 N3601 0.985 . S
H3608 N3605 0.984 . S
H3609 N3605 0.985 . S
H3610 N3604 0.984 . S
H3611 N3604 0.984 . S
H3612 N3600 0.984 . S
H3613 N3600 0.985 . S
C3614 C3615 1.363 . S
C3614 C3620 1.379 . S
C3614 N3622 1.356 . S
C3615 C3614 1.363 . S
C3615 C3621 1.363 . S
C3616 C3617 1.363 . S
C3616 C3621 1.379 . S
C3616 N3623 1.356 . S
C3617 C3616 1.363 . S
C3617 C3620 1.363 . S
N3618 C3620 1.356 . S
N3618 H3630 0.984 . S
N3618 H3631 0.985 . S
N3619 C3621 1.356 . S
N3619 H3624 0.984 . S
N3619 H3625 0.985 . S
C3620 C3614 1.379 . S
C3620 C3617 1.363 . S
C3620 N3618 1.356 . S
C3621 C3615 1.363 . S
C3621 C3616 1.379 . S
C3621 N3619 1.356 . S
N3622 C3614 1.356 . S
N3622 H3628 0.984 . S
N3622 H3629 0.984 . S
N3623 C3616 1.356 . S
N3623 H3626 0.984 . S
N3623 H3627 0.985 . S
H3624 N3619 0.984 . S
H3625 N3619 0.985 . S
H3626 N3623 0.984 . S
H3627 N3623 0.985 . S
H3628 N3622 0.984 . S
H3629 N3622 0.984 . S
H3630 N3618 0.984 . S
H3631 N3618 0.985 . S
C3632 C3633 1.363 . S
C3632 C3638 1.379 . S
C3632 N3640 1.356 . S
C3633 C3632 1.363 . S
C3633 C3639 1.363 . S
C3634 C3635 1.363 . S
C3634 C3639 1.379 . S
C3634 N3641 1.356 . S
C3635 C3634 1.363 . S
C3635 C3638 1.363 . S
N3636 C3638 1.356 . S
N3636 H3648 0.984 . S
N3636 H3649 0.985 . S
N3637 C3639 1.356 . S
N3637 H3642 0.984 . S
N3637 H3643 0.985 . S
C3638 C3632 1.379 . S
C3638 C3635 1.363 . S
C3638 N3636 1.356 . S
C3639 C3633 1.363 . S
C3639 C3634 1.379 . S
C3639 N3637 1.356 . S
N3640 C3632 1.356 . S
N3640 H3646 0.984 . S
N3640 H3647 0.984 . S
N3641 C3634 1.356 . S
N3641 H3644 0.984 . S
N3641 H3645 0.985 . S
H3642 N3637 0.984 . S
H3643 N3637 0.985 . S
H3644 N3641 0.984 . S
H3645 N3641 0.985 . S
H3646 N3640 0.984 . S
H3647 N3640 0.984 . S
H3648 N3636 0.984 . S
H3649 N3636 0.985 . S
C3650 C3651 1.363 . S
C3650 C3656 1.379 . S
C3650 N3658 1.356 . S
C3651 C3650 1.363 . S
C3651 C3657 1.363 . S
C3652 C3653 1.363 . S
C3652 C3657 1.379 . S
C3652 N3659 1.356 . S
C3653 C3652 1.363 . S
C3653 C3656 1.363 . S
N3654 C3656 1.356 . S
N3654 H3666 0.984 . S
N3654 H3667 0.985 . S
N3655 C3657 1.356 . S
N3655 H3660 0.984 . S
N3655 H3661 0.985 . S
C3656 C3650 1.379 . S
C3656 C3653 1.363 . S
C3656 N3654 1.356 . S
C3657 C3651 1.363 . S
C3657 C3652 1.379 . S
C3657 N3655 1.356 . S
N3658 C3650 1.356 . S
N3658 H3664 0.984 . S
N3658 H3665 0.984 . S
N3659 C3652 1.356 . S
N3659 H3662 0.984 . S
N3659 H3663 0.985 . S
H3660 N3655 0.984 . S
H3661 N3655 0.985 . S
H3662 N3659 0.984 . S
H3663 N3659 0.985 . S
H3664 N3658 0.984 . S
H3665 N3658 0.984 . S
H3666 N3654 0.984 . S
H3667 N3654 0.985 . S
C3668 C3669 1.363 . S
C3668 C3674 1.379 . S
C3668 N3676 1.356 . S
C3669 C3668 1.363 . S
C3669 C3675 1.363 . S
C3670 C3671 1.363 . S
C3670 C3675 1.379 . S
C3670 N3677 1.356 . S
C3671 C3670 1.363 . S
C3671 C3674 1.363 . S
N3672 C3674 1.356 . S
N3672 H3684 0.984 . S
N3672 H3685 0.985 . S
N3673 C3675 1.356 . S
N3673 H3678 0.984 . S
N3673 H3679 0.985 . S
C3674 C3668 1.379 . S
C3674 C3671 1.363 . S
C3674 N3672 1.356 . S
C3675 C3669 1.363 . S
C3675 C3670 1.379 . S
C3675 N3673 1.356 . S
N3676 C3668 1.356 . S
N3676 H3682 0.984 . S
N3676 H3683 0.984 . S
N3677 C3670 1.356 . S
N3677 H3680 0.984 . S
N3677 H3681 0.985 . S
H3678 N3673 0.984 . S
H3679 N3673 0.985 . S
H3680 N3677 0.984 . S
H3681 N3677 0.985 . S
H3682 N3676 0.984 . S
H3683 N3676 0.984 . S
H3684 N3672 0.984 . S
H3685 N3672 0.985 . S
C3686 C3687 1.363 . S
C3686 C3692 1.379 . S
C3686 N3694 1.356 . S
C3687 C3686 1.363 . S
C3687 C3693 1.363 . S
C3688 C3689 1.363 . S
C3688 C3693 1.379 . S
C3688 N3695 1.356 . S
C3689 C3688 1.363 . S
C3689 C3692 1.363 . S
N3690 C3692 1.356 . S
N3690 H3702 0.984 . S
N3690 H3703 0.985 . S
N3691 C3693 1.356 . S
N3691 H3696 0.984 . S
N3691 H3697 0.985 . S
C3692 C3686 1.379 . S
C3692 C3689 1.363 . S
C3692 N3690 1.356 . S
C3693 C3687 1.363 . S
C3693 C3688 1.379 . S
C3693 N3691 1.356 . S
N3694 C3686 1.356 . S
N3694 H3700 0.984 . S
N3694 H3701 0.984 . S
N3695 C3688 1.356 . S
N3695 H3698 0.984 . S
N3695 H3699 0.985 . S
H3696 N3691 0.984 . S
H3697 N3691 0.985 . S
H3698 N3695 0.984 . S
H3699 N3695 0.985 . S
H3700 N3694 0.984 . S
H3701 N3694 0.984 . S
H3702 N3690 0.984 . S
H3703 N3690 0.985 . S
C3704 C3705 1.363 . S
C3704 C3710 1.379 . S
C3704 N3712 1.356 . S
C3705 C3704 1.363 . S
C3705 C3711 1.363 . S
C3706 C3707 1.363 . S
C3706 C3711 1.379 . S
C3706 N3713 1.356 . S
C3707 C3706 1.363 . S
C3707 C3710 1.363 . S
N3708 C3710 1.356 . S
N3708 H3720 0.984 . S
N3708 H3721 0.985 . S
N3709 C3711 1.356 . S
N3709 H3714 0.984 . S
N3709 H3715 0.985 . S
C3710 C3704 1.379 . S
C3710 C3707 1.363 . S
C3710 N3708 1.356 . S
C3711 C3705 1.363 . S
C3711 C3706 1.379 . S
C3711 N3709 1.356 . S
N3712 C3704 1.356 . S
N3712 H3718 0.984 . S
N3712 H3719 0.984 . S
N3713 C3706 1.356 . S
N3713 H3716 0.984 . S
N3713 H3717 0.985 . S
H3714 N3709 0.984 . S
H3715 N3709 0.985 . S
H3716 N3713 0.984 . S
H3717 N3713 0.985 . S
H3718 N3712 0.984 . S
H3719 N3712 0.984 . S
H3720 N3708 0.984 . S
H3721 N3708 0.985 . S
C3722 C3723 1.363 . S
C3722 C3728 1.379 . S
C3722 N3730 1.356 . S
C3723 C3722 1.363 . S
C3723 C3729 1.363 . S
C3724 C3725 1.363 . S
C3724 C3729 1.379 . S
C3724 N3731 1.356 . S
C3725 C3724 1.363 . S
C3725 C3728 1.363 . S
N3726 C3728 1.356 . S
N3726 H3738 0.984 . S
N3726 H3739 0.985 . S
N3727 C3729 1.356 . S
N3727 H3732 0.984 . S
N3727 H3733 0.985 . S
C3728 C3722 1.379 . S
C3728 C3725 1.363 . S
C3728 N3726 1.356 . S
C3729 C3723 1.363 . S
C3729 C3724 1.379 . S
C3729 N3727 1.356 . S
N3730 C3722 1.356 . S
N3730 H3736 0.984 . S
N3730 H3737 0.984 . S
N3731 C3724 1.356 . S
N3731 H3734 0.984 . S
N3731 H3735 0.985 . S
H3732 N3727 0.984 . S
H3733 N3727 0.985 . S
H3734 N3731 0.984 . S
H3735 N3731 0.985 . S
H3736 N3730 0.984 . S
H3737 N3730 0.984 . S
H3738 N3726 0.984 . S
H3739 N3726 0.985 . S
C3740 C3741 1.363 . S
C3740 C3746 1.379 . S
C3740 N3748 1.356 . S
C3741 C3740 1.363 . S
C3741 C3747 1.363 . S
C3742 C3743 1.363 . S
C3742 C3747 1.379 . S
C3742 N3749 1.356 . S
C3743 C3742 1.363 . S
C3743 C3746 1.363 . S
N3744 C3746 1.356 . S
N3744 H3756 0.984 . S
N3744 H3757 0.985 . S
N3745 C3747 1.356 . S
N3745 H3750 0.984 . S
N3745 H3751 0.985 . S
C3746 C3740 1.379 . S
C3746 C3743 1.363 . S
C3746 N3744 1.356 . S
C3747 C3741 1.363 . S
C3747 C3742 1.379 . S
C3747 N3745 1.356 . S
N3748 C3740 1.356 . S
N3748 H3754 0.984 . S
N3748 H3755 0.984 . S
N3749 C3742 1.356 . S
N3749 H3752 0.984 . S
N3749 H3753 0.985 . S
H3750 N3745 0.984 . S
H3751 N3745 0.985 . S
H3752 N3749 0.984 . S
H3753 N3749 0.985 . S
H3754 N3748 0.984 . S
H3755 N3748 0.984 . S
H3756 N3744 0.984 . S
H3757 N3744 0.985 . S
C3758 C3759 1.363 . S
C3758 C3764 1.379 . S
C3758 N3766 1.356 . S
C3759 C3758 1.363 . S
C3759 C3765 1.363 . S
C3760 C3761 1.363 . S
C3760 C3765 1.379 . S
C3760 N3767 1.356 . S
C3761 C3760 1.363 . S
C3761 C3764 1.363 . S
N3762 C3764 1.356 . S
N3762 H3774 0.984 . S
N3762 H3775 0.985 . S
N3763 C3765 1.356 . S
N3763 H3768 0.984 . S
N3763 H3769 0.985 . S
C3764 C3758 1.379 . S
C3764 C3761 1.363 . S
C3764 N3762 1.356 . S
C3765 C3759 1.363 . S
C3765 C3760 1.379 . S
C3765 N3763 1.356 . S
N3766 C3758 1.356 . S
N3766 H3772 0.984 . S
N3766 H3773 0.984 . S
N3767 C3760 1.356 . S
N3767 H3770 0.984 . S
N3767 H3771 0.985 . S
H3768 N3763 0.984 . S
H3769 N3763 0.985 . S
H3770 N3767 0.984 . S
H3771 N3767 0.985 . S
H3772 N3766 0.984 . S
H3773 N3766 0.984 . S
H3774 N3762 0.984 . S
H3775 N3762 0.985 . S
C3776 C3777 1.363 . S
C3776 C3782 1.379 . S
C3776 N3784 1.356 . S
C3777 C3776 1.363 . S
C3777 C3783 1.363 . S
C3778 C3779 1.363 . S
C3778 C3783 1.379 . S
C3778 N3785 1.356 . S
C3779 C3778 1.363 . S
C3779 C3782 1.363 . S
N3780 C3782 1.356 . S
N3780 H3792 0.984 . S
N3780 H3793 0.985 . S
N3781 C3783 1.356 . S
N3781 H3786 0.984 . S
N3781 H3787 0.985 . S
C3782 C3776 1.379 . S
C3782 C3779 1.363 . S
C3782 N3780 1.356 . S
C3783 C3777 1.363 . S
C3783 C3778 1.379 . S
C3783 N3781 1.356 . S
N3784 C3776 1.356 . S
N3784 H3790 0.984 . S
N3784 H3791 0.984 . S
N3785 C3778 1.356 . S
N3785 H3788 0.984 . S
N3785 H3789 0.985 . S
H3786 N3781 0.984 . S
H3787 N3781 0.985 . S
H3788 N3785 0.984 . S
H3789 N3785 0.985 . S
H3790 N3784 0.984 . S
H3791 N3784 0.984 . S
H3792 N3780 0.984 . S
H3793 N3780 0.985 . S
C3794 C3795 1.363 . S
C3794 C3800 1.379 . S
C3794 N3802 1.356 . S
C3795 C3794 1.363 . S
C3795 C3801 1.363 . S
C3796 C3797 1.363 . S
C3796 C3801 1.379 . S
C3796 N3803 1.356 . S
C3797 C3796 1.363 . S
C3797 C3800 1.363 . S
N3798 C3800 1.356 . S
N3798 H3810 0.984 . S
N3798 H3811 0.985 . S
N3799 C3801 1.356 . S
N3799 H3804 0.984 . S
N3799 H3805 0.985 . S
C3800 C3794 1.379 . S
C3800 C3797 1.363 . S
C3800 N3798 1.356 . S
C3801 C3795 1.363 . S
C3801 C3796 1.379 . S
C3801 N3799 1.356 . S
N3802 C3794 1.356 . S
N3802 H3808 0.984 . S
N3802 H3809 0.984 . S
N3803 C3796 1.356 . S
N3803 H3806 0.984 . S
N3803 H3807 0.985 . S
H3804 N3799 0.984 . S
H3805 N3799 0.985 . S
H3806 N3803 0.984 . S
H3807 N3803 0.985 . S
H3808 N3802 0.984 . S
H3809 N3802 0.984 . S
H3810 N3798 0.984 . S
H3811 N3798 0.985 . S
C3812 C3813 1.363 . S
C3812 C3818 1.379 . S
C3812 N3820 1.356 . S
C3813 C3812 1.363 . S
C3813 C3819 1.363 . S
C3814 C3815 1.363 . S
C3814 C3819 1.379 . S
C3814 N3821 1.356 . S
C3815 C3814 1.363 . S
C3815 C3818 1.363 . S
N3816 C3818 1.356 . S
N3816 H3828 0.984 . S
N3816 H3829 0.985 . S
N3817 C3819 1.356 . S
N3817 H3822 0.984 . S
N3817 H3823 0.985 . S
C3818 C3812 1.379 . S
C3818 C3815 1.363 . S
C3818 N3816 1.356 . S
C3819 C3813 1.363 . S
C3819 C3814 1.379 . S
C3819 N3817 1.356 . S
N3820 C3812 1.356 . S
N3820 H3826 0.984 . S
N3820 H3827 0.984 . S
N3821 C3814 1.356 . S
N3821 H3824 0.984 . S
N3821 H3825 0.985 . S
H3822 N3817 0.984 . S
H3823 N3817 0.985 . S
H3824 N3821 0.984 . S
H3825 N3821 0.985 . S
H3826 N3820 0.984 . S
H3827 N3820 0.984 . S
H3828 N3816 0.984 . S
H3829 N3816 0.985 . S
C3830 C3831 1.363 . S
C3830 C3836 1.379 . S
C3830 N3838 1.356 . S
C3831 C3830 1.363 . S
C3831 C3837 1.363 . S
C3832 C3833 1.363 . S
C3832 C3837 1.379 . S
C3832 N3839 1.356 . S
C3833 C3832 1.363 . S
C3833 C3836 1.363 . S
N3834 C3836 1.356 . S
N3834 H3846 0.984 . S
N3834 H3847 0.985 . S
N3835 C3837 1.356 . S
N3835 H3840 0.984 . S
N3835 H3841 0.985 . S
C3836 C3830 1.379 . S
C3836 C3833 1.363 . S
C3836 N3834 1.356 . S
C3837 C3831 1.363 . S
C3837 C3832 1.379 . S
C3837 N3835 1.356 . S
N3838 C3830 1.356 . S
N3838 H3844 0.984 . S
N3838 H3845 0.984 . S
N3839 C3832 1.356 . S
N3839 H3842 0.984 . S
N3839 H3843 0.985 . S
H3840 N3835 0.984 . S
H3841 N3835 0.985 . S
H3842 N3839 0.984 . S
H3843 N3839 0.985 . S
H3844 N3838 0.984 . S
H3845 N3838 0.984 . S
H3846 N3834 0.984 . S
H3847 N3834 0.985 . S
C3848 C3849 1.363 . S
C3848 C3854 1.379 . S
C3848 N3856 1.356 . S
C3849 C3848 1.363 . S
C3849 C3855 1.363 . S
C3850 C3851 1.363 . S
C3850 C3855 1.379 . S
C3850 N3857 1.356 . S
C3851 C3850 1.363 . S
C3851 C3854 1.363 . S
N3852 C3854 1.356 . S
N3852 H3864 0.984 . S
N3852 H3865 0.985 . S
N3853 C3855 1.356 . S
N3853 H3858 0.984 . S
N3853 H3859 0.985 . S
C3854 C3848 1.379 . S
C3854 C3851 1.363 . S
C3854 N3852 1.356 . S
C3855 C3849 1.363 . S
C3855 C3850 1.379 . S
C3855 N3853 1.356 . S
N3856 C3848 1.356 . S
N3856 H3862 0.984 . S
N3856 H3863 0.984 . S
N3857 C3850 1.356 . S
N3857 H3860 0.984 . S
N3857 H3861 0.985 . S
H3858 N3853 0.984 . S
H3859 N3853 0.985 . S
H3860 N3857 0.984 . S
H3861 N3857 0.985 . S
H3862 N3856 0.984 . S
H3863 N3856 0.984 . S
H3864 N3852 0.984 . S
H3865 N3852 0.985 . S
C3866 C3867 1.363 . S
C3866 C3872 1.379 . S
C3866 N3874 1.356 . S
C3867 C3866 1.363 . S
C3867 C3873 1.363 . S
C3868 C3869 1.363 . S
C3868 C3873 1.379 . S
C3868 N3875 1.356 . S
C3869 C3868 1.363 . S
C3869 C3872 1.363 . S
N3870 C3872 1.356 . S
N3870 H3882 0.984 . S
N3870 H3883 0.985 . S
N3871 C3873 1.356 . S
N3871 H3876 0.984 . S
N3871 H3877 0.985 . S
C3872 C3866 1.379 . S
C3872 C3869 1.363 . S
C3872 N3870 1.356 . S
C3873 C3867 1.363 . S
C3873 C3868 1.379 . S
C3873 N3871 1.356 . S
N3874 C3866 1.356 . S
N3874 H3880 0.984 . S
N3874 H3881 0.984 . S
N3875 C3868 1.356 . S
N3875 H3878 0.984 . S
N3875 H3879 0.985 . S
H3876 N3871 0.984 . S
H3877 N3871 0.985 . S
H3878 N3875 0.984 . S
H3879 N3875 0.985 . S
H3880 N3874 0.984 . S
H3881 N3874 0.984 . S
H3882 N3870 0.984 . S
H3883 N3870 0.985 . S
C3884 C3885 1.363 . S
C3884 C3890 1.379 . S
C3884 N3892 1.356 . S
C3885 C3884 1.363 . S
C3885 C3891 1.363 . S
C3886 C3887 1.363 . S
C3886 C3891 1.379 . S
C3886 N3893 1.356 . S
C3887 C3886 1.363 . S
C3887 C3890 1.363 . S
N3888 C3890 1.356 . S
N3888 H3900 0.984 . S
N3888 H3901 0.985 . S
N3889 C3891 1.356 . S
N3889 H3894 0.984 . S
N3889 H3895 0.985 . S
C3890 C3884 1.379 . S
C3890 C3887 1.363 . S
C3890 N3888 1.356 . S
C3891 C3885 1.363 . S
C3891 C3886 1.379 . S
C3891 N3889 1.356 . S
N3892 C3884 1.356 . S
N3892 H3898 0.984 . S
N3892 H3899 0.984 . S
N3893 C3886 1.356 . S
N3893 H3896 0.984 . S
N3893 H3897 0.985 . S
H3894 N3889 0.984 . S
H3895 N3889 0.985 . S
H3896 N3893 0.984 . S
H3897 N3893 0.985 . S
H3898 N3892 0.984 . S
H3899 N3892 0.984 . S
H3900 N3888 0.984 . S
H3901 N3888 0.985 . S
C3902 C3903 1.363 . S
C3902 C3908 1.379 . S
C3902 N3910 1.356 . S
C3903 C3902 1.363 . S
C3903 C3909 1.363 . S
C3904 C3905 1.363 . S
C3904 C3909 1.379 . S
C3904 N3911 1.356 . S
C3905 C3904 1.363 . S
C3905 C3908 1.363 . S
N3906 C3908 1.356 . S
N3906 H3918 0.984 . S
N3906 H3919 0.985 . S
N3907 C3909 1.356 . S
N3907 H3912 0.984 . S
N3907 H3913 0.985 . S
C3908 C3902 1.379 . S
C3908 C3905 1.363 . S
C3908 N3906 1.356 . S
C3909 C3903 1.363 . S
C3909 C3904 1.379 . S
C3909 N3907 1.356 . S
N3910 C3902 1.356 . S
N3910 H3916 0.984 . S
N3910 H3917 0.984 . S
N3911 C3904 1.356 . S
N3911 H3914 0.984 . S
N3911 H3915 0.985 . S
H3912 N3907 0.984 . S
H3913 N3907 0.985 . S
H3914 N3911 0.984 . S
H3915 N3911 0.985 . S
H3916 N3910 0.984 . S
H3917 N3910 0.984 . S
H3918 N3906 0.984 . S
H3919 N3906 0.985 . S
C3920 C3921 1.363 . S
C3920 C3926 1.379 . S
C3920 N3928 1.356 . S
C3921 C3920 1.363 . S
C3921 C3927 1.363 . S
C3922 C3923 1.363 . S
C3922 C3927 1.379 . S
C3922 N3929 1.356 . S
C3923 C3922 1.363 . S
C3923 C3926 1.363 . S
N3924 C3926 1.356 . S
N3924 H3936 0.984 . S
N3924 H3937 0.985 . S
N3925 C3927 1.356 . S
N3925 H3930 0.984 . S
N3925 H3931 0.985 . S
C3926 C3920 1.379 . S
C3926 C3923 1.363 . S
C3926 N3924 1.356 . S
C3927 C3921 1.363 . S
C3927 C3922 1.379 . S
C3927 N3925 1.356 . S
N3928 C3920 1.356 . S
N3928 H3934 0.984 . S
N3928 H3935 0.984 . S
N3929 C3922 1.356 . S
N3929 H3932 0.984 . S
N3929 H3933 0.985 . S
H3930 N3925 0.984 . S
H3931 N3925 0.985 . S
H3932 N3929 0.984 . S
H3933 N3929 0.985 . S
H3934 N3928 0.984 . S
H3935 N3928 0.984 . S
H3936 N3924 0.984 . S
H3937 N3924 0.985 . S
C3938 C3939 1.363 . S
C3938 C3944 1.379 . S
C3938 N3946 1.356 . S
C3939 C3938 1.363 . S
C3939 C3945 1.363 . S
C3940 C3941 1.363 . S
C3940 C3945 1.379 . S
C3940 N3947 1.356 . S
C3941 C3940 1.363 . S
C3941 C3944 1.363 . S
N3942 C3944 1.356 . S
N3942 H3954 0.984 . S
N3942 H3955 0.985 . S
N3943 C3945 1.356 . S
N3943 H3948 0.984 . S
N3943 H3949 0.985 . S
C3944 C3938 1.379 . S
C3944 C3941 1.363 . S
C3944 N3942 1.356 . S
C3945 C3939 1.363 . S
C3945 C3940 1.379 . S
C3945 N3943 1.356 . S
N3946 C3938 1.356 . S
N3946 H3952 0.984 . S
N3946 H3953 0.984 . S
N3947 C3940 1.356 . S
N3947 H3950 0.984 . S
N3947 H3951 0.985 . S
H3948 N3943 0.984 . S
H3949 N3943 0.985 . S
H3950 N3947 0.984 . S
H3951 N3947 0.985 . S
H3952 N3946 0.984 . S
H3953 N3946 0.984 . S
H3954 N3942 0.984 . S
H3955 N3942 0.985 . S
C3956 C3957 1.363 . S
C3956 C3962 1.379 . S
C3956 N3964 1.356 . S
C3957 C3956 1.363 . S
C3957 C3963 1.363 . S
C3958 C3959 1.363 . S
C3958 C3963 1.379 . S
C3958 N3965 1.356 . S
C3959 C3958 1.363 . S
C3959 C3962 1.363 . S
N3960 C3962 1.356 . S
N3960 H3972 0.984 . S
N3960 H3973 0.985 . S
N3961 C3963 1.356 . S
N3961 H3966 0.984 . S
N3961 H3967 0.985 . S
C3962 C3956 1.379 . S
C3962 C3959 1.363 . S
C3962 N3960 1.356 . S
C3963 C3957 1.363 . S
C3963 C3958 1.379 . S
C3963 N3961 1.356 . S
N3964 C3956 1.356 . S
N3964 H3970 0.984 . S
N3964 H3971 0.984 . S
N3965 C3958 1.356 . S
N3965 H3968 0.984 . S
N3965 H3969 0.985 . S
H3966 N3961 0.984 . S
H3967 N3961 0.985 . S
H3968 N3965 0.984 . S
H3969 N3965 0.985 . S
H3970 N3964 0.984 . S
H3971 N3964 0.984 . S
H3972 N3960 0.984 . S
H3973 N3960 0.985 . S
C3974 C3975 1.363 . S
C3974 C3980 1.379 . S
C3974 N3982 1.356 . S
C3975 C3974 1.363 . S
C3975 C3981 1.363 . S
C3976 C3977 1.363 . S
C3976 C3981 1.379 . S
C3976 N3983 1.356 . S
C3977 C3976 1.363 . S
C3977 C3980 1.363 . S
N3978 C3980 1.356 . S
N3978 H3990 0.984 . S
N3978 H3991 0.985 . S
N3979 C3981 1.356 . S
N3979 H3984 0.984 . S
N3979 H3985 0.985 . S
C3980 C3974 1.379 . S
C3980 C3977 1.363 . S
C3980 N3978 1.356 . S
C3981 C3975 1.363 . S
C3981 C3976 1.379 . S
C3981 N3979 1.356 . S
N3982 C3974 1.356 . S
N3982 H3988 0.984 . S
N3982 H3989 0.984 . S
N3983 C3976 1.356 . S
N3983 H3986 0.984 . S
N3983 H3987 0.985 . S
H3984 N3979 0.984 . S
H3985 N3979 0.985 . S
H3986 N3983 0.984 . S
H3987 N3983 0.985 . S
H3988 N3982 0.984 . S
H3989 N3982 0.984 . S
H3990 N3978 0.984 . S
H3991 N3978 0.985 . S
C3992 C3993 1.363 . S
C3992 C3998 1.379 . S
C3992 N4000 1.356 . S
C3993 C3992 1.363 . S
C3993 C3999 1.363 . S
C3994 C3995 1.363 . S
C3994 C3999 1.379 . S
C3994 N4001 1.356 . S
C3995 C3994 1.363 . S
C3995 C3998 1.363 . S
N3996 C3998 1.356 . S
N3996 H4008 0.984 . S
N3996 H4009 0.985 . S
N3997 C3999 1.356 . S
N3997 H4002 0.984 . S
N3997 H4003 0.985 . S
C3998 C3992 1.379 . S
C3998 C3995 1.363 . S
C3998 N3996 1.356 . S
C3999 C3993 1.363 . S
C3999 C3994 1.379 . S
C3999 N3997 1.356 . S
N4000 C3992 1.356 . S
N4000 H4006 0.984 . S
N4000 H4007 0.984 . S
N4001 C3994 1.356 . S
N4001 H4004 0.984 . S
N4001 H4005 0.985 . S
H4002 N3997 0.984 . S
H4003 N3997 0.985 . S
H4004 N4001 0.984 . S
H4005 N4001 0.985 . S
H4006 N4000 0.984 . S
H4007 N4000 0.984 . S
H4008 N3996 0.984 . S
H4009 N3996 0.985 . S
C4010 C4011 1.363 . S
C4010 C4016 1.379 . S
C4010 N4018 1.356 . S
C4011 C4010 1.363 . S
C4011 C4017 1.363 . S
C4012 C4013 1.363 . S
C4012 C4017 1.379 . S
C4012 N4019 1.356 . S
C4013 C4012 1.363 . S
C4013 C4016 1.363 . S
N4014 C4016 1.356 . S
N4014 H4026 0.984 . S
N4014 H4027 0.985 . S
N4015 C4017 1.356 . S
N4015 H4020 0.984 . S
N4015 H4021 0.985 . S
C4016 C4010 1.379 . S
C4016 C4013 1.363 . S
C4016 N4014 1.356 . S
C4017 C4011 1.363 . S
C4017 C4012 1.379 . S
C4017 N4015 1.356 . S
N4018 C4010 1.356 . S
N4018 H4024 0.984 . S
N4018 H4025 0.984 . S
N4019 C4012 1.356 . S
N4019 H4022 0.984 . S
N4019 H4023 0.985 . S
H4020 N4015 0.984 . S
H4021 N4015 0.985 . S
H4022 N4019 0.984 . S
H4023 N4019 0.985 . S
H4024 N4018 0.984 . S
H4025 N4018 0.984 . S
H4026 N4014 0.984 . S
H4027 N4014 0.985 . S
C4028 C4029 1.363 . S
C4028 C4034 1.379 . S
C4028 N4036 1.356 . S
C4029 C4028 1.363 . S
C4029 C4035 1.363 . S
C4030 C4031 1.363 . S
C4030 C4035 1.379 . S
C4030 N4037 1.356 . S
C4031 C4030 1.363 . S
C4031 C4034 1.363 . S
N4032 C4034 1.356 . S
N4032 H4044 0.984 . S
N4032 H4045 0.985 . S
N4033 C4035 1.356 . S
N4033 H4038 0.984 . S
N4033 H4039 0.985 . S
C4034 C4028 1.379 . S
C4034 C4031 1.363 . S
C4034 N4032 1.356 . S
C4035 C4029 1.363 . S
C4035 C4030 1.379 . S
C4035 N4033 1.356 . S
N4036 C4028 1.356 . S
N4036 H4042 0.984 . S
N4036 H4043 0.984 . S
N4037 C4030 1.356 . S
N4037 H4040 0.984 . S
N4037 H4041 0.985 . S
H4038 N4033 0.984 . S
H4039 N4033 0.985 . S
H4040 N4037 0.984 . S
H4041 N4037 0.985 . S
H4042 N4036 0.984 . S
H4043 N4036 0.984 . S
H4044 N4032 0.984 . S
H4045 N4032 0.985 . S
C4046 C4047 1.363 . S
C4046 C4052 1.379 . S
C4046 N4054 1.356 . S
C4047 C4046 1.363 . S
C4047 C4053 1.363 . S
C4048 C4049 1.363 . S
C4048 C4053 1.379 . S
C4048 N4055 1.356 . S
C4049 C4048 1.363 . S
C4049 C4052 1.363 . S
N4050 C4052 1.356 . S
N4050 H4062 0.984 . S
N4050 H4063 0.985 . S
N4051 C4053 1.356 . S
N4051 H4056 0.984 . S
N4051 H4057 0.985 . S
C4052 C4046 1.379 . S
C4052 C4049 1.363 . S
C4052 N4050 1.356 . S
C4053 C4047 1.363 . S
C4053 C4048 1.379 . S
C4053 N4051 1.356 . S
N4054 C4046 1.356 . S
N4054 H4060 0.984 . S
N4054 H4061 0.984 . S
N4055 C4048 1.356 . S
N4055 H4058 0.984 . S
N4055 H4059 0.985 . S
H4056 N4051 0.984 . S
H4057 N4051 0.985 . S
H4058 N4055 0.984 . S
H4059 N4055 0.985 . S
H4060 N4054 0.984 . S
H4061 N4054 0.984 . S
H4062 N4050 0.984 . S
H4063 N4050 0.985 . S
C4064 C4065 1.363 . S
C4064 C4070 1.379 . S
C4064 N4072 1.356 . S
C4065 C4064 1.363 . S
C4065 C4071 1.363 . S
C4066 C4067 1.363 . S
C4066 C4071 1.379 . S
C4066 N4073 1.356 . S
C4067 C4066 1.363 . S
C4067 C4070 1.363 . S
N4068 C4070 1.356 . S
N4068 H4080 0.984 . S
N4068 H4081 0.985 . S
N4069 C4071 1.356 . S
N4069 H4074 0.984 . S
N4069 H4075 0.985 . S
C4070 C4064 1.379 . S
C4070 C4067 1.363 . S
C4070 N4068 1.356 . S
C4071 C4065 1.363 . S
C4071 C4066 1.379 . S
C4071 N4069 1.356 . S
N4072 C4064 1.356 . S
N4072 H4078 0.984 . S
N4072 H4079 0.984 . S
N4073 C4066 1.356 . S
N4073 H4076 0.984 . S
N4073 H4077 0.985 . S
H4074 N4069 0.984 . S
H4075 N4069 0.985 . S
H4076 N4073 0.984 . S
H4077 N4073 0.985 . S
H4078 N4072 0.984 . S
H4079 N4072 0.984 . S
H4080 N4068 0.984 . S
H4081 N4068 0.985 . S
C4082 C4083 1.363 . S
C4082 C4088 1.379 . S
C4082 N4090 1.356 . S
C4083 C4082 1.363 . S
C4083 C4089 1.363 . S
C4084 C4085 1.363 . S
C4084 C4089 1.379 . S
C4084 N4091 1.356 . S
C4085 C4084 1.363 . S
C4085 C4088 1.363 . S
N4086 C4088 1.356 . S
N4086 H4098 0.984 . S
N4086 H4099 0.985 . S
N4087 C4089 1.356 . S
N4087 H4092 0.984 . S
N4087 H4093 0.985 . S
C4088 C4082 1.379 . S
C4088 C4085 1.363 . S
C4088 N4086 1.356 . S
C4089 C4083 1.363 . S
C4089 C4084 1.379 . S
C4089 N4087 1.356 . S
N4090 C4082 1.356 . S
N4090 H4096 0.984 . S
N4090 H4097 0.984 . S
N4091 C4084 1.356 . S
N4091 H4094 0.984 . S
N4091 H4095 0.985 . S
H4092 N4087 0.984 . S
H4093 N4087 0.985 . S
H4094 N4091 0.984 . S
H4095 N4091 0.985 . S
H4096 N4090 0.984 . S
H4097 N4090 0.984 . S
H4098 N4086 0.984 . S
H4099 N4086 0.985 . S
C4100 C4101 1.363 . S
C4100 C4106 1.379 . S
C4100 N4108 1.356 . S
C4101 C4100 1.363 . S
C4101 C4107 1.363 . S
C4102 C4103 1.363 . S
C4102 C4107 1.379 . S
C4102 N4109 1.356 . S
C4103 C4102 1.363 . S
C4103 C4106 1.363 . S
N4104 C4106 1.356 . S
N4104 H4116 0.984 . S
N4104 H4117 0.985 . S
N4105 C4107 1.356 . S
N4105 H4110 0.984 . S
N4105 H4111 0.985 . S
C4106 C4100 1.379 . S
C4106 C4103 1.363 . S
C4106 N4104 1.356 . S
C4107 C4101 1.363 . S
C4107 C4102 1.379 . S
C4107 N4105 1.356 . S
N4108 C4100 1.356 . S
N4108 H4114 0.984 . S
N4108 H4115 0.984 . S
N4109 C4102 1.356 . S
N4109 H4112 0.984 . S
N4109 H4113 0.985 . S
H4110 N4105 0.984 . S
H4111 N4105 0.985 . S
H4112 N4109 0.984 . S
H4113 N4109 0.985 . S
H4114 N4108 0.984 . S
H4115 N4108 0.984 . S
H4116 N4104 0.984 . S
H4117 N4104 0.985 . S
C4118 C4119 1.363 . S
C4118 C4124 1.379 . S
C4118 N4126 1.356 . S
C4119 C4118 1.363 . S
C4119 C4125 1.363 . S
C4120 C4121 1.363 . S
C4120 C4125 1.379 . S
C4120 N4127 1.356 . S
C4121 C4120 1.363 . S
C4121 C4124 1.363 . S
N4122 C4124 1.356 . S
N4122 H4134 0.984 . S
N4122 H4135 0.985 . S
N4123 C4125 1.356 . S
N4123 H4128 0.984 . S
N4123 H4129 0.985 . S
C4124 C4118 1.379 . S
C4124 C4121 1.363 . S
C4124 N4122 1.356 . S
C4125 C4119 1.363 . S
C4125 C4120 1.379 . S
C4125 N4123 1.356 . S
N4126 C4118 1.356 . S
N4126 H4132 0.984 . S
N4126 H4133 0.984 . S
N4127 C4120 1.356 . S
N4127 H4130 0.984 . S
N4127 H4131 0.985 . S
H4128 N4123 0.984 . S
H4129 N4123 0.985 . S
H4130 N4127 0.984 . S
H4131 N4127 0.985 . S
H4132 N4126 0.984 . S
H4133 N4126 0.984 . S
H4134 N4122 0.984 . S
H4135 N4122 0.985 . S
C4136 C4137 1.363 . S
C4136 C4142 1.379 . S
C4136 N4144 1.356 . S
C4137 C4136 1.363 . S
C4137 C4143 1.363 . S
C4138 C4139 1.363 . S
C4138 C4143 1.379 . S
C4138 N4145 1.356 . S
C4139 C4138 1.363 . S
C4139 C4142 1.363 . S
N4140 C4142 1.356 . S
N4140 H4152 0.984 . S
N4140 H4153 0.985 . S
N4141 C4143 1.356 . S
N4141 H4146 0.984 . S
N4141 H4147 0.985 . S
C4142 C4136 1.379 . S
C4142 C4139 1.363 . S
C4142 N4140 1.356 . S
C4143 C4137 1.363 . S
C4143 C4138 1.379 . S
C4143 N4141 1.356 . S
N4144 C4136 1.356 . S
N4144 H4150 0.984 . S
N4144 H4151 0.984 . S
N4145 C4138 1.356 . S
N4145 H4148 0.984 . S
N4145 H4149 0.985 . S
H4146 N4141 0.984 . S
H4147 N4141 0.985 . S
H4148 N4145 0.984 . S
H4149 N4145 0.985 . S
H4150 N4144 0.984 . S
H4151 N4144 0.984 . S
H4152 N4140 0.984 . S
H4153 N4140 0.985 . S
C4154 C4155 1.363 . S
C4154 C4160 1.379 . S
C4154 N4162 1.356 . S
C4155 C4154 1.363 . S
C4155 C4161 1.363 . S
C4156 C4157 1.363 . S
C4156 C4161 1.379 . S
C4156 N4163 1.356 . S
C4157 C4156 1.363 . S
C4157 C4160 1.363 . S
N4158 C4160 1.356 . S
N4158 H4170 0.984 . S
N4158 H4171 0.985 . S
N4159 C4161 1.356 . S
N4159 H4164 0.984 . S
N4159 H4165 0.985 . S
C4160 C4154 1.379 . S
C4160 C4157 1.363 . S
C4160 N4158 1.356 . S
C4161 C4155 1.363 . S
C4161 C4156 1.379 . S
C4161 N4159 1.356 . S
N4162 C4154 1.356 . S
N4162 H4168 0.984 . S
N4162 H4169 0.984 . S
N4163 C4156 1.356 . S
N4163 H4166 0.984 . S
N4163 H4167 0.985 . S
H4164 N4159 0.984 . S
H4165 N4159 0.985 . S
H4166 N4163 0.984 . S
H4167 N4163 0.985 . S
H4168 N4162 0.984 . S
H4169 N4162 0.984 . S
H4170 N4158 0.984 . S
H4171 N4158 0.985 . S
C4172 C4173 1.363 . S
C4172 C4178 1.379 . S
C4172 N4180 1.356 . S
C4173 C4172 1.363 . S
C4173 C4179 1.363 . S
C4174 C4175 1.363 . S
C4174 C4179 1.379 . S
C4174 N4181 1.356 . S
C4175 C4174 1.363 . S
C4175 C4178 1.363 . S
N4176 C4178 1.356 . S
N4176 H4188 0.984 . S
N4176 H4189 0.985 . S
N4177 C4179 1.356 . S
N4177 H4182 0.984 . S
N4177 H4183 0.985 . S
C4178 C4172 1.379 . S
C4178 C4175 1.363 . S
C4178 N4176 1.356 . S
C4179 C4173 1.363 . S
C4179 C4174 1.379 . S
C4179 N4177 1.356 . S
N4180 C4172 1.356 . S
N4180 H4186 0.984 . S
N4180 H4187 0.984 . S
N4181 C4174 1.356 . S
N4181 H4184 0.984 . S
N4181 H4185 0.985 . S
H4182 N4177 0.984 . S
H4183 N4177 0.985 . S
H4184 N4181 0.984 . S
H4185 N4181 0.985 . S
H4186 N4180 0.984 . S
H4187 N4180 0.984 . S
H4188 N4176 0.984 . S
H4189 N4176 0.985 . S
C4190 C4191 1.363 . S
C4190 C4196 1.379 . S
C4190 N4198 1.356 . S
C4191 C4190 1.363 . S
C4191 C4197 1.363 . S
C4192 C4193 1.363 . S
C4192 C4197 1.379 . S
C4192 N4199 1.356 . S
C4193 C4192 1.363 . S
C4193 C4196 1.363 . S
N4194 C4196 1.356 . S
N4194 H4206 0.984 . S
N4194 H4207 0.985 . S
N4195 C4197 1.356 . S
N4195 H4200 0.984 . S
N4195 H4201 0.985 . S
C4196 C4190 1.379 . S
C4196 C4193 1.363 . S
C4196 N4194 1.356 . S
C4197 C4191 1.363 . S
C4197 C4192 1.379 . S
C4197 N4195 1.356 . S
N4198 C4190 1.356 . S
N4198 H4204 0.984 . S
N4198 H4205 0.984 . S
N4199 C4192 1.356 . S
N4199 H4202 0.984 . S
N4199 H4203 0.985 . S
H4200 N4195 0.984 . S
H4201 N4195 0.985 . S
H4202 N4199 0.984 . S
H4203 N4199 0.985 . S
H4204 N4198 0.984 . S
H4205 N4198 0.984 . S
H4206 N4194 0.984 . S
H4207 N4194 0.985 . S
C4208 C4209 1.363 . S
C4208 C4214 1.379 . S
C4208 N4216 1.356 . S
C4209 C4208 1.363 . S
C4209 C4215 1.363 . S
C4210 C4211 1.363 . S
C4210 C4215 1.379 . S
C4210 N4217 1.356 . S
C4211 C4210 1.363 . S
C4211 C4214 1.363 . S
N4212 C4214 1.356 . S
N4212 H4224 0.984 . S
N4212 H4225 0.985 . S
N4213 C4215 1.356 . S
N4213 H4218 0.984 . S
N4213 H4219 0.985 . S
C4214 C4208 1.379 . S
C4214 C4211 1.363 . S
C4214 N4212 1.356 . S
C4215 C4209 1.363 . S
C4215 C4210 1.379 . S
C4215 N4213 1.356 . S
N4216 C4208 1.356 . S
N4216 H4222 0.984 . S
N4216 H4223 0.984 . S
N4217 C4210 1.356 . S
N4217 H4220 0.984 . S
N4217 H4221 0.985 . S
H4218 N4213 0.984 . S
H4219 N4213 0.985 . S
H4220 N4217 0.984 . S
H4221 N4217 0.985 . S
H4222 N4216 0.984 . S
H4223 N4216 0.984 . S
H4224 N4212 0.984 . S
H4225 N4212 0.985 . S
C4226 C4227 1.363 . S
C4226 C4232 1.379 . S
C4226 N4234 1.356 . S
C4227 C4226 1.363 . S
C4227 C4233 1.363 . S
C4228 C4229 1.363 . S
C4228 C4233 1.379 . S
C4228 N4235 1.356 . S
C4229 C4228 1.363 . S
C4229 C4232 1.363 . S
N4230 C4232 1.356 . S
N4230 H4242 0.984 . S
N4230 H4243 0.985 . S
N4231 C4233 1.356 . S
N4231 H4236 0.984 . S
N4231 H4237 0.985 . S
C4232 C4226 1.379 . S
C4232 C4229 1.363 . S
C4232 N4230 1.356 . S
C4233 C4227 1.363 . S
C4233 C4228 1.379 . S
C4233 N4231 1.356 . S
N4234 C4226 1.356 . S
N4234 H4240 0.984 . S
N4234 H4241 0.984 . S
N4235 C4228 1.356 . S
N4235 H4238 0.984 . S
N4235 H4239 0.985 . S
H4236 N4231 0.984 . S
H4237 N4231 0.985 . S
H4238 N4235 0.984 . S
H4239 N4235 0.985 . S
H4240 N4234 0.984 . S
H4241 N4234 0.984 . S
H4242 N4230 0.984 . S
H4243 N4230 0.985 . S
C4244 C4245 1.363 . S
C4244 C4250 1.379 . S
C4244 N4252 1.356 . S
C4245 C4244 1.363 . S
C4245 C4251 1.363 . S
C4246 C4247 1.363 . S
C4246 C4251 1.379 . S
C4246 N4253 1.356 . S
C4247 C4246 1.363 . S
C4247 C4250 1.363 . S
N4248 C4250 1.356 . S
N4248 H4260 0.984 . S
N4248 H4261 0.985 . S
N4249 C4251 1.356 . S
N4249 H4254 0.984 . S
N4249 H4255 0.985 . S
C4250 C4244 1.379 . S
C4250 C4247 1.363 . S
C4250 N4248 1.356 . S
C4251 C4245 1.363 . S
C4251 C4246 1.379 . S
C4251 N4249 1.356 . S
N4252 C4244 1.356 . S
N4252 H4258 0.984 . S
N4252 H4259 0.984 . S
N4253 C4246 1.356 . S
N4253 H4256 0.984 . S
N4253 H4257 0.985 . S
H4254 N4249 0.984 . S
H4255 N4249 0.985 . S
H4256 N4253 0.984 . S
H4257 N4253 0.985 . S
H4258 N4252 0.984 . S
H4259 N4252 0.984 . S
H4260 N4248 0.984 . S
H4261 N4248 0.985 . S
C4262 C4263 1.363 . S
C4262 C4268 1.379 . S
C4262 N4270 1.356 . S
C4263 C4262 1.363 . S
C4263 C4269 1.363 . S
C4264 C4265 1.363 . S
C4264 C4269 1.379 . S
C4264 N4271 1.356 . S
C4265 C4264 1.363 . S
C4265 C4268 1.363 . S
N4266 C4268 1.356 . S
N4266 H4278 0.984 . S
N4266 H4279 0.985 . S
N4267 C4269 1.356 . S
N4267 H4272 0.984 . S
N4267 H4273 0.985 . S
C4268 C4262 1.379 . S
C4268 C4265 1.363 . S
C4268 N4266 1.356 . S
C4269 C4263 1.363 . S
C4269 C4264 1.379 . S
C4269 N4267 1.356 . S
N4270 C4262 1.356 . S
N4270 H4276 0.984 . S
N4270 H4277 0.984 . S
N4271 C4264 1.356 . S
N4271 H4274 0.984 . S
N4271 H4275 0.985 . S
H4272 N4267 0.984 . S
H4273 N4267 0.985 . S
H4274 N4271 0.984 . S
H4275 N4271 0.985 . S
H4276 N4270 0.984 . S
H4277 N4270 0.984 . S
H4278 N4266 0.984 . S
H4279 N4266 0.985 . S
C4280 C4281 1.363 . S
C4280 C4286 1.379 . S
C4280 N4288 1.356 . S
C4281 C4280 1.363 . S
C4281 C4287 1.363 . S
C4282 C4283 1.363 . S
C4282 C4287 1.379 . S
C4282 N4289 1.356 . S
C4283 C4282 1.363 . S
C4283 C4286 1.363 . S
N4284 C4286 1.356 . S
N4284 H4296 0.984 . S
N4284 H4297 0.985 . S
N4285 C4287 1.356 . S
N4285 H4290 0.984 . S
N4285 H4291 0.985 . S
C4286 C4280 1.379 . S
C4286 C4283 1.363 . S
C4286 N4284 1.356 . S
C4287 C4281 1.363 . S
C4287 C4282 1.379 . S
C4287 N4285 1.356 . S
N4288 C4280 1.356 . S
N4288 H4294 0.984 . S
N4288 H4295 0.984 . S
N4289 C4282 1.356 . S
N4289 H4292 0.984 . S
N4289 H4293 0.985 . S
H4290 N4285 0.984 . S
H4291 N4285 0.985 . S
H4292 N4289 0.984 . S
H4293 N4289 0.985 . S
H4294 N4288 0.984 . S
H4295 N4288 0.984 . S
H4296 N4284 0.984 . S
H4297 N4284 0.985 . S
C4298 C4299 1.363 . S
C4298 C4304 1.379 . S
C4298 N4306 1.356 . S
C4299 C4298 1.363 . S
C4299 C4305 1.363 . S
C4300 C4301 1.363 . S
C4300 C4305 1.379 . S
C4300 N4307 1.356 . S
C4301 C4300 1.363 . S
C4301 C4304 1.363 . S
N4302 C4304 1.356 . S
N4302 H4314 0.984 . S
N4302 H4315 0.985 . S
N4303 C4305 1.356 . S
N4303 H4308 0.984 . S
N4303 H4309 0.985 . S
C4304 C4298 1.379 . S
C4304 C4301 1.363 . S
C4304 N4302 1.356 . S
C4305 C4299 1.363 . S
C4305 C4300 1.379 . S
C4305 N4303 1.356 . S
N4306 C4298 1.356 . S
N4306 H4312 0.984 . S
N4306 H4313 0.984 . S
N4307 C4300 1.356 . S
N4307 H4310 0.984 . S
N4307 H4311 0.985 . S
H4308 N4303 0.984 . S
H4309 N4303 0.985 . S
H4310 N4307 0.984 . S
H4311 N4307 0.985 . S
H4312 N4306 0.984 . S
H4313 N4306 0.984 . S
H4314 N4302 0.984 . S
H4315 N4302 0.985 . S
C4316 C4317 1.363 . S
C4316 C4322 1.379 . S
C4316 N4324 1.356 . S
C4317 C4316 1.363 . S
C4317 C4323 1.363 . S
C4318 C4319 1.363 . S
C4318 C4323 1.379 . S
C4318 N4325 1.356 . S
C4319 C4318 1.363 . S
C4319 C4322 1.363 . S
N4320 C4322 1.356 . S
N4320 H4332 0.984 . S
N4320 H4333 0.985 . S
N4321 C4323 1.356 . S
N4321 H4326 0.984 . S
N4321 H4327 0.985 . S
C4322 C4316 1.379 . S
C4322 C4319 1.363 . S
C4322 N4320 1.356 . S
C4323 C4317 1.363 . S
C4323 C4318 1.379 . S
C4323 N4321 1.356 . S
N4324 C4316 1.356 . S
N4324 H4330 0.984 . S
N4324 H4331 0.984 . S
N4325 C4318 1.356 . S
N4325 H4328 0.984 . S
N4325 H4329 0.985 . S
H4326 N4321 0.984 . S
H4327 N4321 0.985 . S
H4328 N4325 0.984 . S
H4329 N4325 0.985 . S
H4330 N4324 0.984 . S
H4331 N4324 0.984 . S
H4332 N4320 0.984 . S
H4333 N4320 0.985 . S
C4334 C4335 1.363 . S
C4334 C4340 1.379 . S
C4334 N4342 1.356 . S
C4335 C4334 1.363 . S
C4335 C4341 1.363 . S
C4336 C4337 1.363 . S
C4336 C4341 1.379 . S
C4336 N4343 1.356 . S
C4337 C4336 1.363 . S
C4337 C4340 1.363 . S
N4338 C4340 1.356 . S
N4338 H4350 0.984 . S
N4338 H4351 0.985 . S
N4339 C4341 1.356 . S
N4339 H4344 0.984 . S
N4339 H4345 0.985 . S
C4340 C4334 1.379 . S
C4340 C4337 1.363 . S
C4340 N4338 1.356 . S
C4341 C4335 1.363 . S
C4341 C4336 1.379 . S
C4341 N4339 1.356 . S
N4342 C4334 1.356 . S
N4342 H4348 0.984 . S
N4342 H4349 0.984 . S
N4343 C4336 1.356 . S
N4343 H4346 0.984 . S
N4343 H4347 0.985 . S
H4344 N4339 0.984 . S
H4345 N4339 0.985 . S
H4346 N4343 0.984 . S
H4347 N4343 0.985 . S
H4348 N4342 0.984 . S
H4349 N4342 0.984 . S
H4350 N4338 0.984 . S
H4351 N4338 0.985 . S
C4352 C4353 1.363 . S
C4352 C4358 1.379 . S
C4352 N4360 1.356 . S
C4353 C4352 1.363 . S
C4353 C4359 1.363 . S
C4354 C4355 1.363 . S
C4354 C4359 1.379 . S
C4354 N4361 1.356 . S
C4355 C4354 1.363 . S
C4355 C4358 1.363 . S
N4356 C4358 1.356 . S
N4356 H4368 0.984 . S
N4356 H4369 0.985 . S
N4357 C4359 1.356 . S
N4357 H4362 0.984 . S
N4357 H4363 0.985 . S
C4358 C4352 1.379 . S
C4358 C4355 1.363 . S
C4358 N4356 1.356 . S
C4359 C4353 1.363 . S
C4359 C4354 1.379 . S
C4359 N4357 1.356 . S
N4360 C4352 1.356 . S
N4360 H4366 0.984 . S
N4360 H4367 0.984 . S
N4361 C4354 1.356 . S
N4361 H4364 0.984 . S
N4361 H4365 0.985 . S
H4362 N4357 0.984 . S
H4363 N4357 0.985 . S
H4364 N4361 0.984 . S
H4365 N4361 0.985 . S
H4366 N4360 0.984 . S
H4367 N4360 0.984 . S
H4368 N4356 0.984 . S
H4369 N4356 0.985 . S
C4370 C4371 1.363 . S
C4370 C4376 1.379 . S
C4370 N4378 1.356 . S
C4371 C4370 1.363 . S
C4371 C4377 1.363 . S
C4372 C4373 1.363 . S
C4372 C4377 1.379 . S
C4372 N4379 1.356 . S
C4373 C4372 1.363 . S
C4373 C4376 1.363 . S
N4374 C4376 1.356 . S
N4374 H4386 0.984 . S
N4374 H4387 0.985 . S
N4375 C4377 1.356 . S
N4375 H4380 0.984 . S
N4375 H4381 0.985 . S
C4376 C4370 1.379 . S
C4376 C4373 1.363 . S
C4376 N4374 1.356 . S
C4377 C4371 1.363 . S
C4377 C4372 1.379 . S
C4377 N4375 1.356 . S
N4378 C4370 1.356 . S
N4378 H4384 0.984 . S
N4378 H4385 0.984 . S
N4379 C4372 1.356 . S
N4379 H4382 0.984 . S
N4379 H4383 0.985 . S
H4380 N4375 0.984 . S
H4381 N4375 0.985 . S
H4382 N4379 0.984 . S
H4383 N4379 0.985 . S
H4384 N4378 0.984 . S
H4385 N4378 0.984 . S
H4386 N4374 0.984 . S
H4387 N4374 0.985 . S
C4388 C4389 1.363 . S
C4388 C4394 1.379 . S
C4388 N4396 1.356 . S
C4389 C4388 1.363 . S
C4389 C4395 1.363 . S
C4390 C4391 1.363 . S
C4390 C4395 1.379 . S
C4390 N4397 1.356 . S
C4391 C4390 1.363 . S
C4391 C4394 1.363 . S
N4392 C4394 1.356 . S
N4392 H4404 0.984 . S
N4392 H4405 0.985 . S
N4393 C4395 1.356 . S
N4393 H4398 0.984 . S
N4393 H4399 0.985 . S
C4394 C4388 1.379 . S
C4394 C4391 1.363 . S
C4394 N4392 1.356 . S
C4395 C4389 1.363 . S
C4395 C4390 1.379 . S
C4395 N4393 1.356 . S
N4396 C4388 1.356 . S
N4396 H4402 0.984 . S
N4396 H4403 0.984 . S
N4397 C4390 1.356 . S
N4397 H4400 0.984 . S
N4397 H4401 0.985 . S
H4398 N4393 0.984 . S
H4399 N4393 0.985 . S
H4400 N4397 0.984 . S
H4401 N4397 0.985 . S
H4402 N4396 0.984 . S
H4403 N4396 0.984 . S
H4404 N4392 0.984 . S
H4405 N4392 0.985 . S
C4406 C4407 1.363 . S
C4406 C4412 1.379 . S
C4406 N4414 1.356 . S
C4407 C4406 1.363 . S
C4407 C4413 1.363 . S
C4408 C4409 1.363 . S
C4408 C4413 1.379 . S
C4408 N4415 1.356 . S
C4409 C4408 1.363 . S
C4409 C4412 1.363 . S
N4410 C4412 1.356 . S
N4410 H4422 0.984 . S
N4410 H4423 0.985 . S
N4411 C4413 1.356 . S
N4411 H4416 0.984 . S
N4411 H4417 0.985 . S
C4412 C4406 1.379 . S
C4412 C4409 1.363 . S
C4412 N4410 1.356 . S
C4413 C4407 1.363 . S
C4413 C4408 1.379 . S
C4413 N4411 1.356 . S
N4414 C4406 1.356 . S
N4414 H4420 0.984 . S
N4414 H4421 0.984 . S
N4415 C4408 1.356 . S
N4415 H4418 0.984 . S
N4415 H4419 0.985 . S
H4416 N4411 0.984 . S
H4417 N4411 0.985 . S
H4418 N4415 0.984 . S
H4419 N4415 0.985 . S
H4420 N4414 0.984 . S
H4421 N4414 0.984 . S
H4422 N4410 0.984 . S
H4423 N4410 0.985 . S
C4424 C4425 1.363 . S
C4424 C4430 1.379 . S
C4424 N4432 1.356 . S
C4425 C4424 1.363 . S
C4425 C4431 1.363 . S
C4426 C4427 1.363 . S
C4426 C4431 1.379 . S
C4426 N4433 1.356 . S
C4427 C4426 1.363 . S
C4427 C4430 1.363 . S
N4428 C4430 1.356 . S
N4428 H4440 0.984 . S
N4428 H4441 0.985 . S
N4429 C4431 1.356 . S
N4429 H4434 0.984 . S
N4429 H4435 0.985 . S
C4430 C4424 1.379 . S
C4430 C4427 1.363 . S
C4430 N4428 1.356 . S
C4431 C4425 1.363 . S
C4431 C4426 1.379 . S
C4431 N4429 1.356 . S
N4432 C4424 1.356 . S
N4432 H4438 0.984 . S
N4432 H4439 0.984 . S
N4433 C4426 1.356 . S
N4433 H4436 0.984 . S
N4433 H4437 0.985 . S
H4434 N4429 0.984 . S
H4435 N4429 0.985 . S
H4436 N4433 0.984 . S
H4437 N4433 0.985 . S
H4438 N4432 0.984 . S
H4439 N4432 0.984 . S
H4440 N4428 0.984 . S
H4441 N4428 0.985 . S
C4442 C4443 1.363 . S
C4442 C4448 1.379 . S
C4442 N4450 1.356 . S
C4443 C4442 1.363 . S
C4443 C4449 1.363 . S
C4444 C4445 1.363 . S
C4444 C4449 1.379 . S
C4444 N4451 1.356 . S
C4445 C4444 1.363 . S
C4445 C4448 1.363 . S
N4446 C4448 1.356 . S
N4446 H4458 0.984 . S
N4446 H4459 0.985 . S
N4447 C4449 1.356 . S
N4447 H4452 0.984 . S
N4447 H4453 0.985 . S
C4448 C4442 1.379 . S
C4448 C4445 1.363 . S
C4448 N4446 1.356 . S
C4449 C4443 1.363 . S
C4449 C4444 1.379 . S
C4449 N4447 1.356 . S
N4450 C4442 1.356 . S
N4450 H4456 0.984 . S
N4450 H4457 0.984 . S
N4451 C4444 1.356 . S
N4451 H4454 0.984 . S
N4451 H4455 0.985 . S
H4452 N4447 0.984 . S
H4453 N4447 0.985 . S
H4454 N4451 0.984 . S
H4455 N4451 0.985 . S
H4456 N4450 0.984 . S
H4457 N4450 0.984 . S
H4458 N4446 0.984 . S
H4459 N4446 0.985 . S
C4460 C4461 1.363 . S
C4460 C4466 1.379 . S
C4460 N4468 1.356 . S
C4461 C4460 1.363 . S
C4461 C4467 1.363 . S
C4462 C4463 1.363 . S
C4462 C4467 1.379 . S
C4462 N4469 1.356 . S
C4463 C4462 1.363 . S
C4463 C4466 1.363 . S
N4464 C4466 1.356 . S
N4464 H4476 0.984 . S
N4464 H4477 0.985 . S
N4465 C4467 1.356 . S
N4465 H4470 0.984 . S
N4465 H4471 0.985 . S
C4466 C4460 1.379 . S
C4466 C4463 1.363 . S
C4466 N4464 1.356 . S
C4467 C4461 1.363 . S
C4467 C4462 1.379 . S
C4467 N4465 1.356 . S
N4468 C4460 1.356 . S
N4468 H4474 0.984 . S
N4468 H4475 0.984 . S
N4469 C4462 1.356 . S
N4469 H4472 0.984 . S
N4469 H4473 0.985 . S
H4470 N4465 0.984 . S
H4471 N4465 0.985 . S
H4472 N4469 0.984 . S
H4473 N4469 0.985 . S
H4474 N4468 0.984 . S
H4475 N4468 0.984 . S
H4476 N4464 0.984 . S
H4477 N4464 0.985 . S
C4478 C4479 1.363 . S
C4478 C4484 1.379 . S
C4478 N4486 1.356 . S
C4479 C4478 1.363 . S
C4479 C4485 1.363 . S
C4480 C4481 1.363 . S
C4480 C4485 1.379 . S
C4480 N4487 1.356 . S
C4481 C4480 1.363 . S
C4481 C4484 1.363 . S
N4482 C4484 1.356 . S
N4482 H4494 0.984 . S
N4482 H4495 0.985 . S
N4483 C4485 1.356 . S
N4483 H4488 0.984 . S
N4483 H4489 0.985 . S
C4484 C4478 1.379 . S
C4484 C4481 1.363 . S
C4484 N4482 1.356 . S
C4485 C4479 1.363 . S
C4485 C4480 1.379 . S
C4485 N4483 1.356 . S
N4486 C4478 1.356 . S
N4486 H4492 0.984 . S
N4486 H4493 0.984 . S
N4487 C4480 1.356 . S
N4487 H4490 0.984 . S
N4487 H4491 0.985 . S
H4488 N4483 0.984 . S
H4489 N4483 0.985 . S
H4490 N4487 0.984 . S
H4491 N4487 0.985 . S
H4492 N4486 0.984 . S
H4493 N4486 0.984 . S
H4494 N4482 0.984 . S
H4495 N4482 0.985 . S
C2771 C1327 1.412 . S
C2769 C21 1.536 . S
C2789 C1389 1.358 . S
C2787 C42 1.542 . S
C2805 C82 1.535 . S
C2807 C1451 1.415 . S
C2825 C1519 1.431 . S
C2823 C135 1.487 . S
C2841 C175 1.449 . S
C2843 C1501 1.403 . S
C2859 C221 1.591 . S
C2861 C1309 1.510 . S
C2877 C255 1.614 . S
C2879 C1371 1.507 . S
C2897 C1433 1.496 . S
C2895 C301 1.617 . S
C2915 C1581 1.481 . S
C2913 C15 1.549 . S
C2931 C55 1.551 . S
C2933 C1619 1.382 . S
C2949 C101 1.600 . S
C2951 C1705 1.579 . S
C2969 C1749 1.497 . S
C2967 C141 1.589 . S
C2985 C162 1.425 . S
C2987 C1811 1.411 . S
C3005 C1873 1.549 . S
C3003 C215 1.580 . S
C3021 C261 1.611 . S
C3023 C1929 1.481 . S
C3041 C1991 1.424 . S
C3039 C282 1.559 . S
C3057 C2 1.568 . S
C3059 C1767 1.555 . S
C3075 C181 1.443 . S
C3077 C1891 1.417 . S
C3095 C1947 1.414 . S
C3093 C202 1.542 . S
C3111 C242 1.574 . S
C3113 C2009 1.435 . S
C3131 C1829 1.470 . S
C3129 C295 1.517 . S
C3149 C1637 1.496 . S
C3147 C95 1.616 . S
C3165 C122 1.566 . S
C3167 C1687 1.468 . S
C3185 C1563 1.532 . S
C3183 C61 1.573 . S
C3203 C2071 1.496 . S
C3201 C341 1.617 . S
C3219 C362 1.477 . S
C3221 C2121 1.399 . S
C3237 C402 1.533 . S
C3239 C2177 1.382 . S
C3257 C2263 1.471 . S
C3255 C455 1.548 . S
C3273 C495 1.502 . S
C3275 C2245 1.458 . S
C3291 C541 1.592 . S
C3293 C2053 1.491 . S
C3309 C575 1.524 . S
C3311 C2139 1.488 . S
C3327 C621 1.655 . S
C3329 C2195 1.556 . S
C3347 C1805 1.438 . S
C3345 C335 1.581 . S
C3363 C375 1.477 . S
C3365 C2325 1.420 . S
C3383 C1935 1.543 . S
C3381 C421 1.557 . S
C3399 C461 1.604 . S
C3401 C2387 1.485 . S
C3417 C482 1.463 . S
C3419 C1575 1.345 . S
C3437 C2431 1.529 . S
C3435 C535 1.575 . S
C3453 C581 1.580 . S
C3455 C1699 1.469 . S
C3473 C2487 1.482 . S
C3471 C602 1.594 . S
C3489 C322 1.642 . S
C3491 C2369 1.628 . S
C3509 C2449 1.439 . S
C3507 C501 1.469 . S
C3525 C522 1.528 . S
C3527 C1681 1.420 . S
C3545 C2505 1.379 . S
C3543 C562 1.578 . S
C3561 C615 1.658 . S
C3563 C1557 1.579 . S
C3579 C415 1.519 . S
C3581 C2307 1.477 . S
C3597 C442 1.537 . S
C3599 C1953 1.451 . S
C3615 C381 1.569 . S
C3617 C1823 1.367 . S
C3633 C661 1.468 . S
C3635 C2183 1.444 . S
C3653 C2257 1.325 . S
C3651 C682 1.507 . S
C3669 C722 1.506 . S
C3671 C2077 1.488 . S
C3687 C775 1.572 . S
C3689 C2115 1.400 . S
C3705 C815 1.573 . S
C3707 C2133 1.447 . S
C3723 C861 1.557 . S
C3725 C2201 1.552 . S
C3743 C2239 1.456 . S
C3741 C895 1.593 . S
C3759 C941 1.616 . S
C3761 C2059 1.574 . S
C3779 C2555 1.449 . S
C3777 C655 1.511 . S
C3795 C695 1.553 . S
C3797 C1867 1.438 . S
C3815 C2617 1.550 . S
C3813 C741 1.560 . S
C3831 C781 1.553 . S
C3833 C1997 1.497 . S
C3849 C802 1.495 . S
C3851 C2673 1.368 . S
C3867 C855 1.520 . S
C3869 C1625 1.460 . S
C3887 C2753 1.541 . S
C3885 C901 1.633 . S
C3903 C922 1.592 . S
C3905 C1743 1.423 . S
C3923 C2015 1.476 . S
C3921 C642 1.491 . S
C3941 C1643 1.495 . S
C3939 C821 1.513 . S
C3957 C842 1.526 . S
C3959 C2735 1.389 . S
C3975 C882 1.638 . S
C3977 C1761 1.534 . S
C3995 C2691 1.468 . S
C3993 C935 1.618 . S
C4013 C1885 1.377 . S
C4011 C735 1.567 . S
C4031 C2635 1.488 . S
C4029 C762 1.544 . S
C4049 C2573 1.501 . S
C4047 C701 1.535 . S
C4065 C981 1.496 . S
C4067 C1457 1.477 . S
C4083 C1002 1.537 . S
C4085 C1513 1.343 . S
C4103 C1333 1.457 . S
C4101 C1042 1.488 . S
C4121 C1395 1.439 . S
C4119 C1095 1.514 . S
C4139 C1377 1.521 . S
C4137 C1135 1.550 . S
C4157 C1439 1.565 . S
C4155 C1181 1.582 . S
C4175 C1495 1.407 . S
C4173 C1215 1.576 . S
C4191 C1261 1.604 . S
C4193 C1315 1.562 . S
C4209 C975 1.535 . S
C4211 C2679 1.461 . S
C4229 C2425 1.419 . S
C4227 C1015 1.527 . S
C4247 C2759 1.557 . S
C4245 C1061 1.568 . S
C4265 C2493 1.476 . S
C4263 C1101 1.536 . S
C4281 C1122 1.501 . S
C4283 C2549 1.382 . S
C4301 C2319 1.439 . S
C4299 C1175 1.587 . S
C4319 C2611 1.487 . S
C4317 C1221 1.599 . S
C4335 C1242 1.553 . S
C4337 C2381 1.379 . S
C4355 C2511 1.454 . S
C4353 C962 1.472 . S
C4373 C2301 1.393 . S
C4371 C1141 1.503 . S
C4391 C2629 1.461 . S
C4389 C1162 1.561 . S
C4407 C1202 1.645 . S
C4409 C2363 1.552 . S
C4425 C1255 1.588 . S
C4427 C2567 1.460 . S
C4443 C1055 1.517 . S
C4445 C2443 1.367 . S
C4461 C1082 1.579 . S
C4463 C2741 1.465 . S
C4481 C2697 1.486 . S
C4479 C1021 1.526 . S
