# Generated by pormake.
# Topology ptr, (4,4)-cn, num edge types: 1
# Building blocks:
#     Node 0, Type 0, BuildingBlock: NAHDIM_clean_sbu_0, # of connection points: 4
#     Node 1, Type 0, BuildingBlock: NAHDIM_clean_sbu_0, # of connection points: 4
#     Node 2, Type 0, BuildingBlock: NAHDIM_clean_sbu_0, # of connection points: 4
#     Node 3, Type 0, BuildingBlock: NAHDIM_clean_sbu_0, # of connection points: 4
#     Node 4, Type 0, BuildingBlock: NAHDIM_clean_sbu_0, # of connection points: 4
#     Node 5, Type 0, BuildingBlock: NAHDIM_clean_sbu_0, # of connection points: 4
#     Node 6, Type 0, BuildingBlock: NAHDIM_clean_sbu_0, # of connection points: 4
#     Node 7, Type 0, BuildingBlock: NAHDIM_clean_sbu_0, # of connection points: 4
#     Node 8, Type 0, BuildingBlock: NAHDIM_clean_sbu_0, # of connection points: 4
#     Node 9, Type 0, BuildingBlock: NAHDIM_clean_sbu_0, # of connection points: 4
#     Node 10, Type 0, BuildingBlock: NAHDIM_clean_sbu_0, # of connection points: 4
#     Node 11, Type 0, BuildingBlock: NAHDIM_clean_sbu_0, # of connection points: 4
#     Node 12, Type 0, BuildingBlock: NAHDIM_clean_sbu_0, # of connection points: 4
#     Node 13, Type 0, BuildingBlock: NAHDIM_clean_sbu_0, # of connection points: 4
#     Node 14, Type 0, BuildingBlock: NAHDIM_clean_sbu_0, # of connection points: 4
#     Node 15, Type 0, BuildingBlock: NAHDIM_clean_sbu_0, # of connection points: 4
#     Node 16, Type 0, BuildingBlock: NAHDIM_clean_sbu_0, # of connection points: 4
#     Node 17, Type 0, BuildingBlock: NAHDIM_clean_sbu_0, # of connection points: 4
#     Node 18, Type 1, BuildingBlock: NAWXER_clean_linker_0, # of connection points: 4
#     Node 19, Type 1, BuildingBlock: NAWXER_clean_linker_0, # of connection points: 4
#     Node 20, Type 1, BuildingBlock: NAWXER_clean_linker_0, # of connection points: 4
#     Node 21, Type 1, BuildingBlock: NAWXER_clean_linker_0, # of connection points: 4
#     Node 22, Type 1, BuildingBlock: NAWXER_clean_linker_0, # of connection points: 4
#     Node 23, Type 1, BuildingBlock: NAWXER_clean_linker_0, # of connection points: 4
#     Node 24, Type 1, BuildingBlock: NAWXER_clean_linker_0, # of connection points: 4
#     Node 25, Type 1, BuildingBlock: NAWXER_clean_linker_0, # of connection points: 4
#     Node 26, Type 1, BuildingBlock: NAWXER_clean_linker_0, # of connection points: 4
#     Node 27, Type 1, BuildingBlock: NAWXER_clean_linker_0, # of connection points: 4
#     Node 28, Type 1, BuildingBlock: NAWXER_clean_linker_0, # of connection points: 4
#     Node 29, Type 1, BuildingBlock: NAWXER_clean_linker_0, # of connection points: 4
#     Node 30, Type 1, BuildingBlock: NAWXER_clean_linker_0, # of connection points: 4
#     Node 31, Type 1, BuildingBlock: NAWXER_clean_linker_0, # of connection points: 4
#     Node 32, Type 1, BuildingBlock: NAWXER_clean_linker_0, # of connection points: 4
#     Node 33, Type 1, BuildingBlock: NAWXER_clean_linker_0, # of connection points: 4
#     Node 34, Type 1, BuildingBlock: NAWXER_clean_linker_0, # of connection points: 4
#     Node 35, Type 1, BuildingBlock: NAWXER_clean_linker_0, # of connection points: 4
#     Edge 36, Type (0, 1), BuildingBlock: KIFKEQ_clean_linker_1, # of connection points: 2
#     Edge 37, Type (0, 1), BuildingBlock: KIFKEQ_clean_linker_1, # of connection points: 2
#     Edge 38, Type (0, 1), BuildingBlock: KIFKEQ_clean_linker_1, # of connection points: 2
#     Edge 39, Type (0, 1), BuildingBlock: KIFKEQ_clean_linker_1, # of connection points: 2
#     Edge 40, Type (0, 1), BuildingBlock: KIFKEQ_clean_linker_1, # of connection points: 2
#     Edge 41, Type (0, 1), BuildingBlock: KIFKEQ_clean_linker_1, # of connection points: 2
#     Edge 42, Type (0, 1), BuildingBlock: KIFKEQ_clean_linker_1, # of connection points: 2
#     Edge 43, Type (0, 1), BuildingBlock: KIFKEQ_clean_linker_1, # of connection points: 2
#     Edge 44, Type (0, 1), BuildingBlock: KIFKEQ_clean_linker_1, # of connection points: 2
#     Edge 45, Type (0, 1), BuildingBlock: KIFKEQ_clean_linker_1, # of connection points: 2
#     Edge 46, Type (0, 1), BuildingBlock: KIFKEQ_clean_linker_1, # of connection points: 2
#     Edge 47, Type (0, 1), BuildingBlock: KIFKEQ_clean_linker_1, # of connection points: 2
#     Edge 48, Type (0, 1), BuildingBlock: KIFKEQ_clean_linker_1, # of connection points: 2
#     Edge 49, Type (0, 1), BuildingBlock: KIFKEQ_clean_linker_1, # of connection points: 2
#     Edge 50, Type (0, 1), BuildingBlock: KIFKEQ_clean_linker_1, # of connection points: 2
#     Edge 51, Type (0, 1), BuildingBlock: KIFKEQ_clean_linker_1, # of connection points: 2
#     Edge 52, Type (0, 1), BuildingBlock: KIFKEQ_clean_linker_1, # of connection points: 2
#     Edge 53, Type (0, 1), BuildingBlock: KIFKEQ_clean_linker_1, # of connection points: 2
#     Edge 54, Type (0, 1), BuildingBlock: KIFKEQ_clean_linker_1, # of connection points: 2
#     Edge 55, Type (0, 1), BuildingBlock: KIFKEQ_clean_linker_1, # of connection points: 2
#     Edge 56, Type (0, 1), BuildingBlock: KIFKEQ_clean_linker_1, # of connection points: 2
#     Edge 57, Type (0, 1), BuildingBlock: KIFKEQ_clean_linker_1, # of connection points: 2
#     Edge 58, Type (0, 1), BuildingBlock: KIFKEQ_clean_linker_1, # of connection points: 2
#     Edge 59, Type (0, 1), BuildingBlock: KIFKEQ_clean_linker_1, # of connection points: 2
#     Edge 60, Type (0, 1), BuildingBlock: KIFKEQ_clean_linker_1, # of connection points: 2
#     Edge 61, Type (0, 1), BuildingBlock: KIFKEQ_clean_linker_1, # of connection points: 2
#     Edge 62, Type (0, 1), BuildingBlock: KIFKEQ_clean_linker_1, # of connection points: 2
#     Edge 63, Type (0, 1), BuildingBlock: KIFKEQ_clean_linker_1, # of connection points: 2
#     Edge 64, Type (0, 1), BuildingBlock: KIFKEQ_clean_linker_1, # of connection points: 2
#     Edge 65, Type (0, 1), BuildingBlock: KIFKEQ_clean_linker_1, # of connection points: 2
#     Edge 66, Type (0, 1), BuildingBlock: KIFKEQ_clean_linker_1, # of connection points: 2
#     Edge 67, Type (0, 1), BuildingBlock: KIFKEQ_clean_linker_1, # of connection points: 2
#     Edge 68, Type (0, 1), BuildingBlock: KIFKEQ_clean_linker_1, # of connection points: 2
#     Edge 69, Type (0, 1), BuildingBlock: KIFKEQ_clean_linker_1, # of connection points: 2
#     Edge 70, Type (0, 1), BuildingBlock: KIFKEQ_clean_linker_1, # of connection points: 2
#     Edge 71, Type (0, 1), BuildingBlock: KIFKEQ_clean_linker_1, # of connection points: 2
#     Edge 72, Type (0, 1), BuildingBlock: KIFKEQ_clean_linker_1, # of connection points: 2
#     Edge 73, Type (0, 1), BuildingBlock: KIFKEQ_clean_linker_1, # of connection points: 2
#     Edge 74, Type (0, 1), BuildingBlock: KIFKEQ_clean_linker_1, # of connection points: 2
#     Edge 75, Type (0, 1), BuildingBlock: KIFKEQ_clean_linker_1, # of connection points: 2
#     Edge 76, Type (0, 1), BuildingBlock: KIFKEQ_clean_linker_1, # of connection points: 2
#     Edge 77, Type (0, 1), BuildingBlock: KIFKEQ_clean_linker_1, # of connection points: 2
#     Edge 78, Type (0, 1), BuildingBlock: KIFKEQ_clean_linker_1, # of connection points: 2
#     Edge 79, Type (0, 1), BuildingBlock: KIFKEQ_clean_linker_1, # of connection points: 2
#     Edge 80, Type (0, 1), BuildingBlock: KIFKEQ_clean_linker_1, # of connection points: 2
#     Edge 81, Type (0, 1), BuildingBlock: KIFKEQ_clean_linker_1, # of connection points: 2
#     Edge 82, Type (0, 1), BuildingBlock: KIFKEQ_clean_linker_1, # of connection points: 2
#     Edge 83, Type (0, 1), BuildingBlock: KIFKEQ_clean_linker_1, # of connection points: 2
#     Edge 84, Type (0, 1), BuildingBlock: KIFKEQ_clean_linker_1, # of connection points: 2
#     Edge 85, Type (0, 1), BuildingBlock: KIFKEQ_clean_linker_1, # of connection points: 2
#     Edge 86, Type (0, 1), BuildingBlock: KIFKEQ_clean_linker_1, # of connection points: 2
#     Edge 87, Type (0, 1), BuildingBlock: KIFKEQ_clean_linker_1, # of connection points: 2
#     Edge 88, Type (0, 1), BuildingBlock: KIFKEQ_clean_linker_1, # of connection points: 2
#     Edge 89, Type (0, 1), BuildingBlock: KIFKEQ_clean_linker_1, # of connection points: 2
#     Edge 90, Type (0, 1), BuildingBlock: KIFKEQ_clean_linker_1, # of connection points: 2
#     Edge 91, Type (0, 1), BuildingBlock: KIFKEQ_clean_linker_1, # of connection points: 2
#     Edge 92, Type (0, 1), BuildingBlock: KIFKEQ_clean_linker_1, # of connection points: 2
#     Edge 93, Type (0, 1), BuildingBlock: KIFKEQ_clean_linker_1, # of connection points: 2
#     Edge 94, Type (0, 1), BuildingBlock: KIFKEQ_clean_linker_1, # of connection points: 2
#     Edge 95, Type (0, 1), BuildingBlock: KIFKEQ_clean_linker_1, # of connection points: 2
#     Edge 96, Type (0, 1), BuildingBlock: KIFKEQ_clean_linker_1, # of connection points: 2
#     Edge 97, Type (0, 1), BuildingBlock: KIFKEQ_clean_linker_1, # of connection points: 2
#     Edge 98, Type (0, 1), BuildingBlock: KIFKEQ_clean_linker_1, # of connection points: 2
#     Edge 99, Type (0, 1), BuildingBlock: KIFKEQ_clean_linker_1, # of connection points: 2
#     Edge 100, Type (0, 1), BuildingBlock: KIFKEQ_clean_linker_1, # of connection points: 2
#     Edge 101, Type (0, 1), BuildingBlock: KIFKEQ_clean_linker_1, # of connection points: 2
#     Edge 102, Type (0, 1), BuildingBlock: KIFKEQ_clean_linker_1, # of connection points: 2
#     Edge 103, Type (0, 1), BuildingBlock: KIFKEQ_clean_linker_1, # of connection points: 2
#     Edge 104, Type (0, 1), BuildingBlock: KIFKEQ_clean_linker_1, # of connection points: 2
#     Edge 105, Type (0, 1), BuildingBlock: KIFKEQ_clean_linker_1, # of connection points: 2
#     Edge 106, Type (0, 1), BuildingBlock: KIFKEQ_clean_linker_1, # of connection points: 2
#     Edge 107, Type (0, 1), BuildingBlock: KIFKEQ_clean_linker_1, # of connection points: 2
# Relax obj value: 0.073
# Max RMSD: 0.265
# Mean RMSD: 0.108
data_MOF--net-ptr--node1-NAHDIM_clean_sbu_0--node2-NAWXER_clean_linker_0--edge1-KIFKEQ_clean_linker_1
_symmetry_space_group_name_H-M    P1
_symmetry_Int_Tables_number       1
_symmetry_cell_setting            triclinic
loop_
_symmetry_equiv_pos_as_xyz
'x, y, z'
_cell_length_a     90.052569
_cell_length_b     88.265364
_cell_length_c     63.990759
_cell_angle_alpha  91.709377
_cell_angle_beta   89.107533
_cell_angle_gamma 121.92663
loop_
_atom_site_label
_atom_site_type_symbol
_atom_site_fract_x
_atom_site_fract_y
_atom_site_fract_z
_atom_type_partial_charge
C0 C 0.02369 0.33341 0.03491 0.0
O1 O 0.00671 0.32514 0.03795 0.0
O2 O 0.99547 0.32604 0.99226 0.0
Zn3 Zn 0.01341 0.34932 0.00637 0.0
O4 O 0.00247 0.35724 0.02825 0.0
C5 C 0.0195 0.36595 0.96623 0.0
O6 O 0.00747 0.34965 0.96021 0.0
O7 O 0.03059 0.34532 0.02112 0.0
C8 C 0.99246 0.36268 0.02344 0.0
O9 O 0.98846 0.36234 0.0037 0.0
C10 C 0.97945 0.31648 0.99738 0.0
O11 O 0.97353 0.32159 0.01322 0.0
O12 O 0.02482 0.36888 0.98509 0.0
C13 C 0.69132 0.67663 0.98436 0.0
O14 O 0.6834 0.68524 0.98075 0.0
O15 O 0.66298 0.67827 0.02192 0.0
Zn16 Zn 0.66032 0.65641 0.00739 0.0
O17 O 0.64349 0.64815 0.98322 0.0
C18 C 0.65617 0.63838 0.04649 0.0
O19 O 0.66793 0.65441 0.05366 0.0
O20 O 0.68382 0.6631 0.99594 0.0
C21 C 0.62864 0.64661 0.9843 0.0
O22 O 0.62395 0.65106 0.00182 0.0
C23 C 0.65329 0.67792 0.03679 0.0
O24 O 0.64014 0.66249 0.04298 0.0
O25 O 0.65149 0.63623 0.02745 0.0
C26 C 0.34798 0.03316 0.98165 0.0
O27 O 0.35725 0.02778 0.97152 0.0
O28 O 0.31987 0.98994 0.02528 0.0
Zn29 Zn 0.34263 0.00614 0.01053 0.0
O30 O 0.3473 0.99382 0.9866 0.0
C31 C 0.36012 0.00539 0.04696 0.0
O32 O 0.34477 0.99073 0.0495 0.0
O33 O 0.34116 0.02633 0.99911 0.0
C34 C 0.35137 0.98223 0.98915 0.0
O35 O 0.3511 0.97671 0.00807 0.0
C36 C 0.3082 0.97396 0.02025 0.0
O37 O 0.31022 0.96647 0.0033 0.0
O38 O 0.36249 0.01498 0.03129 0.0
C39 C 0.98563 0.67696 0.97974 0.0
O40 O 0.00254 0.68499 0.97629 0.0
O41 O 0.01177 0.6825 0.02469 0.0
Zn42 Zn 0.99491 0.66006 0.00869 0.0
O43 O 0.00731 0.653 0.98782 0.0
C44 C 0.98429 0.64232 0.04839 0.0
O45 O 0.99444 0.65865 0.05591 0.0
O46 O 0.9787 0.66489 0.99333 0.0
C47 C 0.01252 0.64289 0.99345 0.0
O48 O 0.01064 0.63819 0.01306 0.0
C49 C 0.02768 0.69344 0.02013 0.0
O50 O 0.03454 0.69033 0.00353 0.0
O51 O 0.98178 0.63981 0.02875 0.0
C52 C 0.29478 0.34219 0.01043 0.0
O53 O 0.29274 0.33173 0.99426 0.0
O54 O 0.32478 0.33208 0.99113 0.0
Zn55 Zn 0.33147 0.35626 0.00299 0.0
O56 O 0.34927 0.36418 0.02591 0.0
C57 C 0.34906 0.37177 0.96475 0.0
O58 O 0.34858 0.35664 0.9633 0.0
O59 O 0.31014 0.35428 0.01608 0.0
C60 C 0.36472 0.36755 0.02307 0.0
O61 O 0.3695 0.36535 0.00429 0.0
C62 C 0.32828 0.32153 0.9997 0.0
O63 O 0.33683 0.32627 0.01751 0.0
O64 O 0.34191 0.37461 0.98041 0.0
C65 C 0.66248 0.96364 0.01032 0.0
O66 O 0.67223 0.97123 0.99382 0.0
O67 O 0.67057 0.00238 0.98643 0.0
Zn68 Zn 0.6478 0.98491 0.00044 0.0
O69 O 0.64088 0.99729 0.02198 0.0
C70 C 0.63051 0.9778 0.96027 0.0
O71 O 0.64621 0.99018 0.95409 0.0
O72 O 0.65085 0.96704 0.01555 0.0
C73 C 0.63042 0.0022 0.01722 0.0
O74 O 0.625 0.00012 0.99781 0.0
C75 C 0.67735 0.01918 0.9867 0.0
O76 O 0.66946 0.02609 0.99695 0.0
O77 O 0.62831 0.97273 0.97907 0.0
C78 C 0.68385 0.66476 0.37108 0.0
O79 O 0.66692 0.656 0.37464 0.0
O80 O 0.65469 0.65842 0.33014 0.0
Zn81 Zn 0.67276 0.68128 0.34443 0.0
O82 O 0.66277 0.68993 0.36689 0.0
C83 C 0.67308 0.70465 0.31619 0.0
O84 O 0.65714 0.69663 0.32387 0.0
O85 O 0.69026 0.67715 0.35786 0.0
C86 C 0.67312 0.70616 0.3725 0.0
O87 O 0.68872 0.71511 0.36394 0.0
C88 C 0.63854 0.64879 0.33456 0.0
O89 O 0.63214 0.6536 0.35017 0.0
O90 O 0.68346 0.70007 0.32243 0.0
C91 C 0.35813 0.00184 0.32492 0.0
O92 O 0.35189 0.01201 0.32128 0.0
O93 O 0.34 0.01474 0.36623 0.0
Zn94 Zn 0.33134 0.99012 0.35432 0.0
O95 O 0.31192 0.98236 0.33351 0.0
C96 C 0.31412 0.97553 0.39278 0.0
O97 O 0.31341 0.99002 0.39266 0.0
O98 O 0.35126 0.99051 0.33933 0.0
C99 C 0.30355 0.96583 0.32856 0.0
O100 O 0.30808 0.95553 0.33718 0.0
C101 C 0.33486 0.02487 0.36045 0.0
O102 O 0.32325 0.01943 0.34539 0.0
O103 O 0.32184 0.97262 0.37784 0.0
C104 C 0.00387 0.3703 0.32992 0.0
O105 O 0.99318 0.3627 0.34572 0.0
O106 O 0.99446 0.33185 0.35658 0.0
Zn107 Zn 0.01703 0.34793 0.34142 0.0
O108 O 0.02212 0.33398 0.32029 0.0
C109 C 0.03529 0.35295 0.38007 0.0
O110 O 0.01992 0.33943 0.38553 0.0
O111 O 0.01533 0.36641 0.32576 0.0
C112 C 0.02398 0.32125 0.32531 0.0
O113 O 0.02171 0.3164 0.34489 0.0
C114 C 0.98173 0.31739 0.34897 0.0
O115 O 0.98283 0.31231 0.3298 0.0
O116 O 0.03714 0.35937 0.362 0.0
C117 C 0.64467 -0.00072 0.31693 0.0
O118 O 0.66149 0.00957 0.31313 0.0
O119 O 0.67539 0.01036 0.3578 0.0
Zn120 Zn 0.65919 0.98641 0.34388 0.0
O121 O 0.67101 0.98103 0.3205 0.0
C122 C 0.65981 0.96953 0.38104 0.0
O123 O 0.67489 0.98469 0.38307 0.0
O124 O 0.63964 0.9874 0.33065 0.0
C125 C 0.68306 0.97779 0.32262 0.0
O126 O 0.68905 0.97834 0.34139 0.0
C127 C 0.69041 0.02206 0.35107 0.0
O128 O 0.69637 0.0188 0.33375 0.0
O129 O 0.65027 0.96702 0.36526 0.0
C130 C 0.97514 0.66024 0.36865 0.0
O131 O 0.98212 0.65061 0.37149 0.0
O132 O 0.00481 0.6596 0.33176 0.0
Zn133 Zn 0.00711 0.68103 0.3471 0.0
O134 O 0.02353 0.68858 0.37163 0.0
C135 C 0.01143 0.70022 0.30897 0.0
O136 O -0.00055 0.68443 0.30141 0.0
O137 O 0.98352 0.67436 0.35814 0.0
C138 C 0.03833 0.69004 0.37045 0.0
O139 O 0.0431 0.68597 0.35272 0.0
C140 C 0.01478 0.66073 0.31681 0.0
O141 O 0.02766 0.67653 0.31119 0.0
O142 O 0.01628 0.70181 0.32787 0.0
C143 C 0.33525 0.31313 0.36304 0.0
O144 O 0.34362 0.33042 0.36696 0.0
O145 O 0.34062 0.34235 0.32106 0.0
Zn146 Zn 0.31868 0.32385 0.3358 0.0
O147 O 0.31243 0.33534 0.35912 0.0
C148 C 0.29919 0.30985 0.29636 0.0
O149 O 0.31458 0.31556 0.28782 0.0
O150 O 0.32334 0.30642 0.34915 0.0
C151 C 0.30519 0.34409 0.3558 0.0
O152 O 0.30217 0.34632 0.33647 0.0
C153 C 0.34088 0.35321 0.30823 0.0
O154 O 0.32632 0.35261 0.30421 0.0
O155 O 0.29808 0.31148 0.31603 0.0
C156 C 0.36231 0.00571 0.68884 0.0
O157 O 0.35294 0.99478 0.67341 0.0
O158 O 0.32347 3e-05 0.66778 0.0
Zn159 Zn 0.34323 0.02313 0.68033 0.0
O160 O 0.33448 0.03263 0.7032 0.0
C161 C 0.35677 0.03961 0.6395 0.0
O162 O 0.35142 0.02338 0.63245 0.0
O163 O 0.36062 0.01878 0.69376 0.0
C164 C 0.31985 0.03158 0.7035 0.0
O165 O 0.30874 0.02322 0.68809 0.0
C166 C 0.31348 -0.00057 0.65353 0.0
O167 O 0.31577 0.01442 0.64669 0.0
O168 O 0.35489 0.04219 0.65876 0.0
C169 C 0.02773 0.33812 0.653 0.0
O170 O 0.02001 0.3469 0.64927 0.0
O171 O 0.0041 0.34527 0.69271 0.0
Zn172 Zn -0.00111 0.322 0.67947 0.0
O173 O 0.9808 0.31351 0.65677 0.0
C174 C 0.97815 0.30327 0.71393 0.0
O175 O 0.97426 0.31556 0.71193 0.0
O176 O 0.02098 0.32587 0.66638 0.0
C177 C 0.97522 0.2978 0.64968 0.0
O178 O 0.98158 0.28876 0.65742 0.0
C179 C 0.99563 0.3527 0.68896 0.0
O180 O 0.98275 0.34518 0.67537 0.0
O181 O 0.98928 0.3032 0.70155 0.0
C182 C 0.68718 0.70082 0.64806 0.0
O183 O 0.69395 0.6932 0.63689 0.0
O184 O 0.66403 0.66138 0.69465 0.0
Zn185 Zn 0.68694 0.6789 0.68125 0.0
O186 O 0.69391 0.66617 0.66018 0.0
C187 C 0.70405 0.68025 0.71867 0.0
O188 O 0.69087 0.66358 0.71863 0.0
O189 O 0.68383 0.69718 0.66727 0.0
C190 C 0.70971 0.67016 0.65942 0.0
O191 O 0.72119 0.6825 0.67238 0.0
C192 C 0.64929 0.65683 0.68693 0.0
O193 O 0.6487 0.66319 0.66887 0.0
O194 O 0.7052 0.69024 0.70403 0.0
C195 C 0.30684 0.33276 0.65332 0.0
O196 O 0.32383 0.34133 0.65023 0.0
O197 O 0.33514 0.34212 0.69612 0.0
Zn198 Zn 0.31757 0.31813 0.68321 0.0
O199 O 0.32933 0.31014 0.66234 0.0
C200 C 0.31431 0.30254 0.72298 0.0
O201 O 0.32956 0.31742 0.72559 0.0
O202 O 0.30021 0.32118 0.66749 0.0
C203 C 0.33203 0.29776 0.66627 0.0
O204 O 0.32737 0.29015 0.68451 0.0
C205 C 0.3515 0.35002 0.69284 0.0
O206 O 0.35756 0.34248 0.68027 0.0
O207 O 0.30603 0.29985 0.70597 0.0
C208 C 0.63443 0.00753 0.68275 0.0
O209 O 0.63226 0.99773 0.66587 0.0
O210 O 0.66494 0.99884 0.66027 0.0
Zn211 Zn 0.67118 0.02218 0.67438 0.0
O212 O 0.68954 0.02954 0.6965 0.0
C213 C 0.68006 0.03828 0.63364 0.0
O214 O 0.67205 0.02159 0.62688 0.0
O215 O 0.64984 0.01921 0.68873 0.0
C216 C 0.70469 0.03232 0.69281 0.0
O217 O 0.70866 0.02978 0.67371 0.0
C218 C 0.66795 0.98754 0.66769 0.0
O219 O 0.67586 0.99089 0.68584 0.0
O220 O 0.68073 0.04163 0.65319 0.0
C221 C 0.99052 0.63325 0.68647 0.0
O222 O 0.00024 0.63996 0.66972 0.0
O223 O 0.00059 0.67252 0.66121 0.0
Zn224 Zn 0.9774 0.65542 0.67468 0.0
O225 O 0.96979 0.66836 0.69437 0.0
C226 C 0.95961 0.65329 0.63767 0.0
O227 O 0.97202 0.67029 0.63815 0.0
O228 O 0.97948 0.63758 0.69129 0.0
C229 C 0.95347 0.66113 0.69761 0.0
O230 O 0.94254 0.64588 0.68802 0.0
C231 C 0.01093 0.68857 0.66738 0.0
O232 O 0.00675 0.6948 0.68385 0.0
O233 O 0.95923 0.64334 0.65189 0.0
C234 C 0.20056 0.31471 0.13313 0.0
C235 C 0.1969 0.30497 0.11412 0.0
C236 C 0.18728 0.3105 0.14764 0.0
C237 C 0.1701 0.29636 0.14355 0.0
C238 C 0.17973 0.29064 0.11019 0.0
C239 C 0.16644 0.28646 0.12473 0.0
C240 C 0.15561 0.29332 0.15752 0.0
C241 C 0.1889 0.2803 0.19567 0.0
C242 C 0.19717 0.29215 0.2128 0.0
C243 C 0.17564 0.28039 0.18465 0.0
C244 C 0.17039 0.29232 0.19057 0.0
C245 C 0.19184 0.30408 0.21857 0.0
C246 C 0.1785 0.30403 0.20771 0.0
C247 C 0.15616 0.29243 0.17945 0.0
C248 C 0.08601 0.28037 0.20658 0.0
C249 C 0.09157 0.29153 0.2246 0.0
C250 C 0.09826 0.28041 0.19281 0.0
C251 C 0.11627 0.2918 0.19667 0.0
C252 C 0.1096 0.30267 0.22855 0.0
C253 C 0.12179 0.30272 0.21479 0.0
C254 C 0.12955 0.29216 0.18241 0.0
C255 C 0.10301 0.31304 0.1435 0.0
C256 C 0.095 0.303 0.12512 0.0
C257 C 0.11361 0.30945 0.15545 0.0
C258 C 0.11626 0.29564 0.14936 0.0
C259 C 0.09753 0.28905 0.11919 0.0
C260 C 0.10815 0.28549 0.13113 0.0
C261 C 0.12902 0.29306 0.16044 0.0
H262 H 0.21355 0.32605 0.13646 0.0
H263 H 0.19033 0.31879 0.16167 0.0
H264 H 0.17653 0.28276 0.0958 0.0
H265 H 0.15323 0.27563 0.12115 0.0
H266 H 0.19245 0.27074 0.19097 0.0
H267 H 0.16932 0.27097 0.17172 0.0
H268 H 0.1981 0.31365 0.23138 0.0
H269 H 0.17467 0.31337 0.21252 0.0
H270 H 0.07221 0.27147 0.20326 0.0
H271 H 0.09364 0.27147 0.17925 0.0
H272 H 0.11434 0.31162 0.24211 0.0
H273 H 0.13561 0.31157 0.21816 0.0
H274 H 0.10122 0.32379 0.14856 0.0
H275 H 0.12014 0.31784 0.16908 0.0
H276 H 0.09175 0.28125 0.10496 0.0
H277 H 0.11026 0.27498 0.12594 0.0
N278 N 0.14201 0.29348 0.1489 0.0
N279 N 0.14315 0.29196 0.19103 0.0
C280 C 0.68203 0.89017 0.12838 0.0
C281 C 0.6919 0.89671 0.10996 0.0
C282 C 0.68561 0.88069 0.14239 0.0
C283 C 0.69928 0.87774 0.13845 0.0
C284 C 0.70568 0.89388 0.10612 0.0
C285 C 0.70925 0.88437 0.12018 0.0
C286 C 0.70193 0.86612 0.15207 0.0
C287 C 0.71388 0.91376 0.19395 0.0
C288 C 0.70135 0.90906 0.20986 0.0
C289 C 0.71428 0.90048 0.18187 0.0
C290 C 0.70229 0.88237 0.18579 0.0
C291 C 0.68936 0.89093 0.21359 0.0
C292 C 0.68993 0.87774 0.2018 0.0
C293 C 0.70279 0.86799 0.17408 0.0
C294 C 0.71272 0.80861 0.20053 0.0
C295 C 0.70161 0.80313 0.21808 0.0
C296 C 0.71313 0.82089 0.18681 0.0
C297 C 0.70234 0.82778 0.19034 0.0
C298 C 0.6909 0.81014 0.2215 0.0
C299 C 0.69136 0.8224 0.20789 0.0
C300 C 0.70258 0.84095 0.17634 0.0
C301 C 0.67904 0.79019 0.13784 0.0
C302 C 0.68845 0.79101 0.11974 0.0
C303 C 0.68352 0.8057 0.14937 0.0
C304 C 0.69766 0.82232 0.14322 0.0
C305 C 0.70264 0.80767 0.11362 0.0
C306 C 0.70712 0.8232 0.12519 0.0
C307 C 0.7014 0.83889 0.15435 0.0
H308 H 0.67141 0.89223 0.13187 0.0
H309 H 0.6773 0.87519 0.15599 0.0
H310 H 0.71337 0.89853 0.09194 0.0
H311 H 0.71965 0.88196 0.11663 0.0
H312 H 0.72328 0.92767 0.19083 0.0
H313 H 0.72409 0.90432 0.16975 0.0
H314 H 0.67973 0.88694 0.22595 0.0
H315 H 0.68063 0.86384 0.20514 0.0
H316 H 0.72127 0.80361 0.19758 0.0
H317 H 0.72199 0.82514 0.1736 0.0
H318 H 0.68191 0.80595 0.23458 0.0
H319 H 0.6829 0.8275 0.21091 0.0
H320 H 0.66812 0.77756 0.14304 0.0
H321 H 0.67563 0.80471 0.16282 0.0
H322 H 0.70999 0.80875 0.09959 0.0
H323 H 0.71786 0.83594 0.11996 0.0
N324 N 0.70133 0.85166 0.14306 0.0
N325 N 0.70309 0.85535 0.1853 0.0
C326 C 0.10783 0.79548 0.13491 0.0
C327 C 0.10078 0.79879 0.11745 0.0
C328 C 0.11918 0.80942 0.14843 0.0
C329 C 0.12352 0.82695 0.145 0.0
C330 C 0.10521 0.81635 0.11393 0.0
C331 C 0.11655 0.83033 0.12756 0.0
C332 C 0.13671 0.8419 0.1583 0.0
C333 C 0.09119 0.80899 0.2015 0.0
C334 C 0.09499 0.80074 0.21726 0.0
C335 C 0.10461 0.82208 0.18922 0.0
C336 C 0.12205 0.82712 0.19249 0.0
C337 C 0.11248 0.80575 0.22025 0.0
C338 C 0.12585 0.8189 0.20815 0.0
C339 C 0.13658 0.84138 0.18032 0.0
C340 C 0.20142 0.9106 0.20765 0.0
C341 C 0.20625 0.90354 0.22375 0.0
C342 C 0.18822 0.89918 0.19345 0.0
C343 C 0.17987 0.88056 0.19503 0.0
C344 C 0.19806 0.88493 0.22497 0.0
C345 C 0.18499 0.8736 0.21086 0.0
C346 C 0.16498 0.86795 0.1815 0.0
C347 C 0.21063 0.89523 0.13684 0.0
C348 C 0.2081 0.90359 0.12007 0.0
C349 C 0.19677 0.88435 0.15014 0.0
C350 C 0.18018 0.88183 0.14713 0.0
C351 C 0.19152 0.90116 0.11723 0.0
C352 C 0.17769 0.89032 0.13057 0.0
C353 C 0.16493 0.86876 0.15948 0.0
H354 H 0.10502 0.78218 0.13776 0.0
H355 H 0.12497 0.80654 0.16123 0.0
H356 H 0.09992 0.81929 0.10064 0.0
H357 H 0.11996 0.8438 0.12442 0.0
H358 H 0.07792 0.80563 0.19894 0.0
H359 H 0.10142 0.82848 0.17746 0.0
H360 H 0.11588 0.79943 0.23188 0.0
H361 H 0.1392 0.82254 0.2109 0.0
H362 H 0.20748 0.9249 0.20641 0.0
H363 H 0.18425 0.90487 0.18163 0.0
H364 H 0.20173 0.87907 0.23692 0.0
H365 H 0.17879 0.8593 0.21237 0.0
H366 H 0.22315 0.89656 0.13922 0.0
H367 H 0.19889 0.87742 0.16229 0.0
H368 H 0.1892 0.90755 0.10458 0.0
H369 H 0.16495 0.88838 0.12779 0.0
N370 N 0.15077 0.8557 0.14877 0.0
N371 N 0.15077 0.85432 0.19098 0.0
C372 C 0.3138 0.11536 0.8265 0.0
C373 C 0.30054 0.10483 0.81185 0.0
C374 C 0.31217 0.12681 0.84049 0.0
C375 C 0.29707 0.12773 0.84044 0.0
C376 C 0.28545 0.10582 0.81177 0.0
C377 C 0.2838 0.11726 0.82587 0.0
C378 C 0.29571 0.14056 0.85445 0.0
C379 C 0.2979 0.10132 0.89564 0.0
C380 C 0.31243 0.1092 0.90916 0.0
C381 C 0.29339 0.11194 0.88498 0.0
C382 C 0.30349 0.13062 0.88741 0.0
C383 C 0.32224 0.12786 0.91189 0.0
C384 C 0.31779 0.13844 0.90119 0.0
C385 C 0.29928 0.14228 0.8761 0.0
C386 C 0.28874 0.20253 0.90345 0.0
C387 C 0.30265 0.21107 0.91784 0.0
C388 C 0.28643 0.18822 0.89084 0.0
C389 C 0.29827 0.18248 0.89199 0.0
C390 C 0.31393 0.20467 0.91963 0.0
C391 C 0.31179 0.19061 0.90682 0.0
C392 C 0.29673 0.16787 0.87831 0.0
C393 C 0.30473 0.21059 0.83475 0.0
C394 C 0.29117 0.2053 0.82026 0.0
C395 C 0.30537 0.19795 0.84667 0.0
C396 C 0.29223 0.17979 0.84471 0.0
C397 C 0.27817 0.18708 0.81806 0.0
C398 C 0.27873 0.17443 0.83016 0.0
C399 C 0.29327 0.16623 0.85659 0.0
H400 H 0.32553 0.11482 0.82709 0.0
H401 H 0.32285 0.13516 0.85114 0.0
H402 H 0.27513 0.09811 0.80048 0.0
H403 H 0.27218 0.118 0.82533 0.0
H404 H 0.28992 0.08695 0.89349 0.0
H405 H 0.282 0.10554 0.87491 0.0
H406 H 0.3336 0.13435 0.92202 0.0
H407 H 0.32574 0.15281 0.90339 0.0
H408 H 0.2798 0.20709 0.9016 0.0
H409 H 0.2755 0.18178 0.88008 0.0
H410 H 0.32448 0.21053 0.93093 0.0
H411 H 0.32094 0.18625 0.90831 0.0
H412 H 0.31517 0.22447 0.83644 0.0
H413 H 0.31631 0.20237 0.85717 0.0
H414 H 0.26757 0.1826 0.80701 0.0
H415 H 0.26861 0.16046 0.82814 0.0
N416 N 0.29272 0.15253 0.84559 0.0
N417 N 0.29965 0.15587 0.88709 0.0
C418 C 0.9034 0.19924 0.89526 0.0
C419 C 0.89738 0.20671 0.91028 0.0
C420 C 0.89155 0.18474 0.8826 0.0
C421 C 0.87348 0.17767 0.88445 0.0
C422 C 0.87929 0.19933 0.91247 0.0
C423 C 0.86748 0.18495 0.89971 0.0
C424 C 0.86063 0.16248 0.87103 0.0
C425 C 0.89149 0.20697 0.82655 0.0
C426 C 0.90119 0.20382 0.81155 0.0
C427 C 0.87929 0.19323 0.83911 0.0
C428 C 0.87666 0.1761 0.83712 0.0
C429 C 0.89869 0.18671 0.80971 0.0
C430 C 0.88639 0.17291 0.82227 0.0
C431 C 0.8627 0.16124 0.84924 0.0
C432 C 0.79173 0.10364 0.82032 0.0
C433 C 0.79626 0.09529 0.80467 0.0
C434 C 0.80426 0.11581 0.83455 0.0
C435 C 0.82148 0.11954 0.83377 0.0
C436 C 0.81349 0.09907 0.80381 0.0
C437 C 0.82599 0.1111 0.81823 0.0
C438 C 0.83523 0.13353 0.8476 0.0
C439 C 0.79478 0.09193 0.89041 0.0
C440 C 0.78661 0.09854 0.9034 0.0
C441 C 0.80994 0.10365 0.87929 0.0
C442 C 0.81711 0.12216 0.88097 0.0
C443 C 0.79406 0.11709 0.90531 0.0
C444 C 0.80918 0.12875 0.8943 0.0
C445 C 0.83302 0.13497 0.86935 0.0
H446 H 0.91726 0.20449 0.89348 0.0
H447 H 0.89652 0.17901 0.87146 0.0
H448 H 0.87428 0.2049 0.92378 0.0
H449 H 0.85361 0.17969 0.90154 0.0
H450 H 0.8932 0.22004 0.82843 0.0
H451 H 0.8716 0.19592 0.85005 0.0
H452 H 0.90584 0.18385 0.79812 0.0
H453 H 0.88436 0.15971 0.82028 0.0
H454 H 0.77865 0.1013 0.82105 0.0
H455 H 0.80058 0.12271 0.84573 0.0
H456 H 0.81734 0.09282 0.7919 0.0
H457 H 0.83926 0.11399 0.8171 0.0
H458 H 0.78932 0.07769 0.88862 0.0
H459 H 0.81604 0.09827 0.86943 0.0
H460 H 0.78827 0.12261 0.91549 0.0
H461 H 0.81457 0.14299 0.89599 0.0
N462 N 0.84582 0.14936 0.88014 0.0
N463 N 0.85003 0.14672 0.83844 0.0
C464 C 0.81191 0.72512 0.89623 0.0
C465 C 0.80454 0.7114 0.91084 0.0
C466 C 0.82647 0.7284 0.88438 0.0
C467 C 0.83377 0.71788 0.88684 0.0
C468 C 0.81244 0.70154 0.91396 0.0
C469 C 0.82692 0.70479 0.90213 0.0
C470 C 0.84814 0.71984 0.87333 0.0
C471 C 0.80194 0.70032 0.83079 0.0
C472 C 0.80444 0.7122 0.81501 0.0
C473 C 0.81601 0.70313 0.84279 0.0
C474 C 0.83283 0.71806 0.83953 0.0
C475 C 0.82129 0.72718 0.8118 0.0
C476 C 0.8354 0.73 0.82387 0.0
C477 C 0.8479 0.72034 0.8513 0.0
C478 C 0.89594 0.69688 0.82479 0.0
C479 C 0.9034 0.70687 0.80671 0.0
C480 C 0.88682 0.70129 0.83896 0.0
C481 C 0.88532 0.7161 0.83571 0.0
C482 C 0.90208 0.72183 0.80358 0.0
C483 C 0.89304 0.72634 0.81791 0.0
C484 C 0.87399 0.71958 0.84944 0.0
C485 C 0.91712 0.72517 0.8896 0.0
C486 C 0.91117 0.71255 0.90547 0.0
C487 C 0.90533 0.72779 0.87872 0.0
C488 C 0.88737 0.71762 0.88333 0.0
C489 C 0.89326 0.7028 0.91041 0.0
C490 C 0.88152 0.70536 0.89952 0.0
C491 C 0.87439 0.71938 0.87151 0.0
H492 H 0.80612 0.73295 0.89349 0.0
H493 H 0.83179 0.73888 0.87305 0.0
H494 H 0.80731 0.69115 0.92541 0.0
H495 H 0.83243 0.69662 0.90448 0.0
H496 H 0.7891 0.68872 0.83375 0.0
H497 H 0.81378 0.69345 0.85439 0.0
H498 H 0.82367 0.73643 0.79957 0.0
H499 H 0.84835 0.74143 0.82089 0.0
H500 H 0.89684 0.68538 0.8278 0.0
H501 H 0.88045 0.69274 0.85211 0.0
H502 H 0.90744 0.72966 0.78968 0.0
H503 H 0.89176 0.73761 0.81487 0.0
H504 H 0.93089 0.73306 0.88566 0.0
H505 H 0.91023 0.73767 0.86666 0.0
H506 H 0.88823 0.69282 0.92236 0.0
H507 H 0.86774 0.69736 0.90339 0.0
N508 N 0.86139 0.71941 0.88251 0.0
N509 N 0.86087 0.72028 0.84023 0.0
C510 C 0.7539 0.62065 0.46416 0.0
C511 C 0.76085 0.63513 0.4506 0.0
C512 C 0.76498 0.617 0.47502 0.0
C513 C 0.78321 0.62788 0.47265 0.0
C514 C 0.77908 0.64569 0.44791 0.0
C515 C 0.79011 0.64206 0.45878 0.0
C516 C 0.79534 0.62458 0.48412 0.0
C517 C 0.76927 0.63984 0.53358 0.0
C518 C 0.7601 0.62701 0.54888 0.0
C519 C 0.78008 0.63792 0.51931 0.0
C520 C 0.78167 0.62293 0.51976 0.0
C521 C 0.76169 0.61201 0.54931 0.0
C522 C 0.77243 0.61003 0.53492 0.0
C523 C 0.79421 0.62157 0.50582 0.0
C524 C 0.8647 0.63564 0.52599 0.0
C525 C 0.86084 0.62197 0.53987 0.0
C526 C 0.85148 0.63502 0.51421 0.0
C527 C 0.83414 0.62059 0.51579 0.0
C528 C 0.84342 0.60761 0.54163 0.0
C529 C 0.83017 0.60698 0.52976 0.0
C530 C 0.82005 0.62034 0.50391 0.0
C531 C 0.85582 0.61633 0.45772 0.0
C532 C 0.86445 0.63106 0.44457 0.0
C533 C 0.84148 0.61346 0.46971 0.0
C534 C 0.83566 0.62539 0.46891 0.0
C535 C 0.85812 0.64254 0.44321 0.0
C536 C 0.84385 0.6397 0.4552 0.0
C537 C 0.82113 0.6233 0.48221 0.0
H538 H 0.73991 0.61229 0.4666 0.0
H539 H 0.75931 0.60571 0.48525 0.0
H540 H 0.78484 0.6567 0.43727 0.0
H541 H 0.80412 0.65053 0.45651 0.0
H542 H 0.76867 0.65177 0.53316 0.0
H543 H 0.7876 0.64844 0.50834 0.0
H544 H 0.75475 0.60189 0.56091 0.0
H545 H 0.77365 0.59849 0.53574 0.0
H546 H 0.87788 0.64712 0.52466 0.0
H547 H 0.85478 0.64602 0.50412 0.0
H548 H 0.84003 0.59686 0.55216 0.0
H549 H 0.81683 0.59585 0.53142 0.0
H550 H 0.86039 0.60726 0.45912 0.0
H551 H 0.83508 0.60206 0.47976 0.0
H552 H 0.86425 0.65378 0.4329 0.0
H553 H 0.83947 0.64896 0.45412 0.0
N554 N 0.80878 0.62537 0.47324 0.0
N555 N 0.80654 0.61944 0.51484 0.0
C556 C 0.34868 0.22772 0.47005 0.0
C557 C 0.3596 0.23645 0.4529 0.0
C558 C 0.35169 0.21687 0.48249 0.0
C559 C 0.36583 0.21472 0.47821 0.0
C560 C 0.37368 0.23419 0.44862 0.0
C561 C 0.3767 0.22336 0.46108 0.0
C562 C 0.36847 0.20231 0.49027 0.0
C563 C 0.37556 0.24542 0.53681 0.0
C564 C 0.36553 0.23899 0.55508 0.0
C565 C 0.37667 0.23362 0.52267 0.0
C566 C 0.36727 0.21516 0.52632 0.0
C567 C 0.35632 0.22064 0.55881 0.0
C568 C 0.35712 0.20886 0.54456 0.0
C569 C 0.3686 0.2022 0.51237 0.0
C570 C 0.38406 0.14508 0.5305 0.0
C571 C 0.3722 0.13687 0.54707 0.0
C572 C 0.38352 0.1578 0.51851 0.0
C573 C 0.37106 0.16244 0.52281 0.0
C574 C 0.35973 0.14156 0.5512 0.0
C575 C 0.35927 0.15429 0.53933 0.0
C576 C 0.37042 0.17615 0.51078 0.0
C577 C 0.35379 0.12978 0.46651 0.0
C578 C 0.36457 0.13344 0.44889 0.0
C579 C 0.35568 0.14363 0.47954 0.0
C580 C 0.36859 0.16142 0.47544 0.0
C581 C 0.37728 0.15128 0.44455 0.0
C582 C 0.37922 0.16516 0.4577 0.0
C583 C 0.37012 0.17615 0.48875 0.0
H584 H 0.33778 0.22927 0.47385 0.0
H585 H 0.3428 0.20993 0.49524 0.0
H586 H 0.38216 0.24047 0.43533 0.0
H587 H 0.38748 0.22162 0.45726 0.0
H588 H 0.38287 0.25958 0.53377 0.0
H589 H 0.38512 0.23898 0.50918 0.0
H590 H 0.34842 0.21539 0.57276 0.0
H591 H 0.3498 0.19475 0.54787 0.0
H592 H 0.39398 0.14196 0.52706 0.0
H593 H 0.39299 0.16418 0.50609 0.0
H594 H 0.35017 0.13527 0.56355 0.0
H595 H 0.34952 0.15764 0.54291 0.0
H596 H 0.34359 0.1162 0.46997 0.0
H597 H 0.3468 0.14042 0.49261 0.0
H598 H 0.38578 0.15449 0.43109 0.0
H599 H 0.38908 0.17882 0.45407 0.0
N600 N 0.36934 0.18933 0.47936 0.0
N601 N 0.36957 0.1891 0.52164 0.0
C602 C 0.77664 0.12802 0.4568 0.0
C603 C 0.76882 0.13132 0.44015 0.0
C604 C 0.78899 0.14203 0.4695 0.0
C605 C 0.79362 0.15965 0.46605 0.0
C606 C 0.77368 0.14901 0.43646 0.0
C607 C 0.78606 0.16307 0.44927 0.0
C608 C 0.80731 0.1745 0.47903 0.0
C609 C 0.76193 0.14285 0.52257 0.0
C610 C 0.76545 0.13487 0.5389 0.0
C611 C 0.77552 0.15546 0.51007 0.0
C612 C 0.79284 0.16016 0.51354 0.0
C613 C 0.78281 0.13963 0.54228 0.0
C614 C 0.79635 0.1522 0.52982 0.0
C615 C 0.80756 0.17392 0.50105 0.0
C616 C 0.87359 0.24131 0.52841 0.0
C617 C 0.87927 0.23364 0.54277 0.0
C618 C 0.85993 0.23045 0.51446 0.0
C619 C 0.85185 0.2118 0.51465 0.0
C620 C 0.87144 0.215 0.54237 0.0
C621 C 0.85781 0.20423 0.52861 0.0
C622 C 0.83641 0.19976 0.50161 0.0
C623 C 0.88137 0.22782 0.45664 0.0
C624 C 0.87912 0.23779 0.44166 0.0
C625 C 0.86743 0.21601 0.46926 0.0
C626 C 0.85099 0.21406 0.46731 0.0
C627 C 0.86261 0.23572 0.43969 0.0
C628 C 0.84865 0.22388 0.45231 0.0
C629 C 0.83589 0.20083 0.4797 0.0
H630 H 0.77355 0.11463 0.45971 0.0
H631 H 0.79516 0.13911 0.4818 0.0
H632 H 0.76786 0.15195 0.42376 0.0
H633 H 0.78967 0.1766 0.44614 0.0
H634 H 0.74874 0.13965 0.51975 0.0
H635 H 0.77252 0.16174 0.49794 0.0
H636 H 0.78595 0.13353 0.55448 0.0
H637 H 0.80959 0.15562 0.53282 0.0
H638 H 0.87929 0.25562 0.52841 0.0
H639 H 0.85534 0.23655 0.504 0.0
H640 H 0.87577 0.20868 0.55284 0.0
H641 H 0.85182 0.18987 0.52895 0.0
H642 H 0.8938 0.22879 0.45825 0.0
H643 H 0.86941 0.20811 0.4802 0.0
H644 H 0.86047 0.24331 0.42844 0.0
H645 H 0.83602 0.22241 0.4504 0.0
N646 N 0.82136 0.1881 0.46922 0.0
N647 N 0.82219 0.18643 0.51139 0.0
C648 C 0.95914 0.53475 0.15233 0.0
C649 C 0.96964 0.54228 0.13453 0.0
C650 C 0.96059 0.52247 0.16405 0.0
C651 C 0.97262 0.51756 0.15825 0.0
C652 C 0.98151 0.53714 0.12867 0.0
C653 C 0.98288 0.52481 0.14033 0.0
C654 C 0.97425 0.50451 0.1704 0.0
C655 C 0.99601 0.55333 0.21192 0.0
C656 C 0.98662 0.55114 0.23049 0.0
C657 C 0.99233 0.53855 0.19937 0.0
C658 C 0.97906 0.52129 0.205 0.0
C659 C 0.97335 0.53386 0.23614 0.0
C660 C 0.9697 0.51904 0.22357 0.0
C661 C 0.9759 0.50556 0.19237 0.0
C662 C 0.99375 0.45141 0.21232 0.0
C663 C 0.98337 0.44405 0.23024 0.0
C664 C 0.99111 0.46226 0.19937 0.0
C665 C 0.97792 0.46581 0.20398 0.0
C666 C 0.97012 0.44756 0.23471 0.0
C667 C 0.9675 0.45841 0.22178 0.0
C668 C 0.97597 0.47855 0.19165 0.0
C669 C 0.96332 0.43283 0.14618 0.0
C670 C 0.97438 0.43808 0.1286 0.0
C671 C 0.96359 0.44566 0.15986 0.0
C672 C 0.97506 0.46394 0.15627 0.0
C673 C 0.98593 0.4564 0.12525 0.0
C674 C 0.98618 0.46915 0.13885 0.0
C675 C 0.97498 0.47787 0.16959 0.0
H676 H 0.94965 0.53816 0.15707 0.0
H677 H 0.9522 0.5167 0.17752 0.0
H678 H 0.99 0.54287 0.11527 0.0
H679 H 0.9922 0.52116 0.13553 0.0
H680 H 0.00623 0.56648 0.20708 0.0
H681 H 0.0001 0.5406 0.18544 0.0
H682 H 0.96605 0.53175 0.2505 0.0
H683 H 0.9596 0.50582 0.22837 0.0
H684 H 0.00401 0.44889 0.20839 0.0
H685 H -0.00033 0.46823 0.18607 0.0
H686 H 0.96208 0.44234 0.24856 0.0
H687 H 0.95744 0.4612 0.22582 0.0
H688 H 0.95415 0.41883 0.14907 0.0
H689 H 0.95459 0.44131 0.17293 0.0
H690 H 0.99486 0.46091 0.1121 0.0
H691 H 0.99512 0.48317 0.13575 0.0
N692 N 0.97409 0.49085 0.15987 0.0
N693 N 0.97643 0.49241 0.20216 0.0
C694 C 0.46261 0.43116 0.14796 0.0
C695 C 0.45661 0.4375 0.13232 0.0
C696 C 0.47617 0.44316 0.16136 0.0
C697 C 0.48394 0.46165 0.15923 0.0
C698 C 0.46461 0.456 0.13009 0.0
C699 C 0.4782 0.46794 0.14332 0.0
C700 C 0.49829 0.47468 0.17309 0.0
C701 C 0.45029 0.44757 0.21334 0.0
C702 C 0.45121 0.43768 0.22953 0.0
C703 C 0.46523 0.45926 0.20201 0.0
C704 C 0.48136 0.46117 0.20648 0.0
C705 C 0.4674 0.43969 0.23407 0.0
C706 C 0.48238 0.45145 0.22274 0.0
C707 C 0.49733 0.47413 0.19512 0.0
C708 C 0.55481 0.54727 0.22079 0.0
C709 C 0.56101 0.54373 0.23887 0.0
C710 C 0.54353 0.5334 0.20712 0.0
C711 C 0.53844 0.51572 0.21104 0.0
C712 C 0.55575 0.526 0.24293 0.0
C713 C 0.5445 0.51211 0.22915 0.0
C714 C 0.52554 0.50087 0.19735 0.0
C715 C 0.57279 0.53287 0.15592 0.0
C716 C 0.56972 0.54104 0.13937 0.0
C717 C 0.55886 0.52012 0.16794 0.0
C718 C 0.54164 0.51535 0.16363 0.0
C719 C 0.55245 0.53635 0.13538 0.0
C720 C 0.53858 0.52354 0.14724 0.0
C721 C 0.52656 0.50126 0.1753 0.0
H722 H 0.45666 0.41695 0.14999 0.0
H723 H 0.48063 0.43801 0.17329 0.0
H724 H 0.46044 0.46126 0.11795 0.0
H725 H 0.48412 0.48215 0.1413 0.0
H726 H 0.43799 0.44624 0.20939 0.0
H727 H 0.46421 0.467 0.18991 0.0
H728 H 0.46856 0.43243 0.24665 0.0
H729 H 0.49476 0.45295 0.22665 0.0
H730 H 0.55831 0.56074 0.21749 0.0
H731 H 0.53845 0.53649 0.19376 0.0
H732 H 0.56037 0.52288 0.2567 0.0
H733 H 0.54051 0.49853 0.23266 0.0
H734 H 0.58588 0.53601 0.15927 0.0
H735 H 0.56149 0.51372 0.18029 0.0
H736 H 0.54961 0.54263 0.1231 0.0
H737 H 0.52541 0.5201 0.14368 0.0
N738 N 0.51284 0.48822 0.16407 0.0
N739 N 0.51103 0.48721 0.20641 0.0
C740 C 0.46483 0.02799 0.22045 0.0
C741 C 0.45646 0.01389 0.23452 0.0
C742 C 0.47823 0.0297 0.20748 0.0
C743 C 0.48335 0.01721 0.20809 0.0
C744 C 0.46184 0.00159 0.23534 0.0
C745 C 0.47519 0.00328 0.22231 0.0
C746 C 0.49766 0.0189 0.19467 0.0
C747 C 0.45458 0.00761 0.15081 0.0
C748 C 0.4587 0.02097 0.13634 0.0
C749 C 0.46764 0.00818 0.16285 0.0
C750 C 0.4851 0.02232 0.16104 0.0
C751 C 0.47621 0.03509 0.13445 0.0
C752 C 0.48931 0.0357 0.14662 0.0
C753 C 0.49909 0.0225 0.1731 0.0
C754 C 0.55385 0.00909 0.14253 0.0
C755 C 0.56428 0.02401 0.13006 0.0
C756 C 0.54163 0.00886 0.15643 0.0
C757 C 0.53953 0.0235 0.15813 0.0
C758 C 0.56229 0.03877 0.13211 0.0
C759 C 0.5499 0.03842 0.14585 0.0
C760 C 0.52572 0.02276 0.17161 0.0
C761 C 0.56644 0.02665 0.21533 0.0
C762 C 0.5602 0.01228 0.22895 0.0
C763 C 0.5548 0.02872 0.20338 0.0
C764 C 0.53671 0.01633 0.20464 0.0
C765 C 0.54209 -5e-05 0.23019 0.0
C766 C 0.53048 0.00201 0.21822 0.0
C767 C 0.52405 0.01873 0.19303 0.0
H768 H 0.46093 0.03763 0.21934 0.0
H769 H 0.48464 0.04086 0.19707 0.0
H770 H 0.4559 0.99078 0.24625 0.0
H771 H 0.47908 0.99361 0.22326 0.0
H772 H 0.44121 0.99663 0.15282 0.0
H773 H 0.4641 0.99737 0.17336 0.0
H774 H 0.47987 0.04545 0.12324 0.0
H775 H 0.50273 0.04658 0.14473 0.0
H776 H 0.55469 0.99731 0.14108 0.0
H777 H 0.53346 0.99702 0.16543 0.0
H778 H 0.57024 0.05059 0.12302 0.0
H779 H 0.5484 0.04982 0.14689 0.0
H780 H 0.58033 0.03632 0.21392 0.0
H781 H 0.55993 0.04018 0.19349 0.0
H782 H 0.53683 0.98891 0.24077 0.0
H783 H 0.51657 0.9924 0.21964 0.0
N784 N 0.5101 0.017 0.20369 0.0
N785 N 0.51318 0.02449 0.16247 0.0
C786 C 0.53662 0.98579 0.79894 0.0
C787 C 0.53335 0.97605 0.77999 0.0
C788 C 0.52288 0.98231 0.81241 0.0
C789 C 0.50561 0.96887 0.80734 0.0
C790 C 0.51606 0.96254 0.775 0.0
C791 C 0.50232 0.95906 0.7885 0.0
C792 C 0.49083 0.96626 0.8205 0.0
C793 C 0.52151 0.95081 0.85922 0.0
C794 C 0.52933 0.96181 0.87706 0.0
C795 C 0.50879 0.9517 0.84804 0.0
C796 C 0.50378 0.96376 0.85434 0.0
C797 C 0.52399 0.97358 0.88357 0.0
C798 C 0.51129 0.97446 0.87239 0.0
C799 C 0.49054 0.9651 0.84249 0.0
C800 C 0.42057 0.95463 0.86613 0.0
C801 C 0.4258 0.96708 0.88288 0.0
C802 C 0.43308 0.9542 0.85331 0.0
C803 C 0.45101 0.96616 0.85712 0.0
C804 C 0.44375 0.97887 0.88677 0.0
C805 C 0.45622 0.9783 0.87412 0.0
C806 C 0.46448 0.96596 0.84382 0.0
C807 C 0.43949 0.98686 0.80217 0.0
C808 C 0.43167 0.97643 0.78395 0.0
C809 C 0.44971 0.98336 0.81495 0.0
C810 C 0.45219 0.96927 0.80985 0.0
C811 C 0.43396 0.96215 0.77907 0.0
C812 C 0.44423 0.9587 0.79183 0.0
C813 C 0.4646 0.96674 0.82181 0.0
H814 H 0.54973 0.99653 0.80305 0.0
H815 H 0.52571 0.99052 0.82647 0.0
H816 H 0.51313 0.95469 0.76062 0.0
H817 H 0.48907 0.94877 0.78416 0.0
H818 H 0.52509 0.94137 0.85401 0.0
H819 H 0.50282 0.94291 0.83451 0.0
H820 H 0.52988 0.98239 0.89709 0.0
H821 H 0.50757 0.9838 0.87761 0.0
H822 H 0.40682 0.9454 0.86279 0.0
H823 H 0.42877 0.94449 0.84051 0.0
H824 H 0.44815 0.98842 0.89976 0.0
H825 H 0.46998 0.98754 0.87744 0.0
H826 H 0.43787 0.99788 0.8064 0.0
H827 H 0.45612 0.99204 0.82843 0.0
H828 H 0.4283 0.95403 0.76501 0.0
H829 H 0.44621 0.94794 0.78744 0.0
N830 N 0.47776 0.96683 0.81104 0.0
N831 N 0.47746 0.96518 0.85332 0.0
C832 C 0.00576 0.55414 0.80276 0.0
C833 C 0.01536 0.56149 0.78433 0.0
C834 C 0.00921 0.54359 0.81522 0.0
C835 C 0.02245 0.54035 0.80958 0.0
C836 C 0.02858 0.55819 0.77877 0.0
C837 C 0.03202 0.54766 0.79121 0.0
C838 C 0.02542 0.52812 0.8216 0.0
C839 C 0.03872 0.57461 0.86551 0.0
C840 C 0.03047 0.56992 0.88508 0.0
C841 C 0.03784 0.56147 0.85185 0.0
C842 C 0.02812 0.54337 0.85728 0.0
C843 C 0.02109 0.55195 0.89068 0.0
C844 C 0.01986 0.53881 0.87689 0.0
C845 C 0.02734 0.52909 0.84359 0.0
C846 C 0.04301 0.47177 0.85987 0.0
C847 C 0.03277 0.46456 0.87793 0.0
C848 C 0.04163 0.48411 0.84814 0.0
C849 C 0.02985 0.48931 0.85412 0.0
C850 C 0.02117 0.46999 0.88397 0.0
C851 C 0.01981 0.4823 0.87227 0.0
C852 C 0.02826 0.50249 0.84213 0.0
C853 C 0.00893 0.45476 0.79852 0.0
C854 C 0.01866 0.45818 0.77996 0.0
C855 C 0.01161 0.46881 0.81183 0.0
C856 C 0.0242 0.48654 0.80697 0.0
C857 C 0.03121 0.47594 0.7751 0.0
C858 C 0.03387 0.48999 0.78843 0.0
C859 C 0.02637 0.50158 0.8202 0.0
H860 H 0.99554 0.55649 0.80753 0.0
H861 H 0.00132 0.53769 0.82903 0.0
H862 H 0.03601 0.56337 0.76449 0.0
H863 H 0.04209 0.54509 0.78637 0.0
H864 H 0.04618 0.58846 0.86104 0.0
H865 H 0.045 0.56554 0.83728 0.0
H866 H 0.01458 0.54807 0.90569 0.0
H867 H 0.01243 0.52502 0.8816 0.0
H868 H 0.05227 0.46808 0.85497 0.0
H869 H 0.0499 0.48971 0.83454 0.0
H870 H 0.0129 0.46453 0.8976 0.0
H871 H 0.01069 0.48617 0.87725 0.0
H872 H -0.00076 0.44122 0.80275 0.0
H873 H 0.00361 0.46583 0.82574 0.0
H874 H 0.03872 0.47902 0.76078 0.0
H875 H 0.04345 0.50359 0.78421 0.0
N876 N 0.02515 0.51448 0.81082 0.0
N877 N 0.0286 0.51617 0.8529 0.0
C878 C 0.53421 0.58264 0.78663 0.0
C879 C 0.54123 0.57665 0.77104 0.0
C880 C 0.52018 0.5704 0.79892 0.0
C881 C 0.51317 0.55199 0.79605 0.0
C882 C 0.53394 0.55821 0.76796 0.0
C883 C 0.52004 0.54603 0.78029 0.0
C884 C 0.49835 0.53866 0.80879 0.0
C885 C 0.54237 0.56942 0.85471 0.0
C886 C 0.53893 0.5778 0.87147 0.0
C887 C 0.52898 0.55749 0.84117 0.0
C888 C 0.51193 0.55395 0.8438 0.0
C889 C 0.52186 0.57435 0.87398 0.0
C890 C 0.50849 0.56247 0.86033 0.0
C891 C 0.49736 0.54006 0.83077 0.0
C892 C 0.44074 0.46672 0.85396 0.0
C893 C 0.43139 0.4703 0.86905 0.0
C894 C 0.45322 0.48027 0.84141 0.0
C895 C 0.45639 0.49763 0.84337 0.0
C896 C 0.43471 0.48774 0.87112 0.0
C897 C 0.44718 0.5013 0.85847 0.0
C898 C 0.47006 0.51216 0.83063 0.0
C899 C 0.42842 0.47223 0.78655 0.0
C900 C 0.4345 0.46417 0.77244 0.0
C901 C 0.44025 0.48753 0.7982 0.0
C902 C 0.45834 0.4949 0.79607 0.0
C903 C 0.45263 0.47197 0.76988 0.0
C904 C 0.4644 0.48719 0.78152 0.0
C905 C 0.4712 0.51066 0.8087 0.0
H906 H 0.53942 0.59677 0.78915 0.0
H907 H 0.51478 0.57533 0.81054 0.0
H908 H 0.5392 0.55319 0.75625 0.0
H909 H 0.51481 0.53189 0.77771 0.0
H910 H 0.55538 0.57188 0.85221 0.0
H911 H 0.53191 0.55067 0.829 0.0
H912 H 0.51869 0.58034 0.88692 0.0
H913 H 0.49536 0.5597 0.86289 0.0
H914 H 0.43842 0.45342 0.85184 0.0
H915 H 0.46053 0.4772 0.83031 0.0
H916 H 0.42794 0.49101 0.88281 0.0
H917 H 0.44965 0.51468 0.86047 0.0
H918 H 0.41453 0.46653 0.78889 0.0
H919 H 0.43526 0.49351 0.80895 0.0
H920 H 0.45774 0.4663 0.75883 0.0
H921 H 0.47831 0.49276 0.77943 0.0
N922 N 0.48529 0.52396 0.79871 0.0
N923 N 0.48314 0.52684 0.84079 0.0
C924 C 0.65532 0.78223 0.4964 0.0
C925 C 0.64388 0.77305 0.47955 0.0
C926 C 0.65279 0.79348 0.5097 0.0
C927 C 0.63838 0.79533 0.50701 0.0
C928 C 0.6295 0.77501 0.47679 0.0
C929 C 0.62681 0.78606 0.49037 0.0
C930 C 0.63623 0.80809 0.52028 0.0
C931 C 0.63482 0.76792 0.563 0.0
C932 C 0.64916 0.77545 0.5768 0.0
C933 C 0.63091 0.77886 0.55202 0.0
C934 C 0.64138 0.79751 0.55451 0.0
C935 C 0.65924 0.7941 0.5797 0.0
C936 C 0.65532 0.80499 0.56877 0.0
C937 C 0.63823 0.80949 0.54225 0.0
C938 C 0.62728 0.87012 0.56581 0.0
C939 C 0.63997 0.87799 0.58169 0.0
C940 C 0.62574 0.85608 0.55331 0.0
C941 C 0.63723 0.85005 0.55609 0.0
C942 C 0.65106 0.87158 0.58486 0.0
C943 C 0.64971 0.85779 0.57219 0.0
C944 C 0.63625 0.83543 0.54295 0.0
C945 C 0.64806 0.87859 0.49775 0.0
C946 C 0.63531 0.87357 0.48218 0.0
C947 C 0.64756 0.86581 0.51058 0.0
C948 C 0.63414 0.84777 0.50836 0.0
C949 C 0.62193 0.85548 0.47992 0.0
C950 C 0.62141 0.8427 0.49283 0.0
C951 C 0.63418 0.83401 0.52097 0.0
H952 H 0.66642 0.78093 0.49922 0.0
H953 H 0.66237 0.80101 0.52183 0.0
H954 H 0.62061 0.76845 0.46377 0.0
H955 H 0.6158 0.78755 0.48772 0.0
H956 H 0.62661 0.75358 0.56071 0.0
H957 H 0.61983 0.77276 0.54146 0.0
H958 H 0.67049 0.80037 0.59 0.0
H959 H 0.66355 0.81935 0.57097 0.0
H960 H 0.61843 0.8747 0.56326 0.0
H961 H 0.61557 0.84994 0.54155 0.0
H962 H 0.66104 0.8775 0.59689 0.0
H963 H 0.65866 0.85333 0.57479 0.0
H964 H 0.65877 0.89233 0.49959 0.0
H965 H 0.6579 0.86998 0.52195 0.0
H966 H 0.61186 0.8512 0.46816 0.0
H967 H 0.61108 0.82882 0.49066 0.0
N968 N 0.63412 0.82032 0.51055 0.0
N969 N 0.63824 0.82312 0.55263 0.0
C970 C 0.13049 0.76136 0.49961 0.0
C971 C 0.12561 0.76598 0.48123 0.0
C972 C 0.14255 0.77469 0.51344 0.0
C973 C 0.1496 0.79281 0.50929 0.0
C974 C 0.13268 0.78409 0.47718 0.0
C975 C 0.14455 0.79733 0.49103 0.0
C976 C 0.16301 0.80736 0.52294 0.0
C977 C 0.11523 0.77786 0.56353 0.0
C978 C 0.11757 0.77031 0.58127 0.0
C979 C 0.12958 0.7899 0.55156 0.0
C980 C 0.14655 0.79445 0.55692 0.0
C981 C 0.1346 0.77503 0.5867 0.0
C982 C 0.14895 0.78706 0.5747 0.0
C983 C 0.16191 0.80788 0.54499 0.0
C984 C 0.21475 0.88419 0.56589 0.0
C985 C 0.22369 0.88306 0.58301 0.0
C986 C 0.20331 0.86896 0.55402 0.0
C987 C 0.20072 0.85231 0.55885 0.0
C988 C 0.22079 0.8663 0.58809 0.0
C989 C 0.20927 0.85102 0.57619 0.0
C990 C 0.1887 0.83625 0.5461 0.0
C991 C 0.23508 0.87169 0.50576 0.0
C992 C 0.23087 0.87811 0.48839 0.0
C993 C 0.22186 0.85779 0.51738 0.0
C994 C 0.2042 0.85015 0.51191 0.0
C995 C 0.2132 0.87009 0.48267 0.0
C996 C 0.20004 0.85623 0.49426 0.0
C997 C 0.1899 0.83562 0.5241 0.0
H998 H 0.12534 0.74749 0.50299 0.0
H999 H 0.1466 0.77082 0.5271 0.0
H1000 H 0.12898 0.78804 0.46328 0.0
H1001 H 0.1498 0.81119 0.48743 0.0
H1002 H 0.10234 0.77482 0.55917 0.0
H1003 H 0.12744 0.7959 0.53835 0.0
H1004 H 0.13684 0.76936 0.60018 0.0
H1005 H 0.16196 0.79057 0.57925 0.0
H1006 H 0.21679 0.8969 0.56147 0.0
H1007 H 0.19651 0.8702 0.54099 0.0
H1008 H 0.22732 0.86499 0.60136 0.0
H1009 H 0.20724 0.83824 0.58034 0.0
H1010 H 0.24857 0.8776 0.51055 0.0
H1011 H 0.22545 0.85302 0.53063 0.0
H1012 H 0.20954 0.87448 0.46913 0.0
H1013 H 0.18653 0.85041 0.48958 0.0
N1014 N 0.17697 0.82127 0.51344 0.0
N1015 N 0.17486 0.82229 0.55573 0.0
C1016 C 0.24383 0.37995 0.48089 0.0
C1017 C 0.23809 0.36665 0.46506 0.0
C1018 C 0.23169 0.38122 0.49353 0.0
C1019 C 0.21367 0.36931 0.49033 0.0
C1020 C 0.22006 0.35484 0.46188 0.0
C1021 C 0.20797 0.35628 0.47426 0.0
C1022 C 0.20056 0.37041 0.50331 0.0
C1023 C 0.22497 0.34936 0.54519 0.0
C1024 C 0.23332 0.36013 0.56302 0.0
C1025 C 0.21453 0.35274 0.53267 0.0
C1026 C 0.2124 0.3671 0.53757 0.0
C1027 C 0.23115 0.37449 0.5679 0.0
C1028 C 0.22069 0.37786 0.55536 0.0
C1029 C 0.20032 0.36995 0.52535 0.0
C1030 C 0.12868 0.35287 0.54666 0.0
C1031 C 0.13189 0.36325 0.56506 0.0
C1032 C 0.14248 0.35569 0.5337 0.0
C1033 C 0.15976 0.36912 0.53873 0.0
C1034 C 0.14921 0.37669 0.57007 0.0
C1035 C 0.16302 0.3795 0.55708 0.0
C1036 C 0.17452 0.37125 0.52594 0.0
C1037 C 0.14397 0.38576 0.48522 0.0
C1038 C 0.1367 0.37469 0.4673 0.0
C1039 C 0.15652 0.38511 0.49709 0.0
C1040 C 0.16183 0.37316 0.49145 0.0
C1041 C 0.14236 0.36306 0.46145 0.0
C1042 C 0.15483 0.36237 0.47335 0.0
C1043 C 0.17495 0.37203 0.50389 0.0
H1044 H 0.25768 0.38921 0.4836 0.0
H1045 H 0.23634 0.39153 0.50567 0.0
H1046 H 0.21531 0.34463 0.44959 0.0
H1047 H 0.19412 0.34705 0.47148 0.0
H1048 H 0.22646 0.33827 0.54093 0.0
H1049 H 0.20781 0.34387 0.51943 0.0
H1050 H 0.23719 0.38286 0.5817 0.0
H1051 H 0.21897 0.38881 0.55963 0.0
H1052 H 0.11548 0.34251 0.54228 0.0
H1053 H 0.13965 0.34713 0.51996 0.0
H1054 H 0.15213 0.38474 0.58429 0.0
H1055 H 0.17629 0.38972 0.56144 0.0
H1056 H 0.14007 0.39505 0.48994 0.0
H1057 H 0.16211 0.39399 0.51062 0.0
H1058 H 0.13688 0.3542 0.44789 0.0
H1059 H 0.15877 0.35311 0.46861 0.0
N1060 N 0.18788 0.37141 0.49345 0.0
N1061 N 0.18733 0.37044 0.5358 0.0
H1062 H 0.96993 0.37428 0.01905 0.0
H1063 H 0.00191 0.3693 0.06463 0.0
H1064 H 0.96255 0.39001 0.04507 0.0
H1065 H 0.995 0.38547 0.0904 0.0
H1066 H 0.9719 0.40653 0.13713 0.0
H1067 H 0.97312 0.38565 0.11228 0.0
H1068 H 0.97783 0.41906 0.06139 0.0
H1069 H 0.97577 0.43933 0.08602 0.0
C1070 C 0.97531 0.37645 0.03464 0.0
C1071 C 0.98664 0.37069 0.0397 0.0
C1072 C 0.97115 0.38555 0.04954 0.0
C1073 C 0.97832 0.38917 0.06978 0.0
C1074 C 0.98909 0.38276 0.07505 0.0
C1075 C 0.99316 0.37358 0.0602 0.0
C1076 C 0.97286 0.4092 0.1206 0.0
C1077 C 0.97392 0.42468 0.11357 0.0
C1078 C 0.97374 0.39735 0.10637 0.0
C1079 C 0.97568 0.40072 0.08483 0.0
C1080 C 0.97615 0.4159 0.07782 0.0
C1081 C 0.97523 0.42769 0.09199 0.0
H1082 H 0.6378 0.6028 0.0366 0.0
H1083 H 0.65281 0.64017 0.08883 0.0
H1084 H 0.61916 0.57827 0.05953 0.0
H1085 H 0.63351 0.6158 0.11163 0.0
H1086 H 0.60309 0.56725 0.15124 0.0
H1087 H 0.62635 0.58958 0.12928 0.0
H1088 H 0.59203 0.5675 0.07562 0.0
H1089 H 0.56942 0.54461 0.09714 0.0
C1090 C 0.63716 0.60574 0.05303 0.0
C1091 C 0.64663 0.6234 0.06089 0.0
C1092 C 0.62638 0.5917 0.06617 0.0
C1093 C 0.62454 0.59503 0.08741 0.0
C1094 C 0.63468 0.61265 0.09544 0.0
C1095 C 0.64571 0.62667 0.08234 0.0
C1096 C 0.60066 0.56697 0.13467 0.0
C1097 C 0.58429 0.55422 0.12602 0.0
C1098 C 0.61393 0.57991 0.12211 0.0
C1099 C 0.61111 0.58046 0.10064 0.0
C1100 C 0.59486 0.56742 0.09198 0.0
C1101 C 0.58171 0.55443 0.10445 0.0
H1102 H 0.39447 0.03301 0.04488 0.0
H1103 H 0.35877 0.98707 0.08111 0.0
H1104 H 0.41879 0.03781 0.06667 0.0
H1105 H 0.38291 0.99197 0.10278 0.0
H1106 H 0.43182 0.99121 0.11714 0.0
H1107 H 0.4083 0.98878 0.09626 0.0
H1108 H 0.43061 0.0456 0.10362 0.0
H1109 H 0.45418 0.04806 0.12491 0.0
C1110 C 0.39178 0.02407 0.0576 0.0
C1111 C 0.37471 0.00956 0.06113 0.0
C1112 C 0.40569 0.02686 0.0701 0.0
C1113 C 0.40277 0.01512 0.08625 0.0
C1114 C 0.38561 0.00103 0.09019 0.0
C1115 C 0.37176 0.99829 0.07781 0.0
C1116 C 0.43165 0.00318 0.11454 0.0
C1117 C 0.44478 0.01979 0.12293 0.0
C1118 C 0.41818 0.00179 0.10253 0.0
C1119 C 0.41752 0.01697 0.09849 0.0
C1120 C 0.43084 0.03369 0.1064 0.0
C1121 C 0.44433 0.03508 0.11856 0.0
H1122 H 0.36184 0.95822 0.98894 0.0
H1123 H 0.35798 0.99489 0.94946 0.0
H1124 H 0.37786 0.95307 0.96139 0.0
H1125 H 0.3739 0.98964 0.92197 0.0
H1126 H 0.42548 0.99662 0.89554 0.0
H1127 H 0.40508 0.99831 0.91954 0.0
H1128 H 0.37599 0.94095 0.92475 0.0
H1129 H 0.39662 0.93929 0.9008 0.0
C1130 C 0.36415 0.96495 0.97428 0.0
C1131 C 0.35879 0.97711 0.9715 0.0
C1132 C 0.37326 0.96194 0.95847 0.0
C1133 C 0.37728 0.9711 0.93961 0.0
C1134 C 0.3712 0.98259 0.93646 0.0
C1135 C 0.362 0.98551 0.95219 0.0
C1136 C 0.4147 0.98438 0.90177 0.0
C1137 C 0.41268 0.96784 0.89641 0.0
C1138 C 0.40292 0.98532 0.91534 0.0
C1139 C 0.38892 0.96975 0.924 0.0
C1140 C 0.38671 0.95316 0.91839 0.0
C1141 C 0.39843 0.9522 0.9046 0.0
H1142 H 0.04221 0.40172 0.97432 0.0
H1143 H 0.00892 0.36421 0.92603 0.0
H1144 H 0.04829 0.42645 0.95223 0.0
H1145 H 0.01462 0.38883 0.90427 0.0
H1146 H 0.03555 0.43657 0.86355 0.0
H1147 H 0.03565 0.41374 0.88402 0.0
H1148 H 0.03196 0.43923 0.94088 0.0
H1149 H 0.03267 0.46244 0.92051 0.0
C1150 C 0.03633 0.39874 0.95893 0.0
C1151 C 0.02496 0.38098 0.95202 0.0
C1152 C 0.03972 0.41292 0.94632 0.0
C1153 C 0.03182 0.40965 0.92654 0.0
C1154 C 0.02108 0.39188 0.91931 0.0
C1155 C 0.01772 0.37773 0.93187 0.0
C1156 C 0.0351 0.43749 0.88044 0.0
C1157 C 0.03396 0.45126 0.89038 0.0
C1158 C 0.03498 0.42429 0.89217 0.0
C1159 C 0.03371 0.42457 0.9141 0.0
C1160 C 0.03313 0.43867 0.92404 0.0
C1161 C 0.03328 0.45186 0.91233 0.0
H1162 H 0.5955 0.64026 0.98174 0.0
H1163 H 0.63385 0.63479 0.94658 0.0
H1164 H 0.5744 0.62488 0.95348 0.0
H1165 H 0.61285 0.61965 0.91828 0.0
H1166 H 0.56349 0.57227 0.88776 0.0
H1167 H 0.58576 0.59043 0.91377 0.0
H1168 H 0.56805 0.62735 0.91669 0.0
H1169 H 0.54575 0.60921 0.89037 0.0
C1170 C 0.5995 0.63596 0.96791 0.0
C1171 C 0.61631 0.63862 0.9665 0.0
C1172 C 0.58744 0.62723 0.95167 0.0
C1173 C 0.59192 0.62094 0.93371 0.0
C1174 C 0.60891 0.6241 0.93205 0.0
C1175 C 0.62097 0.63285 0.94824 0.0
C1176 C 0.5645 0.58442 0.89364 0.0
C1177 C 0.55286 0.58932 0.88689 0.0
C1178 C 0.57728 0.59482 0.90859 0.0
C1179 C 0.57871 0.61036 0.91724 0.0
C1180 C 0.56715 0.61535 0.91046 0.0
C1181 C 0.55438 0.60495 0.89541 0.0
H1182 H 0.02316 0.65326 0.95328 0.0
H1183 H 0.01541 0.61401 0.99802 0.0
H1184 H 0.03084 0.63819 0.92662 0.0
H1185 H 0.02213 0.59847 0.97134 0.0
H1186 H 0.04388 0.57761 0.9243 0.0
H1187 H 0.04304 0.59796 0.95023 0.0
H1188 H 0.01733 0.61226 0.90531 0.0
H1189 H 0.01921 0.59263 0.87915 0.0
C1190 C 0.02315 0.64144 0.95742 0.0
C1191 C 0.01865 0.6348 0.97772 0.0
C1192 C 0.02742 0.63272 0.94211 0.0
C1193 C 0.02704 0.61701 0.9467 0.0
C1194 C 0.02293 0.61069 0.96722 0.0
C1195 C 0.01894 0.61955 0.98256 0.0
C1196 C 0.03833 0.58538 0.91999 0.0
C1197 C 0.03154 0.58359 0.89988 0.0
C1198 C 0.03769 0.59692 0.93485 0.0
C1199 C 0.02986 0.60661 0.93005 0.0
C1200 C 0.02365 0.60524 0.90957 0.0
C1201 C 0.02462 0.59393 0.89458 0.0
H1202 H 0.36594 0.36963 0.93016 0.0
H1203 H 0.35544 0.40581 0.96469 0.0
H1204 H 0.38489 0.39337 0.90655 0.0
H1205 H 0.37468 0.42971 0.94109 0.0
H1206 H 0.39917 0.46336 0.88185 0.0
H1207 H 0.37811 0.43941 0.90427 0.0
H1208 H 0.41372 0.42096 0.90989 0.0
H1209 H 0.43473 0.44486 0.88775 0.0
C1210 C 0.36759 0.38262 0.93267 0.0
C1211 C 0.35927 0.38586 0.94942 0.0
C1212 C 0.37855 0.39626 0.91919 0.0
C1213 C 0.38145 0.41346 0.92211 0.0
C1214 C 0.37264 0.41656 0.93839 0.0
C1215 C 0.36166 0.40289 0.95194 0.0
C1216 C 0.40254 0.45427 0.88802 0.0
C1217 C 0.41858 0.45594 0.88288 0.0
C1218 C 0.39047 0.44055 0.90083 0.0
C1219 C 0.39419 0.4282 0.90869 0.0
C1220 C 0.4103 0.43002 0.90372 0.0
C1221 C 0.42235 0.44372 0.891 0.0
H1222 H 0.59589 0.95442 0.9691 0.0
H1223 H 0.63046 0.98819 0.92051 0.0
H1224 H 0.57066 0.94788 0.94819 0.0
H1225 H 0.6053 0.98202 0.8999 0.0
H1226 H 0.55639 0.95935 0.86104 0.0
H1227 H 0.57997 0.96001 0.88014 0.0
H1228 H 0.55761 0.96455 0.93847 0.0
H1229 H 0.53368 0.9631 0.91945 0.0
C1230 C 0.59812 0.96029 0.95387 0.0
C1231 C 0.6152 0.97194 0.94655 0.0
C1232 C 0.58365 0.95665 0.94195 0.0
C1233 C 0.58595 0.96457 0.92246 0.0
C1234 C 0.60303 0.97555 0.91474 0.0
C1235 C 0.61748 0.97917 0.92664 0.0
C1236 C 0.55634 0.96015 0.87796 0.0
C1237 C 0.5432 0.96127 0.88871 0.0
C1238 C 0.56995 0.96072 0.8889 0.0
C1239 C 0.57074 0.9624 0.91084 0.0
C1240 C 0.55733 0.96304 0.92159 0.0
C1241 C 0.54373 0.96247 0.91067 0.0
H1242 H 0.60282 0.0066 0.01376 0.0
H1243 H 0.64115 0.01177 0.05789 0.0
H1244 H 0.58865 0.01386 0.04137 0.0
H1245 H 0.62739 0.01983 0.08551 0.0
H1246 H 0.58444 0.00929 0.13331 0.0
H1247 H 0.60177 0.00601 0.10616 0.0
H1248 H 0.59014 0.03591 0.06425 0.0
H1249 H 0.57174 0.038 0.09084 0.0
C1250 C 0.60843 0.00963 0.02931 0.0
C1251 C 0.62304 0.00849 0.03366 0.0
C1252 C 0.60036 0.01392 0.04517 0.0
C1253 C 0.60682 0.01741 0.06577 0.0
C1254 C 0.62185 0.01691 0.06994 0.0
C1255 C 0.62982 0.01241 0.05408 0.0
C1256 C 0.58546 0.01506 0.11826 0.0
C1257 C 0.57647 0.02373 0.11426 0.0
C1258 C 0.59566 0.01343 0.10275 0.0
C1259 C 0.59731 0.02059 0.08289 0.0
C1260 C 0.58893 0.02993 0.07921 0.0
C1261 C 0.57856 0.03137 0.09462 0.0
H1262 H 0.99221 0.64304 0.08953 0.0
H1263 H 0.96283 0.60676 0.03833 0.0
H1264 H 0.98603 0.61794 0.11065 0.0
H1265 H 0.95607 0.5815 0.05978 0.0
H1266 H 0.97117 0.54555 0.09201 0.0
H1267 H 0.97201 0.56899 0.0721 0.0
H1268 H 0.96521 0.59221 0.12909 0.0
H1269 H 0.96544 0.56932 0.14917 0.0
C1270 C 0.9841 0.62967 0.08292 0.0
C1271 C 0.97818 0.62692 0.06215 0.0
C1272 C 0.98045 0.61523 0.09511 0.0
C1273 C 0.97068 0.59767 0.08688 0.0
C1274 C 0.96395 0.59487 0.06648 0.0
C1275 C 0.96771 0.60934 0.05422 0.0
C1276 C 0.96995 0.5557 0.10033 0.0
C1277 C 0.96847 0.55566 0.12223 0.0
C1278 C 0.97014 0.56901 0.08886 0.0
C1279 C 0.96871 0.58256 0.09897 0.0
C1280 C 0.96658 0.58213 0.12081 0.0
C1281 C 0.9665 0.56887 0.13231 0.0
H1282 H 0.35904 0.37455 0.06323 0.0
H1283 H 0.39914 0.37748 0.02241 0.0
H1284 H 0.38046 0.38925 0.09119 0.0
H1285 H 0.42063 0.3924 0.05042 0.0
H1286 H 0.45222 0.40796 0.11121 0.0
H1287 H 0.42915 0.38867 0.08606 0.0
H1288 H 0.40558 0.42004 0.09625 0.0
H1289 H 0.42834 0.439 0.12152 0.0
C1290 C 0.37239 0.37821 0.06025 0.0
C1291 C 0.37742 0.37502 0.04051 0.0
C1292 C 0.38467 0.38668 0.07626 0.0
C1293 C 0.40224 0.39211 0.07294 0.0
C1294 C 0.40715 0.38826 0.05349 0.0
C1295 C 0.39486 0.37981 0.03741 0.0
C1296 C 0.44194 0.41052 0.10826 0.0
C1297 C 0.44209 0.42501 0.11821 0.0
C1298 C 0.42885 0.39959 0.09376 0.0
C1299 C 0.41558 0.40286 0.08918 0.0
C1300 C 0.41551 0.41706 0.0996 0.0
C1301 C 0.42863 0.42802 0.11392 0.0
H1302 H 0.68818 0.74183 0.37898 0.0
H1303 H 0.64599 0.69101 0.40061 0.0
H1304 H 0.68027 0.75723 0.40446 0.0
H1305 H 0.63844 0.70649 0.427 0.0
H1306 H 0.62035 0.74151 0.45901 0.0
H1307 H 0.62662 0.72502 0.43277 0.0
H1308 H 0.68201 0.7632 0.44054 0.0
H1309 H 0.67576 0.7803 0.46536 0.0
C1310 C 0.67728 0.73393 0.38935 0.0
C1311 C 0.6678 0.71521 0.38792 0.0
C1312 C 0.6728 0.74278 0.4041 0.0
C1313 C 0.65887 0.73314 0.41806 0.0
C1314 C 0.64916 0.71436 0.41641 0.0
C1315 C 0.65353 0.70547 0.40138 0.0
C1316 C 0.63386 0.74649 0.45492 0.0
C1317 C 0.64753 0.7623 0.46434 0.0
C1318 C 0.63746 0.73689 0.44007 0.0
C1319 C 0.65482 0.74281 0.43439 0.0
C1320 C 0.66846 0.75839 0.44417 0.0
C1321 C 0.66486 0.76807 0.45876 0.0
H1322 H 0.30715 0.94133 0.39384 0.0
H1323 H 0.29937 0.9794 0.4284 0.0
H1324 H 0.28843 0.91834 0.41863 0.0
H1325 H 0.28106 0.95662 0.45336 0.0
H1326 H 0.2303 0.90644 0.47362 0.0
H1327 H 0.25201 0.93031 0.45202 0.0
H1328 H 0.28486 0.90829 0.45465 0.0
H1329 H 0.26269 0.88389 0.47575 0.0
C1330 C 0.30169 0.94487 0.40691 0.0
C1331 C 0.30457 0.96213 0.40902 0.0
C1332 C 0.29102 0.93172 0.42117 0.0
C1333 C 0.28308 0.93559 0.43784 0.0
C1334 C 0.28667 0.95309 0.44045 0.0
C1335 C 0.29725 0.96618 0.42619 0.0
C1336 C 0.24211 0.90663 0.46952 0.0
C1337 C 0.24471 0.89319 0.47626 0.0
C1338 C 0.25468 0.92045 0.45735 0.0
C1339 C 0.27021 0.92125 0.45164 0.0
C1340 C 0.27297 0.90797 0.45864 0.0
C1341 C 0.26036 0.89411 0.47089 0.0
H1342 H 0.03547 0.34207 0.41946 0.0
H1343 H 0.06968 0.37807 0.37215 0.0
H1344 H 0.06071 0.34997 0.44096 0.0
H1345 H 0.095 0.38623 0.39394 0.0
H1346 H 0.13374 0.37383 0.42476 0.0
H1347 H 0.10969 0.37104 0.40451 0.0
H1348 H 0.08475 0.37364 0.46157 0.0
H1349 H 0.10856 0.3758 0.48189 0.0
C1350 C 0.04837 0.35188 0.41377 0.0
C1351 C 0.05056 0.35933 0.394 0.0
C1352 C 0.06285 0.3565 0.42618 0.0
C1353 C 0.07989 0.36867 0.41913 0.0
C1354 C 0.08205 0.37663 0.39969 0.0
C1355 C 0.06754 0.37203 0.38727 0.0
C1356 C 0.12313 0.37383 0.43298 0.0
C1357 C 0.12296 0.37485 0.45494 0.0
C1358 C 0.10945 0.37246 0.42136 0.0
C1359 C 0.09526 0.37205 0.43143 0.0
C1360 C 0.0954 0.37371 0.45336 0.0
C1361 C 0.10911 0.37512 0.46499 0.0
H1362 H 0.03161 0.32972 0.28424 0.0
H1363 H 0.03099 0.295 0.33093 0.0
H1364 H 0.04546 0.31947 0.25962 0.0
H1365 H 0.0445 0.28438 0.30603 0.0
H1366 H 0.09224 0.29289 0.26732 0.0
H1367 H 0.07334 0.29728 0.29096 0.0
H1368 H 0.04257 0.29496 0.23841 0.0
H1369 H 0.062 0.29133 0.21463 0.0
C1370 C 0.03416 0.31967 0.28916 0.0
C1371 C 0.03038 0.31334 0.30965 0.0
C1372 C 0.04199 0.31368 0.27496 0.0
C1373 C 0.04619 0.30117 0.28088 0.0
C1374 C 0.04168 0.29423 0.30108 0.0
C1375 C 0.03386 0.30025 0.31532 0.0
C1376 C 0.08142 0.29329 0.26081 0.0
C1377 C 0.07876 0.29201 0.23908 0.0
C1378 C 0.07043 0.29557 0.27439 0.0
C1379 C 0.05648 0.29656 0.26658 0.0
C1380 C 0.05334 0.29448 0.24491 0.0
C1381 C 0.06437 0.29222 0.2313 0.0
H1382 H 0.65745 0.72315 0.30912 0.0
H1383 H 0.70186 0.71959 0.29043 0.0
H1384 H 0.66683 0.74781 0.28566 0.0
H1385 H 0.71115 0.74436 0.26654 0.0
H1386 H 0.70234 0.77292 0.20875 0.0
H1387 H 0.69758 0.74968 0.23279 0.0
H1388 H 0.69387 0.78012 0.28437 0.0
H1389 H 0.69912 0.80355 0.26066 0.0
C1390 C 0.6692 0.7276 0.29994 0.0
C1391 C 0.67892 0.71944 0.30161 0.0
C1392 C 0.67462 0.7418 0.28661 0.0
C1393 C 0.68976 0.74803 0.27443 0.0
C1394 C 0.69942 0.73976 0.2758 0.0
C1395 C 0.69413 0.72567 0.28947 0.0
C1396 C 0.70093 0.77486 0.22528 0.0
C1397 C 0.70081 0.78996 0.23273 0.0
C1398 C 0.69818 0.76154 0.239 0.0
C1399 C 0.69515 0.76306 0.26033 0.0
C1400 C 0.6959 0.77853 0.26792 0.0
C1401 C 0.69881 0.79188 0.25431 0.0
H1402 H 0.29401 0.98349 0.30258 0.0
H1403 H 0.28008 0.93067 0.32033 0.0
H1404 H 0.26982 0.97019 0.27736 0.0
H1405 H 0.25614 0.91755 0.29534 0.0
H1406 H 0.20444 0.89929 0.26582 0.0
H1407 H 0.22762 0.91584 0.29148 0.0
H1408 H 0.26145 0.95096 0.2434 0.0
H1409 H 0.23816 0.93419 0.21749 0.0
C1410 C 0.28578 0.96909 0.30115 0.0
C1411 C 0.28893 0.95812 0.31345 0.0
C1412 C 0.27201 0.9615 0.28668 0.0
C1413 C 0.26105 0.94286 0.28452 0.0
C1414 C 0.26422 0.93197 0.29688 0.0
C1415 C 0.27802 0.9395 0.31111 0.0
C1416 C 0.2168 0.91057 0.2607 0.0
C1417 C 0.21962 0.91523 0.23957 0.0
C1418 C 0.23004 0.92006 0.2754 0.0
C1419 C 0.2464 0.93449 0.26935 0.0
C1420 C 0.24893 0.93989 0.24847 0.0
C1421 C 0.23563 0.93032 0.23367 0.0
H1422 H 0.70614 0.96646 0.32158 0.0
H1423 H 0.67326 0.97551 0.28195 0.0
H1424 H 0.71273 0.953 0.29184 0.0
H1425 H 0.68003 0.96226 0.25229 0.0
H1426 H 0.67297 0.91115 0.21914 0.0
H1427 H 0.67097 0.93098 0.24474 0.0
H1428 H 0.72651 0.95768 0.25639 0.0
H1429 H 0.72843 0.93755 0.23076 0.0
C1430 C 0.70056 0.96586 0.30648 0.0
C1431 C 0.68896 0.9718 0.30421 0.0
C1432 C 0.70443 0.95826 0.28941 0.0
C1433 C 0.69676 0.95643 0.26979 0.0
C1434 C 0.68592 0.96325 0.2673 0.0
C1435 C 0.68208 0.97087 0.28431 0.0
C1436 C 0.68478 0.92142 0.22698 0.0
C1437 C 0.70082 0.92278 0.22311 0.0
C1438 C 0.68368 0.93286 0.24152 0.0
C1439 C 0.69859 0.94586 0.25262 0.0
C1440 C 0.7148 0.94769 0.24817 0.0
C1441 C 0.71592 0.9363 0.23342 0.0
H1442 H 0.0301 0.73553 0.32023 0.0
H1443 H 0.01407 0.69964 0.26643 0.0
H1444 H 0.04812 0.76074 0.2979 0.0
H1445 H 0.03276 0.72469 0.24415 0.0
H1446 H 0.0615 0.77433 0.20608 0.0
H1447 H 0.0391 0.75119 0.22807 0.0
H1448 H 0.0748 0.77244 0.28051 0.0
H1449 H 0.09655 0.79615 0.25905 0.0
C1450 C 0.03041 0.73306 0.30359 0.0
C1451 C 0.0208 0.71561 0.29509 0.0
C1452 C 0.04083 0.74749 0.29078 0.0
C1453 C 0.04218 0.74479 0.26921 0.0
C1454 C 0.03196 0.72737 0.26062 0.0
C1455 C 0.02128 0.71296 0.27341 0.0
C1456 C 0.06442 0.77426 0.22242 0.0
C1457 C 0.08092 0.78704 0.23072 0.0
C1458 C 0.05164 0.76084 0.23498 0.0
C1459 C 0.0551 0.75982 0.2561 0.0
C1460 C 0.07148 0.77286 0.26444 0.0
C1461 C 0.08414 0.78634 0.25198 0.0
H1462 H 0.29835 0.31546 0.25476 0.0
H1463 H 0.2649 0.2909 0.30812 0.0
H1464 H 0.27309 0.30921 0.23423 0.0
H1465 H 0.23948 0.28384 0.28738 0.0
H1466 H 0.22315 0.28728 0.19767 0.0
H1467 H 0.2467 0.28832 0.2172 0.0
H1468 H 0.22725 0.29929 0.27421 0.0
H1469 H 0.20313 0.29696 0.25501 0.0
C1470 C 0.28553 0.30835 0.26196 0.0
C1471 C 0.28363 0.30383 0.28311 0.0
C1472 C 0.27099 0.30468 0.25015 0.0
C1473 C 0.25419 0.29618 0.25916 0.0
C1474 C 0.25224 0.29082 0.28003 0.0
C1475 C 0.2668 0.29473 0.29191 0.0
C1476 C 0.2237 0.28955 0.21444 0.0
C1477 C 0.21126 0.29215 0.2247 0.0
C1478 C 0.23736 0.29038 0.22562 0.0
C1479 C 0.239 0.29397 0.24732 0.0
C1480 C 0.22636 0.29625 0.25759 0.0
C1481 C 0.21263 0.29523 0.24647 0.0
H1482 H 0.30302 0.3356 0.39692 0.0
H1483 H 0.29243 0.36608 0.35467 0.0
H1484 H 0.28927 0.34289 0.42535 0.0
H1485 H 0.27873 0.37336 0.38317 0.0
H1486 H 0.26577 0.393 0.44362 0.0
H1487 H 0.28482 0.38962 0.41863 0.0
H1488 H 0.25759 0.33328 0.43108 0.0
H1489 H 0.23864 0.33668 0.45595 0.0
C1490 C 0.29798 0.34405 0.39375 0.0
C1491 C 0.29866 0.35012 0.37349 0.0
C1492 C 0.29007 0.34816 0.41002 0.0
C1493 C 0.28287 0.35861 0.40642 0.0
C1494 C 0.28429 0.36539 0.38641 0.0
C1495 C 0.29203 0.36112 0.37008 0.0
C1496 C 0.26409 0.37998 0.44121 0.0
C1497 C 0.25072 0.36507 0.45157 0.0
C1498 C 0.27488 0.37803 0.42686 0.0
C1499 C 0.27265 0.36119 0.42293 0.0
C1500 C 0.25971 0.34644 0.43395 0.0
C1501 C 0.24879 0.34835 0.44804 0.0
H1502 H 0.63088 0.93548 0.38024 0.0
H1503 H 0.67682 0.9716 0.41687 0.0
H1504 H 0.62305 0.91199 0.40529 0.0
H1505 H 0.66917 0.94816 0.44157 0.0
H1506 H 0.64343 0.90751 0.49204 0.0
H1507 H 0.64768 0.93051 0.46814 0.0
H1508 H 0.63419 0.89329 0.41598 0.0
H1509 H 0.62996 0.87031 0.43986 0.0
C1510 C 0.63926 0.93843 0.39365 0.0
C1511 C 0.65449 0.9554 0.39653 0.0
C1512 C 0.63483 0.92496 0.40793 0.0
C1513 C 0.64548 0.92821 0.42543 0.0
C1514 C 0.66054 0.94527 0.42844 0.0
C1515 C 0.66499 0.95869 0.41417 0.0
C1516 C 0.64136 0.90424 0.47547 0.0
C1517 C 0.63648 0.88711 0.46785 0.0
C1518 C 0.64379 0.91741 0.46178 0.0
C1519 C 0.64139 0.91377 0.44014 0.0
C1520 C 0.63595 0.89647 0.43258 0.0
C1521 C 0.63352 0.8833 0.44628 0.0
H1522 H 0.03264 0.69992 0.40922 0.0
H1523 H 0.07203 0.69791 0.37193 0.0
H1524 H 0.05398 0.71583 0.43705 0.0
H1525 H 0.09329 0.71363 0.39992 0.0
H1526 H 0.12934 0.76548 0.43901 0.0
H1527 H 0.10808 0.74458 0.41345 0.0
H1528 H 0.07292 0.71412 0.46342 0.0
H1529 H 0.09422 0.73538 0.4891 0.0
C1530 C 0.04577 0.70264 0.40707 0.0
C1531 C 0.05069 0.69784 0.38825 0.0
C1532 C 0.05797 0.71165 0.4231 0.0
C1533 C 0.07535 0.71609 0.42062 0.0
C1534 C 0.08005 0.7106 0.40217 0.0
C1535 C 0.06785 0.70154 0.38617 0.0
C1536 C 0.1171 0.75426 0.44454 0.0
C1537 C 0.11334 0.75214 0.46602 0.0
C1538 C 0.105 0.74218 0.42991 0.0
C1539 C 0.0888 0.72771 0.43641 0.0
C1540 C 0.08524 0.72524 0.45795 0.0
C1541 C 0.09746 0.7373 0.47263 0.0
H1542 H 0.34018 0.05013 0.73728 0.0
H1543 H 0.29081 0.03392 0.70802 0.0
H1544 H 0.33481 0.06687 0.76398 0.0
H1545 H 0.28558 0.05096 0.73468 0.0
H1546 H 0.27598 0.07088 0.79814 0.0
H1547 H 0.27989 0.05215 0.77255 0.0
H1548 H 0.33399 0.09418 0.76487 0.0
H1549 H 0.33009 0.11288 0.7902 0.0
C1550 C 0.32814 0.05008 0.73656 0.0
C1551 C 0.31597 0.04077 0.72043 0.0
C1552 C 0.32512 0.05977 0.75182 0.0
C1553 C 0.30985 0.06038 0.75133 0.0
C1554 C 0.29742 0.05065 0.73555 0.0
C1555 C 0.30045 0.04096 0.72023 0.0
C1556 C 0.28867 0.07615 0.79087 0.0
C1557 C 0.30275 0.09333 0.79631 0.0
C1558 C 0.2909 0.06542 0.77624 0.0
C1559 C 0.30728 0.07164 0.76682 0.0
C1560 C 0.32131 0.08886 0.77217 0.0
C1561 C 0.31907 0.09957 0.78671 0.0
H1562 H 0.9768 0.27159 0.71686 0.0
H1563 H 0.95812 0.30317 0.74618 0.0
H1564 H 0.95881 0.24736 0.74073 0.0
H1565 H 0.94064 0.27933 0.77027 0.0
H1566 H 0.89491 0.22634 0.79087 0.0
H1567 H 0.9145 0.25034 0.76795 0.0
H1568 H 0.95437 0.23793 0.77696 0.0
H1569 H 0.93449 0.21358 0.79981 0.0
C1570 C 0.96906 0.27345 0.72858 0.0
C1571 C 0.96873 0.28921 0.7295 0.0
C1572 C 0.9588 0.2596 0.7423 0.0
C1573 C 0.94809 0.2613 0.75723 0.0
C1574 C 0.94839 0.27738 0.75863 0.0
C1575 C 0.9585 0.29111 0.74488 0.0
C1576 C 0.90791 0.22882 0.7881 0.0
C1577 C 0.91323 0.21821 0.79731 0.0
C1578 C 0.91917 0.24261 0.77499 0.0
C1579 C 0.93611 0.24623 0.77082 0.0
C1580 C 0.94137 0.23543 0.77975 0.0
C1581 C 0.93002 0.22151 0.79284 0.0
H1582 H 0.73622 0.71138 0.71914 0.0
H1583 H 0.70373 0.66329 0.75365 0.0
H1584 H 0.76041 0.71996 0.74316 0.0
H1585 H 0.72768 0.67204 0.77782 0.0
H1586 H 0.77978 0.68018 0.79757 0.0
H1587 H 0.75529 0.67363 0.77545 0.0
H1588 H 0.771 0.72913 0.77925 0.0
H1589 H 0.79571 0.73573 0.80148 0.0
C1590 C 0.73415 0.70279 0.73203 0.0
C1591 C 0.71812 0.68657 0.73437 0.0
C1592 C 0.74799 0.70774 0.74582 0.0
C1593 C 0.74603 0.69656 0.76224 0.0
C1594 C 0.72974 0.68074 0.76506 0.0
C1595 C 0.71597 0.67578 0.75127 0.0
C1596 C 0.77792 0.69097 0.79391 0.0
C1597 C 0.7896 0.70845 0.80142 0.0
C1598 C 0.76386 0.68721 0.78123 0.0
C1599 C 0.76108 0.70083 0.77576 0.0
C1600 C 0.77285 0.71837 0.78308 0.0
C1601 C 0.78699 0.72215 0.79579 0.0
H1602 H 0.74101 0.67238 0.65765 0.0
H1603 H 0.69126 0.64849 0.62589 0.0
H1604 H 0.75113 0.6595 0.63123 0.0
H1605 H 0.70145 0.63544 0.59939 0.0
H1606 H 0.73775 0.63879 0.54369 0.0
H1607 H 0.72394 0.64717 0.57096 0.0
H1608 H 0.74563 0.63032 0.6181 0.0
H1609 H 0.75978 0.62235 0.59091 0.0
C1610 C 0.73218 0.66427 0.64509 0.0
C1611 C 0.71535 0.66151 0.64382 0.0
C1612 C 0.73794 0.65677 0.63004 0.0
C1613 C 0.72707 0.64642 0.61327 0.0
C1614 C 0.71015 0.64346 0.61209 0.0
C1615 C 0.7043 0.65086 0.62729 0.0
C1616 C 0.73946 0.63677 0.55988 0.0
C1617 C 0.74995 0.63003 0.56516 0.0
C1618 C 0.73142 0.64141 0.57547 0.0
C1619 C 0.73381 0.63951 0.59667 0.0
C1620 C 0.74373 0.63211 0.6019 0.0
C1621 C 0.75168 0.62739 0.58631 0.0
H1622 H 0.35126 0.03745 0.59732 0.0
H1623 H 0.3756 0.07527 0.64884 0.0
H1624 H 0.35731 0.06171 0.57449 0.0
H1625 H 0.38237 0.09962 0.6259 0.0
H1626 H 0.36764 0.13325 0.58932 0.0
H1627 H 0.36616 0.11025 0.61061 0.0
H1628 H 0.37779 0.08792 0.55636 0.0
H1629 H 0.37818 0.11043 0.5347 0.0
C1630 C 0.35828 0.051 0.60364 0.0
C1631 C 0.36276 0.05444 0.62493 0.0
C1632 C 0.36183 0.06495 0.59053 0.0
C1633 C 0.37012 0.08265 0.59839 0.0
C1634 C 0.37554 0.08613 0.61941 0.0
C1635 C 0.37178 0.07218 0.63256 0.0
C1636 C 0.36975 0.12336 0.58185 0.0
C1637 C 0.3728 0.12358 0.56022 0.0
C1638 C 0.3692 0.11031 0.59416 0.0
C1639 C 0.3719 0.09719 0.58527 0.0
C1640 C 0.37545 0.09768 0.56372 0.0
C1641 C 0.37588 0.11072 0.55133 0.0
H1642 H 0.95703 0.263 0.63658 0.0
H1643 H 0.96232 0.3138 0.62611 0.0
H1644 H 0.93381 0.24884 0.6106 0.0
H1645 H 0.93894 0.29946 0.59987 0.0
H1646 H 0.90979 0.26616 0.53775 0.0
H1647 H 0.93314 0.28294 0.56358 0.0
H1648 H 0.90294 0.2428 0.60915 0.0
H1649 H 0.87957 0.22632 0.58376 0.0
C1650 C 0.95328 0.27117 0.62869 0.0
C1651 C 0.96145 0.28951 0.63347 0.0
C1652 C 0.93992 0.26303 0.61388 0.0
C1653 C 0.93452 0.27305 0.60336 0.0
C1654 C 0.94291 0.29147 0.60775 0.0
C1655 C 0.9562 0.29962 0.6228 0.0
C1656 C 0.90804 0.26109 0.55338 0.0
C1657 C 0.89296 0.24474 0.55859 0.0
C1658 C 0.9214 0.27068 0.56812 0.0
C1659 C 0.91991 0.264 0.58822 0.0
C1660 C 0.90456 0.24805 0.59362 0.0
C1661 C 0.89122 0.23859 0.57904 0.0
H1662 H 0.334 0.26807 0.66727 0.0
H1663 H 0.34678 0.31277 0.62872 0.0
H1664 H 0.34448 0.25625 0.64015 0.0
H1665 H 0.35799 0.30127 0.6017 0.0
H1666 H 0.35387 0.26143 0.54917 0.0
H1667 H 0.34777 0.27759 0.57622 0.0
H1668 H 0.36944 0.26019 0.62288 0.0
H1669 H 0.37467 0.24344 0.59592 0.0
C1670 C 0.3393 0.27553 0.65311 0.0
C1671 C 0.33949 0.29132 0.65013 0.0
C1672 C 0.34547 0.26882 0.63756 0.0
C1673 C 0.35219 0.27783 0.6187 0.0
C1674 C 0.35271 0.29385 0.61589 0.0
C1675 C 0.34636 0.3005 0.63142 0.0
C1676 C 0.35755 0.26138 0.56519 0.0
C1677 C 0.36457 0.25113 0.57061 0.0
C1678 C 0.35412 0.27065 0.5807 0.0
C1679 C 0.35786 0.26998 0.60183 0.0
C1680 C 0.36594 0.26061 0.60689 0.0
C1681 C 0.36909 0.25114 0.59147 0.0
H1682 H 0.69688 0.07421 0.64204 0.0
H1683 H 0.68563 0.03567 0.59194 0.0
H1684 H 0.71562 0.09836 0.61865 0.0
H1685 H 0.70475 0.05976 0.56876 0.0
H1686 H 0.73247 0.10775 0.52748 0.0
H1687 H 0.7097 0.0853 0.54988 0.0
H1688 H 0.74388 0.10944 0.60336 0.0
H1689 H 0.7662 0.13225 0.58123 0.0
C1690 C 0.69831 0.07089 0.626 0.0
C1691 C 0.68989 0.053 0.61891 0.0
C1692 C 0.70913 0.08473 0.61262 0.0
C1693 C 0.71186 0.081 0.59189 0.0
C1694 C 0.70283 0.06314 0.58456 0.0
C1695 C 0.69193 0.0493 0.59791 0.0
C1696 C 0.73498 0.10843 0.54409 0.0
C1697 C 0.7512 0.12171 0.55254 0.0
C1698 C 0.72201 0.09546 0.55689 0.0
C1699 C 0.72497 0.09551 0.57842 0.0
C1700 C 0.74104 0.10909 0.58691 0.0
C1701 C 0.75396 0.12204 0.57415 0.0
H1702 H 0.92863 0.62087 0.63633 0.0
H1703 H 0.95878 0.67017 0.6032 0.0
H1704 H 0.90458 0.61076 0.61152 0.0
H1705 H 0.93479 0.66017 0.57868 0.0
H1706 H 0.89428 0.63259 0.52827 0.0
H1707 H 0.91831 0.63796 0.55076 0.0
H1708 H 0.88334 0.61967 0.60378 0.0
H1709 H 0.85932 0.6144 0.58133 0.0
C1710 C 0.9302 0.62946 0.62365 0.0
C1711 C 0.94558 0.64635 0.62178 0.0
C1712 C 0.91639 0.62371 0.60953 0.0
C1713 C 0.91778 0.63467 0.59316 0.0
C1714 C 0.93339 0.65131 0.59095 0.0
C1715 C 0.9471 0.65709 0.60511 0.0
C1716 C 0.89171 0.62966 0.54472 0.0
C1717 C 0.87493 0.62325 0.55306 0.0
C1718 C 0.90546 0.63271 0.55758 0.0
C1719 C 0.90276 0.62939 0.57907 0.0
C1720 C 0.88581 0.6222 0.58724 0.0
C1721 C 0.87204 0.61918 0.57437 0.0
H1722 H 0.97215 0.68961 0.7248 0.0
H1723 H 0.91953 0.65093 0.70415 0.0
H1724 H 0.96054 0.70139 0.75099 0.0
H1725 H 0.90801 0.66296 0.72978 0.0
H1726 H 0.89189 0.67276 0.79333 0.0
H1727 H 0.90469 0.66276 0.76698 0.0
H1728 H 0.94547 0.7175 0.75611 0.0
H1729 H 0.93306 0.72754 0.78341 0.0
C1730 C 0.95813 0.68375 0.7257 0.0
C1731 C 0.94675 0.66921 0.71255 0.0
C1732 C 0.95149 0.69056 0.74063 0.0
C1733 C 0.93333 0.68299 0.74264 0.0
C1734 C 0.92204 0.66884 0.72899 0.0
C1735 C 0.92865 0.662 0.7142 0.0
C1736 C 0.90374 0.6827 0.7856 0.0
C1737 C 0.9115 0.70097 0.7906 0.0
C1738 C 0.91095 0.67696 0.77022 0.0
C1739 C 0.92603 0.68933 0.75928 0.0
C1740 C 0.9339 0.70762 0.76434 0.0
C1741 C 0.92669 0.71338 0.77982 0.0
H1742 H 0.28541 0.26846 0.72084 0.0
H1743 H 0.32926 0.30451 0.76042 0.0
H1744 H 0.27702 0.24449 0.74535 0.0
H1745 H 0.3212 0.28061 0.78447 0.0
H1746 H 0.29727 0.23811 0.8321 0.0
H1747 H 0.3001 0.26136 0.80965 0.0
H1748 H 0.28828 0.22621 0.75565 0.0
H1749 H 0.28519 0.20291 0.77819 0.0
C1750 C 0.29316 0.27132 0.73484 0.0
C1751 C 0.30805 0.28838 0.73862 0.0
C1752 C 0.28843 0.25756 0.74881 0.0
C1753 C 0.29847 0.26059 0.76685 0.0
C1754 C 0.31301 0.27782 0.77091 0.0
C1755 C 0.31772 0.29153 0.757 0.0
C1756 C 0.29517 0.23534 0.81544 0.0
C1757 C 0.29116 0.21875 0.80688 0.0
C1758 C 0.29681 0.24865 0.80257 0.0
C1759 C 0.29458 0.24573 0.78081 0.0
C1760 C 0.28987 0.22886 0.77236 0.0
C1761 C 0.28814 0.21551 0.78527 0.0
H1762 H 0.7018 0.04292 0.73234 0.0
H1763 H 0.73751 0.03753 0.69151 0.0
H1764 H 0.72404 0.05626 0.7594 0.0
H1765 H 0.75969 0.05038 0.71897 0.0
H1766 H 0.8008 0.0958 0.7624 0.0
H1767 H 0.77866 0.07874 0.73571 0.0
H1768 H 0.74018 0.05101 0.784 0.0
H1769 H 0.76231 0.06848 0.81064 0.0
C1770 C 0.71433 0.04435 0.72923 0.0
C1771 C 0.71791 0.03925 0.7097 0.0
C1772 C 0.72708 0.05189 0.74485 0.0
C1773 C 0.7437 0.05441 0.74142 0.0
C1774 C 0.74712 0.04888 0.72205 0.0
C1775 C 0.73438 0.04143 0.70634 0.0
C1776 C 0.78767 0.08585 0.76727 0.0
C1777 C 0.78323 0.08354 0.78858 0.0
C1778 C 0.77496 0.07602 0.75198 0.0
C1779 C 0.75756 0.06357 0.75767 0.0
C1780 C 0.75335 0.06075 0.77904 0.0
C1781 C 0.76602 0.0707 0.79432 0.0
H1782 H 0.0593 0.34865 0.03416 0.0
H1783 H 0.01223 0.30803 0.06452 0.0
H1784 H 0.07667 0.34118 0.0556 0.0
H1785 H 0.02956 0.30081 0.08605 0.0
H1786 H 0.0639 0.27994 0.10551 0.0
H1787 H 0.04712 0.28726 0.0829 0.0
H1788 H 0.08549 0.34345 0.09229 0.0
H1789 H 0.10257 0.33612 0.11434 0.0
C1790 C 0.05267 0.33816 0.04539 0.0
C1791 C 0.03439 0.32894 0.04762 0.0
C1792 C 0.06262 0.33394 0.05775 0.0
C1793 C 0.05448 0.32039 0.07251 0.0
C1794 C 0.03621 0.31115 0.07464 0.0
C1795 C 0.02628 0.31538 0.06235 0.0
C1796 C 0.06881 0.29385 0.10262 0.0
C1797 C 0.08454 0.30745 0.11176 0.0
C1798 C 0.05912 0.29805 0.08982 0.0
C1799 C 0.06496 0.31594 0.08582 0.0
C1800 C 0.08072 0.32954 0.0949 0.0
C1801 C 0.09039 0.32534 0.10775 0.0
H1802 H 0.63712 0.68188 0.07118 0.0
H1803 H 0.67951 0.71189 0.02785 0.0
H1804 H 0.64556 0.70934 0.09088 0.0
H1805 H 0.68771 0.73936 0.04731 0.0
H1806 H 0.70951 0.78062 0.10167 0.0
H1807 H 0.70061 0.75343 0.08102 0.0
H1808 H 0.64641 0.73725 0.08827 0.0
H1809 H 0.65531 0.76437 0.10894 0.0
C1810 C 0.64813 0.69434 0.06573 0.0
C1811 C 0.65767 0.69468 0.04799 0.0
C1812 C 0.65292 0.7101 0.07698 0.0
C1813 C 0.66736 0.72652 0.0707 0.0
C1814 C 0.6767 0.72688 0.05274 0.0
C1815 C 0.67192 0.71114 0.04151 0.0
C1816 C 0.69571 0.77131 0.0987 0.0
C1817 C 0.68311 0.7746 0.107 0.0
C1818 C 0.69061 0.75575 0.08686 0.0
C1819 C 0.67279 0.74317 0.08303 0.0
C1820 C 0.66021 0.74653 0.09122 0.0
C1821 C 0.66532 0.76206 0.10307 0.0
H1822 H 0.30093 0.98565 0.05664 0.0
H1823 H 0.28098 0.93921 0.01546 0.0
H1824 H 0.2765 0.96885 0.08029 0.0
H1825 H 0.25659 0.92227 0.03943 0.0
H1826 H 0.20629 0.90342 0.07743 0.0
H1827 H 0.23006 0.92062 0.05289 0.0
H1828 H 0.26642 0.94441 0.10444 0.0
H1829 H 0.24256 0.92766 0.12901 0.0
C1830 C 0.29133 0.97185 0.0526 0.0
C1831 C 0.29293 0.96376 0.03415 0.0
C1832 C 0.27737 0.96219 0.06626 0.0
C1833 C 0.26466 0.9442 0.06181 0.0
C1834 C 0.2661 0.93616 0.0432 0.0
C1835 C 0.28011 0.94584 0.02952 0.0
C1836 C 0.21932 0.91249 0.08353 0.0
C1837 C 0.22254 0.91423 0.10517 0.0
C1838 C 0.23297 0.92218 0.06945 0.0
C1839 C 0.25012 0.93387 0.07671 0.0
C1840 C 0.25332 0.93565 0.09836 0.0
C1841 C 0.23969 0.92593 0.11242 0.0
H1842 H 0.35805 0.04787 0.9431 0.0
H1843 H 0.32872 0.04643 0.99793 0.0
H1844 H 0.34967 0.06654 0.92593 0.0
H1845 H 0.32016 0.0649 0.98061 0.0
H1846 H 0.3227 0.11257 0.9499 0.0
H1847 H 0.33227 0.09514 0.96773 0.0
H1848 H 0.32283 0.063 0.91148 0.0
H1849 H 0.31376 0.08079 0.89346 0.0
C1850 C 0.3499 0.0516 0.95154 0.0
C1851 C 0.34402 0.04561 0.97187 0.0
C1852 C 0.34498 0.06219 0.94163 0.0
C1853 C 0.33414 0.06708 0.95185 0.0
C1854 C 0.32863 0.06147 0.97237 0.0
C1855 C 0.33349 0.05083 0.98227 0.0
C1856 C 0.32277 0.10185 0.94131 0.0
C1857 C 0.31751 0.09808 0.92026 0.0
C1858 C 0.32811 0.09177 0.95158 0.0
C1859 C 0.32837 0.07774 0.941 0.0
C1860 C 0.32299 0.07388 0.91998 0.0
C1861 C 0.31759 0.08392 0.90973 0.0
H1862 H 0.94386 0.2951 0.00059 0.0
H1863 H 0.98821 0.30043 0.9667 0.0
H1864 H 0.92429 0.26838 0.97973 0.0
H1865 H 0.96873 0.27344 0.94631 0.0
H1866 H 0.92727 0.23692 0.89795 0.0
H1867 H 0.94716 0.26316 0.91933 0.0
H1868 H 0.91563 0.23781 0.97388 0.0
H1869 H 0.89559 0.21173 0.95235 0.0
C1870 C 0.94945 0.29048 0.98882 0.0
C1871 C 0.96758 0.29992 0.98526 0.0
C1872 C 0.93824 0.2751 0.97693 0.0
C1873 C 0.94493 0.26876 0.96131 0.0
C1874 C 0.9631 0.2781 0.95796 0.0
C1875 C 0.97428 0.29353 0.96975 0.0
C1876 C 0.92471 0.23692 0.91455 0.0
C1877 C 0.90987 0.22231 0.92348 0.0
C1878 C 0.93611 0.25193 0.92682 0.0
C1879 C 0.93298 0.25262 0.94834 0.0
C1880 C 0.91826 0.23787 0.9573 0.0
C1881 C 0.9068 0.2229 0.94499 0.0
H1882 H 0.71013 0.70436 0.95809 0.0
H1883 H 0.7113 0.662 0.98868 0.0
H1884 H 0.73781 0.71319 0.94097 0.0
H1885 H 0.73918 0.67108 0.97186 0.0
H1886 H 0.77636 0.6782 0.91814 0.0
H1887 H 0.74957 0.67037 0.93676 0.0
H1888 H 0.76896 0.72635 0.94791 0.0
H1889 H 0.79588 0.73421 0.92915 0.0
C1890 C 0.71635 0.69701 0.96129 0.0
C1891 C 0.70846 0.6824 0.97466 0.0
C1892 C 0.73228 0.70216 0.95157 0.0
C1893 C 0.74067 0.69281 0.95501 0.0
C1894 C 0.73292 0.67839 0.96866 0.0
C1895 C 0.71698 0.67324 0.97837 0.0
C1896 C 0.77501 0.68885 0.92477 0.0
C1897 C 0.78828 0.70683 0.92228 0.0
C1898 C 0.75965 0.68436 0.93546 0.0
C1899 C 0.75717 0.69773 0.94392 0.0
C1900 C 0.77041 0.71574 0.94138 0.0
C1901 C 0.78581 0.72024 0.93065 0.0
H1902 H 0.95068 0.66397 0.9841 0.0
H1903 H 0.99665 0.70232 0.95002 0.0
H1904 H 0.93342 0.67346 0.96608 0.0
H1905 H 0.97941 0.71199 0.93227 0.0
H1906 H 0.93736 0.70912 0.88861 0.0
H1907 H 0.95577 0.70088 0.90645 0.0
H1908 H 0.93073 0.69964 0.96507 0.0
H1909 H 0.91237 0.70787 0.94726 0.0
C1910 C 0.95711 0.67443 0.97279 0.0
C1911 C 0.97504 0.6824 0.9685 0.0
C1912 C 0.94724 0.67996 0.96257 0.0
C1913 C 0.95508 0.69354 0.94783 0.0
C1914 C 0.97297 0.70139 0.94341 0.0
C1915 C 0.98285 0.69589 0.95365 0.0
C1916 C 0.936 0.70736 0.90536 0.0
C1917 C 0.92336 0.70904 0.91652 0.0
C1918 C 0.9465 0.70261 0.91556 0.0
C1919 C 0.94458 0.69945 0.93713 0.0
C1920 C 0.93227 0.70163 0.94837 0.0
C1921 C 0.92179 0.70638 0.93818 0.0
H1922 H 0.30468 0.30444 0.96812 0.0
H1923 H 0.34071 0.29994 0.00742 0.0
H1924 H 0.29763 0.27691 0.94935 0.0
H1925 H 0.33371 0.27247 0.98847 0.0
H1926 H 0.33406 0.24082 0.9289 0.0
H1927 H 0.33925 0.26641 0.95028 0.0
H1928 H 0.28358 0.24323 0.95658 0.0
H1929 H 0.27822 0.2171 0.93583 0.0
C1930 C 0.31103 0.29753 0.97281 0.0
C1931 C 0.32332 0.30438 0.98917 0.0
C1932 C 0.3069 0.28174 0.96215 0.0
C1933 C 0.31518 0.27265 0.96746 0.0
C1934 C 0.32726 0.27933 0.98401 0.0
C1935 C 0.33119 0.29499 0.99489 0.0
C1936 C 0.32287 0.24093 0.93513 0.0
C1937 C 0.3057 0.22677 0.93072 0.0
C1938 C 0.32588 0.25565 0.94733 0.0
C1939 C 0.31181 0.25671 0.95513 0.0
C1940 C 0.29464 0.24273 0.95062 0.0
C1941 C 0.29161 0.22784 0.93865 0.0
H1942 H 0.69575 0.05558 0.98434 0.0
H1943 H 0.69579 0.00883 0.96229 0.0
H1944 H 0.72223 0.07443 0.96428 0.0
H1945 H 0.72203 0.02765 0.94188 0.0
H1946 H 0.7792 0.06912 0.92524 0.0
H1947 H 0.753 0.04987 0.94571 0.0
H1948 H 0.7312 0.08108 0.92815 0.0
H1949 H 0.7574 0.10033 0.90789 0.0
C1950 C 0.70138 0.04932 0.97519 0.0
C1951 C 0.69364 0.0307 0.9749 0.0
C1952 C 0.7165 0.06012 0.96359 0.0
C1953 C 0.72421 0.05254 0.9514 0.0
C1954 C 0.71655 0.03393 0.95128 0.0
C1955 C 0.70144 0.02314 0.96291 0.0
C1956 C 0.76873 0.07173 0.92561 0.0
C1957 C 0.77039 0.08629 0.91506 0.0
C1958 C 0.75372 0.06072 0.93734 0.0
C1959 C 0.74006 0.06401 0.93869 0.0
C1960 C 0.74163 0.07839 0.92781 0.0
C1961 C 0.75662 0.08941 0.91615 0.0
H1962 H 0.68749 0.95517 0.00495 0.0
H1963 H 0.64548 0.94697 0.04613 0.0
H1964 H 0.69433 0.93828 0.02822 0.0
H1965 H 0.65254 0.93042 0.06953 0.0
H1966 H 0.65936 0.88744 0.0968 0.0
H1967 H 0.65184 0.90263 0.07181 0.0
H1968 H 0.70673 0.94189 0.06306 0.0
H1969 H 0.71426 0.92665 0.08807 0.0
C1970 C 0.67967 0.94971 0.01891 0.0
C1971 C 0.66595 0.95245 0.0237 0.0
C1972 C 0.68368 0.94014 0.03232 0.0
C1973 C 0.67404 0.93307 0.05077 0.0
C1974 C 0.6601 0.93551 0.05532 0.0
C1975 C 0.65611 0.94508 0.04194 0.0
C1976 C 0.66983 0.8994 0.08967 0.0
C1977 C 0.68741 0.90592 0.09453 0.0
C1978 C 0.66551 0.90809 0.07533 0.0
C1979 C 0.67868 0.92349 0.06548 0.0
C1980 C 0.69628 0.92991 0.07016 0.0
C1981 C 0.7006 0.9212 0.08451 0.0
H1982 H 0.01671 0.70394 0.05441 0.0
H1983 H 0.06245 0.71931 0.0164 0.0
H1984 H 0.03389 0.73 0.07711 0.0
H1985 H 0.07978 0.7453 0.03952 0.0
H1986 H 0.10142 0.79892 0.07466 0.0
H1987 H 0.08341 0.77399 0.05047 0.0
H1988 H 0.0569 0.74007 0.10282 0.0
H1989 H 0.0744 0.76509 0.12689 0.0
C1990 C 0.03045 0.71286 0.0509 0.0
C1991 C 0.03823 0.7095 0.03363 0.0
C1992 C 0.04032 0.72777 0.064 0.0
C1993 C 0.05821 0.73966 0.06019 0.0
C1994 C 0.06597 0.73647 0.04274 0.0
C1995 C 0.05607 0.72152 0.02959 0.0
C1996 C 0.09155 0.7862 0.08096 0.0
C1997 C 0.08932 0.78395 0.10268 0.0
C1998 C 0.0814 0.77188 0.06712 0.0
C1999 C 0.06878 0.75505 0.07473 0.0
C2000 C 0.06639 0.75291 0.09644 0.0
C2001 C 0.07654 0.76719 0.11025 0.0
H2002 H 0.29498 0.35965 0.04648 0.0
H2003 H 0.26046 0.31565 0.00493 0.0
H2004 H 0.27089 0.35094 0.07083 0.0
H2005 H 0.2364 0.30683 0.02949 0.0
H2006 H 0.19422 0.30656 0.07177 0.0
H2007 H 0.21738 0.3164 0.04568 0.0
H2008 H 0.25423 0.32555 0.09423 0.0
H2009 H 0.23109 0.31556 0.12029 0.0
C2010 C 0.28222 0.34822 0.04243 0.0
C2011 C 0.27968 0.33826 0.02383 0.0
C2012 C 0.26845 0.34316 0.05647 0.0
C2013 C 0.25182 0.32806 0.0522 0.0
C2014 C 0.24906 0.31856 0.03317 0.0
C2015 C 0.26286 0.3236 0.01913 0.0
C2016 C 0.20721 0.31044 0.07685 0.0
C2017 C 0.21081 0.31028 0.09812 0.0
C2018 C 0.22048 0.31615 0.0619 0.0
C2019 C 0.23764 0.32188 0.06793 0.0
C2020 C 0.2412 0.32154 0.08916 0.0
C2021 C 0.22794 0.31579 0.10408 0.0
H2022 H 0.7195 0.68122 0.36913 0.0
H2023 H 0.6737 0.63814 0.39883 0.0
H2024 H 0.73797 0.67379 0.38826 0.0
H2025 H 0.69217 0.63091 0.41812 0.0
H2026 H 0.72962 0.61172 0.43135 0.0
H2027 H 0.711 0.61877 0.41192 0.0
H2028 H 0.74733 0.675 0.42456 0.0
H2029 H 0.76587 0.66798 0.44408 0.0
C2030 C 0.71338 0.67019 0.37974 0.0
C2031 C 0.69514 0.66028 0.38247 0.0
C2032 C 0.72396 0.666 0.39078 0.0
C2033 C 0.71652 0.65178 0.40471 0.0
C2034 C 0.69827 0.64181 0.40732 0.0
C2035 C 0.68771 0.64603 0.39635 0.0
C2036 C 0.73353 0.62557 0.43017 0.0
C2037 C 0.74925 0.63929 0.4392 0.0
C2038 C 0.72288 0.62961 0.41901 0.0
C2039 C 0.72775 0.64745 0.41663 0.0
C2040 C 0.74339 0.66114 0.4258 0.0
C2041 C 0.754 0.65711 0.43699 0.0
H2042 H 0.32492 0.04888 0.3545 0.0
H2043 H 0.35904 0.03987 0.39177 0.0
H2044 H 0.3337 0.07612 0.37499 0.0
H2045 H 0.368 0.06719 0.41192 0.0
H2046 H 0.35975 0.10163 0.46028 0.0
H2047 H 0.35384 0.07635 0.43768 0.0
H2048 H 0.35854 0.10652 0.38335 0.0
H2049 H 0.36395 0.1317 0.4061 0.0
C2050 C 0.33443 0.05281 0.36688 0.0
C2051 C 0.34115 0.04212 0.37163 0.0
C2052 C 0.33953 0.06847 0.37854 0.0
C2053 C 0.35145 0.07373 0.39517 0.0
C2054 C 0.35858 0.06333 0.39944 0.0
C2055 C 0.35349 0.04771 0.38781 0.0
C2056 C 0.3595 0.10285 0.44351 0.0
C2057 C 0.36222 0.1186 0.43496 0.0
C2058 C 0.3563 0.08845 0.43055 0.0
C2059 C 0.35573 0.08945 0.40872 0.0
C2060 C 0.35875 0.10531 0.40012 0.0
C2061 C 0.36202 0.11978 0.41312 0.0
H2062 H 0.95337 0.28426 0.33929 0.0
H2063 H 0.97482 0.32513 0.38818 0.0
H2064 H 0.92838 0.26532 0.36154 0.0
H2065 H 0.94968 0.30642 0.41017 0.0
H2066 H 0.91352 0.26028 0.45234 0.0
H2067 H 0.93791 0.27943 0.42956 0.0
H2068 H 0.90243 0.26267 0.37717 0.0
H2069 H 0.87813 0.24287 0.39979 0.0
C2070 C 0.95268 0.28927 0.3547 0.0
C2071 C 0.96613 0.30616 0.36199 0.0
C2072 C 0.93831 0.27845 0.36742 0.0
C2073 C 0.93706 0.28432 0.38768 0.0
C2074 C 0.95038 0.30136 0.39479 0.0
C2075 C 0.96475 0.31213 0.38212 0.0
C2076 C 0.91094 0.26057 0.43593 0.0
C2077 C 0.89388 0.25 0.42789 0.0
C2078 C 0.92489 0.27171 0.4229 0.0
C2079 C 0.92212 0.27262 0.40153 0.0
C2080 C 0.90504 0.26215 0.39351 0.0
C2081 C 0.89108 0.25097 0.40654 0.0
H2082 H 0.98001 0.38046 0.33342 0.0
H2083 H 0.02278 0.38688 0.29498 0.0
H2084 H 0.97545 0.39864 0.30952 0.0
H2085 H 0.01798 0.40474 0.27091 0.0
H2086 H 0.01497 0.45053 0.24366 0.0
H2087 H 0.02041 0.43341 0.26823 0.0
H2088 H 0.96473 0.39617 0.27409 0.0
H2089 H 0.9593 0.41331 0.24955 0.0
C2090 C 0.98847 0.38577 0.31991 0.0
C2091 C 0.00173 0.38218 0.3161 0.0
C2092 C 0.98577 0.39609 0.30613 0.0
C2093 C 0.99628 0.40304 0.28824 0.0
C2094 C 0.00977 0.39973 0.28465 0.0
C2095 C 0.01246 0.38942 0.29842 0.0
C2096 C 0.0039 0.43858 0.25001 0.0
C2097 C 0.9867 0.43328 0.24464 0.0
C2098 C 0.00702 0.42878 0.26413 0.0
C2099 C 0.993 0.41346 0.27319 0.0
C2100 C 0.97581 0.40809 0.26769 0.0
C2101 C 0.97269 0.41788 0.25359 0.0
H2102 H 0.60309 0.6254 0.33803 0.0
H2103 H 0.64823 0.63544 0.30183 0.0
H2104 H 0.58438 0.59941 0.31543 0.0
H2105 H 0.62965 0.60947 0.27961 0.0
H2106 H 0.58888 0.57654 0.22925 0.0
H2107 H 0.60729 0.60141 0.25311 0.0
H2108 H 0.5782 0.56919 0.30564 0.0
H2109 H 0.55938 0.5444 0.28163 0.0
C2110 C 0.60904 0.62201 0.32537 0.0
C2111 C 0.62713 0.63257 0.32165 0.0
C2112 C 0.59834 0.60708 0.31251 0.0
C2113 C 0.60554 0.60248 0.29566 0.0
C2114 C 0.62367 0.61284 0.29224 0.0
C2115 C 0.63433 0.6277 0.30507 0.0
C2116 C 0.58636 0.57479 0.24588 0.0
C2117 C 0.57267 0.55853 0.25356 0.0
C2118 C 0.59701 0.58898 0.25957 0.0
C2119 C 0.59422 0.58725 0.28127 0.0
C2120 C 0.58058 0.57096 0.28899 0.0
C2121 C 0.56994 0.55672 0.27527 0.0
H2122 H 0.37684 0.02636 0.29523 0.0
H2123 H 0.37258 0.98125 0.32591 0.0
H2124 H 0.40072 0.02914 0.27387 0.0
H2125 H 0.39669 0.98419 0.3046 0.0
H2126 H 0.42591 0.98323 0.24476 0.0
H2127 H 0.40248 0.98029 0.26733 0.0
H2128 H 0.43135 0.03744 0.27802 0.0
H2129 H 0.45487 0.04041 0.25566 0.0
C2130 C 0.38103 0.01707 0.29748 0.0
C2131 C 0.37281 0.00357 0.31226 0.0
C2132 C 0.39479 0.01874 0.28531 0.0
C2133 C 0.4006 0.00691 0.28759 0.0
C2134 C 0.39238 0.9934 0.30237 0.0
C2135 C 0.37865 0.99178 0.31465 0.0
C2136 C 0.42735 0.99515 0.25212 0.0
C2137 C 0.44224 0.01206 0.24836 0.0
C2138 C 0.41393 0.99345 0.26504 0.0
C2139 C 0.41507 0.00863 0.27441 0.0
C2140 C 0.42999 0.02552 0.27077 0.0
C2141 C 0.44344 0.02722 0.25792 0.0
H2142 H 0.60884 0.97849 0.31798 0.0
H2143 H 0.65183 0.02464 0.28852 0.0
H2144 H 0.58814 0.98169 0.29719 0.0
H2145 H 0.63122 0.02765 0.26768 0.0
H2146 H 0.58886 0.03861 0.25016 0.0
H2147 H 0.6089 0.03548 0.27212 0.0
H2148 H 0.57921 0.97849 0.26004 0.0
H2149 H 0.55921 0.98161 0.2379 0.0
C2150 C 0.61386 0.98932 0.30712 0.0
C2151 C 0.63197 0.00131 0.3049 0.0
C2152 C 0.60202 0.99108 0.29514 0.0
C2153 C 0.60807 0.00492 0.28081 0.0
C2154 C 0.62616 0.01698 0.27877 0.0
C2155 C 0.63797 0.01518 0.29064 0.0
C2156 C 0.58671 0.02543 0.252 0.0
C2157 C 0.57248 0.01037 0.24221 0.0
C2158 C 0.59816 0.02363 0.26463 0.0
C2159 C 0.59563 0.00673 0.26781 0.0
C2160 C 0.58135 0.99165 0.25813 0.0
C2161 C 0.56992 0.99345 0.24544 0.0
H2162 H 0.03159 0.65859 0.28199 0.0
H2163 H 0.98992 0.62605 0.32508 0.0
H2164 H 0.02481 0.6319 0.26169 0.0
H2165 H 0.98342 0.59931 0.30503 0.0
H2166 H 0.96392 0.55867 0.24994 0.0
H2167 H 0.97105 0.58496 0.27146 0.0
H2168 H 0.02616 0.6053 0.26329 0.0
H2169 H 0.01901 0.57911 0.24165 0.0
C2170 C 0.02109 0.64573 0.28725 0.0
C2171 C 0.01127 0.64445 0.30512 0.0
C2172 C 0.01726 0.63041 0.27567 0.0
C2173 C 0.00355 0.61347 0.28172 0.0
C2174 C 0.99389 0.61218 0.29977 0.0
C2175 C 0.9977 0.6275 0.31133 0.0
C2176 C 0.97754 0.5687 0.25291 0.0
C2177 C 0.9909 0.56687 0.24403 0.0
C2178 C 0.98164 0.58374 0.26526 0.0
C2179 C -0.00082 0.59726 0.26905 0.0
C2180 C 0.01252 0.5953 0.26037 0.0
C2181 C 0.00843 0.58029 0.24799 0.0
H2182 H 0.37349 0.35882 0.31391 0.0
H2183 H 0.34535 0.3763 0.27778 0.0
H2184 H 0.4004 0.37952 0.29557 0.0
H2185 H 0.37214 0.39667 0.25913 0.0
H2186 H 0.42651 0.44404 0.24496 0.0
H2187 H 0.40015 0.42393 0.26452 0.0
H2188 H 0.41363 0.38364 0.26127 0.0
H2189 H 0.44011 0.40387 0.24184 0.0
C2190 C 0.37303 0.36704 0.30202 0.0
C2191 C 0.35727 0.36592 0.29731 0.0
C2192 C 0.38844 0.37884 0.29143 0.0
C2193 C 0.38842 0.38975 0.27587 0.0
C2194 C 0.37266 0.38865 0.27123 0.0
C2195 C 0.35728 0.37689 0.28185 0.0
C2196 C 0.42378 0.43085 0.24832 0.0
C2197 C 0.43534 0.4255 0.24178 0.0
C2198 C 0.40867 0.41932 0.25952 0.0
C2199 C 0.40474 0.40215 0.2644 0.0
C2200 C 0.41639 0.39687 0.25802 0.0
C2201 C 0.43155 0.40843 0.24686 0.0
H2202 H 0.35935 0.32366 0.39416 0.0
H2203 H 0.32004 0.27681 0.3598 0.0
H2204 H 0.36519 0.30502 0.41544 0.0
H2205 H 0.32618 0.25814 0.38091 0.0
H2206 H 0.32797 0.22947 0.43878 0.0
H2207 H 0.32231 0.2479 0.41668 0.0
H2208 H 0.37782 0.28669 0.41331 0.0
H2209 H 0.38343 0.26863 0.43611 0.0
C2210 C 0.35204 0.30939 0.39102 0.0
C2211 C 0.3392 0.30172 0.37529 0.0
C2212 C 0.35547 0.2987 0.40317 0.0
C2213 C 0.34616 0.28009 0.39988 0.0
C2214 C 0.33343 0.27242 0.38401 0.0
C2215 C 0.32999 0.28313 0.37183 0.0
C2216 C 0.33895 0.24202 0.43351 0.0
C2217 C 0.35615 0.24761 0.43929 0.0
C2218 C 0.33572 0.25247 0.4206 0.0
C2219 C 0.34961 0.26876 0.41319 0.0
C2220 C 0.36681 0.27431 0.41891 0.0
C2221 C 0.37004 0.26386 0.43181 0.0
H2222 H 0.72428 0.0487 0.34361 0.0
H2223 H 0.68081 0.03385 0.38551 0.0
H2224 H 0.74235 0.07591 0.36452 0.0
H2225 H 0.6987 0.06121 0.40604 0.0
H2226 H 0.7424 0.09841 0.452 0.0
H2227 H 0.72309 0.07277 0.42965 0.0
H2228 H 0.74649 0.10465 0.37499 0.0
H2229 H 0.76638 0.13019 0.39744 0.0
C2230 C 0.71852 0.05132 0.35715 0.0
C2231 C 0.70116 0.03904 0.363 0.0
C2232 C 0.72884 0.06698 0.36905 0.0
C2233 C 0.72199 0.0707 0.38701 0.0
C2234 C 0.70447 0.05861 0.3925 0.0
C2235 C 0.69419 0.04295 0.38067 0.0
C2236 C 0.74345 0.09995 0.43521 0.0
C2237 C 0.75601 0.11628 0.42648 0.0
C2238 C 0.73224 0.0853 0.42239 0.0
C2239 C 0.73327 0.08665 0.40052 0.0
C2240 C 0.74552 0.10313 0.39178 0.0
C2241 C 0.75676 0.11781 0.40463 0.0
H2242 H 0.95751 0.67759 0.36662 0.0
H2243 H 0.95436 0.63135 0.39268 0.0
H2244 H 0.93018 0.66989 0.38394 0.0
H2245 H 0.92718 0.62384 0.41029 0.0
H2246 H 0.87024 0.60728 0.42314 0.0
H2247 H 0.89644 0.61373 0.40367 0.0
H2248 H 0.92058 0.66978 0.41989 0.0
H2249 H 0.89452 0.66335 0.43932 0.0
C2250 C 0.95098 0.66577 0.37601 0.0
C2251 C 0.95816 0.65513 0.37836 0.0
C2252 C 0.93537 0.66141 0.38602 0.0
C2253 C 0.92659 0.64632 0.39859 0.0
C2254 C 0.93356 0.63546 0.40056 0.0
C2255 C 0.94919 0.63983 0.39056 0.0
C2256 C 0.88119 0.62095 0.42263 0.0
C2257 C 0.88028 0.63481 0.43268 0.0
C2258 C 0.89618 0.62465 0.41147 0.0
C2259 C 0.91054 0.64228 0.41015 0.0
C2260 C 0.90961 0.65611 0.42026 0.0
C2261 C 0.89467 0.65242 0.4314 0.0
H2262 H 0.36863 0.97871 0.6834 0.0
H2263 H 0.38143 0.02441 0.72334 0.0
H2264 H 0.38594 0.97187 0.70574 0.0
H2265 H 0.3983 0.01732 0.74586 0.0
H2266 H 0.44061 0.00941 0.77103 0.0
H2267 H 0.42472 0.0168 0.74708 0.0
H2268 H 0.38454 0.96087 0.74046 0.0
H2269 H 0.40056 0.95348 0.76428 0.0
C2270 C 0.37516 0.98732 0.6969 0.0
C2271 C 0.37362 0.00209 0.70159 0.0
C2272 C 0.38498 0.98332 0.70979 0.0
C2273 C 0.39345 0.994 0.72765 0.0
C2274 C 0.39214 0.00894 0.7321 0.0
C2275 C 0.38237 0.01296 0.71921 0.0
C2276 C 0.4283 0.99871 0.7646 0.0
C2277 C 0.42179 0.98087 0.76963 0.0
C2278 C 0.41921 0.00294 0.75085 0.0
C2279 C 0.40335 0.98943 0.74185 0.0
C2280 C 0.39685 0.97157 0.74685 0.0
C2281 C 0.40599 0.96734 0.76055 0.0
H2282 H 0.02164 0.37156 0.7176 0.0
H2283 H 0.97869 0.37082 0.68728 0.0
H2284 H 0.02735 0.39751 0.73865 0.0
H2285 H 0.98463 0.39705 0.70818 0.0
H2286 H 0.98724 0.42899 0.76797 0.0
H2287 H 0.9821 0.40412 0.74499 0.0
H2288 H 0.03782 0.42919 0.73581 0.0
H2289 H 0.04299 0.45376 0.75936 0.0
C2290 C 0.0135 0.37703 0.71529 0.0
C2291 C -0.00034 0.36908 0.70082 0.0
C2292 C 0.01685 0.39198 0.72728 0.0
C2293 C 0.00643 0.39932 0.7251 0.0
C2294 C 0.99275 0.39156 0.71039 0.0
C2295 C 0.98942 0.3766 0.69834 0.0
C2296 C 0.99839 0.42912 0.76117 0.0
C2297 C 0.01553 0.44328 0.76557 0.0
C2298 C 0.99544 0.41499 0.74779 0.0
C2299 C 0.00955 0.4147 0.73858 0.0
C2300 C 0.02668 0.42895 0.74283 0.0
C2301 C 0.02964 0.4431 0.75616 0.0
H2302 H 0.61547 0.64392 0.67504 0.0
H2303 H 0.64645 0.64354 0.72573 0.0
H2304 H 0.58887 0.62543 0.69524 0.0
H2305 H 0.61991 0.62496 0.74571 0.0
H2306 H 0.57095 0.60722 0.78432 0.0
H2307 H 0.59669 0.62724 0.76361 0.0
H2308 H 0.57162 0.59467 0.7083 0.0
H2309 H 0.54572 0.57494 0.7289 0.0
C2310 C 0.61661 0.63985 0.69043 0.0
C2311 C 0.63308 0.6452 0.69877 0.0
C2312 C 0.60137 0.62923 0.70197 0.0
C2313 C 0.60232 0.62383 0.7221 0.0
C2314 C 0.61878 0.62914 0.73038 0.0
C2315 C 0.63398 0.63967 0.71884 0.0
C2316 C 0.57084 0.60451 0.76768 0.0
C2317 C 0.55636 0.58947 0.75824 0.0
C2318 C 0.58564 0.61585 0.75587 0.0
C2319 C 0.58622 0.61244 0.73437 0.0
C2320 C 0.57153 0.5977 0.72481 0.0
C2321 C 0.55677 0.58632 0.73664 0.0
H2322 H 0.66913 0.71503 0.66542 0.0
H2323 H 0.69374 0.71259 0.60796 0.0
H2324 H 0.65937 0.73255 0.64837 0.0
H2325 H 0.68437 0.73055 0.59105 0.0
H2326 H 0.64906 0.74621 0.56109 0.0
H2327 H 0.65806 0.7282 0.57861 0.0
H2328 H 0.67012 0.76151 0.63438 0.0
H2329 H 0.66031 0.77894 0.61722 0.0
C2330 C 0.67263 0.7184 0.64921 0.0
C2331 C 0.6822 0.7124 0.63804 0.0
C2332 C 0.66708 0.7285 0.63945 0.0
C2333 C 0.67103 0.73292 0.61832 0.0
C2334 C 0.68084 0.72713 0.60724 0.0
C2335 C 0.68633 0.71695 0.61699 0.0
C2336 C 0.65336 0.74951 0.5772 0.0
C2337 C 0.65397 0.76403 0.58774 0.0
C2338 C 0.65876 0.73934 0.58715 0.0
C2339 C 0.66494 0.74348 0.60786 0.0
C2340 C 0.66531 0.75785 0.61849 0.0
C2341 C 0.65986 0.76798 0.60856 0.0
H2342 H 0.30546 0.96605 0.66383 0.0
H2343 H 0.29043 0.9935 0.62243 0.0
H2344 H 0.28314 0.93748 0.64823 0.0
H2345 H 0.26839 0.96499 0.60658 0.0
H2346 H 0.21945 0.91026 0.59629 0.0
H2347 H 0.24063 0.93802 0.61442 0.0
H2348 H 0.2774 0.9207 0.61527 0.0
H2349 H 0.25616 0.89289 0.5972 0.0
C2350 C 0.2974 0.966 0.65141 0.0
C2351 C 0.29973 0.98206 0.64437 0.0
C2352 C 0.28468 0.94963 0.64239 0.0
C2353 C 0.27398 0.94895 0.62617 0.0
C2354 C 0.27623 0.96502 0.61926 0.0
C2355 C 0.28895 0.98138 0.62826 0.0
C2356 C 0.23207 0.9124 0.60032 0.0
C2357 C 0.23617 0.89943 0.59521 0.0
C2358 C 0.24421 0.92831 0.61069 0.0
C2359 C 0.26074 0.93162 0.61616 0.0
C2360 C 0.2647 0.91847 0.61149 0.0
C2361 C 0.25254 0.90254 0.60113 0.0
H2362 H 0.04631 0.32171 0.65544 0.0
H2363 H 0.04525 0.36386 0.62416 0.0
H2364 H 0.07225 0.32822 0.63537 0.0
H2365 H 0.0709 0.37012 0.60394 0.0
H2366 H 0.12651 0.38777 0.58507 0.0
H2367 H 0.10215 0.38205 0.60782 0.0
H2368 H 0.07957 0.32525 0.59904 0.0
H2369 H 0.10421 0.33098 0.57692 0.0
C2370 C 0.05161 0.33236 0.64432 0.0
C2371 C 0.0437 0.34224 0.64137 0.0
C2372 C 0.06641 0.33603 0.63276 0.0
C2373 C 0.07361 0.34968 0.61806 0.0
C2374 C 0.06581 0.35968 0.61533 0.0
C2375 C 0.05102 0.356 0.62684 0.0
C2376 C 0.11644 0.37408 0.58821 0.0
C2377 C 0.11724 0.35983 0.57913 0.0
C2378 C 0.10242 0.3708 0.60107 0.0
C2379 C 0.08891 0.3532 0.60517 0.0
C2380 C 0.08985 0.33896 0.59635 0.0
C2381 C 0.10385 0.34224 0.58346 0.0
H2382 H 0.31749 0.35694 0.62236 0.0
H2383 H 0.27129 0.31753 0.65519 0.0
H2384 H 0.29957 0.36348 0.60094 0.0
H2385 H 0.25335 0.32433 0.63391 0.0
H2386 H 0.22573 0.32746 0.57574 0.0
H2387 H 0.24338 0.32085 0.59772 0.0
H2388 H 0.28221 0.37722 0.60396 0.0
H2389 H 0.26485 0.38379 0.58136 0.0
C2390 C 0.30351 0.34971 0.62508 0.0
C2391 C 0.29582 0.3367 0.64048 0.0
C2392 C 0.29325 0.35355 0.61287 0.0
C2393 C 0.27505 0.34446 0.61576 0.0
C2394 C 0.26733 0.33143 0.63116 0.0
C2395 C 0.27761 0.3276 0.64342 0.0
C2396 C 0.23811 0.33843 0.58164 0.0
C2397 C 0.24394 0.35615 0.57671 0.0
C2398 C 0.24812 0.33465 0.59445 0.0
C2399 C 0.26419 0.3485 0.60258 0.0
C2400 C 0.26997 0.36623 0.59775 0.0
C2401 C 0.25994 0.37001 0.58498 0.0
H2402 H 0.64566 0.97336 0.63444 0.0
H2403 H 0.67837 0.96403 0.67394 0.0
H2404 H 0.63723 0.94611 0.61441 0.0
H2405 H 0.67055 0.93716 0.65338 0.0
H2406 H 0.64232 0.88178 0.62413 0.0
H2407 H 0.64773 0.90756 0.6455 0.0
H2408 H 0.64857 0.93445 0.58967 0.0
H2409 H 0.64252 0.90835 0.56851 0.0
C2410 C 0.65113 0.96552 0.63877 0.0
C2411 C 0.6627 0.97085 0.65576 0.0
C2412 C 0.64637 0.94993 0.6272 0.0
C2413 C 0.65324 0.93941 0.63218 0.0
C2414 C 0.66475 0.94474 0.64928 0.0
C2415 C 0.66935 0.96022 0.66101 0.0
C2416 C 0.64356 0.8932 0.61652 0.0
C2417 C 0.64204 0.89313 0.59471 0.0
C2418 C 0.64677 0.90801 0.62871 0.0
C2419 C 0.64875 0.92319 0.61934 0.0
C2420 C 0.64687 0.92293 0.5975 0.0
C2421 C 0.64345 0.908 0.58533 0.0
H2422 H 0.03529 0.72397 0.67492 0.0
H2423 H 0.02328 0.67964 0.63294 0.0
H2424 H 0.06131 0.74343 0.65438 0.0
H2425 H 0.04944 0.699 0.6127 0.0
H2426 H 0.08526 0.7434 0.56794 0.0
H2427 H 0.05988 0.72371 0.5892 0.0
H2428 H 0.09013 0.74893 0.64527 0.0
H2429 H 0.11534 0.7691 0.62399 0.0
C2430 C 0.03826 0.71834 0.66142 0.0
C2431 C 0.02716 0.70027 0.65553 0.0
C2432 C 0.05324 0.72947 0.64971 0.0
C2433 C 0.05742 0.72278 0.63185 0.0
C2434 C 0.04644 0.70464 0.62617 0.0
C2435 C 0.03149 0.69352 0.63786 0.0
C2436 C 0.08646 0.74483 0.5848 0.0
C2437 C 0.10231 0.75785 0.59426 0.0
C2438 C 0.07197 0.7334 0.59699 0.0
C2439 C 0.07298 0.73473 0.61894 0.0
C2440 C 0.08887 0.74767 0.62841 0.0
C2441 C 0.10337 0.75909 0.61621 0.0
H2442 H 0.97326 0.61791 0.72278 0.0
H2443 H 0.01406 0.62279 0.6817 0.0
H2444 H 0.97903 0.6006 0.74668 0.0
H2445 H 0.0196 0.60525 0.70544 0.0
H2446 H 0.03848 0.5921 0.76411 0.0
H2447 H 0.03194 0.60885 0.74029 0.0
H2448 H 0.97662 0.57175 0.74949 0.0
H2449 H 0.98315 0.55494 0.7733 0.0
C2450 C 0.98335 0.61517 0.71875 0.0
C2451 C 0.99325 0.6218 0.70036 0.0
C2452 C 0.98661 0.60518 0.73242 0.0
C2453 C -0.00016 0.60164 0.72803 0.0
C2454 C 0.00951 0.608 0.70945 0.0
C2455 C 0.00624 0.61795 0.69577 0.0
C2456 C 0.02491 0.58745 0.76097 0.0
C2457 C 0.01134 0.57215 0.77057 0.0
C2458 C 0.02117 0.59704 0.74729 0.0
C2459 C 0.00376 0.59157 0.74289 0.0
C2460 C 0.99017 0.57642 0.75272 0.0
C2461 C 0.99392 0.56681 0.7664 0.0
H2462 H 0.34316 0.36893 0.71993 0.0
H2463 H 0.38719 0.37 0.69038 0.0
H2464 H 0.36312 0.39668 0.73888 0.0
H2465 H 0.40713 0.39793 0.7091 0.0
H2466 H 0.43688 0.43492 0.76505 0.0
H2467 H 0.41687 0.40778 0.74518 0.0
H2468 H 0.38393 0.42858 0.73324 0.0
H2469 H 0.40404 0.45584 0.75312 0.0
C2470 C 0.35709 0.37514 0.71736 0.0
C2471 C 0.36359 0.36722 0.7037 0.0
C2472 C 0.36852 0.3911 0.72815 0.0
C2473 C 0.3867 0.39947 0.72553 0.0
C2474 C 0.39319 0.39166 0.71166 0.0
C2475 C 0.38176 0.37572 0.70085 0.0
C2476 C 0.42546 0.43379 0.75801 0.0
C2477 C 0.42209 0.44757 0.76058 0.0
C2478 C 0.414 0.41823 0.74662 0.0
C2479 C 0.39887 0.41607 0.73755 0.0
C2480 C 0.3954 0.42978 0.74023 0.0
C2481 C 0.4069 0.44537 0.75163 0.0
H2482 H 0.59986 0.98233 0.67589 0.0
H2483 H 0.63467 0.02432 0.71943 0.0
H2484 H 0.57523 0.97469 0.69907 0.0
H2485 H 0.61002 0.01683 0.74238 0.0
H2486 H 0.56631 0.98393 0.78916 0.0
H2487 H 0.59047 0.99209 0.76502 0.0
H2488 H 0.55747 0.98627 0.71325 0.0
H2489 H 0.5333 0.97818 0.7374 0.0
C2490 C 0.60224 0.99006 0.69028 0.0
C2491 C 0.61925 0.00387 0.69586 0.0
C2492 C 0.58811 0.98571 0.70353 0.0
C2493 C 0.5907 0.99507 0.72264 0.0
C2494 C 0.60764 0.00917 0.72794 0.0
C2495 C 0.62175 0.01354 0.71469 0.0
C2496 C 0.56424 0.9845 0.77264 0.0
C2497 C 0.54789 0.98042 0.76521 0.0
C2498 C 0.57808 0.9892 0.75882 0.0
C2499 C 0.5759 0.98991 0.73724 0.0
C2500 C 0.5595 0.98565 0.72976 0.0
C2501 C 0.54565 0.98098 0.7436 0.0
loop_
_geom_bond_atom_site_label_1
_geom_bond_atom_site_label_2
_geom_bond_distance
_geom_bond_site_symmetry_2
_ccdc_geom_bond_type
C0 O1 1.160 . S
C0 O7 1.185 . S
O1 C0 1.160 . S
O2 Zn3 1.899 1_656 S
O2 C10 1.284 . S
Zn3 O2 1.899 1_454 S
Zn3 O4 2.032 . S
Zn3 O7 2.086 . S
Zn3 O12 1.977 1_554 S
O4 Zn3 2.032 . S
O4 C8 1.278 1_455 S
C5 O6 1.203 1_455 S
C5 O12 1.267 . S
O6 C5 1.203 1_655 S
O7 C0 1.185 . S
O7 Zn3 2.086 . S
C8 O4 1.278 1_655 S
C8 O9 1.211 . S
O9 C8 1.211 . S
C10 O2 1.284 . S
C10 O11 1.273 1_556 S
O11 C10 1.273 1_554 S
O12 Zn3 1.977 1_556 S
O12 C5 1.267 . S
C13 O14 1.160 . S
C13 O20 1.185 1_556 S
O14 C13 1.160 . S
O15 Zn16 1.899 . S
O15 C23 1.284 . S
Zn16 O15 1.899 . S
Zn16 O17 2.032 1_554 S
Zn16 O20 2.086 . S
Zn16 O25 1.977 . S
O17 Zn16 2.032 1_556 S
O17 C21 1.278 . S
C18 O19 1.203 . S
C18 O25 1.267 . S
O19 C18 1.203 . S
O20 C13 1.185 1_554 S
O20 Zn16 2.086 . S
C21 O17 1.278 . S
C21 O22 1.211 . S
O22 C21 1.211 . S
C23 O15 1.284 . S
C23 O24 1.273 . S
O24 C23 1.273 . S
O25 Zn16 1.977 . S
O25 C18 1.267 . S
C26 O27 1.160 . S
C26 O33 1.185 1_556 S
O27 C26 1.160 . S
O28 Zn29 1.899 1_565 S
O28 C36 1.284 . S
Zn29 O28 1.899 1_545 S
Zn29 O30 2.032 1_554 S
Zn29 O33 2.086 . S
Zn29 O38 1.977 . S
O30 Zn29 2.032 1_556 S
O30 C34 1.287 . S
C31 O32 1.203 1_545 S
C31 O38 1.267 . S
O32 C31 1.203 1_565 S
O33 C26 1.185 1_554 S
O33 Zn29 2.086 . S
C34 O30 1.287 . S
C34 O35 1.205 1_545 S
O35 C34 1.205 1_565 S
C36 O28 1.284 . S
C36 O37 1.273 . S
O37 C36 1.273 . S
O38 Zn29 1.977 . S
O38 C31 1.267 . S
C39 O40 1.160 . S
C39 O46 1.185 1_556 S
O40 C39 1.160 . S
O41 Zn42 1.899 1_455 S
O41 C49 1.284 . S
Zn42 O41 1.899 1_655 S
Zn42 O43 2.009 1_654 S
Zn42 O46 2.086 . S
Zn42 O51 1.977 . S
O43 Zn42 2.009 1_456 S
O43 C47 1.336 . S
C44 O45 1.203 1_655 S
C44 O51 1.267 . S
O45 C44 1.203 1_455 S
O46 C39 1.185 1_554 S
O46 Zn42 2.086 . S
C47 O43 1.336 . S
C47 O48 1.211 . S
O48 C47 1.211 . S
C49 O41 1.284 . S
C49 O50 1.273 . S
O50 C49 1.273 . S
O51 Zn42 1.977 . S
O51 C44 1.267 . S
C52 O53 1.160 . S
C52 O59 1.185 . S
O53 C52 1.160 . S
O54 Zn55 1.899 1_556 S
O54 C62 1.284 . S
Zn55 O54 1.899 1_554 S
Zn55 O56 2.032 . S
Zn55 O59 2.086 . S
Zn55 O64 1.977 1_554 S
O56 Zn55 2.032 . S
O56 C60 1.278 . S
C57 O58 1.203 . S
C57 O64 1.267 . S
O58 C57 1.203 . S
O59 C52 1.185 . S
O59 Zn55 2.086 . S
C60 O56 1.278 . S
C60 O61 1.211 . S
O61 C60 1.211 . S
C62 O54 1.284 . S
C62 O63 1.273 1_556 S
O63 C62 1.273 1_554 S
O64 Zn55 1.977 1_556 S
O64 C57 1.267 . S
C65 O66 1.160 . S
C65 O72 1.185 . S
O66 C65 1.160 . S
O67 Zn68 1.899 1_546 S
O67 C75 1.284 . S
Zn68 O67 1.899 1_564 S
Zn68 O69 2.032 1_565 S
Zn68 O72 2.086 . S
Zn68 O77 1.977 1_554 S
O69 Zn68 2.032 1_545 S
O69 C73 1.278 . S
C70 O71 1.203 1_565 S
C70 O77 1.267 . S
O71 C70 1.203 1_545 S
O72 C65 1.185 . S
O72 Zn68 2.086 . S
C73 O69 1.278 . S
C73 O74 1.211 . S
O74 C73 1.211 . S
C75 O67 1.284 . S
C75 O76 1.273 1_556 S
O76 C75 1.273 1_554 S
O77 Zn68 1.977 1_556 S
O77 C70 1.267 . S
C78 O79 1.160 . S
C78 O85 1.185 . S
O79 C78 1.160 . S
O80 Zn81 1.899 . S
O80 C88 1.284 . S
Zn81 O80 1.899 . S
Zn81 O82 2.032 . S
Zn81 O85 2.086 . S
Zn81 O90 1.977 . S
O82 Zn81 2.032 . S
O82 C86 1.278 . S
C83 O84 1.203 . S
C83 O90 1.267 . S
O84 C83 1.203 . S
O85 C78 1.185 . S
O85 Zn81 2.086 . S
C86 O82 1.278 . S
C86 O87 1.211 . S
O87 C86 1.211 . S
C88 O80 1.284 . S
C88 O89 1.273 . S
O89 C88 1.273 . S
O90 Zn81 1.977 . S
O90 C83 1.267 . S
C91 O92 1.160 1_565 S
C91 O98 1.185 . S
O92 C91 1.160 1_545 S
O93 Zn94 1.899 1_545 S
O93 C101 1.284 . S
Zn94 O93 1.899 1_565 S
Zn94 O95 2.032 . S
Zn94 O98 2.086 . S
Zn94 O103 1.977 . S
O95 Zn94 2.032 . S
O95 C99 1.278 . S
C96 O97 1.203 . S
C96 O103 1.267 . S
O97 C96 1.203 . S
O98 C91 1.185 . S
O98 Zn94 2.086 . S
C99 O95 1.278 . S
C99 O100 1.211 . S
O100 C99 1.211 . S
C101 O93 1.284 . S
C101 O102 1.273 . S
O102 C101 1.273 . S
O103 Zn94 1.977 . S
O103 C96 1.267 . S
C104 O105 1.160 . S
C104 O111 1.185 . S
O105 C104 1.160 . S
O106 Zn107 1.899 . S
O106 C114 1.284 1_455 S
Zn107 O106 1.899 . S
Zn107 O108 2.032 . S
Zn107 O111 2.086 . S
Zn107 O116 1.977 . S
O108 Zn107 2.032 . S
O108 C112 1.278 . S
C109 O110 1.203 . S
C109 O116 1.267 . S
O110 C109 1.203 . S
O111 C104 1.185 . S
O111 Zn107 2.086 . S
C112 O108 1.278 . S
C112 O113 1.211 . S
O113 C112 1.211 . S
C114 O106 1.284 1_655 S
C114 O115 1.273 1_655 S
O115 C114 1.273 1_455 S
O116 Zn107 1.977 . S
O116 C109 1.267 . S
C117 O118 1.160 1_565 S
C117 O124 1.185 . S
O118 C117 1.160 1_545 S
O119 Zn120 1.899 1_545 S
O119 C127 1.284 . S
Zn120 O119 1.899 1_565 S
Zn120 O121 2.032 . S
Zn120 O124 2.086 . S
Zn120 O129 1.977 . S
O121 Zn120 2.032 . S
O121 C125 1.278 . S
C122 O123 1.203 . S
C122 O129 1.267 . S
O123 C122 1.203 . S
O124 C117 1.185 . S
O124 Zn120 2.086 . S
C125 O121 1.278 . S
C125 O126 1.211 . S
O126 C125 1.211 . S
C127 O119 1.284 . S
C127 O128 1.273 . S
O128 C127 1.273 . S
O129 Zn120 1.977 . S
O129 C122 1.267 . S
C130 O131 1.160 . S
C130 O137 1.185 . S
O131 C130 1.160 . S
O132 Zn133 1.899 . S
O132 C140 1.284 . S
Zn133 O132 1.899 . S
Zn133 O134 2.032 . S
Zn133 O137 2.086 1_455 S
Zn133 O142 1.977 . S
O134 Zn133 2.032 . S
O134 C138 1.278 . S
C135 O136 1.203 . S
C135 O142 1.267 . S
O136 C135 1.203 . S
O137 C130 1.185 . S
O137 Zn133 2.086 1_655 S
C138 O134 1.278 . S
C138 O139 1.211 . S
O139 C138 1.211 . S
C140 O132 1.284 . S
C140 O141 1.273 . S
O141 C140 1.273 . S
O142 Zn133 1.977 . S
O142 C135 1.267 . S
C143 O144 1.160 . S
C143 O150 1.185 . S
O144 C143 1.160 . S
O145 Zn146 1.899 . S
O145 C153 1.284 . S
Zn146 O145 1.899 . S
Zn146 O147 2.032 . S
Zn146 O150 2.086 . S
Zn146 O155 1.977 . S
O147 Zn146 2.032 . S
O147 C151 1.278 . S
C148 O149 1.203 . S
C148 O155 1.267 . S
O149 C148 1.203 . S
O150 C143 1.185 . S
O150 Zn146 2.086 . S
C151 O147 1.278 . S
C151 O152 1.211 . S
O152 C151 1.211 . S
C153 O145 1.284 . S
C153 O154 1.273 . S
O154 C153 1.273 . S
O155 Zn146 1.977 . S
O155 C148 1.267 . S
C156 O157 1.160 . S
C156 O163 1.185 . S
O157 C156 1.160 . S
O158 Zn159 1.905 1_565 S
O158 C166 1.285 . S
Zn159 O158 1.905 1_545 S
Zn159 O160 2.032 . S
Zn159 O163 2.086 . S
Zn159 O168 1.977 . S
O160 Zn159 2.032 . S
O160 C164 1.278 . S
C161 O162 1.203 . S
C161 O168 1.267 . S
O162 C161 1.203 . S
O163 C156 1.185 . S
O163 Zn159 2.086 . S
C164 O160 1.278 . S
C164 O165 1.211 . S
O165 C164 1.211 . S
C166 O158 1.285 . S
C166 O167 1.276 . S
O167 C166 1.276 . S
O168 Zn159 1.977 . S
O168 C161 1.267 . S
C169 O170 1.160 . S
C169 O176 1.185 . S
O170 C169 1.160 . S
O171 Zn172 1.899 . S
O171 C179 1.284 . S
Zn172 O171 1.899 . S
Zn172 O173 2.032 . S
Zn172 O176 2.086 1_655 S
Zn172 O181 1.977 . S
O173 Zn172 2.032 . S
O173 C177 1.278 . S
C174 O175 1.203 . S
C174 O181 1.267 . S
O175 C174 1.203 . S
O176 C169 1.185 . S
O176 Zn172 2.086 1_455 S
C177 O173 1.278 . S
C177 O178 1.211 . S
O178 C177 1.211 . S
C179 O171 1.284 . S
C179 O180 1.273 . S
O180 C179 1.273 . S
O181 Zn172 1.977 . S
O181 C174 1.267 . S
C182 O183 1.160 . S
C182 O189 1.185 . S
O183 C182 1.160 . S
O184 Zn185 1.899 . S
O184 C192 1.284 . S
Zn185 O184 1.899 . S
Zn185 O186 2.032 . S
Zn185 O189 2.086 . S
Zn185 O194 1.977 . S
O186 Zn185 2.032 . S
O186 C190 1.278 . S
C187 O188 1.203 . S
C187 O194 1.267 . S
O188 C187 1.203 . S
O189 C182 1.185 . S
O189 Zn185 2.086 . S
C190 O186 1.278 . S
C190 O191 1.211 . S
O191 C190 1.211 . S
C192 O184 1.284 . S
C192 O193 1.273 . S
O193 C192 1.273 . S
O194 Zn185 1.977 . S
O194 C187 1.267 . S
C195 O196 1.160 . S
C195 O202 1.185 . S
O196 C195 1.160 . S
O197 Zn198 1.899 . S
O197 C205 1.284 . S
Zn198 O197 1.899 . S
Zn198 O199 2.032 . S
Zn198 O202 2.086 . S
Zn198 O207 1.977 . S
O199 Zn198 2.032 . S
O199 C203 1.278 . S
C200 O201 1.203 . S
C200 O207 1.267 . S
O201 C200 1.203 . S
O202 C195 1.185 . S
O202 Zn198 2.086 . S
C203 O199 1.278 . S
C203 O204 1.211 . S
O204 C203 1.211 . S
C205 O197 1.284 . S
C205 O206 1.273 . S
O206 C205 1.273 . S
O207 Zn198 1.977 . S
O207 C200 1.267 . S
C208 O209 1.176 . S
C208 O215 1.185 . S
O209 C208 1.176 . S
O210 Zn211 1.861 1_565 S
O210 C218 1.325 . S
Zn211 O210 1.861 1_545 S
Zn211 O212 2.032 . S
Zn211 O215 2.086 . S
Zn211 O220 1.977 . S
O212 Zn211 2.032 . S
O212 C216 1.278 . S
C213 O214 1.203 . S
C213 O220 1.267 . S
O214 C213 1.203 . S
O215 C208 1.185 . S
O215 Zn211 2.086 . S
C216 O212 1.278 . S
C216 O217 1.211 . S
O217 C216 1.211 . S
C218 O210 1.325 . S
C218 O219 1.271 . S
O219 C218 1.271 . S
O220 Zn211 1.977 . S
O220 C213 1.267 . S
C221 O222 1.160 . S
C221 O228 1.185 . S
O222 C221 1.160 . S
O223 Zn224 1.899 . S
O223 C231 1.284 1_655 S
Zn224 O223 1.899 . S
Zn224 O225 2.032 . S
Zn224 O228 2.086 . S
Zn224 O233 1.977 . S
O225 Zn224 2.032 . S
O225 C229 1.278 . S
C226 O227 1.203 . S
C226 O233 1.267 . S
O227 C226 1.203 . S
O228 C221 1.185 . S
O228 Zn224 2.086 . S
C229 O225 1.278 . S
C229 O230 1.211 . S
O230 C229 1.211 . S
C231 O223 1.284 1_455 S
C231 O232 1.276 . S
O232 C231 1.276 . S
O233 Zn224 1.977 . S
O233 C226 1.267 . S
C234 C235 1.384 . S
C234 C236 1.384 . S
C234 H262 0.931 . S
C235 C234 1.384 . S
C235 C238 1.382 . S
C236 C234 1.384 . S
C236 C237 1.381 . S
C236 H263 0.930 . S
C237 C236 1.381 . S
C237 C239 1.381 . S
C237 C240 1.487 . S
C238 C235 1.382 . S
C238 C239 1.387 . S
C238 H264 0.930 . S
C239 C237 1.381 . S
C239 C238 1.387 . S
C239 H265 0.931 . S
C240 C237 1.487 . S
C240 C247 1.399 . S
C240 N278 1.343 . S
C241 C242 1.384 . S
C241 C243 1.384 . S
C241 H266 0.931 . S
C242 C241 1.384 . S
C242 C245 1.382 . S
C243 C241 1.384 . S
C243 C244 1.381 . S
C243 H267 0.930 . S
C244 C243 1.381 . S
C244 C246 1.381 . S
C244 C247 1.487 . S
C245 C242 1.382 . S
C245 C246 1.387 . S
C245 H268 0.930 . S
C246 C244 1.381 . S
C246 C245 1.387 . S
C246 H269 0.931 . S
C247 C240 1.399 . S
C247 C244 1.487 . S
C247 N279 1.343 . S
C248 C249 1.384 . S
C248 C250 1.384 . S
C248 H270 0.931 . S
C249 C248 1.384 . S
C249 C252 1.382 . S
C250 C248 1.384 . S
C250 C251 1.381 . S
C250 H271 0.930 . S
C251 C250 1.381 . S
C251 C253 1.381 . S
C251 C254 1.487 . S
C252 C249 1.382 . S
C252 C253 1.387 . S
C252 H272 0.930 . S
C253 C251 1.381 . S
C253 C252 1.387 . S
C253 H273 0.931 . S
C254 C251 1.487 . S
C254 C261 1.399 . S
C254 N279 1.343 . S
C255 C256 1.384 . S
C255 C257 1.384 . S
C255 H274 0.931 . S
C256 C255 1.384 . S
C256 C259 1.382 . S
C257 C255 1.384 . S
C257 C258 1.381 . S
C257 H275 0.930 . S
C258 C257 1.381 . S
C258 C260 1.381 . S
C258 C261 1.487 . S
C259 C256 1.382 . S
C259 C260 1.387 . S
C259 H276 0.930 . S
C260 C258 1.381 . S
C260 C259 1.387 . S
C260 H277 0.931 . S
C261 C254 1.399 . S
C261 C258 1.487 . S
C261 N278 1.343 . S
H262 C234 0.931 . S
H263 C236 0.930 . S
H264 C238 0.930 . S
H265 C239 0.931 . S
H266 C241 0.931 . S
H267 C243 0.930 . S
H268 C245 0.930 . S
H269 C246 0.931 . S
H270 C248 0.931 . S
H271 C250 0.930 . S
H272 C252 0.930 . S
H273 C253 0.931 . S
H274 C255 0.931 . S
H275 C257 0.930 . S
H276 C259 0.930 . S
H277 C260 0.931 . S
N278 C240 1.343 . S
N278 C261 1.343 . S
N279 C247 1.343 . S
N279 C254 1.343 . S
C280 C281 1.384 . S
C280 C282 1.384 . S
C280 H308 0.931 . S
C281 C280 1.384 . S
C281 C284 1.382 . S
C282 C280 1.384 . S
C282 C283 1.381 . S
C282 H309 0.930 . S
C283 C282 1.381 . S
C283 C285 1.381 . S
C283 C286 1.487 . S
C284 C281 1.382 . S
C284 C285 1.387 . S
C284 H310 0.930 . S
C285 C283 1.381 . S
C285 C284 1.387 . S
C285 H311 0.931 . S
C286 C283 1.487 . S
C286 C293 1.399 . S
C286 N324 1.343 . S
C287 C288 1.384 . S
C287 C289 1.384 . S
C287 H312 0.931 . S
C288 C287 1.384 . S
C288 C291 1.382 . S
C289 C287 1.384 . S
C289 C290 1.381 . S
C289 H313 0.930 . S
C290 C289 1.381 . S
C290 C292 1.381 . S
C290 C293 1.487 . S
C291 C288 1.382 . S
C291 C292 1.387 . S
C291 H314 0.930 . S
C292 C290 1.381 . S
C292 C291 1.387 . S
C292 H315 0.931 . S
C293 C286 1.399 . S
C293 C290 1.487 . S
C293 N325 1.343 . S
C294 C295 1.384 . S
C294 C296 1.384 . S
C294 H316 0.931 . S
C295 C294 1.384 . S
C295 C298 1.382 . S
C296 C294 1.384 . S
C296 C297 1.381 . S
C296 H317 0.930 . S
C297 C296 1.381 . S
C297 C299 1.381 . S
C297 C300 1.487 . S
C298 C295 1.382 . S
C298 C299 1.387 . S
C298 H318 0.930 . S
C299 C297 1.381 . S
C299 C298 1.387 . S
C299 H319 0.931 . S
C300 C297 1.487 . S
C300 C307 1.399 . S
C300 N325 1.343 . S
C301 C302 1.384 . S
C301 C303 1.384 . S
C301 H320 0.931 . S
C302 C301 1.384 . S
C302 C305 1.382 . S
C303 C301 1.384 . S
C303 C304 1.381 . S
C303 H321 0.930 . S
C304 C303 1.381 . S
C304 C306 1.381 . S
C304 C307 1.487 . S
C305 C302 1.382 . S
C305 C306 1.387 . S
C305 H322 0.930 . S
C306 C304 1.381 . S
C306 C305 1.387 . S
C306 H323 0.931 . S
C307 C300 1.399 . S
C307 C304 1.487 . S
C307 N324 1.343 . S
H308 C280 0.931 . S
H309 C282 0.930 . S
H310 C284 0.930 . S
H311 C285 0.931 . S
H312 C287 0.931 . S
H313 C289 0.930 . S
H314 C291 0.930 . S
H315 C292 0.931 . S
H316 C294 0.931 . S
H317 C296 0.930 . S
H318 C298 0.930 . S
H319 C299 0.931 . S
H320 C301 0.931 . S
H321 C303 0.930 . S
H322 C305 0.930 . S
H323 C306 0.931 . S
N324 C286 1.343 . S
N324 C307 1.343 . S
N325 C293 1.343 . S
N325 C300 1.343 . S
C326 C327 1.384 . S
C326 C328 1.384 . S
C326 H354 0.931 . S
C327 C326 1.384 . S
C327 C330 1.382 . S
C328 C326 1.384 . S
C328 C329 1.381 . S
C328 H355 0.930 . S
C329 C328 1.381 . S
C329 C331 1.381 . S
C329 C332 1.487 . S
C330 C327 1.382 . S
C330 C331 1.387 . S
C330 H356 0.930 . S
C331 C329 1.381 . S
C331 C330 1.387 . S
C331 H357 0.931 . S
C332 C329 1.487 . S
C332 C339 1.399 . S
C332 N370 1.343 . S
C333 C334 1.384 . S
C333 C335 1.384 . S
C333 H358 0.931 . S
C334 C333 1.384 . S
C334 C337 1.382 . S
C335 C333 1.384 . S
C335 C336 1.381 . S
C335 H359 0.930 . S
C336 C335 1.381 . S
C336 C338 1.381 . S
C336 C339 1.487 . S
C337 C334 1.382 . S
C337 C338 1.387 . S
C337 H360 0.930 . S
C338 C336 1.381 . S
C338 C337 1.387 . S
C338 H361 0.931 . S
C339 C332 1.399 . S
C339 C336 1.487 . S
C339 N371 1.343 . S
C340 C341 1.384 . S
C340 C342 1.384 . S
C340 H362 0.931 . S
C341 C340 1.384 . S
C341 C344 1.382 . S
C342 C340 1.384 . S
C342 C343 1.381 . S
C342 H363 0.930 . S
C343 C342 1.381 . S
C343 C345 1.381 . S
C343 C346 1.487 . S
C344 C341 1.382 . S
C344 C345 1.387 . S
C344 H364 0.930 . S
C345 C343 1.381 . S
C345 C344 1.387 . S
C345 H365 0.931 . S
C346 C343 1.487 . S
C346 C353 1.399 . S
C346 N371 1.343 . S
C347 C348 1.384 . S
C347 C349 1.384 . S
C347 H366 0.931 . S
C348 C347 1.384 . S
C348 C351 1.382 . S
C349 C347 1.384 . S
C349 C350 1.381 . S
C349 H367 0.930 . S
C350 C349 1.381 . S
C350 C352 1.381 . S
C350 C353 1.487 . S
C351 C348 1.382 . S
C351 C352 1.387 . S
C351 H368 0.930 . S
C352 C350 1.381 . S
C352 C351 1.387 . S
C352 H369 0.931 . S
C353 C346 1.399 . S
C353 C350 1.487 . S
C353 N370 1.343 . S
H354 C326 0.931 . S
H355 C328 0.930 . S
H356 C330 0.930 . S
H357 C331 0.931 . S
H358 C333 0.931 . S
H359 C335 0.930 . S
H360 C337 0.930 . S
H361 C338 0.931 . S
H362 C340 0.931 . S
H363 C342 0.930 . S
H364 C344 0.930 . S
H365 C345 0.931 . S
H366 C347 0.931 . S
H367 C349 0.930 . S
H368 C351 0.930 . S
H369 C352 0.931 . S
N370 C332 1.343 . S
N370 C353 1.343 . S
N371 C339 1.343 . S
N371 C346 1.343 . S
C372 C373 1.384 . S
C372 C374 1.384 . S
C372 H400 0.931 . S
C373 C372 1.384 . S
C373 C376 1.382 . S
C374 C372 1.384 . S
C374 C375 1.381 . S
C374 H401 0.930 . S
C375 C374 1.381 . S
C375 C377 1.381 . S
C375 C378 1.487 . S
C376 C373 1.382 . S
C376 C377 1.387 . S
C376 H402 0.930 . S
C377 C375 1.381 . S
C377 C376 1.387 . S
C377 H403 0.931 . S
C378 C375 1.487 . S
C378 C385 1.399 . S
C378 N416 1.343 . S
C379 C380 1.384 . S
C379 C381 1.384 . S
C379 H404 0.931 . S
C380 C379 1.384 . S
C380 C383 1.382 . S
C381 C379 1.384 . S
C381 C382 1.381 . S
C381 H405 0.930 . S
C382 C381 1.381 . S
C382 C384 1.381 . S
C382 C385 1.487 . S
C383 C380 1.382 . S
C383 C384 1.387 . S
C383 H406 0.930 . S
C384 C382 1.381 . S
C384 C383 1.387 . S
C384 H407 0.931 . S
C385 C378 1.399 . S
C385 C382 1.487 . S
C385 N417 1.343 . S
C386 C387 1.384 . S
C386 C388 1.384 . S
C386 H408 0.931 . S
C387 C386 1.384 . S
C387 C390 1.382 . S
C388 C386 1.384 . S
C388 C389 1.381 . S
C388 H409 0.930 . S
C389 C388 1.381 . S
C389 C391 1.381 . S
C389 C392 1.487 . S
C390 C387 1.382 . S
C390 C391 1.387 . S
C390 H410 0.930 . S
C391 C389 1.381 . S
C391 C390 1.387 . S
C391 H411 0.931 . S
C392 C389 1.487 . S
C392 C399 1.399 . S
C392 N417 1.343 . S
C393 C394 1.384 . S
C393 C395 1.384 . S
C393 H412 0.931 . S
C394 C393 1.384 . S
C394 C397 1.382 . S
C395 C393 1.384 . S
C395 C396 1.381 . S
C395 H413 0.930 . S
C396 C395 1.381 . S
C396 C398 1.381 . S
C396 C399 1.487 . S
C397 C394 1.382 . S
C397 C398 1.387 . S
C397 H414 0.930 . S
C398 C396 1.381 . S
C398 C397 1.387 . S
C398 H415 0.931 . S
C399 C392 1.399 . S
C399 C396 1.487 . S
C399 N416 1.343 . S
H400 C372 0.931 . S
H401 C374 0.930 . S
H402 C376 0.930 . S
H403 C377 0.931 . S
H404 C379 0.931 . S
H405 C381 0.930 . S
H406 C383 0.930 . S
H407 C384 0.931 . S
H408 C386 0.931 . S
H409 C388 0.930 . S
H410 C390 0.930 . S
H411 C391 0.931 . S
H412 C393 0.931 . S
H413 C395 0.930 . S
H414 C397 0.930 . S
H415 C398 0.931 . S
N416 C378 1.343 . S
N416 C399 1.343 . S
N417 C385 1.343 . S
N417 C392 1.343 . S
C418 C419 1.384 . S
C418 C420 1.384 . S
C418 H446 0.931 . S
C419 C418 1.384 . S
C419 C422 1.382 . S
C420 C418 1.384 . S
C420 C421 1.381 . S
C420 H447 0.930 . S
C421 C420 1.381 . S
C421 C423 1.381 . S
C421 C424 1.487 . S
C422 C419 1.382 . S
C422 C423 1.387 . S
C422 H448 0.930 . S
C423 C421 1.381 . S
C423 C422 1.387 . S
C423 H449 0.931 . S
C424 C421 1.487 . S
C424 C431 1.399 . S
C424 N462 1.343 . S
C425 C426 1.384 . S
C425 C427 1.384 . S
C425 H450 0.931 . S
C426 C425 1.384 . S
C426 C429 1.382 . S
C427 C425 1.384 . S
C427 C428 1.381 . S
C427 H451 0.930 . S
C428 C427 1.381 . S
C428 C430 1.381 . S
C428 C431 1.487 . S
C429 C426 1.382 . S
C429 C430 1.387 . S
C429 H452 0.930 . S
C430 C428 1.381 . S
C430 C429 1.387 . S
C430 H453 0.931 . S
C431 C424 1.399 . S
C431 C428 1.487 . S
C431 N463 1.343 . S
C432 C433 1.384 . S
C432 C434 1.384 . S
C432 H454 0.931 . S
C433 C432 1.384 . S
C433 C436 1.382 . S
C434 C432 1.384 . S
C434 C435 1.381 . S
C434 H455 0.930 . S
C435 C434 1.381 . S
C435 C437 1.381 . S
C435 C438 1.487 . S
C436 C433 1.382 . S
C436 C437 1.387 . S
C436 H456 0.930 . S
C437 C435 1.381 . S
C437 C436 1.387 . S
C437 H457 0.931 . S
C438 C435 1.487 . S
C438 C445 1.399 . S
C438 N463 1.343 . S
C439 C440 1.384 . S
C439 C441 1.384 . S
C439 H458 0.931 . S
C440 C439 1.384 . S
C440 C443 1.382 . S
C441 C439 1.384 . S
C441 C442 1.381 . S
C441 H459 0.930 . S
C442 C441 1.381 . S
C442 C444 1.381 . S
C442 C445 1.487 . S
C443 C440 1.382 . S
C443 C444 1.387 . S
C443 H460 0.930 . S
C444 C442 1.381 . S
C444 C443 1.387 . S
C444 H461 0.931 . S
C445 C438 1.399 . S
C445 C442 1.487 . S
C445 N462 1.343 . S
H446 C418 0.931 . S
H447 C420 0.930 . S
H448 C422 0.930 . S
H449 C423 0.931 . S
H450 C425 0.931 . S
H451 C427 0.930 . S
H452 C429 0.930 . S
H453 C430 0.931 . S
H454 C432 0.931 . S
H455 C434 0.930 . S
H456 C436 0.930 . S
H457 C437 0.931 . S
H458 C439 0.931 . S
H459 C441 0.930 . S
H460 C443 0.930 . S
H461 C444 0.931 . S
N462 C424 1.343 . S
N462 C445 1.343 . S
N463 C431 1.343 . S
N463 C438 1.343 . S
C464 C465 1.384 . S
C464 C466 1.384 . S
C464 H492 0.931 . S
C465 C464 1.384 . S
C465 C468 1.382 . S
C466 C464 1.384 . S
C466 C467 1.381 . S
C466 H493 0.930 . S
C467 C466 1.381 . S
C467 C469 1.381 . S
C467 C470 1.487 . S
C468 C465 1.382 . S
C468 C469 1.387 . S
C468 H494 0.930 . S
C469 C467 1.381 . S
C469 C468 1.387 . S
C469 H495 0.931 . S
C470 C467 1.487 . S
C470 C477 1.399 . S
C470 N508 1.343 . S
C471 C472 1.384 . S
C471 C473 1.384 . S
C471 H496 0.931 . S
C472 C471 1.384 . S
C472 C475 1.382 . S
C473 C471 1.384 . S
C473 C474 1.381 . S
C473 H497 0.930 . S
C474 C473 1.381 . S
C474 C476 1.381 . S
C474 C477 1.487 . S
C475 C472 1.382 . S
C475 C476 1.387 . S
C475 H498 0.930 . S
C476 C474 1.381 . S
C476 C475 1.387 . S
C476 H499 0.931 . S
C477 C470 1.399 . S
C477 C474 1.487 . S
C477 N509 1.343 . S
C478 C479 1.384 . S
C478 C480 1.384 . S
C478 H500 0.931 . S
C479 C478 1.384 . S
C479 C482 1.382 . S
C480 C478 1.384 . S
C480 C481 1.381 . S
C480 H501 0.930 . S
C481 C480 1.381 . S
C481 C483 1.381 . S
C481 C484 1.487 . S
C482 C479 1.382 . S
C482 C483 1.387 . S
C482 H502 0.930 . S
C483 C481 1.381 . S
C483 C482 1.387 . S
C483 H503 0.931 . S
C484 C481 1.487 . S
C484 C491 1.399 . S
C484 N509 1.343 . S
C485 C486 1.384 . S
C485 C487 1.384 . S
C485 H504 0.931 . S
C486 C485 1.384 . S
C486 C489 1.382 . S
C487 C485 1.384 . S
C487 C488 1.381 . S
C487 H505 0.930 . S
C488 C487 1.381 . S
C488 C490 1.381 . S
C488 C491 1.487 . S
C489 C486 1.382 . S
C489 C490 1.387 . S
C489 H506 0.930 . S
C490 C488 1.381 . S
C490 C489 1.387 . S
C490 H507 0.931 . S
C491 C484 1.399 . S
C491 C488 1.487 . S
C491 N508 1.343 . S
H492 C464 0.931 . S
H493 C466 0.930 . S
H494 C468 0.930 . S
H495 C469 0.931 . S
H496 C471 0.931 . S
H497 C473 0.930 . S
H498 C475 0.930 . S
H499 C476 0.931 . S
H500 C478 0.931 . S
H501 C480 0.930 . S
H502 C482 0.930 . S
H503 C483 0.931 . S
H504 C485 0.931 . S
H505 C487 0.930 . S
H506 C489 0.930 . S
H507 C490 0.931 . S
N508 C470 1.343 . S
N508 C491 1.343 . S
N509 C477 1.343 . S
N509 C484 1.343 . S
C510 C511 1.384 . S
C510 C512 1.384 . S
C510 H538 0.931 . S
C511 C510 1.384 . S
C511 C514 1.382 . S
C512 C510 1.384 . S
C512 C513 1.381 . S
C512 H539 0.930 . S
C513 C512 1.381 . S
C513 C515 1.381 . S
C513 C516 1.487 . S
C514 C511 1.382 . S
C514 C515 1.387 . S
C514 H540 0.930 . S
C515 C513 1.381 . S
C515 C514 1.387 . S
C515 H541 0.931 . S
C516 C513 1.487 . S
C516 C523 1.399 . S
C516 N554 1.343 . S
C517 C518 1.384 . S
C517 C519 1.384 . S
C517 H542 0.931 . S
C518 C517 1.384 . S
C518 C521 1.382 . S
C519 C517 1.384 . S
C519 C520 1.381 . S
C519 H543 0.930 . S
C520 C519 1.381 . S
C520 C522 1.381 . S
C520 C523 1.487 . S
C521 C518 1.382 . S
C521 C522 1.387 . S
C521 H544 0.930 . S
C522 C520 1.381 . S
C522 C521 1.387 . S
C522 H545 0.931 . S
C523 C516 1.399 . S
C523 C520 1.487 . S
C523 N555 1.343 . S
C524 C525 1.384 . S
C524 C526 1.384 . S
C524 H546 0.931 . S
C525 C524 1.384 . S
C525 C528 1.382 . S
C526 C524 1.384 . S
C526 C527 1.381 . S
C526 H547 0.930 . S
C527 C526 1.381 . S
C527 C529 1.381 . S
C527 C530 1.487 . S
C528 C525 1.382 . S
C528 C529 1.387 . S
C528 H548 0.930 . S
C529 C527 1.381 . S
C529 C528 1.387 . S
C529 H549 0.931 . S
C530 C527 1.487 . S
C530 C537 1.399 . S
C530 N555 1.343 . S
C531 C532 1.384 . S
C531 C533 1.384 . S
C531 H550 0.931 . S
C532 C531 1.384 . S
C532 C535 1.382 . S
C533 C531 1.384 . S
C533 C534 1.381 . S
C533 H551 0.930 . S
C534 C533 1.381 . S
C534 C536 1.381 . S
C534 C537 1.487 . S
C535 C532 1.382 . S
C535 C536 1.387 . S
C535 H552 0.930 . S
C536 C534 1.381 . S
C536 C535 1.387 . S
C536 H553 0.931 . S
C537 C530 1.399 . S
C537 C534 1.487 . S
C537 N554 1.343 . S
H538 C510 0.931 . S
H539 C512 0.930 . S
H540 C514 0.930 . S
H541 C515 0.931 . S
H542 C517 0.931 . S
H543 C519 0.930 . S
H544 C521 0.930 . S
H545 C522 0.931 . S
H546 C524 0.931 . S
H547 C526 0.930 . S
H548 C528 0.930 . S
H549 C529 0.931 . S
H550 C531 0.931 . S
H551 C533 0.930 . S
H552 C535 0.930 . S
H553 C536 0.931 . S
N554 C516 1.343 . S
N554 C537 1.343 . S
N555 C523 1.343 . S
N555 C530 1.343 . S
C556 C557 1.384 . S
C556 C558 1.384 . S
C556 H584 0.931 . S
C557 C556 1.384 . S
C557 C560 1.382 . S
C558 C556 1.384 . S
C558 C559 1.381 . S
C558 H585 0.930 . S
C559 C558 1.381 . S
C559 C561 1.381 . S
C559 C562 1.487 . S
C560 C557 1.382 . S
C560 C561 1.387 . S
C560 H586 0.930 . S
C561 C559 1.381 . S
C561 C560 1.387 . S
C561 H587 0.931 . S
C562 C559 1.487 . S
C562 C569 1.399 . S
C562 N600 1.343 . S
C563 C564 1.384 . S
C563 C565 1.384 . S
C563 H588 0.931 . S
C564 C563 1.384 . S
C564 C567 1.382 . S
C565 C563 1.384 . S
C565 C566 1.381 . S
C565 H589 0.930 . S
C566 C565 1.381 . S
C566 C568 1.381 . S
C566 C569 1.487 . S
C567 C564 1.382 . S
C567 C568 1.387 . S
C567 H590 0.930 . S
C568 C566 1.381 . S
C568 C567 1.387 . S
C568 H591 0.931 . S
C569 C562 1.399 . S
C569 C566 1.487 . S
C569 N601 1.343 . S
C570 C571 1.384 . S
C570 C572 1.384 . S
C570 H592 0.931 . S
C571 C570 1.384 . S
C571 C574 1.382 . S
C572 C570 1.384 . S
C572 C573 1.381 . S
C572 H593 0.930 . S
C573 C572 1.381 . S
C573 C575 1.381 . S
C573 C576 1.487 . S
C574 C571 1.382 . S
C574 C575 1.387 . S
C574 H594 0.930 . S
C575 C573 1.381 . S
C575 C574 1.387 . S
C575 H595 0.931 . S
C576 C573 1.487 . S
C576 C583 1.399 . S
C576 N601 1.343 . S
C577 C578 1.384 . S
C577 C579 1.384 . S
C577 H596 0.931 . S
C578 C577 1.384 . S
C578 C581 1.382 . S
C579 C577 1.384 . S
C579 C580 1.381 . S
C579 H597 0.930 . S
C580 C579 1.381 . S
C580 C582 1.381 . S
C580 C583 1.487 . S
C581 C578 1.382 . S
C581 C582 1.387 . S
C581 H598 0.930 . S
C582 C580 1.381 . S
C582 C581 1.387 . S
C582 H599 0.931 . S
C583 C576 1.399 . S
C583 C580 1.487 . S
C583 N600 1.343 . S
H584 C556 0.931 . S
H585 C558 0.930 . S
H586 C560 0.930 . S
H587 C561 0.931 . S
H588 C563 0.931 . S
H589 C565 0.930 . S
H590 C567 0.930 . S
H591 C568 0.931 . S
H592 C570 0.931 . S
H593 C572 0.930 . S
H594 C574 0.930 . S
H595 C575 0.931 . S
H596 C577 0.931 . S
H597 C579 0.930 . S
H598 C581 0.930 . S
H599 C582 0.931 . S
N600 C562 1.343 . S
N600 C583 1.343 . S
N601 C569 1.343 . S
N601 C576 1.343 . S
C602 C603 1.384 . S
C602 C604 1.384 . S
C602 H630 0.931 . S
C603 C602 1.384 . S
C603 C606 1.382 . S
C604 C602 1.384 . S
C604 C605 1.381 . S
C604 H631 0.930 . S
C605 C604 1.381 . S
C605 C607 1.381 . S
C605 C608 1.487 . S
C606 C603 1.382 . S
C606 C607 1.387 . S
C606 H632 0.930 . S
C607 C605 1.381 . S
C607 C606 1.387 . S
C607 H633 0.931 . S
C608 C605 1.487 . S
C608 C615 1.399 . S
C608 N646 1.343 . S
C609 C610 1.384 . S
C609 C611 1.384 . S
C609 H634 0.931 . S
C610 C609 1.384 . S
C610 C613 1.382 . S
C611 C609 1.384 . S
C611 C612 1.381 . S
C611 H635 0.930 . S
C612 C611 1.381 . S
C612 C614 1.381 . S
C612 C615 1.487 . S
C613 C610 1.382 . S
C613 C614 1.387 . S
C613 H636 0.930 . S
C614 C612 1.381 . S
C614 C613 1.387 . S
C614 H637 0.931 . S
C615 C608 1.399 . S
C615 C612 1.487 . S
C615 N647 1.343 . S
C616 C617 1.384 . S
C616 C618 1.384 . S
C616 H638 0.931 . S
C617 C616 1.384 . S
C617 C620 1.382 . S
C618 C616 1.384 . S
C618 C619 1.381 . S
C618 H639 0.930 . S
C619 C618 1.381 . S
C619 C621 1.381 . S
C619 C622 1.487 . S
C620 C617 1.382 . S
C620 C621 1.387 . S
C620 H640 0.930 . S
C621 C619 1.381 . S
C621 C620 1.387 . S
C621 H641 0.931 . S
C622 C619 1.487 . S
C622 C629 1.399 . S
C622 N647 1.343 . S
C623 C624 1.384 . S
C623 C625 1.384 . S
C623 H642 0.931 . S
C624 C623 1.384 . S
C624 C627 1.382 . S
C625 C623 1.384 . S
C625 C626 1.381 . S
C625 H643 0.930 . S
C626 C625 1.381 . S
C626 C628 1.381 . S
C626 C629 1.487 . S
C627 C624 1.382 . S
C627 C628 1.387 . S
C627 H644 0.930 . S
C628 C626 1.381 . S
C628 C627 1.387 . S
C628 H645 0.931 . S
C629 C622 1.399 . S
C629 C626 1.487 . S
C629 N646 1.343 . S
H630 C602 0.931 . S
H631 C604 0.930 . S
H632 C606 0.930 . S
H633 C607 0.931 . S
H634 C609 0.931 . S
H635 C611 0.930 . S
H636 C613 0.930 . S
H637 C614 0.931 . S
H638 C616 0.931 . S
H639 C618 0.930 . S
H640 C620 0.930 . S
H641 C621 0.931 . S
H642 C623 0.931 . S
H643 C625 0.930 . S
H644 C627 0.930 . S
H645 C628 0.931 . S
N646 C608 1.343 . S
N646 C629 1.343 . S
N647 C615 1.343 . S
N647 C622 1.343 . S
C648 C649 1.384 . S
C648 C650 1.384 . S
C648 H676 0.931 . S
C649 C648 1.384 . S
C649 C652 1.382 1_655 S
C650 C648 1.384 . S
C650 C651 1.428 . S
C650 H677 0.930 . S
C651 C650 1.428 . S
C651 C653 1.359 1_655 S
C651 C654 1.467 1_655 S
C652 C649 1.382 1_455 S
C652 C653 1.387 . S
C652 H678 0.930 . S
C653 C651 1.359 1_455 S
C653 C652 1.387 . S
C653 H679 0.931 . S
C654 C651 1.467 1_455 S
C654 C661 1.399 1_455 S
C654 N692 1.305 . S
C655 C656 1.384 . S
C655 C657 1.384 . S
C655 H680 0.931 . S
C656 C655 1.384 . S
C656 C659 1.382 1_455 S
C657 C655 1.384 . S
C657 C658 1.379 1_455 S
C657 H681 0.930 . S
C658 C657 1.379 1_655 S
C658 C660 1.389 . S
C658 C661 1.492 . S
C659 C656 1.382 1_655 S
C659 C660 1.387 . S
C659 H682 0.930 . S
C660 C658 1.389 . S
C660 C659 1.387 . S
C660 H683 0.931 . S
C661 C654 1.399 1_655 S
C661 C658 1.492 . S
C661 N693 1.357 . S
C662 C663 1.384 . S
C662 C664 1.384 . S
C662 H684 0.931 . S
C663 C662 1.384 . S
C663 C666 1.382 1_455 S
C664 C662 1.384 . S
C664 C665 1.445 . S
C664 H685 0.930 . S
C665 C664 1.445 . S
C665 C667 1.351 1_455 S
C665 C668 1.459 . S
C666 C663 1.382 1_655 S
C666 C667 1.387 . S
C666 H686 0.930 . S
C667 C665 1.351 1_655 S
C667 C666 1.387 . S
C667 H687 0.931 . S
C668 C665 1.459 . S
C668 C675 1.399 . S
C668 N693 1.313 1_455 S
C669 C670 1.425 . S
C669 C671 1.384 . S
C669 H688 0.931 . S
C670 C669 1.425 . S
C670 C673 1.372 1_655 S
C671 C669 1.384 . S
C671 C672 1.377 1_655 S
C671 H689 0.930 . S
C672 C671 1.377 1_455 S
C672 C674 1.400 . S
C672 C675 1.492 . S
C673 C670 1.372 1_455 S
C673 C674 1.387 . S
C673 H690 0.930 . S
C674 C672 1.400 . S
C674 C673 1.387 . S
C674 H691 0.931 . S
C675 C668 1.399 . S
C675 C672 1.492 . S
C675 N692 1.357 . S
H676 C648 0.931 . S
H677 C650 0.930 . S
H678 C652 0.930 . S
H679 C653 0.931 . S
H680 C655 0.931 . S
H681 C657 0.930 . S
H682 C659 0.930 . S
H683 C660 0.931 . S
H684 C662 0.931 . S
H685 C664 0.930 . S
H686 C666 0.930 . S
H687 C667 0.931 . S
H688 C669 0.931 . S
H689 C671 0.930 . S
H690 C673 0.930 . S
H691 C674 0.931 . S
N692 C654 1.305 . S
N692 C675 1.357 . S
N693 C661 1.357 . S
N693 C668 1.313 1_655 S
C694 C695 1.384 . S
C694 C696 1.384 . S
C694 H722 0.931 . S
C695 C694 1.384 . S
C695 C698 1.382 . S
C696 C694 1.384 . S
C696 C697 1.381 . S
C696 H723 0.930 . S
C697 C696 1.381 . S
C697 C699 1.381 . S
C697 C700 1.487 . S
C698 C695 1.382 . S
C698 C699 1.387 . S
C698 H724 0.930 . S
C699 C697 1.381 . S
C699 C698 1.387 . S
C699 H725 0.931 . S
C700 C697 1.487 . S
C700 C707 1.399 . S
C700 N738 1.343 . S
C701 C702 1.384 . S
C701 C703 1.384 . S
C701 H726 0.931 . S
C702 C701 1.384 . S
C702 C705 1.382 . S
C703 C701 1.384 . S
C703 C704 1.381 . S
C703 H727 0.930 . S
C704 C703 1.381 . S
C704 C706 1.381 . S
C704 C707 1.487 . S
C705 C702 1.382 . S
C705 C706 1.387 . S
C705 H728 0.930 . S
C706 C704 1.381 . S
C706 C705 1.387 . S
C706 H729 0.931 . S
C707 C700 1.399 . S
C707 C704 1.487 . S
C707 N739 1.343 . S
C708 C709 1.384 . S
C708 C710 1.384 . S
C708 H730 0.931 . S
C709 C708 1.384 . S
C709 C712 1.382 . S
C710 C708 1.384 . S
C710 C711 1.381 . S
C710 H731 0.930 . S
C711 C710 1.381 . S
C711 C713 1.381 . S
C711 C714 1.487 . S
C712 C709 1.382 . S
C712 C713 1.387 . S
C712 H732 0.930 . S
C713 C711 1.381 . S
C713 C712 1.387 . S
C713 H733 0.931 . S
C714 C711 1.487 . S
C714 C721 1.399 . S
C714 N739 1.343 . S
C715 C716 1.384 . S
C715 C717 1.384 . S
C715 H734 0.931 . S
C716 C715 1.384 . S
C716 C719 1.382 . S
C717 C715 1.384 . S
C717 C718 1.381 . S
C717 H735 0.930 . S
C718 C717 1.381 . S
C718 C720 1.381 . S
C718 C721 1.487 . S
C719 C716 1.382 . S
C719 C720 1.387 . S
C719 H736 0.930 . S
C720 C718 1.381 . S
C720 C719 1.387 . S
C720 H737 0.931 . S
C721 C714 1.399 . S
C721 C718 1.487 . S
C721 N738 1.343 . S
H722 C694 0.931 . S
H723 C696 0.930 . S
H724 C698 0.930 . S
H725 C699 0.931 . S
H726 C701 0.931 . S
H727 C703 0.930 . S
H728 C705 0.930 . S
H729 C706 0.931 . S
H730 C708 0.931 . S
H731 C710 0.930 . S
H732 C712 0.930 . S
H733 C713 0.931 . S
H734 C715 0.931 . S
H735 C717 0.930 . S
H736 C719 0.930 . S
H737 C720 0.931 . S
N738 C700 1.343 . S
N738 C721 1.343 . S
N739 C707 1.343 . S
N739 C714 1.343 . S
C740 C741 1.384 1_545 S
C740 C742 1.384 . S
C740 H768 0.931 . S
C741 C740 1.384 1_565 S
C741 C744 1.382 . S
C742 C740 1.384 . S
C742 C743 1.381 1_545 S
C742 H769 0.930 . S
C743 C742 1.381 1_565 S
C743 C745 1.381 . S
C743 C746 1.487 . S
C744 C741 1.382 . S
C744 C745 1.387 . S
C744 H770 0.930 . S
C745 C743 1.381 . S
C745 C744 1.387 . S
C745 H771 0.931 . S
C746 C743 1.487 . S
C746 C753 1.399 1_565 S
C746 N784 1.343 . S
C747 C748 1.384 1_565 S
C747 C749 1.384 . S
C747 H772 0.931 . S
C748 C747 1.384 1_545 S
C748 C751 1.382 . S
C749 C747 1.384 . S
C749 C750 1.381 1_565 S
C749 H773 0.930 . S
C750 C749 1.381 1_545 S
C750 C752 1.381 . S
C750 C753 1.487 . S
C751 C748 1.382 . S
C751 C752 1.387 . S
C751 H774 0.930 . S
C752 C750 1.381 . S
C752 C751 1.387 . S
C752 H775 0.931 . S
C753 C746 1.399 1_545 S
C753 C750 1.487 . S
C753 N785 1.343 . S
C754 C755 1.384 1_565 S
C754 C756 1.384 . S
C754 H776 0.931 . S
C755 C754 1.384 1_545 S
C755 C758 1.382 . S
C756 C754 1.384 . S
C756 C757 1.381 1_565 S
C756 H777 0.930 . S
C757 C756 1.381 1_545 S
C757 C759 1.381 . S
C757 C760 1.487 . S
C758 C755 1.382 . S
C758 C759 1.387 . S
C758 H778 0.930 . S
C759 C757 1.381 . S
C759 C758 1.387 . S
C759 H779 0.931 . S
C760 C757 1.487 . S
C760 C767 1.399 1_545 S
C760 N785 1.343 . S
C761 C762 1.384 1_545 S
C761 C763 1.384 . S
C761 H780 0.931 . S
C762 C761 1.384 1_565 S
C762 C765 1.382 . S
C763 C761 1.384 . S
C763 C764 1.381 1_545 S
C763 H781 0.930 . S
C764 C763 1.381 1_565 S
C764 C766 1.381 . S
C764 C767 1.487 . S
C765 C762 1.382 . S
C765 C766 1.387 . S
C765 H782 0.930 . S
C766 C764 1.381 . S
C766 C765 1.387 . S
C766 H783 0.931 . S
C767 C760 1.399 1_565 S
C767 C764 1.487 . S
C767 N784 1.343 . S
H768 C740 0.931 . S
H769 C742 0.930 . S
H770 C744 0.930 . S
H771 C745 0.931 . S
H772 C747 0.931 . S
H773 C749 0.930 . S
H774 C751 0.930 . S
H775 C752 0.931 . S
H776 C754 0.931 . S
H777 C756 0.930 . S
H778 C758 0.930 . S
H779 C759 0.931 . S
H780 C761 0.931 . S
H781 C763 0.930 . S
H782 C765 0.930 . S
H783 C766 0.931 . S
N784 C746 1.343 . S
N784 C767 1.343 . S
N785 C753 1.343 . S
N785 C760 1.343 . S
C786 C787 1.384 . S
C786 C788 1.384 . S
C786 H814 0.931 . S
C787 C786 1.384 . S
C787 C790 1.382 1_545 S
C788 C786 1.384 . S
C788 C789 1.381 1_545 S
C788 H815 0.930 . S
C789 C788 1.381 1_565 S
C789 C791 1.382 . S
C789 C792 1.495 . S
C790 C787 1.382 1_565 S
C790 C791 1.387 . S
C790 H816 0.930 . S
C791 C789 1.382 . S
C791 C790 1.387 . S
C791 H817 0.931 . S
C792 C789 1.495 . S
C792 C799 1.399 1_565 S
C792 N830 1.360 . S
C793 C794 1.384 . S
C793 C795 1.384 . S
C793 H818 0.931 . S
C794 C793 1.384 . S
C794 C797 1.382 1_565 S
C795 C793 1.384 . S
C795 C796 1.418 . S
C795 H819 0.930 . S
C796 C795 1.418 . S
C796 C798 1.364 1_565 S
C796 C799 1.468 1_565 S
C797 C794 1.382 1_545 S
C797 C798 1.387 . S
C797 H820 0.930 . S
C798 C796 1.364 1_545 S
C798 C797 1.387 . S
C798 H821 0.931 . S
C799 C792 1.399 1_545 S
C799 C796 1.468 1_545 S
C799 N831 1.310 . S
C800 C801 1.384 . S
C800 C802 1.384 . S
C800 H822 0.931 . S
C801 C800 1.384 . S
C801 C804 1.382 1_565 S
C802 C800 1.384 . S
C802 C803 1.379 1_565 S
C802 H823 0.930 . S
C803 C802 1.379 1_545 S
C803 C805 1.391 . S
C803 C806 1.495 . S
C804 C801 1.382 1_545 S
C804 C805 1.387 . S
C804 H824 0.930 . S
C805 C803 1.391 . S
C805 C804 1.387 . S
C805 H825 0.931 . S
C806 C803 1.495 . S
C806 C813 1.400 . S
C806 N831 1.360 . S
C807 C808 1.384 . S
C807 C809 1.384 . S
C807 H826 0.931 . S
C808 C807 1.384 . S
C808 C811 1.382 1_545 S
C809 C807 1.384 . S
C809 C810 1.435 . S
C809 H827 0.930 . S
C810 C809 1.435 . S
C810 C812 1.357 1_545 S
C810 C813 1.460 . S
C811 C808 1.382 1_565 S
C811 C812 1.387 . S
C811 H828 0.930 . S
C812 C810 1.357 1_565 S
C812 C811 1.387 . S
C812 H829 0.931 . S
C813 C806 1.400 . S
C813 C810 1.460 . S
C813 N830 1.317 1_545 S
H814 C786 0.931 . S
H815 C788 0.930 . S
H816 C790 0.930 . S
H817 C791 0.931 . S
H818 C793 0.931 . S
H819 C795 0.930 . S
H820 C797 0.930 . S
H821 C798 0.931 . S
H822 C800 0.931 . S
H823 C802 0.930 . S
H824 C804 0.930 . S
H825 C805 0.931 . S
H826 C807 0.931 . S
H827 C809 0.930 . S
H828 C811 0.930 . S
H829 C812 0.931 . S
N830 C792 1.360 . S
N830 C813 1.317 1_565 S
N831 C799 1.310 . S
N831 C806 1.360 . S
C832 C833 1.384 . S
C832 C834 1.384 . S
C832 H860 0.931 . S
C833 C832 1.384 . S
C833 C836 1.382 1_655 S
C834 C832 1.384 . S
C834 C835 1.381 . S
C834 H861 0.930 . S
C835 C834 1.381 . S
C835 C837 1.381 1_655 S
C835 C838 1.492 . S
C836 C833 1.382 1_455 S
C836 C837 1.387 . S
C836 H862 0.930 . S
C837 C835 1.381 1_455 S
C837 C836 1.387 . S
C837 H863 0.931 . S
C838 C835 1.492 . S
C838 C845 1.399 . S
C838 N876 1.317 1_655 S
C839 C840 1.384 . S
C839 C841 1.384 . S
C839 H864 0.931 . S
C840 C839 1.384 . S
C840 C843 1.382 1_455 S
C841 C839 1.384 . S
C841 C842 1.379 1_455 S
C841 H865 0.930 . S
C842 C841 1.379 1_655 S
C842 C844 1.391 . S
C842 C845 1.496 . S
C843 C840 1.382 1_655 S
C843 C844 1.387 . S
C843 H866 0.930 . S
C844 C842 1.391 . S
C844 C843 1.387 . S
C844 H867 0.931 . S
C845 C838 1.399 . S
C845 C842 1.496 . S
C845 N877 1.354 . S
C846 C847 1.384 . S
C846 C848 1.384 . S
C846 H868 0.931 . S
C847 C846 1.384 . S
C847 C850 1.382 1_455 S
C848 C846 1.384 . S
C848 C849 1.443 . S
C848 H869 0.930 . S
C849 C848 1.443 . S
C849 C851 1.352 1_455 S
C849 C852 1.455 . S
C850 C847 1.382 1_655 S
C850 C851 1.387 . S
C850 H870 0.930 . S
C851 C849 1.352 1_655 S
C851 C850 1.387 . S
C851 H871 0.931 . S
C852 C849 1.455 . S
C852 C859 1.399 . S
C852 N877 1.317 1_455 S
C853 C854 1.384 . S
C853 C855 1.384 . S
C853 H872 0.931 . S
C854 C853 1.384 . S
C854 C857 1.382 1_655 S
C855 C853 1.384 . S
C855 C856 1.381 1_655 S
C855 H873 0.930 . S
C856 C855 1.381 1_455 S
C856 C858 1.381 . S
C856 C859 1.496 . S
C857 C854 1.382 1_455 S
C857 C858 1.387 . S
C857 H874 0.930 . S
C858 C856 1.381 . S
C858 C857 1.387 . S
C858 H875 0.931 . S
C859 C852 1.399 . S
C859 C856 1.496 . S
C859 N876 1.354 . S
H860 C832 0.931 . S
H861 C834 0.930 . S
H862 C836 0.930 . S
H863 C837 0.931 . S
H864 C839 0.931 . S
H865 C841 0.930 . S
H866 C843 0.930 . S
H867 C844 0.931 . S
H868 C846 0.931 . S
H869 C848 0.930 . S
H870 C850 0.930 . S
H871 C851 0.931 . S
H872 C853 0.931 . S
H873 C855 0.930 . S
H874 C857 0.930 . S
H875 C858 0.931 . S
N876 C838 1.317 1_455 S
N876 C859 1.354 . S
N877 C845 1.354 . S
N877 C852 1.317 1_655 S
C878 C879 1.384 . S
C878 C880 1.384 . S
C878 H906 0.931 . S
C879 C878 1.384 . S
C879 C882 1.382 . S
C880 C878 1.384 . S
C880 C881 1.381 . S
C880 H907 0.930 . S
C881 C880 1.381 . S
C881 C883 1.381 . S
C881 C884 1.487 . S
C882 C879 1.382 . S
C882 C883 1.387 . S
C882 H908 0.930 . S
C883 C881 1.381 . S
C883 C882 1.387 . S
C883 H909 0.931 . S
C884 C881 1.487 . S
C884 C891 1.399 . S
C884 N922 1.343 . S
C885 C886 1.384 . S
C885 C887 1.384 . S
C885 H910 0.931 . S
C886 C885 1.384 . S
C886 C889 1.382 . S
C887 C885 1.384 . S
C887 C888 1.381 . S
C887 H911 0.930 . S
C888 C887 1.381 . S
C888 C890 1.381 . S
C888 C891 1.487 . S
C889 C886 1.382 . S
C889 C890 1.387 . S
C889 H912 0.930 . S
C890 C888 1.381 . S
C890 C889 1.387 . S
C890 H913 0.931 . S
C891 C884 1.399 . S
C891 C888 1.487 . S
C891 N923 1.343 . S
C892 C893 1.384 . S
C892 C894 1.384 . S
C892 H914 0.931 . S
C893 C892 1.384 . S
C893 C896 1.382 . S
C894 C892 1.384 . S
C894 C895 1.381 . S
C894 H915 0.930 . S
C895 C894 1.381 . S
C895 C897 1.381 . S
C895 C898 1.487 . S
C896 C893 1.382 . S
C896 C897 1.387 . S
C896 H916 0.930 . S
C897 C895 1.381 . S
C897 C896 1.387 . S
C897 H917 0.931 . S
C898 C895 1.487 . S
C898 C905 1.399 . S
C898 N923 1.343 . S
C899 C900 1.384 . S
C899 C901 1.384 . S
C899 H918 0.931 . S
C900 C899 1.384 . S
C900 C903 1.382 . S
C901 C899 1.384 . S
C901 C902 1.381 . S
C901 H919 0.930 . S
C902 C901 1.381 . S
C902 C904 1.381 . S
C902 C905 1.487 . S
C903 C900 1.382 . S
C903 C904 1.387 . S
C903 H920 0.930 . S
C904 C902 1.381 . S
C904 C903 1.387 . S
C904 H921 0.931 . S
C905 C898 1.399 . S
C905 C902 1.487 . S
C905 N922 1.343 . S
H906 C878 0.931 . S
H907 C880 0.930 . S
H908 C882 0.930 . S
H909 C883 0.931 . S
H910 C885 0.931 . S
H911 C887 0.930 . S
H912 C889 0.930 . S
H913 C890 0.931 . S
H914 C892 0.931 . S
H915 C894 0.930 . S
H916 C896 0.930 . S
H917 C897 0.931 . S
H918 C899 0.931 . S
H919 C901 0.930 . S
H920 C903 0.930 . S
H921 C904 0.931 . S
N922 C884 1.343 . S
N922 C905 1.343 . S
N923 C891 1.343 . S
N923 C898 1.343 . S
C924 C925 1.384 . S
C924 C926 1.384 . S
C924 H952 0.931 . S
C925 C924 1.384 . S
C925 C928 1.382 . S
C926 C924 1.384 . S
C926 C927 1.381 . S
C926 H953 0.930 . S
C927 C926 1.381 . S
C927 C929 1.381 . S
C927 C930 1.487 . S
C928 C925 1.382 . S
C928 C929 1.387 . S
C928 H954 0.930 . S
C929 C927 1.381 . S
C929 C928 1.387 . S
C929 H955 0.931 . S
C930 C927 1.487 . S
C930 C937 1.399 . S
C930 N968 1.343 . S
C931 C932 1.384 . S
C931 C933 1.384 . S
C931 H956 0.931 . S
C932 C931 1.384 . S
C932 C935 1.382 . S
C933 C931 1.384 . S
C933 C934 1.381 . S
C933 H957 0.930 . S
C934 C933 1.381 . S
C934 C936 1.381 . S
C934 C937 1.487 . S
C935 C932 1.382 . S
C935 C936 1.387 . S
C935 H958 0.930 . S
C936 C934 1.381 . S
C936 C935 1.387 . S
C936 H959 0.931 . S
C937 C930 1.399 . S
C937 C934 1.487 . S
C937 N969 1.343 . S
C938 C939 1.384 . S
C938 C940 1.384 . S
C938 H960 0.931 . S
C939 C938 1.384 . S
C939 C942 1.382 . S
C940 C938 1.384 . S
C940 C941 1.381 . S
C940 H961 0.930 . S
C941 C940 1.381 . S
C941 C943 1.381 . S
C941 C944 1.487 . S
C942 C939 1.382 . S
C942 C943 1.387 . S
C942 H962 0.930 . S
C943 C941 1.381 . S
C943 C942 1.387 . S
C943 H963 0.931 . S
C944 C941 1.487 . S
C944 C951 1.399 . S
C944 N969 1.343 . S
C945 C946 1.384 . S
C945 C947 1.384 . S
C945 H964 0.931 . S
C946 C945 1.384 . S
C946 C949 1.382 . S
C947 C945 1.384 . S
C947 C948 1.381 . S
C947 H965 0.930 . S
C948 C947 1.381 . S
C948 C950 1.381 . S
C948 C951 1.487 . S
C949 C946 1.382 . S
C949 C950 1.387 . S
C949 H966 0.930 . S
C950 C948 1.381 . S
C950 C949 1.387 . S
C950 H967 0.931 . S
C951 C944 1.399 . S
C951 C948 1.487 . S
C951 N968 1.343 . S
H952 C924 0.931 . S
H953 C926 0.930 . S
H954 C928 0.930 . S
H955 C929 0.931 . S
H956 C931 0.931 . S
H957 C933 0.930 . S
H958 C935 0.930 . S
H959 C936 0.931 . S
H960 C938 0.931 . S
H961 C940 0.930 . S
H962 C942 0.930 . S
H963 C943 0.931 . S
H964 C945 0.931 . S
H965 C947 0.930 . S
H966 C949 0.930 . S
H967 C950 0.931 . S
N968 C930 1.343 . S
N968 C951 1.343 . S
N969 C937 1.343 . S
N969 C944 1.343 . S
C970 C971 1.384 . S
C970 C972 1.384 . S
C970 H998 0.931 . S
C971 C970 1.384 . S
C971 C974 1.382 . S
C972 C970 1.384 . S
C972 C973 1.381 . S
C972 H999 0.930 . S
C973 C972 1.381 . S
C973 C975 1.381 . S
C973 C976 1.487 . S
C974 C971 1.382 . S
C974 C975 1.387 . S
C974 H1000 0.930 . S
C975 C973 1.381 . S
C975 C974 1.387 . S
C975 H1001 0.931 . S
C976 C973 1.487 . S
C976 C983 1.399 . S
C976 N1014 1.343 . S
C977 C978 1.384 . S
C977 C979 1.384 . S
C977 H1002 0.931 . S
C978 C977 1.384 . S
C978 C981 1.382 . S
C979 C977 1.384 . S
C979 C980 1.381 . S
C979 H1003 0.930 . S
C980 C979 1.381 . S
C980 C982 1.381 . S
C980 C983 1.487 . S
C981 C978 1.382 . S
C981 C982 1.387 . S
C981 H1004 0.930 . S
C982 C980 1.381 . S
C982 C981 1.387 . S
C982 H1005 0.931 . S
C983 C976 1.399 . S
C983 C980 1.487 . S
C983 N1015 1.343 . S
C984 C985 1.384 . S
C984 C986 1.384 . S
C984 H1006 0.931 . S
C985 C984 1.384 . S
C985 C988 1.382 . S
C986 C984 1.384 . S
C986 C987 1.381 . S
C986 H1007 0.930 . S
C987 C986 1.381 . S
C987 C989 1.381 . S
C987 C990 1.487 . S
C988 C985 1.382 . S
C988 C989 1.387 . S
C988 H1008 0.930 . S
C989 C987 1.381 . S
C989 C988 1.387 . S
C989 H1009 0.931 . S
C990 C987 1.487 . S
C990 C997 1.399 . S
C990 N1015 1.343 . S
C991 C992 1.384 . S
C991 C993 1.384 . S
C991 H1010 0.931 . S
C992 C991 1.384 . S
C992 C995 1.382 . S
C993 C991 1.384 . S
C993 C994 1.381 . S
C993 H1011 0.930 . S
C994 C993 1.381 . S
C994 C996 1.381 . S
C994 C997 1.487 . S
C995 C992 1.382 . S
C995 C996 1.387 . S
C995 H1012 0.930 . S
C996 C994 1.381 . S
C996 C995 1.387 . S
C996 H1013 0.931 . S
C997 C990 1.399 . S
C997 C994 1.487 . S
C997 N1014 1.343 . S
H998 C970 0.931 . S
H999 C972 0.930 . S
H1000 C974 0.930 . S
H1001 C975 0.931 . S
H1002 C977 0.931 . S
H1003 C979 0.930 . S
H1004 C981 0.930 . S
H1005 C982 0.931 . S
H1006 C984 0.931 . S
H1007 C986 0.930 . S
H1008 C988 0.930 . S
H1009 C989 0.931 . S
H1010 C991 0.931 . S
H1011 C993 0.930 . S
H1012 C995 0.930 . S
H1013 C996 0.931 . S
N1014 C976 1.343 . S
N1014 C997 1.343 . S
N1015 C983 1.343 . S
N1015 C990 1.343 . S
C1016 C1017 1.384 . S
C1016 C1018 1.384 . S
C1016 H1044 0.931 . S
C1017 C1016 1.384 . S
C1017 C1020 1.382 . S
C1018 C1016 1.384 . S
C1018 C1019 1.381 . S
C1018 H1045 0.930 . S
C1019 C1018 1.381 . S
C1019 C1021 1.381 . S
C1019 C1022 1.487 . S
C1020 C1017 1.382 . S
C1020 C1021 1.387 . S
C1020 H1046 0.930 . S
C1021 C1019 1.381 . S
C1021 C1020 1.387 . S
C1021 H1047 0.931 . S
C1022 C1019 1.487 . S
C1022 C1029 1.399 . S
C1022 N1060 1.343 . S
C1023 C1024 1.384 . S
C1023 C1025 1.384 . S
C1023 H1048 0.931 . S
C1024 C1023 1.384 . S
C1024 C1027 1.382 . S
C1025 C1023 1.384 . S
C1025 C1026 1.381 . S
C1025 H1049 0.930 . S
C1026 C1025 1.381 . S
C1026 C1028 1.381 . S
C1026 C1029 1.487 . S
C1027 C1024 1.382 . S
C1027 C1028 1.387 . S
C1027 H1050 0.930 . S
C1028 C1026 1.381 . S
C1028 C1027 1.387 . S
C1028 H1051 0.931 . S
C1029 C1022 1.399 . S
C1029 C1026 1.487 . S
C1029 N1061 1.343 . S
C1030 C1031 1.384 . S
C1030 C1032 1.384 . S
C1030 H1052 0.931 . S
C1031 C1030 1.384 . S
C1031 C1034 1.382 . S
C1032 C1030 1.384 . S
C1032 C1033 1.381 . S
C1032 H1053 0.930 . S
C1033 C1032 1.381 . S
C1033 C1035 1.381 . S
C1033 C1036 1.487 . S
C1034 C1031 1.382 . S
C1034 C1035 1.387 . S
C1034 H1054 0.930 . S
C1035 C1033 1.381 . S
C1035 C1034 1.387 . S
C1035 H1055 0.931 . S
C1036 C1033 1.487 . S
C1036 C1043 1.399 . S
C1036 N1061 1.343 . S
C1037 C1038 1.384 . S
C1037 C1039 1.384 . S
C1037 H1056 0.931 . S
C1038 C1037 1.384 . S
C1038 C1041 1.382 . S
C1039 C1037 1.384 . S
C1039 C1040 1.381 . S
C1039 H1057 0.930 . S
C1040 C1039 1.381 . S
C1040 C1042 1.381 . S
C1040 C1043 1.487 . S
C1041 C1038 1.382 . S
C1041 C1042 1.387 . S
C1041 H1058 0.930 . S
C1042 C1040 1.381 . S
C1042 C1041 1.387 . S
C1042 H1059 0.931 . S
C1043 C1036 1.399 . S
C1043 C1040 1.487 . S
C1043 N1060 1.343 . S
H1044 C1016 0.931 . S
H1045 C1018 0.930 . S
H1046 C1020 0.930 . S
H1047 C1021 0.931 . S
H1048 C1023 0.931 . S
H1049 C1025 0.930 . S
H1050 C1027 0.930 . S
H1051 C1028 0.931 . S
H1052 C1030 0.931 . S
H1053 C1032 0.930 . S
H1054 C1034 0.930 . S
H1055 C1035 0.931 . S
H1056 C1037 0.931 . S
H1057 C1039 0.930 . S
H1058 C1041 0.930 . S
H1059 C1042 0.931 . S
N1060 C1022 1.343 . S
N1060 C1043 1.343 . S
N1061 C1029 1.343 . S
N1061 C1036 1.343 . S
H1062 C1070 0.950 . S
H1063 C1075 0.950 . S
H1064 C1072 0.950 . S
H1065 C1074 0.950 . S
H1066 C1076 0.950 . S
H1067 C1078 0.950 . S
H1068 C1080 0.950 . S
H1069 C1081 0.950 . S
C1070 H1062 0.950 . S
C1070 C1071 1.386 . S
C1070 C1072 1.391 . S
C1071 C1070 1.386 . S
C1071 C1075 1.393 1_655 S
C1072 H1064 0.950 . S
C1072 C1070 1.391 . S
C1072 C1073 1.400 . S
C1073 C1072 1.400 . S
C1073 C1074 1.398 1_655 S
C1073 C1079 1.491 . S
C1074 H1065 0.950 . S
C1074 C1073 1.398 1_455 S
C1074 C1075 1.391 . S
C1075 H1063 0.950 . S
C1075 C1071 1.393 1_455 S
C1075 C1074 1.391 . S
C1076 H1066 0.950 . S
C1076 C1077 1.386 1_455 S
C1076 C1078 1.391 . S
C1077 C1076 1.386 1_655 S
C1077 C1081 1.393 . S
C1078 H1067 0.950 . S
C1078 C1076 1.391 . S
C1078 C1079 1.400 1_455 S
C1079 C1073 1.491 . S
C1079 C1078 1.400 1_655 S
C1079 C1080 1.398 . S
C1080 H1068 0.950 . S
C1080 C1079 1.398 . S
C1080 C1081 1.391 . S
C1081 H1069 0.950 . S
C1081 C1077 1.393 . S
C1081 C1080 1.391 . S
H1082 C1090 0.950 . S
H1083 C1095 0.950 . S
H1084 C1092 0.950 . S
H1085 C1094 0.950 . S
H1086 C1096 0.950 . S
H1087 C1098 0.950 . S
H1088 C1100 0.950 . S
H1089 C1101 0.950 . S
C1090 H1082 0.950 . S
C1090 C1091 1.386 . S
C1090 C1092 1.391 . S
C1091 C1090 1.386 . S
C1091 C1095 1.393 . S
C1092 H1084 0.950 . S
C1092 C1090 1.391 . S
C1092 C1093 1.400 . S
C1093 C1092 1.400 . S
C1093 C1094 1.398 . S
C1093 C1099 1.491 . S
C1094 H1085 0.950 . S
C1094 C1093 1.398 . S
C1094 C1095 1.391 . S
C1095 H1083 0.950 . S
C1095 C1091 1.393 . S
C1095 C1094 1.391 . S
C1096 H1086 0.950 . S
C1096 C1097 1.386 . S
C1096 C1098 1.391 . S
C1097 C1096 1.386 . S
C1097 C1101 1.393 . S
C1098 H1087 0.950 . S
C1098 C1096 1.391 . S
C1098 C1099 1.400 . S
C1099 C1093 1.491 . S
C1099 C1098 1.400 . S
C1099 C1100 1.398 . S
C1100 H1088 0.950 . S
C1100 C1099 1.398 . S
C1100 C1101 1.391 . S
C1101 H1089 0.950 . S
C1101 C1097 1.393 . S
C1101 C1100 1.391 . S
H1102 C1110 0.950 . S
H1103 C1115 0.927 1_565 S
H1104 C1112 0.950 . S
H1105 C1114 0.950 . S
H1106 C1116 0.950 . S
H1107 C1118 0.950 . S
H1108 C1120 0.950 . S
H1109 C1121 0.950 . S
C1110 H1102 0.950 . S
C1110 C1111 1.386 . S
C1110 C1112 1.391 . S
C1111 C1110 1.386 . S
C1111 C1115 1.448 . S
C1112 H1104 0.950 . S
C1112 C1110 1.391 . S
C1112 C1113 1.400 . S
C1113 C1112 1.400 . S
C1113 C1114 1.398 1_545 S
C1113 C1119 1.491 . S
C1114 H1105 0.950 . S
C1114 C1113 1.398 1_565 S
C1114 C1115 1.361 1_565 S
C1115 H1103 0.927 1_545 S
C1115 C1111 1.448 . S
C1115 C1114 1.361 1_545 S
C1116 H1106 0.950 . S
C1116 C1117 1.386 1_565 S
C1116 C1118 1.391 . S
C1117 C1116 1.386 1_545 S
C1117 C1121 1.393 . S
C1118 H1107 0.950 . S
C1118 C1116 1.391 . S
C1118 C1119 1.400 1_565 S
C1119 C1113 1.491 . S
C1119 C1118 1.400 1_545 S
C1119 C1120 1.398 . S
C1120 H1108 0.950 . S
C1120 C1119 1.398 . S
C1120 C1121 1.391 . S
C1121 H1109 0.950 . S
C1121 C1117 1.393 . S
C1121 C1120 1.391 . S
H1122 C1130 0.950 . S
H1123 C1135 0.950 . S
H1124 C1132 0.950 . S
H1125 C1134 0.950 . S
H1126 C1136 0.950 . S
H1127 C1138 0.950 . S
H1128 C1140 0.950 . S
H1129 C1141 0.950 . S
C1130 H1122 0.950 . S
C1130 C1131 1.386 . S
C1130 C1132 1.391 . S
C1131 C1130 1.386 . S
C1131 C1135 1.393 1_565 S
C1132 H1124 0.950 . S
C1132 C1130 1.391 . S
C1132 C1133 1.400 . S
C1133 C1132 1.400 . S
C1133 C1134 1.398 1_565 S
C1133 C1139 1.491 . S
C1134 H1125 0.950 . S
C1134 C1133 1.398 1_545 S
C1134 C1135 1.391 . S
C1135 H1123 0.950 . S
C1135 C1131 1.393 1_545 S
C1135 C1134 1.391 . S
C1136 H1126 0.950 . S
C1136 C1137 1.386 1_545 S
C1136 C1138 1.391 . S
C1137 C1136 1.386 1_565 S
C1137 C1141 1.393 . S
C1138 H1127 0.950 . S
C1138 C1136 1.391 . S
C1138 C1139 1.400 1_545 S
C1139 C1133 1.491 . S
C1139 C1138 1.400 1_565 S
C1139 C1140 1.398 . S
C1140 H1128 0.950 . S
C1140 C1139 1.398 . S
C1140 C1141 1.391 . S
C1141 H1129 0.950 . S
C1141 C1137 1.393 . S
C1141 C1140 1.391 . S
H1142 C1150 0.950 . S
H1143 C1155 0.946 . S
H1144 C1152 0.950 . S
H1145 C1154 0.950 1_655 S
H1146 C1156 0.950 . S
H1147 C1158 0.945 . S
H1148 C1160 0.950 . S
H1149 C1161 0.950 . S
C1150 H1142 0.950 . S
C1150 C1151 1.386 . S
C1150 C1152 1.391 . S
C1151 C1150 1.386 . S
C1151 C1155 1.393 . S
C1152 H1144 0.950 . S
C1152 C1150 1.391 . S
C1152 C1153 1.400 . S
C1153 C1152 1.400 . S
C1153 C1154 1.398 . S
C1153 C1159 1.491 . S
C1154 H1145 0.950 1_455 S
C1154 C1153 1.398 . S
C1154 C1155 1.391 . S
C1155 H1143 0.946 . S
C1155 C1151 1.393 . S
C1155 C1154 1.391 . S
C1156 H1146 0.950 . S
C1156 C1157 1.386 1_655 S
C1156 C1158 1.407 . S
C1157 C1156 1.386 1_455 S
C1157 C1161 1.393 . S
C1158 H1147 0.945 . S
C1158 C1156 1.407 . S
C1158 C1159 1.390 1_655 S
C1159 C1153 1.491 . S
C1159 C1158 1.390 1_455 S
C1159 C1160 1.398 . S
C1160 H1148 0.950 . S
C1160 C1159 1.398 . S
C1160 C1161 1.391 . S
C1161 H1149 0.950 . S
C1161 C1157 1.393 . S
C1161 C1160 1.391 . S
H1162 C1170 0.950 . S
H1163 C1175 0.950 . S
H1164 C1172 0.950 . S
H1165 C1174 0.950 . S
H1166 C1176 0.950 . S
H1167 C1178 0.950 . S
H1168 C1180 0.950 . S
H1169 C1181 0.950 . S
C1170 H1162 0.950 . S
C1170 C1171 1.386 . S
C1170 C1172 1.391 . S
C1171 C1170 1.386 . S
C1171 C1175 1.393 . S
C1172 H1164 0.950 . S
C1172 C1170 1.391 . S
C1172 C1173 1.400 . S
C1173 C1172 1.400 . S
C1173 C1174 1.398 . S
C1173 C1179 1.491 . S
C1174 H1165 0.950 . S
C1174 C1173 1.398 . S
C1174 C1175 1.391 . S
C1175 H1163 0.950 . S
C1175 C1171 1.393 . S
C1175 C1174 1.391 . S
C1176 H1166 0.950 . S
C1176 C1177 1.386 . S
C1176 C1178 1.391 . S
C1177 C1176 1.386 . S
C1177 C1181 1.393 . S
C1178 H1167 0.950 . S
C1178 C1176 1.391 . S
C1178 C1179 1.400 . S
C1179 C1173 1.491 . S
C1179 C1178 1.400 . S
C1179 C1180 1.398 . S
C1180 H1168 0.950 . S
C1180 C1179 1.398 . S
C1180 C1181 1.391 . S
C1181 H1169 0.950 . S
C1181 C1177 1.393 . S
C1181 C1180 1.391 . S
H1182 C1190 0.950 . S
H1183 C1195 0.950 1_655 S
H1184 C1192 0.950 . S
H1185 C1194 0.950 1_655 S
H1186 C1196 0.950 . S
H1187 C1198 0.950 . S
H1188 C1200 0.950 . S
H1189 C1201 0.950 . S
C1190 H1182 0.950 . S
C1190 C1191 1.386 . S
C1190 C1192 1.391 . S
C1191 C1190 1.386 . S
C1191 C1195 1.393 . S
C1192 H1184 0.950 . S
C1192 C1190 1.391 . S
C1192 C1193 1.400 . S
C1193 C1192 1.400 . S
C1193 C1194 1.400 . S
C1193 C1199 1.491 . S
C1194 H1185 0.950 1_455 S
C1194 C1193 1.400 . S
C1194 C1195 1.389 . S
C1195 H1183 0.950 1_455 S
C1195 C1191 1.393 . S
C1195 C1194 1.389 . S
C1196 H1186 0.950 . S
C1196 C1197 1.386 1_655 S
C1196 C1198 1.391 . S
C1197 C1196 1.386 1_455 S
C1197 C1201 1.393 . S
C1198 H1187 0.950 . S
C1198 C1196 1.391 . S
C1198 C1199 1.400 1_655 S
C1199 C1193 1.491 . S
C1199 C1198 1.400 1_455 S
C1199 C1200 1.398 . S
C1200 H1188 0.950 . S
C1200 C1199 1.398 . S
C1200 C1201 1.391 . S
C1201 H1189 0.950 . S
C1201 C1197 1.393 . S
C1201 C1200 1.391 . S
H1202 C1210 0.950 . S
H1203 C1215 0.950 . S
H1204 C1212 0.950 . S
H1205 C1214 0.950 . S
H1206 C1216 0.950 . S
H1207 C1218 0.950 . S
H1208 C1220 0.950 . S
H1209 C1221 0.950 . S
C1210 H1202 0.950 . S
C1210 C1211 1.386 . S
C1210 C1212 1.391 . S
C1211 C1210 1.386 . S
C1211 C1215 1.393 . S
C1212 H1204 0.950 . S
C1212 C1210 1.391 . S
C1212 C1213 1.400 . S
C1213 C1212 1.400 . S
C1213 C1214 1.398 . S
C1213 C1219 1.491 . S
C1214 H1205 0.950 . S
C1214 C1213 1.398 . S
C1214 C1215 1.391 . S
C1215 H1203 0.950 . S
C1215 C1211 1.393 . S
C1215 C1214 1.391 . S
C1216 H1206 0.950 . S
C1216 C1217 1.386 . S
C1216 C1218 1.391 . S
C1217 C1216 1.386 . S
C1217 C1221 1.393 . S
C1218 H1207 0.950 . S
C1218 C1216 1.391 . S
C1218 C1219 1.400 . S
C1219 C1213 1.491 . S
C1219 C1218 1.400 . S
C1219 C1220 1.398 . S
C1220 H1208 0.950 . S
C1220 C1219 1.398 . S
C1220 C1221 1.391 . S
C1221 H1209 0.950 . S
C1221 C1217 1.393 . S
C1221 C1220 1.391 . S
H1222 C1230 0.950 . S
H1223 C1235 0.950 . S
H1224 C1232 0.950 . S
H1225 C1234 0.950 . S
H1226 C1236 0.950 . S
H1227 C1238 0.950 . S
H1228 C1240 0.950 . S
H1229 C1241 0.950 . S
C1230 H1222 0.950 . S
C1230 C1231 1.386 . S
C1230 C1232 1.391 . S
C1231 C1230 1.386 . S
C1231 C1235 1.393 . S
C1232 H1224 0.950 . S
C1232 C1230 1.391 . S
C1232 C1233 1.400 . S
C1233 C1232 1.400 . S
C1233 C1234 1.398 . S
C1233 C1239 1.491 . S
C1234 H1225 0.950 . S
C1234 C1233 1.398 . S
C1234 C1235 1.391 . S
C1235 H1223 0.950 . S
C1235 C1231 1.393 . S
C1235 C1234 1.391 . S
C1236 H1226 0.950 . S
C1236 C1237 1.386 . S
C1236 C1238 1.391 . S
C1237 C1236 1.386 . S
C1237 C1241 1.393 . S
C1238 H1227 0.950 . S
C1238 C1236 1.391 . S
C1238 C1239 1.400 . S
C1239 C1233 1.491 . S
C1239 C1238 1.400 . S
C1239 C1240 1.398 . S
C1240 H1228 0.950 . S
C1240 C1239 1.398 . S
C1240 C1241 1.391 . S
C1241 H1229 0.950 . S
C1241 C1237 1.393 . S
C1241 C1240 1.391 . S
H1242 C1250 0.972 . S
H1243 C1255 0.950 . S
H1244 C1252 0.950 . S
H1245 C1254 0.950 . S
H1246 C1256 0.950 . S
H1247 C1258 0.950 . S
H1248 C1260 0.950 . S
H1249 C1261 0.950 . S
C1250 H1242 0.972 . S
C1250 C1251 1.382 1_565 S
C1250 C1252 1.375 . S
C1251 C1250 1.382 1_545 S
C1251 C1255 1.393 . S
C1252 H1244 0.950 . S
C1252 C1250 1.375 . S
C1252 C1253 1.400 1_565 S
C1253 C1252 1.400 1_545 S
C1253 C1254 1.398 . S
C1253 C1259 1.491 . S
C1254 H1245 0.950 . S
C1254 C1253 1.398 . S
C1254 C1255 1.391 . S
C1255 H1243 0.950 . S
C1255 C1251 1.393 . S
C1255 C1254 1.391 . S
C1256 H1246 0.950 . S
C1256 C1257 1.386 . S
C1256 C1258 1.391 . S
C1257 C1256 1.386 . S
C1257 C1261 1.393 1_545 S
C1258 H1247 0.950 . S
C1258 C1256 1.391 . S
C1258 C1259 1.400 . S
C1259 C1253 1.491 . S
C1259 C1258 1.400 . S
C1259 C1260 1.398 1_545 S
C1260 H1248 0.950 . S
C1260 C1259 1.398 1_565 S
C1260 C1261 1.391 . S
C1261 H1249 0.950 . S
C1261 C1257 1.393 1_565 S
C1261 C1260 1.391 . S
H1262 C1270 0.950 . S
H1263 C1275 0.950 . S
H1264 C1272 0.950 . S
H1265 C1274 0.950 . S
H1266 C1276 0.955 . S
H1267 C1278 0.932 1_455 S
H1268 C1280 0.950 . S
H1269 C1281 0.950 . S
C1270 H1262 0.950 . S
C1270 C1271 1.386 . S
C1270 C1272 1.391 . S
C1271 C1270 1.386 . S
C1271 C1275 1.393 . S
C1272 H1264 0.950 . S
C1272 C1270 1.391 . S
C1272 C1273 1.400 . S
C1273 C1272 1.400 . S
C1273 C1274 1.398 . S
C1273 C1279 1.491 . S
C1274 H1265 0.950 . S
C1274 C1273 1.398 . S
C1274 C1275 1.391 . S
C1275 H1263 0.950 . S
C1275 C1271 1.393 . S
C1275 C1274 1.391 . S
C1276 H1266 0.955 . S
C1276 C1277 1.383 1_455 S
C1276 C1278 1.356 1_455 S
C1277 C1276 1.383 1_655 S
C1277 C1281 1.393 . S
C1278 H1267 0.932 1_655 S
C1278 C1276 1.356 1_655 S
C1278 C1279 1.456 . S
C1279 C1273 1.491 . S
C1279 C1278 1.456 . S
C1279 C1280 1.398 . S
C1280 H1268 0.950 . S
C1280 C1279 1.398 . S
C1280 C1281 1.391 . S
C1281 H1269 0.950 . S
C1281 C1277 1.393 . S
C1281 C1280 1.391 . S
H1282 C1290 0.950 . S
H1283 C1295 0.950 . S
H1284 C1292 0.950 . S
H1285 C1294 0.950 . S
H1286 C1296 0.950 . S
H1287 C1298 0.950 . S
H1288 C1300 0.950 . S
H1289 C1301 0.950 . S
C1290 H1282 0.950 . S
C1290 C1291 1.386 . S
C1290 C1292 1.391 . S
C1291 C1290 1.386 . S
C1291 C1295 1.393 . S
C1292 H1284 0.950 . S
C1292 C1290 1.391 . S
C1292 C1293 1.400 . S
C1293 C1292 1.400 . S
C1293 C1294 1.398 . S
C1293 C1299 1.491 . S
C1294 H1285 0.950 . S
C1294 C1293 1.398 . S
C1294 C1295 1.391 . S
C1295 H1283 0.950 . S
C1295 C1291 1.393 . S
C1295 C1294 1.391 . S
C1296 H1286 0.950 . S
C1296 C1297 1.386 . S
C1296 C1298 1.391 . S
C1297 C1296 1.386 . S
C1297 C1301 1.393 . S
C1298 H1287 0.950 . S
C1298 C1296 1.391 . S
C1298 C1299 1.400 . S
C1299 C1293 1.491 . S
C1299 C1298 1.400 . S
C1299 C1300 1.398 . S
C1300 H1288 0.950 . S
C1300 C1299 1.398 . S
C1300 C1301 1.391 . S
C1301 H1289 0.950 . S
C1301 C1297 1.393 . S
C1301 C1300 1.391 . S
H1302 C1310 0.950 . S
H1303 C1315 0.950 . S
H1304 C1312 0.950 . S
H1305 C1314 0.950 . S
H1306 C1316 0.950 . S
H1307 C1318 0.950 . S
H1308 C1320 0.950 . S
H1309 C1321 0.950 . S
C1310 H1302 0.950 . S
C1310 C1311 1.386 . S
C1310 C1312 1.391 . S
C1311 C1310 1.386 . S
C1311 C1315 1.393 . S
C1312 H1304 0.950 . S
C1312 C1310 1.391 . S
C1312 C1313 1.400 . S
C1313 C1312 1.400 . S
C1313 C1314 1.398 . S
C1313 C1319 1.491 . S
C1314 H1305 0.950 . S
C1314 C1313 1.398 . S
C1314 C1315 1.391 . S
C1315 H1303 0.950 . S
C1315 C1311 1.393 . S
C1315 C1314 1.391 . S
C1316 H1306 0.950 . S
C1316 C1317 1.386 . S
C1316 C1318 1.391 . S
C1317 C1316 1.386 . S
C1317 C1321 1.393 . S
C1318 H1307 0.950 . S
C1318 C1316 1.391 . S
C1318 C1319 1.400 . S
C1319 C1313 1.491 . S
C1319 C1318 1.400 . S
C1319 C1320 1.398 . S
C1320 H1308 0.950 . S
C1320 C1319 1.398 . S
C1320 C1321 1.391 . S
C1321 H1309 0.950 . S
C1321 C1317 1.393 . S
C1321 C1320 1.391 . S
H1322 C1330 0.950 . S
H1323 C1335 0.950 . S
H1324 C1332 0.950 . S
H1325 C1334 0.950 . S
H1326 C1336 0.950 . S
H1327 C1338 0.950 . S
H1328 C1340 0.950 . S
H1329 C1341 0.950 . S
C1330 H1322 0.950 . S
C1330 C1331 1.386 . S
C1330 C1332 1.391 . S
C1331 C1330 1.386 . S
C1331 C1335 1.393 . S
C1332 H1324 0.950 . S
C1332 C1330 1.391 . S
C1332 C1333 1.400 . S
C1333 C1332 1.400 . S
C1333 C1334 1.398 . S
C1333 C1339 1.491 . S
C1334 H1325 0.950 . S
C1334 C1333 1.398 . S
C1334 C1335 1.391 . S
C1335 H1323 0.950 . S
C1335 C1331 1.393 . S
C1335 C1334 1.391 . S
C1336 H1326 0.950 . S
C1336 C1337 1.386 . S
C1336 C1338 1.391 . S
C1337 C1336 1.386 . S
C1337 C1341 1.393 . S
C1338 H1327 0.950 . S
C1338 C1336 1.391 . S
C1338 C1339 1.400 . S
C1339 C1333 1.491 . S
C1339 C1338 1.400 . S
C1339 C1340 1.398 . S
C1340 H1328 0.950 . S
C1340 C1339 1.398 . S
C1340 C1341 1.391 . S
C1341 H1329 0.950 . S
C1341 C1337 1.393 . S
C1341 C1340 1.391 . S
H1342 C1350 0.950 . S
H1343 C1355 0.950 . S
H1344 C1352 0.950 . S
H1345 C1354 0.950 . S
H1346 C1356 0.950 . S
H1347 C1358 0.950 . S
H1348 C1360 0.950 . S
H1349 C1361 0.950 . S
C1350 H1342 0.950 . S
C1350 C1351 1.386 . S
C1350 C1352 1.391 . S
C1351 C1350 1.386 . S
C1351 C1355 1.393 . S
C1352 H1344 0.950 . S
C1352 C1350 1.391 . S
C1352 C1353 1.400 . S
C1353 C1352 1.400 . S
C1353 C1354 1.398 . S
C1353 C1359 1.491 . S
C1354 H1345 0.950 . S
C1354 C1353 1.398 . S
C1354 C1355 1.391 . S
C1355 H1343 0.950 . S
C1355 C1351 1.393 . S
C1355 C1354 1.391 . S
C1356 H1346 0.950 . S
C1356 C1357 1.386 . S
C1356 C1358 1.391 . S
C1357 C1356 1.386 . S
C1357 C1361 1.393 . S
C1358 H1347 0.950 . S
C1358 C1356 1.391 . S
C1358 C1359 1.400 . S
C1359 C1353 1.491 . S
C1359 C1358 1.400 . S
C1359 C1360 1.398 . S
C1360 H1348 0.950 . S
C1360 C1359 1.398 . S
C1360 C1361 1.391 . S
C1361 H1349 0.950 . S
C1361 C1357 1.393 . S
C1361 C1360 1.391 . S
H1362 C1370 0.950 . S
H1363 C1375 0.950 . S
H1364 C1372 0.950 . S
H1365 C1374 0.950 . S
H1366 C1376 0.950 . S
H1367 C1378 0.950 . S
H1368 C1380 0.950 . S
H1369 C1381 0.950 . S
C1370 H1362 0.950 . S
C1370 C1371 1.386 . S
C1370 C1372 1.391 . S
C1371 C1370 1.386 . S
C1371 C1375 1.393 . S
C1372 H1364 0.950 . S
C1372 C1370 1.391 . S
C1372 C1373 1.400 . S
C1373 C1372 1.400 . S
C1373 C1374 1.398 . S
C1373 C1379 1.491 . S
C1374 H1365 0.950 . S
C1374 C1373 1.398 . S
C1374 C1375 1.391 . S
C1375 H1363 0.950 . S
C1375 C1371 1.393 . S
C1375 C1374 1.391 . S
C1376 H1366 0.950 . S
C1376 C1377 1.386 . S
C1376 C1378 1.391 . S
C1377 C1376 1.386 . S
C1377 C1381 1.393 . S
C1378 H1367 0.950 . S
C1378 C1376 1.391 . S
C1378 C1379 1.400 . S
C1379 C1373 1.491 . S
C1379 C1378 1.400 . S
C1379 C1380 1.398 . S
C1380 H1368 0.950 . S
C1380 C1379 1.398 . S
C1380 C1381 1.391 . S
C1381 H1369 0.950 . S
C1381 C1377 1.393 . S
C1381 C1380 1.391 . S
H1382 C1390 0.950 . S
H1383 C1395 0.950 . S
H1384 C1392 0.950 . S
H1385 C1394 0.950 . S
H1386 C1396 0.950 . S
H1387 C1398 0.950 . S
H1388 C1400 0.950 . S
H1389 C1401 0.950 . S
C1390 H1382 0.950 . S
C1390 C1391 1.386 . S
C1390 C1392 1.391 . S
C1391 C1390 1.386 . S
C1391 C1395 1.393 . S
C1392 H1384 0.950 . S
C1392 C1390 1.391 . S
C1392 C1393 1.400 . S
C1393 C1392 1.400 . S
C1393 C1394 1.398 . S
C1393 C1399 1.491 . S
C1394 H1385 0.950 . S
C1394 C1393 1.398 . S
C1394 C1395 1.391 . S
C1395 H1383 0.950 . S
C1395 C1391 1.393 . S
C1395 C1394 1.391 . S
C1396 H1386 0.950 . S
C1396 C1397 1.386 . S
C1396 C1398 1.391 . S
C1397 C1396 1.386 . S
C1397 C1401 1.393 . S
C1398 H1387 0.950 . S
C1398 C1396 1.391 . S
C1398 C1399 1.400 . S
C1399 C1393 1.491 . S
C1399 C1398 1.400 . S
C1399 C1400 1.398 . S
C1400 H1388 0.950 . S
C1400 C1399 1.398 . S
C1400 C1401 1.391 . S
C1401 H1389 0.950 . S
C1401 C1397 1.393 . S
C1401 C1400 1.391 . S
H1402 C1410 0.950 . S
H1403 C1415 0.950 . S
H1404 C1412 0.950 . S
H1405 C1414 0.950 . S
H1406 C1416 0.950 . S
H1407 C1418 0.950 . S
H1408 C1420 0.950 . S
H1409 C1421 0.950 . S
C1410 H1402 0.950 . S
C1410 C1411 1.386 . S
C1410 C1412 1.391 . S
C1411 C1410 1.386 . S
C1411 C1415 1.393 . S
C1412 H1404 0.950 . S
C1412 C1410 1.391 . S
C1412 C1413 1.400 . S
C1413 C1412 1.400 . S
C1413 C1414 1.398 . S
C1413 C1419 1.491 . S
C1414 H1405 0.950 . S
C1414 C1413 1.398 . S
C1414 C1415 1.391 . S
C1415 H1403 0.950 . S
C1415 C1411 1.393 . S
C1415 C1414 1.391 . S
C1416 H1406 0.950 . S
C1416 C1417 1.386 . S
C1416 C1418 1.391 . S
C1417 C1416 1.386 . S
C1417 C1421 1.393 . S
C1418 H1407 0.950 . S
C1418 C1416 1.391 . S
C1418 C1419 1.400 . S
C1419 C1413 1.491 . S
C1419 C1418 1.400 . S
C1419 C1420 1.398 . S
C1420 H1408 0.950 . S
C1420 C1419 1.398 . S
C1420 C1421 1.391 . S
C1421 H1409 0.950 . S
C1421 C1417 1.393 . S
C1421 C1420 1.391 . S
H1422 C1430 0.950 . S
H1423 C1435 0.950 . S
H1424 C1432 0.950 . S
H1425 C1434 0.950 . S
H1426 C1436 0.950 . S
H1427 C1438 0.950 . S
H1428 C1440 0.950 . S
H1429 C1441 0.950 . S
C1430 H1422 0.950 . S
C1430 C1431 1.386 . S
C1430 C1432 1.391 . S
C1431 C1430 1.386 . S
C1431 C1435 1.393 . S
C1432 H1424 0.950 . S
C1432 C1430 1.391 . S
C1432 C1433 1.400 . S
C1433 C1432 1.400 . S
C1433 C1434 1.398 . S
C1433 C1439 1.491 . S
C1434 H1425 0.950 . S
C1434 C1433 1.398 . S
C1434 C1435 1.391 . S
C1435 H1423 0.950 . S
C1435 C1431 1.393 . S
C1435 C1434 1.391 . S
C1436 H1426 0.950 . S
C1436 C1437 1.386 . S
C1436 C1438 1.391 . S
C1437 C1436 1.386 . S
C1437 C1441 1.393 . S
C1438 H1427 0.950 . S
C1438 C1436 1.391 . S
C1438 C1439 1.400 . S
C1439 C1433 1.491 . S
C1439 C1438 1.400 . S
C1439 C1440 1.398 . S
C1440 H1428 0.950 . S
C1440 C1439 1.398 . S
C1440 C1441 1.391 . S
C1441 H1429 0.950 . S
C1441 C1437 1.393 . S
C1441 C1440 1.391 . S
H1442 C1450 0.950 . S
H1443 C1455 0.950 . S
H1444 C1452 0.950 . S
H1445 C1454 0.950 . S
H1446 C1456 0.950 . S
H1447 C1458 0.950 . S
H1448 C1460 0.950 . S
H1449 C1461 0.950 . S
C1450 H1442 0.950 . S
C1450 C1451 1.386 . S
C1450 C1452 1.391 . S
C1451 C1450 1.386 . S
C1451 C1455 1.393 . S
C1452 H1444 0.950 . S
C1452 C1450 1.391 . S
C1452 C1453 1.400 . S
C1453 C1452 1.400 . S
C1453 C1454 1.398 . S
C1453 C1459 1.491 . S
C1454 H1445 0.950 . S
C1454 C1453 1.398 . S
C1454 C1455 1.391 . S
C1455 H1443 0.950 . S
C1455 C1451 1.393 . S
C1455 C1454 1.391 . S
C1456 H1446 0.950 . S
C1456 C1457 1.386 . S
C1456 C1458 1.391 . S
C1457 C1456 1.386 . S
C1457 C1461 1.393 . S
C1458 H1447 0.950 . S
C1458 C1456 1.391 . S
C1458 C1459 1.400 . S
C1459 C1453 1.491 . S
C1459 C1458 1.400 . S
C1459 C1460 1.398 . S
C1460 H1448 0.950 . S
C1460 C1459 1.398 . S
C1460 C1461 1.391 . S
C1461 H1449 0.950 . S
C1461 C1457 1.393 . S
C1461 C1460 1.391 . S
H1462 C1470 0.950 . S
H1463 C1475 0.950 . S
H1464 C1472 0.950 . S
H1465 C1474 0.950 . S
H1466 C1476 0.950 . S
H1467 C1478 0.950 . S
H1468 C1480 0.950 . S
H1469 C1481 0.950 . S
C1470 H1462 0.950 . S
C1470 C1471 1.386 . S
C1470 C1472 1.391 . S
C1471 C1470 1.386 . S
C1471 C1475 1.393 . S
C1472 H1464 0.950 . S
C1472 C1470 1.391 . S
C1472 C1473 1.400 . S
C1473 C1472 1.400 . S
C1473 C1474 1.398 . S
C1473 C1479 1.491 . S
C1474 H1465 0.950 . S
C1474 C1473 1.398 . S
C1474 C1475 1.391 . S
C1475 H1463 0.950 . S
C1475 C1471 1.393 . S
C1475 C1474 1.391 . S
C1476 H1466 0.950 . S
C1476 C1477 1.386 . S
C1476 C1478 1.391 . S
C1477 C1476 1.386 . S
C1477 C1481 1.393 . S
C1478 H1467 0.950 . S
C1478 C1476 1.391 . S
C1478 C1479 1.400 . S
C1479 C1473 1.491 . S
C1479 C1478 1.400 . S
C1479 C1480 1.398 . S
C1480 H1468 0.950 . S
C1480 C1479 1.398 . S
C1480 C1481 1.391 . S
C1481 H1469 0.950 . S
C1481 C1477 1.393 . S
C1481 C1480 1.391 . S
H1482 C1490 0.950 . S
H1483 C1495 0.950 . S
H1484 C1492 0.950 . S
H1485 C1494 0.950 . S
H1486 C1496 0.950 . S
H1487 C1498 0.950 . S
H1488 C1500 0.950 . S
H1489 C1501 0.950 . S
C1490 H1482 0.950 . S
C1490 C1491 1.386 . S
C1490 C1492 1.391 . S
C1491 C1490 1.386 . S
C1491 C1495 1.393 . S
C1492 H1484 0.950 . S
C1492 C1490 1.391 . S
C1492 C1493 1.400 . S
C1493 C1492 1.400 . S
C1493 C1494 1.398 . S
C1493 C1499 1.491 . S
C1494 H1485 0.950 . S
C1494 C1493 1.398 . S
C1494 C1495 1.391 . S
C1495 H1483 0.950 . S
C1495 C1491 1.393 . S
C1495 C1494 1.391 . S
C1496 H1486 0.950 . S
C1496 C1497 1.386 . S
C1496 C1498 1.391 . S
C1497 C1496 1.386 . S
C1497 C1501 1.393 . S
C1498 H1487 0.950 . S
C1498 C1496 1.391 . S
C1498 C1499 1.400 . S
C1499 C1493 1.491 . S
C1499 C1498 1.400 . S
C1499 C1500 1.398 . S
C1500 H1488 0.950 . S
C1500 C1499 1.398 . S
C1500 C1501 1.391 . S
C1501 H1489 0.950 . S
C1501 C1497 1.393 . S
C1501 C1500 1.391 . S
H1502 C1510 0.950 . S
H1503 C1515 0.950 . S
H1504 C1512 0.950 . S
H1505 C1514 0.950 . S
H1506 C1516 0.950 . S
H1507 C1518 0.950 . S
H1508 C1520 0.950 . S
H1509 C1521 0.950 . S
C1510 H1502 0.950 . S
C1510 C1511 1.386 . S
C1510 C1512 1.391 . S
C1511 C1510 1.386 . S
C1511 C1515 1.393 . S
C1512 H1504 0.950 . S
C1512 C1510 1.391 . S
C1512 C1513 1.400 . S
C1513 C1512 1.400 . S
C1513 C1514 1.398 . S
C1513 C1519 1.491 . S
C1514 H1505 0.950 . S
C1514 C1513 1.398 . S
C1514 C1515 1.391 . S
C1515 H1503 0.950 . S
C1515 C1511 1.393 . S
C1515 C1514 1.391 . S
C1516 H1506 0.950 . S
C1516 C1517 1.386 . S
C1516 C1518 1.391 . S
C1517 C1516 1.386 . S
C1517 C1521 1.393 . S
C1518 H1507 0.950 . S
C1518 C1516 1.391 . S
C1518 C1519 1.400 . S
C1519 C1513 1.491 . S
C1519 C1518 1.400 . S
C1519 C1520 1.398 . S
C1520 H1508 0.950 . S
C1520 C1519 1.398 . S
C1520 C1521 1.391 . S
C1521 H1509 0.950 . S
C1521 C1517 1.393 . S
C1521 C1520 1.391 . S
H1522 C1530 0.950 . S
H1523 C1535 0.950 . S
H1524 C1532 0.950 . S
H1525 C1534 0.950 . S
H1526 C1536 0.950 . S
H1527 C1538 0.950 . S
H1528 C1540 0.950 . S
H1529 C1541 0.950 . S
C1530 H1522 0.950 . S
C1530 C1531 1.386 . S
C1530 C1532 1.391 . S
C1531 C1530 1.386 . S
C1531 C1535 1.393 . S
C1532 H1524 0.950 . S
C1532 C1530 1.391 . S
C1532 C1533 1.400 . S
C1533 C1532 1.400 . S
C1533 C1534 1.398 . S
C1533 C1539 1.491 . S
C1534 H1525 0.950 . S
C1534 C1533 1.398 . S
C1534 C1535 1.391 . S
C1535 H1523 0.950 . S
C1535 C1531 1.393 . S
C1535 C1534 1.391 . S
C1536 H1526 0.950 . S
C1536 C1537 1.386 . S
C1536 C1538 1.391 . S
C1537 C1536 1.386 . S
C1537 C1541 1.393 . S
C1538 H1527 0.950 . S
C1538 C1536 1.391 . S
C1538 C1539 1.400 . S
C1539 C1533 1.491 . S
C1539 C1538 1.400 . S
C1539 C1540 1.398 . S
C1540 H1528 0.950 . S
C1540 C1539 1.398 . S
C1540 C1541 1.391 . S
C1541 H1529 0.950 . S
C1541 C1537 1.393 . S
C1541 C1540 1.391 . S
H1542 C1550 0.950 . S
H1543 C1555 0.950 . S
H1544 C1552 0.950 . S
H1545 C1554 0.950 . S
H1546 C1556 0.950 . S
H1547 C1558 0.950 . S
H1548 C1560 0.950 . S
H1549 C1561 0.950 . S
C1550 H1542 0.950 . S
C1550 C1551 1.386 . S
C1550 C1552 1.391 . S
C1551 C1550 1.386 . S
C1551 C1555 1.393 . S
C1552 H1544 0.950 . S
C1552 C1550 1.391 . S
C1552 C1553 1.400 . S
C1553 C1552 1.400 . S
C1553 C1554 1.398 . S
C1553 C1559 1.491 . S
C1554 H1545 0.950 . S
C1554 C1553 1.398 . S
C1554 C1555 1.391 . S
C1555 H1543 0.950 . S
C1555 C1551 1.393 . S
C1555 C1554 1.391 . S
C1556 H1546 0.950 . S
C1556 C1557 1.386 . S
C1556 C1558 1.391 . S
C1557 C1556 1.386 . S
C1557 C1561 1.393 . S
C1558 H1547 0.950 . S
C1558 C1556 1.391 . S
C1558 C1559 1.400 . S
C1559 C1553 1.491 . S
C1559 C1558 1.400 . S
C1559 C1560 1.398 . S
C1560 H1548 0.950 . S
C1560 C1559 1.398 . S
C1560 C1561 1.391 . S
C1561 H1549 0.950 . S
C1561 C1557 1.393 . S
C1561 C1560 1.391 . S
H1562 C1570 0.950 . S
H1563 C1575 0.950 . S
H1564 C1572 0.950 . S
H1565 C1574 0.950 . S
H1566 C1576 0.950 . S
H1567 C1578 0.950 . S
H1568 C1580 0.950 . S
H1569 C1581 0.950 . S
C1570 H1562 0.950 . S
C1570 C1571 1.386 . S
C1570 C1572 1.391 . S
C1571 C1570 1.386 . S
C1571 C1575 1.393 . S
C1572 H1564 0.950 . S
C1572 C1570 1.391 . S
C1572 C1573 1.400 . S
C1573 C1572 1.400 . S
C1573 C1574 1.398 . S
C1573 C1579 1.491 . S
C1574 H1565 0.950 . S
C1574 C1573 1.398 . S
C1574 C1575 1.391 . S
C1575 H1563 0.950 . S
C1575 C1571 1.393 . S
C1575 C1574 1.391 . S
C1576 H1566 0.950 . S
C1576 C1577 1.386 . S
C1576 C1578 1.391 . S
C1577 C1576 1.386 . S
C1577 C1581 1.393 . S
C1578 H1567 0.950 . S
C1578 C1576 1.391 . S
C1578 C1579 1.400 . S
C1579 C1573 1.491 . S
C1579 C1578 1.400 . S
C1579 C1580 1.398 . S
C1580 H1568 0.950 . S
C1580 C1579 1.398 . S
C1580 C1581 1.391 . S
C1581 H1569 0.950 . S
C1581 C1577 1.393 . S
C1581 C1580 1.391 . S
H1582 C1590 0.950 . S
H1583 C1595 0.950 . S
H1584 C1592 0.950 . S
H1585 C1594 0.950 . S
H1586 C1596 0.950 . S
H1587 C1598 0.950 . S
H1588 C1600 0.950 . S
H1589 C1601 0.950 . S
C1590 H1582 0.950 . S
C1590 C1591 1.386 . S
C1590 C1592 1.391 . S
C1591 C1590 1.386 . S
C1591 C1595 1.393 . S
C1592 H1584 0.950 . S
C1592 C1590 1.391 . S
C1592 C1593 1.400 . S
C1593 C1592 1.400 . S
C1593 C1594 1.398 . S
C1593 C1599 1.491 . S
C1594 H1585 0.950 . S
C1594 C1593 1.398 . S
C1594 C1595 1.391 . S
C1595 H1583 0.950 . S
C1595 C1591 1.393 . S
C1595 C1594 1.391 . S
C1596 H1586 0.950 . S
C1596 C1597 1.386 . S
C1596 C1598 1.391 . S
C1597 C1596 1.386 . S
C1597 C1601 1.393 . S
C1598 H1587 0.950 . S
C1598 C1596 1.391 . S
C1598 C1599 1.400 . S
C1599 C1593 1.491 . S
C1599 C1598 1.400 . S
C1599 C1600 1.398 . S
C1600 H1588 0.950 . S
C1600 C1599 1.398 . S
C1600 C1601 1.391 . S
C1601 H1589 0.950 . S
C1601 C1597 1.393 . S
C1601 C1600 1.391 . S
H1602 C1610 0.950 . S
H1603 C1615 0.950 . S
H1604 C1612 0.950 . S
H1605 C1614 0.950 . S
H1606 C1616 0.950 . S
H1607 C1618 0.950 . S
H1608 C1620 0.950 . S
H1609 C1621 0.950 . S
C1610 H1602 0.950 . S
C1610 C1611 1.386 . S
C1610 C1612 1.391 . S
C1611 C1610 1.386 . S
C1611 C1615 1.393 . S
C1612 H1604 0.950 . S
C1612 C1610 1.391 . S
C1612 C1613 1.400 . S
C1613 C1612 1.400 . S
C1613 C1614 1.398 . S
C1613 C1619 1.491 . S
C1614 H1605 0.950 . S
C1614 C1613 1.398 . S
C1614 C1615 1.391 . S
C1615 H1603 0.950 . S
C1615 C1611 1.393 . S
C1615 C1614 1.391 . S
C1616 H1606 0.950 . S
C1616 C1617 1.386 . S
C1616 C1618 1.391 . S
C1617 C1616 1.386 . S
C1617 C1621 1.393 . S
C1618 H1607 0.950 . S
C1618 C1616 1.391 . S
C1618 C1619 1.400 . S
C1619 C1613 1.491 . S
C1619 C1618 1.400 . S
C1619 C1620 1.398 . S
C1620 H1608 0.950 . S
C1620 C1619 1.398 . S
C1620 C1621 1.391 . S
C1621 H1609 0.950 . S
C1621 C1617 1.393 . S
C1621 C1620 1.391 . S
H1622 C1630 0.950 . S
H1623 C1635 0.950 . S
H1624 C1632 0.950 . S
H1625 C1634 0.950 . S
H1626 C1636 0.950 . S
H1627 C1638 0.950 . S
H1628 C1640 0.950 . S
H1629 C1641 0.950 . S
C1630 H1622 0.950 . S
C1630 C1631 1.386 . S
C1630 C1632 1.391 . S
C1631 C1630 1.386 . S
C1631 C1635 1.393 . S
C1632 H1624 0.950 . S
C1632 C1630 1.391 . S
C1632 C1633 1.400 . S
C1633 C1632 1.400 . S
C1633 C1634 1.398 . S
C1633 C1639 1.491 . S
C1634 H1625 0.950 . S
C1634 C1633 1.398 . S
C1634 C1635 1.391 . S
C1635 H1623 0.950 . S
C1635 C1631 1.393 . S
C1635 C1634 1.391 . S
C1636 H1626 0.950 . S
C1636 C1637 1.386 . S
C1636 C1638 1.391 . S
C1637 C1636 1.386 . S
C1637 C1641 1.393 . S
C1638 H1627 0.950 . S
C1638 C1636 1.391 . S
C1638 C1639 1.400 . S
C1639 C1633 1.491 . S
C1639 C1638 1.400 . S
C1639 C1640 1.398 . S
C1640 H1628 0.950 . S
C1640 C1639 1.398 . S
C1640 C1641 1.391 . S
C1641 H1629 0.950 . S
C1641 C1637 1.393 . S
C1641 C1640 1.391 . S
H1642 C1650 0.950 . S
H1643 C1655 0.950 . S
H1644 C1652 0.950 . S
H1645 C1654 0.950 . S
H1646 C1656 0.950 . S
H1647 C1658 0.950 . S
H1648 C1660 0.950 . S
H1649 C1661 0.950 . S
C1650 H1642 0.950 . S
C1650 C1651 1.386 . S
C1650 C1652 1.391 . S
C1651 C1650 1.386 . S
C1651 C1655 1.393 . S
C1652 H1644 0.950 . S
C1652 C1650 1.391 . S
C1652 C1653 1.400 . S
C1653 C1652 1.400 . S
C1653 C1654 1.398 . S
C1653 C1659 1.491 . S
C1654 H1645 0.950 . S
C1654 C1653 1.398 . S
C1654 C1655 1.391 . S
C1655 H1643 0.950 . S
C1655 C1651 1.393 . S
C1655 C1654 1.391 . S
C1656 H1646 0.950 . S
C1656 C1657 1.386 . S
C1656 C1658 1.391 . S
C1657 C1656 1.386 . S
C1657 C1661 1.393 . S
C1658 H1647 0.950 . S
C1658 C1656 1.391 . S
C1658 C1659 1.400 . S
C1659 C1653 1.491 . S
C1659 C1658 1.400 . S
C1659 C1660 1.398 . S
C1660 H1648 0.950 . S
C1660 C1659 1.398 . S
C1660 C1661 1.391 . S
C1661 H1649 0.950 . S
C1661 C1657 1.393 . S
C1661 C1660 1.391 . S
H1662 C1670 0.950 . S
H1663 C1675 0.950 . S
H1664 C1672 0.950 . S
H1665 C1674 0.950 . S
H1666 C1676 0.950 . S
H1667 C1678 0.950 . S
H1668 C1680 0.950 . S
H1669 C1681 0.950 . S
C1670 H1662 0.950 . S
C1670 C1671 1.386 . S
C1670 C1672 1.391 . S
C1671 C1670 1.386 . S
C1671 C1675 1.393 . S
C1672 H1664 0.950 . S
C1672 C1670 1.391 . S
C1672 C1673 1.400 . S
C1673 C1672 1.400 . S
C1673 C1674 1.398 . S
C1673 C1679 1.491 . S
C1674 H1665 0.950 . S
C1674 C1673 1.398 . S
C1674 C1675 1.391 . S
C1675 H1663 0.950 . S
C1675 C1671 1.393 . S
C1675 C1674 1.391 . S
C1676 H1666 0.950 . S
C1676 C1677 1.386 . S
C1676 C1678 1.391 . S
C1677 C1676 1.386 . S
C1677 C1681 1.393 . S
C1678 H1667 0.950 . S
C1678 C1676 1.391 . S
C1678 C1679 1.400 . S
C1679 C1673 1.491 . S
C1679 C1678 1.400 . S
C1679 C1680 1.398 . S
C1680 H1668 0.950 . S
C1680 C1679 1.398 . S
C1680 C1681 1.391 . S
C1681 H1669 0.950 . S
C1681 C1677 1.393 . S
C1681 C1680 1.391 . S
H1682 C1690 0.950 . S
H1683 C1695 0.950 . S
H1684 C1692 0.950 . S
H1685 C1694 0.950 . S
H1686 C1696 0.950 . S
H1687 C1698 0.950 . S
H1688 C1700 0.950 . S
H1689 C1701 0.950 . S
C1690 H1682 0.950 . S
C1690 C1691 1.386 . S
C1690 C1692 1.391 . S
C1691 C1690 1.386 . S
C1691 C1695 1.393 . S
C1692 H1684 0.950 . S
C1692 C1690 1.391 . S
C1692 C1693 1.400 . S
C1693 C1692 1.400 . S
C1693 C1694 1.398 . S
C1693 C1699 1.491 . S
C1694 H1685 0.950 . S
C1694 C1693 1.398 . S
C1694 C1695 1.391 . S
C1695 H1683 0.950 . S
C1695 C1691 1.393 . S
C1695 C1694 1.391 . S
C1696 H1686 0.950 . S
C1696 C1697 1.386 . S
C1696 C1698 1.391 . S
C1697 C1696 1.386 . S
C1697 C1701 1.393 . S
C1698 H1687 0.950 . S
C1698 C1696 1.391 . S
C1698 C1699 1.400 . S
C1699 C1693 1.491 . S
C1699 C1698 1.400 . S
C1699 C1700 1.398 . S
C1700 H1688 0.950 . S
C1700 C1699 1.398 . S
C1700 C1701 1.391 . S
C1701 H1689 0.950 . S
C1701 C1697 1.393 . S
C1701 C1700 1.391 . S
H1702 C1710 0.950 . S
H1703 C1715 0.950 . S
H1704 C1712 0.950 . S
H1705 C1714 0.950 . S
H1706 C1716 0.950 . S
H1707 C1718 0.950 . S
H1708 C1720 0.950 . S
H1709 C1721 0.950 . S
C1710 H1702 0.950 . S
C1710 C1711 1.386 . S
C1710 C1712 1.391 . S
C1711 C1710 1.386 . S
C1711 C1715 1.393 . S
C1712 H1704 0.950 . S
C1712 C1710 1.391 . S
C1712 C1713 1.400 . S
C1713 C1712 1.400 . S
C1713 C1714 1.398 . S
C1713 C1719 1.491 . S
C1714 H1705 0.950 . S
C1714 C1713 1.398 . S
C1714 C1715 1.391 . S
C1715 H1703 0.950 . S
C1715 C1711 1.393 . S
C1715 C1714 1.391 . S
C1716 H1706 0.950 . S
C1716 C1717 1.386 . S
C1716 C1718 1.391 . S
C1717 C1716 1.386 . S
C1717 C1721 1.393 . S
C1718 H1707 0.950 . S
C1718 C1716 1.391 . S
C1718 C1719 1.400 . S
C1719 C1713 1.491 . S
C1719 C1718 1.400 . S
C1719 C1720 1.398 . S
C1720 H1708 0.950 . S
C1720 C1719 1.398 . S
C1720 C1721 1.391 . S
C1721 H1709 0.950 . S
C1721 C1717 1.393 . S
C1721 C1720 1.391 . S
H1722 C1730 0.950 . S
H1723 C1735 0.950 . S
H1724 C1732 0.950 . S
H1725 C1734 0.950 . S
H1726 C1736 0.950 . S
H1727 C1738 0.950 . S
H1728 C1740 0.950 . S
H1729 C1741 0.950 . S
C1730 H1722 0.950 . S
C1730 C1731 1.386 . S
C1730 C1732 1.391 . S
C1731 C1730 1.386 . S
C1731 C1735 1.393 . S
C1732 H1724 0.950 . S
C1732 C1730 1.391 . S
C1732 C1733 1.400 . S
C1733 C1732 1.400 . S
C1733 C1734 1.398 . S
C1733 C1739 1.491 . S
C1734 H1725 0.950 . S
C1734 C1733 1.398 . S
C1734 C1735 1.391 . S
C1735 H1723 0.950 . S
C1735 C1731 1.393 . S
C1735 C1734 1.391 . S
C1736 H1726 0.950 . S
C1736 C1737 1.386 . S
C1736 C1738 1.391 . S
C1737 C1736 1.386 . S
C1737 C1741 1.393 . S
C1738 H1727 0.950 . S
C1738 C1736 1.391 . S
C1738 C1739 1.400 . S
C1739 C1733 1.491 . S
C1739 C1738 1.400 . S
C1739 C1740 1.398 . S
C1740 H1728 0.950 . S
C1740 C1739 1.398 . S
C1740 C1741 1.391 . S
C1741 H1729 0.950 . S
C1741 C1737 1.393 . S
C1741 C1740 1.391 . S
H1742 C1750 0.950 . S
H1743 C1755 0.950 . S
H1744 C1752 0.950 . S
H1745 C1754 0.950 . S
H1746 C1756 0.950 . S
H1747 C1758 0.950 . S
H1748 C1760 0.950 . S
H1749 C1761 0.950 . S
C1750 H1742 0.950 . S
C1750 C1751 1.386 . S
C1750 C1752 1.391 . S
C1751 C1750 1.386 . S
C1751 C1755 1.393 . S
C1752 H1744 0.950 . S
C1752 C1750 1.391 . S
C1752 C1753 1.400 . S
C1753 C1752 1.400 . S
C1753 C1754 1.398 . S
C1753 C1759 1.491 . S
C1754 H1745 0.950 . S
C1754 C1753 1.398 . S
C1754 C1755 1.391 . S
C1755 H1743 0.950 . S
C1755 C1751 1.393 . S
C1755 C1754 1.391 . S
C1756 H1746 0.950 . S
C1756 C1757 1.386 . S
C1756 C1758 1.391 . S
C1757 C1756 1.386 . S
C1757 C1761 1.393 . S
C1758 H1747 0.950 . S
C1758 C1756 1.391 . S
C1758 C1759 1.400 . S
C1759 C1753 1.491 . S
C1759 C1758 1.400 . S
C1759 C1760 1.398 . S
C1760 H1748 0.950 . S
C1760 C1759 1.398 . S
C1760 C1761 1.391 . S
C1761 H1749 0.950 . S
C1761 C1757 1.393 . S
C1761 C1760 1.391 . S
H1762 C1770 0.950 . S
H1763 C1775 0.950 . S
H1764 C1772 0.950 . S
H1765 C1774 0.950 . S
H1766 C1776 0.950 . S
H1767 C1778 0.950 . S
H1768 C1780 0.950 . S
H1769 C1781 0.950 . S
C1770 H1762 0.950 . S
C1770 C1771 1.386 . S
C1770 C1772 1.391 . S
C1771 C1770 1.386 . S
C1771 C1775 1.393 . S
C1772 H1764 0.950 . S
C1772 C1770 1.391 . S
C1772 C1773 1.400 . S
C1773 C1772 1.400 . S
C1773 C1774 1.398 . S
C1773 C1779 1.491 . S
C1774 H1765 0.950 . S
C1774 C1773 1.398 . S
C1774 C1775 1.391 . S
C1775 H1763 0.950 . S
C1775 C1771 1.393 . S
C1775 C1774 1.391 . S
C1776 H1766 0.950 . S
C1776 C1777 1.386 . S
C1776 C1778 1.391 . S
C1777 C1776 1.386 . S
C1777 C1781 1.393 . S
C1778 H1767 0.950 . S
C1778 C1776 1.391 . S
C1778 C1779 1.400 . S
C1779 C1773 1.491 . S
C1779 C1778 1.400 . S
C1779 C1780 1.398 . S
C1780 H1768 0.950 . S
C1780 C1779 1.398 . S
C1780 C1781 1.391 . S
C1781 H1769 0.950 . S
C1781 C1777 1.393 . S
C1781 C1780 1.391 . S
H1782 C1790 0.950 . S
H1783 C1795 0.950 . S
H1784 C1792 0.950 . S
H1785 C1794 0.950 . S
H1786 C1796 0.950 . S
H1787 C1798 0.950 . S
H1788 C1800 0.950 . S
H1789 C1801 0.950 . S
C1790 H1782 0.950 . S
C1790 C1791 1.386 . S
C1790 C1792 1.391 . S
C1791 C1790 1.386 . S
C1791 C1795 1.393 . S
C1792 H1784 0.950 . S
C1792 C1790 1.391 . S
C1792 C1793 1.400 . S
C1793 C1792 1.400 . S
C1793 C1794 1.398 . S
C1793 C1799 1.491 . S
C1794 H1785 0.950 . S
C1794 C1793 1.398 . S
C1794 C1795 1.391 . S
C1795 H1783 0.950 . S
C1795 C1791 1.393 . S
C1795 C1794 1.391 . S
C1796 H1786 0.950 . S
C1796 C1797 1.386 . S
C1796 C1798 1.391 . S
C1797 C1796 1.386 . S
C1797 C1801 1.393 . S
C1798 H1787 0.950 . S
C1798 C1796 1.391 . S
C1798 C1799 1.400 . S
C1799 C1793 1.491 . S
C1799 C1798 1.400 . S
C1799 C1800 1.398 . S
C1800 H1788 0.950 . S
C1800 C1799 1.398 . S
C1800 C1801 1.391 . S
C1801 H1789 0.950 . S
C1801 C1797 1.393 . S
C1801 C1800 1.391 . S
H1802 C1810 0.950 . S
H1803 C1815 0.950 . S
H1804 C1812 0.950 . S
H1805 C1814 0.950 . S
H1806 C1816 0.950 . S
H1807 C1818 0.950 . S
H1808 C1820 0.950 . S
H1809 C1821 0.950 . S
C1810 H1802 0.950 . S
C1810 C1811 1.386 . S
C1810 C1812 1.391 . S
C1811 C1810 1.386 . S
C1811 C1815 1.393 . S
C1812 H1804 0.950 . S
C1812 C1810 1.391 . S
C1812 C1813 1.400 . S
C1813 C1812 1.400 . S
C1813 C1814 1.398 . S
C1813 C1819 1.491 . S
C1814 H1805 0.950 . S
C1814 C1813 1.398 . S
C1814 C1815 1.391 . S
C1815 H1803 0.950 . S
C1815 C1811 1.393 . S
C1815 C1814 1.391 . S
C1816 H1806 0.950 . S
C1816 C1817 1.386 . S
C1816 C1818 1.391 . S
C1817 C1816 1.386 . S
C1817 C1821 1.393 . S
C1818 H1807 0.950 . S
C1818 C1816 1.391 . S
C1818 C1819 1.400 . S
C1819 C1813 1.491 . S
C1819 C1818 1.400 . S
C1819 C1820 1.398 . S
C1820 H1808 0.950 . S
C1820 C1819 1.398 . S
C1820 C1821 1.391 . S
C1821 H1809 0.950 . S
C1821 C1817 1.393 . S
C1821 C1820 1.391 . S
H1822 C1830 0.950 . S
H1823 C1835 0.950 . S
H1824 C1832 0.950 . S
H1825 C1834 0.950 . S
H1826 C1836 0.950 . S
H1827 C1838 0.950 . S
H1828 C1840 0.950 . S
H1829 C1841 0.950 . S
C1830 H1822 0.950 . S
C1830 C1831 1.386 . S
C1830 C1832 1.391 . S
C1831 C1830 1.386 . S
C1831 C1835 1.393 . S
C1832 H1824 0.950 . S
C1832 C1830 1.391 . S
C1832 C1833 1.400 . S
C1833 C1832 1.400 . S
C1833 C1834 1.398 . S
C1833 C1839 1.491 . S
C1834 H1825 0.950 . S
C1834 C1833 1.398 . S
C1834 C1835 1.391 . S
C1835 H1823 0.950 . S
C1835 C1831 1.393 . S
C1835 C1834 1.391 . S
C1836 H1826 0.950 . S
C1836 C1837 1.386 . S
C1836 C1838 1.391 . S
C1837 C1836 1.386 . S
C1837 C1841 1.393 . S
C1838 H1827 0.950 . S
C1838 C1836 1.391 . S
C1838 C1839 1.400 . S
C1839 C1833 1.491 . S
C1839 C1838 1.400 . S
C1839 C1840 1.398 . S
C1840 H1828 0.950 . S
C1840 C1839 1.398 . S
C1840 C1841 1.391 . S
C1841 H1829 0.950 . S
C1841 C1837 1.393 . S
C1841 C1840 1.391 . S
H1842 C1850 0.950 . S
H1843 C1855 0.950 1_554 S
H1844 C1852 0.950 . S
H1845 C1854 0.950 . S
H1846 C1856 0.950 . S
H1847 C1858 0.950 . S
H1848 C1860 0.950 . S
H1849 C1861 0.950 . S
C1850 H1842 0.950 . S
C1850 C1851 1.386 . S
C1850 C1852 1.391 . S
C1851 C1850 1.386 . S
C1851 C1855 1.393 . S
C1852 H1844 0.950 . S
C1852 C1850 1.391 . S
C1852 C1853 1.400 . S
C1853 C1852 1.400 . S
C1853 C1854 1.398 . S
C1853 C1859 1.491 . S
C1854 H1845 0.950 . S
C1854 C1853 1.398 . S
C1854 C1855 1.391 . S
C1855 H1843 0.950 1_556 S
C1855 C1851 1.393 . S
C1855 C1854 1.391 . S
C1856 H1846 0.950 . S
C1856 C1857 1.386 . S
C1856 C1858 1.391 . S
C1857 C1856 1.386 . S
C1857 C1861 1.393 . S
C1858 H1847 0.950 . S
C1858 C1856 1.391 . S
C1858 C1859 1.400 . S
C1859 C1853 1.491 . S
C1859 C1858 1.400 . S
C1859 C1860 1.398 . S
C1860 H1848 0.950 . S
C1860 C1859 1.398 . S
C1860 C1861 1.391 . S
C1861 H1849 0.950 . S
C1861 C1857 1.393 . S
C1861 C1860 1.391 . S
H1862 C1870 0.950 . S
H1863 C1875 0.950 . S
H1864 C1872 0.950 . S
H1865 C1874 0.950 . S
H1866 C1876 0.950 . S
H1867 C1878 0.950 . S
H1868 C1880 0.950 . S
H1869 C1881 0.950 . S
C1870 H1862 0.950 . S
C1870 C1871 1.386 . S
C1870 C1872 1.391 . S
C1871 C1870 1.386 . S
C1871 C1875 1.393 . S
C1872 H1864 0.950 . S
C1872 C1870 1.391 . S
C1872 C1873 1.400 . S
C1873 C1872 1.400 . S
C1873 C1874 1.398 . S
C1873 C1879 1.491 . S
C1874 H1865 0.950 . S
C1874 C1873 1.398 . S
C1874 C1875 1.391 . S
C1875 H1863 0.950 . S
C1875 C1871 1.393 . S
C1875 C1874 1.391 . S
C1876 H1866 0.950 . S
C1876 C1877 1.386 . S
C1876 C1878 1.391 . S
C1877 C1876 1.386 . S
C1877 C1881 1.393 . S
C1878 H1867 0.950 . S
C1878 C1876 1.391 . S
C1878 C1879 1.400 . S
C1879 C1873 1.491 . S
C1879 C1878 1.400 . S
C1879 C1880 1.398 . S
C1880 H1868 0.950 . S
C1880 C1879 1.398 . S
C1880 C1881 1.391 . S
C1881 H1869 0.950 . S
C1881 C1877 1.393 . S
C1881 C1880 1.391 . S
H1882 C1890 0.950 . S
H1883 C1895 0.950 . S
H1884 C1892 0.950 . S
H1885 C1894 0.950 . S
H1886 C1896 0.950 . S
H1887 C1898 0.950 . S
H1888 C1900 0.950 . S
H1889 C1901 0.950 . S
C1890 H1882 0.950 . S
C1890 C1891 1.386 . S
C1890 C1892 1.391 . S
C1891 C1890 1.386 . S
C1891 C1895 1.393 . S
C1892 H1884 0.950 . S
C1892 C1890 1.391 . S
C1892 C1893 1.400 . S
C1893 C1892 1.400 . S
C1893 C1894 1.398 . S
C1893 C1899 1.491 . S
C1894 H1885 0.950 . S
C1894 C1893 1.398 . S
C1894 C1895 1.391 . S
C1895 H1883 0.950 . S
C1895 C1891 1.393 . S
C1895 C1894 1.391 . S
C1896 H1886 0.950 . S
C1896 C1897 1.386 . S
C1896 C1898 1.391 . S
C1897 C1896 1.386 . S
C1897 C1901 1.393 . S
C1898 H1887 0.950 . S
C1898 C1896 1.391 . S
C1898 C1899 1.400 . S
C1899 C1893 1.491 . S
C1899 C1898 1.400 . S
C1899 C1900 1.398 . S
C1900 H1888 0.950 . S
C1900 C1899 1.398 . S
C1900 C1901 1.391 . S
C1901 H1889 0.950 . S
C1901 C1897 1.393 . S
C1901 C1900 1.391 . S
H1902 C1910 0.950 . S
H1903 C1915 0.950 . S
H1904 C1912 0.950 . S
H1905 C1914 0.950 . S
H1906 C1916 0.950 . S
H1907 C1918 0.950 . S
H1908 C1920 0.950 . S
H1909 C1921 0.950 . S
C1910 H1902 0.950 . S
C1910 C1911 1.386 . S
C1910 C1912 1.391 . S
C1911 C1910 1.386 . S
C1911 C1915 1.393 . S
C1912 H1904 0.950 . S
C1912 C1910 1.391 . S
C1912 C1913 1.400 . S
C1913 C1912 1.400 . S
C1913 C1914 1.398 . S
C1913 C1919 1.491 . S
C1914 H1905 0.950 . S
C1914 C1913 1.398 . S
C1914 C1915 1.391 . S
C1915 H1903 0.950 . S
C1915 C1911 1.393 . S
C1915 C1914 1.391 . S
C1916 H1906 0.950 . S
C1916 C1917 1.386 . S
C1916 C1918 1.391 . S
C1917 C1916 1.386 . S
C1917 C1921 1.393 . S
C1918 H1907 0.950 . S
C1918 C1916 1.391 . S
C1918 C1919 1.400 . S
C1919 C1913 1.491 . S
C1919 C1918 1.400 . S
C1919 C1920 1.398 . S
C1920 H1908 0.950 . S
C1920 C1919 1.398 . S
C1920 C1921 1.391 . S
C1921 H1909 0.950 . S
C1921 C1917 1.393 . S
C1921 C1920 1.391 . S
H1922 C1930 0.949 1_554 S
H1923 C1935 0.950 . S
H1924 C1932 0.950 . S
H1925 C1934 0.950 . S
H1926 C1936 0.950 . S
H1927 C1938 0.950 . S
H1928 C1940 0.950 . S
H1929 C1941 0.950 . S
C1930 H1922 0.949 1_556 S
C1930 C1931 1.386 . S
C1930 C1932 1.391 . S
C1931 C1930 1.386 . S
C1931 C1935 1.393 . S
C1932 H1924 0.950 . S
C1932 C1930 1.391 . S
C1932 C1933 1.400 . S
C1933 C1932 1.400 . S
C1933 C1934 1.398 . S
C1933 C1939 1.491 . S
C1934 H1925 0.950 . S
C1934 C1933 1.398 . S
C1934 C1935 1.391 . S
C1935 H1923 0.950 . S
C1935 C1931 1.393 . S
C1935 C1934 1.391 . S
C1936 H1926 0.950 . S
C1936 C1937 1.386 . S
C1936 C1938 1.391 . S
C1937 C1936 1.386 . S
C1937 C1941 1.393 . S
C1938 H1927 0.950 . S
C1938 C1936 1.391 . S
C1938 C1939 1.400 . S
C1939 C1933 1.491 . S
C1939 C1938 1.400 . S
C1939 C1940 1.398 . S
C1940 H1928 0.950 . S
C1940 C1939 1.398 . S
C1940 C1941 1.391 . S
C1941 H1929 0.950 . S
C1941 C1937 1.393 . S
C1941 C1940 1.391 . S
H1942 C1950 0.950 . S
H1943 C1955 0.950 1_554 S
H1944 C1952 0.950 . S
H1945 C1954 0.950 . S
H1946 C1956 0.950 . S
H1947 C1958 0.950 . S
H1948 C1960 0.950 . S
H1949 C1961 0.950 . S
C1950 H1942 0.950 . S
C1950 C1951 1.386 . S
C1950 C1952 1.391 . S
C1951 C1950 1.386 . S
C1951 C1955 1.393 . S
C1952 H1944 0.950 . S
C1952 C1950 1.391 . S
C1952 C1953 1.400 . S
C1953 C1952 1.400 . S
C1953 C1954 1.398 . S
C1953 C1959 1.491 . S
C1954 H1945 0.950 . S
C1954 C1953 1.398 . S
C1954 C1955 1.391 . S
C1955 H1943 0.950 1_556 S
C1955 C1951 1.393 . S
C1955 C1954 1.391 . S
C1956 H1946 0.950 . S
C1956 C1957 1.386 . S
C1956 C1958 1.391 . S
C1957 C1956 1.386 . S
C1957 C1961 1.393 . S
C1958 H1947 0.950 . S
C1958 C1956 1.391 . S
C1958 C1959 1.400 . S
C1959 C1953 1.491 . S
C1959 C1958 1.400 . S
C1959 C1960 1.398 . S
C1960 H1948 0.950 . S
C1960 C1959 1.398 . S
C1960 C1961 1.391 . S
C1961 H1949 0.950 . S
C1961 C1957 1.393 . S
C1961 C1960 1.391 . S
H1962 C1970 0.950 . S
H1963 C1975 0.950 . S
H1964 C1972 0.950 . S
H1965 C1974 0.950 . S
H1966 C1976 0.950 . S
H1967 C1978 0.950 . S
H1968 C1980 0.950 . S
H1969 C1981 0.950 . S
C1970 H1962 0.950 . S
C1970 C1971 1.386 . S
C1970 C1972 1.391 . S
C1971 C1970 1.386 . S
C1971 C1975 1.393 . S
C1972 H1964 0.950 . S
C1972 C1970 1.391 . S
C1972 C1973 1.400 . S
C1973 C1972 1.400 . S
C1973 C1974 1.398 . S
C1973 C1979 1.491 . S
C1974 H1965 0.950 . S
C1974 C1973 1.398 . S
C1974 C1975 1.391 . S
C1975 H1963 0.950 . S
C1975 C1971 1.393 . S
C1975 C1974 1.391 . S
C1976 H1966 0.950 . S
C1976 C1977 1.386 . S
C1976 C1978 1.391 . S
C1977 C1976 1.386 . S
C1977 C1981 1.393 . S
C1978 H1967 0.950 . S
C1978 C1976 1.391 . S
C1978 C1979 1.400 . S
C1979 C1973 1.491 . S
C1979 C1978 1.400 . S
C1979 C1980 1.398 . S
C1980 H1968 0.950 . S
C1980 C1979 1.398 . S
C1980 C1981 1.391 . S
C1981 H1969 0.950 . S
C1981 C1977 1.393 . S
C1981 C1980 1.391 . S
H1982 C1990 0.950 . S
H1983 C1995 0.950 . S
H1984 C1992 0.950 . S
H1985 C1994 0.950 . S
H1986 C1996 0.950 . S
H1987 C1998 0.950 . S
H1988 C2000 0.950 . S
H1989 C2001 0.950 . S
C1990 H1982 0.950 . S
C1990 C1991 1.386 . S
C1990 C1992 1.391 . S
C1991 C1990 1.386 . S
C1991 C1995 1.393 . S
C1992 H1984 0.950 . S
C1992 C1990 1.391 . S
C1992 C1993 1.400 . S
C1993 C1992 1.400 . S
C1993 C1994 1.398 . S
C1993 C1999 1.491 . S
C1994 H1985 0.950 . S
C1994 C1993 1.398 . S
C1994 C1995 1.391 . S
C1995 H1983 0.950 . S
C1995 C1991 1.393 . S
C1995 C1994 1.391 . S
C1996 H1986 0.950 . S
C1996 C1997 1.386 . S
C1996 C1998 1.391 . S
C1997 C1996 1.386 . S
C1997 C2001 1.393 . S
C1998 H1987 0.950 . S
C1998 C1996 1.391 . S
C1998 C1999 1.400 . S
C1999 C1993 1.491 . S
C1999 C1998 1.400 . S
C1999 C2000 1.398 . S
C2000 H1988 0.950 . S
C2000 C1999 1.398 . S
C2000 C2001 1.391 . S
C2001 H1989 0.950 . S
C2001 C1997 1.393 . S
C2001 C2000 1.391 . S
H2002 C2010 0.950 . S
H2003 C2015 0.950 . S
H2004 C2012 0.950 . S
H2005 C2014 0.950 . S
H2006 C2016 0.950 . S
H2007 C2018 0.950 . S
H2008 C2020 0.950 . S
H2009 C2021 0.950 . S
C2010 H2002 0.950 . S
C2010 C2011 1.386 . S
C2010 C2012 1.391 . S
C2011 C2010 1.386 . S
C2011 C2015 1.393 . S
C2012 H2004 0.950 . S
C2012 C2010 1.391 . S
C2012 C2013 1.400 . S
C2013 C2012 1.400 . S
C2013 C2014 1.398 . S
C2013 C2019 1.491 . S
C2014 H2005 0.950 . S
C2014 C2013 1.398 . S
C2014 C2015 1.391 . S
C2015 H2003 0.950 . S
C2015 C2011 1.393 . S
C2015 C2014 1.391 . S
C2016 H2006 0.950 . S
C2016 C2017 1.386 . S
C2016 C2018 1.391 . S
C2017 C2016 1.386 . S
C2017 C2021 1.393 . S
C2018 H2007 0.950 . S
C2018 C2016 1.391 . S
C2018 C2019 1.400 . S
C2019 C2013 1.491 . S
C2019 C2018 1.400 . S
C2019 C2020 1.398 . S
C2020 H2008 0.950 . S
C2020 C2019 1.398 . S
C2020 C2021 1.391 . S
C2021 H2009 0.950 . S
C2021 C2017 1.393 . S
C2021 C2020 1.391 . S
H2022 C2030 0.950 . S
H2023 C2035 0.950 . S
H2024 C2032 0.950 . S
H2025 C2034 0.950 . S
H2026 C2036 0.950 . S
H2027 C2038 0.950 . S
H2028 C2040 0.950 . S
H2029 C2041 0.950 . S
C2030 H2022 0.950 . S
C2030 C2031 1.386 . S
C2030 C2032 1.391 . S
C2031 C2030 1.386 . S
C2031 C2035 1.393 . S
C2032 H2024 0.950 . S
C2032 C2030 1.391 . S
C2032 C2033 1.400 . S
C2033 C2032 1.400 . S
C2033 C2034 1.398 . S
C2033 C2039 1.491 . S
C2034 H2025 0.950 . S
C2034 C2033 1.398 . S
C2034 C2035 1.391 . S
C2035 H2023 0.950 . S
C2035 C2031 1.393 . S
C2035 C2034 1.391 . S
C2036 H2026 0.950 . S
C2036 C2037 1.386 . S
C2036 C2038 1.391 . S
C2037 C2036 1.386 . S
C2037 C2041 1.393 . S
C2038 H2027 0.950 . S
C2038 C2036 1.391 . S
C2038 C2039 1.400 . S
C2039 C2033 1.491 . S
C2039 C2038 1.400 . S
C2039 C2040 1.398 . S
C2040 H2028 0.950 . S
C2040 C2039 1.398 . S
C2040 C2041 1.391 . S
C2041 H2029 0.950 . S
C2041 C2037 1.393 . S
C2041 C2040 1.391 . S
H2042 C2050 0.950 . S
H2043 C2055 0.950 . S
H2044 C2052 0.950 . S
H2045 C2054 0.950 . S
H2046 C2056 0.950 . S
H2047 C2058 0.950 . S
H2048 C2060 0.950 . S
H2049 C2061 0.950 . S
C2050 H2042 0.950 . S
C2050 C2051 1.386 . S
C2050 C2052 1.391 . S
C2051 C2050 1.386 . S
C2051 C2055 1.393 . S
C2052 H2044 0.950 . S
C2052 C2050 1.391 . S
C2052 C2053 1.400 . S
C2053 C2052 1.400 . S
C2053 C2054 1.398 . S
C2053 C2059 1.491 . S
C2054 H2045 0.950 . S
C2054 C2053 1.398 . S
C2054 C2055 1.391 . S
C2055 H2043 0.950 . S
C2055 C2051 1.393 . S
C2055 C2054 1.391 . S
C2056 H2046 0.950 . S
C2056 C2057 1.386 . S
C2056 C2058 1.391 . S
C2057 C2056 1.386 . S
C2057 C2061 1.393 . S
C2058 H2047 0.950 . S
C2058 C2056 1.391 . S
C2058 C2059 1.400 . S
C2059 C2053 1.491 . S
C2059 C2058 1.400 . S
C2059 C2060 1.398 . S
C2060 H2048 0.950 . S
C2060 C2059 1.398 . S
C2060 C2061 1.391 . S
C2061 H2049 0.950 . S
C2061 C2057 1.393 . S
C2061 C2060 1.391 . S
H2062 C2070 0.950 . S
H2063 C2075 0.950 . S
H2064 C2072 0.950 . S
H2065 C2074 0.950 . S
H2066 C2076 0.950 . S
H2067 C2078 0.950 . S
H2068 C2080 0.950 . S
H2069 C2081 0.950 . S
C2070 H2062 0.950 . S
C2070 C2071 1.386 . S
C2070 C2072 1.391 . S
C2071 C2070 1.386 . S
C2071 C2075 1.393 . S
C2072 H2064 0.950 . S
C2072 C2070 1.391 . S
C2072 C2073 1.400 . S
C2073 C2072 1.400 . S
C2073 C2074 1.398 . S
C2073 C2079 1.491 . S
C2074 H2065 0.950 . S
C2074 C2073 1.398 . S
C2074 C2075 1.391 . S
C2075 H2063 0.950 . S
C2075 C2071 1.393 . S
C2075 C2074 1.391 . S
C2076 H2066 0.950 . S
C2076 C2077 1.386 . S
C2076 C2078 1.391 . S
C2077 C2076 1.386 . S
C2077 C2081 1.393 . S
C2078 H2067 0.950 . S
C2078 C2076 1.391 . S
C2078 C2079 1.400 . S
C2079 C2073 1.491 . S
C2079 C2078 1.400 . S
C2079 C2080 1.398 . S
C2080 H2068 0.950 . S
C2080 C2079 1.398 . S
C2080 C2081 1.391 . S
C2081 H2069 0.950 . S
C2081 C2077 1.393 . S
C2081 C2080 1.391 . S
H2082 C2090 0.950 1_655 S
H2083 C2095 0.950 . S
H2084 C2092 0.941 . S
H2085 C2094 0.950 . S
H2086 C2096 0.950 . S
H2087 C2098 0.950 . S
H2088 C2100 0.950 . S
H2089 C2101 0.950 . S
C2090 H2082 0.950 1_455 S
C2090 C2091 1.386 . S
C2090 C2092 1.396 1_455 S
C2091 C2090 1.386 . S
C2091 C2095 1.393 . S
C2092 H2084 0.941 . S
C2092 C2090 1.396 1_655 S
C2092 C2093 1.404 1_655 S
C2093 C2092 1.404 1_455 S
C2093 C2094 1.398 . S
C2093 C2099 1.491 . S
C2094 H2085 0.950 . S
C2094 C2093 1.398 . S
C2094 C2095 1.391 . S
C2095 H2083 0.950 . S
C2095 C2091 1.393 . S
C2095 C2094 1.391 . S
C2096 H2086 0.950 . S
C2096 C2097 1.386 . S
C2096 C2098 1.391 . S
C2097 C2096 1.386 . S
C2097 C2101 1.393 1_455 S
C2098 H2087 0.950 . S
C2098 C2096 1.391 . S
C2098 C2099 1.400 . S
C2099 C2093 1.491 . S
C2099 C2098 1.400 . S
C2099 C2100 1.398 1_455 S
C2100 H2088 0.950 . S
C2100 C2099 1.398 1_655 S
C2100 C2101 1.391 . S
C2101 H2089 0.950 . S
C2101 C2097 1.393 1_655 S
C2101 C2100 1.391 . S
H2102 C2110 0.950 . S
H2103 C2115 0.950 . S
H2104 C2112 0.950 . S
H2105 C2114 0.950 . S
H2106 C2116 0.950 . S
H2107 C2118 0.950 . S
H2108 C2120 0.950 . S
H2109 C2121 0.950 . S
C2110 H2102 0.950 . S
C2110 C2111 1.386 . S
C2110 C2112 1.391 . S
C2111 C2110 1.386 . S
C2111 C2115 1.393 . S
C2112 H2104 0.950 . S
C2112 C2110 1.391 . S
C2112 C2113 1.400 . S
C2113 C2112 1.400 . S
C2113 C2114 1.398 . S
C2113 C2119 1.491 . S
C2114 H2105 0.950 . S
C2114 C2113 1.398 . S
C2114 C2115 1.391 . S
C2115 H2103 0.950 . S
C2115 C2111 1.393 . S
C2115 C2114 1.391 . S
C2116 H2106 0.950 . S
C2116 C2117 1.386 . S
C2116 C2118 1.391 . S
C2117 C2116 1.386 . S
C2117 C2121 1.393 . S
C2118 H2107 0.950 . S
C2118 C2116 1.391 . S
C2118 C2119 1.400 . S
C2119 C2113 1.491 . S
C2119 C2118 1.400 . S
C2119 C2120 1.398 . S
C2120 H2108 0.950 . S
C2120 C2119 1.398 . S
C2120 C2121 1.391 . S
C2121 H2109 0.950 . S
C2121 C2117 1.393 . S
C2121 C2120 1.391 . S
H2122 C2130 0.950 . S
H2123 C2135 0.950 . S
H2124 C2132 0.950 . S
H2125 C2134 0.950 . S
H2126 C2136 0.950 . S
H2127 C2138 0.950 . S
H2128 C2140 0.950 . S
H2129 C2141 0.950 . S
C2130 H2122 0.950 . S
C2130 C2131 1.386 1_545 S
C2130 C2132 1.391 . S
C2131 C2130 1.386 1_565 S
C2131 C2135 1.393 . S
C2132 H2124 0.950 . S
C2132 C2130 1.391 . S
C2132 C2133 1.400 1_545 S
C2133 C2132 1.400 1_565 S
C2133 C2134 1.398 . S
C2133 C2139 1.491 . S
C2134 H2125 0.950 . S
C2134 C2133 1.398 . S
C2134 C2135 1.391 . S
C2135 H2123 0.950 . S
C2135 C2131 1.393 . S
C2135 C2134 1.391 . S
C2136 H2126 0.950 . S
C2136 C2137 1.386 . S
C2136 C2138 1.391 . S
C2137 C2136 1.386 . S
C2137 C2141 1.393 1_565 S
C2138 H2127 0.950 . S
C2138 C2136 1.391 . S
C2138 C2139 1.400 . S
C2139 C2133 1.491 . S
C2139 C2138 1.400 . S
C2139 C2140 1.398 1_565 S
C2140 H2128 0.950 . S
C2140 C2139 1.398 1_545 S
C2140 C2141 1.391 . S
C2141 H2129 0.950 . S
C2141 C2137 1.393 1_545 S
C2141 C2140 1.391 . S
H2142 C2150 0.950 . S
H2143 C2155 0.952 1_545 S
H2144 C2152 0.950 . S
H2145 C2154 0.950 . S
H2146 C2156 0.950 . S
H2147 C2158 0.950 . S
H2148 C2160 0.950 . S
H2149 C2161 0.950 . S
C2150 H2142 0.950 . S
C2150 C2151 1.386 . S
C2150 C2152 1.391 . S
C2151 C2150 1.386 . S
C2151 C2155 1.387 . S
C2152 H2144 0.950 . S
C2152 C2150 1.391 . S
C2152 C2153 1.400 . S
C2153 C2152 1.400 . S
C2153 C2154 1.398 1_565 S
C2153 C2159 1.491 . S
C2154 H2145 0.950 . S
C2154 C2153 1.398 1_545 S
C2154 C2155 1.394 1_545 S
C2155 H2143 0.952 1_565 S
C2155 C2151 1.387 . S
C2155 C2154 1.394 1_565 S
C2156 H2146 0.950 . S
C2156 C2157 1.386 1_545 S
C2156 C2158 1.391 . S
C2157 C2156 1.386 1_565 S
C2157 C2161 1.393 . S
C2158 H2147 0.950 . S
C2158 C2156 1.391 . S
C2158 C2159 1.400 1_545 S
C2159 C2153 1.491 . S
C2159 C2158 1.400 1_565 S
C2159 C2160 1.398 . S
C2160 H2148 0.950 . S
C2160 C2159 1.398 . S
C2160 C2161 1.391 . S
C2161 H2149 0.950 . S
C2161 C2157 1.393 . S
C2161 C2160 1.391 . S
H2162 C2170 0.950 . S
H2163 C2175 0.950 . S
H2164 C2172 0.950 . S
H2165 C2174 0.950 . S
H2166 C2176 0.950 . S
H2167 C2178 0.950 . S
H2168 C2180 0.950 . S
H2169 C2181 0.950 . S
C2170 H2162 0.950 . S
C2170 C2171 1.386 . S
C2170 C2172 1.391 . S
C2171 C2170 1.386 . S
C2171 C2175 1.393 1_455 S
C2172 H2164 0.950 . S
C2172 C2170 1.391 . S
C2172 C2173 1.400 . S
C2173 C2172 1.400 . S
C2173 C2174 1.398 1_455 S
C2173 C2179 1.491 . S
C2174 H2165 0.950 . S
C2174 C2173 1.398 1_655 S
C2174 C2175 1.391 . S
C2175 H2163 0.950 . S
C2175 C2171 1.393 1_655 S
C2175 C2174 1.391 . S
C2176 H2166 0.950 . S
C2176 C2177 1.386 1_655 S
C2176 C2178 1.391 . S
C2177 C2176 1.386 1_455 S
C2177 C2181 1.393 . S
C2178 H2167 0.950 . S
C2178 C2176 1.391 . S
C2178 C2179 1.400 1_655 S
C2179 C2173 1.491 . S
C2179 C2178 1.400 1_455 S
C2179 C2180 1.398 . S
C2180 H2168 0.950 . S
C2180 C2179 1.398 . S
C2180 C2181 1.391 . S
C2181 H2169 0.950 . S
C2181 C2177 1.393 . S
C2181 C2180 1.391 . S
H2182 C2190 0.950 . S
H2183 C2195 0.950 . S
H2184 C2192 0.950 . S
H2185 C2194 0.950 . S
H2186 C2196 0.950 . S
H2187 C2198 0.950 . S
H2188 C2200 0.950 . S
H2189 C2201 0.950 . S
C2190 H2182 0.950 . S
C2190 C2191 1.386 . S
C2190 C2192 1.391 . S
C2191 C2190 1.386 . S
C2191 C2195 1.393 . S
C2192 H2184 0.950 . S
C2192 C2190 1.391 . S
C2192 C2193 1.400 . S
C2193 C2192 1.400 . S
C2193 C2194 1.398 . S
C2193 C2199 1.491 . S
C2194 H2185 0.950 . S
C2194 C2193 1.398 . S
C2194 C2195 1.391 . S
C2195 H2183 0.950 . S
C2195 C2191 1.393 . S
C2195 C2194 1.391 . S
C2196 H2186 0.950 . S
C2196 C2197 1.386 . S
C2196 C2198 1.391 . S
C2197 C2196 1.386 . S
C2197 C2201 1.393 . S
C2198 H2187 0.950 . S
C2198 C2196 1.391 . S
C2198 C2199 1.400 . S
C2199 C2193 1.491 . S
C2199 C2198 1.400 . S
C2199 C2200 1.398 . S
C2200 H2188 0.950 . S
C2200 C2199 1.398 . S
C2200 C2201 1.391 . S
C2201 H2189 0.950 . S
C2201 C2197 1.393 . S
C2201 C2200 1.391 . S
H2202 C2210 0.950 . S
H2203 C2215 0.950 . S
H2204 C2212 0.950 . S
H2205 C2214 0.950 . S
H2206 C2216 0.950 . S
H2207 C2218 0.950 . S
H2208 C2220 0.950 . S
H2209 C2221 0.950 . S
C2210 H2202 0.950 . S
C2210 C2211 1.386 . S
C2210 C2212 1.391 . S
C2211 C2210 1.386 . S
C2211 C2215 1.393 . S
C2212 H2204 0.950 . S
C2212 C2210 1.391 . S
C2212 C2213 1.400 . S
C2213 C2212 1.400 . S
C2213 C2214 1.398 . S
C2213 C2219 1.491 . S
C2214 H2205 0.950 . S
C2214 C2213 1.398 . S
C2214 C2215 1.391 . S
C2215 H2203 0.950 . S
C2215 C2211 1.393 . S
C2215 C2214 1.391 . S
C2216 H2206 0.950 . S
C2216 C2217 1.386 . S
C2216 C2218 1.391 . S
C2217 C2216 1.386 . S
C2217 C2221 1.393 . S
C2218 H2207 0.950 . S
C2218 C2216 1.391 . S
C2218 C2219 1.400 . S
C2219 C2213 1.491 . S
C2219 C2218 1.400 . S
C2219 C2220 1.398 . S
C2220 H2208 0.950 . S
C2220 C2219 1.398 . S
C2220 C2221 1.391 . S
C2221 H2209 0.950 . S
C2221 C2217 1.393 . S
C2221 C2220 1.391 . S
H2222 C2230 0.950 . S
H2223 C2235 0.950 . S
H2224 C2232 0.950 . S
H2225 C2234 0.950 . S
H2226 C2236 0.950 . S
H2227 C2238 0.950 . S
H2228 C2240 0.950 . S
H2229 C2241 0.950 . S
C2230 H2222 0.950 . S
C2230 C2231 1.386 . S
C2230 C2232 1.391 . S
C2231 C2230 1.386 . S
C2231 C2235 1.393 . S
C2232 H2224 0.950 . S
C2232 C2230 1.391 . S
C2232 C2233 1.400 . S
C2233 C2232 1.400 . S
C2233 C2234 1.398 . S
C2233 C2239 1.491 . S
C2234 H2225 0.950 . S
C2234 C2233 1.398 . S
C2234 C2235 1.391 . S
C2235 H2223 0.950 . S
C2235 C2231 1.393 . S
C2235 C2234 1.391 . S
C2236 H2226 0.950 . S
C2236 C2237 1.386 . S
C2236 C2238 1.391 . S
C2237 C2236 1.386 . S
C2237 C2241 1.393 . S
C2238 H2227 0.950 . S
C2238 C2236 1.391 . S
C2238 C2239 1.400 . S
C2239 C2233 1.491 . S
C2239 C2238 1.400 . S
C2239 C2240 1.398 . S
C2240 H2228 0.950 . S
C2240 C2239 1.398 . S
C2240 C2241 1.391 . S
C2241 H2229 0.950 . S
C2241 C2237 1.393 . S
C2241 C2240 1.391 . S
H2242 C2250 0.950 . S
H2243 C2255 0.950 . S
H2244 C2252 0.950 . S
H2245 C2254 0.950 . S
H2246 C2256 0.950 . S
H2247 C2258 0.950 . S
H2248 C2260 0.950 . S
H2249 C2261 0.950 . S
C2250 H2242 0.950 . S
C2250 C2251 1.386 . S
C2250 C2252 1.391 . S
C2251 C2250 1.386 . S
C2251 C2255 1.393 . S
C2252 H2244 0.950 . S
C2252 C2250 1.391 . S
C2252 C2253 1.400 . S
C2253 C2252 1.400 . S
C2253 C2254 1.398 . S
C2253 C2259 1.491 . S
C2254 H2245 0.950 . S
C2254 C2253 1.398 . S
C2254 C2255 1.391 . S
C2255 H2243 0.950 . S
C2255 C2251 1.393 . S
C2255 C2254 1.391 . S
C2256 H2246 0.950 . S
C2256 C2257 1.386 . S
C2256 C2258 1.391 . S
C2257 C2256 1.386 . S
C2257 C2261 1.393 . S
C2258 H2247 0.950 . S
C2258 C2256 1.391 . S
C2258 C2259 1.400 . S
C2259 C2253 1.491 . S
C2259 C2258 1.400 . S
C2259 C2260 1.398 . S
C2260 H2248 0.950 . S
C2260 C2259 1.398 . S
C2260 C2261 1.391 . S
C2261 H2249 0.950 . S
C2261 C2257 1.393 . S
C2261 C2260 1.391 . S
H2262 C2270 0.950 1_565 S
H2263 C2275 0.950 . S
H2264 C2272 0.947 1_565 S
H2265 C2274 0.950 . S
H2266 C2276 0.950 . S
H2267 C2278 0.950 . S
H2268 C2280 0.950 . S
H2269 C2281 0.950 . S
C2270 H2262 0.950 1_545 S
C2270 C2271 1.386 . S
C2270 C2272 1.393 . S
C2271 C2270 1.386 . S
C2271 C2275 1.393 . S
C2272 H2264 0.947 1_545 S
C2272 C2270 1.393 . S
C2272 C2273 1.401 . S
C2273 C2272 1.401 . S
C2273 C2274 1.398 . S
C2273 C2279 1.491 . S
C2274 H2265 0.950 . S
C2274 C2273 1.398 . S
C2274 C2275 1.391 . S
C2275 H2263 0.950 . S
C2275 C2271 1.393 . S
C2275 C2274 1.391 . S
C2276 H2266 0.950 . S
C2276 C2277 1.386 . S
C2276 C2278 1.391 . S
C2277 C2276 1.386 . S
C2277 C2281 1.393 1_545 S
C2278 H2267 0.950 . S
C2278 C2276 1.391 . S
C2278 C2279 1.400 . S
C2279 C2273 1.491 . S
C2279 C2278 1.400 . S
C2279 C2280 1.398 1_545 S
C2280 H2268 0.950 . S
C2280 C2279 1.398 1_565 S
C2280 C2281 1.391 . S
C2281 H2269 0.950 . S
C2281 C2277 1.393 1_565 S
C2281 C2280 1.391 . S
H2282 C2290 0.950 . S
H2283 C2295 0.950 . S
H2284 C2292 0.950 . S
H2285 C2294 0.950 . S
H2286 C2296 0.950 . S
H2287 C2298 0.950 . S
H2288 C2300 0.950 . S
H2289 C2301 0.950 . S
C2290 H2282 0.950 . S
C2290 C2291 1.386 1_455 S
C2290 C2292 1.391 . S
C2291 C2290 1.386 1_655 S
C2291 C2295 1.393 . S
C2292 H2284 0.950 . S
C2292 C2290 1.391 . S
C2292 C2293 1.400 1_455 S
C2293 C2292 1.400 1_655 S
C2293 C2294 1.398 . S
C2293 C2299 1.491 . S
C2294 H2285 0.950 . S
C2294 C2293 1.398 . S
C2294 C2295 1.391 . S
C2295 H2283 0.950 . S
C2295 C2291 1.393 . S
C2295 C2294 1.391 . S
C2296 H2286 0.950 . S
C2296 C2297 1.386 . S
C2296 C2298 1.391 . S
C2297 C2296 1.386 . S
C2297 C2301 1.393 1_655 S
C2298 H2287 0.950 . S
C2298 C2296 1.391 . S
C2298 C2299 1.400 . S
C2299 C2293 1.491 . S
C2299 C2298 1.400 . S
C2299 C2300 1.398 1_655 S
C2300 H2288 0.950 . S
C2300 C2299 1.398 1_455 S
C2300 C2301 1.391 . S
C2301 H2289 0.950 . S
C2301 C2297 1.393 1_455 S
C2301 C2300 1.391 . S
H2302 C2310 0.950 . S
H2303 C2315 0.950 . S
H2304 C2312 0.950 . S
H2305 C2314 0.950 . S
H2306 C2316 0.950 . S
H2307 C2318 0.950 . S
H2308 C2320 0.950 . S
H2309 C2321 0.950 . S
C2310 H2302 0.950 . S
C2310 C2311 1.386 . S
C2310 C2312 1.391 . S
C2311 C2310 1.386 . S
C2311 C2315 1.393 . S
C2312 H2304 0.950 . S
C2312 C2310 1.391 . S
C2312 C2313 1.400 . S
C2313 C2312 1.400 . S
C2313 C2314 1.398 . S
C2313 C2319 1.491 . S
C2314 H2305 0.950 . S
C2314 C2313 1.398 . S
C2314 C2315 1.391 . S
C2315 H2303 0.950 . S
C2315 C2311 1.393 . S
C2315 C2314 1.391 . S
C2316 H2306 0.950 . S
C2316 C2317 1.386 . S
C2316 C2318 1.391 . S
C2317 C2316 1.386 . S
C2317 C2321 1.393 . S
C2318 H2307 0.950 . S
C2318 C2316 1.391 . S
C2318 C2319 1.400 . S
C2319 C2313 1.491 . S
C2319 C2318 1.400 . S
C2319 C2320 1.398 . S
C2320 H2308 0.950 . S
C2320 C2319 1.398 . S
C2320 C2321 1.391 . S
C2321 H2309 0.950 . S
C2321 C2317 1.393 . S
C2321 C2320 1.391 . S
H2322 C2330 0.950 . S
H2323 C2335 0.950 . S
H2324 C2332 0.950 . S
H2325 C2334 0.950 . S
H2326 C2336 0.950 . S
H2327 C2338 0.950 . S
H2328 C2340 0.950 . S
H2329 C2341 0.950 . S
C2330 H2322 0.950 . S
C2330 C2331 1.386 . S
C2330 C2332 1.391 . S
C2331 C2330 1.386 . S
C2331 C2335 1.393 . S
C2332 H2324 0.950 . S
C2332 C2330 1.391 . S
C2332 C2333 1.400 . S
C2333 C2332 1.400 . S
C2333 C2334 1.398 . S
C2333 C2339 1.491 . S
C2334 H2325 0.950 . S
C2334 C2333 1.398 . S
C2334 C2335 1.391 . S
C2335 H2323 0.950 . S
C2335 C2331 1.393 . S
C2335 C2334 1.391 . S
C2336 H2326 0.950 . S
C2336 C2337 1.386 . S
C2336 C2338 1.391 . S
C2337 C2336 1.386 . S
C2337 C2341 1.393 . S
C2338 H2327 0.950 . S
C2338 C2336 1.391 . S
C2338 C2339 1.400 . S
C2339 C2333 1.491 . S
C2339 C2338 1.400 . S
C2339 C2340 1.398 . S
C2340 H2328 0.950 . S
C2340 C2339 1.398 . S
C2340 C2341 1.391 . S
C2341 H2329 0.950 . S
C2341 C2337 1.393 . S
C2341 C2340 1.391 . S
H2342 C2350 0.950 . S
H2343 C2355 0.950 . S
H2344 C2352 0.950 . S
H2345 C2354 0.950 . S
H2346 C2356 0.950 . S
H2347 C2358 0.950 . S
H2348 C2360 0.950 . S
H2349 C2361 0.950 . S
C2350 H2342 0.950 . S
C2350 C2351 1.386 . S
C2350 C2352 1.391 . S
C2351 C2350 1.386 . S
C2351 C2355 1.393 . S
C2352 H2344 0.950 . S
C2352 C2350 1.391 . S
C2352 C2353 1.400 . S
C2353 C2352 1.400 . S
C2353 C2354 1.398 . S
C2353 C2359 1.491 . S
C2354 H2345 0.950 . S
C2354 C2353 1.398 . S
C2354 C2355 1.391 . S
C2355 H2343 0.950 . S
C2355 C2351 1.393 . S
C2355 C2354 1.391 . S
C2356 H2346 0.950 . S
C2356 C2357 1.386 . S
C2356 C2358 1.391 . S
C2357 C2356 1.386 . S
C2357 C2361 1.393 . S
C2358 H2347 0.950 . S
C2358 C2356 1.391 . S
C2358 C2359 1.400 . S
C2359 C2353 1.491 . S
C2359 C2358 1.400 . S
C2359 C2360 1.398 . S
C2360 H2348 0.950 . S
C2360 C2359 1.398 . S
C2360 C2361 1.391 . S
C2361 H2349 0.950 . S
C2361 C2357 1.393 . S
C2361 C2360 1.391 . S
H2362 C2370 0.950 . S
H2363 C2375 0.950 . S
H2364 C2372 0.950 . S
H2365 C2374 0.950 . S
H2366 C2376 0.950 . S
H2367 C2378 0.950 . S
H2368 C2380 0.950 . S
H2369 C2381 0.950 . S
C2370 H2362 0.950 . S
C2370 C2371 1.386 . S
C2370 C2372 1.391 . S
C2371 C2370 1.386 . S
C2371 C2375 1.393 . S
C2372 H2364 0.950 . S
C2372 C2370 1.391 . S
C2372 C2373 1.400 . S
C2373 C2372 1.400 . S
C2373 C2374 1.398 . S
C2373 C2379 1.491 . S
C2374 H2365 0.950 . S
C2374 C2373 1.398 . S
C2374 C2375 1.391 . S
C2375 H2363 0.950 . S
C2375 C2371 1.393 . S
C2375 C2374 1.391 . S
C2376 H2366 0.950 . S
C2376 C2377 1.386 . S
C2376 C2378 1.391 . S
C2377 C2376 1.386 . S
C2377 C2381 1.393 . S
C2378 H2367 0.950 . S
C2378 C2376 1.391 . S
C2378 C2379 1.400 . S
C2379 C2373 1.491 . S
C2379 C2378 1.400 . S
C2379 C2380 1.398 . S
C2380 H2368 0.950 . S
C2380 C2379 1.398 . S
C2380 C2381 1.391 . S
C2381 H2369 0.950 . S
C2381 C2377 1.393 . S
C2381 C2380 1.391 . S
H2382 C2390 0.950 . S
H2383 C2395 0.950 . S
H2384 C2392 0.950 . S
H2385 C2394 0.950 . S
H2386 C2396 0.950 . S
H2387 C2398 0.950 . S
H2388 C2400 0.950 . S
H2389 C2401 0.950 . S
C2390 H2382 0.950 . S
C2390 C2391 1.386 . S
C2390 C2392 1.391 . S
C2391 C2390 1.386 . S
C2391 C2395 1.393 . S
C2392 H2384 0.950 . S
C2392 C2390 1.391 . S
C2392 C2393 1.400 . S
C2393 C2392 1.400 . S
C2393 C2394 1.398 . S
C2393 C2399 1.491 . S
C2394 H2385 0.950 . S
C2394 C2393 1.398 . S
C2394 C2395 1.391 . S
C2395 H2383 0.950 . S
C2395 C2391 1.393 . S
C2395 C2394 1.391 . S
C2396 H2386 0.950 . S
C2396 C2397 1.386 . S
C2396 C2398 1.391 . S
C2397 C2396 1.386 . S
C2397 C2401 1.393 . S
C2398 H2387 0.950 . S
C2398 C2396 1.391 . S
C2398 C2399 1.400 . S
C2399 C2393 1.491 . S
C2399 C2398 1.400 . S
C2399 C2400 1.398 . S
C2400 H2388 0.950 . S
C2400 C2399 1.398 . S
C2400 C2401 1.391 . S
C2401 H2389 0.950 . S
C2401 C2397 1.393 . S
C2401 C2400 1.391 . S
H2402 C2410 0.950 . S
H2403 C2415 0.950 . S
H2404 C2412 0.950 . S
H2405 C2414 0.950 . S
H2406 C2416 0.950 . S
H2407 C2418 0.950 . S
H2408 C2420 0.950 . S
H2409 C2421 0.950 . S
C2410 H2402 0.950 . S
C2410 C2411 1.386 . S
C2410 C2412 1.391 . S
C2411 C2410 1.386 . S
C2411 C2415 1.393 . S
C2412 H2404 0.950 . S
C2412 C2410 1.391 . S
C2412 C2413 1.400 . S
C2413 C2412 1.400 . S
C2413 C2414 1.398 . S
C2413 C2419 1.491 . S
C2414 H2405 0.950 . S
C2414 C2413 1.398 . S
C2414 C2415 1.391 . S
C2415 H2403 0.950 . S
C2415 C2411 1.393 . S
C2415 C2414 1.391 . S
C2416 H2406 0.950 . S
C2416 C2417 1.386 . S
C2416 C2418 1.391 . S
C2417 C2416 1.386 . S
C2417 C2421 1.393 . S
C2418 H2407 0.950 . S
C2418 C2416 1.391 . S
C2418 C2419 1.400 . S
C2419 C2413 1.491 . S
C2419 C2418 1.400 . S
C2419 C2420 1.398 . S
C2420 H2408 0.950 . S
C2420 C2419 1.398 . S
C2420 C2421 1.391 . S
C2421 H2409 0.950 . S
C2421 C2417 1.393 . S
C2421 C2420 1.391 . S
H2422 C2430 0.950 . S
H2423 C2435 0.950 . S
H2424 C2432 0.950 . S
H2425 C2434 0.950 . S
H2426 C2436 0.950 . S
H2427 C2438 0.950 . S
H2428 C2440 0.950 . S
H2429 C2441 0.950 . S
C2430 H2422 0.950 . S
C2430 C2431 1.386 . S
C2430 C2432 1.391 . S
C2431 C2430 1.386 . S
C2431 C2435 1.393 . S
C2432 H2424 0.950 . S
C2432 C2430 1.391 . S
C2432 C2433 1.400 . S
C2433 C2432 1.400 . S
C2433 C2434 1.398 . S
C2433 C2439 1.491 . S
C2434 H2425 0.950 . S
C2434 C2433 1.398 . S
C2434 C2435 1.391 . S
C2435 H2423 0.950 . S
C2435 C2431 1.393 . S
C2435 C2434 1.391 . S
C2436 H2426 0.950 . S
C2436 C2437 1.386 . S
C2436 C2438 1.391 . S
C2437 C2436 1.386 . S
C2437 C2441 1.393 . S
C2438 H2427 0.950 . S
C2438 C2436 1.391 . S
C2438 C2439 1.400 . S
C2439 C2433 1.491 . S
C2439 C2438 1.400 . S
C2439 C2440 1.398 . S
C2440 H2428 0.950 . S
C2440 C2439 1.398 . S
C2440 C2441 1.391 . S
C2441 H2429 0.950 . S
C2441 C2437 1.393 . S
C2441 C2440 1.391 . S
H2442 C2450 0.950 . S
H2443 C2455 0.950 1_455 S
H2444 C2452 0.950 . S
H2445 C2454 0.950 1_455 S
H2446 C2456 0.950 . S
H2447 C2458 0.950 . S
H2448 C2460 0.950 . S
H2449 C2461 0.950 . S
C2450 H2442 0.950 . S
C2450 C2451 1.386 . S
C2450 C2452 1.391 . S
C2451 C2450 1.386 . S
C2451 C2455 1.393 . S
C2452 H2444 0.950 . S
C2452 C2450 1.391 . S
C2452 C2453 1.400 . S
C2453 C2452 1.400 . S
C2453 C2454 1.398 . S
C2453 C2459 1.491 . S
C2454 H2445 0.950 1_655 S
C2454 C2453 1.398 . S
C2454 C2455 1.391 . S
C2455 H2443 0.950 1_655 S
C2455 C2451 1.393 . S
C2455 C2454 1.391 . S
C2456 H2446 0.950 . S
C2456 C2457 1.386 1_455 S
C2456 C2458 1.391 . S
C2457 C2456 1.386 1_655 S
C2457 C2461 1.393 . S
C2458 H2447 0.950 . S
C2458 C2456 1.391 . S
C2458 C2459 1.400 1_455 S
C2459 C2453 1.491 . S
C2459 C2458 1.400 1_655 S
C2459 C2460 1.398 . S
C2460 H2448 0.950 . S
C2460 C2459 1.398 . S
C2460 C2461 1.391 . S
C2461 H2449 0.950 . S
C2461 C2457 1.393 . S
C2461 C2460 1.391 . S
H2462 C2470 0.950 . S
H2463 C2475 0.950 . S
H2464 C2472 0.950 . S
H2465 C2474 0.950 . S
H2466 C2476 0.950 . S
H2467 C2478 0.950 . S
H2468 C2480 0.950 . S
H2469 C2481 0.950 . S
C2470 H2462 0.950 . S
C2470 C2471 1.386 . S
C2470 C2472 1.391 . S
C2471 C2470 1.386 . S
C2471 C2475 1.393 . S
C2472 H2464 0.950 . S
C2472 C2470 1.391 . S
C2472 C2473 1.400 . S
C2473 C2472 1.400 . S
C2473 C2474 1.398 . S
C2473 C2479 1.491 . S
C2474 H2465 0.950 . S
C2474 C2473 1.398 . S
C2474 C2475 1.391 . S
C2475 H2463 0.950 . S
C2475 C2471 1.393 . S
C2475 C2474 1.391 . S
C2476 H2466 0.950 . S
C2476 C2477 1.386 . S
C2476 C2478 1.391 . S
C2477 C2476 1.386 . S
C2477 C2481 1.393 . S
C2478 H2467 0.950 . S
C2478 C2476 1.391 . S
C2478 C2479 1.400 . S
C2479 C2473 1.491 . S
C2479 C2478 1.400 . S
C2479 C2480 1.398 . S
C2480 H2468 0.950 . S
C2480 C2479 1.398 . S
C2480 C2481 1.391 . S
C2481 H2469 0.950 . S
C2481 C2477 1.393 . S
C2481 C2480 1.391 . S
H2482 C2490 0.950 . S
H2483 C2495 0.950 . S
H2484 C2492 0.950 . S
H2485 C2494 0.950 . S
H2486 C2496 0.950 . S
H2487 C2498 0.950 . S
H2488 C2500 0.950 . S
H2489 C2501 0.957 1_565 S
C2490 H2482 0.950 . S
C2490 C2491 1.386 . S
C2490 C2492 1.391 . S
C2491 C2490 1.386 . S
C2491 C2495 1.393 . S
C2492 H2484 0.950 . S
C2492 C2490 1.391 . S
C2492 C2493 1.400 . S
C2493 C2492 1.400 . S
C2493 C2494 1.398 . S
C2493 C2499 1.491 . S
C2494 H2485 0.950 . S
C2494 C2493 1.398 . S
C2494 C2495 1.391 . S
C2495 H2483 0.950 . S
C2495 C2491 1.393 . S
C2495 C2494 1.391 . S
C2496 H2486 0.950 . S
C2496 C2497 1.386 . S
C2496 C2498 1.391 . S
C2497 C2496 1.386 . S
C2497 C2501 1.398 . S
C2498 H2487 0.950 . S
C2498 C2496 1.391 . S
C2498 C2499 1.400 . S
C2499 C2493 1.491 . S
C2499 C2498 1.400 . S
C2499 C2500 1.398 . S
C2500 H2488 0.950 . S
C2500 C2499 1.398 . S
C2500 C2501 1.380 . S
C2501 H2489 0.957 1_545 S
C2501 C2497 1.398 . S
C2501 C2500 1.380 . S
C1071 C8 1.395 . S
C1077 C670 1.426 . S
C1091 C18 1.490 . S
C1097 C716 1.510 . S
C1117 C748 1.487 . S
C1111 C31 1.400 . S
C1131 C34 1.405 1_565 S
C1137 C801 1.462 . S
C1151 C5 1.412 . S
C1157 C847 1.482 . S
C1171 C21 1.504 . S
C1177 C886 1.537 . S
C1191 C47 1.370 . S
C1197 C840 1.445 . S
C1217 C893 1.515 . S
C1211 C57 1.483 . S
C1237 C794 1.502 . S
C1231 C70 1.409 . S
C1251 C73 1.373 . S
C1257 C755 1.440 . S
C1277 C649 1.490 . S
C1271 C44 1.428 . S
C1291 C60 1.500 . S
C1297 C695 1.524 . S
C1311 C86 1.566 . S
C1317 C925 1.612 . S
C1331 C96 1.548 . S
C1337 C992 1.553 . S
C1357 C1038 1.602 . S
C1351 C109 1.600 . S
C1371 C112 1.563 . S
C1377 C249 1.604 . S
C1391 C83 1.603 . S
C1397 C295 1.608 . S
C1411 C99 1.559 . S
C1417 C341 1.581 . S
C1431 C125 1.482 . S
C1437 C288 1.523 . S
C1451 C135 1.531 . S
C1457 C334 1.564 . S
C1477 C242 1.620 . S
C1471 C148 1.590 . S
C1497 C1017 1.677 . S
C1491 C151 1.665 . S
C1517 C946 1.598 . S
C1511 C122 1.568 . S
C1537 C971 1.598 . S
C1531 C138 1.587 . S
C1551 C164 1.481 . S
C1557 C373 1.531 . S
C1571 C174 1.523 . S
C1577 C426 1.558 . S
C1591 C187 1.584 . S
C1597 C472 1.622 . S
C1611 C190 1.650 . S
C1617 C518 1.681 . S
C1637 C571 1.605 . S
C1631 C161 1.590 . S
C1657 C617 1.605 . S
C1651 C177 1.585 . S
C1677 C564 1.622 . S
C1671 C203 1.586 . S
C1697 C610 1.577 . S
C1691 C213 1.550 . S
C1711 C226 1.580 . S
C1717 C525 1.612 . S
C1737 C479 1.599 . S
C1731 C229 1.554 . S
C1751 C200 1.580 . S
C1757 C394 1.625 . S
C1777 C433 1.589 . S
C1771 C216 1.563 . S
C1797 C256 1.527 . S
C1791 C0 1.465 . S
C1811 C23 1.452 . S
C1817 C302 1.432 . S
C1837 C348 1.518 . S
C1831 C36 1.542 . S
C1857 C380 1.526 . S
C1851 C26 1.466 . S
C1877 C419 1.493 . S
C1871 C10 1.524 . S
C1897 C465 1.437 . S
C1891 C13 1.411 . S
C1911 C39 1.452 . S
C1917 C486 1.509 . S
C1931 C62 1.440 . S
C1937 C387 1.405 . S
C1951 C75 1.517 . S
C1957 C440 1.482 . S
C1971 C65 1.505 . S
C1977 C281 1.582 . S
C1997 C327 1.505 . S
C1991 C49 1.523 . S
C2011 C52 1.420 . S
C2017 C235 1.459 . S
C2037 C511 1.453 . S
C2031 C78 1.411 . S
C2051 C101 1.560 . S
C2057 C578 1.543 . S
C2071 C114 1.567 . S
C2077 C624 1.554 . S
C2097 C663 1.290 . S
C2091 C104 1.272 . S
C2111 C88 1.450 . S
C2117 C709 1.438 . S
C2131 C91 1.191 . S
C2137 C741 1.206 . S
C2151 C117 1.235 . S
C2157 C762 1.237 . S
C2171 C140 1.239 . S
C2177 C656 1.243 . S
C2197 C702 1.456 . S
C2191 C153 1.468 . S
C2211 C143 1.464 . S
C2217 C557 1.509 . S
C2231 C127 1.560 . S
C2237 C603 1.529 . S
C2257 C532 1.525 . S
C2251 C130 1.508 . S
C2277 C808 1.262 . S
C2271 C156 1.248 . S
C2291 C179 1.235 . S
C2297 C854 1.237 . S
C2311 C192 1.458 . S
C2317 C879 1.441 . S
C2337 C932 1.473 . S
C2331 C182 1.443 . S
C2357 C985 1.537 . S
C2351 C166 1.562 . S
C2371 C169 1.530 . S
C2377 C1031 1.561 . S
C2391 C195 1.438 . S
C2397 C1024 1.487 . S
C2411 C218 1.553 . S
C2417 C939 1.528 . S
C2437 C978 1.518 . S
C2431 C231 1.542 . S
C2457 C833 1.272 . S
C2451 C221 1.257 . S
C2477 C900 1.436 . S
C2471 C205 1.459 . S
C2491 C208 1.199 . S
C2497 C787 1.232 . S
