# Generated by pormake.
# Topology ssb, (4,4)-cn, num edge types: 1
# Building blocks:
#     Node 0, Type 0, BuildingBlock: MIFKUJ_clean_linker_1, # of connection points: 4
#     Node 1, Type 0, BuildingBlock: MIFKUJ_clean_linker_1, # of connection points: 4
#     Node 2, Type 0, BuildingBlock: MIFKUJ_clean_linker_1, # of connection points: 4
#     Node 3, Type 0, BuildingBlock: MIFKUJ_clean_linker_1, # of connection points: 4
#     Node 4, Type 0, BuildingBlock: MIFKUJ_clean_linker_1, # of connection points: 4
#     Node 5, Type 0, BuildingBlock: MIFKUJ_clean_linker_1, # of connection points: 4
#     Node 6, Type 0, BuildingBlock: MIFKUJ_clean_linker_1, # of connection points: 4
#     Node 7, Type 0, BuildingBlock: MIFKUJ_clean_linker_1, # of connection points: 4
#     Node 8, Type 1, BuildingBlock: NAWXER_clean_sbu_0, # of connection points: 4
#     Node 9, Type 1, BuildingBlock: NAWXER_clean_sbu_0, # of connection points: 4
#     Node 10, Type 1, BuildingBlock: NAWXER_clean_sbu_0, # of connection points: 4
#     Node 11, Type 1, BuildingBlock: NAWXER_clean_sbu_0, # of connection points: 4
#     Node 12, Type 1, BuildingBlock: NAWXER_clean_sbu_0, # of connection points: 4
#     Node 13, Type 1, BuildingBlock: NAWXER_clean_sbu_0, # of connection points: 4
#     Node 14, Type 1, BuildingBlock: NAWXER_clean_sbu_0, # of connection points: 4
#     Node 15, Type 1, BuildingBlock: NAWXER_clean_sbu_0, # of connection points: 4
#     Edge 16, Type (0, 1), BuildingBlock: CIFDUS_clean_linker_0, # of connection points: 2
#     Edge 17, Type (0, 1), BuildingBlock: CIFDUS_clean_linker_0, # of connection points: 2
#     Edge 18, Type (0, 1), BuildingBlock: CIFDUS_clean_linker_0, # of connection points: 2
#     Edge 19, Type (0, 1), BuildingBlock: CIFDUS_clean_linker_0, # of connection points: 2
#     Edge 20, Type (0, 1), BuildingBlock: CIFDUS_clean_linker_0, # of connection points: 2
#     Edge 21, Type (0, 1), BuildingBlock: CIFDUS_clean_linker_0, # of connection points: 2
#     Edge 22, Type (0, 1), BuildingBlock: CIFDUS_clean_linker_0, # of connection points: 2
#     Edge 23, Type (0, 1), BuildingBlock: CIFDUS_clean_linker_0, # of connection points: 2
#     Edge 24, Type (0, 1), BuildingBlock: CIFDUS_clean_linker_0, # of connection points: 2
#     Edge 25, Type (0, 1), BuildingBlock: CIFDUS_clean_linker_0, # of connection points: 2
#     Edge 26, Type (0, 1), BuildingBlock: CIFDUS_clean_linker_0, # of connection points: 2
#     Edge 27, Type (0, 1), BuildingBlock: CIFDUS_clean_linker_0, # of connection points: 2
#     Edge 28, Type (0, 1), BuildingBlock: CIFDUS_clean_linker_0, # of connection points: 2
#     Edge 29, Type (0, 1), BuildingBlock: CIFDUS_clean_linker_0, # of connection points: 2
#     Edge 30, Type (0, 1), BuildingBlock: CIFDUS_clean_linker_0, # of connection points: 2
#     Edge 31, Type (0, 1), BuildingBlock: CIFDUS_clean_linker_0, # of connection points: 2
#     Edge 32, Type (0, 1), BuildingBlock: CIFDUS_clean_linker_0, # of connection points: 2
#     Edge 33, Type (0, 1), BuildingBlock: CIFDUS_clean_linker_0, # of connection points: 2
#     Edge 34, Type (0, 1), BuildingBlock: CIFDUS_clean_linker_0, # of connection points: 2
#     Edge 35, Type (0, 1), BuildingBlock: CIFDUS_clean_linker_0, # of connection points: 2
#     Edge 36, Type (0, 1), BuildingBlock: CIFDUS_clean_linker_0, # of connection points: 2
#     Edge 37, Type (0, 1), BuildingBlock: CIFDUS_clean_linker_0, # of connection points: 2
#     Edge 38, Type (0, 1), BuildingBlock: CIFDUS_clean_linker_0, # of connection points: 2
#     Edge 39, Type (0, 1), BuildingBlock: CIFDUS_clean_linker_0, # of connection points: 2
#     Edge 40, Type (0, 1), BuildingBlock: CIFDUS_clean_linker_0, # of connection points: 2
#     Edge 41, Type (0, 1), BuildingBlock: CIFDUS_clean_linker_0, # of connection points: 2
#     Edge 42, Type (0, 1), BuildingBlock: CIFDUS_clean_linker_0, # of connection points: 2
#     Edge 43, Type (0, 1), BuildingBlock: CIFDUS_clean_linker_0, # of connection points: 2
#     Edge 44, Type (0, 1), BuildingBlock: CIFDUS_clean_linker_0, # of connection points: 2
#     Edge 45, Type (0, 1), BuildingBlock: CIFDUS_clean_linker_0, # of connection points: 2
#     Edge 46, Type (0, 1), BuildingBlock: CIFDUS_clean_linker_0, # of connection points: 2
#     Edge 47, Type (0, 1), BuildingBlock: CIFDUS_clean_linker_0, # of connection points: 2
# Relax obj value: 0.000
# Max RMSD: 0.000
# Mean RMSD: 0.000
data_MOF--net-ssb--node1-NAWXER_clean_sbu_0--node2-MIFKUJ_clean_linker_1--edge1-CIFDUS_clean_linker_0
_symmetry_space_group_name_H-M    P1
_symmetry_Int_Tables_number       1
_symmetry_cell_setting            triclinic
loop_
_symmetry_equiv_pos_as_xyz
'x, y, z'
_cell_length_a     48.358801
_cell_length_b     48.301091
_cell_length_c     42.344708
_cell_angle_alpha  89.989007
_cell_angle_beta   90.058172
_cell_angle_gamma 89.97938
loop_
_atom_site_label
_atom_site_type_symbol
_atom_site_fract_x
_atom_site_fract_y
_atom_site_fract_z
_atom_type_partial_charge
H0 H 0.2956 0.21411 0.19671 0.0
H1 H 0.33716 0.20631 0.1659 0.0
H2 H 0.36359 0.29019 0.18563 0.0
H3 H 0.32352 0.29661 0.21938 0.0
H4 H 0.2903 0.22058 0.25453 0.0
H5 H 0.26752 0.27851 0.16659 0.0
H6 H 0.27589 0.31536 0.12813 0.0
H7 H 0.27665 0.37556 0.2035 0.0
H8 H 0.26887 0.33856 0.24202 0.0
H9 H 0.22591 0.30147 0.32055 0.0
H10 H 0.18736 0.30091 0.35827 0.0
H11 H 0.15461 0.22795 0.31253 0.0
H12 H 0.19315 0.22852 0.27542 0.0
H13 H 0.22867 0.30266 0.25231 0.0
H14 H 0.26621 0.24012 0.33756 0.0
H15 H 0.26549 0.20018 0.37361 0.0
H16 H 0.23504 0.14852 0.298 0.0
H17 H 0.2364 0.18827 0.26198 0.0
C18 C 0.30614 0.25606 0.21027 0.0
C19 C 0.31047 0.23078 0.19461 0.0
C20 C 0.33421 0.22646 0.17655 0.0
C21 C 0.35402 0.24756 0.17302 0.0
C22 C 0.34928 0.27312 0.1882 0.0
C23 C 0.32592 0.27712 0.20706 0.0
C24 C 0.28182 0.25947 0.23147 0.0
C25 C 0.27667 0.23841 0.25347 0.0
C26 C 0.26431 0.28311 0.23096 0.0
C27 C 0.26792 0.30565 0.20733 0.0
C28 C 0.26973 0.2996 0.17491 0.0
C29 C 0.27459 0.32066 0.15294 0.0
C30 C 0.27718 0.34832 0.16282 0.0
C31 C 0.27468 0.35445 0.19517 0.0
C32 C 0.27015 0.33333 0.21719 0.0
C33 C 0.21263 0.26479 0.2955 0.0
C34 C 0.21024 0.28555 0.31854 0.0
C35 C 0.18816 0.28523 0.34001 0.0
C36 C 0.16806 0.26416 0.33871 0.0
C37 C 0.17003 0.2441 0.31472 0.0
C38 C 0.19202 0.24444 0.29339 0.0
C39 C 0.23714 0.26341 0.27447 0.0
C40 C 0.24238 0.2849 0.25286 0.0
C41 C 0.25466 0.24004 0.2747 0.0
C42 C 0.25116 0.21704 0.2973 0.0
C43 C 0.2591 0.22023 0.32895 0.0
C44 C 0.25888 0.19747 0.34936 0.0
C45 C 0.2503 0.17137 0.33844 0.0
C46 C 0.24161 0.16847 0.30696 0.0
C47 C 0.24234 0.19108 0.28645 0.0
H48 H 0.68985 0.24712 0.23684 0.0
H49 H 0.65052 0.25675 0.20206 0.0
H50 H 0.70634 0.26661 0.12333 0.0
H51 H 0.74553 0.2564 0.15799 0.0
H52 H 0.72925 0.20824 0.23969 0.0
H53 H 0.7284 0.30827 0.22532 0.0
H54 H 0.72784 0.3508 0.19405 0.0
H55 H 0.80402 0.32596 0.14879 0.0
H56 H 0.80469 0.28376 0.18072 0.0
H57 H 0.84464 0.23332 0.25793 0.0
H58 H 0.87965 0.23305 0.30014 0.0
H59 H 0.81525 0.24336 0.36966 0.0
H60 H 0.78036 0.24304 0.3276 0.0
H61 H 0.80458 0.27781 0.24674 0.0
H62 H 0.8098 0.18178 0.26717 0.0
H63 H 0.81453 0.14406 0.30494 0.0
H64 H 0.73166 0.16005 0.33866 0.0
H65 H 0.72783 0.19901 0.30204 0.0
C66 C 0.72074 0.25131 0.20019 0.0
C67 C 0.69362 0.25105 0.21203 0.0
C68 C 0.67116 0.25666 0.19215 0.0
C69 C 0.67536 0.26274 0.16002 0.0
C70 C 0.70247 0.26254 0.14809 0.0
C71 C 0.72488 0.25662 0.16789 0.0
C72 C 0.74467 0.24721 0.22187 0.0
C73 C 0.74561 0.22352 0.24129 0.0
C74 C 0.76653 0.26673 0.22356 0.0
C75 C 0.76639 0.29274 0.205 0.0
C76 C 0.74494 0.31202 0.20863 0.0
C77 C 0.74464 0.33628 0.19068 0.0
C78 C 0.76582 0.34175 0.16875 0.0
C79 C 0.78758 0.3226 0.1657 0.0
C80 C 0.78791 0.29839 0.18377 0.0
C81 C 0.81002 0.23814 0.28977 0.0
C82 C 0.83813 0.23529 0.2823 0.0
C83 C 0.858 0.23497 0.30632 0.0
C84 C 0.85 0.23815 0.33798 0.0
C85 C 0.82184 0.24089 0.34538 0.0
C86 C 0.80198 0.2407 0.32146 0.0
C87 C 0.78885 0.23923 0.26457 0.0
C88 C 0.78842 0.26234 0.24465 0.0
C89 C 0.76769 0.21913 0.2624 0.0
C90 C 0.76866 0.19364 0.28215 0.0
C91 C 0.79264 0.1772 0.28274 0.0
C92 C 0.79521 0.15537 0.30421 0.0
C93 C 0.77362 0.14907 0.32525 0.0
C94 C 0.74901 0.16467 0.32341 0.0
C95 C 0.74659 0.18675 0.30213 0.0
H96 H 0.70819 0.80195 0.2039 0.0
H97 H 0.66796 0.80552 0.17019 0.0
H98 H 0.65128 0.71834 0.18481 0.0
H99 H 0.6898 0.71595 0.22177 0.0
H100 H 0.70693 0.79319 0.26289 0.0
H101 H 0.74292 0.73828 0.17442 0.0
H102 H 0.74274 0.69777 0.13936 0.0
H103 H 0.75392 0.64421 0.21987 0.0
H104 H 0.75275 0.68435 0.255 0.0
H105 H 0.79182 0.72157 0.31941 0.0
H106 H 0.83002 0.72506 0.35641 0.0
H107 H 0.8339 0.81342 0.34022 0.0
H108 H 0.79746 0.80922 0.30078 0.0
H109 H 0.78491 0.72679 0.26193 0.0
H110 H 0.74468 0.77568 0.34975 0.0
H111 H 0.73567 0.81177 0.38906 0.0
H112 H 0.72543 0.8716 0.31397 0.0
H113 H 0.73594 0.836 0.27521 0.0
C114 C 0.70228 0.75863 0.2153 0.0
C115 C 0.69581 0.78357 0.19992 0.0
C116 C 0.67284 0.78549 0.18017 0.0
C117 C 0.65607 0.76224 0.1744 0.0
C118 C 0.66317 0.73695 0.18905 0.0
C119 C 0.68567 0.73532 0.20977 0.0
C120 C 0.72494 0.75832 0.23906 0.0
C121 C 0.72431 0.77897 0.26227 0.0
C122 C 0.7466 0.73853 0.23953 0.0
C123 C 0.74748 0.71445 0.21752 0.0
C124 C 0.74488 0.71781 0.18463 0.0
C125 C 0.74478 0.69471 0.16459 0.0
C126 C 0.74812 0.66794 0.17701 0.0
C127 C 0.75128 0.66464 0.20975 0.0
C128 C 0.75078 0.68761 0.22978 0.0
C129 C 0.79118 0.76517 0.30756 0.0
C130 C 0.80108 0.74167 0.32346 0.0
C131 C 0.82279 0.74383 0.34514 0.0
C132 C 0.83494 0.76967 0.35206 0.0
C133 C 0.82533 0.79312 0.33561 0.0
C134 C 0.80402 0.79082 0.31333 0.0
C135 C 0.76758 0.7627 0.28492 0.0
C136 C 0.76777 0.74128 0.26228 0.0
C137 C 0.74498 0.78135 0.28527 0.0
C138 C 0.74136 0.80321 0.30955 0.0
C139 C 0.74102 0.79671 0.34187 0.0
C140 C 0.73542 0.81726 0.36427 0.0
C141 C 0.72977 0.8446 0.35469 0.0
C142 C 0.7301 0.85092 0.32228 0.0
C143 C 0.73596 0.83051 0.30003 0.0
H144 H 0.23965 0.75658 0.33982 0.0
H145 H 0.20279 0.75684 0.37929 0.0
H146 H 0.14173 0.75085 0.30523 0.0
H147 H 0.17855 0.7519 0.26553 0.0
H148 H 0.21699 0.72006 0.25097 0.0
H149 H 0.29565 0.79055 0.31878 0.0
H150 H 0.2948 0.83065 0.35388 0.0
H151 H 0.21469 0.85375 0.31695 0.0
H152 H 0.21555 0.81333 0.28218 0.0
H153 H 0.30658 0.78873 0.19886 0.0
H154 H 0.34651 0.78243 0.16453 0.0
H155 H 0.3475 0.69509 0.18699 0.0
H156 H 0.30879 0.70198 0.22301 0.0
H157 H 0.29606 0.78522 0.25722 0.0
H158 H 0.2619 0.74048 0.16721 0.0
H159 H 0.2587 0.70628 0.12476 0.0
H160 H 0.23881 0.64296 0.193 0.0
H161 H 0.24303 0.67696 0.23564 0.0
C162 C 0.21192 0.75483 0.2996 0.0
C163 C 0.21835 0.7558 0.33195 0.0
C164 C 0.19734 0.75567 0.3545 0.0
C165 C 0.16955 0.75382 0.34516 0.0
C166 C 0.16307 0.75205 0.31293 0.0
C167 C 0.18407 0.75273 0.29031 0.0
C168 C 0.23434 0.75494 0.27564 0.0
C169 C 0.23425 0.73435 0.2523 0.0
C170 C 0.25626 0.77437 0.27647 0.0
C171 C 0.25567 0.79883 0.29787 0.0
C172 C 0.27794 0.80428 0.31817 0.0
C173 C 0.27742 0.82729 0.33821 0.0
C174 C 0.2547 0.84557 0.3382 0.0
C175 C 0.23234 0.83997 0.31792 0.0
C176 C 0.23286 0.8169 0.29792 0.0
C177 C 0.3043 0.74579 0.21325 0.0
C178 C 0.31561 0.76829 0.19674 0.0
C179 C 0.33828 0.76453 0.17671 0.0
C180 C 0.35009 0.73812 0.17247 0.0
C181 C 0.33915 0.71575 0.1897 0.0
C182 C 0.31672 0.71961 0.21007 0.0
C183 C 0.27926 0.74953 0.23331 0.0
C184 C 0.27878 0.77097 0.25582 0.0
C185 C 0.25599 0.73183 0.23061 0.0
C186 C 0.25325 0.71122 0.20473 0.0
C187 C 0.25716 0.71919 0.17314 0.0
C188 C 0.25515 0.69972 0.14889 0.0
C189 C 0.24852 0.67206 0.15571 0.0
C190 C 0.24372 0.66424 0.18716 0.0
C191 C 0.24619 0.68363 0.21148 0.0
H192 H 0.18269 0.76098 0.74161 0.0
H193 H 0.14273 0.76368 0.70634 0.0
H194 H 0.19713 0.77478 0.62666 0.0
H195 H 0.23736 0.7708 0.66183 0.0
H196 H 0.22199 0.72543 0.74639 0.0
H197 H 0.21816 0.82193 0.71527 0.0
H198 H 0.22084 0.862 0.68075 0.0
H199 H 0.30673 0.843 0.66152 0.0
H200 H 0.30269 0.8012 0.69281 0.0
H201 H 0.33629 0.76317 0.76103 0.0
H202 H 0.37302 0.76499 0.80082 0.0
H203 H 0.3124 0.7537 0.87445 0.0
H204 H 0.27555 0.75303 0.83483 0.0
H205 H 0.29605 0.79612 0.75116 0.0
H206 H 0.30061 0.69889 0.77648 0.0
H207 H 0.30033 0.65815 0.81094 0.0
H208 H 0.2188 0.68071 0.8439 0.0
H209 H 0.21907 0.72094 0.80909 0.0
C210 C 0.21315 0.76586 0.70453 0.0
C211 C 0.18614 0.76383 0.71655 0.0
C212 C 0.1633 0.76552 0.69644 0.0
C213 C 0.16692 0.76964 0.66389 0.0
C214 C 0.19385 0.77197 0.65176 0.0
C215 C 0.21679 0.7697 0.67185 0.0
C216 C 0.23718 0.76363 0.72646 0.0
C217 C 0.23812 0.74101 0.74744 0.0
C218 C 0.25884 0.78344 0.72729 0.0
C219 C 0.25999 0.80804 0.70616 0.0
C220 C 0.23731 0.82593 0.70285 0.0
C221 C 0.23913 0.84934 0.68355 0.0
C222 C 0.26409 0.85613 0.66816 0.0
C223 C 0.28692 0.83838 0.67213 0.0
C224 C 0.28476 0.81451 0.69051 0.0
C225 C 0.30315 0.7575 0.79484 0.0
C226 C 0.33086 0.76115 0.78574 0.0
C227 C 0.3518 0.76229 0.80842 0.0
C228 C 0.34545 0.75947 0.84058 0.0
C229 C 0.3178 0.75568 0.84973 0.0
C230 C 0.29679 0.75504 0.82709 0.0
C231 C 0.28085 0.75803 0.7707 0.0
C232 C 0.28016 0.78033 0.74955 0.0
C233 C 0.25978 0.73776 0.76931 0.0
C234 C 0.25985 0.71299 0.79019 0.0
C235 C 0.28273 0.69505 0.79122 0.0
C236 C 0.28258 0.67182 0.81104 0.0
C237 C 0.2595 0.66602 0.83014 0.0
C238 C 0.23672 0.68418 0.82911 0.0
C239 C 0.23685 0.70728 0.80925 0.0
H240 H 0.3235 0.26436 0.77915 0.0
H241 H 0.36076 0.26851 0.81838 0.0
H242 H 0.30309 0.24745 0.89234 0.0
H243 H 0.26598 0.2435 0.85318 0.0
H244 H 0.29026 0.21702 0.76555 0.0
H245 H 0.27998 0.3101 0.80452 0.0
H246 H 0.27234 0.34771 0.84182 0.0
H247 H 0.19227 0.31351 0.86509 0.0
H248 H 0.20092 0.2749 0.82929 0.0
H249 H 0.17238 0.23038 0.75067 0.0
H250 H 0.13694 0.23079 0.70903 0.0
H251 H 0.19904 0.25362 0.64063 0.0
H252 H 0.23436 0.25289 0.68215 0.0
H253 H 0.20627 0.27605 0.76824 0.0
H254 H 0.21538 0.18237 0.73686 0.0
H255 H 0.21707 0.14536 0.69763 0.0
H256 H 0.29237 0.18022 0.65967 0.0
H257 H 0.29078 0.21686 0.69953 0.0
C258 C 0.29199 0.25358 0.81325 0.0
C259 C 0.31891 0.26076 0.80385 0.0
C260 C 0.34007 0.2634 0.82626 0.0
C261 C 0.33477 0.25838 0.85838 0.0
C262 C 0.30776 0.25139 0.86773 0.0
C263 C 0.28656 0.24913 0.8454 0.0
C264 C 0.26957 0.25063 0.7895 0.0
C265 C 0.27206 0.23014 0.76601 0.0
C266 C 0.24524 0.26698 0.79078 0.0
C267 C 0.24123 0.28937 0.8144 0.0
C268 C 0.26107 0.31031 0.81819 0.0
C269 C 0.25641 0.33213 0.83917 0.0
C270 C 0.23155 0.33384 0.85635 0.0
C271 C 0.21178 0.31275 0.85259 0.0
C272 C 0.21661 0.29074 0.83191 0.0
C273 C 0.20592 0.24153 0.71939 0.0
C274 C 0.17832 0.23523 0.72664 0.0
C275 C 0.1582 0.23534 0.7029 0.0
C276 C 0.16535 0.24229 0.67174 0.0
C277 C 0.19304 0.24833 0.66452 0.0
C278 C 0.21318 0.24781 0.68814 0.0
C279 C 0.22712 0.24273 0.74457 0.0
C280 C 0.22442 0.26282 0.76817 0.0
C281 C 0.25081 0.22566 0.7439 0.0
C282 C 0.25292 0.20243 0.72105 0.0
C283 C 0.23229 0.18198 0.7201 0.0
C284 C 0.23318 0.16093 0.69749 0.0
C285 C 0.25476 0.15982 0.67529 0.0
C286 C 0.27562 0.18018 0.67661 0.0
C287 C 0.27477 0.20119 0.69937 0.0
H288 H 0.71826 0.22589 0.81197 0.0
H289 H 0.68041 0.22232 0.84999 0.0
H290 H 0.64625 0.29901 0.81451 0.0
H291 H 0.68445 0.30264 0.77698 0.0
H292 H 0.71617 0.22884 0.74678 0.0
H293 H 0.74967 0.28612 0.83362 0.0
H294 H 0.74315 0.32339 0.87207 0.0
H295 H 0.72971 0.38137 0.79591 0.0
H296 H 0.73614 0.34385 0.75748 0.0
H297 H 0.79494 0.31073 0.69287 0.0
H298 H 0.83745 0.31127 0.66226 0.0
H299 H 0.84946 0.22431 0.683 0.0
H300 H 0.80914 0.22503 0.71667 0.0
H301 H 0.78317 0.30647 0.74926 0.0
H302 H 0.75849 0.24876 0.66134 0.0
H303 H 0.75867 0.21029 0.62354 0.0
H304 H 0.74911 0.15225 0.70026 0.0
H305 H 0.75001 0.19045 0.73806 0.0
C306 C 0.70433 0.26471 0.79197 0.0
C307 C 0.70254 0.24188 0.81238 0.0
C308 C 0.6808 0.23978 0.83395 0.0
C309 C 0.66032 0.2604 0.83538 0.0
C310 C 0.66193 0.283 0.81442 0.0
C311 C 0.68372 0.28512 0.79293 0.0
C312 C 0.72764 0.26681 0.76941 0.0
C313 C 0.73115 0.24555 0.74739 0.0
C314 C 0.74619 0.28938 0.76953 0.0
C315 C 0.74338 0.31224 0.79272 0.0
C316 C 0.74535 0.30686 0.82521 0.0
C317 C 0.74168 0.32818 0.84713 0.0
C318 C 0.73585 0.3553 0.837 0.0
C319 C 0.73388 0.36063 0.80442 0.0
C320 C 0.73782 0.33931 0.78246 0.0
C321 C 0.79824 0.2677 0.70679 0.0
C322 C 0.80695 0.29186 0.69116 0.0
C323 C 0.83122 0.29199 0.67312 0.0
C324 C 0.84725 0.26778 0.66962 0.0
C325 C 0.83833 0.24363 0.68531 0.0
C326 C 0.81463 0.24378 0.70416 0.0
C327 C 0.77265 0.26771 0.7266 0.0
C328 C 0.76841 0.28961 0.74813 0.0
C329 C 0.75317 0.24566 0.72581 0.0
C330 C 0.75446 0.22256 0.70263 0.0
C331 C 0.7569 0.22775 0.67009 0.0
C332 C 0.75684 0.20581 0.64852 0.0
C333 C 0.75369 0.1784 0.65907 0.0
C334 C 0.7512 0.17324 0.69154 0.0
C335 C 0.75177 0.19506 0.7131 0.0
H336 H 0.78973 0.70644 0.69234 0.0
H337 H 0.82665 0.7021 0.65382 0.0
H338 H 0.85145 0.78655 0.67285 0.0
H339 H 0.81563 0.78989 0.71336 0.0
H340 H 0.79511 0.71485 0.7542 0.0
H341 H 0.76058 0.77195 0.66493 0.0
H342 H 0.76321 0.81333 0.63133 0.0
H343 H 0.75402 0.86517 0.71359 0.0
H344 H 0.75274 0.82406 0.74726 0.0
H345 H 0.70844 0.78411 0.81147 0.0
H346 H 0.66886 0.77708 0.84643 0.0
H347 H 0.66482 0.69126 0.81792 0.0
H348 H 0.7036 0.69874 0.78206 0.0
H349 H 0.71769 0.78208 0.75117 0.0
H350 H 0.75252 0.73667 0.83926 0.0
H351 H 0.75679 0.70299 0.88208 0.0
H352 H 0.77471 0.63878 0.81424 0.0
H353 H 0.76942 0.67229 0.77119 0.0
C354 C 0.79968 0.74859 0.7055 0.0
C355 C 0.80321 0.72401 0.68832 0.0
C356 C 0.8242 0.72166 0.66597 0.0
C357 C 0.84202 0.74402 0.6599 0.0
C358 C 0.83839 0.76874 0.67712 0.0
C359 C 0.81765 0.77088 0.70001 0.0
C360 C 0.77772 0.74986 0.72987 0.0
C361 C 0.77793 0.72929 0.75325 0.0
C362 C 0.75653 0.77017 0.73007 0.0
C363 C 0.75688 0.79479 0.7088 0.0
C364 C 0.75958 0.7922 0.67584 0.0
C365 C 0.76109 0.81581 0.65664 0.0
C366 C 0.75903 0.84238 0.66996 0.0
C367 C 0.75571 0.84492 0.70276 0.0
C368 C 0.75481 0.82141 0.72197 0.0
C369 C 0.70927 0.74191 0.79436 0.0
C370 C 0.69885 0.76387 0.81249 0.0
C371 C 0.67639 0.7597 0.83276 0.0
C372 C 0.6638 0.73348 0.83531 0.0
C373 C 0.67386 0.71173 0.81649 0.0
C374 C 0.69623 0.71594 0.79616 0.0
C375 C 0.73414 0.74576 0.77409 0.0
C376 C 0.73472 0.76748 0.75193 0.0
C377 C 0.75693 0.7274 0.77586 0.0
C378 C 0.76005 0.70695 0.80188 0.0
C379 C 0.75701 0.71529 0.83348 0.0
C380 C 0.75968 0.69612 0.85795 0.0
C381 C 0.76609 0.66836 0.85137 0.0
C382 C 0.77001 0.66014 0.81989 0.0
C383 C 0.76689 0.67925 0.79534 0.0
C384 C 0.97002 0.27652 0.54287 0.0
C385 C 0.04445 0.27509 0.46434 0.0
O386 O 0.98136 0.29711 0.52939 0.0
Zn387 Zn 0.00717 0.27635 0.5036 0.0
O388 O 0.97801 0.25189 0.53611 0.0
Zn389 Zn 0.00755 0.23243 0.50508 0.0
O390 O 0.03071 0.21274 0.53444 0.0
O391 O 0.03512 0.25819 0.53747 0.0
O392 O 0.03722 0.2508 0.47343 0.0
O393 O 0.03209 0.2961 0.47565 0.0
O394 O 0.97953 0.25638 0.47138 0.0
O395 O 0.98447 0.21119 0.47663 0.0
C396 C 0.04206 0.23386 0.54679 0.0
C397 C 0.9728 0.2317 0.46336 0.0
C398 C 0.73505 0.04295 0.55356 0.0
C399 C 0.72945 0.97387 0.46981 0.0
O400 O 0.75868 0.0354 0.54283 0.0
Zn401 Zn 0.7753 0.00647 0.50955 0.0
O402 O 0.71315 0.03102 0.5439 0.0
Zn403 Zn 0.73084 0.00689 0.51348 0.0
O404 O 0.75067 0.97743 0.54292 0.0
O405 O 0.79565 0.97935 0.53511 0.0
O406 O 0.70906 0.9832 0.4855 0.0
O407 O 0.75409 0.98118 0.47683 0.0
O408 O 0.79391 0.03129 0.48015 0.0
O409 O 0.74843 0.03671 0.48151 0.0
C410 C 0.77502 0.96855 0.54908 0.0
C411 C 0.7722 0.04383 0.47085 0.0
C412 C 0.97219 0.75004 0.54512 0.0
C413 C 0.03958 0.74528 0.45996 0.0
O414 O 0.98044 0.77392 0.53584 0.0
Zn415 Zn 0.00694 0.79094 0.50018 0.0
O416 O 0.98066 0.72819 0.5314 0.0
Zn417 Zn 1.00455 0.74649 0.50154 0.0
O418 O 0.03514 0.76494 0.53188 0.0
O419 O 0.0342 0.8104 0.52573 0.0
O420 O 0.02688 0.7249 0.47221 0.0
O421 O 0.03362 0.76998 0.4685 0.0
O422 O 0.98147 0.81076 0.47198 0.0
O423 O 0.97477 0.76561 0.47191 0.0
C424 C 0.04453 0.78902 0.53887 0.0
C425 C 0.9679 0.78981 0.46243 0.0
C426 C 0.23728 0.04363 0.54162 0.0
C427 C 0.23649 0.97194 0.45898 0.0
O428 O 0.26131 0.03666 0.53164 0.0
Zn429 Zn 0.27968 0.00959 0.49756 0.0
O430 O 0.21591 0.03236 0.52959 0.0
Zn431 Zn 0.23527 0.0082 0.50005 0.0
O432 O 0.25657 0.98112 0.53154 0.0
O433 O 0.30164 0.98489 0.52369 0.0
O434 O 0.21546 0.98209 0.47286 0.0
O435 O 0.26063 0.98084 0.46619 0.0
O436 O 0.29737 0.03571 0.46925 0.0
O437 O 0.25177 0.03748 0.46744 0.0
C438 C 0.2814 0.97396 0.53824 0.0
C439 C 0.27536 0.04624 0.45796 0.0
C440 C 0.46748 0.74299 0.03978 0.0
C441 C 0.54641 0.73828 0.96701 0.0
O442 O 0.47581 0.76656 0.02962 0.0
Zn443 Zn 0.50727 0.78342 0.99965 0.0
O444 O 0.47992 0.72095 0.03138 0.0
Zn445 Zn 0.50656 0.73878 1.00335 0.0
O446 O 0.5321 0.75958 0.03673 0.0
O447 O 0.52997 0.80478 0.02857 0.0
O448 O 0.53339 0.7176 0.9782 0.0
O449 O 0.53843 0.76285 0.97354 0.0
O450 O 0.48538 0.80142 0.96702 0.0
O451 O 0.47998 0.75601 0.96843 0.0
C452 C 0.53945 0.78424 0.044 0.0
C453 C 0.47356 0.77965 0.95681 0.0
C454 C 0.23021 0.54668 0.03538 0.0
C455 C 0.23027 0.47207 0.95783 0.0
O456 O 0.25447 0.53844 0.02759 0.0
Zn457 Zn 0.27347 0.50808 0.9978 0.0
O458 O 0.209 0.53487 0.02375 0.0
Zn459 Zn 0.22902 0.50876 0.99757 0.0
O460 O 0.24681 0.48282 0.03258 0.0
O461 O 0.29221 0.48331 0.0277 0.0
O462 O 0.20918 0.48257 0.97112 0.0
O463 O 0.25458 0.48005 0.96558 0.0
O464 O 0.29416 0.53197 0.96938 0.0
O465 O 0.24885 0.53583 0.96415 0.0
C466 C 0.27066 0.47462 0.04175 0.0
C467 C 0.27334 0.54298 0.95582 0.0
C468 C 0.54072 0.23069 0.96119 0.0
C469 C 0.47101 0.22341 0.04449 0.0
O470 O 0.53338 0.25385 0.97322 0.0
Zn471 Zn 0.50638 0.26991 0.00778 0.0
O472 O 0.52963 0.20842 0.97104 0.0
Zn473 Zn 0.50544 0.22525 1.00269 0.0
O474 O 0.47587 0.24697 0.97524 0.0
O475 O 0.48033 0.29199 0.98236 0.0
O476 O 0.48058 0.20322 0.0285 0.0
O477 O 0.47917 0.24818 0.03891 0.0
O478 O 0.53271 0.28643 0.03746 0.0
O479 O 0.53368 0.24065 0.0373 0.0
C480 C 0.46793 0.27171 0.96935 0.0
C481 C 0.54234 0.26379 0.04833 0.0
C482 C 0.7393 0.54451 0.05173 0.0
C483 C 0.74617 0.47071 0.97201 0.0
O484 O 0.76411 0.53709 0.04529 0.0
Zn485 Zn 0.78556 0.50896 0.01495 0.0
O486 O 0.71914 0.53294 0.03754 0.0
Zn487 Zn 0.74104 0.50796 0.0113 0.0
O488 O 0.75887 0.48022 0.04513 0.0
O489 O 0.80429 0.48522 0.04512 0.0
O490 O 0.72393 0.48239 0.98104 0.0
O491 O 0.76942 0.47899 0.983 0.0
O492 O 0.80625 0.53373 0.98715 0.0
O493 O 0.76098 0.53678 0.98134 0.0
C494 C 0.78274 0.47329 0.05576 0.0
C495 C 0.78534 0.5449 0.97407 0.0
H496 H 0.13696 0.30611 0.36427 0.0
H497 H 0.14917 0.21762 0.36795 0.0
H498 H 0.11212 0.21336 0.40654 0.0
H499 H 0.07622 0.23438 0.43916 0.0
H500 H 0.06388 0.32286 0.4369 0.0
H501 H 0.10114 0.32747 0.39817 0.0
C502 C 0.13164 0.28594 0.3737 0.0
C503 C 0.14573 0.2622 0.36288 0.0
C504 C 0.11028 0.28359 0.39618 0.0
C505 C 0.13838 0.23619 0.37527 0.0
C506 C 0.11728 0.23372 0.39754 0.0
C507 C 0.0816 0.25473 0.43024 0.0
C508 C 0.06714 0.27822 0.44095 0.0
C509 C 0.10302 0.25723 0.40806 0.0
C510 C 0.0746 0.30439 0.42911 0.0
C511 C 0.09593 0.30705 0.40693 0.0
H512 H 0.7548 0.1491 0.38597 0.0
H513 H 0.80068 0.09915 0.31964 0.0
H514 H 0.80713 0.06355 0.35988 0.0
H515 H 0.79777 0.04535 0.41355 0.0
H516 H 0.74825 0.09376 0.47759 0.0
H517 H 0.7451 0.13105 0.43872 0.0
C518 C 0.76591 0.13031 0.38005 0.0
C519 C 0.77713 0.12696 0.34962 0.0
C520 C 0.76903 0.1096 0.40308 0.0
C521 C 0.79205 0.10261 0.34289 0.0
C522 C 0.79566 0.08209 0.36588 0.0
C523 C 0.78673 0.0643 0.41902 0.0
C524 C 0.77352 0.06708 0.44838 0.0
C525 C 0.78414 0.08528 0.39605 0.0
C526 C 0.75869 0.09136 0.45511 0.0
C527 C 0.75679 0.1126 0.43288 0.0
H528 H 0.87953 0.8054 0.35392 0.0
H529 H 0.84033 0.73947 0.40653 0.0
H530 H 0.87765 0.74034 0.44482 0.0
H531 H 0.92207 0.75848 0.46284 0.0
H532 H 0.95998 0.82687 0.41397 0.0
H533 H 0.92199 0.82699 0.37535 0.0
C534 C 0.87879 0.7915 0.37398 0.0
C535 C 0.85718 0.77191 0.37659 0.0
C536 C 0.90006 0.79263 0.39675 0.0
C537 C 0.85699 0.75408 0.40293 0.0
C538 C 0.87824 0.75475 0.42519 0.0
C539 C 0.92193 0.77354 0.44382 0.0
C540 C 0.94388 0.79246 0.44099 0.0
C541 C 0.90001 0.77365 0.42212 0.0
C542 C 0.94326 0.81215 0.41661 0.0
C543 C 0.92163 0.81208 0.39447 0.0
H544 H 0.21167 0.86814 0.37186 0.0
H545 H 0.29812 0.87999 0.35022 0.0
H546 H 0.29959 0.92023 0.38474 0.0
H547 H 0.27703 0.95141 0.42179 0.0
H548 H 0.19053 0.94096 0.44367 0.0
H549 H 0.18826 0.9012 0.40775 0.0
C550 C 0.23075 0.87969 0.37443 0.0
C551 C 0.25485 0.87072 0.35865 0.0
C552 C 0.23145 0.90313 0.39426 0.0
C553 C 0.27942 0.88592 0.36253 0.0
C554 C 0.28025 0.90912 0.38212 0.0
C555 C 0.25757 0.94057 0.4187 0.0
C556 C 0.234 0.94914 0.43559 0.0
C557 C 0.25649 0.91775 0.39826 0.0
C558 C 0.20899 0.93487 0.43098 0.0
C559 C 0.20772 0.91206 0.41052 0.0
H560 H 0.15202 0.80951 0.6214 0.0
H561 H 0.12723 0.73042 0.65915 0.0
H562 H 0.08691 0.72987 0.62436 0.0
H563 H 0.05919 0.75131 0.58281 0.0
H564 H 0.08206 0.8313 0.5459 0.0
H565 H 0.12247 0.83231 0.58098 0.0
C566 C 0.13774 0.7922 0.62185 0.0
C567 C 0.14256 0.76995 0.64263 0.0
C568 C 0.11426 0.79227 0.60211 0.0
C569 C 0.12383 0.74777 0.64338 0.0
C570 C 0.10083 0.74744 0.6235 0.0
C571 C 0.07296 0.76904 0.58246 0.0
C572 C 0.06774 0.79112 0.56162 0.0
C573 C 0.09589 0.76951 0.60274 0.0
C574 C 0.08558 0.81408 0.56178 0.0
C575 C 0.10876 0.81458 0.58172 0.0
H576 H 0.21154 0.13721 0.64219 0.0
H577 H 0.30011 0.13172 0.65396 0.0
H578 H 0.30219 0.09562 0.6139 0.0
H579 H 0.27924 0.0657 0.57564 0.0
H580 H 0.19062 0.06956 0.56424 0.0
H581 H 0.18817 0.10585 0.6046 0.0
C582 C 0.23127 0.12792 0.63627 0.0
C583 C 0.25567 0.13742 0.65107 0.0
C584 C 0.23232 0.10681 0.61338 0.0
C585 C 0.28107 0.12531 0.64265 0.0
C586 C 0.28227 0.10447 0.61987 0.0
C587 C 0.25931 0.0744 0.58191 0.0
C588 C 0.23514 0.06494 0.56678 0.0
C589 C 0.25808 0.09514 0.60505 0.0
C590 C 0.20954 0.07641 0.57548 0.0
C591 C 0.20815 0.09721 0.59852 0.0
H592 H 0.85966 0.29961 0.61731 0.0
H593 H 0.89406 0.23581 0.67741 0.0
H594 H 0.93425 0.23266 0.64341 0.0
H595 H 0.95961 0.24707 0.59587 0.0
H596 H 0.92847 0.31458 0.53959 0.0
H597 H 0.88758 0.31786 0.57356 0.0
C598 C 0.87606 0.28537 0.6236 0.0
C599 C 0.87304 0.26755 0.64986 0.0
C600 C 0.89996 0.2844 0.60464 0.0
C601 C 0.89484 0.24912 0.65688 0.0
C602 C 0.9182 0.24748 0.6376 0.0
C603 C 0.94394 0.26264 0.59125 0.0
C604 C 0.94688 0.28044 0.56521 0.0
C605 C 0.92085 0.26479 0.61125 0.0
C606 C 0.92666 0.30074 0.55961 0.0
C607 C 0.90323 0.3025 0.57892 0.0
H608 H 0.79804 0.85888 0.6272 0.0
H609 H 0.71973 0.88219 0.66791 0.0
H610 H 0.71842 0.92372 0.63502 0.0
H611 H 0.7388 0.95278 0.59404 0.0
H612 H 0.81794 0.93137 0.55404 0.0
H613 H 0.81995 0.88996 0.58758 0.0
C614 C 0.78073 0.87311 0.62872 0.0
C615 C 0.7589 0.86748 0.64976 0.0
C616 C 0.78037 0.8973 0.61006 0.0
C617 C 0.73674 0.88617 0.65191 0.0
C618 C 0.73599 0.90987 0.63311 0.0
C619 C 0.7566 0.93915 0.59272 0.0
C620 C 0.77811 0.94507 0.57141 0.0
C621 C 0.75761 0.91559 0.61206 0.0
C622 C 0.80115 0.92735 0.57032 0.0
C623 C 0.80221 0.90358 0.58935 0.0
H624 H 0.89403 0.76596 0.6619 0.0
H625 H 0.84037 0.71589 0.6036 0.0
H626 H 0.87717 0.71047 0.56491 0.0
H627 H 0.92399 0.72184 0.54608 0.0
H628 H 0.97538 0.77633 0.60126 0.0
H629 H 0.94007 0.77832 0.6426 0.0
C630 C 0.89016 0.75415 0.64058 0.0
C631 C 0.86437 0.7413 0.63592 0.0
C632 C 0.91112 0.75182 0.61786 0.0
C633 C 0.86012 0.72562 0.60829 0.0
C634 C 0.88111 0.72263 0.58595 0.0
C635 C 0.9275 0.73374 0.56745 0.0
C636 C 0.95219 0.74861 0.57107 0.0
C637 C 0.90666 0.73572 0.59041 0.0
C638 C 0.95646 0.76458 0.59831 0.0
C639 C 0.93629 0.76581 0.6218 0.0
H640 H 0.29669 0.86463 0.61581 0.0
H641 H 0.23699 0.9058 0.67568 0.0
H642 H 0.23806 0.94604 0.64137 0.0
H643 H 0.25421 0.96889 0.5931 0.0
H644 H 0.31715 0.93027 0.53619 0.0
H645 H 0.31753 0.89008 0.57168 0.0
C646 C 0.28434 0.88253 0.62201 0.0
C647 C 0.26633 0.88159 0.64823 0.0
C648 C 0.28584 0.90623 0.60287 0.0
C649 C 0.2503 0.90518 0.65518 0.0
C650 C 0.25114 0.92849 0.63576 0.0
C651 C 0.26831 0.95181 0.58882 0.0
C652 C 0.28552 0.95227 0.56215 0.0
C653 C 0.26853 0.92907 0.60935 0.0
C654 C 0.30388 0.9303 0.55679 0.0
C655 C 0.30389 0.90729 0.57688 0.0
H656 H 0.12659 0.20401 0.65565 0.0
H657 H 0.15609 0.2858 0.63268 0.0
H658 H 0.12026 0.29052 0.5923 0.0
H659 H 0.08057 0.27156 0.56378 0.0
H660 H 0.05196 0.18895 0.58459 0.0
H661 H 0.0874 0.18432 0.6256 0.0
C662 C 0.12503 0.22284 0.64179 0.0
C663 C 0.14381 0.24456 0.64705 0.0
C664 C 0.1046 0.22524 0.61832 0.0
C665 C 0.14191 0.26877 0.62881 0.0
C666 C 0.1214 0.2715 0.60584 0.0
C667 C 0.08201 0.25256 0.57736 0.0
C668 C 0.06356 0.23071 0.57134 0.0
C669 C 0.10264 0.2499 0.60044 0.0
C670 C 0.06595 0.20607 0.5888 0.0
C671 C 0.08616 0.20344 0.61227 0.0
H672 H 0.71562 0.13725 0.65465 0.0
H673 H 0.79107 0.16752 0.61286 0.0
H674 H 0.79195 0.12797 0.57681 0.0
H675 H 0.77181 0.0846 0.55795 0.0
H676 H 0.69515 0.05499 0.59746 0.0
H677 H 0.69412 0.09453 0.63382 0.0
C678 C 0.73221 0.13509 0.63762 0.0
C679 C 0.75334 0.15509 0.63641 0.0
C680 C 0.73239 0.11247 0.61676 0.0
C681 C 0.77455 0.1524 0.61404 0.0
C682 C 0.77512 0.12977 0.59357 0.0
C683 C 0.75493 0.0867 0.57464 0.0
C684 C 0.73376 0.06675 0.57539 0.0
C685 C 0.75425 0.10963 0.59488 0.0
C686 C 0.71171 0.07006 0.59659 0.0
C687 C 0.71116 0.09262 0.61734 0.0
H688 H 0.89018 0.20096 0.35292 0.0
H689 H 0.85651 0.2803 0.37927 0.0
H690 H 0.89164 0.28522 0.42042 0.0
H691 H 0.9321 0.26736 0.44827 0.0
H692 H 0.96487 0.18696 0.42456 0.0
H693 H 0.92981 0.18185 0.38306 0.0
C694 C 0.89067 0.21926 0.36775 0.0
C695 C 0.87101 0.24032 0.36317 0.0
C696 C 0.91065 0.2217 0.39173 0.0
C697 C 0.87146 0.26384 0.3826 0.0
C698 C 0.89154 0.26668 0.406 0.0
C699 C 0.93161 0.24872 0.43399 0.0
C700 C 0.95116 0.22768 0.43919 0.0
C701 C 0.91126 0.2458 0.41068 0.0
C702 C 0.95 0.20343 0.42093 0.0
C703 C 0.93004 0.20056 0.39718 0.0
H704 H 0.74794 0.89763 0.35321 0.0
H705 H 0.69907 0.84132 0.40923 0.0
H706 H 0.69151 0.87767 0.44855 0.0
H707 H 0.70149 0.92494 0.46857 0.0
H708 H 0.75128 0.97994 0.41215 0.0
H709 H 0.75475 0.94503 0.37072 0.0
C710 C 0.73514 0.89337 0.37366 0.0
C711 C 0.72416 0.86674 0.37823 0.0
C712 C 0.73077 0.91431 0.39595 0.0
C713 C 0.70816 0.86152 0.40533 0.0
C714 C 0.70362 0.88236 0.42771 0.0
C715 C 0.71237 0.92938 0.44677 0.0
C716 C 0.7259 0.95489 0.44307 0.0
C717 C 0.7151 0.90879 0.42345 0.0
C718 C 0.74057 0.9604 0.4152 0.0
C719 C 0.74275 0.94042 0.39168 0.0
H720 H 0.12731 0.71737 0.35392 0.0
H721 H 0.16241 0.79324 0.38965 0.0
H722 H 0.12527 0.79691 0.42846 0.0
H723 H 0.08268 0.77925 0.45135 0.0
H724 H 0.04783 0.70235 0.41831 0.0
H725 H 0.08519 0.69813 0.37929 0.0
C726 C 0.12669 0.73464 0.37028 0.0
C727 C 0.14736 0.7551 0.36901 0.0
C728 C 0.10546 0.73638 0.39285 0.0
C729 C 0.14671 0.77725 0.39042 0.0
C730 C 0.12549 0.77938 0.41248 0.0
C731 C 0.08318 0.76156 0.43556 0.0
C732 C 0.0624 0.74131 0.43732 0.0
C733 C 0.10473 0.75917 0.41376 0.0
C734 C 0.06362 0.71821 0.41725 0.0
C735 C 0.0849 0.71588 0.39495 0.0
H736 H 0.29361 0.15236 0.37306 0.0
H737 H 0.20827 0.1357 0.35042 0.0
H738 H 0.20891 0.09491 0.38465 0.0
H739 H 0.2334 0.06461 0.42138 0.0
H740 H 0.31921 0.07995 0.44336 0.0
H741 H 0.31888 0.12054 0.40865 0.0
C742 C 0.27517 0.13981 0.37585 0.0
C743 C 0.25085 0.14701 0.35955 0.0
C744 C 0.27585 0.11616 0.39518 0.0
C745 C 0.22718 0.13045 0.36279 0.0
C746 C 0.22756 0.10719 0.38232 0.0
C747 C 0.25211 0.07675 0.41855 0.0
C748 C 0.27626 0.06937 0.43507 0.0
C749 C 0.25175 0.09991 0.39863 0.0
C750 C 0.30037 0.08516 0.43084 0.0
C751 C 0.30014 0.10844 0.41114 0.0
H752 H 0.65848 0.75367 0.89493 0.0
H753 H 0.61668 0.70261 0.82629 0.0
H754 H 0.57789 0.69643 0.8626 0.0
H755 H 0.55411 0.70857 0.91272 0.0
H756 H 0.59518 0.76242 0.97896 0.0
H757 H 0.63586 0.76443 0.94495 0.0
C758 C 0.64083 0.74133 0.88776 0.0
C759 C 0.64049 0.72887 0.85775 0.0
C760 C 0.61841 0.73827 0.9085 0.0
C761 C 0.61766 0.71236 0.84929 0.0
C762 C 0.59536 0.7089 0.87001 0.0
C763 C 0.57225 0.72019 0.91985 0.0
C764 C 0.57189 0.73513 0.94832 0.0
C765 C 0.59532 0.72204 0.89957 0.0
C766 C 0.59519 0.75065 0.95715 0.0
C767 C 0.61836 0.75193 0.93767 0.0
H768 H 0.30146 0.64378 0.86582 0.0
H769 H 0.21578 0.63153 0.84056 0.0
H770 H 0.21302 0.59218 0.8763 0.0
H771 H 0.23411 0.5622 0.91589 0.0
H772 H 0.31994 0.5729 0.94096 0.0
H773 H 0.3236 0.61148 0.90356 0.0
C774 C 0.28229 0.63229 0.86781 0.0
C775 C 0.25875 0.64098 0.85076 0.0
C776 C 0.28085 0.60936 0.88833 0.0
C777 C 0.23404 0.62585 0.85388 0.0
C778 C 0.23247 0.60316 0.87418 0.0
C779 C 0.25371 0.57285 0.91315 0.0
C780 C 0.27667 0.56477 0.93141 0.0
C781 C 0.25561 0.59495 0.89177 0.0
C782 C 0.30194 0.57866 0.92721 0.0
C783 C 0.304 0.6008 0.90591 0.0
H784 H 0.37421 0.29821 0.86877 0.0
H785 H 0.34668 0.21789 0.90037 0.0
H786 H 0.38488 0.21564 0.93788 0.0
H787 H 0.42662 0.23547 0.96055 0.0
H788 H 0.4545 0.31632 0.9315 0.0
H789 H 0.41551 0.31959 0.89431 0.0
C790 C 0.37665 0.2803 0.88396 0.0
C791 C 0.35767 0.25821 0.8818 0.0
C792 C 0.39864 0.27925 0.90585 0.0
C793 C 0.36086 0.23521 0.90177 0.0
C794 C 0.38276 0.23386 0.92313 0.0
C795 C 0.42422 0.25388 0.94611 0.0
C796 C 0.4436 0.27549 0.94847 0.0
C797 C 0.40183 0.25562 0.9252 0.0
C798 C 0.43986 0.2994 0.93007 0.0
C799 C 0.41765 0.30119 0.90874 0.0
H800 H 0.76895 0.36622 0.88698 0.0
H801 H 0.69586 0.39557 0.83925 0.0
H802 H 0.69135 0.43326 0.87771 0.0
H803 H 0.7091 0.45855 0.92469 0.0
H804 H 0.78351 0.42929 0.97013 0.0
H805 H 0.78632 0.39081 0.93323 0.0
C806 C 0.75187 0.3807 0.88518 0.0
C807 C 0.73273 0.37804 0.86041 0.0
C808 C 0.74962 0.40238 0.90707 0.0
C809 C 0.71098 0.39729 0.85803 0.0
C810 C 0.70834 0.41877 0.88008 0.0
C811 C 0.72574 0.44358 0.92657 0.0
C812 C 0.74607 0.44683 0.95009 0.0
C813 C 0.72763 0.42162 0.90469 0.0
C814 C 0.7677 0.42742 0.9521 0.0
C815 C 0.76934 0.40535 0.93103 0.0
H816 H 0.62695 0.23458 0.15619 0.0
H817 H 0.6704 0.30406 0.11603 0.0
H818 H 0.63194 0.31241 0.07956 0.0
H819 H 0.58664 0.29827 0.05715 0.0
H820 H 0.54506 0.22709 0.09613 0.0
H821 H 0.58165 0.22146 0.13529 0.0
C822 C 0.62784 0.25178 0.13974 0.0
C823 C 0.6515 0.26863 0.13881 0.0
C824 C 0.60587 0.25619 0.11861 0.0
C825 C 0.65252 0.29059 0.117 0.0
C826 C 0.63048 0.29545 0.09623 0.0
C827 C 0.58548 0.28186 0.07459 0.0
C828 C 0.5632 0.26316 0.07385 0.0
C829 C 0.60713 0.27819 0.09655 0.0
C830 C 0.56208 0.24168 0.09621 0.0
C831 C 0.58301 0.23841 0.11858 0.0
H832 H 0.71024 0.65055 0.13343 0.0
H833 H 0.78962 0.63049 0.17385 0.0
H834 H 0.79334 0.59007 0.13942 0.0
H835 H 0.77467 0.56108 0.09727 0.0
H836 H 0.6945 0.57919 0.05761 0.0
H837 H 0.69018 0.61948 0.09256 0.0
C838 C 0.72831 0.63727 0.13454 0.0
C839 C 0.74974 0.64348 0.15594 0.0
C840 C 0.73006 0.6137 0.11501 0.0
C841 C 0.77291 0.62603 0.15757 0.0
C842 C 0.77503 0.60296 0.1379 0.0
C843 C 0.75615 0.57375 0.09633 0.0
C844 C 0.735 0.56724 0.07473 0.0
C845 C 0.75381 0.59667 0.11649 0.0
C846 C 0.71103 0.58369 0.07411 0.0
C847 C 0.70864 0.60682 0.09395 0.0
H848 H 0.35766 0.76318 0.11552 0.0
H849 H 0.3951 0.70343 0.1782 0.0
H850 H 0.43341 0.69739 0.14129 0.0
H851 H 0.45785 0.71115 0.09216 0.0
H852 H 0.42166 0.77394 0.03266 0.0
H853 H 0.38159 0.7769 0.06742 0.0
C854 C 0.37432 0.74907 0.12143 0.0
C855 C 0.37341 0.73397 0.14984 0.0
C856 C 0.39665 0.74622 0.10054 0.0
C857 C 0.39496 0.71519 0.15643 0.0
C858 C 0.41704 0.71182 0.13539 0.0
C859 C 0.44098 0.72517 0.08674 0.0
C860 C 0.4426 0.74227 0.05993 0.0
C861 C 0.41826 0.72742 0.10746 0.0
C862 C 0.42085 0.76067 0.05328 0.0
C863 C 0.39796 0.76239 0.07313 0.0
H864 H 0.25032 0.39748 0.15902 0.0
H865 H 0.31396 0.34931 0.11369 0.0
H866 H 0.31973 0.38541 0.07359 0.0
H867 H 0.30469 0.42987 0.04969 0.0
H868 H 0.23898 0.476 0.09398 0.0
H869 H 0.2364 0.44197 0.13643 0.0
C870 C 0.26572 0.39506 0.14061 0.0
C871 C 0.28167 0.37077 0.13933 0.0
C872 C 0.26859 0.41565 0.11743 0.0
C873 C 0.30123 0.36773 0.11501 0.0
C874 C 0.30462 0.38842 0.09216 0.0
C875 C 0.2902 0.4326 0.06897 0.0
C876 C 0.27213 0.45541 0.06884 0.0
C877 C 0.28817 0.41237 0.09288 0.0
C878 C 0.25307 0.45855 0.09361 0.0
C879 C 0.25152 0.43908 0.11785 0.0
H880 H 0.36047 0.2148 0.12037 0.0
H881 H 0.40581 0.26934 0.18275 0.0
H882 H 0.44644 0.265 0.14949 0.0
H883 H 0.46832 0.24824 0.10098 0.0
H884 H 0.42496 0.19089 0.04081 0.0
H885 H 0.38464 0.19276 0.07592 0.0
C886 C 0.37932 0.2253 0.12728 0.0
C887 C 0.37955 0.24295 0.15387 0.0
C888 C 0.4031 0.22198 0.10861 0.0
C889 C 0.40439 0.25646 0.1619 0.0
C890 C 0.42788 0.25373 0.14309 0.0
C891 C 0.4502 0.23573 0.09597 0.0
C892 C 0.44939 0.21954 0.06846 0.0
C893 C 0.4273 0.23696 0.11614 0.0
C894 C 0.42601 0.20329 0.06209 0.0
C895 C 0.40292 0.20462 0.08196 0.0
H896 H 0.80847 0.37564 0.15104 0.0
H897 H 0.7204 0.36403 0.1402 0.0
H898 H 0.71797 0.40443 0.10597 0.0
H899 H 0.7407 0.44187 0.07771 0.0
H900 H 0.82898 0.45309 0.08594 0.0
H901 H 0.83147 0.41379 0.12243 0.0
C902 C 0.78878 0.38185 0.14104 0.0
C903 C 0.76464 0.36681 0.14837 0.0
C904 C 0.78755 0.40496 0.12086 0.0
C905 C 0.73924 0.37543 0.13549 0.0
C906 C 0.73783 0.39844 0.11569 0.0
C907 C 0.76054 0.43591 0.08755 0.0
C908 C 0.78463 0.45046 0.07906 0.0
C909 C 0.76184 0.41323 0.1081 0.0
C910 C 0.81011 0.44228 0.09205 0.0
C911 C 0.81154 0.41978 0.11288 0.0
H912 H 0.64777 0.79678 0.12358 0.0
H913 H 0.60711 0.73349 0.179 0.0
H914 H 0.56708 0.73592 0.14446 0.0
H915 H 0.54418 0.7546 0.0974 0.0
H916 H 0.58248 0.82076 0.045 0.0
H917 H 0.62237 0.81966 0.08078 0.0
C918 C 0.63003 0.78389 0.12879 0.0
C919 C 0.63102 0.7646 0.15384 0.0
C920 C 0.60643 0.78619 0.10963 0.0
C921 C 0.60768 0.74786 0.15941 0.0
C922 C 0.58447 0.74949 0.1399 0.0
C923 C 0.56109 0.7691 0.0942 0.0
C924 C 0.56059 0.78766 0.06868 0.0
C925 C 0.58376 0.76835 0.11479 0.0
C926 C 0.5824 0.80648 0.06473 0.0
C927 C 0.60529 0.80562 0.08495 0.0
H928 H 0.20785 0.63474 0.14273 0.0
H929 H 0.28812 0.66263 0.11181 0.0
H930 H 0.28894 0.62678 0.07116 0.0
H931 H 0.26782 0.58663 0.0459 0.0
H932 H 0.18696 0.55895 0.07492 0.0
H933 H 0.18521 0.59578 0.11479 0.0
C934 C 0.22544 0.6329 0.12699 0.0
C935 C 0.24795 0.65113 0.13023 0.0
C936 C 0.22565 0.61237 0.10346 0.0
C937 C 0.27052 0.64889 0.10956 0.0
C938 C 0.27104 0.62836 0.08644 0.0
C939 C 0.24976 0.58867 0.0609 0.0
C940 C 0.22767 0.56996 0.05778 0.0
C941 C 0.24886 0.60987 0.0834 0.0
C942 C 0.20421 0.57313 0.07695 0.0
C943 C 0.20327 0.59409 0.09979 0.0
H944 H 0.3856 0.79833 0.8482 0.0
H945 H 0.35481 0.72157 0.88654 0.0
H946 H 0.39193 0.72124 0.92571 0.0
H947 H 0.43308 0.7423 0.94852 0.0
H948 H 0.4635 0.82009 0.91253 0.0
H949 H 0.42643 0.82063 0.87284 0.0
C950 C 0.38717 0.78156 0.86514 0.0
C951 C 0.36768 0.75993 0.86454 0.0
C952 C 0.40838 0.78171 0.88786 0.0
C953 C 0.36955 0.73847 0.88676 0.0
C954 C 0.39078 0.73823 0.90904 0.0
C955 C 0.43174 0.75935 0.9319 0.0
C956 C 0.45117 0.78096 0.93313 0.0
C957 C 0.41031 0.75967 0.9097 0.0
C958 C 0.44879 0.80318 0.91192 0.0
C959 C 0.42767 0.80345 0.88925 0.0
H960 H 0.24526 0.38786 0.84685 0.0
H961 H 0.20546 0.33369 0.91398 0.0
H962 H 0.19793 0.37273 0.94954 0.0
H963 H 0.20606 0.42178 0.96354 0.0
H964 H 0.25023 0.47423 0.89862 0.0
H965 H 0.25275 0.43645 0.86025 0.0
C966 C 0.23516 0.38446 0.86937 0.0
C967 C 0.22617 0.35774 0.87771 0.0
C968 C 0.2316 0.40681 0.89009 0.0
C969 C 0.21242 0.35402 0.9067 0.0
C970 C 0.20823 0.37633 0.92719 0.0
C971 C 0.21565 0.42494 0.94067 0.0
C972 C 0.2276 0.45064 0.93349 0.0
C973 C 0.21806 0.40276 0.91933 0.0
C974 C 0.24068 0.45456 0.90429 0.0
C975 C 0.24226 0.43297 0.88251 0.0
H976 H 0.63102 0.2148 0.85444 0.0
H977 H 0.63947 0.30271 0.87053 0.0
H978 H 0.60298 0.30099 0.90998 0.0
H979 H 0.56942 0.27491 0.94033 0.0
H980 H 0.56092 0.18677 0.92652 0.0
H981 H 0.59709 0.18817 0.88594 0.0
C982 C 0.625 0.23353 0.86675 0.0
C983 C 0.63789 0.25891 0.8593 0.0
C984 C 0.60412 0.23236 0.88983 0.0
C985 C 0.6296 0.28302 0.87527 0.0
C986 C 0.60886 0.28204 0.89804 0.0
C987 C 0.57533 0.2559 0.92849 0.0
C988 C 0.56239 0.23075 0.93646 0.0
C989 C 0.59604 0.25686 0.90548 0.0
C990 C 0.57053 0.2064 0.92085 0.0
C991 C 0.59119 0.20721 0.89766 0.0
H992 H 0.80682 0.63083 0.8641 0.0
H993 H 0.72733 0.65986 0.89631 0.0
H994 H 0.72707 0.62484 0.93784 0.0
H995 H 0.74833 0.58514 0.96355 0.0
H996 H 0.82838 0.55602 0.9335 0.0
H997 H 0.82978 0.59215 0.89263 0.0
C998 C 0.78954 0.62941 0.88032 0.0
C999 C 0.76707 0.64776 0.87719 0.0
C1000 C 0.78966 0.60933 0.90439 0.0
C1001 C 0.74489 0.64605 0.89846 0.0
C1002 C 0.74469 0.62599 0.92209 0.0
C1003 C 0.76615 0.5867 0.9481 0.0
C1004 C 0.78808 0.56779 0.95119 0.0
C1005 C 0.76681 0.60742 0.92506 0.0
C1006 C 0.81126 0.57037 0.93148 0.0
C1007 C 0.81197 0.59091 0.90808 0.0
loop_
_geom_bond_atom_site_label_1
_geom_bond_atom_site_label_2
_geom_bond_distance
_geom_bond_site_symmetry_2
_ccdc_geom_bond_type
H0 C19 0.949 . S
H1 C20 0.950 . S
H2 C22 0.950 . S
H3 C23 0.950 . S
H4 C25 0.950 . S
H5 C28 0.950 . S
H6 C29 0.950 . S
H7 C31 0.951 . S
H8 C32 0.949 . S
H9 C34 0.949 . S
H10 C35 0.950 . S
H11 C37 0.950 . S
H12 C38 0.950 . S
H13 C40 0.950 . S
H14 C43 0.950 . S
H15 C44 0.950 . S
H16 C46 0.951 . S
H17 C47 0.949 . S
C18 C19 1.376 . S
C18 C23 1.386 . S
C18 C24 1.483 . S
C19 H0 0.949 . S
C19 C18 1.376 . S
C19 C20 1.397 . S
C20 H1 0.950 . S
C20 C19 1.397 . S
C20 C21 1.391 . S
C21 C20 1.391 . S
C21 C22 1.405 . S
C22 H2 0.950 . S
C22 C21 1.405 . S
C22 C23 1.367 . S
C23 H3 0.950 . S
C23 C18 1.386 . S
C23 C22 1.367 . S
C24 C18 1.483 . S
C24 C25 1.382 . S
C24 C26 1.403 . S
C25 H4 0.950 . S
C25 C24 1.382 . S
C25 C41 1.411 . S
C26 C24 1.403 . S
C26 C27 1.489 . S
C26 C40 1.411 . S
C27 C26 1.489 . S
C27 C28 1.383 . S
C27 C32 1.382 . S
C28 H5 0.950 . S
C28 C27 1.383 . S
C28 C29 1.395 . S
C29 H6 0.950 . S
C29 C28 1.395 . S
C29 C30 1.288 . S
C30 C29 1.288 . S
C30 C31 1.392 . S
C31 H7 0.951 . S
C31 C30 1.392 . S
C31 C32 1.392 . S
C32 H8 0.949 . S
C32 C27 1.382 . S
C32 C31 1.392 . S
C33 C34 1.376 . S
C33 C38 1.386 . S
C33 C39 1.483 . S
C34 H9 0.949 . S
C34 C33 1.376 . S
C34 C35 1.397 . S
C35 H10 0.950 . S
C35 C34 1.397 . S
C35 C36 1.391 . S
C36 C35 1.391 . S
C36 C37 1.405 . S
C37 H11 0.950 . S
C37 C36 1.405 . S
C37 C38 1.367 . S
C38 H12 0.950 . S
C38 C33 1.386 . S
C38 C37 1.367 . S
C39 C33 1.483 . S
C39 C40 1.382 . S
C39 C41 1.403 . S
C40 H13 0.950 . S
C40 C26 1.411 . S
C40 C39 1.382 . S
C41 C25 1.411 . S
C41 C39 1.403 . S
C41 C42 1.489 . S
C42 C41 1.489 . S
C42 C43 1.383 . S
C42 C47 1.382 . S
C43 H14 0.950 . S
C43 C42 1.383 . S
C43 C44 1.395 . S
C44 H15 0.950 . S
C44 C43 1.395 . S
C44 C45 1.288 . S
C45 C44 1.288 . S
C45 C46 1.392 . S
C46 H16 0.951 . S
C46 C45 1.392 . S
C46 C47 1.392 . S
C47 H17 0.949 . S
C47 C42 1.382 . S
C47 C46 1.392 . S
H48 C67 0.949 . S
H49 C68 0.950 . S
H50 C70 0.950 . S
H51 C71 0.950 . S
H52 C73 0.950 . S
H53 C76 0.950 . S
H54 C77 0.950 . S
H55 C79 0.951 . S
H56 C80 0.949 . S
H57 C82 0.949 . S
H58 C83 0.950 . S
H59 C85 0.950 . S
H60 C86 0.950 . S
H61 C88 0.950 . S
H62 C91 0.950 . S
H63 C92 0.950 . S
H64 C94 0.951 . S
H65 C95 0.949 . S
C66 C67 1.376 . S
C66 C71 1.386 . S
C66 C72 1.483 . S
C67 H48 0.949 . S
C67 C66 1.376 . S
C67 C68 1.397 . S
C68 H49 0.950 . S
C68 C67 1.397 . S
C68 C69 1.391 . S
C69 C68 1.391 . S
C69 C70 1.405 . S
C70 H50 0.950 . S
C70 C69 1.405 . S
C70 C71 1.367 . S
C71 H51 0.950 . S
C71 C66 1.386 . S
C71 C70 1.367 . S
C72 C66 1.483 . S
C72 C73 1.382 . S
C72 C74 1.403 . S
C73 H52 0.950 . S
C73 C72 1.382 . S
C73 C89 1.411 . S
C74 C72 1.403 . S
C74 C75 1.489 . S
C74 C88 1.411 . S
C75 C74 1.489 . S
C75 C76 1.383 . S
C75 C80 1.382 . S
C76 H53 0.950 . S
C76 C75 1.383 . S
C76 C77 1.395 . S
C77 H54 0.950 . S
C77 C76 1.395 . S
C77 C78 1.288 . S
C78 C77 1.288 . S
C78 C79 1.392 . S
C79 H55 0.951 . S
C79 C78 1.392 . S
C79 C80 1.392 . S
C80 H56 0.949 . S
C80 C75 1.382 . S
C80 C79 1.392 . S
C81 C82 1.376 . S
C81 C86 1.386 . S
C81 C87 1.483 . S
C82 H57 0.949 . S
C82 C81 1.376 . S
C82 C83 1.397 . S
C83 H58 0.950 . S
C83 C82 1.397 . S
C83 C84 1.391 . S
C84 C83 1.391 . S
C84 C85 1.405 . S
C85 H59 0.950 . S
C85 C84 1.405 . S
C85 C86 1.367 . S
C86 H60 0.950 . S
C86 C81 1.386 . S
C86 C85 1.367 . S
C87 C81 1.483 . S
C87 C88 1.382 . S
C87 C89 1.403 . S
C88 H61 0.950 . S
C88 C74 1.411 . S
C88 C87 1.382 . S
C89 C73 1.411 . S
C89 C87 1.403 . S
C89 C90 1.489 . S
C90 C89 1.489 . S
C90 C91 1.383 . S
C90 C95 1.382 . S
C91 H62 0.950 . S
C91 C90 1.383 . S
C91 C92 1.395 . S
C92 H63 0.950 . S
C92 C91 1.395 . S
C92 C93 1.288 . S
C93 C92 1.288 . S
C93 C94 1.392 . S
C94 H64 0.951 . S
C94 C93 1.392 . S
C94 C95 1.392 . S
C95 H65 0.949 . S
C95 C90 1.382 . S
C95 C94 1.392 . S
H96 C115 0.949 . S
H97 C116 0.950 . S
H98 C118 0.950 . S
H99 C119 0.950 . S
H100 C121 0.950 . S
H101 C124 0.950 . S
H102 C125 0.950 . S
H103 C127 0.951 . S
H104 C128 0.949 . S
H105 C130 0.949 . S
H106 C131 0.950 . S
H107 C133 0.950 . S
H108 C134 0.950 . S
H109 C136 0.950 . S
H110 C139 0.950 . S
H111 C140 0.950 . S
H112 C142 0.951 . S
H113 C143 0.949 . S
C114 C115 1.376 . S
C114 C119 1.386 . S
C114 C120 1.483 . S
C115 H96 0.949 . S
C115 C114 1.376 . S
C115 C116 1.397 . S
C116 H97 0.950 . S
C116 C115 1.397 . S
C116 C117 1.391 . S
C117 C116 1.391 . S
C117 C118 1.405 . S
C118 H98 0.950 . S
C118 C117 1.405 . S
C118 C119 1.367 . S
C119 H99 0.950 . S
C119 C114 1.386 . S
C119 C118 1.367 . S
C120 C114 1.483 . S
C120 C121 1.382 . S
C120 C122 1.403 . S
C121 H100 0.950 . S
C121 C120 1.382 . S
C121 C137 1.411 . S
C122 C120 1.403 . S
C122 C123 1.489 . S
C122 C136 1.411 . S
C123 C122 1.489 . S
C123 C124 1.383 . S
C123 C128 1.382 . S
C124 H101 0.950 . S
C124 C123 1.383 . S
C124 C125 1.395 . S
C125 H102 0.950 . S
C125 C124 1.395 . S
C125 C126 1.288 . S
C126 C125 1.288 . S
C126 C127 1.392 . S
C127 H103 0.951 . S
C127 C126 1.392 . S
C127 C128 1.392 . S
C128 H104 0.949 . S
C128 C123 1.382 . S
C128 C127 1.392 . S
C129 C130 1.376 . S
C129 C134 1.386 . S
C129 C135 1.483 . S
C130 H105 0.949 . S
C130 C129 1.376 . S
C130 C131 1.397 . S
C131 H106 0.950 . S
C131 C130 1.397 . S
C131 C132 1.391 . S
C132 C131 1.391 . S
C132 C133 1.405 . S
C133 H107 0.950 . S
C133 C132 1.405 . S
C133 C134 1.367 . S
C134 H108 0.950 . S
C134 C129 1.386 . S
C134 C133 1.367 . S
C135 C129 1.483 . S
C135 C136 1.382 . S
C135 C137 1.403 . S
C136 H109 0.950 . S
C136 C122 1.411 . S
C136 C135 1.382 . S
C137 C121 1.411 . S
C137 C135 1.403 . S
C137 C138 1.489 . S
C138 C137 1.489 . S
C138 C139 1.383 . S
C138 C143 1.382 . S
C139 H110 0.950 . S
C139 C138 1.383 . S
C139 C140 1.395 . S
C140 H111 0.950 . S
C140 C139 1.395 . S
C140 C141 1.288 . S
C141 C140 1.288 . S
C141 C142 1.392 . S
C142 H112 0.951 . S
C142 C141 1.392 . S
C142 C143 1.392 . S
C143 H113 0.949 . S
C143 C138 1.382 . S
C143 C142 1.392 . S
H144 C163 0.949 . S
H145 C164 0.950 . S
H146 C166 0.950 . S
H147 C167 0.950 . S
H148 C169 0.950 . S
H149 C172 0.950 . S
H150 C173 0.950 . S
H151 C175 0.951 . S
H152 C176 0.949 . S
H153 C178 0.949 . S
H154 C179 0.950 . S
H155 C181 0.950 . S
H156 C182 0.950 . S
H157 C184 0.950 . S
H158 C187 0.950 . S
H159 C188 0.950 . S
H160 C190 0.951 . S
H161 C191 0.949 . S
C162 C163 1.376 . S
C162 C167 1.386 . S
C162 C168 1.483 . S
C163 H144 0.949 . S
C163 C162 1.376 . S
C163 C164 1.397 . S
C164 H145 0.950 . S
C164 C163 1.397 . S
C164 C165 1.391 . S
C165 C164 1.391 . S
C165 C166 1.405 . S
C166 H146 0.950 . S
C166 C165 1.405 . S
C166 C167 1.367 . S
C167 H147 0.950 . S
C167 C162 1.386 . S
C167 C166 1.367 . S
C168 C162 1.483 . S
C168 C169 1.382 . S
C168 C170 1.403 . S
C169 H148 0.950 . S
C169 C168 1.382 . S
C169 C185 1.411 . S
C170 C168 1.403 . S
C170 C171 1.489 . S
C170 C184 1.411 . S
C171 C170 1.489 . S
C171 C172 1.383 . S
C171 C176 1.382 . S
C172 H149 0.950 . S
C172 C171 1.383 . S
C172 C173 1.395 . S
C173 H150 0.950 . S
C173 C172 1.395 . S
C173 C174 1.288 . S
C174 C173 1.288 . S
C174 C175 1.392 . S
C175 H151 0.951 . S
C175 C174 1.392 . S
C175 C176 1.392 . S
C176 H152 0.949 . S
C176 C171 1.382 . S
C176 C175 1.392 . S
C177 C178 1.376 . S
C177 C182 1.386 . S
C177 C183 1.483 . S
C178 H153 0.949 . S
C178 C177 1.376 . S
C178 C179 1.397 . S
C179 H154 0.950 . S
C179 C178 1.397 . S
C179 C180 1.391 . S
C180 C179 1.391 . S
C180 C181 1.405 . S
C181 H155 0.950 . S
C181 C180 1.405 . S
C181 C182 1.367 . S
C182 H156 0.950 . S
C182 C177 1.386 . S
C182 C181 1.367 . S
C183 C177 1.483 . S
C183 C184 1.382 . S
C183 C185 1.403 . S
C184 H157 0.950 . S
C184 C170 1.411 . S
C184 C183 1.382 . S
C185 C169 1.411 . S
C185 C183 1.403 . S
C185 C186 1.489 . S
C186 C185 1.489 . S
C186 C187 1.383 . S
C186 C191 1.382 . S
C187 H158 0.950 . S
C187 C186 1.383 . S
C187 C188 1.395 . S
C188 H159 0.950 . S
C188 C187 1.395 . S
C188 C189 1.288 . S
C189 C188 1.288 . S
C189 C190 1.392 . S
C190 H160 0.951 . S
C190 C189 1.392 . S
C190 C191 1.392 . S
C191 H161 0.949 . S
C191 C186 1.382 . S
C191 C190 1.392 . S
H192 C211 0.949 . S
H193 C212 0.950 . S
H194 C214 0.950 . S
H195 C215 0.950 . S
H196 C217 0.950 . S
H197 C220 0.950 . S
H198 C221 0.950 . S
H199 C223 0.951 . S
H200 C224 0.949 . S
H201 C226 0.949 . S
H202 C227 0.950 . S
H203 C229 0.950 . S
H204 C230 0.950 . S
H205 C232 0.950 . S
H206 C235 0.950 . S
H207 C236 0.950 . S
H208 C238 0.951 . S
H209 C239 0.949 . S
C210 C211 1.376 . S
C210 C215 1.386 . S
C210 C216 1.483 . S
C211 H192 0.949 . S
C211 C210 1.376 . S
C211 C212 1.397 . S
C212 H193 0.950 . S
C212 C211 1.397 . S
C212 C213 1.391 . S
C213 C212 1.391 . S
C213 C214 1.405 . S
C214 H194 0.950 . S
C214 C213 1.405 . S
C214 C215 1.367 . S
C215 H195 0.950 . S
C215 C210 1.386 . S
C215 C214 1.367 . S
C216 C210 1.483 . S
C216 C217 1.382 . S
C216 C218 1.403 . S
C217 H196 0.950 . S
C217 C216 1.382 . S
C217 C233 1.411 . S
C218 C216 1.403 . S
C218 C219 1.489 . S
C218 C232 1.411 . S
C219 C218 1.489 . S
C219 C220 1.383 . S
C219 C224 1.382 . S
C220 H197 0.950 . S
C220 C219 1.383 . S
C220 C221 1.395 . S
C221 H198 0.950 . S
C221 C220 1.395 . S
C221 C222 1.288 . S
C222 C221 1.288 . S
C222 C223 1.392 . S
C223 H199 0.951 . S
C223 C222 1.392 . S
C223 C224 1.392 . S
C224 H200 0.949 . S
C224 C219 1.382 . S
C224 C223 1.392 . S
C225 C226 1.376 . S
C225 C230 1.386 . S
C225 C231 1.483 . S
C226 H201 0.949 . S
C226 C225 1.376 . S
C226 C227 1.397 . S
C227 H202 0.950 . S
C227 C226 1.397 . S
C227 C228 1.391 . S
C228 C227 1.391 . S
C228 C229 1.405 . S
C229 H203 0.950 . S
C229 C228 1.405 . S
C229 C230 1.367 . S
C230 H204 0.950 . S
C230 C225 1.386 . S
C230 C229 1.367 . S
C231 C225 1.483 . S
C231 C232 1.382 . S
C231 C233 1.403 . S
C232 H205 0.950 . S
C232 C218 1.411 . S
C232 C231 1.382 . S
C233 C217 1.411 . S
C233 C231 1.403 . S
C233 C234 1.489 . S
C234 C233 1.489 . S
C234 C235 1.383 . S
C234 C239 1.382 . S
C235 H206 0.950 . S
C235 C234 1.383 . S
C235 C236 1.395 . S
C236 H207 0.950 . S
C236 C235 1.395 . S
C236 C237 1.288 . S
C237 C236 1.288 . S
C237 C238 1.392 . S
C238 H208 0.951 . S
C238 C237 1.392 . S
C238 C239 1.392 . S
C239 H209 0.949 . S
C239 C234 1.382 . S
C239 C238 1.392 . S
H240 C259 0.949 . S
H241 C260 0.950 . S
H242 C262 0.950 . S
H243 C263 0.950 . S
H244 C265 0.950 . S
H245 C268 0.950 . S
H246 C269 0.950 . S
H247 C271 0.951 . S
H248 C272 0.949 . S
H249 C274 0.949 . S
H250 C275 0.950 . S
H251 C277 0.950 . S
H252 C278 0.950 . S
H253 C280 0.950 . S
H254 C283 0.950 . S
H255 C284 0.950 . S
H256 C286 0.951 . S
H257 C287 0.949 . S
C258 C259 1.376 . S
C258 C263 1.386 . S
C258 C264 1.483 . S
C259 H240 0.949 . S
C259 C258 1.376 . S
C259 C260 1.397 . S
C260 H241 0.950 . S
C260 C259 1.397 . S
C260 C261 1.391 . S
C261 C260 1.391 . S
C261 C262 1.405 . S
C262 H242 0.950 . S
C262 C261 1.405 . S
C262 C263 1.367 . S
C263 H243 0.950 . S
C263 C258 1.386 . S
C263 C262 1.367 . S
C264 C258 1.483 . S
C264 C265 1.382 . S
C264 C266 1.403 . S
C265 H244 0.950 . S
C265 C264 1.382 . S
C265 C281 1.411 . S
C266 C264 1.403 . S
C266 C267 1.489 . S
C266 C280 1.411 . S
C267 C266 1.489 . S
C267 C268 1.383 . S
C267 C272 1.382 . S
C268 H245 0.950 . S
C268 C267 1.383 . S
C268 C269 1.395 . S
C269 H246 0.950 . S
C269 C268 1.395 . S
C269 C270 1.288 . S
C270 C269 1.288 . S
C270 C271 1.392 . S
C271 H247 0.951 . S
C271 C270 1.392 . S
C271 C272 1.392 . S
C272 H248 0.949 . S
C272 C267 1.382 . S
C272 C271 1.392 . S
C273 C274 1.376 . S
C273 C278 1.386 . S
C273 C279 1.483 . S
C274 H249 0.949 . S
C274 C273 1.376 . S
C274 C275 1.397 . S
C275 H250 0.950 . S
C275 C274 1.397 . S
C275 C276 1.391 . S
C276 C275 1.391 . S
C276 C277 1.405 . S
C277 H251 0.950 . S
C277 C276 1.405 . S
C277 C278 1.367 . S
C278 H252 0.950 . S
C278 C273 1.386 . S
C278 C277 1.367 . S
C279 C273 1.483 . S
C279 C280 1.382 . S
C279 C281 1.403 . S
C280 H253 0.950 . S
C280 C266 1.411 . S
C280 C279 1.382 . S
C281 C265 1.411 . S
C281 C279 1.403 . S
C281 C282 1.489 . S
C282 C281 1.489 . S
C282 C283 1.383 . S
C282 C287 1.382 . S
C283 H254 0.950 . S
C283 C282 1.383 . S
C283 C284 1.395 . S
C284 H255 0.950 . S
C284 C283 1.395 . S
C284 C285 1.288 . S
C285 C284 1.288 . S
C285 C286 1.392 . S
C286 H256 0.951 . S
C286 C285 1.392 . S
C286 C287 1.392 . S
C287 H257 0.949 . S
C287 C282 1.382 . S
C287 C286 1.392 . S
H288 C307 0.949 . S
H289 C308 0.950 . S
H290 C310 0.950 . S
H291 C311 0.950 . S
H292 C313 0.950 . S
H293 C316 0.950 . S
H294 C317 0.950 . S
H295 C319 0.951 . S
H296 C320 0.949 . S
H297 C322 0.949 . S
H298 C323 0.950 . S
H299 C325 0.950 . S
H300 C326 0.950 . S
H301 C328 0.950 . S
H302 C331 0.950 . S
H303 C332 0.950 . S
H304 C334 0.951 . S
H305 C335 0.949 . S
C306 C307 1.376 . S
C306 C311 1.386 . S
C306 C312 1.483 . S
C307 H288 0.949 . S
C307 C306 1.376 . S
C307 C308 1.397 . S
C308 H289 0.950 . S
C308 C307 1.397 . S
C308 C309 1.391 . S
C309 C308 1.391 . S
C309 C310 1.405 . S
C310 H290 0.950 . S
C310 C309 1.405 . S
C310 C311 1.367 . S
C311 H291 0.950 . S
C311 C306 1.386 . S
C311 C310 1.367 . S
C312 C306 1.483 . S
C312 C313 1.382 . S
C312 C314 1.403 . S
C313 H292 0.950 . S
C313 C312 1.382 . S
C313 C329 1.411 . S
C314 C312 1.403 . S
C314 C315 1.489 . S
C314 C328 1.411 . S
C315 C314 1.489 . S
C315 C316 1.383 . S
C315 C320 1.382 . S
C316 H293 0.950 . S
C316 C315 1.383 . S
C316 C317 1.395 . S
C317 H294 0.950 . S
C317 C316 1.395 . S
C317 C318 1.288 . S
C318 C317 1.288 . S
C318 C319 1.392 . S
C319 H295 0.951 . S
C319 C318 1.392 . S
C319 C320 1.392 . S
C320 H296 0.949 . S
C320 C315 1.382 . S
C320 C319 1.392 . S
C321 C322 1.376 . S
C321 C326 1.386 . S
C321 C327 1.483 . S
C322 H297 0.949 . S
C322 C321 1.376 . S
C322 C323 1.397 . S
C323 H298 0.950 . S
C323 C322 1.397 . S
C323 C324 1.391 . S
C324 C323 1.391 . S
C324 C325 1.405 . S
C325 H299 0.950 . S
C325 C324 1.405 . S
C325 C326 1.367 . S
C326 H300 0.950 . S
C326 C321 1.386 . S
C326 C325 1.367 . S
C327 C321 1.483 . S
C327 C328 1.382 . S
C327 C329 1.403 . S
C328 H301 0.950 . S
C328 C314 1.411 . S
C328 C327 1.382 . S
C329 C313 1.411 . S
C329 C327 1.403 . S
C329 C330 1.489 . S
C330 C329 1.489 . S
C330 C331 1.383 . S
C330 C335 1.382 . S
C331 H302 0.950 . S
C331 C330 1.383 . S
C331 C332 1.395 . S
C332 H303 0.950 . S
C332 C331 1.395 . S
C332 C333 1.288 . S
C333 C332 1.288 . S
C333 C334 1.392 . S
C334 H304 0.951 . S
C334 C333 1.392 . S
C334 C335 1.392 . S
C335 H305 0.949 . S
C335 C330 1.382 . S
C335 C334 1.392 . S
H336 C355 0.949 . S
H337 C356 0.950 . S
H338 C358 0.950 . S
H339 C359 0.950 . S
H340 C361 0.950 . S
H341 C364 0.950 . S
H342 C365 0.950 . S
H343 C367 0.951 . S
H344 C368 0.949 . S
H345 C370 0.949 . S
H346 C371 0.950 . S
H347 C373 0.950 . S
H348 C374 0.950 . S
H349 C376 0.950 . S
H350 C379 0.950 . S
H351 C380 0.950 . S
H352 C382 0.951 . S
H353 C383 0.949 . S
C354 C355 1.376 . S
C354 C359 1.386 . S
C354 C360 1.483 . S
C355 H336 0.949 . S
C355 C354 1.376 . S
C355 C356 1.397 . S
C356 H337 0.950 . S
C356 C355 1.397 . S
C356 C357 1.391 . S
C357 C356 1.391 . S
C357 C358 1.405 . S
C358 H338 0.950 . S
C358 C357 1.405 . S
C358 C359 1.367 . S
C359 H339 0.950 . S
C359 C354 1.386 . S
C359 C358 1.367 . S
C360 C354 1.483 . S
C360 C361 1.382 . S
C360 C362 1.403 . S
C361 H340 0.950 . S
C361 C360 1.382 . S
C361 C377 1.411 . S
C362 C360 1.403 . S
C362 C363 1.489 . S
C362 C376 1.411 . S
C363 C362 1.489 . S
C363 C364 1.383 . S
C363 C368 1.382 . S
C364 H341 0.950 . S
C364 C363 1.383 . S
C364 C365 1.395 . S
C365 H342 0.950 . S
C365 C364 1.395 . S
C365 C366 1.288 . S
C366 C365 1.288 . S
C366 C367 1.392 . S
C367 H343 0.951 . S
C367 C366 1.392 . S
C367 C368 1.392 . S
C368 H344 0.949 . S
C368 C363 1.382 . S
C368 C367 1.392 . S
C369 C370 1.376 . S
C369 C374 1.386 . S
C369 C375 1.483 . S
C370 H345 0.949 . S
C370 C369 1.376 . S
C370 C371 1.397 . S
C371 H346 0.950 . S
C371 C370 1.397 . S
C371 C372 1.391 . S
C372 C371 1.391 . S
C372 C373 1.405 . S
C373 H347 0.950 . S
C373 C372 1.405 . S
C373 C374 1.367 . S
C374 H348 0.950 . S
C374 C369 1.386 . S
C374 C373 1.367 . S
C375 C369 1.483 . S
C375 C376 1.382 . S
C375 C377 1.403 . S
C376 H349 0.950 . S
C376 C362 1.411 . S
C376 C375 1.382 . S
C377 C361 1.411 . S
C377 C375 1.403 . S
C377 C378 1.489 . S
C378 C377 1.489 . S
C378 C379 1.383 . S
C378 C383 1.382 . S
C379 H350 0.950 . S
C379 C378 1.383 . S
C379 C380 1.395 . S
C380 H351 0.950 . S
C380 C379 1.395 . S
C380 C381 1.288 . S
C381 C380 1.288 . S
C381 C382 1.392 . S
C382 H352 0.951 . S
C382 C381 1.392 . S
C382 C383 1.392 . S
C383 H353 0.949 . S
C383 C378 1.382 . S
C383 C382 1.392 . S
C384 O386 1.247 . S
C384 O388 1.258 . S
C385 O392 1.247 . S
C385 O393 1.258 . S
O386 C384 1.247 . S
O386 Zn387 2.029 1_655 S
Zn387 O386 2.029 1_455 S
Zn387 O391 2.034 . S
Zn387 O393 2.034 . S
Zn387 O394 2.029 1_455 S
O388 C384 1.258 . S
O388 Zn389 2.021 1_655 S
Zn389 O388 2.021 1_455 S
Zn389 O390 2.042 . S
Zn389 O392 2.042 . S
Zn389 O395 2.021 1_455 S
O390 Zn389 2.042 . S
O390 C396 1.247 . S
O391 Zn387 2.034 . S
O391 C396 1.258 . S
O392 C385 1.247 . S
O392 Zn389 2.042 . S
O393 C385 1.258 . S
O393 Zn387 2.034 . S
O394 Zn387 2.029 1_655 S
O394 C397 1.247 . S
O395 Zn389 2.021 1_655 S
O395 C397 1.258 . S
C396 O390 1.247 . S
C396 O391 1.258 . S
C397 O394 1.247 . S
C397 O395 1.258 . S
C398 O400 1.247 . S
C398 O402 1.258 . S
C399 O406 1.247 . S
C399 O407 1.258 . S
O400 C398 1.247 . S
O400 Zn401 2.040 . S
Zn401 O400 2.040 . S
Zn401 O405 2.023 1_545 S
Zn401 O407 2.023 1_545 S
Zn401 O408 2.040 . S
O402 C398 1.258 . S
O402 Zn403 2.032 . S
Zn403 O402 2.032 . S
Zn403 O404 2.031 1_545 S
Zn403 O406 2.031 1_545 S
Zn403 O409 2.032 . S
O404 Zn403 2.031 1_565 S
O404 C410 1.247 . S
O405 Zn401 2.023 1_565 S
O405 C410 1.258 . S
O406 C399 1.247 . S
O406 Zn403 2.031 1_565 S
O407 C399 1.258 . S
O407 Zn401 2.023 1_565 S
O408 Zn401 2.040 . S
O408 C411 1.247 . S
O409 Zn403 2.032 . S
O409 C411 1.258 . S
C410 O404 1.247 . S
C410 O405 1.258 . S
C411 O408 1.247 . S
C411 O409 1.258 . S
C412 O414 1.247 . S
C412 O416 1.258 . S
C413 O420 1.247 . S
C413 O421 1.258 . S
O414 C412 1.247 . S
O414 Zn415 2.028 1_655 S
Zn415 O414 2.028 1_455 S
Zn415 O419 2.035 . S
Zn415 O421 2.035 . S
Zn415 O422 2.028 1_455 S
O416 C412 1.258 . S
O416 Zn417 2.021 1_655 S
Zn417 O416 2.021 1_455 S
Zn417 O418 2.042 . S
Zn417 O420 2.042 . S
Zn417 O423 2.021 1_455 S
O418 Zn417 2.042 . S
O418 C424 1.247 . S
O419 Zn415 2.035 . S
O419 C424 1.258 . S
O420 C413 1.247 . S
O420 Zn417 2.042 . S
O421 C413 1.258 . S
O421 Zn415 2.035 . S
O422 Zn415 2.028 1_655 S
O422 C425 1.247 . S
O423 Zn417 2.021 1_655 S
O423 C425 1.258 . S
C424 O418 1.247 . S
C424 O419 1.258 . S
C425 O422 1.247 . S
C425 O423 1.258 . S
C426 O428 1.247 . S
C426 O430 1.258 . S
C427 O434 1.247 . S
C427 O435 1.258 . S
O428 C426 1.247 . S
O428 Zn429 2.040 . S
Zn429 O428 2.040 . S
Zn429 O433 2.023 1_545 S
Zn429 O435 2.023 1_545 S
Zn429 O436 2.040 . S
O430 C426 1.258 . S
O430 Zn431 2.032 . S
Zn431 O430 2.032 . S
Zn431 O432 2.031 1_545 S
Zn431 O434 2.031 1_545 S
Zn431 O437 2.032 . S
O432 Zn431 2.031 1_565 S
O432 C438 1.247 . S
O433 Zn429 2.023 1_565 S
O433 C438 1.258 . S
O434 C427 1.247 . S
O434 Zn431 2.031 1_565 S
O435 C427 1.258 . S
O435 Zn429 2.023 1_565 S
O436 Zn429 2.040 . S
O436 C439 1.247 . S
O437 Zn431 2.032 . S
O437 C439 1.258 . S
C438 O432 1.247 . S
C438 O433 1.258 . S
C439 O436 1.247 . S
C439 O437 1.258 . S
C440 O442 1.247 . S
C440 O444 1.258 . S
C441 O448 1.247 . S
C441 O449 1.258 . S
O442 C440 1.247 . S
O442 Zn443 2.028 . S
Zn443 O442 2.028 . S
Zn443 O447 2.035 . S
Zn443 O449 2.035 1_554 S
Zn443 O450 2.028 1_554 S
O444 C440 1.258 . S
O444 Zn445 2.035 . S
Zn445 O444 2.035 . S
Zn445 O446 2.028 . S
Zn445 O448 2.028 1_554 S
Zn445 O451 2.035 1_554 S
O446 Zn445 2.028 . S
O446 C452 1.247 . S
O447 Zn443 2.035 . S
O447 C452 1.258 . S
O448 C441 1.247 . S
O448 Zn445 2.028 1_556 S
O449 C441 1.258 . S
O449 Zn443 2.035 1_556 S
O450 Zn443 2.028 1_556 S
O450 C453 1.247 . S
O451 Zn445 2.035 1_556 S
O451 C453 1.258 . S
C452 O446 1.247 . S
C452 O447 1.258 . S
C453 O450 1.247 . S
C453 O451 1.258 . S
C454 O456 1.247 . S
C454 O458 1.258 . S
C455 O462 1.247 . S
C455 O463 1.258 . S
O456 C454 1.247 . S
O456 Zn457 2.028 . S
Zn457 O456 2.028 . S
Zn457 O461 2.035 . S
Zn457 O463 2.035 1_554 S
Zn457 O464 2.028 1_554 S
O458 C454 1.258 . S
O458 Zn459 2.035 . S
Zn459 O458 2.035 . S
Zn459 O460 2.028 . S
Zn459 O462 2.028 1_554 S
Zn459 O465 2.035 1_554 S
O460 Zn459 2.028 . S
O460 C466 1.247 . S
O461 Zn457 2.035 . S
O461 C466 1.258 . S
O462 C455 1.247 . S
O462 Zn459 2.028 1_556 S
O463 C455 1.258 . S
O463 Zn457 2.035 1_556 S
O464 Zn457 2.028 1_556 S
O464 C467 1.247 . S
O465 Zn459 2.035 1_556 S
O465 C467 1.258 . S
C466 O460 1.247 . S
C466 O461 1.258 . S
C467 O464 1.247 . S
C467 O465 1.258 . S
C468 O470 1.247 . S
C468 O472 1.258 . S
C469 O476 1.247 . S
C469 O477 1.258 . S
O470 C468 1.247 . S
O470 Zn471 2.028 1_556 S
Zn471 O470 2.028 1_554 S
Zn471 O475 2.035 1_554 S
Zn471 O477 2.035 . S
Zn471 O478 2.028 . S
O472 C468 1.258 . S
O472 Zn473 2.035 1_556 S
Zn473 O472 2.035 1_554 S
Zn473 O474 2.028 1_554 S
Zn473 O476 2.028 . S
Zn473 O479 2.035 . S
O474 Zn473 2.028 1_556 S
O474 C480 1.247 . S
O475 Zn471 2.035 1_556 S
O475 C480 1.258 . S
O476 C469 1.247 . S
O476 Zn473 2.028 . S
O477 C469 1.258 . S
O477 Zn471 2.035 . S
O478 Zn471 2.028 . S
O478 C481 1.247 . S
O479 Zn473 2.035 . S
O479 C481 1.258 . S
C480 O474 1.247 . S
C480 O475 1.258 . S
C481 O478 1.247 . S
C481 O479 1.258 . S
C482 O484 1.247 . S
C482 O486 1.258 . S
C483 O490 1.247 . S
C483 O491 1.258 . S
O484 C482 1.247 . S
O484 Zn485 2.028 . S
Zn485 O484 2.028 . S
Zn485 O489 2.035 . S
Zn485 O491 2.035 1_554 S
Zn485 O492 2.028 1_554 S
O486 C482 1.258 . S
O486 Zn487 2.035 . S
Zn487 O486 2.035 . S
Zn487 O488 2.028 . S
Zn487 O490 2.028 1_554 S
Zn487 O493 2.035 1_554 S
O488 Zn487 2.028 . S
O488 C494 1.247 . S
O489 Zn485 2.035 . S
O489 C494 1.258 . S
O490 C483 1.247 . S
O490 Zn487 2.028 1_556 S
O491 C483 1.258 . S
O491 Zn485 2.035 1_556 S
O492 Zn485 2.028 1_556 S
O492 C495 1.247 . S
O493 Zn487 2.035 1_556 S
O493 C495 1.258 . S
C494 O488 1.247 . S
C494 O489 1.258 . S
C495 O492 1.247 . S
C495 O493 1.258 . S
H496 C502 0.930 . S
H497 C505 0.930 . S
H498 C506 0.930 . S
H499 C507 0.930 . S
H500 C510 0.930 . S
H501 C511 0.930 . S
C502 H496 0.930 . S
C502 C503 1.355 . S
C502 C504 1.415 . S
C503 C502 1.355 . S
C503 C505 1.419 . S
C504 C502 1.415 . S
C504 C509 1.425 . S
C504 C511 1.409 . S
C505 H497 0.930 . S
C505 C503 1.419 . S
C505 C506 1.362 . S
C506 H498 0.930 . S
C506 C505 1.362 . S
C506 C509 1.409 . S
C507 H499 0.930 . S
C507 C508 1.355 . S
C507 C509 1.415 . S
C508 C507 1.355 . S
C508 C510 1.419 . S
C509 C504 1.425 . S
C509 C506 1.409 . S
C509 C507 1.415 . S
C510 H500 0.930 . S
C510 C508 1.419 . S
C510 C511 1.362 . S
C511 H501 0.930 . S
C511 C504 1.409 . S
C511 C510 1.362 . S
H512 C518 0.930 . S
H513 C521 0.930 . S
H514 C522 0.930 . S
H515 C523 0.930 . S
H516 C526 0.930 . S
H517 C527 0.930 . S
C518 H512 0.930 . S
C518 C519 1.355 . S
C518 C520 1.415 . S
C519 C518 1.355 . S
C519 C521 1.419 . S
C520 C518 1.415 . S
C520 C525 1.425 . S
C520 C527 1.409 . S
C521 H513 0.930 . S
C521 C519 1.419 . S
C521 C522 1.362 . S
C522 H514 0.930 . S
C522 C521 1.362 . S
C522 C525 1.409 . S
C523 H515 0.930 . S
C523 C524 1.355 . S
C523 C525 1.415 . S
C524 C523 1.355 . S
C524 C526 1.419 . S
C525 C520 1.425 . S
C525 C522 1.409 . S
C525 C523 1.415 . S
C526 H516 0.930 . S
C526 C524 1.419 . S
C526 C527 1.362 . S
C527 H517 0.930 . S
C527 C520 1.409 . S
C527 C526 1.362 . S
H528 C534 0.930 . S
H529 C537 0.930 . S
H530 C538 0.930 . S
H531 C539 0.930 . S
H532 C542 0.930 . S
H533 C543 0.930 . S
C534 H528 0.930 . S
C534 C535 1.355 . S
C534 C536 1.415 . S
C535 C534 1.355 . S
C535 C537 1.419 . S
C536 C534 1.415 . S
C536 C541 1.425 . S
C536 C543 1.409 . S
C537 H529 0.930 . S
C537 C535 1.419 . S
C537 C538 1.362 . S
C538 H530 0.930 . S
C538 C537 1.362 . S
C538 C541 1.409 . S
C539 H531 0.930 . S
C539 C540 1.355 . S
C539 C541 1.415 . S
C540 C539 1.355 . S
C540 C542 1.419 . S
C541 C536 1.425 . S
C541 C538 1.409 . S
C541 C539 1.415 . S
C542 H532 0.930 . S
C542 C540 1.419 . S
C542 C543 1.362 . S
C543 H533 0.930 . S
C543 C536 1.409 . S
C543 C542 1.362 . S
H544 C550 0.930 . S
H545 C553 0.930 . S
H546 C554 0.930 . S
H547 C555 0.930 . S
H548 C558 0.930 . S
H549 C559 0.930 . S
C550 H544 0.930 . S
C550 C551 1.355 . S
C550 C552 1.415 . S
C551 C550 1.355 . S
C551 C553 1.419 . S
C552 C550 1.415 . S
C552 C557 1.425 . S
C552 C559 1.409 . S
C553 H545 0.930 . S
C553 C551 1.419 . S
C553 C554 1.362 . S
C554 H546 0.930 . S
C554 C553 1.362 . S
C554 C557 1.409 . S
C555 H547 0.930 . S
C555 C556 1.355 . S
C555 C557 1.415 . S
C556 C555 1.355 . S
C556 C558 1.419 . S
C557 C552 1.425 . S
C557 C554 1.409 . S
C557 C555 1.415 . S
C558 H548 0.930 . S
C558 C556 1.419 . S
C558 C559 1.362 . S
C559 H549 0.930 . S
C559 C552 1.409 . S
C559 C558 1.362 . S
H560 C566 0.930 . S
H561 C569 0.930 . S
H562 C570 0.930 . S
H563 C571 0.930 . S
H564 C574 0.930 . S
H565 C575 0.930 . S
C566 H560 0.930 . S
C566 C567 1.355 . S
C566 C568 1.415 . S
C567 C566 1.355 . S
C567 C569 1.419 . S
C568 C566 1.415 . S
C568 C573 1.425 . S
C568 C575 1.409 . S
C569 H561 0.930 . S
C569 C567 1.419 . S
C569 C570 1.362 . S
C570 H562 0.930 . S
C570 C569 1.362 . S
C570 C573 1.409 . S
C571 H563 0.930 . S
C571 C572 1.355 . S
C571 C573 1.415 . S
C572 C571 1.355 . S
C572 C574 1.419 . S
C573 C568 1.425 . S
C573 C570 1.409 . S
C573 C571 1.415 . S
C574 H564 0.930 . S
C574 C572 1.419 . S
C574 C575 1.362 . S
C575 H565 0.930 . S
C575 C568 1.409 . S
C575 C574 1.362 . S
H576 C582 0.930 . S
H577 C585 0.930 . S
H578 C586 0.930 . S
H579 C587 0.930 . S
H580 C590 0.930 . S
H581 C591 0.930 . S
C582 H576 0.930 . S
C582 C583 1.355 . S
C582 C584 1.415 . S
C583 C582 1.355 . S
C583 C585 1.419 . S
C584 C582 1.415 . S
C584 C589 1.425 . S
C584 C591 1.409 . S
C585 H577 0.930 . S
C585 C583 1.419 . S
C585 C586 1.362 . S
C586 H578 0.930 . S
C586 C585 1.362 . S
C586 C589 1.409 . S
C587 H579 0.930 . S
C587 C588 1.355 . S
C587 C589 1.415 . S
C588 C587 1.355 . S
C588 C590 1.419 . S
C589 C584 1.425 . S
C589 C586 1.409 . S
C589 C587 1.415 . S
C590 H580 0.930 . S
C590 C588 1.419 . S
C590 C591 1.362 . S
C591 H581 0.930 . S
C591 C584 1.409 . S
C591 C590 1.362 . S
H592 C598 0.930 . S
H593 C601 0.930 . S
H594 C602 0.930 . S
H595 C603 0.930 . S
H596 C606 0.930 . S
H597 C607 0.930 . S
C598 H592 0.930 . S
C598 C599 1.355 . S
C598 C600 1.415 . S
C599 C598 1.355 . S
C599 C601 1.419 . S
C600 C598 1.415 . S
C600 C605 1.425 . S
C600 C607 1.409 . S
C601 H593 0.930 . S
C601 C599 1.419 . S
C601 C602 1.362 . S
C602 H594 0.930 . S
C602 C601 1.362 . S
C602 C605 1.409 . S
C603 H595 0.930 . S
C603 C604 1.355 . S
C603 C605 1.415 . S
C604 C603 1.355 . S
C604 C606 1.419 . S
C605 C600 1.425 . S
C605 C602 1.409 . S
C605 C603 1.415 . S
C606 H596 0.930 . S
C606 C604 1.419 . S
C606 C607 1.362 . S
C607 H597 0.930 . S
C607 C600 1.409 . S
C607 C606 1.362 . S
H608 C614 0.930 . S
H609 C617 0.930 . S
H610 C618 0.930 . S
H611 C619 0.930 . S
H612 C622 0.930 . S
H613 C623 0.930 . S
C614 H608 0.930 . S
C614 C615 1.355 . S
C614 C616 1.415 . S
C615 C614 1.355 . S
C615 C617 1.419 . S
C616 C614 1.415 . S
C616 C621 1.425 . S
C616 C623 1.409 . S
C617 H609 0.930 . S
C617 C615 1.419 . S
C617 C618 1.362 . S
C618 H610 0.930 . S
C618 C617 1.362 . S
C618 C621 1.409 . S
C619 H611 0.930 . S
C619 C620 1.355 . S
C619 C621 1.415 . S
C620 C619 1.355 . S
C620 C622 1.419 . S
C621 C616 1.425 . S
C621 C618 1.409 . S
C621 C619 1.415 . S
C622 H612 0.930 . S
C622 C620 1.419 . S
C622 C623 1.362 . S
C623 H613 0.930 . S
C623 C616 1.409 . S
C623 C622 1.362 . S
H624 C630 0.930 . S
H625 C633 0.930 . S
H626 C634 0.930 . S
H627 C635 0.930 . S
H628 C638 0.930 . S
H629 C639 0.930 . S
C630 H624 0.930 . S
C630 C631 1.355 . S
C630 C632 1.415 . S
C631 C630 1.355 . S
C631 C633 1.419 . S
C632 C630 1.415 . S
C632 C637 1.425 . S
C632 C639 1.409 . S
C633 H625 0.930 . S
C633 C631 1.419 . S
C633 C634 1.362 . S
C634 H626 0.930 . S
C634 C633 1.362 . S
C634 C637 1.409 . S
C635 H627 0.930 . S
C635 C636 1.355 . S
C635 C637 1.415 . S
C636 C635 1.355 . S
C636 C638 1.419 . S
C637 C632 1.425 . S
C637 C634 1.409 . S
C637 C635 1.415 . S
C638 H628 0.930 . S
C638 C636 1.419 . S
C638 C639 1.362 . S
C639 H629 0.930 . S
C639 C632 1.409 . S
C639 C638 1.362 . S
H640 C646 0.930 . S
H641 C649 0.930 . S
H642 C650 0.930 . S
H643 C651 0.930 . S
H644 C654 0.930 . S
H645 C655 0.930 . S
C646 H640 0.930 . S
C646 C647 1.355 . S
C646 C648 1.415 . S
C647 C646 1.355 . S
C647 C649 1.419 . S
C648 C646 1.415 . S
C648 C653 1.425 . S
C648 C655 1.409 . S
C649 H641 0.930 . S
C649 C647 1.419 . S
C649 C650 1.362 . S
C650 H642 0.930 . S
C650 C649 1.362 . S
C650 C653 1.409 . S
C651 H643 0.930 . S
C651 C652 1.355 . S
C651 C653 1.415 . S
C652 C651 1.355 . S
C652 C654 1.419 . S
C653 C648 1.425 . S
C653 C650 1.409 . S
C653 C651 1.415 . S
C654 H644 0.930 . S
C654 C652 1.419 . S
C654 C655 1.362 . S
C655 H645 0.930 . S
C655 C648 1.409 . S
C655 C654 1.362 . S
H656 C662 0.930 . S
H657 C665 0.930 . S
H658 C666 0.930 . S
H659 C667 0.930 . S
H660 C670 0.930 . S
H661 C671 0.930 . S
C662 H656 0.930 . S
C662 C663 1.355 . S
C662 C664 1.415 . S
C663 C662 1.355 . S
C663 C665 1.419 . S
C664 C662 1.415 . S
C664 C669 1.425 . S
C664 C671 1.409 . S
C665 H657 0.930 . S
C665 C663 1.419 . S
C665 C666 1.362 . S
C666 H658 0.930 . S
C666 C665 1.362 . S
C666 C669 1.409 . S
C667 H659 0.930 . S
C667 C668 1.355 . S
C667 C669 1.415 . S
C668 C667 1.355 . S
C668 C670 1.419 . S
C669 C664 1.425 . S
C669 C666 1.409 . S
C669 C667 1.415 . S
C670 H660 0.930 . S
C670 C668 1.419 . S
C670 C671 1.362 . S
C671 H661 0.930 . S
C671 C664 1.409 . S
C671 C670 1.362 . S
H672 C678 0.930 . S
H673 C681 0.930 . S
H674 C682 0.930 . S
H675 C683 0.930 . S
H676 C686 0.930 . S
H677 C687 0.930 . S
C678 H672 0.930 . S
C678 C679 1.355 . S
C678 C680 1.415 . S
C679 C678 1.355 . S
C679 C681 1.419 . S
C680 C678 1.415 . S
C680 C685 1.425 . S
C680 C687 1.409 . S
C681 H673 0.930 . S
C681 C679 1.419 . S
C681 C682 1.362 . S
C682 H674 0.930 . S
C682 C681 1.362 . S
C682 C685 1.409 . S
C683 H675 0.930 . S
C683 C684 1.355 . S
C683 C685 1.415 . S
C684 C683 1.355 . S
C684 C686 1.419 . S
C685 C680 1.425 . S
C685 C682 1.409 . S
C685 C683 1.415 . S
C686 H676 0.930 . S
C686 C684 1.419 . S
C686 C687 1.362 . S
C687 H677 0.930 . S
C687 C680 1.409 . S
C687 C686 1.362 . S
H688 C694 0.930 . S
H689 C697 0.930 . S
H690 C698 0.930 . S
H691 C699 0.930 . S
H692 C702 0.930 . S
H693 C703 0.930 . S
C694 H688 0.930 . S
C694 C695 1.355 . S
C694 C696 1.415 . S
C695 C694 1.355 . S
C695 C697 1.419 . S
C696 C694 1.415 . S
C696 C701 1.425 . S
C696 C703 1.409 . S
C697 H689 0.930 . S
C697 C695 1.419 . S
C697 C698 1.362 . S
C698 H690 0.930 . S
C698 C697 1.362 . S
C698 C701 1.409 . S
C699 H691 0.930 . S
C699 C700 1.355 . S
C699 C701 1.415 . S
C700 C699 1.355 . S
C700 C702 1.419 . S
C701 C696 1.425 . S
C701 C698 1.409 . S
C701 C699 1.415 . S
C702 H692 0.930 . S
C702 C700 1.419 . S
C702 C703 1.362 . S
C703 H693 0.930 . S
C703 C696 1.409 . S
C703 C702 1.362 . S
H704 C710 0.930 . S
H705 C713 0.930 . S
H706 C714 0.930 . S
H707 C715 0.930 . S
H708 C718 0.930 . S
H709 C719 0.930 . S
C710 H704 0.930 . S
C710 C711 1.355 . S
C710 C712 1.415 . S
C711 C710 1.355 . S
C711 C713 1.419 . S
C712 C710 1.415 . S
C712 C717 1.425 . S
C712 C719 1.409 . S
C713 H705 0.930 . S
C713 C711 1.419 . S
C713 C714 1.362 . S
C714 H706 0.930 . S
C714 C713 1.362 . S
C714 C717 1.409 . S
C715 H707 0.930 . S
C715 C716 1.355 . S
C715 C717 1.415 . S
C716 C715 1.355 . S
C716 C718 1.419 . S
C717 C712 1.425 . S
C717 C714 1.409 . S
C717 C715 1.415 . S
C718 H708 0.930 . S
C718 C716 1.419 . S
C718 C719 1.362 . S
C719 H709 0.930 . S
C719 C712 1.409 . S
C719 C718 1.362 . S
H720 C726 0.930 . S
H721 C729 0.930 . S
H722 C730 0.930 . S
H723 C731 0.930 . S
H724 C734 0.930 . S
H725 C735 0.930 . S
C726 H720 0.930 . S
C726 C727 1.355 . S
C726 C728 1.415 . S
C727 C726 1.355 . S
C727 C729 1.419 . S
C728 C726 1.415 . S
C728 C733 1.425 . S
C728 C735 1.409 . S
C729 H721 0.930 . S
C729 C727 1.419 . S
C729 C730 1.362 . S
C730 H722 0.930 . S
C730 C729 1.362 . S
C730 C733 1.409 . S
C731 H723 0.930 . S
C731 C732 1.355 . S
C731 C733 1.415 . S
C732 C731 1.355 . S
C732 C734 1.419 . S
C733 C728 1.425 . S
C733 C730 1.409 . S
C733 C731 1.415 . S
C734 H724 0.930 . S
C734 C732 1.419 . S
C734 C735 1.362 . S
C735 H725 0.930 . S
C735 C728 1.409 . S
C735 C734 1.362 . S
H736 C742 0.930 . S
H737 C745 0.930 . S
H738 C746 0.930 . S
H739 C747 0.930 . S
H740 C750 0.930 . S
H741 C751 0.930 . S
C742 H736 0.930 . S
C742 C743 1.355 . S
C742 C744 1.415 . S
C743 C742 1.355 . S
C743 C745 1.419 . S
C744 C742 1.415 . S
C744 C749 1.425 . S
C744 C751 1.409 . S
C745 H737 0.930 . S
C745 C743 1.419 . S
C745 C746 1.362 . S
C746 H738 0.930 . S
C746 C745 1.362 . S
C746 C749 1.409 . S
C747 H739 0.930 . S
C747 C748 1.355 . S
C747 C749 1.415 . S
C748 C747 1.355 . S
C748 C750 1.419 . S
C749 C744 1.425 . S
C749 C746 1.409 . S
C749 C747 1.415 . S
C750 H740 0.930 . S
C750 C748 1.419 . S
C750 C751 1.362 . S
C751 H741 0.930 . S
C751 C744 1.409 . S
C751 C750 1.362 . S
H752 C758 0.930 . S
H753 C761 0.930 . S
H754 C762 0.930 . S
H755 C763 0.930 . S
H756 C766 0.930 . S
H757 C767 0.930 . S
C758 H752 0.930 . S
C758 C759 1.355 . S
C758 C760 1.415 . S
C759 C758 1.355 . S
C759 C761 1.419 . S
C760 C758 1.415 . S
C760 C765 1.425 . S
C760 C767 1.409 . S
C761 H753 0.930 . S
C761 C759 1.419 . S
C761 C762 1.362 . S
C762 H754 0.930 . S
C762 C761 1.362 . S
C762 C765 1.409 . S
C763 H755 0.930 . S
C763 C764 1.355 . S
C763 C765 1.415 . S
C764 C763 1.355 . S
C764 C766 1.419 . S
C765 C760 1.425 . S
C765 C762 1.409 . S
C765 C763 1.415 . S
C766 H756 0.930 . S
C766 C764 1.419 . S
C766 C767 1.362 . S
C767 H757 0.930 . S
C767 C760 1.409 . S
C767 C766 1.362 . S
H768 C774 0.930 . S
H769 C777 0.930 . S
H770 C778 0.930 . S
H771 C779 0.930 . S
H772 C782 0.930 . S
H773 C783 0.930 . S
C774 H768 0.930 . S
C774 C775 1.355 . S
C774 C776 1.415 . S
C775 C774 1.355 . S
C775 C777 1.419 . S
C776 C774 1.415 . S
C776 C781 1.425 . S
C776 C783 1.409 . S
C777 H769 0.930 . S
C777 C775 1.419 . S
C777 C778 1.362 . S
C778 H770 0.930 . S
C778 C777 1.362 . S
C778 C781 1.409 . S
C779 H771 0.930 . S
C779 C780 1.355 . S
C779 C781 1.415 . S
C780 C779 1.355 . S
C780 C782 1.419 . S
C781 C776 1.425 . S
C781 C778 1.409 . S
C781 C779 1.415 . S
C782 H772 0.930 . S
C782 C780 1.419 . S
C782 C783 1.362 . S
C783 H773 0.930 . S
C783 C776 1.409 . S
C783 C782 1.362 . S
H784 C790 0.930 . S
H785 C793 0.930 . S
H786 C794 0.930 . S
H787 C795 0.930 . S
H788 C798 0.930 . S
H789 C799 0.930 . S
C790 H784 0.930 . S
C790 C791 1.355 . S
C790 C792 1.415 . S
C791 C790 1.355 . S
C791 C793 1.419 . S
C792 C790 1.415 . S
C792 C797 1.425 . S
C792 C799 1.409 . S
C793 H785 0.930 . S
C793 C791 1.419 . S
C793 C794 1.362 . S
C794 H786 0.930 . S
C794 C793 1.362 . S
C794 C797 1.409 . S
C795 H787 0.930 . S
C795 C796 1.355 . S
C795 C797 1.415 . S
C796 C795 1.355 . S
C796 C798 1.419 . S
C797 C792 1.425 . S
C797 C794 1.409 . S
C797 C795 1.415 . S
C798 H788 0.930 . S
C798 C796 1.419 . S
C798 C799 1.362 . S
C799 H789 0.930 . S
C799 C792 1.409 . S
C799 C798 1.362 . S
H800 C806 0.930 . S
H801 C809 0.930 . S
H802 C810 0.930 . S
H803 C811 0.930 . S
H804 C814 0.930 . S
H805 C815 0.930 . S
C806 H800 0.930 . S
C806 C807 1.355 . S
C806 C808 1.415 . S
C807 C806 1.355 . S
C807 C809 1.419 . S
C808 C806 1.415 . S
C808 C813 1.425 . S
C808 C815 1.409 . S
C809 H801 0.930 . S
C809 C807 1.419 . S
C809 C810 1.362 . S
C810 H802 0.930 . S
C810 C809 1.362 . S
C810 C813 1.409 . S
C811 H803 0.930 . S
C811 C812 1.355 . S
C811 C813 1.415 . S
C812 C811 1.355 . S
C812 C814 1.419 . S
C813 C808 1.425 . S
C813 C810 1.409 . S
C813 C811 1.415 . S
C814 H804 0.930 . S
C814 C812 1.419 . S
C814 C815 1.362 . S
C815 H805 0.930 . S
C815 C808 1.409 . S
C815 C814 1.362 . S
H816 C822 0.930 . S
H817 C825 0.930 . S
H818 C826 0.930 . S
H819 C827 0.930 . S
H820 C830 0.930 . S
H821 C831 0.930 . S
C822 H816 0.930 . S
C822 C823 1.355 . S
C822 C824 1.415 . S
C823 C822 1.355 . S
C823 C825 1.419 . S
C824 C822 1.415 . S
C824 C829 1.425 . S
C824 C831 1.409 . S
C825 H817 0.930 . S
C825 C823 1.419 . S
C825 C826 1.362 . S
C826 H818 0.930 . S
C826 C825 1.362 . S
C826 C829 1.409 . S
C827 H819 0.930 . S
C827 C828 1.355 . S
C827 C829 1.415 . S
C828 C827 1.355 . S
C828 C830 1.419 . S
C829 C824 1.425 . S
C829 C826 1.409 . S
C829 C827 1.415 . S
C830 H820 0.930 . S
C830 C828 1.419 . S
C830 C831 1.362 . S
C831 H821 0.930 . S
C831 C824 1.409 . S
C831 C830 1.362 . S
H832 C838 0.930 . S
H833 C841 0.930 . S
H834 C842 0.930 . S
H835 C843 0.930 . S
H836 C846 0.930 . S
H837 C847 0.930 . S
C838 H832 0.930 . S
C838 C839 1.355 . S
C838 C840 1.415 . S
C839 C838 1.355 . S
C839 C841 1.419 . S
C840 C838 1.415 . S
C840 C845 1.425 . S
C840 C847 1.409 . S
C841 H833 0.930 . S
C841 C839 1.419 . S
C841 C842 1.362 . S
C842 H834 0.930 . S
C842 C841 1.362 . S
C842 C845 1.409 . S
C843 H835 0.930 . S
C843 C844 1.355 . S
C843 C845 1.415 . S
C844 C843 1.355 . S
C844 C846 1.419 . S
C845 C840 1.425 . S
C845 C842 1.409 . S
C845 C843 1.415 . S
C846 H836 0.930 . S
C846 C844 1.419 . S
C846 C847 1.362 . S
C847 H837 0.930 . S
C847 C840 1.409 . S
C847 C846 1.362 . S
H848 C854 0.930 . S
H849 C857 0.930 . S
H850 C858 0.930 . S
H851 C859 0.930 . S
H852 C862 0.930 . S
H853 C863 0.930 . S
C854 H848 0.930 . S
C854 C855 1.355 . S
C854 C856 1.415 . S
C855 C854 1.355 . S
C855 C857 1.419 . S
C856 C854 1.415 . S
C856 C861 1.425 . S
C856 C863 1.409 . S
C857 H849 0.930 . S
C857 C855 1.419 . S
C857 C858 1.362 . S
C858 H850 0.930 . S
C858 C857 1.362 . S
C858 C861 1.409 . S
C859 H851 0.930 . S
C859 C860 1.355 . S
C859 C861 1.415 . S
C860 C859 1.355 . S
C860 C862 1.419 . S
C861 C856 1.425 . S
C861 C858 1.409 . S
C861 C859 1.415 . S
C862 H852 0.930 . S
C862 C860 1.419 . S
C862 C863 1.362 . S
C863 H853 0.930 . S
C863 C856 1.409 . S
C863 C862 1.362 . S
H864 C870 0.930 . S
H865 C873 0.930 . S
H866 C874 0.930 . S
H867 C875 0.930 . S
H868 C878 0.930 . S
H869 C879 0.930 . S
C870 H864 0.930 . S
C870 C871 1.355 . S
C870 C872 1.415 . S
C871 C870 1.355 . S
C871 C873 1.419 . S
C872 C870 1.415 . S
C872 C877 1.425 . S
C872 C879 1.409 . S
C873 H865 0.930 . S
C873 C871 1.419 . S
C873 C874 1.362 . S
C874 H866 0.930 . S
C874 C873 1.362 . S
C874 C877 1.409 . S
C875 H867 0.930 . S
C875 C876 1.355 . S
C875 C877 1.415 . S
C876 C875 1.355 . S
C876 C878 1.419 . S
C877 C872 1.425 . S
C877 C874 1.409 . S
C877 C875 1.415 . S
C878 H868 0.930 . S
C878 C876 1.419 . S
C878 C879 1.362 . S
C879 H869 0.930 . S
C879 C872 1.409 . S
C879 C878 1.362 . S
H880 C886 0.930 . S
H881 C889 0.930 . S
H882 C890 0.930 . S
H883 C891 0.930 . S
H884 C894 0.930 . S
H885 C895 0.930 . S
C886 H880 0.930 . S
C886 C887 1.355 . S
C886 C888 1.415 . S
C887 C886 1.355 . S
C887 C889 1.419 . S
C888 C886 1.415 . S
C888 C893 1.425 . S
C888 C895 1.409 . S
C889 H881 0.930 . S
C889 C887 1.419 . S
C889 C890 1.362 . S
C890 H882 0.930 . S
C890 C889 1.362 . S
C890 C893 1.409 . S
C891 H883 0.930 . S
C891 C892 1.355 . S
C891 C893 1.415 . S
C892 C891 1.355 . S
C892 C894 1.419 . S
C893 C888 1.425 . S
C893 C890 1.409 . S
C893 C891 1.415 . S
C894 H884 0.930 . S
C894 C892 1.419 . S
C894 C895 1.362 . S
C895 H885 0.930 . S
C895 C888 1.409 . S
C895 C894 1.362 . S
H896 C902 0.930 . S
H897 C905 0.930 . S
H898 C906 0.930 . S
H899 C907 0.930 . S
H900 C910 0.930 . S
H901 C911 0.930 . S
C902 H896 0.930 . S
C902 C903 1.355 . S
C902 C904 1.415 . S
C903 C902 1.355 . S
C903 C905 1.419 . S
C904 C902 1.415 . S
C904 C909 1.425 . S
C904 C911 1.409 . S
C905 H897 0.930 . S
C905 C903 1.419 . S
C905 C906 1.362 . S
C906 H898 0.930 . S
C906 C905 1.362 . S
C906 C909 1.409 . S
C907 H899 0.930 . S
C907 C908 1.355 . S
C907 C909 1.415 . S
C908 C907 1.355 . S
C908 C910 1.419 . S
C909 C904 1.425 . S
C909 C906 1.409 . S
C909 C907 1.415 . S
C910 H900 0.930 . S
C910 C908 1.419 . S
C910 C911 1.362 . S
C911 H901 0.930 . S
C911 C904 1.409 . S
C911 C910 1.362 . S
H912 C918 0.930 . S
H913 C921 0.930 . S
H914 C922 0.930 . S
H915 C923 0.930 . S
H916 C926 0.930 . S
H917 C927 0.930 . S
C918 H912 0.930 . S
C918 C919 1.355 . S
C918 C920 1.415 . S
C919 C918 1.355 . S
C919 C921 1.419 . S
C920 C918 1.415 . S
C920 C925 1.425 . S
C920 C927 1.409 . S
C921 H913 0.930 . S
C921 C919 1.419 . S
C921 C922 1.362 . S
C922 H914 0.930 . S
C922 C921 1.362 . S
C922 C925 1.409 . S
C923 H915 0.930 . S
C923 C924 1.355 . S
C923 C925 1.415 . S
C924 C923 1.355 . S
C924 C926 1.419 . S
C925 C920 1.425 . S
C925 C922 1.409 . S
C925 C923 1.415 . S
C926 H916 0.930 . S
C926 C924 1.419 . S
C926 C927 1.362 . S
C927 H917 0.930 . S
C927 C920 1.409 . S
C927 C926 1.362 . S
H928 C934 0.930 . S
H929 C937 0.930 . S
H930 C938 0.930 . S
H931 C939 0.930 . S
H932 C942 0.930 . S
H933 C943 0.930 . S
C934 H928 0.930 . S
C934 C935 1.355 . S
C934 C936 1.415 . S
C935 C934 1.355 . S
C935 C937 1.419 . S
C936 C934 1.415 . S
C936 C941 1.425 . S
C936 C943 1.409 . S
C937 H929 0.930 . S
C937 C935 1.419 . S
C937 C938 1.362 . S
C938 H930 0.930 . S
C938 C937 1.362 . S
C938 C941 1.409 . S
C939 H931 0.930 . S
C939 C940 1.355 . S
C939 C941 1.415 . S
C940 C939 1.355 . S
C940 C942 1.419 . S
C941 C936 1.425 . S
C941 C938 1.409 . S
C941 C939 1.415 . S
C942 H932 0.930 . S
C942 C940 1.419 . S
C942 C943 1.362 . S
C943 H933 0.930 . S
C943 C936 1.409 . S
C943 C942 1.362 . S
H944 C950 0.930 . S
H945 C953 0.930 . S
H946 C954 0.930 . S
H947 C955 0.930 . S
H948 C958 0.930 . S
H949 C959 0.930 . S
C950 H944 0.930 . S
C950 C951 1.355 . S
C950 C952 1.415 . S
C951 C950 1.355 . S
C951 C953 1.419 . S
C952 C950 1.415 . S
C952 C957 1.425 . S
C952 C959 1.409 . S
C953 H945 0.930 . S
C953 C951 1.419 . S
C953 C954 1.362 . S
C954 H946 0.930 . S
C954 C953 1.362 . S
C954 C957 1.409 . S
C955 H947 0.930 . S
C955 C956 1.355 . S
C955 C957 1.415 . S
C956 C955 1.355 . S
C956 C958 1.419 . S
C957 C952 1.425 . S
C957 C954 1.409 . S
C957 C955 1.415 . S
C958 H948 0.930 . S
C958 C956 1.419 . S
C958 C959 1.362 . S
C959 H949 0.930 . S
C959 C952 1.409 . S
C959 C958 1.362 . S
H960 C966 0.930 . S
H961 C969 0.930 . S
H962 C970 0.930 . S
H963 C971 0.930 . S
H964 C974 0.930 . S
H965 C975 0.930 . S
C966 H960 0.930 . S
C966 C967 1.355 . S
C966 C968 1.415 . S
C967 C966 1.355 . S
C967 C969 1.419 . S
C968 C966 1.415 . S
C968 C973 1.425 . S
C968 C975 1.409 . S
C969 H961 0.930 . S
C969 C967 1.419 . S
C969 C970 1.362 . S
C970 H962 0.930 . S
C970 C969 1.362 . S
C970 C973 1.409 . S
C971 H963 0.930 . S
C971 C972 1.355 . S
C971 C973 1.415 . S
C972 C971 1.355 . S
C972 C974 1.419 . S
C973 C968 1.425 . S
C973 C970 1.409 . S
C973 C971 1.415 . S
C974 H964 0.930 . S
C974 C972 1.419 . S
C974 C975 1.362 . S
C975 H965 0.930 . S
C975 C968 1.409 . S
C975 C974 1.362 . S
H976 C982 0.930 . S
H977 C985 0.930 . S
H978 C986 0.930 . S
H979 C987 0.930 . S
H980 C990 0.930 . S
H981 C991 0.930 . S
C982 H976 0.930 . S
C982 C983 1.355 . S
C982 C984 1.415 . S
C983 C982 1.355 . S
C983 C985 1.419 . S
C984 C982 1.415 . S
C984 C989 1.425 . S
C984 C991 1.409 . S
C985 H977 0.930 . S
C985 C983 1.419 . S
C985 C986 1.362 . S
C986 H978 0.930 . S
C986 C985 1.362 . S
C986 C989 1.409 . S
C987 H979 0.930 . S
C987 C988 1.355 . S
C987 C989 1.415 . S
C988 C987 1.355 . S
C988 C990 1.419 . S
C989 C984 1.425 . S
C989 C986 1.409 . S
C989 C987 1.415 . S
C990 H980 0.930 . S
C990 C988 1.419 . S
C990 C991 1.362 . S
C991 H981 0.930 . S
C991 C984 1.409 . S
C991 C990 1.362 . S
H992 C998 0.930 . S
H993 C1001 0.930 . S
H994 C1002 0.930 . S
H995 C1003 0.930 . S
H996 C1006 0.930 . S
H997 C1007 0.930 . S
C998 H992 0.930 . S
C998 C999 1.355 . S
C998 C1000 1.415 . S
C999 C998 1.355 . S
C999 C1001 1.419 . S
C1000 C998 1.415 . S
C1000 C1005 1.425 . S
C1000 C1007 1.409 . S
C1001 H993 0.930 . S
C1001 C999 1.419 . S
C1001 C1002 1.362 . S
C1002 H994 0.930 . S
C1002 C1001 1.362 . S
C1002 C1005 1.409 . S
C1003 H995 0.930 . S
C1003 C1004 1.355 . S
C1003 C1005 1.415 . S
C1004 C1003 1.355 . S
C1004 C1006 1.419 . S
C1005 C1000 1.425 . S
C1005 C1002 1.409 . S
C1005 C1003 1.415 . S
C1006 H996 0.930 . S
C1006 C1004 1.419 . S
C1006 C1007 1.362 . S
C1007 H997 0.930 . S
C1007 C1000 1.409 . S
C1007 C1006 1.362 . S
C508 C385 1.494 . S
C503 C36 1.491 . S
C524 C411 1.502 . S
C519 C93 1.502 . S
C540 C425 1.488 . S
C535 C132 1.491 . S
C556 C427 1.487 . S
C551 C174 1.502 . S
C567 C213 1.494 . S
C572 C424 1.502 . S
C588 C426 1.500 . S
C583 C285 1.498 . S
C604 C384 1.502 . S
C599 C324 1.500 . S
C620 C410 1.501 . S
C615 C366 1.481 . S
C636 C412 1.489 . S
C631 C357 1.489 . S
C652 C438 1.502 . S
C647 C222 1.502 . S
C668 C396 1.488 . S
C663 C276 1.500 . S
C684 C398 1.499 . S
C679 C333 1.487 . S
C700 C397 1.489 . S
C695 C84 1.496 . S
C716 C399 1.488 . S
C711 C141 1.502 . S
C732 C413 1.490 . S
C727 C165 1.489 . S
C748 C439 1.501 . S
C743 C45 1.481 . S
C764 C441 1.502 . S
C759 C372 1.502 . S
C775 C237 1.482 . S
C780 C467 1.493 . S
C791 C261 1.499 . S
C796 C480 1.491 . S
C807 C318 1.490 . S
C812 C483 1.499 . S
C823 C69 1.493 . S
C828 C481 1.489 . S
C839 C126 1.481 . S
C844 C482 1.499 . S
C855 C180 1.501 . S
C860 C440 1.500 . S
C876 C466 1.491 . S
C871 C30 1.496 . S
C892 C469 1.500 . S
C887 C21 1.500 . S
C903 C78 1.496 . S
C908 C494 1.494 . S
C919 C117 1.501 . S
C924 C452 1.500 . S
C935 C189 1.499 . S
C940 C454 1.488 . S
C956 C453 1.491 . S
C951 C228 1.496 . S
C972 C455 1.490 . S
C967 C270 1.488 . S
C983 C309 1.490 . S
C988 C468 1.495 . S
C1004 C495 1.491 . S
C999 C381 1.501 . S
