# Generated by pormake.
# Topology rtl, (3,6)-cn, num edge types: 1
# Building blocks:
#     Node 0, Type 0, BuildingBlock: BETDAH_clean_linker_0, # of connection points: 3
#     Node 1, Type 0, BuildingBlock: BETDAH_clean_linker_0, # of connection points: 3
#     Node 2, Type 0, BuildingBlock: BETDAH_clean_linker_0, # of connection points: 3
#     Node 3, Type 0, BuildingBlock: BETDAH_clean_linker_0, # of connection points: 3
#     Node 4, Type 1, BuildingBlock: FUNLAD_clean_sbu_0, # of connection points: 6
#     Node 5, Type 1, BuildingBlock: FUNLAD_clean_sbu_0, # of connection points: 6
#     Edge 6, Type (0, 1), BuildingBlock: XUDNAN_clean_linker_2, # of connection points: 2
#     Edge 7, Type (0, 1), BuildingBlock: XUDNAN_clean_linker_2, # of connection points: 2
#     Edge 8, Type (0, 1), BuildingBlock: XUDNAN_clean_linker_2, # of connection points: 2
#     Edge 9, Type (0, 1), BuildingBlock: XUDNAN_clean_linker_2, # of connection points: 2
#     Edge 10, Type (0, 1), BuildingBlock: XUDNAN_clean_linker_2, # of connection points: 2
#     Edge 11, Type (0, 1), BuildingBlock: XUDNAN_clean_linker_2, # of connection points: 2
#     Edge 12, Type (0, 1), BuildingBlock: XUDNAN_clean_linker_2, # of connection points: 2
#     Edge 13, Type (0, 1), BuildingBlock: XUDNAN_clean_linker_2, # of connection points: 2
#     Edge 14, Type (0, 1), BuildingBlock: XUDNAN_clean_linker_2, # of connection points: 2
#     Edge 15, Type (0, 1), BuildingBlock: XUDNAN_clean_linker_2, # of connection points: 2
#     Edge 16, Type (0, 1), BuildingBlock: XUDNAN_clean_linker_2, # of connection points: 2
#     Edge 17, Type (0, 1), BuildingBlock: XUDNAN_clean_linker_2, # of connection points: 2
# Relax obj value: 0.003
# Max RMSD: 0.041
# Mean RMSD: 0.027
data_MOF--net-rtl--node1-FUNLAD_clean_sbu_0--node2-BETDAH_clean_linker_0--edge1-XUDNAN_clean_linker_2
_symmetry_space_group_name_H-M    P1
_symmetry_Int_Tables_number       1
_symmetry_cell_setting            triclinic
loop_
_symmetry_equiv_pos_as_xyz
'x, y, z'
_cell_length_a     39.952555
_cell_length_b     40.104932
_cell_length_c     20.910991
_cell_angle_alpha  90.930369
_cell_angle_beta   92.084816
_cell_angle_gamma 89.935637
loop_
_atom_site_label
_atom_site_type_symbol
_atom_site_fract_x
_atom_site_fract_y
_atom_site_fract_z
_atom_type_partial_charge
H0 H 0.14644 0.90033 0.97044 0.0
H1 H 0.19228 0.81172 0.04869 0.0
H2 H 0.19039 0.82804 0.84566 0.0
C3 C 0.16036 0.87734 0.96436 0.0
C4 C 0.16818 0.86684 0.90257 0.0
C5 C 0.16837 0.85743 0.01749 0.0
C6 C 0.18592 0.82728 0.00817 0.0
C7 C 0.19419 0.81682 0.94601 0.0
C8 C 0.18455 0.83637 0.89357 0.0
N9 N 0.21092 0.78627 0.93367 0.0
C10 C 0.2315 0.76944 0.97746 0.0
H11 H 0.62975 0.6355 0.58713 0.0
H12 H 0.69379 0.70693 0.50042 0.0
H13 H 0.67419 0.71515 0.70093 0.0
C14 C 0.64597 0.65715 0.59145 0.0
C15 C 0.6508 0.67325 0.65101 0.0
C16 C 0.66108 0.6693 0.53689 0.0
C17 C 0.68231 0.69729 0.54247 0.0
C18 C 0.68675 0.714 0.60194 0.0
C19 C 0.67069 0.70206 0.65541 0.0
N20 N 0.70525 0.74408 0.60937 0.0
C21 C 0.73298 0.7525 0.57476 0.0
H22 H 0.88801 0.11604 0.9582 0.0
H23 H 0.80903 0.17511 0.03858 0.0
H24 H 0.82461 0.17599 0.83625 0.0
C25 C 0.86674 0.13267 0.95216 0.0
C26 C 0.85842 0.14478 0.89118 0.0
C27 C 0.84924 0.14356 0.00588 0.0
C28 C 0.82271 0.16659 0.99763 0.0
C29 C 0.81354 0.17788 0.93598 0.0
C30 C 0.83148 0.16687 0.88347 0.0
N31 N 0.78617 0.19977 0.92381 0.0
C32 C 0.77154 0.22096 0.96806 0.0
H33 H 0.39184 0.39906 0.56542 0.0
H34 H 0.32007 0.34369 0.66874 0.0
H35 H 0.32092 0.33483 0.46354 0.0
C36 C 0.37048 0.38239 0.56552 0.0
C37 C 0.35757 0.36859 0.50748 0.0
C38 C 0.35756 0.37298 0.62392 0.0
C39 C 0.33047 0.35086 0.62378 0.0
C40 C 0.31694 0.33716 0.56663 0.0
C41 C 0.33086 0.34562 0.5081 0.0
N42 N 0.2895 0.31499 0.57127 0.0
C43 C 0.2751 0.29525 0.52249 0.0
C44 C 0.04793 0.97117 0.35676 0.0
N45 N 0.06939 0.06764 0.43123 0.0
C46 C 0.10269 0.06056 0.42983 0.0
C47 C 0.12612 0.08616 0.42439 0.0
C48 C 0.11521 0.1194 0.41991 0.0
C49 C 0.08066 0.1259 0.4207 0.0
C50 C 0.05813 0.09959 0.42662 0.0
Zn51 Zn 0.03544 0.02977 0.44203 0.0
C52 C 0.97456 0.03862 0.3576 0.0
N53 N 0.96425 0.95091 0.46607 0.0
C54 C 0.97541 0.91889 0.46241 0.0
C55 C 0.93159 0.95767 0.47747 0.0
C56 C 0.9089 0.93172 0.48654 0.0
C57 C 0.9197 0.89832 0.48292 0.0
C58 C 0.9535 0.89224 0.46993 0.0
Zn59 Zn 0.99797 0.9891 0.45491 0.0
O60 O 0.05925 1.00017 0.37051 0.0
C61 C 0.05866 0.98201 0.54159 0.0
O62 O 0.022 0.96094 0.38386 0.0
H63 H 0.92312 0.98326 0.4802 0.0
H64 H 0.11116 0.03501 0.43339 0.0
H65 H 1.00146 0.91388 0.45376 0.0
O66 O 0.06684 0.00846 0.5134 0.0
O67 O 0.03091 0.96793 0.52621 0.0
H68 H 0.0316 0.10477 0.42822 0.0
O69 O 0.97508 0.01793 0.52716 0.0
O70 O 0.01122 0.05821 0.51343 0.0
O71 O 0.96545 0.01165 0.3832 0.0
O72 O 1.00306 0.05102 0.37262 0.0
C73 C 0.98614 0.04686 0.54187 0.0
H74 H 0.1525 0.07999 0.42348 0.0
H75 H 0.07114 0.15116 0.41835 0.0
H76 H 0.88336 0.93795 0.49749 0.0
H77 H 0.96311 0.86712 0.46529 0.0
C78 C 0.47967 0.47781 0.98967 0.0
N79 N 0.57429 0.4565 0.07138 0.0
C80 C 0.56513 0.4238 0.0694 0.0
C81 C 0.58933 0.39867 0.06705 0.0
C82 C 0.62345 0.40711 0.06689 0.0
C83 C 0.6322 0.44109 0.06859 0.0
C84 C 0.60713 0.46546 0.07074 0.0
Zn85 Zn 0.53742 0.49221 0.07853 0.0
C86 C 0.5461 0.55019 0.99435 0.0
N87 N 0.45937 0.56516 0.09747 0.0
C88 C 0.42664 0.55569 0.0937 0.0
C89 C 0.468 0.59793 0.10339 0.0
C90 C 0.4433 0.62263 0.1047 0.0
C91 C 0.40931 0.61364 0.09954 0.0
C92 C 0.40114 0.5796 0.09449 0.0
Zn93 Zn 0.49642 0.52974 0.0902 0.0
O94 O 0.50821 0.46708 0.00826 0.0
C95 C 0.48661 0.47252 0.17443 0.0
O96 O 0.46815 0.50451 0.01424 0.0
H97 H 0.49413 0.60501 0.1059 0.0
H98 H 0.53894 0.41709 0.07033 0.0
H99 H 0.42027 0.52953 0.08919 0.0
O100 O 0.51388 0.46334 0.1498 0.0
O101 O 0.4734 0.5001 0.15828 0.0
H102 H 0.61393 0.49157 0.07231 0.0
O103 O 0.5258 0.55395 0.16498 0.0
O104 O 0.56642 0.51807 0.14961 0.0
O105 O 0.51989 0.55891 0.02285 0.0
O106 O 0.55951 0.52203 0.00649 0.0
C107 C 0.55534 0.54366 0.17857 0.0
H108 H 0.58137 0.37286 0.06659 0.0
H109 H 0.65814 0.4488 0.06771 0.0
H110 H 0.45081 0.64856 0.10782 0.0
H111 H 0.37527 0.5715 0.09109 0.0
H112 H 0.26956 0.23018 0.54653 0.0
H113 H 0.23424 0.3076 0.41901 0.0
H114 H 0.19229 0.26841 0.36975 0.0
H115 H 0.2554 0.15771 0.4332 0.0
H116 H 0.242 0.13143 0.49653 0.0
H117 H 0.27246 0.1638 0.51354 0.0
H118 H 0.23481 0.18824 0.60111 0.0
H119 H 0.20413 0.15626 0.58397 0.0
H120 H 0.19215 0.19955 0.58025 0.0
H121 H 0.14964 0.22294 0.34512 0.0
H122 H 0.11105 0.17476 0.34431 0.0
H123 H 0.17418 0.12749 0.4897 0.0
C124 C 0.25378 0.23835 0.50653 0.0
C125 C 0.25537 0.2714 0.48514 0.0
C126 C 0.23369 0.28199 0.43467 0.0
C127 C 0.2098 0.25995 0.40672 0.0
C128 C 0.20815 0.22756 0.43005 0.0
C129 C 0.22984 0.21671 0.47843 0.0
C130 C 0.22104 0.18186 0.49908 0.0
C131 C 0.24941 0.15724 0.48471 0.0
C132 C 0.21252 0.18149 0.5703 0.0
C133 C 0.19038 0.1751 0.45625 0.0
C134 C 0.18349 0.20159 0.41633 0.0
C135 C 0.15511 0.20188 0.37551 0.0
C136 C 0.13319 0.17452 0.37574 0.0
C137 C 0.13966 0.14725 0.41669 0.0
C138 C 0.16889 0.14757 0.45682 0.0
H139 H 0.24839 0.70609 0.95044 0.0
H140 H 0.27 0.78875 0.08109 0.0
H141 H 0.31622 0.75615 0.13267 0.0
H142 H 0.2679 0.63842 0.0638 0.0
H143 H 0.28629 0.61259 0.00308 0.0
H144 H 0.25312 0.64123 0.98157 0.0
H145 H 0.29098 0.66816 0.89864 0.0
H146 H 0.32428 0.63978 0.9201 0.0
H147 H 0.33152 0.68412 0.92439 0.0
H148 H 0.36302 0.71588 0.16319 0.0
H149 H 0.40562 0.67124 0.17209 0.0
H150 H 0.35315 0.61531 0.02007 0.0
C151 C 0.26242 0.7169 0.99096 0.0
C152 C 0.25565 0.74953 0.01283 0.0
C153 C 0.27477 0.76349 0.06466 0.0
C154 C 0.301 0.74519 0.09398 0.0
C155 C 0.30753 0.71307 0.07067 0.0
C156 C 0.28859 0.69899 0.02056 0.0
C157 C 0.3018 0.66491 0.00195 0.0
C158 C 0.27572 0.63768 0.0133 0.0
C159 C 0.3128 0.66423 0.93215 0.0
C160 C 0.33154 0.66218 0.0485 0.0
C161 C 0.33437 0.69009 0.088 0.0
C162 C 0.36083 0.6938 0.13289 0.0
C163 C 0.38503 0.66841 0.13731 0.0
C164 C 0.38269 0.63967 0.09701 0.0
C165 C 0.35535 0.6366 0.05247 0.0
H166 H 0.74163 0.80841 0.50622 0.0
H167 H 0.79406 0.72593 0.59592 0.0
H168 H 0.84841 0.7526 0.57507 0.0
H169 H 0.8049 0.82425 0.38165 0.0
H170 H 0.79896 0.86875 0.38722 0.0
H171 H 0.76466 0.84103 0.40168 0.0
H172 H 0.75753 0.86943 0.51249 0.0
H173 H 0.79208 0.89683 0.4989 0.0
H174 H 0.79269 0.87125 0.569 0.0
H175 H 0.89597 0.79169 0.55828 0.0
H176 H 0.93424 0.83807 0.5391 0.0
H177 H 0.85144 0.89443 0.45402 0.0
C178 C 0.76468 0.79555 0.51928 0.0
C179 C 0.76405 0.76493 0.55143 0.0
C180 C 0.79436 0.74912 0.57004 0.0
C181 C 0.82523 0.76414 0.55863 0.0
C182 C 0.82518 0.79486 0.52826 0.0
C183 C 0.79573 0.81017 0.50785 0.0
C184 C 0.80261 0.84403 0.4798 0.0
C185 C 0.79217 0.84453 0.40834 0.0
C186 C 0.78519 0.87202 0.51731 0.0
C187 C 0.84036 0.84583 0.48955 0.0
C188 C 0.85285 0.81717 0.51736 0.0
C189 C 0.88661 0.8139 0.53495 0.0
C190 C 0.90826 0.84046 0.52342 0.0
C191 C 0.89626 0.87005 0.49399 0.0
C192 C 0.86171 0.87243 0.47673 0.0
H193 H 0.70767 0.23839 0.943 0.0
H194 H 0.79512 0.26266 0.06295 0.0
H195 H 0.76556 0.31218 0.10646 0.0
H196 H 0.68789 0.31995 0.89992 0.0
H197 H 0.6431 0.31467 0.9001 0.0
H198 H 0.66961 0.27941 0.88433 0.0
H199 H 0.64382 0.2474 0.97726 0.0
H200 H 0.61692 0.28247 0.99293 0.0
H201 H 0.64388 0.26629 0.0561 0.0
H202 H 0.72762 0.36162 0.12933 0.0
H203 H 0.68414 0.40545 0.1333 0.0
H204 H 0.62212 0.34875 0.99603 0.0
C205 C 0.72014 0.2537 0.97978 0.0
C206 C 0.75325 0.24671 0.00086 0.0
C207 C 0.76944 0.26754 0.04741 0.0
C208 C 0.75289 0.29569 0.07204 0.0
C209 C 0.72029 0.30242 0.04932 0.0
C210 C 0.70402 0.2818 0.00458 0.0
C211 C 0.66983 0.29542 0.98514 0.0
C212 C 0.6675 0.3028 0.91311 0.0
C213 C 0.64197 0.27147 0.00401 0.0
C214 C 0.66952 0.32724 0.02504 0.0
C215 C 0.69875 0.33082 0.06195 0.0
C216 C 0.70456 0.3589 0.10096 0.0
C217 C 0.67982 0.38382 0.10247 0.0
C218 C 0.64962 0.3806 0.0651 0.0
C219 C 0.64461 0.35179 0.02604 0.0
H220 H 0.16866 0.91947 0.0754 0.0
H221 H 0.13645 0.81738 0.10039 0.0
H222 H 0.10495 0.83511 0.19451 0.0
H223 H 0.17496 0.94288 0.24903 0.0
H224 H 0.15948 0.98438 0.23427 0.0
H225 H 0.18319 0.96284 0.17459 0.0
H226 H 0.13455 0.97176 0.09129 0.0
H227 H 0.11049 0.99283 0.1508 0.0
H228 H 0.09319 0.95707 0.10805 0.0
H229 H 0.07065 0.86491 0.27521 0.0
H230 H 0.04055 0.90377 0.34523 0.0
H231 H 0.09554 0.98684 0.26976 0.0
C232 C 0.1556 0.90073 0.10163 0.0
C233 C 0.15512 0.86698 0.08072 0.0
C234 C 0.13766 0.84322 0.11612 0.0
C235 C 0.11947 0.85312 0.16935 0.0
C236 C 0.11935 0.8868 0.18702 0.0
C237 C 0.13746 0.91017 0.15501 0.0
C238 C 0.13168 0.94504 0.18163 0.0
C239 C 0.16427 0.95964 0.21168 0.0
C240 C 0.11657 0.96801 0.12985 0.0
C241 C 0.10662 0.93776 0.23224 0.0
C242 C 0.09993 0.90399 0.23456 0.0
C243 C 0.07611 0.89133 0.2746 0.0
C244 C 0.05895 0.91368 0.31385 0.0
C245 C 0.06574 0.94837 0.31312 0.0
C246 C 0.09002 0.96045 0.27182 0.0
H247 H 0.64835 0.60875 0.69303 0.0
H248 H 0.61529 0.70936 0.73711 0.0
H249 H 0.58631 0.68863 0.8309 0.0
H250 H 0.57348 0.56687 0.73615 0.0
H251 H 0.595 0.53161 0.77079 0.0
H252 H 0.61372 0.55433 0.70768 0.0
H253 H 0.66695 0.56425 0.77991 0.0
H254 H 0.64838 0.54157 0.8433 0.0
H255 H 0.66313 0.58358 0.85775 0.0
H256 H 0.55898 0.65715 0.91594 0.0
H257 H 0.53648 0.6171 0.99116 0.0
H258 H 0.58854 0.53643 0.89557 0.0
C259 C 0.63497 0.62635 0.72251 0.0
C260 C 0.63406 0.66068 0.70799 0.0
C261 C 0.61657 0.68305 0.74784 0.0
C262 C 0.59995 0.67148 0.80098 0.0
C263 C 0.60129 0.63753 0.81392 0.0
C264 C 0.6185 0.61526 0.77621 0.0
C265 C 0.61596 0.58003 0.80104 0.0
C266 C 0.59849 0.55685 0.75093 0.0
C267 C 0.65068 0.56657 0.82174 0.0
C268 C 0.59431 0.58595 0.85822 0.0
C269 C 0.5861 0.61933 0.8644 0.0
C270 C 0.56543 0.631 0.91193 0.0
C271 C 0.55269 0.60799 0.95429 0.0
C272 C 0.56084 0.57364 0.94935 0.0
C273 C 0.58217 0.56256 0.90089 0.0
H274 H 0.86455 0.07981 0.04316 0.0
H275 H 0.86108 0.1821 0.11323 0.0
H276 H 0.88836 0.16489 0.21543 0.0
H277 H 0.85079 0.03997 0.2006 0.0
H278 H 0.87899 0.00613 0.18349 0.0
H279 H 0.85548 0.02576 0.11918 0.0
H280 H 0.9107 0.03773 0.06257 0.0
H281 H 0.93438 0.01847 0.12682 0.0
H282 H 0.94358 0.06068 0.10497 0.0
H283 H 0.92368 0.13861 0.30159 0.0
H284 H 0.95985 0.10378 0.37177 0.0
H285 H 0.93802 0.01744 0.25013 0.0
C286 C 0.8689 0.09842 0.08064 0.0
C287 C 0.86062 0.13231 0.07044 0.0
C288 C 0.86678 0.15598 0.12038 0.0
C289 C 0.88241 0.14645 0.17843 0.0
C290 C 0.89118 0.11304 0.18617 0.0
C291 C 0.88411 0.08923 0.13916 0.0
C292 C 0.89768 0.05532 0.1584 0.0
C293 C 0.86902 0.03032 0.16587 0.0
C294 C 0.92309 0.0423 0.11033 0.0
C295 C 0.91462 0.06402 0.22255 0.0
C296 C 0.91051 0.09749 0.23753 0.0
C297 C 0.92638 0.11224 0.29119 0.0
C298 C 0.94698 0.09235 0.33051 0.0
C299 C 0.95121 0.05798 0.31659 0.0
C300 C 0.93447 0.04351 0.26244 0.0
H301 H 0.37393 0.43674 0.66539 0.0
H302 H 0.37911 0.33293 0.72012 0.0
H303 H 0.40874 0.34915 0.8214 0.0
H304 H 0.45435 0.46101 0.72953 0.0
H305 H 0.44118 0.50141 0.7581 0.0
H306 H 0.41952 0.48195 0.69032 0.0
H307 H 0.3634 0.48732 0.74788 0.0
H308 H 0.3849 0.5068 0.81592 0.0
H309 H 0.35983 0.47008 0.82644 0.0
H310 H 0.44132 0.37541 0.91143 0.0
H311 H 0.47219 0.41111 0.99055 0.0
H312 H 0.44305 0.4989 0.88359 0.0
C313 C 0.38121 0.41756 0.69903 0.0
C314 C 0.37419 0.38359 0.68531 0.0
C315 C 0.38396 0.35909 0.73023 0.0
C316 C 0.40087 0.36805 0.78769 0.0
C317 C 0.40745 0.40167 0.79988 0.0
C318 C 0.39767 0.42615 0.75737 0.0
C319 C 0.40803 0.46045 0.78269 0.0
C320 C 0.43221 0.47718 0.73747 0.0
C321 C 0.3772 0.48246 0.7939 0.0
C322 C 0.42563 0.45126 0.84549 0.0
C323 C 0.42512 0.41714 0.85399 0.0
C324 C 0.44148 0.40219 0.90594 0.0
C325 C 0.45899 0.42261 0.95044 0.0
C326 C 0.45954 0.45761 0.9433 0.0
C327 C 0.44235 0.47221 0.89059 0.0
H328 H 0.59932 0.66251 0.47959 0.0
H329 H 0.70398 0.63913 0.45483 0.0
H330 H 0.68851 0.60576 0.35714 0.0
H331 H 0.56616 0.58492 0.43458 0.0
H332 H 0.52952 0.60081 0.39241 0.0
H333 H 0.54905 0.62491 0.45679 0.0
H334 H 0.55551 0.67498 0.38143 0.0
H335 H 0.53562 0.65116 0.31688 0.0
H336 H 0.57643 0.6691 0.30713 0.0
H337 H 0.66062 0.57021 0.26965 0.0
H338 H 0.62345 0.53963 0.19225 0.0
H339 H 0.537 0.58865 0.27154 0.0
C340 C 0.61897 0.65081 0.45276 0.0
C341 C 0.65281 0.65325 0.47419 0.0
C342 C 0.67798 0.63766 0.43849 0.0
C343 C 0.66937 0.61862 0.38331 0.0
C344 C 0.63559 0.61601 0.36426 0.0
C345 C 0.61086 0.63221 0.39728 0.0
C346 C 0.57639 0.62495 0.36773 0.0
C347 C 0.55398 0.60788 0.41575 0.0
C348 C 0.56003 0.65695 0.34174 0.0
C349 C 0.58543 0.60132 0.31392 0.0
C350 C 0.61968 0.59644 0.31277 0.0
C351 C 0.63383 0.57425 0.26952 0.0
C352 C 0.61247 0.55685 0.226 0.0
C353 C 0.57733 0.56187 0.22568 0.0
C354 C 0.56377 0.58454 0.27017 0.0
H355 H 0.87403 0.08244 0.84496 0.0
H356 H 0.88932 0.18784 0.81364 0.0
H357 H 0.92468 0.17424 0.7221 0.0
H358 H 0.95647 0.05427 0.8037 0.0
H359 H 0.94157 0.01681 0.7633 0.0
H360 H 0.91835 0.03479 0.8276 0.0
H361 H 0.86527 0.03754 0.75288 0.0
H362 H 0.88831 0.01955 0.68838 0.0
H363 H 0.8671 0.05889 0.67787 0.0
H364 H 0.9595 0.14925 0.6363 0.0
H365 H 0.988 0.1146 0.55603 0.0
H366 H 0.94728 0.0254 0.63855 0.0
C367 C 0.88498 0.10254 0.81879 0.0
C368 C 0.87915 0.13616 0.8361 0.0
C369 C 0.89347 0.16194 0.80066 0.0
C370 C 0.91365 0.15446 0.74891 0.0
C371 C 0.91891 0.12106 0.73285 0.0
C372 C 0.90473 0.0955 0.76623 0.0
C373 C 0.91337 0.06179 0.73748 0.0
C374 C 0.93365 0.04068 0.78591 0.0
C375 C 0.88162 0.04337 0.71267 0.0
C376 C 0.93467 0.07241 0.68288 0.0
C377 C 0.93786 0.10669 0.68157 0.0
C378 C 0.95702 0.12239 0.63654 0.0
C379 C 0.97319 0.10252 0.59131 0.0
C380 C 0.96968 0.06739 0.5909 0.0
C381 C 0.95014 0.05223 0.63736 0.0
H382 H 0.36695 0.43059 0.4595 0.0
H383 H 0.3861 0.32584 0.42234 0.0
H384 H 0.42106 0.34076 0.33147 0.0
H385 H 0.3623 0.45529 0.28996 0.0
H386 H 0.38193 0.495 0.30748 0.0
H387 H 0.35698 0.47557 0.3665 0.0
H388 H 0.40724 0.4792 0.44823 0.0
H389 H 0.4325 0.49816 0.38925 0.0
H390 H 0.44671 0.46066 0.42814 0.0
H391 H 0.45898 0.36792 0.2526 0.0
H392 H 0.49059 0.40457 0.18217 0.0
H393 H 0.44357 0.49132 0.26715 0.0
C394 C 0.378 0.41084 0.43129 0.0
C395 C 0.37385 0.37708 0.44741 0.0
C396 C 0.38874 0.3518 0.40999 0.0
C397 C 0.40878 0.36008 0.35873 0.0
C398 C 0.41313 0.39372 0.34507 0.0
C399 C 0.39754 0.41865 0.37943 0.0
C400 C 0.40636 0.45285 0.35545 0.0
C401 C 0.37503 0.47072 0.32822 0.0
C402 C 0.42427 0.47394 0.40843 0.0
C403 C 0.42993 0.44337 0.30311 0.0
C404 C 0.43378 0.40917 0.29815 0.0
C405 C 0.45575 0.39469 0.25541 0.0
C406 C 0.47377 0.41569 0.21599 0.0
C407 C 0.46936 0.45071 0.21905 0.0
C408 C 0.44717 0.46459 0.26332 0.0
H409 H 0.12101 0.8528 0.80832 0.0
H410 H 0.19242 0.92793 0.87512 0.0
H411 H 0.17417 0.96444 0.78591 0.0
H412 H 0.12687 0.86668 0.63661 0.0
H413 H 0.08262 0.86085 0.62043 0.0
H414 H 0.10327 0.8396 0.68612 0.0
H415 H 0.06092 0.86523 0.76404 0.0
H416 H 0.04021 0.88659 0.69867 0.0
H417 H 0.0557 0.90986 0.76802 0.0
H418 H 0.14752 0.99286 0.69144 0.0
H419 H 0.11196 0.01331 0.6016 0.0
H420 H 0.0553 0.92091 0.59928 0.0
C421 C 0.13306 0.87674 0.80323 0.0
C422 C 0.15839 0.88761 0.84747 0.0
C423 C 0.17318 0.9193 0.84095 0.0
C424 C 0.16301 0.94006 0.79056 0.0
C425 C 0.13777 0.9288 0.74778 0.0
C426 C 0.12279 0.898 0.7538 0.0
C427 C 0.09472 0.89286 0.70388 0.0
C428 C 0.10234 0.86324 0.65911 0.0
C429 C 0.06089 0.88838 0.73556 0.0
C430 C 0.09614 0.92564 0.66909 0.0
C431 C 0.12143 0.9458 0.69474 0.0
C432 C 0.12765 0.97731 0.6709 0.0
C433 C 0.10732 0.98867 0.61977 0.0
C434 C 0.08079 0.96875 0.59346 0.0
C435 C 0.07531 0.93675 0.61844 0.0
loop_
_geom_bond_atom_site_label_1
_geom_bond_atom_site_label_2
_geom_bond_distance
_geom_bond_site_symmetry_2
_ccdc_geom_bond_type
H0 C3 0.929 . S
H1 C6 0.929 . S
H2 C8 0.930 . S
C3 H0 0.929 . S
C3 C4 1.398 1_554 S
C3 C5 1.396 . S
C4 C3 1.398 1_556 S
C4 C8 1.407 . S
C5 C3 1.396 . S
C5 C6 1.394 . S
C6 H1 0.929 . S
C6 C5 1.394 . S
C6 C7 1.382 . S
C7 C6 1.382 . S
C7 C8 1.392 1_554 S
C7 N9 1.420 1_554 S
C8 H2 0.930 . S
C8 C4 1.407 . S
C8 C7 1.392 1_556 S
N9 C7 1.420 1_556 S
N9 C10 1.244 1_556 S
C10 N9 1.244 1_554 S
H11 C14 0.929 . S
H12 C17 0.929 . S
H13 C19 0.930 . S
C14 H11 0.929 . S
C14 C15 1.398 . S
C14 C16 1.396 . S
C15 C14 1.398 . S
C15 C19 1.407 . S
C16 C14 1.396 . S
C16 C17 1.394 . S
C17 H12 0.929 . S
C17 C16 1.394 . S
C17 C18 1.382 . S
C18 C17 1.382 . S
C18 C19 1.392 . S
C18 N20 1.420 . S
C19 H13 0.930 . S
C19 C15 1.407 . S
C19 C18 1.392 . S
N20 C18 1.420 . S
N20 C21 1.244 . S
C21 N20 1.244 . S
H22 C25 0.929 . S
H23 C28 0.929 . S
H24 C30 0.930 . S
C25 H22 0.929 . S
C25 C26 1.398 1_554 S
C25 C27 1.396 . S
C26 C25 1.398 1_556 S
C26 C30 1.407 . S
C27 C25 1.396 . S
C27 C28 1.394 . S
C28 H23 0.929 . S
C28 C27 1.394 . S
C28 C29 1.382 1_554 S
C29 C28 1.382 1_556 S
C29 C30 1.392 . S
C29 N31 1.420 . S
C30 H24 0.930 . S
C30 C26 1.407 . S
C30 C29 1.392 . S
N31 C29 1.420 . S
N31 C32 1.244 1_556 S
C32 N31 1.244 1_554 S
H33 C36 0.929 . S
H34 C39 0.929 . S
H35 C41 0.930 . S
C36 H33 0.929 . S
C36 C37 1.398 . S
C36 C38 1.396 . S
C37 C36 1.398 . S
C37 C41 1.407 . S
C38 C36 1.396 . S
C38 C39 1.394 . S
C39 H34 0.929 . S
C39 C38 1.394 . S
C39 C40 1.382 . S
C40 C39 1.382 . S
C40 C41 1.392 . S
C40 N42 1.420 . S
C41 H35 0.930 . S
C41 C37 1.407 . S
C41 C40 1.392 . S
N42 C40 1.420 . S
N42 C43 1.244 . S
C43 N42 1.244 . S
C44 O60 1.230 1_565 S
C44 O62 1.254 . S
N45 C46 1.333 . S
N45 C50 1.307 . S
N45 Zn51 2.020 . S
C46 N45 1.333 . S
C46 C47 1.379 . S
C46 H64 0.952 . S
C47 C46 1.379 . S
C47 C48 1.390 . S
C47 H74 0.949 . S
C48 C47 1.390 . S
C48 C49 1.357 . S
C49 C48 1.357 . S
C49 C50 1.370 . S
C49 H75 0.950 . S
C50 N45 1.307 . S
C50 C49 1.370 . S
C50 H68 0.948 . S
Zn51 N45 2.020 . S
Zn51 O60 2.053 . S
Zn51 O66 2.034 1_545 S
Zn51 O70 2.025 1_455 S
Zn51 O72 2.024 1_455 S
C52 O71 1.246 . S
C52 O72 1.249 . S
N53 C54 1.307 . S
N53 C55 1.333 . S
N53 Zn59 2.020 . S
C54 N53 1.307 . S
C54 C58 1.370 . S
C54 H65 0.948 . S
C55 N53 1.333 . S
C55 C56 1.379 . S
C55 H63 0.952 . S
C56 C55 1.379 . S
C56 C57 1.390 . S
C56 H76 0.949 . S
C57 C56 1.390 . S
C57 C58 1.357 . S
C58 C54 1.370 . S
C58 C57 1.357 . S
C58 H77 0.950 . S
Zn59 N53 2.020 . S
Zn59 O62 2.025 1_655 S
Zn59 O67 2.024 1_655 S
Zn59 O69 2.039 1_565 S
Zn59 O71 2.034 1_565 S
O60 C44 1.230 1_545 S
O60 Zn51 2.053 . S
C61 O66 1.246 . S
C61 O67 1.249 . S
O62 C44 1.254 . S
O62 Zn59 2.025 1_455 S
H63 C55 0.952 . S
H64 C46 0.952 . S
H65 C54 0.948 . S
O66 Zn51 2.034 1_565 S
O66 C61 1.246 . S
O67 Zn59 2.024 1_455 S
O67 C61 1.249 . S
H68 C50 0.948 . S
O69 Zn59 2.039 1_545 S
O69 C73 1.251 . S
O70 Zn51 2.025 1_655 S
O70 C73 1.254 . S
O71 C52 1.246 . S
O71 Zn59 2.034 1_545 S
O72 Zn51 2.024 1_655 S
O72 C52 1.249 . S
C73 O69 1.251 . S
C73 O70 1.254 . S
H74 C47 0.949 . S
H75 C49 0.950 . S
H76 C56 0.949 . S
H77 C58 0.950 . S
C78 O94 1.251 . S
C78 O96 1.254 . S
N79 C80 1.333 . S
N79 C84 1.307 . S
N79 Zn85 2.020 . S
C80 N79 1.333 . S
C80 C81 1.379 . S
C80 H98 0.952 1_554 S
C81 C80 1.379 . S
C81 C82 1.390 . S
C81 H108 0.949 1_554 S
C82 C81 1.390 . S
C82 C83 1.357 . S
C83 C82 1.357 . S
C83 C84 1.370 . S
C83 H109 0.950 . S
C84 N79 1.307 . S
C84 C83 1.370 . S
C84 H102 0.948 . S
Zn85 N79 2.020 . S
Zn85 O94 2.039 1_554 S
Zn85 O100 2.034 . S
Zn85 O104 2.025 . S
Zn85 O106 2.024 1_554 S
C86 O105 1.246 . S
C86 O106 1.249 . S
N87 C88 1.307 . S
N87 C89 1.333 . S
N87 Zn93 2.020 . S
C88 N87 1.307 . S
C88 C92 1.370 . S
C88 H99 0.948 1_554 S
C89 N87 1.333 . S
C89 C90 1.379 . S
C89 H97 0.952 . S
C90 C89 1.379 . S
C90 C91 1.390 . S
C90 H110 0.949 . S
C91 C90 1.390 . S
C91 C92 1.357 . S
C92 C88 1.370 . S
C92 C91 1.357 . S
C92 H111 0.950 1_554 S
Zn93 N87 2.020 . S
Zn93 O96 2.025 1_554 S
Zn93 O101 2.024 . S
Zn93 O103 2.039 . S
Zn93 O105 2.034 1_554 S
O94 C78 1.251 . S
O94 Zn85 2.039 1_556 S
C95 O100 1.246 . S
C95 O101 1.249 . S
O96 C78 1.254 . S
O96 Zn93 2.025 1_556 S
H97 C89 0.952 . S
H98 C80 0.952 1_556 S
H99 C88 0.948 1_556 S
O100 Zn85 2.034 . S
O100 C95 1.246 . S
O101 Zn93 2.024 . S
O101 C95 1.249 . S
H102 C84 0.948 . S
O103 Zn93 2.039 . S
O103 C107 1.251 . S
O104 Zn85 2.025 . S
O104 C107 1.254 . S
O105 C86 1.246 . S
O105 Zn93 2.034 1_556 S
O106 Zn85 2.024 1_556 S
O106 C86 1.249 . S
C107 O103 1.251 . S
C107 O104 1.254 . S
H108 C81 0.949 1_556 S
H109 C83 0.950 . S
H110 C90 0.949 . S
H111 C92 0.950 1_556 S
H112 C124 0.930 . S
H113 C126 0.930 . S
H114 C127 0.930 . S
H115 C131 0.959 . S
H116 C131 0.959 . S
H117 C131 0.961 . S
H118 C132 0.960 . S
H119 C132 0.961 . S
H120 C132 0.959 . S
H121 C135 0.929 . S
H122 C136 0.931 . S
H123 C138 0.930 . S
C124 H112 0.930 . S
C124 C125 1.399 . S
C124 C129 1.399 . S
C125 C124 1.399 . S
C125 C126 1.376 . S
C126 H113 0.930 . S
C126 C125 1.376 . S
C126 C127 1.388 . S
C127 H114 0.930 . S
C127 C126 1.388 . S
C127 C128 1.390 . S
C128 C127 1.390 . S
C128 C129 1.394 . S
C128 C134 1.465 . S
C129 C124 1.399 . S
C129 C128 1.394 . S
C129 C130 1.516 . S
C130 C129 1.516 . S
C130 C131 1.502 . S
C130 C132 1.561 . S
C130 C133 1.526 . S
C131 H115 0.959 . S
C131 H116 0.959 . S
C131 H117 0.961 . S
C131 C130 1.502 . S
C132 H118 0.960 . S
C132 H119 0.961 . S
C132 H120 0.959 . S
C132 C130 1.561 . S
C133 C130 1.526 . S
C133 C134 1.396 . S
C133 C138 1.390 . S
C134 C128 1.465 . S
C134 C133 1.396 . S
C134 C135 1.399 . S
C135 H121 0.929 . S
C135 C134 1.399 . S
C135 C136 1.385 . S
C136 H122 0.931 . S
C136 C135 1.385 . S
C136 C137 1.389 . S
C137 C136 1.389 . S
C137 C138 1.387 . S
C138 H123 0.930 . S
C138 C133 1.390 . S
C138 C137 1.387 . S
H139 C151 0.930 . S
H140 C153 0.930 . S
H141 C154 0.930 . S
H142 C158 0.959 . S
H143 C158 0.959 . S
H144 C158 0.961 . S
H145 C159 0.960 . S
H146 C159 0.961 . S
H147 C159 0.959 . S
H148 C162 0.929 . S
H149 C163 0.931 . S
H150 C165 0.930 . S
C151 H139 0.930 . S
C151 C152 1.399 1_556 S
C151 C156 1.399 . S
C152 C151 1.399 1_554 S
C152 C153 1.376 . S
C153 H140 0.930 . S
C153 C152 1.376 . S
C153 C154 1.388 . S
C154 H141 0.930 . S
C154 C153 1.388 . S
C154 C155 1.390 . S
C155 C154 1.390 . S
C155 C156 1.394 1_554 S
C155 C161 1.465 . S
C156 C151 1.399 . S
C156 C155 1.394 1_556 S
C156 C157 1.516 . S
C157 C156 1.516 . S
C157 C158 1.502 . S
C157 C159 1.561 . S
C157 C160 1.526 . S
C158 H142 0.959 . S
C158 H143 0.959 . S
C158 H144 0.961 . S
C158 C157 1.502 . S
C159 H145 0.960 . S
C159 H146 0.961 . S
C159 H147 0.959 . S
C159 C157 1.561 . S
C160 C157 1.526 . S
C160 C161 1.396 1_556 S
C160 C165 1.390 . S
C161 C155 1.465 . S
C161 C160 1.396 1_554 S
C161 C162 1.399 . S
C162 H148 0.929 . S
C162 C161 1.399 . S
C162 C163 1.385 . S
C163 H149 0.931 . S
C163 C162 1.385 . S
C163 C164 1.389 . S
C164 C163 1.389 . S
C164 C165 1.387 1_554 S
C165 H150 0.930 . S
C165 C160 1.390 . S
C165 C164 1.387 1_556 S
H166 C178 0.930 . S
H167 C180 0.930 . S
H168 C181 0.930 . S
H169 C185 0.959 . S
H170 C185 0.959 . S
H171 C185 0.961 . S
H172 C186 0.960 . S
H173 C186 0.961 . S
H174 C186 0.959 . S
H175 C189 0.929 . S
H176 C190 0.931 . S
H177 C192 0.930 . S
C178 H166 0.930 . S
C178 C179 1.399 . S
C178 C183 1.399 . S
C179 C178 1.399 . S
C179 C180 1.376 . S
C180 H167 0.930 . S
C180 C179 1.376 . S
C180 C181 1.388 . S
C181 H168 0.930 . S
C181 C180 1.388 . S
C181 C182 1.390 . S
C182 C181 1.390 . S
C182 C183 1.394 . S
C182 C188 1.465 . S
C183 C178 1.399 . S
C183 C182 1.394 . S
C183 C184 1.516 . S
C184 C183 1.516 . S
C184 C185 1.502 . S
C184 C186 1.561 . S
C184 C187 1.526 . S
C185 H169 0.959 . S
C185 H170 0.959 . S
C185 H171 0.961 . S
C185 C184 1.502 . S
C186 H172 0.960 . S
C186 H173 0.961 . S
C186 H174 0.959 . S
C186 C184 1.561 . S
C187 C184 1.526 . S
C187 C188 1.396 . S
C187 C192 1.390 . S
C188 C182 1.465 . S
C188 C187 1.396 . S
C188 C189 1.399 . S
C189 H175 0.929 . S
C189 C188 1.399 . S
C189 C190 1.385 . S
C190 H176 0.931 . S
C190 C189 1.385 . S
C190 C191 1.389 . S
C191 C190 1.389 . S
C191 C192 1.387 . S
C192 H177 0.930 . S
C192 C187 1.390 . S
C192 C191 1.387 . S
H193 C205 0.930 . S
H194 C207 0.930 . S
H195 C208 0.930 . S
H196 C212 0.959 . S
H197 C212 0.959 . S
H198 C212 0.961 . S
H199 C213 0.960 . S
H200 C213 0.961 . S
H201 C213 0.959 . S
H202 C216 0.929 . S
H203 C217 0.931 . S
H204 C219 0.930 . S
C205 H193 0.930 . S
C205 C206 1.399 1_556 S
C205 C210 1.399 . S
C206 C205 1.399 1_554 S
C206 C207 1.376 . S
C207 H194 0.930 . S
C207 C206 1.376 . S
C207 C208 1.388 . S
C208 H195 0.930 . S
C208 C207 1.388 . S
C208 C209 1.390 . S
C209 C208 1.390 . S
C209 C210 1.394 1_554 S
C209 C215 1.465 . S
C210 C205 1.399 . S
C210 C209 1.394 1_556 S
C210 C211 1.516 . S
C211 C210 1.516 . S
C211 C212 1.502 . S
C211 C213 1.561 . S
C211 C214 1.526 . S
C212 H196 0.959 . S
C212 H197 0.959 . S
C212 H198 0.961 . S
C212 C211 1.502 . S
C213 H199 0.960 . S
C213 H200 0.961 . S
C213 H201 0.959 . S
C213 C211 1.561 . S
C214 C211 1.526 . S
C214 C215 1.396 1_556 S
C214 C219 1.390 . S
C215 C209 1.465 . S
C215 C214 1.396 1_554 S
C215 C216 1.399 . S
C216 H202 0.929 . S
C216 C215 1.399 . S
C216 C217 1.385 . S
C217 H203 0.931 . S
C217 C216 1.385 . S
C217 C218 1.389 . S
C218 C217 1.389 . S
C218 C219 1.387 1_554 S
C219 H204 0.930 . S
C219 C214 1.390 . S
C219 C218 1.387 1_556 S
H220 C232 0.930 . S
H221 C234 0.930 . S
H222 C235 0.930 . S
H223 C239 0.959 . S
H224 C239 0.959 . S
H225 C239 0.961 . S
H226 C240 0.960 . S
H227 C240 0.961 . S
H228 C240 0.959 . S
H229 C243 0.929 . S
H230 C244 0.931 . S
H231 C246 0.930 . S
C232 H220 0.930 . S
C232 C233 1.399 . S
C232 C237 1.399 . S
C233 C232 1.399 . S
C233 C234 1.376 . S
C234 H221 0.930 . S
C234 C233 1.376 . S
C234 C235 1.388 . S
C235 H222 0.930 . S
C235 C234 1.388 . S
C235 C236 1.390 . S
C236 C235 1.390 . S
C236 C237 1.394 . S
C236 C242 1.465 . S
C237 C232 1.399 . S
C237 C236 1.394 . S
C237 C238 1.516 . S
C238 C237 1.516 . S
C238 C239 1.502 . S
C238 C240 1.561 . S
C238 C241 1.526 . S
C239 H223 0.959 . S
C239 H224 0.959 . S
C239 H225 0.961 . S
C239 C238 1.502 . S
C240 H226 0.960 . S
C240 H227 0.961 . S
C240 H228 0.959 . S
C240 C238 1.561 . S
C241 C238 1.526 . S
C241 C242 1.396 . S
C241 C246 1.390 . S
C242 C236 1.465 . S
C242 C241 1.396 . S
C242 C243 1.399 . S
C243 H229 0.929 . S
C243 C242 1.399 . S
C243 C244 1.385 . S
C244 H230 0.931 . S
C244 C243 1.385 . S
C244 C245 1.389 . S
C245 C244 1.389 . S
C245 C246 1.387 . S
C246 H231 0.930 . S
C246 C241 1.390 . S
C246 C245 1.387 . S
H247 C259 0.930 . S
H248 C261 0.930 . S
H249 C262 0.930 . S
H250 C266 0.959 . S
H251 C266 0.959 . S
H252 C266 0.961 . S
H253 C267 0.960 . S
H254 C267 0.961 . S
H255 C267 0.959 . S
H256 C270 0.929 . S
H257 C271 0.931 . S
H258 C273 0.930 . S
C259 H247 0.930 . S
C259 C260 1.399 . S
C259 C264 1.399 . S
C260 C259 1.399 . S
C260 C261 1.376 . S
C261 H248 0.930 . S
C261 C260 1.376 . S
C261 C262 1.388 . S
C262 H249 0.930 . S
C262 C261 1.388 . S
C262 C263 1.390 . S
C263 C262 1.390 . S
C263 C264 1.394 . S
C263 C269 1.465 . S
C264 C259 1.399 . S
C264 C263 1.394 . S
C264 C265 1.516 . S
C265 C264 1.516 . S
C265 C266 1.502 . S
C265 C267 1.561 . S
C265 C268 1.526 . S
C266 H250 0.959 . S
C266 H251 0.959 . S
C266 H252 0.961 . S
C266 C265 1.502 . S
C267 H253 0.960 . S
C267 H254 0.961 . S
C267 H255 0.959 . S
C267 C265 1.561 . S
C268 C265 1.526 . S
C268 C269 1.396 . S
C268 C273 1.390 . S
C269 C263 1.465 . S
C269 C268 1.396 . S
C269 C270 1.399 . S
C270 H256 0.929 . S
C270 C269 1.399 . S
C270 C271 1.385 . S
C271 H257 0.931 . S
C271 C270 1.385 . S
C271 C272 1.389 . S
C272 C271 1.389 . S
C272 C273 1.387 . S
C273 H258 0.930 . S
C273 C268 1.390 . S
C273 C272 1.387 . S
H274 C286 0.930 . S
H275 C288 0.930 . S
H276 C289 0.930 . S
H277 C293 0.959 . S
H278 C293 0.959 . S
H279 C293 0.961 . S
H280 C294 0.960 . S
H281 C294 0.961 . S
H282 C294 0.959 . S
H283 C297 0.929 . S
H284 C298 0.931 . S
H285 C300 0.930 . S
C286 H274 0.930 . S
C286 C287 1.399 . S
C286 C291 1.399 . S
C287 C286 1.399 . S
C287 C288 1.376 . S
C288 H275 0.930 . S
C288 C287 1.376 . S
C288 C289 1.388 . S
C289 H276 0.930 . S
C289 C288 1.388 . S
C289 C290 1.390 . S
C290 C289 1.390 . S
C290 C291 1.394 . S
C290 C296 1.465 . S
C291 C286 1.399 . S
C291 C290 1.394 . S
C291 C292 1.516 . S
C292 C291 1.516 . S
C292 C293 1.502 . S
C292 C294 1.561 . S
C292 C295 1.526 . S
C293 H277 0.959 . S
C293 H278 0.959 . S
C293 H279 0.961 . S
C293 C292 1.502 . S
C294 H280 0.960 . S
C294 H281 0.961 . S
C294 H282 0.959 . S
C294 C292 1.561 . S
C295 C292 1.526 . S
C295 C296 1.396 . S
C295 C300 1.390 . S
C296 C290 1.465 . S
C296 C295 1.396 . S
C296 C297 1.399 . S
C297 H283 0.929 . S
C297 C296 1.399 . S
C297 C298 1.385 . S
C298 H284 0.931 . S
C298 C297 1.385 . S
C298 C299 1.389 . S
C299 C298 1.389 . S
C299 C300 1.387 . S
C300 H285 0.930 . S
C300 C295 1.390 . S
C300 C299 1.387 . S
H301 C313 0.930 . S
H302 C315 0.930 . S
H303 C316 0.930 . S
H304 C320 0.959 . S
H305 C320 0.959 . S
H306 C320 0.961 . S
H307 C321 0.960 . S
H308 C321 0.961 . S
H309 C321 0.959 . S
H310 C324 0.929 . S
H311 C325 0.931 . S
H312 C327 0.930 . S
C313 H301 0.930 . S
C313 C314 1.399 . S
C313 C318 1.399 . S
C314 C313 1.399 . S
C314 C315 1.376 . S
C315 H302 0.930 . S
C315 C314 1.376 . S
C315 C316 1.388 . S
C316 H303 0.930 . S
C316 C315 1.388 . S
C316 C317 1.390 . S
C317 C316 1.390 . S
C317 C318 1.394 . S
C317 C323 1.465 . S
C318 C313 1.399 . S
C318 C317 1.394 . S
C318 C319 1.516 . S
C319 C318 1.516 . S
C319 C320 1.502 . S
C319 C321 1.561 . S
C319 C322 1.526 . S
C320 H304 0.959 . S
C320 H305 0.959 . S
C320 H306 0.961 . S
C320 C319 1.502 . S
C321 H307 0.960 . S
C321 H308 0.961 . S
C321 H309 0.959 . S
C321 C319 1.561 . S
C322 C319 1.526 . S
C322 C323 1.396 . S
C322 C327 1.390 . S
C323 C317 1.465 . S
C323 C322 1.396 . S
C323 C324 1.399 . S
C324 H310 0.929 . S
C324 C323 1.399 . S
C324 C325 1.385 . S
C325 H311 0.931 . S
C325 C324 1.385 . S
C325 C326 1.389 . S
C326 C325 1.389 . S
C326 C327 1.387 . S
C327 H312 0.930 . S
C327 C322 1.390 . S
C327 C326 1.387 . S
H328 C340 0.930 . S
H329 C342 0.930 . S
H330 C343 0.930 . S
H331 C347 0.959 . S
H332 C347 0.959 . S
H333 C347 0.961 . S
H334 C348 0.960 . S
H335 C348 0.961 . S
H336 C348 0.959 . S
H337 C351 0.929 . S
H338 C352 0.931 . S
H339 C354 0.930 . S
C340 H328 0.930 . S
C340 C341 1.399 . S
C340 C345 1.399 . S
C341 C340 1.399 . S
C341 C342 1.376 . S
C342 H329 0.930 . S
C342 C341 1.376 . S
C342 C343 1.388 . S
C343 H330 0.930 . S
C343 C342 1.388 . S
C343 C344 1.390 . S
C344 C343 1.390 . S
C344 C345 1.394 . S
C344 C350 1.465 . S
C345 C340 1.399 . S
C345 C344 1.394 . S
C345 C346 1.516 . S
C346 C345 1.516 . S
C346 C347 1.502 . S
C346 C348 1.561 . S
C346 C349 1.526 . S
C347 H331 0.959 . S
C347 H332 0.959 . S
C347 H333 0.961 . S
C347 C346 1.502 . S
C348 H334 0.960 . S
C348 H335 0.961 . S
C348 H336 0.959 . S
C348 C346 1.561 . S
C349 C346 1.526 . S
C349 C350 1.396 . S
C349 C354 1.390 . S
C350 C344 1.465 . S
C350 C349 1.396 . S
C350 C351 1.399 . S
C351 H337 0.929 . S
C351 C350 1.399 . S
C351 C352 1.385 . S
C352 H338 0.931 . S
C352 C351 1.385 . S
C352 C353 1.389 . S
C353 C352 1.389 . S
C353 C354 1.387 . S
C354 H339 0.930 . S
C354 C349 1.390 . S
C354 C353 1.387 . S
H355 C367 0.930 . S
H356 C369 0.930 . S
H357 C370 0.930 . S
H358 C374 0.959 . S
H359 C374 0.959 . S
H360 C374 0.961 . S
H361 C375 0.960 . S
H362 C375 0.961 . S
H363 C375 0.959 . S
H364 C378 0.929 . S
H365 C379 0.931 . S
H366 C381 0.930 . S
C367 H355 0.930 . S
C367 C368 1.399 . S
C367 C372 1.399 . S
C368 C367 1.399 . S
C368 C369 1.376 . S
C369 H356 0.930 . S
C369 C368 1.376 . S
C369 C370 1.388 . S
C370 H357 0.930 . S
C370 C369 1.388 . S
C370 C371 1.390 . S
C371 C370 1.390 . S
C371 C372 1.394 . S
C371 C377 1.465 . S
C372 C367 1.399 . S
C372 C371 1.394 . S
C372 C373 1.516 . S
C373 C372 1.516 . S
C373 C374 1.502 . S
C373 C375 1.561 . S
C373 C376 1.526 . S
C374 H358 0.959 . S
C374 H359 0.959 . S
C374 H360 0.961 . S
C374 C373 1.502 . S
C375 H361 0.960 . S
C375 H362 0.961 . S
C375 H363 0.959 . S
C375 C373 1.561 . S
C376 C373 1.526 . S
C376 C377 1.396 . S
C376 C381 1.390 . S
C377 C371 1.465 . S
C377 C376 1.396 . S
C377 C378 1.399 . S
C378 H364 0.929 . S
C378 C377 1.399 . S
C378 C379 1.385 . S
C379 H365 0.931 . S
C379 C378 1.385 . S
C379 C380 1.389 . S
C380 C379 1.389 . S
C380 C381 1.387 . S
C381 H366 0.930 . S
C381 C376 1.390 . S
C381 C380 1.387 . S
H382 C394 0.930 . S
H383 C396 0.930 . S
H384 C397 0.930 . S
H385 C401 0.959 . S
H386 C401 0.959 . S
H387 C401 0.961 . S
H388 C402 0.960 . S
H389 C402 0.961 . S
H390 C402 0.959 . S
H391 C405 0.929 . S
H392 C406 0.931 . S
H393 C408 0.930 . S
C394 H382 0.930 . S
C394 C395 1.399 . S
C394 C399 1.399 . S
C395 C394 1.399 . S
C395 C396 1.376 . S
C396 H383 0.930 . S
C396 C395 1.376 . S
C396 C397 1.388 . S
C397 H384 0.930 . S
C397 C396 1.388 . S
C397 C398 1.390 . S
C398 C397 1.390 . S
C398 C399 1.394 . S
C398 C404 1.465 . S
C399 C394 1.399 . S
C399 C398 1.394 . S
C399 C400 1.516 . S
C400 C399 1.516 . S
C400 C401 1.502 . S
C400 C402 1.561 . S
C400 C403 1.526 . S
C401 H385 0.959 . S
C401 H386 0.959 . S
C401 H387 0.961 . S
C401 C400 1.502 . S
C402 H388 0.960 . S
C402 H389 0.961 . S
C402 H390 0.959 . S
C402 C400 1.561 . S
C403 C400 1.526 . S
C403 C404 1.396 . S
C403 C408 1.390 . S
C404 C398 1.465 . S
C404 C403 1.396 . S
C404 C405 1.399 . S
C405 H391 0.929 . S
C405 C404 1.399 . S
C405 C406 1.385 . S
C406 H392 0.931 . S
C406 C405 1.385 . S
C406 C407 1.389 . S
C407 C406 1.389 . S
C407 C408 1.387 . S
C408 H393 0.930 . S
C408 C403 1.390 . S
C408 C407 1.387 . S
H409 C421 0.930 . S
H410 C423 0.930 . S
H411 C424 0.930 . S
H412 C428 0.959 . S
H413 C428 0.959 . S
H414 C428 0.961 . S
H415 C429 0.960 . S
H416 C429 0.961 . S
H417 C429 0.959 . S
H418 C432 0.929 . S
H419 C433 0.931 1_545 S
H420 C435 0.930 . S
C421 H409 0.930 . S
C421 C422 1.399 . S
C421 C426 1.399 . S
C422 C421 1.399 . S
C422 C423 1.376 . S
C423 H410 0.930 . S
C423 C422 1.376 . S
C423 C424 1.388 . S
C424 H411 0.930 . S
C424 C423 1.388 . S
C424 C425 1.390 . S
C425 C424 1.390 . S
C425 C426 1.394 . S
C425 C431 1.465 . S
C426 C421 1.399 . S
C426 C425 1.394 . S
C426 C427 1.516 . S
C427 C426 1.516 . S
C427 C428 1.502 . S
C427 C429 1.561 . S
C427 C430 1.526 . S
C428 H412 0.959 . S
C428 H413 0.959 . S
C428 H414 0.961 . S
C428 C427 1.502 . S
C429 H415 0.960 . S
C429 H416 0.961 . S
C429 H417 0.959 . S
C429 C427 1.561 . S
C430 C427 1.526 . S
C430 C431 1.396 . S
C430 C435 1.390 . S
C431 C425 1.465 . S
C431 C430 1.396 . S
C431 C432 1.399 . S
C432 H418 0.929 . S
C432 C431 1.399 . S
C432 C433 1.385 . S
C433 H419 0.931 1_565 S
C433 C432 1.385 . S
C433 C434 1.389 . S
C434 C433 1.389 . S
C434 C435 1.387 . S
C435 H420 0.930 . S
C435 C430 1.390 . S
C435 C434 1.387 . S
C137 C48 1.505 . S
C125 C43 1.506 . S
C152 C10 1.496 . S
C164 C91 1.509 . S
C179 C21 1.509 . S
C191 C57 1.506 . S
C206 C32 1.491 . S
C218 C82 1.495 . S
C245 C44 1.557 . S
C233 C5 1.505 . S
C272 C86 1.542 . S
C260 C15 1.520 . S
C287 C27 1.507 . S
C299 C52 1.555 . S
C314 C38 1.536 . S
C326 C78 1.533 . S
C353 C107 1.471 . S
C341 C16 1.432 . S
C380 C73 1.453 . S
C368 C26 1.459 . S
C407 C95 1.465 . S
C395 C37 1.473 . S
C422 C4 1.440 . S
C434 C61 1.460 . S
