# Generated by pormake.
# Topology ssc, (4,4)-cn, num edge types: 1
# Building blocks:
#     Node 0, Type 0, BuildingBlock: CEKHIL_clean_sbu_0, # of connection points: 4
#     Node 1, Type 0, BuildingBlock: CEKHIL_clean_sbu_0, # of connection points: 4
#     Node 2, Type 0, BuildingBlock: CEKHIL_clean_sbu_0, # of connection points: 4
#     Node 3, Type 0, BuildingBlock: CEKHIL_clean_sbu_0, # of connection points: 4
#     Node 4, Type 0, BuildingBlock: CEKHIL_clean_sbu_0, # of connection points: 4
#     Node 5, Type 0, BuildingBlock: CEKHIL_clean_sbu_0, # of connection points: 4
#     Node 6, Type 0, BuildingBlock: CEKHIL_clean_sbu_0, # of connection points: 4
#     Node 7, Type 0, BuildingBlock: CEKHIL_clean_sbu_0, # of connection points: 4
#     Node 8, Type 0, BuildingBlock: CEKHIL_clean_sbu_0, # of connection points: 4
#     Node 9, Type 0, BuildingBlock: CEKHIL_clean_sbu_0, # of connection points: 4
#     Node 10, Type 0, BuildingBlock: CEKHIL_clean_sbu_0, # of connection points: 4
#     Node 11, Type 0, BuildingBlock: CEKHIL_clean_sbu_0, # of connection points: 4
#     Node 12, Type 1, BuildingBlock: GIZVER_clean_linker_0, # of connection points: 4
#     Node 13, Type 1, BuildingBlock: GIZVER_clean_linker_0, # of connection points: 4
#     Node 14, Type 1, BuildingBlock: GIZVER_clean_linker_0, # of connection points: 4
#     Node 15, Type 1, BuildingBlock: GIZVER_clean_linker_0, # of connection points: 4
#     Node 16, Type 1, BuildingBlock: GIZVER_clean_linker_0, # of connection points: 4
#     Node 17, Type 1, BuildingBlock: GIZVER_clean_linker_0, # of connection points: 4
#     Node 18, Type 1, BuildingBlock: GIZVER_clean_linker_0, # of connection points: 4
#     Node 19, Type 1, BuildingBlock: GIZVER_clean_linker_0, # of connection points: 4
#     Node 20, Type 1, BuildingBlock: GIZVER_clean_linker_0, # of connection points: 4
#     Node 21, Type 1, BuildingBlock: GIZVER_clean_linker_0, # of connection points: 4
#     Node 22, Type 1, BuildingBlock: GIZVER_clean_linker_0, # of connection points: 4
#     Node 23, Type 1, BuildingBlock: GIZVER_clean_linker_0, # of connection points: 4
#     Edge 24, Type (0, 1), BuildingBlock: AJUNOK_clean_linker_0, # of connection points: 2
#     Edge 25, Type (0, 1), BuildingBlock: AJUNOK_clean_linker_0, # of connection points: 2
#     Edge 26, Type (0, 1), BuildingBlock: AJUNOK_clean_linker_0, # of connection points: 2
#     Edge 27, Type (0, 1), BuildingBlock: AJUNOK_clean_linker_0, # of connection points: 2
#     Edge 28, Type (0, 1), BuildingBlock: AJUNOK_clean_linker_0, # of connection points: 2
#     Edge 29, Type (0, 1), BuildingBlock: AJUNOK_clean_linker_0, # of connection points: 2
#     Edge 30, Type (0, 1), BuildingBlock: AJUNOK_clean_linker_0, # of connection points: 2
#     Edge 31, Type (0, 1), BuildingBlock: AJUNOK_clean_linker_0, # of connection points: 2
#     Edge 32, Type (0, 1), BuildingBlock: AJUNOK_clean_linker_0, # of connection points: 2
#     Edge 33, Type (0, 1), BuildingBlock: AJUNOK_clean_linker_0, # of connection points: 2
#     Edge 34, Type (0, 1), BuildingBlock: AJUNOK_clean_linker_0, # of connection points: 2
#     Edge 35, Type (0, 1), BuildingBlock: AJUNOK_clean_linker_0, # of connection points: 2
#     Edge 36, Type (0, 1), BuildingBlock: AJUNOK_clean_linker_0, # of connection points: 2
#     Edge 37, Type (0, 1), BuildingBlock: AJUNOK_clean_linker_0, # of connection points: 2
#     Edge 38, Type (0, 1), BuildingBlock: AJUNOK_clean_linker_0, # of connection points: 2
#     Edge 39, Type (0, 1), BuildingBlock: AJUNOK_clean_linker_0, # of connection points: 2
#     Edge 40, Type (0, 1), BuildingBlock: AJUNOK_clean_linker_0, # of connection points: 2
#     Edge 41, Type (0, 1), BuildingBlock: AJUNOK_clean_linker_0, # of connection points: 2
#     Edge 42, Type (0, 1), BuildingBlock: AJUNOK_clean_linker_0, # of connection points: 2
#     Edge 43, Type (0, 1), BuildingBlock: AJUNOK_clean_linker_0, # of connection points: 2
#     Edge 44, Type (0, 1), BuildingBlock: AJUNOK_clean_linker_0, # of connection points: 2
#     Edge 45, Type (0, 1), BuildingBlock: AJUNOK_clean_linker_0, # of connection points: 2
#     Edge 46, Type (0, 1), BuildingBlock: AJUNOK_clean_linker_0, # of connection points: 2
#     Edge 47, Type (0, 1), BuildingBlock: AJUNOK_clean_linker_0, # of connection points: 2
#     Edge 48, Type (0, 1), BuildingBlock: AJUNOK_clean_linker_0, # of connection points: 2
#     Edge 49, Type (0, 1), BuildingBlock: AJUNOK_clean_linker_0, # of connection points: 2
#     Edge 50, Type (0, 1), BuildingBlock: AJUNOK_clean_linker_0, # of connection points: 2
#     Edge 51, Type (0, 1), BuildingBlock: AJUNOK_clean_linker_0, # of connection points: 2
#     Edge 52, Type (0, 1), BuildingBlock: AJUNOK_clean_linker_0, # of connection points: 2
#     Edge 53, Type (0, 1), BuildingBlock: AJUNOK_clean_linker_0, # of connection points: 2
#     Edge 54, Type (0, 1), BuildingBlock: AJUNOK_clean_linker_0, # of connection points: 2
#     Edge 55, Type (0, 1), BuildingBlock: AJUNOK_clean_linker_0, # of connection points: 2
#     Edge 56, Type (0, 1), BuildingBlock: AJUNOK_clean_linker_0, # of connection points: 2
#     Edge 57, Type (0, 1), BuildingBlock: AJUNOK_clean_linker_0, # of connection points: 2
#     Edge 58, Type (0, 1), BuildingBlock: AJUNOK_clean_linker_0, # of connection points: 2
#     Edge 59, Type (0, 1), BuildingBlock: AJUNOK_clean_linker_0, # of connection points: 2
#     Edge 60, Type (0, 1), BuildingBlock: AJUNOK_clean_linker_0, # of connection points: 2
#     Edge 61, Type (0, 1), BuildingBlock: AJUNOK_clean_linker_0, # of connection points: 2
#     Edge 62, Type (0, 1), BuildingBlock: AJUNOK_clean_linker_0, # of connection points: 2
#     Edge 63, Type (0, 1), BuildingBlock: AJUNOK_clean_linker_0, # of connection points: 2
#     Edge 64, Type (0, 1), BuildingBlock: AJUNOK_clean_linker_0, # of connection points: 2
#     Edge 65, Type (0, 1), BuildingBlock: AJUNOK_clean_linker_0, # of connection points: 2
#     Edge 66, Type (0, 1), BuildingBlock: AJUNOK_clean_linker_0, # of connection points: 2
#     Edge 67, Type (0, 1), BuildingBlock: AJUNOK_clean_linker_0, # of connection points: 2
#     Edge 68, Type (0, 1), BuildingBlock: AJUNOK_clean_linker_0, # of connection points: 2
#     Edge 69, Type (0, 1), BuildingBlock: AJUNOK_clean_linker_0, # of connection points: 2
#     Edge 70, Type (0, 1), BuildingBlock: AJUNOK_clean_linker_0, # of connection points: 2
#     Edge 71, Type (0, 1), BuildingBlock: AJUNOK_clean_linker_0, # of connection points: 2
# Relax obj value: 0.117
# Max RMSD: 0.302
# Mean RMSD: 0.276
data_MOF--net-ssc--node1-CEKHIL_clean_sbu_0--node2-GIZVER_clean_linker_0--edge1-AJUNOK_clean_linker_0
_symmetry_space_group_name_H-M    P1
_symmetry_Int_Tables_number       1
_symmetry_cell_setting            triclinic
loop_
_symmetry_equiv_pos_as_xyz
'x, y, z'
_cell_length_a     23.426037
_cell_length_b     23.498828
_cell_length_c     23.268366
_cell_angle_alpha  91.594575
_cell_angle_beta   90.181062
_cell_angle_gamma 93.544158
loop_
_atom_site_label
_atom_site_type_symbol
_atom_site_fract_x
_atom_site_fract_y
_atom_site_fract_z
_atom_type_partial_charge
Co0 Co 0.06426 0.33128 0.10659 0.0
O1 O 0.1169 0.38442 0.06987 0.0
O2 O 0.02278 0.38915 0.07028 0.0
C3 C 0.11152 0.32565 0.18976 0.0
O4 O -0.00278 0.28653 0.143 0.0
Co5 Co 0.10051 0.21184 0.13106 0.0
O6 O 0.03091 0.20716 0.17832 0.0
C7 C 0.07268 0.23663 0.01352 0.0
C8 C 0.07238 0.40968 0.05282 0.0
C9 C 0.99177 0.24181 0.17366 0.0
O10 O 0.05684 0.28478 0.03282 0.0
O11 O 0.09439 0.20065 0.04586 0.0
O12 O 0.0797 0.36798 0.18075 0.0
O13 O 0.12024 0.29256 0.14564 0.0
Co14 Co 0.9705 0.76258 0.40215 0.0
O15 O 0.01913 0.71599 0.44423 0.0
O16 O 0.92615 0.69662 0.43077 0.0
C17 C 0.02966 0.7824 0.32741 0.0
O18 O 0.90689 0.79998 0.35938 0.0
Co19 Co 0.00867 0.88937 0.38519 0.0
O20 O 0.94946 0.87896 0.32263 0.0
C21 C 0.9904 0.8436 0.50082 0.0
C22 C 0.9733 0.68469 0.45626 0.0
C23 C 0.90751 0.84202 0.32506 0.0
O24 O 0.95653 0.80465 0.47703 0.0
O25 O 0.01986 0.87919 0.4706 0.0
O26 O -0.00188 0.7347 0.32687 0.0
O27 O 0.02881 0.81177 0.37458 0.0
Co28 Co 0.4347 0.75293 0.62095 0.0
O29 O 0.47656 0.77723 0.55458 0.0
O30 O 0.39 0.80394 0.57741 0.0
C31 C 0.50911 0.76787 0.68309 0.0
O32 O 0.37827 0.73947 0.68675 0.0
Co33 Co 0.46538 0.64633 0.68448 0.0
O34 O 0.40225 0.66406 0.73691 0.0
C35 C 0.41343 0.63254 0.57058 0.0
C36 C 0.43309 0.80642 0.54238 0.0
C37 C 0.37025 0.7048 0.72813 0.0
O38 O 0.40132 0.68516 0.57424 0.0
O39 O 0.44314 0.60899 0.60826 0.0
O40 O 0.47833 0.80937 0.66866 0.0
O41 O 0.49686 0.71936 0.65672 0.0
Co42 Co 0.59444 0.21598 0.85247 0.0
O43 O 0.64039 0.20541 0.919 0.0
O44 O 0.55929 0.15546 0.89785 0.0
C45 C 0.66755 0.21764 0.79107 0.0
O46 O 0.53884 0.21316 0.78344 0.0
Co47 Co 0.61511 0.32879 0.78701 0.0
O48 O 0.57332 0.2827 0.72622 0.0
C49 C 0.55632 0.33062 0.89768 0.0
C50 C 0.60388 0.16424 0.93125 0.0
C51 C 0.54245 0.23715 0.73414 0.0
O52 O 0.55212 0.27569 0.89627 0.0
O53 O 0.5834 0.36024 0.86023 0.0
O54 O 0.64396 0.16946 0.80762 0.0
O55 O 0.64971 0.26288 0.81615 0.0
Co56 Co 0.13648 0.00923 0.21652 0.0
O57 O 0.18909 0.97515 0.16606 0.0
O58 O 0.18948 0.9683 0.26099 0.0
C59 C 0.05689 0.9879 0.16352 0.0
O60 O 0.089 0.03836 0.28286 0.0
Co61 Co 0.0742 0.1128 0.17409 0.0
O62 O 0.04772 0.1172 0.25501 0.0
C63 C 0.19654 0.12148 0.19179 0.0
C64 C 0.21464 0.95925 0.2121 0.0
C65 C 0.05934 0.08166 0.29305 0.0
O66 O 0.19047 0.07778 0.22327 0.0
O67 O 0.15604 0.13894 0.16154 0.0
O68 O 0.07632 0.95001 0.1973 0.0
O69 O 0.08905 0.0338 0.15918 0.0
Co70 Co 0.18761 0.89721 0.47544 0.0
O71 O 0.15839 0.95519 0.52585 0.0
O72 O 0.12681 0.93574 0.43748 0.0
C73 C 0.19257 0.82603 0.53838 0.0
O74 O 0.20416 0.83818 0.41147 0.0
Co75 Co 0.30882 0.85615 0.49228 0.0
O76 O 0.29385 0.81062 0.4199 0.0
C77 C 0.29394 0.97437 0.46916 0.0
C78 C 0.12453 0.96725 0.4841 0.0
C79 C 0.24543 0.80795 0.39467 0.0
O80 O 0.24511 0.95748 0.44727 0.0
O81 O 0.32591 0.94088 0.49464 0.0
O82 O 0.14386 0.83626 0.51478 0.0
O83 O 0.23435 0.86303 0.52888 0.0
Co84 Co 0.35615 0.02185 0.73419 0.0
O85 O 0.3028 0.06915 0.69912 0.0
O86 O 0.3193 0.06594 0.7931 0.0
C87 C 0.43006 0.03866 0.67399 0.0
O88 O 0.40947 0.98425 0.7875 0.0
Co89 Co 0.40206 0.91559 0.67204 0.0
O90 O 0.45734 0.91962 0.7373 0.0
C91 C 0.28332 0.91083 0.71167 0.0
C92 C 0.29174 0.08702 0.75113 0.0
C93 C 0.44963 0.95001 0.78248 0.0
O94 O 0.29414 0.95831 0.73988 0.0
O95 O 0.31959 0.88843 0.67834 0.0
O96 O 0.42012 0.07515 0.71526 0.0
O97 O 0.39214 -0.00316 0.66661 0.0
Co98 Co 0.28121 0.0793 0.9942 0.0
O99 O 0.31594 0.02045 0.03606 0.0
O100 O 0.32613 0.03362 0.94275 0.0
C101 C 0.29949 0.15501 0.05585 0.0
O102 O 0.2564 0.13618 0.93528 0.0
Co103 Co 0.17397 0.13457 0.04156 0.0
O104 O 0.1885 0.1867 0.97643 0.0
C105 C 0.1698 0.01305 0.01494 0.0
C106 C 0.33625 0.00333 0.98699 0.0
C107 C 0.22344 0.17799 0.93602 0.0
O108 O 0.2126 0.02393 0.98149 0.0
O109 O 0.14858 0.05139 0.04689 0.0
O110 O 0.33928 0.13797 0.02155 0.0
O111 O 0.25372 0.1215 0.057 0.0
Co112 Co 0.72123 0.3321 0.13428 0.0
O113 O 0.6932 0.39783 0.17168 0.0
O114 O 0.6696 0.36696 0.08316 0.0
C115 C 0.71106 0.27263 0.20735 0.0
O116 O 0.73855 0.26502 0.08246 0.0
Co117 Co 0.83258 0.28075 0.17147 0.0
O118 O 0.81317 0.21877 0.11307 0.0
C119 C 0.84088 0.38455 0.10542 0.0
C120 C 0.66421 0.4039 0.12494 0.0
C121 C 0.7722 0.224 0.07794 0.0
O122 O 0.7862 0.37962 0.10061 0.0
O123 O 0.86902 0.35173 0.13627 0.0
O124 O 0.66718 0.28355 0.17609 0.0
O125 O 0.75785 0.30336 0.19786 0.0
Co126 Co 0.89359 0.5776 0.29974 0.0
O127 O 0.84424 0.62553 0.25978 0.0
O128 O 0.85082 0.62281 0.35449 0.0
C129 C 0.97131 0.5906 0.24484 0.0
O130 O 0.94245 0.53419 0.35471 0.0
Co131 Co 0.93411 0.46954 0.23581 0.0
O132 O 0.99076 0.47276 0.30048 0.0
C133 C 0.81442 0.47505 0.26989 0.0
C134 C 0.8253 0.64164 0.30957 0.0
C135 C 0.98187 0.4986 0.34817 0.0
O136 O 0.82929 0.51821 0.30231 0.0
O137 O 0.84854 0.45123 0.23525 0.0
O138 O 0.96096 0.62811 0.28509 0.0
O139 O 0.93138 0.55158 0.23459 0.0
Co140 Co 0.72714 0.64293 0.5958 0.0
O141 O 0.75264 0.5798 0.6368 0.0
O142 O 0.76814 0.59541 0.54389 0.0
C143 C 0.75228 0.71233 0.66013 0.0
O144 O 0.71045 0.704 0.5399 0.0
Co145 Co 0.62688 0.7098 0.64038 0.0
O146 O 0.66094 0.76803 0.58854 0.0
C147 C 0.60246 0.60109 0.57899 0.0
C148 C 0.77358 0.56332 0.58789 0.0
C149 C 0.69167 0.7539 0.5461 0.0
O150 O 0.65617 0.59731 0.57342 0.0
O151 O 0.5801 0.64285 0.60491 0.0
O152 O 0.78945 0.69187 0.62527 0.0
O153 O 0.70233 0.68519 0.66058 0.0
Co154 Co 0.65003 0.48801 0.7882 0.0
O155 O 0.70752 0.45446 0.74165 0.0
O156 O 0.69858 0.4448 0.83589 0.0
C157 C 0.5715 0.46717 0.73401 0.0
O158 O 0.59514 0.51668 0.84881 0.0
Co159 Co 0.59574 0.59381 0.73901 0.0
O160 O 0.53944 0.57355 0.79954 0.0
C161 C 0.71 0.60726 0.78856 0.0
C162 C 0.72737 0.43562 0.78916 0.0
C163 C 0.55062 0.54572 0.844 0.0
O164 O 0.70415 0.55533 0.8029 0.0
O165 O 0.67241 0.63227 0.76041 0.0
O166 O 0.59235 0.4291 0.76605 0.0
O167 O 0.60503 0.51255 0.72715 0.0
H168 H 0.09651 0.28137 0.71107 0.0
H169 H 0.03093 0.23625 0.54123 0.0
H170 H 0.11075 0.11216 0.64065 0.0
H171 H 0.06504 0.3541 0.65131 0.0
H172 H 0.05238 0.339 0.5763 0.0
H173 H 0.98607 0.31582 0.72345 0.0
H174 H 0.81803 0.34103 0.66047 0.0
H175 H 0.96073 0.36292 0.54891 0.0
C176 C 0.08696 0.24963 0.67716 0.0
C177 C 0.10559 0.19449 0.68233 0.0
C178 C 0.05898 0.26472 0.62669 0.0
C179 C 0.05048 0.22439 0.58104 0.0
C180 C 0.0686 0.16919 0.5869 0.0
C181 C 0.09443 0.15429 0.63787 0.0
C182 C 0.04157 0.32467 0.62032 0.0
C183 C 0.97872 0.32784 0.63157 0.0
C184 C 0.95719 0.32096 0.68774 0.0
C185 C 0.89881 0.32601 0.69801 0.0
C186 C 0.86225 0.33321 0.65136 0.0
C187 C 0.88505 0.35456 0.60061 0.0
C188 C 0.94264 0.34694 0.58857 0.0
H189 H 0.10812 0.69701 0.805 0.0
H190 H 0.08243 0.72074 0.98801 0.0
H191 H 0.1375 0.86232 0.88683 0.0
H192 H 0.0879 0.61462 0.86118 0.0
H193 H 0.10567 0.62237 0.93626 0.0
H194 H 0.98296 0.68395 0.8566 0.0
H195 H 0.85703 0.59026 0.95557 0.0
H196 H 0.03339 0.55544 0.97184 0.0
C197 C 0.10718 0.72469 0.84299 0.0
C198 C 0.12181 0.7834 0.83857 0.0
C199 C 0.09256 0.70153 0.89688 0.0
C200 C 0.09279 0.73777 0.94638 0.0
C201 C 0.10729 0.79608 0.94162 0.0
C202 C 0.12236 0.8178 0.8884 0.0
C203 C 0.07819 0.63811 0.90178 0.0
C204 C 0.01593 0.62469 0.91644 0.0
C205 C 0.97242 0.65312 0.8893 0.0
C206 C 0.915 0.64108 0.90366 0.0
C207 C 0.90143 0.59979 0.94449 0.0
C208 C 0.94289 0.56587 0.96644 0.0
C209 C 0.00053 0.5794 0.95318 0.0
H210 H 0.49973 0.63519 0.12239 0.0
H211 H 0.56272 0.75992 0.25171 0.0
H212 H 0.64876 0.60556 0.2205 0.0
H213 H 0.44227 0.70946 0.14533 0.0
H214 H 0.44966 0.72955 0.21888 0.0
H215 H 0.48599 0.77641 0.06838 0.0
H216 H 0.47058 0.95266 0.11753 0.0
H217 H 0.44515 0.82504 0.24093 0.0
C218 C 0.53151 0.6505 0.15395 0.0
C219 C 0.57631 0.61629 0.16668 0.0
C220 C 0.52622 0.70302 0.18389 0.0
C221 C 0.56634 0.72004 0.22787 0.0
C222 C 0.60979 0.68379 0.24208 0.0
C223 C 0.61424 0.6327 0.21091 0.0
C224 C 0.47144 0.73301 0.17677 0.0
C225 C 0.47741 0.79515 0.15977 0.0
C226 C 0.48364 0.80972 0.1013 0.0
C227 C 0.47944 0.86694 0.0853 0.0
C228 C 0.47409 0.90858 0.1291 0.0
C229 C 0.44793 0.89167 0.18012 0.0
C230 C 0.45887 0.83717 0.19884 0.0
H231 H 0.56942 0.32343 0.29831 0.0
H232 H 0.47242 0.36997 0.44715 0.0
H233 H 0.58817 0.49331 0.36986 0.0
H234 H 0.51943 0.2512 0.34774 0.0
H235 H 0.51845 0.2684 0.42251 0.0
H236 H 0.42784 0.28857 0.29124 0.0
H237 H 0.28171 0.19903 0.36365 0.0
H238 H 0.43637 0.22312 0.46037 0.0
C239 C 0.55513 0.35593 0.32794 0.0
C240 C 0.58257 0.41061 0.32838 0.0
C241 C 0.51543 0.34095 0.37082 0.0
C242 C 0.49998 0.38229 0.41165 0.0
C243 C 0.52543 0.43778 0.41051 0.0
C244 C 0.56478 0.45205 0.36737 0.0
C245 C 0.49991 0.27909 0.38053 0.0
C246 C 0.43645 0.26588 0.37985 0.0
C247 C 0.40603 0.27155 0.32861 0.0
C248 C 0.3502 0.24761 0.3233 0.0
C249 C 0.32324 0.22163 0.37022 0.0
C250 C 0.3558 0.20828 0.41743 0.0
C251 C 0.41073 0.23464 0.4245 0.0
H252 H 0.60838 0.94389 0.10626 0.0
H253 H 0.66267 -0.00567 0.27888 0.0
H254 H 0.71754 0.09426 0.13706 0.0
H255 H 0.56716 0.89468 0.19301 0.0
H256 H 0.6345 0.86648 0.19858 0.0
H257 H 0.51225 0.91322 0.28085 0.0
H258 H 0.592 0.89851 0.44459 0.0
H259 H 0.68964 0.87672 0.29155 0.0
C260 C 0.63504 0.9707 0.13549 0.0
C261 C 0.66358 0.02058 0.11545 0.0
C262 C 0.638 0.95759 0.19428 0.0
C263 C 0.66541 -0.0018 0.23281 0.0
C264 C 0.69442 0.0469 0.21205 0.0
C265 C 0.69787 0.05464 0.1529 0.0
C266 C 0.60912 0.90214 0.21441 0.0
C267 C 0.60279 0.89915 0.27883 0.0
C268 C 0.55018 0.90787 0.30607 0.0
C269 C 0.54639 0.90672 0.36623 0.0
C270 C 0.59606 0.90214 0.39839 0.0
C271 C 0.64822 0.89163 0.37224 0.0
C272 C 0.65073 0.88821 0.31228 0.0
H273 H 0.3186 0.23435 0.5531 0.0
H274 H 0.29819 0.40497 0.61401 0.0
H275 H 0.46582 0.34769 0.58797 0.0
H276 H 0.22437 0.26651 0.5588 0.0
H277 H 0.21726 0.32743 0.60544 0.0
H278 H 0.25376 0.29374 0.44884 0.0
H279 H 0.1497 0.42364 0.38803 0.0
H280 H 0.15441 0.3918 0.56754 0.0
C281 C 0.33732 0.27703 0.56123 0.0
C282 C 0.39678 0.28514 0.57024 0.0
C283 C 0.30151 0.3227 0.57026 0.0
C284 C 0.32571 0.37419 0.59523 0.0
C285 C 0.38538 0.38315 0.60078 0.0
C286 C 0.42013 0.34084 0.58039 0.0
C287 C 0.23699 0.31273 0.56469 0.0
C288 C 0.21283 0.34409 0.51491 0.0
C289 C 0.22683 0.3288 0.45753 0.0
C290 C 0.20401 0.35794 0.41161 0.0
C291 C 0.16915 0.40255 0.42351 0.0
C292 C 0.14895 0.41326 0.47843 0.0
C293 C 0.17087 0.3843 0.52477 0.0
H294 H 0.97199 -0.0051 0.69748 0.0
H295 H 0.81643 0.9676 0.78971 0.0
H296 H 0.93476 0.83771 0.78445 0.0
H297 H 0.9014 0.06267 0.69437 0.0
H298 H 0.8319 0.0417 0.72038 0.0
H299 H 0.97093 0.11772 0.75652 0.0
H300 H 0.90585 0.20377 0.90524 0.0
H301 H 0.80248 0.06963 0.82083 0.0
C302 C 0.94746 0.96917 0.72765 0.0
C303 C 0.95878 0.91118 0.73445 0.0
C304 C 0.89788 0.99122 0.75181 0.0
C305 C 0.85921 0.95447 0.78102 0.0
C306 C 0.86931 0.8967 0.78344 0.0
C307 C 0.92538 0.8809 0.77487 0.0
C308 C 0.87773 0.04743 0.73298 0.0
C309 C 0.88438 0.09152 0.7808 0.0
C310 C 0.93596 0.12509 0.78571 0.0
C311 C 0.94376 0.16558 0.83053 0.0
C312 C 0.89919 0.17367 0.8692 0.0
C313 C 0.84866 0.13907 0.86666 0.0
C314 C 0.8413 0.09718 0.82269 0.0
H315 H 0.25159 0.80735 0.12839 0.0
H316 H 0.23934 0.62324 0.104 0.0
H317 H 0.12667 0.70489 0.21969 0.0
H318 H 0.3288 0.76354 0.08431 0.0
H319 H 0.34215 0.69964 0.11938 0.0
H320 H 0.25278 0.73832 0.99065 0.0
H321 H 0.34294 0.62807 0.87863 0.0
H322 H 0.38271 0.63503 0.05789 0.0
C323 C 0.2319 0.76576 0.138 0.0
C324 C 0.185 0.76179 0.1748 0.0
C325 C 0.25449 0.71529 0.11561 0.0
C326 C 0.22516 0.6618 0.12453 0.0
C327 C 0.17805 0.65879 0.16137 0.0
C328 C 0.16241 0.70803 0.19008 0.0
C329 C 0.31277 0.71861 0.08878 0.0
C330 C 0.3152 0.6879 0.03135 0.0
C331 C 0.28233 0.70505 0.98461 0.0
C332 C 0.29045 0.68131 0.9295 0.0
C333 C 0.33236 0.64186 0.9219 0.0
C334 C 0.36578 0.62476 0.9672 0.0
C335 C 0.35642 0.64724 0.02243 0.0
H336 H 0.7082 0.83976 0.10869 0.0
H337 H 0.82561 0.91419 0.9878 0.0
H338 H 0.8245 0.97889 0.16134 0.0
H339 H 0.76786 0.81152 0.98219 0.0
H340 H 0.69694 0.80997 0.01141 0.0
H341 H 0.72193 0.78905 0.88678 0.0
H342 H 0.65922 0.93181 0.80131 0.0
H343 H 0.66548 0.92998 0.98437 0.0
C344 C 0.7377 0.87508 0.0976 0.0
C345 C 0.76655 0.90716 0.14203 0.0
C346 C 0.75534 0.88117 0.03994 0.0
C347 C 0.80428 0.91733 0.02893 0.0
C348 C 0.8299 0.95154 0.07368 0.0
C349 C 0.80278 0.95373 0.12698 0.0
C350 C 0.73214 0.83842 0.99416 0.0
C351 C 0.71076 0.86462 0.94005 0.0
C352 C 0.70915 0.83246 0.88757 0.0
C353 C 0.68614 0.855 0.83745 0.0
C354 C 0.67511 0.91278 0.83968 0.0
C355 C 0.65765 0.93543 0.89233 0.0
C356 C 0.67929 0.91373 0.94304 0.0
H357 H 0.45399 0.51115 0.10417 0.0
H358 H 0.32537 0.42425 0.20772 0.0
H359 H 0.37075 0.35481 0.04251 0.0
H360 H 0.43528 0.53193 0.21587 0.0
H361 H 0.39269 0.56948 0.17104 0.0
H362 H 0.40382 0.5003 0.30888 0.0
H363 H 0.268 0.59027 0.3828 0.0
H364 H 0.29823 0.59602 0.2008 0.0
C365 C 0.42101 0.47733 0.10953 0.0
C366 C 0.4173 0.43131 0.06994 0.0
C367 C 0.38384 0.47856 0.15743 0.0
C368 C 0.34716 0.42925 0.16726 0.0
C369 C 0.34196 0.38482 0.12469 0.0
C370 C 0.37332 0.38979 0.07424 0.0
C371 C 0.39133 0.53093 0.19788 0.0
C372 C 0.35002 0.53943 0.24737 0.0
C373 C 0.36522 0.52269 0.3029 0.0
C374 C 0.33561 0.54178 0.35152 0.0
C375 C 0.2882 0.57392 0.34438 0.0
C376 C 0.27669 0.59748 0.29133 0.0
C377 C 0.30615 0.57799 0.24217 0.0
H378 H 0.78705 0.17491 0.52976 0.0
H379 H 0.64636 0.0546 0.48026 0.0
H380 H 0.66115 0.12448 0.65226 0.0
H381 H 0.75571 0.05442 0.43435 0.0
H382 H 0.71389 0.10715 0.40602 0.0
H383 H 0.7688 0.1735 0.35164 0.0
H384 H 0.93684 0.23377 0.40175 0.0
H385 H 0.85259 0.09437 0.48964 0.0
C386 C 0.74953 0.1479 0.53929 0.0
C387 C 0.72902 0.15047 0.59493 0.0
C388 C 0.72176 0.11082 0.49782 0.0
C389 C 0.6696 0.08126 0.51232 0.0
C390 C 0.64795 0.08562 0.56848 0.0
C391 C 0.67837 0.11972 0.60924 0.0
C392 C 0.74709 0.10032 0.43901 0.0
C393 C 0.80175 0.13578 0.42738 0.0
C394 C 0.80446 0.17263 0.38105 0.0
C395 C 0.85509 0.20526 0.37075 0.0
C396 C 0.8992 0.20652 0.41097 0.0
C397 C 0.90405 0.15837 0.44433 0.0
C398 C 0.85254 0.12755 0.45825 0.0
H399 H 0.05114 0.48461 0.65421 0.0
H400 H 0.2229 0.56234 0.67821 0.0
H401 H 0.10712 0.63357 0.5628 0.0
H402 H 0.13025 0.42302 0.66923 0.0
H403 H 0.20178 0.45083 0.6598 0.0
H404 H 0.12012 0.51475 0.78178 0.0
H405 H 0.1916 0.40631 0.9056 0.0
H406 H 0.21676 0.37303 0.72664 0.0
C407 C 0.08396 0.51746 0.64461 0.0
C408 C 0.07092 0.56266 0.60952 0.0
C409 C 0.14093 0.51432 0.66537 0.0
C410 C 0.18092 0.56149 0.65846 0.0
C411 C 0.16668 0.60571 0.62282 0.0
C412 C 0.11558 0.60053 0.59283 0.0
C413 C 0.16149 0.45769 0.68357 0.0
C414 C 0.17321 0.44949 0.74683 0.0
C415 C 0.1479 0.48109 0.79154 0.0
C416 C 0.15599 0.46634 0.84918 0.0
C417 C 0.1888 0.42021 0.86158 0.0
C418 C 0.20921 0.38542 0.818 0.0
C419 C 0.20242 0.4008 0.76078 0.0
C420 C 0.1286 0.48554 0.00164 0.0
C421 C 0.07844 0.44974 0.00525 0.0
C422 C 0.14861 0.50451 0.94828 0.0
C423 C 0.12011 0.48612 0.89703 0.0
H424 H 0.15573 0.4936 0.03916 0.0
H425 H 0.19121 0.52515 0.94636 0.0
S426 S 0.9785 0.40746 0.88586 0.0
N427 N -0.0062 0.4089 0.95518 0.0
N428 N 0.03231 0.44328 0.8548 0.0
C429 C 0.065 0.45947 0.90146 0.0
C430 C 0.04427 0.44066 0.95577 0.0
C431 C 0.82447 0.89469 0.2923 0.0
C432 C 0.8591 0.84826 0.2853 0.0
C433 C 0.78858 0.9104 0.24771 0.0
C434 C 0.78422 0.87899 0.19523 0.0
H435 H 0.8278 0.9213 0.33099 0.0
H436 H 0.76735 0.94976 0.25282 0.0
S437 S 0.86571 0.75307 0.15602 0.0
N438 N 0.88683 0.77116 0.22229 0.0
N439 N 0.81702 0.79791 0.14013 0.0
C440 C 0.81595 0.83014 0.18956 0.0
C441 C 0.85417 0.81574 0.23402 0.0
C442 C 0.42126 0.62238 0.46519 0.0
C443 C 0.39875 0.60087 0.51649 0.0
C444 C 0.40559 0.59719 0.41194 0.0
C445 C 0.3648 0.55091 0.40763 0.0
H446 H 0.45101 0.65951 0.4663 0.0
H447 H 0.42273 0.61654 0.37341 0.0
S448 S 0.28382 0.48706 0.52834 0.0
N449 N 0.33034 0.53362 0.55999 0.0
N450 N 0.29667 0.48939 0.4587 0.0
C451 C 0.34075 0.52966 0.45856 0.0
C452 C 0.35875 0.55386 0.51334 0.0
C453 C 0.74534 0.17205 0.74105 0.0
C454 C 0.71032 0.21828 0.74533 0.0
C455 C 0.77134 0.15848 0.68908 0.0
C456 C 0.75708 0.18724 0.63963 0.0
H457 H 0.74722 0.14272 0.77588 0.0
H458 H 0.79004 0.11775 0.68469 0.0
S459 S 0.69592 0.32768 0.63549 0.0
N460 N 0.68457 0.30647 0.70172 0.0
N461 N 0.73004 0.27686 0.60253 0.0
C462 C 0.7355 0.24099 0.64665 0.0
C463 C 0.71044 0.25641 0.69985 0.0
C464 C -0.00178 0.67328 0.55826 0.0
C465 C 0.97362 0.64913 0.50758 0.0
C466 C 0.00755 0.63986 0.60568 0.0
C467 C 0.01264 0.58086 0.59604 0.0
H468 H 0.01396 0.71752 0.56025 0.0
H469 H 0.0287 0.66112 0.64263 0.0
S470 S 0.92252 0.49838 0.48894 0.0
N471 N 0.92135 0.5648 0.46779 0.0
N472 N 0.96756 0.49901 0.54401 0.0
C473 C 0.98068 0.55574 0.5497 0.0
C474 C 0.95712 0.59093 0.50742 0.0
C475 C 0.60234 0.82257 0.70046 0.0
C476 C 0.5622 0.77938 0.7171 0.0
C477 C 0.64869 0.84065 0.73616 0.0
C478 C 0.65479 0.81878 0.79168 0.0
H479 H 0.59678 0.84396 0.66034 0.0
H480 H 0.6772 0.87556 0.72213 0.0
S481 S 0.56568 0.69787 0.85018 0.0
N482 N 0.53628 0.70842 0.78717 0.0
N483 N 0.62057 0.74502 0.8569 0.0
C484 C 0.61779 0.7716 0.80604 0.0
C485 C 0.57178 0.75176 0.7684 0.0
C486 C 0.49052 0.40422 0.92977 0.0
C487 C 0.527 0.36142 0.9437 0.0
C488 C 0.45781 0.43018 0.9722 0.0
C489 C 0.46351 0.41763 0.0301 0.0
H490 H 0.484 0.41451 0.88539 0.0
H491 H 0.42393 0.45607 0.95969 0.0
S492 S 0.55043 0.30595 0.08846 0.0
N493 N 0.56458 0.30482 0.019 0.0
N494 N 0.5058 0.35688 0.09905 0.0
C495 C 0.50095 0.37576 0.04476 0.0
C496 C 0.53225 0.34716 0.00143 0.0
C497 C 0.92302 0.17924 0.22786 0.0
C498 C 0.94301 0.23452 0.21301 0.0
C499 C 0.8897 0.17046 0.27698 0.0
C500 C 0.87375 0.21671 0.31181 0.0
H501 H 0.9367 0.14236 0.20387 0.0
H502 H 0.87943 0.12708 0.28992 0.0
S503 S 0.92024 0.36722 0.29554 0.0
N504 N 0.94682 0.33533 0.23863 0.0
N505 N 0.88507 0.31758 0.33188 0.0
C506 C 0.8927 0.27164 0.297 0.0
C507 C 0.92655 0.28089 0.247 0.0
C508 C 0.04545 0.14393 0.37897 0.0
C509 C 0.03525 0.09085 0.35057 0.0
C510 C 0.00916 0.16139 0.42292 0.0
C511 C 0.95836 0.12854 0.43572 0.0
H512 H 0.07903 0.17377 0.36429 0.0
H513 H 0.01638 0.20437 0.44052 0.0
S514 S 0.92644 0.97838 0.38893 0.0
N515 N 0.98287 -0.00111 0.35065 0.0
N516 N 0.91235 0.03305 0.43051 0.0
C517 C 0.95481 0.07143 0.41535 0.0
C518 C -0.00689 0.05273 0.37226 0.0
C519 C 0.16751 0.7615 0.61908 0.0
C520 C 0.20016 0.77317 0.57003 0.0
C521 C 0.16738 0.70798 0.64459 0.0
C522 C 0.19665 0.66277 0.61963 0.0
H523 H 0.14001 0.79311 0.6365 0.0
H524 H 0.13757 0.69942 0.67929 0.0
S525 S 0.28356 0.67078 0.48758 0.0
N526 N 0.2635 0.73606 0.4985 0.0
N527 N 0.25717 0.6337 0.54164 0.0
C528 C 0.23089 0.6748 0.57173 0.0
C529 C 0.23347 0.73022 0.5477 0.0
C530 C 0.53318 0.00127 0.82975 0.0
C531 C 0.49428 0.95321 0.82673 0.0
C532 C 0.58501 -0.00035 0.85973 0.0
C533 C 0.59787 0.95082 0.88966 0.0
H534 H 0.526 0.03821 0.80443 0.0
H535 H 0.61728 0.03419 0.85482 0.0
S536 S 0.50387 0.81891 0.90391 0.0
N537 N 0.46864 0.85872 0.86053 0.0
N538 N 0.56325 0.85701 0.92141 0.0
C539 C 0.55561 0.90555 0.89257 0.0
C540 C 0.50449 0.90626 0.85975 0.0
C541 C 0.26027 0.2497 0.08385 0.0
C542 C 0.30441 0.21157 0.08655 0.0
C543 C 0.26807 0.30623 0.10569 0.0
C544 C 0.31912 0.32568 0.13383 0.0
H545 H 0.22046 0.23712 0.06254 0.0
H546 H 0.23604 0.33605 0.09637 0.0
S547 S 0.44131 0.23892 0.16524 0.0
N548 N 0.39762 0.19538 0.12625 0.0
N549 N 0.40964 0.29943 0.17219 0.0
C550 C 0.36013 0.28563 0.14316 0.0
C551 C 0.35381 0.22947 0.11789 0.0
C552 C 0.97442 0.92465 0.12874 0.0
C553 C 0.00214 0.97912 0.1317 0.0
C554 C 0.92152 0.91484 0.10121 0.0
C555 C 0.89276 0.95985 0.07796 0.0
H556 H -0.00707 0.88978 0.14962 0.0
H557 H 0.90071 0.87252 0.10238 0.0
S558 S 0.94883 0.11002 0.06943 0.0
N559 N -0.00035 0.07804 0.10295 0.0
N560 N 0.89737 0.0601 0.05618 0.0
C561 C 0.92077 0.01421 0.07855 0.0
C562 C 0.97603 0.02384 0.10445 0.0
C563 C 0.19737 0.71433 0.36126 0.0
C564 C 0.23548 0.76137 0.35049 0.0
C565 C 0.20358 0.66132 0.33266 0.0
C566 C 0.24911 0.65331 0.29421 0.0
H567 H 0.1666 0.71682 0.39576 0.0
H568 H 0.17713 0.62464 0.34524 0.0
S569 S 0.34108 0.76904 0.23366 0.0
N570 N 0.30656 0.8005 0.28564 0.0
N571 N 0.31946 0.70124 0.23386 0.0
C572 C 0.27998 0.70229 0.27621 0.0
C573 C 0.27343 0.756 0.30464 0.0
C574 C 0.53363 0.0208 0.66446 0.0
C575 C 0.4839 0.0418 0.64141 0.0
C576 C 0.58656 0.02965 0.63708 0.0
C577 C 0.59145 0.06008 0.58582 0.0
H578 H 0.53232 -0.00045 0.70498 0.0
H579 H 0.62451 0.01589 0.65805 0.0
S580 S 0.47408 0.12123 0.50813 0.0
N581 N 0.44212 0.09139 0.56369 0.0
N582 N 0.54221 0.10872 0.51238 0.0
C583 C 0.54157 0.07821 0.56094 0.0
C584 C 0.48767 0.06917 0.58884 0.0
C585 C 0.17997 0.23329 0.85988 0.0
C586 C 0.22857 0.22195 0.8919 0.0
C587 C 0.17641 0.28478 0.83157 0.0
C588 C 0.22177 0.32678 0.83358 0.0
H589 H 0.14337 0.20317 0.85877 0.0
H590 H 0.13649 0.29316 0.81071 0.0
S591 S 0.35862 0.31829 0.91203 0.0
N592 N 0.32348 0.25659 0.9237 0.0
N593 N 0.31699 0.35379 0.8702 0.0
C594 C 0.27171 0.31521 0.86355 0.0
C595 C 0.27524 0.2625 0.89245 0.0
C596 C 0.35837 0.90055 -0.00297 0.0
C597 C 0.37608 0.95697 0.98407 0.0
C598 C 0.39815 0.86287 0.01698 0.0
C599 C 0.45527 0.88232 0.02883 0.0
H600 H 0.31338 0.88715 -0.00287 0.0
H601 H 0.38209 0.82221 0.03243 0.0
S602 S 0.52291 0.01867 0.98304 0.0
N603 N 0.45535 0.02368 0.9665 0.0
N604 N 0.52914 0.95568 0.01082 0.0
C605 C 0.47429 0.93447 0.00553 0.0
C606 C 0.43446 0.97155 0.98252 0.0
C607 C 0.92116 0.45921 0.08741 0.0
C608 C 0.87151 0.427 0.06879 0.0
C609 C 0.94688 0.50206 0.05289 0.0
C610 C 0.92316 0.51453 -0.00075 0.0
H611 H 0.9394 0.45221 0.12926 0.0
H612 H 0.98463 0.52609 0.06884 0.0
S613 S 0.79955 0.4354 0.92774 0.0
N614 N 0.80404 0.40591 0.99074 0.0
N615 N 0.85243 0.48482 0.92607 0.0
C616 C 0.87609 0.47951 0.97892 0.0
C617 C 0.85007 0.43653 0.01376 0.0
C618 C 0.76057 0.70953 0.26885 0.0
C619 C 0.77109 0.67138 0.31218 0.0
C620 C 0.70588 0.72577 0.25562 0.0
C621 C 0.65793 0.69949 0.28179 0.0
H622 H 0.79368 0.72067 0.23969 0.0
H623 H 0.70072 0.75066 0.21757 0.0
S624 S 0.6603 0.60049 0.40316 0.0
N625 N 0.72852 0.61354 0.38749 0.0
N626 N 0.62384 0.63843 0.3587 0.0
C627 C 0.66729 0.66506 0.32932 0.0
C628 C 0.72412 0.65132 0.34484 0.0
C629 C 0.53946 0.57493 0.4967 0.0
C630 C 0.56704 0.55825 0.54628 0.0
C631 C 0.52002 0.53449 0.45466 0.0
C632 C 0.52603 0.47605 0.46179 0.0
H633 H 0.53875 0.61979 0.48749 0.0
H634 H 0.50567 0.54922 0.41376 0.0
S635 S 0.59818 0.41125 0.58304 0.0
N636 N 0.604 0.48032 0.59814 0.0
N637 N 0.5614 0.40354 0.52255 0.0
C638 C 0.55116 0.4587 0.5127 0.0
C639 C 0.57379 0.50008 0.55378 0.0
C640 C 0.30032 0.94311 0.15457 0.0
C641 C 0.27409 0.9416 0.20832 0.0
C642 C 0.35733 0.93202 0.14795 0.0
C643 C 0.3916 0.91614 0.19406 0.0
H644 H 0.27694 0.95391 0.11674 0.0
H645 H 0.37369 0.93471 0.10513 0.0
S646 S 0.34482 0.91162 0.34569 0.0
N647 N 0.28743 0.92912 0.31065 0.0
N648 N 0.39545 0.90489 0.29728 0.0
C649 C 0.3666 0.91662 0.24894 0.0
C650 C 0.30785 0.92976 0.25617 0.0
C651 C 0.12825 0.07183 0.47701 0.0
C652 C 0.09494 0.0213 0.48682 0.0
C653 C 0.11533 0.1236 0.50395 0.0
C654 C 0.06729 0.12642 0.53969 0.0
H655 H 0.1674 0.07019 0.45275 0.0
H656 H 0.1458 0.16004 0.50122 0.0
S657 S 0.95472 0.01209 0.56142 0.0
N658 N 0.00269 0.98223 0.52047 0.0
N659 N 0.97977 0.07857 0.57314 0.0
C660 C 0.02908 0.07858 0.54247 0.0
C661 C 0.04231 0.0261 0.51508 0.0
C662 C 0.71102 0.4892 0.26314 0.0
C663 C 0.75492 0.45291 0.27443 0.0
C664 C 0.65416 0.47327 0.27644 0.0
C665 C 0.63941 0.42067 0.30172 0.0
H666 H 0.72103 0.53094 0.24577 0.0
H667 H 0.62195 0.50356 0.26975 0.0
S668 S 0.74073 0.31537 0.34816 0.0
N669 N 0.78103 0.36527 0.31656 0.0
N670 N 0.67465 0.33504 0.34238 0.0
C671 C 0.68329 0.38421 0.31325 0.0
C672 C 0.74101 0.40053 0.29952 0.0
C673 C 0.81359 0.63329 0.78103 0.0
C674 C 0.76178 0.63835 0.8103 0.0
C675 C 0.86592 0.64492 0.80966 0.0
C676 C 0.86741 0.66044 0.86856 0.0
H677 H 0.81369 0.61521 0.73769 0.0
H678 H 0.90472 0.63437 0.78765 0.0
S679 S 0.74311 0.6901 0.96005 0.0
N680 N 0.71475 0.66772 0.8978 0.0
N681 N 0.81312 0.69152 0.95126 0.0
C682 C 0.81594 0.67369 0.89532 0.0
C683 C 0.76287 0.66117 0.86649 0.0
C684 C 0.45471 0.89811 0.49535 0.0
C685 C 0.43468 0.84065 0.49063 0.0
C686 C 0.48269 0.92465 0.44907 0.0
C687 C 0.49221 0.89402 0.3973 0.0
H688 H 0.45497 0.92045 0.53675 0.0
H689 H 0.50403 0.96645 0.45666 0.0
S690 S 0.43732 0.74596 0.36139 0.0
N691 N 0.41593 0.75766 0.42796 0.0
N692 N 0.4719 0.80574 0.34237 0.0
C693 C 0.46557 0.83903 0.39025 0.0
C694 C 0.43611 0.81266 0.43685 0.0
C695 C 0.44782 0.20431 0.68976 0.0
C696 C 0.50683 0.21671 0.68403 0.0
C697 C 0.41058 0.21283 0.64353 0.0
C698 C 0.43086 0.2391 0.5932 0.0
H699 H 0.42983 0.19443 0.73139 0.0
H700 H 0.36526 0.20702 0.65025 0.0
S701 S 0.58286 0.25377 0.54951 0.0
N702 N 0.58474 0.23243 0.61646 0.0
N703 N 0.51454 0.25837 0.53401 0.0
C704 C 0.49004 0.24026 0.58357 0.0
C705 C 0.52797 0.22717 0.62852 0.0
C706 C 0.03729 0.26187 0.9168 0.0
C707 C 0.0593 0.22088 0.95257 0.0
C708 C 0.00841 0.24545 0.86572 0.0
C709 C 0.00109 0.18758 0.8492 0.0
H710 H 0.0376 0.30609 0.93085 0.0
H711 H 0.98439 0.27662 0.84416 0.0
S712 S 0.07421 0.06885 0.91109 0.0
N713 N 0.08685 0.12262 0.95746 0.0
N714 N 0.03598 0.09358 0.85892 0.0
C715 C 0.03391 0.14885 0.87702 0.0
C716 C 0.06128 0.16469 0.93028 0.0
C717 C 0.12217 0.82626 0.29311 0.0
C718 C 0.06751 0.80143 0.27988 0.0
C719 C 0.16461 0.83064 0.25075 0.0
C720 C 0.15265 0.81056 0.19448 0.0
H721 H 0.13337 0.8373 0.33705 0.0
H722 H 0.20816 0.84168 0.26372 0.0
S723 S 0.01003 0.77533 0.13268 0.0
N724 N -0.00024 0.77702 0.20287 0.0
N725 N 0.07815 0.79418 0.12302 0.0
C726 C 0.09488 0.80475 0.1784 0.0
C727 C 0.0526 0.79487 0.2216 0.0
C728 C 0.65979 0.08722 0.96957 0.0
C729 C 0.61669 0.12588 0.97738 0.0
C730 C 0.67337 0.0502 0.01327 0.0
C731 C 0.64311 0.05001 0.06517 0.0
H732 H 0.6836 0.08621 0.92975 0.0
H733 H 0.70877 0.02315 0.00728 0.0
S734 S 0.53019 0.14573 0.10782 0.0
N735 N 0.54703 0.1646 0.04187 0.0
N736 N 0.57141 0.09393 0.12355 0.0
C737 C 0.6013 0.08974 0.07387 0.0
C738 C 0.58838 0.12809 0.03004 0.0
C739 C 0.14121 0.28218 0.28206 0.0
C740 C 0.14699 0.3258 0.24191 0.0
C741 C 0.16951 0.28798 0.33566 0.0
C742 C 0.20347 0.33791 0.35064 0.0
H743 H 0.1125 0.24502 0.27322 0.0
H744 H 0.15975 0.25626 0.36767 0.0
S745 S 0.2282 0.46367 0.26041 0.0
N746 N 0.18796 0.41902 0.21996 0.0
N747 N 0.24206 0.43001 0.31958 0.0
C748 C 0.21271 0.37925 0.30845 0.0
C749 C 0.18325 0.37366 0.25486 0.0
C750 C 0.03186 0.89102 0.59184 0.0
C751 C -0.00671 0.85008 0.56502 0.0
C752 C 0.02584 0.90773 0.64972 0.0
C753 C 0.98527 0.87944 0.68501 0.0
H754 H 0.06422 0.91352 0.56722 0.0
H755 H 0.05037 0.94552 0.66534 0.0
S756 S 0.90553 0.74241 0.64405 0.0
N757 N 0.92761 0.76867 0.58256 0.0
N758 N 0.92946 0.78869 0.69404 0.0
C759 C 0.9587 0.82792 0.66198 0.0
C760 C 0.95933 0.81582 0.60146 0.0
C761 C 0.28457 0.66595 0.7801 0.0
C762 C 0.32352 0.71238 0.76933 0.0
C763 C 0.25361 0.66394 0.8317 0.0
C764 C 0.26735 0.70465 0.87617 0.0
H765 H 0.28196 0.62895 0.75117 0.0
H766 H 0.23046 0.62411 0.84177 0.0
S767 S 0.33704 0.84772 0.85494 0.0
N768 N 0.3529 0.81063 0.7963 0.0
N769 N 0.29718 0.80406 0.89487 0.0
C770 C 0.29339 0.75693 0.85971 0.0
C771 C 0.32358 0.76035 0.80666 0.0
C772 C 0.45244 0.52871 0.87668 0.0
C773 C 0.50868 0.54818 0.89023 0.0
C774 C 0.40651 0.54769 0.90824 0.0
C775 C 0.41473 0.58992 0.95216 0.0
H776 H 0.4436 0.50109 0.83918 0.0
H777 H 0.36371 0.53272 0.89477 0.0
S778 S 0.55477 0.65478 0.00339 0.0
N779 N 0.57138 0.60791 0.9529 0.0
N780 N 0.48435 0.6494 0.00825 0.0
C781 C 0.47126 0.60735 0.96831 0.0
C782 C 0.51845 0.58535 0.93791 0.0
C783 C 0.76069 0.18763 0.23423 0.0
C784 C 0.71124 0.21808 0.23673 0.0
C785 C 0.75802 0.12864 0.24073 0.0
C786 C 0.70519 0.09861 0.24825 0.0
H787 H 0.80028 0.20807 0.22008 0.0
H788 H 0.79507 0.10555 0.22904 0.0
S789 S 0.56599 0.16072 0.27494 0.0
N790 N 0.61036 0.21601 0.26112 0.0
N791 N 0.60501 0.10454 0.27286 0.0
C792 C 0.65746 0.12976 0.26177 0.0
C793 C 0.66021 0.18987 0.25489 0.0
C794 C 0.00998 0.42728 0.41865 0.0
C795 C 0.01632 0.48303 0.39807 0.0
C796 C 0.04705 0.40851 0.46052 0.0
C797 C 0.09526 0.44299 0.47906 0.0
H798 H 0.97695 0.39743 0.40142 0.0
H799 H 0.04362 0.36367 0.47062 0.0
S800 S 0.12486 0.59505 0.44632 0.0
N801 N 0.0669 0.57596 0.40816 0.0
N802 N 0.14176 0.53796 0.48087 0.0
C803 C 0.09825 0.50053 0.46366 0.0
C804 C 0.05844 0.52076 0.42338 0.0
C805 C 0.76828 0.76762 0.75245 0.0
C806 C 0.76663 0.76625 0.69223 0.0
C807 C 0.8005 0.81071 0.78328 0.0
C808 C 0.82557 0.85753 0.75494 0.0
H809 H 0.74635 0.73437 0.7756 0.0
H810 H 0.80712 0.80675 0.82899 0.0
S811 S 0.82825 0.87811 0.59737 0.0
N812 N 0.79317 0.81576 0.60528 0.0
N813 N 0.84223 0.90291 0.66315 0.0
C814 C 0.81809 0.86012 0.6949 0.0
C815 C 0.79078 0.81338 0.66349 0.0
C816 C 0.4933 0.49092 0.66491 0.0
C817 C 0.51224 0.45874 0.71055 0.0
C818 C 0.44586 0.47082 0.6309 0.0
C819 C 0.4125 0.42168 0.6459 0.0
H820 H 0.51828 0.52862 0.6523 0.0
H821 H 0.43839 0.49073 0.59039 0.0
S822 S 0.43159 0.33524 0.77434 0.0
N823 N 0.48645 0.38268 0.77617 0.0
N824 N 0.39354 0.35045 0.71773 0.0
C825 C 0.42455 0.3967 0.69832 0.0
C826 C 0.47518 0.41394 0.72969 0.0
C827 C 0.79431 0.13742 0.01748 0.0
C828 C 0.77255 0.19178 0.0224 0.0
C829 C 0.81101 0.11515 0.9636 0.0
C830 C 0.80726 0.14719 0.91363 0.0
H831 H 0.80158 0.1138 0.05581 0.0
H832 H 0.83212 0.07543 0.96185 0.0
S833 S 0.7497 0.28941 0.90465 0.0
N834 N 0.74291 0.2739 0.97249 0.0
N835 N 0.77683 0.23376 0.87262 0.0
C836 C 0.78081 0.19896 0.91777 0.0
C837 C 0.76286 0.22086 0.97191 0.0
C838 C 0.07579 0.57519 0.24292 0.0
C839 C 0.02618 0.59045 0.21468 0.0
C840 C 0.12958 0.58349 0.21702 0.0
C841 C 0.13528 0.61021 0.1638 0.0
H842 H 0.07358 0.56022 0.28644 0.0
H843 H 0.16711 0.57687 0.24235 0.0
S844 S 0.01718 0.64846 0.06977 0.0
N845 N 0.98481 0.62466 0.12797 0.0
N846 N 0.08606 0.6408 0.07947 0.0
C847 C 0.08517 0.61681 0.1319 0.0
C848 C 0.0305 0.60855 0.15817 0.0
C849 C 0.71168 0.77619 0.44394 0.0
C850 C 0.70297 0.79537 0.50077 0.0
C851 C 0.70667 0.81309 0.39833 0.0
C852 C 0.69313 0.86981 0.40897 0.0
H853 H 0.71606 0.73144 0.4343 0.0
H854 H 0.70455 0.79494 0.35517 0.0
S855 S 0.69144 0.94548 0.55018 0.0
N856 N 0.69559 0.87777 0.56546 0.0
N857 N 0.69359 0.94794 0.47936 0.0
C858 C 0.69919 0.89204 0.46544 0.0
C859 C 0.70036 0.8542 0.51182 0.0
C860 C 0.85126 0.50671 0.61973 0.0
C861 C 0.80412 0.51125 0.58374 0.0
C862 C 0.87977 0.45658 0.62008 0.0
C863 C 0.86158 0.40879 0.58548 0.0
H864 H 0.86623 0.54216 0.6478 0.0
H865 H 0.91629 0.45468 0.64829 0.0
S866 S 0.73782 0.39884 0.48577 0.0
N867 N 0.73928 0.46482 0.51263 0.0
N868 N 0.79204 0.36851 0.51561 0.0
C869 C 0.81408 0.4126 0.54935 0.0
C870 C 0.78561 0.46459 0.54783 0.0
C871 C 0.28244 0.07831 0.48499 0.0
C872 C 0.31449 0.03425 0.46247 0.0
C873 C 0.2968 0.13562 0.47272 0.0
C874 C 0.34455 0.15019 0.43865 0.0
H875 H 0.24578 0.06819 0.51182 0.0
H876 H 0.26961 0.16824 0.48837 0.0
S877 S 0.4443 0.05083 0.37247 0.0
N878 N 0.39882 0.0099 0.40933 0.0
N879 N 0.42308 0.11607 0.38174 0.0
C880 C 0.37707 0.10637 0.41651 0.0
C881 C 0.3634 0.04876 0.43046 0.0
C882 C 0.19063 0.10162 0.77192 0.0
C883 C 0.24569 0.12543 0.7611 0.0
C884 C 0.14237 0.12873 0.75372 0.0
C885 C 0.1486 0.18082 0.72526 0.0
H886 H 0.18525 0.05942 0.78894 0.0
H887 H 0.1008 0.106 0.75591 0.0
S888 S 0.28307 0.26936 0.70865 0.0
N889 N 0.30317 0.21043 0.73763 0.0
N890 N 0.21313 0.26096 0.70045 0.0
C891 C 0.2031 0.20883 0.72325 0.0
C892 C 0.25174 0.18128 0.74229 0.0
C893 C 0.18358 0.90975 0.02371 0.0
C894 C 0.14592 0.95338 0.01695 0.0
C895 C 0.16609 0.85256 0.01172 0.0
C896 C 0.11094 0.83769 0.99017 0.0
H897 H 0.22804 0.92038 0.03391 0.0
H898 H 0.19832 0.82144 0.01071 0.0
S899 S -0.00633 0.93438 0.97392 0.0
N900 N 0.04822 0.97637 -0.00201 0.0
N901 N 0.01643 0.86929 0.97132 0.0
C902 C 0.0708 0.8797 0.99117 0.0
C903 C 0.08827 0.93782 0.00477 0.0
C904 C 0.77899 0.34693 0.78828 0.0
C905 C 0.78112 0.40628 0.78905 0.0
C906 C 0.82667 0.31666 0.77295 0.0
C907 C 0.87687 0.34576 0.75413 0.0
H908 H 0.73867 0.3242 0.79527 0.0
H909 H 0.82108 0.271 0.76578 0.0
S910 S 0.91099 0.50155 0.77021 0.0
N911 N 0.84231 0.49329 0.78614 0.0
N912 N 0.93217 0.43681 0.75616 0.0
C913 C 0.88294 0.40498 0.76578 0.0
C914 C 0.83433 0.43562 0.78156 0.0
C915 C 0.58271 0.4589 0.15524 0.0
C916 C 0.62998 0.45324 0.11927 0.0
C917 C 0.5597 0.51188 0.16417 0.0
C918 C 0.58377 0.56074 0.13798 0.0
H919 H 0.56672 0.42339 0.18059 0.0
H920 H 0.52749 0.51575 0.19692 0.0
S921 S 0.70788 0.56712 0.03956 0.0
N922 N 0.69855 0.49909 0.0551 0.0
N923 N 0.65703 0.59975 0.07395 0.0
C924 C 0.62907 0.55476 0.09927 0.0
C925 C 0.65177 0.50053 0.08937 0.0
C926 C 0.23227 0.81651 0.72717 0.0
C927 C 0.23053 0.87607 0.72545 0.0
C928 C 0.19143 0.7839 0.75809 0.0
C929 C 0.14625 0.80948 0.78583 0.0
H930 H 0.26798 0.79551 0.70871 0.0
H931 H 0.19801 0.73946 0.76422 0.0
S932 S 0.10963 0.95981 0.77337 0.0
N933 N 0.17192 0.95683 0.74059 0.0
N934 N 0.09218 0.89439 0.79385 0.0
C935 C 0.13782 0.86685 0.77399 0.0
C936 C 0.1809 0.90064 0.74521 0.0
C937 C 0.23997 0.21762 0.2126 0.0
C938 C 0.24713 0.15953 0.20242 0.0
C939 C 0.27972 0.25107 0.24563 0.0
C940 C 0.32815 0.22728 0.26731 0.0
H941 H 0.20128 0.23571 0.19878 0.0
H942 H 0.2708 0.29416 0.2579 0.0
S943 S 0.37555 0.08231 0.23504 0.0
N944 N 0.31207 0.08302 0.20413 0.0
N945 N 0.3884 0.14658 0.26465 0.0
C946 C 0.34039 0.1719 0.24891 0.0
C947 C 0.29931 0.1376 0.21663 0.0
loop_
_geom_bond_atom_site_label_1
_geom_bond_atom_site_label_2
_geom_bond_distance
_geom_bond_site_symmetry_2
_ccdc_geom_bond_type
Co0 O1 2.216 . S
Co0 O2 2.091 . S
Co0 O4 2.004 1_455 S
Co0 O10 2.021 1_455 S
Co0 O12 2.137 . S
Co0 O13 2.244 . S
O1 Co0 2.216 . S
O1 C8 1.247 . S
O2 Co0 2.091 . S
O2 C8 1.261 . S
C3 O12 1.247 . S
C3 O13 1.272 . S
O4 Co0 2.004 1_655 S
O4 C9 1.259 . S
Co5 O6 2.061 1_455 S
Co5 O11 2.052 1_455 S
Co5 O13 2.135 . S
O6 Co5 2.061 1_655 S
O6 C9 1.235 . S
C7 O10 1.238 . S
C7 O11 1.241 . S
C8 O1 1.247 . S
C8 O2 1.261 . S
C9 O4 1.259 . S
C9 O6 1.235 . S
O10 Co0 2.021 1_655 S
O10 C7 1.238 . S
O11 Co5 2.052 1_655 S
O11 C7 1.241 . S
O12 Co0 2.137 . S
O12 C3 1.247 . S
O13 Co0 2.244 . S
O13 C3 1.272 . S
O13 Co5 2.135 . S
Co14 O15 2.216 . S
Co14 O16 2.091 1_455 S
Co14 O18 2.004 1_455 S
Co14 O24 2.021 1_455 S
Co14 O26 2.137 . S
Co14 O27 2.244 . S
O15 Co14 2.216 . S
O15 C22 1.247 . S
O16 Co14 2.091 1_655 S
O16 C22 1.261 1_655 S
C17 O26 1.247 . S
C17 O27 1.272 . S
O18 Co14 2.004 1_655 S
O18 C23 1.259 . S
Co19 O20 2.061 1_455 S
Co19 O25 2.052 1_455 S
Co19 O27 2.135 . S
O20 Co19 2.061 1_655 S
O20 C23 1.235 . S
C21 O24 1.238 . S
C21 O25 1.241 . S
C22 O15 1.247 . S
C22 O16 1.261 1_455 S
C23 O18 1.259 . S
C23 O20 1.235 . S
O24 Co14 2.021 1_655 S
O24 C21 1.238 . S
O25 Co19 2.052 1_655 S
O25 C21 1.241 . S
O26 Co14 2.137 . S
O26 C17 1.247 . S
O27 Co14 2.244 . S
O27 C17 1.272 . S
O27 Co19 2.135 . S
Co28 O29 2.216 . S
Co28 O30 2.091 . S
Co28 O32 2.004 . S
Co28 O38 2.021 . S
Co28 O40 2.137 . S
Co28 O41 2.244 . S
O29 Co28 2.216 . S
O29 C36 1.247 . S
O30 Co28 2.091 . S
O30 C36 1.261 . S
C31 O40 1.247 . S
C31 O41 1.272 . S
O32 Co28 2.004 . S
O32 C37 1.259 . S
Co33 O34 2.061 . S
Co33 O39 2.052 . S
Co33 O41 2.135 . S
O34 Co33 2.061 . S
O34 C37 1.235 . S
C35 O38 1.238 . S
C35 O39 1.241 . S
C36 O29 1.247 . S
C36 O30 1.261 . S
C37 O32 1.259 . S
C37 O34 1.235 . S
O38 Co28 2.021 . S
O38 C35 1.238 . S
O39 Co33 2.052 . S
O39 C35 1.241 . S
O40 Co28 2.137 . S
O40 C31 1.247 . S
O41 Co28 2.244 . S
O41 C31 1.272 . S
O41 Co33 2.135 . S
Co42 O43 2.216 . S
Co42 O44 2.091 . S
Co42 O46 2.004 . S
Co42 O52 2.021 . S
Co42 O54 2.137 . S
Co42 O55 2.244 . S
O43 Co42 2.216 . S
O43 C50 1.247 . S
O44 Co42 2.091 . S
O44 C50 1.261 . S
C45 O54 1.247 . S
C45 O55 1.272 . S
O46 Co42 2.004 . S
O46 C51 1.259 . S
Co47 O48 2.061 . S
Co47 O53 2.052 . S
Co47 O55 2.135 . S
O48 Co47 2.061 . S
O48 C51 1.235 . S
C49 O52 1.238 . S
C49 O53 1.241 . S
C50 O43 1.247 . S
C50 O44 1.261 . S
C51 O46 1.259 . S
C51 O48 1.235 . S
O52 Co42 2.021 . S
O52 C49 1.238 . S
O53 Co47 2.052 . S
O53 C49 1.241 . S
O54 Co42 2.137 . S
O54 C45 1.247 . S
O55 Co42 2.244 . S
O55 C45 1.272 . S
O55 Co47 2.135 . S
Co56 O57 2.216 . S
Co56 O58 2.091 . S
Co56 O60 2.004 1_565 S
Co56 O66 2.021 1_565 S
Co56 O68 2.137 . S
Co56 O69 2.244 1_565 S
O57 Co56 2.216 . S
O57 C64 1.247 . S
O58 Co56 2.091 . S
O58 C64 1.261 . S
C59 O68 1.247 . S
C59 O69 1.272 1_565 S
O60 Co56 2.004 1_545 S
O60 C65 1.259 . S
Co61 O62 2.061 . S
Co61 O67 2.052 . S
Co61 O69 2.135 . S
O62 Co61 2.061 . S
O62 C65 1.235 . S
C63 O66 1.238 . S
C63 O67 1.241 . S
C64 O57 1.247 . S
C64 O58 1.261 . S
C65 O60 1.259 . S
C65 O62 1.235 . S
O66 Co56 2.021 1_545 S
O66 C63 1.238 . S
O67 Co61 2.052 . S
O67 C63 1.241 . S
O68 Co56 2.137 . S
O68 C59 1.247 . S
O69 Co56 2.244 1_545 S
O69 C59 1.272 1_545 S
O69 Co61 2.135 . S
Co70 O71 2.216 . S
Co70 O72 2.091 . S
Co70 O74 2.004 . S
Co70 O80 2.021 . S
Co70 O82 2.137 . S
Co70 O83 2.244 . S
O71 Co70 2.216 . S
O71 C78 1.247 . S
O72 Co70 2.091 . S
O72 C78 1.261 . S
C73 O82 1.247 . S
C73 O83 1.272 . S
O74 Co70 2.004 . S
O74 C79 1.259 . S
Co75 O76 2.061 . S
Co75 O81 2.052 . S
Co75 O83 2.135 . S
O76 Co75 2.061 . S
O76 C79 1.235 . S
C77 O80 1.238 . S
C77 O81 1.241 . S
C78 O71 1.247 . S
C78 O72 1.261 . S
C79 O74 1.259 . S
C79 O76 1.235 . S
O80 Co70 2.021 . S
O80 C77 1.238 . S
O81 Co75 2.052 . S
O81 C77 1.241 . S
O82 Co70 2.137 . S
O82 C73 1.247 . S
O83 Co70 2.244 . S
O83 C73 1.272 . S
O83 Co75 2.135 . S
Co84 O85 2.216 . S
Co84 O86 2.091 . S
Co84 O88 2.004 . S
Co84 O94 2.021 1_545 S
Co84 O96 2.137 . S
Co84 O97 2.244 . S
O85 Co84 2.216 . S
O85 C92 1.247 . S
O86 Co84 2.091 . S
O86 C92 1.261 . S
C87 O96 1.247 . S
C87 O97 1.272 . S
O88 Co84 2.004 . S
O88 C93 1.260 1_545 S
Co89 O90 2.061 . S
Co89 O95 2.052 . S
Co89 O97 2.135 1_565 S
O90 Co89 2.061 . S
O90 C93 1.234 . S
C91 O94 1.238 . S
C91 O95 1.241 . S
C92 O85 1.247 . S
C92 O86 1.261 . S
C93 O88 1.260 1_565 S
C93 O90 1.234 . S
O94 Co84 2.021 1_565 S
O94 C91 1.238 . S
O95 Co89 2.052 . S
O95 C91 1.241 . S
O96 Co84 2.137 . S
O96 C87 1.247 . S
O97 Co84 2.244 . S
O97 C87 1.272 . S
O97 Co89 2.135 1_545 S
Co98 O99 2.216 . S
Co98 O100 2.091 1_554 S
Co98 O102 2.004 1_554 S
Co98 O108 2.021 1_554 S
Co98 O110 2.137 . S
Co98 O111 2.244 . S
O99 Co98 2.216 . S
O99 C106 1.247 . S
O100 Co98 2.091 1_556 S
O100 C106 1.261 1_556 S
C101 O110 1.247 . S
C101 O111 1.272 . S
O102 Co98 2.004 1_556 S
O102 C107 1.259 . S
Co103 O104 2.061 1_554 S
Co103 O109 2.052 1_554 S
Co103 O111 2.135 . S
O104 Co103 2.061 1_556 S
O104 C107 1.235 . S
C105 O108 1.238 . S
C105 O109 1.241 . S
C106 O99 1.247 . S
C106 O100 1.261 1_554 S
C107 O102 1.259 . S
C107 O104 1.235 . S
O108 Co98 2.021 1_556 S
O108 C105 1.238 . S
O109 Co103 2.052 1_556 S
O109 C105 1.241 . S
O110 Co98 2.137 . S
O110 C101 1.247 . S
O111 Co98 2.244 . S
O111 C101 1.272 . S
O111 Co103 2.135 . S
Co112 O113 2.216 . S
Co112 O114 2.091 . S
Co112 O116 2.004 1_554 S
Co112 O122 2.021 1_554 S
Co112 O124 2.137 . S
Co112 O125 2.244 . S
O113 Co112 2.216 . S
O113 C120 1.247 . S
O114 Co112 2.091 . S
O114 C120 1.261 . S
C115 O124 1.247 . S
C115 O125 1.272 . S
O116 Co112 2.004 1_556 S
O116 C121 1.259 . S
Co117 O118 2.061 1_554 S
Co117 O123 2.052 . S
Co117 O125 2.135 . S
O118 Co117 2.061 1_556 S
O118 C121 1.235 . S
C119 O122 1.238 . S
C119 O123 1.241 1_556 S
C120 O113 1.247 . S
C120 O114 1.261 . S
C121 O116 1.259 . S
C121 O118 1.235 . S
O122 Co112 2.021 1_556 S
O122 C119 1.238 . S
O123 Co117 2.052 . S
O123 C119 1.241 1_554 S
O124 Co112 2.137 . S
O124 C115 1.247 . S
O125 Co112 2.244 . S
O125 C115 1.272 . S
O125 Co117 2.135 . S
Co126 O127 2.216 . S
Co126 O128 2.091 . S
Co126 O130 2.004 . S
Co126 O136 2.021 . S
Co126 O138 2.137 . S
Co126 O139 2.244 . S
O127 Co126 2.216 . S
O127 C134 1.247 . S
O128 Co126 2.091 . S
O128 C134 1.261 . S
C129 O138 1.247 . S
C129 O139 1.272 . S
O130 Co126 2.004 . S
O130 C135 1.259 . S
Co131 O132 2.061 . S
Co131 O137 2.052 . S
Co131 O139 2.135 . S
O132 Co131 2.061 . S
O132 C135 1.235 . S
C133 O136 1.238 . S
C133 O137 1.241 . S
C134 O127 1.247 . S
C134 O128 1.261 . S
C135 O130 1.259 . S
C135 O132 1.235 . S
O136 Co126 2.021 . S
O136 C133 1.238 . S
O137 Co131 2.052 . S
O137 C133 1.241 . S
O138 Co126 2.137 . S
O138 C129 1.247 . S
O139 Co126 2.244 . S
O139 C129 1.272 . S
O139 Co131 2.135 . S
Co140 O141 2.216 . S
Co140 O142 2.091 . S
Co140 O144 2.004 . S
Co140 O150 2.021 . S
Co140 O152 2.137 . S
Co140 O153 2.244 . S
O141 Co140 2.216 . S
O141 C148 1.247 . S
O142 Co140 2.091 . S
O142 C148 1.261 . S
C143 O152 1.247 . S
C143 O153 1.272 . S
O144 Co140 2.004 . S
O144 C149 1.259 . S
Co145 O146 2.061 . S
Co145 O151 2.052 . S
Co145 O153 2.135 . S
O146 Co145 2.061 . S
O146 C149 1.235 . S
C147 O150 1.238 . S
C147 O151 1.241 . S
C148 O141 1.247 . S
C148 O142 1.261 . S
C149 O144 1.259 . S
C149 O146 1.235 . S
O150 Co140 2.021 . S
O150 C147 1.238 . S
O151 Co145 2.052 . S
O151 C147 1.241 . S
O152 Co140 2.137 . S
O152 C143 1.247 . S
O153 Co140 2.244 . S
O153 C143 1.272 . S
O153 Co145 2.135 . S
Co154 O155 2.216 . S
Co154 O156 2.091 . S
Co154 O158 2.004 . S
Co154 O164 2.021 . S
Co154 O166 2.137 . S
Co154 O167 2.244 . S
O155 Co154 2.216 . S
O155 C162 1.247 . S
O156 Co154 2.091 . S
O156 C162 1.261 . S
C157 O166 1.247 . S
C157 O167 1.272 . S
O158 Co154 2.004 . S
O158 C163 1.259 . S
Co159 O160 2.061 . S
Co159 O165 2.052 . S
Co159 O167 2.135 . S
O160 Co159 2.061 . S
O160 C163 1.235 . S
C161 O164 1.238 . S
C161 O165 1.241 . S
C162 O155 1.247 . S
C162 O156 1.261 . S
C163 O158 1.259 . S
C163 O160 1.235 . S
O164 Co154 2.021 . S
O164 C161 1.238 . S
O165 Co159 2.052 . S
O165 C161 1.241 . S
O166 Co154 2.137 . S
O166 C157 1.247 . S
O167 Co154 2.244 . S
O167 C157 1.272 . S
O167 Co159 2.135 . S
H168 C176 0.930 . S
H169 C179 0.930 . S
H170 C181 0.930 . S
H171 C182 0.970 . S
H172 C182 0.970 . S
H173 C184 0.930 . S
H174 C186 0.930 . S
H175 C188 0.930 1_455 S
C176 H168 0.930 . S
C176 C177 1.382 . S
C176 C178 1.426 . S
C177 C176 1.382 . S
C177 C181 1.389 . S
C178 C176 1.426 . S
C178 C179 1.375 . S
C178 C182 1.532 . S
C179 H169 0.930 . S
C179 C178 1.375 . S
C179 C180 1.416 . S
C180 C179 1.416 . S
C180 C181 1.371 . S
C181 H170 0.930 . S
C181 C177 1.389 . S
C181 C180 1.371 . S
C182 H171 0.970 . S
C182 H172 0.970 . S
C182 C178 1.532 . S
C182 C183 1.499 . S
C183 C182 1.499 . S
C183 C184 1.370 1_455 S
C183 C188 1.415 1_455 S
C184 H173 0.930 . S
C184 C183 1.370 1_655 S
C184 C185 1.407 . S
C185 C184 1.407 . S
C185 C186 1.365 . S
C186 H174 0.930 . S
C186 C185 1.365 . S
C186 C187 1.393 . S
C187 C186 1.393 . S
C187 C188 1.387 . S
C188 H175 0.930 1_655 S
C188 C183 1.415 1_655 S
C188 C187 1.387 . S
H189 C197 0.930 . S
H190 C200 0.930 . S
H191 C202 0.930 . S
H192 C203 0.970 . S
H193 C203 0.970 . S
H194 C205 0.933 . S
H195 C207 0.930 . S
H196 C209 0.930 1_455 S
C197 H189 0.930 . S
C197 C198 1.382 . S
C197 C199 1.426 . S
C198 C197 1.382 . S
C198 C202 1.389 . S
C199 C197 1.426 . S
C199 C200 1.375 . S
C199 C203 1.532 . S
C200 H190 0.930 . S
C200 C199 1.375 . S
C200 C201 1.416 . S
C201 C200 1.416 . S
C201 C202 1.371 . S
C202 H191 0.930 . S
C202 C198 1.389 . S
C202 C201 1.371 . S
C203 H192 0.970 . S
C203 H193 0.970 . S
C203 C199 1.532 . S
C203 C204 1.499 . S
C204 C203 1.499 . S
C204 C205 1.370 1_455 S
C204 C209 1.415 1_455 S
C205 H194 0.933 . S
C205 C204 1.370 1_655 S
C205 C206 1.407 . S
C206 C205 1.407 . S
C206 C207 1.365 . S
C207 H195 0.930 . S
C207 C206 1.365 . S
C207 C208 1.393 . S
C208 C207 1.393 . S
C208 C209 1.387 . S
C209 H196 0.930 1_655 S
C209 C204 1.415 1_655 S
C209 C208 1.387 . S
H210 C218 0.930 . S
H211 C221 0.930 . S
H212 C223 0.930 . S
H213 C224 0.970 . S
H214 C224 0.970 . S
H215 C226 0.930 . S
H216 C228 0.930 . S
H217 C230 0.930 . S
C218 H210 0.930 . S
C218 C219 1.382 . S
C218 C220 1.426 . S
C219 C218 1.382 . S
C219 C223 1.389 . S
C220 C218 1.426 . S
C220 C221 1.375 . S
C220 C224 1.532 . S
C221 H211 0.930 . S
C221 C220 1.375 . S
C221 C222 1.416 . S
C222 C221 1.416 . S
C222 C223 1.371 . S
C223 H212 0.930 . S
C223 C219 1.389 . S
C223 C222 1.371 . S
C224 H213 0.970 . S
C224 H214 0.970 . S
C224 C220 1.532 . S
C224 C225 1.499 . S
C225 C224 1.499 . S
C225 C226 1.370 . S
C225 C230 1.415 . S
C226 H215 0.930 . S
C226 C225 1.370 . S
C226 C227 1.407 . S
C227 C226 1.407 . S
C227 C228 1.365 . S
C228 H216 0.930 . S
C228 C227 1.365 . S
C228 C229 1.393 . S
C229 C228 1.393 . S
C229 C230 1.387 . S
C230 H217 0.930 . S
C230 C225 1.415 . S
C230 C229 1.387 . S
H231 C239 0.930 . S
H232 C242 0.930 . S
H233 C244 0.930 . S
H234 C245 0.970 . S
H235 C245 0.970 . S
H236 C247 0.930 . S
H237 C249 0.930 . S
H238 C251 0.930 . S
C239 H231 0.930 . S
C239 C240 1.382 . S
C239 C241 1.426 . S
C240 C239 1.382 . S
C240 C244 1.389 . S
C241 C239 1.426 . S
C241 C242 1.375 . S
C241 C245 1.532 . S
C242 H232 0.930 . S
C242 C241 1.375 . S
C242 C243 1.416 . S
C243 C242 1.416 . S
C243 C244 1.371 . S
C244 H233 0.930 . S
C244 C240 1.389 . S
C244 C243 1.371 . S
C245 H234 0.970 . S
C245 H235 0.970 . S
C245 C241 1.532 . S
C245 C246 1.499 . S
C246 C245 1.499 . S
C246 C247 1.370 . S
C246 C251 1.415 . S
C247 H236 0.930 . S
C247 C246 1.370 . S
C247 C248 1.407 . S
C248 C247 1.407 . S
C248 C249 1.365 . S
C249 H237 0.930 . S
C249 C248 1.365 . S
C249 C250 1.393 . S
C250 C249 1.393 . S
C250 C251 1.387 . S
C251 H238 0.930 . S
C251 C246 1.415 . S
C251 C250 1.387 . S
H252 C260 0.930 . S
H253 C263 0.930 . S
H254 C265 0.930 . S
H255 C266 0.970 . S
H256 C266 0.970 . S
H257 C268 0.930 . S
H258 C270 0.930 . S
H259 C272 0.930 . S
C260 H252 0.930 . S
C260 C261 1.382 . S
C260 C262 1.426 . S
C261 C260 1.382 . S
C261 C265 1.389 . S
C262 C260 1.426 . S
C262 C263 1.375 . S
C262 C266 1.532 1_545 S
C263 H253 0.930 . S
C263 C262 1.375 . S
C263 C264 1.416 . S
C264 C263 1.416 . S
C264 C265 1.371 . S
C265 H254 0.930 . S
C265 C261 1.389 . S
C265 C264 1.371 . S
C266 H255 0.970 . S
C266 H256 0.970 . S
C266 C262 1.532 1_565 S
C266 C267 1.499 . S
C267 C266 1.499 . S
C267 C268 1.370 . S
C267 C272 1.415 . S
C268 H257 0.930 . S
C268 C267 1.370 . S
C268 C269 1.407 . S
C269 C268 1.407 . S
C269 C270 1.365 . S
C270 H258 0.930 . S
C270 C269 1.365 . S
C270 C271 1.393 . S
C271 C270 1.393 . S
C271 C272 1.387 . S
C272 H259 0.930 . S
C272 C267 1.415 . S
C272 C271 1.387 . S
H273 C281 0.930 . S
H274 C284 0.930 . S
H275 C286 0.930 . S
H276 C287 0.970 . S
H277 C287 0.970 . S
H278 C289 0.930 . S
H279 C291 0.930 . S
H280 C293 0.930 . S
C281 H273 0.930 . S
C281 C282 1.382 . S
C281 C283 1.426 . S
C282 C281 1.382 . S
C282 C286 1.389 . S
C283 C281 1.426 . S
C283 C284 1.375 . S
C283 C287 1.532 . S
C284 H274 0.930 . S
C284 C283 1.375 . S
C284 C285 1.416 . S
C285 C284 1.416 . S
C285 C286 1.371 . S
C286 H275 0.930 . S
C286 C282 1.389 . S
C286 C285 1.371 . S
C287 H276 0.970 . S
C287 H277 0.970 . S
C287 C283 1.532 . S
C287 C288 1.499 . S
C288 C287 1.499 . S
C288 C289 1.370 . S
C288 C293 1.415 . S
C289 H278 0.930 . S
C289 C288 1.370 . S
C289 C290 1.407 . S
C290 C289 1.407 . S
C290 C291 1.365 . S
C291 H279 0.930 . S
C291 C290 1.365 . S
C291 C292 1.393 . S
C292 C291 1.393 . S
C292 C293 1.387 . S
C293 H280 0.930 . S
C293 C288 1.415 . S
C293 C292 1.387 . S
H294 C302 0.930 . S
H295 C305 0.930 . S
H296 C307 0.930 . S
H297 C308 0.970 . S
H298 C308 0.970 . S
H299 C310 0.930 . S
H300 C312 0.930 . S
H301 C314 0.930 . S
C302 H294 0.930 . S
C302 C303 1.382 . S
C302 C304 1.426 1_565 S
C303 C302 1.382 . S
C303 C307 1.389 . S
C304 C302 1.426 1_545 S
C304 C305 1.375 1_545 S
C304 C308 1.532 . S
C305 H295 0.930 . S
C305 C304 1.375 1_565 S
C305 C306 1.416 . S
C306 C305 1.416 . S
C306 C307 1.371 . S
C307 H296 0.930 . S
C307 C303 1.389 . S
C307 C306 1.371 . S
C308 H297 0.970 . S
C308 H298 0.970 . S
C308 C304 1.532 . S
C308 C309 1.499 . S
C309 C308 1.499 . S
C309 C310 1.370 . S
C309 C314 1.415 . S
C310 H299 0.930 . S
C310 C309 1.370 . S
C310 C311 1.407 . S
C311 C310 1.407 . S
C311 C312 1.365 . S
C312 H300 0.930 . S
C312 C311 1.365 . S
C312 C313 1.393 . S
C313 C312 1.393 . S
C313 C314 1.387 . S
C314 H301 0.930 . S
C314 C309 1.415 . S
C314 C313 1.387 . S
H315 C323 0.930 . S
H316 C326 0.930 . S
H317 C328 0.930 . S
H318 C329 0.970 . S
H319 C329 0.970 . S
H320 C331 0.930 . S
H321 C333 0.930 . S
H322 C335 0.930 . S
C323 H315 0.930 . S
C323 C324 1.382 . S
C323 C325 1.426 . S
C324 C323 1.382 . S
C324 C328 1.389 . S
C325 C323 1.426 . S
C325 C326 1.375 . S
C325 C329 1.532 . S
C326 H316 0.930 . S
C326 C325 1.375 . S
C326 C327 1.416 . S
C327 C326 1.416 . S
C327 C328 1.371 . S
C328 H317 0.930 . S
C328 C324 1.389 . S
C328 C327 1.371 . S
C329 H318 0.970 . S
C329 H319 0.970 . S
C329 C325 1.532 . S
C329 C330 1.499 . S
C330 C329 1.499 . S
C330 C331 1.370 . S
C330 C335 1.415 . S
C331 H320 0.930 . S
C331 C330 1.370 . S
C331 C332 1.407 1_554 S
C332 C331 1.407 1_556 S
C332 C333 1.365 . S
C333 H321 0.930 . S
C333 C332 1.365 . S
C333 C334 1.393 . S
C334 C333 1.393 . S
C334 C335 1.387 1_556 S
C335 H322 0.930 . S
C335 C330 1.415 . S
C335 C334 1.387 1_554 S
H336 C344 0.930 . S
H337 C347 0.930 . S
H338 C349 0.930 . S
H339 C350 0.970 . S
H340 C350 0.970 . S
H341 C352 0.930 1_554 S
H342 C354 0.930 . S
H343 C356 0.930 1_554 S
C344 H336 0.930 . S
C344 C345 1.382 . S
C344 C346 1.426 . S
C345 C344 1.382 . S
C345 C349 1.389 . S
C346 C344 1.426 . S
C346 C347 1.375 . S
C346 C350 1.532 . S
C347 H337 0.930 . S
C347 C346 1.375 . S
C347 C348 1.416 . S
C348 C347 1.416 . S
C348 C349 1.371 . S
C349 H338 0.930 . S
C349 C345 1.389 . S
C349 C348 1.371 . S
C350 H339 0.970 . S
C350 H340 0.970 . S
C350 C346 1.532 . S
C350 C351 1.499 . S
C351 C350 1.499 . S
C351 C352 1.370 1_554 S
C351 C356 1.415 1_554 S
C352 H341 0.930 1_556 S
C352 C351 1.370 1_556 S
C352 C353 1.407 . S
C353 C352 1.407 . S
C353 C354 1.365 . S
C354 H342 0.930 . S
C354 C353 1.365 . S
C354 C355 1.393 . S
C355 C354 1.393 . S
C355 C356 1.387 . S
C356 H343 0.930 1_556 S
C356 C351 1.415 1_556 S
C356 C355 1.387 . S
H357 C365 0.930 . S
H358 C368 0.930 . S
H359 C370 0.930 . S
H360 C371 0.970 . S
H361 C371 0.970 . S
H362 C373 0.930 . S
H363 C375 0.930 . S
H364 C377 0.930 . S
C365 H357 0.930 . S
C365 C366 1.382 . S
C365 C367 1.426 . S
C366 C365 1.382 . S
C366 C370 1.389 . S
C367 C365 1.426 . S
C367 C368 1.375 . S
C367 C371 1.532 . S
C368 H358 0.930 . S
C368 C367 1.375 . S
C368 C369 1.416 . S
C369 C368 1.416 . S
C369 C370 1.371 . S
C370 H359 0.930 . S
C370 C366 1.389 . S
C370 C369 1.371 . S
C371 H360 0.970 . S
C371 H361 0.970 . S
C371 C367 1.532 . S
C371 C372 1.499 . S
C372 C371 1.499 . S
C372 C373 1.370 . S
C372 C377 1.415 . S
C373 H362 0.930 . S
C373 C372 1.370 . S
C373 C374 1.407 . S
C374 C373 1.407 . S
C374 C375 1.365 . S
C375 H363 0.930 . S
C375 C374 1.365 . S
C375 C376 1.393 . S
C376 C375 1.393 . S
C376 C377 1.387 . S
C377 H364 0.930 . S
C377 C372 1.415 . S
C377 C376 1.387 . S
H378 C386 0.930 . S
H379 C389 0.930 . S
H380 C391 0.930 . S
H381 C392 0.970 . S
H382 C392 0.970 . S
H383 C394 0.930 . S
H384 C396 0.930 . S
H385 C398 0.930 . S
C386 H378 0.930 . S
C386 C387 1.382 . S
C386 C388 1.426 . S
C387 C386 1.382 . S
C387 C391 1.389 . S
C388 C386 1.426 . S
C388 C389 1.375 . S
C388 C392 1.532 . S
C389 H379 0.930 . S
C389 C388 1.375 . S
C389 C390 1.416 . S
C390 C389 1.416 . S
C390 C391 1.371 . S
C391 H380 0.930 . S
C391 C387 1.389 . S
C391 C390 1.371 . S
C392 H381 0.970 . S
C392 H382 0.970 . S
C392 C388 1.532 . S
C392 C393 1.499 . S
C393 C392 1.499 . S
C393 C394 1.370 . S
C393 C398 1.415 . S
C394 H383 0.930 . S
C394 C393 1.370 . S
C394 C395 1.407 . S
C395 C394 1.407 . S
C395 C396 1.365 . S
C396 H384 0.930 . S
C396 C395 1.365 . S
C396 C397 1.393 . S
C397 C396 1.393 . S
C397 C398 1.387 . S
C398 H385 0.930 . S
C398 C393 1.415 . S
C398 C397 1.387 . S
H399 C407 0.930 . S
H400 C410 0.930 . S
H401 C412 0.930 . S
H402 C413 0.970 . S
H403 C413 0.970 . S
H404 C415 0.930 . S
H405 C417 0.930 . S
H406 C419 0.930 . S
C407 H399 0.930 . S
C407 C408 1.382 . S
C407 C409 1.426 . S
C408 C407 1.382 . S
C408 C412 1.389 . S
C409 C407 1.426 . S
C409 C410 1.375 . S
C409 C413 1.532 . S
C410 H400 0.930 . S
C410 C409 1.375 . S
C410 C411 1.416 . S
C411 C410 1.416 . S
C411 C412 1.371 . S
C412 H401 0.930 . S
C412 C408 1.389 . S
C412 C411 1.371 . S
C413 H402 0.970 . S
C413 H403 0.970 . S
C413 C409 1.532 . S
C413 C414 1.499 . S
C414 C413 1.499 . S
C414 C415 1.370 . S
C414 C419 1.415 . S
C415 H404 0.930 . S
C415 C414 1.370 . S
C415 C416 1.407 . S
C416 C415 1.407 . S
C416 C417 1.365 . S
C417 H405 0.930 . S
C417 C416 1.365 . S
C417 C418 1.393 . S
C418 C417 1.393 . S
C418 C419 1.387 . S
C419 H406 0.930 . S
C419 C414 1.415 . S
C419 C418 1.387 . S
C420 C421 1.369 . S
C420 C422 1.419 1_554 S
C420 H424 0.930 . S
C421 C420 1.369 . S
C421 C430 1.429 1_554 S
C422 C420 1.419 1_556 S
C422 C423 1.363 . S
C422 H425 0.929 . S
C423 C422 1.363 . S
C423 C429 1.428 . S
H424 C420 0.930 . S
H425 C422 0.929 . S
S426 N427 1.613 . S
S426 N428 1.610 1_655 S
N427 S426 1.613 . S
N427 C430 1.350 1_655 S
N428 S426 1.610 1_455 S
N428 C429 1.351 . S
C429 C423 1.428 . S
C429 N428 1.351 . S
C429 C430 1.434 . S
C430 C421 1.429 1_556 S
C430 N427 1.350 1_455 S
C430 C429 1.434 . S
C431 C432 1.369 . S
C431 C433 1.419 . S
C431 H435 0.930 . S
C432 C431 1.369 . S
C432 C441 1.429 . S
C433 C431 1.419 . S
C433 C434 1.363 . S
C433 H436 0.929 . S
C434 C433 1.363 . S
C434 C440 1.428 . S
H435 C431 0.930 . S
H436 C433 0.929 . S
S437 N438 1.613 . S
S437 N439 1.610 . S
N438 S437 1.613 . S
N438 C441 1.350 . S
N439 S437 1.610 . S
N439 C440 1.351 . S
C440 C434 1.428 . S
C440 N439 1.351 . S
C440 C441 1.434 . S
C441 C432 1.429 . S
C441 N438 1.350 . S
C441 C440 1.434 . S
C442 C443 1.369 . S
C442 C444 1.419 . S
C442 H446 0.930 . S
C443 C442 1.369 . S
C443 C452 1.429 . S
C444 C442 1.419 . S
C444 C445 1.363 . S
C444 H447 0.929 . S
C445 C444 1.363 . S
C445 C451 1.428 . S
H446 C442 0.930 . S
H447 C444 0.929 . S
S448 N449 1.613 . S
S448 N450 1.610 . S
N449 S448 1.613 . S
N449 C452 1.350 . S
N450 S448 1.610 . S
N450 C451 1.351 . S
C451 C445 1.428 . S
C451 N450 1.351 . S
C451 C452 1.434 . S
C452 C443 1.429 . S
C452 N449 1.350 . S
C452 C451 1.434 . S
C453 C454 1.369 . S
C453 C455 1.419 . S
C453 H457 0.930 . S
C454 C453 1.369 . S
C454 C463 1.429 . S
C455 C453 1.419 . S
C455 C456 1.363 . S
C455 H458 0.929 . S
C456 C455 1.363 . S
C456 C462 1.428 . S
H457 C453 0.930 . S
H458 C455 0.929 . S
S459 N460 1.613 . S
S459 N461 1.610 . S
N460 S459 1.613 . S
N460 C463 1.350 . S
N461 S459 1.610 . S
N461 C462 1.351 . S
C462 C456 1.428 . S
C462 N461 1.351 . S
C462 C463 1.434 . S
C463 C454 1.429 . S
C463 N460 1.350 . S
C463 C462 1.434 . S
C464 C465 1.369 . S
C464 C466 1.419 . S
C464 H468 0.930 . S
C465 C464 1.369 . S
C465 C474 1.429 . S
C466 C464 1.419 . S
C466 C467 1.363 . S
C466 H469 0.929 . S
C467 C466 1.363 . S
C467 C473 1.428 . S
H468 C464 0.930 . S
H469 C466 0.929 . S
S470 N471 1.613 . S
S470 N472 1.610 . S
N471 S470 1.613 . S
N471 C474 1.350 . S
N472 S470 1.610 . S
N472 C473 1.351 . S
C473 C467 1.428 . S
C473 N472 1.351 . S
C473 C474 1.434 . S
C474 C465 1.429 . S
C474 N471 1.350 . S
C474 C473 1.434 . S
C475 C476 1.369 . S
C475 C477 1.419 . S
C475 H479 0.930 . S
C476 C475 1.369 . S
C476 C485 1.429 . S
C477 C475 1.419 . S
C477 C478 1.363 . S
C477 H480 0.929 . S
C478 C477 1.363 . S
C478 C484 1.428 . S
H479 C475 0.930 . S
H480 C477 0.929 . S
S481 N482 1.613 . S
S481 N483 1.610 . S
N482 S481 1.613 . S
N482 C485 1.350 . S
N483 S481 1.610 . S
N483 C484 1.351 . S
C484 C478 1.428 . S
C484 N483 1.351 . S
C484 C485 1.434 . S
C485 C476 1.429 . S
C485 N482 1.350 . S
C485 C484 1.434 . S
C486 C487 1.369 . S
C486 C488 1.419 . S
C486 H490 0.930 . S
C487 C486 1.369 . S
C487 C496 1.429 . S
C488 C486 1.419 . S
C488 C489 1.363 . S
C488 H491 0.929 . S
C489 C488 1.363 . S
C489 C495 1.428 . S
H490 C486 0.930 . S
H491 C488 0.929 . S
S492 N493 1.613 . S
S492 N494 1.610 . S
N493 S492 1.613 . S
N493 C496 1.350 . S
N494 S492 1.610 . S
N494 C495 1.351 . S
C495 C489 1.428 . S
C495 N494 1.351 . S
C495 C496 1.434 . S
C496 C487 1.429 . S
C496 N493 1.350 . S
C496 C495 1.434 . S
C497 C498 1.369 . S
C497 C499 1.419 . S
C497 H501 0.930 . S
C498 C497 1.369 . S
C498 C507 1.429 . S
C499 C497 1.419 . S
C499 C500 1.363 . S
C499 H502 0.929 . S
C500 C499 1.363 . S
C500 C506 1.428 . S
H501 C497 0.930 . S
H502 C499 0.929 . S
S503 N504 1.613 . S
S503 N505 1.610 . S
N504 S503 1.613 . S
N504 C507 1.350 . S
N505 S503 1.610 . S
N505 C506 1.351 . S
C506 C500 1.428 . S
C506 N505 1.351 . S
C506 C507 1.434 . S
C507 C498 1.429 . S
C507 N504 1.350 . S
C507 C506 1.434 . S
C508 C509 1.369 1_655 S
C508 C510 1.419 . S
C508 H512 0.930 1_655 S
C509 C508 1.369 1_455 S
C509 C518 1.429 1_455 S
C510 C508 1.419 . S
C510 C511 1.363 . S
C510 H513 0.929 . S
C511 C510 1.363 . S
C511 C517 1.428 . S
H512 C508 0.930 1_455 S
H513 C510 0.929 . S
S514 N515 1.613 . S
S514 N516 1.610 . S
N515 S514 1.613 . S
N515 C518 1.350 . S
N516 S514 1.610 . S
N516 C517 1.351 . S
C517 C511 1.428 . S
C517 N516 1.351 . S
C517 C518 1.434 . S
C518 C509 1.429 1_655 S
C518 N515 1.350 . S
C518 C517 1.434 . S
C519 C520 1.369 . S
C519 C521 1.419 . S
C519 H523 0.930 . S
C520 C519 1.369 . S
C520 C529 1.429 . S
C521 C519 1.419 . S
C521 C522 1.363 . S
C521 H524 0.929 . S
C522 C521 1.363 . S
C522 C528 1.428 . S
H523 C519 0.930 . S
H524 C521 0.929 . S
S525 N526 1.613 . S
S525 N527 1.610 . S
N526 S525 1.613 . S
N526 C529 1.350 . S
N527 S525 1.610 . S
N527 C528 1.351 . S
C528 C522 1.428 . S
C528 N527 1.351 . S
C528 C529 1.434 . S
C529 C520 1.429 . S
C529 N526 1.350 . S
C529 C528 1.434 . S
C530 C531 1.369 1_545 S
C530 C532 1.419 1_545 S
C530 H534 0.930 . S
C531 C530 1.369 1_565 S
C531 C540 1.429 . S
C532 C530 1.419 1_565 S
C532 C533 1.363 . S
C532 H535 0.929 1_565 S
C533 C532 1.363 . S
C533 C539 1.428 . S
H534 C530 0.930 . S
H535 C532 0.929 1_545 S
S536 N537 1.613 . S
S536 N538 1.610 . S
N537 S536 1.613 . S
N537 C540 1.350 . S
N538 S536 1.610 . S
N538 C539 1.351 . S
C539 C533 1.428 . S
C539 N538 1.351 . S
C539 C540 1.434 . S
C540 C531 1.429 . S
C540 N537 1.350 . S
C540 C539 1.434 . S
C541 C542 1.369 . S
C541 C543 1.419 . S
C541 H545 0.930 . S
C542 C541 1.369 . S
C542 C551 1.429 . S
C543 C541 1.419 . S
C543 C544 1.363 . S
C543 H546 0.929 . S
C544 C543 1.363 . S
C544 C550 1.428 . S
H545 C541 0.930 . S
H546 C543 0.929 . S
S547 N548 1.613 . S
S547 N549 1.610 . S
N548 S547 1.613 . S
N548 C551 1.350 . S
N549 S547 1.610 . S
N549 C550 1.351 . S
C550 C544 1.428 . S
C550 N549 1.351 . S
C550 C551 1.434 . S
C551 C542 1.429 . S
C551 N548 1.350 . S
C551 C550 1.434 . S
C552 C553 1.369 1_655 S
C552 C554 1.419 . S
C552 H556 0.930 1_655 S
C553 C552 1.369 1_455 S
C553 C562 1.429 1_455 S
C554 C552 1.419 . S
C554 C555 1.363 . S
C554 H557 0.929 . S
C555 C554 1.363 . S
C555 C561 1.428 . S
H556 C552 0.930 1_455 S
H557 C554 0.929 . S
S558 N559 1.612 1_545 S
S558 N560 1.608 1_545 S
N559 S558 1.612 1_565 S
N559 C562 1.353 . S
N560 S558 1.608 1_565 S
N560 C561 1.351 . S
C561 C555 1.428 . S
C561 N560 1.351 . S
C561 C562 1.434 . S
C562 C553 1.429 1_655 S
C562 N559 1.353 . S
C562 C561 1.434 . S
C563 C564 1.369 . S
C563 C565 1.419 . S
C563 H567 0.930 . S
C564 C563 1.369 . S
C564 C573 1.429 . S
C565 C563 1.419 . S
C565 C566 1.363 . S
C565 H568 0.929 . S
C566 C565 1.363 . S
C566 C572 1.428 . S
H567 C563 0.930 . S
H568 C565 0.929 . S
S569 N570 1.613 . S
S569 N571 1.610 . S
N570 S569 1.613 . S
N570 C573 1.350 . S
N571 S569 1.610 . S
N571 C572 1.351 . S
C572 C566 1.428 . S
C572 N571 1.351 . S
C572 C573 1.434 . S
C573 C564 1.429 . S
C573 N570 1.350 . S
C573 C572 1.434 . S
C574 C575 1.369 . S
C574 C576 1.419 . S
C574 H578 0.930 . S
C575 C574 1.369 . S
C575 C584 1.429 . S
C576 C574 1.419 . S
C576 C577 1.363 . S
C576 H579 0.929 . S
C577 C576 1.363 . S
C577 C583 1.428 . S
H578 C574 0.930 . S
H579 C576 0.929 . S
S580 N581 1.613 . S
S580 N582 1.610 . S
N581 S580 1.613 . S
N581 C584 1.350 . S
N582 S580 1.610 . S
N582 C583 1.351 . S
C583 C577 1.428 . S
C583 N582 1.351 . S
C583 C584 1.434 . S
C584 C575 1.429 . S
C584 N581 1.350 . S
C584 C583 1.434 . S
C585 C586 1.369 . S
C585 C587 1.419 . S
C585 H589 0.930 . S
C586 C585 1.369 . S
C586 C595 1.429 . S
C587 C585 1.419 . S
C587 C588 1.363 . S
C587 H590 0.929 . S
C588 C587 1.363 . S
C588 C594 1.428 . S
H589 C585 0.930 . S
H590 C587 0.929 . S
S591 N592 1.613 . S
S591 N593 1.610 . S
N592 S591 1.613 . S
N592 C595 1.350 . S
N593 S591 1.610 . S
N593 C594 1.351 . S
C594 C588 1.428 . S
C594 N593 1.351 . S
C594 C595 1.434 . S
C595 C586 1.429 . S
C595 N592 1.350 . S
C595 C594 1.434 . S
C596 C597 1.369 1_565 S
C596 C598 1.419 . S
C596 H600 0.930 1_565 S
C597 C596 1.369 1_545 S
C597 C606 1.429 1_545 S
C598 C596 1.419 . S
C598 C599 1.363 . S
C598 H601 0.929 . S
C599 C598 1.363 . S
C599 C605 1.428 . S
H600 C596 0.930 1_545 S
H601 C598 0.929 . S
S602 N603 1.613 . S
S602 N604 1.610 1_556 S
N603 S602 1.613 . S
N603 C606 1.350 1_556 S
N604 S602 1.610 1_554 S
N604 C605 1.351 . S
C605 C599 1.428 . S
C605 N604 1.351 . S
C605 C606 1.434 . S
C606 C597 1.429 1_565 S
C606 N603 1.350 1_554 S
C606 C605 1.434 . S
C607 C608 1.369 . S
C607 C609 1.419 . S
C607 H611 0.930 . S
C608 C607 1.369 . S
C608 C617 1.429 . S
C609 C607 1.419 . S
C609 C610 1.363 . S
C609 H612 0.929 . S
C610 C609 1.363 . S
C610 C616 1.428 . S
H611 C607 0.930 . S
H612 C609 0.929 . S
S613 N614 1.613 1_455 S
S613 N615 1.610 1_455 S
N614 S613 1.613 1_655 S
N614 C617 1.350 . S
N615 S613 1.610 1_655 S
N615 C616 1.351 . S
C616 C610 1.428 . S
C616 N615 1.351 . S
C616 C617 1.434 . S
C617 C608 1.429 . S
C617 N614 1.350 . S
C617 C616 1.434 . S
C618 C619 1.369 . S
C618 C620 1.419 . S
C618 H622 0.930 . S
C619 C618 1.369 . S
C619 C628 1.429 . S
C620 C618 1.419 . S
C620 C621 1.363 . S
C620 H623 0.929 . S
C621 C620 1.363 . S
C621 C627 1.428 . S
H622 C618 0.930 . S
H623 C620 0.929 . S
S624 N625 1.613 . S
S624 N626 1.610 . S
N625 S624 1.613 . S
N625 C628 1.350 . S
N626 S624 1.610 . S
N626 C627 1.351 . S
C627 C621 1.428 . S
C627 N626 1.351 . S
C627 C628 1.434 . S
C628 C619 1.429 . S
C628 N625 1.350 . S
C628 C627 1.434 . S
C629 C630 1.369 . S
C629 C631 1.419 . S
C629 H633 0.930 . S
C630 C629 1.369 . S
C630 C639 1.429 . S
C631 C629 1.419 . S
C631 C632 1.363 . S
C631 H634 0.929 . S
C632 C631 1.363 . S
C632 C638 1.428 . S
H633 C629 0.930 . S
H634 C631 0.929 . S
S635 N636 1.613 . S
S635 N637 1.610 . S
N636 S635 1.613 . S
N636 C639 1.350 . S
N637 S635 1.610 . S
N637 C638 1.351 . S
C638 C632 1.428 . S
C638 N637 1.351 . S
C638 C639 1.434 . S
C639 C630 1.429 . S
C639 N636 1.350 . S
C639 C638 1.434 . S
C640 C641 1.369 . S
C640 C642 1.419 . S
C640 H644 0.930 . S
C641 C640 1.369 . S
C641 C650 1.429 . S
C642 C640 1.419 . S
C642 C643 1.363 . S
C642 H645 0.929 . S
C643 C642 1.363 . S
C643 C649 1.428 . S
H644 C640 0.930 . S
H645 C642 0.929 . S
S646 N647 1.613 . S
S646 N648 1.610 . S
N647 S646 1.613 . S
N647 C650 1.350 . S
N648 S646 1.610 . S
N648 C649 1.351 . S
C649 C643 1.428 . S
C649 N648 1.351 . S
C649 C650 1.434 . S
C650 C641 1.429 . S
C650 N647 1.350 . S
C650 C649 1.434 . S
C651 C652 1.369 . S
C651 C653 1.419 . S
C651 H655 0.930 . S
C652 C651 1.369 . S
C652 C661 1.429 . S
C653 C651 1.419 . S
C653 C654 1.363 . S
C653 H656 0.929 . S
C654 C653 1.363 . S
C654 C660 1.428 . S
H655 C651 0.930 . S
H656 C653 0.929 . S
S657 N658 1.613 1_655 S
S657 N659 1.610 1_655 S
N658 S657 1.613 1_455 S
N658 C661 1.350 . S
N659 S657 1.610 1_455 S
N659 C660 1.351 . S
C660 C654 1.428 . S
C660 N659 1.351 . S
C660 C661 1.434 . S
C661 C652 1.429 . S
C661 N658 1.350 . S
C661 C660 1.434 . S
C662 C663 1.369 . S
C662 C664 1.419 . S
C662 H666 0.930 . S
C663 C662 1.369 . S
C663 C672 1.429 . S
C664 C662 1.419 . S
C664 C665 1.363 . S
C664 H667 0.929 . S
C665 C664 1.363 . S
C665 C671 1.428 . S
H666 C662 0.930 . S
H667 C664 0.929 . S
S668 N669 1.613 . S
S668 N670 1.610 . S
N669 S668 1.613 . S
N669 C672 1.350 . S
N670 S668 1.610 . S
N670 C671 1.351 . S
C671 C665 1.428 . S
C671 N670 1.351 . S
C671 C672 1.434 . S
C672 C663 1.429 . S
C672 N669 1.350 . S
C672 C671 1.434 . S
C673 C674 1.369 . S
C673 C675 1.419 . S
C673 H677 0.930 . S
C674 C673 1.369 . S
C674 C683 1.429 . S
C675 C673 1.419 . S
C675 C676 1.363 . S
C675 H678 0.929 . S
C676 C675 1.363 . S
C676 C682 1.428 . S
H677 C673 0.930 . S
H678 C675 0.929 . S
S679 N680 1.613 . S
S679 N681 1.610 . S
N680 S679 1.613 . S
N680 C683 1.350 . S
N681 S679 1.610 . S
N681 C682 1.351 . S
C682 C676 1.428 . S
C682 N681 1.351 . S
C682 C683 1.434 . S
C683 C674 1.429 . S
C683 N680 1.350 . S
C683 C682 1.434 . S
C684 C685 1.369 . S
C684 C686 1.419 . S
C684 H688 0.930 . S
C685 C684 1.369 . S
C685 C694 1.429 . S
C686 C684 1.419 . S
C686 C687 1.363 . S
C686 H689 0.929 . S
C687 C686 1.363 . S
C687 C693 1.428 . S
H688 C684 0.930 . S
H689 C686 0.929 . S
S690 N691 1.613 . S
S690 N692 1.610 . S
N691 S690 1.613 . S
N691 C694 1.350 . S
N692 S690 1.610 . S
N692 C693 1.351 . S
C693 C687 1.428 . S
C693 N692 1.351 . S
C693 C694 1.434 . S
C694 C685 1.429 . S
C694 N691 1.350 . S
C694 C693 1.434 . S
C695 C696 1.369 . S
C695 C697 1.419 . S
C695 H699 0.930 . S
C696 C695 1.369 . S
C696 C705 1.429 . S
C697 C695 1.419 . S
C697 C698 1.363 . S
C697 H700 0.929 . S
C698 C697 1.363 . S
C698 C704 1.428 . S
H699 C695 0.930 . S
H700 C697 0.929 . S
S701 N702 1.613 . S
S701 N703 1.610 . S
N702 S701 1.613 . S
N702 C705 1.350 . S
N703 S701 1.610 . S
N703 C704 1.351 . S
C704 C698 1.428 . S
C704 N703 1.351 . S
C704 C705 1.434 . S
C705 C696 1.429 . S
C705 N702 1.350 . S
C705 C704 1.434 . S
C706 C707 1.369 1_556 S
C706 C708 1.419 . S
C706 H710 0.930 1_655 S
C707 C706 1.369 1_554 S
C707 C716 1.429 . S
C708 C706 1.419 . S
C708 C709 1.363 . S
C708 H711 0.929 . S
C709 C708 1.363 . S
C709 C715 1.428 . S
H710 C706 0.930 1_455 S
H711 C708 0.929 . S
S712 N713 1.613 . S
S712 N714 1.610 1_554 S
N713 S712 1.613 . S
N713 C716 1.350 . S
N714 S712 1.610 1_556 S
N714 C715 1.351 . S
C715 C709 1.428 . S
C715 N714 1.351 . S
C715 C716 1.434 1_556 S
C716 C707 1.429 . S
C716 N713 1.350 . S
C716 C715 1.434 1_554 S
C717 C718 1.369 . S
C717 C719 1.419 . S
C717 H721 0.930 . S
C718 C717 1.369 . S
C718 C727 1.429 . S
C719 C717 1.419 . S
C719 C720 1.363 . S
C719 H722 0.929 . S
C720 C719 1.363 . S
C720 C726 1.428 . S
H721 C717 0.930 . S
H722 C719 0.929 . S
S723 N724 1.613 . S
S723 N725 1.610 . S
N724 S723 1.613 . S
N724 C727 1.350 . S
N725 S723 1.610 . S
N725 C726 1.351 . S
C726 C720 1.428 . S
C726 N725 1.351 . S
C726 C727 1.434 . S
C727 C718 1.429 . S
C727 N724 1.350 . S
C727 C726 1.434 . S
C728 C729 1.369 . S
C728 C730 1.419 . S
C728 H732 0.930 . S
C729 C728 1.369 . S
C729 C738 1.429 . S
C730 C728 1.419 . S
C730 C731 1.363 . S
C730 H733 0.929 . S
C731 C730 1.363 . S
C731 C737 1.428 . S
H732 C728 0.930 . S
H733 C730 0.929 . S
S734 N735 1.613 . S
S734 N736 1.610 . S
N735 S734 1.613 . S
N735 C738 1.350 . S
N736 S734 1.610 . S
N736 C737 1.351 . S
C737 C731 1.428 . S
C737 N736 1.351 . S
C737 C738 1.434 . S
C738 C729 1.429 . S
C738 N735 1.350 . S
C738 C737 1.434 . S
C739 C740 1.369 . S
C739 C741 1.419 . S
C739 H743 0.930 . S
C740 C739 1.369 . S
C740 C749 1.429 . S
C741 C739 1.419 . S
C741 C742 1.363 . S
C741 H744 0.929 . S
C742 C741 1.363 . S
C742 C748 1.428 . S
H743 C739 0.930 . S
H744 C741 0.929 . S
S745 N746 1.613 . S
S745 N747 1.610 . S
N746 S745 1.613 . S
N746 C749 1.350 . S
N747 S745 1.610 . S
N747 C748 1.351 . S
C748 C742 1.428 . S
C748 N747 1.351 . S
C748 C749 1.434 . S
C749 C740 1.429 . S
C749 N746 1.350 . S
C749 C748 1.434 . S
C750 C751 1.369 . S
C750 C752 1.419 . S
C750 H754 0.930 . S
C751 C750 1.369 . S
C751 C760 1.429 . S
C752 C750 1.419 . S
C752 C753 1.363 . S
C752 H755 0.929 . S
C753 C752 1.363 . S
C753 C759 1.428 . S
H754 C750 0.930 . S
H755 C752 0.929 . S
S756 N757 1.613 . S
S756 N758 1.610 . S
N757 S756 1.613 . S
N757 C760 1.350 . S
N758 S756 1.610 . S
N758 C759 1.351 . S
C759 C753 1.428 . S
C759 N758 1.351 . S
C759 C760 1.434 . S
C760 C751 1.429 . S
C760 N757 1.350 . S
C760 C759 1.434 . S
C761 C762 1.369 . S
C761 C763 1.419 . S
C761 H765 0.930 . S
C762 C761 1.369 . S
C762 C771 1.429 . S
C763 C761 1.419 . S
C763 C764 1.363 . S
C763 H766 0.929 . S
C764 C763 1.363 . S
C764 C770 1.428 . S
H765 C761 0.930 . S
H766 C763 0.929 . S
S767 N768 1.613 . S
S767 N769 1.610 . S
N768 S767 1.613 . S
N768 C771 1.350 . S
N769 S767 1.610 . S
N769 C770 1.351 . S
C770 C764 1.428 . S
C770 N769 1.351 . S
C770 C771 1.434 . S
C771 C762 1.429 . S
C771 N768 1.350 . S
C771 C770 1.434 . S
C772 C773 1.369 . S
C772 C774 1.419 . S
C772 H776 0.930 . S
C773 C772 1.369 . S
C773 C782 1.429 . S
C774 C772 1.419 . S
C774 C775 1.363 . S
C774 H777 0.929 . S
C775 C774 1.363 . S
C775 C781 1.428 . S
H776 C772 0.930 . S
H777 C774 0.929 . S
S778 N779 1.613 . S
S778 N780 1.610 . S
N779 S778 1.613 . S
N779 C782 1.350 . S
N780 S778 1.610 . S
N780 C781 1.351 . S
C781 C775 1.428 . S
C781 N780 1.351 . S
C781 C782 1.434 . S
C782 C773 1.429 . S
C782 N779 1.350 . S
C782 C781 1.434 . S
C783 C784 1.369 . S
C783 C785 1.419 . S
C783 H787 0.930 . S
C784 C783 1.369 . S
C784 C793 1.429 . S
C785 C783 1.419 . S
C785 C786 1.363 . S
C785 H788 0.929 . S
C786 C785 1.363 . S
C786 C792 1.428 . S
H787 C783 0.930 . S
H788 C785 0.929 . S
S789 N790 1.613 . S
S789 N791 1.610 . S
N790 S789 1.613 . S
N790 C793 1.350 . S
N791 S789 1.610 . S
N791 C792 1.351 . S
C792 C786 1.428 . S
C792 N791 1.351 . S
C792 C793 1.434 . S
C793 C784 1.429 . S
C793 N790 1.350 . S
C793 C792 1.434 . S
C794 C795 1.369 . S
C794 C796 1.419 . S
C794 H798 0.930 . S
C795 C794 1.369 . S
C795 C804 1.429 . S
C796 C794 1.419 . S
C796 C797 1.363 . S
C796 H799 0.929 . S
C797 C796 1.363 . S
C797 C803 1.428 . S
H798 C794 0.930 . S
H799 C796 0.929 . S
S800 N801 1.613 . S
S800 N802 1.610 . S
N801 S800 1.613 . S
N801 C804 1.350 . S
N802 S800 1.610 . S
N802 C803 1.351 . S
C803 C797 1.428 . S
C803 N802 1.351 . S
C803 C804 1.434 . S
C804 C795 1.429 . S
C804 N801 1.350 . S
C804 C803 1.434 . S
C805 C806 1.369 . S
C805 C807 1.419 . S
C805 H809 0.930 . S
C806 C805 1.369 . S
C806 C815 1.429 . S
C807 C805 1.419 . S
C807 C808 1.363 . S
C807 H810 0.929 . S
C808 C807 1.363 . S
C808 C814 1.428 . S
H809 C805 0.930 . S
H810 C807 0.929 . S
S811 N812 1.613 . S
S811 N813 1.610 . S
N812 S811 1.613 . S
N812 C815 1.350 . S
N813 S811 1.610 . S
N813 C814 1.351 . S
C814 C808 1.428 . S
C814 N813 1.351 . S
C814 C815 1.434 . S
C815 C806 1.429 . S
C815 N812 1.350 . S
C815 C814 1.434 . S
C816 C817 1.369 . S
C816 C818 1.419 . S
C816 H820 0.930 . S
C817 C816 1.369 . S
C817 C826 1.429 . S
C818 C816 1.419 . S
C818 C819 1.363 . S
C818 H821 0.929 . S
C819 C818 1.363 . S
C819 C825 1.428 . S
H820 C816 0.930 . S
H821 C818 0.929 . S
S822 N823 1.613 . S
S822 N824 1.610 . S
N823 S822 1.613 . S
N823 C826 1.350 . S
N824 S822 1.610 . S
N824 C825 1.351 . S
C825 C819 1.428 . S
C825 N824 1.351 . S
C825 C826 1.434 . S
C826 C817 1.429 . S
C826 N823 1.350 . S
C826 C825 1.434 . S
C827 C828 1.369 . S
C827 C829 1.419 . S
C827 H831 0.930 . S
C828 C827 1.369 . S
C828 C837 1.429 . S
C829 C827 1.419 . S
C829 C830 1.363 . S
C829 H832 0.929 . S
C830 C829 1.363 . S
C830 C836 1.428 . S
H831 C827 0.930 . S
H832 C829 0.929 . S
S833 N834 1.613 . S
S833 N835 1.610 . S
N834 S833 1.613 . S
N834 C837 1.350 . S
N835 S833 1.610 . S
N835 C836 1.351 . S
C836 C830 1.428 . S
C836 N835 1.351 . S
C836 C837 1.434 . S
C837 C828 1.429 . S
C837 N834 1.350 . S
C837 C836 1.434 . S
C838 C839 1.369 . S
C838 C840 1.419 . S
C838 H842 0.930 . S
C839 C838 1.369 . S
C839 C848 1.429 . S
C840 C838 1.419 . S
C840 C841 1.363 . S
C840 H843 0.929 . S
C841 C840 1.363 . S
C841 C847 1.428 . S
H842 C838 0.930 . S
H843 C840 0.929 . S
S844 N845 1.613 . S
S844 N846 1.610 . S
N845 S844 1.613 . S
N845 C848 1.350 . S
N846 S844 1.610 . S
N846 C847 1.351 . S
C847 C841 1.428 . S
C847 N846 1.351 . S
C847 C848 1.434 . S
C848 C839 1.429 . S
C848 N845 1.350 . S
C848 C847 1.434 . S
C849 C850 1.369 . S
C849 C851 1.419 . S
C849 H853 0.930 . S
C850 C849 1.369 . S
C850 C859 1.429 . S
C851 C849 1.419 . S
C851 C852 1.363 . S
C851 H854 0.929 . S
C852 C851 1.363 . S
C852 C858 1.428 . S
H853 C849 0.930 . S
H854 C851 0.929 . S
S855 N856 1.613 . S
S855 N857 1.610 . S
N856 S855 1.613 . S
N856 C859 1.350 . S
N857 S855 1.610 . S
N857 C858 1.351 . S
C858 C852 1.428 . S
C858 N857 1.351 . S
C858 C859 1.434 . S
C859 C850 1.429 . S
C859 N856 1.350 . S
C859 C858 1.434 . S
C860 C861 1.369 . S
C860 C862 1.419 . S
C860 H864 0.930 . S
C861 C860 1.369 . S
C861 C870 1.429 . S
C862 C860 1.419 . S
C862 C863 1.363 . S
C862 H865 0.929 . S
C863 C862 1.363 . S
C863 C869 1.428 . S
H864 C860 0.930 . S
H865 C862 0.929 . S
S866 N867 1.613 . S
S866 N868 1.610 . S
N867 S866 1.613 . S
N867 C870 1.350 . S
N868 S866 1.610 . S
N868 C869 1.351 . S
C869 C863 1.428 . S
C869 N868 1.351 . S
C869 C870 1.434 . S
C870 C861 1.429 . S
C870 N867 1.350 . S
C870 C869 1.434 . S
C871 C872 1.369 . S
C871 C873 1.419 . S
C871 H875 0.930 . S
C872 C871 1.369 . S
C872 C881 1.429 . S
C873 C871 1.419 . S
C873 C874 1.363 . S
C873 H876 0.929 . S
C874 C873 1.363 . S
C874 C880 1.428 . S
H875 C871 0.930 . S
H876 C873 0.929 . S
S877 N878 1.613 1_545 S
S877 N879 1.610 . S
N878 S877 1.613 1_565 S
N878 C881 1.350 1_565 S
N879 S877 1.610 . S
N879 C880 1.351 . S
C880 C874 1.428 . S
C880 N879 1.351 . S
C880 C881 1.434 . S
C881 C872 1.429 . S
C881 N878 1.350 1_545 S
C881 C880 1.434 . S
C882 C883 1.369 . S
C882 C884 1.419 . S
C882 H886 0.930 . S
C883 C882 1.369 . S
C883 C892 1.429 . S
C884 C882 1.419 . S
C884 C885 1.363 . S
C884 H887 0.929 . S
C885 C884 1.363 . S
C885 C891 1.428 . S
H886 C882 0.930 . S
H887 C884 0.929 . S
S888 N889 1.613 . S
S888 N890 1.610 . S
N889 S888 1.613 . S
N889 C892 1.350 . S
N890 S888 1.610 . S
N890 C891 1.351 . S
C891 C885 1.428 . S
C891 N890 1.351 . S
C891 C892 1.434 . S
C892 C883 1.429 . S
C892 N889 1.350 . S
C892 C891 1.434 . S
C893 C894 1.369 1_565 S
C893 C895 1.419 . S
C893 H897 0.930 . S
C894 C893 1.369 1_545 S
C894 C903 1.429 1_545 S
C895 C893 1.419 . S
C895 C896 1.363 . S
C895 H898 0.929 . S
C896 C895 1.363 . S
C896 C902 1.428 . S
H897 C893 0.930 . S
H898 C895 0.929 . S
S899 N900 1.613 1_565 S
S899 N901 1.610 . S
N900 S899 1.613 1_545 S
N900 C903 1.350 1_545 S
N901 S899 1.610 . S
N901 C902 1.351 . S
C902 C896 1.428 . S
C902 N901 1.351 . S
C902 C903 1.434 . S
C903 C894 1.429 1_565 S
C903 N900 1.350 1_565 S
C903 C902 1.434 . S
C904 C905 1.369 . S
C904 C906 1.419 . S
C904 H908 0.930 . S
C905 C904 1.369 . S
C905 C914 1.429 . S
C906 C904 1.419 . S
C906 C907 1.363 . S
C906 H909 0.929 . S
C907 C906 1.363 . S
C907 C913 1.428 . S
H908 C904 0.930 . S
H909 C906 0.929 . S
S910 N911 1.613 . S
S910 N912 1.610 . S
N911 S910 1.613 . S
N911 C914 1.350 . S
N912 S910 1.610 . S
N912 C913 1.351 . S
C913 C907 1.428 . S
C913 N912 1.351 . S
C913 C914 1.434 . S
C914 C905 1.429 . S
C914 N911 1.350 . S
C914 C913 1.434 . S
C915 C916 1.369 . S
C915 C917 1.419 . S
C915 H919 0.930 . S
C916 C915 1.369 . S
C916 C925 1.429 . S
C917 C915 1.419 . S
C917 C918 1.363 . S
C917 H920 0.929 . S
C918 C917 1.363 . S
C918 C924 1.428 . S
H919 C915 0.930 . S
H920 C917 0.929 . S
S921 N922 1.613 . S
S921 N923 1.610 . S
N922 S921 1.613 . S
N922 C925 1.350 . S
N923 S921 1.610 . S
N923 C924 1.351 . S
C924 C918 1.428 . S
C924 N923 1.351 . S
C924 C925 1.434 . S
C925 C916 1.429 . S
C925 N922 1.350 . S
C925 C924 1.434 . S
C926 C927 1.369 . S
C926 C928 1.419 . S
C926 H930 0.930 . S
C927 C926 1.369 . S
C927 C936 1.429 . S
C928 C926 1.419 . S
C928 C929 1.363 . S
C928 H931 0.929 . S
C929 C928 1.363 . S
C929 C935 1.428 . S
H930 C926 0.930 . S
H931 C928 0.929 . S
S932 N933 1.613 . S
S932 N934 1.610 1_545 S
N933 S932 1.613 . S
N933 C936 1.350 1_545 S
N934 S932 1.610 1_565 S
N934 C935 1.351 . S
C935 C929 1.428 . S
C935 N934 1.351 . S
C935 C936 1.434 . S
C936 C927 1.429 . S
C936 N933 1.350 1_565 S
C936 C935 1.434 . S
C937 C938 1.369 . S
C937 C939 1.419 . S
C937 H941 0.930 . S
C938 C937 1.369 . S
C938 C947 1.429 . S
C939 C937 1.419 . S
C939 C940 1.363 . S
C939 H942 0.929 . S
C940 C939 1.363 . S
C940 C946 1.428 . S
H941 C937 0.930 . S
H942 C939 0.929 . S
S943 N944 1.613 . S
S943 N945 1.610 . S
N944 S943 1.613 . S
N944 C947 1.350 . S
N945 S943 1.610 . S
N945 C946 1.351 . S
C946 C940 1.428 . S
C946 N945 1.351 . S
C946 C947 1.434 . S
C947 C938 1.429 . S
C947 N944 1.350 . S
C947 C946 1.434 . S
C423 C416 1.344 . S
C421 C8 1.401 . S
C432 C23 1.388 . S
C434 C345 1.143 . S
C443 C35 1.450 . S
C445 C374 1.359 . S
C456 C387 1.078 . S
C454 C45 1.414 . S
C465 C22 1.460 . S
C467 C408 1.267 . S
C478 C353 1.194 . S
C476 C31 1.329 . S
C489 C366 1.259 . S
C487 C49 1.499 1_554 S
C500 C395 1.235 . S
C498 C9 1.349 . S
C509 C65 1.355 . S
C511 C397 1.312 . S
C522 C411 1.213 . S
C520 C73 1.394 . S
C533 C355 1.344 . S
C531 C93 1.389 . S
C544 C369 1.143 . S
C542 C101 1.379 . S
C553 C59 1.372 . S
C555 C348 1.313 . S
C564 C79 1.371 . S
C566 C376 1.146 . S
C575 C87 1.385 . S
C577 C390 1.313 . S
C588 C418 1.235 . S
C586 C107 1.434 . S
C599 C227 1.458 . S
C597 C106 1.490 . S
C610 C208 1.263 . S
C608 C119 1.418 . S
C621 C222 1.295 . S
C619 C134 1.421 . S
C632 C243 1.295 . S
C630 C147 1.413 . S
C641 C64 1.405 . S
C643 C229 1.164 . S
C652 C78 1.439 1_545 S
C654 C180 1.380 . S
C663 C133 1.490 . S
C665 C240 1.056 . S
C674 C161 1.443 . S
C676 C206 1.208 . S
C687 C269 1.340 . S
C685 C36 1.398 . S
C698 C282 1.116 . S
C696 C51 1.375 . S
C707 C7 1.448 . S
C709 C311 1.359 . S
C718 C17 1.404 . S
C720 C324 1.063 . S
C731 C261 1.270 . S
C729 C50 1.453 1_554 S
C742 C290 1.204 . S
C740 C3 1.341 . S
C751 C21 1.504 . S
C753 C303 1.256 . S
C764 C332 1.249 . S
C762 C37 1.355 . S
C773 C163 1.370 . S
C775 C334 1.311 . S
C784 C115 1.383 . S
C786 C264 1.203 . S
C797 C292 1.356 . S
C795 C135 1.399 1_455 S
C806 C143 1.346 . S
C808 C306 1.122 . S
C819 C285 1.336 . S
C817 C157 1.394 . S
C828 C121 1.359 . S
C830 C313 1.129 . S
C841 C327 1.328 . S
C839 C129 1.398 1_455 S
C852 C271 1.220 . S
C850 C149 1.405 . S
C863 C187 1.355 . S
C861 C148 1.494 . S
C874 C250 1.285 . S
C872 C77 1.451 1_545 S
C883 C92 1.448 . S
C885 C177 1.149 . S
C896 C201 1.328 . S
C894 C105 1.444 . S
C907 C185 1.249 . S
C905 C162 1.381 . S
C916 C120 1.442 . S
C918 C219 1.263 . S
C927 C91 1.455 . S
C929 C198 1.043 . S
C938 C63 1.411 . S
C940 C248 1.179 . S
