# Generated by pormake.
# Topology ssa, (4,4)-cn, num edge types: 1
# Building blocks:
#     Node 0, Type 0, BuildingBlock: KUFVIS_clean_linker_0, # of connection points: 4
#     Node 1, Type 0, BuildingBlock: KUFVIS_clean_linker_0, # of connection points: 4
#     Node 2, Type 0, BuildingBlock: KUFVIS_clean_linker_0, # of connection points: 4
#     Node 3, Type 0, BuildingBlock: KUFVIS_clean_linker_0, # of connection points: 4
#     Node 4, Type 0, BuildingBlock: KUFVIS_clean_linker_0, # of connection points: 4
#     Node 5, Type 0, BuildingBlock: KUFVIS_clean_linker_0, # of connection points: 4
#     Node 6, Type 1, BuildingBlock: MUDLON_clean_sbu_0, # of connection points: 4
#     Node 7, Type 1, BuildingBlock: MUDLON_clean_sbu_0, # of connection points: 4
#     Node 8, Type 1, BuildingBlock: MUDLON_clean_sbu_0, # of connection points: 4
#     Node 9, Type 1, BuildingBlock: MUDLON_clean_sbu_0, # of connection points: 4
#     Node 10, Type 1, BuildingBlock: MUDLON_clean_sbu_0, # of connection points: 4
#     Node 11, Type 1, BuildingBlock: MUDLON_clean_sbu_0, # of connection points: 4
#     Edge 12, Type (0, 1), BuildingBlock: CIFDUS_clean_linker_0, # of connection points: 2
#     Edge 13, Type (0, 1), BuildingBlock: CIFDUS_clean_linker_0, # of connection points: 2
#     Edge 14, Type (0, 1), BuildingBlock: CIFDUS_clean_linker_0, # of connection points: 2
#     Edge 15, Type (0, 1), BuildingBlock: CIFDUS_clean_linker_0, # of connection points: 2
#     Edge 16, Type (0, 1), BuildingBlock: CIFDUS_clean_linker_0, # of connection points: 2
#     Edge 17, Type (0, 1), BuildingBlock: CIFDUS_clean_linker_0, # of connection points: 2
#     Edge 18, Type (0, 1), BuildingBlock: CIFDUS_clean_linker_0, # of connection points: 2
#     Edge 19, Type (0, 1), BuildingBlock: CIFDUS_clean_linker_0, # of connection points: 2
#     Edge 20, Type (0, 1), BuildingBlock: CIFDUS_clean_linker_0, # of connection points: 2
#     Edge 21, Type (0, 1), BuildingBlock: CIFDUS_clean_linker_0, # of connection points: 2
#     Edge 22, Type (0, 1), BuildingBlock: CIFDUS_clean_linker_0, # of connection points: 2
#     Edge 23, Type (0, 1), BuildingBlock: CIFDUS_clean_linker_0, # of connection points: 2
#     Edge 24, Type (0, 1), BuildingBlock: CIFDUS_clean_linker_0, # of connection points: 2
#     Edge 25, Type (0, 1), BuildingBlock: CIFDUS_clean_linker_0, # of connection points: 2
#     Edge 26, Type (0, 1), BuildingBlock: CIFDUS_clean_linker_0, # of connection points: 2
#     Edge 27, Type (0, 1), BuildingBlock: CIFDUS_clean_linker_0, # of connection points: 2
#     Edge 28, Type (0, 1), BuildingBlock: CIFDUS_clean_linker_0, # of connection points: 2
#     Edge 29, Type (0, 1), BuildingBlock: CIFDUS_clean_linker_0, # of connection points: 2
#     Edge 30, Type (0, 1), BuildingBlock: CIFDUS_clean_linker_0, # of connection points: 2
#     Edge 31, Type (0, 1), BuildingBlock: CIFDUS_clean_linker_0, # of connection points: 2
#     Edge 32, Type (0, 1), BuildingBlock: CIFDUS_clean_linker_0, # of connection points: 2
#     Edge 33, Type (0, 1), BuildingBlock: CIFDUS_clean_linker_0, # of connection points: 2
#     Edge 34, Type (0, 1), BuildingBlock: CIFDUS_clean_linker_0, # of connection points: 2
#     Edge 35, Type (0, 1), BuildingBlock: CIFDUS_clean_linker_0, # of connection points: 2
# Relax obj value: 0.001
# Max RMSD: 0.051
# Mean RMSD: 0.029
data_MOF--net-ssa--node1-MUDLON_clean_sbu_0--node2-KUFVIS_clean_linker_0--edge1-CIFDUS_clean_linker_0
_symmetry_space_group_name_H-M    P1
_symmetry_Int_Tables_number       1
_symmetry_cell_setting            triclinic
loop_
_symmetry_equiv_pos_as_xyz
'x, y, z'
_cell_length_a     39.542724
_cell_length_b     39.826801
_cell_length_c     35.064436
_cell_angle_alpha  91.191617
_cell_angle_beta   87.461678
_cell_angle_gamma 119.75187
loop_
_atom_site_label
_atom_site_type_symbol
_atom_site_fract_x
_atom_site_fract_y
_atom_site_fract_z
_atom_type_partial_charge
H0 H 0.91107 0.46225 0.97326 0.0
H1 H 0.98185 0.55051 0.05169 0.0
H2 H -0.00105 0.45212 1.02911 0.0
H3 H 0.02576 0.46536 0.08357 0.0
H4 H 0.11464 0.56276 0.14115 0.0
H5 H 0.04323 0.58061 0.06593 0.0
C6 C 0.9333 0.47308 0.99439 0.0
C7 C 0.95175 0.45198 1.00177 0.0
C8 C 0.94389 0.50846 1.01206 0.0
C9 C 0.97471 0.5236 1.03744 0.0
C10 C -0.00447 0.50384 1.04441 0.0
C11 C 0.98363 0.46793 1.02568 0.0
C12 C 0.0294 0.52044 0.07079 0.0
C13 C 0.04126 0.4962 0.08821 0.0
C14 C 0.0732 0.51149 0.11224 0.0
C15 C 0.09207 0.55101 0.12037 0.0
C16 C 0.08143 0.57575 0.10382 0.0
C17 C 0.05035 0.56064 0.07893 0.0
H18 H 0.51924 0.08055 0.66456 0.0
H19 H 0.45542 0.02402 0.5657 0.0
H20 H 0.56143 0.02256 0.5887 0.0
H21 H 0.56341 0.01194 0.527 0.0
H22 H 0.48721 0.93242 0.44536 0.0
H23 H 0.43882 0.968 0.53888 0.0
C24 C 0.51609 0.0636 0.63899 0.0
C25 C 0.54499 0.0543 0.62822 0.0
C26 C 0.48352 0.05219 0.61694 0.0
C27 C 0.47982 0.03094 0.5833 0.0
C28 C 0.50723 0.01885 0.57271 0.0
C29 C 0.53978 0.03092 0.59582 0.0
C30 C 0.50186 -0.0061 0.53784 0.0
C31 C 0.53391 -0.00631 0.51806 0.0
C32 C 0.52814 0.97038 0.48559 0.0
C33 C 0.49077 0.94847 0.47165 0.0
C34 C 0.45855 0.94826 0.49009 0.0
C35 C 0.46419 0.97004 0.52375 0.0
H36 H 0.46696 0.53204 0.18399 0.0
H37 H 0.44504 0.44369 0.10156 0.0
H38 H 0.52814 0.56422 0.07596 0.0
H39 H 0.55394 0.54497 1.0333 0.0
H40 H 0.52402 0.46366 0.94232 0.0
H41 H 0.45002 0.43161 1.04309 0.0
C42 C 0.47348 0.52355 0.15625 0.0
C43 C 0.50111 0.55187 0.13151 0.0
C44 C 0.45229 0.48487 0.14474 0.0
C45 C 0.46082 0.47402 0.10865 0.0
C46 C 0.48949 0.50188 0.08298 0.0
C47 C 0.50817 0.54118 0.09485 0.0
C48 C 0.49953 0.49059 1.04405 0.0
C49 C 0.53337 0.51699 1.02226 0.0
C50 C 0.54141 0.50785 0.98526 0.0
C51 C 0.51693 0.47117 0.9703 0.0
C52 C 0.48485 0.44335 0.99174 0.0
C53 C 0.47583 0.45334 1.02807 0.0
H54 H 0.9241 0.45817 0.67135 0.0
H55 H 0.97364 0.53995 0.5798 0.0
H56 H 0.99036 0.44043 0.5813 0.0
H57 H -0.00123 0.44867 0.51978 0.0
H58 H 0.06556 0.53912 0.43906 0.0
H59 H 0.02903 0.5671 0.54596 0.0
C60 C 0.94255 0.46839 0.64558 0.0
C61 C 0.95604 0.44517 0.62772 0.0
C62 C 0.94932 0.50281 0.62851 0.0
C63 C 0.97071 0.51449 0.59348 0.0
C64 C 0.98685 0.49298 0.57584 0.0
C65 C 0.97908 0.45815 0.59369 0.0
C66 C 0.00994 0.5059 0.53823 0.0
C67 C 0.01293 0.47911 0.5129 0.0
C68 C 0.03333 0.49113 0.47746 0.0
C69 C 0.04984 0.52988 0.46642 0.0
C70 C 0.04796 0.55721 0.49085 0.0
C71 C 0.02892 0.54531 0.52696 0.0
H72 H 0.42932 0.91707 0.15468 0.0
H73 H 0.43599 8e-05 0.07537 0.0
H74 H 0.52747 0.97005 0.07605 0.0
H75 H 0.56381 0.0226 1.04636 0.0
H76 H 0.56304 0.08922 0.95388 0.0
H77 H 0.4561 0.01805 1.01735 0.0
C78 C 0.44551 0.9378 0.13211 0.0
C79 C 0.48142 0.94264 0.11833 0.0
C80 C 0.42912 0.95818 0.11648 0.0
C81 C 0.44892 0.98395 0.08603 0.0
C82 C 0.48504 0.98909 0.07046 0.0
C83 C 0.50048 0.96763 0.08709 0.0
C84 C 0.50657 0.01652 1.03731 0.0
C85 C 0.54684 0.03026 1.02891 0.0
C86 C 0.56615 0.05441 0.99739 0.0
C87 C 0.54656 0.06809 0.97599 0.0
C88 C 0.50713 0.05623 0.9837 0.0
C89 C 0.48708 0.02926 1.01342 0.0
H90 H 0.55598 0.44393 0.63374 0.0
H91 H 0.55353 0.54314 0.59288 0.0
H92 H 0.46903 0.42768 0.556 0.0
H93 H 0.43367 0.45392 0.54394 0.0
H94 H 0.44441 0.55219 0.48661 0.0
H95 H 0.54575 0.55969 0.53413 0.0
C96 C 0.54325 0.45624 0.61577 0.0
C97 C 0.51048 0.43153 0.59543 0.0
C98 C 0.55858 0.49625 0.61545 0.0
C99 C 0.54198 0.51217 0.59218 0.0
C100 C 0.5096 0.48806 0.56972 0.0
C101 C 0.49392 0.44739 0.57212 0.0
C102 C 0.49171 0.50532 0.54509 0.0
C103 C 0.45203 0.48359 0.53491 0.0
C104 C 0.43585 0.50007 0.51194 0.0
C105 C 0.45796 0.539 0.50219 0.0
C106 C 0.49782 0.56002 0.50811 0.0
C107 C 0.51468 0.54342 0.5301 0.0
Mg108 Mg 0.20811 0.41399 0.30869 0.0
C109 C 0.17623 0.42865 0.24059 0.0
O110 O 0.16006 0.39078 0.24102 0.0
C111 C 0.25635 0.43378 0.37814 0.0
O112 O 0.22409 0.40374 0.39123 0.0
C113 C 0.12849 0.39688 0.34287 0.0
O114 O 0.12532 0.4069 0.3084 0.0
O115 O 0.15706 0.39161 0.34923 0.0
O116 O 0.19948 0.44826 0.26669 0.0
O117 O 0.22908 0.38279 0.27076 0.0
C118 C 0.26127 0.38438 0.27772 0.0
O119 O 0.27315 0.39147 0.31285 0.0
O120 O 0.25719 0.44676 0.34496 0.0
Mg121 Mg 0.7917 0.21142 0.81262 0.0
C122 C 0.7284 0.16501 0.76106 0.0
O123 O 0.74451 0.14364 0.76676 0.0
C124 C 0.83994 0.27057 0.86711 0.0
O125 O 0.86238 0.25724 0.85317 0.0
C126 C 0.76556 0.15807 0.8815 0.0
O127 O 0.78524 0.19104 0.89949 0.0
O128 O 0.7698 0.15764 0.84524 0.0
O129 O 0.7425 0.19793 0.77729 0.0
O130 O 0.84489 0.23883 0.77591 0.0
C131 C 0.84331 0.24752 0.74151 0.0
O132 O 0.80948 0.23051 0.72528 0.0
O133 O 0.80561 0.25649 0.85495 0.0
Mg134 Mg 0.57786 0.79634 0.31126 0.0
C135 C 0.55641 0.83217 0.24905 0.0
O136 O 0.58843 0.83431 0.23395 0.0
C137 C 0.56327 0.74498 0.37778 0.0
O138 O 0.59823 0.7736 0.38479 0.0
C139 C 0.61514 0.87651 0.34666 0.0
O140 O 0.60767 0.88548 0.31344 0.0
O141 O 0.61274 0.84362 0.35042 0.0
O142 O 0.5435 0.81606 0.28154 0.0
O143 O 0.5983 0.76742 0.26987 0.0
C144 C 0.5725 0.74694 0.24592 0.0
O145 O 0.54046 0.74915 0.24592 0.0
O146 O 0.54528 0.74782 0.34982 0.0
Mg147 Mg 0.78181 0.57835 0.82507 0.0
C148 C 0.72885 0.56608 0.76148 0.0
O149 O 0.75924 0.59966 0.75216 0.0
C150 C 0.82206 0.56792 0.886 0.0
O151 O 0.84108 0.60491 0.87734 0.0
C152 C 0.73742 0.61617 0.85943 0.0
O153 O 0.72693 0.61487 0.82421 0.0
O154 O 0.76736 0.61302 0.86499 0.0
O155 O 0.73017 0.54839 0.79081 0.0
O156 O 0.83402 0.59662 0.78703 0.0
C157 C 0.82897 0.57499 0.75795 0.0
O158 O 0.7935 0.54752 0.7509 0.0
O159 O 0.7921 0.54552 0.86723 0.0
Mg160 Mg 0.2152 0.79342 0.30415 0.0
C161 C 0.21981 0.75267 0.2283 0.0
O162 O 0.25737 0.77757 0.22645 0.0
C163 C 0.27652 0.83419 0.35728 0.0
O164 O 0.25664 0.85258 0.35683 0.0
C165 C 0.16748 0.75474 0.37719 0.0
O166 O 0.20242 0.77063 0.39097 0.0
O167 O 0.16386 0.76365 0.34343 0.0
O168 O 0.19904 0.75288 0.2569 0.0
O169 O 0.23611 0.85052 0.27853 0.0
C170 C 0.23699 0.85482 0.2425 0.0
O171 O 0.2133 0.82513 0.22187 0.0
O172 O 0.26578 0.80443 0.33616 0.0
Mg173 Mg 0.42369 0.2134 0.79273 0.0
C174 C 0.38377 0.15467 0.73071 0.0
O175 O 0.39191 0.18523 0.71031 0.0
C176 C 0.42026 0.25548 0.86579 0.0
O177 O 0.4427 0.24241 0.87735 0.0
C178 C 0.44068 0.17011 0.84728 0.0
O179 O 0.40383 0.15965 0.85426 0.0
O180 O 0.45998 0.19585 0.82191 0.0
O181 O 0.38399 0.15773 0.76699 0.0
O182 O 0.44984 0.25363 0.74516 0.0
C183 C 0.47274 0.25461 0.71805 0.0
O184 O 0.48671 0.23079 0.71817 0.0
O185 O 0.40508 0.2449 0.83323 0.0
H186 H 0.14794 0.53089 0.12627 0.0
H187 H 0.02944 0.43693 0.14022 0.0
H188 H 0.05194 0.40151 0.17811 0.0
H189 H 0.10435 0.4002 0.21274 0.0
H190 H 0.22039 0.4989 0.20668 0.0
H191 H 0.19947 0.53036 0.16144 0.0
C192 C 0.12674 0.50284 0.13789 0.0
C193 C 0.08682 0.48706 0.13077 0.0
C194 C 0.13944 0.48383 0.16168 0.0
C195 C 0.06031 0.44989 0.14486 0.0
C196 C 0.07311 0.42978 0.16701 0.0
C197 C 0.12506 0.42849 0.20123 0.0
C198 C 0.16387 0.4473 0.2128 0.0
C199 C 0.11244 0.44693 0.1764 0.0
C200 C 0.19036 0.48408 0.19823 0.0
C201 C 0.17843 0.50193 0.17232 0.0
H202 H 0.58669 0.12668 0.6578 0.0
H203 H 0.58376 0.01695 0.64983 0.0
H204 H 0.64075 0.04205 0.6893 0.0
H205 H 0.68989 0.0943 0.72775 0.0
H206 H 0.6912 0.20317 0.7378 0.0
H207 H 0.63564 0.17884 0.69641 0.0
C208 C 0.59823 0.10805 0.66496 0.0
C209 C 0.5807 0.06982 0.65096 0.0
C210 C 0.63051 0.12242 0.68825 0.0
C211 C 0.59678 0.04653 0.65982 0.0
C212 C 0.6292 0.06079 0.68266 0.0
C213 C 0.67813 0.11281 0.72089 0.0
C214 C 0.69474 0.15056 0.73595 0.0
C215 C 0.6461 0.09858 0.69725 0.0
C216 C 0.67898 0.17402 0.72673 0.0
C217 C 0.64724 0.16013 0.70301 0.0
H218 H 0.54837 0.58577 0.19125 0.0
H219 H 0.49536 0.60984 0.09873 0.0
H220 H 0.51748 0.67511 0.12357 0.0
H221 H 0.54491 0.72213 0.17582 0.0
H222 H 0.59995 0.69951 0.26749 0.0
H223 H 0.58499 0.63733 0.23845 0.0
C224 C 0.54238 0.60569 0.17625 0.0
C225 C 0.52006 0.59309 0.14339 0.0
C226 C 0.55554 0.64333 0.19058 0.0
C227 C 0.51256 0.61903 0.12399 0.0
C228 C 0.52506 0.65624 0.13829 0.0
C229 C 0.55457 0.70402 0.18885 0.0
C230 C 0.57343 0.71531 0.22376 0.0
C231 C 0.54565 0.66831 0.17209 0.0
C232 C 0.5858 0.69166 0.2404 0.0
C233 C 0.5768 0.65588 0.22403 0.0
H234 H 0.95837 0.53673 0.69871 0.0
H235 H 0.89532 0.51444 0.59552 0.0
H236 H 0.85512 0.53948 0.62521 0.0
H237 H 0.83308 0.56061 0.68284 0.0
H238 H 0.89731 0.58572 0.78555 0.0
H239 H 0.94246 0.56766 0.75368 0.0
C240 C 0.93627 0.53808 0.68264 0.0
C241 C 0.92957 0.52357 0.64508 0.0
C242 C 0.91353 0.553 0.69983 0.0
C243 C 0.90102 0.52557 0.62438 0.0
C244 C 0.87795 0.53972 0.64142 0.0
C245 C 0.85762 0.56312 0.69789 0.0
C246 C 0.86184 0.5744 0.73649 0.0
C247 C 0.88329 0.55259 0.6794 0.0
C248 C 0.8937 0.57754 0.75571 0.0
C249 C 0.91923 0.56674 0.73761 0.0
H250 H 0.40928 0.96881 0.18877 0.0
H251 H 0.36135 0.92642 0.07871 0.0
H252 H 0.29524 0.89481 0.10784 0.0
H253 H 0.25272 0.87012 0.16604 0.0
H254 H 0.30156 0.91212 0.27627 0.0
H255 H 0.36531 0.95357 0.24566 0.0
C256 C 0.3842 0.95374 0.17108 0.0
C257 C 0.39004 0.94981 0.13171 0.0
C258 C 0.34644 0.93505 0.18818 0.0
C259 C 0.35748 0.93008 0.109 0.0
C260 C 0.31973 0.91165 0.12576 0.0
C261 C 0.27704 0.88907 0.18337 0.0
C262 C 0.27228 0.88727 0.22355 0.0
C263 C 0.31401 0.91254 0.16556 0.0
C264 C 0.3042 0.91246 0.24538 0.0
C265 C 0.34087 0.9361 0.22788 0.0
H266 H 0.54355 0.38575 0.5937 0.0
H267 H 0.43546 0.38456 0.62006 0.0
H268 H 0.4123 0.32605 0.65835 0.0
H269 H 0.42806 0.28328 0.69377 0.0
H270 H 0.53714 0.28569 0.66954 0.0
H271 H 0.55497 0.336 0.62132 0.0
C272 C 0.51437 0.3718 0.60677 0.0
C273 C 0.49138 0.38964 0.60446 0.0
C274 C 0.50208 0.33927 0.63019 0.0
C275 C 0.45358 0.37129 0.62124 0.0
C276 C 0.44065 0.33824 0.64373 0.0
C277 C 0.45561 0.29459 0.67768 0.0
C278 C 0.48176 0.28158 0.68586 0.0
C279 C 0.46554 0.32336 0.65006 0.0
C280 C 0.51681 0.29564 0.6641 0.0
C281 C 0.52695 0.32435 0.63652 0.0
H282 H 0.55548 0.92124 0.4966 0.0
H283 H 0.56938 0.01346 0.42408 0.0
H284 H 0.60463 -0.00388 0.37569 0.0
H285 H 0.61997 0.94721 0.34961 0.0
H286 H 0.60404 0.85339 0.42151 0.0
H287 H 0.58217 0.87929 0.47469 0.0
C288 C 0.56781 0.93849 0.47089 0.0
C289 C 0.56037 0.96884 0.46396 0.0
C290 C 0.58702 0.92754 0.44274 0.0
C291 C 0.57546 0.99046 0.43019 0.0
C292 C 0.59514 0.98019 0.40235 0.0
C293 C 0.61274 0.93297 0.3772 0.0
C294 C 0.61298 0.89794 0.38117 0.0
C295 C 0.59942 0.94765 0.40758 0.0
C296 C 0.60392 0.88021 0.41735 0.0
C297 C 0.59109 0.89488 0.44783 0.0
H298 H 0.61895 0.54239 1.00027 0.0
H299 H 0.53959 0.53563 0.91615 0.0
H300 H 0.59429 0.57436 0.87177 0.0
H301 H 0.66352 0.60325 0.85413 0.0
H302 H 0.74346 0.60636 0.93588 0.0
H303 H 0.69012 0.57698 0.98407 0.0
C304 C 0.61387 0.55017 0.9725 0.0
C305 C 0.57534 0.53618 0.96138 0.0
C306 C 0.64559 0.57164 0.94661 0.0
C307 C 0.569 0.54602 0.9252 0.0
C308 C 0.60026 0.5681 0.89983 0.0
C309 C 0.66962 0.59829 0.88268 0.0
C310 C 0.7076 0.6068 0.89108 0.0
C311 C 0.63858 0.58011 0.90979 0.0
C312 C 0.71462 0.60009 0.92842 0.0
C313 C 0.684 0.58298 0.95598 0.0
H314 H 0.03873 0.5863 0.42512 0.0
H315 H 0.10188 0.62035 0.52896 0.0
H316 H 0.14164 0.68649 0.50466 0.0
H317 H 0.16329 0.73235 0.45091 0.0
H318 H 0.09978 0.69829 0.34707 0.0
H319 H 0.0549 0.63482 0.37459 0.0
C320 C 0.06086 0.60842 0.44258 0.0
C321 C 0.06767 0.59843 0.47862 0.0
C322 C 0.08361 0.64634 0.42837 0.0
C323 C 0.09606 0.62737 0.5012 0.0
C324 C 0.11893 0.66512 0.4872 0.0
C325 C 0.13917 0.71134 0.43454 0.0
C326 C 0.13529 0.72006 0.39675 0.0
C327 C 0.11367 0.67466 0.45041 0.0
C328 C 0.10359 0.69252 0.37616 0.0
C329 C 0.07805 0.65601 0.39178 0.0
H330 H 0.5222 0.08176 0.90906 0.0
H331 H 0.44868 0.07102 1.00848 0.0
H332 H 0.4212 0.10402 0.97461 0.0
H333 H 0.4201 0.13887 0.91802 0.0
H334 H 0.49958 0.1571 0.8222 0.0
H335 H 0.52425 0.12003 0.85442 0.0
C336 C 0.50076 0.08714 0.92392 0.0
C337 C 0.48794 0.07372 0.96172 0.0
C338 C 0.48663 0.10823 0.90512 0.0
C339 C 0.45886 0.08004 0.97934 0.0
C340 C 0.44343 0.09953 0.96014 0.0
C341 C 0.44297 0.13485 0.90428 0.0
C342 C 0.45805 0.15066 0.86781 0.0
C343 C 0.45745 0.11417 0.92326 0.0
C344 C 0.48781 0.14551 0.85041 0.0
C345 C 0.50166 0.12407 0.86871 0.0
H346 H 0.42537 0.49958 0.43723 0.0
H347 H 0.36226 0.45055 0.54349 0.0
H348 H 0.30018 0.4245 0.51091 0.0
H349 H 0.2645 0.4209 0.45275 0.0
H350 H 0.33036 0.47685 0.34916 0.0
H351 H 0.39096 0.49638 0.38063 0.0
C352 C 0.39799 0.483 0.45332 0.0
C353 C 0.39827 0.47733 0.49277 0.0
C354 C 0.36304 0.47034 0.43504 0.0
C355 C 0.36273 0.45518 0.5131 0.0
C356 C 0.32736 0.44081 0.49455 0.0
C357 C 0.29216 0.43751 0.43718 0.0
C358 C 0.29286 0.44769 0.39869 0.0
C359 C 0.32721 0.44918 0.4557 0.0
C360 C 0.3289 0.4691 0.37887 0.0
C361 C 0.3636 0.47998 0.39673 0.0
H362 H 0.87678 0.3961 0.99479 0.0
H363 H -0.00546 0.42303 0.96456 0.0
H364 H 0.96965 0.36687 0.92197 0.0
H365 H 0.91478 0.31507 0.88796 0.0
H366 H 0.79771 0.29294 0.91397 0.0
H367 H 0.82212 0.34328 0.96282 0.0
C368 C 0.89705 0.38956 0.97903 0.0
C369 C 0.93749 0.41402 0.98239 0.0
C370 C 0.88266 0.35873 0.95321 0.0
C371 C 0.96333 0.40463 0.9626 0.0
C372 C 0.94909 0.37285 0.93787 0.0
C373 C 0.89456 0.3211 0.90447 0.0
C374 C 0.85449 0.30051 0.89715 0.0
C375 C 0.9089 0.35053 0.93203 0.0
C376 C 0.82869 0.30866 0.91875 0.0
C377 C 0.84261 0.33727 0.94681 0.0
H378 H 0.86639 0.47907 1.00247 0.0
H379 H 0.97652 0.58534 0.99397 0.0
H380 H 0.94659 0.61458 0.95712 0.0
H381 H 0.89229 0.60623 0.91883 0.0
H382 H 0.7848 0.49693 0.92078 0.0
H383 H 0.81095 0.47203 0.96762 0.0
C384 C 0.88377 0.50885 0.99295 0.0
C385 C 0.92387 0.52975 1.00036 0.0
C386 C 0.86711 0.52443 0.96957 0.0
C387 C 0.94567 0.56858 0.98877 0.0
C388 C 0.92868 0.58508 0.96713 0.0
C389 C 0.87437 0.57706 0.92974 0.0
C390 C 0.83672 0.55328 0.91599 0.0
C391 C 0.88996 0.56266 0.95592 0.0
C392 C 0.81397 0.51563 0.93052 0.0
C393 C 0.82886 0.50147 0.95743 0.0
H394 H 0.42527 0.87868 0.45234 0.0
H395 H 0.40482 0.97219 0.48648 0.0
H396 H 0.34578 0.94364 0.45029 0.0
H397 H 0.30305 0.89557 0.40497 0.0
H398 H 0.32477 0.80392 0.36711 0.0
H399 H 0.3809 0.82899 0.40804 0.0
C400 C 0.40799 0.89292 0.45185 0.0
C401 C 0.41986 0.9278 0.47209 0.0
C402 C 0.37465 0.87705 0.42982 0.0
C403 C 0.39638 0.94516 0.47175 0.0
C404 C 0.36277 0.92908 0.45062 0.0
C405 C 0.3199 0.88087 0.40565 0.0
C406 C 0.30985 0.84803 0.38272 0.0
C407 C 0.35214 0.89557 0.42893 0.0
C408 C 0.33198 0.82936 0.38427 0.0
C409 C 0.36403 0.84366 0.40772 0.0
H410 H 0.45144 0.41894 0.92269 0.0
H411 H 0.47155 0.37761 1.02716 0.0
H412 H 0.44905 0.31375 0.9986 0.0
H413 H 0.43181 0.27247 0.94126 0.0
H414 H 0.41001 0.31308 0.83713 0.0
H415 H 0.42435 0.37403 0.86825 0.0
C416 C 0.45005 0.39564 0.93939 0.0
C417 C 0.46337 0.40303 0.97693 0.0
C418 C 0.43709 0.35896 0.92271 0.0
C419 C 0.46125 0.37259 0.99835 0.0
C420 C 0.44869 0.33616 0.98189 0.0
C421 C 0.42938 0.29434 0.92561 0.0
C422 C 0.42022 0.28831 0.88678 0.0
C423 C 0.43772 0.32938 0.94372 0.0
C424 C 0.41688 0.31683 0.86702 0.0
C425 C 0.42541 0.35188 0.88475 0.0
H426 H 0.07251 0.45239 0.48999 0.0
H427 H 0.00739 0.47104 0.40581 0.0
H428 H 0.02637 0.43742 0.35782 0.0
H429 H 0.06832 0.4109 0.33779 0.0
H430 H 0.13772 0.39606 0.42024 0.0
H431 H 0.10967 0.41904 0.47096 0.0
C432 C 0.06172 0.44808 0.46138 0.0
C433 C 0.03851 0.46401 0.45135 0.0
C434 C 0.07387 0.42975 0.43353 0.0
C435 C 0.02517 0.45889 0.41409 0.0
C436 C 0.03618 0.43985 0.38664 0.0
C437 C 0.07686 0.41194 0.36696 0.0
C438 C 0.10551 0.40211 0.37496 0.0
C439 C 0.06158 0.42635 0.3957 0.0
C440 C 0.11584 0.40345 0.41309 0.0
C441 C 0.09999 0.4169 0.44212 0.0
H442 H 0.59312 0.03982 0.93078 0.0
H443 H 0.6311 0.09843 1.03817 0.0
H444 H 0.69888 0.13173 1.01315 0.0
H445 H 0.74502 0.15152 0.95747 0.0
H446 H 0.70601 0.09356 0.84953 0.0
H447 H 0.64126 0.05195 0.87825 0.0
C448 C 0.61649 0.05911 0.94895 0.0
C449 C 0.60734 0.06692 0.98614 0.0
C450 C 0.65511 0.0785 0.93412 0.0
C451 C 0.63761 0.0919 1.00955 0.0
C452 C 0.67625 0.11114 0.9951 0.0
C453 C 0.72266 0.12916 0.9404 0.0
C454 C 0.73036 0.12628 0.90112 0.0
C455 C 0.6851 0.10578 0.95694 0.0
C456 C 0.70104 0.09676 0.87968 0.0
C457 C 0.66381 0.07307 0.89604 0.0
H458 H 0.49126 0.57381 0.43486 0.0
H459 H 0.55521 0.63051 0.53492 0.0
H460 H 0.58236 0.69353 0.50272 0.0
H461 H 0.58295 0.73242 0.44769 0.0
H462 H 0.51121 0.67374 0.35218 0.0
H463 H 0.49039 0.61144 0.38195 0.0
C464 C 0.51105 0.59996 0.44985 0.0
C465 C 0.52061 0.59757 0.48756 0.0
C466 C 0.52419 0.63571 0.43231 0.0
C467 C 0.54735 0.63157 0.50595 0.0
C468 C 0.56239 0.66756 0.48771 0.0
C469 C 0.56257 0.70594 0.43359 0.0
C470 C 0.54838 0.70771 0.39788 0.0
C471 C 0.55009 0.67002 0.45127 0.0
C472 C 0.52209 0.67325 0.37986 0.0
C473 C 0.51049 0.63759 0.39668 0.0
H474 H 0.44571 0.04105 0.68594 0.0
H475 H 0.45821 0.09228 0.5755 0.0
H476 H 0.42241 0.12438 0.59985 0.0
H477 H 0.39633 0.14516 0.65493 0.0
H478 H 0.38542 0.09466 0.76579 0.0
H479 H 0.41104 0.05451 0.73874 0.0
C480 C 0.43985 0.05864 0.66705 0.0
C481 C 0.45488 0.06463 0.62909 0.0
C482 C 0.4198 0.0774 0.68143 0.0
C483 C 0.44684 0.08716 0.60477 0.0
C484 C 0.42664 0.10574 0.6188 0.0
C485 C 0.39865 0.12474 0.67307 0.0
C486 C 0.38946 0.12355 0.71258 0.0
C487 C 0.41421 0.10215 0.65745 0.0
C488 C 0.39244 0.09655 0.73541 0.0
C489 C 0.40738 0.07368 0.72 0.0
H490 H 0.37454 0.44404 0.13164 0.0
H491 H 0.4582 0.46483 0.21662 0.0
H492 H 0.40542 0.42975 0.26417 0.0
H493 H 0.33644 0.40105 0.2836 0.0
H494 H 0.2523 0.38409 0.20021 0.0
H495 H 0.30393 0.40886 0.15006 0.0
C496 C 0.38102 0.43987 0.16032 0.0
C497 C 0.42018 0.45681 0.17063 0.0
C498 C 0.35039 0.42068 0.18793 0.0
C499 C 0.4283 0.45189 0.20804 0.0
C500 C 0.39811 0.43201 0.23526 0.0
C501 C 0.32908 0.40195 0.25435 0.0
C502 C 0.29036 0.39093 0.24596 0.0
C503 C 0.35913 0.41741 0.22587 0.0
C504 C 0.28171 0.39237 0.20771 0.0
C505 C 0.31135 0.40682 0.17897 0.0
H506 H 0.95893 0.42164 0.69971 0.0
H507 H 0.91861 0.37869 0.58729 0.0
H508 H 0.88351 0.31245 0.61168 0.0
H509 H 0.85768 0.26773 0.66646 0.0
H510 H 0.89965 0.31006 0.77867 0.0
H511 H 0.94115 0.3751 0.75288 0.0
C512 C 0.94306 0.39763 0.68052 0.0
C513 C 0.94117 0.40505 0.64181 0.0
C514 C 0.92305 0.35946 0.69474 0.0
C515 C 0.9207 0.37371 0.61714 0.0
C516 C 0.90039 0.33583 0.63113 0.0
C517 C 0.87663 0.29101 0.68509 0.0
C518 C 0.87523 0.284 0.72448 0.0
C519 C 0.90044 0.32846 0.67007 0.0
C520 C 0.90017 0.31447 0.74822 0.0
C521 C 0.92369 0.35185 0.73354 0.0
H522 H 0.47737 0.92534 0.194 0.0
H523 H 0.5241 0.91138 0.08483 0.0
H524 H 0.55167 0.87661 0.11574 0.0
H525 H 0.56195 0.84942 0.17373 0.0
H526 H 0.50981 0.85827 0.28146 0.0
H527 H 0.48349 0.89443 0.25069 0.0
C528 C 0.49289 0.91414 0.17661 0.0
C529 C 0.49853 0.92128 0.13693 0.0
C530 C 0.50737 0.89282 0.19428 0.0
C531 C 0.51982 0.90724 0.11543 0.0
C532 C 0.53528 0.88689 0.13305 0.0
C533 C 0.54465 0.85912 0.19041 0.0
C534 C 0.53791 0.85128 0.22983 0.0
C535 C 0.52919 0.87948 0.17243 0.0
C536 C 0.5152 0.86372 0.25104 0.0
C537 C 0.50035 0.8846 0.23351 0.0
H538 H 0.56366 0.48215 0.68943 0.0
H539 H 0.62724 0.56304 0.59829 0.0
H540 H 0.68561 0.59329 0.63661 0.0
H541 H 0.71995 0.59195 0.69332 0.0
H542 H 0.65656 0.50669 0.78141 0.0
H543 H 0.59691 0.48198 0.74629 0.0
C544 C 0.59028 0.50654 0.67795 0.0
C545 C 0.59134 0.51997 0.64082 0.0
C546 C 0.62392 0.5223 0.69922 0.0
C547 C 0.62566 0.55222 0.62678 0.0
C548 C 0.65912 0.56913 0.6485 0.0
C549 C 0.69306 0.56799 0.70487 0.0
C550 C 0.69283 0.55092 0.73981 0.0
C551 C 0.65887 0.55359 0.68426 0.0
C552 C 0.65771 0.52003 0.75441 0.0
C553 C 0.62352 0.50604 0.73447 0.0
H554 H 0.15904 0.62552 0.10011 0.0
H555 H 0.04951 0.61609 0.13797 0.0
H556 H 0.08382 0.6732 0.17842 0.0
H557 H 0.14373 0.71847 0.21064 0.0
H558 H 0.25324 0.72661 0.17422 0.0
H559 H 0.2202 0.67704 0.12572 0.0
C560 C 0.1429 0.63689 0.11627 0.0
C561 C 0.10186 0.61667 0.11632 0.0
C562 C 0.16271 0.66863 0.14055 0.0
C563 C 0.08109 0.63141 0.13727 0.0
C564 C 0.10068 0.66364 0.16087 0.0
C565 C 0.16043 0.70958 0.19191 0.0
C566 C 0.20074 0.72547 0.1966 0.0
C567 C 0.14126 0.68122 0.1641 0.0
C568 C 0.22214 0.71445 0.17149 0.0
C569 C 0.20326 0.68617 0.14374 0.0
loop_
_geom_bond_atom_site_label_1
_geom_bond_atom_site_label_2
_geom_bond_distance
_geom_bond_site_symmetry_2
_ccdc_geom_bond_type
H0 C6 0.930 . S
H1 C9 0.931 . S
H2 C11 0.933 1_455 S
H3 C13 0.930 . S
H4 C15 0.930 . S
H5 C17 0.931 . S
C6 H0 0.930 . S
C6 C7 1.380 . S
C6 C8 1.394 . S
C7 C6 1.380 . S
C7 C11 1.382 . S
C8 C6 1.394 . S
C8 C9 1.400 . S
C9 H1 0.931 . S
C9 C8 1.400 . S
C9 C10 1.375 . S
C10 C9 1.375 . S
C10 C11 1.415 . S
C10 C12 1.501 1_656 S
C11 H2 0.933 1_655 S
C11 C7 1.382 . S
C11 C10 1.415 . S
C12 C10 1.501 1_454 S
C12 C13 1.384 . S
C12 C17 1.408 . S
C13 H3 0.930 . S
C13 C12 1.384 . S
C13 C14 1.389 . S
C14 C13 1.389 . S
C14 C15 1.405 . S
C15 H4 0.930 . S
C15 C14 1.405 . S
C15 C16 1.364 . S
C16 C15 1.364 . S
C16 C17 1.400 . S
C17 H5 0.931 . S
C17 C12 1.408 . S
C17 C16 1.400 . S
H18 C24 0.930 . S
H19 C27 0.931 . S
H20 C29 0.931 . S
H21 C31 0.930 1_545 S
H22 C33 0.930 . S
H23 C35 0.931 . S
C24 H18 0.930 . S
C24 C25 1.380 . S
C24 C26 1.394 . S
C25 C24 1.380 . S
C25 C29 1.382 . S
C26 C24 1.394 . S
C26 C27 1.400 . S
C27 H19 0.931 . S
C27 C26 1.400 . S
C27 C28 1.375 . S
C28 C27 1.375 . S
C28 C29 1.415 . S
C28 C30 1.501 . S
C29 H20 0.931 . S
C29 C25 1.382 . S
C29 C28 1.415 . S
C30 C28 1.501 . S
C30 C31 1.384 1_545 S
C30 C35 1.408 1_545 S
C31 H21 0.930 1_565 S
C31 C30 1.384 1_565 S
C31 C32 1.389 . S
C32 C31 1.389 . S
C32 C33 1.405 . S
C33 H22 0.930 . S
C33 C32 1.405 . S
C33 C34 1.364 . S
C34 C33 1.364 . S
C34 C35 1.400 . S
C35 H23 0.931 . S
C35 C30 1.408 1_565 S
C35 C34 1.400 . S
H36 C42 0.930 . S
H37 C45 0.931 . S
H38 C47 0.931 . S
H39 C49 0.930 . S
H40 C51 0.930 . S
H41 C53 0.931 . S
C42 H36 0.930 . S
C42 C43 1.380 . S
C42 C44 1.394 . S
C43 C42 1.380 . S
C43 C47 1.382 . S
C44 C42 1.394 . S
C44 C45 1.400 . S
C45 H37 0.931 . S
C45 C44 1.400 . S
C45 C46 1.375 . S
C46 C45 1.375 . S
C46 C47 1.415 . S
C46 C48 1.501 1_554 S
C47 H38 0.931 . S
C47 C43 1.382 . S
C47 C46 1.415 . S
C48 C46 1.501 1_556 S
C48 C49 1.384 . S
C48 C53 1.408 . S
C49 H39 0.930 . S
C49 C48 1.384 . S
C49 C50 1.389 . S
C50 C49 1.389 . S
C50 C51 1.405 . S
C51 H40 0.930 . S
C51 C50 1.405 . S
C51 C52 1.364 . S
C52 C51 1.364 . S
C52 C53 1.400 . S
C53 H41 0.931 . S
C53 C48 1.408 . S
C53 C52 1.400 . S
H54 C60 0.930 . S
H55 C63 0.931 . S
H56 C65 0.931 . S
H57 C67 0.930 . S
H58 C69 0.930 . S
H59 C71 0.931 . S
C60 H54 0.930 . S
C60 C61 1.380 . S
C60 C62 1.394 . S
C61 C60 1.380 . S
C61 C65 1.382 . S
C62 C60 1.394 . S
C62 C63 1.400 . S
C63 H55 0.931 . S
C63 C62 1.400 . S
C63 C64 1.375 . S
C64 C63 1.375 . S
C64 C65 1.415 . S
C64 C66 1.501 1_655 S
C65 H56 0.931 . S
C65 C61 1.382 . S
C65 C64 1.415 . S
C66 C64 1.501 1_455 S
C66 C67 1.384 . S
C66 C71 1.408 . S
C67 H57 0.930 . S
C67 C66 1.384 . S
C67 C68 1.389 . S
C68 C67 1.389 . S
C68 C69 1.405 . S
C69 H58 0.930 . S
C69 C68 1.405 . S
C69 C70 1.364 . S
C70 C69 1.364 . S
C70 C71 1.400 . S
C71 H59 0.931 . S
C71 C66 1.408 . S
C71 C70 1.400 . S
H72 C78 0.930 . S
H73 C81 0.931 . S
H74 C83 0.931 . S
H75 C85 0.930 . S
H76 C87 0.930 . S
H77 C89 0.931 . S
C78 H72 0.930 . S
C78 C79 1.380 . S
C78 C80 1.394 . S
C79 C78 1.380 . S
C79 C83 1.382 . S
C80 C78 1.394 . S
C80 C81 1.400 . S
C81 H73 0.931 . S
C81 C80 1.400 . S
C81 C82 1.375 . S
C82 C81 1.375 . S
C82 C83 1.415 . S
C82 C84 1.501 1_564 S
C83 H74 0.931 . S
C83 C79 1.382 . S
C83 C82 1.415 . S
C84 C82 1.501 1_546 S
C84 C85 1.384 . S
C84 C89 1.408 . S
C85 H75 0.930 . S
C85 C84 1.384 . S
C85 C86 1.389 . S
C86 C85 1.389 . S
C86 C87 1.405 . S
C87 H76 0.930 . S
C87 C86 1.405 . S
C87 C88 1.364 . S
C88 C87 1.364 . S
C88 C89 1.400 . S
C89 H77 0.931 . S
C89 C84 1.408 . S
C89 C88 1.400 . S
H90 C96 0.930 . S
H91 C99 0.931 . S
H92 C101 0.931 . S
H93 C103 0.930 . S
H94 C105 0.930 . S
H95 C107 0.931 . S
C96 H90 0.930 . S
C96 C97 1.380 . S
C96 C98 1.394 . S
C97 C96 1.380 . S
C97 C101 1.382 . S
C98 C96 1.394 . S
C98 C99 1.400 . S
C99 H91 0.931 . S
C99 C98 1.400 . S
C99 C100 1.375 . S
C100 C99 1.375 . S
C100 C101 1.415 . S
C100 C102 1.501 . S
C101 H92 0.931 . S
C101 C97 1.382 . S
C101 C100 1.415 . S
C102 C100 1.501 . S
C102 C103 1.384 . S
C102 C107 1.408 . S
C103 H93 0.930 . S
C103 C102 1.384 . S
C103 C104 1.389 . S
C104 C103 1.389 . S
C104 C105 1.405 . S
C105 H94 0.930 . S
C105 C104 1.405 . S
C105 C106 1.364 . S
C106 C105 1.364 . S
C106 C107 1.400 . S
C107 H95 0.931 . S
C107 C102 1.408 . S
C107 C106 1.400 . S
Mg108 O115 2.141 . S
Mg108 O116 2.048 . S
Mg108 O117 2.048 . S
Mg108 O120 2.141 . S
C109 O110 1.313 . S
C109 O116 1.195 . S
O110 C109 1.313 . S
C111 O112 1.245 . S
C111 O120 1.289 . S
O112 C111 1.245 . S
C113 O114 1.245 . S
C113 O115 1.289 . S
O114 C113 1.245 . S
O115 Mg108 2.141 . S
O115 C113 1.289 . S
O116 Mg108 2.048 . S
O116 C109 1.195 . S
O117 Mg108 2.048 . S
O117 C118 1.195 . S
C118 O117 1.195 . S
C118 O119 1.313 . S
O119 C118 1.313 . S
O120 Mg108 2.141 . S
O120 C111 1.289 . S
Mg121 O128 2.141 . S
Mg121 O129 2.048 . S
Mg121 O130 2.048 . S
Mg121 O133 2.141 . S
C122 O123 1.313 . S
C122 O129 1.195 . S
O123 C122 1.313 . S
C124 O125 1.245 . S
C124 O133 1.289 . S
O125 C124 1.245 . S
C126 O127 1.245 . S
C126 O128 1.289 . S
O127 C126 1.245 . S
O128 Mg121 2.141 . S
O128 C126 1.289 . S
O129 Mg121 2.048 . S
O129 C122 1.195 . S
O130 Mg121 2.048 . S
O130 C131 1.195 . S
C131 O130 1.195 . S
C131 O132 1.313 . S
O132 C131 1.313 . S
O133 Mg121 2.141 . S
O133 C124 1.289 . S
Mg134 O141 2.141 . S
Mg134 O142 2.048 . S
Mg134 O143 2.048 . S
Mg134 O146 2.141 . S
C135 O136 1.313 . S
C135 O142 1.195 . S
O136 C135 1.313 . S
C137 O138 1.245 . S
C137 O146 1.289 . S
O138 C137 1.245 . S
C139 O140 1.245 . S
C139 O141 1.289 . S
O140 C139 1.245 . S
O141 Mg134 2.141 . S
O141 C139 1.289 . S
O142 Mg134 2.048 . S
O142 C135 1.195 . S
O143 Mg134 2.048 . S
O143 C144 1.195 . S
C144 O143 1.195 . S
C144 O145 1.313 . S
O145 C144 1.313 . S
O146 Mg134 2.141 . S
O146 C137 1.289 . S
Mg147 O154 2.141 . S
Mg147 O155 2.048 . S
Mg147 O156 2.048 . S
Mg147 O159 2.141 . S
C148 O149 1.313 . S
C148 O155 1.195 . S
O149 C148 1.313 . S
C150 O151 1.245 . S
C150 O159 1.289 . S
O151 C150 1.245 . S
C152 O153 1.245 . S
C152 O154 1.289 . S
O153 C152 1.245 . S
O154 Mg147 2.141 . S
O154 C152 1.289 . S
O155 Mg147 2.048 . S
O155 C148 1.195 . S
O156 Mg147 2.048 . S
O156 C157 1.195 . S
C157 O156 1.195 . S
C157 O158 1.313 . S
O158 C157 1.313 . S
O159 Mg147 2.141 . S
O159 C150 1.289 . S
Mg160 O167 2.141 . S
Mg160 O168 2.048 . S
Mg160 O169 2.048 . S
Mg160 O172 2.141 . S
C161 O162 1.313 . S
C161 O168 1.195 . S
O162 C161 1.313 . S
C163 O164 1.245 . S
C163 O172 1.289 . S
O164 C163 1.245 . S
C165 O166 1.245 . S
C165 O167 1.289 . S
O166 C165 1.245 . S
O167 Mg160 2.141 . S
O167 C165 1.289 . S
O168 Mg160 2.048 . S
O168 C161 1.195 . S
O169 Mg160 2.048 . S
O169 C170 1.195 . S
C170 O169 1.195 . S
C170 O171 1.313 . S
O171 C170 1.313 . S
O172 Mg160 2.141 . S
O172 C163 1.289 . S
Mg173 O180 2.141 . S
Mg173 O181 2.048 . S
Mg173 O182 2.048 . S
Mg173 O185 2.141 . S
C174 O175 1.313 . S
C174 O181 1.195 . S
O175 C174 1.313 . S
C176 O177 1.245 . S
C176 O185 1.289 . S
O177 C176 1.245 . S
C178 O179 1.245 . S
C178 O180 1.289 . S
O179 C178 1.245 . S
O180 Mg173 2.141 . S
O180 C178 1.289 . S
O181 Mg173 2.048 . S
O181 C174 1.195 . S
O182 Mg173 2.048 . S
O182 C183 1.195 . S
C183 O182 1.195 . S
C183 O184 1.313 . S
O184 C183 1.313 . S
O185 Mg173 2.141 . S
O185 C176 1.289 . S
H186 C192 0.930 . S
H187 C195 0.930 . S
H188 C196 0.930 . S
H189 C197 0.930 . S
H190 C200 0.930 . S
H191 C201 0.930 . S
C192 H186 0.930 . S
C192 C193 1.355 . S
C192 C194 1.415 . S
C193 C192 1.355 . S
C193 C195 1.419 . S
C194 C192 1.415 . S
C194 C199 1.425 . S
C194 C201 1.409 . S
C195 H187 0.930 . S
C195 C193 1.419 . S
C195 C196 1.362 . S
C196 H188 0.930 . S
C196 C195 1.362 . S
C196 C199 1.409 . S
C197 H189 0.930 . S
C197 C198 1.355 . S
C197 C199 1.415 . S
C198 C197 1.355 . S
C198 C200 1.419 . S
C199 C194 1.425 . S
C199 C196 1.409 . S
C199 C197 1.415 . S
C200 H190 0.930 . S
C200 C198 1.419 . S
C200 C201 1.362 . S
C201 H191 0.930 . S
C201 C194 1.409 . S
C201 C200 1.362 . S
H202 C208 0.930 . S
H203 C211 0.930 . S
H204 C212 0.930 . S
H205 C213 0.930 . S
H206 C216 0.930 . S
H207 C217 0.930 . S
C208 H202 0.930 . S
C208 C209 1.355 . S
C208 C210 1.415 . S
C209 C208 1.355 . S
C209 C211 1.419 . S
C210 C208 1.415 . S
C210 C215 1.425 . S
C210 C217 1.409 . S
C211 H203 0.930 . S
C211 C209 1.419 . S
C211 C212 1.362 . S
C212 H204 0.930 . S
C212 C211 1.362 . S
C212 C215 1.409 . S
C213 H205 0.930 . S
C213 C214 1.355 . S
C213 C215 1.415 . S
C214 C213 1.355 . S
C214 C216 1.419 . S
C215 C210 1.425 . S
C215 C212 1.409 . S
C215 C213 1.415 . S
C216 H206 0.930 . S
C216 C214 1.419 . S
C216 C217 1.362 . S
C217 H207 0.930 . S
C217 C210 1.409 . S
C217 C216 1.362 . S
H218 C224 0.930 . S
H219 C227 0.930 . S
H220 C228 0.930 . S
H221 C229 0.930 . S
H222 C232 0.930 . S
H223 C233 0.930 . S
C224 H218 0.930 . S
C224 C225 1.355 . S
C224 C226 1.415 . S
C225 C224 1.355 . S
C225 C227 1.419 . S
C226 C224 1.415 . S
C226 C231 1.425 . S
C226 C233 1.409 . S
C227 H219 0.930 . S
C227 C225 1.419 . S
C227 C228 1.362 . S
C228 H220 0.930 . S
C228 C227 1.362 . S
C228 C231 1.409 . S
C229 H221 0.930 . S
C229 C230 1.355 . S
C229 C231 1.415 . S
C230 C229 1.355 . S
C230 C232 1.419 . S
C231 C226 1.425 . S
C231 C228 1.409 . S
C231 C229 1.415 . S
C232 H222 0.930 . S
C232 C230 1.419 . S
C232 C233 1.362 . S
C233 H223 0.930 . S
C233 C226 1.409 . S
C233 C232 1.362 . S
H234 C240 0.930 . S
H235 C243 0.930 . S
H236 C244 0.930 . S
H237 C245 0.930 . S
H238 C248 0.930 . S
H239 C249 0.930 . S
C240 H234 0.930 . S
C240 C241 1.355 . S
C240 C242 1.415 . S
C241 C240 1.355 . S
C241 C243 1.419 . S
C242 C240 1.415 . S
C242 C247 1.425 . S
C242 C249 1.409 . S
C243 H235 0.930 . S
C243 C241 1.419 . S
C243 C244 1.362 . S
C244 H236 0.930 . S
C244 C243 1.362 . S
C244 C247 1.409 . S
C245 H237 0.930 . S
C245 C246 1.355 . S
C245 C247 1.415 . S
C246 C245 1.355 . S
C246 C248 1.419 . S
C247 C242 1.425 . S
C247 C244 1.409 . S
C247 C245 1.415 . S
C248 H238 0.930 . S
C248 C246 1.419 . S
C248 C249 1.362 . S
C249 H239 0.930 . S
C249 C242 1.409 . S
C249 C248 1.362 . S
H250 C256 0.930 . S
H251 C259 0.930 . S
H252 C260 0.930 . S
H253 C261 0.930 . S
H254 C264 0.930 . S
H255 C265 0.930 . S
C256 H250 0.930 . S
C256 C257 1.355 . S
C256 C258 1.415 . S
C257 C256 1.355 . S
C257 C259 1.419 . S
C258 C256 1.415 . S
C258 C263 1.425 . S
C258 C265 1.409 . S
C259 H251 0.930 . S
C259 C257 1.419 . S
C259 C260 1.362 . S
C260 H252 0.930 . S
C260 C259 1.362 . S
C260 C263 1.409 . S
C261 H253 0.930 . S
C261 C262 1.355 . S
C261 C263 1.415 . S
C262 C261 1.355 . S
C262 C264 1.419 . S
C263 C258 1.425 . S
C263 C260 1.409 . S
C263 C261 1.415 . S
C264 H254 0.930 . S
C264 C262 1.419 . S
C264 C265 1.362 . S
C265 H255 0.930 . S
C265 C258 1.409 . S
C265 C264 1.362 . S
H266 C272 0.930 . S
H267 C275 0.930 . S
H268 C276 0.930 . S
H269 C277 0.930 . S
H270 C280 0.930 . S
H271 C281 0.930 . S
C272 H266 0.930 . S
C272 C273 1.355 . S
C272 C274 1.415 . S
C273 C272 1.355 . S
C273 C275 1.419 . S
C274 C272 1.415 . S
C274 C279 1.425 . S
C274 C281 1.409 . S
C275 H267 0.930 . S
C275 C273 1.419 . S
C275 C276 1.362 . S
C276 H268 0.930 . S
C276 C275 1.362 . S
C276 C279 1.409 . S
C277 H269 0.930 . S
C277 C278 1.355 . S
C277 C279 1.415 . S
C278 C277 1.355 . S
C278 C280 1.419 . S
C279 C274 1.425 . S
C279 C276 1.409 . S
C279 C277 1.415 . S
C280 H270 0.930 . S
C280 C278 1.419 . S
C280 C281 1.362 . S
C281 H271 0.930 . S
C281 C274 1.409 . S
C281 C280 1.362 . S
H282 C288 0.930 . S
H283 C291 0.930 . S
H284 C292 0.930 . S
H285 C293 0.930 . S
H286 C296 0.930 . S
H287 C297 0.930 . S
C288 H282 0.930 . S
C288 C289 1.355 . S
C288 C290 1.415 . S
C289 C288 1.355 . S
C289 C291 1.419 . S
C290 C288 1.415 . S
C290 C295 1.425 . S
C290 C297 1.409 . S
C291 H283 0.930 . S
C291 C289 1.419 . S
C291 C292 1.362 . S
C292 H284 0.930 . S
C292 C291 1.362 . S
C292 C295 1.409 . S
C293 H285 0.930 . S
C293 C294 1.355 . S
C293 C295 1.415 . S
C294 C293 1.355 . S
C294 C296 1.419 . S
C295 C290 1.425 . S
C295 C292 1.409 . S
C295 C293 1.415 . S
C296 H286 0.930 . S
C296 C294 1.419 . S
C296 C297 1.362 . S
C297 H287 0.930 . S
C297 C290 1.409 . S
C297 C296 1.362 . S
H298 C304 0.930 . S
H299 C307 0.930 . S
H300 C308 0.930 . S
H301 C309 0.930 . S
H302 C312 0.930 . S
H303 C313 0.930 . S
C304 H298 0.930 . S
C304 C305 1.355 . S
C304 C306 1.415 . S
C305 C304 1.355 . S
C305 C307 1.419 . S
C306 C304 1.415 . S
C306 C311 1.425 . S
C306 C313 1.409 . S
C307 H299 0.930 . S
C307 C305 1.419 . S
C307 C308 1.362 . S
C308 H300 0.930 . S
C308 C307 1.362 . S
C308 C311 1.409 . S
C309 H301 0.930 . S
C309 C310 1.355 . S
C309 C311 1.415 . S
C310 C309 1.355 . S
C310 C312 1.419 . S
C311 C306 1.425 . S
C311 C308 1.409 . S
C311 C309 1.415 . S
C312 H302 0.930 . S
C312 C310 1.419 . S
C312 C313 1.362 . S
C313 H303 0.930 . S
C313 C306 1.409 . S
C313 C312 1.362 . S
H314 C320 0.930 . S
H315 C323 0.930 . S
H316 C324 0.930 . S
H317 C325 0.930 . S
H318 C328 0.930 . S
H319 C329 0.930 . S
C320 H314 0.930 . S
C320 C321 1.355 . S
C320 C322 1.415 . S
C321 C320 1.355 . S
C321 C323 1.419 . S
C322 C320 1.415 . S
C322 C327 1.425 . S
C322 C329 1.409 . S
C323 H315 0.930 . S
C323 C321 1.419 . S
C323 C324 1.362 . S
C324 H316 0.930 . S
C324 C323 1.362 . S
C324 C327 1.409 . S
C325 H317 0.930 . S
C325 C326 1.355 . S
C325 C327 1.415 . S
C326 C325 1.355 . S
C326 C328 1.419 . S
C327 C322 1.425 . S
C327 C324 1.409 . S
C327 C325 1.415 . S
C328 H318 0.930 . S
C328 C326 1.419 . S
C328 C329 1.362 . S
C329 H319 0.930 . S
C329 C322 1.409 . S
C329 C328 1.362 . S
H330 C336 0.930 . S
H331 C339 0.930 . S
H332 C340 0.930 . S
H333 C341 0.930 . S
H334 C344 0.930 . S
H335 C345 0.930 . S
C336 H330 0.930 . S
C336 C337 1.355 . S
C336 C338 1.415 . S
C337 C336 1.355 . S
C337 C339 1.419 . S
C338 C336 1.415 . S
C338 C343 1.425 . S
C338 C345 1.409 . S
C339 H331 0.930 . S
C339 C337 1.419 . S
C339 C340 1.362 . S
C340 H332 0.930 . S
C340 C339 1.362 . S
C340 C343 1.409 . S
C341 H333 0.930 . S
C341 C342 1.355 . S
C341 C343 1.415 . S
C342 C341 1.355 . S
C342 C344 1.419 . S
C343 C338 1.425 . S
C343 C340 1.409 . S
C343 C341 1.415 . S
C344 H334 0.930 . S
C344 C342 1.419 . S
C344 C345 1.362 . S
C345 H335 0.930 . S
C345 C338 1.409 . S
C345 C344 1.362 . S
H346 C352 0.930 . S
H347 C355 0.930 . S
H348 C356 0.930 . S
H349 C357 0.930 . S
H350 C360 0.930 . S
H351 C361 0.930 . S
C352 H346 0.930 . S
C352 C353 1.355 . S
C352 C354 1.415 . S
C353 C352 1.355 . S
C353 C355 1.419 . S
C354 C352 1.415 . S
C354 C359 1.425 . S
C354 C361 1.409 . S
C355 H347 0.930 . S
C355 C353 1.419 . S
C355 C356 1.362 . S
C356 H348 0.930 . S
C356 C355 1.362 . S
C356 C359 1.409 . S
C357 H349 0.930 . S
C357 C358 1.355 . S
C357 C359 1.415 . S
C358 C357 1.355 . S
C358 C360 1.419 . S
C359 C354 1.425 . S
C359 C356 1.409 . S
C359 C357 1.415 . S
C360 H350 0.930 . S
C360 C358 1.419 . S
C360 C361 1.362 . S
C361 H351 0.930 . S
C361 C354 1.409 . S
C361 C360 1.362 . S
H362 C368 0.930 . S
H363 C371 0.930 . S
H364 C372 0.930 . S
H365 C373 0.930 . S
H366 C376 0.930 . S
H367 C377 0.930 . S
C368 H362 0.930 . S
C368 C369 1.355 . S
C368 C370 1.415 . S
C369 C368 1.355 . S
C369 C371 1.419 . S
C370 C368 1.415 . S
C370 C375 1.425 . S
C370 C377 1.409 . S
C371 H363 0.930 . S
C371 C369 1.419 . S
C371 C372 1.362 . S
C372 H364 0.930 . S
C372 C371 1.362 . S
C372 C375 1.409 . S
C373 H365 0.930 . S
C373 C374 1.355 . S
C373 C375 1.415 . S
C374 C373 1.355 . S
C374 C376 1.419 . S
C375 C370 1.425 . S
C375 C372 1.409 . S
C375 C373 1.415 . S
C376 H366 0.930 . S
C376 C374 1.419 . S
C376 C377 1.362 . S
C377 H367 0.930 . S
C377 C370 1.409 . S
C377 C376 1.362 . S
H378 C384 0.930 . S
H379 C387 0.930 . S
H380 C388 0.930 . S
H381 C389 0.930 . S
H382 C392 0.930 . S
H383 C393 0.930 . S
C384 H378 0.930 . S
C384 C385 1.355 . S
C384 C386 1.415 . S
C385 C384 1.355 . S
C385 C387 1.419 . S
C386 C384 1.415 . S
C386 C391 1.425 . S
C386 C393 1.409 . S
C387 H379 0.930 . S
C387 C385 1.419 . S
C387 C388 1.362 . S
C388 H380 0.930 . S
C388 C387 1.362 . S
C388 C391 1.409 . S
C389 H381 0.930 . S
C389 C390 1.355 . S
C389 C391 1.415 . S
C390 C389 1.355 . S
C390 C392 1.419 . S
C391 C386 1.425 . S
C391 C388 1.409 . S
C391 C389 1.415 . S
C392 H382 0.930 . S
C392 C390 1.419 . S
C392 C393 1.362 . S
C393 H383 0.930 . S
C393 C386 1.409 . S
C393 C392 1.362 . S
H394 C400 0.930 . S
H395 C403 0.930 . S
H396 C404 0.930 . S
H397 C405 0.930 . S
H398 C408 0.930 . S
H399 C409 0.930 . S
C400 H394 0.930 . S
C400 C401 1.355 . S
C400 C402 1.415 . S
C401 C400 1.355 . S
C401 C403 1.419 . S
C402 C400 1.415 . S
C402 C407 1.425 . S
C402 C409 1.409 . S
C403 H395 0.930 . S
C403 C401 1.419 . S
C403 C404 1.362 . S
C404 H396 0.930 . S
C404 C403 1.362 . S
C404 C407 1.409 . S
C405 H397 0.930 . S
C405 C406 1.355 . S
C405 C407 1.415 . S
C406 C405 1.355 . S
C406 C408 1.419 . S
C407 C402 1.425 . S
C407 C404 1.409 . S
C407 C405 1.415 . S
C408 H398 0.930 . S
C408 C406 1.419 . S
C408 C409 1.362 . S
C409 H399 0.930 . S
C409 C402 1.409 . S
C409 C408 1.362 . S
H410 C416 0.930 . S
H411 C419 0.930 . S
H412 C420 0.930 . S
H413 C421 0.930 . S
H414 C424 0.930 . S
H415 C425 0.930 . S
C416 H410 0.930 . S
C416 C417 1.355 . S
C416 C418 1.415 . S
C417 C416 1.355 . S
C417 C419 1.419 . S
C418 C416 1.415 . S
C418 C423 1.425 . S
C418 C425 1.409 . S
C419 H411 0.930 . S
C419 C417 1.419 . S
C419 C420 1.362 . S
C420 H412 0.930 . S
C420 C419 1.362 . S
C420 C423 1.409 . S
C421 H413 0.930 . S
C421 C422 1.355 . S
C421 C423 1.415 . S
C422 C421 1.355 . S
C422 C424 1.419 . S
C423 C418 1.425 . S
C423 C420 1.409 . S
C423 C421 1.415 . S
C424 H414 0.930 . S
C424 C422 1.419 . S
C424 C425 1.362 . S
C425 H415 0.930 . S
C425 C418 1.409 . S
C425 C424 1.362 . S
H426 C432 0.930 . S
H427 C435 0.930 . S
H428 C436 0.930 . S
H429 C437 0.930 . S
H430 C440 0.930 . S
H431 C441 0.930 . S
C432 H426 0.930 . S
C432 C433 1.355 . S
C432 C434 1.415 . S
C433 C432 1.355 . S
C433 C435 1.419 . S
C434 C432 1.415 . S
C434 C439 1.425 . S
C434 C441 1.409 . S
C435 H427 0.930 . S
C435 C433 1.419 . S
C435 C436 1.362 . S
C436 H428 0.930 . S
C436 C435 1.362 . S
C436 C439 1.409 . S
C437 H429 0.930 . S
C437 C438 1.355 . S
C437 C439 1.415 . S
C438 C437 1.355 . S
C438 C440 1.419 . S
C439 C434 1.425 . S
C439 C436 1.409 . S
C439 C437 1.415 . S
C440 H430 0.930 . S
C440 C438 1.419 . S
C440 C441 1.362 . S
C441 H431 0.930 . S
C441 C434 1.409 . S
C441 C440 1.362 . S
H442 C448 0.930 . S
H443 C451 0.930 . S
H444 C452 0.930 . S
H445 C453 0.930 . S
H446 C456 0.930 . S
H447 C457 0.930 . S
C448 H442 0.930 . S
C448 C449 1.355 . S
C448 C450 1.415 . S
C449 C448 1.355 . S
C449 C451 1.419 . S
C450 C448 1.415 . S
C450 C455 1.425 . S
C450 C457 1.409 . S
C451 H443 0.930 . S
C451 C449 1.419 . S
C451 C452 1.362 . S
C452 H444 0.930 . S
C452 C451 1.362 . S
C452 C455 1.409 . S
C453 H445 0.930 . S
C453 C454 1.355 . S
C453 C455 1.415 . S
C454 C453 1.355 . S
C454 C456 1.419 . S
C455 C450 1.425 . S
C455 C452 1.409 . S
C455 C453 1.415 . S
C456 H446 0.930 . S
C456 C454 1.419 . S
C456 C457 1.362 . S
C457 H447 0.930 . S
C457 C450 1.409 . S
C457 C456 1.362 . S
H458 C464 0.930 . S
H459 C467 0.930 . S
H460 C468 0.930 . S
H461 C469 0.930 . S
H462 C472 0.930 . S
H463 C473 0.930 . S
C464 H458 0.930 . S
C464 C465 1.355 . S
C464 C466 1.415 . S
C465 C464 1.355 . S
C465 C467 1.419 . S
C466 C464 1.415 . S
C466 C471 1.425 . S
C466 C473 1.409 . S
C467 H459 0.930 . S
C467 C465 1.419 . S
C467 C468 1.362 . S
C468 H460 0.930 . S
C468 C467 1.362 . S
C468 C471 1.409 . S
C469 H461 0.930 . S
C469 C470 1.355 . S
C469 C471 1.415 . S
C470 C469 1.355 . S
C470 C472 1.419 . S
C471 C466 1.425 . S
C471 C468 1.409 . S
C471 C469 1.415 . S
C472 H462 0.930 . S
C472 C470 1.419 . S
C472 C473 1.362 . S
C473 H463 0.930 . S
C473 C466 1.409 . S
C473 C472 1.362 . S
H474 C480 0.930 . S
H475 C483 0.930 . S
H476 C484 0.930 . S
H477 C485 0.930 . S
H478 C488 0.930 . S
H479 C489 0.930 . S
C480 H474 0.930 . S
C480 C481 1.355 . S
C480 C482 1.415 . S
C481 C480 1.355 . S
C481 C483 1.419 . S
C482 C480 1.415 . S
C482 C487 1.425 . S
C482 C489 1.409 . S
C483 H475 0.930 . S
C483 C481 1.419 . S
C483 C484 1.362 . S
C484 H476 0.930 . S
C484 C483 1.362 . S
C484 C487 1.409 . S
C485 H477 0.930 . S
C485 C486 1.355 . S
C485 C487 1.415 . S
C486 C485 1.355 . S
C486 C488 1.419 . S
C487 C482 1.425 . S
C487 C484 1.409 . S
C487 C485 1.415 . S
C488 H478 0.930 . S
C488 C486 1.419 . S
C488 C489 1.362 . S
C489 H479 0.930 . S
C489 C482 1.409 . S
C489 C488 1.362 . S
H490 C496 0.930 . S
H491 C499 0.930 . S
H492 C500 0.930 . S
H493 C501 0.930 . S
H494 C504 0.930 . S
H495 C505 0.930 . S
C496 H490 0.930 . S
C496 C497 1.355 . S
C496 C498 1.415 . S
C497 C496 1.355 . S
C497 C499 1.419 . S
C498 C496 1.415 . S
C498 C503 1.425 . S
C498 C505 1.409 . S
C499 H491 0.930 . S
C499 C497 1.419 . S
C499 C500 1.362 . S
C500 H492 0.930 . S
C500 C499 1.362 . S
C500 C503 1.409 . S
C501 H493 0.930 . S
C501 C502 1.355 . S
C501 C503 1.415 . S
C502 C501 1.355 . S
C502 C504 1.419 . S
C503 C498 1.425 . S
C503 C500 1.409 . S
C503 C501 1.415 . S
C504 H494 0.930 . S
C504 C502 1.419 . S
C504 C505 1.362 . S
C505 H495 0.930 . S
C505 C498 1.409 . S
C505 C504 1.362 . S
H506 C512 0.930 . S
H507 C515 0.930 . S
H508 C516 0.930 . S
H509 C517 0.930 . S
H510 C520 0.930 . S
H511 C521 0.930 . S
C512 H506 0.930 . S
C512 C513 1.355 . S
C512 C514 1.415 . S
C513 C512 1.355 . S
C513 C515 1.419 . S
C514 C512 1.415 . S
C514 C519 1.425 . S
C514 C521 1.409 . S
C515 H507 0.930 . S
C515 C513 1.419 . S
C515 C516 1.362 . S
C516 H508 0.930 . S
C516 C515 1.362 . S
C516 C519 1.409 . S
C517 H509 0.930 . S
C517 C518 1.355 . S
C517 C519 1.415 . S
C518 C517 1.355 . S
C518 C520 1.419 . S
C519 C514 1.425 . S
C519 C516 1.409 . S
C519 C517 1.415 . S
C520 H510 0.930 . S
C520 C518 1.419 . S
C520 C521 1.362 . S
C521 H511 0.930 . S
C521 C514 1.409 . S
C521 C520 1.362 . S
H522 C528 0.930 . S
H523 C531 0.930 . S
H524 C532 0.930 . S
H525 C533 0.930 . S
H526 C536 0.930 . S
H527 C537 0.930 . S
C528 H522 0.930 . S
C528 C529 1.355 . S
C528 C530 1.415 . S
C529 C528 1.355 . S
C529 C531 1.419 . S
C530 C528 1.415 . S
C530 C535 1.425 . S
C530 C537 1.409 . S
C531 H523 0.930 . S
C531 C529 1.419 . S
C531 C532 1.362 . S
C532 H524 0.930 . S
C532 C531 1.362 . S
C532 C535 1.409 . S
C533 H525 0.930 . S
C533 C534 1.355 . S
C533 C535 1.415 . S
C534 C533 1.355 . S
C534 C536 1.419 . S
C535 C530 1.425 . S
C535 C532 1.409 . S
C535 C533 1.415 . S
C536 H526 0.930 . S
C536 C534 1.419 . S
C536 C537 1.362 . S
C537 H527 0.930 . S
C537 C530 1.409 . S
C537 C536 1.362 . S
H538 C544 0.930 . S
H539 C547 0.930 . S
H540 C548 0.930 . S
H541 C549 0.930 . S
H542 C552 0.930 . S
H543 C553 0.930 . S
C544 H538 0.930 . S
C544 C545 1.355 . S
C544 C546 1.415 . S
C545 C544 1.355 . S
C545 C547 1.419 . S
C546 C544 1.415 . S
C546 C551 1.425 . S
C546 C553 1.409 . S
C547 H539 0.930 . S
C547 C545 1.419 . S
C547 C548 1.362 . S
C548 H540 0.930 . S
C548 C547 1.362 . S
C548 C551 1.409 . S
C549 H541 0.930 . S
C549 C550 1.355 . S
C549 C551 1.415 . S
C550 C549 1.355 . S
C550 C552 1.419 . S
C551 C546 1.425 . S
C551 C548 1.409 . S
C551 C549 1.415 . S
C552 H542 0.930 . S
C552 C550 1.419 . S
C552 C553 1.362 . S
C553 H543 0.930 . S
C553 C546 1.409 . S
C553 C552 1.362 . S
H554 C560 0.930 . S
H555 C563 0.930 . S
H556 C564 0.930 . S
H557 C565 0.930 . S
H558 C568 0.930 . S
H559 C569 0.930 . S
C560 H554 0.930 . S
C560 C561 1.355 . S
C560 C562 1.415 . S
C561 C560 1.355 . S
C561 C563 1.419 . S
C562 C560 1.415 . S
C562 C567 1.425 . S
C562 C569 1.409 . S
C563 H555 0.930 . S
C563 C561 1.419 . S
C563 C564 1.362 . S
C564 H556 0.930 . S
C564 C563 1.362 . S
C564 C567 1.409 . S
C565 H557 0.930 . S
C565 C566 1.355 . S
C565 C567 1.415 . S
C566 C565 1.355 . S
C566 C568 1.419 . S
C567 C562 1.425 . S
C567 C564 1.409 . S
C567 C565 1.415 . S
C568 H558 0.930 . S
C568 C566 1.419 . S
C568 C569 1.362 . S
C569 H559 0.930 . S
C569 C562 1.409 . S
C569 C568 1.362 . S
C193 C14 1.510 . S
C198 C109 1.540 . S
C209 C25 1.522 . S
C214 C122 1.545 . S
C230 C144 1.538 . S
C225 C43 1.472 . S
C246 C157 1.512 . S
C241 C62 1.521 . S
C262 C170 1.501 . S
C257 C80 1.522 . S
C278 C183 1.490 . S
C273 C97 1.520 . S
C289 C32 1.476 . S
C294 C139 1.523 . S
C305 C50 1.530 . S
C310 C152 1.474 . S
C326 C165 1.531 . S
C321 C70 1.461 . S
C342 C178 1.531 . S
C337 C88 1.471 . S
C353 C104 1.516 . S
C358 C111 1.545 . S
C374 C124 1.549 . S
C369 C7 1.530 . S
C390 C150 1.492 . S
C385 C8 1.484 . S
C401 C34 1.463 . S
C406 C163 1.522 . S
C422 C176 1.530 . S
C417 C52 1.472 . S
C433 C68 1.498 . S
C438 C113 1.544 . S
C449 C86 1.478 . S
C454 C126 1.547 . S
C465 C106 1.530 . S
C470 C137 1.474 . S
C481 C26 1.537 . S
C486 C174 1.487 . S
C502 C118 1.553 . S
C497 C44 1.486 . S
C513 C61 1.512 . S
C518 C131 1.564 . S
C529 C79 1.496 . S
C534 C135 1.549 . S
C545 C98 1.538 . S
C550 C148 1.488 . S
C561 C16 1.502 . S
C566 C161 1.490 . S
