# Generated by pormake.
# Topology anh, (6,3)-cn, num edge types: 1
# Building blocks:
#     Node 0, Type 0, BuildingBlock: VOLQOD_clean_sbu_1, # of connection points: 6
#     Node 1, Type 0, BuildingBlock: VOLQOD_clean_sbu_1, # of connection points: 6
#     Node 2, Type 0, BuildingBlock: VOLQOD_clean_sbu_1, # of connection points: 6
#     Node 3, Type 1, BuildingBlock: CUQRIR_clean_linker_1, # of connection points: 3
#     Node 4, Type 1, BuildingBlock: CUQRIR_clean_linker_1, # of connection points: 3
#     Node 5, Type 1, BuildingBlock: CUQRIR_clean_linker_1, # of connection points: 3
#     Node 6, Type 1, BuildingBlock: CUQRIR_clean_linker_1, # of connection points: 3
#     Node 7, Type 1, BuildingBlock: CUQRIR_clean_linker_1, # of connection points: 3
#     Node 8, Type 1, BuildingBlock: CUQRIR_clean_linker_1, # of connection points: 3
#     Edge 9, Type (0, 1), BuildingBlock: FUNLAD_clean_linker_1, # of connection points: 2
#     Edge 10, Type (0, 1), BuildingBlock: FUNLAD_clean_linker_1, # of connection points: 2
#     Edge 11, Type (0, 1), BuildingBlock: FUNLAD_clean_linker_1, # of connection points: 2
#     Edge 12, Type (0, 1), BuildingBlock: FUNLAD_clean_linker_1, # of connection points: 2
#     Edge 13, Type (0, 1), BuildingBlock: FUNLAD_clean_linker_1, # of connection points: 2
#     Edge 14, Type (0, 1), BuildingBlock: FUNLAD_clean_linker_1, # of connection points: 2
#     Edge 15, Type (0, 1), BuildingBlock: FUNLAD_clean_linker_1, # of connection points: 2
#     Edge 16, Type (0, 1), BuildingBlock: FUNLAD_clean_linker_1, # of connection points: 2
#     Edge 17, Type (0, 1), BuildingBlock: FUNLAD_clean_linker_1, # of connection points: 2
#     Edge 18, Type (0, 1), BuildingBlock: FUNLAD_clean_linker_1, # of connection points: 2
#     Edge 19, Type (0, 1), BuildingBlock: FUNLAD_clean_linker_1, # of connection points: 2
#     Edge 20, Type (0, 1), BuildingBlock: FUNLAD_clean_linker_1, # of connection points: 2
#     Edge 21, Type (0, 1), BuildingBlock: FUNLAD_clean_linker_1, # of connection points: 2
#     Edge 22, Type (0, 1), BuildingBlock: FUNLAD_clean_linker_1, # of connection points: 2
#     Edge 23, Type (0, 1), BuildingBlock: FUNLAD_clean_linker_1, # of connection points: 2
#     Edge 24, Type (0, 1), BuildingBlock: FUNLAD_clean_linker_1, # of connection points: 2
#     Edge 25, Type (0, 1), BuildingBlock: FUNLAD_clean_linker_1, # of connection points: 2
#     Edge 26, Type (0, 1), BuildingBlock: FUNLAD_clean_linker_1, # of connection points: 2
# Relax obj value: 0.187
# Max RMSD: 0.221
# Mean RMSD: 0.170
data_MOF--net-anh--node1-VOLQOD_clean_sbu_1--node2-CUQRIR_clean_linker_1--edge1-FUNLAD_clean_linker_1
_symmetry_space_group_name_H-M    P1
_symmetry_Int_Tables_number       1
_symmetry_cell_setting            triclinic
loop_
_symmetry_equiv_pos_as_xyz
'x, y, z'
_cell_length_a     28.361803
_cell_length_b     28.264868
_cell_length_c     55.684624
_cell_angle_alpha  85.306991
_cell_angle_beta   90.050954
_cell_angle_gamma 120.92904
loop_
_atom_site_label
_atom_site_type_symbol
_atom_site_fract_x
_atom_site_fract_y
_atom_site_fract_z
_atom_type_partial_charge
O0 O 0.98056 0.50123 0.21595 0.0
Zn1 Zn 0.98689 0.52268 0.17968 0.0
O2 O 0.99351 0.46823 0.16219 0.0
Zn3 Zn 0.93174 0.42992 0.14192 0.0
Zn4 Zn -0.00328 0.41311 0.18481 0.0
Zn5 Zn 0.05932 0.50666 0.14111 0.0
O6 O 0.95488 0.43972 0.10673 0.0
O7 O 0.04306 0.50591 0.10602 0.0
O8 O 0.92128 0.52935 0.1683 0.0
O9 O 0.88439 0.46249 0.14353 0.0
O10 O 0.88332 0.34943 0.15378 0.0
O11 O 0.92492 0.33877 0.18583 0.0
O12 O 0.06291 0.40556 0.17677 0.0
O13 O 0.0578 0.59787 0.1751 0.0
O14 O 0.1013 0.46835 0.14508 0.0
O15 O 0.10932 0.58462 0.14962 0.0
C16 C 0.99223 0.46867 0.22822 0.0
C17 C 0.00012 0.47397 0.09518 0.0
C18 C 0.88447 0.31995 0.17203 0.0
C19 C 0.88432 0.50093 0.15381 0.0
C20 C 0.09984 0.43075 0.15973 0.0
C21 C 0.10308 0.61523 0.16323 0.0
O22 O 0.00279 0.43599 0.21826 0.0
O23 O 0.56151 0.06026 0.45099 0.0
Zn24 Zn 0.53487 0.05841 0.48488 0.0
O25 O 0.58532 0.05591 0.50814 0.0
Zn26 Zn 0.623 0.12372 0.52359 0.0
Zn27 Zn 0.63961 0.04458 0.49179 0.0
Zn28 Zn 0.5429 0.99783 0.53378 0.0
O29 O 0.61773 0.11057 0.55972 0.0
O30 O 0.54381 0.02628 0.56603 0.0
O31 O 0.52591 0.12467 0.48837 0.0
O32 O 0.58837 0.16856 0.51519 0.0
O33 O 0.702 0.16936 0.5124 0.0
O34 O 0.7154 0.11565 0.48975 0.0
O35 O 0.64158 0.97879 0.50944 0.0
O36 O 0.46067 0.98737 0.4895 0.0
O37 O 0.577 0.95183 0.53878 0.0
O38 O 0.46535 0.94658 0.52452 0.0
C39 C 0.5924 0.04401 0.44292 0.0
C40 C 0.5807 0.07123 0.57384 0.0
C41 C 0.73288 0.16153 0.49885 0.0
C42 C 0.55102 0.16487 0.5014 0.0
C43 C 0.61391 0.94718 0.52824 0.0
C44 C 0.43924 0.94724 0.50604 0.0
O45 O 0.62074 0.03134 0.45686 0.0
O46 O 0.52857 0.61343 0.78078 0.0
Zn47 Zn 0.51302 0.58981 0.81676 0.0
O48 O 0.57166 0.64279 0.83593 0.0
Zn49 Zn 0.54274 0.67475 0.85688 0.0
Zn50 Zn 0.6301 0.70138 0.81393 0.0
Zn51 Zn 0.60074 0.60537 0.85637 0.0
O52 O 0.55941 0.66704 0.89196 0.0
O53 O 0.59053 0.60919 0.89199 0.0
O54 O 0.43885 0.57611 0.82766 0.0
O55 O 0.46077 0.63407 0.85605 0.0
O56 O 0.57051 0.75447 0.84512 0.0
O57 O 0.63389 0.77369 0.81635 0.0
O58 O 0.7041 0.71023 0.82037 0.0
O59 O 0.50874 0.51671 0.82111 0.0
O60 O 0.68128 0.64193 0.84922 0.0
O61 O 0.56843 0.52625 0.84898 0.0
C62 C 0.5723 0.65035 0.76882 0.0
C63 C 0.57599 0.63755 0.90319 0.0
C64 C 0.60693 0.78809 0.82908 0.0
C65 C 0.42513 0.59666 0.84385 0.0
C66 C 0.71702 0.68219 0.83499 0.0
C67 C 0.53275 0.49737 0.83425 0.0
O68 O 0.6146 0.68471 0.77933 0.0
C69 C 0.46974 0.98001 0.22992 0.0
N70 N 0.50682 0.00907 0.24642 0.0
N71 N 0.41911 0.9456 0.24084 0.0
C72 C 0.48024 0.99137 0.20297 0.0
C73 C 0.42629 0.95587 0.26425 0.0
N74 N 0.47921 0.99401 0.26765 0.0
C75 C 0.38158 0.92836 0.28395 0.0
H76 H 0.44189 0.98091 0.19373 0.0
H77 H 0.49602 0.96565 0.19662 0.0
H78 H 0.51097 0.03558 0.19772 0.0
H79 H 0.34773 0.88752 0.27935 0.0
H80 H 0.36451 0.95531 0.28647 0.0
H81 H 0.39837 0.92276 0.30126 0.0
C82 C 0.59119 0.54533 0.56129 0.0
N83 N 0.58776 0.57897 0.57626 0.0
N84 N 0.55651 0.49145 0.56929 0.0
C85 C 0.62899 0.56494 0.53908 0.0
C86 C 0.53273 0.49353 0.5899 0.0
N87 N 0.55142 0.54665 0.59413 0.0
C88 C 0.49262 0.44373 0.60639 0.0
H89 H 0.60673 0.56832 0.52326 0.0
H90 H 0.64218 0.53514 0.53589 0.0
H91 H 0.66617 0.60606 0.54064 0.0
H92 H 0.51289 0.4423 0.62326 0.0
H93 H 0.47782 0.40456 0.59796 0.0
H94 H 0.45678 0.44733 0.61134 0.0
C95 C 0.04356 0.58678 0.87474 0.0
N96 N 0.06502 0.56762 0.89182 0.0
N97 N 0.99204 0.57287 0.88178 0.0
C98 C 0.07207 0.61677 0.85077 0.0
C99 C 0.98287 0.54412 0.90363 0.0
N100 N 0.02801 0.54218 0.91013 0.0
C101 C 0.92936 0.51756 0.91833 0.0
H102 H 0.09767 0.66178 0.85274 0.0
H103 H 0.0418 0.61006 0.83683 0.0
H104 H 0.09972 0.60282 0.84465 0.0
H105 H 0.89413 0.4977 0.9065 0.0
H106 H 0.92642 0.54998 0.927 0.0
H107 H 0.92598 0.48564 0.93237 0.0
C108 C 0.09745 0.56178 0.43875 0.0
N109 N 0.05854 0.52902 0.42372 0.0
N110 N 0.12588 0.61516 0.42886 0.0
C111 C 0.11347 0.54063 0.46104 0.0
C112 C 0.10352 0.6136 0.40729 0.0
N113 N 0.06307 0.5615 0.40409 0.0
C114 C 0.12341 0.66248 0.38869 0.0
H115 H 0.08928 0.53963 0.47692 0.0
H116 H 0.15772 0.5678 0.46417 0.0
H117 H 0.1053 0.49832 0.45933 0.0
H118 H 0.15212 0.66164 0.37544 0.0
H119 H 0.14526 0.70216 0.39708 0.0
H120 H 0.08852 0.66033 0.37879 0.0
C121 C 0.62492 0.1787 0.77842 0.0
N122 N 0.61304 0.1373 0.76452 0.0
N123 N 0.59021 0.19768 0.77456 0.0
C124 C 0.66909 0.19928 0.79651 0.0
C125 C 0.55714 0.16685 0.75746 0.0
N126 N 0.57078 0.12978 0.75149 0.0
C127 C 0.51577 0.1769 0.74469 0.0
H128 H 0.65983 0.21858 0.81093 0.0
H129 H 0.70879 0.23081 0.78708 0.0
H130 H 0.67387 0.16509 0.80487 0.0
H131 H 0.52782 0.22101 0.74418 0.0
H132 H 0.47512 0.15116 0.7545 0.0
H133 H 0.5113 0.16532 0.72591 0.0
C134 C 0.53256 0.54175 0.12808 0.0
N135 N 0.5697 0.55816 0.10941 0.0
N136 N 0.48106 0.51931 0.12015 0.0
C137 C 0.54587 0.54504 0.15427 0.0
C138 C 0.48808 0.52225 0.09583 0.0
N139 N 0.54241 0.54668 0.08923 0.0
C140 C 0.44164 0.49394 0.07918 0.0
H141 H 0.53255 0.50285 0.16271 0.0
H142 H 0.52249 0.56021 0.16376 0.0
H143 H 0.59048 0.57254 0.15671 0.0
H144 H 0.42876 0.52329 0.07221 0.0
H145 H 0.40565 0.45719 0.0888 0.0
H146 H 0.4543 0.48015 0.06368 0.0
H147 H 0.1593 0.42314 0.13819 0.0
C148 C 0.14442 0.41949 0.15666 0.0
H149 H 0.16515 0.42341 0.19307 0.0
H150 H 0.34251 0.39476 0.12295 0.0
H151 H 0.26928 0.2987 0.12281 0.0
H152 H 0.17957 0.26437 0.14405 0.0
H153 H 0.16257 0.32627 0.16549 0.0
C154 C 0.1764 0.42121 0.17472 0.0
C155 C 0.23389 0.4364 0.16844 0.0
C156 C 0.24391 0.39956 0.15673 0.0
C157 C 0.29589 0.41926 0.14479 0.0
C158 C 0.30399 0.38197 0.13245 0.0
C159 C 0.26228 0.32671 0.13225 0.0
C160 C 0.21174 0.30738 0.14418 0.0
C161 C 0.20241 0.34325 0.1563 0.0
H162 H 0.42874 0.47139 0.15233 0.0
C163 C 0.43083 0.49334 0.13502 0.0
H164 H 0.39179 0.52532 0.11272 0.0
H165 H 0.23104 0.51585 0.19248 0.0
H166 H 0.30559 0.61065 0.19429 0.0
H167 H 0.396 0.64453 0.17386 0.0
H168 H 0.41225 0.58374 0.15136 0.0
C169 C 0.38835 0.49929 0.12887 0.0
C170 C 0.33781 0.47572 0.14481 0.0
C171 C 0.32942 0.51123 0.15839 0.0
C172 C 0.27745 0.49151 0.17033 0.0
C173 C 0.2697 0.52849 0.18313 0.0
C174 C 0.31221 0.58304 0.18435 0.0
C175 C 0.3631 0.60213 0.17283 0.0
C176 C 0.37183 0.56687 0.15994 0.0
H177 H 0.80495 0.24263 0.50423 0.0
C178 C 0.78854 0.20927 0.49247 0.0
H179 H 0.79706 0.18694 0.45818 0.0
H180 H 0.91569 0.44503 0.42217 0.0
H181 H 0.82884 0.4085 0.40295 0.0
H182 H 0.75723 0.30959 0.41003 0.0
H183 H 0.77155 0.24698 0.43715 0.0
C184 C 0.81495 0.2177 0.47112 0.0
C185 C 0.86259 0.27387 0.4631 0.0
C186 C 0.85492 0.30927 0.44611 0.0
C187 C 0.89705 0.36597 0.44135 0.0
C188 C 0.88631 0.40121 0.42576 0.0
C189 C 0.83636 0.38082 0.41465 0.0
C190 C 0.79594 0.32521 0.41875 0.0
C191 C 0.80475 0.28972 0.43436 0.0
H192 H 0.00702 0.44532 0.4125 0.0
C193 C 0.01856 0.47031 0.42765 0.0
H194 H 0.00044 0.47109 0.4643 0.0
H195 H 0.89248 0.21558 0.49448 0.0
H196 H 0.9794 0.25171 0.51409 0.0
H197 H 0.05263 0.34985 0.50593 0.0
H198 H 0.03946 0.41226 0.47815 0.0
C199 C 0.99117 0.44663 0.44906 0.0
C200 C 0.94771 0.38669 0.45293 0.0
C201 C 0.9559 0.35067 0.46935 0.0
C202 C 0.91347 0.2942 0.47429 0.0
C203 C 0.92303 0.25905 0.49049 0.0
C204 C 0.97279 0.27916 0.50175 0.0
C205 C 0.01403 0.33439 0.49713 0.0
C206 C 0.00594 0.36985 0.48113 0.0
H207 H 0.58044 0.84853 0.83005 0.0
C208 C 0.6128 0.84263 0.82322 0.0
H209 H 0.68526 0.87642 0.80118 0.0
H210 H 0.63814 0.02994 0.7301 0.0
H211 H 0.65547 0.97655 0.7031 0.0
H212 H 0.66918 0.90081 0.71936 0.0
H213 H 0.6671 0.87899 0.76243 0.0
C214 C 0.65324 0.88256 0.80815 0.0
C215 C 0.65069 0.93175 0.79818 0.0
C216 C 0.65095 0.94279 0.77279 0.0
C217 C 0.64029 0.98445 0.76331 0.0
C218 C 0.64325 0.99674 0.73804 0.0
C219 C 0.65373 0.96684 0.72241 0.0
C220 C 0.66161 0.92433 0.73158 0.0
C221 C 0.66037 0.91229 0.75643 0.0
H222 H 0.68026 0.12159 0.76976 0.0
C223 C 0.6367 0.10277 0.76648 0.0
H224 H 0.56018 0.02814 0.76813 0.0
H225 H 0.66526 0.93433 0.84682 0.0
H226 H 0.64664 0.98729 0.87348 0.0
H227 H 0.61579 0.05036 0.85734 0.0
H228 H 0.6051 0.06213 0.81445 0.0
C229 C 0.60439 0.04756 0.76948 0.0
C230 C 0.62608 0.01232 0.77911 0.0
C231 C 0.62924 0.00391 0.80435 0.0
C232 C 0.64386 0.96523 0.81382 0.0
C233 C 0.65116 0.96085 0.83889 0.0
C234 C 0.64116 0.99141 0.85434 0.0
C235 C 0.62399 0.02705 0.84524 0.0
C236 C 0.61806 0.03345 0.82056 0.0
H237 H 0.80415 0.47776 0.13962 0.0
C238 C 0.83864 0.51013 0.1484 0.0
H239 H 0.87297 0.59087 0.15947 0.0
H240 H 0.72203 0.62354 0.08124 0.0
H241 H 0.81395 0.69026 0.0643 0.0
H242 H 0.89589 0.69863 0.08364 0.0
H243 H 0.88649 0.64035 0.1201 0.0
C244 C 0.838 0.5561 0.15213 0.0
C245 C 0.79032 0.56071 0.14383 0.0
C246 C 0.79656 0.59612 0.12297 0.0
C247 C 0.74925 0.59154 0.11188 0.0
C248 C 0.75657 0.62588 0.09054 0.0
C249 C 0.80907 0.66418 0.0806 0.0
C250 C 0.85523 0.66885 0.09148 0.0
C251 C 0.84929 0.63516 0.11237 0.0
H252 H 0.65228 0.61581 0.12021 0.0
C253 C 0.62726 0.5779 0.11163 0.0
H254 H 0.61812 0.50272 0.1035 0.0
H255 H 0.76482 0.49491 0.18625 0.0
H256 H 0.67318 0.43007 0.20399 0.0
H257 H 0.59099 0.42022 0.18432 0.0
H258 H 0.59985 0.47504 0.14693 0.0
C259 C 0.64571 0.5432 0.10964 0.0
C260 C 0.69593 0.55182 0.12183 0.0
C261 C 0.68992 0.51893 0.14358 0.0
C262 C 0.73716 0.52395 0.15474 0.0
C263 C 0.73009 0.49155 0.17673 0.0
C264 C 0.6778 0.45452 0.18718 0.0
C265 C 0.63155 0.44903 0.17613 0.0
C266 C 0.63726 0.48076 0.15462 0.0
H267 H 0.36763 0.86468 0.51762 0.0
C268 C 0.38551 0.89725 0.50279 0.0
H269 H 0.37939 0.91942 0.46621 0.0
H270 H 0.24789 0.64767 0.46718 0.0
H271 H 0.33758 0.65839 0.47288 0.0
H272 H 0.41791 0.74931 0.4798 0.0
H273 H 0.40892 0.8297 0.48133 0.0
C274 C 0.36215 0.88767 0.48134 0.0
C275 C 0.3139 0.83266 0.47712 0.0
C276 C 0.32033 0.7863 0.47572 0.0
C277 C 0.27442 0.73422 0.47098 0.0
C278 C 0.28161 0.68835 0.47024 0.0
C279 C 0.33286 0.69392 0.47354 0.0
C280 C 0.37804 0.74507 0.47749 0.0
C281 C 0.37217 0.79087 0.4785 0.0
H282 H 0.20706 0.69025 0.42427 0.0
C283 C 0.17369 0.66228 0.43726 0.0
H284 H 0.14076 0.65108 0.47262 0.0
H285 H 0.28772 0.91296 0.47858 0.0
H286 H 0.19836 0.90251 0.47185 0.0
H287 H 0.11919 0.81259 0.46291 0.0
H288 H 0.12877 0.73249 0.4607 0.0
C289 C 0.17567 0.67591 0.45991 0.0
C290 C 0.22261 0.72892 0.46698 0.0
C291 C 0.21616 0.77513 0.46848 0.0
C292 C 0.26189 0.82708 0.47349 0.0
C293 C 0.25439 0.87265 0.4747 0.0
C294 C 0.20333 0.8672 0.4709 0.0
C295 C 0.15875 0.81656 0.46588 0.0
C296 C 0.16482 0.77092 0.46466 0.0
H297 H 0.4918 0.41913 0.81733 0.0
C298 C 0.52337 0.44274 0.82973 0.0
H299 H 0.59078 0.44909 0.84881 0.0
H300 H 0.505 0.194 0.83407 0.0
H301 H 0.47304 0.18242 0.87575 0.0
H302 H 0.47879 0.26072 0.89499 0.0
H303 H 0.51698 0.35133 0.87266 0.0
C304 C 0.55797 0.42585 0.83688 0.0
C305 C 0.55685 0.37934 0.82581 0.0
C306 C 0.53427 0.32684 0.83903 0.0
C307 C 0.53048 0.28165 0.82784 0.0
C308 C 0.50834 0.22966 0.84157 0.0
C309 C 0.48992 0.22246 0.86553 0.0
C310 C 0.49318 0.26656 0.87637 0.0
C311 C 0.5151 0.31827 0.86337 0.0
H312 H 0.63199 0.27859 0.78864 0.0
C313 C 0.59212 0.24332 0.78516 0.0
H314 H 0.50621 0.20524 0.79065 0.0
H315 H 0.6087 0.47668 0.79631 0.0
H316 H 0.63769 0.48796 0.75427 0.0
H317 H 0.62422 0.40801 0.73381 0.0
H318 H 0.58292 0.31678 0.75542 0.0
C319 C 0.54621 0.24217 0.79201 0.0
C320 C 0.54917 0.28925 0.80342 0.0
C321 C 0.57144 0.34188 0.79012 0.0
C322 C 0.57668 0.38733 0.80155 0.0
C323 C 0.60177 0.44018 0.78828 0.0
C324 C 0.61895 0.44736 0.76416 0.0
C325 C 0.61157 0.40241 0.75267 0.0
C326 C 0.58808 0.35023 0.76538 0.0
H327 H 0.60141 0.88179 0.55593 0.0
C328 C 0.62127 0.90169 0.53827 0.0
H329 H 0.66042 0.89525 0.50755 0.0
H330 H 0.65761 0.7234 0.59999 0.0
H331 H 0.72852 0.80691 0.61603 0.0
H332 H 0.75858 0.89904 0.5951 0.0
H333 H 0.71735 0.90808 0.55802 0.0
C334 C 0.64372 0.87883 0.52589 0.0
C335 C 0.63484 0.82395 0.53559 0.0
C336 C 0.6605 0.81916 0.55677 0.0
C337 C 0.64389 0.76596 0.56858 0.0
C338 C 0.66899 0.76262 0.59012 0.0
C339 C 0.70977 0.81028 0.59954 0.0
C340 C 0.72661 0.86216 0.58778 0.0
C341 C 0.70247 0.8668 0.56661 0.0
H342 H 0.65435 0.66242 0.56363 0.0
C343 C 0.61253 0.63805 0.57137 0.0
H344 H 0.53854 0.63628 0.57721 0.0
H345 H 0.58018 0.8184 0.49435 0.0
H346 H 0.51091 0.73496 0.47768 0.0
H347 H 0.48348 0.64266 0.4976 0.0
H348 H 0.52469 0.63323 0.53445 0.0
C349 C 0.58189 0.6616 0.57164 0.0
C350 C 0.60203 0.71763 0.559 0.0
C351 C 0.5784 0.72239 0.53713 0.0
C352 C 0.59486 0.77558 0.52541 0.0
C353 C 0.56954 0.77906 0.50393 0.0
C354 C 0.52973 0.73148 0.49413 0.0
C355 C 0.51425 0.67952 0.50536 0.0
C356 C 0.53816 0.67475 0.52657 0.0
H357 H 0.80447 0.72721 0.82176 0.0
C358 C 0.7741 0.69431 0.83452 0.0
H359 H 0.7577 0.6295 0.86132 0.0
H360 H 0.94182 0.5931 0.82037 0.0
H361 H 0.87459 0.54354 0.79086 0.0
H362 H 0.79182 0.55087 0.78679 0.0
H363 H 0.77621 0.60836 0.81193 0.0
C364 C 0.78781 0.66293 0.84867 0.0
C365 C 0.84261 0.66901 0.84689 0.0
C366 C 0.85103 0.63564 0.83193 0.0
C367 C 0.89789 0.63039 0.83463 0.0
C368 C 0.90591 0.59715 0.81941 0.0
C369 C 0.86789 0.56885 0.80234 0.0
C370 C 0.82134 0.57305 0.80003 0.0
C371 C 0.81278 0.60603 0.8146 0.0
H372 H 0.9119 0.5594 0.87209 0.0
C373 C 0.95603 0.58848 0.87028 0.0
H374 H 0.01808 0.6715 0.86032 0.0
H375 H 0.84245 0.74353 0.87511 0.0
H376 H 0.91125 0.79569 0.90359 0.0
H377 H 0.992 0.78535 0.90896 0.0
H378 H 0.00456 0.72306 0.88592 0.0
C379 C 0.97472 0.64027 0.86028 0.0
C380 C 0.93509 0.65736 0.85273 0.0
C381 C 0.92968 0.69532 0.86588 0.0
C382 C 0.88309 0.70107 0.86293 0.0
C383 C 0.87713 0.73759 0.87682 0.0
C384 C 0.9163 0.76777 0.89316 0.0
C385 C 0.96178 0.76196 0.89617 0.0
C386 C 0.9685 0.72604 0.88282 0.0
H387 H 0.19122 0.67878 0.15917 0.0
C388 C 0.15207 0.66924 0.16728 0.0
H389 H 0.11272 0.69363 0.19122 0.0
H390 H 0.32116 0.80939 0.25429 0.0
H391 H 0.25166 0.73844 0.28284 0.0
H392 H 0.15909 0.67261 0.26985 0.0
H393 H 0.13647 0.67523 0.22812 0.0
C394 C 0.15138 0.70353 0.18249 0.0
C395 C 0.20382 0.7498 0.19086 0.0
C396 C 0.21607 0.74813 0.21553 0.0
C397 C 0.26866 0.7879 0.22328 0.0
C398 C 0.28101 0.78248 0.24766 0.0
C399 C 0.24169 0.74138 0.26421 0.0
C400 C 0.18973 0.70401 0.25687 0.0
C401 C 0.17715 0.70643 0.2328 0.0
H402 H 0.33033 0.90628 0.23758 0.0
C403 C 0.36753 0.90927 0.23044 0.0
H404 H 0.39943 0.87495 0.20782 0.0
H405 H 0.19065 0.7707 0.14324 0.0
H406 H 0.25882 0.84459 0.11503 0.0
H407 H 0.35033 0.91277 0.12831 0.0
H408 H 0.37407 0.9077 0.16991 0.0
C409 C 0.36295 0.87369 0.21469 0.0
C410 C 0.30814 0.83107 0.20658 0.0
C411 C 0.29529 0.83367 0.18207 0.0
C412 C 0.24292 0.79349 0.17426 0.0
C413 C 0.23047 0.79877 0.14992 0.0
C414 C 0.26904 0.84132 0.13359 0.0
C415 C 0.32052 0.87977 0.14108 0.0
C416 C 0.33364 0.87635 0.16502 0.0
H417 H 0.50228 0.20367 0.4903 0.0
C418 C 0.53582 0.20771 0.50114 0.0
H419 H 0.59646 0.2556 0.52513 0.0
H420 H 0.61108 0.48141 0.50036 0.0
H421 H 0.68026 0.49402 0.4708 0.0
H422 H 0.68909 0.41509 0.46127 0.0
H423 H 0.62859 0.32295 0.48133 0.0
C424 C 0.56215 0.25063 0.51463 0.0
C425 C 0.54766 0.29389 0.51584 0.0
C426 C 0.58235 0.34708 0.50363 0.0
C427 C 0.57715 0.39249 0.50913 0.0
C428 C 0.6133 0.44547 0.49702 0.0
C429 C 0.65313 0.45325 0.47994 0.0
C430 C 0.65811 0.40883 0.47457 0.0
C431 C 0.6233 0.35626 0.48625 0.0
H432 H 0.55287 0.41233 0.57222 0.0
C433 C 0.55058 0.44287 0.55988 0.0
H434 H 0.53687 0.46338 0.52439 0.0
H435 H 0.47044 0.19579 0.54041 0.0
H436 H 0.39672 0.18168 0.56773 0.0
H437 H 0.38488 0.25966 0.57573 0.0
H438 H 0.44737 0.35244 0.55676 0.0
C439 C 0.54025 0.43347 0.53665 0.0
C440 C 0.53758 0.38448 0.52705 0.0
C441 C 0.49894 0.33007 0.53725 0.0
C442 C 0.50458 0.28481 0.53196 0.0
C443 C 0.46748 0.23148 0.54349 0.0
C444 C 0.42495 0.2228 0.55918 0.0
C445 C 0.41836 0.26673 0.56374 0.0
C446 C 0.45473 0.31981 0.55291 0.0
H447 H 0.33609 0.53844 0.84098 0.0
C448 C 0.36633 0.57513 0.84917 0.0
H449 H 0.37988 0.63554 0.8726 0.0
H450 H 0.11537 0.52482 0.8471 0.0
H451 H 0.14573 0.55096 0.80478 0.0
H452 H 0.24369 0.59265 0.79235 0.0
H453 H 0.31123 0.60688 0.82191 0.0
C454 C 0.34971 0.59955 0.86398 0.0
C455 C 0.29078 0.57653 0.87089 0.0
C456 C 0.25267 0.57142 0.85323 0.0
C457 C 0.19701 0.55111 0.86045 0.0
C458 C 0.15871 0.54279 0.84254 0.0
C459 C 0.17551 0.55722 0.81822 0.0
C460 C 0.23058 0.58042 0.81123 0.0
C461 C 0.26892 0.58776 0.82844 0.0
H462 H 0.15326 0.61624 0.8837 0.0
C463 C 0.11918 0.57564 0.8905 0.0
H464 H 0.09263 0.49084 0.89798 0.0
H465 H 0.35164 0.57624 0.90923 0.0
H466 H 0.32075 0.55325 0.95145 0.0
H467 H 0.22552 0.52456 0.96388 0.0
H468 H 0.16033 0.518 0.93401 0.0
C469 C 0.12672 0.53246 0.89275 0.0
C470 C 0.18075 0.54067 0.88528 0.0
C471 C 0.2181 0.54429 0.90286 0.0
C472 C 0.27315 0.56175 0.89567 0.0
C473 C 0.30957 0.56429 0.91365 0.0
C474 C 0.29232 0.55099 0.93796 0.0
C475 C 0.23869 0.53479 0.94496 0.0
C476 C 0.20179 0.53137 0.92768 0.0
H477 H 0.80418 0.24813 0.16479 0.0
C478 C 0.83427 0.26554 0.17851 0.0
H479 H 0.84903 0.25954 0.21555 0.0
H480 H 0.57604 0.13148 0.20862 0.0
H481 H 0.59236 0.22271 0.19594 0.0
H482 H 0.68684 0.30339 0.19032 0.0
H483 H 0.76545 0.29271 0.19664 0.0
C484 C 0.8201 0.24235 0.20141 0.0
C485 C 0.76321 0.19531 0.20842 0.0
C486 C 0.71754 0.20289 0.20621 0.0
C487 C 0.66302 0.15704 0.21112 0.0
C488 C 0.61832 0.1651 0.20659 0.0
C489 C 0.62708 0.21734 0.19907 0.0
C490 C 0.68024 0.26269 0.19579 0.0
C491 C 0.72506 0.25582 0.19928 0.0
H492 H 0.57764 0.08954 0.25299 0.0
C493 C 0.56282 0.05489 0.24206 0.0
H494 H 0.58481 0.01947 0.21567 0.0
H495 H 0.84144 0.16744 0.21601 0.0
H496 H 0.82575 0.0776 0.23178 0.0
H497 H 0.73178 0.99948 0.24276 0.0
H498 H 0.65285 0.01045 0.23787 0.0
C499 C 0.59734 0.0558 0.22523 0.0
C500 C 0.65431 0.1044 0.22002 0.0
C501 C 0.70018 0.09758 0.22331 0.0
C502 C 0.75457 0.14293 0.21738 0.0
C503 C 0.79939 0.13455 0.22045 0.0
C504 C 0.79097 0.08321 0.22948 0.0
C505 C 0.73804 0.0392 0.23563 0.0
C506 C 0.69306 0.04604 0.23265 0.0
H507 H 0.9628 0.46003 0.0598 0.0
C508 C 0.00173 0.47784 0.06862 0.0
H509 H 0.08826 0.52083 0.06397 0.0
H510 H 0.97012 0.43328 0.95828 0.0
H511 H 0.93189 0.34029 0.97757 0.0
H512 H 0.95012 0.32439 0.01989 0.0
H513 H 0.0055 0.40182 0.04334 0.0
C514 C 0.04926 0.50294 0.05522 0.0
C515 C 0.04995 0.51179 0.02844 0.0
C516 C 0.02087 0.4662 0.01448 0.0
C517 C 0.01334 0.47545 0.98964 0.0
C518 C 0.97966 0.42904 0.97682 0.0
C519 C 0.95707 0.37524 0.98774 0.0
C520 C 0.96712 0.36628 0.01159 0.0
C521 C -0.00142 0.41106 0.0249 0.0
H522 H 0.06274 0.50633 0.93575 0.0
C523 C 0.03938 0.52695 0.93387 0.0
H524 H 0.00683 0.56754 0.95154 0.0
H525 H 0.11382 0.60871 0.04929 0.0
H526 H 0.16014 0.70156 0.02905 0.0
H527 H 0.15283 0.71732 0.98533 0.0
H528 H 0.09848 0.64014 0.96167 0.0
C529 C 0.02501 0.54184 0.95361 0.0
C530 C 0.03826 0.53043 0.97847 0.0
C531 C 0.07187 0.57577 0.9919 0.0
C532 C 0.07725 0.56655 0.01697 0.0
C533 C 0.109 0.61297 0.03012 0.0
C534 C 0.13583 0.66665 0.01873 0.0
C535 C 0.13163 0.67554 0.99413 0.0
C536 C 0.10006 0.63085 0.98079 0.0
H537 H 0.61988 0.02252 0.41053 0.0
C538 C 0.59458 0.03806 0.41686 0.0
H539 H 0.5408 0.06652 0.40698 0.0
H540 H 0.60422 0.12325 0.29621 0.0
H541 H 0.64953 0.21582 0.30955 0.0
H542 H 0.65725 0.22933 0.35293 0.0
H543 H 0.61965 0.15048 0.38324 0.0
C544 C 0.56495 0.04936 0.40107 0.0
C545 C 0.56519 0.041 0.37499 0.0
C546 C 0.58771 0.08755 0.35751 0.0
C547 C 0.58337 0.07985 0.33249 0.0
C548 C 0.60605 0.12695 0.31543 0.0
C549 C 0.6323 0.18023 0.32284 0.0
C550 C 0.63665 0.18783 0.34727 0.0
C551 C 0.61474 0.14221 0.36448 0.0
H552 H 0.47523 0.0242 0.3019 0.0
C553 C 0.50043 0.01592 0.29027 0.0
H554 H 0.56768 0.0037 0.28872 0.0
H555 H 0.51526 0.94205 0.40353 0.0
H556 H 0.4726 0.85032 0.38994 0.0
H557 H 0.46872 0.83757 0.34654 0.0
H558 H 0.50715 0.91677 0.31645 0.0
C559 C 0.54484 0.01687 0.29915 0.0
C560 C 0.55657 0.02571 0.32499 0.0
C561 C 0.53617 0.97924 0.34237 0.0
C562 C 0.53966 0.98674 0.36742 0.0
C563 C 0.5156 0.9392 0.38431 0.0
C564 C 0.49054 0.88611 0.37675 0.0
C565 C 0.48825 0.87892 0.35232 0.0
C566 C 0.51048 0.92475 0.33525 0.0
H567 H 0.61501 0.68347 0.73295 0.0
C568 C 0.57639 0.65205 0.74225 0.0
H569 H 0.49865 0.58086 0.73867 0.0
H570 H 0.57235 0.68756 0.62427 0.0
H571 H 0.56147 0.7626 0.63577 0.0
H572 H 0.54267 0.76841 0.67837 0.0
H573 H 0.53483 0.69937 0.7097 0.0
C574 C 0.53654 0.61409 0.72954 0.0
C575 C 0.54676 0.61087 0.70361 0.0
C576 C 0.55109 0.65155 0.68553 0.0
C577 C 0.56182 0.64821 0.66092 0.0
C578 C 0.56512 0.68877 0.64321 0.0
C579 C 0.55863 0.73182 0.64957 0.0
C580 C 0.54807 0.73509 0.67355 0.0
C581 C 0.54397 0.69536 0.69138 0.0
H582 H 0.49801 0.53921 0.62418 0.0
C583 C 0.53937 0.56362 0.6159 0.0
H584 H 0.62198 0.62287 0.6217 0.0
H585 H 0.54006 0.5255 0.7336 0.0
H586 H 0.55205 0.45145 0.72197 0.0
H587 H 0.57373 0.44755 0.67957 0.0
H588 H 0.58264 0.51722 0.64846 0.0
C589 C 0.5796 0.60057 0.62876 0.0
C590 C 0.5685 0.6045 0.65445 0.0
C591 C 0.56453 0.56404 0.67254 0.0
C592 C 0.55291 0.5668 0.69706 0.0
C593 C 0.54869 0.52548 0.71468 0.0
C594 C 0.55573 0.4828 0.70829 0.0
C595 C 0.5678 0.48053 0.6844 0.0
C596 C 0.57245 0.52066 0.6667 0.0
H597 H 0.61811 0.11456 0.60585 0.0
C598 C 0.58175 0.07892 0.59971 0.0
H599 H 0.50325 0.00938 0.60982 0.0
H600 H 0.54397 0.99278 0.7209 0.0
H601 H 0.51954 0.9016 0.70993 0.0
H602 H 0.50671 0.88061 0.66743 0.0
H603 H 0.51708 0.95004 0.63576 0.0
C604 C 0.53963 0.04548 0.6156 0.0
C605 C 0.54297 0.05619 0.64153 0.0
C606 C 0.5376 0.01517 0.65968 0.0
C607 C 0.54726 0.02782 0.68407 0.0
C608 C 0.53948 0.98575 0.70201 0.0
C609 C 0.52494 0.93322 0.69597 0.0
C610 C 0.5176 0.92138 0.67205 0.0
C611 C 0.52368 0.96166 0.65403 0.0
H612 H 0.50635 0.07722 0.7281 0.0
C613 C 0.54985 0.09629 0.73154 0.0
H614 H 0.62836 0.12198 0.71661 0.0
H615 H 0.53895 0.13794 0.61306 0.0
H616 H 0.56358 0.22873 0.62429 0.0
H617 H 0.59134 0.25429 0.66549 0.0
H618 H 0.5931 0.18869 0.69583 0.0
C619 C 0.58428 0.09862 0.7144 0.0
C620 C 0.56511 0.08208 0.68998 0.0
C621 C 0.56712 0.12198 0.67219 0.0
C622 C 0.55395 0.1083 0.64815 0.0
C623 C 0.55179 0.14732 0.63122 0.0
C624 C 0.56522 0.19937 0.6375 0.0
C625 C 0.58067 0.2137 0.66071 0.0
C626 C 0.58157 0.17561 0.67795 0.0
H627 H 0.55454 0.65162 0.93896 0.0
C628 C 0.57561 0.63458 0.92987 0.0
H629 H 0.6196 0.59307 0.93415 0.0
H630 H 0.61065 0.68147 0.04205 0.0
H631 H 0.66328 0.77473 0.02201 0.0
H632 H 0.68641 0.79018 0.97828 0.0
H633 H 0.65638 0.7126 0.95424 0.0
C634 C 0.59898 0.6107 0.94312 0.0
C635 C 0.59253 0.60246 0.97008 0.0
C636 C 0.61203 0.64834 0.98402 0.0
C637 C 0.59992 0.63946 0.00938 0.0
C638 C 0.6186 0.68595 0.02274 0.0
C639 C 0.6491 0.73966 0.0115 0.0
C640 C 0.66205 0.74835 0.98686 0.0
C641 C 0.64408 0.70342 0.97323 0.0
H642 H 0.60169 0.55206 0.06219 0.0
C643 C 0.56712 0.55772 0.06514 0.0
H644 H 0.5176 0.58647 0.04975 0.0
H645 H 0.55381 0.50512 0.94931 0.0
H646 H 0.5069 0.41256 0.9698 0.0
H647 H 0.48876 0.39747 0.01389 0.0
H648 H 0.51743 0.47483 0.03769 0.0
C649 C 0.54864 0.57591 0.04644 0.0
C650 C 0.57008 0.58488 0.02098 0.0
C651 C 0.55462 0.53913 0.00737 0.0
C652 C 0.56557 0.54792 0.9819 0.0
C653 C 0.54746 0.50122 0.96868 0.0
C654 C 0.52024 0.44768 0.98021 0.0
C655 C 0.50998 0.43919 0.00502 0.0
C656 C 0.52664 0.48413 0.0185 0.0
H657 H 0.00728 0.44123 0.26396 0.0
C658 C -0.00327 0.46961 0.25457 0.0
H659 H 0.98144 0.53452 0.25842 0.0
H660 H 0.93203 0.45924 0.37215 0.0
H661 H 0.83879 0.42323 0.35911 0.0
H662 H 0.82044 0.42649 0.31595 0.0
H663 H 0.89507 0.46532 0.28537 0.0
C664 C 0.99249 0.50595 0.2671 0.0
C665 C 0.00419 0.50839 0.29319 0.0
C666 C 0.96043 0.48711 0.31084 0.0
C667 C 0.97123 0.48626 0.33581 0.0
C668 C 0.92637 0.46239 0.353 0.0
C669 C 0.87265 0.44125 0.34578 0.0
C670 C 0.86226 0.44298 0.32144 0.0
C671 C 0.90545 0.46541 0.30408 0.0
H672 H 0.01578 0.56809 0.37453 0.0
C673 C 0.03356 0.54463 0.38238 0.0
H674 H 0.06164 0.49102 0.37583 0.0
H675 H 0.09808 0.55546 0.26396 0.0
H676 H 0.19117 0.59186 0.27678 0.0
H677 H 0.21025 0.59197 0.31999 0.0
H678 H 0.13635 0.55495 0.3506 0.0
C679 C 0.03874 0.51006 0.36902 0.0
C680 C 0.02606 0.50808 0.34303 0.0
C681 C 0.06995 0.52998 0.32532 0.0
C682 C 0.05902 0.53014 0.3004 0.0
C683 C 0.10376 0.55306 0.28314 0.0
C684 C 0.15755 0.57453 0.29024 0.0
C685 C 0.16829 0.57466 0.31456 0.0
C686 C 0.12529 0.553 0.33196 0.0
loop_
_geom_bond_atom_site_label_1
_geom_bond_atom_site_label_2
_geom_bond_distance
_geom_bond_site_symmetry_2
_ccdc_geom_bond_type
O0 Zn1 1.953 . S
O0 C16 1.225 . S
Zn1 O0 1.953 . S
Zn1 O2 1.949 . S
Zn1 O8 1.919 1_455 S
Zn1 O13 1.924 . S
O2 Zn1 1.949 . S
O2 Zn3 1.923 1_455 S
O2 Zn4 1.950 . S
O2 Zn5 1.945 . S
Zn3 O2 1.923 1_655 S
Zn3 O6 1.933 . S
Zn3 O9 1.941 . S
Zn3 O10 1.965 . S
Zn4 O2 1.950 . S
Zn4 O11 1.938 1_455 S
Zn4 O12 1.906 . S
Zn4 O22 1.953 . S
Zn5 O2 1.945 . S
Zn5 O7 1.932 . S
Zn5 O14 1.977 . S
Zn5 O15 1.910 . S
O6 Zn3 1.933 . S
O6 C17 1.226 1_655 S
O7 Zn5 1.932 . S
O7 C17 1.307 . S
O8 Zn1 1.919 1_655 S
O8 C19 1.253 . S
O9 Zn3 1.941 . S
O9 C19 1.283 . S
O10 Zn3 1.965 . S
O10 C18 1.303 . S
O11 Zn4 1.938 1_655 S
O11 C18 1.247 . S
O12 Zn4 1.906 . S
O12 C20 1.304 . S
O13 Zn1 1.924 . S
O13 C21 1.311 . S
O14 Zn5 1.977 . S
O14 C20 1.272 . S
O15 Zn5 1.910 . S
O15 C21 1.231 . S
C16 O0 1.225 . S
C16 O22 1.298 . S
C17 O6 1.226 1_455 S
C17 O7 1.307 . S
C18 O10 1.303 . S
C18 O11 1.247 . S
C19 O8 1.253 . S
C19 O9 1.283 . S
C20 O12 1.304 . S
C20 O14 1.272 . S
C21 O13 1.311 . S
C21 O15 1.231 . S
O22 Zn4 1.953 . S
O22 C16 1.298 . S
O23 Zn24 1.953 . S
O23 C39 1.225 . S
Zn24 O23 1.953 . S
Zn24 O25 1.949 . S
Zn24 O31 1.919 . S
Zn24 O36 1.924 . S
O25 Zn24 1.949 . S
O25 Zn26 1.923 . S
O25 Zn27 1.950 . S
O25 Zn28 1.945 1_545 S
Zn26 O25 1.923 . S
Zn26 O29 1.933 . S
Zn26 O32 1.941 . S
Zn26 O33 1.965 . S
Zn27 O25 1.950 . S
Zn27 O34 1.938 . S
Zn27 O35 1.906 1_545 S
Zn27 O45 1.953 . S
Zn28 O25 1.945 1_565 S
Zn28 O30 1.932 1_565 S
Zn28 O37 1.977 . S
Zn28 O38 1.910 . S
O29 Zn26 1.933 . S
O29 C40 1.226 . S
O30 Zn28 1.932 1_545 S
O30 C40 1.307 . S
O31 Zn24 1.919 . S
O31 C42 1.253 . S
O32 Zn26 1.941 . S
O32 C42 1.283 . S
O33 Zn26 1.965 . S
O33 C41 1.303 . S
O34 Zn27 1.938 . S
O34 C41 1.247 . S
O35 Zn27 1.906 1_565 S
O35 C43 1.304 . S
O36 Zn24 1.924 . S
O36 C44 1.311 1_545 S
O37 Zn28 1.977 . S
O37 C43 1.272 . S
O38 Zn28 1.910 . S
O38 C44 1.231 . S
C39 O23 1.225 . S
C39 O45 1.298 . S
C40 O29 1.226 . S
C40 O30 1.307 . S
C41 O33 1.303 . S
C41 O34 1.247 . S
C42 O31 1.253 . S
C42 O32 1.283 . S
C43 O35 1.304 . S
C43 O37 1.272 . S
C44 O36 1.311 1_565 S
C44 O38 1.231 . S
O45 Zn27 1.953 . S
O45 C39 1.298 . S
O46 Zn47 1.953 . S
O46 C62 1.225 . S
Zn47 O46 1.953 . S
Zn47 O48 1.949 . S
Zn47 O54 1.919 . S
Zn47 O59 1.924 . S
O48 Zn47 1.949 . S
O48 Zn49 1.923 . S
O48 Zn50 1.950 . S
O48 Zn51 1.945 . S
Zn49 O48 1.923 . S
Zn49 O52 1.933 . S
Zn49 O55 1.941 . S
Zn49 O56 1.965 . S
Zn50 O48 1.950 . S
Zn50 O57 1.938 . S
Zn50 O58 1.906 . S
Zn50 O68 1.953 . S
Zn51 O48 1.945 . S
Zn51 O53 1.932 . S
Zn51 O60 1.977 . S
Zn51 O61 1.910 . S
O52 Zn49 1.933 . S
O52 C63 1.226 . S
O53 Zn51 1.932 . S
O53 C63 1.307 . S
O54 Zn47 1.919 . S
O54 C65 1.253 . S
O55 Zn49 1.941 . S
O55 C65 1.283 . S
O56 Zn49 1.965 . S
O56 C64 1.303 . S
O57 Zn50 1.938 . S
O57 C64 1.247 . S
O58 Zn50 1.906 . S
O58 C66 1.304 . S
O59 Zn47 1.924 . S
O59 C67 1.311 . S
O60 Zn51 1.977 . S
O60 C66 1.272 . S
O61 Zn51 1.910 . S
O61 C67 1.231 . S
C62 O46 1.225 . S
C62 O68 1.298 . S
C63 O52 1.226 . S
C63 O53 1.307 . S
C64 O56 1.303 . S
C64 O57 1.247 . S
C65 O54 1.253 . S
C65 O55 1.283 . S
C66 O58 1.304 . S
C66 O60 1.272 . S
C67 O59 1.311 . S
C67 O61 1.231 . S
O68 Zn50 1.953 . S
O68 C62 1.298 . S
C69 N70 1.317 . S
C69 N71 1.348 1_545 S
C69 C72 1.485 . S
N70 C69 1.317 . S
N70 N74 1.370 . S
N71 C69 1.348 1_565 S
N71 C73 1.346 . S
C72 C69 1.485 . S
C72 H76 0.960 . S
C72 H77 0.961 . S
C72 H78 0.960 . S
C73 N71 1.346 . S
C73 N74 1.307 1_565 S
C73 C75 1.486 . S
N74 N70 1.370 . S
N74 C73 1.307 1_545 S
C75 C73 1.486 . S
C75 H79 0.960 . S
C75 H80 0.960 . S
C75 H81 0.959 . S
H76 C72 0.960 . S
H77 C72 0.961 . S
H78 C72 0.960 . S
H79 C75 0.960 . S
H80 C75 0.960 . S
H81 C75 0.959 . S
C82 N83 1.317 . S
C82 N84 1.348 . S
C82 C85 1.485 . S
N83 C82 1.317 . S
N83 N87 1.370 . S
N84 C82 1.348 . S
N84 C86 1.346 . S
C85 C82 1.485 . S
C85 H89 0.960 . S
C85 H90 0.961 . S
C85 H91 0.960 . S
C86 N84 1.346 . S
C86 N87 1.307 . S
C86 C88 1.486 . S
N87 N83 1.370 . S
N87 C86 1.307 . S
C88 C86 1.486 . S
C88 H92 0.960 . S
C88 H93 0.960 . S
C88 H94 0.959 . S
H89 C85 0.960 . S
H90 C85 0.961 . S
H91 C85 0.960 . S
H92 C88 0.960 . S
H93 C88 0.960 . S
H94 C88 0.959 . S
C95 N96 1.317 . S
C95 N97 1.348 . S
C95 C98 1.485 . S
N96 C95 1.317 . S
N96 N100 1.370 . S
N97 C95 1.348 . S
N97 C99 1.346 . S
C98 C95 1.485 . S
C98 H102 0.960 . S
C98 H103 0.961 . S
C98 H104 0.960 . S
C99 N97 1.346 . S
C99 N100 1.307 . S
C99 C101 1.486 1_455 S
N100 N96 1.370 . S
N100 C99 1.307 . S
C101 C99 1.486 1_655 S
C101 H105 0.960 . S
C101 H106 0.960 . S
C101 H107 0.959 . S
H102 C98 0.960 . S
H103 C98 0.961 . S
H104 C98 0.960 . S
H105 C101 0.960 . S
H106 C101 0.960 . S
H107 C101 0.959 . S
C108 N109 1.317 . S
C108 N110 1.348 . S
C108 C111 1.485 . S
N109 C108 1.317 . S
N109 N113 1.370 . S
N110 C108 1.348 . S
N110 C112 1.346 . S
C111 C108 1.485 . S
C111 H115 0.960 . S
C111 H116 0.961 . S
C111 H117 0.960 . S
C112 N110 1.346 . S
C112 N113 1.307 . S
C112 C114 1.486 . S
N113 N109 1.370 . S
N113 C112 1.307 . S
C114 C112 1.486 . S
C114 H118 0.960 . S
C114 H119 0.960 . S
C114 H120 0.959 . S
H115 C111 0.960 . S
H116 C111 0.961 . S
H117 C111 0.960 . S
H118 C114 0.960 . S
H119 C114 0.960 . S
H120 C114 0.959 . S
C121 N122 1.317 . S
C121 N123 1.348 . S
C121 C124 1.485 . S
N122 C121 1.317 . S
N122 N126 1.370 . S
N123 C121 1.348 . S
N123 C125 1.346 . S
C124 C121 1.485 . S
C124 H128 0.960 . S
C124 H129 0.961 . S
C124 H130 0.960 . S
C125 N123 1.346 . S
C125 N126 1.307 . S
C125 C127 1.486 . S
N126 N122 1.370 . S
N126 C125 1.307 . S
C127 C125 1.486 . S
C127 H131 0.960 . S
C127 H132 0.960 . S
C127 H133 0.959 . S
H128 C124 0.960 . S
H129 C124 0.961 . S
H130 C124 0.960 . S
H131 C127 0.960 . S
H132 C127 0.960 . S
H133 C127 0.959 . S
C134 N135 1.317 . S
C134 N136 1.348 . S
C134 C137 1.485 . S
N135 C134 1.317 . S
N135 N139 1.370 . S
N136 C134 1.348 . S
N136 C138 1.346 . S
C137 C134 1.485 . S
C137 H141 0.960 . S
C137 H142 0.961 . S
C137 H143 0.960 . S
C138 N136 1.346 . S
C138 N139 1.307 . S
C138 C140 1.486 . S
N139 N135 1.370 . S
N139 C138 1.307 . S
C140 C138 1.486 . S
C140 H144 0.960 . S
C140 H145 0.960 . S
C140 H146 0.959 . S
H141 C137 0.960 . S
H142 C137 0.961 . S
H143 C137 0.960 . S
H144 C140 0.960 . S
H145 C140 0.960 . S
H146 C140 0.959 . S
H147 C148 0.951 . S
C148 H147 0.951 . S
C148 C154 1.265 . S
H149 C154 0.950 . S
H150 C158 0.949 . S
H151 C159 0.950 . S
H152 C160 0.951 . S
H153 C161 0.951 . S
C154 C148 1.265 . S
C154 H149 0.950 . S
C154 C155 1.478 . S
C155 C154 1.478 . S
C155 C156 1.397 . S
C155 C172 1.394 . S
C156 C155 1.397 . S
C156 C157 1.438 . S
C156 C161 1.429 . S
C157 C156 1.438 . S
C157 C158 1.428 . S
C157 C170 1.394 . S
C158 H150 0.949 . S
C158 C157 1.428 . S
C158 C159 1.345 . S
C159 H151 0.950 . S
C159 C158 1.345 . S
C159 C160 1.424 . S
C160 H152 0.951 . S
C160 C159 1.424 . S
C160 C161 1.347 . S
C161 H153 0.951 . S
C161 C156 1.429 . S
C161 C160 1.347 . S
H162 C163 0.951 . S
C163 H162 0.951 . S
C163 C169 1.265 . S
H164 C169 0.950 . S
H165 C173 0.949 . S
H166 C174 0.950 . S
H167 C175 0.951 . S
H168 C176 0.951 . S
C169 C163 1.265 . S
C169 H164 0.950 . S
C169 C170 1.478 . S
C170 C157 1.394 . S
C170 C169 1.478 . S
C170 C171 1.397 . S
C171 C170 1.397 . S
C171 C172 1.438 . S
C171 C176 1.429 . S
C172 C155 1.394 . S
C172 C171 1.438 . S
C172 C173 1.428 . S
C173 H165 0.949 . S
C173 C172 1.428 . S
C173 C174 1.345 . S
C174 H166 0.950 . S
C174 C173 1.345 . S
C174 C175 1.424 . S
C175 H167 0.951 . S
C175 C174 1.424 . S
C175 C176 1.347 . S
C176 H168 0.951 . S
C176 C171 1.429 . S
C176 C175 1.347 . S
H177 C178 0.951 . S
C178 H177 0.951 . S
C178 C184 1.265 . S
H179 C184 0.950 . S
H180 C188 0.949 . S
H181 C189 0.950 . S
H182 C190 0.951 . S
H183 C191 0.951 . S
C184 C178 1.265 . S
C184 H179 0.950 . S
C184 C185 1.478 . S
C185 C184 1.478 . S
C185 C186 1.397 . S
C185 C202 1.394 . S
C186 C185 1.397 . S
C186 C187 1.438 . S
C186 C191 1.429 . S
C187 C186 1.438 . S
C187 C188 1.428 . S
C187 C200 1.394 . S
C188 H180 0.949 . S
C188 C187 1.428 . S
C188 C189 1.345 . S
C189 H181 0.950 . S
C189 C188 1.345 . S
C189 C190 1.424 . S
C190 H182 0.951 . S
C190 C189 1.424 . S
C190 C191 1.347 . S
C191 H183 0.951 . S
C191 C186 1.429 . S
C191 C190 1.347 . S
H192 C193 0.951 . S
C193 H192 0.951 . S
C193 C199 1.265 1_455 S
H194 C199 0.950 . S
H195 C203 0.949 . S
H196 C204 0.950 . S
H197 C205 0.951 . S
H198 C206 0.951 . S
C199 C193 1.265 1_655 S
C199 H194 0.950 . S
C199 C200 1.478 . S
C200 C187 1.394 . S
C200 C199 1.478 . S
C200 C201 1.397 . S
C201 C200 1.397 . S
C201 C202 1.438 . S
C201 C206 1.429 . S
C202 C185 1.394 . S
C202 C201 1.438 . S
C202 C203 1.428 . S
C203 H195 0.949 . S
C203 C202 1.428 . S
C203 C204 1.345 . S
C204 H196 0.950 . S
C204 C203 1.345 . S
C204 C205 1.424 . S
C205 H197 0.951 . S
C205 C204 1.424 . S
C205 C206 1.347 . S
C206 H198 0.951 . S
C206 C201 1.429 . S
C206 C205 1.347 . S
H207 C208 0.951 . S
C208 H207 0.951 . S
C208 C214 1.265 . S
H209 C214 0.950 . S
H210 C218 0.949 . S
H211 C219 0.950 . S
H212 C220 0.951 . S
H213 C221 0.951 . S
C214 C208 1.265 . S
C214 H209 0.950 . S
C214 C215 1.478 . S
C215 C214 1.478 . S
C215 C216 1.397 . S
C215 C232 1.394 . S
C216 C215 1.397 . S
C216 C217 1.438 . S
C216 C221 1.429 . S
C217 C216 1.438 . S
C217 C218 1.428 . S
C217 C230 1.394 . S
C218 H210 0.949 . S
C218 C217 1.428 . S
C218 C219 1.345 . S
C219 H211 0.950 . S
C219 C218 1.345 . S
C219 C220 1.424 . S
C220 H212 0.951 . S
C220 C219 1.424 . S
C220 C221 1.347 . S
C221 H213 0.951 . S
C221 C216 1.429 . S
C221 C220 1.347 . S
H222 C223 0.951 . S
C223 H222 0.951 . S
C223 C229 1.265 1_545 S
H224 C229 0.950 . S
H225 C233 0.949 . S
H226 C234 0.950 . S
H227 C235 0.951 . S
H228 C236 0.951 . S
C229 C223 1.265 1_565 S
C229 H224 0.950 . S
C229 C230 1.478 . S
C230 C217 1.394 . S
C230 C229 1.478 . S
C230 C231 1.397 . S
C231 C230 1.397 . S
C231 C232 1.438 . S
C231 C236 1.429 . S
C232 C215 1.394 . S
C232 C231 1.438 . S
C232 C233 1.428 . S
C233 H225 0.949 . S
C233 C232 1.428 . S
C233 C234 1.345 . S
C234 H226 0.950 . S
C234 C233 1.345 . S
C234 C235 1.424 . S
C235 H227 0.951 . S
C235 C234 1.424 . S
C235 C236 1.347 . S
C236 H228 0.951 . S
C236 C231 1.429 . S
C236 C235 1.347 . S
H237 C238 0.951 . S
C238 H237 0.951 . S
C238 C244 1.265 . S
H239 C244 0.950 . S
H240 C248 0.949 . S
H241 C249 0.950 . S
H242 C250 0.951 . S
H243 C251 0.951 . S
C244 C238 1.265 . S
C244 H239 0.950 . S
C244 C245 1.478 . S
C245 C244 1.478 . S
C245 C246 1.397 . S
C245 C262 1.394 . S
C246 C245 1.397 . S
C246 C247 1.438 . S
C246 C251 1.429 . S
C247 C246 1.438 . S
C247 C248 1.428 . S
C247 C260 1.394 . S
C248 H240 0.949 . S
C248 C247 1.428 . S
C248 C249 1.345 . S
C249 H241 0.950 . S
C249 C248 1.345 . S
C249 C250 1.424 . S
C250 H242 0.951 . S
C250 C249 1.424 . S
C250 C251 1.347 . S
C251 H243 0.951 . S
C251 C246 1.429 . S
C251 C250 1.347 . S
H252 C253 0.951 . S
C253 H252 0.951 . S
C253 C259 1.265 . S
H254 C259 0.950 . S
H255 C263 0.949 . S
H256 C264 0.950 . S
H257 C265 0.951 . S
H258 C266 0.951 . S
C259 C253 1.265 . S
C259 H254 0.950 . S
C259 C260 1.478 . S
C260 C247 1.394 . S
C260 C259 1.478 . S
C260 C261 1.397 . S
C261 C260 1.397 . S
C261 C262 1.438 . S
C261 C266 1.429 . S
C262 C245 1.394 . S
C262 C261 1.438 . S
C262 C263 1.428 . S
C263 H255 0.949 . S
C263 C262 1.428 . S
C263 C264 1.345 . S
C264 H256 0.950 . S
C264 C263 1.345 . S
C264 C265 1.424 . S
C265 H257 0.951 . S
C265 C264 1.424 . S
C265 C266 1.347 . S
C266 H258 0.951 . S
C266 C261 1.429 . S
C266 C265 1.347 . S
H267 C268 0.951 . S
C268 H267 0.951 . S
C268 C274 1.265 . S
H269 C274 0.950 . S
H270 C278 0.949 . S
H271 C279 0.950 . S
H272 C280 0.951 . S
H273 C281 0.951 . S
C274 C268 1.265 . S
C274 H269 0.950 . S
C274 C275 1.478 . S
C275 C274 1.478 . S
C275 C276 1.397 . S
C275 C292 1.394 . S
C276 C275 1.397 . S
C276 C277 1.438 . S
C276 C281 1.429 . S
C277 C276 1.438 . S
C277 C278 1.428 . S
C277 C290 1.394 . S
C278 H270 0.949 . S
C278 C277 1.428 . S
C278 C279 1.345 . S
C279 H271 0.950 . S
C279 C278 1.345 . S
C279 C280 1.424 . S
C280 H272 0.951 . S
C280 C279 1.424 . S
C280 C281 1.347 . S
C281 H273 0.951 . S
C281 C276 1.429 . S
C281 C280 1.347 . S
H282 C283 0.951 . S
C283 H282 0.951 . S
C283 C289 1.265 . S
H284 C289 0.950 . S
H285 C293 0.949 . S
H286 C294 0.950 . S
H287 C295 0.951 . S
H288 C296 0.951 . S
C289 C283 1.265 . S
C289 H284 0.950 . S
C289 C290 1.478 . S
C290 C277 1.394 . S
C290 C289 1.478 . S
C290 C291 1.397 . S
C291 C290 1.397 . S
C291 C292 1.438 . S
C291 C296 1.429 . S
C292 C275 1.394 . S
C292 C291 1.438 . S
C292 C293 1.428 . S
C293 H285 0.949 . S
C293 C292 1.428 . S
C293 C294 1.345 . S
C294 H286 0.950 . S
C294 C293 1.345 . S
C294 C295 1.424 . S
C295 H287 0.951 . S
C295 C294 1.424 . S
C295 C296 1.347 . S
C296 H288 0.951 . S
C296 C291 1.429 . S
C296 C295 1.347 . S
H297 C298 0.951 . S
C298 H297 0.951 . S
C298 C304 1.265 . S
H299 C304 0.950 . S
H300 C308 0.949 . S
H301 C309 0.950 . S
H302 C310 0.951 . S
H303 C311 0.951 . S
C304 C298 1.265 . S
C304 H299 0.950 . S
C304 C305 1.478 . S
C305 C304 1.478 . S
C305 C306 1.397 . S
C305 C322 1.394 . S
C306 C305 1.397 . S
C306 C307 1.438 . S
C306 C311 1.429 . S
C307 C306 1.438 . S
C307 C308 1.428 . S
C307 C320 1.394 . S
C308 H300 0.949 . S
C308 C307 1.428 . S
C308 C309 1.345 . S
C309 H301 0.950 . S
C309 C308 1.345 . S
C309 C310 1.424 . S
C310 H302 0.951 . S
C310 C309 1.424 . S
C310 C311 1.347 . S
C311 H303 0.951 . S
C311 C306 1.429 . S
C311 C310 1.347 . S
H312 C313 0.951 . S
C313 H312 0.951 . S
C313 C319 1.265 . S
H314 C319 0.950 . S
H315 C323 0.949 . S
H316 C324 0.950 . S
H317 C325 0.951 . S
H318 C326 0.951 . S
C319 C313 1.265 . S
C319 H314 0.950 . S
C319 C320 1.478 . S
C320 C307 1.394 . S
C320 C319 1.478 . S
C320 C321 1.397 . S
C321 C320 1.397 . S
C321 C322 1.438 . S
C321 C326 1.429 . S
C322 C305 1.394 . S
C322 C321 1.438 . S
C322 C323 1.428 . S
C323 H315 0.949 . S
C323 C322 1.428 . S
C323 C324 1.345 . S
C324 H316 0.950 . S
C324 C323 1.345 . S
C324 C325 1.424 . S
C325 H317 0.951 . S
C325 C324 1.424 . S
C325 C326 1.347 . S
C326 H318 0.951 . S
C326 C321 1.429 . S
C326 C325 1.347 . S
H327 C328 0.951 . S
C328 H327 0.951 . S
C328 C334 1.265 . S
H329 C334 0.950 . S
H330 C338 0.949 . S
H331 C339 0.950 . S
H332 C340 0.951 . S
H333 C341 0.951 . S
C334 C328 1.265 . S
C334 H329 0.950 . S
C334 C335 1.478 . S
C335 C334 1.478 . S
C335 C336 1.397 . S
C335 C352 1.394 . S
C336 C335 1.397 . S
C336 C337 1.438 . S
C336 C341 1.429 . S
C337 C336 1.438 . S
C337 C338 1.428 . S
C337 C350 1.394 . S
C338 H330 0.949 . S
C338 C337 1.428 . S
C338 C339 1.345 . S
C339 H331 0.950 . S
C339 C338 1.345 . S
C339 C340 1.424 . S
C340 H332 0.951 . S
C340 C339 1.424 . S
C340 C341 1.347 . S
C341 H333 0.951 . S
C341 C336 1.429 . S
C341 C340 1.347 . S
H342 C343 0.951 . S
C343 H342 0.951 . S
C343 C349 1.265 . S
H344 C349 0.950 . S
H345 C353 0.949 . S
H346 C354 0.950 . S
H347 C355 0.951 . S
H348 C356 0.951 . S
C349 C343 1.265 . S
C349 H344 0.950 . S
C349 C350 1.478 . S
C350 C337 1.394 . S
C350 C349 1.478 . S
C350 C351 1.397 . S
C351 C350 1.397 . S
C351 C352 1.438 . S
C351 C356 1.429 . S
C352 C335 1.394 . S
C352 C351 1.438 . S
C352 C353 1.428 . S
C353 H345 0.949 . S
C353 C352 1.428 . S
C353 C354 1.345 . S
C354 H346 0.950 . S
C354 C353 1.345 . S
C354 C355 1.424 . S
C355 H347 0.951 . S
C355 C354 1.424 . S
C355 C356 1.347 . S
C356 H348 0.951 . S
C356 C351 1.429 . S
C356 C355 1.347 . S
H357 C358 0.951 . S
C358 H357 0.951 . S
C358 C364 1.265 . S
H359 C364 0.950 . S
H360 C368 0.949 . S
H361 C369 0.950 . S
H362 C370 0.951 . S
H363 C371 0.951 . S
C364 C358 1.265 . S
C364 H359 0.950 . S
C364 C365 1.478 . S
C365 C364 1.478 . S
C365 C366 1.397 . S
C365 C382 1.394 . S
C366 C365 1.397 . S
C366 C367 1.438 . S
C366 C371 1.429 . S
C367 C366 1.438 . S
C367 C368 1.428 . S
C367 C380 1.394 . S
C368 H360 0.949 . S
C368 C367 1.428 . S
C368 C369 1.345 . S
C369 H361 0.950 . S
C369 C368 1.345 . S
C369 C370 1.424 . S
C370 H362 0.951 . S
C370 C369 1.424 . S
C370 C371 1.347 . S
C371 H363 0.951 . S
C371 C366 1.429 . S
C371 C370 1.347 . S
H372 C373 0.951 . S
C373 H372 0.951 . S
C373 C379 1.265 . S
H374 C379 0.950 . S
H375 C383 0.949 . S
H376 C384 0.950 . S
H377 C385 0.951 . S
H378 C386 0.951 . S
C379 C373 1.265 . S
C379 H374 0.950 . S
C379 C380 1.478 . S
C380 C367 1.394 . S
C380 C379 1.478 . S
C380 C381 1.397 . S
C381 C380 1.397 . S
C381 C382 1.438 . S
C381 C386 1.429 . S
C382 C365 1.394 . S
C382 C381 1.438 . S
C382 C383 1.428 . S
C383 H375 0.949 . S
C383 C382 1.428 . S
C383 C384 1.345 . S
C384 H376 0.950 . S
C384 C383 1.345 . S
C384 C385 1.424 . S
C385 H377 0.951 . S
C385 C384 1.424 . S
C385 C386 1.347 . S
C386 H378 0.951 . S
C386 C381 1.429 . S
C386 C385 1.347 . S
H387 C388 0.951 . S
C388 H387 0.951 . S
C388 C394 1.265 . S
H389 C394 0.950 . S
H390 C398 0.949 . S
H391 C399 0.950 . S
H392 C400 0.951 . S
H393 C401 0.951 . S
C394 C388 1.265 . S
C394 H389 0.950 . S
C394 C395 1.478 . S
C395 C394 1.478 . S
C395 C396 1.397 . S
C395 C412 1.394 . S
C396 C395 1.397 . S
C396 C397 1.438 . S
C396 C401 1.429 . S
C397 C396 1.438 . S
C397 C398 1.428 . S
C397 C410 1.394 . S
C398 H390 0.949 . S
C398 C397 1.428 . S
C398 C399 1.345 . S
C399 H391 0.950 . S
C399 C398 1.345 . S
C399 C400 1.424 . S
C400 H392 0.951 . S
C400 C399 1.424 . S
C400 C401 1.347 . S
C401 H393 0.951 . S
C401 C396 1.429 . S
C401 C400 1.347 . S
H402 C403 0.951 . S
C403 H402 0.951 . S
C403 C409 1.265 . S
H404 C409 0.950 . S
H405 C413 0.949 . S
H406 C414 0.950 . S
H407 C415 0.951 . S
H408 C416 0.951 . S
C409 C403 1.265 . S
C409 H404 0.950 . S
C409 C410 1.478 . S
C410 C397 1.394 . S
C410 C409 1.478 . S
C410 C411 1.397 . S
C411 C410 1.397 . S
C411 C412 1.438 . S
C411 C416 1.429 . S
C412 C395 1.394 . S
C412 C411 1.438 . S
C412 C413 1.428 . S
C413 H405 0.949 . S
C413 C412 1.428 . S
C413 C414 1.345 . S
C414 H406 0.950 . S
C414 C413 1.345 . S
C414 C415 1.424 . S
C415 H407 0.951 . S
C415 C414 1.424 . S
C415 C416 1.347 . S
C416 H408 0.951 . S
C416 C411 1.429 . S
C416 C415 1.347 . S
H417 C418 0.951 . S
C418 H417 0.951 . S
C418 C424 1.265 . S
H419 C424 0.950 . S
H420 C428 0.949 . S
H421 C429 0.950 . S
H422 C430 0.951 . S
H423 C431 0.951 . S
C424 C418 1.265 . S
C424 H419 0.950 . S
C424 C425 1.478 . S
C425 C424 1.478 . S
C425 C426 1.397 . S
C425 C442 1.394 . S
C426 C425 1.397 . S
C426 C427 1.438 . S
C426 C431 1.429 . S
C427 C426 1.438 . S
C427 C428 1.428 . S
C427 C440 1.394 . S
C428 H420 0.949 . S
C428 C427 1.428 . S
C428 C429 1.345 . S
C429 H421 0.950 . S
C429 C428 1.345 . S
C429 C430 1.424 . S
C430 H422 0.951 . S
C430 C429 1.424 . S
C430 C431 1.347 . S
C431 H423 0.951 . S
C431 C426 1.429 . S
C431 C430 1.347 . S
H432 C433 0.951 . S
C433 H432 0.951 . S
C433 C439 1.265 . S
H434 C439 0.950 . S
H435 C443 0.949 . S
H436 C444 0.950 . S
H437 C445 0.951 . S
H438 C446 0.951 . S
C439 C433 1.265 . S
C439 H434 0.950 . S
C439 C440 1.478 . S
C440 C427 1.394 . S
C440 C439 1.478 . S
C440 C441 1.397 . S
C441 C440 1.397 . S
C441 C442 1.438 . S
C441 C446 1.429 . S
C442 C425 1.394 . S
C442 C441 1.438 . S
C442 C443 1.428 . S
C443 H435 0.949 . S
C443 C442 1.428 . S
C443 C444 1.345 . S
C444 H436 0.950 . S
C444 C443 1.345 . S
C444 C445 1.424 . S
C445 H437 0.951 . S
C445 C444 1.424 . S
C445 C446 1.347 . S
C446 H438 0.951 . S
C446 C441 1.429 . S
C446 C445 1.347 . S
H447 C448 0.951 . S
C448 H447 0.951 . S
C448 C454 1.265 . S
H449 C454 0.950 . S
H450 C458 0.949 . S
H451 C459 0.950 . S
H452 C460 0.951 . S
H453 C461 0.951 . S
C454 C448 1.265 . S
C454 H449 0.950 . S
C454 C455 1.478 . S
C455 C454 1.478 . S
C455 C456 1.397 . S
C455 C472 1.394 . S
C456 C455 1.397 . S
C456 C457 1.438 . S
C456 C461 1.429 . S
C457 C456 1.438 . S
C457 C458 1.428 . S
C457 C470 1.394 . S
C458 H450 0.949 . S
C458 C457 1.428 . S
C458 C459 1.345 . S
C459 H451 0.950 . S
C459 C458 1.345 . S
C459 C460 1.424 . S
C460 H452 0.951 . S
C460 C459 1.424 . S
C460 C461 1.347 . S
C461 H453 0.951 . S
C461 C456 1.429 . S
C461 C460 1.347 . S
H462 C463 0.951 . S
C463 H462 0.951 . S
C463 C469 1.265 . S
H464 C469 0.950 . S
H465 C473 0.949 . S
H466 C474 0.950 . S
H467 C475 0.951 . S
H468 C476 0.951 . S
C469 C463 1.265 . S
C469 H464 0.950 . S
C469 C470 1.478 . S
C470 C457 1.394 . S
C470 C469 1.478 . S
C470 C471 1.397 . S
C471 C470 1.397 . S
C471 C472 1.438 . S
C471 C476 1.429 . S
C472 C455 1.394 . S
C472 C471 1.438 . S
C472 C473 1.428 . S
C473 H465 0.949 . S
C473 C472 1.428 . S
C473 C474 1.345 . S
C474 H466 0.950 . S
C474 C473 1.345 . S
C474 C475 1.424 . S
C475 H467 0.951 . S
C475 C474 1.424 . S
C475 C476 1.347 . S
C476 H468 0.951 . S
C476 C471 1.429 . S
C476 C475 1.347 . S
H477 C478 0.951 . S
C478 H477 0.951 . S
C478 C484 1.265 . S
H479 C484 0.950 . S
H480 C488 0.949 . S
H481 C489 0.950 . S
H482 C490 0.951 . S
H483 C491 0.951 . S
C484 C478 1.265 . S
C484 H479 0.950 . S
C484 C485 1.478 . S
C485 C484 1.478 . S
C485 C486 1.397 . S
C485 C502 1.394 . S
C486 C485 1.397 . S
C486 C487 1.438 . S
C486 C491 1.429 . S
C487 C486 1.438 . S
C487 C488 1.428 . S
C487 C500 1.394 . S
C488 H480 0.949 . S
C488 C487 1.428 . S
C488 C489 1.345 . S
C489 H481 0.950 . S
C489 C488 1.345 . S
C489 C490 1.424 . S
C490 H482 0.951 . S
C490 C489 1.424 . S
C490 C491 1.347 . S
C491 H483 0.951 . S
C491 C486 1.429 . S
C491 C490 1.347 . S
H492 C493 0.951 . S
C493 H492 0.951 . S
C493 C499 1.265 . S
H494 C499 0.950 . S
H495 C503 0.949 . S
H496 C504 0.950 . S
H497 C505 0.951 . S
H498 C506 0.951 . S
C499 C493 1.265 . S
C499 H494 0.950 . S
C499 C500 1.478 . S
C500 C487 1.394 . S
C500 C499 1.478 . S
C500 C501 1.397 . S
C501 C500 1.397 . S
C501 C502 1.438 . S
C501 C506 1.429 . S
C502 C485 1.394 . S
C502 C501 1.438 . S
C502 C503 1.428 . S
C503 H495 0.949 . S
C503 C502 1.428 . S
C503 C504 1.345 . S
C504 H496 0.950 . S
C504 C503 1.345 . S
C504 C505 1.424 . S
C505 H497 0.951 . S
C505 C504 1.424 . S
C505 C506 1.347 . S
C506 H498 0.951 . S
C506 C501 1.429 . S
C506 C505 1.347 . S
H507 C508 0.951 1_655 S
C508 H507 0.951 1_455 S
C508 C514 1.265 . S
H509 C514 0.950 . S
H510 C518 0.949 . S
H511 C519 0.950 1_655 S
H512 C520 0.951 1_655 S
H513 C521 0.951 . S
C514 C508 1.265 . S
C514 H509 0.950 . S
C514 C515 1.478 . S
C515 C514 1.478 . S
C515 C516 1.397 . S
C515 C532 1.394 . S
C516 C515 1.397 . S
C516 C517 1.438 1_554 S
C516 C521 1.429 . S
C517 C516 1.438 1_556 S
C517 C518 1.428 . S
C517 C530 1.394 . S
C518 H510 0.949 . S
C518 C517 1.428 . S
C518 C519 1.345 . S
C519 H511 0.950 1_455 S
C519 C518 1.345 . S
C519 C520 1.424 1_556 S
C520 H512 0.951 1_455 S
C520 C519 1.424 1_554 S
C520 C521 1.347 . S
C521 H513 0.951 . S
C521 C516 1.429 . S
C521 C520 1.347 . S
H522 C523 0.951 . S
C523 H522 0.951 . S
C523 C529 1.265 . S
H524 C529 0.950 . S
H525 C533 0.949 . S
H526 C534 0.950 . S
H527 C535 0.951 . S
H528 C536 0.951 . S
C529 C523 1.265 . S
C529 H524 0.950 . S
C529 C530 1.478 . S
C530 C517 1.394 . S
C530 C529 1.478 . S
C530 C531 1.416 . S
C531 C530 1.416 . S
C531 C532 1.411 1_556 S
C531 C536 1.436 . S
C532 C515 1.394 . S
C532 C531 1.411 1_554 S
C532 C533 1.428 . S
C533 H525 0.949 . S
C533 C532 1.428 . S
C533 C534 1.345 . S
C534 H526 0.950 . S
C534 C533 1.345 . S
C534 C535 1.424 . S
C535 H527 0.951 . S
C535 C534 1.424 . S
C535 C536 1.347 1_554 S
C536 H528 0.951 . S
C536 C531 1.436 . S
C536 C535 1.347 1_556 S
H537 C538 0.951 . S
C538 H537 0.951 . S
C538 C544 1.265 . S
H539 C544 0.950 . S
H540 C548 0.949 . S
H541 C549 0.950 . S
H542 C550 0.951 . S
H543 C551 0.951 . S
C544 C538 1.265 . S
C544 H539 0.950 . S
C544 C545 1.478 . S
C545 C544 1.478 . S
C545 C546 1.397 . S
C545 C562 1.394 . S
C546 C545 1.397 . S
C546 C547 1.438 . S
C546 C551 1.429 . S
C547 C546 1.438 . S
C547 C548 1.428 . S
C547 C560 1.394 . S
C548 H540 0.949 . S
C548 C547 1.428 . S
C548 C549 1.345 . S
C549 H541 0.950 . S
C549 C548 1.345 . S
C549 C550 1.424 . S
C550 H542 0.951 . S
C550 C549 1.424 . S
C550 C551 1.347 . S
C551 H543 0.951 . S
C551 C546 1.429 . S
C551 C550 1.347 . S
H552 C553 0.951 . S
C553 H552 0.951 . S
C553 C559 1.265 . S
H554 C559 0.950 . S
H555 C563 0.949 . S
H556 C564 0.950 . S
H557 C565 0.951 . S
H558 C566 0.951 . S
C559 C553 1.265 . S
C559 H554 0.950 . S
C559 C560 1.478 . S
C560 C547 1.394 . S
C560 C559 1.478 . S
C560 C561 1.397 . S
C561 C560 1.397 . S
C561 C562 1.438 . S
C561 C566 1.429 1_545 S
C562 C545 1.394 . S
C562 C561 1.438 . S
C562 C563 1.428 1_545 S
C563 H555 0.949 . S
C563 C562 1.428 1_565 S
C563 C564 1.345 . S
C564 H556 0.950 . S
C564 C563 1.345 . S
C564 C565 1.424 . S
C565 H557 0.951 . S
C565 C564 1.424 . S
C565 C566 1.347 . S
C566 H558 0.951 . S
C566 C561 1.429 1_565 S
C566 C565 1.347 . S
H567 C568 0.951 . S
C568 H567 0.951 . S
C568 C574 1.265 . S
H569 C574 0.950 . S
H570 C578 0.949 . S
H571 C579 0.950 . S
H572 C580 0.951 . S
H573 C581 0.951 . S
C574 C568 1.265 . S
C574 H569 0.950 . S
C574 C575 1.478 . S
C575 C574 1.478 . S
C575 C576 1.397 . S
C575 C592 1.394 . S
C576 C575 1.397 . S
C576 C577 1.438 . S
C576 C581 1.429 . S
C577 C576 1.438 . S
C577 C578 1.428 . S
C577 C590 1.394 . S
C578 H570 0.949 . S
C578 C577 1.428 . S
C578 C579 1.345 . S
C579 H571 0.950 . S
C579 C578 1.345 . S
C579 C580 1.424 . S
C580 H572 0.951 . S
C580 C579 1.424 . S
C580 C581 1.347 . S
C581 H573 0.951 . S
C581 C576 1.429 . S
C581 C580 1.347 . S
H582 C583 0.951 . S
C583 H582 0.951 . S
C583 C589 1.265 . S
H584 C589 0.950 . S
H585 C593 0.949 . S
H586 C594 0.950 . S
H587 C595 0.951 . S
H588 C596 0.951 . S
C589 C583 1.265 . S
C589 H584 0.950 . S
C589 C590 1.478 . S
C590 C577 1.394 . S
C590 C589 1.478 . S
C590 C591 1.397 . S
C591 C590 1.397 . S
C591 C592 1.438 . S
C591 C596 1.429 . S
C592 C575 1.394 . S
C592 C591 1.438 . S
C592 C593 1.428 . S
C593 H585 0.949 . S
C593 C592 1.428 . S
C593 C594 1.345 . S
C594 H586 0.950 . S
C594 C593 1.345 . S
C594 C595 1.424 . S
C595 H587 0.951 . S
C595 C594 1.424 . S
C595 C596 1.347 . S
C596 H588 0.951 . S
C596 C591 1.429 . S
C596 C595 1.347 . S
H597 C598 0.951 . S
C598 H597 0.951 . S
C598 C604 1.265 . S
H599 C604 0.950 . S
H600 C608 0.949 . S
H601 C609 0.950 . S
H602 C610 0.951 . S
H603 C611 0.951 . S
C604 C598 1.265 . S
C604 H599 0.950 . S
C604 C605 1.478 . S
C605 C604 1.478 . S
C605 C606 1.397 . S
C605 C622 1.394 . S
C606 C605 1.397 . S
C606 C607 1.438 . S
C606 C611 1.429 1_545 S
C607 C606 1.438 . S
C607 C608 1.428 1_545 S
C607 C620 1.394 . S
C608 H600 0.949 . S
C608 C607 1.428 1_565 S
C608 C609 1.345 . S
C609 H601 0.950 . S
C609 C608 1.345 . S
C609 C610 1.424 . S
C610 H602 0.951 . S
C610 C609 1.424 . S
C610 C611 1.347 . S
C611 H603 0.951 . S
C611 C606 1.429 1_565 S
C611 C610 1.347 . S
H612 C613 0.951 . S
C613 H612 0.951 . S
C613 C619 1.265 . S
H614 C619 0.950 . S
H615 C623 0.949 . S
H616 C624 0.950 . S
H617 C625 0.951 . S
H618 C626 0.951 . S
C619 C613 1.265 . S
C619 H614 0.950 . S
C619 C620 1.478 . S
C620 C607 1.394 . S
C620 C619 1.478 . S
C620 C621 1.397 . S
C621 C620 1.397 . S
C621 C622 1.438 . S
C621 C626 1.429 . S
C622 C605 1.394 . S
C622 C621 1.438 . S
C622 C623 1.428 . S
C623 H615 0.949 . S
C623 C622 1.428 . S
C623 C624 1.345 . S
C624 H616 0.950 . S
C624 C623 1.345 . S
C624 C625 1.424 . S
C625 H617 0.951 . S
C625 C624 1.424 . S
C625 C626 1.347 . S
C626 H618 0.951 . S
C626 C621 1.429 . S
C626 C625 1.347 . S
H627 C628 0.951 . S
C628 H627 0.951 . S
C628 C634 1.265 . S
H629 C634 0.950 . S
H630 C638 0.949 . S
H631 C639 0.950 . S
H632 C640 0.951 . S
H633 C641 0.951 . S
C634 C628 1.265 . S
C634 H629 0.950 . S
C634 C635 1.478 . S
C635 C634 1.478 . S
C635 C636 1.397 . S
C635 C652 1.394 . S
C636 C635 1.397 . S
C636 C637 1.438 1_556 S
C636 C641 1.429 . S
C637 C636 1.438 1_554 S
C637 C638 1.428 . S
C637 C650 1.394 . S
C638 H630 0.949 . S
C638 C637 1.428 . S
C638 C639 1.345 . S
C639 H631 0.950 . S
C639 C638 1.345 . S
C639 C640 1.424 1_554 S
C640 H632 0.951 . S
C640 C639 1.424 1_556 S
C640 C641 1.347 . S
C641 H633 0.951 . S
C641 C636 1.429 . S
C641 C640 1.347 . S
H642 C643 0.951 . S
C643 H642 0.951 . S
C643 C649 1.265 . S
H644 C649 0.950 . S
H645 C653 0.949 . S
H646 C654 0.950 . S
H647 C655 0.955 . S
H648 C656 0.951 . S
C649 C643 1.265 . S
C649 H644 0.950 . S
C649 C650 1.478 . S
C650 C637 1.394 . S
C650 C649 1.478 . S
C650 C651 1.386 1_554 S
C651 C650 1.386 1_556 S
C651 C652 1.453 . S
C651 C656 1.425 1_556 S
C652 C635 1.394 . S
C652 C651 1.453 . S
C652 C653 1.428 . S
C653 H645 0.949 . S
C653 C652 1.428 . S
C653 C654 1.345 . S
C654 H646 0.950 . S
C654 C653 1.345 . S
C654 C655 1.424 . S
C655 H647 0.955 . S
C655 C654 1.424 . S
C655 C656 1.347 1_556 S
C656 H648 0.951 . S
C656 C651 1.425 1_554 S
C656 C655 1.347 1_554 S
H657 C658 0.951 . S
C658 H657 0.951 . S
C658 C664 1.265 . S
H659 C664 0.950 . S
H660 C668 0.949 . S
H661 C669 0.950 . S
H662 C670 0.951 . S
H663 C671 0.951 . S
C664 C658 1.265 . S
C664 H659 0.950 . S
C664 C665 1.478 . S
C665 C664 1.478 . S
C665 C666 1.397 1_455 S
C665 C682 1.394 . S
C666 C665 1.397 1_655 S
C666 C667 1.438 . S
C666 C671 1.429 . S
C667 C666 1.438 . S
C667 C668 1.428 . S
C667 C680 1.394 1_655 S
C668 H660 0.949 . S
C668 C667 1.428 . S
C668 C669 1.345 . S
C669 H661 0.950 . S
C669 C668 1.345 . S
C669 C670 1.424 . S
C670 H662 0.951 . S
C670 C669 1.424 . S
C670 C671 1.347 . S
C671 H663 0.951 . S
C671 C666 1.429 . S
C671 C670 1.347 . S
H672 C673 0.951 . S
C673 H672 0.951 . S
C673 C679 1.265 . S
H674 C679 0.950 . S
H675 C683 0.949 . S
H676 C684 0.950 . S
H677 C685 0.951 . S
H678 C686 0.951 . S
C679 C673 1.265 . S
C679 H674 0.950 . S
C679 C680 1.478 . S
C680 C667 1.394 1_455 S
C680 C679 1.478 . S
C680 C681 1.397 . S
C681 C680 1.397 . S
C681 C682 1.438 . S
C681 C686 1.429 . S
C682 C665 1.394 . S
C682 C681 1.438 . S
C682 C683 1.428 . S
C683 H675 0.949 . S
C683 C682 1.428 . S
C683 C684 1.345 . S
C684 H676 0.950 . S
C684 C683 1.345 . S
C684 C685 1.424 . S
C685 H677 0.951 . S
C685 C684 1.424 . S
C685 C686 1.347 . S
C686 H678 0.951 . S
C686 C681 1.429 . S
C686 C685 1.347 . S
C148 C20 0.978 . S
C163 N136 1.029 . S
C178 C41 1.274 . S
C193 N109 1.255 . S
C208 C64 1.278 . S
C223 N122 1.253 . S
C238 C19 1.546 . S
C253 N135 1.554 . S
C283 N110 1.307 . S
C268 C44 1.322 . S
C313 N123 1.316 . S
C298 C67 1.327 . S
C328 C43 1.146 . S
C343 N83 1.221 . S
C358 C66 1.008 . S
C373 N97 0.982 1_655 S
C388 C21 1.297 . S
C403 N71 1.308 . S
C433 N84 1.309 . S
C418 C42 1.320 . S
C463 N96 1.562 . S
C448 C65 1.566 . S
C478 C18 1.266 . S
C493 N70 1.284 . S
C523 N100 1.524 . S
C508 C17 1.528 . S
C538 C39 1.554 . S
C553 N74 1.529 . S
C568 C62 1.527 . S
C583 N87 1.547 . S
C613 N126 1.514 . S
C598 C40 1.537 . S
C643 N139 1.526 . S
C628 C63 1.529 . S
C658 C16 1.536 . S
C673 N113 1.514 . S
