# Generated by pormake.
# Topology pyr, (3,6)-cn, num edge types: 1
# Building blocks:
#     Node 0, Type 0, BuildingBlock: ESEHIV_clean_linker_0, # of connection points: 3
#     Node 1, Type 0, BuildingBlock: ESEHIV_clean_linker_0, # of connection points: 3
#     Node 2, Type 0, BuildingBlock: ESEHIV_clean_linker_0, # of connection points: 3
#     Node 3, Type 0, BuildingBlock: ESEHIV_clean_linker_0, # of connection points: 3
#     Node 4, Type 0, BuildingBlock: ESEHIV_clean_linker_0, # of connection points: 3
#     Node 5, Type 0, BuildingBlock: ESEHIV_clean_linker_0, # of connection points: 3
#     Node 6, Type 0, BuildingBlock: ESEHIV_clean_linker_0, # of connection points: 3
#     Node 7, Type 0, BuildingBlock: ESEHIV_clean_linker_0, # of connection points: 3
#     Node 8, Type 1, BuildingBlock: JUFBIX_clean_sbu_0, # of connection points: 6
#     Node 9, Type 1, BuildingBlock: JUFBIX_clean_sbu_0, # of connection points: 6
#     Node 10, Type 1, BuildingBlock: JUFBIX_clean_sbu_0, # of connection points: 6
#     Node 11, Type 1, BuildingBlock: JUFBIX_clean_sbu_0, # of connection points: 6
#     Edge 12, Type (0, 1), BuildingBlock: EZIPEK_clean_linker_0, # of connection points: 2
#     Edge 13, Type (0, 1), BuildingBlock: EZIPEK_clean_linker_0, # of connection points: 2
#     Edge 14, Type (0, 1), BuildingBlock: EZIPEK_clean_linker_0, # of connection points: 2
#     Edge 15, Type (0, 1), BuildingBlock: EZIPEK_clean_linker_0, # of connection points: 2
#     Edge 16, Type (0, 1), BuildingBlock: EZIPEK_clean_linker_0, # of connection points: 2
#     Edge 17, Type (0, 1), BuildingBlock: EZIPEK_clean_linker_0, # of connection points: 2
#     Edge 18, Type (0, 1), BuildingBlock: EZIPEK_clean_linker_0, # of connection points: 2
#     Edge 19, Type (0, 1), BuildingBlock: EZIPEK_clean_linker_0, # of connection points: 2
#     Edge 20, Type (0, 1), BuildingBlock: EZIPEK_clean_linker_0, # of connection points: 2
#     Edge 21, Type (0, 1), BuildingBlock: EZIPEK_clean_linker_0, # of connection points: 2
#     Edge 22, Type (0, 1), BuildingBlock: EZIPEK_clean_linker_0, # of connection points: 2
#     Edge 23, Type (0, 1), BuildingBlock: EZIPEK_clean_linker_0, # of connection points: 2
#     Edge 24, Type (0, 1), BuildingBlock: EZIPEK_clean_linker_0, # of connection points: 2
#     Edge 25, Type (0, 1), BuildingBlock: EZIPEK_clean_linker_0, # of connection points: 2
#     Edge 26, Type (0, 1), BuildingBlock: EZIPEK_clean_linker_0, # of connection points: 2
#     Edge 27, Type (0, 1), BuildingBlock: EZIPEK_clean_linker_0, # of connection points: 2
#     Edge 28, Type (0, 1), BuildingBlock: EZIPEK_clean_linker_0, # of connection points: 2
#     Edge 29, Type (0, 1), BuildingBlock: EZIPEK_clean_linker_0, # of connection points: 2
#     Edge 30, Type (0, 1), BuildingBlock: EZIPEK_clean_linker_0, # of connection points: 2
#     Edge 31, Type (0, 1), BuildingBlock: EZIPEK_clean_linker_0, # of connection points: 2
#     Edge 32, Type (0, 1), BuildingBlock: EZIPEK_clean_linker_0, # of connection points: 2
#     Edge 33, Type (0, 1), BuildingBlock: EZIPEK_clean_linker_0, # of connection points: 2
#     Edge 34, Type (0, 1), BuildingBlock: EZIPEK_clean_linker_0, # of connection points: 2
#     Edge 35, Type (0, 1), BuildingBlock: EZIPEK_clean_linker_0, # of connection points: 2
# Relax obj value: 0.113
# Max RMSD: 0.115
# Mean RMSD: 0.044
data_MOF--net-pry--node1-JUFBIX_clean_sbu_0--node2-ESEHIV_clean_linker_0--edge1-EZIPEK_clean_linker_0
_symmetry_space_group_name_H-M    P1
_symmetry_Int_Tables_number       1
_symmetry_cell_setting            triclinic
loop_
_symmetry_equiv_pos_as_xyz
'x, y, z'
_cell_length_a     25.236741
_cell_length_b     23.852799
_cell_length_c     25.310565
_cell_angle_alpha  81.119348
_cell_angle_beta   90.195141
_cell_angle_gamma 91.067846
loop_
_atom_site_label
_atom_site_type_symbol
_atom_site_fract_x
_atom_site_fract_y
_atom_site_fract_z
_atom_type_partial_charge
H0 H 0.12686 0.19757 0.22375 0.0
H1 H 0.24663 0.07027 0.23043 0.0
H2 H 0.24448 0.21004 0.09953 0.0
C3 C 0.16128 0.18066 0.20656 0.0
C4 C 0.18238 0.20944 0.15841 0.0
C5 C 0.18374 0.13054 0.233 0.0
C6 C 0.22891 0.10876 0.21025 0.0
C7 C 0.25164 0.13719 0.16183 0.0
C8 C 0.22769 0.18762 0.13633 0.0
H9 H 0.4347 0.98297 0.62222 0.0
H10 H 0.53103 0.83668 0.6537 0.0
H11 H 0.442 0.87302 0.50713 0.0
C12 C 0.45406 0.94798 0.60776 0.0
C13 C 0.43407 0.92892 0.56247 0.0
C14 C 0.487 0.91309 0.64225 0.0
C15 C 0.50945 0.86572 0.62468 0.0
C16 C 0.49955 0.85317 0.57231 0.0
C17 C 0.4599 0.88554 0.54212 0.0
H18 H 0.74618 0.31054 0.96273 0.0
H19 H 0.74613 0.46057 0.84233 0.0
H20 H 0.62762 0.32933 0.83928 0.0
C21 C 0.7291 0.33558 0.92765 0.0
C22 C 0.68304 0.31491 0.90461 0.0
C23 C 0.75275 0.38857 0.90597 0.0
C24 C 0.72914 0.41991 0.85982 0.0
C25 C 0.68489 0.39792 0.83482 0.0
C26 C 0.66209 0.3459 0.85788 0.0
H27 H 0.96359 0.68073 0.54807 0.0
H28 H 0.05854 0.66404 0.41115 0.0
H29 H 0.9366 0.54024 0.4647 0.0
C30 C 0.97673 0.65497 0.51901 0.0
C31 C 0.94454 0.60986 0.50852 0.0
C32 C 1.0184 0.67466 0.48396 0.0
C33 C 1.03011 0.64552 0.44114 0.0
C34 C 0.99958 0.59751 0.43307 0.0
C35 C 0.96127 0.57624 0.47138 0.0
H36 H 0.81382 0.95608 0.83515 0.0
H37 H 0.94304 0.83782 0.84576 0.0
H38 H 0.81941 0.81682 0.96279 0.0
C39 C 0.83616 0.92112 0.85477 0.0
C40 C 0.81257 0.89041 0.90179 0.0
C41 C 0.88593 0.90544 0.83444 0.0
C42 C 0.90775 0.85444 0.86132 0.0
C43 C 0.88507 0.82261 0.90757 0.0
C44 C 0.83726 0.84092 0.92728 0.0
H45 H 0.50604 0.18933 0.41542 0.0
H46 H 0.63071 0.07169 0.40216 0.0
H47 H 0.64418 0.18562 0.51657 0.0
C48 C 0.5429 0.16984 0.42969 0.0
C49 C 0.57246 0.19217 0.46919 0.0
C50 C 0.56455 0.12717 0.40429 0.0
C51 C 0.61281 0.10351 0.42249 0.0
C52 C 0.64071 0.12327 0.46361 0.0
C53 C 0.62041 0.16731 0.48756 0.0
H54 H 0.3243 0.70097 0.1111 0.0
H55 H 0.3137 0.56966 0.24876 0.0
H56 H 0.44734 0.68675 0.22942 0.0
C57 C 0.34089 0.67908 0.148 0.0
C58 C 0.38839 0.69952 0.16778 0.0
C59 C 0.31437 0.63096 0.17584 0.0
C60 C 0.33517 0.60491 0.22577 0.0
C61 C 0.38363 0.62473 0.2459 0.0
C62 C 0.41035 0.67081 0.21499 0.0
H63 H 0.05518 0.3047 0.70101 0.0
H64 H 0.15831 0.23932 0.59036 0.0
H65 H 0.22254 0.34008 0.70235 0.0
C66 C 0.09465 0.2988 0.68627 0.0
C67 C 0.13875 0.32354 0.70831 0.0
C68 C 0.10187 0.26621 0.64519 0.0
C69 C 0.15274 0.26212 0.62377 0.0
C70 C 0.19555 0.29127 0.64243 0.0
C71 C 0.18907 0.31807 0.68722 0.0
Co72 Co 0.99322 0.00572 0.50953 0.0
C73 C 0.04637 0.90389 0.51568 0.0
Co74 Co 0.07059 0.00627 0.54754 0.0
C75 C 0.88457 0.03107 0.49384 0.0
C76 C 0.90893 0.97407 0.44141 0.0
N77 N 0.92686 1.00316 0.47984 0.0
N78 N 0.84121 0.02039 0.46625 0.0
C79 C 0.85578 0.98478 0.43285 0.0
H80 H 0.88535 0.05975 0.52303 0.0
H81 H 0.93296 0.94737 0.42062 0.0
C82 C 1.01833 0.10685 0.54342 0.0
N83 N 0.13735 0.00942 0.57575 0.0
C84 C 0.18045 0.98995 0.5538 0.0
C85 C 0.15602 0.0351 0.61616 0.0
N86 N 0.22516 1.00265 0.5784 0.0
C87 C 0.21052 0.03065 0.61808 0.0
C88 C 0.0732 0.0418 0.43477 0.0
O89 O 0.98105 0.08096 0.52324 0.0
O90 O 0.06183 0.08232 0.55454 0.0
O91 O 0.10099 0.02896 0.47679 0.0
O92 O 1.023 0.03664 0.43966 0.0
O93 O 0.08035 0.92894 0.54108 0.0
H94 H 0.13173 0.05631 0.64186 0.0
H95 H 0.17925 0.96684 0.52019 0.0
O96 O 1.00576 0.93064 0.49669 0.0
O97 O 0.96324 0.97524 0.57932 0.0
O98 O 0.03888 0.98455 0.61867 0.0
C99 C 0.98931 0.97228 0.62281 0.0
H100 H 0.83024 0.96898 0.4038 0.0
H101 H 0.23718 0.046 0.64647 0.0
Co102 Co 0.51032 0.00606 0.99566 0.0
C103 C 0.49622 0.91046 0.07738 0.0
Co104 Co 0.55163 0.01095 0.07094 0.0
C105 C 0.49502 0.99581 0.88442 0.0
C106 C 0.43051 0.96199 0.93508 0.0
N107 N 0.47567 0.99318 0.93443 0.0
N108 N 0.46506 0.96469 0.85493 0.0
C109 C 0.42466 0.94334 0.88699 0.0
H110 H 0.5323 0.01646 0.8713 0.0
H111 H 0.40582 0.94928 0.96984 0.0
C112 C 0.56715 0.10623 0.98957 0.0
N113 N 0.58383 0.02113 0.13395 0.0
C114 C 0.55755 0.02027 0.18034 0.0
C115 C 0.63239 0.04258 0.14234 0.0
N116 N 0.58678 0.04231 0.21666 0.0
C117 C 0.63417 0.05608 0.19337 0.0
C118 C 0.61663 0.965 0.99881 0.0
O119 O 0.53546 0.07974 0.96233 0.0
O120 O 0.57782 0.08453 0.03752 0.0
O121 O 0.61551 0.97671 0.04645 0.0
O122 O 0.5746 0.97345 0.97075 0.0
O123 O 0.52622 0.93815 0.10463 0.0
H124 H 0.66252 0.05268 0.1119 0.0
H125 H 0.51599 0.00895 0.1859 0.0
O126 O 0.48594 0.93165 1.02947 0.0
O127 O 0.44584 0.03965 1.02029 0.0
O128 O 0.48736 0.04509 0.09468 0.0
C129 C 0.44513 0.05311 0.06716 0.0
H130 H 0.39394 0.91452 0.87682 0.0
H131 H 0.66574 0.07917 0.21016 0.0
Co132 Co 0.5759 0.52729 0.52216 0.0
C133 C 0.49232 0.54567 0.44905 0.0
Co134 Co 0.4988 0.50729 0.56022 0.0
C135 C 0.68245 0.56608 0.5195 0.0
C136 C 0.66255 0.53203 0.44819 0.0
N137 N 0.64169 0.54502 0.49371 0.0
N138 N 0.72792 0.56564 0.49245 0.0
C139 C 0.71602 0.54489 0.4473 0.0
H140 H 0.67943 0.57954 0.5583 0.0
H141 H 0.64083 0.51208 0.41897 0.0
C142 C 0.58197 0.48757 0.63296 0.0
N143 N 0.4341 0.48701 0.58975 0.0
C144 C 0.4001 0.45091 0.5707 0.0
C145 C 0.4151 0.49318 0.63825 0.0
N146 N 0.36153 0.43313 0.60576 0.0
C147 C 0.37019 0.45948 0.6484 0.0
C148 C 0.5461 0.41673 0.52197 0.0
O149 O 0.60852 0.50579 0.59116 0.0
O150 O 0.5318 0.48472 0.62917 0.0
O151 O 0.50564 0.43199 0.54505 0.0
O152 O 0.5832 0.45245 0.50848 0.0
O153 O 0.46546 0.52938 0.49128 0.0
H154 H 0.43474 0.51711 0.66586 0.0
H155 H 0.40562 0.4345 0.53355 0.0
O156 O 0.5427 0.54834 0.4527 0.0
O157 O 0.56897 0.60268 0.53551 0.0
O158 O 0.49203 0.58292 0.57498 0.0
C159 C 0.52879 0.61862 0.5589 0.0
H160 H 0.74426 0.53805 0.41692 0.0
H161 H 0.34754 0.45223 0.68515 0.0
Co162 Co 0.0554 0.51589 0.99767 0.0
C163 C 0.94767 0.47503 1.00111 0.0
Co164 Co 1.01456 0.51853 0.07328 0.0
C165 C 0.11343 0.47245 0.91348 0.0
C166 C 0.06062 0.53939 0.88491 0.0
N167 N 0.08304 0.51243 0.9302 0.0
N168 N 0.10906 0.47313 0.86019 0.0
C169 C 0.07676 0.51582 0.84218 0.0
H170 H 0.13335 0.43951 0.94003 0.0
H171 H 1.02868 0.56873 0.88308 0.0
C172 C 0.12198 0.55803 0.07055 0.0
N173 N 0.98319 0.52394 0.13765 0.0
C174 C 1.00428 0.51466 0.18728 0.0
C175 C 0.93885 0.55339 0.14225 0.0
N176 N 0.9762 0.54005 0.22195 0.0
C177 C 0.93506 0.56427 0.19351 0.0
C178 C 0.07036 0.41749 0.07177 0.0
O179 O 0.12072 0.54847 1.02218 0.0
O180 O 0.07992 0.54892 0.0985 0.0
O181 O 0.03906 0.44219 0.10005 0.0
O182 O 0.08143 0.44173 1.02464 0.0
O183 O 0.94892 0.48842 0.04787 0.0
H184 H 0.9131 0.56981 0.10946 0.0
H185 H 0.04121 0.49303 0.19689 0.0
O186 O 0.99028 0.48217 0.97393 0.0
O187 O 1.02981 0.59155 0.97171 0.0
O188 O 0.99088 0.59469 0.04673 0.0
C189 C 1.00235 0.61941 1.00011 0.0
H190 H 0.06169 0.5253 0.80172 0.0
H191 H 0.90523 0.58988 0.20845 0.0
C192 C 0.17576 0.11779 0.33413 0.0
C193 C 0.15851 0.10238 0.28483 0.0
C194 C 0.08508 0.04567 0.33282 0.0
C195 C 0.10006 0.06467 0.38178 0.0
N196 N 0.15169 0.13207 0.42364 0.0
N197 N 0.09261 0.05749 0.23579 0.0
C198 C 0.1435 0.10408 0.38097 0.0
C199 C 0.11199 0.06792 0.28391 0.0
N200 N 0.22314 0.14601 0.3363 0.0
N201 N 0.0463 0.00493 0.33276 0.0
H202 H 0.11264 0.06996 0.19977 0.0
H203 H 0.05527 0.03964 0.23101 0.0
H204 H 1.02347 0.98911 0.36598 0.0
H205 H 0.03888 0.98375 0.30042 0.0
H206 H 0.24093 0.15284 0.37202 0.0
H207 H 0.24704 0.15804 0.30276 0.0
H208 H 0.17933 0.16504 0.42357 0.0
H209 H 0.12654 0.12756 0.45667 0.0
C210 C 0.53075 0.92837 0.73008 0.0
C211 C 0.48486 0.91915 0.6999 0.0
C212 C 0.42968 0.95077 0.76747 0.0
C213 C 0.47389 0.95269 0.80151 0.0
N214 N 0.5652 0.92585 0.81965 0.0
N215 N 0.39046 0.89902 0.70277 0.0
C216 C 0.52444 0.93671 0.78427 0.0
C217 C 0.43419 0.92275 0.72298 0.0
N218 N 0.5798 0.93031 0.70732 0.0
N219 N 0.3839 0.97739 0.77631 0.0
H220 H 0.39325 0.87374 0.67279 0.0
H221 H 0.35315 0.89873 0.72046 0.0
H222 H 0.38083 1.00325 0.80581 0.0
H223 H 0.35185 0.97944 0.74996 0.0
H224 H 0.61385 0.942 0.7267 0.0
H225 H 0.58569 0.92478 0.6677 0.0
H226 H 0.60136 0.91017 0.80924 0.0
H227 H 0.56071 0.92553 0.86053 0.0
C228 C 0.67903 0.40895 0.73434 0.0
C229 C 0.66288 0.42691 0.78263 0.0
C230 C 0.59786 0.49006 0.73185 0.0
C231 C 0.60985 0.46711 0.68469 0.0
N232 N 0.65585 0.39698 0.64372 0.0
N233 N 0.60334 0.48034 0.82882 0.0
C234 C 0.64918 0.42479 0.68655 0.0
C235 C 0.62134 0.46645 0.78174 0.0
N236 N 0.72326 0.37677 0.73411 0.0
N237 N 0.56559 0.53584 0.72869 0.0
H238 H 0.62087 0.46565 0.86563 0.0
H239 H 0.56915 0.50341 0.83182 0.0
H240 H 0.54815 0.55461 0.69306 0.0
H241 H 0.55972 0.55834 0.76025 0.0
H242 H 0.74061 0.36755 0.69925 0.0
H243 H 0.74554 0.36358 0.76843 0.0
H244 H 0.6796 0.3616 0.64473 0.0
H245 H 0.63362 0.40537 0.60871 0.0
C246 C 0.0429 0.56908 0.35003 0.0
C247 C 0.9968 0.57858 0.37931 0.0
C248 C 0.94317 0.5414 0.31217 0.0
C249 C 0.98678 0.54463 0.27723 0.0
N250 N 0.07841 0.57546 0.26075 0.0
N251 N 0.902 0.59548 0.37176 0.0
C252 C 0.03724 0.56178 0.2954 0.0
C253 C 0.94633 0.57064 0.35601 0.0
N254 N 0.09152 0.5665 0.37384 0.0
N255 N 0.89799 0.51252 0.30234 0.0
H256 H 0.90369 0.62592 0.39711 0.0
H257 H 0.86531 0.5922 0.3532 0.0
H258 H 0.89555 0.48833 0.27135 0.0
H259 H 0.86594 0.50786 0.32872 0.0
H260 H 0.12548 0.55576 0.35456 0.0
H261 H 0.09663 0.56898 0.41433 0.0
H262 H 0.11428 0.59226 0.27238 0.0
H263 H 0.0749 0.57676 0.21963 0.0
C264 C 0.35221 0.13737 0.1484 0.0
C265 C 0.3012 0.11505 0.1381 0.0
C266 C 0.34449 0.04862 0.08591 0.0
C267 C 0.39521 0.07508 0.09112 0.0
N268 N 0.44463 0.15134 0.12263 0.0
N269 N 0.2484 0.05452 0.0903 0.0
C270 C 0.39825 0.1211 0.12137 0.0
C271 C 0.29738 0.07228 0.10476 0.0
N272 N 0.35701 0.17347 0.18524 0.0
N273 N 0.34128 0.99846 0.0662 0.0
H274 H 0.21333 0.06942 0.10434 0.0
H275 H 0.24254 0.02863 0.06113 0.0
H276 H 0.37427 0.97771 0.05477 0.0
H277 H 0.30662 0.97399 0.06685 0.0
H278 H 0.3933 0.18589 0.19984 0.0
H279 H 0.32451 0.18733 0.20473 0.0
H280 H 0.44785 0.18919 0.1382 0.0
H281 H 0.4792 0.14175 0.10398 0.0
C282 C 0.33771 0.90446 0.57192 0.0
C283 C 0.37803 0.94324 0.54896 0.0
C284 C 0.31305 0.0194 0.5362 0.0
C285 C 0.2767 0.983 0.56784 0.0
N286 N 0.25461 0.89307 0.62021 0.0
N287 N 0.40443 0.03723 0.50776 0.0
C288 C 0.28889 0.92595 0.58639 0.0
C289 C 0.36545 1.00057 0.52977 0.0
N290 N 0.34588 0.84727 0.5808 0.0
N291 N 0.29709 0.07167 0.51247 0.0
H292 H 0.44248 0.02354 0.50099 0.0
H293 H 0.39981 0.0809 0.49829 0.0
H294 H 0.25902 0.08629 0.51769 0.0
H295 H 0.31999 0.09868 0.48498 0.0
H296 H 0.31576 0.81745 0.59214 0.0
H297 H 0.38083 0.82847 0.57199 0.0
H298 H 0.264 0.85321 0.64072 0.0
H299 H 0.21836 0.90773 0.63165 0.0
C300 C 0.80668 0.41081 0.98709 0.0
C301 C 0.80257 0.41068 0.9309 0.0
C302 C 0.88826 0.46249 0.92102 0.0
C303 C 0.89707 0.4531 0.97744 0.0
N304 N 0.8665 0.40196 0.06258 0.0
N305 N 0.85054 0.42235 0.84711 0.0
C306 C 0.85682 0.42256 1.01016 0.0
C307 C 0.84673 0.43218 0.89865 0.0
N308 N 0.76264 0.40216 1.01864 0.0
N309 N 0.91681 0.50297 0.8885 0.0
H310 H 0.82349 0.39666 0.83024 0.0
H311 H 0.88412 0.43395 0.82375 0.0
H312 H 0.94178 0.5321 0.90332 0.0
H313 H 0.9092 0.51311 0.84764 0.0
H314 H 0.76325 0.40644 0.05903 0.0
H315 H 0.72469 0.39774 1.00322 0.0
H316 H 0.83933 0.37601 0.08636 0.0
H317 H 0.90366 0.40403 0.08024 0.0
C318 C 0.85281 0.64959 0.49359 0.0
C319 C 0.88704 0.60768 0.52138 0.0
C320 C 0.81186 0.54142 0.53972 0.0
C321 C 0.7793 0.58193 0.50931 0.0
N322 N 0.76247 0.67862 0.47315 0.0
N323 N 0.89695 0.52157 0.58338 0.0
C324 C 0.79779 0.63761 0.49211 0.0
C325 C 0.86546 0.55627 0.54918 0.0
N326 N 0.87265 0.69834 0.46413 0.0
N327 N 0.79187 0.48826 0.55731 0.0
H328 H 0.93629 0.53247 0.59062 0.0
H329 H 0.88318 0.48503 0.60769 0.0
H330 H 0.75227 0.4772 0.55165 0.0
H331 H 0.81468 0.45466 0.57525 0.0
H332 H 0.84997 0.72537 0.43717 0.0
H333 H 0.91221 0.71083 0.46292 0.0
H334 H 0.77242 0.72169 0.46532 0.0
H335 H 0.72198 0.67 0.47015 0.0
C336 C 0.16677 0.31466 0.15373 0.0
C337 C 0.15657 0.26357 0.1328 0.0
C338 C 0.09101 0.3136 0.07046 0.0
C339 C 0.09801 0.36349 0.09448 0.0
N340 N 0.13994 0.41005 0.16239 0.0
N341 N 0.10527 0.21223 0.07513 0.0
C342 C 0.13502 0.36343 0.13724 0.0
C343 C 0.11786 0.26261 0.09196 0.0
N344 N 0.20828 0.31702 0.18826 0.0
N345 N 0.05857 0.31493 1.02692 0.0
H346 H 0.12501 0.17469 0.08872 0.0
H347 H 0.0733 0.20657 0.0503 0.0
H348 H 1.03504 0.3495 1.01268 0.0
H349 H 0.05683 0.28302 1.00315 0.0
H350 H 0.22218 0.35426 0.2006 0.0
H351 H 0.23212 0.2823 0.20122 0.0
H352 H 0.1608 0.41043 0.19788 0.0
H353 H 0.12075 0.44799 0.14968 0.0
C354 C 0.67185 0.20802 0.9167 0.0
C355 C 0.65505 0.26101 0.92906 0.0
C356 C 0.57894 0.21291 0.97927 0.0
C357 C 0.5947 0.16028 0.96524 0.0
N358 N 0.65093 0.10863 0.91374 0.0
N359 N 0.59101 0.31557 0.96865 0.0
C360 C 0.63973 0.15814 0.93199 0.0
C361 C 0.60816 0.26381 0.95959 0.0
N362 N 0.71906 0.20533 0.89093 0.0
N363 N 0.5357 0.21398 1.01142 0.0
H364 H 0.61278 0.35313 0.95755 0.0
H365 H 0.55443 0.32218 0.98521 0.0
H366 H 0.51059 0.17881 1.02147 0.0
H367 H 0.52509 0.24873 1.02906 0.0
H368 H 0.73697 0.16755 0.88597 0.0
H369 H 0.74264 0.24107 0.87767 0.0
H370 H 0.67976 0.10503 0.88524 0.0
H371 H 0.62855 0.07144 0.92408 0.0
C372 C 0.06339 0.74323 0.53539 0.0
C373 C 0.04037 0.73237 0.48668 0.0
C374 C 0.04542 0.83374 0.45289 0.0
C375 C 0.05443 0.84512 0.50532 0.0
N376 N 0.0712 0.80933 0.59855 0.0
N377 N 1.00165 0.77078 0.40074 0.0
C378 C 0.06438 0.79961 0.54719 0.0
C379 C 1.02997 0.77838 0.44529 0.0
N380 N 0.08328 0.69945 0.57056 0.0
N381 N 0.05209 0.87589 0.41038 0.0
H382 H 0.98568 0.73196 0.39412 0.0
H383 H 0.98916 0.80469 0.37271 0.0
H384 H 0.06733 0.9157 0.41531 0.0
H385 H 0.04942 0.86888 0.37079 0.0
H386 H 0.10443 0.70536 0.60476 0.0
H387 H 0.08319 0.65784 0.56243 0.0
H388 H 0.07239 0.7769 0.63119 0.0
H389 H 0.07183 0.84969 0.60924 0.0
C390 C 0.56197 0.76842 0.58499 0.0
C391 C 0.5204 0.79876 0.55617 0.0
C392 C 0.48736 0.71199 0.52738 0.0
C393 C 0.52364 0.67974 0.5619 0.0
N394 N 0.59719 0.67681 0.62336 0.0
N395 N 0.48325 0.80036 0.46839 0.0
C396 C 0.56219 0.70793 0.59007 0.0
C397 C 0.49335 0.7715 0.51803 0.0
N398 N 0.60358 0.79806 0.6024 0.0
N399 N 0.44781 0.68659 0.50224 0.0
H400 H 0.49871 0.84128 0.45636 0.0
H401 H 0.46704 0.78086 0.43773 0.0
H402 H 0.44179 0.64279 0.50684 0.0
H403 H 0.41897 0.71014 0.47945 0.0
H404 H 0.6376 0.77936 0.61989 0.0
H405 H 0.60606 0.84229 0.59366 0.0
H406 H 0.62278 0.69429 0.64902 0.0
H407 H 0.59788 0.63258 0.62827 0.0
C408 C 0.88976 0.97159 0.74135 0.0
C409 C 0.91522 0.93655 0.78388 0.0
C410 C 0.99135 0.93142 0.72307 0.0
C411 C 0.96213 0.958 0.6778 0.0
N412 N 0.87622 0.99695 0.64692 0.0
N413 N 1.00327 0.92151 0.81899 0.0
C414 C 0.90914 0.97557 0.68767 0.0
C415 C 0.97006 0.92765 0.77589 0.0
N416 N 0.85503 0.01103 0.75288 0.0
N417 N 0.03795 0.9053 0.71609 0.0
H418 H 0.98975 0.92491 0.8573 0.0
H419 H 0.04439 0.92067 0.81556 0.0
H420 H 0.05305 0.90132 0.67871 0.0
H421 H 0.05788 0.88093 0.74746 0.0
H422 H 0.83737 0.04054 0.72375 0.0
H423 H 0.85436 0.02297 0.79078 0.0
H424 H 0.83593 1.00267 0.653 0.0
H425 H 0.88682 0.00576 0.60711 0.0
C426 C 0.55048 0.14714 0.30504 0.0
C427 C 0.54307 0.11011 0.35423 0.0
C428 C 0.55149 0.02745 0.30869 0.0
C429 C 0.56542 0.06444 0.2615 0.0
N430 N 0.55708 0.15648 0.20849 0.0
N431 N 0.51691 0.01797 0.39927 0.0
C432 C 0.55784 0.12347 0.25764 0.0
C433 C 0.53574 0.05106 0.35422 0.0
N434 N 0.55426 0.20445 0.30389 0.0
N435 N 0.55653 0.97029 0.31064 0.0
H436 H 0.5067 0.03561 0.43301 0.0
H437 H 0.50757 0.97495 0.40169 0.0
H438 H 0.56834 0.95239 0.27757 0.0
H439 H 0.55172 0.941 0.34536 0.0
H440 H 0.5683 0.23245 0.27104 0.0
H441 H 0.54387 0.22427 0.33598 0.0
H442 H 0.54664 0.19903 0.20245 0.0
H443 H 0.56162 0.13973 0.1731 0.0
C444 C 0.42272 0.64017 0.33518 0.0
C445 C 0.40655 0.60143 0.30037 0.0
C446 C 0.44089 0.52394 0.36735 0.0
C447 C 0.46449 0.56417 0.39678 0.0
N448 N 0.48823 0.66214 0.39907 0.0
N449 N 0.41069 0.5057 0.28032 0.0
C450 C 0.45872 0.62272 0.37766 0.0
C451 C 0.41816 0.54287 0.31574 0.0
N452 N 0.40206 0.69328 0.32917 0.0
N453 N 0.44025 0.46766 0.38834 0.0
H454 H 0.39691 0.518 0.2415 0.0
H455 H 0.42329 0.46386 0.28769 0.0
H456 H 0.45702 0.45231 0.42535 0.0
H457 H 0.41924 0.43712 0.37104 0.0
H458 H 0.40956 0.72143 0.35612 0.0
H459 H 0.37253 0.70632 0.30127 0.0
H460 H 0.48902 0.70502 0.38266 0.0
H461 H 0.51554 0.65132 0.42979 0.0
C462 C 0.11236 0.33798 0.80096 0.0
C463 C 0.13276 0.36045 0.74978 0.0
C464 C 0.15266 0.45034 0.78092 0.0
C465 C 0.12428 0.43131 0.82839 0.0
N466 N 0.06742 0.35982 0.87911 0.0
N467 N 0.16198 0.44265 0.68757 0.0
C468 C 0.10175 0.37565 0.83768 0.0
C469 C 0.15036 0.41797 0.73873 0.0
N470 N 0.10405 0.28088 0.81495 0.0
N471 N 0.18096 0.50018 0.77614 0.0
H472 H 0.15737 0.42154 0.65466 0.0
H473 H 0.1706 0.48582 0.6771 0.0
H474 H 0.18325 0.52434 0.80717 0.0
H475 H 0.2061 0.51414 0.74402 0.0
H476 H 0.09385 0.26216 0.85363 0.0
H477 H 0.1125 0.2518 0.78946 0.0
H478 H 0.04598 0.3216 0.88399 0.0
H479 H 0.05628 0.38671 0.90563 0.0
C480 C 0.76469 0.95236 0.95992 0.0
C481 C 0.76213 0.91049 0.92553 0.0
C482 C 0.66557 0.89987 0.94351 0.0
C483 C 0.66716 0.9453 0.97442 0.0
N484 N 0.71853 0.02313 1.00063 0.0
N485 N 0.70816 0.85098 0.87782 0.0
C486 C 0.71691 0.97361 0.9797 0.0
C487 C 0.71192 0.88629 0.9154 0.0
N488 N 0.8131 0.97139 0.97469 0.0
N489 N 0.62038 0.86757 0.94279 0.0
H490 H 0.74103 0.8394 0.85734 0.0
H491 H 0.67221 0.83712 0.86366 0.0
H492 H 0.58573 0.87541 0.9623 0.0
H493 H 0.61842 0.83006 0.92654 0.0
H494 H 0.81809 0.9965 1.00462 0.0
H495 H 0.84869 0.95825 0.96016 0.0
H496 H 0.75234 0.04892 1.00001 0.0
H497 H 0.68496 0.04206 1.01322 0.0
C498 C 0.70285 0.04968 0.50651 0.0
C499 C 0.69512 0.10283 0.47396 0.0
C500 C 0.78406 0.10092 0.43642 0.0
C501 C 0.79156 0.04775 0.46853 0.0
N502 N 0.76446 0.97558 0.54061 0.0
N503 N 0.73043 0.18473 0.41603 0.0
C504 C 0.75282 0.02342 0.50578 0.0
C505 C 0.73664 0.13043 0.44166 0.0
N506 N 0.66175 0.02371 0.53642 0.0
N507 N 0.82199 0.12208 0.39991 0.0
H508 H 0.69594 0.2074 0.41873 0.0
H509 H 0.76063 0.20922 0.39563 0.0
H510 H 0.85768 0.10168 0.39619 0.0
H511 H 0.81714 0.15773 0.37108 0.0
H512 H 0.66258 0.98218 0.55637 0.0
H513 H 0.62557 0.04342 0.53967 0.0
H514 H 0.74017 0.9583 0.57235 0.0
H515 H 0.80046 0.95493 0.53956 0.0
C516 C 0.2663 0.56353 0.12211 0.0
C517 C 0.26435 0.60939 0.1519 0.0
C518 C 0.17155 0.62568 0.12261 0.0
C519 C 0.17214 0.57719 0.09605 0.0
N520 N 0.21793 0.49353 0.07972 0.0
N521 N 0.21228 0.67803 0.18788 0.0
C522 C 0.21903 0.54445 0.09818 0.0
C523 C 0.21601 0.63855 0.15433 0.0
N524 N 0.31382 0.53899 0.11537 0.0
N525 N 0.12936 0.6612 0.11547 0.0
H526 H 0.24397 0.68871 0.21122 0.0
H527 H 0.17677 0.69639 0.19624 0.0
H528 H 0.09712 0.65447 0.0912 0.0
H529 H 0.12853 0.70016 0.12913 0.0
H530 H 0.31937 0.51027 0.08889 0.0
H531 H 0.34878 0.55043 0.13341 0.0
H532 H 0.24853 0.46456 0.086 0.0
H533 H 0.18455 0.47761 0.0623 0.0
C534 C 0.2929 0.29189 0.63682 0.0
C535 C 0.24427 0.30559 0.61068 0.0
C536 C 0.27954 0.39748 0.56954 0.0
C537 C 0.32499 0.38746 0.60197 0.0
N538 N 0.38377 0.3211 0.65224 0.0
N539 N 0.20086 0.35709 0.53394 0.0
C540 C 0.33485 0.33283 0.63064 0.0
C541 C 0.24124 0.35339 0.57017 0.0
N542 N 0.29647 0.24182 0.67081 0.0
N543 N 0.27181 0.45004 0.54085 0.0
H544 H 0.17374 0.32389 0.5328 0.0
H545 H 0.198 0.38964 0.50158 0.0
H546 H 0.29964 0.48308 0.53984 0.0
H547 H 0.23668 0.46188 0.52085 0.0
H548 H 0.32864 0.23079 0.69584 0.0
H549 H 0.26562 0.21164 0.67408 0.0
H550 H 0.39475 0.28107 0.671 0.0
H551 H 0.41476 0.35103 0.64788 0.0
C552 C 0.929 0.729 0.90296 0.0
C553 C 0.91305 0.77001 0.93442 0.0
C554 C 0.95988 0.71505 1.01125 0.0
C555 C 0.97903 0.67683 0.97757 0.0
N556 N 1.00386 0.67434 0.88569 0.0
N557 N 0.92582 0.80882 1.01635 0.0
C558 C 0.96996 0.69114 0.92168 0.0
C559 C 0.93156 0.76476 0.98826 0.0
N560 N 0.90575 0.72633 0.85465 0.0
N561 N 0.97096 0.70612 0.06468 0.0
H562 H 0.908 0.84678 1.00052 0.0
H563 H 0.94331 0.81009 0.05348 0.0
H564 H 1.00003 0.67853 0.08161 0.0
H565 H 0.95121 0.72659 0.09213 0.0
H566 H 0.91445 0.69451 0.83214 0.0
H567 H 0.87407 0.75186 0.84031 0.0
H568 H 0.99928 0.68595 0.84449 0.0
H569 H 0.0414 0.65945 0.89692 0.0
C570 C 0.40168 0.80531 0.16143 0.0
C571 C 0.41377 0.75413 0.14212 0.0
C572 C 0.48424 0.80424 0.08552 0.0
C573 C 0.46982 0.85615 0.10197 0.0
N574 N 0.41172 0.90781 0.15177 0.0
N575 N 0.46146 0.70553 0.08117 0.0
C576 C 0.4278 0.85709 0.13909 0.0
C577 C 0.4535 0.75388 0.10263 0.0
N578 N 0.36585 0.80412 0.20205 0.0
N579 N 0.52908 0.80265 0.05574 0.0
H580 H 0.44039 0.66777 0.09362 0.0
H581 H 0.48582 0.70382 0.04838 0.0
H582 H 0.55355 0.83824 0.04505 0.0
H583 H 0.5449 0.76553 0.04614 0.0
H584 H 0.36023 0.8378 0.22299 0.0
H585 H 0.34337 0.76807 0.21703 0.0
H586 H 0.37725 0.91267 0.17292 0.0
H587 H 0.43116 0.94623 0.13829 0.0
C588 C 1.03039 0.1906 0.64927 0.0
C589 C 0.05678 0.23896 0.62071 0.0
C590 C 1.02999 0.21104 0.53563 0.0
C591 C 1.00967 0.15993 0.56427 0.0
N592 N 0.96843 0.11255 0.64424 0.0
N593 N 0.06246 0.30668 0.53983 0.0
C594 C 1.00143 0.15449 0.61987 0.0
C595 C 0.04918 0.25343 0.56471 0.0
N596 N 0.03689 0.17613 0.70321 0.0
N597 N 1.03438 0.21686 0.48135 0.0
H598 H 0.07626 0.33807 0.56129 0.0
H599 H 0.05531 0.32081 0.49946 0.0
H600 H 1.01899 0.18618 0.4599 0.0
H601 H 0.05447 0.25058 0.45837 0.0
H602 H 1.02351 0.13763 0.72452 0.0
H603 H 0.05829 0.20095 0.72645 0.0
H604 H 0.95814 0.10792 0.68454 0.0
H605 H 0.94714 0.08648 0.62194 0.0
C606 C 0.57499 0.2976 0.44426 0.0
C607 C 0.56073 0.24919 0.4818 0.0
C608 C 0.53925 0.31039 0.54763 0.0
C609 C 0.54893 0.35883 0.50821 0.0
N610 N 0.56211 0.39743 0.4149 0.0
N611 N 0.52098 0.20891 0.56572 0.0
C612 C 0.56261 0.35214 0.45527 0.0
C613 C 0.54 0.25543 0.53242 0.0
N614 N 0.60273 0.29193 0.39912 0.0
N615 N 0.53249 0.3165 0.60001 0.0
H616 H 0.52168 0.16808 0.55571 0.0
H617 H 0.5005 0.21144 0.60091 0.0
H618 H 0.53391 0.35568 0.61339 0.0
H619 H 0.53052 0.28236 0.63106 0.0
H620 H 0.61919 0.32636 0.37373 0.0
H621 H 0.61385 0.25288 0.38956 0.0
H622 H 0.56627 0.39328 0.37474 0.0
H623 H 0.55187 0.43819 0.42053 0.0
loop_
_geom_bond_atom_site_label_1
_geom_bond_atom_site_label_2
_geom_bond_distance
_geom_bond_site_symmetry_2
_ccdc_geom_bond_type
H0 C3 0.931 . S
H1 C6 0.928 . S
H2 C8 0.930 . S
C3 H0 0.931 . S
C3 C4 1.413 . S
C3 C5 1.360 . S
C4 C3 1.413 . S
C4 C8 1.429 . S
C5 C3 1.360 . S
C5 C6 1.372 . S
C6 H1 0.928 . S
C6 C5 1.372 . S
C6 C7 1.404 . S
C7 C6 1.404 . S
C7 C8 1.391 . S
C8 H2 0.930 . S
C8 C4 1.429 . S
C8 C7 1.391 . S
H9 C12 0.931 . S
H10 C15 0.928 . S
H11 C17 0.930 . S
C12 H9 0.931 . S
C12 C13 1.413 . S
C12 C14 1.360 . S
C13 C12 1.413 . S
C13 C17 1.429 . S
C14 C12 1.360 . S
C14 C15 1.372 . S
C15 H10 0.928 . S
C15 C14 1.372 . S
C15 C16 1.404 . S
C16 C15 1.404 . S
C16 C17 1.391 . S
C17 H11 0.930 . S
C17 C13 1.429 . S
C17 C16 1.391 . S
H18 C21 0.931 . S
H19 C24 0.928 . S
H20 C26 0.930 . S
C21 H18 0.931 . S
C21 C22 1.413 . S
C21 C23 1.360 . S
C22 C21 1.413 . S
C22 C26 1.429 . S
C23 C21 1.360 . S
C23 C24 1.372 . S
C24 H19 0.928 . S
C24 C23 1.372 . S
C24 C25 1.404 . S
C25 C24 1.404 . S
C25 C26 1.391 . S
C26 H20 0.930 . S
C26 C22 1.429 . S
C26 C25 1.391 . S
H27 C30 0.931 . S
H28 C33 0.928 . S
H29 C35 0.930 . S
C30 H27 0.931 . S
C30 C31 1.413 . S
C30 C32 1.360 . S
C31 C30 1.413 . S
C31 C35 1.429 . S
C32 C30 1.360 . S
C32 C33 1.372 . S
C33 H28 0.928 . S
C33 C32 1.372 . S
C33 C34 1.404 . S
C34 C33 1.404 . S
C34 C35 1.391 . S
C35 H29 0.930 . S
C35 C31 1.429 . S
C35 C34 1.391 . S
H36 C39 0.931 . S
H37 C42 0.928 . S
H38 C44 0.930 . S
C39 H36 0.931 . S
C39 C40 1.413 . S
C39 C41 1.360 . S
C40 C39 1.413 . S
C40 C44 1.429 . S
C41 C39 1.360 . S
C41 C42 1.372 . S
C42 H37 0.928 . S
C42 C41 1.372 . S
C42 C43 1.404 . S
C43 C42 1.404 . S
C43 C44 1.391 . S
C44 H38 0.930 . S
C44 C40 1.429 . S
C44 C43 1.391 . S
H45 C48 0.931 . S
H46 C51 0.928 . S
H47 C53 0.930 . S
C48 H45 0.931 . S
C48 C49 1.413 . S
C48 C50 1.360 . S
C49 C48 1.413 . S
C49 C53 1.429 . S
C50 C48 1.360 . S
C50 C51 1.372 . S
C51 H46 0.928 . S
C51 C50 1.372 . S
C51 C52 1.404 . S
C52 C51 1.404 . S
C52 C53 1.391 . S
C53 H47 0.930 . S
C53 C49 1.429 . S
C53 C52 1.391 . S
H54 C57 0.931 . S
H55 C60 0.928 . S
H56 C62 0.930 . S
C57 H54 0.931 . S
C57 C58 1.413 . S
C57 C59 1.360 . S
C58 C57 1.413 . S
C58 C62 1.429 . S
C59 C57 1.360 . S
C59 C60 1.372 . S
C60 H55 0.928 . S
C60 C59 1.372 . S
C60 C61 1.404 . S
C61 C60 1.404 . S
C61 C62 1.391 . S
C62 H56 0.930 . S
C62 C58 1.429 . S
C62 C61 1.391 . S
H63 C66 0.931 . S
H64 C69 0.928 . S
H65 C71 0.930 . S
C66 H63 0.931 . S
C66 C67 1.413 . S
C66 C68 1.360 . S
C67 C66 1.413 . S
C67 C71 1.429 . S
C68 C66 1.360 . S
C68 C69 1.372 . S
C69 H64 0.928 . S
C69 C68 1.372 . S
C69 C70 1.404 . S
C70 C69 1.404 . S
C70 C71 1.391 . S
C71 H65 0.930 . S
C71 C67 1.429 . S
C71 C70 1.391 . S
Co72 N77 2.057 . S
Co72 O89 2.021 . S
Co72 O92 2.062 . S
Co72 O96 2.117 1_545 S
Co72 O97 2.020 1_545 S
C73 O93 1.259 1_655 S
C73 O96 1.258 . S
Co74 N83 2.057 . S
Co74 O90 2.117 1_565 S
Co74 O91 2.020 1_565 S
Co74 O93 2.021 . S
Co74 O98 2.062 . S
C75 N77 1.316 . S
C75 N78 1.347 . S
C75 H80 0.931 . S
C76 N77 1.375 1_565 S
C76 C79 1.350 1_565 S
C76 H81 0.930 . S
N77 Co72 2.057 . S
N77 C75 1.316 . S
N77 C76 1.375 1_545 S
N78 C75 1.347 . S
N78 C79 1.373 . S
C79 C76 1.350 1_545 S
C79 N78 1.373 . S
C79 H100 0.931 1_545 S
H80 C75 0.931 . S
H81 C76 0.930 . S
C82 O89 1.259 1_455 S
C82 O90 1.258 . S
N83 Co74 2.057 . S
N83 C84 1.316 . S
N83 C85 1.375 1_565 S
C84 N83 1.316 . S
C84 N86 1.347 . S
C84 H95 0.931 . S
C85 N83 1.375 1_545 S
C85 C87 1.350 1_545 S
C85 H94 0.930 . S
N86 C84 1.347 . S
N86 C87 1.373 . S
C87 C85 1.350 1_565 S
C87 N86 1.373 . S
C87 H101 0.931 1_565 S
C88 O91 1.256 . S
C88 O92 1.255 1_455 S
O89 Co72 2.021 . S
O89 C82 1.259 1_655 S
O90 Co74 2.117 1_545 S
O90 C82 1.258 . S
O91 Co74 2.020 1_545 S
O91 C88 1.256 . S
O92 Co72 2.062 . S
O92 C88 1.255 1_655 S
O93 C73 1.259 1_455 S
O93 Co74 2.021 . S
H94 C85 0.930 . S
H95 C84 0.931 . S
O96 Co72 2.117 1_565 S
O96 C73 1.258 . S
O97 Co72 2.020 1_565 S
O97 C99 1.256 . S
O98 Co74 2.062 . S
O98 C99 1.255 1_455 S
C99 O97 1.256 . S
C99 O98 1.255 1_655 S
H100 C79 0.931 1_565 S
H101 C87 0.931 1_545 S
Co102 N107 2.057 . S
Co102 O119 2.021 1_565 S
Co102 O122 2.062 . S
Co102 O126 2.113 1_556 S
Co102 O127 2.020 1_565 S
C103 O123 1.259 . S
C103 O126 1.265 . S
Co104 N113 2.057 . S
Co104 O120 2.117 . S
Co104 O121 2.020 1_545 S
Co104 O123 2.021 1_545 S
Co104 O128 2.062 . S
C105 N107 1.316 . S
C105 N108 1.347 . S
C105 H110 0.931 1_565 S
C106 N107 1.375 . S
C106 C109 1.350 . S
C106 H111 0.930 . S
N107 Co102 2.057 . S
N107 C105 1.316 . S
N107 C106 1.375 . S
N108 C105 1.347 . S
N108 C109 1.373 . S
C109 C106 1.350 . S
C109 N108 1.373 . S
C109 H130 0.931 . S
H110 C105 0.931 1_545 S
H111 C106 0.930 . S
C112 O119 1.259 . S
C112 O120 1.258 1_556 S
N113 Co104 2.057 . S
N113 C114 1.316 . S
N113 C115 1.375 . S
C114 N113 1.316 . S
C114 N116 1.347 . S
C114 H125 0.931 1_545 S
C115 N113 1.375 . S
C115 C117 1.350 . S
C115 H124 0.930 . S
N116 C114 1.347 . S
N116 C117 1.373 . S
C117 C115 1.350 . S
C117 N116 1.373 . S
C117 H131 0.931 . S
C118 O121 1.256 1_556 S
C118 O122 1.255 . S
O119 Co102 2.021 1_545 S
O119 C112 1.259 . S
O120 Co104 2.117 . S
O120 C112 1.258 1_554 S
O121 Co104 2.020 1_565 S
O121 C118 1.256 1_554 S
O122 Co102 2.062 . S
O122 C118 1.255 . S
O123 C103 1.259 . S
O123 Co104 2.021 1_565 S
H124 C115 0.930 . S
H125 C114 0.931 1_565 S
O126 Co102 2.113 1_554 S
O126 C103 1.265 . S
O127 Co102 2.020 1_545 S
O127 C129 1.256 1_556 S
O128 Co104 2.062 . S
O128 C129 1.255 . S
C129 O127 1.256 1_554 S
C129 O128 1.255 . S
H130 C109 0.931 . S
H131 C117 0.931 . S
Co132 N137 2.057 . S
Co132 O149 2.021 . S
Co132 O152 2.062 . S
Co132 O156 2.117 . S
Co132 O157 2.020 . S
C133 O153 1.259 . S
C133 O156 1.258 . S
Co134 N143 2.057 . S
Co134 O150 2.117 . S
Co134 O151 2.020 . S
Co134 O153 2.021 . S
Co134 O158 2.062 . S
C135 N137 1.316 . S
C135 N138 1.347 . S
C135 H140 0.931 . S
C136 N137 1.375 . S
C136 C139 1.350 . S
C136 H141 0.930 . S
N137 Co132 2.057 . S
N137 C135 1.316 . S
N137 C136 1.375 . S
N138 C135 1.347 . S
N138 C139 1.373 . S
C139 C136 1.350 . S
C139 N138 1.373 . S
C139 H160 0.931 . S
H140 C135 0.931 . S
H141 C136 0.930 . S
C142 O149 1.259 . S
C142 O150 1.258 . S
N143 Co134 2.057 . S
N143 C144 1.316 . S
N143 C145 1.375 . S
C144 N143 1.316 . S
C144 N146 1.347 . S
C144 H155 0.931 . S
C145 N143 1.375 . S
C145 C147 1.350 . S
C145 H154 0.930 . S
N146 C144 1.347 . S
N146 C147 1.373 . S
C147 C145 1.350 . S
C147 N146 1.373 . S
C147 H161 0.931 . S
C148 O151 1.256 . S
C148 O152 1.255 . S
O149 Co132 2.021 . S
O149 C142 1.259 . S
O150 Co134 2.117 . S
O150 C142 1.258 . S
O151 Co134 2.020 . S
O151 C148 1.256 . S
O152 Co132 2.062 . S
O152 C148 1.255 . S
O153 C133 1.259 . S
O153 Co134 2.021 . S
H154 C145 0.930 . S
H155 C144 0.931 . S
O156 Co132 2.117 . S
O156 C133 1.258 . S
O157 Co132 2.020 . S
O157 C159 1.256 . S
O158 Co134 2.062 . S
O158 C159 1.255 . S
C159 O157 1.256 . S
C159 O158 1.255 . S
H160 C139 0.931 . S
H161 C147 0.931 . S
Co162 N167 2.057 . S
Co162 O179 2.021 . S
Co162 O182 2.062 . S
Co162 O186 2.117 1_455 S
Co162 O187 2.020 1_455 S
C163 O183 1.259 1_556 S
C163 O186 1.258 . S
Co164 N173 2.057 . S
Co164 O180 2.117 1_655 S
Co164 O181 2.020 1_655 S
Co164 O183 2.021 . S
Co164 O188 2.062 . S
C165 N167 1.316 . S
C165 N168 1.347 . S
C165 H170 0.931 . S
C166 N167 1.375 1_655 S
C166 C169 1.350 1_655 S
C166 H171 0.930 . S
N167 Co162 2.057 . S
N167 C165 1.316 . S
N167 C166 1.375 1_455 S
N168 C165 1.347 . S
N168 C169 1.373 . S
C169 C166 1.350 1_455 S
C169 N168 1.373 . S
C169 H190 0.931 1_455 S
H170 C165 0.931 . S
H171 C166 0.930 . S
C172 O179 1.259 1_554 S
C172 O180 1.258 . S
N173 Co164 2.057 . S
N173 C174 1.316 . S
N173 C175 1.375 1_655 S
C174 N173 1.316 . S
C174 N176 1.347 . S
C174 H185 0.931 . S
C175 N173 1.375 1_455 S
C175 C177 1.350 1_455 S
C175 H184 0.930 . S
N176 C174 1.347 . S
N176 C177 1.373 . S
C177 C175 1.350 1_655 S
C177 N176 1.373 . S
C177 H191 0.931 1_655 S
C178 O181 1.256 . S
C178 O182 1.255 1_554 S
O179 Co162 2.021 . S
O179 C172 1.259 1_556 S
O180 Co164 2.117 1_455 S
O180 C172 1.258 . S
O181 Co164 2.020 1_455 S
O181 C178 1.256 . S
O182 Co162 2.062 . S
O182 C178 1.255 1_556 S
O183 C163 1.259 1_554 S
O183 Co164 2.021 . S
H184 C175 0.930 . S
H185 C174 0.931 . S
O186 Co162 2.117 1_655 S
O186 C163 1.258 . S
O187 Co162 2.020 1_655 S
O187 C189 1.256 . S
O188 Co164 2.062 . S
O188 C189 1.255 1_554 S
C189 O187 1.256 . S
C189 O188 1.255 1_556 S
H190 C169 0.931 1_655 S
H191 C177 0.931 1_455 S
C192 C193 1.363 . S
C192 C198 1.379 . S
C192 N200 1.356 . S
C193 C192 1.363 . S
C193 C199 1.363 . S
C194 C195 1.363 . S
C194 C199 1.379 . S
C194 N201 1.356 1_545 S
C195 C194 1.363 . S
C195 C198 1.363 . S
N196 C198 1.356 . S
N196 H208 0.984 . S
N196 H209 0.985 . S
N197 C199 1.356 . S
N197 H202 0.984 . S
N197 H203 0.985 1_545 S
C198 C192 1.379 . S
C198 C195 1.363 . S
C198 N196 1.356 . S
C199 C193 1.363 . S
C199 C194 1.379 . S
C199 N197 1.356 . S
N200 C192 1.356 . S
N200 H206 0.984 . S
N200 H207 0.984 . S
N201 C194 1.356 1_565 S
N201 H204 0.984 1_455 S
N201 H205 0.985 1_455 S
H202 N197 0.984 . S
H203 N197 0.985 1_565 S
H204 N201 0.984 1_655 S
H205 N201 0.985 1_655 S
H206 N200 0.984 . S
H207 N200 0.984 . S
H208 N196 0.984 . S
H209 N196 0.985 . S
C210 C211 1.363 . S
C210 C216 1.379 . S
C210 N218 1.356 . S
C211 C210 1.363 . S
C211 C217 1.363 . S
C212 C213 1.363 . S
C212 C217 1.379 . S
C212 N219 1.356 . S
C213 C212 1.363 . S
C213 C216 1.363 . S
N214 C216 1.356 . S
N214 H226 0.984 . S
N214 H227 0.985 . S
N215 C217 1.356 . S
N215 H220 0.984 . S
N215 H221 0.985 . S
C216 C210 1.379 . S
C216 C213 1.363 . S
C216 N214 1.356 . S
C217 C211 1.363 . S
C217 C212 1.379 . S
C217 N215 1.356 . S
N218 C210 1.356 . S
N218 H224 0.984 . S
N218 H225 0.984 . S
N219 C212 1.356 . S
N219 H222 0.984 . S
N219 H223 0.985 . S
H220 N215 0.984 . S
H221 N215 0.985 . S
H222 N219 0.984 . S
H223 N219 0.985 . S
H224 N218 0.984 . S
H225 N218 0.984 . S
H226 N214 0.984 . S
H227 N214 0.985 . S
C228 C229 1.363 . S
C228 C234 1.379 . S
C228 N236 1.356 . S
C229 C228 1.363 . S
C229 C235 1.363 . S
C230 C231 1.363 . S
C230 C235 1.379 . S
C230 N237 1.356 . S
C231 C230 1.363 . S
C231 C234 1.363 . S
N232 C234 1.356 . S
N232 H244 0.984 . S
N232 H245 0.985 . S
N233 C235 1.356 . S
N233 H238 0.984 . S
N233 H239 0.985 . S
C234 C228 1.379 . S
C234 C231 1.363 . S
C234 N232 1.356 . S
C235 C229 1.363 . S
C235 C230 1.379 . S
C235 N233 1.356 . S
N236 C228 1.356 . S
N236 H242 0.984 . S
N236 H243 0.984 . S
N237 C230 1.356 . S
N237 H240 0.984 . S
N237 H241 0.985 . S
H238 N233 0.984 . S
H239 N233 0.985 . S
H240 N237 0.984 . S
H241 N237 0.985 . S
H242 N236 0.984 . S
H243 N236 0.984 . S
H244 N232 0.984 . S
H245 N232 0.985 . S
C246 C247 1.363 . S
C246 C252 1.379 . S
C246 N254 1.356 1_655 S
C247 C246 1.363 . S
C247 C253 1.363 . S
C248 C249 1.363 . S
C248 C253 1.379 . S
C248 N255 1.356 . S
C249 C248 1.363 . S
C249 C252 1.363 . S
N250 C252 1.356 1_455 S
N250 H262 0.984 . S
N250 H263 0.985 1_455 S
N251 C253 1.356 . S
N251 H256 0.984 . S
N251 H257 0.985 . S
C252 C246 1.379 . S
C252 C249 1.363 . S
C252 N250 1.356 1_655 S
C253 C247 1.363 . S
C253 C248 1.379 . S
C253 N251 1.356 . S
N254 C246 1.356 1_455 S
N254 H260 0.984 . S
N254 H261 0.984 . S
N255 C248 1.356 . S
N255 H258 0.984 . S
N255 H259 0.985 . S
H256 N251 0.984 . S
H257 N251 0.985 . S
H258 N255 0.984 . S
H259 N255 0.985 . S
H260 N254 0.984 . S
H261 N254 0.984 . S
H262 N250 0.984 . S
H263 N250 0.985 1_655 S
C264 C265 1.363 . S
C264 C270 1.379 . S
C264 N272 1.356 . S
C265 C264 1.363 . S
C265 C271 1.363 . S
C266 C267 1.363 . S
C266 C271 1.379 . S
C266 N273 1.356 1_554 S
C267 C266 1.363 . S
C267 C270 1.363 . S
N268 C270 1.356 . S
N268 H280 0.984 . S
N268 H281 0.985 . S
N269 C271 1.356 . S
N269 H274 0.984 . S
N269 H275 0.985 . S
C270 C264 1.379 . S
C270 C267 1.363 . S
C270 N268 1.356 . S
C271 C265 1.363 . S
C271 C266 1.379 . S
C271 N269 1.356 . S
N272 C264 1.356 . S
N272 H278 0.984 . S
N272 H279 0.984 . S
N273 C266 1.356 1_556 S
N273 H276 0.984 . S
N273 H277 0.985 1_545 S
H274 N269 0.984 . S
H275 N269 0.985 . S
H276 N273 0.984 . S
H277 N273 0.985 1_565 S
H278 N272 0.984 . S
H279 N272 0.984 . S
H280 N268 0.984 . S
H281 N268 0.985 . S
C282 C283 1.363 . S
C282 C288 1.379 . S
C282 N290 1.356 . S
C283 C282 1.363 . S
C283 C289 1.363 . S
C284 C285 1.363 . S
C284 C289 1.379 . S
C284 N291 1.356 . S
C285 C284 1.363 . S
C285 C288 1.363 . S
N286 C288 1.356 . S
N286 H298 0.984 . S
N286 H299 0.985 . S
N287 C289 1.356 . S
N287 H292 0.984 . S
N287 H293 0.985 . S
C288 C282 1.379 . S
C288 C285 1.363 . S
C288 N286 1.356 . S
C289 C283 1.363 . S
C289 C284 1.379 . S
C289 N287 1.356 . S
N290 C282 1.356 . S
N290 H296 0.984 . S
N290 H297 0.984 . S
N291 C284 1.356 . S
N291 H294 0.984 . S
N291 H295 0.985 . S
H292 N287 0.984 . S
H293 N287 0.985 . S
H294 N291 0.984 . S
H295 N291 0.985 . S
H296 N290 0.984 . S
H297 N290 0.984 . S
H298 N286 0.984 . S
H299 N286 0.985 . S
C300 C301 1.363 . S
C300 C306 1.379 . S
C300 N308 1.356 . S
C301 C300 1.363 . S
C301 C307 1.363 . S
C302 C303 1.363 . S
C302 C307 1.379 . S
C302 N309 1.356 . S
C303 C302 1.363 . S
C303 C306 1.363 . S
N304 C306 1.356 1_554 S
N304 H316 0.984 . S
N304 H317 0.985 . S
N305 C307 1.356 . S
N305 H310 0.984 . S
N305 H311 0.985 . S
C306 C300 1.379 . S
C306 C303 1.363 . S
C306 N304 1.356 1_556 S
C307 C301 1.363 . S
C307 C302 1.379 . S
C307 N305 1.356 . S
N308 C300 1.356 . S
N308 H314 0.984 1_556 S
N308 H315 0.984 . S
N309 C302 1.356 . S
N309 H312 0.984 . S
N309 H313 0.985 . S
H310 N305 0.984 . S
H311 N305 0.985 . S
H312 N309 0.984 . S
H313 N309 0.985 . S
H314 N308 0.984 1_554 S
H315 N308 0.984 . S
H316 N304 0.984 . S
H317 N304 0.985 . S
C318 C319 1.363 . S
C318 C324 1.379 . S
C318 N326 1.356 . S
C319 C318 1.363 . S
C319 C325 1.363 . S
C320 C321 1.363 . S
C320 C325 1.379 . S
C320 N327 1.356 . S
C321 C320 1.363 . S
C321 C324 1.363 . S
N322 C324 1.356 . S
N322 H334 0.984 . S
N322 H335 0.985 . S
N323 C325 1.356 . S
N323 H328 0.984 . S
N323 H329 0.985 . S
C324 C318 1.379 . S
C324 C321 1.363 . S
C324 N322 1.356 . S
C325 C319 1.363 . S
C325 C320 1.379 . S
C325 N323 1.356 . S
N326 C318 1.356 . S
N326 H332 0.984 . S
N326 H333 0.984 . S
N327 C320 1.356 . S
N327 H330 0.984 . S
N327 H331 0.985 . S
H328 N323 0.984 . S
H329 N323 0.985 . S
H330 N327 0.984 . S
H331 N327 0.985 . S
H332 N326 0.984 . S
H333 N326 0.984 . S
H334 N322 0.984 . S
H335 N322 0.985 . S
C336 C337 1.363 . S
C336 C342 1.379 . S
C336 N344 1.356 . S
C337 C336 1.363 . S
C337 C343 1.363 . S
C338 C339 1.363 . S
C338 C343 1.379 . S
C338 N345 1.354 1_455 S
C339 C338 1.363 . S
C339 C342 1.363 . S
N340 C342 1.356 1_556 S
N340 H352 0.984 . S
N340 H353 0.985 . S
N341 C343 1.356 . S
N341 H346 0.984 . S
N341 H347 0.985 . S
C342 C336 1.379 . S
C342 C339 1.363 . S
C342 N340 1.356 1_554 S
C343 C337 1.363 . S
C343 C338 1.379 . S
C343 N341 1.356 . S
N344 C336 1.356 . S
N344 H350 0.984 1_554 S
N344 H351 0.984 . S
N345 C338 1.354 1_655 S
N345 H348 0.985 . S
N345 H349 0.986 . S
H346 N341 0.984 . S
H347 N341 0.985 . S
H348 N345 0.985 . S
H349 N345 0.986 . S
H350 N344 0.984 1_556 S
H351 N344 0.984 . S
H352 N340 0.984 . S
H353 N340 0.985 . S
C354 C355 1.363 . S
C354 C360 1.379 . S
C354 N362 1.356 . S
C355 C354 1.363 . S
C355 C361 1.363 . S
C356 C357 1.363 . S
C356 C361 1.379 . S
C356 N363 1.356 . S
C357 C356 1.363 . S
C357 C360 1.363 . S
N358 C360 1.356 1_554 S
N358 H370 0.984 . S
N358 H371 0.985 . S
N359 C361 1.356 . S
N359 H364 0.984 . S
N359 H365 0.985 . S
C360 C354 1.379 . S
C360 C357 1.363 . S
C360 N358 1.356 1_556 S
C361 C355 1.363 . S
C361 C356 1.379 . S
C361 N359 1.356 . S
N362 C354 1.356 . S
N362 H368 0.984 1_556 S
N362 H369 0.984 . S
N363 C356 1.356 . S
N363 H366 0.984 . S
N363 H367 0.985 . S
H364 N359 0.984 . S
H365 N359 0.985 . S
H366 N363 0.984 . S
H367 N363 0.985 . S
H368 N362 0.984 1_554 S
H369 N362 0.984 . S
H370 N358 0.984 . S
H371 N358 0.985 . S
C372 C373 1.363 . S
C372 C378 1.379 . S
C372 N380 1.356 . S
C373 C372 1.363 . S
C373 C379 1.363 . S
C374 C375 1.363 . S
C374 C379 1.379 . S
C374 N381 1.356 1_655 S
C375 C374 1.363 . S
C375 C378 1.363 . S
N376 C378 1.356 . S
N376 H388 0.984 . S
N376 H389 0.985 . S
N377 C379 1.356 1_455 S
N377 H382 0.984 1_455 S
N377 H383 0.985 . S
C378 C372 1.379 . S
C378 C375 1.363 . S
C378 N376 1.356 . S
C379 C373 1.363 . S
C379 C374 1.379 . S
C379 N377 1.356 1_655 S
N380 C372 1.356 . S
N380 H386 0.984 . S
N380 H387 0.984 . S
N381 C374 1.356 1_455 S
N381 H384 0.984 . S
N381 H385 0.985 . S
H382 N377 0.984 1_655 S
H383 N377 0.985 . S
H384 N381 0.984 . S
H385 N381 0.985 . S
H386 N380 0.984 . S
H387 N380 0.984 . S
H388 N376 0.984 . S
H389 N376 0.985 . S
C390 C391 1.363 . S
C390 C396 1.379 . S
C390 N398 1.356 . S
C391 C390 1.363 . S
C391 C397 1.363 . S
C392 C393 1.363 . S
C392 C397 1.379 . S
C392 N399 1.356 . S
C393 C392 1.363 . S
C393 C396 1.363 . S
N394 C396 1.356 . S
N394 H406 0.984 . S
N394 H407 0.985 . S
N395 C397 1.356 . S
N395 H400 0.984 . S
N395 H401 0.985 . S
C396 C390 1.379 . S
C396 C393 1.363 . S
C396 N394 1.356 . S
C397 C391 1.363 . S
C397 C392 1.379 . S
C397 N395 1.356 . S
N398 C390 1.356 . S
N398 H404 0.984 . S
N398 H405 0.984 . S
N399 C392 1.356 . S
N399 H402 0.984 . S
N399 H403 0.985 . S
H400 N395 0.984 . S
H401 N395 0.985 . S
H402 N399 0.984 . S
H403 N399 0.985 . S
H404 N398 0.984 . S
H405 N398 0.984 . S
H406 N394 0.984 . S
H407 N394 0.985 . S
C408 C409 1.363 . S
C408 C414 1.379 . S
C408 N416 1.356 . S
C409 C408 1.363 . S
C409 C415 1.363 . S
C410 C411 1.363 . S
C410 C415 1.379 . S
C410 N417 1.356 1_655 S
C411 C410 1.363 . S
C411 C414 1.363 . S
N412 C414 1.356 1_545 S
N412 H424 0.984 . S
N412 H425 0.985 . S
N413 C415 1.356 . S
N413 H418 0.984 . S
N413 H419 0.985 . S
C414 C408 1.379 . S
C414 C411 1.363 . S
C414 N412 1.356 1_565 S
C415 C409 1.363 . S
C415 C410 1.379 . S
C415 N413 1.356 . S
N416 C408 1.356 . S
N416 H422 0.984 1_565 S
N416 H423 0.984 . S
N417 C410 1.356 1_455 S
N417 H420 0.984 . S
N417 H421 0.985 . S
H418 N413 0.984 . S
H419 N413 0.985 . S
H420 N417 0.984 . S
H421 N417 0.985 . S
H422 N416 0.984 1_545 S
H423 N416 0.984 . S
H424 N412 0.984 . S
H425 N412 0.985 . S
C426 C427 1.363 . S
C426 C432 1.379 . S
C426 N434 1.356 . S
C427 C426 1.363 . S
C427 C433 1.363 . S
C428 C429 1.363 . S
C428 C433 1.379 . S
C428 N435 1.356 . S
C429 C428 1.363 . S
C429 C432 1.363 . S
N430 C432 1.356 . S
N430 H442 0.984 . S
N430 H443 0.985 . S
N431 C433 1.356 . S
N431 H436 0.984 . S
N431 H437 0.985 . S
C432 C426 1.379 . S
C432 C429 1.363 . S
C432 N430 1.356 . S
C433 C427 1.363 . S
C433 C428 1.379 . S
C433 N431 1.356 . S
N434 C426 1.356 . S
N434 H440 0.984 . S
N434 H441 0.984 . S
N435 C428 1.356 . S
N435 H438 0.984 . S
N435 H439 0.985 1_545 S
H436 N431 0.984 . S
H437 N431 0.985 . S
H438 N435 0.984 . S
H439 N435 0.985 1_565 S
H440 N434 0.984 . S
H441 N434 0.984 . S
H442 N430 0.984 . S
H443 N430 0.985 . S
C444 C445 1.363 . S
C444 C450 1.379 . S
C444 N452 1.356 . S
C445 C444 1.363 . S
C445 C451 1.363 . S
C446 C447 1.363 . S
C446 C451 1.379 . S
C446 N453 1.356 . S
C447 C446 1.363 . S
C447 C450 1.363 . S
N448 C450 1.356 . S
N448 H460 0.984 . S
N448 H461 0.985 . S
N449 C451 1.356 . S
N449 H454 0.984 . S
N449 H455 0.985 . S
C450 C444 1.379 . S
C450 C447 1.363 . S
C450 N448 1.356 . S
C451 C445 1.363 . S
C451 C446 1.379 . S
C451 N449 1.356 . S
N452 C444 1.356 . S
N452 H458 0.984 . S
N452 H459 0.984 . S
N453 C446 1.356 . S
N453 H456 0.984 . S
N453 H457 0.985 . S
H454 N449 0.984 . S
H455 N449 0.985 . S
H456 N453 0.984 . S
H457 N453 0.985 . S
H458 N452 0.984 . S
H459 N452 0.984 . S
H460 N448 0.984 . S
H461 N448 0.985 . S
C462 C463 1.363 . S
C462 C468 1.379 . S
C462 N470 1.356 . S
C463 C462 1.363 . S
C463 C469 1.363 . S
C464 C465 1.363 . S
C464 C469 1.379 . S
C464 N471 1.356 . S
C465 C464 1.363 . S
C465 C468 1.363 . S
N466 C468 1.356 . S
N466 H478 0.984 . S
N466 H479 0.985 . S
N467 C469 1.356 . S
N467 H472 0.984 . S
N467 H473 0.985 . S
C468 C462 1.379 . S
C468 C465 1.363 . S
C468 N466 1.356 . S
C469 C463 1.363 . S
C469 C464 1.379 . S
C469 N467 1.356 . S
N470 C462 1.356 . S
N470 H476 0.984 . S
N470 H477 0.984 . S
N471 C464 1.356 . S
N471 H474 0.984 . S
N471 H475 0.985 . S
H472 N467 0.984 . S
H473 N467 0.985 . S
H474 N471 0.984 . S
H475 N471 0.985 . S
H476 N470 0.984 . S
H477 N470 0.984 . S
H478 N466 0.984 . S
H479 N466 0.985 . S
C480 C481 1.363 . S
C480 C486 1.379 . S
C480 N488 1.356 . S
C481 C480 1.363 . S
C481 C487 1.363 . S
C482 C483 1.363 . S
C482 C487 1.379 . S
C482 N489 1.356 . S
C483 C482 1.363 . S
C483 C486 1.363 . S
N484 C486 1.356 1_554 S
N484 H496 0.984 . S
N484 H497 0.985 . S
N485 C487 1.356 . S
N485 H490 0.984 . S
N485 H491 0.985 . S
C486 C480 1.379 . S
C486 C483 1.363 . S
C486 N484 1.356 1_556 S
C487 C481 1.363 . S
C487 C482 1.379 . S
C487 N485 1.356 . S
N488 C480 1.356 . S
N488 H494 0.984 1_556 S
N488 H495 0.984 . S
N489 C482 1.356 . S
N489 H492 0.984 . S
N489 H493 0.985 . S
H490 N485 0.984 . S
H491 N485 0.985 . S
H492 N489 0.984 . S
H493 N489 0.985 . S
H494 N488 0.984 1_554 S
H495 N488 0.984 . S
H496 N484 0.984 . S
H497 N484 0.985 . S
C498 C499 1.363 . S
C498 C504 1.379 . S
C498 N506 1.356 . S
C499 C498 1.363 . S
C499 C505 1.363 . S
C500 C501 1.363 . S
C500 C505 1.379 . S
C500 N507 1.356 . S
C501 C500 1.363 . S
C501 C504 1.363 . S
N502 C504 1.356 . S
N502 H514 0.984 . S
N502 H515 0.985 . S
N503 C505 1.356 . S
N503 H508 0.984 . S
N503 H509 0.985 . S
C504 C498 1.379 . S
C504 C501 1.363 . S
C504 N502 1.356 . S
C505 C499 1.363 . S
C505 C500 1.379 . S
C505 N503 1.356 . S
N506 C498 1.356 . S
N506 H512 0.984 . S
N506 H513 0.984 . S
N507 C500 1.356 . S
N507 H510 0.984 . S
N507 H511 0.985 . S
H508 N503 0.984 . S
H509 N503 0.985 . S
H510 N507 0.984 . S
H511 N507 0.985 . S
H512 N506 0.984 . S
H513 N506 0.984 . S
H514 N502 0.984 . S
H515 N502 0.985 . S
C516 C517 1.363 . S
C516 C522 1.379 . S
C516 N524 1.356 . S
C517 C516 1.363 . S
C517 C523 1.363 . S
C518 C519 1.363 . S
C518 C523 1.379 . S
C518 N525 1.356 . S
C519 C518 1.363 . S
C519 C522 1.363 . S
N520 C522 1.356 . S
N520 H532 0.984 1_554 S
N520 H533 0.985 1_554 S
N521 C523 1.356 . S
N521 H526 0.984 . S
N521 H527 0.985 . S
C522 C516 1.379 . S
C522 C519 1.363 . S
C522 N520 1.356 . S
C523 C517 1.363 . S
C523 C518 1.379 . S
C523 N521 1.356 . S
N524 C516 1.356 . S
N524 H530 0.984 . S
N524 H531 0.984 . S
N525 C518 1.356 . S
N525 H528 0.984 . S
N525 H529 0.985 . S
H526 N521 0.984 . S
H527 N521 0.985 . S
H528 N525 0.984 . S
H529 N525 0.985 . S
H530 N524 0.984 . S
H531 N524 0.984 . S
H532 N520 0.984 1_556 S
H533 N520 0.985 1_556 S
C534 C535 1.363 . S
C534 C540 1.379 . S
C534 N542 1.356 . S
C535 C534 1.363 . S
C535 C541 1.363 . S
C536 C537 1.363 . S
C536 C541 1.379 . S
C536 N543 1.356 . S
C537 C536 1.363 . S
C537 C540 1.363 . S
N538 C540 1.356 . S
N538 H550 0.984 . S
N538 H551 0.985 . S
N539 C541 1.356 . S
N539 H544 0.984 . S
N539 H545 0.985 . S
C540 C534 1.379 . S
C540 C537 1.363 . S
C540 N538 1.356 . S
C541 C535 1.363 . S
C541 C536 1.379 . S
C541 N539 1.356 . S
N542 C534 1.356 . S
N542 H548 0.984 . S
N542 H549 0.984 . S
N543 C536 1.356 . S
N543 H546 0.984 . S
N543 H547 0.985 . S
H544 N539 0.984 . S
H545 N539 0.985 . S
H546 N543 0.984 . S
H547 N543 0.985 . S
H548 N542 0.984 . S
H549 N542 0.984 . S
H550 N538 0.984 . S
H551 N538 0.985 . S
C552 C553 1.363 . S
C552 C558 1.379 . S
C552 N560 1.356 . S
C553 C552 1.363 . S
C553 C559 1.363 . S
C554 C555 1.363 . S
C554 C559 1.379 . S
C554 N561 1.350 1_656 S
C555 C554 1.363 . S
C555 C558 1.363 . S
N556 C558 1.356 . S
N556 H568 0.984 . S
N556 H569 0.985 . S
N557 C559 1.356 . S
N557 H562 0.984 . S
N557 H563 0.985 1_556 S
C558 C552 1.379 . S
C558 C555 1.363 . S
C558 N556 1.356 . S
C559 C553 1.363 . S
C559 C554 1.379 . S
C559 N557 1.356 . S
N560 C552 1.356 . S
N560 H566 0.984 . S
N560 H567 0.984 . S
N561 C554 1.350 1_454 S
N561 H564 0.987 . S
N561 H565 0.989 . S
H562 N557 0.984 . S
H563 N557 0.985 1_554 S
H564 N561 0.987 . S
H565 N561 0.989 . S
H566 N560 0.984 . S
H567 N560 0.984 . S
H568 N556 0.984 . S
H569 N556 0.985 . S
C570 C571 1.363 . S
C570 C576 1.379 . S
C570 N578 1.356 . S
C571 C570 1.363 . S
C571 C577 1.363 . S
C572 C573 1.363 . S
C572 C577 1.379 . S
C572 N579 1.356 . S
C573 C572 1.363 . S
C573 C576 1.363 . S
N574 C576 1.356 . S
N574 H586 0.984 . S
N574 H587 0.985 . S
N575 C577 1.356 . S
N575 H580 0.984 . S
N575 H581 0.985 . S
C576 C570 1.379 . S
C576 C573 1.363 . S
C576 N574 1.356 . S
C577 C571 1.363 . S
C577 C572 1.379 . S
C577 N575 1.356 . S
N578 C570 1.356 . S
N578 H584 0.984 . S
N578 H585 0.984 . S
N579 C572 1.356 . S
N579 H582 0.984 . S
N579 H583 0.985 1_554 S
H580 N575 0.984 . S
H581 N575 0.985 . S
H582 N579 0.984 . S
H583 N579 0.985 1_556 S
H584 N578 0.984 . S
H585 N578 0.984 . S
H586 N574 0.984 . S
H587 N574 0.985 . S
C588 C589 1.363 . S
C588 C594 1.379 . S
C588 N596 1.356 . S
C589 C588 1.363 . S
C589 C595 1.363 . S
C590 C591 1.363 . S
C590 C595 1.379 . S
C590 N597 1.356 . S
C591 C590 1.363 . S
C591 C594 1.363 . S
N592 C594 1.356 . S
N592 H604 0.984 . S
N592 H605 0.985 . S
N593 C595 1.356 . S
N593 H598 0.984 . S
N593 H599 0.985 . S
C594 C588 1.379 . S
C594 C591 1.363 . S
C594 N592 1.356 . S
C595 C589 1.363 . S
C595 C590 1.379 . S
C595 N593 1.356 . S
N596 C588 1.356 . S
N596 H602 0.984 . S
N596 H603 0.984 . S
N597 C590 1.356 . S
N597 H600 0.984 . S
N597 H601 0.985 . S
H598 N593 0.984 . S
H599 N593 0.985 . S
H600 N597 0.984 . S
H601 N597 0.985 . S
H602 N596 0.984 . S
H603 N596 0.984 . S
H604 N592 0.984 . S
H605 N592 0.985 . S
C606 C607 1.363 . S
C606 C612 1.379 . S
C606 N614 1.356 . S
C607 C606 1.363 . S
C607 C613 1.363 . S
C608 C609 1.363 . S
C608 C613 1.379 . S
C608 N615 1.356 . S
C609 C608 1.363 . S
C609 C612 1.363 . S
N610 C612 1.356 . S
N610 H622 0.984 . S
N610 H623 0.985 . S
N611 C613 1.356 . S
N611 H616 0.984 . S
N611 H617 0.985 . S
C612 C606 1.379 . S
C612 C609 1.363 . S
C612 N610 1.356 . S
C613 C607 1.363 . S
C613 C608 1.379 . S
C613 N611 1.356 . S
N614 C606 1.356 . S
N614 H620 0.984 . S
N614 H621 0.984 . S
N615 C608 1.356 . S
N615 H618 0.984 . S
N615 H619 0.985 . S
H616 N611 0.984 . S
H617 N611 0.985 . S
H618 N615 0.984 . S
H619 N615 0.985 . S
H620 N614 0.984 . S
H621 N614 0.984 . S
H622 N610 0.984 . S
H623 N610 0.985 . S
C193 C5 2.084 . S
C195 C88 2.097 . S
C211 C14 1.139 . S
C213 N108 1.115 . S
C231 C142 1.977 . S
C229 C25 1.974 . S
C247 C34 1.268 . S
C249 N176 1.197 . S
C267 C129 2.224 . S
C265 C7 2.212 . S
C285 N86 1.125 . S
C283 C13 1.165 . S
C303 C163 2.037 . S
C301 C23 2.030 . S
C321 N138 1.032 . S
C319 C31 1.025 . S
C337 C4 1.752 . S
C339 C178 1.763 . S
C357 C112 1.698 . S
C355 C22 1.683 . S
C373 C32 1.350 . S
C375 C73 1.371 . S
C391 C16 1.344 . S
C393 C159 1.358 . S
C411 C99 2.087 . S
C409 C41 2.072 . S
C427 C50 1.142 . S
C429 N116 1.121 . S
C445 C61 1.966 . S
C447 C133 1.973 . S
C463 C67 1.272 . S
C465 N168 1.203 . S
C481 C40 2.225 . S
C483 C118 2.236 . S
C501 N78 1.112 . S
C499 C52 1.148 . S
C519 C172 2.039 . S
C517 C59 2.027 . S
C537 N146 1.028 . S
C535 C70 1.022 . S
C553 C43 1.747 . S
C555 C189 1.762 . S
C573 C103 1.702 . S
C571 C58 1.684 . S
C591 C82 1.362 . S
C589 C68 1.339 . S
C607 C49 1.351 . S
C609 C148 1.367 . S
