# Generated by pormake.
# Topology zzz, (3,6)-cn, num edge types: 1
# Building blocks:
#     Node 0, Type 0, BuildingBlock: BETDIP_clean_linker_0, # of connection points: 3
#     Node 1, Type 0, BuildingBlock: BETDIP_clean_linker_0, # of connection points: 3
#     Node 2, Type 0, BuildingBlock: BETDIP_clean_linker_0, # of connection points: 3
#     Node 3, Type 0, BuildingBlock: BETDIP_clean_linker_0, # of connection points: 3
#     Node 4, Type 0, BuildingBlock: BETDIP_clean_linker_0, # of connection points: 3
#     Node 5, Type 0, BuildingBlock: BETDIP_clean_linker_0, # of connection points: 3
#     Node 6, Type 0, BuildingBlock: BETDIP_clean_linker_0, # of connection points: 3
#     Node 7, Type 0, BuildingBlock: BETDIP_clean_linker_0, # of connection points: 3
#     Node 8, Type 1, BuildingBlock: JUFBIX_clean_sbu_0, # of connection points: 6
#     Node 9, Type 1, BuildingBlock: JUFBIX_clean_sbu_0, # of connection points: 6
#     Node 10, Type 1, BuildingBlock: JUFBIX_clean_sbu_0, # of connection points: 6
#     Node 11, Type 1, BuildingBlock: JUFBIX_clean_sbu_0, # of connection points: 6
#     Edge 12, Type (0, 1), BuildingBlock: ZUJKAS_clean_linker_0, # of connection points: 2
#     Edge 13, Type (0, 1), BuildingBlock: ZUJKAS_clean_linker_0, # of connection points: 2
#     Edge 14, Type (0, 1), BuildingBlock: ZUJKAS_clean_linker_0, # of connection points: 2
#     Edge 15, Type (0, 1), BuildingBlock: ZUJKAS_clean_linker_0, # of connection points: 2
#     Edge 16, Type (0, 1), BuildingBlock: ZUJKAS_clean_linker_0, # of connection points: 2
#     Edge 17, Type (0, 1), BuildingBlock: ZUJKAS_clean_linker_0, # of connection points: 2
#     Edge 18, Type (0, 1), BuildingBlock: ZUJKAS_clean_linker_0, # of connection points: 2
#     Edge 19, Type (0, 1), BuildingBlock: ZUJKAS_clean_linker_0, # of connection points: 2
#     Edge 20, Type (0, 1), BuildingBlock: ZUJKAS_clean_linker_0, # of connection points: 2
#     Edge 21, Type (0, 1), BuildingBlock: ZUJKAS_clean_linker_0, # of connection points: 2
#     Edge 22, Type (0, 1), BuildingBlock: ZUJKAS_clean_linker_0, # of connection points: 2
#     Edge 23, Type (0, 1), BuildingBlock: ZUJKAS_clean_linker_0, # of connection points: 2
#     Edge 24, Type (0, 1), BuildingBlock: ZUJKAS_clean_linker_0, # of connection points: 2
#     Edge 25, Type (0, 1), BuildingBlock: ZUJKAS_clean_linker_0, # of connection points: 2
#     Edge 26, Type (0, 1), BuildingBlock: ZUJKAS_clean_linker_0, # of connection points: 2
#     Edge 27, Type (0, 1), BuildingBlock: ZUJKAS_clean_linker_0, # of connection points: 2
#     Edge 28, Type (0, 1), BuildingBlock: ZUJKAS_clean_linker_0, # of connection points: 2
#     Edge 29, Type (0, 1), BuildingBlock: ZUJKAS_clean_linker_0, # of connection points: 2
#     Edge 30, Type (0, 1), BuildingBlock: ZUJKAS_clean_linker_0, # of connection points: 2
#     Edge 31, Type (0, 1), BuildingBlock: ZUJKAS_clean_linker_0, # of connection points: 2
#     Edge 32, Type (0, 1), BuildingBlock: ZUJKAS_clean_linker_0, # of connection points: 2
#     Edge 33, Type (0, 1), BuildingBlock: ZUJKAS_clean_linker_0, # of connection points: 2
#     Edge 34, Type (0, 1), BuildingBlock: ZUJKAS_clean_linker_0, # of connection points: 2
#     Edge 35, Type (0, 1), BuildingBlock: ZUJKAS_clean_linker_0, # of connection points: 2
# Relax obj value: 0.128
# Max RMSD: 0.180
# Mean RMSD: 0.088
data_MOF--net-zzz--node1-JUFBIX_clean_sbu_0--node2-BETDIP_clean_linker_0--edge1-ZUJKAS_clean_linker_0
_symmetry_space_group_name_H-M    P1
_symmetry_Int_Tables_number       1
_symmetry_cell_setting            triclinic
loop_
_symmetry_equiv_pos_as_xyz
'x, y, z'
_cell_length_a     67.023104
_cell_length_b     66.584563
_cell_length_c     22.353553
_cell_angle_alpha  83.160944
_cell_angle_beta   89.740822
_cell_angle_gamma 91.193107
loop_
_atom_site_label
_atom_site_type_symbol
_atom_site_fract_x
_atom_site_fract_y
_atom_site_fract_z
_atom_type_partial_charge
H0 H 0.77893 0.51444 0.36084 0.0
H1 H 0.78523 0.50213 0.17658 0.0
H2 H 0.83393 0.49151 0.29942 0.0
H3 H 0.7654 0.53629 0.1771 0.0
C4 C 0.75417 0.52649 0.20156 0.0
C5 C 0.78773 0.50904 0.32549 0.0
C6 C 0.80739 0.50275 0.33704 0.0
C7 C 0.77962 0.5088 0.26753 0.0
C8 C 0.79134 0.50231 0.22131 0.0
C9 C 0.81078 0.49562 0.23306 0.0
C10 C 0.81858 0.49581 0.29093 0.0
N11 N 0.75961 0.51473 0.25611 0.0
H12 H 0.98357 0.75281 0.37067 0.0
H13 H 0.9965 0.76238 0.18011 0.0
H14 H 0.0058 0.81073 0.28823 0.0
H15 H 0.96294 0.74067 0.19602 0.0
C16 C 0.9727 0.7295 0.21929 0.0
C17 C 0.98891 0.76255 0.33133 0.0
C18 C 0.9949 0.78268 0.33642 0.0
C19 C 0.98941 0.75516 0.27485 0.0
C20 C 0.99598 0.76799 0.22364 0.0
C21 C 1.00232 0.78789 0.22861 0.0
C22 C 1.00177 0.79503 0.28496 0.0
N23 N 0.98369 0.73475 0.26967 0.0
H24 H 0.75879 0.99294 0.27849 0.0
H25 H 0.74567 1.00143 0.08814 0.0
H26 H 0.69892 0.0048 0.21767 0.0
H27 H 0.77027 0.97661 0.09251 0.0
C28 C 0.7813 0.98468 0.11662 0.0
C29 C 0.74828 0.99606 0.24207 0.0
C30 C 0.72807 0.99916 0.255 0.0
C31 C 0.75479 0.9967 0.18175 0.0
C32 C 0.74091 1.00066 0.13473 0.0
C33 C 0.72073 1.00329 0.14765 0.0
C34 C 0.71456 1.00274 0.20762 0.0
N35 N 0.77524 0.99338 0.16885 0.0
H36 H 0.53373 0.73947 0.28578 0.0
H37 H 0.51685 0.72896 0.10588 0.0
H38 H 0.52202 0.67901 0.24502 0.0
H39 H 0.54092 0.75517 0.08506 0.0
C40 C 0.53474 0.76546 0.11425 0.0
C41 C 0.52952 0.7292 0.25367 0.0
C42 C 0.52795 0.70832 0.27207 0.0
C43 C 0.52627 0.7367 0.19298 0.0
C44 C 0.52035 0.7232 0.15188 0.0
C45 C 0.51843 0.70234 0.1704 0.0
C46 C 0.52267 0.69514 0.23031 0.0
N47 N 0.52877 0.7578 0.17399 0.0
H48 H 0.23693 0.49903 0.18236 0.0
H49 H 0.22966 0.51238 0.36543 0.0
H50 H 0.17839 0.4989 0.26186 0.0
H51 H 0.25748 0.53554 0.32328 0.0
C52 C 0.26593 0.52245 0.31417 0.0
C53 C 0.22742 0.50082 0.22059 0.0
C54 C 0.20661 0.49834 0.21615 0.0
C55 C 0.23587 0.50611 0.27432 0.0
C56 C 0.22332 0.50868 0.3235 0.0
C57 C 0.20263 0.50574 0.31952 0.0
C58 C 0.19446 0.50061 0.26578 0.0
N59 N 0.25695 0.50822 0.27928 0.0
H60 H 0.02782 0.25587 0.17437 0.0
H61 H 0.01622 0.242 0.36495 0.0
H62 H 0.02617 0.19408 0.25646 0.0
H63 H 0.99167 0.2685 0.32797 0.0
C64 C 0.00418 0.27874 0.31448 0.0
C65 C 0.02615 0.24493 0.2141 0.0
C66 C 0.02773 0.22412 0.20934 0.0
C67 C 0.0215 0.25143 0.27018 0.0
C68 C 0.01923 0.23704 0.32142 0.0
C69 C 0.02118 0.21636 0.31707 0.0
C70 C 0.0253 0.2101 0.2608 0.0
N71 N 0.01895 0.27235 0.27523 0.0
H72 H 0.25929 0.01357 0.27263 0.0
H73 H 0.27088 1.00289 0.46359 0.0
H74 H 0.31944 0.01506 0.33832 0.0
H75 H 0.24306 0.98162 0.45636 0.0
C76 C 0.23363 0.99294 0.43233 0.0
C77 C 0.26965 0.01235 0.30989 0.0
C78 C 0.29028 0.01519 0.29877 0.0
C79 C 0.26246 0.00768 0.36944 0.0
C80 C 0.27614 0.00597 0.41747 0.0
C81 C 0.29667 0.00879 0.40651 0.0
C82 C 0.30352 0.01344 0.34721 0.0
N83 N 0.24153 0.00522 0.38071 0.0
H84 H 0.48612 0.27282 0.26006 0.0
H85 H 0.4979 0.27752 0.44765 0.0
H86 H 0.48362 0.33044 0.32841 0.0
H87 H 0.52113 0.25148 0.42174 0.0
C88 C 0.50875 0.24233 0.40788 0.0
C89 C 0.48724 0.28182 0.29726 0.0
C90 C 0.48401 0.30276 0.28759 0.0
C91 C 0.4923 0.27257 0.35501 0.0
C92 C 0.49418 0.28446 0.4029 0.0
C93 C 0.49069 0.30525 0.39356 0.0
C94 C 0.48555 0.3142 0.33609 0.0
N95 N 0.49499 0.2513 0.36488 0.0
Co96 Co 0.01555 0.01049 0.8135 0.0
C97 C 0.97501 0.99997 0.82993 0.0
Co98 Co 1.00222 0.99501 0.73967 0.0
C99 C 0.02969 0.0445 0.87432 0.0
C100 C 0.0275 0.01694 0.93395 0.0
N101 N 0.02556 0.02444 0.87552 0.0
N102 N 0.03375 0.04982 0.92959 0.0
C103 C 0.03256 0.0324 0.96705 0.0
H104 H 0.02866 0.05525 0.83425 0.0
H105 H 0.02452 1.00139 0.95216 0.0
C106 C 0.04269 0.0055 0.72282 0.0
N107 N 0.9921 0.98106 0.67765 0.0
C108 C 0.98864 0.9609 0.67846 0.0
C109 C 0.98887 0.98873 0.61996 0.0
N110 N 0.98372 0.95568 0.62367 0.0
C111 C 0.9837 0.97328 0.58693 0.0
C112 C 0.99937 0.03644 0.71987 0.0
O113 O 0.04098 0.01251 0.77324 0.0
O114 O 0.02753 0.99729 0.70073 0.0
O115 O 0.99507 0.0203 0.69718 0.0
O116 O 0.00813 0.03528 0.77025 0.0
O117 O 0.97693 0.99293 0.77968 0.0
H118 H 0.99089 0.00445 0.60206 0.0
H119 H 0.99059 0.95007 0.71785 0.0
O120 O 0.99007 0.00824 0.85242 0.0
O121 O 0.02274 0.98524 0.85602 0.0
O122 O 0.00968 0.97018 0.78315 0.0
C123 C 0.01846 0.96907 0.83353 0.0
H124 H 0.03462 0.03095 0.01535 0.0
H125 H 0.98063 0.97493 0.53915 0.0
Co126 Co 0.50132 0.00938 0.81499 0.0
C127 C 0.51351 0.96918 0.8269 0.0
Co128 Co 0.51631 1.00039 0.73373 0.0
C129 C 0.46806 0.02018 0.88748 0.0
C130 C 0.49422 0.01369 0.94009 0.0
N131 N 0.48757 0.01567 0.88294 0.0
N132 N 0.46216 0.02076 0.94522 0.0
C133 C 0.47873 0.01684 0.9783 0.0
H134 H 0.45819 0.02231 0.84922 0.0
H135 H 0.50909 0.00915 0.95355 0.0
C136 C 0.50427 0.04056 0.72157 0.0
N137 N 0.53003 0.99402 0.66563 0.0
C138 C 0.54974 0.99049 0.65988 0.0
C139 C 0.52282 0.9945 0.60927 0.0
N140 N 0.55516 0.9891 0.60219 0.0
C141 C 0.53814 0.99145 0.5704 0.0
C142 C 0.47572 0.99387 0.73256 0.0
O143 O 0.4977 0.03613 0.77522 0.0
O144 O 0.51286 0.02707 0.69563 0.0
O145 O 0.49148 0.99221 0.70187 0.0
O146 O 0.47703 1.00082 0.78282 0.0
O147 O 0.51971 0.97368 0.77292 0.0
H148 H 0.50756 0.99772 0.59661 0.0
H149 H 0.56014 0.98998 0.69684 0.0
O150 O 0.50508 0.98264 0.85348 0.0
O151 O 0.52607 0.01779 0.84669 0.0
O152 O 0.54063 0.00874 0.76642 0.0
C153 C 0.54188 0.01592 0.81638 0.0
H154 H 0.47941 0.01513 0.02699 0.0
H155 H 0.53684 0.99146 0.52217 0.0
Co156 Co 0.52382 0.50381 0.78213 0.0
C157 C 0.5014 0.47542 0.855 0.0
Co158 Co 0.49151 0.50536 0.76182 0.0
C159 C 0.56106 0.50438 0.84873 0.0
C160 C 0.56544 0.49961 0.75659 0.0
N161 N 0.55112 0.50266 0.79695 0.0
N162 N 0.58095 0.50233 0.8422 0.0
C163 C 0.58372 0.4993 0.78428 0.0
H164 H 0.55384 0.50686 0.89057 0.0
H165 H 0.56278 0.49782 0.70981 0.0
C166 C 0.51405 0.53379 0.68921 0.0
N167 N 0.46426 0.50635 0.74704 0.0
C168 C 0.45455 0.50726 0.69392 0.0
C169 C 0.44972 0.5056 0.78909 0.0
N170 N 0.43446 0.5071 0.70115 0.0
C171 C 0.43148 0.50604 0.7612 0.0
C172 C 0.50406 0.53072 0.84478 0.0
O173 O 0.52838 0.52552 0.7194 0.0
O174 O 0.49637 0.52684 0.6993 0.0
O175 O 0.48902 0.5248 0.81669 0.0
O176 O 0.52098 0.52304 0.83753 0.0
O177 O 0.48703 0.48367 0.82498 0.0
H178 H 0.45224 0.50452 0.83712 0.0
H179 H 0.46214 0.50806 0.65086 0.0
O180 O 0.51905 0.48232 0.84442 0.0
O181 O 0.52617 0.48434 0.72656 0.0
O182 O 0.49419 0.48614 0.70706 0.0
C183 C 0.511 0.47837 0.6991 0.0
H184 H 0.59801 0.49739 0.76314 0.0
H185 H 0.41713 0.50516 0.78384 0.0
Co186 Co 0.00702 0.51956 0.78248 0.0
C187 C 0.03588 0.49794 0.85024 0.0
Co188 Co 0.00742 0.48712 0.7692 0.0
C189 C 0.00424 0.5546 0.84768 0.0
C190 C 0.00743 0.56277 0.75259 0.0
N191 N 0.00633 0.54666 0.79511 0.0
N192 N 1.00391 0.57508 0.83972 0.0
C193 C 0.00601 0.58018 0.7797 0.0
H194 H 1.00262 0.54543 0.8908 0.0
H195 H 0.00905 0.56192 0.70479 0.0
C196 C 0.97857 0.50867 0.70136 0.0
N197 N 0.00811 0.46008 0.75606 0.0
C198 C 0.00962 0.45251 0.70274 0.0
C199 C 0.00737 0.44373 0.79776 0.0
N200 N 0.00989 0.43203 0.70928 0.0
C201 C 0.00841 0.42654 0.76933 0.0
C202 C 0.98128 0.49501 0.85862 0.0
O203 O 0.98563 0.52352 0.72614 0.0
O204 O 0.9864 0.49142 0.7129 0.0
O205 O 0.98809 0.48088 0.83143 0.0
O206 O 0.98796 0.51297 0.84484 0.0
O207 O 0.02859 0.4831 0.82594 0.0
H208 H 0.00615 0.44427 0.84581 0.0
H209 H 0.01073 0.462 0.66005 0.0
O210 O 0.02826 0.5153 0.83839 0.0
O211 O 0.02627 0.5258 0.71982 0.0
O212 O 0.02659 0.49366 0.70742 0.0
C213 C 0.03322 0.5116 0.69323 0.0
H214 H 0.00663 0.59541 0.75659 0.0
H215 H 0.00788 0.41121 0.79162 0.0
H216 H 0.21722 0.97222 0.53188 0.0
H217 H 0.18436 0.9761 0.57626 0.0
H218 H 0.17116 0.02308 0.43282 0.0
H219 H 0.20439 0.01947 0.38856 0.0
H220 H 0.16034 0.03297 0.54597 0.0
H221 H 0.13134 0.95642 0.51541 0.0
H222 H 0.15458 0.95584 0.55502 0.0
H223 H 0.15365 0.96722 0.47792 0.0
C224 C 0.20727 0.9833 0.50954 0.0
C225 C 0.2133 0.99541 0.45653 0.0
C226 C 0.18845 0.98545 0.53483 0.0
C227 C 0.17512 0.99962 0.50736 0.0
C228 C 0.18116 0.01194 0.45459 0.0
H229 H 0.0495 0.99655 0.60862 0.0
H230 H 0.08124 0.99692 0.55472 0.0
C231 C 0.2001 0.00983 0.42923 0.0
C232 C 0.15506 1.00164 0.53463 0.0
H233 H 0.11298 0.9745 0.58252 0.0
C234 C 0.14989 0.02024 0.55353 0.0
C235 C 0.14131 0.98512 0.54388 0.0
C236 C 0.14539 0.96509 0.52145 0.0
C237 C 0.13159 0.0226 0.58285 0.0
C238 C 0.11826 0.00579 0.59459 0.0
C239 C 0.12325 0.98735 0.57426 0.0
C240 C 0.09887 0.00691 0.62689 0.0
C241 C 0.12663 0.04314 0.60018 0.0
C242 C 0.0981 0.01244 0.68565 0.0
C243 C 0.07984 0.01239 0.71665 0.0
C244 C 0.06204 0.00653 0.68977 0.0
C245 C 0.0629 1.0011 0.63087 0.0
C246 C 0.08107 1.0013 0.59988 0.0
H247 H 0.13536 0.05539 0.57306 0.0
H248 H 0.11049 0.0462 0.59422 0.0
H249 H 0.13036 0.04366 0.64828 0.0
H250 H 0.11166 0.01637 0.70811 0.0
H251 H 0.07974 0.01653 0.76206 0.0
H252 H 0.53603 0.2208 0.47492 0.0
H253 H 0.5327 0.18631 0.526 0.0
H254 H 0.47279 0.18188 0.45809 0.0
H255 H 0.47641 0.21619 0.40493 0.0
H256 H 0.50808 0.17145 0.61332 0.0
H257 H 0.49493 0.12992 0.41574 0.0
H258 H 0.5031 0.15608 0.4081 0.0
H259 H 0.47724 0.14937 0.42272 0.0
C260 C 0.52226 0.21233 0.47023 0.0
C261 C 0.50658 0.22106 0.43552 0.0
C262 C 0.52032 0.19267 0.49963 0.0
C263 C 0.50258 0.18133 0.49543 0.0
C264 C 0.48681 0.19008 0.46086 0.0
H265 H 0.48106 0.07146 0.75164 0.0
H266 H 0.47859 0.10558 0.69758 0.0
C267 C 0.48886 0.20973 0.43068 0.0
C268 C 0.5006 0.16066 0.52897 0.0
H269 H 0.49171 0.11096 0.51192 0.0
C270 C 0.50448 0.15822 0.59112 0.0
C271 C 0.49605 0.14336 0.5 0.0
C272 C 0.49278 0.14472 0.4329 0.0
C273 C 0.50431 0.13901 0.62486 0.0
C274 C 0.49947 0.12172 0.59608 0.0
C275 C 0.49526 0.1242 0.53412 0.0
C276 C 0.50009 0.10083 0.62825 0.0
C277 C 0.51012 0.1374 0.69039 0.0
C278 C 0.5124 0.08654 0.60624 0.0
C279 C 0.51354 0.06698 0.63633 0.0
C280 C 0.50248 0.06125 0.68948 0.0
C281 C 0.48994 0.07547 0.71121 0.0
C282 C 0.48861 0.09502 0.68052 0.0
H283 H 0.51843 0.15113 0.70103 0.0
H284 H 0.49644 0.13573 0.71881 0.0
H285 H 0.51953 0.12404 0.70289 0.0
H286 H 0.52139 0.0906 0.56603 0.0
H287 H 0.52336 0.05643 0.61829 0.0
H288 H 0.28678 0.54925 0.37193 0.0
H289 H 0.31833 0.54433 0.42571 0.0
H290 H 0.32142 0.48402 0.37474 0.0
H291 H 0.28974 0.48891 0.32043 0.0
H292 H 0.32656 0.48669 0.50025 0.0
H293 H 0.37603 0.54167 0.36161 0.0
H294 H 0.35277 0.55211 0.38164 0.0
H295 H 0.35281 0.53222 0.33382 0.0
C296 C 0.29435 0.53506 0.37138 0.0
C297 C 0.28588 0.51953 0.34176 0.0
C298 C 0.31242 0.5323 0.40189 0.0
C299 C 0.32238 0.51392 0.40355 0.0
C300 C 0.31406 0.49839 0.37352 0.0
H301 H 0.4382 0.49699 0.58681 0.0
H302 H 0.41197 0.49705 0.51077 0.0
C303 C 0.296 0.50122 0.34244 0.0
C304 C 0.34066 0.51062 0.44049 0.0
H305 H 0.38715 0.53053 0.46176 0.0
C306 C 0.33993 0.49605 0.49133 0.0
C307 C 0.35816 0.52272 0.42857 0.0
C308 C 0.36014 0.53794 0.37312 0.0
C309 C 0.35583 0.49399 0.53219 0.0
C310 C 0.37284 0.50692 0.52217 0.0
C311 C 0.37402 0.52076 0.4697 0.0
C312 C 0.38893 0.50712 0.56755 0.0
C313 C 0.35419 0.4782 0.58639 0.0
C314 C 0.38477 0.51319 0.62414 0.0
C315 C 0.39972 0.51341 0.66741 0.0
C316 C 0.41925 0.50752 0.65524 0.0
C317 C 0.42344 0.50176 0.59788 0.0
C318 C 0.40844 0.50167 0.55438 0.0
H319 H 0.34294 0.4662 0.57953 0.0
H320 H 0.3688 0.47105 0.59666 0.0
H321 H 0.34949 0.48551 0.62611 0.0
H322 H 0.36992 0.51788 0.63478 0.0
H323 H 0.39593 0.51838 0.71027 0.0
H324 H 0.97925 0.29088 0.39685 0.0
H325 H 0.9825 0.32028 0.45177 0.0
H326 H 0.03676 0.33859 0.35385 0.0
H327 H 0.03377 0.30865 0.29943 0.0
H328 H 0.04106 0.34087 0.47266 0.0
H329 H 0.97139 0.37861 0.39862 0.0
H330 H 0.96636 0.3529 0.42934 0.0
H331 H 0.98137 0.35823 0.36197 0.0
C332 C 0.99176 0.30129 0.38648 0.0
C333 C 0.00617 0.29755 0.34362 0.0
C334 C 0.99354 0.31819 0.41764 0.0
C335 C 0.00963 0.33196 0.40612 0.0
C336 C 0.0241 0.3283 0.36311 0.0
H337 H 0.00474 0.44172 0.58799 0.0
H338 H 0.00723 0.41927 0.50993 0.0
C339 C 0.02237 0.31123 0.33195 0.0
C340 C 0.01169 0.34941 0.44179 0.0
H341 H 0.98526 0.38753 0.49173 0.0
C342 C 0.02899 0.35128 0.4761 0.0
C343 C 0.99616 0.36332 0.44553 0.0
C344 C 0.97789 0.36331 0.40633 0.0
C345 C 0.03069 0.36592 0.51639 0.0
C346 C 0.01443 0.37869 0.52386 0.0
C347 C 0.99761 0.37755 0.48704 0.0
C348 C 0.01414 0.3927 0.57116 0.0
C349 C 0.04992 0.36748 0.55052 0.0
C350 C 0.01705 0.38532 0.6319 0.0
C351 C 0.01593 0.39821 0.6768 0.0
C352 C 0.01148 0.41881 0.6624 0.0
C353 C 0.00844 0.42611 0.60135 0.0
C354 C 0.00975 0.41322 0.55638 0.0
H355 H 0.06273 0.36226 0.52515 0.0
H356 H 0.05312 0.38325 0.55976 0.0
H357 H 0.04876 0.35763 0.59412 0.0
H358 H 0.01989 0.36945 0.6449 0.0
H359 H 0.01854 0.39186 0.72279 0.0
H360 H 0.81426 1.00387 0.16036 0.0
H361 H 0.84783 0.00758 0.11479 0.0
H362 H 0.82833 0.97341 0.97279 0.0
H363 H 0.79493 0.96978 0.01768 0.0
H364 H 0.87481 0.97686 0.08673 0.0
H365 H 0.85203 0.02599 0.8816 0.0
H366 H 0.83658 0.02173 0.94848 0.0
H367 H 0.83736 1.00306 0.8967 0.0
C368 C 0.81718 0.99714 0.11951 0.0
C369 C 0.80197 0.9866 0.09233 0.0
C370 C 0.83634 0.99927 0.09353 0.0
C371 C 0.84048 0.99106 0.03981 0.0
C372 C 0.82539 0.98021 0.01353 0.0
H373 H 0.93987 0.98279 0.79637 0.0
H374 H 0.90777 0.9808 0.84975 0.0
C375 C 0.80634 0.97805 0.03943 0.0
C376 C 0.86056 0.99359 0.011 0.0
H377 H 0.88442 0.0121 0.8799 0.0
C378 C 0.87699 0.98473 0.04177 0.0
C379 C 0.86335 1.00382 0.95224 0.0
C380 C 0.84644 0.01436 0.91793 0.0
C381 C 0.896 0.98525 0.01455 0.0
C382 C 0.89871 0.99523 0.95538 0.0
C383 C 0.88233 0.00436 0.92508 0.0
C384 C 0.91836 0.99623 0.92376 0.0
C385 C 0.91285 0.97453 0.04861 0.0
C386 C 0.93496 0.00576 0.94722 0.0
C387 C 0.95334 0.00689 0.91688 0.0
C388 C 0.95549 0.99865 0.86211 0.0
C389 C 0.93878 0.98926 0.83845 0.0
C390 C 0.92041 0.98812 0.8689 0.0
H391 H 0.90725 0.96336 0.08616 0.0
H392 H 0.92222 0.96656 0.01821 0.0
H393 H 0.92245 0.98582 0.06817 0.0
H394 H 0.93367 0.01253 0.98874 0.0
H395 H 0.96585 0.01434 0.93627 0.0
H396 H 0.54629 0.78275 0.0041 0.0
H397 H 0.54275 0.81791 0.95998 0.0
H398 H 0.5152 0.83192 0.12433 0.0
H399 H 0.51897 0.79671 0.16909 0.0
H400 H 0.50761 0.83884 0.94076 0.0
H401 H 0.55803 0.87676 0.09124 0.0
H402 H 0.5582 0.84983 0.08755 0.0
H403 H 0.53893 0.86059 0.12905 0.0
C404 C 0.53963 0.79339 0.03102 0.0
C405 C 0.53299 0.78704 0.09003 0.0
C406 C 0.53759 0.81344 0.00574 0.0
C407 C 0.52891 0.82761 0.03902 0.0
C408 C 0.52228 0.82134 0.0982 0.0
H409 H 0.50201 0.95489 0.94202 0.0
H410 H 0.50534 0.92062 0.99363 0.0
C411 C 0.52435 0.8012 0.12363 0.0
C412 C 0.5262 0.84869 0.01043 0.0
H413 H 0.53977 0.89798 0.0197 0.0
C414 C 0.51466 0.85177 0.95799 0.0
C415 C 0.53535 0.86555 0.03308 0.0
C416 C 0.54847 0.8631 0.08803 0.0
C417 C 0.51195 0.87122 0.9277 0.0
C418 C 0.52133 0.88806 0.94982 0.0
C419 C 0.53265 0.88504 0.00273 0.0
C420 C 0.51962 0.9089 0.91846 0.0
C421 C 0.49882 0.87362 0.87275 0.0
C422 C 0.52682 0.91379 0.8593 0.0
C423 C 0.52493 0.93337 0.82956 0.0
C424 C 0.51588 0.94849 0.85855 0.0
C425 C 0.50898 0.94361 0.91821 0.0
C426 C 0.5109 0.92403 0.94788 0.0
H427 H 0.48868 0.86028 0.8711 0.0
H428 H 0.48966 0.88736 0.87173 0.0
H429 H 0.50834 0.87518 0.83166 0.0
H430 H 0.53397 0.90245 0.83614 0.0
H431 H 0.53052 0.93663 0.78382 0.0
H432 H 0.73812 0.55285 0.11492 0.0
H433 H 0.70635 0.54974 0.06316 0.0
H434 H 0.6938 0.49309 0.17321 0.0
H435 H 0.72519 0.49672 0.22704 0.0
H436 H 0.69621 0.52291 0.99491 0.0
H437 H 0.64046 0.51799 0.17959 0.0
H438 H 0.66613 0.52546 0.18985 0.0
H439 H 0.6591 0.49909 0.19313 0.0
C440 C 0.72835 0.53996 0.12889 0.0
C441 C 0.73402 0.52513 0.1752 0.0
C442 C 0.71022 0.53815 0.09919 0.0
C443 C 0.69745 0.52129 0.11453 0.0
C444 C 0.70302 0.50653 0.16151 0.0
H445 H 0.61443 0.4805 0.85482 0.0
H446 H 0.64195 0.48454 0.92411 0.0
C447 C 0.72105 0.50854 0.19207 0.0
C448 C 0.67929 0.51848 0.07781 0.0
H449 H 0.62904 0.50827 0.08558 0.0
C450 C 0.68152 0.51986 0.01491 0.0
C451 C 0.66 0.51474 0.10347 0.0
C452 C 0.65622 0.51445 0.17015 0.0
C453 C 0.66519 0.51743 0.97717 0.0
C454 C 0.64608 0.51266 0.00297 0.0
C455 C 0.64372 0.5116 0.06578 0.0
C456 C 0.62846 0.50885 0.9652 0.0
C457 C 0.6686 0.52048 0.90983 0.0
C458 C 0.61114 0.52031 0.96754 0.0
C459 C 0.59518 0.5177 0.92866 0.0
C460 C 0.59634 0.5037 0.88647 0.0
C461 C 0.61332 0.49169 0.88601 0.0
C462 C 0.62908 0.49406 0.92543 0.0
H463 H 0.68206 0.53015 0.89754 0.0
H464 H 0.67101 0.5056 0.89363 0.0
H465 H 0.65558 0.52759 0.88588 0.0
H466 H 0.61022 0.53171 0.99815 0.0
H467 H 0.58228 0.52717 0.92989 0.0
H468 H 1.00138 0.70073 0.24702 0.0
H469 H 0.00785 0.67123 0.19382 0.0
H470 H 0.95763 0.68602 0.07826 0.0
H471 H 0.95119 0.71551 0.13076 0.0
H472 H 0.96185 0.64242 0.12696 0.0
H473 H 0.02972 0.67922 0.01369 0.0
H474 H 0.02775 0.67852 0.09429 0.0
H475 H 0.01087 0.69354 0.04673 0.0
C476 C 0.99158 0.69752 0.21082 0.0
C477 C 0.97578 0.71041 0.19285 0.0
C478 C 0.99533 0.68073 0.18035 0.0
C479 C 0.98328 0.67654 0.13186 0.0
C480 C 0.96709 0.68898 0.11555 0.0
H481 H 0.99273 0.61444 0.82216 0.0
H482 H 0.98887 0.63747 0.89796 0.0
C483 C 0.96344 0.7058 0.14552 0.0
C484 C 0.98799 0.65994 0.09566 0.0
H485 H 0.0198 0.64748 0.98664 0.0
C486 C 0.97467 0.64334 0.09689 0.0
C487 C 0.00461 0.66134 0.05601 0.0
C488 C 0.01907 0.67913 0.05197 0.0
C489 C 0.97737 0.62824 0.05876 0.0
C490 C 0.99379 0.62985 0.01841 0.0
C491 C 0.0073 0.64626 0.01792 0.0
C492 C 0.99637 0.6155 0.97313 0.0
C493 C 0.96228 0.61107 0.06007 0.0
C494 C 1.00202 0.59548 0.9902 0.0
C495 C 0.00453 0.5822 0.94666 0.0
C496 C 1.00137 0.58869 0.8851 0.0
C497 C 0.99564 0.60883 0.8686 0.0
C498 C 0.99329 0.62207 0.91203 0.0
H499 H 0.94916 0.61326 0.08895 0.0
H500 H 0.95704 0.60951 0.01375 0.0
H501 H 0.96941 0.5967 0.07778 0.0
H502 H 0.00466 0.59018 0.03715 0.0
H503 H 0.00917 0.56697 0.96136 0.0
H504 H 0.04345 0.18306 0.34931 0.0
H505 H 0.03622 0.15544 0.42873 0.0
H506 H 0.98564 0.18747 0.48627 0.0
H507 H 0.9923 0.21491 0.40492 0.0
H508 H 0.03357 0.15357 0.55104 0.0
H509 H 0.96065 0.13355 0.45329 0.0
H510 H 0.97843 0.15088 0.41285 0.0
H511 H 0.96318 0.15906 0.47129 0.0
C512 C 0.03075 0.18423 0.37878 0.0
C513 C 0.01825 0.201 0.37027 0.0
C514 C 0.02672 0.1685 0.42438 0.0
C515 C 0.01016 0.16924 0.46255 0.0
C516 C 0.99824 0.18643 0.45639 0.0
H517 H 0.99893 0.07276 0.76444 0.0
H518 H 0.99861 0.10635 0.70695 0.0
C519 C 1.00221 0.20219 0.41042 0.0
C520 C 0.00523 0.15155 0.50709 0.0
H521 H 0.97083 0.11328 0.54081 0.0
C522 C 0.01977 0.14485 0.54934 0.0
C523 C 0.9873 0.14012 0.50403 0.0
C524 C 0.97153 0.1461 0.45768 0.0
C525 C 0.01716 0.1267 0.58752 0.0
C526 C 0.99924 0.11523 0.58444 0.0
C527 C 0.98446 0.12221 0.54331 0.0
C528 C 0.99632 0.09519 0.62013 0.0
C529 C 0.03407 0.11949 0.62853 0.0
C530 C 0.99385 0.07784 0.5906 0.0
C531 C 0.99366 0.05862 0.62341 0.0
C532 C 0.99608 0.0565 0.6862 0.0
C533 C 0.99732 0.07394 0.71595 0.0
C534 C 0.99725 0.09313 0.6832 0.0
H535 H 0.04837 0.12753 0.61501 0.0
H536 H 0.03051 0.12238 0.67523 0.0
H537 H 0.03622 0.10299 0.62865 0.0
H538 H 0.99299 0.07913 0.54191 0.0
H539 H 0.99267 0.04546 0.5993 0.0
H540 H 0.29856 0.97779 0.49818 0.0
H541 H 0.3256 0.97141 0.57137 0.0
H542 H 0.35516 0.02708 0.49721 0.0
H543 H 0.32813 0.03369 0.42525 0.0
H544 H 0.36521 0.96654 0.54046 0.0
H545 H 0.35864 0.02992 0.67767 0.0
H546 H 0.33864 0.02241 0.63063 0.0
H547 H 0.35881 0.03854 0.59852 0.0
C548 C 0.31058 0.98889 0.49872 0.0
C549 C 0.31131 0.00622 0.45609 0.0
C550 C 0.32604 0.98518 0.54017 0.0
C551 C 0.34226 0.99887 0.54002 0.0
C552 C 0.34261 0.0165 0.49886 0.0
H553 H 0.4657 0.98842 0.61691 0.0
H554 H 0.43202 0.98603 0.57626 0.0
C555 C 0.32725 0.02018 0.45745 0.0
C556 C 0.35975 0.99412 0.57891 0.0
H557 H 0.39094 0.01471 0.67615 0.0
C558 C 0.37068 0.97685 0.57106 0.0
C559 C 0.3667 0.00742 0.61936 0.0
C560 C 0.35495 0.02549 0.63256 0.0
C561 C 0.38901 0.97316 0.60003 0.0
C562 C 0.3967 0.98733 0.63681 0.0
C563 C 0.38518 1.00396 0.64732 0.0
C564 C 0.41704 0.98596 0.66239 0.0
C565 C 0.40002 0.95427 0.5904 0.0
C566 C 0.41983 0.98674 0.72421 0.0
C567 C 0.43901 0.9884 0.74732 0.0
C568 C 0.4558 0.9893 0.70902 0.0
C569 C 0.45306 0.98761 0.64755 0.0
C570 C 0.43382 0.98612 0.62435 0.0
H571 H 0.38958 0.94213 0.57903 0.0
H572 H 0.41061 0.95777 0.55209 0.0
H573 H 0.40861 0.94849 0.63098 0.0
H574 H 0.40711 0.98669 0.75434 0.0
H575 H 0.44063 0.98959 0.79498 0.0
H576 H 0.5232 0.30853 0.46509 0.0
H577 H 0.52974 0.33492 0.53105 0.0
H578 H 0.47089 0.35819 0.4943 0.0
H579 H 0.46432 0.33191 0.42903 0.0
H580 H 0.52893 0.37639 0.48582 0.0
H581 H 0.47607 0.35887 0.67676 0.0
H582 H 0.48335 0.34021 0.62885 0.0
H583 H 0.4644 0.35812 0.60494 0.0
C584 C 0.51149 0.31891 0.4728 0.0
C585 C 0.49327 0.31827 0.4422 0.0
C586 C 0.51527 0.334 0.51006 0.0
C587 C 0.50074 0.34837 0.51785 0.0
C588 C 0.48217 0.34704 0.48976 0.0
H589 H 0.48183 0.46318 0.63161 0.0
H590 H 0.48191 0.43125 0.58813 0.0
C591 C 0.47846 0.33211 0.45229 0.0
C592 C 0.50551 0.36619 0.54921 0.0
H593 H 0.48797 0.39339 0.65742 0.0
C594 C 0.52029 0.37998 0.52415 0.0
C595 C 0.49415 0.37078 0.59898 0.0
C596 C 0.47873 0.35612 0.62935 0.0
C597 C 0.52318 0.39883 0.54538 0.0
C598 C 0.51116 0.40378 0.59335 0.0
C599 C 0.49703 0.3896 0.62019 0.0
C600 C 0.51216 0.42397 0.61462 0.0
C601 C 0.53833 0.41368 0.51442 0.0
C602 C 0.52934 0.43064 0.64267 0.0
C603 C 0.52941 0.449 0.66727 0.0
C604 C 0.51221 0.46083 0.66464 0.0
C605 C 0.49531 0.45442 0.63445 0.0
C606 C 0.49529 0.43614 0.6098 0.0
H607 H 0.5436 0.40904 0.47101 0.0
H608 H 0.53196 0.429 0.50572 0.0
H609 H 0.55145 0.41466 0.54413 0.0
H610 H 0.54243 0.42133 0.64748 0.0
H611 H 0.54261 0.45345 0.69062 0.0
H612 H 0.17376 0.47947 0.36753 0.0
H613 H 0.14805 0.48552 0.44078 0.0
H614 H 0.17498 0.54385 0.45902 0.0
H615 H 0.20085 0.53788 0.38499 0.0
H616 H 0.15147 0.49649 0.56419 0.0
H617 H 0.11593 0.55477 0.40101 0.0
H618 H 0.13336 0.537 0.37686 0.0
H619 H 0.14219 0.55743 0.41585 0.0
C620 C 0.17433 0.49347 0.38773 0.0
C621 C 0.18913 0.50829 0.37042 0.0
C622 C 0.1597 0.49689 0.42956 0.0
C623 C 0.15953 0.51522 0.45452 0.0
C624 C 0.17482 0.5297 0.43963 0.0
H625 H 0.05626 0.5462 0.66931 0.0
H626 H 0.08806 0.54984 0.61375 0.0
C627 C 0.18961 0.52622 0.39787 0.0
C628 C 0.14256 0.51925 0.4934 0.0
H629 H 0.09821 0.54369 0.49009 0.0
C630 C 0.13999 0.50707 0.5486 0.0
C631 C 0.12767 0.53311 0.47279 0.0
C632 C 0.12973 0.54633 0.4133 0.0
C633 C 0.12247 0.50777 0.58265 0.0
C634 C 0.10704 0.52068 0.56018 0.0
C635 C 0.11007 0.53373 0.50678 0.0
C636 C 0.0871 0.51942 0.58896 0.0
C637 C 0.12038 0.49427 0.64166 0.0
C638 C 0.07574 0.50143 0.59093 0.0
C639 C 0.05765 0.49932 0.6222 0.0
C640 C 0.05052 0.51522 0.65191 0.0
C641 C 0.06137 0.53368 0.6469 0.0
C642 C 0.07955 0.53577 0.61548 0.0
H643 H 0.13518 0.48988 0.66062 0.0
H644 H 0.112 0.50184 0.67529 0.0
H645 H 0.11205 0.48023 0.63409 0.0
H646 H 0.08115 0.48881 0.5695 0.0
H647 H 0.04959 0.48496 0.62474 0.0
H648 H 0.03541 0.81245 0.21516 0.0
H649 H 0.0417 0.84062 0.13599 0.0
H650 H 0.98885 0.82371 0.04308 0.0
H651 H 0.98241 0.79549 0.12239 0.0
H652 H 0.04312 0.84413 0.99775 0.0
H653 H 0.98057 0.8819 0.10196 0.0
H654 H 0.99317 0.86059 0.14128 0.0
H655 H 0.97583 0.85677 0.08261 0.0
C656 C 0.0254 0.81449 0.1771 0.0
C657 C 0.00832 0.80197 0.17503 0.0
C658 C 0.02905 0.83048 0.13191 0.0
C659 C 0.01563 0.83426 0.08425 0.0
C660 C 0.99933 0.82097 0.07976 0.0
H661 H 0.01515 0.93219 0.79223 0.0
H662 H 0.01676 0.89894 0.85122 0.0
C663 C 0.99572 0.80485 0.12483 0.0
C664 C 0.01733 0.85348 0.0441 0.0
H665 H 0.99685 0.90015 0.0187 0.0
C666 C 0.03298 0.85638 0.00187 0.0
C667 C 0.00422 0.86943 0.05063 0.0
C668 C 0.98754 0.86721 0.09675 0.0
C669 C 0.03574 0.87494 0.96541 0.0
C670 C 0.02253 0.89083 0.97179 0.0
C671 C 0.00695 0.8879 0.01418 0.0
C672 C 0.02429 0.91067 0.9346 0.0
C673 C 0.05291 0.8776 0.92117 0.0
C674 C 0.02816 0.92823 0.962 0.0
C675 C 0.02723 0.94728 0.92848 0.0
C676 C 0.02215 0.94904 0.86719 0.0
C677 C 0.01902 0.93135 0.83944 0.0
C678 C 0.02006 0.91232 0.87291 0.0
H679 H 0.06398 0.86543 0.93013 0.0
H680 H 0.04711 0.87722 0.87489 0.0
H681 H 0.06058 0.89247 0.92272 0.0
H682 H 0.03133 0.92719 0.00974 0.0
H683 H 0.02968 0.96061 0.95116 0.0
H684 H 0.72115 0.03034 0.04486 0.0
H685 H 0.69384 0.03647 0.97197 0.0
H686 H 0.65901 0.98821 0.07083 0.0
H687 H 0.68612 0.98191 0.14269 0.0
H688 H 0.6587 0.98841 0.94327 0.0
H689 H 0.64069 0.06303 0.01719 0.0
H690 H 0.66599 0.05927 0.99423 0.0
H691 H 0.65611 0.04503 0.06139 0.0
C692 C 0.70775 0.0209 0.05024 0.0
C693 C 0.70558 0.00581 0.09956 0.0
C694 C 0.69215 0.02451 0.00905 0.0
C695 C 0.67434 0.01298 0.01671 0.0
C696 C 0.6726 0.99734 0.06439 0.0
H697 H 0.55165 0.02189 0.93184 0.0
H698 H 0.5853 0.02402 0.97334 0.0
C699 C 0.68804 0.99381 0.10546 0.0
C700 C 0.65702 0.01728 0.97688 0.0
H701 H 0.61887 0.0502 0.94831 0.0
C702 C 0.65013 1.00206 0.94341 0.0
C703 C 0.64583 0.03501 0.97808 0.0
C704 C 0.65236 0.05154 0.01483 0.0
C705 C 0.63194 1.00372 0.91274 0.0
C706 C 0.62053 0.02129 0.9148 0.0
C707 C 0.62774 0.03683 0.94667 0.0
C708 C 0.6004 0.02297 0.888 0.0
C709 C 0.6246 0.98618 0.88111 0.0
C710 C 0.59781 0.02247 0.82602 0.0
C711 C 0.57868 0.02107 0.80237 0.0
C712 C 0.56178 0.02041 0.84023 0.0
C713 C 0.56437 0.02232 0.90163 0.0
C714 C 0.58357 0.02355 0.92535 0.0
H715 H 0.63308 0.97223 0.89461 0.0
H716 H 0.60853 0.98286 0.89088 0.0
H717 H 0.62641 0.99013 0.83172 0.0
H718 H 0.61062 0.02244 0.79629 0.0
H719 H 0.57715 0.0199 0.75467 0.0
H720 H 0.49437 0.66862 0.19341 0.0
H721 H 0.49004 0.64128 0.13158 0.0
H722 H 0.52286 0.67607 0.98674 0.0
H723 H 0.52896 0.70284 0.05086 0.0
H724 H 0.4737 0.63535 0.03257 0.0
H725 H 0.55524 0.62675 0.00416 0.0
H726 H 0.5451 0.64364 0.05305 0.0
H727 H 0.54674 0.65109 0.97296 0.0
C728 C 0.50091 0.67042 0.14864 0.0
C729 C 0.51262 0.68767 0.12796 0.0
C730 C 0.49819 0.65483 0.11296 0.0
C731 C 0.50669 0.65627 0.05513 0.0
C732 C 0.51681 0.67426 0.03209 0.0
H733 H 0.47864 0.56194 0.82525 0.0
H734 H 0.47862 0.59277 0.87428 0.0
C735 C 0.52 0.68973 0.06847 0.0
C736 C 0.50559 0.63846 0.02098 0.0
H737 H 0.5342 0.60569 0.9535 0.0
C738 C 0.48694 0.62885 0.01531 0.0
C739 C 0.52291 0.62973 0.99942 0.0
C740 C 0.54364 0.6382 0.00819 0.0
C741 C 0.48515 0.61062 0.98992 0.0
C742 C 0.50239 0.60226 0.96666 0.0
C743 C 0.52097 0.61209 0.97121 0.0
C744 C 0.50171 0.58318 0.93831 0.0
C745 C 0.46492 0.60017 0.99087 0.0
C746 C 0.5151 0.56768 0.95659 0.0
C747 C 0.51559 0.55032 0.92717 0.0
C748 C 0.5024 0.54797 0.87985 0.0
C749 C 0.48868 0.5632 0.86253 0.0
C750 C 0.48859 0.5808 0.89077 0.0
H751 H 0.45529 0.60464 0.02743 0.0
H752 H 0.45731 0.60465 0.94752 0.0
H753 H 0.46621 0.58346 0.99726 0.0
H754 H 0.52542 0.56915 0.99306 0.0
H755 H 0.52639 0.53882 0.94106 0.0
H756 H 0.83301 0.46179 0.23541 0.0
H757 H 0.86054 0.45633 0.16718 0.0
H758 H 0.84641 0.51148 0.05546 0.0
H759 H 0.8187 0.51691 0.12335 0.0
H760 H 0.85978 0.47898 0.9906 0.0
H761 H 0.90971 0.49447 0.17875 0.0
H762 H 0.89191 0.47403 0.19603 0.0
H763 H 0.88335 0.49944 0.17907 0.0
C764 C 0.83549 0.47246 0.19542 0.0
C765 C 0.82393 0.48989 0.18485 0.0
C766 C 0.85121 0.46936 0.15669 0.0
C767 C 0.85572 0.48374 0.10718 0.0
C768 C 0.84317 0.50027 0.09367 0.0
H769 H 0.96494 0.52148 0.92803 0.0
H770 H 0.93458 0.51657 0.98916 0.0
C771 C 0.82733 0.50332 0.13227 0.0
C772 C 0.87467 0.48281 0.07367 0.0
H773 H 0.92516 0.48749 0.08903 0.0
C774 C 0.8741 0.48066 0.01205 0.0
C775 C 0.89328 0.48531 0.10189 0.0
C776 C 0.89472 0.48862 0.16743 0.0
C777 C 0.89174 0.48105 0.97768 0.0
C778 C 0.91032 0.48347 0.00604 0.0
C779 C 0.91087 0.48543 0.06773 0.0
C780 C 0.92927 0.48566 0.9716 0.0
C781 C 0.89035 0.47964 0.91095 0.0
C782 C 0.93662 0.46967 0.94296 0.0
C783 C 0.95407 0.47238 0.90808 0.0
C784 C 0.96438 0.49115 0.90138 0.0
C785 C 0.95733 0.50686 0.93209 0.0
C786 C 0.93997 0.5041 0.96699 0.0
H787 H 0.87483 0.4815 0.89424 0.0
H788 H 0.90012 0.49133 0.88525 0.0
H789 H 0.89549 0.46459 0.90155 0.0
H790 H 0.92873 0.45521 0.94693 0.0
H791 H 0.95912 0.45999 0.88501 0.0
H792 H 0.06299 0.21873 0.15325 0.0
H793 H 0.06854 0.19436 0.08094 0.0
H794 H 0.00493 0.18408 0.0707 0.0
H795 H 0.9995 0.20878 0.14111 0.0
H796 H 0.05989 0.15624 0.10992 0.0
H797 H 0.01948 0.17967 0.90006 0.0
H798 H 0.02507 0.19705 0.95414 0.0
H799 H 1.00326 0.18061 0.96351 0.0
C800 C 0.05023 0.2121 0.13269 0.0
C801 C 0.03081 0.21592 0.15151 0.0
C802 C 0.05338 0.19799 0.09196 0.0
C803 C 0.03716 0.1874 0.06974 0.0
C804 C 0.0177 0.19236 0.0855 0.0
H805 H 0.02482 0.06248 0.03734 0.0
H806 H 0.02826 0.09658 0.06528 0.0
C807 C 0.01457 0.20653 0.12579 0.0
C808 C 0.04046 0.16896 0.03931 0.0
H809 H 0.02327 0.14324 0.92567 0.0
C810 C 0.05221 0.15363 0.06885 0.0
C811 C 0.03069 0.16545 0.98533 0.0
C812 C 0.01911 0.1817 0.94867 0.0
C813 C 0.05346 0.1346 0.04813 0.0
C814 C 0.04227 0.13051 0.99727 0.0
C815 C 0.03156 0.14621 0.96535 0.0
C816 C 0.04044 0.10973 0.97929 0.0
C817 C 0.06656 0.11895 0.08168 0.0
C818 C 0.04557 0.10575 0.92091 0.0
C819 C 0.04356 0.0861 0.90458 0.0
C820 C 0.03629 0.07006 0.9463 0.0
C821 C 0.03096 0.07423 0.00445 0.0
C822 C 0.0329 0.09381 0.02057 0.0
H823 H 0.07891 0.12617 0.10499 0.0
H824 H 0.0575 0.10954 0.11653 0.0
H825 H 0.07307 0.10887 0.05091 0.0
H826 H 0.05128 0.11782 0.88812 0.0
H827 H 0.04785 0.08346 0.85951 0.0
H828 H 0.30979 0.04903 0.24811 0.0
H829 H 0.33418 0.0508 0.16594 0.0
H830 H 0.31682 0.99039 0.13279 0.0
H831 H 0.29239 0.98863 0.21558 0.0
H832 H 0.35634 0.99411 0.16057 0.0
H833 H 0.33731 0.05565 0.98275 0.0
H834 H 0.33622 0.0634 0.05686 0.0
H835 H 0.31918 0.04406 0.03699 0.0
C836 C 0.31049 0.03656 0.22119 0.0
C837 C 0.29905 0.01881 0.23747 0.0
C838 C 0.32447 0.03755 0.17426 0.0
C839 C 0.3273 0.02078 0.14279 0.0
C840 C 0.31479 1.00358 0.15609 0.0
H841 H 0.42715 0.01317 0.88912 0.0
H842 H 0.39346 0.01327 0.93166 0.0
C843 C 0.3007 1.00264 0.20293 0.0
C844 C 0.34538 0.02001 0.10428 0.0
H845 H 0.37192 0.04613 0.98793 0.0
C846 C 0.35956 0.00528 0.12215 0.0
C847 C 0.34965 0.03457 0.05412 0.0
C848 C 0.33469 0.0502 0.03114 0.0
C849 C 0.37816 0.00525 0.09308 0.0
C850 C 0.38285 0.02046 0.04513 0.0
C851 C 0.36838 0.03464 0.02523 0.0
C852 C 0.40303 0.02216 0.01706 0.0
C853 C 0.39287 0.98916 0.11461 0.0
C854 C 0.41953 0.02764 0.05041 0.0
C855 C 0.4388 0.02781 0.02612 0.0
C856 C 0.44206 0.02241 0.9679 0.0
C857 C 0.42534 0.01759 0.9338 0.0
C858 C 0.40602 0.01754 0.95813 0.0
H859 H 0.38552 0.97611 0.14245 0.0
H860 H 0.40053 0.98357 0.07587 0.0
H861 H 0.40438 0.99572 0.14254 0.0
H862 H 0.4175 0.03151 0.09574 0.0
H863 H 0.45118 0.03198 0.05333 0.0
H864 H 0.50858 0.30474 0.1895 0.0
H865 H 0.50901 0.33174 0.1043 0.0
H866 H 0.45357 0.35377 0.16677 0.0
H867 H 0.45309 0.3269 0.25171 0.0
H868 H 0.47582 0.35038 0.01001 0.0
H869 H 0.50296 0.39638 0.18692 0.0
H870 H 0.50494 0.36919 0.19438 0.0
H871 H 0.48123 0.38036 0.20437 0.0
C872 C 0.49602 0.31476 0.18329 0.0
C873 C 0.4808 0.3138 0.22701 0.0
C874 C 0.49635 0.33024 0.13493 0.0
C875 C 0.48142 0.34482 0.12982 0.0
C876 C 0.46522 0.34266 0.17009 0.0
H877 H 0.46621 0.45427 0.8798 0.0
H878 H 0.46116 0.42226 0.94484 0.0
C879 C 0.46491 0.32727 0.21835 0.0
C880 C 0.48429 0.36389 0.0891 0.0
H881 H 0.49784 0.41357 0.09021 0.0
C882 C 0.48062 0.36422 0.02731 0.0
C883 C 0.49076 0.38182 0.11199 0.0
C884 C 0.49535 0.38206 0.17796 0.0
C885 C 0.48307 0.38221 0.98772 0.0
C886 C 0.48916 0.40025 0.0109 0.0
C887 C 0.49305 0.39977 0.07263 0.0
C888 C 0.49205 0.41975 0.97184 0.0
C889 C 0.47947 0.38171 0.92135 0.0
C890 C 0.51095 0.4293 0.96705 0.0
C891 C 0.51387 0.44765 0.93033 0.0
C892 C 0.49789 0.45691 0.89794 0.0
C893 C 0.47884 0.44756 0.90407 0.0
C894 C 0.47596 0.42915 0.94074 0.0
H895 H 0.47943 0.36602 0.90908 0.0
H896 H 0.46473 0.38828 0.90947 0.0
H897 H 0.49103 0.39085 0.89395 0.0
H898 H 0.52353 0.42239 0.99111 0.0
H899 H 0.52873 0.45441 0.92667 0.0
H900 H 0.19139 0.46269 0.18739 0.0
H901 H 0.16546 0.45874 0.11238 0.0
H902 H 0.17087 0.52247 0.04963 0.0
H903 H 0.19722 0.52615 0.12308 0.0
H904 H 0.13087 0.47609 0.11833 0.0
H905 H 0.16252 0.50091 0.89243 0.0
H906 H 0.17807 0.49482 0.95753 0.0
H907 H 0.16725 0.51946 0.94279 0.0
C908 C 0.18774 0.47556 0.15526 0.0
C909 C 0.19657 0.49461 0.15977 0.0
C910 C 0.17277 0.47338 0.11293 0.0
C911 C 0.16623 0.49027 0.07484 0.0
C912 C 0.17594 0.50908 0.0771 0.0
H913 H 0.05831 0.52759 0.89423 0.0
H914 H 0.09001 0.524 0.94786 0.0
C915 C 0.19106 0.5112 0.11901 0.0
C916 C 0.14751 0.48891 0.03966 0.0
H917 H 0.12662 0.5025 0.90188 0.0
C918 C 0.13006 0.48151 0.07071 0.0
C919 C 0.14634 0.49607 0.97755 0.0
C920 C 0.16461 0.50306 0.94057 0.0
C921 C 0.11145 0.48178 0.04203 0.0
C922 C 0.11021 0.48966 0.98072 0.0
C923 C 0.12764 0.4966 0.94911 0.0
C924 C 0.09079 0.49151 0.94933 0.0
C925 C 0.09307 0.47434 0.07785 0.0
C926 C 0.08066 0.47437 0.93289 0.0
C927 C 0.06253 0.47634 0.90207 0.0
C928 C 0.05416 0.49551 0.88743 0.0
C929 C 0.06423 0.51259 0.90504 0.0
C930 C 0.08242 0.5106 0.93539 0.0
H931 H 0.09623 0.47071 0.12664 0.0
H932 H 0.08132 0.48592 0.07219 0.0
H933 H 0.08704 0.46048 0.06068 0.0
H934 H 0.08694 0.4595 0.94316 0.0
H935 H 0.05522 0.46289 0.88897 0.0
H936 H 0.02316 0.80367 0.39151 0.0
H937 H 0.01733 0.82761 0.46375 0.0
H938 H 0.95563 0.80784 0.48004 0.0
H939 H 0.96139 0.78412 0.40591 0.0
H940 H 0.95845 0.84734 0.44945 0.0
H941 H 0.00921 0.82889 0.64021 0.0
H942 H 0.02281 0.83011 0.57067 0.0
H943 H 1.00339 0.81109 0.5875 0.0
C944 C 0.00852 0.8039 0.41219 0.0
C945 C 0.99272 0.79206 0.39308 0.0
C946 C 0.00521 0.81755 0.45385 0.0
C947 C 0.98606 0.8195 0.47793 0.0
C948 C 0.97056 0.80655 0.46235 0.0
H949 H 0.97376 0.921 0.69628 0.0
H950 H 0.97153 0.88667 0.66747 0.0
C951 C 0.97389 0.79286 0.42043 0.0
C952 C 0.9818 0.8371 0.51104 0.0
H953 H 1.00068 0.86453 0.6185 0.0
C954 C 0.96739 0.85083 0.48734 0.0
C955 C 0.99322 0.8417 0.56101 0.0
C956 C 0.00786 0.82702 0.59165 0.0
C957 C 0.96508 0.86954 0.50941 0.0
C958 C 0.97778 0.87489 0.55562 0.0
C959 C 0.99119 0.86061 0.58229 0.0
C960 C 0.97843 0.89573 0.5734 0.0
C961 C 0.94931 0.88358 0.48202 0.0
C962 C 0.98327 0.91222 0.53033 0.0
C963 C 0.98467 0.93182 0.54662 0.0
C964 C 0.98138 0.93545 0.60662 0.0
C965 C 0.97654 0.91885 0.64979 0.0
C966 C 0.97517 0.89918 0.63338 0.0
H967 H 0.93691 0.87504 0.46302 0.0
H968 H 0.94305 0.89273 0.51575 0.0
H969 H 0.95605 0.89403 0.44465 0.0
H970 H 0.98639 0.9099 0.4841 0.0
H971 H 0.98887 0.94401 0.51223 0.0
H972 H 0.72472 0.96538 0.33648 0.0
H973 H 0.70004 0.96017 0.41882 0.0
H974 H 0.68632 0.02358 0.39073 0.0
H975 H 0.71111 0.0288 0.30952 0.0
H976 H 0.68207 0.00675 0.51223 0.0
H977 H 0.64273 0.96099 0.35437 0.0
H978 H 0.66692 0.95237 0.37882 0.0
H979 H 0.66472 0.97618 0.33247 0.0
C980 C 0.71715 0.97834 0.3501 0.0
C981 C 0.7198 0.99749 0.31694 0.0
C982 C 0.70286 0.97532 0.39651 0.0
C983 C 0.69098 0.9914 0.40987 0.0
C984 C 0.69522 0.01093 0.38111 0.0
H985 H 0.5683 1.00197 0.48866 0.0
H986 H 0.60208 1.00061 0.44924 0.0
C987 C 0.70948 0.01394 0.33495 0.0
C988 C 0.67234 0.9877 0.44628 0.0
H989 H 0.62535 0.96705 0.44112 0.0
C990 C 0.66975 0.9978 0.49739 0.0
C991 C 0.65614 0.97632 0.42607 0.0
C992 C 0.65759 0.96595 0.36971 0.0
C993 C 0.65128 0.99722 0.52793 0.0
C994 C 0.63505 0.98606 0.50713 0.0
C995 C 0.63784 0.97549 0.45716 0.0
C996 C 0.61456 0.98662 0.53267 0.0
C997 C 0.64899 0.00936 0.5803 0.0
C998 C 0.61021 0.979 0.59271 0.0
C999 C 0.59073 0.97965 0.61552 0.0
C1000 C 0.57519 0.98783 0.5786 0.0
C1001 C 0.57968 0.99526 0.51833 0.0
C1002 C 0.59908 0.99462 0.4957 0.0
H1003 H 0.66175 0.02008 0.58356 0.0
H1004 H 0.63499 0.01805 0.57624 0.0
H1005 H 0.64814 0.99892 0.62283 0.0
H1006 H 0.62183 0.9724 0.62178 0.0
H1007 H 0.58782 0.97356 0.66186 0.0
H1008 H 0.56137 0.6898 0.31466 0.0
H1009 H 0.56213 0.66262 0.39877 0.0
H1010 H 0.50243 0.67683 0.4496 0.0
H1011 H 0.50165 0.70404 0.36533 0.0
H1012 H 0.53583 0.66057 0.55036 0.0
H1013 H 0.51756 0.61588 0.36135 0.0
H1014 H 0.53761 0.63443 0.35067 0.0
H1015 H 0.51245 0.64253 0.35755 0.0
C1016 C 0.5489 0.68788 0.34599 0.0
C1017 C 0.53157 0.69914 0.33431 0.0
C1018 C 0.54926 0.67225 0.39361 0.0
C1019 C 0.53228 0.66769 0.42998 0.0
C1020 C 0.51572 0.68026 0.42221 0.0
H1021 H 0.48716 0.55445 0.61481 0.0
H1022 H 0.49229 0.5871 0.55332 0.0
C1023 C 0.51534 0.6959 0.37448 0.0
C1024 C 0.53044 0.6479 0.4677 0.0
H1025 H 0.52048 0.59789 0.45777 0.0
C1026 C 0.53257 0.64683 0.53033 0.0
C1027 C 0.52594 0.6301 0.44119 0.0
C1028 C 0.52313 0.63062 0.37404 0.0
C1029 C 0.53041 0.62825 0.56728 0.0
C1030 C 0.52612 0.6104 0.54062 0.0
C1031 C 0.52388 0.61157 0.47799 0.0
C1032 C 0.52335 0.59039 0.57699 0.0
C1033 C 0.53229 0.62788 0.63462 0.0
C1034 C 0.53927 0.58116 0.60938 0.0
C1035 C 0.53644 0.5624 0.64419 0.0
C1036 C 0.51762 0.55253 0.64729 0.0
C1037 C 0.50185 0.56161 0.61346 0.0
C1038 C 0.50473 0.5803 0.57844 0.0
H1039 H 0.53153 0.64328 0.64882 0.0
H1040 H 0.52034 0.61818 0.65832 0.0
H1041 H 0.54687 0.62142 0.64908 0.0
H1042 H 0.55386 0.58851 0.60793 0.0
H1043 H 0.54891 0.55586 0.66971 0.0
H1044 H 0.81628 0.53749 0.38535 0.0
H1045 H 0.84308 0.54171 0.45789 0.0
H1046 H 0.84988 0.47707 0.48634 0.0
H1047 H 0.82326 0.47282 0.41395 0.0
H1048 H 0.85376 0.51728 0.59137 0.0
H1049 H 0.90196 0.50866 0.39278 0.0
H1050 H 0.87673 0.51759 0.38509 0.0
H1051 H 0.88106 0.49129 0.40739 0.0
C1052 C 0.82284 0.52417 0.4094 0.0
C1053 C 0.81768 0.50483 0.39448 0.0
C1054 C 0.83823 0.5266 0.4504 0.0
C1055 C 0.84851 0.5097 0.47694 0.0
C1056 C 0.84208 0.49027 0.46632 0.0
H1057 H 0.96079 0.48021 0.63973 0.0
H1058 H 0.92915 0.48248 0.58594 0.0
C1059 C 0.82681 0.48785 0.42532 0.0
C1060 C 0.86773 0.51226 0.50784 0.0
H1061 H 0.91799 0.50918 0.48625 0.0
C1062 C 0.86785 0.51575 0.56846 0.0
C1063 C 0.88602 0.51024 0.47755 0.0
C1064 C 0.88662 0.50685 0.41198 0.0
C1065 C 0.88588 0.51656 0.60029 0.0
C1066 C 0.90418 0.51409 0.57023 0.0
C1067 C 0.90398 0.51108 0.50918 0.0
C1068 C 0.92362 0.51329 0.60199 0.0
C1069 C 0.88519 0.51922 0.66633 0.0
C1070 C 0.9313 0.53005 0.6277 0.0
C1071 C 0.94951 0.52884 0.65842 0.0
C1072 C 0.96036 0.51084 0.66385 0.0
C1073 C 0.95284 0.4943 0.63653 0.0
C1074 C 0.93472 0.49555 0.60583 0.0
H1075 H 0.86988 0.51681 0.68545 0.0
H1076 H 0.89534 0.50855 0.69243 0.0
H1077 H 0.89024 0.53484 0.67224 0.0
H1078 H 0.92319 0.54403 0.6242 0.0
H1079 H 0.95486 0.54186 0.67891 0.0
loop_
_geom_bond_atom_site_label_1
_geom_bond_atom_site_label_2
_geom_bond_distance
_geom_bond_site_symmetry_2
_ccdc_geom_bond_type
H0 C5 0.930 . S
H1 C8 0.930 . S
H2 C10 0.930 . S
H3 C4 1.016 . S
C4 H3 1.016 . S
C4 N11 1.286 . S
C5 H0 0.930 . S
C5 C6 1.397 . S
C5 C7 1.361 . S
C6 C5 1.397 . S
C6 C10 1.390 . S
C7 C5 1.361 . S
C7 C8 1.393 . S
C7 N11 1.413 . S
C8 H1 0.930 . S
C8 C7 1.393 . S
C8 C9 1.399 . S
C9 C8 1.399 . S
C9 C10 1.381 . S
C10 H2 0.930 . S
C10 C6 1.390 . S
C10 C9 1.381 . S
N11 C4 1.286 . S
N11 C7 1.413 . S
H12 C17 0.930 . S
H13 C20 0.930 . S
H14 C22 0.930 . S
H15 C16 1.016 . S
C16 H15 1.016 . S
C16 N23 1.286 . S
C17 H12 0.930 . S
C17 C18 1.397 . S
C17 C19 1.361 . S
C18 C17 1.397 . S
C18 C22 1.390 . S
C19 C17 1.361 . S
C19 C20 1.393 . S
C19 N23 1.413 . S
C20 H13 0.930 . S
C20 C19 1.393 . S
C20 C21 1.399 . S
C21 C20 1.399 . S
C21 C22 1.381 . S
C22 H14 0.930 . S
C22 C18 1.390 . S
C22 C21 1.381 . S
N23 C16 1.286 . S
N23 C19 1.413 . S
H24 C29 0.930 . S
H25 C32 0.930 1_556 S
H26 C34 0.930 . S
H27 C28 1.033 1_556 S
C28 H27 1.033 1_554 S
C28 N35 1.264 1_565 S
C29 H24 0.930 . S
C29 C30 1.405 . S
C29 C31 1.361 . S
C30 C29 1.405 . S
C30 C34 1.381 1_545 S
C31 C29 1.361 . S
C31 C32 1.393 . S
C31 N35 1.413 . S
C32 H25 0.930 1_554 S
C32 C31 1.393 . S
C32 C33 1.401 . S
C33 C32 1.401 . S
C33 C34 1.381 1_545 S
C34 H26 0.930 . S
C34 C30 1.381 1_565 S
C34 C33 1.381 1_565 S
N35 C28 1.264 1_545 S
N35 C31 1.413 . S
H36 C41 0.930 . S
H37 C44 0.930 . S
H38 C46 0.930 . S
H39 C40 1.016 . S
C40 H39 1.016 . S
C40 N47 1.286 . S
C41 H36 0.930 . S
C41 C42 1.397 . S
C41 C43 1.361 . S
C42 C41 1.397 . S
C42 C46 1.390 . S
C43 C41 1.361 . S
C43 C44 1.393 . S
C43 N47 1.413 . S
C44 H37 0.930 . S
C44 C43 1.393 . S
C44 C45 1.399 . S
C45 C44 1.399 . S
C45 C46 1.381 . S
C46 H38 0.930 . S
C46 C42 1.390 . S
C46 C45 1.381 . S
N47 C40 1.286 . S
N47 C43 1.413 . S
H48 C53 0.930 . S
H49 C56 0.930 . S
H50 C58 0.930 . S
H51 C52 1.016 . S
C52 H51 1.016 . S
C52 N59 1.286 . S
C53 H48 0.930 . S
C53 C54 1.397 . S
C53 C55 1.361 . S
C54 C53 1.397 . S
C54 C58 1.390 . S
C55 C53 1.361 . S
C55 C56 1.393 . S
C55 N59 1.413 . S
C56 H49 0.930 . S
C56 C55 1.393 . S
C56 C57 1.399 . S
C57 C56 1.399 . S
C57 C58 1.381 . S
C58 H50 0.930 . S
C58 C54 1.390 . S
C58 C57 1.381 . S
N59 C52 1.286 . S
N59 C55 1.413 . S
H60 C65 0.930 . S
H61 C68 0.930 . S
H62 C70 0.930 . S
H63 C64 1.016 . S
C64 H63 1.016 . S
C64 N71 1.286 . S
C65 H60 0.930 . S
C65 C66 1.397 . S
C65 C67 1.361 . S
C66 C65 1.397 . S
C66 C70 1.390 . S
C67 C65 1.361 . S
C67 C68 1.393 . S
C67 N71 1.413 . S
C68 H61 0.930 . S
C68 C67 1.393 . S
C68 C69 1.399 . S
C69 C68 1.399 . S
C69 C70 1.381 . S
C70 H62 0.930 . S
C70 C66 1.390 . S
C70 C69 1.381 . S
N71 C64 1.286 . S
N71 C67 1.413 . S
H72 C77 0.930 . S
H73 C80 0.930 . S
H74 C82 0.930 . S
H75 C76 1.022 . S
C76 H75 1.022 . S
C76 N83 1.277 1_565 S
C77 H72 0.930 . S
C77 C78 1.397 . S
C77 C79 1.361 . S
C78 C77 1.397 . S
C78 C82 1.390 1_545 S
C79 C77 1.361 . S
C79 C80 1.393 . S
C79 N83 1.413 . S
C80 H73 0.930 . S
C80 C79 1.393 . S
C80 C81 1.405 . S
C81 C80 1.405 . S
C81 C82 1.374 1_545 S
C82 H74 0.930 . S
C82 C78 1.390 1_565 S
C82 C81 1.374 1_565 S
N83 C76 1.277 1_545 S
N83 C79 1.413 . S
H84 C89 0.930 . S
H85 C92 0.930 . S
H86 C94 0.930 . S
H87 C88 1.016 . S
C88 H87 1.016 . S
C88 N95 1.286 . S
C89 H84 0.930 . S
C89 C90 1.397 . S
C89 C91 1.361 . S
C90 C89 1.397 . S
C90 C94 1.390 . S
C91 C89 1.361 . S
C91 C92 1.393 . S
C91 N95 1.413 . S
C92 H85 0.930 . S
C92 C91 1.393 . S
C92 C93 1.399 . S
C93 C92 1.399 . S
C93 C94 1.381 . S
C94 H86 0.930 . S
C94 C90 1.390 . S
C94 C93 1.381 . S
N95 C88 1.286 . S
N95 C91 1.413 . S
Co96 N101 2.057 . S
Co96 O113 2.021 . S
Co96 O116 2.062 . S
Co96 O120 2.117 1_455 S
Co96 O121 2.020 1_545 S
C97 O117 1.259 1_545 S
C97 O120 1.258 . S
Co98 N107 2.057 . S
Co98 O114 2.117 1_655 S
Co98 O115 2.018 1_665 S
Co98 O117 2.021 . S
Co98 O122 2.062 . S
C99 N101 1.316 . S
C99 N102 1.347 . S
C99 H104 0.931 . S
C100 N101 1.375 1_655 S
C100 C103 1.350 1_655 S
C100 H105 0.930 . S
N101 Co96 2.057 . S
N101 C99 1.316 . S
N101 C100 1.375 1_455 S
N102 C99 1.347 . S
N102 C103 1.373 . S
C103 C100 1.350 1_455 S
C103 N102 1.373 . S
C103 H124 0.931 1_455 S
H104 C99 0.931 . S
H105 C100 0.930 . S
C106 O113 1.259 1_565 S
C106 O114 1.258 . S
N107 Co98 2.057 . S
N107 C108 1.316 . S
N107 C109 1.375 1_655 S
C108 N107 1.316 . S
C108 N110 1.347 . S
C108 H119 0.931 . S
C109 N107 1.375 1_455 S
C109 C111 1.350 . S
C109 H118 0.930 . S
N110 C108 1.347 . S
N110 C111 1.373 1_655 S
C111 C109 1.350 . S
C111 N110 1.373 1_455 S
C111 H125 0.931 . S
C112 O115 1.260 . S
C112 O116 1.255 . S
O113 Co96 2.021 . S
O113 C106 1.259 1_545 S
O114 Co98 2.117 1_455 S
O114 C106 1.258 . S
O115 Co98 2.018 1_445 S
O115 C112 1.260 . S
O116 Co96 2.062 . S
O116 C112 1.255 . S
O117 C97 1.259 1_565 S
O117 Co98 2.021 . S
H118 C109 0.930 . S
H119 C108 0.931 . S
O120 Co96 2.117 1_655 S
O120 C97 1.258 . S
O121 Co96 2.020 1_565 S
O121 C123 1.256 . S
O122 Co98 2.062 . S
O122 C123 1.255 1_655 S
C123 O121 1.256 . S
C123 O122 1.255 1_455 S
H124 C103 0.931 1_655 S
H125 C111 0.931 . S
Co126 N131 2.057 1_545 S
Co126 O143 2.021 . S
Co126 O146 2.065 . S
Co126 O150 2.117 1_545 S
Co126 O151 2.020 . S
C127 O147 1.259 . S
C127 O150 1.258 . S
Co128 N137 2.057 1_565 S
Co128 O144 2.117 1_565 S
Co128 O145 2.020 . S
Co128 O147 2.021 . S
Co128 O152 2.062 . S
C129 N131 1.316 1_545 S
C129 N132 1.347 . S
C129 H134 0.931 . S
C130 N131 1.375 . S
C130 C133 1.350 . S
C130 H135 0.930 . S
N131 Co126 2.057 1_565 S
N131 C129 1.316 1_565 S
N131 C130 1.375 . S
N132 C129 1.347 . S
N132 C133 1.373 1_545 S
C133 C130 1.350 . S
C133 N132 1.373 1_565 S
C133 H154 0.931 1_556 S
H134 C129 0.931 . S
H135 C130 0.930 . S
C136 O143 1.259 . S
C136 O144 1.258 . S
N137 Co128 2.057 1_545 S
N137 C138 1.306 1_545 S
N137 C139 1.386 . S
C138 N137 1.306 1_565 S
C138 N140 1.347 . S
C138 H149 0.931 . S
C139 N137 1.386 . S
C139 C141 1.350 . S
C139 H148 0.930 . S
N140 C138 1.347 . S
N140 C141 1.373 1_565 S
C141 C139 1.350 . S
C141 N140 1.373 1_545 S
C141 H155 0.931 . S
C142 O145 1.256 . S
C142 O146 1.249 1_565 S
O143 Co126 2.021 . S
O143 C136 1.259 . S
O144 Co128 2.117 1_545 S
O144 C136 1.258 . S
O145 Co128 2.020 . S
O145 C142 1.256 . S
O146 Co126 2.065 . S
O146 C142 1.249 1_545 S
O147 C127 1.259 . S
O147 Co128 2.021 . S
H148 C139 0.930 . S
H149 C138 0.931 . S
O150 Co126 2.117 1_565 S
O150 C127 1.258 . S
O151 Co126 2.020 . S
O151 C153 1.256 . S
O152 Co128 2.062 . S
O152 C153 1.253 1_565 S
C153 O151 1.256 . S
C153 O152 1.253 1_545 S
H154 C133 0.931 1_554 S
H155 C141 0.931 . S
Co156 N161 2.057 . S
Co156 O173 2.021 . S
Co156 O176 2.062 . S
Co156 O180 2.117 . S
Co156 O181 2.020 . S
C157 O177 1.259 . S
C157 O180 1.258 . S
Co158 N167 2.057 . S
Co158 O174 2.117 . S
Co158 O175 2.020 . S
Co158 O177 2.021 . S
Co158 O182 2.062 . S
C159 N161 1.316 . S
C159 N162 1.347 . S
C159 H164 0.931 . S
C160 N161 1.375 . S
C160 C163 1.350 . S
C160 H165 0.930 . S
N161 Co156 2.057 . S
N161 C159 1.316 . S
N161 C160 1.375 . S
N162 C159 1.347 . S
N162 C163 1.373 . S
C163 C160 1.350 . S
C163 N162 1.373 . S
C163 H184 0.931 . S
H164 C159 0.931 . S
H165 C160 0.930 . S
C166 O173 1.259 . S
C166 O174 1.258 . S
N167 Co158 2.057 . S
N167 C168 1.316 . S
N167 C169 1.375 . S
C168 N167 1.316 . S
C168 N170 1.347 . S
C168 H179 0.931 . S
C169 N167 1.375 . S
C169 C171 1.350 . S
C169 H178 0.930 . S
N170 C168 1.347 . S
N170 C171 1.373 . S
C171 C169 1.350 . S
C171 N170 1.373 . S
C171 H185 0.931 . S
C172 O175 1.256 . S
C172 O176 1.255 . S
O173 Co156 2.021 . S
O173 C166 1.259 . S
O174 Co158 2.117 . S
O174 C166 1.258 . S
O175 Co158 2.020 . S
O175 C172 1.256 . S
O176 Co156 2.062 . S
O176 C172 1.255 . S
O177 C157 1.259 . S
O177 Co158 2.021 . S
H178 C169 0.930 . S
H179 C168 0.931 . S
O180 Co156 2.117 . S
O180 C157 1.258 . S
O181 Co156 2.020 . S
O181 C183 1.256 . S
O182 Co158 2.062 . S
O182 C183 1.255 . S
C183 O181 1.256 . S
C183 O182 1.255 . S
H184 C163 0.931 . S
H185 C171 0.931 . S
Co186 N191 2.057 . S
Co186 O203 2.021 1_455 S
Co186 O206 2.062 1_455 S
Co186 O210 2.117 . S
Co186 O211 2.020 . S
C187 O207 1.259 . S
C187 O210 1.258 . S
Co188 N197 2.057 . S
Co188 O204 2.117 1_455 S
Co188 O205 2.020 1_455 S
Co188 O207 2.021 . S
Co188 O212 2.062 . S
C189 N191 1.316 1_655 S
C189 N192 1.354 . S
C189 H194 0.931 . S
C190 N191 1.375 . S
C190 C193 1.350 . S
C190 H195 0.930 . S
N191 Co186 2.057 . S
N191 C189 1.316 1_455 S
N191 C190 1.375 . S
N192 C189 1.354 . S
N192 C193 1.346 1_655 S
C193 C190 1.350 . S
C193 N192 1.346 1_455 S
C193 H214 0.931 . S
H194 C189 0.931 . S
H195 C190 0.930 . S
C196 O203 1.259 . S
C196 O204 1.258 . S
N197 Co188 2.057 . S
N197 C198 1.316 . S
N197 C199 1.375 1_455 S
C198 N197 1.316 . S
C198 N200 1.347 . S
C198 H209 0.931 . S
C199 N197 1.375 1_655 S
C199 C201 1.350 . S
C199 H208 0.930 . S
N200 C198 1.347 . S
N200 C201 1.373 1_455 S
C201 C199 1.350 . S
C201 N200 1.373 1_655 S
C201 H215 0.931 . S
C202 O205 1.256 . S
C202 O206 1.255 . S
O203 Co186 2.021 1_655 S
O203 C196 1.259 . S
O204 Co188 2.117 1_655 S
O204 C196 1.258 . S
O205 Co188 2.020 1_655 S
O205 C202 1.256 . S
O206 Co186 2.062 1_655 S
O206 C202 1.255 . S
O207 C187 1.259 . S
O207 Co188 2.021 . S
H208 C199 0.930 . S
H209 C198 0.931 . S
O210 Co186 2.117 . S
O210 C187 1.258 . S
O211 Co186 2.020 . S
O211 C213 1.256 . S
O212 Co188 2.062 . S
O212 C213 1.255 . S
C213 O211 1.256 . S
C213 O212 1.255 . S
H214 C193 0.931 . S
H215 C201 0.931 . S
H216 C224 0.929 . S
H217 C226 0.930 . S
H218 C228 0.930 . S
H219 C231 0.929 . S
H220 C234 0.923 1_545 S
H221 C236 0.960 . S
H222 C236 0.960 . S
H223 C236 0.960 1_545 S
C224 H216 0.929 . S
C224 C225 1.393 . S
C224 C226 1.384 . S
C225 C224 1.393 . S
C225 C231 1.373 1_565 S
C226 H217 0.930 . S
C226 C224 1.384 . S
C226 C227 1.372 . S
C227 C226 1.372 . S
C227 C228 1.400 1_565 S
C227 C232 1.490 . S
C228 H218 0.930 . S
C228 C227 1.400 1_545 S
C228 C231 1.386 . S
H229 C245 0.930 . S
H230 C246 0.931 . S
C231 H219 0.929 . S
C231 C225 1.373 1_545 S
C231 C228 1.386 . S
C232 C227 1.490 . S
C232 C234 1.401 . S
C232 C235 1.403 . S
H233 C239 0.930 . S
C234 H220 0.923 1_565 S
C234 C232 1.401 . S
C234 C237 1.403 . S
C235 C232 1.403 . S
C235 C236 1.524 . S
C235 C239 1.400 . S
C236 H221 0.960 . S
C236 H222 0.960 . S
C236 H223 0.960 1_565 S
C236 C235 1.524 . S
C237 C234 1.403 . S
C237 C238 1.396 . S
C237 C241 1.490 1_565 S
C238 C237 1.396 . S
C238 C239 1.385 . S
C238 C240 1.478 . S
C239 H233 0.930 . S
C239 C235 1.400 . S
C239 C238 1.385 . S
C240 C238 1.478 . S
C240 C242 1.381 . S
C240 C246 1.383 1_565 S
C241 C237 1.490 1_545 S
C241 H247 0.959 . S
C241 H248 0.961 . S
C241 H249 0.960 1_545 S
C242 C240 1.381 . S
C242 C243 1.394 . S
C242 H250 0.930 . S
C243 C242 1.394 . S
C243 C244 1.383 . S
C243 H251 0.929 . S
C244 C243 1.383 . S
C244 C245 1.377 1_565 S
C245 H229 0.930 . S
C245 C244 1.377 1_545 S
C245 C246 1.379 . S
C246 H230 0.931 . S
C246 C240 1.383 1_545 S
C246 C245 1.379 . S
H247 C241 0.959 . S
H248 C241 0.961 . S
H249 C241 0.960 1_565 S
H250 C242 0.930 . S
H251 C243 0.929 . S
H252 C260 0.929 . S
H253 C262 0.930 . S
H254 C264 0.930 . S
H255 C267 0.929 . S
H256 C270 0.930 . S
H257 C272 0.960 . S
H258 C272 0.960 . S
H259 C272 0.960 . S
C260 H252 0.929 . S
C260 C261 1.377 . S
C260 C262 1.384 . S
C261 C260 1.377 . S
C261 C267 1.390 . S
C262 H253 0.930 . S
C262 C260 1.384 . S
C262 C263 1.372 . S
C263 C262 1.372 . S
C263 C264 1.400 . S
C263 C268 1.490 . S
C264 H254 0.930 . S
C264 C263 1.400 . S
C264 C267 1.386 . S
H265 C281 0.930 . S
H266 C282 0.931 . S
C267 H255 0.929 . S
C267 C261 1.390 . S
C267 C264 1.386 . S
C268 C263 1.490 . S
C268 C270 1.395 . S
C268 C271 1.403 . S
H269 C275 0.930 . S
C270 H256 0.930 . S
C270 C268 1.395 . S
C270 C273 1.403 . S
C271 C268 1.403 . S
C271 C272 1.524 . S
C271 C275 1.400 . S
C272 H257 0.960 . S
C272 H258 0.960 . S
C272 H259 0.960 . S
C272 C271 1.524 . S
C273 C270 1.403 . S
C273 C274 1.392 . S
C273 C277 1.495 . S
C274 C273 1.392 . S
C274 C275 1.385 . S
C274 C276 1.478 . S
C275 H269 0.930 . S
C275 C271 1.400 . S
C275 C274 1.385 . S
C276 C274 1.478 . S
C276 C278 1.381 . S
C276 C282 1.383 . S
C277 C273 1.495 . S
C277 H283 0.959 . S
C277 H284 0.961 . S
C277 H285 0.960 . S
C278 C276 1.381 . S
C278 C279 1.394 . S
C278 H286 0.930 . S
C279 C278 1.394 . S
C279 C280 1.383 . S
C279 H287 0.929 . S
C280 C279 1.383 . S
C280 C281 1.377 . S
C281 H265 0.930 . S
C281 C280 1.377 . S
C281 C282 1.379 . S
C282 H266 0.931 . S
C282 C276 1.383 . S
C282 C281 1.379 . S
H283 C277 0.959 . S
H284 C277 0.961 . S
H285 C277 0.960 . S
H286 C278 0.930 . S
H287 C279 0.929 . S
H288 C296 0.929 . S
H289 C298 0.930 . S
H290 C300 0.930 . S
H291 C303 0.929 . S
H292 C306 0.930 . S
H293 C308 0.960 . S
H294 C308 0.960 . S
H295 C308 0.960 . S
C296 H288 0.929 . S
C296 C297 1.377 . S
C296 C298 1.384 . S
C297 C296 1.377 . S
C297 C303 1.390 . S
C298 H289 0.930 . S
C298 C296 1.384 . S
C298 C299 1.372 . S
C299 C298 1.372 . S
C299 C300 1.400 . S
C299 C304 1.490 . S
C300 H290 0.930 . S
C300 C299 1.400 . S
C300 C303 1.386 . S
H301 C317 0.930 . S
H302 C318 0.931 . S
C303 H291 0.929 . S
C303 C297 1.390 . S
C303 C300 1.386 . S
C304 C299 1.490 . S
C304 C306 1.395 . S
C304 C307 1.403 . S
H305 C311 0.930 . S
C306 H292 0.930 . S
C306 C304 1.395 . S
C306 C309 1.403 . S
C307 C304 1.403 . S
C307 C308 1.524 . S
C307 C311 1.400 . S
C308 H293 0.960 . S
C308 H294 0.960 . S
C308 H295 0.960 . S
C308 C307 1.524 . S
C309 C306 1.403 . S
C309 C310 1.392 . S
C309 C313 1.495 . S
C310 C309 1.392 . S
C310 C311 1.385 . S
C310 C312 1.478 . S
C311 H305 0.930 . S
C311 C307 1.400 . S
C311 C310 1.385 . S
C312 C310 1.478 . S
C312 C314 1.381 . S
C312 C318 1.383 . S
C313 C309 1.495 . S
C313 H319 0.959 . S
C313 H320 0.961 . S
C313 H321 0.960 . S
C314 C312 1.381 . S
C314 C315 1.394 . S
C314 H322 0.930 . S
C315 C314 1.394 . S
C315 C316 1.383 . S
C315 H323 0.929 . S
C316 C315 1.383 . S
C316 C317 1.377 . S
C317 H301 0.930 . S
C317 C316 1.377 . S
C317 C318 1.379 . S
C318 H302 0.931 . S
C318 C312 1.383 . S
C318 C317 1.379 . S
H319 C313 0.959 . S
H320 C313 0.961 . S
H321 C313 0.960 . S
H322 C314 0.930 . S
H323 C315 0.929 . S
H324 C332 0.929 . S
H325 C334 0.930 . S
H326 C336 0.930 . S
H327 C339 0.929 . S
H328 C342 0.930 . S
H329 C344 0.960 1_655 S
H330 C344 0.960 . S
H331 C344 0.960 . S
C332 H324 0.929 . S
C332 C333 1.377 . S
C332 C334 1.384 . S
C333 C332 1.377 . S
C333 C339 1.390 . S
C334 H325 0.930 . S
C334 C332 1.384 . S
C334 C335 1.372 . S
C335 C334 1.372 . S
C335 C336 1.400 . S
C335 C340 1.490 . S
C336 H326 0.930 . S
C336 C335 1.400 . S
C336 C339 1.386 . S
H337 C353 0.930 . S
H338 C354 0.931 . S
C339 H327 0.929 . S
C339 C333 1.390 . S
C339 C336 1.386 . S
C340 C335 1.490 . S
C340 C342 1.395 . S
C340 C343 1.403 . S
H341 C347 0.930 . S
C342 H328 0.930 . S
C342 C340 1.395 . S
C342 C345 1.403 . S
C343 C340 1.403 . S
C343 C344 1.524 . S
C343 C347 1.400 . S
C344 H329 0.960 1_455 S
C344 H330 0.960 . S
C344 H331 0.960 . S
C344 C343 1.524 . S
C345 C342 1.403 . S
C345 C346 1.392 . S
C345 C349 1.495 . S
C346 C345 1.392 . S
C346 C347 1.385 . S
C346 C348 1.478 . S
C347 H341 0.930 . S
C347 C343 1.400 . S
C347 C346 1.385 . S
C348 C346 1.478 . S
C348 C350 1.381 . S
C348 C354 1.383 . S
C349 C345 1.495 . S
C349 H355 0.959 . S
C349 H356 0.961 . S
C349 H357 0.960 . S
C350 C348 1.381 . S
C350 C351 1.394 . S
C350 H358 0.930 . S
C351 C350 1.394 . S
C351 C352 1.383 . S
C351 H359 0.929 . S
C352 C351 1.383 . S
C352 C353 1.377 . S
C353 H337 0.930 . S
C353 C352 1.377 . S
C353 C354 1.379 . S
C354 H338 0.931 . S
C354 C348 1.383 . S
C354 C353 1.379 . S
H355 C349 0.959 . S
H356 C349 0.961 . S
H357 C349 0.960 . S
H358 C350 0.930 . S
H359 C351 0.929 . S
H360 C368 0.929 . S
H361 C370 0.930 . S
H362 C372 0.930 . S
H363 C375 0.929 . S
H364 C378 0.930 1_554 S
H365 C380 0.960 . S
H366 C380 0.960 . S
H367 C380 0.989 . S
C368 H360 0.929 . S
C368 C369 1.404 . S
C368 C370 1.384 . S
C369 C368 1.404 . S
C369 C375 1.362 1_544 S
C370 H361 0.930 . S
C370 C368 1.384 . S
C370 C371 1.372 1_554 S
C371 C370 1.372 1_556 S
C371 C372 1.400 1_545 S
C371 C376 1.490 . S
C372 H362 0.930 . S
C372 C371 1.400 1_565 S
C372 C375 1.386 . S
H373 C389 0.930 . S
H374 C390 0.931 . S
C375 H363 0.929 . S
C375 C369 1.362 1_566 S
C375 C372 1.386 . S
C376 C371 1.490 . S
C376 C378 1.395 1_545 S
C376 C379 1.403 . S
H377 C383 0.930 . S
C378 H364 0.930 1_556 S
C378 C376 1.395 1_565 S
C378 C381 1.403 . S
C379 C376 1.403 . S
C379 C380 1.524 . S
C379 C383 1.400 . S
C380 H365 0.960 . S
C380 H366 0.960 . S
C380 H367 0.989 . S
C380 C379 1.524 . S
C381 C378 1.403 . S
C381 C382 1.392 1_565 S
C381 C385 1.495 1_556 S
C382 C381 1.392 1_545 S
C382 C383 1.385 . S
C382 C384 1.478 . S
C383 H377 0.930 . S
C383 C379 1.400 . S
C383 C382 1.385 . S
C384 C382 1.478 . S
C384 C386 1.381 . S
C384 C390 1.383 1_545 S
C385 C381 1.495 1_554 S
C385 H391 0.959 . S
C385 H392 0.964 . S
C385 H393 0.960 1_565 S
C386 C384 1.381 . S
C386 C387 1.394 . S
C386 H394 0.930 . S
C387 C386 1.394 . S
C387 C388 1.383 . S
C387 H395 0.929 . S
C388 C387 1.383 . S
C388 C389 1.377 1_545 S
C389 H373 0.930 . S
C389 C388 1.377 1_565 S
C389 C390 1.379 . S
C390 H374 0.931 . S
C390 C384 1.383 1_565 S
C390 C389 1.379 . S
H391 C385 0.959 . S
H392 C385 0.964 . S
H393 C385 0.960 1_545 S
H394 C386 0.930 . S
H395 C387 0.929 . S
H396 C404 0.929 . S
H397 C406 0.930 . S
H398 C408 0.930 . S
H399 C411 0.929 . S
H400 C414 0.930 . S
H401 C416 0.960 . S
H402 C416 0.960 . S
H403 C416 0.960 . S
C404 H396 0.929 . S
C404 C405 1.377 1_556 S
C404 C406 1.384 . S
C405 C404 1.377 1_554 S
C405 C411 1.390 . S
C406 H397 0.930 . S
C406 C404 1.384 . S
C406 C407 1.372 . S
C407 C406 1.372 . S
C407 C408 1.400 1_556 S
C407 C412 1.490 . S
C408 H398 0.930 . S
C408 C407 1.400 1_554 S
C408 C411 1.386 . S
H409 C425 0.930 . S
H410 C426 0.931 . S
C411 H399 0.929 . S
C411 C405 1.390 . S
C411 C408 1.386 . S
C412 C407 1.490 . S
C412 C414 1.395 . S
C412 C415 1.403 . S
H413 C419 0.930 . S
C414 H400 0.930 . S
C414 C412 1.395 . S
C414 C417 1.403 . S
C415 C412 1.403 . S
C415 C416 1.524 1_556 S
C415 C419 1.400 . S
C416 H401 0.960 . S
C416 H402 0.960 . S
C416 H403 0.960 . S
C416 C415 1.524 1_554 S
C417 C414 1.403 . S
C417 C418 1.392 . S
C417 C421 1.495 . S
C418 C417 1.392 . S
C418 C419 1.385 . S
C418 C420 1.478 . S
C419 H413 0.930 . S
C419 C415 1.400 . S
C419 C418 1.385 . S
C420 C418 1.478 . S
C420 C422 1.381 . S
C420 C426 1.383 . S
C421 C417 1.495 . S
C421 H427 0.959 . S
C421 H428 0.961 . S
C421 H429 0.960 . S
C422 C420 1.381 . S
C422 C423 1.394 . S
C422 H430 0.930 . S
C423 C422 1.394 . S
C423 C424 1.383 . S
C423 H431 0.929 . S
C424 C423 1.383 . S
C424 C425 1.377 . S
C425 H409 0.930 . S
C425 C424 1.377 . S
C425 C426 1.379 . S
C426 H410 0.931 . S
C426 C420 1.383 . S
C426 C425 1.379 . S
H427 C421 0.959 . S
H428 C421 0.961 . S
H429 C421 0.960 . S
H430 C422 0.930 . S
H431 C423 0.929 . S
H432 C440 0.929 . S
H433 C442 0.930 1_556 S
H434 C444 0.930 . S
H435 C447 0.929 . S
H436 C450 0.930 . S
H437 C452 0.960 . S
H438 C452 0.960 . S
H439 C452 0.960 . S
C440 H432 0.929 . S
C440 C441 1.377 . S
C440 C442 1.384 . S
C441 C440 1.377 . S
C441 C447 1.390 . S
C442 H433 0.930 1_554 S
C442 C440 1.384 . S
C442 C443 1.372 . S
C443 C442 1.372 . S
C443 C444 1.400 . S
C443 C448 1.490 . S
C444 H434 0.930 . S
C444 C443 1.400 . S
C444 C447 1.386 . S
H445 C461 0.930 . S
H446 C462 0.931 . S
C447 H435 0.929 . S
C447 C441 1.390 . S
C447 C444 1.386 . S
C448 C443 1.490 . S
C448 C450 1.395 1_554 S
C448 C451 1.403 . S
H449 C455 0.930 1_554 S
C450 H436 0.930 . S
C450 C448 1.395 1_556 S
C450 C453 1.403 . S
C451 C448 1.403 . S
C451 C452 1.524 . S
C451 C455 1.400 1_554 S
C452 H437 0.960 . S
C452 H438 0.960 . S
C452 H439 0.960 . S
C452 C451 1.524 . S
C453 C450 1.403 . S
C453 C454 1.392 . S
C453 C457 1.495 . S
C454 C453 1.392 . S
C454 C455 1.385 . S
C454 C456 1.478 . S
C455 H449 0.930 1_556 S
C455 C451 1.400 1_556 S
C455 C454 1.385 . S
C456 C454 1.478 . S
C456 C458 1.381 . S
C456 C462 1.383 . S
C457 C453 1.495 . S
C457 H463 0.959 . S
C457 H464 0.961 . S
C457 H465 0.960 . S
C458 C456 1.381 . S
C458 C459 1.394 . S
C458 H466 0.930 . S
C459 C458 1.394 . S
C459 C460 1.383 . S
C459 H467 0.929 . S
C460 C459 1.383 . S
C460 C461 1.377 . S
C461 H445 0.930 . S
C461 C460 1.377 . S
C461 C462 1.379 . S
C462 H446 0.931 . S
C462 C456 1.383 . S
C462 C461 1.379 . S
H463 C457 0.959 . S
H464 C457 0.961 . S
H465 C457 0.960 . S
H466 C458 0.930 . S
H467 C459 0.929 . S
H468 C476 0.929 . S
H469 C478 0.930 . S
H470 C480 0.930 . S
H471 C483 0.929 1_556 S
H472 C486 0.930 . S
H473 C488 0.930 1_455 S
H474 C488 0.960 1_455 S
H475 C488 0.960 . S
C476 H468 0.929 . S
C476 C477 1.377 . S
C476 C478 1.384 . S
C477 C476 1.377 . S
C477 C483 1.390 . S
C478 H469 0.930 . S
C478 C476 1.384 . S
C478 C479 1.372 . S
C479 C478 1.372 . S
C479 C480 1.400 1_554 S
C479 C484 1.490 1_554 S
C480 H470 0.930 . S
C480 C479 1.400 1_556 S
C480 C483 1.386 1_556 S
H481 C497 0.930 . S
H482 C498 0.931 . S
C483 H471 0.929 1_554 S
C483 C477 1.390 . S
C483 C480 1.386 1_554 S
C484 C479 1.490 1_556 S
C484 C486 1.395 1_556 S
C484 C487 1.403 . S
H485 C491 0.930 . S
C486 H472 0.930 . S
C486 C484 1.395 1_554 S
C486 C489 1.403 1_554 S
C487 C484 1.403 . S
C487 C488 1.524 . S
C487 C491 1.400 . S
C488 H473 0.930 1_655 S
C488 H474 0.960 1_655 S
C488 H475 0.960 . S
C488 C487 1.524 . S
C489 C486 1.403 1_556 S
C489 C490 1.392 . S
C489 C493 1.495 1_556 S
C490 C489 1.392 . S
C490 C491 1.385 . S
C490 C492 1.478 . S
C491 H485 0.930 . S
C491 C487 1.400 . S
C491 C490 1.385 . S
C492 C490 1.478 . S
C492 C494 1.381 . S
C492 C498 1.383 . S
C493 C489 1.495 1_554 S
C493 H499 0.959 . S
C493 H500 0.961 1_554 S
C493 H501 0.960 . S
C494 C492 1.381 . S
C494 C495 1.394 . S
C494 H502 0.930 . S
C495 C494 1.394 . S
C495 C496 1.383 . S
C495 H503 0.929 1_655 S
C496 C495 1.383 . S
C496 C497 1.377 . S
C497 H481 0.930 . S
C497 C496 1.377 . S
C497 C498 1.379 . S
C498 H482 0.931 . S
C498 C492 1.383 . S
C498 C497 1.379 . S
H499 C493 0.959 . S
H500 C493 0.961 1_556 S
H501 C493 0.960 . S
H502 C494 0.930 . S
H503 C495 0.929 1_455 S
H504 C512 0.929 . S
H505 C514 0.930 . S
H506 C516 0.930 . S
H507 C519 0.929 . S
H508 C522 0.930 . S
H509 C524 0.960 . S
H510 C524 0.960 . S
H511 C524 0.960 . S
C512 H504 0.929 . S
C512 C513 1.377 . S
C512 C514 1.384 . S
C513 C512 1.377 . S
C513 C519 1.390 . S
C514 H505 0.930 . S
C514 C512 1.384 . S
C514 C515 1.372 . S
C515 C514 1.372 . S
C515 C516 1.400 . S
C515 C520 1.490 . S
C516 H506 0.930 . S
C516 C515 1.400 . S
C516 C519 1.386 . S
H517 C533 0.930 . S
H518 C534 0.899 1_655 S
C519 H507 0.929 . S
C519 C513 1.390 . S
C519 C516 1.386 . S
C520 C515 1.490 . S
C520 C522 1.395 . S
C520 C523 1.403 . S
H521 C527 0.930 . S
C522 H508 0.930 . S
C522 C520 1.395 . S
C522 C525 1.403 . S
C523 C520 1.403 . S
C523 C524 1.524 . S
C523 C527 1.400 . S
C524 H509 0.960 . S
C524 H510 0.960 . S
C524 H511 0.960 . S
C524 C523 1.524 . S
C525 C522 1.403 . S
C525 C526 1.392 . S
C525 C529 1.495 . S
C526 C525 1.392 . S
C526 C527 1.385 . S
C526 C528 1.478 . S
C527 H521 0.930 . S
C527 C523 1.400 . S
C527 C526 1.385 . S
C528 C526 1.478 . S
C528 C530 1.381 . S
C528 C534 1.435 . S
C529 C525 1.495 . S
C529 H535 0.959 . S
C529 H536 0.961 . S
C529 H537 0.960 . S
C530 C528 1.381 . S
C530 C531 1.394 . S
C530 H538 0.930 . S
C531 C530 1.394 . S
C531 C532 1.383 . S
C531 H539 0.929 . S
C532 C531 1.383 . S
C532 C533 1.377 1_455 S
C533 H517 0.930 . S
C533 C532 1.377 1_655 S
C533 C534 1.360 1_655 S
C534 H518 0.899 1_455 S
C534 C528 1.435 . S
C534 C533 1.360 1_455 S
H535 C529 0.959 . S
H536 C529 0.961 . S
H537 C529 0.960 . S
H538 C530 0.930 . S
H539 C531 0.929 . S
H540 C548 0.929 . S
H541 C550 0.930 . S
H542 C552 0.930 . S
H543 C555 0.929 . S
H544 C558 0.930 . S
H545 C560 0.960 . S
H546 C560 0.960 1_565 S
H547 C560 0.960 . S
C548 H540 0.929 . S
C548 C549 1.372 . S
C548 C550 1.384 . S
C549 C548 1.372 . S
C549 C555 1.395 1_565 S
C550 H541 0.930 . S
C550 C548 1.384 . S
C550 C551 1.372 . S
C551 C550 1.372 . S
C551 C552 1.400 1_565 S
C551 C556 1.490 . S
C552 H542 0.930 . S
C552 C551 1.400 1_545 S
C552 C555 1.386 . S
H553 C569 0.930 . S
H554 C570 0.931 . S
C555 H543 0.929 . S
C555 C549 1.395 1_545 S
C555 C552 1.386 . S
C556 C551 1.490 . S
C556 C558 1.395 . S
C556 C559 1.415 . S
H557 C563 0.926 1_545 S
C558 H544 0.930 . S
C558 C556 1.395 . S
C558 C561 1.403 . S
C559 C556 1.415 . S
C559 C560 1.514 1_565 S
C559 C563 1.402 . S
C560 H545 0.960 . S
C560 H546 0.960 1_545 S
C560 H547 0.960 . S
C560 C559 1.514 1_545 S
C561 C558 1.403 . S
C561 C562 1.392 . S
C561 C565 1.495 . S
C562 C561 1.392 . S
C562 C563 1.385 . S
C562 C564 1.478 . S
C563 H557 0.926 1_565 S
C563 C559 1.402 . S
C563 C562 1.385 . S
C564 C562 1.478 . S
C564 C566 1.381 . S
C564 C570 1.383 1_565 S
C565 C561 1.495 . S
C565 H571 0.959 . S
C565 H572 0.940 1_565 S
C565 H573 0.960 . S
C566 C564 1.381 . S
C566 C567 1.394 . S
C566 H574 0.930 . S
C567 C566 1.394 . S
C567 C568 1.383 . S
C567 H575 0.929 . S
C568 C567 1.383 . S
C568 C569 1.377 1_565 S
C569 H553 0.930 . S
C569 C568 1.377 1_545 S
C569 C570 1.379 . S
C570 H554 0.931 . S
C570 C564 1.383 1_545 S
C570 C569 1.379 . S
H571 C565 0.959 . S
H572 C565 0.940 1_545 S
H573 C565 0.960 . S
H574 C566 0.930 . S
H575 C567 0.929 . S
H576 C584 0.929 . S
H577 C586 0.930 . S
H578 C588 0.930 . S
H579 C591 0.929 . S
H580 C594 0.930 . S
H581 C596 0.960 . S
H582 C596 0.960 . S
H583 C596 0.960 . S
C584 H576 0.929 . S
C584 C585 1.377 . S
C584 C586 1.384 . S
C585 C584 1.377 . S
C585 C591 1.390 . S
C586 H577 0.930 . S
C586 C584 1.384 . S
C586 C587 1.372 . S
C587 C586 1.372 . S
C587 C588 1.400 . S
C587 C592 1.490 . S
C588 H578 0.930 . S
C588 C587 1.400 . S
C588 C591 1.386 . S
H589 C605 0.930 . S
H590 C606 0.931 . S
C591 H579 0.929 . S
C591 C585 1.390 . S
C591 C588 1.386 . S
C592 C587 1.490 . S
C592 C594 1.395 . S
C592 C595 1.403 . S
H593 C599 0.930 . S
C594 H580 0.930 . S
C594 C592 1.395 . S
C594 C597 1.403 . S
C595 C592 1.403 . S
C595 C596 1.524 . S
C595 C599 1.400 . S
C596 H581 0.960 . S
C596 H582 0.960 . S
C596 H583 0.960 . S
C596 C595 1.524 . S
C597 C594 1.403 . S
C597 C598 1.392 . S
C597 C601 1.495 . S
C598 C597 1.392 . S
C598 C599 1.385 . S
C598 C600 1.478 . S
C599 H593 0.930 . S
C599 C595 1.400 . S
C599 C598 1.385 . S
C600 C598 1.478 . S
C600 C602 1.381 . S
C600 C606 1.383 . S
C601 C597 1.495 . S
C601 H607 0.959 . S
C601 H608 0.961 . S
C601 H609 0.960 . S
C602 C600 1.381 . S
C602 C603 1.394 . S
C602 H610 0.930 . S
C603 C602 1.394 . S
C603 C604 1.383 . S
C603 H611 0.929 . S
C604 C603 1.383 . S
C604 C605 1.377 . S
C605 H589 0.930 . S
C605 C604 1.377 . S
C605 C606 1.379 . S
C606 H590 0.931 . S
C606 C600 1.383 . S
C606 C605 1.379 . S
H607 C601 0.959 . S
H608 C601 0.961 . S
H609 C601 0.960 . S
H610 C602 0.930 . S
H611 C603 0.929 . S
H612 C620 0.929 . S
H613 C622 0.930 . S
H614 C624 0.930 . S
H615 C627 0.929 . S
H616 C630 0.930 . S
H617 C632 0.960 . S
H618 C632 0.960 . S
H619 C632 0.960 . S
C620 H612 0.929 . S
C620 C621 1.377 . S
C620 C622 1.384 . S
C621 C620 1.377 . S
C621 C627 1.390 . S
C622 H613 0.930 . S
C622 C620 1.384 . S
C622 C623 1.372 . S
C623 C622 1.372 . S
C623 C624 1.400 . S
C623 C628 1.490 . S
C624 H614 0.930 . S
C624 C623 1.400 . S
C624 C627 1.386 . S
H625 C641 0.930 . S
H626 C642 0.931 . S
C627 H615 0.929 . S
C627 C621 1.390 . S
C627 C624 1.386 . S
C628 C623 1.490 . S
C628 C630 1.395 . S
C628 C631 1.403 . S
H629 C635 0.930 . S
C630 H616 0.930 . S
C630 C628 1.395 . S
C630 C633 1.403 . S
C631 C628 1.403 . S
C631 C632 1.524 . S
C631 C635 1.400 . S
C632 H617 0.960 . S
C632 H618 0.960 . S
C632 H619 0.960 . S
C632 C631 1.524 . S
C633 C630 1.403 . S
C633 C634 1.392 . S
C633 C637 1.495 . S
C634 C633 1.392 . S
C634 C635 1.385 . S
C634 C636 1.478 . S
C635 H629 0.930 . S
C635 C631 1.400 . S
C635 C634 1.385 . S
C636 C634 1.478 . S
C636 C638 1.381 . S
C636 C642 1.383 . S
C637 C633 1.495 . S
C637 H643 0.959 . S
C637 H644 0.961 . S
C637 H645 0.960 . S
C638 C636 1.381 . S
C638 C639 1.394 . S
C638 H646 0.930 . S
C639 C638 1.394 . S
C639 C640 1.383 . S
C639 H647 0.929 . S
C640 C639 1.383 . S
C640 C641 1.377 . S
C641 H625 0.930 . S
C641 C640 1.377 . S
C641 C642 1.379 . S
C642 H626 0.931 . S
C642 C636 1.383 . S
C642 C641 1.379 . S
H643 C637 0.959 . S
H644 C637 0.961 . S
H645 C637 0.960 . S
H646 C638 0.930 . S
H647 C639 0.929 . S
H648 C656 0.929 . S
H649 C658 0.930 . S
H650 C660 0.930 . S
H651 C663 0.929 . S
H652 C666 0.930 . S
H653 C668 0.960 1_556 S
H654 C668 0.960 . S
H655 C668 0.960 1_556 S
C656 H648 0.929 . S
C656 C657 1.377 . S
C656 C658 1.384 . S
C657 C656 1.377 . S
C657 C663 1.390 . S
C658 H649 0.930 . S
C658 C656 1.384 . S
C658 C659 1.372 . S
C659 C658 1.372 . S
C659 C660 1.400 1_554 S
C659 C664 1.490 1_554 S
C660 H650 0.930 . S
C660 C659 1.400 1_556 S
C660 C663 1.386 1_556 S
H661 C677 0.930 . S
H662 C678 0.931 . S
C663 H651 0.929 . S
C663 C657 1.390 . S
C663 C660 1.386 1_554 S
C664 C659 1.490 1_556 S
C664 C666 1.395 . S
C664 C667 1.403 . S
H665 C671 0.930 . S
C666 H652 0.930 . S
C666 C664 1.395 . S
C666 C669 1.403 . S
C667 C664 1.403 . S
C667 C668 1.524 1_556 S
C667 C671 1.400 . S
C668 H653 0.960 1_554 S
C668 H654 0.960 . S
C668 H655 0.960 1_554 S
C668 C667 1.524 1_554 S
C669 C666 1.403 . S
C669 C670 1.392 . S
C669 C673 1.495 1_655 S
C670 C669 1.392 . S
C670 C671 1.385 . S
C670 C672 1.478 . S
C671 H665 0.930 . S
C671 C667 1.400 . S
C671 C670 1.385 . S
C672 C670 1.478 . S
C672 C674 1.381 1_655 S
C672 C678 1.383 . S
C673 C669 1.495 1_455 S
C673 H679 0.959 . S
C673 H680 0.961 . S
C673 H681 0.960 . S
C674 C672 1.381 1_455 S
C674 C675 1.394 . S
C674 H682 0.930 . S
C675 C674 1.394 . S
C675 C676 1.383 . S
C675 H683 0.929 . S
C676 C675 1.383 . S
C676 C677 1.377 1_455 S
C677 H661 0.930 . S
C677 C676 1.377 1_655 S
C677 C678 1.379 . S
C678 H662 0.931 . S
C678 C672 1.383 . S
C678 C677 1.379 . S
H679 C673 0.959 . S
H680 C673 0.961 . S
H681 C673 0.960 . S
H682 C674 0.930 . S
H683 C675 0.929 . S
H684 C692 0.929 . S
H685 C694 0.930 . S
H686 C696 0.930 . S
H687 C699 0.929 . S
H688 C702 0.930 . S
H689 C704 0.960 . S
H690 C704 0.960 1_545 S
H691 C704 0.960 . S
C692 H684 0.929 . S
C692 C693 1.382 1_556 S
C692 C694 1.384 . S
C693 C692 1.382 1_554 S
C693 C699 1.385 1_545 S
C694 H685 0.930 . S
C694 C692 1.384 . S
C694 C695 1.372 . S
C695 C694 1.372 . S
C695 C696 1.400 1_546 S
C695 C700 1.490 . S
C696 H686 0.930 . S
C696 C695 1.400 1_564 S
C696 C699 1.386 . S
H697 C713 0.930 . S
H698 C714 0.931 . S
C699 H687 0.929 . S
C699 C693 1.385 1_565 S
C699 C696 1.386 . S
C700 C695 1.490 . S
C700 C702 1.395 . S
C700 C703 1.404 . S
H701 C707 0.930 1_565 S
C702 H688 0.930 . S
C702 C700 1.395 . S
C702 C705 1.403 . S
C703 C700 1.404 . S
C703 C704 1.523 1_546 S
C703 C707 1.400 . S
C704 H689 0.960 . S
C704 H690 0.960 1_565 S
C704 H691 0.960 . S
C704 C703 1.523 1_564 S
C705 C702 1.403 . S
C705 C706 1.392 . S
C705 C709 1.495 . S
C706 C705 1.392 . S
C706 C707 1.385 . S
C706 C708 1.478 . S
C707 H701 0.930 1_545 S
C707 C703 1.400 . S
C707 C706 1.385 . S
C708 C706 1.478 . S
C708 C710 1.381 . S
C708 C714 1.383 1_545 S
C709 C705 1.495 . S
C709 H715 0.959 . S
C709 H716 0.961 . S
C709 H717 0.960 . S
C710 C708 1.381 . S
C710 C711 1.394 . S
C710 H718 0.930 . S
C711 C710 1.394 . S
C711 C712 1.383 . S
C711 H719 0.929 . S
C712 C711 1.383 . S
C712 C713 1.377 1_545 S
C713 H697 0.930 . S
C713 C712 1.377 1_565 S
C713 C714 1.379 . S
C714 H698 0.931 . S
C714 C708 1.383 1_565 S
C714 C713 1.379 . S
H715 C709 0.959 . S
H716 C709 0.961 . S
H717 C709 0.960 . S
H718 C710 0.930 . S
H719 C711 0.929 . S
H720 C728 0.929 . S
H721 C730 0.930 . S
H722 C732 0.930 . S
H723 C735 0.937 . S
H724 C738 0.930 1_554 S
H725 C740 0.960 . S
H726 C740 0.960 . S
H727 C740 0.960 . S
C728 H720 0.929 . S
C728 C729 1.377 . S
C728 C730 1.384 . S
C729 C728 1.377 . S
C729 C735 1.375 1_554 S
C730 H721 0.930 . S
C730 C728 1.384 . S
C730 C731 1.372 . S
C731 C730 1.372 . S
C731 C732 1.400 1_554 S
C731 C736 1.490 1_554 S
C732 H722 0.930 . S
C732 C731 1.400 1_556 S
C732 C735 1.393 . S
H733 C749 0.930 . S
H734 C750 0.931 . S
C735 H723 0.937 . S
C735 C729 1.375 1_556 S
C735 C732 1.393 . S
C736 C731 1.490 1_556 S
C736 C738 1.395 . S
C736 C739 1.403 . S
H737 C743 0.930 . S
C738 H724 0.930 1_556 S
C738 C736 1.395 . S
C738 C741 1.403 . S
C739 C736 1.403 . S
C739 C740 1.524 . S
C739 C743 1.400 . S
C740 H725 0.960 . S
C740 H726 0.960 . S
C740 H727 0.960 . S
C740 C739 1.524 . S
C741 C738 1.403 . S
C741 C742 1.392 . S
C741 C745 1.495 . S
C742 C741 1.392 . S
C742 C743 1.385 . S
C742 C744 1.478 . S
C743 H737 0.930 . S
C743 C739 1.400 . S
C743 C742 1.385 . S
C744 C742 1.478 . S
C744 C746 1.381 . S
C744 C750 1.383 . S
C745 C741 1.495 . S
C745 H751 0.959 1_556 S
C745 H752 0.961 . S
C745 H753 0.960 1_556 S
C746 C744 1.381 . S
C746 C747 1.394 . S
C746 H754 0.930 . S
C747 C746 1.394 . S
C747 C748 1.383 . S
C747 H755 0.929 . S
C748 C747 1.383 . S
C748 C749 1.377 . S
C749 H733 0.930 . S
C749 C748 1.377 . S
C749 C750 1.379 . S
C750 H734 0.931 . S
C750 C744 1.383 . S
C750 C749 1.379 . S
H751 C745 0.959 1_554 S
H752 C745 0.961 . S
H753 C745 0.960 1_554 S
H754 C746 0.930 . S
H755 C747 0.929 . S
H756 C764 0.929 . S
H757 C766 0.930 . S
H758 C768 0.930 . S
H759 C771 0.929 . S
H760 C774 0.930 . S
H761 C776 0.960 . S
H762 C776 0.960 . S
H763 C776 0.960 . S
C764 H756 0.929 . S
C764 C765 1.377 . S
C764 C766 1.384 . S
C765 C764 1.377 . S
C765 C771 1.390 . S
C766 H757 0.930 . S
C766 C764 1.384 . S
C766 C767 1.372 . S
C767 C766 1.372 . S
C767 C768 1.400 . S
C767 C772 1.490 . S
C768 H758 0.930 . S
C768 C767 1.400 . S
C768 C771 1.386 . S
H769 C785 0.930 . S
H770 C786 0.931 . S
C771 H759 0.929 . S
C771 C765 1.390 . S
C771 C768 1.386 . S
C772 C767 1.490 . S
C772 C774 1.395 1_554 S
C772 C775 1.403 . S
H773 C779 0.930 1_554 S
C774 H760 0.930 . S
C774 C772 1.395 1_556 S
C774 C777 1.403 . S
C775 C772 1.403 . S
C775 C776 1.524 . S
C775 C779 1.400 1_554 S
C776 H761 0.960 . S
C776 H762 0.960 . S
C776 H763 0.960 . S
C776 C775 1.524 . S
C777 C774 1.403 . S
C777 C778 1.392 . S
C777 C781 1.495 . S
C778 C777 1.392 . S
C778 C779 1.385 . S
C778 C780 1.478 . S
C779 H773 0.930 1_556 S
C779 C775 1.400 1_556 S
C779 C778 1.385 . S
C780 C778 1.478 . S
C780 C782 1.381 . S
C780 C786 1.383 . S
C781 C777 1.495 . S
C781 H787 0.959 . S
C781 H788 0.961 . S
C781 H789 0.960 . S
C782 C780 1.381 . S
C782 C783 1.394 . S
C782 H790 0.930 . S
C783 C782 1.394 . S
C783 C784 1.383 . S
C783 H791 0.929 . S
C784 C783 1.383 . S
C784 C785 1.377 . S
C785 H769 0.930 . S
C785 C784 1.377 . S
C785 C786 1.379 . S
C786 H770 0.931 . S
C786 C780 1.383 . S
C786 C785 1.379 . S
H787 C781 0.959 . S
H788 C781 0.961 . S
H789 C781 0.960 . S
H790 C782 0.930 . S
H791 C783 0.929 . S
H792 C800 0.929 . S
H793 C802 0.930 . S
H794 C804 0.930 . S
H795 C807 0.929 . S
H796 C810 0.930 . S
H797 C812 0.960 . S
H798 C812 0.960 . S
H799 C812 0.960 . S
C800 H792 0.929 . S
C800 C801 1.377 . S
C800 C802 1.384 . S
C801 C800 1.377 . S
C801 C807 1.390 . S
C802 H793 0.930 . S
C802 C800 1.384 . S
C802 C803 1.372 . S
C803 C802 1.372 . S
C803 C804 1.400 . S
C803 C808 1.490 . S
C804 H794 0.930 . S
C804 C803 1.400 . S
C804 C807 1.386 . S
H805 C821 0.930 . S
H806 C822 0.931 . S
C807 H795 0.929 . S
C807 C801 1.390 . S
C807 C804 1.386 . S
C808 C803 1.490 . S
C808 C810 1.395 . S
C808 C811 1.403 . S
H809 C815 0.930 . S
C810 H796 0.930 . S
C810 C808 1.395 . S
C810 C813 1.403 . S
C811 C808 1.403 . S
C811 C812 1.524 . S
C811 C815 1.400 . S
C812 H797 0.960 . S
C812 H798 0.960 . S
C812 H799 0.960 . S
C812 C811 1.524 . S
C813 C810 1.403 . S
C813 C814 1.392 . S
C813 C817 1.495 . S
C814 C813 1.392 . S
C814 C815 1.385 . S
C814 C816 1.478 . S
C815 H809 0.930 . S
C815 C811 1.400 . S
C815 C814 1.385 . S
C816 C814 1.478 . S
C816 C818 1.381 . S
C816 C822 1.383 . S
C817 C813 1.495 . S
C817 H823 0.959 . S
C817 H824 0.961 . S
C817 H825 0.960 . S
C818 C816 1.381 . S
C818 C819 1.394 . S
C818 H826 0.930 . S
C819 C818 1.394 . S
C819 C820 1.382 1_554 S
C819 H827 0.929 1_554 S
C820 C819 1.382 1_556 S
C820 C821 1.367 1_556 S
C821 H805 0.930 . S
C821 C820 1.367 1_554 S
C821 C822 1.379 . S
C822 H806 0.931 . S
C822 C816 1.383 . S
C822 C821 1.379 . S
H823 C817 0.959 . S
H824 C817 0.961 . S
H825 C817 0.960 . S
H826 C818 0.930 . S
H827 C819 0.929 1_556 S
H828 C836 0.929 . S
H829 C838 0.930 . S
H830 C840 0.930 . S
H831 C843 0.929 . S
H832 C846 0.930 1_565 S
H833 C848 0.960 . S
H834 C848 0.960 . S
H835 C848 0.960 . S
C836 H828 0.929 . S
C836 C837 1.416 . S
C836 C838 1.384 . S
C837 C836 1.416 . S
C837 C843 1.351 1_545 S
C838 H829 0.930 . S
C838 C836 1.384 . S
C838 C839 1.372 . S
C839 C838 1.372 . S
C839 C840 1.400 1_545 S
C839 C844 1.490 . S
C840 H830 0.930 . S
C840 C839 1.400 1_565 S
C840 C843 1.386 . S
H841 C857 0.930 1_556 S
H842 C858 0.931 . S
C843 H831 0.929 . S
C843 C837 1.351 1_565 S
C843 C840 1.386 . S
C844 C839 1.490 . S
C844 C846 1.395 . S
C844 C847 1.403 . S
H845 C851 0.930 . S
C846 H832 0.930 1_545 S
C846 C844 1.395 . S
C846 C849 1.403 . S
C847 C844 1.403 . S
C847 C848 1.524 . S
C847 C851 1.400 . S
C848 H833 0.960 . S
C848 H834 0.960 . S
C848 H835 0.960 . S
C848 C847 1.524 . S
C849 C846 1.403 . S
C849 C850 1.392 . S
C849 C853 1.495 1_545 S
C850 C849 1.392 . S
C850 C851 1.385 . S
C850 C852 1.478 . S
C851 H845 0.930 . S
C851 C847 1.400 . S
C851 C850 1.385 . S
C852 C850 1.478 . S
C852 C854 1.381 . S
C852 C858 1.383 1_545 S
C853 C849 1.495 1_565 S
C853 H859 0.959 . S
C853 H860 0.961 . S
C853 H861 0.960 1_565 S
C854 C852 1.381 . S
C854 C855 1.394 . S
C854 H862 0.930 . S
C855 C854 1.394 . S
C855 C856 1.383 . S
C855 H863 0.929 . S
C856 C855 1.383 . S
C856 C857 1.377 1_545 S
C857 H841 0.930 1_554 S
C857 C856 1.377 1_565 S
C857 C858 1.379 . S
C858 H842 0.931 . S
C858 C852 1.383 1_565 S
C858 C857 1.379 . S
H859 C853 0.959 . S
H860 C853 0.961 . S
H861 C853 0.960 1_545 S
H862 C854 0.930 . S
H863 C855 0.929 . S
H864 C872 0.929 . S
H865 C874 0.930 . S
H866 C876 0.930 . S
H867 C879 0.929 . S
H868 C882 0.930 . S
H869 C884 0.960 . S
H870 C884 0.960 . S
H871 C884 0.960 . S
C872 H864 0.929 . S
C872 C873 1.377 . S
C872 C874 1.384 . S
C873 C872 1.377 . S
C873 C879 1.390 . S
C874 H865 0.930 . S
C874 C872 1.384 . S
C874 C875 1.372 . S
C875 C874 1.372 . S
C875 C876 1.400 . S
C875 C880 1.490 . S
C876 H866 0.930 . S
C876 C875 1.400 . S
C876 C879 1.386 . S
H877 C893 0.930 . S
H878 C894 0.931 . S
C879 H867 0.929 . S
C879 C873 1.390 . S
C879 C876 1.386 . S
C880 C875 1.490 . S
C880 C882 1.395 . S
C880 C883 1.403 . S
H881 C887 0.930 . S
C882 H868 0.930 . S
C882 C880 1.395 . S
C882 C885 1.403 . S
C883 C880 1.403 . S
C883 C884 1.524 . S
C883 C887 1.400 . S
C884 H869 0.960 . S
C884 H870 0.960 . S
C884 H871 0.960 . S
C884 C883 1.524 . S
C885 C882 1.403 . S
C885 C886 1.392 . S
C885 C889 1.495 . S
C886 C885 1.392 . S
C886 C887 1.385 . S
C886 C888 1.478 . S
C887 H881 0.930 . S
C887 C883 1.400 . S
C887 C886 1.385 . S
C888 C886 1.478 . S
C888 C890 1.381 1_554 S
C888 C894 1.383 . S
C889 C885 1.495 . S
C889 H895 0.959 . S
C889 H896 0.961 . S
C889 H897 0.960 1_554 S
C890 C888 1.381 1_556 S
C890 C891 1.394 . S
C890 H898 0.930 . S
C891 C890 1.394 . S
C891 C892 1.383 . S
C891 H899 0.929 . S
C892 C891 1.383 . S
C892 C893 1.377 . S
C893 H877 0.930 . S
C893 C892 1.377 . S
C893 C894 1.379 1_556 S
C894 H878 0.931 . S
C894 C888 1.383 . S
C894 C893 1.379 1_554 S
H895 C889 0.959 . S
H896 C889 0.961 . S
H897 C889 0.960 1_556 S
H898 C890 0.930 . S
H899 C891 0.929 . S
H900 C908 0.929 . S
H901 C910 0.930 . S
H902 C912 0.930 . S
H903 C915 0.929 . S
H904 C918 0.930 . S
H905 C920 0.960 1_556 S
H906 C920 0.960 . S
H907 C920 0.960 . S
C908 H900 0.929 . S
C908 C909 1.377 . S
C908 C910 1.384 . S
C909 C908 1.377 . S
C909 C915 1.390 . S
C910 H901 0.930 . S
C910 C908 1.384 . S
C910 C911 1.372 . S
C911 C910 1.372 . S
C911 C912 1.400 . S
C911 C916 1.490 . S
C912 H902 0.930 . S
C912 C911 1.400 . S
C912 C915 1.386 . S
H913 C929 0.930 . S
H914 C930 0.931 . S
C915 H903 0.929 . S
C915 C909 1.390 . S
C915 C912 1.386 . S
C916 C911 1.490 . S
C916 C918 1.395 . S
C916 C919 1.403 . S
H917 C923 0.930 1_556 S
C918 H904 0.930 . S
C918 C916 1.395 . S
C918 C921 1.403 . S
C919 C916 1.403 . S
C919 C920 1.524 . S
C919 C923 1.400 . S
C920 H905 0.960 1_554 S
C920 H906 0.960 . S
C920 H907 0.960 . S
C920 C919 1.524 . S
C921 C918 1.403 . S
C921 C922 1.392 . S
C921 C925 1.495 . S
C922 C921 1.392 . S
C922 C923 1.385 . S
C922 C924 1.478 . S
C923 H917 0.930 1_554 S
C923 C919 1.400 . S
C923 C922 1.385 . S
C924 C922 1.478 . S
C924 C926 1.381 . S
C924 C930 1.383 1_554 S
C925 C921 1.495 . S
C925 H931 0.959 . S
C925 H932 0.961 . S
C925 H933 0.960 . S
C926 C924 1.381 . S
C926 C927 1.394 1_554 S
C926 H934 0.930 . S
C927 C926 1.394 1_556 S
C927 C928 1.383 . S
C927 H935 0.929 . S
C928 C927 1.383 . S
C928 C929 1.377 . S
C929 H913 0.930 . S
C929 C928 1.377 . S
C929 C930 1.379 . S
C930 H914 0.931 . S
C930 C924 1.383 1_556 S
C930 C929 1.379 . S
H931 C925 0.959 . S
H932 C925 0.961 . S
H933 C925 0.960 . S
H934 C926 0.930 . S
H935 C927 0.929 . S
H936 C944 0.929 . S
H937 C946 0.930 . S
H938 C948 0.930 . S
H939 C951 0.929 . S
H940 C954 0.930 . S
H941 C956 0.960 1_455 S
H942 C956 0.960 1_455 S
H943 C956 0.960 . S
C944 H936 0.929 . S
C944 C945 1.377 . S
C944 C946 1.384 . S
C945 C944 1.377 . S
C945 C951 1.390 . S
C946 H937 0.930 . S
C946 C944 1.384 . S
C946 C947 1.372 . S
C947 C946 1.372 . S
C947 C948 1.400 . S
C947 C952 1.490 . S
C948 H938 0.930 . S
C948 C947 1.400 . S
C948 C951 1.386 . S
H949 C965 0.930 . S
H950 C966 0.931 . S
C951 H939 0.929 . S
C951 C945 1.390 . S
C951 C948 1.386 . S
C952 C947 1.490 . S
C952 C954 1.395 . S
C952 C955 1.403 . S
H953 C959 0.930 . S
C954 H940 0.930 . S
C954 C952 1.395 . S
C954 C957 1.403 . S
C955 C952 1.403 . S
C955 C956 1.524 . S
C955 C959 1.400 . S
C956 H941 0.960 1_655 S
C956 H942 0.960 1_655 S
C956 H943 0.960 . S
C956 C955 1.524 . S
C957 C954 1.403 . S
C957 C958 1.392 . S
C957 C961 1.495 . S
C958 C957 1.392 . S
C958 C959 1.385 . S
C958 C960 1.478 . S
C959 H953 0.930 . S
C959 C955 1.400 . S
C959 C958 1.385 . S
C960 C958 1.478 . S
C960 C962 1.381 . S
C960 C966 1.383 . S
C961 C957 1.495 . S
C961 H967 0.959 . S
C961 H968 0.961 . S
C961 H969 0.960 . S
C962 C960 1.381 . S
C962 C963 1.394 . S
C962 H970 0.930 . S
C963 C962 1.394 . S
C963 C964 1.383 . S
C963 H971 0.929 . S
C964 C963 1.383 . S
C964 C965 1.377 . S
C965 H949 0.930 . S
C965 C964 1.377 . S
C965 C966 1.379 . S
C966 H950 0.931 . S
C966 C960 1.383 . S
C966 C965 1.379 . S
H967 C961 0.959 . S
H968 C961 0.961 . S
H969 C961 0.960 . S
H970 C962 0.930 . S
H971 C963 0.929 . S
H972 C980 0.929 . S
H973 C982 0.930 . S
H974 C984 0.930 . S
H975 C987 0.929 . S
H976 C990 0.930 . S
H977 C992 0.960 . S
H978 C992 0.960 1_565 S
H979 C992 0.960 . S
C980 H972 0.929 . S
C980 C981 1.409 . S
C980 C982 1.384 . S
C981 C980 1.409 . S
C981 C987 1.357 1_565 S
C982 H973 0.930 . S
C982 C980 1.384 . S
C982 C983 1.372 . S
C983 C982 1.372 . S
C983 C984 1.400 1_565 S
C983 C988 1.490 . S
C984 H974 0.930 . S
C984 C983 1.400 1_545 S
C984 C987 1.386 . S
H985 C1001 0.930 . S
H986 C1002 0.931 . S
C987 H975 0.929 . S
C987 C981 1.357 1_545 S
C987 C984 1.386 . S
C988 C983 1.490 . S
C988 C990 1.395 . S
C988 C991 1.408 . S
H989 C995 0.930 1_545 S
C990 H976 0.930 . S
C990 C988 1.395 . S
C990 C993 1.403 . S
C991 C988 1.408 . S
C991 C992 1.521 1_565 S
C991 C995 1.399 . S
C992 H977 0.960 . S
C992 H978 0.960 1_545 S
C992 H979 0.960 . S
C992 C991 1.521 1_545 S
C993 C990 1.403 . S
C993 C994 1.392 . S
C993 C997 1.495 . S
C994 C993 1.392 . S
C994 C995 1.385 . S
C994 C996 1.478 . S
C995 H989 0.930 1_565 S
C995 C991 1.399 . S
C995 C994 1.385 . S
C996 C994 1.478 . S
C996 C998 1.381 . S
C996 C1002 1.383 1_565 S
C997 C993 1.495 . S
C997 H1003 0.959 . S
C997 H1004 0.961 . S
C997 H1005 0.960 . S
C998 C996 1.381 . S
C998 C999 1.394 . S
C998 H1006 0.930 . S
C999 C998 1.394 . S
C999 C1000 1.383 . S
C999 H1007 0.929 . S
C1000 C999 1.383 . S
C1000 C1001 1.377 1_565 S
C1001 H985 0.930 . S
C1001 C1000 1.377 1_545 S
C1001 C1002 1.379 . S
C1002 H986 0.931 . S
C1002 C996 1.383 1_545 S
C1002 C1001 1.379 . S
H1003 C997 0.959 . S
H1004 C997 0.961 . S
H1005 C997 0.960 . S
H1006 C998 0.930 . S
H1007 C999 0.929 . S
H1008 C1016 0.929 . S
H1009 C1018 0.930 . S
H1010 C1020 0.930 . S
H1011 C1023 0.929 . S
H1012 C1026 0.930 . S
H1013 C1028 0.960 . S
H1014 C1028 0.960 . S
H1015 C1028 0.960 . S
C1016 H1008 0.929 . S
C1016 C1017 1.377 . S
C1016 C1018 1.384 . S
C1017 C1016 1.377 . S
C1017 C1023 1.390 . S
C1018 H1009 0.930 . S
C1018 C1016 1.384 . S
C1018 C1019 1.372 . S
C1019 C1018 1.372 . S
C1019 C1020 1.400 . S
C1019 C1024 1.490 . S
C1020 H1010 0.930 . S
C1020 C1019 1.400 . S
C1020 C1023 1.386 . S
H1021 C1037 0.930 . S
H1022 C1038 0.931 . S
C1023 H1011 0.929 . S
C1023 C1017 1.390 . S
C1023 C1020 1.386 . S
C1024 C1019 1.490 . S
C1024 C1026 1.395 . S
C1024 C1027 1.403 . S
H1025 C1031 0.930 . S
C1026 H1012 0.930 . S
C1026 C1024 1.395 . S
C1026 C1029 1.403 . S
C1027 C1024 1.403 . S
C1027 C1028 1.524 . S
C1027 C1031 1.400 . S
C1028 H1013 0.960 . S
C1028 H1014 0.960 . S
C1028 H1015 0.960 . S
C1028 C1027 1.524 . S
C1029 C1026 1.403 . S
C1029 C1030 1.392 . S
C1029 C1033 1.495 . S
C1030 C1029 1.392 . S
C1030 C1031 1.385 . S
C1030 C1032 1.478 . S
C1031 H1025 0.930 . S
C1031 C1027 1.400 . S
C1031 C1030 1.385 . S
C1032 C1030 1.478 . S
C1032 C1034 1.381 . S
C1032 C1038 1.383 . S
C1033 C1029 1.495 . S
C1033 H1039 0.959 . S
C1033 H1040 0.961 . S
C1033 H1041 0.960 . S
C1034 C1032 1.381 . S
C1034 C1035 1.394 . S
C1034 H1042 0.930 . S
C1035 C1034 1.394 . S
C1035 C1036 1.383 . S
C1035 H1043 0.929 . S
C1036 C1035 1.383 . S
C1036 C1037 1.377 . S
C1037 H1021 0.930 . S
C1037 C1036 1.377 . S
C1037 C1038 1.379 . S
C1038 H1022 0.931 . S
C1038 C1032 1.383 . S
C1038 C1037 1.379 . S
H1039 C1033 0.959 . S
H1040 C1033 0.961 . S
H1041 C1033 0.960 . S
H1042 C1034 0.930 . S
H1043 C1035 0.929 . S
H1044 C1052 0.929 . S
H1045 C1054 0.930 . S
H1046 C1056 0.930 . S
H1047 C1059 0.929 . S
H1048 C1062 0.930 . S
H1049 C1064 0.960 . S
H1050 C1064 0.960 . S
H1051 C1064 0.960 . S
C1052 H1044 0.929 . S
C1052 C1053 1.377 . S
C1052 C1054 1.384 . S
C1053 C1052 1.377 . S
C1053 C1059 1.390 . S
C1054 H1045 0.930 . S
C1054 C1052 1.384 . S
C1054 C1055 1.372 . S
C1055 C1054 1.372 . S
C1055 C1056 1.400 . S
C1055 C1060 1.490 . S
C1056 H1046 0.930 . S
C1056 C1055 1.400 . S
C1056 C1059 1.386 . S
H1057 C1073 0.930 . S
H1058 C1074 0.931 . S
C1059 H1047 0.929 . S
C1059 C1053 1.390 . S
C1059 C1056 1.386 . S
C1060 C1055 1.490 . S
C1060 C1062 1.395 . S
C1060 C1063 1.403 . S
H1061 C1067 0.930 . S
C1062 H1048 0.930 . S
C1062 C1060 1.395 . S
C1062 C1065 1.403 . S
C1063 C1060 1.403 . S
C1063 C1064 1.524 . S
C1063 C1067 1.400 . S
C1064 H1049 0.960 . S
C1064 H1050 0.960 . S
C1064 H1051 0.960 . S
C1064 C1063 1.524 . S
C1065 C1062 1.403 . S
C1065 C1066 1.392 . S
C1065 C1069 1.495 . S
C1066 C1065 1.392 . S
C1066 C1067 1.385 . S
C1066 C1068 1.478 . S
C1067 H1061 0.930 . S
C1067 C1063 1.400 . S
C1067 C1066 1.385 . S
C1068 C1066 1.478 . S
C1068 C1070 1.381 . S
C1068 C1074 1.383 . S
C1069 C1065 1.495 . S
C1069 H1075 0.959 . S
C1069 H1076 0.961 . S
C1069 H1077 0.960 . S
C1070 C1068 1.381 . S
C1070 C1071 1.394 . S
C1070 H1078 0.930 . S
C1071 C1070 1.394 . S
C1071 C1072 1.383 . S
C1071 H1079 0.929 . S
C1072 C1071 1.383 . S
C1072 C1073 1.377 . S
C1073 H1057 0.930 . S
C1073 C1072 1.377 . S
C1073 C1074 1.379 . S
C1074 H1058 0.931 . S
C1074 C1068 1.383 . S
C1074 C1073 1.379 . S
H1075 C1069 0.959 . S
H1076 C1069 0.961 . S
H1077 C1069 0.960 . S
H1078 C1070 0.930 . S
H1079 C1071 0.929 . S
C225 C76 1.622 . S
C244 C106 1.641 . S
C280 C136 1.806 . S
C261 C88 1.770 . S
C316 N170 1.383 . S
C297 C52 1.389 . S
C352 N200 1.383 . S
C333 C64 1.364 . S
C388 C97 1.636 . S
C369 C28 1.624 1_545 S
C405 C40 1.783 . S
C424 C127 1.815 . S
C441 C4 1.389 . S
C460 N162 1.383 . S
C477 C16 1.378 . S
C496 N192 1.381 . S
C532 C112 0.159 . S
C513 C69 0.378 . S
C568 C142 0.479 . S
C549 C81 0.522 1_565 S
C604 C183 0.741 . S
C585 C93 0.733 . S
C621 C57 0.330 . S
C640 C213 0.272 . S
C657 C21 0.409 . S
C676 C123 0.319 . S
C712 C153 0.432 . S
C693 C33 0.498 . S
C748 C172 0.747 . S
C729 C45 0.722 . S
C765 C9 0.340 . S
C784 C202 0.332 . S
C801 C66 1.481 . S
C820 N102 1.486 . S
C837 C78 1.439 . S
C856 N132 1.410 1_554 S
C892 C157 1.642 . S
C873 C90 1.621 . S
C928 C187 1.593 . S
C909 C54 1.557 . S
C945 C18 1.462 . S
C964 N110 1.496 . S
C1000 N140 1.434 . S
C981 C30 1.439 1_565 S
C1036 C166 1.642 . S
C1017 C42 1.612 . S
C1053 C6 1.551 . S
C1072 C196 1.586 . S
