# Generated by pormake.
# Topology pts, (4,4)-cn, num edge types: 1
# Building blocks:
#     Node 0, Type 0, BuildingBlock: AZAVOO_clean_linker_0, # of connection points: 4
#     Node 1, Type 0, BuildingBlock: AZAVOO_clean_linker_0, # of connection points: 4
#     Node 2, Type 1, BuildingBlock: UXUYUI_clean_sbu_0, # of connection points: 4
#     Node 3, Type 1, BuildingBlock: UXUYUI_clean_sbu_0, # of connection points: 4
#     Edge 4, Type (0, 1), BuildingBlock: FUNLAD_clean_linker_0, # of connection points: 2
#     Edge 5, Type (0, 1), BuildingBlock: FUNLAD_clean_linker_0, # of connection points: 2
#     Edge 6, Type (0, 1), BuildingBlock: FUNLAD_clean_linker_0, # of connection points: 2
#     Edge 7, Type (0, 1), BuildingBlock: FUNLAD_clean_linker_0, # of connection points: 2
#     Edge 8, Type (0, 1), BuildingBlock: FUNLAD_clean_linker_0, # of connection points: 2
#     Edge 9, Type (0, 1), BuildingBlock: FUNLAD_clean_linker_0, # of connection points: 2
#     Edge 10, Type (0, 1), BuildingBlock: FUNLAD_clean_linker_0, # of connection points: 2
#     Edge 11, Type (0, 1), BuildingBlock: FUNLAD_clean_linker_0, # of connection points: 2
# Relax obj value: 0.116
# Max RMSD: 0.231
# Mean RMSD: 0.163
data_MOF--net-pts--node1-UXUYUI_clean_sbu_0--node2-AZAVOO_clean_linker_0--edge1-FUNLAD_clean_linker_0
_symmetry_space_group_name_H-M    P1
_symmetry_Int_Tables_number       1
_symmetry_cell_setting            triclinic
loop_
_symmetry_equiv_pos_as_xyz
'x, y, z'
_cell_length_a     36.075574
_cell_length_b     36.038341
_cell_length_c     62.152907
_cell_angle_alpha  91.29549
_cell_angle_beta   91.337617
_cell_angle_gamma 90.041927
loop_
_atom_site_label
_atom_site_type_symbol
_atom_site_fract_x
_atom_site_fract_y
_atom_site_fract_z
_atom_type_partial_charge
H0 H 0.50352 0.10808 0.85988 0.0
H1 H 0.77889 0.96424 0.03089 0.0
H2 H 0.49156 0.12297 0.97793 0.0
H3 H 0.43265 0.13728 0.95972 0.0
H4 H 0.39643 0.02423 0.96801 0.0
H5 H 0.45533 0.01044 0.98657 0.0
H6 H 0.55999 0.11008 0.9489 0.0
H7 H 0.54183 0.11912 0.91119 0.0
H8 H 0.48366 0.01409 0.91021 0.0
H9 H 0.50243 0.00521 0.94784 0.0
H10 H 0.63541 0.09344 0.97417 0.0
H11 H 0.68026 0.09381 0.94528 0.0
H12 H 0.63264 0.99207 0.91876 0.0
H13 H 0.58862 0.9914 0.94818 0.0
H14 H 0.63933 0.08503 0.02299 0.0
H15 H 0.70229 0.07038 0.03556 0.0
H16 H 0.69137 0.96031 0.00691 0.0
H17 H 0.62818 0.97515 0.99474 0.0
H18 H 0.56837 0.09769 0.04774 0.0
H19 H 0.60351 0.09611 0.08182 0.0
H20 H 0.61891 0.97787 0.07294 0.0
H21 H 0.58411 0.97989 0.03871 0.0
H22 H 0.48802 0.11146 0.02554 0.0
H23 H 0.44081 0.11519 0.05321 0.0
H24 H 0.45206 0.99736 0.06317 0.0
H25 H 0.49935 0.99402 0.03559 0.0
O26 O 0.5106 0.10384 0.87473 0.0
O27 O 0.48088 0.04978 0.87514 0.0
O28 O 0.75815 0.02761 0.04066 0.0
O29 O 0.75424 0.97092 0.02588 0.0
C30 C 0.51593 0.05543 0.99001 0.0
C31 C 0.54306 0.05185 0.97405 0.0
C32 C 0.58015 0.04387 0.97995 0.0
C33 C 0.59006 0.03915 0.00179 0.0
C34 C 0.56274 0.04208 0.01774 0.0
C35 C 0.52562 0.0501 0.01185 0.0
C36 C 0.47763 0.06568 0.98345 0.0
C37 C 0.47044 0.10164 0.97633 0.0
C38 C 0.43696 0.10963 0.96577 0.0
C39 C 0.41015 0.08172 0.96213 0.0
C40 C 0.41643 0.04638 0.97068 0.0
C41 C 0.45 0.03842 0.98128 0.0
C42 C 0.53254 0.057 0.95105 0.0
C43 C 0.54351 0.08898 0.94045 0.0
C44 C 0.53301 0.09411 0.91895 0.0
C45 C 0.51125 0.06734 0.90769 0.0
C46 C 0.5004 0.03525 0.9184 0.0
C47 C 0.51103 0.03012 0.93988 0.0
C48 C 0.60887 0.04238 0.96325 0.0
C49 C 0.63506 0.07099 0.96228 0.0
C50 C 0.66034 0.07135 0.94563 0.0
C51 C 0.65979 0.04314 0.92961 0.0
C52 C 0.63398 0.01404 0.93094 0.0
C53 C 0.60874 0.01367 0.94765 0.0
C54 C 0.62919 0.03108 0.00806 0.0
C55 C 0.65063 0.05779 0.01942 0.0
C56 C 0.68657 0.04935 0.02657 0.0
C57 C 0.70183 0.0141 0.0223 0.0
C58 C 0.68045 0.98767 0.01051 0.0
C59 C 0.64443 0.99611 0.00346 0.0
C60 C 0.57413 0.03899 0.0407 0.0
C61 C 0.57815 0.07125 0.05357 0.0
C62 C 0.59826 0.07027 0.07303 0.0
C63 C 0.61455 0.03697 0.07984 0.0
C64 C 0.60726 0.00405 0.06788 0.0
C65 C 0.58717 0.00507 0.04845 0.0
C66 C 0.49696 0.05246 0.02854 0.0
C67 C 0.48011 0.08648 0.03365 0.0
C68 C 0.45313 0.08851 0.04941 0.0
C69 C 0.4427 0.05655 0.06038 0.0
C70 C 0.45982 0.02255 0.05522 0.0
C71 C 0.48668 0.02054 0.03942 0.0
C72 C 0.49993 0.07298 0.88489 0.0
C73 C 0.73977 0.00478 0.03018 0.0
H74 H 0.00754 0.49096 0.35975 0.0
H75 H 0.10592 0.78802 0.52958 0.0
H76 H 0.98902 0.48045 0.47433 0.0
H77 H 0.98471 0.42003 0.45567 0.0
H78 H 0.09743 0.39581 0.47562 0.0
H79 H 0.10165 0.4566 0.49414 0.0
H80 H 0.99559 0.55151 0.44743 0.0
H81 H 0.99052 0.53106 0.40966 0.0
H82 H 0.09897 0.48057 0.41503 0.0
H83 H 0.10389 0.50167 0.45269 0.0
H84 H 0.00315 0.62832 0.47255 0.0
H85 H 0.00469 0.67655 0.44551 0.0
H86 H 0.11274 0.63833 0.42619 0.0
H87 H 0.11088 0.59004 0.45332 0.0
H88 H 0.00629 0.6319 0.52241 0.0
H89 H 0.01169 0.69731 0.53344 0.0
H90 H 0.1232 0.69959 0.5094 0.0
H91 H 0.11762 0.63397 0.49877 0.0
H92 H 0.00183 0.56066 0.54834 0.0
H93 H -7e-05 0.59525 0.58266 0.0
H94 H 0.11499 0.62568 0.5761 0.0
H95 H 0.11682 0.5902 0.54223 0.0
H96 H 0.99572 0.47968 0.52478 0.0
H97 H 0.99494 0.43167 0.55203 0.0
H98 H 0.10967 0.45572 0.56854 0.0
H99 H 0.11038 0.50299 0.54087 0.0
O100 O 0.01029 0.49912 0.37464 0.0
O101 O 0.06597 0.47327 0.37833 0.0
O102 O 0.04576 0.75937 0.53772 0.0
O103 O 0.10304 0.76214 0.52538 0.0
C104 C 0.05088 0.51243 0.49199 0.0
C105 C 0.05258 0.53951 0.47589 0.0
C106 C 0.05624 0.57736 0.48177 0.0
C107 C 0.05855 0.58819 0.50371 0.0
C108 C 0.05774 0.56105 0.51981 0.0
C109 C 0.05387 0.52313 0.51397 0.0
C110 C 0.04574 0.47294 0.48538 0.0
C111 C 0.01243 0.46168 0.47514 0.0
C112 C 0.01009 0.42734 0.46442 0.0
C113 C 0.04092 0.40357 0.46398 0.0
C114 C 0.07325 0.4136 0.47579 0.0
C115 C 0.07568 0.4482 0.48638 0.0
C116 C 0.05011 0.5281 0.45276 0.0
C117 C 0.01834 0.5363 0.44035 0.0
C118 C 0.01546 0.52445 0.41881 0.0
C119 C 0.04432 0.50411 0.40933 0.0
C120 C 0.07623 0.49615 0.42183 0.0
C121 C 0.07912 0.50814 0.44334 0.0
C122 C 0.05697 0.60587 0.46493 0.0
C123 C 0.02714 0.63043 0.46248 0.0
C124 C 0.02814 0.65797 0.44709 0.0
C125 C 0.05893 0.66132 0.4338 0.0
C126 C 0.08852 0.63622 0.43607 0.0
C127 C 0.08757 0.60876 0.45156 0.0
C128 C 0.06161 0.62821 0.50988 0.0
C129 C 0.03189 0.64656 0.51961 0.0
C130 C 0.03503 0.68393 0.52585 0.0
C131 C 0.06791 0.70369 0.52231 0.0
C132 C 0.09751 0.68521 0.51237 0.0
C133 C 0.09439 0.64778 0.50623 0.0
C134 C 0.05937 0.57324 0.54277 0.0
C135 C 0.02696 0.57364 0.55477 0.0
C136 C 0.02583 0.59373 0.57423 0.0
C137 C 0.05713 0.61373 0.58193 0.0
C138 C 0.09047 0.61043 0.57074 0.0
C139 C 0.09158 0.59025 0.55134 0.0
C140 C 0.05313 0.49468 0.53083 0.0
C141 C 0.02067 0.47447 0.53427 0.0
C142 C 0.02022 0.44728 0.54994 0.0
C143 C 0.05227 0.43985 0.56244 0.0
C144 C 0.08468 0.46042 0.559 0.0
C145 C 0.08508 0.4876 0.54334 0.0
C146 C 0.041 0.49119 0.38652 0.0
C147 C 0.07142 0.74338 0.52896 0.0
Li148 Li 0.04854 0.07746 0.26185 0.0
Li149 Li 0.04633 0.01055 0.25557 0.0
Li150 Li 0.07859 0.05108 0.2311 0.0
Li151 Li 0.01104 0.05 0.23223 0.0
C152 C 0.11069 0.0528 0.27935 0.0
N153 N 0.14882 0.07666 0.31618 0.0
C154 C 0.10892 0.03243 0.29817 0.0
C155 C 0.13199 0.08521 0.27923 0.0
C156 C 0.1284 0.04496 0.31663 0.0
C157 C 0.15099 0.09686 0.29804 0.0
C158 C 0.96847 0.04953 0.26591 0.0
C159 C 0.90504 0.02938 0.26067 0.0
N160 N 0.89325 0.06246 0.26894 0.0
C161 C 0.95572 0.08331 0.27439 0.0
C162 C 0.94295 0.02228 0.25905 0.0
C163 C 0.91759 0.0893 0.2758 0.0
C164 C 0.05509 0.15086 0.27916 0.0
N165 N 0.05041 0.11463 0.28398 0.0
C166 C 0.04859 0.12982 0.32154 0.0
C167 C 0.04674 0.10377 0.30461 0.0
C168 C 0.05359 0.16757 0.31715 0.0
C169 C 0.05669 0.17795 0.29557 0.0
H170 H 0.05731 0.15876 0.26257 0.0
H171 H 0.04256 0.07474 0.3079 0.0
C172 C 0.07919 0.94388 0.27013 0.0
N173 N 0.04759 0.9644 0.26971 0.0
C174 C 0.08106 0.91146 0.28202 0.0
C175 C 0.01758 0.92162 0.29232 0.0
C176 C 0.017 0.9538 0.28032 0.0
C177 C 0.05014 0.90033 0.29362 0.0
H178 H 0.10327 0.95332 0.26175 0.0
H179 H 0.9924 0.9708 0.2799 0.0
C180 C 0.05742 0.11527 0.21613 0.0
N181 N 0.08692 0.15555 0.18331 0.0
C182 C 0.04024 0.1147 0.19573 0.0
C183 C 0.08944 0.13654 0.21988 0.0
C184 C 0.05561 0.13524 0.17935 0.0
C185 C 0.10399 0.15662 0.20306 0.0
C186 C 0.04948 0.9725 0.21979 0.0
C187 C 0.08447 0.95904 0.21441 0.0
C188 C 0.02013 0.94766 0.22209 0.0
C189 C 0.08952 0.92085 0.21145 0.0
C190 C 0.02633 0.90967 0.21904 0.0
N191 N 0.0606 0.89716 0.21382 0.0
C192 C 0.15409 0.05997 0.21975 0.0
C193 C 0.11114 0.05136 0.19061 0.0
C194 C 0.18333 0.0627 0.20552 0.0
N195 N 0.11887 0.05464 0.21207 0.0
C196 C 0.13946 0.05406 0.17582 0.0
C197 C 0.17615 0.05983 0.18322 0.0
H198 H 0.15952 0.06201 0.23689 0.0
H199 H 0.0829 0.04656 0.18501 0.0
C200 C 0.9438 0.08363 0.21763 0.0
N201 N 0.96684 0.05405 0.2152 0.0
C202 C 0.911 0.08571 0.2053 0.0
C203 C 0.9271 0.02756 0.18774 0.0
C204 C 0.95931 0.02646 0.20051 0.0
C205 C 0.90241 0.05741 0.19008 0.0
H206 H 0.95085 0.10552 0.2292 0.0
H207 H 0.97836 0.00359 0.19866 0.0
O208 O 0.09135 0.04131 0.2612 0.0
O209 O 0.00571 0.04329 0.26415 0.0
O210 O 0.04328 0.09472 0.23225 0.0
O211 O 0.04413 0.00973 0.22314 0.0
H212 H 0.09236 0.00745 0.29863 0.0
H213 H 0.13336 0.10154 0.26489 0.0
H214 H 0.12715 0.02955 0.33133 0.0
H215 H 0.16736 0.12204 0.29822 0.0
H216 H 0.885 0.00866 0.25526 0.0
H217 H 0.97499 0.10481 0.27968 0.0
H218 H 0.95229 0.99616 0.25218 0.0
H219 H 0.90733 0.11535 0.28227 0.0
H220 H 0.04645 0.12039 0.33788 0.0
H221 H 0.05975 0.20675 0.29134 0.0
H222 H 0.10684 0.89611 0.28278 0.0
H223 H 0.99295 0.9138 0.30076 0.0
H224 H 0.01553 0.09829 0.19251 0.0
H225 H 0.1032 0.13712 0.23554 0.0
H226 H 0.04271 0.13492 0.16345 0.0
H227 H 0.12891 0.17297 0.20569 0.0
H228 H 0.10757 0.97781 0.21272 0.0
H229 H 0.99297 0.95757 0.22649 0.0
H230 H 0.11647 0.91002 0.20734 0.0
H231 H 0.00392 0.89012 0.22089 0.0
H232 H 0.21117 0.06736 0.21191 0.0
H233 H 0.13276 0.05105 0.15879 0.0
H234 H 0.89288 0.1094 0.20739 0.0
H235 H 0.92137 0.00504 0.17631 0.0
Li236 Li 0.01292 0.03982 0.75663 0.0
Li237 Li 0.07582 0.04768 0.7672 0.0
Li238 Li 0.04917 0.07383 0.73211 0.0
Li239 Li 0.05689 0.00485 0.73728 0.0
C240 C 0.01252 0.10806 0.77228 0.0
N241 N 0.95713 0.14788 0.7922 0.0
C242 C 0.00702 0.10445 0.79432 0.0
C243 C 0.99016 0.13216 0.7604 0.0
C244 C 0.97875 0.12473 0.80408 0.0
C245 C 0.96225 0.15202 0.77077 0.0
C246 C 0.06884 0.97433 0.77697 0.0
C247 C 0.12836 0.94399 0.77972 0.0
N248 N 0.11427 0.92001 0.79401 0.0
C249 C 0.05497 0.94925 0.79164 0.0
C250 C 0.10584 0.97154 0.77093 0.0
C251 C 0.07836 0.92205 0.80008 0.0
C252 C 0.93473 0.05651 0.76234 0.0
N253 N 0.96497 0.03726 0.76933 0.0
C254 C 0.93076 0.01231 0.7981 0.0
C255 C 0.96353 0.0157 0.78693 0.0
C256 C 0.89901 0.03158 0.79123 0.0
C257 C 0.90124 0.05402 0.7731 0.0
H258 H 0.93668 0.07431 0.74868 0.0
H259 H 0.98813 0.00173 0.79261 0.0
C260 C 0.14181 0.0742 0.78858 0.0
N261 N 0.10899 0.05634 0.79081 0.0
C262 C 0.16608 0.07897 0.80629 0.0
C263 C 0.12184 0.04757 0.8282 0.0
C264 C 0.09843 0.04359 0.81015 0.0
C265 C 0.15631 0.06517 0.82638 0.0
H266 H 0.14922 0.08446 0.77304 0.0
H267 H 0.07185 0.03006 0.81149 0.0
C268 C 0.97888 0.02432 0.71906 0.0
N269 N 0.90619 0.00726 0.70786 0.0
C270 C 0.96409 0.98982 0.72408 0.0
C271 C 0.95679 0.05009 0.70824 0.0
C272 C 0.92724 0.98175 0.71834 0.0
C273 C 0.92009 0.04093 0.70273 0.0
C274 C 0.12518 0.04263 0.72396 0.0
C275 C 0.1195 0.04881 0.70201 0.0
C276 C 0.16099 0.03536 0.73187 0.0
C277 C 0.14962 0.04724 0.6883 0.0
C278 C 0.1904 0.034 0.71765 0.0
N279 N 0.18417 0.03992 0.69634 0.0
C280 C 0.06779 0.14608 0.71985 0.0
C281 C 0.03943 0.10904 0.69207 0.0
C282 C 0.07073 0.17588 0.70599 0.0
N283 N 0.05235 0.11356 0.71268 0.0
C284 C 0.04195 0.13802 0.67765 0.0
C285 C 0.05778 0.17202 0.68455 0.0
H286 H 0.07789 0.14878 0.73634 0.0
H287 H 0.0275 0.08276 0.68678 0.0
C288 C 0.04948 0.92771 0.73177 0.0
N289 N 0.06582 0.95788 0.72322 0.0
C290 C 0.0531 0.89267 0.72207 0.0
C291 C 0.0899 0.92018 0.69464 0.0
C292 C 0.08578 0.9547 0.70498 0.0
C293 C 0.07325 0.88864 0.70314 0.0
H294 H 0.03285 0.93091 0.74592 0.0
H295 H 0.0979 0.97889 0.69814 0.0
O296 O 0.03953 0.08794 0.76234 0.0
O297 O 0.04609 0.00119 0.76859 0.0
O298 O 0.01489 0.03271 0.72455 0.0
O299 O 0.09614 0.04491 0.73774 0.0
H300 H 0.02412 0.08586 0.80371 0.0
H301 H 0.99402 0.13514 0.74331 0.0
H302 H 0.97395 0.12201 0.82109 0.0
H303 H 0.94455 0.1706 0.76177 0.0
H304 H 0.15703 0.94163 0.77516 0.0
H305 H 0.02638 0.95053 0.79643 0.0
H306 H 0.11711 0.99028 0.75954 0.0
H307 H 0.06793 0.90251 0.81144 0.0
H308 H 0.93059 0.99552 0.81233 0.0
H309 H 0.87742 0.06945 0.76732 0.0
H310 H 0.1925 0.09256 0.8042 0.0
H311 H 0.11298 0.03711 0.84346 0.0
H312 H 0.98073 0.96969 0.73257 0.0
H313 H 0.96765 0.07705 0.7044 0.0
H314 H 0.91536 0.95524 0.72224 0.0
H315 H 0.90261 0.06066 0.69444 0.0
H316 H 0.092 0.0539 0.69553 0.0
H317 H 0.16611 0.03082 0.74883 0.0
H318 H 0.14551 0.0517 0.67126 0.0
H319 H 0.21822 0.02831 0.72357 0.0
H320 H 0.0835 0.20145 0.71192 0.0
H321 H 0.03126 0.13396 0.66134 0.0
H322 H 0.03921 0.86921 0.72893 0.0
H323 H 0.10574 0.91823 0.68007 0.0
C324 C 0.38158 0.07956 0.07384 0.0
C325 C 0.41395 0.05854 0.07708 0.0
C326 C 0.35414 0.08074 0.08935 0.0
C327 C 0.35843 0.06071 0.10844 0.0
C328 C 0.39117 0.04045 0.11187 0.0
C329 C 0.41855 0.0392 0.09634 0.0
C330 C 0.32983 0.06061 0.1253 0.0
C331 C 0.29354 0.06707 0.12125 0.0
C332 C 0.26453 0.06562 0.13784 0.0
C333 C 0.23055 0.08345 0.13382 0.0
C334 C 0.20204 0.08192 0.14861 0.0
C335 C 0.20677 0.06227 0.16775 0.0
H336 H 0.29435 0.03053 0.16047 0.0
C337 C 0.2407 0.04432 0.1718 0.0
C338 C 0.26922 0.04581 0.157 0.0
H339 H 0.24493 0.0283 0.18618 0.0
H340 H 0.37719 0.09474 0.05915 0.0
H341 H 0.32994 0.0977 0.08634 0.0
H342 H 0.39544 0.02514 0.12652 0.0
H343 H 0.44346 0.02328 0.09949 0.0
H344 H 0.33922 0.05392 0.14145 0.0
H345 H 0.28426 0.07367 0.10505 0.0
H346 H 0.22604 0.09874 0.11918 0.0
H347 H 0.17634 0.09633 0.1451 0.0
C348 C 0.08218 0.38618 0.58118 0.0
C349 C 0.05199 0.41051 0.57886 0.0
C350 C 0.08175 0.35824 0.59641 0.0
C351 C 0.05091 0.35387 0.6096 0.0
C352 C 0.02109 0.37864 0.60755 0.0
C353 C 0.02149 0.40652 0.59229 0.0
C354 C 0.04916 0.32442 0.62594 0.0
C355 C 0.06815 0.29228 0.62448 0.0
C356 C 0.06537 0.26216 0.64034 0.0
C357 C 0.07394 0.22571 0.63377 0.0
C358 C 0.0715 0.19652 0.64809 0.0
C359 C 0.0608 0.20318 0.66943 0.0
H360 H 0.04954 0.2968 0.66773 0.0
C361 C 0.05295 0.23978 0.67617 0.0
C362 C 0.05526 0.26898 0.66181 0.0
H363 H 0.04456 0.24583 0.69249 0.0
H364 H 0.10605 0.38844 0.57104 0.0
H365 H 0.10581 0.34052 0.59791 0.0
H366 H 0.99719 0.37622 0.61767 0.0
H367 H -0.00194 0.4252 0.59116 0.0
H368 H 0.0298 0.32861 0.63889 0.0
H369 H 0.08477 0.28662 0.61044 0.0
H370 H 0.08225 0.21969 0.61742 0.0
H371 H 0.07838 0.16874 0.64249 0.0
C372 C 0.67688 0.01884 0.09429 0.0
C373 C 0.64322 0.03761 0.09735 0.0
C374 C 0.70595 0.02267 0.10932 0.0
C375 C 0.70225 0.04571 0.12771 0.0
C376 C 0.66806 0.06306 0.13135 0.0
C377 C 0.63886 0.05934 0.11621 0.0
C378 C 0.73381 0.05195 0.14313 0.0
C379 C 0.76907 0.05316 0.13644 0.0
C380 C 0.80255 0.05659 0.15076 0.0
C381 C 0.83711 0.04878 0.14176 0.0
C382 C 0.86946 0.04972 0.15446 0.0
C383 C 0.86814 0.05879 0.1765 0.0
H384 H 0.77547 0.07385 0.18031 0.0
C385 C 0.83383 0.06791 0.18548 0.0
C386 C 0.80128 0.06679 0.17275 0.0
H387 H 0.83204 0.07501 0.20245 0.0
H388 H 0.68134 0.00222 0.07984 0.0
H389 H 0.73145 0.00778 0.10637 0.0
H390 H 0.66435 0.08047 0.14558 0.0
H391 H 0.61312 0.07389 0.11906 0.0
H392 H 0.72749 0.05607 0.15998 0.0
H393 H 0.77401 0.05038 0.11929 0.0
H394 H 0.83909 0.04122 0.12485 0.0
H395 H 0.89558 0.04321 0.147 0.0
C396 C 0.08302 0.64788 0.61471 0.0
C397 C 0.05387 0.6418 0.59964 0.0
C398 C 0.08216 0.67814 0.6292 0.0
C399 C 0.05195 0.70289 0.62892 0.0
C400 C 0.02221 0.69583 0.61445 0.0
C401 C 0.02308 0.66566 0.60001 0.0
C402 C 0.05177 0.73815 0.64178 0.0
C403 C 0.07392 0.7454 0.65911 0.0
C404 C 0.07448 0.78234 0.67017 0.0
C405 C 0.08154 0.78488 0.69245 0.0
C406 C 0.08151 0.81941 0.70319 0.0
C407 C 0.0751 0.85211 0.69175 0.0
H408 H 0.06461 0.81434 0.64137 0.0
C409 C 0.06921 0.84962 0.66936 0.0
C410 C 0.06893 0.81515 0.65867 0.0
H411 H 0.06405 0.87429 0.66011 0.0
H412 H 0.10707 0.6299 0.61486 0.0
H413 H 0.10597 0.68283 0.6398 0.0
H414 H -0.00131 0.71449 0.61377 0.0
H415 H 0.00045 0.66227 0.58837 0.0
H416 H 0.0322 0.75927 0.63662 0.0
H417 H 0.09114 0.7237 0.66588 0.0
H418 H 0.08644 0.76006 0.70161 0.0
H419 H 0.08657 0.82056 0.72044 0.0
C420 C 0.34248 0.07422 0.95228 0.0
C421 C 0.37764 0.08837 0.94767 0.0
C422 C 0.31278 0.07803 0.93762 0.0
C423 C 0.31784 0.09574 0.91792 0.0
C424 C 0.35264 0.11103 0.91374 0.0
C425 C 0.38224 0.10725 0.92836 0.0
C426 C 0.28805 0.09825 0.90107 0.0
C427 C 0.25956 0.07411 0.89917 0.0
C428 C 0.23239 0.07346 0.88077 0.0
C429 C 0.21233 0.04066 0.87637 0.0
C430 C 0.18756 0.03808 0.85881 0.0
C431 C 0.18214 0.06836 0.84525 0.0
H432 H 0.24003 0.13042 0.87069 0.0
C433 C 0.20157 0.10149 0.84984 0.0
C434 C 0.22624 0.10416 0.8675 0.0
H435 H 0.19735 0.12553 0.83992 0.0
H436 H 0.33798 0.06007 0.96719 0.0
H437 H 0.28607 0.06705 0.94183 0.0
H438 H 0.35732 0.12498 0.89878 0.0
H439 H 0.40909 0.11803 0.92416 0.0
H440 H 0.29191 0.11864 0.88875 0.0
H441 H 0.25761 0.05181 0.91053 0.0
H442 H 0.21631 0.01663 0.88634 0.0
H443 H 0.17319 0.01206 0.85561 0.0
C444 C 0.0289 0.37447 0.42776 0.0
C445 C 0.04071 0.3707 0.44929 0.0
C446 C 0.03053 0.34445 0.41328 0.0
C447 C 0.04402 0.30993 0.42003 0.0
C448 C 0.05486 0.3058 0.44169 0.0
C449 C 0.05368 0.33609 0.45617 0.0
C450 C 0.0463 0.27789 0.40473 0.0
C451 C 0.05495 0.28222 0.38398 0.0
C452 C 0.05586 0.25127 0.36789 0.0
C453 C 0.07869 0.25442 0.35007 0.0
C454 C 0.07854 0.22696 0.33385 0.0
C455 C 0.05497 0.19598 0.3349 0.0
H456 H 0.01388 0.21728 0.38239 0.0
C457 C 0.03217 0.1928 0.35284 0.0
C458 C 0.03265 0.22008 0.36919 0.0
H459 H 0.01311 0.16975 0.354 0.0
H460 H 0.01911 0.40095 0.42197 0.0
H461 H 0.021 0.34831 0.39684 0.0
H462 H 0.06497 0.27933 0.4473 0.0
H463 H 0.06281 0.33249 0.47272 0.0
H464 H 0.04226 0.25025 0.41091 0.0
H465 H 0.06272 0.30957 0.37858 0.0
H466 H 0.09671 0.27827 0.34866 0.0
H467 H 0.09693 0.23008 0.32049 0.0
C468 C 0.7032 0.01218 0.90378 0.0
C469 C 0.68562 0.04452 0.91138 0.0
C470 C 0.72794 0.01371 0.88684 0.0
C471 C 0.73543 0.04768 0.87704 0.0
C472 C 0.71783 0.07993 0.88466 0.0
C473 C 0.69307 0.07838 0.90155 0.0
C474 C 0.76299 0.05109 0.85979 0.0
C475 C 0.77303 0.02269 0.84672 0.0
C476 C 0.80318 0.02556 0.83095 0.0
C477 C 0.82261 0.99328 0.82517 0.0
C478 C 0.85301 0.99507 0.81174 0.0
C479 C 0.86446 0.0292 0.80362 0.0
H480 H 0.79836 0.08478 0.82535 0.0
C481 C 0.84386 0.06126 0.80847 0.0
C482 C 0.81346 0.05948 0.82196 0.0
H483 H 0.85195 0.08796 0.80243 0.0
H484 H 0.69855 0.98578 0.91127 0.0
H485 H 0.74185 0.9884 0.882 0.0
H486 H 0.72323 0.10648 0.87751 0.0
H487 H 0.6796 0.10374 0.90682 0.0
H488 H 0.77578 0.07813 0.8582 0.0
H489 H 0.76027 0.99564 0.84832 0.0
H490 H 0.81497 0.9667 0.83159 0.0
H491 H 0.86791 0.96975 0.80795 0.0
C492 C 0.07283 0.68433 0.39698 0.0
C493 C 0.06031 0.69136 0.41793 0.0
C494 C 0.07347 0.71271 0.382 0.0
C495 C 0.06154 0.74874 0.38772 0.0
C496 C 0.0498 0.75577 0.4088 0.0
C497 C 0.04904 0.72744 0.4237 0.0
C498 C 0.06106 0.77998 0.37252 0.0
C499 C 0.06101 0.77591 0.3509 0.0
C500 C 0.05789 0.80798 0.33635 0.0
C501 C 0.07312 0.80541 0.31578 0.0
C502 C 0.07062 0.83527 0.3018 0.0
C503 C 0.05236 0.8681 0.30805 0.0
H504 H 0.02569 0.84325 0.35777 0.0
C505 C 0.03652 0.87032 0.32848 0.0
C506 C 0.03904 0.8406 0.3424 0.0
H507 H 0.02249 0.89528 0.33388 0.0
H508 H 0.08169 0.65676 0.39208 0.0
H509 H 0.08367 0.70622 0.36614 0.0
H510 H 0.04081 0.78329 0.41374 0.0
H511 H 0.03989 0.73389 0.43983 0.0
H512 H 0.05958 0.8077 0.37965 0.0
H513 H 0.06329 0.74855 0.34342 0.0
H514 H 0.08731 0.7804 0.31059 0.0
H515 H 0.08269 0.83254 0.28605 0.0
loop_
_geom_bond_atom_site_label_1
_geom_bond_atom_site_label_2
_geom_bond_distance
_geom_bond_site_symmetry_2
_ccdc_geom_bond_type
H0 O26 0.856 . S
H1 O29 0.854 . S
H2 C37 0.930 . S
H3 C38 0.930 . S
H4 C40 0.930 . S
H5 C41 0.916 1_565 S
H6 C43 0.931 . S
H7 C44 0.930 . S
H8 C46 0.930 1_565 S
H9 C47 0.929 1_565 S
H10 C49 0.930 . S
H11 C50 0.931 . S
H12 C52 0.943 . S
H13 C53 0.929 1_565 S
H14 C55 0.931 . S
H15 C56 0.930 . S
H16 C58 0.930 1_565 S
H17 C59 0.932 1_565 S
H18 C61 0.930 . S
H19 C62 0.929 . S
H20 C64 0.931 . S
H21 C65 0.930 . S
H22 C67 0.929 . S
H23 C68 0.931 . S
H24 C70 0.930 1_565 S
H25 C71 0.929 1_565 S
O26 H0 0.856 . S
O26 C72 1.300 . S
O27 C72 1.209 . S
O28 C73 1.199 . S
O29 H1 0.854 . S
O29 C73 1.297 . S
C30 C31 1.404 . S
C30 C35 1.397 1_556 S
C30 C36 1.492 . S
C31 C30 1.404 . S
C31 C32 1.396 . S
C31 C42 1.492 . S
C32 C31 1.396 . S
C32 C33 1.397 . S
C32 C48 1.509 . S
C33 C32 1.397 . S
C33 C34 1.412 1_556 S
C33 C54 1.485 1_556 S
C34 C33 1.412 1_554 S
C34 C35 1.388 . S
C34 C60 1.490 . S
C35 C30 1.397 1_554 S
C35 C34 1.388 . S
C35 C66 1.519 . S
C36 C30 1.492 . S
C36 C37 1.363 . S
C36 C41 1.390 . S
C37 H2 0.930 . S
C37 C36 1.363 . S
C37 C38 1.372 . S
C38 H3 0.930 . S
C38 C37 1.372 . S
C38 C39 1.383 . S
C39 C38 1.383 . S
C39 C40 1.395 . S
C40 H4 0.930 . S
C40 C39 1.395 . S
C40 C41 1.362 . S
C41 H5 0.916 1_545 S
C41 C36 1.390 . S
C41 C40 1.362 . S
C42 C31 1.492 . S
C42 C43 1.377 . S
C42 C47 1.397 . S
C43 H6 0.931 . S
C43 C42 1.377 . S
C43 C44 1.376 . S
C44 H7 0.930 . S
C44 C43 1.376 . S
C44 C45 1.376 . S
C45 C44 1.376 . S
C45 C46 1.378 . S
C45 C72 1.486 . S
C46 H8 0.930 1_545 S
C46 C45 1.378 . S
C46 C47 1.376 . S
C47 H9 0.929 1_545 S
C47 C42 1.397 . S
C47 C46 1.376 . S
C48 C32 1.509 . S
C48 C49 1.391 . S
C48 C53 1.386 . S
C49 H10 0.930 . S
C49 C48 1.391 . S
C49 C50 1.375 . S
C50 H11 0.931 . S
C50 C49 1.375 . S
C50 C51 1.375 . S
C51 C50 1.375 . S
C51 C52 1.350 1_545 S
C52 H12 0.943 . S
C52 C51 1.350 1_565 S
C52 C53 1.398 1_565 S
C53 H13 0.929 1_545 S
C53 C48 1.386 . S
C53 C52 1.398 1_545 S
C54 C33 1.485 1_554 S
C54 C55 1.394 . S
C54 C59 1.360 1_554 S
C55 H14 0.931 . S
C55 C54 1.394 . S
C55 C56 1.372 . S
C56 H15 0.930 . S
C56 C55 1.372 . S
C56 C57 1.397 . S
C57 C56 1.397 . S
C57 C58 1.390 . S
C57 C73 1.476 . S
C58 H16 0.930 1_545 S
C58 C57 1.390 . S
C58 C59 1.366 1_554 S
C59 H17 0.932 1_545 S
C59 C54 1.360 1_556 S
C59 C58 1.366 1_556 S
C60 C34 1.490 . S
C60 C61 1.380 . S
C60 C65 1.386 . S
C61 H18 0.930 . S
C61 C60 1.380 . S
C61 C62 1.381 . S
C62 H19 0.929 . S
C62 C61 1.381 . S
C62 C63 1.371 . S
C63 C62 1.371 . S
C63 C64 1.380 . S
C64 H20 0.931 . S
C64 C63 1.380 . S
C64 C65 1.387 . S
C65 H21 0.930 . S
C65 C60 1.386 . S
C65 C64 1.387 . S
C66 C35 1.519 . S
C66 C67 1.377 . S
C66 C71 1.361 . S
C67 H22 0.929 . S
C67 C66 1.377 . S
C67 C68 1.386 . S
C68 H23 0.931 . S
C68 C67 1.386 . S
C68 C69 1.363 . S
C69 C68 1.363 . S
C69 C70 1.385 . S
C70 H24 0.930 1_545 S
C70 C69 1.385 . S
C70 C71 1.396 . S
C71 H25 0.929 1_545 S
C71 C66 1.361 . S
C71 C70 1.396 . S
C72 O26 1.300 . S
C72 O27 1.209 . S
C72 C45 1.486 . S
C73 O28 1.199 . S
C73 O29 1.297 . S
C73 C57 1.476 . S
H74 O100 0.856 . S
H75 O103 0.854 . S
H76 C111 0.930 1_655 S
H77 C112 0.930 1_655 S
H78 C114 0.930 . S
H79 C115 0.930 . S
H80 C117 0.931 . S
H81 C118 0.930 . S
H82 C120 0.930 . S
H83 C121 0.929 . S
H84 C123 0.930 . S
H85 C124 0.931 . S
H86 C126 0.930 . S
H87 C127 0.929 . S
H88 C129 0.931 . S
H89 C130 0.930 . S
H90 C132 0.930 . S
H91 C133 0.932 . S
H92 C135 0.930 1_655 S
H93 C136 0.929 1_655 S
H94 C138 0.931 . S
H95 C139 0.930 . S
H96 C141 0.929 . S
H97 C142 0.931 . S
H98 C144 0.930 . S
H99 C145 0.929 . S
O100 H74 0.856 . S
O100 C146 1.300 . S
O101 C146 1.209 . S
O102 C147 1.199 . S
O103 H75 0.854 . S
O103 C147 1.297 . S
C104 C105 1.404 . S
C104 C109 1.397 . S
C104 C110 1.492 . S
C105 C104 1.404 . S
C105 C106 1.396 . S
C105 C116 1.492 . S
C106 C105 1.396 . S
C106 C107 1.397 . S
C106 C122 1.509 . S
C107 C106 1.397 . S
C107 C108 1.412 . S
C107 C128 1.485 . S
C108 C107 1.412 . S
C108 C109 1.388 . S
C108 C134 1.490 . S
C109 C104 1.397 . S
C109 C108 1.388 . S
C109 C140 1.519 . S
C110 C104 1.492 . S
C110 C111 1.363 . S
C110 C115 1.390 . S
C111 H76 0.930 1_455 S
C111 C110 1.363 . S
C111 C112 1.372 . S
C112 H77 0.930 1_455 S
C112 C111 1.372 . S
C112 C113 1.383 . S
C113 C112 1.383 . S
C113 C114 1.395 . S
C114 H78 0.930 . S
C114 C113 1.395 . S
C114 C115 1.362 . S
C115 H79 0.930 . S
C115 C110 1.390 . S
C115 C114 1.362 . S
C116 C105 1.492 . S
C116 C117 1.377 . S
C116 C121 1.397 . S
C117 H80 0.931 . S
C117 C116 1.377 . S
C117 C118 1.376 . S
C118 H81 0.930 . S
C118 C117 1.376 . S
C118 C119 1.376 . S
C119 C118 1.376 . S
C119 C120 1.378 . S
C119 C146 1.486 . S
C120 H82 0.930 . S
C120 C119 1.378 . S
C120 C121 1.376 . S
C121 H83 0.929 . S
C121 C116 1.397 . S
C121 C120 1.376 . S
C122 C106 1.509 . S
C122 C123 1.391 . S
C122 C127 1.386 . S
C123 H84 0.930 . S
C123 C122 1.391 . S
C123 C124 1.375 . S
C124 H85 0.931 . S
C124 C123 1.375 . S
C124 C125 1.375 . S
C125 C124 1.375 . S
C125 C126 1.361 . S
C126 H86 0.930 . S
C126 C125 1.361 . S
C126 C127 1.399 . S
C127 H87 0.929 . S
C127 C122 1.386 . S
C127 C126 1.399 . S
C128 C107 1.485 . S
C128 C129 1.394 . S
C128 C133 1.360 . S
C129 H88 0.931 . S
C129 C128 1.394 . S
C129 C130 1.372 . S
C130 H89 0.930 . S
C130 C129 1.372 . S
C130 C131 1.397 . S
C131 C130 1.397 . S
C131 C132 1.390 . S
C131 C147 1.476 . S
C132 H90 0.930 . S
C132 C131 1.390 . S
C132 C133 1.366 . S
C133 H91 0.932 . S
C133 C128 1.360 . S
C133 C132 1.366 . S
C134 C108 1.490 . S
C134 C135 1.380 . S
C134 C139 1.386 . S
C135 H92 0.930 1_455 S
C135 C134 1.380 . S
C135 C136 1.381 . S
C136 H93 0.929 1_455 S
C136 C135 1.381 . S
C136 C137 1.371 . S
C137 C136 1.371 . S
C137 C138 1.380 . S
C138 H94 0.931 . S
C138 C137 1.380 . S
C138 C139 1.387 . S
C139 H95 0.930 . S
C139 C134 1.386 . S
C139 C138 1.387 . S
C140 C109 1.519 . S
C140 C141 1.377 . S
C140 C145 1.361 . S
C141 H96 0.929 . S
C141 C140 1.377 . S
C141 C142 1.386 . S
C142 H97 0.931 . S
C142 C141 1.386 . S
C142 C143 1.363 . S
C143 C142 1.363 . S
C143 C144 1.385 . S
C144 H98 0.930 . S
C144 C143 1.385 . S
C144 C145 1.396 . S
C145 H99 0.929 . S
C145 C140 1.361 . S
C145 C144 1.396 . S
C146 O100 1.300 . S
C146 O101 1.209 . S
C146 C119 1.486 . S
C147 O102 1.199 . S
C147 O103 1.297 . S
C147 C131 1.476 . S
Li148 N165 1.990 . S
Li148 O208 1.956 . S
Li148 O209 1.970 1_455 S
Li148 O210 1.961 . S
Li149 N173 1.990 1_545 S
Li149 O208 1.970 . S
Li149 O209 1.956 1_455 S
Li149 O211 1.961 . S
Li150 N195 1.990 . S
Li150 O208 1.961 . S
Li150 O210 1.956 . S
Li150 O211 1.970 . S
Li151 N201 1.990 . S
Li151 O209 1.961 . S
Li151 O210 1.970 1_655 S
Li151 O211 1.956 1_655 S
C152 C154 1.348 . S
C152 C155 1.356 . S
C152 O208 1.325 . S
N153 C156 1.314 . S
N153 C157 1.279 . S
C154 C152 1.348 . S
C154 C156 1.353 . S
C154 H212 0.929 . S
C155 C152 1.356 . S
C155 C157 1.358 . S
C155 H213 0.930 . S
C156 N153 1.314 . S
C156 C154 1.353 . S
C156 H214 0.930 . S
C157 N153 1.279 . S
C157 C155 1.358 . S
C157 H215 0.930 . S
C158 C161 1.348 . S
C158 C162 1.356 . S
C158 O209 1.325 . S
C159 N160 1.279 . S
C159 C162 1.358 . S
C159 H216 0.930 . S
N160 C159 1.279 . S
N160 C163 1.314 . S
C161 C158 1.348 . S
C161 C163 1.353 . S
C161 H217 0.929 . S
C162 C158 1.356 . S
C162 C159 1.358 . S
C162 H218 0.930 . S
C163 N160 1.314 . S
C163 C161 1.353 . S
C163 H219 0.930 . S
C164 N165 1.314 . S
C164 C169 1.353 . S
C164 H170 0.928 . S
N165 Li148 1.990 . S
N165 C164 1.314 . S
N165 C167 1.279 . S
C166 C167 1.358 . S
C166 C168 1.356 . S
C166 H220 0.930 . S
C167 N165 1.279 . S
C167 C166 1.358 . S
C167 H171 0.930 . S
C168 C166 1.356 . S
C168 C169 1.348 . S
C169 C164 1.353 . S
C169 C168 1.348 . S
C169 H221 0.929 1_455 S
H170 C164 0.928 . S
H171 C167 0.930 . S
C172 N173 1.314 . S
C172 C174 1.353 . S
C172 H178 0.930 . S
N173 Li149 1.990 1_565 S
N173 C172 1.314 . S
N173 C176 1.279 . S
C174 C172 1.353 . S
C174 C177 1.348 . S
C174 H222 0.929 . S
C175 C176 1.358 . S
C175 C177 1.356 . S
C175 H223 0.930 1_455 S
C176 N173 1.279 . S
C176 C175 1.358 . S
C176 H179 0.930 1_455 S
C177 C174 1.348 . S
C177 C175 1.356 . S
H178 C172 0.930 . S
H179 C176 0.930 1_655 S
C180 C182 1.348 . S
C180 C183 1.356 . S
C180 O210 1.325 . S
N181 C184 1.314 . S
N181 C185 1.279 . S
C182 C180 1.348 . S
C182 C184 1.353 . S
C182 H224 0.929 1_455 S
C183 C180 1.356 . S
C183 C185 1.358 . S
C183 H225 0.930 . S
C184 N181 1.314 . S
C184 C182 1.353 . S
C184 H226 0.930 1_455 S
C185 N181 1.279 . S
C185 C183 1.358 . S
C185 H227 0.930 . S
C186 C187 1.348 . S
C186 C188 1.356 . S
C186 O211 1.325 1_565 S
C187 C186 1.348 . S
C187 C189 1.353 . S
C187 H228 0.929 . S
C188 C186 1.356 . S
C188 C190 1.358 . S
C188 H229 0.930 1_455 S
C189 C187 1.353 . S
C189 N191 1.314 . S
C189 H230 0.930 . S
C190 C188 1.358 . S
C190 N191 1.279 . S
C190 H231 0.930 1_455 S
N191 C189 1.314 . S
N191 C190 1.279 . S
C192 C194 1.353 . S
C192 N195 1.314 . S
C192 H198 0.930 . S
C193 N195 1.279 . S
C193 C196 1.358 . S
C193 H199 0.930 . S
C194 C192 1.353 . S
C194 C197 1.348 . S
C194 H232 0.929 . S
N195 Li150 1.990 . S
N195 C192 1.314 . S
N195 C193 1.279 . S
C196 C193 1.358 . S
C196 C197 1.356 . S
C196 H233 0.930 . S
C197 C194 1.348 . S
C197 C196 1.356 . S
H198 C192 0.930 . S
H199 C193 0.930 . S
C200 N201 1.314 . S
C200 C202 1.353 . S
C200 H206 0.930 . S
N201 Li151 1.990 . S
N201 C200 1.314 . S
N201 C204 1.279 . S
C202 C200 1.353 . S
C202 C205 1.348 . S
C202 H234 0.929 . S
C203 C204 1.358 . S
C203 C205 1.356 . S
C203 H235 0.930 . S
C204 N201 1.279 . S
C204 C203 1.358 . S
C204 H207 0.930 . S
C205 C202 1.348 . S
C205 C203 1.356 . S
H206 C200 0.930 . S
H207 C204 0.930 . S
O208 Li148 1.956 . S
O208 Li149 1.970 . S
O208 Li150 1.961 . S
O208 C152 1.325 . S
O209 Li148 1.970 1_655 S
O209 Li149 1.956 1_655 S
O209 Li151 1.961 . S
O209 C158 1.325 . S
O210 Li148 1.961 . S
O210 Li150 1.956 . S
O210 Li151 1.970 1_455 S
O210 C180 1.325 . S
O211 Li149 1.961 . S
O211 Li150 1.970 . S
O211 Li151 1.956 1_455 S
O211 C186 1.325 1_545 S
H212 C154 0.929 . S
H213 C155 0.930 . S
H214 C156 0.930 . S
H215 C157 0.930 . S
H216 C159 0.930 . S
H217 C161 0.929 . S
H218 C162 0.930 . S
H219 C163 0.930 . S
H220 C166 0.930 . S
H221 C169 0.929 1_655 S
H222 C174 0.929 . S
H223 C175 0.930 1_655 S
H224 C182 0.929 1_655 S
H225 C183 0.930 . S
H226 C184 0.930 1_655 S
H227 C185 0.930 . S
H228 C187 0.929 . S
H229 C188 0.930 1_655 S
H230 C189 0.930 . S
H231 C190 0.930 1_655 S
H232 C194 0.929 . S
H233 C196 0.930 . S
H234 C202 0.929 . S
H235 C203 0.930 . S
Li236 N253 1.990 1_455 S
Li236 O296 1.956 . S
Li236 O297 1.970 1_545 S
Li236 O298 1.961 . S
Li237 N261 1.990 . S
Li237 O296 1.970 . S
Li237 O297 1.956 1_545 S
Li237 O299 1.961 . S
Li238 N283 1.990 . S
Li238 O296 1.961 . S
Li238 O298 1.956 . S
Li238 O299 1.970 . S
Li239 N289 1.990 . S
Li239 O297 1.961 . S
Li239 O298 1.970 1_565 S
Li239 O299 1.956 1_565 S
C240 C242 1.348 . S
C240 C243 1.356 . S
C240 O296 1.325 . S
N241 C244 1.314 . S
N241 C245 1.279 . S
C242 C240 1.348 . S
C242 C244 1.353 . S
C242 H300 0.929 . S
C243 C240 1.356 . S
C243 C245 1.358 . S
C243 H301 0.930 . S
C244 N241 1.314 . S
C244 C242 1.353 . S
C244 H302 0.930 . S
C245 N241 1.279 . S
C245 C243 1.358 . S
C245 H303 0.930 . S
C246 C249 1.348 . S
C246 C250 1.356 . S
C246 O297 1.325 . S
C247 N248 1.279 . S
C247 C250 1.358 . S
C247 H304 0.930 . S
N248 C247 1.279 . S
N248 C251 1.314 . S
C249 C246 1.348 . S
C249 C251 1.353 . S
C249 H305 0.929 . S
C250 C246 1.356 . S
C250 C247 1.358 . S
C250 H306 0.930 . S
C251 N248 1.314 . S
C251 C249 1.353 . S
C251 H307 0.930 . S
C252 N253 1.314 . S
C252 C257 1.353 . S
C252 H258 0.930 1_545 S
N253 Li236 1.990 1_655 S
N253 C252 1.314 . S
N253 C255 1.279 . S
C254 C255 1.358 . S
C254 C256 1.356 . S
C254 H308 0.930 . S
C255 N253 1.279 . S
C255 C254 1.358 . S
C255 H259 0.930 . S
C256 C254 1.356 . S
C256 C257 1.348 . S
C257 C252 1.353 . S
C257 C256 1.348 . S
C257 H309 0.929 1_545 S
H258 C252 0.930 1_565 S
H259 C255 0.930 . S
C260 N261 1.314 . S
C260 C262 1.353 . S
C260 H266 0.930 . S
N261 Li237 1.990 . S
N261 C260 1.314 . S
N261 C264 1.279 . S
C262 C260 1.353 . S
C262 C265 1.348 . S
C262 H310 0.929 . S
C263 C264 1.358 . S
C263 C265 1.356 . S
C263 H311 0.930 1_545 S
C264 N261 1.279 . S
C264 C263 1.358 . S
C264 H267 0.930 1_545 S
C265 C262 1.348 . S
C265 C263 1.356 . S
H266 C260 0.930 . S
H267 C264 0.930 1_565 S
C268 C270 1.348 . S
C268 C271 1.356 . S
C268 O298 1.325 1_655 S
N269 C272 1.314 . S
N269 C273 1.279 . S
C270 C268 1.348 . S
C270 C272 1.353 . S
C270 H312 0.929 1_545 S
C271 C268 1.356 . S
C271 C273 1.358 . S
C271 H313 0.930 . S
C272 N269 1.314 . S
C272 C270 1.353 . S
C272 H314 0.930 1_545 S
C273 N269 1.279 . S
C273 C271 1.358 . S
C273 H315 0.930 . S
C274 C275 1.348 . S
C274 C276 1.356 . S
C274 O299 1.325 . S
C275 C274 1.348 . S
C275 C277 1.353 . S
C275 H316 0.929 . S
C276 C274 1.356 . S
C276 C278 1.358 . S
C276 H317 0.930 1_545 S
C277 C275 1.353 . S
C277 N279 1.314 . S
C277 H318 0.930 . S
C278 C276 1.358 . S
C278 N279 1.279 . S
C278 H319 0.930 1_545 S
N279 C277 1.314 . S
N279 C278 1.279 . S
C280 C282 1.353 . S
C280 N283 1.314 . S
C280 H286 0.930 . S
C281 N283 1.279 . S
C281 C284 1.358 . S
C281 H287 0.930 . S
C282 C280 1.353 . S
C282 C285 1.348 . S
C282 H320 0.929 . S
N283 Li238 1.990 . S
N283 C280 1.314 . S
N283 C281 1.279 . S
C284 C281 1.358 . S
C284 C285 1.356 . S
C284 H321 0.930 . S
C285 C282 1.348 . S
C285 C284 1.356 . S
H286 C280 0.930 . S
H287 C281 0.930 . S
C288 N289 1.314 . S
C288 C290 1.353 . S
C288 H294 0.930 . S
N289 Li239 1.990 . S
N289 C288 1.314 . S
N289 C292 1.279 . S
C290 C288 1.353 . S
C290 C293 1.348 . S
C290 H322 0.929 . S
C291 C292 1.358 . S
C291 C293 1.356 . S
C291 H323 0.930 . S
C292 N289 1.279 . S
C292 C291 1.358 . S
C292 H295 0.930 . S
C293 C290 1.348 . S
C293 C291 1.356 . S
H294 C288 0.930 . S
H295 C292 0.930 . S
O296 Li236 1.956 . S
O296 Li237 1.970 . S
O296 Li238 1.961 . S
O296 C240 1.325 . S
O297 Li236 1.970 1_565 S
O297 Li237 1.956 1_565 S
O297 Li239 1.961 . S
O297 C246 1.325 . S
O298 Li236 1.961 . S
O298 Li238 1.956 . S
O298 Li239 1.970 1_545 S
O298 C268 1.325 1_455 S
O299 Li237 1.961 . S
O299 Li238 1.970 . S
O299 Li239 1.956 1_545 S
O299 C274 1.325 . S
H300 C242 0.929 . S
H301 C243 0.930 . S
H302 C244 0.930 . S
H303 C245 0.930 . S
H304 C247 0.930 . S
H305 C249 0.929 . S
H306 C250 0.930 . S
H307 C251 0.930 . S
H308 C254 0.930 . S
H309 C257 0.929 1_565 S
H310 C262 0.929 . S
H311 C263 0.930 1_565 S
H312 C270 0.929 1_565 S
H313 C271 0.930 . S
H314 C272 0.930 1_565 S
H315 C273 0.930 . S
H316 C275 0.929 . S
H317 C276 0.930 1_565 S
H318 C277 0.930 . S
H319 C278 0.930 1_565 S
H320 C282 0.929 . S
H321 C284 0.930 . S
H322 C290 0.929 . S
H323 C291 0.930 . S
C324 C325 1.386 . S
C324 C326 1.383 . S
C324 H340 0.951 . S
C325 C324 1.386 . S
C325 C329 1.383 . S
C326 C324 1.383 . S
C326 C327 1.402 . S
C326 H341 0.951 . S
C327 C326 1.402 . S
C327 C328 1.375 . S
C327 C330 1.481 . S
C328 C327 1.375 . S
C328 C329 1.367 . S
C328 H342 0.951 1_545 S
C329 C325 1.383 . S
C329 C328 1.367 . S
C329 H343 0.950 1_545 S
C330 C327 1.481 . S
C330 C331 1.297 . S
C330 H344 0.950 . S
C331 C330 1.297 . S
C331 C332 1.479 . S
C331 H345 0.950 . S
C332 C331 1.479 . S
C332 C333 1.375 . S
C332 C338 1.404 . S
C333 C332 1.375 . S
C333 C334 1.369 . S
C333 H346 0.950 . S
C334 C333 1.369 . S
C334 C335 1.392 . S
C334 H347 0.951 . S
C335 C334 1.392 . S
C335 C337 1.384 . S
H336 C338 0.949 1_565 S
C337 C335 1.384 . S
C337 C338 1.385 . S
C337 H339 0.950 1_545 S
C338 C332 1.404 . S
C338 H336 0.949 1_545 S
C338 C337 1.385 . S
H339 C337 0.950 1_565 S
H340 C324 0.951 . S
H341 C326 0.951 . S
H342 C328 0.951 1_565 S
H343 C329 0.950 1_565 S
H344 C330 0.950 . S
H345 C331 0.950 . S
H346 C333 0.950 . S
H347 C334 0.951 . S
C348 C349 1.386 . S
C348 C350 1.383 . S
C348 H364 0.951 . S
C349 C348 1.386 . S
C349 C353 1.383 . S
C350 C348 1.383 . S
C350 C351 1.402 . S
C350 H365 0.951 . S
C351 C350 1.402 . S
C351 C352 1.375 . S
C351 C354 1.481 . S
C352 C351 1.375 . S
C352 C353 1.367 . S
C352 H366 0.951 . S
C353 C349 1.383 . S
C353 C352 1.367 . S
C353 H367 0.950 . S
C354 C351 1.481 . S
C354 C355 1.297 . S
C354 H368 0.950 . S
C355 C354 1.297 . S
C355 C356 1.479 . S
C355 H369 0.950 . S
C356 C355 1.479 . S
C356 C357 1.375 . S
C356 C362 1.404 . S
C357 C356 1.375 . S
C357 C358 1.369 . S
C357 H370 0.950 . S
C358 C357 1.369 . S
C358 C359 1.392 . S
C358 H371 0.951 . S
C359 C358 1.392 . S
C359 C361 1.384 . S
H360 C362 0.949 . S
C361 C359 1.384 . S
C361 C362 1.385 . S
C361 H363 0.950 . S
C362 C356 1.404 . S
C362 H360 0.949 . S
C362 C361 1.385 . S
H363 C361 0.950 . S
H364 C348 0.951 . S
H365 C350 0.951 . S
H366 C352 0.951 . S
H367 C353 0.950 . S
H368 C354 0.950 . S
H369 C355 0.950 . S
H370 C357 0.950 . S
H371 C358 0.951 . S
C372 C373 1.386 . S
C372 C374 1.383 . S
C372 H388 0.951 . S
C373 C372 1.386 . S
C373 C377 1.383 . S
C374 C372 1.383 . S
C374 C375 1.402 . S
C374 H389 0.951 . S
C375 C374 1.402 . S
C375 C376 1.375 . S
C375 C378 1.481 . S
C376 C375 1.375 . S
C376 C377 1.367 . S
C376 H390 0.951 . S
C377 C373 1.383 . S
C377 C376 1.367 . S
C377 H391 0.950 . S
C378 C375 1.481 . S
C378 C379 1.297 . S
C378 H392 0.950 . S
C379 C378 1.297 . S
C379 C380 1.479 . S
C379 H393 0.950 . S
C380 C379 1.479 . S
C380 C381 1.375 . S
C380 C386 1.404 . S
C381 C380 1.375 . S
C381 C382 1.369 . S
C381 H394 0.950 . S
C382 C381 1.369 . S
C382 C383 1.392 . S
C382 H395 0.951 . S
C383 C382 1.392 . S
C383 C385 1.384 . S
H384 C386 0.949 . S
C385 C383 1.384 . S
C385 C386 1.385 . S
C385 H387 0.950 . S
C386 C380 1.404 . S
C386 H384 0.949 . S
C386 C385 1.385 . S
H387 C385 0.950 . S
H388 C372 0.951 . S
H389 C374 0.951 . S
H390 C376 0.951 . S
H391 C377 0.950 . S
H392 C378 0.950 . S
H393 C379 0.950 . S
H394 C381 0.950 . S
H395 C382 0.951 . S
C396 C397 1.386 . S
C396 C398 1.383 . S
C396 H412 0.951 . S
C397 C396 1.386 . S
C397 C401 1.383 . S
C398 C396 1.383 . S
C398 C399 1.402 . S
C398 H413 0.951 . S
C399 C398 1.402 . S
C399 C400 1.375 . S
C399 C402 1.481 . S
C400 C399 1.375 . S
C400 C401 1.367 . S
C400 H414 0.951 . S
C401 C397 1.383 . S
C401 C400 1.367 . S
C401 H415 0.950 . S
C402 C399 1.481 . S
C402 C403 1.297 . S
C402 H416 0.950 . S
C403 C402 1.297 . S
C403 C404 1.479 . S
C403 H417 0.950 . S
C404 C403 1.479 . S
C404 C405 1.375 . S
C404 C410 1.404 . S
C405 C404 1.375 . S
C405 C406 1.369 . S
C405 H418 0.950 . S
C406 C405 1.369 . S
C406 C407 1.392 . S
C406 H419 0.951 . S
C407 C406 1.392 . S
C407 C409 1.384 . S
H408 C410 0.949 . S
C409 C407 1.384 . S
C409 C410 1.385 . S
C409 H411 0.950 . S
C410 C404 1.404 . S
C410 H408 0.949 . S
C410 C409 1.385 . S
H411 C409 0.950 . S
H412 C396 0.951 . S
H413 C398 0.951 . S
H414 C400 0.951 . S
H415 C401 0.950 . S
H416 C402 0.950 . S
H417 C403 0.950 . S
H418 C405 0.950 . S
H419 C406 0.951 . S
C420 C421 1.386 . S
C420 C422 1.383 . S
C420 H436 0.951 . S
C421 C420 1.386 . S
C421 C425 1.383 . S
C422 C420 1.383 . S
C422 C423 1.402 . S
C422 H437 0.951 . S
C423 C422 1.402 . S
C423 C424 1.375 . S
C423 C426 1.481 . S
C424 C423 1.375 . S
C424 C425 1.367 . S
C424 H438 0.951 . S
C425 C421 1.383 . S
C425 C424 1.367 . S
C425 H439 0.950 . S
C426 C423 1.481 . S
C426 C427 1.297 . S
C426 H440 0.950 . S
C427 C426 1.297 . S
C427 C428 1.479 . S
C427 H441 0.950 . S
C428 C427 1.479 . S
C428 C429 1.375 . S
C428 C434 1.404 . S
C429 C428 1.375 . S
C429 C430 1.369 . S
C429 H442 0.950 . S
C430 C429 1.369 . S
C430 C431 1.392 . S
C430 H443 0.951 1_545 S
C431 C430 1.392 . S
C431 C433 1.384 . S
H432 C434 0.949 . S
C433 C431 1.384 . S
C433 C434 1.385 . S
C433 H435 0.950 . S
C434 C428 1.404 . S
C434 H432 0.949 . S
C434 C433 1.385 . S
H435 C433 0.950 . S
H436 C420 0.951 . S
H437 C422 0.951 . S
H438 C424 0.951 . S
H439 C425 0.950 . S
H440 C426 0.950 . S
H441 C427 0.950 . S
H442 C429 0.950 . S
H443 C430 0.951 1_565 S
C444 C445 1.386 . S
C444 C446 1.383 . S
C444 H460 0.951 . S
C445 C444 1.386 . S
C445 C449 1.383 . S
C446 C444 1.383 . S
C446 C447 1.402 . S
C446 H461 0.951 . S
C447 C446 1.402 . S
C447 C448 1.375 . S
C447 C450 1.481 . S
C448 C447 1.375 . S
C448 C449 1.367 . S
C448 H462 0.951 . S
C449 C445 1.383 . S
C449 C448 1.367 . S
C449 H463 0.950 . S
C450 C447 1.481 . S
C450 C451 1.297 . S
C450 H464 0.950 . S
C451 C450 1.297 . S
C451 C452 1.479 . S
C451 H465 0.950 . S
C452 C451 1.479 . S
C452 C453 1.375 . S
C452 C458 1.404 . S
C453 C452 1.375 . S
C453 C454 1.369 . S
C453 H466 0.950 . S
C454 C453 1.369 . S
C454 C455 1.392 . S
C454 H467 0.951 . S
C455 C454 1.392 . S
C455 C457 1.384 . S
H456 C458 0.949 . S
C457 C455 1.384 . S
C457 C458 1.385 . S
C457 H459 0.950 . S
C458 C452 1.404 . S
C458 H456 0.949 . S
C458 C457 1.385 . S
H459 C457 0.950 . S
H460 C444 0.951 . S
H461 C446 0.951 . S
H462 C448 0.951 . S
H463 C449 0.950 . S
H464 C450 0.950 . S
H465 C451 0.950 . S
H466 C453 0.950 . S
H467 C454 0.951 . S
C468 C469 1.386 . S
C468 C470 1.383 . S
C468 H484 0.951 1_545 S
C469 C468 1.386 . S
C469 C473 1.383 . S
C470 C468 1.383 . S
C470 C471 1.402 . S
C470 H485 0.951 1_545 S
C471 C470 1.402 . S
C471 C472 1.375 . S
C471 C474 1.481 . S
C472 C471 1.375 . S
C472 C473 1.367 . S
C472 H486 0.951 . S
C473 C469 1.383 . S
C473 C472 1.367 . S
C473 H487 0.950 . S
C474 C471 1.481 . S
C474 C475 1.297 . S
C474 H488 0.950 . S
C475 C474 1.297 . S
C475 C476 1.479 . S
C475 H489 0.950 1_545 S
C476 C475 1.479 . S
C476 C477 1.375 1_545 S
C476 C482 1.404 . S
C477 C476 1.375 1_565 S
C477 C478 1.369 1_565 S
C477 H490 0.950 . S
C478 C477 1.369 1_545 S
C478 C479 1.392 . S
C478 H491 0.951 1_545 S
C479 C478 1.392 . S
C479 C481 1.384 . S
H480 C482 0.949 . S
C481 C479 1.384 . S
C481 C482 1.385 . S
C481 H483 0.950 . S
C482 C476 1.404 . S
C482 H480 0.949 . S
C482 C481 1.385 . S
H483 C481 0.950 . S
H484 C468 0.951 1_565 S
H485 C470 0.951 1_565 S
H486 C472 0.951 . S
H487 C473 0.950 . S
H488 C474 0.950 . S
H489 C475 0.950 1_565 S
H490 C477 0.950 . S
H491 C478 0.951 1_565 S
C492 C493 1.386 . S
C492 C494 1.383 . S
C492 H508 0.951 . S
C493 C492 1.386 . S
C493 C497 1.383 . S
C494 C492 1.383 . S
C494 C495 1.402 . S
C494 H509 0.951 . S
C495 C494 1.402 . S
C495 C496 1.375 . S
C495 C498 1.481 . S
C496 C495 1.375 . S
C496 C497 1.367 . S
C496 H510 0.951 . S
C497 C493 1.383 . S
C497 C496 1.367 . S
C497 H511 0.950 . S
C498 C495 1.481 . S
C498 C499 1.297 . S
C498 H512 0.950 . S
C499 C498 1.297 . S
C499 C500 1.479 . S
C499 H513 0.950 . S
C500 C499 1.479 . S
C500 C501 1.375 . S
C500 C506 1.404 . S
C501 C500 1.375 . S
C501 C502 1.369 . S
C501 H514 0.950 . S
C502 C501 1.369 . S
C502 C503 1.392 . S
C502 H515 0.951 . S
C503 C502 1.392 . S
C503 C505 1.384 . S
H504 C506 0.949 . S
C505 C503 1.384 . S
C505 C506 1.385 . S
C505 H507 0.950 . S
C506 C500 1.404 . S
C506 H504 0.949 . S
C506 C505 1.385 . S
H507 C505 0.950 . S
H508 C492 0.951 . S
H509 C494 0.951 . S
H510 C496 0.951 . S
H511 C497 0.950 . S
H512 C498 0.950 . S
H513 C499 0.950 . S
H514 C501 0.950 . S
H515 C502 0.951 . S
C335 C197 2.263 . S
C325 C69 2.282 . S
C359 C285 2.281 . S
C349 C143 2.282 . S
C383 C205 1.428 . S
C373 C63 1.386 . S
C407 C293 1.415 . S
C397 C137 1.308 . S
C431 C265 1.340 . S
C421 C39 1.321 . S
C455 C168 1.343 . S
C445 C113 1.320 . S
C479 C256 0.628 . S
C469 C51 0.628 . S
C493 C125 0.617 . S
C503 C177 0.662 . S
