# Generated by pormake.
# Topology pyr, (3,6)-cn, num edge types: 1
# Building blocks:
#     Node 0, Type 0, BuildingBlock: BETDAH_clean_linker_0, # of connection points: 3
#     Node 1, Type 0, BuildingBlock: BETDAH_clean_linker_0, # of connection points: 3
#     Node 2, Type 0, BuildingBlock: BETDAH_clean_linker_0, # of connection points: 3
#     Node 3, Type 0, BuildingBlock: BETDAH_clean_linker_0, # of connection points: 3
#     Node 4, Type 0, BuildingBlock: BETDAH_clean_linker_0, # of connection points: 3
#     Node 5, Type 0, BuildingBlock: BETDAH_clean_linker_0, # of connection points: 3
#     Node 6, Type 0, BuildingBlock: BETDAH_clean_linker_0, # of connection points: 3
#     Node 7, Type 0, BuildingBlock: BETDAH_clean_linker_0, # of connection points: 3
#     Node 8, Type 1, BuildingBlock: INOVEN_clean_sbu_0, # of connection points: 6
#     Node 9, Type 1, BuildingBlock: INOVEN_clean_sbu_0, # of connection points: 6
#     Node 10, Type 1, BuildingBlock: INOVEN_clean_sbu_0, # of connection points: 6
#     Node 11, Type 1, BuildingBlock: INOVEN_clean_sbu_0, # of connection points: 6
#     Edge 12, Type (0, 1), BuildingBlock: TEMPAE_clean_linker_10, # of connection points: 2
#     Edge 13, Type (0, 1), BuildingBlock: TEMPAE_clean_linker_10, # of connection points: 2
#     Edge 14, Type (0, 1), BuildingBlock: TEMPAE_clean_linker_10, # of connection points: 2
#     Edge 15, Type (0, 1), BuildingBlock: TEMPAE_clean_linker_10, # of connection points: 2
#     Edge 16, Type (0, 1), BuildingBlock: TEMPAE_clean_linker_10, # of connection points: 2
#     Edge 17, Type (0, 1), BuildingBlock: TEMPAE_clean_linker_10, # of connection points: 2
#     Edge 18, Type (0, 1), BuildingBlock: TEMPAE_clean_linker_10, # of connection points: 2
#     Edge 19, Type (0, 1), BuildingBlock: TEMPAE_clean_linker_10, # of connection points: 2
#     Edge 20, Type (0, 1), BuildingBlock: TEMPAE_clean_linker_10, # of connection points: 2
#     Edge 21, Type (0, 1), BuildingBlock: TEMPAE_clean_linker_10, # of connection points: 2
#     Edge 22, Type (0, 1), BuildingBlock: TEMPAE_clean_linker_10, # of connection points: 2
#     Edge 23, Type (0, 1), BuildingBlock: TEMPAE_clean_linker_10, # of connection points: 2
#     Edge 24, Type (0, 1), BuildingBlock: TEMPAE_clean_linker_10, # of connection points: 2
#     Edge 25, Type (0, 1), BuildingBlock: TEMPAE_clean_linker_10, # of connection points: 2
#     Edge 26, Type (0, 1), BuildingBlock: TEMPAE_clean_linker_10, # of connection points: 2
#     Edge 27, Type (0, 1), BuildingBlock: TEMPAE_clean_linker_10, # of connection points: 2
#     Edge 28, Type (0, 1), BuildingBlock: TEMPAE_clean_linker_10, # of connection points: 2
#     Edge 29, Type (0, 1), BuildingBlock: TEMPAE_clean_linker_10, # of connection points: 2
#     Edge 30, Type (0, 1), BuildingBlock: TEMPAE_clean_linker_10, # of connection points: 2
#     Edge 31, Type (0, 1), BuildingBlock: TEMPAE_clean_linker_10, # of connection points: 2
#     Edge 32, Type (0, 1), BuildingBlock: TEMPAE_clean_linker_10, # of connection points: 2
#     Edge 33, Type (0, 1), BuildingBlock: TEMPAE_clean_linker_10, # of connection points: 2
#     Edge 34, Type (0, 1), BuildingBlock: TEMPAE_clean_linker_10, # of connection points: 2
#     Edge 35, Type (0, 1), BuildingBlock: TEMPAE_clean_linker_10, # of connection points: 2
# Relax obj value: 0.140
# Max RMSD: 0.191
# Mean RMSD: 0.141
data_MOF--net-pyr--node1-INOVEN_clean_sbu_0--node2-BETDAH_clean_linker_0--edge1-TEMPAE_clean_linker_10
_symmetry_space_group_name_H-M    P1
_symmetry_Int_Tables_number       1
_symmetry_cell_setting            triclinic
loop_
_symmetry_equiv_pos_as_xyz
'x, y, z'
_cell_length_a     37.744949
_cell_length_b     41.444405
_cell_length_c     38.447755
_cell_angle_alpha  92.143055
_cell_angle_beta   89.470859
_cell_angle_gamma 106.42266
loop_
_atom_site_label
_atom_site_type_symbol
_atom_site_fract_x
_atom_site_fract_y
_atom_site_fract_z
_atom_type_partial_charge
H0 H 0.37788 0.24993 0.26408 0.0
H1 H 0.42588 0.32094 0.18597 0.0
H2 H 0.35161 0.34426 0.26169 0.0
C3 C 0.38208 0.27441 0.25303 0.0
C4 C 0.3631 0.29652 0.26719 0.0
C5 C 0.4047 0.28268 0.22363 0.0
C6 C 0.40835 0.31386 0.20852 0.0
C7 C 0.3887 0.33576 0.22163 0.0
C8 C 0.36622 0.32708 0.25108 0.0
N9 N 0.3921 0.3663 0.20461 0.0
C10 C 0.36457 0.38266 0.20438 0.0
H11 H 0.2965 0.82938 0.714 0.0
H12 H 0.24238 0.90206 0.68252 0.0
H13 H 0.27367 0.83715 0.60639 0.0
C14 C 0.28254 0.83942 0.69432 0.0
C15 C 0.28566 0.82975 0.65956 0.0
C16 C 0.26763 0.86598 0.70296 0.0
C17 C 0.25266 0.8806 0.67642 0.0
C18 C 0.25403 0.86902 0.64162 0.0
C19 C 0.27013 0.84366 0.63356 0.0
N20 N 0.24352 0.8847 0.61337 0.0
C21 C 0.21882 0.90326 0.61658 0.0
H22 H 0.71756 0.35739 0.95066 0.0
H23 H 0.7178 0.42509 0.86693 0.0
H24 H 0.63113 0.33312 0.87484 0.0
C25 C 0.70629 0.36364 0.927 0.0
C26 C 0.67324 0.34085 0.9144 0.0
C27 C 0.72405 0.39415 0.91026 0.0
C28 C 0.70558 0.40258 0.881 0.0
C29 C 0.67145 0.38096 0.86879 0.0
C30 C 0.65632 0.3502 0.88534 0.0
N31 N 0.65201 0.38703 0.83871 0.0
C32 C 0.65433 0.41626 0.82003 0.0
H33 H 0.83178 0.75359 0.43336 0.0
H34 H 0.92416 0.75297 0.366 0.0
H35 H 0.83403 0.66335 0.3767 0.0
C36 C 0.84564 0.74098 0.41485 0.0
C37 C 0.82879 0.70692 0.40638 0.0
C38 C 0.88036 0.75836 0.40103 0.0
C39 C 0.89685 0.74095 0.37589 0.0
C40 C 0.87965 0.7068 0.36591 0.0
C41 C 0.84598 0.69008 0.382 0.0
N42 N 0.90013 0.68654 0.34862 0.0
C43 C 0.9103 0.68543 0.31334 0.0
H44 H 0.72374 0.74965 0.80249 0.0
H45 H 0.69053 0.76271 0.90808 0.0
H46 H 0.67867 0.83111 0.83186 0.0
C47 C 0.71308 0.76349 0.8224 0.0
C48 C 0.70511 0.79334 0.81361 0.0
C49 C 0.71238 0.75419 0.85715 0.0
C50 C 0.69303 0.76943 0.8811 0.0
C51 C 0.67827 0.79529 0.87138 0.0
C52 C 0.68598 0.80854 0.83801 0.0
N53 N 0.65818 0.80829 0.89714 0.0
C54 C 0.64494 0.83633 0.89536 0.0
H55 H 0.79209 0.19041 0.41834 0.0
H56 H 0.868 0.26229 0.4853 0.0
H57 H 0.77082 0.28436 0.44735 0.0
C58 C 0.79981 0.21448 0.4326 0.0
C59 C 0.77758 0.23622 0.43079 0.0
C60 C 0.8326 0.22396 0.45171 0.0
C61 C 0.84315 0.25524 0.46951 0.0
C62 C 0.82054 0.2766 0.46912 0.0
C63 C 0.78791 0.26743 0.44901 0.0
N64 N 0.8306 0.30642 0.4903 0.0
C65 C 0.8042 0.32011 0.50474 0.0
H66 H 0.34332 0.77196 0.18323 0.0
H67 H 0.34653 0.69776 0.25842 0.0
H68 H 0.43427 0.7907 0.25457 0.0
C69 C 0.35681 0.76429 0.20493 0.0
C70 C 0.39071 0.78563 0.21703 0.0
C71 C 0.34031 0.73269 0.21927 0.0
C72 C 0.35873 0.72194 0.24716 0.0
C73 C 0.39298 0.74318 0.26031 0.0
C74 C 0.4083 0.77452 0.2446 0.0
N75 N 0.41443 0.73538 0.28823 0.0
C76 C 0.40888 0.70954 0.31253 0.0
H77 H 0.22264 0.37279 0.65849 0.0
H78 H 0.21513 0.44627 0.73893 0.0
H79 H 0.13128 0.35166 0.73013 0.0
C80 C 0.20829 0.37994 0.68067 0.0
C81 C 0.17443 0.35776 0.6914 0.0
C82 C 0.22366 0.41184 0.69762 0.0
C83 C 0.20385 0.4221 0.72559 0.0
C84 C 0.1702 0.40023 0.73714 0.0
C85 C 0.15641 0.36843 0.72012 0.0
N86 N 0.14945 0.40732 0.76655 0.0
C87 C 0.15174 0.437 0.78652 0.0
Gd88 Gd 0.03695 0.07259 0.50792 0.0
Gd89 Gd 1.00995 0.04567 0.57827 0.0
C90 C 0.05595 0.12338 0.57728 0.0
C91 C 0.05834 0.10601 0.45283 0.0
C92 C 0.09426 0.1285 0.44216 0.0
C93 C 0.12451 0.11572 0.43521 0.0
C94 C 0.09862 0.16302 0.43875 0.0
C95 C 0.16189 0.17105 0.4194 0.0
C96 C 0.13226 0.18419 0.42759 0.0
C97 C 0.15793 0.13678 0.42386 0.0
C98 C 0.0837 0.04752 0.54402 0.0
C99 C 0.99129 0.99578 0.50778 0.0
C100 C 0.98985 1.01 0.63212 0.0
C101 C 0.95433 0.9859 0.64112 0.0
C102 C 0.92114 0.99494 0.6393 0.0
C103 C 0.95328 0.95352 0.65144 0.0
C104 C 0.88707 0.94074 0.66066 0.0
C105 C 0.91978 0.93102 0.66116 0.0
C106 C 0.88784 0.97261 0.64932 0.0
C107 C 0.96407 0.07285 0.54473 0.0
O108 O 0.04899 0.12032 0.54327 0.0
O109 O 0.04892 0.09608 0.5962 0.0
O110 O 0.0567 0.07421 0.45512 0.0
O111 O 0.04109 0.11712 0.47827 0.0
O112 O 0.07915 0.04332 0.51072 0.0
O113 O 0.06445 0.06519 0.55573 0.0
O114 O 0.99838 0.99841 0.54173 0.0
O115 O 0.99715 0.02319 0.48945 0.0
O116 O 0.98996 0.04155 0.6311 0.0
O117 O 1.00823 1.00072 0.60644 0.0
O118 O 0.96722 0.07398 0.57822 0.0
O119 O 0.98228 0.0548 0.53114 0.0
H120 H 0.12236 0.08932 0.43798 0.0
H121 H 0.07582 0.17351 0.44414 0.0
H122 H 0.13465 0.21054 0.42406 0.0
H123 H 0.18054 0.12618 0.41796 0.0
H124 H 0.92092 1.01952 0.63085 0.0
H125 H 0.97843 0.9459 0.65263 0.0
H126 H 0.91958 0.90655 0.67027 0.0
H127 H 0.86282 0.98051 0.64912 0.0
Gd128 Gd 0.56494 0.06822 0.08356 0.0
Gd129 Gd 0.50049 0.05659 0.03826 0.0
C130 C 0.50342 0.10295 0.1086 0.0
C131 C 0.62827 0.09444 0.11236 0.0
C132 C 0.63801 0.10825 0.148 0.0
C133 C 0.64565 0.08783 0.17362 0.0
C134 C 0.6378 0.14135 0.15725 0.0
C135 C 0.65257 0.13327 0.21691 0.0
C136 C 0.64487 0.15369 0.19144 0.0
C137 C 0.65288 0.10025 0.2078 0.0
C138 C 0.51606 1.01206 0.10848 0.0
C139 C 0.55754 1.01717 1.01696 0.0
C140 C 0.4377 0.04105 1.00708 0.0
C141 C 0.42356 1.01909 0.97641 0.0
C142 C 0.43111 0.03107 0.9426 0.0
C143 C 0.40284 0.98553 0.98081 0.0
C144 C 0.39568 0.97702 0.91852 0.0
C145 C 0.38893 0.96464 0.952 0.0
C146 C 0.4173 1.01005 0.91379 0.0
C147 C 0.55906 0.10766 1.01697 0.0
O148 O 0.53607 0.09918 0.11561 0.0
O149 O 0.48405 0.08811 0.08113 0.0
O150 O 0.61325 0.06195 0.10919 0.0
O151 O 0.61222 0.11136 0.09287 0.0
O152 O 0.54679 0.02826 0.12336 0.0
O153 O 0.51032 0.02833 0.08276 0.0
O154 O 0.5225 1.01603 1.01546 0.0
O155 O 0.58075 0.03939 0.03755 0.0
O156 O 0.46359 0.06886 1.00158 0.0
O157 O 0.44393 0.02586 0.03457 0.0
O158 O 0.53958 0.08362 0.9966 0.0
O159 O 0.5476 0.10205 0.04785 0.0
H160 H 0.64583 0.06217 0.16733 0.0
H161 H 0.63203 0.15776 0.13814 0.0
H162 H 0.64511 0.17943 0.19784 0.0
H163 H 0.65871 0.08408 0.22714 0.0
H164 H 0.44707 0.05679 0.93836 0.0
H165 H 0.39677 0.97557 1.00653 0.0
H166 H 0.37184 0.93921 0.95584 0.0
H167 H 0.42204 1.01999 0.88795 0.0
Gd168 Gd 0.52881 0.54194 0.55067 0.0
Gd169 Gd 0.5429 0.59932 0.592 0.0
C170 C 0.56837 0.54215 0.62702 0.0
C171 C 0.53455 0.48841 0.51805 0.0
C172 C 0.55878 0.46759 0.52551 0.0
C173 C 0.54674 0.43276 0.51889 0.0
C174 C 0.5936 0.48233 0.54074 0.0
C175 C 0.60523 0.42797 0.53998 0.0
C176 C 0.61671 0.46257 0.54793 0.0
C177 C 0.57004 0.41299 0.5259 0.0
C178 C 0.4664 0.54242 0.58615 0.0
C179 C 0.50272 0.59957 0.51575 0.0
C180 C 0.54147 0.65297 0.62721 0.0
C181 C 0.52264 0.67799 0.62009 0.0
C182 C 0.53585 0.71083 0.63407 0.0
C183 C 0.49104 0.66888 0.59896 0.0
C184 C 0.48361 0.72411 0.60874 0.0
C185 C 0.47184 0.69199 0.59299 0.0
C186 C 0.51604 0.73392 0.62865 0.0
C187 C 0.60408 0.59789 0.55442 0.0
O188 O 0.56249 0.52856 0.5951 0.0
O189 O 0.55983 0.57027 0.63397 0.0
O190 O 0.50917 0.48796 0.5414 0.0
O191 O 0.55115 0.51868 0.50785 0.0
O192 O 0.46808 0.53559 0.55315 0.0
O193 O 0.49886 0.55081 0.59904 0.0
O194 O 0.51185 0.61479 0.5467 0.0
O195 O 0.50825 0.5699 0.5094 0.0
O196 O 0.56778 0.65201 0.60542 0.0
O197 O 0.51972 0.62318 0.63365 0.0
O198 O 0.60406 0.60565 0.58735 0.0
O199 O 0.57126 0.59017 0.54313 0.0
H200 H 0.51973 0.42105 0.50767 0.0
H201 H 0.60329 0.50919 0.54637 0.0
H202 H 0.64412 0.47444 0.55826 0.0
H203 H 0.56124 0.38629 0.51916 0.0
H204 H 0.56037 0.71807 0.65026 0.0
H205 H 0.48001 0.64343 0.58858 0.0
H206 H 0.44611 0.68396 0.57853 0.0
H207 H 0.52457 0.75852 0.64171 0.0
Gd208 Gd 0.0422 0.5448 0.06185 0.0
Gd209 Gd 0.03542 0.60958 0.02845 0.0
C210 C 0.10794 0.61611 0.07628 0.0
C211 C 0.06716 0.49646 0.08203 0.0
C212 C 0.10116 0.49217 0.09798 0.0
C213 C 0.10588 0.49373 0.13435 0.0
C214 C 0.12818 0.48407 0.07675 0.0
C215 C 0.16244 0.47685 0.12779 0.0
C216 C 0.15844 0.47651 0.09148 0.0
C217 C 0.13637 0.48633 0.14911 0.0
C218 C 1.00282 0.57993 0.0995 0.0
C219 C 0.97189 0.53716 1.0137 0.0
C220 C 1.0069 0.65809 1.01748 0.0
C221 C 0.97641 0.66246 0.99568 0.0
C222 C 0.98238 0.69031 0.97447 0.0
C223 C 0.94063 0.64003 0.99733 0.0
C224 C 0.91693 0.67457 0.95887 0.0
C225 C 0.91128 0.64606 0.97921 0.0
C226 C 0.95301 0.69629 0.95621 0.0
C227 C 0.06437 0.57369 0.97958 0.0
O228 O 0.09542 0.58309 0.07971 0.0
O229 O 0.08975 0.63288 0.05773 0.0
O230 O 0.04597 0.50986 0.10142 0.0
O231 O 0.06997 0.5067 0.0501 0.0
O232 O 0.99401 0.54719 0.09649 0.0
O233 O 0.03223 0.5922 0.08248 0.0
O234 O 0.98019 0.5705 1.016 0.0
O235 O 0.99404 0.52079 0.02632 0.0
O236 O 0.03701 0.65551 1.00166 0.0
O237 O 0.997 0.63744 0.04306 0.0
O238 O 0.0588 0.60267 0.97454 0.0
O239 O 0.05494 0.56626 1.01066 0.0
H240 H 0.08553 0.49975 0.15149 0.0
H241 H 0.12546 0.48263 0.04866 0.0
H242 H 0.17839 0.46966 0.07445 0.0
H243 H 0.13873 0.48662 0.17718 0.0
H244 H 1.00965 0.70786 0.97257 0.0
H245 H 0.93498 0.61818 1.01332 0.0
H246 H 0.8839 0.62895 0.98215 0.0
H247 H 0.95849 0.71815 0.94027 0.0
C248 C 0.30266 0.29055 0.29725 0.0
C249 C 0.33814 0.28617 0.2973 0.0
C250 C 0.27661 0.27579 0.3224 0.0
C251 C 0.28629 0.25607 0.34797 0.0
C252 C 0.32292 0.25386 0.34988 0.0
C253 C 0.34848 0.26903 0.32451 0.0
C254 C 0.23783 0.27893 0.31974 0.0
C255 C 0.33439 0.23335 0.377 0.0
C256 C 0.2142 0.22398 0.41749 0.0
C257 C 0.19565 0.19218 0.40312 0.0
C258 C 0.24503 0.24471 0.40069 0.0
C259 C 0.25674 0.23349 0.36854 0.0
C260 C 0.23856 0.20103 0.35445 0.0
C261 C 0.20834 0.18073 0.37203 0.0
C262 C 0.26445 0.27881 0.41684 0.0
C263 C 0.25011 0.18818 0.32011 0.0
H264 H 0.29442 0.30368 0.2763 0.0
H265 H 0.37619 0.26628 0.32514 0.0
H266 H 0.219 0.25449 0.31034 0.0
H267 H 0.22775 0.28508 0.34564 0.0
H268 H 0.23606 0.29859 0.3015 0.0
H269 H 0.36491 0.23919 0.37901 0.0
H270 H 0.32312 0.23782 0.40291 0.0
H271 H 0.32311 0.20618 0.36994 0.0
H272 H 0.20448 0.23262 0.44175 0.0
H273 H 0.19373 0.15624 0.36078 0.0
H274 H 0.25983 0.29882 0.4006 0.0
H275 H 0.29468 0.28235 0.4178 0.0
H276 H 0.25445 0.28223 0.44361 0.0
H277 H 0.24654 0.2045 0.29896 0.0
H278 H 0.23379 0.1619 0.31343 0.0
H279 H 0.27976 0.18915 0.32089 0.0
C280 C 0.2743 0.86306 0.76696 0.0
C281 C 0.2767 0.88269 0.73762 0.0
C282 C 0.2932 0.87665 0.79762 0.0
C283 C 0.31386 0.9109 0.79917 0.0
C284 C 0.31429 0.93146 0.77054 0.0
C285 C 0.29579 0.91703 0.73993 0.0
C286 C 0.29282 0.85396 0.82755 0.0
C287 C 0.33582 0.96827 0.77164 0.0
C288 C 0.3374 0.95505 0.88674 0.0
C289 C 0.37496 0.95761 0.88918 0.0
C290 C 0.31702 0.93937 0.85767 0.0
C291 C 0.33473 0.92549 0.83093 0.0
C292 C 0.37258 0.92695 0.83392 0.0
C293 C 0.39256 0.94358 0.86306 0.0
C294 C 0.27694 0.93877 0.85498 0.0
C295 C 0.39203 0.91165 0.80613 0.0
H296 H 0.25963 0.83647 0.76508 0.0
H297 H 0.29842 0.93212 0.71712 0.0
H298 H 0.3212 0.85223 0.83216 0.0
H299 H 0.2838 0.86463 0.85181 0.0
H300 H 0.27433 0.82814 0.82255 0.0
H301 H 0.33085 0.98133 0.74825 0.0
H302 H 0.32833 0.98128 0.79514 0.0
H303 H 0.3658 0.97074 0.77331 0.0
H304 H 0.3243 0.96636 0.90717 0.0
H305 H 0.42178 0.94584 0.86539 0.0
H306 H 0.25931 0.91255 0.85076 0.0
H307 H 0.2731 0.95312 0.8322 0.0
H308 H 0.26716 0.94986 0.87865 0.0
H309 H 0.37609 0.88518 0.8 0.0
H310 H 0.42042 0.91219 0.81408 0.0
H311 H 0.39382 0.92566 0.78185 0.0
C312 C 0.6077 0.43692 0.78905 0.0
C313 C 0.64497 0.43888 0.79489 0.0
C314 C 0.59673 0.45481 0.76238 0.0
C315 C 0.62353 0.47558 0.74045 0.0
C316 C 0.66142 0.47828 0.74686 0.0
C317 C 0.67162 0.45982 0.77368 0.0
C318 C 0.55611 0.45078 0.75713 0.0
C319 C 0.69128 0.50039 0.725 0.0
C320 C 0.59065 0.49405 0.64992 0.0
C321 C 0.58428 0.52573 0.65541 0.0
C322 C 0.60397 0.47794 0.67686 0.0
C323 C 0.61161 0.49364 0.71061 0.0
C324 C 0.60604 0.52598 0.71606 0.0
C325 C 0.59244 0.54138 0.68875 0.0
C326 C 0.60914 0.44359 0.6693 0.0
C327 C 0.61395 0.54427 0.75105 0.0
H328 H 0.58679 0.42055 0.80495 0.0
H329 H 0.70045 0.46132 0.7776 0.0
H330 H 0.55064 0.47571 0.75922 0.0
H331 H 0.54767 0.44006 0.7306 0.0
H332 H 0.53862 0.43413 0.77643 0.0
H333 H 0.71939 0.50071 0.73363 0.0
H334 H 0.68767 0.49142 0.69736 0.0
H335 H 0.68907 0.52655 0.72624 0.0
H336 H 0.58465 0.48144 0.62456 0.0
H337 H 0.58795 0.56583 0.69373 0.0
H338 H 0.59038 0.42494 0.68602 0.0
H339 H 0.63781 0.44378 0.67565 0.0
H340 H 0.60346 0.43515 0.64163 0.0
H341 H 0.59449 0.53023 0.77071 0.0
H342 H 0.61125 0.57025 0.75054 0.0
H343 H 0.64228 0.54556 0.75977 0.0
C344 C 0.95452 0.6614 0.28062 0.0
C345 C 0.92481 0.67548 0.28007 0.0
C346 C 0.96717 0.64812 0.25004 0.0
C347 C 0.94987 0.64878 0.21752 0.0
C348 C 0.9203 0.6638 0.2167 0.0
C349 C 0.908 0.67673 0.24789 0.0
C350 C 0.99853 0.63243 0.25278 0.0
C351 C 0.90104 0.66549 0.18292 0.0
C352 C 1.00337 0.63319 0.13518 0.0
C353 C 0.98759 0.59863 0.12764 0.0
C354 C 0.99075 0.65005 0.16345 0.0
C355 C 0.96159 0.63213 0.18513 0.0
C356 C 0.94504 0.59743 0.17696 0.0
C357 C 0.95809 0.58129 0.14855 0.0
C358 C 1.00929 0.68698 0.17064 0.0
C359 C 0.91407 0.57692 0.19894 0.0
H360 H 0.96745 0.65998 0.30537 0.0
H361 H 0.8848 0.68725 0.24716 0.0
H362 H 0.98872 0.60528 0.24511 0.0
H363 H 0.02104 0.64434 0.23462 0.0
H364 H 1.01006 0.63494 0.27955 0.0
H365 H 0.88043 0.67994 0.18593 0.0
H366 H 0.92154 0.67736 0.16296 0.0
H367 H 0.88672 0.63965 0.17298 0.0
H368 H 0.02615 0.64701 0.11936 0.0
H369 H 0.94552 0.55466 0.14313 0.0
H370 H 0.0237 0.69054 0.19612 0.0
H371 H 0.98834 0.70111 0.17234 0.0
H372 H 0.02973 0.69798 0.15025 0.0
H373 H 0.92422 0.57595 0.22576 0.0
H374 H 0.90276 0.55075 0.18831 0.0
H375 H 0.89133 0.58898 0.20079 0.0
C376 C 0.42272 0.25242 0.17156 0.0
C377 C 0.42248 0.25776 0.20781 0.0
C378 C 0.43702 0.2274 0.15637 0.0
C379 C 0.45105 0.20687 0.17791 0.0
C380 C 0.4514 0.21239 0.21447 0.0
C381 C 0.43735 0.23787 0.22895 0.0
C382 C 0.43651 0.22258 0.11723 0.0
C383 C 0.46593 0.19093 0.23834 0.0
C384 C 0.4529 0.12206 0.13757 0.0
C385 C 0.49033 0.12804 0.12921 0.0
C386 C 0.43998 0.14711 0.15467 0.0
C387 C 0.46485 0.17929 0.16214 0.0
C388 C 0.5027 0.18537 0.15362 0.0
C389 C 0.51509 0.15945 0.13781 0.0
C390 C 0.39966 0.1393 0.16437 0.0
C391 C 0.52988 0.21959 0.15999 0.0
H392 H 0.41079 0.26721 0.15501 0.0
H393 H 0.43775 0.24207 0.25696 0.0
H394 H 0.46457 0.22356 0.10755 0.0
H395 H 0.41802 0.19742 0.1096 0.0
H396 H 0.42682 0.24197 0.1041 0.0
H397 H 0.46449 0.19858 0.2662 0.0
H398 H 0.44974 0.16415 0.2346 0.0
H399 H 0.49506 0.19255 0.23183 0.0
H400 H 0.43379 0.09776 0.13079 0.0
H401 H 0.54394 0.16426 0.13068 0.0
H402 H 0.38635 0.15526 0.14969 0.0
H403 H 0.39688 0.14524 0.19247 0.0
H404 H 0.38449 0.11247 0.15883 0.0
H405 H 0.52141 0.23856 0.145 0.0
H406 H 0.55845 0.22004 0.15226 0.0
H407 H 0.52996 0.22738 0.1879 0.0
C408 C 0.1671 0.9208 0.64122 0.0
C409 C 0.1927 0.9216 0.61464 0.0
C410 C 0.14036 0.93795 0.6379 0.0
C411 C 0.14054 0.95641 0.60767 0.0
C412 C 0.16628 0.95636 0.58051 0.0
C413 C 0.1921 0.93873 0.58448 0.0
C414 C 0.11254 0.93625 0.6667 0.0
C415 C 0.1668 0.97481 0.54715 0.0
C416 C 0.0772 0.98937 0.55949 0.0
C417 C 0.09361 0.02363 0.56563 0.0
C418 C 0.08636 0.96582 0.57978 0.0
C419 C 0.11553 0.9773 0.60384 0.0
C420 C 0.12897 1.01196 0.6131 0.0
C421 C 0.11712 0.03502 0.59402 0.0
C422 C 0.06854 0.92885 0.57202 0.0
C423 C 0.15928 0.02481 0.63968 0.0
H424 H 0.16782 0.90669 0.66428 0.0
H425 H 0.21191 0.93829 0.56392 0.0
H426 H 0.12495 0.95527 0.68749 0.0
H427 H 0.08684 0.94119 0.65751 0.0
H428 H 0.10524 0.91118 0.67855 0.0
H429 H 0.19075 0.97429 0.53034 0.0
H430 H 0.14128 0.96294 0.532 0.0
H431 H 0.16788 1.00148 0.55292 0.0
H432 H 0.05807 0.98114 0.53829 0.0
H433 H 0.12829 0.06183 0.59955 0.0
H434 H 0.07105 0.91341 0.59435 0.0
H435 H 0.08202 0.92048 0.549 0.0
H436 H 0.03881 0.92425 0.56575 0.0
H437 H 0.1531 1.00973 0.66334 0.0
H438 H 0.16307 0.05172 0.64719 0.0
H439 H 0.18569 0.02216 0.62873 0.0
C440 C 0.78397 0.40348 0.94558 0.0
C441 C 0.76168 0.41631 0.92354 0.0
C442 C 0.81756 0.4238 0.95998 0.0
C443 C 0.83167 0.45773 0.95053 0.0
C444 C 0.81083 0.47061 0.92689 0.0
C445 C 0.77601 0.4503 0.91457 0.0
C446 C 0.83782 0.40874 0.98572 0.0
C447 C 0.82556 0.50592 0.91418 0.0
C448 C 0.90235 0.52015 1.01028 0.0
C449 C 0.93623 0.51762 0.99697 0.0
C450 C 0.86836 0.50083 0.99561 0.0
C451 C 0.86794 0.47952 0.96566 0.0
C452 C 0.90234 0.47796 0.95138 0.0
C453 C 0.93586 0.49628 0.96767 0.0
C454 C 0.83283 0.50232 1.013 0.0
C455 C 0.90397 0.45686 0.91888 0.0
H456 H 0.77576 0.37725 0.95189 0.0
H457 H 0.76023 0.46154 0.89795 0.0
H458 H 0.86349 0.40556 0.97374 0.0
H459 H 0.84589 0.42578 1.00906 0.0
H460 H 0.8209 0.38378 0.99427 0.0
H461 H 0.80788 0.5114 0.89357 0.0
H462 H 0.82743 0.52446 0.93612 0.0
H463 H 0.85389 0.50967 0.90371 0.0
H464 H 0.90242 0.53648 0.033 0.0
H465 H 0.96194 0.49439 0.95704 0.0
H466 H 0.81688 0.47671 1.02059 0.0
H467 H 0.81546 0.51118 0.99463 0.0
H468 H 0.83772 0.51932 0.03658 0.0
H469 H 0.89752 0.43001 0.92547 0.0
H470 H 0.9318 0.46422 0.90674 0.0
H471 H 0.88332 0.45913 0.89945 0.0
C472 C 0.79942 0.67494 0.4584 0.0
C473 C 0.79536 0.68853 0.42629 0.0
C474 C 0.76851 0.65975 0.47909 0.0
C475 C 0.73239 0.65823 0.46764 0.0
C476 C 0.72825 0.67204 0.43515 0.0
C477 C 0.75972 0.687 0.41494 0.0
C478 C 0.77458 0.64569 0.51346 0.0
C479 C 0.69057 0.67161 0.42204 0.0
C480 C 0.64833 0.59374 0.50608 0.0
C481 C 0.63672 0.61299 0.53215 0.0
C482 C 0.67961 0.60796 0.48533 0.0
C483 C 0.69911 0.64261 0.48982 0.0
C484 C 0.68684 0.66226 0.51575 0.0
C485 C 0.65629 0.64713 0.53687 0.0
C486 C 0.69209 0.58576 0.45881 0.0
C487 C 0.70587 0.69938 0.52112 0.0
H488 H 0.827 0.67662 0.46755 0.0
H489 H 0.75652 0.69801 0.39044 0.0
H490 H 0.76523 0.65979 0.53506 0.0
H491 H 0.75791 0.619 0.51461 0.0
H492 H 0.80407 0.64721 0.51785 0.0
H493 H 0.6918 0.68272 0.39605 0.0
H494 H 0.67234 0.6454 0.42032 0.0
H495 H 0.67762 0.68595 0.44068 0.0
H496 H 0.63336 0.56736 0.50239 0.0
H497 H 0.6472 0.66224 0.55677 0.0
H498 H 0.72116 0.58641 0.46404 0.0
H499 H 0.69121 0.59535 0.43237 0.0
H500 H 0.6747 0.5592 0.45902 0.0
H501 H 0.73487 0.70317 0.52938 0.0
H502 H 0.69187 0.71152 0.54107 0.0
H503 H 0.70664 0.71236 0.49627 0.0
C504 C 0.34207 0.42273 0.1721 0.0
C505 C 0.33702 0.4001 0.19897 0.0
C506 C 0.31441 0.43772 0.16368 0.0
C507 C 0.28087 0.42976 0.18264 0.0
C508 C 0.27633 0.40783 0.21084 0.0
C509 C 0.30454 0.39308 0.21862 0.0
C510 C 0.32045 0.46087 0.13342 0.0
C511 C 0.24108 0.39883 0.23176 0.0
C512 C 0.21557 0.48374 0.16919 0.0
C513 C 0.19219 0.46483 0.14308 0.0
C514 C 0.24436 0.47253 0.1828 0.0
C515 C 0.24935 0.44146 0.17038 0.0
C516 C 0.2251 0.42197 0.14468 0.0
C517 C 0.19705 0.43399 0.13122 0.0
C518 C 0.26986 0.4942 0.20988 0.0
C519 C 0.22909 0.38854 0.13096 0.0
H520 H 0.36732 0.42797 0.15695 0.0
H521 H 0.30079 0.37543 0.23941 0.0
H522 H 0.30121 0.44889 0.11195 0.0
H523 H 0.3144 0.48479 0.14126 0.0
H524 H 0.34915 0.46674 0.12332 0.0
H525 H 0.24318 0.38402 0.25476 0.0
H526 H 0.23393 0.42195 0.24076 0.0
H527 H 0.21801 0.38381 0.21508 0.0
H528 H 0.21185 0.50763 0.17834 0.0
H529 H 0.17862 0.41908 0.11144 0.0
H530 H 0.29849 0.50198 0.19965 0.0
H531 H 0.27022 0.47962 0.23342 0.0
H532 H 0.26162 0.51716 0.21757 0.0
H533 H 0.25623 0.39232 0.11793 0.0
H534 H 0.20701 0.37583 0.11207 0.0
H535 H 0.22828 0.37158 0.1528 0.0
C536 C 0.67989 0.28877 0.94446 0.0
C537 C 0.65696 0.30708 0.93124 0.0
C538 C 0.66527 0.25705 0.95961 0.0
C539 C 0.62647 0.24254 0.96188 0.0
C540 C 0.60314 0.26092 0.94889 0.0
C541 C 0.61849 0.29262 0.93388 0.0
C542 C 0.69154 0.23876 0.97278 0.0
C543 C 0.56169 0.24699 0.95071 0.0
C544 C 0.58704 0.14622 0.96824 0.0
C545 C 0.57861 0.14205 1.0038 0.0
C546 C 0.60281 0.17839 0.95454 0.0
C547 C 0.61037 0.20779 0.97665 0.0
C548 C 0.60227 0.20372 1.01273 0.0
C549 C 0.58677 0.17112 0.02581 0.0
C550 C 0.61101 0.1809 0.9161 0.0
C551 C 0.60955 0.23394 0.03755 0.0
H552 H 0.70958 0.29891 0.94234 0.0
H553 H 0.60013 0.30627 0.92445 0.0
H554 H 0.68571 0.23281 1.00051 0.0
H555 H 0.68743 0.21449 0.95795 0.0
H556 H 0.7209 0.25367 0.97035 0.0
H557 H 0.54717 0.26442 0.94024 0.0
H558 H 0.55274 0.22266 0.93571 0.0
H559 H 0.55297 0.24195 0.97809 0.0
H560 H 0.58092 0.12414 0.95085 0.0
H561 H 0.58027 0.16849 0.05327 0.0
H562 H 0.64065 0.19398 0.91197 0.0
H563 H 0.5948 0.1961 0.90405 0.0
H564 H 0.60436 0.15583 0.9024 0.0
H565 H 0.63933 0.2479 0.03723 0.0
H566 H 0.60143 0.22686 0.06468 0.0
H567 H 0.59407 0.2514 0.02908 0.0
C568 C 0.89415 0.80305 0.45006 0.0
C569 C 0.89964 0.79362 0.4152 0.0
C570 C 0.90926 0.83617 0.46353 0.0
C571 C 0.9321 0.86092 0.44239 0.0
C572 C 0.93939 0.85142 0.40772 0.0
C573 C 0.92283 0.81819 0.39447 0.0
C574 C 0.90036 0.8447 0.50053 0.0
C575 C 0.96481 0.8764 0.3846 0.0
C576 C 0.94486 0.9541 0.46909 0.0
C577 C 0.97654 0.96166 0.49016 0.0
C578 C 0.93023 0.92165 0.45324 0.0
C579 C 0.94857 0.89638 0.45707 0.0
C580 C 0.98145 0.90445 0.47714 0.0
C581 C 0.99436 0.93647 0.49398 0.0
C582 C 0.8944 0.91408 0.43333 0.0
C583 C 1.00303 0.87918 0.48115 0.0
H584 H 0.87788 0.78444 0.46726 0.0
H585 H 0.9277 0.81168 0.36767 0.0
H586 H 0.92593 0.85209 0.51643 0.0
H587 H 0.88871 0.86649 0.5011 0.0
H588 H 0.88031 0.82327 0.51294 0.0
H589 H 0.96939 0.86482 0.35904 0.0
H590 H 0.95303 0.89754 0.37999 0.0
H591 H 0.99191 0.88721 0.39763 0.0
H592 H 0.93079 0.97326 0.46593 0.0
H593 H 0.01894 0.94173 0.50961 0.0
H594 H 0.87336 0.89338 0.44572 0.0
H595 H 0.89827 0.90536 0.40631 0.0
H596 H 0.88359 0.93633 0.4324 0.0
H597 H 0.98745 0.85866 0.49778 0.0
H598 H 0.03056 0.89076 0.49319 0.0
H599 H 1.00697 0.86758 0.45545 0.0
C600 C 0.30705 0.78816 0.6236 0.0
C601 C 0.31404 0.81377 0.64945 0.0
C602 C 0.33572 0.77603 0.61085 0.0
C603 C 0.37156 0.78988 0.62478 0.0
C604 C 0.37892 0.81667 0.64986 0.0
C605 C 0.3499 0.82832 0.66194 0.0
C606 C 0.3274 0.74755 0.5838 0.0
C607 C 0.41698 0.83189 0.66523 0.0
C608 C 0.42998 0.73262 0.63844 0.0
C609 C 0.45659 0.74264 0.61263 0.0
C610 C 0.4012 0.74713 0.64168 0.0
C611 C 0.39966 0.77243 0.61862 0.0
C612 C 0.42652 0.78266 0.59231 0.0
C613 C 0.45498 0.76726 0.58943 0.0
C614 C 0.37291 0.73583 0.67015 0.0
C615 C 0.42515 0.80971 0.56755 0.0
H616 H 0.27927 0.77779 0.61344 0.0
H617 H 0.35538 0.84924 0.68085 0.0
H618 H 0.34862 0.75253 0.56301 0.0
H619 H 0.32809 0.72396 0.59613 0.0
H620 H 0.29977 0.74352 0.57175 0.0
H621 H 0.41877 0.85528 0.68107 0.0
H622 H 0.42398 0.81348 0.68218 0.0
H623 H 0.43808 0.83777 0.64438 0.0
H624 H 0.43157 0.71302 0.65582 0.0
H625 H 0.47564 0.77414 0.56918 0.0
H626 H 0.34467 0.72765 0.65892 0.0
H627 H 0.37402 0.75714 0.68886 0.0
H628 H 0.37747 0.71472 0.68475 0.0
H629 H 0.39929 0.80157 0.55207 0.0
H630 H 0.44902 0.81548 0.54941 0.0
H631 H 0.42483 0.83315 0.5823 0.0
C632 C 0.75868 0.80816 0.77262 0.0
C633 C 0.72363 0.81119 0.78231 0.0
C634 C 0.7795 0.82724 0.74654 0.0
C635 C 0.76585 0.85122 0.7302 0.0
C636 C 0.72989 0.85351 0.7382 0.0
C637 C 0.70907 0.83337 0.76418 0.0
C638 C 0.81765 0.82371 0.73882 0.0
C639 C 0.71436 0.87855 0.72073 0.0
C640 C 0.84531 0.92676 0.71092 0.0
C641 C 0.85328 0.91963 0.67645 0.0
C642 C 0.81509 0.90582 0.72799 0.0
C643 C 0.79209 0.87726 0.70986 0.0
C644 C 0.79889 0.87108 0.67425 0.0
C645 C 0.82986 0.89227 0.65797 0.0
C646 C 0.80942 0.91296 0.76615 0.0
C647 C 0.77478 0.84115 0.654 0.0
H648 H 0.77136 0.79227 0.78683 0.0
H649 H 0.68198 0.83578 0.77093 0.0
H650 H 0.82219 0.82203 0.71036 0.0
H651 H 0.8388 0.84626 0.74941 0.0
H652 H 0.82218 0.80109 0.75052 0.0
H653 H 0.68429 0.87375 0.72562 0.0
H654 H 0.72873 0.90435 0.73075 0.0
H655 H 0.71916 0.87781 0.69223 0.0
H656 H 0.86368 0.9481 0.72493 0.0
H657 H 0.8362 0.88713 0.63112 0.0
H658 H 0.8154 0.89311 0.78176 0.0
H659 H 0.7803 0.91248 0.77115 0.0
H660 H 0.82763 0.93775 0.77547 0.0
H661 H 0.78115 0.81792 0.66186 0.0
H662 H 0.7793 0.84349 0.62549 0.0
H663 H 0.74517 0.83811 0.65969 0.0
C664 C 0.71942 0.19552 0.40984 0.0
C665 C 0.74588 0.22674 0.40688 0.0
C666 C 0.69658 0.18083 0.38165 0.0
C667 C 0.7011 0.19763 0.34986 0.0
C668 C 0.72525 0.23061 0.34798 0.0
C669 C 0.74724 0.24496 0.37681 0.0
C670 C 0.67054 0.14592 0.38478 0.0
C671 C 0.73116 0.24912 0.31437 0.0
C672 C 0.6955 0.14457 0.26712 0.0
C673 C 0.6628 0.14726 0.25234 0.0
C674 C 0.70774 0.16026 0.29933 0.0
C675 C 0.68637 0.17865 0.31732 0.0
C676 C 0.65251 0.18029 0.30319 0.0
C677 C 0.64123 0.16478 0.27052 0.0
C678 C 0.74426 0.15816 0.31342 0.0
C679 C 0.62867 0.19889 0.32223 0.0
H680 H 0.7186 0.18153 0.43325 0.0
H681 H 0.76808 0.26893 0.37458 0.0
H682 H 0.64394 0.14377 0.37155 0.0
H683 H 0.68293 0.12727 0.37194 0.0
H684 H 0.665 0.13922 0.41241 0.0
H685 H 0.74687 0.27603 0.31846 0.0
H686 H 0.74689 0.2371 0.29601 0.0
H687 H 0.70439 0.24769 0.30186 0.0
H688 H 0.71226 0.13125 0.2528 0.0
H689 H 0.61572 0.1665 0.25906 0.0
H690 H 0.74035 0.14717 0.33952 0.0
H691 H 0.76369 0.18379 0.31643 0.0
H692 H 0.75723 0.1426 0.29619 0.0
H693 H 0.6226 0.18937 0.34886 0.0
H694 H 0.60216 0.1962 0.30852 0.0
H695 H 0.64366 0.22604 0.32505 0.0
C696 C 0.43775 0.66736 0.33719 0.0
C697 C 0.41649 0.69011 0.3421 0.0
C698 C 0.45048 0.65261 0.36569 0.0
C699 C 0.44214 0.66056 0.40063 0.0
C700 C 0.42008 0.68316 0.40563 0.0
C701 C 0.40791 0.6977 0.37662 0.0
C702 C 0.47399 0.62916 0.35835 0.0
C703 C 0.40986 0.69262 0.44183 0.0
C704 C 0.45271 0.59898 0.47128 0.0
C705 C 0.48635 0.61598 0.48769 0.0
C706 C 0.4375 0.61358 0.44426 0.0
C707 C 0.4569 0.64562 0.43159 0.0
C708 C 0.49104 0.66281 0.44809 0.0
C709 C 0.50481 0.64823 0.47612 0.0
C710 C 0.40042 0.59454 0.4292 0.0
C711 C 0.51371 0.6964 0.43549 0.0
H712 H 0.44545 0.66178 0.3109 0.0
H713 H 0.39232 0.71579 0.38108 0.0
H714 H 0.50156 0.63974 0.37059 0.0
H715 H 0.46123 0.60449 0.37001 0.0
H716 H 0.47776 0.62494 0.33002 0.0
H717 H 0.39016 0.70808 0.44156 0.0
H718 H 0.39735 0.66962 0.45654 0.0
H719 H 0.43507 0.70713 0.45612 0.0
H720 H 0.43789 0.57422 0.47998 0.0
H721 H 0.53088 0.66168 0.48824 0.0
H722 H 0.40358 0.58755 0.40146 0.0
H723 H 0.38153 0.61079 0.43016 0.0
H724 H 0.38739 0.57127 0.44335 0.0
H725 H 0.5208 0.69382 0.40764 0.0
H726 H 0.5397 0.70659 0.45057 0.0
H727 H 0.49745 0.71487 0.43742 0.0
C728 C 0.16787 0.48353 0.83296 0.0
C729 C 0.14155 0.45983 0.81259 0.0
C730 C 0.15704 0.50271 0.86037 0.0
C731 C 0.11893 0.49789 0.86809 0.0
C732 C 0.09244 0.47412 0.84715 0.0
C733 C 0.10402 0.45556 0.8199 0.0
C734 C 0.18645 0.52785 0.88141 0.0
C735 C 0.05162 0.4679 0.85381 0.0
C736 C 0.0867 0.52335 0.9584 0.0
C737 C 0.07922 0.55395 0.95205 0.0
C738 C 0.10034 0.50531 0.93176 0.0
C739 C 0.10651 0.5178 0.89755 0.0
C740 C 0.09911 0.54877 0.89117 0.0
C741 C 0.0858 0.56629 0.91824 0.0
C742 C 0.10778 0.47258 0.94015 0.0
C743 C 0.10477 0.56331 0.85544 0.0
H744 H 0.19693 0.48673 0.82784 0.0
H745 H 0.08348 0.43702 0.80458 0.0
H746 H 0.18189 0.55313 0.88085 0.0
H747 H 0.18471 0.5206 0.90899 0.0
H748 H 0.21469 0.52961 0.87161 0.0
H749 H 0.03444 0.4487 0.83531 0.0
H750 H 0.04496 0.45931 0.8807 0.0
H751 H 0.04389 0.49165 0.85162 0.0
H752 H 0.08182 0.51338 0.98414 0.0
H753 H 0.08017 0.58982 0.9127 0.0
H754 H 0.13663 0.47347 0.93318 0.0
H755 H 0.08935 0.45165 0.92437 0.0
H756 H 0.10336 0.46688 0.96813 0.0
H757 H 0.13362 0.56641 0.84677 0.0
H758 H 0.09893 0.58809 0.85479 0.0
H759 H 0.08642 0.54575 0.83639 0.0
C760 C 0.6507 0.89707 0.90293 0.0
C761 C 0.62904 0.86362 0.90381 0.0
C762 C 0.638 0.92323 0.91803 0.0
C763 C 0.60311 0.91555 0.9348 0.0
C764 C 0.58048 0.88179 0.93415 0.0
C765 C 0.59376 0.85623 0.91859 0.0
C766 C 0.66272 0.95889 0.91764 0.0
C767 C 0.54327 0.87231 0.95186 0.0
C768 C 0.59303 0.97481 1.01012 0.0
C769 C 0.57063 0.9925 0.99549 0.0
C770 C 0.60314 0.94929 0.99082 0.0
C771 C 0.59181 0.94224 0.95559 0.0
C772 C 0.56974 0.9606 0.94054 0.0
C773 C 0.55882 0.98505 0.9609 0.0
C774 C 0.62528 0.92934 1.00838 0.0
C775 C 0.55771 0.95448 0.90296 0.0
H776 H 0.67819 0.90263 0.89183 0.0
H777 H 0.57727 0.83018 0.91961 0.0
H778 H 0.64703 0.97609 0.90893 0.0
H779 H 0.67284 0.96736 0.94438 0.0
H780 H 0.68698 0.96124 0.90033 0.0
H781 H 0.52783 0.84551 0.94654 0.0
H782 H 0.54711 0.87662 0.98041 0.0
H783 H 0.52622 0.88836 0.94324 0.0
H784 H 0.60153 0.98011 0.0371 0.0
H785 H 0.54135 0.9987 0.94965 0.0
H786 H 0.65196 0.93234 0.99471 0.0
H787 H 0.61009 0.90215 1.0069 0.0
H788 H 0.631 0.93726 0.03617 0.0
H789 H 0.58225 0.95794 0.88587 0.0
H790 H 0.54169 0.97169 0.89489 0.0
H791 H 0.5404 0.92815 0.89869 0.0
C792 C 0.83689 0.1679 0.46714 0.0
C793 C 0.85431 0.20008 0.45549 0.0
C794 C 0.85764 0.14645 0.47609 0.0
C795 C 0.89652 0.1576 0.4729 0.0
C796 C 0.914 0.18907 0.45866 0.0
C797 C 0.89255 0.21023 0.45034 0.0
C798 C 0.83822 0.11309 0.49161 0.0
C799 C 0.95541 0.20128 0.45449 0.0
C800 C 0.94176 0.12305 0.54315 0.0
C801 C 0.94917 0.09563 0.52552 0.0
C802 C 0.92681 0.1449 0.52554 0.0
C803 C 0.91866 0.13859 0.48965 0.0
C804 C 0.92776 0.11182 0.47134 0.0
C805 C 0.94317 0.09054 0.48963 0.0
C806 C 0.91806 0.17369 0.54574 0.0
C807 C 0.91951 0.10459 0.43304 0.0
H808 H 0.80726 0.1603 0.47125 0.0
H809 H 0.90571 0.23509 0.44089 0.0
H810 H 0.84767 0.09253 0.47889 0.0
H811 H 0.84517 0.11399 0.51968 0.0
H812 H 0.80772 0.10682 0.48904 0.0
H813 H 0.96397 0.22376 0.4382 0.0
H814 H 0.96855 0.20804 0.48046 0.0
H815 H 0.96612 0.18111 0.44259 0.0
H816 H 0.94734 0.12728 0.57082 0.0
H817 H 0.94955 0.06945 0.47609 0.0
H818 H 0.88767 0.16902 0.54743 0.0
H819 H 0.92935 0.19761 0.53223 0.0
H820 H 0.92947 0.17692 0.5726 0.0
H821 H 0.88946 0.09264 0.42945 0.0
H822 H 0.93457 0.08731 0.42151 0.0
H823 H 0.92687 0.1282 0.41851 0.0
C824 C 0.27454 0.72686 0.20118 0.0
C825 C 0.30387 0.71227 0.20357 0.0
C826 C 0.24257 0.71163 0.18106 0.0
C827 C 0.23951 0.68101 0.16192 0.0
C828 C 0.2687 0.66573 0.16476 0.0
C829 C 0.30028 0.68137 0.18555 0.0
C830 C 0.21227 0.72879 0.17983 0.0
C831 C 0.2672 0.63337 0.14476 0.0
C832 C 0.14376 0.6253 0.13233 0.0
C833 C 0.14127 0.63436 0.09772 0.0
C834 C 0.17493 0.64057 0.15339 0.0
C835 C 0.20562 0.6649 0.13948 0.0
C836 C 0.20337 0.67409 0.10439 0.0
C837 C 0.1711 0.65922 0.0842 0.0
C838 C 0.17484 0.63069 0.19079 0.0
C839 C 0.23541 0.69925 0.08791 0.0
H840 H 0.27708 0.75093 0.21452 0.0
H841 H 0.32297 0.67021 0.18637 0.0
H842 H 0.20955 0.73674 0.15299 0.0
H843 H 0.18541 0.71098 0.18681 0.0
H844 H 0.21763 0.7513 0.19775 0.0
H845 H 0.29145 0.62416 0.15014 0.0
H846 H 0.24171 0.61354 0.15142 0.0
H847 H 0.26614 0.63729 0.11643 0.0
H848 H 0.12082 0.60634 0.14322 0.0
H849 H 0.16972 0.66626 0.05749 0.0
H850 H 0.1798 0.65339 0.20836 0.0
H851 H 0.19755 0.61919 0.19513 0.0
H852 H 0.14833 0.61253 0.19821 0.0
H853 H 0.24123 0.72386 0.10235 0.0
H854 H 0.23008 0.70301 0.06019 0.0
H855 H 0.26062 0.69062 0.08945 0.0
C856 C 0.26652 0.46816 0.68001 0.0
C857 C 0.2607 0.43377 0.68589 0.0
C858 C 0.30039 0.4881 0.6665 0.0
C859 C 0.32972 0.47367 0.65905 0.0
C860 C 0.32438 0.43925 0.66612 0.0
C861 C 0.29013 0.41983 0.67912 0.0
C862 C 0.30435 0.52443 0.65911 0.0
C863 C 0.3546 0.42257 0.65904 0.0
C864 C 0.39924 0.51 0.5873 0.0
C865 C 0.43128 0.52751 0.60589 0.0
C866 C 0.36638 0.49288 0.60422 0.0
C867 C 0.3646 0.49347 0.64106 0.0
C868 C 0.39649 0.51191 0.66017 0.0
C869 C 0.42945 0.52849 0.64244 0.0
C870 C 0.33371 0.47336 0.58244 0.0
C871 C 0.39593 0.51367 0.69941 0.0
H872 H 0.24408 0.47925 0.68482 0.0
H873 H 0.28632 0.39345 0.6839 0.0
H874 H 0.32954 0.54094 0.67193 0.0
H875 H 0.3076 0.52813 0.6307 0.0
H876 H 0.28009 0.53257 0.66819 0.0
H877 H 0.3472 0.39634 0.66805 0.0
H878 H 0.36033 0.4221 0.6307 0.0
H879 H 0.38053 0.43721 0.67217 0.0
H880 H 0.40001 0.50889 0.5591 0.0
H881 H 0.45385 0.54186 0.65719 0.0
H882 H 0.30914 0.48202 0.58905 0.0
H883 H 0.32676 0.44625 0.5882 0.0
H884 H 0.33908 0.47603 0.55408 0.0
H885 H 0.37339 0.52417 0.70865 0.0
H886 H 0.42248 0.52946 0.7106 0.0
H887 H 0.39012 0.48798 0.70953 0.0
C888 C 0.73225 0.71863 0.90159 0.0
C889 C 0.73691 0.7335 0.8689 0.0
C890 C 0.75957 0.70582 0.91573 0.0
C891 C 0.79155 0.70607 0.89609 0.0
C892 C 0.79485 0.71783 0.86189 0.0
C893 C 0.76824 0.73211 0.84915 0.0
C894 C 0.75527 0.69403 0.95261 0.0
C895 C 0.82779 0.71742 0.83941 0.0
C896 C 0.88248 0.71559 0.9428 0.0
C897 C 0.88503 0.68244 0.94197 0.0
C898 C 0.85205 0.72342 0.92829 0.0
C899 C 0.82334 0.69752 0.91236 0.0
C900 C 0.8258 0.66403 0.9111 0.0
C901 C 0.85652 0.65687 0.92603 0.0
C902 C 0.85058 0.7595 0.93014 0.0
C903 C 0.79623 0.63588 0.89359 0.0
H904 H 0.70798 0.71799 0.91698 0.0
H905 H 0.77366 0.74372 0.82424 0.0
H906 H 0.75958 0.66873 0.95384 0.0
H907 H 0.77665 0.71149 0.96933 0.0
H908 H 0.72766 0.69304 0.96357 0.0
H909 H 0.82314 0.7218 0.8117 0.0
H910 H 0.85236 0.73744 0.8489 0.0
H911 H 0.83425 0.693 0.84089 0.0
H912 H 0.90401 0.73545 0.95548 0.0
H913 H 0.85842 0.63124 0.92486 0.0
H914 H 0.82466 0.76109 0.943 0.0
H915 H 0.8505 0.76884 0.90349 0.0
H916 H 0.87439 0.77646 0.94462 0.0
H917 H 0.76913 0.63376 0.90615 0.0
H918 H 0.80227 0.61121 0.89469 0.0
H919 H 0.79351 0.64152 0.86592 0.0
C920 C 0.44575 0.83142 0.1945 0.0
C921 C 0.4075 0.81928 0.20046 0.0
C922 C 0.46146 0.86232 0.17816 0.0
C923 C 0.43871 0.88225 0.16743 0.0
C924 C 0.40012 0.87021 0.17346 0.0
C925 C 0.38512 0.83916 0.18968 0.0
C926 C 0.50264 0.87364 0.17227 0.0
C927 C 0.37457 0.89042 0.16316 0.0
C928 C 0.48699 0.97667 0.1584 0.0
C929 C 0.4914 0.97996 0.12225 0.0
C930 C 0.4687 0.94561 0.17312 0.0
C931 C 0.45549 0.91622 0.15145 0.0
C932 C 0.45943 0.91946 0.11476 0.0
C933 C 0.47681 0.95126 0.10062 0.0
C934 C 0.46427 0.94416 0.21214 0.0
C935 C 0.44667 0.889 0.09047 0.0
H936 H 0.46352 0.81643 0.20208 0.0
H937 H 0.35565 0.83069 0.1944 0.0
H938 H 0.50853 0.8781 0.14425 0.0
H939 H 0.51491 0.89783 0.18676 0.0
H940 H 0.51648 0.85491 0.18078 0.0
H941 H 0.34522 0.87761 0.16915 0.0
H942 H 0.38258 0.91538 0.17704 0.0
H943 H 0.37706 0.89497 0.13488 0.0
H944 H 0.49835 0.99857 0.1754 0.0
H945 H 0.48074 0.95328 0.07273 0.0
H946 H 0.48072 0.92838 0.22263 0.0
H947 H 0.43495 0.93228 0.21893 0.0
H948 H 0.47334 0.96952 0.22521 0.0
H949 H 0.46274 0.871 0.09556 0.0
H950 H 0.45009 0.89565 0.06267 0.0
H951 H 0.4172 0.87582 0.09527 0.0
C952 C 0.11918 0.30872 0.67224 0.0
C953 C 0.15777 0.3235 0.67319 0.0
C954 C 0.1031 0.2764 0.65682 0.0
C955 C 0.12568 0.258 0.64076 0.0
C956 C 0.1645 0.27292 0.64067 0.0
C957 C 0.17999 0.30504 0.65703 0.0
C958 C 0.06166 0.26181 0.65792 0.0
C959 C 0.18984 0.2548 0.62338 0.0
C960 C 0.0858 0.16172 0.62852 0.0
C961 C 0.07397 0.15773 0.59362 0.0
C962 C 0.10296 0.1939 0.64392 0.0
C963 C 0.10856 0.22326 0.62423 0.0
C964 C 0.09684 0.21934 0.58894 0.0
C965 C 0.07985 0.1869 0.57418 0.0
C966 C 0.11494 0.19647 0.6815 0.0
C967 C 0.10206 0.24955 0.56666 0.0
H968 H 0.10111 0.32248 0.68339 0.0
H969 H 0.20973 0.31533 0.65755 0.0
H970 H 0.05046 0.25676 0.63107 0.0
H971 H 0.05447 0.23741 0.67104 0.0
H972 H 0.04783 0.27884 0.67189 0.0
H973 H 0.21924 0.27002 0.6244 0.0
H974 H 0.1872 0.23072 0.63624 0.0
H975 H 0.18174 0.24851 0.59573 0.0
H976 H 0.08172 0.13961 0.64394 0.0
H977 H 0.071 0.18445 0.54724 0.0
H978 H 0.10039 0.21201 0.69688 0.0
H979 H 0.14496 0.20924 0.68362 0.0
H980 H 0.10921 0.17143 0.69326 0.0
H981 H 0.08611 0.26624 0.57769 0.0
H982 H 0.09297 0.24235 0.53935 0.0
H983 H 0.13157 0.26437 0.56657 0.0
C984 C 0.78261 0.36414 0.5345 0.0
C985 C 0.77481 0.33219 0.51847 0.0
C986 C 0.75387 0.37775 0.54432 0.0
C987 C 0.71689 0.3588 0.53746 0.0
C988 C 0.70905 0.3255 0.52333 0.0
C989 C 0.73835 0.31252 0.51392 0.0
C990 C 0.7632 0.41329 0.55947 0.0
C991 C 0.66995 0.30462 0.51563 0.0
C992 C 0.63886 0.39304 0.56972 0.0
C993 C 0.63248 0.40907 0.54005 0.0
C994 C 0.66626 0.37612 0.56943 0.0
C995 C 0.68741 0.37581 0.53885 0.0
C996 C 0.68073 0.39212 0.50893 0.0
C997 C 0.6532 0.40853 0.50994 0.0
C998 C 0.67269 0.35879 0.60161 0.0
C999 C 0.70285 0.39251 0.47588 0.0
H1000 H 0.81111 0.37897 0.53809 0.0
H1001 H 0.73274 0.28756 0.50174 0.0
H1002 H 0.75803 0.43023 0.53965 0.0
H1003 H 0.74535 0.41484 0.58218 0.0
H1004 H 0.79257 0.42267 0.56773 0.0
H1005 H 0.66826 0.2778 0.50956 0.0
H1006 H 0.65161 0.30598 0.53801 0.0
H1007 H 0.65925 0.31476 0.49292 0.0
H1008 H 0.62263 0.39391 0.59297 0.0
H1009 H 0.648 0.42134 0.48726 0.0
H1010 H 0.70163 0.3694 0.61061 0.0
H1011 H 0.6686 0.33161 0.59548 0.0
H1012 H 0.65385 0.36146 0.62321 0.0
H1013 H 0.7326 0.4044 0.48126 0.0
H1014 H 0.69404 0.40646 0.45505 0.0
H1015 H 0.69984 0.36637 0.466 0.0
loop_
_geom_bond_atom_site_label_1
_geom_bond_atom_site_label_2
_geom_bond_distance
_geom_bond_site_symmetry_2
_ccdc_geom_bond_type
H0 C3 0.929 . S
H1 C6 0.929 . S
H2 C8 0.930 . S
C3 H0 0.929 . S
C3 C4 1.398 . S
C3 C5 1.396 . S
C4 C3 1.398 . S
C4 C8 1.407 . S
C5 C3 1.396 . S
C5 C6 1.394 . S
C6 H1 0.929 . S
C6 C5 1.394 . S
C6 C7 1.382 . S
C7 C6 1.382 . S
C7 C8 1.392 . S
C7 N9 1.420 . S
C8 H2 0.930 . S
C8 C4 1.407 . S
C8 C7 1.392 . S
N9 C7 1.420 . S
N9 C10 1.244 . S
C10 N9 1.244 . S
H11 C14 0.929 . S
H12 C17 0.929 . S
H13 C19 0.930 . S
C14 H11 0.929 . S
C14 C15 1.398 . S
C14 C16 1.396 . S
C15 C14 1.398 . S
C15 C19 1.407 . S
C16 C14 1.396 . S
C16 C17 1.394 . S
C17 H12 0.929 . S
C17 C16 1.394 . S
C17 C18 1.382 . S
C18 C17 1.382 . S
C18 C19 1.392 . S
C18 N20 1.420 . S
C19 H13 0.930 . S
C19 C15 1.407 . S
C19 C18 1.392 . S
N20 C18 1.420 . S
N20 C21 1.244 . S
C21 N20 1.244 . S
H22 C25 0.929 . S
H23 C28 0.929 . S
H24 C30 0.930 . S
C25 H22 0.929 . S
C25 C26 1.398 . S
C25 C27 1.396 . S
C26 C25 1.398 . S
C26 C30 1.407 . S
C27 C25 1.396 . S
C27 C28 1.394 . S
C28 H23 0.929 . S
C28 C27 1.394 . S
C28 C29 1.382 . S
C29 C28 1.382 . S
C29 C30 1.392 . S
C29 N31 1.420 . S
C30 H24 0.930 . S
C30 C26 1.407 . S
C30 C29 1.392 . S
N31 C29 1.420 . S
N31 C32 1.244 . S
C32 N31 1.244 . S
H33 C36 0.929 . S
H34 C39 0.929 . S
H35 C41 0.930 . S
C36 H33 0.929 . S
C36 C37 1.398 . S
C36 C38 1.396 . S
C37 C36 1.398 . S
C37 C41 1.407 . S
C38 C36 1.396 . S
C38 C39 1.394 . S
C39 H34 0.929 . S
C39 C38 1.394 . S
C39 C40 1.382 . S
C40 C39 1.382 . S
C40 C41 1.392 . S
C40 N42 1.420 . S
C41 H35 0.930 . S
C41 C37 1.407 . S
C41 C40 1.392 . S
N42 C40 1.420 . S
N42 C43 1.244 . S
C43 N42 1.244 . S
H44 C47 0.929 . S
H45 C50 0.929 . S
H46 C52 0.930 . S
C47 H44 0.929 . S
C47 C48 1.398 . S
C47 C49 1.396 . S
C48 C47 1.398 . S
C48 C52 1.407 . S
C49 C47 1.396 . S
C49 C50 1.394 . S
C50 H45 0.929 . S
C50 C49 1.394 . S
C50 C51 1.382 . S
C51 C50 1.382 . S
C51 C52 1.392 . S
C51 N53 1.420 . S
C52 H46 0.930 . S
C52 C48 1.407 . S
C52 C51 1.392 . S
N53 C51 1.420 . S
N53 C54 1.244 . S
C54 N53 1.244 . S
H55 C58 0.929 . S
H56 C61 0.929 . S
H57 C63 0.930 . S
C58 H55 0.929 . S
C58 C59 1.398 . S
C58 C60 1.396 . S
C59 C58 1.398 . S
C59 C63 1.407 . S
C60 C58 1.396 . S
C60 C61 1.394 . S
C61 H56 0.929 . S
C61 C60 1.394 . S
C61 C62 1.382 . S
C62 C61 1.382 . S
C62 C63 1.392 . S
C62 N64 1.420 . S
C63 H57 0.930 . S
C63 C59 1.407 . S
C63 C62 1.392 . S
N64 C62 1.420 . S
N64 C65 1.244 . S
C65 N64 1.244 . S
H66 C69 0.929 . S
H67 C72 0.929 . S
H68 C74 0.930 . S
C69 H66 0.929 . S
C69 C70 1.398 . S
C69 C71 1.396 . S
C70 C69 1.398 . S
C70 C74 1.407 . S
C71 C69 1.396 . S
C71 C72 1.394 . S
C72 H67 0.929 . S
C72 C71 1.394 . S
C72 C73 1.382 . S
C73 C72 1.382 . S
C73 C74 1.392 . S
C73 N75 1.420 . S
C74 H68 0.930 . S
C74 C70 1.407 . S
C74 C73 1.392 . S
N75 C73 1.420 . S
N75 C76 1.244 . S
C76 N75 1.244 . S
H77 C80 0.929 . S
H78 C83 0.929 . S
H79 C85 0.930 . S
C80 H77 0.929 . S
C80 C81 1.398 . S
C80 C82 1.396 . S
C81 C80 1.398 . S
C81 C85 1.407 . S
C82 C80 1.396 . S
C82 C83 1.394 . S
C83 H78 0.929 . S
C83 C82 1.394 . S
C83 C84 1.382 . S
C84 C83 1.382 . S
C84 C85 1.392 . S
C84 N86 1.420 . S
C85 H79 0.930 . S
C85 C81 1.407 . S
C85 C84 1.392 . S
N86 C84 1.420 . S
N86 C87 1.244 . S
C87 N86 1.244 . S
Gd88 C91 2.818 . S
Gd88 O108 2.377 . S
Gd88 O110 2.448 . S
Gd88 O111 2.506 . S
Gd88 O112 2.435 . S
Gd88 O113 2.717 . S
Gd88 O115 2.395 1_545 S
Gd88 O119 2.327 1_455 S
Gd89 C100 2.818 1_545 S
Gd89 O109 2.395 1_655 S
Gd89 O113 2.327 1_655 S
Gd89 O114 2.377 1_545 S
Gd89 O116 2.448 1_545 S
Gd89 O117 2.506 1_545 S
Gd89 O118 2.435 . S
Gd89 O119 2.717 . S
C90 O108 1.240 . S
C90 O109 1.240 . S
C91 Gd88 2.818 . S
C91 C92 1.510 . S
C91 O110 1.249 . S
C91 O111 1.252 . S
C92 C91 1.510 . S
C92 C93 1.404 . S
C92 C94 1.352 . S
C93 C92 1.404 . S
C93 C97 1.389 . S
C93 H120 0.930 . S
C94 C92 1.352 . S
C94 C96 1.374 . S
C94 H121 0.931 . S
C95 C96 1.359 . S
C95 C97 1.364 . S
C96 C94 1.374 . S
C96 C95 1.359 . S
C96 H122 0.931 . S
C97 C93 1.389 . S
C97 C95 1.364 . S
C97 H123 0.931 . S
C98 O112 1.256 1_565 S
C98 O113 1.257 1_565 S
C99 O114 1.240 . S
C99 O115 1.240 1_655 S
C100 Gd89 2.818 1_565 S
C100 C101 1.510 . S
C100 O116 1.249 . S
C100 O117 1.252 . S
C101 C100 1.510 . S
C101 C102 1.404 . S
C101 C103 1.352 . S
C102 C101 1.404 . S
C102 C106 1.389 . S
C102 H124 0.930 . S
C103 C101 1.352 . S
C103 C105 1.374 . S
C103 H125 0.931 . S
C104 C105 1.359 . S
C104 C106 1.364 . S
C105 C103 1.374 . S
C105 C104 1.359 . S
C105 H126 0.931 . S
C106 C102 1.389 . S
C106 C104 1.364 . S
C106 H127 0.931 . S
C107 O118 1.256 . S
C107 O119 1.257 . S
O108 Gd88 2.377 . S
O108 C90 1.240 . S
O109 Gd89 2.395 1_455 S
O109 C90 1.240 . S
O110 Gd88 2.448 . S
O110 C91 1.249 . S
O111 Gd88 2.506 . S
O111 C91 1.252 . S
O112 Gd88 2.435 . S
O112 C98 1.256 1_545 S
O113 Gd88 2.717 . S
O113 Gd89 2.327 1_455 S
O113 C98 1.257 1_545 S
O114 Gd89 2.377 1_565 S
O114 C99 1.240 . S
O115 Gd88 2.395 1_565 S
O115 C99 1.240 1_455 S
O116 Gd89 2.448 1_565 S
O116 C100 1.249 . S
O117 Gd89 2.506 1_565 S
O117 C100 1.252 . S
O118 Gd89 2.435 . S
O118 C107 1.256 . S
O119 Gd88 2.327 1_655 S
O119 Gd89 2.717 . S
O119 C107 1.257 . S
H120 C93 0.930 . S
H121 C94 0.931 . S
H122 C96 0.931 . S
H123 C97 0.931 . S
H124 C102 0.930 . S
H125 C103 0.931 . S
H126 C105 0.931 . S
H127 C106 0.931 . S
Gd128 C131 2.818 . S
Gd128 O148 2.377 . S
Gd128 O150 2.448 . S
Gd128 O151 2.506 . S
Gd128 O152 2.435 1_545 S
Gd128 O153 2.717 1_545 S
Gd128 O155 2.395 1_545 S
Gd128 O159 2.327 . S
Gd129 C140 2.818 1_544 S
Gd129 O149 2.395 . S
Gd129 O153 2.327 1_545 S
Gd129 O154 2.395 1_554 S
Gd129 O156 2.448 1_554 S
Gd129 O157 2.506 1_544 S
Gd129 O158 2.435 1_554 S
Gd129 O159 2.717 . S
C130 O148 1.240 . S
C130 O149 1.240 . S
C131 Gd128 2.818 . S
C131 C132 1.510 . S
C131 O150 1.249 . S
C131 O151 1.252 . S
C132 C131 1.510 . S
C132 C133 1.404 . S
C132 C134 1.352 . S
C133 C132 1.404 . S
C133 C137 1.389 . S
C133 H160 0.930 . S
C134 C132 1.352 . S
C134 C136 1.374 . S
C134 H161 0.931 . S
C135 C136 1.359 . S
C135 C137 1.364 . S
C136 C134 1.374 . S
C136 C135 1.359 . S
C136 H162 0.931 . S
C137 C133 1.389 . S
C137 C135 1.364 . S
C137 H163 0.931 . S
C138 O152 1.256 . S
C138 O153 1.257 . S
C139 O154 1.220 1_564 S
C139 O155 1.240 . S
C140 Gd129 2.818 1_566 S
C140 C141 1.510 . S
C140 O156 1.249 1_565 S
C140 O157 1.252 . S
C141 C140 1.510 . S
C141 C142 1.404 . S
C141 C143 1.352 . S
C142 C141 1.404 . S
C142 C146 1.389 . S
C142 H164 0.930 . S
C143 C141 1.352 . S
C143 C145 1.374 . S
C143 H165 0.931 . S
C144 C145 1.359 . S
C144 C146 1.364 . S
C145 C143 1.374 . S
C145 C144 1.359 . S
C145 H166 0.931 . S
C146 C142 1.389 . S
C146 C144 1.364 . S
C146 H167 0.931 . S
C147 O158 1.256 1_554 S
C147 O159 1.257 . S
O148 Gd128 2.377 . S
O148 C130 1.240 . S
O149 Gd129 2.395 . S
O149 C130 1.240 . S
O150 Gd128 2.448 . S
O150 C131 1.249 . S
O151 Gd128 2.506 . S
O151 C131 1.252 . S
O152 Gd128 2.435 1_565 S
O152 C138 1.256 . S
O153 Gd128 2.717 1_565 S
O153 Gd129 2.327 1_565 S
O153 C138 1.257 . S
O154 Gd129 2.395 1_556 S
O154 C139 1.220 1_546 S
O155 Gd128 2.395 1_565 S
O155 C139 1.240 . S
O156 Gd129 2.448 1_556 S
O156 C140 1.249 1_545 S
O157 Gd129 2.506 1_566 S
O157 C140 1.252 . S
O158 Gd129 2.435 1_556 S
O158 C147 1.256 1_556 S
O159 Gd128 2.327 . S
O159 Gd129 2.717 . S
O159 C147 1.257 . S
H160 C133 0.930 . S
H161 C134 0.931 . S
H162 C136 0.931 . S
H163 C137 0.931 . S
H164 C142 0.930 . S
H165 C143 0.931 . S
H166 C145 0.931 . S
H167 C146 0.931 . S
Gd168 C171 2.818 . S
Gd168 O188 2.377 . S
Gd168 O190 2.448 . S
Gd168 O191 2.506 . S
Gd168 O192 2.435 . S
Gd168 O193 2.717 . S
Gd168 O195 2.395 . S
Gd168 O199 2.327 . S
Gd169 C180 2.818 . S
Gd169 O189 2.395 . S
Gd169 O193 2.327 . S
Gd169 O194 2.377 . S
Gd169 O196 2.448 . S
Gd169 O197 2.506 . S
Gd169 O198 2.435 . S
Gd169 O199 2.717 . S
C170 O188 1.240 . S
C170 O189 1.240 . S
C171 Gd168 2.818 . S
C171 C172 1.510 . S
C171 O190 1.249 . S
C171 O191 1.252 . S
C172 C171 1.510 . S
C172 C173 1.404 . S
C172 C174 1.352 . S
C173 C172 1.404 . S
C173 C177 1.389 . S
C173 H200 0.930 . S
C174 C172 1.352 . S
C174 C176 1.374 . S
C174 H201 0.931 . S
C175 C176 1.359 . S
C175 C177 1.364 . S
C176 C174 1.374 . S
C176 C175 1.359 . S
C176 H202 0.931 . S
C177 C173 1.389 . S
C177 C175 1.364 . S
C177 H203 0.931 . S
C178 O192 1.256 . S
C178 O193 1.257 . S
C179 O194 1.240 . S
C179 O195 1.240 . S
C180 Gd169 2.818 . S
C180 C181 1.510 . S
C180 O196 1.249 . S
C180 O197 1.252 . S
C181 C180 1.510 . S
C181 C182 1.404 . S
C181 C183 1.352 . S
C182 C181 1.404 . S
C182 C186 1.389 . S
C182 H204 0.930 . S
C183 C181 1.352 . S
C183 C185 1.374 . S
C183 H205 0.931 . S
C184 C185 1.359 . S
C184 C186 1.364 . S
C185 C183 1.374 . S
C185 C184 1.359 . S
C185 H206 0.931 . S
C186 C182 1.389 . S
C186 C184 1.364 . S
C186 H207 0.931 . S
C187 O198 1.256 . S
C187 O199 1.257 . S
O188 Gd168 2.377 . S
O188 C170 1.240 . S
O189 Gd169 2.395 . S
O189 C170 1.240 . S
O190 Gd168 2.448 . S
O190 C171 1.249 . S
O191 Gd168 2.506 . S
O191 C171 1.252 . S
O192 Gd168 2.435 . S
O192 C178 1.256 . S
O193 Gd168 2.717 . S
O193 Gd169 2.327 . S
O193 C178 1.257 . S
O194 Gd169 2.377 . S
O194 C179 1.240 . S
O195 Gd168 2.395 . S
O195 C179 1.240 . S
O196 Gd169 2.448 . S
O196 C180 1.249 . S
O197 Gd169 2.506 . S
O197 C180 1.252 . S
O198 Gd169 2.435 . S
O198 C187 1.256 . S
O199 Gd168 2.327 . S
O199 Gd169 2.717 . S
O199 C187 1.257 . S
H200 C173 0.930 . S
H201 C174 0.931 . S
H202 C176 0.931 . S
H203 C177 0.931 . S
H204 C182 0.930 . S
H205 C183 0.931 . S
H206 C185 0.931 . S
H207 C186 0.931 . S
Gd208 C211 2.818 . S
Gd208 O228 2.377 . S
Gd208 O230 2.448 . S
Gd208 O231 2.506 . S
Gd208 O232 2.435 . S
Gd208 O233 2.717 . S
Gd208 O235 2.395 1_455 S
Gd208 O239 2.327 1_554 S
Gd209 C220 2.818 1_455 S
Gd209 O229 2.395 1_556 S
Gd209 O233 2.327 1_556 S
Gd209 O234 2.377 1_455 S
Gd209 O236 2.448 . S
Gd209 O237 2.506 1_455 S
Gd209 O238 2.435 . S
Gd209 O239 2.717 . S
C210 O228 1.240 . S
C210 O229 1.240 . S
C211 Gd208 2.818 . S
C211 C212 1.510 . S
C211 O230 1.249 . S
C211 O231 1.252 . S
C212 C211 1.510 . S
C212 C213 1.404 . S
C212 C214 1.352 . S
C213 C212 1.404 . S
C213 C217 1.389 . S
C213 H240 0.930 . S
C214 C212 1.352 . S
C214 C216 1.374 . S
C214 H241 0.931 . S
C215 C216 1.359 . S
C215 C217 1.364 . S
C216 C214 1.374 . S
C216 C215 1.359 . S
C216 H242 0.931 . S
C217 C213 1.389 . S
C217 C215 1.364 . S
C217 H243 0.931 . S
C218 O232 1.266 . S
C218 O233 1.263 . S
C219 O234 1.240 . S
C219 O235 1.240 1_556 S
C220 Gd209 2.818 1_655 S
C220 C221 1.510 . S
C220 O236 1.249 1_655 S
C220 O237 1.252 . S
C221 C220 1.510 . S
C221 C222 1.404 . S
C221 C223 1.352 . S
C222 C221 1.404 . S
C222 C226 1.389 . S
C222 H244 0.930 . S
C223 C221 1.352 . S
C223 C225 1.374 . S
C223 H245 0.931 . S
C224 C225 1.359 . S
C224 C226 1.364 . S
C225 C223 1.374 . S
C225 C224 1.359 . S
C225 H246 0.931 . S
C226 C222 1.389 . S
C226 C224 1.364 . S
C226 H247 0.931 . S
C227 O238 1.256 . S
C227 O239 1.257 . S
O228 Gd208 2.377 . S
O228 C210 1.240 . S
O229 Gd209 2.395 1_554 S
O229 C210 1.240 . S
O230 Gd208 2.448 . S
O230 C211 1.249 . S
O231 Gd208 2.506 . S
O231 C211 1.252 . S
O232 Gd208 2.435 . S
O232 C218 1.266 . S
O233 Gd208 2.717 . S
O233 Gd209 2.327 1_554 S
O233 C218 1.263 . S
O234 Gd209 2.377 1_655 S
O234 C219 1.240 . S
O235 Gd208 2.395 1_655 S
O235 C219 1.240 1_554 S
O236 Gd209 2.448 . S
O236 C220 1.249 1_455 S
O237 Gd209 2.506 1_655 S
O237 C220 1.252 . S
O238 Gd209 2.435 . S
O238 C227 1.256 . S
O239 Gd208 2.327 1_556 S
O239 Gd209 2.717 . S
O239 C227 1.257 . S
H240 C213 0.930 . S
H241 C214 0.931 . S
H242 C216 0.931 . S
H243 C217 0.931 . S
H244 C222 0.930 . S
H245 C223 0.931 . S
H246 C225 0.931 . S
H247 C226 0.931 . S
C248 C249 1.391 . S
C248 C250 1.394 . S
C248 H264 0.931 . S
C249 C248 1.391 . S
C249 C253 1.376 . S
C250 C248 1.394 . S
C250 C251 1.369 . S
C250 C254 1.531 . S
C251 C250 1.369 . S
C251 C252 1.410 . S
C251 C259 1.503 . S
C252 C251 1.410 . S
C252 C253 1.392 . S
C252 C255 1.511 . S
C253 C249 1.376 . S
C253 C252 1.392 . S
C253 H265 0.929 . S
C254 C250 1.531 . S
C254 H266 0.960 . S
C254 H267 0.962 . S
C254 H268 0.960 . S
C255 C252 1.511 . S
C255 H269 0.961 . S
C255 H270 0.961 . S
C255 H271 0.961 . S
C256 C257 1.370 . S
C256 C258 1.363 . S
C256 H272 0.931 . S
C257 C256 1.370 . S
C257 C261 1.408 . S
C258 C256 1.363 . S
C258 C259 1.370 . S
C258 C262 1.524 . S
C259 C251 1.503 . S
C259 C258 1.370 . S
C259 C260 1.403 . S
C260 C259 1.403 . S
C260 C261 1.404 . S
C260 C263 1.539 . S
C261 C257 1.408 . S
C261 C260 1.404 . S
C261 H273 0.930 . S
C262 C258 1.524 . S
C262 H274 0.956 . S
C262 H275 0.961 . S
C262 H276 0.961 . S
C263 C260 1.539 . S
C263 H277 0.958 . S
C263 H278 0.961 . S
C263 H279 0.960 . S
H264 C248 0.931 . S
H265 C253 0.929 . S
H266 C254 0.960 . S
H267 C254 0.962 . S
H268 C254 0.960 . S
H269 C255 0.961 . S
H270 C255 0.961 . S
H271 C255 0.961 . S
H272 C256 0.931 . S
H273 C261 0.930 . S
H274 C262 0.956 . S
H275 C262 0.961 . S
H276 C262 0.961 . S
H277 C263 0.958 . S
H278 C263 0.961 . S
H279 C263 0.960 . S
C280 C281 1.391 . S
C280 C282 1.394 . S
C280 H296 0.931 . S
C281 C280 1.391 . S
C281 C285 1.376 . S
C282 C280 1.394 . S
C282 C283 1.369 . S
C282 C286 1.531 . S
C283 C282 1.369 . S
C283 C284 1.410 . S
C283 C291 1.503 . S
C284 C283 1.410 . S
C284 C285 1.392 . S
C284 C287 1.511 . S
C285 C281 1.376 . S
C285 C284 1.392 . S
C285 H297 0.929 . S
C286 C282 1.531 . S
C286 H298 0.960 . S
C286 H299 0.962 . S
C286 H300 0.960 . S
C287 C284 1.511 . S
C287 H301 0.961 . S
C287 H302 0.961 . S
C287 H303 0.961 . S
C288 C289 1.370 . S
C288 C290 1.363 . S
C288 H304 0.931 . S
C289 C288 1.370 . S
C289 C293 1.408 . S
C290 C288 1.363 . S
C290 C291 1.370 . S
C290 C294 1.524 . S
C291 C283 1.503 . S
C291 C290 1.370 . S
C291 C292 1.403 . S
C292 C291 1.403 . S
C292 C293 1.404 . S
C292 C295 1.539 . S
C293 C289 1.408 . S
C293 C292 1.404 . S
C293 H305 0.930 . S
C294 C290 1.524 . S
C294 H306 0.956 . S
C294 H307 0.961 . S
C294 H308 0.961 . S
C295 C292 1.539 . S
C295 H309 0.958 . S
C295 H310 0.961 . S
C295 H311 0.960 . S
H296 C280 0.931 . S
H297 C285 0.929 . S
H298 C286 0.960 . S
H299 C286 0.962 . S
H300 C286 0.960 . S
H301 C287 0.961 . S
H302 C287 0.961 . S
H303 C287 0.961 . S
H304 C288 0.931 . S
H305 C293 0.930 . S
H306 C294 0.956 . S
H307 C294 0.961 . S
H308 C294 0.961 . S
H309 C295 0.958 . S
H310 C295 0.961 . S
H311 C295 0.960 . S
C312 C313 1.391 . S
C312 C314 1.394 . S
C312 H328 0.931 . S
C313 C312 1.391 . S
C313 C317 1.376 . S
C314 C312 1.394 . S
C314 C315 1.369 . S
C314 C318 1.531 . S
C315 C314 1.369 . S
C315 C316 1.410 . S
C315 C323 1.503 . S
C316 C315 1.410 . S
C316 C317 1.392 . S
C316 C319 1.511 . S
C317 C313 1.376 . S
C317 C316 1.392 . S
C317 H329 0.929 . S
C318 C314 1.531 . S
C318 H330 0.960 . S
C318 H331 0.962 . S
C318 H332 0.960 . S
C319 C316 1.511 . S
C319 H333 0.961 . S
C319 H334 0.961 . S
C319 H335 0.961 . S
C320 C321 1.370 . S
C320 C322 1.363 . S
C320 H336 0.931 . S
C321 C320 1.370 . S
C321 C325 1.408 . S
C322 C320 1.363 . S
C322 C323 1.370 . S
C322 C326 1.524 . S
C323 C315 1.503 . S
C323 C322 1.370 . S
C323 C324 1.403 . S
C324 C323 1.403 . S
C324 C325 1.404 . S
C324 C327 1.539 . S
C325 C321 1.408 . S
C325 C324 1.404 . S
C325 H337 0.930 . S
C326 C322 1.524 . S
C326 H338 0.956 . S
C326 H339 0.961 . S
C326 H340 0.961 . S
C327 C324 1.539 . S
C327 H341 0.958 . S
C327 H342 0.961 . S
C327 H343 0.960 . S
H328 C312 0.931 . S
H329 C317 0.929 . S
H330 C318 0.960 . S
H331 C318 0.962 . S
H332 C318 0.960 . S
H333 C319 0.961 . S
H334 C319 0.961 . S
H335 C319 0.961 . S
H336 C320 0.931 . S
H337 C325 0.930 . S
H338 C326 0.956 . S
H339 C326 0.961 . S
H340 C326 0.961 . S
H341 C327 0.958 . S
H342 C327 0.961 . S
H343 C327 0.960 . S
C344 C345 1.391 . S
C344 C346 1.394 . S
C344 H360 0.931 . S
C345 C344 1.391 . S
C345 C349 1.376 . S
C346 C344 1.394 . S
C346 C347 1.369 . S
C346 C350 1.531 . S
C347 C346 1.369 . S
C347 C348 1.410 . S
C347 C355 1.503 . S
C348 C347 1.410 . S
C348 C349 1.392 . S
C348 C351 1.511 . S
C349 C345 1.376 . S
C349 C348 1.392 . S
C349 H361 0.929 . S
C350 C346 1.531 . S
C350 H362 0.960 . S
C350 H363 0.962 . S
C350 H364 0.960 . S
C351 C348 1.511 . S
C351 H365 0.961 . S
C351 H366 0.961 . S
C351 H367 0.961 . S
C352 C353 1.370 . S
C352 C354 1.363 . S
C352 H368 0.931 1_655 S
C353 C352 1.370 . S
C353 C357 1.408 . S
C354 C352 1.363 . S
C354 C355 1.370 . S
C354 C358 1.524 . S
C355 C347 1.503 . S
C355 C354 1.370 . S
C355 C356 1.403 . S
C356 C355 1.403 . S
C356 C357 1.404 . S
C356 C359 1.539 . S
C357 C353 1.408 . S
C357 C356 1.404 . S
C357 H369 0.930 . S
C358 C354 1.524 . S
C358 H370 0.956 . S
C358 H371 0.961 . S
C358 H372 0.961 . S
C359 C356 1.539 . S
C359 H373 0.958 . S
C359 H374 0.961 . S
C359 H375 0.960 . S
H360 C344 0.931 . S
H361 C349 0.929 . S
H362 C350 0.960 . S
H363 C350 0.962 . S
H364 C350 0.960 . S
H365 C351 0.961 . S
H366 C351 0.961 . S
H367 C351 0.961 . S
H368 C352 0.931 1_455 S
H369 C357 0.930 . S
H370 C358 0.956 . S
H371 C358 0.961 . S
H372 C358 0.961 . S
H373 C359 0.958 . S
H374 C359 0.961 . S
H375 C359 0.960 . S
C376 C377 1.391 . S
C376 C378 1.394 . S
C376 H392 0.931 . S
C377 C376 1.391 . S
C377 C381 1.376 . S
C378 C376 1.394 . S
C378 C379 1.369 . S
C378 C382 1.531 . S
C379 C378 1.369 . S
C379 C380 1.410 . S
C379 C387 1.503 . S
C380 C379 1.410 . S
C380 C381 1.392 . S
C380 C383 1.511 . S
C381 C377 1.376 . S
C381 C380 1.392 . S
C381 H393 0.929 . S
C382 C378 1.531 . S
C382 H394 0.960 . S
C382 H395 0.962 . S
C382 H396 0.960 . S
C383 C380 1.511 . S
C383 H397 0.961 . S
C383 H398 0.961 . S
C383 H399 0.961 . S
C384 C385 1.370 . S
C384 C386 1.363 . S
C384 H400 0.931 . S
C385 C384 1.370 . S
C385 C389 1.408 . S
C386 C384 1.363 . S
C386 C387 1.370 . S
C386 C390 1.524 . S
C387 C379 1.503 . S
C387 C386 1.370 . S
C387 C388 1.403 . S
C388 C387 1.403 . S
C388 C389 1.404 . S
C388 C391 1.539 . S
C389 C385 1.408 . S
C389 C388 1.404 . S
C389 H401 0.930 . S
C390 C386 1.524 . S
C390 H402 0.956 . S
C390 H403 0.961 . S
C390 H404 0.961 . S
C391 C388 1.539 . S
C391 H405 0.958 . S
C391 H406 0.961 . S
C391 H407 0.960 . S
H392 C376 0.931 . S
H393 C381 0.929 . S
H394 C382 0.960 . S
H395 C382 0.962 . S
H396 C382 0.960 . S
H397 C383 0.961 . S
H398 C383 0.961 . S
H399 C383 0.961 . S
H400 C384 0.931 . S
H401 C389 0.930 . S
H402 C390 0.956 . S
H403 C390 0.961 . S
H404 C390 0.961 . S
H405 C391 0.958 . S
H406 C391 0.961 . S
H407 C391 0.960 . S
C408 C409 1.391 . S
C408 C410 1.394 . S
C408 H424 0.931 . S
C409 C408 1.391 . S
C409 C413 1.376 . S
C410 C408 1.394 . S
C410 C411 1.369 . S
C410 C414 1.531 . S
C411 C410 1.369 . S
C411 C412 1.410 . S
C411 C419 1.503 . S
C412 C411 1.410 . S
C412 C413 1.392 . S
C412 C415 1.511 . S
C413 C409 1.376 . S
C413 C412 1.392 . S
C413 H425 0.929 . S
C414 C410 1.531 . S
C414 H426 0.960 . S
C414 H427 0.962 . S
C414 H428 0.960 . S
C415 C412 1.511 . S
C415 H429 0.961 . S
C415 H430 0.961 . S
C415 H431 0.961 . S
C416 C417 1.370 . S
C416 C418 1.363 . S
C416 H432 0.931 . S
C417 C416 1.370 . S
C417 C421 1.408 1_565 S
C418 C416 1.363 . S
C418 C419 1.370 . S
C418 C422 1.524 . S
C419 C411 1.503 . S
C419 C418 1.370 . S
C419 C420 1.403 . S
C420 C419 1.403 . S
C420 C421 1.404 1_565 S
C420 C423 1.539 1_565 S
C421 C417 1.408 1_545 S
C421 C420 1.404 1_545 S
C421 H433 0.930 . S
C422 C418 1.524 . S
C422 H434 0.956 . S
C422 H435 0.961 . S
C422 H436 0.961 . S
C423 C420 1.539 1_545 S
C423 H437 0.958 . S
C423 H438 0.961 . S
C423 H439 0.960 1_545 S
H424 C408 0.931 . S
H425 C413 0.929 . S
H426 C414 0.960 . S
H427 C414 0.962 . S
H428 C414 0.960 . S
H429 C415 0.961 . S
H430 C415 0.961 . S
H431 C415 0.961 . S
H432 C416 0.931 . S
H433 C421 0.930 . S
H434 C422 0.956 . S
H435 C422 0.961 . S
H436 C422 0.961 . S
H437 C423 0.958 . S
H438 C423 0.961 . S
H439 C423 0.960 1_565 S
C440 C441 1.391 . S
C440 C442 1.394 . S
C440 H456 0.931 . S
C441 C440 1.391 . S
C441 C445 1.376 . S
C442 C440 1.394 . S
C442 C443 1.369 . S
C442 C446 1.531 . S
C443 C442 1.369 . S
C443 C444 1.410 . S
C443 C451 1.503 . S
C444 C443 1.410 . S
C444 C445 1.392 . S
C444 C447 1.511 . S
C445 C441 1.376 . S
C445 C444 1.392 . S
C445 H457 0.929 . S
C446 C442 1.531 . S
C446 H458 0.960 . S
C446 H459 0.962 . S
C446 H460 0.960 . S
C447 C444 1.511 . S
C447 H461 0.961 . S
C447 H462 0.961 . S
C447 H463 0.961 . S
C448 C449 1.370 . S
C448 C450 1.363 . S
C448 H464 0.931 . S
C449 C448 1.370 . S
C449 C453 1.408 . S
C450 C448 1.363 . S
C450 C451 1.370 . S
C450 C454 1.524 . S
C451 C443 1.503 . S
C451 C450 1.370 . S
C451 C452 1.403 . S
C452 C451 1.403 . S
C452 C453 1.404 . S
C452 C455 1.539 . S
C453 C449 1.408 . S
C453 C452 1.404 . S
C453 H465 0.930 . S
C454 C450 1.524 . S
C454 H466 0.956 . S
C454 H467 0.961 . S
C454 H468 0.961 . S
C455 C452 1.539 . S
C455 H469 0.958 . S
C455 H470 0.961 . S
C455 H471 0.960 . S
H456 C440 0.931 . S
H457 C445 0.929 . S
H458 C446 0.960 . S
H459 C446 0.962 . S
H460 C446 0.960 . S
H461 C447 0.961 . S
H462 C447 0.961 . S
H463 C447 0.961 . S
H464 C448 0.931 . S
H465 C453 0.930 . S
H466 C454 0.956 . S
H467 C454 0.961 . S
H468 C454 0.961 . S
H469 C455 0.958 . S
H470 C455 0.961 . S
H471 C455 0.960 . S
C472 C473 1.391 . S
C472 C474 1.394 . S
C472 H488 0.931 . S
C473 C472 1.391 . S
C473 C477 1.376 . S
C474 C472 1.394 . S
C474 C475 1.369 . S
C474 C478 1.531 . S
C475 C474 1.369 . S
C475 C476 1.410 . S
C475 C483 1.503 . S
C476 C475 1.410 . S
C476 C477 1.392 . S
C476 C479 1.511 . S
C477 C473 1.376 . S
C477 C476 1.392 . S
C477 H489 0.929 . S
C478 C474 1.531 . S
C478 H490 0.960 . S
C478 H491 0.962 . S
C478 H492 0.960 . S
C479 C476 1.511 . S
C479 H493 0.961 . S
C479 H494 0.961 . S
C479 H495 0.961 . S
C480 C481 1.370 . S
C480 C482 1.363 . S
C480 H496 0.931 . S
C481 C480 1.370 . S
C481 C485 1.408 . S
C482 C480 1.363 . S
C482 C483 1.370 . S
C482 C486 1.524 . S
C483 C475 1.503 . S
C483 C482 1.370 . S
C483 C484 1.403 . S
C484 C483 1.403 . S
C484 C485 1.404 . S
C484 C487 1.539 . S
C485 C481 1.408 . S
C485 C484 1.404 . S
C485 H497 0.930 . S
C486 C482 1.524 . S
C486 H498 0.956 . S
C486 H499 0.961 . S
C486 H500 0.961 . S
C487 C484 1.539 . S
C487 H501 0.958 . S
C487 H502 0.961 . S
C487 H503 0.960 . S
H488 C472 0.931 . S
H489 C477 0.929 . S
H490 C478 0.960 . S
H491 C478 0.962 . S
H492 C478 0.960 . S
H493 C479 0.961 . S
H494 C479 0.961 . S
H495 C479 0.961 . S
H496 C480 0.931 . S
H497 C485 0.930 . S
H498 C486 0.956 . S
H499 C486 0.961 . S
H500 C486 0.961 . S
H501 C487 0.958 . S
H502 C487 0.961 . S
H503 C487 0.960 . S
C504 C505 1.391 . S
C504 C506 1.394 . S
C504 H520 0.931 . S
C505 C504 1.391 . S
C505 C509 1.376 . S
C506 C504 1.394 . S
C506 C507 1.369 . S
C506 C510 1.531 . S
C507 C506 1.369 . S
C507 C508 1.410 . S
C507 C515 1.503 . S
C508 C507 1.410 . S
C508 C509 1.392 . S
C508 C511 1.511 . S
C509 C505 1.376 . S
C509 C508 1.392 . S
C509 H521 0.929 . S
C510 C506 1.531 . S
C510 H522 0.960 . S
C510 H523 0.962 . S
C510 H524 0.960 . S
C511 C508 1.511 . S
C511 H525 0.961 . S
C511 H526 0.961 . S
C511 H527 0.961 . S
C512 C513 1.370 . S
C512 C514 1.363 . S
C512 H528 0.931 . S
C513 C512 1.370 . S
C513 C517 1.408 . S
C514 C512 1.363 . S
C514 C515 1.370 . S
C514 C518 1.524 . S
C515 C507 1.503 . S
C515 C514 1.370 . S
C515 C516 1.403 . S
C516 C515 1.403 . S
C516 C517 1.404 . S
C516 C519 1.539 . S
C517 C513 1.408 . S
C517 C516 1.404 . S
C517 H529 0.930 . S
C518 C514 1.524 . S
C518 H530 0.956 . S
C518 H531 0.961 . S
C518 H532 0.961 . S
C519 C516 1.539 . S
C519 H533 0.958 . S
C519 H534 0.961 . S
C519 H535 0.960 . S
H520 C504 0.931 . S
H521 C509 0.929 . S
H522 C510 0.960 . S
H523 C510 0.962 . S
H524 C510 0.960 . S
H525 C511 0.961 . S
H526 C511 0.961 . S
H527 C511 0.961 . S
H528 C512 0.931 . S
H529 C517 0.930 . S
H530 C518 0.956 . S
H531 C518 0.961 . S
H532 C518 0.961 . S
H533 C519 0.958 . S
H534 C519 0.961 . S
H535 C519 0.960 . S
C536 C537 1.391 . S
C536 C538 1.394 . S
C536 H552 0.931 . S
C537 C536 1.391 . S
C537 C541 1.376 . S
C538 C536 1.394 . S
C538 C539 1.369 . S
C538 C542 1.531 . S
C539 C538 1.369 . S
C539 C540 1.410 . S
C539 C547 1.503 . S
C540 C539 1.410 . S
C540 C541 1.392 . S
C540 C543 1.511 . S
C541 C537 1.376 . S
C541 C540 1.392 . S
C541 H553 0.929 . S
C542 C538 1.531 . S
C542 H554 0.960 . S
C542 H555 0.962 . S
C542 H556 0.960 . S
C543 C540 1.511 . S
C543 H557 0.961 . S
C543 H558 0.961 . S
C543 H559 0.961 . S
C544 C545 1.370 . S
C544 C546 1.363 . S
C544 H560 0.931 . S
C545 C544 1.370 . S
C545 C549 1.408 1_556 S
C546 C544 1.363 . S
C546 C547 1.370 . S
C546 C550 1.524 . S
C547 C539 1.503 . S
C547 C546 1.370 . S
C547 C548 1.403 . S
C548 C547 1.403 . S
C548 C549 1.404 1_556 S
C548 C551 1.539 1_556 S
C549 C545 1.408 1_554 S
C549 C548 1.404 1_554 S
C549 H561 0.930 . S
C550 C546 1.524 . S
C550 H562 0.956 . S
C550 H563 0.961 . S
C550 H564 0.961 . S
C551 C548 1.539 1_554 S
C551 H565 0.958 . S
C551 H566 0.961 . S
C551 H567 0.960 . S
H552 C536 0.931 . S
H553 C541 0.929 . S
H554 C542 0.960 . S
H555 C542 0.962 . S
H556 C542 0.960 . S
H557 C543 0.961 . S
H558 C543 0.961 . S
H559 C543 0.961 . S
H560 C544 0.931 . S
H561 C549 0.930 . S
H562 C550 0.956 . S
H563 C550 0.961 . S
H564 C550 0.961 . S
H565 C551 0.958 . S
H566 C551 0.961 . S
H567 C551 0.960 . S
C568 C569 1.391 . S
C568 C570 1.394 . S
C568 H584 0.931 . S
C569 C568 1.391 . S
C569 C573 1.376 . S
C570 C568 1.394 . S
C570 C571 1.369 . S
C570 C574 1.531 . S
C571 C570 1.369 . S
C571 C572 1.410 . S
C571 C579 1.503 . S
C572 C571 1.410 . S
C572 C573 1.392 . S
C572 C575 1.511 . S
C573 C569 1.376 . S
C573 C572 1.392 . S
C573 H585 0.929 . S
C574 C570 1.531 . S
C574 H586 0.960 . S
C574 H587 0.962 . S
C574 H588 0.960 . S
C575 C572 1.511 . S
C575 H589 0.961 . S
C575 H590 0.961 . S
C575 H591 0.961 . S
C576 C577 1.370 . S
C576 C578 1.363 . S
C576 H592 0.931 . S
C577 C576 1.370 . S
C577 C581 1.408 . S
C578 C576 1.363 . S
C578 C579 1.370 . S
C578 C582 1.524 . S
C579 C571 1.503 . S
C579 C578 1.370 . S
C579 C580 1.403 . S
C580 C579 1.403 . S
C580 C581 1.404 . S
C580 C583 1.539 . S
C581 C577 1.408 . S
C581 C580 1.404 . S
C581 H593 0.930 . S
C582 C578 1.524 . S
C582 H594 0.956 . S
C582 H595 0.961 . S
C582 H596 0.961 . S
C583 C580 1.539 . S
C583 H597 0.958 . S
C583 H598 0.961 1_655 S
C583 H599 0.960 . S
H584 C568 0.931 . S
H585 C573 0.929 . S
H586 C574 0.960 . S
H587 C574 0.962 . S
H588 C574 0.960 . S
H589 C575 0.961 . S
H590 C575 0.961 . S
H591 C575 0.961 . S
H592 C576 0.931 . S
H593 C581 0.930 . S
H594 C582 0.956 . S
H595 C582 0.961 . S
H596 C582 0.961 . S
H597 C583 0.958 . S
H598 C583 0.961 1_455 S
H599 C583 0.960 . S
C600 C601 1.391 . S
C600 C602 1.394 . S
C600 H616 0.931 . S
C601 C600 1.391 . S
C601 C605 1.376 . S
C602 C600 1.394 . S
C602 C603 1.369 . S
C602 C606 1.531 . S
C603 C602 1.369 . S
C603 C604 1.410 . S
C603 C611 1.503 . S
C604 C603 1.410 . S
C604 C605 1.392 . S
C604 C607 1.511 . S
C605 C601 1.376 . S
C605 C604 1.392 . S
C605 H617 0.929 . S
C606 C602 1.531 . S
C606 H618 0.960 . S
C606 H619 0.962 . S
C606 H620 0.960 . S
C607 C604 1.511 . S
C607 H621 0.961 . S
C607 H622 0.961 . S
C607 H623 0.961 . S
C608 C609 1.370 . S
C608 C610 1.363 . S
C608 H624 0.931 . S
C609 C608 1.370 . S
C609 C613 1.408 . S
C610 C608 1.363 . S
C610 C611 1.370 . S
C610 C614 1.524 . S
C611 C603 1.503 . S
C611 C610 1.370 . S
C611 C612 1.403 . S
C612 C611 1.403 . S
C612 C613 1.404 . S
C612 C615 1.539 . S
C613 C609 1.408 . S
C613 C612 1.404 . S
C613 H625 0.930 . S
C614 C610 1.524 . S
C614 H626 0.956 . S
C614 H627 0.961 . S
C614 H628 0.961 . S
C615 C612 1.539 . S
C615 H629 0.958 . S
C615 H630 0.961 . S
C615 H631 0.960 . S
H616 C600 0.931 . S
H617 C605 0.929 . S
H618 C606 0.960 . S
H619 C606 0.962 . S
H620 C606 0.960 . S
H621 C607 0.961 . S
H622 C607 0.961 . S
H623 C607 0.961 . S
H624 C608 0.931 . S
H625 C613 0.930 . S
H626 C614 0.956 . S
H627 C614 0.961 . S
H628 C614 0.961 . S
H629 C615 0.958 . S
H630 C615 0.961 . S
H631 C615 0.960 . S
C632 C633 1.391 . S
C632 C634 1.394 . S
C632 H648 0.931 . S
C633 C632 1.391 . S
C633 C637 1.376 . S
C634 C632 1.394 . S
C634 C635 1.369 . S
C634 C638 1.531 . S
C635 C634 1.369 . S
C635 C636 1.410 . S
C635 C643 1.503 . S
C636 C635 1.410 . S
C636 C637 1.392 . S
C636 C639 1.511 . S
C637 C633 1.376 . S
C637 C636 1.392 . S
C637 H649 0.929 . S
C638 C634 1.531 . S
C638 H650 0.960 . S
C638 H651 0.962 . S
C638 H652 0.960 . S
C639 C636 1.511 . S
C639 H653 0.961 . S
C639 H654 0.961 . S
C639 H655 0.961 . S
C640 C641 1.370 . S
C640 C642 1.363 . S
C640 H656 0.931 . S
C641 C640 1.370 . S
C641 C645 1.408 . S
C642 C640 1.363 . S
C642 C643 1.370 . S
C642 C646 1.524 . S
C643 C635 1.503 . S
C643 C642 1.370 . S
C643 C644 1.403 . S
C644 C643 1.403 . S
C644 C645 1.404 . S
C644 C647 1.539 . S
C645 C641 1.408 . S
C645 C644 1.404 . S
C645 H657 0.930 . S
C646 C642 1.524 . S
C646 H658 0.956 . S
C646 H659 0.961 . S
C646 H660 0.961 . S
C647 C644 1.539 . S
C647 H661 0.958 . S
C647 H662 0.961 . S
C647 H663 0.960 . S
H648 C632 0.931 . S
H649 C637 0.929 . S
H650 C638 0.960 . S
H651 C638 0.962 . S
H652 C638 0.960 . S
H653 C639 0.961 . S
H654 C639 0.961 . S
H655 C639 0.961 . S
H656 C640 0.931 . S
H657 C645 0.930 . S
H658 C646 0.956 . S
H659 C646 0.961 . S
H660 C646 0.961 . S
H661 C647 0.958 . S
H662 C647 0.961 . S
H663 C647 0.960 . S
C664 C665 1.391 . S
C664 C666 1.394 . S
C664 H680 0.931 . S
C665 C664 1.391 . S
C665 C669 1.376 . S
C666 C664 1.394 . S
C666 C667 1.369 . S
C666 C670 1.531 . S
C667 C666 1.369 . S
C667 C668 1.410 . S
C667 C675 1.503 . S
C668 C667 1.410 . S
C668 C669 1.392 . S
C668 C671 1.511 . S
C669 C665 1.376 . S
C669 C668 1.392 . S
C669 H681 0.929 . S
C670 C666 1.531 . S
C670 H682 0.960 . S
C670 H683 0.962 . S
C670 H684 0.960 . S
C671 C668 1.511 . S
C671 H685 0.961 . S
C671 H686 0.961 . S
C671 H687 0.961 . S
C672 C673 1.370 . S
C672 C674 1.363 . S
C672 H688 0.931 . S
C673 C672 1.370 . S
C673 C677 1.408 . S
C674 C672 1.363 . S
C674 C675 1.370 . S
C674 C678 1.524 . S
C675 C667 1.503 . S
C675 C674 1.370 . S
C675 C676 1.403 . S
C676 C675 1.403 . S
C676 C677 1.404 . S
C676 C679 1.539 . S
C677 C673 1.408 . S
C677 C676 1.404 . S
C677 H689 0.930 . S
C678 C674 1.524 . S
C678 H690 0.956 . S
C678 H691 0.961 . S
C678 H692 0.961 . S
C679 C676 1.539 . S
C679 H693 0.958 . S
C679 H694 0.961 . S
C679 H695 0.960 . S
H680 C664 0.931 . S
H681 C669 0.929 . S
H682 C670 0.960 . S
H683 C670 0.962 . S
H684 C670 0.960 . S
H685 C671 0.961 . S
H686 C671 0.961 . S
H687 C671 0.961 . S
H688 C672 0.931 . S
H689 C677 0.930 . S
H690 C678 0.956 . S
H691 C678 0.961 . S
H692 C678 0.961 . S
H693 C679 0.958 . S
H694 C679 0.961 . S
H695 C679 0.960 . S
C696 C697 1.391 . S
C696 C698 1.394 . S
C696 H712 0.931 . S
C697 C696 1.391 . S
C697 C701 1.376 . S
C698 C696 1.394 . S
C698 C699 1.369 . S
C698 C702 1.531 . S
C699 C698 1.369 . S
C699 C700 1.410 . S
C699 C707 1.503 . S
C700 C699 1.410 . S
C700 C701 1.392 . S
C700 C703 1.511 . S
C701 C697 1.376 . S
C701 C700 1.392 . S
C701 H713 0.929 . S
C702 C698 1.531 . S
C702 H714 0.960 . S
C702 H715 0.962 . S
C702 H716 0.960 . S
C703 C700 1.511 . S
C703 H717 0.961 . S
C703 H718 0.961 . S
C703 H719 0.961 . S
C704 C705 1.370 . S
C704 C706 1.363 . S
C704 H720 0.931 . S
C705 C704 1.370 . S
C705 C709 1.408 . S
C706 C704 1.363 . S
C706 C707 1.370 . S
C706 C710 1.524 . S
C707 C699 1.503 . S
C707 C706 1.370 . S
C707 C708 1.403 . S
C708 C707 1.403 . S
C708 C709 1.404 . S
C708 C711 1.539 . S
C709 C705 1.408 . S
C709 C708 1.404 . S
C709 H721 0.930 . S
C710 C706 1.524 . S
C710 H722 0.956 . S
C710 H723 0.961 . S
C710 H724 0.961 . S
C711 C708 1.539 . S
C711 H725 0.958 . S
C711 H726 0.961 . S
C711 H727 0.960 . S
H712 C696 0.931 . S
H713 C701 0.929 . S
H714 C702 0.960 . S
H715 C702 0.962 . S
H716 C702 0.960 . S
H717 C703 0.961 . S
H718 C703 0.961 . S
H719 C703 0.961 . S
H720 C704 0.931 . S
H721 C709 0.930 . S
H722 C710 0.956 . S
H723 C710 0.961 . S
H724 C710 0.961 . S
H725 C711 0.958 . S
H726 C711 0.961 . S
H727 C711 0.960 . S
C728 C729 1.391 . S
C728 C730 1.394 . S
C728 H744 0.931 . S
C729 C728 1.391 . S
C729 C733 1.376 . S
C730 C728 1.394 . S
C730 C731 1.369 . S
C730 C734 1.531 . S
C731 C730 1.369 . S
C731 C732 1.410 . S
C731 C739 1.503 . S
C732 C731 1.410 . S
C732 C733 1.392 . S
C732 C735 1.511 . S
C733 C729 1.376 . S
C733 C732 1.392 . S
C733 H745 0.929 . S
C734 C730 1.531 . S
C734 H746 0.960 . S
C734 H747 0.962 . S
C734 H748 0.960 . S
C735 C732 1.511 . S
C735 H749 0.961 . S
C735 H750 0.961 . S
C735 H751 0.961 . S
C736 C737 1.370 . S
C736 C738 1.363 . S
C736 H752 0.931 . S
C737 C736 1.370 . S
C737 C741 1.408 . S
C738 C736 1.363 . S
C738 C739 1.370 . S
C738 C742 1.524 . S
C739 C731 1.503 . S
C739 C738 1.370 . S
C739 C740 1.403 . S
C740 C739 1.403 . S
C740 C741 1.404 . S
C740 C743 1.539 . S
C741 C737 1.408 . S
C741 C740 1.404 . S
C741 H753 0.930 . S
C742 C738 1.524 . S
C742 H754 0.956 . S
C742 H755 0.961 . S
C742 H756 0.961 . S
C743 C740 1.539 . S
C743 H757 0.958 . S
C743 H758 0.961 . S
C743 H759 0.960 . S
H744 C728 0.931 . S
H745 C733 0.929 . S
H746 C734 0.960 . S
H747 C734 0.962 . S
H748 C734 0.960 . S
H749 C735 0.961 . S
H750 C735 0.961 . S
H751 C735 0.961 . S
H752 C736 0.931 . S
H753 C741 0.930 . S
H754 C742 0.956 . S
H755 C742 0.961 . S
H756 C742 0.961 . S
H757 C743 0.958 . S
H758 C743 0.961 . S
H759 C743 0.960 . S
C760 C761 1.391 . S
C760 C762 1.394 . S
C760 H776 0.931 . S
C761 C760 1.391 . S
C761 C765 1.376 . S
C762 C760 1.394 . S
C762 C763 1.369 . S
C762 C766 1.531 . S
C763 C762 1.369 . S
C763 C764 1.410 . S
C763 C771 1.503 . S
C764 C763 1.410 . S
C764 C765 1.392 . S
C764 C767 1.511 . S
C765 C761 1.376 . S
C765 C764 1.392 . S
C765 H777 0.929 . S
C766 C762 1.531 . S
C766 H778 0.960 . S
C766 H779 0.962 . S
C766 H780 0.960 . S
C767 C764 1.511 . S
C767 H781 0.961 . S
C767 H782 0.961 . S
C767 H783 0.961 . S
C768 C769 1.370 . S
C768 C770 1.363 . S
C768 H784 0.931 1_556 S
C769 C768 1.370 . S
C769 C773 1.408 . S
C770 C768 1.363 . S
C770 C771 1.370 . S
C770 C774 1.524 . S
C771 C763 1.503 . S
C771 C770 1.370 . S
C771 C772 1.403 . S
C772 C771 1.403 . S
C772 C773 1.404 . S
C772 C775 1.539 . S
C773 C769 1.408 . S
C773 C772 1.404 . S
C773 H785 0.930 . S
C774 C770 1.524 . S
C774 H786 0.956 . S
C774 H787 0.961 . S
C774 H788 0.961 1_556 S
C775 C772 1.539 . S
C775 H789 0.958 . S
C775 H790 0.961 . S
C775 H791 0.960 . S
H776 C760 0.931 . S
H777 C765 0.929 . S
H778 C766 0.960 . S
H779 C766 0.962 . S
H780 C766 0.960 . S
H781 C767 0.961 . S
H782 C767 0.961 . S
H783 C767 0.961 . S
H784 C768 0.931 1_554 S
H785 C773 0.930 . S
H786 C774 0.956 . S
H787 C774 0.961 . S
H788 C774 0.961 1_554 S
H789 C775 0.958 . S
H790 C775 0.961 . S
H791 C775 0.960 . S
C792 C793 1.391 . S
C792 C794 1.394 . S
C792 H808 0.931 . S
C793 C792 1.391 . S
C793 C797 1.376 . S
C794 C792 1.394 . S
C794 C795 1.369 . S
C794 C798 1.531 . S
C795 C794 1.369 . S
C795 C796 1.410 . S
C795 C803 1.503 . S
C796 C795 1.410 . S
C796 C797 1.392 . S
C796 C799 1.511 . S
C797 C793 1.376 . S
C797 C796 1.392 . S
C797 H809 0.929 . S
C798 C794 1.531 . S
C798 H810 0.960 . S
C798 H811 0.962 . S
C798 H812 0.960 . S
C799 C796 1.511 . S
C799 H813 0.961 . S
C799 H814 0.961 . S
C799 H815 0.961 . S
C800 C801 1.370 . S
C800 C802 1.363 . S
C800 H816 0.931 . S
C801 C800 1.370 . S
C801 C805 1.408 . S
C802 C800 1.363 . S
C802 C803 1.370 . S
C802 C806 1.524 . S
C803 C795 1.503 . S
C803 C802 1.370 . S
C803 C804 1.403 . S
C804 C803 1.403 . S
C804 C805 1.404 . S
C804 C807 1.539 . S
C805 C801 1.408 . S
C805 C804 1.404 . S
C805 H817 0.930 . S
C806 C802 1.524 . S
C806 H818 0.956 . S
C806 H819 0.961 . S
C806 H820 0.961 . S
C807 C804 1.539 . S
C807 H821 0.958 . S
C807 H822 0.961 . S
C807 H823 0.960 . S
H808 C792 0.931 . S
H809 C797 0.929 . S
H810 C798 0.960 . S
H811 C798 0.962 . S
H812 C798 0.960 . S
H813 C799 0.961 . S
H814 C799 0.961 . S
H815 C799 0.961 . S
H816 C800 0.931 . S
H817 C805 0.930 . S
H818 C806 0.956 . S
H819 C806 0.961 . S
H820 C806 0.961 . S
H821 C807 0.958 . S
H822 C807 0.961 . S
H823 C807 0.960 . S
C824 C825 1.391 . S
C824 C826 1.394 . S
C824 H840 0.931 . S
C825 C824 1.391 . S
C825 C829 1.376 . S
C826 C824 1.394 . S
C826 C827 1.369 . S
C826 C830 1.531 . S
C827 C826 1.369 . S
C827 C828 1.410 . S
C827 C835 1.503 . S
C828 C827 1.410 . S
C828 C829 1.392 . S
C828 C831 1.511 . S
C829 C825 1.376 . S
C829 C828 1.392 . S
C829 H841 0.929 . S
C830 C826 1.531 . S
C830 H842 0.960 . S
C830 H843 0.962 . S
C830 H844 0.960 . S
C831 C828 1.511 . S
C831 H845 0.961 . S
C831 H846 0.961 . S
C831 H847 0.961 . S
C832 C833 1.370 . S
C832 C834 1.363 . S
C832 H848 0.931 . S
C833 C832 1.370 . S
C833 C837 1.408 . S
C834 C832 1.363 . S
C834 C835 1.370 . S
C834 C838 1.524 . S
C835 C827 1.503 . S
C835 C834 1.370 . S
C835 C836 1.403 . S
C836 C835 1.403 . S
C836 C837 1.404 . S
C836 C839 1.539 . S
C837 C833 1.408 . S
C837 C836 1.404 . S
C837 H849 0.930 . S
C838 C834 1.524 . S
C838 H850 0.956 . S
C838 H851 0.961 . S
C838 H852 0.961 . S
C839 C836 1.539 . S
C839 H853 0.958 . S
C839 H854 0.961 . S
C839 H855 0.960 . S
H840 C824 0.931 . S
H841 C829 0.929 . S
H842 C830 0.960 . S
H843 C830 0.962 . S
H844 C830 0.960 . S
H845 C831 0.961 . S
H846 C831 0.961 . S
H847 C831 0.961 . S
H848 C832 0.931 . S
H849 C837 0.930 . S
H850 C838 0.956 . S
H851 C838 0.961 . S
H852 C838 0.961 . S
H853 C839 0.958 . S
H854 C839 0.961 . S
H855 C839 0.960 . S
C856 C857 1.391 . S
C856 C858 1.394 . S
C856 H872 0.931 . S
C857 C856 1.391 . S
C857 C861 1.376 . S
C858 C856 1.394 . S
C858 C859 1.369 . S
C858 C862 1.531 . S
C859 C858 1.369 . S
C859 C860 1.410 . S
C859 C867 1.503 . S
C860 C859 1.410 . S
C860 C861 1.392 . S
C860 C863 1.511 . S
C861 C857 1.376 . S
C861 C860 1.392 . S
C861 H873 0.929 . S
C862 C858 1.531 . S
C862 H874 0.960 . S
C862 H875 0.962 . S
C862 H876 0.960 . S
C863 C860 1.511 . S
C863 H877 0.961 . S
C863 H878 0.961 . S
C863 H879 0.961 . S
C864 C865 1.370 . S
C864 C866 1.363 . S
C864 H880 0.931 . S
C865 C864 1.370 . S
C865 C869 1.408 . S
C866 C864 1.363 . S
C866 C867 1.370 . S
C866 C870 1.524 . S
C867 C859 1.503 . S
C867 C866 1.370 . S
C867 C868 1.403 . S
C868 C867 1.403 . S
C868 C869 1.404 . S
C868 C871 1.539 . S
C869 C865 1.408 . S
C869 C868 1.404 . S
C869 H881 0.930 . S
C870 C866 1.524 . S
C870 H882 0.956 . S
C870 H883 0.961 . S
C870 H884 0.961 . S
C871 C868 1.539 . S
C871 H885 0.958 . S
C871 H886 0.961 . S
C871 H887 0.960 . S
H872 C856 0.931 . S
H873 C861 0.929 . S
H874 C862 0.960 . S
H875 C862 0.962 . S
H876 C862 0.960 . S
H877 C863 0.961 . S
H878 C863 0.961 . S
H879 C863 0.961 . S
H880 C864 0.931 . S
H881 C869 0.930 . S
H882 C870 0.956 . S
H883 C870 0.961 . S
H884 C870 0.961 . S
H885 C871 0.958 . S
H886 C871 0.961 . S
H887 C871 0.960 . S
C888 C889 1.391 . S
C888 C890 1.394 . S
C888 H904 0.931 . S
C889 C888 1.391 . S
C889 C893 1.376 . S
C890 C888 1.394 . S
C890 C891 1.369 . S
C890 C894 1.531 . S
C891 C890 1.369 . S
C891 C892 1.410 . S
C891 C899 1.503 . S
C892 C891 1.410 . S
C892 C893 1.392 . S
C892 C895 1.511 . S
C893 C889 1.376 . S
C893 C892 1.392 . S
C893 H905 0.929 . S
C894 C890 1.531 . S
C894 H906 0.960 . S
C894 H907 0.962 . S
C894 H908 0.960 . S
C895 C892 1.511 . S
C895 H909 0.961 . S
C895 H910 0.961 . S
C895 H911 0.961 . S
C896 C897 1.370 . S
C896 C898 1.363 . S
C896 H912 0.931 . S
C897 C896 1.370 . S
C897 C901 1.408 . S
C898 C896 1.363 . S
C898 C899 1.370 . S
C898 C902 1.524 . S
C899 C891 1.503 . S
C899 C898 1.370 . S
C899 C900 1.403 . S
C900 C899 1.403 . S
C900 C901 1.404 . S
C900 C903 1.539 . S
C901 C897 1.408 . S
C901 C900 1.404 . S
C901 H913 0.930 . S
C902 C898 1.524 . S
C902 H914 0.956 . S
C902 H915 0.961 . S
C902 H916 0.961 . S
C903 C900 1.539 . S
C903 H917 0.958 . S
C903 H918 0.961 . S
C903 H919 0.960 . S
H904 C888 0.931 . S
H905 C893 0.929 . S
H906 C894 0.960 . S
H907 C894 0.962 . S
H908 C894 0.960 . S
H909 C895 0.961 . S
H910 C895 0.961 . S
H911 C895 0.961 . S
H912 C896 0.931 . S
H913 C901 0.930 . S
H914 C902 0.956 . S
H915 C902 0.961 . S
H916 C902 0.961 . S
H917 C903 0.958 . S
H918 C903 0.961 . S
H919 C903 0.960 . S
C920 C921 1.391 . S
C920 C922 1.394 . S
C920 H936 0.931 . S
C921 C920 1.391 . S
C921 C925 1.376 . S
C922 C920 1.394 . S
C922 C923 1.369 . S
C922 C926 1.531 . S
C923 C922 1.369 . S
C923 C924 1.410 . S
C923 C931 1.503 . S
C924 C923 1.410 . S
C924 C925 1.392 . S
C924 C927 1.511 . S
C925 C921 1.376 . S
C925 C924 1.392 . S
C925 H937 0.929 . S
C926 C922 1.531 . S
C926 H938 0.960 . S
C926 H939 0.962 . S
C926 H940 0.960 . S
C927 C924 1.511 . S
C927 H941 0.961 . S
C927 H942 0.961 . S
C927 H943 0.961 . S
C928 C929 1.370 . S
C928 C930 1.363 . S
C928 H944 0.931 . S
C929 C928 1.370 . S
C929 C933 1.408 . S
C930 C928 1.363 . S
C930 C931 1.370 . S
C930 C934 1.524 . S
C931 C923 1.503 . S
C931 C930 1.370 . S
C931 C932 1.403 . S
C932 C931 1.403 . S
C932 C933 1.404 . S
C932 C935 1.539 . S
C933 C929 1.408 . S
C933 C932 1.404 . S
C933 H945 0.930 . S
C934 C930 1.524 . S
C934 H946 0.956 . S
C934 H947 0.961 . S
C934 H948 0.961 . S
C935 C932 1.539 . S
C935 H949 0.958 . S
C935 H950 0.961 . S
C935 H951 0.960 . S
H936 C920 0.931 . S
H937 C925 0.929 . S
H938 C926 0.960 . S
H939 C926 0.962 . S
H940 C926 0.960 . S
H941 C927 0.961 . S
H942 C927 0.961 . S
H943 C927 0.961 . S
H944 C928 0.931 . S
H945 C933 0.930 . S
H946 C934 0.956 . S
H947 C934 0.961 . S
H948 C934 0.961 . S
H949 C935 0.958 . S
H950 C935 0.961 . S
H951 C935 0.960 . S
C952 C953 1.391 . S
C952 C954 1.394 . S
C952 H968 0.931 . S
C953 C952 1.391 . S
C953 C957 1.376 . S
C954 C952 1.394 . S
C954 C955 1.369 . S
C954 C958 1.531 . S
C955 C954 1.369 . S
C955 C956 1.410 . S
C955 C963 1.503 . S
C956 C955 1.410 . S
C956 C957 1.392 . S
C956 C959 1.511 . S
C957 C953 1.376 . S
C957 C956 1.392 . S
C957 H969 0.929 . S
C958 C954 1.531 . S
C958 H970 0.960 . S
C958 H971 0.962 . S
C958 H972 0.960 . S
C959 C956 1.511 . S
C959 H973 0.961 . S
C959 H974 0.961 . S
C959 H975 0.961 . S
C960 C961 1.370 . S
C960 C962 1.363 . S
C960 H976 0.931 . S
C961 C960 1.370 . S
C961 C965 1.408 . S
C962 C960 1.363 . S
C962 C963 1.370 . S
C962 C966 1.524 . S
C963 C955 1.503 . S
C963 C962 1.370 . S
C963 C964 1.403 . S
C964 C963 1.403 . S
C964 C965 1.404 . S
C964 C967 1.539 . S
C965 C961 1.408 . S
C965 C964 1.404 . S
C965 H977 0.930 . S
C966 C962 1.524 . S
C966 H978 0.956 . S
C966 H979 0.961 . S
C966 H980 0.961 . S
C967 C964 1.539 . S
C967 H981 0.958 . S
C967 H982 0.961 . S
C967 H983 0.960 . S
H968 C952 0.931 . S
H969 C957 0.929 . S
H970 C958 0.960 . S
H971 C958 0.962 . S
H972 C958 0.960 . S
H973 C959 0.961 . S
H974 C959 0.961 . S
H975 C959 0.961 . S
H976 C960 0.931 . S
H977 C965 0.930 . S
H978 C966 0.956 . S
H979 C966 0.961 . S
H980 C966 0.961 . S
H981 C967 0.958 . S
H982 C967 0.961 . S
H983 C967 0.960 . S
C984 C985 1.391 . S
C984 C986 1.394 . S
C984 H1000 0.931 . S
C985 C984 1.391 . S
C985 C989 1.376 . S
C986 C984 1.394 . S
C986 C987 1.369 . S
C986 C990 1.531 . S
C987 C986 1.369 . S
C987 C988 1.410 . S
C987 C995 1.503 . S
C988 C987 1.410 . S
C988 C989 1.392 . S
C988 C991 1.511 . S
C989 C985 1.376 . S
C989 C988 1.392 . S
C989 H1001 0.929 . S
C990 C986 1.531 . S
C990 H1002 0.960 . S
C990 H1003 0.962 . S
C990 H1004 0.960 . S
C991 C988 1.511 . S
C991 H1005 0.961 . S
C991 H1006 0.961 . S
C991 H1007 0.961 . S
C992 C993 1.370 . S
C992 C994 1.363 . S
C992 H1008 0.931 . S
C993 C992 1.370 . S
C993 C997 1.408 . S
C994 C992 1.363 . S
C994 C995 1.370 . S
C994 C998 1.524 . S
C995 C987 1.503 . S
C995 C994 1.370 . S
C995 C996 1.403 . S
C996 C995 1.403 . S
C996 C997 1.404 . S
C996 C999 1.539 . S
C997 C993 1.408 . S
C997 C996 1.404 . S
C997 H1009 0.930 . S
C998 C994 1.524 . S
C998 H1010 0.956 . S
C998 H1011 0.961 . S
C998 H1012 0.961 . S
C999 C996 1.539 . S
C999 H1013 0.958 . S
C999 H1014 0.961 . S
C999 H1015 0.960 . S
H1000 C984 0.931 . S
H1001 C989 0.929 . S
H1002 C990 0.960 . S
H1003 C990 0.962 . S
H1004 C990 0.960 . S
H1005 C991 0.961 . S
H1006 C991 0.961 . S
H1007 C991 0.961 . S
H1008 C992 0.931 . S
H1009 C997 0.930 . S
H1010 C998 0.956 . S
H1011 C998 0.961 . S
H1012 C998 0.961 . S
H1013 C999 0.958 . S
H1014 C999 0.961 . S
H1015 C999 0.960 . S
C249 C4 1.073 . S
C257 C95 1.121 . S
C281 C16 1.225 . S
C289 C144 1.276 . S
C321 C170 2.036 . S
C313 C32 2.034 . S
C345 C43 2.268 . S
C353 C218 2.200 1_655 S
C385 C130 2.643 . S
C377 C5 2.552 . S
C417 C98 0.529 . S
C409 C21 0.466 . S
C449 C219 1.865 . S
C441 C27 1.900 . S
C481 C187 1.547 . S
C473 C37 1.546 . S
C505 C10 1.452 . S
C513 C215 1.494 . S
C545 C147 2.511 1_556 S
C537 C26 2.579 . S
C569 C38 2.074 . S
C577 C99 2.077 . S
C601 C15 1.068 . S
C609 C184 1.107 . S
C641 C104 1.295 . S
C633 C48 1.294 . S
C665 C59 1.043 . S
C673 C135 1.081 . S
C697 C76 2.431 . S
C705 C179 2.400 . S
C729 C87 2.093 . S
C737 C227 2.072 . S
C761 C54 1.924 . S
C769 C139 2.007 1_556 S
C801 C107 1.460 . S
C793 C60 1.449 . S
C833 C210 1.766 . S
C825 C71 1.751 . S
C865 C178 1.535 . S
C857 C82 1.575 . S
C889 C49 1.748 . S
C897 C224 1.811 . S
C929 C138 1.980 . S
C921 C70 2.030 . S
C961 C90 2.523 . S
C953 C81 2.525 . S
C985 C65 0.906 . S
C993 C175 0.898 . S
