# Generated by pormake.
# Topology anh, (6,3)-cn, num edge types: 1
# Building blocks:
#     Node 0, Type 0, BuildingBlock: GEDQOX_clean_sbu_0, # of connection points: 6
#     Node 1, Type 0, BuildingBlock: GEDQOX_clean_sbu_0, # of connection points: 6
#     Node 2, Type 0, BuildingBlock: GEDQOX_clean_sbu_0, # of connection points: 6
#     Node 3, Type 1, BuildingBlock: KAKCAD_clean_linker_0, # of connection points: 3
#     Node 4, Type 1, BuildingBlock: KAKCAD_clean_linker_0, # of connection points: 3
#     Node 5, Type 1, BuildingBlock: KAKCAD_clean_linker_0, # of connection points: 3
#     Node 6, Type 1, BuildingBlock: KAKCAD_clean_linker_0, # of connection points: 3
#     Node 7, Type 1, BuildingBlock: KAKCAD_clean_linker_0, # of connection points: 3
#     Node 8, Type 1, BuildingBlock: KAKCAD_clean_linker_0, # of connection points: 3
#     Edge 9, Type (0, 1), BuildingBlock: MIFKUJ_clean_linker_0, # of connection points: 2
#     Edge 10, Type (0, 1), BuildingBlock: MIFKUJ_clean_linker_0, # of connection points: 2
#     Edge 11, Type (0, 1), BuildingBlock: MIFKUJ_clean_linker_0, # of connection points: 2
#     Edge 12, Type (0, 1), BuildingBlock: MIFKUJ_clean_linker_0, # of connection points: 2
#     Edge 13, Type (0, 1), BuildingBlock: MIFKUJ_clean_linker_0, # of connection points: 2
#     Edge 14, Type (0, 1), BuildingBlock: MIFKUJ_clean_linker_0, # of connection points: 2
#     Edge 15, Type (0, 1), BuildingBlock: MIFKUJ_clean_linker_0, # of connection points: 2
#     Edge 16, Type (0, 1), BuildingBlock: MIFKUJ_clean_linker_0, # of connection points: 2
#     Edge 17, Type (0, 1), BuildingBlock: MIFKUJ_clean_linker_0, # of connection points: 2
#     Edge 18, Type (0, 1), BuildingBlock: MIFKUJ_clean_linker_0, # of connection points: 2
#     Edge 19, Type (0, 1), BuildingBlock: MIFKUJ_clean_linker_0, # of connection points: 2
#     Edge 20, Type (0, 1), BuildingBlock: MIFKUJ_clean_linker_0, # of connection points: 2
#     Edge 21, Type (0, 1), BuildingBlock: MIFKUJ_clean_linker_0, # of connection points: 2
#     Edge 22, Type (0, 1), BuildingBlock: MIFKUJ_clean_linker_0, # of connection points: 2
#     Edge 23, Type (0, 1), BuildingBlock: MIFKUJ_clean_linker_0, # of connection points: 2
#     Edge 24, Type (0, 1), BuildingBlock: MIFKUJ_clean_linker_0, # of connection points: 2
#     Edge 25, Type (0, 1), BuildingBlock: MIFKUJ_clean_linker_0, # of connection points: 2
#     Edge 26, Type (0, 1), BuildingBlock: MIFKUJ_clean_linker_0, # of connection points: 2
# Relax obj value: 0.161
# Max RMSD: 0.200
# Mean RMSD: 0.151
data_MOF--net-anh--node1-GEDQOX_clean_sbu_0--node2-KAKCAD_clean_linker_0--edge1-MIFKUJ_clean_linker_0
_symmetry_space_group_name_H-M    P1
_symmetry_Int_Tables_number       1
_symmetry_cell_setting            triclinic
loop_
_symmetry_equiv_pos_as_xyz
'x, y, z'
_cell_length_a     45.747458
_cell_length_b     44.161485
_cell_length_c     83.081174
_cell_angle_alpha  93.936336
_cell_angle_beta   90.729297
_cell_angle_gamma 108.28089
loop_
_atom_site_label
_atom_site_type_symbol
_atom_site_fract_x
_atom_site_fract_y
_atom_site_fract_z
_atom_type_partial_charge
Nd0 Nd 0.07158 0.53711 0.14426 0.0
Nd1 Nd 0.05096 0.46574 0.14819 0.0
C2 C 0.09906 0.59595 0.13606 0.0
C3 C 0.12929 0.61997 0.13989 0.0
C4 C 0.13668 0.64992 0.13355 0.0
C5 C 0.16498 0.67328 0.13767 0.0
C6 C 0.18632 0.66705 0.14826 0.0
C7 C 0.1789 0.63671 0.15439 0.0
C8 C 0.15064 0.61339 0.15024 0.0
C9 C 0.0632 0.52135 0.1756 0.0
C10 C 0.12465 0.49941 0.14637 0.0
C11 C 1.02501 0.40747 0.15749 0.0
C12 C 0.99413 0.38591 0.16067 0.0
C13 C 0.97146 0.39763 0.16745 0.0
C14 C 0.94256 0.37652 0.17072 0.0
C15 C 0.93577 0.34336 0.16713 0.0
C16 C 0.95844 0.33186 0.16012 0.0
C17 C 0.98734 0.35294 0.15695 0.0
C18 C 0.06108 0.4824 0.11715 0.0
C19 C 0.99803 0.50247 0.14364 0.0
O20 O 0.09924 0.57033 0.12722 0.0
O21 O 0.08059 0.58942 0.14812 0.0
O22 O 0.05605 0.54481 0.16992 0.0
O23 O 0.07584 0.50814 0.16511 0.0
O24 O 0.11755 0.52491 0.1424 0.0
O25 O 0.10316 0.47385 0.1509 0.0
O26 O 1.03632 0.43277 0.16757 0.0
O27 O 1.03067 0.41335 0.14244 0.0
O28 O 0.06858 0.459 0.12277 0.0
O29 O 0.04752 0.49477 0.1275 0.0
O30 O 1.00504 0.47851 0.14978 0.0
O31 O 1.0199 0.52665 0.13819 0.0
H32 H 0.12041 0.65539 0.12557 0.0
H33 H 0.16982 0.69648 0.13288 0.0
H34 H 0.19495 0.63097 0.16239 0.0
H35 H 0.14532 0.59032 0.15522 0.0
H36 H 0.97611 0.42305 0.1703 0.0
H37 H 0.92548 0.38614 0.17596 0.0
H38 H 0.95407 0.30645 0.15739 0.0
H39 H 1.00453 0.34344 0.15171 0.0
Nd40 Nd 0.51253 0.00508 0.51365 0.0
Nd41 Nd 0.57944 0.02539 0.50568 0.0
C42 C 0.45715 0.97506 0.52384 0.0
C43 C 0.4357 0.94283 0.51951 0.0
C44 C 0.4084 0.93125 0.52777 0.0
C45 C 0.38758 0.90098 0.52318 0.0
C46 C 0.39372 0.88194 0.51018 0.0
C47 C 0.42148 0.89345 0.50218 0.0
C48 C 0.44231 0.92359 0.50682 0.0
C49 C 0.52329 0.01015 0.48136 0.0
C50 C 0.54805 0.9507 0.5082 0.0
C51 C 0.63384 0.05198 0.49336 0.0
C52 C 0.65693 0.08389 0.49211 0.0
C53 C 0.65517 0.10243 0.47924 0.0
C54 C 0.67808 0.13155 0.47751 0.0
C55 C 0.70341 0.14277 0.48854 0.0
C56 C 0.70494 0.12442 0.50152 0.0
C57 C 0.68204 0.0953 0.50325 0.0
C58 C 0.56902 0.01868 0.53785 0.0
C59 C 0.54464 0.08009 0.51365 0.0
O60 O 0.48261 0.97621 0.53155 0.0
O61 O 0.4619 0.99472 0.51238 0.0
O62 O 0.5021 0.01905 0.48857 0.0
O63 O 0.53704 0.99785 0.49092 0.0
O64 O 0.52596 0.95929 0.51531 0.0
O65 O 0.57013 0.97147 0.5009 0.0
O66 O 0.6077 0.0455 0.48515 0.0
O67 O 0.63044 0.04057 0.50758 0.0
O68 O 0.5901 0.01 0.53031 0.0
O69 O 0.55516 0.03173 0.52869 0.0
O70 O 0.56677 0.0724 0.50593 0.0
O71 O 0.52248 0.05828 0.52034 0.0
H72 H 0.403 0.94578 0.53761 0.0
H73 H 0.36628 0.89285 0.52949 0.0
H74 H 0.42705 0.87918 0.49227 0.0
H75 H 0.46344 0.93207 0.50038 0.0
H76 H 0.63637 0.09419 0.47031 0.0
H77 H 0.67639 0.14482 0.46724 0.0
H78 H 0.72394 0.13251 0.51035 0.0
H79 H 0.68427 0.08151 0.51323 0.0
Nd80 Nd 0.50755 0.48079 0.82932 0.0
Nd81 Nd 0.56969 0.51232 0.84646 0.0
C82 C 0.45965 0.46541 0.80888 0.0
C83 C 0.44706 0.48391 0.79834 0.0
C84 C 0.41573 0.47298 0.79383 0.0
C85 C 0.40244 0.49281 0.78613 0.0
C86 C 0.42031 0.52398 0.78295 0.0
C87 C 0.45218 0.53398 0.7865 0.0
C88 C 0.46548 0.51404 0.79412 0.0
C89 C 0.50763 0.47914 0.86234 0.0
C90 C 0.5314 0.55819 0.83847 0.0
C91 C 0.6208 0.53051 0.86463 0.0
C92 C 0.65274 0.531 0.86169 0.0
C93 C 0.66276 0.50499 0.86509 0.0
C94 C 0.69249 0.50501 0.86131 0.0
C95 C 0.71252 0.5309 0.85395 0.0
C96 C 0.70268 0.55707 0.85086 0.0
C97 C 0.67323 0.55721 0.85475 0.0
C98 C 0.57065 0.51351 0.81349 0.0
C99 C 0.54507 0.43335 0.83779 0.0
O100 O 0.4864 0.46271 0.80503 0.0
O101 O 0.45774 0.47182 0.82437 0.0
O102 O 0.4912 0.45547 0.85258 0.0
O103 O 0.5217 0.50269 0.8547 0.0
O104 O 0.51713 0.53512 0.82741 0.0
O105 O 0.54848 0.55261 0.8501 0.0
O106 O 0.59991 0.50249 0.86522 0.0
O107 O 0.61099 0.55012 0.85664 0.0
O108 O 0.58798 0.53639 0.82322 0.0
O109 O 0.55589 0.49034 0.82115 0.0
O110 O 0.56439 0.45816 0.84635 0.0
O111 O 0.52231 0.43627 0.8288 0.0
H112 H 0.40124 0.4498 0.79703 0.0
H113 H 0.37775 0.48459 0.78377 0.0
H114 H 0.4665 0.5578 0.78413 0.0
H115 H 0.48984 0.52277 0.7974 0.0
H116 H 0.64757 0.48453 0.87052 0.0
H117 H 0.69972 0.48472 0.86398 0.0
H118 H 0.71799 0.57779 0.84566 0.0
H119 H 0.66648 0.57785 0.85218 0.0
C120 C 0.56204 0.04378 0.30164 0.0
C121 C 0.55849 0.01589 0.30966 0.0
C122 C 0.56315 0.04299 0.28481 0.0
C123 C 0.56049 0.01424 0.27563 0.0
C124 C 0.55709 0.9864 0.28366 0.0
C125 C 0.55621 0.98724 0.30049 0.0
C126 C 0.5609 0.01318 0.25773 0.0
C127 C 0.58257 0.03713 0.24998 0.0
C128 C 0.58322 0.03618 0.23304 0.0
C129 C 0.5616 0.01096 0.22379 0.0
C130 C 0.53952 0.98689 0.23138 0.0
C131 C 0.5395 0.98821 0.24834 0.0
C132 C 0.51572 0.9607 0.22185 0.0
C133 C 0.49896 0.96731 0.209 0.0
C134 C 0.50806 0.92913 0.22635 0.0
C135 C 0.4834 0.90499 0.21867 0.0
C136 C 0.46565 0.9118 0.20632 0.0
C137 C 0.60709 0.0614 0.22525 0.0
C138 C 0.61299 0.09375 0.23047 0.0
C139 C 0.62545 0.05328 0.21335 0.0
C140 C 0.65006 0.07696 0.2073 0.0
C141 C 0.65665 0.10931 0.21291 0.0
C142 C 0.63733 0.11742 0.22431 0.0
C143 C 0.47414 0.94312 0.20132 0.0
H144 H 0.56411 0.06627 0.30839 0.0
H145 H 0.56557 0.06478 0.27896 0.0
H146 H 0.55527 0.96396 0.27692 0.0
H147 H 0.55319 0.9653 0.3063 0.0
H148 H 0.59957 0.05614 0.25716 0.0
H149 H 0.52212 0.97021 0.25428 0.0
H150 H 0.56192 0.01012 0.21073 0.0
H151 H 0.50416 0.99146 0.20534 0.0
H152 H 0.5209 0.92317 0.23603 0.0
H153 H 0.47798 0.881 0.22257 0.0
H154 H 0.59891 0.10073 0.23947 0.0
H155 H 0.62156 0.02848 0.20921 0.0
H156 H 0.46086 0.94927 0.19193 0.0
H157 H 0.64115 0.1421 0.22863 0.0
H158 H 0.66458 0.0697 0.19866 0.0
C159 C 0.54029 0.54475 0.63373 0.0
C160 C 0.55824 0.52911 0.64149 0.0
C161 C 0.53949 0.54479 0.61689 0.0
C162 C 0.55698 0.52957 0.60749 0.0
C163 C 0.57566 0.51481 0.6154 0.0
C164 C 0.57607 0.51435 0.63219 0.0
C165 C 0.55492 0.52808 0.58951 0.0
C166 C 0.5519 0.55394 0.58146 0.0
C167 C 0.5486 0.55214 0.5645 0.0
C168 C 0.54917 0.52403 0.55553 0.0
C169 C 0.55312 0.49833 0.56341 0.0
C170 C 0.55551 0.50043 0.58033 0.0
C171 C 0.55471 0.46881 0.55433 0.0
C172 C 0.53114 0.45124 0.54319 0.0
C173 C 0.57864 0.45649 0.55798 0.0
C174 C 0.57842 0.42665 0.55116 0.0
C175 C 0.55413 0.40826 0.5406 0.0
C176 C 0.54517 0.58006 0.5564 0.0
C177 C 0.52823 0.59872 0.5636 0.0
C178 C 0.55992 0.58932 0.54193 0.0
C179 C 0.55867 0.61717 0.5352 0.0
C180 C 0.54294 0.63646 0.54289 0.0
C181 C 0.52736 0.62668 0.55702 0.0
C182 C 0.53074 0.4211 0.53646 0.0
H183 H 0.52617 0.55612 0.64065 0.0
H184 H 0.5245 0.55601 0.61125 0.0
H185 H 0.59001 0.50351 0.60863 0.0
H186 H 0.59046 0.50254 0.63792 0.0
H187 H 0.55277 0.57585 0.58845 0.0
H188 H 0.55714 0.47997 0.58634 0.0
H189 H 0.54671 0.52212 0.54248 0.0
H190 H 0.51236 0.46016 0.54024 0.0
H191 H 0.59714 0.46964 0.56649 0.0
H192 H 0.59662 0.41738 0.55472 0.0
H193 H 0.51586 0.59194 0.5745 0.0
H194 H 0.57338 0.57575 0.5361 0.0
H195 H 0.51185 0.40759 0.52826 0.0
H196 H 0.51462 0.64083 0.56304 0.0
H197 H 0.57099 0.62427 0.52432 0.0
C198 C 0.14892 0.65243 0.96416 0.0
C199 C 0.1487 0.62105 0.96644 0.0
C200 C 0.15045 0.66325 0.94868 0.0
C201 C 0.15243 0.64318 0.93519 0.0
C202 C 0.15414 0.61258 0.93747 0.0
C203 C 0.15211 0.60154 0.95292 0.0
C204 C 0.14877 0.65244 0.91868 0.0
C205 C 0.16923 0.64967 0.90663 0.0
C206 C 0.16351 0.65505 0.89057 0.0
C207 C 0.13685 0.66278 0.88672 0.0
C208 C 0.11573 0.66476 0.89853 0.0
C209 C 0.1225 0.66063 0.91461 0.0
C210 C 0.08493 0.66649 0.89357 0.0
C211 C 0.08136 0.68328 0.88024 0.0
C212 C 0.05837 0.64782 0.90086 0.0
C213 C 1.02917 0.64453 0.89443 0.0
C214 C 1.02587 0.65937 0.88044 0.0
C215 C 0.1842 0.65092 0.87754 0.0
C216 C 0.21637 0.66203 0.88005 0.0
C217 C 0.17175 0.6362 0.86232 0.0
C218 C 0.19096 0.63328 0.84982 0.0
C219 C 0.22304 0.64451 0.85232 0.0
C220 C 0.23562 0.65871 0.86756 0.0
C221 C 0.05208 0.67934 0.87358 0.0
H222 H 0.14713 0.66845 0.97429 0.0
H223 H 0.14925 0.68702 0.9472 0.0
H224 H 0.15525 0.59651 0.92721 0.0
H225 H 0.15164 0.57714 0.95411 0.0
H226 H 0.18904 0.64245 0.9097 0.0
H227 H 0.10645 0.66206 0.92389 0.0
H228 H 0.13193 0.66591 0.87428 0.0
H229 H 0.10122 0.69846 0.87454 0.0
H230 H 0.05998 0.634 0.91091 0.0
H231 H 1.0092 0.6287 0.8998 0.0
H232 H 0.22669 0.6737 0.89157 0.0
H233 H 0.14708 0.62654 0.86007 0.0
H234 H 0.04991 0.69113 0.86283 0.0
H235 H 0.26035 0.66755 0.86977 0.0
H236 H 0.18069 0.62158 0.83829 0.0
C237 C 1.02857 0.49 0.35506 0.0
C238 C 0.05568 0.49189 0.34683 0.0
C239 C 1.0285 0.49078 0.37191 0.0
C240 C 0.05558 0.49367 0.38091 0.0
C241 C 0.08261 0.4952 0.37269 0.0
C242 C 0.08264 0.49421 0.35583 0.0
C243 C 0.05576 0.49576 0.39885 0.0
C244 C 1.03161 0.47538 0.407 0.0
C245 C 1.03111 0.47772 0.42396 0.0
C246 C 0.05556 0.50073 0.43279 0.0
C247 C 0.08009 0.52129 0.42482 0.0
C248 C 0.07982 0.51861 0.40785 0.0
C249 C 0.10573 0.54625 0.434 0.0
C250 C 0.09996 0.56439 0.44747 0.0
C251 C 0.13613 0.55322 0.42881 0.0
C252 C 0.15988 0.57849 0.43642 0.0
C253 C 0.15393 0.59727 0.44952 0.0
C254 C 1.00497 0.45593 0.43226 0.0
C255 C 0.9747 0.4481 0.42582 0.0
C256 C 1.01004 0.44191 0.44629 0.0
C257 C 0.98554 0.41996 0.45344 0.0
C258 C 0.95539 0.4115 0.44672 0.0
C259 C 0.9503 0.42611 0.4329 0.0
C260 C 0.12384 0.58958 0.45518 0.0
H261 H 1.00737 0.4879 0.34846 0.0
H262 H 1.00736 0.48979 0.3779 0.0
H263 H 0.10377 0.49715 0.37929 0.0
H264 H 0.10395 0.49597 0.34985 0.0
H265 H 1.01341 0.45719 0.40007 0.0
H266 H 0.09795 0.53505 0.40155 0.0
H267 H 0.05542 0.50272 0.44586 0.0
H268 H 0.07681 0.55992 0.45171 0.0
H269 H 0.14158 0.5393 0.41872 0.0
H270 H 0.18294 0.58347 0.43197 0.0
H271 H 0.96984 0.45881 0.41518 0.0
H272 H 1.03306 0.44723 0.45153 0.0
H273 H 0.11853 0.60379 0.46519 0.0
H274 H 0.92753 0.41997 0.42724 0.0
H275 H 0.99029 0.40951 0.46419 0.0
C276 C 0.5451 0.97788 0.7167 0.0
C277 C 0.56228 0.00602 0.70997 0.0
C278 C 0.54505 0.97605 0.73344 0.0
C279 C 0.56268 1.00213 0.74383 0.0
C280 C 0.58044 0.03005 0.73694 0.0
C281 C 0.57995 0.03208 0.72022 0.0
C282 C 0.56174 1.00055 0.76173 0.0
C283 C 0.55847 0.97165 0.76876 0.0
C284 C 0.55543 0.96935 0.78554 0.0
C285 C 0.55704 0.99715 0.79546 0.0
C286 C 0.56155 0.02657 0.78867 0.0
C287 C 0.56333 0.02782 0.77187 0.0
C288 C 0.56402 0.05646 0.79876 0.0
C289 C 0.54084 0.05814 0.80937 0.0
C290 C 0.58826 0.0845 0.79647 0.0
C291 C 0.5887 0.11385 0.80408 0.0
C292 C 0.56475 0.11596 0.81407 0.0
C293 C 0.55065 0.93773 0.79239 0.0
C294 C 0.53285 0.90929 0.78365 0.0
C295 C 0.56466 0.93536 0.80725 0.0
C296 C 0.5617 0.90534 0.81291 0.0
C297 C 0.54498 0.87706 0.80376 0.0
C298 C 0.53031 0.87943 0.78918 0.0
C299 C 0.54108 0.08767 0.81688 0.0
H300 H 0.53108 0.95755 0.70902 0.0
H301 H 0.53058 0.95438 0.7382 0.0
H302 H 0.59486 0.0504 0.74444 0.0
H303 H 0.59366 0.05391 0.71527 0.0
H304 H 0.55872 0.95088 0.76112 0.0
H305 H 0.56513 0.05016 0.76668 0.0
H306 H 0.55482 0.99603 0.80839 0.0
H307 H 0.52181 0.03691 0.81127 0.0
H308 H 0.60647 0.08385 0.78837 0.0
H309 H 0.6071 0.13514 0.80152 0.0
H310 H 0.52094 0.91001 0.77241 0.0
H311 H 0.57871 0.95662 0.81428 0.0
H312 H 0.52243 0.08849 0.82462 0.0
H313 H 0.5168 0.85807 0.78201 0.0
H314 H 0.57334 0.9042 0.82418 0.0
C315 C 0.56163 0.46632 0.04272 0.0
C316 C 0.54985 0.48733 0.03477 0.0
C317 C 0.56386 0.46809 0.0596 0.0
C318 C 0.55398 0.49063 0.06889 0.0
C319 C 0.54219 0.51162 0.06093 0.0
C320 C 0.54031 0.51011 0.04406 0.0
C321 C 0.55562 0.49204 0.08682 0.0
C322 C 0.58242 0.49157 0.09503 0.0
C323 C 0.5845 0.4931 0.11198 0.0
C324 C 0.55864 0.49498 0.12087 0.0
C325 C 0.53104 0.49462 0.11264 0.0
C326 C 0.53018 0.49348 0.0957 0.0
C327 C 0.50189 0.49399 0.12088 0.0
C328 C 0.47582 0.46661 0.11846 0.0
C329 C 0.49777 0.52215 0.12798 0.0
C330 C 0.46817 0.52311 0.13203 0.0
C331 C 0.4418 0.49593 0.12909 0.0
C332 C 0.61397 0.49172 0.11956 0.0
C333 C 0.62323 0.4645 0.11618 0.0
C334 C 0.63561 0.51916 0.12723 0.0
C335 C 0.66608 0.51972 0.13077 0.0
C336 C 0.67582 0.49284 0.1267 0.0
C337 C 0.65347 0.46494 0.11978 0.0
C338 C 0.44636 0.46748 0.12257 0.0
H339 H 0.56934 0.44865 0.03588 0.0
H340 H 0.57285 0.45146 0.06539 0.0
H341 H 0.53459 0.52938 0.06777 0.0
H342 H 0.53088 0.52644 0.03829 0.0
H343 H 0.60212 0.49045 0.08816 0.0
H344 H 0.50919 0.4931 0.08935 0.0
H345 H 0.55966 0.49572 0.13393 0.0
H346 H 0.47805 0.44478 0.11263 0.0
H347 H 0.51721 0.54386 0.12963 0.0
H348 H 0.46591 0.54542 0.13719 0.0
H349 H 0.60727 0.4431 0.11009 0.0
H350 H 0.62949 0.54078 0.12964 0.0
H351 H 0.42692 0.44611 0.11984 0.0
H352 H 0.65944 0.44343 0.11678 0.0
H353 H 0.68237 0.5418 0.13597 0.0
H354 H 0.17529 0.548 0.13795 0.0
H355 H 0.2285 0.54804 0.13559 0.0
H356 H 0.20248 0.45144 0.14991 0.0
H357 H 0.14915 0.45139 0.15253 0.0
H358 H 0.256 0.48483 0.16433 0.0
H359 H 0.21614 0.47049 0.10973 0.0
H360 H 0.19093 0.48363 0.08597 0.0
H361 H 0.26259 0.57379 0.08559 0.0
H362 H 0.28798 0.56143 0.10954 0.0
H363 H 0.39148 0.44947 0.13996 0.0
H364 H 0.33883 0.45069 0.14306 0.0
H365 H 0.36571 0.54692 0.12823 0.0
H366 H 0.41828 0.54549 0.12455 0.0
H367 H 0.31187 0.51426 0.11407 0.0
H368 H 0.35151 0.52909 0.16862 0.0
H369 H 0.37649 0.5167 0.19267 0.0
H370 H 0.30524 0.42626 0.19321 0.0
H371 H 0.28005 0.43793 0.16902 0.0
C372 C 0.18075 0.52669 0.14063 0.0
C373 C 0.15755 0.49962 0.14539 0.0
C374 C 0.21137 0.5267 0.13918 0.0
C375 C 0.21985 0.49956 0.1423 0.0
C376 C 0.19684 0.47273 0.14735 0.0
C377 C 0.16617 0.4727 0.14882 0.0
C378 C 0.25254 0.49918 0.14033 0.0
C379 C 0.26798 0.49084 0.15323 0.0
C380 C 0.26887 0.50778 0.12603 0.0
C381 C 0.25381 0.51516 0.11154 0.0
C382 C 0.22641 0.49322 0.10466 0.0
C383 C 0.2121 0.50052 0.09115 0.0
C384 C 0.22511 0.52956 0.0843 0.0
C385 C 0.25251 0.55132 0.09093 0.0
C386 C 0.26688 0.54418 0.10447 0.0
C387 C 0.38634 0.47094 0.13727 0.0
C388 C 0.40963 0.4974 0.132 0.0
C389 C 0.35604 0.47171 0.13922 0.0
C390 C 0.3479 0.49904 0.13608 0.0
C391 C 0.37106 0.52549 0.13081 0.0
C392 C 0.40141 0.52476 0.12888 0.0
C393 C 0.31532 0.49983 0.13807 0.0
C394 C 0.2999 0.50826 0.12517 0.0
C395 C 0.29899 0.49135 0.15237 0.0
C396 C 0.31407 0.48425 0.16691 0.0
C397 C 0.3413 0.50645 0.17379 0.0
C398 C 0.35547 0.49958 0.18746 0.0
C399 C 0.34251 0.47068 0.19444 0.0
C400 C 0.31529 0.44862 0.18778 0.0
C401 C 0.30104 0.45536 0.1741 0.0
H402 H 0.35351 0.4654 0.20502 0.0
H403 H 0.21399 0.53517 0.07384 0.0
H404 H 0.76553 0.15409 0.49247 0.0
H405 H 0.80713 0.20261 0.48762 0.0
H406 H 0.74052 0.2479 0.47404 0.0
H407 H 0.69865 0.19939 0.47898 0.0
H408 H 0.78495 0.25689 0.45275 0.0
H409 H 0.78122 0.26973 0.51002 0.0
H410 H 0.78034 0.25424 0.538 0.0
H411 H 0.86979 0.24303 0.53319 0.0
H412 H 0.87102 0.258 0.50508 0.0
H413 H 0.89541 0.4106 0.4498 0.0
H414 H 0.85207 0.36746 0.45873 0.0
H415 H 0.91309 0.31325 0.4685 0.0
H416 H 0.95649 0.35585 0.45919 0.0
H417 H 0.87019 0.31124 0.49259 0.0
H418 H 0.8717 0.29561 0.43462 0.0
H419 H 0.87219 0.31186 0.4068 0.0
H420 H 0.78579 0.32937 0.41344 0.0
H421 H 0.78503 0.31367 0.44141 0.0
C422 C 0.75966 0.17453 0.48872 0.0
C423 C 0.7287 0.17284 0.48617 0.0
C424 C 0.78351 0.20228 0.48592 0.0
C425 C 0.77698 0.22906 0.48063 0.0
C426 C 0.74612 0.22753 0.47812 0.0
C427 C 0.72222 0.19975 0.4809 0.0
C428 C 0.80242 0.25811 0.47708 0.0
C429 C 0.80327 0.2691 0.46158 0.0
C430 C 0.8267 0.27372 0.48847 0.0
C431 C 0.82608 0.26471 0.50538 0.0
C432 C 0.8006 0.2637 0.51487 0.0
C433 C 0.80005 0.25506 0.53077 0.0
C434 C 0.82496 0.24758 0.53735 0.0
C435 C 0.8505 0.24879 0.52806 0.0
C436 C 0.85114 0.25739 0.51215 0.0
C437 C 0.89967 0.38948 0.45379 0.0
C438 C 0.92949 0.38664 0.45361 0.0
C439 C 0.87487 0.36492 0.45897 0.0
C440 C 0.87933 0.33703 0.46412 0.0
C441 C 0.90917 0.33461 0.4646 0.0
C442 C 0.93399 0.35909 0.45932 0.0
C443 C 0.85267 0.30977 0.46829 0.0
C444 C 0.85167 0.29912 0.48386 0.0
C445 C 0.82815 0.29454 0.457 0.0
C446 C 0.82848 0.30381 0.44016 0.0
C447 C 0.85294 0.30319 0.4302 0.0
C448 C 0.85325 0.31225 0.41439 0.0
C449 C 0.82908 0.32173 0.40837 0.0
C450 C 0.80452 0.32208 0.41813 0.0
C451 C 0.80413 0.31308 0.43396 0.0
H452 H 0.82936 0.32873 0.39612 0.0
H453 H 0.82451 0.2409 0.54966 0.0
H454 H 0.56411 0.61306 0.85637 0.0
H455 H 0.56479 0.66774 0.85275 0.0
H456 H 0.49685 0.6329 0.81372 0.0
H457 H 0.49597 0.57808 0.81727 0.0
H458 H 0.58156 0.70174 0.82684 0.0
H459 H 0.45181 0.68428 0.81355 0.0
H460 H 0.40088 0.64975 0.82118 0.0
H461 H 0.44097 0.63106 0.86485 0.0
H462 H 0.4919 0.6662 0.8578 0.0
H463 H 0.55621 0.82809 0.78588 0.0
H464 H 0.55308 0.77501 0.79413 0.0
H465 H 0.52683 0.8003 0.84157 0.0
H466 H 0.53033 0.85382 0.83341 0.0
H467 H 0.48943 0.73824 0.82712 0.0
H468 H 0.59494 0.79912 0.83937 0.0
H469 H 0.64641 0.83536 0.83388 0.0
H470 H 0.65581 0.76867 0.79576 0.0
H471 H 0.60415 0.73222 0.80086 0.0
C472 C 0.54904 0.61693 0.84712 0.0
C473 C 0.52998 0.59109 0.83711 0.0
C474 C 0.54958 0.64827 0.84502 0.0
C475 C 0.53083 0.65451 0.833 0.0
C476 C 0.51131 0.62871 0.82319 0.0
C477 C 0.5109 0.59735 0.82521 0.0
C478 C 0.53268 0.68807 0.83032 0.0
C479 C 0.56138 0.70965 0.82693 0.0
C480 C 0.50645 0.69865 0.83064 0.0
C481 C 0.4758 0.67758 0.83502 0.0
C482 C 0.44976 0.6729 0.8248 0.0
C483 C 0.42089 0.65323 0.82902 0.0
C484 C 0.41776 0.63803 0.84339 0.0
C485 C 0.44345 0.64268 0.85366 0.0
C486 C 0.47233 0.6625 0.84957 0.0
C487 C 0.54972 0.82233 0.79806 0.0
C488 C 0.54348 0.84508 0.809 0.0
C489 C 0.54803 0.79204 0.80277 0.0
C490 C 0.53972 0.78371 0.81846 0.0
C491 C 0.53322 0.80625 0.8294 0.0
C492 C 0.53542 0.83682 0.82477 0.0
C493 C 0.53814 0.75149 0.82335 0.0
C494 C 0.50953 0.7302 0.82708 0.0
C495 C 0.56447 0.74122 0.82352 0.0
C496 C 0.59553 0.76309 0.8204 0.0
C497 C 0.60785 0.79231 0.82971 0.0
C498 C 0.63709 0.81287 0.8267 0.0
C499 C 0.65434 0.80436 0.81445 0.0
C500 C 0.6424 0.77525 0.80523 0.0
C501 C 0.61315 0.75462 0.80818 0.0
H502 H 0.67698 0.8203 0.81214 0.0
H503 H 0.39539 0.62276 0.8466 0.0
H504 H 0.9459 0.45541 0.15205 0.0
H505 H 0.89202 0.45378 0.14939 0.0
H506 H 0.92086 0.54637 0.13014 0.0
H507 H 0.97463 0.54784 0.13246 0.0
H508 H 0.85834 0.48684 0.16182 0.0
H509 H 0.86696 0.55377 0.10361 0.0
H510 H 0.89779 0.56231 0.0792 0.0
H511 H 0.91626 0.47369 0.08364 0.0
H512 H 0.88519 0.46438 0.10794 0.0
H513 H 0.71905 0.52563 0.15086 0.0
H514 H 0.773 0.52783 0.15386 0.0
H515 H 0.76254 0.46455 0.11082 0.0
H516 H 0.70923 0.4634 0.10732 0.0
H517 H 0.81544 0.50731 0.11007 0.0
H518 H 0.76497 0.43988 0.15075 0.0
H519 H 0.73299 0.42489 0.1744 0.0
H520 H 0.79551 0.50329 0.2034 0.0
H521 H 0.82768 0.51899 0.17986 0.0
C522 C 0.94086 0.47546 0.14723 0.0
C523 C 0.96493 0.50168 0.14239 0.0
C524 C 0.90987 0.47455 0.14575 0.0
C525 C 0.90188 0.49974 0.13935 0.0
C526 C 0.92597 0.52622 0.13482 0.0
C527 C 0.95693 0.52711 0.13623 0.0
C528 C 0.86854 0.49823 0.13731 0.0
C529 C 0.8491 0.49145 0.1505 0.0
C530 C 0.85579 0.50354 0.12249 0.0
C531 C 0.874 0.50857 0.1077 0.0
C532 C 0.87748 0.53603 0.09933 0.0
C533 C 0.89502 0.54102 0.08552 0.0
C534 C 0.90907 0.51861 0.07991 0.0
C535 C 0.90546 0.49108 0.08804 0.0
C536 C 0.88791 0.48595 0.10184 0.0
C537 C 0.72817 0.51233 0.14192 0.0
C538 C 0.70915 0.49408 0.1289 0.0
C539 C 0.75917 0.51334 0.14377 0.0
C540 C 0.77222 0.49599 0.13272 0.0
C541 C 0.75341 0.47813 0.11962 0.0
C542 C 0.72251 0.47718 0.11774 0.0
C543 C 0.80531 0.49643 0.13467 0.0
C544 C 0.82472 0.50294 0.12144 0.0
C545 C 0.81783 0.49014 0.14934 0.0
C546 C 0.79855 0.48079 0.16351 0.0
C547 C 0.77177 0.45406 0.16214 0.0
C548 C 0.75363 0.44542 0.17553 0.0
C549 C 0.76216 0.46318 0.19038 0.0
C550 C 0.7889 0.48958 0.19188 0.0
C551 C 0.80711 0.49835 0.17852 0.0
H552 H 0.7481 0.45645 0.20073 0.0
H553 H 0.92269 0.52256 0.06924 0.0
H554 H 0.36063 0.83425 0.52843 0.0
H555 H 0.32084 0.78425 0.51898 0.0
H556 H 0.33525 0.80932 0.46977 0.0
H557 H 0.37461 0.85945 0.47915 0.0
H558 H 0.27503 0.79075 0.47619 0.0
H559 H 0.3583 0.7467 0.48156 0.0
H560 H 0.40184 0.73558 0.49498 0.0
H561 H 0.34399 0.69576 0.53356 0.0
H562 H 0.29986 0.7059 0.52012 0.0
H563 H 0.19528 0.64299 0.43366 0.0
H564 H 0.23595 0.69014 0.44526 0.0
H565 H 0.20953 0.66325 0.49319 0.0
H566 H 0.16868 0.61573 0.4816 0.0
H567 H 0.27436 0.68231 0.48879 0.0
H568 H 0.1889 0.72102 0.47998 0.0
H569 H 0.14633 0.72919 0.46421 0.0
H570 H 0.21047 0.78004 0.43049 0.0
H571 H 0.2534 0.77175 0.44593 0.0
C572 C 0.3553 0.82905 0.5156 0.0
C573 C 0.37068 0.85082 0.50454 0.0
C574 C 0.33279 0.80035 0.5102 0.0
C575 C 0.32516 0.79296 0.49365 0.0
C576 C 0.34076 0.8145 0.48259 0.0
C577 C 0.36336 0.84306 0.48796 0.0
C578 C 0.29979 0.76366 0.4879 0.0
C579 C 0.27508 0.76703 0.4788 0.0
C580 C 0.29942 0.73276 0.49161 0.0
C581 C 0.32594 0.72736 0.49994 0.0
C582 C 0.35494 0.73575 0.49296 0.0
C583 C 0.37966 0.72946 0.50052 0.0
C584 C 0.37577 0.71525 0.51519 0.0
C585 C 0.34701 0.70688 0.52222 0.0
C586 C 0.32207 0.71268 0.51459 0.0
C587 C 0.19827 0.64695 0.44667 0.0
C588 C 0.17882 0.62563 0.45673 0.0
C589 C 0.22138 0.674 0.45328 0.0
C590 C 0.22561 0.68028 0.47008 0.0
C591 C 0.20658 0.65883 0.48019 0.0
C592 C 0.18318 0.63186 0.47357 0.0
C593 C 0.24983 0.70945 0.47696 0.0
C594 C 0.27424 0.70607 0.48629 0.0
C595 C 0.25009 0.74036 0.47331 0.0
C596 C 0.22434 0.74551 0.46404 0.0
C597 C 0.1939 0.73371 0.46913 0.0
C598 C 0.16971 0.73841 0.46026 0.0
C599 C 0.17568 0.75506 0.44634 0.0
C600 C 0.20588 0.76712 0.44127 0.0
C601 C 0.23015 0.76246 0.45009 0.0
H602 H 0.15692 0.75867 0.43949 0.0
H603 H 0.39501 0.7106 0.52107 0.0
H604 H 0.50329 0.37581 0.82768 0.0
H605 H 0.50949 0.32292 0.82741 0.0
H606 H 0.60152 0.36468 0.8481 0.0
H607 H 0.59544 0.41807 0.84854 0.0
H608 H 0.5971 0.32055 0.82106 0.0
H609 H 0.54865 0.32493 0.87134 0.0
H610 H 0.50965 0.33442 0.88946 0.0
H611 H 0.43853 0.26087 0.8622 0.0
H612 H 0.47706 0.25129 0.84374 0.0
H613 H 0.61192 0.16675 0.82775 0.0
H614 H 0.61096 0.22099 0.8353 0.0
H615 H 0.51416 0.19193 0.82189 0.0
H616 H 0.51492 0.13763 0.81454 0.0
H617 H 0.5251 0.23155 0.84811 0.0
H618 H 0.57104 0.23123 0.79629 0.0
H619 H 0.6085 0.22239 0.77693 0.0
H620 H 0.68265 0.28866 0.80584 0.0
H621 H 0.64563 0.29755 0.82551 0.0
C622 C 0.52487 0.37387 0.83224 0.0
C623 C 0.54889 0.40124 0.83812 0.0
C624 C 0.5283 0.34353 0.83214 0.0
C625 C 0.55587 0.33981 0.83783 0.0
C626 C 0.58001 0.36703 0.84369 0.0
C627 C 0.57646 0.39748 0.84398 0.0
C628 C 0.55946 0.30745 0.83716 0.0
C629 C 0.58181 0.30121 0.82725 0.0
C630 C 0.53898 0.28208 0.84492 0.0
C631 C 0.51575 0.28755 0.85608 0.0
C632 C 0.52467 0.31094 0.86913 0.0
C633 C 0.50265 0.31631 0.87948 0.0
C634 C 0.47163 0.2983 0.87697 0.0
C635 C 0.46257 0.27482 0.86412 0.0
C636 C 0.4845 0.26938 0.85373 0.0
C637 C 0.59038 0.17189 0.82652 0.0
C638 C 0.56353 0.1479 0.82045 0.0
C639 C 0.58987 0.20293 0.83081 0.0
C640 C 0.56262 0.21079 0.82889 0.0
C641 C 0.53549 0.18654 0.82348 0.0
C642 C 0.53593 0.15543 0.81932 0.0
C643 C 0.5625 0.24445 0.83181 0.0
C644 C 0.54073 0.25094 0.84211 0.0
C645 C 0.58333 0.27003 0.82428 0.0
C646 C 0.60561 0.26475 0.81246 0.0
C647 C 0.59536 0.24372 0.79859 0.0
C648 C 0.6165 0.23873 0.78755 0.0
C649 C 0.64795 0.25487 0.79018 0.0
C650 C 0.6583 0.27611 0.80384 0.0
C651 C 0.63724 0.28114 0.81493 0.0
H652 H 0.66429 0.25099 0.78162 0.0
H653 H 0.45461 0.3025 0.88499 0.0
H654 H 0.58289 0.91938 0.49136 0.0
H655 H 0.5819 0.86381 0.49323 0.0
H656 H 0.51297 0.85181 0.5293 0.0
H657 H 0.51297 0.90633 0.52709 0.0
H658 H 0.59561 0.83424 0.51744 0.0
H659 H 0.46679 0.78048 0.52904 0.0
H660 H 0.41796 0.79002 0.52209 0.0
H661 H 0.45449 0.82617 0.4774 0.0
H662 H 0.50367 0.81713 0.48414 0.0
H663 H 0.55762 0.69432 0.55994 0.0
H664 H 0.55924 0.74582 0.55013 0.0
H665 H 0.53175 0.7004 0.5023 0.0
H666 H 0.5305 0.64863 0.51205 0.0
H667 H 0.49797 0.74363 0.51475 0.0
H668 H 0.60083 0.7413 0.50614 0.0
H669 H 0.65017 0.73383 0.5139 0.0
H670 H 0.66577 0.80953 0.55146 0.0
H671 H 0.61627 0.81712 0.54408 0.0
C672 C 0.56736 0.90474 0.49957 0.0
C673 C 0.54784 0.91723 0.50896 0.0
C674 C 0.56684 0.87303 0.50065 0.0
C675 C 0.54689 0.85335 0.51116 0.0
C676 C 0.52786 0.86608 0.52073 0.0
C677 C 0.52806 0.89746 0.51951 0.0
C678 C 0.54656 0.81989 0.5127 0.0
C679 C 0.5743 0.81441 0.51666 0.0
C680 C 0.51878 0.79386 0.5116 0.0
C681 C 0.48888 0.79809 0.5071 0.0
C682 C 0.46433 0.79024 0.51768 0.0
C683 C 0.43669 0.79579 0.51383 0.0
C684 C 0.43313 0.80863 0.49931 0.0
C685 C 0.45729 0.81619 0.48864 0.0
C686 C 0.48509 0.811 0.4925 0.0
C687 C 0.55184 0.6953 0.54734 0.0
C688 C 0.54387 0.66751 0.53675 0.0
C689 C 0.55289 0.7247 0.54175 0.0
C690 C 0.54568 0.72687 0.5255 0.0
C691 C 0.53739 0.69915 0.51489 0.0
C692 C 0.53684 0.66972 0.52043 0.0
C693 C 0.54692 0.75829 0.51976 0.0
C694 C 0.51933 0.76338 0.51516 0.0
C695 C 0.57483 0.78395 0.52022 0.0
C696 C 0.60472 0.77962 0.52462 0.0
C697 C 0.61466 0.75618 0.51613 0.0
C698 C 0.64268 0.75196 0.52045 0.0
C699 C 0.66107 0.77115 0.53319 0.0
C700 C 0.6515 0.79466 0.54161 0.0
C701 C 0.62348 0.79896 0.53735 0.0
H702 H 0.68276 0.76785 0.53651 0.0
H703 H 0.41162 0.81255 0.49628 0.0
H704 H 0.75419 0.51805 0.87386 0.0
H705 H 0.80989 0.53388 0.87078 0.0
H706 H 0.79873 0.56319 0.82323 0.0
H707 H 0.74293 0.54742 0.82626 0.0
H708 H 0.85555 0.52679 0.8494 0.0
H709 H 0.84744 0.63921 0.82331 0.0
H710 H 0.80957 0.66786 0.81978 0.0
H711 H 0.76804 0.63478 0.86405 0.0
H712 H 0.80597 0.60643 0.86795 0.0
H713 H 1.01012 0.63326 0.8498 0.0
H714 H 0.95771 0.60874 0.83812 0.0
H715 H 0.92077 0.64084 0.88116 0.0
H716 H 0.97302 0.66482 0.89296 0.0
H717 H 0.88995 0.64549 0.85121 0.0
H718 H 0.92734 0.57141 0.88042 0.0
H719 H 0.96422 0.54218 0.88512 0.0
H720 H 0.94641 0.49817 0.83674 0.0
H721 H 0.90977 0.52759 0.83169 0.0
C722 C 0.7635 0.52669 0.86251 0.0
C723 C 0.74445 0.53221 0.85044 0.0
C724 C 0.79531 0.53565 0.86074 0.0
C725 C 0.80834 0.5502 0.8469 0.0
C726 C 0.78904 0.5523 0.83407 0.0
C727 C 0.75727 0.54349 0.83586 0.0
C728 C 0.84146 0.56859 0.8474 0.0
C729 C 0.86319 0.55267 0.84946 0.0
C730 C 0.85132 0.6024 0.84762 0.0
C731 C 0.82931 0.62051 0.84582 0.0
C732 C 0.83034 0.63827 0.83233 0.0
C733 C 0.80886 0.65442 0.83026 0.0
C734 C 0.78636 0.65307 0.84166 0.0
C735 C 0.78544 0.63577 0.85522 0.0
C736 C 0.80693 0.61969 0.85737 0.0
C737 C 0.99079 0.63584 0.85652 0.0
C738 C 0.99535 0.65084 0.87223 0.0
C739 C 0.96099 0.62176 0.84989 0.0
C740 C 0.93555 0.62292 0.85885 0.0
C741 C 0.94022 0.63985 0.87408 0.0
C742 C 0.96993 0.65345 0.8808 0.0
C743 C 0.90401 0.60371 0.85335 0.0
C744 C 0.88252 0.61954 0.85049 0.0
C745 C 0.89442 0.56988 0.85251 0.0
C746 C 0.91616 0.55198 0.85561 0.0
C747 C 0.9315 0.55571 0.87074 0.0
C748 C 0.95232 0.53908 0.87348 0.0
C749 C 0.95773 0.5184 0.86122 0.0
C750 C 0.94225 0.51425 0.84621 0.0
C751 C 0.92147 0.53089 0.84341 0.0
H752 H 0.97385 0.50554 0.86336 0.0
H753 H 0.76968 0.66547 0.84 0.0
H754 H 0.21373 0.68197 0.17847 0.0
H755 H 0.26153 0.7241 0.18691 0.0
H756 H 0.27309 0.75224 0.1381 0.0
H757 H 0.22555 0.70949 0.12946 0.0
H758 H 0.32723 0.75101 0.15194 0.0
H759 H 0.2474 0.7958 0.16581 0.0
H760 H 0.19911 0.79739 0.17814 0.0
H761 H 0.23688 0.79238 0.22509 0.0
H762 H 0.28526 0.79029 0.21301 0.0
H763 H 0.4446 0.89958 0.1746 0.0
H764 H 0.39748 0.859 0.16354 0.0
H765 H 0.37634 0.82641 0.21107 0.0
H766 H 0.42265 0.86743 0.22226 0.0
H767 H 0.32652 0.83186 0.19633 0.0
H768 H 0.4053 0.78459 0.18246 0.0
H769 H 0.45349 0.78233 0.17024 0.0
H770 H 0.41778 0.79177 0.12345 0.0
H771 H 0.36951 0.79452 0.13544 0.0
C772 C 0.22659 0.69686 0.16948 0.0
C773 C 0.21577 0.69237 0.15329 0.0
C774 C 0.25378 0.72115 0.17435 0.0
C775 C 0.2707 0.7416 0.16318 0.0
C776 C 0.26033 0.73684 0.14694 0.0
C777 C 0.23305 0.71256 0.14205 0.0
C778 C 0.29906 0.76804 0.16854 0.0
C779 C 0.32703 0.76901 0.16147 0.0
C780 C 0.29888 0.79119 0.18116 0.0
C781 C 0.26986 0.79261 0.18848 0.0
C782 C 0.24533 0.79479 0.17875 0.0
C783 C 0.21795 0.79582 0.18569 0.0
C784 C 0.2149 0.79492 0.20238 0.0
C785 C 0.23926 0.79305 0.21216 0.0
C786 C 0.26668 0.79197 0.20527 0.0
C787 C 0.42983 0.88387 0.1827 0.0
C788 C 0.43755 0.88667 0.19931 0.0
C789 C 0.40303 0.8605 0.17634 0.0
C790 C 0.38349 0.83942 0.18645 0.0
C791 C 0.39108 0.84231 0.20302 0.0
C792 C 0.41777 0.86561 0.20938 0.0
C793 C 0.35484 0.81461 0.17991 0.0
C794 C 0.32676 0.81399 0.18674 0.0
C795 C 0.35495 0.79179 0.16709 0.0
C796 C 0.38394 0.79012 0.15987 0.0
C797 C 0.40783 0.78646 0.16958 0.0
C798 C 0.43514 0.78504 0.1627 0.0
C799 C 0.43873 0.78701 0.14609 0.0
C800 C 0.41499 0.79031 0.13632 0.0
C801 C 0.38764 0.79178 0.14315 0.0
H802 H 0.45989 0.78589 0.14077 0.0
H803 H 0.19369 0.79572 0.20774 0.0
H804 H 0.5918 0.13307 0.50683 0.0
H805 H 0.59306 0.18897 0.5099 0.0
H806 H 0.50043 0.15973 0.52691 0.0
H807 H 0.49897 0.10375 0.52397 0.0
H808 H 0.51041 0.20571 0.50396 0.0
H809 H 0.55653 0.18927 0.55358 0.0
H810 H 0.59315 0.17259 0.57008 0.0
H811 H 0.66904 0.24158 0.54965 0.0
H812 H 0.63285 0.25838 0.53287 0.0
H813 H 0.50387 0.35452 0.53955 0.0
H814 H 0.5022 0.29917 0.53308 0.0
H815 H 0.59881 0.3313 0.5227 0.0
H816 H 0.60065 0.38675 0.52933 0.0
H817 H 0.58746 0.28368 0.54146 0.0
H818 H 0.54156 0.3017 0.49244 0.0
H819 H 0.50509 0.31794 0.47563 0.0
H820 H 0.42921 0.24601 0.49429 0.0
H821 H 0.46522 0.22962 0.51139 0.0
C822 C 0.57164 0.13848 0.51119 0.0
C823 C 0.54531 0.11393 0.51522 0.0
C824 C 0.57245 0.17045 0.51297 0.0
C825 C 0.54689 0.17847 0.51871 0.0
C826 C 0.52038 0.15402 0.52246 0.0
C827 C 0.51966 0.12206 0.52084 0.0
C828 C 0.54802 0.21243 0.52109 0.0
C829 C 0.52702 0.22274 0.51228 0.0
C830 C 0.57017 0.23471 0.53166 0.0
C831 C 0.59198 0.22486 0.54185 0.0
C832 C 0.58103 0.20071 0.55251 0.0
C833 C 0.60171 0.19126 0.56194 0.0
C834 C 0.6334 0.20595 0.56088 0.0
C835 C 0.64448 0.23019 0.55044 0.0
C836 C 0.6239 0.23971 0.54098 0.0
C837 C 0.52461 0.34985 0.53557 0.0
C838 C 0.55238 0.37503 0.53493 0.0
C839 C 0.52365 0.31816 0.5319 0.0
C840 C 0.55034 0.311 0.52729 0.0
C841 C 0.57794 0.33618 0.52628 0.0
C842 C 0.57895 0.36786 0.53005 0.0
C843 C 0.54983 0.2772 0.5243 0.0
C844 C 0.57093 0.26682 0.53304 0.0
C845 C 0.52781 0.25489 0.51362 0.0
C846 C 0.50609 0.26463 0.50331 0.0
C847 C 0.51709 0.28951 0.49306 0.0
C848 C 0.4965 0.29871 0.48345 0.0
C849 C 0.46485 0.28307 0.48392 0.0
C850 C 0.45373 0.25813 0.49395 0.0
C851 C 0.47422 0.24885 0.50359 0.0
H852 H 0.44895 0.29023 0.47647 0.0
H853 H 0.64937 0.1986 0.56818 0.0
H854 H 0.37359 0.51618 0.76042 0.0
H855 H 0.33839 0.548 0.76011 0.0
H856 H 0.3958 0.61497 0.79681 0.0
H857 H 0.43097 0.584 0.79689 0.0
H858 H 0.30695 0.54868 0.78446 0.0
H859 H 0.38067 0.6825 0.80345 0.0
H860 H 0.42707 0.72242 0.7944 0.0
H861 H 0.41441 0.67243 0.74737 0.0
H862 H 0.3677 0.63228 0.75605 0.0
H863 H 0.26992 0.61935 0.85419 0.0
H864 H 0.30047 0.60752 0.8321 0.0
H865 H 0.25205 0.64722 0.79878 0.0
H866 H 0.22097 0.65886 0.82089 0.0
H867 H 0.32505 0.66431 0.79828 0.0
H868 H 0.22902 0.5805 0.79124 0.0
H869 H 0.18294 0.53994 0.80033 0.0
H870 H 0.24005 0.49089 0.82108 0.0
H871 H 0.28652 0.53148 0.81236 0.0
C872 C 0.37922 0.53841 0.76794 0.0
C873 C 0.40472 0.54734 0.77886 0.0
C874 C 0.35916 0.55662 0.76773 0.0
C875 C 0.36417 0.58382 0.77855 0.0
C876 C 0.39148 0.5945 0.78816 0.0
C877 C 0.41166 0.57657 0.78824 0.0
C878 C 0.33842 0.59634 0.78274 0.0
C879 C 0.31074 0.57407 0.78701 0.0
C880 C 0.34288 0.62949 0.78589 0.0
C881 C 0.37061 0.65415 0.78046 0.0
C882 C 0.38756 0.68006 0.79113 0.0
C883 C 0.41401 0.70273 0.78607 0.0
C884 C 0.42371 0.69995 0.77033 0.0
C885 C 0.40692 0.67451 0.75959 0.0
C886 C 0.38048 0.65173 0.76459 0.0
C887 C 0.26611 0.626 0.84221 0.0
C888 C 0.24314 0.63997 0.83921 0.0
C889 C 0.28344 0.61917 0.82963 0.0
C890 C 0.27833 0.62649 0.81389 0.0
C891 C 0.25623 0.64149 0.81089 0.0
C892 C 0.23849 0.64793 0.82347 0.0
C893 C 0.29528 0.61649 0.80068 0.0
C894 C 0.32111 0.63914 0.79494 0.0
C895 C 0.28912 0.58375 0.79596 0.0
C896 C 0.26126 0.55915 0.80121 0.0
C897 C 0.23177 0.56122 0.79786 0.0
C898 C 0.20557 0.53819 0.80293 0.0
C899 C 0.20856 0.51287 0.81129 0.0
C900 C 0.23777 0.51051 0.81459 0.0
C901 C 0.26404 0.5335 0.80957 0.0
H902 H 0.18826 0.49506 0.8152 0.0
H903 H 0.44421 0.71752 0.76644 0.0
H904 H 0.90394 0.34376 0.19476 0.0
H905 H 0.85541 0.30484 0.20172 0.0
H906 H 0.85089 0.25249 0.15549 0.0
H907 H 0.89922 0.2916 0.14836 0.0
H908 H 0.79434 0.25861 0.16404 0.0
H909 H 0.87508 0.22596 0.18776 0.0
H910 H 0.92215 0.23352 0.20446 0.0
H911 H 0.87742 0.25693 0.24644 0.0
H912 H 0.8302 0.24995 0.22994 0.0
H913 H 0.68093 0.11428 0.18266 0.0
H914 H 0.7274 0.15429 0.1743 0.0
H915 H 0.74075 0.20175 0.22223 0.0
H916 H 0.69547 0.16095 0.23091 0.0
H917 H 0.79308 0.19809 0.21231 0.0
H918 H 0.71264 0.23144 0.18921 0.0
H919 H 0.66548 0.22532 0.17286 0.0
H920 H 0.7089 0.20235 0.13028 0.0
H921 H 0.7562 0.20792 0.14643 0.0
C922 C 0.89241 0.3242 0.186 0.0
C923 C 0.9055 0.32068 0.17104 0.0
C924 C 0.86481 0.30185 0.19003 0.0
C925 C 0.84971 0.27558 0.17919 0.0
C926 C 0.86221 0.27252 0.16406 0.0
C927 C 0.88993 0.29475 0.16005 0.0
C928 C 0.82134 0.25086 0.18381 0.0
C929 C 0.79409 0.24507 0.17447 0.0
C930 C 0.8209 0.23371 0.19763 0.0
C931 C 0.84921 0.23774 0.20759 0.0
C932 C 0.87536 0.23297 0.20053 0.0
C933 C 0.90206 0.23711 0.20996 0.0
C934 C 0.9028 0.24578 0.22649 0.0
C935 C 0.87682 0.25026 0.23363 0.0
C936 C 0.85008 0.24618 0.22425 0.0
C937 C 0.69386 0.13308 0.19147 0.0
C938 C 0.68424 0.13435 0.20746 0.0
C939 C 0.72026 0.15621 0.18661 0.0
C940 C 0.73742 0.18137 0.19757 0.0
C941 C 0.72788 0.18269 0.21352 0.0
C942 C 0.70169 0.15947 0.21842 0.0
C943 C 0.76579 0.20589 0.19262 0.0
C944 C 0.79317 0.2116 0.20188 0.0
C945 C 0.76624 0.22311 0.1788 0.0
C946 C 0.73784 0.21978 0.16906 0.0
C947 C 0.71204 0.22483 0.17639 0.0
C948 C 0.68531 0.22151 0.16715 0.0
C949 C 0.68417 0.21336 0.15055 0.0
C950 C 0.7098 0.20861 0.14314 0.0
C951 C 0.73659 0.21187 0.15233 0.0
H952 H 0.66345 0.2108 0.14342 0.0
H953 H 0.92349 0.24898 0.23377 0.0
H954 H 1.0464 0.53066 0.104 0.0
H955 H 0.06259 0.55313 0.07827 0.0
H956 H 0.11212 0.48548 0.06906 0.0
H957 H 0.09627 0.46312 0.09497 0.0
H958 H 0.14597 0.54619 0.06266 0.0
H959 H 1.04388 0.47429 0.04954 0.0
H960 H 0.98816 0.45182 0.05367 0.0
H961 H 0.97678 0.54314 0.04719 0.0
H962 H 1.03253 0.56627 0.0432 0.0
H963 H 0.17257 0.5784 0.98021 0.0
H964 H 0.15856 0.55363 0.00557 0.0
H965 H 0.09803 0.61012 0.01493 0.0
H966 H 0.11017 0.63326 0.98917 0.0
H967 H 0.06981 0.55235 0.02102 0.0
H968 H 0.17075 0.62522 0.0346 0.0
H969 H 0.22677 0.65005 0.03246 0.0
H970 H 0.24094 0.56028 0.03978 0.0
H971 H 0.18493 0.53474 0.04164 0.0
C972 C 0.06061 0.52049 0.09645 0.0
C973 C 0.06996 0.49506 0.10138 0.0
C974 C 0.06978 0.53328 0.08175 0.0
C975 C 0.08825 0.5207 0.07168 0.0
C976 C 0.09778 0.49542 0.07664 0.0
C977 C 0.08859 0.4826 0.09137 0.0
C978 C 0.09784 0.53424 0.05605 0.0
C979 C 0.1294 0.54713 0.0534 0.0
C980 C 0.0761 0.53613 0.04423 0.0
C981 C 1.04243 0.52205 0.04618 0.0
C982 C 1.02952 0.48961 0.04906 0.0
C983 C 0.99793 0.47676 0.05137 0.0
C984 C 0.97895 0.49606 0.05073 0.0
C985 C 0.99151 0.52822 0.04768 0.0
C986 C 1.02309 0.5412 0.04537 0.0
C987 C 0.15614 0.58546 0.9876 0.0
C988 C 0.14259 0.60795 0.98257 0.0
C989 C 0.14844 0.57153 0.00223 0.0
C990 C 0.12745 0.58022 0.01229 0.0
C991 C 0.11431 0.60302 0.00742 0.0
C992 C 0.12165 0.61661 0.99273 0.0
C993 C 0.11815 0.56479 0.02758 0.0
C994 C 0.08654 0.5514 0.03018 0.0
C995 C 0.1399 0.56274 0.03942 0.0
C996 C 0.17357 0.57796 0.03803 0.0
C997 C 0.18576 0.61067 0.03555 0.0
C998 C 0.21753 0.62489 0.03442 0.0
C999 C 0.23739 0.60672 0.03591 0.0
C1000 C 0.22552 0.5743 0.03856 0.0
C1001 C 0.19376 0.55994 0.03964 0.0
H1002 H 0.26198 0.6178 0.03507 0.0
H1003 H 0.95451 0.48609 0.05256 0.0
H1004 H 0.49626 0.03727 0.45967 0.0
H1005 H 0.50395 0.03882 0.43064 0.0
H1006 H 0.56959 0.98743 0.43458 0.0
H1007 H 0.56244 0.98646 0.46378 0.0
H1008 H 0.5897 0.03448 0.41501 0.0
H1009 H 0.49574 0.94945 0.41997 0.0
H1010 H 0.44336 0.92399 0.42927 0.0
H1011 H 0.41046 0.9901 0.40473 0.0
H1012 H 0.46278 0.01626 0.39547 0.0
H1013 H 0.58694 0.98808 0.33069 0.0
H1014 H 0.58245 0.98787 0.36003 0.0
H1015 H 0.52151 0.04497 0.35828 0.0
H1016 H 0.52551 0.04486 0.32893 0.0
H1017 H 0.49953 0.99388 0.37666 0.0
H1018 H 0.59451 0.07876 0.37179 0.0
H1019 H 0.64706 0.10314 0.36246 0.0
H1020 H 0.6781 0.03534 0.38665 0.0
H1021 H 0.62559 0.01026 0.39595 0.0
C1022 C 0.51233 0.02634 0.45434 0.0
C1023 C 0.52855 0.01152 0.46391 0.0
C1024 C 0.51665 0.02712 0.43775 0.0
C1025 C 0.53696 0.01275 0.43038 0.0
C1026 C 0.55371 0.99854 0.44 0.0
C1027 C 0.54952 0.99792 0.45663 0.0
C1028 C 0.5405 0.01241 0.41263 0.0
C1029 C 0.57004 0.02518 0.40662 0.0
C1030 C 0.51478 1.00077 0.40167 0.0
C1031 C 0.48325 0.98499 0.40715 0.0
C1032 C 0.47739 0.95871 0.41665 0.0
C1033 C 0.4477 0.94413 0.4219 0.0
C1034 C 0.42361 0.95547 0.41762 0.0
C1035 C 0.42915 0.98137 0.40805 0.0
C1036 C 0.45881 0.99606 0.40279 0.0
C1037 C 0.57253 1.00052 0.33656 0.0
C1038 C 0.55659 0.01652 0.32751 0.0
C1039 C 0.57017 1.00058 0.35332 0.0
C1040 C 0.55182 0.01661 0.36134 0.0
C1041 C 0.53585 0.03254 0.35233 0.0
C1042 C 0.53834 0.03265 0.33559 0.0
C1043 C 0.54867 0.01615 0.37907 0.0
C1044 C 0.51918 1.00314 0.38507 0.0
C1045 C 0.57445 0.02735 0.38998 0.0
C1046 C 0.60604 0.04243 0.38442 0.0
C1047 C 0.61247 0.06887 0.37501 0.0
C1048 C 0.64227 0.08285 0.36975 0.0
C1049 C 0.66589 0.07074 0.37392 0.0
C1050 C 0.65977 0.04467 0.38341 0.0
C1051 C 0.63 0.03058 0.38868 0.0
H1052 H 0.68894 0.0816 0.36984 0.0
H1053 H 0.40064 0.94415 0.4217 0.0
H1054 H 0.54551 0.46395 0.79091 0.0
H1055 H 0.54177 0.46654 0.76157 0.0
H1056 H 0.58539 0.56873 0.76723 0.0
H1057 H 0.58963 0.56621 0.79652 0.0
H1058 H 0.5304 0.54634 0.74586 0.0
H1059 H 0.62813 0.52863 0.7555 0.0
H1060 H 0.66144 0.49993 0.76639 0.0
H1061 H 0.60969 0.41414 0.73826 0.0
H1062 H 0.57577 0.44224 0.72738 0.0
H1063 H 0.5668 0.5783 0.66469 0.0
H1064 H 0.56729 0.57546 0.69402 0.0
H1065 H 0.54815 0.47315 0.68747 0.0
H1066 H 0.54889 0.4762 0.65819 0.0
H1067 H 0.58962 0.49494 0.70976 0.0
H1068 H 0.49242 0.51028 0.69943 0.0
H1069 H 0.45631 0.53616 0.68894 0.0
H1070 H 0.50241 0.62226 0.71835 0.0
H1071 H 0.53909 0.59705 0.72885 0.0
C1072 C 0.55427 0.48692 0.78587 0.0
C1073 C 0.56806 0.51486 0.7959 0.0
C1074 C 0.55212 0.48837 0.76916 0.0
C1075 C 0.56341 0.51782 0.7623 0.0
C1076 C 0.57656 0.54581 0.77234 0.0
C1077 C 0.57913 0.54431 0.78901 0.0
C1078 C 0.5622 0.51934 0.74459 0.0
C1079 C 0.54356 0.53545 0.73792 0.0
C1080 C 0.57872 0.50429 0.73432 0.0
C1081 C 0.59922 0.48744 0.74076 0.0
C1082 C 0.62369 0.50357 0.75175 0.0
C1083 C 0.64271 0.48743 0.7579 0.0
C1084 C 0.63763 0.45521 0.75305 0.0
C1085 C 0.61357 0.43909 0.74202 0.0
C1086 C 0.59446 0.45511 0.73585 0.0
C1087 C 0.56257 0.55524 0.66956 0.0
C1088 C 0.55784 0.52747 0.65923 0.0
C1089 C 0.56269 0.55358 0.68631 0.0
C1090 C 0.5573 0.524 0.69301 0.0
C1091 C 0.55242 0.49625 0.68263 0.0
C1092 C 0.55284 0.49799 0.66592 0.0
C1093 C 0.55767 0.52201 0.71081 0.0
C1094 C 0.57625 0.50581 0.71758 0.0
C1095 C 0.54067 0.53658 0.72114 0.0
C1096 C 0.51871 0.55187 0.7148 0.0
C1097 C 0.49503 0.53482 0.70356 0.0
C1098 C 0.47442 0.54936 0.69763 0.0
C1099 C 0.47711 0.58086 0.70294 0.0
C1100 C 0.50038 0.59788 0.71423 0.0
C1101 C 0.52107 0.58347 0.72018 0.0
H1102 H 0.46113 0.59206 0.69835 0.0
H1103 H 0.65239 0.44275 0.75783 0.0
H1104 H 0.53771 0.04947 0.55727 0.0
H1105 H 0.53296 0.04806 0.58666 0.0
H1106 H 0.5853 0.98211 0.58706 0.0
H1107 H 0.59053 0.98382 0.55782 0.0
H1108 H 0.53012 0.96553 0.60564 0.0
H1109 H 0.62146 0.056 0.59762 0.0
H1110 H 0.64782 0.10719 0.58617 0.0
H1111 H 0.58689 0.15053 0.61038 0.0
H1112 H 0.55991 0.09943 0.62182 0.0
H1113 H 0.57454 0.96573 0.68669 0.0
H1114 H 0.57286 0.96898 0.65745 0.0
H1115 H 0.54511 0.05375 0.66418 0.0
H1116 H 0.54841 0.05136 0.69352 0.0
H1117 H 0.58285 0.06235 0.6416 0.0
H1118 H 0.49322 0.97671 0.65126 0.0
H1119 H 0.46218 0.92634 0.66198 0.0
H1120 H 0.51242 0.87486 0.63429 0.0
H1121 H 0.54408 0.92501 0.62358 0.0
C1122 C 0.54806 0.0346 0.56365 0.0
C1123 C 0.56466 0.01691 0.55535 0.0
C1124 C 0.54538 0.03385 0.58039 0.0
C1125 C 0.55892 0.01509 0.58899 0.0
C1126 C 0.57471 0.99672 0.58062 0.0
C1127 C 0.57778 0.99782 0.56396 0.0
C1128 C 0.55751 0.01512 0.60678 0.0
C1129 C 0.54181 0.98656 0.61356 0.0
C1130 C 0.57179 0.04295 0.617 0.0
C1131 C 0.58849 0.07383 0.61045 0.0
C1132 C 0.61357 0.07639 0.60043 0.0
C1133 C 0.62864 0.1054 0.59395 0.0
C1134 C 0.61898 0.13208 0.59751 0.0
C1135 C 0.59432 0.12984 0.60762 0.0
C1136 C 0.57916 0.10087 0.61412 0.0
C1137 C 0.5681 0.98502 0.68188 0.0
C1138 C 0.56147 0.00821 0.69229 0.0
C1139 C 0.56692 0.98678 0.66517 0.0
C1140 C 0.55812 0.0112 0.65851 0.0
C1141 C 0.55186 0.03463 0.66896 0.0
C1142 C 0.5537 0.03325 0.68571 0.0
C1143 C 0.55586 0.01241 0.64067 0.0
C1144 C 0.57084 0.04125 0.63381 0.0
C1145 C 0.54024 0.98496 0.63035 0.0
C1146 C 0.5212 0.95469 0.63672 0.0
C1147 C 0.4978 0.95468 0.64754 0.0
C1148 C 0.48007 0.92617 0.65361 0.0
C1149 C 0.48537 0.89743 0.64885 0.0
C1150 C 0.50836 0.89715 0.63798 0.0
C1151 C 0.52618 0.92561 0.63189 0.0
H1152 H 0.47162 0.87537 0.65355 0.0
H1153 H 0.63064 0.15449 0.59247 0.0
H1154 H 0.53771 0.52867 0.88381 0.0
H1155 H 0.54506 0.52779 0.9129 0.0
H1156 H 0.49379 0.4271 0.90985 0.0
H1157 H 0.48563 0.42811 0.88065 0.0
H1158 H 0.47772 0.4567 0.93548 0.0
H1159 H 0.57296 0.4538 0.91388 0.0
H1160 H 0.61838 0.4714 0.8971 0.0
H1161 H 0.64773 0.56276 0.92422 0.0
H1162 H 0.60219 0.54588 0.94103 0.0
H1163 H 0.52696 0.43362 0.01422 0.0
H1164 H 0.52069 0.43039 0.98475 0.0
H1165 H 0.55995 0.53292 0.98538 0.0
H1166 H 0.56636 0.53631 0.01486 0.0
H1167 H 0.5828 0.49947 0.96092 0.0
H1168 H 0.48538 0.50198 0.98151 0.0
H1169 H 0.43932 0.48365 -0.00219 0.0
H1170 H 0.41448 0.39087 0.97216 0.0
H1171 H 0.46068 0.40853 0.95586 0.0
C1172 C 0.52789 0.50635 0.88934 0.0
C1173 C 0.51112 0.47842 0.87999 0.0
C1174 C 0.53227 0.50584 0.90597 0.0
C1175 C 0.52046 0.47725 0.91356 0.0
C1176 C 0.50322 0.4494 0.90426 0.0
C1177 C 0.49859 0.44998 0.8876 0.0
C1178 C 0.5261 0.47666 0.93119 0.0
C1179 C 0.50075 0.46554 0.94099 0.0
C1180 C 0.55613 0.48865 0.93845 0.0
C1181 C 0.584 0.49865 0.92864 0.0
C1182 C 0.58901 0.47771 0.91622 0.0
C1183 C 0.61478 0.48755 0.9067 0.0
C1184 C 0.63589 0.51821 0.90956 0.0
C1185 C 0.63134 0.53903 0.92201 0.0
C1186 C 0.60556 0.52932 0.93155 0.0
C1187 C 0.53453 0.45543 0.00806 0.0
C1188 C 0.54705 0.48523 0.01685 0.0
C1189 C 0.53079 0.45357 0.99124 0.0
C1190 C 0.53969 0.48144 0.98289 0.0
C1191 C 0.55292 0.51114 0.99159 0.0
C1192 C 0.55635 0.51306 0.00842 0.0
C1193 C 0.5344 0.47972 0.96514 0.0
C1194 C 0.55983 0.49041 0.95535 0.0
C1195 C 0.50449 0.46708 0.95786 0.0
C1196 C 0.47666 0.45647 0.9676 0.0
C1197 C 0.47024 0.47759 0.97945 0.0
C1198 C 0.44409 0.46734 0.98866 0.0
C1199 C 0.42404 0.43609 0.98606 0.0
C1200 C 0.43006 0.41505 0.97419 0.0
C1201 C 0.45622 0.42517 0.96495 0.0
H1202 H 0.4038 0.4282 0.9932 0.0
H1203 H 0.6558 0.52581 0.90215 0.0
H1204 H 1.03693 0.54851 0.19914 0.0
H1205 H 1.03627 0.54054 0.22794 0.0
H1206 H 0.08546 0.47227 0.2199 0.0
H1207 H 0.08569 0.4798 0.19087 0.0
H1208 H 1.04047 0.45226 0.24124 0.0
H1209 H 0.12338 0.5478 0.23501 0.0
H1210 H 0.14877 0.60133 0.22576 0.0
H1211 H 0.0876 0.63912 0.25336 0.0
H1212 H 0.06153 0.58568 0.26259 0.0
H1213 H 0.08249 0.45955 0.32541 0.0
H1214 H 0.08419 0.46188 0.29603 0.0
H1215 H 1.03138 0.52751 0.29859 0.0
H1216 H 1.03 0.52569 0.32792 0.0
H1217 H 0.08169 0.54761 0.27993 0.0
H1218 H 0.99779 0.45068 0.28528 0.0
H1219 H 0.97322 0.39691 0.29446 0.0
H1220 H 1.03812 0.36168 0.26865 0.0
H1221 H 0.06336 0.41539 0.25949 0.0
C1222 C 0.04751 0.53171 0.20349 0.0
C1223 C 0.06162 0.515 0.19282 0.0
C1224 C 0.04722 0.52725 0.21996 0.0
C1225 C 0.06134 0.50626 0.22612 0.0
C1226 C 0.07459 0.48872 0.21541 0.0
C1227 C 0.07477 0.49308 0.19887 0.0
C1228 C 0.06261 0.50326 0.24379 0.0
C1229 C 0.04993 0.47303 0.2497 0.0
C1230 C 0.07461 0.53042 0.25485 0.0
C1231 C 0.09034 0.56266 0.24939 0.0
C1232 C 0.11519 0.56747 0.23902 0.0
C1233 C 0.12973 0.59781 0.23379 0.0
C1234 C 0.11976 0.6236 0.23894 0.0
C1235 C 0.09528 0.61911 0.24936 0.0
C1236 C 0.08063 0.58881 0.25461 0.0
C1237 C 0.07131 0.47452 0.3197 0.0
C1238 C 0.05605 0.49239 0.32897 0.0
C1239 C 0.07211 0.47564 0.30291 0.0
C1240 C 0.05773 0.4947 0.29512 0.0
C1241 C 1.04255 0.51259 0.30436 0.0
C1242 C 1.04159 0.51133 0.3211 0.0
C1243 C 0.05907 0.49673 0.27738 0.0
C1244 C 0.07237 0.52682 0.27147 0.0
C1245 C 0.04784 0.46943 0.26636 0.0
C1246 C 1.03268 0.43714 0.27185 0.0
C1247 C 1.007 0.43154 0.28168 0.0
C1248 C 0.99291 0.40106 0.28686 0.0
C1249 C 1.00416 0.37592 0.28218 0.0
C1250 C 1.02947 0.38119 0.27228 0.0
C1251 C 1.04366 0.41164 0.26709 0.0
H1252 H 0.99322 0.35233 0.2862 0.0
H1253 H 0.13104 0.64707 0.23488 0.0
loop_
_geom_bond_atom_site_label_1
_geom_bond_atom_site_label_2
_geom_bond_distance
_geom_bond_site_symmetry_2
_ccdc_geom_bond_type
Nd0 C2 2.836 . S
Nd0 O20 2.500 . S
Nd0 O21 2.492 . S
Nd0 O22 2.487 . S
Nd0 O23 2.682 . S
Nd0 O24 2.410 . S
Nd0 O29 2.414 . S
Nd0 O31 2.424 1_455 S
Nd1 C11 2.836 1_455 S
Nd1 O23 2.414 . S
Nd1 O25 2.424 . S
Nd1 O26 2.500 1_455 S
Nd1 O27 2.492 1_455 S
Nd1 O28 2.487 . S
Nd1 O29 2.682 . S
Nd1 O30 2.410 1_455 S
C2 Nd0 2.836 . S
C2 C3 1.498 . S
C2 O20 1.258 . S
C2 O21 1.239 . S
C3 C2 1.498 . S
C3 C4 1.366 . S
C3 C8 1.407 . S
C4 C3 1.366 . S
C4 C5 1.392 . S
C4 H32 0.930 . S
C5 C4 1.392 . S
C5 C6 1.398 . S
C5 H33 0.929 . S
C6 C5 1.398 . S
C6 C7 1.352 . S
C7 C6 1.352 . S
C7 C8 1.384 . S
C7 H34 0.930 . S
C8 C3 1.407 . S
C8 C7 1.384 . S
C8 H35 0.929 . S
C9 O22 1.241 . S
C9 O23 1.273 . S
C10 O24 1.251 . S
C10 O25 1.268 . S
C11 Nd1 2.836 1_655 S
C11 C12 1.498 . S
C11 O26 1.258 . S
C11 O27 1.239 . S
C12 C11 1.498 . S
C12 C13 1.366 . S
C12 C17 1.407 . S
C13 C12 1.366 . S
C13 C14 1.392 . S
C13 H36 0.930 . S
C14 C13 1.392 . S
C14 C15 1.398 . S
C14 H37 0.929 . S
C15 C14 1.398 . S
C15 C16 1.352 . S
C16 C15 1.352 . S
C16 C17 1.384 . S
C16 H38 0.930 . S
C17 C12 1.407 . S
C17 C16 1.384 . S
C17 H39 0.929 . S
C18 O28 1.241 . S
C18 O29 1.273 . S
C19 O30 1.251 . S
C19 O31 1.268 . S
O20 Nd0 2.500 . S
O20 C2 1.258 . S
O21 Nd0 2.492 . S
O21 C2 1.239 . S
O22 Nd0 2.487 . S
O22 C9 1.241 . S
O23 Nd0 2.682 . S
O23 Nd1 2.414 . S
O23 C9 1.273 . S
O24 Nd0 2.410 . S
O24 C10 1.251 . S
O25 Nd1 2.424 . S
O25 C10 1.268 . S
O26 Nd1 2.500 1_655 S
O26 C11 1.258 . S
O27 Nd1 2.492 1_655 S
O27 C11 1.239 . S
O28 Nd1 2.487 . S
O28 C18 1.241 . S
O29 Nd0 2.414 . S
O29 Nd1 2.682 . S
O29 C18 1.273 . S
O30 Nd1 2.410 1_655 S
O30 C19 1.251 . S
O31 Nd0 2.424 1_655 S
O31 C19 1.268 . S
H32 C4 0.930 . S
H33 C5 0.929 . S
H34 C7 0.930 . S
H35 C8 0.929 . S
H36 C13 0.930 . S
H37 C14 0.929 . S
H38 C16 0.930 . S
H39 C17 0.929 . S
Nd40 C42 2.836 1_545 S
Nd40 O60 2.500 1_545 S
Nd40 O61 2.492 1_545 S
Nd40 O62 2.487 . S
Nd40 O63 2.682 . S
Nd40 O64 2.410 1_545 S
Nd40 O69 2.414 . S
Nd40 O71 2.424 . S
Nd41 C51 2.836 . S
Nd41 O63 2.414 . S
Nd41 O65 2.424 1_545 S
Nd41 O66 2.500 . S
Nd41 O67 2.492 . S
Nd41 O68 2.487 . S
Nd41 O69 2.682 . S
Nd41 O70 2.410 . S
C42 Nd40 2.836 1_565 S
C42 C43 1.498 . S
C42 O60 1.258 . S
C42 O61 1.239 . S
C43 C42 1.498 . S
C43 C44 1.366 . S
C43 C48 1.407 . S
C44 C43 1.366 . S
C44 C45 1.392 . S
C44 H72 0.930 . S
C45 C44 1.392 . S
C45 C46 1.398 . S
C45 H73 0.929 . S
C46 C45 1.398 . S
C46 C47 1.352 . S
C47 C46 1.352 . S
C47 C48 1.384 . S
C47 H74 0.930 . S
C48 C43 1.407 . S
C48 C47 1.384 . S
C48 H75 0.929 . S
C49 O62 1.241 . S
C49 O63 1.273 . S
C50 O64 1.251 . S
C50 O65 1.268 . S
C51 Nd41 2.836 . S
C51 C52 1.498 . S
C51 O66 1.258 . S
C51 O67 1.239 . S
C52 C51 1.498 . S
C52 C53 1.366 . S
C52 C57 1.407 . S
C53 C52 1.366 . S
C53 C54 1.392 . S
C53 H76 0.930 . S
C54 C53 1.392 . S
C54 C55 1.398 . S
C54 H77 0.929 . S
C55 C54 1.398 . S
C55 C56 1.352 . S
C56 C55 1.352 . S
C56 C57 1.384 . S
C56 H78 0.930 . S
C57 C52 1.407 . S
C57 C56 1.384 . S
C57 H79 0.929 . S
C58 O68 1.241 . S
C58 O69 1.273 . S
C59 O70 1.251 . S
C59 O71 1.268 . S
O60 Nd40 2.500 1_565 S
O60 C42 1.258 . S
O61 Nd40 2.492 1_565 S
O61 C42 1.239 . S
O62 Nd40 2.487 . S
O62 C49 1.241 . S
O63 Nd40 2.682 . S
O63 Nd41 2.414 . S
O63 C49 1.273 . S
O64 Nd40 2.410 1_565 S
O64 C50 1.251 . S
O65 Nd41 2.424 1_565 S
O65 C50 1.268 . S
O66 Nd41 2.500 . S
O66 C51 1.258 . S
O67 Nd41 2.492 . S
O67 C51 1.239 . S
O68 Nd41 2.487 . S
O68 C58 1.241 . S
O69 Nd40 2.414 . S
O69 Nd41 2.682 . S
O69 C58 1.273 . S
O70 Nd41 2.410 . S
O70 C59 1.251 . S
O71 Nd40 2.424 . S
O71 C59 1.268 . S
H72 C44 0.930 . S
H73 C45 0.929 . S
H74 C47 0.930 . S
H75 C48 0.929 . S
H76 C53 0.930 . S
H77 C54 0.929 . S
H78 C56 0.930 . S
H79 C57 0.929 . S
Nd80 C82 2.836 . S
Nd80 O100 2.500 . S
Nd80 O101 2.492 . S
Nd80 O102 2.487 . S
Nd80 O103 2.682 . S
Nd80 O104 2.410 . S
Nd80 O109 2.414 . S
Nd80 O111 2.424 . S
Nd81 C91 2.836 . S
Nd81 O103 2.414 . S
Nd81 O105 2.424 . S
Nd81 O106 2.500 . S
Nd81 O107 2.492 . S
Nd81 O108 2.487 . S
Nd81 O109 2.682 . S
Nd81 O110 2.410 . S
C82 Nd80 2.836 . S
C82 C83 1.498 . S
C82 O100 1.258 . S
C82 O101 1.239 . S
C83 C82 1.498 . S
C83 C84 1.366 . S
C83 C88 1.407 . S
C84 C83 1.366 . S
C84 C85 1.392 . S
C84 H112 0.930 . S
C85 C84 1.392 . S
C85 C86 1.398 . S
C85 H113 0.929 . S
C86 C85 1.398 . S
C86 C87 1.352 . S
C87 C86 1.352 . S
C87 C88 1.384 . S
C87 H114 0.930 . S
C88 C83 1.407 . S
C88 C87 1.384 . S
C88 H115 0.929 . S
C89 O102 1.241 . S
C89 O103 1.273 . S
C90 O104 1.251 . S
C90 O105 1.268 . S
C91 Nd81 2.836 . S
C91 C92 1.498 . S
C91 O106 1.258 . S
C91 O107 1.239 . S
C92 C91 1.498 . S
C92 C93 1.366 . S
C92 C97 1.407 . S
C93 C92 1.366 . S
C93 C94 1.392 . S
C93 H116 0.930 . S
C94 C93 1.392 . S
C94 C95 1.398 . S
C94 H117 0.929 . S
C95 C94 1.398 . S
C95 C96 1.352 . S
C96 C95 1.352 . S
C96 C97 1.384 . S
C96 H118 0.930 . S
C97 C92 1.407 . S
C97 C96 1.384 . S
C97 H119 0.929 . S
C98 O108 1.241 . S
C98 O109 1.273 . S
C99 O110 1.251 . S
C99 O111 1.268 . S
O100 Nd80 2.500 . S
O100 C82 1.258 . S
O101 Nd80 2.492 . S
O101 C82 1.239 . S
O102 Nd80 2.487 . S
O102 C89 1.241 . S
O103 Nd80 2.682 . S
O103 Nd81 2.414 . S
O103 C89 1.273 . S
O104 Nd80 2.410 . S
O104 C90 1.251 . S
O105 Nd81 2.424 . S
O105 C90 1.268 . S
O106 Nd81 2.500 . S
O106 C91 1.258 . S
O107 Nd81 2.492 . S
O107 C91 1.239 . S
O108 Nd81 2.487 . S
O108 C98 1.241 . S
O109 Nd80 2.414 . S
O109 Nd81 2.682 . S
O109 C98 1.273 . S
O110 Nd81 2.410 . S
O110 C99 1.251 . S
O111 Nd80 2.424 . S
O111 C99 1.268 . S
H112 C84 0.930 . S
H113 C85 0.929 . S
H114 C87 0.930 . S
H115 C88 0.929 . S
H116 C93 0.930 . S
H117 C94 0.929 . S
H118 C96 0.930 . S
H119 C97 0.929 . S
C120 C121 1.386 . S
C120 C122 1.397 . S
C120 H144 0.931 . S
C121 C120 1.386 . S
C121 C125 1.397 . S
C122 C120 1.397 . S
C122 C123 1.384 . S
C122 H145 0.930 . S
C123 C122 1.384 . S
C123 C124 1.377 . S
C123 C126 1.481 . S
C124 C123 1.377 . S
C124 C125 1.389 . S
C124 H146 0.929 1_545 S
C125 C121 1.397 . S
C125 C124 1.389 . S
C125 H147 0.931 1_545 S
C126 C123 1.481 . S
C126 C127 1.387 . S
C126 C131 1.390 . S
C127 C126 1.387 . S
C127 C128 1.401 . S
C127 H148 0.930 . S
C128 C127 1.401 . S
C128 C129 1.376 . S
C128 C137 1.511 . S
C129 C128 1.376 . S
C129 C130 1.392 . S
C129 H150 0.931 . S
C130 C129 1.392 . S
C130 C131 1.361 . S
C130 C132 1.500 1_545 S
C131 C126 1.390 . S
C131 C130 1.361 . S
C131 H149 0.931 1_545 S
C132 C130 1.500 1_565 S
C132 C133 1.371 . S
C132 C134 1.365 . S
C133 C132 1.371 . S
C133 C143 1.386 . S
C133 H151 0.922 1_565 S
C134 C132 1.365 . S
C134 C135 1.409 . S
C134 H152 0.929 . S
C135 C134 1.409 . S
C135 C136 1.380 . S
C135 H153 0.930 . S
C136 C135 1.380 . S
C136 C143 1.357 . S
C137 C128 1.511 . S
C137 C138 1.341 . S
C137 C139 1.371 . S
C138 C137 1.341 . S
C138 C142 1.394 . S
C138 H154 0.930 . S
C139 C137 1.371 . S
C139 C140 1.392 . S
C139 H155 0.931 . S
C140 C139 1.392 . S
C140 C141 1.331 . S
C140 H158 0.932 . S
C141 C140 1.331 . S
C141 C142 1.336 . S
C142 C138 1.394 . S
C142 C141 1.336 . S
C142 H157 0.929 . S
C143 C133 1.386 . S
C143 C136 1.357 . S
C143 H156 0.928 . S
H144 C120 0.931 . S
H145 C122 0.930 . S
H146 C124 0.929 1_565 S
H147 C125 0.931 1_565 S
H148 C127 0.930 . S
H149 C131 0.931 1_565 S
H150 C129 0.931 . S
H151 C133 0.922 1_545 S
H152 C134 0.929 . S
H153 C135 0.930 . S
H154 C138 0.930 . S
H155 C139 0.931 . S
H156 C143 0.928 . S
H157 C142 0.929 . S
H158 C140 0.932 . S
C159 C160 1.386 . S
C159 C161 1.397 . S
C159 H183 0.931 . S
C160 C159 1.386 . S
C160 C164 1.397 . S
C161 C159 1.397 . S
C161 C162 1.384 . S
C161 H184 0.930 . S
C162 C161 1.384 . S
C162 C163 1.377 . S
C162 C165 1.481 . S
C163 C162 1.377 . S
C163 C164 1.389 . S
C163 H185 0.929 . S
C164 C160 1.397 . S
C164 C163 1.389 . S
C164 H186 0.931 . S
C165 C162 1.481 . S
C165 C166 1.387 . S
C165 C170 1.390 . S
C166 C165 1.387 . S
C166 C167 1.401 . S
C166 H187 0.930 . S
C167 C166 1.401 . S
C167 C168 1.376 . S
C167 C176 1.511 . S
C168 C167 1.376 . S
C168 C169 1.392 . S
C168 H189 0.931 . S
C169 C168 1.392 . S
C169 C170 1.361 . S
C169 C171 1.500 . S
C170 C165 1.390 . S
C170 C169 1.361 . S
C170 H188 0.931 . S
C171 C169 1.500 . S
C171 C172 1.371 . S
C171 C173 1.365 . S
C172 C171 1.371 . S
C172 C182 1.386 . S
C172 H190 0.931 . S
C173 C171 1.365 . S
C173 C174 1.409 . S
C173 H191 0.929 . S
C174 C173 1.409 . S
C174 C175 1.380 . S
C174 H192 0.930 . S
C175 C174 1.380 . S
C175 C182 1.357 . S
C176 C167 1.511 . S
C176 C177 1.341 . S
C176 C178 1.371 . S
C177 C176 1.341 . S
C177 C181 1.394 . S
C177 H193 0.930 . S
C178 C176 1.371 . S
C178 C179 1.392 . S
C178 H194 0.931 . S
C179 C178 1.392 . S
C179 C180 1.331 . S
C179 H197 0.932 . S
C180 C179 1.331 . S
C180 C181 1.336 . S
C181 C177 1.394 . S
C181 C180 1.336 . S
C181 H196 0.929 . S
C182 C172 1.386 . S
C182 C175 1.357 . S
C182 H195 0.928 . S
H183 C159 0.931 . S
H184 C161 0.930 . S
H185 C163 0.929 . S
H186 C164 0.931 . S
H187 C166 0.930 . S
H188 C170 0.931 . S
H189 C168 0.931 . S
H190 C172 0.931 . S
H191 C173 0.929 . S
H192 C174 0.930 . S
H193 C177 0.930 . S
H194 C178 0.931 . S
H195 C182 0.928 . S
H196 C181 0.929 . S
H197 C179 0.932 . S
C198 C199 1.386 . S
C198 C200 1.397 . S
C198 H222 0.931 . S
C199 C198 1.386 . S
C199 C203 1.397 . S
C200 C198 1.397 . S
C200 C201 1.384 . S
C200 H223 0.930 . S
C201 C200 1.384 . S
C201 C202 1.377 . S
C201 C204 1.481 . S
C202 C201 1.377 . S
C202 C203 1.389 . S
C202 H224 0.929 1_455 S
C203 C199 1.397 . S
C203 C202 1.389 . S
C203 H225 0.931 1_455 S
C204 C201 1.481 . S
C204 C205 1.387 . S
C204 C209 1.390 . S
C205 C204 1.387 . S
C205 C206 1.401 . S
C205 H226 0.930 . S
C206 C205 1.401 . S
C206 C207 1.376 . S
C206 C215 1.511 . S
C207 C206 1.376 . S
C207 C208 1.392 . S
C207 H228 0.931 . S
C208 C207 1.392 . S
C208 C209 1.361 . S
C208 C210 1.500 1_455 S
C209 C204 1.390 . S
C209 C208 1.361 . S
C209 H227 0.931 1_455 S
C210 C208 1.500 1_655 S
C210 C211 1.371 . S
C210 C212 1.365 . S
C211 C210 1.371 . S
C211 C221 1.386 . S
C211 H229 0.931 1_655 S
C212 C210 1.365 . S
C212 C213 1.409 . S
C212 H230 0.929 . S
C213 C212 1.409 . S
C213 C214 1.380 . S
C213 H231 0.930 . S
C214 C213 1.380 . S
C214 C221 1.357 . S
C215 C206 1.511 . S
C215 C216 1.341 . S
C215 C217 1.371 . S
C216 C215 1.341 . S
C216 C220 1.394 . S
C216 H232 0.930 . S
C217 C215 1.371 . S
C217 C218 1.392 . S
C217 H233 0.931 . S
C218 C217 1.392 . S
C218 C219 1.331 . S
C218 H236 0.932 . S
C219 C218 1.331 . S
C219 C220 1.336 . S
C220 C216 1.394 . S
C220 C219 1.336 . S
C220 H235 0.929 . S
C221 C211 1.386 . S
C221 C214 1.357 . S
C221 H234 0.928 . S
H222 C198 0.931 . S
H223 C200 0.930 . S
H224 C202 0.929 1_655 S
H225 C203 0.931 1_655 S
H226 C205 0.930 . S
H227 C209 0.931 1_655 S
H228 C207 0.931 . S
H229 C211 0.931 1_455 S
H230 C212 0.929 . S
H231 C213 0.930 . S
H232 C216 0.930 . S
H233 C217 0.931 . S
H234 C221 0.928 . S
H235 C220 0.929 . S
H236 C218 0.932 . S
C237 C238 1.376 1_655 S
C237 C239 1.397 . S
C237 H261 0.931 . S
C238 C237 1.376 1_455 S
C238 C242 1.407 . S
C239 C237 1.397 . S
C239 C240 1.415 . S
C239 H262 0.930 . S
C240 C239 1.415 . S
C240 C241 1.345 1_655 S
C240 C243 1.483 . S
C241 C240 1.345 1_455 S
C241 C242 1.389 . S
C241 H263 0.929 . S
C242 C238 1.407 . S
C242 C241 1.389 . S
C242 H264 0.931 . S
C243 C240 1.483 . S
C243 C244 1.387 . S
C243 C248 1.390 1_655 S
C244 C243 1.387 . S
C244 C245 1.401 . S
C244 H265 0.930 . S
C245 C244 1.401 . S
C245 C246 1.396 . S
C245 C254 1.511 . S
C246 C245 1.396 . S
C246 C247 1.372 1_655 S
C246 H267 0.931 . S
C247 C246 1.372 1_455 S
C247 C248 1.361 . S
C247 C249 1.500 . S
C248 C243 1.390 1_455 S
C248 C247 1.361 . S
C248 H266 0.931 . S
C249 C247 1.500 . S
C249 C250 1.371 . S
C249 C251 1.365 . S
C250 C249 1.371 . S
C250 C260 1.386 . S
C250 H268 0.931 . S
C251 C249 1.365 . S
C251 C252 1.409 . S
C251 H269 0.929 . S
C252 C251 1.409 . S
C252 C253 1.380 . S
C252 H270 0.930 . S
C253 C252 1.380 . S
C253 C260 1.357 . S
C254 C245 1.511 . S
C254 C255 1.341 . S
C254 C256 1.371 . S
C255 C254 1.341 . S
C255 C259 1.394 . S
C255 H271 0.930 . S
C256 C254 1.371 . S
C256 C257 1.392 . S
C256 H272 0.931 . S
C257 C256 1.392 . S
C257 C258 1.331 . S
C257 H275 0.932 . S
C258 C257 1.331 . S
C258 C259 1.336 . S
C259 C255 1.394 . S
C259 C258 1.336 . S
C259 H274 0.929 . S
C260 C250 1.386 . S
C260 C253 1.357 . S
C260 H273 0.928 . S
H261 C237 0.931 . S
H262 C239 0.930 . S
H263 C241 0.929 . S
H264 C242 0.931 . S
H265 C244 0.930 . S
H266 C248 0.931 . S
H267 C246 0.931 . S
H268 C250 0.931 . S
H269 C251 0.929 . S
H270 C252 0.930 . S
H271 C255 0.930 . S
H272 C256 0.931 . S
H273 C260 0.928 . S
H274 C259 0.929 . S
H275 C257 0.932 . S
C276 C277 1.386 1_565 S
C276 C278 1.397 . S
C276 H300 0.931 . S
C277 C276 1.386 1_545 S
C277 C281 1.397 . S
C278 C276 1.397 . S
C278 C279 1.384 1_565 S
C278 H301 0.930 . S
C279 C278 1.384 1_545 S
C279 C280 1.377 . S
C279 C282 1.481 . S
C280 C279 1.377 . S
C280 C281 1.389 . S
C280 H302 0.929 . S
C281 C277 1.397 . S
C281 C280 1.389 . S
C281 H303 0.931 . S
C282 C279 1.481 . S
C282 C283 1.387 1_545 S
C282 C287 1.390 . S
C283 C282 1.387 1_565 S
C283 C284 1.401 . S
C283 H304 0.930 . S
C284 C283 1.401 . S
C284 C285 1.376 1_565 S
C284 C293 1.511 . S
C285 C284 1.376 1_545 S
C285 C286 1.392 . S
C285 H306 0.931 . S
C286 C285 1.392 . S
C286 C287 1.361 . S
C286 C288 1.500 . S
C287 C282 1.390 . S
C287 C286 1.361 . S
C287 H305 0.931 . S
C288 C286 1.500 . S
C288 C289 1.371 . S
C288 C290 1.365 . S
C289 C288 1.371 . S
C289 C299 1.386 . S
C289 H307 0.931 . S
C290 C288 1.365 . S
C290 C291 1.409 . S
C290 H308 0.929 . S
C291 C290 1.409 . S
C291 C292 1.380 . S
C291 H309 0.930 . S
C292 C291 1.380 . S
C292 C299 1.357 . S
C293 C284 1.511 . S
C293 C294 1.341 . S
C293 C295 1.371 . S
C294 C293 1.341 . S
C294 C298 1.394 . S
C294 H310 0.930 . S
C295 C293 1.371 . S
C295 C296 1.392 . S
C295 H311 0.931 . S
C296 C295 1.392 . S
C296 C297 1.331 . S
C296 H314 0.932 . S
C297 C296 1.331 . S
C297 C298 1.336 . S
C298 C294 1.394 . S
C298 C297 1.336 . S
C298 H313 0.929 . S
C299 C289 1.386 . S
C299 C292 1.357 . S
C299 H312 0.928 . S
H300 C276 0.931 . S
H301 C278 0.930 . S
H302 C280 0.929 . S
H303 C281 0.931 . S
H304 C283 0.930 . S
H305 C287 0.931 . S
H306 C285 0.931 . S
H307 C289 0.931 . S
H308 C290 0.929 . S
H309 C291 0.930 . S
H310 C294 0.930 . S
H311 C295 0.931 . S
H312 C299 0.928 . S
H313 C298 0.929 . S
H314 C296 0.932 . S
C315 C316 1.386 . S
C315 C317 1.397 . S
C315 H339 0.931 . S
C316 C315 1.386 . S
C316 C320 1.397 . S
C317 C315 1.397 . S
C317 C318 1.384 . S
C317 H340 0.930 . S
C318 C317 1.384 . S
C318 C319 1.377 . S
C318 C321 1.481 . S
C319 C318 1.377 . S
C319 C320 1.389 . S
C319 H341 0.929 . S
C320 C316 1.397 . S
C320 C319 1.389 . S
C320 H342 0.931 . S
C321 C318 1.481 . S
C321 C322 1.387 . S
C321 C326 1.390 . S
C322 C321 1.387 . S
C322 C323 1.401 . S
C322 H343 0.930 . S
C323 C322 1.401 . S
C323 C324 1.376 . S
C323 C332 1.511 . S
C324 C323 1.376 . S
C324 C325 1.392 . S
C324 H345 0.931 . S
C325 C324 1.392 . S
C325 C326 1.361 . S
C325 C327 1.500 . S
C326 C321 1.390 . S
C326 C325 1.361 . S
C326 H344 0.931 . S
C327 C325 1.500 . S
C327 C328 1.371 . S
C327 C329 1.365 . S
C328 C327 1.371 . S
C328 C338 1.386 . S
C328 H346 0.931 . S
C329 C327 1.365 . S
C329 C330 1.409 . S
C329 H347 0.929 . S
C330 C329 1.409 . S
C330 C331 1.380 . S
C330 H348 0.930 . S
C331 C330 1.380 . S
C331 C338 1.357 . S
C332 C323 1.511 . S
C332 C333 1.341 . S
C332 C334 1.371 . S
C333 C332 1.341 . S
C333 C337 1.394 . S
C333 H349 0.930 . S
C334 C332 1.371 . S
C334 C335 1.392 . S
C334 H350 0.931 . S
C335 C334 1.392 . S
C335 C336 1.331 . S
C335 H353 0.932 . S
C336 C335 1.331 . S
C336 C337 1.336 . S
C337 C333 1.394 . S
C337 C336 1.336 . S
C337 H352 0.929 . S
C338 C328 1.386 . S
C338 C331 1.357 . S
C338 H351 0.928 . S
H339 C315 0.931 . S
H340 C317 0.930 . S
H341 C319 0.929 . S
H342 C320 0.931 . S
H343 C322 0.930 . S
H344 C326 0.931 . S
H345 C324 0.931 . S
H346 C328 0.931 . S
H347 C329 0.929 . S
H348 C330 0.930 . S
H349 C333 0.930 . S
H350 C334 0.931 . S
H351 C338 0.928 . S
H352 C337 0.929 . S
H353 C335 0.932 . S
H354 C372 0.951 . S
H355 C374 0.951 . S
H356 C376 0.950 . S
H357 C377 0.950 . S
H358 C379 0.950 . S
H359 C382 0.950 . S
H360 C383 0.950 . S
H361 C385 0.950 . S
H362 C386 0.950 . S
H363 C387 0.951 . S
H364 C389 0.951 . S
H365 C391 0.950 . S
H366 C392 0.950 . S
H367 C394 0.950 . S
H368 C397 0.950 . S
H369 C398 0.950 . S
H370 C400 0.950 . S
H371 C401 0.950 . S
C372 H354 0.951 . S
C372 C373 1.366 . S
C372 C374 1.388 . S
C373 C372 1.366 . S
C373 C377 1.385 . S
C374 H355 0.951 . S
C374 C372 1.388 . S
C374 C375 1.366 . S
C375 C374 1.366 . S
C375 C376 1.414 . S
C375 C378 1.499 . S
C376 H356 0.950 . S
C376 C375 1.414 . S
C376 C377 1.374 . S
C377 H357 0.950 . S
C377 C373 1.385 . S
C377 C376 1.374 . S
C378 C375 1.499 . S
C378 C379 1.373 . S
C378 C380 1.389 . S
C379 H358 0.950 . S
C379 C378 1.373 . S
C379 C395 1.377 . S
C380 C378 1.389 . S
C380 C381 1.524 . S
C380 C394 1.377 . S
C381 C380 1.524 . S
C381 C382 1.397 . S
C381 C386 1.363 . S
C382 H359 0.950 . S
C382 C381 1.397 . S
C382 C383 1.334 . S
C383 H360 0.950 . S
C383 C382 1.334 . S
C383 C384 1.287 . S
C384 C383 1.287 . S
C384 C385 1.524 . S
C384 H403 0.913 . S
C385 H361 0.950 . S
C385 C384 1.524 . S
C385 C386 1.415 . S
C386 H362 0.950 . S
C386 C381 1.363 . S
C386 C385 1.415 . S
C387 H363 0.951 . S
C387 C388 1.366 . S
C387 C389 1.388 . S
C388 C387 1.366 . S
C388 C392 1.385 . S
C389 H364 0.951 . S
C389 C387 1.388 . S
C389 C390 1.366 . S
C390 C389 1.366 . S
C390 C391 1.414 . S
C390 C393 1.499 . S
C391 H365 0.950 . S
C391 C390 1.414 . S
C391 C392 1.374 . S
C392 H366 0.950 . S
C392 C388 1.385 . S
C392 C391 1.374 . S
C393 C390 1.499 . S
C393 C394 1.373 . S
C393 C395 1.389 . S
C394 H367 0.950 . S
C394 C380 1.377 . S
C394 C393 1.373 . S
C395 C379 1.377 . S
C395 C393 1.389 . S
C395 C396 1.524 . S
C396 C395 1.524 . S
C396 C397 1.397 . S
C396 C401 1.363 . S
C397 H368 0.950 . S
C397 C396 1.397 . S
C397 C398 1.334 . S
C398 H369 0.950 . S
C398 C397 1.334 . S
C398 C399 1.287 . S
C399 C398 1.287 . S
C399 C400 1.524 . S
C399 H402 0.999 . S
C400 H370 0.950 . S
C400 C399 1.524 . S
C400 C401 1.415 . S
C401 H371 0.950 . S
C401 C396 1.363 . S
C401 C400 1.415 . S
H402 C399 0.999 . S
H403 C384 0.913 . S
H404 C422 0.951 . S
H405 C424 0.951 . S
H406 C426 0.950 . S
H407 C427 0.950 . S
H408 C429 0.950 . S
H409 C432 0.950 . S
H410 C433 0.950 . S
H411 C435 0.950 . S
H412 C436 0.950 . S
H413 C437 0.951 . S
H414 C439 0.951 . S
H415 C441 0.950 . S
H416 C442 0.950 . S
H417 C444 0.950 . S
H418 C447 0.950 . S
H419 C448 0.950 . S
H420 C450 0.950 . S
H421 C451 0.950 . S
C422 H404 0.951 . S
C422 C423 1.366 . S
C422 C424 1.388 . S
C423 C422 1.366 . S
C423 C427 1.385 . S
C424 H405 0.951 . S
C424 C422 1.388 . S
C424 C425 1.366 . S
C425 C424 1.366 . S
C425 C426 1.414 . S
C425 C428 1.499 . S
C426 H406 0.950 . S
C426 C425 1.414 . S
C426 C427 1.374 . S
C427 H407 0.950 . S
C427 C423 1.385 . S
C427 C426 1.374 . S
C428 C425 1.499 . S
C428 C429 1.373 . S
C428 C430 1.389 . S
C429 H408 0.950 . S
C429 C428 1.373 . S
C429 C445 1.377 . S
C430 C428 1.389 . S
C430 C431 1.524 . S
C430 C444 1.377 . S
C431 C430 1.524 . S
C431 C432 1.397 . S
C431 C436 1.363 . S
C432 H409 0.950 . S
C432 C431 1.397 . S
C432 C433 1.334 . S
C433 H410 0.950 . S
C433 C432 1.334 . S
C433 C434 1.287 . S
C434 C433 1.287 . S
C434 C435 1.524 . S
C434 H453 0.913 . S
C435 H411 0.950 . S
C435 C434 1.524 . S
C435 C436 1.415 . S
C436 H412 0.950 . S
C436 C431 1.363 . S
C436 C435 1.415 . S
C437 H413 0.951 . S
C437 C438 1.366 . S
C437 C439 1.388 . S
C438 C437 1.366 . S
C438 C442 1.385 . S
C439 H414 0.951 . S
C439 C437 1.388 . S
C439 C440 1.366 . S
C440 C439 1.366 . S
C440 C441 1.414 . S
C440 C443 1.499 . S
C441 H415 0.950 . S
C441 C440 1.414 . S
C441 C442 1.374 . S
C442 H416 0.950 . S
C442 C438 1.385 . S
C442 C441 1.374 . S
C443 C440 1.499 . S
C443 C444 1.373 . S
C443 C445 1.389 . S
C444 H417 0.950 . S
C444 C430 1.377 . S
C444 C443 1.373 . S
C445 C429 1.377 . S
C445 C443 1.389 . S
C445 C446 1.524 . S
C446 C445 1.524 . S
C446 C447 1.397 . S
C446 C451 1.363 . S
C447 H418 0.950 . S
C447 C446 1.397 . S
C447 C448 1.334 . S
C448 H419 0.950 . S
C448 C447 1.334 . S
C448 C449 1.287 . S
C449 C448 1.287 . S
C449 C450 1.524 . S
C449 H452 0.999 . S
C450 H420 0.950 . S
C450 C449 1.524 . S
C450 C451 1.415 . S
C451 H421 0.950 . S
C451 C446 1.363 . S
C451 C450 1.415 . S
H452 C449 0.999 . S
H453 C434 0.913 . S
H454 C472 0.951 . S
H455 C474 0.951 . S
H456 C476 0.950 . S
H457 C477 0.950 . S
H458 C479 0.950 . S
H459 C482 0.950 . S
H460 C483 0.950 . S
H461 C485 0.950 . S
H462 C486 0.950 . S
H463 C487 0.951 . S
H464 C489 0.951 . S
H465 C491 0.950 . S
H466 C492 0.950 . S
H467 C494 0.950 . S
H468 C497 0.950 . S
H469 C498 0.950 . S
H470 C500 0.950 . S
H471 C501 0.950 . S
C472 H454 0.951 . S
C472 C473 1.366 . S
C472 C474 1.388 . S
C473 C472 1.366 . S
C473 C477 1.385 . S
C474 H455 0.951 . S
C474 C472 1.388 . S
C474 C475 1.366 . S
C475 C474 1.366 . S
C475 C476 1.414 . S
C475 C478 1.499 . S
C476 H456 0.950 . S
C476 C475 1.414 . S
C476 C477 1.374 . S
C477 H457 0.950 . S
C477 C473 1.385 . S
C477 C476 1.374 . S
C478 C475 1.499 . S
C478 C479 1.373 . S
C478 C480 1.389 . S
C479 H458 0.950 . S
C479 C478 1.373 . S
C479 C495 1.377 . S
C480 C478 1.389 . S
C480 C481 1.524 . S
C480 C494 1.377 . S
C481 C480 1.524 . S
C481 C482 1.397 . S
C481 C486 1.363 . S
C482 H459 0.950 . S
C482 C481 1.397 . S
C482 C483 1.334 . S
C483 H460 0.950 . S
C483 C482 1.334 . S
C483 C484 1.287 . S
C484 C483 1.287 . S
C484 C485 1.524 . S
C484 H503 0.913 . S
C485 H461 0.950 . S
C485 C484 1.524 . S
C485 C486 1.415 . S
C486 H462 0.950 . S
C486 C481 1.363 . S
C486 C485 1.415 . S
C487 H463 0.951 . S
C487 C488 1.366 . S
C487 C489 1.388 . S
C488 C487 1.366 . S
C488 C492 1.385 . S
C489 H464 0.951 . S
C489 C487 1.388 . S
C489 C490 1.366 . S
C490 C489 1.366 . S
C490 C491 1.414 . S
C490 C493 1.499 . S
C491 H465 0.950 . S
C491 C490 1.414 . S
C491 C492 1.374 . S
C492 H466 0.950 . S
C492 C488 1.385 . S
C492 C491 1.374 . S
C493 C490 1.499 . S
C493 C494 1.373 . S
C493 C495 1.389 . S
C494 H467 0.950 . S
C494 C480 1.377 . S
C494 C493 1.373 . S
C495 C479 1.377 . S
C495 C493 1.389 . S
C495 C496 1.524 . S
C496 C495 1.524 . S
C496 C497 1.397 . S
C496 C501 1.363 . S
C497 H468 0.950 . S
C497 C496 1.397 . S
C497 C498 1.334 . S
C498 H469 0.950 . S
C498 C497 1.334 . S
C498 C499 1.287 . S
C499 C498 1.287 . S
C499 C500 1.524 . S
C499 H502 0.999 . S
C500 H470 0.950 . S
C500 C499 1.524 . S
C500 C501 1.415 . S
C501 H471 0.950 . S
C501 C496 1.363 . S
C501 C500 1.415 . S
H502 C499 0.999 . S
H503 C484 0.913 . S
H504 C522 0.951 . S
H505 C524 0.951 . S
H506 C526 0.950 . S
H507 C527 0.950 . S
H508 C529 0.950 . S
H509 C532 0.950 . S
H510 C533 0.950 . S
H511 C535 0.950 . S
H512 C536 0.950 . S
H513 C537 0.951 . S
H514 C539 0.951 . S
H515 C541 0.950 . S
H516 C542 0.950 . S
H517 C544 0.950 . S
H518 C547 0.950 . S
H519 C548 0.950 . S
H520 C550 0.950 . S
H521 C551 0.950 . S
C522 H504 0.951 . S
C522 C523 1.366 . S
C522 C524 1.388 . S
C523 C522 1.366 . S
C523 C527 1.385 . S
C524 H505 0.951 . S
C524 C522 1.388 . S
C524 C525 1.366 . S
C525 C524 1.366 . S
C525 C526 1.414 . S
C525 C528 1.499 . S
C526 H506 0.950 . S
C526 C525 1.414 . S
C526 C527 1.374 . S
C527 H507 0.950 . S
C527 C523 1.385 . S
C527 C526 1.374 . S
C528 C525 1.499 . S
C528 C529 1.373 . S
C528 C530 1.389 . S
C529 H508 0.950 . S
C529 C528 1.373 . S
C529 C545 1.377 . S
C530 C528 1.389 . S
C530 C531 1.524 . S
C530 C544 1.377 . S
C531 C530 1.524 . S
C531 C532 1.397 . S
C531 C536 1.363 . S
C532 H509 0.950 . S
C532 C531 1.397 . S
C532 C533 1.334 . S
C533 H510 0.950 . S
C533 C532 1.334 . S
C533 C534 1.287 . S
C534 C533 1.287 . S
C534 C535 1.524 . S
C534 H553 0.913 . S
C535 H511 0.950 . S
C535 C534 1.524 . S
C535 C536 1.415 . S
C536 H512 0.950 . S
C536 C531 1.363 . S
C536 C535 1.415 . S
C537 H513 0.951 . S
C537 C538 1.366 . S
C537 C539 1.388 . S
C538 C537 1.366 . S
C538 C542 1.385 . S
C539 H514 0.951 . S
C539 C537 1.388 . S
C539 C540 1.366 . S
C540 C539 1.366 . S
C540 C541 1.414 . S
C540 C543 1.499 . S
C541 H515 0.950 . S
C541 C540 1.414 . S
C541 C542 1.374 . S
C542 H516 0.950 . S
C542 C538 1.385 . S
C542 C541 1.374 . S
C543 C540 1.499 . S
C543 C544 1.373 . S
C543 C545 1.389 . S
C544 H517 0.950 . S
C544 C530 1.377 . S
C544 C543 1.373 . S
C545 C529 1.377 . S
C545 C543 1.389 . S
C545 C546 1.524 . S
C546 C545 1.524 . S
C546 C547 1.397 . S
C546 C551 1.363 . S
C547 H518 0.950 . S
C547 C546 1.397 . S
C547 C548 1.334 . S
C548 H519 0.950 . S
C548 C547 1.334 . S
C548 C549 1.287 . S
C549 C548 1.287 . S
C549 C550 1.524 . S
C549 H552 0.999 . S
C550 H520 0.950 . S
C550 C549 1.524 . S
C550 C551 1.415 . S
C551 H521 0.950 . S
C551 C546 1.363 . S
C551 C550 1.415 . S
H552 C549 0.999 . S
H553 C534 0.913 . S
H554 C572 0.951 . S
H555 C574 0.951 . S
H556 C576 0.950 . S
H557 C577 0.950 . S
H558 C579 0.950 . S
H559 C582 0.950 . S
H560 C583 0.950 . S
H561 C585 0.950 . S
H562 C586 0.950 . S
H563 C587 0.951 . S
H564 C589 0.951 . S
H565 C591 0.950 . S
H566 C592 0.950 . S
H567 C594 0.950 . S
H568 C597 0.950 . S
H569 C598 0.950 . S
H570 C600 0.950 . S
H571 C601 0.950 . S
C572 H554 0.951 . S
C572 C573 1.366 . S
C572 C574 1.388 . S
C573 C572 1.366 . S
C573 C577 1.385 . S
C574 H555 0.951 . S
C574 C572 1.388 . S
C574 C575 1.366 . S
C575 C574 1.366 . S
C575 C576 1.414 . S
C575 C578 1.499 . S
C576 H556 0.950 . S
C576 C575 1.414 . S
C576 C577 1.374 . S
C577 H557 0.950 . S
C577 C573 1.385 . S
C577 C576 1.374 . S
C578 C575 1.499 . S
C578 C579 1.373 . S
C578 C580 1.389 . S
C579 H558 0.950 . S
C579 C578 1.373 . S
C579 C595 1.377 . S
C580 C578 1.389 . S
C580 C581 1.524 . S
C580 C594 1.377 . S
C581 C580 1.524 . S
C581 C582 1.397 . S
C581 C586 1.363 . S
C582 H559 0.950 . S
C582 C581 1.397 . S
C582 C583 1.334 . S
C583 H560 0.950 . S
C583 C582 1.334 . S
C583 C584 1.287 . S
C584 C583 1.287 . S
C584 C585 1.524 . S
C584 H603 0.913 . S
C585 H561 0.950 . S
C585 C584 1.524 . S
C585 C586 1.415 . S
C586 H562 0.950 . S
C586 C581 1.363 . S
C586 C585 1.415 . S
C587 H563 0.951 . S
C587 C588 1.366 . S
C587 C589 1.388 . S
C588 C587 1.366 . S
C588 C592 1.385 . S
C589 H564 0.951 . S
C589 C587 1.388 . S
C589 C590 1.366 . S
C590 C589 1.366 . S
C590 C591 1.414 . S
C590 C593 1.499 . S
C591 H565 0.950 . S
C591 C590 1.414 . S
C591 C592 1.374 . S
C592 H566 0.950 . S
C592 C588 1.385 . S
C592 C591 1.374 . S
C593 C590 1.499 . S
C593 C594 1.373 . S
C593 C595 1.389 . S
C594 H567 0.950 . S
C594 C580 1.377 . S
C594 C593 1.373 . S
C595 C579 1.377 . S
C595 C593 1.389 . S
C595 C596 1.524 . S
C596 C595 1.524 . S
C596 C597 1.397 . S
C596 C601 1.363 . S
C597 H568 0.950 . S
C597 C596 1.397 . S
C597 C598 1.334 . S
C598 H569 0.950 . S
C598 C597 1.334 . S
C598 C599 1.287 . S
C599 C598 1.287 . S
C599 C600 1.524 . S
C599 H602 0.999 . S
C600 H570 0.950 . S
C600 C599 1.524 . S
C600 C601 1.415 . S
C601 H571 0.950 . S
C601 C596 1.363 . S
C601 C600 1.415 . S
H602 C599 0.999 . S
H603 C584 0.913 . S
H604 C622 0.951 . S
H605 C624 0.951 . S
H606 C626 0.950 . S
H607 C627 0.950 . S
H608 C629 0.950 . S
H609 C632 0.950 . S
H610 C633 0.950 . S
H611 C635 0.950 . S
H612 C636 0.950 . S
H613 C637 0.951 . S
H614 C639 0.951 . S
H615 C641 0.950 . S
H616 C642 0.950 . S
H617 C644 0.950 . S
H618 C647 0.950 . S
H619 C648 0.950 . S
H620 C650 0.950 . S
H621 C651 0.950 . S
C622 H604 0.951 . S
C622 C623 1.366 . S
C622 C624 1.388 . S
C623 C622 1.366 . S
C623 C627 1.385 . S
C624 H605 0.951 . S
C624 C622 1.388 . S
C624 C625 1.366 . S
C625 C624 1.366 . S
C625 C626 1.414 . S
C625 C628 1.499 . S
C626 H606 0.950 . S
C626 C625 1.414 . S
C626 C627 1.374 . S
C627 H607 0.950 . S
C627 C623 1.385 . S
C627 C626 1.374 . S
C628 C625 1.499 . S
C628 C629 1.373 . S
C628 C630 1.389 . S
C629 H608 0.950 . S
C629 C628 1.373 . S
C629 C645 1.377 . S
C630 C628 1.389 . S
C630 C631 1.524 . S
C630 C644 1.377 . S
C631 C630 1.524 . S
C631 C632 1.397 . S
C631 C636 1.363 . S
C632 H609 0.950 . S
C632 C631 1.397 . S
C632 C633 1.334 . S
C633 H610 0.950 . S
C633 C632 1.334 . S
C633 C634 1.287 . S
C634 C633 1.287 . S
C634 C635 1.524 . S
C634 H653 0.913 . S
C635 H611 0.950 . S
C635 C634 1.524 . S
C635 C636 1.415 . S
C636 H612 0.950 . S
C636 C631 1.363 . S
C636 C635 1.415 . S
C637 H613 0.951 . S
C637 C638 1.366 . S
C637 C639 1.388 . S
C638 C637 1.366 . S
C638 C642 1.385 . S
C639 H614 0.951 . S
C639 C637 1.388 . S
C639 C640 1.366 . S
C640 C639 1.366 . S
C640 C641 1.414 . S
C640 C643 1.499 . S
C641 H615 0.950 . S
C641 C640 1.414 . S
C641 C642 1.374 . S
C642 H616 0.950 . S
C642 C638 1.385 . S
C642 C641 1.374 . S
C643 C640 1.499 . S
C643 C644 1.373 . S
C643 C645 1.389 . S
C644 H617 0.950 . S
C644 C630 1.377 . S
C644 C643 1.373 . S
C645 C629 1.377 . S
C645 C643 1.389 . S
C645 C646 1.524 . S
C646 C645 1.524 . S
C646 C647 1.397 . S
C646 C651 1.363 . S
C647 H618 0.950 . S
C647 C646 1.397 . S
C647 C648 1.334 . S
C648 H619 0.950 . S
C648 C647 1.334 . S
C648 C649 1.287 . S
C649 C648 1.287 . S
C649 C650 1.524 . S
C649 H652 0.999 . S
C650 H620 0.950 . S
C650 C649 1.524 . S
C650 C651 1.415 . S
C651 H621 0.950 . S
C651 C646 1.363 . S
C651 C650 1.415 . S
H652 C649 0.999 . S
H653 C634 0.913 . S
H654 C672 0.951 . S
H655 C674 0.951 . S
H656 C676 0.950 . S
H657 C677 0.950 . S
H658 C679 0.950 . S
H659 C682 0.950 . S
H660 C683 0.950 . S
H661 C685 0.950 . S
H662 C686 0.950 . S
H663 C687 0.951 . S
H664 C689 0.951 . S
H665 C691 0.950 . S
H666 C692 0.950 . S
H667 C694 0.950 . S
H668 C697 0.950 . S
H669 C698 0.950 . S
H670 C700 0.950 . S
H671 C701 0.950 . S
C672 H654 0.951 . S
C672 C673 1.366 . S
C672 C674 1.388 . S
C673 C672 1.366 . S
C673 C677 1.385 . S
C674 H655 0.951 . S
C674 C672 1.388 . S
C674 C675 1.366 . S
C675 C674 1.366 . S
C675 C676 1.414 . S
C675 C678 1.499 . S
C676 H656 0.950 . S
C676 C675 1.414 . S
C676 C677 1.374 . S
C677 H657 0.950 . S
C677 C673 1.385 . S
C677 C676 1.374 . S
C678 C675 1.499 . S
C678 C679 1.373 . S
C678 C680 1.389 . S
C679 H658 0.950 . S
C679 C678 1.373 . S
C679 C695 1.377 . S
C680 C678 1.389 . S
C680 C681 1.524 . S
C680 C694 1.377 . S
C681 C680 1.524 . S
C681 C682 1.397 . S
C681 C686 1.363 . S
C682 H659 0.950 . S
C682 C681 1.397 . S
C682 C683 1.334 . S
C683 H660 0.950 . S
C683 C682 1.334 . S
C683 C684 1.287 . S
C684 C683 1.287 . S
C684 C685 1.524 . S
C684 H703 0.913 . S
C685 H661 0.950 . S
C685 C684 1.524 . S
C685 C686 1.415 . S
C686 H662 0.950 . S
C686 C681 1.363 . S
C686 C685 1.415 . S
C687 H663 0.951 . S
C687 C688 1.366 . S
C687 C689 1.388 . S
C688 C687 1.366 . S
C688 C692 1.385 . S
C689 H664 0.951 . S
C689 C687 1.388 . S
C689 C690 1.366 . S
C690 C689 1.366 . S
C690 C691 1.414 . S
C690 C693 1.499 . S
C691 H665 0.950 . S
C691 C690 1.414 . S
C691 C692 1.374 . S
C692 H666 0.950 . S
C692 C688 1.385 . S
C692 C691 1.374 . S
C693 C690 1.499 . S
C693 C694 1.373 . S
C693 C695 1.389 . S
C694 H667 0.950 . S
C694 C680 1.377 . S
C694 C693 1.373 . S
C695 C679 1.377 . S
C695 C693 1.389 . S
C695 C696 1.524 . S
C696 C695 1.524 . S
C696 C697 1.397 . S
C696 C701 1.363 . S
C697 H668 0.950 . S
C697 C696 1.397 . S
C697 C698 1.334 . S
C698 H669 0.950 . S
C698 C697 1.334 . S
C698 C699 1.287 . S
C699 C698 1.287 . S
C699 C700 1.524 . S
C699 H702 0.999 . S
C700 H670 0.950 . S
C700 C699 1.524 . S
C700 C701 1.415 . S
C701 H671 0.950 . S
C701 C696 1.363 . S
C701 C700 1.415 . S
H702 C699 0.999 . S
H703 C684 0.913 . S
H704 C722 0.951 . S
H705 C724 0.951 . S
H706 C726 0.950 . S
H707 C727 0.950 . S
H708 C729 0.950 . S
H709 C732 0.950 . S
H710 C733 0.950 . S
H711 C735 0.950 . S
H712 C736 0.950 . S
H713 C737 0.951 . S
H714 C739 0.951 . S
H715 C741 0.950 . S
H716 C742 0.950 . S
H717 C744 0.950 . S
H718 C747 0.950 . S
H719 C748 0.950 . S
H720 C750 0.950 . S
H721 C751 0.950 . S
C722 H704 0.951 . S
C722 C723 1.366 . S
C722 C724 1.388 . S
C723 C722 1.366 . S
C723 C727 1.385 . S
C724 H705 0.951 . S
C724 C722 1.388 . S
C724 C725 1.366 . S
C725 C724 1.366 . S
C725 C726 1.414 . S
C725 C728 1.499 . S
C726 H706 0.950 . S
C726 C725 1.414 . S
C726 C727 1.374 . S
C727 H707 0.950 . S
C727 C723 1.385 . S
C727 C726 1.374 . S
C728 C725 1.499 . S
C728 C729 1.373 . S
C728 C730 1.389 . S
C729 H708 0.950 . S
C729 C728 1.373 . S
C729 C745 1.377 . S
C730 C728 1.389 . S
C730 C731 1.524 . S
C730 C744 1.377 . S
C731 C730 1.524 . S
C731 C732 1.397 . S
C731 C736 1.363 . S
C732 H709 0.950 . S
C732 C731 1.397 . S
C732 C733 1.334 . S
C733 H710 0.950 . S
C733 C732 1.334 . S
C733 C734 1.287 . S
C734 C733 1.287 . S
C734 C735 1.524 . S
C734 H753 0.913 . S
C735 H711 0.950 . S
C735 C734 1.524 . S
C735 C736 1.415 . S
C736 H712 0.950 . S
C736 C731 1.363 . S
C736 C735 1.415 . S
C737 H713 0.951 . S
C737 C738 1.366 . S
C737 C739 1.388 . S
C738 C737 1.366 . S
C738 C742 1.385 . S
C739 H714 0.951 . S
C739 C737 1.388 . S
C739 C740 1.366 . S
C740 C739 1.366 . S
C740 C741 1.414 . S
C740 C743 1.499 . S
C741 H715 0.950 . S
C741 C740 1.414 . S
C741 C742 1.374 . S
C742 H716 0.950 . S
C742 C738 1.385 . S
C742 C741 1.374 . S
C743 C740 1.499 . S
C743 C744 1.373 . S
C743 C745 1.389 . S
C744 H717 0.950 . S
C744 C730 1.377 . S
C744 C743 1.373 . S
C745 C729 1.377 . S
C745 C743 1.389 . S
C745 C746 1.524 . S
C746 C745 1.524 . S
C746 C747 1.397 . S
C746 C751 1.363 . S
C747 H718 0.950 . S
C747 C746 1.397 . S
C747 C748 1.334 . S
C748 H719 0.950 . S
C748 C747 1.334 . S
C748 C749 1.287 . S
C749 C748 1.287 . S
C749 C750 1.524 . S
C749 H752 0.999 . S
C750 H720 0.950 . S
C750 C749 1.524 . S
C750 C751 1.415 . S
C751 H721 0.950 . S
C751 C746 1.363 . S
C751 C750 1.415 . S
H752 C749 0.999 . S
H753 C734 0.913 . S
H754 C772 0.951 . S
H755 C774 0.951 . S
H756 C776 0.950 . S
H757 C777 0.950 . S
H758 C779 0.950 . S
H759 C782 0.950 . S
H760 C783 0.950 . S
H761 C785 0.950 . S
H762 C786 0.950 . S
H763 C787 0.951 . S
H764 C789 0.951 . S
H765 C791 0.950 . S
H766 C792 0.950 . S
H767 C794 0.950 . S
H768 C797 0.950 . S
H769 C798 0.950 . S
H770 C800 0.950 . S
H771 C801 0.950 . S
C772 H754 0.951 . S
C772 C773 1.366 . S
C772 C774 1.388 . S
C773 C772 1.366 . S
C773 C777 1.385 . S
C774 H755 0.951 . S
C774 C772 1.388 . S
C774 C775 1.366 . S
C775 C774 1.366 . S
C775 C776 1.414 . S
C775 C778 1.499 . S
C776 H756 0.950 . S
C776 C775 1.414 . S
C776 C777 1.374 . S
C777 H757 0.950 . S
C777 C773 1.385 . S
C777 C776 1.374 . S
C778 C775 1.499 . S
C778 C779 1.373 . S
C778 C780 1.389 . S
C779 H758 0.950 . S
C779 C778 1.373 . S
C779 C795 1.377 . S
C780 C778 1.389 . S
C780 C781 1.524 . S
C780 C794 1.377 . S
C781 C780 1.524 . S
C781 C782 1.397 . S
C781 C786 1.363 . S
C782 H759 0.950 . S
C782 C781 1.397 . S
C782 C783 1.334 . S
C783 H760 0.950 . S
C783 C782 1.334 . S
C783 C784 1.287 . S
C784 C783 1.287 . S
C784 C785 1.524 . S
C784 H803 0.913 . S
C785 H761 0.950 . S
C785 C784 1.524 . S
C785 C786 1.415 . S
C786 H762 0.950 . S
C786 C781 1.363 . S
C786 C785 1.415 . S
C787 H763 0.951 . S
C787 C788 1.366 . S
C787 C789 1.388 . S
C788 C787 1.366 . S
C788 C792 1.385 . S
C789 H764 0.951 . S
C789 C787 1.388 . S
C789 C790 1.366 . S
C790 C789 1.366 . S
C790 C791 1.414 . S
C790 C793 1.499 . S
C791 H765 0.950 . S
C791 C790 1.414 . S
C791 C792 1.374 . S
C792 H766 0.950 . S
C792 C788 1.385 . S
C792 C791 1.374 . S
C793 C790 1.499 . S
C793 C794 1.373 . S
C793 C795 1.389 . S
C794 H767 0.950 . S
C794 C780 1.377 . S
C794 C793 1.373 . S
C795 C779 1.377 . S
C795 C793 1.389 . S
C795 C796 1.524 . S
C796 C795 1.524 . S
C796 C797 1.397 . S
C796 C801 1.363 . S
C797 H768 0.950 . S
C797 C796 1.397 . S
C797 C798 1.334 . S
C798 H769 0.950 . S
C798 C797 1.334 . S
C798 C799 1.287 . S
C799 C798 1.287 . S
C799 C800 1.524 . S
C799 H802 0.999 . S
C800 H770 0.950 . S
C800 C799 1.524 . S
C800 C801 1.415 . S
C801 H771 0.950 . S
C801 C796 1.363 . S
C801 C800 1.415 . S
H802 C799 0.999 . S
H803 C784 0.913 . S
H804 C822 0.951 . S
H805 C824 0.951 . S
H806 C826 0.950 . S
H807 C827 0.950 . S
H808 C829 0.950 . S
H809 C832 0.950 . S
H810 C833 0.950 . S
H811 C835 0.950 . S
H812 C836 0.950 . S
H813 C837 0.951 . S
H814 C839 0.951 . S
H815 C841 0.950 . S
H816 C842 0.950 . S
H817 C844 0.950 . S
H818 C847 0.950 . S
H819 C848 0.950 . S
H820 C850 0.950 . S
H821 C851 0.950 . S
C822 H804 0.951 . S
C822 C823 1.366 . S
C822 C824 1.388 . S
C823 C822 1.366 . S
C823 C827 1.385 . S
C824 H805 0.951 . S
C824 C822 1.388 . S
C824 C825 1.366 . S
C825 C824 1.366 . S
C825 C826 1.414 . S
C825 C828 1.499 . S
C826 H806 0.950 . S
C826 C825 1.414 . S
C826 C827 1.374 . S
C827 H807 0.950 . S
C827 C823 1.385 . S
C827 C826 1.374 . S
C828 C825 1.499 . S
C828 C829 1.373 . S
C828 C830 1.389 . S
C829 H808 0.950 . S
C829 C828 1.373 . S
C829 C845 1.377 . S
C830 C828 1.389 . S
C830 C831 1.524 . S
C830 C844 1.377 . S
C831 C830 1.524 . S
C831 C832 1.397 . S
C831 C836 1.363 . S
C832 H809 0.950 . S
C832 C831 1.397 . S
C832 C833 1.334 . S
C833 H810 0.950 . S
C833 C832 1.334 . S
C833 C834 1.287 . S
C834 C833 1.287 . S
C834 C835 1.524 . S
C834 H853 0.913 . S
C835 H811 0.950 . S
C835 C834 1.524 . S
C835 C836 1.415 . S
C836 H812 0.950 . S
C836 C831 1.363 . S
C836 C835 1.415 . S
C837 H813 0.951 . S
C837 C838 1.366 . S
C837 C839 1.388 . S
C838 C837 1.366 . S
C838 C842 1.385 . S
C839 H814 0.951 . S
C839 C837 1.388 . S
C839 C840 1.366 . S
C840 C839 1.366 . S
C840 C841 1.414 . S
C840 C843 1.499 . S
C841 H815 0.950 . S
C841 C840 1.414 . S
C841 C842 1.374 . S
C842 H816 0.950 . S
C842 C838 1.385 . S
C842 C841 1.374 . S
C843 C840 1.499 . S
C843 C844 1.373 . S
C843 C845 1.389 . S
C844 H817 0.950 . S
C844 C830 1.377 . S
C844 C843 1.373 . S
C845 C829 1.377 . S
C845 C843 1.389 . S
C845 C846 1.524 . S
C846 C845 1.524 . S
C846 C847 1.397 . S
C846 C851 1.363 . S
C847 H818 0.950 . S
C847 C846 1.397 . S
C847 C848 1.334 . S
C848 H819 0.950 . S
C848 C847 1.334 . S
C848 C849 1.287 . S
C849 C848 1.287 . S
C849 C850 1.524 . S
C849 H852 0.999 . S
C850 H820 0.950 . S
C850 C849 1.524 . S
C850 C851 1.415 . S
C851 H821 0.950 . S
C851 C846 1.363 . S
C851 C850 1.415 . S
H852 C849 0.999 . S
H853 C834 0.913 . S
H854 C872 0.951 . S
H855 C874 0.951 . S
H856 C876 0.950 . S
H857 C877 0.950 . S
H858 C879 0.950 . S
H859 C882 0.950 . S
H860 C883 0.950 . S
H861 C885 0.950 . S
H862 C886 0.950 . S
H863 C887 0.951 . S
H864 C889 0.951 . S
H865 C891 0.950 . S
H866 C892 0.950 . S
H867 C894 0.950 . S
H868 C897 0.950 . S
H869 C898 0.950 . S
H870 C900 0.950 . S
H871 C901 0.950 . S
C872 H854 0.951 . S
C872 C873 1.366 . S
C872 C874 1.388 . S
C873 C872 1.366 . S
C873 C877 1.385 . S
C874 H855 0.951 . S
C874 C872 1.388 . S
C874 C875 1.366 . S
C875 C874 1.366 . S
C875 C876 1.414 . S
C875 C878 1.499 . S
C876 H856 0.950 . S
C876 C875 1.414 . S
C876 C877 1.374 . S
C877 H857 0.950 . S
C877 C873 1.385 . S
C877 C876 1.374 . S
C878 C875 1.499 . S
C878 C879 1.373 . S
C878 C880 1.389 . S
C879 H858 0.950 . S
C879 C878 1.373 . S
C879 C895 1.377 . S
C880 C878 1.389 . S
C880 C881 1.524 . S
C880 C894 1.377 . S
C881 C880 1.524 . S
C881 C882 1.397 . S
C881 C886 1.363 . S
C882 H859 0.950 . S
C882 C881 1.397 . S
C882 C883 1.334 . S
C883 H860 0.950 . S
C883 C882 1.334 . S
C883 C884 1.287 . S
C884 C883 1.287 . S
C884 C885 1.524 . S
C884 H903 0.913 . S
C885 H861 0.950 . S
C885 C884 1.524 . S
C885 C886 1.415 . S
C886 H862 0.950 . S
C886 C881 1.363 . S
C886 C885 1.415 . S
C887 H863 0.951 . S
C887 C888 1.366 . S
C887 C889 1.388 . S
C888 C887 1.366 . S
C888 C892 1.385 . S
C889 H864 0.951 . S
C889 C887 1.388 . S
C889 C890 1.366 . S
C890 C889 1.366 . S
C890 C891 1.414 . S
C890 C893 1.499 . S
C891 H865 0.950 . S
C891 C890 1.414 . S
C891 C892 1.374 . S
C892 H866 0.950 . S
C892 C888 1.385 . S
C892 C891 1.374 . S
C893 C890 1.499 . S
C893 C894 1.373 . S
C893 C895 1.389 . S
C894 H867 0.950 . S
C894 C880 1.377 . S
C894 C893 1.373 . S
C895 C879 1.377 . S
C895 C893 1.389 . S
C895 C896 1.524 . S
C896 C895 1.524 . S
C896 C897 1.397 . S
C896 C901 1.363 . S
C897 H868 0.950 . S
C897 C896 1.397 . S
C897 C898 1.334 . S
C898 H869 0.950 . S
C898 C897 1.334 . S
C898 C899 1.287 . S
C899 C898 1.287 . S
C899 C900 1.524 . S
C899 H902 0.999 . S
C900 H870 0.950 . S
C900 C899 1.524 . S
C900 C901 1.415 . S
C901 H871 0.950 . S
C901 C896 1.363 . S
C901 C900 1.415 . S
H902 C899 0.999 . S
H903 C884 0.913 . S
H904 C922 0.951 . S
H905 C924 0.951 . S
H906 C926 0.950 . S
H907 C927 0.950 . S
H908 C929 0.950 . S
H909 C932 0.950 . S
H910 C933 0.950 . S
H911 C935 0.950 . S
H912 C936 0.950 . S
H913 C937 0.951 . S
H914 C939 0.951 . S
H915 C941 0.950 . S
H916 C942 0.950 . S
H917 C944 0.950 . S
H918 C947 0.950 . S
H919 C948 0.950 . S
H920 C950 0.950 . S
H921 C951 0.950 . S
C922 H904 0.951 . S
C922 C923 1.366 . S
C922 C924 1.388 . S
C923 C922 1.366 . S
C923 C927 1.385 . S
C924 H905 0.951 . S
C924 C922 1.388 . S
C924 C925 1.366 . S
C925 C924 1.366 . S
C925 C926 1.414 . S
C925 C928 1.499 . S
C926 H906 0.950 . S
C926 C925 1.414 . S
C926 C927 1.374 . S
C927 H907 0.950 . S
C927 C923 1.385 . S
C927 C926 1.374 . S
C928 C925 1.499 . S
C928 C929 1.373 . S
C928 C930 1.389 . S
C929 H908 0.950 . S
C929 C928 1.373 . S
C929 C945 1.377 . S
C930 C928 1.389 . S
C930 C931 1.524 . S
C930 C944 1.377 . S
C931 C930 1.524 . S
C931 C932 1.397 . S
C931 C936 1.363 . S
C932 H909 0.950 . S
C932 C931 1.397 . S
C932 C933 1.334 . S
C933 H910 0.950 . S
C933 C932 1.334 . S
C933 C934 1.287 . S
C934 C933 1.287 . S
C934 C935 1.524 . S
C934 H953 0.913 . S
C935 H911 0.950 . S
C935 C934 1.524 . S
C935 C936 1.415 . S
C936 H912 0.950 . S
C936 C931 1.363 . S
C936 C935 1.415 . S
C937 H913 0.951 . S
C937 C938 1.366 . S
C937 C939 1.388 . S
C938 C937 1.366 . S
C938 C942 1.385 . S
C939 H914 0.951 . S
C939 C937 1.388 . S
C939 C940 1.366 . S
C940 C939 1.366 . S
C940 C941 1.414 . S
C940 C943 1.499 . S
C941 H915 0.950 . S
C941 C940 1.414 . S
C941 C942 1.374 . S
C942 H916 0.950 . S
C942 C938 1.385 . S
C942 C941 1.374 . S
C943 C940 1.499 . S
C943 C944 1.373 . S
C943 C945 1.389 . S
C944 H917 0.950 . S
C944 C930 1.377 . S
C944 C943 1.373 . S
C945 C929 1.377 . S
C945 C943 1.389 . S
C945 C946 1.524 . S
C946 C945 1.524 . S
C946 C947 1.397 . S
C946 C951 1.363 . S
C947 H918 0.950 . S
C947 C946 1.397 . S
C947 C948 1.334 . S
C948 H919 0.950 . S
C948 C947 1.334 . S
C948 C949 1.287 . S
C949 C948 1.287 . S
C949 C950 1.524 . S
C949 H952 0.999 . S
C950 H920 0.950 . S
C950 C949 1.524 . S
C950 C951 1.415 . S
C951 H921 0.950 . S
C951 C946 1.363 . S
C951 C950 1.415 . S
H952 C949 0.999 . S
H953 C934 0.913 . S
H954 C972 0.951 . S
H955 C974 0.951 . S
H956 C976 0.950 . S
H957 C977 0.950 . S
H958 C979 0.950 . S
H959 C982 0.950 . S
H960 C983 0.950 . S
H961 C985 0.950 . S
H962 C986 0.950 . S
H963 C987 0.951 . S
H964 C989 0.951 . S
H965 C991 0.950 . S
H966 C992 0.950 . S
H967 C994 0.950 1_655 S
H968 C997 0.950 . S
H969 C998 0.950 . S
H970 C1000 0.950 . S
H971 C1001 0.950 . S
C972 H954 0.951 . S
C972 C973 1.366 . S
C972 C974 1.388 . S
C973 C972 1.366 . S
C973 C977 1.385 . S
C974 H955 0.951 . S
C974 C972 1.388 . S
C974 C975 1.366 . S
C975 C974 1.366 . S
C975 C976 1.414 . S
C975 C978 1.499 . S
C976 H956 0.950 . S
C976 C975 1.414 . S
C976 C977 1.374 . S
C977 H957 0.950 . S
C977 C973 1.385 . S
C977 C976 1.374 . S
C978 C975 1.499 . S
C978 C979 1.373 . S
C978 C980 1.389 . S
C979 H958 0.950 . S
C979 C978 1.373 . S
C979 C995 1.377 . S
C980 C978 1.389 . S
C980 C981 1.524 1_455 S
C980 C994 1.377 . S
C981 C980 1.524 1_655 S
C981 C982 1.397 . S
C981 C986 1.363 . S
C982 H959 0.950 . S
C982 C981 1.397 . S
C982 C983 1.334 . S
C983 H960 0.950 . S
C983 C982 1.334 . S
C983 C984 1.287 . S
C984 C983 1.287 . S
C984 C985 1.524 . S
C984 H1003 0.913 . S
C985 H961 0.950 . S
C985 C984 1.524 . S
C985 C986 1.415 . S
C986 H962 0.950 . S
C986 C981 1.363 . S
C986 C985 1.415 . S
C987 H963 0.951 . S
C987 C988 1.366 . S
C987 C989 1.388 1_556 S
C988 C987 1.366 . S
C988 C992 1.385 . S
C989 H964 0.951 . S
C989 C987 1.388 1_554 S
C989 C990 1.366 . S
C990 C989 1.366 . S
C990 C991 1.414 . S
C990 C993 1.499 . S
C991 H965 0.950 . S
C991 C990 1.414 . S
C991 C992 1.374 1_554 S
C992 H966 0.950 . S
C992 C988 1.385 . S
C992 C991 1.374 1_556 S
C993 C990 1.499 . S
C993 C994 1.373 . S
C993 C995 1.389 . S
C994 H967 0.950 1_455 S
C994 C980 1.377 . S
C994 C993 1.373 . S
C995 C979 1.377 . S
C995 C993 1.389 . S
C995 C996 1.524 . S
C996 C995 1.524 . S
C996 C997 1.397 . S
C996 C1001 1.363 . S
C997 H968 0.950 . S
C997 C996 1.397 . S
C997 C998 1.334 . S
C998 H969 0.950 . S
C998 C997 1.334 . S
C998 C999 1.287 . S
C999 C998 1.287 . S
C999 C1000 1.524 . S
C999 H1002 0.999 . S
C1000 H970 0.950 . S
C1000 C999 1.524 . S
C1000 C1001 1.415 . S
C1001 H971 0.950 . S
C1001 C996 1.363 . S
C1001 C1000 1.415 . S
H1002 C999 0.999 . S
H1003 C984 0.913 . S
H1004 C1022 0.951 . S
H1005 C1024 0.951 . S
H1006 C1026 0.970 . S
H1007 C1027 0.950 . S
H1008 C1029 0.950 . S
H1009 C1032 0.950 1_565 S
H1010 C1033 0.950 1_565 S
H1011 C1035 0.950 . S
H1012 C1036 0.950 . S
H1013 C1037 0.951 1_565 S
H1014 C1039 0.951 1_565 S
H1015 C1041 0.950 . S
H1016 C1042 0.950 . S
H1017 C1044 0.950 . S
H1018 C1047 0.950 . S
H1019 C1048 0.950 . S
H1020 C1050 0.950 . S
H1021 C1051 0.950 . S
C1022 H1004 0.951 . S
C1022 C1023 1.366 . S
C1022 C1024 1.388 . S
C1023 C1022 1.366 . S
C1023 C1027 1.385 1_545 S
C1024 H1005 0.951 . S
C1024 C1022 1.388 . S
C1024 C1025 1.366 . S
C1025 C1024 1.366 . S
C1025 C1026 1.393 1_545 S
C1025 C1028 1.499 . S
C1026 H1006 0.970 . S
C1026 C1025 1.393 1_565 S
C1026 C1027 1.376 . S
C1027 H1007 0.950 . S
C1027 C1023 1.385 1_565 S
C1027 C1026 1.376 . S
C1028 C1025 1.499 . S
C1028 C1029 1.373 . S
C1028 C1030 1.389 . S
C1029 H1008 0.950 . S
C1029 C1028 1.373 . S
C1029 C1045 1.377 . S
C1030 C1028 1.389 . S
C1030 C1031 1.524 . S
C1030 C1044 1.377 . S
C1031 C1030 1.524 . S
C1031 C1032 1.397 . S
C1031 C1036 1.363 . S
C1032 H1009 0.950 1_545 S
C1032 C1031 1.397 . S
C1032 C1033 1.334 . S
C1033 H1010 0.950 1_545 S
C1033 C1032 1.334 . S
C1033 C1034 1.287 . S
C1034 C1033 1.287 . S
C1034 C1035 1.524 . S
C1034 H1053 0.913 . S
C1035 H1011 0.950 . S
C1035 C1034 1.524 . S
C1035 C1036 1.415 . S
C1036 H1012 0.950 . S
C1036 C1031 1.363 . S
C1036 C1035 1.415 . S
C1037 H1013 0.951 1_545 S
C1037 C1038 1.366 . S
C1037 C1039 1.388 . S
C1038 C1037 1.366 . S
C1038 C1042 1.385 . S
C1039 H1014 0.951 1_545 S
C1039 C1037 1.388 . S
C1039 C1040 1.366 . S
C1040 C1039 1.366 . S
C1040 C1041 1.414 . S
C1040 C1043 1.499 . S
C1041 H1015 0.950 . S
C1041 C1040 1.414 . S
C1041 C1042 1.374 . S
C1042 H1016 0.950 . S
C1042 C1038 1.385 . S
C1042 C1041 1.374 . S
C1043 C1040 1.499 . S
C1043 C1044 1.373 . S
C1043 C1045 1.389 . S
C1044 H1017 0.950 . S
C1044 C1030 1.377 . S
C1044 C1043 1.373 . S
C1045 C1029 1.377 . S
C1045 C1043 1.389 . S
C1045 C1046 1.524 . S
C1046 C1045 1.524 . S
C1046 C1047 1.397 . S
C1046 C1051 1.363 1_545 S
C1047 H1018 0.950 . S
C1047 C1046 1.397 . S
C1047 C1048 1.334 . S
C1048 H1019 0.950 . S
C1048 C1047 1.334 . S
C1048 C1049 1.287 . S
C1049 C1048 1.287 . S
C1049 C1050 1.524 1_545 S
C1049 H1052 0.999 . S
C1050 H1020 0.950 . S
C1050 C1049 1.524 1_565 S
C1050 C1051 1.415 . S
C1051 H1021 0.950 . S
C1051 C1046 1.363 1_565 S
C1051 C1050 1.415 . S
H1052 C1049 0.999 . S
H1053 C1034 0.913 . S
H1054 C1072 0.951 . S
H1055 C1074 0.951 . S
H1056 C1076 0.950 . S
H1057 C1077 0.950 . S
H1058 C1079 0.950 . S
H1059 C1082 0.950 . S
H1060 C1083 0.950 . S
H1061 C1085 0.950 . S
H1062 C1086 0.950 . S
H1063 C1087 0.951 . S
H1064 C1089 0.951 . S
H1065 C1091 0.950 . S
H1066 C1092 0.950 . S
H1067 C1094 0.950 . S
H1068 C1097 0.950 . S
H1069 C1098 0.950 . S
H1070 C1100 0.950 . S
H1071 C1101 0.950 . S
C1072 H1054 0.951 . S
C1072 C1073 1.366 . S
C1072 C1074 1.388 . S
C1073 C1072 1.366 . S
C1073 C1077 1.385 . S
C1074 H1055 0.951 . S
C1074 C1072 1.388 . S
C1074 C1075 1.366 . S
C1075 C1074 1.366 . S
C1075 C1076 1.414 . S
C1075 C1078 1.499 . S
C1076 H1056 0.950 . S
C1076 C1075 1.414 . S
C1076 C1077 1.374 . S
C1077 H1057 0.950 . S
C1077 C1073 1.385 . S
C1077 C1076 1.374 . S
C1078 C1075 1.499 . S
C1078 C1079 1.373 . S
C1078 C1080 1.389 . S
C1079 H1058 0.950 . S
C1079 C1078 1.373 . S
C1079 C1095 1.377 . S
C1080 C1078 1.389 . S
C1080 C1081 1.524 . S
C1080 C1094 1.377 . S
C1081 C1080 1.524 . S
C1081 C1082 1.397 . S
C1081 C1086 1.363 . S
C1082 H1059 0.950 . S
C1082 C1081 1.397 . S
C1082 C1083 1.334 . S
C1083 H1060 0.950 . S
C1083 C1082 1.334 . S
C1083 C1084 1.287 . S
C1084 C1083 1.287 . S
C1084 C1085 1.524 . S
C1084 H1103 0.913 . S
C1085 H1061 0.950 . S
C1085 C1084 1.524 . S
C1085 C1086 1.415 . S
C1086 H1062 0.950 . S
C1086 C1081 1.363 . S
C1086 C1085 1.415 . S
C1087 H1063 0.951 . S
C1087 C1088 1.366 . S
C1087 C1089 1.388 . S
C1088 C1087 1.366 . S
C1088 C1092 1.385 . S
C1089 H1064 0.951 . S
C1089 C1087 1.388 . S
C1089 C1090 1.366 . S
C1090 C1089 1.366 . S
C1090 C1091 1.414 . S
C1090 C1093 1.499 . S
C1091 H1065 0.950 . S
C1091 C1090 1.414 . S
C1091 C1092 1.374 . S
C1092 H1066 0.950 . S
C1092 C1088 1.385 . S
C1092 C1091 1.374 . S
C1093 C1090 1.499 . S
C1093 C1094 1.373 . S
C1093 C1095 1.389 . S
C1094 H1067 0.950 . S
C1094 C1080 1.377 . S
C1094 C1093 1.373 . S
C1095 C1079 1.377 . S
C1095 C1093 1.389 . S
C1095 C1096 1.524 . S
C1096 C1095 1.524 . S
C1096 C1097 1.397 . S
C1096 C1101 1.363 . S
C1097 H1068 0.950 . S
C1097 C1096 1.397 . S
C1097 C1098 1.334 . S
C1098 H1069 0.950 . S
C1098 C1097 1.334 . S
C1098 C1099 1.287 . S
C1099 C1098 1.287 . S
C1099 C1100 1.524 . S
C1099 H1102 0.999 . S
C1100 H1070 0.950 . S
C1100 C1099 1.524 . S
C1100 C1101 1.415 . S
C1101 H1071 0.950 . S
C1101 C1096 1.363 . S
C1101 C1100 1.415 . S
H1102 C1099 0.999 . S
H1103 C1084 0.913 . S
H1104 C1122 0.951 . S
H1105 C1124 0.951 . S
H1106 C1126 0.950 . S
H1107 C1127 0.950 . S
H1108 C1129 0.950 . S
H1109 C1132 0.950 . S
H1110 C1133 0.950 . S
H1111 C1135 0.950 . S
H1112 C1136 0.950 . S
H1113 C1137 0.951 . S
H1114 C1139 0.951 . S
H1115 C1141 0.950 . S
H1116 C1142 0.950 . S
H1117 C1144 0.950 . S
H1118 C1147 0.950 . S
H1119 C1148 0.950 . S
H1120 C1150 0.950 . S
H1121 C1151 0.950 . S
C1122 H1104 0.951 . S
C1122 C1123 1.366 . S
C1122 C1124 1.388 . S
C1123 C1122 1.366 . S
C1123 C1127 1.385 1_545 S
C1124 H1105 0.951 . S
C1124 C1122 1.388 . S
C1124 C1125 1.366 . S
C1125 C1124 1.366 . S
C1125 C1126 1.414 1_545 S
C1125 C1128 1.499 . S
C1126 H1106 0.950 . S
C1126 C1125 1.414 1_565 S
C1126 C1127 1.374 . S
C1127 H1107 0.950 . S
C1127 C1123 1.385 1_565 S
C1127 C1126 1.374 . S
C1128 C1125 1.499 . S
C1128 C1129 1.373 1_545 S
C1128 C1130 1.389 . S
C1129 H1108 0.950 . S
C1129 C1128 1.373 1_565 S
C1129 C1145 1.377 . S
C1130 C1128 1.389 . S
C1130 C1131 1.524 . S
C1130 C1144 1.377 . S
C1131 C1130 1.524 . S
C1131 C1132 1.397 . S
C1131 C1136 1.363 . S
C1132 H1109 0.950 . S
C1132 C1131 1.397 . S
C1132 C1133 1.334 . S
C1133 H1110 0.950 . S
C1133 C1132 1.334 . S
C1133 C1134 1.287 . S
C1134 C1133 1.287 . S
C1134 C1135 1.524 . S
C1134 H1153 0.913 . S
C1135 H1111 0.950 . S
C1135 C1134 1.524 . S
C1135 C1136 1.415 . S
C1136 H1112 0.950 . S
C1136 C1131 1.363 . S
C1136 C1135 1.415 . S
C1137 H1113 0.951 . S
C1137 C1138 1.366 1_565 S
C1137 C1139 1.388 . S
C1138 C1137 1.366 1_545 S
C1138 C1142 1.385 . S
C1139 H1114 0.951 . S
C1139 C1137 1.388 . S
C1139 C1140 1.366 1_565 S
C1140 C1139 1.366 1_545 S
C1140 C1141 1.414 . S
C1140 C1143 1.499 . S
C1141 H1115 0.950 . S
C1141 C1140 1.414 . S
C1141 C1142 1.374 . S
C1142 H1116 0.950 . S
C1142 C1138 1.385 . S
C1142 C1141 1.374 . S
C1143 C1140 1.499 . S
C1143 C1144 1.373 . S
C1143 C1145 1.389 1_545 S
C1144 H1117 0.950 . S
C1144 C1130 1.377 . S
C1144 C1143 1.373 . S
C1145 C1129 1.377 . S
C1145 C1143 1.389 1_565 S
C1145 C1146 1.524 . S
C1146 C1145 1.524 . S
C1146 C1147 1.397 . S
C1146 C1151 1.363 . S
C1147 H1118 0.950 . S
C1147 C1146 1.397 . S
C1147 C1148 1.334 . S
C1148 H1119 0.950 . S
C1148 C1147 1.334 . S
C1148 C1149 1.287 . S
C1149 C1148 1.287 . S
C1149 C1150 1.524 . S
C1149 H1152 0.999 . S
C1150 H1120 0.950 . S
C1150 C1149 1.524 . S
C1150 C1151 1.415 . S
C1151 H1121 0.950 . S
C1151 C1146 1.363 . S
C1151 C1150 1.415 . S
H1152 C1149 0.999 . S
H1153 C1134 0.913 . S
H1154 C1172 0.951 . S
H1155 C1174 0.951 . S
H1156 C1176 0.950 . S
H1157 C1177 0.950 . S
H1158 C1179 0.950 . S
H1159 C1182 0.950 . S
H1160 C1183 0.950 . S
H1161 C1185 0.950 . S
H1162 C1186 0.950 . S
H1163 C1187 0.951 . S
H1164 C1189 0.951 . S
H1165 C1191 0.950 . S
H1166 C1192 0.950 . S
H1167 C1194 0.950 . S
H1168 C1197 0.950 . S
H1169 C1198 0.950 . S
H1170 C1200 0.950 . S
H1171 C1201 0.950 . S
C1172 H1154 0.951 . S
C1172 C1173 1.366 . S
C1172 C1174 1.388 . S
C1173 C1172 1.366 . S
C1173 C1177 1.385 . S
C1174 H1155 0.951 . S
C1174 C1172 1.388 . S
C1174 C1175 1.366 . S
C1175 C1174 1.366 . S
C1175 C1176 1.414 . S
C1175 C1178 1.499 . S
C1176 H1156 0.950 . S
C1176 C1175 1.414 . S
C1176 C1177 1.374 . S
C1177 H1157 0.950 . S
C1177 C1173 1.385 . S
C1177 C1176 1.374 . S
C1178 C1175 1.499 . S
C1178 C1179 1.373 . S
C1178 C1180 1.389 . S
C1179 H1158 0.950 . S
C1179 C1178 1.373 . S
C1179 C1195 1.377 . S
C1180 C1178 1.389 . S
C1180 C1181 1.524 . S
C1180 C1194 1.377 . S
C1181 C1180 1.524 . S
C1181 C1182 1.397 . S
C1181 C1186 1.363 . S
C1182 H1159 0.950 . S
C1182 C1181 1.397 . S
C1182 C1183 1.334 . S
C1183 H1160 0.950 . S
C1183 C1182 1.334 . S
C1183 C1184 1.287 . S
C1184 C1183 1.287 . S
C1184 C1185 1.524 . S
C1184 H1203 0.913 . S
C1185 H1161 0.950 . S
C1185 C1184 1.524 . S
C1185 C1186 1.415 . S
C1186 H1162 0.950 . S
C1186 C1181 1.363 . S
C1186 C1185 1.415 . S
C1187 H1163 0.951 . S
C1187 C1188 1.366 . S
C1187 C1189 1.388 1_554 S
C1188 C1187 1.366 . S
C1188 C1192 1.385 . S
C1189 H1164 0.951 . S
C1189 C1187 1.388 1_556 S
C1189 C1190 1.366 . S
C1190 C1189 1.366 . S
C1190 C1191 1.414 . S
C1190 C1193 1.499 . S
C1191 H1165 0.950 . S
C1191 C1190 1.414 . S
C1191 C1192 1.374 1_556 S
C1192 H1166 0.950 . S
C1192 C1188 1.385 . S
C1192 C1191 1.374 1_554 S
C1193 C1190 1.499 . S
C1193 C1194 1.373 . S
C1193 C1195 1.389 . S
C1194 H1167 0.950 . S
C1194 C1180 1.377 . S
C1194 C1193 1.373 . S
C1195 C1179 1.377 . S
C1195 C1193 1.389 . S
C1195 C1196 1.524 . S
C1196 C1195 1.524 . S
C1196 C1197 1.397 . S
C1196 C1201 1.363 . S
C1197 H1168 0.950 . S
C1197 C1196 1.397 . S
C1197 C1198 1.334 . S
C1198 H1169 0.950 . S
C1198 C1197 1.334 . S
C1198 C1199 1.287 . S
C1199 C1198 1.287 . S
C1199 C1200 1.524 . S
C1199 H1202 0.999 . S
C1200 H1170 0.950 . S
C1200 C1199 1.524 . S
C1200 C1201 1.415 . S
C1201 H1171 0.950 . S
C1201 C1196 1.363 . S
C1201 C1200 1.415 . S
H1202 C1199 0.999 . S
H1203 C1184 0.913 . S
H1204 C1222 0.951 . S
H1205 C1224 0.951 . S
H1206 C1226 0.950 . S
H1207 C1227 0.950 . S
H1208 C1229 0.950 . S
H1209 C1232 0.950 . S
H1210 C1233 0.950 . S
H1211 C1235 0.950 . S
H1212 C1236 0.950 1_655 S
H1213 C1237 0.951 . S
H1214 C1239 0.951 . S
H1215 C1241 0.950 . S
H1216 C1242 0.950 . S
H1217 C1244 0.950 . S
H1218 C1247 0.950 . S
H1219 C1248 0.950 . S
H1220 C1250 0.950 . S
H1221 C1251 0.950 . S
C1222 H1204 0.951 . S
C1222 C1223 1.366 1_655 S
C1222 C1224 1.388 . S
C1223 C1222 1.366 1_455 S
C1223 C1227 1.385 . S
C1224 H1205 0.951 . S
C1224 C1222 1.388 . S
C1224 C1225 1.366 1_655 S
C1225 C1224 1.366 1_455 S
C1225 C1226 1.414 . S
C1225 C1228 1.499 . S
C1226 H1206 0.950 . S
C1226 C1225 1.414 . S
C1226 C1227 1.374 . S
C1227 H1207 0.950 . S
C1227 C1223 1.385 . S
C1227 C1226 1.374 . S
C1228 C1225 1.499 . S
C1228 C1229 1.373 . S
C1228 C1230 1.389 . S
C1229 H1208 0.950 . S
C1229 C1228 1.373 . S
C1229 C1245 1.377 . S
C1230 C1228 1.389 . S
C1230 C1231 1.524 . S
C1230 C1244 1.377 . S
C1231 C1230 1.524 . S
C1231 C1232 1.397 . S
C1231 C1236 1.363 . S
C1232 H1209 0.950 . S
C1232 C1231 1.397 . S
C1232 C1233 1.334 . S
C1233 H1210 0.950 . S
C1233 C1232 1.334 . S
C1233 C1234 1.287 . S
C1234 C1233 1.287 . S
C1234 C1235 1.524 . S
C1234 H1253 0.913 . S
C1235 H1211 0.950 . S
C1235 C1234 1.524 . S
C1235 C1236 1.415 . S
C1236 H1212 0.950 1_455 S
C1236 C1231 1.363 . S
C1236 C1235 1.415 . S
C1237 H1213 0.951 . S
C1237 C1238 1.366 . S
C1237 C1239 1.388 . S
C1238 C1237 1.366 . S
C1238 C1242 1.385 1_455 S
C1239 H1214 0.951 . S
C1239 C1237 1.388 . S
C1239 C1240 1.366 . S
C1240 C1239 1.366 . S
C1240 C1241 1.414 1_455 S
C1240 C1243 1.499 . S
C1241 H1215 0.950 . S
C1241 C1240 1.414 1_655 S
C1241 C1242 1.374 . S
C1242 H1216 0.950 . S
C1242 C1238 1.385 1_655 S
C1242 C1241 1.374 . S
C1243 C1240 1.499 . S
C1243 C1244 1.373 . S
C1243 C1245 1.389 . S
C1244 H1217 0.950 . S
C1244 C1230 1.377 . S
C1244 C1243 1.373 . S
C1245 C1229 1.377 . S
C1245 C1243 1.389 . S
C1245 C1246 1.524 1_455 S
C1246 C1245 1.524 1_655 S
C1246 C1247 1.397 . S
C1246 C1251 1.363 1_655 S
C1247 H1218 0.950 . S
C1247 C1246 1.397 . S
C1247 C1248 1.334 . S
C1248 H1219 0.950 . S
C1248 C1247 1.334 . S
C1248 C1249 1.287 . S
C1249 C1248 1.287 . S
C1249 C1250 1.524 1_655 S
C1249 H1252 0.999 . S
C1250 H1220 0.950 . S
C1250 C1249 1.524 1_455 S
C1250 C1251 1.415 . S
C1251 H1221 0.950 . S
C1251 C1246 1.363 1_455 S
C1251 C1250 1.415 . S
H1252 C1249 0.999 . S
H1253 C1234 0.913 . S
C373 C10 3.087 . S
C388 C331 3.044 . S
C423 C55 1.153 . S
C438 C258 1.160 . S
C473 C90 1.848 . S
C488 C297 1.827 . S
C523 C19 2.904 . S
C538 C336 2.888 . S
C588 C253 1.258 . S
C573 C46 1.249 . S
C638 C292 1.984 . S
C623 C99 2.005 . S
C673 C50 1.860 . S
C688 C180 1.833 . S
C723 C95 0.487 . S
C738 C214 0.469 . S
C773 C6 1.287 . S
C788 C136 1.287 . S
C838 C175 1.945 . S
C823 C59 1.974 . S
C888 C219 0.225 . S
C873 C86 0.336 . S
C923 C15 1.173 . S
C938 C141 1.176 . S
C988 C199 1.129 . S
C973 C18 1.108 . S
C1023 C49 1.452 . S
C1038 C121 1.496 . S
C1073 C98 1.340 . S
C1088 C160 1.379 . S
C1138 C277 1.385 . S
C1123 C58 1.340 . S
C1188 C316 1.764 . S
C1173 C89 1.692 . S
C1223 C9 1.455 . S
C1238 C238 1.511 . S
