# Generated by pormake.
# Topology eea, (3,6)-cn, num edge types: 1
# Building blocks:
#     Node 0, Type 0, BuildingBlock: KAKCAD_clean_linker_0, # of connection points: 3
#     Node 1, Type 0, BuildingBlock: KAKCAD_clean_linker_0, # of connection points: 3
#     Node 2, Type 0, BuildingBlock: KAKCAD_clean_linker_0, # of connection points: 3
#     Node 3, Type 0, BuildingBlock: KAKCAD_clean_linker_0, # of connection points: 3
#     Node 4, Type 0, BuildingBlock: KAKCAD_clean_linker_0, # of connection points: 3
#     Node 5, Type 0, BuildingBlock: KAKCAD_clean_linker_0, # of connection points: 3
#     Node 6, Type 0, BuildingBlock: KAKCAD_clean_linker_0, # of connection points: 3
#     Node 7, Type 0, BuildingBlock: KAKCAD_clean_linker_0, # of connection points: 3
#     Node 8, Type 0, BuildingBlock: KAKCAD_clean_linker_0, # of connection points: 3
#     Node 9, Type 0, BuildingBlock: KAKCAD_clean_linker_0, # of connection points: 3
#     Node 10, Type 0, BuildingBlock: KAKCAD_clean_linker_0, # of connection points: 3
#     Node 11, Type 0, BuildingBlock: KAKCAD_clean_linker_0, # of connection points: 3
#     Node 12, Type 0, BuildingBlock: KAKCAD_clean_linker_0, # of connection points: 3
#     Node 13, Type 0, BuildingBlock: KAKCAD_clean_linker_0, # of connection points: 3
#     Node 14, Type 0, BuildingBlock: KAKCAD_clean_linker_0, # of connection points: 3
#     Node 15, Type 0, BuildingBlock: KAKCAD_clean_linker_0, # of connection points: 3
#     Node 16, Type 0, BuildingBlock: KAKCAD_clean_linker_0, # of connection points: 3
#     Node 17, Type 0, BuildingBlock: KAKCAD_clean_linker_0, # of connection points: 3
#     Node 18, Type 1, BuildingBlock: CUWYAW_clean_sbu_0, # of connection points: 6
#     Node 19, Type 1, BuildingBlock: CUWYAW_clean_sbu_0, # of connection points: 6
#     Node 20, Type 1, BuildingBlock: CUWYAW_clean_sbu_0, # of connection points: 6
#     Node 21, Type 1, BuildingBlock: CUWYAW_clean_sbu_0, # of connection points: 6
#     Node 22, Type 1, BuildingBlock: CUWYAW_clean_sbu_0, # of connection points: 6
#     Node 23, Type 1, BuildingBlock: CUWYAW_clean_sbu_0, # of connection points: 6
#     Node 24, Type 1, BuildingBlock: CUWYAW_clean_sbu_0, # of connection points: 6
#     Node 25, Type 1, BuildingBlock: CUWYAW_clean_sbu_0, # of connection points: 6
#     Node 26, Type 1, BuildingBlock: CUWYAW_clean_sbu_0, # of connection points: 6
#     Edge 27, Type (0, 1), BuildingBlock: TEMPAE_clean_linker_10, # of connection points: 2
#     Edge 28, Type (0, 1), BuildingBlock: TEMPAE_clean_linker_10, # of connection points: 2
#     Edge 29, Type (0, 1), BuildingBlock: TEMPAE_clean_linker_10, # of connection points: 2
#     Edge 30, Type (0, 1), BuildingBlock: TEMPAE_clean_linker_10, # of connection points: 2
#     Edge 31, Type (0, 1), BuildingBlock: TEMPAE_clean_linker_10, # of connection points: 2
#     Edge 32, Type (0, 1), BuildingBlock: TEMPAE_clean_linker_10, # of connection points: 2
#     Edge 33, Type (0, 1), BuildingBlock: TEMPAE_clean_linker_10, # of connection points: 2
#     Edge 34, Type (0, 1), BuildingBlock: TEMPAE_clean_linker_10, # of connection points: 2
#     Edge 35, Type (0, 1), BuildingBlock: TEMPAE_clean_linker_10, # of connection points: 2
#     Edge 36, Type (0, 1), BuildingBlock: TEMPAE_clean_linker_10, # of connection points: 2
#     Edge 37, Type (0, 1), BuildingBlock: TEMPAE_clean_linker_10, # of connection points: 2
#     Edge 38, Type (0, 1), BuildingBlock: TEMPAE_clean_linker_10, # of connection points: 2
#     Edge 39, Type (0, 1), BuildingBlock: TEMPAE_clean_linker_10, # of connection points: 2
#     Edge 40, Type (0, 1), BuildingBlock: TEMPAE_clean_linker_10, # of connection points: 2
#     Edge 41, Type (0, 1), BuildingBlock: TEMPAE_clean_linker_10, # of connection points: 2
#     Edge 42, Type (0, 1), BuildingBlock: TEMPAE_clean_linker_10, # of connection points: 2
#     Edge 43, Type (0, 1), BuildingBlock: TEMPAE_clean_linker_10, # of connection points: 2
#     Edge 44, Type (0, 1), BuildingBlock: TEMPAE_clean_linker_10, # of connection points: 2
#     Edge 45, Type (0, 1), BuildingBlock: TEMPAE_clean_linker_10, # of connection points: 2
#     Edge 46, Type (0, 1), BuildingBlock: TEMPAE_clean_linker_10, # of connection points: 2
#     Edge 47, Type (0, 1), BuildingBlock: TEMPAE_clean_linker_10, # of connection points: 2
#     Edge 48, Type (0, 1), BuildingBlock: TEMPAE_clean_linker_10, # of connection points: 2
#     Edge 49, Type (0, 1), BuildingBlock: TEMPAE_clean_linker_10, # of connection points: 2
#     Edge 50, Type (0, 1), BuildingBlock: TEMPAE_clean_linker_10, # of connection points: 2
#     Edge 51, Type (0, 1), BuildingBlock: TEMPAE_clean_linker_10, # of connection points: 2
#     Edge 52, Type (0, 1), BuildingBlock: TEMPAE_clean_linker_10, # of connection points: 2
#     Edge 53, Type (0, 1), BuildingBlock: TEMPAE_clean_linker_10, # of connection points: 2
#     Edge 54, Type (0, 1), BuildingBlock: TEMPAE_clean_linker_10, # of connection points: 2
#     Edge 55, Type (0, 1), BuildingBlock: TEMPAE_clean_linker_10, # of connection points: 2
#     Edge 56, Type (0, 1), BuildingBlock: TEMPAE_clean_linker_10, # of connection points: 2
#     Edge 57, Type (0, 1), BuildingBlock: TEMPAE_clean_linker_10, # of connection points: 2
#     Edge 58, Type (0, 1), BuildingBlock: TEMPAE_clean_linker_10, # of connection points: 2
#     Edge 59, Type (0, 1), BuildingBlock: TEMPAE_clean_linker_10, # of connection points: 2
#     Edge 60, Type (0, 1), BuildingBlock: TEMPAE_clean_linker_10, # of connection points: 2
#     Edge 61, Type (0, 1), BuildingBlock: TEMPAE_clean_linker_10, # of connection points: 2
#     Edge 62, Type (0, 1), BuildingBlock: TEMPAE_clean_linker_10, # of connection points: 2
#     Edge 63, Type (0, 1), BuildingBlock: TEMPAE_clean_linker_10, # of connection points: 2
#     Edge 64, Type (0, 1), BuildingBlock: TEMPAE_clean_linker_10, # of connection points: 2
#     Edge 65, Type (0, 1), BuildingBlock: TEMPAE_clean_linker_10, # of connection points: 2
#     Edge 66, Type (0, 1), BuildingBlock: TEMPAE_clean_linker_10, # of connection points: 2
#     Edge 67, Type (0, 1), BuildingBlock: TEMPAE_clean_linker_10, # of connection points: 2
#     Edge 68, Type (0, 1), BuildingBlock: TEMPAE_clean_linker_10, # of connection points: 2
#     Edge 69, Type (0, 1), BuildingBlock: TEMPAE_clean_linker_10, # of connection points: 2
#     Edge 70, Type (0, 1), BuildingBlock: TEMPAE_clean_linker_10, # of connection points: 2
#     Edge 71, Type (0, 1), BuildingBlock: TEMPAE_clean_linker_10, # of connection points: 2
#     Edge 72, Type (0, 1), BuildingBlock: TEMPAE_clean_linker_10, # of connection points: 2
#     Edge 73, Type (0, 1), BuildingBlock: TEMPAE_clean_linker_10, # of connection points: 2
#     Edge 74, Type (0, 1), BuildingBlock: TEMPAE_clean_linker_10, # of connection points: 2
#     Edge 75, Type (0, 1), BuildingBlock: TEMPAE_clean_linker_10, # of connection points: 2
#     Edge 76, Type (0, 1), BuildingBlock: TEMPAE_clean_linker_10, # of connection points: 2
#     Edge 77, Type (0, 1), BuildingBlock: TEMPAE_clean_linker_10, # of connection points: 2
#     Edge 78, Type (0, 1), BuildingBlock: TEMPAE_clean_linker_10, # of connection points: 2
#     Edge 79, Type (0, 1), BuildingBlock: TEMPAE_clean_linker_10, # of connection points: 2
#     Edge 80, Type (0, 1), BuildingBlock: TEMPAE_clean_linker_10, # of connection points: 2
# Relax obj value: 0.034
# Max RMSD: 0.134
# Mean RMSD: 0.074
data_MOF--net-eea--node1-CUWYAW_clean_sbu_0--node2-KAKCAD_clean_linker_0--edge1-TEMPAE_clean_linker_10
_symmetry_space_group_name_H-M    P1
_symmetry_Int_Tables_number       1
_symmetry_cell_setting            triclinic
loop_
_symmetry_equiv_pos_as_xyz
'x, y, z'
_cell_length_a     63.394541
_cell_length_b     62.951885
_cell_length_c     91.594337
_cell_angle_alpha  93.7006
_cell_angle_beta   93.466754
_cell_angle_gamma 119.86926
loop_
_atom_site_label
_atom_site_type_symbol
_atom_site_fract_x
_atom_site_fract_y
_atom_site_fract_z
_atom_type_partial_charge
C0 C 0.28035 0.16083 0.47407 0.0
C1 C 0.29769 0.15439 0.47883 0.0
C2 C 0.27307 0.15861 0.4591 0.0
C3 C 0.28291 0.1498 0.44856 0.0
C4 C 0.30098 0.14429 0.45329 0.0
C5 C 0.30837 0.14665 0.46829 0.0
C6 C 0.27268 0.14444 0.43288 0.0
C7 C 0.26704 0.16076 0.42622 0.0
C8 C 0.2541 0.15425 0.41209 0.0
C9 C 0.24719 0.13109 0.40462 0.0
C10 C 0.25372 0.11516 0.41088 0.0
C11 C 0.26652 0.12193 0.42495 0.0
C12 C 0.24623 0.09088 0.40298 0.0
C13 C 0.22137 0.07379 0.3989 0.0
C14 C 0.26388 0.08455 0.39968 0.0
C15 C 0.25675 0.0615 0.39226 0.0
C16 C 0.23186 0.04429 0.38837 0.0
C17 C 0.24724 0.17124 0.40531 0.0
C18 C 0.24208 0.18695 0.41408 0.0
C19 C 0.24542 0.17164 0.38995 0.0
C20 C 0.23803 0.18675 0.38355 0.0
C21 C 0.23294 0.20252 0.39232 0.0
C22 C 0.23539 0.2026 0.4077 0.0
C23 C 0.21422 0.05055 0.39178 0.0
H24 H 0.27202 0.1671 0.48195 0.0
H25 H 0.25894 0.16278 0.45583 0.0
H26 H 0.30902 0.13765 0.44541 0.0
H27 H 0.32171 0.14146 0.47166 0.0
H28 H 0.27279 0.17854 0.43216 0.0
H29 H 0.27049 0.10902 0.43 0.0
H30 H 0.2365 0.12517 0.39396 0.0
H31 H 0.20749 0.07831 0.40142 0.0
H32 H 0.28316 0.09752 0.40274 0.0
H33 H 0.27062 0.05695 0.38975 0.0
H34 H 0.24281 0.18701 0.42592 0.0
H35 H 0.24968 0.16027 0.38277 0.0
H36 H 0.19493 0.03751 0.38882 0.0
H37 H 0.23214 0.21475 0.41491 0.0
H38 H 0.23598 0.18567 0.37167 0.0
C39 C 0.87786 0.16358 0.47626 0.0
C40 C 0.86525 0.1434 0.48428 0.0
C41 C 0.88238 0.15993 0.4618 0.0
C42 C 0.87459 0.13604 0.45515 0.0
C43 C 0.86238 0.11597 0.46337 0.0
C44 C 0.85765 0.1196 0.47771 0.0
C45 C 0.87912 0.13182 0.43976 0.0
C46 C 0.90129 0.14803 0.43441 0.0
C47 C 0.90596 0.14343 0.42007 0.0
C48 C 0.88829 0.12198 0.41119 0.0
C49 C 0.86603 0.10545 0.41634 0.0
C50 C 0.86145 0.11095 0.4305 0.0
C51 C 0.84801 0.08198 0.40723 0.0
C52 C 0.84477 0.08071 0.39179 0.0
C53 C 0.83434 0.06034 0.41393 0.0
C54 C 0.81799 0.03813 0.40549 0.0
C55 C 0.81522 0.03669 0.39005 0.0
C56 C 0.92934 0.16085 0.41438 0.0
C57 C 0.93976 0.18647 0.41763 0.0
C58 C 0.94116 0.15204 0.40537 0.0
C59 C 0.96247 0.16839 0.39948 0.0
C60 C 0.97275 0.19401 0.40258 0.0
C61 C 0.96124 0.20283 0.41186 0.0
C62 C 0.82877 0.05833 0.38331 0.0
H63 H 0.88382 0.18212 0.48107 0.0
H64 H 0.89162 0.17578 0.45576 0.0
H65 H 0.85667 0.09739 0.45878 0.0
H66 H 0.84828 0.10376 0.48375 0.0
H67 H 0.91527 0.16385 0.44157 0.0
H68 H 0.84396 0.09895 0.43435 0.0
H69 H 0.89199 0.11808 0.40027 0.0
H70 H 0.85461 0.09699 0.3862 0.0
H71 H 0.83652 0.06034 0.42575 0.0
H72 H 0.80755 0.02206 0.41115 0.0
H73 H 0.93108 0.19394 0.42442 0.0
H74 H 0.93395 0.13245 0.40284 0.0
H75 H 0.8274 0.058 0.37145 0.0
H76 H 0.96881 0.22242 0.41467 0.0
H77 H 0.97061 0.16087 0.39226 0.0
C78 C 0.89767 0.75114 0.4886 0.0
C79 C 0.87363 0.73491 0.49157 0.0
C80 C 0.90254 0.75786 0.47439 0.0
C81 C 0.88348 0.74832 0.46283 0.0
C82 C 0.85954 0.73167 0.46581 0.0
C83 C 0.85467 0.72515 0.48001 0.0
C84 C 0.88827 0.75578 0.44774 0.0
C85 C 0.90933 0.75884 0.44166 0.0
C86 C 0.91319 0.76495 0.42721 0.0
C87 C 0.8958 0.76795 0.41877 0.0
C88 C 0.87495 0.76562 0.42476 0.0
C89 C 0.87149 0.75968 0.43928 0.0
C90 C 0.857 0.76981 0.41602 0.0
C91 C 0.8649 0.78837 0.40649 0.0
C92 C 0.83182 0.75563 0.41739 0.0
C93 C 0.81507 0.76026 0.40971 0.0
C94 C 0.82298 0.77895 0.40028 0.0
C95 C 0.93566 0.76879 0.42093 0.0
C96 C 0.95878 0.78538 0.42844 0.0
C97 C 0.93415 0.7568 0.40711 0.0
C98 C 0.9554 0.76153 0.40081 0.0
C99 C 0.97852 0.77867 0.40811 0.0
C100 C 0.98004 0.79045 0.42202 0.0
C101 C 0.8481 0.79276 0.39865 0.0
H102 H 0.91261 0.75905 0.49735 0.0
H103 H 0.92115 0.77092 0.47253 0.0
H104 H 0.8445 0.72349 0.45713 0.0
H105 H 0.83603 0.71224 0.48192 0.0
H106 H 0.92246 0.75588 0.448 0.0
H107 H 0.85591 0.75864 0.44418 0.0
H108 H 0.89873 0.77237 0.40756 0.0
H109 H 0.88414 0.79987 0.40527 0.0
H110 H 0.82498 0.74091 0.42442 0.0
H111 H 0.79594 0.74941 0.4114 0.0
H112 H 0.96039 0.79495 0.43907 0.0
H113 H 0.9165 0.74387 0.40114 0.0
H114 H 0.85486 0.80704 0.39132 0.0
H115 H 0.99768 0.80366 0.42788 0.0
H116 H 0.95377 0.75233 0.39004 0.0
C117 C 0.12982 0.24655 0.52296 0.0
C118 C 0.12204 0.26277 0.51857 0.0
C119 C 0.12615 0.23829 0.53686 0.0
C120 C 0.11491 0.24628 0.54687 0.0
C121 C 0.10681 0.26224 0.54244 0.0
C122 C 0.11024 0.2703 0.52844 0.0
C123 C 0.11222 0.23838 0.56196 0.0
C124 C 0.13083 0.2361 0.56951 0.0
C125 C 0.12844 0.22806 0.58357 0.0
C126 C 0.10741 0.22319 0.59036 0.0
C127 C 0.08865 0.22568 0.58313 0.0
C128 C 0.09114 0.23302 0.56884 0.0
C129 C 0.06652 0.22061 0.59053 0.0
C130 C 0.0566 0.20173 0.5998 0.0
C131 C 0.05537 0.2349 0.58859 0.0
C132 C 0.03495 0.2305 0.59577 0.0
C133 C 0.02532 0.21192 0.60526 0.0
C134 C 0.14765 0.2242 0.59098 0.0
C135 C 0.15935 0.2142 0.58278 0.0
C136 C 0.15413 0.22997 0.60628 0.0
C137 C 0.1716 0.22552 0.61321 0.0
C138 C 0.18318 0.21551 0.60497 0.0
C139 C 0.17702 0.21006 0.58969 0.0
C140 C 0.03645 0.1976 0.60716 0.0
H141 H 0.13927 0.24059 0.51577 0.0
H142 H 0.13223 0.22565 0.53976 0.0
H143 H 0.09826 0.26894 0.54988 0.0
H144 H 0.1037 0.2825 0.52538 0.0
H145 H 0.14749 0.24098 0.5645 0.0
H146 H 0.07639 0.234 0.56292 0.0
H147 H 0.10562 0.21733 0.60129 0.0
H148 H 0.06433 0.19 0.60138 0.0
H149 H 0.06261 0.2498 0.58169 0.0
H150 H 0.02668 0.24165 0.59381 0.0
H151 H 0.15452 0.20907 0.57103 0.0
H152 H 0.14585 0.23809 0.61292 0.0
H153 H 0.02984 0.18334 0.61451 0.0
H154 H 0.18548 0.20205 0.58311 0.0
H155 H 0.17624 0.23013 0.625 0.0
C156 C 0.69838 0.8292 0.54063 0.0
C157 C 0.70761 0.84846 0.53161 0.0
C158 C 0.70722 0.83358 0.55555 0.0
C159 C 0.72546 0.85731 0.5617 0.0
C160 C 0.7346 0.87651 0.55264 0.0
C161 C 0.72578 0.87215 0.5378 0.0
C162 C 0.7358 0.86218 0.57735 0.0
C163 C 0.74145 0.84566 0.5837 0.0
C164 C 0.75385 0.85174 0.59787 0.0
C165 C 0.76062 0.87442 0.60578 0.0
C166 C 0.75431 0.89084 0.59988 0.0
C167 C 0.74158 0.88429 0.5857 0.0
C168 C 0.76146 0.91497 0.60832 0.0
C169 C 0.76262 0.9174 0.62378 0.0
C170 C 0.76741 0.93591 0.60099 0.0
C171 C 0.77407 0.95849 0.60884 0.0
C172 C 0.77569 0.96104 0.62431 0.0
C173 C 0.76027 0.83465 0.6044 0.0
C174 C 0.74181 0.81164 0.60769 0.0
C175 C 0.7849 0.84164 0.60786 0.0
C176 C 0.791 0.82586 0.6146 0.0
C177 C 0.77256 0.80313 0.61826 0.0
C178 C 0.74792 0.79609 0.61474 0.0
C179 C 0.76992 0.94015 0.63166 0.0
H180 H 0.68423 0.81079 0.53619 0.0
H181 H 0.69969 0.81845 0.56227 0.0
H182 H 0.74906 0.89488 0.55693 0.0
H183 H 0.73366 0.88727 0.53109 0.0
H184 H 0.73721 0.82855 0.57743 0.0
H185 H 0.73607 0.8964 0.58106 0.0
H186 H 0.77095 0.87919 0.61652 0.0
H187 H 0.75781 0.90171 0.62987 0.0
H188 H 0.76723 0.93508 0.58914 0.0
H189 H 0.77786 0.97391 0.6027 0.0
H190 H 0.72271 0.80601 0.60513 0.0
H191 H 0.79936 0.85935 0.60539 0.0
H192 H 0.77127 0.94133 0.64355 0.0
H193 H 0.73345 0.77861 0.61749 0.0
H194 H 0.81011 0.83166 0.61732 0.0
C195 C 0.10322 0.8491 0.52925 0.0
C196 C 0.12609 0.85262 0.52608 0.0
C197 C 0.09896 0.85256 0.54377 0.0
C198 C 0.11763 0.86001 0.55533 0.0
C199 C 0.14037 0.86317 0.55217 0.0
C200 C 0.1445 0.85934 0.53769 0.0
C201 C 0.1138 0.8655 0.57058 0.0
C202 C 0.09304 0.84865 0.57687 0.0
C203 C 0.08917 0.85401 0.59127 0.0
C204 C 0.1065 0.87661 0.5993 0.0
C205 C 0.12738 0.89376 0.59316 0.0
C206 C 0.13081 0.88795 0.57875 0.0
C207 C 0.14538 0.91782 0.6017 0.0
C208 C 0.13753 0.9302 0.61133 0.0
C209 C 0.17058 0.92866 0.60028 0.0
C210 C 0.1874 0.9513 0.60821 0.0
C211 C 0.17946 0.96332 0.61792 0.0
C212 C 0.06691 0.83632 0.59789 0.0
C213 C 0.04417 0.82248 0.58925 0.0
C214 C 0.06805 0.83364 0.61301 0.0
C215 C 0.04695 0.81821 0.6194 0.0
C216 C 0.02432 0.80472 0.61077 0.0
C217 C 0.02314 0.80668 0.59562 0.0
C218 C 0.15442 0.95257 0.61946 0.0
H219 H 0.08872 0.84382 0.52048 0.0
H220 H 0.08132 0.85014 0.54593 0.0
H221 H 0.155 0.86878 0.56092 0.0
H222 H 0.16235 0.86235 0.53552 0.0
H223 H 0.08019 0.83116 0.57059 0.0
H224 H 0.14636 0.90121 0.57365 0.0
H225 H 0.10365 0.88094 0.61037 0.0
H226 H 0.1183 0.92282 0.61248 0.0
H227 H 0.17742 0.91954 0.5932 0.0
H228 H 0.20669 0.9592 0.60696 0.0
H229 H 0.04244 0.82429 0.57763 0.0
H230 H 0.08526 0.84346 0.61997 0.0
H231 H 0.14788 0.9617 0.62679 0.0
H232 H 0.00581 0.79652 0.58878 0.0
H233 H 0.04831 0.81672 0.6311 0.0
C234 C 0.94956 0.49697 0.80429 0.0
C235 C 0.96684 0.49055 0.80922 0.0
C236 C 0.94196 0.49402 0.78931 0.0
C237 C 0.95141 0.48449 0.77893 0.0
C238 C 0.96942 0.47898 0.78381 0.0
C239 C 0.97713 0.48207 0.79882 0.0
C240 C 0.94088 0.47842 0.76329 0.0
C241 C 0.93535 0.49454 0.75628 0.0
C242 C 0.9222 0.48748 0.74219 0.0
C243 C 0.91496 0.46397 0.73513 0.0
C244 C 0.92135 0.44821 0.74173 0.0
C245 C 0.93437 0.45552 0.75575 0.0
C246 C 0.91361 0.42363 0.73417 0.0
C247 C 0.8887 0.40674 0.73006 0.0
C248 C 0.93107 0.41696 0.73104 0.0
C249 C 0.92373 0.39381 0.72368 0.0
C250 C 0.8988 0.37685 0.71968 0.0
C251 C 0.91545 0.50424 0.73503 0.0
C252 C 0.91056 0.52046 0.74349 0.0
C253 C 0.91337 0.50385 0.71961 0.0
C254 C 0.90592 0.51864 0.71286 0.0
C255 C 0.90103 0.53487 0.72131 0.0
C256 C 0.90381 0.53579 0.73675 0.0
C257 C 0.88133 0.38341 0.723 0.0
H258 H 0.94151 0.50379 0.81206 0.0
H259 H 0.92789 0.49822 0.78592 0.0
H260 H 0.97717 0.47178 0.77605 0.0
H261 H 0.9904 0.47687 0.80232 0.0
H262 H 0.94135 0.51259 0.76191 0.0
H263 H 0.93827 0.44277 0.76107 0.0
H264 H 0.90413 0.45766 0.72451 0.0
H265 H 0.87496 0.41153 0.73244 0.0
H266 H 0.95038 0.42978 0.73411 0.0
H267 H 0.93746 0.38903 0.72125 0.0
H268 H 0.91151 0.52114 0.75536 0.0
H269 H 0.91745 0.49209 0.71266 0.0
H270 H 0.86201 0.37058 0.71995 0.0
H271 H 0.90076 0.54834 0.74372 0.0
H272 H 0.90364 0.51696 0.70096 0.0
C273 C 0.54598 0.49181 0.81154 0.0
C274 C 0.53364 0.47131 0.81939 0.0
C275 C 0.55112 0.48877 0.79715 0.0
C276 C 0.54419 0.46518 0.79037 0.0
C277 C 0.53228 0.44481 0.79841 0.0
C278 C 0.52697 0.44783 0.81269 0.0
C279 C 0.54923 0.46155 0.77501 0.0
C280 C 0.57144 0.47826 0.76988 0.0
C281 C 0.57661 0.47402 0.75562 0.0
C282 C 0.55941 0.45256 0.74658 0.0
C283 C 0.53702 0.43566 0.75143 0.0
C284 C 0.53196 0.44073 0.76555 0.0
C285 C 0.51934 0.41237 0.74199 0.0
C286 C 0.51721 0.41144 0.72654 0.0
C287 C 0.50487 0.39058 0.74838 0.0
C288 C 0.4888 0.3686 0.73963 0.0
C289 C 0.48721 0.36748 0.72418 0.0
C290 C 0.59993 0.49188 0.75007 0.0
C291 C 0.60944 0.51741 0.75297 0.0
C292 C 0.61237 0.48351 0.74132 0.0
C293 C 0.6333 0.50016 0.73524 0.0
C294 C 0.64255 0.52568 0.73787 0.0
C295 C 0.63052 0.53411 0.74697 0.0
C296 C 0.50164 0.38927 0.71777 0.0
H297 H 0.5512 0.51011 0.81643 0.0
H298 H 0.56013 0.50483 0.79125 0.0
H299 H 0.52722 0.42646 0.79371 0.0
H300 H 0.51786 0.43175 0.81857 0.0
H301 H 0.58505 0.49416 0.77714 0.0
H302 H 0.51439 0.42847 0.76923 0.0
H303 H 0.56361 0.449 0.73574 0.0
H304 H 0.52758 0.42781 0.72113 0.0
H305 H 0.50615 0.39023 0.76019 0.0
H306 H 0.47764 0.35249 0.74507 0.0
H307 H 0.60025 0.52451 0.75958 0.0
H308 H 0.60586 0.464 0.73906 0.0
H309 H 0.50129 0.38926 0.70594 0.0
H310 H 0.63734 0.55364 0.74943 0.0
H311 H 0.64189 0.49294 0.72818 0.0
C312 C 0.56328 0.0737 0.81904 0.0
C313 C 0.54022 0.05414 0.82133 0.0
C314 C 0.56775 0.08206 0.80516 0.0
C315 C 0.54915 0.07122 0.79336 0.0
C316 C 0.52628 0.05127 0.79556 0.0
C317 C 0.5219 0.04273 0.80939 0.0
C318 C 0.55315 0.08164 0.77905 0.0
C319 C 0.57456 0.08753 0.77244 0.0
C320 C 0.57892 0.09853 0.75921 0.0
C321 C 0.56159 0.10386 0.75279 0.0
C322 C 0.53997 0.09776 0.75916 0.0
C323 C 0.53581 0.08652 0.77223 0.0
C324 C 0.52181 0.10338 0.75225 0.0
C325 C 0.52931 0.12677 0.74774 0.0
C326 C 0.49688 0.08538 0.75014 0.0
C327 C 0.47978 0.09059 0.7435 0.0
C328 C 0.48721 0.11403 0.73898 0.0
C329 C 0.60142 0.10437 0.75205 0.0
C330 C 0.62398 0.1129 0.76053 0.0
C331 C 0.60053 0.10155 0.73662 0.0
C332 C 0.62165 0.10749 0.72984 0.0
C333 C 0.64409 0.11602 0.73833 0.0
C334 C 0.64505 0.1185 0.75374 0.0
C335 C 0.5122 0.13209 0.74125 0.0
H336 H 0.57777 0.08271 0.82804 0.0
H337 H 0.5855 0.09757 0.8038 0.0
H338 H 0.51168 0.04247 0.78662 0.0
H339 H 0.5039 0.02774 0.81087 0.0
H340 H 0.58755 0.08306 0.7775 0.0
H341 H 0.51943 0.08239 0.7774 0.0
H342 H 0.56485 0.11277 0.74276 0.0
H343 H 0.5484 0.14109 0.74943 0.0
H344 H 0.49065 0.0671 0.75339 0.0
H345 H 0.46078 0.07609 0.74169 0.0
H346 H 0.62549 0.11567 0.77242 0.0
H347 H 0.58344 0.09451 0.72971 0.0
H348 H 0.51855 0.15047 0.73817 0.0
H349 H 0.66221 0.12524 0.76052 0.0
H350 H 0.62039 0.1051 0.71794 0.0
C351 C 0.79876 0.58832 0.85939 0.0
C352 C 0.79346 0.60673 0.85597 0.0
C353 C 0.79455 0.5791 0.87301 0.0
C354 C 0.78517 0.58822 0.88368 0.0
C355 C 0.77985 0.60665 0.8803 0.0
C356 C 0.78392 0.61578 0.86659 0.0
C357 C 0.78094 0.57833 0.89821 0.0
C358 C 0.79755 0.57253 0.90514 0.0
C359 C 0.7931 0.56158 0.91835 0.0
C360 C 0.77186 0.55693 0.92482 0.0
C361 C 0.75545 0.56333 0.91831 0.0
C362 C 0.76007 0.57396 0.90501 0.0
C363 C 0.73336 0.55875 0.92538 0.0
C364 C 0.71796 0.53564 0.93007 0.0
C365 C 0.72773 0.57755 0.92763 0.0
C366 C 0.70724 0.57345 0.93465 0.0
C367 C 0.69174 0.55032 0.93939 0.0
C368 C 0.81064 0.55501 0.9253 0.0
C369 C 0.8225 0.54587 0.91655 0.0
C370 C 0.81591 0.55804 0.94069 0.0
C371 C 0.83267 0.5522 0.94714 0.0
C372 C 0.84474 0.54348 0.93834 0.0
C373 C 0.83948 0.54035 0.92299 0.0
C374 C 0.69729 0.53141 0.9369 0.0
H375 H 0.80649 0.58117 0.85159 0.0
H376 H 0.7985 0.56464 0.87512 0.0
H377 H 0.7728 0.61424 0.88831 0.0
H378 H 0.77943 0.62981 0.86428 0.0
H379 H 0.81423 0.5769 0.9003 0.0
H380 H 0.74694 0.57807 0.89974 0.0
H381 H 0.76802 0.54834 0.93495 0.0
H382 H 0.72175 0.52075 0.92829 0.0
H383 H 0.73947 0.59561 0.92424 0.0
H384 H 0.70384 0.58857 0.93659 0.0
H385 H 0.81854 0.54278 0.90468 0.0
H386 H 0.80745 0.56538 0.94778 0.0
H387 H 0.68554 0.51322 0.9401 0.0
H388 H 0.84832 0.53336 0.91597 0.0
H389 H 0.8366 0.55499 0.95901 0.0
C390 C 0.36753 0.16852 0.87407 0.0
C391 C 0.37793 0.18796 0.86525 0.0
C392 C 0.37571 0.17234 0.88906 0.0
C393 C 0.39459 0.19563 0.89546 0.0
C394 C 0.4052 0.21488 0.88649 0.0
C395 C 0.39688 0.21112 0.8716 0.0
C396 C 0.40346 0.20003 0.91137 0.0
C397 C 0.40615 0.18219 0.91842 0.0
C398 C 0.41614 0.1872 0.93317 0.0
C399 C 0.42308 0.20996 0.94103 0.0
C400 C 0.42023 0.2278 0.9342 0.0
C401 C 0.41035 0.2227 0.91944 0.0
C402 C 0.4284 0.25216 0.94227 0.0
C403 C 0.42015 0.25402 0.9559 0.0
C404 C 0.44448 0.27374 0.9363 0.0
C405 C 0.4523 0.29683 0.94386 0.0
C406 C 0.44386 0.29886 0.95745 0.0
C407 C 0.42093 0.16934 0.94011 0.0
C408 C 0.40157 0.1461 0.94237 0.0
C409 C 0.44508 0.17561 0.94455 0.0
C410 C 0.44987 0.15884 0.95112 0.0
C411 C 0.43053 0.13576 0.95361 0.0
C412 C 0.40633 0.12951 0.94926 0.0
C413 C 0.42762 0.27713 0.96336 0.0
H414 H 0.35283 0.1505 0.86942 0.0
H415 H 0.367 0.15718 0.89567 0.0
H416 H 0.42021 0.23286 0.89093 0.0
H417 H 0.40553 0.22629 0.86498 0.0
H418 H 0.40156 0.16485 0.91231 0.0
H419 H 0.40793 0.23647 0.91429 0.0
H420 H 0.43116 0.21397 0.95236 0.0
H421 H 0.40757 0.23758 0.96065 0.0
H422 H 0.45129 0.27272 0.92586 0.0
H423 H 0.46522 0.31306 0.9391 0.0
H424 H 0.38282 0.141 0.939 0.0
H425 H 0.46024 0.19344 0.94284 0.0
H426 H 0.42037 0.27791 0.97366 0.0
H427 H 0.3912 0.11176 0.95111 0.0
H428 H 0.46865 0.16403 0.95448 0.0
C429 C 0.77207 0.18236 0.86249 0.0
C430 C 0.79469 0.18502 0.8595 0.0
C431 C 0.76723 0.18486 0.87699 0.0
C432 C 0.78503 0.19034 0.88877 0.0
C433 C 0.80748 0.19253 0.88579 0.0
C434 C 0.81221 0.18977 0.8713 0.0
C435 C 0.78068 0.19494 0.90407 0.0
C436 C 0.75839 0.17909 0.90944 0.0
C437 C 0.75414 0.18386 0.92384 0.0
C438 C 0.77207 0.20504 0.93272 0.0
C439 C 0.79424 0.22117 0.92743 0.0
C440 C 0.79861 0.21582 0.91321 0.0
C441 C 0.81229 0.24433 0.93642 0.0
C442 C 0.80527 0.2611 0.94165 0.0
C443 C 0.83669 0.25018 0.93942 0.0
C444 C 0.85382 0.2725 0.94756 0.0
C445 C 0.84688 0.28947 0.95251 0.0
C446 C 0.73097 0.16685 0.92966 0.0
C447 C 0.70832 0.1597 0.92179 0.0
C448 C 0.73144 0.15807 0.94332 0.0
C449 C 0.70965 0.14246 0.94904 0.0
C450 C 0.687 0.13567 0.94132 0.0
C451 C 0.6865 0.14441 0.92764 0.0
C452 C 0.82249 0.28361 0.9495 0.0
H453 H 0.75818 0.17853 0.85359 0.0
H454 H 0.74983 0.18324 0.87897 0.0
H455 H 0.82146 0.19658 0.89468 0.0
H456 H 0.82987 0.19208 0.86932 0.0
H457 H 0.74457 0.16278 0.90254 0.0
H458 H 0.81558 0.22854 0.90904 0.0
H459 H 0.76868 0.20914 0.94372 0.0
H460 H 0.78657 0.25702 0.93937 0.0
H461 H 0.84245 0.23747 0.93548 0.0
H462 H 0.87258 0.27675 0.94975 0.0
H463 H 0.70752 0.16634 0.91127 0.0
H464 H 0.7487 0.16324 0.94955 0.0
H465 H 0.81678 0.29645 0.95327 0.0
H466 H 0.66923 0.13934 0.92147 0.0
H467 H 0.7105 0.13607 0.95965 0.0
C468 C 0.61273 0.83438 0.13711 0.0
C469 C 0.62986 0.82777 0.14206 0.0
C470 C 0.60493 0.83116 0.12213 0.0
C471 C 0.614 0.82115 0.11179 0.0
C472 C 0.63186 0.81545 0.11668 0.0
C473 C 0.63978 0.8188 0.13167 0.0
C474 C 0.60326 0.81483 0.09618 0.0
C475 C 0.59797 0.83098 0.08901 0.0
C476 C 0.58488 0.8238 0.07489 0.0
C477 C 0.57732 0.8001 0.06802 0.0
C478 C 0.58343 0.78428 0.07479 0.0
C479 C 0.59646 0.79172 0.08881 0.0
C480 C 0.5755 0.75957 0.06737 0.0
C481 C 0.55052 0.74262 0.06356 0.0
C482 C 0.59286 0.75291 0.06397 0.0
C483 C 0.58535 0.7297 0.05664 0.0
C484 C 0.56036 0.71268 0.05294 0.0
C485 C 0.5786 0.84068 0.06746 0.0
C486 C 0.57398 0.85734 0.07566 0.0
C487 C 0.57672 0.83996 0.05202 0.0
C488 C 0.56965 0.8548 0.04499 0.0
C489 C 0.56498 0.87144 0.05317 0.0
C490 C 0.56761 0.87273 0.06863 0.0
C491 C 0.54299 0.71922 0.05655 0.0
H492 H 0.60497 0.84157 0.14486 0.0
H493 H 0.59099 0.83553 0.11873 0.0
H494 H 0.63933 0.8079 0.10895 0.0
H495 H 0.65292 0.81343 0.13519 0.0
H496 H 0.60418 0.84917 0.0945 0.0
H497 H 0.6002 0.77895 0.09424 0.0
H498 H 0.5665 0.79369 0.0574 0.0
H499 H 0.53686 0.74743 0.06615 0.0
H500 H 0.61222 0.7658 0.06679 0.0
H501 H 0.599 0.72492 0.05398 0.0
H502 H 0.57483 0.85833 0.08753 0.0
H503 H 0.58064 0.82786 0.04526 0.0
H504 H 0.52362 0.70633 0.05374 0.0
H505 H 0.5647 0.88559 0.0754 0.0
H506 H 0.56748 0.85281 0.03309 0.0
C507 C 0.21758 0.82347 0.14608 0.0
C508 C 0.20711 0.80344 0.15446 0.0
C509 C 0.22125 0.81991 0.13142 0.0
C510 C 0.2147 0.79629 0.1249 0.0
C511 C 0.20499 0.77646 0.13351 0.0
C512 C 0.20112 0.77998 0.14808 0.0
C513 C 0.21713 0.79209 0.10906 0.0
C514 C 0.23749 0.80928 0.10253 0.0
C515 C 0.23961 0.80545 0.08749 0.0
C516 C 0.22089 0.78415 0.079 0.0
C517 C 0.20083 0.76657 0.08544 0.0
C518 C 0.19898 0.7707 0.10039 0.0
C519 C 0.1823 0.74331 0.07669 0.0
C520 C 0.17046 0.74359 0.06332 0.0
C521 C 0.1768 0.72062 0.08158 0.0
C522 C 0.16008 0.69855 0.07313 0.0
C523 C 0.14809 0.69864 0.0597 0.0
C524 C 0.26168 0.82316 0.08075 0.0
C525 C 0.27304 0.84869 0.08486 0.0
C526 C 0.27168 0.81459 0.07018 0.0
C527 C 0.29231 0.83106 0.06379 0.0
C528 C 0.30377 0.85657 0.06793 0.0
C529 C 0.29388 0.86518 0.07857 0.0
C530 C 0.15335 0.72149 0.05498 0.0
H531 H 0.22223 0.84173 0.15072 0.0
H532 H 0.22854 0.83555 0.12507 0.0
H533 H 0.20029 0.75813 0.12897 0.0
H534 H 0.19341 0.7643 0.15439 0.0
H535 H 0.25206 0.82527 0.10928 0.0
H536 H 0.18307 0.75731 0.10519 0.0
H537 H 0.22205 0.78093 0.06739 0.0
H538 H 0.17431 0.76091 0.0594 0.0
H539 H 0.18595 0.71998 0.09179 0.0
H540 H 0.15699 0.68145 0.077 0.0
H541 H 0.26573 0.85601 0.09284 0.0
H542 H 0.26375 0.79506 0.06691 0.0
H543 H 0.14419 0.72236 0.04486 0.0
H544 H 0.30236 0.88467 0.08218 0.0
H545 H 0.29912 0.82372 0.05547 0.0
C546 C 0.23758 0.42594 0.1581 0.0
C547 C 0.21372 0.4106 0.16166 0.0
C548 C 0.2416 0.43258 0.1438 0.0
C549 C 0.22185 0.42372 0.13274 0.0
C550 C 0.19805 0.40795 0.13634 0.0
C551 C 0.19403 0.40164 0.15064 0.0
C552 C 0.22578 0.43074 0.11748 0.0
C553 C 0.24626 0.43328 0.11089 0.0
C554 C 0.24922 0.4388 0.09628 0.0
C555 C 0.23136 0.44151 0.08815 0.0
C556 C 0.21103 0.43962 0.09462 0.0
C557 C 0.20864 0.43455 0.10934 0.0
C558 C 0.19237 0.44316 0.08615 0.0
C559 C 0.19926 0.4608 0.07604 0.0
C560 C 0.16748 0.42919 0.08831 0.0
C561 C 0.15007 0.43312 0.08085 0.0
C562 C 0.15696 0.45084 0.0708 0.0
C563 C 0.27122 0.44227 0.08955 0.0
C564 C 0.29467 0.45894 0.09663 0.0
C565 C 0.26897 0.42971 0.07578 0.0
C566 C 0.28981 0.4339 0.06915 0.0
C567 C 0.31324 0.45107 0.07605 0.0
C568 C 0.3155 0.46348 0.08987 0.0
C569 C 0.18178 0.46446 0.0684 0.0
H570 H 0.25305 0.43313 0.16645 0.0
H571 H 0.26014 0.44497 0.1415 0.0
H572 H 0.18244 0.4002 0.12806 0.0
H573 H 0.17549 0.38942 0.15304 0.0
H574 H 0.25966 0.43036 0.11694 0.0
H575 H 0.19356 0.434 0.11461 0.0
H576 H 0.23352 0.44534 0.0768 0.0
H577 H 0.21825 0.47212 0.07418 0.0
H578 H 0.16136 0.41513 0.0958 0.0
H579 H 0.13123 0.42247 0.08316 0.0
H580 H 0.29686 0.46895 0.10721 0.0
H581 H 0.25107 0.4167 0.07014 0.0
H582 H 0.18777 0.47798 0.06057 0.0
H583 H 0.33339 0.47672 0.09543 0.0
H584 H 0.28762 0.42422 0.05845 0.0
C585 C 0.46595 0.9182 0.19141 0.0
C586 C 0.45951 0.93545 0.18721 0.0
C587 C 0.46183 0.90983 0.20527 0.0
C588 C 0.45129 0.91863 0.21532 0.0
C589 C 0.44444 0.93559 0.21102 0.0
C590 C 0.44845 0.94387 0.19709 0.0
C591 C 0.44795 0.9104 0.2303 0.0
C592 C 0.46611 0.90759 0.23798 0.0
C593 C 0.46301 0.89897 0.2519 0.0
C594 C 0.44168 0.89399 0.25837 0.0
C595 C 0.42336 0.89699 0.25098 0.0
C596 C 0.42663 0.90503 0.23687 0.0
C597 C 0.4008 0.89156 0.25798 0.0
C598 C 0.39026 0.87212 0.26682 0.0
C599 C 0.3898 0.906 0.25608 0.0
C600 C 0.36894 0.9012 0.26289 0.0
C601 C 0.3587 0.88205 0.27196 0.0
C602 C 0.48176 0.89458 0.25947 0.0
C603 C 0.49398 0.88513 0.25131 0.0
C604 C 0.4873 0.89928 0.27487 0.0
C605 C 0.50431 0.89431 0.28191 0.0
C606 C 0.51643 0.88492 0.2737 0.0
C607 C 0.51125 0.88055 0.25834 0.0
C608 C 0.36967 0.86758 0.27382 0.0
H609 H 0.4741 0.91105 0.18392 0.0
H610 H 0.46682 0.89635 0.20808 0.0
H611 H 0.4365 0.94292 0.21855 0.0
H612 H 0.44346 0.95732 0.19418 0.0
H613 H 0.48292 0.91245 0.23316 0.0
H614 H 0.41227 0.90649 0.23081 0.0
H615 H 0.43927 0.88759 0.26916 0.0
H616 H 0.39785 0.86025 0.26835 0.0
H617 H 0.39749 0.92131 0.2495 0.0
H618 H 0.36082 0.91251 0.26097 0.0
H619 H 0.48987 0.88077 0.23949 0.0
H620 H 0.47864 0.90697 0.2815 0.0
H621 H 0.3626 0.8529 0.28087 0.0
H622 H 0.52017 0.87303 0.25179 0.0
H623 H 0.50819 0.89805 0.29378 0.0
C624 C 0.02696 0.49602 0.20585 0.0
C625 C 0.03438 0.51581 0.1973 0.0
C626 C 0.03608 0.50019 0.2207 0.0
C627 C 0.05303 0.5242 0.22721 0.0
C628 C 0.06018 0.54392 0.21859 0.0
C629 C 0.05087 0.53979 0.20386 0.0
C630 C 0.06436 0.52882 0.24265 0.0
C631 C 0.07092 0.51246 0.24832 0.0
C632 C 0.08422 0.51833 0.26221 0.0
C633 C 0.09128 0.54085 0.27044 0.0
C634 C 0.08423 0.55718 0.26522 0.0
C635 C 0.07028 0.55061 0.25143 0.0
C636 C 0.09199 0.58132 0.27386 0.0
C637 C 0.09474 0.58392 0.28935 0.0
C638 C 0.09698 0.60217 0.26665 0.0
C639 C 0.1042 0.62477 0.27464 0.0
C640 C 0.1074 0.62751 0.29012 0.0
C641 C 0.09106 0.50104 0.26806 0.0
C642 C 0.07284 0.47717 0.27024 0.0
C643 C 0.11574 0.50849 0.27183 0.0
C644 C 0.12211 0.49232 0.27779 0.0
C645 C 0.10386 0.46869 0.28035 0.0
C646 C 0.07919 0.46119 0.27652 0.0
C647 C 0.10261 0.60673 0.29735 0.0
H648 H 0.01414 0.47736 0.20105 0.0
H649 H 0.02993 0.4846 0.22704 0.0
H650 H 0.07364 0.56258 0.22306 0.0
H651 H 0.05725 0.55533 0.19745 0.0
H652 H 0.06666 0.4956 0.24174 0.0
H653 H 0.06401 0.56254 0.24743 0.0
H654 H 0.10235 0.54555 0.2809 0.0
H655 H 0.09074 0.56832 0.29537 0.0
H656 H 0.09563 0.60123 0.25476 0.0
H657 H 0.10718 0.64008 0.26859 0.0
H658 H 0.0537 0.47113 0.26744 0.0
H659 H 0.13005 0.52683 0.27018 0.0
H660 H 0.10518 0.60805 0.30923 0.0
H661 H 0.06487 0.44304 0.27845 0.0
H662 H 0.14124 0.49847 0.28078 0.0
C663 C 0.43927 0.51537 0.19555 0.0
C664 C 0.46145 0.51711 0.19237 0.0
C665 C 0.43475 0.51787 0.21013 0.0
C666 C 0.45249 0.52251 0.22177 0.0
C667 C 0.47446 0.52377 0.21859 0.0
C668 C 0.47884 0.52094 0.20403 0.0
C669 C 0.44862 0.52732 0.23714 0.0
C670 C 0.42648 0.51171 0.24271 0.0
C671 C 0.42271 0.51667 0.25719 0.0
C672 C 0.44096 0.53784 0.26594 0.0
C673 C 0.46298 0.55377 0.26042 0.0
C674 C 0.46689 0.54818 0.24613 0.0
C675 C 0.48131 0.57701 0.26924 0.0
C676 C 0.47443 0.59375 0.27475 0.0
C677 C 0.50584 0.58302 0.27175 0.0
C678 C 0.52321 0.60545 0.27969 0.0
C679 C 0.51638 0.62238 0.28492 0.0
C680 C 0.39973 0.49986 0.26326 0.0
C681 C 0.37693 0.49292 0.25567 0.0
C682 C 0.40054 0.491 0.27684 0.0
C683 C 0.37894 0.47547 0.28275 0.0
C684 C 0.35614 0.46886 0.27531 0.0
C685 C 0.3553 0.47772 0.26173 0.0
C686 C 0.49187 0.61635 0.2824 0.0
H687 H 0.42553 0.5123 0.18675 0.0
H688 H 0.41773 0.51697 0.21229 0.0
H689 H 0.48837 0.5272 0.22738 0.0
H690 H 0.49615 0.52253 0.20187 0.0
H691 H 0.41239 0.49543 0.2359 0.0
H692 H 0.48375 0.5607 0.24177 0.0
H693 H 0.43792 0.54209 0.27701 0.0
H694 H 0.45565 0.58956 0.27283 0.0
H695 H 0.51151 0.57035 0.26759 0.0
H696 H 0.54206 0.6098 0.28149 0.0
H697 H 0.37587 0.49964 0.24522 0.0
H698 H 0.41792 0.49601 0.28284 0.0
H699 H 0.48623 0.62913 0.2864 0.0
H700 H 0.3379 0.47278 0.25577 0.0
H701 H 0.38004 0.46897 0.29328 0.0
C702 C 0.52838 0.01876 0.04624 0.0
Eu703 Eu 0.50851 0.01274 0.01947 0.0
C704 C 0.51941 0.01057 0.06051 0.0
C705 C 0.50587 0.01928 0.06785 0.0
C706 C 0.49734 0.01102 0.08126 0.0
C707 C 0.50204 0.99382 0.08755 0.0
C708 C 0.51549 0.98507 0.08018 0.0
C709 C 0.52417 0.99345 0.06684 0.0
C710 C 0.48821 0.03774 0.00822 0.0
C711 C 0.4504 0.96993 0.01745 0.0
C712 C 0.45809 0.98453 0.96268 0.0
Eu713 Eu 0.47799 0.9901 0.98937 0.0
C714 C 0.46711 0.99068 0.94818 0.0
C715 C 0.48092 0.9813 0.94193 0.0
C716 C 0.48975 0.98791 0.92834 0.0
C717 C 0.4851 0.00415 0.92077 0.0
C718 C 0.4714 0.01362 0.92714 0.0
C719 C 0.46243 0.00686 0.94066 0.0
C720 C 0.49855 0.96519 0.00051 0.0
C721 C 0.53638 0.0326 0.99133 0.0
O722 O 0.52554 0.00147 0.03625 0.0
O723 O 0.52368 0.03485 0.04075 0.0
O724 O 0.50954 0.04842 0.01583 0.0
O725 O 0.47813 0.01464 0.00766 0.0
O726 O 0.4723 0.98151 0.02506 0.0
O727 O 0.44719 0.97275 0.00347 0.0
O728 O 0.4636 0.00334 0.97226 0.0
O729 O 0.46019 0.96716 0.96857 0.0
O730 O 0.47735 0.95445 0.99273 0.0
O731 O 0.50838 0.98826 0.00113 0.0
O732 O 0.51461 0.02042 0.98357 0.0
O733 O 0.53944 0.03062 0.00549 0.0
H734 H 0.50178 0.0324 0.06325 0.0
H735 H 0.48686 0.01792 0.08666 0.0
H736 H 0.51964 0.97203 0.08486 0.0
H737 H 0.53461 0.98649 0.06143 0.0
H738 H 0.48497 0.96889 0.94751 0.0
H739 H 0.49999 0.98006 0.92369 0.0
H740 H 0.46785 0.02652 0.92177 0.0
H741 H 0.452 0.01451 0.94533 0.0
C742 C 0.99717 0.52527 0.04296 0.0
Eu743 Eu 0.99505 0.50401 0.01717 0.0
C744 C 0.00068 0.52165 0.0584 0.0
C745 C 0.99123 0.49791 0.06284 0.0
C746 C 0.99419 0.49487 0.07766 0.0
C747 C 0.00688 0.51551 0.08823 0.0
C748 C 0.01671 0.53923 0.08368 0.0
C749 C 0.01359 0.54226 0.06888 0.0
C750 C 0.96451 0.4562 0.0067 0.0
C751 C 0.03292 0.48279 0.0175 0.0
C752 C 0.00635 0.46793 0.96216 0.0
Eu753 Eu 0.00709 0.48769 0.98819 0.0
C754 C 0.00353 0.47204 0.94669 0.0
C755 C 0.01721 0.49546 0.94189 0.0
C756 C 0.01457 0.49875 0.92709 0.0
C757 C 0.99809 0.47874 0.91683 0.0
C758 C 0.98419 0.45542 0.92175 0.0
C759 C 0.98696 0.45211 0.93653 0.0
C760 C 0.03731 0.53546 0.99905 0.0
C761 C 0.96875 0.50823 0.98789 0.0
O762 O 0.01618 0.53226 0.03556 0.0
O763 O 0.97668 0.50854 0.03536 0.0
O764 O 0.95755 0.46949 0.01407 0.0
O765 O 0.9873 0.46795 0.00632 0.0
O766 O 0.0256 0.49665 0.0245 0.0
O767 O 0.02478 0.47344 0.00365 0.0
O768 O 0.98693 0.46039 0.96921 0.0
O769 O 0.02645 0.48437 0.9702 0.0
O770 O 0.04477 0.52218 0.99221 0.0
O771 O 0.01449 0.52354 0.99894 0.0
O772 O 0.9756 0.49383 0.98105 0.0
O773 O 0.97756 0.51826 0.00157 0.0
H774 H 0.98146 0.48174 0.05487 0.0
H775 H 0.9867 0.4764 0.08085 0.0
H776 H 0.02641 0.55546 0.09161 0.0
H777 H 0.02109 0.5607 0.06563 0.0
H778 H 0.03006 0.5112 0.94954 0.0
H779 H 0.02573 0.51689 0.92365 0.0
H780 H 0.97099 0.43971 0.91421 0.0
H781 H 0.97614 0.43394 0.94003 0.0
C782 C 0.46495 0.47387 0.96594 0.0
Eu783 Eu 0.48577 0.49584 0.99209 0.0
C784 C 0.47319 0.47523 0.95114 0.0
C785 C 0.4878 0.49803 0.94582 0.0
C786 C 0.4956 0.49895 0.9318 0.0
C787 C 0.48919 0.47712 0.92292 0.0
C788 C 0.47487 0.45435 0.92836 0.0
C789 C 0.46689 0.45342 0.94233 0.0
C790 C 0.5026 0.54347 0.00203 0.0
C791 C 0.5451 0.5185 0.99234 0.0
C792 C 0.54015 0.53553 0.04746 0.0
Eu793 Eu 0.51913 0.51431 0.02123 0.0
C794 C 0.53214 0.53226 0.06229 0.0
C795 C 0.51537 0.50884 0.06605 0.0
C796 C 0.50717 0.50613 0.08 0.0
C797 C 0.51534 0.52682 0.0904 0.0
C798 C 0.53198 0.55028 0.08648 0.0
C799 C 0.54033 0.55294 0.07257 0.0
C800 C 0.5026 0.46696 0.01092 0.0
C801 C 0.45959 0.49124 0.02111 0.0
O802 O 0.47364 0.46463 0.97536 0.0
O803 O 0.46444 0.49311 0.97181 0.0
O804 O 0.48109 0.52928 0.99492 0.0
O805 O 0.51461 0.53252 0.00259 0.0
O806 O 0.52288 0.50352 0.98558 0.0
O807 O 0.54853 0.52874 0.00598 0.0
O808 O 0.52967 0.54401 0.03872 0.0
O809 O 0.54214 0.51762 0.04086 0.0
O810 O 0.52437 0.4813 0.01766 0.0
O811 O 0.49042 0.47773 0.01076 0.0
O812 O 0.48181 0.505 0.02818 0.0
O813 O 0.45603 0.48259 0.0071 0.0
H814 H 0.49327 0.51516 0.95248 0.0
H815 H 0.50688 0.51675 0.92797 0.0
H816 H 0.46952 0.43722 0.92171 0.0
H817 H 0.4558 0.43566 0.94627 0.0
H818 H 0.50851 0.49264 0.05818 0.0
H819 H 0.49457 0.48777 0.08265 0.0
H820 H 0.53827 0.56668 0.09407 0.0
H821 H 0.55295 0.5712 0.06977 0.0
C822 C 0.19672 0.36146 0.38157 0.0
Eu823 Eu 0.17795 0.34906 0.35414 0.0
C824 C 0.18899 0.35082 0.39541 0.0
C825 C 0.201 0.36495 0.40887 0.0
C826 C 0.19316 0.35524 0.4221 0.0
C827 C 0.17299 0.33136 0.42202 0.0
C828 C 0.16108 0.31721 0.4085 0.0
C829 C 0.16917 0.3268 0.3953 0.0
C830 C 0.16123 0.373 0.33801 0.0
C831 C 0.12008 0.30549 0.35202 0.0
C832 C 0.1324 0.30893 0.29687 0.0
Eu833 Eu 0.14965 0.32107 0.32445 0.0
C834 C 0.14121 0.32037 0.2833 0.0
C835 C 0.1431 0.30639 0.27146 0.0
C836 C 0.1528 0.31717 0.25883 0.0
C837 C 0.16063 0.34216 0.25772 0.0
C838 C 0.15862 0.35613 0.26961 0.0
C839 C 0.14911 0.34538 0.28231 0.0
C840 C 0.16684 0.29742 0.3406 0.0
C841 C 0.20693 0.36505 0.32626 0.0
O842 O 0.20199 0.34885 0.37207 0.0
O843 O 0.18355 0.3698 0.37541 0.0
O844 O 0.18182 0.38404 0.34641 0.0
O845 O 0.14975 0.3502 0.33922 0.0
O846 O 0.14161 0.3184 0.35996 0.0
O847 O 0.1176 0.30553 0.33761 0.0
O848 O 0.12552 0.32031 0.30621 0.0
O849 O 0.14539 0.30063 0.30331 0.0
O850 O 0.14609 0.28627 0.33236 0.0
O851 O 0.1781 0.32017 0.33928 0.0
O852 O 0.18528 0.35237 0.31847 0.0
O853 O 0.20967 0.3646 0.34063 0.0
H854 H 0.21632 0.38353 0.40914 0.0
H855 H 0.20257 0.36654 0.43239 0.0
H856 H 0.14568 0.29866 0.40814 0.0
H857 H 0.15991 0.31546 0.38502 0.0
H858 H 0.13739 0.28716 0.27208 0.0
H859 H 0.15447 0.30596 0.25001 0.0
H860 H 0.16417 0.37533 0.26908 0.0
H861 H 0.14812 0.35671 0.29136 0.0
C862 C 0.66362 0.85474 0.37771 0.0
Eu863 Eu 0.66256 0.83644 0.35118 0.0
C864 C 0.66657 0.84989 0.39297 0.0
C865 C 0.65228 0.85263 0.40319 0.0
C866 C 0.65494 0.84851 0.4178 0.0
C867 C 0.672 0.84162 0.42247 0.0
C868 C 0.68612 0.8386 0.41215 0.0
C869 C 0.68338 0.84264 0.39751 0.0
C870 C 0.6328 0.78907 0.33954 0.0
C871 C 0.70168 0.81704 0.34943 0.0
C872 C 0.67215 0.80418 0.2945 0.0
Eu873 Eu 0.67417 0.82295 0.32108 0.0
C874 C 0.66879 0.80866 0.27917 0.0
C875 C 0.68274 0.83205 0.27439 0.0
C876 C 0.6797 0.83555 0.25966 0.0
C877 C 0.66257 0.8158 0.24947 0.0
C878 C 0.64837 0.79253 0.2544 0.0
C879 C 0.65153 0.78901 0.26909 0.0
C880 C 0.70378 0.87048 0.33262 0.0
C881 C 0.63537 0.84265 0.32293 0.0
O882 O 0.68286 0.86275 0.37043 0.0
O883 O 0.6434 0.83836 0.36976 0.0
O884 O 0.62553 0.80134 0.34762 0.0
O885 O 0.6555 0.80152 0.33899 0.0
O886 O 0.69395 0.82976 0.35725 0.0
O887 O 0.69353 0.80886 0.33543 0.0
O888 O 0.65309 0.79658 0.30188 0.0
O889 O 0.6926 0.82026 0.30239 0.0
O890 O 0.71105 0.85847 0.32431 0.0
O891 O 0.68115 0.85776 0.33323 0.0
O892 O 0.64215 0.82891 0.31527 0.0
O893 O 0.6445 0.85167 0.33672 0.0
H894 H 0.63921 0.8582 0.39988 0.0
H895 H 0.64405 0.85131 0.42554 0.0
H896 H 0.69926 0.83309 0.4154 0.0
H897 H 0.6945 0.84029 0.38978 0.0
H898 H 0.69615 0.84757 0.28197 0.0
H899 H 0.69109 0.85364 0.25621 0.0
H900 H 0.63468 0.77703 0.24692 0.0
H901 H 0.6405 0.77086 0.27258 0.0
C902 C 0.13421 0.80804 0.29923 0.0
Eu903 Eu 0.15418 0.8277 0.32586 0.0
C904 C 0.14323 0.81003 0.28464 0.0
C905 C 0.15839 0.83308 0.27973 0.0
C906 C 0.1674 0.83446 0.26605 0.0
C907 C 0.1617 0.81287 0.25716 0.0
C908 C 0.14671 0.78988 0.26215 0.0
C909 C 0.13749 0.78849 0.27574 0.0
C910 C 0.17225 0.87495 0.33702 0.0
C911 C 0.21328 0.84812 0.32676 0.0
C912 C 0.2064 0.86301 0.38198 0.0
Eu913 Eu 0.18617 0.84298 0.35545 0.0
C914 C 0.19776 0.8605 0.39667 0.0
C915 C 0.18213 0.83725 0.40114 0.0
C916 C 0.17346 0.83533 0.41495 0.0
C917 C 0.18002 0.85661 0.42448 0.0
C918 C 0.19547 0.87985 0.41985 0.0
C919 C 0.20431 0.88174 0.40611 0.0
C920 C 0.16803 0.79567 0.34433 0.0
C921 C 0.12688 0.822 0.35455 0.0
O922 O 0.14183 0.79759 0.3084 0.0
O923 O 0.13424 0.82733 0.30554 0.0
O924 O 0.15091 0.86179 0.32953 0.0
O925 O 0.18357 0.86324 0.33737 0.0
O926 O 0.19123 0.83546 0.31939 0.0
O927 O 0.21658 0.85612 0.34087 0.0
O928 O 0.19771 0.87281 0.37299 0.0
O929 O 0.20713 0.84423 0.37554 0.0
O930 O 0.18931 0.80874 0.35191 0.0
O931 O 0.15684 0.80749 0.34397 0.0
O932 O 0.14891 0.83456 0.36199 0.0
O933 O 0.12369 0.81439 0.34037 0.0
H934 H 0.16344 0.85001 0.28649 0.0
H935 H 0.17912 0.85241 0.26251 0.0
H936 H 0.14188 0.77295 0.25545 0.0
H937 H 0.12599 0.77055 0.27937 0.0
H938 H 0.17652 0.82056 0.39396 0.0
H939 H 0.16182 0.81714 0.41819 0.0
H940 H 0.20049 0.89664 0.42675 0.0
H941 H 0.21604 0.89985 0.40276 0.0
C942 C 0.86665 0.68807 0.71554 0.0
Eu943 Eu 0.84646 0.68016 0.68861 0.0
C944 C 0.85811 0.68163 0.73004 0.0
C945 C 0.8731 0.69604 0.74279 0.0
C946 C 0.86537 0.68978 0.75666 0.0
C947 C 0.84243 0.6691 0.75793 0.0
C948 C 0.82734 0.65487 0.7451 0.0
C949 C 0.83519 0.66101 0.73127 0.0
C950 C 0.82841 0.70612 0.67595 0.0
C951 C 0.7878 0.6383 0.68619 0.0
C952 C 0.7978 0.64861 0.63109 0.0
Eu953 Eu 0.81679 0.65693 0.65837 0.0
C954 C 0.80669 0.65851 0.61723 0.0
C955 C 0.78998 0.65281 0.60485 0.0
C956 C 0.79828 0.66184 0.59155 0.0
C957 C 0.82346 0.6769 0.59047 0.0
C958 C 0.84015 0.6828 0.60297 0.0
C959 C 0.83182 0.67354 0.61621 0.0
C960 C 0.8353 0.63131 0.67106 0.0
C961 C 0.87475 0.69918 0.66088 0.0
O962 O 0.86294 0.6697 0.70614 0.0
O963 O 0.86171 0.70359 0.70952 0.0
O964 O 0.84952 0.71631 0.68377 0.0
O965 O 0.81737 0.68302 0.67583 0.0
O966 O 0.80939 0.65044 0.69416 0.0
O967 O 0.7852 0.63967 0.67192 0.0
O968 O 0.79649 0.66372 0.64098 0.0
O969 O 0.80701 0.63607 0.63674 0.0
O970 O 0.81404 0.62095 0.66341 0.0
O971 O 0.84611 0.65436 0.67105 0.0
O972 O 0.85284 0.68926 0.65344 0.0
O973 O 0.87758 0.69516 0.67463 0.0
H974 H 0.89085 0.71203 0.74204 0.0
H975 H 0.8773 0.70113 0.76638 0.0
H976 H 0.80973 0.63864 0.74576 0.0
H977 H 0.82351 0.64945 0.72156 0.0
H978 H 0.77051 0.64127 0.60546 0.0
H979 H 0.78501 0.65722 0.58213 0.0
H980 H 0.85965 0.69416 0.60243 0.0
H981 H 0.84504 0.6779 0.62558 0.0
C982 C 0.33247 0.19606 0.71153 0.0
Eu983 Eu 0.32982 0.17404 0.68589 0.0
C984 C 0.33566 0.19237 0.72701 0.0
C985 C 0.32373 0.16876 0.73176 0.0
C986 C 0.32722 0.16571 0.74652 0.0
C987 C 0.34293 0.18616 0.7567 0.0
C988 C 0.35499 0.20972 0.75186 0.0
C989 C 0.35132 0.21278 0.73714 0.0
C990 C 0.29741 0.12627 0.67619 0.0
C991 C 0.36571 0.15061 0.68694 0.0
C992 C 0.33641 0.13139 0.63187 0.0
Eu993 Eu 0.33983 0.15429 0.65735 0.0
C994 C 0.33368 0.13504 0.61631 0.0
C995 C 0.3471 0.15839 0.61141 0.0
C996 C 0.34441 0.16143 0.59657 0.0
C997 C 0.32809 0.14123 0.58638 0.0
C998 C 0.31447 0.11794 0.5914 0.0
C999 C 0.3173 0.11488 0.60623 0.0
C1000 C 0.37193 0.20248 0.66662 0.0
C1001 C 0.30416 0.17806 0.65639 0.0
O1002 O 0.35141 0.20218 0.70422 0.0
O1003 O 0.31179 0.1799 0.70388 0.0
O1004 O 0.29125 0.14103 0.68259 0.0
O1005 O 0.32019 0.13683 0.67605 0.0
O1006 O 0.36021 0.16648 0.69328 0.0
O1007 O 0.35614 0.13966 0.6735 0.0
O1008 O 0.31755 0.12606 0.63915 0.0
O1009 O 0.35728 0.14708 0.63952 0.0
O1010 O 0.37813 0.18811 0.65974 0.0
O1011 O 0.34924 0.1914 0.66712 0.0
O1012 O 0.30939 0.16197 0.65005 0.0
O1013 O 0.31402 0.18917 0.66978 0.0
H1014 H 0.31178 0.15268 0.72408 0.0
H1015 H 0.31791 0.14734 0.74995 0.0
H1016 H 0.36702 0.22583 0.7595 0.0
H1017 H 0.36076 0.23112 0.73365 0.0
H1018 H 0.35974 0.1743 0.61902 0.0
H1019 H 0.35535 0.17957 0.59307 0.0
H1020 H 0.30141 0.10208 0.5839 0.0
H1021 H 0.30662 0.09676 0.60983 0.0
C1022 C 0.80073 0.1388 0.63173 0.0
Eu1023 Eu 0.82098 0.15989 0.65811 0.0
C1024 C 0.80857 0.14184 0.61685 0.0
C1025 C 0.82462 0.16524 0.61272 0.0
C1026 C 0.83242 0.16763 0.59865 0.0
C1027 C 0.82459 0.14663 0.58859 0.0
C1028 C 0.80871 0.12325 0.59283 0.0
C1029 C 0.80073 0.1209 0.60684 0.0
C1030 C 0.83951 0.20784 0.66801 0.0
C1031 C 0.88006 0.18022 0.65964 0.0
C1032 C 0.87263 0.19799 0.71441 0.0
Eu1033 Eu 0.85251 0.1769 0.68799 0.0
C1034 C 0.86438 0.19551 0.72921 0.0
C1035 C 0.84924 0.17225 0.73383 0.0
C1036 C 0.84111 0.17032 0.74779 0.0
C1037 C 0.84774 0.19159 0.75735 0.0
C1038 C 0.86272 0.21484 0.75259 0.0
C1039 C 0.87099 0.21675 0.73867 0.0
C1040 C 0.83383 0.12886 0.67811 0.0
C1041 C 0.79346 0.15642 0.68639 0.0
O1042 O 0.81136 0.13058 0.64054 0.0
O1043 O 0.79847 0.15661 0.63823 0.0
O1044 O 0.81832 0.19454 0.66038 0.0
O1045 O 0.85046 0.19588 0.66908 0.0
O1046 O 0.85811 0.16703 0.65219 0.0
O1047 O 0.88311 0.18923 0.67354 0.0
O1048 O 0.863 0.20682 0.70534 0.0
O1049 O 0.87415 0.17957 0.70814 0.0
O1050 O 0.85494 0.14206 0.68584 0.0
O1051 O 0.82304 0.14096 0.67704 0.0
O1052 O 0.81545 0.17062 0.69365 0.0
O1053 O 0.7906 0.14647 0.67274 0.0
H1054 H 0.83125 0.18164 0.62038 0.0
H1055 H 0.84487 0.18583 0.5957 0.0
H1056 H 0.80225 0.10679 0.58526 0.0
H1057 H 0.78852 0.10269 0.60989 0.0
H1058 H 0.84364 0.15556 0.72665 0.0
H1059 H 0.82983 0.15213 0.75114 0.0
H1060 H 0.8678 0.23161 0.75954 0.0
H1061 H 0.88239 0.23486 0.73523 0.0
C1062 C 0.32914 0.89681 0.05762 0.0
C1063 C 0.32585 0.87403 0.0611 0.0
C1064 C 0.34961 0.91314 0.05089 0.0
C1065 C 0.36703 0.90637 0.04731 0.0
C1066 C 0.36394 0.88351 0.05084 0.0
C1067 C 0.34354 0.86774 0.05781 0.0
C1068 C 0.35246 0.93752 0.04745 0.0
C1069 C 0.38206 0.87557 0.04712 0.0
C1070 C 0.4066 0.93683 0.01696 0.0
C1071 C 0.42895 0.95391 0.02505 0.0
C1072 C 0.3863 0.92123 0.02408 0.0
C1073 C 0.38832 0.92302 0.03965 0.0
C1074 C 0.41076 0.94043 0.04788 0.0
C1075 C 0.43085 0.95554 0.04048 0.0
C1076 C 0.36278 0.90261 0.01493 0.0
C1077 C 0.41356 0.94313 0.0645 0.0
H1078 H 0.31547 0.90175 0.05992 0.0
H1079 H 0.3415 0.85044 0.06071 0.0
H1080 H 0.3705 0.95286 0.05248 0.0
H1081 H 0.35193 0.93839 0.03539 0.0
H1082 H 0.33788 0.94049 0.05154 0.0
H1083 H 0.3769 0.85711 0.05051 0.0
H1084 H 0.38335 0.87503 0.03508 0.0
H1085 H 0.40053 0.88912 0.05261 0.0
H1086 H 0.40504 0.93537 0.00505 0.0
H1087 H 0.44803 0.96881 0.04682 0.0
H1088 H 0.34768 0.9057 0.01775 0.0
H1089 H 0.35771 0.88373 0.01743 0.0
H1090 H 0.36423 0.90353 0.00294 0.0
H1091 H 0.39987 0.94739 0.06869 0.0
H1092 H 0.43212 0.9579 0.06926 0.0
H1093 H 0.41002 0.92552 0.06854 0.0
C1094 C 0.14428 0.47918 0.06022 0.0
C1095 C 0.13839 0.45526 0.063 0.0
C1096 C 0.12702 0.48361 0.05285 0.0
C1097 C 0.10308 0.46372 0.04841 0.0
C1098 C 0.09686 0.4396 0.05132 0.0
C1099 C 0.11464 0.43562 0.05842 0.0
C1100 C 0.13443 0.50956 0.04976 0.0
C1101 C 0.07142 0.41797 0.0469 0.0
C1102 C 0.05308 0.47941 0.04086 0.0
C1103 C 0.05036 0.47733 0.02544 0.0
C1104 C 0.06988 0.47462 0.04849 0.0
C1105 C 0.08466 0.46814 0.0405 0.0
C1106 C 0.08205 0.46612 0.02494 0.0
C1107 C 0.06475 0.47049 0.01759 0.0
C1108 C 0.0718 0.47648 0.06509 0.0
C1109 C 0.09782 0.45972 0.01604 0.0
H1110 H 0.16237 0.49458 0.06393 0.0
H1111 H 0.10993 0.417 0.06025 0.0
H1112 H 0.13145 0.51014 0.03776 0.0
H1113 H 0.12288 0.51563 0.05522 0.0
H1114 H 0.15393 0.5229 0.05366 0.0
H1115 H 0.06924 0.40053 0.05052 0.0
H1116 H 0.05772 0.42158 0.05173 0.0
H1117 H 0.06722 0.41544 0.03477 0.0
H1118 H 0.04189 0.48456 0.04698 0.0
H1119 H 0.06287 0.46908 0.00567 0.0
H1120 H 0.0905 0.49093 0.06975 0.0
H1121 H 0.06862 0.45881 0.06885 0.0
H1122 H 0.05844 0.48097 0.06963 0.0
H1123 H 0.11741 0.47356 0.01919 0.0
H1124 H 0.09361 0.45906 0.00401 0.0
H1125 H 0.09519 0.44156 0.01843 0.0
C1126 C 0.53734 0.66688 0.0518 0.0
C1127 C 0.55238 0.68813 0.04527 0.0
C1128 C 0.52965 0.64341 0.04465 0.0
C1129 C 0.53669 0.64127 0.03049 0.0
C1130 C 0.55171 0.66276 0.0238 0.0
C1131 C 0.55965 0.686 0.03138 0.0
C1132 C 0.51418 0.62094 0.05228 0.0
C1133 C 0.55913 0.6612 0.00859 0.0
C1134 C 0.53474 0.58202 0.0169 0.0
C1135 C 0.51172 0.56886 0.00871 0.0
C1136 C 0.54304 0.60555 0.02415 0.0
C1137 C 0.52832 0.61651 0.02269 0.0
C1138 C 0.50542 0.60365 0.01396 0.0
C1139 C 0.49726 0.57981 0.00721 0.0
C1140 C 0.56731 0.61843 0.03361 0.0
C1141 C 0.48949 0.61499 0.01185 0.0
H1142 H 0.5319 0.66868 0.0626 0.0
H1143 H 0.57118 0.70256 0.02636 0.0
H1144 H 0.49622 0.60911 0.04568 0.0
H1145 H 0.52324 0.6098 0.05323 0.0
H1146 H 0.51094 0.62583 0.06347 0.0
H1147 H 0.57041 0.67966 0.00483 0.0
H1148 H 0.56972 0.65151 0.00844 0.0
H1149 H 0.54259 0.65029 0.0006 0.0
H1150 H 0.54614 0.57374 0.01787 0.0
H1151 H 0.47953 0.56972 0.00077 0.0
H1152 H 0.56458 0.62254 0.04508 0.0
H1153 H 0.57978 0.63628 0.02955 0.0
H1154 H 0.57636 0.6072 0.03374 0.0
H1155 H 0.48378 0.61827 0.02258 0.0
H1156 H 0.47283 0.6031 0.0041 0.0
H1157 H 0.49999 0.63314 0.0076 0.0
C1158 C 0.87791 0.31461 0.97385 0.0
C1159 C 0.86508 0.31351 0.96057 0.0
C1160 C 0.89454 0.33738 0.98188 0.0
C1161 C 0.89878 0.35946 0.97625 0.0
C1162 C 0.88624 0.35837 0.96264 0.0
C1163 C 0.86928 0.33535 0.95505 0.0
C1164 C 0.90718 0.33781 0.9965 0.0
C1165 C 0.89071 0.3815 0.95611 0.0
C1166 C 0.92312 0.41873 0.0016 0.0
C1167 C 0.94801 0.43095 0.99958 0.0
C1168 C 0.90701 0.3951 0.99441 0.0
C1169 C 0.91596 0.38375 0.9847 0.0
C1170 C 0.94116 0.39596 0.98273 0.0
C1171 C 0.95697 0.41926 0.99042 0.0
C1172 C 0.88037 0.38241 0.99706 0.0
C1173 C 0.9513 0.38474 0.97222 0.0
H1174 H 0.87447 0.29761 0.97811 0.0
H1175 H 0.85941 0.33438 0.9447 0.0
H1176 H 0.92731 0.34843 0.99633 0.0
H1177 H 0.90259 0.34725 0.00534 0.0
H1178 H 0.90185 0.319 0.99931 0.0
H1179 H 0.88034 0.37745 0.94509 0.0
H1180 H 0.88528 0.39219 0.9635 0.0
H1181 H 0.91049 0.39342 0.95506 0.0
H1182 H 0.91621 0.42767 0.00879 0.0
H1183 H 0.97629 0.42855 0.98901 0.0
H1184 H 0.87453 0.36383 0.00046 0.0
H1185 H 0.86893 0.37986 0.98671 0.0
H1186 H 0.87667 0.39304 0.00566 0.0
H1187 H 0.9475 0.36654 0.97536 0.0
H1188 H 0.97135 0.39665 0.97196 0.0
H1189 H 0.94213 0.38161 0.96093 0.0
C1190 C 0.65602 0.55656 0.9427 0.0
C1191 C 0.67004 0.54598 0.94702 0.0
C1192 C 0.63571 0.55282 0.94992 0.0
C1193 C 0.62898 0.53779 0.96158 0.0
C1194 C 0.64288 0.52687 0.96593 0.0
C1195 C 0.66334 0.53128 0.9587 0.0
C1196 C 0.62144 0.56494 0.94506 0.0
C1197 C 0.63611 0.51051 0.97822 0.0
C1198 C 0.58977 0.54376 0.98951 0.0
C1199 C 0.5665 0.52393 0.98431 0.0
C1200 C 0.6102 0.54877 0.98206 0.0
C1201 C 0.60733 0.53335 0.96923 0.0
C1202 C 0.58386 0.51336 0.9639 0.0
C1203 C 0.56371 0.509 0.97144 0.0
C1204 C 0.63488 0.5705 0.98793 0.0
C1205 C 0.5801 0.49632 0.95037 0.0
H1206 H 0.66074 0.56761 0.93355 0.0
H1207 H 0.67426 0.52337 0.96233 0.0
H1208 H 0.60227 0.55069 0.94115 0.0
H1209 H 0.62086 0.57653 0.95451 0.0
H1210 H 0.62948 0.57667 0.93609 0.0
H1211 H 0.64847 0.50294 0.98003 0.0
H1212 H 0.63685 0.52104 0.98862 0.0
H1213 H 0.61707 0.49492 0.9757 0.0
H1214 H 0.59203 0.55547 0.99938 0.0
H1215 H 0.54579 0.49355 0.96739 0.0
H1216 H 0.64267 0.58296 0.97926 0.0
H1217 H 0.64776 0.56404 0.99104 0.0
H1218 H 0.63386 0.58123 0.99771 0.0
H1219 H 0.58662 0.50699 0.94082 0.0
H1220 H 0.5606 0.48185 0.94752 0.0
H1221 H 0.59104 0.48721 0.95219 0.0
C1222 C 0.42744 0.11178 0.97476 0.0
C1223 C 0.43582 0.11862 0.96109 0.0
C1224 C 0.43437 0.09748 0.98268 0.0
C1225 C 0.44956 0.08948 0.97658 0.0
C1226 C 0.45715 0.09548 0.96245 0.0
C1227 C 0.45045 0.11031 0.95495 0.0
C1228 C 0.42628 0.09182 0.99782 0.0
C1229 C 0.47285 0.08676 0.95543 0.0
C1230 C 0.49085 0.07666 0.00161 0.0
C1231 C 0.4776 0.05091 0.00082 0.0
C1232 C 0.48158 0.08947 0.99407 0.0
C1233 C 0.45877 0.07611 0.9853 0.0
C1234 C 0.44516 0.0501 0.98463 0.0
C1235 C 0.45457 0.03783 0.99263 0.0
C1236 C 0.49639 0.11726 0.99532 0.0
C1237 C 0.42102 0.0352 0.97515 0.0
H1238 H 0.41625 0.11844 0.97949 0.0
H1239 H 0.45678 0.1156 0.94432 0.0
H1240 H 0.41709 0.07169 0.99854 0.0
H1241 H 0.44252 0.10073 0.00615 0.0
H1242 H 0.41358 0.09842 0.00068 0.0
H1243 H 0.47544 0.09127 0.94391 0.0
H1244 H 0.49109 0.0955 0.96187 0.0
H1245 H 0.46447 0.06652 0.95548 0.0
H1246 H 0.50858 0.08684 0.00805 0.0
H1247 H 0.44408 0.01793 0.99225 0.0
H1248 H 0.48509 0.1252 0.99885 0.0
H1249 H 0.50206 0.12338 0.98441 0.0
H1250 H 0.51306 0.12491 0.00328 0.0
H1251 H 0.40806 0.04127 0.9783 0.0
H1252 H 0.41252 0.01513 0.97605 0.0
H1253 H 0.4238 0.03833 0.96346 0.0
C1254 C 0.64675 0.12745 0.94913 0.0
C1255 C 0.66401 0.11993 0.94773 0.0
C1256 C 0.62551 0.11339 0.95594 0.0
C1257 C 0.62129 0.09109 0.96121 0.0
C1258 C 0.6384 0.08311 0.95947 0.0
C1259 C 0.65969 0.09778 0.95288 0.0
C1260 C 0.6079 0.12269 0.9578 0.0
C1261 C 0.6343 0.0592 0.96469 0.0
C1262 C 0.58006 0.06585 0.99162 0.0
C1263 C 0.55798 0.04789 0.98365 0.0
C1264 C 0.60069 0.08032 0.98442 0.0
C1265 C 0.59932 0.07639 0.9689 0.0
C1266 C 0.57708 0.05825 0.96079 0.0
C1267 C 0.55662 0.04437 0.96825 0.0
C1268 C 0.62397 0.0998 0.99342 0.0
C1269 C 0.57498 0.05325 0.94426 0.0
H1270 H 0.65023 0.14471 0.94526 0.0
H1271 H 0.67298 0.09189 0.95168 0.0
H1272 H 0.58937 0.10873 0.95259 0.0
H1273 H 0.60643 0.12571 0.96968 0.0
H1274 H 0.61369 0.14023 0.95291 0.0
H1275 H 0.64879 0.05508 0.96188 0.0
H1276 H 0.63391 0.06005 0.9768 0.0
H1277 H 0.61631 0.04374 0.9597 0.0
H1278 H 0.58117 0.06878 0.0035 0.0
H1279 H 0.53965 0.0304 0.96201 0.0
H1280 H 0.6299 0.11804 0.98947 0.0
H1281 H 0.63883 0.09562 0.99204 0.0
H1282 H 0.62176 0.10111 0.00533 0.0
H1283 H 0.57964 0.07029 0.93908 0.0
H1284 H 0.55632 0.0386 0.93958 0.0
H1285 H 0.58825 0.04754 0.9412 0.0
C1286 C 0.88607 0.54741 0.94004 0.0
C1287 C 0.86298 0.5379 0.94514 0.0
C1288 C 0.90372 0.54271 0.94657 0.0
C1289 C 0.89797 0.52785 0.95832 0.0
C1290 C 0.87453 0.51789 0.96336 0.0
C1291 C 0.85737 0.52322 0.95678 0.0
C1292 C 0.92864 0.55398 0.94106 0.0
C1293 C 0.86761 0.50167 0.97572 0.0
C1294 C 0.93625 0.49842 0.96743 0.0
C1295 C 0.95126 0.51369 0.97998 0.0
C1296 C 0.91881 0.50281 0.96023 0.0
C1297 C 0.91666 0.52318 0.9656 0.0
C1298 C 0.93213 0.53895 0.97809 0.0
C1299 C 0.94911 0.53389 0.9852 0.0
C1300 C 0.90241 0.48542 0.94706 0.0
C1301 C 0.93066 0.56108 0.98399 0.0
H1302 H 0.89048 0.55897 0.93113 0.0
H1303 H 0.83943 0.51567 0.96062 0.0
H1304 H 0.94292 0.56615 0.95012 0.0
H1305 H 0.93263 0.53931 0.93742 0.0
H1306 H 0.93012 0.56494 0.93175 0.0
H1307 H 0.84835 0.49466 0.97797 0.0
H1308 H 0.87014 0.48571 0.97297 0.0
H1309 H 0.87978 0.51213 0.98593 0.0
H1310 H 0.93773 0.48269 0.9634 0.0
H1311 H 0.96079 0.54588 0.99484 0.0
H1312 H 0.90444 0.49572 0.93737 0.0
H1313 H 0.883 0.47688 0.9493 0.0
H1314 H 0.90651 0.47053 0.94422 0.0
H1315 H 0.93323 0.57323 0.9752 0.0
H1316 H 0.94463 0.57202 0.99347 0.0
H1317 H 0.91228 0.55503 0.98757 0.0
C1318 C 0.45586 0.34345 0.95764 0.0
C1319 C 0.45209 0.32354 0.96543 0.0
C1320 C 0.4642 0.36694 0.96499 0.0
C1321 C 0.46835 0.37051 0.98054 0.0
C1322 C 0.4642 0.35049 0.9885 0.0
C1323 C 0.45639 0.32733 0.98086 0.0
C1324 C 0.46872 0.38797 0.95612 0.0
C1325 C 0.46807 0.35354 0.00511 0.0
C1326 C 0.51062 0.43499 0.99965 0.0
C1327 C 0.49388 0.4422 0.00346 0.0
C1328 C 0.50256 0.41176 0.99203 0.0
C1329 C 0.47716 0.39525 0.98848 0.0
C1330 C 0.46017 0.40239 0.9925 0.0
C1331 C 0.46878 0.42594 0.99981 0.0
C1332 C 0.52123 0.40501 0.98762 0.0
C1333 C 0.43294 0.38513 0.98913 0.0
H1334 H 0.45215 0.3407 0.94576 0.0
H1335 H 0.45397 0.31227 0.987 0.0
H1336 H 0.45685 0.39549 0.95914 0.0
H1337 H 0.48796 0.40316 0.95867 0.0
H1338 H 0.46514 0.38225 0.94408 0.0
H1339 H 0.46307 0.3359 0.00968 0.0
H1340 H 0.48752 0.36701 0.00893 0.0
H1341 H 0.45694 0.36097 0.00969 0.0
H1342 H 0.53006 0.44772 0.00236 0.0
H1343 H 0.45586 0.43158 0.00279 0.0
H1344 H 0.51887 0.40046 0.9755 0.0
H1345 H 0.5184 0.38837 0.99268 0.0
H1346 H 0.5403 0.42013 0.99098 0.0
H1347 H 0.42806 0.38032 0.97707 0.0
H1348 H 0.42219 0.39328 0.99338 0.0
H1349 H 0.42747 0.36771 0.99406 0.0
C1350 C 0.11556 0.65379 0.05719 0.0
C1351 C 0.13065 0.67502 0.05054 0.0
C1352 C 0.10006 0.63114 0.04874 0.0
C1353 C 0.09913 0.62974 0.03321 0.0
C1354 C 0.1137 0.65117 0.02638 0.0
C1355 C 0.12948 0.67345 0.03511 0.0
C1356 C 0.085 0.60859 0.05643 0.0
C1357 C 0.11283 0.65049 0.00983 0.0
C1358 C 0.07792 0.56784 0.01147 0.0
C1359 C 0.05329 0.55987 0.0073 0.0
C1360 C 0.09303 0.5905 0.02 0.0
C1361 C 0.08333 0.60573 0.02413 0.0
C1362 C 0.05854 0.59791 0.01969 0.0
C1363 C 0.04371 0.57488 0.01146 0.0
C1364 C 0.11921 0.59795 0.02483 0.0
C1365 C 0.04768 0.61384 0.02361 0.0
H1366 H 0.11586 0.65482 0.06906 0.0
H1367 H 0.14127 0.68954 0.02981 0.0
H1368 H 0.06526 0.60061 0.05282 0.0
H1369 H 0.08977 0.59426 0.05341 0.0
H1370 H 0.08791 0.61275 0.0686 0.0
H1371 H 0.12413 0.66907 0.00622 0.0
H1372 H 0.11953 0.63835 0.00545 0.0
H1373 H 0.09368 0.64263 0.00487 0.0
H1374 H 0.08524 0.55607 0.00835 0.0
H1375 H 0.02462 0.56867 0.00821 0.0
H1376 H 0.12252 0.60095 0.03702 0.0
H1377 H 0.13186 0.61562 0.02065 0.0
H1378 H 0.12381 0.58384 0.02086 0.0
H1379 H 0.0484 0.61687 0.03574 0.0
H1380 H 0.02836 0.60548 0.01879 0.0
H1381 H 0.05856 0.63219 0.01967 0.0
C1382 C 0.35217 0.48106 0.06662 0.0
C1383 C 0.33523 0.45666 0.0686 0.0
C1384 C 0.3726 0.48664 0.05904 0.0
C1385 C 0.37639 0.46737 0.05359 0.0
C1386 C 0.35958 0.44272 0.05585 0.0
C1387 C 0.33902 0.43763 0.06319 0.0
C1388 C 0.38985 0.51308 0.05662 0.0
C1389 C 0.3633 0.42175 0.05048 0.0
C1390 C 0.4154 0.47789 0.02195 0.0
C1391 C 0.43822 0.48472 0.02937 0.0
C1392 C 0.39514 0.47228 0.02971 0.0
C1393 C 0.39766 0.47298 0.04523 0.0
C1394 C 0.42057 0.47942 0.05276 0.0
C1395 C 0.44065 0.4855 0.04475 0.0
C1396 C 0.37114 0.46596 0.02132 0.0
C1397 C 0.42389 0.47992 0.06927 0.0
H1398 H 0.34909 0.49574 0.07069 0.0
H1399 H 0.32597 0.41877 0.06483 0.0
H1400 H 0.40865 0.51896 0.06146 0.0
H1401 H 0.39054 0.51478 0.04465 0.0
H1402 H 0.38427 0.52588 0.06154 0.0
H1403 H 0.34913 0.4038 0.05368 0.0
H1404 H 0.3628 0.42028 0.03832 0.0
H1405 H 0.38157 0.4254 0.05501 0.0
H1406 H 0.41349 0.47743 0.01007 0.0
H1407 H 0.45822 0.49059 0.05054 0.0
H1408 H 0.36539 0.47914 0.02529 0.0
H1409 H 0.35665 0.4473 0.0233 0.0
H1410 H 0.37229 0.46646 0.00928 0.0
H1411 H 0.42072 0.4942 0.0747 0.0
H1412 H 0.44251 0.4839 0.07332 0.0
H1413 H 0.41026 0.46195 0.07271 0.0
C1414 C 0.54048 0.89294 0.05173 0.0
C1415 C 0.55685 0.88686 0.04559 0.0
C1416 C 0.53218 0.90684 0.04453 0.0
C1417 C 0.53966 0.91409 0.03057 0.0
C1418 C 0.55615 0.90815 0.02429 0.0
C1419 C 0.5649 0.89505 0.03198 0.0
C1420 C 0.51514 0.91348 0.05178 0.0
C1421 C 0.56416 0.91516 0.00928 0.0
C1422 C 0.49709 0.92638 0.00629 0.0
C1423 C 0.50965 0.95217 0.00757 0.0
C1424 C 0.50699 0.91374 0.01342 0.0
C1425 C 0.52962 0.92728 0.02236 0.0
C1426 C 0.54245 0.95335 0.0236 0.0
C1427 C 0.53256 0.96546 0.01586 0.0
C1428 C 0.49316 0.88591 0.01145 0.0
C1429 C 0.56626 0.96845 0.03336 0.0
H1430 H 0.53367 0.88645 0.06206 0.0
H1431 H 0.57801 0.89116 0.02724 0.0
H1432 H 0.52232 0.93361 0.05218 0.0
H1433 H 0.49697 0.90407 0.04522 0.0
H1434 H 0.51266 0.90818 0.06316 0.0
H1435 H 0.57683 0.90885 0.00584 0.0
H1436 H 0.54791 0.90697 0.00096 0.0
H1437 H 0.5734 0.93544 0.00923 0.0
H1438 H 0.47949 0.91605 0.99973 0.0
H1439 H 0.54263 0.9854 0.01651 0.0
H1440 H 0.48746 0.87878 0.02215 0.0
H1441 H 0.50518 0.87903 0.00764 0.0
H1442 H 0.47659 0.87819 0.00341 0.0
H1443 H 0.56343 0.96396 0.04486 0.0
H1444 H 0.57376 0.98858 0.03323 0.0
H1445 H 0.58006 0.96385 0.02983 0.0
C1446 C 0.99728 0.23297 0.39091 0.0
C1447 C 0.99504 0.21137 0.39589 0.0
C1448 C 0.01781 0.24909 0.38415 0.0
C1449 C 0.03641 0.24331 0.3821 0.0
C1450 C 0.03442 0.2217 0.38719 0.0
C1451 C 0.01387 0.20611 0.39412 0.0
C1452 C 0.01945 0.27214 0.37902 0.0
C1453 C 0.05383 0.21486 0.38513 0.0
C1454 C 0.0768 0.27116 0.35164 0.0
C1455 C 0.0984 0.29002 0.35961 0.0
C1456 C 0.0565 0.25581 0.35884 0.0
C1457 C 0.05773 0.25962 0.37435 0.0
C1458 C 0.07936 0.27885 0.38244 0.0
C1459 C 0.09946 0.29374 0.37498 0.0
C1460 C 0.03384 0.23527 0.34986 0.0
C1461 C 0.08132 0.28368 0.39898 0.0
H1462 H 0.98271 0.23707 0.392 0.0
H1463 H 0.01259 0.18975 0.39817 0.0
H1464 H 0.03688 0.28858 0.38387 0.0
H1465 H 0.01945 0.27142 0.36689 0.0
H1466 H 0.00401 0.27456 0.38207 0.0
H1467 H 0.04955 0.19741 0.38973 0.0
H1468 H 0.05574 0.21277 0.37324 0.0
H1469 H 0.0718 0.22976 0.39053 0.0
H1470 H 0.07589 0.26808 0.33978 0.0
H1471 H 0.116 0.30841 0.38122 0.0
H1472 H 0.01787 0.23751 0.35161 0.0
H1473 H 0.02976 0.21727 0.35351 0.0
H1474 H 0.03584 0.23474 0.33789 0.0
H1475 H 0.06641 0.28685 0.40215 0.0
H1476 H 0.09915 0.29989 0.40357 0.0
H1477 H 0.07913 0.26733 0.40414 0.0
C1478 C 0.8115 0.80867 0.39055 0.0
C1479 C 0.80516 0.78429 0.39239 0.0
C1480 C 0.79482 0.81402 0.38331 0.0
C1481 C 0.77104 0.79458 0.37803 0.0
C1482 C 0.76445 0.76996 0.37987 0.0
C1483 C 0.78164 0.7651 0.3869 0.0
C1484 C 0.80261 0.8405 0.3814 0.0
C1485 C 0.73916 0.74877 0.37451 0.0
C1486 C 0.72131 0.811 0.37203 0.0
C1487 C 0.71918 0.811 0.35671 0.0
C1488 C 0.73791 0.80539 0.3791 0.0
C1489 C 0.75301 0.80005 0.37065 0.0
C1490 C 0.75101 0.80012 0.35518 0.0
C1491 C 0.73394 0.80538 0.34837 0.0
C1492 C 0.7392 0.80508 0.3956 0.0
C1493 C 0.7671 0.79495 0.34583 0.0
H1494 H 0.82942 0.8237 0.39496 0.0
H1495 H 0.77665 0.74617 0.38801 0.0
H1496 H 0.80002 0.84251 0.36959 0.0
H1497 H 0.79101 0.84603 0.38728 0.0
H1498 H 0.82206 0.85337 0.38565 0.0
H1499 H 0.73679 0.73072 0.37703 0.0
H1500 H 0.72521 0.75153 0.37969 0.0
H1501 H 0.73551 0.74809 0.36244 0.0
H1502 H 0.70975 0.81504 0.3785 0.0
H1503 H 0.73247 0.80552 0.33653 0.0
H1504 H 0.75787 0.8188 0.40073 0.0
H1505 H 0.73548 0.78672 0.3984 0.0
H1506 H 0.7259 0.80925 0.40053 0.0
H1507 H 0.78663 0.80847 0.34944 0.0
H1508 H 0.76337 0.79589 0.33395 0.0
H1509 H 0.76429 0.77638 0.34725 0.0
C1510 C 0.20897 0.99849 0.38725 0.0
C1511 C 0.22424 0.01975 0.3808 0.0
C1512 C 0.20139 0.97502 0.38015 0.0
C1513 C 0.20876 0.97288 0.36609 0.0
C1514 C 0.22417 0.99438 0.35953 0.0
C1515 C 0.23199 0.01763 0.36707 0.0
C1516 C 0.18547 0.95254 0.38765 0.0
C1517 C 0.23197 0.99282 0.34444 0.0
C1518 C 0.20504 0.9128 0.35224 0.0
C1519 C 0.1821 0.90036 0.34392 0.0
C1520 C 0.21392 0.93638 0.35961 0.0
C1521 C 0.19989 0.9481 0.35815 0.0
C1522 C 0.17711 0.93595 0.3493 0.0
C1523 C 0.16836 0.91207 0.34242 0.0
C1524 C 0.23803 0.94852 0.3692 0.0
C1525 C 0.1619 0.94808 0.34719 0.0
H1526 H 0.20318 0.00028 0.39794 0.0
H1527 H 0.24372 0.03418 0.36211 0.0
H1528 H 0.16747 0.94116 0.38102 0.0
H1529 H 0.19407 0.94097 0.38849 0.0
H1530 H 0.18235 0.95744 0.39887 0.0
H1531 H 0.24396 0.01129 0.34089 0.0
H1532 H 0.24191 0.98247 0.34433 0.0
H1533 H 0.21559 0.98256 0.33626 0.0
H1534 H 0.2159 0.90395 0.35318 0.0
H1535 H 0.1507 0.90256 0.33588 0.0
H1536 H 0.23524 0.9525 0.38067 0.0
H1537 H 0.25096 0.96638 0.36533 0.0
H1538 H 0.24658 0.93681 0.36925 0.0
H1539 H 0.15616 0.95141 0.3579 0.0
H1540 H 0.14527 0.93669 0.33932 0.0
H1541 H 0.17295 0.96627 0.34309 0.0
C1542 C 0.53804 0.66826 0.28759 0.0
C1543 C 0.53478 0.6465 0.2928 0.0
C1544 C 0.55498 0.69134 0.29511 0.0
C1545 C 0.5685 0.69258 0.30835 0.0
C1546 C 0.56532 0.67061 0.31362 0.0
C1547 C 0.54866 0.64778 0.30566 0.0
C1548 C 0.55828 0.71437 0.28896 0.0
C1549 C 0.57906 0.6712 0.32783 0.0
C1550 C 0.62586 0.75328 0.32233 0.0
C1551 C 0.61672 0.76397 0.3321 0.0
C1552 C 0.61039 0.73004 0.31449 0.0
C1553 C 0.58538 0.71688 0.31688 0.0
C1554 C 0.57627 0.72726 0.32715 0.0
C1555 C 0.59202 0.75083 0.33451 0.0
C1556 C 0.62065 0.71984 0.30339 0.0
C1557 C 0.54984 0.71357 0.33023 0.0
H1558 H 0.52738 0.66716 0.27756 0.0
H1559 H 0.54596 0.63087 0.30969 0.0
H1560 H 0.55265 0.72442 0.29673 0.0
H1561 H 0.57786 0.7269 0.28767 0.0
H1562 H 0.54738 0.71024 0.27813 0.0
H1563 H 0.57473 0.65248 0.33031 0.0
H1564 H 0.59905 0.6826 0.32732 0.0
H1565 H 0.57441 0.67987 0.33707 0.0
H1566 H 0.64505 0.76329 0.32061 0.0
H1567 H 0.58496 0.759 0.34215 0.0
H1568 H 0.61085 0.71671 0.29231 0.0
H1569 H 0.61777 0.70177 0.30619 0.0
H1570 H 0.64052 0.73242 0.30285 0.0
H1571 H 0.53778 0.71081 0.32014 0.0
H1572 H 0.54602 0.72358 0.33916 0.0
H1573 H 0.5449 0.69505 0.33338 0.0
C1574 C 0.31907 0.85321 0.28166 0.0
C1575 C 0.3369 0.87735 0.27962 0.0
C1576 C 0.29896 0.84857 0.28934 0.0
C1577 C 0.29623 0.8685 0.29483 0.0
C1578 C 0.31379 0.89285 0.29255 0.0
C1579 C 0.33403 0.89701 0.28514 0.0
C1580 C 0.28076 0.82235 0.29169 0.0
C1581 C 0.31126 0.91454 0.29803 0.0
C1582 C 0.23265 0.85339 0.30333 0.0
C1583 C 0.23472 0.85398 0.3187 0.0
C1584 C 0.25264 0.8585 0.29543 0.0
C1585 C 0.2751 0.86384 0.30308 0.0
C1586 C 0.27728 0.86441 0.31861 0.0
C1587 C 0.25712 0.85972 0.32625 0.0
C1588 C 0.2497 0.85818 0.27891 0.0
C1589 C 0.3008 0.86954 0.32711 0.0
H1590 H 0.32073 0.83781 0.2772 0.0
H1591 H 0.34782 0.91577 0.28388 0.0
H1592 H 0.27947 0.82071 0.30364 0.0
H1593 H 0.26231 0.81718 0.28655 0.0
H1594 H 0.28581 0.80898 0.287 0.0
H1595 H 0.32588 0.9322 0.29477 0.0
H1596 H 0.29324 0.91172 0.29365 0.0
H1597 H 0.31199 0.91609 0.31021 0.0
H1598 H 0.21541 0.84915 0.29743 0.0
H1599 H 0.25874 0.86001 0.33813 0.0
H1600 H 0.25294 0.84394 0.27351 0.0
H1601 H 0.26351 0.8762 0.27563 0.0
H1602 H 0.23118 0.85432 0.27469 0.0
H1603 H 0.30566 0.85564 0.32321 0.0
H1604 H 0.29946 0.86917 0.33914 0.0
H1605 H 0.31599 0.88786 0.32516 0.0
C1606 C 0.10239 0.44516 0.30142 0.0
C1607 C 0.11056 0.45243 0.28777 0.0
C1608 C 0.10995 0.43121 0.30919 0.0
C1609 C 0.12557 0.42392 0.30294 0.0
C1610 C 0.13314 0.43048 0.28888 0.0
C1611 C 0.12582 0.44503 0.28153 0.0
C1612 C 0.10192 0.42503 0.32429 0.0
C1613 C 0.14925 0.42245 0.28171 0.0
C1614 C 0.16584 0.41144 0.32911 0.0
C1615 C 0.15212 0.38577 0.32887 0.0
C1616 C 0.15742 0.42407 0.32068 0.0
C1617 C 0.13502 0.4106 0.31152 0.0
C1618 C 0.12133 0.3846 0.311 0.0
C1619 C 0.12983 0.37253 0.31992 0.0
C1620 C 0.17229 0.45185 0.32178 0.0
C1621 C 0.09768 0.36956 0.30109 0.0
H1622 H 0.09071 0.45111 0.30623 0.0
H1623 H 0.13199 0.45063 0.27092 0.0
H1624 H 0.09254 0.40482 0.32471 0.0
H1625 H 0.11818 0.43351 0.3326 0.0
H1626 H 0.08936 0.43167 0.32743 0.0
H1627 H 0.15174 0.42725 0.27024 0.0
H1628 H 0.1675 0.4314 0.28816 0.0
H1629 H 0.14128 0.40224 0.28161 0.0
H1630 H 0.18305 0.42175 0.33607 0.0
H1631 H 0.11898 0.35275 0.31993 0.0
H1632 H 0.16114 0.45982 0.32557 0.0
H1633 H 0.17748 0.45788 0.3108 0.0
H1634 H 0.18922 0.45956 0.32951 0.0
H1635 H 0.08382 0.37405 0.30465 0.0
H1636 H 0.09023 0.34942 0.30116 0.0
H1637 H 0.10057 0.37419 0.28962 0.0
C1638 C 0.32907 0.43074 0.28672 0.0
C1639 C 0.33337 0.45309 0.2819 0.0
C1640 C 0.30798 0.416 0.29346 0.0
C1641 C 0.29109 0.4241 0.29569 0.0
C1642 C 0.29529 0.44661 0.29075 0.0
C1643 C 0.3163 0.46074 0.28377 0.0
C1644 C 0.30386 0.39185 0.2983 0.0
C1645 C 0.2779 0.45604 0.29314 0.0
C1646 C 0.22671 0.37726 0.30308 0.0
C1647 C 0.22847 0.38034 0.31851 0.0
C1648 C 0.24691 0.39139 0.29549 0.0
C1649 C 0.26934 0.40927 0.30352 0.0
C1650 C 0.27115 0.41273 0.31908 0.0
C1651 C 0.25073 0.39809 0.3264 0.0
C1652 C 0.2443 0.38697 0.2789 0.0
C1653 C 0.29465 0.43194 0.328 0.0
H1654 H 0.3422 0.42475 0.28515 0.0
H1655 H 0.31977 0.47815 0.28014 0.0
H1656 H 0.30375 0.39236 0.31042 0.0
H1657 H 0.28574 0.37657 0.29333 0.0
H1658 H 0.31818 0.38769 0.29515 0.0
H1659 H 0.2837 0.47379 0.28851 0.0
H1660 H 0.25924 0.44231 0.28799 0.0
H1661 H 0.27672 0.45871 0.3051 0.0
H1662 H 0.20958 0.36355 0.29687 0.0
H1663 H 0.25217 0.40071 0.33831 0.0
H1664 H 0.25756 0.38155 0.27538 0.0
H1665 H 0.24858 0.40418 0.27403 0.0
H1666 H 0.22557 0.37233 0.27431 0.0
H1667 H 0.30941 0.42773 0.32624 0.0
H1668 H 0.29278 0.43294 0.33997 0.0
H1669 H 0.30052 0.45034 0.3243 0.0
C1670 C 0.55748 0.88829 0.27642 0.0
C1671 C 0.53418 0.87929 0.28113 0.0
C1672 C 0.57436 0.88279 0.28322 0.0
C1673 C 0.56756 0.86755 0.29479 0.0
C1674 C 0.54398 0.85834 0.29954 0.0
C1675 C 0.52764 0.86452 0.29273 0.0
C1676 C 0.59948 0.89333 0.27804 0.0
C1677 C 0.53593 0.84171 0.31168 0.0
C1678 C 0.60282 0.83472 0.30298 0.0
C1679 C 0.61815 0.84908 0.31567 0.0
C1680 C 0.58613 0.84042 0.29612 0.0
C1681 C 0.5851 0.86124 0.30195 0.0
C1682 C 0.60076 0.87597 0.31465 0.0
C1683 C 0.61694 0.86958 0.32144 0.0
C1684 C 0.56943 0.82404 0.28273 0.0
C1685 C 0.6005 0.89857 0.32103 0.0
H1686 H 0.56257 0.89987 0.26751 0.0
H1687 H 0.50952 0.85738 0.29625 0.0
H1688 H 0.6137 0.90426 0.28739 0.0
H1689 H 0.60249 0.8782 0.27392 0.0
H1690 H 0.60208 0.90534 0.26915 0.0
H1691 H 0.51687 0.83584 0.31393 0.0
H1692 H 0.53716 0.82503 0.30867 0.0
H1693 H 0.54827 0.85131 0.32196 0.0
H1694 H 0.60359 0.81877 0.29853 0.0
H1695 H 0.62889 0.88086 0.33119 0.0
H1696 H 0.57256 0.83489 0.27321 0.0
H1697 H 0.55005 0.81662 0.2848 0.0
H1698 H 0.57228 0.80834 0.27972 0.0
H1699 H 0.60423 0.91149 0.31256 0.0
H1700 H 0.61427 0.90841 0.33075 0.0
H1701 H 0.58214 0.89328 0.32437 0.0
C1702 C 0.10768 0.65349 0.31235 0.0
C1703 C 0.11584 0.65194 0.2986 0.0
C1704 C 0.11578 0.67637 0.32049 0.0
C1705 C 0.13181 0.69831 0.31455 0.0
C1706 C 0.13982 0.69698 0.30062 0.0
C1707 C 0.13212 0.67387 0.29296 0.0
C1708 C 0.10726 0.67706 0.33546 0.0
C1709 C 0.15652 0.72001 0.29377 0.0
C1710 C 0.13528 0.758 0.32898 0.0
C1711 C 0.15809 0.77025 0.33743 0.0
C1712 C 0.12649 0.73457 0.32142 0.0
C1713 C 0.14039 0.72272 0.32291 0.0
C1714 C 0.1629 0.73455 0.33203 0.0
C1715 C 0.17165 0.75835 0.33903 0.0
C1716 C 0.10273 0.72286 0.3115 0.0
C1717 C 0.17788 0.72219 0.33424 0.0
H1718 H 0.09477 0.63684 0.31677 0.0
H1719 H 0.1391 0.67309 0.28255 0.0
H1720 H 0.12328 0.68751 0.34387 0.0
H1721 H 0.09671 0.68679 0.3355 0.0
H1722 H 0.09557 0.65833 0.33877 0.0
H1723 H 0.16008 0.71581 0.28253 0.0
H1724 H 0.14832 0.73196 0.29315 0.0
H1725 H 0.17428 0.73073 0.30073 0.0
H1726 H 0.1245 0.76693 0.32803 0.0
H1727 H 0.18918 0.76768 0.34571 0.0
H1728 H 0.08961 0.70468 0.31493 0.0
H1729 H 0.10607 0.7196 0.30004 0.0
H1730 H 0.09414 0.73452 0.31159 0.0
H1731 H 0.16643 0.70368 0.33787 0.0
H1732 H 0.19404 0.73312 0.34252 0.0
H1733 H 0.18436 0.71952 0.32368 0.0
C1734 C 0.796 0.99064 0.38563 0.0
C1735 C 0.79858 0.01262 0.38106 0.0
C1736 C 0.78015 0.9678 0.37748 0.0
C1737 C 0.76704 0.96687 0.36417 0.0
C1738 C 0.7698 0.98892 0.35931 0.0
C1739 C 0.78528 0.01148 0.3679 0.0
C1740 C 0.7774 0.94463 0.38316 0.0
C1741 C 0.75642 0.98867 0.34503 0.0
C1742 C 0.7443 0.90914 0.33762 0.0
C1743 C 0.71962 0.89564 0.34004 0.0
C1744 C 0.75978 0.93274 0.34505 0.0
C1745 C 0.75043 0.94274 0.35538 0.0
C1746 C 0.72542 0.92925 0.35772 0.0
C1747 C 0.71021 0.90602 0.34982 0.0
C1748 C 0.78621 0.94682 0.342 0.0
C1749 C 0.71487 0.93903 0.36887 0.0
H1750 H 0.80654 0.99122 0.39556 0.0
H1751 H 0.78676 0.0282 0.36433 0.0
H1752 H 0.75786 0.93158 0.38426 0.0
H1753 H 0.78349 0.9353 0.3752 0.0
H1754 H 0.78816 0.94843 0.394 0.0
H1755 H 0.76126 0.00751 0.34252 0.0
H1756 H 0.76076 0.97966 0.33582 0.0
H1757 H 0.73638 0.97775 0.34553 0.0
H1758 H 0.75154 0.90121 0.32995 0.0
H1759 H 0.69103 0.89575 0.35153 0.0
H1760 H 0.79831 0.94943 0.35203 0.0
H1761 H 0.79095 0.96541 0.33907 0.0
H1762 H 0.79016 0.93719 0.33292 0.0
H1763 H 0.72458 0.94201 0.37997 0.0
H1764 H 0.69502 0.92628 0.36931 0.0
H1765 H 0.71762 0.95713 0.36622 0.0
C1766 C 0.01785 0.80954 0.39947 0.0
C1767 C 0.00093 0.78491 0.40097 0.0
C1768 C 0.03858 0.81574 0.39208 0.0
C1769 C 0.04269 0.79684 0.38631 0.0
C1770 C 0.02592 0.77196 0.3881 0.0
C1771 C 0.00507 0.76626 0.39527 0.0
C1772 C 0.0558 0.84243 0.39017 0.0
C1773 C 0.02995 0.75136 0.38238 0.0
C1774 C 0.08271 0.80905 0.35506 0.0
C1775 C 0.1053 0.81541 0.36262 0.0
C1776 C 0.06222 0.80313 0.36266 0.0
C1777 C 0.06428 0.80309 0.37814 0.0
C1778 C 0.08698 0.8092 0.38581 0.0
C1779 C 0.10728 0.81553 0.37797 0.0
C1780 C 0.03843 0.79718 0.35414 0.0
C1781 C 0.08983 0.80895 0.40228 0.0
H1782 H 0.01449 0.82393 0.40375 0.0
H1783 H 0.99203 0.74722 0.39654 0.0
H1784 H 0.07454 0.84821 0.39508 0.0
H1785 H 0.05677 0.84479 0.37828 0.0
H1786 H 0.05001 0.85489 0.39534 0.0
H1787 H 0.01574 0.73313 0.38523 0.0
H1788 H 0.02979 0.75054 0.37024 0.0
H1789 H 0.04817 0.75494 0.38698 0.0
H1790 H 0.08113 0.8091 0.34321 0.0
H1791 H 0.12466 0.82025 0.38387 0.0
H1792 H 0.03248 0.81006 0.35836 0.0
H1793 H 0.02388 0.77829 0.35569 0.0
H1794 H 0.03998 0.79843 0.34217 0.0
H1795 H 0.08589 0.82254 0.40789 0.0
H1796 H 0.10853 0.81337 0.4065 0.0
H1797 H 0.07645 0.79055 0.40534 0.0
C1798 C 0.208 0.22363 0.39192 0.0
C1799 C 0.22464 0.21836 0.38541 0.0
C1800 C 0.19954 0.2379 0.38533 0.0
C1801 C 0.20714 0.24635 0.3716 0.0
C1802 C 0.22395 0.24127 0.36497 0.0
C1803 C 0.23285 0.22778 0.37209 0.0
C1804 C 0.18215 0.24357 0.39294 0.0
C1805 C 0.23208 0.24953 0.35017 0.0
C1806 C 0.16464 0.25875 0.34736 0.0
C1807 C 0.17715 0.28455 0.34867 0.0
C1808 C 0.17434 0.2461 0.35465 0.0
C1809 C 0.19669 0.25962 0.36386 0.0
C1810 C 0.20917 0.2857 0.36543 0.0
C1811 C 0.19951 0.29785 0.35753 0.0
C1812 C 0.16085 0.21828 0.35233 0.0
C1813 C 0.23266 0.30075 0.37549 0.0
H1814 H 0.20108 0.21621 0.40205 0.0
H1815 H 0.24619 0.22453 0.36709 0.0
H1816 H 0.18883 0.26364 0.3937 0.0
H1817 H 0.16393 0.23401 0.38643 0.0
H1818 H 0.17991 0.23772 0.4042 0.0
H1819 H 0.24507 0.24385 0.34644 0.0
H1820 H 0.21592 0.2416 0.34181 0.0
H1821 H 0.241 0.26986 0.35066 0.0
H1822 H 0.14742 0.2484 0.34041 0.0
H1823 H 0.20951 0.31776 0.35827 0.0
H1824 H 0.15557 0.21064 0.36295 0.0
H1825 H 0.17301 0.21189 0.34808 0.0
H1826 H 0.14407 0.21058 0.34446 0.0
H1827 H 0.23003 0.29473 0.38669 0.0
H1828 H 0.23912 0.32079 0.3763 0.0
H1829 H 0.2472 0.29776 0.37141 0.0
C1830 C 0.68384 0.53912 0.72928 0.0
C1831 C 0.66426 0.54329 0.73082 0.0
C1832 C 0.70386 0.55488 0.72202 0.0
C1833 C 0.70452 0.57555 0.71633 0.0
C1834 C 0.6851 0.5802 0.71809 0.0
C1835 C 0.66515 0.56394 0.72522 0.0
C1836 C 0.72419 0.54927 0.72033 0.0
C1837 C 0.68531 0.60222 0.71231 0.0
C1838 C 0.76663 0.62736 0.70897 0.0
C1839 C 0.76604 0.62285 0.69371 0.0
C1840 C 0.74661 0.61236 0.71645 0.0
C1841 C 0.72551 0.59223 0.70847 0.0
C1842 C 0.72467 0.58774 0.69303 0.0
C1843 C 0.74491 0.60323 0.68581 0.0
C1844 C 0.74814 0.61796 0.73289 0.0
C1845 C 0.70258 0.56629 0.68418 0.0
H1846 H 0.68357 0.52349 0.73379 0.0
H1847 H 0.64999 0.56716 0.72615 0.0
H1848 H 0.72628 0.54691 0.70849 0.0
H1849 H 0.7418 0.56492 0.72564 0.0
H1850 H 0.7208 0.53232 0.72526 0.0
H1851 H 0.66921 0.6037 0.71501 0.0
H1852 H 0.70219 0.61941 0.71699 0.0
H1853 H 0.68544 0.60094 0.70018 0.0
H1854 H 0.78273 0.64278 0.71511 0.0
H1855 H 0.74439 0.59961 0.67402 0.0
H1856 H 0.74695 0.60236 0.7385 0.0
H1857 H 0.73248 0.62014 0.73569 0.0
H1858 H 0.76542 0.63497 0.73735 0.0
H1859 H 0.69947 0.54875 0.68812 0.0
H1860 H 0.70467 0.56553 0.67223 0.0
H1861 H 0.686 0.56754 0.68573 0.0
C1862 C 0.44568 0.11015 0.73656 0.0
C1863 C 0.46903 0.11954 0.73179 0.0
C1864 C 0.42825 0.11484 0.72969 0.0
C1865 C 0.4344 0.12956 0.71787 0.0
C1866 C 0.45799 0.13936 0.71311 0.0
C1867 C 0.47494 0.13409 0.72004 0.0
C1868 C 0.40319 0.10392 0.735 0.0
C1869 C 0.46529 0.15529 0.7006 0.0
C1870 C 0.38431 0.1241 0.6903 0.0
C1871 C 0.38258 0.1447 0.69519 0.0
C1872 C 0.40075 0.11868 0.69776 0.0
C1873 C 0.41606 0.13443 0.7103 0.0
C1874 C 0.41427 0.15514 0.71537 0.0
C1875 C 0.39743 0.15994 0.70781 0.0
C1876 C 0.40188 0.09622 0.69215 0.0
C1877 C 0.43049 0.17251 0.72861 0.0
H1878 H 0.44104 0.09923 0.74578 0.0
H1879 H 0.49275 0.14111 0.71609 0.0
H1880 H 0.39954 0.11881 0.73865 0.0
H1881 H 0.38898 0.09205 0.72584 0.0
H1882 H 0.40125 0.09273 0.74426 0.0
H1883 H 0.48464 0.16223 0.69858 0.0
H1884 H 0.45336 0.14463 0.69036 0.0
H1885 H 0.46272 0.17131 0.70302 0.0
H1886 H 0.37277 0.11214 0.68062 0.0
H1887 H 0.39627 0.17596 0.71162 0.0
H1888 H 0.39889 0.08416 0.70105 0.0
H1889 H 0.42031 0.1019 0.68877 0.0
H1890 H 0.38804 0.08531 0.68261 0.0
H1891 H 0.42817 0.16224 0.73834 0.0
H1892 H 0.42647 0.18751 0.73131 0.0
H1893 H 0.44996 0.18092 0.72651 0.0
C1894 C 0.89926 0.35035 0.69843 0.0
C1895 C 0.89098 0.35235 0.71199 0.0
C1896 C 0.89135 0.32717 0.69077 0.0
C1897 C 0.87529 0.3056 0.69704 0.0
C1898 C 0.86729 0.30759 0.71091 0.0
C1899 C 0.87499 0.33101 0.71813 0.0
C1900 C 0.89986 0.32577 0.67588 0.0
C1901 C 0.85064 0.28501 0.71811 0.0
C1902 C 0.8357 0.24514 0.67288 0.0
C1903 C 0.84923 0.23327 0.6748 0.0
C1904 C 0.84428 0.26897 0.67978 0.0
C1905 C 0.86663 0.2809 0.68906 0.0
C1906 C 0.88045 0.26904 0.69092 0.0
C1907 C 0.87178 0.24553 0.68353 0.0
C1908 C 0.82933 0.28128 0.67726 0.0
C1909 C 0.90409 0.28093 0.70097 0.0
H1910 H 0.91152 0.36696 0.69368 0.0
H1911 H 0.86878 0.3327 0.72869 0.0
H1912 H 0.90974 0.31537 0.67602 0.0
H1913 H 0.88382 0.31564 0.66745 0.0
H1914 H 0.91213 0.34429 0.67248 0.0
H1915 H 0.84687 0.28977 0.72917 0.0
H1916 H 0.83299 0.27381 0.7111 0.0
H1917 H 0.85903 0.27329 0.71926 0.0
H1918 H 0.81834 0.23576 0.66603 0.0
H1919 H 0.88247 0.23654 0.68481 0.0
H1920 H 0.84077 0.29955 0.67334 0.0
H1921 H 0.82299 0.28447 0.68777 0.0
H1922 H 0.81308 0.27007 0.66908 0.0
H1923 H 0.91737 0.29887 0.69733 0.0
H1924 H 0.91255 0.26915 0.70126 0.0
H1925 H 0.90067 0.28472 0.71232 0.0
C1926 C 0.21324 0.00709 0.61938 0.0
C1927 C 0.19724 0.98704 0.62652 0.0
C1928 C 0.2297 0.02991 0.62741 0.0
C1929 C 0.23048 0.03244 0.64294 0.0
C1930 C 0.21464 0.01205 0.6502 0.0
C1931 C 0.19798 0.98964 0.64187 0.0
C1932 C 0.24597 0.05139 0.61927 0.0
C1933 C 0.21534 0.01388 0.66676 0.0
C1934 C 0.28792 0.08535 0.66436 0.0
C1935 C 0.28013 0.10207 0.66809 0.0
C1936 C 0.27185 0.06245 0.65631 0.0
C1937 C 0.24766 0.0565 0.65161 0.0
C1938 C 0.23983 0.07351 0.65524 0.0
C1939 C 0.25611 0.09601 0.66362 0.0
C1940 C 0.28073 0.04462 0.6529 0.0
C1941 C 0.21436 0.06807 0.65011 0.0
H1942 H 0.21248 0.00503 0.60748 0.0
H1943 H 0.18569 0.974 0.64736 0.0
H1944 H 0.24246 0.06678 0.62173 0.0
H1945 H 0.26548 0.05832 0.62303 0.0
H1946 H 0.24299 0.04639 0.60717 0.0
H1947 H 0.20245 0.99605 0.67072 0.0
H1948 H 0.23411 0.02004 0.67182 0.0
H1949 H 0.2106 0.02787 0.6707 0.0
H1950 H 0.30656 0.09012 0.66783 0.0
H1951 H 0.25021 0.10911 0.66637 0.0
H1952 H 0.27979 0.04075 0.64082 0.0
H1953 H 0.26869 0.02683 0.65718 0.0
H1954 H 0.29984 0.05177 0.65776 0.0
H1955 H 0.21108 0.06434 0.63793 0.0
H1956 H 0.21137 0.08354 0.65353 0.0
H1957 H 0.20058 0.05129 0.65461 0.0
C1958 C 0.00118 0.22745 0.61852 0.0
C1959 C 0.00392 0.20761 0.61324 0.0
C1960 C 0.98113 0.22364 0.62604 0.0
C1961 C 0.96364 0.19945 0.62865 0.0
C1962 C 0.96636 0.17936 0.62349 0.0
C1963 C 0.98627 0.18363 0.61571 0.0
C1964 C 0.97863 0.24549 0.63117 0.0
C1965 C 0.94823 0.15331 0.62621 0.0
C1966 C 0.92396 0.19176 0.65965 0.0
C1967 C 0.90167 0.18576 0.65184 0.0
C1968 C 0.9443 0.19619 0.65224 0.0
C1969 C 0.94238 0.1951 0.63668 0.0
C1970 C 0.92003 0.18952 0.62877 0.0
C1971 C 0.89987 0.18466 0.63643 0.0
C1972 C 0.96769 0.2016 0.66102 0.0
C1973 C 0.91738 0.18867 0.61221 0.0
H1974 H 0.01486 0.24609 0.61694 0.0
H1975 H 0.98786 0.16809 0.61146 0.0
H1976 H 0.96073 0.24268 0.62652 0.0
H1977 H 0.97905 0.24727 0.64332 0.0
H1978 H 0.99342 0.26303 0.62789 0.0
H1979 H 0.95345 0.13984 0.62196 0.0
H1980 H 0.94675 0.15222 0.63818 0.0
H1981 H 0.92982 0.14783 0.62085 0.0
H1982 H 0.92536 0.19246 0.67154 0.0
H1983 H 0.88272 0.18024 0.63034 0.0
H1984 H 0.98294 0.21977 0.65892 0.0
H1985 H 0.97259 0.18755 0.6575 0.0
H1986 H 0.96616 0.20169 0.67304 0.0
H1987 H 0.93134 0.20651 0.60878 0.0
H1988 H 0.89896 0.18481 0.60776 0.0
H1989 H 0.92059 0.1742 0.60713 0.0
C1990 C 0.7935 0.77864 0.62026 0.0
C1991 C 0.7791 0.78732 0.62631 0.0
C1992 C 0.80057 0.76434 0.62808 0.0
C1993 C 0.79361 0.75931 0.64243 0.0
C1994 C 0.77899 0.76804 0.64855 0.0
C1995 C 0.77165 0.78172 0.64031 0.0
C1996 C 0.81564 0.75481 0.62106 0.0
C1997 C 0.77167 0.76352 0.66393 0.0
C1998 C 0.79609 0.70716 0.65958 0.0
C1999 C 0.81912 0.71972 0.66777 0.0
C2000 C 0.78768 0.71974 0.65106 0.0
C2001 C 0.8023 0.74561 0.65124 0.0
C2002 C 0.82526 0.75849 0.65988 0.0
C2003 C 0.83351 0.74533 0.66793 0.0
C2004 C 0.76333 0.70531 0.64175 0.0
C2005 C 0.84112 0.78615 0.66062 0.0
H2006 H 0.79913 0.78297 0.60938 0.0
H2007 H 0.76067 0.78869 0.64498 0.0
H2008 H 0.8339 0.76311 0.62744 0.0
H2009 H 0.80669 0.73455 0.62122 0.0
H2010 H 0.81824 0.75909 0.6095 0.0
H2011 H 0.76006 0.77137 0.667 0.0
H2012 H 0.7615 0.74346 0.66492 0.0
H2013 H 0.78829 0.77186 0.67196 0.0
H2014 H 0.78468 0.68744 0.65973 0.0
H2015 H 0.85127 0.75511 0.67435 0.0
H2016 H 0.7658 0.70865 0.63006 0.0
H2017 H 0.75072 0.71161 0.64526 0.0
H2018 H 0.75457 0.68517 0.64249 0.0
H2019 H 0.8464 0.79152 0.64954 0.0
H2020 H 0.85804 0.79345 0.66832 0.0
H2021 H 0.83072 0.79509 0.66422 0.0
C2022 C 0.98692 0.7641 0.61254 0.0
C2023 C 0.00192 0.78909 0.6177 0.0
C2024 C 0.96596 0.74901 0.61931 0.0
C2025 C 0.95965 0.75937 0.63128 0.0
C2026 C 0.97452 0.78475 0.63631 0.0
C2027 C 0.99565 0.79925 0.62955 0.0
C2028 C 0.95081 0.72194 0.61384 0.0
C2029 C 0.9681 0.79658 0.64881 0.0
C2030 C 0.89418 0.72544 0.6409 0.0
C2031 C 0.89648 0.7147 0.6534 0.0
C2032 C 0.91457 0.74001 0.63357 0.0
C2033 C 0.93775 0.74363 0.63875 0.0
C2034 C 0.94013 0.7326 0.65127 0.0
C2035 C 0.91949 0.71845 0.65853 0.0
C2036 C 0.91135 0.75176 0.62038 0.0
C2037 C 0.96445 0.73564 0.65694 0.0
H2038 H 0.99192 0.75629 0.60341 0.0
H2039 H 0.00719 0.81866 0.63341 0.0
H2040 H 0.95013 0.71077 0.62289 0.0
H2041 H 0.93172 0.71701 0.61033 0.0
H2042 H 0.95824 0.71677 0.60444 0.0
H2043 H 0.98106 0.81674 0.651 0.0
H2044 H 0.94936 0.79343 0.64627 0.0
H2045 H 0.9682 0.788 0.659 0.0
H2046 H 0.87646 0.72275 0.63695 0.0
H2047 H 0.92131 0.70998 0.6681 0.0
H2048 H 0.91745 0.74585 0.61062 0.0
H2049 H 0.92294 0.7721 0.62253 0.0
H2050 H 0.89204 0.74692 0.61769 0.0
H2051 H 0.97189 0.72935 0.64806 0.0
H2052 H 0.96302 0.7251 0.66647 0.0
H2053 H 0.97783 0.75539 0.66036 0.0
C2054 C 0.196 0.19735 0.62469 0.0
C2055 C 0.20139 0.21039 0.61231 0.0
C2056 C 0.21285 0.19191 0.63159 0.0
C2057 C 0.23575 0.20004 0.62609 0.0
C2058 C 0.24135 0.21337 0.61365 0.0
C2059 C 0.224 0.21823 0.60684 0.0
C2060 C 0.20608 0.17735 0.64471 0.0
C2061 C 0.26573 0.22266 0.60762 0.0
C2062 C 0.28692 0.20562 0.65274 0.0
C2063 C 0.28734 0.18412 0.64826 0.0
C2064 C 0.27055 0.21127 0.64542 0.0
C2065 C 0.25394 0.19481 0.63349 0.0
C2066 C 0.25437 0.17314 0.62886 0.0
C2067 C 0.27121 0.16815 0.63624 0.0
C2068 C 0.27089 0.23475 0.65052 0.0
C2069 C 0.23671 0.155 0.61631 0.0
H2070 H 0.1784 0.19104 0.62882 0.0
H2071 H 0.22824 0.22848 0.59733 0.0
H2072 H 0.20724 0.16043 0.64253 0.0
H2073 H 0.21922 0.18839 0.65448 0.0
H2074 H 0.18732 0.17193 0.6474 0.0
H2075 H 0.26727 0.23288 0.59792 0.0
H2076 H 0.28076 0.23503 0.61626 0.0
H2077 H 0.26845 0.20699 0.60437 0.0
H2078 H 0.29946 0.21813 0.66196 0.0
H2079 H 0.27136 0.15142 0.63279 0.0
H2080 H 0.25307 0.23029 0.65444 0.0
H2081 H 0.27351 0.24595 0.64121 0.0
H2082 H 0.28563 0.24607 0.65957 0.0
H2083 H 0.21763 0.14786 0.61896 0.0
H2084 H 0.2396 0.13914 0.61398 0.0
H2085 H 0.2387 0.16431 0.60619 0.0
C2086 C 0.80076 0.00738 0.62749 0.0
C2087 C 0.78356 0.98541 0.6327 0.0
C2088 C 0.80808 0.03042 0.63511 0.0
C2089 C 0.79867 0.03161 0.64856 0.0
C2090 C 0.78165 0.00962 0.65405 0.0
C2091 C 0.774 0.98683 0.64594 0.0
C2092 C 0.82589 0.05353 0.62874 0.0
C2093 C 0.77161 0.01016 0.66852 0.0
C2094 C 0.83705 0.09113 0.67374 0.0
C2095 C 0.82401 0.10339 0.67136 0.0
C2096 C 0.82853 0.06735 0.66678 0.0
C2097 C 0.80684 0.05593 0.65691 0.0
C2098 C 0.79344 0.06814 0.65464 0.0
C2099 C 0.80193 0.09152 0.66216 0.0
C2100 C 0.8429 0.0546 0.66983 0.0
C2101 C 0.77061 0.05688 0.6439 0.0
H2102 H 0.80877 0.00668 0.61749 0.0
H2103 H 0.76036 0.97014 0.64999 0.0
H2104 H 0.81808 0.06575 0.62763 0.0
H2105 H 0.84305 0.0639 0.63628 0.0
H2106 H 0.83049 0.04946 0.61779 0.0
H2107 H 0.75922 0.99137 0.67153 0.0
H2108 H 0.78687 0.02025 0.67743 0.0
H2109 H 0.76137 0.02017 0.66796 0.0
H2110 H 0.854 0.10018 0.68099 0.0
H2111 H 0.79156 0.10077 0.66056 0.0
H2112 H 0.85044 0.05204 0.65968 0.0
H2113 H 0.83073 0.03602 0.67316 0.0
H2114 H 0.8583 0.06519 0.67863 0.0
H2115 H 0.77507 0.05381 0.63271 0.0
H2116 H 0.76228 0.06876 0.64346 0.0
H2117 H 0.75684 0.03866 0.64696 0.0
C2118 C 0.45923 0.34317 0.70113 0.0
C2119 C 0.47076 0.34365 0.71486 0.0
C2120 C 0.44382 0.32086 0.6923 0.0
C2121 C 0.43907 0.29839 0.69751 0.0
C2122 C 0.45042 0.29863 0.71135 0.0
C2123 C 0.46646 0.32122 0.7197 0.0
C2124 C 0.43248 0.32135 0.67743 0.0
C2125 C 0.44534 0.27499 0.71745 0.0
C2126 C 0.38027 0.24006 0.6824 0.0
C2127 C 0.38897 0.2277 0.6736 0.0
C2128 C 0.39638 0.26306 0.69027 0.0
C2129 C 0.42169 0.2745 0.68872 0.0
C2130 C 0.43042 0.26266 0.6792 0.0
C2131 C 0.41397 0.23916 0.67192 0.0
C2132 C 0.3864 0.27469 0.70064 0.0
C2133 C 0.45717 0.27466 0.67688 0.0
H2134 H 0.46195 0.36018 0.6973 0.0
H2135 H 0.47566 0.3212 0.73004 0.0
H2136 H 0.43624 0.31086 0.66879 0.0
H2137 H 0.41233 0.31229 0.67736 0.0
H2138 H 0.4395 0.34041 0.6745 0.0
H2139 H 0.45509 0.27833 0.72859 0.0
H2140 H 0.42541 0.26312 0.71808 0.0
H2141 H 0.45099 0.26455 0.71001 0.0
H2142 H 0.36086 0.23143 0.68347 0.0
H2143 H 0.42068 0.22973 0.66496 0.0
H2144 H 0.39095 0.29315 0.6976 0.0
H2145 H 0.39504 0.27731 0.71202 0.0
H2146 H 0.36624 0.26329 0.70062 0.0
H2147 H 0.46382 0.29355 0.67376 0.0
H2148 H 0.46065 0.26398 0.6682 0.0
H2149 H 0.46809 0.27641 0.68728 0.0
C2150 C 0.68137 0.11278 0.73523 0.0
C2151 C 0.66645 0.12241 0.73107 0.0
C2152 C 0.70221 0.11815 0.72813 0.0
C2153 C 0.70845 0.13386 0.71679 0.0
C2154 C 0.69365 0.14396 0.71273 0.0
C2155 C 0.6727 0.13793 0.71985 0.0
C2156 C 0.71735 0.10675 0.73261 0.0
C2157 C 0.69997 0.16115 0.70089 0.0
C2158 C 0.77394 0.165 0.70712 0.0
C2159 C 0.77168 0.15069 0.69409 0.0
C2160 C 0.7535 0.15979 0.7146 0.0
C2161 C 0.73032 0.13955 0.70903 0.0
C2162 C 0.72796 0.12489 0.69596 0.0
C2163 C 0.74864 0.13077 0.68858 0.0
C2164 C 0.75669 0.17605 0.7284 0.0
C2165 C 0.7036 0.10293 0.68982 0.0
H2166 H 0.67641 0.10061 0.74384 0.0
H2167 H 0.66128 0.14558 0.71674 0.0
H2168 H 0.71803 0.09553 0.72299 0.0
H2169 H 0.73643 0.1214 0.73637 0.0
H2170 H 0.70992 0.09481 0.74157 0.0
H2171 H 0.68695 0.168 0.69934 0.0
H2172 H 0.71869 0.17721 0.70371 0.0
H2173 H 0.69988 0.15156 0.69027 0.0
H2174 H 0.79167 0.1805 0.71142 0.0
H2175 H 0.74679 0.11951 0.67858 0.0
H2176 H 0.75097 0.16493 0.73782 0.0
H2177 H 0.7448 0.18421 0.727 0.0
H2178 H 0.77592 0.19122 0.73119 0.0
H2179 H 0.69617 0.08983 0.69822 0.0
H2180 H 0.70498 0.09303 0.67977 0.0
H2181 H 0.69024 0.10896 0.68709 0.0
C2182 C 0.87614 0.55598 0.72048 0.0
C2183 C 0.89259 0.55032 0.71406 0.0
C2184 C 0.86777 0.57015 0.71369 0.0
C2185 C 0.87524 0.5781 0.69985 0.0
C2186 C 0.89169 0.57244 0.69324 0.0
C2187 C 0.90052 0.55906 0.70054 0.0
C2188 C 0.85074 0.57641 0.72127 0.0
C2189 C 0.89961 0.58012 0.67831 0.0
C2190 C 0.83305 0.59199 0.67643 0.0
C2191 C 0.84588 0.6178 0.67807 0.0
C2192 C 0.8427 0.57884 0.68318 0.0
C2193 C 0.86535 0.59185 0.69214 0.0
C2194 C 0.87837 0.61794 0.69382 0.0
C2195 C 0.86873 0.6306 0.68647 0.0
C2196 C 0.82866 0.55102 0.68072 0.0
C2197 C 0.90224 0.63247 0.7036 0.0
H2198 H 0.86938 0.54902 0.73073 0.0
H2199 H 0.91365 0.55544 0.69558 0.0
H2200 H 0.85796 0.59658 0.72207 0.0
H2201 H 0.83257 0.56731 0.71472 0.0
H2202 H 0.84822 0.57051 0.73251 0.0
H2203 H 0.91205 0.57374 0.67452 0.0
H2204 H 0.88332 0.57249 0.67007 0.0
H2205 H 0.90911 0.60047 0.67864 0.0
H2206 H 0.81549 0.58205 0.6698 0.0
H2207 H 0.87898 0.65055 0.68742 0.0
H2208 H 0.82303 0.54334 0.6913 0.0
H2209 H 0.84052 0.54422 0.67653 0.0
H2210 H 0.81203 0.54378 0.67278 0.0
H2211 H 0.89958 0.62701 0.71493 0.0
H2212 H 0.90964 0.65267 0.70412 0.0
H2213 H 0.91607 0.62833 0.69955 0.0
C2214 C 0.44699 0.94642 0.16365 0.0
C2215 C 0.46477 0.94488 0.17265 0.0
C2216 C 0.45165 0.95459 0.14966 0.0
C2217 C 0.4747 0.96155 0.14465 0.0
C2218 C 0.49284 0.96043 0.15381 0.0
C2219 C 0.48762 0.95204 0.16767 0.0
C2220 C 0.43183 0.95542 0.14015 0.0
C2221 C 0.51772 0.96793 0.14893 0.0
C2222 C 0.48236 0.9603 0.10389 0.0
C2223 C 0.49345 0.98537 0.10191 0.0
C2224 C 0.47541 0.9522 0.11765 0.0
C2225 C 0.47985 0.96962 0.12973 0.0
C2226 C 0.49049 0.9949 0.1277 0.0
C2227 C 0.4971 0.00246 0.11379 0.0
C2228 C 0.46388 0.92507 0.11934 0.0
C2229 C 0.49565 0.01404 0.14034 0.0
H2230 H 0.42925 0.94072 0.16742 0.0
H2231 H 0.50154 0.95123 0.1747 0.0
H2232 H 0.43861 0.97428 0.13698 0.0
H2233 H 0.42683 0.94292 0.12983 0.0
H2234 H 0.41511 0.94989 0.14579 0.0
H2235 H 0.52998 0.96653 0.15752 0.0
H2236 H 0.51573 0.95605 0.13885 0.0
H2237 H 0.5266 0.98719 0.14612 0.0
H2238 H 0.4792 0.94702 0.09466 0.0
H2239 H 0.50585 0.02188 0.11232 0.0
H2240 H 0.44637 0.91848 0.12423 0.0
H2241 H 0.47614 0.92198 0.12695 0.0
H2242 H 0.46029 0.91376 0.10867 0.0
H2243 H 0.4788 0.00897 0.14572 0.0
H2244 H 0.50268 0.03271 0.13675 0.0
H2245 H 0.50941 0.01477 0.14876 0.0
C2246 C 0.0278 0.49404 0.17217 0.0
C2247 C 0.02607 0.51166 0.18137 0.0
C2248 C 0.02304 0.49217 0.15683 0.0
C2249 C 0.01624 0.5082 0.15063 0.0
C2250 C 0.01327 0.52516 0.15993 0.0
C2251 C 0.01833 0.52675 0.1752 0.0
C2252 C 0.02646 0.47392 0.14725 0.0
C2253 C 0.00575 0.54236 0.15374 0.0
C2254 C 0.03218 0.52677 0.11249 0.0
C2255 C 0.00953 0.51241 0.10402 0.0
C2256 C 0.03472 0.52503 0.1276 0.0
C2257 C 0.01405 0.50866 0.13442 0.0
C2258 C 0.99124 0.49373 0.12587 0.0
C2259 C 0.98926 0.49572 0.11073 0.0
C2260 C 0.05943 0.54109 0.13633 0.0
C2261 C 0.96878 0.4762 0.13278 0.0
H2262 H 0.03398 0.48249 0.17692 0.0
H2263 H 0.01671 0.54019 0.18233 0.0
H2264 H 0.0102 0.46274 0.13911 0.0
H2265 H 0.0424 0.48398 0.14099 0.0
H2266 H 0.02962 0.4613 0.15379 0.0
H2267 H 0.00232 0.553 0.16249 0.0
H2268 H 0.02038 0.55556 0.14753 0.0
H2269 H 0.98894 0.53182 0.14592 0.0
H2270 H 0.04794 0.53943 0.10728 0.0
H2271 H 0.97167 0.48475 0.10422 0.0
H2272 H 0.06491 0.52959 0.14238 0.0
H2273 H 0.05838 0.55408 0.14464 0.0
H2274 H 0.07389 0.55193 0.12924 0.0
H2275 H 0.97253 0.46373 0.13906 0.0
H2276 H 0.95277 0.46484 0.12447 0.0
H2277 H 0.96395 0.48677 0.1407 0.0
C2278 C 0.47649 0.50144 0.17203 0.0
C2279 C 0.46706 0.51626 0.17695 0.0
C2280 C 0.4832 0.50163 0.15769 0.0
C2281 C 0.4808 0.51733 0.14817 0.0
C2282 C 0.47093 0.53204 0.15302 0.0
C2283 C 0.46402 0.53119 0.16733 0.0
C2284 C 0.49327 0.48537 0.15281 0.0
C2285 C 0.4684 0.54927 0.14327 0.0
C2286 C 0.52247 0.53856 0.11771 0.0
C2287 C 0.5065 0.52402 0.10524 0.0
C2288 C 0.51431 0.53654 0.13173 0.0
C2289 C 0.48967 0.51928 0.13338 0.0
C2290 C 0.47352 0.50426 0.12091 0.0
C2291 C 0.48208 0.50693 0.10698 0.0
C2292 C 0.53205 0.55303 0.14476 0.0
C2293 C 0.44717 0.48549 0.12226 0.0
H2294 H 0.47865 0.48973 0.17943 0.0
H2295 H 0.45699 0.54287 0.17119 0.0
H2296 H 0.48281 0.47381 0.14241 0.0
H2297 H 0.51256 0.49694 0.15059 0.0
H2298 H 0.49254 0.47312 0.16121 0.0
H2299 H 0.45957 0.55881 0.14852 0.0
H2300 H 0.48675 0.56339 0.14065 0.0
H2301 H 0.45744 0.53896 0.1327 0.0
H2302 H 0.54146 0.55149 0.11655 0.0
H2303 H 0.4695 0.49584 0.09742 0.0
H2304 H 0.53375 0.5417 0.15302 0.0
H2305 H 0.52507 0.56423 0.15017 0.0
H2306 H 0.55054 0.56568 0.14158 0.0
H2307 H 0.44627 0.47253 0.13018 0.0
H2308 H 0.43717 0.47473 0.11154 0.0
H2309 H 0.4376 0.49486 0.12663 0.0
C2310 C 0.95387 0.48083 0.83428 0.0
C2311 C 0.97278 0.49106 0.82519 0.0
C2312 C 0.95884 0.47992 0.84927 0.0
C2313 C 0.98334 0.48963 0.85534 0.0
C2314 C 0.00258 0.50041 0.84629 0.0
C2315 C 0.99705 0.50087 0.83127 0.0
C2316 C 0.93779 0.46803 0.85852 0.0
C2317 C 0.02895 0.5112 0.85244 0.0
C2318 C 0.99524 0.50317 0.89696 0.0
C2319 C 0.99535 0.48212 0.90104 0.0
C2320 C 0.99203 0.50621 0.88209 0.0
C2321 C 0.98862 0.48764 0.87106 0.0
C2322 C 0.98907 0.46653 0.87509 0.0
C2323 C 0.99256 0.46409 0.89002 0.0
C2324 C 0.99178 0.52904 0.8782 0.0
C2325 C 0.98539 0.44628 0.86364 0.0
H2326 H 0.93505 0.47289 0.82956 0.0
H2327 H 0.0117 0.50895 0.82428 0.0
H2328 H 0.9373 0.45178 0.86291 0.0
H2329 H 0.94036 0.48112 0.86809 0.0
H2330 H 0.91985 0.46193 0.85219 0.0
H2331 H 0.04182 0.51985 0.84409 0.0
H2332 H 0.03357 0.52528 0.86188 0.0
H2333 H 0.03177 0.49655 0.85663 0.0
H2334 H 0.99711 0.51707 0.90539 0.0
H2335 H 0.99311 0.44801 0.89305 0.0
H2336 H 0.97342 0.52386 0.87289 0.0
H2337 H 0.00509 0.5382 0.87017 0.0
H2338 H 0.9963 0.54248 0.88801 0.0
H2339 H 0.96707 0.43815 0.85736 0.0
H2340 H 0.98686 0.43135 0.86858 0.0
H2341 H 0.99915 0.45393 0.85566 0.0
C2342 C 0.54531 0.49223 0.84522 0.0
C2343 C 0.52758 0.47416 0.83453 0.0
C2344 C 0.54005 0.49409 0.85978 0.0
C2345 C 0.51643 0.47765 0.86365 0.0
C2346 C 0.4983 0.45979 0.85279 0.0
C2347 C 0.50413 0.45821 0.83839 0.0
C2348 C 0.55989 0.51325 0.87108 0.0
C2349 C 0.47281 0.44214 0.85643 0.0
C2350 C 0.50695 0.46349 0.9032 0.0
C2351 C 0.49716 0.47807 0.90795 0.0
C2352 C 0.51388 0.46367 0.88893 0.0
C2353 C 0.51073 0.47861 0.87912 0.0
C2354 C 0.50116 0.49363 0.88392 0.0
C2355 C 0.49458 0.49325 0.89831 0.0
C2356 C 0.52426 0.4476 0.88427 0.0
C2357 C 0.49731 0.50962 0.87375 0.0
H2358 H 0.56351 0.50446 0.84229 0.0
H2359 H 0.49029 0.44444 0.83009 0.0
H2360 H 0.55361 0.52515 0.87639 0.0
H2361 H 0.56395 0.50407 0.87986 0.0
H2362 H 0.57706 0.5251 0.8662 0.0
H2363 H 0.46059 0.42994 0.8466 0.0
H2364 H 0.47364 0.43045 0.86475 0.0
H2365 H 0.46458 0.45254 0.8613 0.0
H2366 H 0.50926 0.45199 0.9107 0.0
H2367 H 0.48681 0.50438 0.9019 0.0
H2368 H 0.54226 0.45889 0.88012 0.0
H2369 H 0.51193 0.43357 0.87512 0.0
H2370 H 0.52662 0.43796 0.89342 0.0
H2371 H 0.51466 0.5221 0.86928 0.0
H2372 H 0.49059 0.52095 0.87935 0.0
H2373 H 0.48381 0.49789 0.86426 0.0
C2374 C 0.54071 0.06439 0.8482 0.0
C2375 C 0.53474 0.04657 0.83627 0.0
C2376 C 0.53386 0.05752 0.86219 0.0
C2377 C 0.52096 0.03222 0.86431 0.0
C2378 C 0.51564 0.01417 0.85241 0.0
C2379 C 0.52244 0.02157 0.83849 0.0
C2380 C 0.53961 0.07729 0.87455 0.0
C2381 C 0.50223 0.98704 0.8543 0.0
C2382 C 0.51771 0.01559 0.9036 0.0
C2383 C 0.49432 0.0111 0.90626 0.0
C2384 C 0.52654 0.02218 0.88994 0.0
C2385 C 0.51176 0.02463 0.87873 0.0
C2386 C 0.48819 0.02016 0.88134 0.0
C2387 C 0.4797 0.0133 0.89502 0.0
C2388 C 0.55172 0.02665 0.88752 0.0
C2389 C 0.47194 0.02275 0.8697 0.0
H2390 H 0.54996 0.08372 0.84647 0.0
H2391 H 0.51802 0.00778 0.8293 0.0
H2392 H 0.52233 0.07534 0.87804 0.0
H2393 H 0.54953 0.07522 0.88424 0.0
H2394 H 0.55086 0.09614 0.87129 0.0
H2395 H 0.50104 0.97548 0.84424 0.0
H2396 H 0.51155 0.9834 0.86363 0.0
H2397 H 0.4834 0.98126 0.85697 0.0
H2398 H 0.52928 0.01428 0.91228 0.0
H2399 H 0.46146 0.00944 0.89686 0.0
H2400 H 0.56356 0.04592 0.88514 0.0
H2401 H 0.55053 0.01444 0.87783 0.0
H2402 H 0.56064 0.02331 0.89722 0.0
H2403 H 0.48136 0.04171 0.86639 0.0
H2404 H 0.4542 0.0189 0.87354 0.0
H2405 H 0.46819 0.00991 0.85973 0.0
C2406 C 0.13403 0.29695 0.5024 0.0
C2407 C 0.12696 0.2723 0.50394 0.0
C2408 C 0.14017 0.30655 0.48889 0.0
C2409 C 0.13965 0.29128 0.47667 0.0
C2410 C 0.13208 0.26629 0.47804 0.0
C2411 C 0.12561 0.25705 0.4916 0.0
C2412 C 0.14784 0.33323 0.48779 0.0
C2413 C 0.13145 0.24947 0.46528 0.0
C2414 C 0.13956 0.31022 0.43811 0.0
C2415 C 0.16441 0.3212 0.43602 0.0
C2416 C 0.13123 0.30063 0.45136 0.0
C2417 C 0.14813 0.30173 0.46265 0.0
C2418 C 0.17322 0.31266 0.46053 0.0
C2419 C 0.18109 0.32245 0.44727 0.0
C2420 C 0.10441 0.28948 0.4533 0.0
C2421 C 0.19173 0.31381 0.47221 0.0
H2422 H 0.13546 0.30901 0.51187 0.0
H2423 H 0.11968 0.23786 0.49257 0.0
H2424 H 0.16736 0.34365 0.48578 0.0
H2425 H 0.13703 0.33473 0.47833 0.0
H2426 H 0.14543 0.34208 0.49795 0.0
H2427 H 0.12455 0.23034 0.46804 0.0
H2428 H 0.11964 0.24898 0.45567 0.0
H2429 H 0.15012 0.25668 0.46188 0.0
H2430 H 0.1267 0.30948 0.42945 0.0
H2431 H 0.20027 0.33072 0.44559 0.0
H2432 H 0.10215 0.29942 0.46298 0.0
H2433 H 0.09661 0.26998 0.45547 0.0
H2434 H 0.0937 0.2902 0.44348 0.0
H2435 H 0.192 0.32427 0.48251 0.0
H2436 H 0.21051 0.32269 0.46877 0.0
H2437 H 0.18649 0.29493 0.4748 0.0
C2438 C 0.69475 0.86124 0.50902 0.0
C2439 C 0.69896 0.84405 0.51569 0.0
C2440 C 0.68889 0.85872 0.49378 0.0
C2441 C 0.68703 0.83842 0.48497 0.0
C2442 C 0.69027 0.82045 0.49167 0.0
C2443 C 0.69624 0.8235 0.50697 0.0
C2444 C 0.68545 0.87822 0.48706 0.0
C2445 C 0.6883 0.7985 0.48263 0.0
C2446 C 0.65566 0.82638 0.44625 0.0
C2447 C 0.67575 0.83871 0.43821 0.0
C2448 C 0.65903 0.82528 0.46141 0.0
C2449 C 0.68305 0.83692 0.46869 0.0
C2450 C 0.70339 0.84868 0.46054 0.0
C2451 C 0.69949 0.8494 0.44539 0.0
C2452 C 0.63691 0.81235 0.46971 0.0
C2453 C 0.7293 0.86139 0.46792 0.0
H2454 H 0.6964 0.87692 0.51574 0.0
H2455 H 0.69964 0.81025 0.51204 0.0
H2456 H 0.69978 0.88769 0.47963 0.0
H2457 H 0.66748 0.86961 0.4803 0.0
H2458 H 0.68645 0.89226 0.49551 0.0
H2459 H 0.68924 0.78514 0.4896 0.0
H2460 H 0.67086 0.78887 0.47529 0.0
H2461 H 0.7034 0.80482 0.47549 0.0
H2462 H 0.63728 0.81779 0.44069 0.0
H2463 H 0.71507 0.85916 0.43926 0.0
H2464 H 0.63597 0.82601 0.47752 0.0
H2465 H 0.63842 0.79889 0.4763 0.0
H2466 H 0.61958 0.80252 0.46225 0.0
H2467 H 0.73254 0.8772 0.47573 0.0
H2468 H 0.74307 0.86833 0.45988 0.0
H2469 H 0.73219 0.84857 0.47437 0.0
C2470 C 0.14221 0.83679 0.5065 0.0
C2471 C 0.13125 0.85053 0.51067 0.0
C2472 C 0.14873 0.83609 0.49218 0.0
C2473 C 0.14458 0.84983 0.4819 0.0
C2474 C 0.13306 0.86333 0.48598 0.0
C2475 C 0.12637 0.86337 0.5003 0.0
C2476 C 0.16056 0.82112 0.48816 0.0
C2477 C 0.12867 0.87851 0.4754 0.0
C2478 C 0.18615 0.87092 0.45141 0.0
C2479 C 0.17086 0.85464 0.43921 0.0
C2480 C 0.17775 0.8696 0.46532 0.0
C2481 C 0.15358 0.85127 0.46718 0.0
C2482 C 0.13811 0.83457 0.45499 0.0
C2483 C 0.14688 0.83656 0.44113 0.0
C2484 C 0.19474 0.88789 0.47804 0.0
C2485 C 0.11231 0.81464 0.45658 0.0
H2486 H 0.14579 0.82669 0.5145 0.0
H2487 H 0.11812 0.8742 0.50357 0.0
H2488 H 0.15068 0.8085 0.47797 0.0
H2489 H 0.17966 0.83356 0.48588 0.0
H2490 H 0.16084 0.81004 0.49705 0.0
H2491 H 0.11847 0.887 0.48005 0.0
H2492 H 0.14646 0.8934 0.47257 0.0
H2493 H 0.11823 0.86691 0.46501 0.0
H2494 H 0.20484 0.88465 0.45013 0.0
H2495 H 0.1348 0.82411 0.43176 0.0
H2496 H 0.19769 0.87804 0.48683 0.0
H2497 H 0.18636 0.89819 0.48285 0.0
H2498 H 0.21282 0.90134 0.47468 0.0
H2499 H 0.11254 0.80284 0.46501 0.0
H2500 H 0.10279 0.80279 0.44608 0.0
H2501 H 0.10157 0.82303 0.46042 0.0
C2502 C 0.66031 0.83798 0.16398 0.0
C2503 C 0.63602 0.82857 0.15804 0.0
C2504 C 0.66602 0.83759 0.17898 0.0
C2505 C 0.64694 0.82728 0.18818 0.0
C2506 C 0.62243 0.81806 0.18227 0.0
C2507 C 0.61729 0.81889 0.16729 0.0
C2508 C 0.69239 0.84783 0.18494 0.0
C2509 C 0.60156 0.80669 0.19169 0.0
C2510 C 0.65603 0.8011 0.2226 0.0
C2511 C 0.65956 0.81931 0.23373 0.0
C2512 C 0.6523 0.80367 0.20773 0.0
C2513 C 0.65236 0.8251 0.20385 0.0
C2514 C 0.65649 0.84383 0.21498 0.0
C2515 C 0.65993 0.84067 0.2298 0.0
C2516 C 0.64787 0.78324 0.19617 0.0
C2517 C 0.65679 0.86699 0.21125 0.0
H2518 H 0.67484 0.84565 0.15687 0.0
H2519 H 0.59845 0.81126 0.1627 0.0
H2520 H 0.69743 0.8619 0.19446 0.0
H2521 H 0.69489 0.8329 0.18896 0.0
H2522 H 0.70515 0.85634 0.17651 0.0
H2523 H 0.58363 0.80114 0.18551 0.0
H2524 H 0.6006 0.79017 0.19596 0.0
H2525 H 0.60469 0.8199 0.20133 0.0
H2526 H 0.6562 0.78477 0.22552 0.0
H2527 H 0.66239 0.85472 0.23832 0.0
H2528 H 0.6615 0.79059 0.1881 0.0
H2529 H 0.62951 0.77557 0.19002 0.0
H2530 H 0.64895 0.76801 0.201 0.0
H2531 H 0.67002 0.87594 0.20314 0.0
H2532 H 0.66176 0.88046 0.22111 0.0
H2533 H 0.63848 0.86226 0.20609 0.0
C2534 C 0.21941 0.82573 0.17994 0.0
C2535 C 0.20168 0.80672 0.16969 0.0
C2536 C 0.2145 0.82845 0.19449 0.0
C2537 C 0.19121 0.81196 0.19876 0.0
C2538 C 0.17312 0.79304 0.18834 0.0
C2539 C 0.17863 0.79057 0.17396 0.0
C2540 C 0.23431 0.84869 0.20533 0.0
C2541 C 0.14795 0.77529 0.19241 0.0
C2542 C 0.18177 0.80019 0.23859 0.0
C2543 C 0.17101 0.81419 0.2426 0.0
C2544 C 0.18932 0.80007 0.22452 0.0
C2545 C 0.18572 0.81404 0.21417 0.0
C2546 C 0.17543 0.8287 0.21829 0.0
C2547 C 0.16832 0.82871 0.23251 0.0
C2548 C 0.20055 0.78448 0.2206 0.0
C2549 C 0.17107 0.84364 0.20752 0.0
H2550 H 0.2373 0.83814 0.17666 0.0
H2551 H 0.16478 0.77608 0.16598 0.0
H2552 H 0.22777 0.86074 0.2101 0.0
H2553 H 0.23878 0.84054 0.21457 0.0
H2554 H 0.25129 0.86023 0.2002 0.0
H2555 H 0.13574 0.76209 0.18289 0.0
H2556 H 0.14943 0.76468 0.20123 0.0
H2557 H 0.13931 0.78562 0.19679 0.0
H2558 H 0.18415 0.78921 0.24646 0.0
H2559 H 0.15986 0.83942 0.23558 0.0
H2560 H 0.21823 0.79574 0.2161 0.0
H2561 H 0.18828 0.7694 0.21192 0.0
H2562 H 0.20376 0.77619 0.23023 0.0
H2563 H 0.1882 0.85578 0.20273 0.0
H2564 H 0.16428 0.85521 0.21271 0.0
H2565 H 0.15741 0.83109 0.1983 0.0
C2566 C 0.22157 0.39344 0.1839 0.0
C2567 C 0.20909 0.40364 0.17676 0.0
C2568 C 0.21561 0.38463 0.19764 0.0
C2569 C 0.19699 0.38644 0.20444 0.0
C2570 C 0.18512 0.39774 0.19754 0.0
C2571 C 0.19119 0.40602 0.18373 0.0
C2572 C 0.22844 0.37241 0.20456 0.0
C2573 C 0.16545 0.40037 0.20454 0.0
C2574 C 0.16002 0.34002 0.23027 0.0
C2575 C 0.17055 0.35344 0.24413 0.0
C2576 C 0.1689 0.35037 0.21732 0.0
C2577 C 0.18857 0.37492 0.21819 0.0
C2578 C 0.19943 0.38858 0.23212 0.0
C2579 C 0.19039 0.37763 0.24493 0.0
C2580 C 0.15695 0.33511 0.20267 0.0
C2581 C 0.22033 0.41487 0.23348 0.0
H2582 H 0.23531 0.39146 0.17846 0.0
H2583 H 0.18173 0.41418 0.17827 0.0
H2584 H 0.2358 0.38061 0.21609 0.0
H2585 H 0.21513 0.35256 0.20486 0.0
H2586 H 0.24368 0.37408 0.19842 0.0
H2587 H 0.15944 0.41136 0.19833 0.0
H2588 H 0.14932 0.38187 0.20505 0.0
H2589 H 0.17215 0.40932 0.216 0.0
H2590 H 0.14446 0.32147 0.2295 0.0
H2591 H 0.19892 0.38801 0.25559 0.0
H2592 H 0.17093 0.33463 0.19614 0.0
H2593 H 0.14825 0.34361 0.19626 0.0
H2594 H 0.14276 0.31587 0.20392 0.0
H2595 H 0.23562 0.41594 0.22766 0.0
H2596 H 0.22731 0.42267 0.24513 0.0
H2597 H 0.21423 0.42653 0.22817 0.0
C2598 C 0.79366 0.60072 0.82866 0.0
C2599 C 0.7983 0.61658 0.84145 0.0
C2600 C 0.7999 0.60987 0.81506 0.0
C2601 C 0.81071 0.63549 0.81415 0.0
C2602 C 0.81456 0.65153 0.82687 0.0
C2603 C 0.80845 0.6419 0.84039 0.0
C2604 C 0.79557 0.59217 0.80175 0.0
C2605 C 0.82581 0.67894 0.82628 0.0
C2606 C 0.85073 0.66066 0.78328 0.0
C2607 C 0.83462 0.66178 0.7726 0.0
C2608 C 0.84327 0.6525 0.79694 0.0
C2609 C 0.81919 0.64555 0.80005 0.0
C2610 C 0.80302 0.6472 0.78944 0.0
C2611 C 0.81089 0.65515 0.77579 0.0
C2612 C 0.86094 0.65067 0.80789 0.0
C2613 C 0.77734 0.64027 0.79244 0.0
H2614 H 0.78532 0.58107 0.8293 0.0
H2615 H 0.81231 0.65434 0.85021 0.0
H2616 H 0.78426 0.59396 0.79273 0.0
H2617 H 0.81331 0.59674 0.79765 0.0
H2618 H 0.78627 0.57269 0.80422 0.0
H2619 H 0.8257 0.6886 0.83683 0.0
H2620 H 0.84501 0.6869 0.82371 0.0
H2621 H 0.81579 0.68262 0.81737 0.0
H2622 H 0.86899 0.66549 0.78077 0.0
H2623 H 0.79849 0.65623 0.76758 0.0
H2624 H 0.8535 0.63121 0.81007 0.0
H2625 H 0.86325 0.6615 0.81851 0.0
H2626 H 0.87922 0.65744 0.80393 0.0
H2627 H 0.76678 0.62044 0.79402 0.0
H2628 H 0.76748 0.6438 0.78333 0.0
H2629 H 0.7778 0.65083 0.80276 0.0
C2630 C 0.36739 0.16459 0.84022 0.0
C2631 C 0.36939 0.18434 0.84941 0.0
C2632 C 0.36158 0.16243 0.82496 0.0
C2633 C 0.3575 0.18034 0.81884 0.0
C2634 C 0.3585 0.19971 0.82817 0.0
C2635 C 0.36454 0.20152 0.84334 0.0
C2636 C 0.36079 0.14161 0.81533 0.0
C2637 C 0.35396 0.21899 0.82209 0.0
C2638 C 0.37033 0.19494 0.77977 0.0
C2639 C 0.34667 0.1831 0.77237 0.0
C2640 C 0.37413 0.19342 0.7948 0.0
C2641 C 0.35375 0.1799 0.80264 0.0
C2642 C 0.32984 0.16735 0.79514 0.0
C2643 C 0.32659 0.16903 0.78005 0.0
C2644 C 0.39993 0.20685 0.80238 0.0
C2645 C 0.30768 0.1529 0.80316 0.0
H2646 H 0.37128 0.15137 0.84491 0.0
H2647 H 0.36577 0.21661 0.85048 0.0
H2648 H 0.34342 0.13168 0.80795 0.0
H2649 H 0.37594 0.14918 0.80824 0.0
H2650 H 0.36253 0.1282 0.82187 0.0
H2651 H 0.35379 0.23185 0.83092 0.0
H2652 H 0.36845 0.22987 0.81505 0.0
H2653 H 0.33621 0.21005 0.81508 0.0
H2654 H 0.38589 0.20552 0.77378 0.0
H2655 H 0.30826 0.16 0.77436 0.0
H2656 H 0.40358 0.19402 0.80834 0.0
H2657 H 0.40219 0.22169 0.81066 0.0
H2658 H 0.41383 0.21521 0.79453 0.0
H2659 H 0.30987 0.13948 0.80941 0.0
H2660 H 0.29053 0.14279 0.79555 0.0
H2661 H 0.30583 0.16562 0.81125 0.0
C2662 C 0.81138 0.17028 0.83965 0.0
C2663 C 0.80051 0.18397 0.84412 0.0
C2664 C 0.81812 0.17022 0.82533 0.0
C2665 C 0.81417 0.18445 0.81534 0.0
C2666 C 0.80287 0.19802 0.81973 0.0
C2667 C 0.79606 0.19751 0.83405 0.0
C2668 C 0.82981 0.15524 0.82098 0.0
C2669 C 0.79862 0.21365 0.80945 0.0
C2670 C 0.85477 0.20572 0.78436 0.0
C2671 C 0.8391 0.18957 0.77223 0.0
C2672 C 0.84686 0.20426 0.79842 0.0
C2673 C 0.82277 0.18599 0.80048 0.0
C2674 C 0.80691 0.16945 0.78835 0.0
C2675 C 0.81521 0.17153 0.77435 0.0
C2676 C 0.86427 0.22233 0.81108 0.0
C2677 C 0.78114 0.14964 0.79013 0.0
H2678 H 0.81462 0.15961 0.84738 0.0
H2679 H 0.78792 0.20834 0.83754 0.0
H2680 H 0.81955 0.1426 0.81086 0.0
H2681 H 0.84876 0.16766 0.81844 0.0
H2682 H 0.83044 0.14418 0.82979 0.0
H2683 H 0.78886 0.22241 0.81439 0.0
H2684 H 0.81643 0.22835 0.80651 0.0
H2685 H 0.78779 0.20228 0.79908 0.0
H2686 H 0.87338 0.21944 0.78289 0.0
H2687 H 0.80284 0.1592 0.76502 0.0
H2688 H 0.86724 0.21228 0.81975 0.0
H2689 H 0.85624 0.23281 0.81612 0.0
H2690 H 0.88231 0.23563 0.80761 0.0
H2691 H 0.78149 0.13778 0.79849 0.0
H2692 H 0.77133 0.13782 0.77966 0.0
H2693 H 0.77062 0.15816 0.79416 0.0
C2694 C 0.28426 0.14335 0.50366 0.0
C2695 C 0.30336 0.15419 0.49475 0.0
C2696 C 0.28901 0.14201 0.51861 0.0
C2697 C 0.31347 0.15189 0.52483 0.0
C2698 C 0.33288 0.16315 0.51594 0.0
C2699 C 0.32757 0.16405 0.50096 0.0
C2700 C 0.2678 0.12962 0.52769 0.0
C2701 C 0.3592 0.17411 0.52225 0.0
C2702 C 0.32473 0.16529 0.56645 0.0
C2703 C 0.32521 0.14444 0.57057 0.0
C2704 C 0.32157 0.16829 0.55158 0.0
C2705 C 0.31856 0.14987 0.54057 0.0
C2706 C 0.3193 0.12892 0.54464 0.0
C2707 C 0.32273 0.12651 0.55958 0.0
C2708 C 0.32096 0.19092 0.54765 0.0
C2709 C 0.31606 0.10883 0.53321 0.0
H2710 H 0.26549 0.13536 0.49884 0.0
H2711 H 0.34237 0.17258 0.4941 0.0
H2712 H 0.26759 0.11351 0.53209 0.0
H2713 H 0.26992 0.14253 0.53725 0.0
H2714 H 0.24989 0.12323 0.52123 0.0
H2715 H 0.37219 0.18284 0.51396 0.0
H2716 H 0.36358 0.18817 0.53166 0.0
H2717 H 0.36209 0.15956 0.52652 0.0
H2718 H 0.32633 0.17909 0.57486 0.0
H2719 H 0.32353 0.11057 0.56266 0.0
H2720 H 0.30263 0.18547 0.54217 0.0
H2721 H 0.33444 0.20036 0.53975 0.0
H2722 H 0.32504 0.20422 0.55746 0.0
H2723 H 0.2978 0.10051 0.52681 0.0
H2724 H 0.31768 0.094 0.53818 0.0
H2725 H 0.32994 0.11669 0.52533 0.0
C2726 C 0.83645 0.13203 0.50361 0.0
C2727 C 0.85998 0.1469 0.49952 0.0
C2728 C 0.83141 0.13385 0.51818 0.0
C2729 C 0.85043 0.15079 0.52895 0.0
C2730 C 0.87411 0.1663 0.52481 0.0
C2731 C 0.87857 0.16426 0.5101 0.0
C2732 C 0.80583 0.11723 0.5221 0.0
C2733 C 0.89488 0.18443 0.53602 0.0
C2734 C 0.83128 0.16576 0.56492 0.0
C2735 C 0.83279 0.14899 0.57367 0.0
C2736 C 0.83751 0.167 0.55042 0.0
C2737 C 0.84568 0.15127 0.54464 0.0
C2738 C 0.84802 0.13491 0.55361 0.0
C2739 C 0.84141 0.13387 0.56799 0.0
C2740 C 0.83456 0.18451 0.54115 0.0
C2741 C 0.85696 0.11807 0.5479 0.0
H2742 H 0.82199 0.11882 0.49539 0.0
H2743 H 0.89682 0.17566 0.50695 0.0
H2744 H 0.80606 0.10447 0.52983 0.0
H2745 H 0.79897 0.12834 0.52777 0.0
H2746 H 0.79281 0.10613 0.51228 0.0
H2747 H 0.91183 0.19608 0.53089 0.0
H2748 H 0.88963 0.19659 0.54212 0.0
H2749 H 0.89891 0.17432 0.54419 0.0
H2750 H 0.82447 0.17735 0.56928 0.0
H2751 H 0.8429 0.12113 0.57482 0.0
H2752 H 0.8202 0.17386 0.53182 0.0
H2753 H 0.85181 0.19635 0.53638 0.0
H2754 H 0.82939 0.1965 0.54755 0.0
H2755 H 0.84377 0.10475 0.53875 0.0
H2756 H 0.8592 0.10758 0.55657 0.0
H2757 H 0.87476 0.12892 0.54344 0.0
C2758 C 0.84837 0.72853 0.51254 0.0
C2759 C 0.86812 0.72817 0.50666 0.0
C2760 C 0.84215 0.72119 0.52652 0.0
C2761 C 0.85588 0.71309 0.53479 0.0
C2762 C 0.87612 0.71308 0.52902 0.0
C2763 C 0.88208 0.72076 0.51504 0.0
C2764 C 0.82062 0.72174 0.53236 0.0
C2765 C 0.89105 0.70436 0.53746 0.0
C2766 C 0.84999 0.71092 0.57579 0.0
C2767 C 0.83228 0.68614 0.57629 0.0
C2768 C 0.85809 0.71993 0.56238 0.0
C2769 C 0.84839 0.70371 0.54919 0.0
C2770 C 0.83083 0.67857 0.54968 0.0
C2771 C 0.82291 0.67013 0.56321 0.0
C2772 C 0.87665 0.74689 0.56227 0.0
C2773 C 0.82027 0.66064 0.53588 0.0
H2774 H 0.83775 0.73458 0.50616 0.0
H2775 H 0.89725 0.7203 0.51047 0.0
H2776 H 0.8062 0.70277 0.53389 0.0
H2777 H 0.82633 0.73277 0.54328 0.0
H2778 H 0.81257 0.72964 0.52486 0.0
H2779 H 0.90678 0.70639 0.53169 0.0
H2780 H 0.8981 0.71487 0.54853 0.0
H2781 H 0.87929 0.68466 0.53908 0.0
H2782 H 0.85714 0.72337 0.58588 0.0
H2783 H 0.80948 0.65088 0.5636 0.0
H2784 H 0.86855 0.75576 0.55568 0.0
H2785 H 0.89276 0.74897 0.55698 0.0
H2786 H 0.88298 0.75688 0.57353 0.0
H2787 H 0.81027 0.66637 0.52822 0.0
H2788 H 0.8075 0.64151 0.53822 0.0
H2789 H 0.8352 0.6607 0.53013 0.0
loop_
_geom_bond_atom_site_label_1
_geom_bond_atom_site_label_2
_geom_bond_distance
_geom_bond_site_symmetry_2
_ccdc_geom_bond_type
C0 C1 1.386 . S
C0 C2 1.397 . S
C0 H24 0.931 . S
C1 C0 1.386 . S
C1 C5 1.397 . S
C2 C0 1.397 . S
C2 C3 1.384 . S
C2 H25 0.930 . S
C3 C2 1.384 . S
C3 C4 1.377 . S
C3 C6 1.481 . S
C4 C3 1.377 . S
C4 C5 1.389 . S
C4 H26 0.929 . S
C5 C1 1.397 . S
C5 C4 1.389 . S
C5 H27 0.931 . S
C6 C3 1.481 . S
C6 C7 1.387 . S
C6 C11 1.390 . S
C7 C6 1.387 . S
C7 C8 1.401 . S
C7 H28 0.930 . S
C8 C7 1.401 . S
C8 C9 1.376 . S
C8 C17 1.511 . S
C9 C8 1.376 . S
C9 C10 1.392 . S
C9 H30 0.931 . S
C10 C9 1.392 . S
C10 C11 1.361 . S
C10 C12 1.500 . S
C11 C6 1.390 . S
C11 C10 1.361 . S
C11 H29 0.931 . S
C12 C10 1.500 . S
C12 C13 1.371 . S
C12 C14 1.365 . S
C13 C12 1.371 . S
C13 C23 1.386 . S
C13 H31 0.931 . S
C14 C12 1.365 . S
C14 C15 1.409 . S
C14 H32 0.929 . S
C15 C14 1.409 . S
C15 C16 1.380 . S
C15 H33 0.930 . S
C16 C15 1.380 . S
C16 C23 1.357 . S
C17 C8 1.511 . S
C17 C18 1.341 . S
C17 C19 1.371 . S
C18 C17 1.341 . S
C18 C22 1.394 . S
C18 H34 0.930 . S
C19 C17 1.371 . S
C19 C20 1.392 . S
C19 H35 0.931 . S
C20 C19 1.392 . S
C20 C21 1.331 . S
C20 H38 0.932 . S
C21 C20 1.331 . S
C21 C22 1.336 . S
C22 C18 1.394 . S
C22 C21 1.336 . S
C22 H37 0.929 . S
C23 C13 1.386 . S
C23 C16 1.357 . S
C23 H36 0.928 . S
H24 C0 0.931 . S
H25 C2 0.930 . S
H26 C4 0.929 . S
H27 C5 0.931 . S
H28 C7 0.930 . S
H29 C11 0.931 . S
H30 C9 0.931 . S
H31 C13 0.931 . S
H32 C14 0.929 . S
H33 C15 0.930 . S
H34 C18 0.930 . S
H35 C19 0.931 . S
H36 C23 0.928 . S
H37 C22 0.929 . S
H38 C20 0.932 . S
C39 C40 1.386 . S
C39 C41 1.397 . S
C39 H63 0.931 . S
C40 C39 1.386 . S
C40 C44 1.397 . S
C41 C39 1.397 . S
C41 C42 1.384 . S
C41 H64 0.930 . S
C42 C41 1.384 . S
C42 C43 1.377 . S
C42 C45 1.481 . S
C43 C42 1.377 . S
C43 C44 1.389 . S
C43 H65 0.929 . S
C44 C40 1.397 . S
C44 C43 1.389 . S
C44 H66 0.931 . S
C45 C42 1.481 . S
C45 C46 1.387 . S
C45 C50 1.390 . S
C46 C45 1.387 . S
C46 C47 1.401 . S
C46 H67 0.930 . S
C47 C46 1.401 . S
C47 C48 1.376 . S
C47 C56 1.511 . S
C48 C47 1.376 . S
C48 C49 1.392 . S
C48 H69 0.931 . S
C49 C48 1.392 . S
C49 C50 1.361 . S
C49 C51 1.500 . S
C50 C45 1.390 . S
C50 C49 1.361 . S
C50 H68 0.931 . S
C51 C49 1.500 . S
C51 C52 1.371 . S
C51 C53 1.365 . S
C52 C51 1.371 . S
C52 C62 1.386 . S
C52 H70 0.931 . S
C53 C51 1.365 . S
C53 C54 1.409 . S
C53 H71 0.929 . S
C54 C53 1.409 . S
C54 C55 1.380 . S
C54 H72 0.930 . S
C55 C54 1.380 . S
C55 C62 1.357 . S
C56 C47 1.511 . S
C56 C57 1.341 . S
C56 C58 1.371 . S
C57 C56 1.341 . S
C57 C61 1.394 . S
C57 H73 0.930 . S
C58 C56 1.371 . S
C58 C59 1.392 . S
C58 H74 0.931 . S
C59 C58 1.392 . S
C59 C60 1.331 . S
C59 H77 0.932 . S
C60 C59 1.331 . S
C60 C61 1.336 . S
C61 C57 1.394 . S
C61 C60 1.336 . S
C61 H76 0.929 . S
C62 C52 1.386 . S
C62 C55 1.357 . S
C62 H75 0.928 . S
H63 C39 0.931 . S
H64 C41 0.930 . S
H65 C43 0.929 . S
H66 C44 0.931 . S
H67 C46 0.930 . S
H68 C50 0.931 . S
H69 C48 0.931 . S
H70 C52 0.931 . S
H71 C53 0.929 . S
H72 C54 0.930 . S
H73 C57 0.930 . S
H74 C58 0.931 . S
H75 C62 0.928 . S
H76 C61 0.929 . S
H77 C59 0.932 . S
C78 C79 1.386 . S
C78 C80 1.397 . S
C78 H102 0.931 . S
C79 C78 1.386 . S
C79 C83 1.397 . S
C80 C78 1.397 . S
C80 C81 1.384 . S
C80 H103 0.930 . S
C81 C80 1.384 . S
C81 C82 1.377 . S
C81 C84 1.481 . S
C82 C81 1.377 . S
C82 C83 1.389 . S
C82 H104 0.929 . S
C83 C79 1.397 . S
C83 C82 1.389 . S
C83 H105 0.931 . S
C84 C81 1.481 . S
C84 C85 1.387 . S
C84 C89 1.390 . S
C85 C84 1.387 . S
C85 C86 1.401 . S
C85 H106 0.930 . S
C86 C85 1.401 . S
C86 C87 1.376 . S
C86 C95 1.511 . S
C87 C86 1.376 . S
C87 C88 1.392 . S
C87 H108 0.931 . S
C88 C87 1.392 . S
C88 C89 1.361 . S
C88 C90 1.500 . S
C89 C84 1.390 . S
C89 C88 1.361 . S
C89 H107 0.931 . S
C90 C88 1.500 . S
C90 C91 1.371 . S
C90 C92 1.365 . S
C91 C90 1.371 . S
C91 C101 1.386 . S
C91 H109 0.931 . S
C92 C90 1.365 . S
C92 C93 1.409 . S
C92 H110 0.929 . S
C93 C92 1.409 . S
C93 C94 1.380 . S
C93 H111 0.930 . S
C94 C93 1.380 . S
C94 C101 1.357 . S
C95 C86 1.511 . S
C95 C96 1.341 . S
C95 C97 1.371 . S
C96 C95 1.341 . S
C96 C100 1.394 . S
C96 H112 0.930 . S
C97 C95 1.371 . S
C97 C98 1.392 . S
C97 H113 0.931 . S
C98 C97 1.392 . S
C98 C99 1.331 . S
C98 H116 0.932 . S
C99 C98 1.331 . S
C99 C100 1.336 . S
C100 C96 1.394 . S
C100 C99 1.336 . S
C100 H115 0.929 . S
C101 C91 1.386 . S
C101 C94 1.357 . S
C101 H114 0.928 . S
H102 C78 0.931 . S
H103 C80 0.930 . S
H104 C82 0.929 . S
H105 C83 0.931 . S
H106 C85 0.930 . S
H107 C89 0.931 . S
H108 C87 0.931 . S
H109 C91 0.931 . S
H110 C92 0.929 . S
H111 C93 0.930 . S
H112 C96 0.930 . S
H113 C97 0.931 . S
H114 C101 0.928 . S
H115 C100 0.929 . S
H116 C98 0.932 . S
C117 C118 1.386 . S
C117 C119 1.397 . S
C117 H141 0.931 . S
C118 C117 1.386 . S
C118 C122 1.397 . S
C119 C117 1.397 . S
C119 C120 1.384 . S
C119 H142 0.930 . S
C120 C119 1.384 . S
C120 C121 1.377 . S
C120 C123 1.481 . S
C121 C120 1.377 . S
C121 C122 1.389 . S
C121 H143 0.929 . S
C122 C118 1.397 . S
C122 C121 1.389 . S
C122 H144 0.931 . S
C123 C120 1.481 . S
C123 C124 1.387 . S
C123 C128 1.390 . S
C124 C123 1.387 . S
C124 C125 1.401 . S
C124 H145 0.930 . S
C125 C124 1.401 . S
C125 C126 1.376 . S
C125 C134 1.511 . S
C126 C125 1.376 . S
C126 C127 1.392 . S
C126 H147 0.931 . S
C127 C126 1.392 . S
C127 C128 1.361 . S
C127 C129 1.500 . S
C128 C123 1.390 . S
C128 C127 1.361 . S
C128 H146 0.931 . S
C129 C127 1.500 . S
C129 C130 1.371 . S
C129 C131 1.365 . S
C130 C129 1.371 . S
C130 C140 1.386 . S
C130 H148 0.931 . S
C131 C129 1.365 . S
C131 C132 1.409 . S
C131 H149 0.929 . S
C132 C131 1.409 . S
C132 C133 1.380 . S
C132 H150 0.930 . S
C133 C132 1.380 . S
C133 C140 1.357 . S
C134 C125 1.511 . S
C134 C135 1.341 . S
C134 C136 1.371 . S
C135 C134 1.341 . S
C135 C139 1.394 . S
C135 H151 0.930 . S
C136 C134 1.371 . S
C136 C137 1.392 . S
C136 H152 0.931 . S
C137 C136 1.392 . S
C137 C138 1.331 . S
C137 H155 0.932 . S
C138 C137 1.331 . S
C138 C139 1.336 . S
C139 C135 1.394 . S
C139 C138 1.336 . S
C139 H154 0.929 . S
C140 C130 1.386 . S
C140 C133 1.357 . S
C140 H153 0.928 . S
H141 C117 0.931 . S
H142 C119 0.930 . S
H143 C121 0.929 . S
H144 C122 0.931 . S
H145 C124 0.930 . S
H146 C128 0.931 . S
H147 C126 0.931 . S
H148 C130 0.931 . S
H149 C131 0.929 . S
H150 C132 0.930 . S
H151 C135 0.930 . S
H152 C136 0.931 . S
H153 C140 0.928 . S
H154 C139 0.929 . S
H155 C137 0.932 . S
C156 C157 1.386 . S
C156 C158 1.397 . S
C156 H180 0.931 . S
C157 C156 1.386 . S
C157 C161 1.397 . S
C158 C156 1.397 . S
C158 C159 1.384 . S
C158 H181 0.930 . S
C159 C158 1.384 . S
C159 C160 1.377 . S
C159 C162 1.481 . S
C160 C159 1.377 . S
C160 C161 1.389 . S
C160 H182 0.929 . S
C161 C157 1.397 . S
C161 C160 1.389 . S
C161 H183 0.931 . S
C162 C159 1.481 . S
C162 C163 1.387 . S
C162 C167 1.390 . S
C163 C162 1.387 . S
C163 C164 1.401 . S
C163 H184 0.930 . S
C164 C163 1.401 . S
C164 C165 1.376 . S
C164 C173 1.511 . S
C165 C164 1.376 . S
C165 C166 1.392 . S
C165 H186 0.931 . S
C166 C165 1.392 . S
C166 C167 1.361 . S
C166 C168 1.500 . S
C167 C162 1.390 . S
C167 C166 1.361 . S
C167 H185 0.931 . S
C168 C166 1.500 . S
C168 C169 1.371 . S
C168 C170 1.365 . S
C169 C168 1.371 . S
C169 C179 1.386 . S
C169 H187 0.931 . S
C170 C168 1.365 . S
C170 C171 1.409 . S
C170 H188 0.929 . S
C171 C170 1.409 . S
C171 C172 1.380 . S
C171 H189 0.930 . S
C172 C171 1.380 . S
C172 C179 1.357 . S
C173 C164 1.511 . S
C173 C174 1.341 . S
C173 C175 1.371 . S
C174 C173 1.341 . S
C174 C178 1.394 . S
C174 H190 0.930 . S
C175 C173 1.371 . S
C175 C176 1.392 . S
C175 H191 0.931 . S
C176 C175 1.392 . S
C176 C177 1.331 . S
C176 H194 0.932 . S
C177 C176 1.331 . S
C177 C178 1.336 . S
C178 C174 1.394 . S
C178 C177 1.336 . S
C178 H193 0.929 . S
C179 C169 1.386 . S
C179 C172 1.357 . S
C179 H192 0.928 . S
H180 C156 0.931 . S
H181 C158 0.930 . S
H182 C160 0.929 . S
H183 C161 0.931 . S
H184 C163 0.930 . S
H185 C167 0.931 . S
H186 C165 0.931 . S
H187 C169 0.931 . S
H188 C170 0.929 . S
H189 C171 0.930 . S
H190 C174 0.930 . S
H191 C175 0.931 . S
H192 C179 0.928 . S
H193 C178 0.929 . S
H194 C176 0.932 . S
C195 C196 1.386 . S
C195 C197 1.397 . S
C195 H219 0.931 . S
C196 C195 1.386 . S
C196 C200 1.397 . S
C197 C195 1.397 . S
C197 C198 1.384 . S
C197 H220 0.930 . S
C198 C197 1.384 . S
C198 C199 1.377 . S
C198 C201 1.481 . S
C199 C198 1.377 . S
C199 C200 1.389 . S
C199 H221 0.929 . S
C200 C196 1.397 . S
C200 C199 1.389 . S
C200 H222 0.931 . S
C201 C198 1.481 . S
C201 C202 1.387 . S
C201 C206 1.390 . S
C202 C201 1.387 . S
C202 C203 1.401 . S
C202 H223 0.930 . S
C203 C202 1.401 . S
C203 C204 1.376 . S
C203 C212 1.511 . S
C204 C203 1.376 . S
C204 C205 1.392 . S
C204 H225 0.931 . S
C205 C204 1.392 . S
C205 C206 1.361 . S
C205 C207 1.500 . S
C206 C201 1.390 . S
C206 C205 1.361 . S
C206 H224 0.931 . S
C207 C205 1.500 . S
C207 C208 1.371 . S
C207 C209 1.365 . S
C208 C207 1.371 . S
C208 C218 1.386 . S
C208 H226 0.931 . S
C209 C207 1.365 . S
C209 C210 1.409 . S
C209 H227 0.929 . S
C210 C209 1.409 . S
C210 C211 1.380 . S
C210 H228 0.930 . S
C211 C210 1.380 . S
C211 C218 1.357 . S
C212 C203 1.511 . S
C212 C213 1.341 . S
C212 C214 1.371 . S
C213 C212 1.341 . S
C213 C217 1.394 . S
C213 H229 0.930 . S
C214 C212 1.371 . S
C214 C215 1.392 . S
C214 H230 0.931 . S
C215 C214 1.392 . S
C215 C216 1.331 . S
C215 H233 0.932 . S
C216 C215 1.331 . S
C216 C217 1.336 . S
C217 C213 1.394 . S
C217 C216 1.336 . S
C217 H232 0.929 . S
C218 C208 1.386 . S
C218 C211 1.357 . S
C218 H231 0.928 . S
H219 C195 0.931 . S
H220 C197 0.930 . S
H221 C199 0.929 . S
H222 C200 0.931 . S
H223 C202 0.930 . S
H224 C206 0.931 . S
H225 C204 0.931 . S
H226 C208 0.931 . S
H227 C209 0.929 . S
H228 C210 0.930 . S
H229 C213 0.930 . S
H230 C214 0.931 . S
H231 C218 0.928 . S
H232 C217 0.929 . S
H233 C215 0.932 . S
C234 C235 1.386 . S
C234 C236 1.397 . S
C234 H258 0.931 . S
C235 C234 1.386 . S
C235 C239 1.397 1_655 S
C236 C234 1.397 . S
C236 C237 1.384 . S
C236 H259 0.930 . S
C237 C236 1.384 . S
C237 C238 1.377 . S
C237 C240 1.481 . S
C238 C237 1.377 . S
C238 C239 1.389 1_655 S
C238 H260 0.890 1_655 S
C239 C235 1.397 1_455 S
C239 C238 1.389 1_455 S
C239 H261 0.931 . S
C240 C237 1.481 . S
C240 C241 1.387 . S
C240 C245 1.390 . S
C241 C240 1.387 . S
C241 C242 1.401 . S
C241 H262 0.930 . S
C242 C241 1.401 . S
C242 C243 1.376 . S
C242 C251 1.511 . S
C243 C242 1.376 . S
C243 C244 1.392 . S
C243 H264 0.931 . S
C244 C243 1.392 . S
C244 C245 1.361 . S
C244 C246 1.500 . S
C245 C240 1.390 . S
C245 C244 1.361 . S
C245 H263 0.931 . S
C246 C244 1.500 . S
C246 C247 1.371 . S
C246 C248 1.365 . S
C247 C246 1.371 . S
C247 C257 1.386 . S
C247 H265 0.931 . S
C248 C246 1.365 . S
C248 C249 1.409 . S
C248 H266 0.929 . S
C249 C248 1.409 . S
C249 C250 1.380 . S
C249 H267 0.930 . S
C250 C249 1.380 . S
C250 C257 1.357 . S
C251 C242 1.511 . S
C251 C252 1.341 . S
C251 C253 1.371 . S
C252 C251 1.341 . S
C252 C256 1.394 . S
C252 H268 0.930 . S
C253 C251 1.371 . S
C253 C254 1.392 . S
C253 H269 0.931 . S
C254 C253 1.392 . S
C254 C255 1.331 . S
C254 H272 0.932 . S
C255 C254 1.331 . S
C255 C256 1.336 . S
C256 C252 1.394 . S
C256 C255 1.336 . S
C256 H271 0.929 . S
C257 C247 1.386 . S
C257 C250 1.357 . S
C257 H270 0.928 . S
H258 C234 0.931 . S
H259 C236 0.930 . S
H260 C238 0.890 1_455 S
H261 C239 0.931 . S
H262 C241 0.930 . S
H263 C245 0.931 . S
H264 C243 0.931 . S
H265 C247 0.931 . S
H266 C248 0.929 . S
H267 C249 0.930 . S
H268 C252 0.930 . S
H269 C253 0.931 . S
H270 C257 0.928 . S
H271 C256 0.929 . S
H272 C254 0.932 . S
C273 C274 1.386 . S
C273 C275 1.397 . S
C273 H297 0.931 . S
C274 C273 1.386 . S
C274 C278 1.397 . S
C275 C273 1.397 . S
C275 C276 1.384 . S
C275 H298 0.930 . S
C276 C275 1.384 . S
C276 C277 1.377 . S
C276 C279 1.481 . S
C277 C276 1.377 . S
C277 C278 1.389 . S
C277 H299 0.929 . S
C278 C274 1.397 . S
C278 C277 1.389 . S
C278 H300 0.931 . S
C279 C276 1.481 . S
C279 C280 1.387 . S
C279 C284 1.390 . S
C280 C279 1.387 . S
C280 C281 1.401 . S
C280 H301 0.930 . S
C281 C280 1.401 . S
C281 C282 1.376 . S
C281 C290 1.511 . S
C282 C281 1.376 . S
C282 C283 1.392 . S
C282 H303 0.931 . S
C283 C282 1.392 . S
C283 C284 1.361 . S
C283 C285 1.500 . S
C284 C279 1.390 . S
C284 C283 1.361 . S
C284 H302 0.931 . S
C285 C283 1.500 . S
C285 C286 1.371 . S
C285 C287 1.365 . S
C286 C285 1.371 . S
C286 C296 1.386 . S
C286 H304 0.931 . S
C287 C285 1.365 . S
C287 C288 1.409 . S
C287 H305 0.929 . S
C288 C287 1.409 . S
C288 C289 1.380 . S
C288 H306 0.930 . S
C289 C288 1.380 . S
C289 C296 1.357 . S
C290 C281 1.511 . S
C290 C291 1.341 . S
C290 C292 1.371 . S
C291 C290 1.341 . S
C291 C295 1.394 . S
C291 H307 0.930 . S
C292 C290 1.371 . S
C292 C293 1.392 . S
C292 H308 0.931 . S
C293 C292 1.392 . S
C293 C294 1.331 . S
C293 H311 0.932 . S
C294 C293 1.331 . S
C294 C295 1.336 . S
C295 C291 1.394 . S
C295 C294 1.336 . S
C295 H310 0.929 . S
C296 C286 1.386 . S
C296 C289 1.357 . S
C296 H309 0.928 . S
H297 C273 0.931 . S
H298 C275 0.930 . S
H299 C277 0.929 . S
H300 C278 0.931 . S
H301 C280 0.930 . S
H302 C284 0.931 . S
H303 C282 0.931 . S
H304 C286 0.931 . S
H305 C287 0.929 . S
H306 C288 0.930 . S
H307 C291 0.930 . S
H308 C292 0.931 . S
H309 C296 0.928 . S
H310 C295 0.929 . S
H311 C293 0.932 . S
C312 C313 1.386 . S
C312 C314 1.397 . S
C312 H336 0.931 . S
C313 C312 1.386 . S
C313 C317 1.397 . S
C314 C312 1.397 . S
C314 C315 1.384 . S
C314 H337 0.930 . S
C315 C314 1.384 . S
C315 C316 1.377 . S
C315 C318 1.481 . S
C316 C315 1.377 . S
C316 C317 1.389 . S
C316 H338 0.929 . S
C317 C313 1.397 . S
C317 C316 1.389 . S
C317 H339 0.931 . S
C318 C315 1.481 . S
C318 C319 1.387 . S
C318 C323 1.390 . S
C319 C318 1.387 . S
C319 C320 1.401 . S
C319 H340 0.930 . S
C320 C319 1.401 . S
C320 C321 1.376 . S
C320 C329 1.511 . S
C321 C320 1.376 . S
C321 C322 1.392 . S
C321 H342 0.931 . S
C322 C321 1.392 . S
C322 C323 1.361 . S
C322 C324 1.500 . S
C323 C318 1.390 . S
C323 C322 1.361 . S
C323 H341 0.931 . S
C324 C322 1.500 . S
C324 C325 1.371 . S
C324 C326 1.365 . S
C325 C324 1.371 . S
C325 C335 1.386 . S
C325 H343 0.931 . S
C326 C324 1.365 . S
C326 C327 1.409 . S
C326 H344 0.929 . S
C327 C326 1.409 . S
C327 C328 1.380 . S
C327 H345 0.930 . S
C328 C327 1.380 . S
C328 C335 1.357 . S
C329 C320 1.511 . S
C329 C330 1.341 . S
C329 C331 1.371 . S
C330 C329 1.341 . S
C330 C334 1.394 . S
C330 H346 0.930 . S
C331 C329 1.371 . S
C331 C332 1.392 . S
C331 H347 0.931 . S
C332 C331 1.392 . S
C332 C333 1.331 . S
C332 H350 0.932 . S
C333 C332 1.331 . S
C333 C334 1.336 . S
C334 C330 1.394 . S
C334 C333 1.336 . S
C334 H349 0.929 . S
C335 C325 1.386 . S
C335 C328 1.357 . S
C335 H348 0.928 . S
H336 C312 0.931 . S
H337 C314 0.930 . S
H338 C316 0.929 . S
H339 C317 0.931 . S
H340 C319 0.930 . S
H341 C323 0.931 . S
H342 C321 0.931 . S
H343 C325 0.931 . S
H344 C326 0.929 . S
H345 C327 0.930 . S
H346 C330 0.930 . S
H347 C331 0.931 . S
H348 C335 0.928 . S
H349 C334 0.929 . S
H350 C332 0.932 . S
C351 C352 1.386 . S
C351 C353 1.397 . S
C351 H375 0.931 . S
C352 C351 1.386 . S
C352 C356 1.397 . S
C353 C351 1.397 . S
C353 C354 1.384 . S
C353 H376 0.930 . S
C354 C353 1.384 . S
C354 C355 1.377 . S
C354 C357 1.481 . S
C355 C354 1.377 . S
C355 C356 1.389 . S
C355 H377 0.929 . S
C356 C352 1.397 . S
C356 C355 1.389 . S
C356 H378 0.931 . S
C357 C354 1.481 . S
C357 C358 1.387 . S
C357 C362 1.390 . S
C358 C357 1.387 . S
C358 C359 1.401 . S
C358 H379 0.930 . S
C359 C358 1.401 . S
C359 C360 1.376 . S
C359 C368 1.511 . S
C360 C359 1.376 . S
C360 C361 1.392 . S
C360 H381 0.931 . S
C361 C360 1.392 . S
C361 C362 1.361 . S
C361 C363 1.500 . S
C362 C357 1.390 . S
C362 C361 1.361 . S
C362 H380 0.931 . S
C363 C361 1.500 . S
C363 C364 1.371 . S
C363 C365 1.365 . S
C364 C363 1.371 . S
C364 C374 1.386 . S
C364 H382 0.931 . S
C365 C363 1.365 . S
C365 C366 1.409 . S
C365 H383 0.929 . S
C366 C365 1.409 . S
C366 C367 1.380 . S
C366 H384 0.930 . S
C367 C366 1.380 . S
C367 C374 1.357 . S
C368 C359 1.511 . S
C368 C369 1.341 . S
C368 C370 1.371 . S
C369 C368 1.341 . S
C369 C373 1.394 . S
C369 H385 0.930 . S
C370 C368 1.371 . S
C370 C371 1.392 . S
C370 H386 0.931 . S
C371 C370 1.392 . S
C371 C372 1.331 . S
C371 H389 0.932 . S
C372 C371 1.331 . S
C372 C373 1.336 . S
C373 C369 1.394 . S
C373 C372 1.336 . S
C373 H388 0.929 . S
C374 C364 1.386 . S
C374 C367 1.357 . S
C374 H387 0.928 . S
H375 C351 0.931 . S
H376 C353 0.930 . S
H377 C355 0.929 . S
H378 C356 0.931 . S
H379 C358 0.930 . S
H380 C362 0.931 . S
H381 C360 0.931 . S
H382 C364 0.931 . S
H383 C365 0.929 . S
H384 C366 0.930 . S
H385 C369 0.930 . S
H386 C370 0.931 . S
H387 C374 0.928 . S
H388 C373 0.929 . S
H389 C371 0.932 . S
C390 C391 1.386 . S
C390 C392 1.397 . S
C390 H414 0.931 . S
C391 C390 1.386 . S
C391 C395 1.397 . S
C392 C390 1.397 . S
C392 C393 1.384 . S
C392 H415 0.930 . S
C393 C392 1.384 . S
C393 C394 1.377 . S
C393 C396 1.481 . S
C394 C393 1.377 . S
C394 C395 1.389 . S
C394 H416 0.929 . S
C395 C391 1.397 . S
C395 C394 1.389 . S
C395 H417 0.931 . S
C396 C393 1.481 . S
C396 C397 1.387 . S
C396 C401 1.390 . S
C397 C396 1.387 . S
C397 C398 1.401 . S
C397 H418 0.930 . S
C398 C397 1.401 . S
C398 C399 1.376 . S
C398 C407 1.511 . S
C399 C398 1.376 . S
C399 C400 1.392 . S
C399 H420 0.931 . S
C400 C399 1.392 . S
C400 C401 1.361 . S
C400 C402 1.500 . S
C401 C396 1.390 . S
C401 C400 1.361 . S
C401 H419 0.931 . S
C402 C400 1.500 . S
C402 C403 1.371 . S
C402 C404 1.365 . S
C403 C402 1.371 . S
C403 C413 1.386 . S
C403 H421 0.931 . S
C404 C402 1.365 . S
C404 C405 1.409 . S
C404 H422 0.929 . S
C405 C404 1.409 . S
C405 C406 1.380 . S
C405 H423 0.930 . S
C406 C405 1.380 . S
C406 C413 1.357 . S
C407 C398 1.511 . S
C407 C408 1.341 . S
C407 C409 1.371 . S
C408 C407 1.341 . S
C408 C412 1.394 . S
C408 H424 0.930 . S
C409 C407 1.371 . S
C409 C410 1.392 . S
C409 H425 0.931 . S
C410 C409 1.392 . S
C410 C411 1.331 . S
C410 H428 0.932 . S
C411 C410 1.331 . S
C411 C412 1.336 . S
C412 C408 1.394 . S
C412 C411 1.336 . S
C412 H427 0.929 . S
C413 C403 1.386 . S
C413 C406 1.357 . S
C413 H426 0.928 . S
H414 C390 0.931 . S
H415 C392 0.930 . S
H416 C394 0.929 . S
H417 C395 0.931 . S
H418 C397 0.930 . S
H419 C401 0.931 . S
H420 C399 0.931 . S
H421 C403 0.931 . S
H422 C404 0.929 . S
H423 C405 0.930 . S
H424 C408 0.930 . S
H425 C409 0.931 . S
H426 C413 0.928 . S
H427 C412 0.929 . S
H428 C410 0.932 . S
C429 C430 1.386 . S
C429 C431 1.397 . S
C429 H453 0.931 . S
C430 C429 1.386 . S
C430 C434 1.397 . S
C431 C429 1.397 . S
C431 C432 1.384 . S
C431 H454 0.930 . S
C432 C431 1.384 . S
C432 C433 1.377 . S
C432 C435 1.481 . S
C433 C432 1.377 . S
C433 C434 1.389 . S
C433 H455 0.929 . S
C434 C430 1.397 . S
C434 C433 1.389 . S
C434 H456 0.931 . S
C435 C432 1.481 . S
C435 C436 1.387 . S
C435 C440 1.390 . S
C436 C435 1.387 . S
C436 C437 1.401 . S
C436 H457 0.930 . S
C437 C436 1.401 . S
C437 C438 1.376 . S
C437 C446 1.511 . S
C438 C437 1.376 . S
C438 C439 1.392 . S
C438 H459 0.931 . S
C439 C438 1.392 . S
C439 C440 1.361 . S
C439 C441 1.500 . S
C440 C435 1.390 . S
C440 C439 1.361 . S
C440 H458 0.931 . S
C441 C439 1.500 . S
C441 C442 1.371 . S
C441 C443 1.365 . S
C442 C441 1.371 . S
C442 C452 1.386 . S
C442 H460 0.931 . S
C443 C441 1.365 . S
C443 C444 1.409 . S
C443 H461 0.929 . S
C444 C443 1.409 . S
C444 C445 1.380 . S
C444 H462 0.930 . S
C445 C444 1.380 . S
C445 C452 1.357 . S
C446 C437 1.511 . S
C446 C447 1.341 . S
C446 C448 1.371 . S
C447 C446 1.341 . S
C447 C451 1.394 . S
C447 H463 0.930 . S
C448 C446 1.371 . S
C448 C449 1.392 . S
C448 H464 0.931 . S
C449 C448 1.392 . S
C449 C450 1.331 . S
C449 H467 0.932 . S
C450 C449 1.331 . S
C450 C451 1.336 . S
C451 C447 1.394 . S
C451 C450 1.336 . S
C451 H466 0.929 . S
C452 C442 1.386 . S
C452 C445 1.357 . S
C452 H465 0.928 . S
H453 C429 0.931 . S
H454 C431 0.930 . S
H455 C433 0.929 . S
H456 C434 0.931 . S
H457 C436 0.930 . S
H458 C440 0.931 . S
H459 C438 0.931 . S
H460 C442 0.931 . S
H461 C443 0.929 . S
H462 C444 0.930 . S
H463 C447 0.930 . S
H464 C448 0.931 . S
H465 C452 0.928 . S
H466 C451 0.929 . S
H467 C449 0.932 . S
C468 C469 1.386 . S
C468 C470 1.397 . S
C468 H492 0.931 . S
C469 C468 1.386 . S
C469 C473 1.397 . S
C470 C468 1.397 . S
C470 C471 1.384 . S
C470 H493 0.930 . S
C471 C470 1.384 . S
C471 C472 1.377 . S
C471 C474 1.481 . S
C472 C471 1.377 . S
C472 C473 1.389 . S
C472 H494 0.929 . S
C473 C469 1.397 . S
C473 C472 1.389 . S
C473 H495 0.931 . S
C474 C471 1.481 . S
C474 C475 1.387 . S
C474 C479 1.390 . S
C475 C474 1.387 . S
C475 C476 1.401 . S
C475 H496 0.930 . S
C476 C475 1.401 . S
C476 C477 1.376 . S
C476 C485 1.511 . S
C477 C476 1.376 . S
C477 C478 1.392 . S
C477 H498 0.931 . S
C478 C477 1.392 . S
C478 C479 1.361 . S
C478 C480 1.500 . S
C479 C474 1.390 . S
C479 C478 1.361 . S
C479 H497 0.931 . S
C480 C478 1.500 . S
C480 C481 1.371 . S
C480 C482 1.365 . S
C481 C480 1.371 . S
C481 C491 1.386 . S
C481 H499 0.931 . S
C482 C480 1.365 . S
C482 C483 1.409 . S
C482 H500 0.929 . S
C483 C482 1.409 . S
C483 C484 1.380 . S
C483 H501 0.930 . S
C484 C483 1.380 . S
C484 C491 1.357 . S
C485 C476 1.511 . S
C485 C486 1.341 . S
C485 C487 1.371 . S
C486 C485 1.341 . S
C486 C490 1.394 . S
C486 H502 0.930 . S
C487 C485 1.371 . S
C487 C488 1.392 . S
C487 H503 0.931 . S
C488 C487 1.392 . S
C488 C489 1.331 . S
C488 H506 0.932 . S
C489 C488 1.331 . S
C489 C490 1.336 . S
C490 C486 1.394 . S
C490 C489 1.336 . S
C490 H505 0.929 . S
C491 C481 1.386 . S
C491 C484 1.357 . S
C491 H504 0.928 . S
H492 C468 0.931 . S
H493 C470 0.930 . S
H494 C472 0.929 . S
H495 C473 0.931 . S
H496 C475 0.930 . S
H497 C479 0.931 . S
H498 C477 0.931 . S
H499 C481 0.931 . S
H500 C482 0.929 . S
H501 C483 0.930 . S
H502 C486 0.930 . S
H503 C487 0.931 . S
H504 C491 0.928 . S
H505 C490 0.929 . S
H506 C488 0.932 . S
C507 C508 1.386 . S
C507 C509 1.397 . S
C507 H531 0.931 . S
C508 C507 1.386 . S
C508 C512 1.397 . S
C509 C507 1.397 . S
C509 C510 1.384 . S
C509 H532 0.930 . S
C510 C509 1.384 . S
C510 C511 1.377 . S
C510 C513 1.481 . S
C511 C510 1.377 . S
C511 C512 1.389 . S
C511 H533 0.929 . S
C512 C508 1.397 . S
C512 C511 1.389 . S
C512 H534 0.931 . S
C513 C510 1.481 . S
C513 C514 1.387 . S
C513 C518 1.390 . S
C514 C513 1.387 . S
C514 C515 1.401 . S
C514 H535 0.930 . S
C515 C514 1.401 . S
C515 C516 1.376 . S
C515 C524 1.511 . S
C516 C515 1.376 . S
C516 C517 1.392 . S
C516 H537 0.931 . S
C517 C516 1.392 . S
C517 C518 1.361 . S
C517 C519 1.500 . S
C518 C513 1.390 . S
C518 C517 1.361 . S
C518 H536 0.931 . S
C519 C517 1.500 . S
C519 C520 1.371 . S
C519 C521 1.365 . S
C520 C519 1.371 . S
C520 C530 1.386 . S
C520 H538 0.931 . S
C521 C519 1.365 . S
C521 C522 1.409 . S
C521 H539 0.929 . S
C522 C521 1.409 . S
C522 C523 1.380 . S
C522 H540 0.930 . S
C523 C522 1.380 . S
C523 C530 1.357 . S
C524 C515 1.511 . S
C524 C525 1.341 . S
C524 C526 1.371 . S
C525 C524 1.341 . S
C525 C529 1.394 . S
C525 H541 0.930 . S
C526 C524 1.371 . S
C526 C527 1.392 . S
C526 H542 0.931 . S
C527 C526 1.392 . S
C527 C528 1.331 . S
C527 H545 0.932 . S
C528 C527 1.331 . S
C528 C529 1.336 . S
C529 C525 1.394 . S
C529 C528 1.336 . S
C529 H544 0.929 . S
C530 C520 1.386 . S
C530 C523 1.357 . S
C530 H543 0.928 . S
H531 C507 0.931 . S
H532 C509 0.930 . S
H533 C511 0.929 . S
H534 C512 0.931 . S
H535 C514 0.930 . S
H536 C518 0.931 . S
H537 C516 0.931 . S
H538 C520 0.931 . S
H539 C521 0.929 . S
H540 C522 0.930 . S
H541 C525 0.930 . S
H542 C526 0.931 . S
H543 C530 0.928 . S
H544 C529 0.929 . S
H545 C527 0.932 . S
C546 C547 1.386 . S
C546 C548 1.397 . S
C546 H570 0.931 . S
C547 C546 1.386 . S
C547 C551 1.397 . S
C548 C546 1.397 . S
C548 C549 1.384 . S
C548 H571 0.930 . S
C549 C548 1.384 . S
C549 C550 1.377 . S
C549 C552 1.481 . S
C550 C549 1.377 . S
C550 C551 1.389 . S
C550 H572 0.929 . S
C551 C547 1.397 . S
C551 C550 1.389 . S
C551 H573 0.931 . S
C552 C549 1.481 . S
C552 C553 1.387 . S
C552 C557 1.390 . S
C553 C552 1.387 . S
C553 C554 1.401 . S
C553 H574 0.930 . S
C554 C553 1.401 . S
C554 C555 1.376 . S
C554 C563 1.511 . S
C555 C554 1.376 . S
C555 C556 1.392 . S
C555 H576 0.931 . S
C556 C555 1.392 . S
C556 C557 1.361 . S
C556 C558 1.500 . S
C557 C552 1.390 . S
C557 C556 1.361 . S
C557 H575 0.931 . S
C558 C556 1.500 . S
C558 C559 1.371 . S
C558 C560 1.365 . S
C559 C558 1.371 . S
C559 C569 1.386 . S
C559 H577 0.931 . S
C560 C558 1.365 . S
C560 C561 1.409 . S
C560 H578 0.929 . S
C561 C560 1.409 . S
C561 C562 1.380 . S
C561 H579 0.930 . S
C562 C561 1.380 . S
C562 C569 1.357 . S
C563 C554 1.511 . S
C563 C564 1.341 . S
C563 C565 1.371 . S
C564 C563 1.341 . S
C564 C568 1.394 . S
C564 H580 0.930 . S
C565 C563 1.371 . S
C565 C566 1.392 . S
C565 H581 0.931 . S
C566 C565 1.392 . S
C566 C567 1.331 . S
C566 H584 0.932 . S
C567 C566 1.331 . S
C567 C568 1.336 . S
C568 C564 1.394 . S
C568 C567 1.336 . S
C568 H583 0.929 . S
C569 C559 1.386 . S
C569 C562 1.357 . S
C569 H582 0.928 . S
H570 C546 0.931 . S
H571 C548 0.930 . S
H572 C550 0.929 . S
H573 C551 0.931 . S
H574 C553 0.930 . S
H575 C557 0.931 . S
H576 C555 0.931 . S
H577 C559 0.931 . S
H578 C560 0.929 . S
H579 C561 0.930 . S
H580 C564 0.930 . S
H581 C565 0.931 . S
H582 C569 0.928 . S
H583 C568 0.929 . S
H584 C566 0.932 . S
C585 C586 1.386 . S
C585 C587 1.397 . S
C585 H609 0.931 . S
C586 C585 1.386 . S
C586 C590 1.397 . S
C587 C585 1.397 . S
C587 C588 1.384 . S
C587 H610 0.930 . S
C588 C587 1.384 . S
C588 C589 1.377 . S
C588 C591 1.481 . S
C589 C588 1.377 . S
C589 C590 1.389 . S
C589 H611 0.929 . S
C590 C586 1.397 . S
C590 C589 1.389 . S
C590 H612 0.931 . S
C591 C588 1.481 . S
C591 C592 1.387 . S
C591 C596 1.390 . S
C592 C591 1.387 . S
C592 C593 1.401 . S
C592 H613 0.930 . S
C593 C592 1.401 . S
C593 C594 1.376 . S
C593 C602 1.511 . S
C594 C593 1.376 . S
C594 C595 1.392 . S
C594 H615 0.931 . S
C595 C594 1.392 . S
C595 C596 1.361 . S
C595 C597 1.500 . S
C596 C591 1.390 . S
C596 C595 1.361 . S
C596 H614 0.931 . S
C597 C595 1.500 . S
C597 C598 1.371 . S
C597 C599 1.365 . S
C598 C597 1.371 . S
C598 C608 1.386 . S
C598 H616 0.931 . S
C599 C597 1.365 . S
C599 C600 1.409 . S
C599 H617 0.929 . S
C600 C599 1.409 . S
C600 C601 1.380 . S
C600 H618 0.930 . S
C601 C600 1.380 . S
C601 C608 1.357 . S
C602 C593 1.511 . S
C602 C603 1.341 . S
C602 C604 1.371 . S
C603 C602 1.341 . S
C603 C607 1.394 . S
C603 H619 0.930 . S
C604 C602 1.371 . S
C604 C605 1.392 . S
C604 H620 0.931 . S
C605 C604 1.392 . S
C605 C606 1.331 . S
C605 H623 0.932 . S
C606 C605 1.331 . S
C606 C607 1.336 . S
C607 C603 1.394 . S
C607 C606 1.336 . S
C607 H622 0.929 . S
C608 C598 1.386 . S
C608 C601 1.357 . S
C608 H621 0.928 . S
H609 C585 0.931 . S
H610 C587 0.930 . S
H611 C589 0.929 . S
H612 C590 0.931 . S
H613 C592 0.930 . S
H614 C596 0.931 . S
H615 C594 0.931 . S
H616 C598 0.931 . S
H617 C599 0.929 . S
H618 C600 0.930 . S
H619 C603 0.930 . S
H620 C604 0.931 . S
H621 C608 0.928 . S
H622 C607 0.929 . S
H623 C605 0.932 . S
C624 C625 1.384 1_655 S
C624 C626 1.392 1_655 S
C624 H648 0.938 . S
C625 C624 1.384 1_455 S
C625 C629 1.397 . S
C626 C624 1.392 1_455 S
C626 C627 1.384 . S
C626 H649 0.928 1_455 S
C627 C626 1.384 . S
C627 C628 1.377 . S
C627 C630 1.481 . S
C628 C627 1.377 . S
C628 C629 1.389 . S
C628 H650 0.929 . S
C629 C625 1.397 . S
C629 C628 1.389 . S
C629 H651 0.931 . S
C630 C627 1.481 . S
C630 C631 1.387 . S
C630 C635 1.390 . S
C631 C630 1.387 . S
C631 C632 1.401 . S
C631 H652 0.930 . S
C632 C631 1.401 . S
C632 C633 1.376 . S
C632 C641 1.511 . S
C633 C632 1.376 . S
C633 C634 1.392 . S
C633 H654 0.931 . S
C634 C633 1.392 . S
C634 C635 1.361 . S
C634 C636 1.500 . S
C635 C630 1.390 . S
C635 C634 1.361 . S
C635 H653 0.931 . S
C636 C634 1.500 . S
C636 C637 1.371 . S
C636 C638 1.365 . S
C637 C636 1.371 . S
C637 C647 1.386 . S
C637 H655 0.931 . S
C638 C636 1.365 . S
C638 C639 1.409 . S
C638 H656 0.929 . S
C639 C638 1.409 . S
C639 C640 1.380 . S
C639 H657 0.930 . S
C640 C639 1.380 . S
C640 C647 1.357 . S
C641 C632 1.511 . S
C641 C642 1.341 . S
C641 C643 1.371 . S
C642 C641 1.341 . S
C642 C646 1.394 . S
C642 H658 0.930 . S
C643 C641 1.371 . S
C643 C644 1.392 . S
C643 H659 0.931 . S
C644 C643 1.392 . S
C644 C645 1.331 . S
C644 H662 0.932 . S
C645 C644 1.331 . S
C645 C646 1.336 . S
C646 C642 1.394 . S
C646 C645 1.336 . S
C646 H661 0.929 . S
C647 C637 1.386 . S
C647 C640 1.357 . S
C647 H660 0.928 . S
H648 C624 0.938 . S
H649 C626 0.928 1_655 S
H650 C628 0.929 . S
H651 C629 0.931 . S
H652 C631 0.930 . S
H653 C635 0.931 . S
H654 C633 0.931 . S
H655 C637 0.931 . S
H656 C638 0.929 . S
H657 C639 0.930 . S
H658 C642 0.930 . S
H659 C643 0.931 . S
H660 C647 0.928 . S
H661 C646 0.929 . S
H662 C644 0.932 . S
C663 C664 1.386 . S
C663 C665 1.397 . S
C663 H687 0.931 . S
C664 C663 1.386 . S
C664 C668 1.397 . S
C665 C663 1.397 . S
C665 C666 1.384 . S
C665 H688 0.930 . S
C666 C665 1.384 . S
C666 C667 1.377 . S
C666 C669 1.481 . S
C667 C666 1.377 . S
C667 C668 1.389 . S
C667 H689 0.929 . S
C668 C664 1.397 . S
C668 C667 1.389 . S
C668 H690 0.931 . S
C669 C666 1.481 . S
C669 C670 1.387 . S
C669 C674 1.390 . S
C670 C669 1.387 . S
C670 C671 1.401 . S
C670 H691 0.930 . S
C671 C670 1.401 . S
C671 C672 1.376 . S
C671 C680 1.511 . S
C672 C671 1.376 . S
C672 C673 1.392 . S
C672 H693 0.931 . S
C673 C672 1.392 . S
C673 C674 1.361 . S
C673 C675 1.500 . S
C674 C669 1.390 . S
C674 C673 1.361 . S
C674 H692 0.931 . S
C675 C673 1.500 . S
C675 C676 1.371 . S
C675 C677 1.365 . S
C676 C675 1.371 . S
C676 C686 1.386 . S
C676 H694 0.931 . S
C677 C675 1.365 . S
C677 C678 1.409 . S
C677 H695 0.929 . S
C678 C677 1.409 . S
C678 C679 1.380 . S
C678 H696 0.930 . S
C679 C678 1.380 . S
C679 C686 1.357 . S
C680 C671 1.511 . S
C680 C681 1.341 . S
C680 C682 1.371 . S
C681 C680 1.341 . S
C681 C685 1.394 . S
C681 H697 0.930 . S
C682 C680 1.371 . S
C682 C683 1.392 . S
C682 H698 0.931 . S
C683 C682 1.392 . S
C683 C684 1.331 . S
C683 H701 0.932 . S
C684 C683 1.331 . S
C684 C685 1.336 . S
C685 C681 1.394 . S
C685 C684 1.336 . S
C685 H700 0.929 . S
C686 C676 1.386 . S
C686 C679 1.357 . S
C686 H699 0.928 . S
H687 C663 0.931 . S
H688 C665 0.930 . S
H689 C667 0.929 . S
H690 C668 0.931 . S
H691 C670 0.930 . S
H692 C674 0.931 . S
H693 C672 0.931 . S
H694 C676 0.931 . S
H695 C677 0.929 . S
H696 C678 0.930 . S
H697 C681 0.930 . S
H698 C682 0.931 . S
H699 C686 0.928 . S
H700 C685 0.929 . S
H701 C683 0.932 . S
C702 Eu703 2.835 . S
C702 C704 1.500 . S
C702 O722 1.257 1_545 S
C702 O723 1.260 . S
Eu703 C702 2.835 . S
Eu703 O722 2.473 1_545 S
Eu703 O723 2.480 . S
Eu703 O724 2.430 . S
Eu703 O725 2.670 1_554 S
Eu703 O726 2.394 1_545 S
Eu703 O731 2.355 1_545 S
Eu703 O733 2.374 . S
C704 C702 1.500 . S
C704 C705 1.377 . S
C704 C709 1.377 1_545 S
C705 C704 1.377 . S
C705 C706 1.395 . S
C705 H734 0.931 . S
C706 C705 1.395 . S
C706 C707 1.383 1_545 S
C706 H735 0.931 . S
C707 C706 1.383 1_565 S
C707 C708 1.394 . S
C708 C707 1.394 . S
C708 C709 1.378 . S
C708 H736 0.931 . S
C709 C704 1.377 1_565 S
C709 C708 1.378 . S
C709 H737 0.931 . S
C710 O724 1.259 . S
C710 O725 1.270 1_554 S
C711 O726 1.251 . S
C711 O727 1.251 . S
C712 Eu713 2.835 . S
C712 C714 1.500 . S
C712 O728 1.257 1_565 S
C712 O729 1.260 . S
Eu713 C712 2.835 . S
Eu713 O725 2.355 1_565 S
Eu713 O727 2.374 1_556 S
Eu713 O728 2.473 1_565 S
Eu713 O729 2.480 . S
Eu713 O730 2.430 . S
Eu713 O731 2.670 1_556 S
Eu713 O732 2.394 1_565 S
C714 C712 1.500 . S
C714 C715 1.377 . S
C714 C719 1.377 1_565 S
C715 C714 1.377 . S
C715 C716 1.395 . S
C715 H738 0.931 . S
C716 C715 1.395 . S
C716 C717 1.383 1_565 S
C716 H739 0.931 . S
C717 C716 1.383 1_545 S
C717 C718 1.394 . S
C718 C717 1.394 . S
C718 C719 1.378 . S
C718 H740 0.931 . S
C719 C714 1.377 1_545 S
C719 C718 1.378 . S
C719 H741 0.931 . S
C720 O730 1.259 1_554 S
C720 O731 1.270 . S
C721 O732 1.251 . S
C721 O733 1.251 1_556 S
O722 C702 1.257 1_565 S
O722 Eu703 2.473 1_565 S
O723 C702 1.260 . S
O723 Eu703 2.480 . S
O724 Eu703 2.430 . S
O724 C710 1.259 . S
O725 Eu703 2.670 1_556 S
O725 C710 1.270 1_556 S
O725 Eu713 2.355 1_545 S
O726 Eu703 2.394 1_565 S
O726 C711 1.251 . S
O727 C711 1.251 . S
O727 Eu713 2.374 1_554 S
O728 C712 1.257 1_545 S
O728 Eu713 2.473 1_545 S
O729 C712 1.260 . S
O729 Eu713 2.480 . S
O730 Eu713 2.430 . S
O730 C720 1.259 1_556 S
O731 Eu703 2.355 1_565 S
O731 Eu713 2.670 1_554 S
O731 C720 1.270 . S
O732 Eu713 2.394 1_545 S
O732 C721 1.251 . S
O733 Eu703 2.374 . S
O733 C721 1.251 1_554 S
H734 C705 0.931 . S
H735 C706 0.931 . S
H736 C708 0.931 . S
H737 C709 0.931 . S
H738 C715 0.931 . S
H739 C716 0.931 . S
H740 C718 0.931 . S
H741 C719 0.931 . S
C742 Eu743 2.835 . S
C742 C744 1.500 1_655 S
C742 O762 1.257 1_655 S
C742 O763 1.260 . S
Eu743 C742 2.835 . S
Eu743 O762 2.473 1_655 S
Eu743 O763 2.480 . S
Eu743 O764 2.430 . S
Eu743 O765 2.670 1_554 S
Eu743 O766 2.394 1_655 S
Eu743 O771 2.355 1_655 S
Eu743 O773 2.374 . S
C744 C742 1.500 1_455 S
C744 C745 1.377 1_455 S
C744 C749 1.377 . S
C745 C744 1.377 1_655 S
C745 C746 1.395 . S
C745 H774 0.931 . S
C746 C745 1.395 . S
C746 C747 1.383 1_655 S
C746 H775 0.931 . S
C747 C746 1.383 1_455 S
C747 C748 1.394 . S
C748 C747 1.394 . S
C748 C749 1.378 . S
C748 H776 0.931 . S
C749 C744 1.377 . S
C749 C748 1.378 . S
C749 H777 0.931 . S
C750 O764 1.262 . S
C750 O765 1.269 1_554 S
C751 O766 1.251 . S
C751 O767 1.251 . S
C752 Eu753 2.835 . S
C752 C754 1.500 1_455 S
C752 O768 1.257 1_455 S
C752 O769 1.260 . S
Eu753 C752 2.835 . S
Eu753 O765 2.355 1_455 S
Eu753 O767 2.374 1_556 S
Eu753 O768 2.473 1_455 S
Eu753 O769 2.480 . S
Eu753 O770 2.430 . S
Eu753 O771 2.670 1_556 S
Eu753 O772 2.394 1_455 S
C754 C752 1.500 1_655 S
C754 C755 1.377 1_655 S
C754 C759 1.377 . S
C755 C754 1.377 1_455 S
C755 C756 1.395 . S
C755 H778 0.931 . S
C756 C755 1.395 . S
C756 C757 1.383 1_455 S
C756 H779 0.931 . S
C757 C756 1.383 1_655 S
C757 C758 1.394 . S
C758 C757 1.394 . S
C758 C759 1.378 . S
C758 H780 0.931 . S
C759 C754 1.377 . S
C759 C758 1.378 . S
C759 H781 0.931 . S
C760 O770 1.259 1_554 S
C760 O771 1.270 . S
C761 O772 1.251 . S
C761 O773 1.251 1_556 S
O762 C742 1.257 1_455 S
O762 Eu743 2.473 1_455 S
O763 C742 1.260 . S
O763 Eu743 2.480 . S
O764 Eu743 2.430 . S
O764 C750 1.262 . S
O765 Eu743 2.670 1_556 S
O765 C750 1.269 1_556 S
O765 Eu753 2.355 1_655 S
O766 Eu743 2.394 1_455 S
O766 C751 1.251 . S
O767 C751 1.251 . S
O767 Eu753 2.374 1_554 S
O768 C752 1.257 1_655 S
O768 Eu753 2.473 1_655 S
O769 C752 1.260 . S
O769 Eu753 2.480 . S
O770 Eu753 2.430 . S
O770 C760 1.259 1_556 S
O771 Eu743 2.355 1_455 S
O771 Eu753 2.670 1_554 S
O771 C760 1.270 . S
O772 Eu753 2.394 1_655 S
O772 C761 1.251 . S
O773 Eu743 2.374 . S
O773 C761 1.251 1_554 S
H774 C745 0.931 . S
H775 C746 0.931 . S
H776 C748 0.931 . S
H777 C749 0.931 . S
H778 C755 0.931 . S
H779 C756 0.931 . S
H780 C758 0.931 . S
H781 C759 0.931 . S
C782 Eu783 2.835 . S
C782 C784 1.500 . S
C782 O802 1.257 . S
C782 O803 1.260 . S
Eu783 C782 2.835 . S
Eu783 O802 2.473 . S
Eu783 O803 2.480 . S
Eu783 O804 2.430 . S
Eu783 O805 2.670 1_556 S
Eu783 O806 2.394 . S
Eu783 O811 2.355 . S
Eu783 O813 2.374 1_556 S
C784 C782 1.500 . S
C784 C785 1.377 . S
C784 C789 1.377 . S
C785 C784 1.377 . S
C785 C786 1.395 . S
C785 H814 0.931 . S
C786 C785 1.395 . S
C786 C787 1.383 . S
C786 H815 0.931 . S
C787 C786 1.383 . S
C787 C788 1.394 . S
C788 C787 1.394 . S
C788 C789 1.378 . S
C788 H816 0.931 . S
C789 C784 1.377 . S
C789 C788 1.378 . S
C789 H817 0.931 . S
C790 O804 1.259 1_554 S
C790 O805 1.270 . S
C791 O806 1.251 . S
C791 O807 1.251 1_556 S
C792 Eu793 2.835 . S
C792 C794 1.500 . S
C792 O808 1.257 . S
C792 O809 1.260 . S
Eu793 C792 2.835 . S
Eu793 O805 2.355 . S
Eu793 O807 2.374 . S
Eu793 O808 2.473 . S
Eu793 O809 2.480 . S
Eu793 O810 2.430 . S
Eu793 O811 2.670 1_554 S
Eu793 O812 2.394 . S
C794 C792 1.500 . S
C794 C795 1.377 . S
C794 C799 1.377 . S
C795 C794 1.377 . S
C795 C796 1.395 . S
C795 H818 0.931 . S
C796 C795 1.395 . S
C796 C797 1.383 . S
C796 H819 0.931 . S
C797 C796 1.383 . S
C797 C798 1.394 . S
C798 C797 1.394 . S
C798 C799 1.378 . S
C798 H820 0.931 . S
C799 C794 1.377 . S
C799 C798 1.378 . S
C799 H821 0.931 . S
C800 O810 1.259 . S
C800 O811 1.270 1_554 S
C801 O812 1.251 . S
C801 O813 1.251 . S
O802 C782 1.257 . S
O802 Eu783 2.473 . S
O803 C782 1.260 . S
O803 Eu783 2.480 . S
O804 Eu783 2.430 . S
O804 C790 1.259 1_556 S
O805 Eu783 2.670 1_554 S
O805 C790 1.270 . S
O805 Eu793 2.355 . S
O806 Eu783 2.394 . S
O806 C791 1.251 . S
O807 C791 1.251 1_554 S
O807 Eu793 2.374 . S
O808 C792 1.257 . S
O808 Eu793 2.473 . S
O809 C792 1.260 . S
O809 Eu793 2.480 . S
O810 Eu793 2.430 . S
O810 C800 1.259 . S
O811 Eu783 2.355 . S
O811 Eu793 2.670 1_556 S
O811 C800 1.270 1_556 S
O812 Eu793 2.394 . S
O812 C801 1.251 . S
O813 Eu783 2.374 1_554 S
O813 C801 1.251 . S
H814 C785 0.931 . S
H815 C786 0.931 . S
H816 C788 0.931 . S
H817 C789 0.931 . S
H818 C795 0.931 . S
H819 C796 0.931 . S
H820 C798 0.931 . S
H821 C799 0.931 . S
C822 Eu823 2.835 . S
C822 C824 1.500 . S
C822 O842 1.257 . S
C822 O843 1.260 . S
Eu823 C822 2.835 . S
Eu823 O842 2.473 . S
Eu823 O843 2.480 . S
Eu823 O844 2.430 . S
Eu823 O845 2.670 . S
Eu823 O846 2.394 . S
Eu823 O851 2.355 . S
Eu823 O853 2.374 . S
C824 C822 1.500 . S
C824 C825 1.377 . S
C824 C829 1.377 . S
C825 C824 1.377 . S
C825 C826 1.395 . S
C825 H854 0.931 . S
C826 C825 1.395 . S
C826 C827 1.383 . S
C826 H855 0.931 . S
C827 C826 1.383 . S
C827 C828 1.394 . S
C828 C827 1.394 . S
C828 C829 1.378 . S
C828 H856 0.931 . S
C829 C824 1.377 . S
C829 C828 1.378 . S
C829 H857 0.931 . S
C830 O844 1.259 . S
C830 O845 1.270 . S
C831 O846 1.251 . S
C831 O847 1.251 . S
C832 Eu833 2.835 . S
C832 C834 1.500 . S
C832 O848 1.257 . S
C832 O849 1.260 . S
Eu833 C832 2.835 . S
Eu833 O845 2.355 . S
Eu833 O847 2.374 . S
Eu833 O848 2.473 . S
Eu833 O849 2.480 . S
Eu833 O850 2.430 . S
Eu833 O851 2.670 . S
Eu833 O852 2.394 . S
C834 C832 1.500 . S
C834 C835 1.377 . S
C834 C839 1.377 . S
C835 C834 1.377 . S
C835 C836 1.395 . S
C835 H858 0.931 . S
C836 C835 1.395 . S
C836 C837 1.383 . S
C836 H859 0.931 . S
C837 C836 1.383 . S
C837 C838 1.394 . S
C838 C837 1.394 . S
C838 C839 1.378 . S
C838 H860 0.931 . S
C839 C834 1.377 . S
C839 C838 1.378 . S
C839 H861 0.931 . S
C840 O850 1.259 . S
C840 O851 1.270 . S
C841 O852 1.251 . S
C841 O853 1.251 . S
O842 C822 1.257 . S
O842 Eu823 2.473 . S
O843 C822 1.260 . S
O843 Eu823 2.480 . S
O844 Eu823 2.430 . S
O844 C830 1.259 . S
O845 Eu823 2.670 . S
O845 C830 1.270 . S
O845 Eu833 2.355 . S
O846 Eu823 2.394 . S
O846 C831 1.251 . S
O847 C831 1.251 . S
O847 Eu833 2.374 . S
O848 C832 1.257 . S
O848 Eu833 2.473 . S
O849 C832 1.260 . S
O849 Eu833 2.480 . S
O850 Eu833 2.430 . S
O850 C840 1.259 . S
O851 Eu823 2.355 . S
O851 Eu833 2.670 . S
O851 C840 1.270 . S
O852 Eu833 2.394 . S
O852 C841 1.251 . S
O853 Eu823 2.374 . S
O853 C841 1.251 . S
H854 C825 0.931 . S
H855 C826 0.931 . S
H856 C828 0.931 . S
H857 C829 0.931 . S
H858 C835 0.931 . S
H859 C836 0.931 . S
H860 C838 0.931 . S
H861 C839 0.931 . S
C862 Eu863 2.835 . S
C862 C864 1.500 . S
C862 O882 1.257 . S
C862 O883 1.260 . S
Eu863 C862 2.835 . S
Eu863 O882 2.473 . S
Eu863 O883 2.480 . S
Eu863 O884 2.430 . S
Eu863 O885 2.670 . S
Eu863 O886 2.394 . S
Eu863 O891 2.355 . S
Eu863 O893 2.374 . S
C864 C862 1.500 . S
C864 C865 1.377 . S
C864 C869 1.377 . S
C865 C864 1.377 . S
C865 C866 1.395 . S
C865 H894 0.931 . S
C866 C865 1.395 . S
C866 C867 1.383 . S
C866 H895 0.931 . S
C867 C866 1.383 . S
C867 C868 1.394 . S
C868 C867 1.394 . S
C868 C869 1.378 . S
C868 H896 0.931 . S
C869 C864 1.377 . S
C869 C868 1.378 . S
C869 H897 0.931 . S
C870 O884 1.259 . S
C870 O885 1.270 . S
C871 O886 1.251 . S
C871 O887 1.251 . S
C872 Eu873 2.835 . S
C872 C874 1.500 . S
C872 O888 1.257 . S
C872 O889 1.260 . S
Eu873 C872 2.835 . S
Eu873 O885 2.355 . S
Eu873 O887 2.374 . S
Eu873 O888 2.473 . S
Eu873 O889 2.480 . S
Eu873 O890 2.430 . S
Eu873 O891 2.670 . S
Eu873 O892 2.394 . S
C874 C872 1.500 . S
C874 C875 1.377 . S
C874 C879 1.377 . S
C875 C874 1.377 . S
C875 C876 1.395 . S
C875 H898 0.931 . S
C876 C875 1.395 . S
C876 C877 1.383 . S
C876 H899 0.931 . S
C877 C876 1.383 . S
C877 C878 1.394 . S
C878 C877 1.394 . S
C878 C879 1.378 . S
C878 H900 0.931 . S
C879 C874 1.377 . S
C879 C878 1.378 . S
C879 H901 0.931 . S
C880 O890 1.259 . S
C880 O891 1.270 . S
C881 O892 1.251 . S
C881 O893 1.251 . S
O882 C862 1.257 . S
O882 Eu863 2.473 . S
O883 C862 1.260 . S
O883 Eu863 2.480 . S
O884 Eu863 2.430 . S
O884 C870 1.259 . S
O885 Eu863 2.670 . S
O885 C870 1.270 . S
O885 Eu873 2.355 . S
O886 Eu863 2.394 . S
O886 C871 1.251 . S
O887 C871 1.251 . S
O887 Eu873 2.374 . S
O888 C872 1.257 . S
O888 Eu873 2.473 . S
O889 C872 1.260 . S
O889 Eu873 2.480 . S
O890 Eu873 2.430 . S
O890 C880 1.259 . S
O891 Eu863 2.355 . S
O891 Eu873 2.670 . S
O891 C880 1.270 . S
O892 Eu873 2.394 . S
O892 C881 1.251 . S
O893 Eu863 2.374 . S
O893 C881 1.251 . S
H894 C865 0.931 . S
H895 C866 0.931 . S
H896 C868 0.931 . S
H897 C869 0.931 . S
H898 C875 0.931 . S
H899 C876 0.931 . S
H900 C878 0.931 . S
H901 C879 0.931 . S
C902 Eu903 2.835 . S
C902 C904 1.500 . S
C902 O922 1.257 . S
C902 O923 1.260 . S
Eu903 C902 2.835 . S
Eu903 O922 2.473 . S
Eu903 O923 2.480 . S
Eu903 O924 2.430 . S
Eu903 O925 2.670 . S
Eu903 O926 2.394 . S
Eu903 O931 2.355 . S
Eu903 O933 2.374 . S
C904 C902 1.500 . S
C904 C905 1.377 . S
C904 C909 1.377 . S
C905 C904 1.377 . S
C905 C906 1.395 . S
C905 H934 0.931 . S
C906 C905 1.395 . S
C906 C907 1.383 . S
C906 H935 0.931 . S
C907 C906 1.383 . S
C907 C908 1.394 . S
C908 C907 1.394 . S
C908 C909 1.378 . S
C908 H936 0.931 . S
C909 C904 1.377 . S
C909 C908 1.378 . S
C909 H937 0.931 . S
C910 O924 1.259 . S
C910 O925 1.270 . S
C911 O926 1.251 . S
C911 O927 1.251 . S
C912 Eu913 2.835 . S
C912 C914 1.500 . S
C912 O928 1.257 . S
C912 O929 1.260 . S
Eu913 C912 2.835 . S
Eu913 O925 2.355 . S
Eu913 O927 2.374 . S
Eu913 O928 2.473 . S
Eu913 O929 2.480 . S
Eu913 O930 2.430 . S
Eu913 O931 2.670 . S
Eu913 O932 2.394 . S
C914 C912 1.500 . S
C914 C915 1.377 . S
C914 C919 1.377 . S
C915 C914 1.377 . S
C915 C916 1.395 . S
C915 H938 0.931 . S
C916 C915 1.395 . S
C916 C917 1.383 . S
C916 H939 0.931 . S
C917 C916 1.383 . S
C917 C918 1.394 . S
C918 C917 1.394 . S
C918 C919 1.378 . S
C918 H940 0.931 . S
C919 C914 1.377 . S
C919 C918 1.378 . S
C919 H941 0.931 . S
C920 O930 1.259 . S
C920 O931 1.270 . S
C921 O932 1.251 . S
C921 O933 1.251 . S
O922 C902 1.257 . S
O922 Eu903 2.473 . S
O923 C902 1.260 . S
O923 Eu903 2.480 . S
O924 Eu903 2.430 . S
O924 C910 1.259 . S
O925 Eu903 2.670 . S
O925 C910 1.270 . S
O925 Eu913 2.355 . S
O926 Eu903 2.394 . S
O926 C911 1.251 . S
O927 C911 1.251 . S
O927 Eu913 2.374 . S
O928 C912 1.257 . S
O928 Eu913 2.473 . S
O929 C912 1.260 . S
O929 Eu913 2.480 . S
O930 Eu913 2.430 . S
O930 C920 1.259 . S
O931 Eu903 2.355 . S
O931 Eu913 2.670 . S
O931 C920 1.270 . S
O932 Eu913 2.394 . S
O932 C921 1.251 . S
O933 Eu903 2.374 . S
O933 C921 1.251 . S
H934 C905 0.931 . S
H935 C906 0.931 . S
H936 C908 0.931 . S
H937 C909 0.931 . S
H938 C915 0.931 . S
H939 C916 0.931 . S
H940 C918 0.931 . S
H941 C919 0.931 . S
C942 Eu943 2.835 . S
C942 C944 1.500 . S
C942 O962 1.257 . S
C942 O963 1.260 . S
Eu943 C942 2.835 . S
Eu943 O962 2.473 . S
Eu943 O963 2.480 . S
Eu943 O964 2.430 . S
Eu943 O965 2.670 . S
Eu943 O966 2.394 . S
Eu943 O971 2.355 . S
Eu943 O973 2.374 . S
C944 C942 1.500 . S
C944 C945 1.377 . S
C944 C949 1.377 . S
C945 C944 1.377 . S
C945 C946 1.395 . S
C945 H974 0.931 . S
C946 C945 1.395 . S
C946 C947 1.383 . S
C946 H975 0.931 . S
C947 C946 1.383 . S
C947 C948 1.394 . S
C948 C947 1.394 . S
C948 C949 1.378 . S
C948 H976 0.931 . S
C949 C944 1.377 . S
C949 C948 1.378 . S
C949 H977 0.931 . S
C950 O964 1.259 . S
C950 O965 1.270 . S
C951 O966 1.251 . S
C951 O967 1.251 . S
C952 Eu953 2.835 . S
C952 C954 1.500 . S
C952 O968 1.257 . S
C952 O969 1.260 . S
Eu953 C952 2.835 . S
Eu953 O965 2.355 . S
Eu953 O967 2.374 . S
Eu953 O968 2.473 . S
Eu953 O969 2.480 . S
Eu953 O970 2.430 . S
Eu953 O971 2.670 . S
Eu953 O972 2.394 . S
C954 C952 1.500 . S
C954 C955 1.377 . S
C954 C959 1.377 . S
C955 C954 1.377 . S
C955 C956 1.395 . S
C955 H978 0.931 . S
C956 C955 1.395 . S
C956 C957 1.383 . S
C956 H979 0.931 . S
C957 C956 1.383 . S
C957 C958 1.394 . S
C958 C957 1.394 . S
C958 C959 1.378 . S
C958 H980 0.931 . S
C959 C954 1.377 . S
C959 C958 1.378 . S
C959 H981 0.931 . S
C960 O970 1.259 . S
C960 O971 1.270 . S
C961 O972 1.251 . S
C961 O973 1.251 . S
O962 C942 1.257 . S
O962 Eu943 2.473 . S
O963 C942 1.260 . S
O963 Eu943 2.480 . S
O964 Eu943 2.430 . S
O964 C950 1.259 . S
O965 Eu943 2.670 . S
O965 C950 1.270 . S
O965 Eu953 2.355 . S
O966 Eu943 2.394 . S
O966 C951 1.251 . S
O967 C951 1.251 . S
O967 Eu953 2.374 . S
O968 C952 1.257 . S
O968 Eu953 2.473 . S
O969 C952 1.260 . S
O969 Eu953 2.480 . S
O970 Eu953 2.430 . S
O970 C960 1.259 . S
O971 Eu943 2.355 . S
O971 Eu953 2.670 . S
O971 C960 1.270 . S
O972 Eu953 2.394 . S
O972 C961 1.251 . S
O973 Eu943 2.374 . S
O973 C961 1.251 . S
H974 C945 0.931 . S
H975 C946 0.931 . S
H976 C948 0.931 . S
H977 C949 0.931 . S
H978 C955 0.931 . S
H979 C956 0.931 . S
H980 C958 0.931 . S
H981 C959 0.931 . S
C982 Eu983 2.835 . S
C982 C984 1.500 . S
C982 O1002 1.257 . S
C982 O1003 1.260 . S
Eu983 C982 2.835 . S
Eu983 O1002 2.473 . S
Eu983 O1003 2.480 . S
Eu983 O1004 2.430 . S
Eu983 O1005 2.670 . S
Eu983 O1006 2.394 . S
Eu983 O1011 2.355 . S
Eu983 O1013 2.374 . S
C984 C982 1.500 . S
C984 C985 1.377 . S
C984 C989 1.377 . S
C985 C984 1.377 . S
C985 C986 1.395 . S
C985 H1014 0.931 . S
C986 C985 1.395 . S
C986 C987 1.383 . S
C986 H1015 0.931 . S
C987 C986 1.383 . S
C987 C988 1.394 . S
C988 C987 1.394 . S
C988 C989 1.378 . S
C988 H1016 0.931 . S
C989 C984 1.377 . S
C989 C988 1.378 . S
C989 H1017 0.931 . S
C990 O1004 1.259 . S
C990 O1005 1.270 . S
C991 O1006 1.251 . S
C991 O1007 1.251 . S
C992 Eu993 2.835 . S
C992 C994 1.500 . S
C992 O1008 1.257 . S
C992 O1009 1.260 . S
Eu993 C992 2.835 . S
Eu993 O1005 2.355 . S
Eu993 O1007 2.374 . S
Eu993 O1008 2.473 . S
Eu993 O1009 2.480 . S
Eu993 O1010 2.430 . S
Eu993 O1011 2.670 . S
Eu993 O1012 2.394 . S
C994 C992 1.500 . S
C994 C995 1.377 . S
C994 C999 1.377 . S
C995 C994 1.377 . S
C995 C996 1.395 . S
C995 H1018 0.931 . S
C996 C995 1.395 . S
C996 C997 1.383 . S
C996 H1019 0.931 . S
C997 C996 1.383 . S
C997 C998 1.394 . S
C998 C997 1.394 . S
C998 C999 1.378 . S
C998 H1020 0.931 . S
C999 C994 1.377 . S
C999 C998 1.378 . S
C999 H1021 0.931 . S
C1000 O1010 1.259 . S
C1000 O1011 1.270 . S
C1001 O1012 1.251 . S
C1001 O1013 1.251 . S
O1002 C982 1.257 . S
O1002 Eu983 2.473 . S
O1003 C982 1.260 . S
O1003 Eu983 2.480 . S
O1004 Eu983 2.430 . S
O1004 C990 1.259 . S
O1005 Eu983 2.670 . S
O1005 C990 1.270 . S
O1005 Eu993 2.355 . S
O1006 Eu983 2.394 . S
O1006 C991 1.251 . S
O1007 C991 1.251 . S
O1007 Eu993 2.374 . S
O1008 C992 1.257 . S
O1008 Eu993 2.473 . S
O1009 C992 1.260 . S
O1009 Eu993 2.480 . S
O1010 Eu993 2.430 . S
O1010 C1000 1.259 . S
O1011 Eu983 2.355 . S
O1011 Eu993 2.670 . S
O1011 C1000 1.270 . S
O1012 Eu993 2.394 . S
O1012 C1001 1.251 . S
O1013 Eu983 2.374 . S
O1013 C1001 1.251 . S
H1014 C985 0.931 . S
H1015 C986 0.931 . S
H1016 C988 0.931 . S
H1017 C989 0.931 . S
H1018 C995 0.931 . S
H1019 C996 0.931 . S
H1020 C998 0.931 . S
H1021 C999 0.931 . S
C1022 Eu1023 2.835 . S
C1022 C1024 1.500 . S
C1022 O1042 1.257 . S
C1022 O1043 1.260 . S
Eu1023 C1022 2.835 . S
Eu1023 O1042 2.473 . S
Eu1023 O1043 2.480 . S
Eu1023 O1044 2.430 . S
Eu1023 O1045 2.670 . S
Eu1023 O1046 2.394 . S
Eu1023 O1051 2.355 . S
Eu1023 O1053 2.374 . S
C1024 C1022 1.500 . S
C1024 C1025 1.377 . S
C1024 C1029 1.377 . S
C1025 C1024 1.377 . S
C1025 C1026 1.395 . S
C1025 H1054 0.931 . S
C1026 C1025 1.395 . S
C1026 C1027 1.383 . S
C1026 H1055 0.931 . S
C1027 C1026 1.383 . S
C1027 C1028 1.394 . S
C1028 C1027 1.394 . S
C1028 C1029 1.378 . S
C1028 H1056 0.931 . S
C1029 C1024 1.377 . S
C1029 C1028 1.378 . S
C1029 H1057 0.931 . S
C1030 O1044 1.259 . S
C1030 O1045 1.270 . S
C1031 O1046 1.251 . S
C1031 O1047 1.251 . S
C1032 Eu1033 2.835 . S
C1032 C1034 1.500 . S
C1032 O1048 1.257 . S
C1032 O1049 1.260 . S
Eu1033 C1032 2.835 . S
Eu1033 O1045 2.355 . S
Eu1033 O1047 2.374 . S
Eu1033 O1048 2.473 . S
Eu1033 O1049 2.480 . S
Eu1033 O1050 2.430 . S
Eu1033 O1051 2.670 . S
Eu1033 O1052 2.394 . S
C1034 C1032 1.500 . S
C1034 C1035 1.377 . S
C1034 C1039 1.377 . S
C1035 C1034 1.377 . S
C1035 C1036 1.395 . S
C1035 H1058 0.931 . S
C1036 C1035 1.395 . S
C1036 C1037 1.383 . S
C1036 H1059 0.931 . S
C1037 C1036 1.383 . S
C1037 C1038 1.394 . S
C1038 C1037 1.394 . S
C1038 C1039 1.378 . S
C1038 H1060 0.931 . S
C1039 C1034 1.377 . S
C1039 C1038 1.378 . S
C1039 H1061 0.931 . S
C1040 O1050 1.259 . S
C1040 O1051 1.270 . S
C1041 O1052 1.251 . S
C1041 O1053 1.251 . S
O1042 C1022 1.257 . S
O1042 Eu1023 2.473 . S
O1043 C1022 1.260 . S
O1043 Eu1023 2.480 . S
O1044 Eu1023 2.430 . S
O1044 C1030 1.259 . S
O1045 Eu1023 2.670 . S
O1045 C1030 1.270 . S
O1045 Eu1033 2.355 . S
O1046 Eu1023 2.394 . S
O1046 C1031 1.251 . S
O1047 C1031 1.251 . S
O1047 Eu1033 2.374 . S
O1048 C1032 1.257 . S
O1048 Eu1033 2.473 . S
O1049 C1032 1.260 . S
O1049 Eu1033 2.480 . S
O1050 Eu1033 2.430 . S
O1050 C1040 1.259 . S
O1051 Eu1023 2.355 . S
O1051 Eu1033 2.670 . S
O1051 C1040 1.270 . S
O1052 Eu1033 2.394 . S
O1052 C1041 1.251 . S
O1053 Eu1023 2.374 . S
O1053 C1041 1.251 . S
H1054 C1025 0.931 . S
H1055 C1026 0.931 . S
H1056 C1028 0.931 . S
H1057 C1029 0.931 . S
H1058 C1035 0.931 . S
H1059 C1036 0.931 . S
H1060 C1038 0.931 . S
H1061 C1039 0.931 . S
C1062 C1063 1.391 . S
C1062 C1064 1.394 . S
C1062 H1078 0.931 . S
C1063 C1062 1.391 . S
C1063 C1067 1.376 . S
C1064 C1062 1.394 . S
C1064 C1065 1.369 . S
C1064 C1068 1.531 . S
C1065 C1064 1.369 . S
C1065 C1066 1.410 . S
C1065 C1073 1.503 . S
C1066 C1065 1.410 . S
C1066 C1067 1.392 . S
C1066 C1069 1.511 . S
C1067 C1063 1.376 . S
C1067 C1066 1.392 . S
C1067 H1079 0.929 . S
C1068 C1064 1.531 . S
C1068 H1080 0.960 . S
C1068 H1081 0.962 . S
C1068 H1082 0.960 . S
C1069 C1066 1.511 . S
C1069 H1083 0.961 . S
C1069 H1084 0.961 . S
C1069 H1085 0.961 . S
C1070 C1071 1.370 . S
C1070 C1072 1.363 . S
C1070 H1086 0.931 . S
C1071 C1070 1.370 . S
C1071 C1075 1.408 . S
C1072 C1070 1.363 . S
C1072 C1073 1.370 . S
C1072 C1076 1.524 . S
C1073 C1065 1.503 . S
C1073 C1072 1.370 . S
C1073 C1074 1.403 . S
C1074 C1073 1.403 . S
C1074 C1075 1.404 . S
C1074 C1077 1.539 . S
C1075 C1071 1.408 . S
C1075 C1074 1.404 . S
C1075 H1087 0.930 . S
C1076 C1072 1.524 . S
C1076 H1088 0.956 . S
C1076 H1089 0.961 . S
C1076 H1090 0.896 1_554 S
C1077 C1074 1.539 . S
C1077 H1091 0.958 . S
C1077 H1092 0.961 . S
C1077 H1093 0.960 . S
H1078 C1062 0.931 . S
H1079 C1067 0.929 . S
H1080 C1068 0.960 . S
H1081 C1068 0.962 . S
H1082 C1068 0.960 . S
H1083 C1069 0.961 . S
H1084 C1069 0.961 . S
H1085 C1069 0.961 . S
H1086 C1070 0.931 . S
H1087 C1075 0.930 . S
H1088 C1076 0.956 . S
H1089 C1076 0.961 . S
H1090 C1076 0.896 1_556 S
H1091 C1077 0.958 . S
H1092 C1077 0.961 . S
H1093 C1077 0.960 . S
C1094 C1095 1.391 . S
C1094 C1096 1.394 . S
C1094 H1110 0.931 . S
C1095 C1094 1.391 . S
C1095 C1099 1.376 . S
C1096 C1094 1.394 . S
C1096 C1097 1.369 . S
C1096 C1100 1.531 . S
C1097 C1096 1.369 . S
C1097 C1098 1.410 . S
C1097 C1105 1.503 . S
C1098 C1097 1.410 . S
C1098 C1099 1.392 . S
C1098 C1101 1.511 . S
C1099 C1095 1.376 . S
C1099 C1098 1.392 . S
C1099 H1111 0.929 . S
C1100 C1096 1.531 . S
C1100 H1112 0.960 . S
C1100 H1113 0.962 . S
C1100 H1114 0.960 . S
C1101 C1098 1.511 . S
C1101 H1115 0.961 . S
C1101 H1116 0.961 . S
C1101 H1117 0.961 . S
C1102 C1103 1.370 . S
C1102 C1104 1.363 . S
C1102 H1118 0.931 . S
C1103 C1102 1.370 . S
C1103 C1107 1.408 . S
C1104 C1102 1.363 . S
C1104 C1105 1.370 . S
C1104 C1108 1.524 . S
C1105 C1097 1.503 . S
C1105 C1104 1.370 . S
C1105 C1106 1.403 . S
C1106 C1105 1.403 . S
C1106 C1107 1.404 . S
C1106 C1109 1.539 . S
C1107 C1103 1.408 . S
C1107 C1106 1.404 . S
C1107 H1119 0.930 . S
C1108 C1104 1.524 . S
C1108 H1120 0.956 . S
C1108 H1121 0.961 . S
C1108 H1122 0.961 . S
C1109 C1106 1.539 . S
C1109 H1123 0.958 . S
C1109 H1124 0.961 1_554 S
C1109 H1125 0.960 . S
H1110 C1094 0.931 . S
H1111 C1099 0.929 . S
H1112 C1100 0.960 . S
H1113 C1100 0.962 . S
H1114 C1100 0.960 . S
H1115 C1101 0.961 . S
H1116 C1101 0.961 . S
H1117 C1101 0.961 . S
H1118 C1102 0.931 . S
H1119 C1107 0.930 . S
H1120 C1108 0.956 . S
H1121 C1108 0.961 . S
H1122 C1108 0.961 . S
H1123 C1109 0.958 . S
H1124 C1109 0.961 1_556 S
H1125 C1109 0.960 . S
C1126 C1127 1.391 . S
C1126 C1128 1.394 . S
C1126 H1142 0.931 . S
C1127 C1126 1.391 . S
C1127 C1131 1.376 . S
C1128 C1126 1.394 . S
C1128 C1129 1.369 . S
C1128 C1132 1.531 . S
C1129 C1128 1.369 . S
C1129 C1130 1.410 . S
C1129 C1137 1.503 . S
C1130 C1129 1.410 . S
C1130 C1131 1.392 . S
C1130 C1133 1.511 . S
C1131 C1127 1.376 . S
C1131 C1130 1.392 . S
C1131 H1143 0.929 . S
C1132 C1128 1.531 . S
C1132 H1144 0.960 . S
C1132 H1145 0.962 . S
C1132 H1146 0.960 . S
C1133 C1130 1.511 . S
C1133 H1147 0.961 . S
C1133 H1148 0.961 . S
C1133 H1149 0.961 . S
C1134 C1135 1.370 . S
C1134 C1136 1.363 . S
C1134 H1150 0.931 . S
C1135 C1134 1.370 . S
C1135 C1139 1.408 . S
C1136 C1134 1.363 . S
C1136 C1137 1.370 . S
C1136 C1140 1.524 . S
C1137 C1129 1.503 . S
C1137 C1136 1.370 . S
C1137 C1138 1.403 . S
C1138 C1137 1.403 . S
C1138 C1139 1.404 . S
C1138 C1141 1.539 1_554 S
C1139 C1135 1.408 . S
C1139 C1138 1.404 . S
C1139 H1151 0.930 1_554 S
C1140 C1136 1.524 . S
C1140 H1152 0.956 . S
C1140 H1153 0.961 . S
C1140 H1154 0.961 . S
C1141 C1138 1.539 1_556 S
C1141 H1155 0.958 . S
C1141 H1156 0.961 . S
C1141 H1157 0.960 . S
H1142 C1126 0.931 . S
H1143 C1131 0.929 . S
H1144 C1132 0.960 . S
H1145 C1132 0.962 . S
H1146 C1132 0.960 . S
H1147 C1133 0.961 . S
H1148 C1133 0.961 . S
H1149 C1133 0.961 . S
H1150 C1134 0.931 . S
H1151 C1139 0.930 1_556 S
H1152 C1140 0.956 . S
H1153 C1140 0.961 . S
H1154 C1140 0.961 . S
H1155 C1141 0.958 . S
H1156 C1141 0.961 . S
H1157 C1141 0.960 . S
C1158 C1159 1.391 . S
C1158 C1160 1.394 . S
C1158 H1174 0.931 . S
C1159 C1158 1.391 . S
C1159 C1163 1.376 . S
C1160 C1158 1.394 . S
C1160 C1161 1.369 . S
C1160 C1164 1.531 . S
C1161 C1160 1.369 . S
C1161 C1162 1.410 . S
C1161 C1169 1.503 . S
C1162 C1161 1.410 . S
C1162 C1163 1.392 . S
C1162 C1165 1.511 . S
C1163 C1159 1.376 . S
C1163 C1162 1.392 . S
C1163 H1175 0.929 . S
C1164 C1160 1.531 . S
C1164 H1176 0.960 . S
C1164 H1177 0.962 . S
C1164 H1178 0.960 . S
C1165 C1162 1.511 . S
C1165 H1179 0.961 . S
C1165 H1180 0.961 . S
C1165 H1181 0.961 . S
C1166 C1167 1.370 1_554 S
C1166 C1168 1.363 1_554 S
C1166 H1182 0.931 . S
C1167 C1166 1.370 1_556 S
C1167 C1171 1.408 . S
C1168 C1166 1.363 1_556 S
C1168 C1169 1.370 . S
C1168 C1172 1.524 1_556 S
C1169 C1161 1.503 . S
C1169 C1168 1.370 . S
C1169 C1170 1.403 . S
C1170 C1169 1.403 . S
C1170 C1171 1.404 . S
C1170 C1173 1.539 . S
C1171 C1167 1.408 . S
C1171 C1170 1.404 . S
C1171 H1183 0.930 . S
C1172 C1168 1.524 1_554 S
C1172 H1184 0.956 . S
C1172 H1185 0.961 . S
C1172 H1186 0.961 . S
C1173 C1170 1.539 . S
C1173 H1187 0.958 . S
C1173 H1188 0.961 . S
C1173 H1189 0.960 . S
H1174 C1158 0.931 . S
H1175 C1163 0.929 . S
H1176 C1164 0.960 . S
H1177 C1164 0.962 . S
H1178 C1164 0.960 . S
H1179 C1165 0.961 . S
H1180 C1165 0.961 . S
H1181 C1165 0.961 . S
H1182 C1166 0.931 . S
H1183 C1171 0.930 . S
H1184 C1172 0.956 . S
H1185 C1172 0.961 . S
H1186 C1172 0.961 . S
H1187 C1173 0.958 . S
H1188 C1173 0.961 . S
H1189 C1173 0.960 . S
C1190 C1191 1.391 . S
C1190 C1192 1.394 . S
C1190 H1206 0.931 . S
C1191 C1190 1.391 . S
C1191 C1195 1.376 . S
C1192 C1190 1.394 . S
C1192 C1193 1.369 . S
C1192 C1196 1.531 . S
C1193 C1192 1.369 . S
C1193 C1194 1.410 . S
C1193 C1201 1.503 . S
C1194 C1193 1.410 . S
C1194 C1195 1.392 . S
C1194 C1197 1.511 . S
C1195 C1191 1.376 . S
C1195 C1194 1.392 . S
C1195 H1207 0.929 . S
C1196 C1192 1.531 . S
C1196 H1208 0.960 . S
C1196 H1209 0.962 . S
C1196 H1210 0.960 . S
C1197 C1194 1.511 . S
C1197 H1211 0.961 . S
C1197 H1212 0.961 . S
C1197 H1213 0.961 . S
C1198 C1199 1.370 . S
C1198 C1200 1.363 . S
C1198 H1214 0.931 . S
C1199 C1198 1.370 . S
C1199 C1203 1.408 . S
C1200 C1198 1.363 . S
C1200 C1201 1.370 . S
C1200 C1204 1.524 . S
C1201 C1193 1.503 . S
C1201 C1200 1.370 . S
C1201 C1202 1.403 . S
C1202 C1201 1.403 . S
C1202 C1203 1.404 . S
C1202 C1205 1.539 . S
C1203 C1199 1.408 . S
C1203 C1202 1.404 . S
C1203 H1215 0.930 . S
C1204 C1200 1.524 . S
C1204 H1216 0.956 . S
C1204 H1217 0.961 . S
C1204 H1218 0.961 . S
C1205 C1202 1.539 . S
C1205 H1219 0.958 . S
C1205 H1220 0.961 . S
C1205 H1221 0.960 . S
H1206 C1190 0.931 . S
H1207 C1195 0.929 . S
H1208 C1196 0.960 . S
H1209 C1196 0.962 . S
H1210 C1196 0.960 . S
H1211 C1197 0.961 . S
H1212 C1197 0.961 . S
H1213 C1197 0.961 . S
H1214 C1198 0.931 . S
H1215 C1203 0.930 . S
H1216 C1204 0.956 . S
H1217 C1204 0.961 . S
H1218 C1204 0.961 . S
H1219 C1205 0.958 . S
H1220 C1205 0.961 . S
H1221 C1205 0.960 . S
C1222 C1223 1.391 . S
C1222 C1224 1.394 . S
C1222 H1238 0.931 . S
C1223 C1222 1.391 . S
C1223 C1227 1.376 . S
C1224 C1222 1.394 . S
C1224 C1225 1.369 . S
C1224 C1228 1.531 . S
C1225 C1224 1.369 . S
C1225 C1226 1.410 . S
C1225 C1233 1.503 . S
C1226 C1225 1.410 . S
C1226 C1227 1.392 . S
C1226 C1229 1.511 . S
C1227 C1223 1.376 . S
C1227 C1226 1.392 . S
C1227 H1239 0.929 . S
C1228 C1224 1.531 . S
C1228 H1240 0.960 . S
C1228 H1241 0.962 1_556 S
C1228 H1242 0.960 . S
C1229 C1226 1.511 . S
C1229 H1243 0.961 . S
C1229 H1244 0.961 . S
C1229 H1245 0.961 . S
C1230 C1231 1.370 1_554 S
C1230 C1232 1.369 . S
C1230 H1246 0.931 . S
C1231 C1230 1.370 1_556 S
C1231 C1235 1.408 . S
C1232 C1230 1.369 . S
C1232 C1233 1.352 1_554 S
C1232 C1236 1.537 . S
C1233 C1225 1.503 . S
C1233 C1232 1.352 1_556 S
C1233 C1234 1.403 . S
C1234 C1233 1.403 . S
C1234 C1235 1.404 . S
C1234 C1237 1.539 . S
C1235 C1231 1.408 . S
C1235 C1234 1.404 . S
C1235 H1247 0.930 . S
C1236 C1232 1.537 . S
C1236 H1248 0.956 . S
C1236 H1249 0.961 . S
C1236 H1250 0.961 . S
C1237 C1234 1.539 . S
C1237 H1251 0.958 . S
C1237 H1252 0.961 . S
C1237 H1253 0.960 . S
H1238 C1222 0.931 . S
H1239 C1227 0.929 . S
H1240 C1228 0.960 . S
H1241 C1228 0.962 1_554 S
H1242 C1228 0.960 . S
H1243 C1229 0.961 . S
H1244 C1229 0.961 . S
H1245 C1229 0.961 . S
H1246 C1230 0.931 . S
H1247 C1235 0.930 . S
H1248 C1236 0.956 . S
H1249 C1236 0.961 . S
H1250 C1236 0.961 . S
H1251 C1237 0.958 . S
H1252 C1237 0.961 . S
H1253 C1237 0.960 . S
C1254 C1255 1.391 . S
C1254 C1256 1.394 . S
C1254 H1270 0.931 . S
C1255 C1254 1.391 . S
C1255 C1259 1.376 . S
C1256 C1254 1.394 . S
C1256 C1257 1.369 . S
C1256 C1260 1.531 . S
C1257 C1256 1.369 . S
C1257 C1258 1.410 . S
C1257 C1265 1.503 . S
C1258 C1257 1.410 . S
C1258 C1259 1.392 . S
C1258 C1261 1.511 . S
C1259 C1255 1.376 . S
C1259 C1258 1.392 . S
C1259 H1271 0.929 . S
C1260 C1256 1.531 . S
C1260 H1272 0.960 . S
C1260 H1273 0.962 . S
C1260 H1274 0.960 . S
C1261 C1258 1.511 . S
C1261 H1275 0.961 . S
C1261 H1276 0.961 . S
C1261 H1277 0.961 . S
C1262 C1263 1.370 . S
C1262 C1264 1.363 . S
C1262 H1278 0.931 1_556 S
C1263 C1262 1.370 . S
C1263 C1267 1.408 . S
C1264 C1262 1.363 . S
C1264 C1265 1.370 . S
C1264 C1268 1.524 . S
C1265 C1257 1.503 . S
C1265 C1264 1.370 . S
C1265 C1266 1.403 . S
C1266 C1265 1.403 . S
C1266 C1267 1.404 . S
C1266 C1269 1.539 . S
C1267 C1263 1.408 . S
C1267 C1266 1.404 . S
C1267 H1279 0.930 . S
C1268 C1264 1.524 . S
C1268 H1280 0.956 . S
C1268 H1281 0.961 1_556 S
C1268 H1282 0.961 1_556 S
C1269 C1266 1.539 . S
C1269 H1283 0.958 . S
C1269 H1284 0.961 . S
C1269 H1285 0.960 . S
H1270 C1254 0.931 . S
H1271 C1259 0.929 . S
H1272 C1260 0.960 . S
H1273 C1260 0.962 . S
H1274 C1260 0.960 . S
H1275 C1261 0.961 . S
H1276 C1261 0.961 . S
H1277 C1261 0.961 . S
H1278 C1262 0.931 1_554 S
H1279 C1267 0.930 . S
H1280 C1268 0.956 . S
H1281 C1268 0.961 1_554 S
H1282 C1268 0.961 1_554 S
H1283 C1269 0.958 . S
H1284 C1269 0.961 . S
H1285 C1269 0.960 . S
C1286 C1287 1.391 . S
C1286 C1288 1.394 . S
C1286 H1302 0.931 . S
C1287 C1286 1.391 . S
C1287 C1291 1.376 . S
C1288 C1286 1.394 . S
C1288 C1289 1.369 . S
C1288 C1292 1.531 . S
C1289 C1288 1.369 . S
C1289 C1290 1.410 . S
C1289 C1297 1.503 . S
C1290 C1289 1.410 . S
C1290 C1291 1.392 . S
C1290 C1293 1.511 . S
C1291 C1287 1.376 . S
C1291 C1290 1.392 . S
C1291 H1303 0.929 . S
C1292 C1288 1.531 . S
C1292 H1304 0.960 . S
C1292 H1305 0.962 . S
C1292 H1306 0.960 . S
C1293 C1290 1.511 . S
C1293 H1307 0.961 . S
C1293 H1308 0.961 . S
C1293 H1309 0.961 . S
C1294 C1295 1.370 . S
C1294 C1296 1.363 . S
C1294 H1310 0.931 . S
C1295 C1294 1.370 . S
C1295 C1299 1.408 . S
C1296 C1294 1.363 . S
C1296 C1297 1.370 . S
C1296 C1300 1.524 . S
C1297 C1289 1.503 . S
C1297 C1296 1.370 . S
C1297 C1298 1.403 . S
C1298 C1297 1.403 . S
C1298 C1299 1.404 . S
C1298 C1301 1.539 1_556 S
C1299 C1295 1.408 . S
C1299 C1298 1.404 . S
C1299 H1311 0.930 1_556 S
C1300 C1296 1.524 . S
C1300 H1312 0.956 . S
C1300 H1313 0.961 . S
C1300 H1314 0.961 . S
C1301 C1298 1.539 1_554 S
C1301 H1315 0.958 . S
C1301 H1316 0.961 . S
C1301 H1317 0.960 . S
H1302 C1286 0.931 . S
H1303 C1291 0.929 . S
H1304 C1292 0.960 . S
H1305 C1292 0.962 . S
H1306 C1292 0.960 . S
H1307 C1293 0.961 . S
H1308 C1293 0.961 . S
H1309 C1293 0.961 . S
H1310 C1294 0.931 . S
H1311 C1299 0.930 1_554 S
H1312 C1300 0.956 . S
H1313 C1300 0.961 . S
H1314 C1300 0.961 . S
H1315 C1301 0.958 . S
H1316 C1301 0.961 . S
H1317 C1301 0.960 . S
C1318 C1319 1.391 . S
C1318 C1320 1.394 . S
C1318 H1334 0.931 . S
C1319 C1318 1.391 . S
C1319 C1323 1.376 . S
C1320 C1318 1.394 . S
C1320 C1321 1.369 . S
C1320 C1324 1.531 . S
C1321 C1320 1.369 . S
C1321 C1322 1.410 . S
C1321 C1329 1.503 . S
C1322 C1321 1.410 . S
C1322 C1323 1.392 . S
C1322 C1325 1.511 1_556 S
C1323 C1319 1.376 . S
C1323 C1322 1.392 . S
C1323 H1335 0.929 1_556 S
C1324 C1320 1.531 . S
C1324 H1336 0.960 . S
C1324 H1337 0.962 . S
C1324 H1338 0.960 . S
C1325 C1322 1.511 1_554 S
C1325 H1339 0.961 . S
C1325 H1340 0.961 . S
C1325 H1341 0.961 . S
C1326 C1327 1.370 . S
C1326 C1328 1.363 . S
C1326 H1342 0.931 . S
C1327 C1326 1.370 . S
C1327 C1331 1.408 . S
C1328 C1326 1.363 . S
C1328 C1329 1.370 . S
C1328 C1332 1.524 . S
C1329 C1321 1.503 . S
C1329 C1328 1.370 . S
C1329 C1330 1.403 . S
C1330 C1329 1.403 . S
C1330 C1331 1.404 . S
C1330 C1333 1.539 . S
C1331 C1327 1.408 . S
C1331 C1330 1.404 . S
C1331 H1343 0.939 . S
C1332 C1328 1.524 . S
C1332 H1344 0.956 . S
C1332 H1345 0.961 . S
C1332 H1346 0.961 . S
C1333 C1330 1.539 . S
C1333 H1347 0.958 . S
C1333 H1348 0.961 1_556 S
C1333 H1349 0.960 1_556 S
H1334 C1318 0.931 . S
H1335 C1323 0.929 1_554 S
H1336 C1324 0.960 . S
H1337 C1324 0.962 . S
H1338 C1324 0.960 . S
H1339 C1325 0.961 . S
H1340 C1325 0.961 . S
H1341 C1325 0.961 . S
H1342 C1326 0.931 . S
H1343 C1331 0.939 . S
H1344 C1332 0.956 . S
H1345 C1332 0.961 . S
H1346 C1332 0.961 . S
H1347 C1333 0.958 . S
H1348 C1333 0.961 1_554 S
H1349 C1333 0.960 1_554 S
C1350 C1351 1.391 . S
C1350 C1352 1.394 . S
C1350 H1366 0.931 . S
C1351 C1350 1.391 . S
C1351 C1355 1.376 . S
C1352 C1350 1.394 . S
C1352 C1353 1.369 . S
C1352 C1356 1.531 . S
C1353 C1352 1.369 . S
C1353 C1354 1.410 . S
C1353 C1361 1.503 . S
C1354 C1353 1.410 . S
C1354 C1355 1.392 . S
C1354 C1357 1.511 . S
C1355 C1351 1.376 . S
C1355 C1354 1.392 . S
C1355 H1367 0.929 . S
C1356 C1352 1.531 . S
C1356 H1368 0.960 . S
C1356 H1369 0.962 . S
C1356 H1370 0.960 . S
C1357 C1354 1.511 . S
C1357 H1371 0.961 1_554 S
C1357 H1372 0.961 . S
C1357 H1373 0.961 1_554 S
C1358 C1359 1.370 . S
C1358 C1360 1.363 . S
C1358 H1374 0.931 . S
C1359 C1358 1.370 . S
C1359 C1363 1.408 . S
C1360 C1358 1.363 . S
C1360 C1361 1.370 . S
C1360 C1364 1.524 . S
C1361 C1353 1.503 . S
C1361 C1360 1.370 . S
C1361 C1362 1.403 . S
C1362 C1361 1.403 . S
C1362 C1363 1.404 . S
C1362 C1365 1.539 . S
C1363 C1359 1.408 . S
C1363 C1362 1.404 . S
C1363 H1375 0.930 . S
C1364 C1360 1.524 . S
C1364 H1376 0.956 . S
C1364 H1377 0.961 . S
C1364 H1378 0.961 . S
C1365 C1362 1.539 . S
C1365 H1379 0.958 . S
C1365 H1380 0.961 . S
C1365 H1381 0.960 . S
H1366 C1350 0.931 . S
H1367 C1355 0.929 . S
H1368 C1356 0.960 . S
H1369 C1356 0.962 . S
H1370 C1356 0.960 . S
H1371 C1357 0.961 1_556 S
H1372 C1357 0.961 . S
H1373 C1357 0.961 1_556 S
H1374 C1358 0.931 . S
H1375 C1363 0.930 . S
H1376 C1364 0.956 . S
H1377 C1364 0.961 . S
H1378 C1364 0.961 . S
H1379 C1365 0.958 . S
H1380 C1365 0.961 . S
H1381 C1365 0.960 . S
C1382 C1383 1.391 . S
C1382 C1384 1.394 . S
C1382 H1398 0.931 . S
C1383 C1382 1.391 . S
C1383 C1387 1.376 . S
C1384 C1382 1.394 . S
C1384 C1385 1.369 . S
C1384 C1388 1.531 . S
C1385 C1384 1.369 . S
C1385 C1386 1.410 . S
C1385 C1393 1.503 . S
C1386 C1385 1.410 . S
C1386 C1387 1.392 . S
C1386 C1389 1.511 . S
C1387 C1383 1.376 . S
C1387 C1386 1.392 . S
C1387 H1399 0.929 . S
C1388 C1384 1.531 . S
C1388 H1400 0.960 . S
C1388 H1401 0.962 . S
C1388 H1402 0.960 . S
C1389 C1386 1.511 . S
C1389 H1403 0.961 . S
C1389 H1404 0.961 . S
C1389 H1405 0.961 . S
C1390 C1391 1.370 . S
C1390 C1392 1.363 . S
C1390 H1406 0.931 . S
C1391 C1390 1.370 . S
C1391 C1395 1.408 . S
C1392 C1390 1.363 . S
C1392 C1393 1.370 . S
C1392 C1396 1.524 . S
C1393 C1385 1.503 . S
C1393 C1392 1.370 . S
C1393 C1394 1.403 . S
C1394 C1393 1.403 . S
C1394 C1395 1.404 . S
C1394 C1397 1.539 . S
C1395 C1391 1.408 . S
C1395 C1394 1.404 . S
C1395 H1407 0.930 . S
C1396 C1392 1.524 . S
C1396 H1408 0.956 . S
C1396 H1409 0.961 . S
C1396 H1410 0.961 . S
C1397 C1394 1.539 . S
C1397 H1411 0.958 . S
C1397 H1412 0.961 . S
C1397 H1413 0.960 . S
H1398 C1382 0.931 . S
H1399 C1387 0.929 . S
H1400 C1388 0.960 . S
H1401 C1388 0.962 . S
H1402 C1388 0.960 . S
H1403 C1389 0.961 . S
H1404 C1389 0.961 . S
H1405 C1389 0.961 . S
H1406 C1390 0.931 . S
H1407 C1395 0.930 . S
H1408 C1396 0.956 . S
H1409 C1396 0.961 . S
H1410 C1396 0.961 . S
H1411 C1397 0.958 . S
H1412 C1397 0.961 . S
H1413 C1397 0.960 . S
C1414 C1415 1.391 . S
C1414 C1416 1.394 . S
C1414 H1430 0.931 . S
C1415 C1414 1.391 . S
C1415 C1419 1.376 . S
C1416 C1414 1.394 . S
C1416 C1417 1.369 . S
C1416 C1420 1.531 . S
C1417 C1416 1.369 . S
C1417 C1418 1.410 . S
C1417 C1425 1.503 . S
C1418 C1417 1.410 . S
C1418 C1419 1.392 . S
C1418 C1421 1.511 . S
C1419 C1415 1.376 . S
C1419 C1418 1.392 . S
C1419 H1431 0.929 . S
C1420 C1416 1.531 . S
C1420 H1432 0.960 . S
C1420 H1433 0.962 . S
C1420 H1434 0.960 . S
C1421 C1418 1.511 . S
C1421 H1435 0.961 . S
C1421 H1436 0.961 . S
C1421 H1437 0.961 . S
C1422 C1423 1.370 . S
C1422 C1424 1.363 . S
C1422 H1438 0.880 1_554 S
C1423 C1422 1.370 . S
C1423 C1427 1.408 . S
C1424 C1422 1.363 . S
C1424 C1425 1.370 . S
C1424 C1428 1.524 . S
C1425 C1417 1.503 . S
C1425 C1424 1.370 . S
C1425 C1426 1.403 . S
C1426 C1425 1.403 . S
C1426 C1427 1.404 . S
C1426 C1429 1.539 . S
C1427 C1423 1.408 . S
C1427 C1426 1.404 . S
C1427 H1439 0.930 . S
C1428 C1424 1.524 . S
C1428 H1440 0.956 . S
C1428 H1441 0.951 1_554 S
C1428 H1442 0.961 1_554 S
C1429 C1426 1.539 . S
C1429 H1443 0.958 . S
C1429 H1444 0.961 . S
C1429 H1445 0.960 . S
H1430 C1414 0.931 . S
H1431 C1419 0.929 . S
H1432 C1420 0.960 . S
H1433 C1420 0.962 . S
H1434 C1420 0.960 . S
H1435 C1421 0.961 . S
H1436 C1421 0.961 . S
H1437 C1421 0.961 . S
H1438 C1422 0.880 1_556 S
H1439 C1427 0.930 . S
H1440 C1428 0.956 . S
H1441 C1428 0.951 1_556 S
H1442 C1428 0.961 1_556 S
H1443 C1429 0.958 . S
H1444 C1429 0.961 . S
H1445 C1429 0.960 . S
C1446 C1447 1.391 . S
C1446 C1448 1.394 1_655 S
C1446 H1462 0.931 . S
C1447 C1446 1.391 . S
C1447 C1451 1.376 . S
C1448 C1446 1.394 1_455 S
C1448 C1449 1.369 . S
C1448 C1452 1.531 . S
C1449 C1448 1.369 . S
C1449 C1450 1.410 . S
C1449 C1457 1.503 . S
C1450 C1449 1.410 . S
C1450 C1451 1.392 1_455 S
C1450 C1453 1.511 . S
C1451 C1447 1.376 . S
C1451 C1450 1.392 1_655 S
C1451 H1463 0.929 . S
C1452 C1448 1.531 . S
C1452 H1464 0.960 . S
C1452 H1465 0.962 . S
C1452 H1466 0.960 . S
C1453 C1450 1.511 . S
C1453 H1467 0.961 . S
C1453 H1468 0.961 . S
C1453 H1469 0.961 . S
C1454 C1455 1.370 . S
C1454 C1456 1.363 . S
C1454 H1470 0.931 . S
C1455 C1454 1.370 . S
C1455 C1459 1.408 . S
C1456 C1454 1.363 . S
C1456 C1457 1.370 . S
C1456 C1460 1.524 . S
C1457 C1449 1.503 . S
C1457 C1456 1.370 . S
C1457 C1458 1.403 . S
C1458 C1457 1.403 . S
C1458 C1459 1.404 . S
C1458 C1461 1.539 . S
C1459 C1455 1.408 . S
C1459 C1458 1.404 . S
C1459 H1471 0.930 . S
C1460 C1456 1.524 . S
C1460 H1472 0.956 . S
C1460 H1473 0.961 . S
C1460 H1474 0.961 . S
C1461 C1458 1.539 . S
C1461 H1475 0.958 . S
C1461 H1476 0.961 . S
C1461 H1477 0.960 . S
H1462 C1446 0.931 . S
H1463 C1451 0.929 . S
H1464 C1452 0.960 . S
H1465 C1452 0.962 . S
H1466 C1452 0.960 . S
H1467 C1453 0.961 . S
H1468 C1453 0.961 . S
H1469 C1453 0.961 . S
H1470 C1454 0.931 . S
H1471 C1459 0.930 . S
H1472 C1460 0.956 . S
H1473 C1460 0.961 . S
H1474 C1460 0.961 . S
H1475 C1461 0.958 . S
H1476 C1461 0.961 . S
H1477 C1461 0.960 . S
C1478 C1479 1.391 . S
C1478 C1480 1.394 . S
C1478 H1494 0.931 . S
C1479 C1478 1.391 . S
C1479 C1483 1.376 . S
C1480 C1478 1.394 . S
C1480 C1481 1.369 . S
C1480 C1484 1.531 . S
C1481 C1480 1.369 . S
C1481 C1482 1.410 . S
C1481 C1489 1.503 . S
C1482 C1481 1.410 . S
C1482 C1483 1.392 . S
C1482 C1485 1.511 . S
C1483 C1479 1.376 . S
C1483 C1482 1.392 . S
C1483 H1495 0.929 . S
C1484 C1480 1.531 . S
C1484 H1496 0.960 . S
C1484 H1497 0.962 . S
C1484 H1498 0.960 . S
C1485 C1482 1.511 . S
C1485 H1499 0.961 . S
C1485 H1500 0.961 . S
C1485 H1501 0.961 . S
C1486 C1487 1.370 . S
C1486 C1488 1.363 . S
C1486 H1502 0.931 . S
C1487 C1486 1.370 . S
C1487 C1491 1.408 . S
C1488 C1486 1.363 . S
C1488 C1489 1.370 . S
C1488 C1492 1.524 . S
C1489 C1481 1.503 . S
C1489 C1488 1.370 . S
C1489 C1490 1.403 . S
C1490 C1489 1.403 . S
C1490 C1491 1.404 . S
C1490 C1493 1.539 . S
C1491 C1487 1.408 . S
C1491 C1490 1.404 . S
C1491 H1503 0.930 . S
C1492 C1488 1.524 . S
C1492 H1504 0.956 . S
C1492 H1505 0.961 . S
C1492 H1506 0.961 . S
C1493 C1490 1.539 . S
C1493 H1507 0.958 . S
C1493 H1508 0.961 . S
C1493 H1509 0.960 . S
H1494 C1478 0.931 . S
H1495 C1483 0.929 . S
H1496 C1484 0.960 . S
H1497 C1484 0.962 . S
H1498 C1484 0.960 . S
H1499 C1485 0.961 . S
H1500 C1485 0.961 . S
H1501 C1485 0.961 . S
H1502 C1486 0.931 . S
H1503 C1491 0.930 . S
H1504 C1492 0.956 . S
H1505 C1492 0.961 . S
H1506 C1492 0.961 . S
H1507 C1493 0.958 . S
H1508 C1493 0.961 . S
H1509 C1493 0.960 . S
C1510 C1511 1.391 . S
C1510 C1512 1.394 . S
C1510 H1526 0.931 . S
C1511 C1510 1.391 . S
C1511 C1515 1.376 . S
C1512 C1510 1.394 . S
C1512 C1513 1.369 1_545 S
C1512 C1516 1.531 1_545 S
C1513 C1512 1.369 1_565 S
C1513 C1514 1.410 1_565 S
C1513 C1521 1.503 . S
C1514 C1513 1.410 1_545 S
C1514 C1515 1.392 . S
C1514 C1517 1.511 1_545 S
C1515 C1511 1.376 . S
C1515 C1514 1.392 . S
C1515 H1527 0.929 . S
C1516 C1512 1.531 1_565 S
C1516 H1528 0.960 . S
C1516 H1529 0.962 . S
C1516 H1530 0.980 . S
C1517 C1514 1.511 1_565 S
C1517 H1531 0.961 . S
C1517 H1532 0.961 . S
C1517 H1533 0.961 . S
C1518 C1519 1.370 . S
C1518 C1520 1.363 . S
C1518 H1534 0.931 . S
C1519 C1518 1.370 . S
C1519 C1523 1.408 . S
C1520 C1518 1.363 . S
C1520 C1521 1.370 . S
C1520 C1524 1.524 . S
C1521 C1513 1.503 . S
C1521 C1520 1.370 . S
C1521 C1522 1.403 . S
C1522 C1521 1.403 . S
C1522 C1523 1.404 . S
C1522 C1525 1.539 . S
C1523 C1519 1.408 . S
C1523 C1522 1.404 . S
C1523 H1535 0.930 . S
C1524 C1520 1.524 . S
C1524 H1536 0.956 . S
C1524 H1537 0.961 . S
C1524 H1538 0.961 . S
C1525 C1522 1.539 . S
C1525 H1539 0.958 . S
C1525 H1540 0.961 . S
C1525 H1541 0.960 . S
H1526 C1510 0.931 . S
H1527 C1515 0.929 . S
H1528 C1516 0.960 . S
H1529 C1516 0.962 . S
H1530 C1516 0.980 . S
H1531 C1517 0.961 . S
H1532 C1517 0.961 . S
H1533 C1517 0.961 . S
H1534 C1518 0.931 . S
H1535 C1523 0.930 . S
H1536 C1524 0.956 . S
H1537 C1524 0.961 . S
H1538 C1524 0.961 . S
H1539 C1525 0.958 . S
H1540 C1525 0.961 . S
H1541 C1525 0.960 . S
C1542 C1543 1.391 . S
C1542 C1544 1.394 . S
C1542 H1558 0.931 . S
C1543 C1542 1.391 . S
C1543 C1547 1.376 . S
C1544 C1542 1.394 . S
C1544 C1545 1.369 . S
C1544 C1548 1.531 . S
C1545 C1544 1.369 . S
C1545 C1546 1.410 . S
C1545 C1553 1.503 . S
C1546 C1545 1.410 . S
C1546 C1547 1.392 . S
C1546 C1549 1.511 . S
C1547 C1543 1.376 . S
C1547 C1546 1.392 . S
C1547 H1559 0.929 . S
C1548 C1544 1.531 . S
C1548 H1560 0.960 . S
C1548 H1561 0.962 . S
C1548 H1562 0.960 . S
C1549 C1546 1.511 . S
C1549 H1563 0.961 . S
C1549 H1564 0.961 . S
C1549 H1565 0.961 . S
C1550 C1551 1.370 . S
C1550 C1552 1.363 . S
C1550 H1566 0.931 . S
C1551 C1550 1.370 . S
C1551 C1555 1.408 . S
C1552 C1550 1.363 . S
C1552 C1553 1.370 . S
C1552 C1556 1.524 . S
C1553 C1545 1.503 . S
C1553 C1552 1.370 . S
C1553 C1554 1.403 . S
C1554 C1553 1.403 . S
C1554 C1555 1.404 . S
C1554 C1557 1.539 . S
C1555 C1551 1.408 . S
C1555 C1554 1.404 . S
C1555 H1567 0.930 . S
C1556 C1552 1.524 . S
C1556 H1568 0.956 . S
C1556 H1569 0.961 . S
C1556 H1570 0.961 . S
C1557 C1554 1.539 . S
C1557 H1571 0.958 . S
C1557 H1572 0.961 . S
C1557 H1573 0.960 . S
H1558 C1542 0.931 . S
H1559 C1547 0.929 . S
H1560 C1548 0.960 . S
H1561 C1548 0.962 . S
H1562 C1548 0.960 . S
H1563 C1549 0.961 . S
H1564 C1549 0.961 . S
H1565 C1549 0.961 . S
H1566 C1550 0.931 . S
H1567 C1555 0.930 . S
H1568 C1556 0.956 . S
H1569 C1556 0.961 . S
H1570 C1556 0.961 . S
H1571 C1557 0.958 . S
H1572 C1557 0.961 . S
H1573 C1557 0.960 . S
C1574 C1575 1.391 . S
C1574 C1576 1.394 . S
C1574 H1590 0.931 . S
C1575 C1574 1.391 . S
C1575 C1579 1.376 . S
C1576 C1574 1.394 . S
C1576 C1577 1.369 . S
C1576 C1580 1.531 . S
C1577 C1576 1.369 . S
C1577 C1578 1.410 . S
C1577 C1585 1.503 . S
C1578 C1577 1.410 . S
C1578 C1579 1.392 . S
C1578 C1581 1.511 . S
C1579 C1575 1.376 . S
C1579 C1578 1.392 . S
C1579 H1591 0.929 . S
C1580 C1576 1.531 . S
C1580 H1592 0.960 . S
C1580 H1593 0.962 . S
C1580 H1594 0.960 . S
C1581 C1578 1.511 . S
C1581 H1595 0.961 . S
C1581 H1596 0.961 . S
C1581 H1597 0.961 . S
C1582 C1583 1.370 . S
C1582 C1584 1.363 . S
C1582 H1598 0.931 . S
C1583 C1582 1.370 . S
C1583 C1587 1.408 . S
C1584 C1582 1.363 . S
C1584 C1585 1.370 . S
C1584 C1588 1.524 . S
C1585 C1577 1.503 . S
C1585 C1584 1.370 . S
C1585 C1586 1.403 . S
C1586 C1585 1.403 . S
C1586 C1587 1.404 . S
C1586 C1589 1.539 . S
C1587 C1583 1.408 . S
C1587 C1586 1.404 . S
C1587 H1599 0.930 . S
C1588 C1584 1.524 . S
C1588 H1600 0.956 . S
C1588 H1601 0.961 . S
C1588 H1602 0.961 . S
C1589 C1586 1.539 . S
C1589 H1603 0.958 . S
C1589 H1604 0.961 . S
C1589 H1605 0.960 . S
H1590 C1574 0.931 . S
H1591 C1579 0.929 . S
H1592 C1580 0.960 . S
H1593 C1580 0.962 . S
H1594 C1580 0.960 . S
H1595 C1581 0.961 . S
H1596 C1581 0.961 . S
H1597 C1581 0.961 . S
H1598 C1582 0.931 . S
H1599 C1587 0.930 . S
H1600 C1588 0.956 . S
H1601 C1588 0.961 . S
H1602 C1588 0.961 . S
H1603 C1589 0.958 . S
H1604 C1589 0.961 . S
H1605 C1589 0.960 . S
C1606 C1607 1.391 . S
C1606 C1608 1.394 . S
C1606 H1622 0.931 . S
C1607 C1606 1.391 . S
C1607 C1611 1.376 . S
C1608 C1606 1.394 . S
C1608 C1609 1.369 . S
C1608 C1612 1.531 . S
C1609 C1608 1.369 . S
C1609 C1610 1.410 . S
C1609 C1617 1.503 . S
C1610 C1609 1.410 . S
C1610 C1611 1.392 . S
C1610 C1613 1.511 . S
C1611 C1607 1.376 . S
C1611 C1610 1.392 . S
C1611 H1623 0.929 . S
C1612 C1608 1.531 . S
C1612 H1624 0.960 . S
C1612 H1625 0.962 . S
C1612 H1626 0.960 . S
C1613 C1610 1.511 . S
C1613 H1627 0.961 . S
C1613 H1628 0.961 . S
C1613 H1629 0.961 . S
C1614 C1615 1.370 . S
C1614 C1616 1.363 . S
C1614 H1630 0.931 . S
C1615 C1614 1.370 . S
C1615 C1619 1.408 . S
C1616 C1614 1.363 . S
C1616 C1617 1.370 . S
C1616 C1620 1.524 . S
C1617 C1609 1.503 . S
C1617 C1616 1.370 . S
C1617 C1618 1.403 . S
C1618 C1617 1.403 . S
C1618 C1619 1.404 . S
C1618 C1621 1.539 . S
C1619 C1615 1.408 . S
C1619 C1618 1.404 . S
C1619 H1631 0.930 . S
C1620 C1616 1.524 . S
C1620 H1632 0.956 . S
C1620 H1633 0.961 . S
C1620 H1634 0.961 . S
C1621 C1618 1.539 . S
C1621 H1635 0.958 . S
C1621 H1636 0.961 . S
C1621 H1637 0.960 . S
H1622 C1606 0.931 . S
H1623 C1611 0.929 . S
H1624 C1612 0.960 . S
H1625 C1612 0.962 . S
H1626 C1612 0.960 . S
H1627 C1613 0.961 . S
H1628 C1613 0.961 . S
H1629 C1613 0.961 . S
H1630 C1614 0.931 . S
H1631 C1619 0.930 . S
H1632 C1620 0.956 . S
H1633 C1620 0.961 . S
H1634 C1620 0.961 . S
H1635 C1621 0.958 . S
H1636 C1621 0.961 . S
H1637 C1621 0.960 . S
C1638 C1639 1.391 . S
C1638 C1640 1.394 . S
C1638 H1654 0.931 . S
C1639 C1638 1.391 . S
C1639 C1643 1.376 . S
C1640 C1638 1.394 . S
C1640 C1641 1.369 . S
C1640 C1644 1.531 . S
C1641 C1640 1.369 . S
C1641 C1642 1.410 . S
C1641 C1649 1.503 . S
C1642 C1641 1.410 . S
C1642 C1643 1.392 . S
C1642 C1645 1.511 . S
C1643 C1639 1.376 . S
C1643 C1642 1.392 . S
C1643 H1655 0.929 . S
C1644 C1640 1.531 . S
C1644 H1656 0.960 . S
C1644 H1657 0.962 . S
C1644 H1658 0.960 . S
C1645 C1642 1.511 . S
C1645 H1659 0.961 . S
C1645 H1660 0.961 . S
C1645 H1661 0.961 . S
C1646 C1647 1.370 . S
C1646 C1648 1.363 . S
C1646 H1662 0.931 . S
C1647 C1646 1.370 . S
C1647 C1651 1.408 . S
C1648 C1646 1.363 . S
C1648 C1649 1.370 . S
C1648 C1652 1.524 . S
C1649 C1641 1.503 . S
C1649 C1648 1.370 . S
C1649 C1650 1.403 . S
C1650 C1649 1.403 . S
C1650 C1651 1.404 . S
C1650 C1653 1.539 . S
C1651 C1647 1.408 . S
C1651 C1650 1.404 . S
C1651 H1663 0.930 . S
C1652 C1648 1.524 . S
C1652 H1664 0.956 . S
C1652 H1665 0.961 . S
C1652 H1666 0.961 . S
C1653 C1650 1.539 . S
C1653 H1667 0.958 . S
C1653 H1668 0.961 . S
C1653 H1669 0.960 . S
H1654 C1638 0.931 . S
H1655 C1643 0.929 . S
H1656 C1644 0.960 . S
H1657 C1644 0.962 . S
H1658 C1644 0.960 . S
H1659 C1645 0.961 . S
H1660 C1645 0.961 . S
H1661 C1645 0.961 . S
H1662 C1646 0.931 . S
H1663 C1651 0.930 . S
H1664 C1652 0.956 . S
H1665 C1652 0.961 . S
H1666 C1652 0.961 . S
H1667 C1653 0.958 . S
H1668 C1653 0.961 . S
H1669 C1653 0.960 . S
C1670 C1671 1.391 . S
C1670 C1672 1.394 . S
C1670 H1686 0.931 . S
C1671 C1670 1.391 . S
C1671 C1675 1.376 . S
C1672 C1670 1.394 . S
C1672 C1673 1.369 . S
C1672 C1676 1.531 . S
C1673 C1672 1.369 . S
C1673 C1674 1.410 . S
C1673 C1681 1.503 . S
C1674 C1673 1.410 . S
C1674 C1675 1.392 . S
C1674 C1677 1.511 . S
C1675 C1671 1.376 . S
C1675 C1674 1.392 . S
C1675 H1687 0.929 . S
C1676 C1672 1.531 . S
C1676 H1688 0.960 . S
C1676 H1689 0.962 . S
C1676 H1690 0.960 . S
C1677 C1674 1.511 . S
C1677 H1691 0.961 . S
C1677 H1692 0.961 . S
C1677 H1693 0.961 . S
C1678 C1679 1.370 . S
C1678 C1680 1.363 . S
C1678 H1694 0.931 . S
C1679 C1678 1.370 . S
C1679 C1683 1.408 . S
C1680 C1678 1.363 . S
C1680 C1681 1.370 . S
C1680 C1684 1.524 . S
C1681 C1673 1.503 . S
C1681 C1680 1.370 . S
C1681 C1682 1.403 . S
C1682 C1681 1.403 . S
C1682 C1683 1.404 . S
C1682 C1685 1.539 . S
C1683 C1679 1.408 . S
C1683 C1682 1.404 . S
C1683 H1695 0.930 . S
C1684 C1680 1.524 . S
C1684 H1696 0.956 . S
C1684 H1697 0.961 . S
C1684 H1698 0.961 . S
C1685 C1682 1.539 . S
C1685 H1699 0.958 . S
C1685 H1700 0.961 . S
C1685 H1701 0.960 . S
H1686 C1670 0.931 . S
H1687 C1675 0.929 . S
H1688 C1676 0.960 . S
H1689 C1676 0.962 . S
H1690 C1676 0.960 . S
H1691 C1677 0.961 . S
H1692 C1677 0.961 . S
H1693 C1677 0.961 . S
H1694 C1678 0.931 . S
H1695 C1683 0.930 . S
H1696 C1684 0.956 . S
H1697 C1684 0.961 . S
H1698 C1684 0.961 . S
H1699 C1685 0.958 . S
H1700 C1685 0.961 . S
H1701 C1685 0.960 . S
C1702 C1703 1.391 . S
C1702 C1704 1.394 . S
C1702 H1718 0.931 . S
C1703 C1702 1.391 . S
C1703 C1707 1.376 . S
C1704 C1702 1.394 . S
C1704 C1705 1.369 . S
C1704 C1708 1.531 . S
C1705 C1704 1.369 . S
C1705 C1706 1.410 . S
C1705 C1713 1.503 . S
C1706 C1705 1.410 . S
C1706 C1707 1.392 . S
C1706 C1709 1.511 . S
C1707 C1703 1.376 . S
C1707 C1706 1.392 . S
C1707 H1719 0.929 . S
C1708 C1704 1.531 . S
C1708 H1720 0.960 . S
C1708 H1721 0.962 . S
C1708 H1722 0.960 . S
C1709 C1706 1.511 . S
C1709 H1723 0.961 . S
C1709 H1724 0.961 . S
C1709 H1725 0.961 . S
C1710 C1711 1.370 . S
C1710 C1712 1.363 . S
C1710 H1726 0.931 . S
C1711 C1710 1.370 . S
C1711 C1715 1.408 . S
C1712 C1710 1.363 . S
C1712 C1713 1.370 . S
C1712 C1716 1.524 . S
C1713 C1705 1.503 . S
C1713 C1712 1.370 . S
C1713 C1714 1.403 . S
C1714 C1713 1.403 . S
C1714 C1715 1.404 . S
C1714 C1717 1.539 . S
C1715 C1711 1.408 . S
C1715 C1714 1.404 . S
C1715 H1727 0.930 . S
C1716 C1712 1.524 . S
C1716 H1728 0.956 . S
C1716 H1729 0.961 . S
C1716 H1730 0.961 . S
C1717 C1714 1.539 . S
C1717 H1731 0.958 . S
C1717 H1732 0.961 . S
C1717 H1733 0.960 . S
H1718 C1702 0.931 . S
H1719 C1707 0.929 . S
H1720 C1708 0.960 . S
H1721 C1708 0.962 . S
H1722 C1708 0.960 . S
H1723 C1709 0.961 . S
H1724 C1709 0.961 . S
H1725 C1709 0.961 . S
H1726 C1710 0.931 . S
H1727 C1715 0.930 . S
H1728 C1716 0.956 . S
H1729 C1716 0.961 . S
H1730 C1716 0.961 . S
H1731 C1717 0.958 . S
H1732 C1717 0.961 . S
H1733 C1717 0.960 . S
C1734 C1735 1.391 . S
C1734 C1736 1.394 1_545 S
C1734 H1750 0.931 . S
C1735 C1734 1.391 . S
C1735 C1739 1.376 . S
C1736 C1734 1.394 1_565 S
C1736 C1737 1.369 . S
C1736 C1740 1.531 . S
C1737 C1736 1.369 . S
C1737 C1738 1.410 . S
C1737 C1745 1.503 . S
C1738 C1737 1.410 . S
C1738 C1739 1.392 1_565 S
C1738 C1741 1.511 . S
C1739 C1735 1.376 . S
C1739 C1738 1.392 1_545 S
C1739 H1751 0.929 . S
C1740 C1736 1.531 . S
C1740 H1752 0.960 . S
C1740 H1753 0.962 . S
C1740 H1754 0.960 . S
C1741 C1738 1.511 . S
C1741 H1755 0.961 . S
C1741 H1756 0.961 . S
C1741 H1757 0.961 . S
C1742 C1743 1.370 . S
C1742 C1744 1.363 . S
C1742 H1758 0.931 . S
C1743 C1742 1.370 . S
C1743 C1747 1.408 . S
C1744 C1742 1.363 . S
C1744 C1745 1.370 . S
C1744 C1748 1.524 . S
C1745 C1737 1.503 . S
C1745 C1744 1.370 . S
C1745 C1746 1.403 . S
C1746 C1745 1.403 . S
C1746 C1747 1.404 . S
C1746 C1749 1.539 . S
C1747 C1743 1.408 . S
C1747 C1746 1.404 . S
C1747 H1759 0.930 . S
C1748 C1744 1.524 . S
C1748 H1760 0.956 . S
C1748 H1761 0.961 . S
C1748 H1762 0.961 . S
C1749 C1746 1.539 . S
C1749 H1763 0.958 . S
C1749 H1764 0.961 . S
C1749 H1765 0.960 . S
H1750 C1734 0.931 . S
H1751 C1739 0.929 . S
H1752 C1740 0.960 . S
H1753 C1740 0.962 . S
H1754 C1740 0.960 . S
H1755 C1741 0.961 . S
H1756 C1741 0.961 . S
H1757 C1741 0.961 . S
H1758 C1742 0.931 . S
H1759 C1747 0.930 . S
H1760 C1748 0.956 . S
H1761 C1748 0.961 . S
H1762 C1748 0.961 . S
H1763 C1749 0.958 . S
H1764 C1749 0.961 . S
H1765 C1749 0.960 . S
C1766 C1767 1.391 1_455 S
C1766 C1768 1.394 . S
C1766 H1782 0.931 . S
C1767 C1766 1.391 1_655 S
C1767 C1771 1.376 . S
C1768 C1766 1.394 . S
C1768 C1769 1.369 . S
C1768 C1772 1.531 . S
C1769 C1768 1.369 . S
C1769 C1770 1.410 . S
C1769 C1777 1.503 . S
C1770 C1769 1.410 . S
C1770 C1771 1.392 1_455 S
C1770 C1773 1.511 . S
C1771 C1767 1.376 . S
C1771 C1770 1.392 1_655 S
C1771 H1783 0.929 . S
C1772 C1768 1.531 . S
C1772 H1784 0.960 . S
C1772 H1785 0.962 . S
C1772 H1786 0.960 . S
C1773 C1770 1.511 . S
C1773 H1787 0.961 . S
C1773 H1788 0.961 . S
C1773 H1789 0.961 . S
C1774 C1775 1.370 . S
C1774 C1776 1.363 . S
C1774 H1790 0.931 . S
C1775 C1774 1.370 . S
C1775 C1779 1.408 . S
C1776 C1774 1.363 . S
C1776 C1777 1.370 . S
C1776 C1780 1.524 . S
C1777 C1769 1.503 . S
C1777 C1776 1.370 . S
C1777 C1778 1.403 . S
C1778 C1777 1.403 . S
C1778 C1779 1.404 . S
C1778 C1781 1.539 . S
C1779 C1775 1.408 . S
C1779 C1778 1.404 . S
C1779 H1791 0.930 . S
C1780 C1776 1.524 . S
C1780 H1792 0.956 . S
C1780 H1793 0.961 . S
C1780 H1794 0.961 . S
C1781 C1778 1.539 . S
C1781 H1795 0.958 . S
C1781 H1796 0.961 . S
C1781 H1797 0.960 . S
H1782 C1766 0.931 . S
H1783 C1771 0.929 . S
H1784 C1772 0.960 . S
H1785 C1772 0.962 . S
H1786 C1772 0.960 . S
H1787 C1773 0.961 . S
H1788 C1773 0.961 . S
H1789 C1773 0.961 . S
H1790 C1774 0.931 . S
H1791 C1779 0.930 . S
H1792 C1780 0.956 . S
H1793 C1780 0.961 . S
H1794 C1780 0.961 . S
H1795 C1781 0.958 . S
H1796 C1781 0.961 . S
H1797 C1781 0.960 . S
C1798 C1799 1.391 . S
C1798 C1800 1.394 . S
C1798 H1814 0.931 . S
C1799 C1798 1.391 . S
C1799 C1803 1.376 . S
C1800 C1798 1.394 . S
C1800 C1801 1.369 . S
C1800 C1804 1.531 . S
C1801 C1800 1.369 . S
C1801 C1802 1.410 . S
C1801 C1809 1.503 . S
C1802 C1801 1.410 . S
C1802 C1803 1.392 . S
C1802 C1805 1.511 . S
C1803 C1799 1.376 . S
C1803 C1802 1.392 . S
C1803 H1815 0.929 . S
C1804 C1800 1.531 . S
C1804 H1816 0.960 . S
C1804 H1817 0.962 . S
C1804 H1818 0.960 . S
C1805 C1802 1.511 . S
C1805 H1819 0.961 . S
C1805 H1820 0.961 . S
C1805 H1821 0.961 . S
C1806 C1807 1.370 . S
C1806 C1808 1.363 . S
C1806 H1822 0.931 . S
C1807 C1806 1.370 . S
C1807 C1811 1.408 . S
C1808 C1806 1.363 . S
C1808 C1809 1.370 . S
C1808 C1812 1.524 . S
C1809 C1801 1.503 . S
C1809 C1808 1.370 . S
C1809 C1810 1.403 . S
C1810 C1809 1.403 . S
C1810 C1811 1.404 . S
C1810 C1813 1.539 . S
C1811 C1807 1.408 . S
C1811 C1810 1.404 . S
C1811 H1823 0.930 . S
C1812 C1808 1.524 . S
C1812 H1824 0.956 . S
C1812 H1825 0.961 . S
C1812 H1826 0.961 . S
C1813 C1810 1.539 . S
C1813 H1827 0.958 . S
C1813 H1828 0.961 . S
C1813 H1829 0.960 . S
H1814 C1798 0.931 . S
H1815 C1803 0.929 . S
H1816 C1804 0.960 . S
H1817 C1804 0.962 . S
H1818 C1804 0.960 . S
H1819 C1805 0.961 . S
H1820 C1805 0.961 . S
H1821 C1805 0.961 . S
H1822 C1806 0.931 . S
H1823 C1811 0.930 . S
H1824 C1812 0.956 . S
H1825 C1812 0.961 . S
H1826 C1812 0.961 . S
H1827 C1813 0.958 . S
H1828 C1813 0.961 . S
H1829 C1813 0.960 . S
C1830 C1831 1.391 . S
C1830 C1832 1.394 . S
C1830 H1846 0.931 . S
C1831 C1830 1.391 . S
C1831 C1835 1.376 . S
C1832 C1830 1.394 . S
C1832 C1833 1.369 . S
C1832 C1836 1.531 . S
C1833 C1832 1.369 . S
C1833 C1834 1.410 . S
C1833 C1841 1.503 . S
C1834 C1833 1.410 . S
C1834 C1835 1.392 . S
C1834 C1837 1.511 . S
C1835 C1831 1.376 . S
C1835 C1834 1.392 . S
C1835 H1847 0.929 . S
C1836 C1832 1.531 . S
C1836 H1848 0.960 . S
C1836 H1849 0.962 . S
C1836 H1850 0.960 . S
C1837 C1834 1.511 . S
C1837 H1851 0.961 . S
C1837 H1852 0.961 . S
C1837 H1853 0.961 . S
C1838 C1839 1.370 . S
C1838 C1840 1.363 . S
C1838 H1854 0.931 . S
C1839 C1838 1.370 . S
C1839 C1843 1.408 . S
C1840 C1838 1.363 . S
C1840 C1841 1.370 . S
C1840 C1844 1.524 . S
C1841 C1833 1.503 . S
C1841 C1840 1.370 . S
C1841 C1842 1.403 . S
C1842 C1841 1.403 . S
C1842 C1843 1.404 . S
C1842 C1845 1.539 . S
C1843 C1839 1.408 . S
C1843 C1842 1.404 . S
C1843 H1855 0.930 . S
C1844 C1840 1.524 . S
C1844 H1856 0.956 . S
C1844 H1857 0.961 . S
C1844 H1858 0.961 . S
C1845 C1842 1.539 . S
C1845 H1859 0.958 . S
C1845 H1860 0.961 . S
C1845 H1861 0.960 . S
H1846 C1830 0.931 . S
H1847 C1835 0.929 . S
H1848 C1836 0.960 . S
H1849 C1836 0.962 . S
H1850 C1836 0.960 . S
H1851 C1837 0.961 . S
H1852 C1837 0.961 . S
H1853 C1837 0.961 . S
H1854 C1838 0.931 . S
H1855 C1843 0.930 . S
H1856 C1844 0.956 . S
H1857 C1844 0.961 . S
H1858 C1844 0.961 . S
H1859 C1845 0.958 . S
H1860 C1845 0.961 . S
H1861 C1845 0.960 . S
C1862 C1863 1.391 . S
C1862 C1864 1.394 . S
C1862 H1878 0.931 . S
C1863 C1862 1.391 . S
C1863 C1867 1.376 . S
C1864 C1862 1.394 . S
C1864 C1865 1.369 . S
C1864 C1868 1.531 . S
C1865 C1864 1.369 . S
C1865 C1866 1.410 . S
C1865 C1873 1.503 . S
C1866 C1865 1.410 . S
C1866 C1867 1.392 . S
C1866 C1869 1.511 . S
C1867 C1863 1.376 . S
C1867 C1866 1.392 . S
C1867 H1879 0.929 . S
C1868 C1864 1.531 . S
C1868 H1880 0.960 . S
C1868 H1881 0.962 . S
C1868 H1882 0.960 . S
C1869 C1866 1.511 . S
C1869 H1883 0.961 . S
C1869 H1884 0.961 . S
C1869 H1885 0.961 . S
C1870 C1871 1.370 . S
C1870 C1872 1.363 . S
C1870 H1886 0.931 . S
C1871 C1870 1.370 . S
C1871 C1875 1.408 . S
C1872 C1870 1.363 . S
C1872 C1873 1.370 . S
C1872 C1876 1.524 . S
C1873 C1865 1.503 . S
C1873 C1872 1.370 . S
C1873 C1874 1.403 . S
C1874 C1873 1.403 . S
C1874 C1875 1.404 . S
C1874 C1877 1.539 . S
C1875 C1871 1.408 . S
C1875 C1874 1.404 . S
C1875 H1887 0.930 . S
C1876 C1872 1.524 . S
C1876 H1888 0.956 . S
C1876 H1889 0.961 . S
C1876 H1890 0.961 . S
C1877 C1874 1.539 . S
C1877 H1891 0.958 . S
C1877 H1892 0.961 . S
C1877 H1893 0.960 . S
H1878 C1862 0.931 . S
H1879 C1867 0.929 . S
H1880 C1868 0.960 . S
H1881 C1868 0.962 . S
H1882 C1868 0.960 . S
H1883 C1869 0.961 . S
H1884 C1869 0.961 . S
H1885 C1869 0.961 . S
H1886 C1870 0.931 . S
H1887 C1875 0.930 . S
H1888 C1876 0.956 . S
H1889 C1876 0.961 . S
H1890 C1876 0.961 . S
H1891 C1877 0.958 . S
H1892 C1877 0.961 . S
H1893 C1877 0.960 . S
C1894 C1895 1.391 . S
C1894 C1896 1.394 . S
C1894 H1910 0.931 . S
C1895 C1894 1.391 . S
C1895 C1899 1.376 . S
C1896 C1894 1.394 . S
C1896 C1897 1.369 . S
C1896 C1900 1.531 . S
C1897 C1896 1.369 . S
C1897 C1898 1.410 . S
C1897 C1905 1.503 . S
C1898 C1897 1.410 . S
C1898 C1899 1.392 . S
C1898 C1901 1.511 . S
C1899 C1895 1.376 . S
C1899 C1898 1.392 . S
C1899 H1911 0.929 . S
C1900 C1896 1.531 . S
C1900 H1912 0.960 . S
C1900 H1913 0.962 . S
C1900 H1914 0.960 . S
C1901 C1898 1.511 . S
C1901 H1915 0.961 . S
C1901 H1916 0.961 . S
C1901 H1917 0.961 . S
C1902 C1903 1.370 . S
C1902 C1904 1.363 . S
C1902 H1918 0.931 . S
C1903 C1902 1.370 . S
C1903 C1907 1.408 . S
C1904 C1902 1.363 . S
C1904 C1905 1.370 . S
C1904 C1908 1.524 . S
C1905 C1897 1.503 . S
C1905 C1904 1.370 . S
C1905 C1906 1.403 . S
C1906 C1905 1.403 . S
C1906 C1907 1.404 . S
C1906 C1909 1.539 . S
C1907 C1903 1.408 . S
C1907 C1906 1.404 . S
C1907 H1919 0.930 . S
C1908 C1904 1.524 . S
C1908 H1920 0.956 . S
C1908 H1921 0.961 . S
C1908 H1922 0.961 . S
C1909 C1906 1.539 . S
C1909 H1923 0.958 . S
C1909 H1924 0.961 . S
C1909 H1925 0.960 . S
H1910 C1894 0.931 . S
H1911 C1899 0.929 . S
H1912 C1900 0.960 . S
H1913 C1900 0.962 . S
H1914 C1900 0.960 . S
H1915 C1901 0.961 . S
H1916 C1901 0.961 . S
H1917 C1901 0.961 . S
H1918 C1902 0.931 . S
H1919 C1907 0.930 . S
H1920 C1908 0.956 . S
H1921 C1908 0.961 . S
H1922 C1908 0.961 . S
H1923 C1909 0.958 . S
H1924 C1909 0.961 . S
H1925 C1909 0.960 . S
C1926 C1927 1.391 . S
C1926 C1928 1.394 1_565 S
C1926 H1942 0.931 . S
C1927 C1926 1.391 . S
C1927 C1931 1.376 . S
C1928 C1926 1.394 1_545 S
C1928 C1929 1.369 . S
C1928 C1932 1.531 . S
C1929 C1928 1.369 . S
C1929 C1930 1.430 . S
C1929 C1937 1.503 . S
C1930 C1929 1.430 . S
C1930 C1931 1.359 1_545 S
C1930 C1933 1.524 . S
C1931 C1927 1.376 . S
C1931 C1930 1.359 1_565 S
C1931 H1943 0.929 . S
C1932 C1928 1.531 . S
C1932 H1944 0.960 . S
C1932 H1945 0.962 . S
C1932 H1946 0.960 . S
C1933 C1930 1.524 . S
C1933 H1947 0.939 1_545 S
C1933 H1948 0.961 . S
C1933 H1949 0.961 . S
C1934 C1935 1.370 . S
C1934 C1936 1.363 . S
C1934 H1950 0.931 . S
C1935 C1934 1.370 . S
C1935 C1939 1.408 . S
C1936 C1934 1.363 . S
C1936 C1937 1.370 . S
C1936 C1940 1.524 . S
C1937 C1929 1.503 . S
C1937 C1936 1.370 . S
C1937 C1938 1.403 . S
C1938 C1937 1.403 . S
C1938 C1939 1.404 . S
C1938 C1941 1.539 . S
C1939 C1935 1.408 . S
C1939 C1938 1.404 . S
C1939 H1951 0.930 . S
C1940 C1936 1.524 . S
C1940 H1952 0.956 . S
C1940 H1953 0.961 . S
C1940 H1954 0.961 . S
C1941 C1938 1.539 . S
C1941 H1955 0.958 . S
C1941 H1956 0.961 . S
C1941 H1957 0.960 . S
H1942 C1926 0.931 . S
H1943 C1931 0.929 . S
H1944 C1932 0.960 . S
H1945 C1932 0.962 . S
H1946 C1932 0.960 . S
H1947 C1933 0.939 1_565 S
H1948 C1933 0.961 . S
H1949 C1933 0.961 . S
H1950 C1934 0.931 . S
H1951 C1939 0.930 . S
H1952 C1940 0.956 . S
H1953 C1940 0.961 . S
H1954 C1940 0.961 . S
H1955 C1941 0.958 . S
H1956 C1941 0.961 . S
H1957 C1941 0.960 . S
C1958 C1959 1.391 . S
C1958 C1960 1.394 1_455 S
C1958 H1974 0.931 . S
C1959 C1958 1.391 . S
C1959 C1963 1.376 1_455 S
C1960 C1958 1.394 1_655 S
C1960 C1961 1.369 . S
C1960 C1964 1.531 . S
C1961 C1960 1.369 . S
C1961 C1962 1.410 . S
C1961 C1969 1.503 . S
C1962 C1961 1.410 . S
C1962 C1963 1.392 . S
C1962 C1965 1.511 . S
C1963 C1959 1.376 1_655 S
C1963 C1962 1.392 . S
C1963 H1975 0.929 . S
C1964 C1960 1.531 . S
C1964 H1976 0.960 . S
C1964 H1977 0.962 . S
C1964 H1978 0.963 . S
C1965 C1962 1.511 . S
C1965 H1979 0.961 . S
C1965 H1980 0.961 . S
C1965 H1981 0.961 . S
C1966 C1967 1.370 . S
C1966 C1968 1.363 . S
C1966 H1982 0.931 . S
C1967 C1966 1.370 . S
C1967 C1971 1.408 . S
C1968 C1966 1.363 . S
C1968 C1969 1.370 . S
C1968 C1972 1.524 . S
C1969 C1961 1.503 . S
C1969 C1968 1.370 . S
C1969 C1970 1.403 . S
C1970 C1969 1.403 . S
C1970 C1971 1.404 . S
C1970 C1973 1.539 . S
C1971 C1967 1.408 . S
C1971 C1970 1.404 . S
C1971 H1983 0.930 . S
C1972 C1968 1.524 . S
C1972 H1984 0.956 . S
C1972 H1985 0.961 . S
C1972 H1986 0.961 . S
C1973 C1970 1.539 . S
C1973 H1987 0.958 . S
C1973 H1988 0.961 . S
C1973 H1989 0.960 . S
H1974 C1958 0.931 . S
H1975 C1963 0.929 . S
H1976 C1964 0.960 . S
H1977 C1964 0.962 . S
H1978 C1964 0.963 . S
H1979 C1965 0.961 . S
H1980 C1965 0.961 . S
H1981 C1965 0.961 . S
H1982 C1966 0.931 . S
H1983 C1971 0.930 . S
H1984 C1972 0.956 . S
H1985 C1972 0.961 . S
H1986 C1972 0.961 . S
H1987 C1973 0.958 . S
H1988 C1973 0.961 . S
H1989 C1973 0.960 . S
C1990 C1991 1.391 . S
C1990 C1992 1.394 . S
C1990 H2006 0.931 . S
C1991 C1990 1.391 . S
C1991 C1995 1.376 . S
C1992 C1990 1.394 . S
C1992 C1993 1.369 . S
C1992 C1996 1.531 . S
C1993 C1992 1.369 . S
C1993 C1994 1.410 . S
C1993 C2001 1.503 . S
C1994 C1993 1.410 . S
C1994 C1995 1.392 . S
C1994 C1997 1.511 . S
C1995 C1991 1.376 . S
C1995 C1994 1.392 . S
C1995 H2007 0.929 . S
C1996 C1992 1.531 . S
C1996 H2008 0.960 . S
C1996 H2009 0.962 . S
C1996 H2010 0.960 . S
C1997 C1994 1.511 . S
C1997 H2011 0.961 . S
C1997 H2012 0.961 . S
C1997 H2013 0.961 . S
C1998 C1999 1.370 . S
C1998 C2000 1.363 . S
C1998 H2014 0.931 . S
C1999 C1998 1.370 . S
C1999 C2003 1.408 . S
C2000 C1998 1.363 . S
C2000 C2001 1.370 . S
C2000 C2004 1.524 . S
C2001 C1993 1.503 . S
C2001 C2000 1.370 . S
C2001 C2002 1.403 . S
C2002 C2001 1.403 . S
C2002 C2003 1.404 . S
C2002 C2005 1.539 . S
C2003 C1999 1.408 . S
C2003 C2002 1.404 . S
C2003 H2015 0.930 . S
C2004 C2000 1.524 . S
C2004 H2016 0.956 . S
C2004 H2017 0.961 . S
C2004 H2018 0.961 . S
C2005 C2002 1.539 . S
C2005 H2019 0.958 . S
C2005 H2020 0.961 . S
C2005 H2021 0.960 . S
H2006 C1990 0.931 . S
H2007 C1995 0.929 . S
H2008 C1996 0.960 . S
H2009 C1996 0.962 . S
H2010 C1996 0.960 . S
H2011 C1997 0.961 . S
H2012 C1997 0.961 . S
H2013 C1997 0.961 . S
H2014 C1998 0.931 . S
H2015 C2003 0.930 . S
H2016 C2004 0.956 . S
H2017 C2004 0.961 . S
H2018 C2004 0.961 . S
H2019 C2005 0.958 . S
H2020 C2005 0.961 . S
H2021 C2005 0.960 . S
C2022 C2023 1.391 . S
C2022 C2024 1.394 1_455 S
C2022 H2038 0.931 . S
C2023 C2022 1.391 . S
C2023 C2027 1.376 . S
C2024 C2022 1.394 1_655 S
C2024 C2025 1.369 . S
C2024 C2028 1.531 . S
C2025 C2024 1.369 . S
C2025 C2026 1.410 . S
C2025 C2033 1.503 . S
C2026 C2025 1.410 . S
C2026 C2027 1.392 1_655 S
C2026 C2029 1.511 . S
C2027 C2023 1.376 . S
C2027 C2026 1.392 1_455 S
C2027 H2039 0.929 . S
C2028 C2024 1.531 . S
C2028 H2040 0.960 . S
C2028 H2041 0.962 . S
C2028 H2042 0.960 . S
C2029 C2026 1.511 . S
C2029 H2043 0.961 1_655 S
C2029 H2044 0.961 . S
C2029 H2045 0.961 . S
C2030 C2031 1.370 . S
C2030 C2032 1.363 . S
C2030 H2046 0.931 . S
C2031 C2030 1.370 . S
C2031 C2035 1.408 . S
C2032 C2030 1.363 . S
C2032 C2033 1.370 . S
C2032 C2036 1.524 . S
C2033 C2025 1.503 . S
C2033 C2032 1.370 . S
C2033 C2034 1.403 . S
C2034 C2033 1.403 . S
C2034 C2035 1.404 . S
C2034 C2037 1.539 . S
C2035 C2031 1.408 . S
C2035 C2034 1.404 . S
C2035 H2047 0.930 . S
C2036 C2032 1.524 . S
C2036 H2048 0.956 . S
C2036 H2049 0.961 . S
C2036 H2050 0.961 . S
C2037 C2034 1.539 . S
C2037 H2051 0.958 . S
C2037 H2052 0.961 . S
C2037 H2053 0.960 . S
H2038 C2022 0.931 . S
H2039 C2027 0.929 . S
H2040 C2028 0.960 . S
H2041 C2028 0.962 . S
H2042 C2028 0.960 . S
H2043 C2029 0.961 1_455 S
H2044 C2029 0.961 . S
H2045 C2029 0.961 . S
H2046 C2030 0.931 . S
H2047 C2035 0.930 . S
H2048 C2036 0.956 . S
H2049 C2036 0.961 . S
H2050 C2036 0.961 . S
H2051 C2037 0.958 . S
H2052 C2037 0.961 . S
H2053 C2037 0.960 . S
C2054 C2055 1.391 . S
C2054 C2056 1.394 . S
C2054 H2070 0.931 . S
C2055 C2054 1.391 . S
C2055 C2059 1.376 . S
C2056 C2054 1.394 . S
C2056 C2057 1.369 . S
C2056 C2060 1.531 . S
C2057 C2056 1.369 . S
C2057 C2058 1.410 . S
C2057 C2065 1.503 . S
C2058 C2057 1.410 . S
C2058 C2059 1.392 . S
C2058 C2061 1.511 . S
C2059 C2055 1.376 . S
C2059 C2058 1.392 . S
C2059 H2071 0.929 . S
C2060 C2056 1.531 . S
C2060 H2072 0.960 . S
C2060 H2073 0.962 . S
C2060 H2074 0.960 . S
C2061 C2058 1.511 . S
C2061 H2075 0.961 . S
C2061 H2076 0.961 . S
C2061 H2077 0.961 . S
C2062 C2063 1.370 . S
C2062 C2064 1.363 . S
C2062 H2078 0.931 . S
C2063 C2062 1.370 . S
C2063 C2067 1.408 . S
C2064 C2062 1.363 . S
C2064 C2065 1.370 . S
C2064 C2068 1.524 . S
C2065 C2057 1.503 . S
C2065 C2064 1.370 . S
C2065 C2066 1.403 . S
C2066 C2065 1.403 . S
C2066 C2067 1.404 . S
C2066 C2069 1.539 . S
C2067 C2063 1.408 . S
C2067 C2066 1.404 . S
C2067 H2079 0.930 . S
C2068 C2064 1.524 . S
C2068 H2080 0.956 . S
C2068 H2081 0.961 . S
C2068 H2082 0.961 . S
C2069 C2066 1.539 . S
C2069 H2083 0.958 . S
C2069 H2084 0.961 . S
C2069 H2085 0.960 . S
H2070 C2054 0.931 . S
H2071 C2059 0.929 . S
H2072 C2060 0.960 . S
H2073 C2060 0.962 . S
H2074 C2060 0.960 . S
H2075 C2061 0.961 . S
H2076 C2061 0.961 . S
H2077 C2061 0.961 . S
H2078 C2062 0.931 . S
H2079 C2067 0.930 . S
H2080 C2068 0.956 . S
H2081 C2068 0.961 . S
H2082 C2068 0.961 . S
H2083 C2069 0.958 . S
H2084 C2069 0.961 . S
H2085 C2069 0.960 . S
C2086 C2087 1.391 . S
C2086 C2088 1.432 . S
C2086 H2102 0.931 . S
C2087 C2086 1.391 . S
C2087 C2091 1.376 . S
C2088 C2086 1.432 . S
C2088 C2089 1.330 1_565 S
C2088 C2092 1.532 1_565 S
C2089 C2088 1.330 1_545 S
C2089 C2090 1.409 . S
C2089 C2097 1.503 . S
C2090 C2089 1.409 . S
C2090 C2091 1.377 1_545 S
C2090 C2093 1.527 . S
C2091 C2087 1.376 . S
C2091 C2090 1.377 1_565 S
C2091 H2103 0.929 . S
C2092 C2088 1.532 1_545 S
C2092 H2104 0.960 . S
C2092 H2105 0.962 . S
C2092 H2106 0.960 . S
C2093 C2090 1.527 . S
C2093 H2107 0.961 . S
C2093 H2108 0.961 . S
C2093 H2109 0.961 . S
C2094 C2095 1.370 . S
C2094 C2096 1.363 . S
C2094 H2110 0.931 . S
C2095 C2094 1.370 . S
C2095 C2099 1.408 . S
C2096 C2094 1.363 . S
C2096 C2097 1.370 . S
C2096 C2100 1.524 . S
C2097 C2089 1.503 . S
C2097 C2096 1.370 . S
C2097 C2098 1.403 . S
C2098 C2097 1.403 . S
C2098 C2099 1.404 . S
C2098 C2101 1.539 . S
C2099 C2095 1.408 . S
C2099 C2098 1.404 . S
C2099 H2111 0.930 . S
C2100 C2096 1.524 . S
C2100 H2112 0.956 . S
C2100 H2113 0.961 . S
C2100 H2114 0.961 . S
C2101 C2098 1.539 . S
C2101 H2115 0.958 . S
C2101 H2116 0.961 . S
C2101 H2117 0.960 . S
H2102 C2086 0.931 . S
H2103 C2091 0.929 . S
H2104 C2092 0.960 . S
H2105 C2092 0.962 . S
H2106 C2092 0.960 . S
H2107 C2093 0.961 . S
H2108 C2093 0.961 . S
H2109 C2093 0.961 . S
H2110 C2094 0.931 . S
H2111 C2099 0.930 . S
H2112 C2100 0.956 . S
H2113 C2100 0.961 . S
H2114 C2100 0.961 . S
H2115 C2101 0.958 . S
H2116 C2101 0.961 . S
H2117 C2101 0.960 . S
C2118 C2119 1.391 . S
C2118 C2120 1.394 . S
C2118 H2134 0.931 . S
C2119 C2118 1.391 . S
C2119 C2123 1.376 . S
C2120 C2118 1.394 . S
C2120 C2121 1.369 . S
C2120 C2124 1.531 . S
C2121 C2120 1.369 . S
C2121 C2122 1.410 . S
C2121 C2129 1.503 . S
C2122 C2121 1.410 . S
C2122 C2123 1.392 . S
C2122 C2125 1.511 . S
C2123 C2119 1.376 . S
C2123 C2122 1.392 . S
C2123 H2135 0.929 . S
C2124 C2120 1.531 . S
C2124 H2136 0.960 . S
C2124 H2137 0.962 . S
C2124 H2138 0.960 . S
C2125 C2122 1.511 . S
C2125 H2139 0.961 . S
C2125 H2140 0.961 . S
C2125 H2141 0.961 . S
C2126 C2127 1.370 . S
C2126 C2128 1.363 . S
C2126 H2142 0.931 . S
C2127 C2126 1.370 . S
C2127 C2131 1.408 . S
C2128 C2126 1.363 . S
C2128 C2129 1.370 . S
C2128 C2132 1.524 . S
C2129 C2121 1.503 . S
C2129 C2128 1.370 . S
C2129 C2130 1.403 . S
C2130 C2129 1.403 . S
C2130 C2131 1.404 . S
C2130 C2133 1.539 . S
C2131 C2127 1.408 . S
C2131 C2130 1.404 . S
C2131 H2143 0.930 . S
C2132 C2128 1.524 . S
C2132 H2144 0.956 . S
C2132 H2145 0.961 . S
C2132 H2146 0.961 . S
C2133 C2130 1.539 . S
C2133 H2147 0.958 . S
C2133 H2148 0.961 . S
C2133 H2149 0.960 . S
H2134 C2118 0.931 . S
H2135 C2123 0.929 . S
H2136 C2124 0.960 . S
H2137 C2124 0.962 . S
H2138 C2124 0.960 . S
H2139 C2125 0.961 . S
H2140 C2125 0.961 . S
H2141 C2125 0.961 . S
H2142 C2126 0.931 . S
H2143 C2131 0.930 . S
H2144 C2132 0.956 . S
H2145 C2132 0.961 . S
H2146 C2132 0.961 . S
H2147 C2133 0.958 . S
H2148 C2133 0.961 . S
H2149 C2133 0.960 . S
C2150 C2151 1.391 . S
C2150 C2152 1.394 . S
C2150 H2166 0.931 . S
C2151 C2150 1.391 . S
C2151 C2155 1.376 . S
C2152 C2150 1.394 . S
C2152 C2153 1.369 . S
C2152 C2156 1.531 . S
C2153 C2152 1.369 . S
C2153 C2154 1.410 . S
C2153 C2161 1.503 . S
C2154 C2153 1.410 . S
C2154 C2155 1.392 . S
C2154 C2157 1.511 . S
C2155 C2151 1.376 . S
C2155 C2154 1.392 . S
C2155 H2167 0.929 . S
C2156 C2152 1.531 . S
C2156 H2168 0.960 . S
C2156 H2169 0.962 . S
C2156 H2170 0.960 . S
C2157 C2154 1.511 . S
C2157 H2171 0.961 . S
C2157 H2172 0.961 . S
C2157 H2173 0.961 . S
C2158 C2159 1.370 . S
C2158 C2160 1.363 . S
C2158 H2174 0.931 . S
C2159 C2158 1.370 . S
C2159 C2163 1.408 . S
C2160 C2158 1.363 . S
C2160 C2161 1.370 . S
C2160 C2164 1.524 . S
C2161 C2153 1.503 . S
C2161 C2160 1.370 . S
C2161 C2162 1.403 . S
C2162 C2161 1.403 . S
C2162 C2163 1.404 . S
C2162 C2165 1.539 . S
C2163 C2159 1.408 . S
C2163 C2162 1.404 . S
C2163 H2175 0.930 . S
C2164 C2160 1.524 . S
C2164 H2176 0.956 . S
C2164 H2177 0.961 . S
C2164 H2178 0.961 . S
C2165 C2162 1.539 . S
C2165 H2179 0.958 . S
C2165 H2180 0.961 . S
C2165 H2181 0.960 . S
H2166 C2150 0.931 . S
H2167 C2155 0.929 . S
H2168 C2156 0.960 . S
H2169 C2156 0.962 . S
H2170 C2156 0.960 . S
H2171 C2157 0.961 . S
H2172 C2157 0.961 . S
H2173 C2157 0.961 . S
H2174 C2158 0.931 . S
H2175 C2163 0.930 . S
H2176 C2164 0.956 . S
H2177 C2164 0.961 . S
H2178 C2164 0.961 . S
H2179 C2165 0.958 . S
H2180 C2165 0.961 . S
H2181 C2165 0.960 . S
C2182 C2183 1.391 . S
C2182 C2184 1.394 . S
C2182 H2198 0.931 . S
C2183 C2182 1.391 . S
C2183 C2187 1.376 . S
C2184 C2182 1.394 . S
C2184 C2185 1.369 . S
C2184 C2188 1.531 . S
C2185 C2184 1.369 . S
C2185 C2186 1.410 . S
C2185 C2193 1.503 . S
C2186 C2185 1.410 . S
C2186 C2187 1.392 . S
C2186 C2189 1.511 . S
C2187 C2183 1.376 . S
C2187 C2186 1.392 . S
C2187 H2199 0.929 . S
C2188 C2184 1.531 . S
C2188 H2200 0.960 . S
C2188 H2201 0.962 . S
C2188 H2202 0.960 . S
C2189 C2186 1.511 . S
C2189 H2203 0.961 . S
C2189 H2204 0.961 . S
C2189 H2205 0.961 . S
C2190 C2191 1.370 . S
C2190 C2192 1.363 . S
C2190 H2206 0.931 . S
C2191 C2190 1.370 . S
C2191 C2195 1.408 . S
C2192 C2190 1.363 . S
C2192 C2193 1.370 . S
C2192 C2196 1.524 . S
C2193 C2185 1.503 . S
C2193 C2192 1.370 . S
C2193 C2194 1.403 . S
C2194 C2193 1.403 . S
C2194 C2195 1.404 . S
C2194 C2197 1.539 . S
C2195 C2191 1.408 . S
C2195 C2194 1.404 . S
C2195 H2207 0.930 . S
C2196 C2192 1.524 . S
C2196 H2208 0.956 . S
C2196 H2209 0.961 . S
C2196 H2210 0.961 . S
C2197 C2194 1.539 . S
C2197 H2211 0.958 . S
C2197 H2212 0.961 . S
C2197 H2213 0.960 . S
H2198 C2182 0.931 . S
H2199 C2187 0.929 . S
H2200 C2188 0.960 . S
H2201 C2188 0.962 . S
H2202 C2188 0.960 . S
H2203 C2189 0.961 . S
H2204 C2189 0.961 . S
H2205 C2189 0.961 . S
H2206 C2190 0.931 . S
H2207 C2195 0.930 . S
H2208 C2196 0.956 . S
H2209 C2196 0.961 . S
H2210 C2196 0.961 . S
H2211 C2197 0.958 . S
H2212 C2197 0.961 . S
H2213 C2197 0.960 . S
C2214 C2215 1.391 . S
C2214 C2216 1.394 . S
C2214 H2230 0.931 . S
C2215 C2214 1.391 . S
C2215 C2219 1.376 . S
C2216 C2214 1.394 . S
C2216 C2217 1.369 . S
C2216 C2220 1.531 . S
C2217 C2216 1.369 . S
C2217 C2218 1.410 . S
C2217 C2225 1.503 . S
C2218 C2217 1.410 . S
C2218 C2219 1.392 . S
C2218 C2221 1.511 . S
C2219 C2215 1.376 . S
C2219 C2218 1.392 . S
C2219 H2231 0.929 . S
C2220 C2216 1.531 . S
C2220 H2232 0.960 1_565 S
C2220 H2233 0.962 . S
C2220 H2234 0.960 1_565 S
C2221 C2218 1.511 . S
C2221 H2235 0.961 . S
C2221 H2236 0.961 . S
C2221 H2237 0.961 . S
C2222 C2223 1.370 . S
C2222 C2224 1.363 . S
C2222 H2238 0.931 . S
C2223 C2222 1.370 . S
C2223 C2227 1.408 1_565 S
C2224 C2222 1.363 . S
C2224 C2225 1.370 . S
C2224 C2228 1.524 . S
C2225 C2217 1.503 . S
C2225 C2224 1.370 . S
C2225 C2226 1.403 1_565 S
C2226 C2225 1.403 1_545 S
C2226 C2227 1.404 . S
C2226 C2229 1.539 . S
C2227 C2223 1.408 1_545 S
C2227 C2226 1.404 . S
C2227 H2239 0.930 . S
C2228 C2224 1.524 . S
C2228 H2240 0.956 . S
C2228 H2241 0.961 . S
C2228 H2242 0.961 . S
C2229 C2226 1.539 . S
C2229 H2243 0.958 . S
C2229 H2244 0.961 . S
C2229 H2245 0.960 . S
H2230 C2214 0.931 . S
H2231 C2219 0.929 . S
H2232 C2220 0.960 1_545 S
H2233 C2220 0.962 . S
H2234 C2220 0.960 1_545 S
H2235 C2221 0.961 . S
H2236 C2221 0.961 . S
H2237 C2221 0.961 . S
H2238 C2222 0.931 . S
H2239 C2227 0.930 . S
H2240 C2228 0.956 . S
H2241 C2228 0.961 . S
H2242 C2228 0.961 . S
H2243 C2229 0.958 . S
H2244 C2229 0.961 . S
H2245 C2229 0.960 . S
C2246 C2247 1.391 . S
C2246 C2248 1.394 . S
C2246 H2262 0.931 . S
C2247 C2246 1.391 . S
C2247 C2251 1.376 . S
C2248 C2246 1.394 . S
C2248 C2249 1.369 . S
C2248 C2252 1.531 . S
C2249 C2248 1.369 . S
C2249 C2250 1.410 . S
C2249 C2257 1.503 . S
C2250 C2249 1.410 . S
C2250 C2251 1.392 . S
C2250 C2253 1.511 1_455 S
C2251 C2247 1.376 . S
C2251 C2250 1.392 . S
C2251 H2263 0.929 . S
C2252 C2248 1.531 . S
C2252 H2264 0.960 1_455 S
C2252 H2265 0.962 . S
C2252 H2266 0.960 1_455 S
C2253 C2250 1.511 1_655 S
C2253 H2267 0.961 1_655 S
C2253 H2268 0.960 1_655 S
C2253 H2269 0.962 . S
C2254 C2255 1.370 . S
C2254 C2256 1.363 . S
C2254 H2270 0.931 . S
C2255 C2254 1.370 . S
C2255 C2259 1.408 1_455 S
C2256 C2254 1.363 . S
C2256 C2257 1.370 . S
C2256 C2260 1.524 . S
C2257 C2249 1.503 . S
C2257 C2256 1.370 . S
C2257 C2258 1.403 1_455 S
C2258 C2257 1.403 1_655 S
C2258 C2259 1.404 . S
C2258 C2261 1.539 . S
C2259 C2255 1.408 1_655 S
C2259 C2258 1.404 . S
C2259 H2271 0.930 . S
C2260 C2256 1.524 . S
C2260 H2272 0.956 . S
C2260 H2273 0.961 . S
C2260 H2274 0.961 . S
C2261 C2258 1.539 . S
C2261 H2275 0.958 . S
C2261 H2276 0.961 . S
C2261 H2277 0.960 . S
H2262 C2246 0.931 . S
H2263 C2251 0.929 . S
H2264 C2252 0.960 1_655 S
H2265 C2252 0.962 . S
H2266 C2252 0.960 1_655 S
H2267 C2253 0.961 1_455 S
H2268 C2253 0.960 1_455 S
H2269 C2253 0.962 . S
H2270 C2254 0.931 . S
H2271 C2259 0.930 . S
H2272 C2260 0.956 . S
H2273 C2260 0.961 . S
H2274 C2260 0.961 . S
H2275 C2261 0.958 . S
H2276 C2261 0.961 . S
H2277 C2261 0.960 . S
C2278 C2279 1.391 . S
C2278 C2280 1.394 . S
C2278 H2294 0.931 . S
C2279 C2278 1.391 . S
C2279 C2283 1.376 . S
C2280 C2278 1.394 . S
C2280 C2281 1.369 . S
C2280 C2284 1.531 . S
C2281 C2280 1.369 . S
C2281 C2282 1.410 . S
C2281 C2289 1.503 . S
C2282 C2281 1.410 . S
C2282 C2283 1.392 . S
C2282 C2285 1.511 . S
C2283 C2279 1.376 . S
C2283 C2282 1.392 . S
C2283 H2295 0.929 . S
C2284 C2280 1.531 . S
C2284 H2296 0.960 . S
C2284 H2297 0.962 . S
C2284 H2298 0.960 . S
C2285 C2282 1.511 . S
C2285 H2299 0.961 . S
C2285 H2300 0.961 . S
C2285 H2301 0.961 . S
C2286 C2287 1.370 . S
C2286 C2288 1.363 . S
C2286 H2302 0.931 . S
C2287 C2286 1.370 . S
C2287 C2291 1.408 . S
C2288 C2286 1.363 . S
C2288 C2289 1.370 . S
C2288 C2292 1.524 . S
C2289 C2281 1.503 . S
C2289 C2288 1.370 . S
C2289 C2290 1.403 . S
C2290 C2289 1.403 . S
C2290 C2291 1.404 . S
C2290 C2293 1.539 . S
C2291 C2287 1.408 . S
C2291 C2290 1.404 . S
C2291 H2303 0.930 . S
C2292 C2288 1.524 . S
C2292 H2304 0.956 . S
C2292 H2305 0.961 . S
C2292 H2306 0.961 . S
C2293 C2290 1.539 . S
C2293 H2307 0.958 . S
C2293 H2308 0.961 . S
C2293 H2309 0.960 . S
H2294 C2278 0.931 . S
H2295 C2283 0.929 . S
H2296 C2284 0.960 . S
H2297 C2284 0.962 . S
H2298 C2284 0.960 . S
H2299 C2285 0.961 . S
H2300 C2285 0.961 . S
H2301 C2285 0.961 . S
H2302 C2286 0.931 . S
H2303 C2291 0.930 . S
H2304 C2292 0.956 . S
H2305 C2292 0.961 . S
H2306 C2292 0.961 . S
H2307 C2293 0.958 . S
H2308 C2293 0.961 . S
H2309 C2293 0.960 . S
C2310 C2311 1.391 . S
C2310 C2312 1.394 . S
C2310 H2326 0.931 . S
C2311 C2310 1.391 . S
C2311 C2315 1.376 1_655 S
C2312 C2310 1.394 . S
C2312 C2313 1.369 . S
C2312 C2316 1.531 . S
C2313 C2312 1.369 . S
C2313 C2314 1.410 1_655 S
C2313 C2321 1.503 . S
C2314 C2313 1.410 1_455 S
C2314 C2315 1.392 . S
C2314 C2317 1.511 . S
C2315 C2311 1.376 1_455 S
C2315 C2314 1.392 . S
C2315 H2327 0.929 . S
C2316 C2312 1.531 . S
C2316 H2328 0.960 . S
C2316 H2329 0.962 . S
C2316 H2330 0.960 . S
C2317 C2314 1.511 . S
C2317 H2331 0.961 . S
C2317 H2332 0.961 . S
C2317 H2333 0.961 . S
C2318 C2319 1.370 . S
C2318 C2320 1.363 . S
C2318 H2334 0.931 . S
C2319 C2318 1.370 . S
C2319 C2323 1.408 . S
C2320 C2318 1.363 . S
C2320 C2321 1.370 . S
C2320 C2324 1.524 . S
C2321 C2313 1.503 . S
C2321 C2320 1.370 . S
C2321 C2322 1.403 . S
C2322 C2321 1.403 . S
C2322 C2323 1.404 . S
C2322 C2325 1.539 . S
C2323 C2319 1.408 . S
C2323 C2322 1.404 . S
C2323 H2335 0.930 . S
C2324 C2320 1.524 . S
C2324 H2336 0.956 . S
C2324 H2337 0.961 1_655 S
C2324 H2338 0.961 . S
C2325 C2322 1.539 . S
C2325 H2339 0.958 . S
C2325 H2340 0.961 1_655 S
C2325 H2341 0.960 1_655 S
H2326 C2310 0.931 . S
H2327 C2315 0.929 . S
H2328 C2316 0.960 . S
H2329 C2316 0.962 . S
H2330 C2316 0.960 . S
H2331 C2317 0.961 . S
H2332 C2317 0.961 . S
H2333 C2317 0.961 . S
H2334 C2318 0.931 . S
H2335 C2323 0.930 . S
H2336 C2324 0.956 . S
H2337 C2324 0.961 1_455 S
H2338 C2324 0.961 . S
H2339 C2325 0.958 . S
H2340 C2325 0.961 1_455 S
H2341 C2325 0.960 1_455 S
C2342 C2343 1.391 . S
C2342 C2344 1.394 . S
C2342 H2358 0.931 . S
C2343 C2342 1.391 . S
C2343 C2347 1.376 . S
C2344 C2342 1.394 . S
C2344 C2345 1.369 . S
C2344 C2348 1.531 . S
C2345 C2344 1.369 . S
C2345 C2346 1.410 . S
C2345 C2353 1.503 . S
C2346 C2345 1.410 . S
C2346 C2347 1.392 . S
C2346 C2349 1.511 . S
C2347 C2343 1.376 . S
C2347 C2346 1.392 . S
C2347 H2359 0.929 . S
C2348 C2344 1.531 . S
C2348 H2360 0.960 . S
C2348 H2361 0.962 . S
C2348 H2362 0.960 . S
C2349 C2346 1.511 . S
C2349 H2363 0.961 . S
C2349 H2364 0.961 . S
C2349 H2365 0.961 . S
C2350 C2351 1.370 . S
C2350 C2352 1.363 . S
C2350 H2366 0.931 . S
C2351 C2350 1.370 . S
C2351 C2355 1.408 . S
C2352 C2350 1.363 . S
C2352 C2353 1.370 . S
C2352 C2356 1.524 . S
C2353 C2345 1.503 . S
C2353 C2352 1.370 . S
C2353 C2354 1.403 . S
C2354 C2353 1.403 . S
C2354 C2355 1.404 . S
C2354 C2357 1.539 . S
C2355 C2351 1.408 . S
C2355 C2354 1.404 . S
C2355 H2367 0.930 . S
C2356 C2352 1.524 . S
C2356 H2368 0.956 . S
C2356 H2369 0.961 . S
C2356 H2370 0.961 . S
C2357 C2354 1.539 . S
C2357 H2371 0.958 . S
C2357 H2372 0.961 . S
C2357 H2373 0.960 . S
H2358 C2342 0.931 . S
H2359 C2347 0.929 . S
H2360 C2348 0.960 . S
H2361 C2348 0.962 . S
H2362 C2348 0.960 . S
H2363 C2349 0.961 . S
H2364 C2349 0.961 . S
H2365 C2349 0.961 . S
H2366 C2350 0.931 . S
H2367 C2355 0.930 . S
H2368 C2356 0.956 . S
H2369 C2356 0.961 . S
H2370 C2356 0.961 . S
H2371 C2357 0.958 . S
H2372 C2357 0.961 . S
H2373 C2357 0.960 . S
C2374 C2375 1.391 . S
C2374 C2376 1.394 . S
C2374 H2390 0.931 . S
C2375 C2374 1.391 . S
C2375 C2379 1.376 . S
C2376 C2374 1.394 . S
C2376 C2377 1.369 . S
C2376 C2380 1.531 . S
C2377 C2376 1.369 . S
C2377 C2378 1.410 . S
C2377 C2385 1.503 . S
C2378 C2377 1.410 . S
C2378 C2379 1.392 . S
C2378 C2381 1.511 1_545 S
C2379 C2375 1.376 . S
C2379 C2378 1.392 . S
C2379 H2391 0.929 . S
C2380 C2376 1.531 . S
C2380 H2392 0.960 . S
C2380 H2393 0.962 . S
C2380 H2394 0.960 . S
C2381 C2378 1.511 1_565 S
C2381 H2395 0.961 . S
C2381 H2396 0.961 . S
C2381 H2397 0.961 . S
C2382 C2383 1.379 . S
C2382 C2384 1.368 . S
C2382 H2398 0.917 1_545 S
C2383 C2382 1.379 . S
C2383 C2387 1.408 . S
C2384 C2382 1.368 . S
C2384 C2385 1.370 . S
C2384 C2388 1.524 1_545 S
C2385 C2377 1.503 . S
C2385 C2384 1.370 . S
C2385 C2386 1.403 . S
C2386 C2385 1.403 . S
C2386 C2387 1.404 . S
C2386 C2389 1.539 . S
C2387 C2383 1.408 . S
C2387 C2386 1.404 . S
C2387 H2399 0.930 . S
C2388 C2384 1.524 1_565 S
C2388 H2400 0.956 1_565 S
C2388 H2401 0.961 . S
C2388 H2402 0.961 . S
C2389 C2386 1.539 . S
C2389 H2403 0.958 . S
C2389 H2404 0.961 . S
C2389 H2405 0.960 . S
H2390 C2374 0.931 . S
H2391 C2379 0.929 . S
H2392 C2380 0.960 . S
H2393 C2380 0.962 . S
H2394 C2380 0.960 . S
H2395 C2381 0.961 . S
H2396 C2381 0.961 . S
H2397 C2381 0.961 . S
H2398 C2382 0.917 1_565 S
H2399 C2387 0.930 . S
H2400 C2388 0.956 1_545 S
H2401 C2388 0.961 . S
H2402 C2388 0.961 . S
H2403 C2389 0.958 . S
H2404 C2389 0.961 . S
H2405 C2389 0.960 . S
C2406 C2407 1.391 . S
C2406 C2408 1.394 . S
C2406 H2422 0.931 . S
C2407 C2406 1.391 . S
C2407 C2411 1.376 . S
C2408 C2406 1.394 . S
C2408 C2409 1.369 . S
C2408 C2412 1.531 . S
C2409 C2408 1.369 . S
C2409 C2410 1.410 . S
C2409 C2417 1.503 . S
C2410 C2409 1.410 . S
C2410 C2411 1.392 . S
C2410 C2413 1.511 . S
C2411 C2407 1.376 . S
C2411 C2410 1.392 . S
C2411 H2423 0.929 . S
C2412 C2408 1.531 . S
C2412 H2424 0.960 . S
C2412 H2425 0.962 . S
C2412 H2426 0.960 . S
C2413 C2410 1.511 . S
C2413 H2427 0.961 . S
C2413 H2428 0.961 . S
C2413 H2429 0.961 . S
C2414 C2415 1.370 . S
C2414 C2416 1.363 . S
C2414 H2430 0.931 . S
C2415 C2414 1.370 . S
C2415 C2419 1.408 . S
C2416 C2414 1.363 . S
C2416 C2417 1.370 . S
C2416 C2420 1.524 . S
C2417 C2409 1.503 . S
C2417 C2416 1.370 . S
C2417 C2418 1.403 . S
C2418 C2417 1.403 . S
C2418 C2419 1.404 . S
C2418 C2421 1.539 . S
C2419 C2415 1.408 . S
C2419 C2418 1.404 . S
C2419 H2431 0.930 . S
C2420 C2416 1.524 . S
C2420 H2432 0.956 . S
C2420 H2433 0.961 . S
C2420 H2434 0.961 . S
C2421 C2418 1.539 . S
C2421 H2435 0.958 . S
C2421 H2436 0.961 . S
C2421 H2437 0.960 . S
H2422 C2406 0.931 . S
H2423 C2411 0.929 . S
H2424 C2412 0.960 . S
H2425 C2412 0.962 . S
H2426 C2412 0.960 . S
H2427 C2413 0.961 . S
H2428 C2413 0.961 . S
H2429 C2413 0.961 . S
H2430 C2414 0.931 . S
H2431 C2419 0.930 . S
H2432 C2420 0.956 . S
H2433 C2420 0.961 . S
H2434 C2420 0.961 . S
H2435 C2421 0.958 . S
H2436 C2421 0.961 . S
H2437 C2421 0.960 . S
C2438 C2439 1.391 . S
C2438 C2440 1.394 . S
C2438 H2454 0.931 . S
C2439 C2438 1.391 . S
C2439 C2443 1.376 . S
C2440 C2438 1.394 . S
C2440 C2441 1.369 . S
C2440 C2444 1.531 . S
C2441 C2440 1.369 . S
C2441 C2442 1.410 . S
C2441 C2449 1.503 . S
C2442 C2441 1.410 . S
C2442 C2443 1.392 . S
C2442 C2445 1.511 . S
C2443 C2439 1.376 . S
C2443 C2442 1.392 . S
C2443 H2455 0.929 . S
C2444 C2440 1.531 . S
C2444 H2456 0.960 . S
C2444 H2457 0.962 . S
C2444 H2458 0.960 . S
C2445 C2442 1.511 . S
C2445 H2459 0.961 . S
C2445 H2460 0.961 . S
C2445 H2461 0.961 . S
C2446 C2447 1.370 . S
C2446 C2448 1.363 . S
C2446 H2462 0.931 . S
C2447 C2446 1.370 . S
C2447 C2451 1.408 . S
C2448 C2446 1.363 . S
C2448 C2449 1.370 . S
C2448 C2452 1.524 . S
C2449 C2441 1.503 . S
C2449 C2448 1.370 . S
C2449 C2450 1.403 . S
C2450 C2449 1.403 . S
C2450 C2451 1.404 . S
C2450 C2453 1.539 . S
C2451 C2447 1.408 . S
C2451 C2450 1.404 . S
C2451 H2463 0.930 . S
C2452 C2448 1.524 . S
C2452 H2464 0.956 . S
C2452 H2465 0.961 . S
C2452 H2466 0.961 . S
C2453 C2450 1.539 . S
C2453 H2467 0.958 . S
C2453 H2468 0.961 . S
C2453 H2469 0.960 . S
H2454 C2438 0.931 . S
H2455 C2443 0.929 . S
H2456 C2444 0.960 . S
H2457 C2444 0.962 . S
H2458 C2444 0.960 . S
H2459 C2445 0.961 . S
H2460 C2445 0.961 . S
H2461 C2445 0.961 . S
H2462 C2446 0.931 . S
H2463 C2451 0.930 . S
H2464 C2452 0.956 . S
H2465 C2452 0.961 . S
H2466 C2452 0.961 . S
H2467 C2453 0.958 . S
H2468 C2453 0.961 . S
H2469 C2453 0.960 . S
C2470 C2471 1.391 . S
C2470 C2472 1.394 . S
C2470 H2486 0.931 . S
C2471 C2470 1.391 . S
C2471 C2475 1.376 . S
C2472 C2470 1.394 . S
C2472 C2473 1.369 . S
C2472 C2476 1.531 . S
C2473 C2472 1.369 . S
C2473 C2474 1.410 . S
C2473 C2481 1.503 . S
C2474 C2473 1.410 . S
C2474 C2475 1.392 . S
C2474 C2477 1.511 . S
C2475 C2471 1.376 . S
C2475 C2474 1.392 . S
C2475 H2487 0.929 . S
C2476 C2472 1.531 . S
C2476 H2488 0.960 . S
C2476 H2489 0.962 . S
C2476 H2490 0.960 . S
C2477 C2474 1.511 . S
C2477 H2491 0.961 . S
C2477 H2492 0.961 . S
C2477 H2493 0.961 . S
C2478 C2479 1.370 . S
C2478 C2480 1.363 . S
C2478 H2494 0.931 . S
C2479 C2478 1.370 . S
C2479 C2483 1.408 . S
C2480 C2478 1.363 . S
C2480 C2481 1.370 . S
C2480 C2484 1.524 . S
C2481 C2473 1.503 . S
C2481 C2480 1.370 . S
C2481 C2482 1.403 . S
C2482 C2481 1.403 . S
C2482 C2483 1.404 . S
C2482 C2485 1.539 . S
C2483 C2479 1.408 . S
C2483 C2482 1.404 . S
C2483 H2495 0.930 . S
C2484 C2480 1.524 . S
C2484 H2496 0.956 . S
C2484 H2497 0.961 . S
C2484 H2498 0.961 . S
C2485 C2482 1.539 . S
C2485 H2499 0.958 . S
C2485 H2500 0.961 . S
C2485 H2501 0.960 . S
H2486 C2470 0.931 . S
H2487 C2475 0.929 . S
H2488 C2476 0.960 . S
H2489 C2476 0.962 . S
H2490 C2476 0.960 . S
H2491 C2477 0.961 . S
H2492 C2477 0.961 . S
H2493 C2477 0.961 . S
H2494 C2478 0.931 . S
H2495 C2483 0.930 . S
H2496 C2484 0.956 . S
H2497 C2484 0.961 . S
H2498 C2484 0.961 . S
H2499 C2485 0.958 . S
H2500 C2485 0.961 . S
H2501 C2485 0.960 . S
C2502 C2503 1.391 . S
C2502 C2504 1.394 . S
C2502 H2518 0.931 . S
C2503 C2502 1.391 . S
C2503 C2507 1.376 . S
C2504 C2502 1.394 . S
C2504 C2505 1.369 . S
C2504 C2508 1.531 . S
C2505 C2504 1.369 . S
C2505 C2506 1.410 . S
C2505 C2513 1.503 . S
C2506 C2505 1.410 . S
C2506 C2507 1.392 . S
C2506 C2509 1.511 . S
C2507 C2503 1.376 . S
C2507 C2506 1.392 . S
C2507 H2519 0.929 . S
C2508 C2504 1.531 . S
C2508 H2520 0.960 . S
C2508 H2521 0.962 . S
C2508 H2522 0.960 . S
C2509 C2506 1.511 . S
C2509 H2523 0.961 . S
C2509 H2524 0.961 . S
C2509 H2525 0.961 . S
C2510 C2511 1.370 . S
C2510 C2512 1.363 . S
C2510 H2526 0.931 . S
C2511 C2510 1.370 . S
C2511 C2515 1.408 . S
C2512 C2510 1.363 . S
C2512 C2513 1.370 . S
C2512 C2516 1.524 . S
C2513 C2505 1.503 . S
C2513 C2512 1.370 . S
C2513 C2514 1.403 . S
C2514 C2513 1.403 . S
C2514 C2515 1.404 . S
C2514 C2517 1.539 . S
C2515 C2511 1.408 . S
C2515 C2514 1.404 . S
C2515 H2527 0.930 . S
C2516 C2512 1.524 . S
C2516 H2528 0.956 . S
C2516 H2529 0.961 . S
C2516 H2530 0.961 . S
C2517 C2514 1.539 . S
C2517 H2531 0.958 . S
C2517 H2532 0.961 . S
C2517 H2533 0.960 . S
H2518 C2502 0.931 . S
H2519 C2507 0.929 . S
H2520 C2508 0.960 . S
H2521 C2508 0.962 . S
H2522 C2508 0.960 . S
H2523 C2509 0.961 . S
H2524 C2509 0.961 . S
H2525 C2509 0.961 . S
H2526 C2510 0.931 . S
H2527 C2515 0.930 . S
H2528 C2516 0.956 . S
H2529 C2516 0.961 . S
H2530 C2516 0.961 . S
H2531 C2517 0.958 . S
H2532 C2517 0.961 . S
H2533 C2517 0.960 . S
C2534 C2535 1.391 . S
C2534 C2536 1.394 . S
C2534 H2550 0.931 . S
C2535 C2534 1.391 . S
C2535 C2539 1.376 . S
C2536 C2534 1.394 . S
C2536 C2537 1.369 . S
C2536 C2540 1.531 . S
C2537 C2536 1.369 . S
C2537 C2538 1.410 . S
C2537 C2545 1.503 . S
C2538 C2537 1.410 . S
C2538 C2539 1.392 . S
C2538 C2541 1.511 . S
C2539 C2535 1.376 . S
C2539 C2538 1.392 . S
C2539 H2551 0.929 . S
C2540 C2536 1.531 . S
C2540 H2552 0.960 . S
C2540 H2553 0.962 . S
C2540 H2554 0.960 . S
C2541 C2538 1.511 . S
C2541 H2555 0.961 . S
C2541 H2556 0.961 . S
C2541 H2557 0.961 . S
C2542 C2543 1.370 . S
C2542 C2544 1.363 . S
C2542 H2558 0.931 . S
C2543 C2542 1.370 . S
C2543 C2547 1.408 . S
C2544 C2542 1.363 . S
C2544 C2545 1.370 . S
C2544 C2548 1.524 . S
C2545 C2537 1.503 . S
C2545 C2544 1.370 . S
C2545 C2546 1.403 . S
C2546 C2545 1.403 . S
C2546 C2547 1.404 . S
C2546 C2549 1.539 . S
C2547 C2543 1.408 . S
C2547 C2546 1.404 . S
C2547 H2559 0.930 . S
C2548 C2544 1.524 . S
C2548 H2560 0.956 . S
C2548 H2561 0.961 . S
C2548 H2562 0.961 . S
C2549 C2546 1.539 . S
C2549 H2563 0.958 . S
C2549 H2564 0.961 . S
C2549 H2565 0.960 . S
H2550 C2534 0.931 . S
H2551 C2539 0.929 . S
H2552 C2540 0.960 . S
H2553 C2540 0.962 . S
H2554 C2540 0.960 . S
H2555 C2541 0.961 . S
H2556 C2541 0.961 . S
H2557 C2541 0.961 . S
H2558 C2542 0.931 . S
H2559 C2547 0.930 . S
H2560 C2548 0.956 . S
H2561 C2548 0.961 . S
H2562 C2548 0.961 . S
H2563 C2549 0.958 . S
H2564 C2549 0.961 . S
H2565 C2549 0.960 . S
C2566 C2567 1.391 . S
C2566 C2568 1.394 . S
C2566 H2582 0.931 . S
C2567 C2566 1.391 . S
C2567 C2571 1.376 . S
C2568 C2566 1.394 . S
C2568 C2569 1.369 . S
C2568 C2572 1.531 . S
C2569 C2568 1.369 . S
C2569 C2570 1.410 . S
C2569 C2577 1.503 . S
C2570 C2569 1.410 . S
C2570 C2571 1.392 . S
C2570 C2573 1.511 . S
C2571 C2567 1.376 . S
C2571 C2570 1.392 . S
C2571 H2583 0.929 . S
C2572 C2568 1.531 . S
C2572 H2584 0.960 . S
C2572 H2585 0.962 . S
C2572 H2586 0.960 . S
C2573 C2570 1.511 . S
C2573 H2587 0.961 . S
C2573 H2588 0.961 . S
C2573 H2589 0.961 . S
C2574 C2575 1.370 . S
C2574 C2576 1.363 . S
C2574 H2590 0.931 . S
C2575 C2574 1.370 . S
C2575 C2579 1.408 . S
C2576 C2574 1.363 . S
C2576 C2577 1.370 . S
C2576 C2580 1.524 . S
C2577 C2569 1.503 . S
C2577 C2576 1.370 . S
C2577 C2578 1.403 . S
C2578 C2577 1.403 . S
C2578 C2579 1.404 . S
C2578 C2581 1.539 . S
C2579 C2575 1.408 . S
C2579 C2578 1.404 . S
C2579 H2591 0.930 . S
C2580 C2576 1.524 . S
C2580 H2592 0.956 . S
C2580 H2593 0.961 . S
C2580 H2594 0.961 . S
C2581 C2578 1.539 . S
C2581 H2595 0.958 . S
C2581 H2596 0.961 . S
C2581 H2597 0.960 . S
H2582 C2566 0.931 . S
H2583 C2571 0.929 . S
H2584 C2572 0.960 . S
H2585 C2572 0.962 . S
H2586 C2572 0.960 . S
H2587 C2573 0.961 . S
H2588 C2573 0.961 . S
H2589 C2573 0.961 . S
H2590 C2574 0.931 . S
H2591 C2579 0.930 . S
H2592 C2580 0.956 . S
H2593 C2580 0.961 . S
H2594 C2580 0.961 . S
H2595 C2581 0.958 . S
H2596 C2581 0.961 . S
H2597 C2581 0.960 . S
C2598 C2599 1.391 . S
C2598 C2600 1.394 . S
C2598 H2614 0.931 . S
C2599 C2598 1.391 . S
C2599 C2603 1.376 . S
C2600 C2598 1.394 . S
C2600 C2601 1.369 . S
C2600 C2604 1.531 . S
C2601 C2600 1.369 . S
C2601 C2602 1.410 . S
C2601 C2609 1.503 . S
C2602 C2601 1.410 . S
C2602 C2603 1.392 . S
C2602 C2605 1.511 . S
C2603 C2599 1.376 . S
C2603 C2602 1.392 . S
C2603 H2615 0.929 . S
C2604 C2600 1.531 . S
C2604 H2616 0.960 . S
C2604 H2617 0.962 . S
C2604 H2618 0.960 . S
C2605 C2602 1.511 . S
C2605 H2619 0.961 . S
C2605 H2620 0.961 . S
C2605 H2621 0.961 . S
C2606 C2607 1.370 . S
C2606 C2608 1.363 . S
C2606 H2622 0.931 . S
C2607 C2606 1.370 . S
C2607 C2611 1.408 . S
C2608 C2606 1.363 . S
C2608 C2609 1.370 . S
C2608 C2612 1.524 . S
C2609 C2601 1.503 . S
C2609 C2608 1.370 . S
C2609 C2610 1.403 . S
C2610 C2609 1.403 . S
C2610 C2611 1.404 . S
C2610 C2613 1.539 . S
C2611 C2607 1.408 . S
C2611 C2610 1.404 . S
C2611 H2623 0.930 . S
C2612 C2608 1.524 . S
C2612 H2624 0.956 . S
C2612 H2625 0.961 . S
C2612 H2626 0.961 . S
C2613 C2610 1.539 . S
C2613 H2627 0.958 . S
C2613 H2628 0.961 . S
C2613 H2629 0.960 . S
H2614 C2598 0.931 . S
H2615 C2603 0.929 . S
H2616 C2604 0.960 . S
H2617 C2604 0.962 . S
H2618 C2604 0.960 . S
H2619 C2605 0.961 . S
H2620 C2605 0.961 . S
H2621 C2605 0.961 . S
H2622 C2606 0.931 . S
H2623 C2611 0.930 . S
H2624 C2612 0.956 . S
H2625 C2612 0.961 . S
H2626 C2612 0.961 . S
H2627 C2613 0.958 . S
H2628 C2613 0.961 . S
H2629 C2613 0.960 . S
C2630 C2631 1.391 . S
C2630 C2632 1.394 . S
C2630 H2646 0.931 . S
C2631 C2630 1.391 . S
C2631 C2635 1.376 . S
C2632 C2630 1.394 . S
C2632 C2633 1.369 . S
C2632 C2636 1.531 . S
C2633 C2632 1.369 . S
C2633 C2634 1.410 . S
C2633 C2641 1.503 . S
C2634 C2633 1.410 . S
C2634 C2635 1.392 . S
C2634 C2637 1.511 . S
C2635 C2631 1.376 . S
C2635 C2634 1.392 . S
C2635 H2647 0.929 . S
C2636 C2632 1.531 . S
C2636 H2648 0.960 . S
C2636 H2649 0.962 . S
C2636 H2650 0.960 . S
C2637 C2634 1.511 . S
C2637 H2651 0.961 . S
C2637 H2652 0.961 . S
C2637 H2653 0.961 . S
C2638 C2639 1.370 . S
C2638 C2640 1.363 . S
C2638 H2654 0.931 . S
C2639 C2638 1.370 . S
C2639 C2643 1.408 . S
C2640 C2638 1.363 . S
C2640 C2641 1.370 . S
C2640 C2644 1.524 . S
C2641 C2633 1.503 . S
C2641 C2640 1.370 . S
C2641 C2642 1.403 . S
C2642 C2641 1.403 . S
C2642 C2643 1.404 . S
C2642 C2645 1.539 . S
C2643 C2639 1.408 . S
C2643 C2642 1.404 . S
C2643 H2655 0.930 . S
C2644 C2640 1.524 . S
C2644 H2656 0.956 . S
C2644 H2657 0.961 . S
C2644 H2658 0.961 . S
C2645 C2642 1.539 . S
C2645 H2659 0.958 . S
C2645 H2660 0.961 . S
C2645 H2661 0.960 . S
H2646 C2630 0.931 . S
H2647 C2635 0.929 . S
H2648 C2636 0.960 . S
H2649 C2636 0.962 . S
H2650 C2636 0.960 . S
H2651 C2637 0.961 . S
H2652 C2637 0.961 . S
H2653 C2637 0.961 . S
H2654 C2638 0.931 . S
H2655 C2643 0.930 . S
H2656 C2644 0.956 . S
H2657 C2644 0.961 . S
H2658 C2644 0.961 . S
H2659 C2645 0.958 . S
H2660 C2645 0.961 . S
H2661 C2645 0.960 . S
C2662 C2663 1.391 . S
C2662 C2664 1.394 . S
C2662 H2678 0.931 . S
C2663 C2662 1.391 . S
C2663 C2667 1.376 . S
C2664 C2662 1.394 . S
C2664 C2665 1.369 . S
C2664 C2668 1.531 . S
C2665 C2664 1.369 . S
C2665 C2666 1.410 . S
C2665 C2673 1.503 . S
C2666 C2665 1.410 . S
C2666 C2667 1.392 . S
C2666 C2669 1.511 . S
C2667 C2663 1.376 . S
C2667 C2666 1.392 . S
C2667 H2679 0.929 . S
C2668 C2664 1.531 . S
C2668 H2680 0.960 . S
C2668 H2681 0.962 . S
C2668 H2682 0.960 . S
C2669 C2666 1.511 . S
C2669 H2683 0.961 . S
C2669 H2684 0.961 . S
C2669 H2685 0.961 . S
C2670 C2671 1.370 . S
C2670 C2672 1.363 . S
C2670 H2686 0.931 . S
C2671 C2670 1.370 . S
C2671 C2675 1.408 . S
C2672 C2670 1.363 . S
C2672 C2673 1.370 . S
C2672 C2676 1.524 . S
C2673 C2665 1.503 . S
C2673 C2672 1.370 . S
C2673 C2674 1.403 . S
C2674 C2673 1.403 . S
C2674 C2675 1.404 . S
C2674 C2677 1.539 . S
C2675 C2671 1.408 . S
C2675 C2674 1.404 . S
C2675 H2687 0.930 . S
C2676 C2672 1.524 . S
C2676 H2688 0.956 . S
C2676 H2689 0.961 . S
C2676 H2690 0.961 . S
C2677 C2674 1.539 . S
C2677 H2691 0.958 . S
C2677 H2692 0.961 . S
C2677 H2693 0.960 . S
H2678 C2662 0.931 . S
H2679 C2667 0.929 . S
H2680 C2668 0.960 . S
H2681 C2668 0.962 . S
H2682 C2668 0.960 . S
H2683 C2669 0.961 . S
H2684 C2669 0.961 . S
H2685 C2669 0.961 . S
H2686 C2670 0.931 . S
H2687 C2675 0.930 . S
H2688 C2676 0.956 . S
H2689 C2676 0.961 . S
H2690 C2676 0.961 . S
H2691 C2677 0.958 . S
H2692 C2677 0.961 . S
H2693 C2677 0.960 . S
C2694 C2695 1.391 . S
C2694 C2696 1.394 . S
C2694 H2710 0.931 . S
C2695 C2694 1.391 . S
C2695 C2699 1.376 . S
C2696 C2694 1.394 . S
C2696 C2697 1.369 . S
C2696 C2700 1.531 . S
C2697 C2696 1.369 . S
C2697 C2698 1.410 . S
C2697 C2705 1.503 . S
C2698 C2697 1.410 . S
C2698 C2699 1.392 . S
C2698 C2701 1.511 . S
C2699 C2695 1.376 . S
C2699 C2698 1.392 . S
C2699 H2711 0.929 . S
C2700 C2696 1.531 . S
C2700 H2712 0.960 . S
C2700 H2713 0.962 . S
C2700 H2714 0.960 . S
C2701 C2698 1.511 . S
C2701 H2715 0.961 . S
C2701 H2716 0.961 . S
C2701 H2717 0.961 . S
C2702 C2703 1.370 . S
C2702 C2704 1.363 . S
C2702 H2718 0.931 . S
C2703 C2702 1.370 . S
C2703 C2707 1.408 . S
C2704 C2702 1.363 . S
C2704 C2705 1.370 . S
C2704 C2708 1.524 . S
C2705 C2697 1.503 . S
C2705 C2704 1.370 . S
C2705 C2706 1.403 . S
C2706 C2705 1.403 . S
C2706 C2707 1.404 . S
C2706 C2709 1.539 . S
C2707 C2703 1.408 . S
C2707 C2706 1.404 . S
C2707 H2719 0.930 . S
C2708 C2704 1.524 . S
C2708 H2720 0.956 . S
C2708 H2721 0.961 . S
C2708 H2722 0.961 . S
C2709 C2706 1.539 . S
C2709 H2723 0.958 . S
C2709 H2724 0.961 . S
C2709 H2725 0.960 . S
H2710 C2694 0.931 . S
H2711 C2699 0.929 . S
H2712 C2700 0.960 . S
H2713 C2700 0.962 . S
H2714 C2700 0.960 . S
H2715 C2701 0.961 . S
H2716 C2701 0.961 . S
H2717 C2701 0.961 . S
H2718 C2702 0.931 . S
H2719 C2707 0.930 . S
H2720 C2708 0.956 . S
H2721 C2708 0.961 . S
H2722 C2708 0.961 . S
H2723 C2709 0.958 . S
H2724 C2709 0.961 . S
H2725 C2709 0.960 . S
C2726 C2727 1.391 . S
C2726 C2728 1.394 . S
C2726 H2742 0.931 . S
C2727 C2726 1.391 . S
C2727 C2731 1.376 . S
C2728 C2726 1.394 . S
C2728 C2729 1.369 . S
C2728 C2732 1.531 . S
C2729 C2728 1.369 . S
C2729 C2730 1.410 . S
C2729 C2737 1.503 . S
C2730 C2729 1.410 . S
C2730 C2731 1.392 . S
C2730 C2733 1.511 . S
C2731 C2727 1.376 . S
C2731 C2730 1.392 . S
C2731 H2743 0.929 . S
C2732 C2728 1.531 . S
C2732 H2744 0.960 . S
C2732 H2745 0.962 . S
C2732 H2746 0.960 . S
C2733 C2730 1.511 . S
C2733 H2747 0.961 . S
C2733 H2748 0.961 . S
C2733 H2749 0.961 . S
C2734 C2735 1.370 . S
C2734 C2736 1.363 . S
C2734 H2750 0.931 . S
C2735 C2734 1.370 . S
C2735 C2739 1.408 . S
C2736 C2734 1.363 . S
C2736 C2737 1.370 . S
C2736 C2740 1.524 . S
C2737 C2729 1.503 . S
C2737 C2736 1.370 . S
C2737 C2738 1.403 . S
C2738 C2737 1.403 . S
C2738 C2739 1.404 . S
C2738 C2741 1.539 . S
C2739 C2735 1.408 . S
C2739 C2738 1.404 . S
C2739 H2751 0.930 . S
C2740 C2736 1.524 . S
C2740 H2752 0.956 . S
C2740 H2753 0.961 . S
C2740 H2754 0.961 . S
C2741 C2738 1.539 . S
C2741 H2755 0.958 . S
C2741 H2756 0.961 . S
C2741 H2757 0.960 . S
H2742 C2726 0.931 . S
H2743 C2731 0.929 . S
H2744 C2732 0.960 . S
H2745 C2732 0.962 . S
H2746 C2732 0.960 . S
H2747 C2733 0.961 . S
H2748 C2733 0.961 . S
H2749 C2733 0.961 . S
H2750 C2734 0.931 . S
H2751 C2739 0.930 . S
H2752 C2740 0.956 . S
H2753 C2740 0.961 . S
H2754 C2740 0.961 . S
H2755 C2741 0.958 . S
H2756 C2741 0.961 . S
H2757 C2741 0.960 . S
C2758 C2759 1.391 . S
C2758 C2760 1.394 . S
C2758 H2774 0.931 . S
C2759 C2758 1.391 . S
C2759 C2763 1.376 . S
C2760 C2758 1.394 . S
C2760 C2761 1.369 . S
C2760 C2764 1.531 . S
C2761 C2760 1.369 . S
C2761 C2762 1.410 . S
C2761 C2769 1.503 . S
C2762 C2761 1.410 . S
C2762 C2763 1.392 . S
C2762 C2765 1.511 . S
C2763 C2759 1.376 . S
C2763 C2762 1.392 . S
C2763 H2775 0.929 . S
C2764 C2760 1.531 . S
C2764 H2776 0.960 . S
C2764 H2777 0.962 . S
C2764 H2778 0.960 . S
C2765 C2762 1.511 . S
C2765 H2779 0.961 . S
C2765 H2780 0.961 . S
C2765 H2781 0.961 . S
C2766 C2767 1.370 . S
C2766 C2768 1.363 . S
C2766 H2782 0.931 . S
C2767 C2766 1.370 . S
C2767 C2771 1.408 . S
C2768 C2766 1.363 . S
C2768 C2769 1.370 . S
C2768 C2772 1.524 . S
C2769 C2761 1.503 . S
C2769 C2768 1.370 . S
C2769 C2770 1.403 . S
C2770 C2769 1.403 . S
C2770 C2771 1.404 . S
C2770 C2773 1.539 . S
C2771 C2767 1.408 . S
C2771 C2770 1.404 . S
C2771 H2783 0.930 . S
C2772 C2768 1.524 . S
C2772 H2784 0.956 . S
C2772 H2785 0.961 . S
C2772 H2786 0.961 . S
C2773 C2770 1.539 . S
C2773 H2787 0.958 . S
C2773 H2788 0.961 . S
C2773 H2789 0.960 . S
H2774 C2758 0.931 . S
H2775 C2763 0.929 . S
H2776 C2764 0.960 . S
H2777 C2764 0.962 . S
H2778 C2764 0.960 . S
H2779 C2765 0.961 . S
H2780 C2765 0.961 . S
H2781 C2765 0.961 . S
H2782 C2766 0.931 . S
H2783 C2771 0.930 . S
H2784 C2772 0.956 . S
H2785 C2772 0.961 . S
H2786 C2772 0.961 . S
H2787 C2773 0.958 . S
H2788 C2773 0.961 . S
H2789 C2773 0.960 . S
C1063 C528 1.636 . S
C1071 C711 1.641 . S
C1095 C562 1.806 . S
C1103 C751 1.769 . S
C1127 C484 1.759 . S
C1135 C790 1.739 . S
C1159 C445 1.548 . S
C1167 C750 1.571 1_556 S
C1199 C791 1.481 . S
C1191 C367 1.467 . S
C1223 C411 1.414 . S
C1231 C710 1.445 1_556 S
C1263 C721 1.644 . S
C1255 C450 1.664 . S
C1295 C761 1.750 . S
C1287 C372 1.784 . S
C1319 C406 1.756 . S
C1327 C800 1.746 1_556 S
C1351 C523 1.587 . S
C1359 C760 1.564 . S
C1383 C567 1.475 . S
C1391 C801 1.445 . S
C1423 C720 1.463 . S
C1415 C489 1.426 . S
C1455 C831 1.631 . S
C1447 C60 1.658 . S
C1479 C94 1.802 . S
C1487 C871 1.771 . S
C1511 C16 1.750 . S
C1519 C910 1.737 . S
C1543 C679 1.590 . S
C1551 C870 1.557 . S
C1575 C601 1.479 . S
C1583 C911 1.471 . S
C1607 C645 1.404 . S
C1615 C830 1.445 . S
C1639 C684 1.656 . S
C1647 C841 1.650 . S
C1671 C606 1.787 . S
C1679 C881 1.749 . S
C1711 C920 1.738 . S
C1703 C640 1.745 . S
C1735 C55 1.564 . S
C1743 C880 1.573 . S
C1775 C921 1.449 . S
C1767 C99 1.469 . S
C1799 C21 1.422 . S
C1807 C840 1.464 . S
C1839 C951 1.636 . S
C1831 C294 1.639 . S
C1863 C328 1.784 . S
C1871 C991 1.785 . S
C1903 C1030 1.756 . S
C1895 C250 1.715 . S
C1935 C990 1.560 . S
C1927 C211 1.550 . S
C1967 C1031 1.467 . S
C1959 C133 1.501 . S
C1991 C177 1.443 . S
C1999 C950 1.430 . S
C2023 C216 1.680 . S
C2031 C961 1.637 . S
C2055 C138 1.757 . S
C2063 C1001 1.766 . S
C2095 C1040 1.759 . S
C2087 C172 1.716 . S
C2119 C289 1.579 . S
C2127 C1000 1.553 . S
C2151 C333 1.475 . S
C2159 C1041 1.444 . S
C2183 C255 1.431 . S
C2191 C960 1.462 . S
C2215 C586 1.344 . S
C2223 C707 1.338 . S
C2255 C747 1.851 . S
C2247 C625 1.852 . S
C2279 C664 1.579 . S
C2287 C797 1.584 . S
C2311 C235 1.845 . S
C2319 C757 1.864 . S
C2343 C274 1.569 . S
C2351 C787 1.569 . S
C2383 C717 1.329 . S
C2375 C313 1.334 . S
C2407 C118 1.341 . S
C2415 C827 1.336 . S
C2439 C157 1.825 . S
C2447 C867 1.856 . S
C2471 C196 1.566 . S
C2479 C917 1.585 . S
C2503 C469 1.839 . S
C2511 C877 1.870 . S
C2543 C907 1.569 . S
C2535 C508 1.569 . S
C2567 C547 1.332 . S
C2575 C837 1.329 . S
C2599 C352 1.336 . S
C2607 C947 1.339 . S
C2631 C391 1.850 . S
C2639 C987 1.852 . S
C2671 C1037 1.585 . S
C2663 C430 1.569 . S
C2695 C1 1.851 . S
C2703 C997 1.863 . S
C2727 C40 1.545 . S
C2735 C1027 1.571 . S
C2759 C79 1.339 . S
C2767 C957 1.340 . S
