# Generated by pormake.
# Topology cml, (3,6)-cn, num edge types: 1
# Building blocks:
#     Node 0, Type 0, BuildingBlock: BELTOD_clean_linker_0, # of connection points: 3
#     Node 1, Type 0, BuildingBlock: BELTOD_clean_linker_0, # of connection points: 3
#     Node 2, Type 0, BuildingBlock: BELTOD_clean_linker_0, # of connection points: 3
#     Node 3, Type 0, BuildingBlock: BELTOD_clean_linker_0, # of connection points: 3
#     Node 4, Type 0, BuildingBlock: BELTOD_clean_linker_0, # of connection points: 3
#     Node 5, Type 0, BuildingBlock: BELTOD_clean_linker_0, # of connection points: 3
#     Node 6, Type 0, BuildingBlock: BELTOD_clean_linker_0, # of connection points: 3
#     Node 7, Type 0, BuildingBlock: BELTOD_clean_linker_0, # of connection points: 3
#     Node 8, Type 1, BuildingBlock: OJICUG_clean_sbu_0, # of connection points: 6
#     Node 9, Type 1, BuildingBlock: OJICUG_clean_sbu_0, # of connection points: 6
#     Node 10, Type 1, BuildingBlock: OJICUG_clean_sbu_0, # of connection points: 6
#     Node 11, Type 1, BuildingBlock: OJICUG_clean_sbu_0, # of connection points: 6
#     Edge 12, Type (0, 1), BuildingBlock: TEMPAE_clean_linker_10, # of connection points: 2
#     Edge 13, Type (0, 1), BuildingBlock: TEMPAE_clean_linker_10, # of connection points: 2
#     Edge 14, Type (0, 1), BuildingBlock: TEMPAE_clean_linker_10, # of connection points: 2
#     Edge 15, Type (0, 1), BuildingBlock: TEMPAE_clean_linker_10, # of connection points: 2
#     Edge 16, Type (0, 1), BuildingBlock: TEMPAE_clean_linker_10, # of connection points: 2
#     Edge 17, Type (0, 1), BuildingBlock: TEMPAE_clean_linker_10, # of connection points: 2
#     Edge 18, Type (0, 1), BuildingBlock: TEMPAE_clean_linker_10, # of connection points: 2
#     Edge 19, Type (0, 1), BuildingBlock: TEMPAE_clean_linker_10, # of connection points: 2
#     Edge 20, Type (0, 1), BuildingBlock: TEMPAE_clean_linker_10, # of connection points: 2
#     Edge 21, Type (0, 1), BuildingBlock: TEMPAE_clean_linker_10, # of connection points: 2
#     Edge 22, Type (0, 1), BuildingBlock: TEMPAE_clean_linker_10, # of connection points: 2
#     Edge 23, Type (0, 1), BuildingBlock: TEMPAE_clean_linker_10, # of connection points: 2
#     Edge 24, Type (0, 1), BuildingBlock: TEMPAE_clean_linker_10, # of connection points: 2
#     Edge 25, Type (0, 1), BuildingBlock: TEMPAE_clean_linker_10, # of connection points: 2
#     Edge 26, Type (0, 1), BuildingBlock: TEMPAE_clean_linker_10, # of connection points: 2
#     Edge 27, Type (0, 1), BuildingBlock: TEMPAE_clean_linker_10, # of connection points: 2
#     Edge 28, Type (0, 1), BuildingBlock: TEMPAE_clean_linker_10, # of connection points: 2
#     Edge 29, Type (0, 1), BuildingBlock: TEMPAE_clean_linker_10, # of connection points: 2
#     Edge 30, Type (0, 1), BuildingBlock: TEMPAE_clean_linker_10, # of connection points: 2
#     Edge 31, Type (0, 1), BuildingBlock: TEMPAE_clean_linker_10, # of connection points: 2
#     Edge 32, Type (0, 1), BuildingBlock: TEMPAE_clean_linker_10, # of connection points: 2
#     Edge 33, Type (0, 1), BuildingBlock: TEMPAE_clean_linker_10, # of connection points: 2
#     Edge 34, Type (0, 1), BuildingBlock: TEMPAE_clean_linker_10, # of connection points: 2
#     Edge 35, Type (0, 1), BuildingBlock: TEMPAE_clean_linker_10, # of connection points: 2
# Relax obj value: 0.065
# Max RMSD: 0.077
# Mean RMSD: 0.074
data_MOF--net-cml--node1-OJICUG_clean_sbu_0--node2-BELTOD_clean_linker_0--edge1-TEMPAE_clean_linker_10
_symmetry_space_group_name_H-M    P1
_symmetry_Int_Tables_number       1
_symmetry_cell_setting            triclinic
loop_
_symmetry_equiv_pos_as_xyz
'x, y, z'
_cell_length_a     44.559929
_cell_length_b     44.800132
_cell_length_c     42.007609
_cell_angle_alpha  89.517605
_cell_angle_beta   89.74052
_cell_angle_gamma 89.955176
loop_
_atom_site_label
_atom_site_type_symbol
_atom_site_fract_x
_atom_site_fract_y
_atom_site_fract_z
_atom_type_partial_charge
P0 P 0.32679 0.33639 0.95017 0.0
H1 H 0.35126 0.28154 0.97807 0.0
H2 H 0.361 0.26627 0.03323 0.0
H3 H 0.32234 0.34891 0.06624 0.0
H4 H 0.3129 0.36414 0.01132 0.0
H5 H 0.30049 0.32849 0.88767 0.0
H6 H 0.24865 0.32241 0.86973 0.0
H7 H 0.21769 0.32886 0.96705 0.0
H8 H 0.26927 0.33504 0.98476 0.0
H9 H 0.3827 0.36629 0.93355 0.0
H10 H 0.29282 0.39157 0.96073 0.0
O11 O 0.34922 0.31658 0.92641 0.0
H12 H 0.39669 0.41875 0.92929 0.0
H13 H 0.30692 0.4442 0.95786 0.0
C14 C 0.33191 0.32421 0.99062 0.0
C15 C 0.34477 0.2963 0.99719 0.0
C16 C 0.35022 0.28754 0.02864 0.0
C17 C 0.34238 0.30643 0.05389 0.0
C18 C 0.3283 0.3338 0.04722 0.0
C19 C 0.32321 0.34266 0.01582 0.0
C20 C 0.28876 0.33143 0.93757 0.0
C21 C 0.28252 0.32842 0.90512 0.0
C22 C 0.25297 0.32507 0.89491 0.0
C23 C 0.22925 0.32511 0.91705 0.0
C24 C 0.23555 0.32901 0.94947 0.0
C25 C 0.2651 0.33219 0.95965 0.0
C26 C 0.33663 0.37511 0.94681 0.0
C27 C 0.36599 0.38318 0.93864 0.0
C28 C 0.37403 0.41321 0.93665 0.0
C29 C 0.35294 0.43573 0.94339 0.0
C30 C 0.32359 0.42746 0.95212 0.0
C31 C 0.31551 0.39737 0.95379 0.0
P32 P 0.72589 0.56901 0.5291 0.0
H33 H 0.73025 0.50656 0.51005 0.0
H34 H 0.69853 0.47507 0.47706 0.0
H35 H 0.63859 0.54955 0.4611 0.0
H36 H 0.67029 0.58082 0.49467 0.0
H37 H 0.76051 0.62274 0.54219 0.0
H38 H 0.79392 0.65354 0.50925 0.0
H39 H 0.77588 0.59742 0.42849 0.0
H40 H 0.74238 0.56684 0.46136 0.0
H41 H 0.69784 0.55151 0.5887 0.0
H42 H 0.70118 0.6303 0.52907 0.0
O43 O 0.7493 0.54752 0.55009 0.0
H44 H 0.66536 0.57765 0.62639 0.0
H45 H 0.66918 0.65684 0.56722 0.0
C46 C 0.70221 0.54578 0.50529 0.0
C47 C 0.71019 0.51605 0.49963 0.0
C48 C 0.6922 0.49817 0.48048 0.0
C49 C 0.66603 0.50982 0.46649 0.0
C50 C 0.65838 0.53983 0.47189 0.0
C51 C 0.67644 0.55771 0.49104 0.0
C52 C 0.74829 0.59303 0.50406 0.0
C53 C 0.76325 0.61744 0.51724 0.0
C54 C 0.7823 0.63501 0.49842 0.0
C55 C 0.78723 0.62798 0.46627 0.0
C56 C 0.7724 0.60334 0.45318 0.0
C57 C 0.7531 0.58598 0.47195 0.0
C58 C 0.70261 0.58922 0.55661 0.0
C59 C 0.69182 0.57454 0.58389 0.0
C60 C 0.67315 0.58942 0.60528 0.0
C61 C 0.66495 0.6193 0.59975 0.0
C62 C 0.67552 0.63393 0.57219 0.0
C63 C 0.69388 0.61882 0.5505 0.0
P64 P 0.74678 0.43778 0.04354 0.0
H65 H 0.75945 0.40677 0.10346 0.0
H66 H 0.72915 0.37436 0.1379 0.0
H67 H 0.65596 0.38067 0.07086 0.0
H68 H 0.687 0.41176 0.036 0.0
H69 H 0.80919 0.41852 0.03923 0.0
H70 H 0.83647 0.38844 0.00072 0.0
H71 H 0.75553 0.37917 0.94523 0.0
H72 H 0.72808 0.40845 0.98484 0.0
H73 H 0.69371 0.46973 0.06597 0.0
H74 H 0.74899 0.46854 0.98144 0.0
O75 O 0.77117 0.45572 0.06655 0.0
H76 H 0.66081 0.5067 0.04104 0.0
H77 H 0.71582 0.50495 0.95608 0.0
C78 C 0.72505 0.41244 0.06777 0.0
C79 C 0.73692 0.401 0.09617 0.0
C80 C 0.71952 0.38253 0.11587 0.0
C81 C 0.68988 0.3752 0.10748 0.0
C82 C 0.6787 0.3856 0.07809 0.0
C83 C 0.69628 0.40375 0.05827 0.0
C84 C 0.76681 0.41622 0.01448 0.0
C85 C 0.79735 0.4102 0.01868 0.0
C86 C 0.81298 0.39314 0.99645 0.0
C87 C 0.79834 0.38176 0.96952 0.0
C88 C 0.7675 0.38752 0.96568 0.0
C89 C 0.75183 0.40441 0.98816 0.0
C90 C 0.72306 0.46545 0.02508 0.0
C91 C 0.69856 0.47714 0.04189 0.0
C92 C 0.67977 0.49827 0.02761 0.0
C93 C 0.68544 0.50843 0.9964 0.0
C94 C 0.71082 0.49759 0.98015 0.0
C95 C 0.7296 0.47646 0.99449 0.0
P96 P 0.33175 0.64368 0.4542 0.0
H97 H 0.37594 0.61322 0.41442 0.0
H98 H 0.38777 0.56063 0.40696 0.0
H99 H 0.31922 0.53637 0.4756 0.0
H100 H 0.30689 0.58926 0.48219 0.0
H101 H 0.28515 0.68472 0.47688 0.0
H102 H 0.23357 0.69385 0.45965 0.0
H103 H 0.24416 0.62873 0.38537 0.0
H104 H 0.29547 0.61856 0.40349 0.0
H105 H 0.38448 0.66551 0.48675 0.0
H106 H 0.29477 0.63799 0.51214 0.0
O107 O 0.3539 0.66489 0.43124 0.0
H108 H 0.39591 0.67337 0.5426 0.0
H109 H 0.30527 0.64769 0.56808 0.0
C110 C 0.34069 0.60503 0.44897 0.0
C111 C 0.36349 0.59663 0.42789 0.0
C112 C 0.37035 0.56654 0.42384 0.0
C113 C 0.35462 0.54435 0.44097 0.0
C114 C 0.33162 0.55293 0.46199 0.0
C115 C 0.32471 0.58309 0.46592 0.0
C116 C 0.29368 0.65008 0.4423 0.0
C117 C 0.27619 0.67175 0.4575 0.0
C118 C 0.24683 0.67705 0.44762 0.0
C119 C 0.23504 0.66154 0.42165 0.0
C120 C 0.25283 0.64055 0.40575 0.0
C121 C 0.28199 0.63477 0.41613 0.0
C122 C 0.33851 0.65218 0.49523 0.0
C123 C 0.36696 0.66197 0.50433 0.0
C124 C 0.37338 0.66663 0.53635 0.0
C125 C 0.35136 0.66169 0.55995 0.0
C126 C 0.32282 0.65167 0.55065 0.0
C127 C 0.31663 0.64651 0.51859 0.0
P128 P 0.80122 0.86508 0.98783 0.0
H129 H 0.81207 0.81487 0.03072 0.0
H130 H 0.82356 0.81182 0.08761 0.0
H131 H 0.81312 0.90733 0.09495 0.0
H132 H 0.80107 0.91028 0.03837 0.0
H133 H 0.76583 0.88247 0.93239 0.0
H134 H 0.71545 0.86864 0.91491 0.0
H135 H 0.70284 0.8172 0.0013 0.0
H136 H 0.75291 0.83139 0.01897 0.0
H137 H 0.85856 0.88516 0.9622 0.0
H138 H 0.77221 0.92376 0.98373 0.0
O139 O 0.82189 0.83857 0.97066 0.0
H140 H 0.87706 0.93391 0.94507 0.0
H141 H 0.79084 0.97301 0.96748 0.0
C142 C 0.80652 0.86285 0.03016 0.0
C143 C 0.81191 0.8351 0.04466 0.0
C144 C 0.81816 0.83334 0.07715 0.0
C145 C 0.81931 0.85939 0.09546 0.0
C146 C 0.81251 0.88699 0.08119 0.0
C147 C 0.80582 0.88866 0.0488 0.0
C148 C 0.76285 0.85855 0.97732 0.0
C149 C 0.75192 0.86892 0.948 0.0
C150 C 0.7232 0.86102 0.938 0.0
C151 C 0.70539 0.842 0.95687 0.0
C152 C 0.71624 0.83193 0.9864 0.0
C153 C 0.74479 0.84015 0.99654 0.0
C154 C 0.81389 0.90083 0.97358 0.0
C155 C 0.84353 0.90415 0.96305 0.0
C156 C 0.85416 0.93212 0.95363 0.0
C157 C 0.83544 0.95738 0.95508 0.0
C158 C 0.80568 0.95394 0.96572 0.0
C159 C 0.79502 0.92585 0.97499 0.0
P160 P 0.24904 0.05935 0.55357 0.0
H161 H 0.2548 0.99651 0.5358 0.0
H162 H 0.22111 0.9623 0.50821 0.0
H163 H 0.15685 0.03383 0.49621 0.0
H164 H 0.19024 0.06753 0.52446 0.0
H165 H 0.30801 0.08654 0.55923 0.0
H166 H 0.3396 0.11468 0.52197 0.0
H167 H 0.27181 0.10569 0.44939 0.0
H168 H 0.24009 0.07832 0.48702 0.0
H169 H 0.20505 0.04615 0.60229 0.0
H170 H 0.24237 0.12508 0.55794 0.0
O171 O 0.27123 0.0395 0.57765 0.0
H172 H 0.17137 0.07715 0.63393 0.0
H173 H 0.20857 0.15637 0.58975 0.0
C174 C 0.22469 0.03431 0.53271 0.0
C175 C 0.23337 0.00472 0.52736 0.0
C176 C 0.2142 0.98527 0.51138 0.0
C177 C 0.18617 0.99528 0.50026 0.0
C178 C 0.17797 0.02524 0.50507 0.0
C179 C 0.19708 0.04455 0.52113 0.0
C180 C 0.272 0.07986 0.52573 0.0
C181 C 0.30005 0.09051 0.53524 0.0
C182 C 0.31813 0.10643 0.51385 0.0
C183 C 0.30837 0.1121 0.48257 0.0
C184 C 0.27995 0.10177 0.47332 0.0
C185 C 0.26186 0.08592 0.4948 0.0
C186 C 0.22609 0.08328 0.57777 0.0
C187 C 0.20605 0.07019 0.59948 0.0
C188 C 0.18668 0.08791 0.61735 0.0
C189 C 0.18713 0.11916 0.614 0.0
C190 C 0.20779 0.13235 0.59277 0.0
C191 C 0.22707 0.11448 0.5746 0.0
P192 P 0.24529 0.94338 0.04323 0.0
H193 H 0.24717 0.93614 0.11259 0.0
H194 H 0.21364 0.91165 0.15068 0.0
H195 H 0.15744 0.88263 0.07322 0.0
H196 H 0.19062 0.9081 0.03539 0.0
H197 H 0.28821 0.95392 0.99232 0.0
H198 H 0.31577 0.92063 0.95658 0.0
H199 H 0.27207 0.84454 0.00027 0.0
H200 H 0.2449 0.87772 0.03602 0.0
H201 H 0.23133 0.0067 0.05069 0.0
H202 H 0.20887 0.93584 0.98616 0.0
O203 O 0.2712 0.96267 0.06292 0.0
H204 H 0.19861 0.04091 0.02111 0.0
H205 H 0.176 0.96987 0.95662 0.0
C206 C 0.22127 0.92412 0.07118 0.0
C207 C 0.22766 0.92451 0.10379 0.0
C208 C 0.20856 0.91024 0.12556 0.0
C209 C 0.1828 0.89512 0.11505 0.0
C210 C 0.1768 0.89443 0.08221 0.0
C211 C 0.1958 0.90891 0.06051 0.0
C212 C 0.2645 0.91836 0.01677 0.0
C213 C 0.28452 0.93007 0.99411 0.0
C214 C 0.30024 0.91107 0.97375 0.0
C215 C 0.29594 0.88004 0.97561 0.0
C216 C 0.27548 0.86841 0.99804 0.0
C217 C 0.26 0.88741 0.01859 0.0
C218 C 0.22277 0.96889 0.02034 0.0
C219 C 0.21962 -0.0014 0.02996 0.0
C220 C 0.20098 0.01812 0.01303 0.0
C221 C 0.18484 0.00803 0.98655 0.0
C222 C 0.18805 0.97818 0.97705 0.0
C223 C 0.2069 0.95878 0.99381 0.0
P224 P 0.81664 0.11174 0.4607 0.0
H225 H 0.8318 0.06945 0.41115 0.0
H226 H 0.83063 0.01511 0.40924 0.0
H227 H 0.78897 0.01217 0.50226 0.0
H228 H 0.7893 0.06701 0.50358 0.0
H229 H 0.79909 0.14115 0.40134 0.0
H230 H 0.75196 0.16376 0.38385 0.0
H231 H 0.71149 0.1415 0.47472 0.0
H232 H 0.75861 0.11844 0.49179 0.0
H233 H 0.846 0.08149 0.5145 0.0
H234 H 0.8098 0.16875 0.49308 0.0
O235 O 0.84461 0.1225 0.43668 0.0
H236 H 0.8588 0.09799 0.56804 0.0
H237 H 0.824 0.18567 0.54639 0.0
C238 C 0.81188 0.07205 0.45808 0.0
C239 C 0.82199 0.05719 0.43093 0.0
C240 C 0.82092 0.02615 0.4297 0.0
C241 C 0.80975 0.0095 0.45568 0.0
C242 C 0.79773 0.02455 0.48201 0.0
C243 C 0.79823 0.05576 0.48288 0.0
C244 C 0.78232 0.12869 0.44802 0.0
C245 C 0.7801 0.14128 0.41752 0.0
C246 C 0.75322 0.15423 0.4076 0.0
C247 C 0.72814 0.15455 0.42801 0.0
C248 C 0.73038 0.14139 0.45841 0.0
C249 C 0.75729 0.12843 0.46827 0.0
C250 C 0.82572 0.12351 0.50029 0.0
C251 C 0.84021 0.10398 0.52146 0.0
C252 C 0.84766 0.11341 0.55196 0.0
C253 C 0.84177 0.14283 0.56125 0.0
C254 C 0.82824 0.16273 0.53974 0.0
C255 C 0.82015 0.15306 0.50943 0.0
Sc256 Sc 0.99276 0.78045 0.31721 0.0
Sc257 Sc 0.9899 0.85732 0.33379 0.0
Sc258 Sc 0.99434 0.80556 0.39653 0.0
O259 O 0.99233 0.81441 0.34913 0.0
C260 C 0.95143 0.75348 0.3718 0.0
C261 C 0.94505 0.82554 0.28664 0.0
C262 C 0.94674 0.85769 0.39495 0.0
C263 C 0.03448 0.82829 0.28255 0.0
C264 C 0.0409 0.75917 0.36876 0.0
C265 C 0.03605 0.86354 0.39039 0.0
O266 O 0.95784 0.75652 0.34242 0.0
O267 O 0.95274 0.84797 0.30299 0.0
O268 O 0.95603 0.83328 0.40698 0.0
O269 O 0.02745 0.80126 0.2885 0.0
O270 O 0.0326 0.77733 0.39012 0.0
O271 O 0.02668 0.87123 0.36301 0.0
O272 O 0.02749 0.75636 0.34229 0.0
O273 O 0.02184 0.85025 0.29613 0.0
O274 O 0.02524 0.84145 0.40578 0.0
O275 O 0.95838 0.80048 0.28823 0.0
O276 O 0.96412 0.7684 0.3935 0.0
O277 O 0.958 0.86931 0.3699 0.0
Sc278 Sc 0.98594 0.22593 0.80574 0.0
Sc279 Sc 0.99398 0.14793 0.81326 0.0
Sc280 Sc 0.98496 0.19117 0.88175 0.0
O281 O 0.98816 0.18839 0.83358 0.0
C282 C 0.02739 0.24618 0.86331 0.0
C283 C 0.03771 0.18801 0.77136 0.0
C284 C 0.03436 0.14012 0.87529 0.0
C285 C 0.94891 0.18018 0.7646 0.0
C286 C 0.93785 0.24095 0.86009 0.0
C287 C 0.94542 0.13358 0.86717 0.0
O288 O 0.01824 0.24856 0.83475 0.0
O289 O 0.03047 0.16353 0.78467 0.0
O290 O 0.02138 0.16074 0.89065 0.0
O291 O 0.95362 0.20662 0.77407 0.0
O292 O 0.94842 0.22205 0.87971 0.0
O293 O 0.95815 0.12843 0.84061 0.0
O294 O 0.94892 0.24496 0.83241 0.0
O295 O 0.96245 0.15751 0.77594 0.0
O296 O 0.95262 0.15539 0.88481 0.0
O297 O 0.02293 0.21209 0.77516 0.0
O298 O 0.0172 0.22684 0.8829 0.0
O299 O 0.02679 0.13304 0.84728 0.0
Sc300 Sc 0.4901 0.26748 0.30439 0.0
Sc301 Sc 0.48298 0.34592 0.30516 0.0
Sc302 Sc 0.48851 0.30614 0.3773 0.0
O303 O 0.48717 0.30649 0.32892 0.0
C304 C 0.44788 0.24919 0.36317 0.0
C305 C 0.4412 0.30329 0.2641 0.0
C306 C 0.43911 0.35619 0.36419 0.0
C307 C 0.53007 0.31143 0.26137 0.0
C308 C 0.5374 0.25676 0.35993 0.0
C309 C 0.52805 0.36354 0.3609 0.0
O310 O 0.45762 0.24521 0.33496 0.0
O311 O 0.44913 0.32883 0.27395 0.0
O312 O 0.45147 0.3368 0.3821 0.0
O313 O 0.52312 0.28533 0.27115 0.0
O314 O 0.52589 0.27584 0.37857 0.0
O315 O 0.51665 0.36783 0.33352 0.0
O316 O 0.52683 0.25135 0.33257 0.0
O317 O 0.51743 0.3349 0.2716 0.0
O318 O 0.52019 0.34209 0.37906 0.0
O319 O 0.45382 0.27922 0.27306 0.0
O320 O 0.45707 0.27019 0.38073 0.0
O321 O 0.44794 0.36143 0.33592 0.0
Sc322 Sc 0.48214 0.72123 0.81433 0.0
Sc323 Sc 0.49362 0.64434 0.82086 0.0
Sc324 Sc 0.48229 0.68635 0.88969 0.0
O325 O 0.48591 0.68397 0.84174 0.0
C326 C 0.52235 0.74336 0.8708 0.0
C327 C 0.53387 0.68501 0.77777 0.0
C328 C 0.53416 0.63842 0.88336 0.0
C329 C 0.44641 0.67573 0.77358 0.0
C330 C 0.43404 0.73421 0.86971 0.0
C331 C 0.44644 0.6263 0.87398 0.0
O332 O 0.51658 0.74293 0.84116 0.0
O333 O 0.53097 0.66149 0.79448 0.0
O334 O 0.52218 0.6603 0.89766 0.0
O335 O 0.4476 0.70147 0.78601 0.0
O336 O 0.44228 0.71269 0.88746 0.0
O337 O 0.45718 0.62381 0.84604 0.0
O338 O 0.44754 0.74094 0.84388 0.0
O339 O 0.46344 0.65424 0.782 0.0
O340 O 0.45438 0.64685 0.89297 0.0
O341 O 0.5161 0.70717 0.78009 0.0
O342 O 0.50992 0.72594 0.89107 0.0
O343 O 0.52501 0.62939 0.8565 0.0
C344 C 0.17427 0.33638 0.91849 0.0
C345 C 0.19817 0.31927 0.90674 0.0
C346 C 0.1445 0.32908 0.9112 0.0
C347 C 0.13869 0.30393 0.89208 0.0
C348 C 0.16281 0.28726 0.87921 0.0
C349 C 0.19229 0.29522 0.88663 0.0
C350 C 0.1193 0.34758 0.92489 0.0
C351 C 0.15747 0.26016 0.85884 0.0
C352 C 0.06818 0.25813 0.90167 0.0
C353 C 0.05308 0.26475 0.87324 0.0
C354 C 0.09537 0.27203 0.90896 0.0
C355 C 0.10757 0.2933 0.88745 0.0
C356 C 0.09142 0.30172 0.8599 0.0
C357 C 0.06437 0.28723 0.85302 0.0
C358 C 0.11201 0.26244 0.93859 0.0
C359 C 0.10357 0.3247 0.83673 0.0
H360 H 0.17887 0.35521 0.93375 0.0
H361 H 0.21075 0.2818 0.8778 0.0
H362 H 0.10306 0.35379 0.906 0.0
H363 H 0.10691 0.33427 0.94304 0.0
H364 H 0.12762 0.36828 0.93625 0.0
H365 H 0.17869 0.25066 0.8493 0.0
H366 H 0.14588 0.24265 0.87311 0.0
H367 H 0.14268 0.26597 0.83854 0.0
H368 H 0.05959 0.24093 0.91756 0.0
H369 H 0.05269 0.29278 0.83118 0.0
H370 H 0.11904 0.28219 0.95243 0.0
H371 H 0.13267 0.25017 0.93173 0.0
H372 H 0.09824 0.2477 0.95424 0.0
H373 H 0.11188 0.34458 0.84956 0.0
H374 H 0.08638 0.33197 0.81922 0.0
H375 H 0.12285 0.31511 0.8235 0.0
C376 C 0.8084 0.67671 0.44753 0.0
C377 C 0.80899 0.64546 0.44702 0.0
C378 C 0.8305 0.69351 0.43171 0.0
C379 C 0.85393 0.67863 0.41537 0.0
C380 C 0.85399 0.64709 0.41375 0.0
C381 C 0.8314 0.63086 0.42952 0.0
C382 C 0.82949 0.72715 0.43363 0.0
C383 C 0.87876 0.63044 0.39686 0.0
C384 C 0.90425 0.72496 0.36087 0.0
C385 C 0.92762 0.73234 0.38161 0.0
C386 C 0.8802 0.70705 0.37129 0.0
C387 C 0.87991 0.69597 0.40296 0.0
C388 C 0.90405 0.70243 0.42355 0.0
C389 C 0.92747 0.7207 0.4127 0.0
C390 C 0.85467 0.70082 0.34882 0.0
C391 C 0.90481 0.69064 0.45735 0.0
H392 H 0.79085 0.688 0.46074 0.0
H393 H 0.83201 0.60667 0.42931 0.0
H394 H 0.84849 0.73517 0.44823 0.0
H395 H 0.83198 0.73724 0.40956 0.0
H396 H 0.80823 0.7353 0.44443 0.0
H397 H 0.87394 0.60619 0.39506 0.0
H398 H 0.88226 0.63968 0.37255 0.0
H399 H 0.9001 0.63328 0.41 0.0
H400 H 0.90421 0.73406 0.33687 0.0
H401 H 0.94566 0.72607 0.42872 0.0
H402 H 0.8338 0.71126 0.35799 0.0
H403 H 0.85052 0.67646 0.34743 0.0
H404 H 0.85912 0.7096 0.32444 0.0
H405 H 0.8858 0.70009 0.47113 0.0
H406 H 0.92604 0.69632 0.46966 0.0
H407 H 0.90217 0.66602 0.45757 0.0
C408 C 0.80231 0.33742 0.93342 0.0
C409 C 0.81522 0.36319 0.9463 0.0
C410 C 0.8193 0.31793 0.91449 0.0
C411 C 0.85001 0.32414 0.90877 0.0
C412 C 0.86266 0.35097 0.92013 0.0
C413 C 0.84505 0.37026 0.9385 0.0
C414 C 0.80487 0.28982 0.90229 0.0
C415 C 0.89536 0.35837 0.9147 0.0
C416 C 0.9048 0.25988 0.90359 0.0
C417 C 0.91302 0.2604 0.87127 0.0
C418 C 0.8837 0.27995 0.91575 0.0
C419 C 0.86997 0.30091 0.89506 0.0
C420 C 0.87697 0.30072 0.86214 0.0
C421 C 0.89864 0.28059 0.85063 0.0
C422 C 0.87707 0.27953 0.95108 0.0
C423 C 0.86226 0.32233 0.8393 0.0
H424 H 0.77933 0.33167 0.93932 0.0
H425 H 0.85497 0.39054 0.94759 0.0
H426 H 0.81134 0.28591 0.87713 0.0
H427 H 0.81282 0.27039 0.91647 0.0
H428 H 0.78 0.29074 0.90401 0.0
H429 H 0.90102 0.38131 0.92253 0.0
H430 H 0.90954 0.3423 0.92814 0.0
H431 H 0.90127 0.35625 0.88915 0.0
H432 H 0.91564 0.2444 0.91983 0.0
H433 H 0.90464 0.28104 0.8256 0.0
H434 H 0.85263 0.27701 0.95534 0.0
H435 H 0.88401 0.30104 0.9617 0.0
H436 H 0.88893 0.26115 0.96373 0.0
H437 H 0.83756 0.32227 0.84279 0.0
H438 H 0.86733 0.31694 0.81407 0.0
H439 H 0.87026 0.34529 0.84405 0.0
C440 C 0.20125 0.68248 0.38039 0.0
C441 C 0.20481 0.66886 0.41021 0.0
C442 C 0.17337 0.6941 0.37124 0.0
C443 C 0.14859 0.69141 0.39228 0.0
C444 C 0.1517 0.67567 0.42145 0.0
C445 C 0.18 0.66493 0.43031 0.0
C446 C 0.17106 0.71122 0.34023 0.0
C447 C 0.12559 0.67174 0.44413 0.0
C448 C 0.09132 0.7536 0.39279 0.0
C449 C 0.06816 0.74147 0.3746 0.0
C450 C 0.11777 0.73761 0.39825 0.0
C451 C 0.12075 0.70845 0.38589 0.0
C452 C 0.0973 0.69589 0.36778 0.0
C453 C 0.07134 0.71279 0.36194 0.0
C454 C 0.14259 0.75203 0.41709 0.0
C455 C 0.09952 0.66459 0.35496 0.0
H456 H 0.22068 0.68556 0.36507 0.0
H457 H 0.18299 0.65421 0.45332 0.0
H458 H 0.15111 0.70399 0.32664 0.0
H459 H 0.16824 0.73534 0.34529 0.0
H460 H 0.19133 0.70838 0.32506 0.0
H461 H 0.13057 0.65523 0.46328 0.0
H462 H 0.12023 0.69343 0.45537 0.0
H463 H 0.1053 0.66438 0.43115 0.0
H464 H 0.08899 0.77594 0.40225 0.0
H465 H 0.05329 0.70338 0.34801 0.0
H466 H 0.16369 0.75225 0.40294 0.0
H467 H 0.14693 0.73891 0.4391 0.0
H468 H 0.1371 0.77532 0.4239 0.0
H469 H 0.11939 0.6626 0.33912 0.0
H470 H 0.07922 0.65809 0.34144 0.0
H471 H 0.10268 0.64851 0.37491 0.0
C472 C 0.67156 0.79983 0.94408 0.0
C473 C 0.67666 0.83064 0.94463 0.0
C474 C 0.64509 0.78828 0.93136 0.0
C475 C 0.62306 0.80812 0.91935 0.0
C476 C 0.62792 0.83932 0.9202 0.0
C477 C 0.65491 0.85025 0.9326 0.0
C478 C 0.64091 0.75483 0.9304 0.0
C479 C 0.60464 0.86105 0.90805 0.0
C480 C 0.56921 0.7726 0.86163 0.0
C481 C 0.54599 0.7636 0.88217 0.0
C482 C 0.59395 0.78843 0.87314 0.0
C483 C 0.5951 0.79582 0.9058 0.0
C484 C 0.57079 0.78849 0.92618 0.0
C485 C 0.54662 0.77218 0.91417 0.0
C486 C 0.61967 0.79553 0.8508 0.0
C487 C 0.57102 0.79654 0.96102 0.0
H488 H 0.68865 0.78471 0.95297 0.0
H489 H 0.65895 0.8741 0.93317 0.0
H490 H 0.62062 0.74836 0.94421 0.0
H491 H 0.6374 0.74759 0.90549 0.0
H492 H 0.66048 0.74253 0.94027 0.0
H493 H 0.61165 0.88465 0.91105 0.0
H494 H 0.60036 0.8571 0.88244 0.0
H495 H 0.5831 0.8575 0.92088 0.0
H496 H 0.56885 0.76594 0.83688 0.0
H497 H 0.52849 0.76557 0.93002 0.0
H498 H 0.63949 0.78188 0.85749 0.0
H499 H 0.62623 0.81931 0.85277 0.0
H500 H 0.61404 0.79086 0.82559 0.0
H501 H 0.58808 0.78286 0.97361 0.0
H502 H 0.54888 0.79264 0.9726 0.0
H503 H 0.57728 0.82031 0.96401 0.0
C504 C 0.31511 0.15158 0.44046 0.0
C505 C 0.32758 0.1293 0.46002 0.0
C506 C 0.33339 0.16962 0.42101 0.0
C507 C 0.36487 0.16539 0.4213 0.0
C508 C 0.37745 0.14208 0.43988 0.0
C509 C 0.35864 0.12428 0.45896 0.0
C510 C 0.31916 0.1942 0.40143 0.0
C511 C 0.41092 0.13687 0.44084 0.0
C512 C 0.41528 0.20341 0.35987 0.0
C513 C 0.42544 0.22823 0.37693 0.0
C514 C 0.39506 0.18295 0.37371 0.0
C515 C 0.3849 0.18741 0.4053 0.0
C516 C 0.39461 0.21267 0.42237 0.0
C517 C 0.41465 0.23273 0.408 0.0
C518 C 0.38496 0.15632 0.35478 0.0
C519 C 0.38431 0.21825 0.45614 0.0
H520 H 0.29116 0.15573 0.44129 0.0
H521 H 0.36834 0.10669 0.47351 0.0
H522 H 0.32494 0.21617 0.41174 0.0
H523 H 0.32797 0.19398 0.37669 0.0
H524 H 0.29432 0.1922 0.40072 0.0
H525 H 0.41686 0.11617 0.45414 0.0
H526 H 0.42017 0.13535 0.41634 0.0
H527 H 0.42202 0.15604 0.45248 0.0
H528 H 0.42339 0.19975 0.33585 0.0
H529 H 0.42214 0.25185 0.42145 0.0
H530 H 0.36009 0.15539 0.35411 0.0
H531 H 0.3928 0.13546 0.36649 0.0
H532 H 0.39366 0.15687 0.32996 0.0
H533 H 0.35945 0.21926 0.4572 0.0
H534 H 0.39342 0.23936 0.46583 0.0
H535 H 0.39152 0.19953 0.47179 0.0
C536 C 0.34502 0.86326 0.95317 0.0
C537 C 0.31385 0.85968 0.95541 0.0
C538 C 0.36272 0.84282 0.93635 0.0
C539 C 0.34885 0.81839 0.92112 0.0
C540 C 0.31724 0.81533 0.92223 0.0
C541 C 0.30011 0.83592 0.93959 0.0
C542 C 0.3964 0.84668 0.93605 0.0
C543 C 0.30164 0.78984 0.90587 0.0
C544 C 0.3984 0.77719 0.8622 0.0
C545 C 0.40938 0.7537 0.88118 0.0
C546 C 0.37755 0.79774 0.87438 0.0
C547 C 0.36776 0.79489 0.90637 0.0
C548 C 0.37779 0.77056 0.9252 0.0
C549 C 0.39829 0.75019 0.91233 0.0
C550 C 0.36691 0.82313 0.85344 0.0
C551 C 0.36801 0.76683 0.95949 0.0
H552 H 0.35572 0.88146 0.96564 0.0
H553 H 0.27595 0.83333 0.94103 0.0
H554 H 0.40707 0.82763 0.94873 0.0
H555 H 0.40501 0.84668 0.91124 0.0
H556 H 0.40352 0.86771 0.94763 0.0
H557 H 0.27683 0.79227 0.90637 0.0
H558 H 0.30919 0.78834 0.88073 0.0
H559 H 0.30764 0.76846 0.91776 0.0
H560 H 0.40662 0.77999 0.83803 0.0
H561 H 0.4065 0.73213 0.92726 0.0
H562 H 0.37618 0.84448 0.86225 0.0
H563 H 0.34209 0.82494 0.85442 0.0
H564 H 0.37398 0.82035 0.82824 0.0
H565 H 0.37632 0.7859 0.97365 0.0
H566 H 0.37658 0.74582 0.97036 0.0
H567 H 0.34317 0.76688 0.96127 0.0
C568 C 0.6722 0.15482 0.42375 0.0
C569 C 0.69981 0.16881 0.41773 0.0
C570 C 0.64521 0.16831 0.41447 0.0
C571 C 0.64595 0.19639 0.39883 0.0
C572 C 0.67374 0.21055 0.39255 0.0
C573 C 0.70037 0.19658 0.40212 0.0
C574 C 0.61592 0.15256 0.42144 0.0
C575 C 0.67533 0.24055 0.37595 0.0
C576 C 0.5792 0.22075 0.34957 0.0
C577 C 0.56469 0.24059 0.37027 0.0
C578 C 0.60555 0.20597 0.35869 0.0
C579 C 0.61762 0.21114 0.38922 0.0
C580 C 0.60299 0.23083 0.41037 0.0
C581 C 0.57669 0.24534 0.40064 0.0
C582 C 0.62068 0.18513 0.33551 0.0
C583 C 0.61529 0.2368 0.44316 0.0
H584 H 0.67174 0.13317 0.43546 0.0
H585 H 0.72167 0.20762 0.39782 0.0
H586 H 0.60146 0.1668 0.43661 0.0
H587 H 0.60362 0.14869 0.39895 0.0
H588 H 0.61927 0.13076 0.43372 0.0
H589 H 0.6988 0.24833 0.37246 0.0
H590 H 0.66434 0.23934 0.35235 0.0
H591 H 0.663 0.25746 0.39005 0.0
H592 H 0.57016 0.21692 0.32605 0.0
H593 H 0.56566 0.26058 0.41683 0.0
H594 H 0.62309 0.16261 0.34639 0.0
H595 H 0.64359 0.19334 0.32988 0.0
H596 H 0.60801 0.18306 0.31292 0.0
H597 H 0.61743 0.21555 0.45671 0.0
H598 H 0.60085 0.25228 0.45696 0.0
H599 H 0.63808 0.2466 0.44114 0.0
C600 C 0.39019 0.47709 0.94899 0.0
C601 C 0.36148 0.46764 0.94001 0.0
C602 C 0.40038 0.50585 0.94144 0.0
C603 C 0.38116 0.52583 0.92505 0.0
C604 C 0.35127 0.51737 0.91843 0.0
C605 C 0.34184 0.48822 0.92572 0.0
C606 C 0.43246 0.51401 0.94889 0.0
C607 C 0.32991 0.53834 0.90167 0.0
C608 C 0.41199 0.60437 0.91555 0.0
C609 C 0.42599 0.60251 0.88562 0.0
C610 C 0.3957 0.58013 0.92814 0.0
C611 C 0.39391 0.55337 0.91059 0.0
C612 C 0.40677 0.55189 0.87979 0.0
C613 C 0.42238 0.57653 0.8676 0.0
C614 C 0.38155 0.58272 0.96071 0.0
C615 C 0.40553 0.52367 0.86034 0.0
H616 H 0.40517 0.46159 0.96091 0.0
H617 H 0.3196 0.48117 0.91867 0.0
H618 H 0.44549 0.51593 0.92638 0.0
H619 H 0.43345 0.53597 0.9608 0.0
H620 H 0.44352 0.4971 0.9644 0.0
H621 H 0.30627 0.53069 0.90377 0.0
H622 H 0.33163 0.5612 0.91147 0.0
H623 H 0.33586 0.53967 0.87602 0.0
H624 H 0.41438 0.62445 0.92952 0.0
H625 H 0.43294 0.57482 0.84439 0.0
H626 H 0.39487 0.56966 0.97819 0.0
H627 H 0.3585 0.57337 0.96075 0.0
H628 H 0.38054 0.60625 0.9688 0.0
H629 H 0.41785 0.50555 0.87286 0.0
H630 H 0.41554 0.52666 0.83626 0.0
H631 H 0.38196 0.51621 0.85762 0.0
C632 C 0.65895 0.47034 0.42526 0.0
C633 C 0.64643 0.49041 0.44709 0.0
C634 C 0.64079 0.4504 0.40844 0.0
C635 C 0.60939 0.45056 0.41362 0.0
C636 C 0.59652 0.47142 0.43483 0.0
C637 C 0.6152 0.49109 0.45132 0.0
C638 C 0.65529 0.42858 0.38589 0.0
C639 C 0.56311 0.47221 0.44102 0.0
C640 C 0.55658 0.41177 0.35648 0.0
C641 C 0.55054 0.38502 0.37296 0.0
C642 C 0.57622 0.43311 0.36906 0.0
C643 C 0.59016 0.42752 0.39873 0.0
C644 C 0.58486 0.40024 0.41499 0.0
C645 C 0.56514 0.37936 0.40193 0.0
C646 C 0.58145 0.46195 0.35103 0.0
C647 C 0.59944 0.39339 0.44663 0.0
H648 H 0.68303 0.47005 0.42153 0.0
H649 H 0.60542 0.50634 0.46837 0.0
H650 H 0.65222 0.40549 0.39509 0.0
H651 H 0.64435 0.4298 0.36224 0.0
H652 H 0.67969 0.4328 0.38277 0.0
H653 H 0.55647 0.49109 0.45652 0.0
H654 H 0.55073 0.4741 0.41824 0.0
H655 H 0.55598 0.45105 0.45271 0.0
H656 H 0.54545 0.41637 0.33408 0.0
H657 H 0.56087 0.35871 0.41478 0.0
H658 H 0.60584 0.46575 0.34753 0.0
H659 H 0.57264 0.48093 0.36508 0.0
H660 H 0.57036 0.46212 0.32739 0.0
H661 H 0.62419 0.39532 0.44448 0.0
H662 H 0.59389 0.37065 0.45559 0.0
H663 H 0.59198 0.40987 0.46458 0.0
C664 C 0.67545 0.55337 0.96189 0.0
C665 C 0.66451 0.52961 0.98056 0.0
C666 C 0.65576 0.57283 0.94597 0.0
C667 C 0.62441 0.56838 0.94878 0.0
C668 C 0.61323 0.54469 0.96791 0.0
C669 C 0.6334 0.52559 0.98353 0.0
C670 C 0.66847 0.59793 0.92586 0.0
C671 C 0.57994 0.53916 0.97143 0.0
C672 C 0.56914 0.63041 0.92934 0.0
C673 C 0.55895 0.62191 0.89916 0.0
C674 C 0.59111 0.61369 0.94542 0.0
C675 C 0.60315 0.58785 0.931 0.0
C676 C 0.59368 0.57966 0.90018 0.0
C677 C 0.57174 0.59678 0.88463 0.0
C678 C 0.60077 0.62317 0.97822 0.0
C679 C 0.60608 0.55228 0.88398 0.0
H680 H 0.69946 0.55681 0.95981 0.0
H681 H 0.6248 0.50703 0.99753 0.0
H682 H 0.66167 0.5951 0.90069 0.0
H683 H 0.65928 0.61964 0.9339 0.0
H684 H 0.69336 0.59889 0.92688 0.0
H685 H 0.5749 0.52033 0.98797 0.0
H686 H 0.5686 0.55951 0.98038 0.0
H687 H 0.57012 0.53407 0.94786 0.0
H688 H 0.55957 0.64984 0.94076 0.0
H689 H 0.5642 0.59004 0.86128 0.0
H690 H 0.62557 0.62506 0.97924 0.0
H691 H 0.59396 0.60598 0.99598 0.0
H692 H 0.59076 0.64489 0.98521 0.0
H693 H 0.63094 0.55323 0.88316 0.0
H694 H 0.59758 0.54988 0.85931 0.0
H695 H 0.5998 0.53202 0.89783 0.0
C696 C 0.33953 0.49096 0.43296 0.0
C697 C 0.36218 0.51245 0.43634 0.0
C698 C 0.34664 0.4614 0.425 0.0
C699 C 0.377 0.45345 0.4199 0.0
C700 C 0.39999 0.47464 0.42512 0.0
C701 C 0.39228 0.5038 0.4335 0.0
C702 C 0.32158 0.43923 0.42039 0.0
C703 C 0.43272 0.46704 0.42007 0.0
C704 C 0.41077 0.37674 0.41086 0.0
C705 C 0.4163 0.37647 0.37793 0.0
C706 C 0.39509 0.40046 0.42489 0.0
C707 C 0.38506 0.42441 0.40551 0.0
C708 C 0.38774 0.42261 0.37201 0.0
C709 C 0.40315 0.39854 0.35861 0.0
C710 C 0.39168 0.40114 0.46063 0.0
C711 C 0.3771 0.44757 0.35043 0.0
H712 H 0.3162 0.49751 0.43515 0.0
H713 H 0.40988 0.52013 0.43698 0.0
H714 H 0.3173 0.4366 0.39458 0.0
H715 H 0.32776 0.41698 0.43014 0.0
H716 H 0.30042 0.44672 0.43193 0.0
H717 H 0.44784 0.48562 0.42684 0.0
H718 H 0.43886 0.44696 0.43423 0.0
H719 H 0.43674 0.4618 0.39463 0.0
H720 H 0.42036 0.35952 0.42599 0.0
H721 H 0.40666 0.39821 0.33306 0.0
H722 H 0.36948 0.41029 0.46757 0.0
H723 H 0.40915 0.41587 0.47076 0.0
H724 H 0.39429 0.37855 0.47139 0.0
H725 H 0.35395 0.45441 0.35681 0.0
H726 H 0.37754 0.44113 0.32495 0.0
H727 H 0.39184 0.46731 0.35343 0.0
C728 C 0.87639 0.9954 0.95365 0.0
C729 C 0.84716 0.98707 0.94535 0.0
C730 C 0.88907 0.02191 0.94202 0.0
C731 C 0.87193 0.04078 0.92193 0.0
C732 C 0.8418 0.03343 0.91497 0.0
C733 C 0.82979 0.00652 0.92664 0.0
C734 C 0.92132 0.02896 0.94996 0.0
C735 C 0.82275 0.05326 0.894 0.0
C736 C 0.90706 0.11673 0.9074 0.0
C737 C 0.92307 0.11168 0.87909 0.0
C738 C 0.88873 0.0944 0.9208 0.0
C739 C 0.88677 0.06636 0.90572 0.0
C740 C 0.90161 0.06168 0.87634 0.0
C741 C 0.9194 0.08445 0.8633 0.0
C742 C 0.87268 0.10033 0.95183 0.0
C743 C 0.9002 0.03199 0.85959 0.0
H744 H 0.88965 0.98082 0.96878 0.0
H745 H 0.80719 0.00018 0.92007 0.0
H746 H 0.93518 0.02831 0.92795 0.0
H747 H 0.92311 0.05179 0.95975 0.0
H748 H 0.93092 0.01292 0.96748 0.0
H749 H 0.79872 0.04666 0.89462 0.0
H750 H 0.82463 0.0769 0.90141 0.0
H751 H 0.83086 0.05194 0.86905 0.0
H752 H 0.90946 0.1378 0.91961 0.0
H753 H 0.9315 0.08031 0.84134 0.0
H754 H 0.8837 0.0876 0.97129 0.0
H755 H 0.84904 0.09267 0.95065 0.0
H756 H 0.87293 0.12439 0.95803 0.0
H757 H 0.91143 0.01466 0.87435 0.0
H758 H 0.91128 0.03269 0.83586 0.0
H759 H 0.87655 0.02497 0.85647 0.0
C760 C 0.17608 0.95415 0.46153 0.0
C761 C 0.16533 0.97462 0.48397 0.0
C762 C 0.15641 0.9349 0.44569 0.0
C763 C 0.12528 0.93629 0.45236 0.0
C764 C 0.11433 0.95673 0.47514 0.0
C765 C 0.13449 0.97555 0.49074 0.0
C766 C 0.16888 0.9133 0.4216 0.0
C767 C 0.08127 0.95885 0.48293 0.0
C768 C 0.06891 0.90885 0.39191 0.0
C769 C 0.06011 0.88139 0.40531 0.0
C770 C 0.09059 0.92665 0.40664 0.0
C771 C 0.10395 0.91669 0.43532 0.0
C772 C 0.09583 0.88866 0.4485 0.0
C773 C 0.07394 0.87139 0.43341 0.0
C774 C 0.09862 0.9565 0.39194 0.0
C775 C 0.10982 0.87718 0.47892 0.0
H776 H 0.19984 0.95352 0.45594 0.0
H777 H 0.12609 0.99093 0.50847 0.0
H778 H 0.16229 0.89014 0.42807 0.0
H779 H 0.1593 0.9182 0.39779 0.0
H780 H 0.19374 0.91439 0.41984 0.0
H781 H 0.07642 0.97593 0.50127 0.0
H782 H 0.06846 0.96456 0.46111 0.0
H783 H 0.07289 0.93694 0.49168 0.0
H784 H 0.05841 0.9168 0.37021 0.0
H785 H 0.06753 0.85009 0.4438 0.0
H786 H 0.12322 0.95802 0.38811 0.0
H787 H 0.09221 0.97467 0.40842 0.0
H788 H 0.08721 0.96037 0.36881 0.0
H789 H 0.13465 0.87727 0.47676 0.0
H790 H 0.10234 0.85419 0.48505 0.0
H791 H 0.10382 0.89213 0.49889 0.0
C792 C 0.13489 0.01883 0.96228 0.0
C793 C 0.16403 0.02831 0.96945 0.0
C794 C 0.11465 0.03788 0.94669 0.0
C795 C 0.1239 0.06702 0.93778 0.0
C796 C 0.1534 0.07664 0.94469 0.0
C797 C 0.17309 0.0572 0.96064 0.0
C798 C 0.08326 0.02694 0.94006 0.0
C799 C 0.16415 0.10742 0.9352 0.0
C800 C 0.07772 0.10457 0.87315 0.0
C801 C 0.05862 0.12293 0.89105 0.0
C802 C 0.09973 0.08695 0.88797 0.0
C803 C 0.10246 0.08742 0.92152 0.0
C804 C 0.08371 0.10636 0.93967 0.0
C805 C 0.06214 0.12402 0.9242 0.0
C806 C 0.11963 0.06734 0.86779 0.0
C807 C 0.08581 0.10729 0.97552 0.0
H808 H 0.12773 0.99664 0.96943 0.0
H809 H 0.19571 0.06446 0.96593 0.0
H810 H 0.06662 0.04167 0.95183 0.0
H811 H 0.07879 0.02789 0.91412 0.0
H812 H 0.07961 0.00368 0.94861 0.0
H813 H 0.18793 0.11127 0.94182 0.0
H814 H 0.16185 0.11064 0.90911 0.0
H815 H 0.15003 0.12461 0.94683 0.0
H816 H 0.07538 0.1038 0.8475 0.0
H817 H 0.04746 0.13809 0.93824 0.0
H818 H 0.11512 0.04352 0.87343 0.0
H819 H 0.14358 0.0716 0.87323 0.0
H820 H 0.11602 0.07105 0.84191 0.0
H821 H 0.0802 0.08504 0.98569 0.0
H822 H 0.07042 0.12409 0.98604 0.0
H823 H 0.10909 0.11257 0.98281 0.0
C824 C 0.8336 0.96555 0.4814 0.0
C825 C 0.81569 0.97707 0.45687 0.0
C826 C 0.84971 0.93898 0.47714 0.0
C827 C 0.84758 0.92391 0.44776 0.0
C828 C 0.8255 0.93273 0.42547 0.0
C829 C 0.80993 0.95954 0.43014 0.0
C830 C 0.87236 0.92979 0.50193 0.0
C831 C 0.82157 0.91645 0.39449 0.0
C832 C 0.92091 0.90507 0.40749 0.0
C833 C 0.9221 0.87399 0.41063 0.0
C834 C 0.89713 0.92138 0.42033 0.0
C835 C 0.87359 0.90617 0.43643 0.0
C836 C 0.87492 0.87478 0.44041 0.0
C837 C 0.89937 0.85898 0.42754 0.0
C838 C 0.89705 0.95495 0.416 0.0
C839 C 0.85013 0.8577 0.45698 0.0
H840 H 0.83787 0.97896 0.50226 0.0
H841 H 0.79554 0.96821 0.41148 0.0
H842 H 0.87414 0.90513 0.50372 0.0
H843 H 0.89475 0.93861 0.495 0.0
H844 H 0.86648 0.93882 0.52571 0.0
H845 H 0.79958 0.92167 0.38338 0.0
H846 H 0.83959 0.92335 0.37764 0.0
H847 H 0.82335 0.89197 0.39817 0.0
H848 H 0.93867 0.91676 0.39481 0.0
H849 H 0.9002 0.83487 0.42981 0.0
H850 H 0.89489 0.96604 0.43942 0.0
H851 H 0.87755 0.96185 0.40134 0.0
H852 H 0.91779 0.96328 0.40417 0.0
H853 H 0.84097 0.87023 0.47752 0.0
H854 H 0.85797 0.83547 0.46544 0.0
H855 H 0.83152 0.85416 0.43998 0.0
C856 C 0.3815 0.29171 0.09294 0.0
C857 C 0.35158 0.29927 0.08683 0.0
C858 C 0.3921 0.28959 0.12418 0.0
C859 C 0.37214 0.29476 0.14988 0.0
C860 C 0.34142 0.30039 0.14389 0.0
C861 C 0.33153 0.30291 0.11231 0.0
C862 C 0.42512 0.2838 0.12955 0.0
C863 C 0.31936 0.30528 0.17072 0.0
C864 C 0.40635 0.2743 0.22937 0.0
C865 C 0.41865 0.30179 0.23842 0.0
C866 C 0.38903 0.27197 0.20169 0.0
C867 C 0.38442 0.29761 0.18245 0.0
C868 C 0.39502 0.32572 0.1926 0.0
C869 C 0.41178 0.32751 0.22062 0.0
C870 C 0.3773 0.24179 0.19206 0.0
C871 C 0.39069 0.35361 0.17265 0.0
H872 H 0.39707 0.28919 0.07323 0.0
H873 H 0.3083 0.3085 0.10752 0.0
H874 H 0.43564 0.30389 0.14002 0.0
H875 H 0.42822 0.2651 0.14669 0.0
H876 H 0.43718 0.27834 0.10714 0.0
H877 H 0.29575 0.30434 0.1624 0.0
H878 H 0.32254 0.28832 0.18981 0.0
H879 H 0.32328 0.32751 0.18135 0.0
H880 H 0.41117 0.25438 0.24326 0.0
H881 H 0.42103 0.34887 0.22746 0.0
H882 H 0.39114 0.23303 0.1722 0.0
H883 H 0.35386 0.24357 0.18344 0.0
H884 H 0.37806 0.22541 0.21205 0.0
H885 H 0.40377 0.35166 0.15021 0.0
H886 H 0.39811 0.37404 0.18516 0.0
H887 H 0.36677 0.3563 0.16608 0.0
C888 C 0.61895 0.62121 0.63366 0.0
C889 C 0.6454 0.63487 0.62289 0.0
C890 C 0.60145 0.63419 0.65764 0.0
C891 C 0.61086 0.66132 0.67149 0.0
C892 C 0.637 0.6758 0.65989 0.0
C893 C 0.65392 0.66245 0.63552 0.0
C894 C 0.57347 0.61822 0.66897 0.0
C895 C 0.64784 0.70461 0.67421 0.0
C896 C 0.55106 0.69795 0.72263 0.0
C897 C 0.55683 0.68462 0.75229 0.0
C898 C 0.56958 0.69207 0.69623 0.0
C899 C 0.59458 0.6728 0.69986 0.0
C900 C 0.60184 0.66137 0.73039 0.0
C901 C 0.58273 0.66722 0.75618 0.0
C902 C 0.56101 0.70455 0.66405 0.0
C903 C 0.62859 0.64119 0.73545 0.0
H904 H 0.61217 0.60007 0.62357 0.0
H905 H 0.67447 0.67295 0.62726 0.0
H906 H 0.57661 0.61032 0.69384 0.0
H907 H 0.55405 0.63373 0.66887 0.0
H908 H 0.56797 0.59868 0.65398 0.0
H909 H 0.6666 0.71465 0.6603 0.0
H910 H 0.62924 0.72102 0.67565 0.0
H911 H 0.65568 0.70031 0.69886 0.0
H912 H 0.53095 0.71126 0.71949 0.0
H913 H 0.58739 0.65711 0.77918 0.0
H914 H 0.55151 0.68643 0.64934 0.0
H915 H 0.581 0.7134 0.6513 0.0
H916 H 0.54401 0.72261 0.66598 0.0
H917 H 0.62433 0.61929 0.7242 0.0
H918 H 0.63329 0.63733 0.76111 0.0
H919 H 0.6489 0.65086 0.724 0.0
C920 C 0.64835 0.33854 0.11911 0.0
C921 C 0.66994 0.35876 0.13016 0.0
C922 C 0.62674 0.3262 0.1398 0.0
C923 C 0.6269 0.33402 0.17238 0.0
C924 C 0.64983 0.35277 0.18407 0.0
C925 C 0.67091 0.36506 0.16282 0.0
C926 C 0.60265 0.30631 0.1264 0.0
C927 C 0.65095 0.3615 0.2187 0.0
C928 C 0.55357 0.34088 0.21745 0.0
C929 C 0.55379 0.31528 0.2369 0.0
C930 C 0.5767 0.34653 0.19558 0.0
C931 C 0.60097 0.32626 0.19328 0.0
C932 C 0.60099 0.2999 0.21216 0.0
C933 C 0.57722 0.29458 0.23366 0.0
C934 C 0.57553 0.37471 0.17558 0.0
C935 C 0.62663 0.27793 0.21051 0.0
H936 H 0.64779 0.333 0.09406 0.0
H937 H 0.68721 0.38085 0.17168 0.0
H938 H 0.59956 0.28617 0.1416 0.0
H939 H 0.58098 0.31854 0.12613 0.0
H940 H 0.60791 0.29917 0.10174 0.0
H941 H 0.67229 0.37286 0.22478 0.0
H942 H 0.63208 0.37687 0.22406 0.0
H943 H 0.64833 0.34156 0.23429 0.0
H944 H 0.53531 0.35677 0.2195 0.0
H945 H 0.57752 0.27481 0.24871 0.0
H946 H 0.57807 0.36926 0.15 0.0
H947 H 0.59441 0.38959 0.18201 0.0
H948 H 0.55419 0.38717 0.17885 0.0
H949 H 0.63117 0.27166 0.18546 0.0
H950 H 0.62206 0.25733 0.22463 0.0
H951 H 0.64731 0.28848 0.21977 0.0
C952 C 0.3785 0.68857 0.60321 0.0
C953 C 0.35884 0.66576 0.59411 0.0
C954 C 0.38908 0.69033 0.63446 0.0
C955 C 0.37904 0.66932 0.65747 0.0
C956 C 0.35748 0.64764 0.64912 0.0
C957 C 0.34792 0.64584 0.61742 0.0
C958 C 0.41235 0.71362 0.64235 0.0
C959 C 0.34564 0.6254 0.67327 0.0
C960 C 0.43552 0.65179 0.7218 0.0
C961 C 0.42673 0.67145 0.74588 0.0
C962 C 0.41955 0.65022 0.69327 0.0
C963 C 0.39369 0.66817 0.68909 0.0
C964 C 0.38361 0.6867 0.71408 0.0
C965 C 0.40057 0.6885 0.74208 0.0
C966 C 0.43138 0.63061 0.66693 0.0
C967 C 0.35556 0.70538 0.71083 0.0
H968 H 0.38636 0.70463 0.58564 0.0
H969 H 0.33286 0.62801 0.61073 0.0
H970 H 0.40509 0.72678 0.66325 0.0
H971 H 0.43378 0.70247 0.64873 0.0
H972 H 0.41667 0.72921 0.62214 0.0
H973 H 0.32556 0.6134 0.66444 0.0
H974 H 0.36329 0.60869 0.67877 0.0
H975 H 0.33972 0.63671 0.69585 0.0
H976 H 0.45586 0.63874 0.72456 0.0
H977 H 0.39361 0.70353 0.76082 0.0
H978 H 0.43797 0.64468 0.64617 0.0
H979 H 0.41365 0.61512 0.65882 0.0
H980 H 0.45117 0.61726 0.67446 0.0
H981 H 0.35962 0.72384 0.69359 0.0
H982 H 0.3485 0.71519 0.73388 0.0
H983 H 0.33686 0.69173 0.70144 0.0
C984 C 0.85597 0.8755 0.13609 0.0
C985 C 0.83111 0.85802 0.1282 0.0
C986 C 0.87093 0.87117 0.16497 0.0
C987 C 0.86036 0.84918 0.18667 0.0
C988 C 0.83392 0.833 0.17982 0.0
C989 C 0.8198 0.83731 0.15034 0.0
C990 C 0.89933 0.88855 0.17114 0.0
C991 C 0.8215 0.81004 0.20282 0.0
C992 C 0.92164 0.81251 0.23501 0.0
C993 C 0.92102 0.82938 0.26293 0.0
C994 C 0.90126 0.81811 0.21043 0.0
C995 C 0.87925 0.84062 0.21424 0.0
C996 C 0.87734 0.85651 0.24314 0.0
C997 C 0.8986 0.85101 0.26704 0.0
C998 C 0.90439 0.80104 0.17971 0.0
C999 C 0.85357 0.88001 0.24837 0.0
H1000 H 0.86485 0.89132 0.11878 0.0
H1001 H 0.80039 0.82398 0.14423 0.0
H1002 H 0.89847 0.89894 0.19498 0.0
H1003 H 0.91884 0.87313 0.17087 0.0
H1004 H 0.90321 0.90636 0.15302 0.0
H1005 H 0.79832 0.80323 0.19651 0.0
H1006 H 0.83599 0.78989 0.20264 0.0
H1007 H 0.82141 0.81881 0.22745 0.0
H1008 H 0.93903 0.79586 0.23169 0.0
H1009 H 0.89789 0.86385 0.2888 0.0
H1010 H 0.91017 0.81669 0.16 0.0
H1011 H 0.88282 0.79026 0.17356 0.0
H1012 H 0.92204 0.78355 0.18106 0.0
H1013 H 0.8586 0.89991 0.2334 0.0
H1014 H 0.85236 0.88709 0.27363 0.0
H1015 H 0.83124 0.87156 0.24113 0.0
C1016 C 0.17594 0.16197 0.6504 0.0
C1017 C 0.16587 0.13748 0.63282 0.0
C1018 C 0.15663 0.17667 0.67172 0.0
C1019 C 0.12669 0.16656 0.67541 0.0
C1020 C 0.11596 0.14321 0.65601 0.0
C1021 C 0.13568 0.12897 0.63499 0.0
C1022 C 0.16883 0.20164 0.69176 0.0
C1023 C 0.08413 0.13187 0.65893 0.0
C1024 C 0.08628 0.16598 0.75445 0.0
C1025 C 0.06372 0.1873 0.74941 0.0
C1026 C 0.10834 0.16065 0.73139 0.0
C1027 C 0.10776 0.17695 0.70239 0.0
C1028 C 0.08645 0.20013 0.69812 0.0
C1029 C 0.06462 0.20513 0.72183 0.0
C1030 C 0.13086 0.13598 0.73717 0.0
C1031 C 0.08532 0.21817 0.66767 0.0
H1032 H 0.19928 0.16864 0.64872 0.0
H1033 H 0.1277 0.11044 0.62091 0.0
H1034 H 0.15247 0.22026 0.69325 0.0
H1035 H 0.17272 0.19329 0.71633 0.0
H1036 H 0.19039 0.21039 0.68215 0.0
H1037 H 0.07848 0.11575 0.63993 0.0
H1038 H 0.08109 0.12059 0.68235 0.0
H1039 H 0.068 0.15071 0.65783 0.0
H1040 H 0.08597 0.1525 0.77602 0.0
H1041 H 0.04724 0.22168 0.71788 0.0
H1042 H 0.15391 0.14385 0.73163 0.0
H1043 H 0.12599 0.11701 0.72118 0.0
H1044 H 0.13029 0.12766 0.76215 0.0
H1045 H 0.10822 0.22462 0.65979 0.0
H1046 H 0.07151 0.23866 0.67035 0.0
H1047 H 0.07535 0.20441 0.64859 0.0
C1048 C 0.17268 0.8662 0.1655 0.0
C1049 C 0.16177 0.88111 0.13839 0.0
C1050 C 0.15303 0.85487 0.18884 0.0
C1051 C 0.12169 0.85832 0.18487 0.0
C1052 C 0.11048 0.87231 0.15702 0.0
C1053 C 0.13064 0.88366 0.13421 0.0
C1054 C 0.16582 0.84016 0.21827 0.0
C1055 C 0.0772 0.87634 0.15187 0.0
C1056 C 0.0668 0.81365 0.23601 0.0
C1057 C 0.0581 0.83495 0.25856 0.0
C1058 C 0.08785 0.82072 0.21208 0.0
C1059 C 0.10068 0.84963 0.21095 0.0
C1060 C 0.09263 0.87089 0.2342 0.0
C1061 C 0.07139 0.86335 0.25759 0.0
C1062 C 0.09578 0.79757 0.18754 0.0
C1063 C 0.10604 0.90187 0.23405 0.0
H1064 H 0.19668 0.86365 0.16866 0.0
H1065 H 0.12195 0.89544 0.11359 0.0
H1066 H 0.16055 0.85391 0.23943 0.0
H1067 H 0.15539 0.81796 0.22221 0.0
H1068 H 0.19055 0.83732 0.21672 0.0
H1069 H 0.07206 0.88529 0.12775 0.0
H1070 H 0.06534 0.85476 0.15514 0.0
H1071 H 0.06805 0.89201 0.16979 0.0
H1072 H 0.0566 0.7917 0.23655 0.0
H1073 H 0.06509 0.87987 0.2751 0.0
H1074 H 0.12045 0.79431 0.18654 0.0
H1075 H 0.08861 0.80542 0.16364 0.0
H1076 H 0.08495 0.7757 0.19261 0.0
H1077 H 0.13089 0.90047 0.23454 0.0
H1078 H 0.09839 0.91532 0.25465 0.0
H1079 H 0.09975 0.91381 0.21181 0.0
C1080 C 0.84009 0.13959 0.62036 0.0
C1081 C 0.85166 0.15297 0.5927 0.0
C1082 C 0.85206 0.14634 0.65025 0.0
C1083 C 0.8767 0.16616 0.65216 0.0
C1084 C 0.8876 0.18061 0.6243 0.0
C1085 C 0.87466 0.17405 0.59484 0.0
C1086 C 0.83936 0.13109 0.67952 0.0
C1087 C 0.91426 0.20137 0.62527 0.0
C1088 C 0.90544 0.19589 0.73074 0.0
C1089 C 0.92864 0.17565 0.73738 0.0
C1090 C 0.88746 0.19251 0.70363 0.0
C1091 C 0.8935 0.16887 0.68239 0.0
C1092 C 0.91667 0.14821 0.68924 0.0
C1093 C 0.9337 0.15165 0.71686 0.0
C1094 C 0.86236 0.21442 0.69745 0.0
C1095 C 0.92422 0.12302 0.66685 0.0
H1096 H 0.82217 0.12335 0.61845 0.0
H1097 H 0.88361 0.18413 0.57324 0.0
H1098 H 0.85538 0.1139 0.68814 0.0
H1099 H 0.83615 0.1474 0.69898 0.0
H1100 H 0.81756 0.12005 0.67466 0.0
H1101 H 0.91836 0.21264 0.60199 0.0
H1102 H 0.91095 0.21866 0.64369 0.0
H1103 H 0.93465 0.1885 0.6318 0.0
H1104 H 0.90137 0.21437 0.7467 0.0
H1105 H 0.9518 0.13611 0.72174 0.0
H1106 H 0.84107 0.2023 0.69316 0.0
H1107 H 0.86739 0.22772 0.67569 0.0
H1108 H 0.85898 0.22998 0.71761 0.0
H1109 H 0.90429 0.10863 0.66337 0.0
H1110 H 0.94294 0.1089 0.67575 0.0
H1111 H 0.93063 0.13225 0.64318 0.0
loop_
_geom_bond_atom_site_label_1
_geom_bond_atom_site_label_2
_geom_bond_distance
_geom_bond_site_symmetry_2
_ccdc_geom_bond_type
P0 O11 1.490 . S
P0 C14 1.812 1_556 S
P0 C20 1.803 . S
P0 C26 1.819 . S
H1 C15 0.941 . S
H2 C16 0.939 . S
H3 C18 0.940 . S
H4 C19 0.940 . S
H5 C21 0.939 . S
H6 C22 0.942 . S
H7 C24 0.940 1_554 S
H8 C25 0.939 . S
H9 C27 0.941 . S
H10 C31 0.939 . S
O11 P0 1.490 . S
H12 C28 0.939 . S
H13 C30 0.940 . S
C14 P0 1.812 1_554 S
C14 C15 1.389 . S
C14 C19 1.391 . S
C15 H1 0.941 . S
C15 C14 1.389 . S
C15 C16 1.397 . S
C16 H2 0.939 . S
C16 C15 1.397 . S
C16 C17 1.378 . S
C17 C16 1.378 . S
C17 C18 1.378 . S
C18 H3 0.940 . S
C18 C17 1.378 . S
C18 C19 1.396 . S
C19 H4 0.940 . S
C19 C14 1.391 . S
C19 C18 1.396 . S
C20 P0 1.803 . S
C20 C21 1.378 . S
C20 C25 1.400 1_556 S
C21 H5 0.939 . S
C21 C20 1.378 . S
C21 C22 1.361 . S
C22 H6 0.942 . S
C22 C21 1.361 . S
C22 C23 1.369 . S
C23 C22 1.369 . S
C23 C24 1.404 . S
C24 H7 0.940 1_556 S
C24 C23 1.404 . S
C24 C25 1.389 1_556 S
C25 H8 0.939 . S
C25 C20 1.400 1_554 S
C25 C24 1.389 1_554 S
C26 P0 1.819 . S
C26 C27 1.391 . S
C26 C31 1.391 . S
C27 H9 0.941 . S
C27 C26 1.391 . S
C27 C28 1.396 . S
C28 H12 0.939 . S
C28 C27 1.396 . S
C28 C29 1.397 . S
C29 C28 1.397 . S
C29 C30 1.385 . S
C30 H13 0.940 . S
C30 C29 1.385 . S
C30 C31 1.388 . S
C31 H10 0.939 . S
C31 C26 1.391 . S
C31 C30 1.388 . S
P32 O43 1.490 . S
P32 C46 1.812 . S
P32 C52 1.803 . S
P32 C58 1.819 . S
H33 C47 0.941 . S
H34 C48 0.939 . S
H35 C50 0.940 . S
H36 C51 0.940 . S
H37 C53 0.939 . S
H38 C54 0.942 . S
H39 C56 0.940 . S
H40 C57 0.939 . S
H41 C59 0.941 . S
H42 C63 0.939 . S
O43 P32 1.490 . S
H44 C60 0.939 . S
H45 C62 0.940 . S
C46 P32 1.812 . S
C46 C47 1.389 . S
C46 C51 1.391 . S
C47 H33 0.941 . S
C47 C46 1.389 . S
C47 C48 1.397 . S
C48 H34 0.939 . S
C48 C47 1.397 . S
C48 C49 1.378 . S
C49 C48 1.378 . S
C49 C50 1.378 . S
C50 H35 0.940 . S
C50 C49 1.378 . S
C50 C51 1.396 . S
C51 H36 0.940 . S
C51 C46 1.391 . S
C51 C50 1.396 . S
C52 P32 1.803 . S
C52 C53 1.378 . S
C52 C57 1.400 . S
C53 H37 0.939 . S
C53 C52 1.378 . S
C53 C54 1.361 . S
C54 H38 0.942 . S
C54 C53 1.361 . S
C54 C55 1.369 . S
C55 C54 1.369 . S
C55 C56 1.404 . S
C56 H39 0.940 . S
C56 C55 1.404 . S
C56 C57 1.389 . S
C57 H40 0.939 . S
C57 C52 1.400 . S
C57 C56 1.389 . S
C58 P32 1.819 . S
C58 C59 1.391 . S
C58 C63 1.391 . S
C59 H41 0.941 . S
C59 C58 1.391 . S
C59 C60 1.396 . S
C60 H44 0.939 . S
C60 C59 1.396 . S
C60 C61 1.397 . S
C61 C60 1.397 . S
C61 C62 1.385 . S
C62 H45 0.940 . S
C62 C61 1.385 . S
C62 C63 1.388 . S
C63 H42 0.939 . S
C63 C58 1.391 . S
C63 C62 1.388 . S
P64 O75 1.490 . S
P64 C78 1.812 . S
P64 C84 1.803 . S
P64 C90 1.819 . S
H65 C79 0.941 . S
H66 C80 0.939 . S
H67 C82 0.940 . S
H68 C83 0.940 . S
H69 C85 0.936 1_554 S
H70 C86 0.942 . S
H71 C88 0.940 . S
H72 C89 0.939 . S
H73 C91 0.941 . S
H74 C95 0.939 . S
O75 P64 1.490 . S
H76 C92 0.939 . S
H77 C94 0.940 . S
C78 P64 1.812 . S
C78 C79 1.389 . S
C78 C83 1.391 . S
C79 H65 0.941 . S
C79 C78 1.389 . S
C79 C80 1.397 . S
C80 H66 0.939 . S
C80 C79 1.397 . S
C80 C81 1.378 . S
C81 C80 1.378 . S
C81 C82 1.378 . S
C82 H67 0.940 . S
C82 C81 1.378 . S
C82 C83 1.396 . S
C83 H68 0.940 . S
C83 C78 1.391 . S
C83 C82 1.396 . S
C84 P64 1.803 . S
C84 C85 1.378 1_554 S
C84 C89 1.400 . S
C85 H69 0.936 1_556 S
C85 C84 1.378 1_556 S
C85 C86 1.361 . S
C86 H70 0.942 . S
C86 C85 1.361 . S
C86 C87 1.369 . S
C87 C86 1.369 . S
C87 C88 1.404 . S
C88 H71 0.940 . S
C88 C87 1.404 . S
C88 C89 1.389 1_556 S
C89 H72 0.939 . S
C89 C84 1.400 . S
C89 C88 1.389 1_554 S
C90 P64 1.819 . S
C90 C91 1.391 . S
C90 C95 1.391 1_554 S
C91 H73 0.941 . S
C91 C90 1.391 . S
C91 C92 1.396 1_554 S
C92 H76 0.939 . S
C92 C91 1.396 1_556 S
C92 C93 1.397 . S
C93 C92 1.397 . S
C93 C94 1.385 . S
C94 H77 0.940 . S
C94 C93 1.385 . S
C94 C95 1.388 . S
C95 H74 0.939 . S
C95 C90 1.391 1_556 S
C95 C94 1.388 . S
P96 O107 1.490 . S
P96 C110 1.812 . S
P96 C116 1.803 . S
P96 C122 1.819 . S
H97 C111 0.941 . S
H98 C112 0.939 . S
H99 C114 0.940 . S
H100 C115 0.940 . S
H101 C117 0.939 . S
H102 C118 0.942 . S
H103 C120 0.940 . S
H104 C121 0.939 . S
H105 C123 0.941 . S
H106 C127 0.939 . S
O107 P96 1.490 . S
H108 C124 0.939 . S
H109 C126 0.940 . S
C110 P96 1.812 . S
C110 C111 1.389 . S
C110 C115 1.391 . S
C111 H97 0.941 . S
C111 C110 1.389 . S
C111 C112 1.397 . S
C112 H98 0.939 . S
C112 C111 1.397 . S
C112 C113 1.378 . S
C113 C112 1.378 . S
C113 C114 1.378 . S
C114 H99 0.940 . S
C114 C113 1.378 . S
C114 C115 1.396 . S
C115 H100 0.940 . S
C115 C110 1.391 . S
C115 C114 1.396 . S
C116 P96 1.803 . S
C116 C117 1.378 . S
C116 C121 1.400 . S
C117 H101 0.939 . S
C117 C116 1.378 . S
C117 C118 1.361 . S
C118 H102 0.942 . S
C118 C117 1.361 . S
C118 C119 1.369 . S
C119 C118 1.369 . S
C119 C120 1.404 . S
C120 H103 0.940 . S
C120 C119 1.404 . S
C120 C121 1.389 . S
C121 H104 0.939 . S
C121 C116 1.400 . S
C121 C120 1.389 . S
C122 P96 1.819 . S
C122 C123 1.391 . S
C122 C127 1.391 . S
C123 H105 0.941 . S
C123 C122 1.391 . S
C123 C124 1.396 . S
C124 H108 0.939 . S
C124 C123 1.396 . S
C124 C125 1.397 . S
C125 C124 1.397 . S
C125 C126 1.385 . S
C126 H109 0.940 . S
C126 C125 1.385 . S
C126 C127 1.388 . S
C127 H106 0.939 . S
C127 C122 1.391 . S
C127 C126 1.388 . S
P128 O139 1.490 . S
P128 C142 1.812 1_556 S
P128 C148 1.803 . S
P128 C154 1.819 . S
H129 C143 0.941 . S
H130 C144 0.939 . S
H131 C146 0.940 . S
H132 C147 0.940 . S
H133 C149 0.939 . S
H134 C150 0.942 . S
H135 C152 0.940 1_554 S
H136 C153 0.939 . S
H137 C155 0.941 . S
H138 C159 0.939 . S
O139 P128 1.490 . S
H140 C156 0.939 . S
H141 C158 0.940 . S
C142 P128 1.812 1_554 S
C142 C143 1.389 . S
C142 C147 1.391 . S
C143 H129 0.941 . S
C143 C142 1.389 . S
C143 C144 1.397 . S
C144 H130 0.939 . S
C144 C143 1.397 . S
C144 C145 1.378 . S
C145 C144 1.378 . S
C145 C146 1.378 . S
C146 H131 0.940 . S
C146 C145 1.378 . S
C146 C147 1.396 . S
C147 H132 0.940 . S
C147 C142 1.391 . S
C147 C146 1.396 . S
C148 P128 1.803 . S
C148 C149 1.378 . S
C148 C153 1.400 1_556 S
C149 H133 0.939 . S
C149 C148 1.378 . S
C149 C150 1.361 . S
C150 H134 0.942 . S
C150 C149 1.361 . S
C150 C151 1.369 . S
C151 C150 1.369 . S
C151 C152 1.404 . S
C152 H135 0.940 1_556 S
C152 C151 1.404 . S
C152 C153 1.389 1_556 S
C153 H136 0.939 . S
C153 C148 1.400 1_554 S
C153 C152 1.389 1_554 S
C154 P128 1.819 . S
C154 C155 1.391 . S
C154 C159 1.391 . S
C155 H137 0.941 . S
C155 C154 1.391 . S
C155 C156 1.396 . S
C156 H140 0.939 . S
C156 C155 1.396 . S
C156 C157 1.397 . S
C157 C156 1.397 . S
C157 C158 1.385 . S
C158 H141 0.940 . S
C158 C157 1.385 . S
C158 C159 1.388 . S
C159 H138 0.939 . S
C159 C154 1.391 . S
C159 C158 1.388 . S
P160 O171 1.490 . S
P160 C174 1.812 . S
P160 C180 1.803 . S
P160 C186 1.819 . S
H161 C175 0.941 . S
H162 C176 0.939 1_565 S
H163 C178 0.940 . S
H164 C179 0.940 . S
H165 C181 0.939 . S
H166 C182 0.942 . S
H167 C184 0.940 . S
H168 C185 0.939 . S
H169 C187 0.941 . S
H170 C191 0.939 . S
O171 P160 1.490 . S
H172 C188 0.939 . S
H173 C190 0.940 . S
C174 P160 1.812 . S
C174 C175 1.389 . S
C174 C179 1.391 . S
C175 H161 0.941 . S
C175 C174 1.389 . S
C175 C176 1.397 . S
C176 H162 0.939 1_545 S
C176 C175 1.397 . S
C176 C177 1.378 . S
C177 C176 1.378 . S
C177 C178 1.378 . S
C178 H163 0.940 . S
C178 C177 1.378 . S
C178 C179 1.396 . S
C179 H164 0.940 . S
C179 C174 1.391 . S
C179 C178 1.396 . S
C180 P160 1.803 . S
C180 C181 1.378 . S
C180 C185 1.400 . S
C181 H165 0.939 . S
C181 C180 1.378 . S
C181 C182 1.361 . S
C182 H166 0.942 . S
C182 C181 1.361 . S
C182 C183 1.369 . S
C183 C182 1.369 . S
C183 C184 1.404 . S
C184 H167 0.940 . S
C184 C183 1.404 . S
C184 C185 1.389 . S
C185 H168 0.939 . S
C185 C180 1.400 . S
C185 C184 1.389 . S
C186 P160 1.819 . S
C186 C187 1.391 . S
C186 C191 1.391 . S
C187 H169 0.941 . S
C187 C186 1.391 . S
C187 C188 1.396 . S
C188 H172 0.939 . S
C188 C187 1.396 . S
C188 C189 1.397 . S
C189 C188 1.397 . S
C189 C190 1.385 . S
C190 H173 0.940 . S
C190 C189 1.385 . S
C190 C191 1.388 . S
C191 H170 0.939 . S
C191 C186 1.391 . S
C191 C190 1.388 . S
P192 O203 1.490 . S
P192 C206 1.812 . S
P192 C212 1.803 . S
P192 C218 1.819 . S
H193 C207 0.941 . S
H194 C208 0.939 . S
H195 C210 0.940 . S
H196 C211 0.940 . S
H197 C213 0.936 1_554 S
H198 C214 0.942 . S
H199 C216 0.940 . S
H200 C217 0.939 . S
H201 C219 0.941 . S
H202 C223 0.939 . S
O203 P192 1.490 . S
H204 C220 0.939 1_545 S
H205 C222 0.940 . S
C206 P192 1.812 . S
C206 C207 1.389 . S
C206 C211 1.391 . S
C207 H193 0.941 . S
C207 C206 1.389 . S
C207 C208 1.397 . S
C208 H194 0.939 . S
C208 C207 1.397 . S
C208 C209 1.378 . S
C209 C208 1.378 . S
C209 C210 1.378 . S
C210 H195 0.940 . S
C210 C209 1.378 . S
C210 C211 1.396 . S
C211 H196 0.940 . S
C211 C206 1.391 . S
C211 C210 1.396 . S
C212 P192 1.803 . S
C212 C213 1.378 1_554 S
C212 C217 1.400 . S
C213 H197 0.936 1_556 S
C213 C212 1.378 1_556 S
C213 C214 1.361 . S
C214 H198 0.942 . S
C214 C213 1.361 . S
C214 C215 1.369 . S
C215 C214 1.369 . S
C215 C216 1.404 . S
C216 H199 0.940 . S
C216 C215 1.404 . S
C216 C217 1.389 1_556 S
C217 H200 0.939 . S
C217 C212 1.400 . S
C217 C216 1.389 1_554 S
C218 P192 1.819 . S
C218 C219 1.391 . S
C218 C223 1.391 1_554 S
C219 H201 0.941 . S
C219 C218 1.391 . S
C219 C220 1.396 1_554 S
C220 H204 0.939 1_565 S
C220 C219 1.396 1_556 S
C220 C221 1.397 . S
C221 C220 1.397 . S
C221 C222 1.385 . S
C222 H205 0.940 . S
C222 C221 1.385 . S
C222 C223 1.388 . S
C223 H202 0.939 . S
C223 C218 1.391 1_556 S
C223 C222 1.388 . S
P224 O235 1.490 . S
P224 C238 1.812 . S
P224 C244 1.803 . S
P224 C250 1.819 . S
H225 C239 0.941 . S
H226 C240 0.939 . S
H227 C242 0.940 . S
H228 C243 0.940 . S
H229 C245 0.939 . S
H230 C246 0.942 . S
H231 C248 0.940 . S
H232 C249 0.939 . S
H233 C251 0.941 . S
H234 C255 0.939 . S
O235 P224 1.490 . S
H236 C252 0.939 . S
H237 C254 0.940 . S
C238 P224 1.812 . S
C238 C239 1.389 . S
C238 C243 1.391 . S
C239 H225 0.941 . S
C239 C238 1.389 . S
C239 C240 1.397 . S
C240 H226 0.939 . S
C240 C239 1.397 . S
C240 C241 1.378 . S
C241 C240 1.378 . S
C241 C242 1.378 . S
C242 H227 0.940 . S
C242 C241 1.378 . S
C242 C243 1.396 . S
C243 H228 0.940 . S
C243 C238 1.391 . S
C243 C242 1.396 . S
C244 P224 1.803 . S
C244 C245 1.378 . S
C244 C249 1.400 . S
C245 H229 0.939 . S
C245 C244 1.378 . S
C245 C246 1.361 . S
C246 H230 0.942 . S
C246 C245 1.361 . S
C246 C247 1.369 . S
C247 C246 1.369 . S
C247 C248 1.404 . S
C248 H231 0.940 . S
C248 C247 1.404 . S
C248 C249 1.389 . S
C249 H232 0.939 . S
C249 C244 1.400 . S
C249 C248 1.389 . S
C250 P224 1.819 . S
C250 C251 1.391 . S
C250 C255 1.391 . S
C251 H233 0.941 . S
C251 C250 1.391 . S
C251 C252 1.396 . S
C252 H236 0.939 . S
C252 C251 1.396 . S
C252 C253 1.397 . S
C253 C252 1.397 . S
C253 C254 1.385 . S
C254 H237 0.940 . S
C254 C253 1.385 . S
C254 C255 1.388 . S
C255 H234 0.939 . S
C255 C250 1.391 . S
C255 C254 1.388 . S
Sc256 O259 2.025 . S
Sc256 O266 2.105 1_455 S
Sc256 O269 2.105 . S
Sc256 O272 2.105 . S
Sc256 O275 2.105 1_455 S
Sc257 O259 2.025 . S
Sc257 O267 2.105 1_455 S
Sc257 O271 2.105 . S
Sc257 O273 2.105 . S
Sc257 O277 2.105 1_455 S
Sc258 O259 2.025 . S
Sc258 O268 2.105 1_455 S
Sc258 O270 2.105 . S
Sc258 O274 2.105 . S
Sc258 O276 2.105 1_455 S
O259 Sc256 2.025 . S
O259 Sc257 2.025 . S
O259 Sc258 2.025 . S
C260 O266 1.268 . S
C260 O276 1.268 . S
C261 O267 1.268 . S
C261 O275 1.268 . S
C262 O268 1.268 . S
C262 O277 1.268 . S
C263 O269 1.268 . S
C263 O273 1.268 . S
C264 O270 1.268 . S
C264 O272 1.268 . S
C265 O271 1.268 . S
C265 O274 1.268 . S
O266 Sc256 2.105 1_655 S
O266 C260 1.268 . S
O267 Sc257 2.105 1_655 S
O267 C261 1.268 . S
O268 Sc258 2.105 1_655 S
O268 C262 1.268 . S
O269 Sc256 2.105 . S
O269 C263 1.268 . S
O270 Sc258 2.105 . S
O270 C264 1.268 . S
O271 Sc257 2.105 . S
O271 C265 1.268 . S
O272 Sc256 2.105 . S
O272 C264 1.268 . S
O273 Sc257 2.105 . S
O273 C263 1.268 . S
O274 Sc258 2.105 . S
O274 C265 1.268 . S
O275 Sc256 2.105 1_655 S
O275 C261 1.268 . S
O276 Sc258 2.105 1_655 S
O276 C260 1.268 . S
O277 Sc257 2.105 1_655 S
O277 C262 1.268 . S
Sc278 O281 2.025 . S
Sc278 O288 2.105 . S
Sc278 O291 2.105 1_455 S
Sc278 O294 2.105 1_455 S
Sc278 O297 2.105 . S
Sc279 O281 2.025 . S
Sc279 O289 2.105 . S
Sc279 O293 2.105 1_455 S
Sc279 O295 2.105 1_455 S
Sc279 O299 2.105 . S
Sc280 O281 2.025 . S
Sc280 O290 2.105 . S
Sc280 O292 2.105 1_455 S
Sc280 O296 2.105 1_455 S
Sc280 O298 2.105 . S
O281 Sc278 2.025 . S
O281 Sc279 2.025 . S
O281 Sc280 2.025 . S
C282 O288 1.268 . S
C282 O298 1.268 . S
C283 O289 1.268 . S
C283 O297 1.268 . S
C284 O290 1.268 . S
C284 O299 1.268 . S
C285 O291 1.268 . S
C285 O295 1.268 . S
C286 O292 1.268 . S
C286 O294 1.268 . S
C287 O293 1.268 . S
C287 O296 1.268 . S
O288 Sc278 2.105 . S
O288 C282 1.268 . S
O289 Sc279 2.105 . S
O289 C283 1.268 . S
O290 Sc280 2.105 . S
O290 C284 1.268 . S
O291 Sc278 2.105 1_655 S
O291 C285 1.268 . S
O292 Sc280 2.105 1_655 S
O292 C286 1.268 . S
O293 Sc279 2.105 1_655 S
O293 C287 1.268 . S
O294 Sc278 2.105 1_655 S
O294 C286 1.268 . S
O295 Sc279 2.105 1_655 S
O295 C285 1.268 . S
O296 Sc280 2.105 1_655 S
O296 C287 1.268 . S
O297 Sc278 2.105 . S
O297 C283 1.268 . S
O298 Sc280 2.105 . S
O298 C282 1.268 . S
O299 Sc279 2.105 . S
O299 C284 1.268 . S
Sc300 O303 2.025 . S
Sc300 O310 2.105 . S
Sc300 O313 2.105 . S
Sc300 O316 2.105 . S
Sc300 O319 2.105 . S
Sc301 O303 2.025 . S
Sc301 O311 2.105 . S
Sc301 O315 2.105 . S
Sc301 O317 2.105 . S
Sc301 O321 2.105 . S
Sc302 O303 2.025 . S
Sc302 O312 2.105 . S
Sc302 O314 2.105 . S
Sc302 O318 2.105 . S
Sc302 O320 2.105 . S
O303 Sc300 2.025 . S
O303 Sc301 2.025 . S
O303 Sc302 2.025 . S
C304 O310 1.268 . S
C304 O320 1.268 . S
C305 O311 1.268 . S
C305 O319 1.268 . S
C306 O312 1.268 . S
C306 O321 1.268 . S
C307 O313 1.268 . S
C307 O317 1.268 . S
C308 O314 1.268 . S
C308 O316 1.268 . S
C309 O315 1.268 . S
C309 O318 1.268 . S
O310 Sc300 2.105 . S
O310 C304 1.268 . S
O311 Sc301 2.105 . S
O311 C305 1.268 . S
O312 Sc302 2.105 . S
O312 C306 1.268 . S
O313 Sc300 2.105 . S
O313 C307 1.268 . S
O314 Sc302 2.105 . S
O314 C308 1.268 . S
O315 Sc301 2.105 . S
O315 C309 1.268 . S
O316 Sc300 2.105 . S
O316 C308 1.268 . S
O317 Sc301 2.105 . S
O317 C307 1.268 . S
O318 Sc302 2.105 . S
O318 C309 1.268 . S
O319 Sc300 2.105 . S
O319 C305 1.268 . S
O320 Sc302 2.105 . S
O320 C304 1.268 . S
O321 Sc301 2.105 . S
O321 C306 1.268 . S
Sc322 O325 2.025 . S
Sc322 O332 2.105 . S
Sc322 O335 2.105 . S
Sc322 O338 2.105 . S
Sc322 O341 2.105 . S
Sc323 O325 2.025 . S
Sc323 O333 2.105 . S
Sc323 O337 2.105 . S
Sc323 O339 2.105 . S
Sc323 O343 2.105 . S
Sc324 O325 2.025 . S
Sc324 O334 2.105 . S
Sc324 O336 2.105 . S
Sc324 O340 2.105 . S
Sc324 O342 2.105 . S
O325 Sc322 2.025 . S
O325 Sc323 2.025 . S
O325 Sc324 2.025 . S
C326 O332 1.268 . S
C326 O342 1.268 . S
C327 O333 1.268 . S
C327 O341 1.268 . S
C328 O334 1.268 . S
C328 O343 1.268 . S
C329 O335 1.268 . S
C329 O339 1.268 . S
C330 O336 1.268 . S
C330 O338 1.268 . S
C331 O337 1.268 . S
C331 O340 1.268 . S
O332 Sc322 2.105 . S
O332 C326 1.268 . S
O333 Sc323 2.105 . S
O333 C327 1.268 . S
O334 Sc324 2.105 . S
O334 C328 1.268 . S
O335 Sc322 2.105 . S
O335 C329 1.268 . S
O336 Sc324 2.105 . S
O336 C330 1.268 . S
O337 Sc323 2.105 . S
O337 C331 1.268 . S
O338 Sc322 2.105 . S
O338 C330 1.268 . S
O339 Sc323 2.105 . S
O339 C329 1.268 . S
O340 Sc324 2.105 . S
O340 C331 1.268 . S
O341 Sc322 2.105 . S
O341 C327 1.268 . S
O342 Sc324 2.105 . S
O342 C326 1.268 . S
O343 Sc323 2.105 . S
O343 C328 1.268 . S
C344 C345 1.391 . S
C344 C346 1.394 . S
C344 H360 0.931 . S
C345 C344 1.391 . S
C345 C349 1.376 . S
C346 C344 1.394 . S
C346 C347 1.369 . S
C346 C350 1.531 . S
C347 C346 1.369 . S
C347 C348 1.410 . S
C347 C355 1.503 . S
C348 C347 1.410 . S
C348 C349 1.392 . S
C348 C351 1.511 . S
C349 C345 1.376 . S
C349 C348 1.392 . S
C349 H361 0.929 . S
C350 C346 1.531 . S
C350 H362 0.960 . S
C350 H363 0.962 . S
C350 H364 0.960 . S
C351 C348 1.511 . S
C351 H365 0.961 . S
C351 H366 0.961 . S
C351 H367 0.961 . S
C352 C353 1.370 . S
C352 C354 1.363 . S
C352 H368 0.931 . S
C353 C352 1.370 . S
C353 C357 1.408 . S
C354 C352 1.363 . S
C354 C355 1.370 . S
C354 C358 1.524 . S
C355 C347 1.503 . S
C355 C354 1.370 . S
C355 C356 1.403 . S
C356 C355 1.403 . S
C356 C357 1.404 . S
C356 C359 1.539 . S
C357 C353 1.408 . S
C357 C356 1.404 . S
C357 H369 0.930 . S
C358 C354 1.524 . S
C358 H370 0.956 . S
C358 H371 0.961 . S
C358 H372 0.961 . S
C359 C356 1.539 . S
C359 H373 0.958 . S
C359 H374 0.961 . S
C359 H375 0.960 . S
H360 C344 0.931 . S
H361 C349 0.929 . S
H362 C350 0.960 . S
H363 C350 0.962 . S
H364 C350 0.960 . S
H365 C351 0.961 . S
H366 C351 0.961 . S
H367 C351 0.961 . S
H368 C352 0.931 . S
H369 C357 0.930 . S
H370 C358 0.956 . S
H371 C358 0.961 . S
H372 C358 0.961 . S
H373 C359 0.958 . S
H374 C359 0.961 . S
H375 C359 0.960 . S
C376 C377 1.391 . S
C376 C378 1.394 . S
C376 H392 0.931 . S
C377 C376 1.391 . S
C377 C381 1.376 . S
C378 C376 1.394 . S
C378 C379 1.369 . S
C378 C382 1.531 . S
C379 C378 1.369 . S
C379 C380 1.410 . S
C379 C387 1.503 . S
C380 C379 1.410 . S
C380 C381 1.392 . S
C380 C383 1.511 . S
C381 C377 1.376 . S
C381 C380 1.392 . S
C381 H393 0.929 . S
C382 C378 1.531 . S
C382 H394 0.960 . S
C382 H395 0.962 . S
C382 H396 0.960 . S
C383 C380 1.511 . S
C383 H397 0.961 . S
C383 H398 0.961 . S
C383 H399 0.961 . S
C384 C385 1.370 . S
C384 C386 1.363 . S
C384 H400 0.931 . S
C385 C384 1.370 . S
C385 C389 1.408 . S
C386 C384 1.363 . S
C386 C387 1.370 . S
C386 C390 1.524 . S
C387 C379 1.503 . S
C387 C386 1.370 . S
C387 C388 1.403 . S
C388 C387 1.403 . S
C388 C389 1.404 . S
C388 C391 1.539 . S
C389 C385 1.408 . S
C389 C388 1.404 . S
C389 H401 0.930 . S
C390 C386 1.524 . S
C390 H402 0.956 . S
C390 H403 0.961 . S
C390 H404 0.961 . S
C391 C388 1.539 . S
C391 H405 0.958 . S
C391 H406 0.961 . S
C391 H407 0.960 . S
H392 C376 0.931 . S
H393 C381 0.929 . S
H394 C382 0.960 . S
H395 C382 0.962 . S
H396 C382 0.960 . S
H397 C383 0.961 . S
H398 C383 0.961 . S
H399 C383 0.961 . S
H400 C384 0.931 . S
H401 C389 0.930 . S
H402 C390 0.956 . S
H403 C390 0.961 . S
H404 C390 0.961 . S
H405 C391 0.958 . S
H406 C391 0.961 . S
H407 C391 0.960 . S
C408 C409 1.391 . S
C408 C410 1.394 . S
C408 H424 0.931 . S
C409 C408 1.391 . S
C409 C413 1.376 . S
C410 C408 1.394 . S
C410 C411 1.369 . S
C410 C414 1.531 . S
C411 C410 1.369 . S
C411 C412 1.410 . S
C411 C419 1.503 . S
C412 C411 1.410 . S
C412 C413 1.392 . S
C412 C415 1.511 . S
C413 C409 1.376 . S
C413 C412 1.392 . S
C413 H425 0.929 . S
C414 C410 1.531 . S
C414 H426 0.960 . S
C414 H427 0.962 . S
C414 H428 0.960 . S
C415 C412 1.511 . S
C415 H429 0.961 . S
C415 H430 0.961 . S
C415 H431 0.961 . S
C416 C417 1.370 . S
C416 C418 1.363 . S
C416 H432 0.931 . S
C417 C416 1.370 . S
C417 C421 1.408 . S
C418 C416 1.363 . S
C418 C419 1.370 . S
C418 C422 1.524 . S
C419 C411 1.503 . S
C419 C418 1.370 . S
C419 C420 1.403 . S
C420 C419 1.403 . S
C420 C421 1.404 . S
C420 C423 1.539 . S
C421 C417 1.408 . S
C421 C420 1.404 . S
C421 H433 0.930 . S
C422 C418 1.524 . S
C422 H434 0.956 . S
C422 H435 0.961 . S
C422 H436 0.961 . S
C423 C420 1.539 . S
C423 H437 0.958 . S
C423 H438 0.961 . S
C423 H439 0.960 . S
H424 C408 0.931 . S
H425 C413 0.929 . S
H426 C414 0.960 . S
H427 C414 0.962 . S
H428 C414 0.960 . S
H429 C415 0.961 . S
H430 C415 0.961 . S
H431 C415 0.961 . S
H432 C416 0.931 . S
H433 C421 0.930 . S
H434 C422 0.956 . S
H435 C422 0.961 . S
H436 C422 0.961 . S
H437 C423 0.958 . S
H438 C423 0.961 . S
H439 C423 0.960 . S
C440 C441 1.391 . S
C440 C442 1.394 . S
C440 H456 0.931 . S
C441 C440 1.391 . S
C441 C445 1.376 . S
C442 C440 1.394 . S
C442 C443 1.369 . S
C442 C446 1.531 . S
C443 C442 1.369 . S
C443 C444 1.410 . S
C443 C451 1.503 . S
C444 C443 1.410 . S
C444 C445 1.392 . S
C444 C447 1.511 . S
C445 C441 1.376 . S
C445 C444 1.392 . S
C445 H457 0.929 . S
C446 C442 1.531 . S
C446 H458 0.960 . S
C446 H459 0.962 . S
C446 H460 0.960 . S
C447 C444 1.511 . S
C447 H461 0.961 . S
C447 H462 0.961 . S
C447 H463 0.961 . S
C448 C449 1.370 . S
C448 C450 1.363 . S
C448 H464 0.931 . S
C449 C448 1.370 . S
C449 C453 1.408 . S
C450 C448 1.363 . S
C450 C451 1.370 . S
C450 C454 1.524 . S
C451 C443 1.503 . S
C451 C450 1.370 . S
C451 C452 1.403 . S
C452 C451 1.403 . S
C452 C453 1.404 . S
C452 C455 1.539 . S
C453 C449 1.408 . S
C453 C452 1.404 . S
C453 H465 0.930 . S
C454 C450 1.524 . S
C454 H466 0.956 . S
C454 H467 0.961 . S
C454 H468 0.961 . S
C455 C452 1.539 . S
C455 H469 0.958 . S
C455 H470 0.961 . S
C455 H471 0.960 . S
H456 C440 0.931 . S
H457 C445 0.929 . S
H458 C446 0.960 . S
H459 C446 0.962 . S
H460 C446 0.960 . S
H461 C447 0.961 . S
H462 C447 0.961 . S
H463 C447 0.961 . S
H464 C448 0.931 . S
H465 C453 0.930 . S
H466 C454 0.956 . S
H467 C454 0.961 . S
H468 C454 0.961 . S
H469 C455 0.958 . S
H470 C455 0.961 . S
H471 C455 0.960 . S
C472 C473 1.391 . S
C472 C474 1.394 . S
C472 H488 0.931 . S
C473 C472 1.391 . S
C473 C477 1.376 . S
C474 C472 1.394 . S
C474 C475 1.369 . S
C474 C478 1.531 . S
C475 C474 1.369 . S
C475 C476 1.410 . S
C475 C483 1.503 . S
C476 C475 1.410 . S
C476 C477 1.392 . S
C476 C479 1.511 . S
C477 C473 1.376 . S
C477 C476 1.392 . S
C477 H489 0.929 . S
C478 C474 1.531 . S
C478 H490 0.960 . S
C478 H491 0.962 . S
C478 H492 0.960 . S
C479 C476 1.511 . S
C479 H493 0.961 . S
C479 H494 0.961 . S
C479 H495 0.961 . S
C480 C481 1.370 . S
C480 C482 1.363 . S
C480 H496 0.931 . S
C481 C480 1.370 . S
C481 C485 1.408 . S
C482 C480 1.363 . S
C482 C483 1.370 . S
C482 C486 1.524 . S
C483 C475 1.503 . S
C483 C482 1.370 . S
C483 C484 1.403 . S
C484 C483 1.403 . S
C484 C485 1.404 . S
C484 C487 1.539 . S
C485 C481 1.408 . S
C485 C484 1.404 . S
C485 H497 0.930 . S
C486 C482 1.524 . S
C486 H498 0.956 . S
C486 H499 0.961 . S
C486 H500 0.961 . S
C487 C484 1.539 . S
C487 H501 0.958 . S
C487 H502 0.961 . S
C487 H503 0.960 . S
H488 C472 0.931 . S
H489 C477 0.929 . S
H490 C478 0.960 . S
H491 C478 0.962 . S
H492 C478 0.960 . S
H493 C479 0.961 . S
H494 C479 0.961 . S
H495 C479 0.961 . S
H496 C480 0.931 . S
H497 C485 0.930 . S
H498 C486 0.956 . S
H499 C486 0.961 . S
H500 C486 0.961 . S
H501 C487 0.958 . S
H502 C487 0.961 . S
H503 C487 0.960 . S
C504 C505 1.391 . S
C504 C506 1.394 . S
C504 H520 0.931 . S
C505 C504 1.391 . S
C505 C509 1.376 . S
C506 C504 1.394 . S
C506 C507 1.369 . S
C506 C510 1.531 . S
C507 C506 1.369 . S
C507 C508 1.410 . S
C507 C515 1.503 . S
C508 C507 1.410 . S
C508 C509 1.392 . S
C508 C511 1.511 . S
C509 C505 1.376 . S
C509 C508 1.392 . S
C509 H521 0.929 . S
C510 C506 1.531 . S
C510 H522 0.960 . S
C510 H523 0.962 . S
C510 H524 0.960 . S
C511 C508 1.511 . S
C511 H525 0.961 . S
C511 H526 0.961 . S
C511 H527 0.961 . S
C512 C513 1.370 . S
C512 C514 1.363 . S
C512 H528 0.931 . S
C513 C512 1.370 . S
C513 C517 1.408 . S
C514 C512 1.363 . S
C514 C515 1.370 . S
C514 C518 1.524 . S
C515 C507 1.503 . S
C515 C514 1.370 . S
C515 C516 1.403 . S
C516 C515 1.403 . S
C516 C517 1.404 . S
C516 C519 1.539 . S
C517 C513 1.408 . S
C517 C516 1.404 . S
C517 H529 0.930 . S
C518 C514 1.524 . S
C518 H530 0.956 . S
C518 H531 0.961 . S
C518 H532 0.961 . S
C519 C516 1.539 . S
C519 H533 0.958 . S
C519 H534 0.961 . S
C519 H535 0.960 . S
H520 C504 0.931 . S
H521 C509 0.929 . S
H522 C510 0.960 . S
H523 C510 0.962 . S
H524 C510 0.960 . S
H525 C511 0.961 . S
H526 C511 0.961 . S
H527 C511 0.961 . S
H528 C512 0.931 . S
H529 C517 0.930 . S
H530 C518 0.956 . S
H531 C518 0.961 . S
H532 C518 0.961 . S
H533 C519 0.958 . S
H534 C519 0.961 . S
H535 C519 0.960 . S
C536 C537 1.391 . S
C536 C538 1.394 . S
C536 H552 0.931 . S
C537 C536 1.391 . S
C537 C541 1.376 . S
C538 C536 1.394 . S
C538 C539 1.369 . S
C538 C542 1.531 . S
C539 C538 1.369 . S
C539 C540 1.410 . S
C539 C547 1.503 . S
C540 C539 1.410 . S
C540 C541 1.392 . S
C540 C543 1.511 . S
C541 C537 1.376 . S
C541 C540 1.392 . S
C541 H553 0.929 . S
C542 C538 1.531 . S
C542 H554 0.960 . S
C542 H555 0.962 . S
C542 H556 0.960 . S
C543 C540 1.511 . S
C543 H557 0.961 . S
C543 H558 0.961 . S
C543 H559 0.961 . S
C544 C545 1.370 . S
C544 C546 1.363 . S
C544 H560 0.931 . S
C545 C544 1.370 . S
C545 C549 1.408 . S
C546 C544 1.363 . S
C546 C547 1.370 . S
C546 C550 1.524 . S
C547 C539 1.503 . S
C547 C546 1.370 . S
C547 C548 1.403 . S
C548 C547 1.403 . S
C548 C549 1.404 . S
C548 C551 1.539 . S
C549 C545 1.408 . S
C549 C548 1.404 . S
C549 H561 0.930 . S
C550 C546 1.524 . S
C550 H562 0.956 . S
C550 H563 0.961 . S
C550 H564 0.961 . S
C551 C548 1.539 . S
C551 H565 0.958 . S
C551 H566 0.961 . S
C551 H567 0.960 . S
H552 C536 0.931 . S
H553 C541 0.929 . S
H554 C542 0.960 . S
H555 C542 0.962 . S
H556 C542 0.960 . S
H557 C543 0.961 . S
H558 C543 0.961 . S
H559 C543 0.961 . S
H560 C544 0.931 . S
H561 C549 0.930 . S
H562 C550 0.956 . S
H563 C550 0.961 . S
H564 C550 0.961 . S
H565 C551 0.958 . S
H566 C551 0.961 . S
H567 C551 0.960 . S
C568 C569 1.391 . S
C568 C570 1.394 . S
C568 H584 0.931 . S
C569 C568 1.391 . S
C569 C573 1.376 . S
C570 C568 1.394 . S
C570 C571 1.369 . S
C570 C574 1.531 . S
C571 C570 1.369 . S
C571 C572 1.410 . S
C571 C579 1.503 . S
C572 C571 1.410 . S
C572 C573 1.392 . S
C572 C575 1.511 . S
C573 C569 1.376 . S
C573 C572 1.392 . S
C573 H585 0.929 . S
C574 C570 1.531 . S
C574 H586 0.960 . S
C574 H587 0.962 . S
C574 H588 0.960 . S
C575 C572 1.511 . S
C575 H589 0.961 . S
C575 H590 0.961 . S
C575 H591 0.961 . S
C576 C577 1.370 . S
C576 C578 1.363 . S
C576 H592 0.931 . S
C577 C576 1.370 . S
C577 C581 1.408 . S
C578 C576 1.363 . S
C578 C579 1.370 . S
C578 C582 1.524 . S
C579 C571 1.503 . S
C579 C578 1.370 . S
C579 C580 1.403 . S
C580 C579 1.403 . S
C580 C581 1.404 . S
C580 C583 1.539 . S
C581 C577 1.408 . S
C581 C580 1.404 . S
C581 H593 0.930 . S
C582 C578 1.524 . S
C582 H594 0.956 . S
C582 H595 0.961 . S
C582 H596 0.961 . S
C583 C580 1.539 . S
C583 H597 0.958 . S
C583 H598 0.961 . S
C583 H599 0.960 . S
H584 C568 0.931 . S
H585 C573 0.929 . S
H586 C574 0.960 . S
H587 C574 0.962 . S
H588 C574 0.960 . S
H589 C575 0.961 . S
H590 C575 0.961 . S
H591 C575 0.961 . S
H592 C576 0.931 . S
H593 C581 0.930 . S
H594 C582 0.956 . S
H595 C582 0.961 . S
H596 C582 0.961 . S
H597 C583 0.958 . S
H598 C583 0.961 . S
H599 C583 0.960 . S
C600 C601 1.391 . S
C600 C602 1.394 . S
C600 H616 0.931 . S
C601 C600 1.391 . S
C601 C605 1.376 . S
C602 C600 1.394 . S
C602 C603 1.369 . S
C602 C606 1.531 . S
C603 C602 1.369 . S
C603 C604 1.410 . S
C603 C611 1.503 . S
C604 C603 1.410 . S
C604 C605 1.392 . S
C604 C607 1.511 . S
C605 C601 1.376 . S
C605 C604 1.392 . S
C605 H617 0.929 . S
C606 C602 1.531 . S
C606 H618 0.960 . S
C606 H619 0.962 . S
C606 H620 0.960 . S
C607 C604 1.511 . S
C607 H621 0.961 . S
C607 H622 0.961 . S
C607 H623 0.961 . S
C608 C609 1.370 . S
C608 C610 1.363 . S
C608 H624 0.931 . S
C609 C608 1.370 . S
C609 C613 1.408 . S
C610 C608 1.363 . S
C610 C611 1.370 . S
C610 C614 1.524 . S
C611 C603 1.503 . S
C611 C610 1.370 . S
C611 C612 1.403 . S
C612 C611 1.403 . S
C612 C613 1.404 . S
C612 C615 1.539 . S
C613 C609 1.408 . S
C613 C612 1.404 . S
C613 H625 0.930 . S
C614 C610 1.524 . S
C614 H626 0.956 . S
C614 H627 0.961 . S
C614 H628 0.961 . S
C615 C612 1.539 . S
C615 H629 0.958 . S
C615 H630 0.961 . S
C615 H631 0.960 . S
H616 C600 0.931 . S
H617 C605 0.929 . S
H618 C606 0.960 . S
H619 C606 0.962 . S
H620 C606 0.960 . S
H621 C607 0.961 . S
H622 C607 0.961 . S
H623 C607 0.961 . S
H624 C608 0.931 . S
H625 C613 0.930 . S
H626 C614 0.956 . S
H627 C614 0.961 . S
H628 C614 0.961 . S
H629 C615 0.958 . S
H630 C615 0.961 . S
H631 C615 0.960 . S
C632 C633 1.391 . S
C632 C634 1.394 . S
C632 H648 0.931 . S
C633 C632 1.391 . S
C633 C637 1.376 . S
C634 C632 1.394 . S
C634 C635 1.369 . S
C634 C638 1.531 . S
C635 C634 1.369 . S
C635 C636 1.410 . S
C635 C643 1.503 . S
C636 C635 1.410 . S
C636 C637 1.392 . S
C636 C639 1.511 . S
C637 C633 1.376 . S
C637 C636 1.392 . S
C637 H649 0.929 . S
C638 C634 1.531 . S
C638 H650 0.960 . S
C638 H651 0.962 . S
C638 H652 0.960 . S
C639 C636 1.511 . S
C639 H653 0.961 . S
C639 H654 0.961 . S
C639 H655 0.961 . S
C640 C641 1.370 . S
C640 C642 1.363 . S
C640 H656 0.931 . S
C641 C640 1.370 . S
C641 C645 1.408 . S
C642 C640 1.363 . S
C642 C643 1.370 . S
C642 C646 1.524 . S
C643 C635 1.503 . S
C643 C642 1.370 . S
C643 C644 1.403 . S
C644 C643 1.403 . S
C644 C645 1.404 . S
C644 C647 1.539 . S
C645 C641 1.408 . S
C645 C644 1.404 . S
C645 H657 0.930 . S
C646 C642 1.524 . S
C646 H658 0.956 . S
C646 H659 0.961 . S
C646 H660 0.961 . S
C647 C644 1.539 . S
C647 H661 0.958 . S
C647 H662 0.961 . S
C647 H663 0.960 . S
H648 C632 0.931 . S
H649 C637 0.929 . S
H650 C638 0.960 . S
H651 C638 0.962 . S
H652 C638 0.960 . S
H653 C639 0.961 . S
H654 C639 0.961 . S
H655 C639 0.961 . S
H656 C640 0.931 . S
H657 C645 0.930 . S
H658 C646 0.956 . S
H659 C646 0.961 . S
H660 C646 0.961 . S
H661 C647 0.958 . S
H662 C647 0.961 . S
H663 C647 0.960 . S
C664 C665 1.391 . S
C664 C666 1.394 . S
C664 H680 0.931 . S
C665 C664 1.391 . S
C665 C669 1.376 . S
C666 C664 1.394 . S
C666 C667 1.369 . S
C666 C670 1.531 . S
C667 C666 1.369 . S
C667 C668 1.410 . S
C667 C675 1.503 . S
C668 C667 1.410 . S
C668 C669 1.392 . S
C668 C671 1.511 . S
C669 C665 1.376 . S
C669 C668 1.392 . S
C669 H681 0.929 . S
C670 C666 1.531 . S
C670 H682 0.960 . S
C670 H683 0.962 . S
C670 H684 0.960 . S
C671 C668 1.511 . S
C671 H685 0.961 . S
C671 H686 0.961 . S
C671 H687 0.961 . S
C672 C673 1.370 . S
C672 C674 1.363 . S
C672 H688 0.931 . S
C673 C672 1.370 . S
C673 C677 1.408 . S
C674 C672 1.363 . S
C674 C675 1.370 . S
C674 C678 1.524 . S
C675 C667 1.503 . S
C675 C674 1.370 . S
C675 C676 1.403 . S
C676 C675 1.403 . S
C676 C677 1.404 . S
C676 C679 1.539 . S
C677 C673 1.408 . S
C677 C676 1.404 . S
C677 H689 0.930 . S
C678 C674 1.524 . S
C678 H690 0.956 . S
C678 H691 0.961 . S
C678 H692 0.961 . S
C679 C676 1.539 . S
C679 H693 0.958 . S
C679 H694 0.961 . S
C679 H695 0.960 . S
H680 C664 0.931 . S
H681 C669 0.929 . S
H682 C670 0.960 . S
H683 C670 0.962 . S
H684 C670 0.960 . S
H685 C671 0.961 . S
H686 C671 0.961 . S
H687 C671 0.961 . S
H688 C672 0.931 . S
H689 C677 0.930 . S
H690 C678 0.956 . S
H691 C678 0.961 . S
H692 C678 0.961 . S
H693 C679 0.958 . S
H694 C679 0.961 . S
H695 C679 0.960 . S
C696 C697 1.391 . S
C696 C698 1.394 . S
C696 H712 0.931 . S
C697 C696 1.391 . S
C697 C701 1.376 . S
C698 C696 1.394 . S
C698 C699 1.369 . S
C698 C702 1.531 . S
C699 C698 1.369 . S
C699 C700 1.410 . S
C699 C707 1.503 . S
C700 C699 1.410 . S
C700 C701 1.392 . S
C700 C703 1.511 . S
C701 C697 1.376 . S
C701 C700 1.392 . S
C701 H713 0.929 . S
C702 C698 1.531 . S
C702 H714 0.960 . S
C702 H715 0.962 . S
C702 H716 0.960 . S
C703 C700 1.511 . S
C703 H717 0.961 . S
C703 H718 0.961 . S
C703 H719 0.961 . S
C704 C705 1.370 . S
C704 C706 1.363 . S
C704 H720 0.931 . S
C705 C704 1.370 . S
C705 C709 1.408 . S
C706 C704 1.363 . S
C706 C707 1.370 . S
C706 C710 1.524 . S
C707 C699 1.503 . S
C707 C706 1.370 . S
C707 C708 1.403 . S
C708 C707 1.403 . S
C708 C709 1.404 . S
C708 C711 1.539 . S
C709 C705 1.408 . S
C709 C708 1.404 . S
C709 H721 0.930 . S
C710 C706 1.524 . S
C710 H722 0.956 . S
C710 H723 0.961 . S
C710 H724 0.961 . S
C711 C708 1.539 . S
C711 H725 0.958 . S
C711 H726 0.961 . S
C711 H727 0.960 . S
H712 C696 0.931 . S
H713 C701 0.929 . S
H714 C702 0.960 . S
H715 C702 0.962 . S
H716 C702 0.960 . S
H717 C703 0.961 . S
H718 C703 0.961 . S
H719 C703 0.961 . S
H720 C704 0.931 . S
H721 C709 0.930 . S
H722 C710 0.956 . S
H723 C710 0.961 . S
H724 C710 0.961 . S
H725 C711 0.958 . S
H726 C711 0.961 . S
H727 C711 0.960 . S
C728 C729 1.358 1_545 S
C728 C730 1.394 . S
C728 H744 0.931 . S
C729 C728 1.358 1_565 S
C729 C733 1.387 . S
C730 C728 1.394 . S
C730 C731 1.369 . S
C730 C734 1.531 . S
C731 C730 1.369 . S
C731 C732 1.410 . S
C731 C739 1.503 . S
C732 C731 1.410 . S
C732 C733 1.392 1_545 S
C732 C735 1.511 1_545 S
C733 C729 1.387 . S
C733 C732 1.392 1_565 S
C733 H745 0.929 . S
C734 C730 1.531 . S
C734 H746 0.960 . S
C734 H747 0.962 . S
C734 H748 0.960 . S
C735 C732 1.511 1_565 S
C735 H749 0.961 . S
C735 H750 0.961 1_565 S
C735 H751 0.961 . S
C736 C737 1.370 . S
C736 C738 1.363 . S
C736 H752 0.931 . S
C737 C736 1.370 . S
C737 C741 1.408 . S
C738 C736 1.363 . S
C738 C739 1.370 . S
C738 C742 1.524 . S
C739 C731 1.503 . S
C739 C738 1.370 . S
C739 C740 1.403 . S
C740 C739 1.403 . S
C740 C741 1.404 . S
C740 C743 1.539 . S
C741 C737 1.408 . S
C741 C740 1.404 . S
C741 H753 0.930 . S
C742 C738 1.524 . S
C742 H754 0.956 . S
C742 H755 0.961 . S
C742 H756 0.961 . S
C743 C740 1.539 . S
C743 H757 0.958 . S
C743 H758 0.961 . S
C743 H759 0.960 . S
H744 C728 0.931 . S
H745 C733 0.929 . S
H746 C734 0.960 . S
H747 C734 0.962 . S
H748 C734 0.960 . S
H749 C735 0.961 . S
H750 C735 0.961 1_545 S
H751 C735 0.961 . S
H752 C736 0.931 . S
H753 C741 0.930 . S
H754 C742 0.956 . S
H755 C742 0.961 . S
H756 C742 0.961 . S
H757 C743 0.958 . S
H758 C743 0.961 . S
H759 C743 0.960 . S
C760 C761 1.391 . S
C760 C762 1.394 . S
C760 H776 0.931 . S
C761 C760 1.391 . S
C761 C765 1.376 . S
C762 C760 1.394 . S
C762 C763 1.369 . S
C762 C766 1.531 . S
C763 C762 1.369 . S
C763 C764 1.410 . S
C763 C771 1.503 . S
C764 C763 1.410 . S
C764 C765 1.392 . S
C764 C767 1.511 . S
C765 C761 1.376 . S
C765 C764 1.392 . S
C765 H777 0.929 1_565 S
C766 C762 1.531 . S
C766 H778 0.960 . S
C766 H779 0.962 . S
C766 H780 0.960 . S
C767 C764 1.511 . S
C767 H781 0.961 . S
C767 H782 0.961 . S
C767 H783 0.961 . S
C768 C769 1.370 . S
C768 C770 1.363 . S
C768 H784 0.931 . S
C769 C768 1.370 . S
C769 C773 1.408 . S
C770 C768 1.363 . S
C770 C771 1.370 . S
C770 C774 1.524 . S
C771 C763 1.503 . S
C771 C770 1.370 . S
C771 C772 1.403 . S
C772 C771 1.403 . S
C772 C773 1.404 . S
C772 C775 1.539 . S
C773 C769 1.408 . S
C773 C772 1.404 . S
C773 H785 0.930 . S
C774 C770 1.524 . S
C774 H786 0.956 . S
C774 H787 0.961 . S
C774 H788 0.961 . S
C775 C772 1.539 . S
C775 H789 0.958 . S
C775 H790 0.961 . S
C775 H791 0.960 . S
H776 C760 0.931 . S
H777 C765 0.929 1_545 S
H778 C766 0.960 . S
H779 C766 0.962 . S
H780 C766 0.960 . S
H781 C767 0.961 . S
H782 C767 0.961 . S
H783 C767 0.961 . S
H784 C768 0.931 . S
H785 C773 0.930 . S
H786 C774 0.956 . S
H787 C774 0.961 . S
H788 C774 0.961 . S
H789 C775 0.958 . S
H790 C775 0.961 . S
H791 C775 0.960 . S
C792 C793 1.391 1_565 S
C792 C794 1.394 1_565 S
C792 H808 0.931 . S
C793 C792 1.391 1_545 S
C793 C797 1.376 . S
C794 C792 1.394 1_545 S
C794 C795 1.369 . S
C794 C798 1.531 . S
C795 C794 1.369 . S
C795 C796 1.410 . S
C795 C803 1.503 . S
C796 C795 1.410 . S
C796 C797 1.392 . S
C796 C799 1.511 . S
C797 C793 1.376 . S
C797 C796 1.392 . S
C797 H809 0.929 . S
C798 C794 1.531 . S
C798 H810 0.960 . S
C798 H811 0.962 1_545 S
C798 H812 0.960 1_545 S
C799 C796 1.511 . S
C799 H813 0.961 . S
C799 H814 0.961 . S
C799 H815 0.961 . S
C800 C801 1.370 . S
C800 C802 1.363 . S
C800 H816 0.931 . S
C801 C800 1.370 . S
C801 C805 1.408 . S
C802 C800 1.363 . S
C802 C803 1.370 . S
C802 C806 1.524 . S
C803 C795 1.503 . S
C803 C802 1.370 . S
C803 C804 1.403 . S
C804 C803 1.403 . S
C804 C805 1.404 . S
C804 C807 1.539 . S
C805 C801 1.408 . S
C805 C804 1.404 . S
C805 H817 0.930 . S
C806 C802 1.524 . S
C806 H818 0.956 . S
C806 H819 0.961 . S
C806 H820 0.961 . S
C807 C804 1.539 . S
C807 H821 0.958 . S
C807 H822 0.961 . S
C807 H823 0.960 . S
H808 C792 0.931 . S
H809 C797 0.929 . S
H810 C798 0.960 . S
H811 C798 0.962 1_565 S
H812 C798 0.960 1_565 S
H813 C799 0.961 . S
H814 C799 0.961 . S
H815 C799 0.961 . S
H816 C800 0.931 . S
H817 C805 0.930 . S
H818 C806 0.956 . S
H819 C806 0.961 . S
H820 C806 0.961 . S
H821 C807 0.958 . S
H822 C807 0.961 . S
H823 C807 0.960 . S
C824 C825 1.391 . S
C824 C826 1.394 . S
C824 H840 0.931 . S
C825 C824 1.391 . S
C825 C829 1.376 . S
C826 C824 1.394 . S
C826 C827 1.369 . S
C826 C830 1.531 . S
C827 C826 1.369 . S
C827 C828 1.410 . S
C827 C835 1.503 . S
C828 C827 1.410 . S
C828 C829 1.392 . S
C828 C831 1.511 . S
C829 C825 1.376 . S
C829 C828 1.392 . S
C829 H841 0.929 . S
C830 C826 1.531 . S
C830 H842 0.960 . S
C830 H843 0.962 . S
C830 H844 0.960 . S
C831 C828 1.511 . S
C831 H845 0.961 . S
C831 H846 0.961 . S
C831 H847 0.961 . S
C832 C833 1.370 . S
C832 C834 1.363 . S
C832 H848 0.931 . S
C833 C832 1.370 . S
C833 C837 1.408 . S
C834 C832 1.363 . S
C834 C835 1.370 . S
C834 C838 1.524 . S
C835 C827 1.503 . S
C835 C834 1.370 . S
C835 C836 1.403 . S
C836 C835 1.403 . S
C836 C837 1.404 . S
C836 C839 1.539 . S
C837 C833 1.408 . S
C837 C836 1.404 . S
C837 H849 0.930 . S
C838 C834 1.524 . S
C838 H850 0.956 . S
C838 H851 0.961 . S
C838 H852 0.961 . S
C839 C836 1.539 . S
C839 H853 0.958 . S
C839 H854 0.961 . S
C839 H855 0.960 . S
H840 C824 0.931 . S
H841 C829 0.929 . S
H842 C830 0.960 . S
H843 C830 0.962 . S
H844 C830 0.960 . S
H845 C831 0.961 . S
H846 C831 0.961 . S
H847 C831 0.961 . S
H848 C832 0.931 . S
H849 C837 0.930 . S
H850 C838 0.956 . S
H851 C838 0.961 . S
H852 C838 0.961 . S
H853 C839 0.958 . S
H854 C839 0.961 . S
H855 C839 0.960 . S
C856 C857 1.391 . S
C856 C858 1.394 . S
C856 H872 0.931 . S
C857 C856 1.391 . S
C857 C861 1.376 . S
C858 C856 1.394 . S
C858 C859 1.369 . S
C858 C862 1.531 . S
C859 C858 1.369 . S
C859 C860 1.410 . S
C859 C867 1.503 . S
C860 C859 1.410 . S
C860 C861 1.392 . S
C860 C863 1.511 . S
C861 C857 1.376 . S
C861 C860 1.392 . S
C861 H873 0.929 . S
C862 C858 1.531 . S
C862 H874 0.960 . S
C862 H875 0.962 . S
C862 H876 0.960 . S
C863 C860 1.511 . S
C863 H877 0.961 . S
C863 H878 0.961 . S
C863 H879 0.961 . S
C864 C865 1.370 . S
C864 C866 1.363 . S
C864 H880 0.931 . S
C865 C864 1.370 . S
C865 C869 1.408 . S
C866 C864 1.363 . S
C866 C867 1.370 . S
C866 C870 1.524 . S
C867 C859 1.503 . S
C867 C866 1.370 . S
C867 C868 1.403 . S
C868 C867 1.403 . S
C868 C869 1.404 . S
C868 C871 1.539 . S
C869 C865 1.408 . S
C869 C868 1.404 . S
C869 H881 0.930 . S
C870 C866 1.524 . S
C870 H882 0.956 . S
C870 H883 0.961 . S
C870 H884 0.961 . S
C871 C868 1.539 . S
C871 H885 0.958 . S
C871 H886 0.961 . S
C871 H887 0.960 . S
H872 C856 0.931 . S
H873 C861 0.929 . S
H874 C862 0.960 . S
H875 C862 0.962 . S
H876 C862 0.960 . S
H877 C863 0.961 . S
H878 C863 0.961 . S
H879 C863 0.961 . S
H880 C864 0.931 . S
H881 C869 0.930 . S
H882 C870 0.956 . S
H883 C870 0.961 . S
H884 C870 0.961 . S
H885 C871 0.958 . S
H886 C871 0.961 . S
H887 C871 0.960 . S
C888 C889 1.391 . S
C888 C890 1.394 . S
C888 H904 0.931 . S
C889 C888 1.391 . S
C889 C893 1.376 . S
C890 C888 1.394 . S
C890 C891 1.369 . S
C890 C894 1.531 . S
C891 C890 1.369 . S
C891 C892 1.410 . S
C891 C899 1.503 . S
C892 C891 1.410 . S
C892 C893 1.392 . S
C892 C895 1.511 . S
C893 C889 1.376 . S
C893 C892 1.392 . S
C893 H905 0.929 . S
C894 C890 1.531 . S
C894 H906 0.960 . S
C894 H907 0.962 . S
C894 H908 0.960 . S
C895 C892 1.511 . S
C895 H909 0.961 . S
C895 H910 0.961 . S
C895 H911 0.961 . S
C896 C897 1.370 . S
C896 C898 1.363 . S
C896 H912 0.931 . S
C897 C896 1.370 . S
C897 C901 1.408 . S
C898 C896 1.363 . S
C898 C899 1.370 . S
C898 C902 1.524 . S
C899 C891 1.503 . S
C899 C898 1.370 . S
C899 C900 1.403 . S
C900 C899 1.403 . S
C900 C901 1.404 . S
C900 C903 1.539 . S
C901 C897 1.408 . S
C901 C900 1.404 . S
C901 H913 0.930 . S
C902 C898 1.524 . S
C902 H914 0.956 . S
C902 H915 0.961 . S
C902 H916 0.961 . S
C903 C900 1.539 . S
C903 H917 0.958 . S
C903 H918 0.961 . S
C903 H919 0.960 . S
H904 C888 0.931 . S
H905 C893 0.929 . S
H906 C894 0.960 . S
H907 C894 0.962 . S
H908 C894 0.960 . S
H909 C895 0.961 . S
H910 C895 0.961 . S
H911 C895 0.961 . S
H912 C896 0.931 . S
H913 C901 0.930 . S
H914 C902 0.956 . S
H915 C902 0.961 . S
H916 C902 0.961 . S
H917 C903 0.958 . S
H918 C903 0.961 . S
H919 C903 0.960 . S
C920 C921 1.391 . S
C920 C922 1.394 . S
C920 H936 0.931 . S
C921 C920 1.391 . S
C921 C925 1.376 . S
C922 C920 1.394 . S
C922 C923 1.369 . S
C922 C926 1.531 . S
C923 C922 1.369 . S
C923 C924 1.410 . S
C923 C931 1.503 . S
C924 C923 1.410 . S
C924 C925 1.392 . S
C924 C927 1.511 . S
C925 C921 1.376 . S
C925 C924 1.392 . S
C925 H937 0.929 . S
C926 C922 1.531 . S
C926 H938 0.960 . S
C926 H939 0.962 . S
C926 H940 0.960 . S
C927 C924 1.511 . S
C927 H941 0.961 . S
C927 H942 0.961 . S
C927 H943 0.961 . S
C928 C929 1.370 . S
C928 C930 1.363 . S
C928 H944 0.931 . S
C929 C928 1.370 . S
C929 C933 1.408 . S
C930 C928 1.363 . S
C930 C931 1.370 . S
C930 C934 1.524 . S
C931 C923 1.503 . S
C931 C930 1.370 . S
C931 C932 1.403 . S
C932 C931 1.403 . S
C932 C933 1.404 . S
C932 C935 1.539 . S
C933 C929 1.408 . S
C933 C932 1.404 . S
C933 H945 0.930 . S
C934 C930 1.524 . S
C934 H946 0.956 . S
C934 H947 0.961 . S
C934 H948 0.961 . S
C935 C932 1.539 . S
C935 H949 0.958 . S
C935 H950 0.961 . S
C935 H951 0.960 . S
H936 C920 0.931 . S
H937 C925 0.929 . S
H938 C926 0.960 . S
H939 C926 0.962 . S
H940 C926 0.960 . S
H941 C927 0.961 . S
H942 C927 0.961 . S
H943 C927 0.961 . S
H944 C928 0.931 . S
H945 C933 0.930 . S
H946 C934 0.956 . S
H947 C934 0.961 . S
H948 C934 0.961 . S
H949 C935 0.958 . S
H950 C935 0.961 . S
H951 C935 0.960 . S
C952 C953 1.391 . S
C952 C954 1.394 . S
C952 H968 0.931 . S
C953 C952 1.391 . S
C953 C957 1.376 . S
C954 C952 1.394 . S
C954 C955 1.369 . S
C954 C958 1.531 . S
C955 C954 1.369 . S
C955 C956 1.410 . S
C955 C963 1.503 . S
C956 C955 1.410 . S
C956 C957 1.392 . S
C956 C959 1.511 . S
C957 C953 1.376 . S
C957 C956 1.392 . S
C957 H969 0.929 . S
C958 C954 1.531 . S
C958 H970 0.960 . S
C958 H971 0.962 . S
C958 H972 0.960 . S
C959 C956 1.511 . S
C959 H973 0.961 . S
C959 H974 0.961 . S
C959 H975 0.961 . S
C960 C961 1.370 . S
C960 C962 1.363 . S
C960 H976 0.931 . S
C961 C960 1.370 . S
C961 C965 1.408 . S
C962 C960 1.363 . S
C962 C963 1.370 . S
C962 C966 1.524 . S
C963 C955 1.503 . S
C963 C962 1.370 . S
C963 C964 1.403 . S
C964 C963 1.403 . S
C964 C965 1.404 . S
C964 C967 1.539 . S
C965 C961 1.408 . S
C965 C964 1.404 . S
C965 H977 0.930 . S
C966 C962 1.524 . S
C966 H978 0.956 . S
C966 H979 0.961 . S
C966 H980 0.961 . S
C967 C964 1.539 . S
C967 H981 0.958 . S
C967 H982 0.961 . S
C967 H983 0.960 . S
H968 C952 0.931 . S
H969 C957 0.929 . S
H970 C958 0.960 . S
H971 C958 0.962 . S
H972 C958 0.960 . S
H973 C959 0.961 . S
H974 C959 0.961 . S
H975 C959 0.961 . S
H976 C960 0.931 . S
H977 C965 0.930 . S
H978 C966 0.956 . S
H979 C966 0.961 . S
H980 C966 0.961 . S
H981 C967 0.958 . S
H982 C967 0.961 . S
H983 C967 0.960 . S
C984 C985 1.391 . S
C984 C986 1.394 . S
C984 H1000 0.931 . S
C985 C984 1.391 . S
C985 C989 1.376 . S
C986 C984 1.394 . S
C986 C987 1.369 . S
C986 C990 1.531 . S
C987 C986 1.369 . S
C987 C988 1.410 . S
C987 C995 1.503 . S
C988 C987 1.410 . S
C988 C989 1.392 . S
C988 C991 1.511 . S
C989 C985 1.376 . S
C989 C988 1.392 . S
C989 H1001 0.929 . S
C990 C986 1.531 . S
C990 H1002 0.960 . S
C990 H1003 0.962 . S
C990 H1004 0.960 . S
C991 C988 1.511 . S
C991 H1005 0.961 . S
C991 H1006 0.961 . S
C991 H1007 0.961 . S
C992 C993 1.370 . S
C992 C994 1.363 . S
C992 H1008 0.931 . S
C993 C992 1.370 . S
C993 C997 1.408 . S
C994 C992 1.363 . S
C994 C995 1.370 . S
C994 C998 1.524 . S
C995 C987 1.503 . S
C995 C994 1.370 . S
C995 C996 1.403 . S
C996 C995 1.403 . S
C996 C997 1.404 . S
C996 C999 1.539 . S
C997 C993 1.408 . S
C997 C996 1.404 . S
C997 H1009 0.930 . S
C998 C994 1.524 . S
C998 H1010 0.956 . S
C998 H1011 0.961 . S
C998 H1012 0.961 . S
C999 C996 1.539 . S
C999 H1013 0.958 . S
C999 H1014 0.961 . S
C999 H1015 0.960 . S
H1000 C984 0.931 . S
H1001 C989 0.929 . S
H1002 C990 0.960 . S
H1003 C990 0.962 . S
H1004 C990 0.960 . S
H1005 C991 0.961 . S
H1006 C991 0.961 . S
H1007 C991 0.961 . S
H1008 C992 0.931 . S
H1009 C997 0.930 . S
H1010 C998 0.956 . S
H1011 C998 0.961 . S
H1012 C998 0.961 . S
H1013 C999 0.958 . S
H1014 C999 0.961 . S
H1015 C999 0.960 . S
C1016 C1017 1.391 . S
C1016 C1018 1.394 . S
C1016 H1032 0.931 . S
C1017 C1016 1.391 . S
C1017 C1021 1.376 . S
C1018 C1016 1.394 . S
C1018 C1019 1.369 . S
C1018 C1022 1.531 . S
C1019 C1018 1.369 . S
C1019 C1020 1.410 . S
C1019 C1027 1.503 . S
C1020 C1019 1.410 . S
C1020 C1021 1.392 . S
C1020 C1023 1.511 . S
C1021 C1017 1.376 . S
C1021 C1020 1.392 . S
C1021 H1033 0.929 . S
C1022 C1018 1.531 . S
C1022 H1034 0.960 . S
C1022 H1035 0.962 . S
C1022 H1036 0.960 . S
C1023 C1020 1.511 . S
C1023 H1037 0.961 . S
C1023 H1038 0.961 . S
C1023 H1039 0.961 . S
C1024 C1025 1.370 . S
C1024 C1026 1.363 . S
C1024 H1040 0.931 . S
C1025 C1024 1.370 . S
C1025 C1029 1.408 . S
C1026 C1024 1.363 . S
C1026 C1027 1.370 . S
C1026 C1030 1.524 . S
C1027 C1019 1.503 . S
C1027 C1026 1.370 . S
C1027 C1028 1.403 . S
C1028 C1027 1.403 . S
C1028 C1029 1.404 . S
C1028 C1031 1.539 . S
C1029 C1025 1.408 . S
C1029 C1028 1.404 . S
C1029 H1041 0.930 . S
C1030 C1026 1.524 . S
C1030 H1042 0.956 . S
C1030 H1043 0.961 . S
C1030 H1044 0.961 . S
C1031 C1028 1.539 . S
C1031 H1045 0.958 . S
C1031 H1046 0.961 . S
C1031 H1047 0.960 . S
H1032 C1016 0.931 . S
H1033 C1021 0.929 . S
H1034 C1022 0.960 . S
H1035 C1022 0.962 . S
H1036 C1022 0.960 . S
H1037 C1023 0.961 . S
H1038 C1023 0.961 . S
H1039 C1023 0.961 . S
H1040 C1024 0.931 . S
H1041 C1029 0.930 . S
H1042 C1030 0.956 . S
H1043 C1030 0.961 . S
H1044 C1030 0.961 . S
H1045 C1031 0.958 . S
H1046 C1031 0.961 . S
H1047 C1031 0.960 . S
C1048 C1049 1.391 . S
C1048 C1050 1.394 . S
C1048 H1064 0.931 . S
C1049 C1048 1.391 . S
C1049 C1053 1.376 . S
C1050 C1048 1.394 . S
C1050 C1051 1.369 . S
C1050 C1054 1.531 . S
C1051 C1050 1.369 . S
C1051 C1052 1.410 . S
C1051 C1059 1.503 . S
C1052 C1051 1.410 . S
C1052 C1053 1.392 . S
C1052 C1055 1.511 . S
C1053 C1049 1.376 . S
C1053 C1052 1.392 . S
C1053 H1065 0.929 . S
C1054 C1050 1.531 . S
C1054 H1066 0.960 . S
C1054 H1067 0.962 . S
C1054 H1068 0.960 . S
C1055 C1052 1.511 . S
C1055 H1069 0.961 . S
C1055 H1070 0.961 . S
C1055 H1071 0.961 . S
C1056 C1057 1.370 . S
C1056 C1058 1.363 . S
C1056 H1072 0.931 . S
C1057 C1056 1.370 . S
C1057 C1061 1.408 . S
C1058 C1056 1.363 . S
C1058 C1059 1.370 . S
C1058 C1062 1.524 . S
C1059 C1051 1.503 . S
C1059 C1058 1.370 . S
C1059 C1060 1.403 . S
C1060 C1059 1.403 . S
C1060 C1061 1.404 . S
C1060 C1063 1.539 . S
C1061 C1057 1.408 . S
C1061 C1060 1.404 . S
C1061 H1073 0.930 . S
C1062 C1058 1.524 . S
C1062 H1074 0.956 . S
C1062 H1075 0.961 . S
C1062 H1076 0.961 . S
C1063 C1060 1.539 . S
C1063 H1077 0.958 . S
C1063 H1078 0.961 . S
C1063 H1079 0.960 . S
H1064 C1048 0.931 . S
H1065 C1053 0.929 . S
H1066 C1054 0.960 . S
H1067 C1054 0.962 . S
H1068 C1054 0.960 . S
H1069 C1055 0.961 . S
H1070 C1055 0.961 . S
H1071 C1055 0.961 . S
H1072 C1056 0.931 . S
H1073 C1061 0.930 . S
H1074 C1062 0.956 . S
H1075 C1062 0.961 . S
H1076 C1062 0.961 . S
H1077 C1063 0.958 . S
H1078 C1063 0.961 . S
H1079 C1063 0.960 . S
C1080 C1081 1.391 . S
C1080 C1082 1.394 . S
C1080 H1096 0.931 . S
C1081 C1080 1.391 . S
C1081 C1085 1.376 . S
C1082 C1080 1.394 . S
C1082 C1083 1.369 . S
C1082 C1086 1.531 . S
C1083 C1082 1.369 . S
C1083 C1084 1.410 . S
C1083 C1091 1.503 . S
C1084 C1083 1.410 . S
C1084 C1085 1.392 . S
C1084 C1087 1.511 . S
C1085 C1081 1.376 . S
C1085 C1084 1.392 . S
C1085 H1097 0.929 . S
C1086 C1082 1.531 . S
C1086 H1098 0.960 . S
C1086 H1099 0.962 . S
C1086 H1100 0.960 . S
C1087 C1084 1.511 . S
C1087 H1101 0.961 . S
C1087 H1102 0.961 . S
C1087 H1103 0.961 . S
C1088 C1089 1.370 . S
C1088 C1090 1.363 . S
C1088 H1104 0.931 . S
C1089 C1088 1.370 . S
C1089 C1093 1.408 . S
C1090 C1088 1.363 . S
C1090 C1091 1.370 . S
C1090 C1094 1.524 . S
C1091 C1083 1.503 . S
C1091 C1090 1.370 . S
C1091 C1092 1.403 . S
C1092 C1091 1.403 . S
C1092 C1093 1.404 . S
C1092 C1095 1.539 . S
C1093 C1089 1.408 . S
C1093 C1092 1.404 . S
C1093 H1105 0.930 . S
C1094 C1090 1.524 . S
C1094 H1106 0.956 . S
C1094 H1107 0.961 . S
C1094 H1108 0.961 . S
C1095 C1092 1.539 . S
C1095 H1109 0.958 . S
C1095 H1110 0.961 . S
C1095 H1111 0.960 . S
H1096 C1080 0.931 . S
H1097 C1085 0.929 . S
H1098 C1086 0.960 . S
H1099 C1086 0.962 . S
H1100 C1086 0.960 . S
H1101 C1087 0.961 . S
H1102 C1087 0.961 . S
H1103 C1087 0.961 . S
H1104 C1088 0.931 . S
H1105 C1093 0.930 . S
H1106 C1094 0.956 . S
H1107 C1094 0.961 . S
H1108 C1094 0.961 . S
H1109 C1095 0.958 . S
H1110 C1095 0.961 . S
H1111 C1095 0.960 . S
C345 C23 1.500 . S
C353 C282 1.533 . S
C385 C260 1.476 . S
C377 C55 1.510 . S
C417 C286 1.543 . S
C409 C87 1.573 . S
C449 C264 1.475 . S
C441 C119 1.476 . S
C481 C326 1.523 . S
C473 C151 1.528 . S
C513 C304 1.485 . S
C505 C183 1.523 . S
C537 C215 1.566 . S
C545 C330 1.535 . S
C577 C308 1.475 . S
C569 C247 1.480 . S
C601 C29 1.453 . S
C609 C331 1.549 . S
C641 C309 1.483 . S
C633 C49 1.479 . S
C665 C93 1.568 . S
C673 C328 1.549 . S
C697 C113 1.446 . S
C705 C306 1.488 . S
C737 C287 1.548 . S
C729 C157 1.497 . S
C761 C177 1.480 1_565 S
C769 C265 1.482 . S
C801 C284 1.557 . S
C793 C221 1.540 1_545 S
C833 C262 1.489 . S
C825 C241 1.467 1_565 S
C865 C305 1.490 . S
C857 C17 1.450 . S
C897 C327 1.500 . S
C889 C61 1.499 . S
C921 C81 1.515 . S
C929 C307 1.502 . S
C961 C329 1.504 . S
C953 C125 1.441 . S
C993 C261 1.503 . S
C985 C145 1.468 . S
C1017 C189 1.508 . S
C1025 C283 1.485 . S
C1049 C209 1.501 . S
C1057 C263 1.490 . S
C1081 C253 1.397 . S
C1089 C285 1.491 . S
