# Generated by pormake.
# Topology ptr, (4,4)-cn, num edge types: 1
# Building blocks:
#     Node 0, Type 0, BuildingBlock: TATPOV_clean_sbu_0, # of connection points: 4
#     Node 1, Type 0, BuildingBlock: TATPOV_clean_sbu_0, # of connection points: 4
#     Node 2, Type 0, BuildingBlock: TATPOV_clean_sbu_0, # of connection points: 4
#     Node 3, Type 0, BuildingBlock: TATPOV_clean_sbu_0, # of connection points: 4
#     Node 4, Type 0, BuildingBlock: TATPOV_clean_sbu_0, # of connection points: 4
#     Node 5, Type 0, BuildingBlock: TATPOV_clean_sbu_0, # of connection points: 4
#     Node 6, Type 0, BuildingBlock: TATPOV_clean_sbu_0, # of connection points: 4
#     Node 7, Type 0, BuildingBlock: TATPOV_clean_sbu_0, # of connection points: 4
#     Node 8, Type 0, BuildingBlock: TATPOV_clean_sbu_0, # of connection points: 4
#     Node 9, Type 0, BuildingBlock: TATPOV_clean_sbu_0, # of connection points: 4
#     Node 10, Type 0, BuildingBlock: TATPOV_clean_sbu_0, # of connection points: 4
#     Node 11, Type 0, BuildingBlock: TATPOV_clean_sbu_0, # of connection points: 4
#     Node 12, Type 0, BuildingBlock: TATPOV_clean_sbu_0, # of connection points: 4
#     Node 13, Type 0, BuildingBlock: TATPOV_clean_sbu_0, # of connection points: 4
#     Node 14, Type 0, BuildingBlock: TATPOV_clean_sbu_0, # of connection points: 4
#     Node 15, Type 0, BuildingBlock: TATPOV_clean_sbu_0, # of connection points: 4
#     Node 16, Type 0, BuildingBlock: TATPOV_clean_sbu_0, # of connection points: 4
#     Node 17, Type 0, BuildingBlock: TATPOV_clean_sbu_0, # of connection points: 4
#     Node 18, Type 1, BuildingBlock: AZAVOO_clean_linker_0, # of connection points: 4
#     Node 19, Type 1, BuildingBlock: AZAVOO_clean_linker_0, # of connection points: 4
#     Node 20, Type 1, BuildingBlock: AZAVOO_clean_linker_0, # of connection points: 4
#     Node 21, Type 1, BuildingBlock: AZAVOO_clean_linker_0, # of connection points: 4
#     Node 22, Type 1, BuildingBlock: AZAVOO_clean_linker_0, # of connection points: 4
#     Node 23, Type 1, BuildingBlock: AZAVOO_clean_linker_0, # of connection points: 4
#     Node 24, Type 1, BuildingBlock: AZAVOO_clean_linker_0, # of connection points: 4
#     Node 25, Type 1, BuildingBlock: AZAVOO_clean_linker_0, # of connection points: 4
#     Node 26, Type 1, BuildingBlock: AZAVOO_clean_linker_0, # of connection points: 4
#     Node 27, Type 1, BuildingBlock: AZAVOO_clean_linker_0, # of connection points: 4
#     Node 28, Type 1, BuildingBlock: AZAVOO_clean_linker_0, # of connection points: 4
#     Node 29, Type 1, BuildingBlock: AZAVOO_clean_linker_0, # of connection points: 4
#     Node 30, Type 1, BuildingBlock: AZAVOO_clean_linker_0, # of connection points: 4
#     Node 31, Type 1, BuildingBlock: AZAVOO_clean_linker_0, # of connection points: 4
#     Node 32, Type 1, BuildingBlock: AZAVOO_clean_linker_0, # of connection points: 4
#     Node 33, Type 1, BuildingBlock: AZAVOO_clean_linker_0, # of connection points: 4
#     Node 34, Type 1, BuildingBlock: AZAVOO_clean_linker_0, # of connection points: 4
#     Node 35, Type 1, BuildingBlock: AZAVOO_clean_linker_0, # of connection points: 4
#     Edge 36, Type (0, 1), BuildingBlock: AJUNOK_clean_linker_0, # of connection points: 2
#     Edge 37, Type (0, 1), BuildingBlock: AJUNOK_clean_linker_0, # of connection points: 2
#     Edge 38, Type (0, 1), BuildingBlock: AJUNOK_clean_linker_0, # of connection points: 2
#     Edge 39, Type (0, 1), BuildingBlock: AJUNOK_clean_linker_0, # of connection points: 2
#     Edge 40, Type (0, 1), BuildingBlock: AJUNOK_clean_linker_0, # of connection points: 2
#     Edge 41, Type (0, 1), BuildingBlock: AJUNOK_clean_linker_0, # of connection points: 2
#     Edge 42, Type (0, 1), BuildingBlock: AJUNOK_clean_linker_0, # of connection points: 2
#     Edge 43, Type (0, 1), BuildingBlock: AJUNOK_clean_linker_0, # of connection points: 2
#     Edge 44, Type (0, 1), BuildingBlock: AJUNOK_clean_linker_0, # of connection points: 2
#     Edge 45, Type (0, 1), BuildingBlock: AJUNOK_clean_linker_0, # of connection points: 2
#     Edge 46, Type (0, 1), BuildingBlock: AJUNOK_clean_linker_0, # of connection points: 2
#     Edge 47, Type (0, 1), BuildingBlock: AJUNOK_clean_linker_0, # of connection points: 2
#     Edge 48, Type (0, 1), BuildingBlock: AJUNOK_clean_linker_0, # of connection points: 2
#     Edge 49, Type (0, 1), BuildingBlock: AJUNOK_clean_linker_0, # of connection points: 2
#     Edge 50, Type (0, 1), BuildingBlock: AJUNOK_clean_linker_0, # of connection points: 2
#     Edge 51, Type (0, 1), BuildingBlock: AJUNOK_clean_linker_0, # of connection points: 2
#     Edge 52, Type (0, 1), BuildingBlock: AJUNOK_clean_linker_0, # of connection points: 2
#     Edge 53, Type (0, 1), BuildingBlock: AJUNOK_clean_linker_0, # of connection points: 2
#     Edge 54, Type (0, 1), BuildingBlock: AJUNOK_clean_linker_0, # of connection points: 2
#     Edge 55, Type (0, 1), BuildingBlock: AJUNOK_clean_linker_0, # of connection points: 2
#     Edge 56, Type (0, 1), BuildingBlock: AJUNOK_clean_linker_0, # of connection points: 2
#     Edge 57, Type (0, 1), BuildingBlock: AJUNOK_clean_linker_0, # of connection points: 2
#     Edge 58, Type (0, 1), BuildingBlock: AJUNOK_clean_linker_0, # of connection points: 2
#     Edge 59, Type (0, 1), BuildingBlock: AJUNOK_clean_linker_0, # of connection points: 2
#     Edge 60, Type (0, 1), BuildingBlock: AJUNOK_clean_linker_0, # of connection points: 2
#     Edge 61, Type (0, 1), BuildingBlock: AJUNOK_clean_linker_0, # of connection points: 2
#     Edge 62, Type (0, 1), BuildingBlock: AJUNOK_clean_linker_0, # of connection points: 2
#     Edge 63, Type (0, 1), BuildingBlock: AJUNOK_clean_linker_0, # of connection points: 2
#     Edge 64, Type (0, 1), BuildingBlock: AJUNOK_clean_linker_0, # of connection points: 2
#     Edge 65, Type (0, 1), BuildingBlock: AJUNOK_clean_linker_0, # of connection points: 2
#     Edge 66, Type (0, 1), BuildingBlock: AJUNOK_clean_linker_0, # of connection points: 2
#     Edge 67, Type (0, 1), BuildingBlock: AJUNOK_clean_linker_0, # of connection points: 2
#     Edge 68, Type (0, 1), BuildingBlock: AJUNOK_clean_linker_0, # of connection points: 2
#     Edge 69, Type (0, 1), BuildingBlock: AJUNOK_clean_linker_0, # of connection points: 2
#     Edge 70, Type (0, 1), BuildingBlock: AJUNOK_clean_linker_0, # of connection points: 2
#     Edge 71, Type (0, 1), BuildingBlock: AJUNOK_clean_linker_0, # of connection points: 2
#     Edge 72, Type (0, 1), BuildingBlock: AJUNOK_clean_linker_0, # of connection points: 2
#     Edge 73, Type (0, 1), BuildingBlock: AJUNOK_clean_linker_0, # of connection points: 2
#     Edge 74, Type (0, 1), BuildingBlock: AJUNOK_clean_linker_0, # of connection points: 2
#     Edge 75, Type (0, 1), BuildingBlock: AJUNOK_clean_linker_0, # of connection points: 2
#     Edge 76, Type (0, 1), BuildingBlock: AJUNOK_clean_linker_0, # of connection points: 2
#     Edge 77, Type (0, 1), BuildingBlock: AJUNOK_clean_linker_0, # of connection points: 2
#     Edge 78, Type (0, 1), BuildingBlock: AJUNOK_clean_linker_0, # of connection points: 2
#     Edge 79, Type (0, 1), BuildingBlock: AJUNOK_clean_linker_0, # of connection points: 2
#     Edge 80, Type (0, 1), BuildingBlock: AJUNOK_clean_linker_0, # of connection points: 2
#     Edge 81, Type (0, 1), BuildingBlock: AJUNOK_clean_linker_0, # of connection points: 2
#     Edge 82, Type (0, 1), BuildingBlock: AJUNOK_clean_linker_0, # of connection points: 2
#     Edge 83, Type (0, 1), BuildingBlock: AJUNOK_clean_linker_0, # of connection points: 2
#     Edge 84, Type (0, 1), BuildingBlock: AJUNOK_clean_linker_0, # of connection points: 2
#     Edge 85, Type (0, 1), BuildingBlock: AJUNOK_clean_linker_0, # of connection points: 2
#     Edge 86, Type (0, 1), BuildingBlock: AJUNOK_clean_linker_0, # of connection points: 2
#     Edge 87, Type (0, 1), BuildingBlock: AJUNOK_clean_linker_0, # of connection points: 2
#     Edge 88, Type (0, 1), BuildingBlock: AJUNOK_clean_linker_0, # of connection points: 2
#     Edge 89, Type (0, 1), BuildingBlock: AJUNOK_clean_linker_0, # of connection points: 2
#     Edge 90, Type (0, 1), BuildingBlock: AJUNOK_clean_linker_0, # of connection points: 2
#     Edge 91, Type (0, 1), BuildingBlock: AJUNOK_clean_linker_0, # of connection points: 2
#     Edge 92, Type (0, 1), BuildingBlock: AJUNOK_clean_linker_0, # of connection points: 2
#     Edge 93, Type (0, 1), BuildingBlock: AJUNOK_clean_linker_0, # of connection points: 2
#     Edge 94, Type (0, 1), BuildingBlock: AJUNOK_clean_linker_0, # of connection points: 2
#     Edge 95, Type (0, 1), BuildingBlock: AJUNOK_clean_linker_0, # of connection points: 2
#     Edge 96, Type (0, 1), BuildingBlock: AJUNOK_clean_linker_0, # of connection points: 2
#     Edge 97, Type (0, 1), BuildingBlock: AJUNOK_clean_linker_0, # of connection points: 2
#     Edge 98, Type (0, 1), BuildingBlock: AJUNOK_clean_linker_0, # of connection points: 2
#     Edge 99, Type (0, 1), BuildingBlock: AJUNOK_clean_linker_0, # of connection points: 2
#     Edge 100, Type (0, 1), BuildingBlock: AJUNOK_clean_linker_0, # of connection points: 2
#     Edge 101, Type (0, 1), BuildingBlock: AJUNOK_clean_linker_0, # of connection points: 2
#     Edge 102, Type (0, 1), BuildingBlock: AJUNOK_clean_linker_0, # of connection points: 2
#     Edge 103, Type (0, 1), BuildingBlock: AJUNOK_clean_linker_0, # of connection points: 2
#     Edge 104, Type (0, 1), BuildingBlock: AJUNOK_clean_linker_0, # of connection points: 2
#     Edge 105, Type (0, 1), BuildingBlock: AJUNOK_clean_linker_0, # of connection points: 2
#     Edge 106, Type (0, 1), BuildingBlock: AJUNOK_clean_linker_0, # of connection points: 2
#     Edge 107, Type (0, 1), BuildingBlock: AJUNOK_clean_linker_0, # of connection points: 2
# Relax obj value: 0.100
# Max RMSD: 0.272
# Mean RMSD: 0.173
data_MOF--net-ptr--node1-TATPOV_clean_sbu_0--node2-AZAVOO_clean_linker_0--edge1-AJUNOK_clean_linker_0
_symmetry_space_group_name_H-M    P1
_symmetry_Int_Tables_number       1
_symmetry_cell_setting            triclinic
loop_
_symmetry_equiv_pos_as_xyz
'x, y, z'
_cell_length_a     63.764283
_cell_length_b     63.951478
_cell_length_c     52.96993
_cell_angle_alpha  92.763938
_cell_angle_beta   93.679903
_cell_angle_gamma 121.57557
loop_
_atom_site_label
_atom_site_type_symbol
_atom_site_fract_x
_atom_site_fract_y
_atom_site_fract_z
_atom_type_partial_charge
Zn0 Zn 0.95895 0.3862 0.01062 0.0
Zn1 Zn 0.0002 0.38504 0.0246 0.0
O2 O 0.97391 0.34904 0.01369 0.0
O3 O 0.9404 0.34914 0.00116 0.0
O4 O 0.02876 0.38293 0.04005 0.0
O5 O 0.95967 0.40065 0.04572 0.0
O6 O 0.99376 0.40076 0.05549 0.0
C7 C 0.95134 0.33754 0.00451 0.0
C8 C 0.00045 0.41405 0.98078 0.0
O9 O 0.0115 0.4058 0.994 0.0
O10 O 0.97901 0.40901 0.98489 0.0
C11 C 0.03227 0.3656 0.03391 0.0
O12 O 0.01864 0.34966 0.01433 0.0
C13 C 0.97771 0.40568 0.06165 0.0
Zn14 Zn 0.61012 0.55736 0.04568 0.0
Zn15 Zn 0.6193 0.60133 0.06322 0.0
O16 O 0.65333 0.60939 0.05358 0.0
O17 O 0.64549 0.57339 0.03736 0.0
O18 O 0.62666 0.63431 0.07839 0.0
O19 O 0.59994 0.54369 0.07911 0.0
O20 O 0.605 0.57921 0.0926 0.0
C21 C 0.66048 0.59634 0.04268 0.0
C22 C 0.58194 0.57286 0.01644 0.0
O23 O 0.59462 0.59257 0.03144 0.0
O24 O 0.58439 0.55468 0.01926 0.0
C25 C 0.63111 0.65167 0.06467 0.0
O26 O 0.63057 0.64785 0.03998 0.0
C27 C 0.59853 0.55715 0.09636 0.0
Zn28 Zn 0.38716 0.95578 0.02775 0.0
Zn29 Zn 0.39375 0.00123 0.02974 0.0
O30 O 0.35726 0.97814 0.0348 0.0
O31 O 0.35101 0.94085 0.03306 0.0
O32 O 0.39548 0.03338 0.02737 0.0
O33 O 0.39698 0.95863 0.99205 0.0
O34 O 0.40502 0.99665 0.99532 0.0
C35 C 0.34289 0.95506 0.03572 0.0
C36 C 0.42243 0.99095 0.0698 0.0
O37 O 0.41658 0.00572 0.06125 0.0
O38 O 0.41329 0.96956 0.0585 0.0
C39 C 0.38389 0.03978 0.0413 0.0
O40 O 0.37257 0.02626 0.05962 0.0
C41 C 0.40458 0.97893 0.98268 0.0
Zn42 Zn 0.0526 0.61913 0.06246 0.0
Zn43 Zn 0.01174 0.61988 0.04971 0.0
O44 O 0.03736 0.65559 0.06396 0.0
O45 O 0.07 0.65445 0.07799 0.0
O46 O 0.98353 0.62277 0.03457 0.0
O47 O 0.0552 0.60979 0.02641 0.0
O48 O 0.01914 0.60596 0.01793 0.0
C49 C 0.05911 0.66614 0.07539 0.0
C50 C 0.01001 0.58614 0.08866 0.0
O51 O 0.99934 0.59612 0.078 0.0
O52 O 0.03158 0.59203 0.08397 0.0
C53 C 0.97805 0.63787 0.04367 0.0
O54 O 0.98915 0.65043 0.06579 0.0
C55 C 0.03652 0.60349 0.01085 0.0
Zn56 Zn 0.3885 0.43895 0.02205 0.0
Zn57 Zn 0.38044 0.39455 0.00734 0.0
O58 O 0.34648 0.3869 0.01681 0.0
O59 O 0.35262 0.42333 0.02842 0.0
O60 O 0.37317 0.36144 0.99304 0.0
O61 O 0.39979 0.45158 0.98852 0.0
O62 O 0.39493 0.41565 0.97742 0.0
C63 C 0.33833 0.40012 0.02489 0.0
C64 C 0.41706 0.42434 0.05346 0.0
O65 O 0.40524 0.40426 0.03896 0.0
O66 O 0.41349 0.44173 0.04979 0.0
C67 C 0.36096 0.34207 0.00424 0.0
O68 O 0.35367 0.34382 0.02647 0.0
C69 C 0.40148 0.43743 0.9724 0.0
Zn70 Zn 0.6288 0.05276 0.05945 0.0
Zn71 Zn 0.61916 0.00636 0.05461 0.0
O72 O 0.65613 0.02818 0.05108 0.0
O73 O 0.6654 0.06635 0.05788 0.0
O74 O 0.61519 0.97319 0.05618 0.0
O75 O 0.61416 0.04754 0.0931 0.0
O76 O 0.60763 0.01018 0.08891 0.0
C77 C 0.67207 0.05122 0.05301 0.0
C78 C 0.59608 0.02184 0.01381 0.0
O79 O 0.59786 0.00458 0.02271 0.0
O80 O 0.6071 0.04308 0.02592 0.0
C81 C 0.62714 0.96616 0.04373 0.0
O82 O 0.64034 0.97956 0.0262 0.0
C83 C 0.60656 0.0269 0.10172 0.0
Zn84 Zn 0.60817 0.70615 0.35423 0.0
Zn85 Zn 0.6523 0.71008 0.36387 0.0
O86 O 0.62855 0.67343 0.35199 0.0
O87 O 0.59205 0.66927 0.34612 0.0
O88 O 0.6833 0.71159 0.37769 0.0
O89 O 0.60961 0.72072 0.3894 0.0
O90 O 0.64531 0.72336 0.39622 0.0
C91 C 0.60531 0.6599 0.34581 0.0
C92 C 0.64642 0.73733 0.32162 0.0
O93 O 0.66042 0.73196 0.33425 0.0
O94 O 0.62441 0.72886 0.32689 0.0
C95 C 0.69036 0.69751 0.36951 0.0
O96 O 0.67882 0.68291 0.34853 0.0
C97 C 0.62871 0.72666 0.40411 0.0
Zn98 Zn 0.2779 0.89062 0.38695 0.0
Zn99 Zn 0.28743 0.93527 0.40391 0.0
O100 O 0.3209 0.94274 0.39346 0.0
O101 O 0.31382 0.90624 0.38033 0.0
O102 O 0.29527 0.96842 0.41892 0.0
O103 O 0.26658 0.87734 0.42036 0.0
O104 O 0.27401 0.91388 0.43381 0.0
C105 C 0.32849 0.9294 0.38428 0.0
C106 C 0.2505 0.90707 0.35692 0.0
O107 O 0.26238 0.92636 0.37258 0.0
O108 O 0.25336 0.88908 0.35948 0.0
C109 C 0.30074 0.98606 0.4053 0.0
O110 O 0.30071 0.98238 0.38067 0.0
C111 C 0.26664 0.89166 0.43774 0.0
Zn112 Zn 0.05271 0.28889 0.36008 0.0
Zn113 Zn 0.06114 0.33486 0.3616 0.0
O114 O 0.02446 0.3134 0.36649 0.0
O115 O 0.01618 0.27536 0.36282 0.0
O116 O 0.06501 0.36796 0.35966 0.0
O117 O 0.06571 0.29221 0.32582 0.0
O118 O 0.07113 0.32919 0.32682 0.0
C119 C 0.0091 0.29036 0.36632 0.0
C120 C 0.08705 0.32236 0.40306 0.0
O121 O 0.08344 0.3382 0.3933 0.0
O122 O 0.07638 0.30056 0.39237 0.0
C123 C 0.05611 0.37604 0.37545 0.0
O124 O 0.0466 0.36367 0.39501 0.0
C125 C 0.07215 0.3118 0.31536 0.0
Zn126 Zn 0.71912 0.95065 0.39863 0.0
Zn127 Zn 0.67722 0.94973 0.38538 0.0
O128 O 0.70241 0.98612 0.3977 0.0
O129 O 0.73591 0.98661 0.41196 0.0
O130 O 0.64748 0.95022 0.37036 0.0
O131 O 0.72082 0.93971 0.36279 0.0
O132 O 0.68465 0.93554 0.35386 0.0
C133 C 0.72447 0.99767 0.4085 0.0
C134 C 0.6778 0.91862 0.4267 0.0
O135 O 0.66632 0.92725 0.41487 0.0
O136 O 0.69946 0.92487 0.422 0.0
C137 C 0.64331 0.9672 0.37593 0.0
O138 O 0.65744 0.98432 0.39448 0.0
C139 C 0.70211 0.93304 0.34711 0.0
Zn140 Zn 0.04822 0.77008 0.36127 0.0
Zn141 Zn 0.04208 0.72684 0.3464 0.0
O142 O 0.00736 0.71959 0.35219 0.0
O143 O 0.0114 0.75575 0.35881 0.0
O144 O 0.03428 0.69346 0.33256 0.0
O145 O 0.06832 0.78566 0.33233 0.0
O146 O 0.06014 0.74892 0.31827 0.0
C147 C 0.99778 0.73247 0.35624 0.0
C148 C 0.0702 0.75229 0.39754 0.0
O149 O 0.06387 0.73497 0.38017 0.0
O150 O 0.06488 0.76855 0.39424 0.0
C151 C 0.05058 0.68796 0.33026 0.0
O152 O 0.07387 0.70467 0.33774 0.0
C153 C 0.07014 0.77186 0.31586 0.0
Zn154 Zn 0.28471 0.38066 0.38894 0.0
Zn155 Zn 0.27577 0.33453 0.38645 0.0
O156 O 0.3123 0.35648 0.38087 0.0
O157 O 0.32114 0.39461 0.38589 0.0
O158 O 0.27288 0.30197 0.38931 0.0
O159 O 0.27169 0.37717 0.42339 0.0
O160 O 0.26533 0.33988 0.42085 0.0
C161 C 0.32791 0.37951 0.38136 0.0
C162 C 0.25021 0.34696 0.3454 0.0
O163 O 0.2529 0.33054 0.35511 0.0
O164 O 0.26156 0.36881 0.35612 0.0
C165 C 0.28298 0.29407 0.37494 0.0
O166 O 0.29319 0.30611 0.35542 0.0
C167 C 0.26454 0.35706 0.43305 0.0
Zn168 Zn 0.28699 0.04142 0.68363 0.0
Zn169 Zn 0.33041 0.04384 0.69546 0.0
O170 O 0.30538 0.00717 0.68511 0.0
O171 O 0.26935 0.00411 0.67918 0.0
O172 O 0.36057 0.04388 0.70968 0.0
O173 O 0.29001 0.05912 0.71765 0.0
O174 O 0.32407 0.05906 0.72687 0.0
C175 C 0.28201 0.99408 0.67973 0.0
C176 C 0.32572 0.06867 0.65012 0.0
O177 O 0.33944 0.06434 0.6647 0.0
O178 O 0.30351 0.06081 0.6541 0.0
C179 C 0.36603 0.02841 0.70173 0.0
O180 O 0.35318 0.01326 0.68142 0.0
C181 C 0.30826 0.06421 0.73331 0.0
Zn182 Zn 0.93406 0.22338 0.71045 0.0
Zn183 Zn 0.94788 0.26896 0.72878 0.0
O184 O 0.98068 0.27396 0.71882 0.0
O185 O 0.96929 0.23688 0.70222 0.0
O186 O 0.95785 0.30282 0.74411 0.0
O187 O 0.92313 0.21032 0.74397 0.0
O188 O 0.93309 0.2475 0.7585 0.0
C189 C 0.98593 0.25941 0.70771 0.0
C190 C 0.90953 0.24271 0.68175 0.0
O191 O 0.92362 0.26195 0.69702 0.0
O192 O 0.90961 0.22316 0.68417 0.0
C193 C 0.96137 0.31998 0.73049 0.0
O194 O 0.9581 0.31551 0.70562 0.0
C195 C 0.92421 0.22485 0.76179 0.0
Zn196 Zn 0.73413 0.6337 0.7025 0.0
Zn197 Zn 0.73511 0.67636 0.7021 0.0
O198 O 0.69937 0.65074 0.70714 0.0
O199 O 0.69801 0.61579 0.70894 0.0
O200 O 0.73315 0.70666 0.69971 0.0
O201 O 0.74412 0.63693 0.6669 0.0
O202 O 0.7456 0.67211 0.6671 0.0
C203 C 0.68738 0.62783 0.7099 0.0
C204 C 0.76754 0.67071 0.74309 0.0
O205 O 0.75956 0.6836 0.73376 0.0
O206 O 0.76013 0.64942 0.73257 0.0
C207 C 0.71958 0.71042 0.71345 0.0
O208 O 0.709 0.69573 0.7312 0.0
C209 C 0.74803 0.65556 0.6558 0.0
Zn210 Zn 0.38165 0.28711 0.7316 0.0
Zn211 Zn 0.33946 0.28592 0.71978 0.0
O212 O 0.36447 0.32206 0.73279 0.0
O213 O 0.39854 0.32292 0.74541 0.0
O214 O 0.31008 0.28772 0.7066 0.0
O215 O 0.38267 0.27655 0.6954 0.0
O216 O 0.34621 0.27201 0.68756 0.0
C217 C 0.38672 0.33371 0.74301 0.0
C218 C 0.34074 0.25423 0.75979 0.0
O219 O 0.32892 0.26285 0.74866 0.0
O220 O 0.36241 0.26089 0.75473 0.0
C221 C 0.31476 0.303 0.69006 0.0
O222 O 0.33737 0.31556 0.68341 0.0
C223 C 0.36364 0.26981 0.68017 0.0
Zn224 Zn 0.72484 0.10672 0.69515 0.0
Zn225 Zn 0.71926 0.0633 0.68034 0.0
O226 O 0.68453 0.0553 0.6874 0.0
O227 O 0.68804 0.09106 0.69563 0.0
O228 O 0.7123 0.03017 0.66655 0.0
O229 O 0.74156 0.12134 0.66403 0.0
O230 O 0.73601 0.08531 0.65174 0.0
C231 C 0.67479 0.06774 0.69294 0.0
C232 C 0.74921 0.09008 0.73029 0.0
O233 O 0.74177 0.07206 0.71349 0.0
O234 O 0.74414 0.10651 0.72699 0.0
C235 C 0.70132 0.01169 0.67931 0.0
O236 O 0.69549 0.01487 0.70191 0.0
C237 C 0.74397 0.10767 0.64792 0.0
Zn238 Zn 0.95119 0.71847 0.72207 0.0
Zn239 Zn 0.94086 0.67189 0.7192 0.0
O240 O 0.97778 0.69285 0.71482 0.0
O241 O 0.98753 0.73129 0.72018 0.0
O242 O 0.93626 0.63849 0.72153 0.0
O243 O 0.93756 0.71509 0.7561 0.0
O244 O 0.93067 0.67757 0.75376 0.0
C245 C 0.99388 0.71581 0.71596 0.0
C246 C 0.91782 0.68653 0.67739 0.0
O247 O 0.91927 0.66943 0.68716 0.0
O248 O 0.92924 0.70814 0.68868 0.0
C249 C 0.94637 0.63035 0.70748 0.0
O250 O 0.95811 0.64297 0.68884 0.0
C251 C 0.93023 0.69501 0.76589 0.0
H252 H 0.16581 0.37947 0.98538 0.0
H253 H 0.30032 0.31515 0.18244 0.0
H254 H 0.15625 0.37764 0.12774 0.0
H255 H 0.12658 0.3855 0.10562 0.0
H256 H 0.07382 0.30706 0.09222 0.0
H257 H 0.10402 0.29935 0.11407 0.0
H258 H 0.19373 0.37993 0.0929 0.0
H259 H 0.18743 0.38707 0.04884 0.0
H260 H 0.13032 0.30995 0.03246 0.0
H261 H 0.13703 0.30304 0.07652 0.0
H262 H 0.23469 0.37955 0.12784 0.0
H263 H 0.26784 0.39314 0.10019 0.0
H264 H 0.22503 0.3237 0.05356 0.0
H265 H 0.19182 0.30996 0.08179 0.0
H266 H 0.23306 0.36742 0.18197 0.0
H267 H 0.27031 0.3679 0.19744 0.0
H268 H 0.24378 0.29933 0.1514 0.0
H269 H 0.20647 0.29894 0.13632 0.0
H270 H 0.186 0.36315 0.20465 0.0
H271 H 0.19866 0.36408 0.24918 0.0
H272 H 0.19574 0.29565 0.23289 0.0
H273 H 0.18044 0.29358 0.18865 0.0
H274 H 0.14914 0.36462 0.18025 0.0
H275 H 0.12649 0.36026 0.21712 0.0
H276 H 0.09734 0.28187 0.21017 0.0
H277 H 0.12141 0.2868 0.17434 0.0
O278 O 0.16808 0.37621 0.00269 0.0
O279 O 0.13877 0.33645 0.99531 0.0
O280 O 0.29848 0.35057 0.20007 0.0
O281 O 0.28574 0.31539 0.17667 0.0
C282 C 0.15208 0.33378 0.13146 0.0
C283 C 0.16951 0.33667 0.11459 0.0
C284 C 0.19075 0.33649 0.12342 0.0
C285 C 0.19425 0.33262 0.14897 0.0
C286 C 0.17658 0.32924 0.16582 0.0
C287 C 0.15534 0.32964 0.15693 0.0
C288 C 0.13214 0.33795 0.12271 0.0
C289 C 0.13803 0.36217 0.12064 0.0
C290 C 0.12107 0.36662 0.10801 0.0
C291 C 0.09782 0.34689 0.09734 0.0
C292 C 0.09163 0.32259 0.10025 0.0
C293 C 0.10868 0.31815 0.11292 0.0
C294 C 0.16592 0.34096 0.08779 0.0
C295 C 0.17999 0.36459 0.0797 0.0
C296 C 0.1763 0.36862 0.05455 0.0
C297 C 0.15837 0.34907 0.03711 0.0
C298 C 0.14429 0.3254 0.04538 0.0
C299 C 0.14806 0.3214 0.07051 0.0
C300 C 0.21094 0.34377 0.10685 0.0
C301 C 0.23251 0.3672 0.11176 0.0
C302 C 0.25126 0.37502 0.0958 0.0
C303 C 0.24873 0.35962 0.0745 0.0
C304 C 0.2273 0.33594 0.06979 0.0
C305 C 0.20842 0.3281 0.08583 0.0
C306 C 0.21699 0.33304 0.15821 0.0
C307 C 0.23527 0.35246 0.17537 0.0
C308 C 0.25656 0.35271 0.18412 0.0
C309 C 0.26001 0.33361 0.17569 0.0
C310 C 0.2417 0.3143 0.15831 0.0
C311 C 0.22039 0.31404 0.14964 0.0
C312 C 0.18182 0.32808 0.19338 0.0
C313 C 0.18697 0.34776 0.21086 0.0
C314 C 0.19466 0.34848 0.23628 0.0
C315 C 0.19832 0.32999 0.2447 0.0
C316 C 0.19259 0.30992 0.22728 0.0
C317 C 0.18412 0.30884 0.2019 0.0
C318 C 0.13696 0.32604 0.17473 0.0
C319 C 0.13729 0.34642 0.18628 0.0
C320 C 0.12423 0.34385 0.20731 0.0
C321 C 0.11009 0.32069 0.21668 0.0
C322 C 0.10833 0.30001 0.20369 0.0
C323 C 0.12182 0.30271 0.18305 0.0
C324 C 0.15441 0.35343 0.01044 0.0
C325 C 0.28259 0.33379 0.18493 0.0
H326 H 0.6216 0.76291 0.98788 0.0
H327 H 0.69378 0.99011 0.16763 0.0
H328 H 0.62287 0.77571 0.12239 0.0
H329 H 0.61484 0.73567 0.10508 0.0
H330 H 0.69148 0.7602 0.12507 0.0
H331 H 0.69968 0.80074 0.1418 0.0
H332 H 0.62168 0.80581 0.0879 0.0
H333 H 0.61449 0.78624 0.0448 0.0
H334 H 0.69164 0.80909 0.04829 0.0
H335 H 0.69862 0.82884 0.09131 0.0
H336 H 0.62038 0.84058 0.11053 0.0
H337 H 0.60821 0.86477 0.0862 0.0
H338 H 0.68448 0.91461 0.07363 0.0
H339 H 0.69644 0.88968 0.09732 0.0
H340 H 0.63539 0.86757 0.16522 0.0
H341 H 0.63513 0.90556 0.17232 0.0
H342 H 0.71126 0.94797 0.15553 0.0
H343 H 0.71119 0.9098 0.14843 0.0
H344 H 0.64398 0.83632 0.20632 0.0
H345 H 0.6513 0.85621 0.24946 0.0
H346 H 0.72625 0.91034 0.23617 0.0
H347 H 0.71898 0.88994 0.19333 0.0
H348 H 0.63295 0.78554 0.17778 0.0
H349 H 0.62989 0.76434 0.21575 0.0
H350 H 0.70776 0.81543 0.2385 0.0
H351 H 0.71091 0.83627 0.1998 0.0
O352 O 0.62499 0.77134 0.00468 0.0
O353 O 0.66491 0.7839 0.00727 0.0
O354 O 0.65435 0.95217 0.17372 0.0
O355 O 0.6935 0.97485 0.16534 0.0
C356 C 0.66719 0.81649 0.13924 0.0
C357 C 0.66488 0.82942 0.11937 0.0
C358 C 0.6667 0.85206 0.12511 0.0
C359 C 0.67276 0.86281 0.15046 0.0
C360 C 0.67612 0.8505 0.17023 0.0
C361 C 0.67275 0.82698 0.16474 0.0
C362 C 0.66192 0.7912 0.13302 0.0
C363 C 0.63789 0.77239 0.12327 0.0
C364 C 0.63333 0.74963 0.11339 0.0
C365 C 0.65264 0.74516 0.11353 0.0
C366 C 0.67638 0.76339 0.12474 0.0
C367 C 0.68104 0.7864 0.13434 0.0
C368 C 0.66077 0.81914 0.09253 0.0
C369 C 0.63711 0.80705 0.07912 0.0
C370 C 0.63301 0.79567 0.05459 0.0
C371 C 0.6525 0.79611 0.04308 0.0
C372 C 0.67624 0.80844 0.05656 0.0
C373 C 0.6803 0.81983 0.08108 0.0
C374 C 0.65924 0.86328 0.10546 0.0
C375 C 0.63431 0.85613 0.10164 0.0
C376 C 0.62745 0.87011 0.08805 0.0
C377 C 0.64549 0.89175 0.07848 0.0
C378 C 0.67024 0.89796 0.08078 0.0
C379 C 0.67708 0.88377 0.09424 0.0
C380 C 0.67333 0.88603 0.15643 0.0
C381 C 0.65204 0.88513 0.16333 0.0
C382 C 0.65193 0.90683 0.16728 0.0
C383 C 0.67318 0.92982 0.16445 0.0
C384 C 0.69459 0.9306 0.15785 0.0
C385 C 0.69465 0.90887 0.15387 0.0
C386 C 0.68104 0.86156 0.19686 0.0
C387 C 0.66208 0.85223 0.21292 0.0
C388 C 0.66623 0.8637 0.2374 0.0
C389 C 0.68939 0.88471 0.2462 0.0
C390 C 0.70838 0.89391 0.23008 0.0
C391 C 0.70423 0.88239 0.20561 0.0
C392 C 0.67217 0.81234 0.18592 0.0
C393 C 0.64953 0.79175 0.19053 0.0
C394 C 0.64776 0.77982 0.21233 0.0
C395 C 0.66857 0.78833 0.23008 0.0
C396 C 0.69152 0.80835 0.22498 0.0
C397 C 0.6933 0.82028 0.203 0.0
C398 C 0.64795 0.78348 0.01727 0.0
C399 C 0.67301 0.95288 0.16816 0.0
H400 H 0.13465 0.81784 0.98562 0.0
H401 H 0.32233 0.01281 0.18941 0.0
H402 H 0.113 0.82174 0.1189 0.0
H403 H 0.08567 0.77766 0.10448 0.0
H404 H 0.14013 0.76402 0.13916 0.0
H405 H 0.1663 0.80743 0.15462 0.0
H406 H 0.15399 0.87018 0.0862 0.0
H407 H 0.14339 0.85266 0.0418 0.0
H408 H 0.16976 0.80452 0.05979 0.0
H409 H 0.18052 0.82241 0.10403 0.0
H410 H 0.20807 0.92255 0.10569 0.0
H411 H 0.24067 0.94058 0.07664 0.0
H412 H 0.2568 0.88397 0.08952 0.0
H413 H 0.22436 0.86611 0.11777 0.0
H414 H 0.20001 0.93382 0.17112 0.0
H415 H 0.23541 0.97574 0.18292 0.0
H416 H 0.2852 0.95036 0.17055 0.0
H417 H 0.2497 0.90853 0.15914 0.0
H418 H 0.16171 0.88949 0.21124 0.0
H419 H 0.17334 0.89901 0.25758 0.0
H420 H 0.24022 0.8994 0.24839 0.0
H421 H 0.22826 0.88893 0.20269 0.0
H422 H 0.11716 0.83744 0.1752 0.0
H423 H 0.09363 0.81496 0.20988 0.0
H424 H 0.15772 0.81634 0.24385 0.0
H425 H 0.1809 0.83782 0.20862 0.0
O426 O 0.13904 0.82456 0.00325 0.0
O427 O 0.15276 0.80015 0.0135 0.0
O428 O 0.28163 0.00859 0.19076 0.0
O429 O 0.308 0.99643 0.18477 0.0
C430 C 0.15958 0.84434 0.14422 0.0
C431 C 0.17398 0.85813 0.12524 0.0
C432 C 0.19504 0.88191 0.13185 0.0
C433 C 0.20062 0.89278 0.15716 0.0
C434 C 0.18596 0.87916 0.17622 0.0
C435 C 0.16552 0.85477 0.16969 0.0
C436 C 0.1414 0.81761 0.13807 0.0
C437 C 0.11856 0.809 0.12393 0.0
C438 C 0.10315 0.78392 0.11555 0.0
C439 C 0.11054 0.76722 0.12097 0.0
C440 C 0.13338 0.77608 0.13541 0.0
C441 C 0.14847 0.80094 0.14415 0.0
C442 C 0.1677 0.84733 0.09835 0.0
C443 C 0.15743 0.85583 0.08048 0.0
C444 C 0.15139 0.84578 0.05515 0.0
C445 C 0.15562 0.8271 0.04726 0.0
C446 C 0.16615 0.8188 0.06525 0.0
C447 C 0.17221 0.82889 0.09055 0.0
C448 C 0.21373 0.89288 0.11352 0.0
C449 C 0.21848 0.91396 0.10184 0.0
C450 C 0.23702 0.92416 0.08535 0.0
C451 C 0.25083 0.91329 0.08034 0.0
C452 C 0.24589 0.89223 0.09221 0.0
C453 C 0.2275 0.88212 0.10852 0.0
C454 C 0.22227 0.91821 0.16395 0.0
C455 C 0.21858 0.93738 0.17091 0.0
C456 C 0.23883 0.9613 0.17764 0.0
C457 C 0.26316 0.96642 0.17759 0.0
C458 C 0.26674 0.94709 0.17069 0.0
C459 C 0.24648 0.9232 0.16401 0.0
C460 C 0.19429 0.88882 0.20347 0.0
C461 C 0.17909 0.89212 0.2192 0.0
C462 C 0.18569 0.89754 0.24553 0.0
C463 C 0.20772 0.90011 0.25619 0.0
C464 C 0.2233 0.89777 0.24037 0.0
C465 C 0.21658 0.89202 0.21429 0.0
C466 C 0.15086 0.83965 0.18966 0.0
C467 C 0.12599 0.83253 0.1899 0.0
C468 C 0.1126 0.81973 0.20959 0.0
C469 C 0.12405 0.81418 0.22939 0.0
C470 C 0.14866 0.82059 0.22874 0.0
C471 C 0.16188 0.83294 0.2088 0.0
C472 C 0.1491 0.8164 0.02036 0.0
C473 C 0.28474 0.99177 0.18478 0.0
H474 H 0.32695 0.19918 0.0961 0.0
H475 H 0.35843 0.03329 0.91087 0.0
H476 H 0.29554 0.18471 0.96024 0.0
H477 H 0.30185 0.22506 0.97379 0.0
H478 H 0.37364 0.261 0.94558 0.0
H479 H 0.36707 0.22077 0.93187 0.0
H480 H 0.29938 0.14467 0.99552 0.0
H481 H 0.30428 0.1618 0.03935 0.0
H482 H 0.37653 0.22342 0.02779 0.0
H483 H 0.37149 0.20592 0.98411 0.0
H484 H 0.30328 0.09791 0.97371 0.0
H485 H 0.31785 0.07644 0.99984 0.0
H486 H 0.39168 0.14115 0.00828 0.0
H487 H 0.37712 0.16237 0.98183 0.0
H488 H 0.29108 0.08541 0.91329 0.0
H489 H 0.29352 0.04879 0.90485 0.0
H490 H 0.37263 0.09286 0.92575 0.0
H491 H 0.36997 0.12935 0.93366 0.0
H492 H 0.28319 0.1166 0.87665 0.0
H493 H 0.27932 0.09747 0.8339 0.0
H494 H 0.35857 0.13011 0.83997 0.0
H495 H 0.3621 0.14839 0.88292 0.0
H496 H 0.28612 0.16777 0.89315 0.0
H497 H 0.28459 0.18702 0.85439 0.0
H498 H 0.36156 0.21288 0.84857 0.0
H499 H 0.36282 0.19353 0.88678 0.0
O500 O 0.32546 0.19266 0.07876 0.0
O501 O 0.36245 0.22399 0.07182 0.0
O502 O 0.31634 0.02578 0.9025 0.0
O503 O 0.35695 0.04749 0.91382 0.0
C504 C 0.32848 0.17575 0.93954 0.0
C505 C 0.33163 0.1638 0.95996 0.0
C506 C 0.33219 0.14223 0.95497 0.0
C507 C 0.32872 0.13208 0.92964 0.0
C508 C 0.32507 0.1437 0.90935 0.0
C509 C 0.32528 0.16571 0.91424 0.0
C510 C 0.33071 0.19986 0.94479 0.0
C511 C 0.31237 0.20134 0.95652 0.0
C512 C 0.31607 0.22432 0.96437 0.0
C513 C 0.33814 0.24616 0.96053 0.0
C514 C 0.35621 0.24454 0.94824 0.0
C515 C 0.35249 0.22159 0.9404 0.0
C516 C 0.33498 0.17416 0.98662 0.0
C517 C 0.31626 0.16183 0.00254 0.0
C518 C 0.31911 0.17168 0.02753 0.0
C519 C 0.34076 0.19404 0.03705 0.0
C520 C 0.35958 0.20622 0.02105 0.0
C521 C 0.35673 0.19631 0.99608 0.0
C522 C 0.33918 0.13162 0.9758 0.0
C523 C 0.32242 0.10768 0.98187 0.0
C524 C 0.33075 0.09548 0.99675 0.0
C525 C 0.35594 0.10708 0.00568 0.0
C526 C 0.37224 0.13175 0.00132 0.0
C527 C 0.36391 0.14394 0.98646 0.0
C528 C 0.33031 0.10995 0.92421 0.0
C529 C 0.30891 0.0871 0.91592 0.0
C530 C 0.31037 0.06623 0.91117 0.0
C531 C 0.33328 0.06789 0.9147 0.0
C532 C 0.3547 0.09091 0.92288 0.0
C533 C 0.35323 0.11177 0.92747 0.0
C534 C 0.32288 0.13367 0.88283 0.0
C535 C 0.29966 0.11962 0.86864 0.0
C536 C 0.29752 0.10879 0.84429 0.0
C537 C 0.3186 0.11194 0.83379 0.0
C538 C 0.34193 0.12677 0.84782 0.0
C539 C 0.34402 0.1374 0.87221 0.0
C540 C 0.32457 0.17926 0.89263 0.0
C541 C 0.30266 0.17789 0.8836 0.0
C542 C 0.30183 0.18887 0.86157 0.0
C543 C 0.32291 0.20126 0.84844 0.0
C544 C 0.34495 0.20317 0.85813 0.0
C545 C 0.34576 0.19227 0.87998 0.0
C546 C 0.34364 0.20454 0.06356 0.0
C547 C 0.33491 0.04574 0.90994 0.0
H548 H 0.84028 0.18 0.09839 0.0
H549 H 0.7087 0.97843 0.88224 0.0
H550 H 0.8373 0.18647 0.95898 0.0
H551 H 0.86258 0.22994 0.97439 0.0
H552 H 0.92873 0.22898 0.96376 0.0
H553 H 0.903 0.18462 0.9496 0.0
H554 H 0.80944 0.15258 0.9895 0.0
H555 H 0.81646 0.16493 0.03511 0.0
H556 H 0.88028 0.15763 0.04046 0.0
H557 H 0.87276 0.14486 0.99481 0.0
H558 H 0.77203 0.11394 0.94839 0.0
H559 H 0.74057 0.09751 0.97804 0.0
H560 H 0.78186 0.07283 0.02137 0.0
H561 H 0.81377 0.08954 0.99136 0.0
H562 H 0.7703 0.10138 0.89696 0.0
H563 H 0.73375 0.06208 0.87938 0.0
H564 H 0.7654 0.02334 0.91367 0.0
H565 H 0.80206 0.06285 0.93083 0.0
H566 H 0.81308 0.14873 0.87935 0.0
H567 H 0.79593 0.13805 0.83495 0.0
H568 H 0.80716 0.07709 0.83099 0.0
H569 H 0.82537 0.08847 0.8758 0.0
H570 H 0.85391 0.19051 0.90245 0.0
H571 H 0.87497 0.21142 0.86599 0.0
H572 H 0.90178 0.16222 0.85731 0.0
H573 H 0.88056 0.14126 0.89353 0.0
O574 O 0.83782 0.17503 0.08035 0.0
O575 O 0.87064 0.17129 0.08204 0.0
O576 O 0.70754 0.01505 0.87172 0.0
O577 O 0.72297 0.99424 0.88894 0.0
C578 C 0.85201 0.15579 0.94459 0.0
C579 C 0.83599 0.13949 0.96124 0.0
C580 C 0.81533 0.11629 0.95146 0.0
C581 C 0.81141 0.10885 0.92518 0.0
C582 C 0.82795 0.12478 0.90864 0.0
C583 C 0.84862 0.14804 0.91846 0.0
C584 C 0.86833 0.18231 0.95361 0.0
C585 C 0.85727 0.19551 0.96038 0.0
C586 C 0.87173 0.22041 0.96893 0.0
C587 C 0.89764 0.23286 0.97043 0.0
C588 C 0.90881 0.21972 0.96331 0.0
C589 C 0.8942 0.19452 0.95502 0.0
C590 C 0.84035 0.14741 0.98892 0.0
C591 C 0.82476 0.15339 0.00059 0.0
C592 C 0.82891 0.16058 0.02664 0.0
C593 C 0.84888 0.16218 0.04147 0.0
C594 C 0.86467 0.15651 0.02961 0.0
C595 C 0.86044 0.14922 0.00356 0.0
C596 C 0.79503 0.10271 0.9676 0.0
C597 C 0.77408 0.10449 0.9639 0.0
C598 C 0.75632 0.0954 0.98096 0.0
C599 C 0.75915 0.08431 0.00202 0.0
C600 C 0.77952 0.08147 0.00525 0.0
C601 C 0.79755 0.09083 0.98815 0.0
C602 C 0.78898 0.08496 0.91487 0.0
C603 C 0.7694 0.0844 0.90048 0.0
C604 C 0.74849 0.06192 0.89055 0.0
C605 C 0.74668 0.03955 0.89505 0.0
C606 C 0.76622 0.04021 0.90977 0.0
C607 C 0.78717 0.06273 0.91962 0.0
C608 C 0.82068 0.11952 0.88077 0.0
C609 C 0.81264 0.13355 0.86878 0.0
C610 C 0.80262 0.12729 0.84353 0.0
C611 C 0.79999 0.1066 0.82983 0.0
C612 C 0.80907 0.09313 0.8413 0.0
C613 C 0.81935 0.09955 0.86676 0.0
C614 C 0.86572 0.16435 0.90063 0.0
C615 C 0.86502 0.1848 0.89322 0.0
C616 C 0.87693 0.19664 0.87236 0.0
C617 C 0.88956 0.18809 0.85865 0.0
C618 C 0.89178 0.16885 0.86733 0.0
C619 C 0.87987 0.15702 0.8881 0.0
C620 C 0.85319 0.16977 0.06916 0.0
C621 C 0.72452 0.01561 0.8845 0.0
H622 H 0.88118 0.68643 0.11371 0.0
H623 H 0.68934 0.65079 0.89954 0.0
H624 H 0.90361 0.70983 0.98446 0.0
H625 H 0.93354 0.70069 0.00388 0.0
H626 H 0.89253 0.628 0.96321 0.0
H627 H 0.86326 0.63756 0.94342 0.0
H628 H 0.85718 0.70857 0.01396 0.0
H629 H 0.86825 0.70593 0.05828 0.0
H630 H 0.85555 0.63363 0.03766 0.0
H631 H 0.84412 0.63634 0.99352 0.0
H632 H 0.80079 0.6987 0.98586 0.0
H633 H 0.76267 0.68037 0.00709 0.0
H634 H 0.76169 0.61237 0.00779 0.0
H635 H 0.79843 0.63 0.9851 0.0
H636 H 0.81186 0.71613 0.9294 0.0
H637 H 0.77369 0.71448 0.91516 0.0
H638 H 0.73201 0.63569 0.92006 0.0
H639 H 0.77036 0.63757 0.93393 0.0
H640 H 0.8517 0.72263 0.89712 0.0
H641 H 0.83997 0.7246 0.85242 0.0
H642 H 0.78951 0.64562 0.84419 0.0
H643 H 0.80118 0.64381 0.88858 0.0
H644 H 0.89773 0.72039 0.91814 0.0
H645 H 0.91866 0.72355 0.87988 0.0
H646 H 0.86632 0.64618 0.8574 0.0
H647 H 0.84604 0.6431 0.8959 0.0
O648 O 0.8765 0.68699 0.09611 0.0
O649 O 0.8699 0.64996 0.08449 0.0
O650 O 0.727 0.69251 0.903 0.0
O651 O 0.7047 0.65198 0.9052 0.0
C652 C 0.86039 0.67757 0.95519 0.0
C653 C 0.84416 0.675 0.97354 0.0
C654 C 0.82206 0.6743 0.96625 0.0
C655 C 0.81714 0.6781 0.94102 0.0
C656 C 0.83374 0.68152 0.92296 0.0
C657 C 0.85499 0.68057 0.92984 0.0
C658 C 0.88143 0.67446 0.96232 0.0
C659 C 0.90165 0.69228 0.9791 0.0
C660 C 0.91851 0.6869 0.9904 0.0
C661 C 0.91542 0.66361 0.98509 0.0
C662 C 0.89579 0.64628 0.9673 0.0
C663 C 0.87905 0.65173 0.95591 0.0
C664 C 0.85013 0.67279 0.00049 0.0
C665 C 0.85671 0.69215 0.01909 0.0
C666 C 0.86308 0.69061 0.04437 0.0
C667 C 0.86291 0.66962 0.0515 0.0
C668 C 0.85598 0.6501 0.03281 0.0
C669 C 0.84955 0.65164 0.00756 0.0
C670 C 0.80233 0.66564 0.98371 0.0
C671 C 0.79249 0.67995 0.9909 0.0
C672 C 0.77082 0.66952 0.00311 0.0
C673 C 0.75895 0.64477 0.00851 0.0
C674 C 0.77008 0.63127 0.00323 0.0
C675 C 0.79132 0.64147 0.99063 0.0
C676 C 0.79383 0.67701 0.93285 0.0
C677 C 0.79446 0.69855 0.92738 0.0
C678 C 0.77263 0.69755 0.91928 0.0
C679 C 0.74977 0.67494 0.91651 0.0
C680 C 0.74927 0.65339 0.92201 0.0
C681 C 0.77112 0.65441 0.93001 0.0
C682 C 0.82722 0.68307 0.89598 0.0
C683 C 0.83814 0.70581 0.88557 0.0
C684 C 0.83139 0.70693 0.86019 0.0
C685 C 0.81385 0.68526 0.84497 0.0
C686 C 0.8032 0.66256 0.8555 0.0
C687 C 0.80975 0.66149 0.8808 0.0
C688 C 0.87057 0.68148 0.90985 0.0
C689 C 0.89136 0.704 0.90534 0.0
C690 C 0.90309 0.7058 0.88341 0.0
C691 C 0.89417 0.68508 0.8657 0.0
C692 C 0.87396 0.66232 0.87091 0.0
C693 C 0.86232 0.66054 0.89285 0.0
C694 C 0.86995 0.66817 0.07832 0.0
C695 C 0.72654 0.67377 0.90784 0.0
H696 H 0.81946 0.71086 0.31765 0.0
H697 H 0.96414 0.6528 0.51094 0.0
H698 H 0.81738 0.71375 0.46247 0.0
H699 H 0.78712 0.72096 0.44057 0.0
H700 H 0.73575 0.64231 0.42632 0.0
H701 H 0.76648 0.63527 0.448 0.0
H702 H 0.85233 0.71501 0.42449 0.0
H703 H 0.84374 0.72068 0.38046 0.0
H704 H 0.78904 0.64262 0.36647 0.0
H705 H 0.798 0.63723 0.41049 0.0
H706 H 0.8954 0.71589 0.45624 0.0
H707 H 0.92701 0.72822 0.42684 0.0
H708 H 0.8836 0.65636 0.38473 0.0
H709 H 0.85188 0.64397 0.41462 0.0
H710 H 0.89737 0.70556 0.51152 0.0
H711 H 0.93511 0.70641 0.52569 0.0
H712 H 0.90653 0.63616 0.48215 0.0
H713 H 0.86873 0.6354 0.46842 0.0
H714 H 0.85272 0.70265 0.53662 0.0
H715 H 0.86784 0.70509 0.58074 0.0
H716 H 0.86127 0.63477 0.56609 0.0
H717 H 0.84418 0.63153 0.52211 0.0
H718 H 0.81431 0.7033 0.51405 0.0
H719 H 0.79426 0.70059 0.55267 0.0
H720 H 0.76492 0.62222 0.54817 0.0
H721 H 0.78614 0.62542 0.51037 0.0
O722 O 0.82268 0.70819 0.33494 0.0
O723 O 0.79468 0.66797 0.32878 0.0
O724 O 0.96318 0.68896 0.52779 0.0
O725 O 0.9494 0.65292 0.50564 0.0
C726 C 0.81432 0.67029 0.46517 0.0
C727 C 0.83073 0.67237 0.44737 0.0
C728 C 0.8523 0.67243 0.45528 0.0
C729 C 0.85715 0.66961 0.48087 0.0
C730 C 0.84049 0.66702 0.49866 0.0
C731 C 0.81897 0.66727 0.49071 0.0
C732 C 0.79394 0.67401 0.4571 0.0
C733 C 0.79929 0.69809 0.45532 0.0
C734 C 0.78202 0.70217 0.44277 0.0
C735 C 0.75904 0.68219 0.43185 0.0
C736 C 0.75336 0.65803 0.43453 0.0
C737 C 0.7707 0.65396 0.44713 0.0
C738 C 0.82584 0.67571 0.42056 0.0
C739 C 0.83862 0.69917 0.41181 0.0
C740 C 0.83362 0.70234 0.38669 0.0
C741 C 0.81569 0.6821 0.36994 0.0
C742 C 0.80296 0.6586 0.37886 0.0
C743 C 0.80803 0.65545 0.40396 0.0
C744 C 0.87148 0.67904 0.43759 0.0
C745 C 0.89272 0.70278 0.44071 0.0
C746 C 0.91056 0.70987 0.42374 0.0
C747 C 0.90745 0.69337 0.40325 0.0
C748 C 0.88627 0.66944 0.40027 0.0
C749 C 0.86827 0.66236 0.41728 0.0
C750 C 0.88024 0.67032 0.48913 0.0
C751 C 0.89925 0.69032 0.50519 0.0
C752 C 0.92081 0.69078 0.51318 0.0
C753 C 0.92382 0.67131 0.50509 0.0
C754 C 0.9048 0.65142 0.48878 0.0
C755 C 0.88321 0.65095 0.48087 0.0
C756 C 0.8471 0.66682 0.52612 0.0
C757 C 0.85367 0.68733 0.54308 0.0
C758 C 0.86275 0.6889 0.56818 0.0
C759 C 0.86634 0.67041 0.57669 0.0
C760 C 0.85875 0.64931 0.56004 0.0
C761 C 0.84912 0.6475 0.53493 0.0
C762 C 0.8017 0.66456 0.50952 0.0
C763 C 0.80288 0.68543 0.52098 0.0
C764 C 0.79136 0.68383 0.54302 0.0
C765 C 0.77808 0.66119 0.55357 0.0
C766 C 0.7753 0.63997 0.54071 0.0
C767 C 0.78716 0.64169 0.51898 0.0
C768 C 0.81032 0.68556 0.34331 0.0
C769 C 0.94668 0.67169 0.51357 0.0
H770 H 0.28739 0.11373 0.31791 0.0
H771 H 0.35946 0.32289 0.52251 0.0
H772 H 0.28901 0.11018 0.45303 0.0
H773 H 0.28264 0.07048 0.43706 0.0
H774 H 0.35868 0.0964 0.46262 0.0
H775 H 0.36534 0.13666 0.47776 0.0
H776 H 0.28514 0.14292 0.42356 0.0
H777 H 0.27879 0.12851 0.37851 0.0
H778 H 0.35582 0.15106 0.38101 0.0
H779 H 0.36199 0.16571 0.42601 0.0
H780 H 0.28269 0.17649 0.45195 0.0
H781 H 0.2694 0.19897 0.42609 0.0
H782 H 0.34457 0.2465 0.40841 0.0
H783 H 0.35742 0.22301 0.4334 0.0
H784 H 0.3002 0.19997 0.51062 0.0
H785 H 0.30152 0.23773 0.52462 0.0
H786 H 0.37338 0.28116 0.49733 0.0
H787 H 0.3719 0.24323 0.48369 0.0
H788 H 0.3085 0.16731 0.54347 0.0
H789 H 0.31473 0.18827 0.58581 0.0
H790 H 0.38915 0.24377 0.57254 0.0
H791 H 0.38286 0.22263 0.53027 0.0
H792 H 0.30098 0.11674 0.51311 0.0
H793 H 0.30271 0.09404 0.54817 0.0
H794 H 0.38012 0.1494 0.56749 0.0
H795 H 0.37832 0.17205 0.53205 0.0
O796 O 0.29035 0.11967 0.33571 0.0
O797 O 0.33006 0.13146 0.33805 0.0
O798 O 0.32153 0.2845 0.53098 0.0
O799 O 0.35841 0.30767 0.51708 0.0
C800 C 0.33173 0.15105 0.47394 0.0
C801 C 0.32811 0.16435 0.45531 0.0
C802 C 0.32902 0.1863 0.46271 0.0
C803 C 0.33536 0.196 0.48839 0.0
C804 C 0.34001 0.18337 0.50691 0.0
C805 C 0.33766 0.16057 0.49986 0.0
C806 C 0.32774 0.12646 0.46622 0.0
C807 C 0.30437 0.1074 0.45507 0.0
C808 C 0.30071 0.08476 0.44605 0.0
C809 C 0.3202 0.08058 0.4486 0.0
C810 C 0.34339 0.0993 0.46056 0.0
C811 C 0.34718 0.12218 0.46919 0.0
C812 C 0.3241 0.15567 0.42793 0.0
C813 C 0.30069 0.14503 0.41426 0.0
C814 C 0.29708 0.13666 0.38857 0.0
C815 C 0.31682 0.1387 0.37613 0.0
C816 C 0.34024 0.14927 0.38998 0.0
C817 C 0.34382 0.15766 0.41566 0.0
C818 C 0.32093 0.19801 0.44427 0.0
C819 C 0.29611 0.19131 0.44186 0.0
C820 C 0.28861 0.20426 0.42725 0.0
C821 C 0.3059 0.22445 0.41512 0.0
C822 C 0.33069 0.23068 0.417 0.0
C823 C 0.33812 0.21743 0.43138 0.0
C824 C 0.33594 0.21894 0.49616 0.0
C825 C 0.31618 0.21768 0.50768 0.0
C826 C 0.31699 0.23926 0.51564 0.0
C827 C 0.33757 0.26248 0.51209 0.0
C828 C 0.35726 0.2636 0.50035 0.0
C829 C 0.35645 0.24199 0.49248 0.0
C830 C 0.34527 0.19344 0.53392 0.0
C831 C 0.32632 0.18367 0.54996 0.0
C832 C 0.32979 0.19579 0.57392 0.0
C833 C 0.35227 0.21781 0.58215 0.0
C834 C 0.37165 0.22684 0.56657 0.0
C835 C 0.36813 0.21479 0.54255 0.0
C836 C 0.33955 0.14595 0.51988 0.0
C837 C 0.31846 0.12371 0.52453 0.0
C838 C 0.31951 0.11074 0.54451 0.0
C839 C 0.34166 0.1198 0.56032 0.0
C840 C 0.36287 0.14197 0.5555 0.0
C841 C 0.36185 0.15488 0.53533 0.0
C842 C 0.31291 0.12976 0.34884 0.0
C843 C 0.33859 0.28547 0.52064 0.0
H844 H 0.78699 0.13715 0.31559 0.0
H845 H 0.98325 0.35052 0.49829 0.0
H846 H 0.77534 0.15368 0.45012 0.0
H847 H 0.7483 0.1094 0.43684 0.0
H848 H 0.80609 0.09807 0.46637 0.0
H849 H 0.83198 0.14175 0.48106 0.0
H850 H 0.81299 0.19802 0.41202 0.0
H851 H 0.79932 0.17664 0.3691 0.0
H852 H 0.83114 0.13343 0.38867 0.0
H853 H 0.84495 0.15517 0.43137 0.0
H854 H 0.86889 0.25389 0.42831 0.0
H855 H 0.9023 0.27297 0.40041 0.0
H856 H 0.9203 0.21786 0.41457 0.0
H857 H 0.88697 0.19888 0.44168 0.0
H858 H 0.86188 0.26785 0.49152 0.0
H859 H 0.89645 0.31079 0.49853 0.0
H860 H 0.94771 0.28689 0.48812 0.0
H861 H 0.91306 0.24407 0.48162 0.0
H862 H 0.82479 0.22483 0.5344 0.0
H863 H 0.83616 0.23618 0.58049 0.0
H864 H 0.90562 0.24129 0.57306 0.0
H865 H 0.89372 0.22854 0.52763 0.0
H866 H 0.78357 0.17564 0.50616 0.0
H867 H 0.7623 0.15445 0.54246 0.0
H868 H 0.82584 0.15127 0.56941 0.0
H869 H 0.84699 0.17241 0.53303 0.0
O870 O 0.79285 0.1456 0.33254 0.0
O871 O 0.80937 0.12376 0.34362 0.0
O872 O 0.94224 0.345 0.50203 0.0
O873 O 0.96926 0.3337 0.49595 0.0
C874 C 0.82353 0.17768 0.47111 0.0
C875 C 0.83696 0.19037 0.45109 0.0
C876 C 0.85762 0.21461 0.45608 0.0
C877 C 0.86374 0.22698 0.48079 0.0
C878 C 0.84998 0.21446 0.50084 0.0
C879 C 0.83008 0.18961 0.49596 0.0
C880 C 0.80551 0.15078 0.46657 0.0
C881 C 0.78177 0.14141 0.45423 0.0
C882 C 0.76659 0.11622 0.44626 0.0
C883 C 0.77524 0.10022 0.44994 0.0
C884 C 0.79871 0.10973 0.46332 0.0
C885 C 0.81357 0.1347 0.47176 0.0
C886 C 0.82974 0.17798 0.42482 0.0
C887 C 0.81708 0.18401 0.40692 0.0
C888 C 0.80925 0.17173 0.38246 0.0
C889 C 0.81402 0.15322 0.37549 0.0
C890 C 0.82707 0.1475 0.39344 0.0
C891 C 0.83492 0.15984 0.41785 0.0
C892 C 0.87549 0.22496 0.43686 0.0
C893 C 0.87982 0.24577 0.42491 0.0
C894 C 0.89896 0.2567 0.40919 0.0
C895 C 0.91401 0.24698 0.40545 0.0
C896 C 0.90886 0.22559 0.41676 0.0
C897 C 0.88983 0.21473 0.43229 0.0
C898 C 0.88493 0.25289 0.48578 0.0
C899 C 0.8806 0.27194 0.49086 0.0
C900 C 0.90037 0.29644 0.49481 0.0
C901 C 0.92485 0.30229 0.49374 0.0
C902 C 0.92911 0.28306 0.48896 0.0
C903 C 0.90933 0.25859 0.48514 0.0
C904 C 0.85847 0.22594 0.52754 0.0
C905 C 0.84264 0.22882 0.54266 0.0
C906 C 0.84912 0.23535 0.56887 0.0
C907 C 0.87181 0.23977 0.58006 0.0
C908 C 0.8882 0.23834 0.56469 0.0
C909 C 0.88148 0.2312 0.53873 0.0
C910 C 0.81679 0.17558 0.51709 0.0
C911 C 0.79277 0.17015 0.51979 0.0
C912 C 0.78074 0.15819 0.54049 0.0
C913 C 0.79245 0.15119 0.55854 0.0
C914 C 0.81634 0.15622 0.55552 0.0
C915 C 0.82843 0.16834 0.53491 0.0
C916 C 0.80533 0.13994 0.34963 0.0
C917 C 0.9459 0.3283 0.49753 0.0
H918 H 0.02804 0.55116 0.42837 0.0
H919 H 0.02342 0.36419 0.24019 0.0
H920 H 0.98176 0.5292 0.29617 0.0
H921 H 0.99062 0.57055 0.30932 0.0
H922 H 0.05617 0.60241 0.26963 0.0
H923 H 0.04765 0.56105 0.25733 0.0
H924 H 0.9869 0.49095 0.33072 0.0
H925 H 0.99767 0.51093 0.37414 0.0
H926 H 0.06844 0.56827 0.35345 0.0
H927 H 0.05755 0.54794 0.31019 0.0
H928 H 0.98246 0.44109 0.30751 0.0
H929 H 0.9949 0.41879 0.33486 0.0
H930 H 0.07126 0.47827 0.33763 0.0
H931 H 0.0587 0.50027 0.30988 0.0
H932 H 0.96593 0.42619 0.24775 0.0
H933 H 0.96396 0.38718 0.23935 0.0
H934 H 0.04368 0.42572 0.25413 0.0
H935 H 0.04538 0.4646 0.26214 0.0
H936 H 0.95895 0.45724 0.21053 0.0
H937 H 0.95188 0.4382 0.16702 0.0
H938 H 0.03009 0.46611 0.16829 0.0
H939 H 0.03673 0.48413 0.21207 0.0
H940 H 0.96521 0.50983 0.22904 0.0
H941 H 0.96 0.52623 0.18943 0.0
H942 H 0.0335 0.54605 0.17378 0.0
H943 H 0.03858 0.52989 0.21303 0.0
O944 O 0.02421 0.5435 0.41112 0.0
O945 O 0.06031 0.57258 0.39949 0.0
O946 O 0.98278 0.36047 0.23551 0.0
O947 O 0.02368 0.37936 0.24325 0.0
C948 C 0.01047 0.51744 0.27062 0.0
C949 C 0.01461 0.50598 0.29094 0.0
C950 C 0.01296 0.48323 0.28609 0.0
C951 C 0.00682 0.47172 0.26101 0.0
C952 C 0.00267 0.48311 0.24081 0.0
C953 C 0.00457 0.506 0.24554 0.0
C954 C 0.01393 0.54213 0.2756 0.0
C955 C 0.99779 0.54511 0.28998 0.0
C956 C 0.00283 0.5687 0.29736 0.0
C957 C 0.02399 0.58968 0.29031 0.0
C958 C 0.03976 0.58657 0.27535 0.0
C959 C 0.03478 0.56299 0.26808 0.0
C960 C 0.02137 0.51809 0.31731 0.0
C961 C 0.00474 0.5078 0.33564 0.0
C962 C 0.01092 0.51927 0.36041 0.0
C963 C 0.03389 0.54124 0.36726 0.0
C964 C 0.05058 0.55141 0.3488 0.0
C965 C 0.04439 0.53988 0.32407 0.0
C966 C 0.01968 0.47226 0.30674 0.0
C967 C 0.00177 0.44959 0.31463 0.0
C968 C 0.0089 0.43697 0.33033 0.0
C969 C 0.03405 0.4469 0.33843 0.0
C970 C 0.05177 0.47026 0.33166 0.0
C971 C 0.04462 0.48288 0.31598 0.0
C972 C 0.00576 0.44815 0.25567 0.0
C973 C 0.98293 0.42614 0.24907 0.0
C974 C 0.98187 0.40391 0.24433 0.0
C975 C 0.00368 0.40332 0.24614 0.0
C976 C 0.02654 0.42549 0.25263 0.0
C977 C 0.02757 0.44772 0.25726 0.0
C978 C 0.99831 0.47197 0.21434 0.0
C979 C 0.97449 0.45921 0.20132 0.0
C980 C 0.97056 0.44857 0.17644 0.0
C981 C 0.99049 0.4509 0.16412 0.0
C982 C 0.01435 0.46387 0.17731 0.0
C983 C 0.0182 0.47422 0.20223 0.0
C984 C 0.00222 0.51859 0.22374 0.0
C985 C 0.98025 0.51806 0.21717 0.0
C986 C 0.97726 0.52729 0.19461 0.0
C987 C 0.99614 0.53683 0.1784 0.0
C988 C 0.01846 0.53826 0.1857 0.0
C989 C 0.02147 0.52923 0.20815 0.0
C990 C 0.04036 0.55345 0.39355 0.0
C991 C 0.00264 0.37973 0.24129 0.0
H992 H 0.50011 0.52668 0.41653 0.0
H993 H 0.3641 0.30561 0.21303 0.0
H994 H 0.50487 0.52223 0.25928 0.0
H995 H 0.53057 0.56472 0.27819 0.0
H996 H 0.57724 0.54576 0.3211 0.0
H997 H 0.55195 0.50323 0.30093 0.0
H998 H 0.47706 0.49727 0.30715 0.0
H999 H 0.48311 0.51324 0.35169 0.0
H1000 H 0.52148 0.47607 0.37128 0.0
H1001 H 0.51535 0.46034 0.32662 0.0
H1002 H 0.43014 0.44706 0.27655 0.0
H1003 H 0.39824 0.43067 0.30571 0.0
H1004 H 0.43597 0.40068 0.34634 0.0
H1005 H 0.4678 0.41678 0.31639 0.0
H1006 H 0.42371 0.42849 0.22728 0.0
H1007 H 0.38664 0.38871 0.21182 0.0
H1008 H 0.42243 0.3515 0.2401 0.0
H1009 H 0.45949 0.39148 0.25529 0.0
H1010 H 0.45849 0.46729 0.20576 0.0
H1011 H 0.44741 0.45959 0.15984 0.0
H1012 H 0.47949 0.41473 0.15493 0.0
H1013 H 0.4911 0.42296 0.20143 0.0
H1014 H 0.50049 0.50725 0.21417 0.0
H1015 H 0.52605 0.52874 0.18046 0.0
H1016 H 0.57247 0.4999 0.1991 0.0
H1017 H 0.54637 0.47788 0.23239 0.0
O1018 O 0.49788 0.52015 0.39904 0.0
O1019 O 0.51737 0.5006 0.40813 0.0
O1020 O 0.36096 0.34162 0.20477 0.0
O1021 O 0.37856 0.32159 0.21886 0.0
C1022 C 0.50862 0.48353 0.26965 0.0
C1023 C 0.49232 0.4683 0.28674 0.0
C1024 C 0.4712 0.4452 0.27766 0.0
C1025 C 0.46681 0.43692 0.25159 0.0
C1026 C 0.48314 0.45207 0.2345 0.0
C1027 C 0.50424 0.47523 0.2436 0.0
C1028 C 0.52686 0.50979 0.27829 0.0
C1029 C 0.52119 0.52743 0.27199 0.0
C1030 C 0.53563 0.55158 0.28315 0.0
C1031 C 0.55584 0.55851 0.30117 0.0
C1032 C 0.56198 0.541 0.30699 0.0
C1033 C 0.54759 0.51677 0.29554 0.0
C1034 C 0.49581 0.47772 0.31378 0.0
C1035 C 0.48676 0.49264 0.32113 0.0
C1036 C 0.49024 0.50171 0.34656 0.0
C1037 C 0.50279 0.49594 0.36505 0.0
C1038 C 0.51175 0.48087 0.35753 0.0
C1039 C 0.50827 0.47185 0.33208 0.0
C1040 C 0.45105 0.43281 0.2942 0.0
C1041 C 0.43129 0.43655 0.29144 0.0
C1042 C 0.4133 0.42746 0.30828 0.0
C1043 C 0.41476 0.41456 0.32834 0.0
C1044 C 0.43436 0.41042 0.3309 0.0
C1045 C 0.45246 0.41955 0.31389 0.0
C1046 C 0.44435 0.41283 0.24208 0.0
C1047 C 0.42358 0.41174 0.22989 0.0
C1048 C 0.40239 0.38898 0.22119 0.0
C1049 C 0.40159 0.3669 0.22465 0.0
C1050 C 0.42245 0.36813 0.23705 0.0
C1051 C 0.44363 0.39092 0.24574 0.0
C1052 C 0.47582 0.44592 0.20678 0.0
C1053 C 0.46326 0.45589 0.1948 0.0
C1054 C 0.45702 0.45155 0.16865 0.0
C1055 C 0.463 0.43693 0.15397 0.0
C1056 C 0.47493 0.42624 0.16597 0.0
C1057 C 0.4815 0.43088 0.19235 0.0
C1058 C 0.5215 0.49086 0.22555 0.0
C1059 C 0.51634 0.5058 0.21117 0.0
C1060 C 0.53099 0.51813 0.19202 0.0
C1061 C 0.55102 0.51571 0.18699 0.0
C1062 C 0.55685 0.5017 0.20229 0.0
C1063 C 0.54212 0.48929 0.22138 0.0
C1064 C 0.5065 0.50565 0.39205 0.0
C1065 C 0.37911 0.34268 0.21546 0.0
H1066 H 0.53101 0.97994 0.43389 0.0
H1067 H 0.36175 0.98808 0.20306 0.0
H1068 H 0.56444 0.02548 0.29473 0.0
H1069 H 0.59592 0.0194 0.31617 0.0
H1070 H 0.54363 0.94072 0.30839 0.0
H1071 H 0.51262 0.94692 0.28651 0.0
H1072 H 0.53171 0.01822 0.33568 0.0
H1073 H 0.53716 0.00918 0.37912 0.0
H1074 H 0.47634 0.93385 0.36045 0.0
H1075 H 0.4713 0.9431 0.31697 0.0
H1076 H 0.47827 0.01379 0.33147 0.0
H1077 H 0.44465 0.00137 0.35884 0.0
H1078 H 0.39806 0.93514 0.30819 0.0
H1079 H 0.43179 0.94723 0.28158 0.0
H1080 H 0.46848 0.03116 0.27543 0.0
H1081 H 0.43432 0.03594 0.26003 0.0
H1082 H 0.39998 0.96556 0.21504 0.0
H1083 H 0.43406 0.96088 0.23087 0.0
H1084 H 0.50217 0.03856 0.22492 0.0
H1085 H 0.49012 0.0416 0.18087 0.0
H1086 H 0.45968 0.96358 0.16368 0.0
H1087 H 0.47251 0.96099 0.20723 0.0
H1088 H 0.55366 0.03873 0.24625 0.0
H1089 H 0.57956 0.04637 0.21143 0.0
H1090 H 0.53816 0.96828 0.1873 0.0
H1091 H 0.51321 0.9608 0.2229 0.0
O1092 O 0.52851 0.98312 0.41662 0.0
O1093 O 0.497 0.94465 0.40612 0.0
O1094 O 0.39355 0.0224 0.23349 0.0
O1095 O 0.37534 0.98653 0.20968 0.0
C1096 C 0.51606 0.99029 0.2801 0.0
C1097 C 0.49826 0.98685 0.29678 0.0
C1098 C 0.47759 0.98815 0.28811 0.0
C1099 C 0.47501 0.99345 0.26296 0.0
C1100 C 0.49268 0.99674 0.24627 0.0
C1101 C 0.51331 0.99536 0.25489 0.0
C1102 C 0.53637 0.98662 0.28888 0.0
C1103 C 0.56009 0.00692 0.29702 0.0
C1104 C 0.5779 0.00343 0.30947 0.0
C1105 C 0.57225 0.97957 0.31388 0.0
C1106 C 0.54871 0.95925 0.30486 0.0
C1107 C 0.53097 0.96276 0.29239 0.0
C1108 C 0.50108 0.98134 0.32326 0.0
C1109 C 0.5196 -0.00021 0.34103 0.0
C1110 C 0.52265 0.99457 0.36583 0.0
C1111 C 0.50717 0.97079 0.37327 0.0
C1112 C 0.48856 0.95236 0.35535 0.0
C1113 C 0.48558 0.9576 0.33054 0.0
C1114 C 0.45735 0.98148 0.30447 0.0
C1115 C 0.46077 0.99664 0.32636 0.0
C1116 C 0.44157 0.98959 0.34185 0.0
C1117 C 0.41874 0.96733 0.33555 0.0
C1118 C 0.41551 0.95228 0.31361 0.0
C1119 C 0.43464 0.95926 0.29827 0.0
C1120 C 0.45382 0.99579 0.25409 0.0
C1121 C 0.4535 0.01677 0.26233 0.0
C1122 C 0.434 0.01946 0.25346 0.0
C1123 C 0.41446 0.00117 0.23619 0.0
C1124 C 0.41476 0.98003 0.22823 0.0
C1125 C 0.43423 0.97734 0.23718 0.0
C1126 C 0.48828 0.99958 0.21915 0.0
C1127 C 0.49331 0.02229 0.21142 0.0
C1128 C 0.48618 0.02392 0.18638 0.0
C1129 C 0.47363 0.00275 0.16886 0.0
C1130 C 0.46949 0.98027 0.17659 0.0
C1131 C 0.47678 0.97872 0.20146 0.0
C1132 C 0.53175 0.99922 0.23713 0.0
C1133 C 0.55079 0.02324 0.23393 0.0
C1134 C 0.56537 0.02756 0.2139 0.0
C1135 C 0.56093 0.00794 0.19659 0.0
C1136 C 0.54245 0.98375 0.20058 0.0
C1137 C 0.5281 0.97942 0.22083 0.0
C1138 C 0.5105 0.9653 0.39962 0.0
C1139 C 0.39387 0.00409 0.22645 0.0
H1140 H 0.48831 0.04653 0.65707 0.0
H1141 H 0.64783 0.00042 0.84631 0.0
H1142 H 0.49115 0.04792 0.799 0.0
H1143 H 0.46009 0.05308 0.77552 0.0
H1144 H 0.41144 0.97396 0.76267 0.0
H1145 H 0.44279 0.96894 0.78625 0.0
H1146 H 0.52746 0.05117 0.76157 0.0
H1147 H 0.51647 0.05659 0.71827 0.0
H1148 H 0.4626 0.97827 0.70519 0.0
H1149 H 0.47401 0.97311 0.74842 0.0
H1150 H 0.57271 0.05324 0.79323 0.0
H1151 H 0.60466 0.06452 0.76443 0.0
H1152 H 0.5596 0.993 0.72187 0.0
H1153 H 0.52783 0.98153 0.75143 0.0
H1154 H 0.57326 0.04433 0.84961 0.0
H1155 H 0.61264 0.04822 0.86327 0.0
H1156 H 0.58891 0.97985 0.81819 0.0
H1157 H 0.54945 0.976 0.80499 0.0
H1158 H 0.52458 0.03605 0.87554 0.0
H1159 H 0.54009 0.03835 0.91956 0.0
H1160 H 0.54291 0.97331 0.9017 0.0
H1161 H 0.52563 0.97008 0.8579 0.0
H1162 H 0.4807 0.0332 0.84654 0.0
H1163 H 0.4547 0.02684 0.88096 0.0
H1164 H 0.44561 0.95558 0.88818 0.0
H1165 H 0.46997 0.96132 0.85264 0.0
O1166 O 0.49273 0.04391 0.67395 0.0
O1167 O 0.46526 0.00354 0.66825 0.0
O1168 O 0.64358 0.03421 0.86435 0.0
O1169 O 0.63237 0.99927 0.84131 0.0
C1170 C 0.4903 0.00561 0.80269 0.0
C1171 C 0.50703 0.00872 0.78483 0.0
C1172 C 0.52922 0.00995 0.79261 0.0
C1173 C 0.5345 0.00744 0.81821 0.0
C1174 C 0.51741 0.00353 0.83602 0.0
C1175 C 0.4951 0.00238 0.82815 0.0
C1176 C 0.46909 0.00806 0.7945 0.0
C1177 C 0.47345 0.0317 0.79185 0.0
C1178 C 0.4558 0.03462 0.7783 0.0
C1179 C 0.4336 0.01392 0.76696 0.0
C1180 C 0.42862 0.99021 0.77091 0.0
C1181 C 0.44628 0.9873 0.78466 0.0
C1182 C 0.50158 0.01175 0.75803 0.0
C1183 C 0.51352 0.03519 0.74919 0.0
C1184 C 0.50711 0.03824 0.72451 0.0
C1185 C 0.48861 0.01787 0.70829 0.0
C1186 C 0.47692 0.99435 0.71718 0.0
C1187 C 0.48341 0.99133 0.74182 0.0
C1188 C 0.54813 0.0165 0.77456 0.0
C1189 C 0.56978 0.03996 0.77776 0.0
C1190 C 0.58787 0.04644 0.76117 0.0
C1191 C 0.58462 0.02961 0.74095 0.0
C1192 C 0.5627 0.00619 0.73749 0.0
C1193 C 0.54456 0.99968 0.75422 0.0
C1194 C 0.55845 0.0098 0.82645 0.0
C1195 C 0.57655 0.03014 0.84284 0.0
C1196 C 0.59905 0.03235 0.85054 0.0
C1197 C 0.60392 0.01432 0.84183 0.0
C1198 C 0.58576 0.99404 0.82528 0.0
C1199 C 0.56322 0.99181 0.81768 0.0
C1200 C 0.52411 0.00299 0.86338 0.0
C1201 C 0.5279 0.02189 0.88123 0.0
C1202 C 0.5371 0.02338 0.90629 0.0
C1203 C 0.54339 0.00641 0.91389 0.0
C1204 C 0.53835 0.98671 0.89637 0.0
C1205 C 0.52865 0.98494 0.87134 0.0
C1206 C 0.47693 0.99756 0.84675 0.0
C1207 C 0.47226 0.01582 0.85487 0.0
C1208 C 0.45771 0.0123 0.87481 0.0
C1209 C 0.44783 0.99059 0.88719 0.0
C1210 C 0.45221 0.97218 0.87862 0.0
C1211 C 0.46635 0.97552 0.85843 0.0
C1212 C 0.48144 0.02124 0.68228 0.0
C1213 C 0.62783 0.01662 0.8499 0.0
H1214 H 0.93532 0.44033 0.64972 0.0
H1215 H 0.01525 0.65454 0.84624 0.0
H1216 H 0.95114 0.44307 0.78503 0.0
H1217 H 0.94458 0.40347 0.76848 0.0
H1218 H 0.02247 0.4318 0.78571 0.0
H1219 H 0.02919 0.47193 0.80157 0.0
H1220 H 0.9436 0.47556 0.756 0.0
H1221 H 0.93291 0.45885 0.71137 0.0
H1222 H 0.0087 0.47935 0.70632 0.0
H1223 H 0.0192 0.49629 0.75091 0.0
H1224 H 0.94373 0.51206 0.7857 0.0
H1225 H 0.9301 0.53494 0.7609 0.0
H1226 H 0.00227 0.5759 0.7338 0.0
H1227 H 0.01532 0.55209 0.75784 0.0
H1228 H 0.96402 0.53272 0.84379 0.0
H1229 H 0.96383 0.56983 0.85703 0.0
H1230 H 0.03031 0.61388 0.82055 0.0
H1231 H 0.03038 0.57663 0.80768 0.0
H1232 H 0.97699 0.50064 0.87491 0.0
H1233 H 0.98637 0.52133 0.91799 0.0
H1234 H 0.05564 0.58105 0.89734 0.0
H1235 H 0.04635 0.56007 0.85446 0.0
H1236 H 0.97025 0.45037 0.8427 0.0
H1237 H 0.97697 0.43095 0.87843 0.0
H1238 H 0.0521 0.49275 0.89407 0.0
H1239 H 0.04581 0.51163 0.85729 0.0
O1240 O 0.93999 0.44721 0.66729 0.0
O1241 O 0.97916 0.45804 0.66572 0.0
O1242 O 0.98083 0.61613 0.85992 0.0
O1243 O 0.01492 0.63959 0.84133 0.0
C1244 C 0.99455 0.48503 0.80196 0.0
C1245 C 0.98874 0.49728 0.78376 0.0
C1246 C 0.98943 0.51906 0.79138 0.0
C1247 C 0.99721 0.52945 0.81681 0.0
C1248 C 0.00399 0.51791 0.83483 0.0
C1249 C 0.00243 0.49548 0.82757 0.0
C1250 C 0.9907 0.4605 0.7942 0.0
C1251 C 0.96683 0.44081 0.7852 0.0
C1252 C 0.96308 0.41823 0.77582 0.0
C1253 C 0.98304 0.41475 0.77579 0.0
C1254 C 0.00682 0.43412 0.78567 0.0
C1255 C 0.01065 0.45694 0.79471 0.0
C1256 C 0.98223 0.4874 0.75658 0.0
C1257 C 0.95793 0.4767 0.74513 0.0
C1258 C 0.95184 0.46703 0.71968 0.0
C1259 C 0.96996 0.46781 0.70525 0.0
C1260 C 0.99431 0.4785 0.71686 0.0
C1261 C 0.00036 0.4882 0.7423 0.0
C1262 C 0.98041 0.53036 0.77337 0.0
C1263 C 0.95631 0.52549 0.7738 0.0
C1264 C 0.94864 0.53866 0.75977 0.0
C1265 C 0.96507 0.55717 0.74532 0.0
C1266 C 0.98898 0.56138 0.74424 0.0
C1267 C 0.99654 0.54793 0.75806 0.0
C1268 C 0.99722 0.55205 0.82482 0.0
C1269 C 0.97855 0.55043 0.83877 0.0
C1270 C 0.97847 0.57164 0.84626 0.0
C1271 C 0.99706 0.59484 0.83983 0.0
C1272 C 0.01572 0.59632 0.8258 0.0
C1273 C 0.0158 0.5751 0.81839 0.0
C1274 C 0.01107 0.52881 0.86167 0.0
C1275 C 0.99442 0.51792 0.87989 0.0
C1276 C 0.99969 0.52982 0.90434 0.0
C1277 C 0.02174 0.55273 0.91094 0.0
C1278 C 0.0387 0.56324 0.89285 0.0
C1279 C 0.0334 0.55135 0.8684 0.0
C1280 C 0.00755 0.4824 0.84724 0.0
C1281 C 0.98844 0.45936 0.8532 0.0
C1282 C 0.99227 0.44831 0.87362 0.0
C1283 C 0.01509 0.46035 0.88874 0.0
C1284 C 0.03443 0.4831 0.88248 0.0
C1285 C 0.03079 0.49387 0.86162 0.0
C1286 C 0.96342 0.45743 0.67824 0.0
C1287 C 0.99703 0.61742 0.84768 0.0
H1288 H 0.46186 0.50362 0.64356 0.0
H1289 H 0.66763 0.66126 0.85679 0.0
H1290 H 0.44365 0.49188 0.77801 0.0
H1291 H 0.41486 0.4474 0.76577 0.0
H1292 H 0.47008 0.43338 0.79734 0.0
H1293 H 0.49783 0.47712 0.81034 0.0
H1294 H 0.49177 0.54906 0.74841 0.0
H1295 H 0.47817 0.53564 0.70318 0.0
H1296 H 0.48885 0.47476 0.71116 0.0
H1297 H 0.5028 0.48858 0.75619 0.0
H1298 H 0.55382 0.59777 0.77661 0.0
H1299 H 0.59085 0.61664 0.75407 0.0
H1300 H 0.5818 0.54514 0.73888 0.0
H1301 H 0.54734 0.52735 0.76441 0.0
H1302 H 0.54461 0.60412 0.83577 0.0
H1303 H 0.58468 0.64125 0.85066 0.0
H1304 H 0.62134 0.60253 0.83193 0.0
H1305 H 0.58118 0.5655 0.81735 0.0
H1306 H 0.49931 0.56272 0.86913 0.0
H1307 H 0.51063 0.57203 0.91554 0.0
H1308 H 0.56859 0.55695 0.9087 0.0
H1309 H 0.55702 0.54712 0.86281 0.0
H1310 H 0.45216 0.51476 0.83608 0.0
H1311 H 0.4264 0.49117 0.86896 0.0
H1312 H 0.48181 0.47541 0.89505 0.0
H1313 H 0.5073 0.49873 0.86197 0.0
O1314 O 0.46735 0.50863 0.66148 0.0
O1315 O 0.47302 0.47755 0.66663 0.0
O1316 O 0.63187 0.66614 0.85975 0.0
O1317 O 0.65157 0.64691 0.85089 0.0
C1318 C 0.49114 0.51413 0.80178 0.0
C1319 C 0.50607 0.52814 0.78318 0.0
C1320 C 0.52895 0.55032 0.79072 0.0
C1321 C 0.5356 0.55959 0.81674 0.0
C1322 C 0.51955 0.54646 0.83506 0.0
C1323 C 0.49749 0.52359 0.82755 0.0
C1324 C 0.47263 0.48755 0.7953 0.0
C1325 C 0.44917 0.47902 0.78263 0.0
C1326 C 0.4329 0.45373 0.77559 0.0
C1327 C 0.44001 0.43683 0.78108 0.0
C1328 C 0.46361 0.4457 0.79368 0.0
C1329 C 0.4796 0.47072 0.80095 0.0
C1330 C 0.4979 0.51961 0.75573 0.0
C1331 C 0.49113 0.53281 0.74036 0.0
C1332 C 0.48335 0.5251 0.71453 0.0
C1333 C 0.48229 0.50405 0.70357 0.0
C1334 C 0.4893 0.49097 0.71901 0.0
C1335 C 0.49711 0.49873 0.74482 0.0
C1336 C 0.54775 0.56112 0.77225 0.0
C1337 C 0.55974 0.58619 0.76818 0.0
C1338 C 0.58073 0.59688 0.75492 0.0
C1339 C 0.58939 0.58242 0.74458 0.0
C1340 C 0.57597 0.55695 0.74693 0.0
C1341 C 0.55583 0.54658 0.7611 0.0
C1342 C 0.56002 0.58222 0.82526 0.0
C1343 C 0.56133 0.60374 0.83485 0.0
C1344 C 0.58423 0.6249 0.84334 0.0
C1345 C 0.60623 0.62487 0.84243 0.0
C1346 C 0.60479 0.60322 0.83285 0.0
C1347 C 0.58188 0.58206 0.82442 0.0
C1348 C 0.52759 0.55459 0.86258 0.0
C1349 C 0.51468 0.56181 0.87766 0.0
C1350 C 0.52111 0.56713 0.90399 0.0
C1351 C 0.54057 0.5654 0.9153 0.0
C1352 C 0.55372 0.55867 0.90015 0.0
C1353 C 0.54721 0.55319 0.87402 0.0
C1354 C 0.48164 0.50861 0.84688 0.0
C1355 C 0.4586 0.50604 0.84879 0.0
C1356 C 0.44397 0.49262 0.8675 0.0
C1357 C 0.45208 0.48136 0.88433 0.0
C1358 C 0.47497 0.48357 0.88202 0.0
C1359 C 0.48962 0.49706 0.86338 0.0
C1360 C 0.47396 0.49587 0.67614 0.0
C1361 C 0.6306 0.64726 0.85155 0.0
H1362 H 0.66335 0.87552 0.76436 0.0
H1363 H 0.68343 0.6967 0.57711 0.0
H1364 H 0.62961 0.854 0.63044 0.0
H1365 H 0.63766 0.89457 0.64604 0.0
H1366 H 0.70954 0.92936 0.61813 0.0
H1367 H 0.70134 0.88883 0.60253 0.0
H1368 H 0.6336 0.81545 0.66686 0.0
H1369 H 0.63954 0.83495 0.7098 0.0
H1370 H 0.71257 0.89364 0.69601 0.0
H1371 H 0.70651 0.87376 0.65327 0.0
H1372 H 0.63537 0.76595 0.64488 0.0
H1373 H 0.64966 0.74446 0.67117 0.0
H1374 H 0.724 0.80843 0.6783 0.0
H1375 H 0.70971 0.82947 0.65128 0.0
H1376 H 0.61993 0.75251 0.58639 0.0
H1377 H 0.62046 0.71492 0.57708 0.0
H1378 H 0.70024 0.75704 0.59263 0.0
H1379 H 0.69943 0.7945 0.60154 0.0
H1380 H 0.61171 0.78179 0.55075 0.0
H1381 H 0.60489 0.76087 0.50822 0.0
H1382 H 0.6839 0.79462 0.50769 0.0
H1383 H 0.69042 0.81471 0.55049 0.0
H1384 H 0.61832 0.83368 0.56028 0.0
H1385 H 0.61823 0.85228 0.52056 0.0
H1386 H 0.69658 0.88158 0.52075 0.0
H1387 H 0.6964 0.86278 0.55984 0.0
O1388 O 0.6616 0.86784 0.74752 0.0
O1389 O 0.69894 0.89765 0.7394 0.0
O1390 O 0.64168 0.69051 0.5724 0.0
O1391 O 0.68267 0.71127 0.58057 0.0
C1392 C 0.6619 0.84412 0.60995 0.0
C1393 C 0.6651 0.8322 0.63039 0.0
C1394 C 0.66435 0.80991 0.62549 0.0
C1395 C 0.65927 0.79896 0.60026 0.0
C1396 C 0.65552 0.81057 0.58002 0.0
C1397 C 0.65739 0.83341 0.58474 0.0
C1398 C 0.66481 0.86853 0.61519 0.0
C1399 C 0.64684 0.87044 0.62721 0.0
C1400 C 0.65157 0.89353 0.63634 0.0
C1401 C 0.67438 0.91501 0.63362 0.0
C1402 C 0.6918 0.91309 0.6204 0.0
C1403 C 0.68708 0.89001 0.61134 0.0
C1404 C 0.66955 0.84328 0.65695 0.0
C1405 C 0.65094 0.8324 0.67326 0.0
C1406 C 0.65435 0.84363 0.69772 0.0
C1407 C 0.67647 0.86594 0.70629 0.0
C1408 C 0.69528 0.87653 0.68999 0.0
C1409 C 0.69187 0.86523 0.66557 0.0
C1410 C 0.67149 0.79925 0.64616 0.0
C1411 C 0.65458 0.77556 0.65273 0.0
C1412 C 0.66277 0.76337 0.66784 0.0
C1413 C 0.68796 0.77482 0.67683 0.0
C1414 C 0.70451 0.79917 0.67157 0.0
C1415 C 0.69634 0.81128 0.65636 0.0
C1416 C 0.65962 0.77615 0.59472 0.0
C1417 C 0.63748 0.75355 0.5877 0.0
C1418 C 0.63785 0.73213 0.58243 0.0
C1419 C 0.66041 0.73297 0.58415 0.0
C1420 C 0.68256 0.75572 0.59116 0.0
C1421 C 0.68216 0.77713 0.59631 0.0
C1422 C 0.65152 0.79957 0.5536 0.0
C1423 C 0.62749 0.78467 0.54133 0.0
C1424 C 0.62365 0.77281 0.51712 0.0
C1425 C 0.64384 0.77578 0.50486 0.0
C1426 C 0.66796 0.79144 0.51696 0.0
C1427 C 0.67175 0.80311 0.54122 0.0
C1428 C 0.65742 0.84711 0.56295 0.0
C1429 C 0.63548 0.84452 0.5519 0.0
C1430 C 0.63546 0.85511 0.52931 0.0
C1431 C 0.65738 0.86825 0.51757 0.0
C1432 C 0.67938 0.87135 0.52925 0.0
C1433 C 0.67937 0.86083 0.55166 0.0
C1434 C 0.67979 0.87815 0.73204 0.0
C1435 C 0.66092 0.71026 0.57866 0.0
H1436 H 0.16564 0.84873 0.76128 0.0
H1437 H 0.0256 0.64342 0.54925 0.0
H1438 H 0.17029 0.85259 0.61022 0.0
H1439 H 0.1974 0.8952 0.62824 0.0
H1440 H 0.25261 0.87901 0.65423 0.0
H1441 H 0.22553 0.83629 0.63473 0.0
H1442 H 0.14139 0.8232 0.6514 0.0
H1443 H 0.1471 0.83671 0.69668 0.0
H1444 H 0.1959 0.80955 0.71031 0.0
H1445 H 0.18985 0.79598 0.66496 0.0
H1446 H 0.10016 0.782 0.61631 0.0
H1447 H 0.06781 0.76657 0.64504 0.0
H1448 H 0.10099 0.7317 0.68446 0.0
H1449 H 0.13382 0.7475 0.65545 0.0
H1450 H 0.09572 0.76635 0.56404 0.0
H1451 H 0.05714 0.72861 0.54694 0.0
H1452 H 0.08396 0.68516 0.57964 0.0
H1453 H 0.1226 0.72309 0.5964 0.0
H1454 H 0.14169 0.81242 0.5457 0.0
H1455 H 0.12442 0.80296 0.50159 0.0
H1456 H 0.12577 0.73604 0.49796 0.0
H1457 H 0.14532 0.7469 0.54208 0.0
H1458 H 0.18046 0.84976 0.5662 0.0
H1459 H 0.20618 0.87218 0.53323 0.0
H1460 H 0.23421 0.82361 0.53083 0.0
H1461 H 0.20786 0.80083 0.56358 0.0
O1462 O 0.16367 0.84327 0.74344 0.0
O1463 O 0.18881 0.82924 0.7494 0.0
O1464 O 0.02777 0.68183 0.53936 0.0
O1465 O 0.0407 0.65864 0.55575 0.0
C1466 C 0.1783 0.81557 0.61117 0.0
C1467 C 0.16141 0.80008 0.62763 0.0
C1468 C 0.13981 0.77774 0.61772 0.0
C1469 C 0.13557 0.77032 0.59143 0.0
C1470 C 0.15274 0.78558 0.57491 0.0
C1471 C 0.1744 0.80802 0.58493 0.0
C1472 C 0.19627 0.84163 0.62059 0.0
C1473 C 0.18851 0.85841 0.61924 0.0
C1474 C 0.20386 0.88262 0.62987 0.0
C1475 C 0.22715 0.89048 0.64264 0.0
C1476 C 0.23495 0.87359 0.64408 0.0
C1477 C 0.21957 0.84926 0.63303 0.0
C1478 C 0.16512 0.80852 0.65503 0.0
C1479 C 0.15325 0.82015 0.66424 0.0
C1480 C 0.15657 0.82787 0.69009 0.0
C1481 C 0.17193 0.82418 0.70713 0.0
C1482 C 0.18392 0.81264 0.69771 0.0
C1483 C 0.18052 0.80488 0.67186 0.0
C1484 C 0.11913 0.76565 0.63371 0.0
C1485 C 0.10029 0.77074 0.6309 0.0
C1486 C 0.08205 0.76218 0.64743 0.0
C1487 C 0.08228 0.74835 0.66707 0.0
C1488 C 0.10066 0.7425 0.66948 0.0
C1489 C 0.11921 0.75135 0.65296 0.0
C1490 C 0.11207 0.74741 0.58114 0.0
C1491 C 0.0933 0.74866 0.56731 0.0
C1492 C 0.07125 0.72707 0.55765 0.0
C1493 C 0.0675 0.70384 0.56185 0.0
C1494 C 0.08627 0.70272 0.57598 0.0
C1495 C 0.10835 0.72434 0.58559 0.0
C1496 C 0.1454 0.78073 0.54703 0.0
C1497 C 0.13945 0.79634 0.53514 0.0
C1498 C 0.12908 0.79061 0.51002 0.0
C1499 C 0.12352 0.76864 0.49635 0.0
C1500 C 0.13015 0.75326 0.5079 0.0
C1501 C 0.14118 0.75937 0.53309 0.0
C1502 C 0.19251 0.82383 0.56757 0.0
C1503 C 0.19271 0.84441 0.55919 0.0
C1504 C 0.20746 0.85725 0.54032 0.0
C1505 C 0.22244 0.84983 0.52962 0.0
C1506 C 0.22284 0.82973 0.53871 0.0
C1507 C 0.20792 0.81679 0.55747 0.0
C1508 C 0.17538 0.83235 0.7346 0.0
C1509 C 0.0441 0.68085 0.5516 0.0
H1510 H 0.2069 0.34047 0.77376 0.0
H1511 H 0.00858 0.29972 0.56821 0.0
H1512 H 0.22619 0.36476 0.64396 0.0
H1513 H 0.25868 0.35807 0.66136 0.0
H1514 H 0.22024 0.28558 0.62052 0.0
H1515 H 0.18791 0.29237 0.60313 0.0
H1516 H 0.17989 0.36154 0.67477 0.0
H1517 H 0.19207 0.35926 0.71883 0.0
H1518 H 0.18112 0.28779 0.69759 0.0
H1519 H 0.16856 0.29012 0.65373 0.0
H1520 H 0.12518 0.35306 0.6466 0.0
H1521 H 0.08815 0.33694 0.66933 0.0
H1522 H 0.08525 0.26816 0.67296 0.0
H1523 H 0.12107 0.28368 0.64888 0.0
H1524 H 0.132 0.36612 0.58807 0.0
H1525 H 0.09301 0.36358 0.57573 0.0
H1526 H 0.05269 0.28594 0.58677 0.0
H1527 H 0.09181 0.28866 0.59866 0.0
H1528 H 0.17472 0.37207 0.55485 0.0
H1529 H 0.16211 0.37263 0.51011 0.0
H1530 H 0.10535 0.29539 0.50727 0.0
H1531 H 0.11835 0.29485 0.55154 0.0
H1532 H 0.22144 0.37339 0.58313 0.0
H1533 H 0.24555 0.37902 0.54692 0.0
H1534 H 0.19163 0.30432 0.51587 0.0
H1535 H 0.16806 0.29869 0.55232 0.0
O1536 O 0.20179 0.34088 0.75626 0.0
O1537 O 0.19604 0.30426 0.74432 0.0
O1538 O 0.04589 0.34111 0.56717 0.0
O1539 O 0.02427 0.30122 0.57289 0.0
C1540 C 0.18294 0.33099 0.61552 0.0
C1541 C 0.16692 0.32805 0.6342 0.0
C1542 C 0.14444 0.32673 0.62735 0.0
C1543 C 0.13846 0.32935 0.60197 0.0
C1544 C 0.15469 0.33276 0.58344 0.0
C1545 C 0.1768 0.33332 0.59016 0.0
C1546 C 0.20477 0.32907 0.62226 0.0
C1547 C 0.22512 0.34769 0.63833 0.0
C1548 C 0.24352 0.34381 0.64831 0.0
C1549 C 0.24163 0.32117 0.64254 0.0
C1550 C 0.22185 0.30303 0.62551 0.0
C1551 C 0.20361 0.307 0.61536 0.0
C1552 C 0.17357 0.32611 0.66103 0.0
C1553 C 0.18003 0.34537 0.67972 0.0
C1554 C 0.18703 0.34404 0.70485 0.0
C1555 C 0.18767 0.32339 0.71172 0.0
C1556 C 0.18091 0.30399 0.69294 0.0
C1557 C 0.17382 0.30531 0.66785 0.0
C1558 C 0.12569 0.31946 0.64582 0.0
C1559 C 0.11674 0.33465 0.65265 0.0
C1560 C 0.09568 0.32547 0.6657 0.0
C1561 C 0.08351 0.30109 0.67235 0.0
C1562 C 0.09387 0.28678 0.66746 0.0
C1563 C 0.11456 0.29576 0.65404 0.0
C1564 C 0.11471 0.32763 0.59441 0.0
C1565 C 0.11472 0.34858 0.58774 0.0
C1566 C 0.09243 0.34708 0.58074 0.0
C1567 C 0.06972 0.32456 0.58033 0.0
C1568 C 0.06982 0.30357 0.58693 0.0
C1569 C 0.09213 0.30508 0.59379 0.0
C1570 C 0.14732 0.33345 0.55643 0.0
C1571 C 0.1596 0.35531 0.54448 0.0
C1572 C 0.1523 0.35564 0.51906 0.0
C1573 C 0.13266 0.33408 0.5053 0.0
C1574 C 0.12063 0.31223 0.51736 0.0
C1575 C 0.1279 0.31192 0.54266 0.0
C1576 C 0.19305 0.33565 0.57027 0.0
C1577 C 0.2152 0.3581 0.56877 0.0
C1578 C 0.22881 0.36132 0.54807 0.0
C1579 C 0.2205 0.34207 0.52866 0.0
C1580 C 0.19874 0.31932 0.53075 0.0
C1581 C 0.18519 0.31612 0.55145 0.0
C1582 C 0.19539 0.32217 0.73838 0.0
C1583 C 0.04598 0.32289 0.57305 0.0
C1584 C 0.99475 0.41519 0.10736 0.0
C1585 C 0.98026 0.41716 0.08756 0.0
C1586 C 0.99773 0.42596 0.13201 0.0
C1587 C 0.98653 0.43934 0.13785 0.0
H1588 H 0.00373 0.40504 0.10388 0.0
H1589 H 0.00879 0.42362 0.14667 0.0
S1590 S 0.94794 0.45126 0.09258 0.0
N1591 N 0.9551 0.43412 0.07532 0.0
N1592 N 0.96121 0.45484 0.12158 0.0
C1593 C 0.97215 0.44166 0.11822 0.0
C1594 C 0.96892 0.43048 0.09311 0.0
C1595 C 0.58517 0.56117 0.13899 0.0
C1596 C 0.58803 0.54671 0.12023 0.0
C1597 C 0.57363 0.5512 0.16078 0.0
C1598 C 0.56467 0.52645 0.16476 0.0
H1599 H 0.59148 0.58026 0.13666 0.0
H1600 H 0.57154 0.5629 0.17455 0.0
S1601 S 0.56717 0.48052 0.12168 0.0
N1602 N 0.58089 0.50615 0.10744 0.0
N1603 N 0.55904 0.48757 0.14819 0.0
C1604 C 0.56765 0.51186 0.14644 0.0
C1605 C 0.57937 0.52193 0.12425 0.0
C1606 C 0.4532 0.98761 0.09802 0.0
C1607 C 0.43834 0.99764 0.09408 0.0
C1608 C 0.46568 0.99058 0.12194 0.0
C1609 C 0.46349 0.00336 0.14298 0.0
H1610 H 0.45472 0.97685 0.08264 0.0
H1611 H 0.47655 0.98213 0.12414 0.0
S1612 S 0.42681 0.03321 0.14263 0.0
N1613 N 0.42268 0.02153 0.11295 0.0
N1614 N 0.44541 0.02638 0.15815 0.0
C1615 C 0.44931 0.01419 0.1391 0.0
C1616 C 0.4369 0.01149 0.11459 0.0
C1617 C 0.43412 0.00495 0.95243 0.0
C1618 C 0.41374 0.98219 0.95736 0.0
C1619 C 0.44457 0.00772 0.92938 0.0
C1620 C 0.43476 0.98792 0.91025 0.0
H1621 H 0.44269 0.02046 0.96689 0.0
H1622 H 0.46101 0.02525 0.92696 0.0
S1623 S 0.37898 0.92567 0.91239 0.0
N1624 N 0.38268 0.9402 0.94049 0.0
N1625 N 0.40163 0.94565 0.89677 0.0
C1626 C 0.41348 0.96548 0.91445 0.0
C1627 C 0.40314 0.96255 0.93808 0.0
C1628 C 0.01621 0.45201 0.95869 0.0
C1629 C 0.01107 0.42781 0.95885 0.0
C1630 C 0.01965 0.46328 0.93598 0.0
C1631 C 0.01736 0.4504 0.91268 0.0
H1632 H 0.01617 0.46175 0.97599 0.0
H1633 H 0.0223 0.48148 0.9364 0.0
S1634 S 0.00558 0.38722 0.90325 0.0
N1635 N 0.00549 0.39193 0.93419 0.0
N1636 N 0.01122 0.41287 0.8913 0.0
C1637 C 0.01347 0.42667 0.91279 0.0
C1638 C 0.0105 0.41542 0.93598 0.0
C1639 C 0.57536 0.59312 0.98023 0.0
C1640 C 0.56696 0.57201 0.99347 0.0
C1641 C 0.56536 0.59132 0.95524 0.0
C1642 C 0.54636 0.56849 0.94308 0.0
H1643 H 0.59104 0.61073 0.98841 0.0
H1644 H 0.57353 0.60752 0.94486 0.0
S1645 S 0.5152 0.50865 0.97073 0.0
N1646 N 0.53658 0.52817 0.99348 0.0
N1647 N 0.51766 0.52505 0.94669 0.0
C1648 C 0.5364 0.54775 0.95679 0.0
C1649 C 0.54671 0.54946 0.98202 0.0
C1650 C 0.01191 0.58259 0.96884 0.0
C1651 C 0.03397 0.59179 0.98496 0.0
C1652 C 0.00815 0.56999 0.94501 0.0
C1653 C 0.02635 0.5662 0.93624 0.0
H1654 H 0.99718 0.58482 0.97474 0.0
H1655 H 0.99087 0.56324 0.93329 0.0
S1656 S 0.08744 0.58652 0.9706 0.0
N1657 N 0.07446 0.59629 0.99006 0.0
N1658 N 0.06719 0.57251 0.94524 0.0
C1659 C 0.04861 0.5755 0.95187 0.0
C1660 C 0.05247 0.58829 0.97622 0.0
C1661 C 0.41826 0.47071 0.94302 0.0
C1662 C 0.41246 0.44701 0.9485 0.0
C1663 C 0.43046 0.48133 0.92185 0.0
C1664 C 0.43748 0.46876 0.90535 0.0
H1665 H 0.41377 0.48146 0.95543 0.0
H1666 H 0.4351 0.49985 0.91881 0.0
S1667 S 0.42509 0.40564 0.90962 0.0
N1668 N 0.41353 0.41073 0.93455 0.0
N1669 N 0.43655 0.4309 0.89472 0.0
C1670 C 0.43122 0.44482 0.91001 0.0
C1671 C 0.41864 0.43387 0.93155 0.0
C1672 C 0.56239 0.99451 0.97887 0.0
C1673 C 0.58259 0.01792 0.98845 0.0
C1674 C 0.54963 0.99082 0.9548 0.0
C1675 C 0.5568 0.01038 0.9394 0.0
H1676 H 0.5562 0.97901 0.99017 0.0
H1677 H 0.53394 0.97261 0.94829 0.0
S1678 S 0.6105 0.07442 0.95433 0.0
N1679 N 0.61024 0.06047 0.97981 0.0
N1680 N 0.58683 0.05337 0.93455 0.0
C1681 C 0.57745 0.03364 0.94849 0.0
C1682 C 0.59019 0.03746 0.97299 0.0
C1683 C 0.58677 0.03636 0.13601 0.0
C1684 C 0.59589 0.02209 0.1264 0.0
C1685 C 0.57588 0.03183 0.15884 0.0
C1686 C 0.57386 0.01301 0.17318 0.0
H1687 H 0.58755 0.05085 0.12555 0.0
H1688 H 0.56845 0.04285 0.16499 0.0
S1689 S 0.59688 0.9718 0.15763 0.0
N1690 N 0.60331 0.98909 0.13368 0.0
N1691 N 0.58333 0.981 0.17695 0.0
C1692 C 0.58346 0.99898 0.16416 0.0
C1693 C 0.59436 0.00343 0.14072 0.0
C1694 C 0.99183 0.57658 0.13004 0.0
C1695 C 0.99897 0.5692 0.10843 0.0
C1696 C 0.98894 0.56472 0.1524 0.0
C1697 C 0.99305 0.54519 0.15361 0.0
H1698 H 0.99058 0.59284 0.13039 0.0
H1699 H 0.98531 0.57203 0.16931 0.0
S1700 S 0.00712 0.51606 0.10059 0.0
N1701 N 0.00659 0.53914 0.08851 0.0
N1702 N 0.00073 0.51665 0.13024 0.0
C1703 C 0.99773 0.5362 0.13134 0.0
C1704 C 0.0008 0.54828 0.10879 0.0
C1705 C 0.42673 0.40632 0.09004 0.0
C1706 C 0.43304 0.42683 0.07635 0.0
C1707 C 0.43805 0.40936 0.11471 0.0
C1708 C 0.4561 0.43294 0.12623 0.0
H1709 H 0.41173 0.38809 0.08244 0.0
H1710 H 0.43143 0.39345 0.12546 0.0
S1711 S 0.48276 0.49171 0.09651 0.0
N1712 N 0.4611 0.47092 0.07474 0.0
N1713 N 0.48241 0.47647 0.12094 0.0
C1714 C 0.46418 0.45317 0.11185 0.0
C1715 C 0.45263 0.45015 0.08692 0.0
C1716 C 0.61995 0.75059 0.43586 0.0
C1717 C 0.63219 0.73821 0.43017 0.0
C1718 C 0.62372 0.76259 0.46007 0.0
C1719 C 0.63974 0.7625 0.47955 0.0
H1720 H 0.60774 0.75149 0.42136 0.0
H1721 H 0.61435 0.77237 0.46343 0.0
S1722 S 0.67413 0.7305 0.47529 0.0
N1723 N 0.65982 0.72533 0.44649 0.0
N1724 N 0.6664 0.74737 0.49214 0.0
C1725 C 0.65153 0.74959 0.47434 0.0
C1726 C 0.64787 0.73757 0.44963 0.0
C1727 C 0.24366 0.85629 0.46368 0.0
C1728 C 0.25699 0.88195 0.46208 0.0
C1729 C 0.23313 0.84623 0.48578 0.0
C1730 C 0.23558 0.86137 0.50731 0.0
H1731 H 0.24076 0.8437 0.44751 0.0
H1732 H 0.22235 0.82634 0.48569 0.0
S1733 S 0.27054 0.92977 0.51406 0.0
N1734 N 0.27324 0.9224 0.48465 0.0
N1735 N 0.2537 0.90337 0.52639 0.0
C1736 C 0.24946 0.88708 0.50635 0.0
C1737 C 0.26012 0.89738 0.48373 0.0
C1738 C 0.10973 0.31241 0.4357 0.0
C1739 C 0.10204 0.32834 0.42798 0.0
C1740 C 0.12064 0.31514 0.46038 0.0
C1741 C 0.12432 0.33392 0.47843 0.0
H1742 H 0.10665 0.29717 0.4228 0.0
H1743 H 0.12564 0.30202 0.46561 0.0
S1744 S 0.10879 0.38138 0.46774 0.0
N1745 N 0.10011 0.36445 0.44017 0.0
N1746 N 0.12045 0.36938 0.48673 0.0
C1747 C 0.11784 0.35072 0.47074 0.0
C1748 C 0.10675 0.34799 0.44548 0.0
C1749 C 0.09315 0.30204 0.28289 0.0
C1750 C 0.08134 0.31446 0.29003 0.0
C1751 C 0.10218 0.30412 0.25917 0.0
C1752 C 0.09939 0.31836 0.24133 0.0
H1753 H 0.09589 0.29094 0.29595 0.0
H1754 H 0.11183 0.29479 0.25498 0.0
S1755 S 0.06809 0.35307 0.25003 0.0
N1756 N 0.06657 0.34091 0.27717 0.0
N1757 N 0.08272 0.3441 0.23207 0.0
C1758 C 0.0872 0.33056 0.24805 0.0
C1759 C 0.07835 0.32876 0.27248 0.0
C1760 C 0.64121 0.76283 0.29076 0.0
C1761 C 0.65484 0.75266 0.29994 0.0
C1762 C 0.64639 0.77492 0.26864 0.0
C1763 C 0.66542 0.77739 0.25466 0.0
H1764 H 0.62598 0.76104 0.30046 0.0
H1765 H 0.6351 0.78208 0.26219 0.0
S1766 S 0.7076 0.75538 0.27094 0.0
N1767 N 0.68911 0.74694 0.29382 0.0
N1768 N 0.69876 0.76972 0.25195 0.0
C1769 C 0.67995 0.7683 0.26404 0.0
C1770 C 0.67468 0.75591 0.28674 0.0
C1771 C 0.21759 0.88326 0.32089 0.0
C1772 C 0.2355 0.90627 0.33389 0.0
C1773 C 0.20697 0.88156 0.29632 0.0
C1774 C 0.21386 0.90279 0.28391 0.0
H1775 H 0.2127 0.86632 0.32921 0.0
H1776 H 0.19446 0.86346 0.28634 0.0
S1777 S 0.25787 0.96744 0.31011 0.0
N1778 N 0.25796 0.95089 0.33308 0.0
N1779 N 0.23805 0.94744 0.28664 0.0
C1780 C 0.2304 0.92592 0.29713 0.0
C1781 C 0.24114 0.92774 0.32228 0.0
C1782 C 0.67947 0.91514 0.30366 0.0
C1783 C 0.69994 0.92151 0.32123 0.0
C1784 C 0.67626 0.9033 0.2795 0.0
C1785 C 0.6934 0.89739 0.27186 0.0
H1786 H 0.66565 0.9192 0.30858 0.0
H1787 H 0.66027 0.89887 0.26663 0.0
S1788 S 0.74984 0.90937 0.31052 0.0
N1789 N 0.73758 0.92069 0.3291 0.0
N1790 N 0.73129 0.89826 0.28374 0.0
C1791 C 0.71398 0.90367 0.28906 0.0
C1792 C 0.71731 0.91575 0.31371 0.0
C1793 C 0.07713 0.76888 0.2702 0.0
C1794 C 0.08437 0.78264 0.2941 0.0
C1795 C 0.09001 0.77918 0.24917 0.0
C1796 C 0.11086 0.80328 0.25161 0.0
H1797 H 0.06112 0.75024 0.26763 0.0
H1798 H 0.08371 0.76824 0.23094 0.0
S1799 S 0.13811 0.84655 0.31006 0.0
N1800 N 0.11411 0.82148 0.31895 0.0
N1801 N 0.13854 0.84046 0.27951 0.0
C1802 C 0.11858 0.81703 0.2754 0.0
C1803 C 0.10526 0.8068 0.29664 0.0
C1804 C 0.24293 0.36084 0.30455 0.0
C1805 C 0.23587 0.34162 0.32029 0.0
C1806 C 0.23069 0.35673 0.28032 0.0
C1807 C 0.21049 0.33329 0.2708 0.0
H1808 H 0.25849 0.37923 0.31075 0.0
H1809 H 0.23747 0.37209 0.26877 0.0
S1810 S 0.18371 0.27693 0.30509 0.0
N1811 N 0.20713 0.29829 0.32498 0.0
N1812 N 0.18333 0.29068 0.2796 0.0
C1813 C 0.20297 0.31387 0.28646 0.0
C1814 C 0.21581 0.31801 0.31114 0.0
C1815 C 0.24939 0.37042 0.46921 0.0
C1816 C 0.25462 0.35337 0.45818 0.0
C1817 C 0.23897 0.36691 0.4923 0.0
C1818 C 0.23338 0.34625 0.50534 0.0
H1819 H 0.25288 0.3864 0.45971 0.0
H1820 H 0.23461 0.38015 0.49963 0.0
S1821 S 0.24551 0.29733 0.48612 0.0
N1822 N 0.25474 0.31574 0.46309 0.0
N1823 N 0.23534 0.30939 0.5066 0.0
C1824 C 0.23915 0.32944 0.49502 0.0
C1825 C 0.24974 0.33295 0.47145 0.0
C1826 C 0.6738 0.88486 0.45119 0.0
C1827 C 0.6672 0.90236 0.44723 0.0
C1828 C 0.66906 0.87281 0.47335 0.0
C1829 C 0.65773 0.87791 0.49258 0.0
H1830 H 0.68371 0.88122 0.43752 0.0
H1831 H 0.6753 0.86014 0.47594 0.0
S1832 S 0.63489 0.92057 0.49059 0.0
N1833 N 0.64697 0.92279 0.46343 0.0
N1834 N 0.63831 0.90025 0.50547 0.0
C1835 C 0.64952 0.89412 0.4882 0.0
C1836 C 0.65421 0.90634 0.4654 0.0
C1837 C 0.07567 0.76036 0.44432 0.0
C1838 C 0.08256 0.75323 0.42243 0.0
C1839 C 0.08835 0.76407 0.46816 0.0
C1840 C 0.10886 0.76133 0.47108 0.0
H1841 H 0.06048 0.76345 0.44298 0.0
H1842 H 0.08236 0.7697 0.48442 0.0
S1843 S 0.13365 0.74175 0.41972 0.0
N1844 N 0.11016 0.74211 0.4051 0.0
N1845 N 0.13483 0.74999 0.45009 0.0
C1846 C 0.11539 0.75323 0.44948 0.0
C1847 C 0.10207 0.74901 0.42508 0.0
C1848 C 0.2992 0.08901 0.76369 0.0
C1849 C 0.31121 0.07617 0.75908 0.0
C1850 C 0.30171 0.10054 0.78784 0.0
C1851 C 0.31621 0.09957 0.80837 0.0
H1852 H 0.28797 0.09042 0.74845 0.0
H1853 H 0.29244 0.11054 0.79039 0.0
S1854 S 0.34977 0.06656 0.80697 0.0
N1855 N 0.33727 0.06225 0.77745 0.0
N1856 N 0.34149 0.08344 0.82292 0.0
C1857 C 0.32796 0.08642 0.80417 0.0
C1858 C 0.32558 0.07485 0.77953 0.0
C1859 C 0.92207 0.23159 0.80847 0.0
C1860 C 0.91496 0.21531 0.78631 0.0
C1861 C 0.91382 0.22277 0.83189 0.0
C1862 C 0.89823 0.19739 0.83395 0.0
H1863 H 0.93433 0.25126 0.80781 0.0
H1864 H 0.9199 0.23585 0.84855 0.0
S1865 S 0.87191 0.14728 0.78136 0.0
N1866 N 0.88986 0.17261 0.76782 0.0
N1867 N 0.87433 0.15628 0.81168 0.0
C1868 C 0.89044 0.181 0.81189 0.0
C1869 C 0.89882 0.18989 0.78812 0.0
C1870 C 0.79572 0.66664 0.7745 0.0
C1871 C 0.78347 0.67888 0.76765 0.0
C1872 C 0.80678 0.66998 0.79923 0.0
C1873 C 0.80616 0.68576 0.81812 0.0
H1874 H 0.79586 0.65348 0.76095 0.0
H1875 H 0.81505 0.65935 0.80389 0.0
S1876 S 0.77862 0.72395 0.80976 0.0
N1877 N 0.77313 0.70897 0.78147 0.0
N1878 N 0.794 0.71516 0.8281 0.0
C1879 C 0.7955 0.6994 0.81125 0.0
C1880 C 0.78415 0.696 0.78596 0.0
C1881 C 0.76761 0.64589 0.62167 0.0
C1882 C 0.75561 0.65785 0.62973 0.0
C1883 C 0.77465 0.6471 0.59707 0.0
C1884 C 0.76968 0.66003 0.5793 0.0
H1885 H 0.7719 0.63569 0.63458 0.0
H1886 H 0.78439 0.63805 0.59207 0.0
S1887 S 0.73748 0.69348 0.59041 0.0
N1888 N 0.73856 0.68269 0.61786 0.0
N1889 N 0.75122 0.6844 0.57123 0.0
C1890 C 0.75752 0.67197 0.587 0.0
C1891 C 0.7506 0.67099 0.61228 0.0
C1892 C 0.3464 0.10765 0.62923 0.0
C1893 C 0.33476 0.08188 0.62751 0.0
C1894 C 0.35002 0.12005 0.60722 0.0
C1895 C 0.34186 0.10699 0.58289 0.0
H1896 H 0.35149 0.1181 0.64765 0.0
H1897 H 0.3579 0.13979 0.60933 0.0
S1898 S 0.31281 0.03953 0.56852 0.0
N1899 N 0.31684 0.0439 0.59989 0.0
N1900 N 0.32385 0.06713 0.55849 0.0
C1901 C 0.33151 0.08135 0.58104 0.0
C1902 C 0.32787 0.0688 0.60339 0.0
C1903 C 0.9077 0.26483 0.64501 0.0
C1904 C 0.89606 0.24395 0.65867 0.0
C1905 C 0.89872 0.26406 0.61988 0.0
C1906 C 0.87745 0.24266 0.60793 0.0
H1907 H 0.92495 0.28114 0.653 0.0
H1908 H 0.9092 0.27979 0.60925 0.0
S1909 S 0.83831 0.18436 0.63658 0.0
N1910 N 0.86087 0.20214 0.6592 0.0
N1911 N 0.84365 0.20105 0.61223 0.0
C1912 C 0.86449 0.22246 0.62207 0.0
C1913 C 0.87388 0.22302 0.64742 0.0
C1914 C 0.37824 0.25145 0.64814 0.0
C1915 C 0.36105 0.2579 0.65441 0.0
C1916 C 0.37542 0.2387 0.62466 0.0
C1917 C 0.35525 0.2318 0.6066 0.0
H1918 H 0.39382 0.25586 0.66163 0.0
H1919 H 0.38885 0.23377 0.62081 0.0
S1920 S 0.30641 0.24625 0.61222 0.0
N1921 N 0.32398 0.25775 0.6396 0.0
N1922 N 0.31885 0.23383 0.59551 0.0
C1923 C 0.33832 0.23869 0.61219 0.0
C1924 C 0.34119 0.25174 0.63606 0.0
C1925 C 0.76012 0.14084 0.61834 0.0
C1926 C 0.75616 0.118 0.62478 0.0
C1927 C 0.77171 0.1513 0.5968 0.0
C1928 C 0.78005 0.1395 0.581 0.0
H1929 H 0.75414 0.15077 0.62996 0.0
H1930 H 0.77445 0.16895 0.59265 0.0
S1931 S 0.77435 0.07954 0.58901 0.0
N1932 N 0.76157 0.08389 0.61326 0.0
N1933 N 0.78352 0.10381 0.57283 0.0
C1934 C 0.77636 0.11676 0.58711 0.0
C1935 C 0.76433 0.10593 0.60894 0.0
C1936 C 0.88305 0.65942 0.64324 0.0
C1937 C 0.90478 0.68214 0.6517 0.0
C1938 C 0.87063 0.65556 0.6189 0.0
C1939 C 0.87971 0.67421 0.60219 0.0
H1940 H 0.87538 0.64473 0.65565 0.0
H1941 H 0.85365 0.63803 0.61328 0.0
S1942 S 0.93798 0.73553 0.6139 0.0
N1943 N 0.93599 0.72265 0.6406 0.0
N1944 N 0.91322 0.71514 0.59488 0.0
C1945 C 0.90199 0.69657 0.61012 0.0
C1946 C 0.91437 0.7006 0.63487 0.0
C1947 C 0.9158 0.70893 0.80225 0.0
C1948 C 0.92141 0.69207 0.79153 0.0
C1949 C 0.90745 0.70674 0.82637 0.0
C1950 C 0.90445 0.68767 0.84086 0.0
H1951 H 0.91756 0.72383 0.79181 0.0
H1952 H 0.9028 0.71982 0.8335 0.0
S1953 S 0.91821 0.63971 0.82253 0.0
N1954 N 0.92431 0.65616 0.79791 0.0
N1955 N 0.9089 0.65232 0.8434 0.0
C1956 C 0.91037 0.67091 0.83065 0.0
C1957 C 0.91878 0.67305 0.80599 0.0
C1958 C 0.33611 0.21897 0.78175 0.0
C1959 C 0.33047 0.23738 0.77983 0.0
C1960 C 0.33199 0.20625 0.8034 0.0
C1961 C 0.32234 0.21162 0.82413 0.0
H1962 H 0.34486 0.21515 0.76685 0.0
H1963 H 0.33748 0.19285 0.8044 0.0
S1964 S 0.30265 0.25682 0.82779 0.0
N1965 N 0.31296 0.25909 0.79959 0.0
N1966 N 0.30556 0.23535 0.84072 0.0
C1967 C 0.31507 0.22883 0.82184 0.0
C1968 C 0.31908 0.24169 0.79956 0.0
C1969 C 0.78439 0.09352 0.75819 0.0
C1970 C 0.76085 0.09048 0.75529 0.0
C1971 C 0.79676 0.09747 0.78257 0.0
C1972 C 0.78574 0.09832 0.80447 0.0
H1973 H 0.79372 0.09402 0.74163 0.0
H1974 H 0.81539 0.10102 0.78429 0.0
S1975 S 0.72282 0.08746 0.80662 0.0
N1976 N 0.72604 0.08599 0.77602 0.0
N1977 N 0.74893 0.09285 0.82165 0.0
C1978 C 0.76156 0.0936 0.80162 0.0
C1979 C 0.74919 0.08985 0.77703 0.0
C1980 C 0.05529 0.34423 0.04193 0.0
C1981 C 0.04965 0.36182 0.05022 0.0
C1982 C 0.07059 0.3393 0.0574 0.0
C1983 C 0.08082 0.35171 0.08182 0.0
H1984 H 0.04785 0.33414 0.0233 0.0
H1985 H 0.07473 0.3259 0.05003 0.0
S1986 S 0.0708 0.39838 0.11332 0.0
N1987 N 0.05504 0.39115 0.08501 0.0
N1988 N 0.08349 0.38157 0.11405 0.0
C1989 C 0.0752 0.36916 0.09049 0.0
C1990 C 0.05971 0.37429 0.07472 0.0
C1991 C 0.64477 0.68228 0.10281 0.0
C1992 C 0.6371 0.67592 0.07655 0.0
C1993 C 0.65037 0.70498 0.11464 0.0
C1994 C 0.64808 0.72191 0.1007 0.0
H1995 H 0.64657 0.66966 0.11436 0.0
H1996 H 0.65606 0.70913 0.13489 0.0
S1997 S 0.62931 0.71482 0.03165 0.0
N1998 N 0.62809 0.68898 0.03698 0.0
N1999 N 0.63828 0.73141 0.05944 0.0
C2000 C 0.64065 0.716 0.07451 0.0
C2001 C 0.63526 0.69307 0.06237 0.0
C2002 C 0.31265 0.95998 0.05892 0.0
C2003 C 0.31756 0.94519 0.04287 0.0
C2004 C 0.29021 0.94989 0.06974 0.0
C2005 C 0.27185 0.92473 0.06463 0.0
H2006 H 0.32679 0.97913 0.06447 0.0
H2007 H 0.28789 0.96151 0.08338 0.0
S2008 S 0.27361 0.87949 0.01968 0.0
N2009 N 0.30096 0.90504 0.01965 0.0
N2010 N 0.25848 0.88624 0.03937 0.0
C2011 C 0.27569 0.91032 0.04684 0.0
C2012 C 0.29863 0.9205 0.03612 0.0
C2013 C 0.36195 0.06256 0.04583 0.0
C2014 C 0.37964 0.05957 0.03423 0.0
C2015 C 0.3549 0.07858 0.03709 0.0
C2016 C 0.36553 0.09248 0.0167 0.0
H2017 H 0.35272 0.05175 0.06117 0.0
H2018 H 0.34065 0.07973 0.04599 0.0
S2019 S 0.41324 0.09236 0.98028 0.0
N2020 N 0.40828 0.0728 0.00174 0.0
N2021 N 0.39486 0.10272 0.98538 0.0
C2022 C 0.38383 0.09041 0.00551 0.0
C2023 C 0.39095 0.07404 0.01428 0.0
C2024 C 0.91771 0.30027 0.97782 0.0
C2025 C 0.93823 0.31084 0.99634 0.0
C2026 C 0.90521 0.27524 0.96917 0.0
C2027 C 0.91251 0.25964 0.97888 0.0
H2028 H 0.91138 0.31147 0.96966 0.0
H2029 H 0.88964 0.26803 0.95471 0.0
S2030 S 0.96455 0.27794 0.02832 0.0
N2031 N 0.96523 0.30373 0.02434 0.0
N2032 N 0.94123 0.25641 0.00848 0.0
C2033 C 0.93301 0.26991 0.99739 0.0
C2034 C 0.94595 0.29554 0.00606 0.0
C2035 C 0.70501 0.6311 0.04638 0.0
C2036 C 0.6857 0.60819 0.03442 0.0
C2037 C 0.72875 0.64289 0.03807 0.0
C2038 C 0.73394 0.63223 0.01744 0.0
H2039 H 0.70179 0.63994 0.06233 0.0
H2040 H 0.74316 0.66037 0.04793 0.0
S2041 S 0.6892 0.57396 0.97779 0.0
N2042 N 0.67311 0.57614 0.99984 0.0
N2043 N 0.71736 0.59853 0.98397 0.0
C2044 C 0.71465 0.60965 0.00497 0.0
C2045 C 0.69065 0.59757 0.01353 0.0
C2046 C 0.95113 0.65556 0.04019 0.0
C2047 C 0.96134 0.64323 0.02837 0.0
C2048 C 0.93643 0.66212 0.02604 0.0
C2049 C 0.93151 0.65683 0.99945 0.0
H2050 H 0.95447 0.66018 0.06058 0.0
H2051 H 0.92864 0.67121 0.03609 0.0
S2052 S 0.95494 0.62607 0.95902 0.0
N2053 N 0.96592 0.6265 0.98825 0.0
N2054 N 0.93878 0.63935 0.96172 0.0
C2055 C 0.9417 0.64464 0.98734 0.0
C2056 C 0.95649 0.63773 0.00176 0.0
C2057 C 0.34511 0.29725 0.00667 0.0
C2058 C 0.35481 0.31774 0.99234 0.0
C2059 C 0.33937 0.27412 0.99609 0.0
C2060 C 0.34304 0.27051 0.97074 0.0
H2061 H 0.3422 0.29911 0.02637 0.0
H2062 H 0.33251 0.25905 0.00804 0.0
S2063 S 0.36606 0.31745 0.92437 0.0
N2064 N 0.36669 0.33248 0.95093 0.0
N2065 N 0.35558 0.28888 0.93108 0.0
C2066 C 0.3522 0.29063 0.95599 0.0
C2067 C 0.35815 0.31425 0.96677 0.0
C2068 C 0.70267 0.04316 0.03459 0.0
C2069 C 0.69729 0.06014 0.04565 0.0
C2070 C 0.724 0.05114 0.02213 0.0
C2071 C 0.74066 0.07633 0.02046 0.0
H2072 H 0.68959 0.0235 0.03409 0.0
H2073 H 0.72659 0.03753 0.0123 0.0
S2074 S 0.73806 0.1284 0.05022 0.0
N2075 N 0.71263 0.10352 0.05719 0.0
N2076 N 0.75256 0.11828 0.0336 0.0
C2077 C 0.73679 0.09351 0.03332 0.0
C2078 C 0.71516 0.08548 0.04603 0.0
C2079 C 0.64126 0.93653 0.03697 0.0
C2080 C 0.62938 0.94539 0.05169 0.0
C2081 C 0.64602 0.9188 0.04542 0.0
C2082 C 0.63898 0.90922 0.06885 0.0
H2083 H 0.64738 0.94366 0.01896 0.0
H2084 H 0.65549 0.91271 0.03368 0.0
S2085 S 0.60832 0.92678 0.11521 0.0
N2086 N 0.61099 0.94324 0.09121 0.0
N2087 N 0.6203 0.91031 0.10705 0.0
C2088 C 0.62693 0.9177 0.08368 0.0
C2089 C 0.622 0.93565 0.0751 0.0
C2090 C 0.07291 0.71044 0.07349 0.0
C2091 C 0.071 0.6915 0.08742 0.0
C2092 C 0.08519 0.73485 0.08465 0.0
C2093 C 0.09543 0.74097 0.11027 0.0
H2094 H 0.06558 0.70649 0.05365 0.0
H2095 H 0.08731 0.74909 0.07289 0.0
S2096 S 0.09139 0.6969 0.15577 0.0
N2097 N 0.07816 0.67977 0.12847 0.0
N2098 N 0.09999 0.72529 0.14992 0.0
C2099 C 0.09227 0.72177 0.12469 0.0
C2100 C 0.08036 0.69712 0.11315 0.0
C2101 C 0.3015 0.36431 0.04074 0.0
C2102 C 0.31312 0.38839 0.03313 0.0
C2103 C 0.2798 0.35448 0.05294 0.0
C2104 C 0.26897 0.36837 0.05783 0.0
H2105 H 0.30994 0.35347 0.03857 0.0
H2106 H 0.27223 0.33646 0.05979 0.0
S2107 S 0.28934 0.4303 0.03745 0.0
N2108 N 0.31023 0.42449 0.0284 0.0
N2109 N 0.26936 0.40586 0.05104 0.0
C2110 C 0.27929 0.39164 0.04858 0.0
C2111 C 0.30139 0.40168 0.03629 0.0
C2112 C 0.71591 0.67861 0.37656 0.0
C2113 C 0.70903 0.69513 0.38528 0.0
C2114 C 0.73191 0.67443 0.39181 0.0
C2115 C 0.74172 0.6866 0.41637 0.0
H2116 H 0.7087 0.66859 0.35788 0.0
H2117 H 0.73681 0.66169 0.38421 0.0
S2118 S 0.72948 0.73135 0.44857 0.0
N2119 N 0.71346 0.72374 0.42038 0.0
N2120 N 0.74327 0.71556 0.44895 0.0
C2121 C 0.73519 0.70325 0.42533 0.0
C2122 C 0.71893 0.70759 0.40982 0.0
C2123 C 0.30456 0.0267 0.40149 0.0
C2124 C 0.30648 0.0103 0.41687 0.0
C2125 C 0.30916 0.04945 0.41194 0.0
C2126 C 0.31628 0.05683 0.43804 0.0
H2127 H 0.29905 0.02178 0.38127 0.0
H2128 H 0.30716 0.0614 0.39949 0.0
S2129 S 0.32455 0.02125 0.48658 0.0
N2130 N 0.31627 0.00335 0.45971 0.0
N2131 N 0.32527 0.04638 0.47909 0.0
C2132 C 0.31868 0.04093 0.45362 0.0
C2133 C 0.31365 0.01758 0.4431 0.0
C2134 C 0.96491 0.25633 0.36559 0.0
C2135 C 0.98356 0.28109 0.37269 0.0
C2136 C 0.94171 0.24591 0.37478 0.0
C2137 C 0.93636 0.25976 0.39167 0.0
H2138 H 0.96852 0.24463 0.35354 0.0
H2139 H 0.92821 0.22653 0.3695 0.0
S2140 S 0.97831 0.32582 0.41501 0.0
N2141 N 0.99452 0.3197 0.39627 0.0
N2142 N 0.9512 0.29986 0.41419 0.0
C2143 C 0.95435 0.2849 0.39785 0.0
C2144 C 0.9779 0.29562 0.38821 0.0
C2145 C 0.06484 0.41065 0.34926 0.0
C2146 C 0.05295 0.39669 0.36929 0.0
C2147 C 0.05948 0.42775 0.3403 0.0
C2148 C 0.04195 0.43153 0.35094 0.0
H2149 H 0.07778 0.40776 0.33975 0.0
H2150 H 0.06827 0.43722 0.3241 0.0
S2151 S 0.0075 0.4018 0.40542 0.0
N2152 N 0.02422 0.38938 0.40084 0.0
N2153 N 0.0142 0.42158 0.38383 0.0
C2154 C 0.03082 0.41869 0.37176 0.0
C2155 C 0.03637 0.40133 0.38104 0.0
C2156 C 0.56781 0.61774 0.33533 0.0
C2157 C 0.5937 0.63346 0.33678 0.0
C2158 C 0.55591 0.59335 0.32454 0.0
C2159 C 0.56936 0.58367 0.3146 0.0
H2160 H 0.55652 0.62442 0.34222 0.0
H2161 H 0.53592 0.58205 0.32363 0.0
S2162 S 0.63749 0.61671 0.31424 0.0
N2163 N 0.6325 0.6372 0.32804 0.0
N2164 N 0.60995 0.59134 0.3074 0.0
C2165 C 0.59528 0.59882 0.31661 0.0
C2166 C 0.60748 0.62372 0.32776 0.0
C2167 C 0.36317 0.92594 0.36989 0.0
C2168 C 0.3536 0.94084 0.37572 0.0
C2169 C 0.38492 0.93507 0.35804 0.0
C2170 C 0.39797 0.95946 0.35145 0.0
H2171 H 0.35339 0.90677 0.37378 0.0
H2172 H 0.3912 0.9227 0.35331 0.0
S2173 S 0.3817 0.00658 0.36375 0.0
N2174 N 0.35975 0.98175 0.37526 0.0
N2175 N 0.40048 0.99874 0.35259 0.0
C2176 C 0.38936 0.97496 0.35824 0.0
C2177 C 0.36721 0.9657 0.37047 0.0
C2178 C 0.61852 0.98674 0.36781 0.0
C2179 C 0.62436 0.96915 0.36014 0.0
C2180 C 0.60183 0.99008 0.35267 0.0
C2181 C 0.5903 0.97599 0.3292 0.0
H2182 H 0.62694 0.99815 0.38566 0.0
H2183 H 0.59772 0.00365 0.35953 0.0
S2184 S 0.59978 0.92817 0.29968 0.0
N2185 N 0.61744 0.93772 0.32703 0.0
N2186 N 0.58633 0.94428 0.29858 0.0
C2187 C 0.59593 0.95836 0.32121 0.0
C2188 C 0.61288 0.95488 0.33665 0.0
C2189 C 0.06075 0.65571 0.3208 0.0
C2190 C 0.04334 0.66294 0.31945 0.0
C2191 C 0.05438 0.6321 0.31111 0.0
C2192 C 0.03038 0.61479 0.29964 0.0
H2193 H 0.07941 0.66825 0.32968 0.0
H2194 H 0.06828 0.62722 0.31301 0.0
S2195 S 0.97834 0.62485 0.28964 0.0
N2196 N 0.00119 0.651 0.30469 0.0
N2197 N 0.98947 0.60679 0.28627 0.0
C2198 C 0.01289 0.62184 0.29775 0.0
C2199 C 0.01931 0.64586 0.30767 0.0
C2200 C 0.36836 0.41373 0.3698 0.0
C2201 C 0.35278 0.38851 0.37288 0.0
C2202 C 0.38931 0.42218 0.35674 0.0
C2203 C 0.39562 0.40582 0.34631 0.0
H2204 H 0.36367 0.42696 0.37629 0.0
H2205 H 0.40008 0.44158 0.35378 0.0
S2206 S 0.36344 0.33869 0.35236 0.0
N2207 N 0.3471 0.34772 0.36716 0.0
N2208 N 0.38634 0.36375 0.34215 0.0
C2209 C 0.3815 0.38094 0.35098 0.0
C2210 C 0.36011 0.37226 0.36438 0.0
C2211 C 0.27876 0.26433 0.40608 0.0
C2212 C 0.28672 0.27419 0.3829 0.0
C2213 C 0.28458 0.24787 0.41591 0.0
C2214 C 0.29848 0.24038 0.40294 0.0
H2215 H 0.2686 0.26995 0.41729 0.0
H2216 H 0.27882 0.24162 0.43431 0.0
S2217 S 0.3217 0.25865 0.34031 0.0
N2218 N 0.30793 0.27389 0.34636 0.0
N2219 N 0.31849 0.24254 0.36479 0.0
C2220 C 0.30575 0.24925 0.37927 0.0
C2221 C 0.29988 0.26616 0.36922 0.0
C2222 C 0.7485 0.03113 0.44339 0.0
C2223 C 0.73626 0.02365 0.41867 0.0
C2224 C 0.76014 0.0557 0.45363 0.0
C2225 C 0.76057 0.07389 0.43931 0.0
H2226 H 0.7489 0.01783 0.45501 0.0
H2227 H 0.76907 0.06048 0.47291 0.0
S2228 S 0.73198 0.06358 0.37292 0.0
N2229 N 0.72497 0.03592 0.38001 0.0
N2230 N 0.7482 0.08253 0.39854 0.0
C2231 C 0.74831 0.06653 0.41444 0.0
C2232 C 0.73587 0.04131 0.40428 0.0
C2233 C 0.96021 0.69672 0.371 0.0
C2234 C 0.97183 0.72043 0.36242 0.0
C2235 C 0.93827 0.68724 0.3827 0.0
C2236 C 0.92718 0.70109 0.3861 0.0
H2237 H 0.96895 0.68607 0.3703 0.0
H2238 H 0.93089 0.66969 0.39061 0.0
S2239 S 0.94707 0.7616 0.36213 0.0
N2240 N 0.96837 0.75577 0.35464 0.0
N2241 N 0.92704 0.73775 0.37643 0.0
C2242 C 0.93728 0.72371 0.3755 0.0
C2243 C 0.95961 0.73342 0.36367 0.0
C2244 C 0.39293 0.03711 0.74227 0.0
C2245 C 0.38428 0.02534 0.71735 0.0
C2246 C 0.40871 0.0332 0.75821 0.0
C2247 C 0.41642 0.01731 0.74995 0.0
H2248 H 0.38715 0.04915 0.74977 0.0
H2249 H 0.4147 0.04246 0.7773 0.0
S2250 S 0.40115 0.98376 0.68589 0.0
N2251 N 0.38591 0.99815 0.68479 0.0
N2252 N 0.41577 0.99107 0.7148 0.0
C2253 C 0.40846 0.00586 0.72497 0.0
C2254 C 0.39238 0.00983 0.70867 0.0
C2255 C 0.96357 0.36002 0.72819 0.0
C2256 C 0.96804 0.34445 0.74241 0.0
C2257 C 0.9687 0.38281 0.73912 0.0
C2258 C 0.97889 0.3911 0.76454 0.0
H2259 H 0.95557 0.35438 0.70857 0.0
H2260 H 0.96462 0.39406 0.72762 0.0
S2261 S 0.9949 0.35801 0.80984 0.0
N2262 N 0.98375 0.33932 0.7833 0.0
N2263 N 0.9937 0.38244 0.8036 0.0
C2264 C 0.98397 0.37608 0.77887 0.0
C2265 C 0.97842 0.35267 0.76788 0.0
C2266 C 0.65296 0.59588 0.73163 0.0
C2267 C 0.66172 0.61581 0.7167 0.0
C2268 C 0.62962 0.58533 0.74032 0.0
C2269 C 0.61371 0.59382 0.73399 0.0
H2270 H 0.66457 0.58889 0.73745 0.0
H2271 H 0.62432 0.57074 0.75271 0.0
S2272 S 0.62732 0.64453 0.69366 0.0
N2273 N 0.65263 0.64336 0.69522 0.0
N2274 N 0.60805 0.62263 0.71051 0.0
C2275 C 0.62201 0.61338 0.71845 0.0
C2276 C 0.64612 0.62452 0.71002 0.0
C2277 C 0.72496 0.74461 0.6881 0.0
C2278 C 0.71307 0.72882 0.70694 0.0
C2279 C 0.7173 0.76009 0.67927 0.0
C2280 C 0.69741 0.76043 0.68886 0.0
H2281 H 0.73988 0.74453 0.67949 0.0
H2282 H 0.72642 0.77116 0.66403 0.0
S2283 S 0.66131 0.72442 0.73984 0.0
N2284 N 0.68123 0.71572 0.73604 0.0
N2285 N 0.66705 0.74503 0.71941 0.0
C2286 C 0.68596 0.74554 0.70838 0.0
C2287 C 0.69378 0.72976 0.71748 0.0
C2288 C 0.24475 0.95163 0.67719 0.0
C2289 C 0.26956 0.96726 0.67274 0.0
C2290 C 0.23163 0.92658 0.66847 0.0
C2291 C 0.24267 0.91623 0.65457 0.0
H2292 H 0.23524 0.95889 0.68716 0.0
H2293 H 0.21244 0.91532 0.67212 0.0
S2294 S 0.30737 0.94925 0.6381 0.0
N2295 N 0.305 0.97054 0.65425 0.0
N2296 N 0.28006 0.92349 0.63719 0.0
C2297 C 0.26772 0.93147 0.65066 0.0
C2298 C 0.28122 0.95699 0.65987 0.0
C2299 C 0.03122 0.29195 0.71061 0.0
C2300 C 0.011 0.26914 0.69952 0.0
C2301 C 0.05475 0.30209 0.70206 0.0
C2302 C 0.05888 0.28982 0.68207 0.0
H2303 H 0.02885 0.30212 0.72595 0.0
H2304 H 0.0698 0.31966 0.71112 0.0
S2305 S 0.0118 0.23069 0.64516 0.0
N2306 N 0.99661 0.23514 0.66672 0.0
N2307 N 0.04053 0.25444 0.65041 0.0
C2308 C 0.0388 0.26715 0.67067 0.0
C2309 C 0.01495 0.25675 0.67946 0.0
C2310 C 0.30267 0.32743 0.66417 0.0
C2311 C 0.29555 0.30712 0.67848 0.0
C2312 C 0.28517 0.33196 0.65277 0.0
C2313 C 0.25984 0.31617 0.65492 0.0
H2314 H 0.32198 0.3401 0.6618 0.0
H2315 H 0.29147 0.34778 0.64193 0.0
S2316 S 0.23127 0.26091 0.69069 0.0
N2317 N 0.26119 0.27137 0.69452 0.0
N2318 N 0.22834 0.2799 0.67286 0.0
C2319 C 0.25236 0.29589 0.6692 0.0
C2320 C 0.2702 0.29138 0.68105 0.0
C2321 C 0.69685 0.98309 0.64247 0.0
C2322 C 0.69434 0.98681 0.66827 0.0
C2323 C 0.69015 0.9598 0.63136 0.0
C2324 C 0.68061 0.9393 0.64556 0.0
H2325 H 0.70394 0.99825 0.63064 0.0
H2326 H 0.69231 0.95779 0.61143 0.0
S2327 S 0.67174 0.93918 0.71409 0.0
N2328 N 0.68235 0.96792 0.70791 0.0
N2329 N 0.67008 0.92428 0.68698 0.0
C2330 C 0.6782 0.94271 0.67139 0.0
C2331 C 0.68499 0.96642 0.68275 0.0
C2332 C 0.0238 0.7071 0.69694 0.0
C2333 C 0.01903 0.72424 0.70875 0.0
C2334 C 0.04541 0.71495 0.68502 0.0
C2335 C 0.06294 0.74015 0.6846 0.0
H2336 H 0.01011 0.68752 0.69548 0.0
H2337 H 0.04763 0.70131 0.67467 0.0
S2338 S 0.0619 0.79227 0.71677 0.0
N2339 N 0.03566 0.76752 0.72234 0.0
N2340 N 0.07612 0.78206 0.69979 0.0
C2341 C 0.05953 0.75735 0.69816 0.0
C2342 C 0.03761 0.74944 0.71031 0.0
C2343 C 0.94252 0.60121 0.73923 0.0
C2344 C 0.94857 0.60947 0.71505 0.0
C2345 C 0.9473 0.58382 0.74844 0.0
C2346 C 0.95814 0.57375 0.73382 0.0
H2347 H 0.9349 0.60891 0.75167 0.0
H2348 H 0.94331 0.57894 0.76761 0.0
S2349 S 0.97467 0.58671 0.66809 0.0
N2350 N 0.9642 0.60468 0.67582 0.0
N2351 N 0.97272 0.57155 0.69308 0.0
C2352 C 0.96322 0.5809 0.70916 0.0
C2353 C 0.95849 0.5988 0.69978 0.0
C2354 C 0.39947 0.37733 0.73812 0.0
C2355 C 0.39841 0.35954 0.75343 0.0
C2356 C 0.41216 0.40232 0.74749 0.0
C2357 C 0.42372 0.41013 0.77259 0.0
H2358 H 0.39129 0.37204 0.71855 0.0
H2359 H 0.41373 0.41567 0.73469 0.0
S2360 S 0.42199 0.36965 0.82143 0.0
N2361 N 0.40749 0.35073 0.79537 0.0
N2362 N 0.43018 0.39738 0.81347 0.0
C2363 C 0.4212 0.3921 0.7885 0.0
C2364 C 0.40884 0.36686 0.77878 0.0
C2365 C 0.63775 0.06907 0.70293 0.0
C2366 C 0.64909 0.05534 0.70004 0.0
C2367 C 0.616 0.05991 0.71478 0.0
C2368 C 0.60471 0.03668 0.72427 0.0
H2369 H 0.64635 0.08755 0.69705 0.0
H2370 H 0.60851 0.07155 0.71748 0.0
S2371 S 0.62544 0.99233 0.71945 0.0
N2372 N 0.64605 0.0163 0.70572 0.0
N2373 N 0.60535 0.99933 0.72842 0.0
C2374 C 0.61483 0.02203 0.72003 0.0
C2375 C 0.63697 0.0313 0.70779 0.0
loop_
_geom_bond_atom_site_label_1
_geom_bond_atom_site_label_2
_geom_bond_distance
_geom_bond_site_symmetry_2
_ccdc_geom_bond_type
Zn0 O3 2.031 1_554 S
Zn0 O5 2.049 . S
Zn0 O10 2.067 . S
Zn1 O2 1.962 1_455 S
Zn1 O4 1.986 . S
Zn1 O6 1.996 1_455 S
Zn1 O9 1.943 . S
O2 Zn1 1.962 1_655 S
O2 C7 1.254 . S
O3 Zn0 2.031 1_556 S
O3 C7 1.269 1_556 S
O4 Zn1 1.986 . S
O4 C11 1.262 . S
O5 Zn0 2.049 . S
O5 C13 1.260 . S
O6 Zn1 1.996 1_655 S
O6 C13 1.257 . S
C7 O2 1.254 . S
C7 O3 1.269 1_554 S
C8 O9 1.249 1_556 S
C8 O10 1.270 1_456 S
O9 Zn1 1.943 . S
O9 C8 1.249 1_554 S
O10 Zn0 2.067 . S
O10 C8 1.270 1_654 S
C11 O4 1.262 . S
C11 O12 1.232 . S
O12 C11 1.232 . S
C13 O5 1.260 . S
C13 O6 1.257 . S
Zn14 O17 2.031 . S
Zn14 O19 2.049 . S
Zn14 O24 2.067 . S
Zn15 O16 1.962 . S
Zn15 O18 1.986 . S
Zn15 O20 1.996 . S
Zn15 O23 1.943 . S
O16 Zn15 1.962 . S
O16 C21 1.254 . S
O17 Zn14 2.031 . S
O17 C21 1.269 . S
O18 Zn15 1.986 . S
O18 C25 1.262 . S
O19 Zn14 2.049 . S
O19 C27 1.260 . S
O20 Zn15 1.996 . S
O20 C27 1.257 . S
C21 O16 1.254 . S
C21 O17 1.269 . S
C22 O23 1.249 . S
C22 O24 1.270 . S
O23 Zn15 1.943 . S
O23 C22 1.249 . S
O24 Zn14 2.067 . S
O24 C22 1.270 . S
C25 O18 1.262 . S
C25 O26 1.232 . S
O26 C25 1.232 . S
C27 O19 1.260 . S
C27 O20 1.257 . S
Zn28 O31 2.031 . S
Zn28 O33 2.049 . S
Zn28 O38 2.067 . S
Zn29 O30 1.962 1_545 S
Zn29 O32 1.986 1_554 S
Zn29 O34 1.996 1_545 S
Zn29 O37 1.943 . S
O30 Zn29 1.962 1_565 S
O30 C35 1.254 . S
O31 Zn28 2.031 . S
O31 C35 1.269 . S
O32 Zn29 1.986 1_556 S
O32 C39 1.262 1_556 S
O33 Zn28 2.049 . S
O33 C41 1.260 1_554 S
O34 Zn29 1.996 1_565 S
O34 C41 1.257 1_554 S
C35 O30 1.254 . S
C35 O31 1.269 . S
C36 O37 1.249 . S
C36 O38 1.270 1_545 S
O37 Zn29 1.943 . S
O37 C36 1.249 . S
O38 Zn28 2.067 . S
O38 C36 1.270 1_565 S
C39 O32 1.262 1_554 S
C39 O40 1.232 . S
O40 C39 1.232 . S
C41 O33 1.260 1_556 S
C41 O34 1.257 1_556 S
Zn42 O45 2.031 . S
Zn42 O47 2.049 . S
Zn42 O52 2.067 . S
Zn43 O44 1.962 1_655 S
Zn43 O46 1.986 . S
Zn43 O48 1.996 1_655 S
Zn43 O51 1.943 . S
O44 Zn43 1.962 1_455 S
O44 C49 1.254 . S
O45 Zn42 2.031 . S
O45 C49 1.269 . S
O46 Zn43 1.986 . S
O46 C53 1.262 . S
O47 Zn42 2.049 . S
O47 C55 1.260 . S
O48 Zn43 1.996 1_455 S
O48 C55 1.257 . S
C49 O44 1.254 . S
C49 O45 1.269 . S
C50 O51 1.249 . S
C50 O52 1.270 1_655 S
O51 Zn43 1.943 . S
O51 C50 1.249 . S
O52 Zn42 2.067 . S
O52 C50 1.270 1_455 S
C53 O46 1.262 . S
C53 O54 1.232 . S
O54 C53 1.232 . S
C55 O47 1.260 . S
C55 O48 1.257 . S
Zn56 O59 2.031 . S
Zn56 O61 2.049 1_554 S
Zn56 O66 2.067 . S
Zn57 O58 1.962 . S
Zn57 O60 1.986 1_554 S
Zn57 O62 1.996 1_554 S
Zn57 O65 1.943 . S
O58 Zn57 1.962 . S
O58 C63 1.254 . S
O59 Zn56 2.031 . S
O59 C63 1.269 . S
O60 Zn57 1.986 1_556 S
O60 C67 1.262 . S
O61 Zn56 2.049 1_556 S
O61 C69 1.260 . S
O62 Zn57 1.996 1_556 S
O62 C69 1.257 . S
C63 O58 1.254 . S
C63 O59 1.269 . S
C64 O65 1.249 . S
C64 O66 1.270 . S
O65 Zn57 1.943 . S
O65 C64 1.249 . S
O66 Zn56 2.067 . S
O66 C64 1.270 . S
C67 O60 1.262 . S
C67 O68 1.232 1_556 S
O68 C67 1.232 1_554 S
C69 O61 1.260 . S
C69 O62 1.257 . S
Zn70 O73 2.031 . S
Zn70 O75 2.049 . S
Zn70 O80 2.067 . S
Zn71 O72 1.962 1_565 S
Zn71 O74 1.986 . S
Zn71 O76 1.996 1_565 S
Zn71 O79 1.943 . S
O72 Zn71 1.962 1_545 S
O72 C77 1.254 . S
O73 Zn70 2.031 . S
O73 C77 1.269 . S
O74 Zn71 1.986 . S
O74 C81 1.262 . S
O75 Zn70 2.049 . S
O75 C83 1.260 . S
O76 Zn71 1.996 1_545 S
O76 C83 1.257 . S
C77 O72 1.254 . S
C77 O73 1.269 . S
C78 O79 1.249 . S
C78 O80 1.270 1_565 S
O79 Zn71 1.943 . S
O79 C78 1.249 . S
O80 Zn70 2.067 . S
O80 C78 1.270 1_545 S
C81 O74 1.262 . S
C81 O82 1.232 . S
O82 C81 1.232 . S
C83 O75 1.260 . S
C83 O76 1.257 . S
Zn84 O87 2.031 . S
Zn84 O89 2.049 . S
Zn84 O94 2.067 . S
Zn85 O86 1.962 . S
Zn85 O88 1.986 . S
Zn85 O90 1.996 . S
Zn85 O93 1.943 . S
O86 Zn85 1.962 . S
O86 C91 1.254 . S
O87 Zn84 2.031 . S
O87 C91 1.269 . S
O88 Zn85 1.986 . S
O88 C95 1.262 . S
O89 Zn84 2.049 . S
O89 C97 1.260 . S
O90 Zn85 1.996 . S
O90 C97 1.257 . S
C91 O86 1.254 . S
C91 O87 1.269 . S
C92 O93 1.249 . S
C92 O94 1.270 . S
O93 Zn85 1.943 . S
O93 C92 1.249 . S
O94 Zn84 2.067 . S
O94 C92 1.270 . S
C95 O88 1.262 . S
C95 O96 1.232 . S
O96 C95 1.232 . S
C97 O89 1.260 . S
C97 O90 1.257 . S
Zn98 O101 2.031 . S
Zn98 O103 2.049 . S
Zn98 O108 2.067 . S
Zn99 O100 1.962 . S
Zn99 O102 1.986 . S
Zn99 O104 1.996 . S
Zn99 O107 1.943 . S
O100 Zn99 1.962 . S
O100 C105 1.254 . S
O101 Zn98 2.031 . S
O101 C105 1.269 . S
O102 Zn99 1.986 . S
O102 C109 1.262 1_565 S
O103 Zn98 2.049 . S
O103 C111 1.260 . S
O104 Zn99 1.996 . S
O104 C111 1.257 . S
C105 O100 1.254 . S
C105 O101 1.269 . S
C106 O107 1.249 . S
C106 O108 1.270 . S
O107 Zn99 1.943 . S
O107 C106 1.249 . S
O108 Zn98 2.067 . S
O108 C106 1.270 . S
C109 O102 1.262 1_545 S
C109 O110 1.232 . S
O110 C109 1.232 . S
C111 O103 1.260 . S
C111 O104 1.257 . S
Zn112 O115 2.031 . S
Zn112 O117 2.049 . S
Zn112 O122 2.067 . S
Zn113 O114 1.962 . S
Zn113 O116 1.986 . S
Zn113 O118 1.996 . S
Zn113 O121 1.943 . S
O114 Zn113 1.962 . S
O114 C119 1.254 . S
O115 Zn112 2.031 . S
O115 C119 1.269 . S
O116 Zn113 1.986 . S
O116 C123 1.262 . S
O117 Zn112 2.049 . S
O117 C125 1.260 . S
O118 Zn113 1.996 . S
O118 C125 1.257 . S
C119 O114 1.254 . S
C119 O115 1.269 . S
C120 O121 1.249 . S
C120 O122 1.270 . S
O121 Zn113 1.943 . S
O121 C120 1.249 . S
O122 Zn112 2.067 . S
O122 C120 1.270 . S
C123 O116 1.262 . S
C123 O124 1.232 . S
O124 C123 1.232 . S
C125 O117 1.260 . S
C125 O118 1.257 . S
Zn126 O129 2.031 . S
Zn126 O131 2.049 . S
Zn126 O136 2.067 . S
Zn127 O128 1.961 1_565 S
Zn127 O130 1.986 . S
Zn127 O132 1.996 . S
Zn127 O135 1.943 . S
O128 Zn127 1.961 1_545 S
O128 C133 1.254 . S
O129 Zn126 2.031 . S
O129 C133 1.269 1_565 S
O130 Zn127 1.986 . S
O130 C137 1.262 . S
O131 Zn126 2.049 . S
O131 C139 1.260 . S
O132 Zn127 1.996 . S
O132 C139 1.257 . S
C133 O128 1.254 . S
C133 O129 1.269 1_545 S
C134 O135 1.249 . S
C134 O136 1.270 . S
O135 Zn127 1.943 . S
O135 C134 1.249 . S
O136 Zn126 2.067 . S
O136 C134 1.270 . S
C137 O130 1.262 . S
C137 O138 1.232 . S
O138 C137 1.232 . S
C139 O131 1.260 . S
C139 O132 1.257 . S
Zn140 O143 2.031 . S
Zn140 O145 2.049 . S
Zn140 O150 2.067 . S
Zn141 O142 1.962 . S
Zn141 O144 1.986 . S
Zn141 O146 1.996 . S
Zn141 O149 1.943 . S
O142 Zn141 1.962 . S
O142 C147 1.254 . S
O143 Zn140 2.031 . S
O143 C147 1.269 . S
O144 Zn141 1.986 . S
O144 C151 1.262 . S
O145 Zn140 2.049 . S
O145 C153 1.260 . S
O146 Zn141 1.996 . S
O146 C153 1.257 . S
C147 O142 1.254 . S
C147 O143 1.269 . S
C148 O149 1.249 . S
C148 O150 1.270 . S
O149 Zn141 1.943 . S
O149 C148 1.249 . S
O150 Zn140 2.067 . S
O150 C148 1.270 . S
C151 O144 1.262 . S
C151 O152 1.232 . S
O152 C151 1.232 . S
C153 O145 1.260 . S
C153 O146 1.257 . S
Zn154 O157 2.031 . S
Zn154 O159 2.049 . S
Zn154 O164 2.067 . S
Zn155 O156 1.962 . S
Zn155 O158 1.986 . S
Zn155 O160 1.996 . S
Zn155 O163 1.943 . S
O156 Zn155 1.962 . S
O156 C161 1.254 . S
O157 Zn154 2.031 . S
O157 C161 1.269 . S
O158 Zn155 1.986 . S
O158 C165 1.262 . S
O159 Zn154 2.049 . S
O159 C167 1.260 . S
O160 Zn155 1.996 . S
O160 C167 1.257 . S
C161 O156 1.254 . S
C161 O157 1.269 . S
C162 O163 1.249 . S
C162 O164 1.270 . S
O163 Zn155 1.943 . S
O163 C162 1.249 . S
O164 Zn154 2.067 . S
O164 C162 1.270 . S
C165 O158 1.262 . S
C165 O166 1.232 . S
O166 C165 1.232 . S
C167 O159 1.260 . S
C167 O160 1.257 . S
Zn168 O171 2.031 . S
Zn168 O173 2.049 . S
Zn168 O178 2.067 . S
Zn169 O170 1.962 . S
Zn169 O172 1.986 . S
Zn169 O174 1.996 . S
Zn169 O177 1.943 . S
O170 Zn169 1.962 . S
O170 C175 1.257 1_545 S
O171 Zn168 2.031 . S
O171 C175 1.262 1_545 S
O172 Zn169 1.986 . S
O172 C179 1.262 . S
O173 Zn168 2.049 . S
O173 C181 1.260 . S
O174 Zn169 1.996 . S
O174 C181 1.257 . S
C175 O170 1.257 1_565 S
C175 O171 1.262 1_565 S
C176 O177 1.249 . S
C176 O178 1.270 . S
O177 Zn169 1.943 . S
O177 C176 1.249 . S
O178 Zn168 2.067 . S
O178 C176 1.270 . S
C179 O172 1.262 . S
C179 O180 1.232 . S
O180 C179 1.232 . S
C181 O173 1.260 . S
C181 O174 1.257 . S
Zn182 O185 2.031 . S
Zn182 O187 2.049 . S
Zn182 O192 2.067 . S
Zn183 O184 1.975 . S
Zn183 O186 1.986 . S
Zn183 O188 1.996 . S
Zn183 O191 1.943 . S
O184 Zn183 1.975 . S
O184 C189 1.243 1_655 S
O185 Zn182 2.031 . S
O185 C189 1.265 1_655 S
O186 Zn183 1.986 . S
O186 C193 1.262 . S
O187 Zn182 2.049 . S
O187 C195 1.260 . S
O188 Zn183 1.996 . S
O188 C195 1.257 . S
C189 O184 1.243 1_455 S
C189 O185 1.265 1_455 S
C190 O191 1.249 . S
C190 O192 1.270 . S
O191 Zn183 1.943 . S
O191 C190 1.249 . S
O192 Zn182 2.067 . S
O192 C190 1.270 . S
C193 O186 1.262 . S
C193 O194 1.232 . S
O194 C193 1.232 . S
C195 O187 1.260 . S
C195 O188 1.257 . S
Zn196 O199 2.031 . S
Zn196 O201 2.049 . S
Zn196 O206 2.067 . S
Zn197 O198 1.962 . S
Zn197 O200 1.986 . S
Zn197 O202 1.996 . S
Zn197 O205 1.943 . S
O198 Zn197 1.962 . S
O198 C203 1.254 . S
O199 Zn196 2.031 . S
O199 C203 1.269 . S
O200 Zn197 1.986 . S
O200 C207 1.262 . S
O201 Zn196 2.049 . S
O201 C209 1.260 . S
O202 Zn197 1.996 . S
O202 C209 1.257 . S
C203 O198 1.254 . S
C203 O199 1.269 . S
C204 O205 1.249 . S
C204 O206 1.270 . S
O205 Zn197 1.943 . S
O205 C204 1.249 . S
O206 Zn196 2.067 . S
O206 C204 1.270 . S
C207 O200 1.262 . S
C207 O208 1.232 . S
O208 C207 1.232 . S
C209 O201 1.260 . S
C209 O202 1.257 . S
Zn210 O213 2.031 . S
Zn210 O215 2.049 . S
Zn210 O220 2.067 . S
Zn211 O212 1.962 . S
Zn211 O214 1.986 . S
Zn211 O216 1.996 . S
Zn211 O219 1.943 . S
O212 Zn211 1.962 . S
O212 C217 1.254 . S
O213 Zn210 2.031 . S
O213 C217 1.269 . S
O214 Zn211 1.986 . S
O214 C221 1.262 . S
O215 Zn210 2.049 . S
O215 C223 1.260 . S
O216 Zn211 1.996 . S
O216 C223 1.257 . S
C217 O212 1.254 . S
C217 O213 1.269 . S
C218 O219 1.249 . S
C218 O220 1.270 . S
O219 Zn211 1.943 . S
O219 C218 1.249 . S
O220 Zn210 2.067 . S
O220 C218 1.270 . S
C221 O214 1.262 . S
C221 O222 1.232 . S
O222 C221 1.232 . S
C223 O215 1.260 . S
C223 O216 1.257 . S
Zn224 O227 2.031 . S
Zn224 O229 2.049 . S
Zn224 O234 2.067 . S
Zn225 O226 1.962 . S
Zn225 O228 1.986 . S
Zn225 O230 1.996 . S
Zn225 O233 1.943 . S
O226 Zn225 1.962 . S
O226 C231 1.254 . S
O227 Zn224 2.031 . S
O227 C231 1.269 . S
O228 Zn225 1.986 . S
O228 C235 1.262 1_545 S
O229 Zn224 2.049 . S
O229 C237 1.260 . S
O230 Zn225 1.996 . S
O230 C237 1.257 . S
C231 O226 1.254 . S
C231 O227 1.269 . S
C232 O233 1.249 . S
C232 O234 1.270 . S
O233 Zn225 1.943 . S
O233 C232 1.249 . S
O234 Zn224 2.067 . S
O234 C232 1.270 . S
C235 O228 1.262 1_565 S
C235 O236 1.232 . S
O236 C235 1.232 . S
C237 O229 1.260 . S
C237 O230 1.257 . S
Zn238 O241 2.031 . S
Zn238 O243 2.049 . S
Zn238 O248 2.067 . S
Zn239 O240 1.962 . S
Zn239 O242 1.986 . S
Zn239 O244 1.996 . S
Zn239 O247 1.943 . S
O240 Zn239 1.962 . S
O240 C245 1.254 . S
O241 Zn238 2.031 . S
O241 C245 1.269 . S
O242 Zn239 1.986 . S
O242 C249 1.262 . S
O243 Zn238 2.049 . S
O243 C251 1.260 . S
O244 Zn239 1.996 . S
O244 C251 1.257 . S
C245 O240 1.254 . S
C245 O241 1.269 . S
C246 O247 1.249 . S
C246 O248 1.270 . S
O247 Zn239 1.943 . S
O247 C246 1.249 . S
O248 Zn238 2.067 . S
O248 C246 1.270 . S
C249 O242 1.262 . S
C249 O250 1.232 . S
O250 C249 1.232 . S
C251 O243 1.260 . S
C251 O244 1.257 . S
H252 O278 0.856 1_556 S
H253 O281 0.854 . S
H254 C289 0.930 . S
H255 C290 0.930 . S
H256 C292 0.930 . S
H257 C293 0.930 . S
H258 C295 0.931 . S
H259 C296 0.930 . S
H260 C298 0.930 . S
H261 C299 0.929 . S
H262 C301 0.930 . S
H263 C302 0.931 . S
H264 C304 0.930 . S
H265 C305 0.929 . S
H266 C307 0.931 . S
H267 C308 0.930 . S
H268 C310 0.930 . S
H269 C311 0.932 . S
H270 C313 0.930 . S
H271 C314 0.929 . S
H272 C316 0.931 . S
H273 C317 0.930 . S
H274 C319 0.929 . S
H275 C320 0.931 . S
H276 C322 0.930 . S
H277 C323 0.929 . S
O278 H252 0.856 1_554 S
O278 C324 1.300 . S
O279 C324 1.209 . S
O280 C325 1.199 . S
O281 H253 0.854 . S
O281 C325 1.297 . S
C282 C283 1.404 . S
C282 C287 1.397 . S
C282 C288 1.492 . S
C283 C282 1.404 . S
C283 C284 1.396 . S
C283 C294 1.492 . S
C284 C283 1.396 . S
C284 C285 1.397 . S
C284 C300 1.509 . S
C285 C284 1.397 . S
C285 C286 1.412 . S
C285 C306 1.485 . S
C286 C285 1.412 . S
C286 C287 1.388 . S
C286 C312 1.490 . S
C287 C282 1.397 . S
C287 C286 1.388 . S
C287 C318 1.519 . S
C288 C282 1.492 . S
C288 C289 1.363 . S
C288 C293 1.390 . S
C289 H254 0.930 . S
C289 C288 1.363 . S
C289 C290 1.372 . S
C290 H255 0.930 . S
C290 C289 1.372 . S
C290 C291 1.383 . S
C291 C290 1.383 . S
C291 C292 1.395 . S
C292 H256 0.930 . S
C292 C291 1.395 . S
C292 C293 1.362 . S
C293 H257 0.930 . S
C293 C288 1.390 . S
C293 C292 1.362 . S
C294 C283 1.492 . S
C294 C295 1.377 . S
C294 C299 1.397 . S
C295 H258 0.931 . S
C295 C294 1.377 . S
C295 C296 1.376 . S
C296 H259 0.930 . S
C296 C295 1.376 . S
C296 C297 1.376 . S
C297 C296 1.376 . S
C297 C298 1.378 . S
C297 C324 1.486 . S
C298 H260 0.930 . S
C298 C297 1.378 . S
C298 C299 1.376 . S
C299 H261 0.929 . S
C299 C294 1.397 . S
C299 C298 1.376 . S
C300 C284 1.509 . S
C300 C301 1.391 . S
C300 C305 1.386 . S
C301 H262 0.930 . S
C301 C300 1.391 . S
C301 C302 1.375 . S
C302 H263 0.931 . S
C302 C301 1.375 . S
C302 C303 1.375 . S
C303 C302 1.375 . S
C303 C304 1.361 . S
C304 H264 0.930 . S
C304 C303 1.361 . S
C304 C305 1.399 . S
C305 H265 0.929 . S
C305 C300 1.386 . S
C305 C304 1.399 . S
C306 C285 1.485 . S
C306 C307 1.394 . S
C306 C311 1.360 . S
C307 H266 0.931 . S
C307 C306 1.394 . S
C307 C308 1.372 . S
C308 H267 0.930 . S
C308 C307 1.372 . S
C308 C309 1.397 . S
C309 C308 1.397 . S
C309 C310 1.390 . S
C309 C325 1.476 . S
C310 H268 0.930 . S
C310 C309 1.390 . S
C310 C311 1.366 . S
C311 H269 0.932 . S
C311 C306 1.360 . S
C311 C310 1.366 . S
C312 C286 1.490 . S
C312 C313 1.380 . S
C312 C317 1.386 . S
C313 H270 0.930 . S
C313 C312 1.380 . S
C313 C314 1.381 . S
C314 H271 0.929 . S
C314 C313 1.381 . S
C314 C315 1.371 . S
C315 C314 1.371 . S
C315 C316 1.380 . S
C316 H272 0.931 . S
C316 C315 1.380 . S
C316 C317 1.387 . S
C317 H273 0.930 . S
C317 C312 1.386 . S
C317 C316 1.387 . S
C318 C287 1.519 . S
C318 C319 1.377 . S
C318 C323 1.361 . S
C319 H274 0.929 . S
C319 C318 1.377 . S
C319 C320 1.386 . S
C320 H275 0.931 . S
C320 C319 1.386 . S
C320 C321 1.363 . S
C321 C320 1.363 . S
C321 C322 1.385 . S
C322 H276 0.930 . S
C322 C321 1.385 . S
C322 C323 1.396 . S
C323 H277 0.929 . S
C323 C318 1.361 . S
C323 C322 1.396 . S
C324 O278 1.300 . S
C324 O279 1.209 . S
C324 C297 1.486 . S
C325 O280 1.199 . S
C325 O281 1.297 . S
C325 C309 1.476 . S
H326 O352 0.856 . S
H327 O355 0.854 1_545 S
H328 C363 0.930 . S
H329 C364 0.930 . S
H330 C366 0.930 . S
H331 C367 0.930 . S
H332 C369 0.931 . S
H333 C370 0.930 . S
H334 C372 0.930 . S
H335 C373 0.929 . S
H336 C375 0.930 . S
H337 C376 0.931 . S
H338 C378 0.930 . S
H339 C379 0.929 . S
H340 C381 0.931 . S
H341 C382 0.930 . S
H342 C384 0.930 . S
H343 C385 0.932 . S
H344 C387 0.930 . S
H345 C388 0.929 . S
H346 C390 0.931 . S
H347 C391 0.930 . S
H348 C393 0.929 . S
H349 C394 0.931 . S
H350 C396 0.930 . S
H351 C397 0.929 . S
O352 H326 0.856 . S
O352 C398 1.300 . S
O353 C398 1.209 . S
O354 C399 1.199 . S
O355 H327 0.854 1_565 S
O355 C399 1.297 . S
C356 C357 1.404 . S
C356 C361 1.397 . S
C356 C362 1.492 . S
C357 C356 1.404 . S
C357 C358 1.396 . S
C357 C368 1.492 . S
C358 C357 1.396 . S
C358 C359 1.397 . S
C358 C374 1.509 . S
C359 C358 1.397 . S
C359 C360 1.412 . S
C359 C380 1.485 . S
C360 C359 1.412 . S
C360 C361 1.388 . S
C360 C386 1.490 . S
C361 C356 1.397 . S
C361 C360 1.388 . S
C361 C392 1.519 . S
C362 C356 1.492 . S
C362 C363 1.363 . S
C362 C367 1.390 . S
C363 H328 0.930 . S
C363 C362 1.363 . S
C363 C364 1.372 . S
C364 H329 0.930 . S
C364 C363 1.372 . S
C364 C365 1.383 . S
C365 C364 1.383 . S
C365 C366 1.395 . S
C366 H330 0.930 . S
C366 C365 1.395 . S
C366 C367 1.362 . S
C367 H331 0.930 . S
C367 C362 1.390 . S
C367 C366 1.362 . S
C368 C357 1.492 . S
C368 C369 1.377 . S
C368 C373 1.397 . S
C369 H332 0.931 . S
C369 C368 1.377 . S
C369 C370 1.376 . S
C370 H333 0.930 . S
C370 C369 1.376 . S
C370 C371 1.376 . S
C371 C370 1.376 . S
C371 C372 1.378 . S
C371 C398 1.486 . S
C372 H334 0.930 . S
C372 C371 1.378 . S
C372 C373 1.376 . S
C373 H335 0.929 . S
C373 C368 1.397 . S
C373 C372 1.376 . S
C374 C358 1.509 . S
C374 C375 1.391 . S
C374 C379 1.386 . S
C375 H336 0.930 . S
C375 C374 1.391 . S
C375 C376 1.375 . S
C376 H337 0.931 . S
C376 C375 1.375 . S
C376 C377 1.375 . S
C377 C376 1.375 . S
C377 C378 1.361 . S
C378 H338 0.930 . S
C378 C377 1.361 . S
C378 C379 1.399 . S
C379 H339 0.929 . S
C379 C374 1.386 . S
C379 C378 1.399 . S
C380 C359 1.485 . S
C380 C381 1.394 . S
C380 C385 1.360 . S
C381 H340 0.931 . S
C381 C380 1.394 . S
C381 C382 1.372 . S
C382 H341 0.930 . S
C382 C381 1.372 . S
C382 C383 1.397 . S
C383 C382 1.397 . S
C383 C384 1.390 . S
C383 C399 1.476 . S
C384 H342 0.930 . S
C384 C383 1.390 . S
C384 C385 1.366 . S
C385 H343 0.932 . S
C385 C380 1.360 . S
C385 C384 1.366 . S
C386 C360 1.490 . S
C386 C387 1.380 . S
C386 C391 1.386 . S
C387 H344 0.930 . S
C387 C386 1.380 . S
C387 C388 1.381 . S
C388 H345 0.929 . S
C388 C387 1.381 . S
C388 C389 1.371 . S
C389 C388 1.371 . S
C389 C390 1.380 . S
C390 H346 0.931 . S
C390 C389 1.380 . S
C390 C391 1.387 . S
C391 H347 0.930 . S
C391 C386 1.386 . S
C391 C390 1.387 . S
C392 C361 1.519 . S
C392 C393 1.377 . S
C392 C397 1.361 . S
C393 H348 0.929 . S
C393 C392 1.377 . S
C393 C394 1.386 . S
C394 H349 0.931 . S
C394 C393 1.386 . S
C394 C395 1.363 . S
C395 C394 1.363 . S
C395 C396 1.385 . S
C396 H350 0.930 . S
C396 C395 1.385 . S
C396 C397 1.396 . S
C397 H351 0.929 . S
C397 C392 1.361 . S
C397 C396 1.396 . S
C398 O352 1.300 . S
C398 O353 1.209 . S
C398 C371 1.486 . S
C399 O354 1.199 . S
C399 O355 1.297 . S
C399 C383 1.476 . S
H400 O426 0.856 . S
H401 O429 0.854 . S
H402 C437 0.930 . S
H403 C438 0.930 . S
H404 C440 0.930 . S
H405 C441 0.930 . S
H406 C443 0.931 . S
H407 C444 0.930 . S
H408 C446 0.930 . S
H409 C447 0.929 . S
H410 C449 0.930 . S
H411 C450 0.931 . S
H412 C452 0.930 . S
H413 C453 0.929 . S
H414 C455 0.931 . S
H415 C456 0.930 . S
H416 C458 0.930 . S
H417 C459 0.932 . S
H418 C461 0.930 . S
H419 C462 0.929 . S
H420 C464 0.931 . S
H421 C465 0.930 . S
H422 C467 0.929 . S
H423 C468 0.931 . S
H424 C470 0.930 . S
H425 C471 0.929 . S
O426 H400 0.856 . S
O426 C472 1.300 . S
O427 C472 1.209 . S
O428 C473 1.219 . S
O429 H401 0.854 . S
O429 C473 1.297 . S
C430 C431 1.404 . S
C430 C435 1.397 . S
C430 C436 1.492 . S
C431 C430 1.404 . S
C431 C432 1.396 . S
C431 C442 1.492 . S
C432 C431 1.396 . S
C432 C433 1.397 . S
C432 C448 1.509 . S
C433 C432 1.397 . S
C433 C434 1.412 . S
C433 C454 1.485 . S
C434 C433 1.412 . S
C434 C435 1.388 . S
C434 C460 1.490 . S
C435 C430 1.397 . S
C435 C434 1.388 . S
C435 C466 1.519 . S
C436 C430 1.492 . S
C436 C437 1.363 . S
C436 C441 1.390 . S
C437 H402 0.930 . S
C437 C436 1.363 . S
C437 C438 1.372 . S
C438 H403 0.930 . S
C438 C437 1.372 . S
C438 C439 1.383 . S
C439 C438 1.383 . S
C439 C440 1.395 . S
C440 H404 0.930 . S
C440 C439 1.395 . S
C440 C441 1.362 . S
C441 H405 0.930 . S
C441 C436 1.390 . S
C441 C440 1.362 . S
C442 C431 1.492 . S
C442 C443 1.377 . S
C442 C447 1.397 . S
C443 H406 0.931 . S
C443 C442 1.377 . S
C443 C444 1.376 . S
C444 H407 0.930 . S
C444 C443 1.376 . S
C444 C445 1.376 . S
C445 C444 1.376 . S
C445 C446 1.378 . S
C445 C472 1.486 . S
C446 H408 0.930 . S
C446 C445 1.378 . S
C446 C447 1.376 . S
C447 H409 0.929 . S
C447 C442 1.397 . S
C447 C446 1.376 . S
C448 C432 1.509 . S
C448 C449 1.391 . S
C448 C453 1.386 . S
C449 H410 0.930 . S
C449 C448 1.391 . S
C449 C450 1.375 . S
C450 H411 0.931 . S
C450 C449 1.375 . S
C450 C451 1.375 . S
C451 C450 1.375 . S
C451 C452 1.361 . S
C452 H412 0.930 . S
C452 C451 1.361 . S
C452 C453 1.399 . S
C453 H413 0.929 . S
C453 C448 1.386 . S
C453 C452 1.399 . S
C454 C433 1.485 . S
C454 C455 1.394 . S
C454 C459 1.360 . S
C455 H414 0.931 . S
C455 C454 1.394 . S
C455 C456 1.372 . S
C456 H415 0.930 . S
C456 C455 1.372 . S
C456 C457 1.397 . S
C457 C456 1.397 . S
C457 C458 1.390 . S
C457 C473 1.476 . S
C458 H416 0.930 . S
C458 C457 1.390 . S
C458 C459 1.366 . S
C459 H417 0.932 . S
C459 C454 1.360 . S
C459 C458 1.366 . S
C460 C434 1.490 . S
C460 C461 1.380 . S
C460 C465 1.386 . S
C461 H418 0.930 . S
C461 C460 1.380 . S
C461 C462 1.381 . S
C462 H419 0.929 . S
C462 C461 1.381 . S
C462 C463 1.371 . S
C463 C462 1.371 . S
C463 C464 1.380 . S
C464 H420 0.931 . S
C464 C463 1.380 . S
C464 C465 1.387 . S
C465 H421 0.930 . S
C465 C460 1.386 . S
C465 C464 1.387 . S
C466 C435 1.519 . S
C466 C467 1.377 . S
C466 C471 1.361 . S
C467 H422 0.929 . S
C467 C466 1.377 . S
C467 C468 1.386 . S
C468 H423 0.931 . S
C468 C467 1.386 . S
C468 C469 1.363 . S
C469 C468 1.363 . S
C469 C470 1.385 . S
C470 H424 0.930 . S
C470 C469 1.385 . S
C470 C471 1.396 . S
C471 H425 0.929 . S
C471 C466 1.361 . S
C471 C470 1.396 . S
C472 O426 1.300 . S
C472 O427 1.209 . S
C472 C445 1.486 . S
C473 O428 1.219 . S
C473 O429 1.297 . S
C473 C457 1.476 . S
H474 O500 0.856 . S
H475 O503 0.854 . S
H476 C511 0.930 . S
H477 C512 0.930 . S
H478 C514 0.930 . S
H479 C515 0.930 . S
H480 C517 0.931 . S
H481 C518 0.930 1_554 S
H482 C520 0.930 . S
H483 C521 0.929 . S
H484 C523 0.930 . S
H485 C524 0.931 . S
H486 C526 0.930 . S
H487 C527 0.929 . S
H488 C529 0.931 . S
H489 C530 0.930 . S
H490 C532 0.930 . S
H491 C533 0.932 . S
H492 C535 0.930 . S
H493 C536 0.929 . S
H494 C538 0.931 . S
H495 C539 0.930 . S
H496 C541 0.929 . S
H497 C542 0.931 . S
H498 C544 0.930 . S
H499 C545 0.929 . S
O500 H474 0.856 . S
O500 C546 1.300 . S
O501 C546 1.209 . S
O502 C547 1.199 . S
O503 H475 0.854 . S
O503 C547 1.297 . S
C504 C505 1.404 . S
C504 C509 1.397 . S
C504 C510 1.492 . S
C505 C504 1.404 . S
C505 C506 1.396 . S
C505 C516 1.492 . S
C506 C505 1.396 . S
C506 C507 1.397 . S
C506 C522 1.509 . S
C507 C506 1.397 . S
C507 C508 1.412 . S
C507 C528 1.485 . S
C508 C507 1.412 . S
C508 C509 1.388 . S
C508 C534 1.490 . S
C509 C504 1.397 . S
C509 C508 1.388 . S
C509 C540 1.519 . S
C510 C504 1.492 . S
C510 C511 1.363 . S
C510 C515 1.390 . S
C511 H476 0.930 . S
C511 C510 1.363 . S
C511 C512 1.372 . S
C512 H477 0.930 . S
C512 C511 1.372 . S
C512 C513 1.383 . S
C513 C512 1.383 . S
C513 C514 1.395 . S
C514 H478 0.930 . S
C514 C513 1.395 . S
C514 C515 1.362 . S
C515 H479 0.930 . S
C515 C510 1.390 . S
C515 C514 1.362 . S
C516 C505 1.492 . S
C516 C517 1.377 . S
C516 C521 1.397 . S
C517 H480 0.931 . S
C517 C516 1.377 . S
C517 C518 1.376 . S
C518 H481 0.930 1_556 S
C518 C517 1.376 . S
C518 C519 1.376 1_556 S
C519 C518 1.376 1_554 S
C519 C520 1.378 1_554 S
C519 C546 1.486 . S
C520 H482 0.930 . S
C520 C519 1.378 1_556 S
C520 C521 1.376 . S
C521 H483 0.929 . S
C521 C516 1.397 . S
C521 C520 1.376 . S
C522 C506 1.509 . S
C522 C523 1.391 . S
C522 C527 1.386 . S
C523 H484 0.930 . S
C523 C522 1.391 . S
C523 C524 1.375 . S
C524 H485 0.931 . S
C524 C523 1.375 . S
C524 C525 1.375 . S
C525 C524 1.375 . S
C525 C526 1.361 . S
C526 H486 0.930 . S
C526 C525 1.361 . S
C526 C527 1.399 . S
C527 H487 0.929 . S
C527 C522 1.386 . S
C527 C526 1.399 . S
C528 C507 1.485 . S
C528 C529 1.394 . S
C528 C533 1.360 . S
C529 H488 0.931 . S
C529 C528 1.394 . S
C529 C530 1.372 . S
C530 H489 0.930 . S
C530 C529 1.372 . S
C530 C531 1.397 . S
C531 C530 1.397 . S
C531 C532 1.390 . S
C531 C547 1.476 . S
C532 H490 0.930 . S
C532 C531 1.390 . S
C532 C533 1.366 . S
C533 H491 0.932 . S
C533 C528 1.360 . S
C533 C532 1.366 . S
C534 C508 1.490 . S
C534 C535 1.380 . S
C534 C539 1.386 . S
C535 H492 0.930 . S
C535 C534 1.380 . S
C535 C536 1.381 . S
C536 H493 0.929 . S
C536 C535 1.381 . S
C536 C537 1.371 . S
C537 C536 1.371 . S
C537 C538 1.380 . S
C538 H494 0.931 . S
C538 C537 1.380 . S
C538 C539 1.387 . S
C539 H495 0.930 . S
C539 C534 1.386 . S
C539 C538 1.387 . S
C540 C509 1.519 . S
C540 C541 1.377 . S
C540 C545 1.361 . S
C541 H496 0.929 . S
C541 C540 1.377 . S
C541 C542 1.386 . S
C542 H497 0.931 . S
C542 C541 1.386 . S
C542 C543 1.363 . S
C543 C542 1.363 . S
C543 C544 1.385 . S
C544 H498 0.930 . S
C544 C543 1.385 . S
C544 C545 1.396 . S
C545 H499 0.929 . S
C545 C540 1.361 . S
C545 C544 1.396 . S
C546 O500 1.300 . S
C546 O501 1.209 . S
C546 C519 1.486 . S
C547 O502 1.199 . S
C547 O503 1.297 . S
C547 C531 1.476 . S
H548 O574 0.856 . S
H549 O577 0.854 . S
H550 C585 0.930 . S
H551 C586 0.930 . S
H552 C588 0.930 . S
H553 C589 0.930 . S
H554 C591 0.931 . S
H555 C592 0.930 . S
H556 C594 0.930 . S
H557 C595 0.929 . S
H558 C597 0.930 . S
H559 C598 0.931 . S
H560 C600 0.930 . S
H561 C601 0.929 . S
H562 C603 0.931 . S
H563 C604 0.930 . S
H564 C606 0.930 . S
H565 C607 0.932 . S
H566 C609 0.930 . S
H567 C610 0.929 . S
H568 C612 0.931 . S
H569 C613 0.930 . S
H570 C615 0.929 . S
H571 C616 0.931 . S
H572 C618 0.930 . S
H573 C619 0.929 . S
O574 H548 0.856 . S
O574 C620 1.300 . S
O575 C620 1.209 . S
O576 C621 1.199 . S
O577 H549 0.854 . S
O577 C621 1.297 1_565 S
C578 C579 1.404 . S
C578 C583 1.397 . S
C578 C584 1.492 . S
C579 C578 1.404 . S
C579 C580 1.396 . S
C579 C590 1.492 . S
C580 C579 1.396 . S
C580 C581 1.397 . S
C580 C596 1.509 . S
C581 C580 1.397 . S
C581 C582 1.412 . S
C581 C602 1.485 . S
C582 C581 1.412 . S
C582 C583 1.388 . S
C582 C608 1.490 . S
C583 C578 1.397 . S
C583 C582 1.388 . S
C583 C614 1.519 . S
C584 C578 1.492 . S
C584 C585 1.363 . S
C584 C589 1.390 . S
C585 H550 0.930 . S
C585 C584 1.363 . S
C585 C586 1.372 . S
C586 H551 0.930 . S
C586 C585 1.372 . S
C586 C587 1.383 . S
C587 C586 1.383 . S
C587 C588 1.395 . S
C588 H552 0.930 . S
C588 C587 1.395 . S
C588 C589 1.362 . S
C589 H553 0.930 . S
C589 C584 1.390 . S
C589 C588 1.362 . S
C590 C579 1.492 . S
C590 C591 1.377 . S
C590 C595 1.397 . S
C591 H554 0.931 . S
C591 C590 1.377 . S
C591 C592 1.376 1_556 S
C592 H555 0.930 . S
C592 C591 1.376 1_554 S
C592 C593 1.376 . S
C593 C592 1.376 . S
C593 C594 1.378 . S
C593 C620 1.486 . S
C594 H556 0.930 . S
C594 C593 1.378 . S
C594 C595 1.376 1_554 S
C595 H557 0.929 . S
C595 C590 1.397 . S
C595 C594 1.376 1_556 S
C596 C580 1.509 . S
C596 C597 1.391 . S
C596 C601 1.386 . S
C597 H558 0.930 . S
C597 C596 1.391 . S
C597 C598 1.375 . S
C598 H559 0.931 . S
C598 C597 1.375 . S
C598 C599 1.375 . S
C599 C598 1.375 . S
C599 C600 1.361 . S
C600 H560 0.930 . S
C600 C599 1.361 . S
C600 C601 1.399 . S
C601 H561 0.929 . S
C601 C596 1.386 . S
C601 C600 1.399 . S
C602 C581 1.485 . S
C602 C603 1.394 . S
C602 C607 1.360 . S
C603 H562 0.931 . S
C603 C602 1.394 . S
C603 C604 1.372 . S
C604 H563 0.930 . S
C604 C603 1.372 . S
C604 C605 1.397 . S
C605 C604 1.397 . S
C605 C606 1.390 . S
C605 C621 1.476 . S
C606 H564 0.930 . S
C606 C605 1.390 . S
C606 C607 1.366 . S
C607 H565 0.932 . S
C607 C602 1.360 . S
C607 C606 1.366 . S
C608 C582 1.490 . S
C608 C609 1.380 . S
C608 C613 1.386 . S
C609 H566 0.930 . S
C609 C608 1.380 . S
C609 C610 1.381 . S
C610 H567 0.929 . S
C610 C609 1.381 . S
C610 C611 1.371 . S
C611 C610 1.371 . S
C611 C612 1.380 . S
C612 H568 0.931 . S
C612 C611 1.380 . S
C612 C613 1.387 . S
C613 H569 0.930 . S
C613 C608 1.386 . S
C613 C612 1.387 . S
C614 C583 1.519 . S
C614 C615 1.377 . S
C614 C619 1.361 . S
C615 H570 0.929 . S
C615 C614 1.377 . S
C615 C616 1.386 . S
C616 H571 0.931 . S
C616 C615 1.386 . S
C616 C617 1.363 . S
C617 C616 1.363 . S
C617 C618 1.385 . S
C618 H572 0.930 . S
C618 C617 1.385 . S
C618 C619 1.396 . S
C619 H573 0.929 . S
C619 C614 1.361 . S
C619 C618 1.396 . S
C620 O574 1.300 . S
C620 O575 1.209 . S
C620 C593 1.486 . S
C621 O576 1.199 . S
C621 O577 1.297 1_545 S
C621 C605 1.476 . S
H622 O648 0.856 . S
H623 O651 0.854 . S
H624 C659 0.930 . S
H625 C660 0.930 . S
H626 C662 0.930 . S
H627 C663 0.930 . S
H628 C665 0.931 . S
H629 C666 0.930 . S
H630 C668 0.930 . S
H631 C669 0.929 . S
H632 C671 0.930 . S
H633 C672 0.931 . S
H634 C674 0.930 . S
H635 C675 0.929 . S
H636 C677 0.931 . S
H637 C678 0.930 . S
H638 C680 0.930 . S
H639 C681 0.932 . S
H640 C683 0.930 . S
H641 C684 0.929 . S
H642 C686 0.931 . S
H643 C687 0.930 . S
H644 C689 0.929 . S
H645 C690 0.931 . S
H646 C692 0.930 . S
H647 C693 0.929 . S
O648 H622 0.856 . S
O648 C694 1.300 . S
O649 C694 1.209 . S
O650 C695 1.199 . S
O651 H623 0.854 . S
O651 C695 1.297 . S
C652 C653 1.404 . S
C652 C657 1.397 . S
C652 C658 1.492 . S
C653 C652 1.404 . S
C653 C654 1.396 . S
C653 C664 1.492 . S
C654 C653 1.396 . S
C654 C655 1.397 . S
C654 C670 1.509 . S
C655 C654 1.397 . S
C655 C656 1.412 . S
C655 C676 1.485 . S
C656 C655 1.412 . S
C656 C657 1.388 . S
C656 C682 1.490 . S
C657 C652 1.397 . S
C657 C656 1.388 . S
C657 C688 1.519 . S
C658 C652 1.492 . S
C658 C659 1.363 . S
C658 C663 1.390 . S
C659 H624 0.930 . S
C659 C658 1.363 . S
C659 C660 1.372 . S
C660 H625 0.930 . S
C660 C659 1.372 . S
C660 C661 1.383 . S
C661 C660 1.383 . S
C661 C662 1.395 . S
C662 H626 0.930 . S
C662 C661 1.395 . S
C662 C663 1.362 . S
C663 H627 0.930 . S
C663 C658 1.390 . S
C663 C662 1.362 . S
C664 C653 1.492 . S
C664 C665 1.377 . S
C664 C669 1.397 . S
C665 H628 0.931 . S
C665 C664 1.377 . S
C665 C666 1.376 1_556 S
C666 H629 0.930 . S
C666 C665 1.376 1_554 S
C666 C667 1.376 . S
C667 C666 1.376 . S
C667 C668 1.378 . S
C667 C694 1.486 . S
C668 H630 0.930 . S
C668 C667 1.378 . S
C668 C669 1.376 1_554 S
C669 H631 0.929 . S
C669 C664 1.397 . S
C669 C668 1.376 1_556 S
C670 C654 1.509 . S
C670 C671 1.391 . S
C670 C675 1.386 . S
C671 H632 0.930 . S
C671 C670 1.391 . S
C671 C672 1.375 . S
C672 H633 0.931 . S
C672 C671 1.375 . S
C672 C673 1.375 . S
C673 C672 1.375 . S
C673 C674 1.361 . S
C674 H634 0.930 . S
C674 C673 1.361 . S
C674 C675 1.399 . S
C675 H635 0.929 . S
C675 C670 1.386 . S
C675 C674 1.399 . S
C676 C655 1.485 . S
C676 C677 1.394 . S
C676 C681 1.360 . S
C677 H636 0.931 . S
C677 C676 1.394 . S
C677 C678 1.372 . S
C678 H637 0.930 . S
C678 C677 1.372 . S
C678 C679 1.397 . S
C679 C678 1.397 . S
C679 C680 1.390 . S
C679 C695 1.476 . S
C680 H638 0.930 . S
C680 C679 1.390 . S
C680 C681 1.366 . S
C681 H639 0.932 . S
C681 C676 1.360 . S
C681 C680 1.366 . S
C682 C656 1.490 . S
C682 C683 1.380 . S
C682 C687 1.386 . S
C683 H640 0.930 . S
C683 C682 1.380 . S
C683 C684 1.381 . S
C684 H641 0.929 . S
C684 C683 1.381 . S
C684 C685 1.371 . S
C685 C684 1.371 . S
C685 C686 1.380 . S
C686 H642 0.931 . S
C686 C685 1.380 . S
C686 C687 1.387 . S
C687 H643 0.930 . S
C687 C682 1.386 . S
C687 C686 1.387 . S
C688 C657 1.519 . S
C688 C689 1.377 . S
C688 C693 1.361 . S
C689 H644 0.929 . S
C689 C688 1.377 . S
C689 C690 1.386 . S
C690 H645 0.931 . S
C690 C689 1.386 . S
C690 C691 1.363 . S
C691 C690 1.363 . S
C691 C692 1.385 . S
C692 H646 0.930 . S
C692 C691 1.385 . S
C692 C693 1.396 . S
C693 H647 0.929 . S
C693 C688 1.361 . S
C693 C692 1.396 . S
C694 O648 1.300 . S
C694 O649 1.209 . S
C694 C667 1.486 . S
C695 O650 1.199 . S
C695 O651 1.297 . S
C695 C679 1.476 . S
H696 O722 0.856 . S
H697 O725 0.854 . S
H698 C733 0.930 . S
H699 C734 0.930 . S
H700 C736 0.930 . S
H701 C737 0.930 . S
H702 C739 0.931 . S
H703 C740 0.930 . S
H704 C742 0.930 . S
H705 C743 0.929 . S
H706 C745 0.930 . S
H707 C746 0.931 . S
H708 C748 0.930 . S
H709 C749 0.929 . S
H710 C751 0.931 . S
H711 C752 0.930 . S
H712 C754 0.930 . S
H713 C755 0.932 . S
H714 C757 0.930 . S
H715 C758 0.929 . S
H716 C760 0.931 . S
H717 C761 0.930 . S
H718 C763 0.929 . S
H719 C764 0.931 . S
H720 C766 0.930 . S
H721 C767 0.929 . S
O722 H696 0.856 . S
O722 C768 1.300 . S
O723 C768 1.209 . S
O724 C769 1.199 . S
O725 H697 0.854 . S
O725 C769 1.297 . S
C726 C727 1.404 . S
C726 C731 1.397 . S
C726 C732 1.492 . S
C727 C726 1.404 . S
C727 C728 1.396 . S
C727 C738 1.492 . S
C728 C727 1.396 . S
C728 C729 1.397 . S
C728 C744 1.509 . S
C729 C728 1.397 . S
C729 C730 1.412 . S
C729 C750 1.485 . S
C730 C729 1.412 . S
C730 C731 1.388 . S
C730 C756 1.490 . S
C731 C726 1.397 . S
C731 C730 1.388 . S
C731 C762 1.519 . S
C732 C726 1.492 . S
C732 C733 1.363 . S
C732 C737 1.390 . S
C733 H698 0.930 . S
C733 C732 1.363 . S
C733 C734 1.372 . S
C734 H699 0.930 . S
C734 C733 1.372 . S
C734 C735 1.383 . S
C735 C734 1.383 . S
C735 C736 1.395 . S
C736 H700 0.930 . S
C736 C735 1.395 . S
C736 C737 1.362 . S
C737 H701 0.930 . S
C737 C732 1.390 . S
C737 C736 1.362 . S
C738 C727 1.492 . S
C738 C739 1.377 . S
C738 C743 1.397 . S
C739 H702 0.931 . S
C739 C738 1.377 . S
C739 C740 1.376 . S
C740 H703 0.930 . S
C740 C739 1.376 . S
C740 C741 1.376 . S
C741 C740 1.376 . S
C741 C742 1.378 . S
C741 C768 1.486 . S
C742 H704 0.930 . S
C742 C741 1.378 . S
C742 C743 1.376 . S
C743 H705 0.929 . S
C743 C738 1.397 . S
C743 C742 1.376 . S
C744 C728 1.509 . S
C744 C745 1.391 . S
C744 C749 1.386 . S
C745 H706 0.930 . S
C745 C744 1.391 . S
C745 C746 1.375 . S
C746 H707 0.931 . S
C746 C745 1.375 . S
C746 C747 1.375 . S
C747 C746 1.375 . S
C747 C748 1.361 . S
C748 H708 0.930 . S
C748 C747 1.361 . S
C748 C749 1.399 . S
C749 H709 0.929 . S
C749 C744 1.386 . S
C749 C748 1.399 . S
C750 C729 1.485 . S
C750 C751 1.394 . S
C750 C755 1.360 . S
C751 H710 0.931 . S
C751 C750 1.394 . S
C751 C752 1.372 . S
C752 H711 0.930 . S
C752 C751 1.372 . S
C752 C753 1.397 . S
C753 C752 1.397 . S
C753 C754 1.390 . S
C753 C769 1.476 . S
C754 H712 0.930 . S
C754 C753 1.390 . S
C754 C755 1.366 . S
C755 H713 0.932 . S
C755 C750 1.360 . S
C755 C754 1.366 . S
C756 C730 1.490 . S
C756 C757 1.380 . S
C756 C761 1.386 . S
C757 H714 0.930 . S
C757 C756 1.380 . S
C757 C758 1.381 . S
C758 H715 0.929 . S
C758 C757 1.381 . S
C758 C759 1.371 . S
C759 C758 1.371 . S
C759 C760 1.380 . S
C760 H716 0.931 . S
C760 C759 1.380 . S
C760 C761 1.387 . S
C761 H717 0.930 . S
C761 C756 1.386 . S
C761 C760 1.387 . S
C762 C731 1.519 . S
C762 C763 1.377 . S
C762 C767 1.361 . S
C763 H718 0.929 . S
C763 C762 1.377 . S
C763 C764 1.386 . S
C764 H719 0.931 . S
C764 C763 1.386 . S
C764 C765 1.363 . S
C765 C764 1.363 . S
C765 C766 1.385 . S
C766 H720 0.930 . S
C766 C765 1.385 . S
C766 C767 1.396 . S
C767 H721 0.929 . S
C767 C762 1.361 . S
C767 C766 1.396 . S
C768 O722 1.300 . S
C768 O723 1.209 . S
C768 C741 1.486 . S
C769 O724 1.199 . S
C769 O725 1.297 . S
C769 C753 1.476 . S
H770 O796 0.856 . S
H771 O799 0.854 . S
H772 C807 0.930 . S
H773 C808 0.930 . S
H774 C810 0.930 . S
H775 C811 0.930 . S
H776 C813 0.931 . S
H777 C814 0.930 . S
H778 C816 0.930 . S
H779 C817 0.929 . S
H780 C819 0.930 . S
H781 C820 0.931 . S
H782 C822 0.930 . S
H783 C823 0.929 . S
H784 C825 0.931 . S
H785 C826 0.930 . S
H786 C828 0.930 . S
H787 C829 0.932 . S
H788 C831 0.930 . S
H789 C832 0.929 . S
H790 C834 0.931 . S
H791 C835 0.930 . S
H792 C837 0.929 . S
H793 C838 0.931 . S
H794 C840 0.930 . S
H795 C841 0.929 . S
O796 H770 0.856 . S
O796 C842 1.300 . S
O797 C842 1.209 . S
O798 C843 1.199 . S
O799 H771 0.854 . S
O799 C843 1.297 . S
C800 C801 1.404 . S
C800 C805 1.397 . S
C800 C806 1.492 . S
C801 C800 1.404 . S
C801 C802 1.396 . S
C801 C812 1.492 . S
C802 C801 1.396 . S
C802 C803 1.397 . S
C802 C818 1.509 . S
C803 C802 1.397 . S
C803 C804 1.412 . S
C803 C824 1.485 . S
C804 C803 1.412 . S
C804 C805 1.388 . S
C804 C830 1.490 . S
C805 C800 1.397 . S
C805 C804 1.388 . S
C805 C836 1.519 . S
C806 C800 1.492 . S
C806 C807 1.363 . S
C806 C811 1.390 . S
C807 H772 0.930 . S
C807 C806 1.363 . S
C807 C808 1.372 . S
C808 H773 0.930 . S
C808 C807 1.372 . S
C808 C809 1.383 . S
C809 C808 1.383 . S
C809 C810 1.395 . S
C810 H774 0.930 . S
C810 C809 1.395 . S
C810 C811 1.362 . S
C811 H775 0.930 . S
C811 C806 1.390 . S
C811 C810 1.362 . S
C812 C801 1.492 . S
C812 C813 1.377 . S
C812 C817 1.397 . S
C813 H776 0.931 . S
C813 C812 1.377 . S
C813 C814 1.376 . S
C814 H777 0.930 . S
C814 C813 1.376 . S
C814 C815 1.376 . S
C815 C814 1.376 . S
C815 C816 1.378 . S
C815 C842 1.486 . S
C816 H778 0.930 . S
C816 C815 1.378 . S
C816 C817 1.376 . S
C817 H779 0.929 . S
C817 C812 1.397 . S
C817 C816 1.376 . S
C818 C802 1.509 . S
C818 C819 1.391 . S
C818 C823 1.386 . S
C819 H780 0.930 . S
C819 C818 1.391 . S
C819 C820 1.375 . S
C820 H781 0.931 . S
C820 C819 1.375 . S
C820 C821 1.375 . S
C821 C820 1.375 . S
C821 C822 1.361 . S
C822 H782 0.930 . S
C822 C821 1.361 . S
C822 C823 1.399 . S
C823 H783 0.929 . S
C823 C818 1.386 . S
C823 C822 1.399 . S
C824 C803 1.485 . S
C824 C825 1.394 . S
C824 C829 1.360 . S
C825 H784 0.931 . S
C825 C824 1.394 . S
C825 C826 1.372 . S
C826 H785 0.930 . S
C826 C825 1.372 . S
C826 C827 1.397 . S
C827 C826 1.397 . S
C827 C828 1.390 . S
C827 C843 1.476 . S
C828 H786 0.930 . S
C828 C827 1.390 . S
C828 C829 1.366 . S
C829 H787 0.932 . S
C829 C824 1.360 . S
C829 C828 1.366 . S
C830 C804 1.490 . S
C830 C831 1.380 . S
C830 C835 1.386 . S
C831 H788 0.930 . S
C831 C830 1.380 . S
C831 C832 1.381 . S
C832 H789 0.929 . S
C832 C831 1.381 . S
C832 C833 1.371 . S
C833 C832 1.371 . S
C833 C834 1.380 . S
C834 H790 0.931 . S
C834 C833 1.380 . S
C834 C835 1.387 . S
C835 H791 0.930 . S
C835 C830 1.386 . S
C835 C834 1.387 . S
C836 C805 1.519 . S
C836 C837 1.377 . S
C836 C841 1.361 . S
C837 H792 0.929 . S
C837 C836 1.377 . S
C837 C838 1.386 . S
C838 H793 0.931 . S
C838 C837 1.386 . S
C838 C839 1.363 . S
C839 C838 1.363 . S
C839 C840 1.385 . S
C840 H794 0.930 . S
C840 C839 1.385 . S
C840 C841 1.396 . S
C841 H795 0.929 . S
C841 C836 1.361 . S
C841 C840 1.396 . S
C842 O796 1.300 . S
C842 O797 1.209 . S
C842 C815 1.486 . S
C843 O798 1.199 . S
C843 O799 1.297 . S
C843 C827 1.476 . S
H844 O870 0.856 . S
H845 O873 0.854 . S
H846 C881 0.930 . S
H847 C882 0.930 . S
H848 C884 0.930 . S
H849 C885 0.930 . S
H850 C887 0.931 . S
H851 C888 0.930 . S
H852 C890 0.930 . S
H853 C891 0.929 . S
H854 C893 0.930 . S
H855 C894 0.931 . S
H856 C896 0.930 . S
H857 C897 0.929 . S
H858 C899 0.931 . S
H859 C900 0.930 . S
H860 C902 0.930 . S
H861 C903 0.932 . S
H862 C905 0.930 . S
H863 C906 0.929 . S
H864 C908 0.931 . S
H865 C909 0.930 . S
H866 C911 0.929 . S
H867 C912 0.931 . S
H868 C914 0.930 . S
H869 C915 0.929 . S
O870 H844 0.856 . S
O870 C916 1.300 . S
O871 C916 1.209 . S
O872 C917 1.199 . S
O873 H845 0.854 . S
O873 C917 1.297 . S
C874 C875 1.404 . S
C874 C879 1.397 . S
C874 C880 1.492 . S
C875 C874 1.404 . S
C875 C876 1.396 . S
C875 C886 1.492 . S
C876 C875 1.396 . S
C876 C877 1.397 . S
C876 C892 1.509 . S
C877 C876 1.397 . S
C877 C878 1.412 . S
C877 C898 1.485 . S
C878 C877 1.412 . S
C878 C879 1.388 . S
C878 C904 1.490 . S
C879 C874 1.397 . S
C879 C878 1.388 . S
C879 C910 1.519 . S
C880 C874 1.492 . S
C880 C881 1.363 . S
C880 C885 1.390 . S
C881 H846 0.930 . S
C881 C880 1.363 . S
C881 C882 1.372 . S
C882 H847 0.930 . S
C882 C881 1.372 . S
C882 C883 1.383 . S
C883 C882 1.383 . S
C883 C884 1.395 . S
C884 H848 0.930 . S
C884 C883 1.395 . S
C884 C885 1.362 . S
C885 H849 0.930 . S
C885 C880 1.390 . S
C885 C884 1.362 . S
C886 C875 1.492 . S
C886 C887 1.377 . S
C886 C891 1.397 . S
C887 H850 0.931 . S
C887 C886 1.377 . S
C887 C888 1.376 . S
C888 H851 0.930 . S
C888 C887 1.376 . S
C888 C889 1.376 . S
C889 C888 1.376 . S
C889 C890 1.378 . S
C889 C916 1.486 . S
C890 H852 0.930 . S
C890 C889 1.378 . S
C890 C891 1.376 . S
C891 H853 0.929 . S
C891 C886 1.397 . S
C891 C890 1.376 . S
C892 C876 1.509 . S
C892 C893 1.391 . S
C892 C897 1.386 . S
C893 H854 0.930 . S
C893 C892 1.391 . S
C893 C894 1.375 . S
C894 H855 0.931 . S
C894 C893 1.375 . S
C894 C895 1.375 . S
C895 C894 1.375 . S
C895 C896 1.361 . S
C896 H856 0.930 . S
C896 C895 1.361 . S
C896 C897 1.399 . S
C897 H857 0.929 . S
C897 C892 1.386 . S
C897 C896 1.399 . S
C898 C877 1.485 . S
C898 C899 1.394 . S
C898 C903 1.360 . S
C899 H858 0.931 . S
C899 C898 1.394 . S
C899 C900 1.372 . S
C900 H859 0.930 . S
C900 C899 1.372 . S
C900 C901 1.397 . S
C901 C900 1.397 . S
C901 C902 1.390 . S
C901 C917 1.476 . S
C902 H860 0.930 . S
C902 C901 1.390 . S
C902 C903 1.366 . S
C903 H861 0.932 . S
C903 C898 1.360 . S
C903 C902 1.366 . S
C904 C878 1.490 . S
C904 C905 1.380 . S
C904 C909 1.386 . S
C905 H862 0.930 . S
C905 C904 1.380 . S
C905 C906 1.381 . S
C906 H863 0.929 . S
C906 C905 1.381 . S
C906 C907 1.371 . S
C907 C906 1.371 . S
C907 C908 1.380 . S
C908 H864 0.931 . S
C908 C907 1.380 . S
C908 C909 1.387 . S
C909 H865 0.930 . S
C909 C904 1.386 . S
C909 C908 1.387 . S
C910 C879 1.519 . S
C910 C911 1.377 . S
C910 C915 1.361 . S
C911 H866 0.929 . S
C911 C910 1.377 . S
C911 C912 1.386 . S
C912 H867 0.931 . S
C912 C911 1.386 . S
C912 C913 1.363 . S
C913 C912 1.363 . S
C913 C914 1.385 . S
C914 H868 0.930 . S
C914 C913 1.385 . S
C914 C915 1.396 . S
C915 H869 0.929 . S
C915 C910 1.361 . S
C915 C914 1.396 . S
C916 O870 1.300 . S
C916 O871 1.209 . S
C916 C889 1.486 . S
C917 O872 1.199 . S
C917 O873 1.297 . S
C917 C901 1.476 . S
H918 O944 0.856 . S
H919 O947 0.854 . S
H920 C955 0.930 . S
H921 C956 0.930 . S
H922 C958 0.930 . S
H923 C959 0.930 . S
H924 C961 0.931 . S
H925 C962 0.930 1_655 S
H926 C964 0.930 . S
H927 C965 0.929 . S
H928 C967 0.930 . S
H929 C968 0.931 1_655 S
H930 C970 0.930 . S
H931 C971 0.929 . S
H932 C973 0.931 . S
H933 C974 0.930 . S
H934 C976 0.930 . S
H935 C977 0.932 . S
H936 C979 0.930 . S
H937 C980 0.929 . S
H938 C982 0.931 . S
H939 C983 0.930 . S
H940 C985 0.929 . S
H941 C986 0.931 . S
H942 C988 0.930 . S
H943 C989 0.929 . S
O944 H918 0.856 . S
O944 C990 1.300 . S
O945 C990 1.209 . S
O946 C991 1.199 1_655 S
O947 H919 0.854 . S
O947 C991 1.297 . S
C948 C949 1.404 . S
C948 C953 1.397 . S
C948 C954 1.492 . S
C949 C948 1.404 . S
C949 C950 1.396 . S
C949 C960 1.492 . S
C950 C949 1.396 . S
C950 C951 1.397 . S
C950 C966 1.509 . S
C951 C950 1.397 . S
C951 C952 1.426 . S
C951 C972 1.485 . S
C952 C951 1.426 . S
C952 C953 1.375 . S
C952 C978 1.491 1_455 S
C953 C948 1.397 . S
C953 C952 1.375 . S
C953 C984 1.499 1_455 S
C954 C948 1.492 . S
C954 C955 1.363 1_455 S
C954 C959 1.390 . S
C955 H920 0.930 . S
C955 C954 1.363 1_655 S
C955 C956 1.372 . S
C956 H921 0.930 . S
C956 C955 1.372 . S
C956 C957 1.383 . S
C957 C956 1.383 . S
C957 C958 1.395 1_655 S
C958 H922 0.930 . S
C958 C957 1.395 1_455 S
C958 C959 1.362 . S
C959 H923 0.930 . S
C959 C954 1.390 . S
C959 C958 1.362 . S
C960 C949 1.492 . S
C960 C961 1.377 1_455 S
C960 C965 1.397 . S
C961 H924 0.931 . S
C961 C960 1.377 1_655 S
C961 C962 1.376 1_655 S
C962 H925 0.930 1_455 S
C962 C961 1.376 1_455 S
C962 C963 1.376 . S
C963 C962 1.376 . S
C963 C964 1.378 . S
C963 C990 1.486 . S
C964 H926 0.930 . S
C964 C963 1.378 . S
C964 C965 1.376 . S
C965 H927 0.929 . S
C965 C960 1.397 . S
C965 C964 1.376 . S
C966 C950 1.509 . S
C966 C967 1.391 1_455 S
C966 C971 1.386 . S
C967 H928 0.930 . S
C967 C966 1.391 1_655 S
C967 C968 1.375 1_655 S
C968 H929 0.931 1_455 S
C968 C967 1.375 1_455 S
C968 C969 1.375 . S
C969 C968 1.375 . S
C969 C970 1.361 . S
C970 H930 0.930 . S
C970 C969 1.361 . S
C970 C971 1.399 . S
C971 H931 0.929 . S
C971 C966 1.386 . S
C971 C970 1.399 . S
C972 C951 1.485 . S
C972 C973 1.394 1_455 S
C972 C977 1.360 . S
C973 H932 0.931 . S
C973 C972 1.394 1_655 S
C973 C974 1.372 . S
C974 H933 0.930 . S
C974 C973 1.372 . S
C974 C975 1.397 1_655 S
C975 C974 1.397 1_455 S
C975 C976 1.390 . S
C975 C991 1.476 . S
C976 H934 0.930 . S
C976 C975 1.390 . S
C976 C977 1.366 . S
C977 H935 0.932 . S
C977 C972 1.360 . S
C977 C976 1.366 . S
C978 C952 1.491 1_655 S
C978 C979 1.380 . S
C978 C983 1.386 1_655 S
C979 H936 0.930 . S
C979 C978 1.380 . S
C979 C980 1.381 . S
C980 H937 0.929 . S
C980 C979 1.381 . S
C980 C981 1.371 . S
C981 C980 1.371 . S
C981 C982 1.380 1_655 S
C982 H938 0.931 . S
C982 C981 1.380 1_455 S
C982 C983 1.387 . S
C983 H939 0.930 . S
C983 C978 1.386 1_455 S
C983 C982 1.387 . S
C984 C953 1.499 1_655 S
C984 C985 1.430 . S
C984 C989 1.327 1_655 S
C985 H940 0.929 . S
C985 C984 1.430 . S
C985 C986 1.386 . S
C986 H941 0.931 . S
C986 C985 1.386 . S
C986 C987 1.363 . S
C987 C986 1.363 . S
C987 C988 1.385 1_655 S
C988 H942 0.930 . S
C988 C987 1.385 1_455 S
C988 C989 1.396 . S
C989 H943 0.929 . S
C989 C984 1.327 1_455 S
C989 C988 1.396 . S
C990 O944 1.300 . S
C990 O945 1.209 . S
C990 C963 1.486 . S
C991 O946 1.199 1_455 S
C991 O947 1.297 . S
C991 C975 1.476 . S
H992 O1018 0.856 . S
H993 O1021 0.854 . S
H994 C1029 0.930 . S
H995 C1030 0.930 . S
H996 C1032 0.930 . S
H997 C1033 0.930 . S
H998 C1035 0.931 . S
H999 C1036 0.930 . S
H1000 C1038 0.930 . S
H1001 C1039 0.929 . S
H1002 C1041 0.930 . S
H1003 C1042 0.931 . S
H1004 C1044 0.930 . S
H1005 C1045 0.929 . S
H1006 C1047 0.931 . S
H1007 C1048 0.930 . S
H1008 C1050 0.930 . S
H1009 C1051 0.932 . S
H1010 C1053 0.930 . S
H1011 C1054 0.929 . S
H1012 C1056 0.931 . S
H1013 C1057 0.930 . S
H1014 C1059 0.929 . S
H1015 C1060 0.931 . S
H1016 C1062 0.930 . S
H1017 C1063 0.929 . S
O1018 H992 0.856 . S
O1018 C1064 1.300 . S
O1019 C1064 1.209 . S
O1020 C1065 1.199 . S
O1021 H993 0.854 . S
O1021 C1065 1.297 . S
C1022 C1023 1.404 . S
C1022 C1027 1.397 . S
C1022 C1028 1.492 . S
C1023 C1022 1.404 . S
C1023 C1024 1.396 . S
C1023 C1034 1.492 . S
C1024 C1023 1.396 . S
C1024 C1025 1.397 . S
C1024 C1040 1.509 . S
C1025 C1024 1.397 . S
C1025 C1026 1.412 . S
C1025 C1046 1.485 . S
C1026 C1025 1.412 . S
C1026 C1027 1.388 . S
C1026 C1052 1.490 . S
C1027 C1022 1.397 . S
C1027 C1026 1.388 . S
C1027 C1058 1.519 . S
C1028 C1022 1.492 . S
C1028 C1029 1.363 . S
C1028 C1033 1.390 . S
C1029 H994 0.930 . S
C1029 C1028 1.363 . S
C1029 C1030 1.372 . S
C1030 H995 0.930 . S
C1030 C1029 1.372 . S
C1030 C1031 1.383 . S
C1031 C1030 1.383 . S
C1031 C1032 1.395 . S
C1032 H996 0.930 . S
C1032 C1031 1.395 . S
C1032 C1033 1.362 . S
C1033 H997 0.930 . S
C1033 C1028 1.390 . S
C1033 C1032 1.362 . S
C1034 C1023 1.492 . S
C1034 C1035 1.377 . S
C1034 C1039 1.397 . S
C1035 H998 0.931 . S
C1035 C1034 1.377 . S
C1035 C1036 1.376 . S
C1036 H999 0.930 . S
C1036 C1035 1.376 . S
C1036 C1037 1.376 . S
C1037 C1036 1.376 . S
C1037 C1038 1.378 . S
C1037 C1064 1.486 . S
C1038 H1000 0.930 . S
C1038 C1037 1.378 . S
C1038 C1039 1.376 . S
C1039 H1001 0.929 . S
C1039 C1034 1.397 . S
C1039 C1038 1.376 . S
C1040 C1024 1.509 . S
C1040 C1041 1.391 . S
C1040 C1045 1.386 . S
C1041 H1002 0.930 . S
C1041 C1040 1.391 . S
C1041 C1042 1.375 . S
C1042 H1003 0.931 . S
C1042 C1041 1.375 . S
C1042 C1043 1.375 . S
C1043 C1042 1.375 . S
C1043 C1044 1.361 . S
C1044 H1004 0.930 . S
C1044 C1043 1.361 . S
C1044 C1045 1.399 . S
C1045 H1005 0.929 . S
C1045 C1040 1.386 . S
C1045 C1044 1.399 . S
C1046 C1025 1.485 . S
C1046 C1047 1.394 . S
C1046 C1051 1.360 . S
C1047 H1006 0.931 . S
C1047 C1046 1.394 . S
C1047 C1048 1.372 . S
C1048 H1007 0.930 . S
C1048 C1047 1.372 . S
C1048 C1049 1.397 . S
C1049 C1048 1.397 . S
C1049 C1050 1.390 . S
C1049 C1065 1.476 . S
C1050 H1008 0.930 . S
C1050 C1049 1.390 . S
C1050 C1051 1.366 . S
C1051 H1009 0.932 . S
C1051 C1046 1.360 . S
C1051 C1050 1.366 . S
C1052 C1026 1.490 . S
C1052 C1053 1.380 . S
C1052 C1057 1.386 . S
C1053 H1010 0.930 . S
C1053 C1052 1.380 . S
C1053 C1054 1.381 . S
C1054 H1011 0.929 . S
C1054 C1053 1.381 . S
C1054 C1055 1.371 . S
C1055 C1054 1.371 . S
C1055 C1056 1.380 . S
C1056 H1012 0.931 . S
C1056 C1055 1.380 . S
C1056 C1057 1.387 . S
C1057 H1013 0.930 . S
C1057 C1052 1.386 . S
C1057 C1056 1.387 . S
C1058 C1027 1.519 . S
C1058 C1059 1.377 . S
C1058 C1063 1.361 . S
C1059 H1014 0.929 . S
C1059 C1058 1.377 . S
C1059 C1060 1.386 . S
C1060 H1015 0.931 . S
C1060 C1059 1.386 . S
C1060 C1061 1.363 . S
C1061 C1060 1.363 . S
C1061 C1062 1.385 . S
C1062 H1016 0.930 . S
C1062 C1061 1.385 . S
C1062 C1063 1.396 . S
C1063 H1017 0.929 . S
C1063 C1058 1.361 . S
C1063 C1062 1.396 . S
C1064 O1018 1.300 . S
C1064 O1019 1.209 . S
C1064 C1037 1.486 . S
C1065 O1020 1.199 . S
C1065 O1021 1.297 . S
C1065 C1049 1.476 . S
H1066 O1092 0.856 . S
H1067 O1095 0.854 . S
H1068 C1103 0.930 . S
H1069 C1104 0.930 . S
H1070 C1106 0.930 . S
H1071 C1107 0.930 . S
H1072 C1109 0.931 . S
H1073 C1110 0.927 1_545 S
H1074 C1112 0.930 . S
H1075 C1113 0.929 . S
H1076 C1115 0.930 . S
H1077 C1116 0.931 . S
H1078 C1118 0.930 . S
H1079 C1119 0.929 . S
H1080 C1121 0.931 . S
H1081 C1122 0.930 . S
H1082 C1124 0.930 . S
H1083 C1125 0.932 . S
H1084 C1127 0.930 . S
H1085 C1128 0.929 . S
H1086 C1130 0.931 . S
H1087 C1131 0.930 . S
H1088 C1133 0.929 . S
H1089 C1134 0.931 . S
H1090 C1136 0.930 . S
H1091 C1137 0.929 . S
O1092 H1066 0.856 . S
O1092 C1138 1.300 . S
O1093 C1138 1.209 . S
O1094 C1139 1.199 1_545 S
O1095 H1067 0.854 . S
O1095 C1139 1.297 . S
C1096 C1097 1.404 . S
C1096 C1101 1.414 . S
C1096 C1102 1.492 . S
C1097 C1096 1.404 . S
C1097 C1098 1.396 . S
C1097 C1108 1.492 . S
C1098 C1097 1.396 . S
C1098 C1099 1.397 . S
C1098 C1114 1.509 . S
C1099 C1098 1.397 . S
C1099 C1100 1.413 1_565 S
C1099 C1120 1.485 . S
C1100 C1099 1.413 1_545 S
C1100 C1101 1.360 1_545 S
C1100 C1126 1.492 . S
C1101 C1096 1.414 . S
C1101 C1100 1.360 1_565 S
C1101 C1132 1.533 1_565 S
C1102 C1096 1.492 . S
C1102 C1103 1.363 1_565 S
C1102 C1107 1.390 . S
C1103 H1068 0.930 . S
C1103 C1102 1.363 1_545 S
C1103 C1104 1.372 . S
C1104 H1069 0.930 . S
C1104 C1103 1.372 . S
C1104 C1105 1.383 . S
C1105 C1104 1.383 . S
C1105 C1106 1.395 1_545 S
C1106 H1070 0.930 . S
C1106 C1105 1.395 1_565 S
C1106 C1107 1.362 . S
C1107 H1071 0.930 . S
C1107 C1102 1.390 . S
C1107 C1106 1.362 . S
C1108 C1097 1.492 . S
C1108 C1109 1.377 1_565 S
C1108 C1113 1.397 . S
C1109 H1072 0.931 . S
C1109 C1108 1.377 1_545 S
C1109 C1110 1.374 1_545 S
C1110 H1073 0.927 1_565 S
C1110 C1109 1.374 1_565 S
C1110 C1111 1.381 . S
C1111 C1110 1.381 . S
C1111 C1112 1.378 . S
C1111 C1138 1.486 . S
C1112 H1074 0.930 . S
C1112 C1111 1.378 . S
C1112 C1113 1.376 . S
C1113 H1075 0.929 . S
C1113 C1108 1.397 . S
C1113 C1112 1.376 . S
C1114 C1098 1.509 . S
C1114 C1115 1.391 1_565 S
C1114 C1119 1.386 . S
C1115 H1076 0.930 . S
C1115 C1114 1.391 1_545 S
C1115 C1116 1.375 . S
C1116 H1077 0.931 . S
C1116 C1115 1.375 . S
C1116 C1117 1.375 1_545 S
C1117 C1116 1.375 1_565 S
C1117 C1118 1.361 . S
C1118 H1078 0.930 . S
C1118 C1117 1.361 . S
C1118 C1119 1.399 . S
C1119 H1079 0.929 . S
C1119 C1114 1.386 . S
C1119 C1118 1.399 . S
C1120 C1099 1.485 . S
C1120 C1121 1.394 1_565 S
C1120 C1125 1.360 . S
C1121 H1080 0.931 . S
C1121 C1120 1.394 1_545 S
C1121 C1122 1.372 . S
C1122 H1081 0.930 . S
C1122 C1121 1.372 . S
C1122 C1123 1.397 1_545 S
C1123 C1122 1.397 1_565 S
C1123 C1124 1.390 . S
C1123 C1139 1.476 . S
C1124 H1082 0.930 . S
C1124 C1123 1.390 . S
C1124 C1125 1.366 . S
C1125 H1083 0.932 . S
C1125 C1120 1.360 . S
C1125 C1124 1.366 . S
C1126 C1100 1.492 . S
C1126 C1127 1.380 . S
C1126 C1131 1.386 1_545 S
C1127 H1084 0.930 . S
C1127 C1126 1.380 . S
C1127 C1128 1.381 . S
C1128 H1085 0.929 . S
C1128 C1127 1.381 . S
C1128 C1129 1.371 . S
C1129 C1128 1.371 . S
C1129 C1130 1.380 1_545 S
C1130 H1086 0.931 . S
C1130 C1129 1.380 1_565 S
C1130 C1131 1.387 . S
C1131 H1087 0.930 . S
C1131 C1126 1.386 1_565 S
C1131 C1130 1.387 . S
C1132 C1101 1.533 1_545 S
C1132 C1133 1.376 . S
C1132 C1137 1.363 1_545 S
C1133 H1088 0.929 . S
C1133 C1132 1.376 . S
C1133 C1134 1.386 . S
C1134 H1089 0.931 . S
C1134 C1133 1.386 . S
C1134 C1135 1.363 1_545 S
C1135 C1134 1.363 1_565 S
C1135 C1136 1.385 . S
C1136 H1090 0.930 . S
C1136 C1135 1.385 . S
C1136 C1137 1.396 . S
C1137 H1091 0.929 . S
C1137 C1132 1.363 1_565 S
C1137 C1136 1.396 . S
C1138 O1092 1.300 . S
C1138 O1093 1.209 . S
C1138 C1111 1.486 . S
C1139 O1094 1.199 1_565 S
C1139 O1095 1.297 . S
C1139 C1123 1.476 . S
H1140 O1166 0.856 . S
H1141 O1169 0.854 . S
H1142 C1177 0.930 . S
H1143 C1178 0.930 . S
H1144 C1180 0.930 . S
H1145 C1181 0.930 . S
H1146 C1183 0.931 . S
H1147 C1184 0.930 . S
H1148 C1186 0.930 . S
H1149 C1187 0.929 . S
H1150 C1189 0.930 . S
H1151 C1190 0.931 . S
H1152 C1192 0.930 . S
H1153 C1193 0.929 . S
H1154 C1195 0.931 . S
H1155 C1196 0.930 . S
H1156 C1198 0.930 . S
H1157 C1199 0.932 . S
H1158 C1201 0.930 . S
H1159 C1202 0.929 . S
H1160 C1204 0.931 . S
H1161 C1205 0.930 . S
H1162 C1207 0.929 . S
H1163 C1208 0.931 . S
H1164 C1210 0.930 . S
H1165 C1211 0.929 . S
O1166 H1140 0.856 . S
O1166 C1212 1.300 . S
O1167 C1212 1.209 1_565 S
O1168 C1213 1.199 1_545 S
O1169 H1141 0.854 . S
O1169 C1213 1.297 . S
C1170 C1171 1.404 . S
C1170 C1175 1.396 1_545 S
C1170 C1176 1.492 . S
C1171 C1170 1.404 . S
C1171 C1172 1.427 . S
C1171 C1182 1.492 . S
C1172 C1171 1.427 . S
C1172 C1173 1.373 1_545 S
C1172 C1188 1.503 . S
C1173 C1172 1.373 1_565 S
C1173 C1174 1.395 . S
C1173 C1194 1.518 . S
C1174 C1173 1.395 . S
C1174 C1175 1.391 . S
C1174 C1200 1.490 . S
C1175 C1170 1.396 1_565 S
C1175 C1174 1.391 . S
C1175 C1206 1.518 . S
C1176 C1170 1.492 . S
C1176 C1177 1.363 . S
C1176 C1181 1.390 1_545 S
C1177 H1142 0.930 . S
C1177 C1176 1.363 . S
C1177 C1178 1.372 . S
C1178 H1143 0.930 . S
C1178 C1177 1.372 . S
C1178 C1179 1.383 . S
C1179 C1178 1.383 . S
C1179 C1180 1.395 1_545 S
C1180 H1144 0.930 . S
C1180 C1179 1.395 1_565 S
C1180 C1181 1.362 . S
C1181 H1145 0.930 . S
C1181 C1176 1.390 1_565 S
C1181 C1180 1.362 . S
C1182 C1171 1.492 . S
C1182 C1183 1.377 . S
C1182 C1187 1.397 1_545 S
C1183 H1146 0.931 . S
C1183 C1182 1.377 . S
C1183 C1184 1.376 . S
C1184 H1147 0.930 . S
C1184 C1183 1.376 . S
C1184 C1185 1.376 . S
C1185 C1184 1.376 . S
C1185 C1186 1.378 1_545 S
C1185 C1212 1.486 . S
C1186 H1148 0.930 . S
C1186 C1185 1.378 1_565 S
C1186 C1187 1.376 . S
C1187 H1149 0.929 . S
C1187 C1182 1.397 1_565 S
C1187 C1186 1.376 . S
C1188 C1172 1.503 . S
C1188 C1189 1.405 . S
C1188 C1193 1.362 1_545 S
C1189 H1150 0.930 . S
C1189 C1188 1.405 . S
C1189 C1190 1.375 . S
C1190 H1151 0.931 . S
C1190 C1189 1.375 . S
C1190 C1191 1.372 . S
C1191 C1190 1.372 . S
C1191 C1192 1.363 1_545 S
C1192 H1152 0.930 . S
C1192 C1191 1.363 1_565 S
C1192 C1193 1.399 . S
C1193 H1153 0.929 . S
C1193 C1188 1.362 1_565 S
C1193 C1192 1.399 . S
C1194 C1173 1.518 . S
C1194 C1195 1.394 1_565 S
C1194 C1199 1.360 . S
C1195 H1154 0.931 . S
C1195 C1194 1.394 1_545 S
C1195 C1196 1.372 . S
C1196 H1155 0.930 . S
C1196 C1195 1.372 . S
C1196 C1197 1.397 1_545 S
C1197 C1196 1.397 1_565 S
C1197 C1198 1.390 . S
C1197 C1213 1.476 . S
C1198 H1156 0.930 . S
C1198 C1197 1.390 . S
C1198 C1199 1.366 . S
C1199 H1157 0.932 . S
C1199 C1194 1.360 . S
C1199 C1198 1.366 . S
C1200 C1174 1.490 . S
C1200 C1201 1.380 1_565 S
C1200 C1205 1.386 . S
C1201 H1158 0.930 . S
C1201 C1200 1.380 1_545 S
C1201 C1202 1.381 . S
C1202 H1159 0.929 . S
C1202 C1201 1.381 . S
C1202 C1203 1.329 1_545 S
C1203 C1202 1.329 1_565 S
C1203 C1204 1.414 . S
C1204 H1160 0.931 . S
C1204 C1203 1.414 . S
C1204 C1205 1.387 . S
C1205 H1161 0.930 . S
C1205 C1200 1.386 . S
C1205 C1204 1.387 . S
C1206 C1175 1.518 . S
C1206 C1207 1.377 1_565 S
C1206 C1211 1.361 . S
C1207 H1162 0.929 . S
C1207 C1206 1.377 1_545 S
C1207 C1208 1.386 . S
C1208 H1163 0.931 . S
C1208 C1207 1.386 . S
C1208 C1209 1.363 1_545 S
C1209 C1208 1.363 1_565 S
C1209 C1210 1.385 . S
C1210 H1164 0.930 . S
C1210 C1209 1.385 . S
C1210 C1211 1.396 . S
C1211 H1165 0.929 . S
C1211 C1206 1.361 . S
C1211 C1210 1.396 . S
C1212 O1166 1.300 . S
C1212 O1167 1.209 1_545 S
C1212 C1185 1.486 . S
C1213 O1168 1.199 1_565 S
C1213 O1169 1.297 . S
C1213 C1197 1.476 . S
H1214 O1240 0.856 . S
H1215 O1243 0.854 . S
H1216 C1251 0.930 . S
H1217 C1252 0.930 . S
H1218 C1254 0.930 . S
H1219 C1255 0.930 . S
H1220 C1257 0.931 . S
H1221 C1258 0.930 . S
H1222 C1260 0.930 . S
H1223 C1261 0.929 . S
H1224 C1263 0.930 . S
H1225 C1264 0.931 . S
H1226 C1266 0.930 . S
H1227 C1267 0.929 . S
H1228 C1269 0.931 . S
H1229 C1270 0.930 . S
H1230 C1272 0.930 . S
H1231 C1273 0.932 . S
H1232 C1275 0.930 . S
H1233 C1276 0.929 . S
H1234 C1278 0.931 . S
H1235 C1279 0.930 . S
H1236 C1281 0.929 . S
H1237 C1282 0.931 . S
H1238 C1284 0.930 . S
H1239 C1285 0.929 . S
O1240 H1214 0.856 . S
O1240 C1286 1.300 . S
O1241 C1286 1.209 1_455 S
O1242 C1287 1.199 1_655 S
O1243 H1215 0.854 . S
O1243 C1287 1.297 . S
C1244 C1245 1.404 . S
C1244 C1249 1.398 . S
C1244 C1250 1.492 . S
C1245 C1244 1.404 . S
C1245 C1246 1.396 . S
C1245 C1256 1.492 . S
C1246 C1245 1.396 . S
C1246 C1247 1.394 . S
C1246 C1262 1.509 . S
C1247 C1246 1.394 . S
C1247 C1248 1.388 1_655 S
C1247 C1268 1.500 1_655 S
C1248 C1247 1.388 1_455 S
C1248 C1249 1.407 1_455 S
C1248 C1274 1.485 . S
C1249 C1244 1.398 . S
C1249 C1248 1.407 1_655 S
C1249 C1280 1.521 1_655 S
C1250 C1244 1.492 . S
C1250 C1251 1.363 . S
C1250 C1255 1.390 1_655 S
C1251 H1216 0.930 . S
C1251 C1250 1.363 . S
C1251 C1252 1.372 . S
C1252 H1217 0.930 . S
C1252 C1251 1.372 . S
C1252 C1253 1.383 . S
C1253 C1252 1.383 . S
C1253 C1254 1.395 1_655 S
C1254 H1218 0.930 . S
C1254 C1253 1.395 1_455 S
C1254 C1255 1.362 . S
C1255 H1219 0.930 . S
C1255 C1250 1.390 1_455 S
C1255 C1254 1.362 . S
C1256 C1245 1.492 . S
C1256 C1257 1.377 . S
C1256 C1261 1.397 1_655 S
C1257 H1220 0.931 . S
C1257 C1256 1.377 . S
C1257 C1258 1.376 . S
C1258 H1221 0.930 . S
C1258 C1257 1.376 . S
C1258 C1259 1.376 . S
C1259 C1258 1.376 . S
C1259 C1260 1.378 1_655 S
C1259 C1286 1.486 . S
C1260 H1222 0.930 . S
C1260 C1259 1.378 1_455 S
C1260 C1261 1.376 . S
C1261 H1223 0.929 . S
C1261 C1256 1.397 1_455 S
C1261 C1260 1.376 . S
C1262 C1246 1.509 . S
C1262 C1263 1.391 . S
C1262 C1267 1.386 1_655 S
C1263 H1224 0.930 . S
C1263 C1262 1.391 . S
C1263 C1264 1.375 . S
C1264 H1225 0.931 . S
C1264 C1263 1.375 . S
C1264 C1265 1.375 . S
C1265 C1264 1.375 . S
C1265 C1266 1.361 1_655 S
C1266 H1226 0.930 . S
C1266 C1265 1.361 1_455 S
C1266 C1267 1.399 . S
C1267 H1227 0.929 . S
C1267 C1262 1.386 1_455 S
C1267 C1266 1.399 . S
C1268 C1247 1.500 1_455 S
C1268 C1269 1.394 1_455 S
C1268 C1273 1.360 . S
C1269 H1228 0.931 . S
C1269 C1268 1.394 1_655 S
C1269 C1270 1.372 . S
C1270 H1229 0.930 . S
C1270 C1269 1.372 . S
C1270 C1271 1.397 1_655 S
C1271 C1270 1.397 1_455 S
C1271 C1272 1.390 . S
C1271 C1287 1.476 . S
C1272 H1230 0.930 . S
C1272 C1271 1.390 . S
C1272 C1273 1.366 . S
C1273 H1231 0.932 . S
C1273 C1268 1.360 . S
C1273 C1272 1.366 . S
C1274 C1248 1.485 . S
C1274 C1275 1.380 1_455 S
C1274 C1279 1.386 . S
C1275 H1232 0.930 . S
C1275 C1274 1.380 1_655 S
C1275 C1276 1.381 . S
C1276 H1233 0.929 . S
C1276 C1275 1.381 . S
C1276 C1277 1.371 1_655 S
C1277 C1276 1.371 1_455 S
C1277 C1278 1.380 . S
C1278 H1234 0.931 . S
C1278 C1277 1.380 . S
C1278 C1279 1.387 . S
C1279 H1235 0.930 . S
C1279 C1274 1.386 . S
C1279 C1278 1.387 . S
C1280 C1249 1.521 1_455 S
C1280 C1281 1.377 1_455 S
C1280 C1285 1.361 . S
C1281 H1236 0.929 . S
C1281 C1280 1.377 1_655 S
C1281 C1282 1.386 . S
C1282 H1237 0.931 . S
C1282 C1281 1.386 . S
C1282 C1283 1.363 1_655 S
C1283 C1282 1.363 1_455 S
C1283 C1284 1.385 . S
C1284 H1238 0.930 . S
C1284 C1283 1.385 . S
C1284 C1285 1.396 . S
C1285 H1239 0.929 . S
C1285 C1280 1.361 . S
C1285 C1284 1.396 . S
C1286 O1240 1.300 . S
C1286 O1241 1.209 1_655 S
C1286 C1259 1.486 . S
C1287 O1242 1.199 1_455 S
C1287 O1243 1.297 . S
C1287 C1271 1.476 . S
H1288 O1314 0.856 . S
H1289 O1317 0.854 . S
H1290 C1325 0.930 . S
H1291 C1326 0.930 . S
H1292 C1328 0.930 . S
H1293 C1329 0.930 . S
H1294 C1331 0.931 . S
H1295 C1332 0.930 . S
H1296 C1334 0.930 . S
H1297 C1335 0.929 . S
H1298 C1337 0.930 . S
H1299 C1338 0.931 . S
H1300 C1340 0.930 . S
H1301 C1341 0.929 . S
H1302 C1343 0.931 . S
H1303 C1344 0.930 . S
H1304 C1346 0.930 . S
H1305 C1347 0.932 . S
H1306 C1349 0.930 . S
H1307 C1350 0.929 . S
H1308 C1352 0.931 . S
H1309 C1353 0.930 . S
H1310 C1355 0.929 . S
H1311 C1356 0.931 . S
H1312 C1358 0.930 . S
H1313 C1359 0.929 . S
O1314 H1288 0.856 . S
O1314 C1360 1.300 . S
O1315 C1360 1.209 . S
O1316 C1361 1.199 . S
O1317 H1289 0.854 . S
O1317 C1361 1.297 . S
C1318 C1319 1.404 . S
C1318 C1323 1.397 . S
C1318 C1324 1.492 . S
C1319 C1318 1.404 . S
C1319 C1320 1.396 . S
C1319 C1330 1.492 . S
C1320 C1319 1.396 . S
C1320 C1321 1.397 . S
C1320 C1336 1.509 . S
C1321 C1320 1.397 . S
C1321 C1322 1.412 . S
C1321 C1342 1.485 . S
C1322 C1321 1.412 . S
C1322 C1323 1.388 . S
C1322 C1348 1.490 . S
C1323 C1318 1.397 . S
C1323 C1322 1.388 . S
C1323 C1354 1.519 . S
C1324 C1318 1.492 . S
C1324 C1325 1.363 . S
C1324 C1329 1.390 . S
C1325 H1290 0.930 . S
C1325 C1324 1.363 . S
C1325 C1326 1.372 . S
C1326 H1291 0.930 . S
C1326 C1325 1.372 . S
C1326 C1327 1.383 . S
C1327 C1326 1.383 . S
C1327 C1328 1.395 . S
C1328 H1292 0.930 . S
C1328 C1327 1.395 . S
C1328 C1329 1.362 . S
C1329 H1293 0.930 . S
C1329 C1324 1.390 . S
C1329 C1328 1.362 . S
C1330 C1319 1.492 . S
C1330 C1331 1.377 . S
C1330 C1335 1.397 . S
C1331 H1294 0.931 . S
C1331 C1330 1.377 . S
C1331 C1332 1.376 . S
C1332 H1295 0.930 . S
C1332 C1331 1.376 . S
C1332 C1333 1.376 . S
C1333 C1332 1.376 . S
C1333 C1334 1.378 . S
C1333 C1360 1.486 . S
C1334 H1296 0.930 . S
C1334 C1333 1.378 . S
C1334 C1335 1.376 . S
C1335 H1297 0.929 . S
C1335 C1330 1.397 . S
C1335 C1334 1.376 . S
C1336 C1320 1.509 . S
C1336 C1337 1.391 . S
C1336 C1341 1.386 . S
C1337 H1298 0.930 . S
C1337 C1336 1.391 . S
C1337 C1338 1.375 . S
C1338 H1299 0.931 . S
C1338 C1337 1.375 . S
C1338 C1339 1.375 . S
C1339 C1338 1.375 . S
C1339 C1340 1.361 . S
C1340 H1300 0.930 . S
C1340 C1339 1.361 . S
C1340 C1341 1.399 . S
C1341 H1301 0.929 . S
C1341 C1336 1.386 . S
C1341 C1340 1.399 . S
C1342 C1321 1.485 . S
C1342 C1343 1.394 . S
C1342 C1347 1.360 . S
C1343 H1302 0.931 . S
C1343 C1342 1.394 . S
C1343 C1344 1.372 . S
C1344 H1303 0.930 . S
C1344 C1343 1.372 . S
C1344 C1345 1.397 . S
C1345 C1344 1.397 . S
C1345 C1346 1.390 . S
C1345 C1361 1.476 . S
C1346 H1304 0.930 . S
C1346 C1345 1.390 . S
C1346 C1347 1.366 . S
C1347 H1305 0.932 . S
C1347 C1342 1.360 . S
C1347 C1346 1.366 . S
C1348 C1322 1.490 . S
C1348 C1349 1.380 . S
C1348 C1353 1.386 . S
C1349 H1306 0.930 . S
C1349 C1348 1.380 . S
C1349 C1350 1.381 . S
C1350 H1307 0.929 . S
C1350 C1349 1.381 . S
C1350 C1351 1.371 . S
C1351 C1350 1.371 . S
C1351 C1352 1.380 . S
C1352 H1308 0.931 . S
C1352 C1351 1.380 . S
C1352 C1353 1.387 . S
C1353 H1309 0.930 . S
C1353 C1348 1.386 . S
C1353 C1352 1.387 . S
C1354 C1323 1.519 . S
C1354 C1355 1.377 . S
C1354 C1359 1.361 . S
C1355 H1310 0.929 . S
C1355 C1354 1.377 . S
C1355 C1356 1.386 . S
C1356 H1311 0.931 . S
C1356 C1355 1.386 . S
C1356 C1357 1.363 . S
C1357 C1356 1.363 . S
C1357 C1358 1.385 . S
C1358 H1312 0.930 . S
C1358 C1357 1.385 . S
C1358 C1359 1.396 . S
C1359 H1313 0.929 . S
C1359 C1354 1.361 . S
C1359 C1358 1.396 . S
C1360 O1314 1.300 . S
C1360 O1315 1.209 . S
C1360 C1333 1.486 . S
C1361 O1316 1.199 . S
C1361 O1317 1.297 . S
C1361 C1345 1.476 . S
H1362 O1388 0.856 . S
H1363 O1391 0.854 . S
H1364 C1399 0.930 . S
H1365 C1400 0.930 . S
H1366 C1402 0.930 . S
H1367 C1403 0.930 . S
H1368 C1405 0.931 . S
H1369 C1406 0.930 . S
H1370 C1408 0.930 . S
H1371 C1409 0.929 . S
H1372 C1411 0.930 . S
H1373 C1412 0.931 . S
H1374 C1414 0.930 . S
H1375 C1415 0.929 . S
H1376 C1417 0.931 . S
H1377 C1418 0.930 . S
H1378 C1420 0.930 . S
H1379 C1421 0.932 . S
H1380 C1423 0.930 . S
H1381 C1424 0.929 . S
H1382 C1426 0.931 . S
H1383 C1427 0.930 . S
H1384 C1429 0.929 . S
H1385 C1430 0.931 . S
H1386 C1432 0.930 . S
H1387 C1433 0.929 . S
O1388 H1362 0.856 . S
O1388 C1434 1.300 . S
O1389 C1434 1.209 . S
O1390 C1435 1.199 . S
O1391 H1363 0.854 . S
O1391 C1435 1.297 . S
C1392 C1393 1.404 . S
C1392 C1397 1.397 . S
C1392 C1398 1.492 . S
C1393 C1392 1.404 . S
C1393 C1394 1.396 . S
C1393 C1404 1.492 . S
C1394 C1393 1.396 . S
C1394 C1395 1.397 . S
C1394 C1410 1.509 . S
C1395 C1394 1.397 . S
C1395 C1396 1.412 . S
C1395 C1416 1.485 . S
C1396 C1395 1.412 . S
C1396 C1397 1.388 . S
C1396 C1422 1.490 . S
C1397 C1392 1.397 . S
C1397 C1396 1.388 . S
C1397 C1428 1.519 . S
C1398 C1392 1.492 . S
C1398 C1399 1.363 . S
C1398 C1403 1.390 . S
C1399 H1364 0.930 . S
C1399 C1398 1.363 . S
C1399 C1400 1.372 . S
C1400 H1365 0.930 . S
C1400 C1399 1.372 . S
C1400 C1401 1.383 . S
C1401 C1400 1.383 . S
C1401 C1402 1.395 . S
C1402 H1366 0.930 . S
C1402 C1401 1.395 . S
C1402 C1403 1.362 . S
C1403 H1367 0.930 . S
C1403 C1398 1.390 . S
C1403 C1402 1.362 . S
C1404 C1393 1.492 . S
C1404 C1405 1.377 . S
C1404 C1409 1.397 . S
C1405 H1368 0.931 . S
C1405 C1404 1.377 . S
C1405 C1406 1.376 . S
C1406 H1369 0.930 . S
C1406 C1405 1.376 . S
C1406 C1407 1.376 . S
C1407 C1406 1.376 . S
C1407 C1408 1.378 . S
C1407 C1434 1.486 . S
C1408 H1370 0.930 . S
C1408 C1407 1.378 . S
C1408 C1409 1.376 . S
C1409 H1371 0.929 . S
C1409 C1404 1.397 . S
C1409 C1408 1.376 . S
C1410 C1394 1.509 . S
C1410 C1411 1.391 . S
C1410 C1415 1.386 . S
C1411 H1372 0.930 . S
C1411 C1410 1.391 . S
C1411 C1412 1.375 . S
C1412 H1373 0.931 . S
C1412 C1411 1.375 . S
C1412 C1413 1.375 . S
C1413 C1412 1.375 . S
C1413 C1414 1.361 . S
C1414 H1374 0.930 . S
C1414 C1413 1.361 . S
C1414 C1415 1.399 . S
C1415 H1375 0.929 . S
C1415 C1410 1.386 . S
C1415 C1414 1.399 . S
C1416 C1395 1.485 . S
C1416 C1417 1.394 . S
C1416 C1421 1.360 . S
C1417 H1376 0.931 . S
C1417 C1416 1.394 . S
C1417 C1418 1.372 . S
C1418 H1377 0.930 . S
C1418 C1417 1.372 . S
C1418 C1419 1.397 . S
C1419 C1418 1.397 . S
C1419 C1420 1.390 . S
C1419 C1435 1.476 . S
C1420 H1378 0.930 . S
C1420 C1419 1.390 . S
C1420 C1421 1.366 . S
C1421 H1379 0.932 . S
C1421 C1416 1.360 . S
C1421 C1420 1.366 . S
C1422 C1396 1.490 . S
C1422 C1423 1.380 . S
C1422 C1427 1.386 . S
C1423 H1380 0.930 . S
C1423 C1422 1.380 . S
C1423 C1424 1.381 . S
C1424 H1381 0.929 . S
C1424 C1423 1.381 . S
C1424 C1425 1.371 . S
C1425 C1424 1.371 . S
C1425 C1426 1.380 . S
C1426 H1382 0.931 . S
C1426 C1425 1.380 . S
C1426 C1427 1.387 . S
C1427 H1383 0.930 . S
C1427 C1422 1.386 . S
C1427 C1426 1.387 . S
C1428 C1397 1.519 . S
C1428 C1429 1.377 . S
C1428 C1433 1.361 . S
C1429 H1384 0.929 . S
C1429 C1428 1.377 . S
C1429 C1430 1.386 . S
C1430 H1385 0.931 . S
C1430 C1429 1.386 . S
C1430 C1431 1.363 . S
C1431 C1430 1.363 . S
C1431 C1432 1.385 . S
C1432 H1386 0.930 . S
C1432 C1431 1.385 . S
C1432 C1433 1.396 . S
C1433 H1387 0.929 . S
C1433 C1428 1.361 . S
C1433 C1432 1.396 . S
C1434 O1388 1.300 . S
C1434 O1389 1.209 . S
C1434 C1407 1.486 . S
C1435 O1390 1.199 . S
C1435 O1391 1.297 . S
C1435 C1419 1.476 . S
H1436 O1462 0.856 . S
H1437 O1465 0.854 . S
H1438 C1473 0.930 . S
H1439 C1474 0.930 . S
H1440 C1476 0.930 . S
H1441 C1477 0.930 . S
H1442 C1479 0.931 . S
H1443 C1480 0.930 . S
H1444 C1482 0.930 . S
H1445 C1483 0.929 . S
H1446 C1485 0.930 . S
H1447 C1486 0.931 . S
H1448 C1488 0.930 . S
H1449 C1489 0.929 . S
H1450 C1491 0.931 . S
H1451 C1492 0.930 . S
H1452 C1494 0.930 . S
H1453 C1495 0.932 . S
H1454 C1497 0.930 . S
H1455 C1498 0.929 . S
H1456 C1500 0.931 . S
H1457 C1501 0.930 . S
H1458 C1503 0.929 . S
H1459 C1504 0.931 . S
H1460 C1506 0.930 . S
H1461 C1507 0.929 . S
O1462 H1436 0.856 . S
O1462 C1508 1.300 . S
O1463 C1508 1.209 . S
O1464 C1509 1.199 . S
O1465 H1437 0.854 . S
O1465 C1509 1.297 . S
C1466 C1467 1.404 . S
C1466 C1471 1.397 . S
C1466 C1472 1.492 . S
C1467 C1466 1.404 . S
C1467 C1468 1.396 . S
C1467 C1478 1.492 . S
C1468 C1467 1.396 . S
C1468 C1469 1.397 . S
C1468 C1484 1.509 . S
C1469 C1468 1.397 . S
C1469 C1470 1.412 . S
C1469 C1490 1.485 . S
C1470 C1469 1.412 . S
C1470 C1471 1.388 . S
C1470 C1496 1.490 . S
C1471 C1466 1.397 . S
C1471 C1470 1.388 . S
C1471 C1502 1.519 . S
C1472 C1466 1.492 . S
C1472 C1473 1.363 . S
C1472 C1477 1.390 . S
C1473 H1438 0.930 . S
C1473 C1472 1.363 . S
C1473 C1474 1.372 . S
C1474 H1439 0.930 . S
C1474 C1473 1.372 . S
C1474 C1475 1.383 . S
C1475 C1474 1.383 . S
C1475 C1476 1.395 . S
C1476 H1440 0.930 . S
C1476 C1475 1.395 . S
C1476 C1477 1.362 . S
C1477 H1441 0.930 . S
C1477 C1472 1.390 . S
C1477 C1476 1.362 . S
C1478 C1467 1.492 . S
C1478 C1479 1.377 . S
C1478 C1483 1.397 . S
C1479 H1442 0.931 . S
C1479 C1478 1.377 . S
C1479 C1480 1.376 . S
C1480 H1443 0.930 . S
C1480 C1479 1.376 . S
C1480 C1481 1.376 . S
C1481 C1480 1.376 . S
C1481 C1482 1.378 . S
C1481 C1508 1.486 . S
C1482 H1444 0.930 . S
C1482 C1481 1.378 . S
C1482 C1483 1.376 . S
C1483 H1445 0.929 . S
C1483 C1478 1.397 . S
C1483 C1482 1.376 . S
C1484 C1468 1.509 . S
C1484 C1485 1.391 . S
C1484 C1489 1.386 . S
C1485 H1446 0.930 . S
C1485 C1484 1.391 . S
C1485 C1486 1.375 . S
C1486 H1447 0.931 . S
C1486 C1485 1.375 . S
C1486 C1487 1.375 . S
C1487 C1486 1.375 . S
C1487 C1488 1.361 . S
C1488 H1448 0.930 . S
C1488 C1487 1.361 . S
C1488 C1489 1.399 . S
C1489 H1449 0.929 . S
C1489 C1484 1.386 . S
C1489 C1488 1.399 . S
C1490 C1469 1.485 . S
C1490 C1491 1.394 . S
C1490 C1495 1.360 . S
C1491 H1450 0.931 . S
C1491 C1490 1.394 . S
C1491 C1492 1.372 . S
C1492 H1451 0.930 . S
C1492 C1491 1.372 . S
C1492 C1493 1.397 . S
C1493 C1492 1.397 . S
C1493 C1494 1.390 . S
C1493 C1509 1.476 . S
C1494 H1452 0.930 . S
C1494 C1493 1.390 . S
C1494 C1495 1.366 . S
C1495 H1453 0.932 . S
C1495 C1490 1.360 . S
C1495 C1494 1.366 . S
C1496 C1470 1.490 . S
C1496 C1497 1.380 . S
C1496 C1501 1.386 . S
C1497 H1454 0.930 . S
C1497 C1496 1.380 . S
C1497 C1498 1.381 . S
C1498 H1455 0.929 . S
C1498 C1497 1.381 . S
C1498 C1499 1.371 . S
C1499 C1498 1.371 . S
C1499 C1500 1.380 . S
C1500 H1456 0.931 . S
C1500 C1499 1.380 . S
C1500 C1501 1.387 . S
C1501 H1457 0.930 . S
C1501 C1496 1.386 . S
C1501 C1500 1.387 . S
C1502 C1471 1.519 . S
C1502 C1503 1.377 . S
C1502 C1507 1.361 . S
C1503 H1458 0.929 . S
C1503 C1502 1.377 . S
C1503 C1504 1.386 . S
C1504 H1459 0.931 . S
C1504 C1503 1.386 . S
C1504 C1505 1.363 . S
C1505 C1504 1.363 . S
C1505 C1506 1.385 . S
C1506 H1460 0.930 . S
C1506 C1505 1.385 . S
C1506 C1507 1.396 . S
C1507 H1461 0.929 . S
C1507 C1502 1.361 . S
C1507 C1506 1.396 . S
C1508 O1462 1.300 . S
C1508 O1463 1.209 . S
C1508 C1481 1.486 . S
C1509 O1464 1.199 . S
C1509 O1465 1.297 . S
C1509 C1493 1.476 . S
H1510 O1536 0.856 . S
H1511 O1539 0.854 . S
H1512 C1547 0.930 . S
H1513 C1548 0.930 . S
H1514 C1550 0.930 . S
H1515 C1551 0.930 . S
H1516 C1553 0.931 . S
H1517 C1554 0.930 . S
H1518 C1556 0.930 . S
H1519 C1557 0.929 . S
H1520 C1559 0.930 . S
H1521 C1560 0.931 . S
H1522 C1562 0.930 . S
H1523 C1563 0.929 . S
H1524 C1565 0.931 . S
H1525 C1566 0.930 . S
H1526 C1568 0.930 . S
H1527 C1569 0.932 . S
H1528 C1571 0.930 . S
H1529 C1572 0.929 . S
H1530 C1574 0.931 . S
H1531 C1575 0.930 . S
H1532 C1577 0.929 . S
H1533 C1578 0.931 . S
H1534 C1580 0.930 . S
H1535 C1581 0.929 . S
O1536 H1510 0.856 . S
O1536 C1582 1.300 . S
O1537 C1582 1.209 . S
O1538 C1583 1.199 . S
O1539 H1511 0.854 . S
O1539 C1583 1.297 . S
C1540 C1541 1.404 . S
C1540 C1545 1.397 . S
C1540 C1546 1.492 . S
C1541 C1540 1.404 . S
C1541 C1542 1.396 . S
C1541 C1552 1.492 . S
C1542 C1541 1.396 . S
C1542 C1543 1.397 . S
C1542 C1558 1.509 . S
C1543 C1542 1.397 . S
C1543 C1544 1.412 . S
C1543 C1564 1.485 . S
C1544 C1543 1.412 . S
C1544 C1545 1.388 . S
C1544 C1570 1.490 . S
C1545 C1540 1.397 . S
C1545 C1544 1.388 . S
C1545 C1576 1.519 . S
C1546 C1540 1.492 . S
C1546 C1547 1.363 . S
C1546 C1551 1.390 . S
C1547 H1512 0.930 . S
C1547 C1546 1.363 . S
C1547 C1548 1.372 . S
C1548 H1513 0.930 . S
C1548 C1547 1.372 . S
C1548 C1549 1.383 . S
C1549 C1548 1.383 . S
C1549 C1550 1.395 . S
C1550 H1514 0.930 . S
C1550 C1549 1.395 . S
C1550 C1551 1.362 . S
C1551 H1515 0.930 . S
C1551 C1546 1.390 . S
C1551 C1550 1.362 . S
C1552 C1541 1.492 . S
C1552 C1553 1.377 . S
C1552 C1557 1.397 . S
C1553 H1516 0.931 . S
C1553 C1552 1.377 . S
C1553 C1554 1.376 . S
C1554 H1517 0.930 . S
C1554 C1553 1.376 . S
C1554 C1555 1.376 . S
C1555 C1554 1.376 . S
C1555 C1556 1.378 . S
C1555 C1582 1.486 . S
C1556 H1518 0.930 . S
C1556 C1555 1.378 . S
C1556 C1557 1.376 . S
C1557 H1519 0.929 . S
C1557 C1552 1.397 . S
C1557 C1556 1.376 . S
C1558 C1542 1.509 . S
C1558 C1559 1.391 . S
C1558 C1563 1.386 . S
C1559 H1520 0.930 . S
C1559 C1558 1.391 . S
C1559 C1560 1.375 . S
C1560 H1521 0.931 . S
C1560 C1559 1.375 . S
C1560 C1561 1.375 . S
C1561 C1560 1.375 . S
C1561 C1562 1.361 . S
C1562 H1522 0.930 . S
C1562 C1561 1.361 . S
C1562 C1563 1.399 . S
C1563 H1523 0.929 . S
C1563 C1558 1.386 . S
C1563 C1562 1.399 . S
C1564 C1543 1.485 . S
C1564 C1565 1.394 . S
C1564 C1569 1.360 . S
C1565 H1524 0.931 . S
C1565 C1564 1.394 . S
C1565 C1566 1.372 . S
C1566 H1525 0.930 . S
C1566 C1565 1.372 . S
C1566 C1567 1.397 . S
C1567 C1566 1.397 . S
C1567 C1568 1.390 . S
C1567 C1583 1.476 . S
C1568 H1526 0.930 . S
C1568 C1567 1.390 . S
C1568 C1569 1.366 . S
C1569 H1527 0.932 . S
C1569 C1564 1.360 . S
C1569 C1568 1.366 . S
C1570 C1544 1.490 . S
C1570 C1571 1.380 . S
C1570 C1575 1.386 . S
C1571 H1528 0.930 . S
C1571 C1570 1.380 . S
C1571 C1572 1.381 . S
C1572 H1529 0.929 . S
C1572 C1571 1.381 . S
C1572 C1573 1.371 . S
C1573 C1572 1.371 . S
C1573 C1574 1.380 . S
C1574 H1530 0.931 . S
C1574 C1573 1.380 . S
C1574 C1575 1.387 . S
C1575 H1531 0.930 . S
C1575 C1570 1.386 . S
C1575 C1574 1.387 . S
C1576 C1545 1.519 . S
C1576 C1577 1.377 . S
C1576 C1581 1.361 . S
C1577 H1532 0.929 . S
C1577 C1576 1.377 . S
C1577 C1578 1.386 . S
C1578 H1533 0.931 . S
C1578 C1577 1.386 . S
C1578 C1579 1.363 . S
C1579 C1578 1.363 . S
C1579 C1580 1.385 . S
C1580 H1534 0.930 . S
C1580 C1579 1.385 . S
C1580 C1581 1.396 . S
C1581 H1535 0.929 . S
C1581 C1576 1.361 . S
C1581 C1580 1.396 . S
C1582 O1536 1.300 . S
C1582 O1537 1.209 . S
C1582 C1555 1.486 . S
C1583 O1538 1.199 . S
C1583 O1539 1.297 . S
C1583 C1567 1.476 . S
C1584 C1585 1.369 . S
C1584 C1586 1.419 . S
C1584 H1588 0.930 1_655 S
C1585 C1584 1.369 . S
C1585 C1594 1.429 . S
C1586 C1584 1.419 . S
C1586 C1587 1.363 . S
C1586 H1589 0.924 1_655 S
C1587 C1586 1.363 . S
C1587 C1593 1.428 . S
H1588 C1584 0.930 1_455 S
H1589 C1586 0.924 1_455 S
S1590 N1591 1.613 . S
S1590 N1592 1.610 . S
N1591 S1590 1.613 . S
N1591 C1594 1.350 . S
N1592 S1590 1.610 . S
N1592 C1593 1.351 . S
C1593 C1587 1.428 . S
C1593 N1592 1.351 . S
C1593 C1594 1.434 . S
C1594 C1585 1.429 . S
C1594 N1591 1.350 . S
C1594 C1593 1.434 . S
C1595 C1596 1.369 . S
C1595 C1597 1.419 . S
C1595 H1599 0.930 . S
C1596 C1595 1.369 . S
C1596 C1605 1.429 . S
C1597 C1595 1.419 . S
C1597 C1598 1.363 . S
C1597 H1600 0.929 . S
C1598 C1597 1.363 . S
C1598 C1604 1.428 . S
H1599 C1595 0.930 . S
H1600 C1597 0.929 . S
S1601 N1602 1.613 . S
S1601 N1603 1.610 . S
N1602 S1601 1.613 . S
N1602 C1605 1.350 . S
N1603 S1601 1.610 . S
N1603 C1604 1.351 . S
C1604 C1598 1.428 . S
C1604 N1603 1.351 . S
C1604 C1605 1.434 . S
C1605 C1596 1.429 . S
C1605 N1602 1.350 . S
C1605 C1604 1.434 . S
C1606 C1607 1.369 . S
C1606 C1608 1.419 . S
C1606 H1610 0.930 . S
C1607 C1606 1.369 . S
C1607 C1616 1.429 . S
C1608 C1606 1.419 . S
C1608 C1609 1.363 . S
C1608 H1611 0.929 . S
C1609 C1608 1.363 . S
C1609 C1615 1.428 . S
H1610 C1606 0.930 . S
H1611 C1608 0.929 . S
S1612 N1613 1.613 . S
S1612 N1614 1.610 . S
N1613 S1612 1.613 . S
N1613 C1616 1.350 . S
N1614 S1612 1.610 . S
N1614 C1615 1.351 . S
C1615 C1609 1.428 . S
C1615 N1614 1.351 . S
C1615 C1616 1.434 . S
C1616 C1607 1.429 . S
C1616 N1613 1.350 . S
C1616 C1615 1.434 . S
C1617 C1618 1.369 . S
C1617 C1619 1.419 . S
C1617 H1621 0.930 1_565 S
C1618 C1617 1.369 . S
C1618 C1627 1.429 . S
C1619 C1617 1.419 . S
C1619 C1620 1.363 . S
C1619 H1622 0.929 1_565 S
C1620 C1619 1.363 . S
C1620 C1626 1.428 . S
H1621 C1617 0.930 1_545 S
H1622 C1619 0.929 1_545 S
S1623 N1624 1.613 . S
S1623 N1625 1.610 . S
N1624 S1623 1.613 . S
N1624 C1627 1.350 . S
N1625 S1623 1.610 . S
N1625 C1626 1.351 . S
C1626 C1620 1.428 . S
C1626 N1625 1.351 . S
C1626 C1627 1.434 . S
C1627 C1618 1.429 . S
C1627 N1624 1.350 . S
C1627 C1626 1.434 . S
C1628 C1629 1.369 . S
C1628 C1630 1.419 . S
C1628 H1632 0.930 . S
C1629 C1628 1.369 . S
C1629 C1638 1.429 1_455 S
C1630 C1628 1.419 . S
C1630 C1631 1.363 . S
C1630 H1633 0.929 . S
C1631 C1630 1.363 . S
C1631 C1637 1.428 1_455 S
H1632 C1628 0.930 . S
H1633 C1630 0.929 . S
S1634 N1635 1.613 . S
S1634 N1636 1.610 . S
N1635 S1634 1.613 . S
N1635 C1638 1.350 . S
N1636 S1634 1.610 . S
N1636 C1637 1.351 . S
C1637 C1631 1.428 1_655 S
C1637 N1636 1.351 . S
C1637 C1638 1.434 . S
C1638 C1629 1.429 1_655 S
C1638 N1635 1.350 . S
C1638 C1637 1.434 . S
C1639 C1640 1.369 1_556 S
C1639 C1641 1.419 . S
C1639 H1643 0.930 1_556 S
C1640 C1639 1.369 1_554 S
C1640 C1649 1.429 . S
C1641 C1639 1.419 . S
C1641 C1642 1.363 . S
C1641 H1644 0.929 . S
C1642 C1641 1.363 . S
C1642 C1648 1.428 . S
H1643 C1639 0.930 1_554 S
H1644 C1641 0.929 . S
S1645 N1646 1.613 1_556 S
S1645 N1647 1.610 . S
N1646 S1645 1.613 1_554 S
N1646 C1649 1.350 . S
N1647 S1645 1.610 . S
N1647 C1648 1.351 . S
C1648 C1642 1.428 . S
C1648 N1647 1.351 . S
C1648 C1649 1.434 1_556 S
C1649 C1640 1.429 . S
C1649 N1646 1.350 . S
C1649 C1648 1.434 1_554 S
C1650 C1651 1.369 . S
C1650 C1652 1.420 1_455 S
C1650 H1654 0.908 1_455 S
C1651 C1650 1.369 . S
C1651 C1660 1.429 1_556 S
C1652 C1650 1.420 1_655 S
C1652 C1653 1.361 1_655 S
C1652 H1655 0.930 . S
C1653 C1652 1.361 1_455 S
C1653 C1659 1.428 . S
H1654 C1650 0.908 1_655 S
H1655 C1652 0.930 . S
S1656 N1657 1.613 . S
S1656 N1658 1.610 . S
N1657 S1656 1.613 . S
N1657 C1660 1.350 . S
N1658 S1656 1.610 . S
N1658 C1659 1.351 1_554 S
C1659 C1653 1.428 . S
C1659 N1658 1.351 1_556 S
C1659 C1660 1.434 1_556 S
C1660 C1651 1.429 1_554 S
C1660 N1657 1.350 . S
C1660 C1659 1.434 1_554 S
C1661 C1662 1.369 . S
C1661 C1663 1.419 . S
C1661 H1665 0.930 . S
C1662 C1661 1.369 . S
C1662 C1671 1.429 . S
C1663 C1661 1.419 . S
C1663 C1664 1.363 . S
C1663 H1666 0.929 . S
C1664 C1663 1.363 . S
C1664 C1670 1.428 . S
H1665 C1661 0.930 . S
H1666 C1663 0.929 . S
S1667 N1668 1.613 . S
S1667 N1669 1.610 . S
N1668 S1667 1.613 . S
N1668 C1671 1.350 . S
N1669 S1667 1.610 . S
N1669 C1670 1.351 . S
C1670 C1664 1.428 . S
C1670 N1669 1.351 . S
C1670 C1671 1.434 . S
C1671 C1662 1.429 . S
C1671 N1668 1.350 . S
C1671 C1670 1.434 . S
C1672 C1673 1.369 . S
C1672 C1674 1.419 . S
C1672 H1676 0.930 . S
C1673 C1672 1.369 . S
C1673 C1682 1.429 1_565 S
C1674 C1672 1.419 . S
C1674 C1675 1.363 . S
C1674 H1677 0.929 . S
C1675 C1674 1.363 . S
C1675 C1681 1.428 1_565 S
H1676 C1672 0.930 . S
H1677 C1674 0.929 . S
S1678 N1679 1.613 . S
S1678 N1680 1.610 . S
N1679 S1678 1.613 . S
N1679 C1682 1.350 . S
N1680 S1678 1.610 . S
N1680 C1681 1.351 . S
C1681 C1675 1.428 1_545 S
C1681 N1680 1.351 . S
C1681 C1682 1.434 . S
C1682 C1673 1.429 1_545 S
C1682 N1679 1.350 . S
C1682 C1681 1.434 . S
C1683 C1684 1.369 . S
C1683 C1685 1.419 . S
C1683 H1687 0.930 . S
C1684 C1683 1.369 . S
C1684 C1693 1.429 . S
C1685 C1683 1.419 . S
C1685 C1686 1.363 . S
C1685 H1688 0.932 1_545 S
C1686 C1685 1.363 . S
C1686 C1692 1.428 . S
H1687 C1683 0.930 . S
H1688 C1685 0.932 1_565 S
S1689 N1690 1.613 . S
S1689 N1691 1.610 . S
N1690 S1689 1.613 . S
N1690 C1693 1.350 . S
N1691 S1689 1.610 . S
N1691 C1692 1.351 . S
C1692 C1686 1.428 . S
C1692 N1691 1.351 . S
C1692 C1693 1.434 . S
C1693 C1684 1.429 . S
C1693 N1690 1.350 . S
C1693 C1692 1.434 . S
C1694 C1695 1.373 . S
C1694 C1696 1.408 1_655 S
C1694 H1698 0.937 1_655 S
C1695 C1694 1.373 . S
C1695 C1704 1.429 . S
C1696 C1694 1.408 1_455 S
C1696 C1697 1.363 1_455 S
C1696 H1699 0.929 . S
C1697 C1696 1.363 1_655 S
C1697 C1703 1.428 . S
H1698 C1694 0.937 1_455 S
H1699 C1696 0.929 . S
S1700 N1701 1.613 . S
S1700 N1702 1.610 . S
N1701 S1700 1.613 . S
N1701 C1704 1.350 . S
N1702 S1700 1.610 . S
N1702 C1703 1.351 . S
C1703 C1697 1.428 . S
C1703 N1702 1.351 . S
C1703 C1704 1.434 . S
C1704 C1695 1.429 . S
C1704 N1701 1.350 . S
C1704 C1703 1.434 . S
C1705 C1706 1.369 . S
C1705 C1707 1.419 . S
C1705 H1709 0.930 . S
C1706 C1705 1.369 . S
C1706 C1715 1.429 . S
C1707 C1705 1.419 . S
C1707 C1708 1.363 . S
C1707 H1710 0.929 . S
C1708 C1707 1.363 . S
C1708 C1714 1.428 . S
H1709 C1705 0.930 . S
H1710 C1707 0.929 . S
S1711 N1712 1.613 . S
S1711 N1713 1.610 . S
N1712 S1711 1.613 . S
N1712 C1715 1.350 . S
N1713 S1711 1.610 . S
N1713 C1714 1.351 . S
C1714 C1708 1.428 . S
C1714 N1713 1.351 . S
C1714 C1715 1.434 . S
C1715 C1706 1.429 . S
C1715 N1712 1.350 . S
C1715 C1714 1.434 . S
C1716 C1717 1.369 . S
C1716 C1718 1.419 . S
C1716 H1720 0.930 . S
C1717 C1716 1.369 . S
C1717 C1726 1.429 . S
C1718 C1716 1.419 . S
C1718 C1719 1.363 . S
C1718 H1721 0.929 . S
C1719 C1718 1.363 . S
C1719 C1725 1.428 . S
H1720 C1716 0.930 . S
H1721 C1718 0.929 . S
S1722 N1723 1.613 . S
S1722 N1724 1.610 . S
N1723 S1722 1.613 . S
N1723 C1726 1.350 . S
N1724 S1722 1.610 . S
N1724 C1725 1.351 . S
C1725 C1719 1.428 . S
C1725 N1724 1.351 . S
C1725 C1726 1.434 . S
C1726 C1717 1.429 . S
C1726 N1723 1.350 . S
C1726 C1725 1.434 . S
C1727 C1728 1.369 . S
C1727 C1729 1.419 . S
C1727 H1731 0.930 . S
C1728 C1727 1.369 . S
C1728 C1737 1.429 . S
C1729 C1727 1.419 . S
C1729 C1730 1.363 . S
C1729 H1732 0.929 . S
C1730 C1729 1.363 . S
C1730 C1736 1.428 . S
H1731 C1727 0.930 . S
H1732 C1729 0.929 . S
S1733 N1734 1.613 . S
S1733 N1735 1.610 . S
N1734 S1733 1.613 . S
N1734 C1737 1.350 . S
N1735 S1733 1.610 . S
N1735 C1736 1.351 . S
C1736 C1730 1.428 . S
C1736 N1735 1.351 . S
C1736 C1737 1.434 . S
C1737 C1728 1.429 . S
C1737 N1734 1.350 . S
C1737 C1736 1.434 . S
C1738 C1739 1.369 . S
C1738 C1740 1.419 . S
C1738 H1742 0.930 . S
C1739 C1738 1.369 . S
C1739 C1748 1.429 . S
C1740 C1738 1.419 . S
C1740 C1741 1.363 . S
C1740 H1743 0.929 . S
C1741 C1740 1.363 . S
C1741 C1747 1.428 . S
H1742 C1738 0.930 . S
H1743 C1740 0.929 . S
S1744 N1745 1.613 . S
S1744 N1746 1.610 . S
N1745 S1744 1.613 . S
N1745 C1748 1.350 . S
N1746 S1744 1.610 . S
N1746 C1747 1.351 . S
C1747 C1741 1.428 . S
C1747 N1746 1.351 . S
C1747 C1748 1.434 . S
C1748 C1739 1.429 . S
C1748 N1745 1.350 . S
C1748 C1747 1.434 . S
C1749 C1750 1.369 . S
C1749 C1751 1.419 . S
C1749 H1753 0.930 . S
C1750 C1749 1.369 . S
C1750 C1759 1.429 . S
C1751 C1749 1.419 . S
C1751 C1752 1.363 . S
C1751 H1754 0.929 . S
C1752 C1751 1.363 . S
C1752 C1758 1.428 . S
H1753 C1749 0.930 . S
H1754 C1751 0.929 . S
S1755 N1756 1.613 . S
S1755 N1757 1.610 . S
N1756 S1755 1.613 . S
N1756 C1759 1.350 . S
N1757 S1755 1.610 . S
N1757 C1758 1.351 . S
C1758 C1752 1.428 . S
C1758 N1757 1.351 . S
C1758 C1759 1.434 . S
C1759 C1750 1.429 . S
C1759 N1756 1.350 . S
C1759 C1758 1.434 . S
C1760 C1761 1.369 . S
C1760 C1762 1.419 . S
C1760 H1764 0.930 . S
C1761 C1760 1.369 . S
C1761 C1770 1.429 . S
C1762 C1760 1.419 . S
C1762 C1763 1.363 . S
C1762 H1765 0.929 . S
C1763 C1762 1.363 . S
C1763 C1769 1.428 . S
H1764 C1760 0.930 . S
H1765 C1762 0.929 . S
S1766 N1767 1.613 . S
S1766 N1768 1.610 . S
N1767 S1766 1.613 . S
N1767 C1770 1.350 . S
N1768 S1766 1.610 . S
N1768 C1769 1.351 . S
C1769 C1763 1.428 . S
C1769 N1768 1.351 . S
C1769 C1770 1.434 . S
C1770 C1761 1.429 . S
C1770 N1767 1.350 . S
C1770 C1769 1.434 . S
C1771 C1772 1.369 . S
C1771 C1773 1.419 . S
C1771 H1775 0.930 . S
C1772 C1771 1.369 . S
C1772 C1781 1.429 . S
C1773 C1771 1.419 . S
C1773 C1774 1.363 . S
C1773 H1776 0.929 . S
C1774 C1773 1.363 . S
C1774 C1780 1.428 . S
H1775 C1771 0.930 . S
H1776 C1773 0.929 . S
S1777 N1778 1.613 . S
S1777 N1779 1.610 . S
N1778 S1777 1.613 . S
N1778 C1781 1.350 . S
N1779 S1777 1.610 . S
N1779 C1780 1.351 . S
C1780 C1774 1.428 . S
C1780 N1779 1.351 . S
C1780 C1781 1.434 . S
C1781 C1772 1.429 . S
C1781 N1778 1.350 . S
C1781 C1780 1.434 . S
C1782 C1783 1.369 . S
C1782 C1784 1.419 . S
C1782 H1786 0.930 . S
C1783 C1782 1.369 . S
C1783 C1792 1.429 . S
C1784 C1782 1.419 . S
C1784 C1785 1.363 . S
C1784 H1787 0.929 . S
C1785 C1784 1.363 . S
C1785 C1791 1.428 . S
H1786 C1782 0.930 . S
H1787 C1784 0.929 . S
S1788 N1789 1.613 . S
S1788 N1790 1.610 . S
N1789 S1788 1.613 . S
N1789 C1792 1.350 . S
N1790 S1788 1.610 . S
N1790 C1791 1.351 . S
C1791 C1785 1.428 . S
C1791 N1790 1.351 . S
C1791 C1792 1.434 . S
C1792 C1783 1.429 . S
C1792 N1789 1.350 . S
C1792 C1791 1.434 . S
C1793 C1794 1.369 . S
C1793 C1795 1.419 . S
C1793 H1797 0.930 . S
C1794 C1793 1.369 . S
C1794 C1803 1.429 . S
C1795 C1793 1.419 . S
C1795 C1796 1.363 . S
C1795 H1798 0.929 . S
C1796 C1795 1.363 . S
C1796 C1802 1.428 . S
H1797 C1793 0.930 . S
H1798 C1795 0.929 . S
S1799 N1800 1.613 . S
S1799 N1801 1.610 . S
N1800 S1799 1.613 . S
N1800 C1803 1.350 . S
N1801 S1799 1.610 . S
N1801 C1802 1.351 . S
C1802 C1796 1.428 . S
C1802 N1801 1.351 . S
C1802 C1803 1.434 . S
C1803 C1794 1.429 . S
C1803 N1800 1.350 . S
C1803 C1802 1.434 . S
C1804 C1805 1.369 . S
C1804 C1806 1.419 . S
C1804 H1808 0.930 . S
C1805 C1804 1.369 . S
C1805 C1814 1.429 . S
C1806 C1804 1.419 . S
C1806 C1807 1.363 . S
C1806 H1809 0.929 . S
C1807 C1806 1.363 . S
C1807 C1813 1.428 . S
H1808 C1804 0.930 . S
H1809 C1806 0.929 . S
S1810 N1811 1.613 . S
S1810 N1812 1.610 . S
N1811 S1810 1.613 . S
N1811 C1814 1.350 . S
N1812 S1810 1.610 . S
N1812 C1813 1.351 . S
C1813 C1807 1.428 . S
C1813 N1812 1.351 . S
C1813 C1814 1.434 . S
C1814 C1805 1.429 . S
C1814 N1811 1.350 . S
C1814 C1813 1.434 . S
C1815 C1816 1.369 . S
C1815 C1817 1.419 . S
C1815 H1819 0.930 . S
C1816 C1815 1.369 . S
C1816 C1825 1.429 . S
C1817 C1815 1.419 . S
C1817 C1818 1.363 . S
C1817 H1820 0.929 . S
C1818 C1817 1.363 . S
C1818 C1824 1.428 . S
H1819 C1815 0.930 . S
H1820 C1817 0.929 . S
S1821 N1822 1.613 . S
S1821 N1823 1.610 . S
N1822 S1821 1.613 . S
N1822 C1825 1.350 . S
N1823 S1821 1.610 . S
N1823 C1824 1.351 . S
C1824 C1818 1.428 . S
C1824 N1823 1.351 . S
C1824 C1825 1.434 . S
C1825 C1816 1.429 . S
C1825 N1822 1.350 . S
C1825 C1824 1.434 . S
C1826 C1827 1.369 . S
C1826 C1828 1.419 . S
C1826 H1830 0.930 . S
C1827 C1826 1.369 . S
C1827 C1836 1.429 . S
C1828 C1826 1.419 . S
C1828 C1829 1.363 . S
C1828 H1831 0.929 . S
C1829 C1828 1.363 . S
C1829 C1835 1.428 . S
H1830 C1826 0.930 . S
H1831 C1828 0.929 . S
S1832 N1833 1.613 . S
S1832 N1834 1.610 . S
N1833 S1832 1.613 . S
N1833 C1836 1.350 . S
N1834 S1832 1.610 . S
N1834 C1835 1.351 . S
C1835 C1829 1.428 . S
C1835 N1834 1.351 . S
C1835 C1836 1.434 . S
C1836 C1827 1.429 . S
C1836 N1833 1.350 . S
C1836 C1835 1.434 . S
C1837 C1838 1.369 . S
C1837 C1839 1.419 . S
C1837 H1841 0.930 . S
C1838 C1837 1.369 . S
C1838 C1847 1.429 . S
C1839 C1837 1.419 . S
C1839 C1840 1.363 . S
C1839 H1842 0.929 . S
C1840 C1839 1.363 . S
C1840 C1846 1.428 . S
H1841 C1837 0.930 . S
H1842 C1839 0.929 . S
S1843 N1844 1.613 . S
S1843 N1845 1.610 . S
N1844 S1843 1.613 . S
N1844 C1847 1.350 . S
N1845 S1843 1.610 . S
N1845 C1846 1.351 . S
C1846 C1840 1.428 . S
C1846 N1845 1.351 . S
C1846 C1847 1.434 . S
C1847 C1838 1.429 . S
C1847 N1844 1.350 . S
C1847 C1846 1.434 . S
C1848 C1849 1.369 . S
C1848 C1850 1.419 . S
C1848 H1852 0.930 . S
C1849 C1848 1.369 . S
C1849 C1858 1.429 . S
C1850 C1848 1.419 . S
C1850 C1851 1.363 . S
C1850 H1853 0.929 . S
C1851 C1850 1.363 . S
C1851 C1857 1.428 . S
H1852 C1848 0.930 . S
H1853 C1850 0.929 . S
S1854 N1855 1.613 . S
S1854 N1856 1.610 . S
N1855 S1854 1.613 . S
N1855 C1858 1.350 . S
N1856 S1854 1.610 . S
N1856 C1857 1.351 . S
C1857 C1851 1.428 . S
C1857 N1856 1.351 . S
C1857 C1858 1.434 . S
C1858 C1849 1.429 . S
C1858 N1855 1.350 . S
C1858 C1857 1.434 . S
C1859 C1860 1.369 . S
C1859 C1861 1.419 . S
C1859 H1863 0.930 . S
C1860 C1859 1.369 . S
C1860 C1869 1.429 . S
C1861 C1859 1.419 . S
C1861 C1862 1.363 . S
C1861 H1864 0.929 . S
C1862 C1861 1.363 . S
C1862 C1868 1.428 . S
H1863 C1859 0.930 . S
H1864 C1861 0.929 . S
S1865 N1866 1.613 . S
S1865 N1867 1.610 . S
N1866 S1865 1.613 . S
N1866 C1869 1.350 . S
N1867 S1865 1.610 . S
N1867 C1868 1.351 . S
C1868 C1862 1.428 . S
C1868 N1867 1.351 . S
C1868 C1869 1.434 . S
C1869 C1860 1.429 . S
C1869 N1866 1.350 . S
C1869 C1868 1.434 . S
C1870 C1871 1.369 . S
C1870 C1872 1.419 . S
C1870 H1874 0.930 . S
C1871 C1870 1.369 . S
C1871 C1880 1.429 . S
C1872 C1870 1.419 . S
C1872 C1873 1.363 . S
C1872 H1875 0.929 . S
C1873 C1872 1.363 . S
C1873 C1879 1.428 . S
H1874 C1870 0.930 . S
H1875 C1872 0.929 . S
S1876 N1877 1.613 . S
S1876 N1878 1.610 . S
N1877 S1876 1.613 . S
N1877 C1880 1.350 . S
N1878 S1876 1.610 . S
N1878 C1879 1.351 . S
C1879 C1873 1.428 . S
C1879 N1878 1.351 . S
C1879 C1880 1.434 . S
C1880 C1871 1.429 . S
C1880 N1877 1.350 . S
C1880 C1879 1.434 . S
C1881 C1882 1.369 . S
C1881 C1883 1.419 . S
C1881 H1885 0.930 . S
C1882 C1881 1.369 . S
C1882 C1891 1.429 . S
C1883 C1881 1.419 . S
C1883 C1884 1.363 . S
C1883 H1886 0.929 . S
C1884 C1883 1.363 . S
C1884 C1890 1.428 . S
H1885 C1881 0.930 . S
H1886 C1883 0.929 . S
S1887 N1888 1.613 . S
S1887 N1889 1.610 . S
N1888 S1887 1.613 . S
N1888 C1891 1.350 . S
N1889 S1887 1.610 . S
N1889 C1890 1.351 . S
C1890 C1884 1.428 . S
C1890 N1889 1.351 . S
C1890 C1891 1.434 . S
C1891 C1882 1.429 . S
C1891 N1888 1.350 . S
C1891 C1890 1.434 . S
C1892 C1893 1.369 . S
C1892 C1894 1.419 . S
C1892 H1896 0.930 . S
C1893 C1892 1.369 . S
C1893 C1902 1.429 . S
C1894 C1892 1.419 . S
C1894 C1895 1.363 . S
C1894 H1897 0.929 . S
C1895 C1894 1.363 . S
C1895 C1901 1.428 . S
H1896 C1892 0.930 . S
H1897 C1894 0.929 . S
S1898 N1899 1.613 . S
S1898 N1900 1.610 . S
N1899 S1898 1.613 . S
N1899 C1902 1.350 . S
N1900 S1898 1.610 . S
N1900 C1901 1.351 . S
C1901 C1895 1.428 . S
C1901 N1900 1.351 . S
C1901 C1902 1.434 . S
C1902 C1893 1.429 . S
C1902 N1899 1.350 . S
C1902 C1901 1.434 . S
C1903 C1904 1.369 . S
C1903 C1905 1.419 . S
C1903 H1907 0.930 . S
C1904 C1903 1.369 . S
C1904 C1913 1.429 . S
C1905 C1903 1.419 . S
C1905 C1906 1.363 . S
C1905 H1908 0.929 . S
C1906 C1905 1.363 . S
C1906 C1912 1.428 . S
H1907 C1903 0.930 . S
H1908 C1905 0.929 . S
S1909 N1910 1.613 . S
S1909 N1911 1.610 . S
N1910 S1909 1.613 . S
N1910 C1913 1.350 . S
N1911 S1909 1.610 . S
N1911 C1912 1.351 . S
C1912 C1906 1.428 . S
C1912 N1911 1.351 . S
C1912 C1913 1.434 . S
C1913 C1904 1.429 . S
C1913 N1910 1.350 . S
C1913 C1912 1.434 . S
C1914 C1915 1.369 . S
C1914 C1916 1.419 . S
C1914 H1918 0.930 . S
C1915 C1914 1.369 . S
C1915 C1924 1.429 . S
C1916 C1914 1.419 . S
C1916 C1917 1.363 . S
C1916 H1919 0.929 . S
C1917 C1916 1.363 . S
C1917 C1923 1.428 . S
H1918 C1914 0.930 . S
H1919 C1916 0.929 . S
S1920 N1921 1.613 . S
S1920 N1922 1.610 . S
N1921 S1920 1.613 . S
N1921 C1924 1.350 . S
N1922 S1920 1.610 . S
N1922 C1923 1.351 . S
C1923 C1917 1.428 . S
C1923 N1922 1.351 . S
C1923 C1924 1.434 . S
C1924 C1915 1.429 . S
C1924 N1921 1.350 . S
C1924 C1923 1.434 . S
C1925 C1926 1.369 . S
C1925 C1927 1.419 . S
C1925 H1929 0.930 . S
C1926 C1925 1.369 . S
C1926 C1935 1.429 . S
C1927 C1925 1.419 . S
C1927 C1928 1.363 . S
C1927 H1930 0.929 . S
C1928 C1927 1.363 . S
C1928 C1934 1.428 . S
H1929 C1925 0.930 . S
H1930 C1927 0.929 . S
S1931 N1932 1.613 . S
S1931 N1933 1.610 . S
N1932 S1931 1.613 . S
N1932 C1935 1.350 . S
N1933 S1931 1.610 . S
N1933 C1934 1.351 . S
C1934 C1928 1.428 . S
C1934 N1933 1.351 . S
C1934 C1935 1.434 . S
C1935 C1926 1.429 . S
C1935 N1932 1.350 . S
C1935 C1934 1.434 . S
C1936 C1937 1.369 . S
C1936 C1938 1.419 . S
C1936 H1940 0.930 . S
C1937 C1936 1.369 . S
C1937 C1946 1.429 . S
C1938 C1936 1.419 . S
C1938 C1939 1.363 . S
C1938 H1941 0.929 . S
C1939 C1938 1.363 . S
C1939 C1945 1.428 . S
H1940 C1936 0.930 . S
H1941 C1938 0.929 . S
S1942 N1943 1.613 . S
S1942 N1944 1.610 . S
N1943 S1942 1.613 . S
N1943 C1946 1.350 . S
N1944 S1942 1.610 . S
N1944 C1945 1.351 . S
C1945 C1939 1.428 . S
C1945 N1944 1.351 . S
C1945 C1946 1.434 . S
C1946 C1937 1.429 . S
C1946 N1943 1.350 . S
C1946 C1945 1.434 . S
C1947 C1948 1.369 . S
C1947 C1949 1.419 . S
C1947 H1951 0.930 . S
C1948 C1947 1.369 . S
C1948 C1957 1.429 . S
C1949 C1947 1.419 . S
C1949 C1950 1.363 . S
C1949 H1952 0.929 . S
C1950 C1949 1.363 . S
C1950 C1956 1.428 . S
H1951 C1947 0.930 . S
H1952 C1949 0.929 . S
S1953 N1954 1.613 . S
S1953 N1955 1.610 . S
N1954 S1953 1.613 . S
N1954 C1957 1.350 . S
N1955 S1953 1.610 . S
N1955 C1956 1.351 . S
C1956 C1950 1.428 . S
C1956 N1955 1.351 . S
C1956 C1957 1.434 . S
C1957 C1948 1.429 . S
C1957 N1954 1.350 . S
C1957 C1956 1.434 . S
C1958 C1959 1.369 . S
C1958 C1960 1.419 . S
C1958 H1962 0.930 . S
C1959 C1958 1.369 . S
C1959 C1968 1.429 . S
C1960 C1958 1.419 . S
C1960 C1961 1.363 . S
C1960 H1963 0.929 . S
C1961 C1960 1.363 . S
C1961 C1967 1.428 . S
H1962 C1958 0.930 . S
H1963 C1960 0.929 . S
S1964 N1965 1.613 . S
S1964 N1966 1.610 . S
N1965 S1964 1.613 . S
N1965 C1968 1.350 . S
N1966 S1964 1.610 . S
N1966 C1967 1.351 . S
C1967 C1961 1.428 . S
C1967 N1966 1.351 . S
C1967 C1968 1.434 . S
C1968 C1959 1.429 . S
C1968 N1965 1.350 . S
C1968 C1967 1.434 . S
C1969 C1970 1.369 . S
C1969 C1971 1.419 . S
C1969 H1973 0.930 . S
C1970 C1969 1.369 . S
C1970 C1979 1.429 . S
C1971 C1969 1.419 . S
C1971 C1972 1.363 . S
C1971 H1974 0.929 . S
C1972 C1971 1.363 . S
C1972 C1978 1.428 . S
H1973 C1969 0.930 . S
H1974 C1971 0.929 . S
S1975 N1976 1.613 . S
S1975 N1977 1.610 . S
N1976 S1975 1.613 . S
N1976 C1979 1.350 . S
N1977 S1975 1.610 . S
N1977 C1978 1.351 . S
C1978 C1972 1.428 . S
C1978 N1977 1.351 . S
C1978 C1979 1.434 . S
C1979 C1970 1.429 . S
C1979 N1976 1.350 . S
C1979 C1978 1.434 . S
C1980 C1981 1.369 . S
C1980 C1982 1.419 . S
C1980 H1984 0.930 . S
C1981 C1980 1.369 . S
C1981 C1990 1.429 . S
C1982 C1980 1.419 . S
C1982 C1983 1.363 . S
C1982 H1985 0.929 . S
C1983 C1982 1.363 . S
C1983 C1989 1.428 . S
H1984 C1980 0.930 . S
H1985 C1982 0.929 . S
S1986 N1987 1.613 . S
S1986 N1988 1.610 . S
N1987 S1986 1.613 . S
N1987 C1990 1.350 . S
N1988 S1986 1.610 . S
N1988 C1989 1.351 . S
C1989 C1983 1.428 . S
C1989 N1988 1.351 . S
C1989 C1990 1.434 . S
C1990 C1981 1.429 . S
C1990 N1987 1.350 . S
C1990 C1989 1.434 . S
C1991 C1992 1.369 . S
C1991 C1993 1.419 . S
C1991 H1995 0.930 . S
C1992 C1991 1.369 . S
C1992 C2001 1.429 . S
C1993 C1991 1.419 . S
C1993 C1994 1.363 . S
C1993 H1996 0.929 . S
C1994 C1993 1.363 . S
C1994 C2000 1.428 . S
H1995 C1991 0.930 . S
H1996 C1993 0.929 . S
S1997 N1998 1.613 . S
S1997 N1999 1.610 . S
N1998 S1997 1.613 . S
N1998 C2001 1.350 . S
N1999 S1997 1.610 . S
N1999 C2000 1.351 . S
C2000 C1994 1.428 . S
C2000 N1999 1.351 . S
C2000 C2001 1.434 . S
C2001 C1992 1.429 . S
C2001 N1998 1.350 . S
C2001 C2000 1.434 . S
C2002 C2003 1.369 . S
C2002 C2004 1.419 . S
C2002 H2006 0.930 . S
C2003 C2002 1.369 . S
C2003 C2012 1.429 . S
C2004 C2002 1.419 . S
C2004 C2005 1.363 . S
C2004 H2007 0.929 . S
C2005 C2004 1.363 . S
C2005 C2011 1.428 . S
H2006 C2002 0.930 . S
H2007 C2004 0.929 . S
S2008 N2009 1.613 . S
S2008 N2010 1.610 . S
N2009 S2008 1.613 . S
N2009 C2012 1.350 . S
N2010 S2008 1.610 . S
N2010 C2011 1.351 . S
C2011 C2005 1.428 . S
C2011 N2010 1.351 . S
C2011 C2012 1.434 . S
C2012 C2003 1.429 . S
C2012 N2009 1.350 . S
C2012 C2011 1.434 . S
C2013 C2014 1.369 . S
C2013 C2015 1.419 . S
C2013 H2017 0.930 . S
C2014 C2013 1.369 . S
C2014 C2023 1.429 1_554 S
C2015 C2013 1.419 . S
C2015 C2016 1.363 1_554 S
C2015 H2018 0.929 . S
C2016 C2015 1.363 1_556 S
C2016 C2022 1.428 . S
H2017 C2013 0.930 . S
H2018 C2015 0.929 . S
S2019 N2020 1.613 . S
S2019 N2021 1.610 . S
N2020 S2019 1.613 . S
N2020 C2023 1.350 . S
N2021 S2019 1.610 . S
N2021 C2022 1.351 . S
C2022 C2016 1.428 . S
C2022 N2021 1.351 . S
C2022 C2023 1.434 . S
C2023 C2014 1.429 1_556 S
C2023 N2020 1.350 . S
C2023 C2022 1.434 . S
C2024 C2025 1.369 . S
C2024 C2026 1.419 . S
C2024 H2028 0.930 . S
C2025 C2024 1.369 . S
C2025 C2034 1.429 1_556 S
C2026 C2024 1.419 . S
C2026 C2027 1.363 . S
C2026 H2029 0.929 . S
C2027 C2026 1.363 . S
C2027 C2033 1.428 . S
H2028 C2024 0.930 . S
H2029 C2026 0.929 . S
S2030 N2031 1.613 . S
S2030 N2032 1.610 . S
N2031 S2030 1.613 . S
N2031 C2034 1.350 . S
N2032 S2030 1.610 . S
N2032 C2033 1.351 1_554 S
C2033 C2027 1.428 . S
C2033 N2032 1.351 1_556 S
C2033 C2034 1.434 1_556 S
C2034 C2025 1.429 1_554 S
C2034 N2031 1.350 . S
C2034 C2033 1.434 1_554 S
C2035 C2036 1.369 . S
C2035 C2037 1.419 . S
C2035 H2039 0.930 . S
C2036 C2035 1.369 . S
C2036 C2045 1.429 . S
C2037 C2035 1.419 . S
C2037 C2038 1.363 . S
C2037 H2040 0.929 . S
C2038 C2037 1.363 . S
C2038 C2044 1.428 1_554 S
H2039 C2035 0.930 . S
H2040 C2037 0.929 . S
S2041 N2042 1.613 . S
S2041 N2043 1.610 . S
N2042 S2041 1.613 . S
N2042 C2045 1.350 1_556 S
N2043 S2041 1.610 . S
N2043 C2044 1.351 . S
C2044 C2038 1.428 1_556 S
C2044 N2043 1.351 . S
C2044 C2045 1.434 1_556 S
C2045 C2036 1.429 . S
C2045 N2042 1.350 1_554 S
C2045 C2044 1.434 1_554 S
C2046 C2047 1.369 . S
C2046 C2048 1.429 . S
C2046 H2050 0.930 . S
C2047 C2046 1.369 . S
C2047 C2056 1.429 1_554 S
C2048 C2046 1.429 . S
C2048 C2049 1.346 1_554 S
C2048 H2051 0.936 . S
C2049 C2048 1.346 1_556 S
C2049 C2055 1.428 . S
H2050 C2046 0.930 . S
H2051 C2048 0.936 . S
S2052 N2053 1.613 . S
S2052 N2054 1.610 . S
N2053 S2052 1.613 . S
N2053 C2056 1.350 . S
N2054 S2052 1.610 . S
N2054 C2055 1.351 . S
C2055 C2049 1.428 . S
C2055 N2054 1.351 . S
C2055 C2056 1.434 . S
C2056 C2047 1.429 1_556 S
C2056 N2053 1.350 . S
C2056 C2055 1.434 . S
C2057 C2058 1.369 . S
C2057 C2059 1.419 . S
C2057 H2061 0.965 . S
C2058 C2057 1.369 . S
C2058 C2067 1.429 . S
C2059 C2057 1.419 . S
C2059 C2060 1.363 . S
C2059 H2062 0.929 . S
C2060 C2059 1.363 . S
C2060 C2066 1.428 . S
H2061 C2057 0.965 . S
H2062 C2059 0.929 . S
S2063 N2064 1.613 . S
S2063 N2065 1.610 . S
N2064 S2063 1.613 . S
N2064 C2067 1.350 . S
N2065 S2063 1.610 . S
N2065 C2066 1.351 . S
C2066 C2060 1.428 . S
C2066 N2065 1.351 . S
C2066 C2067 1.434 . S
C2067 C2058 1.429 . S
C2067 N2064 1.350 . S
C2067 C2066 1.434 . S
C2068 C2069 1.369 1_556 S
C2068 C2070 1.419 . S
C2068 H2072 0.930 . S
C2069 C2068 1.369 1_554 S
C2069 C2078 1.429 . S
C2070 C2068 1.419 . S
C2070 C2071 1.355 1_556 S
C2070 H2073 0.929 . S
C2071 C2070 1.355 1_554 S
C2071 C2077 1.446 . S
H2072 C2068 0.930 . S
H2073 C2070 0.929 . S
S2074 N2075 1.613 . S
S2074 N2076 1.610 . S
N2075 S2074 1.613 . S
N2075 C2078 1.350 . S
N2076 S2074 1.610 . S
N2076 C2077 1.351 . S
C2077 C2071 1.446 . S
C2077 N2076 1.351 . S
C2077 C2078 1.434 . S
C2078 C2069 1.429 . S
C2078 N2075 1.350 . S
C2078 C2077 1.434 . S
C2079 C2080 1.369 . S
C2079 C2081 1.419 . S
C2079 H2083 0.930 . S
C2080 C2079 1.369 . S
C2080 C2089 1.429 . S
C2081 C2079 1.419 . S
C2081 C2082 1.363 . S
C2081 H2084 0.929 . S
C2082 C2081 1.363 . S
C2082 C2088 1.428 . S
H2083 C2079 0.930 . S
H2084 C2081 0.929 . S
S2085 N2086 1.613 1_545 S
S2085 N2087 1.610 1_545 S
N2086 S2085 1.613 1_565 S
N2086 C2089 1.350 . S
N2087 S2085 1.610 1_565 S
N2087 C2088 1.351 . S
C2088 C2082 1.428 . S
C2088 N2087 1.351 . S
C2088 C2089 1.434 . S
C2089 C2080 1.429 . S
C2089 N2086 1.350 . S
C2089 C2088 1.434 . S
C2090 C2091 1.369 . S
C2090 C2092 1.419 . S
C2090 H2094 0.930 . S
C2091 C2090 1.369 . S
C2091 C2100 1.429 . S
C2092 C2090 1.419 . S
C2092 C2093 1.363 . S
C2092 H2095 0.929 . S
C2093 C2092 1.363 . S
C2093 C2099 1.428 . S
H2094 C2090 0.930 . S
H2095 C2092 0.929 . S
S2096 N2097 1.613 . S
S2096 N2098 1.610 . S
N2097 S2096 1.613 . S
N2097 C2100 1.350 . S
N2098 S2096 1.610 . S
N2098 C2099 1.351 . S
C2099 C2093 1.428 . S
C2099 N2098 1.351 . S
C2099 C2100 1.434 . S
C2100 C2091 1.429 . S
C2100 N2097 1.350 . S
C2100 C2099 1.434 . S
C2101 C2102 1.369 . S
C2101 C2103 1.419 . S
C2101 H2105 0.930 . S
C2102 C2101 1.369 . S
C2102 C2111 1.429 . S
C2103 C2101 1.419 . S
C2103 C2104 1.363 . S
C2103 H2106 0.929 . S
C2104 C2103 1.363 . S
C2104 C2110 1.428 . S
H2105 C2101 0.930 . S
H2106 C2103 0.929 . S
S2107 N2108 1.613 . S
S2107 N2109 1.610 . S
N2108 S2107 1.613 . S
N2108 C2111 1.350 . S
N2109 S2107 1.610 . S
N2109 C2110 1.351 . S
C2110 C2104 1.428 . S
C2110 N2109 1.351 . S
C2110 C2111 1.434 . S
C2111 C2102 1.429 . S
C2111 N2108 1.350 . S
C2111 C2110 1.434 . S
C2112 C2113 1.369 . S
C2112 C2114 1.419 . S
C2112 H2116 0.930 . S
C2113 C2112 1.369 . S
C2113 C2122 1.429 . S
C2114 C2112 1.419 . S
C2114 C2115 1.363 . S
C2114 H2117 0.929 . S
C2115 C2114 1.363 . S
C2115 C2121 1.428 . S
H2116 C2112 0.930 . S
H2117 C2114 0.929 . S
S2118 N2119 1.613 . S
S2118 N2120 1.610 . S
N2119 S2118 1.613 . S
N2119 C2122 1.350 . S
N2120 S2118 1.610 . S
N2120 C2121 1.351 . S
C2121 C2115 1.428 . S
C2121 N2120 1.351 . S
C2121 C2122 1.434 . S
C2122 C2113 1.429 . S
C2122 N2119 1.350 . S
C2122 C2121 1.434 . S
C2123 C2124 1.369 . S
C2123 C2125 1.419 . S
C2123 H2127 0.930 . S
C2124 C2123 1.369 . S
C2124 C2133 1.429 . S
C2125 C2123 1.419 . S
C2125 C2126 1.363 . S
C2125 H2128 0.929 . S
C2126 C2125 1.363 . S
C2126 C2132 1.428 . S
H2127 C2123 0.930 . S
H2128 C2125 0.929 . S
S2129 N2130 1.613 . S
S2129 N2131 1.610 . S
N2130 S2129 1.613 . S
N2130 C2133 1.350 . S
N2131 S2129 1.610 . S
N2131 C2132 1.351 . S
C2132 C2126 1.428 . S
C2132 N2131 1.351 . S
C2132 C2133 1.434 . S
C2133 C2124 1.429 . S
C2133 N2130 1.350 . S
C2133 C2132 1.434 . S
C2134 C2135 1.369 . S
C2134 C2136 1.419 . S
C2134 H2138 0.930 . S
C2135 C2134 1.369 . S
C2135 C2144 1.429 . S
C2136 C2134 1.419 . S
C2136 C2137 1.363 . S
C2136 H2139 0.929 . S
C2137 C2136 1.363 . S
C2137 C2143 1.428 . S
H2138 C2134 0.930 . S
H2139 C2136 0.929 . S
S2140 N2141 1.599 1_655 S
S2140 N2142 1.610 . S
N2141 S2140 1.599 1_455 S
N2141 C2144 1.346 1_455 S
N2142 S2140 1.610 . S
N2142 C2143 1.351 . S
C2143 C2137 1.428 . S
C2143 N2142 1.351 . S
C2143 C2144 1.434 . S
C2144 C2135 1.429 . S
C2144 N2141 1.346 1_655 S
C2144 C2143 1.434 . S
C2145 C2146 1.369 . S
C2145 C2147 1.419 . S
C2145 H2149 0.930 . S
C2146 C2145 1.369 . S
C2146 C2155 1.429 . S
C2147 C2145 1.419 . S
C2147 C2148 1.363 . S
C2147 H2150 0.929 . S
C2148 C2147 1.363 . S
C2148 C2154 1.428 . S
H2149 C2145 0.930 . S
H2150 C2147 0.929 . S
S2151 N2152 1.613 1_655 S
S2151 N2153 1.610 . S
N2152 S2151 1.613 1_455 S
N2152 C2155 1.350 . S
N2153 S2151 1.610 . S
N2153 C2154 1.351 1_655 S
C2154 C2148 1.428 . S
C2154 N2153 1.351 1_455 S
C2154 C2155 1.434 . S
C2155 C2146 1.429 . S
C2155 N2152 1.350 . S
C2155 C2154 1.434 . S
C2156 C2157 1.369 . S
C2156 C2158 1.419 . S
C2156 H2160 0.930 . S
C2157 C2156 1.369 . S
C2157 C2166 1.429 . S
C2158 C2156 1.419 . S
C2158 C2159 1.363 . S
C2158 H2161 0.929 . S
C2159 C2158 1.363 . S
C2159 C2165 1.428 . S
H2160 C2156 0.930 . S
H2161 C2158 0.929 . S
S2162 N2163 1.613 . S
S2162 N2164 1.610 . S
N2163 S2162 1.613 . S
N2163 C2166 1.350 . S
N2164 S2162 1.610 . S
N2164 C2165 1.351 . S
C2165 C2159 1.428 . S
C2165 N2164 1.351 . S
C2165 C2166 1.434 . S
C2166 C2157 1.429 . S
C2166 N2163 1.350 . S
C2166 C2165 1.434 . S
C2167 C2168 1.369 . S
C2167 C2169 1.419 . S
C2167 H2171 0.930 . S
C2168 C2167 1.369 . S
C2168 C2177 1.429 . S
C2169 C2167 1.419 . S
C2169 C2170 1.363 . S
C2169 H2172 0.929 . S
C2170 C2169 1.363 . S
C2170 C2176 1.428 . S
H2171 C2167 0.930 . S
H2172 C2169 0.929 . S
S2173 N2174 1.613 . S
S2173 N2175 1.610 . S
N2174 S2173 1.613 . S
N2174 C2177 1.350 . S
N2175 S2173 1.610 . S
N2175 C2176 1.351 . S
C2176 C2170 1.428 . S
C2176 N2175 1.351 . S
C2176 C2177 1.434 . S
C2177 C2168 1.429 . S
C2177 N2174 1.350 . S
C2177 C2176 1.434 . S
C2178 C2179 1.369 . S
C2178 C2180 1.419 1_565 S
C2178 H2182 0.930 . S
C2179 C2178 1.369 . S
C2179 C2188 1.429 . S
C2180 C2178 1.419 1_545 S
C2180 C2181 1.363 1_545 S
C2180 H2183 0.929 . S
C2181 C2180 1.363 1_565 S
C2181 C2187 1.428 . S
H2182 C2178 0.930 . S
H2183 C2180 0.929 . S
S2184 N2185 1.613 . S
S2184 N2186 1.610 . S
N2185 S2184 1.613 . S
N2185 C2188 1.350 . S
N2186 S2184 1.610 . S
N2186 C2187 1.351 . S
C2187 C2181 1.428 . S
C2187 N2186 1.351 . S
C2187 C2188 1.434 . S
C2188 C2179 1.429 . S
C2188 N2185 1.350 . S
C2188 C2187 1.434 . S
C2189 C2190 1.369 . S
C2189 C2191 1.419 . S
C2189 H2193 0.930 . S
C2190 C2189 1.369 . S
C2190 C2199 1.429 . S
C2191 C2189 1.419 . S
C2191 C2192 1.363 . S
C2191 H2194 0.929 . S
C2192 C2191 1.363 . S
C2192 C2198 1.428 1_455 S
H2193 C2189 0.930 . S
H2194 C2191 0.929 . S
S2195 N2196 1.613 . S
S2195 N2197 1.610 . S
N2196 S2195 1.613 . S
N2196 C2199 1.350 1_655 S
N2197 S2195 1.610 . S
N2197 C2198 1.351 . S
C2198 C2192 1.428 1_655 S
C2198 N2197 1.351 . S
C2198 C2199 1.434 1_655 S
C2199 C2190 1.429 . S
C2199 N2196 1.350 1_455 S
C2199 C2198 1.434 1_455 S
C2200 C2201 1.369 . S
C2200 C2202 1.419 . S
C2200 H2204 0.930 . S
C2201 C2200 1.369 . S
C2201 C2210 1.429 . S
C2202 C2200 1.419 . S
C2202 C2203 1.363 . S
C2202 H2205 0.929 . S
C2203 C2202 1.363 . S
C2203 C2209 1.428 . S
H2204 C2200 0.930 . S
H2205 C2202 0.929 . S
S2206 N2207 1.613 . S
S2206 N2208 1.610 . S
N2207 S2206 1.613 . S
N2207 C2210 1.350 . S
N2208 S2206 1.610 . S
N2208 C2209 1.351 . S
C2209 C2203 1.428 . S
C2209 N2208 1.351 . S
C2209 C2210 1.434 . S
C2210 C2201 1.429 . S
C2210 N2207 1.350 . S
C2210 C2209 1.434 . S
C2211 C2212 1.369 . S
C2211 C2213 1.419 . S
C2211 H2215 0.930 . S
C2212 C2211 1.369 . S
C2212 C2221 1.429 . S
C2213 C2211 1.419 . S
C2213 C2214 1.363 . S
C2213 H2216 0.929 . S
C2214 C2213 1.363 . S
C2214 C2220 1.428 . S
H2215 C2211 0.930 . S
H2216 C2213 0.929 . S
S2217 N2218 1.613 . S
S2217 N2219 1.610 . S
N2218 S2217 1.613 . S
N2218 C2221 1.350 . S
N2219 S2217 1.610 . S
N2219 C2220 1.351 . S
C2220 C2214 1.428 . S
C2220 N2219 1.351 . S
C2220 C2221 1.434 . S
C2221 C2212 1.429 . S
C2221 N2218 1.350 . S
C2221 C2220 1.434 . S
C2222 C2223 1.369 . S
C2222 C2224 1.419 . S
C2222 H2226 0.930 . S
C2223 C2222 1.369 . S
C2223 C2232 1.429 . S
C2224 C2222 1.419 . S
C2224 C2225 1.363 . S
C2224 H2227 0.929 . S
C2225 C2224 1.363 . S
C2225 C2231 1.428 . S
H2226 C2222 0.930 . S
H2227 C2224 0.929 . S
S2228 N2229 1.613 . S
S2228 N2230 1.610 . S
N2229 S2228 1.613 . S
N2229 C2232 1.350 . S
N2230 S2228 1.610 . S
N2230 C2231 1.351 . S
C2231 C2225 1.428 . S
C2231 N2230 1.351 . S
C2231 C2232 1.434 . S
C2232 C2223 1.429 . S
C2232 N2229 1.350 . S
C2232 C2231 1.434 . S
C2233 C2234 1.369 . S
C2233 C2235 1.419 . S
C2233 H2237 0.930 . S
C2234 C2233 1.369 . S
C2234 C2243 1.429 . S
C2235 C2233 1.419 . S
C2235 C2236 1.363 . S
C2235 H2238 0.929 . S
C2236 C2235 1.363 . S
C2236 C2242 1.428 . S
H2237 C2233 0.930 . S
H2238 C2235 0.929 . S
S2239 N2240 1.613 . S
S2239 N2241 1.610 . S
N2240 S2239 1.613 . S
N2240 C2243 1.350 . S
N2241 S2239 1.610 . S
N2241 C2242 1.351 . S
C2242 C2236 1.428 . S
C2242 N2241 1.351 . S
C2242 C2243 1.434 . S
C2243 C2234 1.429 . S
C2243 N2240 1.350 . S
C2243 C2242 1.434 . S
C2244 C2245 1.369 . S
C2244 C2246 1.419 . S
C2244 H2248 0.930 . S
C2245 C2244 1.369 . S
C2245 C2254 1.429 . S
C2246 C2244 1.419 . S
C2246 C2247 1.363 . S
C2246 H2249 0.929 . S
C2247 C2246 1.363 . S
C2247 C2253 1.445 . S
H2248 C2244 0.930 . S
H2249 C2246 0.929 . S
S2250 N2251 1.613 . S
S2250 N2252 1.610 . S
N2251 S2250 1.613 . S
N2251 C2254 1.350 1_565 S
N2252 S2250 1.610 . S
N2252 C2253 1.310 1_565 S
C2253 C2247 1.445 . S
C2253 N2252 1.310 1_545 S
C2253 C2254 1.460 . S
C2254 C2245 1.429 . S
C2254 N2251 1.350 1_545 S
C2254 C2253 1.460 . S
C2255 C2256 1.369 . S
C2255 C2257 1.419 . S
C2255 H2259 0.930 . S
C2256 C2255 1.369 . S
C2256 C2265 1.429 . S
C2257 C2255 1.419 . S
C2257 C2258 1.363 . S
C2257 H2260 0.929 . S
C2258 C2257 1.363 . S
C2258 C2264 1.428 . S
H2259 C2255 0.930 . S
H2260 C2257 0.929 . S
S2261 N2262 1.613 . S
S2261 N2263 1.610 . S
N2262 S2261 1.613 . S
N2262 C2265 1.350 . S
N2263 S2261 1.610 . S
N2263 C2264 1.351 . S
C2264 C2258 1.428 . S
C2264 N2263 1.351 . S
C2264 C2265 1.434 . S
C2265 C2256 1.429 . S
C2265 N2262 1.350 . S
C2265 C2264 1.434 . S
C2266 C2267 1.369 . S
C2266 C2268 1.419 . S
C2266 H2270 0.930 . S
C2267 C2266 1.369 . S
C2267 C2276 1.429 . S
C2268 C2266 1.419 . S
C2268 C2269 1.363 . S
C2268 H2271 0.929 . S
C2269 C2268 1.363 . S
C2269 C2275 1.428 . S
H2270 C2266 0.930 . S
H2271 C2268 0.929 . S
S2272 N2273 1.613 . S
S2272 N2274 1.610 . S
N2273 S2272 1.613 . S
N2273 C2276 1.350 . S
N2274 S2272 1.610 . S
N2274 C2275 1.351 . S
C2275 C2269 1.428 . S
C2275 N2274 1.351 . S
C2275 C2276 1.434 . S
C2276 C2267 1.429 . S
C2276 N2273 1.350 . S
C2276 C2275 1.434 . S
C2277 C2278 1.369 . S
C2277 C2279 1.419 . S
C2277 H2281 0.930 . S
C2278 C2277 1.369 . S
C2278 C2287 1.429 . S
C2279 C2277 1.419 . S
C2279 C2280 1.363 . S
C2279 H2282 0.929 . S
C2280 C2279 1.363 . S
C2280 C2286 1.428 . S
H2281 C2277 0.930 . S
H2282 C2279 0.929 . S
S2283 N2284 1.613 . S
S2283 N2285 1.610 . S
N2284 S2283 1.613 . S
N2284 C2287 1.350 . S
N2285 S2283 1.610 . S
N2285 C2286 1.351 . S
C2286 C2280 1.428 . S
C2286 N2285 1.351 . S
C2286 C2287 1.434 . S
C2287 C2278 1.429 . S
C2287 N2284 1.350 . S
C2287 C2286 1.434 . S
C2288 C2289 1.369 . S
C2288 C2290 1.419 . S
C2288 H2292 0.930 . S
C2289 C2288 1.369 . S
C2289 C2298 1.429 . S
C2290 C2288 1.419 . S
C2290 C2291 1.363 . S
C2290 H2293 0.929 . S
C2291 C2290 1.363 . S
C2291 C2297 1.428 . S
H2292 C2288 0.930 . S
H2293 C2290 0.929 . S
S2294 N2295 1.613 . S
S2294 N2296 1.610 . S
N2295 S2294 1.613 . S
N2295 C2298 1.350 . S
N2296 S2294 1.610 . S
N2296 C2297 1.351 . S
C2297 C2291 1.428 . S
C2297 N2296 1.351 . S
C2297 C2298 1.434 . S
C2298 C2289 1.429 . S
C2298 N2295 1.350 . S
C2298 C2297 1.434 . S
C2299 C2300 1.369 . S
C2299 C2301 1.419 . S
C2299 H2303 0.930 . S
C2300 C2299 1.369 . S
C2300 C2309 1.429 . S
C2301 C2299 1.419 . S
C2301 C2302 1.363 . S
C2301 H2304 0.929 . S
C2302 C2301 1.363 . S
C2302 C2308 1.428 . S
H2303 C2299 0.930 . S
H2304 C2301 0.929 . S
S2305 N2306 1.613 . S
S2305 N2307 1.610 . S
N2306 S2305 1.613 . S
N2306 C2309 1.350 . S
N2307 S2305 1.610 . S
N2307 C2308 1.351 . S
C2308 C2302 1.428 . S
C2308 N2307 1.351 . S
C2308 C2309 1.434 . S
C2309 C2300 1.429 . S
C2309 N2306 1.350 . S
C2309 C2308 1.434 . S
C2310 C2311 1.369 . S
C2310 C2312 1.419 . S
C2310 H2314 0.930 . S
C2311 C2310 1.369 . S
C2311 C2320 1.429 . S
C2312 C2310 1.419 . S
C2312 C2313 1.363 . S
C2312 H2315 0.929 . S
C2313 C2312 1.363 . S
C2313 C2319 1.428 . S
H2314 C2310 0.930 . S
H2315 C2312 0.929 . S
S2316 N2317 1.613 . S
S2316 N2318 1.610 . S
N2317 S2316 1.613 . S
N2317 C2320 1.350 . S
N2318 S2316 1.610 . S
N2318 C2319 1.351 . S
C2319 C2313 1.428 . S
C2319 N2318 1.351 . S
C2319 C2320 1.434 . S
C2320 C2311 1.429 . S
C2320 N2317 1.350 . S
C2320 C2319 1.434 . S
C2321 C2322 1.369 . S
C2321 C2323 1.419 . S
C2321 H2325 0.930 . S
C2322 C2321 1.369 . S
C2322 C2331 1.429 . S
C2323 C2321 1.419 . S
C2323 C2324 1.363 . S
C2323 H2326 0.929 . S
C2324 C2323 1.363 . S
C2324 C2330 1.428 . S
H2325 C2321 0.930 . S
H2326 C2323 0.929 . S
S2327 N2328 1.613 . S
S2327 N2329 1.610 . S
N2328 S2327 1.613 . S
N2328 C2331 1.350 . S
N2329 S2327 1.610 . S
N2329 C2330 1.351 . S
C2330 C2324 1.428 . S
C2330 N2329 1.351 . S
C2330 C2331 1.434 . S
C2331 C2322 1.429 . S
C2331 N2328 1.350 . S
C2331 C2330 1.434 . S
C2332 C2333 1.369 . S
C2332 C2334 1.419 . S
C2332 H2336 0.930 . S
C2333 C2332 1.369 . S
C2333 C2342 1.429 . S
C2334 C2332 1.419 . S
C2334 C2335 1.363 . S
C2334 H2337 0.929 . S
C2335 C2334 1.363 . S
C2335 C2341 1.428 . S
H2336 C2332 0.930 . S
H2337 C2334 0.929 . S
S2338 N2339 1.613 . S
S2338 N2340 1.610 . S
N2339 S2338 1.613 . S
N2339 C2342 1.350 . S
N2340 S2338 1.610 . S
N2340 C2341 1.351 . S
C2341 C2335 1.428 . S
C2341 N2340 1.351 . S
C2341 C2342 1.434 . S
C2342 C2333 1.429 . S
C2342 N2339 1.350 . S
C2342 C2341 1.434 . S
C2343 C2344 1.369 . S
C2343 C2345 1.419 . S
C2343 H2347 0.930 . S
C2344 C2343 1.369 . S
C2344 C2353 1.429 . S
C2345 C2343 1.419 . S
C2345 C2346 1.363 . S
C2345 H2348 0.929 . S
C2346 C2345 1.363 . S
C2346 C2352 1.428 . S
H2347 C2343 0.930 . S
H2348 C2345 0.929 . S
S2349 N2350 1.613 . S
S2349 N2351 1.610 . S
N2350 S2349 1.613 . S
N2350 C2353 1.350 . S
N2351 S2349 1.610 . S
N2351 C2352 1.351 . S
C2352 C2346 1.428 . S
C2352 N2351 1.351 . S
C2352 C2353 1.434 . S
C2353 C2344 1.429 . S
C2353 N2350 1.350 . S
C2353 C2352 1.434 . S
C2354 C2355 1.369 . S
C2354 C2356 1.419 . S
C2354 H2358 0.930 . S
C2355 C2354 1.369 . S
C2355 C2364 1.429 . S
C2356 C2354 1.419 . S
C2356 C2357 1.363 . S
C2356 H2359 0.929 . S
C2357 C2356 1.363 . S
C2357 C2363 1.428 . S
H2358 C2354 0.930 . S
H2359 C2356 0.929 . S
S2360 N2361 1.613 . S
S2360 N2362 1.610 . S
N2361 S2360 1.613 . S
N2361 C2364 1.350 . S
N2362 S2360 1.610 . S
N2362 C2363 1.351 . S
C2363 C2357 1.428 . S
C2363 N2362 1.351 . S
C2363 C2364 1.434 . S
C2364 C2355 1.429 . S
C2364 N2361 1.350 . S
C2364 C2363 1.434 . S
C2365 C2366 1.369 . S
C2365 C2367 1.419 . S
C2365 H2369 0.930 . S
C2366 C2365 1.369 . S
C2366 C2375 1.429 . S
C2367 C2365 1.419 . S
C2367 C2368 1.363 . S
C2367 H2370 0.929 . S
C2368 C2367 1.363 . S
C2368 C2374 1.428 1_545 S
H2369 C2365 0.930 . S
H2370 C2367 0.929 . S
S2371 N2372 1.613 . S
S2371 N2373 1.610 . S
N2372 S2371 1.613 . S
N2372 C2375 1.350 1_565 S
N2373 S2371 1.610 . S
N2373 C2374 1.351 . S
C2374 C2368 1.428 1_565 S
C2374 N2373 1.351 . S
C2374 C2375 1.434 1_565 S
C2375 C2366 1.429 . S
C2375 N2372 1.350 1_545 S
C2375 C2374 1.434 1_545 S
C1585 C13 1.256 . S
C1587 C981 1.284 . S
C1596 C27 1.393 . S
C1598 C1061 1.444 . S
C1609 C1129 1.326 . S
C1607 C36 1.307 . S
C1618 C41 1.670 . S
C1620 C1209 1.686 . S
C1629 C8 1.507 . S
C1631 C1283 1.580 . S
C1640 C22 1.543 . S
C1642 C1351 1.487 . S
C1651 C55 1.243 1_556 S
C1653 C1277 1.245 . S
C1664 C1357 1.374 . S
C1662 C69 1.330 . S
C1675 C1203 1.352 . S
C1673 C78 1.248 1_556 S
C1684 C83 1.699 . S
C1686 C1135 1.688 1_545 S
C1697 C987 1.570 . S
C1695 C50 1.455 . S
C1706 C64 1.353 . S
C1708 C1055 1.401 . S
C1717 C97 1.455 . S
C1719 C1425 1.452 . S
C1728 C111 1.455 . S
C1730 C1505 1.487 . S
C1741 C1573 1.497 . S
C1739 C120 1.604 . S
C1750 C125 1.814 . S
C1752 C321 1.805 . S
C1761 C92 1.799 . S
C1763 C395 1.758 . S
C1772 C106 1.601 . S
C1774 C463 1.519 . S
C1783 C139 1.201 . S
C1785 C389 1.249 . S
C1794 C153 1.360 . S
C1796 C469 1.402 . S
C1807 C315 1.393 . S
C1805 C162 1.365 . S
C1818 C1579 1.773 . S
C1816 C167 1.753 . S
C1829 C1431 1.619 . S
C1827 C134 1.578 . S
C1840 C1499 1.428 . S
C1838 C148 1.412 . S
C1849 C181 1.400 . S
C1851 C537 1.386 . S
C1860 C195 1.456 . S
C1862 C617 1.486 . S
C1871 C204 1.616 . S
C1873 C685 1.526 . S
C1882 C209 1.872 . S
C1884 C765 1.863 . S
C1895 C839 1.750 . S
C1893 C176 1.803 . S
C1906 C907 1.548 . S
C1904 C190 1.640 . S
C1917 C833 1.319 . S
C1915 C223 1.278 . S
C1928 C913 1.391 . S
C1926 C237 1.342 . S
C1937 C246 1.323 . S
C1939 C759 1.349 . S
C1950 C691 1.708 . S
C1948 C251 1.692 . S
C1959 C218 1.591 . S
C1961 C543 1.644 . S
C1972 C611 1.408 . S
C1970 C232 1.377 . S
C1983 C291 1.938 . S
C1981 C11 1.918 . S
C1992 C25 1.381 . S
C1994 C365 1.392 . S
C2005 C451 1.506 . S
C2003 C35 1.525 . S
C2016 C525 1.343 . S
C2014 C39 1.342 . S
C2027 C587 1.633 . S
C2025 C7 1.665 1_556 S
C2038 C673 1.565 1_554 S
C2036 C21 1.593 . S
C2047 C53 2.115 . S
C2049 C661 2.068 . S
C2058 C67 1.638 . S
C2060 C513 1.573 . S
C2069 C77 1.816 . S
C2071 C599 1.720 1_554 S
C2080 C81 1.653 . S
C2082 C377 1.622 . S
C2093 C439 1.783 . S
C2091 C49 1.918 . S
C2102 C63 1.906 . S
C2104 C303 1.798 . S
C2115 C735 1.865 . S
C2113 C95 1.861 . S
C2124 C109 1.453 . S
C2126 C809 1.465 . S
C2135 C119 1.554 1_655 S
C2137 C895 1.526 . S
C2148 C969 1.144 . S
C2146 C123 1.158 . S
C2157 C91 1.568 . S
C2159 C1031 1.545 . S
C2168 C105 1.378 . S
C2170 C1117 1.382 . S
C2179 C137 1.820 . S
C2181 C1105 1.774 1_565 S
C2190 C151 1.317 . S
C2192 C957 1.297 1_455 S
C2203 C1043 1.633 . S
C2201 C161 1.705 . S
C2212 C165 1.659 . S
C2214 C821 1.592 . S
C2223 C133 1.912 . S
C2225 C883 1.781 . S
C2236 C747 1.827 . S
C2234 C147 1.942 1_655 S
C2247 C1179 1.732 . S
C2245 C179 1.753 . S
C2256 C193 1.173 . S
C2258 C1253 1.173 . S
C2267 C203 1.445 . S
C2269 C1339 1.432 . S
C2280 C1413 1.335 . S
C2278 C207 1.337 . S
C2291 C1475 1.649 . S
C2289 C175 1.680 . S
C2300 C189 1.648 . S
C2302 C1561 1.606 . S
C2311 C221 2.070 . S
C2313 C1549 1.995 . S
C2322 C235 1.701 . S
C2324 C1401 1.631 . S
C2335 C1487 1.731 . S
C2333 C245 1.829 1_455 S
C2346 C1265 1.267 . S
C2344 C249 1.288 . S
C2357 C1327 1.685 . S
C2355 C217 1.804 . S
C2366 C231 1.551 . S
C2368 C1191 1.514 . S
