# Generated by pormake.
# Topology dag, (6,3)-cn, num edge types: 1
# Building blocks:
#     Node 0, Type 0, BuildingBlock: IZENUY_clean_sbu_0, # of connection points: 6
#     Node 1, Type 0, BuildingBlock: IZENUY_clean_sbu_0, # of connection points: 6
#     Node 2, Type 0, BuildingBlock: IZENUY_clean_sbu_0, # of connection points: 6
#     Node 3, Type 0, BuildingBlock: IZENUY_clean_sbu_0, # of connection points: 6
#     Node 4, Type 1, BuildingBlock: PAMTOO_clean_linker_0, # of connection points: 3
#     Node 5, Type 1, BuildingBlock: PAMTOO_clean_linker_0, # of connection points: 3
#     Node 6, Type 1, BuildingBlock: PAMTOO_clean_linker_0, # of connection points: 3
#     Node 7, Type 1, BuildingBlock: PAMTOO_clean_linker_0, # of connection points: 3
#     Node 8, Type 1, BuildingBlock: PAMTOO_clean_linker_0, # of connection points: 3
#     Node 9, Type 1, BuildingBlock: PAMTOO_clean_linker_0, # of connection points: 3
#     Node 10, Type 1, BuildingBlock: PAMTOO_clean_linker_0, # of connection points: 3
#     Node 11, Type 1, BuildingBlock: PAMTOO_clean_linker_0, # of connection points: 3
#     Edge 12, Type (0, 1), BuildingBlock: TEMPAE_clean_linker_10, # of connection points: 2
#     Edge 13, Type (0, 1), BuildingBlock: TEMPAE_clean_linker_10, # of connection points: 2
#     Edge 14, Type (0, 1), BuildingBlock: TEMPAE_clean_linker_10, # of connection points: 2
#     Edge 15, Type (0, 1), BuildingBlock: TEMPAE_clean_linker_10, # of connection points: 2
#     Edge 16, Type (0, 1), BuildingBlock: TEMPAE_clean_linker_10, # of connection points: 2
#     Edge 17, Type (0, 1), BuildingBlock: TEMPAE_clean_linker_10, # of connection points: 2
#     Edge 18, Type (0, 1), BuildingBlock: TEMPAE_clean_linker_10, # of connection points: 2
#     Edge 19, Type (0, 1), BuildingBlock: TEMPAE_clean_linker_10, # of connection points: 2
#     Edge 20, Type (0, 1), BuildingBlock: TEMPAE_clean_linker_10, # of connection points: 2
#     Edge 21, Type (0, 1), BuildingBlock: TEMPAE_clean_linker_10, # of connection points: 2
#     Edge 22, Type (0, 1), BuildingBlock: TEMPAE_clean_linker_10, # of connection points: 2
#     Edge 23, Type (0, 1), BuildingBlock: TEMPAE_clean_linker_10, # of connection points: 2
#     Edge 24, Type (0, 1), BuildingBlock: TEMPAE_clean_linker_10, # of connection points: 2
#     Edge 25, Type (0, 1), BuildingBlock: TEMPAE_clean_linker_10, # of connection points: 2
#     Edge 26, Type (0, 1), BuildingBlock: TEMPAE_clean_linker_10, # of connection points: 2
#     Edge 27, Type (0, 1), BuildingBlock: TEMPAE_clean_linker_10, # of connection points: 2
#     Edge 28, Type (0, 1), BuildingBlock: TEMPAE_clean_linker_10, # of connection points: 2
#     Edge 29, Type (0, 1), BuildingBlock: TEMPAE_clean_linker_10, # of connection points: 2
#     Edge 30, Type (0, 1), BuildingBlock: TEMPAE_clean_linker_10, # of connection points: 2
#     Edge 31, Type (0, 1), BuildingBlock: TEMPAE_clean_linker_10, # of connection points: 2
#     Edge 32, Type (0, 1), BuildingBlock: TEMPAE_clean_linker_10, # of connection points: 2
#     Edge 33, Type (0, 1), BuildingBlock: TEMPAE_clean_linker_10, # of connection points: 2
#     Edge 34, Type (0, 1), BuildingBlock: TEMPAE_clean_linker_10, # of connection points: 2
#     Edge 35, Type (0, 1), BuildingBlock: TEMPAE_clean_linker_10, # of connection points: 2
# Relax obj value: 0.093
# Max RMSD: 0.109
# Mean RMSD: 0.087
data_MOF--net-dag--node1-IZENUY_clean_sbu_0--node2-PAMTOO_clean_linker_0--edge1-TEMPAE_clean_linker_10
_symmetry_space_group_name_H-M    P1
_symmetry_Int_Tables_number       1
_symmetry_cell_setting            triclinic
loop_
_symmetry_equiv_pos_as_xyz
'x, y, z'
_cell_length_a     39.732721
_cell_length_b     40.856264
_cell_length_c     36.17476
_cell_angle_alpha  90.024641
_cell_angle_beta   94.431678
_cell_angle_gamma 90.086165
loop_
_atom_site_label
_atom_site_type_symbol
_atom_site_fract_x
_atom_site_fract_y
_atom_site_fract_z
_atom_type_partial_charge
Fe0 Fe 0.19034 0.85188 0.00028 0.0
Fe1 Fe 0.11803 0.87733 -0.00057 0.0
O2 O 0.1463 0.84479 0.99378 0.0
Fe3 Fe 0.12999 0.80548 0.98165 0.0
O4 O 0.1505 0.78741 0.02312 0.0
O5 O 0.20004 0.81133 0.02027 0.0
O6 O 0.18752 0.86652 0.04771 0.0
C7 C 0.16958 0.89061 0.05547 0.0
C8 C 0.18743 0.81075 0.94012 0.0
O9 O 0.14552 0.89981 0.03318 0.0
C10 C 0.08616 0.84312 0.93874 0.0
O11 O 0.18789 0.89367 0.981 0.0
O12 O 0.13433 0.89961 0.96148 0.0
O13 O 0.165 0.79389 0.95429 0.0
O14 O 0.19673 0.83799 0.95374 0.0
C15 C 0.08722 0.82846 0.03486 0.0
O16 O 0.08468 0.86163 0.96651 0.0
O17 O 0.10822 0.82094 0.93886 0.0
C18 C 0.16492 0.90787 0.96053 0.0
O19 O 0.10064 0.85644 0.03785 0.0
O20 O 0.09211 0.81008 0.00754 0.0
C21 C 0.1815 0.7896 0.03341 0.0
Fe22 Fe 0.68846 0.6457 0.50603 0.0
Fe23 Fe 0.63134 0.69474 0.48496 0.0
O24 O 0.64481 0.65488 0.4987 0.0
Fe25 Fe 0.6146 0.62423 0.50513 0.0
O26 O 0.62976 0.61916 0.55316 0.0
O27 O 0.68343 0.61568 0.54326 0.0
O28 O 0.69398 0.67656 0.54185 0.0
C29 C 0.68657 0.70639 0.53761 0.0
C30 C 0.66557 0.59008 0.47053 0.0
O31 O 0.66713 0.71576 0.51023 0.0
C32 C 0.585 0.65334 0.44327 0.0
O33 O 0.70124 0.67404 0.47011 0.0
O34 O 0.65321 0.69177 0.4431 0.0
O35 O 0.64057 0.59055 0.49016 0.0
O36 O 0.6858 0.61392 0.47072 0.0
C37 C 0.58584 0.68058 0.53532 0.0
O38 O 0.59306 0.68097 0.45729 0.0
O39 O 0.59738 0.62745 0.45749 0.0
C40 C 0.68427 0.68595 0.44218 0.0
O41 O 0.60821 0.7002 0.52598 0.0
O42 O 0.58315 0.65223 0.52133 0.0
C43 C 0.65956 0.61147 0.5641 0.0
Fe44 Fe 0.86611 0.18951 0.05604 0.0
Fe45 Fe 0.87907 0.11638 0.04551 0.0
O46 O 0.85061 0.1494 0.04659 0.0
Fe47 Fe 0.80669 0.14213 0.03792 0.0
O48 O 0.79764 0.18195 0.01577 0.0
O49 O 0.84762 0.20418 0.01182 0.0
O50 O 0.90543 0.18366 0.03334 0.0
C51 C 0.91318 0.163 0.0093 0.0
C52 C 0.80701 0.18588 0.09513 0.0
O53 O 0.90003 0.13485 0.00799 0.0
C54 C 0.82929 0.08762 0.08169 0.0
O55 O 0.88615 0.17762 0.10105 0.0
O56 O 0.9098 0.13333 0.0804 0.0
O57 O 0.79848 0.15781 0.08321 0.0
O58 O 0.82933 0.2024 0.08019 0.0
C59 C 0.83123 0.10206 0.98592 0.0
O60 O 0.85987 0.09609 0.08293 0.0
O61 O 0.80773 0.10092 0.05877 0.0
C62 C 0.9068 0.15426 0.10562 0.0
O63 O 0.8536 0.09301 0.0105 0.0
O64 O 0.81222 0.12593 0.99176 0.0
C65 C 0.81686 0.20187 0.00072 0.0
Fe66 Fe 0.38256 0.3708 0.53702 0.0
Fe67 Fe 0.30921 0.34931 0.54195 0.0
O68 O 0.35295 0.3401 0.54551 0.0
Fe69 Fe 0.36711 0.30014 0.5578 0.0
O70 O 0.39141 0.31501 0.5991 0.0
O71 O 0.4155 0.35525 0.5707 0.0
O72 O 0.36863 0.39633 0.57375 0.0
C73 C 0.33888 0.40672 0.57495 0.0
C74 C 0.41144 0.31952 0.50366 0.0
O75 O 0.31446 0.3921 0.55735 0.0
C76 C 0.31233 0.28586 0.5104 0.0
O77 O 0.3551 0.39178 0.5018 0.0
O78 O 0.3096 0.36111 0.49353 0.0
O79 O 0.40438 0.30135 0.53041 0.0
O80 O 0.3984 0.34748 0.49971 0.0
C81 C 0.31403 0.31113 0.60401 0.0
O82 O 0.2961 0.30815 0.52575 0.0
O83 O 0.34377 0.28287 0.51744 0.0
C84 C 0.32919 0.38251 0.482 0.0
O85 O 0.30596 0.33855 0.59008 0.0
O86 O 0.33261 0.29163 0.58751 0.0
C87 C 0.41408 0.33662 0.59849 0.0
H88 H 0.1116 0.05741 0.21614 0.0
H89 H 0.13181 0.13775 0.29152 0.0
H90 H 0.20107 0.05713 0.2914 0.0
H91 H 0.1917 0.08681 0.36833 0.0
C92 C 0.18393 0.11164 0.35837 0.0
O93 O 0.18871 0.11392 0.32108 0.0
H94 H 0.15684 0.11533 0.36305 0.0
C95 C 0.12732 0.06877 0.23841 0.0
C96 C 0.1572 0.0532 0.25229 0.0
C97 C 0.11785 0.09923 0.2523 0.0
C98 C 0.13848 0.11407 0.28074 0.0
C99 C 0.16832 0.09877 0.29483 0.0
C100 C 0.17773 0.06849 0.28059 0.0
H101 H 0.37285 0.64462 0.61155 0.0
H102 H 0.29379 0.64818 0.68636 0.0
H103 H 0.36041 0.7302 0.67836 0.0
H104 H 0.34817 0.7075 0.75354 0.0
C105 C 0.32094 0.70095 0.74902 0.0
O106 O 0.31016 0.70623 0.71232 0.0
H107 H 0.3178 0.67465 0.75594 0.0
C108 C 0.35857 0.65807 0.6309 0.0
C109 C 0.36915 0.68968 0.64186 0.0
C110 C 0.33152 0.64264 0.64674 0.0
C111 C 0.31456 0.6596 0.67349 0.0
C112 C 0.3251 0.69105 0.6848 0.0
C113 C 0.35221 0.70609 0.66896 0.0
H114 H 0.86938 0.8738 0.13737 0.0
H115 H 0.79104 0.84778 0.20743 0.0
H116 H 0.87935 0.78753 0.2057 0.0
H117 H 0.81457 0.74935 0.20822 0.0
C118 C 0.79955 0.76859 0.22119 0.0
O119 O 0.82065 0.79411 0.23253 0.0
H120 H 0.77944 0.77724 0.20035 0.0
C121 C 0.8595 0.85729 0.15734 0.0
C122 C 0.87876 0.8302 0.17011 0.0
C123 C 0.82806 0.8641 0.17073 0.0
C124 C 0.81518 0.84284 0.19657 0.0
C125 C 0.83339 0.81483 0.20818 0.0
C126 C 0.86517 0.80867 0.19533 0.0
H127 H 0.60067 0.42943 0.72622 0.0
H128 H 0.63356 0.35251 0.80163 0.0
H129 H 0.70148 0.43071 0.77904 0.0
H130 H 0.73955 0.37171 0.79345 0.0
C131 C 0.71858 0.3564 0.80254 0.0
O132 O 0.69442 0.37644 0.81611 0.0
H133 H 0.70751 0.34237 0.77809 0.0
C134 C 0.61989 0.41887 0.74556 0.0
C135 C 0.65185 0.43361 0.75018 0.0
C136 C 0.61292 0.38977 0.76404 0.0
C137 C 0.63824 0.37543 0.78786 0.0
C138 C 0.6699 0.3906 0.79369 0.0
C139 C 0.67657 0.41982 0.77522 0.0
H140 H 0.63418 0.36343 0.4243 0.0
H141 H 0.63673 0.27553 0.35871 0.0
H142 H 0.70906 0.35197 0.34575 0.0
H143 H 0.67845 0.32605 0.27808 0.0
C144 C 0.67548 0.29981 0.28541 0.0
O145 O 0.68713 0.29472 0.32189 0.0
H146 H 0.6482 0.29327 0.28183 0.0
C147 C 0.6462 0.34828 0.40454 0.0
C148 C 0.67391 0.3609 0.38733 0.0
C149 C 0.63233 0.31754 0.39456 0.0
C150 C 0.64698 0.29921 0.36714 0.0
C151 C 0.67453 0.31169 0.34967 0.0
C152 C 0.68807 0.34237 0.35984 0.0
H153 H 0.13311 0.12985 0.91721 0.0
H154 H 0.13165 0.21998 0.85585 0.0
H155 H 0.21081 0.15002 0.84391 0.0
H156 H 0.22801 0.22352 0.85427 0.0
C157 C 0.20827 0.23239 0.83309 0.0
O158 O 0.18643 0.20714 0.82276 0.0
H159 H 0.19407 0.2526 0.84532 0.0
C160 C 0.14488 0.14639 0.8986 0.0
C161 C 0.1742 0.13654 0.88247 0.0
C162 C 0.12932 0.17637 0.8894 0.0
C163 C 0.14344 0.19681 0.86357 0.0
C164 C 0.17309 0.18747 0.84775 0.0
C165 C 0.1883 0.15729 0.8569 0.0
H166 H 0.3617 0.57127 0.35193 0.0
H167 H 0.35027 0.64661 0.2688 0.0
H168 H 0.27239 0.57434 0.27689 0.0
H169 H 0.2763 0.59507 0.20062 0.0
C170 C 0.29064 0.61827 0.20537 0.0
O171 O 0.29046 0.62713 0.24216 0.0
H172 H 0.31711 0.6144 0.19821 0.0
C173 C 0.34691 0.58297 0.32919 0.0
C174 C 0.31554 0.56963 0.31668 0.0
C175 C 0.35983 0.61065 0.3122 0.0
C176 C 0.34097 0.62496 0.28202 0.0
C177 C 0.30944 0.61193 0.26951 0.0
C178 C 0.29684 0.58417 0.28663 0.0
H179 H 0.90056 0.94982 0.80383 0.0
H180 H 0.87638 0.86964 0.72924 0.0
H181 H 0.80321 0.94488 0.74299 0.0
H182 H 0.77421 0.87949 0.73991 0.0
C183 C 0.79362 0.86641 0.72495 0.0
O184 O 0.81481 0.88923 0.71074 0.0
H185 H 0.80814 0.85003 0.74492 0.0
C186 C 0.8835 0.9383 0.78286 0.0
C187 C 0.85118 0.95167 0.77465 0.0
C188 C 0.89298 0.9087 0.76677 0.0
C189 C 0.86986 0.89275 0.74153 0.0
C190 C 0.83764 0.9059 0.73304 0.0
C191 C 0.82842 0.93534 0.74933 0.0
C192 C 0.19179 0.89798 0.12214 0.0
C193 C 0.17804 0.91116 0.08854 0.0
C194 C 0.19483 0.91731 0.15456 0.0
C195 C 0.18392 0.95037 0.15296 0.0
C196 C 0.17209 0.96413 0.11848 0.0
C197 C 0.16931 0.94439 0.08687 0.0
C198 C 0.20795 0.90188 0.19068 0.0
C199 C 0.16051 0.99933 0.11519 0.0
C200 C 0.14351 0.99742 0.22709 0.0
C201 C 0.16745 0.02217 0.23499 0.0
C202 C 0.15007 0.97146 0.20337 0.0
C203 C 0.18134 0.97029 0.18709 0.0
C204 C 0.20694 0.99321 0.1982 0.0
C205 C 0.19966 0.01902 0.22203 0.0
C206 C 0.12217 0.94732 0.19273 0.0
C207 C 0.24083 0.99245 0.18208 0.0
H208 H 0.19861 0.8723 0.12349 0.0
H209 H 0.15928 0.95488 0.06077 0.0
H210 H 0.22467 0.91904 0.20731 0.0
H211 H 0.18639 0.89586 0.20721 0.0
H212 H 0.22205 0.87895 0.18612 0.0
H213 H 0.15394 0.0067 0.08596 0.0
H214 H 0.13793 0.00286 0.13098 0.0
H215 H 0.18052 0.016 0.12722 0.0
H216 H 0.11883 0.99943 0.23777 0.0
H217 H 0.21834 0.03801 0.22819 0.0
H218 H 0.13219 0.92202 0.19241 0.0
H219 H 0.11109 0.95298 0.16434 0.0
H220 H 0.10171 0.94832 0.21197 0.0
H221 H 0.24993 0.96694 0.17966 0.0
H222 H 0.26003 0.00682 0.19917 0.0
H223 H 0.23837 0.00314 0.1538 0.0
C224 C 0.54746 0.72384 0.55774 0.0
C225 C 0.55905 0.69143 0.55852 0.0
C226 C 0.51765 0.73221 0.57415 0.0
C227 C 0.49939 0.70753 0.59154 0.0
C228 C 0.51265 0.67543 0.59488 0.0
C229 C 0.54228 0.66783 0.57832 0.0
C230 C 0.50463 0.76681 0.5706 0.0
C231 C 0.4943 0.64837 0.6136 0.0
C232 C 0.42659 0.71482 0.65193 0.0
C233 C 0.40008 0.70342 0.62741 0.0
C234 C 0.45888 0.72001 0.63972 0.0
C235 C 0.46457 0.71337 0.60231 0.0
C236 C 0.43699 0.7054 0.57672 0.0
C237 C 0.40503 0.70055 0.58963 0.0
C238 C 0.48747 0.72932 0.66763 0.0
C239 C 0.44183 0.69848 0.53646 0.0
H240 H 0.56047 0.74217 0.54249 0.0
H241 H 0.55158 0.64287 0.5795 0.0
H242 H 0.48469 0.76807 0.54742 0.0
H243 H 0.49324 0.77468 0.5962 0.0
H244 H 0.52499 0.78427 0.56468 0.0
H245 H 0.50936 0.62549 0.6163 0.0
H246 H 0.48812 0.65615 0.64165 0.0
H247 H 0.47015 0.64286 0.59726 0.0
H248 H 0.42286 0.71719 0.68119 0.0
H249 H 0.38433 0.69239 0.57052 0.0
H250 H 0.50521 0.74643 0.65534 0.0
H251 H 0.50183 0.70702 0.67644 0.0
H252 H 0.47803 0.74083 0.69267 0.0
H253 H 0.45792 0.71751 0.52488 0.0
H254 H 0.41742 0.69734 0.51931 0.0
H255 H 0.45483 0.67461 0.53416 0.0
C256 C 0.84571 0.03889 0.1204 0.0
C257 C 0.8202 0.05778 0.10196 0.0
C258 C 0.83873 0.00797 0.13458 0.0
C259 C 0.80522 0.99583 0.13098 0.0
C260 C 0.77885 0.01585 0.11523 0.0
C261 C 0.7867 0.04653 0.10051 0.0
C262 C 0.86773 0.98744 0.15114 0.0
C263 C 0.74266 0.00429 0.112 0.0
C264 C 0.80922 0.90443 0.122 0.0
C265 C 0.81092 0.89507 0.15935 0.0
C266 C 0.80375 0.93712 0.11172 0.0
C267 C 0.79931 0.96081 0.13949 0.0
C268 C 0.79629 0.95066 0.17652 0.0
C269 C 0.80243 0.91777 0.18615 0.0
C270 C 0.80683 0.94675 0.07181 0.0
C271 C 0.79007 0.97499 0.20659 0.0
H272 H 0.87162 0.04747 0.12213 0.0
H273 H 0.76671 0.06118 0.08681 0.0
H274 H 0.86242 0.97873 0.17913 0.0
H275 H 0.87081 0.96551 0.13358 0.0
H276 H 0.89198 0.00112 0.15349 0.0
H277 H 0.7248 0.02518 0.10897 0.0
H278 H 0.73833 0.98851 0.08713 0.0
H279 H 0.73685 0.98961 0.13652 0.0
H280 H 0.81506 0.88665 0.10117 0.0
H281 H 0.80344 0.91054 0.21505 0.0
H282 H 0.83117 0.95969 0.0695 0.0
H283 H 0.78629 0.96375 0.06215 0.0
H284 H 0.80603 0.92517 0.05306 0.0
H285 H 0.81411 0.98746 0.21573 0.0
H286 H 0.78036 0.9628 0.23108 0.0
H287 H 0.77181 0.99401 0.19621 0.0
C288 C 0.43857 0.32334 0.66304 0.0
C289 C 0.44144 0.33858 0.62864 0.0
C290 C 0.46432 0.32646 0.69184 0.0
C291 C 0.49352 0.34506 0.68587 0.0
C292 C 0.49677 0.35982 0.65091 0.0
C293 C 0.47072 0.35649 0.6229 0.0
C294 C 0.45996 0.31056 0.7288 0.0
C295 C 0.52759 0.37969 0.64316 0.0
C296 C 0.55021 0.3912 0.75568 0.0
C297 C 0.58019 0.37335 0.75462 0.0
C298 C 0.52022 0.38014 0.73679 0.0
C299 C 0.52049 0.35076 0.71603 0.0
C300 C 0.54978 0.33089 0.71839 0.0
C301 C 0.57941 0.34246 0.73782 0.0
C302 C 0.48944 0.40184 0.73555 0.0
C303 C 0.55108 0.29932 0.69692 0.0
H304 H 0.41598 0.30952 0.66768 0.0
H305 H 0.47337 0.3681 0.59634 0.0
H306 H 0.48263 0.29598 0.73791 0.0
H307 H 0.4572 0.32975 0.75006 0.0
H308 H 0.43742 0.29437 0.72789 0.0
H309 H 0.52667 0.38852 0.61405 0.0
H310 H 0.52983 0.40124 0.66186 0.0
H311 H 0.55076 0.36479 0.64868 0.0
H312 H 0.55084 0.415 0.769 0.0
H313 H 0.60265 0.32869 0.73695 0.0
H314 H 0.46615 0.38711 0.73726 0.0
H315 H 0.48712 0.41527 0.70881 0.0
H316 H 0.49111 0.42007 0.75841 0.0
H317 H 0.52726 0.28529 0.69802 0.0
H318 H 0.57254 0.28369 0.7076 0.0
H319 H 0.55427 0.30497 0.66738 0.0
C320 C 0.64596 0.53777 0.44146 0.0
C321 C 0.67266 0.55935 0.45106 0.0
C322 C 0.65187 0.50658 0.42743 0.0
C323 C 0.68541 0.49652 0.42309 0.0
C324 C 0.71242 0.51877 0.43086 0.0
C325 C 0.7057 0.55012 0.44467 0.0
C326 C 0.62221 0.48384 0.41901 0.0
C327 C 0.74848 0.50892 0.4265 0.0
C328 C 0.69045 0.4048 0.4331 0.0
C329 C 0.68535 0.39474 0.39607 0.0
C330 C 0.6938 0.43804 0.44224 0.0
C331 C 0.6917 0.46175 0.4136 0.0
C332 C 0.68959 0.45152 0.37608 0.0
C333 C 0.68649 0.41801 0.36772 0.0
C334 C 0.6965 0.44784 0.48262 0.0
C335 C 0.68747 0.47599 0.34476 0.0
H336 H 0.62031 0.54502 0.44583 0.0
H337 H 0.72642 0.56675 0.45208 0.0
H338 H 0.62271 0.47365 0.39063 0.0
H339 H 0.62386 0.46295 0.43867 0.0
H340 H 0.59761 0.49629 0.42123 0.0
H341 H 0.76579 0.53034 0.42797 0.0
H342 H 0.75693 0.49161 0.44894 0.0
H343 H 0.75059 0.49613 0.39973 0.0
H344 H 0.68998 0.38673 0.45501 0.0
H345 H 0.68246 0.41027 0.33905 0.0
H346 H 0.67202 0.45811 0.48989 0.0
H347 H 0.71596 0.46712 0.48796 0.0
H348 H 0.70288 0.42673 0.50118 0.0
H349 H 0.66177 0.48674 0.34196 0.0
H350 H 0.69247 0.46444 0.31793 0.0
H351 H 0.70566 0.49632 0.35053 0.0
C352 C 0.95573 0.14539 0.9659 0.0
C353 C 0.94144 0.17032 0.98622 0.0
C354 C 0.98492 0.15108 0.94745 0.0
C355 C -2e-05 0.18254 0.94904 0.0
C356 C 0.98452 0.20833 0.96754 0.0
C357 C 0.95549 0.20188 0.98608 0.0
C358 C 0.00068 0.1229 0.92799 0.0
C359 C -0.00046 0.24231 0.96928 0.0
C360 C 0.09441 0.17935 0.94355 0.0
C361 C 0.09732 0.18462 0.90566 0.0
C362 C 0.06295 0.1804 0.95842 0.0
C363 C 0.03372 0.18719 0.93481 0.0
C364 C 0.0368 0.19508 0.8971 0.0
C365 C 0.06869 0.19362 0.88288 0.0
C366 C 0.06079 0.17201 0.99885 0.0
C367 C 0.00624 0.20295 0.87127 0.0
H368 H 0.94492 0.12101 0.96559 0.0
H369 H 0.94433 0.22142 0.00128 0.0
H370 H 0.00555 0.12992 0.89927 0.0
H371 H 0.02536 0.11667 0.94276 0.0
H372 H 0.98448 0.10068 0.92687 0.0
H373 H 0.98203 0.26054 0.98006 0.0
H374 H 0.02316 0.24221 0.98776 0.0
H375 H 0.0062 0.25023 0.94143 0.0
H376 H 0.11666 0.17288 0.96129 0.0
H377 H 0.07087 0.1976 0.85353 0.0
H378 H 0.04736 0.14835 0.00116 0.0
H379 H 0.04614 0.19088 0.01267 0.0
H380 H 0.0861 0.1699 0.01401 0.0
H381 H 0.99157 0.18022 0.86501 0.0
H382 H 0.01335 0.21359 0.84471 0.0
H383 H 0.98942 0.22034 0.88449 0.0
C384 C 0.34515 0.41617 0.42929 0.0
C385 C 0.31962 0.40142 0.4481 0.0
C386 C 0.33761 0.44023 0.40246 0.0
C387 C 0.30364 0.44991 0.39435 0.0
C388 C 0.27745 0.43296 0.41076 0.0
C389 C 0.28577 0.40874 0.43756 0.0
C390 C 0.36638 0.45726 0.38529 0.0
C391 C 0.24092 0.44219 0.40237 0.0
C392 C 0.30306 0.54015 0.37402 0.0
C393 C 0.3034 0.54021 0.33536 0.0
C394 C 0.29972 0.51088 0.39349 0.0
C395 C 0.29685 0.48094 0.37371 0.0
C396 C 0.29383 0.48125 0.33443 0.0
C397 C 0.29718 0.51105 0.3156 0.0
C398 C 0.30264 0.5118 0.43538 0.0
C399 C 0.29018 0.44995 0.31236 0.0
H400 H 0.37132 0.41012 0.43704 0.0
H401 H 0.26595 0.39731 0.45203 0.0
H402 H 0.36127 0.45889 0.35478 0.0
H403 H 0.36893 0.48261 0.3962 0.0
H404 H 0.39083 0.44447 0.39145 0.0
H405 H 0.22369 0.42234 0.41017 0.0
H406 H 0.23532 0.46443 0.41838 0.0
H407 H 0.23553 0.44792 0.37252 0.0
H408 H 0.30748 0.56286 0.38918 0.0
H409 H 0.29742 0.51116 0.28565 0.0
H410 H 0.32754 0.50186 0.44591 0.0
H411 H 0.28289 0.49631 0.44662 0.0
H412 H 0.30037 0.53707 0.44629 0.0
H413 H 0.31521 0.438 0.31205 0.0
H414 H 0.28047 0.45463 0.28322 0.0
H415 H 0.27299 0.43257 0.32512 0.0
C416 C 0.02863 0.86084 0.91567 0.0
C417 C 0.05918 0.84593 0.90832 0.0
C418 C 0.00344 0.86688 0.88738 0.0
C419 C 0.00884 0.85796 0.8505 0.0
C420 C 0.0391 0.84178 0.84291 0.0
C421 C 0.06399 0.83582 0.87205 0.0
C422 C 0.97142 0.88382 0.89693 0.0
C423 C 0.04567 0.83189 0.80395 0.0
C424 C 0.92602 0.86031 0.79174 0.0
C425 C 0.92543 0.89306 0.78005 0.0
C426 C 0.95459 0.84726 0.81179 0.0
C427 C 0.98312 0.86748 0.82031 0.0
C428 C 0.98377 0.89953 0.80546 0.0
C429 C 0.95487 0.91196 0.78557 0.0
C430 C 0.95291 0.81291 0.82687 0.0
C431 C 0.01378 0.92182 0.8135 0.0
H432 H 0.02449 0.86828 0.94374 0.0
H433 H 0.08758 0.82433 0.86625 0.0
H434 H 0.96934 0.90798 0.88295 0.0
H435 H 0.94903 0.86916 0.88689 0.0
H436 H 0.97058 0.88774 0.92724 0.0
H437 H 0.06826 0.81596 0.8033 0.0
H438 H 0.02352 0.81882 0.79045 0.0
H439 H 0.04974 0.85412 0.78725 0.0
H440 H 0.90333 0.84557 0.78766 0.0
H441 H 0.9547 0.93711 0.77599 0.0
H442 H 0.94808 0.814 0.85665 0.0
H443 H 0.9772 0.79996 0.82477 0.0
H444 H 0.93236 0.79843 0.81205 0.0
H445 H 0.01442 0.9303 0.8427 0.0
H446 H 0.01266 0.94366 0.79516 0.0
H447 H 0.03768 0.90855 0.8101 0.0
C448 C 0.84081 0.05118 0.95062 0.0
C449 C 0.82666 0.08258 0.95135 0.0
C450 C 0.83998 0.03295 0.91785 0.0
C451 C 0.82465 0.04639 0.88467 0.0
C452 C 0.8092 0.07762 0.88529 0.0
C453 C 0.81032 0.09541 0.91876 0.0
C454 C 0.85651 0.99962 0.91864 0.0
C455 C 0.79256 0.09267 0.85046 0.0
C456 C 0.86265 0.00671 0.80348 0.0
C457 C 0.84046 0.98039 0.79605 0.0
C458 C 0.85611 0.0305 0.82995 0.0
C459 C 0.82669 0.02785 0.84949 0.0
C460 C 0.80266 0.00312 0.83957 0.0
C461 C 0.80986 0.97962 0.81298 0.0
C462 C 0.88227 0.05665 0.83939 0.0
C463 C 0.77086 0.99957 0.8595 0.0
H464 H 0.85313 0.04086 0.97574 0.0
H465 H 0.79942 0.1197 0.91914 0.0
H466 H 0.83827 0.98083 0.90749 0.0
H467 H 0.87798 0.99972 0.90075 0.0
H468 H 0.86614 0.99221 0.94706 0.0
H469 H 0.77831 0.11521 0.85634 0.0
H470 H 0.8121 0.09903 0.83135 0.0
H471 H 0.77508 0.07491 0.83581 0.0
H472 H 0.88605 0.00774 0.78994 0.0
H473 H 0.79259 0.95931 0.80748 0.0
H474 H 0.89629 0.05063 0.86625 0.0
H475 H 0.8701 0.08079 0.84254 0.0
H476 H 0.90072 0.05868 0.81793 0.0
H477 H 0.7772 0.98856 0.88721 0.0
H478 H 0.75202 0.98357 0.84402 0.0
H479 H 0.75921 0.02378 0.86387 0.0
C480 C 0.45719 0.2812 0.48665 0.0
C481 C 0.44035 0.31126 0.48181 0.0
C482 C 0.48771 0.27545 0.47048 0.0
C483 C 0.50189 0.30056 0.44963 0.0
C484 C 0.48401 0.33018 0.44294 0.0
C485 C 0.45335 0.33501 0.45876 0.0
C486 C 0.50554 0.24318 0.47729 0.0
C487 C 0.4983 0.35772 0.42102 0.0
C488 C 0.59593 0.31317 0.44787 0.0
C489 C 0.60083 0.30657 0.4106 0.0
C490 C 0.56418 0.30926 0.46165 0.0
C491 C 0.53678 0.29772 0.43781 0.0
C492 C 0.54228 0.28802 0.40121 0.0
C493 C 0.5742 0.29286 0.38788 0.0
C494 C 0.55942 0.31995 0.50089 0.0
C495 C 0.51393 0.27474 0.37529 0.0
H496 H 0.44718 0.26255 0.50408 0.0
H497 H 0.44047 0.35824 0.45454 0.0
H498 H 0.51553 0.23395 0.45144 0.0
H499 H 0.52733 0.24661 0.49801 0.0
H500 H 0.48859 0.22433 0.48797 0.0
H501 H 0.48043 0.37851 0.41674 0.0
H502 H 0.52192 0.36694 0.43587 0.0
H503 H 0.50478 0.34877 0.39352 0.0
H504 H 0.61663 0.32292 0.46588 0.0
H505 H 0.57763 0.28768 0.35903 0.0
H506 H 0.54624 0.30068 0.51582 0.0
H507 H 0.5434 0.34221 0.50032 0.0
H508 H 0.58379 0.3256 0.51679 0.0
H509 H 0.49836 0.25706 0.38985 0.0
H510 H 0.52354 0.26246 0.3508 0.0
H511 H 0.49722 0.29512 0.36528 0.0
C512 C 0.20666 0.94864 0.93942 0.0
C513 C 0.17305 0.9383 0.94081 0.0
C514 C 0.21426 0.97968 0.92556 0.0
C515 C 0.1876 0.00095 0.91342 0.0
C516 C 0.15377 0.98983 0.91257 0.0
C517 C 0.14694 0.95857 0.92597 0.0
C518 C 0.25067 0.99032 0.92591 0.0
C519 C 0.12452 0.01175 0.89985 0.0
C520 C 0.19011 0.09219 0.92751 0.0
C521 C 0.18762 0.10334 0.89078 0.0
C522 C 0.19312 0.05878 0.93554 0.0
C523 C 0.19414 0.03607 0.90608 0.0
C524 C 0.19562 0.04753 0.8693 0.0
C525 C 0.19214 0.08118 0.862 0.0
C526 C 0.19167 0.04769 0.97523 0.0
C527 C 0.19776 0.02413 0.8373 0.0
H528 H 0.22705 0.93294 0.95031 0.0
H529 H 0.12091 0.95073 0.92653 0.0
H530 H 0.25523 0.00412 0.90036 0.0
H531 H 0.25677 0.00682 0.94986 0.0
H532 H 0.26817 0.96911 0.92843 0.0
H533 H 0.09993 0.99866 0.89861 0.0
H534 H 0.12334 0.03271 0.91923 0.0
H535 H 0.12813 0.02189 0.87201 0.0
H536 H 0.18721 0.10945 0.94982 0.0
H537 H 0.19032 0.08976 0.83355 0.0
H538 H 0.21155 0.02929 0.98257 0.0
H539 H 0.1669 0.03587 0.97853 0.0
H540 H 0.19478 0.06838 0.99514 0.0
H541 H 0.2153 0.00369 0.84494 0.0
H542 H 0.20626 0.03667 0.81241 0.0
H543 H 0.17246 0.0134 0.82989 0.0
C544 C 0.53737 0.67877 0.40375 0.0
C545 C 0.55596 0.65083 0.41505 0.0
C546 C 0.50662 0.67605 0.38206 0.0
C547 C 0.49417 0.64467 0.37153 0.0
C548 C 0.51399 0.6166 0.38057 0.0
C549 C 0.54467 0.62002 0.40211 0.0
C550 C 0.48644 0.70659 0.37255 0.0
C551 C 0.5017 0.58267 0.36972 0.0
C552 C 0.40032 0.62752 0.36485 0.0
C553 C 0.39305 0.624 0.32652 0.0
C554 C 0.43285 0.63568 0.37966 0.0
C555 C 0.4588 0.64055 0.35551 0.0
C556 C 0.45121 0.63888 0.31664 0.0
C557 C 0.41831 0.6306 0.30255 0.0
C558 C 0.43975 0.63752 0.42129 0.0
C559 C 0.47815 0.64424 0.29006 0.0
H560 H 0.54601 0.70273 0.41326 0.0
H561 H 0.55901 0.5983 0.41025 0.0
H562 H 0.47611 0.70607 0.34318 0.0
H563 H 0.46471 0.70783 0.39002 0.0
H564 H 0.50181 0.72914 0.37736 0.0
H565 H 0.52155 0.56382 0.37543 0.0
H566 H 0.47975 0.57626 0.3855 0.0
H567 H 0.49312 0.58182 0.33983 0.0
H568 H 0.38065 0.62298 0.3834 0.0
H569 H 0.41276 0.62781 0.2729 0.0
H570 H 0.45201 0.66114 0.42936 0.0
H571 H 0.4574 0.61769 0.43084 0.0
H572 H 0.41637 0.63504 0.43604 0.0
H573 H 0.49292 0.66666 0.29756 0.0
H574 H 0.46734 0.64642 0.26092 0.0
H575 H 0.49599 0.62333 0.29185 0.0
C576 C 0.30084 0.4528 0.59083 0.0
C577 C 0.33339 0.43936 0.59145 0.0
C578 C 0.29587 0.48524 0.60211 0.0
C579 C 0.32414 0.50472 0.61402 0.0
C580 C 0.35687 0.49084 0.61629 0.0
C581 C 0.36107 0.45832 0.60518 0.0
C582 C 0.26056 0.49904 0.59985 0.0
C583 C 0.3877 0.51081 0.62883 0.0
C584 C 0.32435 0.59667 0.60096 0.0
C585 C 0.32363 0.60784 0.63756 0.0
C586 C 0.3228 0.56315 0.59265 0.0
C587 C 0.32014 0.54023 0.62163 0.0
C588 C 0.31704 0.55143 0.65824 0.0
C589 C 0.31896 0.58514 0.66582 0.0
C590 C 0.32605 0.55223 0.55317 0.0
C591 C 0.31371 0.52776 0.68978 0.0
H592 H 0.27925 0.4383 0.58052 0.0
H593 H 0.38631 0.44818 0.60598 0.0
H594 H 0.25575 0.51172 0.62604 0.0
H595 H 0.25775 0.51744 0.57728 0.0
H596 H 0.24106 0.47978 0.59425 0.0
H597 H 0.41113 0.4959 0.63093 0.0
H598 H 0.39086 0.53102 0.6089 0.0
H599 H 0.38454 0.52207 0.65624 0.0
H600 H 0.32735 0.61415 0.57891 0.0
H601 H 0.31862 0.59352 0.69422 0.0
H602 H 0.30556 0.53482 0.54426 0.0
H603 H 0.35036 0.5392 0.55142 0.0
H604 H 0.32519 0.57312 0.53347 0.0
H605 H 0.29437 0.50886 0.68195 0.0
H606 H 0.30678 0.54033 0.71536 0.0
H607 H 0.33806 0.51493 0.6961 0.0
C608 C 0.02659 0.81825 0.04056 0.0
C609 C 0.05924 0.82116 0.05761 0.0
C610 C 0.99871 0.81581 0.06185 0.0
C611 C 0.00392 0.81512 0.10105 0.0
C612 C 0.03719 0.8158 0.11823 0.0
C613 C 0.06454 0.81963 0.09624 0.0
C614 C 0.96366 0.81626 0.04244 0.0
C615 C 0.04382 0.81384 0.15981 0.0
C616 C 0.93337 0.85264 0.15097 0.0
C617 C 0.91304 0.82532 0.15708 0.0
C618 C 0.96345 0.84948 0.13363 0.0
C619 C 0.97445 0.81801 0.12368 0.0
C620 C 0.95564 0.79001 0.13258 0.0
C621 C 0.92482 0.79401 0.1487 0.0
C622 C 0.98243 0.88008 0.12415 0.0
C623 C 0.96737 0.75598 0.12375 0.0
H624 H 0.02275 0.81977 0.01059 0.0
H625 H 0.08999 0.82178 0.10917 0.0
H626 H 0.94871 0.7952 0.05146 0.0
H627 H 0.9504 0.8389 0.05006 0.0
H628 H 0.96406 0.81541 0.01178 0.0
H629 H 0.07075 0.80848 0.16817 0.0
H630 H 0.03725 0.83748 0.17247 0.0
H631 H 0.02787 0.79462 0.17134 0.0
H632 H 0.92524 0.87683 0.15872 0.0
H633 H 0.90946 0.77272 0.15344 0.0
H634 H 0.98346 0.88185 0.09364 0.0
H635 H 0.0088 0.87902 0.13654 0.0
H636 H 0.9705 0.90269 0.13408 0.0
H637 H 0.96372 0.75169 0.09343 0.0
H638 H 0.95319 0.73688 0.13795 0.0
H639 H 0.9947 0.7532 0.13201 0.0
C640 C 0.63909 0.5887 0.62236 0.0
C641 C 0.6651 0.59188 0.59848 0.0
C642 C 0.64128 0.56584 0.6513 0.0
C643 C 0.67018 0.54566 0.65652 0.0
C644 C 0.69771 0.55065 0.63452 0.0
C645 C 0.69486 0.57377 0.60572 0.0
C646 C 0.61146 0.56151 0.67433 0.0
C647 C 0.72908 0.52983 0.63945 0.0
C648 C 0.67493 0.4902 0.74134 0.0
C649 C 0.65963 0.4617 0.72636 0.0
C650 C 0.67972 0.51761 0.71877 0.0
C651 C 0.66903 0.51622 0.68051 0.0
C652 C 0.65492 0.48695 0.66512 0.0
C653 C 0.65046 0.4601 0.6882 0.0
C654 C 0.69503 0.54835 0.73604 0.0
C655 C 0.64343 0.48427 0.62441 0.0
H656 H 0.61623 0.60301 0.61739 0.0
H657 H 0.71523 0.57627 0.58764 0.0
H658 H 0.59837 0.53821 0.66655 0.0
H659 H 0.61993 0.56002 0.70422 0.0
H660 H 0.59299 0.58183 0.67018 0.0
H661 H 0.75025 0.54046 0.62504 0.0
H662 H 0.73728 0.52684 0.66926 0.0
H663 H 0.7235 0.50509 0.62788 0.0
H664 H 0.68209 0.49142 0.77083 0.0
H665 H 0.63933 0.43781 0.67643 0.0
H666 H 0.67546 0.56767 0.73616 0.0
H667 H 0.71537 0.5577 0.71951 0.0
H668 H 0.70557 0.54428 0.76502 0.0
H669 H 0.62258 0.5018 0.61749 0.0
H670 H 0.63441 0.45928 0.61659 0.0
H671 H 0.6644 0.49077 0.60722 0.0
C672 C 0.93962 0.12209 0.15347 0.0
C673 C 0.93143 0.15277 0.13813 0.0
C674 C 0.96837 0.11785 0.17785 0.0
C675 C 0.9898 0.14492 0.1866 0.0
C676 C 0.98013 0.17654 0.1736 0.0
C677 C 0.9508 0.18015 0.14951 0.0
C678 C 0.97732 0.08378 0.1915 0.0
C679 C 0.0022 0.20602 0.18242 0.0
C680 C 0.06199 0.12641 0.25876 0.0
C681 C 0.08677 0.11545 0.23612 0.0
C682 C 0.03072 0.138 0.24314 0.0
C683 C 0.02438 0.13879 0.20407 0.0
C684 C 0.05023 0.12969 0.18123 0.0
C685 C 0.08101 0.11802 0.19754 0.0
C686 C 0.00387 0.14752 0.2684 0.0
C687 C 0.04476 0.1305 0.13944 0.0
H688 H 0.92445 0.10096 0.14472 0.0
H689 H 0.94456 0.20385 0.13737 0.0
H690 H 0.99904 0.07453 0.17703 0.0
H691 H 0.98501 0.08407 0.22163 0.0
H692 H 0.95595 0.06639 0.18634 0.0
H693 H 0.98833 0.22927 0.17657 0.0
H694 H 0.0122 0.20586 0.21191 0.0
H695 H 0.02412 0.20535 0.16519 0.0
H696 H 0.06644 0.12444 0.28863 0.0
H697 H 0.10041 0.11008 0.18004 0.0
H698 H 0.98424 0.12814 0.26771 0.0
H699 H 0.99128 0.17056 0.25885 0.0
H700 H 0.01436 0.1507 0.29755 0.0
H701 H 0.02585 0.11167 0.12997 0.0
H702 H 0.06838 0.12572 0.12581 0.0
H703 H 0.03465 0.15464 0.13001 0.0
C704 C 0.22854 0.77078 0.07827 0.0
C705 C 0.19706 0.76479 0.05916 0.0
C706 C 0.24378 0.74736 0.10247 0.0
C707 C 0.22738 0.71703 0.10721 0.0
C708 C 0.19565 0.71079 0.08793 0.0
C709 C 0.18074 0.73486 0.06437 0.0
C710 C 0.27737 0.75509 0.12304 0.0
C711 C 0.17761 0.67857 0.0919 0.0
C712 C 0.28121 0.64534 0.14309 0.0
C713 C 0.27441 0.64444 0.1805 0.0
C714 C 0.26598 0.66875 0.11885 0.0
C715 C 0.24342 0.69184 0.13242 0.0
C716 C 0.23609 0.69082 0.17008 0.0
C717 C 0.25128 0.66683 0.19355 0.0
C718 C 0.27393 0.66871 0.0787 0.0
C719 C 0.21229 0.71514 0.1856 0.0
H720 H 0.24117 0.79396 0.07458 0.0
H721 H 0.1565 0.72998 0.04952 0.0
H722 H 0.27528 0.75307 0.15336 0.0
H723 H 0.29658 0.73708 0.11557 0.0
H724 H 0.28649 0.78006 0.1168 0.0
H725 H 0.15325 0.67745 0.07467 0.0
H726 H 0.19385 0.65815 0.08368 0.0
H727 H 0.1726 0.67454 0.12129 0.0
H728 H 0.29847 0.62759 0.1328 0.0
H729 H 0.24513 0.66581 0.22218 0.0
H730 H 0.28534 0.69247 0.07161 0.0
H731 H 0.25033 0.66582 0.06049 0.0
H732 H 0.2916 0.64877 0.07242 0.0
H733 H 0.2214 0.74044 0.18128 0.0
H734 H 0.2098 0.71145 0.21569 0.0
H735 H 0.18691 0.71304 0.17072 0.0
C736 C 0.69811 0.76449 0.55713 0.0
C737 C 0.70255 0.73086 0.56369 0.0
C738 C 0.71283 0.78782 0.58192 0.0
C739 C 0.73227 0.77726 0.61414 0.0
C740 C 0.7369 0.74339 0.6209 0.0
C741 C 0.72207 0.72062 0.59558 0.0
C742 C 0.7075 0.82376 0.57373 0.0
C743 C 0.75728 0.73117 0.6551 0.0
C744 C 0.79528 0.8346 0.66515 0.0
C745 C 0.77705 0.84541 0.69449 0.0
C746 C 0.78067 0.81313 0.63815 0.0
C747 C 0.74738 0.80157 0.64118 0.0
C748 C 0.72896 0.81225 0.67091 0.0
C749 C 0.74407 0.834 0.69725 0.0
C750 C 0.80105 0.80235 0.60678 0.0
C751 C 0.69358 0.8001 0.67537 0.0
H752 H 0.68311 0.77266 0.53257 0.0
H753 H 0.72555 0.6947 0.601 0.0
H754 H 0.69445 0.83542 0.59633 0.0
H755 H 0.73223 0.83622 0.57259 0.0
H756 H 0.6923 0.82795 0.54707 0.0
H757 H 0.75864 0.70403 0.65616 0.0
H758 H 0.78334 0.74106 0.65594 0.0
H759 H 0.74595 0.74002 0.68034 0.0
H760 H 0.82111 0.84272 0.6635 0.0
H761 H 0.73026 0.84174 0.72043 0.0
H762 H 0.78686 0.80729 0.57974 0.0
H763 H 0.80547 0.77557 0.60848 0.0
H764 H 0.82588 0.81496 0.60731 0.0
H765 H 0.67706 0.80533 0.64993 0.0
H766 H 0.68234 0.81153 0.69941 0.0
H767 H 0.69385 0.77316 0.67925 0.0
C768 C 0.78896 0.23517 0.12928 0.0
C769 C 0.78834 0.2011 0.12449 0.0
C770 C 0.77068 0.25017 0.15624 0.0
C771 C 0.75176 0.23058 0.17938 0.0
C772 C 0.75148 0.19613 0.17516 0.0
C773 C 0.76958 0.1818 0.14752 0.0
C774 C 0.77122 0.28703 0.15955 0.0
C775 C 0.732 0.17446 0.19975 0.0
C776 C 0.72854 0.27055 0.26866 0.0
C777 C 0.69487 0.27959 0.25945 0.0
C778 C 0.74702 0.25356 0.24327 0.0
C779 C 0.73179 0.24636 0.20752 0.0
C780 C 0.69792 0.25564 0.198 0.0
C781 C 0.67989 0.27216 0.22411 0.0
C782 C 0.78304 0.24387 0.25446 0.0
C783 C 0.68101 0.2489 0.15992 0.0
H784 H 0.80327 0.25027 0.11145 0.0
H785 H 0.76922 0.15543 0.14413 0.0
H786 H 0.74518 0.29677 0.15485 0.0
H787 H 0.78087 0.29435 0.18795 0.0
H788 H 0.78721 0.29871 0.13939 0.0
H789 H 0.73524 0.14805 0.19367 0.0
H790 H 0.74038 0.17898 0.22929 0.0
H791 H 0.70472 0.18045 0.19608 0.0
H792 H 0.74058 0.27696 0.29559 0.0
H793 H 0.65413 0.27982 0.21672 0.0
H794 H 0.80043 0.25719 0.23716 0.0
H795 H 0.78658 0.21733 0.24958 0.0
H796 H 0.79039 0.2493 0.28408 0.0
H797 H 0.69471 0.26186 0.13868 0.0
H798 H 0.65421 0.25689 0.15731 0.0
H799 H 0.68198 0.22236 0.15362 0.0
C800 C 0.28492 0.32345 0.66126 0.0
C801 C 0.29921 0.30048 0.63828 0.0
C802 C 0.27067 0.31365 0.69379 0.0
C803 C 0.2703 0.28004 0.70323 0.0
C804 C 0.28474 0.25676 0.68019 0.0
C805 C 0.29926 0.26729 0.64814 0.0
C806 C 0.25594 0.33922 0.71799 0.0
C807 C 0.28445 0.22066 0.68916 0.0
C808 C 0.25856 0.25374 0.80204 0.0
C809 C 0.2243 0.24519 0.79959 0.0
C810 C 0.2738 0.26568 0.771 0.0
C811 C 0.25424 0.26904 0.73681 0.0
C812 C 0.21943 0.26118 0.73445 0.0
C813 C 0.20477 0.24976 0.76604 0.0
C814 C 0.31085 0.2744 0.7747 0.0
C815 C 0.1978 0.26433 0.69842 0.0
H816 H 0.28509 0.34919 0.65397 0.0
H817 H 0.31017 0.24939 0.63046 0.0
H818 H 0.2286 0.33456 0.71974 0.0
H819 H 0.26812 0.33774 0.7466 0.0
H820 H 0.25921 0.36443 0.70735 0.0
H821 H 0.2968 0.20572 0.66839 0.0
H822 H 0.29763 0.21626 0.71686 0.0
H823 H 0.25805 0.21204 0.69028 0.0
H824 H 0.27347 0.25091 0.82822 0.0
H825 H 0.17808 0.2439 0.76439 0.0
H826 H 0.31447 0.30003 0.76569 0.0
H827 H 0.32483 0.25847 0.75635 0.0
H828 H 0.32214 0.27166 0.8036 0.0
H829 H 0.1985 0.28987 0.68813 0.0
H830 H 0.17109 0.2574 0.70135 0.0
H831 H 0.20793 0.24844 0.67702 0.0
C832 C 0.68276 0.70192 0.37547 0.0
C833 C 0.70152 0.69606 0.40926 0.0
C834 C 0.69855 0.71231 0.34418 0.0
C835 C 0.73389 0.71742 0.34693 0.0
C836 C 0.75304 0.71122 0.38083 0.0
C837 C 0.73664 0.70035 0.41155 0.0
C838 C 0.67737 0.71819 0.30831 0.0
C839 C 0.79073 0.71676 0.38487 0.0
C840 C 0.78007 0.72131 0.25898 0.0
C841 C 0.7829 0.75517 0.25392 0.0
C842 C 0.76405 0.7086 0.28911 0.0
C843 C 0.75065 0.73035 0.31467 0.0
C844 C 0.75309 0.76457 0.30938 0.0
C845 C 0.76883 0.77656 0.27878 0.0
C846 C 0.76137 0.67196 0.29354 0.0
C847 C 0.7392 0.78852 0.33613 0.0
H848 H 0.65564 0.6983 0.37343 0.0
H849 H 0.75128 0.69593 0.43761 0.0
H850 H 0.6787 0.74438 0.30049 0.0
H851 H 0.68738 0.70377 0.28559 0.0
H852 H 0.65046 0.71149 0.31031 0.0
H853 H 0.80204 0.71015 0.41291 0.0
H854 H 0.80314 0.70211 0.36399 0.0
H855 H 0.79635 0.74289 0.3796 0.0
H856 H 0.79039 0.70478 0.23932 0.0
H857 H 0.7704 0.80275 0.27436 0.0
H858 H 0.73447 0.6647 0.29383 0.0
H859 H 0.77424 0.66433 0.32046 0.0
H860 H 0.77271 0.65842 0.27095 0.0
H861 H 0.71163 0.78474 0.33708 0.0
H862 H 0.74373 0.81438 0.32838 0.0
H863 H 0.751 0.78423 0.36452 0.0
C864 C 0.76741 0.22784 0.96509 0.0
C865 C 0.8025 0.22447 0.97167 0.0
C866 C 0.75347 0.24933 0.93784 0.0
C867 C 0.77511 0.26761 0.91636 0.0
C868 C 0.81054 0.26415 0.92264 0.0
C869 C 0.82382 0.24274 0.95034 0.0
C870 C 0.71556 0.2526 0.93213 0.0
C871 C 0.83441 0.28298 0.89999 0.0
C872 C 0.73862 0.30048 0.82365 0.0
C873 C 0.73249 0.33326 0.83229 0.0
C874 C 0.75259 0.27883 0.85074 0.0
C875 C 0.76065 0.29034 0.88728 0.0
C876 C 0.75485 0.32353 0.89605 0.0
C877 C 0.74117 0.3447 0.86831 0.0
C878 C 0.75883 0.2437 0.84024 0.0
C879 C 0.76303 0.33665 0.93474 0.0
H880 H 0.75075 0.2139 0.9815 0.0
H881 H 0.85095 0.2401 0.95508 0.0
H882 H 0.70812 0.27843 0.9363 0.0
H883 H 0.70686 0.24585 0.90325 0.0
H884 H 0.70225 0.23688 0.95139 0.0
H885 H 0.8613 0.27724 0.90809 0.0
H886 H 0.82908 0.27725 0.87012 0.0
H887 H 0.83052 0.30966 0.90337 0.0
H888 H 0.73254 0.29178 0.79561 0.0
H889 H 0.73712 0.37024 0.87477 0.0
H890 H 0.74434 0.22702 0.8573 0.0
H891 H 0.78595 0.23767 0.84602 0.0
H892 H 0.75151 0.23875 0.8105 0.0
H893 H 0.74896 0.32261 0.95482 0.0
H894 H 0.7566 0.36299 0.9371 0.0
H895 H 0.79032 0.3335 0.94291 0.0
C896 C 0.25836 0.25946 0.4854 0.0
C897 C 0.29374 0.26092 0.48707 0.0
C898 C 0.24047 0.23536 0.46433 0.0
C899 C 0.25836 0.21236 0.44413 0.0
C900 C 0.29401 0.21394 0.44527 0.0
C901 C 0.31129 0.23811 0.46684 0.0
C902 C 0.20245 0.2343 0.464 0.0
C903 C 0.31391 0.19004 0.42377 0.0
C904 C 0.21567 0.13168 0.41693 0.0
C905 C 0.20426 0.13751 0.37991 0.0
C906 C 0.23336 0.15581 0.43817 0.0
C907 C 0.23974 0.18651 0.42194 0.0
C908 C 0.22798 0.19267 0.38465 0.0
C909 C 0.20992 0.16827 0.36426 0.0
C910 C 0.24496 0.14856 0.47805 0.0
C911 C 0.23442 0.22506 0.36634 0.0
H912 H 0.24457 0.2769 0.50098 0.0
H913 H 0.3386 0.23916 0.46779 0.0
H914 H 0.19099 0.23684 0.4352 0.0
H915 H 0.1943 0.21028 0.47452 0.0
H916 H 0.19235 0.25396 0.48124 0.0
H917 H 0.34149 0.19496 0.42704 0.0
H918 H 0.30932 0.16471 0.43321 0.0
H919 H 0.30539 0.19123 0.39385 0.0
H920 H 0.21055 0.10821 0.42932 0.0
H921 H 0.20029 0.17326 0.33598 0.0
H922 H 0.23377 0.1665 0.49659 0.0
H923 H 0.27279 0.15114 0.4823 0.0
H924 H 0.23786 0.12351 0.48654 0.0
H925 H 0.2225 0.24513 0.3813 0.0
H926 H 0.22442 0.2256 0.33681 0.0
H927 H 0.26194 0.23013 0.36779 0.0
C928 C 0.20325 0.76299 0.90208 0.0
C929 C 0.20542 0.79666 0.90955 0.0
C930 C 0.22153 0.74879 0.87462 0.0
C931 C 0.24209 0.76881 0.85371 0.0
C932 C 0.24369 0.80294 0.86036 0.0
C933 C 0.22551 0.81645 0.88843 0.0
C934 C 0.2195 0.71221 0.86866 0.0
C935 C 0.26495 0.82508 0.83817 0.0
C936 C 0.31455 0.72649 0.81099 0.0
C937 C 0.30097 0.72097 0.77464 0.0
C938 C 0.29593 0.7427 0.83678 0.0
C939 C 0.26286 0.75366 0.8259 0.0
C940 C 0.24908 0.7485 0.78909 0.0
C941 C 0.26812 0.73178 0.76399 0.0
C942 C 0.31128 0.74725 0.87596 0.0
C943 C 0.21397 0.76003 0.77646 0.0
H944 H 0.1879 0.74749 0.91837 0.0
H945 H 0.22707 0.84253 0.89387 0.0
H946 H 0.21115 0.70672 0.83935 0.0
H947 H 0.24488 0.7012 0.87439 0.0
H948 H 0.2018 0.70021 0.88677 0.0
H949 H 0.26203 0.8513 0.84541 0.0
H950 H 0.29196 0.81837 0.84316 0.0
H951 H 0.25794 0.82188 0.8081 0.0
H952 H 0.33965 0.71752 0.8194 0.0
H953 H 0.25711 0.72694 0.73619 0.0
H954 H 0.29602 0.73388 0.89552 0.0
H955 H 0.31099 0.77351 0.88374 0.0
H956 H 0.33769 0.73825 0.87961 0.0
H957 H 0.19512 0.74652 0.79166 0.0
H958 H 0.20794 0.75631 0.74625 0.0
H959 H 0.21121 0.7864 0.7829 0.0
loop_
_geom_bond_atom_site_label_1
_geom_bond_atom_site_label_2
_geom_bond_distance
_geom_bond_site_symmetry_2
_ccdc_geom_bond_type
Fe0 O2 1.918 1_554 S
Fe0 O5 1.997 . S
Fe0 O6 2.002 . S
Fe0 O11 1.976 1_554 S
Fe0 O14 1.996 1_554 S
Fe1 O2 1.918 1_554 S
Fe1 O9 1.997 . S
Fe1 O12 1.996 1_554 S
Fe1 O16 1.976 1_554 S
Fe1 O19 2.002 . S
O2 Fe0 1.918 1_556 S
O2 Fe1 1.918 1_556 S
O2 Fe3 1.918 . S
Fe3 O2 1.918 . S
Fe3 O4 2.002 1_556 S
Fe3 O13 1.976 . S
Fe3 O17 1.996 . S
Fe3 O20 1.997 1_556 S
O4 Fe3 2.002 1_554 S
O4 C21 1.295 . S
O5 Fe0 1.997 . S
O5 C21 1.235 . S
O6 Fe0 2.002 . S
O6 C7 1.295 . S
C7 O6 1.295 . S
C7 O9 1.235 . S
C8 O13 1.287 . S
C8 O14 1.255 . S
O9 Fe1 1.997 . S
O9 C7 1.235 . S
C10 O16 1.287 . S
C10 O17 1.255 . S
O11 Fe0 1.976 1_556 S
O11 C18 1.287 . S
O12 Fe1 1.996 1_556 S
O12 C18 1.255 . S
O13 Fe3 1.976 . S
O13 C8 1.287 . S
O14 Fe0 1.996 1_556 S
O14 C8 1.255 . S
C15 O19 1.295 . S
C15 O20 1.235 . S
O16 Fe1 1.976 1_556 S
O16 C10 1.287 . S
O17 Fe3 1.996 . S
O17 C10 1.255 . S
C18 O11 1.287 . S
C18 O12 1.255 . S
O19 Fe1 2.002 . S
O19 C15 1.295 . S
O20 Fe3 1.997 1_554 S
O20 C15 1.235 . S
C21 O4 1.295 . S
C21 O5 1.235 . S
Fe22 O24 1.918 . S
Fe22 O27 1.997 . S
Fe22 O28 2.002 . S
Fe22 O33 1.976 . S
Fe22 O36 1.996 . S
Fe23 O24 1.918 . S
Fe23 O31 1.997 . S
Fe23 O34 1.996 . S
Fe23 O38 1.976 . S
Fe23 O41 2.002 . S
O24 Fe22 1.918 . S
O24 Fe23 1.918 . S
O24 Fe25 1.918 . S
Fe25 O24 1.918 . S
Fe25 O26 2.002 . S
Fe25 O35 1.976 . S
Fe25 O39 1.996 . S
Fe25 O42 1.997 . S
O26 Fe25 2.002 . S
O26 C43 1.295 . S
O27 Fe22 1.997 . S
O27 C43 1.235 . S
O28 Fe22 2.002 . S
O28 C29 1.295 . S
C29 O28 1.295 . S
C29 O31 1.235 . S
C30 O35 1.287 . S
C30 O36 1.255 . S
O31 Fe23 1.997 . S
O31 C29 1.235 . S
C32 O38 1.287 . S
C32 O39 1.255 . S
O33 Fe22 1.976 . S
O33 C40 1.287 . S
O34 Fe23 1.996 . S
O34 C40 1.255 . S
O35 Fe25 1.976 . S
O35 C30 1.287 . S
O36 Fe22 1.996 . S
O36 C30 1.255 . S
C37 O41 1.295 . S
C37 O42 1.235 . S
O38 Fe23 1.976 . S
O38 C32 1.287 . S
O39 Fe25 1.996 . S
O39 C32 1.255 . S
C40 O33 1.287 . S
C40 O34 1.255 . S
O41 Fe23 2.002 . S
O41 C37 1.295 . S
O42 Fe25 1.997 . S
O42 C37 1.235 . S
C43 O26 1.295 . S
C43 O27 1.235 . S
Fe44 O46 1.918 . S
Fe44 O49 1.997 . S
Fe44 O50 2.002 . S
Fe44 O55 1.976 . S
Fe44 O58 1.996 . S
Fe45 O46 1.918 . S
Fe45 O53 1.997 . S
Fe45 O56 1.996 . S
Fe45 O60 1.976 . S
Fe45 O63 2.002 1_554 S
O46 Fe44 1.918 . S
O46 Fe45 1.918 . S
O46 Fe47 1.918 . S
Fe47 O46 1.918 . S
Fe47 O48 2.002 . S
Fe47 O57 1.976 . S
Fe47 O61 1.996 . S
Fe47 O64 1.997 1_554 S
O48 Fe47 2.002 . S
O48 C65 1.295 . S
O49 Fe44 1.997 . S
O49 C65 1.235 . S
O50 Fe44 2.002 . S
O50 C51 1.295 . S
C51 O50 1.295 . S
C51 O53 1.235 . S
C52 O57 1.287 . S
C52 O58 1.255 . S
O53 Fe45 1.997 . S
O53 C51 1.235 . S
C54 O60 1.287 . S
C54 O61 1.255 . S
O55 Fe44 1.976 . S
O55 C62 1.287 . S
O56 Fe45 1.996 . S
O56 C62 1.255 . S
O57 Fe47 1.976 . S
O57 C52 1.287 . S
O58 Fe44 1.996 . S
O58 C52 1.255 . S
C59 O63 1.295 . S
C59 O64 1.235 . S
O60 Fe45 1.976 . S
O60 C54 1.287 . S
O61 Fe47 1.996 . S
O61 C54 1.255 . S
C62 O55 1.287 . S
C62 O56 1.255 . S
O63 Fe45 2.002 1_556 S
O63 C59 1.295 . S
O64 Fe47 1.997 1_556 S
O64 C59 1.235 . S
C65 O48 1.295 . S
C65 O49 1.235 . S
Fe66 O68 1.918 . S
Fe66 O71 1.997 . S
Fe66 O72 2.002 . S
Fe66 O77 1.976 . S
Fe66 O80 1.996 . S
Fe67 O68 1.918 . S
Fe67 O75 1.997 . S
Fe67 O78 1.996 . S
Fe67 O82 1.976 . S
Fe67 O85 2.002 . S
O68 Fe66 1.918 . S
O68 Fe67 1.918 . S
O68 Fe69 1.918 . S
Fe69 O68 1.918 . S
Fe69 O70 2.002 . S
Fe69 O79 1.976 . S
Fe69 O83 1.996 . S
Fe69 O86 1.997 . S
O70 Fe69 2.002 . S
O70 C87 1.295 . S
O71 Fe66 1.997 . S
O71 C87 1.235 . S
O72 Fe66 2.002 . S
O72 C73 1.295 . S
C73 O72 1.295 . S
C73 O75 1.235 . S
C74 O79 1.287 . S
C74 O80 1.255 . S
O75 Fe67 1.997 . S
O75 C73 1.235 . S
C76 O82 1.287 . S
C76 O83 1.255 . S
O77 Fe66 1.976 . S
O77 C84 1.287 . S
O78 Fe67 1.996 . S
O78 C84 1.255 . S
O79 Fe69 1.976 . S
O79 C74 1.287 . S
O80 Fe66 1.996 . S
O80 C74 1.255 . S
C81 O85 1.295 . S
C81 O86 1.235 . S
O82 Fe67 1.976 . S
O82 C76 1.287 . S
O83 Fe69 1.996 . S
O83 C76 1.255 . S
C84 O77 1.287 . S
C84 O78 1.255 . S
O85 Fe67 2.002 . S
O85 C81 1.295 . S
O86 Fe69 1.997 . S
O86 C81 1.235 . S
C87 O70 1.295 . S
C87 O71 1.235 . S
H88 C95 0.929 . S
H89 C98 0.930 . S
H90 C100 0.929 . S
H91 C92 0.969 . S
C92 H91 0.969 . S
C92 O93 1.550 . S
C92 H94 0.973 . S
O93 C92 1.550 . S
O93 C99 1.412 . S
H94 C92 0.973 . S
C95 H88 0.929 . S
C95 C96 1.400 . S
C95 C97 1.364 . S
C96 C95 1.400 . S
C96 C100 1.377 . S
C97 C95 1.364 . S
C97 C98 1.374 . S
C98 H89 0.930 . S
C98 C97 1.374 . S
C98 C99 1.383 . S
C99 O93 1.412 . S
C99 C98 1.383 . S
C99 C100 1.394 . S
C100 H90 0.929 . S
C100 C96 1.377 . S
C100 C99 1.394 . S
H101 C108 0.929 . S
H102 C111 0.930 . S
H103 C113 0.929 . S
H104 C105 0.969 . S
C105 H104 0.969 . S
C105 O106 1.550 . S
C105 H107 0.973 . S
O106 C105 1.550 . S
O106 C112 1.412 . S
H107 C105 0.973 . S
C108 H101 0.929 . S
C108 C109 1.400 . S
C108 C110 1.364 . S
C109 C108 1.400 . S
C109 C113 1.377 . S
C110 C108 1.364 . S
C110 C111 1.374 . S
C111 H102 0.930 . S
C111 C110 1.374 . S
C111 C112 1.383 . S
C112 O106 1.412 . S
C112 C111 1.383 . S
C112 C113 1.394 . S
C113 H103 0.929 . S
C113 C109 1.377 . S
C113 C112 1.394 . S
H114 C121 0.929 . S
H115 C124 0.930 . S
H116 C126 0.929 . S
H117 C118 0.969 . S
C118 H117 0.969 . S
C118 O119 1.550 . S
C118 H120 0.973 . S
O119 C118 1.550 . S
O119 C125 1.412 . S
H120 C118 0.973 . S
C121 H114 0.929 . S
C121 C122 1.400 . S
C121 C123 1.364 . S
C122 C121 1.400 . S
C122 C126 1.377 . S
C123 C121 1.364 . S
C123 C124 1.374 . S
C124 H115 0.930 . S
C124 C123 1.374 . S
C124 C125 1.383 . S
C125 O119 1.412 . S
C125 C124 1.383 . S
C125 C126 1.394 . S
C126 H116 0.929 . S
C126 C122 1.377 . S
C126 C125 1.394 . S
H127 C134 0.929 . S
H128 C137 0.930 . S
H129 C139 0.929 . S
H130 C131 0.969 . S
C131 H130 0.969 . S
C131 O132 1.550 . S
C131 H133 0.973 . S
O132 C131 1.550 . S
O132 C138 1.412 . S
H133 C131 0.973 . S
C134 H127 0.929 . S
C134 C135 1.400 . S
C134 C136 1.364 . S
C135 C134 1.400 . S
C135 C139 1.377 . S
C136 C134 1.364 . S
C136 C137 1.374 . S
C137 H128 0.930 . S
C137 C136 1.374 . S
C137 C138 1.383 . S
C138 O132 1.412 . S
C138 C137 1.383 . S
C138 C139 1.394 . S
C139 H129 0.929 . S
C139 C135 1.377 . S
C139 C138 1.394 . S
H140 C147 0.929 . S
H141 C150 0.930 . S
H142 C152 0.929 . S
H143 C144 0.969 . S
C144 H143 0.969 . S
C144 O145 1.550 . S
C144 H146 0.973 . S
O145 C144 1.550 . S
O145 C151 1.412 . S
H146 C144 0.973 . S
C147 H140 0.929 . S
C147 C148 1.400 . S
C147 C149 1.364 . S
C148 C147 1.400 . S
C148 C152 1.377 . S
C149 C147 1.364 . S
C149 C150 1.374 . S
C150 H141 0.930 . S
C150 C149 1.374 . S
C150 C151 1.383 . S
C151 O145 1.412 . S
C151 C150 1.383 . S
C151 C152 1.394 . S
C152 H142 0.929 . S
C152 C148 1.377 . S
C152 C151 1.394 . S
H153 C160 0.929 . S
H154 C163 0.930 . S
H155 C165 0.929 . S
H156 C157 0.969 . S
C157 H156 0.969 . S
C157 O158 1.550 . S
C157 H159 0.973 . S
O158 C157 1.550 . S
O158 C164 1.412 . S
H159 C157 0.973 . S
C160 H153 0.929 . S
C160 C161 1.400 . S
C160 C162 1.364 . S
C161 C160 1.400 . S
C161 C165 1.377 . S
C162 C160 1.364 . S
C162 C163 1.374 . S
C163 H154 0.930 . S
C163 C162 1.374 . S
C163 C164 1.383 . S
C164 O158 1.412 . S
C164 C163 1.383 . S
C164 C165 1.394 . S
C165 H155 0.929 . S
C165 C161 1.377 . S
C165 C164 1.394 . S
H166 C173 0.929 . S
H167 C176 0.930 . S
H168 C178 0.929 . S
H169 C170 0.969 . S
C170 H169 0.969 . S
C170 O171 1.550 . S
C170 H172 0.973 . S
O171 C170 1.550 . S
O171 C177 1.412 . S
H172 C170 0.973 . S
C173 H166 0.929 . S
C173 C174 1.400 . S
C173 C175 1.364 . S
C174 C173 1.400 . S
C174 C178 1.377 . S
C175 C173 1.364 . S
C175 C176 1.374 . S
C176 H167 0.930 . S
C176 C175 1.374 . S
C176 C177 1.383 . S
C177 O171 1.412 . S
C177 C176 1.383 . S
C177 C178 1.394 . S
C178 H168 0.929 . S
C178 C174 1.377 . S
C178 C177 1.394 . S
H179 C186 0.929 . S
H180 C189 0.930 . S
H181 C191 0.929 . S
H182 C183 0.969 . S
C183 H182 0.969 . S
C183 O184 1.550 . S
C183 H185 0.973 . S
O184 C183 1.550 . S
O184 C190 1.412 . S
H185 C183 0.973 . S
C186 H179 0.929 . S
C186 C187 1.400 . S
C186 C188 1.364 . S
C187 C186 1.400 . S
C187 C191 1.377 . S
C188 C186 1.364 . S
C188 C189 1.374 . S
C189 H180 0.930 . S
C189 C188 1.374 . S
C189 C190 1.383 . S
C190 O184 1.412 . S
C190 C189 1.383 . S
C190 C191 1.394 . S
C191 H181 0.929 . S
C191 C187 1.377 . S
C191 C190 1.394 . S
C192 C193 1.391 . S
C192 C194 1.394 . S
C192 H208 0.931 . S
C193 C192 1.391 . S
C193 C197 1.376 . S
C194 C192 1.394 . S
C194 C195 1.369 . S
C194 C198 1.531 . S
C195 C194 1.369 . S
C195 C196 1.410 . S
C195 C203 1.503 . S
C196 C195 1.410 . S
C196 C197 1.392 . S
C196 C199 1.511 . S
C197 C193 1.376 . S
C197 C196 1.392 . S
C197 H209 0.929 . S
C198 C194 1.531 . S
C198 H210 0.960 . S
C198 H211 0.962 . S
C198 H212 0.960 . S
C199 C196 1.511 . S
C199 H213 0.961 . S
C199 H214 0.961 . S
C199 H215 0.961 1_565 S
C200 C201 1.358 1_565 S
C200 C202 1.370 . S
C200 H216 0.936 . S
C201 C200 1.358 1_545 S
C201 C205 1.408 . S
C202 C200 1.370 . S
C202 C203 1.370 . S
C202 C206 1.524 . S
C203 C195 1.503 . S
C203 C202 1.370 . S
C203 C204 1.403 1_565 S
C204 C203 1.403 1_545 S
C204 C205 1.404 . S
C204 C207 1.539 . S
C205 C201 1.408 . S
C205 C204 1.404 . S
C205 H217 0.930 . S
C206 C202 1.524 . S
C206 H218 0.956 . S
C206 H219 0.961 . S
C206 H220 0.961 . S
C207 C204 1.539 . S
C207 H221 0.958 . S
C207 H222 0.961 . S
C207 H223 0.960 . S
H208 C192 0.931 . S
H209 C197 0.929 . S
H210 C198 0.960 . S
H211 C198 0.962 . S
H212 C198 0.960 . S
H213 C199 0.961 . S
H214 C199 0.961 . S
H215 C199 0.961 1_545 S
H216 C200 0.936 . S
H217 C205 0.930 . S
H218 C206 0.956 . S
H219 C206 0.961 . S
H220 C206 0.961 . S
H221 C207 0.958 . S
H222 C207 0.961 . S
H223 C207 0.960 . S
C224 C225 1.391 . S
C224 C226 1.394 . S
C224 H240 0.931 . S
C225 C224 1.391 . S
C225 C229 1.376 . S
C226 C224 1.394 . S
C226 C227 1.369 . S
C226 C230 1.531 . S
C227 C226 1.369 . S
C227 C228 1.410 . S
C227 C235 1.503 . S
C228 C227 1.410 . S
C228 C229 1.392 . S
C228 C231 1.511 . S
C229 C225 1.376 . S
C229 C228 1.392 . S
C229 H241 0.929 . S
C230 C226 1.531 . S
C230 H242 0.960 . S
C230 H243 0.962 . S
C230 H244 0.960 . S
C231 C228 1.511 . S
C231 H245 0.961 . S
C231 H246 0.961 . S
C231 H247 0.961 . S
C232 C233 1.370 . S
C232 C234 1.363 . S
C232 H248 0.931 . S
C233 C232 1.370 . S
C233 C237 1.408 . S
C234 C232 1.363 . S
C234 C235 1.370 . S
C234 C238 1.524 . S
C235 C227 1.503 . S
C235 C234 1.370 . S
C235 C236 1.403 . S
C236 C235 1.403 . S
C236 C237 1.404 . S
C236 C239 1.539 . S
C237 C233 1.408 . S
C237 C236 1.404 . S
C237 H249 0.930 . S
C238 C234 1.524 . S
C238 H250 0.956 . S
C238 H251 0.961 . S
C238 H252 0.961 . S
C239 C236 1.539 . S
C239 H253 0.958 . S
C239 H254 0.961 . S
C239 H255 0.960 . S
H240 C224 0.931 . S
H241 C229 0.929 . S
H242 C230 0.960 . S
H243 C230 0.962 . S
H244 C230 0.960 . S
H245 C231 0.961 . S
H246 C231 0.961 . S
H247 C231 0.961 . S
H248 C232 0.931 . S
H249 C237 0.930 . S
H250 C238 0.956 . S
H251 C238 0.961 . S
H252 C238 0.961 . S
H253 C239 0.958 . S
H254 C239 0.961 . S
H255 C239 0.960 . S
C256 C257 1.391 . S
C256 C258 1.394 1_545 S
C256 H272 0.931 . S
C257 C256 1.391 . S
C257 C261 1.376 . S
C258 C256 1.394 1_565 S
C258 C259 1.369 . S
C258 C262 1.531 . S
C259 C258 1.369 . S
C259 C260 1.410 . S
C259 C267 1.503 . S
C260 C259 1.410 . S
C260 C261 1.392 1_565 S
C260 C263 1.511 . S
C261 C257 1.376 . S
C261 C260 1.392 1_545 S
C261 H273 0.929 . S
C262 C258 1.531 . S
C262 H274 0.960 . S
C262 H275 0.962 . S
C262 H276 0.960 . S
C263 C260 1.511 . S
C263 H277 0.961 . S
C263 H278 0.961 . S
C263 H279 0.961 . S
C264 C265 1.370 . S
C264 C266 1.363 . S
C264 H280 0.931 . S
C265 C264 1.370 . S
C265 C269 1.408 . S
C266 C264 1.363 . S
C266 C267 1.370 . S
C266 C270 1.524 . S
C267 C259 1.503 . S
C267 C266 1.370 . S
C267 C268 1.403 . S
C268 C267 1.403 . S
C268 C269 1.404 . S
C268 C271 1.539 . S
C269 C265 1.408 . S
C269 C268 1.404 . S
C269 H281 0.930 . S
C270 C266 1.524 . S
C270 H282 0.956 . S
C270 H283 0.961 . S
C270 H284 0.961 . S
C271 C268 1.539 . S
C271 H285 0.958 . S
C271 H286 0.961 . S
C271 H287 0.960 . S
H272 C256 0.931 . S
H273 C261 0.929 . S
H274 C262 0.960 . S
H275 C262 0.962 . S
H276 C262 0.960 . S
H277 C263 0.961 . S
H278 C263 0.961 . S
H279 C263 0.961 . S
H280 C264 0.931 . S
H281 C269 0.930 . S
H282 C270 0.956 . S
H283 C270 0.961 . S
H284 C270 0.961 . S
H285 C271 0.958 . S
H286 C271 0.961 . S
H287 C271 0.960 . S
C288 C289 1.391 . S
C288 C290 1.394 . S
C288 H304 0.931 . S
C289 C288 1.391 . S
C289 C293 1.376 . S
C290 C288 1.394 . S
C290 C291 1.369 . S
C290 C294 1.531 . S
C291 C290 1.369 . S
C291 C292 1.410 . S
C291 C299 1.503 . S
C292 C291 1.410 . S
C292 C293 1.392 . S
C292 C295 1.511 . S
C293 C289 1.376 . S
C293 C292 1.392 . S
C293 H305 0.929 . S
C294 C290 1.531 . S
C294 H306 0.960 . S
C294 H307 0.962 . S
C294 H308 0.960 . S
C295 C292 1.511 . S
C295 H309 0.961 . S
C295 H310 0.961 . S
C295 H311 0.961 . S
C296 C297 1.370 . S
C296 C298 1.363 . S
C296 H312 0.931 . S
C297 C296 1.370 . S
C297 C301 1.408 . S
C298 C296 1.363 . S
C298 C299 1.370 . S
C298 C302 1.524 . S
C299 C291 1.503 . S
C299 C298 1.370 . S
C299 C300 1.403 . S
C300 C299 1.403 . S
C300 C301 1.404 . S
C300 C303 1.539 . S
C301 C297 1.408 . S
C301 C300 1.404 . S
C301 H313 0.930 . S
C302 C298 1.524 . S
C302 H314 0.956 . S
C302 H315 0.961 . S
C302 H316 0.961 . S
C303 C300 1.539 . S
C303 H317 0.958 . S
C303 H318 0.961 . S
C303 H319 0.960 . S
H304 C288 0.931 . S
H305 C293 0.929 . S
H306 C294 0.960 . S
H307 C294 0.962 . S
H308 C294 0.960 . S
H309 C295 0.961 . S
H310 C295 0.961 . S
H311 C295 0.961 . S
H312 C296 0.931 . S
H313 C301 0.930 . S
H314 C302 0.956 . S
H315 C302 0.961 . S
H316 C302 0.961 . S
H317 C303 0.958 . S
H318 C303 0.961 . S
H319 C303 0.960 . S
C320 C321 1.391 . S
C320 C322 1.394 . S
C320 H336 0.931 . S
C321 C320 1.391 . S
C321 C325 1.376 . S
C322 C320 1.394 . S
C322 C323 1.369 . S
C322 C326 1.531 . S
C323 C322 1.369 . S
C323 C324 1.410 . S
C323 C331 1.503 . S
C324 C323 1.410 . S
C324 C325 1.392 . S
C324 C327 1.511 . S
C325 C321 1.376 . S
C325 C324 1.392 . S
C325 H337 0.929 . S
C326 C322 1.531 . S
C326 H338 0.960 . S
C326 H339 0.962 . S
C326 H340 0.960 . S
C327 C324 1.511 . S
C327 H341 0.961 . S
C327 H342 0.961 . S
C327 H343 0.961 . S
C328 C329 1.370 . S
C328 C330 1.363 . S
C328 H344 0.931 . S
C329 C328 1.370 . S
C329 C333 1.408 . S
C330 C328 1.363 . S
C330 C331 1.370 . S
C330 C334 1.524 . S
C331 C323 1.503 . S
C331 C330 1.370 . S
C331 C332 1.403 . S
C332 C331 1.403 . S
C332 C333 1.404 . S
C332 C335 1.539 . S
C333 C329 1.408 . S
C333 C332 1.404 . S
C333 H345 0.930 . S
C334 C330 1.524 . S
C334 H346 0.956 . S
C334 H347 0.961 . S
C334 H348 0.961 . S
C335 C332 1.539 . S
C335 H349 0.958 . S
C335 H350 0.961 . S
C335 H351 0.960 . S
H336 C320 0.931 . S
H337 C325 0.929 . S
H338 C326 0.960 . S
H339 C326 0.962 . S
H340 C326 0.960 . S
H341 C327 0.961 . S
H342 C327 0.961 . S
H343 C327 0.961 . S
H344 C328 0.931 . S
H345 C333 0.930 . S
H346 C334 0.956 . S
H347 C334 0.961 . S
H348 C334 0.961 . S
H349 C335 0.958 . S
H350 C335 0.961 . S
H351 C335 0.960 . S
C352 C353 1.395 . S
C352 C354 1.399 1_655 S
C352 H368 0.922 1_556 S
C353 C352 1.395 . S
C353 C357 1.376 . S
C354 C352 1.399 1_455 S
C354 C355 1.369 . S
C354 C358 1.531 1_556 S
C355 C354 1.369 . S
C355 C356 1.410 1_455 S
C355 C363 1.503 . S
C356 C355 1.410 1_655 S
C356 C357 1.392 . S
C356 C359 1.511 . S
C357 C353 1.376 . S
C357 C356 1.392 . S
C357 H369 0.929 . S
C358 C354 1.531 1_554 S
C358 H370 0.960 1_554 S
C358 H371 0.962 . S
C358 H372 0.960 . S
C359 C356 1.511 . S
C359 H373 0.961 . S
C359 H374 0.961 1_655 S
C359 H375 0.961 . S
C360 C361 1.370 . S
C360 C362 1.363 . S
C360 H376 0.931 . S
C361 C360 1.370 . S
C361 C365 1.408 . S
C362 C360 1.363 . S
C362 C363 1.370 . S
C362 C366 1.524 . S
C363 C355 1.503 . S
C363 C362 1.370 . S
C363 C364 1.403 . S
C364 C363 1.403 . S
C364 C365 1.404 . S
C364 C367 1.539 . S
C365 C361 1.408 . S
C365 C364 1.404 . S
C365 H377 0.930 . S
C366 C362 1.524 . S
C366 H378 0.956 . S
C366 H379 0.961 . S
C366 H380 0.961 . S
C367 C364 1.539 . S
C367 H381 0.958 . S
C367 H382 0.961 . S
C367 H383 0.960 . S
H368 C352 0.922 1_554 S
H369 C357 0.929 . S
H370 C358 0.960 1_556 S
H371 C358 0.962 . S
H372 C358 0.960 . S
H373 C359 0.961 . S
H374 C359 0.961 1_455 S
H375 C359 0.961 . S
H376 C360 0.931 . S
H377 C365 0.930 . S
H378 C366 0.956 . S
H379 C366 0.961 . S
H380 C366 0.961 . S
H381 C367 0.958 . S
H382 C367 0.961 . S
H383 C367 0.960 . S
C384 C385 1.391 . S
C384 C386 1.394 . S
C384 H400 0.931 . S
C385 C384 1.391 . S
C385 C389 1.376 . S
C386 C384 1.394 . S
C386 C387 1.369 . S
C386 C390 1.531 . S
C387 C386 1.369 . S
C387 C388 1.410 . S
C387 C395 1.503 . S
C388 C387 1.410 . S
C388 C389 1.392 . S
C388 C391 1.511 . S
C389 C385 1.376 . S
C389 C388 1.392 . S
C389 H401 0.929 . S
C390 C386 1.531 . S
C390 H402 0.960 . S
C390 H403 0.962 . S
C390 H404 0.960 . S
C391 C388 1.511 . S
C391 H405 0.961 . S
C391 H406 0.961 . S
C391 H407 0.961 . S
C392 C393 1.370 . S
C392 C394 1.363 . S
C392 H408 0.931 . S
C393 C392 1.370 . S
C393 C397 1.408 . S
C394 C392 1.363 . S
C394 C395 1.370 . S
C394 C398 1.524 . S
C395 C387 1.503 . S
C395 C394 1.370 . S
C395 C396 1.403 . S
C396 C395 1.403 . S
C396 C397 1.404 . S
C396 C399 1.539 . S
C397 C393 1.408 . S
C397 C396 1.404 . S
C397 H409 0.930 . S
C398 C394 1.524 . S
C398 H410 0.956 . S
C398 H411 0.961 . S
C398 H412 0.961 . S
C399 C396 1.539 . S
C399 H413 0.958 . S
C399 H414 0.961 . S
C399 H415 0.960 . S
H400 C384 0.931 . S
H401 C389 0.929 . S
H402 C390 0.960 . S
H403 C390 0.962 . S
H404 C390 0.960 . S
H405 C391 0.961 . S
H406 C391 0.961 . S
H407 C391 0.961 . S
H408 C392 0.931 . S
H409 C397 0.930 . S
H410 C398 0.956 . S
H411 C398 0.961 . S
H412 C398 0.961 . S
H413 C399 0.958 . S
H414 C399 0.961 . S
H415 C399 0.960 . S
C416 C417 1.391 . S
C416 C418 1.394 1_455 S
C416 H432 0.931 . S
C417 C416 1.391 . S
C417 C421 1.376 . S
C418 C416 1.394 1_655 S
C418 C419 1.369 . S
C418 C422 1.531 . S
C419 C418 1.369 . S
C419 C420 1.410 1_655 S
C419 C427 1.503 . S
C420 C419 1.410 1_455 S
C420 C421 1.392 . S
C420 C423 1.511 . S
C421 C417 1.376 . S
C421 C420 1.392 . S
C421 H433 0.929 . S
C422 C418 1.531 . S
C422 H434 0.960 . S
C422 H435 0.962 . S
C422 H436 0.960 . S
C423 C420 1.511 . S
C423 H437 0.961 . S
C423 H438 0.974 . S
C423 H439 0.961 . S
C424 C425 1.370 . S
C424 C426 1.363 . S
C424 H440 0.931 . S
C425 C424 1.370 . S
C425 C429 1.408 . S
C426 C424 1.363 . S
C426 C427 1.370 . S
C426 C430 1.524 . S
C427 C419 1.503 . S
C427 C426 1.370 . S
C427 C428 1.403 . S
C428 C427 1.403 . S
C428 C429 1.404 . S
C428 C431 1.539 . S
C429 C425 1.408 . S
C429 C428 1.404 . S
C429 H441 0.930 . S
C430 C426 1.524 . S
C430 H442 0.956 . S
C430 H443 0.961 . S
C430 H444 0.961 . S
C431 C428 1.539 . S
C431 H445 0.958 . S
C431 H446 0.961 . S
C431 H447 0.960 . S
H432 C416 0.931 . S
H433 C421 0.929 . S
H434 C422 0.960 . S
H435 C422 0.962 . S
H436 C422 0.960 . S
H437 C423 0.961 . S
H438 C423 0.974 . S
H439 C423 0.961 . S
H440 C424 0.931 . S
H441 C429 0.930 . S
H442 C430 0.956 . S
H443 C430 0.961 . S
H444 C430 0.961 . S
H445 C431 0.958 . S
H446 C431 0.961 . S
H447 C431 0.960 . S
C448 C449 1.391 . S
C448 C450 1.394 . S
C448 H464 0.931 . S
C449 C448 1.391 . S
C449 C453 1.376 . S
C450 C448 1.394 . S
C450 C451 1.369 . S
C450 C454 1.531 1_545 S
C451 C450 1.369 . S
C451 C452 1.410 . S
C451 C459 1.503 . S
C452 C451 1.410 . S
C452 C453 1.392 . S
C452 C455 1.511 . S
C453 C449 1.376 . S
C453 C452 1.392 . S
C453 H465 0.929 . S
C454 C450 1.531 1_565 S
C454 H466 0.960 . S
C454 H467 0.962 . S
C454 H468 0.960 . S
C455 C452 1.511 . S
C455 H469 0.961 . S
C455 H470 0.961 . S
C455 H471 0.961 . S
C456 C457 1.370 . S
C456 C458 1.363 1_565 S
C456 H472 0.931 . S
C457 C456 1.370 . S
C457 C461 1.408 . S
C458 C456 1.363 1_545 S
C458 C459 1.370 . S
C458 C462 1.524 . S
C459 C451 1.503 . S
C459 C458 1.370 . S
C459 C460 1.403 1_545 S
C460 C459 1.403 1_565 S
C460 C461 1.404 . S
C460 C463 1.539 . S
C461 C457 1.408 . S
C461 C460 1.404 . S
C461 H473 0.930 . S
C462 C458 1.524 . S
C462 H474 0.956 . S
C462 H475 0.961 . S
C462 H476 0.961 . S
C463 C460 1.539 . S
C463 H477 0.958 . S
C463 H478 0.961 . S
C463 H479 0.960 1_565 S
H464 C448 0.931 . S
H465 C453 0.929 . S
H466 C454 0.960 . S
H467 C454 0.962 . S
H468 C454 0.960 . S
H469 C455 0.961 . S
H470 C455 0.961 . S
H471 C455 0.961 . S
H472 C456 0.931 . S
H473 C461 0.930 . S
H474 C462 0.956 . S
H475 C462 0.961 . S
H476 C462 0.961 . S
H477 C463 0.958 . S
H478 C463 0.961 . S
H479 C463 0.960 1_545 S
C480 C481 1.391 . S
C480 C482 1.394 . S
C480 H496 0.931 . S
C481 C480 1.391 . S
C481 C485 1.376 . S
C482 C480 1.394 . S
C482 C483 1.369 . S
C482 C486 1.531 . S
C483 C482 1.369 . S
C483 C484 1.410 . S
C483 C491 1.503 . S
C484 C483 1.410 . S
C484 C485 1.392 . S
C484 C487 1.511 . S
C485 C481 1.376 . S
C485 C484 1.392 . S
C485 H497 0.929 . S
C486 C482 1.531 . S
C486 H498 0.960 . S
C486 H499 0.962 . S
C486 H500 0.960 . S
C487 C484 1.511 . S
C487 H501 0.961 . S
C487 H502 0.961 . S
C487 H503 0.961 . S
C488 C489 1.370 . S
C488 C490 1.363 . S
C488 H504 0.931 . S
C489 C488 1.370 . S
C489 C493 1.408 . S
C490 C488 1.363 . S
C490 C491 1.370 . S
C490 C494 1.524 . S
C491 C483 1.503 . S
C491 C490 1.370 . S
C491 C492 1.403 . S
C492 C491 1.403 . S
C492 C493 1.404 . S
C492 C495 1.539 . S
C493 C489 1.408 . S
C493 C492 1.404 . S
C493 H505 0.930 . S
C494 C490 1.524 . S
C494 H506 0.956 . S
C494 H507 0.961 . S
C494 H508 0.961 . S
C495 C492 1.539 . S
C495 H509 0.958 . S
C495 H510 0.961 . S
C495 H511 0.960 . S
H496 C480 0.931 . S
H497 C485 0.929 . S
H498 C486 0.960 . S
H499 C486 0.962 . S
H500 C486 0.960 . S
H501 C487 0.961 . S
H502 C487 0.961 . S
H503 C487 0.961 . S
H504 C488 0.931 . S
H505 C493 0.930 . S
H506 C494 0.956 . S
H507 C494 0.961 . S
H508 C494 0.961 . S
H509 C495 0.958 . S
H510 C495 0.961 . S
H511 C495 0.960 . S
C512 C513 1.391 . S
C512 C514 1.394 . S
C512 H528 0.931 . S
C513 C512 1.391 . S
C513 C517 1.376 . S
C514 C512 1.394 . S
C514 C515 1.369 1_565 S
C514 C518 1.531 1_565 S
C515 C514 1.369 1_545 S
C515 C516 1.410 . S
C515 C523 1.503 . S
C516 C515 1.410 . S
C516 C517 1.392 1_545 S
C516 C519 1.511 . S
C517 C513 1.376 . S
C517 C516 1.392 1_565 S
C517 H529 0.929 . S
C518 C514 1.531 1_545 S
C518 H530 0.960 . S
C518 H531 0.962 . S
C518 H532 0.960 1_545 S
C519 C516 1.511 . S
C519 H533 0.961 . S
C519 H534 0.961 . S
C519 H535 0.961 . S
C520 C521 1.370 . S
C520 C522 1.363 . S
C520 H536 0.931 . S
C521 C520 1.370 . S
C521 C525 1.408 . S
C522 C520 1.363 . S
C522 C523 1.370 . S
C522 C526 1.524 . S
C523 C515 1.503 . S
C523 C522 1.370 . S
C523 C524 1.403 . S
C524 C523 1.403 . S
C524 C525 1.404 . S
C524 C527 1.539 . S
C525 C521 1.408 . S
C525 C524 1.404 . S
C525 H537 0.930 . S
C526 C522 1.524 . S
C526 H538 0.956 . S
C526 H539 0.961 . S
C526 H540 0.961 . S
C527 C524 1.539 . S
C527 H541 0.958 . S
C527 H542 0.961 . S
C527 H543 0.960 . S
H528 C512 0.931 . S
H529 C517 0.929 . S
H530 C518 0.960 . S
H531 C518 0.962 . S
H532 C518 0.960 1_565 S
H533 C519 0.961 . S
H534 C519 0.961 . S
H535 C519 0.961 . S
H536 C520 0.931 . S
H537 C525 0.930 . S
H538 C526 0.956 . S
H539 C526 0.961 . S
H540 C526 0.961 . S
H541 C527 0.958 . S
H542 C527 0.961 . S
H543 C527 0.960 . S
C544 C545 1.391 . S
C544 C546 1.394 . S
C544 H560 0.931 . S
C545 C544 1.391 . S
C545 C549 1.376 . S
C546 C544 1.394 . S
C546 C547 1.369 . S
C546 C550 1.531 . S
C547 C546 1.369 . S
C547 C548 1.410 . S
C547 C555 1.503 . S
C548 C547 1.410 . S
C548 C549 1.392 . S
C548 C551 1.511 . S
C549 C545 1.376 . S
C549 C548 1.392 . S
C549 H561 0.929 . S
C550 C546 1.531 . S
C550 H562 0.960 . S
C550 H563 0.962 . S
C550 H564 0.960 . S
C551 C548 1.511 . S
C551 H565 0.961 . S
C551 H566 0.961 . S
C551 H567 0.961 . S
C552 C553 1.370 . S
C552 C554 1.363 . S
C552 H568 0.931 . S
C553 C552 1.370 . S
C553 C557 1.408 . S
C554 C552 1.363 . S
C554 C555 1.370 . S
C554 C558 1.524 . S
C555 C547 1.503 . S
C555 C554 1.370 . S
C555 C556 1.403 . S
C556 C555 1.403 . S
C556 C557 1.404 . S
C556 C559 1.539 . S
C557 C553 1.408 . S
C557 C556 1.404 . S
C557 H569 0.930 . S
C558 C554 1.524 . S
C558 H570 0.956 . S
C558 H571 0.961 . S
C558 H572 0.961 . S
C559 C556 1.539 . S
C559 H573 0.958 . S
C559 H574 0.961 . S
C559 H575 0.960 . S
H560 C544 0.931 . S
H561 C549 0.929 . S
H562 C550 0.960 . S
H563 C550 0.962 . S
H564 C550 0.960 . S
H565 C551 0.961 . S
H566 C551 0.961 . S
H567 C551 0.961 . S
H568 C552 0.931 . S
H569 C557 0.930 . S
H570 C558 0.956 . S
H571 C558 0.961 . S
H572 C558 0.961 . S
H573 C559 0.958 . S
H574 C559 0.961 . S
H575 C559 0.960 . S
C576 C577 1.391 . S
C576 C578 1.394 . S
C576 H592 0.931 . S
C577 C576 1.391 . S
C577 C581 1.376 . S
C578 C576 1.394 . S
C578 C579 1.369 . S
C578 C582 1.531 . S
C579 C578 1.369 . S
C579 C580 1.410 . S
C579 C587 1.503 . S
C580 C579 1.410 . S
C580 C581 1.392 . S
C580 C583 1.511 . S
C581 C577 1.376 . S
C581 C580 1.392 . S
C581 H593 0.929 . S
C582 C578 1.531 . S
C582 H594 0.960 . S
C582 H595 0.962 . S
C582 H596 0.960 . S
C583 C580 1.511 . S
C583 H597 0.961 . S
C583 H598 0.961 . S
C583 H599 0.961 . S
C584 C585 1.370 . S
C584 C586 1.363 . S
C584 H600 0.931 . S
C585 C584 1.370 . S
C585 C589 1.408 . S
C586 C584 1.363 . S
C586 C587 1.370 . S
C586 C590 1.524 . S
C587 C579 1.503 . S
C587 C586 1.370 . S
C587 C588 1.403 . S
C588 C587 1.403 . S
C588 C589 1.404 . S
C588 C591 1.539 . S
C589 C585 1.408 . S
C589 C588 1.404 . S
C589 H601 0.930 . S
C590 C586 1.524 . S
C590 H602 0.956 . S
C590 H603 0.961 . S
C590 H604 0.961 . S
C591 C588 1.539 . S
C591 H605 0.958 . S
C591 H606 0.961 . S
C591 H607 0.960 . S
H592 C576 0.931 . S
H593 C581 0.929 . S
H594 C582 0.960 . S
H595 C582 0.962 . S
H596 C582 0.960 . S
H597 C583 0.961 . S
H598 C583 0.961 . S
H599 C583 0.961 . S
H600 C584 0.931 . S
H601 C589 0.930 . S
H602 C590 0.956 . S
H603 C590 0.961 . S
H604 C590 0.961 . S
H605 C591 0.958 . S
H606 C591 0.961 . S
H607 C591 0.960 . S
C608 C609 1.391 . S
C608 C610 1.394 1_455 S
C608 H624 0.931 . S
C609 C608 1.391 . S
C609 C613 1.376 . S
C610 C608 1.394 1_655 S
C610 C611 1.369 . S
C610 C614 1.531 . S
C611 C610 1.369 . S
C611 C612 1.410 1_655 S
C611 C619 1.503 . S
C612 C611 1.410 1_455 S
C612 C613 1.392 . S
C612 C615 1.511 . S
C613 C609 1.376 . S
C613 C612 1.392 . S
C613 H625 0.929 . S
C614 C610 1.531 . S
C614 H626 0.960 . S
C614 H627 0.962 . S
C614 H628 0.960 . S
C615 C612 1.511 . S
C615 H629 0.961 . S
C615 H630 0.961 1_455 S
C615 H631 0.961 . S
C616 C617 1.370 . S
C616 C618 1.363 . S
C616 H632 0.931 . S
C617 C616 1.370 . S
C617 C621 1.408 . S
C618 C616 1.363 . S
C618 C619 1.370 . S
C618 C622 1.524 . S
C619 C611 1.503 . S
C619 C618 1.370 . S
C619 C620 1.403 . S
C620 C619 1.403 . S
C620 C621 1.404 . S
C620 C623 1.539 . S
C621 C617 1.408 . S
C621 C620 1.404 . S
C621 H633 0.930 . S
C622 C618 1.524 . S
C622 H634 0.956 . S
C622 H635 0.961 . S
C622 H636 0.961 . S
C623 C620 1.539 . S
C623 H637 0.958 . S
C623 H638 0.961 . S
C623 H639 0.960 . S
H624 C608 0.931 . S
H625 C613 0.929 . S
H626 C614 0.960 . S
H627 C614 0.962 . S
H628 C614 0.960 . S
H629 C615 0.961 . S
H630 C615 0.961 1_655 S
H631 C615 0.961 . S
H632 C616 0.931 . S
H633 C621 0.930 . S
H634 C622 0.956 . S
H635 C622 0.961 . S
H636 C622 0.961 . S
H637 C623 0.958 . S
H638 C623 0.961 . S
H639 C623 0.960 . S
C640 C641 1.391 . S
C640 C642 1.394 . S
C640 H656 0.931 . S
C641 C640 1.391 . S
C641 C645 1.376 . S
C642 C640 1.394 . S
C642 C643 1.369 . S
C642 C646 1.531 . S
C643 C642 1.369 . S
C643 C644 1.410 . S
C643 C651 1.503 . S
C644 C643 1.410 . S
C644 C645 1.392 . S
C644 C647 1.511 . S
C645 C641 1.376 . S
C645 C644 1.392 . S
C645 H657 0.929 . S
C646 C642 1.531 . S
C646 H658 0.960 . S
C646 H659 0.962 . S
C646 H660 0.960 . S
C647 C644 1.511 . S
C647 H661 0.961 . S
C647 H662 0.961 . S
C647 H663 0.961 . S
C648 C649 1.370 . S
C648 C650 1.363 . S
C648 H664 0.931 . S
C649 C648 1.370 . S
C649 C653 1.408 . S
C650 C648 1.363 . S
C650 C651 1.370 . S
C650 C654 1.524 . S
C651 C643 1.503 . S
C651 C650 1.370 . S
C651 C652 1.403 . S
C652 C651 1.403 . S
C652 C653 1.404 . S
C652 C655 1.539 . S
C653 C649 1.408 . S
C653 C652 1.404 . S
C653 H665 0.930 . S
C654 C650 1.524 . S
C654 H666 0.956 . S
C654 H667 0.961 . S
C654 H668 0.961 . S
C655 C652 1.539 . S
C655 H669 0.958 . S
C655 H670 0.961 . S
C655 H671 0.960 . S
H656 C640 0.931 . S
H657 C645 0.929 . S
H658 C646 0.960 . S
H659 C646 0.962 . S
H660 C646 0.960 . S
H661 C647 0.961 . S
H662 C647 0.961 . S
H663 C647 0.961 . S
H664 C648 0.931 . S
H665 C653 0.930 . S
H666 C654 0.956 . S
H667 C654 0.961 . S
H668 C654 0.961 . S
H669 C655 0.958 . S
H670 C655 0.961 . S
H671 C655 0.960 . S
C672 C673 1.391 . S
C672 C674 1.394 . S
C672 H688 0.931 . S
C673 C672 1.391 . S
C673 C677 1.376 . S
C674 C672 1.394 . S
C674 C675 1.369 1_655 S
C674 C678 1.531 . S
C675 C674 1.369 1_455 S
C675 C676 1.410 . S
C675 C683 1.503 . S
C676 C675 1.410 . S
C676 C677 1.392 1_455 S
C676 C679 1.511 . S
C677 C673 1.376 . S
C677 C676 1.392 1_655 S
C677 H689 0.929 . S
C678 C674 1.531 . S
C678 H690 0.960 1_655 S
C678 H691 0.962 . S
C678 H692 0.960 . S
C679 C676 1.511 . S
C679 H693 0.961 . S
C679 H694 0.961 . S
C679 H695 0.961 . S
C680 C681 1.370 . S
C680 C682 1.363 . S
C680 H696 0.931 . S
C681 C680 1.370 . S
C681 C685 1.408 . S
C682 C680 1.363 . S
C682 C683 1.370 . S
C682 C686 1.524 . S
C683 C675 1.503 . S
C683 C682 1.370 . S
C683 C684 1.403 . S
C684 C683 1.403 . S
C684 C685 1.404 . S
C684 C687 1.539 . S
C685 C681 1.408 . S
C685 C684 1.404 . S
C685 H697 0.930 . S
C686 C682 1.524 . S
C686 H698 0.956 . S
C686 H699 0.961 . S
C686 H700 0.961 . S
C687 C684 1.539 . S
C687 H701 0.958 . S
C687 H702 0.961 . S
C687 H703 0.960 . S
H688 C672 0.931 . S
H689 C677 0.929 . S
H690 C678 0.960 1_455 S
H691 C678 0.962 . S
H692 C678 0.960 . S
H693 C679 0.961 . S
H694 C679 0.961 . S
H695 C679 0.961 . S
H696 C680 0.931 . S
H697 C685 0.930 . S
H698 C686 0.956 . S
H699 C686 0.961 . S
H700 C686 0.961 . S
H701 C687 0.958 . S
H702 C687 0.961 . S
H703 C687 0.960 . S
C704 C705 1.391 . S
C704 C706 1.394 . S
C704 H720 0.931 . S
C705 C704 1.391 . S
C705 C709 1.376 . S
C706 C704 1.394 . S
C706 C707 1.369 . S
C706 C710 1.531 . S
C707 C706 1.369 . S
C707 C708 1.410 . S
C707 C715 1.503 . S
C708 C707 1.410 . S
C708 C709 1.392 . S
C708 C711 1.511 . S
C709 C705 1.376 . S
C709 C708 1.392 . S
C709 H721 0.929 . S
C710 C706 1.531 . S
C710 H722 0.960 . S
C710 H723 0.962 . S
C710 H724 0.960 . S
C711 C708 1.511 . S
C711 H725 0.961 . S
C711 H726 0.961 . S
C711 H727 0.961 . S
C712 C713 1.370 . S
C712 C714 1.363 . S
C712 H728 0.931 . S
C713 C712 1.370 . S
C713 C717 1.408 . S
C714 C712 1.363 . S
C714 C715 1.370 . S
C714 C718 1.524 . S
C715 C707 1.503 . S
C715 C714 1.370 . S
C715 C716 1.403 . S
C716 C715 1.403 . S
C716 C717 1.404 . S
C716 C719 1.539 . S
C717 C713 1.408 . S
C717 C716 1.404 . S
C717 H729 0.930 . S
C718 C714 1.524 . S
C718 H730 0.956 . S
C718 H731 0.961 . S
C718 H732 0.961 . S
C719 C716 1.539 . S
C719 H733 0.958 . S
C719 H734 0.961 . S
C719 H735 0.960 . S
H720 C704 0.931 . S
H721 C709 0.929 . S
H722 C710 0.960 . S
H723 C710 0.962 . S
H724 C710 0.960 . S
H725 C711 0.961 . S
H726 C711 0.961 . S
H727 C711 0.961 . S
H728 C712 0.931 . S
H729 C717 0.930 . S
H730 C718 0.956 . S
H731 C718 0.961 . S
H732 C718 0.961 . S
H733 C719 0.958 . S
H734 C719 0.961 . S
H735 C719 0.960 . S
C736 C737 1.391 . S
C736 C738 1.394 . S
C736 H752 0.931 . S
C737 C736 1.391 . S
C737 C741 1.376 . S
C738 C736 1.394 . S
C738 C739 1.369 . S
C738 C742 1.531 . S
C739 C738 1.369 . S
C739 C740 1.410 . S
C739 C747 1.503 . S
C740 C739 1.410 . S
C740 C741 1.392 . S
C740 C743 1.511 . S
C741 C737 1.376 . S
C741 C740 1.392 . S
C741 H753 0.929 . S
C742 C738 1.531 . S
C742 H754 0.960 . S
C742 H755 0.962 . S
C742 H756 0.960 . S
C743 C740 1.511 . S
C743 H757 0.961 . S
C743 H758 0.961 . S
C743 H759 0.961 . S
C744 C745 1.370 . S
C744 C746 1.363 . S
C744 H760 0.931 . S
C745 C744 1.370 . S
C745 C749 1.408 . S
C746 C744 1.363 . S
C746 C747 1.370 . S
C746 C750 1.524 . S
C747 C739 1.503 . S
C747 C746 1.370 . S
C747 C748 1.403 . S
C748 C747 1.403 . S
C748 C749 1.404 . S
C748 C751 1.539 . S
C749 C745 1.408 . S
C749 C748 1.404 . S
C749 H761 0.930 . S
C750 C746 1.524 . S
C750 H762 0.956 . S
C750 H763 0.961 . S
C750 H764 0.961 . S
C751 C748 1.539 . S
C751 H765 0.958 . S
C751 H766 0.961 . S
C751 H767 0.960 . S
H752 C736 0.931 . S
H753 C741 0.929 . S
H754 C742 0.960 . S
H755 C742 0.962 . S
H756 C742 0.960 . S
H757 C743 0.961 . S
H758 C743 0.961 . S
H759 C743 0.961 . S
H760 C744 0.931 . S
H761 C749 0.930 . S
H762 C750 0.956 . S
H763 C750 0.961 . S
H764 C750 0.961 . S
H765 C751 0.958 . S
H766 C751 0.961 . S
H767 C751 0.960 . S
C768 C769 1.391 . S
C768 C770 1.394 . S
C768 H784 0.931 . S
C769 C768 1.391 . S
C769 C773 1.376 . S
C770 C768 1.394 . S
C770 C771 1.369 . S
C770 C774 1.531 . S
C771 C770 1.369 . S
C771 C772 1.410 . S
C771 C779 1.503 . S
C772 C771 1.410 . S
C772 C773 1.392 . S
C772 C775 1.511 . S
C773 C769 1.376 . S
C773 C772 1.392 . S
C773 H785 0.929 . S
C774 C770 1.531 . S
C774 H786 0.960 . S
C774 H787 0.962 . S
C774 H788 0.960 . S
C775 C772 1.511 . S
C775 H789 0.961 . S
C775 H790 0.961 . S
C775 H791 0.961 . S
C776 C777 1.370 . S
C776 C778 1.363 . S
C776 H792 0.931 . S
C777 C776 1.370 . S
C777 C781 1.408 . S
C778 C776 1.363 . S
C778 C779 1.370 . S
C778 C782 1.524 . S
C779 C771 1.503 . S
C779 C778 1.370 . S
C779 C780 1.403 . S
C780 C779 1.403 . S
C780 C781 1.404 . S
C780 C783 1.539 . S
C781 C777 1.408 . S
C781 C780 1.404 . S
C781 H793 0.930 . S
C782 C778 1.524 . S
C782 H794 0.956 . S
C782 H795 0.961 . S
C782 H796 0.961 . S
C783 C780 1.539 . S
C783 H797 0.958 . S
C783 H798 0.961 . S
C783 H799 0.960 . S
H784 C768 0.931 . S
H785 C773 0.929 . S
H786 C774 0.960 . S
H787 C774 0.962 . S
H788 C774 0.960 . S
H789 C775 0.961 . S
H790 C775 0.961 . S
H791 C775 0.961 . S
H792 C776 0.931 . S
H793 C781 0.930 . S
H794 C782 0.956 . S
H795 C782 0.961 . S
H796 C782 0.961 . S
H797 C783 0.958 . S
H798 C783 0.961 . S
H799 C783 0.960 . S
C800 C801 1.391 . S
C800 C802 1.394 . S
C800 H816 0.931 . S
C801 C800 1.391 . S
C801 C805 1.376 . S
C802 C800 1.394 . S
C802 C803 1.369 . S
C802 C806 1.531 . S
C803 C802 1.369 . S
C803 C804 1.410 . S
C803 C811 1.503 . S
C804 C803 1.410 . S
C804 C805 1.392 . S
C804 C807 1.511 . S
C805 C801 1.376 . S
C805 C804 1.392 . S
C805 H817 0.929 . S
C806 C802 1.531 . S
C806 H818 0.960 . S
C806 H819 0.962 . S
C806 H820 0.960 . S
C807 C804 1.511 . S
C807 H821 0.961 . S
C807 H822 0.961 . S
C807 H823 0.961 . S
C808 C809 1.370 . S
C808 C810 1.363 . S
C808 H824 0.931 . S
C809 C808 1.370 . S
C809 C813 1.408 . S
C810 C808 1.363 . S
C810 C811 1.370 . S
C810 C814 1.524 . S
C811 C803 1.503 . S
C811 C810 1.370 . S
C811 C812 1.403 . S
C812 C811 1.403 . S
C812 C813 1.404 . S
C812 C815 1.539 . S
C813 C809 1.408 . S
C813 C812 1.404 . S
C813 H825 0.930 . S
C814 C810 1.524 . S
C814 H826 0.956 . S
C814 H827 0.961 . S
C814 H828 0.961 . S
C815 C812 1.539 . S
C815 H829 0.958 . S
C815 H830 0.961 . S
C815 H831 0.960 . S
H816 C800 0.931 . S
H817 C805 0.929 . S
H818 C806 0.960 . S
H819 C806 0.962 . S
H820 C806 0.960 . S
H821 C807 0.961 . S
H822 C807 0.961 . S
H823 C807 0.961 . S
H824 C808 0.931 . S
H825 C813 0.930 . S
H826 C814 0.956 . S
H827 C814 0.961 . S
H828 C814 0.961 . S
H829 C815 0.958 . S
H830 C815 0.961 . S
H831 C815 0.960 . S
C832 C833 1.391 . S
C832 C834 1.394 . S
C832 H848 0.931 . S
C833 C832 1.391 . S
C833 C837 1.376 . S
C834 C832 1.394 . S
C834 C835 1.369 . S
C834 C838 1.531 . S
C835 C834 1.369 . S
C835 C836 1.410 . S
C835 C843 1.503 . S
C836 C835 1.410 . S
C836 C837 1.392 . S
C836 C839 1.511 . S
C837 C833 1.376 . S
C837 C836 1.392 . S
C837 H849 0.929 . S
C838 C834 1.531 . S
C838 H850 0.960 . S
C838 H851 0.962 . S
C838 H852 0.960 . S
C839 C836 1.511 . S
C839 H853 0.961 . S
C839 H854 0.961 . S
C839 H855 0.961 . S
C840 C841 1.370 . S
C840 C842 1.363 . S
C840 H856 0.931 . S
C841 C840 1.370 . S
C841 C845 1.408 . S
C842 C840 1.363 . S
C842 C843 1.370 . S
C842 C846 1.524 . S
C843 C835 1.503 . S
C843 C842 1.370 . S
C843 C844 1.403 . S
C844 C843 1.403 . S
C844 C845 1.404 . S
C844 C847 1.539 . S
C845 C841 1.408 . S
C845 C844 1.404 . S
C845 H857 0.930 . S
C846 C842 1.524 . S
C846 H858 0.956 . S
C846 H859 0.961 . S
C846 H860 0.961 . S
C847 C844 1.539 . S
C847 H861 0.958 . S
C847 H862 0.961 . S
C847 H863 0.960 . S
H848 C832 0.931 . S
H849 C837 0.929 . S
H850 C838 0.960 . S
H851 C838 0.962 . S
H852 C838 0.960 . S
H853 C839 0.961 . S
H854 C839 0.961 . S
H855 C839 0.961 . S
H856 C840 0.931 . S
H857 C845 0.930 . S
H858 C846 0.956 . S
H859 C846 0.961 . S
H860 C846 0.961 . S
H861 C847 0.958 . S
H862 C847 0.961 . S
H863 C847 0.960 . S
C864 C865 1.391 . S
C864 C866 1.394 . S
C864 H880 0.931 . S
C865 C864 1.391 . S
C865 C869 1.376 . S
C866 C864 1.394 . S
C866 C867 1.369 . S
C866 C870 1.531 . S
C867 C866 1.369 . S
C867 C868 1.410 . S
C867 C875 1.503 . S
C868 C867 1.410 . S
C868 C869 1.392 . S
C868 C871 1.511 . S
C869 C865 1.376 . S
C869 C868 1.392 . S
C869 H881 0.929 . S
C870 C866 1.531 . S
C870 H882 0.960 . S
C870 H883 0.962 . S
C870 H884 0.960 . S
C871 C868 1.511 . S
C871 H885 0.961 . S
C871 H886 0.961 . S
C871 H887 0.961 . S
C872 C873 1.370 . S
C872 C874 1.363 . S
C872 H888 0.931 . S
C873 C872 1.370 . S
C873 C877 1.408 . S
C874 C872 1.363 . S
C874 C875 1.370 . S
C874 C878 1.524 . S
C875 C867 1.503 . S
C875 C874 1.370 . S
C875 C876 1.403 . S
C876 C875 1.403 . S
C876 C877 1.404 . S
C876 C879 1.539 . S
C877 C873 1.408 . S
C877 C876 1.404 . S
C877 H889 0.930 . S
C878 C874 1.524 . S
C878 H890 0.956 . S
C878 H891 0.961 . S
C878 H892 0.961 . S
C879 C876 1.539 . S
C879 H893 0.958 . S
C879 H894 0.961 . S
C879 H895 0.960 . S
H880 C864 0.931 . S
H881 C869 0.929 . S
H882 C870 0.960 . S
H883 C870 0.962 . S
H884 C870 0.960 . S
H885 C871 0.961 . S
H886 C871 0.961 . S
H887 C871 0.961 . S
H888 C872 0.931 . S
H889 C877 0.930 . S
H890 C878 0.956 . S
H891 C878 0.961 . S
H892 C878 0.961 . S
H893 C879 0.958 . S
H894 C879 0.961 . S
H895 C879 0.960 . S
C896 C897 1.391 . S
C896 C898 1.394 . S
C896 H912 0.931 . S
C897 C896 1.391 . S
C897 C901 1.376 . S
C898 C896 1.394 . S
C898 C899 1.369 . S
C898 C902 1.531 . S
C899 C898 1.369 . S
C899 C900 1.410 . S
C899 C907 1.503 . S
C900 C899 1.410 . S
C900 C901 1.392 . S
C900 C903 1.511 . S
C901 C897 1.376 . S
C901 C900 1.392 . S
C901 H913 0.929 . S
C902 C898 1.531 . S
C902 H914 0.960 . S
C902 H915 0.962 . S
C902 H916 0.960 . S
C903 C900 1.511 . S
C903 H917 0.961 . S
C903 H918 0.961 . S
C903 H919 0.961 . S
C904 C905 1.370 . S
C904 C906 1.363 . S
C904 H920 0.931 . S
C905 C904 1.370 . S
C905 C909 1.408 . S
C906 C904 1.363 . S
C906 C907 1.370 . S
C906 C910 1.524 . S
C907 C899 1.503 . S
C907 C906 1.370 . S
C907 C908 1.403 . S
C908 C907 1.403 . S
C908 C909 1.404 . S
C908 C911 1.539 . S
C909 C905 1.408 . S
C909 C908 1.404 . S
C909 H921 0.930 . S
C910 C906 1.524 . S
C910 H922 0.956 . S
C910 H923 0.961 . S
C910 H924 0.961 . S
C911 C908 1.539 . S
C911 H925 0.958 . S
C911 H926 0.961 . S
C911 H927 0.960 . S
H912 C896 0.931 . S
H913 C901 0.929 . S
H914 C902 0.960 . S
H915 C902 0.962 . S
H916 C902 0.960 . S
H917 C903 0.961 . S
H918 C903 0.961 . S
H919 C903 0.961 . S
H920 C904 0.931 . S
H921 C909 0.930 . S
H922 C910 0.956 . S
H923 C910 0.961 . S
H924 C910 0.961 . S
H925 C911 0.958 . S
H926 C911 0.961 . S
H927 C911 0.960 . S
C928 C929 1.391 . S
C928 C930 1.394 . S
C928 H944 0.931 . S
C929 C928 1.391 . S
C929 C933 1.376 . S
C930 C928 1.394 . S
C930 C931 1.369 . S
C930 C934 1.531 . S
C931 C930 1.369 . S
C931 C932 1.410 . S
C931 C939 1.503 . S
C932 C931 1.410 . S
C932 C933 1.392 . S
C932 C935 1.511 . S
C933 C929 1.376 . S
C933 C932 1.392 . S
C933 H945 0.929 . S
C934 C930 1.531 . S
C934 H946 0.960 . S
C934 H947 0.962 . S
C934 H948 0.960 . S
C935 C932 1.511 . S
C935 H949 0.961 . S
C935 H950 0.961 . S
C935 H951 0.961 . S
C936 C937 1.370 . S
C936 C938 1.363 . S
C936 H952 0.931 . S
C937 C936 1.370 . S
C937 C941 1.408 . S
C938 C936 1.363 . S
C938 C939 1.370 . S
C938 C942 1.524 . S
C939 C931 1.503 . S
C939 C938 1.370 . S
C939 C940 1.403 . S
C940 C939 1.403 . S
C940 C941 1.404 . S
C940 C943 1.539 . S
C941 C937 1.408 . S
C941 C940 1.404 . S
C941 H953 0.930 . S
C942 C938 1.524 . S
C942 H954 0.956 . S
C942 H955 0.961 . S
C942 H956 0.961 . S
C943 C940 1.539 . S
C943 H957 0.958 . S
C943 H958 0.961 . S
C943 H959 0.960 . S
H944 C928 0.931 . S
H945 C933 0.929 . S
H946 C934 0.960 . S
H947 C934 0.962 . S
H948 C934 0.960 . S
H949 C935 0.961 . S
H950 C935 0.961 . S
H951 C935 0.961 . S
H952 C936 0.931 . S
H953 C941 0.930 . S
H954 C942 0.956 . S
H955 C942 0.961 . S
H956 C942 0.961 . S
H957 C943 0.958 . S
H958 C943 0.961 . S
H959 C943 0.960 . S
C193 C7 1.313 . S
C201 C96 1.281 . S
C225 C37 1.181 . S
C233 C109 1.182 . S
C257 C54 1.421 . S
C265 C123 1.378 . S
C297 C136 1.353 . S
C289 C87 1.377 . S
C329 C148 1.238 . S
C321 C30 1.265 . S
C353 C51 1.458 1_556 S
C361 C162 1.379 . S
C385 C84 1.263 . S
C393 C174 1.229 . S
C417 C10 1.353 . S
C425 C188 1.319 . S
C449 C59 1.300 . S
C457 C187 1.271 . S
C489 C149 1.357 . S
C481 C74 1.428 . S
C521 C161 1.273 . S
C513 C18 1.295 . S
C545 C32 1.363 . S
C553 C175 1.333 . S
C585 C110 1.400 . S
C577 C73 1.441 . S
C609 C15 1.251 . S
C617 C122 1.238 . S
C649 C135 1.292 . S
C641 C43 1.320 . S
C681 C97 1.315 . S
C673 C62 1.348 . S
C713 C170 1.306 . S
C705 C21 1.356 . S
C745 C183 1.265 . S
C737 C29 1.380 . S
C769 C52 1.416 . S
C777 C144 1.349 . S
C809 C157 1.437 . S
C801 C81 1.444 . S
C841 C118 1.319 . S
C833 C40 1.362 . S
C865 C65 1.405 1_556 S
C873 C131 1.343 . S
C905 C92 1.357 . S
C897 C76 1.411 . S
C937 C105 1.280 . S
C929 C8 1.354 . S
