# Generated by pormake.
# Topology zzz, (3,6)-cn, num edge types: 1
# Building blocks:
#     Node 0, Type 0, BuildingBlock: ESEHIV_clean_linker_0, # of connection points: 3
#     Node 1, Type 0, BuildingBlock: ESEHIV_clean_linker_0, # of connection points: 3
#     Node 2, Type 0, BuildingBlock: ESEHIV_clean_linker_0, # of connection points: 3
#     Node 3, Type 0, BuildingBlock: ESEHIV_clean_linker_0, # of connection points: 3
#     Node 4, Type 0, BuildingBlock: ESEHIV_clean_linker_0, # of connection points: 3
#     Node 5, Type 0, BuildingBlock: ESEHIV_clean_linker_0, # of connection points: 3
#     Node 6, Type 0, BuildingBlock: ESEHIV_clean_linker_0, # of connection points: 3
#     Node 7, Type 0, BuildingBlock: ESEHIV_clean_linker_0, # of connection points: 3
#     Node 8, Type 1, BuildingBlock: KUMJIN_clean_sbu_1, # of connection points: 6
#     Node 9, Type 1, BuildingBlock: KUMJIN_clean_sbu_1, # of connection points: 6
#     Node 10, Type 1, BuildingBlock: KUMJIN_clean_sbu_1, # of connection points: 6
#     Node 11, Type 1, BuildingBlock: KUMJIN_clean_sbu_1, # of connection points: 6
#     Edge 12, Type (0, 1), BuildingBlock: KIFKEQ_clean_linker_1, # of connection points: 2
#     Edge 13, Type (0, 1), BuildingBlock: KIFKEQ_clean_linker_1, # of connection points: 2
#     Edge 14, Type (0, 1), BuildingBlock: KIFKEQ_clean_linker_1, # of connection points: 2
#     Edge 15, Type (0, 1), BuildingBlock: KIFKEQ_clean_linker_1, # of connection points: 2
#     Edge 16, Type (0, 1), BuildingBlock: KIFKEQ_clean_linker_1, # of connection points: 2
#     Edge 17, Type (0, 1), BuildingBlock: KIFKEQ_clean_linker_1, # of connection points: 2
#     Edge 18, Type (0, 1), BuildingBlock: KIFKEQ_clean_linker_1, # of connection points: 2
#     Edge 19, Type (0, 1), BuildingBlock: KIFKEQ_clean_linker_1, # of connection points: 2
#     Edge 20, Type (0, 1), BuildingBlock: KIFKEQ_clean_linker_1, # of connection points: 2
#     Edge 21, Type (0, 1), BuildingBlock: KIFKEQ_clean_linker_1, # of connection points: 2
#     Edge 22, Type (0, 1), BuildingBlock: KIFKEQ_clean_linker_1, # of connection points: 2
#     Edge 23, Type (0, 1), BuildingBlock: KIFKEQ_clean_linker_1, # of connection points: 2
#     Edge 24, Type (0, 1), BuildingBlock: KIFKEQ_clean_linker_1, # of connection points: 2
#     Edge 25, Type (0, 1), BuildingBlock: KIFKEQ_clean_linker_1, # of connection points: 2
#     Edge 26, Type (0, 1), BuildingBlock: KIFKEQ_clean_linker_1, # of connection points: 2
#     Edge 27, Type (0, 1), BuildingBlock: KIFKEQ_clean_linker_1, # of connection points: 2
#     Edge 28, Type (0, 1), BuildingBlock: KIFKEQ_clean_linker_1, # of connection points: 2
#     Edge 29, Type (0, 1), BuildingBlock: KIFKEQ_clean_linker_1, # of connection points: 2
#     Edge 30, Type (0, 1), BuildingBlock: KIFKEQ_clean_linker_1, # of connection points: 2
#     Edge 31, Type (0, 1), BuildingBlock: KIFKEQ_clean_linker_1, # of connection points: 2
#     Edge 32, Type (0, 1), BuildingBlock: KIFKEQ_clean_linker_1, # of connection points: 2
#     Edge 33, Type (0, 1), BuildingBlock: KIFKEQ_clean_linker_1, # of connection points: 2
#     Edge 34, Type (0, 1), BuildingBlock: KIFKEQ_clean_linker_1, # of connection points: 2
#     Edge 35, Type (0, 1), BuildingBlock: KIFKEQ_clean_linker_1, # of connection points: 2
# Relax obj value: 0.353
# Max RMSD: 0.204
# Mean RMSD: 0.183
data_MOF--net-zzz--node1-KUMJIN_clean_sbu_1--node2-ESEHIV_clean_linker_0--edge1-KIFKEQ_clean_linker_1
_symmetry_space_group_name_H-M    P1
_symmetry_Int_Tables_number       1
_symmetry_cell_setting            triclinic
loop_
_symmetry_equiv_pos_as_xyz
'x, y, z'
_cell_length_a     43.662895
_cell_length_b     43.758845
_cell_length_c     16.16307
_cell_angle_alpha  90.135773
_cell_angle_beta   89.776671
_cell_angle_gamma 89.932295
loop_
_atom_site_label
_atom_site_type_symbol
_atom_site_fract_x
_atom_site_fract_y
_atom_site_fract_z
_atom_type_partial_charge
H0 H 0.82292 0.5998 0.25429 0.0
H1 H 0.74584 0.58935 0.09139 0.0
H2 H 0.74236 0.55165 0.3356 0.0
C3 C 0.79972 0.59224 0.24252 0.0
C4 C 0.78439 0.57566 0.30431 0.0
C5 C 0.78683 0.5963 0.16377 0.0
C6 C 0.75635 0.5871 0.15163 0.0
C7 C 0.73973 0.57192 0.21332 0.0
C8 C 0.75415 0.56524 0.28951 0.0
H9 H 0.94993 0.8226 0.23526 0.0
H10 H 0.93938 0.73595 0.11497 0.0
H11 H 0.98643 0.74141 0.3486 0.0
C12 C 0.95243 0.79795 0.23557 0.0
C13 C 0.96683 0.78404 0.30348 0.0
C14 C 0.94364 0.7809 0.16596 0.0
C15 C 0.947 0.74919 0.1678 0.0
C16 C 0.96328 0.73456 0.23091 0.0
C17 C 0.97366 0.75222 0.29936 0.0
H18 H 0.73967 0.93144 0.2646 0.0
H19 H 0.8287 0.9267 0.15213 0.0
H20 H 0.8082 0.99768 0.32921 0.0
C21 C 0.76316 0.93923 0.2602 0.0
C22 C 0.77224 0.96401 0.3099 0.0
C23 C 0.78285 0.92659 0.20016 0.0
C24 C 0.81306 0.93708 0.19626 0.0
C25 C 0.82233 0.96333 0.23921 0.0
C26 C 0.80157 0.97721 0.29606 0.0
H27 H 0.60081 0.73531 0.25624 0.0
H28 H 0.53284 0.8016 0.32635 0.0
H29 H 0.59859 0.82288 0.13617 0.0
C30 C 0.59182 0.75829 0.25074 0.0
C31 C 0.60216 0.77755 0.18684 0.0
C32 C 0.5678 0.76707 0.30393 0.0
C33 C 0.55283 0.79541 0.2901 0.0
C34 C 0.56424 0.81572 0.22908 0.0
C35 C 0.58997 0.80714 0.18234 0.0
H36 H 0.23317 0.4434 0.10832 0.0
H37 H 0.31125 0.43491 0.26781 0.0
H38 H 0.30191 0.51322 0.10844 0.0
C39 C 0.25559 0.45101 0.12827 0.0
C40 C 0.26646 0.47875 0.0971 0.0
C41 C 0.27066 0.43565 0.19253 0.0
C42 C 0.29932 0.44656 0.21828 0.0
C43 C 0.311 0.4744 0.18849 0.0
C44 C 0.29403 0.491 0.12882 0.0
H45 H 0.08566 0.23197 0.19783 0.0
H46 H 0.09563 0.32244 0.29619 0.0
H47 H 0.04173 0.30765 0.07725 0.0
C48 C 0.08198 0.25636 0.19286 0.0
C49 C 0.06502 0.26748 0.12538 0.0
C50 C 0.09161 0.27569 0.2572 0.0
C51 C 0.08743 0.30719 0.24818 0.0
C52 C 0.06831 0.31896 0.18663 0.0
C53 C 0.05716 0.29903 0.12404 0.0
H54 H 0.29997 0.10901 0.13491 0.0
H55 H 0.21047 0.10755 0.24587 0.0
H56 H 0.2357 0.03923 0.06579 0.0
C57 C 0.27696 0.09983 0.13837 0.0
C58 C 0.26955 0.07479 0.08758 0.0
C59 C 0.2564 0.11092 0.19853 0.0
C60 C 0.22689 0.09854 0.20157 0.0
C61 C 0.21936 0.07216 0.15683 0.0
C62 C 0.24101 0.05987 0.09994 0.0
H63 H 0.45267 0.31449 0.14704 0.0
H64 H 0.51054 0.24155 0.05762 0.0
H65 H 0.47339 0.2382 0.30367 0.0
C66 C 0.46325 0.29234 0.15615 0.0
C67 C 0.46128 0.27841 0.23396 0.0
C68 C 0.48152 0.27999 0.09262 0.0
C69 C 0.49587 0.25122 0.10513 0.0
C70 C 0.4912 0.23536 0.18057 0.0
C71 C 0.47428 0.24937 0.24394 0.0
Eu72 Eu 0.98929 0.04967 0.64018 0.0
C73 C 0.10912 0.06804 0.78011 0.0
N74 N 0.10128 0.04572 0.72551 0.0
C75 C 0.14204 0.06148 0.635 0.0
C76 C 0.13233 0.08937 0.76132 0.0
C77 C 0.11915 0.0407 0.65726 0.0
C78 C 0.14812 0.08643 0.68626 0.0
C79 C 0.10376 0.09021 0.91721 0.0
C80 C 0.09544 0.06823 0.85744 0.0
C81 C 0.12563 0.11252 0.89712 0.0
C82 C 0.13991 0.11209 0.81933 0.0
Eu83 Eu 0.06018 1.0131 0.76585 0.0
N84 N 0.07418 0.04658 0.87464 0.0
C85 C 0.09005 0.0889 0.99559 0.0
C86 C 0.06147 0.04448 0.95182 0.0
C87 C 0.06903 0.06574 1.01319 0.0
H88 H 0.11628 0.02037 0.62031 0.0
H89 H 0.05853 0.06435 0.07384 0.0
H90 H 0.92843 1.00545 0.6747 0.0
H91 H 0.02059 0.11033 0.35728 0.0
H92 H 0.04484 0.02686 0.96506 0.0
H93 H 0.09582 0.10538 0.04316 0.0
H94 H 0.01986 0.1003 0.50765 0.0
H95 H 0.15536 0.05789 0.57919 0.0
H96 H 0.13209 0.1298 0.94185 0.0
H97 H 0.15738 0.1289 0.8055 0.0
H98 H 0.88898 0.97763 0.59459 0.0
H99 H 0.16611 0.10232 0.66945 0.0
H100 H 0.98828 0.0794 0.26346 0.0
N101 N 0.95066 0.02306 0.56797 0.0
C102 C 0.95011 0.02622 0.4846 0.0
C103 C 0.90617 0.99105 0.56282 0.0
C104 C 0.9282 1.01077 0.43625 0.0
C105 C 0.92847 1.00679 0.60799 0.0
C106 C 0.90635 0.99262 0.47642 0.0
N107 N 0.98897 0.063 0.49831 0.0
C108 C 1.0061 0.08636 0.46703 0.0
C109 C 0.96923 0.05199 0.36247 0.0
C110 C 0.97014 0.04668 0.44847 0.0
C111 C 0.98822 0.07465 0.32923 0.0
C112 C 1.00643 0.0922 0.38198 0.0
H113 H 0.88906 0.98045 0.44153 0.0
H114 H 0.91162 1.00302 0.31175 0.0
H115 H 0.94778 0.03889 0.24685 0.0
O116 O 0.9556 0.08533 0.61584 0.0
O117 O 0.99178 0.99788 0.62137 0.0
O118 O 0.03409 0.97744 0.69009 0.0
O119 O 0.96764 0.07462 0.74219 0.0
O120 O 0.03807 0.05619 0.59328 0.0
O121 O 0.06152 1.01121 0.62437 0.0
O122 O 0.07158 0.98286 0.86818 0.0
O123 O 0.0331 0.05569 0.80249 0.0
O124 O 0.02921 0.07935 0.68034 0.0
O125 O 0.10005 0.98257 0.75976 0.0
O126 O 1.01587 1.00227 0.83337 0.0
O127 O 0.97594 0.02405 0.75768 0.0
C128 C 1.00987 0.97479 0.64151 0.0
C129 C 0.96068 0.12612 0.70927 0.0
C130 C 0.99379 0.17008 0.68414 0.0
C131 C 0.97665 0.18692 0.74254 0.0
C132 C 0.94389 0.14303 0.76737 0.0
C133 C 0.95194 0.17336 0.78397 0.0
C134 C 0.98562 0.13959 0.66907 0.0
C135 C 0.05611 0.03348 0.57195 0.0
C136 C 0.95391 0.09383 0.6932 0.0
C137 C 0.92809 1.01487 0.35006 0.0
C138 C 0.94866 0.03535 0.31315 0.0
C139 C 0.03472 0.08096 0.75959 0.0
C140 C 0.08543 0.93516 0.81401 0.0
C141 C 0.04754 0.89428 0.80836 0.0
C142 C 0.07068 0.87378 0.78366 0.0
C143 C 0.10836 0.91453 0.78991 0.0
C144 C 0.05509 0.92495 0.82096 0.0
C145 C 0.10089 0.88397 0.77413 0.0
C146 C 0.98669 1.00912 0.82247 0.0
C147 C 0.09196 0.96782 0.82584 0.0
H148 H 0.98191 0.21062 0.75539 0.0
H149 H 0.92482 0.13276 0.80011 0.0
H150 H 0.93893 0.18646 0.82884 0.0
H151 H 0.99908 0.12585 0.62691 0.0
H152 H 0.06568 0.84979 0.77429 0.0
H153 H 0.13182 0.9221 0.7825 0.0
H154 H 0.03704 0.941 0.83648 0.0
H155 H 0.11862 0.86804 0.75557 0.0
Eu156 Eu 0.54128 0.05211 0.77183 0.0
C157 C 0.51447 0.93585 0.50957 0.0
N158 N 0.52206 0.96588 0.51278 0.0
C159 C 0.55165 0.96036 0.38802 0.0
C160 C 0.52534 0.91674 0.44542 0.0
C161 C 0.54015 0.97841 0.45259 0.0
C162 C 0.5443 0.92936 0.38454 0.0
C163 C 0.48604 0.89351 0.56789 0.0
C164 C 0.4952 0.92439 0.56978 0.0
C165 C 0.49711 0.87421 0.50488 0.0
C166 C 0.51675 0.8858 0.44375 0.0
Eu167 Eu 0.50268 0.99449 0.62662 0.0
N168 N 0.48479 0.94367 0.62922 0.0
C169 C 0.46575 0.88309 0.62889 0.0
C170 C 0.46457 0.93388 0.68792 0.0
C171 C 0.45486 0.90343 0.68898 0.0
H172 H 0.54632 1.00223 0.45442 0.0
H173 H 0.43901 0.89568 0.73608 0.0
H174 H 0.49844 0.04401 0.94519 0.0
H175 H 0.60395 0.15138 0.66147 0.0
H176 H 0.45612 0.94953 0.73448 0.0
H177 H 0.45816 0.85953 0.62969 0.0
H178 H 0.58774 0.09722 0.66445 0.0
H179 H 0.56622 0.97037 0.34105 0.0
H180 H 0.49043 0.85039 0.50247 0.0
H181 H 0.52493 0.87075 0.39507 0.0
H182 H 0.47795 0.07589 0.05795 0.0
H183 H 0.55322 0.91547 0.33446 0.0
H184 H 0.58374 0.1877 0.76604 0.0
N185 N 0.52152 0.08073 0.88521 0.0
C186 C 0.52847 0.11092 0.88751 0.0
C187 C 0.49215 0.08606 1.01039 0.0
C188 C 0.51729 0.13005 0.95126 0.0
C189 C 0.50395 0.06801 0.9462 0.0
C190 C 0.49873 0.11725 1.0128 0.0
N191 N 0.55845 0.10316 0.76839 0.0
C192 C 0.57883 0.11298 0.71014 0.0
C193 C 0.55622 0.15353 0.82825 0.0
C194 C 0.54755 0.12251 0.82705 0.0
C195 C 0.57653 0.16402 0.76738 0.0
C196 C 0.58802 0.14359 0.70833 0.0
H197 H 0.48961 0.13115 0.06268 0.0
H198 H 0.51685 0.17622 1.00036 0.0
H199 H 0.551 0.19681 0.89245 0.0
O200 O 0.57015 1.01389 0.80326 0.0
O201 O 0.52872 0.07447 0.64858 0.0
O202 O 0.52262 0.035 0.55449 0.0
O203 O 0.58287 0.05978 0.84437 0.0
O204 O 0.57043 0.04072 0.65825 0.0
O205 O 0.55517 0.99197 0.62434 0.0
O206 O 0.47378 0.03333 0.59965 0.0
O207 O 0.51535 0.97173 0.74945 0.0
O208 O 0.52198 1.01118 0.84348 0.0
O209 O 0.46144 0.98813 0.55225 0.0
O210 O 0.47382 1.0052 0.74094 0.0
O211 O 0.4887 0.05398 0.77625 0.0
C212 C 0.52538 0.06442 0.572 0.0
C213 C 0.62225 0.02302 0.81532 0.0
C214 C 0.66233 0.98417 0.81535 0.0
C215 C 0.68118 1.00403 0.76934 0.0
C216 C 0.64127 0.04272 0.77027 0.0
C217 C 0.67057 0.03303 0.74667 0.0
C218 C 0.63258 0.99375 0.83562 0.0
C219 C 0.57607 1.01376 0.62499 0.0
C220 C 0.59079 0.0309 0.83881 0.0
C221 C 0.52528 0.16115 0.95204 0.0
C222 C 0.54472 0.17287 0.89061 0.0
C223 C 0.51913 0.98176 0.82593 0.0
C224 C 0.42167 0.0238 0.58558 0.0
C225 C 0.38003 0.06101 0.58593 0.0
C226 C 0.36206 0.04037 0.63199 0.0
C227 C 0.40346 1.00333 0.63058 0.0
C228 C 0.41018 0.05267 0.56549 0.0
C229 C 0.37384 1.01183 0.65445 0.0
C230 C 0.46807 0.03191 0.77549 0.0
C231 C 0.45331 1.01683 0.56155 0.0
H232 H 0.70445 0.99772 0.75344 0.0
H233 H 0.6334 0.06524 0.75245 0.0
H234 H 0.68526 0.04819 0.71168 0.0
H235 H 0.61725 0.97846 0.86842 0.0
H236 H 0.33855 0.04566 0.64796 0.0
H237 H 0.41217 0.9811 0.64805 0.0
H238 H 0.42484 0.06853 0.5325 0.0
H239 H 0.35979 0.99606 0.68937 0.0
Eu240 Eu 0.55511 0.50379 0.64956 0.0
C241 C 0.4336 0.51694 0.8769 0.0
N242 N 0.44029 0.53333 0.80798 0.0
C243 C 0.3874 0.53213 0.76807 0.0
C244 C 0.40357 0.50647 0.8926 0.0
C245 C 0.41747 0.54217 0.75563 0.0
C246 C 0.3805 0.51378 0.83615 0.0
C247 C 0.44993 0.49738 1.00984 0.0
C248 C 0.45635 0.51254 0.93483 0.0
C249 C 0.4205 0.48552 1.0239 0.0
C250 C 0.39733 0.49009 0.96544 0.0
Eu251 Eu 0.49218 0.54797 0.78901 0.0
N252 N 0.48438 0.52469 0.91985 0.0
C253 C 0.47297 0.49554 0.06961 0.0
C254 C 0.50626 0.52477 0.98013 0.0
C255 C 0.50113 0.5097 0.05513 0.0
H256 H 0.42248 0.55678 0.70343 0.0
H257 H 0.51881 0.50921 0.10188 0.0
H258 H 0.61568 0.54044 0.72964 0.0
H259 H 0.53341 0.47365 0.32629 0.0
H260 H 0.52782 0.53609 0.96977 0.0
H261 H 0.46894 0.48411 0.12805 0.0
H262 H 0.52778 0.46934 0.47798 0.0
H263 H 0.36955 0.53867 0.72529 0.0
H264 H 0.4152 0.47356 0.08079 0.0
H265 H 0.37448 0.48165 0.97824 0.0
H266 H 0.65848 0.57293 0.68151 0.0
H267 H 0.35714 0.50621 0.84597 0.0
H268 H 0.57087 0.50988 0.26666 0.0
N269 N 0.59719 0.53435 0.60933 0.0
C270 C 0.60122 0.53849 0.52672 0.0
C271 C 0.64238 0.56362 0.63741 0.0
C272 C 0.62543 0.55666 0.49634 0.0
C273 C 0.6181 0.54534 0.66455 0.0
C274 C 0.6458 0.56969 0.55304 0.0
N275 N 0.56031 0.50424 0.50371 0.0
C276 C 0.54372 0.48576 0.45252 0.0
C277 C 0.58647 0.52594 0.38616 0.0
C278 C 0.58203 0.52323 0.47238 0.0
C279 C 0.56819 0.50842 0.33322 0.0
C280 C 0.54705 0.48791 0.36663 0.0
H281 H 0.6647 0.58377 0.53217 0.0
H282 H 0.64736 0.57459 0.38608 0.0
H283 H 0.61319 0.54775 0.2896 0.0
O284 O 0.57691 0.4633 0.59577 0.0
O285 O 0.55669 0.55619 0.65175 0.0
O286 O 0.50568 0.56553 0.66216 0.0
O287 O 0.58439 0.47434 0.72414 0.0
O288 O 0.50757 0.5033 0.58842 0.0
O289 O 0.47149 0.53049 0.66741 0.0
O290 O 0.49997 0.58542 0.87503 0.0
O291 O 0.50777 0.5 0.82458 0.0
O292 O 0.51335 0.47821 0.69735 0.0
O293 O 0.465 0.59012 0.78258 0.0
O294 O 0.54286 0.55724 0.81433 0.0
O295 O 0.56534 0.51124 0.78559 0.0
C296 C 0.53318 0.57457 0.64126 0.0
C297 C 0.57784 0.42259 0.69243 0.0
C298 C 0.54156 0.38013 0.68515 0.0
C299 C 0.55619 0.36653 0.75321 0.0
C300 C 0.59207 0.40868 0.76029 0.0
C301 C 0.58132 0.38074 0.79023 0.0
C302 C 0.5529 0.40803 0.65479 0.0
C303 C 0.4797 0.51466 0.6008 0.0
C304 C 0.58697 0.45359 0.66681 0.0
C305 C 0.62907 0.56049 0.41058 0.0
C306 C 0.60961 0.5452 0.35562 0.0
C307 C 0.50746 0.47578 0.7767 0.0
C308 C 0.49722 0.63265 0.80526 0.0
C309 C 0.54278 0.66509 0.79577 0.0
C310 C 0.5255 0.68662 0.75099 0.0
C311 C 0.48038 0.65458 0.76163 0.0
C312 C 0.5286 0.63761 0.81897 0.0
C313 C 0.49465 0.68116 0.73339 0.0
C314 C 0.56379 0.53641 0.82946 0.0
C315 C 0.4825 0.60429 0.83489 0.0
H316 H 0.54792 0.34525 0.77889 0.0
H317 H 0.61108 0.41974 0.79107 0.0
H318 H 0.59219 0.37028 0.84317 0.0
H319 H 0.54223 0.41862 0.6017 0.0
H320 H 0.53522 0.70832 0.73269 0.0
H321 H 0.45628 0.65108 0.74906 0.0
H322 H 0.54193 0.62031 0.85003 0.0
H323 H 0.48155 0.69799 0.69963 0.0
Eu324 Eu 0.04122 0.55818 0.64387 0.0
C325 C 0.05335 0.45344 0.88517 0.0
N326 N 0.04312 0.45518 0.80602 0.0
C327 C 0.07545 0.41325 0.76666 0.0
C328 C 0.07616 0.43217 0.9074 0.0
C329 C 0.05291 0.43481 0.7475 0.0
C330 C 0.08738 0.41214 0.84672 0.0
C331 C 0.05028 0.47104 1.02731 0.0
C332 C 0.04049 0.47262 0.94427 0.0
C333 C 0.07385 0.45074 0.04913 0.0
C334 C 0.08669 0.43128 0.98937 0.0
Eu335 Eu 1.00476 0.49186 0.77881 0.0
N336 N 0.01734 0.49161 0.92156 0.0
C337 C 0.03544 0.48923 0.08647 0.0
C338 C 1.00141 0.50765 0.98013 0.0
C339 C 1.01058 0.50726 0.06292 0.0
H340 H 0.04349 0.43541 0.68588 0.0
H341 H 0.99812 0.52045 0.10876 0.0
H342 H 0.05277 0.62379 0.74857 0.0
H343 H 0.99548 0.54527 0.33157 0.0
H344 H 0.98107 0.52014 0.96375 0.0
H345 H 0.04227 0.48867 0.15084 0.0
H346 H 0.02598 0.53068 0.45419 0.0
H347 H 0.08358 0.39748 0.71976 0.0
H348 H 0.08181 0.4494 0.11246 0.0
H349 H 0.10439 0.41529 1.00749 0.0
H350 H 0.0316 0.67624 0.75205 0.0
H351 H 0.10488 0.39544 0.86135 0.0
H352 H 0.96763 0.59457 0.3303 0.0
N353 N 0.02511 0.60969 0.64777 0.0
C354 C 1.0061 0.6186 0.58593 0.0
C355 C 0.02388 0.66014 0.7057 0.0
C356 C 0.99422 0.64858 0.5836 0.0
C357 C 0.03545 0.63032 0.7045 0.0
C358 C 1.00273 0.66916 0.64586 0.0
N359 N 1.01392 0.57049 0.52254 0.0
C360 C 1.0136 0.55206 0.45413 0.0
C361 C 0.98323 0.60796 0.45218 0.0
C362 C 1.00059 0.59853 0.52098 0.0
C363 C 0.98072 0.58814 0.38437 0.0
C364 C 0.99644 0.5603 0.38477 0.0
H365 H 0.99411 0.69239 0.64628 0.0
H366 H 0.96584 0.6803 0.51512 0.0
H367 H 0.95628 0.64475 0.39997 0.0
O368 O 0.08881 0.54618 0.62288 0.0
O369 O 0.99445 0.53938 0.60865 0.0
O370 O 0.97169 0.52815 0.73222 0.0
O371 O 0.07144 0.58808 0.57127 0.0
O372 O 0.04881 0.50932 0.59658 0.0
O373 O 1.0071 0.48158 0.6408 0.0
O374 O 0.97091 0.46713 0.85299 0.0
O375 O 0.0566 0.49842 0.76132 0.0
O376 O 0.0624 0.54967 0.76901 0.0
O377 O 0.97791 0.4548 0.72515 0.0
O378 O 0.99212 0.53968 0.82761 0.0
O379 O 0.02915 0.57311 0.77679 0.0
C380 C 0.97 0.53788 0.65561 0.0
C381 C 0.10479 0.5581 0.48751 0.0
C382 C 0.12303 0.51714 0.39584 0.0
C383 C 0.12585 0.53876 0.33169 0.0
C384 C 0.10778 0.57912 0.42268 0.0
C385 C 0.11808 0.56938 0.34509 0.0
C386 C 0.11212 0.52721 0.47312 0.0
C387 C 0.02951 0.48645 0.58799 0.0
C388 C 0.09341 0.56795 0.56964 0.0
C389 C 0.97539 0.65746 0.51753 0.0
C390 C 0.96995 0.63721 0.4519 0.0
C391 C 0.07164 0.52228 0.7896 0.0
C392 C 0.92735 0.45706 0.77094 0.0
C393 C 0.88408 0.49244 0.7611 0.0
C394 C 0.86857 0.47089 0.71191 0.0
C395 C 0.91154 0.4359 0.72198 0.0
C396 C 0.91326 0.48491 0.7915 0.0
C397 C 0.88219 0.44275 0.69315 0.0
C398 C 1.00758 0.56569 0.83124 0.0
C399 C 0.96001 0.45248 0.78929 0.0
H400 H 0.13494 0.53239 0.2717 0.0
H401 H 0.10214 0.603 0.43199 0.0
H402 H 0.12051 0.58574 0.29536 0.0
H403 H 0.1094 0.51094 0.5227 0.0
H404 H 0.84621 0.47592 0.68664 0.0
H405 H 0.92225 0.41453 0.70408 0.0
H406 H 0.92544 0.50099 0.8303 0.0
H407 H 0.8702 0.42646 0.65459 0.0
H408 H 0.21411 0.02063 0.24947 0.0
H409 H 0.16043 0.09104 0.13359 0.0
H410 H 0.17111 1.00843 0.34064 0.0
H411 H 0.117 0.07858 0.22321 0.0
H412 H 0.07261 0.08482 0.48474 0.0
H413 H 0.10748 0.08863 0.36741 0.0
H414 H 0.11995 0.99073 0.36985 0.0
H415 H 0.08473 0.98701 0.48752 0.0
C416 C 0.19251 0.03234 0.2403 0.0
C417 C 0.19061 0.05648 0.18331 0.0
C418 C 0.16783 0.02562 0.29342 0.0
C419 C 0.14057 0.04295 0.29105 0.0
C420 C 0.13777 0.06519 0.22856 0.0
C421 C 0.16246 0.07192 0.17571 0.0
C422 C 0.08201 0.06398 0.45892 0.0
C423 C 0.07542 0.03557 0.49533 0.0
C424 C 0.10222 0.06615 0.39135 0.0
C425 C 0.11668 0.03998 0.35814 0.0
C426 C 0.10959 1.01146 0.3937 0.0
C427 C 0.08924 1.0093 0.46113 0.0
H428 H 0.46649 0.17861 0.16402 0.0
H429 H 0.54574 0.22588 0.25643 0.0
H430 H 0.47872 0.13455 0.25081 0.0
H431 H 0.55827 0.18193 0.34324 0.0
H432 H 0.51463 0.05437 0.406 0.0
H433 H 0.51222 0.09205 0.29446 0.0
H434 H 0.53325 0.1637 0.46913 0.0
H435 H 0.53552 0.12634 0.58002 0.0
C436 C 0.48748 0.1789 0.19954 0.0
C437 C 0.50551 0.20549 0.20189 0.0
C438 C 0.49435 0.15375 0.25027 0.0
C439 C 0.51918 0.15478 0.30568 0.0
C440 C 0.53866 0.18043 0.30263 0.0
C441 C 0.5319 0.20542 0.25145 0.0
C442 C 0.51904 0.07813 0.42059 0.0
C443 C 0.52544 0.0871 0.50258 0.0
C444 C 0.51754 0.09979 0.35645 0.0
C445 C 0.52276 0.13104 0.37216 0.0
C446 C 0.52969 0.13985 0.45388 0.0
C447 C 0.53085 0.11831 0.51798 0.0
H448 H 0.37009 0.45438 0.1774 0.0
H449 H 0.313 0.52054 0.3016 0.0
H450 H 0.41216 0.46597 0.27258 0.0
H451 H 0.35475 0.53189 0.39799 0.0
H452 H 0.48794 0.51273 0.43208 0.0
H453 H 0.44925 0.50615 0.32435 0.0
H454 H 0.37893 0.50131 0.51212 0.0
H455 H 0.41783 0.50616 0.61929 0.0
C456 C 0.36695 0.47216 0.22341 0.0
C457 C 0.33849 0.48703 0.23093 0.0
C458 C 0.39095 0.47866 0.2784 0.0
C459 C 0.3868 0.49963 0.34379 0.0
C460 C 0.35868 0.51539 0.34903 0.0
C461 C 0.33489 0.50927 0.29306 0.0
C462 C 0.46437 0.50956 0.45052 0.0
C463 C 0.45616 0.50997 0.53486 0.0
C464 C 0.44207 0.50614 0.38857 0.0
C465 C 0.41082 0.50355 0.40921 0.0
C466 C 0.40265 0.50392 0.49359 0.0
C467 C 0.42499 0.50687 0.55534 0.0
H468 H 0.09726 0.37431 0.17503 0.0
H469 H 1.01263 0.33235 0.25096 0.0
H470 H 0.08566 0.41884 0.26103 0.0
H471 H 1.00151 0.37577 0.34024 0.0
H472 H 0.98423 0.4599 0.49582 0.0
H473 H 0.9896 0.42536 0.37756 0.0
H474 H 0.08809 0.42963 0.40148 0.0
H475 H 0.08233 0.46493 0.51726 0.0
C476 C 0.07547 0.37524 0.20721 0.0
C477 C 0.0556 0.34995 0.20472 0.0
C478 C 0.06913 0.40046 0.25867 0.0
C479 C 0.04301 0.40088 0.31047 0.0
C480 C 0.0218 0.37677 0.30173 0.0
C481 C 0.02796 0.3518 0.24935 0.0
C482 C 1.00702 0.45357 0.47518 0.0
C483 C 0.03289 0.46549 0.51544 0.0
C484 C 1.01017 0.43362 0.40724 0.0
C485 C 0.03936 0.42449 0.37834 0.0
C486 C 0.0652 0.43661 0.41917 0.0
C487 C 0.06198 0.4569 0.48619 0.0
H488 H 0.83119 0.01893 0.16594 0.0
H489 H 0.87928 0.93747 0.23935 0.0
H490 H 0.87329 0.03195 0.07218 0.0
H491 H 0.92081 0.9496 0.14396 0.0
H492 H 0.9981 0.98406 0.97647 0.0
H493 H 0.96257 0.97828 0.09252 0.0
H494 H 0.8892 1.01335 0.94145 0.0
H495 H 0.92465 0.01999 0.82706 0.0
C496 C 0.85134 1.00446 0.16472 0.0
C497 C 0.85185 0.97726 0.2107 0.0
C498 C 0.87525 1.01147 0.10925 0.0
C499 C 0.90031 0.9914 0.09791 0.0
C500 C 0.90212 0.96573 0.15012 0.0
C501 C 0.87831 0.95883 0.20567 0.0
C502 C 0.97435 0.9904 0.96771 0.0
C503 C 0.96449 1.00242 0.89143 0.0
C504 C 0.95386 0.9871 0.03469 0.0
C505 C 0.9228 0.99568 1.02764 0.0
C506 C 0.91295 1.00719 0.95084 0.0
C507 C 0.93337 1.01056 0.88419 0.0
H508 H 0.50964 0.82002 0.14879 0.0
H509 H 0.58484 0.8744 0.23736 0.0
H510 H 0.49389 0.86192 0.05807 0.0
H511 H 0.56949 0.91623 0.14693 0.0
H512 H 0.51073 0.91939 0.81917 0.0
H513 H 0.51538 0.88235 0.93077 0.0
H514 H 0.53401 0.95542 0.10322 0.0
H515 H 0.52963 0.99253 0.99133 0.0
C516 C 0.52194 0.84148 0.15181 0.0
C517 C 0.54817 0.84404 0.20151 0.0
C518 C 0.51334 0.86533 0.09841 0.0
C519 C 0.53069 0.89246 0.09359 0.0
C520 C 0.55538 0.89591 0.14871 0.0
C521 C 0.56409 0.87198 0.20141 0.0
C522 C 0.51547 0.92771 0.88094 0.0
C523 C 0.51981 0.95915 0.89556 0.0
C524 C 0.51795 0.90637 0.94544 0.0
C525 C 0.52505 0.9157 1.0267 0.0
C526 C 0.52878 0.94721 0.04162 0.0
C527 C 0.52612 0.96859 0.97719 0.0
H528 H 0.7267 0.51985 0.13019 0.0
H529 H 0.6844 0.60059 0.23156 0.0
H530 H 0.68177 0.51051 0.04552 0.0
H531 H 0.63839 0.59083 0.14943 0.0
H532 H 0.58371 0.58972 0.90343 0.0
H533 H 0.62226 0.59543 1.01157 0.0
H534 H 0.6314 0.49715 1.02403 0.0
H535 H 0.59404 0.49181 0.91393 0.0
C536 C 0.707 0.5347 0.1376 0.0
C537 C 0.70886 0.56052 0.18912 0.0
C538 C 0.68112 0.52955 0.08833 0.0
C539 C 0.65614 0.55007 0.08903 0.0
C540 C 0.65722 0.57479 0.14529 0.0
C541 C 0.68333 0.58006 0.19412 0.0
C542 C 0.59384 0.56939 0.92973 0.0
C543 C 0.58594 0.54037 0.89906 0.0
C544 C 0.61592 0.57258 0.99247 0.0
C545 C 0.63048 0.54676 1.02721 0.0
C546 C 0.62155 0.51772 0.99818 0.0
C547 C 0.5999 0.5146 0.93484 0.0
H548 H 0.92476 0.68699 0.20137 0.0
H549 H 0.02059 0.70935 0.21245 0.0
H550 H 0.93582 0.64407 0.11229 0.0
H551 H 0.03264 0.66442 0.12901 0.0
H552 H 0.04378 0.6127 0.88708 0.0
H553 H 0.03439 0.64818 0.99885 0.0
H554 H 0.95043 0.60027 0.05813 0.0
H555 H 0.95821 0.56746 0.93889 0.0
C556 C 0.94853 0.68162 0.18839 0.0
C557 C 0.9717 0.70192 0.21375 0.0
C558 C 0.95507 0.65679 0.13609 0.0
C559 C 0.98526 0.65069 0.10904 0.0
C560 C 1.00887 0.66876 0.14393 0.0
C561 C 1.00215 0.69419 0.19461 0.0
C562 C 0.02291 0.61015 0.92256 0.0
C563 C 1.00169 0.58714 0.90243 0.0
C564 C 0.01778 0.63025 0.98914 0.0
C565 C 0.99158 0.62768 0.04025 0.0
C566 C 0.97068 0.60402 1.02089 0.0
C567 C 0.97539 0.58453 0.95254 0.0
H568 H 0.12004 0.22106 0.29936 0.0
H569 H 0.07616 0.3005 0.40822 0.0
H570 H 0.10855 0.19235 0.42493 0.0
H571 H 0.0666 0.27254 0.53232 0.0
H572 H 1.01147 0.15783 0.52459 0.0
H573 H 0.05221 0.18067 0.44589 0.0
H574 H 0.07519 0.23834 0.65366 0.0
H575 H 0.03462 0.21431 0.73517 0.0
C576 C 0.10906 0.23283 0.35047 0.0
C577 C 0.09772 0.26276 0.34106 0.0
C578 C 0.10282 0.21643 0.42276 0.0
C579 C 0.08579 0.22999 0.48712 0.0
C580 C 0.07959 0.26136 0.48365 0.0
C581 C 0.08526 0.27754 0.41127 0.0
C582 C 0.02585 0.17437 0.55554 0.0
C583 C 0.01975 0.18385 0.63725 0.0
C584 C 0.04948 0.18746 0.51001 0.0
C585 C 0.06728 0.21099 0.54393 0.0
C586 C 0.06197 0.22001 0.62626 0.0
C587 C 0.03844 0.20655 0.67246 0.0
H588 H 0.23845 0.1074 0.36126 0.0
H589 H 0.30094 0.15623 0.20064 0.0
H590 H 0.2701 0.11824 0.47704 0.0
H591 H 0.33364 0.1666 0.3194 0.0
H592 H 0.39238 0.08623 0.43495 0.0
H593 H 0.36222 0.12258 0.36138 0.0
H594 H 0.3053 0.13655 0.57766 0.0
H595 H 0.3366 0.09989 0.65376 0.0
C596 C 0.25813 0.12186 0.35046 0.0
C597 C 0.26797 0.12931 0.26983 0.0
C598 C 0.27654 0.12826 0.41831 0.0
C599 C 0.30543 0.14169 0.40683 0.0
C600 C 0.3121 0.15491 0.32948 0.0
C601 C 0.2935 0.14866 0.26119 0.0
C602 C 0.37446 0.09792 0.469 0.0
C603 C 0.36638 0.08917 0.54988 0.0
C604 C 0.35702 0.11923 0.42628 0.0
C605 C 0.33061 0.13194 0.46258 0.0
C606 C 0.32505 0.12654 0.54719 0.0
C607 C 0.34273 0.10521 0.59044 0.0
H608 H 0.4349 0.2585 0.38094 0.0
H609 H 0.46799 0.34009 0.2585 0.0
H610 H 0.44072 0.28414 0.51431 0.0
H611 H 0.47153 0.36555 0.38884 0.0
H612 H 0.49155 0.40771 0.6142 0.0
H613 H 0.45396 0.38449 0.52428 0.0
H614 H 0.49401 0.29583 0.56901 0.0
H615 H 0.53133 0.31884 0.66086 0.0
C616 C 0.44238 0.28207 0.38168 0.0
C617 C 0.45229 0.29657 0.30849 0.0
C618 C 0.44537 0.29679 0.45813 0.0
C619 C 0.45725 0.32655 0.46204 0.0
C620 C 0.46228 0.34259 0.38817 0.0
C621 C 0.46009 0.32775 0.31238 0.0
C622 C 0.49191 0.38314 0.60728 0.0
C623 C 0.51503 0.36528 0.6439 0.0
C624 C 0.47011 0.36984 0.55601 0.0
C625 C 0.47131 0.33847 0.53866 0.0
C626 C 0.49229 0.32009 0.58178 0.0
C627 C 0.51395 0.33338 0.63402 0.0
H628 H 0.22741 0.3917 0.15027 0.0
H629 H 0.27055 0.43352 0.36191 0.0
H630 H 0.17902 0.39029 0.22552 0.0
H631 H 0.2234 0.4319 0.43609 0.0
H632 H 0.14756 0.47798 0.5126 0.0
H633 H 0.17493 0.43107 0.48781 0.0
H634 H 0.15312 0.437 0.22759 0.0
H635 H 0.12241 0.48183 0.25408 0.0
C636 C 0.22706 0.39915 0.21423 0.0
C637 C 0.252 0.41547 0.24726 0.0
C638 C 0.19919 0.3985 0.25732 0.0
C639 C 0.19654 0.41373 0.33383 0.0
C640 C 0.22379 0.42141 0.37543 0.0
C641 C 0.25144 0.42226 0.33226 0.0
C642 C 0.14721 0.46876 0.4505 0.0
C643 C 0.13389 0.48496 0.3844 0.0
C644 C 0.16333 0.44169 0.43621 0.0
C645 C 0.16805 0.43107 0.35505 0.0
C646 C 0.15093 0.44465 0.29105 0.0
C647 C 0.13385 0.47114 0.3058 0.0
H648 H 0.96202 0.7622 1.01223 0.0
H649 H 0.91213 0.83477 0.13566 0.0
H650 H 0.96866 0.79346 0.89355 0.0
H651 H 0.9192 0.86692 1.01381 0.0
H652 H 1.0124 0.91298 0.93816 0.0
H653 H 0.96757 0.88889 0.99275 0.0
H654 H 0.96562 0.82738 0.78278 0.0
H655 H 1.01167 0.85186 0.72768 0.0
C656 C 0.95099 0.78436 1.01304 0.0
C657 C 0.93756 0.79631 0.0856 0.0
C658 C 0.95479 0.80256 0.94353 0.0
C659 C 0.94578 0.83336 0.94521 0.0
C660 C 0.92756 0.84362 1.01193 0.0
C661 C 0.9237 0.82529 0.08205 0.0
C662 C 1.00194 0.89508 0.90155 0.0
C663 C 1.01629 0.88362 0.82988 0.0
C664 C 0.97573 0.88129 0.9328 0.0
C665 C 0.96337 0.85538 0.89377 0.0
C666 C 0.97518 0.84666 0.81587 0.0
C667 C 1.0017 0.86044 0.78464 0.0
H668 H 0.73527 0.88438 0.19952 0.0
H669 H 0.80106 0.92795 0.03724 0.0
H670 H 0.70199 0.87571 0.081 0.0
H671 H 0.76879 0.91883 0.92194 0.0
H672 H 0.70356 0.94311 0.74703 0.0
H673 H 0.73226 0.90406 0.82204 0.0
H674 H 0.67645 0.92115 0.03891 0.0
H675 H 0.64886 0.95967 0.96635 0.0
C676 C 0.74324 0.89114 0.13875 0.0
C677 C 0.77004 0.90867 0.12952 0.0
C678 C 0.72429 0.88586 0.07057 0.0
C679 C 0.73183 0.89834 0.99287 0.0
C680 C 0.76162 0.90956 0.98096 0.0
C681 C 0.78042 0.91496 0.04862 0.0
C682 C 0.69712 0.93798 0.81026 0.0
C683 C 0.67457 0.95536 0.85123 0.0
C684 C 0.71328 0.91532 0.85291 0.0
C685 C 0.70736 0.90998 0.93741 0.0
C686 C 0.6819 0.92436 0.9741 0.0
C687 C 0.66597 0.94694 0.93198 0.0
H688 H 0.64491 0.73012 0.18326 0.0
H689 H 0.59996 0.79545 1.02329 0.0
H690 H 0.65363 0.69711 0.0638 0.0
H691 H 0.60998 0.76383 0.90701 0.0
H692 H 0.56789 0.64685 0.94324 0.0
H693 H 0.60777 0.67158 1.01757 0.0
H694 H 0.62803 0.72793 0.80522 0.0
H695 H 0.58808 0.70171 0.72729 0.0
C696 C 0.63774 0.73808 0.12301 0.0
C697 C 0.6198 0.76469 0.11496 0.0
C698 C 0.64323 0.71931 0.05419 0.0
C699 C 0.63101 0.72704 0.97652 0.0
C700 C 0.6192 0.7566 0.96592 0.0
C701 C 0.61328 0.77504 0.03431 0.0
C702 C 0.58162 0.66324 0.90963 0.0
C703 C 0.5735 0.67317 0.82979 0.0
C704 C 0.605 0.67757 0.95306 0.0
C705 C 0.62028 0.70281 0.91881 0.0
C706 C 0.61589 0.70922 0.83433 0.0
C707 C 0.59262 0.69452 0.79011 0.0
H708 H 0.84868 0.58502 0.14358 0.0
H709 H 0.77083 0.62323 1.01403 0.0
H710 H 0.87424 0.57662 1.01412 0.0
H711 H 0.79589 0.61131 0.88274 0.0
H712 H 0.82346 0.50484 0.79153 0.0
H713 H 0.8029 0.54912 0.86296 0.0
H714 H 0.89193 0.59171 0.85875 0.0
H715 H 0.9124 0.54825 0.78216 0.0
C716 C 0.83721 0.59292 0.08846 0.0
C717 C 0.80661 0.60325 0.09025 0.0
C718 C 0.85214 0.58794 1.01336 0.0
C719 C 0.83658 0.5924 0.93867 0.0
C720 C 0.80809 0.60719 0.93988 0.0
C721 C 0.79357 0.6134 1.01535 0.0
C722 C 0.83845 0.52416 0.8017 0.0
C723 C 0.86991 0.5223 0.78377 0.0
C724 C 0.82655 0.54972 0.84241 0.0
C725 C 0.84598 0.5736 0.86709 0.0
C726 C 0.87655 0.5735 0.84052 0.0
C727 C 0.88831 0.54825 0.79808 0.0
H728 H 0.07125 0.26724 0.95472 0.0
H729 H 0.0344 0.21457 0.15661 0.0
H730 H 0.06147 0.22454 0.86019 0.0
H731 H 0.02624 0.17168 0.06536 0.0
H732 H 0.99916 0.09898 0.88909 0.0
H733 H 1.00109 0.14646 0.96688 0.0
H734 H 0.07647 0.17699 0.8135 0.0
H735 H 0.07182 0.13044 0.73022 0.0
C736 C 0.06047 0.24678 0.97858 0.0
C737 C 0.05361 0.24449 0.06342 0.0
C738 C 0.05523 0.2219 0.92453 0.0
C739 C 0.04295 0.19396 0.95375 0.0
C740 C 0.03506 0.19249 0.03838 0.0
C741 C 0.04 0.21727 0.09167 0.0
C742 C 1.0158 0.11612 0.8713 0.0
C743 C 0.03524 0.11099 0.8034 0.0
C744 C 0.01731 0.14342 0.91681 0.0
C745 C 0.03937 0.16607 0.89857 0.0
C746 C 0.05877 0.16078 0.82969 0.0
C747 C 0.05632 0.13389 0.7819 0.0
H748 H 0.29451 0.10708 0.9609 0.0
H749 H 0.30055 0.01981 0.08233 0.0
H750 H 0.34086 0.09567 0.882 0.0
H751 H 0.34774 1.00843 1.00514 0.0
H752 H 0.42374 0.98929 0.81291 0.0
H753 H 0.37394 0.99732 0.87848 0.0
H754 H 0.39418 0.09347 0.90368 0.0
H755 H 0.44348 0.08552 0.83584 0.0
C756 C 0.30549 0.0851 0.96943 0.0
C757 C 0.29356 0.06423 1.0273 0.0
C758 C 0.33247 0.0787 0.92511 0.0
C759 C 0.34879 0.05132 0.9378 0.0
C760 C 0.33597 0.02972 0.99288 0.0
C761 C 0.30872 0.0361 0.03702 0.0
C762 C 0.41756 1.01221 0.83205 0.0
C763 C 0.43779 0.03677 0.81803 0.0
C764 C 0.38891 1.0168 0.87043 0.0
C765 C 0.3795 0.04613 0.8964 0.0
C766 C 0.39999 0.07061 0.88323 0.0
C767 C 0.4286 0.06601 0.84479 0.0
H768 H 0.53658 0.30346 0.04164 0.0
H769 H 0.44012 0.30518 0.98722 0.0
H770 H 0.54399 0.34934 0.95731 0.0
H771 H 0.44699 0.35134 0.90569 0.0
H772 H 0.46894 0.42977 0.73194 0.0
H773 H 0.465 0.37849 0.79126 0.0
H774 H 0.53376 0.40241 0.97182 0.0
H775 H 0.53828 0.45311 0.90955 0.0
C776 C 0.51715 0.31297 1.0091 0.0
C777 C 0.48781 0.30044 1.02054 0.0
C778 C 0.52121 0.33976 0.96223 0.0
C779 C 0.496 0.35477 0.92573 0.0
C780 C 0.46709 0.34069 0.93203 0.0
C781 C 0.46309 0.31398 0.97859 0.0
C782 C 0.48359 0.42368 0.78323 0.0
C783 C 0.50444 0.44505 0.81467 0.0
C784 C 0.48104 0.39444 0.81835 0.0
C785 C 0.49929 0.38579 0.88628 0.0
C786 C 0.51982 0.40765 0.91848 0.0
C787 C 0.52222 0.43691 0.88341 0.0
H788 H 0.25753 0.46829 0.93304 0.0
H789 H 0.22507 0.52293 0.1371 0.0
H790 H 0.2117 0.48127 0.85408 0.0
H791 H 0.17868 0.53535 0.05994 0.0
H792 H 0.10257 0.56448 0.88263 0.0
H793 H 0.15264 0.5594 0.94828 0.0
H794 H 0.15942 0.46678 0.85674 0.0
H795 H 0.11019 0.47259 0.78802 0.0
C796 C 0.24113 0.48415 0.95961 0.0
C797 C 0.2454 0.49533 0.04033 0.0
C798 C 0.21441 0.49104 0.91521 0.0
C799 C 0.19092 0.50898 0.95073 0.0
C800 C 0.19617 0.52172 0.0297 0.0
C801 C 0.223 0.51491 0.07389 0.0
C802 C 0.11485 0.54307 0.87624 0.0
C803 C 0.10204 0.51877 0.83082 0.0
C804 C 0.14357 0.54007 0.91443 0.0
C805 C 0.16048 0.51269 0.90813 0.0
C806 C 0.14758 0.48844 0.86229 0.0
C807 C 0.11893 0.49152 0.82395 0.0
H808 H 0.92795 0.81257 0.4097 0.0
H809 H 0.0239 0.80429 0.35165 0.0
H810 H 0.93864 0.85612 0.49957 0.0
H811 H 0.03488 0.84851 0.44072 0.0
H812 H 0.04602 0.9227 0.64313 0.0
H813 H 0.0367 0.87345 0.5761 0.0
H814 H 0.95181 0.90833 0.47801 0.0
H815 H 0.96087 0.95689 0.54598 0.0
C816 C 0.95153 0.81954 0.41822 0.0
C817 C 0.97509 0.80452 0.37453 0.0
C818 C 0.95767 0.84494 0.46877 0.0
C819 C 0.98763 0.85653 0.47685 0.0
C820 C 1.01153 0.84037 0.43683 0.0
C821 C 1.00532 0.81478 0.38607 0.0
C822 C 0.02502 0.91973 0.60878 0.0
C823 C 1.00383 0.94402 0.60238 0.0
C824 C 0.01985 0.89143 0.56918 0.0
C825 C 0.99327 0.88638 0.52176 0.0
C826 C 0.9722 0.91072 0.51534 0.0
C827 C 0.97745 0.93892 0.55452 0.0
H828 H 0.74767 0.93387 0.44081 0.0
H829 H 0.74275 0.01991 0.31285 0.0
H830 H 0.70213 0.94717 0.52102 0.0
H831 H 0.69637 0.03322 0.39169 0.0
H832 H 0.62139 0.05538 0.58637 0.0
H833 H 0.67095 0.04599 0.52005 0.0
H834 H 0.6487 0.95018 0.49902 0.0
H835 H 0.5997 0.95947 0.56698 0.0
C836 C 0.73718 0.95603 0.43121 0.0
C837 C 0.74917 0.97597 0.37107 0.0
C838 C 0.71065 0.9635 0.47631 0.0
C839 C 0.69482 0.99109 0.46226 0.0
C840 C 0.70777 1.01182 0.40499 0.0
C841 C 0.73456 1.00433 0.35993 0.0
C842 C 0.6271 0.03225 0.56797 0.0
C843 C 0.60637 1.00819 0.58299 0.0
C844 C 0.6556 0.02688 0.52922 0.0
C845 C 0.66436 0.99723 0.50418 0.0
C846 C 0.6434 0.97326 0.51867 0.0
C847 C 0.61496 0.97864 0.55724 0.0
H848 H 0.51507 0.73293 0.31185 0.0
H849 H 0.60025 0.74871 0.43801 0.0
H850 H 0.50588 0.68779 0.39779 0.0
H851 H 0.59084 0.70451 0.52638 0.0
H852 H 0.58659 0.60292 0.59222 0.0
H853 H 0.5926 0.65118 0.51935 0.0
H854 H 0.49456 0.66448 0.52577 0.0
H855 H 0.48863 0.61556 0.59564 0.0
C856 C 0.53126 0.72738 0.36014 0.0
C857 C 0.55817 0.74466 0.36884 0.0
C858 C 0.52614 0.70133 0.40947 0.0
C859 C 0.5478 0.69184 0.46899 0.0
C860 C 0.57391 0.71031 0.48025 0.0
C861 C 0.57911 0.73608 0.43051 0.0
C862 C 0.56629 0.61598 0.57768 0.0
C863 C 0.53713 0.60486 0.59919 0.0
C864 C 0.56972 0.64407 0.53653 0.0
C865 C 0.54408 0.6622 0.5159 0.0
C866 C 0.51492 0.65122 0.53875 0.0
C867 C 0.51152 0.62307 0.57959 0.0
H868 H 0.80027 0.60972 0.43945 0.0
H869 H 0.81348 0.52153 0.3265 0.0
H870 H 0.84225 0.59946 0.53514 0.0
H871 H 0.85649 0.51158 0.41813 0.0
H872 H 0.92888 0.49418 0.61097 0.0
H873 H 0.87955 0.50104 0.54237 0.0
H874 H 0.89503 0.59865 0.53635 0.0
H875 H 0.9431 0.59143 0.61016 0.0
C876 C 0.8116 0.5877 0.43698 0.0
C877 C 0.80302 0.56611 0.37696 0.0
C878 C 0.83623 0.58199 0.49061 0.0
C879 C 0.85357 0.5548 0.48433 0.0
C880 C 0.84381 0.53261 0.4266 0.0
C881 C 0.81889 0.53819 0.37395 0.0
C882 C 0.92123 0.51709 0.59644 0.0
C883 C 0.93957 0.54229 0.61679 0.0
C884 C 0.89309 0.52111 0.55592 0.0
C885 C 0.88272 0.55049 0.53317 0.0
C886 C 0.90142 0.57568 0.55397 0.0
C887 C 0.92935 0.5716 0.5954 0.0
loop_
_geom_bond_atom_site_label_1
_geom_bond_atom_site_label_2
_geom_bond_distance
_geom_bond_site_symmetry_2
_ccdc_geom_bond_type
H0 C3 0.931 . S
H1 C6 0.928 . S
H2 C8 0.930 . S
C3 H0 0.931 . S
C3 C4 1.413 . S
C3 C5 1.360 . S
C4 C3 1.413 . S
C4 C8 1.429 . S
C5 C3 1.360 . S
C5 C6 1.372 . S
C6 H1 0.928 . S
C6 C5 1.372 . S
C6 C7 1.404 . S
C7 C6 1.404 . S
C7 C8 1.391 . S
C8 H2 0.930 . S
C8 C4 1.429 . S
C8 C7 1.391 . S
H9 C12 0.931 . S
H10 C15 0.928 . S
H11 C17 0.930 . S
C12 H9 0.931 . S
C12 C13 1.413 . S
C12 C14 1.360 . S
C13 C12 1.413 . S
C13 C17 1.429 . S
C14 C12 1.360 . S
C14 C15 1.372 . S
C15 H10 0.928 . S
C15 C14 1.372 . S
C15 C16 1.404 . S
C16 C15 1.404 . S
C16 C17 1.391 . S
C17 H11 0.930 . S
C17 C13 1.429 . S
C17 C16 1.391 . S
H18 C21 0.931 . S
H19 C24 0.928 . S
H20 C26 0.930 . S
C21 H18 0.931 . S
C21 C22 1.413 . S
C21 C23 1.360 . S
C22 C21 1.413 . S
C22 C26 1.429 . S
C23 C21 1.360 . S
C23 C24 1.372 . S
C24 H19 0.928 . S
C24 C23 1.372 . S
C24 C25 1.404 . S
C25 C24 1.404 . S
C25 C26 1.391 . S
C26 H20 0.930 . S
C26 C22 1.429 . S
C26 C25 1.391 . S
H27 C30 0.931 . S
H28 C33 0.928 . S
H29 C35 0.930 . S
C30 H27 0.931 . S
C30 C31 1.413 . S
C30 C32 1.360 . S
C31 C30 1.413 . S
C31 C35 1.429 . S
C32 C30 1.360 . S
C32 C33 1.372 . S
C33 H28 0.928 . S
C33 C32 1.372 . S
C33 C34 1.404 . S
C34 C33 1.404 . S
C34 C35 1.391 . S
C35 H29 0.930 . S
C35 C31 1.429 . S
C35 C34 1.391 . S
H36 C39 0.931 . S
H37 C42 0.928 . S
H38 C44 0.930 . S
C39 H36 0.931 . S
C39 C40 1.413 1_554 S
C39 C41 1.360 . S
C40 C39 1.413 1_556 S
C40 C44 1.429 . S
C41 C39 1.360 . S
C41 C42 1.372 . S
C42 H37 0.928 . S
C42 C41 1.372 . S
C42 C43 1.404 . S
C43 C42 1.404 . S
C43 C44 1.391 1_554 S
C44 H38 0.930 . S
C44 C40 1.429 . S
C44 C43 1.391 1_556 S
H45 C48 0.931 . S
H46 C51 0.928 . S
H47 C53 0.930 . S
C48 H45 0.931 . S
C48 C49 1.413 1_554 S
C48 C50 1.360 . S
C49 C48 1.413 1_556 S
C49 C53 1.429 . S
C50 C48 1.360 . S
C50 C51 1.372 . S
C51 H46 0.928 . S
C51 C50 1.372 . S
C51 C52 1.404 . S
C52 C51 1.404 . S
C52 C53 1.391 1_554 S
C53 H47 0.930 . S
C53 C49 1.429 . S
C53 C52 1.391 1_556 S
H54 C57 0.931 . S
H55 C60 0.928 . S
H56 C62 0.930 . S
C57 H54 0.931 . S
C57 C58 1.413 1_554 S
C57 C59 1.360 . S
C58 C57 1.413 1_556 S
C58 C62 1.429 . S
C59 C57 1.360 . S
C59 C60 1.372 . S
C60 H55 0.928 . S
C60 C59 1.372 . S
C60 C61 1.404 . S
C61 C60 1.404 . S
C61 C62 1.391 1_554 S
C62 H56 0.930 . S
C62 C58 1.429 . S
C62 C61 1.391 1_556 S
H63 C66 0.931 . S
H64 C69 0.928 . S
H65 C71 0.930 . S
C66 H63 0.931 . S
C66 C67 1.413 . S
C66 C68 1.360 1_554 S
C67 C66 1.413 . S
C67 C71 1.429 . S
C68 C66 1.360 1_556 S
C68 C69 1.372 . S
C69 H64 0.928 . S
C69 C68 1.372 . S
C69 C70 1.404 1_556 S
C70 C69 1.404 1_554 S
C70 C71 1.391 . S
C71 H65 0.930 . S
C71 C67 1.429 . S
C71 C70 1.391 . S
Eu72 N101 2.600 . S
Eu72 N107 2.562 . S
Eu72 O116 2.462 . S
Eu72 O117 2.373 1_545 S
Eu72 O119 2.432 . S
Eu72 O120 2.291 1_655 S
Eu72 O124 2.335 1_655 S
Eu72 O127 2.372 . S
Eu72 C136 2.787 . S
C73 N74 1.383 . S
C73 C76 1.405 . S
C73 C80 1.448 . S
N74 C73 1.383 . S
N74 C77 1.315 1_545 S
N74 Eu83 2.591 1_545 S
C75 C77 1.397 1_545 S
C75 C78 1.367 . S
C75 H95 0.931 . S
C76 C73 1.405 . S
C76 C78 1.403 . S
C76 C82 1.439 . S
C77 N74 1.315 1_565 S
C77 C75 1.397 1_565 S
C77 H88 0.930 . S
C78 C75 1.367 . S
C78 C76 1.403 . S
C78 H99 0.929 . S
C79 C80 1.430 . S
C79 C81 1.387 1_556 S
C79 C85 1.404 1_556 S
C80 C73 1.448 . S
C80 C79 1.430 . S
C80 N84 1.351 . S
C81 C79 1.387 1_554 S
C81 C82 1.374 1_554 S
C81 H96 0.931 . S
C82 C76 1.439 . S
C82 C81 1.374 1_556 S
C82 H97 0.931 . S
Eu83 N74 2.591 1_565 S
Eu83 N84 2.562 1_565 S
Eu83 O118 2.335 . S
Eu83 O121 2.372 . S
Eu83 O122 2.462 . S
Eu83 O123 2.373 1_565 S
Eu83 O125 2.432 . S
Eu83 O126 2.287 1_465 S
Eu83 C147 2.787 . S
N84 C80 1.351 . S
N84 Eu83 2.562 1_545 S
N84 C86 1.325 . S
C85 C79 1.404 1_554 S
C85 C87 1.366 . S
C85 H93 0.930 . S
C86 N84 1.325 . S
C86 C87 1.416 1_556 S
C86 H92 0.929 . S
C87 C85 1.366 . S
C87 C86 1.416 1_554 S
C87 H89 0.930 . S
H88 C77 0.930 . S
H89 C87 0.930 . S
H90 C105 0.930 . S
H91 C112 0.930 1_455 S
H92 C86 0.929 . S
H93 C85 0.930 . S
H94 C108 0.929 1_455 S
H95 C75 0.931 . S
H96 C81 0.931 . S
H97 C82 0.931 . S
H98 C103 0.931 . S
H99 C78 0.929 . S
H100 C111 0.930 . S
N101 Eu72 2.600 . S
N101 C102 1.359 1_545 S
N101 C105 1.319 . S
C102 N101 1.359 1_565 S
C102 C104 1.410 . S
C102 C110 1.449 . S
C103 H98 0.931 . S
C103 C105 1.397 . S
C103 C106 1.367 1_545 S
C104 C102 1.410 . S
C104 C106 1.403 . S
C104 C137 1.439 . S
C105 H90 0.930 . S
C105 N101 1.319 . S
C105 C103 1.397 . S
C106 C103 1.367 1_565 S
C106 C104 1.403 . S
C106 H113 0.929 . S
N107 Eu72 2.562 . S
N107 C108 1.325 . S
N107 C110 1.351 1_545 S
C108 H94 0.929 1_655 S
C108 N107 1.325 . S
C108 C112 1.416 1_545 S
C109 C110 1.430 . S
C109 C111 1.404 . S
C109 C138 1.387 . S
C110 C102 1.449 . S
C110 N107 1.351 1_565 S
C110 C109 1.430 . S
C111 H100 0.930 . S
C111 C109 1.404 . S
C111 C112 1.366 . S
C112 H91 0.930 1_655 S
C112 C108 1.416 1_565 S
C112 C111 1.366 . S
H113 C106 0.929 . S
H114 C137 0.931 . S
H115 C138 0.931 . S
O116 Eu72 2.462 . S
O116 C136 1.252 . S
O117 Eu72 2.373 1_565 S
O117 C128 1.249 . S
O118 Eu83 2.335 . S
O118 C128 1.264 1_455 S
O119 Eu72 2.432 . S
O119 C136 1.268 . S
O120 Eu72 2.291 1_455 S
O120 C135 1.255 . S
O121 Eu83 2.372 . S
O121 C135 1.257 1_565 S
O122 Eu83 2.462 . S
O122 C147 1.252 . S
O123 Eu83 2.373 1_545 S
O123 C139 1.249 . S
O124 Eu72 2.335 1_455 S
O124 C139 1.264 . S
O125 Eu83 2.432 . S
O125 C147 1.268 . S
O126 Eu83 2.287 1_645 S
O126 C146 1.258 . S
O127 Eu72 2.372 . S
O127 C146 1.257 . S
C128 O117 1.249 . S
C128 O118 1.264 1_655 S
C129 C132 1.382 . S
C129 C134 1.390 . S
C129 C136 1.506 . S
C130 C131 1.398 . S
C130 C134 1.392 . S
C131 C130 1.398 . S
C131 C133 1.372 . S
C131 H148 0.931 . S
C132 C129 1.382 . S
C132 C133 1.390 . S
C132 H149 0.931 . S
C133 C131 1.372 . S
C133 C132 1.390 . S
C133 H150 0.929 . S
C134 C129 1.390 . S
C134 C130 1.392 . S
C134 H151 0.930 1_655 S
C135 O120 1.255 . S
C135 O121 1.257 1_545 S
C136 Eu72 2.787 . S
C136 O116 1.252 . S
C136 O119 1.268 . S
C136 C129 1.506 . S
C137 C104 1.439 . S
C137 H114 0.931 . S
C137 C138 1.374 . S
C138 C109 1.387 . S
C138 H115 0.931 . S
C138 C137 1.374 . S
C139 O123 1.249 . S
C139 O124 1.264 . S
C140 C143 1.382 . S
C140 C144 1.390 . S
C140 C147 1.506 . S
C141 C142 1.398 . S
C141 C144 1.392 . S
C142 C141 1.398 . S
C142 C145 1.372 . S
C142 H152 0.931 . S
C143 C140 1.382 . S
C143 C145 1.390 . S
C143 H153 0.931 . S
C144 C140 1.390 . S
C144 C141 1.392 . S
C144 H154 0.930 . S
C145 C142 1.372 . S
C145 C143 1.390 . S
C145 H155 0.929 . S
C146 O126 1.258 . S
C146 O127 1.257 . S
C147 Eu83 2.787 . S
C147 O122 1.252 . S
C147 O125 1.268 . S
C147 C140 1.506 . S
H148 C131 0.931 . S
H149 C132 0.931 . S
H150 C133 0.929 . S
H151 C134 0.930 1_455 S
H152 C142 0.931 . S
H153 C143 0.931 . S
H154 C144 0.930 . S
H155 C145 0.929 . S
Eu156 N185 2.600 . S
Eu156 N191 2.562 . S
Eu156 O200 2.462 . S
Eu156 O201 2.373 . S
Eu156 O203 2.432 . S
Eu156 O204 2.291 . S
Eu156 O208 2.335 1_545 S
Eu156 O211 2.372 . S
Eu156 C220 2.787 . S
C157 N158 1.365 . S
C157 C160 1.405 . S
C157 C164 1.448 . S
N158 C157 1.365 . S
N158 C161 1.319 . S
N158 Eu167 2.600 . S
C159 C161 1.397 . S
C159 C162 1.367 . S
C159 H179 0.931 . S
C160 C157 1.405 . S
C160 C162 1.403 . S
C160 C166 1.439 . S
C161 N158 1.319 . S
C161 C159 1.397 . S
C161 H172 0.930 . S
C162 C159 1.367 . S
C162 C160 1.403 . S
C162 H183 0.929 . S
C163 C164 1.430 . S
C163 C165 1.387 . S
C163 C169 1.404 . S
C164 C157 1.448 . S
C164 C163 1.430 . S
C164 N168 1.351 . S
C165 C163 1.387 . S
C165 C166 1.374 . S
C165 H180 0.931 . S
C166 C160 1.439 . S
C166 C165 1.374 . S
C166 H181 0.931 . S
Eu167 N158 2.600 . S
Eu167 N168 2.562 . S
Eu167 O202 2.335 1_565 S
Eu167 O205 2.372 . S
Eu167 O206 2.462 . S
Eu167 O207 2.373 . S
Eu167 O209 2.432 . S
Eu167 O210 2.274 1_565 S
Eu167 C231 2.787 . S
N168 C164 1.351 . S
N168 Eu167 2.562 . S
N168 C170 1.325 . S
C169 C163 1.404 . S
C169 C171 1.366 . S
C169 H177 0.930 . S
C170 N168 1.325 . S
C170 C171 1.416 . S
C170 H176 0.929 . S
C171 C169 1.366 . S
C171 C170 1.416 . S
C171 H173 0.930 . S
H172 C161 0.930 . S
H173 C171 0.930 . S
H174 C189 0.930 . S
H175 C196 0.930 . S
H176 C170 0.929 . S
H177 C169 0.930 . S
H178 C192 0.929 . S
H179 C159 0.931 . S
H180 C165 0.931 . S
H181 C166 0.931 . S
H182 C187 0.931 . S
H183 C162 0.929 . S
H184 C195 0.930 . S
N185 Eu156 2.600 . S
N185 C186 1.365 . S
N185 C189 1.319 . S
C186 N185 1.365 . S
C186 C188 1.405 . S
C186 C194 1.448 . S
C187 H182 0.931 . S
C187 C189 1.397 . S
C187 C190 1.367 . S
C188 C186 1.405 . S
C188 C190 1.403 . S
C188 C221 1.439 . S
C189 H174 0.930 . S
C189 N185 1.319 . S
C189 C187 1.397 . S
C190 C187 1.367 . S
C190 C188 1.403 . S
C190 H197 0.929 . S
N191 Eu156 2.562 . S
N191 C192 1.325 . S
N191 C194 1.351 . S
C192 H178 0.929 . S
C192 N191 1.325 . S
C192 C196 1.416 . S
C193 C194 1.430 . S
C193 C195 1.404 . S
C193 C222 1.387 . S
C194 C186 1.448 . S
C194 N191 1.351 . S
C194 C193 1.430 . S
C195 H184 0.930 . S
C195 C193 1.404 . S
C195 C196 1.366 . S
C196 H175 0.930 . S
C196 C192 1.416 . S
C196 C195 1.366 . S
H197 C190 0.929 . S
H198 C221 0.931 . S
H199 C222 0.931 . S
O200 Eu156 2.462 . S
O200 C220 1.252 . S
O201 Eu156 2.373 . S
O201 C212 1.249 . S
O202 Eu167 2.335 1_545 S
O202 C212 1.264 . S
O203 Eu156 2.432 . S
O203 C220 1.268 . S
O204 Eu156 2.291 . S
O204 C219 1.255 1_545 S
O205 Eu167 2.372 . S
O205 C219 1.257 . S
O206 Eu167 2.462 . S
O206 C231 1.252 . S
O207 Eu167 2.373 . S
O207 C223 1.249 . S
O208 Eu156 2.335 1_565 S
O208 C223 1.264 . S
O209 Eu167 2.432 . S
O209 C231 1.268 . S
O210 Eu167 2.274 1_545 S
O210 C230 1.281 . S
O211 Eu156 2.372 . S
O211 C230 1.257 . S
C212 O201 1.249 . S
C212 O202 1.264 . S
C213 C216 1.382 1_556 S
C213 C218 1.390 . S
C213 C220 1.506 . S
C214 C215 1.398 1_556 S
C214 C218 1.392 . S
C215 C214 1.398 1_554 S
C215 C217 1.372 . S
C215 H232 0.931 . S
C216 C213 1.382 1_554 S
C216 C217 1.390 . S
C216 H233 0.931 . S
C217 C215 1.372 . S
C217 C216 1.390 . S
C217 H234 0.929 . S
C218 C213 1.390 . S
C218 C214 1.392 . S
C218 H235 0.930 . S
C219 O204 1.255 1_565 S
C219 O205 1.257 . S
C220 Eu156 2.787 . S
C220 O200 1.252 . S
C220 O203 1.268 . S
C220 C213 1.506 . S
C221 C188 1.439 . S
C221 H198 0.931 . S
C221 C222 1.374 . S
C222 C193 1.387 . S
C222 H199 0.931 . S
C222 C221 1.374 . S
C223 O207 1.249 . S
C223 O208 1.264 . S
C224 C227 1.382 . S
C224 C228 1.390 . S
C224 C231 1.506 . S
C225 C226 1.398 . S
C225 C228 1.392 . S
C226 C225 1.398 . S
C226 C229 1.372 . S
C226 H236 0.931 . S
C227 C224 1.382 . S
C227 C229 1.390 . S
C227 H237 0.931 . S
C228 C224 1.390 . S
C228 C225 1.392 . S
C228 H238 0.938 . S
C229 C226 1.372 . S
C229 C227 1.390 . S
C229 H239 0.929 . S
C230 O210 1.281 . S
C230 O211 1.257 . S
C231 Eu167 2.787 . S
C231 O206 1.252 . S
C231 O209 1.268 . S
C231 C224 1.506 . S
H232 C215 0.931 . S
H233 C216 0.931 . S
H234 C217 0.929 . S
H235 C218 0.930 . S
H236 C226 0.931 . S
H237 C227 0.931 . S
H238 C228 0.938 . S
H239 C229 0.929 . S
Eu240 N269 2.600 . S
Eu240 N275 2.562 . S
Eu240 O284 2.462 . S
Eu240 O285 2.373 . S
Eu240 O287 2.432 . S
Eu240 O288 2.291 . S
Eu240 O292 2.335 . S
Eu240 O295 2.372 . S
Eu240 C304 2.787 . S
C241 N242 1.365 . S
C241 C244 1.405 . S
C241 C248 1.448 . S
N242 C241 1.365 . S
N242 C245 1.319 . S
N242 Eu251 2.600 . S
C243 C245 1.397 . S
C243 C246 1.367 . S
C243 H263 0.931 . S
C244 C241 1.405 . S
C244 C246 1.403 . S
C244 C250 1.439 . S
C245 N242 1.319 . S
C245 C243 1.397 . S
C245 H256 0.930 . S
C246 C243 1.367 . S
C246 C244 1.403 . S
C246 H267 0.929 . S
C247 C248 1.430 . S
C247 C249 1.387 1_556 S
C247 C253 1.404 1_556 S
C248 C241 1.448 . S
C248 C247 1.430 . S
C248 N252 1.351 . S
C249 C247 1.387 1_554 S
C249 C250 1.374 1_554 S
C249 H264 0.931 . S
C250 C244 1.439 . S
C250 C249 1.374 1_556 S
C250 H265 0.931 . S
Eu251 N242 2.600 . S
Eu251 N252 2.562 . S
Eu251 O286 2.335 . S
Eu251 O289 2.372 . S
Eu251 O290 2.462 . S
Eu251 O291 2.373 . S
Eu251 O293 2.432 . S
Eu251 O294 2.291 . S
Eu251 C315 2.787 . S
N252 C248 1.351 . S
N252 Eu251 2.562 . S
N252 C254 1.325 . S
C253 C247 1.404 1_554 S
C253 C255 1.366 . S
C253 H261 0.930 . S
C254 N252 1.325 . S
C254 C255 1.416 1_556 S
C254 H260 0.929 . S
C255 C253 1.366 . S
C255 C254 1.416 1_554 S
C255 H257 0.930 . S
H256 C245 0.930 . S
H257 C255 0.930 . S
H258 C273 0.930 . S
H259 C280 0.930 . S
H260 C254 0.929 . S
H261 C253 0.930 . S
H262 C276 0.929 . S
H263 C243 0.931 . S
H264 C249 0.931 . S
H265 C250 0.931 . S
H266 C271 0.931 . S
H267 C246 0.929 . S
H268 C279 0.930 . S
N269 Eu240 2.600 . S
N269 C270 1.365 . S
N269 C273 1.319 . S
C270 N269 1.365 . S
C270 C272 1.405 . S
C270 C278 1.448 . S
C271 H266 0.931 . S
C271 C273 1.397 . S
C271 C274 1.367 . S
C272 C270 1.405 . S
C272 C274 1.403 . S
C272 C305 1.439 . S
C273 H258 0.930 . S
C273 N269 1.319 . S
C273 C271 1.397 . S
C274 C271 1.367 . S
C274 C272 1.403 . S
C274 H281 0.929 . S
N275 Eu240 2.562 . S
N275 C276 1.325 . S
N275 C278 1.351 . S
C276 H262 0.929 . S
C276 N275 1.325 . S
C276 C280 1.416 . S
C277 C278 1.430 . S
C277 C279 1.404 . S
C277 C306 1.387 . S
C278 C270 1.448 . S
C278 N275 1.351 . S
C278 C277 1.430 . S
C279 H268 0.930 . S
C279 C277 1.404 . S
C279 C280 1.366 . S
C280 H259 0.930 . S
C280 C276 1.416 . S
C280 C279 1.366 . S
H281 C274 0.929 . S
H282 C305 0.931 . S
H283 C306 0.931 . S
O284 Eu240 2.462 . S
O284 C304 1.252 . S
O285 Eu240 2.373 . S
O285 C296 1.249 . S
O286 Eu251 2.335 . S
O286 C296 1.264 . S
O287 Eu240 2.432 . S
O287 C304 1.268 . S
O288 Eu240 2.291 . S
O288 C303 1.255 . S
O289 Eu251 2.372 . S
O289 C303 1.257 . S
O290 Eu251 2.462 . S
O290 C315 1.252 . S
O291 Eu251 2.373 . S
O291 C307 1.249 . S
O292 Eu240 2.335 . S
O292 C307 1.264 . S
O293 Eu251 2.432 . S
O293 C315 1.268 . S
O294 Eu251 2.291 . S
O294 C314 1.255 . S
O295 Eu240 2.372 . S
O295 C314 1.257 . S
C296 O285 1.249 . S
C296 O286 1.264 . S
C297 C300 1.382 . S
C297 C302 1.390 . S
C297 C304 1.506 . S
C298 C299 1.398 . S
C298 C302 1.392 . S
C299 C298 1.398 . S
C299 C301 1.372 . S
C299 H316 0.931 . S
C300 C297 1.382 . S
C300 C301 1.390 . S
C300 H317 0.931 . S
C301 C299 1.372 . S
C301 C300 1.390 . S
C301 H318 0.929 . S
C302 C297 1.390 . S
C302 C298 1.392 . S
C302 H319 0.930 . S
C303 O288 1.255 . S
C303 O289 1.257 . S
C304 Eu240 2.787 . S
C304 O284 1.252 . S
C304 O287 1.268 . S
C304 C297 1.506 . S
C305 C272 1.439 . S
C305 H282 0.931 . S
C305 C306 1.374 . S
C306 C277 1.387 . S
C306 H283 0.931 . S
C306 C305 1.374 . S
C307 O291 1.249 . S
C307 O292 1.264 . S
C308 C311 1.382 . S
C308 C312 1.390 . S
C308 C315 1.506 . S
C309 C310 1.398 . S
C309 C312 1.392 . S
C310 C309 1.398 . S
C310 C313 1.372 . S
C310 H320 0.931 . S
C311 C308 1.382 . S
C311 C313 1.390 . S
C311 H321 0.931 . S
C312 C308 1.390 . S
C312 C309 1.392 . S
C312 H322 0.930 . S
C313 C310 1.372 . S
C313 C311 1.390 . S
C313 H323 0.929 . S
C314 O294 1.255 . S
C314 O295 1.257 . S
C315 Eu251 2.787 . S
C315 O290 1.252 . S
C315 O293 1.268 . S
C315 C308 1.506 . S
H316 C299 0.931 . S
H317 C300 0.931 . S
H318 C301 0.929 . S
H319 C302 0.930 . S
H320 C310 0.931 . S
H321 C311 0.931 . S
H322 C312 0.930 . S
H323 C313 0.929 . S
Eu324 N353 2.600 . S
Eu324 N359 2.562 . S
Eu324 O368 2.462 . S
Eu324 O369 2.373 1_455 S
Eu324 O371 2.432 . S
Eu324 O372 2.291 . S
Eu324 O376 2.335 . S
Eu324 O379 2.372 . S
Eu324 C388 2.787 . S
C325 N326 1.365 1_455 S
C325 C328 1.405 . S
C325 C332 1.448 . S
N326 C325 1.365 1_655 S
N326 C329 1.319 . S
N326 Eu335 2.600 . S
C327 C329 1.397 1_455 S
C327 C330 1.367 . S
C327 H347 0.931 . S
C328 C325 1.405 . S
C328 C330 1.403 . S
C328 C334 1.439 . S
C329 N326 1.319 . S
C329 C327 1.397 1_655 S
C329 H340 0.930 . S
C330 C327 1.367 . S
C330 C328 1.403 . S
C330 H351 0.929 . S
C331 C332 1.430 . S
C331 C333 1.387 1_556 S
C331 C337 1.404 1_556 S
C332 C325 1.448 . S
C332 C331 1.430 . S
C332 N336 1.351 . S
C333 C331 1.387 1_554 S
C333 C334 1.374 1_554 S
C333 H348 0.931 . S
C334 C328 1.439 . S
C334 C333 1.374 1_556 S
C334 H349 0.931 . S
Eu335 N326 2.600 . S
Eu335 N336 2.562 1_655 S
Eu335 O370 2.335 . S
Eu335 O373 2.372 . S
Eu335 O374 2.462 . S
Eu335 O375 2.373 1_655 S
Eu335 O377 2.432 . S
Eu335 O378 2.291 . S
Eu335 C399 2.787 . S
N336 C332 1.351 . S
N336 Eu335 2.562 1_455 S
N336 C338 1.325 . S
C337 C331 1.404 1_554 S
C337 C339 1.366 . S
C337 H345 0.930 . S
C338 N336 1.325 . S
C338 C339 1.416 1_556 S
C338 H344 0.931 1_455 S
C339 C337 1.366 . S
C339 C338 1.416 1_554 S
C339 H341 0.930 . S
H340 C329 0.930 . S
H341 C339 0.930 . S
H342 C357 0.930 . S
H343 C364 0.930 . S
H344 C338 0.931 1_655 S
H345 C337 0.930 . S
H346 C360 0.929 . S
H347 C327 0.931 . S
H348 C333 0.931 . S
H349 C334 0.931 . S
H350 C355 0.931 . S
H351 C330 0.929 . S
H352 C363 0.930 . S
N353 Eu324 2.600 . S
N353 C354 1.349 1_455 S
N353 C357 1.319 . S
C354 N353 1.349 1_655 S
C354 C356 1.418 . S
C354 C362 1.451 . S
C355 H350 0.931 . S
C355 C357 1.397 . S
C355 C358 1.367 1_455 S
C356 C354 1.418 . S
C356 C358 1.403 . S
C356 C389 1.439 . S
C357 H342 0.930 . S
C357 N353 1.319 . S
C357 C355 1.397 . S
C358 C355 1.367 1_655 S
C358 C356 1.403 . S
C358 H365 0.929 . S
N359 Eu324 2.562 . S
N359 C360 1.325 . S
N359 C362 1.351 1_455 S
C360 H346 0.929 . S
C360 N359 1.325 . S
C360 C364 1.416 1_455 S
C361 C362 1.430 . S
C361 C363 1.404 . S
C361 C390 1.387 . S
C362 C354 1.451 . S
C362 N359 1.351 1_655 S
C362 C361 1.430 . S
C363 H352 0.930 . S
C363 C361 1.404 . S
C363 C364 1.366 . S
C364 H343 0.930 . S
C364 C360 1.416 1_655 S
C364 C363 1.366 . S
H365 C358 0.929 . S
H366 C389 0.931 . S
H367 C390 0.931 . S
O368 Eu324 2.462 . S
O368 C388 1.252 . S
O369 Eu324 2.373 1_655 S
O369 C380 1.249 . S
O370 Eu335 2.335 . S
O370 C380 1.264 . S
O371 Eu324 2.432 . S
O371 C388 1.268 . S
O372 Eu324 2.291 . S
O372 C387 1.255 . S
O373 Eu335 2.372 . S
O373 C387 1.257 1_655 S
O374 Eu335 2.462 . S
O374 C399 1.252 . S
O375 Eu335 2.373 1_455 S
O375 C391 1.249 . S
O376 Eu324 2.335 . S
O376 C391 1.264 . S
O377 Eu335 2.432 . S
O377 C399 1.268 . S
O378 Eu335 2.291 . S
O378 C398 1.255 1_655 S
O379 Eu324 2.372 . S
O379 C398 1.257 . S
C380 O369 1.249 . S
C380 O370 1.264 . S
C381 C384 1.382 . S
C381 C386 1.390 . S
C381 C388 1.506 . S
C382 C383 1.398 . S
C382 C386 1.392 . S
C383 C382 1.398 . S
C383 C385 1.372 . S
C383 H400 0.931 . S
C384 C381 1.382 . S
C384 C385 1.390 . S
C384 H401 0.931 . S
C385 C383 1.372 . S
C385 C384 1.390 . S
C385 H402 0.929 . S
C386 C381 1.390 . S
C386 C382 1.392 . S
C386 H403 0.930 . S
C387 O372 1.255 . S
C387 O373 1.257 1_455 S
C388 Eu324 2.787 . S
C388 O368 1.252 . S
C388 O371 1.268 . S
C388 C381 1.506 . S
C389 C356 1.439 . S
C389 H366 0.931 . S
C389 C390 1.374 . S
C390 C361 1.387 . S
C390 H367 0.931 . S
C390 C389 1.374 . S
C391 O375 1.249 . S
C391 O376 1.264 . S
C392 C395 1.382 . S
C392 C396 1.390 . S
C392 C399 1.506 . S
C393 C394 1.398 . S
C393 C396 1.392 . S
C394 C393 1.398 . S
C394 C397 1.372 . S
C394 H404 0.931 . S
C395 C392 1.382 . S
C395 C397 1.390 . S
C395 H405 0.931 . S
C396 C392 1.390 . S
C396 C393 1.392 . S
C396 H406 0.930 . S
C397 C394 1.372 . S
C397 C395 1.390 . S
C397 H407 0.929 . S
C398 O378 1.255 1_455 S
C398 O379 1.257 . S
C399 Eu335 2.787 . S
C399 O374 1.252 . S
C399 O377 1.268 . S
C399 C392 1.506 . S
H400 C383 0.931 . S
H401 C384 0.931 . S
H402 C385 0.929 . S
H403 C386 0.930 . S
H404 C394 0.931 . S
H405 C395 0.931 . S
H406 C396 0.930 . S
H407 C397 0.929 . S
H408 C416 0.950 1_565 S
H409 C421 0.950 . S
H410 C418 0.950 1_565 S
H411 C420 0.950 . S
H412 C422 0.950 . S
H413 C424 0.950 . S
H414 C426 0.936 1_565 S
H415 C427 0.950 . S
C416 H408 0.950 1_545 S
C416 C417 1.386 . S
C416 C418 1.391 . S
C417 C416 1.386 . S
C417 C421 1.393 . S
C418 H410 0.950 1_545 S
C418 C416 1.391 . S
C418 C419 1.400 . S
C419 C418 1.400 . S
C419 C420 1.398 . S
C419 C425 1.491 . S
C420 H411 0.950 . S
C420 C419 1.398 . S
C420 C421 1.391 . S
C421 H409 0.950 . S
C421 C417 1.393 . S
C421 C420 1.391 . S
C422 H412 0.950 . S
C422 C423 1.386 . S
C422 C424 1.391 . S
C423 C422 1.386 . S
C423 C427 1.393 1_545 S
C424 H413 0.950 . S
C424 C422 1.391 . S
C424 C425 1.400 . S
C425 C419 1.491 . S
C425 C424 1.400 . S
C425 C426 1.415 . S
C426 H414 0.936 1_545 S
C426 C425 1.415 . S
C426 C427 1.388 1_545 S
C427 H415 0.950 . S
C427 C423 1.393 1_565 S
C427 C426 1.388 1_565 S
H428 C436 0.950 . S
H429 C441 0.950 . S
H430 C438 0.950 . S
H431 C440 0.950 . S
H432 C442 0.950 . S
H433 C444 0.950 . S
H434 C446 0.950 . S
H435 C447 0.950 . S
C436 H428 0.950 . S
C436 C437 1.386 . S
C436 C438 1.391 . S
C437 C436 1.386 . S
C437 C441 1.393 . S
C438 H430 0.950 . S
C438 C436 1.391 . S
C438 C439 1.400 . S
C439 C438 1.400 . S
C439 C440 1.398 . S
C439 C445 1.491 . S
C440 H431 0.950 . S
C440 C439 1.398 . S
C440 C441 1.391 . S
C441 H429 0.950 . S
C441 C437 1.393 . S
C441 C440 1.391 . S
C442 H432 0.950 . S
C442 C443 1.386 . S
C442 C444 1.391 . S
C443 C442 1.386 . S
C443 C447 1.393 . S
C444 H433 0.950 . S
C444 C442 1.391 . S
C444 C445 1.400 . S
C445 C439 1.491 . S
C445 C444 1.400 . S
C445 C446 1.398 . S
C446 H434 0.950 . S
C446 C445 1.398 . S
C446 C447 1.391 . S
C447 H435 0.950 . S
C447 C443 1.393 . S
C447 C446 1.391 . S
H448 C456 0.950 . S
H449 C461 0.950 . S
H450 C458 0.950 . S
H451 C460 0.950 . S
H452 C462 0.950 . S
H453 C464 0.950 . S
H454 C466 0.950 . S
H455 C467 0.950 . S
C456 H448 0.950 . S
C456 C457 1.386 . S
C456 C458 1.391 . S
C457 C456 1.386 . S
C457 C461 1.393 . S
C458 H450 0.950 . S
C458 C456 1.391 . S
C458 C459 1.400 . S
C459 C458 1.400 . S
C459 C460 1.398 . S
C459 C465 1.491 . S
C460 H451 0.950 . S
C460 C459 1.398 . S
C460 C461 1.391 . S
C461 H449 0.950 . S
C461 C457 1.393 . S
C461 C460 1.391 . S
C462 H452 0.950 . S
C462 C463 1.386 . S
C462 C464 1.391 . S
C463 C462 1.386 . S
C463 C467 1.393 . S
C464 H453 0.950 . S
C464 C462 1.391 . S
C464 C465 1.400 . S
C465 C459 1.491 . S
C465 C464 1.400 . S
C465 C466 1.398 . S
C466 H454 0.950 . S
C466 C465 1.398 . S
C466 C467 1.391 . S
C467 H455 0.950 . S
C467 C463 1.393 . S
C467 C466 1.391 . S
H468 C476 0.950 . S
H469 C481 0.950 1_655 S
H470 C478 0.950 . S
H471 C480 0.950 1_655 S
H472 C482 0.950 . S
H473 C484 0.968 . S
H474 C486 0.950 . S
H475 C487 0.950 . S
C476 H468 0.950 . S
C476 C477 1.386 . S
C476 C478 1.391 . S
C477 C476 1.386 . S
C477 C481 1.393 . S
C478 H470 0.950 . S
C478 C476 1.391 . S
C478 C479 1.400 . S
C479 C478 1.400 . S
C479 C480 1.398 . S
C479 C485 1.491 . S
C480 H471 0.950 1_455 S
C480 C479 1.398 . S
C480 C481 1.391 . S
C481 H469 0.950 1_455 S
C481 C477 1.393 . S
C481 C480 1.391 . S
C482 H472 0.950 . S
C482 C483 1.386 1_655 S
C482 C484 1.395 . S
C483 C482 1.386 1_455 S
C483 C487 1.393 . S
C484 H473 0.968 . S
C484 C482 1.395 . S
C484 C485 1.379 1_655 S
C485 C479 1.491 . S
C485 C484 1.379 1_455 S
C485 C486 1.398 . S
C486 H474 0.950 . S
C486 C485 1.398 . S
C486 C487 1.391 . S
C487 H475 0.950 . S
C487 C483 1.393 . S
C487 C486 1.391 . S
H488 C496 0.951 . S
H489 C501 0.950 . S
H490 C498 0.950 1_545 S
H491 C500 0.950 . S
H492 C502 0.950 . S
H493 C504 0.950 1_554 S
H494 C506 0.950 . S
H495 C507 0.950 . S
C496 H488 0.951 . S
C496 C497 1.386 . S
C496 C498 1.391 . S
C497 C496 1.386 . S
C497 C501 1.393 . S
C498 H490 0.950 1_565 S
C498 C496 1.391 . S
C498 C499 1.400 . S
C499 C498 1.400 . S
C499 C500 1.398 . S
C499 C505 1.491 1_554 S
C500 H491 0.950 . S
C500 C499 1.398 . S
C500 C501 1.391 . S
C501 H489 0.950 . S
C501 C497 1.393 . S
C501 C500 1.391 . S
C502 H492 0.950 . S
C502 C503 1.386 . S
C502 C504 1.391 . S
C503 C502 1.386 . S
C503 C507 1.393 1_565 S
C504 H493 0.950 1_556 S
C504 C502 1.391 . S
C504 C505 1.400 . S
C505 C499 1.491 1_556 S
C505 C504 1.400 . S
C505 C506 1.398 1_565 S
C506 H494 0.950 . S
C506 C505 1.398 1_545 S
C506 C507 1.391 . S
C507 H495 0.950 . S
C507 C503 1.393 1_545 S
C507 C506 1.391 . S
H508 C516 0.950 . S
H509 C521 0.950 . S
H510 C518 0.950 . S
H511 C520 0.950 . S
H512 C522 0.950 . S
H513 C524 0.950 . S
H514 C526 0.950 1_554 S
H515 C527 0.950 . S
C516 H508 0.950 . S
C516 C517 1.386 . S
C516 C518 1.391 . S
C517 C516 1.386 . S
C517 C521 1.393 . S
C518 H510 0.950 . S
C518 C516 1.391 . S
C518 C519 1.400 . S
C519 C518 1.400 . S
C519 C520 1.398 . S
C519 C525 1.491 1_554 S
C520 H511 0.950 . S
C520 C519 1.398 . S
C520 C521 1.391 . S
C521 H509 0.950 . S
C521 C517 1.393 . S
C521 C520 1.391 . S
C522 H512 0.950 . S
C522 C523 1.386 . S
C522 C524 1.391 . S
C523 C522 1.386 . S
C523 C527 1.393 . S
C524 H513 0.950 . S
C524 C522 1.391 . S
C524 C525 1.400 . S
C525 C519 1.491 1_556 S
C525 C524 1.400 . S
C525 C526 1.398 . S
C526 H514 0.950 1_556 S
C526 C525 1.398 . S
C526 C527 1.391 . S
C527 H515 0.950 . S
C527 C523 1.393 . S
C527 C526 1.391 . S
H528 C536 0.950 . S
H529 C541 0.950 . S
H530 C538 0.950 . S
H531 C540 0.950 . S
H532 C542 0.950 . S
H533 C544 0.950 . S
H534 C546 0.950 . S
H535 C547 0.950 . S
C536 H528 0.950 . S
C536 C537 1.386 . S
C536 C538 1.391 . S
C537 C536 1.386 . S
C537 C541 1.393 . S
C538 H530 0.950 . S
C538 C536 1.391 . S
C538 C539 1.400 . S
C539 C538 1.400 . S
C539 C540 1.398 . S
C539 C545 1.491 1_554 S
C540 H531 0.950 . S
C540 C539 1.398 . S
C540 C541 1.391 . S
C541 H529 0.950 . S
C541 C537 1.393 . S
C541 C540 1.391 . S
C542 H532 0.950 . S
C542 C543 1.386 . S
C542 C544 1.391 . S
C543 C542 1.386 . S
C543 C547 1.393 . S
C544 H533 0.950 . S
C544 C542 1.391 . S
C544 C545 1.400 . S
C545 C539 1.491 1_556 S
C545 C544 1.400 . S
C545 C546 1.398 . S
C546 H534 0.950 . S
C546 C545 1.398 . S
C546 C547 1.391 . S
C547 H535 0.950 . S
C547 C543 1.393 . S
C547 C546 1.391 . S
H548 C556 0.950 . S
H549 C561 0.950 1_455 S
H550 C558 0.950 . S
H551 C560 0.971 . S
H552 C562 0.950 . S
H553 C564 0.950 . S
H554 C566 0.950 1_554 S
H555 C567 0.950 . S
C556 H548 0.950 . S
C556 C557 1.386 . S
C556 C558 1.391 . S
C557 C556 1.386 . S
C557 C561 1.393 . S
C558 H550 0.950 . S
C558 C556 1.391 . S
C558 C559 1.400 . S
C559 C558 1.400 . S
C559 C560 1.382 1_655 S
C559 C565 1.491 1_554 S
C560 H551 0.971 . S
C560 C559 1.382 1_455 S
C560 C561 1.388 1_455 S
C561 H549 0.950 1_655 S
C561 C557 1.393 . S
C561 C560 1.388 1_655 S
C562 H552 0.950 . S
C562 C563 1.386 1_455 S
C562 C564 1.391 . S
C563 C562 1.386 1_655 S
C563 C567 1.393 . S
C564 H553 0.950 . S
C564 C562 1.391 . S
C564 C565 1.400 1_455 S
C565 C559 1.491 1_556 S
C565 C564 1.400 1_655 S
C565 C566 1.398 . S
C566 H554 0.950 1_556 S
C566 C565 1.398 . S
C566 C567 1.391 . S
C567 H555 0.950 . S
C567 C563 1.393 . S
C567 C566 1.391 . S
H568 C576 0.950 . S
H569 C581 0.950 1_655 S
H570 C578 0.950 . S
H571 C580 0.938 1_655 S
H572 C582 0.950 . S
H573 C584 0.950 . S
H574 C586 0.950 . S
H575 C587 0.950 . S
C576 H568 0.950 . S
C576 C577 1.386 . S
C576 C578 1.391 . S
C577 C576 1.386 . S
C577 C581 1.393 . S
C578 H570 0.950 . S
C578 C576 1.391 . S
C578 C579 1.400 . S
C579 C578 1.400 . S
C579 C580 1.407 . S
C579 C585 1.491 . S
C580 H571 0.938 1_455 S
C580 C579 1.407 . S
C580 C581 1.394 . S
C581 H569 0.950 1_455 S
C581 C577 1.393 . S
C581 C580 1.394 . S
C582 H572 0.950 . S
C582 C583 1.386 . S
C582 C584 1.391 . S
C583 C582 1.386 . S
C583 C587 1.393 1_655 S
C584 H573 0.950 . S
C584 C582 1.391 . S
C584 C585 1.400 1_655 S
C585 C579 1.491 . S
C585 C584 1.400 1_455 S
C585 C586 1.398 . S
C586 H574 0.950 . S
C586 C585 1.398 . S
C586 C587 1.391 . S
C587 H575 0.950 . S
C587 C583 1.393 1_455 S
C587 C586 1.391 . S
H588 C596 0.950 1_565 S
H589 C601 0.950 . S
H590 C598 0.950 1_565 S
H591 C600 0.950 . S
H592 C602 0.950 . S
H593 C604 0.950 . S
H594 C606 0.950 . S
H595 C607 0.950 . S
C596 H588 0.950 1_545 S
C596 C597 1.386 . S
C596 C598 1.391 . S
C597 C596 1.386 . S
C597 C601 1.393 . S
C598 H590 0.950 1_545 S
C598 C596 1.391 . S
C598 C599 1.400 . S
C599 C598 1.400 . S
C599 C600 1.398 . S
C599 C605 1.491 . S
C600 H591 0.950 . S
C600 C599 1.398 . S
C600 C601 1.391 . S
C601 H589 0.950 . S
C601 C597 1.393 . S
C601 C600 1.391 . S
C602 H592 0.950 . S
C602 C603 1.386 1_545 S
C602 C604 1.391 . S
C603 C602 1.386 1_565 S
C603 C607 1.393 . S
C604 H593 0.950 . S
C604 C602 1.391 . S
C604 C605 1.400 . S
C605 C599 1.491 . S
C605 C604 1.400 . S
C605 C606 1.398 1_545 S
C606 H594 0.950 . S
C606 C605 1.398 1_565 S
C606 C607 1.391 . S
C607 H595 0.950 . S
C607 C603 1.393 . S
C607 C606 1.391 . S
H608 C616 0.950 . S
H609 C621 0.950 . S
H610 C618 0.950 . S
H611 C620 0.950 . S
H612 C622 0.950 . S
H613 C624 0.950 . S
H614 C626 0.950 . S
H615 C627 0.950 . S
C616 H608 0.950 . S
C616 C617 1.386 . S
C616 C618 1.391 . S
C617 C616 1.386 . S
C617 C621 1.393 . S
C618 H610 0.950 . S
C618 C616 1.391 . S
C618 C619 1.400 . S
C619 C618 1.400 . S
C619 C620 1.398 . S
C619 C625 1.491 . S
C620 H611 0.950 . S
C620 C619 1.398 . S
C620 C621 1.391 . S
C621 H609 0.950 . S
C621 C617 1.393 . S
C621 C620 1.391 . S
C622 H612 0.950 . S
C622 C623 1.386 . S
C622 C624 1.391 . S
C623 C622 1.386 . S
C623 C627 1.393 . S
C624 H613 0.950 . S
C624 C622 1.391 . S
C624 C625 1.400 . S
C625 C619 1.491 . S
C625 C624 1.400 . S
C625 C626 1.398 . S
C626 H614 0.950 . S
C626 C625 1.398 . S
C626 C627 1.391 . S
C627 H615 0.950 . S
C627 C623 1.393 . S
C627 C626 1.391 . S
H628 C636 0.950 . S
H629 C641 0.950 . S
H630 C638 0.950 . S
H631 C640 0.950 . S
H632 C642 0.950 . S
H633 C644 0.950 . S
H634 C646 0.950 . S
H635 C647 0.950 . S
C636 H628 0.950 . S
C636 C637 1.386 . S
C636 C638 1.391 . S
C637 C636 1.386 . S
C637 C641 1.393 . S
C638 H630 0.950 . S
C638 C636 1.391 . S
C638 C639 1.400 . S
C639 C638 1.400 . S
C639 C640 1.398 . S
C639 C645 1.491 . S
C640 H631 0.950 . S
C640 C639 1.398 . S
C640 C641 1.391 . S
C641 H629 0.950 . S
C641 C637 1.393 . S
C641 C640 1.391 . S
C642 H632 0.950 . S
C642 C643 1.386 . S
C642 C644 1.391 . S
C643 C642 1.386 . S
C643 C647 1.393 . S
C644 H633 0.950 . S
C644 C642 1.391 . S
C644 C645 1.400 . S
C645 C639 1.491 . S
C645 C644 1.400 . S
C645 C646 1.398 . S
C646 H634 0.950 . S
C646 C645 1.398 . S
C646 C647 1.391 . S
C647 H635 0.950 . S
C647 C643 1.393 . S
C647 C646 1.391 . S
H648 C656 0.950 1_455 S
H649 C661 0.950 . S
H650 C658 0.950 . S
H651 C660 0.950 . S
H652 C662 0.950 . S
H653 C664 0.950 . S
H654 C666 0.950 . S
H655 C667 0.950 . S
C656 H648 0.950 1_655 S
C656 C657 1.386 . S
C656 C658 1.391 1_655 S
C657 C656 1.386 . S
C657 C661 1.393 . S
C658 H650 0.950 . S
C658 C656 1.391 1_455 S
C658 C659 1.400 1_455 S
C659 C658 1.400 1_655 S
C659 C660 1.398 . S
C659 C665 1.484 1_655 S
C660 H651 0.950 . S
C660 C659 1.398 . S
C660 C661 1.391 . S
C661 H649 0.950 . S
C661 C657 1.393 . S
C661 C660 1.391 . S
C662 H652 0.950 . S
C662 C663 1.386 1_654 S
C662 C664 1.391 . S
C663 C662 1.386 1_456 S
C663 C667 1.393 . S
C664 H653 0.950 . S
C664 C662 1.391 . S
C664 C665 1.388 1_655 S
C665 C659 1.484 1_455 S
C665 C664 1.388 1_455 S
C665 C666 1.417 . S
C666 H654 0.950 . S
C666 C665 1.417 . S
C666 C667 1.391 1_554 S
C667 H655 0.950 . S
C667 C663 1.393 . S
C667 C666 1.391 1_556 S
H668 C676 0.950 . S
H669 C681 0.951 1_545 S
H670 C678 0.950 . S
H671 C680 0.950 . S
H672 C682 0.950 . S
H673 C684 0.950 . S
H674 C686 0.950 . S
H675 C687 0.950 . S
C676 H668 0.950 . S
C676 C677 1.386 . S
C676 C678 1.391 . S
C677 C676 1.386 . S
C677 C681 1.391 . S
C678 H670 0.950 . S
C678 C676 1.391 . S
C678 C679 1.400 . S
C679 C678 1.400 . S
C679 C680 1.398 1_565 S
C679 C685 1.491 1_565 S
C680 H671 0.950 . S
C680 C679 1.398 1_545 S
C680 C681 1.391 1_545 S
C681 H669 0.951 1_565 S
C681 C677 1.391 . S
C681 C680 1.391 1_565 S
C682 H672 0.950 . S
C682 C683 1.386 1_554 S
C682 C684 1.391 . S
C683 C682 1.386 1_556 S
C683 C687 1.393 1_545 S
C684 H673 0.950 . S
C684 C682 1.391 . S
C684 C685 1.400 . S
C685 C679 1.491 1_545 S
C685 C684 1.400 . S
C685 C686 1.398 1_545 S
C686 H674 0.950 . S
C686 C685 1.398 1_565 S
C686 C687 1.391 1_554 S
C687 H675 0.950 . S
C687 C683 1.393 1_565 S
C687 C686 1.391 1_556 S
H688 C696 0.950 . S
H689 C701 0.950 . S
H690 C698 0.950 . S
H691 C700 0.950 . S
H692 C702 0.950 . S
H693 C704 0.950 . S
H694 C706 0.950 . S
H695 C707 0.950 . S
C696 H688 0.950 . S
C696 C697 1.386 . S
C696 C698 1.391 . S
C697 C696 1.386 . S
C697 C701 1.393 . S
C698 H690 0.950 . S
C698 C696 1.391 . S
C698 C699 1.400 . S
C699 C698 1.400 . S
C699 C700 1.398 . S
C699 C705 1.491 . S
C700 H691 0.950 . S
C700 C699 1.398 . S
C700 C701 1.391 . S
C701 H689 0.950 . S
C701 C697 1.393 . S
C701 C700 1.391 . S
C702 H692 0.950 . S
C702 C703 1.386 1_554 S
C702 C704 1.391 . S
C703 C702 1.386 1_556 S
C703 C707 1.393 . S
C704 H693 0.950 . S
C704 C702 1.391 . S
C704 C705 1.400 . S
C705 C699 1.491 . S
C705 C704 1.400 . S
C705 C706 1.398 1_554 S
C706 H694 0.950 . S
C706 C705 1.398 1_556 S
C706 C707 1.391 . S
C707 H695 0.950 . S
C707 C703 1.393 . S
C707 C706 1.391 . S
H708 C716 0.950 . S
H709 C721 0.950 . S
H710 C718 0.950 . S
H711 C720 0.950 . S
H712 C722 0.950 . S
H713 C724 0.950 . S
H714 C726 0.950 . S
H715 C727 0.950 . S
C716 H708 0.950 . S
C716 C717 1.386 . S
C716 C718 1.391 . S
C717 C716 1.386 . S
C717 C721 1.393 . S
C718 H710 0.950 . S
C718 C716 1.391 . S
C718 C719 1.400 . S
C719 C718 1.400 . S
C719 C720 1.398 . S
C719 C725 1.491 . S
C720 H711 0.950 . S
C720 C719 1.398 . S
C720 C721 1.391 . S
C721 H709 0.950 . S
C721 C717 1.393 . S
C721 C720 1.391 . S
C722 H712 0.950 . S
C722 C723 1.386 . S
C722 C724 1.391 . S
C723 C722 1.386 . S
C723 C727 1.393 1_556 S
C724 H713 0.950 . S
C724 C722 1.391 . S
C724 C725 1.400 1_556 S
C725 C719 1.491 . S
C725 C724 1.400 1_554 S
C725 C726 1.398 . S
C726 H714 0.950 . S
C726 C725 1.398 . S
C726 C727 1.391 . S
C727 H715 0.950 . S
C727 C723 1.393 1_554 S
C727 C726 1.391 . S
H728 C736 0.950 . S
H729 C741 0.950 1_655 S
H730 C738 0.950 . S
H731 C740 0.950 1_655 S
H732 C742 0.978 . S
H733 C744 0.950 1_655 S
H734 C746 0.950 . S
H735 C747 0.950 . S
C736 H728 0.950 . S
C736 C737 1.386 . S
C736 C738 1.391 . S
C737 C736 1.386 . S
C737 C741 1.393 . S
C738 H730 0.950 . S
C738 C736 1.391 . S
C738 C739 1.400 . S
C739 C738 1.400 . S
C739 C740 1.398 . S
C739 C745 1.491 . S
C740 H731 0.950 1_455 S
C740 C739 1.398 . S
C740 C741 1.391 . S
C741 H729 0.950 1_455 S
C741 C737 1.393 . S
C741 C740 1.391 . S
C742 H732 0.978 . S
C742 C743 1.360 1_655 S
C742 C744 1.390 1_655 S
C743 C742 1.360 1_455 S
C743 C747 1.393 . S
C744 H733 0.950 1_455 S
C744 C742 1.390 1_455 S
C744 C745 1.400 . S
C745 C739 1.491 . S
C745 C744 1.400 . S
C745 C746 1.398 . S
C746 H734 0.950 . S
C746 C745 1.398 . S
C746 C747 1.391 . S
C747 H735 0.950 . S
C747 C743 1.393 . S
C747 C746 1.391 . S
H748 C756 0.950 . S
H749 C761 0.950 1_565 S
H750 C758 0.950 . S
H751 C760 0.950 1_565 S
H752 C762 0.950 1_565 S
H753 C764 0.950 1_565 S
H754 C766 0.950 . S
H755 C767 0.950 . S
C756 H748 0.950 . S
C756 C757 1.386 . S
C756 C758 1.391 . S
C757 C756 1.386 . S
C757 C761 1.393 . S
C758 H750 0.950 . S
C758 C756 1.391 . S
C758 C759 1.400 . S
C759 C758 1.400 . S
C759 C760 1.398 . S
C759 C765 1.491 . S
C760 H751 0.950 1_545 S
C760 C759 1.398 . S
C760 C761 1.391 . S
C761 H749 0.950 1_545 S
C761 C757 1.393 . S
C761 C760 1.391 . S
C762 H752 0.950 1_545 S
C762 C763 1.386 . S
C762 C764 1.391 . S
C763 C762 1.386 . S
C763 C767 1.393 . S
C764 H753 0.950 1_545 S
C764 C762 1.391 . S
C764 C765 1.400 . S
C765 C759 1.491 . S
C765 C764 1.400 . S
C765 C766 1.398 . S
C766 H754 0.950 . S
C766 C765 1.398 . S
C766 C767 1.391 . S
C767 H755 0.950 . S
C767 C763 1.393 . S
C767 C766 1.391 . S
H768 C776 0.950 1_554 S
H769 C781 0.950 . S
H770 C778 0.950 . S
H771 C780 0.950 . S
H772 C782 0.950 . S
H773 C784 0.950 . S
H774 C786 0.950 . S
H775 C787 0.950 . S
C776 H768 0.950 1_556 S
C776 C777 1.386 . S
C776 C778 1.391 . S
C777 C776 1.386 . S
C777 C781 1.393 . S
C778 H770 0.950 . S
C778 C776 1.391 . S
C778 C779 1.400 . S
C779 C778 1.400 . S
C779 C780 1.398 . S
C779 C785 1.491 . S
C780 H771 0.950 . S
C780 C779 1.398 . S
C780 C781 1.391 . S
C781 H769 0.950 . S
C781 C777 1.393 . S
C781 C780 1.391 . S
C782 H772 0.950 . S
C782 C783 1.386 . S
C782 C784 1.391 . S
C783 C782 1.386 . S
C783 C787 1.393 . S
C784 H773 0.950 . S
C784 C782 1.391 . S
C784 C785 1.400 . S
C785 C779 1.491 . S
C785 C784 1.400 . S
C785 C786 1.398 . S
C786 H774 0.950 . S
C786 C785 1.398 . S
C786 C787 1.391 . S
C787 H775 0.950 . S
C787 C783 1.393 . S
C787 C786 1.391 . S
H788 C796 0.950 . S
H789 C801 0.953 . S
H790 C798 0.950 . S
H791 C800 0.950 . S
H792 C802 0.950 . S
H793 C804 0.950 . S
H794 C806 0.950 . S
H795 C807 0.950 . S
C796 H788 0.950 . S
C796 C797 1.386 . S
C796 C798 1.391 . S
C797 C796 1.386 . S
C797 C801 1.393 . S
C798 H790 0.950 . S
C798 C796 1.391 . S
C798 C799 1.400 . S
C799 C798 1.400 . S
C799 C800 1.398 . S
C799 C805 1.491 . S
C800 H791 0.950 . S
C800 C799 1.398 . S
C800 C801 1.391 . S
C801 H789 0.953 . S
C801 C797 1.393 . S
C801 C800 1.391 . S
C802 H792 0.950 . S
C802 C803 1.386 . S
C802 C804 1.391 . S
C803 C802 1.386 . S
C803 C807 1.393 . S
C804 H793 0.950 . S
C804 C802 1.391 . S
C804 C805 1.400 . S
C805 C799 1.491 . S
C805 C804 1.400 . S
C805 C806 1.398 . S
C806 H794 0.950 . S
C806 C805 1.398 . S
C806 C807 1.391 . S
C807 H795 0.950 . S
C807 C803 1.393 . S
C807 C806 1.391 . S
H808 C816 0.950 . S
H809 C821 0.950 . S
H810 C818 0.950 . S
H811 C820 0.950 . S
H812 C822 0.950 . S
H813 C824 0.950 . S
H814 C826 0.950 . S
H815 C827 0.950 . S
C816 H808 0.950 . S
C816 C817 1.386 . S
C816 C818 1.391 . S
C817 C816 1.386 . S
C817 C821 1.393 . S
C818 H810 0.950 . S
C818 C816 1.391 . S
C818 C819 1.400 . S
C819 C818 1.400 . S
C819 C820 1.398 . S
C819 C825 1.491 . S
C820 H811 0.950 . S
C820 C819 1.398 . S
C820 C821 1.391 . S
C821 H809 0.950 . S
C821 C817 1.393 . S
C821 C820 1.391 . S
C822 H812 0.950 . S
C822 C823 1.386 . S
C822 C824 1.391 . S
C823 C822 1.386 . S
C823 C827 1.393 . S
C824 H813 0.950 . S
C824 C822 1.391 . S
C824 C825 1.400 . S
C825 C819 1.491 . S
C825 C824 1.400 . S
C825 C826 1.398 . S
C826 H814 0.950 . S
C826 C825 1.398 . S
C826 C827 1.391 . S
C827 H815 0.950 . S
C827 C823 1.393 . S
C827 C826 1.391 . S
H828 C836 0.950 . S
H829 C841 0.950 1_545 S
H830 C838 0.950 . S
H831 C840 0.949 . S
H832 C842 0.950 . S
H833 C844 0.950 . S
H834 C846 0.950 . S
H835 C847 0.950 . S
C836 H828 0.950 . S
C836 C837 1.386 . S
C836 C838 1.391 . S
C837 C836 1.386 . S
C837 C841 1.393 . S
C838 H830 0.950 . S
C838 C836 1.391 . S
C838 C839 1.400 . S
C839 C838 1.400 . S
C839 C840 1.399 1_565 S
C839 C845 1.491 . S
C840 H831 0.949 . S
C840 C839 1.399 1_545 S
C840 C841 1.391 1_545 S
C841 H829 0.950 1_565 S
C841 C837 1.393 . S
C841 C840 1.391 1_565 S
C842 H832 0.950 . S
C842 C843 1.386 1_545 S
C842 C844 1.391 . S
C843 C842 1.386 1_565 S
C843 C847 1.393 . S
C844 H833 0.950 . S
C844 C842 1.391 . S
C844 C845 1.400 1_545 S
C845 C839 1.491 . S
C845 C844 1.400 1_565 S
C845 C846 1.398 . S
C846 H834 0.950 . S
C846 C845 1.398 . S
C846 C847 1.391 . S
C847 H835 0.950 . S
C847 C843 1.393 . S
C847 C846 1.391 . S
H848 C856 0.950 . S
H849 C861 0.950 . S
H850 C858 0.950 . S
H851 C860 0.950 . S
H852 C862 0.950 . S
H853 C864 0.950 . S
H854 C866 0.950 . S
H855 C867 0.950 . S
C856 H848 0.950 . S
C856 C857 1.386 . S
C856 C858 1.391 . S
C857 C856 1.386 . S
C857 C861 1.393 . S
C858 H850 0.950 . S
C858 C856 1.391 . S
C858 C859 1.400 . S
C859 C858 1.400 . S
C859 C860 1.398 . S
C859 C865 1.491 . S
C860 H851 0.950 . S
C860 C859 1.398 . S
C860 C861 1.391 . S
C861 H849 0.950 . S
C861 C857 1.393 . S
C861 C860 1.391 . S
C862 H852 0.950 . S
C862 C863 1.386 . S
C862 C864 1.391 . S
C863 C862 1.386 . S
C863 C867 1.393 . S
C864 H853 0.950 . S
C864 C862 1.391 . S
C864 C865 1.400 . S
C865 C859 1.491 . S
C865 C864 1.400 . S
C865 C866 1.398 . S
C866 H854 0.950 . S
C866 C865 1.398 . S
C866 C867 1.391 . S
C867 H855 0.950 . S
C867 C863 1.393 . S
C867 C866 1.391 . S
H868 C876 0.950 . S
H869 C881 0.950 . S
H870 C878 0.950 . S
H871 C880 0.950 . S
H872 C882 0.950 . S
H873 C884 0.950 . S
H874 C886 0.950 . S
H875 C887 0.950 . S
C876 H868 0.950 . S
C876 C877 1.386 . S
C876 C878 1.391 . S
C877 C876 1.386 . S
C877 C881 1.393 . S
C878 H870 0.950 . S
C878 C876 1.391 . S
C878 C879 1.400 . S
C879 C878 1.400 . S
C879 C880 1.398 . S
C879 C885 1.491 . S
C880 H871 0.950 . S
C880 C879 1.398 . S
C880 C881 1.391 . S
C881 H869 0.950 . S
C881 C877 1.393 . S
C881 C880 1.391 . S
C882 H872 0.950 . S
C882 C883 1.386 . S
C882 C884 1.391 . S
C883 C882 1.386 . S
C883 C887 1.393 . S
C884 H873 0.950 . S
C884 C882 1.391 . S
C884 C885 1.400 . S
C885 C879 1.491 . S
C885 C884 1.400 . S
C885 C886 1.398 . S
C886 H874 0.950 . S
C886 C885 1.398 . S
C886 C887 1.391 . S
C887 H875 0.950 . S
C887 C883 1.393 . S
C887 C886 1.391 . S
C417 C61 1.833 . S
C423 C135 1.965 . S
C443 C212 1.985 . S
C437 C70 1.874 . S
C463 C303 1.958 . S
C457 C43 1.846 . S
C483 C387 1.957 . S
C477 C52 1.850 . S
C503 C146 1.974 1_565 S
C497 C25 1.857 . S
C517 C34 1.872 . S
C523 C223 1.985 . S
C537 C7 1.858 . S
C543 C314 1.967 . S
C557 C16 1.827 . S
C563 C398 1.949 1_655 S
C583 C130 0.542 . S
C577 C50 0.501 . S
C603 C225 0.612 . S
C597 C59 0.466 . S
C623 C298 0.502 . S
C617 C67 0.487 . S
C637 C41 0.508 . S
C643 C382 0.486 . S
C657 C14 0.506 . S
C663 C141 0.520 . S
C683 C214 0.611 . S
C677 C23 0.461 . S
C703 C309 0.492 . S
C697 C31 0.502 . S
C717 C5 0.462 . S
C723 C393 0.547 . S
C737 C49 1.876 . S
C743 C139 2.093 . S
C757 C58 1.880 . S
C763 C230 2.096 . S
C783 C307 2.109 . S
C777 C68 1.906 . S
C803 C391 2.112 . S
C797 C40 1.901 . S
C817 C13 1.897 . S
C823 C128 2.097 . S
C843 C219 2.086 . S
C837 C22 1.908 . S
C863 C296 2.105 . S
C857 C32 1.885 . S
C877 C4 1.921 . S
C883 C380 2.116 . S
