# Generated by pormake.
# Topology rtl, (3,6)-cn, num edge types: 1
# Building blocks:
#     Node 0, Type 0, BuildingBlock: ESEHIV_clean_linker_0, # of connection points: 3
#     Node 1, Type 0, BuildingBlock: ESEHIV_clean_linker_0, # of connection points: 3
#     Node 2, Type 0, BuildingBlock: ESEHIV_clean_linker_0, # of connection points: 3
#     Node 3, Type 0, BuildingBlock: ESEHIV_clean_linker_0, # of connection points: 3
#     Node 4, Type 1, BuildingBlock: KUMJIN_clean_sbu_1, # of connection points: 6
#     Node 5, Type 1, BuildingBlock: KUMJIN_clean_sbu_1, # of connection points: 6
#     Edge 6, Type (0, 1), BuildingBlock: OJICUG_clean_linker_0, # of connection points: 2
#     Edge 7, Type (0, 1), BuildingBlock: OJICUG_clean_linker_0, # of connection points: 2
#     Edge 8, Type (0, 1), BuildingBlock: OJICUG_clean_linker_0, # of connection points: 2
#     Edge 9, Type (0, 1), BuildingBlock: OJICUG_clean_linker_0, # of connection points: 2
#     Edge 10, Type (0, 1), BuildingBlock: OJICUG_clean_linker_0, # of connection points: 2
#     Edge 11, Type (0, 1), BuildingBlock: OJICUG_clean_linker_0, # of connection points: 2
#     Edge 12, Type (0, 1), BuildingBlock: OJICUG_clean_linker_0, # of connection points: 2
#     Edge 13, Type (0, 1), BuildingBlock: OJICUG_clean_linker_0, # of connection points: 2
#     Edge 14, Type (0, 1), BuildingBlock: OJICUG_clean_linker_0, # of connection points: 2
#     Edge 15, Type (0, 1), BuildingBlock: OJICUG_clean_linker_0, # of connection points: 2
#     Edge 16, Type (0, 1), BuildingBlock: OJICUG_clean_linker_0, # of connection points: 2
#     Edge 17, Type (0, 1), BuildingBlock: OJICUG_clean_linker_0, # of connection points: 2
# Relax obj value: 0.019
# Max RMSD: 0.147
# Mean RMSD: 0.088
data_MOF--net-rtl--node1-KUMJIN_clean_sbu_1--node2-ESEHIV_clean_linker_0--edge1-OJICUG_clean_linker_0
_symmetry_space_group_name_H-M    P1
_symmetry_Int_Tables_number       1
_symmetry_cell_setting            triclinic
loop_
_symmetry_equiv_pos_as_xyz
'x, y, z'
_cell_length_a     21.968893
_cell_length_b     22.929362
_cell_length_c     21.043913
_cell_angle_alpha  72.193156
_cell_angle_beta   98.739855
_cell_angle_gamma 91.552061
loop_
_atom_site_label
_atom_site_type_symbol
_atom_site_fract_x
_atom_site_fract_y
_atom_site_fract_z
_atom_type_partial_charge
H0 H 0.1587 0.93418 0.9892 0.0
H1 H 0.30068 0.81387 0.1266 0.0
H2 H 0.26068 0.81729 0.9182 0.0
C3 C 0.19608 0.90119 0.99898 0.0
C4 C 0.20823 0.88015 0.94647 0.0
C5 C 0.22829 0.87672 0.06457 0.0
C6 C 0.27487 0.83197 0.07638 0.0
C7 C 0.28787 0.81056 0.02363 0.0
C8 C 0.25344 0.83464 0.959 0.0
H9 H 0.63664 0.59019 0.69835 0.0
H10 H 0.76733 0.69564 0.57977 0.0
H11 H 0.73172 0.73587 0.75792 0.0
C12 C 0.66935 0.62697 0.68921 0.0
C13 C 0.68191 0.66044 0.73547 0.0
C14 C 0.69949 0.63987 0.63227 0.0
C15 C 0.74172 0.6877 0.62162 0.0
C16 C 0.75291 0.72414 0.66506 0.0
C17 C 0.72355 0.70913 0.72312 0.0
H18 H 0.87106 0.09259 0.1335 0.0
H19 H 0.76984 0.20414 0.21142 0.0
H20 H 0.72881 0.21611 1.00055 0.0
C21 C 0.83383 0.12546 0.12494 0.0
C22 C 0.80174 0.1524 0.05969 0.0
C23 C 0.8213 0.14364 0.17914 0.0
C24 C 0.77665 0.18893 0.16901 0.0
C25 C 0.74221 0.21529 0.10491 0.0
C26 C 0.75494 0.19644 0.05032 0.0
H27 H 0.39707 0.40199 0.44301 0.0
H28 H 0.27652 0.29168 0.57196 0.0
H29 H 0.27727 0.27651 0.37296 0.0
C30 C 0.36135 0.36827 0.45198 0.0
C31 C 0.3388 0.34259 0.40068 0.0
C32 C 0.33803 0.35204 0.51334 0.0
C33 C 0.29442 0.30532 0.52467 0.0
C34 C 0.27252 0.27659 0.47531 0.0
C35 C 0.29516 0.29584 0.41285 0.0
Eu36 Eu 0.05234 0.94269 0.53879 0.0
C37 C 0.87059 0.15789 0.46068 0.0
N38 N 0.92654 0.15621 0.4991 0.0
C39 C 0.94647 0.25804 0.43228 0.0
C40 C 0.85109 0.20968 0.40498 0.0
C41 C 0.96409 0.20549 0.48654 0.0
C42 C 0.88989 0.26003 0.39104 0.0
C43 C 0.77506 0.10766 0.43734 0.0
C44 C 0.83345 0.10703 0.47638 0.0
C45 C 0.75623 0.1584 0.38066 0.0
C46 C 0.79408 0.20933 0.36463 0.0
Eu47 Eu 0.9542 0.06513 0.58832 0.0
N48 N 0.85317 0.05817 0.53123 0.0
C49 C 0.73642 0.05814 0.45772 0.0
C50 C 0.81259 0.01366 0.55538 0.0
C51 C 0.75467 0.01171 0.51798 0.0
H52 H 0.00771 0.20396 0.51834 0.0
H53 H 0.72358 0.97514 0.53652 0.0
H54 H 0.96785 0.81659 0.55275 0.0
H55 H 0.27912 0.97189 0.67369 0.0
H56 H 0.82346 0.98049 0.60451 0.0
H57 H 0.69125 0.05685 0.42918 0.0
H58 H 0.18603 0.00432 0.5898 0.0
H59 H 0.97663 0.29685 0.42215 0.0
H60 H 0.7119 0.15924 0.34969 0.0
H61 H 0.77863 0.24839 0.32118 0.0
H62 H 0.97306 0.70786 0.62238 0.0
H63 H 0.87656 0.30062 0.3487 0.0
H64 H 0.2922 0.86433 0.74675 0.0
N65 N 0.05439 0.83766 0.60019 0.0
C66 C 0.10561 0.81627 0.64607 0.0
C67 C 0.01054 0.73789 0.62971 0.0
C68 C 0.11074 0.75442 0.68653 0.0
C69 C 0.00743 0.79957 0.59084 0.0
C70 C 0.06233 0.71523 0.67788 0.0
N71 N 0.145 0.91678 0.61617 0.0
C72 C 0.19036 0.95756 0.62165 0.0
C73 C 0.20534 0.83615 0.70246 0.0
C74 C 0.15243 0.85675 0.65393 0.0
C75 C 0.25102 0.87831 0.70985 0.0
C76 C 0.24366 0.93914 0.66893 0.0
H77 H 0.06451 0.66745 0.70806 0.0
H78 H 0.16816 0.6865 0.76631 0.0
H79 H 0.25083 0.75802 0.78035 0.0
O80 O 0.11125 0.96512 0.46026 0.0
O81 O 0.05172 0.92879 0.64981 0.0
O82 O 0.04098 0.02502 0.66033 0.0
O83 O 0.06105 0.88085 0.47948 0.0
O84 O 0.08847 0.04061 0.51426 0.0
O85 O 0.05468 0.08954 0.58523 0.0
O86 O 0.8987 0.06291 0.66686 0.0
O87 O 0.97076 0.08189 0.48049 0.0
O88 O 0.96409 0.9851 0.47295 0.0
O89 O 0.95376 0.14146 0.63 0.0
O90 O 0.93334 0.96296 0.628 0.0
O91 O 0.95007 0.92883 0.54 0.0
C92 C 0.06083 0.96785 0.68438 0.0
C93 C 0.07726 0.92971 0.36777 0.0
C94 C 0.10229 0.93465 0.25752 0.0
C95 C 0.04338 0.96001 0.22761 0.0
C96 C 0.01822 0.95358 0.3373 0.0
C97 C 1.00149 0.96905 0.26749 0.0
C98 C 0.11906 0.91954 0.32788 0.0
C99 C 0.09142 0.08507 0.54256 0.0
C100 C 0.09597 0.91731 0.44068 0.0
C101 C 0.1635 0.73382 0.73468 0.0
C102 C 0.21062 0.77455 0.74264 0.0
C103 C 0.95608 0.04422 0.4452 0.0
C104 C 0.94375 0.11101 0.74523 0.0
C105 C 0.92531 0.10956 0.85671 0.0
C106 C 0.98776 0.09454 0.8818 0.0
C107 C 0.00635 0.09763 0.77062 0.0
C108 C 0.90341 0.11786 0.78824 0.0
C109 C 0.02814 0.08912 0.83869 0.0
C110 C 0.92462 0.92272 0.59431 0.0
C111 C 0.91976 0.11398 0.67528 0.0
H112 H 0.02931 0.97154 0.17353 0.0
H113 H 0.98525 0.96008 0.36764 0.0
H114 H 0.95592 0.9878 0.24428 0.0
H115 H 0.16463 0.90065 0.35134 0.0
H116 H 1.0054 0.08812 0.9345 0.0
H117 H 0.03818 0.09352 0.73779 0.0
H118 H 0.85504 0.12844 0.76888 0.0
H119 H 0.07638 0.07826 0.85806 0.0
Eu120 Eu 0.44718 0.48592 0.00813 0.0
C121 C 0.69169 0.61157 0.08992 0.0
N122 N 0.67492 0.55206 0.10825 0.0
C123 C 0.77349 0.52046 0.09349 0.0
C124 C 0.74978 0.62816 0.07 0.0
C125 C 0.71525 0.50631 0.11251 0.0
C126 C 0.79063 0.5817 0.07147 0.0
C127 C 0.66785 0.71778 0.07569 0.0
C128 C 0.65122 0.65564 0.09302 0.0
C129 C 0.72456 0.73493 0.05297 0.0
C130 C 0.76552 0.6902 0.05034 0.0
Eu131 Eu 0.5772 0.53123 0.14163 0.0
N132 N 0.59732 0.6374 0.11668 0.0
C133 C 0.6279 0.76057 0.08384 0.0
C134 C 0.56062 0.67834 0.1295 0.0
C135 C 0.57451 0.74059 0.11182 0.0
H136 H 0.70207 0.45899 0.13004 0.0
H137 H 0.54455 0.77297 0.12086 0.0
H138 H 0.33873 0.59957 0.97167 0.0
H139 H 0.41901 0.23947 0.10808 0.0
H140 H 0.52104 0.66328 0.1545 0.0
H141 H 0.63895 0.80873 0.07102 0.0
H142 H 0.47026 0.33478 0.05099 0.0
H143 H 0.8051 0.48419 0.09586 0.0
H144 H 0.73787 0.78249 0.03899 0.0
H145 H 0.80967 0.70395 0.03418 0.0
H146 H 0.23925 0.61454 0.0052 0.0
H147 H 0.83574 0.59256 0.05668 0.0
H148 H 0.32035 0.24578 0.14916 0.0
N149 N 0.34857 0.50563 0.0308 0.0
C150 C 0.31918 0.45569 0.06559 0.0
C151 C 0.26171 0.56981 0.02357 0.0
C152 C 0.26092 0.46167 0.08364 0.0
C153 C 0.31899 0.56144 0.00603 0.0
C154 C 0.23306 0.51994 0.06366 0.0
N155 N 0.40175 0.39322 0.06168 0.0
C156 C 0.4271 0.33744 0.06884 0.0
C157 C 0.31524 0.34497 0.11313 0.0
C158 C 0.34583 0.39784 0.08013 0.0
C159 C 0.34246 0.28748 0.124 0.0
C160 C 0.39823 0.28371 0.10097 0.0
H161 H 0.18837 0.52645 0.07657 0.0
H162 H 0.18699 0.41314 0.13391 0.0
H163 H 0.2346 0.31104 0.1598 0.0
O164 O 0.46518 0.45399 0.92437 0.0
O165 O 0.46345 0.43101 0.12026 0.0
O166 O 0.48189 0.50727 0.16787 0.0
O167 O 0.37532 0.49022 0.92346 0.0
O168 O 0.54016 0.43968 0.02382 0.0
O169 O 0.58248 0.43494 0.13346 0.0
O170 O 0.61413 0.55386 0.23444 0.0
O171 O 0.59887 0.54381 0.03493 0.0
O172 O 0.50449 0.56931 0.96883 0.0
O173 O 0.61521 0.4589 0.23273 0.0
O174 O 0.48273 0.57778 0.11857 0.0
O175 O 0.44813 0.58577 0.00702 0.0
C176 C 0.4567 0.45492 0.1679 0.0
C177 C 0.40542 0.50132 0.81789 0.0
C178 C 0.38917 0.49425 0.7028 0.0
C179 C 0.37945 0.55845 0.67852 0.0
C180 C 0.39653 0.565 0.79247 0.0
C181 C 0.38425 0.59338 0.72299 0.0
C182 C 0.40373 0.4666 0.77322 0.0
C183 C 0.57826 0.41577 0.08 0.0
C184 C 0.41034 0.46933 0.89051 0.0
C185 C 0.23145 0.40928 0.11905 0.0
C186 C 0.25847 0.35109 0.13363 0.0
C187 C 0.56499 0.56931 0.97586 0.0
C188 C 0.65784 0.47601 0.33906 0.0
C189 C 0.68303 0.49204 0.44999 0.0
C190 C 0.71452 0.43498 0.47424 0.0
C191 C 0.68897 0.41905 0.36494 0.0
C192 C 0.65486 0.5123 0.38179 0.0
C193 C 0.7172 0.39886 0.43204 0.0
C194 C 0.45192 0.60697 0.05905 0.0
C195 C 0.62836 0.49681 0.26776 0.0
H196 H 0.36632 0.58213 0.62537 0.0
H197 H 0.39754 0.59248 0.82633 0.0
H198 H 0.37647 0.64249 0.70353 0.0
H199 H 0.41254 0.41775 0.79424 0.0
H200 H 0.73813 0.4185 0.52564 0.0
H201 H 0.69199 0.39027 0.33312 0.0
H202 H 0.62976 0.55569 0.36217 0.0
H203 H 0.74166 0.35515 0.45135 0.0
C204 C 0.22409 0.17723 0.46534 0.0
C205 C 0.22468 0.2282 0.48949 0.0
H206 H 0.1819 0.09228 0.46274 0.0
C207 C 0.18031 0.23149 0.5302 0.0
H208 H 0.25767 0.17252 0.43443 0.0
C209 C 0.13867 0.18448 0.54857 0.0
C210 C 0.1379 0.13363 0.52455 0.0
H211 H 0.17736 0.27057 0.54826 0.0
H212 H 0.10676 0.18852 0.58153 0.0
C213 C 0.18095 0.13077 0.48224 0.0
C214 C 0.36883 0.75986 0.98449 0.0
C215 C 0.33467 0.76097 0.03568 0.0
H216 H 0.43194 0.7096 0.95156 0.0
C217 C 0.3429 0.71234 0.09648 0.0
H218 H 0.36515 0.79714 0.93768 0.0
C219 C 0.38284 0.66321 0.10498 0.0
C220 C 0.41425 0.66114 0.0524 0.0
H221 H 0.31688 0.71091 0.13666 0.0
H222 H 0.38719 0.62563 0.15162 0.0
C223 C 0.40746 0.71003 0.99241 0.0
C224 C 0.834 0.79489 0.69885 0.0
C225 C 0.79519 0.77737 0.64829 0.0
H226 H 0.90527 0.85502 0.72135 0.0
C227 C 0.79833 0.81022 0.58021 0.0
H228 H 0.83349 0.77073 0.75172 0.0
C229 C 0.84073 0.85674 0.56314 0.0
C230 C 0.87991 0.87334 0.61351 0.0
H231 H 0.76793 0.80009 0.53954 0.0
H232 H 0.84223 0.88044 0.51028 0.0
C233 C 0.87548 0.84286 0.68156 0.0
C234 C 0.68651 0.31438 0.03594 0.0
C235 C 0.69563 0.2644 0.09553 0.0
H236 H 0.64133 0.40146 0.98426 0.0
C237 C 0.66266 0.26368 0.14825 0.0
H238 H 0.71159 0.31724 0.99465 0.0
C239 C 0.6245 0.313 0.14309 0.0
C240 C 0.61669 0.36306 0.08424 0.0
H241 H 0.6668 0.22531 0.19412 0.0
H242 H 0.60078 0.31187 0.18499 0.0
C243 C 0.64673 0.36292 0.03008 0.0
C244 C 0.20039 0.84899 0.18145 0.0
C245 C 0.20808 0.89412 0.12073 0.0
H246 H 0.1608 0.82683 0.27289 0.0
C247 C 0.18811 0.95457 0.11037 0.0
H248 H 0.21473 0.80191 0.19082 0.0
C249 C 0.15624 0.96838 0.15662 0.0
C250 C 0.1448 0.92234 0.21483 0.0
H251 H 0.19453 0.99071 0.06485 0.0
H252 H 0.13858 0.01463 0.14576 0.0
C253 C 0.16923 0.8631 0.2283 0.0
C254 C 0.68796 0.62133 0.86144 0.0
C255 C 0.65217 0.6427 0.79739 0.0
H256 H 0.68877 0.57919 0.96725 0.0
C257 C 0.58769 0.64177 0.79253 0.0
H258 H 0.73778 0.6206 0.86645 0.0
C259 C 0.55957 0.61965 0.85057 0.0
C260 C 0.59523 0.59646 0.91479 0.0
H261 H 0.55903 0.65765 0.74364 0.0
H262 H 0.5098 0.6196 0.84479 0.0
C263 C 0.6598 0.59773 0.91931 0.0
C264 C 0.89885 0.15381 0.27369 0.0
C265 C 0.85718 0.11741 0.24625 0.0
H266 H 0.96461 0.15805 0.35814 0.0
C267 C 0.84908 0.05638 0.28342 0.0
H268 H 0.90549 0.20107 0.24533 0.0
C269 C 0.88162 0.03222 0.34829 0.0
C270 C 0.92341 0.06859 0.37601 0.0
H271 H 0.81677 0.02793 0.26272 0.0
H272 H 0.87355 0.98542 0.37702 0.0
C273 C 0.9323 0.12932 0.33794 0.0
C274 C 0.35301 0.35986 0.63237 0.0
C275 C 0.35614 0.38666 0.56322 0.0
H276 H 0.35676 0.37215 0.72885 0.0
C277 C 0.3739 0.44832 0.54152 0.0
H278 H 0.34145 0.31227 0.65238 0.0
C279 C 0.38744 0.4819 0.58701 0.0
C280 C 0.38082 0.45621 0.65543 0.0
H281 H 0.37598 0.47195 0.4889 0.0
H282 H 0.4023 0.52848 0.5676 0.0
C283 C 0.3637 0.39434 0.67729 0.0
C284 C 0.68225 0.53876 0.60872 0.0
C285 C 0.68906 0.60255 0.58469 0.0
H286 H 0.67325 0.45429 0.58524 0.0
C287 C 0.68921 0.63012 0.51502 0.0
H288 H 0.68219 0.51575 0.66195 0.0
C289 C 0.6858 0.59461 0.47116 0.0
C290 C 0.68134 0.53055 0.49557 0.0
H291 H 0.69302 0.67927 0.49431 0.0
H292 H 0.68874 0.61739 0.41847 0.0
C293 C 0.67811 0.50331 0.5647 0.0
C294 C 0.84472 0.07952 0.00886 0.0
C295 C 0.82208 0.13848 1.0015 0.0
H296 H 0.89604 0.02451 0.96867 0.0
C297 C 0.82667 0.18574 0.94131 0.0
H298 H 0.8406 0.04166 0.0537 0.0
C299 C 0.85702 0.17525 0.89193 0.0
C300 C 0.88392 0.11767 0.90238 0.0
H301 H 0.81037 0.2318 0.93406 0.0
H302 H 0.86281 0.21304 0.84756 0.0
C303 C 0.87611 0.06946 0.96019 0.0
C304 C 0.38695 0.33262 0.30261 0.0
C305 C 0.35951 0.36904 0.33383 0.0
H306 H 0.44029 0.33151 0.2252 0.0
C307 C 0.35878 0.4331 0.30528 0.0
H308 H 0.38825 0.28318 0.32367 0.0
C309 C 0.38869 0.46045 0.25005 0.0
C310 C 0.41951 0.42447 0.22131 0.0
H311 H 0.33716 0.46231 0.32768 0.0
H312 H 0.38895 0.51 0.23081 0.0
C313 C 0.41685 0.36024 0.24661 0.0
C314 C 0.16563 0.96604 0.84507 0.0
C315 C 0.17064 0.90301 0.87937 0.0
H316 H 0.12863 0.036 0.75486 0.0
C317 C 0.13861 0.86172 0.84998 0.0
H318 H 0.19039 0.99854 0.86692 0.0
C319 C 0.1017 0.88317 0.7873 0.0
C320 C 0.0972 0.94619 0.75228 0.0
H321 H 0.14144 0.81292 0.87598 0.0
H322 H 0.07679 0.85028 0.76623 0.0
C323 C 0.12973 0.98745 0.78155 0.0
loop_
_geom_bond_atom_site_label_1
_geom_bond_atom_site_label_2
_geom_bond_distance
_geom_bond_site_symmetry_2
_ccdc_geom_bond_type
H0 C3 0.931 1_556 S
H1 C6 0.928 . S
H2 C8 0.930 . S
C3 H0 0.931 1_554 S
C3 C4 1.413 1_554 S
C3 C5 1.360 . S
C4 C3 1.413 1_556 S
C4 C8 1.429 . S
C5 C3 1.360 . S
C5 C6 1.372 . S
C6 H1 0.928 . S
C6 C5 1.372 . S
C6 C7 1.404 . S
C7 C6 1.404 . S
C7 C8 1.391 1_554 S
C8 H2 0.930 . S
C8 C4 1.429 . S
C8 C7 1.391 1_556 S
H9 C12 0.931 . S
H10 C15 0.928 . S
H11 C17 0.930 . S
C12 H9 0.931 . S
C12 C13 1.413 . S
C12 C14 1.360 . S
C13 C12 1.413 . S
C13 C17 1.429 . S
C14 C12 1.360 . S
C14 C15 1.372 . S
C15 H10 0.928 . S
C15 C14 1.372 . S
C15 C16 1.404 . S
C16 C15 1.404 . S
C16 C17 1.391 . S
C17 H11 0.930 . S
C17 C13 1.429 . S
C17 C16 1.391 . S
H18 C21 0.931 . S
H19 C24 0.928 . S
H20 C26 0.930 . S
C21 H18 0.931 . S
C21 C22 1.413 . S
C21 C23 1.360 . S
C22 C21 1.413 . S
C22 C26 1.429 . S
C23 C21 1.360 . S
C23 C24 1.372 . S
C24 H19 0.928 . S
C24 C23 1.372 . S
C24 C25 1.404 . S
C25 C24 1.404 . S
C25 C26 1.391 . S
C26 H20 0.930 . S
C26 C22 1.429 . S
C26 C25 1.391 . S
H27 C30 0.931 . S
H28 C33 0.928 . S
H29 C35 0.930 . S
C30 H27 0.931 . S
C30 C31 1.413 . S
C30 C32 1.360 . S
C31 C30 1.413 . S
C31 C35 1.429 . S
C32 C30 1.360 . S
C32 C33 1.372 . S
C33 H28 0.928 . S
C33 C32 1.372 . S
C33 C34 1.404 . S
C34 C33 1.404 . S
C34 C35 1.391 . S
C35 H29 0.930 . S
C35 C31 1.429 . S
C35 C34 1.391 . S
Eu36 N65 2.600 . S
Eu36 N71 2.562 . S
Eu36 O80 2.462 . S
Eu36 O81 2.373 . S
Eu36 O83 2.432 . S
Eu36 O84 2.291 1_565 S
Eu36 O88 2.335 1_465 S
Eu36 O91 2.372 1_455 S
Eu36 C100 2.787 . S
C37 N38 1.365 . S
C37 C40 1.405 . S
C37 C44 1.448 . S
N38 C37 1.365 . S
N38 C41 1.319 . S
N38 Eu47 2.600 . S
C39 C41 1.397 . S
C39 C42 1.367 . S
C39 H59 0.931 1_655 S
C40 C37 1.405 . S
C40 C42 1.403 . S
C40 C46 1.439 . S
C41 N38 1.319 . S
C41 C39 1.397 . S
C41 H52 0.930 1_655 S
C42 C39 1.367 . S
C42 C40 1.403 . S
C42 H63 0.929 . S
C43 C44 1.430 . S
C43 C45 1.387 . S
C43 C49 1.404 . S
C44 C37 1.448 . S
C44 C43 1.430 . S
C44 N48 1.351 . S
C45 C43 1.387 . S
C45 C46 1.374 . S
C45 H60 0.931 . S
C46 C40 1.439 . S
C46 C45 1.374 . S
C46 H61 0.931 . S
Eu47 N38 2.600 . S
Eu47 N48 2.562 . S
Eu47 O82 2.335 1_655 S
Eu47 O85 2.372 1_655 S
Eu47 O86 2.462 . S
Eu47 O87 2.373 . S
Eu47 O89 2.432 . S
Eu47 O90 2.291 1_545 S
Eu47 C111 2.787 . S
N48 C44 1.351 . S
N48 Eu47 2.562 . S
N48 C50 1.325 . S
C49 C43 1.404 . S
C49 C51 1.366 . S
C49 H57 0.930 . S
C50 N48 1.325 . S
C50 C51 1.416 . S
C50 H56 0.929 . S
C51 C49 1.366 . S
C51 C50 1.416 . S
C51 H53 0.930 . S
H52 C41 0.930 1_455 S
H53 C51 0.930 . S
H54 C69 0.930 1_655 S
H55 C76 0.930 . S
H56 C50 0.929 . S
H57 C49 0.930 . S
H58 C72 0.929 . S
H59 C39 0.931 1_455 S
H60 C45 0.931 . S
H61 C46 0.931 . S
H62 C67 0.931 1_655 S
H63 C42 0.929 . S
H64 C75 0.930 . S
N65 Eu36 2.600 . S
N65 C66 1.365 . S
N65 C69 1.319 . S
C66 N65 1.365 . S
C66 C68 1.405 . S
C66 C74 1.448 . S
C67 H62 0.931 1_455 S
C67 C69 1.397 . S
C67 C70 1.367 . S
C68 C66 1.405 . S
C68 C70 1.403 . S
C68 C101 1.439 . S
C69 H54 0.930 1_455 S
C69 N65 1.319 . S
C69 C67 1.397 . S
C70 C67 1.367 . S
C70 C68 1.403 . S
C70 H77 0.929 . S
N71 Eu36 2.562 . S
N71 C72 1.325 . S
N71 C74 1.351 . S
C72 H58 0.929 . S
C72 N71 1.325 . S
C72 C76 1.416 . S
C73 C74 1.430 . S
C73 C75 1.404 . S
C73 C102 1.387 . S
C74 C66 1.448 . S
C74 N71 1.351 . S
C74 C73 1.430 . S
C75 H64 0.930 . S
C75 C73 1.404 . S
C75 C76 1.366 . S
C76 H55 0.930 . S
C76 C72 1.416 . S
C76 C75 1.366 . S
H77 C70 0.929 . S
H78 C101 0.931 . S
H79 C102 0.931 . S
O80 Eu36 2.462 . S
O80 C100 1.252 . S
O81 Eu36 2.373 . S
O81 C92 1.249 . S
O82 Eu47 2.335 1_455 S
O82 C92 1.264 1_545 S
O83 Eu36 2.432 . S
O83 C100 1.268 . S
O84 Eu36 2.291 1_545 S
O84 C99 1.255 . S
O85 Eu47 2.372 1_455 S
O85 C99 1.257 . S
O86 Eu47 2.462 . S
O86 C111 1.252 . S
O87 Eu47 2.373 . S
O87 C103 1.249 . S
O88 Eu36 2.335 1_645 S
O88 C103 1.264 . S
O89 Eu47 2.432 . S
O89 C111 1.268 . S
O90 Eu47 2.291 1_565 S
O90 C110 1.255 . S
O91 Eu36 2.372 1_655 S
O91 C110 1.257 . S
C92 O81 1.249 . S
C92 O82 1.264 1_565 S
C93 C96 1.382 . S
C93 C98 1.390 . S
C93 C100 1.506 . S
C94 C95 1.398 . S
C94 C98 1.392 . S
C95 C94 1.398 . S
C95 C97 1.372 . S
C95 H112 0.931 . S
C96 C93 1.382 . S
C96 C97 1.390 . S
C96 H113 0.931 . S
C97 C95 1.372 . S
C97 C96 1.390 . S
C97 H114 0.929 . S
C98 C93 1.390 . S
C98 C94 1.392 . S
C98 H115 0.930 . S
C99 O84 1.255 . S
C99 O85 1.257 . S
C100 Eu36 2.787 . S
C100 O80 1.252 . S
C100 O83 1.268 . S
C100 C93 1.506 . S
C101 C68 1.439 . S
C101 H78 0.931 . S
C101 C102 1.374 . S
C102 C73 1.387 . S
C102 H79 0.931 . S
C102 C101 1.374 . S
C103 O87 1.249 . S
C103 O88 1.264 . S
C104 C107 1.382 . S
C104 C108 1.390 . S
C104 C111 1.506 . S
C105 C106 1.398 . S
C105 C108 1.392 . S
C106 C105 1.398 . S
C106 C109 1.372 . S
C106 H116 0.931 . S
C107 C104 1.382 . S
C107 C109 1.390 . S
C107 H117 0.931 . S
C108 C104 1.390 . S
C108 C105 1.392 . S
C108 H118 0.930 . S
C109 C106 1.372 . S
C109 C107 1.390 . S
C109 H119 0.929 . S
C110 O90 1.255 . S
C110 O91 1.257 . S
C111 Eu47 2.787 . S
C111 O86 1.252 . S
C111 O89 1.268 . S
C111 C104 1.506 . S
H112 C95 0.931 . S
H113 C96 0.931 . S
H114 C97 0.929 . S
H115 C98 0.930 . S
H116 C106 0.931 . S
H117 C107 0.931 . S
H118 C108 0.930 . S
H119 C109 0.929 . S
Eu120 N149 2.600 . S
Eu120 N155 2.562 . S
Eu120 O164 2.462 1_554 S
Eu120 O165 2.373 . S
Eu120 O167 2.432 1_554 S
Eu120 O168 2.291 . S
Eu120 O172 2.335 1_554 S
Eu120 O175 2.372 . S
Eu120 C184 2.787 1_554 S
C121 N122 1.365 . S
C121 C124 1.405 . S
C121 C128 1.448 . S
N122 C121 1.365 . S
N122 C125 1.319 . S
N122 Eu131 2.600 . S
C123 C125 1.397 . S
C123 C126 1.367 . S
C123 H143 0.931 . S
C124 C121 1.405 . S
C124 C126 1.403 . S
C124 C130 1.439 . S
C125 N122 1.319 . S
C125 C123 1.397 . S
C125 H136 0.930 . S
C126 C123 1.367 . S
C126 C124 1.403 . S
C126 H147 0.929 . S
C127 C128 1.430 . S
C127 C129 1.387 . S
C127 C133 1.404 . S
C128 C121 1.448 . S
C128 C127 1.430 . S
C128 N132 1.351 . S
C129 C127 1.387 . S
C129 C130 1.374 . S
C129 H144 0.931 . S
C130 C124 1.439 . S
C130 C129 1.374 . S
C130 H145 0.931 . S
Eu131 N122 2.600 . S
Eu131 N132 2.562 . S
Eu131 O166 2.335 . S
Eu131 O169 2.372 . S
Eu131 O170 2.462 . S
Eu131 O171 2.373 . S
Eu131 O173 2.432 . S
Eu131 O174 2.291 . S
Eu131 C195 2.787 . S
N132 C128 1.351 . S
N132 Eu131 2.562 . S
N132 C134 1.325 . S
C133 C127 1.404 . S
C133 C135 1.366 . S
C133 H141 0.930 . S
C134 N132 1.325 . S
C134 C135 1.416 . S
C134 H140 0.929 . S
C135 C133 1.366 . S
C135 C134 1.416 . S
C135 H137 0.930 . S
H136 C125 0.930 . S
H137 C135 0.930 . S
H138 C153 0.930 . S
H139 C160 0.930 . S
H140 C134 0.929 . S
H141 C133 0.930 . S
H142 C156 0.929 . S
H143 C123 0.931 . S
H144 C129 0.931 . S
H145 C130 0.931 . S
H146 C151 0.931 . S
H147 C126 0.929 . S
H148 C159 0.930 . S
N149 Eu120 2.600 . S
N149 C150 1.365 . S
N149 C153 1.319 1_554 S
C150 N149 1.365 . S
C150 C152 1.405 . S
C150 C158 1.448 . S
C151 H146 0.931 . S
C151 C153 1.397 . S
C151 C154 1.367 1_556 S
C152 C150 1.405 . S
C152 C154 1.403 . S
C152 C185 1.439 . S
C153 H138 0.930 . S
C153 N149 1.319 1_556 S
C153 C151 1.397 . S
C154 C151 1.367 1_554 S
C154 C152 1.403 . S
C154 H161 0.929 . S
N155 Eu120 2.562 . S
N155 C156 1.325 . S
N155 C158 1.351 . S
C156 H142 0.929 . S
C156 N155 1.325 . S
C156 C160 1.416 . S
C157 C158 1.430 . S
C157 C159 1.404 . S
C157 C186 1.387 . S
C158 C150 1.448 . S
C158 N155 1.351 . S
C158 C157 1.430 . S
C159 H148 0.930 . S
C159 C157 1.404 . S
C159 C160 1.366 . S
C160 H139 0.930 . S
C160 C156 1.416 . S
C160 C159 1.366 . S
H161 C154 0.929 . S
H162 C185 0.931 . S
H163 C186 0.931 . S
O164 Eu120 2.462 1_556 S
O164 C184 1.252 . S
O165 Eu120 2.373 . S
O165 C176 1.249 . S
O166 Eu131 2.335 . S
O166 C176 1.264 . S
O167 Eu120 2.432 1_556 S
O167 C184 1.268 . S
O168 Eu120 2.291 . S
O168 C183 1.255 . S
O169 Eu131 2.372 . S
O169 C183 1.257 . S
O170 Eu131 2.462 . S
O170 C195 1.252 . S
O171 Eu131 2.373 . S
O171 C187 1.249 1_554 S
O172 Eu120 2.335 1_556 S
O172 C187 1.264 . S
O173 Eu131 2.432 . S
O173 C195 1.268 . S
O174 Eu131 2.291 . S
O174 C194 1.255 . S
O175 Eu120 2.372 . S
O175 C194 1.257 . S
C176 O165 1.249 . S
C176 O166 1.264 . S
C177 C180 1.382 . S
C177 C182 1.390 . S
C177 C184 1.506 . S
C178 C179 1.398 . S
C178 C182 1.392 . S
C179 C178 1.398 . S
C179 C181 1.372 . S
C179 H196 0.931 . S
C180 C177 1.382 . S
C180 C181 1.390 . S
C180 H197 0.931 . S
C181 C179 1.372 . S
C181 C180 1.390 . S
C181 H198 0.929 . S
C182 C177 1.390 . S
C182 C178 1.392 . S
C182 H199 0.930 . S
C183 O168 1.255 . S
C183 O169 1.257 . S
C184 Eu120 2.787 1_556 S
C184 O164 1.252 . S
C184 O167 1.268 . S
C184 C177 1.506 . S
C185 C152 1.439 . S
C185 H162 0.931 . S
C185 C186 1.374 . S
C186 C157 1.387 . S
C186 H163 0.931 . S
C186 C185 1.374 . S
C187 O171 1.249 1_556 S
C187 O172 1.264 . S
C188 C191 1.382 . S
C188 C192 1.390 . S
C188 C195 1.506 . S
C189 C190 1.398 . S
C189 C192 1.392 . S
C190 C189 1.398 . S
C190 C193 1.372 . S
C190 H200 0.931 . S
C191 C188 1.382 . S
C191 C193 1.390 . S
C191 H201 0.931 . S
C192 C188 1.390 . S
C192 C189 1.392 . S
C192 H202 0.930 . S
C193 C190 1.372 . S
C193 C191 1.390 . S
C193 H203 0.929 . S
C194 O174 1.255 . S
C194 O175 1.257 . S
C195 Eu131 2.787 . S
C195 O170 1.252 . S
C195 O173 1.268 . S
C195 C188 1.506 . S
H196 C179 0.931 . S
H197 C180 0.931 . S
H198 C181 0.929 . S
H199 C182 0.930 . S
H200 C190 0.931 . S
H201 C191 0.931 . S
H202 C192 0.930 . S
H203 C193 0.929 . S
C204 C205 1.387 . S
C204 H208 0.950 . S
C204 C213 1.390 . S
C205 C204 1.387 . S
C205 C207 1.387 . S
H206 C213 0.950 . S
C207 C205 1.387 . S
C207 C209 1.390 . S
C207 H211 0.950 . S
H208 C204 0.950 . S
C209 C207 1.390 . S
C209 C210 1.387 . S
C209 H212 0.950 . S
C210 C209 1.387 . S
C210 C213 1.387 . S
H211 C207 0.950 . S
H212 C209 0.950 . S
C213 C204 1.390 . S
C213 H206 0.950 . S
C213 C210 1.387 . S
C214 C215 1.387 1_556 S
C214 H218 0.950 . S
C214 C223 1.390 . S
C215 C214 1.387 1_554 S
C215 C217 1.387 . S
H216 C223 0.950 . S
C217 C215 1.387 . S
C217 C219 1.390 . S
C217 H221 0.950 . S
H218 C214 0.950 . S
C219 C217 1.390 . S
C219 C220 1.387 . S
C219 H222 0.950 . S
C220 C219 1.387 . S
C220 C223 1.387 1_554 S
H221 C217 0.950 . S
H222 C219 0.950 . S
C223 C214 1.390 . S
C223 H216 0.950 . S
C223 C220 1.387 1_556 S
C224 C225 1.387 . S
C224 H228 0.950 . S
C224 C233 1.390 . S
C225 C224 1.387 . S
C225 C227 1.387 . S
H226 C233 0.950 . S
C227 C225 1.387 . S
C227 C229 1.390 . S
C227 H231 0.950 . S
H228 C224 0.950 . S
C229 C227 1.390 . S
C229 C230 1.387 . S
C229 H232 0.950 . S
C230 C229 1.387 . S
C230 C233 1.387 . S
H231 C227 0.950 . S
H232 C229 0.950 . S
C233 C224 1.390 . S
C233 H226 0.950 . S
C233 C230 1.387 . S
C234 C235 1.387 . S
C234 H238 0.950 1_554 S
C234 C243 1.390 . S
C235 C234 1.387 . S
C235 C237 1.387 . S
H236 C243 0.950 1_556 S
C237 C235 1.387 . S
C237 C239 1.390 . S
C237 H241 0.950 . S
H238 C234 0.950 1_556 S
C239 C237 1.390 . S
C239 C240 1.387 . S
C239 H242 0.950 . S
C240 C239 1.387 . S
C240 C243 1.387 . S
H241 C237 0.950 . S
H242 C239 0.950 . S
C243 C234 1.390 . S
C243 H236 0.950 1_554 S
C243 C240 1.387 . S
C244 C245 1.387 . S
C244 H248 0.950 . S
C244 C253 1.390 . S
C245 C244 1.387 . S
C245 C247 1.387 . S
H246 C253 0.950 . S
C247 C245 1.387 . S
C247 C249 1.390 . S
C247 H251 0.950 . S
H248 C244 0.950 . S
C249 C247 1.390 . S
C249 C250 1.387 . S
C249 H252 0.950 1_565 S
C250 C249 1.387 . S
C250 C253 1.387 . S
H251 C247 0.950 . S
H252 C249 0.950 1_545 S
C253 C244 1.390 . S
C253 H246 0.950 . S
C253 C250 1.387 . S
C254 C255 1.387 . S
C254 H258 0.950 . S
C254 C263 1.390 . S
C255 C254 1.387 . S
C255 C257 1.387 . S
H256 C263 0.950 . S
C257 C255 1.387 . S
C257 C259 1.390 . S
C257 H261 0.950 . S
H258 C254 0.950 . S
C259 C257 1.390 . S
C259 C260 1.387 . S
C259 H262 0.950 . S
C260 C259 1.387 . S
C260 C263 1.387 . S
H261 C257 0.950 . S
H262 C259 0.950 . S
C263 C254 1.390 . S
C263 H256 0.950 . S
C263 C260 1.387 . S
C264 C265 1.387 . S
C264 H268 0.950 . S
C264 C273 1.390 . S
C265 C264 1.387 . S
C265 C267 1.387 . S
H266 C273 0.950 . S
C267 C265 1.387 . S
C267 C269 1.390 . S
C267 H271 0.950 1_545 S
H268 C264 0.950 . S
C269 C267 1.390 . S
C269 C270 1.387 . S
C269 H272 0.950 1_545 S
C270 C269 1.387 . S
C270 C273 1.387 . S
H271 C267 0.950 1_565 S
H272 C269 0.950 1_565 S
C273 C264 1.390 . S
C273 H266 0.950 . S
C273 C270 1.387 . S
C274 C275 1.387 . S
C274 H278 0.950 . S
C274 C283 1.390 . S
C275 C274 1.387 . S
C275 C277 1.387 . S
H276 C283 0.950 . S
C277 C275 1.387 . S
C277 C279 1.390 . S
C277 H281 0.950 . S
H278 C274 0.950 . S
C279 C277 1.390 . S
C279 C280 1.387 . S
C279 H282 0.950 . S
C280 C279 1.387 . S
C280 C283 1.387 . S
H281 C277 0.950 . S
H282 C279 0.950 . S
C283 C274 1.390 . S
C283 H276 0.950 . S
C283 C280 1.387 . S
C284 C285 1.387 . S
C284 H288 0.950 . S
C284 C293 1.390 . S
C285 C284 1.387 . S
C285 C287 1.387 . S
H286 C293 0.950 . S
C287 C285 1.387 . S
C287 C289 1.390 . S
C287 H291 0.950 . S
H288 C284 0.950 . S
C289 C287 1.390 . S
C289 C290 1.387 . S
C289 H292 0.950 . S
C290 C289 1.387 . S
C290 C293 1.387 . S
H291 C287 0.950 . S
H292 C289 0.950 . S
C293 C284 1.390 . S
C293 H286 0.950 . S
C293 C290 1.387 . S
C294 C295 1.387 . S
C294 H298 0.950 . S
C294 C303 1.390 1_554 S
C295 C294 1.387 . S
C295 C297 1.387 1_554 S
H296 C303 0.950 1_565 S
C297 C295 1.387 1_556 S
C297 C299 1.390 . S
C297 H301 0.950 . S
H298 C294 0.950 . S
C299 C297 1.390 . S
C299 C300 1.387 . S
C299 H302 0.950 . S
C300 C299 1.387 . S
C300 C303 1.387 . S
H301 C297 0.950 . S
H302 C299 0.950 . S
C303 C294 1.390 1_556 S
C303 H296 0.950 1_545 S
C303 C300 1.387 . S
C304 C305 1.387 . S
C304 H308 0.950 . S
C304 C313 1.390 . S
C305 C304 1.387 . S
C305 C307 1.387 . S
H306 C313 0.950 . S
C307 C305 1.387 . S
C307 C309 1.390 . S
C307 H311 0.950 . S
H308 C304 0.950 . S
C309 C307 1.390 . S
C309 C310 1.387 . S
C309 H312 0.950 . S
C310 C309 1.387 . S
C310 C313 1.387 . S
H311 C307 0.950 . S
H312 C309 0.950 . S
C313 C304 1.390 . S
C313 H306 0.950 . S
C313 C310 1.387 . S
C314 C315 1.387 . S
C314 H318 0.950 1_565 S
C314 C323 1.390 . S
C315 C314 1.387 . S
C315 C317 1.387 . S
H316 C323 0.950 1_545 S
C317 C315 1.387 . S
C317 C319 1.390 . S
C317 H321 0.950 . S
H318 C314 0.950 1_545 S
C319 C317 1.390 . S
C319 C320 1.387 . S
C319 H322 0.950 . S
C320 C319 1.387 . S
C320 C323 1.387 . S
H321 C317 0.950 . S
H322 C319 0.950 . S
C323 C314 1.390 . S
C323 H316 0.950 1_565 S
C323 C320 1.387 . S
C210 C99 1.557 . S
C205 C34 1.572 . S
C215 C7 1.547 . S
C220 C194 1.542 . S
C225 C16 1.571 . S
C230 C110 1.558 . S
C235 C25 1.545 . S
C240 C183 1.541 . S
C250 C94 1.359 . S
C245 C5 1.523 . S
C260 C187 1.570 . S
C255 C13 1.560 . S
C265 C23 1.546 . S
C270 C103 1.567 . S
C275 C32 1.514 . S
C280 C178 1.364 . S
C290 C189 1.365 . S
C285 C14 1.511 . S
C300 C105 1.358 . S
C295 C22 1.521 . S
C310 C176 1.567 . S
C305 C31 1.561 . S
C315 C4 1.543 . S
C320 C92 1.565 . S
