# Generated by pormake.
# Topology zzz, (3,6)-cn, num edge types: 1
# Building blocks:
#     Node 0, Type 0, BuildingBlock: QEWDON_clean_linker_0, # of connection points: 3
#     Node 1, Type 0, BuildingBlock: QEWDON_clean_linker_0, # of connection points: 3
#     Node 2, Type 0, BuildingBlock: QEWDON_clean_linker_0, # of connection points: 3
#     Node 3, Type 0, BuildingBlock: QEWDON_clean_linker_0, # of connection points: 3
#     Node 4, Type 0, BuildingBlock: QEWDON_clean_linker_0, # of connection points: 3
#     Node 5, Type 0, BuildingBlock: QEWDON_clean_linker_0, # of connection points: 3
#     Node 6, Type 0, BuildingBlock: QEWDON_clean_linker_0, # of connection points: 3
#     Node 7, Type 0, BuildingBlock: QEWDON_clean_linker_0, # of connection points: 3
#     Node 8, Type 1, BuildingBlock: BETDIP_clean_sbu_0, # of connection points: 6
#     Node 9, Type 1, BuildingBlock: BETDIP_clean_sbu_0, # of connection points: 6
#     Node 10, Type 1, BuildingBlock: BETDIP_clean_sbu_0, # of connection points: 6
#     Node 11, Type 1, BuildingBlock: BETDIP_clean_sbu_0, # of connection points: 6
#     Edge 12, Type (0, 1), None
#     Edge 13, Type (0, 1), None
#     Edge 14, Type (0, 1), None
#     Edge 15, Type (0, 1), None
#     Edge 16, Type (0, 1), None
#     Edge 17, Type (0, 1), None
#     Edge 18, Type (0, 1), None
#     Edge 19, Type (0, 1), None
#     Edge 20, Type (0, 1), None
#     Edge 21, Type (0, 1), None
#     Edge 22, Type (0, 1), None
#     Edge 23, Type (0, 1), None
#     Edge 24, Type (0, 1), None
#     Edge 25, Type (0, 1), None
#     Edge 26, Type (0, 1), None
#     Edge 27, Type (0, 1), None
#     Edge 28, Type (0, 1), None
#     Edge 29, Type (0, 1), None
#     Edge 30, Type (0, 1), None
#     Edge 31, Type (0, 1), None
#     Edge 32, Type (0, 1), None
#     Edge 33, Type (0, 1), None
#     Edge 34, Type (0, 1), None
#     Edge 35, Type (0, 1), None
# Relax obj value: 0.442
# Max RMSD: 0.202
# Mean RMSD: 0.099
data_MOF--net-zzz--node1-BETDIP_clean_sbu_0--node2-QEWDON_clean_linker_0--edge1-none
_symmetry_space_group_name_H-M    P1
_symmetry_Int_Tables_number       1
_symmetry_cell_setting            triclinic
loop_
_symmetry_equiv_pos_as_xyz
'x, y, z'
_cell_length_a     26.830008
_cell_length_b     26.926935
_cell_length_c     8.3688916
_cell_angle_alpha  89.205341
_cell_angle_beta   90.327661
_cell_angle_gamma 89.727483
loop_
_atom_site_label
_atom_site_type_symbol
_atom_site_fract_x
_atom_site_fract_y
_atom_site_fract_z
_atom_type_partial_charge
H0 H 0.70179 0.51571 0.51833 0.0
C1 C 0.73898 0.51675 0.56919 0.0
C2 C 0.77943 0.49767 0.48231 0.0
C3 C 0.74774 0.53837 0.72069 0.0
H4 H 0.85832 0.48418 0.48008 0.0
C5 C 0.82737 0.49911 0.54747 0.0
C6 C 0.83677 0.52197 0.69137 0.0
C7 C 0.79728 0.54201 0.77692 0.0
C8 C 0.70649 0.55747 0.82259 0.0
H9 H 0.80532 0.55929 0.88981 0.0
C10 C 0.65998 0.53337 0.8301 0.0
C11 C 0.62175 0.55176 -0.07145 0.0
C12 C 0.71413 0.59969 0.91758 0.0
H13 H 0.74862 0.62031 0.91238 0.0
C14 C 0.67706 0.61669 0.01932 0.0
H15 H 0.65295 0.50149 0.75583 0.0
C16 C 0.63105 0.5932 0.02409 0.0
H17 H 0.60194 0.60845 0.09845 0.0
H18 H 0.68356 0.64912 0.0914 0.0
H19 H 0.04929 0.70623 0.53869 0.0
C20 C 0.0534 0.74255 0.59115 0.0
C21 C 0.08043 0.77947 0.50882 0.0
C22 C 0.03022 0.75388 0.73883 0.0
H23 H 0.10514 0.85543 0.5144 0.0
C24 C 0.08387 0.8267 0.57406 0.0
C25 C 0.05472 0.84031 0.70043 0.0
C26 C 0.03018 0.80377 0.78999 0.0
C27 C 1.00394 0.71496 0.83527 0.0
H28 H 1.01072 0.81458 0.89698 0.0
C29 C 1.02179 0.66565 0.8418 0.0
C30 C 0.99593 0.62859 -0.07196 0.0
C31 C 0.96054 0.72679 -0.0786 0.0
H32 H 0.94471 0.76381 0.91729 0.0
C33 C 0.93582 0.69052 0.01096 0.0
H34 H 0.05496 0.65578 0.77591 0.0
C35 C 0.95296 0.6416 0.01291 0.0
H36 H 0.93208 0.61364 0.07816 0.0
H37 H 0.9024 0.70014 0.07568 0.0
H38 H 0.83934 0.02459 0.52224 0.0
C39 C 0.80288 0.02599 0.577 0.0
C40 C 0.76277 0.04768 0.49215 0.0
C41 C 0.79485 1.00501 0.73136 0.0
H42 H 0.68486 0.06566 0.49429 0.0
C43 C 0.71561 0.04909 0.56115 0.0
C44 C 0.70634 0.02617 0.70679 0.0
C45 C 0.74576 1.00393 0.79176 0.0
C46 C 0.83685 0.98411 0.83021 0.0
H47 H 0.73816 0.98668 0.90633 0.0
C48 C 0.88426 1.00633 0.8277 0.0
C49 C 0.92424 0.98612 0.91831 0.0
C50 C 0.82973 0.94213 -0.07008 0.0
H51 H 0.79422 0.92327 -0.0661 0.0
C52 C 0.86878 0.92306 0.02376 0.0
H53 H 0.89037 0.03866 0.75198 0.0
C54 C 0.91592 0.94458 0.0171 0.0
H55 H 0.94619 0.92814 0.08628 0.0
H56 H 0.86274 0.89069 0.09917 0.0
H57 H 0.51112 0.83844 0.5039 0.0
C58 C 0.51051 0.80158 0.55733 0.0
C59 C 0.48904 0.76198 0.47309 0.0
C60 C 0.5326 0.79225 0.70954 0.0
H61 H 0.47226 0.68405 0.47622 0.0
C62 C 0.48866 0.71444 0.54182 0.0
C63 C 0.51242 0.70445 0.68581 0.0
C64 C 0.53445 0.74305 0.76916 0.0
C65 C 0.55459 0.83237 0.80843 0.0
H66 H 0.55232 0.73465 0.88251 0.0
C67 C 0.53143 0.87926 0.81993 0.0
C68 C 0.55208 0.91613 0.91828 0.0
C69 C 0.59835 0.82295 0.8983 0.0
H70 H 0.61802 0.78789 0.89 0.0
C71 C 0.61782 0.85876 -0.00071 0.0
H72 H 0.49833 0.88744 0.74942 0.0
C73 C 0.5951 0.90514 0.00873 0.0
H74 H 0.61206 0.93314 0.083 0.0
H75 H 0.65139 0.85092 0.06761 0.0
H76 H 0.22811 0.60609 0.00662 0.0
C77 C 0.20444 0.57407 -0.01077 0.0
C78 C 0.16759 0.5625 0.10079 0.0
C79 C 0.20965 0.54457 0.85287 0.0
H80 H 0.10802 0.51347 0.16422 0.0
C81 C 0.13719 0.52105 0.07815 0.0
C82 C 0.1365 0.49657 -0.06695 0.0
C83 C 0.17462 0.50688 0.82211 0.0
C84 C 0.24953 0.55581 0.73769 0.0
H85 H 0.17516 0.48814 0.70832 0.0
C86 C 0.29558 0.53129 0.75131 0.0
C87 C 0.33609 0.54594 0.65546 0.0
C88 C 0.24369 0.59451 0.62551 0.0
H89 H 0.20932 0.61571 0.61989 0.0
C90 C 0.28219 0.60601 0.5197 0.0
H91 H 0.30086 0.50372 0.84566 0.0
C92 C 0.32829 0.58193 0.53437 0.0
H93 H 0.3587 0.59403 0.45882 0.0
H94 H 0.27703 0.63523 0.43091 0.0
H95 H 0.94679 0.23873 -0.00584 0.0
C96 C 0.97796 0.21367 -0.0239 0.0
C97 C 0.98992 0.17798 0.09219 0.0
C98 C 1.00549 0.2157 0.83404 0.0
H99 H 0.03984 0.11932 0.16269 0.0
C100 C 0.03077 0.14639 0.06996 0.0
C101 C 0.05074 0.14041 0.91879 0.0
C102 C 0.04011 0.1773 0.80102 0.0
C103 C 0.99441 0.25622 0.71858 0.0
H104 H 0.0567 0.1751 0.68363 0.0
C105 C 1.01585 0.30307 0.74059 0.0
C106 C 0.9989 0.34462 0.65126 0.0
C107 C 0.95575 0.25122 0.60691 0.0
H108 H 0.93544 0.2167 0.59929 0.0
C109 C 0.94237 0.29103 0.50654 0.0
H110 H 0.04253 0.30787 0.83695 0.0
C111 C 0.96384 0.33764 0.52818 0.0
H112 H 0.95015 0.36884 0.45718 0.0
H113 H 0.91333 0.28645 0.41771 0.0
H114 H 0.31728 0.93135 0.00856 0.0
C115 C 0.33974 0.96417 -0.01168 0.0
C116 C 0.37623 0.97728 0.09983 0.0
C117 C 0.333 0.99354 0.84915 0.0
H118 H 0.43249 0.02976 0.16244 0.0
C119 C 0.40425 1.02034 0.0749 0.0
C120 C 0.40484 0.04392 -0.07369 0.0
C121 C 0.36718 0.03202 0.81453 0.0
C122 C 0.29137 0.98229 0.7389 0.0
H123 H 0.36598 0.05059 0.69884 0.0
C124 C 0.24506 1.0057 0.75937 0.0
C125 C 0.20259 0.99011 0.67354 0.0
C126 C 0.29553 0.944 0.628 0.0
H127 H 0.33024 0.92374 0.61638 0.0
C128 C 0.25459 0.93106 0.53319 0.0
H129 H 0.24149 0.03339 0.85152 0.0
C130 C 0.20819 0.95369 0.55634 0.0
H131 H 0.17625 0.94074 0.48924 0.0
H132 H 0.25829 0.90182 0.4465 0.0
H133 H 0.60074 0.31231 0.02313 0.0
C134 C 0.56859 0.33608 0.00183 0.0
C135 C 0.55696 0.37351 0.10971 0.0
C136 C 0.53926 0.33076 0.8632 0.0
H137 H 0.50727 0.43306 0.16677 0.0
C138 C 0.51527 0.4039 0.08237 0.0
C139 C 0.49169 0.40507 -0.06574 0.0
C140 C 0.50225 0.36671 0.82587 0.0
C141 C 0.55124 0.29082 0.75024 0.0
H142 H 0.4842 0.3665 0.70969 0.0
C143 C 0.52859 0.24411 0.76568 0.0
C144 C 0.54366 0.20431 0.66881 0.0
C145 C 0.58896 0.29765 0.63725 0.0
H146 H 0.60905 0.33239 0.63096 0.0
C147 C 0.60103 0.25974 0.53179 0.0
H148 H 0.50189 0.23798 0.86064 0.0
C149 C 0.57851 0.21325 0.54701 0.0
H150 H 0.59088 0.18349 0.47071 0.0
H151 H 0.62944 0.26576 0.44236 0.0
Tb152 Tb 0.08562 0.97697 -0.05466 0.0
Tb153 Tb 0.04084 1.00506 0.6546 0.0
C154 C 0.12267 0.9231 0.16069 0.0
C155 C 0.11363 0.86997 0.19723 0.0
C156 C 0.06562 0.84934 0.18623 0.0
C157 C 0.05702 0.80095 0.2431 0.0
C158 C 0.09398 0.77769 0.33808 0.0
C159 C 0.14373 0.79114 0.30654 0.0
C160 C 0.15353 0.83854 0.24179 0.0
C161 C 0.1524 1.00432 0.73061 0.0
C162 C 0.05093 0.89339 0.73182 0.0
C163 C 0.99793 0.02558 0.39794 0.0
C164 C 0.96868 0.07104 0.36688 0.0
C165 C 0.935 0.07446 0.2391 0.0
C166 C 0.92546 0.12104 0.16834 0.0
C167 C 0.95469 0.16176 0.21553 0.0
C168 C 0.97531 0.16039 0.36935 0.0
C169 C 0.98222 0.11465 0.44583 0.0
C170 C 0.97558 1.0038 0.89185 0.0
C171 C 0.06866 0.08948 0.88083 0.0
O172 O 0.08648 0.95513 0.18794 0.0
O173 O 0.14394 0.93074 0.0231 0.0
O174 O 0.11455 0.97761 0.70497 0.0
O175 O 0.14894 1.02137 0.87343 0.0
O176 O 0.05054 0.90835 0.87839 0.0
O177 O 0.05404 0.92637 0.61466 0.0
O178 O 0.04581 0.03304 0.42106 0.0
O179 O 0.97911 0.99475 0.50272 0.0
O180 O 1.00962 0.97271 0.86678 0.0
O181 O 0.98251 0.04034 0.79432 0.0
O182 O 0.07067 0.07645 0.72963 0.0
O183 O 0.06773 0.05434 -0.00511 0.0
H184 H 0.03411 0.87151 0.14621 0.0
H185 H 1.01866 0.78878 0.25197 0.0
H186 H 0.17392 0.77124 0.36586 0.0
H187 H 0.19143 0.85225 0.24141 0.0
H188 H 0.92076 0.04134 0.18432 0.0
H189 H 0.90625 0.12206 0.05404 0.0
H190 H 0.99847 0.19074 0.40805 0.0
H191 H 1.00574 0.11294 0.55047 0.0
Tb192 Tb 0.56658 0.07943 0.89591 0.0
Tb193 Tb 0.53995 0.03788 0.67825 0.0
C194 C 0.6288 0.1097 0.1014 0.0
C195 C 0.67984 0.09533 0.15003 0.0
C196 C 0.69598 0.04576 0.14321 0.0
C197 C 0.74002 0.03097 0.22103 0.0
C198 C 0.764 0.06428 0.32374 0.0
C199 C 0.75472 0.11534 0.29968 0.0
C200 C 0.71168 0.13077 0.21668 0.0
C201 C 0.53219 0.15266 0.71845 0.0
C202 C 0.65521 0.02469 0.76791 0.0
C203 C 0.52838 0.99227 0.42187 0.0
C204 C 0.48387 0.96202 0.38674 0.0
C205 C 0.43821 0.97414 0.45848 0.0
C206 C 0.39352 0.96403 0.37972 0.0
C207 C 0.39509 0.94363 0.22682 0.0
C208 C 0.43849 0.91719 0.18481 0.0
C209 C 0.4836 0.92801 0.26233 0.0
C210 C 0.53593 0.96841 0.90326 0.0
C211 C 0.45308 0.06628 0.87843 0.0
O212 O 0.59338 0.07808 0.13268 0.0
O213 O 0.62416 0.12849 -0.04116 0.0
O214 O 0.55768 0.11638 0.66794 0.0
O215 O 0.51942 0.14412 0.86488 0.0
O216 O 0.61994 0.05385 0.71294 0.0
O217 O 0.62094 0.05528 0.70526 0.0
O218 O 0.51945 0.03964 0.43585 0.0
O219 O 0.55744 0.97597 0.53558 0.0
O220 O 0.56952 1.00023 0.88703 0.0
O221 O 0.49941 0.98054 0.81039 0.0
O222 O 0.46546 0.06532 0.7284 0.0
O223 O 0.49052 0.06711 -0.01838 0.0
H224 H 0.67248 1.01771 0.09084 0.0
H225 H 0.7477 0.9915 0.23203 0.0
H226 H 0.774 0.14222 0.37245 0.0
H227 H 0.7008 0.16956 0.21865 0.0
H228 H 0.437 0.99775 0.56103 0.0
H229 H 0.3606 0.98402 0.41699 0.0
H230 H 0.44004 0.89806 0.07187 0.0
H231 H 0.51823 0.91416 0.21607 0.0
Tb232 Tb 0.45883 0.56732 0.88852 0.0
Tb233 Tb 0.50283 0.53885 0.67461 0.0
C234 C 0.42685 0.63048 0.08616 0.0
C235 C 0.44084 0.6812 0.13318 0.0
C236 C 0.49037 0.69737 0.12361 0.0
C237 C 0.50503 0.74082 0.20062 0.0
C238 C 0.47174 0.76407 0.30556 0.0
C239 C 0.42052 0.75482 0.28475 0.0
C240 C 0.40521 0.71245 0.20237 0.0
C241 C 0.38728 0.53332 0.70841 0.0
C242 C 0.5151 0.65357 0.74849 0.0
C243 C 0.55075 0.52582 0.42217 0.0
C244 C 0.57947 0.48003 0.39095 0.0
C245 C 0.56476 0.43548 0.46583 0.0
C246 C 0.57087 0.39061 0.38735 0.0
C247 C 0.59142 0.39073 0.23415 0.0
C248 C 0.62054 0.43195 0.18821 0.0
C249 C 0.61307 0.47744 0.26448 0.0
C250 C 0.56973 0.53571 0.90769 0.0
C251 C 0.47124 0.45388 0.88135 0.0
O252 O 0.45816 0.59483 0.12261 0.0
O253 O 0.40961 0.62594 -0.05771 0.0
O254 O 0.42432 0.55805 0.65858 0.0
O255 O 0.39424 0.52102 0.85674 0.0
O256 O 0.48575 0.61856 0.69841 0.0
O257 O 0.48443 0.61951 0.69091 0.0
O258 O 0.50278 0.51919 0.43285 0.0
O259 O 0.56707 0.55354 0.53647 0.0
O260 O 0.53815 0.56934 0.8829 0.0
O261 O 0.55899 0.4989 0.81751 0.0
O262 O 0.47368 0.46566 0.73029 0.0
O263 O 0.47011 0.49145 -0.01866 0.0
H264 H 0.51856 0.67418 0.07004 0.0
H265 H 0.54459 0.74843 0.20919 0.0
H266 H 0.39361 0.77349 0.35933 0.0
H267 H 0.36642 0.70152 0.2069 0.0
H268 H 0.54155 0.4359 0.57009 0.0
H269 H 0.54797 0.35977 0.42576 0.0
H270 H 0.63935 0.43225 0.07397 0.0
H271 H 0.62908 0.51085 0.21564 0.0
Tb272 Tb 0.97414 0.46602 0.89215 0.0
Tb273 Tb 1.00297 0.50998 0.67793 0.0
C274 C 0.9108 0.43398 0.0926 0.0
C275 C 0.8601 0.44809 0.14259 0.0
C276 C 0.84336 0.49738 0.12912 0.0
C277 C 0.79983 0.51226 0.20697 0.0
C278 C 0.77726 0.47955 0.31702 0.0
C279 C 0.78721 0.42845 0.30193 0.0
C280 C 0.82951 0.41287 0.21814 0.0
C281 C 1.00844 0.39505 0.71131 0.0
C282 C 0.88789 0.52442 0.7528 0.0
C283 C 1.01644 0.55874 0.42463 0.0
C284 C 0.0627 0.58638 0.39074 0.0
C285 C 0.10746 0.56992 0.46197 0.0
C286 C 0.15215 0.57528 0.37987 0.0
C287 C 0.15149 0.59655 0.22642 0.0
C288 C 0.11055 0.62706 0.18388 0.0
C289 C 0.06527 0.62068 0.26447 0.0
C290 C 1.00846 0.57561 0.90824 0.0
C291 C 0.08798 0.47563 0.883 0.0
O292 O 0.94669 0.46458 0.12723 0.0
O293 O 0.9149 0.41782 -0.05175 0.0
O294 O 0.98342 0.43231 0.66226 0.0
O295 O 1.01974 0.40049 0.86035 0.0
O296 O 0.92282 0.4946 0.70351 0.0
O297 O 0.9219 0.49332 0.69662 0.0
O298 O 1.02239 0.51074 0.43544 0.0
O299 O 0.98914 0.57513 0.54007 0.0
O300 O 0.97342 0.54565 0.88634 0.0
O301 O 0.04502 0.56319 0.81827 0.0
O302 O 0.07603 0.47889 0.73217 0.0
O303 O 0.05029 0.47479 -0.01607 0.0
H304 H 0.86624 0.52527 0.07171 0.0
H305 H 0.79178 0.5517 0.21174 0.0
H306 H 0.76915 0.40198 0.38095 0.0
H307 H 0.84096 0.37427 0.22616 0.0
H308 H 0.1071 0.54606 0.56604 0.0
H309 H 0.183 0.55161 0.41624 0.0
H310 H 0.11008 0.64658 0.06982 0.0
H311 H 0.0318 0.63812 0.21916 0.0
loop_
_geom_bond_atom_site_label_1
_geom_bond_atom_site_label_2
_geom_bond_distance
_geom_bond_site_symmetry_2
_ccdc_geom_bond_type
H0 C1 0.949 . S
C1 H0 0.949 . S
C1 C2 1.395 . S
C1 C3 1.391 . S
C2 C1 1.395 . S
C2 C5 1.390 . S
C3 C1 1.391 . S
C3 C7 1.387 . S
C3 C8 1.491 . S
H4 C5 0.950 . S
C5 C2 1.390 . S
C5 H4 0.950 . S
C5 C6 1.378 . S
C6 C5 1.378 . S
C6 C7 1.409 . S
C7 C3 1.387 . S
C7 C6 1.409 . S
C7 H9 0.951 1_556 S
C8 C3 1.491 . S
C8 C10 1.382 . S
C8 C12 1.404 . S
H9 C7 0.951 1_554 S
C10 C8 1.382 . S
C10 C11 1.390 . S
C10 H15 0.949 . S
C11 C10 1.390 . S
C11 C16 1.399 . S
C12 C8 1.404 . S
C12 H13 0.950 . S
C12 C14 1.375 . S
H13 C12 0.950 . S
C14 C12 1.375 . S
C14 C16 1.382 . S
C14 H18 0.950 . S
H15 C10 0.949 . S
C16 C11 1.399 . S
C16 C14 1.382 . S
C16 H17 0.952 . S
H17 C16 0.952 . S
H18 C14 0.950 . S
H19 C20 0.949 . S
C20 H19 0.949 . S
C20 C21 1.395 . S
C20 C22 1.391 . S
C21 C20 1.395 . S
C21 C24 1.390 1_655 S
C22 C20 1.391 . S
C22 C26 1.387 . S
C22 C27 1.491 . S
H23 C24 0.950 . S
C24 C21 1.390 1_455 S
C24 H23 0.950 . S
C24 C25 1.377 1_455 S
C25 C24 1.377 1_655 S
C25 C26 1.413 . S
C26 C22 1.387 . S
C26 C25 1.413 . S
C26 H28 0.951 1_556 S
C27 C22 1.491 . S
C27 C29 1.382 . S
C27 C31 1.404 . S
H28 C26 0.951 1_554 S
C29 C27 1.382 . S
C29 C30 1.390 . S
C29 H34 0.949 1_655 S
C30 C29 1.390 . S
C30 C35 1.399 . S
C31 C27 1.404 . S
C31 H32 0.950 . S
C31 C33 1.375 . S
H32 C31 0.950 . S
C33 C31 1.375 . S
C33 C35 1.382 . S
C33 H37 0.950 . S
H34 C29 0.949 1_455 S
C35 C30 1.399 . S
C35 C33 1.382 . S
C35 H36 0.952 . S
H36 C35 0.952 . S
H37 C33 0.950 . S
H38 C39 0.949 . S
C39 H38 0.949 . S
C39 C40 1.395 . S
C39 C41 1.391 . S
C40 C39 1.395 . S
C40 C43 1.390 1_565 S
C41 C39 1.391 . S
C41 C45 1.387 . S
C41 C46 1.491 . S
H42 C43 0.950 . S
C43 C40 1.390 1_545 S
C43 H42 0.950 . S
C43 C44 1.377 1_545 S
C44 C43 1.377 1_565 S
C44 C45 1.413 . S
C45 C41 1.387 . S
C45 C44 1.413 . S
C45 H47 0.951 1_556 S
C46 C41 1.491 . S
C46 C48 1.382 . S
C46 C50 1.404 . S
H47 C45 0.951 1_554 S
C48 C46 1.382 . S
C48 C49 1.390 . S
C48 H53 0.949 1_565 S
C49 C48 1.390 . S
C49 C54 1.399 . S
C50 C46 1.404 . S
C50 H51 0.950 . S
C50 C52 1.375 . S
H51 C50 0.950 . S
C52 C50 1.375 . S
C52 C54 1.382 . S
C52 H56 0.950 . S
H53 C48 0.949 1_545 S
C54 C49 1.399 . S
C54 C52 1.382 . S
C54 H55 0.952 . S
H55 C54 0.952 . S
H56 C52 0.950 . S
H57 C58 0.949 . S
C58 H57 0.949 . S
C58 C59 1.395 . S
C58 C60 1.391 . S
C59 C58 1.395 . S
C59 C62 1.390 . S
C60 C58 1.391 . S
C60 C64 1.387 . S
C60 C65 1.491 . S
H61 C62 0.950 . S
C62 C59 1.390 . S
C62 H61 0.950 . S
C62 C63 1.378 . S
C63 C62 1.378 . S
C63 C64 1.409 . S
C64 C60 1.387 . S
C64 C63 1.409 . S
C64 H66 0.951 1_556 S
C65 C60 1.491 . S
C65 C67 1.382 . S
C65 C69 1.404 . S
H66 C64 0.951 1_554 S
C67 C65 1.382 . S
C67 C68 1.390 . S
C67 H72 0.949 . S
C68 C67 1.390 . S
C68 C73 1.399 . S
C69 C65 1.404 . S
C69 H70 0.950 . S
C69 C71 1.375 . S
H70 C69 0.950 . S
C71 C69 1.375 . S
C71 C73 1.382 . S
C71 H75 0.950 . S
H72 C67 0.949 . S
C73 C68 1.399 . S
C73 C71 1.382 . S
C73 H74 0.952 . S
H74 C73 0.952 . S
H75 C71 0.950 . S
H76 C77 0.949 . S
C77 H76 0.949 . S
C77 C78 1.395 . S
C77 C79 1.391 1_554 S
C78 C77 1.395 . S
C78 C81 1.390 1_554 S
C79 C77 1.391 1_556 S
C79 C83 1.387 . S
C79 C84 1.491 . S
H80 C81 0.950 . S
C81 C78 1.390 1_556 S
C81 H80 0.950 . S
C81 C82 1.378 . S
C82 C81 1.378 . S
C82 C83 1.409 . S
C83 C79 1.387 . S
C83 C82 1.409 . S
C83 H85 0.951 . S
C84 C79 1.491 . S
C84 C86 1.382 1_556 S
C84 C88 1.404 . S
H85 C83 0.951 . S
C86 C84 1.382 1_554 S
C86 C87 1.390 . S
C86 H91 0.949 . S
C87 C86 1.390 . S
C87 C92 1.399 . S
C88 C84 1.404 . S
C88 H89 0.950 . S
C88 C90 1.375 . S
H89 C88 0.950 . S
C90 C88 1.375 . S
C90 C92 1.382 1_556 S
C90 H94 0.950 . S
H91 C86 0.949 . S
C92 C87 1.399 . S
C92 C90 1.382 1_554 S
C92 H93 0.952 . S
H93 C92 0.952 . S
H94 C90 0.950 . S
H95 C96 0.949 . S
C96 H95 0.949 . S
C96 C97 1.395 . S
C96 C98 1.391 1_554 S
C97 C96 1.395 . S
C97 C100 1.390 1_654 S
C98 C96 1.391 1_556 S
C98 C102 1.387 . S
C98 C103 1.491 . S
H99 C100 0.950 . S
C100 C97 1.390 1_456 S
C100 H99 0.950 . S
C100 C101 1.377 1_455 S
C101 C100 1.377 1_655 S
C101 C102 1.412 . S
C102 C98 1.387 . S
C102 C101 1.412 . S
C102 H104 0.951 . S
C103 C98 1.491 . S
C103 C105 1.382 1_556 S
C103 C107 1.404 . S
H104 C102 0.951 . S
C105 C103 1.382 1_554 S
C105 C106 1.390 . S
C105 H110 0.949 1_655 S
C106 C105 1.390 . S
C106 C111 1.399 . S
C107 C103 1.404 . S
C107 H108 0.950 . S
C107 C109 1.375 . S
H108 C107 0.950 . S
C109 C107 1.375 . S
C109 C111 1.382 1_556 S
C109 H113 0.950 . S
H110 C105 0.949 1_455 S
C111 C106 1.399 . S
C111 C109 1.382 1_554 S
C111 H112 0.952 . S
H112 C111 0.952 . S
H113 C109 0.950 . S
H114 C115 0.949 . S
C115 H114 0.949 . S
C115 C116 1.395 . S
C115 C117 1.391 1_554 S
C116 C115 1.395 . S
C116 C119 1.390 1_564 S
C117 C115 1.391 1_556 S
C117 C121 1.387 . S
C117 C122 1.491 . S
H118 C119 0.950 . S
C119 C116 1.390 1_546 S
C119 H118 0.950 . S
C119 C120 1.377 1_545 S
C120 C119 1.377 1_565 S
C120 C121 1.412 . S
C121 C117 1.387 . S
C121 C120 1.412 . S
C121 H123 0.951 . S
C122 C117 1.491 . S
C122 C124 1.382 1_556 S
C122 C126 1.404 . S
H123 C121 0.951 . S
C124 C122 1.382 1_554 S
C124 C125 1.390 . S
C124 H129 0.949 1_565 S
C125 C124 1.390 . S
C125 C130 1.399 . S
C126 C122 1.404 . S
C126 H127 0.950 . S
C126 C128 1.375 . S
H127 C126 0.950 . S
C128 C126 1.375 . S
C128 C130 1.382 1_556 S
C128 H132 0.950 . S
H129 C124 0.949 1_545 S
C130 C125 1.399 . S
C130 C128 1.382 1_554 S
C130 H131 0.952 . S
H131 C130 0.952 . S
H132 C128 0.950 . S
H133 C134 0.949 . S
C134 H133 0.949 . S
C134 C135 1.395 . S
C134 C136 1.391 1_554 S
C135 C134 1.395 . S
C135 C138 1.390 1_554 S
C136 C134 1.391 1_556 S
C136 C140 1.387 . S
C136 C141 1.491 . S
H137 C138 0.950 . S
C138 C135 1.390 1_556 S
C138 H137 0.950 . S
C138 C139 1.378 . S
C139 C138 1.378 . S
C139 C140 1.409 . S
C140 C136 1.387 . S
C140 C139 1.409 . S
C140 H142 0.951 . S
C141 C136 1.491 . S
C141 C143 1.382 1_556 S
C141 C145 1.404 . S
H142 C140 0.951 . S
C143 C141 1.382 1_554 S
C143 C144 1.390 . S
C143 H148 0.949 . S
C144 C143 1.390 . S
C144 C149 1.399 . S
C145 C141 1.404 . S
C145 H146 0.950 . S
C145 C147 1.375 . S
H146 C145 0.950 . S
C147 C145 1.375 . S
C147 C149 1.382 1_556 S
C147 H151 0.950 . S
H148 C143 0.949 . S
C149 C144 1.399 . S
C149 C147 1.382 1_554 S
C149 H150 0.952 . S
H150 C149 0.952 . S
H151 C147 0.950 . S
Tb152 C154 2.809 . S
Tb152 O172 2.484 . S
Tb152 O173 2.440 . S
Tb152 O174 2.658 1_564 S
Tb152 O175 2.409 1_554 S
Tb152 O176 2.378 1_554 S
Tb152 O180 2.325 1_455 S
Tb152 O183 2.341 1_565 S
Tb153 C163 2.809 . S
Tb153 O174 2.325 1_655 S
Tb153 O177 2.341 1_545 S
Tb153 O178 2.484 . S
Tb153 O179 2.440 . S
Tb153 O180 2.658 1_546 S
Tb153 O181 2.409 . S
Tb153 O182 2.378 . S
C154 Tb152 2.809 . S
C154 C155 1.514 . S
C154 O172 1.248 . S
C154 O173 1.266 . S
C155 C154 1.514 . S
C155 C156 1.359 . S
C155 C160 1.348 . S
C156 C155 1.359 . S
C156 C157 1.380 . S
C156 H184 0.929 1_455 S
C157 C156 1.380 . S
C157 C158 1.347 . S
C157 H185 0.931 . S
C158 C157 1.347 . S
C158 C159 1.369 . S
C159 C158 1.369 . S
C159 C160 1.408 . S
C159 H186 0.930 . S
C160 C155 1.348 . S
C160 C159 1.408 . S
C160 H187 0.930 . S
C161 O174 1.281 1_565 S
C161 O175 1.254 . S
C162 O176 1.236 1_655 S
C162 O177 1.266 . S
C163 Tb153 2.809 . S
C163 C164 1.514 . S
C163 O178 1.248 . S
C163 O179 1.266 . S
C164 C163 1.514 . S
C164 C165 1.359 . S
C164 C169 1.348 . S
C165 C164 1.359 . S
C165 C166 1.380 . S
C165 H188 0.929 1_655 S
C166 C165 1.380 . S
C166 C167 1.347 . S
C166 H189 0.931 . S
C167 C166 1.347 . S
C167 C168 1.369 . S
C168 C167 1.369 . S
C168 C169 1.408 . S
C168 H190 0.930 . S
C169 C164 1.348 . S
C169 C168 1.408 . S
C169 H191 0.930 . S
C170 O180 1.281 1_545 S
C170 O181 1.254 1_554 S
C171 O182 1.236 1_455 S
C171 O183 1.266 1_556 S
O172 Tb152 2.484 . S
O172 C154 1.248 . S
O173 Tb152 2.440 . S
O173 C154 1.266 . S
O174 Tb152 2.658 1_546 S
O174 Tb153 2.325 1_455 S
O174 C161 1.281 1_545 S
O175 Tb152 2.409 1_556 S
O175 C161 1.254 . S
O176 Tb152 2.378 1_556 S
O176 C162 1.236 1_455 S
O177 Tb153 2.341 1_565 S
O177 C162 1.266 . S
O178 Tb153 2.484 . S
O178 C163 1.248 . S
O179 Tb153 2.440 . S
O179 C163 1.266 . S
O180 Tb152 2.325 1_655 S
O180 Tb153 2.658 1_564 S
O180 C170 1.281 1_565 S
O181 Tb153 2.409 . S
O181 C170 1.254 1_556 S
O182 Tb153 2.378 . S
O182 C171 1.236 1_655 S
O183 Tb152 2.341 1_545 S
O183 C171 1.266 1_554 S
H184 C156 0.929 1_655 S
H185 C157 0.931 . S
H186 C159 0.930 . S
H187 C160 0.930 . S
H188 C165 0.929 1_455 S
H189 C166 0.931 . S
H190 C168 0.930 . S
H191 C169 0.930 . S
Tb192 C194 2.809 . S
Tb192 O212 2.484 . S
Tb192 O213 2.440 . S
Tb192 O214 2.658 1_554 S
Tb192 O215 2.409 1_554 S
Tb192 O216 2.378 1_554 S
Tb192 O220 2.325 1_545 S
Tb192 O223 2.341 . S
Tb193 C203 2.809 . S
Tb193 O214 2.325 1_565 S
Tb193 O217 2.341 . S
Tb193 O218 2.484 . S
Tb193 O219 2.440 . S
Tb193 O220 2.658 1_556 S
Tb193 O221 2.409 . S
Tb193 O222 2.378 . S
C194 Tb192 2.809 . S
C194 C195 1.514 . S
C194 O212 1.248 . S
C194 O213 1.266 . S
C195 C194 1.514 . S
C195 C196 1.359 . S
C195 C200 1.348 . S
C196 C195 1.359 . S
C196 C197 1.380 . S
C196 H224 0.929 1_545 S
C197 C196 1.380 . S
C197 C198 1.347 . S
C197 H225 0.931 1_545 S
C198 C197 1.347 . S
C198 C199 1.369 . S
C199 C198 1.369 . S
C199 C200 1.408 . S
C199 H226 0.930 . S
C200 C195 1.348 . S
C200 C199 1.408 . S
C200 H227 0.930 . S
C201 O214 1.281 . S
C201 O215 1.254 . S
C202 O216 1.236 1_565 S
C202 O217 1.266 . S
C203 Tb193 2.809 . S
C203 C204 1.514 . S
C203 O218 1.248 . S
C203 O219 1.266 . S
C204 C203 1.514 . S
C204 C205 1.359 . S
C204 C209 1.348 . S
C205 C204 1.359 . S
C205 C206 1.380 . S
C205 H228 0.929 1_565 S
C206 C205 1.380 . S
C206 C207 1.347 . S
C206 H229 0.931 1_565 S
C207 C206 1.347 . S
C207 C208 1.369 . S
C208 C207 1.369 . S
C208 C209 1.408 . S
C208 H230 0.930 . S
C209 C204 1.348 . S
C209 C208 1.408 . S
C209 H231 0.930 . S
C210 O220 1.281 . S
C210 O221 1.254 1_554 S
C211 O222 1.236 1_545 S
C211 O223 1.266 1_556 S
O212 Tb192 2.484 . S
O212 C194 1.248 . S
O213 Tb192 2.440 . S
O213 C194 1.266 . S
O214 Tb192 2.658 1_556 S
O214 Tb193 2.325 1_545 S
O214 C201 1.281 . S
O215 Tb192 2.409 1_556 S
O215 C201 1.254 . S
O216 Tb192 2.378 1_556 S
O216 C202 1.236 1_545 S
O217 Tb193 2.341 . S
O217 C202 1.266 . S
O218 Tb193 2.484 . S
O218 C203 1.248 . S
O219 Tb193 2.440 . S
O219 C203 1.266 . S
O220 Tb192 2.325 1_565 S
O220 Tb193 2.658 1_554 S
O220 C210 1.281 . S
O221 Tb193 2.409 . S
O221 C210 1.254 1_556 S
O222 Tb193 2.378 . S
O222 C211 1.236 1_565 S
O223 Tb192 2.341 . S
O223 C211 1.266 1_554 S
H224 C196 0.929 1_565 S
H225 C197 0.931 1_565 S
H226 C199 0.930 . S
H227 C200 0.930 . S
H228 C205 0.929 1_545 S
H229 C206 0.931 1_545 S
H230 C208 0.930 . S
H231 C209 0.930 . S
Tb232 C234 2.809 . S
Tb232 O252 2.484 . S
Tb232 O253 2.440 . S
Tb232 O254 2.658 1_554 S
Tb232 O255 2.409 1_554 S
Tb232 O256 2.378 1_554 S
Tb232 O260 2.325 . S
Tb232 O263 2.341 . S
Tb233 C243 2.809 . S
Tb233 O254 2.325 . S
Tb233 O257 2.341 . S
Tb233 O258 2.484 . S
Tb233 O259 2.440 . S
Tb233 O260 2.658 1_556 S
Tb233 O261 2.409 . S
Tb233 O262 2.378 . S
C234 Tb232 2.809 . S
C234 C235 1.514 . S
C234 O252 1.248 . S
C234 O253 1.266 . S
C235 C234 1.514 . S
C235 C236 1.359 . S
C235 C240 1.348 . S
C236 C235 1.359 . S
C236 C237 1.380 . S
C236 H264 0.929 . S
C237 C236 1.380 . S
C237 C238 1.347 . S
C237 H265 0.931 . S
C238 C237 1.347 . S
C238 C239 1.369 . S
C239 C238 1.369 . S
C239 C240 1.408 . S
C239 H266 0.930 . S
C240 C235 1.348 . S
C240 C239 1.408 . S
C240 H267 0.930 . S
C241 O254 1.281 . S
C241 O255 1.254 . S
C242 O256 1.236 . S
C242 O257 1.266 . S
C243 Tb233 2.809 . S
C243 C244 1.514 . S
C243 O258 1.248 . S
C243 O259 1.266 . S
C244 C243 1.514 . S
C244 C245 1.359 . S
C244 C249 1.348 . S
C245 C244 1.359 . S
C245 C246 1.380 . S
C245 H268 0.929 . S
C246 C245 1.380 . S
C246 C247 1.347 . S
C246 H269 0.931 . S
C247 C246 1.347 . S
C247 C248 1.369 . S
C248 C247 1.369 . S
C248 C249 1.408 . S
C248 H270 0.930 . S
C249 C244 1.348 . S
C249 C248 1.408 . S
C249 H271 0.930 . S
C250 O260 1.281 . S
C250 O261 1.254 1_554 S
C251 O262 1.236 . S
C251 O263 1.266 1_556 S
O252 Tb232 2.484 . S
O252 C234 1.248 . S
O253 Tb232 2.440 . S
O253 C234 1.266 . S
O254 Tb232 2.658 1_556 S
O254 Tb233 2.325 . S
O254 C241 1.281 . S
O255 Tb232 2.409 1_556 S
O255 C241 1.254 . S
O256 Tb232 2.378 1_556 S
O256 C242 1.236 . S
O257 Tb233 2.341 . S
O257 C242 1.266 . S
O258 Tb233 2.484 . S
O258 C243 1.248 . S
O259 Tb233 2.440 . S
O259 C243 1.266 . S
O260 Tb232 2.325 . S
O260 Tb233 2.658 1_554 S
O260 C250 1.281 . S
O261 Tb233 2.409 . S
O261 C250 1.254 1_556 S
O262 Tb233 2.378 . S
O262 C251 1.236 . S
O263 Tb232 2.341 . S
O263 C251 1.266 1_554 S
H264 C236 0.929 . S
H265 C237 0.931 . S
H266 C239 0.930 . S
H267 C240 0.930 . S
H268 C245 0.929 . S
H269 C246 0.931 . S
H270 C248 0.930 . S
H271 C249 0.930 . S
Tb272 C274 2.809 . S
Tb272 O292 2.484 . S
Tb272 O293 2.440 . S
Tb272 O294 2.658 1_654 S
Tb272 O295 2.409 1_554 S
Tb272 O296 2.378 1_554 S
Tb272 O300 2.325 . S
Tb272 O303 2.341 1_655 S
Tb273 C283 2.809 . S
Tb273 O294 2.325 . S
Tb273 O297 2.341 1_455 S
Tb273 O298 2.484 . S
Tb273 O299 2.440 . S
Tb273 O300 2.658 1_456 S
Tb273 O301 2.409 . S
Tb273 O302 2.378 . S
C274 Tb272 2.809 . S
C274 C275 1.514 . S
C274 O292 1.248 . S
C274 O293 1.266 . S
C275 C274 1.514 . S
C275 C276 1.359 . S
C275 C280 1.348 . S
C276 C275 1.359 . S
C276 C277 1.380 . S
C276 H304 0.929 . S
C277 C276 1.380 . S
C277 C278 1.347 . S
C277 H305 0.931 . S
C278 C277 1.347 . S
C278 C279 1.369 . S
C279 C278 1.369 . S
C279 C280 1.408 . S
C279 H306 0.930 . S
C280 C275 1.348 . S
C280 C279 1.408 . S
C280 H307 0.930 . S
C281 O294 1.277 1_655 S
C281 O295 1.258 . S
C282 O296 1.236 . S
C282 O297 1.266 . S
C283 Tb273 2.809 . S
C283 C284 1.514 . S
C283 O298 1.248 . S
C283 O299 1.266 . S
C284 C283 1.514 . S
C284 C285 1.359 . S
C284 C289 1.348 . S
C285 C284 1.359 . S
C285 C286 1.380 . S
C285 H308 0.929 . S
C286 C285 1.380 . S
C286 C287 1.347 . S
C286 H309 0.931 . S
C287 C286 1.347 . S
C287 C288 1.369 . S
C288 C287 1.369 . S
C288 C289 1.408 . S
C288 H310 0.930 . S
C289 C284 1.348 . S
C289 C288 1.408 . S
C289 H311 0.930 . S
C290 O300 1.276 1_455 S
C290 O301 1.260 1_554 S
C291 O302 1.236 . S
C291 O303 1.266 1_556 S
O292 Tb272 2.484 . S
O292 C274 1.248 . S
O293 Tb272 2.440 . S
O293 C274 1.266 . S
O294 Tb272 2.658 1_456 S
O294 Tb273 2.325 . S
O294 C281 1.277 1_455 S
O295 Tb272 2.409 1_556 S
O295 C281 1.258 . S
O296 Tb272 2.378 1_556 S
O296 C282 1.236 . S
O297 Tb273 2.341 1_655 S
O297 C282 1.266 . S
O298 Tb273 2.484 . S
O298 C283 1.248 . S
O299 Tb273 2.440 . S
O299 C283 1.266 . S
O300 Tb272 2.325 . S
O300 Tb273 2.658 1_654 S
O300 C290 1.276 1_655 S
O301 Tb273 2.409 . S
O301 C290 1.260 1_556 S
O302 Tb273 2.378 . S
O302 C291 1.236 . S
O303 Tb272 2.341 1_455 S
O303 C291 1.266 1_554 S
H304 C276 0.929 . S
H305 C277 0.931 . S
H306 C279 0.930 . S
H307 C280 0.930 . S
H308 C285 0.929 . S
H309 C286 0.931 . S
H310 C288 0.930 . S
H311 C289 0.930 . S
C125 C161 3.088 1_554 S
C201 C144 3.153 1_556 S
C241 C87 3.176 1_556 S
C281 C106 3.090 1_556 S
C170 C49 3.116 1_544 S
C68 C210 3.061 1_556 S
C11 C250 3.061 1_556 S
C30 C290 3.091 1_656 S
C167 C97 2.046 . S
C207 C116 1.898 . S
C247 C135 1.739 . S
C78 C287 1.864 . S
C21 C158 2.056 1_655 S
C198 C40 1.909 1_545 S
C238 C59 1.750 . S
C2 C278 1.875 . S
C101 C171 3.935 1_655 S
C120 C211 3.854 1_565 S
C251 C139 3.859 . S
C291 C82 3.937 . S
C25 C162 3.939 . S
C202 C44 3.853 . S
C242 C63 3.850 . S
C6 C282 3.934 . S
