# Generated by pormake.
# Topology zzz, (3,6)-cn, num edge types: 1
# Building blocks:
#     Node 0, Type 0, BuildingBlock: BETDAH_clean_linker_0, # of connection points: 3
#     Node 1, Type 0, BuildingBlock: BETDAH_clean_linker_0, # of connection points: 3
#     Node 2, Type 0, BuildingBlock: BETDAH_clean_linker_0, # of connection points: 3
#     Node 3, Type 0, BuildingBlock: BETDAH_clean_linker_0, # of connection points: 3
#     Node 4, Type 0, BuildingBlock: BETDAH_clean_linker_0, # of connection points: 3
#     Node 5, Type 0, BuildingBlock: BETDAH_clean_linker_0, # of connection points: 3
#     Node 6, Type 0, BuildingBlock: BETDAH_clean_linker_0, # of connection points: 3
#     Node 7, Type 0, BuildingBlock: BETDAH_clean_linker_0, # of connection points: 3
#     Node 8, Type 1, BuildingBlock: KUMBOL_clean_sbu_1, # of connection points: 6
#     Node 9, Type 1, BuildingBlock: KUMBOL_clean_sbu_1, # of connection points: 6
#     Node 10, Type 1, BuildingBlock: KUMBOL_clean_sbu_1, # of connection points: 6
#     Node 11, Type 1, BuildingBlock: KUMBOL_clean_sbu_1, # of connection points: 6
#     Edge 12, Type (0, 1), BuildingBlock: MIFKUJ_clean_linker_0, # of connection points: 2
#     Edge 13, Type (0, 1), BuildingBlock: MIFKUJ_clean_linker_0, # of connection points: 2
#     Edge 14, Type (0, 1), BuildingBlock: MIFKUJ_clean_linker_0, # of connection points: 2
#     Edge 15, Type (0, 1), BuildingBlock: MIFKUJ_clean_linker_0, # of connection points: 2
#     Edge 16, Type (0, 1), BuildingBlock: MIFKUJ_clean_linker_0, # of connection points: 2
#     Edge 17, Type (0, 1), BuildingBlock: MIFKUJ_clean_linker_0, # of connection points: 2
#     Edge 18, Type (0, 1), BuildingBlock: MIFKUJ_clean_linker_0, # of connection points: 2
#     Edge 19, Type (0, 1), BuildingBlock: MIFKUJ_clean_linker_0, # of connection points: 2
#     Edge 20, Type (0, 1), BuildingBlock: MIFKUJ_clean_linker_0, # of connection points: 2
#     Edge 21, Type (0, 1), BuildingBlock: MIFKUJ_clean_linker_0, # of connection points: 2
#     Edge 22, Type (0, 1), BuildingBlock: MIFKUJ_clean_linker_0, # of connection points: 2
#     Edge 23, Type (0, 1), BuildingBlock: MIFKUJ_clean_linker_0, # of connection points: 2
#     Edge 24, Type (0, 1), BuildingBlock: MIFKUJ_clean_linker_0, # of connection points: 2
#     Edge 25, Type (0, 1), BuildingBlock: MIFKUJ_clean_linker_0, # of connection points: 2
#     Edge 26, Type (0, 1), BuildingBlock: MIFKUJ_clean_linker_0, # of connection points: 2
#     Edge 27, Type (0, 1), BuildingBlock: MIFKUJ_clean_linker_0, # of connection points: 2
#     Edge 28, Type (0, 1), BuildingBlock: MIFKUJ_clean_linker_0, # of connection points: 2
#     Edge 29, Type (0, 1), BuildingBlock: MIFKUJ_clean_linker_0, # of connection points: 2
#     Edge 30, Type (0, 1), BuildingBlock: MIFKUJ_clean_linker_0, # of connection points: 2
#     Edge 31, Type (0, 1), BuildingBlock: MIFKUJ_clean_linker_0, # of connection points: 2
#     Edge 32, Type (0, 1), BuildingBlock: MIFKUJ_clean_linker_0, # of connection points: 2
#     Edge 33, Type (0, 1), BuildingBlock: MIFKUJ_clean_linker_0, # of connection points: 2
#     Edge 34, Type (0, 1), BuildingBlock: MIFKUJ_clean_linker_0, # of connection points: 2
#     Edge 35, Type (0, 1), BuildingBlock: MIFKUJ_clean_linker_0, # of connection points: 2
# Relax obj value: 0.148
# Max RMSD: 0.092
# Mean RMSD: 0.078
data_MOF--net-zzz--node1-KUMBOL_clean_sbu_1--node2-BETDAH_clean_linker_0--edge1-MIFKUJ_clean_linker_0
_symmetry_space_group_name_H-M    P1
_symmetry_Int_Tables_number       1
_symmetry_cell_setting            triclinic
loop_
_symmetry_equiv_pos_as_xyz
'x, y, z'
_cell_length_a     65.724874
_cell_length_b     65.761572
_cell_length_c     20.581939
_cell_angle_alpha  90.056193
_cell_angle_beta   89.879534
_cell_angle_gamma 90.51282
loop_
_atom_site_label
_atom_site_type_symbol
_atom_site_fract_x
_atom_site_fract_y
_atom_site_fract_z
_atom_type_partial_charge
H0 H 0.79802 0.5575 0.22603 0.0
H1 H 0.73895 0.54675 0.14807 0.0
H2 H 0.75344 0.52445 0.3396 0.0
C3 C 0.78267 0.55176 0.23361 0.0
C4 C 0.77807 0.54039 0.28955 0.0
C5 C 0.76897 0.55306 0.18215 0.0
C6 C 0.74908 0.546 0.18942 0.0
C7 C 0.74285 0.53639 0.24688 0.0
C8 C 0.75762 0.53319 0.297 0.0
N9 N 0.72244 0.52856 0.25234 0.0
C10 C 0.70742 0.52977 0.20336 0.0
H11 H 0.97291 0.8039 0.23412 0.0
H12 H 0.98035 0.74532 0.14576 0.0
H13 H 1.00196 0.75624 0.34085 0.0
C14 C 0.9774 0.78811 0.23797 0.0
C15 C 0.98705 0.78173 0.29473 0.0
C16 C 0.97545 0.77527 0.1839 0.0
C17 C 0.98188 0.75508 0.18793 0.0
C18 C 0.99124 0.74783 0.24443 0.0
C19 C 0.99418 0.76143 0.29771 0.0
N20 N 0.99843 0.72734 0.24759 0.0
C21 C 0.99727 0.71286 0.1971 0.0
H22 H 0.72543 0.97898 0.23079 0.0
H23 H 0.78556 0.98274 0.149 0.0
H24 H 0.77293 0.00921 0.33672 0.0
C25 C 0.74138 0.98306 0.23528 0.0
C26 C 0.74754 0.99343 0.29128 0.0
C27 C 0.75482 0.97929 0.18356 0.0
C28 C 0.77513 0.9858 0.18852 0.0
C29 C 0.78188 0.99685 0.24287 0.0
C30 C 0.76793 1.00069 0.29453 0.0
N31 N 0.80235 1.00455 0.24565 0.0
C32 C 0.81683 1.00325 0.19516 0.0
H33 H 0.55292 0.72926 0.23452 0.0
H34 H 0.54534 0.78771 0.14679 0.0
H35 H 0.52161 0.77608 0.33941 0.0
C36 C 0.54802 0.7449 0.23858 0.0
C37 C 0.53769 0.75092 0.29478 0.0
C38 C 0.55059 0.75791 0.18532 0.0
C39 C 0.5434 0.77785 0.18851 0.0
C40 C 0.53301 0.78477 0.24374 0.0
C41 C 0.5299 0.77106 0.29692 0.0
N42 N 0.52519 0.80509 0.24585 0.0
C43 C 0.52646 0.81962 0.19538 0.0
H44 H 0.22798 0.48356 0.03232 0.0
H45 H 0.28644 0.48886 0.12196 0.0
H46 H 0.28019 0.49909 0.91534 0.0
C47 C 0.24431 0.48569 0.02698 0.0
C48 C 0.25229 0.49078 0.96635 0.0
C49 C 0.2565 0.48555 0.08241 0.0
C50 C 0.27745 0.48871 0.07789 0.0
C51 C 0.28646 0.4933 0.01784 0.0
C52 C 0.27364 0.49476 0.96166 0.0
N53 N 0.30796 0.4974 0.014 0.0
C54 C 0.32171 0.49737 0.06689 0.0
H55 H 0.04949 0.23079 0.04906 0.0
H56 H 0.04319 0.28966 0.13597 0.0
H57 H 0.01992 0.27833 0.94293 0.0
C58 C 0.04509 0.24659 0.04479 0.0
C59 C 0.03522 0.25287 0.98822 0.0
C60 C 0.04782 0.25966 0.09793 0.0
C61 C 0.04112 0.27976 0.09437 0.0
C62 C 0.03104 0.28683 0.03893 0.0
C63 C 0.02791 0.27317 0.98572 0.0
N64 N 0.02358 0.30726 0.03667 0.0
C65 C 0.02486 0.32166 0.08755 0.0
H66 H 0.30097 0.03685 0.04886 0.0
H67 H 0.24154 0.03709 0.13417 0.0
H68 H 0.24877 0.04614 0.92704 0.0
C69 C 0.28464 0.03833 0.04294 0.0
C70 C 0.27675 0.04192 0.98118 0.0
C71 C 0.272 0.03637 0.09729 0.0
C72 C 0.251 0.03855 0.09128 0.0
C73 C 0.24227 0.04199 0.03011 0.0
C74 C 0.25529 0.0435 0.97454 0.0
N75 N 0.22065 0.04381 0.02371 0.0
C76 C 0.20649 0.04224 0.07509 0.0
H77 H 0.4843 0.30406 0.06025 0.0
H78 H 0.48994 0.24443 0.13853 0.0
H79 H 0.49416 0.25356 0.93041 0.0
C80 C 0.48579 0.28787 0.05113 0.0
C81 C 0.48845 0.28083 0.98761 0.0
C82 C 0.48632 0.27478 0.10421 0.0
C83 C 0.4892 0.25405 0.09592 0.0
C84 C 0.4919 0.24595 0.03355 0.0
C85 C 0.4918 0.25953 0.97884 0.0
N86 N 0.49509 0.2245 0.02579 0.0
C87 C 0.49583 0.21022 0.07717 0.0
C88 C 0.06188 0.04472 0.76881 0.0
C89 C 0.04363 0.06049 0.85791 0.0
C90 C 0.04441 0.04619 0.80687 0.0
C91 C 0.06025 0.0736 0.86885 0.0
C92 C 0.07875 0.05761 0.78052 0.0
C93 C 0.07776 0.07214 0.83035 0.0
N94 N 0.0623 0.03085 0.71988 0.0
C95 C 0.07936 0.02845 0.68297 0.0
C96 C 0.09611 0.05556 0.7416 0.0
C97 C 0.09646 0.04079 0.69293 0.0
Gd98 Gd 0.99313 0.02405 0.57633 0.0
Gd99 Gd 0.03293 0.01085 0.70698 0.0
N100 N 0.02834 0.03353 0.79449 0.0
C101 C 0.0263 0.06098 0.89732 0.0
C102 C 0.01225 0.03281 0.83651 0.0
C103 C 0.01068 0.04685 0.8872 0.0
H104 H 1.00099 0.02098 0.83357 0.0
H105 H 0.99765 0.04643 0.91943 0.0
H106 H 0.02379 1.00648 0.45644 0.0
H107 H 0.08008 0.01645 0.64779 0.0
H108 H 0.02335 0.97958 0.37411 0.0
H109 H 0.02521 0.07166 0.93722 0.0
H110 H 0.0598 0.08478 0.90751 0.0
H111 H 0.94641 0.02424 0.64258 0.0
H112 H 0.10939 0.06514 0.74922 0.0
H113 H 0.10997 0.03874 0.66352 0.0
H114 H 0.95687 0.94959 0.39385 0.0
H115 H 0.09052 0.08226 0.83975 0.0
H116 H 0.91146 0.97674 0.55365 0.0
H117 H 0.91449 1.0045 0.63435 0.0
N118 N 0.96174 1.00707 0.57024 0.0
C119 C 0.96023 0.99232 0.52415 0.0
C120 C 0.94552 0.01172 0.60888 0.0
C121 C 0.92562 0.9852 0.55767 0.0
C122 C 0.92729 1.00079 0.60349 0.0
C123 C 0.94214 0.98086 0.51703 0.0
H124 H 0.92736 0.95642 0.46395 0.0
N125 N 0.99437 0.99945 0.49351 0.0
C126 C 0.97693 0.98849 0.4844 0.0
C127 C 0.9929 0.96967 0.39752 0.0
C128 C 0.97585 0.9731 0.43674 0.0
C129 C 0.01062 0.99685 0.45311 0.0
C130 C 0.01027 0.98176 0.4053 0.0
O131 O 0.03082 0.0442 0.67584 0.0
O132 O 0.9971 0.04807 0.65481 0.0
O133 O 0.99847 0.04585 0.49938 0.0
O134 O 0.96781 0.04005 0.53372 0.0
O135 O 0.99939 1.00325 0.7299 0.0
O136 O 0.98182 0.02847 0.67886 0.0
O137 O 0.99581 0.99061 0.60503 0.0
O138 O 0.02944 0.98659 0.62858 0.0
O139 O 0.02943 0.9876 0.78095 0.0
O140 O 0.05944 0.99703 0.74932 0.0
O141 O 0.02649 0.03047 0.54922 0.0
O142 O 0.04585 1.00738 0.60535 0.0
C143 C 0.01459 0.05572 0.67417 0.0
C144 C 0.98295 0.01453 0.72427 0.0
C145 C 0.97706 0.07401 0.51183 0.0
C146 C 0.98961 0.1085 0.49578 0.0
C147 C 0.96037 0.10224 0.56553 0.0
C148 C 0.96175 0.08144 0.55318 0.0
C149 C 0.97416 0.11576 0.53686 0.0
C150 C 0.99093 0.08761 0.48371 0.0
C151 C 0.97969 0.05212 0.50082 0.0
C152 C 0.95791 0.96156 0.42993 0.0
C153 C 0.94111 0.96544 0.4699 0.0
H154 H 0.99269 0.95794 0.36051 0.0
C155 C 0.01204 0.9791 0.60756 0.0
C156 C 0.04345 0.02005 0.55639 0.0
C157 C 0.05453 0.96244 0.77273 0.0
C158 C 0.04833 0.92686 0.79751 0.0
C159 C 0.07555 0.9365 0.72335 0.0
C160 C 0.07049 0.95688 0.73083 0.0
C161 C 0.06467 0.92156 0.75683 0.0
C162 C 0.04356 0.94739 0.80585 0.0
C163 C 0.04886 0.98375 0.7817 0.0
H164 H 0.94856 0.1079 0.59726 0.0
H165 H 0.95098 0.07124 0.5765 0.0
H166 H 0.97249 0.13188 0.546 0.0
H167 H 1.00306 0.08182 0.45323 0.0
H168 H 0.08794 0.93225 0.69152 0.0
H169 H 0.07911 0.9682 0.704 0.0
H170 H 0.06899 0.90591 0.75039 0.0
H171 H 0.03138 0.95173 0.83853 0.0
C172 C 0.51366 0.94869 0.59791 0.0
C173 C 0.48641 0.93351 0.66184 0.0
C174 C 0.49534 0.95062 0.63154 0.0
C175 C 0.49613 0.91461 0.65858 0.0
C176 C 0.52341 0.9297 0.59444 0.0
C177 C 0.51457 0.91272 0.62503 0.0
N178 N 0.52216 0.96545 0.56983 0.0
C179 C 0.5398 0.96407 0.53508 0.0
C180 C 0.54181 0.92833 0.56038 0.0
C181 C 0.54997 0.94558 0.53028 0.0
Gd182 Gd 0.51981 0.03342 0.70861 0.0
Gd183 Gd 0.50305 0.99523 0.57713 0.0
N184 N 0.48641 0.96921 0.63536 0.0
C185 C 0.46787 0.93584 0.69423 0.0
C186 C 0.46808 0.97134 0.66564 0.0
C187 C 0.45868 0.95483 0.69622 0.0
H188 H 0.4602 0.98544 0.66481 0.0
H189 H 0.44414 0.95667 0.7201 0.0
H190 H 0.55766 0.04982 0.60782 0.0
H191 H 0.54573 0.977 0.50909 0.0
H192 H 0.57066 0.08187 0.56392 0.0
H193 H 0.46027 0.923 0.71636 0.0
H194 H 0.48949 0.90135 0.68189 0.0
H195 H 0.48768 0.04617 0.82745 0.0
H196 H 0.54972 0.914 0.55648 0.0
H197 H 0.56396 0.94459 0.50268 0.0
H198 H 0.53073 0.13274 0.66996 0.0
H199 H 0.52186 0.89803 0.62296 0.0
H200 H 0.48169 0.11094 0.82826 0.0
H201 H 0.47166 0.0772 0.87147 0.0
N202 N 0.50497 0.06208 0.75648 0.0
C203 C 0.51122 0.08045 0.73355 0.0
C204 C 0.49127 0.0608 0.80626 0.0
C205 C 0.48833 0.09734 0.80776 0.0
C206 C 0.48258 0.07834 0.83217 0.0
C207 C 0.50302 0.0986 0.75853 0.0
H208 H 0.50384 0.1315 0.75315 0.0
N209 N 0.53435 0.06336 0.66478 0.0
C210 C 0.52646 0.08114 0.68683 0.0
C211 C 0.5496 0.10021 0.61809 0.0
C212 C 0.53378 0.10002 0.66365 0.0
C213 C 0.55049 0.06358 0.62277 0.0
C214 C 0.55811 0.0819 0.59806 0.0
O215 O 0.52013 0.98439 0.66774 0.0
O216 O 0.50512 1.00407 0.74287 0.0
O217 O 0.54747 0.02228 0.7525 0.0
O218 O 0.52703 0.04148 0.80767 0.0
O219 O 0.47742 0.01557 0.61636 0.0
O220 O 0.48693 0.02358 0.72107 0.0
O221 O 0.50781 0.04934 0.6176 0.0
O222 O 0.51016 0.02626 0.53301 0.0
O223 O 0.47575 0.98742 0.52456 0.0
O224 O 0.50505 0.98382 0.47839 0.0
O225 O 0.54521 0.01711 0.65262 0.0
O226 O 0.53316 0.00958 0.55069 0.0
C227 C 0.51362 0.98679 0.72762 0.0
C228 C 0.4729 0.02204 0.67559 0.0
C229 C 0.56192 0.04445 0.8291 0.0
C230 C 0.59653 0.0443 0.86795 0.0
C231 C 0.5791 0.07631 0.85405 0.0
C232 C 0.56181 0.06581 0.8325 0.0
C233 C 0.59653 0.06561 0.87139 0.0
C234 C 0.5792 0.03383 0.8473 0.0
C235 C 0.54456 0.03265 0.80579 0.0
C236 C 0.52533 0.11811 0.68732 0.0
C237 C 0.51 0.1174 0.73465 0.0
H238 H 0.55562 0.1144 0.59908 0.0
C239 C 0.50815 0.04499 0.55499 0.0
C240 C 0.54837 0.01264 0.59083 0.0
C241 C 0.47746 0.99295 0.41154 0.0
C242 C 0.44888 1.00728 0.35332 0.0
C243 C 0.481 1.00209 0.2978 0.0
C244 C 0.48938 0.99442 0.35492 0.0
C245 C 0.46074 1.00825 0.29664 0.0
C246 C 0.45729 0.99958 0.41037 0.0
C247 C 0.48545 0.98352 0.47078 0.0
H248 H 0.57904 0.09274 0.85686 0.0
H249 H 0.54851 0.07433 0.81844 0.0
H250 H 0.60993 0.07387 0.88754 0.0
H251 H 0.57932 0.01735 0.84377 0.0
H252 H 0.49015 1.003 0.25412 0.0
H253 H 0.505 0.98933 0.35447 0.0
H254 H 0.45434 0.01383 0.25167 0.0
H255 H 0.44778 0.99806 0.45327 0.0
C256 C 0.45948 0.4936 0.75407 0.0
C257 C 0.47035 0.48172 0.86001 0.0
C258 C 0.47349 0.49376 0.80423 0.0
C259 C 0.45335 0.46869 0.86312 0.0
C260 C 0.4419 0.48122 0.75836 0.0
C261 C 0.43917 0.46842 0.81234 0.0
N262 N 0.46226 0.50668 0.70363 0.0
C263 C 0.44689 0.50971 0.66021 0.0
C264 C 0.42713 0.48276 0.70981 0.0
C265 C 0.42945 0.4974 0.66127 0.0
Gd266 Gd 0.53272 0.50708 0.57951 0.0
Gd267 Gd 0.49284 0.52575 0.70507 0.0
N268 N 0.48998 0.5062 0.79926 0.0
C269 C 0.48426 0.48341 0.91132 0.0
C270 C 0.50311 0.50863 0.85001 0.0
C271 C 0.5006 0.4971 0.90653 0.0
H272 H 0.51554 0.51943 0.84659 0.0
H273 H 0.51122 0.49879 0.94631 0.0
H274 H 0.50645 0.49613 0.44183 0.0
H275 H 0.44758 0.52203 0.62589 0.0
H276 H 0.50129 0.51107 0.33449 0.0
H277 H 0.48236 0.47446 0.9551 0.0
H278 H 0.45078 0.45911 0.90518 0.0
H279 H 0.5753 0.52714 0.63744 0.0
H280 H 0.41344 0.47347 0.71122 0.0
H281 H 0.41759 0.49957 0.62561 0.0
H282 H 0.55199 0.56366 0.32137 0.0
H283 H 0.42578 0.45879 0.81633 0.0
H284 H 0.59819 0.57057 0.5 0.0
H285 H 0.60122 0.55276 0.60548 0.0
N286 N 0.55727 0.53158 0.55334 0.0
C287 C 0.55588 0.54026 0.49375 0.0
C288 C 0.57367 0.53527 0.59229 0.0
C289 C 0.58669 0.55954 0.51425 0.0
C290 C 0.58844 0.54957 0.57391 0.0
C291 C 0.57041 0.55474 0.47293 0.0
H292 H 0.57941 0.57486 0.3945 0.0
N293 N 0.5275 0.5189 0.47288 0.0
C294 C 0.54022 0.53411 0.45296 0.0
C295 C 0.52386 0.53461 0.34795 0.0
C296 C 0.53873 0.54239 0.38997 0.0
C297 C 0.51446 0.50996 0.4297 0.0
C298 C 0.51196 0.51805 0.36761 0.0
O299 O 0.50712 0.49452 0.72109 0.0
O300 O 0.51071 0.48298 0.61771 0.0
O301 O 0.54754 0.48862 0.50644 0.0
O302 O 0.55742 0.48728 0.60638 0.0
O303 O 0.52591 0.53334 0.73091 0.0
O304 O 0.54391 0.50728 0.684 0.0
O305 O 0.53164 0.54121 0.60399 0.0
O306 O 0.4978 0.546 0.61748 0.0
O307 O 0.49847 0.55122 0.76879 0.0
O308 O 0.46751 0.5431 0.74305 0.0
O309 O 0.4996 0.49894 0.55439 0.0
O310 O 0.4824 0.52571 0.59891 0.0
C311 C 0.50808 0.47926 0.67992 0.0
C312 C 0.54195 0.52144 0.72869 0.0
C313 C 0.55606 0.4566 0.5496 0.0
C314 C 0.53803 0.42615 0.51535 0.0
C315 C 0.56273 0.42435 0.60241 0.0
C316 C 0.5666 0.44514 0.596 0.0
C317 C 0.54836 0.41487 0.56261 0.0
C318 C 0.54199 0.4469 0.50857 0.0
C319 C 0.55817 0.47882 0.54931 0.0
C320 C 0.55272 0.55738 0.36986 0.0
C321 C 0.56848 0.5636 0.41128 0.0
H322 H 0.52217 0.54058 0.29923 0.0
C323 C 0.51565 0.55304 0.59951 0.0
C324 C 0.48378 0.51117 0.55492 0.0
C325 C 0.47621 0.57794 0.7518 0.0
C326 C 0.4866 0.6131 0.7666 0.0
C327 C 0.4632 0.60402 0.68005 0.0
C328 C 0.46419 0.58361 0.69851 0.0
C329 C 0.47441 0.61876 0.71375 0.0
C330 C 0.4871 0.59275 0.78592 0.0
C331 C 0.47948 0.55665 0.76919 0.0
H332 H 0.57071 0.41562 0.63871 0.0
H333 H 0.57744 0.45239 0.62839 0.0
H334 H 0.54543 0.39874 0.56821 0.0
H335 H 0.53355 0.45547 0.47276 0.0
H336 H 0.45405 0.60837 0.63879 0.0
H337 H 0.45594 0.57232 0.67042 0.0
H338 H 0.47384 0.63444 0.69794 0.0
H339 H 0.49631 0.5883 0.82716 0.0
C340 C 0.03432 0.4633 0.76939 0.0
C341 C 0.04416 0.47463 0.87728 0.0
C342 C 0.03335 0.47771 0.81895 0.0
C343 C 0.0568 0.45768 0.88356 0.0
C344 C 0.04645 0.44585 0.77674 0.0
C345 C 0.05798 0.44336 0.8334 0.0
N346 N 0.02303 0.46604 0.71478 0.0
C347 C 0.02168 0.451 0.66913 0.0
C348 C 0.04631 0.43117 0.72749 0.0
C349 C 0.03361 0.43361 0.67396 0.0
Gd350 Gd 0.02277 0.53541 0.58017 0.0
Gd351 Gd 1.00415 0.49615 0.71076 0.0
N352 N 0.02095 0.49401 0.81185 0.0
C353 C 0.04137 0.48824 0.92874 0.0
C354 C 0.01693 0.50628 0.86416 0.0
C355 C 0.02737 0.50388 0.92255 0.0
H356 H 1.00528 0.51774 0.86201 0.0
H357 H 0.02432 0.5139 0.96312 0.0
H358 H 0.01969 0.50659 0.44614 0.0
H359 H 0.01094 0.45187 0.62994 0.0
H360 H 1.00166 0.50663 0.34161 0.0
H361 H 0.0493 0.48629 0.97438 0.0
H362 H 0.06534 0.45521 0.92779 0.0
H363 H 0.01969 0.58394 0.63796 0.0
H364 H 0.05542 0.41758 0.73139 0.0
H365 H 0.0327 0.42193 0.63696 0.0
H366 H 0.96733 0.57064 0.33858 0.0
H367 H 0.06748 0.43013 0.83959 0.0
H368 H 0.9792 0.61658 0.51503 0.0
H369 H 1.001 0.61514 0.61258 0.0
N370 N 1.00691 0.56687 0.55945 0.0
C371 C 0.9961 0.56781 0.50329 0.0
C372 C 0.00951 0.58398 0.59674 0.0
C373 C 0.98698 0.60261 0.5268 0.0
C374 C 0.99923 0.60186 0.58191 0.0
C375 C 0.9857 0.58567 0.4858 0.0
H376 H 0.96676 0.59988 0.41307 0.0
N377 N 0.00713 0.53457 0.47802 0.0
C378 C 0.99647 0.55135 0.46099 0.0
C379 C 0.98796 0.53581 0.35788 0.0
C380 C 0.9864 0.55231 0.4006 0.0
C381 C 0.00981 0.51905 0.43483 0.0
C382 C 0.99992 0.51922 0.37485 0.0
O383 O 0.03819 0.49674 0.68805 0.0
O384 O 0.04328 0.53053 0.66836 0.0
O385 O 0.04934 0.53016 0.52037 0.0
O386 O 0.0426 0.56088 0.55591 0.0
O387 O 0.01099 0.52733 0.75313 0.0
O388 O 0.00891 0.55028 0.66938 0.0
O389 O 0.99134 0.52238 0.56128 0.0
O390 O 0.98 0.51684 0.66526 0.0
O391 O 0.98254 0.49511 0.78874 0.0
O392 O 0.98355 0.46989 0.72044 0.0
O393 O 0.02944 0.50171 0.56352 0.0
O394 O 1.00104 0.48616 0.60513 0.0
C395 C 0.05023 0.51285 0.68822 0.0
C396 C 0.0089 0.54595 0.73158 0.0
C397 C 0.07211 0.55732 0.48741 0.0
C398 C 0.10404 0.55079 0.43358 0.0
C399 C 0.09129 0.58521 0.43968 0.0
C400 C 0.07427 0.57815 0.47387 0.0
C401 C 0.10617 0.57157 0.4193 0.0
C402 C 0.087 0.54376 0.4673 0.0
C403 C 0.05424 0.5494 0.521 0.0
C404 C 0.97533 0.56972 0.38444 0.0
C405 C 0.97496 0.58635 0.42695 0.0
H406 H 0.9804 0.53593 0.31117 0.0
C407 C 0.97633 0.52041 0.60317 0.0
C408 C 0.01589 0.48681 0.562 0.0
C409 C 0.95521 0.47157 0.79445 0.0
C410 C 0.92328 0.48086 0.8457 0.0
C411 C 0.93277 0.44534 0.83697 0.0
C412 C 0.95078 0.45101 0.80578 0.0
C413 C 0.91912 0.46016 0.85733 0.0
C414 C 0.94129 0.48648 0.8136 0.0
C415 C 0.9758 0.4771 0.77384 0.0
H416 H 0.09297 0.60125 0.42906 0.0
H417 H 0.06277 0.58885 0.48903 0.0
H418 H 0.11944 0.57722 0.3935 0.0
H419 H 0.08536 0.52764 0.47764 0.0
H420 H 0.92957 0.42945 0.84649 0.0
H421 H 0.96163 0.43938 0.79267 0.0
H422 H 0.90527 0.45544 0.88186 0.0
H423 H 0.94489 0.50245 0.80641 0.0
H424 H 0.16704 0.05283 0.06178 0.0
H425 H 0.13948 0.04965 0.14183 0.0
H426 H 0.18183 0.02537 0.28086 0.0
H427 H 0.20932 0.02819 0.19992 0.0
H428 H 0.14792 1.00377 0.28433 0.0
H429 H 0.16126 0.07649 0.2861 0.0
H430 H 0.16445 0.11043 0.23589 0.0
H431 H 0.1027 0.10626 0.16896 0.0
H432 H 0.09926 0.0722 0.21801 0.0
H433 H 0.08121 1.00163 0.55238 0.0
H434 H 0.1091 1.00777 0.47793 0.0
H435 H 0.07041 0.04589 0.36152 0.0
H436 H 0.04368 0.04285 0.44352 0.0
H437 H 0.10277 0.0608 0.3439 0.0
H438 H 0.08802 0.9892 0.33093 0.0
H439 H 0.08293 0.95437 0.37276 0.0
H440 H 0.14401 0.95441 0.44662 0.0
H441 H 0.14935 0.98932 0.40594 0.0
C442 C 0.17047 0.04691 0.10958 0.0
C443 C 0.19036 0.04084 0.1245 0.0
C444 C 0.15468 0.0452 0.1557 0.0
C445 C 0.15838 0.03754 0.2185 0.0
C446 C 0.17838 0.03141 0.23322 0.0
C447 C 0.19417 0.03307 0.18691 0.0
C448 C 0.14142 0.03529 0.26795 0.0
C449 C 0.13821 0.01635 0.29786 0.0
C450 C 0.12798 0.0513 0.28437 0.0
C451 C 0.13008 0.07177 0.25522 0.0
C452 C 0.14843 0.08278 0.2603 0.0
C453 C 0.15026 0.10203 0.2321 0.0
C454 C 0.1338 0.11048 0.19913 0.0
C455 C 0.11545 0.0997 0.19442 0.0
C456 C 0.11354 0.08043 0.22244 0.0
C457 C 0.07878 0.01205 0.51267 0.0
C458 C 0.06019 0.02234 0.50633 0.0
C459 C 0.09473 0.01496 0.46786 0.0
C460 C 0.09216 0.0268 0.41135 0.0
C461 C 0.0733 0.0367 0.40404 0.0
C462 C 0.05777 0.03479 0.45113 0.0
C463 C 0.109 0.02908 0.36072 0.0
C464 C 0.11227 0.04807 0.33047 0.0
C465 C 0.12212 0.01291 0.34234 0.0
C466 C 0.11901 0.99187 0.36587 0.0
C467 C 0.10032 0.98177 0.35626 0.0
C468 C 0.09739 0.96203 0.3798 0.0
C469 C 0.11312 0.9522 0.41243 0.0
C470 C 0.13183 0.96205 0.4214 0.0
C471 C 0.13483 0.98179 0.39807 0.0
H472 H 0.11082 0.93692 0.43069 0.0
H473 H 0.13526 0.12539 0.17734 0.0
H474 H 0.47029 0.20361 0.18073 0.0
H475 H 0.472 0.17622 0.26184 0.0
H476 H 0.52621 0.15354 0.16944 0.0
H477 H 0.52414 0.18062 0.08774 0.0
H478 H 0.50336 0.12256 0.19947 0.0
H479 H 0.52467 0.18176 0.32357 0.0
H480 H 0.52007 0.21627 0.36805 0.0
H481 H 0.46563 0.1966 0.46621 0.0
H482 H 0.46977 0.16206 0.42154 0.0
H483 H 0.52828 0.04897 0.43841 0.0
H484 H 0.52749 0.07713 0.3615 0.0
H485 H 0.48337 0.10758 0.48223 0.0
H486 H 0.48616 0.08039 0.56265 0.0
H487 H 0.50082 0.1353 0.43656 0.0
H488 H 0.47468 0.07953 0.30951 0.0
H489 H 0.47374 0.0458 0.25817 0.0
H490 H 0.53088 0.05809 0.1639 0.0
H491 H 0.53188 0.09227 0.21368 0.0
C492 C 0.48262 0.19282 0.17798 0.0
C493 C 0.49713 0.19437 0.12775 0.0
C494 C 0.48369 0.17714 0.22482 0.0
C495 C 0.49946 0.16266 0.22332 0.0
C496 C 0.51389 0.16432 0.17267 0.0
C497 C 0.51276 0.17992 0.12584 0.0
C498 C 0.50084 0.1456 0.27302 0.0
C499 C 0.50305 0.12546 0.25136 0.0
C500 C 0.49968 0.14881 0.3412 0.0
C501 C 0.49744 0.16943 0.36885 0.0
C502 C 0.51168 0.18485 0.35442 0.0
C503 C 0.50915 0.2044 0.37965 0.0
C504 C 0.49255 0.20864 0.41982 0.0
C505 C 0.47847 0.19331 0.43504 0.0
C506 C 0.48091 0.17375 0.40983 0.0
C507 C 0.51839 0.06168 0.4485 0.0
C508 C 0.50709 0.06217 0.50669 0.0
C509 C 0.51764 0.07785 0.40352 0.0
C510 C 0.50469 0.09468 0.41307 0.0
C511 C 0.49352 0.09511 0.47192 0.0
C512 C 0.49497 0.07935 0.51826 0.0
C513 C 0.50312 0.11192 0.36334 0.0
C514 C 0.50102 0.13219 0.38485 0.0
C515 C 0.50375 0.10878 0.2948 0.0
C516 C 0.50347 0.08824 0.26592 0.0
C517 C 0.4871 0.07495 0.2782 0.0
C518 C 0.48656 0.05576 0.24929 0.0
C519 C 0.50237 0.04961 0.20843 0.0
C520 C 0.51868 0.0628 0.1958 0.0
C521 C 0.5192 0.08214 0.22402 0.0
H522 H 0.5019 0.0347 0.18618 0.0
H523 H 0.4906 0.2238 0.43924 0.0
H524 H 0.32277 0.47711 0.18356 0.0
H525 H 0.34991 0.47814 0.26581 0.0
H526 H 0.38378 0.52068 0.1474 0.0
H527 H 0.35688 0.51922 0.06492 0.0
H528 H 0.40979 0.49572 0.19544 0.0
H529 H 0.35526 0.53395 0.29356 0.0
H530 H 0.32022 0.5389 0.33338 0.0
H531 H 0.32705 0.48898 0.46573 0.0
H532 H 0.36204 0.48359 0.42603 0.0
H533 H 0.45461 0.53905 0.52006 0.0
H534 H 0.42743 0.53573 0.43943 0.0
H535 H 0.44812 0.47562 0.39117 0.0
H536 H 0.475 0.4786 0.47332 0.0
H537 H 0.395 0.50919 0.4278 0.0
H538 H 0.44245 0.46562 0.25595 0.0
H539 H 0.47745 0.46332 0.21252 0.0
H540 H 0.48402 0.52828 0.22498 0.0
H541 H 0.44927 0.53079 0.27015 0.0
C542 C 0.336 0.48671 0.17523 0.0
C543 C 0.33758 0.49816 0.11763 0.0
C544 C 0.35157 0.4874 0.22263 0.0
C545 C 0.36912 0.49973 0.2142 0.0
C546 C 0.37062 0.51101 0.15607 0.0
C547 C 0.35512 0.51026 0.10876 0.0
C548 C 0.38587 0.50098 0.26513 0.0
C549 C 0.40633 0.49856 0.24617 0.0
C550 C 0.382 0.50484 0.33206 0.0
C551 C 0.36114 0.50827 0.35646 0.0
C552 C 0.34923 0.52398 0.33093 0.0
C553 C 0.32939 0.52687 0.35347 0.0
C554 C 0.32139 0.51423 0.40193 0.0
C555 C 0.33324 0.49873 0.42813 0.0
C556 C 0.35308 0.49577 0.40568 0.0
C557 C 0.45341 0.52502 0.49266 0.0
C558 C 0.46727 0.50912 0.50385 0.0
C559 C 0.43776 0.52317 0.4461 0.0
C560 C 0.43559 0.50551 0.40786 0.0
C561 C 0.44946 0.48961 0.41865 0.0
C562 C 0.46494 0.49134 0.466 0.0
C563 C 0.4187 0.50368 0.35793 0.0
C564 C 0.39829 0.5061 0.3771 0.0
C565 C 0.42253 0.49987 0.29126 0.0
C566 C 0.44347 0.49836 0.26637 0.0
C567 C 0.45146 0.47935 0.24953 0.0
C568 C 0.47123 0.47802 0.22486 0.0
C569 C 0.48293 0.49565 0.21583 0.0
C570 C 0.47493 0.51464 0.23189 0.0
C571 C 0.4553 0.51601 0.25764 0.0
H572 H 0.49822 0.4946 0.19659 0.0
H573 H 0.30602 0.51647 0.41928 0.0
H574 H 0.05406 0.33068 0.17838 0.0
H575 H 0.05404 0.35876 0.25752 0.0
H576 H 0.99536 0.37755 0.18727 0.0
H577 H 0.99571 0.34982 0.1074 0.0
H578 H 0.01636 0.41017 0.20777 0.0
H579 H 1.00362 0.35104 0.3385 0.0
H580 H 0.01057 0.31682 0.38158 0.0
H581 H 0.06751 0.33814 0.45919 0.0
H582 H 0.06102 0.37242 0.41562 0.0
H583 H 0.98549 0.46324 0.50814 0.0
H584 H 0.98849 0.43591 0.42708 0.0
H585 H 0.0535 0.44447 0.42322 0.0
H586 H 0.05053 0.47234 0.50251 0.0
H587 H 0.03049 0.39874 0.44148 0.0
H588 H 0.04374 0.45737 0.30424 0.0
H589 H 0.03643 0.4914 0.26037 0.0
H590 H 0.9776 0.47053 0.1971 0.0
H591 H 0.98451 0.43643 0.24157 0.0
C592 C 0.04115 0.34079 0.18007 0.0
C593 C 0.02482 0.33794 0.13677 0.0
C594 C 0.04106 0.35687 0.22571 0.0
C595 C 0.02454 0.37043 0.22986 0.0
C596 C 0.00834 0.36753 0.18591 0.0
C597 C 0.00847 0.35153 0.14026 0.0
C598 C 0.02403 0.3876 0.27933 0.0
C599 C 0.01931 0.40745 0.25884 0.0
C600 C 0.02813 0.38465 0.34651 0.0
C601 C 0.03194 0.36418 0.37328 0.0
C602 C 0.01768 0.34837 0.36441 0.0
C603 C 0.02153 0.32898 0.38892 0.0
C604 C 0.03949 0.32529 0.42295 0.0
C605 C 0.05362 0.34101 0.43272 0.0
C606 C 0.04986 0.36042 0.40815 0.0
C607 C 1.00044 0.45936 0.48999 0.0
C608 C 0.01775 0.47009 0.51217 0.0
C609 C 1.00214 0.4437 0.44347 0.0
C610 C 0.02123 0.43799 0.41867 0.0
C611 C 0.03858 0.44851 0.44125 0.0
C612 C 0.03684 0.46453 0.4866 0.0
C613 C 0.02295 0.42105 0.36948 0.0
C614 C 0.02769 0.40131 0.39024 0.0
C615 C 0.01887 0.42404 0.30267 0.0
C616 C 0.01451 0.44451 0.27698 0.0
C617 C 0.02915 0.46014 0.28173 0.0
C618 C 0.02513 0.47938 0.25642 0.0
C619 C 1.00656 0.48312 0.22589 0.0
C620 C 0.99197 0.46761 0.22073 0.0
C621 C 0.99593 0.44833 0.24595 0.0
H622 H 1.00347 0.49805 0.20639 0.0
H623 H 0.04245 0.31026 0.44187 0.0
H624 H 0.82505 0.03232 0.10501 0.0
H625 H 0.85305 0.03323 0.02599 0.0
H626 H 0.87316 0.97469 0.09349 0.0
H627 H 0.84531 0.97408 0.17366 0.0
H628 H 0.90542 0.99745 0.07418 0.0
H629 H 0.84771 0.98175 0.943 0.0
H630 H 0.81303 0.98609 0.90003 0.0
H631 H 0.82965 0.04496 0.82574 0.0
H632 H 0.86436 0.04108 0.86919 0.0
H633 H 0.97484 0.98289 0.80888 0.0
H634 H 0.94672 0.97952 0.88669 0.0
H635 H 0.92418 0.03806 0.82801 0.0
H636 H 0.95201 0.04131 0.74967 0.0
H637 H 0.89313 0.0137 0.84241 0.0
H638 H 0.95144 0.02879 0.97638 0.0
H639 H 0.98618 0.023 0.01698 0.0
H640 H 0.96842 0.96357 0.08373 0.0
H641 H 0.93363 0.9689 0.04266 0.0
C642 C 0.83537 0.01959 0.10265 0.0
C643 C 0.83288 1.00308 0.14532 0.0
C644 C 0.85142 0.02005 0.05714 0.0
C645 C 0.86534 1.0039 0.05241 0.0
C646 C 0.86279 0.98739 0.09547 0.0
C647 C 0.84676 0.98697 0.14117 0.0
C648 C 0.8825 1.00433 1.00311 0.0
C649 C 0.9026 1.00075 0.02339 0.0
C650 C 0.87927 0.00888 0.93649 0.0
C651 C 0.85853 0.0112 0.90983 0.0
C652 C 0.84391 0.99567 0.91785 0.0
C653 C 0.82426 0.99804 0.89339 0.0
C654 C 0.81912 0.01581 0.86031 0.0
C655 C 0.83365 0.03122 0.85145 0.0
C656 C 0.85331 0.02894 0.87594 0.0
C657 C 0.96389 0.99505 0.81246 0.0
C658 C 0.96574 0.01231 0.77226 0.0
C659 C 0.94778 0.99317 0.85746 0.0
C660 C 0.93319 0.00864 0.8645 0.0
C661 C 0.93502 0.02582 0.82405 0.0
C662 C 0.95104 0.02766 0.77894 0.0
C663 C 0.91606 1.00707 0.91358 0.0
C664 C 0.89595 0.01042 0.89322 0.0
C665 C 0.91929 1.00218 0.97997 0.0
C666 C 0.94001 0.99918 0.00607 0.0
C667 C 0.95498 0.01446 0.99952 0.0
C668 C 0.97467 0.01126 0.02255 0.0
C669 C 0.97952 0.99291 0.05277 0.0
C670 C 0.96465 0.97776 0.06026 0.0
C671 C 0.94494 0.98087 0.03717 0.0
H672 H 0.99479 0.99045 0.0705 0.0
H673 H 0.8039 0.01762 0.84142 0.0
H674 H 0.55141 0.82587 0.08952 0.0
H675 H 0.55018 0.85409 0.01106 0.0
H676 H 0.49965 0.87972 0.1161 0.0
H677 H 0.50063 0.85133 0.193 0.0
H678 H 0.49131 0.88362 0.9977 0.0
H679 H 0.5517 0.89974 0.11584 0.0
H680 H 0.58593 0.89506 0.1619 0.0
H681 H 0.61047 0.88676 0.97023 0.0
H682 H 0.57629 0.89104 0.92311 0.0
H683 H 0.49439 0.98256 0.84642 0.0
H684 H 0.49703 0.95463 0.92475 0.0
H685 H 0.53883 0.92387 0.79755 0.0
H686 H 0.53664 0.95199 0.71984 0.0
H687 H 0.55196 0.92298 0.926 0.0
H688 H 0.48748 0.89197 0.82663 0.0
H689 H 0.45228 0.89444 0.78595 0.0
H690 H 0.43699 0.93388 0.94488 0.0
H691 H 0.47183 0.93057 0.98849 0.0
C692 C 0.54005 0.83756 0.09573 0.0
C693 C 0.52609 0.83633 0.14762 0.0
C694 C 0.53944 0.85388 0.051 0.0
C695 C 0.52496 0.86955 0.05723 0.0
C696 C 0.51101 0.86809 0.10927 0.0
C697 C 0.51159 0.85179 0.15362 0.0
C698 C 0.52375 0.88705 0.00913 0.0
C699 C 0.50468 0.8923 0.98329 0.0
C700 C 0.54098 0.89854 0.98785 0.0
C701 C 0.56141 0.89544 0.01606 0.0
C702 C 0.56435 0.89667 0.08359 0.0
C703 C 0.58375 0.89413 0.10987 0.0
C704 C 0.60035 0.89054 0.06904 0.0
C705 C 0.59759 0.88948 1.00182 0.0
C706 C 0.57821 0.89195 0.97531 0.0
C707 C 0.50415 0.96986 0.83493 0.0
C708 C 0.51518 0.96965 0.77612 0.0
C709 C 0.50548 0.95368 0.8797 0.0
C710 C 0.51786 0.93669 0.86726 0.0
C711 C 0.52906 0.93658 0.80882 0.0
C712 C 0.5277 0.95273 0.764 0.0
C713 C 0.51959 0.91944 0.91569 0.0
C714 C 0.53871 0.91424 0.94114 0.0
C715 C 0.50248 0.90813 0.93756 0.0
C716 C 0.48216 0.91132 0.90994 0.0
C717 C 0.47659 0.90125 0.85252 0.0
C718 C 0.45669 0.90262 0.82943 0.0
C719 C 0.44248 0.91449 0.86242 0.0
C720 C 0.44805 0.92479 0.91919 0.0
C721 C 0.46778 0.92298 0.94353 0.0
H722 H 0.42708 0.91547 0.84444 0.0
H723 H 0.61538 0.88865 0.08946 0.0
H724 H 0.67252 0.5076 0.20582 0.0
H725 H 0.64461 0.50747 0.12696 0.0
H726 H 0.67676 0.55208 0.01158 0.0
H727 H 0.70458 0.55248 0.09171 0.0
H728 H 0.63725 0.56108 0.01211 0.0
H729 H 0.67391 0.49945 0.96961 0.0
H730 H 0.68959 0.46681 0.99914 0.0
H731 H 0.63161 0.44396 0.06411 0.0
H732 H 0.61565 0.47658 0.03576 0.0
H733 H 0.57231 0.55026 0.73513 0.0
H734 H 0.60076 0.5522 0.81151 0.0
H735 H 0.57639 0.50025 0.9147 0.0
H736 H 0.54917 0.49721 0.83391 0.0
H737 H 0.61287 0.49567 0.91963 0.0
H738 H 0.57568 0.55692 0.96548 0.0
H739 H 0.5595 0.58954 0.93817 0.0
H740 H 0.61692 0.61328 0.87151 0.0
H741 H 0.63337 0.58072 0.89758 0.0
C742 C 0.67365 0.51738 0.16362 0.0
C743 C 0.69085 0.52994 0.15507 0.0
C744 C 0.65766 0.51724 0.11808 0.0
C745 C 0.65843 0.52951 0.06188 0.0
C746 C 0.67557 0.54237 0.05393 0.0
C747 C 0.69159 0.54254 0.09976 0.0
C748 C 0.64153 0.5287 0.01163 0.0
C749 C 0.6321 0.54676 0.99145 0.0
C750 C 0.63416 0.51013 0.98493 0.0
C751 C 0.64365 0.49047 1.00107 0.0
C752 C 0.66455 0.48748 0.9905 0.0
C753 C 0.67347 0.469 0.00701 0.0
C754 C 0.66161 0.45334 0.03361 0.0
C755 C 0.64078 0.45611 0.04357 0.0
C756 C 0.63179 0.47458 0.02724 0.0
C757 C 0.57306 0.53928 0.77423 0.0
C758 C 0.55835 0.52369 0.77869 0.0
C759 C 0.58929 0.54053 0.81885 0.0
C760 C 0.59085 0.52677 0.87134 0.0
C761 C 0.57591 0.51122 0.87555 0.0
C762 C 0.56012 0.50955 0.82952 0.0
C763 C 0.60815 0.52806 0.92049 0.0
C764 C 0.61779 0.51005 0.94038 0.0
C765 C 0.61549 0.54669 0.94746 0.0
C766 C 0.6057 0.56636 0.93302 0.0
C767 C 0.58482 0.56909 0.94481 0.0
C768 C 0.57561 0.58756 0.92951 0.0
C769 C 0.58717 0.60346 0.90303 0.0
C770 C 0.60798 0.60095 0.89198 0.0
C771 C 0.61726 0.58251 0.90705 0.0
H772 H 0.58003 0.61774 0.89116 0.0
H773 H 0.66856 0.43904 0.04641 0.0
H774 H 0.01618 0.67687 0.20925 0.0
H775 H 0.01715 0.64861 0.1317 0.0
H776 H 0.98004 0.68271 0.99879 0.0
H777 H 0.97874 0.71094 0.07763 0.0
H778 H 0.96809 0.64394 0.99579 0.0
H779 H 0.03309 0.67691 0.97786 0.0
H780 H 0.06549 0.69136 0.01772 0.0
H781 H 0.08237 0.63297 0.09265 0.0
H782 H 0.04991 0.61825 0.05404 0.0
H783 H 0.98875 0.58216 0.71846 0.0
H784 H 0.9867 0.61036 0.79579 0.0
H785 H 0.02274 0.57661 0.93253 0.0
H786 H 0.02573 0.54885 0.85374 0.0
H787 H 0.03482 0.61514 0.93297 0.0
H788 H 0.96993 0.58193 0.94856 0.0
H789 H 0.93866 0.56714 0.90146 0.0
H790 H 0.92192 0.62574 0.82799 0.0
H791 H 0.95335 0.64079 0.87339 0.0
C792 C 0.00822 0.67833 0.16348 0.0
C793 C 0.99751 0.69618 0.14951 0.0
C794 C 0.00884 0.66215 0.11879 0.0
C795 C 0.99897 0.6634 0.05819 0.0
C796 C 0.98788 0.68119 0.04473 0.0
C797 C 0.98721 0.69742 0.08976 0.0
C798 C 1.00053 0.64632 0.00908 0.0
C799 C 0.98274 0.63788 0.98162 0.0
C800 C 0.0195 0.63781 0.99072 0.0
C801 C 0.03902 0.64655 0.01368 0.0
C802 C 0.04367 0.6672 1.00325 0.0
C803 C 0.06204 0.67543 0.02557 0.0
C804 C 0.07596 0.66311 0.05785 0.0
C805 C 0.07156 0.64251 0.06773 0.0
C806 C 0.05319 0.63421 0.04563 0.0
C807 C 0.99643 0.58079 0.76466 0.0
C808 C 0.00728 0.56304 0.77968 0.0
C809 C 0.99504 0.5969 0.80945 0.0
C810 C 1.00426 0.5957 0.87108 0.0
C811 C 0.01533 0.57806 0.88582 0.0
C812 C 0.0168 0.56198 0.84087 0.0
C813 C 1.00244 0.61278 0.91985 0.0
C814 C 0.02018 0.62118 0.94729 0.0
C815 C 0.98345 0.62121 0.9381 0.0
C816 C 0.96406 0.61244 0.91379 0.0
C817 C 0.95962 0.59164 0.92208 0.0
C818 C 0.94193 0.58318 0.89539 0.0
C819 C 0.92841 0.59545 0.86121 0.0
C820 C 0.93247 0.61623 0.85415 0.0
C821 C 0.95021 0.62474 0.88035 0.0
H822 H 0.91468 0.58889 0.84079 0.0
H823 H 0.09018 0.66951 0.07509 0.0
H824 H 0.02972 0.26511 0.21499 0.0
H825 H 0.03024 0.24065 0.30321 0.0
H826 H 0.07899 0.20846 0.20918 0.0
H827 H 0.07907 0.23337 0.12102 0.0
H828 H 0.02143 0.20136 0.2388 0.0
H829 H 0.09728 0.17724 0.34619 0.0
H830 H 0.13045 0.19238 0.37596 0.0
H831 H 0.10155 0.24927 0.41754 0.0
H832 H 0.06819 0.23436 0.38903 0.0
H833 H 1.00455 0.10618 0.37195 0.0
H834 H 0.0254 0.13131 0.31563 0.0
H835 H 0.02687 0.16852 0.48839 0.0
H836 H 0.00729 0.14267 0.54704 0.0
H837 H 0.06239 0.17168 0.41679 0.0
H838 H 0.98816 0.17282 0.37847 0.0
H839 H 0.95595 0.15721 0.34113 0.0
H840 H 0.98217 0.14668 0.15289 0.0
H841 H 0.0146 0.16198 0.18948 0.0
C842 C 0.04146 0.25366 0.2149 0.0
C843 C 0.05405 0.25081 0.16051 0.0
C844 C 0.04167 0.23964 0.26531 0.0
C845 C 0.05445 0.22276 0.26168 0.0
C846 C 0.0691 0.22152 0.21248 0.0
C847 C 0.06902 0.23565 0.16212 0.0
C848 C 0.04852 0.20436 0.29701 0.0
C849 C 0.03036 0.19488 0.27786 0.0
C850 C 0.06054 0.19574 0.34612 0.0
C851 C 0.08033 0.20475 0.36497 0.0
C852 C 0.09802 0.19295 0.36205 0.0
C853 C 0.11684 0.20149 0.37864 0.0
C854 C 0.11812 0.22179 0.39845 0.0
C855 C 0.10056 0.23357 0.40198 0.0
C856 C 0.08169 0.22509 0.38552 0.0
C857 C 0.00988 0.11933 0.39885 0.0
C858 C 1.00395 0.12266 0.46371 0.0
C859 C 0.02173 0.13369 0.36641 0.0
C860 C 0.02724 0.15181 0.39773 0.0
C861 C 0.02262 0.15458 0.46358 0.0
C862 C 0.01112 0.14002 0.49656 0.0
C863 C 0.03498 0.16909 0.35992 0.0
C864 C 0.05353 0.17818 0.37767 0.0
C865 C 0.02339 0.17735 0.30872 0.0
C866 C 1.00381 0.16834 0.28688 0.0
C867 C 0.98706 0.16707 0.32926 0.0
C868 C 0.96878 0.15828 0.30822 0.0
C869 C 0.96703 0.15091 0.24473 0.0
C870 C 0.98355 0.15236 0.20208 0.0
C871 C 1.00187 0.16108 0.22293 0.0
H872 H 0.95286 0.14412 0.22854 0.0
H873 H 0.13272 0.22839 0.41119 0.0
H874 H 0.29644 1.00488 0.12146 0.0
H875 H 0.31895 1.00114 0.21319 0.0
H876 H 0.29122 0.05284 0.30699 0.0
H877 H 0.26918 0.05732 0.21164 0.0
H878 H 0.32992 0.05814 0.30172 0.0
H879 H 0.29095 1.00416 0.38334 0.0
H880 H 0.26871 0.97384 0.37847 0.0
H881 H 0.31729 0.93932 0.29444 0.0
H882 H 0.33972 0.96948 0.29763 0.0
H883 H 0.42841 0.03075 0.44087 0.0
H884 H 0.3916 0.03699 0.44397 0.0
H885 H 0.38416 1.00157 0.26886 0.0
H886 H 0.42067 0.99521 0.26567 0.0
H887 H 0.3565 0.9918 0.37634 0.0
H888 H 0.38688 0.05058 0.25605 0.0
H889 H 0.40865 0.08134 0.25384 0.0
H890 H 0.3749 0.10649 0.4133 0.0
H891 H 0.35315 0.07571 0.41694 0.0
C892 C 0.29475 0.01507 0.16251 0.0
C893 C 0.28133 0.03143 0.15983 0.0
C894 C 0.30742 0.01278 0.21552 0.0
C895 C 0.30647 0.02644 0.2679 0.0
C896 C 0.29197 0.042 0.26742 0.0
C897 C 0.27938 0.04449 0.21341 0.0
C898 C 0.32312 0.02625 0.31582 0.0
C899 C 0.33533 0.04379 0.3207 0.0
C900 C 0.33016 1.00763 0.34129 0.0
C901 C 0.31709 0.98909 0.34152 0.0
C902 C 0.29691 0.99009 0.36401 0.0
C903 C 0.28425 0.97293 0.36134 0.0
C904 C 0.29161 0.95464 0.33641 0.0
C905 C 0.31165 0.95347 0.31411 0.0
C906 C 0.32438 0.97058 0.3166 0.0
C907 C 0.41883 0.02441 0.40301 0.0
C908 C 0.42724 0.01265 0.35262 0.0
C909 C 0.39795 0.02791 0.40509 0.0
C910 C 0.38538 0.01952 0.3571 0.0
C911 C 0.39376 1.00795 0.30663 0.0
C912 C 0.41457 1.00459 0.30426 0.0
C913 C 0.36344 0.02319 0.35657 0.0
C914 C 0.35042 1.00633 0.36121 0.0
C915 C 0.35561 0.04239 0.34026 0.0
C916 C 0.36862 0.06081 0.33738 0.0
C917 C 0.38424 0.06261 0.29095 0.0
C918 C 0.39655 0.08005 0.28938 0.0
C919 C 0.39321 0.09583 0.33356 0.0
C920 C 0.37752 0.09424 0.37925 0.0
C921 C 0.36521 0.07681 0.38112 0.0
H922 H 0.40275 0.10933 0.33227 0.0
H923 H 0.28175 0.94139 0.33424 0.0
H924 H 0.45474 0.28367 0.1844 0.0
H925 H 0.45612 0.30908 0.27191 0.0
H926 H 0.52127 0.31421 0.24516 0.0
H927 H 0.51991 0.28793 0.16251 0.0
H928 H 0.51449 0.32155 0.35983 0.0
H929 H 0.48439 0.34336 0.15784 0.0
H930 H 0.45897 0.34261 0.06979 0.0
H931 H 0.41163 0.35593 0.20724 0.0
H932 H 0.43676 0.35644 0.29618 0.0
H933 H 0.53971 0.42385 0.38405 0.0
H934 H 0.52051 0.39978 0.31627 0.0
H935 H 0.48459 0.38199 0.48265 0.0
H936 H 0.50362 0.40589 0.54977 0.0
H937 H 0.47166 0.38137 0.30887 0.0
H938 H 0.51278 0.34889 0.50954 0.0
H939 H 0.54402 0.35412 0.57446 0.0
H940 H 0.57782 0.3674 0.40046 0.0
H941 H 0.54676 0.36222 0.33491 0.0
C942 C 0.46936 0.28951 0.20039 0.0
C943 C 0.48727 0.28395 0.16833 0.0
C944 C 0.47013 0.30419 0.24923 0.0
C945 C 0.48871 0.31386 0.26372 0.0
C946 C 0.50677 0.30692 0.23508 0.0
C947 C 0.50605 0.29188 0.18807 0.0
C948 C 0.48951 0.33268 0.30226 0.0
C949 C 0.50484 0.33443 0.34908 0.0
C950 C 0.47738 0.3498 0.28706 0.0
C951 C 0.46235 0.34964 0.23364 0.0
C952 C 0.46853 0.346 0.16924 0.0
C953 C 0.45418 0.34562 0.11921 0.0
C954 C 0.43368 0.34915 0.13295 0.0
C955 C 0.4275 0.35314 0.1967 0.0
C956 C 0.44177 0.35345 0.24693 0.0
C957 C 0.52712 0.4154 0.40524 0.0
C958 C 0.5234 0.41608 0.47229 0.0
C959 C 0.51604 0.40193 0.3665 0.0
C960 C 0.50125 0.38931 0.395 0.0
C961 C 0.49584 0.39188 0.46012 0.0
C962 C 0.50698 0.40519 0.49871 0.0
C963 C 0.49662 0.36982 0.36457 0.0
C964 C 0.4807 0.36811 0.32021 0.0
C965 C 0.50896 0.35299 0.37846 0.0
C966 C 0.52762 0.35513 0.41772 0.0
C967 C 0.52695 0.35277 0.48538 0.0
C968 C 0.54458 0.35576 0.52218 0.0
C969 C 0.5629 0.36106 0.49161 0.0
C970 C 0.56365 0.36327 0.42411 0.0
C971 C 0.54607 0.36028 0.38715 0.0
H972 H 0.5765 0.36349 0.52023 0.0
H973 H 0.42259 0.34885 0.09418 0.0
H974 H 0.25749 0.45917 0.18583 0.0
H975 H 0.23665 0.46184 0.28568 0.0
H976 H 0.21179 0.51823 0.21426 0.0
H977 H 0.23266 0.51588 0.11784 0.0
H978 H 0.2195 0.52098 0.33883 0.0
H979 H 0.1889 0.47144 0.18376 0.0
H980 H 0.18923 0.43857 0.1257 0.0
H981 H 0.19396 0.40694 0.30752 0.0
H982 H 0.19389 0.43968 0.36642 0.0
H983 H 0.12032 0.54534 0.31397 0.0
H984 H 0.14884 0.52327 0.28587 0.0
H985 H 0.15129 0.50173 0.48344 0.0
H986 H 0.12255 0.52358 0.51188 0.0
H987 H 0.16077 0.47302 0.34655 0.0
H988 H 0.17954 0.53393 0.48685 0.0
H989 H 0.17178 0.57005 0.50729 0.0
H990 H 0.18385 0.58407 0.30704 0.0
H991 H 0.19133 0.548 0.28535 0.0
C992 C 0.24785 0.47225 0.19307 0.0
C993 C 0.24635 0.48728 0.14508 0.0
C994 C 0.23606 0.47376 0.24948 0.0
C995 C 0.2229 0.49028 0.25727 0.0
C996 C 0.22213 0.50554 0.20982 0.0
C997 C 0.23386 0.50412 0.15453 0.0
C998 C 0.2081 0.49147 0.31044 0.0
C999 C 0.20701 0.51013 0.34305 0.0
C1000 C 0.19174 0.47742 0.31472 0.0
C1001 C 0.19172 0.45789 0.27928 0.0
C1002 C 0.19014 0.45745 0.21119 0.0
C1003 C 0.19027 0.43887 0.17817 0.0
C1004 C 0.1917 0.42067 0.21288 0.0
C1005 C 0.19294 0.42103 0.28068 0.0
C1006 C 0.19289 0.43958 0.31388 0.0
C1007 C 0.12672 0.53557 0.35087 0.0
C1008 C 0.1197 0.53626 0.41504 0.0
C1009 C 0.14262 0.52277 0.33468 0.0
C1010 C 0.15174 0.51087 0.38284 0.0
C1011 C 0.14394 0.51054 0.4459 0.0
C1012 C 0.12786 0.52319 0.46203 0.0
C1013 C 0.17198 0.50294 0.3704 0.0
C1014 C 0.17391 0.48314 0.34676 0.0
C1015 C 0.18873 0.51648 0.36994 0.0
C1016 C 0.18617 0.53836 0.38478 0.0
C1017 C 0.18069 0.54477 0.44743 0.0
C1018 C 0.17624 0.56521 0.45911 0.0
C1019 C 0.17738 0.57935 0.40855 0.0
C1020 C 0.18307 0.57312 0.34624 0.0
C1021 C 0.18747 0.55271 0.33429 0.0
H1022 H 0.17382 0.59514 0.41763 0.0
H1023 H 0.1918 0.4063 0.18728 0.0
H1024 H 0.99667 0.77017 0.07234 0.0
H1025 H 0.99987 0.79576 0.98809 0.0
H1026 H 0.94912 0.82826 0.06912 0.0
H1027 H 0.94543 0.80233 0.15356 0.0
H1028 H 0.96186 0.83095 0.91373 0.0
H1029 H 0.9825 0.84291 0.14156 0.0
H1030 H 0.99836 0.83258 0.24481 0.0
H1031 H 0.05367 0.81846 0.14384 0.0
H1032 H 0.03799 0.82851 0.03998 0.0
H1033 H 1.00706 0.92576 0.81593 0.0
H1034 H 0.98721 0.8996 0.87206 0.0
H1035 H 0.04208 0.86549 0.90523 0.0
H1036 H 0.06216 0.89238 0.85486 0.0
H1037 H 0.02179 0.8665 0.00877 0.0
H1038 H 1.00336 0.85017 0.78383 0.0
H1039 H 0.9892 0.85686 0.67498 0.0
H1040 H 0.93344 0.8772 0.76137 0.0
H1041 H 0.94703 0.86992 0.87058 0.0
C1042 C 0.98528 0.78195 0.06996 0.0
C1043 C 0.97109 0.78457 0.12034 0.0
C1044 C 0.9872 0.79662 0.02179 0.0
C1045 C 0.97496 0.81391 0.02376 0.0
C1046 C 0.95865 0.81491 0.06734 0.0
C1047 C 0.95665 0.80016 0.11559 0.0
C1048 C 0.98276 0.83255 0.99377 0.0
C1049 C 0.97474 0.83902 0.93465 0.0
C1050 C 0.99974 0.84267 0.02112 0.0
C1051 C 0.009 0.83625 0.08324 0.0
C1052 C 0.99795 0.83742 0.14151 0.0
C1053 C 1.00694 0.8317 0.20008 0.0
C1054 C 0.02701 0.82488 0.2009 0.0
C1055 C 0.03811 0.82372 0.14312 0.0
C1056 C 0.02919 0.82945 0.08444 0.0
C1057 C 0.01492 0.91284 0.83623 0.0
C1058 C 0.0362 0.9111 0.83112 0.0
C1059 C 1.00349 0.89772 0.86706 0.0
C1060 C 0.01313 0.88047 0.89169 0.0
C1061 C 0.03433 0.8787 0.88635 0.0
C1062 C 0.0458 0.894 0.85715 0.0
C1063 C 1.00154 0.86463 0.9266 0.0
C1064 C 0.00875 0.85874 0.98759 0.0
C1065 C 0.98414 0.85488 0.90015 0.0
C1066 C 0.97627 0.85979 0.83502 0.0
C1067 C 0.98814 0.85622 0.77946 0.0
C1068 C 0.98021 0.86005 0.71779 0.0
C1069 C 0.96057 0.86776 0.71128 0.0
C1070 C 0.9487 0.87136 0.76645 0.0
C1071 C 0.95643 0.86724 0.82818 0.0
H1072 H 0.95451 0.87081 0.66346 0.0
H1073 H 0.03403 0.8206 0.24624 0.0
H1074 H 0.72421 0.95114 0.16413 0.0
H1075 H 0.70049 0.95329 0.07501 0.0
H1076 H 0.74368 0.98987 0.96698 0.0
H1077 H 0.76609 0.99047 0.0599 0.0
H1078 H 0.71406 0.01151 0.99607 0.0
H1079 H 0.71672 0.94451 0.90519 0.0
H1080 H 0.71763 0.90706 0.90838 0.0
H1081 H 0.659 0.90555 1.00095 0.0
H1082 H 0.6579 0.94299 0.99937 0.0
H1083 H 0.63366 0.04873 0.81337 0.0
H1084 H 0.66401 0.02864 0.83596 0.0
H1085 H 0.63029 0.99357 0.9779 0.0
H1086 H 0.59972 0.01319 0.95355 0.0
H1087 H 0.6568 0.96998 0.91031 0.0
H1088 H 0.65805 0.03352 0.02855 0.0
H1089 H 0.65572 0.07085 0.03771 0.0
H1090 H 0.70601 0.07783 0.90574 0.0
H1091 H 0.70848 0.04052 0.89541 0.0
C1092 C 0.72888 0.95931 0.12085 0.0
C1093 C 0.7464 0.97176 0.12101 0.0
C1094 C 0.71542 0.9601 0.06886 0.0
C1095 C 0.72005 0.97224 0.01469 0.0
C1096 C 0.73962 0.98079 0.00906 0.0
C1097 C 0.75258 0.98097 0.06247 0.0
C1098 C 0.70326 0.98093 0.97626 0.0
C1099 C 0.702 1.00225 0.97509 0.0
C1100 C 0.68684 0.96907 0.9522 0.0
C1101 C 0.68726 0.94656 0.95209 0.0
C1102 C 0.70407 0.93619 0.92642 0.0
C1103 C 0.70461 0.91496 0.92799 0.0
C1104 C 0.68839 0.90393 0.95483 0.0
C1105 C 0.67155 0.9141 0.98007 0.0
C1106 C 0.67094 0.93533 0.97871 0.0
C1107 C 0.63286 0.03674 0.84938 0.0
C1108 C 0.61476 0.03269 0.88302 0.0
C1109 C 0.65001 0.02519 0.86169 0.0
C1110 C 0.64931 0.00985 0.90894 0.0
C1111 C 0.63101 1.00533 0.94107 0.0
C1112 C 0.61374 0.01665 0.92789 0.0
C1113 C 0.66816 1.00013 0.93005 0.0
C1114 C 0.66948 0.9789 0.92894 0.0
C1115 C 0.68456 0.01194 0.95356 0.0
C1116 C 0.68334 0.03432 0.96079 0.0
C1117 C 0.66855 0.04305 1.00134 0.0
C1118 C 0.66721 0.06418 0.00675 0.0
C1119 C 0.68068 0.0767 0.97221 0.0
C1120 C 0.69557 0.06812 0.93241 0.0
C1121 C 0.69697 0.04699 0.92683 0.0
H1122 H 0.6796 0.09307 0.97637 0.0
H1123 H 0.68886 0.88749 0.95604 0.0
H1124 H 0.53216 0.76226 0.06877 0.0
H1125 H 0.53237 0.73671 0.98369 0.0
H1126 H 0.58215 0.70629 0.07728 0.0
H1127 H 0.5825 0.73229 0.1624 0.0
H1128 H 0.57268 0.70342 0.91653 0.0
H1129 H 0.55116 0.6847 0.13638 0.0
H1130 H 0.53624 0.69216 0.24391 0.0
H1131 H 0.48127 0.71217 0.15261 0.0
H1132 H 0.4959 0.7048 0.04454 0.0
H1133 H 0.52603 0.60965 0.80584 0.0
H1134 H 0.54535 0.63358 0.87323 0.0
H1135 H 0.49428 0.67437 0.87453 0.0
H1136 H 0.4746 0.65022 0.80911 0.0
H1137 H 0.51094 0.66714 0.99709 0.0
H1138 H 0.53445 0.68226 0.77462 0.0
H1139 H 0.55025 0.67079 0.67231 0.0
H1140 H 0.60419 0.6539 0.77553 0.0
H1141 H 0.58847 0.66465 0.87882 0.0
C1142 C 0.54409 0.751 0.06916 0.0
C1143 C 0.557 0.74893 0.12293 0.0
C1144 C 0.54414 0.73635 0.0205 0.0
C1145 C 0.55704 0.7196 0.02543 0.0
C1146 C 0.57214 0.71922 0.07313 0.0
C1147 C 0.57222 0.734 0.12174 0.0
C1148 C 0.55066 0.70072 0.99361 0.0
C1149 C 0.55949 0.69513 0.93452 0.0
C1150 C 0.53359 0.68994 0.01795 0.0
C1151 C 0.5247 0.69444 0.08257 0.0
C1152 C 0.53595 0.69083 0.13932 0.0
C1153 C 0.52752 0.69495 0.2003 0.0
C1154 C 0.50786 0.70272 0.20504 0.0
C1155 C 0.49652 0.70622 0.14883 0.0
C1156 C 0.50485 0.70201 0.08773 0.0
C1157 C 0.51894 0.62373 0.82064 0.0
C1158 C 0.49884 0.62819 0.80239 0.0
C1159 C 0.53001 0.63734 0.85872 0.0
C1160 C 0.52119 0.65564 0.87827 0.0
C1161 C 0.50125 0.66024 0.85961 0.0
C1162 C 0.49014 0.6466 0.82178 0.0
C1163 C 0.53254 0.67015 0.91866 0.0
C1164 C 0.52449 0.67499 0.97961 0.0
C1165 C 0.55064 0.67971 0.89674 0.0
C1166 C 0.5603 0.67419 0.83428 0.0
C1167 C 0.54967 0.67608 0.77543 0.0
C1168 C 0.5586 0.6697 0.7173 0.0
C1169 C 0.57824 0.66176 0.71729 0.0
C1170 C 0.589 0.66012 0.77552 0.0
C1171 C 0.58009 0.66633 0.83387 0.0
H1172 H 0.5851 0.65683 0.67218 0.0
H1173 H 0.50136 0.70594 0.25224 0.0
H1174 H 0.7856 0.5863 0.12069 0.0
H1175 H 0.8094 0.58465 0.02857 0.0
H1176 H 0.79935 0.51963 0.01858 0.0
H1177 H 0.77418 0.52187 0.10308 0.0
H1178 H 0.84269 0.56849 0.03609 0.0
H1179 H 0.81557 0.49567 0.90045 0.0
H1180 H 0.78327 0.48058 0.86287 0.0
H1181 H 0.75752 0.5401 0.84516 0.0
H1182 H 0.78982 0.55562 0.88174 0.0
H1183 H 0.90449 0.4832 0.96341 0.0
H1184 H 0.87808 0.50702 0.99595 0.0
H1185 H 0.88375 0.53803 0.81224 0.0
H1186 H 0.90989 0.51381 0.77823 0.0
H1187 H 0.84319 0.51802 0.85699 0.0
H1188 H 0.8798 0.58637 0.93809 0.0
H1189 H 0.91019 0.60184 0.9893 0.0
H1190 H 0.91497 0.5506 0.11735 0.0
H1191 H 0.88404 0.53539 0.06899 0.0
C1192 C 0.78757 0.57204 0.09514 0.0
C1193 C 0.77777 0.55432 0.117 0.0
C1194 C 0.8013 0.57099 0.04331 0.0
C1195 C 0.80591 0.55208 0.01502 0.0
C1196 C 0.79539 0.53461 0.03603 0.0
C1197 C 0.78104 0.53583 0.08511 0.0
C1198 C 0.82407 0.54965 0.97317 0.0
C1199 C 0.84255 0.55796 0.9955 0.0
C1200 C 0.82421 0.5359 0.91999 0.0
C1201 C 0.8052 0.52685 0.89332 0.0
C1202 C 0.80317 0.50559 0.88731 0.0
C1203 C 0.7848 0.49694 0.86661 0.0
C1204 C 0.76836 0.50937 0.8515 0.0
C1205 C 0.77028 0.53049 0.85677 0.0
C1206 C 0.78862 0.53924 0.87744 0.0
C1207 C 0.90029 0.49523 0.93025 0.0
C1208 C 0.90902 0.49658 0.8681 0.0
C1209 C 0.88553 0.50904 0.94937 0.0
C1210 C 0.87953 0.52453 0.90703 0.0
C1211 C 0.88867 0.52641 0.84588 0.0
C1212 C 0.90347 0.51257 0.8266 0.0
C1213 C 0.8612 0.53605 0.92271 0.0
C1214 C 0.84288 0.52938 0.89524 0.0
C1215 C 0.8611 0.55111 0.97119 0.0
C1216 C 0.88006 0.55954 0.99881 0.0
C1217 C 0.88747 0.57838 0.97686 0.0
C1218 C 0.90466 0.58717 0.0057 0.0
C1219 C 0.9147 0.57706 0.05578 0.0
C1220 C 0.90733 0.5583 0.07799 0.0
C1221 C 0.88992 0.54963 0.05008 0.0
H1222 H 0.92809 0.58384 0.07771 0.0
H1223 H 0.75411 0.50264 0.83583 0.0
H1224 H 0.06429 0.22934 0.93203 0.0
H1225 H 0.0597 0.19787 0.87128 0.0
H1226 H 0.99492 0.2076 0.86694 0.0
H1227 H 0.99954 0.23895 0.93105 0.0
H1228 H 1.00047 0.17027 0.89661 0.0
H1229 H 0.02958 0.21034 0.72469 0.0
H1230 H 0.05468 0.23286 0.67112 0.0
H1231 H 0.10144 0.18875 0.7024 0.0
H1232 H 0.07667 0.16609 0.75693 0.0
H1233 H 0.98333 0.08255 0.69786 0.0
H1234 H 0.98553 0.11737 0.73949 0.0
H1235 H 0.05089 0.11275 0.74838 0.0
H1236 H 0.04877 0.07871 0.70161 0.0
H1237 H 0.04344 0.14835 0.71166 0.0
H1238 H 0.01552 0.10928 0.88913 0.0
H1239 H 0.99079 0.08642 0.9435 0.0
H1240 H 0.94266 0.12812 0.9025 0.0
H1241 H 0.96701 0.15117 0.84764 0.0
C1242 C 0.04907 0.22514 0.91657 0.0
C1243 C 0.03233 0.23702 0.93587 0.0
C1244 C 0.04644 0.20698 0.88144 0.0
C1245 C 0.02694 0.2001 0.86296 0.0
C1246 C 0.01019 0.21237 0.87995 0.0
C1247 C 0.01284 0.23057 0.91582 0.0
C1248 C 0.02409 0.17958 0.83016 0.0
C1249 C 0.00966 0.16573 0.85535 0.0
C1250 C 0.03638 0.17294 0.7774 0.0
C1251 C 0.05131 0.18663 0.74533 0.0
C1252 C 0.04525 0.20553 0.7206 0.0
C1253 C 0.05942 0.2183 0.68999 0.0
C1254 C 0.07965 0.21226 0.68348 0.0
C1255 C 0.08577 0.19342 0.70753 0.0
C1256 C 0.07167 0.18061 0.73824 0.0
C1257 C 0.99821 0.08895 0.70834 0.0
C1258 C 0.01586 0.07738 0.69782 0.0
C1259 C 0.99945 0.10893 0.73308 0.0
C1260 C 0.01837 0.11786 0.74946 0.0
C1261 C 0.03602 0.10646 0.73719 0.0
C1262 C 0.03478 0.0867 0.71116 0.0
C1263 C 0.01993 0.13903 0.77842 0.0
C1264 C 0.03416 0.15296 0.75267 0.0
C1265 C 0.00759 0.14568 0.83094 0.0
C1266 C 0.99302 0.13182 0.8638 0.0
C1267 C 0.99963 0.11349 0.89138 0.0
C1268 C 0.98571 0.10052 0.92226 0.0
C1269 C 0.96519 0.10576 0.92609 0.0
C1270 C 0.95855 0.12405 0.89934 0.0
C1271 C 0.97239 0.13709 0.86845 0.0
H1272 H 0.95445 0.09568 0.95001 0.0
H1273 H 0.09059 0.22216 0.65969 0.0
H1274 H 0.30725 0.06976 0.96965 0.0
H1275 H 0.33809 0.06714 0.90464 0.0
H1276 H 0.31313 0.01444 0.80731 0.0
H1277 H 0.28241 0.01659 0.87558 0.0
H1278 H 0.34955 1.00596 0.83401 0.0
H1279 H 0.32281 0.06438 0.73067 0.0
H1280 H 0.30786 0.09846 0.72027 0.0
H1281 H 0.36008 0.12496 0.81395 0.0
H1282 H 0.3752 0.09098 0.82581 0.0
H1283 H 0.43746 0.01023 0.61109 0.0
H1284 H 0.40199 0.01402 0.64791 0.0
H1285 H 0.42277 0.04654 0.81708 0.0
H1286 H 0.45764 0.04143 0.78365 0.0
H1287 H 0.38718 0.06462 0.7396 0.0
H1288 H 0.41169 1.00419 0.84887 0.0
H1289 H 0.42698 0.97007 0.84843 0.0
H1290 H 0.37774 0.94746 0.73122 0.0
H1291 H 0.36242 0.98159 0.72974 0.0
C1292 C 0.30798 0.05804 0.93269 0.0
C1293 C 0.29201 0.0437 0.92691 0.0
C1294 C 0.32578 0.05649 0.89527 0.0
C1295 C 0.32821 0.04074 0.84955 0.0
C1296 C 0.31187 0.02684 0.84171 0.0
C1297 C 0.29404 0.02827 0.87994 0.0
C1298 C 0.34825 0.03811 0.81393 0.0
C1299 C 0.35743 0.01882 0.81228 0.0
C1300 C 0.35916 0.05471 0.78578 0.0
C1301 C 0.35005 0.07513 0.77957 0.0
C1302 C 0.33102 0.07746 0.74954 0.0
C1303 C 0.32253 0.09676 0.74332 0.0
C1304 C 0.33299 0.11386 0.76655 0.0
C1305 C 0.35198 0.1117 0.79604 0.0
C1306 C 0.36052 0.09242 0.80249 0.0
C1307 C 0.43454 0.01822 0.65613 0.0
C1308 C 0.4509 0.02558 0.69415 0.0
C1309 C 0.41417 0.0204 0.6771 0.0
C1310 C 0.40958 0.03068 0.73536 0.0
C1311 C 0.42575 0.03864 0.77188 0.0
C1312 C 0.44597 0.03576 0.75228 0.0
C1313 C 0.38816 0.03267 0.76025 0.0
C1314 C 0.37894 0.05182 0.76044 0.0
C1315 C 0.37712 0.01597 0.78621 0.0
C1316 C 0.38609 0.99545 0.78838 0.0
C1317 C 0.40425 0.99199 0.82246 0.0
C1318 C 0.41289 0.97265 0.82268 0.0
C1319 C 0.40336 0.95665 0.78958 0.0
C1320 C 0.38512 0.9599 0.75662 0.0
C1321 C 0.37646 0.97923 0.75604 0.0
H1322 H 0.4101 0.94174 0.78931 0.0
H1323 H 0.3264 0.1288 0.76158 0.0
H1324 H 0.51616 0.2881 0.88683 0.0
H1325 H 0.51946 0.31928 0.82162 0.0
H1326 H 0.46523 0.34281 0.91207 0.0
H1327 H 0.46087 0.31117 0.97093 0.0
H1328 H 0.46472 0.35902 0.80869 0.0
H1329 H 0.52157 0.35432 0.95635 0.0
H1330 H 0.55203 0.33847 1.00367 0.0
H1331 H 0.58164 0.34015 0.81744 0.0
H1332 H 0.55125 0.35581 0.769 0.0
H1333 H 0.50667 0.46589 0.80682 0.0
H1334 H 0.50253 0.43121 0.84816 0.0
H1335 H 0.50675 0.40798 0.6542 0.0
H1336 H 0.50852 0.44301 0.61078 0.0
H1337 H 0.53274 0.3922 0.80189 0.0
H1338 H 0.47071 0.3956 0.65817 0.0
H1339 H 0.44083 0.41548 0.62483 0.0
H1340 H 0.42141 0.41949 0.82382 0.0
H1341 H 0.45155 0.40015 0.85831 0.0
C1342 C 0.50453 0.29959 0.89078 0.0
C1343 C 0.48831 0.29693 0.93487 0.0
C1344 C 0.50669 0.31784 0.8546 0.0
C1345 C 0.49311 0.33428 0.86307 0.0
C1346 C 0.4762 0.33088 0.90387 0.0
C1347 C 0.47371 0.31256 0.93809 0.0
C1348 C 0.4965 0.35516 0.83223 0.0
C1349 C 0.47972 0.366 0.80765 0.0
C1350 C 0.51586 0.36511 0.82992 0.0
C1351 C 0.53414 0.35599 0.85905 0.0
C1352 C 0.53458 0.35123 0.92557 0.0
C1353 C 0.55181 0.34228 0.95254 0.0
C1354 C 0.56874 0.33825 0.91354 0.0
C1355 C 0.56851 0.34324 0.84755 0.0
C1356 C 0.5513 0.35216 0.82033 0.0
C1357 C 0.50589 0.4536 0.77229 0.0
C1358 C 0.50704 0.45765 0.705 0.0
C1359 C 0.50392 0.4336 0.79628 0.0
C1360 C 0.50381 0.41688 0.75383 0.0
C1361 C 0.50612 0.42071 0.68711 0.0
C1362 C 0.50735 0.44076 0.66272 0.0
C1363 C 0.50111 0.39546 0.77887 0.0
C1364 C 0.51792 0.3848 0.80266 0.0
C1365 C 0.48181 0.38583 0.78172 0.0
C1366 C 0.4634 0.39668 0.76075 0.0
C1367 C 0.46014 0.40089 0.69475 0.0
C1368 C 0.44318 0.41207 0.67568 0.0
C1369 C 0.42927 0.41884 0.72221 0.0
C1370 C 0.43223 0.41432 0.78785 0.0
C1371 C 0.44926 0.4033 0.80719 0.0
H1372 H 0.41618 0.42753 0.7074 0.0
H1373 H 0.58206 0.33129 0.93449 0.0
H1374 H 0.23708 0.52631 0.91692 0.0
H1375 H 0.20428 0.53051 0.86181 0.0
H1376 H 0.19727 0.46539 0.85031 0.0
H1377 H 0.23018 0.46129 0.90426 0.0
H1378 H 0.18009 0.48041 0.74735 0.0
H1379 H 0.17448 0.49426 0.97166 0.0
H1380 H 0.18328 0.5104 0.07617 0.0
H1381 H 0.16748 0.56884 0.99914 0.0
H1382 H 0.15898 0.55307 0.89364 0.0
H1383 H 0.07138 0.47799 0.71817 0.0
H1384 H 0.10608 0.47461 0.75865 0.0
H1385 H 0.114 0.53967 0.75068 0.0
H1386 H 0.07887 0.54317 0.71201 0.0
H1387 H 0.13086 0.52468 0.86162 0.0
H1388 H 0.13287 0.50562 0.63448 0.0
H1389 H 0.12167 0.48493 0.54093 0.0
H1390 H 0.14281 0.4309 0.63475 0.0
H1391 H 0.15308 0.45102 0.73052 0.0
C1392 C 0.22905 0.5129 0.89969 0.0
C1393 C 0.23679 0.49345 0.9132 0.0
C1394 C 0.20994 0.51529 0.86935 0.0
C1395 C 0.19775 0.49829 0.85238 0.0
C1396 C 0.20608 0.47886 0.8623 0.0
C1397 C 0.22516 0.4765 0.89259 0.0
C1398 C 0.17599 0.50064 0.82844 0.0
C1399 C 0.16937 0.49003 0.77277 0.0
C1400 C 0.16155 0.51299 0.86109 0.0
C1401 C 0.16633 0.52253 0.92456 0.0
C1402 C 0.17302 0.51058 0.97688 0.0
C1403 C 0.17795 0.51965 0.03629 0.0
C1404 C 0.17598 0.54064 0.04424 0.0
C1405 C 0.16903 0.55259 0.99284 0.0
C1406 C 0.16417 0.54359 0.93321 0.0
C1407 C 0.08029 0.49167 0.72571 0.0
C1408 C 0.07191 0.51089 0.71211 0.0
C1409 C 0.10042 0.48968 0.7484 0.0
C1410 C 0.11313 0.50684 0.75746 0.0
C1411 C 0.10476 0.52609 0.74436 0.0
C1412 C 0.08457 0.52808 0.72181 0.0
C1413 C 0.13504 0.50472 0.7799 0.0
C1414 C 0.14166 0.51528 0.83569 0.0
C1415 C 0.14926 0.49178 0.74845 0.0
C1416 C 0.14362 0.47983 0.68996 0.0
C1417 C 0.135 0.48931 0.63543 0.0
C1418 C 0.1288 0.47769 0.58202 0.0
C1419 C 0.13168 0.45667 0.58167 0.0
C1420 C 0.14062 0.44719 0.63501 0.0
C1421 C 0.14653 0.45867 0.68905 0.0
H1422 H 0.12695 0.44774 0.54009 0.0
H1423 H 0.17981 0.54765 0.09027 0.0
H1424 H 0.95854 0.80243 0.36425 0.0
H1425 H 0.96313 0.8342 0.42434 0.0
H1426 H 0.02791 0.83111 0.39232 0.0
H1427 H 0.0233 0.79836 0.33646 0.0
H1428 H 0.02292 0.84743 0.50194 0.0
H1429 H 0.98969 0.8643 0.29582 0.0
H1430 H 0.96188 0.86062 0.21577 0.0
H1431 H 0.91815 0.87639 0.36207 0.0
H1432 H 0.94564 0.87991 0.44293 0.0
H1433 H 0.04282 0.95261 0.57311 0.0
H1434 H 0.03954 0.91826 0.52767 0.0
H1435 H 0.97422 0.92189 0.54445 0.0
H1436 H 0.9775 0.95614 0.58841 0.0
H1437 H 0.9796 0.9055 0.43985 0.0
H1438 H 1.00706 0.88812 0.64356 0.0
H1439 H 0.02821 0.8816 0.73916 0.0
H1440 H 0.07834 0.86531 0.61617 0.0
H1441 H 0.05684 0.87033 0.51939 0.0
C1442 C 0.97384 0.80817 0.3721 0.0
C1443 C 0.99057 0.79765 0.34604 0.0
C1444 C 0.97645 0.82675 0.40508 0.0
C1445 C 0.99583 0.83593 0.41092 0.0
C1446 C 0.01271 0.82477 0.38827 0.0
C1447 C 0.01012 0.80585 0.35669 0.0
C1448 C 0.99853 0.85698 0.44022 0.0
C1449 C 0.01372 0.86022 0.48704 0.0
C1450 C 0.98599 0.87376 0.42413 0.0
C1451 C 0.96963 0.87207 0.37529 0.0
C1452 C 0.97411 0.86678 0.31079 0.0
C1453 C 0.95844 0.86475 0.26538 0.0
C1454 C 0.93828 0.86813 0.2839 0.0
C1455 C 0.93376 0.87371 0.34781 0.0
C1456 C 0.94937 0.87575 0.39339 0.0
C1457 C 0.02776 0.94603 0.56757 0.0
C1458 C 0.01044 0.95743 0.58401 0.0
C1459 C 0.02586 0.92619 0.54175 0.0
C1460 C 1.00658 0.91698 0.53235 0.0
C1461 C 0.98934 0.92832 0.55014 0.0
C1462 C 0.99123 0.9481 0.57555 0.0
C1463 C 1.00416 0.89606 0.50181 0.0
C1464 C 0.98905 0.89286 0.45437 0.0
C1465 C 0.01644 0.87919 0.51857 0.0
C1466 C 0.0304 0.87968 0.57452 0.0
C1467 C 0.02268 0.88342 0.63691 0.0
C1468 C 0.03468 0.8798 0.69136 0.0
C1469 C 0.05469 0.87315 0.68398 0.0
C1470 C 0.06282 0.87037 0.62189 0.0
C1471 C 0.05067 0.87341 0.56722 0.0
H1472 H 0.06387 0.87011 0.72639 0.0
H1473 H 0.92618 0.86652 0.24866 0.0
H1474 H 0.73262 0.0296 0.34022 0.0
H1475 H 0.70079 0.03425 0.40158 0.0
H1476 H 0.69269 0.96917 0.41109 0.0
H1477 H 0.72461 0.96464 0.3526 0.0
H1478 H 0.66391 0.02669 0.37165 0.0
H1479 H 0.66137 0.95374 0.52973 0.0
H1480 H 0.68473 0.9319 0.59138 0.0
H1481 H 0.72686 0.9818 0.61133 0.0
H1482 H 0.70361 1.00402 0.55061 0.0
H1483 H 0.56155 1.0076 0.46437 0.0
H1484 H 0.59633 1.00476 0.42389 0.0
H1485 H 0.61928 0.01325 0.61822 0.0
H1486 H 0.58438 0.01498 0.65958 0.0
H1487 H 0.64184 0.98674 0.56389 0.0
H1488 H 0.61948 0.05193 0.49404 0.0
H1489 H 0.59627 0.076 0.44092 0.0
H1490 H 0.60587 0.04629 0.25757 0.0
H1491 H 0.62882 0.0218 0.30992 0.0
C1492 C 0.72448 0.01632 0.35794 0.0
C1493 C 0.7315 0.99674 0.34252 0.0
C1494 C 0.70602 0.01896 0.39218 0.0
C1495 C 0.69406 1.00209 0.41205 0.0
C1496 C 0.70154 0.98255 0.39838 0.0
C1497 C 0.71995 0.97995 0.36474 0.0
C1498 C 0.67329 1.00476 0.44294 0.0
C1499 C 0.65924 0.01795 0.41386 0.0
C1500 C 0.66678 0.99368 0.49864 0.0
C1501 C 0.68084 0.98047 0.53516 0.0
C1502 C 0.67559 0.96006 0.54749 0.0
C1503 C 0.68881 0.94762 0.58223 0.0
C1504 C 0.70729 0.95544 0.6051 0.0
C1505 C 0.71257 0.97574 0.59339 0.0
C1506 C 0.69939 0.98826 0.55875 0.0
C1507 C 0.57393 0.00868 0.49886 0.0
C1508 C 0.56989 0.01136 0.56563 0.0
C1509 C 0.59399 1.00727 0.47535 0.0
C1510 C 0.61081 0.00912 0.51741 0.0
C1511 C 0.60681 0.01176 0.5842 0.0
C1512 C 0.58671 0.01286 0.60791 0.0
C1513 C 0.63243 0.00837 0.49187 0.0
C1514 C 0.64659 0.99551 0.52182 0.0
C1515 C 0.63916 0.02004 0.43775 0.0
C1516 C 0.62573 0.03497 0.40595 0.0
C1517 C 0.61656 0.05049 0.44245 0.0
C1518 C 0.60344 0.06419 0.4125 0.0
C1519 C 0.59957 0.06266 0.34592 0.0
C1520 C 0.60886 0.04745 0.30914 0.0
C1521 C 0.62192 0.03366 0.33891 0.0
H1522 H 0.5894 0.07328 0.32282 0.0
H1523 H 0.71751 0.94578 0.632 0.0
H1524 H 0.50223 0.73728 0.3556 0.0
H1525 H 0.49777 0.70542 0.41776 0.0
H1526 H 0.56221 0.6949 0.40668 0.0
H1527 H 0.56685 0.72682 0.34776 0.0
H1528 H 0.52542 0.66236 0.35277 0.0
H1529 H 0.56081 0.69679 0.52892 0.0
H1530 H 0.56682 0.7233 0.6115 0.0
H1531 H 0.50743 0.71216 0.69202 0.0
H1532 H 0.50094 0.68584 0.60882 0.0
H1533 H 0.55048 0.57577 0.57475 0.0
H1534 H 0.55325 0.61013 0.52876 0.0
H1535 H 0.48798 0.61491 0.53054 0.0
H1536 H 0.48509 0.57993 0.57079 0.0
H1537 H 0.52449 0.65056 0.59083 0.0
H1538 H 0.49096 0.61389 0.40861 0.0
H1539 H 0.48918 0.58565 0.32989 0.0
H1540 H 0.54933 0.6005 0.26199 0.0
H1541 H 0.55173 0.62833 0.34222 0.0
C1542 C 0.51554 0.72867 0.36897 0.0
C1543 C 0.53494 0.73491 0.34692 0.0
C1544 C 0.51296 0.71026 0.4039 0.0
C1545 C 0.52968 0.69764 0.41748 0.0
C1546 C 0.54906 0.7043 0.39777 0.0
C1547 C 0.55168 0.7227 0.36407 0.0
C1548 C 0.52696 0.67675 0.44658 0.0
C1549 C 0.52511 0.65989 0.40488 0.0
C1550 C 0.52687 0.67315 0.5145 0.0
C1551 C 0.53016 0.68981 0.56154 0.0
C1552 C 0.54882 0.7004 0.56305 0.0
C1553 C 0.55238 0.71528 0.6103 0.0
C1554 C 0.53745 0.71956 0.65663 0.0
C1555 C 0.51891 0.70897 0.65576 0.0
C1556 C 0.51527 0.6941 0.6085 0.0
C1557 C 0.53669 0.58382 0.56348 0.0
C1558 C 0.51757 0.57458 0.57485 0.0
C1559 C 0.5383 0.60369 0.53803 0.0
C1560 C 0.52082 0.61518 0.52504 0.0
C1561 C 0.50173 0.60637 0.539 0.0
C1562 C 0.50012 0.5863 0.56257 0.0
C1563 C 0.52246 0.63629 0.49699 0.0
C1564 C 0.5244 0.65312 0.53877 0.0
C1565 C 0.52293 0.63986 0.42911 0.0
C1566 C 0.52165 0.6229 0.38213 0.0
C1567 C 0.50395 0.61085 0.37785 0.0
C1568 C 0.5028 0.59498 0.33278 0.0
C1569 C 0.51913 0.59128 0.29096 0.0
C1570 C 0.53668 0.60339 0.29439 0.0
C1571 C 0.53799 0.61912 0.33988 0.0
H1572 H 0.51818 0.57904 0.25591 0.0
H1573 H 0.54029 0.73096 0.69352 0.0
H1574 H 0.78141 0.53856 0.4261 0.0
H1575 H 0.81249 0.53289 0.49017 0.0
H1576 H 0.84668 0.52589 0.31222 0.0
H1577 H 0.81588 0.52854 0.25054 0.0
H1578 H 0.86336 0.5037 0.37977 0.0
H1579 H 0.84334 0.57277 0.43588 0.0
H1580 H 0.82116 0.59917 0.48239 0.0
H1581 H 0.8222 0.56897 0.66731 0.0
H1582 H 0.84419 0.54229 0.62162 0.0
H1583 H 0.96347 0.52534 0.47742 0.0
H1584 H 0.92922 0.5287 0.43563 0.0
H1585 H 0.90502 0.52014 0.62864 0.0
H1586 H 0.93984 0.51842 0.67181 0.0
H1587 H 0.88228 0.54717 0.5671 0.0
H1588 H 0.90698 0.48062 0.50422 0.0
H1589 H 0.93207 0.45784 0.45343 0.0
H1590 H 0.92427 0.48812 0.2705 0.0
H1591 H 0.89935 0.51124 0.32043 0.0
C1592 C 0.79551 0.53532 0.401 0.0
C1593 C 0.79592 0.53463 0.33251 0.0
C1594 C 0.81357 0.53252 0.43775 0.0
C1595 C 0.83268 0.52953 0.40704 0.0
C1596 C 0.83265 0.52812 0.3388 0.0
C1597 C 0.81474 0.53005 0.30283 0.0
C1598 C 0.8528 0.52753 0.44344 0.0
C1599 C 0.86733 0.51363 0.41993 0.0
C1600 C 0.85852 0.53959 0.49812 0.0
C1601 C 0.84511 0.55542 0.52513 0.0
C1602 C 0.83868 0.5717 0.4863 0.0
C1603 C 0.82617 0.58672 0.51253 0.0
C1604 C 0.8202 0.58571 0.57769 0.0
C1605 C 0.82677 0.5697 0.6168 0.0
C1606 C 0.83924 0.55463 0.59077 0.0
C1607 C 0.95104 0.52466 0.51162 0.0
C1608 C 0.95478 0.52195 0.57847 0.0
C1609 C 0.93119 0.5262 0.48722 0.0
C1610 C 0.91412 0.5242 0.52825 0.0
C1611 C 0.91772 0.52166 0.59535 0.0
C1612 C 0.93775 0.52056 0.62011 0.0
C1613 C 0.89276 0.5243 0.50058 0.0
C1614 C 0.87808 0.53752 0.5264 0.0
C1615 C 0.88703 0.51211 0.44659 0.0
C1616 C 0.90137 0.49767 0.41612 0.0
C1617 C 0.91063 0.48239 0.45317 0.0
C1618 C 0.92484 0.46945 0.42456 0.0
C1619 C 0.92978 0.47154 0.3588 0.0
C1620 C 0.92043 0.48651 0.32141 0.0
C1621 C 0.90624 0.49951 0.34981 0.0
H1622 H 0.94084 0.46155 0.3368 0.0
H1623 H 0.81054 0.59736 0.59792 0.0
loop_
_geom_bond_atom_site_label_1
_geom_bond_atom_site_label_2
_geom_bond_distance
_geom_bond_site_symmetry_2
_ccdc_geom_bond_type
H0 C3 0.929 . S
H1 C6 0.929 . S
H2 C8 0.930 . S
C3 H0 0.929 . S
C3 C4 1.398 . S
C3 C5 1.396 . S
C4 C3 1.398 . S
C4 C8 1.407 . S
C5 C3 1.396 . S
C5 C6 1.394 . S
C6 H1 0.929 . S
C6 C5 1.394 . S
C6 C7 1.382 . S
C7 C6 1.382 . S
C7 C8 1.392 . S
C7 N9 1.420 . S
C8 H2 0.930 . S
C8 C4 1.407 . S
C8 C7 1.392 . S
N9 C7 1.420 . S
N9 C10 1.244 . S
C10 N9 1.244 . S
H11 C14 0.929 . S
H12 C17 0.929 . S
H13 C19 0.930 . S
C14 H11 0.929 . S
C14 C15 1.398 . S
C14 C16 1.396 . S
C15 C14 1.398 . S
C15 C19 1.407 . S
C16 C14 1.396 . S
C16 C17 1.394 . S
C17 H12 0.929 . S
C17 C16 1.394 . S
C17 C18 1.382 . S
C18 C17 1.382 . S
C18 C19 1.392 . S
C18 N20 1.420 . S
C19 H13 0.930 . S
C19 C15 1.407 . S
C19 C18 1.392 . S
N20 C18 1.420 . S
N20 C21 1.244 . S
C21 N20 1.244 . S
H22 C25 0.929 . S
H23 C28 0.929 . S
H24 C30 0.930 . S
C25 H22 0.929 . S
C25 C26 1.398 . S
C25 C27 1.396 . S
C26 C25 1.398 . S
C26 C30 1.407 . S
C27 C25 1.396 . S
C27 C28 1.394 . S
C28 H23 0.929 . S
C28 C27 1.394 . S
C28 C29 1.382 . S
C29 C28 1.382 . S
C29 C30 1.392 . S
C29 N31 1.420 . S
C30 H24 0.930 . S
C30 C26 1.407 . S
C30 C29 1.392 . S
N31 C29 1.420 . S
N31 C32 1.244 . S
C32 N31 1.244 . S
H33 C36 0.929 . S
H34 C39 0.929 . S
H35 C41 0.930 . S
C36 H33 0.929 . S
C36 C37 1.398 . S
C36 C38 1.396 . S
C37 C36 1.398 . S
C37 C41 1.407 . S
C38 C36 1.396 . S
C38 C39 1.394 . S
C39 H34 0.929 . S
C39 C38 1.394 . S
C39 C40 1.382 . S
C40 C39 1.382 . S
C40 C41 1.392 . S
C40 N42 1.420 . S
C41 H35 0.930 . S
C41 C37 1.407 . S
C41 C40 1.392 . S
N42 C40 1.420 . S
N42 C43 1.244 . S
C43 N42 1.244 . S
H44 C47 0.929 . S
H45 C50 0.929 . S
H46 C52 0.930 . S
C47 H44 0.929 . S
C47 C48 1.398 1_554 S
C47 C49 1.396 . S
C48 C47 1.398 1_556 S
C48 C52 1.407 . S
C49 C47 1.396 . S
C49 C50 1.394 . S
C50 H45 0.929 . S
C50 C49 1.394 . S
C50 C51 1.382 . S
C51 C50 1.382 . S
C51 C52 1.392 1_554 S
C51 N53 1.420 . S
C52 H46 0.930 . S
C52 C48 1.407 . S
C52 C51 1.392 1_556 S
N53 C51 1.420 . S
N53 C54 1.244 . S
C54 N53 1.244 . S
H55 C58 0.929 . S
H56 C61 0.929 . S
H57 C63 0.930 . S
C58 H55 0.929 . S
C58 C59 1.398 1_554 S
C58 C60 1.396 . S
C59 C58 1.398 1_556 S
C59 C63 1.407 . S
C60 C58 1.396 . S
C60 C61 1.394 . S
C61 H56 0.929 . S
C61 C60 1.394 . S
C61 C62 1.382 . S
C62 C61 1.382 . S
C62 C63 1.392 1_554 S
C62 N64 1.420 . S
C63 H57 0.930 . S
C63 C59 1.407 . S
C63 C62 1.392 1_556 S
N64 C62 1.420 . S
N64 C65 1.244 . S
C65 N64 1.244 . S
H66 C69 0.929 . S
H67 C72 0.929 . S
H68 C74 0.930 . S
C69 H66 0.929 . S
C69 C70 1.398 1_554 S
C69 C71 1.396 . S
C70 C69 1.398 1_556 S
C70 C74 1.407 . S
C71 C69 1.396 . S
C71 C72 1.394 . S
C72 H67 0.929 . S
C72 C71 1.394 . S
C72 C73 1.382 . S
C73 C72 1.382 . S
C73 C74 1.392 1_554 S
C73 N75 1.420 . S
C74 H68 0.930 . S
C74 C70 1.407 . S
C74 C73 1.392 1_556 S
N75 C73 1.420 . S
N75 C76 1.244 . S
C76 N75 1.244 . S
H77 C80 0.929 . S
H78 C83 0.929 . S
H79 C85 0.930 . S
C80 H77 0.929 . S
C80 C81 1.398 1_554 S
C80 C82 1.396 . S
C81 C80 1.398 1_556 S
C81 C85 1.407 . S
C82 C80 1.396 . S
C82 C83 1.394 . S
C83 H78 0.929 . S
C83 C82 1.394 . S
C83 C84 1.382 . S
C84 C83 1.382 . S
C84 C85 1.392 1_554 S
C84 N86 1.420 . S
C85 H79 0.930 . S
C85 C81 1.407 . S
C85 C84 1.392 1_556 S
N86 C84 1.420 . S
N86 C87 1.244 . S
C87 N86 1.244 . S
C88 C90 1.422 . S
C88 C92 1.415 . S
C88 N94 1.369 . S
C89 C90 1.421 . S
C89 C91 1.417 . S
C89 C101 1.422 . S
C90 C88 1.422 . S
C90 C89 1.421 . S
C90 N100 1.359 . S
C91 C89 1.417 . S
C91 C93 1.329 . S
C91 H110 0.930 . S
C92 C88 1.415 . S
C92 C93 1.437 . S
C92 C96 1.413 . S
C93 C91 1.329 . S
C93 C92 1.437 . S
C93 H115 0.929 . S
N94 C88 1.369 . S
N94 C95 1.342 . S
N94 Gd99 2.622 1_545 S
C95 N94 1.342 . S
C95 C97 1.393 . S
C95 H107 0.911 1_545 S
C96 C92 1.413 . S
C96 C97 1.348 . S
C96 H112 0.931 . S
C97 C95 1.393 . S
C97 C96 1.348 . S
C97 H113 0.930 . S
Gd98 N118 2.622 . S
Gd98 N125 2.570 . S
Gd98 O132 2.353 1_655 S
Gd98 O133 2.468 1_655 S
Gd98 O134 2.427 . S
Gd98 O136 2.388 . S
Gd98 O137 2.386 1_545 S
Gd98 O141 2.307 1_655 S
Gd98 C151 2.805 . S
Gd99 N94 2.622 1_565 S
Gd99 N100 2.570 1_565 S
Gd99 O131 2.386 1_565 S
Gd99 O135 2.307 1_465 S
Gd99 O138 2.353 . S
Gd99 O139 2.468 . S
Gd99 O140 2.427 . S
Gd99 O142 2.388 . S
Gd99 C163 2.805 . S
N100 C90 1.359 . S
N100 Gd99 2.570 1_545 S
N100 C102 1.343 . S
C101 C89 1.422 . S
C101 C103 1.321 . S
C101 H109 0.931 . S
C102 N100 1.343 . S
C102 C103 1.390 . S
C102 H104 0.931 1_455 S
C103 C101 1.321 . S
C103 C102 1.390 . S
C103 H105 0.930 1_455 S
H104 C102 0.931 1_655 S
H105 C103 0.930 1_655 S
H106 C129 0.931 . S
H107 C95 0.911 1_565 S
H108 C130 0.936 . S
H109 C101 0.931 . S
H110 C91 0.930 . S
H111 C120 0.929 . S
H112 C96 0.931 . S
H113 C97 0.930 . S
H114 C152 0.930 . S
H115 C93 0.929 . S
H116 C121 0.941 . S
H117 C122 0.930 . S
N118 Gd98 2.622 . S
N118 C119 1.369 . S
N118 C120 1.338 . S
C119 N118 1.369 . S
C119 C123 1.415 1_545 S
C119 C126 1.422 . S
C120 H111 0.929 . S
C120 N118 1.338 . S
C120 C122 1.378 . S
C121 H116 0.941 . S
C121 C122 1.335 1_565 S
C121 C123 1.415 . S
C122 H117 0.930 . S
C122 C120 1.378 . S
C122 C121 1.335 1_545 S
C123 C119 1.415 1_565 S
C123 C121 1.415 . S
C123 C153 1.437 . S
H124 C153 0.929 . S
N125 Gd98 2.570 . S
N125 C126 1.359 . S
N125 C129 1.343 1_655 S
C126 C119 1.422 . S
C126 N125 1.359 . S
C126 C128 1.421 1_545 S
C127 C128 1.422 . S
C127 C130 1.340 1_655 S
C127 H154 0.931 . S
C128 C126 1.421 1_565 S
C128 C127 1.422 . S
C128 C152 1.417 . S
C129 H106 0.931 . S
C129 N125 1.343 1_455 S
C129 C130 1.368 1_545 S
C130 H108 0.936 . S
C130 C127 1.340 1_455 S
C130 C129 1.368 1_565 S
O131 Gd99 2.386 1_545 S
O131 C143 1.265 . S
O132 Gd98 2.353 1_455 S
O132 C143 1.242 . S
O133 Gd98 2.468 1_455 S
O133 C151 1.263 1_455 S
O134 Gd98 2.427 . S
O134 C151 1.252 . S
O135 Gd99 2.307 1_645 S
O135 C144 1.261 . S
O136 Gd98 2.388 . S
O136 C144 1.252 . S
O137 Gd98 2.386 1_565 S
O137 C155 1.265 . S
O138 Gd99 2.353 . S
O138 C155 1.242 1_455 S
O139 Gd99 2.468 . S
O139 C163 1.263 . S
O140 Gd99 2.427 . S
O140 C163 1.252 . S
O141 Gd98 2.307 1_455 S
O141 C156 1.261 . S
O142 Gd99 2.388 . S
O142 C156 1.252 1_565 S
C143 O131 1.265 . S
C143 O132 1.242 . S
C144 O135 1.261 . S
C144 O136 1.252 . S
C145 C148 1.394 . S
C145 C150 1.332 1_655 S
C145 C151 1.500 . S
C146 C149 1.383 . S
C146 C150 1.391 1_655 S
C147 C148 1.396 . S
C147 C149 1.365 . S
C147 H164 0.929 . S
C148 C145 1.394 . S
C148 C147 1.396 . S
C148 H165 0.930 . S
C149 C146 1.383 . S
C149 C147 1.365 . S
C149 H166 0.931 . S
C150 C145 1.332 1_455 S
C150 C146 1.391 1_455 S
C150 H167 0.975 . S
C151 Gd98 2.805 . S
C151 O133 1.263 1_655 S
C151 O134 1.252 . S
C151 C145 1.500 . S
C152 H114 0.930 . S
C152 C128 1.417 . S
C152 C153 1.329 . S
C153 C123 1.437 . S
C153 H124 0.929 . S
C153 C152 1.329 . S
H154 C127 0.931 . S
C155 O137 1.265 . S
C155 O138 1.242 1_655 S
C156 O141 1.261 . S
C156 O142 1.252 1_545 S
C157 C160 1.394 . S
C157 C162 1.370 . S
C157 C163 1.500 . S
C158 C161 1.383 . S
C158 C162 1.395 . S
C159 C160 1.396 . S
C159 C161 1.365 . S
C159 H168 0.929 . S
C160 C157 1.394 . S
C160 C159 1.396 . S
C160 H169 0.930 . S
C161 C158 1.383 . S
C161 C159 1.365 . S
C161 H170 0.931 . S
C162 C157 1.370 . S
C162 C158 1.395 . S
C162 H171 0.911 1_455 S
C163 Gd99 2.805 . S
C163 O139 1.263 . S
C163 O140 1.252 . S
C163 C157 1.500 . S
H164 C147 0.929 . S
H165 C148 0.930 . S
H166 C149 0.931 . S
H167 C150 0.975 . S
H168 C159 0.929 . S
H169 C160 0.930 . S
H170 C161 0.931 . S
H171 C162 0.911 1_655 S
C172 C174 1.422 . S
C172 C176 1.415 . S
C172 N178 1.369 . S
C173 C174 1.421 . S
C173 C175 1.417 . S
C173 C185 1.422 . S
C174 C172 1.422 . S
C174 C173 1.421 . S
C174 N184 1.359 . S
C175 C173 1.417 . S
C175 C177 1.329 . S
C175 H194 0.930 . S
C176 C172 1.415 . S
C176 C177 1.437 . S
C176 C180 1.413 . S
C177 C175 1.329 . S
C177 C176 1.437 . S
C177 H199 0.929 . S
N178 C172 1.369 . S
N178 C179 1.338 . S
N178 Gd183 2.622 . S
C179 N178 1.338 . S
C179 C181 1.378 . S
C179 H191 0.929 . S
C180 C176 1.413 . S
C180 C181 1.348 . S
C180 H196 0.931 . S
C181 C179 1.378 . S
C181 C180 1.348 . S
C181 H197 0.930 . S
Gd182 N202 2.622 . S
Gd182 N209 2.570 . S
Gd182 O216 2.353 1_545 S
Gd182 O217 2.468 . S
Gd182 O218 2.427 . S
Gd182 O220 2.388 . S
Gd182 O221 2.386 . S
Gd182 O225 2.307 . S
Gd182 C235 2.805 . S
Gd183 N178 2.622 . S
Gd183 N184 2.570 . S
Gd183 O215 2.386 . S
Gd183 O219 2.307 1_565 S
Gd183 O222 2.353 1_565 S
Gd183 O223 2.478 . S
Gd183 O224 2.427 . S
Gd183 O226 2.388 . S
Gd183 C247 2.805 . S
N184 C174 1.359 . S
N184 Gd183 2.570 . S
N184 C186 1.343 . S
C185 C173 1.422 . S
C185 C187 1.321 . S
C185 H193 0.931 . S
C186 N184 1.343 . S
C186 C187 1.390 . S
C186 H188 0.931 . S
C187 C185 1.321 . S
C187 C186 1.390 . S
C187 H189 0.930 . S
H188 C186 0.931 . S
H189 C187 0.930 . S
H190 C213 0.931 . S
H191 C179 0.929 . S
H192 C214 0.930 . S
H193 C185 0.931 . S
H194 C175 0.930 . S
H195 C204 0.929 . S
H196 C180 0.931 . S
H197 C181 0.930 . S
H198 C236 0.930 . S
H199 C177 0.929 . S
H200 C205 0.931 . S
H201 C206 0.930 . S
N202 Gd182 2.622 . S
N202 C203 1.369 . S
N202 C204 1.338 . S
C203 N202 1.369 . S
C203 C207 1.415 . S
C203 C210 1.422 . S
C204 H195 0.929 . S
C204 N202 1.338 . S
C204 C206 1.378 . S
C205 H200 0.931 . S
C205 C206 1.348 . S
C205 C207 1.413 . S
C206 H201 0.930 . S
C206 C204 1.378 . S
C206 C205 1.348 . S
C207 C203 1.415 . S
C207 C205 1.413 . S
C207 C237 1.437 . S
H208 C237 0.929 . S
N209 Gd182 2.570 . S
N209 C210 1.359 . S
N209 C213 1.343 . S
C210 C203 1.422 . S
C210 N209 1.359 . S
C210 C212 1.421 . S
C211 C212 1.422 . S
C211 C214 1.321 . S
C211 H238 0.931 . S
C212 C210 1.421 . S
C212 C211 1.422 . S
C212 C236 1.417 . S
C213 H190 0.931 . S
C213 N209 1.343 . S
C213 C214 1.390 . S
C214 H192 0.930 . S
C214 C211 1.321 . S
C214 C213 1.390 . S
O215 Gd183 2.386 . S
O215 C227 1.265 . S
O216 Gd182 2.353 1_565 S
O216 C227 1.242 . S
O217 Gd182 2.468 . S
O217 C235 1.263 . S
O218 Gd182 2.427 . S
O218 C235 1.252 . S
O219 Gd183 2.307 1_545 S
O219 C228 1.261 . S
O220 Gd182 2.388 . S
O220 C228 1.252 . S
O221 Gd182 2.386 . S
O221 C239 1.265 . S
O222 Gd183 2.353 1_545 S
O222 C239 1.242 . S
O223 Gd183 2.478 . S
O223 C247 1.270 . S
O224 Gd183 2.427 . S
O224 C247 1.252 . S
O225 Gd182 2.307 . S
O225 C240 1.261 . S
O226 Gd183 2.388 . S
O226 C240 1.252 1_565 S
C227 O215 1.265 . S
C227 O216 1.242 . S
C228 O219 1.261 . S
C228 O220 1.252 . S
C229 C232 1.394 . S
C229 C234 1.370 . S
C229 C235 1.500 . S
C230 C233 1.383 . S
C230 C234 1.395 . S
C231 C232 1.396 . S
C231 C233 1.365 . S
C231 H248 0.929 1_556 S
C232 C229 1.394 . S
C232 C231 1.396 . S
C232 H249 0.930 . S
C233 C230 1.383 . S
C233 C231 1.365 . S
C233 H250 0.931 . S
C234 C229 1.370 . S
C234 C230 1.395 . S
C234 H251 0.930 . S
C235 Gd182 2.805 . S
C235 O217 1.263 . S
C235 O218 1.252 . S
C235 C229 1.500 . S
C236 H198 0.930 . S
C236 C212 1.417 . S
C236 C237 1.329 . S
C237 C207 1.437 . S
C237 H208 0.929 . S
C237 C236 1.329 . S
H238 C211 0.931 . S
C239 O221 1.265 . S
C239 O222 1.242 . S
C240 O225 1.261 . S
C240 O226 1.252 1_545 S
C241 C244 1.401 . S
C241 C246 1.360 1_565 S
C241 C247 1.505 . S
C242 C245 1.383 . S
C242 C246 1.395 . S
C243 C244 1.396 . S
C243 C245 1.365 1_565 S
C243 H252 0.929 . S
C244 C241 1.401 . S
C244 C243 1.396 . S
C244 H253 0.930 . S
C245 C242 1.383 . S
C245 C243 1.365 1_545 S
C245 H254 0.931 . S
C246 C241 1.360 1_545 S
C246 C242 1.395 . S
C246 H255 0.930 . S
C247 Gd183 2.805 . S
C247 O223 1.270 . S
C247 O224 1.252 . S
C247 C241 1.505 . S
H248 C231 0.929 1_554 S
H249 C232 0.930 . S
H250 C233 0.931 . S
H251 C234 0.930 . S
H252 C243 0.929 . S
H253 C244 0.930 . S
H254 C245 0.931 . S
H255 C246 0.930 . S
C256 C258 1.422 . S
C256 C260 1.415 . S
C256 N262 1.369 . S
C257 C258 1.421 . S
C257 C259 1.417 . S
C257 C269 1.422 . S
C258 C256 1.422 . S
C258 C257 1.421 . S
C258 N268 1.359 . S
C259 C257 1.417 . S
C259 C261 1.329 . S
C259 H278 0.930 . S
C260 C256 1.415 . S
C260 C261 1.437 . S
C260 C264 1.413 . S
C261 C259 1.329 . S
C261 C260 1.437 . S
C261 H283 0.929 . S
N262 C256 1.369 . S
N262 C263 1.338 . S
N262 Gd267 2.622 . S
C263 N262 1.338 . S
C263 C265 1.378 . S
C263 H275 0.929 . S
C264 C260 1.413 . S
C264 C265 1.348 . S
C264 H280 0.931 . S
C265 C263 1.378 . S
C265 C264 1.348 . S
C265 H281 0.930 . S
Gd266 N286 2.622 . S
Gd266 N293 2.570 . S
Gd266 O300 2.353 . S
Gd266 O301 2.468 . S
Gd266 O302 2.427 . S
Gd266 O304 2.388 . S
Gd266 O305 2.386 . S
Gd266 O309 2.307 . S
Gd266 C319 2.805 . S
Gd267 N262 2.622 . S
Gd267 N268 2.570 . S
Gd267 O299 2.386 . S
Gd267 O303 2.307 . S
Gd267 O306 2.353 . S
Gd267 O307 2.468 . S
Gd267 O308 2.427 . S
Gd267 O310 2.388 . S
Gd267 C331 2.805 . S
N268 C258 1.359 . S
N268 Gd267 2.570 . S
N268 C270 1.343 . S
C269 C257 1.422 . S
C269 C271 1.321 . S
C269 H277 0.931 . S
C270 N268 1.343 . S
C270 C271 1.390 . S
C270 H272 0.931 . S
C271 C269 1.321 . S
C271 C270 1.390 . S
C271 H273 0.930 . S
H272 C270 0.931 . S
H273 C271 0.930 . S
H274 C297 0.931 . S
H275 C263 0.929 . S
H276 C298 0.930 . S
H277 C269 0.931 . S
H278 C259 0.930 . S
H279 C288 0.929 . S
H280 C264 0.931 . S
H281 C265 0.930 . S
H282 C320 0.930 . S
H283 C261 0.929 . S
H284 C289 0.931 . S
H285 C290 0.930 . S
N286 Gd266 2.622 . S
N286 C287 1.369 . S
N286 C288 1.338 . S
C287 N286 1.369 . S
C287 C291 1.415 . S
C287 C294 1.422 . S
C288 H279 0.929 . S
C288 N286 1.338 . S
C288 C290 1.378 . S
C289 H284 0.931 . S
C289 C290 1.348 . S
C289 C291 1.413 . S
C290 H285 0.930 . S
C290 C288 1.378 . S
C290 C289 1.348 . S
C291 C287 1.415 . S
C291 C289 1.413 . S
C291 C321 1.437 . S
H292 C321 0.929 . S
N293 Gd266 2.570 . S
N293 C294 1.359 . S
N293 C297 1.343 . S
C294 C287 1.422 . S
C294 N293 1.359 . S
C294 C296 1.421 . S
C295 C296 1.422 . S
C295 C298 1.321 . S
C295 H322 0.931 . S
C296 C294 1.421 . S
C296 C295 1.422 . S
C296 C320 1.417 . S
C297 H274 0.931 . S
C297 N293 1.343 . S
C297 C298 1.390 . S
C298 H276 0.930 . S
C298 C295 1.321 . S
C298 C297 1.390 . S
O299 Gd267 2.386 . S
O299 C311 1.265 . S
O300 Gd266 2.353 . S
O300 C311 1.242 . S
O301 Gd266 2.468 . S
O301 C319 1.263 . S
O302 Gd266 2.427 . S
O302 C319 1.252 . S
O303 Gd267 2.307 . S
O303 C312 1.261 . S
O304 Gd266 2.388 . S
O304 C312 1.252 . S
O305 Gd266 2.386 . S
O305 C323 1.265 . S
O306 Gd267 2.353 . S
O306 C323 1.242 . S
O307 Gd267 2.468 . S
O307 C331 1.263 . S
O308 Gd267 2.427 . S
O308 C331 1.252 . S
O309 Gd266 2.307 . S
O309 C324 1.261 . S
O310 Gd267 2.388 . S
O310 C324 1.252 . S
C311 O299 1.265 . S
C311 O300 1.242 . S
C312 O303 1.261 . S
C312 O304 1.252 . S
C313 C316 1.394 . S
C313 C318 1.370 . S
C313 C319 1.500 . S
C314 C317 1.383 . S
C314 C318 1.395 . S
C315 C316 1.396 . S
C315 C317 1.365 . S
C315 H332 0.929 . S
C316 C313 1.394 . S
C316 C315 1.396 . S
C316 H333 0.930 . S
C317 C314 1.383 . S
C317 C315 1.365 . S
C317 H334 0.931 . S
C318 C313 1.370 . S
C318 C314 1.395 . S
C318 H335 0.930 . S
C319 Gd266 2.805 . S
C319 O301 1.263 . S
C319 O302 1.252 . S
C319 C313 1.500 . S
C320 H282 0.930 . S
C320 C296 1.417 . S
C320 C321 1.329 . S
C321 C291 1.437 . S
C321 H292 0.929 . S
C321 C320 1.329 . S
H322 C295 0.931 . S
C323 O305 1.265 . S
C323 O306 1.242 . S
C324 O309 1.261 . S
C324 O310 1.252 . S
C325 C328 1.394 . S
C325 C330 1.370 . S
C325 C331 1.500 . S
C326 C329 1.383 . S
C326 C330 1.395 . S
C327 C328 1.396 . S
C327 C329 1.365 . S
C327 H336 0.929 . S
C328 C325 1.394 . S
C328 C327 1.396 . S
C328 H337 0.930 . S
C329 C326 1.383 . S
C329 C327 1.365 . S
C329 H338 0.931 . S
C330 C325 1.370 . S
C330 C326 1.395 . S
C330 H339 0.930 . S
C331 Gd267 2.805 . S
C331 O307 1.263 . S
C331 O308 1.252 . S
C331 C325 1.500 . S
H332 C315 0.929 . S
H333 C316 0.930 . S
H334 C317 0.931 . S
H335 C318 0.930 . S
H336 C327 0.929 . S
H337 C328 0.930 . S
H338 C329 0.931 . S
H339 C330 0.930 . S
C340 C342 1.422 . S
C340 C344 1.415 . S
C340 N346 1.361 1_455 S
C341 C342 1.421 . S
C341 C343 1.417 . S
C341 C353 1.422 . S
C342 C340 1.422 . S
C342 C341 1.421 . S
C342 N352 1.359 . S
C343 C341 1.417 . S
C343 C345 1.329 . S
C343 H362 0.930 . S
C344 C340 1.415 . S
C344 C345 1.437 . S
C344 C348 1.413 . S
C345 C343 1.329 . S
C345 C344 1.437 . S
C345 H367 0.929 . S
N346 C340 1.361 1_655 S
N346 C347 1.340 . S
N346 Gd351 2.626 . S
C347 N346 1.340 . S
C347 C349 1.378 1_655 S
C347 H359 0.929 . S
C348 C344 1.413 . S
C348 C349 1.348 . S
C348 H364 0.931 . S
C349 C347 1.378 1_455 S
C349 C348 1.348 . S
C349 H365 0.930 . S
Gd350 N370 2.622 . S
Gd350 N377 2.570 . S
Gd350 O384 2.353 . S
Gd350 O385 2.468 . S
Gd350 O386 2.427 . S
Gd350 O388 2.388 . S
Gd350 O389 2.386 1_455 S
Gd350 O393 2.307 . S
Gd350 C403 2.805 . S
Gd351 N346 2.626 . S
Gd351 N352 2.570 1_655 S
Gd351 O383 2.386 1_655 S
Gd351 O387 2.307 1_655 S
Gd351 O390 2.353 . S
Gd351 O391 2.468 . S
Gd351 O392 2.427 . S
Gd351 O394 2.388 . S
Gd351 C415 2.805 . S
N352 C342 1.359 . S
N352 Gd351 2.570 1_455 S
N352 C354 1.343 . S
C353 C341 1.422 . S
C353 C355 1.321 . S
C353 H361 0.931 . S
C354 N352 1.343 . S
C354 C355 1.390 . S
C354 H356 0.947 . S
C355 C353 1.321 . S
C355 C354 1.390 . S
C355 H357 0.930 . S
H356 C354 0.947 . S
H357 C355 0.930 . S
H358 C381 0.931 . S
H359 C347 0.929 . S
H360 C382 0.930 . S
H361 C353 0.931 . S
H362 C343 0.930 . S
H363 C372 0.929 . S
H364 C348 0.931 . S
H365 C349 0.930 . S
H366 C404 0.930 . S
H367 C345 0.929 . S
H368 C373 0.931 . S
H369 C374 0.930 . S
N370 Gd350 2.622 . S
N370 C371 1.369 . S
N370 C372 1.338 . S
C371 N370 1.369 . S
C371 C375 1.415 1_455 S
C371 C378 1.422 . S
C372 H363 0.929 . S
C372 N370 1.338 . S
C372 C374 1.378 . S
C373 H368 0.931 . S
C373 C374 1.348 1_655 S
C373 C375 1.413 . S
C374 H369 0.930 . S
C374 C372 1.378 . S
C374 C373 1.348 1_455 S
C375 C371 1.415 1_655 S
C375 C373 1.413 . S
C375 C405 1.437 . S
H376 C405 0.929 . S
N377 Gd350 2.570 . S
N377 C378 1.359 . S
N377 C381 1.343 . S
C378 C371 1.422 . S
C378 N377 1.359 . S
C378 C380 1.421 1_455 S
C379 C380 1.422 . S
C379 C382 1.321 . S
C379 H406 0.931 . S
C380 C378 1.421 1_655 S
C380 C379 1.422 . S
C380 C404 1.417 . S
C381 H358 0.931 . S
C381 N377 1.343 . S
C381 C382 1.390 1_455 S
C382 H360 0.930 . S
C382 C379 1.321 . S
C382 C381 1.390 1_655 S
O383 Gd351 2.386 1_455 S
O383 C395 1.265 . S
O384 Gd350 2.353 . S
O384 C395 1.242 . S
O385 Gd350 2.468 . S
O385 C403 1.263 . S
O386 Gd350 2.427 . S
O386 C403 1.252 . S
O387 Gd351 2.307 1_455 S
O387 C396 1.261 . S
O388 Gd350 2.388 . S
O388 C396 1.252 . S
O389 Gd350 2.386 1_655 S
O389 C407 1.265 . S
O390 Gd351 2.353 . S
O390 C407 1.242 . S
O391 Gd351 2.468 . S
O391 C415 1.263 . S
O392 Gd351 2.427 . S
O392 C415 1.252 . S
O393 Gd350 2.307 . S
O393 C408 1.261 . S
O394 Gd351 2.388 . S
O394 C408 1.252 1_655 S
C395 O383 1.265 . S
C395 O384 1.242 . S
C396 O387 1.261 . S
C396 O388 1.252 . S
C397 C400 1.394 . S
C397 C402 1.370 . S
C397 C403 1.500 . S
C398 C401 1.383 . S
C398 C402 1.395 . S
C399 C400 1.396 . S
C399 C401 1.365 . S
C399 H416 0.929 . S
C400 C397 1.394 . S
C400 C399 1.396 . S
C400 H417 0.930 . S
C401 C398 1.383 . S
C401 C399 1.365 . S
C401 H418 0.931 . S
C402 C397 1.370 . S
C402 C398 1.395 . S
C402 H419 0.930 . S
C403 Gd350 2.805 . S
C403 O385 1.263 . S
C403 O386 1.252 . S
C403 C397 1.500 . S
C404 H366 0.930 . S
C404 C380 1.417 . S
C404 C405 1.329 . S
C405 C375 1.437 . S
C405 H376 0.929 . S
C405 C404 1.329 . S
H406 C379 0.931 . S
C407 O389 1.265 . S
C407 O390 1.242 . S
C408 O393 1.261 . S
C408 O394 1.252 1_455 S
C409 C412 1.394 . S
C409 C414 1.370 . S
C409 C415 1.500 . S
C410 C413 1.383 . S
C410 C414 1.395 . S
C411 C412 1.396 . S
C411 C413 1.365 . S
C411 H420 0.929 . S
C412 C409 1.394 . S
C412 C411 1.396 . S
C412 H421 0.930 . S
C413 C410 1.383 . S
C413 C411 1.365 . S
C413 H422 0.931 . S
C414 C409 1.370 . S
C414 C410 1.395 . S
C414 H423 0.930 . S
C415 Gd351 2.805 . S
C415 O391 1.263 . S
C415 O392 1.252 . S
C415 C409 1.500 . S
H416 C399 0.929 . S
H417 C400 0.930 . S
H418 C401 0.931 . S
H419 C402 0.930 . S
H420 C411 0.929 . S
H421 C412 0.930 . S
H422 C413 0.931 . S
H423 C414 0.930 . S
H424 C442 0.951 . S
H425 C444 0.951 . S
H426 C446 0.950 . S
H427 C447 0.950 . S
H428 C449 0.950 . S
H429 C452 0.950 . S
H430 C453 0.950 . S
H431 C455 0.950 . S
H432 C456 0.950 . S
H433 C457 0.951 . S
H434 C459 0.951 . S
H435 C461 0.950 . S
H436 C462 0.950 . S
H437 C464 0.950 . S
H438 C467 0.950 . S
H439 C468 0.950 . S
H440 C470 0.950 . S
H441 C471 0.950 . S
C442 H424 0.951 . S
C442 C443 1.366 . S
C442 C444 1.388 . S
C443 C442 1.366 . S
C443 C447 1.385 . S
C444 H425 0.951 . S
C444 C442 1.388 . S
C444 C445 1.366 . S
C445 C444 1.366 . S
C445 C446 1.414 . S
C445 C448 1.499 . S
C446 H426 0.950 . S
C446 C445 1.414 . S
C446 C447 1.374 . S
C447 H427 0.950 . S
C447 C443 1.385 . S
C447 C446 1.374 . S
C448 C445 1.499 . S
C448 C449 1.373 . S
C448 C450 1.389 . S
C449 H428 0.950 . S
C449 C448 1.373 . S
C449 C465 1.377 . S
C450 C448 1.389 . S
C450 C451 1.524 . S
C450 C464 1.377 . S
C451 C450 1.524 . S
C451 C452 1.397 . S
C451 C456 1.363 . S
C452 H429 0.950 . S
C452 C451 1.397 . S
C452 C453 1.334 . S
C453 H430 0.950 . S
C453 C452 1.334 . S
C453 C454 1.287 . S
C454 C453 1.287 . S
C454 C455 1.524 . S
C454 H473 0.913 . S
C455 H431 0.950 . S
C455 C454 1.524 . S
C455 C456 1.415 . S
C456 H432 0.950 . S
C456 C451 1.363 . S
C456 C455 1.415 . S
C457 H433 0.951 . S
C457 C458 1.366 . S
C457 C459 1.388 . S
C458 C457 1.366 . S
C458 C462 1.385 . S
C459 H434 0.951 . S
C459 C457 1.388 . S
C459 C460 1.366 . S
C460 C459 1.366 . S
C460 C461 1.414 . S
C460 C463 1.499 . S
C461 H435 0.950 . S
C461 C460 1.414 . S
C461 C462 1.374 . S
C462 H436 0.950 . S
C462 C458 1.385 . S
C462 C461 1.374 . S
C463 C460 1.499 . S
C463 C464 1.373 . S
C463 C465 1.389 . S
C464 H437 0.950 . S
C464 C450 1.377 . S
C464 C463 1.373 . S
C465 C449 1.377 . S
C465 C463 1.389 . S
C465 C466 1.524 1_545 S
C466 C465 1.524 1_565 S
C466 C467 1.397 . S
C466 C471 1.363 . S
C467 H438 0.950 . S
C467 C466 1.397 . S
C467 C468 1.334 . S
C468 H439 0.950 . S
C468 C467 1.334 . S
C468 C469 1.287 . S
C469 C468 1.287 . S
C469 C470 1.524 . S
C469 H472 0.999 . S
C470 H440 0.950 . S
C470 C469 1.524 . S
C470 C471 1.415 . S
C471 H441 0.950 . S
C471 C466 1.363 . S
C471 C470 1.415 . S
H472 C469 0.999 . S
H473 C454 0.913 . S
H474 C492 0.951 . S
H475 C494 0.951 . S
H476 C496 0.950 . S
H477 C497 0.950 . S
H478 C499 0.950 . S
H479 C502 0.950 . S
H480 C503 0.950 . S
H481 C505 0.950 . S
H482 C506 0.950 . S
H483 C507 0.951 . S
H484 C509 0.951 . S
H485 C511 0.950 . S
H486 C512 0.950 . S
H487 C514 0.950 . S
H488 C517 0.950 . S
H489 C518 0.950 . S
H490 C520 0.950 . S
H491 C521 0.950 . S
C492 H474 0.951 . S
C492 C493 1.366 . S
C492 C494 1.388 . S
C493 C492 1.366 . S
C493 C497 1.385 . S
C494 H475 0.951 . S
C494 C492 1.388 . S
C494 C495 1.366 . S
C495 C494 1.366 . S
C495 C496 1.414 . S
C495 C498 1.499 . S
C496 H476 0.950 . S
C496 C495 1.414 . S
C496 C497 1.374 . S
C497 H477 0.950 . S
C497 C493 1.385 . S
C497 C496 1.374 . S
C498 C495 1.499 . S
C498 C499 1.373 . S
C498 C500 1.389 . S
C499 H478 0.950 . S
C499 C498 1.373 . S
C499 C515 1.377 . S
C500 C498 1.389 . S
C500 C501 1.524 . S
C500 C514 1.377 . S
C501 C500 1.524 . S
C501 C502 1.397 . S
C501 C506 1.363 . S
C502 H479 0.950 . S
C502 C501 1.397 . S
C502 C503 1.334 . S
C503 H480 0.950 . S
C503 C502 1.334 . S
C503 C504 1.287 . S
C504 C503 1.287 . S
C504 C505 1.524 . S
C504 H523 0.913 . S
C505 H481 0.950 . S
C505 C504 1.524 . S
C505 C506 1.415 . S
C506 H482 0.950 . S
C506 C501 1.363 . S
C506 C505 1.415 . S
C507 H483 0.951 . S
C507 C508 1.366 . S
C507 C509 1.388 . S
C508 C507 1.366 . S
C508 C512 1.385 . S
C509 H484 0.951 . S
C509 C507 1.388 . S
C509 C510 1.366 . S
C510 C509 1.366 . S
C510 C511 1.414 . S
C510 C513 1.499 . S
C511 H485 0.950 . S
C511 C510 1.414 . S
C511 C512 1.374 . S
C512 H486 0.950 . S
C512 C508 1.385 . S
C512 C511 1.374 . S
C513 C510 1.499 . S
C513 C514 1.373 . S
C513 C515 1.389 . S
C514 H487 0.950 . S
C514 C500 1.377 . S
C514 C513 1.373 . S
C515 C499 1.377 . S
C515 C513 1.389 . S
C515 C516 1.524 . S
C516 C515 1.524 . S
C516 C517 1.397 . S
C516 C521 1.363 . S
C517 H488 0.950 . S
C517 C516 1.397 . S
C517 C518 1.334 . S
C518 H489 0.950 . S
C518 C517 1.334 . S
C518 C519 1.287 . S
C519 C518 1.287 . S
C519 C520 1.524 . S
C519 H522 0.999 . S
C520 H490 0.950 . S
C520 C519 1.524 . S
C520 C521 1.415 . S
C521 H491 0.950 . S
C521 C516 1.363 . S
C521 C520 1.415 . S
H522 C519 0.999 . S
H523 C504 0.913 . S
H524 C542 0.951 . S
H525 C544 0.951 . S
H526 C546 0.950 . S
H527 C547 0.950 . S
H528 C549 0.950 . S
H529 C552 0.950 . S
H530 C553 0.950 . S
H531 C555 0.950 . S
H532 C556 0.950 . S
H533 C557 0.951 . S
H534 C559 0.951 . S
H535 C561 0.950 . S
H536 C562 0.950 . S
H537 C564 0.950 . S
H538 C567 0.950 . S
H539 C568 0.950 . S
H540 C570 0.950 . S
H541 C571 0.950 . S
C542 H524 0.951 . S
C542 C543 1.366 . S
C542 C544 1.388 . S
C543 C542 1.366 . S
C543 C547 1.385 . S
C544 H525 0.951 . S
C544 C542 1.388 . S
C544 C545 1.366 . S
C545 C544 1.366 . S
C545 C546 1.414 . S
C545 C548 1.499 . S
C546 H526 0.950 . S
C546 C545 1.414 . S
C546 C547 1.374 . S
C547 H527 0.950 . S
C547 C543 1.385 . S
C547 C546 1.374 . S
C548 C545 1.499 . S
C548 C549 1.373 . S
C548 C550 1.389 . S
C549 H528 0.950 . S
C549 C548 1.373 . S
C549 C565 1.377 . S
C550 C548 1.389 . S
C550 C551 1.524 . S
C550 C564 1.377 . S
C551 C550 1.524 . S
C551 C552 1.397 . S
C551 C556 1.363 . S
C552 H529 0.950 . S
C552 C551 1.397 . S
C552 C553 1.334 . S
C553 H530 0.950 . S
C553 C552 1.334 . S
C553 C554 1.287 . S
C554 C553 1.287 . S
C554 C555 1.524 . S
C554 H573 0.913 . S
C555 H531 0.950 . S
C555 C554 1.524 . S
C555 C556 1.415 . S
C556 H532 0.950 . S
C556 C551 1.363 . S
C556 C555 1.415 . S
C557 H533 0.951 . S
C557 C558 1.366 . S
C557 C559 1.388 . S
C558 C557 1.366 . S
C558 C562 1.385 . S
C559 H534 0.951 . S
C559 C557 1.388 . S
C559 C560 1.366 . S
C560 C559 1.366 . S
C560 C561 1.414 . S
C560 C563 1.499 . S
C561 H535 0.950 . S
C561 C560 1.414 . S
C561 C562 1.374 . S
C562 H536 0.950 . S
C562 C558 1.385 . S
C562 C561 1.374 . S
C563 C560 1.499 . S
C563 C564 1.373 . S
C563 C565 1.389 . S
C564 H537 0.950 . S
C564 C550 1.377 . S
C564 C563 1.373 . S
C565 C549 1.377 . S
C565 C563 1.389 . S
C565 C566 1.524 . S
C566 C565 1.524 . S
C566 C567 1.397 . S
C566 C571 1.363 . S
C567 H538 0.950 . S
C567 C566 1.397 . S
C567 C568 1.334 . S
C568 H539 0.950 . S
C568 C567 1.334 . S
C568 C569 1.287 . S
C569 C568 1.287 . S
C569 C570 1.524 . S
C569 H572 0.999 . S
C570 H540 0.950 . S
C570 C569 1.524 . S
C570 C571 1.415 . S
C571 H541 0.950 . S
C571 C566 1.363 . S
C571 C570 1.415 . S
H572 C569 0.999 . S
H573 C554 0.913 . S
H574 C592 0.951 . S
H575 C594 0.951 . S
H576 C596 0.950 . S
H577 C597 0.950 . S
H578 C599 0.950 . S
H579 C602 0.950 . S
H580 C603 0.950 . S
H581 C605 0.950 . S
H582 C606 0.950 . S
H583 C607 0.932 1_655 S
H584 C609 0.951 1_655 S
H585 C611 0.950 . S
H586 C612 0.950 . S
H587 C614 0.950 . S
H588 C617 0.950 . S
H589 C618 0.950 . S
H590 C620 0.950 1_655 S
H591 C621 0.950 1_655 S
C592 H574 0.951 . S
C592 C593 1.366 . S
C592 C594 1.388 . S
C593 C592 1.366 . S
C593 C597 1.385 . S
C594 H575 0.951 . S
C594 C592 1.388 . S
C594 C595 1.366 . S
C595 C594 1.366 . S
C595 C596 1.414 . S
C595 C598 1.499 . S
C596 H576 0.950 . S
C596 C595 1.414 . S
C596 C597 1.374 . S
C597 H577 0.950 . S
C597 C593 1.385 . S
C597 C596 1.374 . S
C598 C595 1.499 . S
C598 C599 1.373 . S
C598 C600 1.389 . S
C599 H578 0.950 . S
C599 C598 1.373 . S
C599 C615 1.377 . S
C600 C598 1.389 . S
C600 C601 1.524 . S
C600 C614 1.377 . S
C601 C600 1.524 . S
C601 C602 1.397 . S
C601 C606 1.363 . S
C602 H579 0.950 . S
C602 C601 1.397 . S
C602 C603 1.334 . S
C603 H580 0.950 . S
C603 C602 1.334 . S
C603 C604 1.287 . S
C604 C603 1.287 . S
C604 C605 1.524 . S
C604 H623 0.913 . S
C605 H581 0.950 . S
C605 C604 1.524 . S
C605 C606 1.415 . S
C606 H582 0.950 . S
C606 C601 1.363 . S
C606 C605 1.415 . S
C607 H583 0.932 1_455 S
C607 C608 1.381 . S
C607 C609 1.391 . S
C608 C607 1.381 . S
C608 C612 1.385 . S
C609 H584 0.951 1_455 S
C609 C607 1.391 . S
C609 C610 1.366 . S
C610 C609 1.366 . S
C610 C611 1.414 . S
C610 C613 1.499 . S
C611 H585 0.950 . S
C611 C610 1.414 . S
C611 C612 1.374 . S
C612 H586 0.950 . S
C612 C608 1.385 . S
C612 C611 1.374 . S
C613 C610 1.499 . S
C613 C614 1.373 . S
C613 C615 1.389 . S
C614 H587 0.950 . S
C614 C600 1.377 . S
C614 C613 1.373 . S
C615 C599 1.377 . S
C615 C613 1.389 . S
C615 C616 1.524 . S
C616 C615 1.524 . S
C616 C617 1.397 . S
C616 C621 1.363 . S
C617 H588 0.950 . S
C617 C616 1.397 . S
C617 C618 1.334 . S
C618 H589 0.950 . S
C618 C617 1.334 . S
C618 C619 1.287 . S
C619 C618 1.287 . S
C619 C620 1.524 . S
C619 H622 0.999 . S
C620 H590 0.950 1_455 S
C620 C619 1.524 . S
C620 C621 1.415 . S
C621 H591 0.950 1_455 S
C621 C616 1.363 . S
C621 C620 1.415 . S
H622 C619 0.999 . S
H623 C604 0.913 . S
H624 C642 0.951 1_545 S
H625 C644 0.951 1_545 S
H626 C646 0.950 . S
H627 C647 0.950 . S
H628 C649 0.950 . S
H629 C652 0.950 . S
H630 C653 0.950 . S
H631 C655 0.950 . S
H632 C656 0.950 . S
H633 C657 0.951 . S
H634 C659 0.951 . S
H635 C661 0.950 . S
H636 C662 0.950 . S
H637 C664 0.950 1_545 S
H638 C667 0.950 1_545 S
H639 C668 0.950 1_545 S
H640 C670 0.950 . S
H641 C671 0.950 . S
C642 H624 0.951 1_565 S
C642 C643 1.366 . S
C642 C644 1.388 . S
C643 C642 1.366 . S
C643 C647 1.385 . S
C644 H625 0.951 1_565 S
C644 C642 1.388 . S
C644 C645 1.366 . S
C645 C644 1.366 . S
C645 C646 1.414 . S
C645 C648 1.499 1_554 S
C646 H626 0.950 . S
C646 C645 1.414 . S
C646 C647 1.374 . S
C647 H627 0.950 . S
C647 C643 1.385 . S
C647 C646 1.374 . S
C648 C645 1.499 1_556 S
C648 C649 1.373 1_556 S
C648 C650 1.389 . S
C649 H628 0.950 . S
C649 C648 1.373 1_554 S
C649 C665 1.377 1_554 S
C650 C648 1.389 . S
C650 C651 1.524 . S
C650 C664 1.377 . S
C651 C650 1.524 . S
C651 C652 1.397 . S
C651 C656 1.363 1_565 S
C652 H629 0.950 . S
C652 C651 1.397 . S
C652 C653 1.334 . S
C653 H630 0.950 . S
C653 C652 1.334 . S
C653 C654 1.287 . S
C654 C653 1.287 . S
C654 C655 1.524 1_565 S
C654 H673 0.913 . S
C655 H631 0.950 . S
C655 C654 1.524 1_545 S
C655 C656 1.415 . S
C656 H632 0.950 . S
C656 C651 1.363 1_545 S
C656 C655 1.415 . S
C657 H633 0.951 . S
C657 C658 1.365 . S
C657 C659 1.388 . S
C658 C657 1.365 . S
C658 C662 1.385 1_565 S
C659 H634 0.951 . S
C659 C657 1.388 . S
C659 C660 1.366 . S
C660 C659 1.366 . S
C660 C661 1.414 1_565 S
C660 C663 1.499 . S
C661 H635 0.950 . S
C661 C660 1.414 1_545 S
C661 C662 1.374 . S
C662 H636 0.950 . S
C662 C658 1.385 1_545 S
C662 C661 1.374 . S
C663 C660 1.499 . S
C663 C664 1.373 . S
C663 C665 1.389 . S
C664 H637 0.950 1_565 S
C664 C650 1.377 . S
C664 C663 1.373 . S
C665 C649 1.377 1_556 S
C665 C663 1.389 . S
C665 C666 1.524 . S
C666 C665 1.524 . S
C666 C667 1.397 . S
C666 C671 1.363 1_556 S
C667 H638 0.950 1_565 S
C667 C666 1.397 . S
C667 C668 1.334 1_556 S
C668 H639 0.950 1_565 S
C668 C667 1.334 1_554 S
C668 C669 1.287 . S
C669 C668 1.287 . S
C669 C670 1.524 . S
C669 H672 0.999 . S
C670 H640 0.950 . S
C670 C669 1.524 . S
C670 C671 1.415 . S
C671 H641 0.950 . S
C671 C666 1.363 1_554 S
C671 C670 1.415 . S
H672 C669 0.999 . S
H673 C654 0.913 . S
H674 C692 0.951 . S
H675 C694 0.951 . S
H676 C696 0.950 . S
H677 C697 0.950 . S
H678 C699 0.950 1_554 S
H679 C702 0.950 . S
H680 C703 0.950 . S
H681 C705 0.950 . S
H682 C706 0.950 . S
H683 C707 0.951 . S
H684 C709 0.951 . S
H685 C711 0.950 . S
H686 C712 0.950 . S
H687 C714 0.950 . S
H688 C717 0.950 . S
H689 C718 0.950 . S
H690 C720 0.950 . S
H691 C721 0.950 . S
C692 H674 0.951 . S
C692 C693 1.366 . S
C692 C694 1.388 . S
C693 C692 1.366 . S
C693 C697 1.385 . S
C694 H675 0.951 . S
C694 C692 1.388 . S
C694 C695 1.366 . S
C695 C694 1.366 . S
C695 C696 1.414 . S
C695 C698 1.499 . S
C696 H676 0.950 . S
C696 C695 1.414 . S
C696 C697 1.374 . S
C697 H677 0.950 . S
C697 C693 1.385 . S
C697 C696 1.374 . S
C698 C695 1.499 . S
C698 C699 1.373 1_554 S
C698 C700 1.389 1_554 S
C699 H678 0.950 1_556 S
C699 C698 1.373 1_556 S
C699 C715 1.377 . S
C700 C698 1.389 1_556 S
C700 C701 1.524 1_556 S
C700 C714 1.377 . S
C701 C700 1.524 1_554 S
C701 C702 1.397 . S
C701 C706 1.363 1_554 S
C702 H679 0.950 . S
C702 C701 1.397 . S
C702 C703 1.334 . S
C703 H680 0.950 . S
C703 C702 1.334 . S
C703 C704 1.287 . S
C704 C703 1.287 . S
C704 C705 1.524 1_554 S
C704 H723 0.913 . S
C705 H681 0.950 . S
C705 C704 1.524 1_556 S
C705 C706 1.415 . S
C706 H682 0.950 . S
C706 C701 1.363 1_556 S
C706 C705 1.415 . S
C707 H683 0.951 . S
C707 C708 1.366 . S
C707 C709 1.388 . S
C708 C707 1.366 . S
C708 C712 1.385 . S
C709 H684 0.951 . S
C709 C707 1.388 . S
C709 C710 1.366 . S
C710 C709 1.366 . S
C710 C711 1.414 . S
C710 C713 1.499 . S
C711 H685 0.950 . S
C711 C710 1.414 . S
C711 C712 1.374 . S
C712 H686 0.950 . S
C712 C708 1.385 . S
C712 C711 1.374 . S
C713 C710 1.499 . S
C713 C714 1.373 . S
C713 C715 1.389 . S
C714 H687 0.950 . S
C714 C700 1.377 . S
C714 C713 1.373 . S
C715 C699 1.377 . S
C715 C713 1.389 . S
C715 C716 1.524 . S
C716 C715 1.524 . S
C716 C717 1.397 . S
C716 C721 1.363 . S
C717 H688 0.950 . S
C717 C716 1.397 . S
C717 C718 1.334 . S
C718 H689 0.950 . S
C718 C717 1.334 . S
C718 C719 1.287 . S
C719 C718 1.287 . S
C719 C720 1.524 . S
C719 H722 0.999 . S
C720 H690 0.950 . S
C720 C719 1.524 . S
C720 C721 1.415 . S
C721 H691 0.950 . S
C721 C716 1.363 . S
C721 C720 1.415 . S
H722 C719 0.999 . S
H723 C704 0.913 . S
H724 C742 0.951 . S
H725 C744 0.951 . S
H726 C746 0.950 1_556 S
H727 C747 0.950 . S
H728 C749 0.950 . S
H729 C752 0.950 1_556 S
H730 C753 0.950 . S
H731 C755 0.950 . S
H732 C756 0.950 . S
H733 C757 0.951 . S
H734 C759 0.951 . S
H735 C761 0.950 . S
H736 C762 0.950 . S
H737 C764 0.950 . S
H738 C767 0.950 . S
H739 C768 0.950 . S
H740 C770 0.950 . S
H741 C771 0.950 . S
C742 H724 0.951 . S
C742 C743 1.366 . S
C742 C744 1.388 . S
C743 C742 1.366 . S
C743 C747 1.385 . S
C744 H725 0.951 . S
C744 C742 1.388 . S
C744 C745 1.366 . S
C745 C744 1.366 . S
C745 C746 1.414 . S
C745 C748 1.499 1_554 S
C746 H726 0.950 1_554 S
C746 C745 1.414 . S
C746 C747 1.374 . S
C747 H727 0.950 . S
C747 C743 1.385 . S
C747 C746 1.374 . S
C748 C745 1.499 1_556 S
C748 C749 1.373 . S
C748 C750 1.389 . S
C749 H728 0.950 . S
C749 C748 1.373 . S
C749 C765 1.377 . S
C750 C748 1.389 . S
C750 C751 1.524 1_556 S
C750 C764 1.377 . S
C751 C750 1.524 1_554 S
C751 C752 1.397 . S
C751 C756 1.363 . S
C752 H729 0.950 1_554 S
C752 C751 1.397 . S
C752 C753 1.334 . S
C753 H730 0.950 . S
C753 C752 1.334 . S
C753 C754 1.287 . S
C754 C753 1.287 . S
C754 C755 1.524 . S
C754 H773 0.913 . S
C755 H731 0.950 . S
C755 C754 1.524 . S
C755 C756 1.415 . S
C756 H732 0.950 . S
C756 C751 1.363 . S
C756 C755 1.415 . S
C757 H733 0.951 . S
C757 C758 1.366 . S
C757 C759 1.388 . S
C758 C757 1.366 . S
C758 C762 1.385 . S
C759 H734 0.951 . S
C759 C757 1.388 . S
C759 C760 1.366 . S
C760 C759 1.366 . S
C760 C761 1.414 . S
C760 C763 1.499 . S
C761 H735 0.950 . S
C761 C760 1.414 . S
C761 C762 1.374 . S
C762 H736 0.950 . S
C762 C758 1.385 . S
C762 C761 1.374 . S
C763 C760 1.499 . S
C763 C764 1.373 . S
C763 C765 1.389 . S
C764 H737 0.950 . S
C764 C750 1.377 . S
C764 C763 1.373 . S
C765 C749 1.377 . S
C765 C763 1.389 . S
C765 C766 1.524 . S
C766 C765 1.524 . S
C766 C767 1.397 . S
C766 C771 1.363 . S
C767 H738 0.950 . S
C767 C766 1.397 . S
C767 C768 1.334 . S
C768 H739 0.950 . S
C768 C767 1.334 . S
C768 C769 1.287 . S
C769 C768 1.287 . S
C769 C770 1.524 . S
C769 H772 0.999 . S
C770 H740 0.950 . S
C770 C769 1.524 . S
C770 C771 1.415 . S
C771 H741 0.950 . S
C771 C766 1.363 . S
C771 C770 1.415 . S
H772 C769 0.999 . S
H773 C754 0.913 . S
H774 C792 0.951 . S
H775 C794 0.965 . S
H776 C796 0.950 1_556 S
H777 C797 0.950 . S
H778 C799 0.950 . S
H779 C802 0.950 . S
H780 C803 0.950 . S
H781 C805 0.950 . S
H782 C806 0.950 . S
H783 C807 0.951 . S
H784 C809 0.951 . S
H785 C811 0.950 . S
H786 C812 0.950 . S
H787 C814 0.950 . S
H788 C817 0.950 . S
H789 C818 0.950 . S
H790 C820 0.950 . S
H791 C821 0.950 . S
C792 H774 0.951 . S
C792 C793 1.366 . S
C792 C794 1.388 . S
C793 C792 1.366 . S
C793 C797 1.385 . S
C794 H775 0.965 . S
C794 C792 1.388 . S
C794 C795 1.366 . S
C795 C794 1.366 . S
C795 C796 1.414 . S
C795 C798 1.499 1_554 S
C796 H776 0.950 1_554 S
C796 C795 1.414 . S
C796 C797 1.374 . S
C797 H777 0.950 . S
C797 C793 1.385 . S
C797 C796 1.374 . S
C798 C795 1.499 1_556 S
C798 C799 1.373 . S
C798 C800 1.389 1_655 S
C799 H778 0.950 . S
C799 C798 1.373 . S
C799 C815 1.377 . S
C800 C798 1.389 1_455 S
C800 C801 1.524 1_556 S
C800 C814 1.377 . S
C801 C800 1.524 1_554 S
C801 C802 1.397 1_554 S
C801 C806 1.363 . S
C802 H779 0.950 . S
C802 C801 1.397 1_556 S
C802 C803 1.334 1_556 S
C803 H780 0.950 . S
C803 C802 1.334 1_554 S
C803 C804 1.287 . S
C804 C803 1.287 . S
C804 C805 1.524 . S
C804 H823 0.913 . S
C805 H781 0.950 . S
C805 C804 1.524 . S
C805 C806 1.415 . S
C806 H782 0.950 . S
C806 C801 1.363 . S
C806 C805 1.415 . S
C807 H783 0.951 . S
C807 C808 1.366 . S
C807 C809 1.388 . S
C808 C807 1.366 . S
C808 C812 1.385 1_655 S
C809 H784 0.951 . S
C809 C807 1.388 . S
C809 C810 1.366 . S
C810 C809 1.366 . S
C810 C811 1.414 1_655 S
C810 C813 1.499 . S
C811 H785 0.950 . S
C811 C810 1.414 1_455 S
C811 C812 1.374 . S
C812 H786 0.950 . S
C812 C808 1.385 1_455 S
C812 C811 1.374 . S
C813 C810 1.499 . S
C813 C814 1.373 1_655 S
C813 C815 1.389 . S
C814 H787 0.950 . S
C814 C800 1.377 . S
C814 C813 1.373 1_455 S
C815 C799 1.377 . S
C815 C813 1.389 . S
C815 C816 1.524 . S
C816 C815 1.524 . S
C816 C817 1.397 . S
C816 C821 1.363 . S
C817 H788 0.950 . S
C817 C816 1.397 . S
C817 C818 1.334 . S
C818 H789 0.950 . S
C818 C817 1.334 . S
C818 C819 1.287 . S
C819 C818 1.287 . S
C819 C820 1.524 . S
C819 H822 0.999 . S
C820 H790 0.950 . S
C820 C819 1.524 . S
C820 C821 1.415 . S
C821 H791 0.950 . S
C821 C816 1.363 . S
C821 C820 1.415 . S
H822 C819 0.999 . S
H823 C804 0.913 . S
H824 C842 0.951 . S
H825 C844 0.951 . S
H826 C846 0.950 . S
H827 C847 0.950 . S
H828 C849 0.950 . S
H829 C852 0.950 . S
H830 C853 0.950 . S
H831 C855 0.950 . S
H832 C856 0.950 . S
H833 C857 0.951 . S
H834 C859 0.951 . S
H835 C861 0.950 . S
H836 C862 0.950 . S
H837 C864 0.950 . S
H838 C867 0.950 . S
H839 C868 0.950 . S
H840 C870 0.950 . S
H841 C871 0.950 . S
C842 H824 0.951 . S
C842 C843 1.366 . S
C842 C844 1.388 . S
C843 C842 1.366 . S
C843 C847 1.385 . S
C844 H825 0.951 . S
C844 C842 1.388 . S
C844 C845 1.366 . S
C845 C844 1.366 . S
C845 C846 1.414 . S
C845 C848 1.499 . S
C846 H826 0.950 . S
C846 C845 1.414 . S
C846 C847 1.374 . S
C847 H827 0.950 . S
C847 C843 1.385 . S
C847 C846 1.374 . S
C848 C845 1.499 . S
C848 C849 1.373 . S
C848 C850 1.389 . S
C849 H828 0.950 . S
C849 C848 1.373 . S
C849 C865 1.377 . S
C850 C848 1.389 . S
C850 C851 1.524 . S
C850 C864 1.377 . S
C851 C850 1.524 . S
C851 C852 1.397 . S
C851 C856 1.363 . S
C852 H829 0.950 . S
C852 C851 1.397 . S
C852 C853 1.334 . S
C853 H830 0.950 . S
C853 C852 1.334 . S
C853 C854 1.287 . S
C854 C853 1.287 . S
C854 C855 1.524 . S
C854 H873 0.913 . S
C855 H831 0.950 . S
C855 C854 1.524 . S
C855 C856 1.415 . S
C856 H832 0.950 . S
C856 C851 1.363 . S
C856 C855 1.415 . S
C857 H833 0.951 . S
C857 C858 1.366 . S
C857 C859 1.388 . S
C858 C857 1.366 . S
C858 C862 1.385 . S
C859 H834 0.951 . S
C859 C857 1.388 . S
C859 C860 1.366 . S
C860 C859 1.366 . S
C860 C861 1.414 . S
C860 C863 1.499 . S
C861 H835 0.950 . S
C861 C860 1.414 . S
C861 C862 1.374 . S
C862 H836 0.950 . S
C862 C858 1.385 . S
C862 C861 1.374 . S
C863 C860 1.499 . S
C863 C864 1.373 . S
C863 C865 1.389 . S
C864 H837 0.950 . S
C864 C850 1.377 . S
C864 C863 1.373 . S
C865 C849 1.377 . S
C865 C863 1.389 . S
C865 C866 1.524 1_455 S
C866 C865 1.524 1_655 S
C866 C867 1.397 . S
C866 C871 1.363 . S
C867 H838 0.950 . S
C867 C866 1.397 . S
C867 C868 1.334 . S
C868 H839 0.950 . S
C868 C867 1.334 . S
C868 C869 1.287 . S
C869 C868 1.287 . S
C869 C870 1.524 . S
C869 H872 0.999 . S
C870 H840 0.950 . S
C870 C869 1.524 . S
C870 C871 1.415 . S
C871 H841 0.950 . S
C871 C866 1.363 . S
C871 C870 1.415 . S
H872 C869 0.999 . S
H873 C854 0.913 . S
H874 C892 0.951 . S
H875 C894 0.951 . S
H876 C896 0.950 . S
H877 C897 0.950 . S
H878 C899 0.950 . S
H879 C902 0.908 1_545 S
H880 C903 0.950 . S
H881 C905 0.950 . S
H882 C906 0.950 . S
H883 C907 0.951 . S
H884 C909 0.951 . S
H885 C911 0.942 1_565 S
H886 C912 0.950 1_565 S
H887 C914 0.950 1_565 S
H888 C917 0.950 . S
H889 C918 0.950 . S
H890 C920 0.950 . S
H891 C921 0.950 . S
C892 H874 0.951 . S
C892 C893 1.366 . S
C892 C894 1.388 . S
C893 C892 1.366 . S
C893 C897 1.385 . S
C894 H875 0.951 . S
C894 C892 1.388 . S
C894 C895 1.366 . S
C895 C894 1.366 . S
C895 C896 1.414 . S
C895 C898 1.499 . S
C896 H876 0.950 . S
C896 C895 1.414 . S
C896 C897 1.374 . S
C897 H877 0.950 . S
C897 C893 1.385 . S
C897 C896 1.374 . S
C898 C895 1.499 . S
C898 C899 1.373 . S
C898 C900 1.389 . S
C899 H878 0.950 . S
C899 C898 1.373 . S
C899 C915 1.377 . S
C900 C898 1.389 . S
C900 C901 1.524 1_545 S
C900 C914 1.377 . S
C901 C900 1.524 1_565 S
C901 C902 1.397 . S
C901 C906 1.363 . S
C902 H879 0.908 1_565 S
C902 C901 1.397 . S
C902 C903 1.334 . S
C903 H880 0.950 . S
C903 C902 1.334 . S
C903 C904 1.287 . S
C904 C903 1.287 . S
C904 C905 1.524 . S
C904 H923 0.913 . S
C905 H881 0.950 . S
C905 C904 1.524 . S
C905 C906 1.415 . S
C906 H882 0.950 . S
C906 C901 1.363 . S
C906 C905 1.415 . S
C907 H883 0.951 . S
C907 C908 1.366 . S
C907 C909 1.388 . S
C908 C907 1.366 . S
C908 C912 1.385 . S
C909 H884 0.951 . S
C909 C907 1.388 . S
C909 C910 1.366 . S
C910 C909 1.366 . S
C910 C911 1.414 . S
C910 C913 1.499 . S
C911 H885 0.942 1_545 S
C911 C910 1.414 . S
C911 C912 1.374 . S
C912 H886 0.950 1_545 S
C912 C908 1.385 . S
C912 C911 1.374 . S
C913 C910 1.499 . S
C913 C914 1.373 . S
C913 C915 1.389 . S
C914 H887 0.950 1_545 S
C914 C900 1.377 . S
C914 C913 1.373 . S
C915 C899 1.377 . S
C915 C913 1.389 . S
C915 C916 1.524 . S
C916 C915 1.524 . S
C916 C917 1.397 . S
C916 C921 1.363 . S
C917 H888 0.950 . S
C917 C916 1.397 . S
C917 C918 1.334 . S
C918 H889 0.950 . S
C918 C917 1.334 . S
C918 C919 1.287 . S
C919 C918 1.287 . S
C919 C920 1.524 . S
C919 H922 0.999 . S
C920 H890 0.950 . S
C920 C919 1.524 . S
C920 C921 1.415 . S
C921 H891 0.950 . S
C921 C916 1.363 . S
C921 C920 1.415 . S
H922 C919 0.999 . S
H923 C904 0.913 . S
H924 C942 0.951 . S
H925 C944 0.951 . S
H926 C946 0.950 . S
H927 C947 0.950 . S
H928 C949 0.950 . S
H929 C952 0.950 . S
H930 C953 0.950 . S
H931 C955 0.950 . S
H932 C956 0.950 . S
H933 C957 0.951 . S
H934 C959 0.951 . S
H935 C961 0.950 . S
H936 C962 0.950 . S
H937 C964 0.950 . S
H938 C967 0.950 . S
H939 C968 0.950 . S
H940 C970 0.950 . S
H941 C971 0.950 . S
C942 H924 0.951 . S
C942 C943 1.366 . S
C942 C944 1.388 . S
C943 C942 1.366 . S
C943 C947 1.385 . S
C944 H925 0.951 . S
C944 C942 1.388 . S
C944 C945 1.366 . S
C945 C944 1.366 . S
C945 C946 1.414 . S
C945 C948 1.499 . S
C946 H926 0.950 . S
C946 C945 1.414 . S
C946 C947 1.374 . S
C947 H927 0.950 . S
C947 C943 1.385 . S
C947 C946 1.374 . S
C948 C945 1.499 . S
C948 C949 1.373 . S
C948 C950 1.389 . S
C949 H928 0.950 . S
C949 C948 1.373 . S
C949 C965 1.377 . S
C950 C948 1.389 . S
C950 C951 1.524 . S
C950 C964 1.377 . S
C951 C950 1.524 . S
C951 C952 1.397 . S
C951 C956 1.363 . S
C952 H929 0.950 . S
C952 C951 1.397 . S
C952 C953 1.334 . S
C953 H930 0.950 . S
C953 C952 1.334 . S
C953 C954 1.287 . S
C954 C953 1.287 . S
C954 C955 1.524 . S
C954 H973 0.913 . S
C955 H931 0.950 . S
C955 C954 1.524 . S
C955 C956 1.415 . S
C956 H932 0.950 . S
C956 C951 1.363 . S
C956 C955 1.415 . S
C957 H933 0.951 . S
C957 C958 1.366 . S
C957 C959 1.388 . S
C958 C957 1.366 . S
C958 C962 1.385 . S
C959 H934 0.951 . S
C959 C957 1.388 . S
C959 C960 1.366 . S
C960 C959 1.366 . S
C960 C961 1.414 . S
C960 C963 1.499 . S
C961 H935 0.950 . S
C961 C960 1.414 . S
C961 C962 1.374 . S
C962 H936 0.950 . S
C962 C958 1.385 . S
C962 C961 1.374 . S
C963 C960 1.499 . S
C963 C964 1.373 . S
C963 C965 1.389 . S
C964 H937 0.950 . S
C964 C950 1.377 . S
C964 C963 1.373 . S
C965 C949 1.377 . S
C965 C963 1.389 . S
C965 C966 1.524 . S
C966 C965 1.524 . S
C966 C967 1.397 . S
C966 C971 1.363 . S
C967 H938 0.950 . S
C967 C966 1.397 . S
C967 C968 1.334 . S
C968 H939 0.950 . S
C968 C967 1.334 . S
C968 C969 1.287 . S
C969 C968 1.287 . S
C969 C970 1.524 . S
C969 H972 0.999 . S
C970 H940 0.950 . S
C970 C969 1.524 . S
C970 C971 1.415 . S
C971 H941 0.950 . S
C971 C966 1.363 . S
C971 C970 1.415 . S
H972 C969 0.999 . S
H973 C954 0.913 . S
H974 C992 0.951 . S
H975 C994 0.951 . S
H976 C996 0.950 . S
H977 C997 0.950 . S
H978 C999 0.950 . S
H979 C1002 0.950 . S
H980 C1003 0.950 . S
H981 C1005 0.950 . S
H982 C1006 0.950 . S
H983 C1007 0.951 . S
H984 C1009 0.951 . S
H985 C1011 0.950 . S
H986 C1012 0.950 . S
H987 C1014 0.950 . S
H988 C1017 0.950 . S
H989 C1018 0.950 . S
H990 C1020 0.950 . S
H991 C1021 0.950 . S
C992 H974 0.951 . S
C992 C993 1.366 . S
C992 C994 1.388 . S
C993 C992 1.366 . S
C993 C997 1.385 . S
C994 H975 0.951 . S
C994 C992 1.388 . S
C994 C995 1.366 . S
C995 C994 1.366 . S
C995 C996 1.414 . S
C995 C998 1.499 . S
C996 H976 0.950 . S
C996 C995 1.414 . S
C996 C997 1.374 . S
C997 H977 0.950 . S
C997 C993 1.385 . S
C997 C996 1.374 . S
C998 C995 1.499 . S
C998 C999 1.373 . S
C998 C1000 1.389 . S
C999 H978 0.950 . S
C999 C998 1.373 . S
C999 C1015 1.377 . S
C1000 C998 1.389 . S
C1000 C1001 1.524 . S
C1000 C1014 1.377 . S
C1001 C1000 1.524 . S
C1001 C1002 1.397 . S
C1001 C1006 1.363 . S
C1002 H979 0.950 . S
C1002 C1001 1.397 . S
C1002 C1003 1.334 . S
C1003 H980 0.950 . S
C1003 C1002 1.334 . S
C1003 C1004 1.287 . S
C1004 C1003 1.287 . S
C1004 C1005 1.524 . S
C1004 H1023 0.913 . S
C1005 H981 0.950 . S
C1005 C1004 1.524 . S
C1005 C1006 1.415 . S
C1006 H982 0.950 . S
C1006 C1001 1.363 . S
C1006 C1005 1.415 . S
C1007 H983 0.951 . S
C1007 C1008 1.366 . S
C1007 C1009 1.388 . S
C1008 C1007 1.366 . S
C1008 C1012 1.385 . S
C1009 H984 0.951 . S
C1009 C1007 1.388 . S
C1009 C1010 1.366 . S
C1010 C1009 1.366 . S
C1010 C1011 1.414 . S
C1010 C1013 1.499 . S
C1011 H985 0.950 . S
C1011 C1010 1.414 . S
C1011 C1012 1.374 . S
C1012 H986 0.950 . S
C1012 C1008 1.385 . S
C1012 C1011 1.374 . S
C1013 C1010 1.499 . S
C1013 C1014 1.373 . S
C1013 C1015 1.389 . S
C1014 H987 0.950 . S
C1014 C1000 1.377 . S
C1014 C1013 1.373 . S
C1015 C999 1.377 . S
C1015 C1013 1.389 . S
C1015 C1016 1.524 . S
C1016 C1015 1.524 . S
C1016 C1017 1.397 . S
C1016 C1021 1.363 . S
C1017 H988 0.950 . S
C1017 C1016 1.397 . S
C1017 C1018 1.334 . S
C1018 H989 0.950 . S
C1018 C1017 1.334 . S
C1018 C1019 1.287 . S
C1019 C1018 1.287 . S
C1019 C1020 1.524 . S
C1019 H1022 0.999 . S
C1020 H990 0.950 . S
C1020 C1019 1.524 . S
C1020 C1021 1.415 . S
C1021 H991 0.950 . S
C1021 C1016 1.363 . S
C1021 C1020 1.415 . S
H1022 C1019 0.999 . S
H1023 C1004 0.913 . S
H1024 C1042 0.951 1_455 S
H1025 C1044 0.951 1_455 S
H1026 C1046 0.950 . S
H1027 C1047 0.950 . S
H1028 C1049 0.950 1_556 S
H1029 C1052 0.950 1_655 S
H1030 C1053 0.950 . S
H1031 C1055 0.950 . S
H1032 C1056 0.950 . S
H1033 C1057 0.951 . S
H1034 C1059 0.951 . S
H1035 C1061 0.950 . S
H1036 C1062 0.950 . S
H1037 C1064 0.950 . S
H1038 C1067 0.950 . S
H1039 C1068 0.950 . S
H1040 C1070 0.950 . S
H1041 C1071 0.950 . S
C1042 H1024 0.951 1_655 S
C1042 C1043 1.366 . S
C1042 C1044 1.388 . S
C1043 C1042 1.366 . S
C1043 C1047 1.385 . S
C1044 H1025 0.951 1_655 S
C1044 C1042 1.388 . S
C1044 C1045 1.366 . S
C1045 C1044 1.366 . S
C1045 C1046 1.414 . S
C1045 C1048 1.499 . S
C1046 H1026 0.950 . S
C1046 C1045 1.414 . S
C1046 C1047 1.374 . S
C1047 H1027 0.950 . S
C1047 C1043 1.385 . S
C1047 C1046 1.374 . S
C1048 C1045 1.499 . S
C1048 C1049 1.373 . S
C1048 C1050 1.351 1_655 S
C1049 H1028 0.950 1_554 S
C1049 C1048 1.373 . S
C1049 C1065 1.377 1_554 S
C1050 C1048 1.351 1_455 S
C1050 C1051 1.553 . S
C1050 C1064 1.388 . S
C1051 C1050 1.553 . S
C1051 C1052 1.397 . S
C1051 C1056 1.363 . S
C1052 H1029 0.950 1_455 S
C1052 C1051 1.397 . S
C1052 C1053 1.334 . S
C1053 H1030 0.950 . S
C1053 C1052 1.334 . S
C1053 C1054 1.287 . S
C1054 C1053 1.287 . S
C1054 C1055 1.524 . S
C1054 H1073 0.913 . S
C1055 H1031 0.950 . S
C1055 C1054 1.524 . S
C1055 C1056 1.415 . S
C1056 H1032 0.950 . S
C1056 C1051 1.363 . S
C1056 C1055 1.415 . S
C1057 H1033 0.951 . S
C1057 C1058 1.366 1_655 S
C1057 C1059 1.388 . S
C1058 C1057 1.366 1_455 S
C1058 C1062 1.385 . S
C1059 H1034 0.951 . S
C1059 C1057 1.388 . S
C1059 C1060 1.366 . S
C1060 C1059 1.366 . S
C1060 C1061 1.414 1_655 S
C1060 C1063 1.499 . S
C1061 H1035 0.950 . S
C1061 C1060 1.414 1_455 S
C1061 C1062 1.374 . S
C1062 H1036 0.950 . S
C1062 C1058 1.385 . S
C1062 C1061 1.374 . S
C1063 C1060 1.499 . S
C1063 C1064 1.373 1_656 S
C1063 C1065 1.389 . S
C1064 H1037 0.950 . S
C1064 C1050 1.388 . S
C1064 C1063 1.373 1_454 S
C1065 C1049 1.377 1_556 S
C1065 C1063 1.389 . S
C1065 C1066 1.524 . S
C1066 C1065 1.524 . S
C1066 C1067 1.397 . S
C1066 C1071 1.363 . S
C1067 H1038 0.950 . S
C1067 C1066 1.397 . S
C1067 C1068 1.334 . S
C1068 H1039 0.950 . S
C1068 C1067 1.334 . S
C1068 C1069 1.287 . S
C1069 C1068 1.287 . S
C1069 C1070 1.524 . S
C1069 H1072 0.999 . S
C1070 H1040 0.950 . S
C1070 C1069 1.524 . S
C1070 C1071 1.415 . S
C1071 H1041 0.950 . S
C1071 C1066 1.363 . S
C1071 C1070 1.415 . S
H1072 C1069 0.999 . S
H1073 C1054 0.913 . S
H1074 C1092 0.951 . S
H1075 C1094 0.951 . S
H1076 C1096 0.950 . S
H1077 C1097 0.950 . S
H1078 C1099 0.950 . S
H1079 C1102 0.950 . S
H1080 C1103 0.950 . S
H1081 C1105 0.950 . S
H1082 C1106 0.950 . S
H1083 C1107 0.951 . S
H1084 C1109 0.951 . S
H1085 C1111 0.950 1_554 S
H1086 C1112 0.950 . S
H1087 C1114 0.950 . S
H1088 C1117 0.950 . S
H1089 C1118 0.950 . S
H1090 C1120 0.950 . S
H1091 C1121 0.950 . S
C1092 H1074 0.951 . S
C1092 C1093 1.366 . S
C1092 C1094 1.388 . S
C1093 C1092 1.366 . S
C1093 C1097 1.385 . S
C1094 H1075 0.951 . S
C1094 C1092 1.388 . S
C1094 C1095 1.366 . S
C1095 C1094 1.366 . S
C1095 C1096 1.414 . S
C1095 C1098 1.499 . S
C1096 H1076 0.950 . S
C1096 C1095 1.414 . S
C1096 C1097 1.374 . S
C1097 H1077 0.950 . S
C1097 C1093 1.385 . S
C1097 C1096 1.374 . S
C1098 C1095 1.499 . S
C1098 C1099 1.373 1_565 S
C1098 C1100 1.389 . S
C1099 H1078 0.950 . S
C1099 C1098 1.373 1_545 S
C1099 C1115 1.377 . S
C1100 C1098 1.389 . S
C1100 C1101 1.524 . S
C1100 C1114 1.377 . S
C1101 C1100 1.524 . S
C1101 C1102 1.397 . S
C1101 C1106 1.363 . S
C1102 H1079 0.950 . S
C1102 C1101 1.397 . S
C1102 C1103 1.334 . S
C1103 H1080 0.950 . S
C1103 C1102 1.334 . S
C1103 C1104 1.287 . S
C1104 C1103 1.287 . S
C1104 C1105 1.524 . S
C1104 H1123 0.913 . S
C1105 H1081 0.950 . S
C1105 C1104 1.524 . S
C1105 C1106 1.415 . S
C1106 H1082 0.950 . S
C1106 C1101 1.363 . S
C1106 C1105 1.415 . S
C1107 H1083 0.951 . S
C1107 C1108 1.366 . S
C1107 C1109 1.388 . S
C1108 C1107 1.366 . S
C1108 C1112 1.385 1_545 S
C1109 H1084 0.951 . S
C1109 C1107 1.388 . S
C1109 C1110 1.359 1_545 S
C1110 C1109 1.359 1_565 S
C1110 C1111 1.418 . S
C1110 C1113 1.502 . S
C1111 H1085 0.950 1_556 S
C1111 C1110 1.418 . S
C1111 C1112 1.374 . S
C1112 H1086 0.950 . S
C1112 C1108 1.385 1_565 S
C1112 C1111 1.374 . S
C1113 C1110 1.502 . S
C1113 C1114 1.373 1_556 S
C1113 C1115 1.389 1_566 S
C1114 H1087 0.950 . S
C1114 C1100 1.377 . S
C1114 C1113 1.373 1_554 S
C1115 C1099 1.377 . S
C1115 C1113 1.389 1_544 S
C1115 C1116 1.524 1_554 S
C1116 C1115 1.524 1_556 S
C1116 C1117 1.397 1_556 S
C1116 C1121 1.363 . S
C1117 H1088 0.950 . S
C1117 C1116 1.397 1_554 S
C1117 C1118 1.334 . S
C1118 H1089 0.950 . S
C1118 C1117 1.334 . S
C1118 C1119 1.287 1_554 S
C1119 C1118 1.287 1_556 S
C1119 C1120 1.524 . S
C1119 H1122 0.999 . S
C1120 H1090 0.950 . S
C1120 C1119 1.524 . S
C1120 C1121 1.415 . S
C1121 H1091 0.950 . S
C1121 C1116 1.363 . S
C1121 C1120 1.415 . S
H1122 C1119 0.999 . S
H1123 C1104 0.913 . S
H1124 C1142 0.951 . S
H1125 C1144 0.951 . S
H1126 C1146 0.950 . S
H1127 C1147 0.950 . S
H1128 C1149 0.950 . S
H1129 C1152 0.950 . S
H1130 C1153 0.950 . S
H1131 C1155 0.950 . S
H1132 C1156 0.950 . S
H1133 C1157 0.951 . S
H1134 C1159 0.951 . S
H1135 C1161 0.950 . S
H1136 C1162 0.950 . S
H1137 C1164 0.950 . S
H1138 C1167 0.950 . S
H1139 C1168 0.950 . S
H1140 C1170 0.950 . S
H1141 C1171 0.950 . S
C1142 H1124 0.951 . S
C1142 C1143 1.366 . S
C1142 C1144 1.388 . S
C1143 C1142 1.366 . S
C1143 C1147 1.385 . S
C1144 H1125 0.951 . S
C1144 C1142 1.388 . S
C1144 C1145 1.366 . S
C1145 C1144 1.366 . S
C1145 C1146 1.414 . S
C1145 C1148 1.499 . S
C1146 H1126 0.950 . S
C1146 C1145 1.414 . S
C1146 C1147 1.374 . S
C1147 H1127 0.950 . S
C1147 C1143 1.385 . S
C1147 C1146 1.374 . S
C1148 C1145 1.499 . S
C1148 C1149 1.373 . S
C1148 C1150 1.389 . S
C1149 H1128 0.950 . S
C1149 C1148 1.373 . S
C1149 C1165 1.377 1_554 S
C1150 C1148 1.389 . S
C1150 C1151 1.524 . S
C1150 C1164 1.377 . S
C1151 C1150 1.524 . S
C1151 C1152 1.397 . S
C1151 C1156 1.363 . S
C1152 H1129 0.950 . S
C1152 C1151 1.397 . S
C1152 C1153 1.334 . S
C1153 H1130 0.950 . S
C1153 C1152 1.334 . S
C1153 C1154 1.287 . S
C1154 C1153 1.287 . S
C1154 C1155 1.524 . S
C1154 H1173 0.913 . S
C1155 H1131 0.950 . S
C1155 C1154 1.524 . S
C1155 C1156 1.415 . S
C1156 H1132 0.950 . S
C1156 C1151 1.363 . S
C1156 C1155 1.415 . S
C1157 H1133 0.951 . S
C1157 C1158 1.366 . S
C1157 C1159 1.388 . S
C1158 C1157 1.366 . S
C1158 C1162 1.385 . S
C1159 H1134 0.951 . S
C1159 C1157 1.388 . S
C1159 C1160 1.366 . S
C1160 C1159 1.366 . S
C1160 C1161 1.414 . S
C1160 C1163 1.499 . S
C1161 H1135 0.950 . S
C1161 C1160 1.414 . S
C1161 C1162 1.374 . S
C1162 H1136 0.950 . S
C1162 C1158 1.385 . S
C1162 C1161 1.374 . S
C1163 C1160 1.499 . S
C1163 C1164 1.373 1_556 S
C1163 C1165 1.389 . S
C1164 H1137 0.950 . S
C1164 C1150 1.377 . S
C1164 C1163 1.373 1_554 S
C1165 C1149 1.377 1_556 S
C1165 C1163 1.389 . S
C1165 C1166 1.524 . S
C1166 C1165 1.524 . S
C1166 C1167 1.397 . S
C1166 C1171 1.363 . S
C1167 H1138 0.950 . S
C1167 C1166 1.397 . S
C1167 C1168 1.334 . S
C1168 H1139 0.950 . S
C1168 C1167 1.334 . S
C1168 C1169 1.287 . S
C1169 C1168 1.287 . S
C1169 C1170 1.524 . S
C1169 H1172 0.999 . S
C1170 H1140 0.950 . S
C1170 C1169 1.524 . S
C1170 C1171 1.415 . S
C1171 H1141 0.950 . S
C1171 C1166 1.363 . S
C1171 C1170 1.415 . S
H1172 C1169 0.999 . S
H1173 C1154 0.913 . S
H1174 C1192 0.951 . S
H1175 C1194 0.951 . S
H1176 C1196 0.950 . S
H1177 C1197 0.950 . S
H1178 C1199 0.950 . S
H1179 C1202 0.950 . S
H1180 C1203 0.950 . S
H1181 C1205 0.950 . S
H1182 C1206 0.950 . S
H1183 C1207 0.951 . S
H1184 C1209 0.951 1_554 S
H1185 C1211 0.950 . S
H1186 C1212 0.950 . S
H1187 C1214 0.950 . S
H1188 C1217 0.950 . S
H1189 C1218 0.950 . S
H1190 C1220 0.950 . S
H1191 C1221 0.950 . S
C1192 H1174 0.951 . S
C1192 C1193 1.366 . S
C1192 C1194 1.388 . S
C1193 C1192 1.366 . S
C1193 C1197 1.385 . S
C1194 H1175 0.951 . S
C1194 C1192 1.388 . S
C1194 C1195 1.366 . S
C1195 C1194 1.366 . S
C1195 C1196 1.414 . S
C1195 C1198 1.499 . S
C1196 H1176 0.950 . S
C1196 C1195 1.414 . S
C1196 C1197 1.374 . S
C1197 H1177 0.950 . S
C1197 C1193 1.385 . S
C1197 C1196 1.374 . S
C1198 C1195 1.499 . S
C1198 C1199 1.373 . S
C1198 C1200 1.389 . S
C1199 H1178 0.950 . S
C1199 C1198 1.373 . S
C1199 C1215 1.377 . S
C1200 C1198 1.389 . S
C1200 C1201 1.526 . S
C1200 C1214 1.377 1_554 S
C1201 C1200 1.526 . S
C1201 C1202 1.406 . S
C1201 C1206 1.352 1_554 S
C1202 H1179 0.950 . S
C1202 C1201 1.406 . S
C1202 C1203 1.334 . S
C1203 H1180 0.950 . S
C1203 C1202 1.334 . S
C1203 C1204 1.287 1_554 S
C1204 C1203 1.287 1_556 S
C1204 C1205 1.524 . S
C1204 H1223 0.913 . S
C1205 H1181 0.950 . S
C1205 C1204 1.524 . S
C1205 C1206 1.415 . S
C1206 H1182 0.950 . S
C1206 C1201 1.352 1_556 S
C1206 C1205 1.415 . S
C1207 H1183 0.951 . S
C1207 C1208 1.366 . S
C1207 C1209 1.388 . S
C1208 C1207 1.366 . S
C1208 C1212 1.385 . S
C1209 H1184 0.951 1_556 S
C1209 C1207 1.388 . S
C1209 C1210 1.366 . S
C1210 C1209 1.366 . S
C1210 C1211 1.414 . S
C1210 C1213 1.499 . S
C1211 H1185 0.950 . S
C1211 C1210 1.414 . S
C1211 C1212 1.374 . S
C1212 H1186 0.950 . S
C1212 C1208 1.385 . S
C1212 C1211 1.374 . S
C1213 C1210 1.499 . S
C1213 C1214 1.373 . S
C1213 C1215 1.389 1_556 S
C1214 H1187 0.950 . S
C1214 C1200 1.377 1_556 S
C1214 C1213 1.373 . S
C1215 C1199 1.377 . S
C1215 C1213 1.389 1_554 S
C1215 C1216 1.524 . S
C1216 C1215 1.524 . S
C1216 C1217 1.397 1_554 S
C1216 C1221 1.363 . S
C1217 H1188 0.950 . S
C1217 C1216 1.397 1_556 S
C1217 C1218 1.334 . S
C1218 H1189 0.950 . S
C1218 C1217 1.334 . S
C1218 C1219 1.287 1_556 S
C1219 C1218 1.287 1_554 S
C1219 C1220 1.524 . S
C1219 H1222 0.999 . S
C1220 H1190 0.950 . S
C1220 C1219 1.524 . S
C1220 C1221 1.415 . S
C1221 H1191 0.950 . S
C1221 C1216 1.363 . S
C1221 C1220 1.415 . S
H1222 C1219 0.999 . S
H1223 C1204 0.913 . S
H1224 C1242 0.951 . S
H1225 C1244 0.951 . S
H1226 C1246 0.950 . S
H1227 C1247 0.950 . S
H1228 C1249 0.950 . S
H1229 C1252 0.950 . S
H1230 C1253 0.950 . S
H1231 C1255 0.950 . S
H1232 C1256 0.950 . S
H1233 C1257 0.951 1_655 S
H1234 C1259 0.951 1_655 S
H1235 C1261 0.950 . S
H1236 C1262 0.950 . S
H1237 C1264 0.950 . S
H1238 C1267 0.952 1_455 S
H1239 C1268 0.950 . S
H1240 C1270 0.950 . S
H1241 C1271 0.950 . S
C1242 H1224 0.951 . S
C1242 C1243 1.366 . S
C1242 C1244 1.388 . S
C1243 C1242 1.366 . S
C1243 C1247 1.385 . S
C1244 H1225 0.951 . S
C1244 C1242 1.388 . S
C1244 C1245 1.366 . S
C1245 C1244 1.366 . S
C1245 C1246 1.414 . S
C1245 C1248 1.499 . S
C1246 H1226 0.950 . S
C1246 C1245 1.414 . S
C1246 C1247 1.374 . S
C1247 H1227 0.950 . S
C1247 C1243 1.385 . S
C1247 C1246 1.374 . S
C1248 C1245 1.499 . S
C1248 C1249 1.373 . S
C1248 C1250 1.389 . S
C1249 H1228 0.950 . S
C1249 C1248 1.373 . S
C1249 C1265 1.377 . S
C1250 C1248 1.389 . S
C1250 C1251 1.524 . S
C1250 C1264 1.377 . S
C1251 C1250 1.524 . S
C1251 C1252 1.397 . S
C1251 C1256 1.363 . S
C1252 H1229 0.950 . S
C1252 C1251 1.397 . S
C1252 C1253 1.334 . S
C1253 H1230 0.950 . S
C1253 C1252 1.334 . S
C1253 C1254 1.287 . S
C1254 C1253 1.287 . S
C1254 C1255 1.524 . S
C1254 H1273 0.913 . S
C1255 H1231 0.950 . S
C1255 C1254 1.524 . S
C1255 C1256 1.415 . S
C1256 H1232 0.950 . S
C1256 C1251 1.363 . S
C1256 C1255 1.415 . S
C1257 H1233 0.951 1_455 S
C1257 C1258 1.366 . S
C1257 C1259 1.388 . S
C1258 C1257 1.366 . S
C1258 C1262 1.385 . S
C1259 H1234 0.951 1_455 S
C1259 C1257 1.388 . S
C1259 C1260 1.366 . S
C1260 C1259 1.366 . S
C1260 C1261 1.414 . S
C1260 C1263 1.499 . S
C1261 H1235 0.950 . S
C1261 C1260 1.414 . S
C1261 C1262 1.374 . S
C1262 H1236 0.950 . S
C1262 C1258 1.385 . S
C1262 C1261 1.374 . S
C1263 C1260 1.499 . S
C1263 C1264 1.373 . S
C1263 C1265 1.389 . S
C1264 H1237 0.950 . S
C1264 C1250 1.377 . S
C1264 C1263 1.373 . S
C1265 C1249 1.377 . S
C1265 C1263 1.389 . S
C1265 C1266 1.524 1_455 S
C1266 C1265 1.524 1_655 S
C1266 C1267 1.396 . S
C1266 C1271 1.363 . S
C1267 H1238 0.952 1_655 S
C1267 C1266 1.396 . S
C1267 C1268 1.333 . S
C1268 H1239 0.950 . S
C1268 C1267 1.333 . S
C1268 C1269 1.287 . S
C1269 C1268 1.287 . S
C1269 C1270 1.524 . S
C1269 H1272 0.999 . S
C1270 H1240 0.950 . S
C1270 C1269 1.524 . S
C1270 C1271 1.415 . S
C1271 H1241 0.950 . S
C1271 C1266 1.363 . S
C1271 C1270 1.415 . S
H1272 C1269 0.999 . S
H1273 C1254 0.913 . S
H1274 C1292 0.951 . S
H1275 C1294 0.951 . S
H1276 C1296 0.950 . S
H1277 C1297 0.950 . S
H1278 C1299 0.950 . S
H1279 C1302 0.950 . S
H1280 C1303 0.950 . S
H1281 C1305 0.950 . S
H1282 C1306 0.950 . S
H1283 C1307 0.948 1_565 S
H1284 C1309 0.951 . S
H1285 C1311 0.950 . S
H1286 C1312 0.950 . S
H1287 C1314 0.950 . S
H1288 C1317 0.950 . S
H1289 C1318 0.950 . S
H1290 C1320 0.950 . S
H1291 C1321 0.950 . S
C1292 H1274 0.951 . S
C1292 C1293 1.366 . S
C1292 C1294 1.388 . S
C1293 C1292 1.366 . S
C1293 C1297 1.385 . S
C1294 H1275 0.951 . S
C1294 C1292 1.388 . S
C1294 C1295 1.366 . S
C1295 C1294 1.366 . S
C1295 C1296 1.414 . S
C1295 C1298 1.499 . S
C1296 H1276 0.950 . S
C1296 C1295 1.414 . S
C1296 C1297 1.374 . S
C1297 H1277 0.950 . S
C1297 C1293 1.385 . S
C1297 C1296 1.374 . S
C1298 C1295 1.499 . S
C1298 C1299 1.373 . S
C1298 C1300 1.389 . S
C1299 H1278 0.950 . S
C1299 C1298 1.373 . S
C1299 C1315 1.377 . S
C1300 C1298 1.389 . S
C1300 C1301 1.524 . S
C1300 C1314 1.377 . S
C1301 C1300 1.524 . S
C1301 C1302 1.397 . S
C1301 C1306 1.363 . S
C1302 H1279 0.950 . S
C1302 C1301 1.397 . S
C1302 C1303 1.334 . S
C1303 H1280 0.950 . S
C1303 C1302 1.334 . S
C1303 C1304 1.287 . S
C1304 C1303 1.287 . S
C1304 C1305 1.524 . S
C1304 H1323 0.913 . S
C1305 H1281 0.950 . S
C1305 C1304 1.524 . S
C1305 C1306 1.415 . S
C1306 H1282 0.950 . S
C1306 C1301 1.363 . S
C1306 C1305 1.415 . S
C1307 H1283 0.948 1_545 S
C1307 C1308 1.366 . S
C1307 C1309 1.388 . S
C1308 C1307 1.366 . S
C1308 C1312 1.385 . S
C1309 H1284 0.951 . S
C1309 C1307 1.388 . S
C1309 C1310 1.366 . S
C1310 C1309 1.366 . S
C1310 C1311 1.414 . S
C1310 C1313 1.499 . S
C1311 H1285 0.950 . S
C1311 C1310 1.414 . S
C1311 C1312 1.374 . S
C1312 H1286 0.950 . S
C1312 C1308 1.385 . S
C1312 C1311 1.374 . S
C1313 C1310 1.499 . S
C1313 C1314 1.373 . S
C1313 C1315 1.389 . S
C1314 H1287 0.950 . S
C1314 C1300 1.377 . S
C1314 C1313 1.373 . S
C1315 C1299 1.377 . S
C1315 C1313 1.389 . S
C1315 C1316 1.524 1_545 S
C1316 C1315 1.524 1_565 S
C1316 C1317 1.397 . S
C1316 C1321 1.363 . S
C1317 H1288 0.950 . S
C1317 C1316 1.397 . S
C1317 C1318 1.334 . S
C1318 H1289 0.950 . S
C1318 C1317 1.334 . S
C1318 C1319 1.287 . S
C1319 C1318 1.287 . S
C1319 C1320 1.524 . S
C1319 H1322 0.999 . S
C1320 H1290 0.950 . S
C1320 C1319 1.524 . S
C1320 C1321 1.415 . S
C1321 H1291 0.950 . S
C1321 C1316 1.363 . S
C1321 C1320 1.415 . S
H1322 C1319 0.999 . S
H1323 C1304 0.913 . S
H1324 C1342 0.951 . S
H1325 C1344 0.951 . S
H1326 C1346 0.950 . S
H1327 C1347 0.950 . S
H1328 C1349 0.950 . S
H1329 C1352 0.950 . S
H1330 C1353 0.950 . S
H1331 C1355 0.950 . S
H1332 C1356 0.950 . S
H1333 C1357 0.951 . S
H1334 C1359 0.951 . S
H1335 C1361 0.950 . S
H1336 C1362 0.950 . S
H1337 C1364 0.950 . S
H1338 C1367 0.950 . S
H1339 C1368 0.950 . S
H1340 C1370 0.950 . S
H1341 C1371 0.950 . S
C1342 H1324 0.951 . S
C1342 C1343 1.366 . S
C1342 C1344 1.388 . S
C1343 C1342 1.366 . S
C1343 C1347 1.385 . S
C1344 H1325 0.951 . S
C1344 C1342 1.388 . S
C1344 C1345 1.366 . S
C1345 C1344 1.366 . S
C1345 C1346 1.414 . S
C1345 C1348 1.499 . S
C1346 H1326 0.950 . S
C1346 C1345 1.414 . S
C1346 C1347 1.374 . S
C1347 H1327 0.950 . S
C1347 C1343 1.385 . S
C1347 C1346 1.374 . S
C1348 C1345 1.499 . S
C1348 C1349 1.373 . S
C1348 C1350 1.389 . S
C1349 H1328 0.950 . S
C1349 C1348 1.373 . S
C1349 C1365 1.377 . S
C1350 C1348 1.389 . S
C1350 C1351 1.524 . S
C1350 C1364 1.377 . S
C1351 C1350 1.524 . S
C1351 C1352 1.397 . S
C1351 C1356 1.363 . S
C1352 H1329 0.950 . S
C1352 C1351 1.397 . S
C1352 C1353 1.334 . S
C1353 H1330 0.950 . S
C1353 C1352 1.334 . S
C1353 C1354 1.287 . S
C1354 C1353 1.287 . S
C1354 C1355 1.524 . S
C1354 H1373 0.913 . S
C1355 H1331 0.950 . S
C1355 C1354 1.524 . S
C1355 C1356 1.415 . S
C1356 H1332 0.950 . S
C1356 C1351 1.363 . S
C1356 C1355 1.415 . S
C1357 H1333 0.951 . S
C1357 C1358 1.366 . S
C1357 C1359 1.388 . S
C1358 C1357 1.366 . S
C1358 C1362 1.385 . S
C1359 H1334 0.951 . S
C1359 C1357 1.388 . S
C1359 C1360 1.366 . S
C1360 C1359 1.366 . S
C1360 C1361 1.414 . S
C1360 C1363 1.499 . S
C1361 H1335 0.950 . S
C1361 C1360 1.414 . S
C1361 C1362 1.374 . S
C1362 H1336 0.950 . S
C1362 C1358 1.385 . S
C1362 C1361 1.374 . S
C1363 C1360 1.499 . S
C1363 C1364 1.373 . S
C1363 C1365 1.389 . S
C1364 H1337 0.950 . S
C1364 C1350 1.377 . S
C1364 C1363 1.373 . S
C1365 C1349 1.377 . S
C1365 C1363 1.389 . S
C1365 C1366 1.524 . S
C1366 C1365 1.524 . S
C1366 C1367 1.397 . S
C1366 C1371 1.363 . S
C1367 H1338 0.950 . S
C1367 C1366 1.397 . S
C1367 C1368 1.334 . S
C1368 H1339 0.950 . S
C1368 C1367 1.334 . S
C1368 C1369 1.287 . S
C1369 C1368 1.287 . S
C1369 C1370 1.524 . S
C1369 H1372 0.999 . S
C1370 H1340 0.950 . S
C1370 C1369 1.524 . S
C1370 C1371 1.415 . S
C1371 H1341 0.950 . S
C1371 C1366 1.363 . S
C1371 C1370 1.415 . S
H1372 C1369 0.999 . S
H1373 C1354 0.913 . S
H1374 C1392 0.951 . S
H1375 C1394 0.951 . S
H1376 C1396 0.950 . S
H1377 C1397 0.950 . S
H1378 C1399 0.950 . S
H1379 C1402 0.950 . S
H1380 C1403 0.950 . S
H1381 C1405 0.950 . S
H1382 C1406 0.950 . S
H1383 C1407 0.951 . S
H1384 C1409 0.951 . S
H1385 C1411 0.950 . S
H1386 C1412 0.950 . S
H1387 C1414 0.950 . S
H1388 C1417 0.950 . S
H1389 C1418 0.950 . S
H1390 C1420 0.950 . S
H1391 C1421 0.950 . S
C1392 H1374 0.951 . S
C1392 C1393 1.366 . S
C1392 C1394 1.388 . S
C1393 C1392 1.366 . S
C1393 C1397 1.385 . S
C1394 H1375 0.951 . S
C1394 C1392 1.388 . S
C1394 C1395 1.366 . S
C1395 C1394 1.366 . S
C1395 C1396 1.414 . S
C1395 C1398 1.499 . S
C1396 H1376 0.950 . S
C1396 C1395 1.414 . S
C1396 C1397 1.374 . S
C1397 H1377 0.950 . S
C1397 C1393 1.385 . S
C1397 C1396 1.374 . S
C1398 C1395 1.499 . S
C1398 C1399 1.373 . S
C1398 C1400 1.389 . S
C1399 H1378 0.950 . S
C1399 C1398 1.373 . S
C1399 C1415 1.377 . S
C1400 C1398 1.389 . S
C1400 C1401 1.524 . S
C1400 C1414 1.377 . S
C1401 C1400 1.524 . S
C1401 C1402 1.397 . S
C1401 C1406 1.363 . S
C1402 H1379 0.950 . S
C1402 C1401 1.397 . S
C1402 C1403 1.334 1_556 S
C1403 H1380 0.950 . S
C1403 C1402 1.334 1_554 S
C1403 C1404 1.287 . S
C1404 C1403 1.287 . S
C1404 C1405 1.524 1_554 S
C1404 H1423 0.913 . S
C1405 H1381 0.950 . S
C1405 C1404 1.524 1_556 S
C1405 C1406 1.415 . S
C1406 H1382 0.950 . S
C1406 C1401 1.363 . S
C1406 C1405 1.415 . S
C1407 H1383 0.951 . S
C1407 C1408 1.366 . S
C1407 C1409 1.388 . S
C1408 C1407 1.366 . S
C1408 C1412 1.385 . S
C1409 H1384 0.951 . S
C1409 C1407 1.388 . S
C1409 C1410 1.366 . S
C1410 C1409 1.366 . S
C1410 C1411 1.414 . S
C1410 C1413 1.499 . S
C1411 H1385 0.950 . S
C1411 C1410 1.414 . S
C1411 C1412 1.374 . S
C1412 H1386 0.950 . S
C1412 C1408 1.385 . S
C1412 C1411 1.374 . S
C1413 C1410 1.499 . S
C1413 C1414 1.373 . S
C1413 C1415 1.389 . S
C1414 H1387 0.950 . S
C1414 C1400 1.377 . S
C1414 C1413 1.373 . S
C1415 C1399 1.377 . S
C1415 C1413 1.389 . S
C1415 C1416 1.524 . S
C1416 C1415 1.524 . S
C1416 C1417 1.397 . S
C1416 C1421 1.363 . S
C1417 H1388 0.950 . S
C1417 C1416 1.397 . S
C1417 C1418 1.334 . S
C1418 H1389 0.950 . S
C1418 C1417 1.334 . S
C1418 C1419 1.287 . S
C1419 C1418 1.287 . S
C1419 C1420 1.524 . S
C1419 H1422 0.999 . S
C1420 H1390 0.950 . S
C1420 C1419 1.524 . S
C1420 C1421 1.415 . S
C1421 H1391 0.950 . S
C1421 C1416 1.363 . S
C1421 C1420 1.415 . S
H1422 C1419 0.999 . S
H1423 C1404 0.913 . S
H1424 C1442 0.951 . S
H1425 C1444 0.951 . S
H1426 C1446 0.950 1_455 S
H1427 C1447 0.950 1_455 S
H1428 C1449 0.911 1_455 S
H1429 C1452 0.950 . S
H1430 C1453 0.950 . S
H1431 C1455 0.950 . S
H1432 C1456 0.950 . S
H1433 C1457 0.951 . S
H1434 C1459 0.951 . S
H1435 C1461 0.950 . S
H1436 C1462 0.950 . S
H1437 C1464 0.950 . S
H1438 C1467 0.895 1_655 S
H1439 C1468 0.950 . S
H1440 C1470 0.950 . S
H1441 C1471 0.950 . S
C1442 H1424 0.951 . S
C1442 C1443 1.366 . S
C1442 C1444 1.388 . S
C1443 C1442 1.366 . S
C1443 C1447 1.385 . S
C1444 H1425 0.951 . S
C1444 C1442 1.388 . S
C1444 C1445 1.366 . S
C1445 C1444 1.366 . S
C1445 C1446 1.414 . S
C1445 C1448 1.499 . S
C1446 H1426 0.950 1_655 S
C1446 C1445 1.414 . S
C1446 C1447 1.374 . S
C1447 H1427 0.950 1_655 S
C1447 C1443 1.385 . S
C1447 C1446 1.374 . S
C1448 C1445 1.499 . S
C1448 C1449 1.419 . S
C1448 C1450 1.389 . S
C1449 H1428 0.911 1_655 S
C1449 C1448 1.419 . S
C1449 C1465 1.372 1_655 S
C1450 C1448 1.389 . S
C1450 C1451 1.524 . S
C1450 C1464 1.377 . S
C1451 C1450 1.524 . S
C1451 C1452 1.397 . S
C1451 C1456 1.363 . S
C1452 H1429 0.950 . S
C1452 C1451 1.397 . S
C1452 C1453 1.334 . S
C1453 H1430 0.950 . S
C1453 C1452 1.334 . S
C1453 C1454 1.287 . S
C1454 C1453 1.287 . S
C1454 C1455 1.524 . S
C1454 H1473 0.913 . S
C1455 H1431 0.950 . S
C1455 C1454 1.524 . S
C1455 C1456 1.415 . S
C1456 H1432 0.950 . S
C1456 C1451 1.363 . S
C1456 C1455 1.415 . S
C1457 H1433 0.951 . S
C1457 C1458 1.366 1_455 S
C1457 C1459 1.388 . S
C1458 C1457 1.366 1_655 S
C1458 C1462 1.385 . S
C1459 H1434 0.951 . S
C1459 C1457 1.388 . S
C1459 C1460 1.366 1_455 S
C1460 C1459 1.366 1_655 S
C1460 C1461 1.414 . S
C1460 C1463 1.499 . S
C1461 H1435 0.950 . S
C1461 C1460 1.414 . S
C1461 C1462 1.374 . S
C1462 H1436 0.950 . S
C1462 C1458 1.385 . S
C1462 C1461 1.374 . S
C1463 C1460 1.499 . S
C1463 C1464 1.373 . S
C1463 C1465 1.356 1_655 S
C1464 H1437 0.950 . S
C1464 C1450 1.377 . S
C1464 C1463 1.373 . S
C1465 C1449 1.372 1_455 S
C1465 C1463 1.356 1_455 S
C1465 C1466 1.563 . S
C1466 C1465 1.563 . S
C1466 C1467 1.397 . S
C1466 C1471 1.363 . S
C1467 H1438 0.895 1_455 S
C1467 C1466 1.397 . S
C1467 C1468 1.334 . S
C1468 H1439 0.950 . S
C1468 C1467 1.334 . S
C1468 C1469 1.287 . S
C1469 C1468 1.287 . S
C1469 C1470 1.524 . S
C1469 H1472 0.999 . S
C1470 H1440 0.950 . S
C1470 C1469 1.524 . S
C1470 C1471 1.415 . S
C1471 H1441 0.950 . S
C1471 C1466 1.363 . S
C1471 C1470 1.415 . S
H1472 C1469 0.999 . S
H1473 C1454 0.913 . S
H1474 C1492 0.951 . S
H1475 C1494 0.951 . S
H1476 C1496 0.950 . S
H1477 C1497 0.950 . S
H1478 C1499 0.969 . S
H1479 C1502 0.950 . S
H1480 C1503 0.950 . S
H1481 C1505 0.950 . S
H1482 C1506 0.950 . S
H1483 C1507 0.951 . S
H1484 C1509 0.951 . S
H1485 C1511 0.944 1_545 S
H1486 C1512 0.957 . S
H1487 C1514 0.950 . S
H1488 C1517 0.950 . S
H1489 C1518 0.950 . S
H1490 C1520 0.950 . S
H1491 C1521 0.950 1_565 S
C1492 H1474 0.951 . S
C1492 C1493 1.366 . S
C1492 C1494 1.388 . S
C1493 C1492 1.366 . S
C1493 C1497 1.385 . S
C1494 H1475 0.951 . S
C1494 C1492 1.388 . S
C1494 C1495 1.366 . S
C1495 C1494 1.366 . S
C1495 C1496 1.414 . S
C1495 C1498 1.499 . S
C1496 H1476 0.950 . S
C1496 C1495 1.414 . S
C1496 C1497 1.374 . S
C1497 H1477 0.950 . S
C1497 C1493 1.385 . S
C1497 C1496 1.374 . S
C1498 C1495 1.499 . S
C1498 C1499 1.373 . S
C1498 C1500 1.389 . S
C1499 H1478 0.969 . S
C1499 C1498 1.373 . S
C1499 C1515 1.377 . S
C1500 C1498 1.389 . S
C1500 C1501 1.524 . S
C1500 C1514 1.377 . S
C1501 C1500 1.524 . S
C1501 C1502 1.397 . S
C1501 C1506 1.363 . S
C1502 H1479 0.950 . S
C1502 C1501 1.397 . S
C1502 C1503 1.334 . S
C1503 H1480 0.950 . S
C1503 C1502 1.334 . S
C1503 C1504 1.287 . S
C1504 C1503 1.287 . S
C1504 C1505 1.524 . S
C1504 H1523 0.913 . S
C1505 H1481 0.950 . S
C1505 C1504 1.524 . S
C1505 C1506 1.415 . S
C1506 H1482 0.950 . S
C1506 C1501 1.363 . S
C1506 C1505 1.415 . S
C1507 H1483 0.951 . S
C1507 C1508 1.366 . S
C1507 C1509 1.388 . S
C1508 C1507 1.366 . S
C1508 C1512 1.380 1_565 S
C1509 H1484 0.951 . S
C1509 C1507 1.388 . S
C1509 C1510 1.366 . S
C1510 C1509 1.366 . S
C1510 C1511 1.414 . S
C1510 C1513 1.499 . S
C1511 H1485 0.944 1_565 S
C1511 C1510 1.414 . S
C1511 C1512 1.371 1_565 S
C1512 H1486 0.957 . S
C1512 C1508 1.380 1_545 S
C1512 C1511 1.371 1_545 S
C1513 C1510 1.499 . S
C1513 C1514 1.373 . S
C1513 C1515 1.389 . S
C1514 H1487 0.950 . S
C1514 C1500 1.377 . S
C1514 C1513 1.373 . S
C1515 C1499 1.377 . S
C1515 C1513 1.389 . S
C1515 C1516 1.524 1_565 S
C1516 C1515 1.524 1_545 S
C1516 C1517 1.397 . S
C1516 C1521 1.363 . S
C1517 H1488 0.950 . S
C1517 C1516 1.397 . S
C1517 C1518 1.334 . S
C1518 H1489 0.950 . S
C1518 C1517 1.334 . S
C1518 C1519 1.287 . S
C1519 C1518 1.287 . S
C1519 C1520 1.524 . S
C1519 H1522 0.999 . S
C1520 H1490 0.950 . S
C1520 C1519 1.524 . S
C1520 C1521 1.415 . S
C1521 H1491 0.950 1_545 S
C1521 C1516 1.363 . S
C1521 C1520 1.415 . S
H1522 C1519 0.999 . S
H1523 C1504 0.913 . S
H1524 C1542 0.951 . S
H1525 C1544 0.951 . S
H1526 C1546 0.950 . S
H1527 C1547 0.950 . S
H1528 C1549 0.950 . S
H1529 C1552 0.950 . S
H1530 C1553 0.950 . S
H1531 C1555 0.950 . S
H1532 C1556 0.950 . S
H1533 C1557 0.951 . S
H1534 C1559 0.951 . S
H1535 C1561 0.950 . S
H1536 C1562 0.950 . S
H1537 C1564 0.950 . S
H1538 C1567 0.950 . S
H1539 C1568 0.950 . S
H1540 C1570 0.950 . S
H1541 C1571 0.950 . S
C1542 H1524 0.951 . S
C1542 C1543 1.366 . S
C1542 C1544 1.388 . S
C1543 C1542 1.366 . S
C1543 C1547 1.385 . S
C1544 H1525 0.951 . S
C1544 C1542 1.388 . S
C1544 C1545 1.366 . S
C1545 C1544 1.366 . S
C1545 C1546 1.414 . S
C1545 C1548 1.499 . S
C1546 H1526 0.950 . S
C1546 C1545 1.414 . S
C1546 C1547 1.374 . S
C1547 H1527 0.950 . S
C1547 C1543 1.385 . S
C1547 C1546 1.374 . S
C1548 C1545 1.499 . S
C1548 C1549 1.373 . S
C1548 C1550 1.389 . S
C1549 H1528 0.950 . S
C1549 C1548 1.373 . S
C1549 C1565 1.377 . S
C1550 C1548 1.389 . S
C1550 C1551 1.524 . S
C1550 C1564 1.377 . S
C1551 C1550 1.524 . S
C1551 C1552 1.397 . S
C1551 C1556 1.363 . S
C1552 H1529 0.950 . S
C1552 C1551 1.397 . S
C1552 C1553 1.334 . S
C1553 H1530 0.950 . S
C1553 C1552 1.334 . S
C1553 C1554 1.287 . S
C1554 C1553 1.287 . S
C1554 C1555 1.524 . S
C1554 H1573 0.913 . S
C1555 H1531 0.950 . S
C1555 C1554 1.524 . S
C1555 C1556 1.415 . S
C1556 H1532 0.950 . S
C1556 C1551 1.363 . S
C1556 C1555 1.415 . S
C1557 H1533 0.951 . S
C1557 C1558 1.366 . S
C1557 C1559 1.388 . S
C1558 C1557 1.366 . S
C1558 C1562 1.385 . S
C1559 H1534 0.951 . S
C1559 C1557 1.388 . S
C1559 C1560 1.366 . S
C1560 C1559 1.366 . S
C1560 C1561 1.414 . S
C1560 C1563 1.499 . S
C1561 H1535 0.950 . S
C1561 C1560 1.414 . S
C1561 C1562 1.374 . S
C1562 H1536 0.950 . S
C1562 C1558 1.385 . S
C1562 C1561 1.374 . S
C1563 C1560 1.499 . S
C1563 C1564 1.373 . S
C1563 C1565 1.389 . S
C1564 H1537 0.950 . S
C1564 C1550 1.377 . S
C1564 C1563 1.373 . S
C1565 C1549 1.377 . S
C1565 C1563 1.389 . S
C1565 C1566 1.524 . S
C1566 C1565 1.524 . S
C1566 C1567 1.397 . S
C1566 C1571 1.363 . S
C1567 H1538 0.950 . S
C1567 C1566 1.397 . S
C1567 C1568 1.334 . S
C1568 H1539 0.950 . S
C1568 C1567 1.334 . S
C1568 C1569 1.287 . S
C1569 C1568 1.287 . S
C1569 C1570 1.524 . S
C1569 H1572 0.999 . S
C1570 H1540 0.950 . S
C1570 C1569 1.524 . S
C1570 C1571 1.415 . S
C1571 H1541 0.950 . S
C1571 C1566 1.363 . S
C1571 C1570 1.415 . S
H1572 C1569 0.999 . S
H1573 C1554 0.913 . S
H1574 C1592 0.951 . S
H1575 C1594 0.951 . S
H1576 C1596 0.950 . S
H1577 C1597 0.950 . S
H1578 C1599 0.950 . S
H1579 C1602 0.950 . S
H1580 C1603 0.950 . S
H1581 C1605 0.950 . S
H1582 C1606 0.950 . S
H1583 C1607 0.951 . S
H1584 C1609 0.951 . S
H1585 C1611 0.950 . S
H1586 C1612 0.950 . S
H1587 C1614 0.950 . S
H1588 C1617 0.950 . S
H1589 C1618 0.950 . S
H1590 C1620 0.950 . S
H1591 C1621 0.950 . S
C1592 H1574 0.951 . S
C1592 C1593 1.366 . S
C1592 C1594 1.388 . S
C1593 C1592 1.366 . S
C1593 C1597 1.385 . S
C1594 H1575 0.951 . S
C1594 C1592 1.388 . S
C1594 C1595 1.366 . S
C1595 C1594 1.366 . S
C1595 C1596 1.414 . S
C1595 C1598 1.499 . S
C1596 H1576 0.950 . S
C1596 C1595 1.414 . S
C1596 C1597 1.374 . S
C1597 H1577 0.950 . S
C1597 C1593 1.385 . S
C1597 C1596 1.374 . S
C1598 C1595 1.499 . S
C1598 C1599 1.373 . S
C1598 C1600 1.389 . S
C1599 H1578 0.950 . S
C1599 C1598 1.373 . S
C1599 C1615 1.377 . S
C1600 C1598 1.389 . S
C1600 C1601 1.524 . S
C1600 C1614 1.377 . S
C1601 C1600 1.524 . S
C1601 C1602 1.397 . S
C1601 C1606 1.363 . S
C1602 H1579 0.950 . S
C1602 C1601 1.397 . S
C1602 C1603 1.334 . S
C1603 H1580 0.950 . S
C1603 C1602 1.334 . S
C1603 C1604 1.287 . S
C1604 C1603 1.287 . S
C1604 C1605 1.524 . S
C1604 H1623 0.913 . S
C1605 H1581 0.950 . S
C1605 C1604 1.524 . S
C1605 C1606 1.415 . S
C1606 H1582 0.950 . S
C1606 C1601 1.363 . S
C1606 C1605 1.415 . S
C1607 H1583 0.951 . S
C1607 C1608 1.366 . S
C1607 C1609 1.388 . S
C1608 C1607 1.366 . S
C1608 C1612 1.385 . S
C1609 H1584 0.951 . S
C1609 C1607 1.388 . S
C1609 C1610 1.366 . S
C1610 C1609 1.366 . S
C1610 C1611 1.414 . S
C1610 C1613 1.499 . S
C1611 H1585 0.950 . S
C1611 C1610 1.414 . S
C1611 C1612 1.374 . S
C1612 H1586 0.950 . S
C1612 C1608 1.385 . S
C1612 C1611 1.374 . S
C1613 C1610 1.499 . S
C1613 C1614 1.373 . S
C1613 C1615 1.389 . S
C1614 H1587 0.950 . S
C1614 C1600 1.377 . S
C1614 C1613 1.373 . S
C1615 C1599 1.377 . S
C1615 C1613 1.389 . S
C1615 C1616 1.524 . S
C1616 C1615 1.524 . S
C1616 C1617 1.397 . S
C1616 C1621 1.363 . S
C1617 H1588 0.950 . S
C1617 C1616 1.397 . S
C1617 C1618 1.334 . S
C1618 H1589 0.950 . S
C1618 C1617 1.334 . S
C1618 C1619 1.287 . S
C1619 C1618 1.287 . S
C1619 C1620 1.524 . S
C1619 H1622 0.999 . S
C1620 H1590 0.950 . S
C1620 C1619 1.524 . S
C1620 C1621 1.415 . S
C1621 H1591 0.950 . S
C1621 C1616 1.363 . S
C1621 C1620 1.415 . S
H1622 C1619 0.999 . S
H1623 C1604 0.913 . S
C443 C76 1.840 . S
C458 C156 1.930 . S
C508 C239 1.951 . S
C493 C87 1.848 . S
C558 C324 1.917 . S
C543 C54 1.827 . S
C608 C408 1.905 . S
C593 C65 1.818 . S
C658 C144 1.930 1_565 S
C643 C32 1.846 . S
C693 C43 1.852 . S
C708 C227 1.951 . S
C743 C10 1.831 . S
C758 C312 1.916 . S
C793 C21 1.823 . S
C808 C396 1.906 1_655 S
C858 C146 0.555 1_455 S
C843 C60 0.472 . S
C908 C242 0.550 . S
C893 C71 0.443 . S
C958 C314 0.554 . S
C943 C82 0.476 . S
C993 C49 0.455 . S
C1008 C398 0.544 . S
C1043 C16 0.481 . S
C1058 C158 0.553 . S
C1108 C230 0.551 . S
C1093 C27 0.450 . S
C1158 C326 0.552 . S
C1143 C38 0.484 . S
C1193 C5 0.463 . S
C1208 C410 0.540 . S
C1243 C59 1.849 . S
C1258 C143 2.002 . S
C1293 C70 1.843 . S
C1308 C228 1.995 . S
C1358 C311 2.024 . S
C1343 C81 1.869 . S
C1408 C395 2.030 . S
C1393 C48 1.876 . S
C1443 C15 1.844 . S
C1458 C155 2.003 . S
C1508 C240 1.995 1_565 S
C1493 C26 1.836 . S
C1558 C323 2.024 . S
C1543 C37 1.861 . S
C1593 C4 1.868 . S
C1608 C407 2.030 . S
