# Generated by pormake.
# Topology ssa, (4,4)-cn, num edge types: 1
# Building blocks:
#     Node 0, Type 0, BuildingBlock: NAWXER_clean_sbu_0, # of connection points: 4
#     Node 1, Type 0, BuildingBlock: NAWXER_clean_sbu_0, # of connection points: 4
#     Node 2, Type 0, BuildingBlock: NAWXER_clean_sbu_0, # of connection points: 4
#     Node 3, Type 0, BuildingBlock: NAWXER_clean_sbu_0, # of connection points: 4
#     Node 4, Type 0, BuildingBlock: NAWXER_clean_sbu_0, # of connection points: 4
#     Node 5, Type 0, BuildingBlock: NAWXER_clean_sbu_0, # of connection points: 4
#     Node 6, Type 1, BuildingBlock: NAHDIM_clean_linker_0, # of connection points: 4
#     Node 7, Type 1, BuildingBlock: NAHDIM_clean_linker_0, # of connection points: 4
#     Node 8, Type 1, BuildingBlock: NAHDIM_clean_linker_0, # of connection points: 4
#     Node 9, Type 1, BuildingBlock: NAHDIM_clean_linker_0, # of connection points: 4
#     Node 10, Type 1, BuildingBlock: NAHDIM_clean_linker_0, # of connection points: 4
#     Node 11, Type 1, BuildingBlock: NAHDIM_clean_linker_0, # of connection points: 4
#     Edge 12, Type (0, 1), BuildingBlock: EZIPEK_clean_linker_0, # of connection points: 2
#     Edge 13, Type (0, 1), BuildingBlock: EZIPEK_clean_linker_0, # of connection points: 2
#     Edge 14, Type (0, 1), BuildingBlock: EZIPEK_clean_linker_0, # of connection points: 2
#     Edge 15, Type (0, 1), BuildingBlock: EZIPEK_clean_linker_0, # of connection points: 2
#     Edge 16, Type (0, 1), BuildingBlock: EZIPEK_clean_linker_0, # of connection points: 2
#     Edge 17, Type (0, 1), BuildingBlock: EZIPEK_clean_linker_0, # of connection points: 2
#     Edge 18, Type (0, 1), BuildingBlock: EZIPEK_clean_linker_0, # of connection points: 2
#     Edge 19, Type (0, 1), BuildingBlock: EZIPEK_clean_linker_0, # of connection points: 2
#     Edge 20, Type (0, 1), BuildingBlock: EZIPEK_clean_linker_0, # of connection points: 2
#     Edge 21, Type (0, 1), BuildingBlock: EZIPEK_clean_linker_0, # of connection points: 2
#     Edge 22, Type (0, 1), BuildingBlock: EZIPEK_clean_linker_0, # of connection points: 2
#     Edge 23, Type (0, 1), BuildingBlock: EZIPEK_clean_linker_0, # of connection points: 2
#     Edge 24, Type (0, 1), BuildingBlock: EZIPEK_clean_linker_0, # of connection points: 2
#     Edge 25, Type (0, 1), BuildingBlock: EZIPEK_clean_linker_0, # of connection points: 2
#     Edge 26, Type (0, 1), BuildingBlock: EZIPEK_clean_linker_0, # of connection points: 2
#     Edge 27, Type (0, 1), BuildingBlock: EZIPEK_clean_linker_0, # of connection points: 2
#     Edge 28, Type (0, 1), BuildingBlock: EZIPEK_clean_linker_0, # of connection points: 2
#     Edge 29, Type (0, 1), BuildingBlock: EZIPEK_clean_linker_0, # of connection points: 2
#     Edge 30, Type (0, 1), BuildingBlock: EZIPEK_clean_linker_0, # of connection points: 2
#     Edge 31, Type (0, 1), BuildingBlock: EZIPEK_clean_linker_0, # of connection points: 2
#     Edge 32, Type (0, 1), BuildingBlock: EZIPEK_clean_linker_0, # of connection points: 2
#     Edge 33, Type (0, 1), BuildingBlock: EZIPEK_clean_linker_0, # of connection points: 2
#     Edge 34, Type (0, 1), BuildingBlock: EZIPEK_clean_linker_0, # of connection points: 2
#     Edge 35, Type (0, 1), BuildingBlock: EZIPEK_clean_linker_0, # of connection points: 2
# Relax obj value: 0.029
# Max RMSD: 0.057
# Mean RMSD: 0.044
data_MOF--net-ssa--node1-NAWXER_clean_sbu_0--node2-NAHDIM_clean_linker_0--edge1-EZIPEK_clean_linker_0
_symmetry_space_group_name_H-M    P1
_symmetry_Int_Tables_number       1
_symmetry_cell_setting            triclinic
loop_
_symmetry_equiv_pos_as_xyz
'x, y, z'
_cell_length_a     48.948739
_cell_length_b     48.937031
_cell_length_c     41.83196
_cell_angle_alpha  89.695179
_cell_angle_beta   90.575485
_cell_angle_gamma 120.00264
loop_
_atom_site_label
_atom_site_type_symbol
_atom_site_fract_x
_atom_site_fract_y
_atom_site_fract_z
_atom_type_partial_charge
C0 C 0.04535 0.54874 0.02265 0.0
C1 C 0.00204 0.44941 0.96559 0.0
O2 O 0.01934 0.52744 0.03477 0.0
Zn3 Zn 0.98532 0.47843 0.02582 0.0
O4 O 0.057 0.54242 0.99873 0.0
Zn5 Zn 0.0238 0.49929 0.99405 0.0
O6 O 0.9843 0.50529 0.98157 0.0
O7 O 0.94759 0.48029 0.01809 0.0
O8 O 0.02673 0.47533 0.95929 0.0
O9 O 0.98473 0.44743 0.98927 0.0
O10 O 0.98715 0.45796 0.06428 0.0
O11 O 0.03069 0.4773 0.0356 0.0
C12 C 0.95719 0.49736 0.99319 0.0
C13 C 0.01475 0.46241 0.06026 0.0
C14 C 0.46831 0.01736 0.57521 0.0
C15 C 0.5069 0.95983 0.51419 0.0
O16 O 0.46239 0.98926 0.57967 0.0
Zn17 Zn 0.48863 0.98846 0.54594 0.0
O18 O 0.4881 0.03464 0.55385 0.0
Zn19 Zn 0.5164 0.02981 0.51819 0.0
O20 O 0.49992 0.03778 0.47923 0.0
O21 O 0.46655 0.99305 0.50328 0.0
O22 O 0.51861 0.9885 0.50488 0.0
O23 O 0.48782 0.94944 0.53748 0.0
O24 O 0.53635 0.01698 0.5621 0.0
O25 O 0.55973 0.05875 0.53061 0.0
C26 C 0.47332 0.01247 0.48001 0.0
C27 C 0.56104 0.04264 0.55388 0.0
C28 C 0.50604 0.48976 0.97543 0.0
C29 C 0.56113 0.56934 0.0578 0.0
O30 O 0.49878 0.51152 0.97536 0.0
Zn31 Zn 0.51329 0.55552 0.99906 0.0
O32 O 0.52771 0.49206 0.9942 0.0
Zn33 Zn 0.53601 0.53044 0.01542 0.0
O34 O 0.49089 0.51662 0.03625 0.0
O35 O 0.47288 0.54658 0.01585 0.0
O36 O 0.56399 0.54543 0.05202 0.0
O37 O 0.54328 0.57544 0.04017 0.0
O38 O 0.53396 0.58726 0.96579 0.0
O39 O 0.56164 0.56482 0.98011 0.0
C40 C 0.46949 0.52437 0.03436 0.0
C41 C 0.55852 0.58487 0.96308 0.0
C42 C 0.0217 0.55839 0.46765 0.0
C43 C 0.96919 0.45867 0.52426 0.0
O44 O 0.03858 0.55817 0.49117 0.0
Zn45 Zn 0.03428 0.52535 0.52792 0.0
O46 O 0.99518 0.53424 0.46163 0.0
Zn47 Zn 0.99518 0.50839 0.49627 0.0
O48 O 0.99207 0.53201 0.53799 0.0
O49 O 0.03549 0.54703 0.56666 0.0
O50 O 0.95863 0.46709 0.50061 0.0
O51 O 0.99631 0.47775 0.53641 0.0
O52 O 0.06866 0.51764 0.52037 0.0
O53 O 0.03046 0.49616 0.48411 0.0
C54 C 0.00907 0.54563 0.56273 0.0
C55 C 0.05674 0.50062 0.49566 0.0
C56 C 0.55678 0.98132 0.05651 0.0
C57 C 0.50732 0.02871 0.99107 0.0
O58 O 0.55898 0.00809 0.06068 0.0
Zn59 Zn 0.5316 0.00585 0.02558 0.0
O60 O 0.53868 0.9631 0.03435 0.0
Zn61 Zn 0.50716 0.9629 0.99855 0.0
O62 O 0.52568 0.95694 0.96028 0.0
O63 O 0.55548 0.00296 0.98433 0.0
O64 O 0.49931 0.0004 0.98342 0.0
O65 O 0.52626 0.04151 0.01457 0.0
O66 O 0.48562 0.97397 0.04213 0.0
O67 O 0.46494 0.93089 0.01259 0.0
C68 C 0.55101 0.98355 0.96175 0.0
C69 C 0.46243 0.94673 0.03523 0.0
C70 C 0.56921 0.51009 0.52394 0.0
C71 C 0.48554 0.4596 0.44477 0.0
O72 O 0.54519 0.51284 0.53029 0.0
Zn73 Zn 0.49931 0.49735 0.51099 0.0
O74 O 0.56857 0.49361 0.50027 0.0
Zn75 Zn 0.52673 0.48246 0.48501 0.0
O76 O 0.53315 0.52819 0.47239 0.0
O77 O 0.5022 0.53739 0.50254 0.0
O78 O 0.51127 0.45919 0.44542 0.0
O79 O 0.47877 0.47284 0.46723 0.0
O80 O 0.47081 0.47 0.54355 0.0
O81 O 0.49527 0.44882 0.51901 0.0
C82 C 0.52234 0.54629 0.48022 0.0
C83 C 0.47533 0.44688 0.53974 0.0
C84 C 0.0663 0.39024 0.41807 0.0
C85 C 0.0948 0.41794 0.43479 0.0
C86 C 0.13889 0.42762 0.39921 0.0
C87 C 0.16117 0.44977 0.3785 0.0
C88 C 0.18189 0.44337 0.36166 0.0
C89 C 0.17942 0.41334 0.36474 0.0
C90 C 0.15751 0.39101 0.38639 0.0
C91 C 0.1378 0.39858 0.40388 0.0
C92 C 0.20613 0.46876 0.34031 0.0
C93 C 0.15449 0.35898 0.39056 0.0
C94 C 0.40594 0.42211 0.41685 0.0
C95 C 0.37458 0.40627 0.40087 0.0
C96 C 0.3341 0.41986 0.38599 0.0
C97 C 0.31202 0.39035 0.37331 0.0
C98 C 0.28416 0.38595 0.35865 0.0
C99 C 0.2789 0.41182 0.35582 0.0
C100 C 0.3014 0.44164 0.36824 0.0
C101 C 0.32846 0.44506 0.38361 0.0
C102 C 0.26038 0.35369 0.34619 0.0
C103 C 0.29706 0.47 0.36511 0.0
C104 C 0.32484 0.44767 0.14785 0.0
C105 C 0.30005 0.41613 0.14661 0.0
C106 C 0.27286 0.40602 0.16507 0.0
C107 C 0.27007 0.42797 0.1846 0.0
C108 C 0.29434 0.45999 0.18482 0.0
C109 C 0.32152 0.46929 0.16664 0.0
C110 C 0.2473 0.37178 0.16412 0.0
C111 C 0.29179 0.48435 0.20455 0.0
C112 C 0.03522 0.39797 0.18316 0.0
C113 C 0.06397 0.41809 0.16205 0.0
C114 C 0.10626 0.40454 0.16858 0.0
C115 C 0.11194 0.37951 0.16435 0.0
C116 C 0.13873 0.38025 0.17761 0.0
C117 C 0.1609 0.40723 0.19478 0.0
C118 C 0.15611 0.4333 0.19798 0.0
C119 C 0.12857 0.43147 0.18542 0.0
C120 C 0.14313 0.35207 0.17361 0.0
C121 C 0.1799 0.4631 0.21498 0.0
C122 C 0.1995 0.40564 0.34461 0.0
C123 C 0.2263 0.40714 0.35851 0.0
C124 C 0.25011 0.40795 0.33957 0.0
C125 C 0.24763 0.40825 0.30586 0.0
C126 C 0.2725 0.41247 0.28604 0.0
C127 C 0.27054 0.41485 0.25303 0.0
C128 C 0.24355 0.4129 0.23856 0.0
C129 C 0.24214 0.41751 0.20531 0.0
C130 C 0.21466 0.41468 0.19163 0.0
C131 C 0.18853 0.40783 0.21041 0.0
C132 C 0.18983 0.40404 0.24382 0.0
C133 C 0.16432 0.39807 0.26357 0.0
C134 C 0.16713 0.39784 0.29665 0.0
C135 C 0.19516 0.40249 0.31113 0.0
C136 C 0.2199 0.4053 0.29164 0.0
C137 C 0.2176 0.40697 0.25794 0.0
C138 C 0.36974 0.41993 0.13416 0.0
C139 C 0.36173 0.44104 0.1133 0.0
O140 O 0.11895 0.43543 0.41358 0.0
O141 O 0.07952 0.4017 0.15518 0.0
O142 O 0.35237 0.45834 0.13174 0.0
O143 O 0.36101 0.42524 0.40093 0.0
H144 H 0.10484 0.4087 0.45283 0.0
H145 H 0.07333 0.37526 0.40476 0.0
H146 H 0.05458 0.39855 0.40095 0.0
H147 H 0.04859 0.37511 0.43608 0.0
H148 H 0.1622 0.47228 0.37547 0.0
H149 H 0.12138 0.38152 0.42065 0.0
H150 H 0.22912 0.46946 0.34207 0.0
H151 H 0.20988 0.49247 0.34642 0.0
H152 H 0.19788 0.46367 0.31509 0.0
H153 H 0.13418 0.34312 0.40583 0.0
H154 H 0.17638 0.36174 0.40175 0.0
H155 H 0.15161 0.34761 0.3669 0.0
H156 H 0.35833 0.38169 0.4091 0.0
H157 H 0.40309 0.40713 0.43848 0.0
H158 H 0.40764 0.44238 0.43112 0.0
H159 H 0.43689 0.42849 0.38041 0.0
H160 H 0.31618 0.37066 0.37513 0.0
H161 H 0.34575 0.46772 0.39347 0.0
H162 H 0.23639 0.34698 0.35466 0.0
H163 H 0.26603 0.33528 0.35382 0.0
H164 H 0.25988 0.35422 0.31968 0.0
H165 H 0.31869 0.49226 0.372 0.0
H166 H 0.27755 0.46689 0.38079 0.0
H167 H 0.29054 0.4723 0.34014 0.0
H168 H 0.34136 0.42616 0.09754 0.0
H169 H 0.30178 0.39909 0.1317 0.0
H170 H 0.34054 0.4936 0.1672 0.0
H171 H 0.24217 0.36196 0.18874 0.0
H172 H 0.25386 0.35722 0.14928 0.0
H173 H 0.22528 0.36985 0.15421 0.0
H174 H 0.31053 0.50877 0.1987 0.0
H175 H 0.29388 0.48005 0.23029 0.0
H176 H 0.26842 0.48244 0.2007 0.0
H177 H 0.07837 0.43885 0.17731 0.0
H178 H 0.02204 0.41062 0.18749 0.0
H179 H 0.0433 0.39379 0.20665 0.0
H180 H 0.01883 0.37462 0.17262 0.0
H181 H 0.09484 0.35899 0.15104 0.0
H182 H 0.12533 0.45148 0.18871 0.0
H183 H 0.14695 0.34412 0.1973 0.0
H184 H 0.16443 0.35886 0.15906 0.0
H185 H 0.12254 0.332 0.16169 0.0
H186 H 0.17621 0.48326 0.20948 0.0
H187 H 0.20433 0.46968 0.20825 0.0
H188 H 0.17769 0.4591 0.24119 0.0
H189 H 0.2295 0.40947 0.38425 0.0
H190 H 0.2941 0.41477 0.29586 0.0
H191 H 0.29062 0.41864 0.23901 0.0
H192 H 0.21393 0.41874 0.16619 0.0
H193 H 0.14224 0.39454 0.25375 0.0
H194 H 0.1472 0.39426 0.31081 0.0
H195 H 0.37515 0.40482 0.11883 0.0
H196 H 0.34969 0.40416 0.14964 0.0
H197 H 0.39053 0.43409 0.14978 0.0
C198 C 0.9405 0.3053 0.94519 0.0
C199 C 0.94786 0.32472 0.91403 0.0
C200 C 0.8985 0.29392 0.88298 0.0
C201 C 0.90372 0.2692 0.87416 0.0
C202 C 0.88176 0.24423 0.85496 0.0
C203 C 0.85395 0.24381 0.84463 0.0
C204 C 0.84839 0.26835 0.85391 0.0
C205 C 0.87087 0.29316 0.87283 0.0
C206 C 0.88831 0.21835 0.84552 0.0
C207 C 0.81877 0.26843 0.84372 0.0
C208 C 0.68496 0.0734 0.93976 0.0
C209 C 0.66658 0.06482 0.9079 0.0
C210 C 0.70804 0.08724 0.86787 0.0
C211 C 0.70565 0.11357 0.85841 0.0
C212 C 0.73067 0.13923 0.84295 0.0
C213 C 0.75855 0.13844 0.83638 0.0
C214 C 0.7608 0.11167 0.84512 0.0
C215 C 0.73533 0.08624 0.86055 0.0
C216 C 0.72722 0.16718 0.83344 0.0
C217 C 0.79007 0.10999 0.83807 0.0
C218 C 0.71894 0.09999 0.62701 0.0
C219 C 0.70889 0.11827 0.6434 0.0
C220 C 0.73033 0.14455 0.66144 0.0
C221 C 0.76224 0.15207 0.66371 0.0
C222 C 0.77257 0.13427 0.64618 0.0
C223 C 0.75078 0.10873 0.62756 0.0
C224 C 0.71873 0.16388 0.67848 0.0
C225 C 0.80645 0.14179 0.64754 0.0
C226 C 0.96233 0.36225 0.61495 0.0
C227 C 0.93039 0.34745 0.59717 0.0
C228 C 0.89004 0.31619 0.63709 0.0
C229 C 0.86336 0.31309 0.65228 0.0
C230 C 0.84334 0.28586 0.66973 0.0
C231 C 0.85063 0.26138 0.67246 0.0
C232 C 0.87821 0.26479 0.65815 0.0
C233 C 0.8976 0.29211 0.64051 0.0
C234 C 0.81417 0.28301 0.68485 0.0
C235 C 0.88702 0.23941 0.66127 0.0
C236 C 0.83093 0.21801 0.82361 0.0
C237 C 0.8077 0.19029 0.83797 0.0
C238 C 0.78483 0.16544 0.81956 0.0
C239 C 0.78548 0.16787 0.78586 0.0
C240 C 0.76355 0.14287 0.76662 0.0
C241 C 0.76371 0.14584 0.73352 0.0
C242 C 0.78524 0.17423 0.71845 0.0
C243 C 0.78472 0.17801 0.68492 0.0
C244 C 0.80622 0.20669 0.67085 0.0
C245 C 0.8288 0.2317 0.68925 0.0
C246 C 0.83013 0.22822 0.72269 0.0
C247 C 0.85303 0.25267 0.74179 0.0
C248 C 0.8537 0.24921 0.77478 0.0
C249 C 0.83126 0.22131 0.78998 0.0
C250 C 0.80836 0.19616 0.77108 0.0
C251 C 0.80795 0.19952 0.73738 0.0
C252 C 0.66683 0.01825 0.62182 0.0
C253 C 0.66916 0.05064 0.62229 0.0
O254 O 0.9191 0.31879 0.90133 0.0
O255 O 0.90766 0.34267 0.61945 0.0
O256 O 0.69834 0.07345 0.611 0.0
O257 O 0.68447 0.06242 0.88374 0.0
H258 H 0.96039 0.31761 0.89693 0.0
H259 H 0.92126 0.28069 0.94106 0.0
H260 H 0.93262 0.3157 0.96402 0.0
H261 H 0.96088 0.3036 0.95431 0.0
H262 H 0.92473 0.26906 0.88214 0.0
H263 H 0.86695 0.31221 0.87986 0.0
H264 H 0.86941 0.19538 0.85482 0.0
H265 H 0.91142 0.22246 0.8548 0.0
H266 H 0.88807 0.2165 0.81906 0.0
H267 H 0.81712 0.28824 0.85453 0.0
H268 H 0.7977 0.24585 0.85068 0.0
H269 H 0.81825 0.27041 0.81731 0.0
H270 H 0.6625 0.08487 0.9036 0.0
H271 H 0.66961 0.07246 0.95964 0.0
H272 H 0.70531 0.09783 0.93841 0.0
H273 H 0.69449 0.05761 0.94542 0.0
H274 H 0.68417 0.11414 0.86243 0.0
H275 H 0.73683 0.06567 0.86753 0.0
H276 H 0.729 0.17013 0.80708 0.0
H277 H 0.74666 0.18905 0.84422 0.0
H278 H 0.70436 0.16457 0.84108 0.0
H279 H 0.78822 0.08755 0.84648 0.0
H280 H 0.81082 0.13004 0.84979 0.0
H281 H 0.79437 0.11222 0.81192 0.0
H282 H 0.66825 0.05591 0.64787 0.0
H283 H 0.68428 0.11192 0.64211 0.0
H284 H 0.75826 0.09464 0.61437 0.0
H285 H 0.71715 0.15872 0.70447 0.0
H286 H 0.69504 0.15851 0.66976 0.0
H287 H 0.73551 0.18948 0.67528 0.0
H288 H 0.80979 0.1234 0.63573 0.0
H289 H 0.81469 0.14425 0.67276 0.0
H290 H 0.82154 0.16464 0.63536 0.0
H291 H 0.92463 0.32443 0.58655 0.0
H292 H 0.98143 0.36385 0.59966 0.0
H293 H 0.96085 0.34782 0.63612 0.0
H294 H 0.96906 0.38631 0.62343 0.0
H295 H 0.85788 0.3319 0.6498 0.0
H296 H 0.91858 0.29438 0.62961 0.0
H297 H 0.81519 0.28023 0.71112 0.0
H298 H 0.79291 0.26162 0.67568 0.0
H299 H 0.81153 0.30392 0.68 0.0
H300 H 0.91057 0.24675 0.65107 0.0
H301 H 0.86916 0.21784 0.64865 0.0
H302 H 0.88704 0.23317 0.68682 0.0
H303 H 0.80694 0.18834 0.86384 0.0
H304 H 0.74605 0.12066 0.77692 0.0
H305 H 0.7464 0.12571 0.71997 0.0
H306 H 0.80549 0.20953 0.64516 0.0
H307 H 0.87065 0.27479 0.73144 0.0
H308 H 0.87183 0.26885 0.78826 0.0
H309 H 0.6677 0.01054 0.59716 0.0
H310 H 0.64438 0.00028 0.63288 0.0
H311 H 0.68669 0.01918 0.63581 0.0
C312 C 0.63061 0.6749 0.50086 0.0
C313 C 0.61063 0.67708 0.47358 0.0
C314 C 0.62526 0.71008 0.4255 0.0
C315 C 0.59518 0.70213 0.41397 0.0
C316 C 0.59128 0.72145 0.39165 0.0
C317 C 0.61806 0.74929 0.38071 0.0
C318 C 0.64852 0.75673 0.39143 0.0
C319 C 0.65171 0.7367 0.41338 0.0
C320 C 0.55851 0.71238 0.38012 0.0
C321 C 0.67761 0.78629 0.38044 0.0
C322 C 0.58746 0.93944 0.41733 0.0
C323 C 0.56883 0.91037 0.43892 0.0
C324 C 0.56641 0.86699 0.40681 0.0
C325 C 0.59866 0.87639 0.40879 0.0
C326 C 0.61056 0.85953 0.39265 0.0
C327 C 0.58979 0.83256 0.37459 0.0
C328 C 0.55727 0.8227 0.3731 0.0
C329 C 0.54611 0.84022 0.38908 0.0
C330 C 0.64536 0.87056 0.39474 0.0
C331 C 0.53426 0.79364 0.35464 0.0
C332 C 0.60861 0.89253 0.17131 0.0
C333 C 0.63869 0.89952 0.18222 0.0
C334 C 0.6429 0.87664 0.19848 0.0
C335 C 0.61656 0.84635 0.20402 0.0
C336 C 0.5864 0.8392 0.19266 0.0
C337 C 0.58287 0.86245 0.17653 0.0
C338 C 0.67534 0.88501 0.21046 0.0
C339 C 0.55777 0.8072 0.19818 0.0
C340 C 0.64641 0.6392 0.18206 0.0
C341 C 0.62414 0.65013 0.16865 0.0
C342 C 0.63687 0.70504 0.17688 0.0
C343 C 0.66352 0.73429 0.18332 0.0
C344 C 0.66089 0.75831 0.19872 0.0
C345 C 0.63074 0.75296 0.20736 0.0
C346 C 0.60355 0.7239 0.19952 0.0
C347 C 0.60693 0.70031 0.1842 0.0
C348 C 0.69031 0.78916 0.20628 0.0
C349 C 0.57095 0.71771 0.20753 0.0
C350 C 0.61404 0.77183 0.36011 0.0
C351 C 0.60569 0.79203 0.37506 0.0
C352 C 0.6018 0.81423 0.35758 0.0
C353 C 0.60738 0.81725 0.32433 0.0
C354 C 0.60523 0.84045 0.30634 0.0
C355 C 0.60984 0.84265 0.27347 0.0
C356 C 0.61641 0.82148 0.25726 0.0
C357 C 0.62001 0.82285 0.22368 0.0
C358 C 0.62538 0.80072 0.20818 0.0
C359 C 0.62755 0.77727 0.22542 0.0
C360 C 0.62502 0.77619 0.25914 0.0
C361 C 0.62792 0.75348 0.27734 0.0
C362 C 0.62465 0.75216 0.31045 0.0
C363 C 0.61804 0.77329 0.32657 0.0
C364 C 0.615 0.79634 0.30869 0.0
C365 C 0.61902 0.79813 0.27502 0.0
C366 C 0.63095 0.967 0.17218 0.0
C367 C 0.62436 0.94361 0.14468 0.0
O368 O 0.6298 0.69241 0.44773 0.0
O369 O 0.64092 0.68239 0.16276 0.0
O370 O 0.60293 0.91391 0.15622 0.0
O371 O 0.55366 0.88277 0.42131 0.0
H372 H 0.60263 0.69274 0.48354 0.0
H373 H 0.64963 0.69894 0.50766 0.0
H374 H 0.6418 0.66092 0.49405 0.0
H375 H 0.6157 0.66376 0.52218 0.0
H376 H 0.57475 0.68072 0.42193 0.0
H377 H 0.67489 0.74229 0.42202 0.0
H378 H 0.55174 0.72915 0.39001 0.0
H379 H 0.54068 0.68812 0.38761 0.0
H380 H 0.55803 0.71395 0.35365 0.0
H381 H 0.69948 0.78926 0.39195 0.0
H382 H 0.6754 0.80728 0.38595 0.0
H383 H 0.67987 0.78552 0.35414 0.0
H384 H 0.58695 0.90991 0.45464 0.0
H385 H 0.60807 0.93922 0.40684 0.0
H386 H 0.59658 0.96142 0.43162 0.0
H387 H 0.57314 0.94042 0.39719 0.0
H388 H 0.61476 0.89679 0.4227 0.0
H389 H 0.52128 0.83307 0.38782 0.0
H390 H 0.64885 0.85249 0.40731 0.0
H391 H 0.65882 0.89331 0.40774 0.0
H392 H 0.6552 0.87339 0.37036 0.0
H393 H 0.50939 0.78751 0.35836 0.0
H394 H 0.53689 0.77321 0.36189 0.0
H395 H 0.53946 0.79767 0.32873 0.0
H396 H 0.64643 0.94428 0.13736 0.0
H397 H 0.65882 0.92282 0.17876 0.0
H398 H 0.55978 0.8573 0.16805 0.0
H399 H 0.67534 0.88413 0.23699 0.0
H400 H 0.69375 0.90892 0.20268 0.0
H401 H 0.68157 0.86744 0.20172 0.0
H402 H 0.53609 0.80511 0.18707 0.0
H403 H 0.55386 0.8028 0.22425 0.0
H404 H 0.5618 0.78855 0.18818 0.0
H405 H 0.60835 0.64559 0.18899 0.0
H406 H 0.63269 0.61379 0.18854 0.0
H407 H 0.65833 0.65278 0.20403 0.0
H408 H 0.66487 0.64239 0.16491 0.0
H409 H 0.68652 0.73799 0.17689 0.0
H410 H 0.58618 0.67849 0.17754 0.0
H411 H 0.69211 0.79339 0.23247 0.0
H412 H 0.68886 0.80885 0.19463 0.0
H413 H 0.71204 0.78959 0.19812 0.0
H414 H 0.55211 0.69467 0.19812 0.0
H415 H 0.56737 0.73677 0.19755 0.0
H416 H 0.56853 0.71785 0.23388 0.0
H417 H 0.60171 0.79014 0.40066 0.0
H418 H 0.59997 0.85719 0.31749 0.0
H419 H 0.60782 0.86096 0.26091 0.0
H420 H 0.62725 0.80136 0.18233 0.0
H421 H 0.63277 0.73645 0.2662 0.0
H422 H 0.62702 0.73414 0.32323 0.0
H423 H 0.63782 0.95904 0.19417 0.0
H424 H 0.65043 0.99109 0.16698 0.0
H425 H 0.60938 0.96823 0.17748 0.0
C426 C 0.69676 0.66988 0.92759 0.0
C427 C 0.67581 0.65068 0.89901 0.0
C428 C 0.7054 0.62616 0.87723 0.0
C429 C 0.73118 0.6538 0.86514 0.0
C430 C 0.75608 0.65272 0.84984 0.0
C431 C 0.75482 0.62337 0.84598 0.0
C432 C 0.72831 0.59542 0.85712 0.0
C433 C 0.70415 0.59729 0.87287 0.0
C434 C 0.78408 0.68302 0.83847 0.0
C435 C 0.72566 0.56356 0.85294 0.0
C436 C 0.94092 0.5904 0.90635 0.0
C437 C 0.91272 0.5717 0.92881 0.0
C438 C 0.87049 0.57318 0.89739 0.0
C439 C 0.84491 0.55477 0.87738 0.0
C440 C 0.83012 0.56807 0.85961 0.0
C441 C 0.84137 0.60088 0.86195 0.0
C442 C 0.86663 0.61962 0.88301 0.0
C443 C 0.88092 0.60555 0.90072 0.0
C444 C 0.80298 0.54703 0.83769 0.0
C445 C 0.87892 0.65455 0.8861 0.0
C446 C 0.92601 0.61303 0.66928 0.0
C447 C 0.90143 0.58664 0.68461 0.0
C448 C 0.87532 0.58766 0.69673 0.0
C449 C 0.87422 0.61599 0.69453 0.0
C450 C 0.89884 0.64254 0.67906 0.0
C451 C 0.92415 0.6405 0.66625 0.0
C452 C 0.84886 0.5583 0.71178 0.0
C453 C 0.89846 0.67309 0.6761 0.0
C454 C 0.66763 0.60772 0.63117 0.0
C455 C 0.67679 0.59155 0.6052 0.0
C456 C 0.71629 0.58503 0.63626 0.0
C457 C 0.71985 0.56286 0.65411 0.0
C458 C 0.74602 0.57202 0.67425 0.0
C459 C 0.76933 0.6043 0.67639 0.0
C460 C 0.76649 0.62685 0.65759 0.0
C461 C 0.74 0.61699 0.63754 0.0
C462 C 0.74855 0.54717 0.69349 0.0
C463 C 0.79122 0.66134 0.65911 0.0
C464 C 0.78188 0.62204 0.83183 0.0
C465 C 0.80212 0.6179 0.85264 0.0
C466 C 0.82728 0.61516 0.84095 0.0
C467 C 0.83428 0.61946 0.80806 0.0
C468 C 0.86139 0.62026 0.79608 0.0
C469 C 0.8666 0.62149 0.76336 0.0
C470 C 0.84403 0.62024 0.74144 0.0
C471 C 0.84722 0.61775 0.70816 0.0
C472 C 0.82326 0.61446 0.6873 0.0
C473 C 0.79634 0.61408 0.69871 0.0
C474 C 0.79365 0.61852 0.73165 0.0
C475 C 0.76753 0.61971 0.74375 0.0
C476 C 0.76413 0.62201 0.7765 0.0
C477 C 0.78623 0.62223 0.79838 0.0
C478 C 0.81288 0.62145 0.78655 0.0
C479 C 0.81713 0.62064 0.75315 0.0
C480 C 0.99293 0.61237 0.68602 0.0
C481 C 0.96438 0.59437 0.66358 0.0
O482 O 0.68161 0.62603 0.89389 0.0
O483 O 0.68955 0.57435 0.61839 0.0
O484 O 0.95121 0.61294 0.65591 0.0
O485 O 0.88418 0.55846 0.91263 0.0
H486 H 0.68172 0.66581 0.87736 0.0
H487 H 0.72101 0.67376 0.92521 0.0
H488 H 0.68705 0.65699 0.95038 0.0
H489 H 0.6993 0.6936 0.92917 0.0
H490 H 0.73245 0.67634 0.86821 0.0
H491 H 0.68409 0.57608 0.88211 0.0
H492 H 0.80615 0.68552 0.84897 0.0
H493 H 0.78238 0.70411 0.84492 0.0
H494 H 0.78588 0.68234 0.81209 0.0
H495 H 0.70142 0.5439 0.85772 0.0
H496 H 0.74214 0.56146 0.86984 0.0
H497 H 0.73235 0.56099 0.82832 0.0
H498 H 0.91402 0.58947 0.94598 0.0
H499 H 0.9634 0.5973 0.91927 0.0
H500 H 0.94178 0.61243 0.89823 0.0
H501 H 0.9398 0.57699 0.88468 0.0
H502 H 0.8369 0.5298 0.87524 0.0
H503 H 0.90021 0.62 0.9168 0.0
H504 H 0.81083 0.55222 0.81247 0.0
H505 H 0.78312 0.55162 0.84056 0.0
H506 H 0.79421 0.5216 0.84223 0.0
H507 H 0.89888 0.66599 0.90339 0.0
H508 H 0.85964 0.65858 0.89404 0.0
H509 H 0.88688 0.66604 0.86241 0.0
H510 H 0.94832 0.5738 0.67825 0.0
H511 H 0.90174 0.56484 0.68673 0.0
H512 H 0.94297 0.66064 0.65407 0.0
H513 H 0.85014 0.56105 0.73815 0.0
H514 H 0.85023 0.5369 0.70598 0.0
H515 H 0.82557 0.55456 0.70367 0.0
H516 H 0.92076 0.69241 0.66606 0.0
H517 H 0.89457 0.68048 0.69988 0.0
H518 H 0.87861 0.66952 0.66025 0.0
H519 H 0.69538 0.60973 0.58983 0.0
H520 H 0.65621 0.62025 0.62026 0.0
H521 H 0.68876 0.62545 0.64446 0.0
H522 H 0.65099 0.59051 0.64865 0.0
H523 H 0.70162 0.53826 0.65263 0.0
H524 H 0.73797 0.63433 0.62316 0.0
H525 H 0.74834 0.55184 0.7194 0.0
H526 H 0.77126 0.54821 0.68835 0.0
H527 H 0.72895 0.52297 0.68822 0.0
H528 H 0.78558 0.67603 0.64304 0.0
H529 H 0.81448 0.66442 0.65236 0.0
H530 H 0.79341 0.67002 0.684 0.0
H531 H 0.79714 0.61494 0.87804 0.0
H532 H 0.87883 0.61991 0.81196 0.0
H533 H 0.88792 0.62216 0.75549 0.0
H534 H 0.82496 0.61075 0.66201 0.0
H535 H 0.74938 0.61874 0.728 0.0
H536 H 0.74346 0.62258 0.7845 0.0
H537 H 0.00416 0.59789 0.69112 0.0
H538 H 0.98495 0.61711 0.70905 0.0
H539 H 0.01097 0.63536 0.67615 0.0
C540 C 0.08673 0.70276 0.44498 0.0
C541 C 0.08098 0.68328 0.41421 0.0
C542 C 0.13081 0.71369 0.3847 0.0
C543 C 0.12594 0.73851 0.37492 0.0
C544 C 0.14771 0.76267 0.35503 0.0
C545 C 0.17486 0.76208 0.34482 0.0
C546 C 0.18002 0.7374 0.35497 0.0
C547 C 0.15789 0.71354 0.37479 0.0
C548 C 0.14166 0.78879 0.34473 0.0
C549 C 0.20887 0.73617 0.34478 0.0
C550 C 0.35606 0.90874 0.4317 0.0
C551 C 0.37192 0.9315 0.40348 0.0
C552 C 0.32598 0.91167 0.36754 0.0
C553 C 0.32595 0.8842 0.3577 0.0
C554 C 0.30014 0.86026 0.34107 0.0
C555 C 0.27375 0.86376 0.33398 0.0
C556 C 0.27395 0.89166 0.34301 0.0
C557 C 0.30023 0.9154 0.3595 0.0
C558 C 0.30092 0.83096 0.3314 0.0
C559 C 0.24628 0.89619 0.33551 0.0
C560 C 0.30764 0.89186 0.11978 0.0
C561 C 0.31567 0.87258 0.13768 0.0
C562 C 0.29368 0.84938 0.15819 0.0
C563 C 0.26338 0.84609 0.16134 0.0
C564 C 0.2552 0.86532 0.14286 0.0
C565 C 0.27735 0.88763 0.12184 0.0
C566 C 0.30284 0.82843 0.17641 0.0
C567 C 0.22312 0.86244 0.14536 0.0
C568 C 0.05182 0.64768 0.11424 0.0
C569 C 0.08361 0.65976 0.09722 0.0
C570 C 0.12491 0.68791 0.13783 0.0
C571 C 0.1506 0.68834 0.15316 0.0
C572 C 0.17274 0.71492 0.17035 0.0
C573 C 0.1686 0.74144 0.17275 0.0
C574 C 0.14199 0.74073 0.15838 0.0
C575 C 0.12046 0.71403 0.14094 0.0
C576 C 0.20088 0.71491 0.18542 0.0
C577 C 0.13653 0.76837 0.1611 0.0
C578 C 0.19766 0.78698 0.3231 0.0
C579 C 0.22265 0.8141 0.33674 0.0
C580 C 0.24583 0.83773 0.3177 0.0
C581 C 0.2438 0.83467 0.28404 0.0
C582 C 0.26631 0.85832 0.26417 0.0
C583 C 0.26473 0.85458 0.23112 0.0
C584 C 0.241 0.82675 0.21674 0.0
C585 C 0.23994 0.82208 0.1833 0.0
C586 C 0.21611 0.79405 0.16992 0.0
C587 C 0.19289 0.77051 0.18892 0.0
C588 C 0.1933 0.77482 0.22233 0.0
C589 C 0.17005 0.75174 0.24208 0.0
C590 C 0.17117 0.75584 0.27505 0.0
C591 C 0.19563 0.78314 0.28952 0.0
C592 C 0.21889 0.80702 0.26996 0.0
C593 C 0.21767 0.80291 0.23632 0.0
C594 C 0.36096 0.97027 0.10913 0.0
C595 C 0.3588 0.93795 0.10979 0.0
O596 O 0.11036 0.68956 0.40372 0.0
O597 O 0.10525 0.662 0.1202 0.0
O598 O 0.32882 0.91479 0.1004 0.0
O599 O 0.34995 0.93473 0.38511 0.0
H600 H 0.06913 0.69016 0.39568 0.0
H601 H 0.10543 0.72763 0.44109 0.0
H602 H 0.09465 0.69302 0.46474 0.0
H603 H 0.06554 0.70347 0.45269 0.0
H604 H 0.10541 0.73937 0.38276 0.0
H605 H 0.16154 0.69443 0.38256 0.0
H606 H 0.16155 0.8119 0.35266 0.0
H607 H 0.11938 0.78589 0.35463 0.0
H608 H 0.14043 0.78937 0.31823 0.0
H609 H 0.20955 0.7155 0.35497 0.0
H610 H 0.23045 0.75803 0.35253 0.0
H611 H 0.20937 0.73503 0.31831 0.0
H612 H 0.38266 0.92044 0.38904 0.0
H613 H 0.37422 0.90892 0.44801 0.0
H614 H 0.34113 0.88423 0.42289 0.0
H615 H 0.34073 0.91496 0.44551 0.0
H616 H 0.34582 0.88101 0.36295 0.0
H617 H 0.30047 0.93671 0.36689 0.0
H618 H 0.29761 0.8276 0.30513 0.0
H619 H 0.28121 0.80998 0.34293 0.0
H620 H 0.32344 0.83206 0.33823 0.0
H621 H 0.25033 0.91955 0.3435 0.0
H622 H 0.22485 0.87741 0.34739 0.0
H623 H 0.24156 0.89392 0.30935 0.0
H624 H 0.36198 0.93332 0.13514 0.0
H625 H 0.33904 0.87557 0.13532 0.0
H626 H 0.27144 0.90254 0.10758 0.0
H627 H 0.30544 0.83457 0.20218 0.0
H628 H 0.32546 0.83103 0.16795 0.0
H629 H 0.2841 0.80332 0.17406 0.0
H630 H 0.2221 0.88207 0.13301 0.0
H631 H 0.21674 0.86207 0.17083 0.0
H632 H 0.20518 0.83988 0.13433 0.0
H633 H 0.09153 0.68332 0.08643 0.0
H634 H 0.03397 0.64886 0.09872 0.0
H635 H 0.05483 0.66218 0.13571 0.0
H636 H 0.04243 0.62288 0.12218 0.0
H637 H 0.15369 0.668 0.15087 0.0
H638 H 0.10031 0.71385 0.12989 0.0
H639 H 0.20081 0.71814 0.21166 0.0
H640 H 0.22299 0.73502 0.17602 0.0
H641 H 0.20104 0.69266 0.18075 0.0
H642 H 0.11318 0.76297 0.15132 0.0
H643 H 0.15517 0.78879 0.14783 0.0
H644 H 0.13817 0.77552 0.18652 0.0
H645 H 0.22458 0.81642 0.36257 0.0
H646 H 0.2854 0.88 0.27396 0.0
H647 H 0.28264 0.8736 0.21701 0.0
H648 H 0.21561 0.79051 0.14428 0.0
H649 H 0.15084 0.73015 0.23227 0.0
H650 H 0.15275 0.73719 0.28907 0.0
H651 H 0.35777 0.97695 0.08458 0.0
H652 H 0.38429 0.98873 0.11839 0.0
H653 H 0.3424 0.9698 0.12459 0.0
C654 C 0.40756 0.09901 0.57624 0.0
C655 C 0.42176 0.09737 0.60865 0.0
C656 C 0.40471 0.12 0.65155 0.0
C657 C 0.43275 0.14926 0.65479 0.0
C658 C 0.43424 0.17287 0.67476 0.0
C659 C 0.40702 0.16758 0.69142 0.0
C660 C 0.37861 0.13847 0.68788 0.0
C661 C 0.37803 0.1149 0.66838 0.0
C662 C 0.46512 0.20352 0.67807 0.0
C663 C 0.34893 0.13224 0.70473 0.0
C664 C 0.44181 0.39186 0.61006 0.0
C665 C 0.42391 0.36427 0.63165 0.0
C666 C 0.43537 0.33033 0.6661 0.0
C667 C 0.40387 0.30631 0.67014 0.0
C668 C 0.39673 0.27837 0.68655 0.0
C669 C 0.42154 0.27434 0.69883 0.0
C670 C 0.45325 0.29848 0.6945 0.0
C671 C 0.45964 0.32627 0.67853 0.0
C672 C 0.36272 0.25321 0.69091 0.0
C673 C 0.48051 0.295 0.70666 0.0
C674 C 0.45486 0.32918 0.90128 0.0
C675 C 0.42337 0.30716 0.89425 0.0
C676 C 0.41548 0.27853 0.87926 0.0
C677 C 0.43986 0.2726 0.87022 0.0
C678 C 0.47158 0.29436 0.8787 0.0
C679 C 0.47855 0.32217 0.89476 0.0
C680 C 0.38129 0.25522 0.87214 0.0
C681 C 0.49827 0.28882 0.86996 0.0
C682 C 0.4359 0.11137 0.97516 0.0
C683 C 0.44449 0.09723 0.94682 0.0
C684 C 0.45302 0.13499 0.90331 0.0
C685 C 0.42151 0.12806 0.90024 0.0
C686 C 0.41355 0.14613 0.8801 0.0
C687 C 0.43743 0.17136 0.86249 0.0
C688 C 0.46875 0.17707 0.86399 0.0
C689 C 0.4761 0.15882 0.88446 0.0
C690 C 0.37981 0.13903 0.87844 0.0
C691 C 0.49474 0.20328 0.84492 0.0
C692 C 0.40867 0.1926 0.71261 0.0
C693 C 0.40939 0.21882 0.69819 0.0
C694 C 0.41476 0.24503 0.71621 0.0
C695 C 0.41773 0.24447 0.74981 0.0
C696 C 0.42217 0.27005 0.7687 0.0
C697 C 0.42688 0.27017 0.80151 0.0
C698 C 0.42707 0.24459 0.81682 0.0
C699 C 0.43265 0.24489 0.85009 0.0
C700 C 0.43414 0.21979 0.86425 0.0
C701 C 0.43078 0.19441 0.84606 0.0
C702 C 0.42416 0.19313 0.81293 0.0
C703 C 0.42 0.16767 0.79402 0.0
C704 C 0.41451 0.1672 0.76122 0.0
C705 C 0.41311 0.19226 0.74609 0.0
C706 C 0.41726 0.21816 0.76476 0.0
C707 C 0.42239 0.21841 0.79826 0.0
C708 C 0.48545 0.39434 0.87067 0.0
C709 C 0.45899 0.38011 0.89584 0.0
O710 O 0.40233 0.09586 0.63334 0.0
O711 O 0.46252 0.12003 0.92441 0.0
O712 O 0.46305 0.35802 0.91293 0.0
O713 O 0.44356 0.3575 0.64997 0.0
H714 H 0.44474 0.11948 0.609 0.0
H715 H 0.40884 0.12225 0.57388 0.0
H716 H 0.38241 0.08065 0.57369 0.0
H717 H 0.42113 0.0967 0.55633 0.0
H718 H 0.45402 0.15411 0.64267 0.0
H719 H 0.3565 0.09235 0.6659 0.0
H720 H 0.4632 0.2225 0.66545 0.0
H721 H 0.48518 0.20209 0.6677 0.0
H722 H 0.47052 0.21037 0.70361 0.0
H723 H 0.32795 0.11008 0.69642 0.0
H724 H 0.34453 0.15218 0.70078 0.0
H725 H 0.35185 0.13036 0.73084 0.0
H726 H 0.40529 0.36497 0.64617 0.0
H727 H 0.43649 0.41038 0.61886 0.0
H728 H 0.42898 0.37259 0.56533 0.0
H729 H 0.46704 0.40449 0.6187 0.0
H730 H 0.38486 0.3093 0.66069 0.0
H731 H 0.48382 0.3449 0.67517 0.0
H732 H 0.35805 0.23154 0.67793 0.0
H733 H 0.34609 0.26077 0.68191 0.0
H734 H 0.35802 0.24702 0.71663 0.0
H735 H 0.50352 0.3138 0.69737 0.0
H736 H 0.47731 0.27171 0.69972 0.0
H737 H 0.48139 0.29625 0.73315 0.0
H738 H 0.43558 0.36843 0.88362 0.0
H739 H 0.40511 0.3126 0.90013 0.0
H740 H 0.50276 0.3394 0.90075 0.0
H741 H 0.37633 0.2566 0.84642 0.0
H742 H 0.36518 0.26015 0.88636 0.0
H743 H 0.376 0.23075 0.87718 0.0
H744 H 0.52176 0.30997 0.87431 0.0
H745 H 0.49651 0.28206 0.8444 0.0
H746 H 0.49668 0.26909 0.88458 0.0
H747 H 0.42254 0.08006 0.93423 0.0
H748 H 0.41983 0.09236 0.99164 0.0
H749 H 0.4236 0.12396 0.9668 0.0
H750 H 0.45698 0.12822 0.98911 0.0
H751 H 0.40307 0.1092 0.91398 0.0
H752 H 0.50022 0.16369 0.88655 0.0
H753 H 0.37219 0.13753 0.8531 0.0
H754 H 0.37809 0.15855 0.88981 0.0
H755 H 0.3634 0.11661 0.89074 0.0
H756 H 0.51743 0.20341 0.84723 0.0
H757 H 0.49839 0.22637 0.8532 0.0
H758 H 0.4879 0.20084 0.81927 0.0
H759 H 0.40751 0.21956 0.67236 0.0
H760 H 0.4223 0.2904 0.75826 0.0
H761 H 0.4307 0.29081 0.81462 0.0
H762 H 0.43936 0.22067 0.88963 0.0
H763 H 0.42106 0.1479 0.80439 0.0
H764 H 0.41174 0.14709 0.74784 0.0
H765 H 0.48383 0.41141 0.85449 0.0
H766 H 0.50892 0.40634 0.88271 0.0
H767 H 0.48419 0.37538 0.85517 0.0
C768 C 0.01679 0.41767 0.08731 0.0
C769 C 0.02887 0.45061 0.08396 0.0
C770 C 0.07022 0.46128 0.12329 0.0
C771 C 0.055 0.42863 0.13096 0.0
N772 N 0.02304 0.37558 0.11051 0.0
N773 N 0.06509 0.50402 0.10058 0.0
C774 C 0.03084 0.40659 0.11013 0.0
C775 C 0.05522 0.4725 0.10221 0.0
N776 N 0.99154 0.39704 0.06903 0.0
N777 N 0.10012 0.48124 0.13419 0.0
H778 H 0.05452 0.51329 0.08568 0.0
H779 H 0.08186 0.52064 0.11613 0.0
H780 H 0.11348 0.4732 0.14618 0.0
H781 H 0.11335 0.50477 0.12721 0.0
H782 H 0.97878 0.37282 0.07298 0.0
H783 H 0.98212 0.4043 0.05058 0.0
H784 H 0.00775 0.35882 0.09417 0.0
H785 H 0.03434 0.36689 0.12502 0.0
C786 C 0.6147 0.04769 0.55233 0.0
C787 C 0.59145 0.05063 0.56946 0.0
C788 C 0.61578 0.04846 0.61983 0.0
C789 C 0.64185 0.05002 0.60318 0.0
N790 N 0.66641 0.05311 0.55177 0.0
N791 N 0.57498 0.06255 0.61872 0.0
C792 C 0.64159 0.05055 0.5689 0.0
C793 C 0.59386 0.05406 0.60295 0.0
N794 N 0.61013 0.03989 0.52059 0.0
N795 N 0.61017 0.03923 0.65113 0.0
H796 H 0.5596 0.06798 0.60652 0.0
H797 H 0.57747 0.06784 0.64306 0.0
H798 H 0.6225 0.03045 0.66387 0.0
H799 H 0.59006 0.03568 0.66307 0.0
H800 H 0.62397 0.03309 0.50792 0.0
H801 H 0.59099 0.03767 0.50732 0.0
H802 H 0.66932 0.05879 0.52753 0.0
H803 H 0.6848 0.05079 0.56136 0.0
C804 C 0.55966 0.58703 0.11318 0.0
C805 C 0.57729 0.58985 0.08561 0.0
C806 C 0.62454 0.63413 0.10977 0.0
C807 C 0.607 0.63129 0.13821 0.0
N808 N 0.55461 0.61045 0.16145 0.0
N809 N 0.6266 0.61278 0.05797 0.0
C810 C 0.5737 0.60926 0.13845 0.0
C811 C 0.60968 0.61263 0.08392 0.0
N812 N 0.52963 0.56197 0.11591 0.0
N813 N 0.65499 0.65824 0.10651 0.0
H814 H 0.61626 0.59843 0.03801 0.0
H815 H 0.6511 0.62527 0.05686 0.0
H816 H 0.6684 0.67399 0.1244 0.0
H817 H 0.66696 0.66446 0.08491 0.0
H818 H 0.51699 0.55574 0.13715 0.0
H819 H 0.51829 0.54538 0.09781 0.0
H820 H 0.53008 0.59795 0.15985 0.0
H821 H 0.56193 0.62613 0.18041 0.0
C822 C 0.01139 0.59194 0.59086 0.0
C823 C 0.99707 0.5588 0.58693 0.0
C824 C 0.95606 0.55052 0.62498 0.0
C825 C 0.97296 0.5831 0.63301 0.0
N826 N 0.00858 0.63587 0.61383 0.0
N827 N 0.9583 0.50613 0.60301 0.0
C828 C 0.99844 0.60428 0.61316 0.0
C829 C 0.96998 0.53799 0.60458 0.0
N830 N 0.0377 0.61154 0.57366 0.0
N831 N 0.92563 0.53196 0.63476 0.0
H832 H 0.96819 0.49593 0.58879 0.0
H833 H 0.94078 0.49007 0.61816 0.0
H834 H 0.91311 0.54112 0.64606 0.0
H835 H 0.91133 0.50868 0.62739 0.0
H836 H 0.05186 0.63556 0.57812 0.0
H837 H 0.04661 0.60348 0.55577 0.0
H838 H 0.02498 0.65226 0.59811 0.0
H839 H 0.99825 0.64566 0.62787 0.0
C840 C 0.40645 0.93582 0.03657 0.0
C841 C 0.43238 0.93621 0.05245 0.0
C842 C 0.41256 0.94182 0.10389 0.0
C843 C 0.38455 0.93804 0.08894 0.0
N844 N 0.35496 0.93097 0.03951 0.0
N845 N 0.45494 0.93019 0.10125 0.0
C846 C 0.38136 0.93458 0.05485 0.0
C847 C 0.43347 0.93588 0.08613 0.0
N848 N 0.40675 0.93888 0.00405 0.0
N849 N 0.42088 0.95354 0.13427 0.0
H850 H 0.46988 0.92492 0.08851 0.0
H851 H 0.45512 0.92695 0.12589 0.0
H852 H 0.40896 0.96228 0.14739 0.0
H853 H 0.44241 0.95897 0.14478 0.0
H854 H 0.39119 0.94363 0.99135 0.0
H855 H 0.42374 0.93842 0.98964 0.0
H856 H 0.34907 0.92281 0.0161 0.0
H857 H 0.33839 0.93545 0.04986 0.0
C858 C 0.41552 0.40371 0.56684 0.0
C859 C 0.45692 0.41727 0.55775 0.0
C860 C 0.45208 0.35501 0.58635 0.0
C861 C 0.41354 0.34691 0.60283 0.0
N862 N 0.36106 0.355 0.59435 0.0
N863 N 0.50493 0.40267 0.55829 0.0
C864 C 0.39165 0.36624 0.58717 0.0
C865 C 0.47471 0.39276 0.56629 0.0
N866 N 0.40193 0.42052 0.55702 0.0
N867 N 0.46341 0.33532 0.59185 0.0
H868 H 0.51932 0.42473 0.54822 0.0
H869 H 0.51515 0.38885 0.56322 0.0
H870 H 0.44973 0.31421 0.60413 0.0
H871 H 0.48542 0.34034 0.58349 0.0
H872 H 0.37833 0.4128 0.56185 0.0
H873 H 0.41419 0.44113 0.54372 0.0
H874 H 0.34909 0.36656 0.58689 0.0
H875 H 0.34891 0.33422 0.60755 0.0
C876 C 0.53581 0.92978 0.51155 0.0
C877 C 0.51567 0.93922 0.49693 0.0
C878 C 0.5216 0.91975 0.44509 0.0
C879 C 0.54461 0.91352 0.45926 0.0
N880 N 0.55883 0.89629 0.50765 0.0
N881 N 0.48194 0.93526 0.45291 0.0
C882 C 0.54708 0.91334 0.4931 0.0
C883 C 0.50612 0.93158 0.46459 0.0
N884 N 0.5455 0.93781 0.54255 0.0
N885 N 0.51475 0.91463 0.41319 0.0
H886 H 0.47003 0.94343 0.46699 0.0
H887 H 0.47189 0.92809 0.4303 0.0
H888 H 0.52218 0.90225 0.39897 0.0
H889 H 0.5019 0.92281 0.40049 0.0
H890 H 0.56319 0.93475 0.55305 0.0
H891 H 0.5375 0.94957 0.55708 0.0
H892 H 0.55905 0.89362 0.53237 0.0
H893 H 0.56404 0.88117 0.49499 0.0
C894 C 0.5903 0.58863 0.91507 0.0
C895 C 0.58352 0.60408 0.93976 0.0
C896 C 0.62951 0.65411 0.92386 0.0
C897 C 0.64038 0.63701 0.90587 0.0
N898 N 0.62128 0.59223 0.86995 0.0
N899 N 0.59598 0.65251 0.96686 0.0
C900 C 0.61784 0.60576 0.8968 0.0
C901 C 0.60247 0.6373 0.94345 0.0
N902 N 0.57062 0.55734 0.90896 0.0
N903 N 0.64386 0.68605 0.92055 0.0
H904 H 0.57641 0.64109 0.98167 0.0
H905 H 0.61119 0.67605 0.97288 0.0
H906 H 0.66144 0.69799 0.90359 0.0
H907 H 0.63563 0.69971 0.93123 0.0
H908 H 0.57535 0.54523 0.89138 0.0
H909 H 0.54993 0.5437 0.9216 0.0
H910 H 0.6391 0.60444 0.85329 0.0
H911 H 0.6391 0.60444 0.85329 0.0
C912 C 0.01984 0.60754 0.45551 0.0
C913 C 0.03233 0.58754 0.44886 0.0
C914 C 0.06695 0.62499 0.40855 0.0
C915 C 0.05955 0.64766 0.42047 0.0
N916 N 0.0155 0.65248 0.43813 0.0
N917 N 0.06593 0.57549 0.41744 0.0
C918 C 0.03173 0.63653 0.43877 0.0
C919 C 0.05517 0.59562 0.42465 0.0
N920 N 0.9978 0.59964 0.47887 0.0
N921 N 0.08219 0.63018 0.38009 0.0
H922 H 0.0562 0.55292 0.42726 0.0
H923 H 0.08538 0.58173 0.40296 0.0
H924 H 0.08633 0.6491 0.36531 0.0
H925 H 0.08641 0.61367 0.36899 0.0
H926 H 0.99078 0.61515 0.48732 0.0
H927 H 0.98809 0.57836 0.49137 0.0
H928 H 0.99361 0.64414 0.44882 0.0
H929 H 0.02212 0.67202 0.42336 0.0
C930 C 0.46057 0.02965 0.96522 0.0
C931 C 0.49297 0.04574 0.97426 0.0
C932 C 0.49507 0.09652 0.96489 0.0
C933 C 0.4618 0.08008 0.95859 0.0
N934 N 0.41231 0.03118 0.96582 0.0
N935 N 0.54298 0.09359 0.97118 0.0
C936 C 0.4444 0.04676 0.96263 0.0
C937 C 0.51076 0.07903 0.97105 0.0
N938 N 0.44526 0.99852 0.95671 0.0
N939 N 0.51151 0.12874 0.96705 0.0
H940 H 0.55501 0.08105 0.97297 0.0
H941 H 0.55775 0.11725 0.96552 0.0
H942 H 0.50165 0.14303 0.96354 0.0
H943 H 0.53459 0.14154 0.97559 0.0
H944 H 0.42233 0.98706 0.94749 0.0
H945 H 0.45639 0.98549 0.95318 0.0
H946 H 0.39932 0.00739 0.97208 0.0
H947 H 0.39902 0.04241 0.9667 0.0
C948 C 0.45108 0.47045 0.39748 0.0
C949 C 0.46295 0.44544 0.41856 0.0
C950 C 0.40843 0.38385 0.38657 0.0
C951 C 0.39236 0.4095 0.37322 0.0
N952 N 0.40759 0.47073 0.3544 0.0
N953 N 0.45342 0.38563 0.42793 0.0
C954 C 0.41692 0.45324 0.37131 0.0
C955 C 0.44307 0.403 0.41233 0.0
N956 N 0.46759 0.502 0.40187 0.0
N957 N 0.39224 0.35239 0.38176 0.0
H958 H 0.47295 0.39637 0.44321 0.0
H959 H 0.44207 0.36122 0.42517 0.0
H960 H 0.37126 0.34229 0.36853 0.0
H961 H 0.40039 0.33786 0.39083 0.0
H962 H 0.461 0.51681 0.39042 0.0
H963 H 0.48734 0.51219 0.41689 0.0
H964 H 0.42079 0.49529 0.35445 0.0
H965 H 0.38701 0.45961 0.34057 0.0
C966 C 0.00557 0.4007 0.95764 0.0
C967 C 0.99415 0.42078 0.94711 0.0
C968 C 0.96354 0.38307 0.90486 0.0
C969 C 0.96919 0.36037 0.92025 0.0
N970 N 0.01132 0.35569 0.9448 0.0
N971 N 0.96496 0.43323 0.90876 0.0
C972 C 0.99515 0.37158 0.94173 0.0
C973 C 0.97426 0.41281 0.91979 0.0
N974 N 0.02535 0.40884 0.98354 0.0
N975 N 0.95069 0.37726 0.87483 0.0
H976 H 0.97401 0.45594 0.91797 0.0
H977 H 0.94734 0.42718 0.89153 0.0
H978 H 0.94697 0.35759 0.8617 0.0
H979 H 0.94791 0.39367 0.86137 0.0
H980 H 0.03127 0.39332 0.99451 0.0
H981 H 0.03435 0.43049 0.9952 0.0
H982 H 0.032 0.36401 0.95824 0.0
H983 H 0.00624 0.33635 0.93036 0.0
C984 C 0.92826 0.50288 0.94644 0.0
C985 C 0.9385 0.51033 0.97858 0.0
C986 C 0.91742 0.54618 0.98031 0.0
C987 C 0.91532 0.54546 0.94642 0.0
N988 N 0.91172 0.51727 0.89755 0.0
N989 N 0.94402 0.54029 0.02643 0.0
C990 C 0.91827 0.52175 0.92955 0.0
C991 C 0.93302 0.53197 0.99581 0.0
N992 N 0.92728 0.47716 0.93257 0.0
N993 N 0.90322 0.55903 0.99779 0.0
H994 H 0.95588 0.53077 0.03884 0.0
H995 H 0.94373 0.55873 0.03848 0.0
H996 H 0.88843 0.56632 0.98745 0.0
H997 H 0.90224 0.55805 0.02267 0.0
H998 H 0.91763 0.46851 0.91009 0.0
H999 H 0.9335 0.46251 0.94502 0.0
H1000 H 0.91805 0.5041 0.88313 0.0
H1001 H 0.90031 0.52712 0.88498 0.0
C1002 C 0.45535 0.99341 0.42419 0.0
C1003 C 0.44996 0.00377 0.45384 0.0
C1004 C 0.39365 0.9797 0.44086 0.0
C1005 C 0.39835 0.9637 0.41515 0.0
N1006 N 0.43355 0.96947 0.37266 0.0
N1007 N 0.41601 0.01248 0.48824 0.0
C1008 C 0.4293 0.9753 0.40356 0.0
C1009 C 0.41973 0.99928 0.46109 0.0
N1010 N 0.48471 0.99856 0.41693 0.0
N1011 N 0.36458 0.97645 0.44535 0.0
H1012 H 0.43516 0.02814 0.50236 0.0
H1013 H 0.39431 0.00775 0.49712 0.0
H1014 H 0.34571 0.96341 0.42982 0.0
H1015 H 0.35965 0.98861 0.46255 0.0
H1016 H 0.48909 0.98785 0.39775 0.0
H1017 H 0.50456 0.01228 0.43109 0.0
H1018 H 0.4556 0.97919 0.36197 0.0
H1019 H 0.41464 0.95807 0.35667 0.0
C1020 C 0.47915 0.46216 0.92355 0.0
C1021 C 0.48698 0.4606 0.95619 0.0
C1022 C 0.46009 0.40275 0.95182 0.0
C1023 C 0.46062 0.40582 0.9181 0.0
N1024 N 0.45196 0.43499 0.87609 0.0
N1025 N 0.47779 0.42829 0.00334 0.0
C1026 C 0.46403 0.4342 0.9053 0.0
C1027 C 0.47522 0.43048 0.97098 0.0
N1028 N 0.48636 0.49008 0.90917 0.0
N1029 N 0.44207 0.37371 0.96535 0.0
H1030 H 0.48397 0.44715 0.01884 0.0
H1031 H 0.47407 0.40778 0.01481 0.0
H1032 H 0.42676 0.35405 0.95172 0.0
H1033 H 0.43872 0.36984 0.98984 0.0
H1034 H 0.4815 0.49148 0.88505 0.0
H1035 H 0.49726 0.51178 0.92063 0.0
H1036 H 0.43818 0.41491 0.86227 0.0
H1037 H 0.43818 0.41491 0.86227 0.0
C1038 C 0.08209 0.48843 0.45112 0.0
C1039 C 0.07026 0.48203 0.48248 0.0
C1040 C 0.07407 0.4338 0.48355 0.0
C1041 C 0.08434 0.43931 0.45104 0.0
N1042 N 0.08624 0.46652 0.40137 0.0
N1043 N 0.05099 0.44699 0.52779 0.0
C1044 C 0.08495 0.46508 0.43402 0.0
C1045 C 0.06548 0.45444 0.49866 0.0
N1046 N 0.09104 0.51719 0.43775 0.0
N1047 N 0.07186 0.40856 0.50002 0.0
H1048 H 0.04513 0.46178 0.5401 0.0
H1049 H 0.0427 0.42524 0.53898 0.0
H1050 H 0.07199 0.38948 0.4893 0.0
H1051 H 0.07018 0.40655 0.5248 0.0
H1052 H 0.10278 0.52446 0.41601 0.0
H1053 H 0.0899 0.53503 0.45017 0.0
H1054 H 0.08364 0.48323 0.3882 0.0
H1055 H 0.08579 0.44908 0.38691 0.0
C1056 C 0.60109 0.98809 0.94237 0.0
C1057 C 0.57567 0.99372 0.93728 0.0
C1058 C 0.6071 0.03528 0.89885 0.0
C1059 C 0.63424 0.03477 0.91013 0.0
N1060 N 0.65378 0.00053 0.92683 0.0
N1061 N 0.55206 0.01903 0.90775 0.0
C1062 C 0.63021 0.00771 0.92679 0.0
C1063 C 0.57769 0.01565 0.91386 0.0
N1064 N 0.59797 0.96556 0.96378 0.0
N1065 N 0.60959 0.05401 0.87346 0.0
H1066 H 0.52995 0.00389 0.91749 0.0
H1067 H 0.55285 0.0372 0.89401 0.0
H1068 H 0.63063 0.06678 0.86094 0.0
H1069 H 0.59045 0.05421 0.86266 0.0
H1070 H 0.61674 0.96288 0.97168 0.0
H1071 H 0.57648 0.9502 0.97456 0.0
H1072 H 0.65157 0.97997 0.93675 0.0
H1073 H 0.67434 0.01362 0.91369 0.0
C1074 C 0.56388 0.5897 0.44689 0.0
C1075 C 0.53733 0.57916 0.46679 0.0
C1076 C 0.55185 0.63448 0.47473 0.0
C1077 C 0.58332 0.64398 0.46495 0.0
N1078 N 0.61831 0.62847 0.43957 0.0
N1079 N 0.50048 0.59181 0.49072 0.0
C1080 C 0.58901 0.62114 0.44991 0.0
C1081 C 0.52949 0.60167 0.47793 0.0
N1082 N 0.56459 0.57007 0.42427 0.0
N1083 N 0.54271 0.65641 0.47931 0.0
H1084 H 0.48153 0.56912 0.48698 0.0
H1085 H 0.49512 0.6062 0.50442 0.0
H1086 H 0.55675 0.68025 0.47402 0.0
H1087 H 0.51965 0.65066 0.48426 0.0
H1088 H 0.58253 0.57748 0.40747 0.0
H1089 H 0.54504 0.548 0.41943 0.0
H1090 H 0.62356 0.61125 0.43236 0.0
H1091 H 0.63805 0.65089 0.44013 0.0
C1092 C 0.47012 0.05608 0.61474 0.0
C1093 C 0.45208 0.03058 0.59371 0.0
C1094 C 0.40771 0.04 0.5982 0.0
C1095 C 0.42869 0.07016 0.6111 0.0
N1096 N 0.4732 0.0992 0.64624 0.0
N1097 N 0.40254 0.99594 0.5673 0.0
C1098 C 0.45795 0.07578 0.62415 0.0
C1099 C 0.4202 0.0213 0.58664 0.0
N1100 N 0.49906 0.0616 0.62483 0.0
N1101 N 0.37601 0.02887 0.59837 0.0
H1102 H 0.4107 0.98134 0.55883 0.0
H1103 H 0.38046 0.99046 0.55827 0.0
H1104 H 0.36646 0.04122 0.60944 0.0
H1105 H 0.35932 0.00607 0.59138 0.0
H1106 H 0.51527 0.08148 0.63748 0.0
H1107 H 0.50679 0.04562 0.62033 0.0
H1108 H 0.49424 0.1044 0.65758 0.0
H1109 H 0.46299 0.11166 0.65555 0.0
C1110 C 0.41894 0.47389 0.04161 0.0
C1111 C 0.43995 0.50507 0.05212 0.0
C1112 C 0.4139 0.49331 0.10402 0.0
C1113 C 0.39026 0.46297 0.09258 0.0
N1114 N 0.37219 0.42339 0.05056 0.0
N1115 N 0.4548 0.54644 0.09068 0.0
C1116 C 0.39337 0.453 0.06138 0.0
C1117 C 0.43639 0.51541 0.0824 0.0
N1118 N 0.42423 0.46393 0.01301 0.0
N1119 N 0.4166 0.50045 0.1359 0.0
H1120 H 0.47207 0.56309 0.07567 0.0
H1121 H 0.45097 0.55622 0.11102 0.0
H1122 H 0.40272 0.48468 0.15352 0.0
H1123 H 0.43537 0.52084 0.1456 0.0
H1124 H 0.41327 0.44045 0.00582 0.0
H1125 H 0.44077 0.47927 0.99664 0.0
H1126 H 0.3696 0.41685 0.02661 0.0
H1127 H 0.35683 0.40493 0.06525 0.0
C1128 C 0.92674 0.41531 0.55677 0.0
C1129 C 0.9524 0.42579 0.53566 0.0
C1130 C 0.95461 0.37754 0.54503 0.0
C1131 C 0.93178 0.36919 0.56962 0.0
N1132 N 0.88353 0.36942 0.58097 0.0
N1133 N 0.98258 0.41243 0.50061 0.0
C1134 C 0.91387 0.38481 0.57038 0.0
C1135 C 0.96368 0.40534 0.52677 0.0
N1136 N 0.91489 0.43447 0.56417 0.0
N1137 N 0.96809 0.35936 0.53971 0.0
H1138 H 0.98905 0.43247 0.48668 0.0
H1139 H 0.98973 0.39745 0.49104 0.0
H1140 H 0.95994 0.33731 0.55022 0.0
H1141 H 0.98784 0.36634 0.52552 0.0
H1142 H 0.89847 0.42915 0.58226 0.0
H1143 H 0.92281 0.45642 0.55338 0.0
H1144 H 0.86899 0.37932 0.58025 0.0
H1145 H 0.87144 0.34516 0.58519 0.0
C1146 C 0.56181 0.93978 0.08757 0.0
C1147 C 0.57587 0.97126 0.07603 0.0
C1148 C 0.62615 0.98254 0.10131 0.0
C1149 C 0.61067 0.95175 0.11502 0.0
N1150 N 0.57258 0.89816 0.10041 0.0
N1151 N 0.62424 0.01875 0.06242 0.0
C1152 C 0.58107 0.92926 0.10199 0.0
C1153 C 0.60898 0.99172 0.08017 0.0
N1154 N 0.53002 0.91981 0.08567 0.0
N1155 N 0.65741 0.00243 0.10757 0.0
H1156 H 0.61286 0.02513 0.04527 0.0
H1157 H 0.6486 0.03346 0.06229 0.0
H1158 H 0.67159 0.99468 0.11845 0.0
H1159 H 0.6692 0.02643 0.10233 0.0
H1160 H 0.51898 0.89762 0.09649 0.0
H1161 H 0.51448 0.9264 0.07619 0.0
H1162 H 0.5519 0.88128 0.08912 0.0
H1163 H 0.58856 0.89047 0.10555 0.0
C1164 C 0.60389 0.51704 0.57083 0.0
C1165 C 0.59847 0.52935 0.54246 0.0
C1166 C 0.64152 0.58234 0.55602 0.0
C1167 C 0.6479 0.57 0.5844 0.0
N1168 N 0.62702 0.52748 0.62363 0.0
N1169 N 0.61443 0.57173 0.5047 0.0
C1170 C 0.6269 0.53781 0.59319 0.0
C1171 C 0.61796 0.56145 0.53412 0.0
N1172 N 0.58744 0.48519 0.57602 0.0
N1173 N 0.65619 0.61425 0.55106 0.0
H1174 H 0.59733 0.55704 0.48815 0.0
H1175 H 0.6301 0.59382 0.49533 0.0
H1176 H 0.67227 0.631 0.56693 0.0
H1177 H 0.64991 0.62471 0.53289 0.0
H1178 H 0.59281 0.47405 0.59426 0.0
H1179 H 0.5704 0.46948 0.56002 0.0
H1180 H 0.61001 0.50547 0.63208 0.0
H1181 H 0.6415 0.54169 0.642 0.0
C1182 C 0.04485 0.59909 0.03015 0.0
C1183 C 0.06011 0.58123 0.03522 0.0
C1184 C 0.10015 0.62373 0.06818 0.0
C1185 C 0.08041 0.63725 0.06995 0.0
N1186 N 0.04542 0.64839 0.03886 0.0
N1187 N 0.10316 0.57669 0.05802 0.0
C1188 C 0.05617 0.62823 0.04654 0.0
C1189 C 0.08832 0.59378 0.05353 0.0
N1190 N 0.01901 0.58769 0.01043 0.0
N1191 N 0.13108 0.64084 0.07727 0.0
H1192 H 0.09572 0.55502 0.04693 0.0
H1193 H 0.1216 0.58315 0.07436 0.0
H1194 H 0.14174 0.66483 0.08259 0.0
H1195 H 0.14709 0.6329 0.07449 0.0
H1196 H 0.00429 0.59731 0.00879 0.0
H1197 H 0.01157 0.56768 0.99629 0.0
H1198 H 0.02961 0.64459 0.02029 0.0
H1199 H 0.05489 0.67076 0.04901 0.0
loop_
_geom_bond_atom_site_label_1
_geom_bond_atom_site_label_2
_geom_bond_distance
_geom_bond_site_symmetry_2
_ccdc_geom_bond_type
C0 O2 1.247 . S
C0 O4 1.258 . S
C1 O8 1.274 . S
C1 O9 1.236 1_455 S
O2 C0 1.247 . S
O2 Zn3 2.028 . S
Zn3 O2 2.028 . S
Zn3 O7 2.035 1_454 S
Zn3 O9 2.035 1_454 S
Zn3 O10 2.028 . S
O4 C0 1.258 . S
O4 Zn5 2.035 1_554 S
Zn5 O4 2.035 1_556 S
Zn5 O6 2.028 . S
Zn5 O8 2.028 . S
Zn5 O11 2.035 1_556 S
O6 Zn5 2.028 . S
O6 C12 1.247 . S
O7 Zn3 2.035 1_656 S
O7 C12 1.258 1_655 S
O8 C1 1.274 . S
O8 Zn5 2.028 . S
O9 C1 1.236 1_655 S
O9 Zn3 2.035 1_656 S
O10 Zn3 2.028 . S
O10 C13 1.247 . S
O11 Zn5 2.035 1_554 S
O11 C13 1.258 . S
C12 O6 1.247 . S
C12 O7 1.258 1_455 S
C13 O10 1.247 . S
C13 O11 1.258 . S
C14 O16 1.247 . S
C14 O18 1.258 . S
C15 O22 1.247 1_565 S
C15 O23 1.258 . S
O16 C14 1.247 . S
O16 Zn17 2.028 1_545 S
Zn17 O16 2.028 1_565 S
Zn17 O21 2.035 . S
Zn17 O23 2.035 . S
Zn17 O24 2.028 1_565 S
O18 C14 1.258 . S
O18 Zn19 2.035 . S
Zn19 O18 2.035 . S
Zn19 O20 2.028 . S
Zn19 O22 2.028 . S
Zn19 O25 2.035 . S
O20 Zn19 2.028 . S
O20 C26 1.247 1_545 S
O21 Zn17 2.035 . S
O21 C26 1.258 . S
O22 C15 1.247 1_545 S
O22 Zn19 2.028 . S
O23 C15 1.258 . S
O23 Zn17 2.035 . S
O24 Zn17 2.028 1_545 S
O24 C27 1.247 . S
O25 Zn19 2.035 . S
O25 C27 1.258 . S
C26 O20 1.247 1_565 S
C26 O21 1.258 . S
C27 O24 1.247 . S
C27 O25 1.258 . S
C28 O30 1.247 . S
C28 O32 1.258 1_556 S
C29 O36 1.247 . S
C29 O37 1.258 . S
O30 C28 1.247 . S
O30 Zn31 2.028 . S
Zn31 O30 2.028 . S
Zn31 O35 2.035 1_556 S
Zn31 O37 2.035 1_556 S
Zn31 O38 2.028 . S
O32 C28 1.258 1_554 S
O32 Zn33 2.035 . S
Zn33 O32 2.035 . S
Zn33 O34 2.028 . S
Zn33 O36 2.028 . S
Zn33 O39 2.035 . S
O34 Zn33 2.028 . S
O34 C40 1.247 . S
O35 Zn31 2.035 1_554 S
O35 C40 1.258 . S
O36 C29 1.247 . S
O36 Zn33 2.028 . S
O37 C29 1.258 . S
O37 Zn31 2.035 1_554 S
O38 Zn31 2.028 . S
O38 C41 1.247 . S
O39 Zn33 2.035 . S
O39 C41 1.258 1_554 S
C40 O34 1.247 . S
C40 O35 1.258 . S
C41 O38 1.247 . S
C41 O39 1.258 1_556 S
C42 O44 1.247 . S
C42 O46 1.258 . S
C43 O50 1.247 . S
C43 O51 1.258 1_655 S
O44 C42 1.247 . S
O44 Zn45 2.028 . S
Zn45 O44 2.028 . S
Zn45 O49 2.035 . S
Zn45 O51 2.035 . S
Zn45 O52 2.028 . S
O46 C42 1.258 . S
O46 Zn47 2.035 1_455 S
Zn47 O46 2.035 1_655 S
Zn47 O48 2.028 . S
Zn47 O50 2.028 . S
Zn47 O53 2.035 1_655 S
O48 Zn47 2.028 . S
O48 C54 1.247 . S
O49 Zn45 2.035 . S
O49 C54 1.258 1_455 S
O50 C43 1.247 . S
O50 Zn47 2.028 . S
O51 C43 1.258 1_455 S
O51 Zn45 2.035 . S
O52 Zn45 2.028 . S
O52 C55 1.247 . S
O53 Zn47 2.035 1_455 S
O53 C55 1.258 . S
C54 O48 1.247 . S
C54 O49 1.258 1_655 S
C55 O52 1.247 . S
C55 O53 1.258 . S
C56 O58 1.247 1_565 S
C56 O60 1.258 . S
C57 O64 1.247 . S
C57 O65 1.258 1_556 S
O58 C56 1.247 1_545 S
O58 Zn59 2.028 . S
Zn59 O58 2.028 . S
Zn59 O63 2.035 . S
Zn59 O65 2.035 . S
Zn59 O66 2.028 . S
O60 C56 1.258 . S
O60 Zn61 2.035 1_554 S
Zn61 O60 2.035 1_556 S
Zn61 O62 2.028 1_565 S
Zn61 O64 2.028 1_565 S
Zn61 O67 2.035 1_556 S
O62 Zn61 2.028 1_545 S
O62 C68 1.247 . S
O63 Zn59 2.035 . S
O63 C68 1.258 1_554 S
O64 C57 1.247 . S
O64 Zn61 2.028 1_545 S
O65 C57 1.258 1_554 S
O65 Zn59 2.035 . S
O66 Zn59 2.028 . S
O66 C69 1.247 1_545 S
O67 Zn61 2.035 1_554 S
O67 C69 1.258 . S
C68 O62 1.247 . S
C68 O63 1.258 1_556 S
C69 O66 1.247 1_565 S
C69 O67 1.258 . S
C70 O72 1.247 . S
C70 O74 1.258 . S
C71 O78 1.247 . S
C71 O79 1.258 . S
O72 C70 1.247 . S
O72 Zn73 2.028 . S
Zn73 O72 2.028 . S
Zn73 O77 2.035 . S
Zn73 O79 2.035 . S
Zn73 O80 2.028 . S
O74 C70 1.258 . S
O74 Zn75 2.035 . S
Zn75 O74 2.035 . S
Zn75 O76 2.028 . S
Zn75 O78 2.028 . S
Zn75 O81 2.035 . S
O76 Zn75 2.028 . S
O76 C82 1.247 . S
O77 Zn73 2.035 . S
O77 C82 1.258 . S
O78 C71 1.247 . S
O78 Zn75 2.028 . S
O79 C71 1.258 . S
O79 Zn73 2.035 . S
O80 Zn73 2.028 . S
O80 C83 1.247 . S
O81 Zn75 2.035 . S
O81 C83 1.258 . S
C82 O76 1.247 . S
C82 O77 1.258 . S
C83 O80 1.247 . S
C83 O81 1.258 . S
C84 C85 1.560 . S
C84 H145 0.959 . S
C84 H146 0.959 . S
C84 H147 0.960 . S
C85 C84 1.560 . S
C85 O140 1.426 . S
C85 H144 0.980 . S
C86 C87 1.407 . S
C86 C91 1.418 . S
C86 O140 1.334 . S
C87 C86 1.407 . S
C87 C88 1.360 . S
C87 H148 0.929 . S
C88 C87 1.360 . S
C88 C89 1.401 . S
C88 C92 1.527 . S
C89 C88 1.401 . S
C89 C90 1.405 . S
C89 C122 1.587 . S
C90 C89 1.405 . S
C90 C91 1.332 . S
C90 C93 1.496 . S
C91 C86 1.418 . S
C91 C90 1.332 . S
C91 H149 0.929 . S
C92 C88 1.527 . S
C92 H150 0.959 . S
C92 H151 0.961 . S
C92 H152 0.961 . S
C93 C90 1.496 . S
C93 H153 0.960 . S
C93 H154 0.960 . S
C93 H155 0.961 . S
C94 C95 1.517 . S
C94 H157 0.961 . S
C94 H158 0.960 . S
C94 H159 0.959 . S
C95 C94 1.517 . S
C95 O143 1.468 . S
C95 H156 0.980 . S
C96 C97 1.349 . S
C96 C101 1.367 . S
C96 O143 1.408 . S
C97 C96 1.349 . S
C97 C98 1.407 . S
C97 H160 0.930 . S
C98 C97 1.407 . S
C98 C99 1.449 . S
C98 C102 1.535 . S
C99 C98 1.449 . S
C99 C100 1.384 . S
C99 C124 1.553 . S
C100 C99 1.384 . S
C100 C101 1.364 . S
C100 C103 1.450 . S
C101 C96 1.367 . S
C101 C100 1.364 . S
C101 H161 0.931 . S
C102 C98 1.535 . S
C102 H162 0.959 . S
C102 H163 0.961 . S
C102 H164 0.959 . S
C103 C100 1.450 . S
C103 H165 0.960 . S
C103 H166 0.960 . S
C103 H167 0.960 . S
C104 C105 1.309 . S
C104 C109 1.304 . S
C104 O142 1.435 . S
C105 C104 1.309 . S
C105 C106 1.476 . S
C105 H169 0.930 . S
C106 C105 1.476 . S
C106 C107 1.400 . S
C106 C110 1.567 . S
C107 C106 1.400 . S
C107 C108 1.373 . S
C107 C129 1.432 . S
C108 C107 1.373 . S
C108 C109 1.339 . S
C108 C111 1.530 . S
C109 C104 1.304 . S
C109 C108 1.339 . S
C109 H170 0.930 . S
C110 C106 1.567 . S
C110 H171 0.961 . S
C110 H172 0.960 . S
C110 H173 0.958 . S
C111 C108 1.530 . S
C111 H174 0.961 . S
C111 H175 0.960 . S
C111 H176 0.960 . S
C112 C113 1.530 . S
C112 H178 0.961 . S
C112 H179 0.961 . S
C112 H180 0.959 . S
C113 C112 1.530 . S
C113 O141 1.412 . S
C113 H177 0.980 . S
C114 C115 1.288 . S
C114 C119 1.377 . S
C114 O141 1.393 . S
C115 C114 1.288 . S
C115 C116 1.369 . S
C115 H181 0.932 . S
C116 C115 1.369 . S
C116 C117 1.398 . S
C116 C120 1.527 . S
C117 C116 1.398 . S
C117 C118 1.380 . S
C117 C131 1.497 . S
C118 C117 1.380 . S
C118 C119 1.383 . S
C118 C121 1.603 . S
C119 C114 1.377 . S
C119 C118 1.383 . S
C119 H182 0.929 . S
C120 C116 1.527 . S
C120 H183 0.961 . S
C120 H184 0.959 . S
C120 H185 0.959 . S
C121 C118 1.603 . S
C121 H186 0.960 . S
C121 H187 0.962 . S
C121 H188 0.961 . S
C122 C89 1.587 . S
C122 C123 1.360 . S
C122 C135 1.412 . S
C123 C122 1.360 . S
C123 C124 1.365 . S
C123 H189 0.929 . S
C124 C99 1.553 . S
C124 C123 1.365 . S
C124 C125 1.404 . S
C125 C124 1.404 . S
C125 C126 1.395 . S
C125 C136 1.451 . S
C126 C125 1.395 . S
C126 C127 1.322 . S
C126 H190 0.930 . S
C127 C126 1.322 . S
C127 C128 1.459 . S
C127 H191 0.929 . S
C128 C127 1.459 . S
C128 C129 1.445 . S
C128 C137 1.395 . S
C129 C107 1.432 . S
C129 C128 1.445 . S
C129 C130 1.370 . S
C130 C129 1.370 . S
C130 C131 1.438 . S
C130 H192 0.930 . S
C131 C117 1.497 . S
C131 C130 1.438 . S
C131 C132 1.360 . S
C132 C131 1.360 . S
C132 C133 1.401 . S
C132 C137 1.446 . S
C133 C132 1.401 . S
C133 C134 1.347 . S
C133 H193 0.929 . S
C134 C133 1.347 . S
C134 C135 1.455 . S
C134 H194 0.930 . S
C135 C122 1.412 . S
C135 C134 1.455 . S
C135 C136 1.331 . S
C136 C125 1.451 . S
C136 C135 1.331 . S
C136 C137 1.497 . S
C137 C128 1.395 . S
C137 C132 1.446 . S
C137 C136 1.497 . S
C138 C139 1.582 . S
C138 H195 0.962 . S
C138 H196 0.959 . S
C138 H197 0.958 . S
C139 C138 1.582 . S
C139 O142 1.458 . S
C139 H168 0.980 . S
O140 C85 1.426 . S
O140 C86 1.334 . S
O141 C113 1.412 . S
O141 C114 1.393 . S
O142 C104 1.435 . S
O142 C139 1.458 . S
O143 C95 1.468 . S
O143 C96 1.408 . S
H144 C85 0.980 . S
H145 C84 0.959 . S
H146 C84 0.959 . S
H147 C84 0.960 . S
H148 C87 0.929 . S
H149 C91 0.929 . S
H150 C92 0.959 . S
H151 C92 0.961 . S
H152 C92 0.961 . S
H153 C93 0.960 . S
H154 C93 0.960 . S
H155 C93 0.961 . S
H156 C95 0.980 . S
H157 C94 0.961 . S
H158 C94 0.960 . S
H159 C94 0.959 . S
H160 C97 0.930 . S
H161 C101 0.931 . S
H162 C102 0.959 . S
H163 C102 0.961 . S
H164 C102 0.959 . S
H165 C103 0.960 . S
H166 C103 0.960 . S
H167 C103 0.960 . S
H168 C139 0.980 . S
H169 C105 0.930 . S
H170 C109 0.930 . S
H171 C110 0.961 . S
H172 C110 0.960 . S
H173 C110 0.958 . S
H174 C111 0.961 . S
H175 C111 0.960 . S
H176 C111 0.960 . S
H177 C113 0.980 . S
H178 C112 0.961 . S
H179 C112 0.961 . S
H180 C112 0.959 . S
H181 C115 0.932 . S
H182 C119 0.929 . S
H183 C120 0.961 . S
H184 C120 0.959 . S
H185 C120 0.959 . S
H186 C121 0.960 . S
H187 C121 0.962 . S
H188 C121 0.961 . S
H189 C123 0.929 . S
H190 C126 0.930 . S
H191 C127 0.929 . S
H192 C130 0.930 . S
H193 C133 0.929 . S
H194 C134 0.930 . S
H195 C138 0.962 . S
H196 C138 0.959 . S
H197 C138 0.958 . S
C198 C199 1.560 . S
C198 H259 0.959 . S
C198 H260 0.959 . S
C198 H261 0.960 . S
C199 C198 1.560 . S
C199 O254 1.426 . S
C199 H258 0.980 . S
C200 C201 1.407 . S
C200 C205 1.418 . S
C200 O254 1.334 . S
C201 C200 1.407 . S
C201 C202 1.360 . S
C201 H262 0.929 . S
C202 C201 1.360 . S
C202 C203 1.401 . S
C202 C206 1.527 . S
C203 C202 1.401 . S
C203 C204 1.405 . S
C203 C236 1.587 . S
C204 C203 1.405 . S
C204 C205 1.332 . S
C204 C207 1.496 . S
C205 C200 1.418 . S
C205 C204 1.332 . S
C205 H263 0.929 . S
C206 C202 1.527 . S
C206 H264 0.959 . S
C206 H265 0.961 . S
C206 H266 0.961 . S
C207 C204 1.496 . S
C207 H267 0.960 . S
C207 H268 0.960 . S
C207 H269 0.961 . S
C208 C209 1.517 . S
C208 H271 0.961 . S
C208 H272 0.960 . S
C208 H273 0.959 . S
C209 C208 1.517 . S
C209 O257 1.468 . S
C209 H270 0.980 . S
C210 C211 1.349 . S
C210 C215 1.367 . S
C210 O257 1.408 . S
C211 C210 1.349 . S
C211 C212 1.407 . S
C211 H274 0.930 . S
C212 C211 1.407 . S
C212 C213 1.449 . S
C212 C216 1.535 . S
C213 C212 1.449 . S
C213 C214 1.384 . S
C213 C238 1.553 . S
C214 C213 1.384 . S
C214 C215 1.364 . S
C214 C217 1.450 . S
C215 C210 1.367 . S
C215 C214 1.364 . S
C215 H275 0.931 . S
C216 C212 1.535 . S
C216 H276 0.959 . S
C216 H277 0.961 . S
C216 H278 0.959 . S
C217 C214 1.450 . S
C217 H279 0.960 . S
C217 H280 0.960 . S
C217 H281 0.960 . S
C218 C219 1.309 . S
C218 C223 1.304 . S
C218 O256 1.435 . S
C219 C218 1.309 . S
C219 C220 1.476 . S
C219 H283 0.930 . S
C220 C219 1.476 . S
C220 C221 1.400 . S
C220 C224 1.567 . S
C221 C220 1.400 . S
C221 C222 1.373 . S
C221 C243 1.432 . S
C222 C221 1.373 . S
C222 C223 1.339 . S
C222 C225 1.530 . S
C223 C218 1.304 . S
C223 C222 1.339 . S
C223 H284 0.930 . S
C224 C220 1.567 . S
C224 H285 0.961 . S
C224 H286 0.960 . S
C224 H287 0.958 . S
C225 C222 1.530 . S
C225 H288 0.961 . S
C225 H289 0.960 . S
C225 H290 0.960 . S
C226 C227 1.530 . S
C226 H292 0.961 . S
C226 H293 0.961 . S
C226 H294 0.959 . S
C227 C226 1.530 . S
C227 O255 1.412 . S
C227 H291 0.980 . S
C228 C229 1.288 . S
C228 C233 1.377 . S
C228 O255 1.393 . S
C229 C228 1.288 . S
C229 C230 1.369 . S
C229 H295 0.932 . S
C230 C229 1.369 . S
C230 C231 1.398 . S
C230 C234 1.527 . S
C231 C230 1.398 . S
C231 C232 1.380 . S
C231 C245 1.497 . S
C232 C231 1.380 . S
C232 C233 1.383 . S
C232 C235 1.603 . S
C233 C228 1.377 . S
C233 C232 1.383 . S
C233 H296 0.929 . S
C234 C230 1.527 . S
C234 H297 0.961 . S
C234 H298 0.959 . S
C234 H299 0.959 . S
C235 C232 1.603 . S
C235 H300 0.960 . S
C235 H301 0.962 . S
C235 H302 0.961 . S
C236 C203 1.587 . S
C236 C237 1.360 . S
C236 C249 1.412 . S
C237 C236 1.360 . S
C237 C238 1.365 . S
C237 H303 0.929 . S
C238 C213 1.553 . S
C238 C237 1.365 . S
C238 C239 1.404 . S
C239 C238 1.404 . S
C239 C240 1.395 . S
C239 C250 1.451 . S
C240 C239 1.395 . S
C240 C241 1.322 . S
C240 H304 0.930 . S
C241 C240 1.322 . S
C241 C242 1.459 . S
C241 H305 0.929 . S
C242 C241 1.459 . S
C242 C243 1.445 . S
C242 C251 1.395 . S
C243 C221 1.432 . S
C243 C242 1.445 . S
C243 C244 1.370 . S
C244 C243 1.370 . S
C244 C245 1.438 . S
C244 H306 0.930 . S
C245 C231 1.497 . S
C245 C244 1.438 . S
C245 C246 1.360 . S
C246 C245 1.360 . S
C246 C247 1.401 . S
C246 C251 1.446 . S
C247 C246 1.401 . S
C247 C248 1.347 . S
C247 H307 0.929 . S
C248 C247 1.347 . S
C248 C249 1.455 . S
C248 H308 0.930 . S
C249 C236 1.412 . S
C249 C248 1.455 . S
C249 C250 1.331 . S
C250 C239 1.451 . S
C250 C249 1.331 . S
C250 C251 1.497 . S
C251 C242 1.395 . S
C251 C246 1.446 . S
C251 C250 1.497 . S
C252 C253 1.582 . S
C252 H309 0.962 . S
C252 H310 0.959 1_545 S
C252 H311 0.958 . S
C253 C252 1.582 . S
C253 O256 1.458 . S
C253 H282 0.980 . S
O254 C199 1.426 . S
O254 C200 1.334 . S
O255 C227 1.412 . S
O255 C228 1.393 . S
O256 C218 1.435 . S
O256 C253 1.458 . S
O257 C209 1.468 . S
O257 C210 1.408 . S
H258 C199 0.980 . S
H259 C198 0.959 . S
H260 C198 0.959 . S
H261 C198 0.960 . S
H262 C201 0.929 . S
H263 C205 0.929 . S
H264 C206 0.959 . S
H265 C206 0.961 . S
H266 C206 0.961 . S
H267 C207 0.960 . S
H268 C207 0.960 . S
H269 C207 0.961 . S
H270 C209 0.980 . S
H271 C208 0.961 . S
H272 C208 0.960 . S
H273 C208 0.959 . S
H274 C211 0.930 . S
H275 C215 0.931 . S
H276 C216 0.959 . S
H277 C216 0.961 . S
H278 C216 0.959 . S
H279 C217 0.960 . S
H280 C217 0.960 . S
H281 C217 0.960 . S
H282 C253 0.980 . S
H283 C219 0.930 . S
H284 C223 0.930 . S
H285 C224 0.961 . S
H286 C224 0.960 . S
H287 C224 0.958 . S
H288 C225 0.961 . S
H289 C225 0.960 . S
H290 C225 0.960 . S
H291 C227 0.980 . S
H292 C226 0.961 . S
H293 C226 0.961 . S
H294 C226 0.959 . S
H295 C229 0.932 . S
H296 C233 0.929 . S
H297 C234 0.961 . S
H298 C234 0.959 . S
H299 C234 0.959 . S
H300 C235 0.960 . S
H301 C235 0.962 . S
H302 C235 0.961 . S
H303 C237 0.929 . S
H304 C240 0.930 . S
H305 C241 0.929 . S
H306 C244 0.930 . S
H307 C247 0.929 . S
H308 C248 0.930 . S
H309 C252 0.962 . S
H310 C252 0.959 1_565 S
H311 C252 0.958 . S
C312 C313 1.560 . S
C312 H373 0.959 . S
C312 H374 0.959 . S
C312 H375 0.960 . S
C313 C312 1.560 . S
C313 O368 1.426 . S
C313 H372 0.980 . S
C314 C315 1.407 . S
C314 C319 1.418 . S
C314 O368 1.334 . S
C315 C314 1.407 . S
C315 C316 1.360 . S
C315 H376 0.929 . S
C316 C315 1.360 . S
C316 C317 1.401 . S
C316 C320 1.527 . S
C317 C316 1.401 . S
C317 C318 1.405 . S
C317 C350 1.587 . S
C318 C317 1.405 . S
C318 C319 1.332 . S
C318 C321 1.496 . S
C319 C314 1.418 . S
C319 C318 1.332 . S
C319 H377 0.929 . S
C320 C316 1.527 . S
C320 H378 0.959 . S
C320 H379 0.961 . S
C320 H380 0.961 . S
C321 C318 1.496 . S
C321 H381 0.960 . S
C321 H382 0.960 . S
C321 H383 0.961 . S
C322 C323 1.517 . S
C322 H385 0.961 . S
C322 H386 0.960 . S
C322 H387 0.959 . S
C323 C322 1.517 . S
C323 O371 1.468 . S
C323 H384 0.980 . S
C324 C325 1.349 . S
C324 C329 1.367 . S
C324 O371 1.408 . S
C325 C324 1.349 . S
C325 C326 1.407 . S
C325 H388 0.930 . S
C326 C325 1.407 . S
C326 C327 1.449 . S
C326 C330 1.535 . S
C327 C326 1.449 . S
C327 C328 1.384 . S
C327 C352 1.553 . S
C328 C327 1.384 . S
C328 C329 1.364 . S
C328 C331 1.450 . S
C329 C324 1.367 . S
C329 C328 1.364 . S
C329 H389 0.931 . S
C330 C326 1.535 . S
C330 H390 0.959 . S
C330 H391 0.961 . S
C330 H392 0.959 . S
C331 C328 1.450 . S
C331 H393 0.960 . S
C331 H394 0.960 . S
C331 H395 0.960 . S
C332 C333 1.309 . S
C332 C337 1.304 . S
C332 O370 1.435 . S
C333 C332 1.309 . S
C333 C334 1.476 . S
C333 H397 0.930 . S
C334 C333 1.476 . S
C334 C335 1.400 . S
C334 C338 1.567 . S
C335 C334 1.400 . S
C335 C336 1.373 . S
C335 C357 1.432 . S
C336 C335 1.373 . S
C336 C337 1.339 . S
C336 C339 1.530 . S
C337 C332 1.304 . S
C337 C336 1.339 . S
C337 H398 0.930 . S
C338 C334 1.567 . S
C338 H399 0.961 . S
C338 H400 0.960 . S
C338 H401 0.958 . S
C339 C336 1.530 . S
C339 H402 0.961 . S
C339 H403 0.960 . S
C339 H404 0.960 . S
C340 C341 1.530 . S
C340 H406 0.961 . S
C340 H407 0.961 . S
C340 H408 0.959 . S
C341 C340 1.530 . S
C341 O369 1.412 . S
C341 H405 0.980 . S
C342 C343 1.288 . S
C342 C347 1.377 . S
C342 O369 1.393 . S
C343 C342 1.288 . S
C343 C344 1.369 . S
C343 H409 0.932 . S
C344 C343 1.369 . S
C344 C345 1.398 . S
C344 C348 1.527 . S
C345 C344 1.398 . S
C345 C346 1.380 . S
C345 C359 1.497 . S
C346 C345 1.380 . S
C346 C347 1.383 . S
C346 C349 1.603 . S
C347 C342 1.377 . S
C347 C346 1.383 . S
C347 H410 0.929 . S
C348 C344 1.527 . S
C348 H411 0.961 . S
C348 H412 0.959 . S
C348 H413 0.959 . S
C349 C346 1.603 . S
C349 H414 0.960 . S
C349 H415 0.962 . S
C349 H416 0.961 . S
C350 C317 1.587 . S
C350 C351 1.360 . S
C350 C363 1.412 . S
C351 C350 1.360 . S
C351 C352 1.365 . S
C351 H417 0.929 . S
C352 C327 1.553 . S
C352 C351 1.365 . S
C352 C353 1.404 . S
C353 C352 1.404 . S
C353 C354 1.395 . S
C353 C364 1.451 . S
C354 C353 1.395 . S
C354 C355 1.322 . S
C354 H418 0.930 . S
C355 C354 1.322 . S
C355 C356 1.459 . S
C355 H419 0.929 . S
C356 C355 1.459 . S
C356 C357 1.445 . S
C356 C365 1.395 . S
C357 C335 1.432 . S
C357 C356 1.445 . S
C357 C358 1.370 . S
C358 C357 1.370 . S
C358 C359 1.438 . S
C358 H420 0.930 . S
C359 C345 1.497 . S
C359 C358 1.438 . S
C359 C360 1.360 . S
C360 C359 1.360 . S
C360 C361 1.401 . S
C360 C365 1.446 . S
C361 C360 1.401 . S
C361 C362 1.347 . S
C361 H421 0.929 . S
C362 C361 1.347 . S
C362 C363 1.455 . S
C362 H422 0.930 . S
C363 C350 1.412 . S
C363 C362 1.455 . S
C363 C364 1.331 . S
C364 C353 1.451 . S
C364 C363 1.331 . S
C364 C365 1.497 . S
C365 C356 1.395 . S
C365 C360 1.446 . S
C365 C364 1.497 . S
C366 C367 1.582 . S
C366 H423 0.962 . S
C366 H424 0.959 . S
C366 H425 0.958 . S
C367 C366 1.582 . S
C367 O370 1.458 . S
C367 H396 0.980 . S
O368 C313 1.426 . S
O368 C314 1.334 . S
O369 C341 1.412 . S
O369 C342 1.393 . S
O370 C332 1.435 . S
O370 C367 1.458 . S
O371 C323 1.468 . S
O371 C324 1.408 . S
H372 C313 0.980 . S
H373 C312 0.959 . S
H374 C312 0.959 . S
H375 C312 0.960 . S
H376 C315 0.929 . S
H377 C319 0.929 . S
H378 C320 0.959 . S
H379 C320 0.961 . S
H380 C320 0.961 . S
H381 C321 0.960 . S
H382 C321 0.960 . S
H383 C321 0.961 . S
H384 C323 0.980 . S
H385 C322 0.961 . S
H386 C322 0.960 . S
H387 C322 0.959 . S
H388 C325 0.930 . S
H389 C329 0.931 . S
H390 C330 0.959 . S
H391 C330 0.961 . S
H392 C330 0.959 . S
H393 C331 0.960 . S
H394 C331 0.960 . S
H395 C331 0.960 . S
H396 C367 0.980 . S
H397 C333 0.930 . S
H398 C337 0.930 . S
H399 C338 0.961 . S
H400 C338 0.960 . S
H401 C338 0.958 . S
H402 C339 0.961 . S
H403 C339 0.960 . S
H404 C339 0.960 . S
H405 C341 0.980 . S
H406 C340 0.961 . S
H407 C340 0.961 . S
H408 C340 0.959 . S
H409 C343 0.932 . S
H410 C347 0.929 . S
H411 C348 0.961 . S
H412 C348 0.959 . S
H413 C348 0.959 . S
H414 C349 0.960 . S
H415 C349 0.962 . S
H416 C349 0.961 . S
H417 C351 0.929 . S
H418 C354 0.930 . S
H419 C355 0.929 . S
H420 C358 0.930 . S
H421 C361 0.929 . S
H422 C362 0.930 . S
H423 C366 0.962 . S
H424 C366 0.959 . S
H425 C366 0.958 . S
C426 C427 1.560 . S
C426 H487 0.959 . S
C426 H488 0.959 . S
C426 H489 0.960 . S
C427 C426 1.560 . S
C427 O482 1.426 . S
C427 H486 0.980 . S
C428 C429 1.407 . S
C428 C433 1.418 . S
C428 O482 1.334 . S
C429 C428 1.407 . S
C429 C430 1.360 . S
C429 H490 0.929 . S
C430 C429 1.360 . S
C430 C431 1.401 . S
C430 C434 1.527 . S
C431 C430 1.401 . S
C431 C432 1.405 . S
C431 C464 1.587 . S
C432 C431 1.405 . S
C432 C433 1.332 . S
C432 C435 1.496 . S
C433 C428 1.418 . S
C433 C432 1.332 . S
C433 H491 0.929 . S
C434 C430 1.527 . S
C434 H492 0.959 . S
C434 H493 0.961 . S
C434 H494 0.961 . S
C435 C432 1.496 . S
C435 H495 0.960 . S
C435 H496 0.960 . S
C435 H497 0.961 . S
C436 C437 1.517 1_455 S
C436 H499 0.961 . S
C436 H500 0.960 . S
C436 H501 0.959 . S
C437 C436 1.517 1_655 S
C437 O485 1.468 . S
C437 H498 0.980 . S
C438 C439 1.349 . S
C438 C443 1.367 . S
C438 O485 1.408 . S
C439 C438 1.349 . S
C439 C440 1.407 . S
C439 H502 0.930 . S
C440 C439 1.407 . S
C440 C441 1.449 . S
C440 C444 1.535 . S
C441 C440 1.449 . S
C441 C442 1.384 . S
C441 C466 1.553 . S
C442 C441 1.384 . S
C442 C443 1.364 . S
C442 C445 1.450 . S
C443 C438 1.367 . S
C443 C442 1.364 . S
C443 H503 0.931 . S
C444 C440 1.535 . S
C444 H504 0.959 . S
C444 H505 0.961 . S
C444 H506 0.959 . S
C445 C442 1.450 . S
C445 H507 0.960 . S
C445 H508 0.960 . S
C445 H509 0.960 . S
C446 C447 1.309 . S
C446 C451 1.304 . S
C446 O484 1.435 . S
C447 C446 1.309 . S
C447 C448 1.476 . S
C447 H511 0.930 . S
C448 C447 1.476 . S
C448 C449 1.400 . S
C448 C452 1.567 . S
C449 C448 1.400 . S
C449 C450 1.373 . S
C449 C471 1.432 . S
C450 C449 1.373 . S
C450 C451 1.339 . S
C450 C453 1.530 . S
C451 C446 1.304 . S
C451 C450 1.339 . S
C451 H512 0.930 . S
C452 C448 1.567 . S
C452 H513 0.961 . S
C452 H514 0.960 . S
C452 H515 0.958 . S
C453 C450 1.530 . S
C453 H516 0.961 . S
C453 H517 0.960 . S
C453 H518 0.960 . S
C454 C455 1.530 . S
C454 H520 0.961 . S
C454 H521 0.961 . S
C454 H522 0.959 . S
C455 C454 1.530 . S
C455 O483 1.412 . S
C455 H519 0.980 . S
C456 C457 1.288 . S
C456 C461 1.377 . S
C456 O483 1.393 . S
C457 C456 1.288 . S
C457 C458 1.369 . S
C457 H523 0.932 . S
C458 C457 1.369 . S
C458 C459 1.398 . S
C458 C462 1.527 . S
C459 C458 1.398 . S
C459 C460 1.380 . S
C459 C473 1.497 . S
C460 C459 1.380 . S
C460 C461 1.383 . S
C460 C463 1.603 . S
C461 C456 1.377 . S
C461 C460 1.383 . S
C461 H524 0.929 . S
C462 C458 1.527 . S
C462 H525 0.961 . S
C462 H526 0.959 . S
C462 H527 0.959 . S
C463 C460 1.603 . S
C463 H528 0.960 . S
C463 H529 0.962 . S
C463 H530 0.961 . S
C464 C431 1.587 . S
C464 C465 1.360 . S
C464 C477 1.412 . S
C465 C464 1.360 . S
C465 C466 1.365 . S
C465 H531 0.929 . S
C466 C441 1.553 . S
C466 C465 1.365 . S
C466 C467 1.404 . S
C467 C466 1.404 . S
C467 C468 1.395 . S
C467 C478 1.451 . S
C468 C467 1.395 . S
C468 C469 1.322 . S
C468 H532 0.930 . S
C469 C468 1.322 . S
C469 C470 1.459 . S
C469 H533 0.929 . S
C470 C469 1.459 . S
C470 C471 1.445 . S
C470 C479 1.395 . S
C471 C449 1.432 . S
C471 C470 1.445 . S
C471 C472 1.370 . S
C472 C471 1.370 . S
C472 C473 1.438 . S
C472 H534 0.930 . S
C473 C459 1.497 . S
C473 C472 1.438 . S
C473 C474 1.360 . S
C474 C473 1.360 . S
C474 C475 1.401 . S
C474 C479 1.446 . S
C475 C474 1.401 . S
C475 C476 1.347 . S
C475 H535 0.929 . S
C476 C475 1.347 . S
C476 C477 1.455 . S
C476 H536 0.930 . S
C477 C464 1.412 . S
C477 C476 1.455 . S
C477 C478 1.331 . S
C478 C467 1.451 . S
C478 C477 1.331 . S
C478 C479 1.497 . S
C479 C470 1.395 . S
C479 C474 1.446 . S
C479 C478 1.497 . S
C480 C481 1.582 1_455 S
C480 H537 0.962 . S
C480 H538 0.959 . S
C480 H539 0.958 . S
C481 C480 1.582 1_655 S
C481 O484 1.458 . S
C481 H510 0.980 . S
O482 C427 1.426 . S
O482 C428 1.334 . S
O483 C455 1.412 . S
O483 C456 1.393 . S
O484 C446 1.435 . S
O484 C481 1.458 . S
O485 C437 1.468 . S
O485 C438 1.408 . S
H486 C427 0.980 . S
H487 C426 0.959 . S
H488 C426 0.959 . S
H489 C426 0.960 . S
H490 C429 0.929 . S
H491 C433 0.929 . S
H492 C434 0.959 . S
H493 C434 0.961 . S
H494 C434 0.961 . S
H495 C435 0.960 . S
H496 C435 0.960 . S
H497 C435 0.961 . S
H498 C437 0.980 . S
H499 C436 0.961 . S
H500 C436 0.960 . S
H501 C436 0.959 . S
H502 C439 0.930 . S
H503 C443 0.931 . S
H504 C444 0.959 . S
H505 C444 0.961 . S
H506 C444 0.959 . S
H507 C445 0.960 . S
H508 C445 0.960 . S
H509 C445 0.960 . S
H510 C481 0.980 . S
H511 C447 0.930 . S
H512 C451 0.930 . S
H513 C452 0.961 . S
H514 C452 0.960 . S
H515 C452 0.958 . S
H516 C453 0.961 . S
H517 C453 0.960 . S
H518 C453 0.960 . S
H519 C455 0.980 . S
H520 C454 0.961 . S
H521 C454 0.961 . S
H522 C454 0.959 . S
H523 C457 0.932 . S
H524 C461 0.929 . S
H525 C462 0.961 . S
H526 C462 0.959 . S
H527 C462 0.959 . S
H528 C463 0.960 . S
H529 C463 0.962 . S
H530 C463 0.961 . S
H531 C465 0.929 . S
H532 C468 0.930 . S
H533 C469 0.929 . S
H534 C472 0.930 . S
H535 C475 0.929 . S
H536 C476 0.930 . S
H537 C480 0.962 . S
H538 C480 0.959 . S
H539 C480 0.958 . S
C540 C541 1.560 . S
C540 H601 0.959 . S
C540 H602 0.959 . S
C540 H603 0.960 . S
C541 C540 1.560 . S
C541 O596 1.426 . S
C541 H600 0.980 . S
C542 C543 1.407 . S
C542 C547 1.418 . S
C542 O596 1.334 . S
C543 C542 1.407 . S
C543 C544 1.360 . S
C543 H604 0.929 . S
C544 C543 1.360 . S
C544 C545 1.401 . S
C544 C548 1.527 . S
C545 C544 1.401 . S
C545 C546 1.405 . S
C545 C578 1.587 . S
C546 C545 1.405 . S
C546 C547 1.332 . S
C546 C549 1.496 . S
C547 C542 1.418 . S
C547 C546 1.332 . S
C547 H605 0.929 . S
C548 C544 1.527 . S
C548 H606 0.959 . S
C548 H607 0.961 . S
C548 H608 0.961 . S
C549 C546 1.496 . S
C549 H609 0.960 . S
C549 H610 0.960 . S
C549 H611 0.961 . S
C550 C551 1.517 . S
C550 H613 0.961 . S
C550 H614 0.960 . S
C550 H615 0.959 1_565 S
C551 C550 1.517 . S
C551 O599 1.468 . S
C551 H612 0.980 . S
C552 C553 1.349 . S
C552 C557 1.367 . S
C552 O599 1.408 . S
C553 C552 1.349 . S
C553 C554 1.407 . S
C553 H616 0.930 . S
C554 C553 1.407 . S
C554 C555 1.449 . S
C554 C558 1.535 . S
C555 C554 1.449 . S
C555 C556 1.384 . S
C555 C580 1.553 . S
C556 C555 1.384 . S
C556 C557 1.364 . S
C556 C559 1.450 . S
C557 C552 1.367 . S
C557 C556 1.364 . S
C557 H617 0.931 . S
C558 C554 1.535 . S
C558 H618 0.959 . S
C558 H619 0.961 . S
C558 H620 0.959 . S
C559 C556 1.450 . S
C559 H621 0.960 . S
C559 H622 0.960 . S
C559 H623 0.960 . S
C560 C561 1.309 . S
C560 C565 1.304 . S
C560 O598 1.435 . S
C561 C560 1.309 . S
C561 C562 1.476 . S
C561 H625 0.930 . S
C562 C561 1.476 . S
C562 C563 1.400 . S
C562 C566 1.567 . S
C563 C562 1.400 . S
C563 C564 1.373 . S
C563 C585 1.432 . S
C564 C563 1.373 . S
C564 C565 1.339 . S
C564 C567 1.530 . S
C565 C560 1.304 . S
C565 C564 1.339 . S
C565 H626 0.930 . S
C566 C562 1.567 . S
C566 H627 0.961 . S
C566 H628 0.960 . S
C566 H629 0.958 . S
C567 C564 1.530 . S
C567 H630 0.961 . S
C567 H631 0.960 . S
C567 H632 0.960 . S
C568 C569 1.530 . S
C568 H634 0.961 . S
C568 H635 0.961 . S
C568 H636 0.959 . S
C569 C568 1.530 . S
C569 O597 1.412 . S
C569 H633 0.980 . S
C570 C571 1.288 . S
C570 C575 1.377 . S
C570 O597 1.393 . S
C571 C570 1.288 . S
C571 C572 1.369 . S
C571 H637 0.932 . S
C572 C571 1.369 . S
C572 C573 1.398 . S
C572 C576 1.527 . S
C573 C572 1.398 . S
C573 C574 1.380 . S
C573 C587 1.497 . S
C574 C573 1.380 . S
C574 C575 1.383 . S
C574 C577 1.603 . S
C575 C570 1.377 . S
C575 C574 1.383 . S
C575 H638 0.929 . S
C576 C572 1.527 . S
C576 H639 0.961 . S
C576 H640 0.959 . S
C576 H641 0.959 . S
C577 C574 1.603 . S
C577 H642 0.960 . S
C577 H643 0.962 . S
C577 H644 0.961 . S
C578 C545 1.587 . S
C578 C579 1.360 . S
C578 C591 1.412 . S
C579 C578 1.360 . S
C579 C580 1.365 . S
C579 H645 0.929 . S
C580 C555 1.553 . S
C580 C579 1.365 . S
C580 C581 1.404 . S
C581 C580 1.404 . S
C581 C582 1.395 . S
C581 C592 1.451 . S
C582 C581 1.395 . S
C582 C583 1.322 . S
C582 H646 0.930 . S
C583 C582 1.322 . S
C583 C584 1.459 . S
C583 H647 0.929 . S
C584 C583 1.459 . S
C584 C585 1.445 . S
C584 C593 1.395 . S
C585 C563 1.432 . S
C585 C584 1.445 . S
C585 C586 1.370 . S
C586 C585 1.370 . S
C586 C587 1.438 . S
C586 H648 0.930 . S
C587 C573 1.497 . S
C587 C586 1.438 . S
C587 C588 1.360 . S
C588 C587 1.360 . S
C588 C589 1.401 . S
C588 C593 1.446 . S
C589 C588 1.401 . S
C589 C590 1.347 . S
C589 H649 0.929 . S
C590 C589 1.347 . S
C590 C591 1.455 . S
C590 H650 0.930 . S
C591 C578 1.412 . S
C591 C590 1.455 . S
C591 C592 1.331 . S
C592 C581 1.451 . S
C592 C591 1.331 . S
C592 C593 1.497 . S
C593 C584 1.395 . S
C593 C588 1.446 . S
C593 C592 1.497 . S
C594 C595 1.582 . S
C594 H651 0.962 . S
C594 H652 0.959 1_565 S
C594 H653 0.976 . S
C595 C594 1.582 . S
C595 O598 1.458 . S
C595 H624 0.980 . S
O596 C541 1.426 . S
O596 C542 1.334 . S
O597 C569 1.412 . S
O597 C570 1.393 . S
O598 C560 1.435 . S
O598 C595 1.458 . S
O599 C551 1.468 . S
O599 C552 1.408 . S
H600 C541 0.980 . S
H601 C540 0.959 . S
H602 C540 0.959 . S
H603 C540 0.960 . S
H604 C543 0.929 . S
H605 C547 0.929 . S
H606 C548 0.959 . S
H607 C548 0.961 . S
H608 C548 0.961 . S
H609 C549 0.960 . S
H610 C549 0.960 . S
H611 C549 0.961 . S
H612 C551 0.980 . S
H613 C550 0.961 . S
H614 C550 0.960 . S
H615 C550 0.959 1_545 S
H616 C553 0.930 . S
H617 C557 0.931 . S
H618 C558 0.959 . S
H619 C558 0.961 . S
H620 C558 0.959 . S
H621 C559 0.960 . S
H622 C559 0.960 . S
H623 C559 0.960 . S
H624 C595 0.980 . S
H625 C561 0.930 . S
H626 C565 0.930 . S
H627 C566 0.961 . S
H628 C566 0.960 . S
H629 C566 0.958 . S
H630 C567 0.961 . S
H631 C567 0.960 . S
H632 C567 0.960 . S
H633 C569 0.980 . S
H634 C568 0.961 . S
H635 C568 0.961 . S
H636 C568 0.959 . S
H637 C571 0.932 . S
H638 C575 0.929 . S
H639 C576 0.961 . S
H640 C576 0.959 . S
H641 C576 0.959 . S
H642 C577 0.960 . S
H643 C577 0.962 . S
H644 C577 0.961 . S
H645 C579 0.929 . S
H646 C582 0.930 . S
H647 C583 0.929 . S
H648 C586 0.930 . S
H649 C589 0.929 . S
H650 C590 0.930 . S
H651 C594 0.962 . S
H652 C594 0.959 1_545 S
H653 C594 0.976 . S
C654 C655 1.560 . S
C654 H715 0.959 . S
C654 H716 0.959 . S
C654 H717 0.960 . S
C655 C654 1.560 . S
C655 O710 1.426 . S
C655 H714 0.980 . S
C656 C657 1.407 . S
C656 C661 1.418 . S
C656 O710 1.334 . S
C657 C656 1.407 . S
C657 C658 1.360 . S
C657 H718 0.929 . S
C658 C657 1.360 . S
C658 C659 1.401 . S
C658 C662 1.527 . S
C659 C658 1.401 . S
C659 C660 1.405 . S
C659 C692 1.587 . S
C660 C659 1.405 . S
C660 C661 1.332 . S
C660 C663 1.496 . S
C661 C656 1.418 . S
C661 C660 1.332 . S
C661 H719 0.929 . S
C662 C658 1.527 . S
C662 H720 0.959 . S
C662 H721 0.961 . S
C662 H722 0.961 . S
C663 C660 1.496 . S
C663 H723 0.960 . S
C663 H724 0.960 . S
C663 H725 0.961 . S
C664 C665 1.517 . S
C664 H727 0.961 . S
C664 H728 0.960 . S
C664 H729 0.959 . S
C665 C664 1.517 . S
C665 O713 1.468 . S
C665 H726 0.980 . S
C666 C667 1.349 . S
C666 C671 1.367 . S
C666 O713 1.408 . S
C667 C666 1.349 . S
C667 C668 1.407 . S
C667 H730 0.930 . S
C668 C667 1.407 . S
C668 C669 1.449 . S
C668 C672 1.535 . S
C669 C668 1.449 . S
C669 C670 1.384 . S
C669 C694 1.553 . S
C670 C669 1.384 . S
C670 C671 1.364 . S
C670 C673 1.450 . S
C671 C666 1.367 . S
C671 C670 1.364 . S
C671 H731 0.931 . S
C672 C668 1.535 . S
C672 H732 0.959 . S
C672 H733 0.961 . S
C672 H734 0.959 . S
C673 C670 1.450 . S
C673 H735 0.960 . S
C673 H736 0.960 . S
C673 H737 0.960 . S
C674 C675 1.309 . S
C674 C679 1.304 . S
C674 O712 1.435 . S
C675 C674 1.309 . S
C675 C676 1.476 . S
C675 H739 0.930 . S
C676 C675 1.476 . S
C676 C677 1.400 . S
C676 C680 1.567 . S
C677 C676 1.400 . S
C677 C678 1.373 . S
C677 C699 1.432 . S
C678 C677 1.373 . S
C678 C679 1.339 . S
C678 C681 1.530 . S
C679 C674 1.304 . S
C679 C678 1.339 . S
C679 H740 0.930 . S
C680 C676 1.567 . S
C680 H741 0.961 . S
C680 H742 0.960 . S
C680 H743 0.958 . S
C681 C678 1.530 . S
C681 H744 0.961 . S
C681 H745 0.960 . S
C681 H746 0.960 . S
C682 C683 1.530 . S
C682 H748 0.961 . S
C682 H749 0.961 . S
C682 H750 0.959 . S
C683 C682 1.530 . S
C683 O711 1.412 . S
C683 H747 0.980 . S
C684 C685 1.288 . S
C684 C689 1.377 . S
C684 O711 1.393 . S
C685 C684 1.288 . S
C685 C686 1.369 . S
C685 H751 0.932 . S
C686 C685 1.369 . S
C686 C687 1.398 . S
C686 C690 1.527 . S
C687 C686 1.398 . S
C687 C688 1.380 . S
C687 C701 1.497 . S
C688 C687 1.380 . S
C688 C689 1.383 . S
C688 C691 1.603 . S
C689 C684 1.377 . S
C689 C688 1.383 . S
C689 H752 0.929 . S
C690 C686 1.527 . S
C690 H753 0.961 . S
C690 H754 0.959 . S
C690 H755 0.959 . S
C691 C688 1.603 . S
C691 H756 0.960 . S
C691 H757 0.962 . S
C691 H758 0.961 . S
C692 C659 1.587 . S
C692 C693 1.360 . S
C692 C705 1.412 . S
C693 C692 1.360 . S
C693 C694 1.365 . S
C693 H759 0.929 . S
C694 C669 1.553 . S
C694 C693 1.365 . S
C694 C695 1.404 . S
C695 C694 1.404 . S
C695 C696 1.395 . S
C695 C706 1.451 . S
C696 C695 1.395 . S
C696 C697 1.322 . S
C696 H760 0.930 . S
C697 C696 1.322 . S
C697 C698 1.459 . S
C697 H761 0.929 . S
C698 C697 1.459 . S
C698 C699 1.445 . S
C698 C707 1.395 . S
C699 C677 1.432 . S
C699 C698 1.445 . S
C699 C700 1.370 . S
C700 C699 1.370 . S
C700 C701 1.438 . S
C700 H762 0.930 . S
C701 C687 1.497 . S
C701 C700 1.438 . S
C701 C702 1.360 . S
C702 C701 1.360 . S
C702 C703 1.401 . S
C702 C707 1.446 . S
C703 C702 1.401 . S
C703 C704 1.347 . S
C703 H763 0.929 . S
C704 C703 1.347 . S
C704 C705 1.455 . S
C704 H764 0.930 . S
C705 C692 1.412 . S
C705 C704 1.455 . S
C705 C706 1.331 . S
C706 C695 1.451 . S
C706 C705 1.331 . S
C706 C707 1.497 . S
C707 C698 1.395 . S
C707 C702 1.446 . S
C707 C706 1.497 . S
C708 C709 1.582 . S
C708 H765 0.962 . S
C708 H766 0.959 . S
C708 H767 0.958 . S
C709 C708 1.582 . S
C709 O712 1.458 . S
C709 H738 0.980 . S
O710 C655 1.426 . S
O710 C656 1.334 . S
O711 C683 1.412 . S
O711 C684 1.393 . S
O712 C674 1.435 . S
O712 C709 1.458 . S
O713 C665 1.468 . S
O713 C666 1.408 . S
H714 C655 0.980 . S
H715 C654 0.959 . S
H716 C654 0.959 . S
H717 C654 0.960 . S
H718 C657 0.929 . S
H719 C661 0.929 . S
H720 C662 0.959 . S
H721 C662 0.961 . S
H722 C662 0.961 . S
H723 C663 0.960 . S
H724 C663 0.960 . S
H725 C663 0.961 . S
H726 C665 0.980 . S
H727 C664 0.961 . S
H728 C664 0.960 . S
H729 C664 0.959 . S
H730 C667 0.930 . S
H731 C671 0.931 . S
H732 C672 0.959 . S
H733 C672 0.961 . S
H734 C672 0.959 . S
H735 C673 0.960 . S
H736 C673 0.960 . S
H737 C673 0.960 . S
H738 C709 0.980 . S
H739 C675 0.930 . S
H740 C679 0.930 . S
H741 C680 0.961 . S
H742 C680 0.960 . S
H743 C680 0.958 . S
H744 C681 0.961 . S
H745 C681 0.960 . S
H746 C681 0.960 . S
H747 C683 0.980 . S
H748 C682 0.961 . S
H749 C682 0.961 . S
H750 C682 0.959 . S
H751 C685 0.932 . S
H752 C689 0.929 . S
H753 C690 0.961 . S
H754 C690 0.959 . S
H755 C690 0.959 . S
H756 C691 0.960 . S
H757 C691 0.962 . S
H758 C691 0.961 . S
H759 C693 0.929 . S
H760 C696 0.930 . S
H761 C697 0.929 . S
H762 C700 0.930 . S
H763 C703 0.929 . S
H764 C704 0.930 . S
H765 C708 0.962 . S
H766 C708 0.959 . S
H767 C708 0.958 . S
C768 C769 1.363 . S
C768 C774 1.379 . S
C768 N776 1.356 . S
C769 C768 1.363 . S
C769 C775 1.363 . S
C770 C771 1.363 . S
C770 C775 1.379 . S
C770 N777 1.356 . S
C771 C770 1.363 . S
C771 C774 1.363 . S
N772 C774 1.356 . S
N772 H784 0.984 . S
N772 H785 0.985 . S
N773 C775 1.356 . S
N773 H778 0.984 . S
N773 H779 0.985 . S
C774 C768 1.379 . S
C774 C771 1.363 . S
C774 N772 1.356 . S
C775 C769 1.363 . S
C775 C770 1.379 . S
C775 N773 1.356 . S
N776 C768 1.356 . S
N776 H782 0.984 . S
N776 H783 0.984 . S
N777 C770 1.356 . S
N777 H780 0.984 . S
N777 H781 0.985 . S
H778 N773 0.984 . S
H779 N773 0.985 . S
H780 N777 0.984 . S
H781 N777 0.985 . S
H782 N776 0.984 . S
H783 N776 0.984 . S
H784 N772 0.984 . S
H785 N772 0.985 . S
C786 C787 1.363 . S
C786 C792 1.379 . S
C786 N794 1.356 . S
C787 C786 1.363 . S
C787 C793 1.363 . S
C788 C789 1.363 . S
C788 C793 1.379 . S
C788 N795 1.356 . S
C789 C788 1.363 . S
C789 C792 1.363 . S
N790 C792 1.356 . S
N790 H802 0.984 . S
N790 H803 0.985 . S
N791 C793 1.356 . S
N791 H796 0.984 . S
N791 H797 0.985 1_545 S
C792 C786 1.379 . S
C792 C789 1.363 . S
C792 N790 1.356 . S
C793 C787 1.363 . S
C793 C788 1.379 . S
C793 N791 1.356 . S
N794 C786 1.356 . S
N794 H800 0.984 . S
N794 H801 0.984 . S
N795 C788 1.356 . S
N795 H798 0.984 . S
N795 H799 0.985 1_545 S
H796 N791 0.984 . S
H797 N791 0.985 1_565 S
H798 N795 0.984 . S
H799 N795 0.985 1_565 S
H800 N794 0.984 . S
H801 N794 0.984 . S
H802 N790 0.984 . S
H803 N790 0.985 . S
C804 C805 1.363 . S
C804 C810 1.379 . S
C804 N812 1.356 . S
C805 C804 1.363 . S
C805 C811 1.363 . S
C806 C807 1.363 . S
C806 C811 1.379 . S
C806 N813 1.356 . S
C807 C806 1.363 . S
C807 C810 1.363 . S
N808 C810 1.356 . S
N808 H820 0.984 . S
N808 H821 0.985 . S
N809 C811 1.356 . S
N809 H814 0.984 . S
N809 H815 0.985 . S
C810 C804 1.379 . S
C810 C807 1.363 . S
C810 N808 1.356 . S
C811 C805 1.363 . S
C811 C806 1.379 . S
C811 N809 1.356 . S
N812 C804 1.356 . S
N812 H818 0.984 . S
N812 H819 0.984 . S
N813 C806 1.356 . S
N813 H816 0.984 . S
N813 H817 0.985 . S
H814 N809 0.984 . S
H815 N809 0.985 . S
H816 N813 0.984 . S
H817 N813 0.985 . S
H818 N812 0.984 . S
H819 N812 0.984 . S
H820 N808 0.984 . S
H821 N808 0.985 . S
C822 C823 1.363 . S
C822 C828 1.379 . S
C822 N830 1.356 1_655 S
C823 C822 1.363 . S
C823 C829 1.363 . S
C824 C825 1.363 . S
C824 C829 1.379 . S
C824 N831 1.356 . S
C825 C824 1.363 . S
C825 C828 1.363 . S
N826 C828 1.356 . S
N826 H838 0.984 1_655 S
N826 H839 0.985 . S
N827 C829 1.356 . S
N827 H832 0.984 . S
N827 H833 0.985 . S
C828 C822 1.379 . S
C828 C825 1.363 . S
C828 N826 1.356 . S
C829 C823 1.363 . S
C829 C824 1.379 . S
C829 N827 1.356 . S
N830 C822 1.356 1_455 S
N830 H836 0.984 . S
N830 H837 0.998 1_455 S
N831 C824 1.356 . S
N831 H834 0.984 . S
N831 H835 0.985 . S
H832 N827 0.984 . S
H833 N827 0.985 . S
H834 N831 0.984 . S
H835 N831 0.985 . S
H836 N830 0.984 . S
H837 N830 0.998 1_655 S
H838 N826 0.984 1_455 S
H839 N826 0.985 . S
C840 C841 1.363 . S
C840 C846 1.379 . S
C840 N848 1.356 . S
C841 C840 1.363 . S
C841 C847 1.363 . S
C842 C843 1.363 . S
C842 C847 1.379 . S
C842 N849 1.356 . S
C843 C842 1.363 . S
C843 C846 1.363 . S
N844 C846 1.356 . S
N844 H856 0.984 . S
N844 H857 0.985 . S
N845 C847 1.356 . S
N845 H850 0.984 . S
N845 H851 0.985 1_565 S
C846 C840 1.379 . S
C846 C843 1.363 . S
C846 N844 1.356 . S
C847 C841 1.363 . S
C847 C842 1.379 . S
C847 N845 1.356 . S
N848 C840 1.356 . S
N848 H854 0.984 . S
N848 H855 0.984 . S
N849 C842 1.356 . S
N849 H852 0.984 . S
N849 H853 0.985 . S
H850 N845 0.984 . S
H851 N845 0.985 1_545 S
H852 N849 0.984 . S
H853 N849 0.985 . S
H854 N848 0.984 . S
H855 N848 0.984 . S
H856 N844 0.984 . S
H857 N844 0.985 . S
C858 C859 1.363 . S
C858 C864 1.379 . S
C858 N866 1.356 . S
C859 C858 1.363 . S
C859 C865 1.363 . S
C860 C861 1.363 . S
C860 C865 1.379 . S
C860 N867 1.356 . S
C861 C860 1.363 . S
C861 C864 1.363 . S
N862 C864 1.356 . S
N862 H874 0.984 . S
N862 H875 0.985 . S
N863 C865 1.356 . S
N863 H868 0.984 . S
N863 H869 0.985 . S
C864 C858 1.379 . S
C864 C861 1.363 . S
C864 N862 1.356 . S
C865 C859 1.363 . S
C865 C860 1.379 . S
C865 N863 1.356 . S
N866 C858 1.356 . S
N866 H872 0.984 . S
N866 H873 0.984 . S
N867 C860 1.356 . S
N867 H870 0.984 . S
N867 H871 0.985 . S
H868 N863 0.984 . S
H869 N863 0.985 . S
H870 N867 0.984 . S
H871 N867 0.985 . S
H872 N866 0.984 . S
H873 N866 0.984 . S
H874 N862 0.984 . S
H875 N862 0.985 . S
C876 C877 1.363 . S
C876 C882 1.379 . S
C876 N884 1.356 . S
C877 C876 1.363 . S
C877 C883 1.363 . S
C878 C879 1.363 . S
C878 C883 1.379 . S
C878 N885 1.362 . S
C879 C878 1.363 . S
C879 C882 1.363 . S
N880 C882 1.356 . S
N880 H892 0.984 . S
N880 H893 0.985 . S
N881 C883 1.356 1_545 S
N881 H886 0.984 . S
N881 H887 0.985 . S
C882 C876 1.379 . S
C882 C879 1.363 . S
C882 N880 1.356 . S
C883 C877 1.363 . S
C883 C878 1.379 . S
C883 N881 1.356 1_565 S
N884 C876 1.356 . S
N884 H890 0.984 . S
N884 H891 0.984 . S
N885 C878 1.362 . S
N885 H888 1.010 . S
N885 H889 0.954 1_565 S
H886 N881 0.984 . S
H887 N881 0.985 . S
H888 N885 1.010 . S
H889 N885 0.954 1_545 S
H890 N884 0.984 . S
H891 N884 0.984 . S
H892 N880 0.984 . S
H893 N880 0.985 . S
C894 C895 1.363 . S
C894 C900 1.379 . S
C894 N902 1.356 . S
C895 C894 1.363 . S
C895 C901 1.363 . S
C896 C897 1.363 . S
C896 C901 1.379 . S
C896 N903 1.356 . S
C897 C896 1.363 . S
C897 C900 1.363 . S
N898 C900 1.356 . S
N898 H910 0.984 . S
N898 H911 0.985 . S
N899 C901 1.356 . S
N899 H904 0.984 . S
N899 H905 0.985 . S
C900 C894 1.379 . S
C900 C897 1.363 . S
C900 N898 1.356 . S
C901 C895 1.363 . S
C901 C896 1.379 . S
C901 N899 1.356 . S
N902 C894 1.356 . S
N902 H908 0.984 . S
N902 H909 0.984 . S
N903 C896 1.356 . S
N903 H906 0.984 . S
N903 H907 0.985 . S
H904 N899 0.984 . S
H905 N899 0.985 . S
H906 N903 0.984 . S
H907 N903 0.985 . S
H908 N902 0.984 . S
H909 N902 0.984 . S
H910 N898 0.984 . S
H911 N898 0.985 . S
C912 C913 1.363 . S
C912 C918 1.379 . S
C912 N920 1.356 . S
C913 C912 1.363 . S
C913 C919 1.363 . S
C914 C915 1.363 . S
C914 C919 1.379 . S
C914 N921 1.356 . S
C915 C914 1.363 . S
C915 C918 1.363 . S
N916 C918 1.356 . S
N916 H928 0.984 . S
N916 H929 0.985 . S
N917 C919 1.356 . S
N917 H922 0.984 . S
N917 H923 0.985 . S
C918 C912 1.379 . S
C918 C915 1.363 . S
C918 N916 1.356 . S
C919 C913 1.363 . S
C919 C914 1.379 . S
C919 N917 1.356 . S
N920 C912 1.356 . S
N920 H926 0.991 . S
N920 H927 0.984 . S
N921 C914 1.356 . S
N921 H924 0.984 . S
N921 H925 0.985 . S
H922 N917 0.984 . S
H923 N917 0.985 . S
H924 N921 0.984 . S
H925 N921 0.985 . S
H926 N920 0.991 . S
H927 N920 0.984 . S
H928 N916 0.984 . S
H929 N916 0.985 . S
C930 C931 1.363 . S
C930 C936 1.379 . S
C930 N938 1.356 . S
C931 C930 1.363 . S
C931 C937 1.363 . S
C932 C933 1.363 . S
C932 C937 1.379 . S
C932 N939 1.356 . S
C933 C932 1.363 . S
C933 C936 1.363 . S
N934 C936 1.356 . S
N934 H946 0.984 1_545 S
N934 H947 0.985 . S
N935 C937 1.356 . S
N935 H940 0.984 . S
N935 H941 0.985 . S
C936 C930 1.379 . S
C936 C933 1.363 . S
C936 N934 1.356 . S
C937 C931 1.363 . S
C937 C932 1.379 . S
C937 N935 1.356 . S
N938 C930 1.356 . S
N938 H944 0.984 1_545 S
N938 H945 0.984 . S
N939 C932 1.356 . S
N939 H942 0.984 . S
N939 H943 0.985 . S
H940 N935 0.984 . S
H941 N935 0.985 . S
H942 N939 0.984 . S
H943 N939 0.985 . S
H944 N938 0.984 1_565 S
H945 N938 0.984 . S
H946 N934 0.984 1_565 S
H947 N934 0.985 . S
C948 C949 1.363 . S
C948 C954 1.379 . S
C948 N956 1.356 . S
C949 C948 1.363 . S
C949 C955 1.363 . S
C950 C951 1.363 . S
C950 C955 1.379 . S
C950 N957 1.356 . S
C951 C950 1.363 . S
C951 C954 1.363 . S
N952 C954 1.356 . S
N952 H964 0.984 . S
N952 H965 0.985 . S
N953 C955 1.356 . S
N953 H958 0.984 . S
N953 H959 0.985 . S
C954 C948 1.379 . S
C954 C951 1.363 . S
C954 N952 1.356 . S
C955 C949 1.363 . S
C955 C950 1.379 . S
C955 N953 1.356 . S
N956 C948 1.356 . S
N956 H962 0.984 . S
N956 H963 0.984 . S
N957 C950 1.356 . S
N957 H960 0.984 . S
N957 H961 0.985 . S
H958 N953 0.984 . S
H959 N953 0.985 . S
H960 N957 0.984 . S
H961 N957 0.985 . S
H962 N956 0.984 . S
H963 N956 0.984 . S
H964 N952 0.984 . S
H965 N952 0.985 . S
C966 C967 1.363 . S
C966 C972 1.379 . S
C966 N974 1.356 . S
C967 C966 1.363 . S
C967 C973 1.363 . S
C968 C969 1.363 . S
C968 C973 1.379 . S
C968 N975 1.356 . S
C969 C968 1.363 . S
C969 C972 1.363 . S
N970 C972 1.356 . S
N970 H982 0.984 . S
N970 H983 0.985 . S
N971 C973 1.356 . S
N971 H976 0.984 . S
N971 H977 0.985 . S
C972 C966 1.379 . S
C972 C969 1.363 . S
C972 N970 1.356 . S
C973 C967 1.363 . S
C973 C968 1.379 . S
C973 N971 1.356 . S
N974 C966 1.356 . S
N974 H980 0.984 1_556 S
N974 H981 0.984 . S
N975 C968 1.356 . S
N975 H978 0.984 . S
N975 H979 0.985 . S
H976 N971 0.984 . S
H977 N971 0.985 . S
H978 N975 0.984 . S
H979 N975 0.985 . S
H980 N974 0.984 1_554 S
H981 N974 0.984 . S
H982 N970 0.984 . S
H983 N970 0.985 . S
C984 C985 1.363 . S
C984 C990 1.379 . S
C984 N992 1.356 1_655 S
C985 C984 1.363 . S
C985 C991 1.363 . S
C986 C987 1.363 . S
C986 C991 1.379 . S
C986 N993 1.356 . S
C987 C986 1.363 . S
C987 C990 1.363 . S
N988 C990 1.356 . S
N988 H1000 0.984 1_655 S
N988 H1001 0.985 . S
N989 C991 1.356 . S
N989 H994 0.984 . S
N989 H995 0.985 1_556 S
C990 C984 1.379 . S
C990 C987 1.363 . S
C990 N988 1.356 . S
C991 C985 1.363 . S
C991 C986 1.379 . S
C991 N989 1.356 . S
N992 C984 1.356 1_455 S
N992 H998 0.984 . S
N992 H999 0.984 . S
N993 C986 1.356 . S
N993 H996 0.984 . S
N993 H997 0.985 . S
H994 N989 0.984 . S
H995 N989 0.985 1_554 S
H996 N993 0.984 . S
H997 N993 0.985 . S
H998 N992 0.984 . S
H999 N992 0.984 . S
H1000 N988 0.984 1_455 S
H1001 N988 0.985 . S
C1002 C1003 1.363 . S
C1002 C1008 1.379 . S
C1002 N1010 1.356 . S
C1003 C1002 1.363 . S
C1003 C1009 1.363 . S
C1004 C1005 1.363 . S
C1004 C1009 1.379 . S
C1004 N1011 1.356 1_565 S
C1005 C1004 1.363 . S
C1005 C1008 1.363 . S
N1006 C1008 1.356 . S
N1006 H1018 0.984 . S
N1006 H1019 0.985 . S
N1007 C1009 1.356 1_545 S
N1007 H1012 0.984 . S
N1007 H1013 0.985 . S
C1008 C1002 1.379 . S
C1008 C1005 1.363 . S
C1008 N1006 1.356 . S
C1009 C1003 1.363 . S
C1009 C1004 1.379 . S
C1009 N1007 1.356 1_565 S
N1010 C1002 1.356 . S
N1010 H1016 0.984 . S
N1010 H1017 0.984 . S
N1011 C1004 1.356 1_545 S
N1011 H1014 0.984 1_545 S
N1011 H1015 0.985 . S
H1012 N1007 0.984 . S
H1013 N1007 0.985 . S
H1014 N1011 0.984 1_565 S
H1015 N1011 0.985 . S
H1016 N1010 0.984 . S
H1017 N1010 0.984 . S
H1018 N1006 0.984 . S
H1019 N1006 0.985 . S
C1020 C1021 1.363 . S
C1020 C1026 1.379 . S
C1020 N1028 1.356 . S
C1021 C1020 1.363 . S
C1021 C1027 1.363 . S
C1022 C1023 1.363 . S
C1022 C1027 1.379 . S
C1022 N1029 1.356 . S
C1023 C1022 1.363 . S
C1023 C1026 1.363 . S
N1024 C1026 1.356 . S
N1024 H1036 0.984 . S
N1024 H1037 0.985 . S
N1025 C1027 1.356 . S
N1025 H1030 0.984 1_556 S
N1025 H1031 0.985 1_556 S
C1026 C1020 1.379 . S
C1026 C1023 1.363 . S
C1026 N1024 1.356 . S
C1027 C1021 1.363 . S
C1027 C1022 1.379 . S
C1027 N1025 1.356 . S
N1028 C1020 1.356 . S
N1028 H1034 0.984 . S
N1028 H1035 0.984 . S
N1029 C1022 1.356 . S
N1029 H1032 0.984 . S
N1029 H1033 0.985 . S
H1030 N1025 0.984 1_554 S
H1031 N1025 0.985 1_554 S
H1032 N1029 0.984 . S
H1033 N1029 0.985 . S
H1034 N1028 0.984 . S
H1035 N1028 0.984 . S
H1036 N1024 0.984 . S
H1037 N1024 0.985 . S
C1038 C1039 1.363 . S
C1038 C1044 1.379 . S
C1038 N1046 1.356 . S
C1039 C1038 1.363 . S
C1039 C1045 1.363 . S
C1040 C1041 1.363 . S
C1040 C1045 1.379 . S
C1040 N1047 1.356 . S
C1041 C1040 1.363 . S
C1041 C1044 1.363 . S
N1042 C1044 1.356 . S
N1042 H1054 0.984 . S
N1042 H1055 0.985 . S
N1043 C1045 1.356 . S
N1043 H1048 0.984 . S
N1043 H1049 0.985 . S
C1044 C1038 1.379 . S
C1044 C1041 1.363 . S
C1044 N1042 1.356 . S
C1045 C1039 1.363 . S
C1045 C1040 1.379 . S
C1045 N1043 1.356 . S
N1046 C1038 1.356 . S
N1046 H1052 0.984 . S
N1046 H1053 0.984 . S
N1047 C1040 1.356 . S
N1047 H1050 0.984 . S
N1047 H1051 0.985 . S
H1048 N1043 0.984 . S
H1049 N1043 0.985 . S
H1050 N1047 0.984 . S
H1051 N1047 0.985 . S
H1052 N1046 0.984 . S
H1053 N1046 0.984 . S
H1054 N1042 0.984 . S
H1055 N1042 0.985 . S
C1056 C1057 1.363 . S
C1056 C1062 1.379 . S
C1056 N1064 1.356 . S
C1057 C1056 1.363 . S
C1057 C1063 1.363 . S
C1058 C1059 1.363 . S
C1058 C1063 1.379 . S
C1058 N1065 1.356 . S
C1059 C1058 1.363 . S
C1059 C1062 1.363 . S
N1060 C1062 1.356 . S
N1060 H1072 0.984 1_545 S
N1060 H1073 0.985 . S
N1061 C1063 1.356 . S
N1061 H1066 0.984 . S
N1061 H1067 0.985 . S
C1062 C1056 1.379 . S
C1062 C1059 1.363 . S
C1062 N1060 1.356 . S
C1063 C1057 1.363 . S
C1063 C1058 1.379 . S
C1063 N1061 1.356 . S
N1064 C1056 1.356 . S
N1064 H1070 0.984 1_545 S
N1064 H1071 0.984 . S
N1065 C1058 1.356 . S
N1065 H1068 0.984 . S
N1065 H1069 0.985 . S
H1066 N1061 0.984 . S
H1067 N1061 0.985 . S
H1068 N1065 0.984 . S
H1069 N1065 0.985 . S
H1070 N1064 0.984 1_565 S
H1071 N1064 0.984 . S
H1072 N1060 0.984 1_565 S
H1073 N1060 0.985 . S
C1074 C1075 1.363 . S
C1074 C1080 1.379 . S
C1074 N1082 1.356 . S
C1075 C1074 1.363 . S
C1075 C1081 1.363 . S
C1076 C1077 1.363 . S
C1076 C1081 1.379 . S
C1076 N1083 1.356 . S
C1077 C1076 1.363 . S
C1077 C1080 1.363 . S
N1078 C1080 1.356 . S
N1078 H1090 0.984 . S
N1078 H1091 0.985 . S
N1079 C1081 1.356 . S
N1079 H1084 0.984 . S
N1079 H1085 0.985 . S
C1080 C1074 1.379 . S
C1080 C1077 1.363 . S
C1080 N1078 1.356 . S
C1081 C1075 1.363 . S
C1081 C1076 1.379 . S
C1081 N1079 1.356 . S
N1082 C1074 1.356 . S
N1082 H1088 0.984 . S
N1082 H1089 0.984 . S
N1083 C1076 1.356 . S
N1083 H1086 0.984 . S
N1083 H1087 0.985 . S
H1084 N1079 0.984 . S
H1085 N1079 0.985 . S
H1086 N1083 0.984 . S
H1087 N1083 0.985 . S
H1088 N1082 0.984 . S
H1089 N1082 0.984 . S
H1090 N1078 0.984 . S
H1091 N1078 0.985 . S
C1092 C1093 1.363 . S
C1092 C1098 1.379 . S
C1092 N1100 1.356 . S
C1093 C1092 1.363 . S
C1093 C1099 1.363 . S
C1094 C1095 1.363 . S
C1094 C1099 1.379 . S
C1094 N1101 1.356 . S
C1095 C1094 1.363 . S
C1095 C1098 1.363 . S
N1096 C1098 1.356 . S
N1096 H1108 0.984 . S
N1096 H1109 0.985 . S
N1097 C1099 1.356 1_565 S
N1097 H1102 0.984 1_565 S
N1097 H1103 0.985 . S
C1098 C1092 1.379 . S
C1098 C1095 1.363 . S
C1098 N1096 1.356 . S
C1099 C1093 1.363 . S
C1099 C1094 1.379 . S
C1099 N1097 1.356 1_545 S
N1100 C1092 1.356 . S
N1100 H1106 0.984 . S
N1100 H1107 0.984 . S
N1101 C1094 1.356 . S
N1101 H1104 0.984 . S
N1101 H1105 0.985 1_545 S
H1102 N1097 0.984 1_545 S
H1103 N1097 0.985 . S
H1104 N1101 0.984 . S
H1105 N1101 0.985 1_565 S
H1106 N1100 0.984 . S
H1107 N1100 0.984 . S
H1108 N1096 0.984 . S
H1109 N1096 0.985 . S
C1110 C1111 1.363 . S
C1110 C1116 1.379 . S
C1110 N1118 1.356 . S
C1111 C1110 1.363 . S
C1111 C1117 1.363 . S
C1112 C1113 1.363 . S
C1112 C1117 1.379 . S
C1112 N1119 1.356 . S
C1113 C1112 1.363 . S
C1113 C1116 1.363 . S
N1114 C1116 1.356 . S
N1114 H1126 0.984 . S
N1114 H1127 0.985 . S
N1115 C1117 1.356 . S
N1115 H1120 0.984 . S
N1115 H1121 0.985 . S
C1116 C1110 1.379 . S
C1116 C1113 1.363 . S
C1116 N1114 1.356 . S
C1117 C1111 1.363 . S
C1117 C1112 1.379 . S
C1117 N1115 1.356 . S
N1118 C1110 1.356 . S
N1118 H1124 0.984 . S
N1118 H1125 0.984 . S
N1119 C1112 1.356 . S
N1119 H1122 0.984 . S
N1119 H1123 0.985 . S
H1120 N1115 0.984 . S
H1121 N1115 0.985 . S
H1122 N1119 0.984 . S
H1123 N1119 0.985 . S
H1124 N1118 0.984 . S
H1125 N1118 0.984 . S
H1126 N1114 0.984 . S
H1127 N1114 0.985 . S
C1128 C1129 1.363 . S
C1128 C1134 1.379 . S
C1128 N1136 1.356 . S
C1129 C1128 1.363 . S
C1129 C1135 1.363 . S
C1130 C1131 1.363 . S
C1130 C1135 1.379 . S
C1130 N1137 1.356 1_655 S
C1131 C1130 1.363 . S
C1131 C1134 1.363 . S
N1132 C1134 1.356 . S
N1132 H1144 0.984 . S
N1132 H1145 0.985 . S
N1133 C1135 1.356 1_455 S
N1133 H1138 0.984 . S
N1133 H1139 0.985 . S
C1134 C1128 1.379 . S
C1134 C1131 1.363 . S
C1134 N1132 1.356 . S
C1135 C1129 1.363 . S
C1135 C1130 1.379 . S
C1135 N1133 1.356 1_655 S
N1136 C1128 1.356 . S
N1136 H1142 0.984 . S
N1136 H1143 0.984 . S
N1137 C1130 1.356 1_455 S
N1137 H1140 0.984 1_455 S
N1137 H1141 0.985 . S
H1138 N1133 0.984 . S
H1139 N1133 0.985 . S
H1140 N1137 0.984 1_655 S
H1141 N1137 0.985 . S
H1142 N1136 0.984 . S
H1143 N1136 0.984 . S
H1144 N1132 0.984 . S
H1145 N1132 0.985 . S
C1146 C1147 1.363 . S
C1146 C1152 1.379 . S
C1146 N1154 1.356 . S
C1147 C1146 1.363 . S
C1147 C1153 1.363 . S
C1148 C1149 1.363 . S
C1148 C1153 1.379 . S
C1148 N1155 1.356 1_565 S
C1149 C1148 1.363 . S
C1149 C1152 1.363 . S
N1150 C1152 1.356 . S
N1150 H1162 0.984 . S
N1150 H1163 0.985 . S
N1151 C1153 1.356 1_545 S
N1151 H1156 0.984 . S
N1151 H1157 0.985 . S
C1152 C1146 1.379 . S
C1152 C1149 1.363 . S
C1152 N1150 1.356 . S
C1153 C1147 1.363 . S
C1153 C1148 1.379 . S
C1153 N1151 1.356 1_565 S
N1154 C1146 1.356 . S
N1154 H1160 0.984 . S
N1154 H1161 0.984 . S
N1155 C1148 1.356 1_545 S
N1155 H1158 0.984 1_545 S
N1155 H1159 0.985 . S
H1156 N1151 0.984 . S
H1157 N1151 0.985 . S
H1158 N1155 0.984 1_565 S
H1159 N1155 0.985 . S
H1160 N1154 0.984 . S
H1161 N1154 0.984 . S
H1162 N1150 0.984 . S
H1163 N1150 0.985 . S
C1164 C1165 1.363 . S
C1164 C1170 1.379 . S
C1164 N1172 1.356 . S
C1165 C1164 1.363 . S
C1165 C1171 1.363 . S
C1166 C1167 1.363 . S
C1166 C1171 1.379 . S
C1166 N1173 1.356 . S
C1167 C1166 1.363 . S
C1167 C1170 1.363 . S
N1168 C1170 1.356 . S
N1168 H1180 0.984 . S
N1168 H1181 0.985 . S
N1169 C1171 1.356 . S
N1169 H1174 0.984 . S
N1169 H1175 0.985 . S
C1170 C1164 1.379 . S
C1170 C1167 1.363 . S
C1170 N1168 1.356 . S
C1171 C1165 1.363 . S
C1171 C1166 1.379 . S
C1171 N1169 1.356 . S
N1172 C1164 1.356 . S
N1172 H1178 0.984 . S
N1172 H1179 0.984 . S
N1173 C1166 1.356 . S
N1173 H1176 0.984 . S
N1173 H1177 0.985 . S
H1174 N1169 0.984 . S
H1175 N1169 0.985 . S
H1176 N1173 0.984 . S
H1177 N1173 0.985 . S
H1178 N1172 0.984 . S
H1179 N1172 0.984 . S
H1180 N1168 0.984 . S
H1181 N1168 0.985 . S
C1182 C1183 1.363 . S
C1182 C1188 1.379 . S
C1182 N1190 1.356 . S
C1183 C1182 1.363 . S
C1183 C1189 1.363 . S
C1184 C1185 1.363 . S
C1184 C1189 1.379 . S
C1184 N1191 1.356 . S
C1185 C1184 1.363 . S
C1185 C1188 1.363 . S
N1186 C1188 1.356 . S
N1186 H1198 0.984 . S
N1186 H1199 0.985 . S
N1187 C1189 1.356 . S
N1187 H1192 0.984 . S
N1187 H1193 0.985 . S
C1188 C1182 1.379 . S
C1188 C1185 1.363 . S
C1188 N1186 1.356 . S
C1189 C1183 1.363 . S
C1189 C1184 1.379 . S
C1189 N1187 1.356 . S
N1190 C1182 1.356 . S
N1190 H1196 0.984 1_455 S
N1190 H1197 0.984 . S
N1191 C1184 1.356 . S
N1191 H1194 0.984 . S
N1191 H1195 0.985 . S
H1192 N1187 0.984 . S
H1193 N1187 0.985 . S
H1194 N1191 0.984 . S
H1195 N1191 0.985 . S
H1196 N1190 0.984 1_655 S
H1197 N1190 0.984 . S
H1198 N1186 0.984 . S
H1199 N1186 0.985 . S
C769 C13 2.016 . S
C771 C113 1.931 . S
C787 C27 1.994 . S
C789 C253 1.870 . S
C807 C341 1.843 . S
C805 C29 1.976 . S
C825 C481 1.904 . S
C823 C54 2.022 . S
C843 C595 1.834 . S
C841 C69 1.984 . S
C861 C665 1.026 . S
C859 C83 2.001 . S
C877 C15 1.999 . S
C879 C323 1.049 . S
C895 C41 1.933 . S
C897 C427 1.364 . S
C915 C541 1.363 . S
C913 C42 1.938 . S
C933 C683 1.853 . S
C931 C57 1.965 . S
C949 C71 2.068 . S
C951 C95 1.104 . S
C969 C199 1.369 . S
C967 C1 1.893 1_655 S
C987 C437 1.816 . S
C985 C12 2.135 1_655 S
C1003 C26 2.163 . S
C1005 C551 1.864 . S
C1023 C709 1.325 . S
C1021 C28 2.215 . S
C1039 C55 2.058 . S
C1041 C85 1.933 . S
C1057 C68 2.254 . S
C1059 C209 1.902 . S
C1075 C82 2.056 . S
C1077 C313 1.938 . S
C1093 C14 2.110 . S
C1095 C655 1.967 . S
C1113 C139 1.282 . S
C1111 C40 2.144 . S
C1129 C43 2.143 . S
C1131 C227 1.395 . S
C1147 C56 2.158 . S
C1149 C367 1.248 . S
C1165 C70 2.088 . S
C1167 C455 1.373 . S
C1183 C0 2.154 . S
C1185 C569 1.448 . S
