# Generated by pormake.
# Topology dag, (6,3)-cn, num edge types: 1
# Building blocks:
#     Node 0, Type 0, BuildingBlock: MIDCAF_clean_sbu_0, # of connection points: 6
#     Node 1, Type 0, BuildingBlock: MIDCAF_clean_sbu_0, # of connection points: 6
#     Node 2, Type 0, BuildingBlock: MIDCAF_clean_sbu_0, # of connection points: 6
#     Node 3, Type 0, BuildingBlock: MIDCAF_clean_sbu_0, # of connection points: 6
#     Node 4, Type 1, BuildingBlock: BETDAH_clean_linker_0, # of connection points: 3
#     Node 5, Type 1, BuildingBlock: BETDAH_clean_linker_0, # of connection points: 3
#     Node 6, Type 1, BuildingBlock: BETDAH_clean_linker_0, # of connection points: 3
#     Node 7, Type 1, BuildingBlock: BETDAH_clean_linker_0, # of connection points: 3
#     Node 8, Type 1, BuildingBlock: BETDAH_clean_linker_0, # of connection points: 3
#     Node 9, Type 1, BuildingBlock: BETDAH_clean_linker_0, # of connection points: 3
#     Node 10, Type 1, BuildingBlock: BETDAH_clean_linker_0, # of connection points: 3
#     Node 11, Type 1, BuildingBlock: BETDAH_clean_linker_0, # of connection points: 3
#     Edge 12, Type (0, 1), BuildingBlock: EZIPEK_clean_linker_0, # of connection points: 2
#     Edge 13, Type (0, 1), BuildingBlock: EZIPEK_clean_linker_0, # of connection points: 2
#     Edge 14, Type (0, 1), BuildingBlock: EZIPEK_clean_linker_0, # of connection points: 2
#     Edge 15, Type (0, 1), BuildingBlock: EZIPEK_clean_linker_0, # of connection points: 2
#     Edge 16, Type (0, 1), BuildingBlock: EZIPEK_clean_linker_0, # of connection points: 2
#     Edge 17, Type (0, 1), BuildingBlock: EZIPEK_clean_linker_0, # of connection points: 2
#     Edge 18, Type (0, 1), BuildingBlock: EZIPEK_clean_linker_0, # of connection points: 2
#     Edge 19, Type (0, 1), BuildingBlock: EZIPEK_clean_linker_0, # of connection points: 2
#     Edge 20, Type (0, 1), BuildingBlock: EZIPEK_clean_linker_0, # of connection points: 2
#     Edge 21, Type (0, 1), BuildingBlock: EZIPEK_clean_linker_0, # of connection points: 2
#     Edge 22, Type (0, 1), BuildingBlock: EZIPEK_clean_linker_0, # of connection points: 2
#     Edge 23, Type (0, 1), BuildingBlock: EZIPEK_clean_linker_0, # of connection points: 2
#     Edge 24, Type (0, 1), BuildingBlock: EZIPEK_clean_linker_0, # of connection points: 2
#     Edge 25, Type (0, 1), BuildingBlock: EZIPEK_clean_linker_0, # of connection points: 2
#     Edge 26, Type (0, 1), BuildingBlock: EZIPEK_clean_linker_0, # of connection points: 2
#     Edge 27, Type (0, 1), BuildingBlock: EZIPEK_clean_linker_0, # of connection points: 2
#     Edge 28, Type (0, 1), BuildingBlock: EZIPEK_clean_linker_0, # of connection points: 2
#     Edge 29, Type (0, 1), BuildingBlock: EZIPEK_clean_linker_0, # of connection points: 2
#     Edge 30, Type (0, 1), BuildingBlock: EZIPEK_clean_linker_0, # of connection points: 2
#     Edge 31, Type (0, 1), BuildingBlock: EZIPEK_clean_linker_0, # of connection points: 2
#     Edge 32, Type (0, 1), BuildingBlock: EZIPEK_clean_linker_0, # of connection points: 2
#     Edge 33, Type (0, 1), BuildingBlock: EZIPEK_clean_linker_0, # of connection points: 2
#     Edge 34, Type (0, 1), BuildingBlock: EZIPEK_clean_linker_0, # of connection points: 2
#     Edge 35, Type (0, 1), BuildingBlock: EZIPEK_clean_linker_0, # of connection points: 2
# Relax obj value: 0.129
# Max RMSD: 0.142
# Mean RMSD: 0.115
data_MOF--net-dag--node1-MIDCAF_clean_sbu_0--node2-BETDAH_clean_linker_0--edge1-EZIPEK_clean_linker_0
_symmetry_space_group_name_H-M    P1
_symmetry_Int_Tables_number       1
_symmetry_cell_setting            triclinic
loop_
_symmetry_equiv_pos_as_xyz
'x, y, z'
_cell_length_a     29.053622
_cell_length_b     30.377236
_cell_length_c     23.06367
_cell_angle_alpha  93.070929
_cell_angle_beta   90.11692
_cell_angle_gamma 89.938189
loop_
_atom_site_label
_atom_site_type_symbol
_atom_site_fract_x
_atom_site_fract_y
_atom_site_fract_z
_atom_type_partial_charge
Zn0 Zn 0.16995 0.83943 0.16878 0.0
Zn1 Zn 0.22025 0.91123 0.98434 0.0
Zn2 Zn 0.19313 0.88017 0.07866 0.0
C3 C 0.22835 0.97965 0.06644 0.0
C4 C 0.1284 0.89203 0.96716 0.0
O5 O 0.23692 0.82041 0.08788 0.0
O6 O 0.21258 0.78984 0.1673 0.0
C7 C 0.19693 0.92524 0.2084 0.0
O8 O 0.21434 0.94963 0.09977 0.0
O9 O 0.23633 0.97007 0.01357 0.0
O10 O 0.1621 0.90705 0.94023 0.0
O11 O 0.133 0.8808 0.01995 0.0
O12 O 0.18215 0.88895 0.22472 0.0
O13 O 0.20453 0.9293 0.15371 0.0
O14 O 0.11882 0.8656 0.07334 0.0
O15 O 0.10447 0.82792 0.15084 0.0
C16 C 0.09065 0.84505 0.10537 0.0
O17 O 0.24373 0.83536 0.0319 0.0
O18 O 0.26728 0.87003 0.95556 0.0
C19 C 0.23964 0.79 0.12475 0.0
C20 C 0.26695 0.8359 0.98425 0.0
Zn21 Zn 0.6431 0.66482 0.38422 0.0
Zn22 Zn 0.66927 0.6413 0.60152 0.0
Zn23 Zn 0.6576 0.64692 0.48964 0.0
C24 C 0.68464 0.55706 0.54357 0.0
C25 C 0.57979 0.66463 0.59143 0.0
O26 O 0.70655 0.69854 0.46167 0.0
O27 O 0.68151 0.71623 0.37542 0.0
C28 C 0.66884 0.57643 0.38226 0.0
O29 O 0.67855 0.57818 0.49729 0.0
O30 O 0.6811 0.57678 0.59304 0.0
O31 O 0.60899 0.66126 0.63145 0.0
O32 O 0.59228 0.66022 0.53776 0.0
O33 O 0.66501 0.60741 0.34815 0.0
O34 O 0.66751 0.58481 0.43757 0.0
O35 O 0.58323 0.65971 0.47808 0.0
O36 O 0.57557 0.67155 0.38495 0.0
C37 C 0.55754 0.66572 0.43358 0.0
O38 O 0.71369 0.69229 0.521 0.0
O39 O 0.72171 0.681 0.61463 0.0
C40 C 0.70991 0.72163 0.41652 0.0
C41 C 0.73389 0.70045 0.5703 0.0
Zn42 Zn 0.84533 0.12519 0.90311 0.0
Zn43 Zn 0.79222 0.13271 0.11377 0.0
Zn44 Zn 0.82049 0.12566 0.00791 0.0
C45 C 0.88903 0.13599 0.1165 0.0
C46 C 0.77244 0.04827 0.07648 0.0
O47 O 0.7764 0.17285 0.96151 0.0
O48 O 0.79955 0.16315 0.87034 0.0
C49 C 0.92254 0.14944 0.96078 0.0
O50 O 0.88337 0.13688 0.06113 0.0
O51 O 0.85473 0.13334 0.14957 0.0
O52 O 0.75793 0.07607 0.11482 0.0
O53 O 0.79617 0.06103 0.03334 0.0
O54 O 0.90843 0.14684 0.90906 0.0
O55 O 0.89509 0.14177 1.00298 0.0
O56 O 0.80715 0.05726 0.97186 0.0
O57 O 0.83752 0.06218 0.88476 0.0
C58 C 0.8184 0.0394 0.92193 0.0
O59 O 0.76827 0.17984 0.02059 0.0
O60 O 0.75697 0.1875 0.11552 0.0
C61 C 0.77289 0.18119 0.90741 0.0
C62 C 0.74934 0.19996 0.06521 0.0
Zn63 Zn 0.33215 0.36958 0.66545 0.0
Zn64 Zn 0.30502 0.3054 0.45896 0.0
Zn65 Zn 0.31651 0.34291 0.56175 0.0
C66 C 0.39919 0.31093 0.4754 0.0
C67 C 0.28129 0.39414 0.45226 0.0
O68 O 0.27136 0.30529 0.62028 0.0
O69 O 0.28527 0.33827 0.70638 0.0
C70 C 0.41492 0.33971 0.63177 0.0
O71 O 0.3848 0.32557 0.5256 0.0
O72 O 0.37088 0.2963 0.43755 0.0
O73 O 0.27594 0.35761 0.42421 0.0
O74 O 0.29514 0.39521 0.5054 0.0
O75 O 0.39608 0.35213 0.679 0.0
O76 O 0.39068 0.33522 0.58488 0.0
O77 O 0.2964 0.41343 0.56487 0.0
O78 O 0.31976 0.43203 0.65408 0.0
C79 C 0.30238 0.44273 0.60667 0.0
O80 O 0.26438 0.2887 0.56279 0.0
O81 O 0.26507 0.25579 0.47476 0.0
C82 C 0.26376 0.30978 0.6754 0.0
C83 C 0.24916 0.25885 0.5256 0.0
H84 H 0.08405 0.06407 0.21586 0.0
H85 H 0.13503 0.09599 0.38763 0.0
H86 H 0.01017 0.15582 0.32884 0.0
C87 C 0.08204 0.08374 0.25623 0.0
C88 C 0.04476 0.11254 0.26569 0.0
C89 C 0.11464 0.07771 0.30005 0.0
C90 C 0.11051 0.10168 0.35357 0.0
C91 C 0.07236 0.1295 0.36443 0.0
C92 C 0.0398 0.13476 0.32032 0.0
N93 N 0.06387 0.14998 0.42024 0.0
C94 C 0.09815 0.1615 0.46042 0.0
H95 H 0.38335 0.60401 0.61066 0.0
H96 H 0.38086 0.73104 0.70117 0.0
H97 H 0.25564 0.65629 0.6793 0.0
C98 C 0.3639 0.63039 0.63275 0.0
C99 C 0.31682 0.62478 0.64373 0.0
C100 C 0.3869 0.66889 0.65196 0.0
C101 C 0.36294 0.70184 0.68424 0.0
C102 C 0.31565 0.69703 0.6943 0.0
C103 C 0.29225 0.65954 0.67171 0.0
N104 N 0.29135 0.72928 0.7282 0.0
C105 C 0.30084 0.73733 0.78685 0.0
H106 H 0.87884 0.90067 0.07987 0.0
H107 H 0.89858 0.77418 0.14977 0.0
H108 H 0.76431 0.83396 0.15315 0.0
C109 C 0.86436 0.87139 0.09721 0.0
C110 C 0.81769 0.87059 0.11218 0.0
C111 C 0.8938 0.83696 0.11057 0.0
C112 C 0.87589 0.80051 0.13756 0.0
C113 C 0.82928 0.79928 0.15245 0.0
C114 C 0.79992 0.8341 0.13929 0.0
N115 N 0.81313 0.76458 0.185 0.0
C116 C 0.80611 0.77087 0.24433 0.0
H117 H 0.60833 0.39714 0.58239 0.0
H118 H 0.62938 0.28056 0.67561 0.0
H119 H 0.7459 0.34981 0.60966 0.0
C120 C 0.6317 0.37278 0.59872 0.0
C121 C 0.6794 0.37859 0.59383 0.0
C122 C 0.61349 0.33683 0.62624 0.0
C123 C 0.64335 0.30716 0.65163 0.0
C124 C 0.69125 0.31216 0.64603 0.0
C125 C 0.70898 0.34636 0.61427 0.0
N126 N 0.72233 0.28472 0.67451 0.0
C127 C 0.71384 0.27034 0.7296 0.0
H128 H 0.58231 0.40447 0.38871 0.0
H129 H 0.63515 0.39252 0.21505 0.0
H130 H 0.52816 0.30576 0.26797 0.0
C131 C 0.58496 0.38609 0.34734 0.0
C132 C 0.55407 0.35152 0.33496 0.0
C133 C 0.61407 0.40123 0.3043 0.0
C134 C 0.61464 0.37933 0.24907 0.0
C135 C 0.58378 0.34451 0.23599 0.0
C136 C 0.55342 0.3311 0.27891 0.0
N137 N 0.57788 0.32676 0.17832 0.0
C138 C 0.614 0.31535 0.14102 0.0
H139 H 0.12351 0.11685 0.02614 0.0
H140 H 0.12416 0.23314 0.92992 0.0
H141 H 0.24775 0.19382 0.01651 0.0
C142 C 0.14214 0.14524 0.01187 0.0
C143 C 0.18927 0.15045 0.02455 0.0
C144 C 0.11811 0.17628 0.98127 0.0
C145 C 0.14212 0.21059 0.95697 0.0
C146 C 0.18941 0.21579 0.96795 0.0
C147 C 0.21188 0.18801 1.00571 0.0
N148 N 0.21542 0.24685 0.93844 0.0
C149 C 0.20981 0.25136 0.87917 0.0
H150 H 0.36595 0.56423 0.41113 0.0
H151 H 0.40287 0.63839 0.26553 0.0
H152 H 0.29564 0.54114 0.24888 0.0
C153 C 0.3582 0.57435 0.368 0.0
C154 C 0.32563 0.55076 0.33421 0.0
C155 C 0.38628 0.60598 0.34385 0.0
C156 C 0.37982 0.61567 0.28545 0.0
C157 C 0.34653 0.59276 0.25138 0.0
C158 C 0.31913 0.56078 0.27611 0.0
N159 N 0.34513 0.59647 0.19051 0.0
C160 C 0.33635 0.63619 0.16569 0.0
H161 H 0.92765 0.91714 0.88592 0.0
H162 H 0.993 0.83215 0.75761 0.0
H163 H 0.84636 0.85274 0.74964 0.0
C164 C 0.9247 0.89534 0.84726 0.0
C165 C 0.88188 0.88911 0.81943 0.0
C166 C 0.96406 0.87345 0.827 0.0
C167 C 0.96201 0.84772 0.77496 0.0
C168 C 0.92005 0.84121 0.74565 0.0
C169 C 0.87933 0.85991 0.76983 0.0
N170 N 0.92093 0.81662 0.69153 0.0
C171 C 0.88265 0.80183 0.66002 0.0
C172 C 0.21225 0.00593 0.23827 0.0
C173 C 0.19409 0.96444 0.25088 0.0
C174 C 0.13633 -0.00073 0.31438 0.0
C175 C 0.14788 0.0406 0.29267 0.0
N176 N 0.20406 0.08606 0.24821 0.0
N177 N 0.16405 0.92621 0.33166 0.0
C178 C 0.18884 0.04497 0.25978 0.0
C179 C 0.16417 0.96237 0.29904 0.0
N180 N 0.25266 0.00732 0.20854 0.0
N181 N 0.09762 0.99449 0.34697 0.0
H182 H 0.18847 0.90116 0.32565 0.0
H183 H 0.14476 0.92444 0.36953 0.0
H184 H 0.07611 0.02068 0.35988 0.0
H185 H 0.0853 0.96377 0.35781 0.0
H186 H 0.26977 0.03619 0.19946 0.0
H187 H 0.27054 0.97849 0.19614 0.0
H188 H 0.23237 0.09214 0.22234 0.0
H189 H 0.18783 0.11457 0.26526 0.0
C190 C 0.51228 0.63666 0.6453 0.0
C191 C 0.53041 0.66741 0.60709 0.0
C192 C 0.45385 0.70063 0.59874 0.0
C193 C 0.43702 0.67229 0.64094 0.0
N194 N 0.45343 0.61706 0.71061 0.0
N195 N 0.52065 0.73434 0.55662 0.0
C196 C 0.46714 0.64208 0.66647 0.0
C197 C 0.50182 0.70103 0.58621 0.0
N198 N 0.53757 0.60114 0.66081 0.0
N199 N 0.4239 0.72564 0.56869 0.0
H200 H 0.55573 0.73618 0.54757 0.0
H201 H 0.50221 0.76213 0.54565 0.0
H202 H 0.3886 0.72652 0.57679 0.0
H203 H 0.43357 0.74273 0.53269 0.0
H204 H 0.52502 0.57827 0.68907 0.0
H205 H 0.56933 0.59264 0.64244 0.0
H206 H 0.42124 0.61963 0.73055 0.0
H207 H 0.42124 0.61963 0.73055 0.0
C208 C 0.79818 0.98985 0.14151 0.0
C209 C 0.77398 0.00137 0.09069 0.0
C210 C 0.76722 0.92312 0.05988 0.0
C211 C 0.79163 0.91239 0.11048 0.0
N212 N 0.81585 0.93328 0.20788 0.0
N213 N 0.72735 0.97952 0.00774 0.0
C214 C 0.80152 0.9451 0.1544 0.0
C215 C 0.7555 0.96804 0.05197 0.0
N216 N 0.82195 0.02089 0.17469 0.0
N217 N 0.75704 0.89059 0.01874 0.0
H218 H 0.71864 0.01223 1.00125 0.0
H219 H 0.71017 0.95678 0.98017 0.0
H220 H 0.76378 0.85743 0.02509 0.0
H221 H 0.7439 0.89646 0.97786 0.0
H222 H 0.84458 0.01297 0.20767 0.0
H223 H 0.8235 0.05406 0.16589 0.0
H224 H 0.8193 0.95576 0.24337 0.0
H225 H 0.81967 0.90049 0.21827 0.0
C226 C 0.49155 0.37316 0.65479 0.0
C227 C 0.46578 0.33723 0.62981 0.0
C228 C 0.53761 0.29995 0.60087 0.0
C229 C 0.5628 0.33356 0.63213 0.0
N230 N 0.56275 0.39608 0.7012 0.0
N231 N 0.46434 0.26249 0.58871 0.0
C232 C 0.53935 0.36813 0.66326 0.0
C233 C 0.48877 0.29939 0.60546 0.0
N234 N 0.47102 0.41308 0.66726 0.0
N235 N 0.55996 0.26972 0.56511 0.0
H236 H 0.42863 0.26063 0.5924 0.0
H237 H 0.47989 0.23259 0.57603 0.0
H238 H 0.59566 0.26906 0.56059 0.0
H239 H 0.5428 0.24764 0.5365 0.0
H240 H 0.4895 0.44126 0.68048 0.0
H241 H 0.43663 0.41951 0.65774 0.0
H242 H 0.54633 0.41945 0.72873 0.0
H243 H 0.59787 0.39276 0.70951 0.0
C244 C 0.61403 0.52374 0.33327 0.0
C245 C 0.65834 0.53133 0.35814 0.0
C246 C 0.67762 0.45308 0.33951 0.0
C247 C 0.63361 0.44626 0.31367 0.0
N248 N 0.56538 0.47677 0.27156 0.0
N249 N 0.73442 0.50552 0.37958 0.0
C250 C 0.60382 0.4823 0.30554 0.0
C251 C 0.69098 0.49664 0.35945 0.0
N252 N 0.5804 0.55522 0.33958 0.0
N253 N 0.7058 0.41769 0.34621 0.0
H254 H 0.74439 0.53692 0.39537 0.0
H255 H 0.76119 0.48273 0.37795 0.0
H256 H 0.69729 0.38603 0.32985 0.0
H257 H 0.73636 0.41908 0.3698 0.0
H258 H 0.54638 0.55008 0.32688 0.0
H259 H 0.58496 0.58522 0.3628 0.0
H260 H 0.54516 0.50287 0.25869 0.0
H261 H 0.55601 0.44662 0.25129 0.0
C262 C 0.0029 0.12412 0.94471 0.0
C263 C 0.97224 0.15575 0.97056 0.0
C264 C 0.0374 0.20031 1.00616 0.0
C265 C 0.06769 0.17133 0.97434 0.0
N266 N 0.07884 0.10994 0.90503 0.0
N267 N 0.95933 0.22748 0.01747 0.0
C268 C 0.05027 0.13445 0.94109 0.0
C269 C 0.98914 0.19484 0.99918 0.0
N270 N 0.98684 0.08369 0.92512 0.0
N271 N 0.05461 0.23196 0.0446 0.0
H272 H 0.92368 0.22439 0.01346 0.0
H273 H 0.97008 0.25867 0.03284 0.0
H274 H 0.08977 0.23707 0.05107 0.0
H275 H 0.034 0.25063 0.07351 0.0
H276 H 0.00823 0.05788 0.91067 0.0
H277 H 0.95243 0.07441 0.92866 0.0
H278 H 0.06717 0.08522 0.87559 0.0
H279 H 0.11373 0.11711 0.90052 0.0
C280 C 0.3256 0.43336 0.3784 0.0
C281 C 0.28795 0.43353 0.41789 0.0
C282 C 0.27025 0.51002 0.39636 0.0
C283 C 0.30751 0.50921 0.35647 0.0
N284 N 0.36466 0.46784 0.30038 0.0
N285 N 0.22118 0.46909 0.46019 0.0
C286 C 0.33284 0.46996 0.34418 0.0
C287 C 0.25908 0.47103 0.42543 0.0
N288 N 0.35676 0.39948 0.37664 0.0
N289 N 0.24646 0.5484 0.40711 0.0
H290 H 0.21298 0.44111 0.48241 0.0
H291 H 0.19655 0.49388 0.46477 0.0
H292 H 0.25273 0.5766 0.38442 0.0
H293 H 0.22205 0.55313 0.43978 0.0
H294 H 0.38732 0.39941 0.35327 0.0
H295 H 0.35478 0.37282 0.40286 0.0
H296 H 0.37936 0.43851 0.28394 0.0
H297 H 0.37401 0.49465 0.27673 0.0
C298 C 0.0634 0.92489 0.91375 0.0
C299 C 0.08411 0.88707 0.9361 0.0
C300 C 0.0243 0.84045 0.89018 0.0
C301 C 0.00698 0.87751 0.86201 0.0
N302 N 0.01506 0.9537 0.83899 0.0
N303 N 0.09004 0.80782 0.93602 0.0
C304 C 0.02797 0.91945 0.87157 0.0
C305 C 0.06612 0.8445 0.92189 0.0
N306 N 0.07701 0.96601 0.93383 0.0
N307 N 8e-05 0.80186 0.88855 0.0
H308 H 0.12081 0.80927 0.95937 0.0
H309 H 0.08117 0.77606 0.92069 0.0
H310 H 0.96872 0.79764 0.86693 0.0
H311 H 0.00909 0.77533 0.91306 0.0
H312 H 0.06027 0.9948 0.92317 0.0
H313 H 0.1023 0.97111 0.96569 0.0
H314 H 0.03217 0.98384 0.8402 0.0
H315 H 0.99001 0.9506 0.80656 0.0
C316 C 0.79659 0.98217 0.84718 0.0
C317 C 0.8114 0.99205 0.90499 0.0
C318 C 0.83929 0.91665 0.90671 0.0
C319 C 0.84174 0.91423 0.84533 0.0
N320 N 0.81921 0.94688 0.75556 0.0
N321 N 0.85325 0.96755 0.98816 0.0
C322 C 0.81786 0.94669 0.81466 0.0
C323 C 0.83293 0.95849 0.9356 0.0
N324 N 0.76522 0.0089 0.82249 0.0
N325 N 0.84938 0.88038 0.93658 0.0
H326 H 0.85182 -0.00175 0.01022 0.0
H327 H 0.87545 0.94534 1.00666 0.0
H328 H 0.85557 0.84976 0.91518 0.0
H329 H 0.84751 0.88049 0.98162 0.0
H330 H 0.75118 0.00186 0.7814 0.0
H331 H 0.75018 0.03547 0.84611 0.0
H332 H 0.80669 0.97305 0.73266 0.0
H333 H 0.83523 0.92267 0.72934 0.0
C334 C 0.47572 0.28744 0.43346 0.0
C335 C 0.44622 0.32155 0.45544 0.0
C336 C 0.4872 0.37479 0.39884 0.0
C337 C 0.51812 0.34121 0.37839 0.0
N338 N 0.54905 0.26828 0.38851 0.0
N339 N 0.43421 0.40007 0.47376 0.0
C340 C 0.51473 0.29828 0.39966 0.0
C341 C 0.45589 0.36603 0.44375 0.0
N342 N 0.46576 0.24463 0.44366 0.0
N343 N 0.48509 0.41405 0.37248 0.0
H344 H 0.4102 0.39581 0.50632 0.0
H345 H 0.44359 0.43293 0.47024 0.0
H346 H 0.50445 0.42076 0.33604 0.0
H347 H 0.46029 0.43807 0.38239 0.0
H348 H 0.48286 0.21787 0.42345 0.0
H349 H 0.43872 0.23604 0.47057 0.0
H350 H 0.55049 0.2379 0.40735 0.0
H351 H 0.57833 0.27547 0.36469 0.0
C352 C 0.26494 0.052 0.05864 0.0
C353 C 0.22991 0.0273 0.08431 0.0
C354 C 0.1876 0.096 0.10113 0.0
C355 C 0.21282 0.11498 0.05632 0.0
N356 N 0.2765 0.10606 0.98781 0.0
N357 N 0.15301 0.02779 0.12561 0.0
C358 C 0.25297 0.09259 0.03487 0.0
C359 C 0.1903 0.04989 0.10632 0.0
N360 N 0.30789 0.03443 0.05179 0.0
N361 N 0.15816 0.12132 0.13463 0.0
H362 H 0.15222 0.99401 0.13029 0.0
H363 H 0.12136 0.04331 0.13261 0.0
H364 H 0.1562 0.15545 0.13145 0.0
H365 H 0.13933 0.1088 0.16833 0.0
H366 H 0.33539 0.0521 0.03565 0.0
H367 H 0.31632 0.00398 0.06802 0.0
H368 H 0.30326 0.08765 0.96862 0.0
H369 H 0.26673 0.13244 0.96377 0.0
C370 C 0.4964 0.60932 0.4339 0.0
C371 C 0.50792 0.65459 0.43361 0.0
C372 C 0.43294 0.66923 0.38934 0.0
C373 C 0.42705 0.62322 0.37729 0.0
N374 N 0.4588 0.54947 0.37993 0.0
N375 N 0.48694 0.72859 0.41276 0.0
C376 C 0.45998 0.59311 0.39802 0.0
C377 C 0.47572 0.68497 0.41251 0.0
N378 N 0.52124 0.58136 0.46631 0.0
N379 N 0.3977 0.69762 0.37926 0.0
H380 H 0.51718 0.74091 0.43203 0.0
H381 H 0.46742 0.75187 0.39202 0.0
H382 H 0.36584 0.68695 0.363 0.0
H383 H 0.39866 0.73105 0.39187 0.0
H384 H 0.51171 0.54871 0.47122 0.0
H385 H 0.54791 0.59186 0.49379 0.0
H386 H 0.48414 0.52694 0.3905 0.0
H387 H 0.43576 0.53655 0.34883 0.0
C388 C 0.26606 0.50944 0.65207 0.0
C389 C 0.28887 0.48956 0.60305 0.0
C390 C 0.30428 0.56311 0.57088 0.0
C391 C 0.29566 0.58115 0.62733 0.0
N392 N 0.27036 0.56881 0.72546 0.0
N393 N 0.33606 0.49941 0.51841 0.0
C394 C 0.27582 0.55404 0.66893 0.0
C395 C 0.30847 0.51674 0.56161 0.0
N396 N 0.23726 0.4849 0.68405 0.0
N397 N 0.31098 0.59138 0.52805 0.0
H398 H 0.34331 0.46591 0.51294 0.0
H399 H 0.35527 0.51894 0.49168 0.0
H400 H 0.31479 0.58113 0.48454 0.0
H401 H 0.31479 0.58113 0.48454 0.0
H402 H 0.21745 0.49854 0.71813 0.0
H403 H 0.22983 0.45201 0.67207 0.0
H404 H 0.26037 0.54821 0.75789 0.0
H405 H 0.27975 0.60018 0.74141 0.0
C406 C 0.01752 0.81022 0.06801 0.0
C407 C 0.04075 0.84682 0.09499 0.0
C408 C 0.96818 0.87675 0.13256 0.0
C409 C 0.94425 0.84158 0.10257 0.0
N410 N 0.94511 0.7811 0.03035 0.0
N411 N 0.03782 0.92032 0.13981 0.0
C412 C 0.96863 0.81025 0.06651 0.0
C413 C 0.0158 0.88211 0.12233 0.0
N414 N 0.04207 0.77485 0.04587 0.0
N415 N 0.94645 0.903 0.17409 0.0
H416 H 0.07302 0.92508 0.13381 0.0
H417 H 0.02041 0.94866 0.15494 0.0
H418 H 0.91236 0.89848 0.18636 0.0
H419 H 0.96363 0.92624 0.201 0.0
H420 H 0.02688 0.74526 0.03119 0.0
H421 H 0.07798 0.77424 0.04556 0.0
H422 H 0.96115 0.75981 0.99978 0.0
H423 H 0.90928 0.78104 0.02722 0.0
C424 C 0.72787 0.49428 0.58203 0.0
C425 C 0.69522 0.50922 0.54169 0.0
C426 C 0.67572 0.43257 0.51707 0.0
C427 C 0.69631 0.41994 0.56918 0.0
N428 N 0.74032 0.44221 0.6556 0.0
N429 N 0.63109 0.49047 0.47749 0.0
C430 C 0.72308 0.45132 0.60243 0.0
C431 C 0.66791 0.47786 0.50948 0.0
N432 N 0.76227 0.5216 0.60219 0.0
N433 N 0.66086 0.40114 0.47712 0.0
H434 H 0.62027 0.52304 0.47606 0.0
H435 H 0.60833 0.46784 0.45755 0.0
H436 H 0.66617 0.36755 0.48218 0.0
H437 H 0.64835 0.40917 0.43689 0.0
H438 H 0.78874 0.51108 0.62877 0.0
H439 H 0.76689 0.55304 0.58689 0.0
H440 H 0.75579 0.46616 0.68322 0.0
H441 H 0.73572 0.41232 0.67471 0.0
C442 C 0.94739 0.0866 0.15733 0.0
C443 C 0.93517 0.12968 0.14223 0.0
C444 C 0.00228 0.1592 0.19569 0.0
C445 C 0.00915 0.11752 0.21965 0.0
N446 N 0.98402 0.04221 0.22817 0.0
N447 N 0.94859 0.20788 0.14986 0.0
C448 C 0.98098 0.08113 0.20122 0.0
C449 C 0.96225 0.16628 0.16164 0.0
N450 N 0.92643 0.05092 0.13002 0.0
N451 N 0.03435 0.19171 0.20474 0.0
H452 H 0.91966 0.21391 0.12457 0.0
H453 H 0.96416 0.23626 0.16802 0.0
H454 H 0.06438 0.18729 0.22865 0.0
H455 H 0.03335 0.22132 0.18399 0.0
H456 H 0.93677 0.01853 0.13532 0.0
H457 H 0.90166 0.05398 0.09761 0.0
H458 H 0.96097 0.01629 0.22059 0.0
H459 H 0.00676 0.03711 0.26217 0.0
C460 C 0.31672 0.75552 0.13598 0.0
C461 C 0.27078 0.75197 0.11569 0.0
C462 C 0.2777 0.67166 0.10738 0.0
C463 C 0.31918 0.67519 0.13937 0.0
N464 N 0.38156 0.71885 0.17983 0.0
N465 N 0.20679 0.70739 0.08083 0.0
C466 C 0.34022 0.71669 0.15151 0.0
C467 C 0.25139 0.71022 0.0997 0.0
N468 N 0.33711 0.79603 0.14139 0.0
N469 N 0.26337 0.63136 0.08507 0.0
H470 H 0.18667 0.73509 0.07396 0.0
H471 H 0.18884 0.67783 0.07514 0.0
H472 H 0.28223 0.60256 0.0903 0.0
H473 H 0.23546 0.62704 0.05696 0.0
H474 H 0.37158 0.80093 0.15222 0.0
H475 H 0.32016 0.82469 0.13023 0.0
H476 H 0.39662 0.7481 0.19589 0.0
H477 H 0.40033 0.69069 0.18874 0.0
C478 C 0.76852 0.77528 0.58703 0.0
C479 C 0.77463 0.72933 0.57588 0.0
C480 C 0.85582 0.73564 0.60356 0.0
C481 C 0.84742 0.77952 0.62475 0.0
N482 N 0.79879 0.84368 0.63194 0.0
N483 N 0.8234 0.66507 0.5708 0.0
C484 C 0.80476 0.80038 0.61432 0.0
C485 C 0.81838 0.70947 0.58235 0.0
N486 N 0.72791 0.79439 0.57201 0.0
N487 N 0.89969 0.71921 0.60341 0.0
H488 H 0.79727 0.64539 0.55223 0.0
H489 H 0.85255 0.64734 0.58169 0.0
H490 H 0.92789 0.73765 0.61878 0.0
H491 H 0.90892 0.68892 0.58356 0.0
H492 H 0.72174 0.82816 0.57518 0.0
H493 H 0.70113 0.77632 0.55214 0.0
H494 H 0.76737 0.86009 0.63139 0.0
H495 H 0.82574 0.86324 0.64856 0.0
C496 C 0.6702 0.22679 0.04629 0.0
C497 C 0.71669 0.2368 0.05979 0.0
C498 C 0.69377 0.30878 0.10337 0.0
C499 C 0.64764 0.29412 0.10223 0.0
N500 N 0.58955 0.24375 0.06492 0.0
N501 N 0.77453 0.28884 0.09247 0.0
C502 C 0.63502 0.25492 0.06999 0.0
C503 C 0.72904 0.27884 0.08456 0.0
N504 N 0.66004 0.18967 0.01268 0.0
N505 N 0.70341 0.35109 0.12239 0.0
H506 H 0.80064 0.26803 0.07616 0.0
H507 H 0.78643 0.31681 0.11582 0.0
H508 H 0.67739 0.3736 0.13366 0.0
H509 H 0.73609 0.36502 0.12177 0.0
H510 H 0.62722 0.18153 0.9976 0.0
H511 H 0.68548 0.16834 0.9961 0.0
H512 H 0.5777 0.21355 0.04753 0.0
H513 H 0.56318 0.26492 0.07946 0.0
C514 C 0.24961 0.24105 0.72524 0.0
C515 C 0.23205 0.28126 0.70622 0.0
C516 C 0.1847 0.29113 0.79346 0.0
C517 C 0.20865 0.25554 0.81678 0.0
N518 N 0.25076 0.18786 0.80067 0.0
N519 N 0.17268 0.33583 0.70997 0.0
C520 C 0.2364 0.22718 0.78081 0.0
C521 C 0.19527 0.30279 0.73608 0.0
N522 N 0.2816 0.21852 0.69206 0.0
N523 N 0.15395 0.31483 0.82732 0.0
H524 H 0.18119 0.34435 0.66803 0.0
H525 H 0.14421 0.35248 0.72748 0.0
H526 H 0.14482 0.30565 0.86874 0.0
H527 H 0.13791 0.34354 0.81514 0.0
H528 H 0.29976 0.19127 0.70527 0.0
H529 H 0.29026 0.22795 0.65064 0.0
H530 H 0.26915 0.16431 0.77583 0.0
H531 H 0.24107 0.17742 0.8413 0.0
C532 C 0.74086 0.79017 0.38229 0.0
C533 C 0.75055 0.74903 0.40526 0.0
C534 C 0.81586 0.73903 0.33941 0.0
C535 C 0.79669 0.77215 0.30602 0.0
N536 N 0.74942 0.83672 0.3003 0.0
N537 N 0.80498 0.69107 0.41942 0.0
C538 C 0.76257 0.80099 0.32977 0.0
C539 C 0.79176 0.72654 0.38956 0.0
N540 N 0.70829 0.81648 0.40888 0.0
N541 N 0.85589 0.71894 0.32166 0.0
H542 H 0.78843 0.68288 0.4573 0.0
H543 H 0.83206 0.67012 0.40745 0.0
H544 H 0.87363 0.72839 0.285 0.0
H545 H 0.87314 0.69549 0.34475 0.0
H546 H 0.69967 0.84778 0.39614 0.0
H547 H 0.6921 0.80722 0.44677 0.0
H548 H 0.72213 0.85734 0.31251 0.0
H549 H 0.76637 0.8455 0.26279 0.0
C550 C 0.70439 0.19157 0.84773 0.0
C551 C 0.73784 0.21111 0.88548 0.0
C552 C 0.73467 0.27884 0.83327 0.0
C553 C 0.71121 0.25497 0.78786 0.0
N554 N 0.66518 0.19299 0.75446 0.0
N555 N 0.77782 0.2752 0.92364 0.0
C556 C 0.69225 0.213 0.79659 0.0
C557 C 0.74955 0.25603 0.88225 0.0
N558 N 0.68685 0.15141 0.8598 0.0
N559 N 0.74373 0.32258 0.82817 0.0
H560 H 0.78774 0.25866 0.96017 0.0
H561 H 0.79159 0.30669 0.92195 0.0
H562 H 0.73265 0.33943 0.79237 0.0
H563 H 0.75905 0.34278 0.86052 0.0
H564 H 0.66102 0.13523 0.83579 0.0
H565 H 0.69668 0.13562 0.89702 0.0
H566 H 0.65313 0.16081 0.75537 0.0
H567 H 0.65503 0.20902 0.71759 0.0
C568 C 0.16437 0.25123 0.53819 0.0
C569 C 0.20865 0.23131 0.53749 0.0
C570 C 0.17469 0.15956 0.50866 0.0
C571 C 0.13249 0.18132 0.49951 0.0
N572 N 0.08176 0.24154 0.52549 0.0
N573 N 0.25529 0.1662 0.53781 0.0
C574 C 0.12553 0.22511 0.52146 0.0
C575 C 0.21332 0.18497 0.52874 0.0
N576 N 0.16007 0.29566 0.54959 0.0
N577 N 0.17746 0.11506 0.49725 0.0
H578 H 0.28326 0.18483 0.5536 0.0
H579 H 0.26228 0.13268 0.53222 0.0
H580 H 0.14832 0.09613 0.48694 0.0
H581 H 0.20749 0.09664 0.49978 0.0
H582 H 0.12987 0.31323 0.54334 0.0
H583 H 0.18736 0.3156 0.56385 0.0
H584 H 0.07351 0.27206 0.54541 0.0
H585 H 0.053 0.22256 0.51345 0.0
C586 C 0.25318 0.76214 0.93307 0.0
C587 C 0.28487 0.79502 0.95428 0.0
C588 C 0.33675 0.77638 0.87308 0.0
C589 C 0.3025 0.74791 0.84889 0.0
N590 N 0.23902 0.69971 0.86509 0.0
N591 N 0.36243 0.8217 0.95732 0.0
C592 C 0.26468 0.73568 0.8826 0.0
C593 C 0.32904 0.79749 0.92881 0.0
N594 N 0.21028 0.75927 0.95666 0.0
N595 N 0.37516 0.78479 0.84156 0.0
H596 H 0.35645 0.83712 0.99821 0.0
H597 H 0.39636 0.82328 0.94319 0.0
H598 H 0.38193 0.76821 0.80166 0.0
H599 H 0.39939 0.8087 0.85398 0.0
H600 H 0.1839 0.74027 0.93766 0.0
H601 H 0.19985 0.77743 0.99372 0.0
H602 H 0.21323 0.68673 0.89043 0.0
H603 H 0.24703 0.68025 0.82774 0.0
loop_
_geom_bond_atom_site_label_1
_geom_bond_atom_site_label_2
_geom_bond_distance
_geom_bond_site_symmetry_2
_ccdc_geom_bond_type
Zn0 O6 1.920 . S
Zn0 O12 1.898 . S
Zn0 O15 1.905 . S
Zn1 O9 1.905 . S
Zn1 O10 1.898 . S
Zn1 O18 1.920 . S
Zn2 O5 2.080 . S
Zn2 O8 2.114 1_554 S
Zn2 O11 2.120 1_554 S
Zn2 O13 2.120 . S
Zn2 O14 2.114 . S
Zn2 O17 2.080 1_554 S
C3 O8 1.166 . S
C3 O9 1.182 . S
C4 O10 1.167 . S
C4 O11 1.299 . S
O5 Zn2 2.080 . S
O5 C19 1.305 . S
O6 Zn0 1.920 . S
O6 C19 1.234 . S
C7 O12 1.167 . S
C7 O13 1.299 . S
O8 Zn2 2.114 1_556 S
O8 C3 1.166 . S
O9 Zn1 1.905 . S
O9 C3 1.182 . S
O10 Zn1 1.898 . S
O10 C4 1.167 . S
O11 Zn2 2.120 1_556 S
O11 C4 1.299 . S
O12 Zn0 1.898 . S
O12 C7 1.167 . S
O13 Zn2 2.120 . S
O13 C7 1.299 . S
O14 Zn2 2.114 . S
O14 C16 1.166 . S
O15 Zn0 1.905 . S
O15 C16 1.182 . S
C16 O14 1.166 . S
C16 O15 1.182 . S
O17 Zn2 2.080 1_556 S
O17 C20 1.305 . S
O18 Zn1 1.920 . S
O18 C20 1.234 . S
C19 O5 1.305 . S
C19 O6 1.234 . S
C20 O17 1.305 . S
C20 O18 1.234 . S
Zn21 O27 1.920 . S
Zn21 O33 1.898 . S
Zn21 O36 1.905 . S
Zn22 O30 1.905 . S
Zn22 O31 1.898 . S
Zn22 O39 1.920 . S
Zn23 O26 2.080 . S
Zn23 O29 2.114 . S
Zn23 O32 2.120 . S
Zn23 O34 2.120 . S
Zn23 O35 2.114 . S
Zn23 O38 2.080 . S
C24 O29 1.166 . S
C24 O30 1.182 . S
C25 O31 1.167 . S
C25 O32 1.299 . S
O26 Zn23 2.080 . S
O26 C40 1.305 . S
O27 Zn21 1.920 . S
O27 C40 1.234 . S
C28 O33 1.167 . S
C28 O34 1.299 . S
O29 Zn23 2.114 . S
O29 C24 1.166 . S
O30 Zn22 1.905 . S
O30 C24 1.182 . S
O31 Zn22 1.898 . S
O31 C25 1.167 . S
O32 Zn23 2.120 . S
O32 C25 1.299 . S
O33 Zn21 1.898 . S
O33 C28 1.167 . S
O34 Zn23 2.120 . S
O34 C28 1.299 . S
O35 Zn23 2.114 . S
O35 C37 1.166 . S
O36 Zn21 1.905 . S
O36 C37 1.182 . S
C37 O35 1.166 . S
C37 O36 1.182 . S
O38 Zn23 2.080 . S
O38 C41 1.305 . S
O39 Zn22 1.920 . S
O39 C41 1.234 . S
C40 O26 1.305 . S
C40 O27 1.234 . S
C41 O38 1.305 . S
C41 O39 1.234 . S
Zn42 O48 1.920 . S
Zn42 O54 1.898 . S
Zn42 O57 1.905 . S
Zn43 O51 1.905 . S
Zn43 O52 1.898 . S
Zn43 O60 1.920 . S
Zn44 O47 2.079 1_554 S
Zn44 O50 2.115 . S
Zn44 O53 2.121 . S
Zn44 O55 2.119 1_554 S
Zn44 O56 2.113 1_554 S
Zn44 O59 2.082 . S
C45 O50 1.166 . S
C45 O51 1.182 . S
C46 O52 1.167 . S
C46 O53 1.299 . S
O47 Zn44 2.079 1_556 S
O47 C61 1.305 . S
O48 Zn42 1.920 . S
O48 C61 1.234 . S
C49 O54 1.167 . S
C49 O55 1.299 . S
O50 Zn44 2.115 . S
O50 C45 1.166 . S
O51 Zn43 1.905 . S
O51 C45 1.182 . S
O52 Zn43 1.898 . S
O52 C46 1.167 . S
O53 Zn44 2.121 . S
O53 C46 1.299 . S
O54 Zn42 1.898 . S
O54 C49 1.167 . S
O55 Zn44 2.119 1_556 S
O55 C49 1.299 . S
O56 Zn44 2.113 1_556 S
O56 C58 1.166 . S
O57 Zn42 1.905 . S
O57 C58 1.182 . S
C58 O56 1.166 . S
C58 O57 1.182 . S
O59 Zn44 2.082 . S
O59 C62 1.305 . S
O60 Zn43 1.920 . S
O60 C62 1.234 . S
C61 O47 1.305 . S
C61 O48 1.234 . S
C62 O59 1.305 . S
C62 O60 1.234 . S
Zn63 O69 1.920 . S
Zn63 O75 1.898 . S
Zn63 O78 1.905 . S
Zn64 O72 1.905 . S
Zn64 O73 1.898 . S
Zn64 O81 1.920 . S
Zn65 O68 2.080 . S
Zn65 O71 2.114 . S
Zn65 O74 2.120 . S
Zn65 O76 2.120 . S
Zn65 O77 2.114 . S
Zn65 O80 2.080 . S
C66 O71 1.166 . S
C66 O72 1.182 . S
C67 O73 1.167 . S
C67 O74 1.299 . S
O68 Zn65 2.080 . S
O68 C82 1.305 . S
O69 Zn63 1.920 . S
O69 C82 1.234 . S
C70 O75 1.167 . S
C70 O76 1.299 . S
O71 Zn65 2.114 . S
O71 C66 1.166 . S
O72 Zn64 1.905 . S
O72 C66 1.182 . S
O73 Zn64 1.898 . S
O73 C67 1.167 . S
O74 Zn65 2.120 . S
O74 C67 1.299 . S
O75 Zn63 1.898 . S
O75 C70 1.167 . S
O76 Zn65 2.120 . S
O76 C70 1.299 . S
O77 Zn65 2.114 . S
O77 C79 1.166 . S
O78 Zn63 1.905 . S
O78 C79 1.182 . S
C79 O77 1.166 . S
C79 O78 1.182 . S
O80 Zn65 2.080 . S
O80 C83 1.305 . S
O81 Zn64 1.920 . S
O81 C83 1.234 . S
C82 O68 1.305 . S
C82 O69 1.234 . S
C83 O80 1.305 . S
C83 O81 1.234 . S
H84 C87 0.929 . S
H85 C90 0.929 . S
H86 C92 0.930 . S
C87 H84 0.929 . S
C87 C88 1.398 . S
C87 C89 1.396 . S
C88 C87 1.398 . S
C88 C92 1.407 . S
C89 C87 1.396 . S
C89 C90 1.394 . S
C90 H85 0.929 . S
C90 C89 1.394 . S
C90 C91 1.382 . S
C91 C90 1.382 . S
C91 C92 1.392 . S
C91 N93 1.420 . S
C92 H86 0.930 . S
C92 C88 1.407 . S
C92 C91 1.392 . S
N93 C91 1.420 . S
N93 C94 1.244 . S
C94 N93 1.244 . S
H95 C98 0.929 . S
H96 C101 0.929 . S
H97 C103 0.930 . S
C98 H95 0.929 . S
C98 C99 1.398 . S
C98 C100 1.396 . S
C99 C98 1.398 . S
C99 C103 1.407 . S
C100 C98 1.396 . S
C100 C101 1.394 . S
C101 H96 0.929 . S
C101 C100 1.394 . S
C101 C102 1.382 . S
C102 C101 1.382 . S
C102 C103 1.392 . S
C102 N104 1.420 . S
C103 H97 0.930 . S
C103 C99 1.407 . S
C103 C102 1.392 . S
N104 C102 1.420 . S
N104 C105 1.244 . S
C105 N104 1.244 . S
H106 C109 0.929 . S
H107 C112 0.929 . S
H108 C114 0.930 . S
C109 H106 0.929 . S
C109 C110 1.398 . S
C109 C111 1.396 . S
C110 C109 1.398 . S
C110 C114 1.407 . S
C111 C109 1.396 . S
C111 C112 1.394 . S
C112 H107 0.929 . S
C112 C111 1.394 . S
C112 C113 1.382 . S
C113 C112 1.382 . S
C113 C114 1.392 . S
C113 N115 1.420 . S
C114 H108 0.930 . S
C114 C110 1.407 . S
C114 C113 1.392 . S
N115 C113 1.420 . S
N115 C116 1.244 . S
C116 N115 1.244 . S
H117 C120 0.929 . S
H118 C123 0.929 . S
H119 C125 0.930 . S
C120 H117 0.929 . S
C120 C121 1.398 . S
C120 C122 1.396 . S
C121 C120 1.398 . S
C121 C125 1.407 . S
C122 C120 1.396 . S
C122 C123 1.394 . S
C123 H118 0.929 . S
C123 C122 1.394 . S
C123 C124 1.382 . S
C124 C123 1.382 . S
C124 C125 1.392 . S
C124 N126 1.420 . S
C125 H119 0.930 . S
C125 C121 1.407 . S
C125 C124 1.392 . S
N126 C124 1.420 . S
N126 C127 1.244 . S
C127 N126 1.244 . S
H128 C131 0.929 . S
H129 C134 0.929 . S
H130 C136 0.930 . S
C131 H128 0.929 . S
C131 C132 1.398 . S
C131 C133 1.396 . S
C132 C131 1.398 . S
C132 C136 1.407 . S
C133 C131 1.396 . S
C133 C134 1.394 . S
C134 H129 0.929 . S
C134 C133 1.394 . S
C134 C135 1.382 . S
C135 C134 1.382 . S
C135 C136 1.392 . S
C135 N137 1.420 . S
C136 H130 0.930 . S
C136 C132 1.407 . S
C136 C135 1.392 . S
N137 C135 1.420 . S
N137 C138 1.244 . S
C138 N137 1.244 . S
H139 C142 0.929 . S
H140 C145 0.929 . S
H141 C147 0.930 . S
C142 H139 0.929 . S
C142 C143 1.398 . S
C142 C144 1.396 . S
C143 C142 1.398 . S
C143 C147 1.407 . S
C144 C142 1.396 . S
C144 C145 1.394 . S
C145 H140 0.929 . S
C145 C144 1.394 . S
C145 C146 1.382 . S
C146 C145 1.382 . S
C146 C147 1.392 . S
C146 N148 1.420 . S
C147 H141 0.930 . S
C147 C143 1.407 . S
C147 C146 1.392 . S
N148 C146 1.420 . S
N148 C149 1.244 . S
C149 N148 1.244 . S
H150 C153 0.929 . S
H151 C156 0.929 . S
H152 C158 0.930 . S
C153 H150 0.929 . S
C153 C154 1.398 . S
C153 C155 1.396 . S
C154 C153 1.398 . S
C154 C158 1.407 . S
C155 C153 1.396 . S
C155 C156 1.394 . S
C156 H151 0.929 . S
C156 C155 1.394 . S
C156 C157 1.382 . S
C157 C156 1.382 . S
C157 C158 1.392 . S
C157 N159 1.420 . S
C158 H152 0.930 . S
C158 C154 1.407 . S
C158 C157 1.392 . S
N159 C157 1.420 . S
N159 C160 1.244 . S
C160 N159 1.244 . S
H161 C164 0.929 . S
H162 C167 0.929 . S
H163 C169 0.930 . S
C164 H161 0.929 . S
C164 C165 1.398 . S
C164 C166 1.396 . S
C165 C164 1.398 . S
C165 C169 1.407 . S
C166 C164 1.396 . S
C166 C167 1.394 . S
C167 H162 0.929 . S
C167 C166 1.394 . S
C167 C168 1.382 . S
C168 C167 1.382 . S
C168 C169 1.392 . S
C168 N170 1.420 . S
C169 H163 0.930 . S
C169 C165 1.407 . S
C169 C168 1.392 . S
N170 C168 1.420 . S
N170 C171 1.244 . S
C171 N170 1.244 . S
C172 C173 1.363 1_545 S
C172 C178 1.379 . S
C172 N180 1.356 1_545 S
C173 C172 1.363 1_565 S
C173 C179 1.363 . S
C174 C175 1.363 1_565 S
C174 C179 1.379 . S
C174 N181 1.356 . S
C175 C174 1.363 1_545 S
C175 C178 1.363 . S
N176 C178 1.356 . S
N176 H188 0.984 . S
N176 H189 0.985 . S
N177 C179 1.356 . S
N177 H182 0.984 . S
N177 H183 0.985 . S
C178 C172 1.379 . S
C178 C175 1.363 . S
C178 N176 1.356 . S
C179 C173 1.363 . S
C179 C174 1.379 . S
C179 N177 1.356 . S
N180 C172 1.356 1_565 S
N180 H186 0.982 1_565 S
N180 H187 0.988 . S
N181 C174 1.356 . S
N181 H184 0.984 1_565 S
N181 H185 0.985 . S
H182 N177 0.984 . S
H183 N177 0.985 . S
H184 N181 0.984 1_545 S
H185 N181 0.985 . S
H186 N180 0.982 1_545 S
H187 N180 0.988 . S
H188 N176 0.984 . S
H189 N176 0.985 . S
C190 C191 1.363 . S
C190 C196 1.379 . S
C190 N198 1.356 . S
C191 C190 1.363 . S
C191 C197 1.363 . S
C192 C193 1.363 . S
C192 C197 1.379 . S
C192 N199 1.356 . S
C193 C192 1.363 . S
C193 C196 1.363 . S
N194 C196 1.356 . S
N194 H206 0.984 . S
N194 H207 0.985 . S
N195 C197 1.356 . S
N195 H200 0.984 . S
N195 H201 0.985 . S
C196 C190 1.379 . S
C196 C193 1.363 . S
C196 N194 1.356 . S
C197 C191 1.363 . S
C197 C192 1.379 . S
C197 N195 1.356 . S
N198 C190 1.356 . S
N198 H204 0.984 . S
N198 H205 0.984 . S
N199 C192 1.356 . S
N199 H202 0.984 . S
N199 H203 0.985 . S
H200 N195 0.984 . S
H201 N195 0.985 . S
H202 N199 0.984 . S
H203 N199 0.985 . S
H204 N198 0.984 . S
H205 N198 0.984 . S
H206 N194 0.984 . S
H207 N194 0.985 . S
C208 C209 1.363 . S
C208 C214 1.379 1_545 S
C208 N216 1.356 . S
C209 C208 1.363 . S
C209 C215 1.363 . S
C210 C211 1.363 . S
C210 C215 1.379 1_565 S
C210 N217 1.356 . S
C211 C210 1.363 . S
C211 C214 1.363 . S
N212 C214 1.356 . S
N212 H224 0.984 . S
N212 H225 0.985 . S
N213 C215 1.347 1_556 S
N213 H218 0.987 . S
N213 H219 0.991 . S
C214 C208 1.379 1_565 S
C214 C211 1.363 . S
C214 N212 1.356 . S
C215 C209 1.363 . S
C215 C210 1.379 1_545 S
C215 N213 1.347 1_554 S
N216 C208 1.356 . S
N216 H222 0.984 . S
N216 H223 0.984 . S
N217 C210 1.356 . S
N217 H220 0.984 . S
N217 H221 0.985 . S
H218 N213 0.987 . S
H219 N213 0.991 . S
H220 N217 0.984 . S
H221 N217 0.985 . S
H222 N216 0.984 . S
H223 N216 0.984 . S
H224 N212 0.984 . S
H225 N212 0.985 . S
C226 C227 1.363 . S
C226 C232 1.379 . S
C226 N234 1.356 . S
C227 C226 1.363 . S
C227 C233 1.363 . S
C228 C229 1.363 . S
C228 C233 1.379 . S
C228 N235 1.356 . S
C229 C228 1.363 . S
C229 C232 1.363 . S
N230 C232 1.356 . S
N230 H242 0.984 . S
N230 H243 0.985 . S
N231 C233 1.356 . S
N231 H236 0.984 . S
N231 H237 0.985 . S
C232 C226 1.379 . S
C232 C229 1.363 . S
C232 N230 1.356 . S
C233 C227 1.363 . S
C233 C228 1.379 . S
C233 N231 1.356 . S
N234 C226 1.356 . S
N234 H240 0.984 . S
N234 H241 0.984 . S
N235 C228 1.356 . S
N235 H238 0.984 . S
N235 H239 0.985 . S
H236 N231 0.984 . S
H237 N231 0.985 . S
H238 N235 0.984 . S
H239 N235 0.985 . S
H240 N234 0.984 . S
H241 N234 0.984 . S
H242 N230 0.984 . S
H243 N230 0.985 . S
C244 C245 1.363 . S
C244 C250 1.379 . S
C244 N252 1.356 . S
C245 C244 1.363 . S
C245 C251 1.363 . S
C246 C247 1.363 . S
C246 C251 1.379 . S
C246 N253 1.356 . S
C247 C246 1.363 . S
C247 C250 1.363 . S
N248 C250 1.356 . S
N248 H260 0.984 . S
N248 H261 0.985 . S
N249 C251 1.356 . S
N249 H254 0.984 . S
N249 H255 0.985 . S
C250 C244 1.379 . S
C250 C247 1.363 . S
C250 N248 1.356 . S
C251 C245 1.363 . S
C251 C246 1.379 . S
C251 N249 1.356 . S
N252 C244 1.356 . S
N252 H258 0.984 . S
N252 H259 0.984 . S
N253 C246 1.356 . S
N253 H256 0.984 . S
N253 H257 0.985 . S
H254 N249 0.984 . S
H255 N249 0.985 . S
H256 N253 0.984 . S
H257 N253 0.985 . S
H258 N252 0.984 . S
H259 N252 0.984 . S
H260 N248 0.984 . S
H261 N248 0.985 . S
C262 C263 1.363 1_455 S
C262 C268 1.379 . S
C262 N270 1.356 1_455 S
C263 C262 1.363 1_655 S
C263 C269 1.363 1_655 S
C264 C265 1.363 . S
C264 C269 1.379 . S
C264 N271 1.356 . S
C265 C264 1.363 . S
C265 C268 1.363 . S
N266 C268 1.356 . S
N266 H278 0.984 . S
N266 H279 0.985 . S
N267 C269 1.356 1_655 S
N267 H272 0.984 . S
N267 H273 0.985 . S
C268 C262 1.379 . S
C268 C265 1.363 . S
C268 N266 1.356 . S
C269 C263 1.363 1_455 S
C269 C264 1.379 . S
C269 N267 1.356 1_455 S
N270 C262 1.356 1_655 S
N270 H276 0.984 1_655 S
N270 H277 0.984 . S
N271 C264 1.356 . S
N271 H274 0.984 . S
N271 H275 0.985 . S
H272 N267 0.984 . S
H273 N267 0.985 . S
H274 N271 0.984 . S
H275 N271 0.985 . S
H276 N270 0.984 1_455 S
H277 N270 0.984 . S
H278 N266 0.984 . S
H279 N266 0.985 . S
C280 C281 1.363 . S
C280 C286 1.379 . S
C280 N288 1.356 . S
C281 C280 1.363 . S
C281 C287 1.363 . S
C282 C283 1.363 . S
C282 C287 1.379 . S
C282 N289 1.356 . S
C283 C282 1.363 . S
C283 C286 1.363 . S
N284 C286 1.356 . S
N284 H296 0.984 . S
N284 H297 0.985 . S
N285 C287 1.356 . S
N285 H290 0.984 . S
N285 H291 0.985 . S
C286 C280 1.379 . S
C286 C283 1.363 . S
C286 N284 1.356 . S
C287 C281 1.363 . S
C287 C282 1.379 . S
C287 N285 1.356 . S
N288 C280 1.356 . S
N288 H294 0.984 . S
N288 H295 0.984 . S
N289 C282 1.356 . S
N289 H292 0.984 . S
N289 H293 0.985 . S
H290 N285 0.984 . S
H291 N285 0.985 . S
H292 N289 0.984 . S
H293 N289 0.985 . S
H294 N288 0.984 . S
H295 N288 0.984 . S
H296 N284 0.984 . S
H297 N284 0.985 . S
C298 C299 1.363 . S
C298 C304 1.379 . S
C298 N306 1.356 . S
C299 C298 1.363 . S
C299 C305 1.363 . S
C300 C301 1.363 . S
C300 C305 1.379 1_655 S
C300 N307 1.356 . S
C301 C300 1.363 . S
C301 C304 1.363 1_655 S
N302 C304 1.356 1_655 S
N302 H314 0.984 1_655 S
N302 H315 0.985 . S
N303 C305 1.356 . S
N303 H308 0.984 . S
N303 H309 0.987 . S
C304 C298 1.379 . S
C304 C301 1.363 1_455 S
C304 N302 1.356 1_455 S
C305 C299 1.363 . S
C305 C300 1.379 1_455 S
C305 N303 1.356 . S
N306 C298 1.356 . S
N306 H312 0.984 . S
N306 H313 0.984 . S
N307 C300 1.356 . S
N307 H310 0.984 . S
N307 H311 0.985 . S
H308 N303 0.984 . S
H309 N303 0.987 . S
H310 N307 0.984 . S
H311 N307 0.985 . S
H312 N306 0.984 . S
H313 N306 0.984 . S
H314 N302 0.984 1_455 S
H315 N302 0.985 . S
C316 C317 1.363 1_565 S
C316 C322 1.379 . S
C316 N324 1.356 1_565 S
C317 C316 1.363 1_545 S
C317 C323 1.363 1_545 S
C318 C319 1.363 . S
C318 C323 1.379 . S
C318 N325 1.356 . S
C319 C318 1.363 . S
C319 C322 1.363 . S
N320 C322 1.356 . S
N320 H332 0.984 . S
N320 H333 0.985 . S
N321 C323 1.356 . S
N321 H326 0.984 1_565 S
N321 H327 0.985 . S
C322 C316 1.379 . S
C322 C319 1.363 . S
C322 N320 1.356 . S
C323 C317 1.363 1_565 S
C323 C318 1.379 . S
C323 N321 1.356 . S
N324 C316 1.356 1_545 S
N324 H330 0.984 . S
N324 H331 0.984 . S
N325 C318 1.356 . S
N325 H328 0.984 . S
N325 H329 0.985 . S
H326 N321 0.984 1_545 S
H327 N321 0.985 . S
H328 N325 0.984 . S
H329 N325 0.985 . S
H330 N324 0.984 . S
H331 N324 0.984 . S
H332 N320 0.984 . S
H333 N320 0.985 . S
C334 C335 1.363 . S
C334 C340 1.379 . S
C334 N342 1.356 . S
C335 C334 1.363 . S
C335 C341 1.363 . S
C336 C337 1.363 . S
C336 C341 1.379 . S
C336 N343 1.356 . S
C337 C336 1.363 . S
C337 C340 1.363 . S
N338 C340 1.356 . S
N338 H350 0.984 . S
N338 H351 0.985 . S
N339 C341 1.356 . S
N339 H344 0.984 . S
N339 H345 0.985 . S
C340 C334 1.379 . S
C340 C337 1.363 . S
C340 N338 1.356 . S
C341 C335 1.363 . S
C341 C336 1.379 . S
C341 N339 1.356 . S
N342 C334 1.356 . S
N342 H348 0.984 . S
N342 H349 0.984 . S
N343 C336 1.356 . S
N343 H346 0.984 . S
N343 H347 0.985 . S
H344 N339 0.984 . S
H345 N339 0.985 . S
H346 N343 0.984 . S
H347 N343 0.985 . S
H348 N342 0.984 . S
H349 N342 0.984 . S
H350 N338 0.984 . S
H351 N338 0.985 . S
C352 C353 1.361 1_545 S
C352 C358 1.379 . S
C352 N360 1.356 1_545 S
C353 C352 1.361 1_565 S
C353 C359 1.351 1_565 S
C354 C355 1.363 . S
C354 C359 1.379 . S
C354 N361 1.356 . S
C355 C354 1.363 . S
C355 C358 1.363 . S
N356 C358 1.356 . S
N356 H368 0.984 . S
N356 H369 0.985 . S
N357 C359 1.356 1_554 S
N357 H362 0.984 1_545 S
N357 H363 0.985 . S
C358 C352 1.379 . S
C358 C355 1.363 . S
C358 N356 1.356 . S
C359 C353 1.351 1_545 S
C359 C354 1.379 . S
C359 N357 1.356 1_556 S
N360 C352 1.356 1_565 S
N360 H366 0.984 . S
N360 H367 0.984 . S
N361 C354 1.356 . S
N361 H364 0.984 . S
N361 H365 0.985 1_556 S
H362 N357 0.984 1_565 S
H363 N357 0.985 . S
H364 N361 0.984 . S
H365 N361 0.985 1_554 S
H366 N360 0.984 . S
H367 N360 0.984 . S
H368 N356 0.984 . S
H369 N356 0.985 . S
C370 C371 1.363 . S
C370 C376 1.379 . S
C370 N378 1.356 . S
C371 C370 1.363 . S
C371 C377 1.363 . S
C372 C373 1.363 . S
C372 C377 1.379 . S
C372 N379 1.356 . S
C373 C372 1.363 . S
C373 C376 1.363 . S
N374 C376 1.356 . S
N374 H386 0.984 . S
N374 H387 0.985 . S
N375 C377 1.356 . S
N375 H380 0.984 . S
N375 H381 0.985 . S
C376 C370 1.379 . S
C376 C373 1.363 . S
C376 N374 1.356 . S
C377 C371 1.363 . S
C377 C372 1.379 . S
C377 N375 1.356 . S
N378 C370 1.356 . S
N378 H384 0.984 . S
N378 H385 0.984 . S
N379 C372 1.356 . S
N379 H382 0.984 . S
N379 H383 0.985 . S
H380 N375 0.984 . S
H381 N375 0.985 . S
H382 N379 0.984 . S
H383 N379 0.985 . S
H384 N378 0.984 . S
H385 N378 0.984 . S
H386 N374 0.984 . S
H387 N374 0.985 . S
C388 C389 1.363 . S
C388 C394 1.379 . S
C388 N396 1.356 . S
C389 C388 1.363 . S
C389 C395 1.363 . S
C390 C391 1.363 . S
C390 C395 1.379 . S
C390 N397 1.356 . S
C391 C390 1.363 . S
C391 C394 1.363 . S
N392 C394 1.356 . S
N392 H404 0.984 . S
N392 H405 0.985 . S
N393 C395 1.356 . S
N393 H398 0.984 . S
N393 H399 0.985 . S
C394 C388 1.379 . S
C394 C391 1.363 . S
C394 N392 1.356 . S
C395 C389 1.363 . S
C395 C390 1.379 . S
C395 N393 1.356 . S
N396 C388 1.356 . S
N396 H402 0.984 . S
N396 H403 0.984 . S
N397 C390 1.356 . S
N397 H400 0.984 . S
N397 H401 0.985 . S
H398 N393 0.984 . S
H399 N393 0.985 . S
H400 N397 0.984 . S
H401 N397 0.985 . S
H402 N396 0.984 . S
H403 N396 0.984 . S
H404 N392 0.984 . S
H405 N392 0.985 . S
C406 C407 1.363 . S
C406 C412 1.379 . S
C406 N414 1.356 . S
C407 C406 1.363 . S
C407 C413 1.363 . S
C408 C409 1.363 . S
C408 C413 1.379 . S
C408 N415 1.356 . S
C409 C408 1.363 . S
C409 C412 1.363 . S
N410 C412 1.356 . S
N410 H422 0.984 . S
N410 H423 0.985 . S
N411 C413 1.356 . S
N411 H416 0.984 1_655 S
N411 H417 0.985 . S
C412 C406 1.379 . S
C412 C409 1.363 . S
C412 N410 1.356 . S
C413 C407 1.363 . S
C413 C408 1.379 . S
C413 N411 1.356 . S
N414 C406 1.356 . S
N414 H420 0.984 . S
N414 H421 0.984 1_655 S
N415 C408 1.356 . S
N415 H418 0.984 . S
N415 H419 0.985 . S
H416 N411 0.984 1_455 S
H417 N411 0.985 . S
H418 N415 0.984 . S
H419 N415 0.985 . S
H420 N414 0.984 . S
H421 N414 0.984 1_455 S
H422 N410 0.984 . S
H423 N410 0.985 . S
C424 C425 1.363 . S
C424 C430 1.379 . S
C424 N432 1.356 . S
C425 C424 1.363 . S
C425 C431 1.363 . S
C426 C427 1.363 . S
C426 C431 1.379 . S
C426 N433 1.356 . S
C427 C426 1.363 . S
C427 C430 1.363 . S
N428 C430 1.356 . S
N428 H440 0.984 . S
N428 H441 0.985 . S
N429 C431 1.356 . S
N429 H434 0.984 . S
N429 H435 0.985 . S
C430 C424 1.379 . S
C430 C427 1.363 . S
C430 N428 1.356 . S
C431 C425 1.363 . S
C431 C426 1.379 . S
C431 N429 1.356 . S
N432 C424 1.356 . S
N432 H438 0.984 . S
N432 H439 0.984 . S
N433 C426 1.356 . S
N433 H436 0.984 . S
N433 H437 0.985 . S
H434 N429 0.984 . S
H435 N429 0.985 . S
H436 N433 0.984 . S
H437 N433 0.985 . S
H438 N432 0.984 . S
H439 N432 0.984 . S
H440 N428 0.984 . S
H441 N428 0.985 . S
C442 C443 1.363 . S
C442 C448 1.379 1_655 S
C442 N450 1.356 . S
C443 C442 1.363 . S
C443 C449 1.363 1_655 S
C444 C445 1.363 . S
C444 C449 1.379 . S
C444 N451 1.356 . S
C445 C444 1.363 . S
C445 C448 1.363 . S
N446 C448 1.356 . S
N446 H458 0.984 . S
N446 H459 0.985 . S
N447 C449 1.356 . S
N447 H452 0.984 1_455 S
N447 H453 0.985 . S
C448 C442 1.379 1_455 S
C448 C445 1.363 . S
C448 N446 1.356 . S
C449 C443 1.363 1_455 S
C449 C444 1.379 . S
C449 N447 1.356 . S
N450 C442 1.356 . S
N450 H456 0.984 . S
N450 H457 0.984 . S
N451 C444 1.356 . S
N451 H454 0.984 . S
N451 H455 0.985 . S
H452 N447 0.984 1_655 S
H453 N447 0.985 . S
H454 N451 0.984 . S
H455 N451 0.985 . S
H456 N450 0.984 . S
H457 N450 0.984 . S
H458 N446 0.984 . S
H459 N446 0.985 . S
C460 C461 1.363 . S
C460 C466 1.379 . S
C460 N468 1.356 . S
C461 C460 1.363 . S
C461 C467 1.363 . S
C462 C463 1.363 . S
C462 C467 1.379 . S
C462 N469 1.356 . S
C463 C462 1.363 . S
C463 C466 1.363 . S
N464 C466 1.356 . S
N464 H476 0.984 . S
N464 H477 0.985 . S
N465 C467 1.356 . S
N465 H470 0.984 . S
N465 H471 0.985 . S
C466 C460 1.379 . S
C466 C463 1.363 . S
C466 N464 1.356 . S
C467 C461 1.363 . S
C467 C462 1.379 . S
C467 N465 1.356 . S
N468 C460 1.356 . S
N468 H474 0.984 . S
N468 H475 0.984 . S
N469 C462 1.356 . S
N469 H472 0.984 . S
N469 H473 0.985 . S
H470 N465 0.984 . S
H471 N465 0.985 . S
H472 N469 0.984 . S
H473 N469 0.985 . S
H474 N468 0.984 . S
H475 N468 0.984 . S
H476 N464 0.984 . S
H477 N464 0.985 . S
C478 C479 1.363 . S
C478 C484 1.379 . S
C478 N486 1.356 . S
C479 C478 1.363 . S
C479 C485 1.363 . S
C480 C481 1.363 . S
C480 C485 1.379 . S
C480 N487 1.356 . S
C481 C480 1.363 . S
C481 C484 1.363 . S
N482 C484 1.356 . S
N482 H494 0.984 . S
N482 H495 0.985 . S
N483 C485 1.356 . S
N483 H488 0.984 . S
N483 H489 0.985 . S
C484 C478 1.379 . S
C484 C481 1.363 . S
C484 N482 1.356 . S
C485 C479 1.363 . S
C485 C480 1.379 . S
C485 N483 1.356 . S
N486 C478 1.356 . S
N486 H492 0.984 . S
N486 H493 0.984 . S
N487 C480 1.356 . S
N487 H490 0.984 . S
N487 H491 0.985 . S
H488 N483 0.984 . S
H489 N483 0.985 . S
H490 N487 0.984 . S
H491 N487 0.985 . S
H492 N486 0.984 . S
H493 N486 0.984 . S
H494 N482 0.984 . S
H495 N482 0.985 . S
C496 C497 1.363 . S
C496 C502 1.379 . S
C496 N504 1.356 . S
C497 C496 1.363 . S
C497 C503 1.363 . S
C498 C499 1.363 . S
C498 C503 1.379 . S
C498 N505 1.356 . S
C499 C498 1.363 . S
C499 C502 1.363 . S
N500 C502 1.356 . S
N500 H512 0.984 . S
N500 H513 0.985 . S
N501 C503 1.356 . S
N501 H506 0.984 . S
N501 H507 0.985 . S
C502 C496 1.379 . S
C502 C499 1.363 . S
C502 N500 1.356 . S
C503 C497 1.363 . S
C503 C498 1.379 . S
C503 N501 1.356 . S
N504 C496 1.356 . S
N504 H510 0.984 . S
N504 H511 0.984 . S
N505 C498 1.356 . S
N505 H508 0.984 . S
N505 H509 0.985 . S
H506 N501 0.984 . S
H507 N501 0.985 . S
H508 N505 0.984 . S
H509 N505 0.985 . S
H510 N504 0.984 . S
H511 N504 0.984 . S
H512 N500 0.984 . S
H513 N500 0.985 . S
C514 C515 1.363 . S
C514 C520 1.379 . S
C514 N522 1.356 . S
C515 C514 1.363 . S
C515 C521 1.363 . S
C516 C517 1.363 . S
C516 C521 1.379 . S
C516 N523 1.356 . S
C517 C516 1.363 . S
C517 C520 1.363 . S
N518 C520 1.356 . S
N518 H530 0.984 . S
N518 H531 0.985 . S
N519 C521 1.356 . S
N519 H524 0.984 . S
N519 H525 0.985 . S
C520 C514 1.379 . S
C520 C517 1.363 . S
C520 N518 1.356 . S
C521 C515 1.363 . S
C521 C516 1.379 . S
C521 N519 1.356 . S
N522 C514 1.356 . S
N522 H528 0.984 . S
N522 H529 0.984 . S
N523 C516 1.356 . S
N523 H526 0.984 . S
N523 H527 0.985 . S
H524 N519 0.984 . S
H525 N519 0.985 . S
H526 N523 0.984 . S
H527 N523 0.985 . S
H528 N522 0.984 . S
H529 N522 0.984 . S
H530 N518 0.984 . S
H531 N518 0.985 . S
C532 C533 1.363 . S
C532 C538 1.379 . S
C532 N540 1.356 . S
C533 C532 1.363 . S
C533 C539 1.363 . S
C534 C535 1.363 . S
C534 C539 1.379 . S
C534 N541 1.356 . S
C535 C534 1.363 . S
C535 C538 1.363 . S
N536 C538 1.356 . S
N536 H548 0.984 . S
N536 H549 0.985 . S
N537 C539 1.356 . S
N537 H542 0.984 . S
N537 H543 0.985 . S
C538 C532 1.379 . S
C538 C535 1.363 . S
C538 N536 1.356 . S
C539 C533 1.363 . S
C539 C534 1.379 . S
C539 N537 1.356 . S
N540 C532 1.356 . S
N540 H546 0.984 . S
N540 H547 0.984 . S
N541 C534 1.356 . S
N541 H544 0.984 . S
N541 H545 0.985 . S
H542 N537 0.984 . S
H543 N537 0.985 . S
H544 N541 0.984 . S
H545 N541 0.985 . S
H546 N540 0.984 . S
H547 N540 0.984 . S
H548 N536 0.984 . S
H549 N536 0.985 . S
C550 C551 1.363 . S
C550 C556 1.379 . S
C550 N558 1.356 . S
C551 C550 1.363 . S
C551 C557 1.363 . S
C552 C553 1.363 . S
C552 C557 1.379 . S
C552 N559 1.356 . S
C553 C552 1.363 . S
C553 C556 1.363 . S
N554 C556 1.356 . S
N554 H566 0.984 . S
N554 H567 0.985 . S
N555 C557 1.356 . S
N555 H560 0.984 . S
N555 H561 0.985 . S
C556 C550 1.379 . S
C556 C553 1.363 . S
C556 N554 1.356 . S
C557 C551 1.363 . S
C557 C552 1.379 . S
C557 N555 1.356 . S
N558 C550 1.356 . S
N558 H564 0.984 . S
N558 H565 0.984 . S
N559 C552 1.356 . S
N559 H562 0.984 . S
N559 H563 0.985 . S
H560 N555 0.984 . S
H561 N555 0.985 . S
H562 N559 0.984 . S
H563 N559 0.985 . S
H564 N558 0.984 . S
H565 N558 0.984 . S
H566 N554 0.984 . S
H567 N554 0.985 . S
C568 C569 1.363 . S
C568 C574 1.379 . S
C568 N576 1.356 . S
C569 C568 1.363 . S
C569 C575 1.363 . S
C570 C571 1.363 . S
C570 C575 1.379 . S
C570 N577 1.356 . S
C571 C570 1.363 . S
C571 C574 1.363 . S
N572 C574 1.356 . S
N572 H584 0.984 . S
N572 H585 0.985 . S
N573 C575 1.356 . S
N573 H578 0.984 . S
N573 H579 0.985 . S
C574 C568 1.379 . S
C574 C571 1.363 . S
C574 N572 1.356 . S
C575 C569 1.363 . S
C575 C570 1.379 . S
C575 N573 1.356 . S
N576 C568 1.356 . S
N576 H582 0.984 . S
N576 H583 0.984 . S
N577 C570 1.356 . S
N577 H580 0.984 . S
N577 H581 0.985 . S
H578 N573 0.984 . S
H579 N573 0.985 . S
H580 N577 0.984 . S
H581 N577 0.985 . S
H582 N576 0.984 . S
H583 N576 0.984 . S
H584 N572 0.984 . S
H585 N572 0.985 . S
C586 C587 1.363 . S
C586 C592 1.379 . S
C586 N594 1.356 1_556 S
C587 C586 1.363 . S
C587 C593 1.363 . S
C588 C589 1.363 . S
C588 C593 1.379 . S
C588 N595 1.356 . S
C589 C588 1.363 . S
C589 C592 1.363 . S
N590 C592 1.356 . S
N590 H602 0.984 . S
N590 H603 0.985 . S
N591 C593 1.356 . S
N591 H596 0.984 . S
N591 H597 0.985 . S
C592 C586 1.379 . S
C592 C589 1.363 . S
C592 N590 1.356 . S
C593 C587 1.363 . S
C593 C588 1.379 . S
C593 N591 1.356 . S
N594 C586 1.356 1_554 S
N594 H600 0.984 . S
N594 H601 0.984 . S
N595 C588 1.356 . S
N595 H598 0.984 . S
N595 H599 0.985 . S
H596 N591 0.984 . S
H597 N591 0.985 . S
H598 N595 0.984 . S
H599 N595 0.985 . S
H600 N594 0.984 . S
H601 N594 0.984 . S
H602 N590 0.984 . S
H603 N590 0.985 . S
C173 C7 0.981 . S
C175 C89 1.001 . S
C191 C25 1.011 . S
C193 C100 1.050 . S
C209 C46 1.030 . S
C211 C110 1.055 . S
C229 C122 0.952 . S
C227 C70 0.945 . S
C247 C133 1.001 . S
C245 C28 0.980 . S
C263 C49 0.945 . S
C265 C144 0.952 . S
C281 C67 1.030 . S
C283 C154 1.055 . S
C299 C4 1.011 . S
C301 C166 1.050 . S
C317 C58 1.509 . S
C319 C165 1.609 . S
C337 C132 1.527 . S
C335 C66 1.442 . S
C355 C143 1.626 . S
C353 C3 1.597 . S
C371 C37 1.650 . S
C373 C155 1.702 . S
C391 C99 1.609 . S
C389 C79 1.509 . S
C407 C16 1.650 1_655 S
C409 C111 1.702 . S
C427 C121 1.626 . S
C425 C24 1.582 . S
C445 C88 1.527 . S
C443 C45 1.442 . S
C463 C160 1.491 . S
C461 C19 1.323 . S
C481 C171 1.496 . S
C479 C41 1.358 . S
C497 C62 1.300 . S
C499 C138 1.409 . S
C517 C149 1.387 . S
C515 C82 1.227 . S
C535 C116 1.491 . S
C533 C40 1.323 . S
C551 C61 1.227 . S
C553 C127 1.387 . S
C571 C94 1.409 . S
C569 C83 1.301 . S
C589 C105 1.496 . S
C587 C20 1.358 . S
