# Generated by pormake.
# Topology anh, (6,3)-cn, num edge types: 1
# Building blocks:
#     Node 0, Type 0, BuildingBlock: VOLQOD_clean_sbu_1, # of connection points: 6
#     Node 1, Type 0, BuildingBlock: VOLQOD_clean_sbu_1, # of connection points: 6
#     Node 2, Type 0, BuildingBlock: VOLQOD_clean_sbu_1, # of connection points: 6
#     Node 3, Type 1, BuildingBlock: VETTIZ_charged_linker_0, # of connection points: 3
#     Node 4, Type 1, BuildingBlock: VETTIZ_charged_linker_0, # of connection points: 3
#     Node 5, Type 1, BuildingBlock: VETTIZ_charged_linker_0, # of connection points: 3
#     Node 6, Type 1, BuildingBlock: VETTIZ_charged_linker_0, # of connection points: 3
#     Node 7, Type 1, BuildingBlock: VETTIZ_charged_linker_0, # of connection points: 3
#     Node 8, Type 1, BuildingBlock: VETTIZ_charged_linker_0, # of connection points: 3
#     Edge 9, Type (0, 1), BuildingBlock: XUDNAN_clean_linker_2, # of connection points: 2
#     Edge 10, Type (0, 1), BuildingBlock: XUDNAN_clean_linker_2, # of connection points: 2
#     Edge 11, Type (0, 1), BuildingBlock: XUDNAN_clean_linker_2, # of connection points: 2
#     Edge 12, Type (0, 1), BuildingBlock: XUDNAN_clean_linker_2, # of connection points: 2
#     Edge 13, Type (0, 1), BuildingBlock: XUDNAN_clean_linker_2, # of connection points: 2
#     Edge 14, Type (0, 1), BuildingBlock: XUDNAN_clean_linker_2, # of connection points: 2
#     Edge 15, Type (0, 1), BuildingBlock: XUDNAN_clean_linker_2, # of connection points: 2
#     Edge 16, Type (0, 1), BuildingBlock: XUDNAN_clean_linker_2, # of connection points: 2
#     Edge 17, Type (0, 1), BuildingBlock: XUDNAN_clean_linker_2, # of connection points: 2
#     Edge 18, Type (0, 1), BuildingBlock: XUDNAN_clean_linker_2, # of connection points: 2
#     Edge 19, Type (0, 1), BuildingBlock: XUDNAN_clean_linker_2, # of connection points: 2
#     Edge 20, Type (0, 1), BuildingBlock: XUDNAN_clean_linker_2, # of connection points: 2
#     Edge 21, Type (0, 1), BuildingBlock: XUDNAN_clean_linker_2, # of connection points: 2
#     Edge 22, Type (0, 1), BuildingBlock: XUDNAN_clean_linker_2, # of connection points: 2
#     Edge 23, Type (0, 1), BuildingBlock: XUDNAN_clean_linker_2, # of connection points: 2
#     Edge 24, Type (0, 1), BuildingBlock: XUDNAN_clean_linker_2, # of connection points: 2
#     Edge 25, Type (0, 1), BuildingBlock: XUDNAN_clean_linker_2, # of connection points: 2
#     Edge 26, Type (0, 1), BuildingBlock: XUDNAN_clean_linker_2, # of connection points: 2
# Relax obj value: 0.169
# Max RMSD: 0.231
# Mean RMSD: 0.117
data_MOF--net-anh--node1-VOLQOD_clean_sbu_1--node2-VETTIZ_charged_linker_0--edge1-XUDNAN_clean_linker_2
_symmetry_space_group_name_H-M    P1
_symmetry_Int_Tables_number       1
_symmetry_cell_setting            triclinic
loop_
_symmetry_equiv_pos_as_xyz
'x, y, z'
_cell_length_a     34.246323
_cell_length_b     34.208881
_cell_length_c     74.391932
_cell_angle_alpha  90.029181
_cell_angle_beta   89.954024
_cell_angle_gamma 120.14753
loop_
_atom_site_label
_atom_site_type_symbol
_atom_site_fract_x
_atom_site_fract_y
_atom_site_fract_z
_atom_type_partial_charge
O0 O 0.98247 0.52887 0.20085 0.0
Zn1 Zn 0.98828 0.53017 0.17381 0.0
O2 O 0.00206 0.48373 0.16591 0.0
Zn3 Zn 0.95595 0.44144 0.15004 0.0
Zn4 Zn 0.00711 0.45065 0.18644 0.0
Zn5 Zn 0.05689 0.51175 0.15178 0.0
O6 O 0.97836 0.43788 0.12562 0.0
O7 O 0.04459 0.50123 0.12516 0.0
O8 O 0.93201 0.52339 0.16155 0.0
O9 O 0.91175 0.4615 0.1454 0.0
O10 O 0.92331 0.38007 0.16045 0.0
O11 O 0.95579 0.38476 0.18676 0.0
O12 O 0.0668 0.45144 0.1854 0.0
O13 O 0.04069 0.59239 0.16831 0.0
O14 O 0.09589 0.48664 0.15938 0.0
O15 O 0.09138 0.57864 0.15574 0.0
C16 C 0.9921 0.50915 0.21317 0.0
C17 C 0.01265 0.46754 0.11711 0.0
C18 C 0.92582 0.36195 0.17497 0.0
C19 C 0.90573 0.49371 0.15027 0.0
C20 C 0.09704 0.46528 0.1732 0.0
C21 C 0.07995 0.60622 0.16184 0.0
O22 O 0.00369 0.47998 0.20944 0.0
O23 O 0.43364 0.9777 0.46215 0.0
Zn24 Zn 0.4322 0.98354 0.48871 0.0
O25 O 0.48579 0.98666 0.49899 0.0
Zn26 Zn 0.52474 0.04712 0.50835 0.0
Zn27 Zn 0.51828 0.97247 0.48074 0.0
Zn28 Zn 0.46674 0.94342 0.51852 0.0
O29 O 0.53018 0.04611 0.53524 0.0
O30 O 0.48425 0.97426 0.54258 0.0
O31 O 0.42886 0.03965 0.49362 0.0
O32 O 0.49847 0.08665 0.50325 0.0
O33 O 0.58651 0.07645 0.49725 0.0
O34 O 0.58131 0.02495 0.47774 0.0
O35 O 0.52593 0.91982 0.48848 0.0
O36 O 0.37551 0.9286 0.49708 0.0
O37 O 0.4971 0.9071 0.51605 0.0
O38 O 0.39976 0.89936 0.51783 0.0
C39 C 0.45605 0.96829 0.45108 0.0
C40 C 0.51106 0.01519 0.54704 0.0
C41 C 0.60385 0.06358 0.48514 0.0
C42 C 0.45965 0.07897 0.49834 0.0
C43 C 0.51778 0.89943 0.50355 0.0
C44 C 0.36788 0.89794 0.50853 0.0
O45 O 0.48842 0.96269 0.45627 0.0
O46 O 0.44975 0.46025 0.79421 0.0
Zn47 Zn 0.43968 0.45422 0.82078 0.0
O48 O 0.49403 0.4993 0.83292 0.0
Zn49 Zn 0.48106 0.53677 0.8482 0.0
Zn50 Zn 0.53995 0.538 0.81539 0.0
Zn51 Zn 0.51529 0.46847 0.84832 0.0
O52 O 0.4837 0.52549 0.87452 0.0
O53 O 0.49863 0.46947 0.87427 0.0
O54 O 0.38635 0.46236 0.8259 0.0
O55 O 0.41871 0.52343 0.84323 0.0
O56 O 0.52054 0.60204 0.84287 0.0
O57 O 0.55225 0.60262 0.81678 0.0
O58 O 0.59863 0.54078 0.82139 0.0
O59 O 0.42587 0.39104 0.82667 0.0
O60 O 0.58268 0.49942 0.84637 0.0
O61 O 0.48752 0.40317 0.84129 0.0
C62 C 0.48272 0.48437 0.7838 0.0
C63 C 0.48864 0.49565 0.8827 0.0
C64 C 0.54442 0.62324 0.82931 0.0
C65 C 0.38466 0.49345 0.83467 0.0
C66 C 0.61073 0.52579 0.83467 0.0
C67 C 0.45003 0.37644 0.83371 0.0
O68 O 0.52055 0.51516 0.78994 0.0
C69 C 0.62408 0.05789 0.21295 0.0
C70 C 0.66137 0.09455 0.22145 0.0
C71 C 0.65685 0.10281 0.23978 0.0
C72 C 0.57912 0.04157 0.24002 0.0
C73 C 0.5832 0.03344 0.22215 0.0
C74 C 0.53855 0.00036 0.21384 0.0
H75 H 0.3116 0.87284 0.22239 0.0
C76 C 0.53139 0.01253 0.24524 0.0
C77 C 0.50722 0.98927 0.22981 0.0
H78 H 0.39111 0.89392 0.17448 0.0
H79 H 0.45986 0.9402 0.19137 0.0
H80 H 0.37017 0.85191 0.24632 0.0
H81 H 0.36817 0.97514 0.23882 0.0
H82 H 0.37092 0.96722 0.26209 0.0
H83 H 0.32385 0.92523 0.24932 0.0
H84 H 0.33275 0.86364 0.25901 0.0
H85 H 0.38894 0.88047 0.26688 0.0
C86 C 0.54097 0.9586 0.20742 0.0
C87 C 0.52814 0.02504 0.19871 0.0
C88 C 0.48383 0.00142 0.31074 0.0
C89 C 0.44177 0.97613 0.31936 0.0
C90 C 0.40306 0.94908 0.30892 0.0
C91 C 0.40603 0.94704 0.29026 0.0
C92 C 0.44818 0.97213 0.28183 0.0
C93 C 0.48624 -0.00112 0.29199 0.0
C94 C 0.52797 0.02359 0.28051 0.0
C95 C 0.5088 0.00511 0.26198 0.0
C96 C 0.46204 0.97552 0.2629 0.0
C97 C 0.56237 0.00955 0.28657 0.0
C98 C 0.54573 0.07509 0.28195 0.0
C99 C 0.34378 0.88832 0.21545 0.0
C100 C 0.34611 0.8809 0.19704 0.0
C101 C 0.38866 0.89981 0.18863 0.0
C102 C 0.42838 0.92662 0.19845 0.0
C103 C 0.42539 0.93425 0.21687 0.0
C104 C 0.38357 0.9146 0.22507 0.0
C105 C 0.38669 0.92352 0.24492 0.0
C106 C 0.43723 0.95382 0.24717 0.0
C107 C 0.45974 0.9602 0.23073 0.0
C108 C 0.36853 0.87771 0.2549 0.0
C109 C 0.36091 0.94888 0.24917 0.0
H110 H 0.61495 0.08458 0.2629 0.0
H111 H 0.62546 0.04897 0.19913 0.0
H112 H 0.5428 0.06157 0.20186 0.0
H113 H 0.4917 0.01237 0.19703 0.0
H114 H 0.54251 0.02258 0.18565 0.0
H115 H 0.55884 0.94918 0.21749 0.0
H116 H 0.55962 0.96562 0.19451 0.0
H117 H 0.50734 0.92822 0.20582 0.0
H118 H 0.51405 0.02301 0.31838 0.0
H119 H 0.37039 0.92882 0.31523 0.0
H120 H 0.3753 0.92585 0.28314 0.0
H121 H 0.54575 0.97212 0.28762 0.0
H122 H 0.57662 0.02409 0.29996 0.0
H123 H 0.59066 0.02018 0.27707 0.0
H124 H 0.51884 0.08215 0.28638 0.0
H125 H 0.55713 0.09243 0.26881 0.0
H126 H 0.57386 0.09146 0.29177 0.0
H127 H 0.68376 0.13094 0.24693 0.0
C128 C 0.6163 0.07619 0.24911 0.0
C129 C 0.57558 0.63572 0.54305 0.0
C130 C 0.58629 0.67537 0.55254 0.0
C131 C 0.58953 0.67547 0.57144 0.0
C132 C 0.56528 0.5957 0.57116 0.0
C133 C 0.56503 0.5964 0.55259 0.0
C134 C 0.54902 0.55049 0.54457 0.0
H135 H 0.44942 0.32474 0.55606 0.0
C136 C 0.54723 0.54841 0.57696 0.0
C137 C 0.53782 0.52183 0.56141 0.0
H138 H 0.49909 0.39993 0.50665 0.0
H139 H 0.52625 0.47034 0.52291 0.0
H140 H 0.5353 0.3841 0.57736 0.0
H141 H 0.41173 0.38754 0.5747 0.0
H142 H 0.42767 0.39223 0.59743 0.0
H143 H 0.41643 0.34256 0.58495 0.0
H144 H 0.4869 0.34642 0.59049 0.0
H145 H 0.5285 0.40159 0.59872 0.0
C146 C 0.58869 0.55192 0.53394 0.0
C147 C 0.50643 0.53761 0.53311 0.0
C148 C 0.51517 0.50665 0.64317 0.0
C149 C 0.49426 0.46483 0.65218 0.0
C150 C 0.48108 0.42499 0.64227 0.0
C151 C 0.48728 0.42649 0.62366 0.0
C152 C 0.50674 0.46827 0.61474 0.0
C153 C 0.52096 0.50755 0.62449 0.0
C154 C 0.54038 0.54871 0.61259 0.0
C155 C 0.53572 0.52756 0.59416 0.0
C156 C 0.51557 0.48043 0.59556 0.0
C157 C 0.59047 0.58004 0.61784 0.0
C158 C 0.51044 0.57059 0.61455 0.0
C159 C 0.46528 0.35646 0.54877 0.0
C160 C 0.47123 0.35728 0.53011 0.0
C161 C 0.49364 0.39893 0.52103 0.0
C162 C 0.50953 0.43956 0.53051 0.0
C163 C 0.50337 0.43834 0.54924 0.0
C164 C 0.48214 0.39727 0.55808 0.0
C165 C 0.48183 0.40251 0.57812 0.0
C166 C 0.50587 0.45357 0.57986 0.0
C167 C 0.51762 0.47426 0.56291 0.0
C168 C 0.5092 0.38244 0.58675 0.0
C169 C 0.43194 0.37989 0.58429 0.0
H170 H 0.58112 0.63782 0.59519 0.0
H171 H 0.57252 0.63442 0.52854 0.0
H172 H 0.48364 0.54685 0.54025 0.0
H173 H 0.48576 0.50107 0.53045 0.0
H174 H 0.51573 0.55565 0.52002 0.0
H175 H 0.62195 0.57812 0.53937 0.0
H176 H 0.58761 0.55983 0.51953 0.0
H177 H 0.58925 0.51993 0.535 0.0
H178 H 0.52538 0.53782 0.6504 0.0
H179 H 0.46564 0.39246 0.64895 0.0
H180 H 0.47604 0.39491 0.61692 0.0
H181 H 0.60652 0.55989 0.62164 0.0
H182 H 0.59357 0.60172 0.62949 0.0
H183 H 0.61118 0.60168 0.60661 0.0
H184 H 0.47423 0.54422 0.61596 0.0
H185 H 0.51157 0.59045 0.6027 0.0
H186 H 0.52003 0.59255 0.62665 0.0
H187 H 0.59851 0.70587 0.57904 0.0
C188 C 0.57926 0.63591 0.5808 0.0
C189 C 0.11949 0.55601 0.87177 0.0
C190 C 0.14511 0.53685 0.87746 0.0
C191 C 0.14566 0.52654 0.8957 0.0
C192 C 0.09301 0.55207 0.90235 0.0
C193 C 0.09374 0.56347 0.88447 0.0
C194 C 0.06414 0.58339 0.88085 0.0
H195 H 0.8771 0.58254 0.90338 0.0
C196 C 0.06092 0.56148 0.91185 0.0
C197 C 0.04416 0.58027 0.89946 0.0
H198 H 0.96123 0.64364 0.85638 0.0
H199 H 0.02045 0.63583 0.87007 0.0
H200 H 0.90097 0.50655 0.91521 0.0
H201 H 0.961 0.64714 0.92906 0.0
H202 H 0.97553 0.62214 0.94653 0.0
H203 H 0.91686 0.60416 0.94245 0.0
H204 H 0.87319 0.53199 0.92683 0.0
H205 H 0.90736 0.51497 0.93887 0.0
C206 C 0.02799 0.55275 0.86696 0.0
C207 C 0.09416 0.63305 0.87453 0.0
C208 C 0.0214 0.51179 0.97662 0.0
C209 C 0.9915 0.51391 0.98887 0.0
C210 C 0.96429 0.53181 0.98342 0.0
C211 C 0.9665 0.54691 0.96569 0.0
C212 C 0.99654 0.54437 0.95349 0.0
C213 C 0.0238 0.52768 0.95915 0.0
C214 C 0.05509 0.52929 0.94468 0.0
C215 C 0.0431 0.55093 0.92952 0.0
C216 C 0.00811 0.55872 0.93459 0.0
C217 C 0.04225 0.47987 0.94033 0.0
C218 C 0.1044 0.55996 0.95117 0.0
C219 C 0.90811 0.59467 0.8959 0.0
C220 C 0.91257 0.61054 0.87803 0.0
C221 C 0.95498 0.62791 0.86949 0.0
C222 C 0.98959 0.62365 0.87743 0.0
C223 C 0.98213 0.60243 0.89415 0.0
C224 C 0.94381 0.59202 0.90382 0.0
C225 C 0.94614 0.5775 0.92276 0.0
C226 C 0.98973 0.57591 0.92186 0.0
C227 C 0.00948 0.58896 0.90477 0.0
C228 C 0.90468 0.53022 0.9262 0.0
C229 C 0.94984 0.61434 0.93596 0.0
H230 H 0.12126 0.52527 0.92191 0.0
H231 H 0.11969 0.56503 0.8578 0.0
H232 H 0.13066 0.64604 0.87707 0.0
H233 H 0.08633 0.65646 0.88193 0.0
H234 H 0.0903 0.63649 0.85988 0.0
H235 H 0.00923 0.5172 0.87181 0.0
H236 H 0.04394 0.55324 0.85389 0.0
H237 H 0.00283 0.56296 0.8642 0.0
H238 H 0.04299 0.49862 0.98067 0.0
H239 H 0.94116 0.53372 0.99284 0.0
H240 H 0.94472 0.55973 0.96207 0.0
H241 H 0.00518 0.45661 0.94158 0.0
H242 H 0.05911 0.46773 0.94971 0.0
H243 H 0.05016 0.47523 0.92639 0.0
H244 H 0.10729 0.58766 0.95994 0.0
H245 H 0.12819 0.57749 0.94 0.0
H246 H 0.11637 0.54041 0.95903 0.0
H247 H 0.16597 0.5123 0.90021 0.0
C248 C 0.11977 0.53414 0.90821 0.0
C249 C 0.89854 0.3608 0.4476 0.0
C250 C 0.87268 0.32294 0.43662 0.0
C251 C 0.8758 0.32818 0.4178 0.0
C252 C 0.92893 0.40816 0.42114 0.0
C253 C 0.92652 0.4029 0.43959 0.0
C254 C 0.95665 0.4466 0.44922 0.0
H255 H 0.11914 0.66646 0.44469 0.0
C256 C 0.96038 0.45624 0.41713 0.0
C257 C 0.97693 0.47901 0.43348 0.0
H258 H 0.05938 0.58467 0.49221 0.0
H259 H 0.00781 0.5223 0.4737 0.0
H260 H 0.11991 0.59091 0.41936 0.0
H261 H 0.02233 0.63434 0.42577 0.0
H262 H 0.02239 0.62121 0.40297 0.0
H263 H 0.07303 0.66658 0.41294 0.0
H264 H 0.13067 0.64621 0.41315 0.0
H265 H 0.10305 0.5992 0.39796 0.0
C266 C 0.99268 0.44093 0.45963 0.0
C267 C 0.92677 0.4582 0.46118 0.0
C268 C 0.98659 0.50866 0.35234 0.0
C269 C 0.01274 0.55098 0.34411 0.0
C270 C 0.03918 0.58916 0.35495 0.0
C271 C 0.03981 0.585 0.37373 0.0
C272 C 0.01347 0.54228 0.38173 0.0
C273 C 0.98731 0.50514 0.37101 0.0
C274 C 0.96056 0.46258 0.3817 0.0
C275 C 0.97458 0.48022 0.40066 0.0
C276 C 0.00581 0.5268 0.40065 0.0
C277 C 0.97658 0.42903 0.37633 0.0
C278 C 0.9097 0.44501 0.37836 0.0
C279 C 0.09458 0.63544 0.4512 0.0
C280 C 0.09418 0.63049 0.47003 0.0
C281 C 0.06149 0.5892 0.47776 0.0
C282 C 0.03137 0.55295 0.46698 0.0
C283 C 0.0336 0.55789 0.44821 0.0
C284 C 0.06392 0.59899 0.44063 0.0
C285 C 0.05987 0.59853 0.42046 0.0
C286 C 0.02363 0.54974 0.41718 0.0
C287 C 0.00871 0.52606 0.4335 0.0
C288 C 0.10574 0.60951 0.41216 0.0
C289 C 0.04389 0.63204 0.41511 0.0
H290 H 0.90414 0.37228 0.39562 0.0
H291 H 0.89708 0.35771 0.46211 0.0
H292 H 0.89303 0.44597 0.45497 0.0
H293 H 0.94091 0.49499 0.46284 0.0
H294 H 0.92126 0.44222 0.47465 0.0
H295 H 0.00428 0.42128 0.45155 0.0
H296 H 0.97874 0.42252 0.47246 0.0
H297 H 0.02361 0.47327 0.46252 0.0
H298 H 0.9653 0.47881 0.34441 0.0
H299 H 0.05977 0.62211 0.34888 0.0
H300 H 0.06086 0.61513 0.38128 0.0
H301 H 0.01289 0.44728 0.37247 0.0
H302 H 0.95711 0.40789 0.36469 0.0
H303 H 0.97441 0.40679 0.38752 0.0
H304 H 0.90315 0.47363 0.37707 0.0
H305 H 0.88792 0.42451 0.38958 0.0
H306 H 0.89802 0.42489 0.36577 0.0
H307 H 0.85571 0.29966 0.40906 0.0
C308 C 0.90369 0.37051 0.41001 0.0
C309 C 0.55494 0.93001 0.79131 0.0
C310 C 0.55975 0.89524 0.78331 0.0
C311 C 0.55458 0.88976 0.76443 0.0
C312 C 0.53826 0.95081 0.76239 0.0
C313 C 0.54258 0.95588 0.7808 0.0
C314 C 0.52806 0.98787 0.78779 0.0
H315 H 0.43923 0.12157 0.77088 0.0
C316 C 0.52276 0.98122 0.75556 0.0
C317 C 0.51549 0.00206 0.77045 0.0
H318 H 0.47292 0.08884 0.82252 0.0
H319 H 0.5006 0.04408 0.80792 0.0
H320 H 0.52768 0.14453 0.75333 0.0
H321 H 0.39938 0.02207 0.7515 0.0
H322 H 0.42117 0.03558 0.72944 0.0
H323 H 0.41116 0.07496 0.74177 0.0
H324 H 0.48622 0.13646 0.73683 0.0
H325 H 0.52774 0.11965 0.73272 0.0
C326 C 0.5691 0.02808 0.797 0.0
C327 C 0.48663 0.96102 0.80029 0.0
C328 C 0.52036 0.00709 0.68835 0.0
C329 C 0.51136 0.0367 0.67845 0.0
C330 C 0.4954 0.06215 0.68746 0.0
C331 C 0.48947 0.05907 0.70609 0.0
C332 C 0.50001 0.03057 0.71592 0.0
C333 C 0.51492 0.00493 0.70707 0.0
C334 C 0.5251 0.97711 0.7199 0.0
C335 C 0.516 0.99222 0.73787 0.0
C336 C 0.50071 0.02295 0.73538 0.0
C337 C 0.57536 0.99097 0.71772 0.0
C338 C 0.49162 0.92636 0.71617 0.0
C339 C 0.45166 0.10389 0.77903 0.0
C340 C 0.45297 0.10761 0.79783 0.0
C341 C 0.47117 0.08585 0.808 0.0
C342 C 0.48711 0.05992 0.79951 0.0
C343 C 0.48515 0.05614 0.78065 0.0
C344 C 0.46818 0.07845 0.77075 0.0
C345 C 0.47165 0.07343 0.75085 0.0
C346 C 0.49111 0.04222 0.75042 0.0
C347 C 0.49885 0.03215 0.76787 0.0
C348 C 0.50473 0.1208 0.7429 0.0
C349 C 0.42344 0.05054 0.74282 0.0
H350 H 0.54055 0.91141 0.73978 0.0
H351 H 0.55915 0.9365 0.8056 0.0
H352 H 0.46655 0.92493 0.79616 0.0
H353 H 0.46236 0.97329 0.79974 0.0
H354 H 0.49728 0.96179 0.81445 0.0
H355 H 0.60039 0.03883 0.78903 0.0
H356 H 0.57467 0.01863 0.81064 0.0
H357 H 0.5657 0.05842 0.79805 0.0
H358 H 0.53267 0.98716 0.68173 0.0
H359 H 0.48756 0.08459 0.68003 0.0
H360 H 0.47724 0.07932 0.71213 0.0
H361 H 0.59707 0.02843 0.71789 0.0
H362 H 0.58106 0.97849 0.70475 0.0
H363 H 0.58777 0.97824 0.72861 0.0
H364 H 0.4603 0.92118 0.70949 0.0
H365 H 0.4797 0.90625 0.7287 0.0
H366 H 0.50692 0.91157 0.70728 0.0
H367 H 0.55656 0.86291 0.75761 0.0
C368 C 0.54446 0.91763 0.75398 0.0
C369 C 0.64186 0.54903 0.11318 0.0
C370 C 0.67781 0.55879 0.10143 0.0
C371 C 0.67709 0.57371 0.08386 0.0
C372 C 0.60143 0.55975 0.08867 0.0
C373 C 0.60393 0.54978 0.10649 0.0
C374 C 0.56073 0.53659 0.11646 0.0
H375 H 0.34309 0.48709 0.11331 0.0
C376 C 0.5551 0.54994 0.08505 0.0
C377 C 0.53119 0.5372 0.10134 0.0
H378 H 0.41985 0.49151 0.16028 0.0
H379 H 0.48526 0.51304 0.14162 0.0
H380 H 0.42097 0.57472 0.09208 0.0
H381 H 0.37322 0.43231 0.09065 0.0
H382 H 0.39501 0.45189 0.06909 0.0
H383 H 0.34776 0.45668 0.07709 0.0
H384 H 0.36587 0.53218 0.08461 0.0
H385 H 0.41315 0.55652 0.06944 0.0
C386 C 0.57074 0.57338 0.13076 0.0
C387 C 0.54227 0.48848 0.12427 0.0
C388 C 0.50333 0.53627 0.02036 0.0
C389 C 0.46034 0.51783 0.01265 0.0
C390 C 0.42277 0.50649 0.02369 0.0
C391 C 0.42792 0.51246 0.04237 0.0
C392 C 0.47089 0.5287 0.05006 0.0
C393 C 0.50776 0.54071 0.03905 0.0
C394 C 0.54995 0.55328 0.04953 0.0
C395 C 0.53229 0.54651 0.06868 0.0
C396 C 0.48611 0.53239 0.06889 0.0
C397 C 0.58493 0.60348 0.04559 0.0
C398 C 0.56569 0.51938 0.04436 0.0
C399 C 0.37359 0.49191 0.11969 0.0
C400 C 0.37589 0.48743 0.13842 0.0
C401 C 0.41703 0.49526 0.14597 0.0
C402 C 0.45502 0.50763 0.13509 0.0
C403 C 0.45183 0.51174 0.11642 0.0
C404 C 0.41143 0.50351 0.10903 0.0
C405 C 0.41332 0.50728 0.08888 0.0
C406 C 0.46238 0.52181 0.08545 0.0
C407 C 0.48476 0.52416 0.10159 0.0
C408 C 0.40256 0.54445 0.08333 0.0
C409 C 0.38058 0.45985 0.08091 0.0
H410 H 0.63991 0.58443 0.06374 0.0
H411 H 0.6418 0.53781 0.12679 0.0
H412 H 0.54637 0.46637 0.11439 0.0
H413 H 0.50582 0.47118 0.12727 0.0
H414 H 0.56064 0.48939 0.1367 0.0
H415 H 0.59734 0.60728 0.12601 0.0
H416 H 0.58278 0.56616 0.14351 0.0
H417 H 0.54122 0.57732 0.13359 0.0
H418 H 0.53247 0.54429 0.01208 0.0
H419 H 0.38935 0.49202 0.01787 0.0
H420 H 0.39808 0.50293 0.05015 0.0
H421 H 0.56806 0.62304 0.04209 0.0
H422 H 0.60722 0.60663 0.03416 0.0
H423 H 0.60596 0.6211 0.05746 0.0
H424 H 0.53625 0.48454 0.04313 0.0
H425 H 0.5877 0.51664 0.05443 0.0
H426 H 0.58365 0.52849 0.03125 0.0
H427 H 0.70495 0.5823 0.07474 0.0
C428 C 0.63922 0.57458 0.07747 0.0
H429 H 0.12293 0.42327 0.14938 0.0
H430 H 0.15867 0.49376 0.20034 0.0
H431 H 0.2325 0.49665 0.19957 0.0
H432 H 0.18474 0.35772 0.1575 0.0
H433 H 0.19998 0.36246 0.13408 0.0
H434 H 0.14732 0.35833 0.14061 0.0
H435 H 0.1698 0.4324 0.12329 0.0
H436 H 0.22262 0.43721 0.11695 0.0
H437 H 0.22208 0.48295 0.12876 0.0
H438 H 0.30744 0.50705 0.1895 0.0
H439 H 0.37412 0.51785 0.17264 0.0
H440 H 0.28639 0.4323 0.12992 0.0
C441 C 0.14569 0.43758 0.1607 0.0
C442 C 0.13547 0.45789 0.17499 0.0
C443 C 0.16597 0.47734 0.18946 0.0
C444 C 0.20787 0.47918 0.18909 0.0
C445 C 0.21782 0.46023 0.1744 0.0
C446 C 0.18696 0.43863 0.16072 0.0
C447 C 0.20698 0.42443 0.14571 0.0
C448 C 0.18335 0.37266 0.14441 0.0
C449 C 0.20527 0.44553 0.12763 0.0
C450 C 0.25484 0.4442 0.15244 0.0
C451 C 0.26048 0.46435 0.16908 0.0
C452 C 0.30313 0.49001 0.17678 0.0
C453 C 0.34091 0.49586 0.16708 0.0
C454 C 0.33581 0.47601 0.14986 0.0
C455 C 0.29185 0.44847 0.14291 0.0
H456 H 0.6558 0.154 0.49248 0.0
H457 H 0.65612 0.04461 0.46295 0.0
H458 H 0.73031 0.09871 0.44999 0.0
H459 H 0.69852 0.23222 0.45812 0.0
H460 H 0.73235 0.28056 0.4722 0.0
H461 H 0.68274 0.23256 0.48122 0.0
H462 H 0.73068 0.22571 0.50665 0.0
H463 H 0.78058 0.27389 0.4977 0.0
H464 H 0.7794 0.2211 0.50096 0.0
H465 H 0.79976 0.16533 0.43768 0.0
H466 H 0.85925 0.23997 0.42674 0.0
H467 H 0.81301 0.30573 0.46401 0.0
C468 C 0.67193 0.14117 0.48364 0.0
C469 C 0.65023 0.09502 0.4788 0.0
C470 C 0.67212 0.07981 0.46689 0.0
C471 C 0.71436 0.11024 0.45951 0.0
C472 C 0.73433 0.15567 0.46425 0.0
C473 C 0.71394 0.17108 0.4761 0.0
C474 C 0.74047 0.22207 0.47773 0.0
C475 C 0.71181 0.24306 0.47197 0.0
C476 C 0.75888 0.23653 0.4969 0.0
C477 C 0.77817 0.23304 0.4645 0.0
C478 C 0.77438 0.19425 0.45706 0.0
C479 C 0.80348 0.19592 0.44359 0.0
C480 C 0.83693 0.23839 0.43739 0.0
C481 C 0.84077 0.2785 0.4446 0.0
C482 C 0.81148 0.27563 0.45855 0.0
H483 H 0.58413 0.67908 0.80006 0.0
H484 H 0.53508 0.6765 0.85418 0.0
H485 H 0.54424 0.75159 0.84946 0.0
H486 H 0.66676 0.80635 0.79923 0.0
H487 H 0.65506 0.80969 0.77583 0.0
H488 H 0.65277 0.75932 0.78446 0.0
H489 H 0.57111 0.71147 0.77242 0.0
H490 H 0.57278 0.76155 0.76403 0.0
H491 H 0.52881 0.72496 0.77941 0.0
H492 H 0.54113 0.81611 0.837 0.0
H493 H 0.53517 0.87201 0.81892 0.0
H494 H 0.59634 0.8413 0.7737 0.0
C495 C 0.57687 0.69502 0.81112 0.0
C496 C 0.55864 0.67167 0.82745 0.0
C497 C 0.54891 0.69347 0.84151 0.0
C498 C 0.55414 0.7363 0.83901 0.0
C499 C 0.57008 0.75746 0.8225 0.0
C500 C 0.58242 0.73823 0.80892 0.0
C501 C 0.59509 0.76681 0.792 0.0
C502 C 0.64542 0.78674 0.78763 0.0
C503 C 0.56515 0.73956 0.77603 0.0
C504 C 0.58514 0.80337 0.79793 0.0
C505 C 0.57106 0.79734 0.8156 0.0
C506 C 0.55407 0.82264 0.82339 0.0
C507 C 0.55123 0.85496 0.81288 0.0
C508 C 0.56628 0.86281 0.79471 0.0
C509 C 0.58434 0.83687 0.7874 0.0
H510 H 0.86633 0.54413 0.16054 0.0
H511 H 0.86429 0.45352 0.11906 0.0
H512 H 0.80729 0.46195 0.10243 0.0
H513 H 0.7453 0.50257 0.15921 0.0
H514 H 0.75127 0.55742 0.16281 0.0
H515 H 0.79269 0.545 0.17179 0.0
H516 H 0.85598 0.61458 0.15516 0.0
H517 H 0.81472 0.62709 0.14606 0.0
H518 H 0.85202 0.61957 0.13119 0.0
H519 H 0.75364 0.48116 0.08955 0.0
H520 H 0.69976 0.50617 0.08194 0.0
H521 H 0.73168 0.58213 0.1318 0.0
C522 C 0.85371 0.52602 0.148 0.0
C523 C 0.86982 0.49813 0.14115 0.0
C524 C 0.85234 0.47481 0.1247 0.0
C525 C 0.82005 0.47951 0.11506 0.0
C526 C 0.80506 0.50727 0.12208 0.0
C527 C 0.82069 0.52978 0.13823 0.0
C528 C 0.79763 0.55666 0.14271 0.0
C529 C 0.77009 0.53936 0.16017 0.0
C530 C 0.83216 0.60749 0.14384 0.0
C531 C 0.76707 0.54583 0.12647 0.0
C532 C 0.77244 0.51757 0.11473 0.0
C533 C 0.74895 0.50322 0.09861 0.0
C534 C 0.71871 0.51786 0.09435 0.0
C535 C 0.71199 0.54635 0.10621 0.0
C536 C 0.73634 0.56039 0.12253 0.0
H537 H 0.29394 0.87948 0.48815 0.0
H538 H 0.33928 0.82358 0.53022 0.0
H539 H 0.26803 0.75089 0.5277 0.0
H540 H 0.17004 0.81391 0.49975 0.0
H541 H 0.15449 0.80735 0.47634 0.0
H542 H 0.20501 0.85723 0.48383 0.0
H543 H 0.25178 0.84159 0.46053 0.0
H544 H 0.20172 0.79148 0.45313 0.0
H545 H 0.2497 0.78787 0.46083 0.0
H546 H 0.199 0.6815 0.51701 0.0
H547 H 0.13599 0.62141 0.49993 0.0
H548 H 0.13346 0.72275 0.46554 0.0
C549 C 0.28836 0.85248 0.49727 0.0
C550 C 0.32226 0.85735 0.50942 0.0
C551 C 0.31381 0.82082 0.52086 0.0
C552 C 0.27336 0.77937 0.51955 0.0
C553 C 0.24149 0.77517 0.5069 0.0
C554 C 0.24823 0.81095 0.49613 0.0
C555 C 0.21083 0.79644 0.48239 0.0
C556 C 0.18346 0.82014 0.48579 0.0
C557 C 0.22966 0.80483 0.46309 0.0
C558 C 0.18321 0.74645 0.48653 0.0
C559 C 0.20108 0.73498 0.50087 0.0
C560 C 0.18391 0.69021 0.5061 0.0
C561 C 0.14785 0.65625 0.49631 0.0
C562 C 0.12922 0.66713 0.48142 0.0
C563 C 0.1468 0.71307 0.47679 0.0
H564 H 0.49887 0.33557 0.84221 0.0
H565 H 0.37036 0.30839 0.82003 0.0
H566 H 0.35181 0.23061 0.81281 0.0
H567 H 0.52413 0.28284 0.80941 0.0
H568 H 0.55036 0.26 0.82367 0.0
H569 H 0.54985 0.3102 0.83036 0.0
H570 H 0.51097 0.272 0.86038 0.0
H571 H 0.51151 0.22153 0.85379 0.0
H572 H 0.45909 0.21835 0.86 0.0
H573 H 0.35273 0.16131 0.8034 0.0
H574 H 0.37295 0.10522 0.79284 0.0
H575 H 0.50021 0.17668 0.82134 0.0
C576 C 0.4662 0.31288 0.83635 0.0
C577 C 0.43603 0.3281 0.83174 0.0
C578 C 0.39401 0.29753 0.82374 0.0
C579 C 0.38306 0.25317 0.81966 0.0
C580 C 0.41424 0.23975 0.82383 0.0
C581 C 0.4548 0.26856 0.83215 0.0
C582 C 0.48458 0.24764 0.83337 0.0
C583 C 0.52987 0.2769 0.82362 0.0
C584 C 0.49195 0.23938 0.85306 0.0
C585 C 0.45538 0.20352 0.82362 0.0
C586 C 0.4146 0.19926 0.81849 0.0
C587 C 0.38402 0.16368 0.80771 0.0
C588 C 0.39582 0.13215 0.80171 0.0
C589 C 0.43781 0.13653 0.80651 0.0
C590 C 0.46737 0.17198 0.81795 0.0
H591 H 0.50349 0.84953 0.53391 0.0
H592 H 0.56925 0.87741 0.48176 0.0
H593 H 0.59856 0.82625 0.4892 0.0
H594 H 0.59051 0.84558 0.55901 0.0
H595 H 0.55129 0.80039 0.57338 0.0
H596 H 0.53611 0.83938 0.5639 0.0
H597 H 0.46411 0.77268 0.54984 0.0
H598 H 0.47874 0.7335 0.55947 0.0
H599 H 0.46932 0.73285 0.53561 0.0
H600 H 0.61933 0.77031 0.50259 0.0
H601 H 0.62668 0.71266 0.52005 0.0
H602 H 0.54706 0.72377 0.56302 0.0
C603 C 0.52404 0.84506 0.52397 0.0
C604 C 0.53408 0.86755 0.50724 0.0
C605 C 0.56102 0.86045 0.49466 0.0
C606 C 0.57798 0.83165 0.4988 0.0
C607 C 0.56773 0.81045 0.51555 0.0
C608 C 0.54119 0.81678 0.52787 0.0
C609 C 0.53398 0.78958 0.54477 0.0
C610 C 0.55419 0.8206 0.56123 0.0
C611 C 0.48356 0.75511 0.54757 0.0
C612 C 0.5604 0.76656 0.54008 0.0
C613 C 0.57984 0.77902 0.52322 0.0
C614 C 0.60443 0.76054 0.51584 0.0
C615 C 0.60839 0.72785 0.52582 0.0
C616 C 0.58785 0.71411 0.54297 0.0
C617 C 0.56419 0.73437 0.55019 0.0
H618 H 0.65662 0.54826 0.86622 0.0
H619 H 0.67295 0.53968 0.8088 0.0
H620 H 0.75405 0.56562 0.8134 0.0
H621 H 0.76579 0.65125 0.87286 0.0
H622 H 0.77425 0.63371 0.89466 0.0
H623 H 0.71786 0.61508 0.88674 0.0
H624 H 0.69655 0.53164 0.89165 0.0
H625 H 0.75278 0.54999 0.89959 0.0
H626 H 0.72996 0.51079 0.88109 0.0
H627 H 0.83017 0.58415 0.82478 0.0
H628 H 0.8978 0.59933 0.84142 0.0
H629 H 0.8348 0.60722 0.89114 0.0
C630 C 0.67737 0.55185 0.85465 0.0
C631 C 0.65885 0.54153 0.83719 0.0
C632 C 0.68684 0.54735 0.82227 0.0
C633 C 0.73275 0.56206 0.82476 0.0
C634 C 0.75002 0.57189 0.84218 0.0
C635 C 0.72338 0.56771 0.85683 0.0
C636 C 0.75031 0.58082 0.87411 0.0
C637 C 0.75216 0.62271 0.88259 0.0
C638 C 0.73126 0.54093 0.88738 0.0
C639 C 0.79599 0.59156 0.86696 0.0
C640 C 0.79501 0.58603 0.84855 0.0
C641 C 0.83184 0.58994 0.83914 0.0
C642 C 0.87055 0.5992 0.84882 0.0
C643 C 0.87277 0.60549 0.86778 0.0
C644 C 0.83491 0.60247 0.87678 0.0
H645 H 0.17084 0.64543 0.15603 0.0
H646 H 0.06669 0.67666 0.17054 0.0
H647 H 0.12526 0.75595 0.1761 0.0
H648 H 0.24301 0.70491 0.18972 0.0
H649 H 0.29453 0.7246 0.17712 0.0
H650 H 0.24466 0.67318 0.17066 0.0
H651 H 0.24997 0.70491 0.13855 0.0
H652 H 0.30013 0.75661 0.14493 0.0
H653 H 0.25247 0.75843 0.13564 0.0
H654 H 0.19433 0.8274 0.18483 0.0
H655 H 0.26878 0.88527 0.19649 0.0
H656 H 0.32811 0.80779 0.17645 0.0
C657 C 0.16018 0.66922 0.15981 0.0
C658 C 0.11414 0.65487 0.16276 0.0
C659 C 0.10174 0.68688 0.16814 0.0
C660 C 0.13476 0.73207 0.17123 0.0
C661 C 0.17996 0.74475 0.16876 0.0
C662 C 0.19269 0.71431 0.16305 0.0
C663 C 0.24349 0.7349 0.16357 0.0
C664 C 0.25719 0.7078 0.17601 0.0
C665 C 0.26264 0.73896 0.14454 0.0
C666 C 0.25723 0.78094 0.17131 0.0
C667 C 0.22015 0.78629 0.17386 0.0
C668 C 0.22372 0.82406 0.18253 0.0
C669 C 0.26601 0.85661 0.18916 0.0
C670 C 0.30404 0.85103 0.18716 0.0
C671 C 0.29977 0.81339 0.17768 0.0
H672 H 0.52095 0.169 0.49711 0.0
H673 H 0.37722 0.0736 0.50096 0.0
H674 H 0.36297 0.13706 0.5053 0.0
H675 H 0.52733 0.23993 0.53068 0.0
H676 H 0.56826 0.2917 0.51991 0.0
H677 H 0.56623 0.23958 0.51441 0.0
H678 H 0.55612 0.25156 0.48071 0.0
H679 H 0.55819 0.30396 0.48611 0.0
H680 H 0.51068 0.26051 0.47392 0.0
H681 H 0.36617 0.20918 0.51456 0.0
H682 H 0.38639 0.28501 0.52616 0.0
H683 H 0.52714 0.33337 0.5143 0.0
C684 C 0.48637 0.1615 0.49849 0.0
C685 C 0.45017 0.1165 0.49877 0.0
C686 C 0.4054 0.10793 0.50062 0.0
C687 C 0.39701 0.14373 0.50306 0.0
C688 C 0.43367 0.18775 0.50319 0.0
C689 C 0.47741 0.19674 0.50066 0.0
C690 C 0.51123 0.24655 0.50267 0.0
C691 C 0.54523 0.25489 0.51782 0.0
C692 C 0.53547 0.26684 0.48478 0.0
C693 C 0.47993 0.26398 0.50764 0.0
C694 C 0.43524 0.22965 0.50773 0.0
C695 C 0.4008 0.23661 0.51399 0.0
C696 C 0.41248 0.27956 0.52056 0.0
C697 C 0.45803 0.31477 0.52061 0.0
C698 C 0.49193 0.30716 0.51374 0.0
H699 H 0.37495 0.56213 0.84772 0.0
H700 H 0.29956 0.42925 0.82327 0.0
H701 H 0.22891 0.43154 0.82719 0.0
H702 H 0.30096 0.54362 0.88143 0.0
H703 H 0.30879 0.59981 0.88158 0.0
H704 H 0.3534 0.59101 0.87379 0.0
H705 H 0.3553 0.62926 0.84344 0.0
H706 H 0.31049 0.63822 0.85117 0.0
H707 H 0.30426 0.60836 0.83044 0.0
H708 H 0.16606 0.44408 0.83786 0.0
H709 H 0.11695 0.46485 0.85505 0.0
H710 H 0.23466 0.58857 0.87249 0.0
C711 C 0.34378 0.53376 0.84284 0.0
C712 C 0.34267 0.49543 0.83524 0.0
C713 C 0.30113 0.45903 0.82909 0.0
C714 C 0.26094 0.46015 0.83119 0.0
C715 C 0.26322 0.49814 0.8392 0.0
C716 C 0.30374 0.53438 0.84481 0.0
C717 C 0.29715 0.56908 0.85477 0.0
C718 C 0.31617 0.57624 0.87402 0.0
C719 C 0.31804 0.61388 0.84433 0.0
C720 C 0.24633 0.54574 0.85474 0.0
C721 C 0.22722 0.50534 0.84534 0.0
C722 C 0.18061 0.47608 0.84488 0.0
C723 C 0.15305 0.48801 0.85462 0.0
C724 C 0.17253 0.52846 0.8647 0.0
C725 C 0.21939 0.55801 0.86446 0.0
H726 H 0.90319 0.31395 0.20694 0.0
H727 H 0.86868 0.30229 0.15023 0.0
H728 H 0.80259 0.22767 0.15565 0.0
H729 H 0.86086 0.1885 0.21375 0.0
H730 H 0.84002 0.18932 0.23592 0.0
H731 H 0.88924 0.23885 0.22732 0.0
H732 H 0.85064 0.28612 0.23332 0.0
H733 H 0.80118 0.23679 0.24169 0.0
H734 H 0.79624 0.26868 0.22344 0.0
H735 H 0.73348 0.1645 0.16757 0.0
H736 H 0.66834 0.11052 0.18472 0.0
H737 H 0.74904 0.15401 0.23373 0.0
C738 C 0.88253 0.295 0.1956 0.0
C739 C 0.89105 0.3142 0.17819 0.0
C740 C 0.86279 0.2886 0.16373 0.0
C741 C 0.82517 0.24596 0.16663 0.0
C742 C 0.81655 0.2288 0.184 0.0
C743 C 0.84476 0.25184 0.19823 0.0
C744 C 0.82535 0.22673 0.21576 0.0
C745 C 0.85568 0.20984 0.22365 0.0
C746 C 0.81791 0.25635 0.22934 0.0
C747 C 0.7808 0.18763 0.20919 0.0
C748 C 0.77678 0.18957 0.19082 0.0
C749 C 0.7368 0.16118 0.18187 0.0
C750 C 0.69972 0.12992 0.19191 0.0
C751 C 0.70272 0.12608 0.21084 0.0
C752 C 0.74458 0.15521 0.21941 0.0
H753 H 0.04463 0.53823 0.09371 0.0
H754 H 0.97629 0.39189 0.0962 0.0
H755 H 0.96513 0.38789 0.06326 0.0
H756 H 0.97017 0.54267 0.06264 0.0
H757 H 0.01239 0.59178 0.0508 0.0
H758 H 0.02058 0.58383 0.07412 0.0
H759 H 0.09707 0.5893 0.06658 0.0
H760 H 0.08954 0.59808 0.04326 0.0
H761 H 0.0992 0.55279 0.0496 0.0
H762 H 0.95864 0.39979 0.03037 0.0
H763 H 0.95679 0.42701 -0.00033 0.0
H764 H 0.024 0.56502 0.01911 0.0
C765 C 0.02854 0.50545 0.08722 0.0
C766 C 0.01201 0.46535 0.09735 0.0
C767 C 0.98961 0.42295 0.08856 0.0
C768 C 0.98308 0.42038 0.0699 0.0
C769 C -0.00139 0.46052 0.06034 0.0
C770 C 0.02088 0.50227 0.06868 0.0
C771 C 0.03104 0.54006 0.05557 0.0
C772 C 0.00711 0.5661 0.06112 0.0
C773 C 0.08226 0.57193 0.05364 0.0
C774 C 0.01079 0.51304 0.03858 0.0
C775 C 0.99267 0.46724 0.04158 0.0
C776 C 0.97257 0.43552 0.02787 0.0
C777 C 0.97143 0.45113 0.01057 0.0
C778 C 0.98958 0.49779 0.00732 0.0
C779 C 0.00925 0.52908 0.02147 0.0
H780 H 0.50449 0.96469 0.42206 0.0
H781 H 0.38327 0.9684 0.43631 0.0
H782 H 0.36755 0.9718 0.40431 0.0
H783 H 0.53743 0.04213 0.38549 0.0
H784 H 0.55725 0.01265 0.37149 0.0
H785 H 0.55874 0.00866 0.3956 0.0
H786 H 0.51142 0.92128 0.39366 0.0
H787 H 0.51024 0.92498 0.36953 0.0
H788 H 0.45814 0.89505 0.38195 0.0
H789 H 0.366 0.97788 0.3712 0.0
H790 H 0.37645 0.98166 0.33834 0.0
H791 H 0.49775 0.97284 0.34506 0.0
C792 C 0.47437 0.96566 0.41844 0.0
C793 C 0.44519 0.96634 0.43174 0.0
C794 C 0.40627 0.96798 0.42642 0.0
C795 C 0.397 0.96997 0.40826 0.0
C796 C 0.42686 0.9702 0.39554 0.0
C797 C 0.46454 0.96771 0.40031 0.0
C798 C 0.49122 0.96891 0.38384 0.0
C799 C 0.53899 0.01057 0.38413 0.0
C800 C 0.49283 0.92493 0.38215 0.0
C801 C 0.46266 0.97264 0.36914 0.0
C802 C 0.42578 0.97341 0.37624 0.0
C803 C 0.39453 0.97692 0.36543 0.0
C804 C 0.40068 0.97891 0.3468 0.0
C805 C 0.4377 0.97722 0.33915 0.0
C806 C 0.46934 0.97457 0.35053 0.0
H807 H 0.54354 0.52949 0.75641 0.0
H808 H 0.40726 0.41941 0.76678 0.0
H809 H 0.39568 0.40383 0.73439 0.0
H810 H 0.51731 0.56834 0.71536 0.0
H811 H 0.5694 0.58138 0.70437 0.0
H812 H 0.56741 0.58464 0.7285 0.0
H813 H 0.59773 0.52915 0.73161 0.0
H814 H 0.59987 0.52577 0.7075 0.0
H815 H 0.56838 0.47494 0.72057 0.0
H816 H 0.39845 0.39891 0.70125 0.0
H817 H 0.41567 0.40534 0.66885 0.0
H818 H 0.54995 0.51828 0.67943 0.0
C819 C 0.51125 0.50217 0.75187 0.0
C820 C 0.47635 0.47573 0.76421 0.0
C821 C 0.43458 0.44025 0.75767 0.0
C822 C 0.42758 0.43107 0.73926 0.0
C823 C 0.46258 0.45767 0.72751 0.0
C824 C 0.50358 0.49252 0.73348 0.0
C825 C 0.53556 0.51562 0.71788 0.0
C826 C 0.54815 0.56545 0.71645 0.0
C827 C 0.57789 0.51108 0.71949 0.0
C828 C 0.5061 0.4881 0.70228 0.0
C829 C 0.46416 0.45488 0.70819 0.0
C830 C 0.43118 0.42474 0.69642 0.0
C831 C 0.44137 0.42849 0.67807 0.0
C832 C 0.4842 0.46211 0.67166 0.0
C833 C 0.51683 0.49247 0.68395 0.0
H834 H 0.4825 0.95784 0.5761 0.0
H835 H 0.55819 0.10005 0.56161 0.0
H836 H 0.56944 0.12057 0.59371 0.0
H837 H 0.42503 0.96956 0.61334 0.0
H838 H 0.42781 0.92734 0.62688 0.0
H839 H 0.42768 0.92354 0.60274 0.0
H840 H 0.50235 0.92164 0.60383 0.0
H841 H 0.5027 0.9254 0.628 0.0
H842 H 0.55069 0.96625 0.61522 0.0
H843 H 0.56854 0.12602 0.62714 0.0
H844 H 0.55727 0.11581 0.65998 0.0
H845 H 0.48357 0.97026 0.65287 0.0
C846 C 0.50174 0.99331 0.57965 0.0
C847 C 0.51942 0.02733 0.5663 0.0
C848 C 0.54438 0.07334 0.57156 0.0
C849 C 0.55098 0.08537 0.58977 0.0
C850 C 0.53276 0.05102 0.60255 0.0
C851 C 0.5089 0.00593 0.59776 0.0
C852 C 0.49194 0.9757 0.61418 0.0
C853 C 0.44004 0.94738 0.61428 0.0
C854 C 0.5132 0.94547 0.61537 0.0
C855 C 0.5093 0.01093 0.62893 0.0
C856 C 0.53284 0.05415 0.62192 0.0
C857 C 0.55051 0.09236 0.63282 0.0
C858 C 0.54374 0.08625 0.6514 0.0
C859 C 0.51963 0.04229 0.65887 0.0
C860 C 0.50263 0.0042 0.64749 0.0
H861 H 0.50641 0.56139 0.90755 0.0
H862 H 0.45201 0.41699 0.90173 0.0
H863 H 0.43376 0.40657 0.93419 0.0
H864 H 0.55987 0.57012 0.95016 0.0
H865 H 0.5491 0.61314 0.95869 0.0
H866 H 0.55543 0.60861 0.93488 0.0
H867 H 0.47732 0.60146 0.92949 0.0
H868 H 0.47053 0.60546 0.95332 0.0
H869 H 0.4283 0.55768 0.94086 0.0
H870 H 0.41945 0.41176 0.96698 0.0
H871 H 0.42015 0.43332 0.99883 0.0
H872 H 0.48946 0.57472 0.98372 0.0
C873 C 0.49056 0.5276 0.91314 0.0
C874 C 0.48026 0.4899 0.90221 0.0
C875 C 0.46023 0.44627 0.90996 0.0
C876 C 0.44946 0.44001 0.92831 0.0
C877 C 0.45967 0.47786 0.93872 0.0
C878 C 0.48058 0.5209 0.9315 0.0
C879 C 0.49065 0.55617 0.94584 0.0
C880 C 0.5418 0.58893 0.94749 0.0
C881 C 0.46517 0.58169 0.94215 0.0
C882 C 0.47207 0.52624 0.96225 0.0
C883 C 0.45356 0.4811 0.95779 0.0
C884 C 0.43393 0.44697 0.97065 0.0
C885 C 0.4342 0.45942 0.98862 0.0
C886 C 0.45454 0.50548 0.9935 0.0
C887 C 0.47341 0.53927 0.98017 0.0
H888 H 0.00268 0.46901 0.24321 0.0
H889 H 0.98261 0.5791 0.22619 0.0
H890 H 0.98774 0.60336 0.2578 0.0
H891 H 0.93727 0.44269 0.28394 0.0
H892 H 0.97451 0.42974 0.29638 0.0
H893 H 0.96895 0.4212 0.27242 0.0
H894 H 0.0556 0.47246 0.26885 0.0
H895 H 0.06138 0.48145 0.29279 0.0
H896 H 0.08304 0.52915 0.27775 0.0
H897 H 0.99712 0.61668 0.29144 0.0
H898 H 0.00451 0.6144 0.3245 0.0
H899 H 0.01808 0.49551 0.31903 0.0
C900 C -0.00084 0.49813 0.24609 0.0
C901 C 0.99229 0.52216 0.23218 0.0
C902 C 0.98774 0.56001 0.2366 0.0
C903 C 0.9908 0.57419 0.25451 0.0
C904 C -0.0018 0.55005 0.26785 0.0
C905 C 0.00191 0.51259 0.26384 0.0
C906 C 0.00929 0.49217 0.28061 0.0
C907 C 0.97017 0.44358 0.28351 0.0
C908 C 0.05505 0.49394 0.27995 0.0
C909 C 0.00919 0.52399 0.29469 0.0
C910 C 0.00303 0.55736 0.2871 0.0
C911 C 0.0019 0.59066 0.29754 0.0
C912 C 0.00643 0.58931 0.31626 0.0
C913 C 0.01172 0.55472 0.32429 0.0
C914 C 0.0136 0.52208 0.31327 0.0
loop_
_geom_bond_atom_site_label_1
_geom_bond_atom_site_label_2
_geom_bond_distance
_geom_bond_site_symmetry_2
_ccdc_geom_bond_type
O0 Zn1 1.953 . S
O0 C16 1.225 1_655 S
Zn1 O0 1.953 . S
Zn1 O2 1.949 1_655 S
Zn1 O8 1.919 . S
Zn1 O13 1.924 1_655 S
O2 Zn1 1.949 1_455 S
O2 Zn3 1.923 1_455 S
O2 Zn4 1.950 . S
O2 Zn5 1.945 . S
Zn3 O2 1.923 1_655 S
Zn3 O6 1.933 . S
Zn3 O9 1.941 . S
Zn3 O10 1.965 . S
Zn4 O2 1.950 . S
Zn4 O11 1.938 1_455 S
Zn4 O12 1.906 . S
Zn4 O22 1.953 . S
Zn5 O2 1.945 . S
Zn5 O7 1.932 . S
Zn5 O14 1.977 . S
Zn5 O15 1.910 . S
O6 Zn3 1.933 . S
O6 C17 1.226 1_655 S
O7 Zn5 1.932 . S
O7 C17 1.307 . S
O8 Zn1 1.919 . S
O8 C19 1.253 . S
O9 Zn3 1.941 . S
O9 C19 1.283 . S
O10 Zn3 1.965 . S
O10 C18 1.303 . S
O11 Zn4 1.938 1_655 S
O11 C18 1.247 . S
O12 Zn4 1.906 . S
O12 C20 1.304 . S
O13 Zn1 1.924 1_455 S
O13 C21 1.311 . S
O14 Zn5 1.977 . S
O14 C20 1.272 . S
O15 Zn5 1.910 . S
O15 C21 1.231 . S
C16 O0 1.225 1_455 S
C16 O22 1.298 . S
C17 O6 1.226 1_455 S
C17 O7 1.307 . S
C18 O10 1.303 . S
C18 O11 1.247 . S
C19 O8 1.253 . S
C19 O9 1.283 . S
C20 O12 1.304 . S
C20 O14 1.272 . S
C21 O13 1.311 . S
C21 O15 1.231 . S
O22 Zn4 1.953 . S
O22 C16 1.298 . S
O23 Zn24 1.953 . S
O23 C39 1.225 . S
Zn24 O23 1.953 . S
Zn24 O25 1.949 . S
Zn24 O31 1.919 . S
Zn24 O36 1.924 1_545 S
O25 Zn24 1.949 . S
O25 Zn26 1.923 . S
O25 Zn27 1.950 1_545 S
O25 Zn28 1.945 1_545 S
Zn26 O25 1.923 . S
Zn26 O29 1.933 . S
Zn26 O32 1.941 . S
Zn26 O33 1.965 . S
Zn27 O25 1.950 1_565 S
Zn27 O34 1.938 1_565 S
Zn27 O35 1.906 . S
Zn27 O45 1.953 . S
Zn28 O25 1.945 1_565 S
Zn28 O30 1.932 . S
Zn28 O37 1.977 . S
Zn28 O38 1.910 . S
O29 Zn26 1.933 . S
O29 C40 1.226 . S
O30 Zn28 1.932 . S
O30 C40 1.307 1_565 S
O31 Zn24 1.919 . S
O31 C42 1.253 . S
O32 Zn26 1.941 . S
O32 C42 1.283 . S
O33 Zn26 1.965 . S
O33 C41 1.303 . S
O34 Zn27 1.938 1_545 S
O34 C41 1.247 . S
O35 Zn27 1.906 . S
O35 C43 1.304 . S
O36 Zn24 1.924 1_565 S
O36 C44 1.311 . S
O37 Zn28 1.977 . S
O37 C43 1.272 . S
O38 Zn28 1.910 . S
O38 C44 1.231 . S
C39 O23 1.225 . S
C39 O45 1.298 1_545 S
C40 O29 1.226 . S
C40 O30 1.307 1_545 S
C41 O33 1.303 . S
C41 O34 1.247 . S
C42 O31 1.253 . S
C42 O32 1.283 . S
C43 O35 1.304 . S
C43 O37 1.272 . S
C44 O36 1.311 . S
C44 O38 1.231 . S
O45 Zn27 1.953 . S
O45 C39 1.298 1_565 S
O46 Zn47 1.953 . S
O46 C62 1.225 . S
Zn47 O46 1.953 . S
Zn47 O48 1.949 . S
Zn47 O54 1.919 . S
Zn47 O59 1.924 . S
O48 Zn47 1.949 . S
O48 Zn49 1.923 . S
O48 Zn50 1.950 . S
O48 Zn51 1.945 . S
Zn49 O48 1.923 . S
Zn49 O52 1.933 . S
Zn49 O55 1.941 . S
Zn49 O56 1.965 . S
Zn50 O48 1.950 . S
Zn50 O57 1.938 . S
Zn50 O58 1.906 . S
Zn50 O68 1.953 . S
Zn51 O48 1.945 . S
Zn51 O53 1.932 . S
Zn51 O60 1.977 . S
Zn51 O61 1.910 . S
O52 Zn49 1.933 . S
O52 C63 1.226 . S
O53 Zn51 1.932 . S
O53 C63 1.307 . S
O54 Zn47 1.919 . S
O54 C65 1.253 . S
O55 Zn49 1.941 . S
O55 C65 1.283 . S
O56 Zn49 1.965 . S
O56 C64 1.303 . S
O57 Zn50 1.938 . S
O57 C64 1.247 . S
O58 Zn50 1.906 . S
O58 C66 1.304 . S
O59 Zn47 1.924 . S
O59 C67 1.311 . S
O60 Zn51 1.977 . S
O60 C66 1.272 . S
O61 Zn51 1.910 . S
O61 C67 1.231 . S
C62 O46 1.225 . S
C62 O68 1.298 . S
C63 O52 1.226 . S
C63 O53 1.307 . S
C64 O56 1.303 . S
C64 O57 1.247 . S
C65 O54 1.253 . S
C65 O55 1.283 . S
C66 O58 1.304 . S
C66 O60 1.272 . S
C67 O59 1.311 . S
C67 O61 1.231 . S
O68 Zn50 1.953 . S
O68 C62 1.298 . S
C69 C70 1.391 . S
C69 C73 1.391 . S
C69 H111 0.948 . S
C70 C69 1.391 . S
C70 C71 1.391 . S
C71 C70 1.391 . S
C71 H127 0.947 . S
C71 C128 1.392 . S
C72 C73 1.391 . S
C72 C76 1.397 . S
C72 C128 1.419 . S
C73 C69 1.391 . S
C73 C72 1.391 . S
C73 C74 1.399 . S
C74 C73 1.399 . S
C74 C77 1.396 . S
C74 C86 1.453 . S
C74 C87 1.684 . S
H75 C99 0.948 . S
C76 C72 1.397 . S
C76 C77 1.394 . S
C76 C95 1.723 . S
C77 C74 1.396 . S
C77 C76 1.394 . S
C77 C107 1.723 1_545 S
H78 C101 0.947 . S
H79 C102 0.948 . S
H80 C108 0.982 . S
H81 C109 0.979 . S
H82 C109 0.980 . S
H83 C109 0.983 . S
H84 C108 0.979 . S
H85 C108 0.977 . S
C86 C74 1.453 . S
C86 H115 0.982 . S
C86 H116 0.979 . S
C86 H117 0.977 1_545 S
C87 C74 1.684 . S
C87 H112 0.979 . S
C87 H113 0.980 . S
C87 H114 0.983 . S
C88 C89 1.391 . S
C88 C93 1.391 . S
C88 H118 0.948 . S
C89 C88 1.391 . S
C89 C90 1.391 1_545 S
C90 C89 1.391 1_565 S
C90 C91 1.392 . S
C90 H119 0.947 . S
C91 C90 1.392 . S
C91 C92 1.419 . S
C91 H120 0.948 . S
C92 C91 1.419 . S
C92 C93 1.391 1_565 S
C92 C96 1.397 1_565 S
C93 C88 1.391 . S
C93 C92 1.391 1_545 S
C93 C94 1.399 . S
C94 C93 1.399 . S
C94 C95 1.396 . S
C94 C97 1.453 . S
C94 C98 1.684 . S
C95 C76 1.723 . S
C95 C94 1.396 . S
C95 C96 1.394 . S
C96 C92 1.397 1_545 S
C96 C95 1.394 . S
C96 C106 1.723 1_545 S
C97 C94 1.453 . S
C97 H121 0.982 . S
C97 H122 0.979 . S
C97 H123 0.977 . S
C98 C94 1.684 . S
C98 H124 0.979 . S
C98 H125 0.980 . S
C98 H126 0.983 . S
C99 H75 0.948 . S
C99 C100 1.391 . S
C99 C104 1.391 . S
C100 C99 1.391 . S
C100 C101 1.391 . S
C101 H78 0.947 . S
C101 C100 1.391 . S
C101 C102 1.392 . S
C102 H79 0.948 . S
C102 C101 1.392 . S
C102 C103 1.419 . S
C103 C102 1.419 . S
C103 C104 1.391 . S
C103 C107 1.397 . S
C104 C99 1.391 . S
C104 C103 1.391 . S
C104 C105 1.399 . S
C105 C104 1.399 . S
C105 C106 1.396 . S
C105 C108 1.453 . S
C105 C109 1.684 . S
C106 C96 1.723 1_565 S
C106 C105 1.396 . S
C106 C107 1.394 . S
C107 C77 1.723 1_565 S
C107 C103 1.397 . S
C107 C106 1.394 . S
C108 H80 0.982 . S
C108 H84 0.979 . S
C108 H85 0.977 . S
C108 C105 1.453 . S
C109 H81 0.979 . S
C109 H82 0.980 . S
C109 H83 0.983 . S
C109 C105 1.684 . S
H110 C128 0.948 . S
H111 C69 0.948 . S
H112 C87 0.979 . S
H113 C87 0.980 . S
H114 C87 0.983 . S
H115 C86 0.982 . S
H116 C86 0.979 . S
H117 C86 0.977 1_565 S
H118 C88 0.948 . S
H119 C90 0.947 . S
H120 C91 0.948 . S
H121 C97 0.982 . S
H122 C97 0.979 . S
H123 C97 0.977 . S
H124 C98 0.979 . S
H125 C98 0.980 . S
H126 C98 0.983 . S
H127 C71 0.947 . S
C128 C71 1.392 . S
C128 C72 1.419 . S
C128 H110 0.948 . S
C129 C130 1.391 . S
C129 C133 1.391 . S
C129 H171 0.948 . S
C130 C129 1.391 . S
C130 C131 1.391 . S
C131 C130 1.391 . S
C131 H187 0.947 . S
C131 C188 1.392 . S
C132 C133 1.391 . S
C132 C136 1.397 . S
C132 C188 1.419 . S
C133 C129 1.391 . S
C133 C132 1.391 . S
C133 C134 1.399 . S
C134 C133 1.399 . S
C134 C137 1.396 . S
C134 C146 1.453 . S
C134 C147 1.684 . S
H135 C159 0.948 . S
C136 C132 1.397 . S
C136 C137 1.394 . S
C136 C155 1.723 . S
C137 C134 1.396 . S
C137 C136 1.394 . S
C137 C167 1.723 . S
H138 C161 0.947 . S
H139 C162 0.948 . S
H140 C168 0.982 . S
H141 C169 0.979 . S
H142 C169 0.980 . S
H143 C169 0.983 . S
H144 C168 0.979 . S
H145 C168 0.977 . S
C146 C134 1.453 . S
C146 H175 0.982 . S
C146 H176 0.979 . S
C146 H177 0.977 . S
C147 C134 1.684 . S
C147 H172 0.979 . S
C147 H173 0.980 . S
C147 H174 0.983 . S
C148 C149 1.391 . S
C148 C153 1.391 . S
C148 H178 0.948 . S
C149 C148 1.391 . S
C149 C150 1.391 . S
C150 C149 1.391 . S
C150 C151 1.392 . S
C150 H179 0.947 . S
C151 C150 1.392 . S
C151 C152 1.419 . S
C151 H180 0.948 . S
C152 C151 1.419 . S
C152 C153 1.391 . S
C152 C156 1.397 . S
C153 C148 1.391 . S
C153 C152 1.391 . S
C153 C154 1.399 . S
C154 C153 1.399 . S
C154 C155 1.396 . S
C154 C157 1.453 . S
C154 C158 1.684 . S
C155 C136 1.723 . S
C155 C154 1.396 . S
C155 C156 1.394 . S
C156 C152 1.397 . S
C156 C155 1.394 . S
C156 C166 1.723 . S
C157 C154 1.453 . S
C157 H181 0.982 . S
C157 H182 0.979 . S
C157 H183 0.977 . S
C158 C154 1.684 . S
C158 H184 0.979 . S
C158 H185 0.980 . S
C158 H186 0.983 . S
C159 H135 0.948 . S
C159 C160 1.391 . S
C159 C164 1.391 . S
C160 C159 1.391 . S
C160 C161 1.391 . S
C161 H138 0.947 . S
C161 C160 1.391 . S
C161 C162 1.392 . S
C162 H139 0.948 . S
C162 C161 1.392 . S
C162 C163 1.419 . S
C163 C162 1.419 . S
C163 C164 1.391 . S
C163 C167 1.397 . S
C164 C159 1.391 . S
C164 C163 1.391 . S
C164 C165 1.399 . S
C165 C164 1.399 . S
C165 C166 1.396 . S
C165 C168 1.453 . S
C165 C169 1.684 . S
C166 C156 1.723 . S
C166 C165 1.396 . S
C166 C167 1.394 . S
C167 C137 1.723 . S
C167 C163 1.397 . S
C167 C166 1.394 . S
C168 H140 0.982 . S
C168 H144 0.979 . S
C168 H145 0.977 . S
C168 C165 1.453 . S
C169 H141 0.979 . S
C169 H142 0.980 . S
C169 H143 0.983 . S
C169 C165 1.684 . S
H170 C188 0.948 . S
H171 C129 0.948 . S
H172 C147 0.979 . S
H173 C147 0.980 . S
H174 C147 0.983 . S
H175 C146 0.982 . S
H176 C146 0.979 . S
H177 C146 0.977 . S
H178 C148 0.948 . S
H179 C150 0.947 . S
H180 C151 0.948 . S
H181 C157 0.982 . S
H182 C157 0.979 . S
H183 C157 0.977 . S
H184 C158 0.979 . S
H185 C158 0.980 . S
H186 C158 0.983 . S
H187 C131 0.947 . S
C188 C131 1.392 . S
C188 C132 1.419 . S
C188 H170 0.948 . S
C189 C190 1.391 . S
C189 C193 1.391 . S
C189 H231 0.948 . S
C190 C189 1.391 . S
C190 C191 1.391 . S
C191 C190 1.391 . S
C191 H247 0.947 . S
C191 C248 1.392 . S
C192 C193 1.391 . S
C192 C196 1.397 . S
C192 C248 1.419 . S
C193 C189 1.391 . S
C193 C192 1.391 . S
C193 C194 1.399 . S
C194 C193 1.399 . S
C194 C197 1.396 . S
C194 C206 1.453 . S
C194 C207 1.684 . S
H195 C219 0.948 . S
C196 C192 1.397 . S
C196 C197 1.394 . S
C196 C215 1.723 . S
C197 C194 1.396 . S
C197 C196 1.394 . S
C197 C227 1.723 1_455 S
H198 C221 0.947 . S
H199 C222 0.948 . S
H200 C228 0.982 . S
H201 C229 0.979 . S
H202 C229 0.980 . S
H203 C229 0.983 . S
H204 C228 0.979 . S
H205 C228 0.977 . S
C206 C194 1.453 . S
C206 H235 0.982 . S
C206 H236 0.979 . S
C206 H237 0.977 1_455 S
C207 C194 1.684 . S
C207 H232 0.979 . S
C207 H233 0.980 . S
C207 H234 0.983 . S
C208 C209 1.391 . S
C208 C213 1.391 . S
C208 H238 0.948 . S
C209 C208 1.391 . S
C209 C210 1.391 1_455 S
C210 C209 1.391 1_655 S
C210 C211 1.392 . S
C210 H239 0.947 . S
C211 C210 1.392 . S
C211 C212 1.419 1_655 S
C211 H240 0.948 . S
C212 C211 1.419 1_455 S
C212 C213 1.391 . S
C212 C216 1.397 . S
C213 C208 1.391 . S
C213 C212 1.391 . S
C213 C214 1.399 . S
C214 C213 1.399 . S
C214 C215 1.396 . S
C214 C217 1.453 . S
C214 C218 1.684 . S
C215 C196 1.723 . S
C215 C214 1.396 . S
C215 C216 1.394 . S
C216 C212 1.397 . S
C216 C215 1.394 . S
C216 C226 1.723 1_455 S
C217 C214 1.453 . S
C217 H241 0.982 . S
C217 H242 0.979 . S
C217 H243 0.977 . S
C218 C214 1.684 . S
C218 H244 0.979 . S
C218 H245 0.980 . S
C218 H246 0.983 . S
C219 H195 0.948 . S
C219 C220 1.391 . S
C219 C224 1.391 . S
C220 C219 1.391 . S
C220 C221 1.391 . S
C221 H198 0.947 . S
C221 C220 1.391 . S
C221 C222 1.392 . S
C222 H199 0.948 . S
C222 C221 1.392 . S
C222 C223 1.419 . S
C223 C222 1.419 . S
C223 C224 1.391 . S
C223 C227 1.397 . S
C224 C219 1.391 . S
C224 C223 1.391 . S
C224 C225 1.399 . S
C225 C224 1.399 . S
C225 C226 1.396 . S
C225 C228 1.453 . S
C225 C229 1.684 . S
C226 C216 1.723 1_655 S
C226 C225 1.396 . S
C226 C227 1.394 . S
C227 C197 1.723 1_655 S
C227 C223 1.397 . S
C227 C226 1.394 . S
C228 H200 0.982 . S
C228 H204 0.979 . S
C228 H205 0.977 . S
C228 C225 1.453 . S
C229 H201 0.979 . S
C229 H202 0.980 . S
C229 H203 0.983 . S
C229 C225 1.684 . S
H230 C248 0.948 . S
H231 C189 0.948 . S
H232 C207 0.979 . S
H233 C207 0.980 . S
H234 C207 0.983 . S
H235 C206 0.982 . S
H236 C206 0.979 . S
H237 C206 0.977 1_655 S
H238 C208 0.948 . S
H239 C210 0.947 . S
H240 C211 0.948 . S
H241 C217 0.982 . S
H242 C217 0.979 . S
H243 C217 0.977 . S
H244 C218 0.979 . S
H245 C218 0.980 . S
H246 C218 0.983 . S
H247 C191 0.947 . S
C248 C191 1.392 . S
C248 C192 1.419 . S
C248 H230 0.948 . S
C249 C250 1.391 . S
C249 C253 1.391 . S
C249 H291 0.948 . S
C250 C249 1.391 . S
C250 C251 1.391 . S
C251 C250 1.391 . S
C251 H307 0.947 . S
C251 C308 1.392 . S
C252 C253 1.391 . S
C252 C256 1.397 . S
C252 C308 1.419 . S
C253 C249 1.391 . S
C253 C252 1.391 . S
C253 C254 1.399 . S
C254 C253 1.399 . S
C254 C257 1.396 . S
C254 C266 1.453 . S
C254 C267 1.684 . S
H255 C279 0.948 . S
C256 C252 1.397 . S
C256 C257 1.394 . S
C256 C275 1.723 . S
C257 C254 1.396 . S
C257 C256 1.394 . S
C257 C287 1.723 1_655 S
H258 C281 0.947 . S
H259 C282 0.948 . S
H260 C288 0.982 . S
H261 C289 0.979 . S
H262 C289 0.980 . S
H263 C289 0.983 . S
H264 C288 0.979 . S
H265 C288 0.977 . S
C266 C254 1.453 . S
C266 H295 0.982 1_655 S
C266 H296 0.979 . S
C266 H297 0.977 1_655 S
C267 C254 1.684 . S
C267 H292 0.979 . S
C267 H293 0.980 . S
C267 H294 0.983 . S
C268 C269 1.391 1_655 S
C268 C273 1.391 . S
C268 H298 0.948 . S
C269 C268 1.391 1_455 S
C269 C270 1.391 . S
C270 C269 1.391 . S
C270 C271 1.392 . S
C270 H299 0.947 . S
C271 C270 1.392 . S
C271 C272 1.419 . S
C271 H300 0.948 . S
C272 C271 1.419 . S
C272 C273 1.391 1_455 S
C272 C276 1.397 . S
C273 C268 1.391 . S
C273 C272 1.391 1_655 S
C273 C274 1.399 . S
C274 C273 1.399 . S
C274 C275 1.396 . S
C274 C277 1.453 . S
C274 C278 1.684 . S
C275 C256 1.723 . S
C275 C274 1.396 . S
C275 C276 1.394 1_655 S
C276 C272 1.397 . S
C276 C275 1.394 1_455 S
C276 C286 1.723 . S
C277 C274 1.453 . S
C277 H301 0.982 . S
C277 H302 0.979 . S
C277 H303 0.977 . S
C278 C274 1.684 . S
C278 H304 0.979 . S
C278 H305 0.980 . S
C278 H306 0.983 . S
C279 H255 0.948 . S
C279 C280 1.391 . S
C279 C284 1.391 . S
C280 C279 1.391 . S
C280 C281 1.391 . S
C281 H258 0.947 . S
C281 C280 1.391 . S
C281 C282 1.392 . S
C282 H259 0.948 . S
C282 C281 1.392 . S
C282 C283 1.419 . S
C283 C282 1.419 . S
C283 C284 1.391 . S
C283 C287 1.397 . S
C284 C279 1.391 . S
C284 C283 1.391 . S
C284 C285 1.399 . S
C285 C284 1.399 . S
C285 C286 1.396 . S
C285 C288 1.453 . S
C285 C289 1.684 . S
C286 C276 1.723 . S
C286 C285 1.396 . S
C286 C287 1.394 . S
C287 C257 1.723 1_455 S
C287 C283 1.397 . S
C287 C286 1.394 . S
C288 H260 0.982 . S
C288 H264 0.979 . S
C288 H265 0.977 . S
C288 C285 1.453 . S
C289 H261 0.979 . S
C289 H262 0.980 . S
C289 H263 0.983 . S
C289 C285 1.684 . S
H290 C308 0.948 . S
H291 C249 0.948 . S
H292 C267 0.979 . S
H293 C267 0.980 . S
H294 C267 0.983 . S
H295 C266 0.982 1_455 S
H296 C266 0.979 . S
H297 C266 0.977 1_455 S
H298 C268 0.948 . S
H299 C270 0.947 . S
H300 C271 0.948 . S
H301 C277 0.982 . S
H302 C277 0.979 . S
H303 C277 0.977 . S
H304 C278 0.979 . S
H305 C278 0.980 . S
H306 C278 0.983 . S
H307 C251 0.947 . S
C308 C251 1.392 . S
C308 C252 1.419 . S
C308 H290 0.948 . S
C309 C310 1.391 . S
C309 C313 1.391 . S
C309 H351 0.948 . S
C310 C309 1.391 . S
C310 C311 1.391 . S
C311 C310 1.391 . S
C311 H367 0.947 . S
C311 C368 1.392 . S
C312 C313 1.391 . S
C312 C316 1.397 . S
C312 C368 1.419 . S
C313 C309 1.391 . S
C313 C312 1.391 . S
C313 C314 1.399 . S
C314 C313 1.399 . S
C314 C317 1.396 . S
C314 C326 1.453 . S
C314 C327 1.684 . S
H315 C339 0.948 . S
C316 C312 1.397 . S
C316 C317 1.394 . S
C316 C335 1.723 . S
C317 C314 1.396 . S
C317 C316 1.394 . S
C317 C347 1.723 1_565 S
H318 C341 0.947 . S
H319 C342 0.948 . S
H320 C348 0.982 . S
H321 C349 0.979 . S
H322 C349 0.980 . S
H323 C349 0.983 . S
H324 C348 0.979 . S
H325 C348 0.977 . S
C326 C314 1.453 . S
C326 H355 0.982 1_565 S
C326 H356 0.979 . S
C326 H357 0.977 1_565 S
C327 C314 1.684 . S
C327 H352 0.979 . S
C327 H353 0.980 . S
C327 H354 0.983 . S
C328 C329 1.391 1_565 S
C328 C333 1.391 . S
C328 H358 0.948 . S
C329 C328 1.391 1_545 S
C329 C330 1.391 . S
C330 C329 1.391 . S
C330 C331 1.392 . S
C330 H359 0.947 . S
C331 C330 1.392 . S
C331 C332 1.419 . S
C331 H360 0.948 . S
C332 C331 1.419 . S
C332 C333 1.391 1_545 S
C332 C336 1.397 . S
C333 C328 1.391 . S
C333 C332 1.391 1_565 S
C333 C334 1.399 . S
C334 C333 1.399 . S
C334 C335 1.396 . S
C334 C337 1.453 . S
C334 C338 1.684 . S
C335 C316 1.723 . S
C335 C334 1.396 . S
C335 C336 1.394 1_565 S
C336 C332 1.397 . S
C336 C335 1.394 1_545 S
C336 C346 1.723 . S
C337 C334 1.453 . S
C337 H361 0.982 . S
C337 H362 0.979 . S
C337 H363 0.977 . S
C338 C334 1.684 . S
C338 H364 0.979 . S
C338 H365 0.980 . S
C338 H366 0.983 . S
C339 H315 0.948 . S
C339 C340 1.391 . S
C339 C344 1.391 . S
C340 C339 1.391 . S
C340 C341 1.391 . S
C341 H318 0.947 . S
C341 C340 1.391 . S
C341 C342 1.392 . S
C342 H319 0.948 . S
C342 C341 1.392 . S
C342 C343 1.419 . S
C343 C342 1.419 . S
C343 C344 1.391 . S
C343 C347 1.397 . S
C344 C339 1.391 . S
C344 C343 1.391 . S
C344 C345 1.399 . S
C345 C344 1.399 . S
C345 C346 1.396 . S
C345 C348 1.453 . S
C345 C349 1.684 . S
C346 C336 1.723 . S
C346 C345 1.396 . S
C346 C347 1.394 . S
C347 C317 1.723 1_545 S
C347 C343 1.397 . S
C347 C346 1.394 . S
C348 H320 0.982 . S
C348 H324 0.979 . S
C348 H325 0.977 . S
C348 C345 1.453 . S
C349 H321 0.979 . S
C349 H322 0.980 . S
C349 H323 0.983 . S
C349 C345 1.684 . S
H350 C368 0.948 . S
H351 C309 0.948 . S
H352 C327 0.979 . S
H353 C327 0.980 . S
H354 C327 0.983 . S
H355 C326 0.982 1_545 S
H356 C326 0.979 . S
H357 C326 0.977 1_545 S
H358 C328 0.948 . S
H359 C330 0.947 . S
H360 C331 0.948 . S
H361 C337 0.982 . S
H362 C337 0.979 . S
H363 C337 0.977 . S
H364 C338 0.979 . S
H365 C338 0.980 . S
H366 C338 0.983 . S
H367 C311 0.947 . S
C368 C311 1.392 . S
C368 C312 1.419 . S
C368 H350 0.948 . S
C369 C370 1.391 . S
C369 C373 1.391 . S
C369 H411 0.948 . S
C370 C369 1.391 . S
C370 C371 1.391 . S
C371 C370 1.391 . S
C371 H427 0.947 . S
C371 C428 1.392 . S
C372 C373 1.391 . S
C372 C376 1.397 . S
C372 C428 1.419 . S
C373 C369 1.391 . S
C373 C372 1.391 . S
C373 C374 1.399 . S
C374 C373 1.399 . S
C374 C377 1.396 . S
C374 C386 1.453 . S
C374 C387 1.684 . S
H375 C399 0.948 . S
C376 C372 1.397 . S
C376 C377 1.394 . S
C376 C395 1.723 . S
C377 C374 1.396 . S
C377 C376 1.394 . S
C377 C407 1.723 . S
H378 C401 0.947 . S
H379 C402 0.948 . S
H380 C408 0.982 . S
H381 C409 0.979 . S
H382 C409 0.980 . S
H383 C409 0.983 . S
H384 C408 0.979 . S
H385 C408 0.977 . S
C386 C374 1.453 . S
C386 H415 0.982 . S
C386 H416 0.979 . S
C386 H417 0.977 . S
C387 C374 1.684 . S
C387 H412 0.979 . S
C387 H413 0.980 . S
C387 H414 0.983 . S
C388 C389 1.391 . S
C388 C393 1.391 . S
C388 H418 0.948 . S
C389 C388 1.391 . S
C389 C390 1.391 . S
C390 C389 1.391 . S
C390 C391 1.392 . S
C390 H419 0.947 . S
C391 C390 1.392 . S
C391 C392 1.419 . S
C391 H420 0.948 . S
C392 C391 1.419 . S
C392 C393 1.391 . S
C392 C396 1.397 . S
C393 C388 1.391 . S
C393 C392 1.391 . S
C393 C394 1.399 . S
C394 C393 1.399 . S
C394 C395 1.396 . S
C394 C397 1.453 . S
C394 C398 1.684 . S
C395 C376 1.723 . S
C395 C394 1.396 . S
C395 C396 1.394 . S
C396 C392 1.397 . S
C396 C395 1.394 . S
C396 C406 1.723 . S
C397 C394 1.453 . S
C397 H421 0.982 . S
C397 H422 0.979 . S
C397 H423 0.977 . S
C398 C394 1.684 . S
C398 H424 0.979 . S
C398 H425 0.980 . S
C398 H426 0.983 . S
C399 H375 0.948 . S
C399 C400 1.391 . S
C399 C404 1.391 . S
C400 C399 1.391 . S
C400 C401 1.391 . S
C401 H378 0.947 . S
C401 C400 1.391 . S
C401 C402 1.392 . S
C402 H379 0.948 . S
C402 C401 1.392 . S
C402 C403 1.419 . S
C403 C402 1.419 . S
C403 C404 1.391 . S
C403 C407 1.397 . S
C404 C399 1.391 . S
C404 C403 1.391 . S
C404 C405 1.399 . S
C405 C404 1.399 . S
C405 C406 1.396 . S
C405 C408 1.453 . S
C405 C409 1.684 . S
C406 C396 1.723 . S
C406 C405 1.396 . S
C406 C407 1.394 . S
C407 C377 1.723 . S
C407 C403 1.397 . S
C407 C406 1.394 . S
C408 H380 0.982 . S
C408 H384 0.979 . S
C408 H385 0.977 . S
C408 C405 1.453 . S
C409 H381 0.979 . S
C409 H382 0.980 . S
C409 H383 0.983 . S
C409 C405 1.684 . S
H410 C428 0.948 . S
H411 C369 0.948 . S
H412 C387 0.979 . S
H413 C387 0.980 . S
H414 C387 0.983 . S
H415 C386 0.982 . S
H416 C386 0.979 . S
H417 C386 0.977 . S
H418 C388 0.948 . S
H419 C390 0.947 . S
H420 C391 0.948 . S
H421 C397 0.982 . S
H422 C397 0.979 . S
H423 C397 0.977 . S
H424 C398 0.979 . S
H425 C398 0.980 . S
H426 C398 0.983 . S
H427 C371 0.947 . S
C428 C371 1.392 . S
C428 C372 1.419 . S
C428 H410 0.948 . S
H429 C441 0.930 . S
H430 C443 0.930 . S
H431 C444 0.930 . S
H432 C448 0.959 . S
H433 C448 0.959 . S
H434 C448 0.961 . S
H435 C449 0.960 . S
H436 C449 0.961 . S
H437 C449 0.959 . S
H438 C452 0.929 . S
H439 C453 0.931 . S
H440 C455 0.930 . S
C441 H429 0.930 . S
C441 C442 1.399 . S
C441 C446 1.399 . S
C442 C441 1.399 . S
C442 C443 1.376 . S
C443 H430 0.930 . S
C443 C442 1.376 . S
C443 C444 1.388 . S
C444 H431 0.930 . S
C444 C443 1.388 . S
C444 C445 1.390 . S
C445 C444 1.390 . S
C445 C446 1.394 . S
C445 C451 1.465 . S
C446 C441 1.399 . S
C446 C445 1.394 . S
C446 C447 1.516 . S
C447 C446 1.516 . S
C447 C448 1.502 . S
C447 C449 1.561 . S
C447 C450 1.526 . S
C448 H432 0.959 . S
C448 H433 0.959 . S
C448 H434 0.961 . S
C448 C447 1.502 . S
C449 H435 0.960 . S
C449 H436 0.961 . S
C449 H437 0.959 . S
C449 C447 1.561 . S
C450 C447 1.526 . S
C450 C451 1.396 . S
C450 C455 1.390 . S
C451 C445 1.465 . S
C451 C450 1.396 . S
C451 C452 1.399 . S
C452 H438 0.929 . S
C452 C451 1.399 . S
C452 C453 1.385 . S
C453 H439 0.931 . S
C453 C452 1.385 . S
C453 C454 1.389 . S
C454 C453 1.389 . S
C454 C455 1.387 . S
C455 H440 0.930 . S
C455 C450 1.390 . S
C455 C454 1.387 . S
H456 C468 0.930 . S
H457 C470 0.930 . S
H458 C471 0.930 . S
H459 C475 0.959 . S
H460 C475 0.959 . S
H461 C475 0.961 . S
H462 C476 0.960 . S
H463 C476 0.961 . S
H464 C476 0.959 . S
H465 C479 0.929 . S
H466 C480 0.931 . S
H467 C482 0.930 . S
C468 H456 0.930 . S
C468 C469 1.399 . S
C468 C473 1.399 . S
C469 C468 1.399 . S
C469 C470 1.376 . S
C470 H457 0.930 . S
C470 C469 1.376 . S
C470 C471 1.388 . S
C471 H458 0.930 . S
C471 C470 1.388 . S
C471 C472 1.390 . S
C472 C471 1.390 . S
C472 C473 1.394 . S
C472 C478 1.465 . S
C473 C468 1.399 . S
C473 C472 1.394 . S
C473 C474 1.516 . S
C474 C473 1.516 . S
C474 C475 1.502 . S
C474 C476 1.561 . S
C474 C477 1.526 . S
C475 H459 0.959 . S
C475 H460 0.959 . S
C475 H461 0.961 . S
C475 C474 1.502 . S
C476 H462 0.960 . S
C476 H463 0.961 . S
C476 H464 0.959 . S
C476 C474 1.561 . S
C477 C474 1.526 . S
C477 C478 1.396 . S
C477 C482 1.390 . S
C478 C472 1.465 . S
C478 C477 1.396 . S
C478 C479 1.399 . S
C479 H465 0.929 . S
C479 C478 1.399 . S
C479 C480 1.385 . S
C480 H466 0.931 . S
C480 C479 1.385 . S
C480 C481 1.389 . S
C481 C480 1.389 . S
C481 C482 1.387 . S
C482 H467 0.930 . S
C482 C477 1.390 . S
C482 C481 1.387 . S
H483 C495 0.930 . S
H484 C497 0.930 . S
H485 C498 0.930 . S
H486 C502 0.959 . S
H487 C502 0.959 . S
H488 C502 0.961 . S
H489 C503 0.960 . S
H490 C503 0.961 . S
H491 C503 0.959 . S
H492 C506 0.929 . S
H493 C507 0.931 . S
H494 C509 0.930 . S
C495 H483 0.930 . S
C495 C496 1.399 . S
C495 C500 1.399 . S
C496 C495 1.399 . S
C496 C497 1.376 . S
C497 H484 0.930 . S
C497 C496 1.376 . S
C497 C498 1.388 . S
C498 H485 0.930 . S
C498 C497 1.388 . S
C498 C499 1.390 . S
C499 C498 1.390 . S
C499 C500 1.394 . S
C499 C505 1.465 . S
C500 C495 1.399 . S
C500 C499 1.394 . S
C500 C501 1.516 . S
C501 C500 1.516 . S
C501 C502 1.502 . S
C501 C503 1.561 . S
C501 C504 1.526 . S
C502 H486 0.959 . S
C502 H487 0.959 . S
C502 H488 0.961 . S
C502 C501 1.502 . S
C503 H489 0.960 . S
C503 H490 0.961 . S
C503 H491 0.959 . S
C503 C501 1.561 . S
C504 C501 1.526 . S
C504 C505 1.396 . S
C504 C509 1.390 . S
C505 C499 1.465 . S
C505 C504 1.396 . S
C505 C506 1.399 . S
C506 H492 0.929 . S
C506 C505 1.399 . S
C506 C507 1.385 . S
C507 H493 0.931 . S
C507 C506 1.385 . S
C507 C508 1.389 . S
C508 C507 1.389 . S
C508 C509 1.387 . S
C509 H494 0.930 . S
C509 C504 1.390 . S
C509 C508 1.387 . S
H510 C522 0.930 . S
H511 C524 0.930 . S
H512 C525 0.930 . S
H513 C529 0.959 . S
H514 C529 0.959 . S
H515 C529 0.961 . S
H516 C530 0.960 . S
H517 C530 0.961 . S
H518 C530 0.959 . S
H519 C533 0.929 . S
H520 C534 0.931 . S
H521 C536 0.930 . S
C522 H510 0.930 . S
C522 C523 1.399 . S
C522 C527 1.399 . S
C523 C522 1.399 . S
C523 C524 1.376 . S
C524 H511 0.930 . S
C524 C523 1.376 . S
C524 C525 1.388 . S
C525 H512 0.930 . S
C525 C524 1.388 . S
C525 C526 1.390 . S
C526 C525 1.390 . S
C526 C527 1.394 . S
C526 C532 1.465 . S
C527 C522 1.399 . S
C527 C526 1.394 . S
C527 C528 1.516 . S
C528 C527 1.516 . S
C528 C529 1.502 . S
C528 C530 1.561 . S
C528 C531 1.526 . S
C529 H513 0.959 . S
C529 H514 0.959 . S
C529 H515 0.961 . S
C529 C528 1.502 . S
C530 H516 0.960 . S
C530 H517 0.961 . S
C530 H518 0.959 . S
C530 C528 1.561 . S
C531 C528 1.526 . S
C531 C532 1.396 . S
C531 C536 1.390 . S
C532 C526 1.465 . S
C532 C531 1.396 . S
C532 C533 1.399 . S
C533 H519 0.929 . S
C533 C532 1.399 . S
C533 C534 1.385 . S
C534 H520 0.931 . S
C534 C533 1.385 . S
C534 C535 1.389 . S
C535 C534 1.389 . S
C535 C536 1.387 . S
C536 H521 0.930 . S
C536 C531 1.390 . S
C536 C535 1.387 . S
H537 C549 0.930 . S
H538 C551 0.930 . S
H539 C552 0.930 . S
H540 C556 0.959 . S
H541 C556 0.959 . S
H542 C556 0.961 . S
H543 C557 0.960 . S
H544 C557 0.961 . S
H545 C557 0.959 . S
H546 C560 0.929 . S
H547 C561 0.931 . S
H548 C563 0.930 . S
C549 H537 0.930 . S
C549 C550 1.399 . S
C549 C554 1.399 . S
C550 C549 1.399 . S
C550 C551 1.376 . S
C551 H538 0.930 . S
C551 C550 1.376 . S
C551 C552 1.388 . S
C552 H539 0.930 . S
C552 C551 1.388 . S
C552 C553 1.390 . S
C553 C552 1.390 . S
C553 C554 1.394 . S
C553 C559 1.465 . S
C554 C549 1.399 . S
C554 C553 1.394 . S
C554 C555 1.516 . S
C555 C554 1.516 . S
C555 C556 1.502 . S
C555 C557 1.561 . S
C555 C558 1.526 . S
C556 H540 0.959 . S
C556 H541 0.959 . S
C556 H542 0.961 . S
C556 C555 1.502 . S
C557 H543 0.960 . S
C557 H544 0.961 . S
C557 H545 0.959 . S
C557 C555 1.561 . S
C558 C555 1.526 . S
C558 C559 1.396 . S
C558 C563 1.390 . S
C559 C553 1.465 . S
C559 C558 1.396 . S
C559 C560 1.399 . S
C560 H546 0.929 . S
C560 C559 1.399 . S
C560 C561 1.385 . S
C561 H547 0.931 . S
C561 C560 1.385 . S
C561 C562 1.389 . S
C562 C561 1.389 . S
C562 C563 1.387 . S
C563 H548 0.930 . S
C563 C558 1.390 . S
C563 C562 1.387 . S
H564 C576 0.930 . S
H565 C578 0.930 . S
H566 C579 0.930 . S
H567 C583 0.959 . S
H568 C583 0.959 . S
H569 C583 0.961 . S
H570 C584 0.960 . S
H571 C584 0.961 . S
H572 C584 0.959 . S
H573 C587 0.929 . S
H574 C588 0.931 . S
H575 C590 0.930 . S
C576 H564 0.930 . S
C576 C577 1.399 . S
C576 C581 1.399 . S
C577 C576 1.399 . S
C577 C578 1.376 . S
C578 H565 0.930 . S
C578 C577 1.376 . S
C578 C579 1.388 . S
C579 H566 0.930 . S
C579 C578 1.388 . S
C579 C580 1.390 . S
C580 C579 1.390 . S
C580 C581 1.394 . S
C580 C586 1.465 . S
C581 C576 1.399 . S
C581 C580 1.394 . S
C581 C582 1.516 . S
C582 C581 1.516 . S
C582 C583 1.502 . S
C582 C584 1.561 . S
C582 C585 1.526 . S
C583 H567 0.959 . S
C583 H568 0.959 . S
C583 H569 0.961 . S
C583 C582 1.502 . S
C584 H570 0.960 . S
C584 H571 0.961 . S
C584 H572 0.959 . S
C584 C582 1.561 . S
C585 C582 1.526 . S
C585 C586 1.396 . S
C585 C590 1.390 . S
C586 C580 1.465 . S
C586 C585 1.396 . S
C586 C587 1.399 . S
C587 H573 0.929 . S
C587 C586 1.399 . S
C587 C588 1.385 . S
C588 H574 0.931 . S
C588 C587 1.385 . S
C588 C589 1.389 . S
C589 C588 1.389 . S
C589 C590 1.387 . S
C590 H575 0.930 . S
C590 C585 1.390 . S
C590 C589 1.387 . S
H591 C603 0.930 . S
H592 C605 0.930 . S
H593 C606 0.930 . S
H594 C610 0.959 . S
H595 C610 0.959 . S
H596 C610 0.961 . S
H597 C611 0.960 . S
H598 C611 0.961 . S
H599 C611 0.959 . S
H600 C614 0.929 . S
H601 C615 0.931 . S
H602 C617 0.930 . S
C603 H591 0.930 . S
C603 C604 1.399 . S
C603 C608 1.399 . S
C604 C603 1.399 . S
C604 C605 1.376 . S
C605 H592 0.930 . S
C605 C604 1.376 . S
C605 C606 1.388 . S
C606 H593 0.930 . S
C606 C605 1.388 . S
C606 C607 1.390 . S
C607 C606 1.390 . S
C607 C608 1.394 . S
C607 C613 1.465 . S
C608 C603 1.399 . S
C608 C607 1.394 . S
C608 C609 1.516 . S
C609 C608 1.516 . S
C609 C610 1.502 . S
C609 C611 1.561 . S
C609 C612 1.526 . S
C610 H594 0.959 . S
C610 H595 0.959 . S
C610 H596 0.961 . S
C610 C609 1.502 . S
C611 H597 0.960 . S
C611 H598 0.961 . S
C611 H599 0.959 . S
C611 C609 1.561 . S
C612 C609 1.526 . S
C612 C613 1.396 . S
C612 C617 1.390 . S
C613 C607 1.465 . S
C613 C612 1.396 . S
C613 C614 1.399 . S
C614 H600 0.929 . S
C614 C613 1.399 . S
C614 C615 1.385 . S
C615 H601 0.931 . S
C615 C614 1.385 . S
C615 C616 1.389 . S
C616 C615 1.389 . S
C616 C617 1.387 . S
C617 H602 0.930 . S
C617 C612 1.390 . S
C617 C616 1.387 . S
H618 C630 0.930 . S
H619 C632 0.930 . S
H620 C633 0.930 . S
H621 C637 0.959 . S
H622 C637 0.959 . S
H623 C637 0.961 . S
H624 C638 0.960 . S
H625 C638 0.961 . S
H626 C638 0.959 . S
H627 C641 0.929 . S
H628 C642 0.931 . S
H629 C644 0.930 . S
C630 H618 0.930 . S
C630 C631 1.399 . S
C630 C635 1.399 . S
C631 C630 1.399 . S
C631 C632 1.376 . S
C632 H619 0.930 . S
C632 C631 1.376 . S
C632 C633 1.388 . S
C633 H620 0.930 . S
C633 C632 1.388 . S
C633 C634 1.390 . S
C634 C633 1.390 . S
C634 C635 1.394 . S
C634 C640 1.465 . S
C635 C630 1.399 . S
C635 C634 1.394 . S
C635 C636 1.516 . S
C636 C635 1.516 . S
C636 C637 1.502 . S
C636 C638 1.561 . S
C636 C639 1.526 . S
C637 H621 0.959 . S
C637 H622 0.959 . S
C637 H623 0.961 . S
C637 C636 1.502 . S
C638 H624 0.960 . S
C638 H625 0.961 . S
C638 H626 0.959 . S
C638 C636 1.561 . S
C639 C636 1.526 . S
C639 C640 1.396 . S
C639 C644 1.390 . S
C640 C634 1.465 . S
C640 C639 1.396 . S
C640 C641 1.399 . S
C641 H627 0.929 . S
C641 C640 1.399 . S
C641 C642 1.385 . S
C642 H628 0.931 . S
C642 C641 1.385 . S
C642 C643 1.389 . S
C643 C642 1.389 . S
C643 C644 1.387 . S
C644 H629 0.930 . S
C644 C639 1.390 . S
C644 C643 1.387 . S
H645 C657 0.930 . S
H646 C659 0.930 . S
H647 C660 0.930 . S
H648 C664 0.959 . S
H649 C664 0.959 . S
H650 C664 0.961 . S
H651 C665 0.960 . S
H652 C665 0.961 . S
H653 C665 0.959 . S
H654 C668 0.929 . S
H655 C669 0.931 . S
H656 C671 0.930 . S
C657 H645 0.930 . S
C657 C658 1.399 . S
C657 C662 1.399 . S
C658 C657 1.399 . S
C658 C659 1.376 . S
C659 H646 0.930 . S
C659 C658 1.376 . S
C659 C660 1.388 . S
C660 H647 0.930 . S
C660 C659 1.388 . S
C660 C661 1.390 . S
C661 C660 1.390 . S
C661 C662 1.394 . S
C661 C667 1.465 . S
C662 C657 1.399 . S
C662 C661 1.394 . S
C662 C663 1.516 . S
C663 C662 1.516 . S
C663 C664 1.502 . S
C663 C665 1.561 . S
C663 C666 1.526 . S
C664 H648 0.959 . S
C664 H649 0.959 . S
C664 H650 0.961 . S
C664 C663 1.502 . S
C665 H651 0.960 . S
C665 H652 0.961 . S
C665 H653 0.959 . S
C665 C663 1.561 . S
C666 C663 1.526 . S
C666 C667 1.396 . S
C666 C671 1.390 . S
C667 C661 1.465 . S
C667 C666 1.396 . S
C667 C668 1.399 . S
C668 H654 0.929 . S
C668 C667 1.399 . S
C668 C669 1.385 . S
C669 H655 0.931 . S
C669 C668 1.385 . S
C669 C670 1.389 . S
C670 C669 1.389 . S
C670 C671 1.387 . S
C671 H656 0.930 . S
C671 C666 1.390 . S
C671 C670 1.387 . S
H672 C684 0.930 . S
H673 C686 0.930 . S
H674 C687 0.930 . S
H675 C691 0.959 . S
H676 C691 0.959 . S
H677 C691 0.961 . S
H678 C692 0.960 . S
H679 C692 0.961 . S
H680 C692 0.959 . S
H681 C695 0.929 . S
H682 C696 0.931 . S
H683 C698 0.930 . S
C684 H672 0.930 . S
C684 C685 1.399 . S
C684 C689 1.399 . S
C685 C684 1.399 . S
C685 C686 1.376 . S
C686 H673 0.930 . S
C686 C685 1.376 . S
C686 C687 1.388 . S
C687 H674 0.930 . S
C687 C686 1.388 . S
C687 C688 1.390 . S
C688 C687 1.390 . S
C688 C689 1.394 . S
C688 C694 1.465 . S
C689 C684 1.399 . S
C689 C688 1.394 . S
C689 C690 1.516 . S
C690 C689 1.516 . S
C690 C691 1.502 . S
C690 C692 1.561 . S
C690 C693 1.526 . S
C691 H675 0.959 . S
C691 H676 0.959 . S
C691 H677 0.961 . S
C691 C690 1.502 . S
C692 H678 0.960 . S
C692 H679 0.961 . S
C692 H680 0.959 . S
C692 C690 1.561 . S
C693 C690 1.526 . S
C693 C694 1.396 . S
C693 C698 1.390 . S
C694 C688 1.465 . S
C694 C693 1.396 . S
C694 C695 1.399 . S
C695 H681 0.929 . S
C695 C694 1.399 . S
C695 C696 1.385 . S
C696 H682 0.931 . S
C696 C695 1.385 . S
C696 C697 1.389 . S
C697 C696 1.389 . S
C697 C698 1.387 . S
C698 H683 0.930 . S
C698 C693 1.390 . S
C698 C697 1.387 . S
H699 C711 0.930 . S
H700 C713 0.930 . S
H701 C714 0.930 . S
H702 C718 0.959 . S
H703 C718 0.959 . S
H704 C718 0.961 . S
H705 C719 0.960 . S
H706 C719 0.961 . S
H707 C719 0.959 . S
H708 C722 0.929 . S
H709 C723 0.931 . S
H710 C725 0.930 . S
C711 H699 0.930 . S
C711 C712 1.399 . S
C711 C716 1.399 . S
C712 C711 1.399 . S
C712 C713 1.376 . S
C713 H700 0.930 . S
C713 C712 1.376 . S
C713 C714 1.388 . S
C714 H701 0.930 . S
C714 C713 1.388 . S
C714 C715 1.390 . S
C715 C714 1.390 . S
C715 C716 1.394 . S
C715 C721 1.465 . S
C716 C711 1.399 . S
C716 C715 1.394 . S
C716 C717 1.516 . S
C717 C716 1.516 . S
C717 C718 1.502 . S
C717 C719 1.561 . S
C717 C720 1.526 . S
C718 H702 0.959 . S
C718 H703 0.959 . S
C718 H704 0.961 . S
C718 C717 1.502 . S
C719 H705 0.960 . S
C719 H706 0.961 . S
C719 H707 0.959 . S
C719 C717 1.561 . S
C720 C717 1.526 . S
C720 C721 1.396 . S
C720 C725 1.390 . S
C721 C715 1.465 . S
C721 C720 1.396 . S
C721 C722 1.399 . S
C722 H708 0.929 . S
C722 C721 1.399 . S
C722 C723 1.385 . S
C723 H709 0.931 . S
C723 C722 1.385 . S
C723 C724 1.389 . S
C724 C723 1.389 . S
C724 C725 1.387 . S
C725 H710 0.930 . S
C725 C720 1.390 . S
C725 C724 1.387 . S
H726 C738 0.930 . S
H727 C740 0.930 . S
H728 C741 0.930 . S
H729 C745 0.959 . S
H730 C745 0.959 . S
H731 C745 0.961 . S
H732 C746 0.960 . S
H733 C746 0.961 . S
H734 C746 0.959 . S
H735 C749 0.929 . S
H736 C750 0.931 . S
H737 C752 0.930 . S
C738 H726 0.930 . S
C738 C739 1.399 . S
C738 C743 1.399 . S
C739 C738 1.399 . S
C739 C740 1.376 . S
C740 H727 0.930 . S
C740 C739 1.376 . S
C740 C741 1.388 . S
C741 H728 0.930 . S
C741 C740 1.388 . S
C741 C742 1.390 . S
C742 C741 1.390 . S
C742 C743 1.394 . S
C742 C748 1.465 . S
C743 C738 1.399 . S
C743 C742 1.394 . S
C743 C744 1.516 . S
C744 C743 1.516 . S
C744 C745 1.502 . S
C744 C746 1.561 . S
C744 C747 1.526 . S
C745 H729 0.959 . S
C745 H730 0.959 . S
C745 H731 0.961 . S
C745 C744 1.502 . S
C746 H732 0.960 . S
C746 H733 0.961 . S
C746 H734 0.959 . S
C746 C744 1.561 . S
C747 C744 1.526 . S
C747 C748 1.396 . S
C747 C752 1.390 . S
C748 C742 1.465 . S
C748 C747 1.396 . S
C748 C749 1.399 . S
C749 H735 0.929 . S
C749 C748 1.399 . S
C749 C750 1.385 . S
C750 H736 0.931 . S
C750 C749 1.385 . S
C750 C751 1.389 . S
C751 C750 1.389 . S
C751 C752 1.387 . S
C752 H737 0.930 . S
C752 C747 1.390 . S
C752 C751 1.387 . S
H753 C765 0.930 . S
H754 C767 0.928 . S
H755 C768 0.925 . S
H756 C772 0.946 1_655 S
H757 C772 0.958 . S
H758 C772 0.958 . S
H759 C773 0.960 . S
H760 C773 0.961 . S
H761 C773 0.959 . S
H762 C776 0.929 . S
H763 C777 0.931 . S
H764 C779 0.930 . S
C765 H753 0.930 . S
C765 C766 1.399 . S
C765 C770 1.399 . S
C766 C765 1.399 . S
C766 C767 1.376 . S
C767 H754 0.928 . S
C767 C766 1.376 . S
C767 C768 1.388 . S
C768 H755 0.925 . S
C768 C767 1.388 . S
C768 C769 1.390 . S
C769 C768 1.390 . S
C769 C770 1.394 . S
C769 C775 1.465 . S
C770 C765 1.399 . S
C770 C769 1.394 . S
C770 C771 1.516 . S
C771 C770 1.516 . S
C771 C772 1.520 . S
C771 C773 1.561 . S
C771 C774 1.526 . S
C772 H756 0.946 1_455 S
C772 H757 0.958 . S
C772 H758 0.958 . S
C772 C771 1.520 . S
C773 H759 0.960 . S
C773 H760 0.961 . S
C773 H761 0.959 . S
C773 C771 1.561 . S
C774 C771 1.526 . S
C774 C775 1.396 . S
C774 C779 1.390 . S
C775 C769 1.465 . S
C775 C774 1.396 . S
C775 C776 1.399 . S
C776 H762 0.929 . S
C776 C775 1.399 . S
C776 C777 1.385 . S
C777 H763 0.931 . S
C777 C776 1.385 . S
C777 C778 1.389 . S
C778 C777 1.389 . S
C778 C779 1.387 . S
C779 H764 0.930 . S
C779 C774 1.390 . S
C779 C778 1.387 . S
H780 C792 0.930 . S
H781 C794 0.930 . S
H782 C795 0.930 . S
H783 C799 0.959 1_545 S
H784 C799 0.959 . S
H785 C799 0.961 . S
H786 C800 0.960 . S
H787 C800 0.961 . S
H788 C800 0.959 . S
H789 C803 0.929 . S
H790 C804 0.931 . S
H791 C806 0.930 . S
C792 H780 0.930 . S
C792 C793 1.399 1_565 S
C792 C797 1.399 . S
C793 C792 1.399 1_545 S
C793 C794 1.376 . S
C794 H781 0.930 . S
C794 C793 1.376 . S
C794 C795 1.388 . S
C795 H782 0.930 . S
C795 C794 1.388 . S
C795 C796 1.390 . S
C796 C795 1.390 . S
C796 C797 1.394 1_545 S
C796 C802 1.465 . S
C797 C792 1.399 . S
C797 C796 1.394 1_565 S
C797 C798 1.516 . S
C798 C797 1.516 . S
C798 C799 1.502 . S
C798 C800 1.561 . S
C798 C801 1.526 . S
C799 H783 0.959 1_565 S
C799 H784 0.959 . S
C799 H785 0.961 . S
C799 C798 1.502 . S
C800 H786 0.960 . S
C800 H787 0.961 . S
C800 H788 0.959 . S
C800 C798 1.561 . S
C801 C798 1.526 . S
C801 C802 1.396 1_565 S
C801 C806 1.390 . S
C802 C796 1.465 . S
C802 C801 1.396 1_545 S
C802 C803 1.399 . S
C803 H789 0.929 . S
C803 C802 1.399 . S
C803 C804 1.385 . S
C804 H790 0.931 . S
C804 C803 1.385 . S
C804 C805 1.389 . S
C805 C804 1.389 . S
C805 C806 1.387 1_545 S
C806 H791 0.930 . S
C806 C801 1.390 . S
C806 C805 1.387 1_565 S
H807 C819 0.930 . S
H808 C821 0.930 . S
H809 C822 0.930 . S
H810 C826 0.959 . S
H811 C826 0.959 . S
H812 C826 0.961 . S
H813 C827 0.960 . S
H814 C827 0.961 . S
H815 C827 0.959 . S
H816 C830 0.929 . S
H817 C831 0.931 . S
H818 C833 0.930 . S
C819 H807 0.930 . S
C819 C820 1.399 . S
C819 C824 1.399 . S
C820 C819 1.399 . S
C820 C821 1.376 . S
C821 H808 0.930 . S
C821 C820 1.376 . S
C821 C822 1.388 . S
C822 H809 0.930 . S
C822 C821 1.388 . S
C822 C823 1.390 . S
C823 C822 1.390 . S
C823 C824 1.394 . S
C823 C829 1.465 . S
C824 C819 1.399 . S
C824 C823 1.394 . S
C824 C825 1.516 . S
C825 C824 1.516 . S
C825 C826 1.502 . S
C825 C827 1.561 . S
C825 C828 1.526 . S
C826 H810 0.959 . S
C826 H811 0.959 . S
C826 H812 0.961 . S
C826 C825 1.502 . S
C827 H813 0.960 . S
C827 H814 0.961 . S
C827 H815 0.959 . S
C827 C825 1.561 . S
C828 C825 1.526 . S
C828 C829 1.396 . S
C828 C833 1.390 . S
C829 C823 1.465 . S
C829 C828 1.396 . S
C829 C830 1.399 . S
C830 H816 0.929 . S
C830 C829 1.399 . S
C830 C831 1.385 . S
C831 H817 0.931 . S
C831 C830 1.385 . S
C831 C832 1.389 . S
C832 C831 1.389 . S
C832 C833 1.387 . S
C833 H818 0.930 . S
C833 C828 1.390 . S
C833 C832 1.387 . S
H834 C846 0.930 . S
H835 C848 0.930 . S
H836 C849 0.930 . S
H837 C853 0.959 . S
H838 C853 0.959 . S
H839 C853 0.961 . S
H840 C854 0.960 . S
H841 C854 0.961 . S
H842 C854 0.959 . S
H843 C857 0.929 . S
H844 C858 0.931 . S
H845 C860 0.930 . S
C846 H834 0.930 . S
C846 C847 1.399 1_565 S
C846 C851 1.399 . S
C847 C846 1.399 1_545 S
C847 C848 1.376 . S
C848 H835 0.930 . S
C848 C847 1.376 . S
C848 C849 1.388 . S
C849 H836 0.930 . S
C849 C848 1.388 . S
C849 C850 1.390 . S
C850 C849 1.390 . S
C850 C851 1.394 1_545 S
C850 C856 1.465 . S
C851 C846 1.399 . S
C851 C850 1.394 1_565 S
C851 C852 1.516 . S
C852 C851 1.516 . S
C852 C853 1.502 . S
C852 C854 1.561 . S
C852 C855 1.526 . S
C853 H837 0.959 . S
C853 H838 0.959 . S
C853 H839 0.961 . S
C853 C852 1.502 . S
C854 H840 0.960 . S
C854 H841 0.961 . S
C854 H842 0.959 . S
C854 C852 1.561 . S
C855 C852 1.526 . S
C855 C856 1.396 1_565 S
C855 C860 1.390 . S
C856 C850 1.465 . S
C856 C855 1.396 1_545 S
C856 C857 1.399 . S
C857 H843 0.929 . S
C857 C856 1.399 . S
C857 C858 1.385 . S
C858 H844 0.931 . S
C858 C857 1.385 . S
C858 C859 1.389 . S
C859 C858 1.389 . S
C859 C860 1.387 1_545 S
C860 H845 0.930 . S
C860 C855 1.390 . S
C860 C859 1.387 1_565 S
H861 C873 0.930 . S
H862 C875 0.930 . S
H863 C876 0.930 . S
H864 C880 0.959 . S
H865 C880 0.959 . S
H866 C880 0.961 . S
H867 C881 0.960 . S
H868 C881 0.961 . S
H869 C881 0.959 . S
H870 C884 0.929 . S
H871 C885 0.931 . S
H872 C887 0.930 . S
C873 H861 0.930 . S
C873 C874 1.399 . S
C873 C878 1.399 . S
C874 C873 1.399 . S
C874 C875 1.376 . S
C875 H862 0.930 . S
C875 C874 1.376 . S
C875 C876 1.388 . S
C876 H863 0.930 . S
C876 C875 1.388 . S
C876 C877 1.390 . S
C877 C876 1.390 . S
C877 C878 1.394 . S
C877 C883 1.465 . S
C878 C873 1.399 . S
C878 C877 1.394 . S
C878 C879 1.516 . S
C879 C878 1.516 . S
C879 C880 1.502 . S
C879 C881 1.561 . S
C879 C882 1.526 . S
C880 H864 0.959 . S
C880 H865 0.959 . S
C880 H866 0.961 . S
C880 C879 1.502 . S
C881 H867 0.960 . S
C881 H868 0.961 . S
C881 H869 0.959 . S
C881 C879 1.561 . S
C882 C879 1.526 . S
C882 C883 1.396 . S
C882 C887 1.390 . S
C883 C877 1.465 . S
C883 C882 1.396 . S
C883 C884 1.399 . S
C884 H870 0.929 . S
C884 C883 1.399 . S
C884 C885 1.385 . S
C885 H871 0.931 . S
C885 C884 1.385 . S
C885 C886 1.389 . S
C886 C885 1.389 . S
C886 C887 1.387 . S
C887 H872 0.930 . S
C887 C882 1.390 . S
C887 C886 1.387 . S
H888 C900 0.930 . S
H889 C902 0.930 . S
H890 C903 0.930 . S
H891 C907 0.959 . S
H892 C907 0.959 . S
H893 C907 0.961 . S
H894 C908 0.960 . S
H895 C908 0.961 . S
H896 C908 0.959 . S
H897 C911 0.929 . S
H898 C912 0.931 . S
H899 C914 0.930 . S
C900 H888 0.930 . S
C900 C901 1.396 1_455 S
C900 C905 1.399 . S
C901 C900 1.396 1_655 S
C901 C902 1.380 . S
C902 H889 0.930 . S
C902 C901 1.380 . S
C902 C903 1.388 . S
C903 H890 0.930 . S
C903 C902 1.388 . S
C903 C904 1.390 . S
C904 C903 1.390 . S
C904 C905 1.394 1_655 S
C904 C910 1.465 . S
C905 C900 1.399 . S
C905 C904 1.394 1_455 S
C905 C906 1.516 . S
C906 C905 1.516 . S
C906 C907 1.502 . S
C906 C908 1.561 . S
C906 C909 1.526 . S
C907 H891 0.959 . S
C907 H892 0.959 . S
C907 H893 0.961 . S
C907 C906 1.502 . S
C908 H894 0.960 . S
C908 H895 0.961 . S
C908 H896 0.959 . S
C908 C906 1.561 . S
C909 C906 1.526 . S
C909 C910 1.396 1_455 S
C909 C914 1.390 . S
C910 C904 1.465 . S
C910 C909 1.396 1_655 S
C910 C911 1.399 . S
C911 H897 0.929 . S
C911 C910 1.399 . S
C911 C912 1.385 . S
C912 H898 0.931 . S
C912 C911 1.385 . S
C912 C913 1.389 . S
C913 C912 1.389 . S
C913 C914 1.387 1_655 S
C914 H899 0.930 . S
C914 C909 1.390 . S
C914 C913 1.387 1_455 S
C442 C20 1.175 . S
C454 C400 1.207 . S
C469 C41 1.245 . S
C481 C250 1.142 . S
C496 C64 1.246 . S
C508 C310 1.254 . S
C523 C19 1.244 . S
C535 C370 1.171 . S
C562 C280 1.222 . S
C550 C44 1.246 . S
C589 C340 1.205 . S
C577 C67 1.232 . S
C604 C43 1.204 . S
C616 C130 1.116 . S
C631 C66 1.119 . S
C643 C220 1.213 . S
C658 C21 1.218 . S
C670 C100 1.246 . S
C697 C160 1.220 . S
C685 C42 1.254 . S
C724 C190 1.208 . S
C712 C65 1.262 . S
C739 C18 1.224 . S
C751 C70 1.236 . S
C778 C209 1.453 1_554 S
C766 C17 1.451 . S
C793 C39 1.446 . S
C805 C89 1.416 . S
C820 C62 1.467 . S
C832 C149 1.418 . S
C859 C329 1.412 . S
C847 C40 1.431 . S
C886 C389 1.412 1_556 S
C874 C63 1.457 . S
C901 C16 1.448 1_655 S
C913 C269 1.447 1_655 S
