# Generated by pormake.
# Topology tbo, (3,4)-cn, num edge types: 1
# Building blocks:
#     Node 0, Type 0, BuildingBlock: WUSLED_clean_sbu_0, # of connection points: 3
#     Node 1, Type 0, BuildingBlock: WUSLED_clean_sbu_0, # of connection points: 3
#     Node 2, Type 0, BuildingBlock: WUSLED_clean_sbu_0, # of connection points: 3
#     Node 3, Type 0, BuildingBlock: WUSLED_clean_sbu_0, # of connection points: 3
#     Node 4, Type 0, BuildingBlock: WUSLED_clean_sbu_0, # of connection points: 3
#     Node 5, Type 0, BuildingBlock: WUSLED_clean_sbu_0, # of connection points: 3
#     Node 6, Type 0, BuildingBlock: WUSLED_clean_sbu_0, # of connection points: 3
#     Node 7, Type 0, BuildingBlock: WUSLED_clean_sbu_0, # of connection points: 3
#     Node 8, Type 0, BuildingBlock: WUSLED_clean_sbu_0, # of connection points: 3
#     Node 9, Type 0, BuildingBlock: WUSLED_clean_sbu_0, # of connection points: 3
#     Node 10, Type 0, BuildingBlock: WUSLED_clean_sbu_0, # of connection points: 3
#     Node 11, Type 0, BuildingBlock: WUSLED_clean_sbu_0, # of connection points: 3
#     Node 12, Type 0, BuildingBlock: WUSLED_clean_sbu_0, # of connection points: 3
#     Node 13, Type 0, BuildingBlock: WUSLED_clean_sbu_0, # of connection points: 3
#     Node 14, Type 0, BuildingBlock: WUSLED_clean_sbu_0, # of connection points: 3
#     Node 15, Type 0, BuildingBlock: WUSLED_clean_sbu_0, # of connection points: 3
#     Node 16, Type 0, BuildingBlock: WUSLED_clean_sbu_0, # of connection points: 3
#     Node 17, Type 0, BuildingBlock: WUSLED_clean_sbu_0, # of connection points: 3
#     Node 18, Type 0, BuildingBlock: WUSLED_clean_sbu_0, # of connection points: 3
#     Node 19, Type 0, BuildingBlock: WUSLED_clean_sbu_0, # of connection points: 3
#     Node 20, Type 0, BuildingBlock: WUSLED_clean_sbu_0, # of connection points: 3
#     Node 21, Type 0, BuildingBlock: WUSLED_clean_sbu_0, # of connection points: 3
#     Node 22, Type 0, BuildingBlock: WUSLED_clean_sbu_0, # of connection points: 3
#     Node 23, Type 0, BuildingBlock: WUSLED_clean_sbu_0, # of connection points: 3
#     Node 24, Type 0, BuildingBlock: WUSLED_clean_sbu_0, # of connection points: 3
#     Node 25, Type 0, BuildingBlock: WUSLED_clean_sbu_0, # of connection points: 3
#     Node 26, Type 0, BuildingBlock: WUSLED_clean_sbu_0, # of connection points: 3
#     Node 27, Type 0, BuildingBlock: WUSLED_clean_sbu_0, # of connection points: 3
#     Node 28, Type 0, BuildingBlock: WUSLED_clean_sbu_0, # of connection points: 3
#     Node 29, Type 0, BuildingBlock: WUSLED_clean_sbu_0, # of connection points: 3
#     Node 30, Type 0, BuildingBlock: WUSLED_clean_sbu_0, # of connection points: 3
#     Node 31, Type 0, BuildingBlock: WUSLED_clean_sbu_0, # of connection points: 3
#     Node 32, Type 1, BuildingBlock: KUFVIS_clean_linker_0, # of connection points: 4
#     Node 33, Type 1, BuildingBlock: KUFVIS_clean_linker_0, # of connection points: 4
#     Node 34, Type 1, BuildingBlock: KUFVIS_clean_linker_0, # of connection points: 4
#     Node 35, Type 1, BuildingBlock: KUFVIS_clean_linker_0, # of connection points: 4
#     Node 36, Type 1, BuildingBlock: KUFVIS_clean_linker_0, # of connection points: 4
#     Node 37, Type 1, BuildingBlock: KUFVIS_clean_linker_0, # of connection points: 4
#     Node 38, Type 1, BuildingBlock: KUFVIS_clean_linker_0, # of connection points: 4
#     Node 39, Type 1, BuildingBlock: KUFVIS_clean_linker_0, # of connection points: 4
#     Node 40, Type 1, BuildingBlock: KUFVIS_clean_linker_0, # of connection points: 4
#     Node 41, Type 1, BuildingBlock: KUFVIS_clean_linker_0, # of connection points: 4
#     Node 42, Type 1, BuildingBlock: KUFVIS_clean_linker_0, # of connection points: 4
#     Node 43, Type 1, BuildingBlock: KUFVIS_clean_linker_0, # of connection points: 4
#     Node 44, Type 1, BuildingBlock: KUFVIS_clean_linker_0, # of connection points: 4
#     Node 45, Type 1, BuildingBlock: KUFVIS_clean_linker_0, # of connection points: 4
#     Node 46, Type 1, BuildingBlock: KUFVIS_clean_linker_0, # of connection points: 4
#     Node 47, Type 1, BuildingBlock: KUFVIS_clean_linker_0, # of connection points: 4
#     Node 48, Type 1, BuildingBlock: KUFVIS_clean_linker_0, # of connection points: 4
#     Node 49, Type 1, BuildingBlock: KUFVIS_clean_linker_0, # of connection points: 4
#     Node 50, Type 1, BuildingBlock: KUFVIS_clean_linker_0, # of connection points: 4
#     Node 51, Type 1, BuildingBlock: KUFVIS_clean_linker_0, # of connection points: 4
#     Node 52, Type 1, BuildingBlock: KUFVIS_clean_linker_0, # of connection points: 4
#     Node 53, Type 1, BuildingBlock: KUFVIS_clean_linker_0, # of connection points: 4
#     Node 54, Type 1, BuildingBlock: KUFVIS_clean_linker_0, # of connection points: 4
#     Node 55, Type 1, BuildingBlock: KUFVIS_clean_linker_0, # of connection points: 4
#     Edge 56, Type (0, 1), BuildingBlock: MIFKUJ_clean_linker_0, # of connection points: 2
#     Edge 57, Type (0, 1), BuildingBlock: MIFKUJ_clean_linker_0, # of connection points: 2
#     Edge 58, Type (0, 1), BuildingBlock: MIFKUJ_clean_linker_0, # of connection points: 2
#     Edge 59, Type (0, 1), BuildingBlock: MIFKUJ_clean_linker_0, # of connection points: 2
#     Edge 60, Type (0, 1), BuildingBlock: MIFKUJ_clean_linker_0, # of connection points: 2
#     Edge 61, Type (0, 1), BuildingBlock: MIFKUJ_clean_linker_0, # of connection points: 2
#     Edge 62, Type (0, 1), BuildingBlock: MIFKUJ_clean_linker_0, # of connection points: 2
#     Edge 63, Type (0, 1), BuildingBlock: MIFKUJ_clean_linker_0, # of connection points: 2
#     Edge 64, Type (0, 1), BuildingBlock: MIFKUJ_clean_linker_0, # of connection points: 2
#     Edge 65, Type (0, 1), BuildingBlock: MIFKUJ_clean_linker_0, # of connection points: 2
#     Edge 66, Type (0, 1), BuildingBlock: MIFKUJ_clean_linker_0, # of connection points: 2
#     Edge 67, Type (0, 1), BuildingBlock: MIFKUJ_clean_linker_0, # of connection points: 2
#     Edge 68, Type (0, 1), BuildingBlock: MIFKUJ_clean_linker_0, # of connection points: 2
#     Edge 69, Type (0, 1), BuildingBlock: MIFKUJ_clean_linker_0, # of connection points: 2
#     Edge 70, Type (0, 1), BuildingBlock: MIFKUJ_clean_linker_0, # of connection points: 2
#     Edge 71, Type (0, 1), BuildingBlock: MIFKUJ_clean_linker_0, # of connection points: 2
#     Edge 72, Type (0, 1), BuildingBlock: MIFKUJ_clean_linker_0, # of connection points: 2
#     Edge 73, Type (0, 1), BuildingBlock: MIFKUJ_clean_linker_0, # of connection points: 2
#     Edge 74, Type (0, 1), BuildingBlock: MIFKUJ_clean_linker_0, # of connection points: 2
#     Edge 75, Type (0, 1), BuildingBlock: MIFKUJ_clean_linker_0, # of connection points: 2
#     Edge 76, Type (0, 1), BuildingBlock: MIFKUJ_clean_linker_0, # of connection points: 2
#     Edge 77, Type (0, 1), BuildingBlock: MIFKUJ_clean_linker_0, # of connection points: 2
#     Edge 78, Type (0, 1), BuildingBlock: MIFKUJ_clean_linker_0, # of connection points: 2
#     Edge 79, Type (0, 1), BuildingBlock: MIFKUJ_clean_linker_0, # of connection points: 2
#     Edge 80, Type (0, 1), BuildingBlock: MIFKUJ_clean_linker_0, # of connection points: 2
#     Edge 81, Type (0, 1), BuildingBlock: MIFKUJ_clean_linker_0, # of connection points: 2
#     Edge 82, Type (0, 1), BuildingBlock: MIFKUJ_clean_linker_0, # of connection points: 2
#     Edge 83, Type (0, 1), BuildingBlock: MIFKUJ_clean_linker_0, # of connection points: 2
#     Edge 84, Type (0, 1), BuildingBlock: MIFKUJ_clean_linker_0, # of connection points: 2
#     Edge 85, Type (0, 1), BuildingBlock: MIFKUJ_clean_linker_0, # of connection points: 2
#     Edge 86, Type (0, 1), BuildingBlock: MIFKUJ_clean_linker_0, # of connection points: 2
#     Edge 87, Type (0, 1), BuildingBlock: MIFKUJ_clean_linker_0, # of connection points: 2
#     Edge 88, Type (0, 1), BuildingBlock: MIFKUJ_clean_linker_0, # of connection points: 2
#     Edge 89, Type (0, 1), BuildingBlock: MIFKUJ_clean_linker_0, # of connection points: 2
#     Edge 90, Type (0, 1), BuildingBlock: MIFKUJ_clean_linker_0, # of connection points: 2
#     Edge 91, Type (0, 1), BuildingBlock: MIFKUJ_clean_linker_0, # of connection points: 2
#     Edge 92, Type (0, 1), BuildingBlock: MIFKUJ_clean_linker_0, # of connection points: 2
#     Edge 93, Type (0, 1), BuildingBlock: MIFKUJ_clean_linker_0, # of connection points: 2
#     Edge 94, Type (0, 1), BuildingBlock: MIFKUJ_clean_linker_0, # of connection points: 2
#     Edge 95, Type (0, 1), BuildingBlock: MIFKUJ_clean_linker_0, # of connection points: 2
#     Edge 96, Type (0, 1), BuildingBlock: MIFKUJ_clean_linker_0, # of connection points: 2
#     Edge 97, Type (0, 1), BuildingBlock: MIFKUJ_clean_linker_0, # of connection points: 2
#     Edge 98, Type (0, 1), BuildingBlock: MIFKUJ_clean_linker_0, # of connection points: 2
#     Edge 99, Type (0, 1), BuildingBlock: MIFKUJ_clean_linker_0, # of connection points: 2
#     Edge 100, Type (0, 1), BuildingBlock: MIFKUJ_clean_linker_0, # of connection points: 2
#     Edge 101, Type (0, 1), BuildingBlock: MIFKUJ_clean_linker_0, # of connection points: 2
#     Edge 102, Type (0, 1), BuildingBlock: MIFKUJ_clean_linker_0, # of connection points: 2
#     Edge 103, Type (0, 1), BuildingBlock: MIFKUJ_clean_linker_0, # of connection points: 2
#     Edge 104, Type (0, 1), BuildingBlock: MIFKUJ_clean_linker_0, # of connection points: 2
#     Edge 105, Type (0, 1), BuildingBlock: MIFKUJ_clean_linker_0, # of connection points: 2
#     Edge 106, Type (0, 1), BuildingBlock: MIFKUJ_clean_linker_0, # of connection points: 2
#     Edge 107, Type (0, 1), BuildingBlock: MIFKUJ_clean_linker_0, # of connection points: 2
#     Edge 108, Type (0, 1), BuildingBlock: MIFKUJ_clean_linker_0, # of connection points: 2
#     Edge 109, Type (0, 1), BuildingBlock: MIFKUJ_clean_linker_0, # of connection points: 2
#     Edge 110, Type (0, 1), BuildingBlock: MIFKUJ_clean_linker_0, # of connection points: 2
#     Edge 111, Type (0, 1), BuildingBlock: MIFKUJ_clean_linker_0, # of connection points: 2
#     Edge 112, Type (0, 1), BuildingBlock: MIFKUJ_clean_linker_0, # of connection points: 2
#     Edge 113, Type (0, 1), BuildingBlock: MIFKUJ_clean_linker_0, # of connection points: 2
#     Edge 114, Type (0, 1), BuildingBlock: MIFKUJ_clean_linker_0, # of connection points: 2
#     Edge 115, Type (0, 1), BuildingBlock: MIFKUJ_clean_linker_0, # of connection points: 2
#     Edge 116, Type (0, 1), BuildingBlock: MIFKUJ_clean_linker_0, # of connection points: 2
#     Edge 117, Type (0, 1), BuildingBlock: MIFKUJ_clean_linker_0, # of connection points: 2
#     Edge 118, Type (0, 1), BuildingBlock: MIFKUJ_clean_linker_0, # of connection points: 2
#     Edge 119, Type (0, 1), BuildingBlock: MIFKUJ_clean_linker_0, # of connection points: 2
#     Edge 120, Type (0, 1), BuildingBlock: MIFKUJ_clean_linker_0, # of connection points: 2
#     Edge 121, Type (0, 1), BuildingBlock: MIFKUJ_clean_linker_0, # of connection points: 2
#     Edge 122, Type (0, 1), BuildingBlock: MIFKUJ_clean_linker_0, # of connection points: 2
#     Edge 123, Type (0, 1), BuildingBlock: MIFKUJ_clean_linker_0, # of connection points: 2
#     Edge 124, Type (0, 1), BuildingBlock: MIFKUJ_clean_linker_0, # of connection points: 2
#     Edge 125, Type (0, 1), BuildingBlock: MIFKUJ_clean_linker_0, # of connection points: 2
#     Edge 126, Type (0, 1), BuildingBlock: MIFKUJ_clean_linker_0, # of connection points: 2
#     Edge 127, Type (0, 1), BuildingBlock: MIFKUJ_clean_linker_0, # of connection points: 2
#     Edge 128, Type (0, 1), BuildingBlock: MIFKUJ_clean_linker_0, # of connection points: 2
#     Edge 129, Type (0, 1), BuildingBlock: MIFKUJ_clean_linker_0, # of connection points: 2
#     Edge 130, Type (0, 1), BuildingBlock: MIFKUJ_clean_linker_0, # of connection points: 2
#     Edge 131, Type (0, 1), BuildingBlock: MIFKUJ_clean_linker_0, # of connection points: 2
#     Edge 132, Type (0, 1), BuildingBlock: MIFKUJ_clean_linker_0, # of connection points: 2
#     Edge 133, Type (0, 1), BuildingBlock: MIFKUJ_clean_linker_0, # of connection points: 2
#     Edge 134, Type (0, 1), BuildingBlock: MIFKUJ_clean_linker_0, # of connection points: 2
#     Edge 135, Type (0, 1), BuildingBlock: MIFKUJ_clean_linker_0, # of connection points: 2
#     Edge 136, Type (0, 1), BuildingBlock: MIFKUJ_clean_linker_0, # of connection points: 2
#     Edge 137, Type (0, 1), BuildingBlock: MIFKUJ_clean_linker_0, # of connection points: 2
#     Edge 138, Type (0, 1), BuildingBlock: MIFKUJ_clean_linker_0, # of connection points: 2
#     Edge 139, Type (0, 1), BuildingBlock: MIFKUJ_clean_linker_0, # of connection points: 2
#     Edge 140, Type (0, 1), BuildingBlock: MIFKUJ_clean_linker_0, # of connection points: 2
#     Edge 141, Type (0, 1), BuildingBlock: MIFKUJ_clean_linker_0, # of connection points: 2
#     Edge 142, Type (0, 1), BuildingBlock: MIFKUJ_clean_linker_0, # of connection points: 2
#     Edge 143, Type (0, 1), BuildingBlock: MIFKUJ_clean_linker_0, # of connection points: 2
#     Edge 144, Type (0, 1), BuildingBlock: MIFKUJ_clean_linker_0, # of connection points: 2
#     Edge 145, Type (0, 1), BuildingBlock: MIFKUJ_clean_linker_0, # of connection points: 2
#     Edge 146, Type (0, 1), BuildingBlock: MIFKUJ_clean_linker_0, # of connection points: 2
#     Edge 147, Type (0, 1), BuildingBlock: MIFKUJ_clean_linker_0, # of connection points: 2
#     Edge 148, Type (0, 1), BuildingBlock: MIFKUJ_clean_linker_0, # of connection points: 2
#     Edge 149, Type (0, 1), BuildingBlock: MIFKUJ_clean_linker_0, # of connection points: 2
#     Edge 150, Type (0, 1), BuildingBlock: MIFKUJ_clean_linker_0, # of connection points: 2
#     Edge 151, Type (0, 1), BuildingBlock: MIFKUJ_clean_linker_0, # of connection points: 2
# Relax obj value: 0.000
# Max RMSD: 0.055
# Mean RMSD: 0.026
data_MOF--net-tbo--node1-WUSLED_clean_sbu_0--node2-KUFVIS_clean_linker_0--edge1-MIFKUJ_clean_linker_0
_symmetry_space_group_name_H-M    P1
_symmetry_Int_Tables_number       1
_symmetry_cell_setting            triclinic
loop_
_symmetry_equiv_pos_as_xyz
'x, y, z'
_cell_length_a     116.23541
_cell_length_b     116.702
_cell_length_c     116.67453
_cell_angle_alpha  89.666005
_cell_angle_beta   90.32165
_cell_angle_gamma 90.777573
loop_
_atom_site_label
_atom_site_type_symbol
_atom_site_fract_x
_atom_site_fract_y
_atom_site_fract_z
_atom_type_partial_charge
C0 C 0.18983 0.15424 0.20453 0.0
C1 C 0.20028 0.1521 0.19902 0.0
C2 C 0.20425 0.13642 0.21245 0.0
C3 C 0.20743 0.14327 0.20294 0.0
C4 C 0.19377 0.13871 0.21793 0.0
C5 C 0.18668 0.14751 0.21401 0.0
U6 U 0.17942 0.17778 0.18336 0.0
O7 O 0.16165 0.18133 0.17783 0.0
O8 O 0.17153 0.19436 0.18728 0.0
C9 C 0.16147 0.19132 0.18297 0.0
C10 C 0.18196 0.16329 0.20055 0.0
C11 C 0.15105 0.19385 0.18985 0.0
C12 C 0.13013 0.19334 0.19169 0.0
C13 C 0.14015 0.19013 0.18598 0.0
C14 C 0.14164 0.20402 0.20538 0.0
C15 C 0.13071 0.20044 0.20139 0.0
C16 C 0.15167 0.20079 0.19967 0.0
C17 C 0.19662 0.1847 0.15556 0.0
C18 C 0.20131 0.20207 0.14468 0.0
C19 C 0.20117 0.18368 0.13522 0.0
C20 C 0.19806 0.17831 0.14553 0.0
C21 C 0.20302 0.19562 0.13467 0.0
C22 C 0.19815 0.19668 0.15501 0.0
C23 C 0.19444 0.17857 0.16656 0.0
O24 O 0.18602 0.17385 0.20066 0.0
O25 O 0.17586 0.16095 0.19132 0.0
O26 O 0.1856 0.17142 0.16675 0.0
O27 O 0.19561 0.18447 0.17608 0.0
H28 H 0.20288 0.15722 0.19167 0.0
H29 H 0.21546 0.14185 0.19855 0.0
H30 H 0.19088 0.13352 0.2251 0.0
H31 H 0.17862 0.14899 0.21836 0.0
H32 H 0.12191 0.19028 0.18845 0.0
H33 H 0.13933 0.18489 0.17838 0.0
H34 H 0.14245 0.20962 0.21271 0.0
H35 H 0.15988 0.20398 0.20282 0.0
H36 H 0.20276 0.21125 0.14465 0.0
H37 H 0.20219 0.17843 0.12768 0.0
H38 H 0.19697 0.16907 0.14571 0.0
H39 H 0.19717 0.20187 0.16259 0.0
C40 C 0.82943 0.17868 0.15212 0.0
C41 C 0.83565 0.1882 0.14797 0.0
C42 C 0.82161 0.1907 0.13253 0.0
C43 C 0.83178 0.19416 0.13825 0.0
C44 C 0.81543 0.18115 0.1368 0.0
C45 C 0.81931 0.17521 0.14649 0.0
U46 U 0.8503 0.17381 0.17721 0.0
O47 O 0.8467 0.1684 0.19494 0.0
O48 O 0.85731 0.15767 0.18396 0.0
C49 C 0.85201 0.1586 0.19382 0.0
C50 C 0.83333 0.17226 0.16229 0.0
C51 C 0.84559 0.14834 0.1977 0.0
C52 C 0.829 0.13543 0.1967 0.0
C53 C 0.83498 0.14519 0.19276 0.0
C54 C 0.84423 0.13185 0.21046 0.0
C55 C 0.83353 0.12866 0.20565 0.0
C56 C 0.85018 0.14159 0.20653 0.0
C57 C 0.87597 0.19471 0.18135 0.0
C58 C 0.88909 0.19463 0.19768 0.0
C59 C 0.89256 0.2076 0.18175 0.0
C60 C 0.88272 0.20332 0.17621 0.0
C61 C 0.89585 0.20338 0.19259 0.0
C62 C 0.87923 0.19033 0.1921 0.0
C63 C 0.86554 0.19058 0.17535 0.0
O64 O 0.8431 0.16685 0.16118 0.0
O65 O 0.83249 0.17761 0.17212 0.0
O66 O 0.85582 0.19151 0.18097 0.0
O67 O 0.86644 0.18077 0.16999 0.0
H68 H 0.84351 0.19098 0.15221 0.0
H69 H 0.83682 0.2014 0.13515 0.0
H70 H 0.80748 0.17835 0.13274 0.0
H71 H 0.81437 0.16791 0.14961 0.0
H72 H 0.82074 0.1333 0.19287 0.0
H73 H 0.8313 0.15031 0.18592 0.0
H74 H 0.84809 0.12676 0.21721 0.0
H75 H 0.85839 0.14386 0.2104 0.0
H76 H 0.8913 0.19124 0.20605 0.0
H77 H 0.89764 0.21418 0.17748 0.0
H78 H 0.88037 0.20676 0.16789 0.0
H79 H 0.8741 0.18368 0.1962 0.0
C80 C 0.83191 0.84437 0.15117 0.0
C81 C 0.83821 0.83495 0.14739 0.0
C82 C 0.82479 0.83213 0.13138 0.0
C83 C 0.83468 0.82887 0.13759 0.0
C84 C 0.8185 0.84154 0.13531 0.0
C85 C 0.82203 0.84758 0.14508 0.0
U86 U 0.85124 0.85054 0.17758 0.0
O87 O 0.85781 0.86716 0.18396 0.0
O88 O 0.8463 0.85664 0.19466 0.0
C89 C 0.85192 0.86643 0.19352 0.0
C90 C 0.83543 0.85105 0.16134 0.0
C91 C 0.8458 0.87684 0.19706 0.0
C92 C 0.82876 0.88877 0.19762 0.0
C93 C 0.83446 0.87906 0.19357 0.0
C94 C 0.84575 0.89421 0.2085 0.0
C95 C 0.8343 0.89641 0.20526 0.0
C96 C 0.85141 0.88455 0.20445 0.0
C97 C 0.87642 0.83032 0.18488 0.0
C98 C 0.89089 0.83352 0.19976 0.0
C99 C 0.89057 0.81573 0.18919 0.0
C100 C 0.8811 0.81952 0.18285 0.0
C101 C 0.89562 0.82265 0.19775 0.0
C102 C 0.88136 0.83731 0.19339 0.0
C103 C 0.86649 0.83405 0.17791 0.0
O104 O 0.83384 0.84604 0.17134 0.0
O105 O 0.84535 0.85655 0.16064 0.0
O106 O 0.86787 0.84365 0.17211 0.0
O107 O 0.85636 0.83314 0.1828 0.0
H108 H 0.84588 0.83234 0.15197 0.0
H109 H 0.83979 0.82174 0.13478 0.0
H110 H 0.81074 0.84419 0.13092 0.0
H111 H 0.81701 0.85479 0.14788 0.0
H112 H 0.81993 0.89013 0.195 0.0
H113 H 0.82997 0.87322 0.18786 0.0
H114 H 0.85038 0.89997 0.21418 0.0
H115 H 0.86017 0.88302 0.20721 0.0
H116 H 0.89446 0.83904 0.20634 0.0
H117 H 0.89406 0.8074 0.18725 0.0
H118 H 0.87744 0.81402 0.17629 0.0
H119 H 0.87785 0.84568 0.19511 0.0
C120 C 0.14931 0.82838 0.18186 0.0
C121 C 0.14463 0.8345 0.19101 0.0
C122 C 0.12984 0.81963 0.19367 0.0
C123 C 0.13496 0.83018 0.19685 0.0
C124 C 0.13461 0.81359 0.18447 0.0
C125 C 0.14423 0.81792 0.17865 0.0
U126 U 0.17455 0.84964 0.17669 0.0
O127 O 0.19219 0.84608 0.17111 0.0
O128 O 0.181 0.85668 0.16033 0.0
C129 C 0.19093 0.85149 0.16128 0.0
C130 C 0.15944 0.83267 0.17549 0.0
C131 C 0.1949 0.84542 0.15099 0.0
C132 C 0.19538 0.82859 0.13876 0.0
C133 C 0.19117 0.83422 0.14844 0.0
C134 C 0.20697 0.84533 0.13403 0.0
C135 C 0.20342 0.83405 0.13146 0.0
C136 C 0.20276 0.85093 0.14368 0.0
C137 C 0.17931 0.8751 0.19736 0.0
C138 C 0.19542 0.88866 0.19677 0.0
C139 C 0.18025 0.89107 0.21064 0.0
C140 C 0.1746 0.88131 0.2064 0.0
C141 C 0.19077 0.89486 0.20595 0.0
C142 C 0.18974 0.87885 0.19252 0.0
C143 C 0.1732 0.86472 0.1933 0.0
O144 O 0.15821 0.84249 0.17007 0.0
O145 O 0.1694 0.83185 0.1808 0.0
O146 O 0.1788 0.85505 0.19427 0.0
O147 O 0.16763 0.86569 0.18352 0.0
H148 H 0.14846 0.84259 0.19363 0.0
H149 H 0.1316 0.83501 0.20395 0.0
H150 H 0.13081 0.80556 0.18165 0.0
H151 H 0.14769 0.81309 0.17158 0.0
H152 H 0.19253 0.81988 0.13712 0.0
H153 H 0.18509 0.82981 0.15398 0.0
H154 H 0.21296 0.8499 0.12853 0.0
H155 H 0.20571 0.85959 0.14547 0.0
H156 H 0.20355 0.89126 0.193 0.0
H157 H 0.17629 0.89571 0.21757 0.0
H158 H 0.16654 0.87858 0.21022 0.0
H159 H 0.19352 0.87416 0.18553 0.0
C160 C 0.14921 0.82904 0.84653 0.0
C161 C 0.14629 0.83495 0.83644 0.0
C162 C 0.12919 0.82279 0.83405 0.0
C163 C 0.13638 0.83184 0.83024 0.0
C164 C 0.13218 0.81695 0.8442 0.0
C165 C 0.14208 0.82005 0.85037 0.0
U166 U 0.17574 0.84808 0.85246 0.0
O167 O 0.18298 0.85394 0.86891 0.0
O168 O 0.19326 0.84318 0.85763 0.0
C169 C 0.19252 0.84817 0.86767 0.0
C170 C 0.15963 0.83206 0.85315 0.0
C171 C 0.19612 0.84124 0.87762 0.0
C172 C 0.1924 0.82655 0.89207 0.0
C173 C 0.1888 0.83289 0.88248 0.0
C174 C 0.21067 0.83679 0.89194 0.0
C175 C 0.20339 0.82843 0.89692 0.0
C176 C 0.20705 0.84312 0.8824 0.0
C177 C 0.18182 0.87425 0.83305 0.0
C178 C 0.19978 0.8852 0.8324 0.0
C179 C 0.18291 0.89221 0.82246 0.0
C180 C 0.17661 0.88265 0.82624 0.0
C181 C 0.19462 0.89358 0.82538 0.0
C182 C 0.19343 0.87562 0.8362 0.0
C183 C 0.175 0.86409 0.83655 0.0
O184 O 0.16944 0.83086 0.84777 0.0
O185 O 0.15916 0.84159 0.85906 0.0
O186 O 0.16963 0.86486 0.84638 0.0
O187 O 0.17988 0.85411 0.83506 0.0
H188 H 0.15169 0.84195 0.83337 0.0
H189 H 0.13428 0.8366 0.82253 0.0
H190 H 0.12697 0.80983 0.84731 0.0
H191 H 0.14422 0.81537 0.85812 0.0
H192 H 0.18663 0.8201 0.89561 0.0
H193 H 0.18033 0.83129 0.87888 0.0
H194 H 0.2191 0.8386 0.89554 0.0
H195 H 0.2128 0.84955 0.87878 0.0
H196 H 0.20879 0.88592 0.83474 0.0
H197 H 0.17858 0.89857 0.81727 0.0
H198 H 0.16764 0.88177 0.82378 0.0
H199 H 0.19761 0.86923 0.84149 0.0
C200 C 0.14909 0.179 0.83287 0.0
C201 C 0.14703 0.19017 0.83669 0.0
C202 C 0.1296 0.19108 0.82487 0.0
C203 C 0.13736 0.19616 0.83273 0.0
C204 C 0.13165 0.1798 0.82127 0.0
C205 C 0.14128 0.17385 0.82522 0.0
U206 U 0.17543 0.17262 0.85245 0.0
O207 O 0.18189 0.15584 0.85805 0.0
O208 O 0.19272 0.16706 0.84736 0.0
C209 C 0.19155 0.15698 0.85232 0.0
C210 C 0.1594 0.17256 0.8364 0.0
C211 C 0.19504 0.14699 0.84551 0.0
C212 C 0.19158 0.1328 0.83059 0.0
C213 C 0.18808 0.14248 0.8367 0.0
C214 C 0.20904 0.13213 0.84197 0.0
C215 C 0.20209 0.12744 0.8332 0.0
C216 C 0.20555 0.14177 0.84804 0.0
C217 C 0.18208 0.19146 0.87896 0.0
C218 C 0.19881 0.18969 0.89149 0.0
C219 C 0.18402 0.20334 0.89595 0.0
C220 C 0.17786 0.19998 0.88617 0.0
C221 C 0.19459 0.19825 0.89878 0.0
C222 C 0.1926 0.18631 0.88167 0.0
C223 C 0.17533 0.18821 0.86868 0.0
O224 O 0.16937 0.17791 0.83533 0.0
O225 O 0.15857 0.16658 0.84595 0.0
O226 O 0.16955 0.17847 0.86933 0.0
O227 O 0.18042 0.18975 0.85875 0.0
H228 H 0.15296 0.19431 0.8426 0.0
H229 H 0.13611 0.20484 0.83563 0.0
H230 H 0.12578 0.17551 0.81541 0.0
H231 H 0.14267 0.16522 0.8222 0.0
H232 H 0.18597 0.1294 0.82397 0.0
H233 H 0.17992 0.14639 0.83462 0.0
H234 H 0.21727 0.1284 0.8441 0.0
H235 H 0.21107 0.14514 0.85477 0.0
H236 H 0.20685 0.1855 0.89343 0.0
H237 H 0.18057 0.21008 0.90121 0.0
H238 H 0.16977 0.20409 0.8842 0.0
H239 H 0.196 0.17969 0.87622 0.0
C240 C 0.83006 0.1487 0.84926 0.0
C241 C 0.83629 0.14432 0.84003 0.0
C242 C 0.82176 0.12921 0.83726 0.0
C243 C 0.83218 0.13464 0.83409 0.0
C244 C 0.81562 0.13367 0.84656 0.0
C245 C 0.81972 0.1433 0.85247 0.0
U246 U 0.85054 0.17454 0.85507 0.0
O247 O 0.84622 0.19178 0.86111 0.0
O248 O 0.85725 0.18078 0.87165 0.0
C249 C 0.85168 0.19048 0.87092 0.0
C250 C 0.83409 0.15881 0.85577 0.0
C251 C 0.84548 0.19402 0.88131 0.0
C252 C 0.82831 0.19449 0.89318 0.0
C253 C 0.83404 0.19062 0.8834 0.0
C254 C 0.84543 0.20505 0.89894 0.0
C255 C 0.83393 0.20179 0.90107 0.0
C256 C 0.85112 0.20121 0.88918 0.0
C257 C 0.87613 0.18117 0.83505 0.0
C258 C 0.88902 0.19768 0.83697 0.0
C259 C 0.89241 0.18364 0.82222 0.0
C260 C 0.88274 0.17736 0.82586 0.0
C261 C 0.8957 0.19389 0.82772 0.0
C262 C 0.87933 0.19137 0.84062 0.0
C263 C 0.86593 0.17439 0.8386 0.0
O264 O 0.84398 0.15781 0.86118 0.0
O265 O 0.83293 0.1688 0.85067 0.0
O266 O 0.85597 0.17953 0.83767 0.0
O267 O 0.86699 0.16852 0.84819 0.0
H268 H 0.84429 0.1484 0.83741 0.0
H269 H 0.83709 0.13152 0.82692 0.0
H270 H 0.80768 0.12963 0.84939 0.0
H271 H 0.81482 0.14651 0.8596 0.0
H272 H 0.8195 0.19171 0.89459 0.0
H273 H 0.82953 0.18504 0.87744 0.0
H274 H 0.84999 0.21079 0.9047 0.0
H275 H 0.85993 0.20397 0.88771 0.0
H276 H 0.89135 0.20547 0.84148 0.0
H277 H 0.8972 0.18053 0.81496 0.0
H278 H 0.88038 0.16954 0.82143 0.0
H279 H 0.87435 0.19444 0.84777 0.0
C280 C 0.84582 0.8764 0.83095 0.0
C281 C 0.83682 0.88079 0.83752 0.0
C282 C 0.8339 0.89613 0.82347 0.0
C283 C 0.83091 0.89056 0.83381 0.0
C284 C 0.8429 0.89161 0.81692 0.0
C285 C 0.84878 0.88187 0.82064 0.0
U286 U 0.85117 0.85039 0.8508 0.0
O287 O 0.85691 0.83309 0.84634 0.0
O288 O 0.86758 0.84388 0.8576 0.0
C289 C 0.86669 0.83419 0.85196 0.0
C290 C 0.85231 0.86623 0.83467 0.0
C291 C 0.87712 0.83042 0.84594 0.0
C292 C 0.89005 0.83074 0.82957 0.0
C293 C 0.88026 0.83484 0.83517 0.0
C294 C 0.89367 0.8179 0.84552 0.0
C295 C 0.89684 0.82213 0.83464 0.0
C296 C 0.88393 0.82199 0.85108 0.0
C297 C 0.83027 0.84411 0.87592 0.0
C298 C 0.83364 0.8322 0.8928 0.0
C299 C 0.8144 0.83865 0.88843 0.0
C300 C 0.81855 0.84435 0.87867 0.0
C301 C 0.82189 0.83258 0.89571 0.0
C302 C 0.83779 0.83791 0.883 0.0
C303 C 0.83438 0.85071 0.86586 0.0
O304 O 0.85772 0.86706 0.84455 0.0
O305 O 0.84707 0.85627 0.83328 0.0
O306 O 0.83348 0.84559 0.85589 0.0
O307 O 0.84413 0.85643 0.86712 0.0
H308 H 0.83441 0.87669 0.84553 0.0
H309 H 0.82412 0.89384 0.83913 0.0
H310 H 0.84532 0.89551 0.80883 0.0
H311 H 0.85566 0.87859 0.81542 0.0
H312 H 0.89217 0.83415 0.82118 0.0
H313 H 0.8751 0.84135 0.83105 0.0
H314 H 0.89877 0.81144 0.8498 0.0
H315 H 0.88168 0.8185 0.85941 0.0
H316 H 0.83969 0.8277 0.89823 0.0
H317 H 0.80528 0.83897 0.89022 0.0
H318 H 0.81259 0.84904 0.8733 0.0
H319 H 0.84688 0.83759 0.88104 0.0
C320 C 0.18105 0.64724 0.69433 0.0
C321 C 0.17813 0.63636 0.68997 0.0
C322 C 0.19337 0.62748 0.70131 0.0
C323 C 0.18422 0.62662 0.6934 0.0
C324 C 0.19636 0.63839 0.70558 0.0
C325 C 0.19025 0.64812 0.70218 0.0
U326 U 0.17305 0.67376 0.67584 0.0
O327 O 0.15598 0.68018 0.67096 0.0
O328 O 0.16761 0.6909 0.68134 0.0
C329 C 0.1573 0.68972 0.6768 0.0
C330 C 0.17397 0.65745 0.6915 0.0
C331 C 0.14754 0.69315 0.68405 0.0
C332 C 0.13147 0.6887 0.69673 0.0
C333 C 0.14097 0.68514 0.69034 0.0
C334 C 0.1351 0.7083 0.69075 0.0
C335 C 0.12839 0.70034 0.69699 0.0
C336 C 0.14454 0.70474 0.68436 0.0
C337 C 0.19154 0.68065 0.64894 0.0
C338 C 0.18867 0.69635 0.63542 0.0
C339 C 0.20455 0.6834 0.63288 0.0
C340 C 0.20118 0.67732 0.64269 0.0
C341 C 0.19833 0.69298 0.62906 0.0
C342 C 0.18529 0.69022 0.64527 0.0
C343 C 0.18829 0.67393 0.65921 0.0
O344 O 0.17895 0.66756 0.69271 0.0
O345 O 0.1674 0.65683 0.6823 0.0
O346 O 0.17845 0.66826 0.65868 0.0
O347 O 0.19005 0.67891 0.66915 0.0
H348 H 0.17101 0.6353 0.68403 0.0
H349 H 0.18174 0.6184 0.68983 0.0
H350 H 0.20321 0.63938 0.71184 0.0
H351 H 0.19262 0.65631 0.70589 0.0
H352 H 0.12658 0.68234 0.70152 0.0
H353 H 0.14315 0.67614 0.69026 0.0
H354 H 0.13292 0.71729 0.6906 0.0
H355 H 0.14945 0.71106 0.67953 0.0
H356 H 0.18363 0.70362 0.6327 0.0
H357 H 0.21214 0.68067 0.62837 0.0
H358 H 0.20614 0.66999 0.64542 0.0
H359 H 0.17781 0.69292 0.64999 0.0
C360 C 0.82739 0.68025 0.65308 0.0
C361 C 0.83283 0.69035 0.64922 0.0
C362 C 0.81922 0.69165 0.63325 0.0
C363 C 0.82877 0.69601 0.6394 0.0
C364 C 0.8138 0.68154 0.63724 0.0
C365 C 0.81785 0.67591 0.64704 0.0
U366 U 0.84858 0.67601 0.6781 0.0
O367 O 0.84524 0.67068 0.69589 0.0
O368 O 0.8559 0.65999 0.68489 0.0
C369 C 0.8506 0.6609 0.69476 0.0
C370 C 0.83153 0.67406 0.6633 0.0
C371 C 0.84442 0.65051 0.69881 0.0
C372 C 0.82673 0.63981 0.70274 0.0
C373 C 0.83236 0.64963 0.69847 0.0
C374 C 0.84515 0.63154 0.70751 0.0
C375 C 0.83305 0.63065 0.70738 0.0
C376 C 0.85075 0.64137 0.70331 0.0
C377 C 0.87393 0.69721 0.6821 0.0
C378 C 0.88905 0.69508 0.69643 0.0
C379 C 0.88856 0.7121 0.68446 0.0
C380 C 0.8787 0.70784 0.67893 0.0
C381 C 0.89386 0.70579 0.6933 0.0
C382 C 0.87915 0.69084 0.6909 0.0
C383 C 0.86356 0.69299 0.67609 0.0
O384 O 0.84139 0.66882 0.66216 0.0
O385 O 0.83068 0.67951 0.67308 0.0
O386 O 0.85385 0.69383 0.68172 0.0
O387 O 0.86455 0.68316 0.67076 0.0
H388 H 0.84024 0.69381 0.65377 0.0
H389 H 0.83322 0.70371 0.63652 0.0
H390 H 0.80633 0.67802 0.63285 0.0
H391 H 0.81352 0.66814 0.64992 0.0
H392 H 0.81742 0.63951 0.70259 0.0
H393 H 0.82727 0.65656 0.695 0.0
H394 H 0.85033 0.6246 0.7108 0.0
H395 H 0.86006 0.64185 0.70361 0.0
H396 H 0.89285 0.69006 0.70327 0.0
H397 H 0.8921 0.72028 0.6817 0.0
H398 H 0.87481 0.71286 0.67214 0.0
H399 H 0.87556 0.68261 0.69348 0.0
C400 C 0.82909 0.34207 0.65148 0.0
C401 C 0.83675 0.3346 0.64614 0.0
C402 C 0.82193 0.32912 0.63217 0.0
C403 C 0.83321 0.32821 0.63656 0.0
C404 C 0.8143 0.33657 0.63765 0.0
C405 C 0.81785 0.34295 0.64718 0.0
U406 U 0.84844 0.34953 0.67759 0.0
O407 O 0.85467 0.36646 0.6834 0.0
O408 O 0.84336 0.35612 0.69445 0.0
C409 C 0.84878 0.36597 0.69297 0.0
C410 C 0.83259 0.34919 0.66138 0.0
C411 C 0.84234 0.37634 0.69601 0.0
C412 C 0.8264 0.38945 0.69332 0.0
C413 C 0.83234 0.37959 0.69009 0.0
C414 C 0.84041 0.39291 0.70838 0.0
C415 C 0.83037 0.39627 0.70252 0.0
C416 C 0.8463 0.38308 0.70515 0.0
C417 C 0.87396 0.32964 0.68558 0.0
C418 C 0.8932 0.33287 0.69354 0.0
C419 C 0.88413 0.31417 0.69522 0.0
C420 C 0.8744 0.31825 0.68947 0.0
C421 C 0.89375 0.32136 0.69719 0.0
C422 C 0.88342 0.33697 0.68779 0.0
C423 C 0.86393 0.33329 0.67859 0.0
O424 O 0.83107 0.34456 0.67156 0.0
O425 O 0.84242 0.35481 0.66046 0.0
O426 O 0.86515 0.34266 0.67236 0.0
O427 O 0.85378 0.33237 0.68343 0.0
H428 H 0.84546 0.33375 0.64936 0.0
H429 H 0.83927 0.32247 0.63265 0.0
H430 H 0.80562 0.33763 0.63444 0.0
H431 H 0.81182 0.34869 0.65114 0.0
H432 H 0.81877 0.39181 0.68854 0.0
H433 H 0.82914 0.3745 0.68298 0.0
H434 H 0.84363 0.39778 0.71562 0.0
H435 H 0.85397 0.38069 0.70987 0.0
H436 H 0.90045 0.33865 0.69481 0.0
H437 H 0.88411 0.30532 0.69808 0.0
H438 H 0.86725 0.31241 0.68787 0.0
H439 H 0.88337 0.3458 0.68489 0.0
C440 C 0.14966 0.32967 0.68204 0.0
C441 C 0.14584 0.33563 0.69168 0.0
C442 C 0.13041 0.32147 0.69458 0.0
C443 C 0.13628 0.33158 0.69789 0.0
C444 C 0.13429 0.31561 0.68485 0.0
C445 C 0.1438 0.31966 0.67867 0.0
U446 U 0.175 0.35048 0.67597 0.0
O447 O 0.19257 0.34667 0.6703 0.0
O448 O 0.18135 0.35711 0.65942 0.0
C449 C 0.1913 0.35197 0.66042 0.0
C450 C 0.15971 0.33364 0.67536 0.0
C451 C 0.19537 0.34585 0.65021 0.0
C452 C 0.19395 0.33037 0.63633 0.0
C453 C 0.18973 0.336 0.64603 0.0
C454 C 0.20941 0.3444 0.63493 0.0
C455 C 0.20389 0.33447 0.63069 0.0
C456 C 0.20519 0.35 0.64457 0.0
C457 C 0.18031 0.37628 0.69603 0.0
C458 C 0.19517 0.39095 0.69338 0.0
C459 C 0.18295 0.3914 0.7101 0.0
C460 C 0.17717 0.38153 0.7063 0.0
C461 C 0.19202 0.39628 0.7037 0.0
C462 C 0.18936 0.38104 0.68958 0.0
C463 C 0.174 0.36589 0.6923 0.0
O464 O 0.1585 0.34333 0.66971 0.0
O465 O 0.16976 0.33283 0.6805 0.0
O466 O 0.1795 0.35618 0.69341 0.0
O467 O 0.16832 0.36671 0.68256 0.0
H468 H 0.15027 0.34338 0.69443 0.0
H469 H 0.13362 0.33627 0.70538 0.0
H470 H 0.12989 0.30793 0.6819 0.0
H471 H 0.14658 0.31496 0.67122 0.0
H472 H 0.18953 0.3227 0.63338 0.0
H473 H 0.18213 0.33264 0.65029 0.0
H474 H 0.21695 0.34795 0.63072 0.0
H475 H 0.20964 0.35762 0.64763 0.0
H476 H 0.20204 0.3945 0.68817 0.0
H477 H 0.18041 0.3951 0.71818 0.0
H478 H 0.17024 0.37795 0.71143 0.0
H479 H 0.19191 0.37711 0.68161 0.0
C480 C 0.14785 0.33 0.3484 0.0
C481 C 0.145 0.33585 0.33825 0.0
C482 C 0.12789 0.32371 0.33586 0.0
C483 C 0.13511 0.33272 0.33203 0.0
C484 C 0.13083 0.31791 0.34606 0.0
C485 C 0.14071 0.32103 0.35225 0.0
U486 U 0.1743 0.34911 0.35375 0.0
O487 O 0.18138 0.35582 0.36995 0.0
O488 O 0.19176 0.34451 0.35934 0.0
C489 C 0.19089 0.34992 0.36913 0.0
C490 C 0.15819 0.33314 0.35507 0.0
C491 C 0.19416 0.34333 0.37942 0.0
C492 C 0.19077 0.32782 0.39307 0.0
C493 C 0.18751 0.33394 0.38323 0.0
C494 C 0.20737 0.34039 0.39536 0.0
C495 C 0.20074 0.33099 0.39928 0.0
C496 C 0.2041 0.34649 0.38553 0.0
C497 C 0.18011 0.37426 0.33276 0.0
C498 C 0.19295 0.3906 0.33589 0.0
C499 C 0.18454 0.3874 0.31712 0.0
C500 C 0.17888 0.3776 0.32128 0.0
C501 C 0.19156 0.39411 0.32439 0.0
C502 C 0.18727 0.38076 0.34004 0.0
C503 C 0.17355 0.3642 0.33695 0.0
O504 O 0.16806 0.33167 0.34987 0.0
O505 O 0.1577 0.34293 0.36055 0.0
O506 O 0.16813 0.36544 0.34671 0.0
O507 O 0.17863 0.35425 0.33606 0.0
H508 H 0.15041 0.34283 0.33517 0.0
H509 H 0.13305 0.33745 0.32428 0.0
H510 H 0.12558 0.31083 0.34917 0.0
H511 H 0.14281 0.3164 0.36005 0.0
H512 H 0.1854 0.32071 0.3959 0.0
H513 H 0.17979 0.33139 0.37861 0.0
H514 H 0.21518 0.34297 0.39979 0.0
H515 H 0.20937 0.35368 0.38269 0.0
H516 H 0.19822 0.3956 0.34175 0.0
H517 H 0.18345 0.38969 0.30818 0.0
H518 H 0.17343 0.37266 0.31552 0.0
H519 H 0.18835 0.3783 0.34895 0.0
C520 C 0.14942 0.6798 0.33326 0.0
C521 C 0.1447 0.68804 0.34053 0.0
C522 C 0.12988 0.69238 0.32622 0.0
C523 C 0.135 0.69425 0.33705 0.0
C524 C 0.1347 0.68409 0.31902 0.0
C525 C 0.14434 0.67789 0.32251 0.0
U526 U 0.17543 0.67312 0.35287 0.0
O527 O 0.18186 0.65637 0.35867 0.0
O528 O 0.1928 0.6676 0.34812 0.0
C529 C 0.19165 0.65757 0.35319 0.0
C530 C 0.15956 0.67305 0.33666 0.0
C531 C 0.19556 0.64755 0.34666 0.0
C532 C 0.1939 0.63413 0.33079 0.0
C533 C 0.18978 0.64363 0.33681 0.0
C534 C 0.20954 0.63241 0.34445 0.0
C535 C 0.2039 0.62844 0.33451 0.0
C536 C 0.20542 0.64185 0.35044 0.0
C537 C 0.18181 0.69241 0.37911 0.0
C538 C 0.1968 0.68921 0.3934 0.0
C539 C 0.18508 0.70616 0.39441 0.0
C540 C 0.17906 0.70266 0.3846 0.0
C541 C 0.19401 0.69948 0.39901 0.0
C542 C 0.19075 0.6857 0.38355 0.0
C543 C 0.17514 0.68895 0.36886 0.0
O544 O 0.16961 0.67823 0.33559 0.0
O545 O 0.15864 0.66711 0.34623 0.0
O546 O 0.16941 0.67919 0.36961 0.0
O547 O 0.18031 0.69036 0.35895 0.0
H548 H 0.14851 0.68967 0.34886 0.0
H549 H 0.13162 0.70063 0.34278 0.0
H550 H 0.13092 0.68227 0.31071 0.0
H551 H 0.14783 0.67155 0.31679 0.0
H552 H 0.18938 0.63138 0.32313 0.0
H553 H 0.18215 0.64794 0.33375 0.0
H554 H 0.21712 0.62815 0.34771 0.0
H555 H 0.20998 0.64471 0.35805 0.0
H556 H 0.20355 0.68379 0.39673 0.0
H557 H 0.18281 0.71421 0.39833 0.0
H558 H 0.17223 0.70798 0.38127 0.0
H559 H 0.19299 0.67775 0.37943 0.0
C560 C 0.8277 0.64963 0.34836 0.0
C561 C 0.83372 0.64529 0.33897 0.0
C562 C 0.81921 0.6301 0.33656 0.0
C563 C 0.82953 0.63559 0.33313 0.0
C564 C 0.81328 0.63452 0.34602 0.0
C565 C 0.81749 0.64417 0.35183 0.0
U566 U 0.84855 0.6752 0.35348 0.0
O567 O 0.84461 0.6927 0.35899 0.0
O568 O 0.85548 0.68182 0.36982 0.0
C569 C 0.85007 0.69159 0.36883 0.0
C570 C 0.83183 0.65981 0.3547 0.0
C571 C 0.84392 0.6955 0.37911 0.0
C572 C 0.82677 0.69642 0.39098 0.0
C573 C 0.83248 0.69219 0.38134 0.0
C574 C 0.84392 0.70716 0.39633 0.0
C575 C 0.8324 0.70405 0.39856 0.0
C576 C 0.84959 0.70294 0.38672 0.0
C577 C 0.874 0.68046 0.33274 0.0
C578 C 0.88909 0.69497 0.335 0.0
C579 C 0.88843 0.68326 0.31794 0.0
C580 C 0.87866 0.67753 0.32212 0.0
C581 C 0.89378 0.69208 0.32429 0.0
C582 C 0.87926 0.68922 0.33918 0.0
C583 C 0.86372 0.67416 0.33685 0.0
O584 O 0.84171 0.65878 0.36011 0.0
O585 O 0.8308 0.6697 0.34938 0.0
O586 O 0.85389 0.67951 0.33586 0.0
O587 O 0.86481 0.66866 0.34666 0.0
H588 H 0.84163 0.64941 0.33615 0.0
H589 H 0.83426 0.6325 0.32584 0.0
H590 H 0.80544 0.63044 0.34904 0.0
H591 H 0.81274 0.64736 0.35909 0.0
H592 H 0.81789 0.69391 0.39236 0.0
H593 H 0.82793 0.68644 0.37556 0.0
H594 H 0.84862 0.71282 0.40205 0.0
H595 H 0.85843 0.70556 0.38518 0.0
H596 H 0.89291 0.70178 0.34007 0.0
H597 H 0.89188 0.68065 0.30977 0.0
H598 H 0.87476 0.67076 0.31705 0.0
H599 H 0.87577 0.69162 0.3474 0.0
C600 C 0.84578 0.37746 0.33127 0.0
C601 C 0.8344 0.3795 0.33462 0.0
C602 C 0.83415 0.39715 0.3232 0.0
C603 C 0.82864 0.38926 0.33063 0.0
C604 C 0.84562 0.39511 0.32006 0.0
C605 C 0.85134 0.38538 0.32404 0.0
U606 U 0.85098 0.351 0.35081 0.0
O607 O 0.8563 0.33367 0.34584 0.0
O608 O 0.86744 0.34411 0.35698 0.0
C609 C 0.86626 0.33454 0.35118 0.0
C610 C 0.85199 0.36707 0.3349 0.0
C611 C 0.87643 0.33077 0.34474 0.0
C612 C 0.89178 0.33409 0.33093 0.0
C613 C 0.88199 0.33791 0.33672 0.0
C614 C 0.89045 0.31597 0.34106 0.0
C615 C 0.89618 0.32307 0.33307 0.0
C616 C 0.88071 0.31978 0.34681 0.0
C617 C 0.8308 0.34436 0.37644 0.0
C618 C 0.8344 0.33478 0.39473 0.0
C619 C 0.81492 0.33621 0.38748 0.0
C620 C 0.81901 0.34205 0.37778 0.0
C621 C 0.82254 0.33257 0.39615 0.0
C622 C 0.83849 0.34058 0.38497 0.0
C623 C 0.8347 0.35119 0.36639 0.0
O624 O 0.85764 0.36771 0.34467 0.0
O625 O 0.84651 0.35724 0.33353 0.0
O626 O 0.83337 0.34636 0.35631 0.0
O627 O 0.84451 0.35684 0.36744 0.0
H628 H 0.82994 0.37349 0.3402 0.0
H629 H 0.8198 0.39049 0.33316 0.0
H630 H 0.85022 0.40106 0.31454 0.0
H631 H 0.86013 0.384 0.32139 0.0
H632 H 0.896 0.33985 0.32492 0.0
H633 H 0.87882 0.34644 0.33499 0.0
H634 H 0.89342 0.30737 0.34279 0.0
H635 H 0.87651 0.31412 0.35293 0.0
H636 H 0.84052 0.33198 0.40115 0.0
H637 H 0.80573 0.3348 0.38833 0.0
H638 H 0.8129 0.34493 0.37137 0.0
H639 H 0.84765 0.3422 0.38416 0.0
C640 C 0.68191 0.14828 0.69686 0.0
C641 C 0.69127 0.14469 0.6903 0.0
C642 C 0.69411 0.12833 0.70317 0.0
C643 C 0.69734 0.13481 0.69344 0.0
C644 C 0.68474 0.13206 0.7097 0.0
C645 C 0.67872 0.1419 0.70657 0.0
U646 U 0.67526 0.17527 0.67856 0.0
O647 O 0.65839 0.18203 0.67345 0.0
O648 O 0.66982 0.19226 0.68452 0.0
C649 C 0.6596 0.1913 0.67972 0.0
C650 C 0.67531 0.1586 0.69387 0.0
C651 C 0.64969 0.19452 0.68689 0.0
C652 C 0.63225 0.1898 0.69755 0.0
C653 C 0.64188 0.18634 0.69131 0.0
C654 C 0.63823 0.20962 0.69525 0.0
C655 C 0.63027 0.20151 0.69956 0.0
C656 C 0.6478 0.20616 0.68899 0.0
C657 C 0.6944 0.18347 0.65245 0.0
C658 C 0.69088 0.19183 0.63354 0.0
C659 C 0.70971 0.19371 0.64232 0.0
C660 C 0.70578 0.18762 0.65193 0.0
C661 C 0.70238 0.19576 0.6329 0.0
C662 C 0.68694 0.18574 0.6432 0.0
C663 C 0.69089 0.17616 0.66233 0.0
O664 O 0.68062 0.16849 0.69539 0.0
O665 O 0.66932 0.15818 0.68429 0.0
O666 O 0.68115 0.17035 0.6614 0.0
O667 O 0.69252 0.18053 0.67259 0.0
H668 H 0.69387 0.14951 0.68276 0.0
H669 H 0.70445 0.13217 0.68816 0.0
H670 H 0.68213 0.12746 0.71737 0.0
H671 H 0.67156 0.14456 0.71179 0.0
H672 H 0.62638 0.18331 0.70084 0.0
H673 H 0.64317 0.17729 0.68985 0.0
H674 H 0.63692 0.2187 0.69647 0.0
H675 H 0.65366 0.21263 0.68562 0.0
H676 H 0.685 0.19314 0.62644 0.0
H677 H 0.71854 0.19677 0.64227 0.0
H678 H 0.71173 0.18597 0.65891 0.0
H679 H 0.67811 0.18264 0.6433 0.0
C680 C 0.32902 0.17819 0.65 0.0
C681 C 0.33002 0.19017 0.64917 0.0
C682 C 0.32077 0.18982 0.63034 0.0
C683 C 0.32588 0.19594 0.63945 0.0
C684 C 0.31994 0.17781 0.63117 0.0
C685 C 0.324 0.17207 0.64091 0.0
U686 U 0.34975 0.17375 0.67538 0.0
O687 O 0.34614 0.16828 0.6931 0.0
O688 O 0.35706 0.15777 0.6822 0.0
C689 C 0.35173 0.15863 0.69205 0.0
C690 C 0.33299 0.17188 0.66027 0.0
C691 C 0.34563 0.14822 0.69604 0.0
C692 C 0.32933 0.13494 0.69538 0.0
C693 C 0.33498 0.14484 0.69134 0.0
C694 C 0.34495 0.13169 0.70878 0.0
C695 C 0.33425 0.12823 0.70416 0.0
C696 C 0.35057 0.14157 0.70475 0.0
C697 C 0.37507 0.19485 0.67981 0.0
C698 C 0.38784 0.19471 0.69641 0.0
C699 C 0.39197 0.20733 0.68034 0.0
C700 C 0.38212 0.20322 0.67468 0.0
C701 C 0.39496 0.20314 0.69128 0.0
C702 C 0.37799 0.19058 0.6907 0.0
C703 C 0.36474 0.19074 0.67364 0.0
O704 O 0.34285 0.16661 0.65926 0.0
O705 O 0.33191 0.17712 0.67014 0.0
O706 O 0.35495 0.19154 0.67915 0.0
O707 O 0.36579 0.18097 0.66823 0.0
H708 H 0.33395 0.19508 0.65604 0.0
H709 H 0.32677 0.20518 0.63902 0.0
H710 H 0.31595 0.17285 0.62437 0.0
H711 H 0.32314 0.16282 0.64139 0.0
H712 H 0.32116 0.13247 0.69156 0.0
H713 H 0.33106 0.14986 0.68456 0.0
H714 H 0.34892 0.12686 0.71567 0.0
H715 H 0.35877 0.14407 0.70851 0.0
H716 H 0.38995 0.19122 0.70477 0.0
H717 H 0.39713 0.21393 0.67622 0.0
H718 H 0.37999 0.20663 0.66629 0.0
H719 H 0.37266 0.18406 0.69478 0.0
C720 C 0.33251 0.8454 0.65055 0.0
C721 C 0.33667 0.8344 0.64829 0.0
C722 C 0.32482 0.83326 0.63091 0.0
C723 C 0.33287 0.82838 0.63854 0.0
C724 C 0.32091 0.84438 0.63315 0.0
C725 C 0.32471 0.85036 0.64285 0.0
U726 U 0.35151 0.85169 0.67736 0.0
O727 O 0.35704 0.86846 0.68416 0.0
O728 O 0.34598 0.85715 0.6945 0.0
C729 C 0.35102 0.86726 0.6936 0.0
C730 C 0.33583 0.85181 0.66097 0.0
C731 C 0.34409 0.8772 0.69698 0.0
C732 C 0.32841 0.89053 0.6938 0.0
C733 C 0.33472 0.88096 0.69037 0.0
C734 C 0.34074 0.89261 0.71047 0.0
C735 C 0.33138 0.89652 0.70389 0.0
C736 C 0.34701 0.88308 0.70704 0.0
C737 C 0.37782 0.8327 0.6843 0.0
C738 C 0.39055 0.8347 0.70086 0.0
C739 C 0.3943 0.82023 0.68663 0.0
C740 C 0.38462 0.82371 0.6804 0.0
C741 C 0.39744 0.82569 0.69694 0.0
C742 C 0.38083 0.83819 0.69459 0.0
C743 C 0.36769 0.83609 0.67744 0.0
O744 O 0.33446 0.84643 0.6708 0.0
O745 O 0.34548 0.85779 0.66046 0.0
O746 O 0.36857 0.84588 0.67188 0.0
O747 O 0.35759 0.83454 0.68227 0.0
H748 H 0.34271 0.83041 0.65413 0.0
H749 H 0.336 0.81981 0.63714 0.0
H750 H 0.3149 0.84851 0.6274 0.0
H751 H 0.32144 0.85886 0.64441 0.0
H752 H 0.32132 0.89333 0.68847 0.0
H753 H 0.33233 0.87654 0.68255 0.0
H754 H 0.34318 0.89683 0.71837 0.0
H755 H 0.35418 0.88028 0.71229 0.0
H756 H 0.39274 0.83917 0.7087 0.0
H757 H 0.39923 0.81314 0.68342 0.0
H758 H 0.38241 0.81932 0.67251 0.0
H759 H 0.3757 0.84517 0.69774 0.0
C760 C 0.64909 0.82892 0.68255 0.0
C761 C 0.64467 0.835 0.69186 0.0
C762 C 0.62923 0.82071 0.69412 0.0
C763 C 0.63481 0.83094 0.69758 0.0
C764 C 0.63371 0.81475 0.68472 0.0
C765 C 0.64352 0.81881 0.67903 0.0
U766 U 0.67505 0.84939 0.67697 0.0
O767 O 0.69265 0.84497 0.67183 0.0
O768 O 0.68195 0.85538 0.66041 0.0
C769 C 0.69158 0.84969 0.66162 0.0
C770 C 0.65945 0.83283 0.67633 0.0
C771 C 0.69543 0.84283 0.65165 0.0
C772 C 0.7086 0.82898 0.6435 0.0
C773 C 0.70423 0.83475 0.65299 0.0
C774 C 0.69546 0.83913 0.63106 0.0
C775 C 0.70437 0.83116 0.63238 0.0
C776 C 0.69108 0.84491 0.64056 0.0
C777 C 0.68026 0.87576 0.69657 0.0
C778 C 0.6975 0.88785 0.69755 0.0
C779 C 0.68042 0.89318 0.70792 0.0
C780 C 0.67467 0.88343 0.70377 0.0
C781 C 0.69195 0.89549 0.70497 0.0
C782 C 0.6917 0.87806 0.6934 0.0
C783 C 0.674 0.86534 0.69279 0.0
O784 O 0.65856 0.84245 0.6705 0.0
O785 O 0.66927 0.832 0.68189 0.0
O786 O 0.67929 0.85555 0.6943 0.0
O787 O 0.66859 0.86601 0.68289 0.0
H788 H 0.64887 0.84283 0.69471 0.0
H789 H 0.63166 0.83571 0.70483 0.0
H790 H 0.62956 0.80697 0.68166 0.0
H791 H 0.64676 0.81402 0.67183 0.0
H792 H 0.71535 0.82281 0.64488 0.0
H793 H 0.70789 0.83302 0.66136 0.0
H794 H 0.69209 0.84117 0.62264 0.0
H795 H 0.68445 0.8512 0.63915 0.0
H796 H 0.70639 0.88929 0.69516 0.0
H797 H 0.67579 0.89894 0.71342 0.0
H798 H 0.66582 0.88184 0.70628 0.0
H799 H 0.69619 0.87224 0.68783 0.0
C800 C 0.64913 0.82846 0.34847 0.0
C801 C 0.64189 0.83593 0.34242 0.0
C802 C 0.62946 0.81985 0.33682 0.0
C803 C 0.63211 0.83167 0.33669 0.0
C804 C 0.63679 0.81244 0.34288 0.0
C805 C 0.6465 0.81671 0.34864 0.0
U806 U 0.67464 0.84943 0.35313 0.0
O807 O 0.6819 0.85621 0.3692 0.0
O808 O 0.69249 0.84551 0.35813 0.0
C809 C 0.69161 0.85067 0.36807 0.0
C810 C 0.65944 0.83262 0.3547 0.0
C811 C 0.69557 0.84407 0.37816 0.0
C812 C 0.69182 0.8331 0.3956 0.0
C813 C 0.68779 0.83899 0.38591 0.0
C814 C 0.71144 0.83703 0.38977 0.0
C815 C 0.70371 0.8321 0.39771 0.0
C816 C 0.7074 0.84297 0.38014 0.0
C817 C 0.67921 0.87485 0.33229 0.0
C818 C 0.69438 0.88933 0.33409 0.0
C819 C 0.68166 0.88949 0.31758 0.0
C820 C 0.67582 0.87986 0.32189 0.0
C821 C 0.69105 0.89433 0.32358 0.0
C822 C 0.68852 0.87964 0.3384 0.0
C823 C 0.67294 0.86462 0.33648 0.0
O824 O 0.66924 0.8317 0.34925 0.0
O825 O 0.65848 0.84239 0.36015 0.0
O826 O 0.66776 0.86563 0.3464 0.0
O827 O 0.67828 0.85483 0.33539 0.0
H828 H 0.6438 0.84504 0.34212 0.0
H829 H 0.62671 0.83759 0.33201 0.0
H830 H 0.63495 0.80332 0.34329 0.0
H831 H 0.65197 0.8108 0.35327 0.0
H832 H 0.6856 0.82952 0.40155 0.0
H833 H 0.67859 0.83967 0.38454 0.0
H834 H 0.72065 0.83626 0.39095 0.0
H835 H 0.71356 0.84675 0.37423 0.0
H836 H 0.70163 0.89276 0.33888 0.0
H837 H 0.67874 0.89321 0.30957 0.0
H838 H 0.66863 0.8763 0.31708 0.0
H839 H 0.69128 0.87586 0.34644 0.0
C840 C 0.64762 0.1784 0.33199 0.0
C841 C 0.64418 0.18848 0.33745 0.0
C842 C 0.62822 0.19052 0.32384 0.0
C843 C 0.63454 0.19448 0.33342 0.0
C844 C 0.63168 0.18034 0.31854 0.0
C845 C 0.64126 0.17437 0.32257 0.0
U846 U 0.67367 0.17214 0.35199 0.0
O847 O 0.68019 0.15542 0.35767 0.0
O848 O 0.69107 0.1667 0.34708 0.0
C849 C 0.68983 0.15655 0.3519 0.0
C850 C 0.65785 0.17198 0.33573 0.0
C851 C 0.69344 0.14661 0.345 0.0
C852 C 0.68937 0.12862 0.33515 0.0
C853 C 0.68553 0.13829 0.34102 0.0
C854 C 0.70901 0.13555 0.33689 0.0
C855 C 0.70118 0.12708 0.33306 0.0
C856 C 0.70518 0.14516 0.3428 0.0
C857 C 0.68007 0.19111 0.37843 0.0
C858 C 0.69652 0.18909 0.39128 0.0
C859 C 0.68217 0.20339 0.39511 0.0
C860 C 0.67605 0.19998 0.38532 0.0
C861 C 0.6925 0.198 0.39825 0.0
C862 C 0.69035 0.18566 0.38147 0.0
C863 C 0.67337 0.1878 0.36815 0.0
O864 O 0.66781 0.17735 0.33477 0.0
O865 O 0.65689 0.16609 0.34532 0.0
O866 O 0.66764 0.17803 0.3688 0.0
O867 O 0.67852 0.18932 0.35824 0.0
H868 H 0.64899 0.19174 0.34474 0.0
H869 H 0.63219 0.20233 0.33766 0.0
H870 H 0.62694 0.17691 0.31129 0.0
H871 H 0.64374 0.16659 0.31827 0.0
H872 H 0.68308 0.12235 0.3322 0.0
H873 H 0.67641 0.1392 0.34255 0.0
H874 H 0.71817 0.1346 0.33557 0.0
H875 H 0.71145 0.15142 0.34583 0.0
H876 H 0.70437 0.18467 0.39347 0.0
H877 H 0.6789 0.21041 0.40011 0.0
H878 H 0.66816 0.20432 0.3831 0.0
H879 H 0.69359 0.17877 0.37626 0.0
C880 C 0.31939 0.157 0.33966 0.0
C881 C 0.32553 0.15252 0.33042 0.0
C882 C 0.31048 0.13797 0.32733 0.0
C883 C 0.3211 0.1431 0.32429 0.0
C884 C 0.30431 0.14269 0.33647 0.0
C885 C 0.30872 0.15208 0.34255 0.0
U886 U 0.34174 0.1808 0.3473 0.0
O887 O 0.33861 0.19818 0.35383 0.0
O888 O 0.34817 0.18586 0.36432 0.0
C889 C 0.34351 0.19605 0.36378 0.0
C890 C 0.32396 0.16657 0.34664 0.0
C891 C 0.33725 0.19981 0.37406 0.0
C892 C 0.32436 0.19616 0.39011 0.0
C893 C 0.32972 0.19245 0.38005 0.0
C894 C 0.33386 0.21465 0.38816 0.0
C895 C 0.32644 0.20729 0.39435 0.0
C896 C 0.3392 0.21094 0.37815 0.0
C897 C 0.36874 0.18597 0.32884 0.0
C898 C 0.38331 0.20064 0.33279 0.0
C899 C 0.38529 0.18829 0.31634 0.0
C900 C 0.37498 0.18267 0.31919 0.0
C901 C 0.38962 0.19736 0.32309 0.0
C902 C 0.37297 0.19498 0.33565 0.0
C903 C 0.35786 0.1799 0.33158 0.0
O904 O 0.33342 0.16454 0.3525 0.0
O905 O 0.32397 0.17677 0.3418 0.0
O906 O 0.34844 0.18591 0.33037 0.0
O907 O 0.35791 0.1736 0.34095 0.0
H908 H 0.3338 0.15619 0.32806 0.0
H909 H 0.32614 0.13963 0.31737 0.0
H910 H 0.29605 0.1391 0.33896 0.0
H911 H 0.30383 0.15545 0.34963 0.0
H912 H 0.31879 0.19022 0.39468 0.0
H913 H 0.32809 0.18381 0.37705 0.0
H914 H 0.33551 0.22334 0.39101 0.0
H915 H 0.34495 0.21676 0.37363 0.0
H916 H 0.38641 0.20749 0.33826 0.0
H917 H 0.38978 0.18565 0.30871 0.0
H918 H 0.37184 0.17576 0.31381 0.0
H919 H 0.36827 0.19764 0.34316 0.0
C920 C 0.34696 0.87549 0.33182 0.0
C921 C 0.33773 0.8799 0.33805 0.0
C922 C 0.33516 0.89501 0.32367 0.0
C923 C 0.33189 0.8896 0.33402 0.0
C924 C 0.34447 0.89054 0.31756 0.0
C925 C 0.35029 0.88089 0.32159 0.0
U926 U 0.35261 0.84972 0.35213 0.0
O927 O 0.35791 0.83228 0.34754 0.0
O928 O 0.36923 0.84306 0.35816 0.0
C929 C 0.36801 0.83338 0.35254 0.0
C930 C 0.35329 0.86527 0.3357 0.0
C931 C 0.37801 0.82978 0.34574 0.0
C932 C 0.3929 0.8335 0.33153 0.0
C933 C 0.38326 0.83711 0.33767 0.0
C934 C 0.39206 0.81519 0.34136 0.0
C935 C 0.39747 0.8225 0.33334 0.0
C936 C 0.38245 0.8188 0.34748 0.0
C937 C 0.33285 0.84401 0.37824 0.0
C938 C 0.33625 0.83028 0.39366 0.0
C939 C 0.31814 0.84024 0.3926 0.0
C940 C 0.3219 0.846 0.38272 0.0
C941 C 0.32527 0.83233 0.39826 0.0
C942 C 0.34 0.83606 0.38375 0.0
C943 C 0.33657 0.85045 0.36795 0.0
O944 O 0.35905 0.86626 0.34538 0.0
O945 O 0.34781 0.8554 0.33474 0.0
O946 O 0.33515 0.84523 0.35809 0.0
O947 O 0.34646 0.856 0.36873 0.0
H948 H 0.33503 0.87582 0.34597 0.0
H949 H 0.32471 0.89274 0.3389 0.0
H950 H 0.34738 0.89456 0.30969 0.0
H951 H 0.35742 0.87765 0.31669 0.0
H952 H 0.39688 0.83941 0.32551 0.0
H953 H 0.37995 0.84563 0.33619 0.0
H954 H 0.39517 0.8066 0.34285 0.0
H955 H 0.37849 0.813 0.35363 0.0
H956 H 0.34202 0.82433 0.39782 0.0
H957 H 0.30957 0.8419 0.39571 0.0
H958 H 0.31622 0.85206 0.37858 0.0
H959 H 0.3485 0.8344 0.38042 0.0
C960 C 0.68118 0.64885 0.19535 0.0
C961 C 0.68806 0.64296 0.18753 0.0
C962 C 0.69396 0.62957 0.2026 0.0
C963 C 0.69436 0.63339 0.19112 0.0
C964 C 0.68709 0.63559 0.21037 0.0
C965 C 0.68078 0.6451 0.20677 0.0
U966 U 0.67376 0.67413 0.17519 0.0
O967 O 0.65677 0.6802 0.16955 0.0
O968 O 0.66815 0.69153 0.17955 0.0
C969 C 0.658 0.69014 0.1747 0.0
C970 C 0.67421 0.65879 0.19182 0.0
C971 C 0.64803 0.69419 0.18125 0.0
C972 C 0.63362 0.69198 0.19622 0.0
C973 C 0.64317 0.6878 0.19028 0.0
C974 C 0.63376 0.70893 0.18417 0.0
C975 C 0.62881 0.70264 0.19326 0.0
C976 C 0.64324 0.70475 0.17826 0.0
C977 C 0.69242 0.68009 0.14844 0.0
C978 C 0.69055 0.69662 0.13576 0.0
C979 C 0.70422 0.68183 0.13136 0.0
C980 C 0.7009 0.67579 0.14122 0.0
C981 C 0.69912 0.69235 0.12848 0.0
C982 C 0.68722 0.69054 0.14564 0.0
C983 C 0.68931 0.67359 0.15889 0.0
O984 O 0.6793 0.66888 0.19253 0.0
O985 O 0.66802 0.65757 0.18243 0.0
O986 O 0.67958 0.66774 0.15849 0.0
O987 O 0.69088 0.67897 0.16866 0.0
H988 H 0.68853 0.64574 0.17867 0.0
H989 H 0.69965 0.62906 0.18493 0.0
H990 H 0.68642 0.63283 0.21922 0.0
H991 H 0.67551 0.6495 0.21293 0.0
H992 H 0.63011 0.68694 0.20323 0.0
H993 H 0.64675 0.67962 0.19274 0.0
H994 H 0.63021 0.71705 0.18149 0.0
H995 H 0.64683 0.70979 0.17128 0.0
H996 H 0.68635 0.70462 0.13377 0.0
H997 H 0.71096 0.67835 0.1261 0.0
H998 H 0.70505 0.66777 0.14326 0.0
H999 H 0.68063 0.694 0.15111 0.0
C1000 C 0.33016 0.67821 0.15068 0.0
C1001 C 0.33716 0.68688 0.14593 0.0
C1002 C 0.32286 0.69026 0.1309 0.0
C1003 C 0.33354 0.69285 0.13612 0.0
C1004 C 0.3159 0.68157 0.13577 0.0
C1005 C 0.31953 0.67562 0.14555 0.0
U1006 U 0.35017 0.67297 0.17651 0.0
O1007 O 0.34576 0.66749 0.19404 0.0
O1008 O 0.35662 0.65666 0.18341 0.0
C1009 C 0.35091 0.6576 0.19304 0.0
C1010 C 0.33374 0.67177 0.16096 0.0
C1011 C 0.34407 0.64744 0.19646 0.0
C1012 C 0.32774 0.63446 0.19377 0.0
C1013 C 0.33414 0.64415 0.19036 0.0
C1014 C 0.34116 0.63128 0.20938 0.0
C1015 C 0.33118 0.62789 0.20333 0.0
C1016 C 0.34753 0.64095 0.20597 0.0
C1017 C 0.376 0.69326 0.182 0.0
C1018 C 0.38803 0.69302 0.19914 0.0
C1019 C 0.39311 0.7054 0.18317 0.0
C1020 C 0.38347 0.70141 0.1771 0.0
C1021 C 0.39549 0.70133 0.19431 0.0
C1022 C 0.37836 0.68902 0.19304 0.0
C1023 C 0.36578 0.68946 0.17546 0.0
O1024 O 0.34349 0.66626 0.16015 0.0
O1025 O 0.33262 0.6771 0.17077 0.0
O1026 O 0.35583 0.69054 0.18063 0.0
O1027 O 0.36671 0.67969 0.17001 0.0
H1028 H 0.34541 0.689 0.14979 0.0
H1029 H 0.33917 0.69941 0.13256 0.0
H1030 H 0.30755 0.67947 0.13213 0.0
H1031 H 0.31399 0.66898 0.14913 0.0
H1032 H 0.32017 0.63205 0.18884 0.0
H1033 H 0.33135 0.64906 0.18296 0.0
H1034 H 0.34397 0.62655 0.21688 0.0
H1035 H 0.35516 0.6434 0.2108 0.0
H1036 H 0.38954 0.68976 0.20772 0.0
H1037 H 0.39876 0.71162 0.17908 0.0
H1038 H 0.38182 0.70474 0.16857 0.0
H1039 H 0.37269 0.6827 0.19695 0.0
C1040 C 0.33043 0.34514 0.15045 0.0
C1041 C 0.33591 0.33491 0.14756 0.0
C1042 C 0.32359 0.33286 0.1306 0.0
C1043 C 0.33251 0.32881 0.13774 0.0
C1044 C 0.31817 0.34313 0.13358 0.0
C1045 C 0.32156 0.34919 0.14339 0.0
U1046 U 0.34951 0.35078 0.17702 0.0
O1047 O 0.35597 0.36717 0.18396 0.0
O1048 O 0.34451 0.35627 0.19432 0.0
C1049 C 0.35009 0.36611 0.19351 0.0
C1050 C 0.33373 0.35169 0.16078 0.0
C1051 C 0.34385 0.37636 0.19728 0.0
C1052 C 0.32993 0.39151 0.19419 0.0
C1053 C 0.33549 0.38163 0.19038 0.0
C1054 C 0.34095 0.39087 0.21184 0.0
C1055 C 0.33264 0.39631 0.20496 0.0
C1056 C 0.34648 0.38103 0.20803 0.0
C1057 C 0.37474 0.33018 0.18333 0.0
C1058 C 0.38863 0.3319 0.19897 0.0
C1059 C 0.38943 0.31576 0.18606 0.0
C1060 C 0.37998 0.32 0.17999 0.0
C1061 C 0.39388 0.32161 0.19566 0.0
C1062 C 0.37912 0.33614 0.19286 0.0
C1063 C 0.36478 0.33432 0.17668 0.0
O1064 O 0.33214 0.34644 0.17064 0.0
O1065 O 0.34359 0.35731 0.16027 0.0
O1066 O 0.36616 0.34416 0.17129 0.0
O1067 O 0.35468 0.33324 0.18161 0.0
H1068 H 0.3428 0.33165 0.1529 0.0
H1069 H 0.33695 0.321 0.13567 0.0
H1070 H 0.31116 0.34643 0.12844 0.0
H1071 H 0.3172 0.35704 0.14549 0.0
H1072 H 0.32365 0.3955 0.18861 0.0
H1073 H 0.33334 0.37816 0.18203 0.0
H1074 H 0.34313 0.39415 0.22025 0.0
H1075 H 0.35286 0.37707 0.21351 0.0
H1076 H 0.39176 0.33658 0.20637 0.0
H1077 H 0.39333 0.30794 0.18312 0.0
H1078 H 0.37676 0.31531 0.17263 0.0
H1079 H 0.37518 0.34402 0.19559 0.0
C1080 C 0.64816 0.32965 0.18357 0.0
C1081 C 0.64536 0.33531 0.19374 0.0
C1082 C 0.62862 0.32266 0.19636 0.0
C1083 C 0.63569 0.33184 0.20009 0.0
C1084 C 0.63153 0.31704 0.18615 0.0
C1085 C 0.64119 0.3205 0.17984 0.0
U1086 U 0.67423 0.34932 0.17715 0.0
O1087 O 0.69151 0.3449 0.17114 0.0
O1088 O 0.68052 0.35587 0.16052 0.0
C1089 C 0.69019 0.35018 0.16124 0.0
C1090 C 0.65827 0.3331 0.17671 0.0
C1091 C 0.69363 0.34387 0.15086 0.0
C1092 C 0.69702 0.32615 0.14053 0.0
C1093 C 0.69307 0.33185 0.15028 0.0
C1094 C 0.7019 0.34439 0.13173 0.0
C1095 C 0.70155 0.33235 0.13114 0.0
C1096 C 0.69801 0.35006 0.14148 0.0
C1097 C 0.68036 0.37488 0.19755 0.0
C1098 C 0.69548 0.38938 0.1954 0.0
C1099 C 0.68294 0.38973 0.2119 0.0
C1100 C 0.67709 0.38002 0.20783 0.0
C1101 C 0.69225 0.39454 0.20578 0.0
C1102 C 0.6896 0.37961 0.19133 0.0
C1103 C 0.6739 0.36467 0.19359 0.0
O1104 O 0.6574 0.34283 0.17106 0.0
O1105 O 0.66835 0.33187 0.1817 0.0
O1106 O 0.67919 0.35482 0.19454 0.0
O1107 O 0.6682 0.36576 0.18389 0.0
H1108 H 0.65063 0.34242 0.19674 0.0
H1109 H 0.63366 0.33645 0.20783 0.0
H1110 H 0.62643 0.30983 0.1831 0.0
H1111 H 0.64323 0.316 0.17203 0.0
H1112 H 0.69649 0.31688 0.14032 0.0
H1113 H 0.68968 0.32686 0.15738 0.0
H1114 H 0.70546 0.34945 0.12476 0.0
H1115 H 0.69858 0.35934 0.14175 0.0
H1116 H 0.70266 0.39278 0.19052 0.0
H1117 H 0.68006 0.39356 0.21979 0.0
H1118 H 0.66995 0.37654 0.21272 0.0
H1119 H 0.69225 0.37574 0.18337 0.0
C1120 C 0.64646 0.33169 0.84756 0.0
C1121 C 0.63534 0.33344 0.85183 0.0
C1122 C 0.62675 0.32466 0.83483 0.0
C1123 C 0.62561 0.33003 0.84553 0.0
C1124 C 0.63788 0.32299 0.83052 0.0
C1125 C 0.64761 0.32644 0.83681 0.0
U1126 U 0.67288 0.35058 0.85544 0.0
O1127 O 0.67916 0.35604 0.87241 0.0
O1128 O 0.69008 0.34556 0.86148 0.0
C1129 C 0.68865 0.35007 0.87168 0.0
C1130 C 0.65667 0.33466 0.85473 0.0
C1131 C 0.69168 0.34283 0.88176 0.0
C1132 C 0.69129 0.33937 0.9024 0.0
C1133 C 0.68781 0.34568 0.89277 0.0
C1134 C 0.7026 0.32719 0.89026 0.0
C1135 C 0.6988 0.33009 0.90128 0.0
C1136 C 0.69912 0.3335 0.88063 0.0
C1137 C 0.67972 0.37727 0.83671 0.0
C1138 C 0.69784 0.38786 0.83512 0.0
C1139 C 0.68038 0.39585 0.8272 0.0
C1140 C 0.67416 0.38622 0.83096 0.0
C1141 C 0.69233 0.39673 0.82907 0.0
C1142 C 0.69159 0.37821 0.83891 0.0
C1143 C 0.67296 0.36695 0.83987 0.0
O1144 O 0.66685 0.33348 0.85004 0.0
O1145 O 0.65594 0.34398 0.86097 0.0
O1146 O 0.6671 0.36751 0.84945 0.0
O1147 O 0.67799 0.35704 0.83845 0.0
H1148 H 0.63415 0.33735 0.86013 0.0
H1149 H 0.61719 0.33159 0.84907 0.0
H1150 H 0.63911 0.31874 0.8224 0.0
H1151 H 0.65604 0.3248 0.8333 0.0
H1152 H 0.6881 0.34178 0.91073 0.0
H1153 H 0.68219 0.35289 0.894 0.0
H1154 H 0.70854 0.32023 0.88908 0.0
H1155 H 0.70244 0.33117 0.87232 0.0
H1156 H 0.70704 0.38822 0.83664 0.0
H1157 H 0.6758 0.40259 0.82277 0.0
H1158 H 0.665 0.38569 0.82923 0.0
H1159 H 0.69605 0.3714 0.84337 0.0
C1160 C 0.64854 0.68048 0.83333 0.0
C1161 C 0.64594 0.69074 0.83892 0.0
C1162 C 0.6286 0.69287 0.82712 0.0
C1163 C 0.63607 0.69689 0.83583 0.0
C1164 C 0.63131 0.68256 0.82159 0.0
C1165 C 0.64115 0.67646 0.82467 0.0
U1166 U 0.67556 0.67333 0.85159 0.0
O1167 O 0.68213 0.65637 0.85644 0.0
O1168 O 0.6926 0.66785 0.84567 0.0
C1169 C 0.69161 0.65766 0.85045 0.0
C1170 C 0.65891 0.67383 0.83618 0.0
C1171 C 0.69504 0.6478 0.84341 0.0
C1172 C 0.69111 0.63314 0.82907 0.0
C1173 C 0.68763 0.64278 0.83526 0.0
C1174 C 0.70944 0.63356 0.83901 0.0
C1175 C 0.70204 0.62834 0.83094 0.0
C1176 C 0.70597 0.64316 0.84516 0.0
C1177 C 0.68367 0.69131 0.8785 0.0
C1178 C 0.68643 0.69142 0.89927 0.0
C1179 C 0.69964 0.70206 0.88717 0.0
C1180 C 0.69347 0.69846 0.87745 0.0
C1181 C 0.69614 0.69869 0.89824 0.0
C1182 C 0.68027 0.68783 0.88955 0.0
C1183 C 0.6764 0.68837 0.86834 0.0
O1184 O 0.66886 0.67915 0.83487 0.0
O1185 O 0.65842 0.66759 0.84559 0.0
O1186 O 0.67041 0.67874 0.86886 0.0
O1187 O 0.68085 0.69028 0.85815 0.0
H1188 H 0.65153 0.69398 0.84565 0.0
H1189 H 0.63422 0.70472 0.84035 0.0
H1190 H 0.62592 0.67928 0.81472 0.0
H1191 H 0.64303 0.66859 0.82021 0.0
H1192 H 0.68515 0.62931 0.82298 0.0
H1193 H 0.67914 0.64623 0.83379 0.0
H1194 H 0.71798 0.63028 0.84055 0.0
H1195 H 0.71184 0.64693 0.85137 0.0
H1196 H 0.68354 0.68853 0.90762 0.0
H1197 H 0.70695 0.70778 0.88602 0.0
H1198 H 0.69626 0.70149 0.86911 0.0
H1199 H 0.67269 0.68245 0.89072 0.0
C1200 C 0.3288 0.64869 0.85052 0.0
C1201 C 0.33448 0.64471 0.84076 0.0
C1202 C 0.32034 0.62912 0.83878 0.0
C1203 C 0.33029 0.63499 0.83495 0.0
C1204 C 0.31478 0.63316 0.84863 0.0
C1205 C 0.31897 0.64283 0.85441 0.0
U1206 U 0.34961 0.67431 0.85579 0.0
O1207 O 0.34552 0.69189 0.86104 0.0
O1208 O 0.3561 0.68109 0.87221 0.0
C1209 C 0.35078 0.69089 0.87098 0.0
C1210 C 0.33285 0.65895 0.85679 0.0
C1211 C 0.34445 0.69497 0.88106 0.0
C1212 C 0.32918 0.69307 0.8952 0.0
C1213 C 0.33498 0.6889 0.88557 0.0
C1214 C 0.34228 0.70936 0.89585 0.0
C1215 C 0.33274 0.70339 0.90044 0.0
C1216 C 0.34804 0.7052 0.88628 0.0
C1217 C 0.37569 0.67965 0.83596 0.0
C1218 C 0.38655 0.69747 0.83332 0.0
C1219 C 0.39432 0.67963 0.82651 0.0
C1220 C 0.38456 0.67375 0.83055 0.0
C1221 C 0.39542 0.69159 0.82776 0.0
C1222 C 0.3768 0.69156 0.83741 0.0
C1223 C 0.3653 0.67322 0.83967 0.0
O1224 O 0.34261 0.65796 0.86243 0.0
O1225 O 0.33198 0.66877 0.85131 0.0
O1226 O 0.35541 0.67842 0.83831 0.0
O1227 O 0.3661 0.6677 0.84949 0.0
H1228 H 0.34209 0.64914 0.83762 0.0
H1229 H 0.33474 0.6322 0.82735 0.0
H1230 H 0.30723 0.62877 0.85196 0.0
H1231 H 0.31449 0.64574 0.86196 0.0
H1232 H 0.32182 0.68829 0.89842 0.0
H1233 H 0.33206 0.68099 0.88164 0.0
H1234 H 0.3454 0.71722 0.89975 0.0
H1235 H 0.35537 0.70998 0.88296 0.0
H1236 H 0.38717 0.70665 0.83456 0.0
H1237 H 0.40089 0.67483 0.82217 0.0
H1238 H 0.38387 0.66457 0.82931 0.0
H1239 H 0.3701 0.6963 0.84162 0.0
C1240 C 0.34484 0.37674 0.83253 0.0
C1241 C 0.33566 0.38098 0.83895 0.0
C1242 C 0.33293 0.39646 0.82498 0.0
C1243 C 0.32975 0.39075 0.8352 0.0
C1244 C 0.34211 0.39207 0.8186 0.0
C1245 C 0.34798 0.38234 0.82234 0.0
U1246 U 0.35133 0.35104 0.85268 0.0
O1247 O 0.35689 0.3337 0.8481 0.0
O1248 O 0.36822 0.34477 0.85841 0.0
C1249 C 0.36716 0.3351 0.85273 0.0
C1250 C 0.35136 0.36659 0.83622 0.0
C1251 C 0.37724 0.33148 0.84586 0.0
C1252 C 0.38546 0.31962 0.83088 0.0
C1253 C 0.37586 0.32392 0.83658 0.0
C1254 C 0.39807 0.33042 0.84348 0.0
C1255 C 0.3967 0.3227 0.83434 0.0
C1256 C 0.38848 0.3347 0.8492 0.0
C1257 C 0.33234 0.34512 0.87941 0.0
C1258 C 0.32907 0.32731 0.89 0.0
C1259 C 0.32394 0.3454 0.89848 0.0
C1260 C 0.32784 0.35118 0.88867 0.0
C1261 C 0.32441 0.33337 0.89926 0.0
C1262 C 0.33302 0.33313 0.88018 0.0
C1263 C 0.33572 0.35153 0.86893 0.0
O1264 O 0.35735 0.36764 0.84575 0.0
O1265 O 0.34597 0.35665 0.83541 0.0
O1266 O 0.33414 0.34628 0.85909 0.0
O1267 O 0.34548 0.35732 0.86945 0.0
H1268 H 0.33311 0.37678 0.84685 0.0
H1269 H 0.3228 0.39392 0.84039 0.0
H1270 H 0.34469 0.39608 0.81061 0.0
H1271 H 0.35501 0.37918 0.81724 0.0
H1272 H 0.38405 0.3138 0.8238 0.0
H1273 H 0.36737 0.32113 0.83383 0.0
H1274 H 0.40658 0.33286 0.84649 0.0
H1275 H 0.38989 0.34033 0.85643 0.0
H1276 H 0.32969 0.31807 0.89035 0.0
H1277 H 0.32027 0.35035 0.90534 0.0
H1278 H 0.32716 0.36043 0.88825 0.0
H1279 H 0.3365 0.32824 0.87317 0.0
H1280 H 0.26612 0.26011 0.97484 0.0
H1281 H 0.27402 0.27666 1.00645 0.0
H1282 H 0.25352 0.24523 1.00602 0.0
H1283 H 0.24809 0.24979 0.02296 0.0
H1284 H 0.26184 0.26142 0.05489 0.0
H1285 H 0.2783 0.27218 0.02388 0.0
C1286 C 0.26554 0.26018 0.98412 0.0
C1287 C 0.2589 0.25182 0.98977 0.0
C1288 C 0.27114 0.26893 0.99015 0.0
C1289 C 0.26997 0.2695 1.00212 0.0
C1290 C 0.26375 0.26092 1.0083 0.0
C1291 C 0.25821 0.2521 1.00184 0.0
C1292 C 0.26318 0.26111 0.02134 0.0
C1293 C 0.25464 0.25471 0.02742 0.0
C1294 C 0.25429 0.25474 0.03947 0.0
C1295 C 0.26227 0.26134 0.0456 0.0
C1296 C 0.27084 0.26773 0.04001 0.0
C1297 C 0.27131 0.26754 0.02794 0.0
H1298 H 0.76254 0.26382 0.05622 0.0
H1299 H 0.77434 0.24807 0.02556 0.0
H1300 H 0.75144 0.27723 0.02398 0.0
H1301 H 0.74713 0.27156 1.00705 0.0
H1302 H 0.76299 0.26041 0.97614 0.0
H1303 H 0.7787 0.25205 1.00815 0.0
C1304 C 0.7627 0.26349 0.04692 0.0
C1305 C 0.75595 0.27105 0.0406 0.0
C1306 C 0.76963 0.2555 0.04148 0.0
C1307 C 0.76936 0.25473 0.02945 0.0
C1308 C 0.76287 0.26252 0.02268 0.0
C1309 C 0.75633 0.27085 0.02856 0.0
C1310 C 0.76291 0.26192 0.00967 0.0
C1311 C 0.75418 0.26724 1.00302 0.0
C1312 C 0.75422 0.26686 0.99096 0.0
C1313 C 0.76283 0.26074 0.98542 0.0
C1314 C 0.77143 0.25524 0.99166 0.0
C1315 C 0.77162 0.256 1.00368 0.0
H1316 H 0.76604 0.76214 0.97456 0.0
H1317 H 0.75341 0.74736 1.00581 0.0
H1318 H 0.7744 0.77848 1.00618 0.0
H1319 H 0.77906 0.77341 0.02345 0.0
H1320 H 0.7629 0.76283 0.05459 0.0
H1321 H 0.7477 0.75274 0.02264 0.0
C1322 C 0.76547 0.76222 0.98384 0.0
C1323 C 0.77123 0.77087 0.98986 0.0
C1324 C 0.7588 0.7539 0.98951 0.0
C1325 C 0.75815 0.75418 1.00158 0.0
C1326 C 0.76386 0.76291 1.00802 0.0
C1327 C 0.77018 0.77141 1.00184 0.0
C1328 C 0.76344 0.76303 0.02104 0.0
C1329 C 0.77197 0.769 0.02757 0.0
C1330 C 0.7717 0.76902 0.03963 0.0
C1331 C 0.76299 0.76291 0.04529 0.0
C1332 C 0.75441 0.75696 0.03923 0.0
C1333 C 0.75462 0.75709 0.02714 0.0
H1334 H 0.26607 0.76646 0.05603 0.0
H1335 H 0.27458 0.74909 0.02509 0.0
H1336 H 0.25229 0.77871 0.02439 0.0
H1337 H 0.2469 0.77296 1.00784 0.0
H1338 H 0.26116 0.76213 0.97617 0.0
H1339 H 0.27836 0.75321 1.00742 0.0
C1340 C 0.26545 0.7658 0.04677 0.0
C1341 C 0.2583 0.77327 0.04077 0.0
C1342 C 0.27147 0.75723 0.04112 0.0
C1343 C 0.27017 0.75605 0.02918 0.0
C1344 C 0.26338 0.7638 0.02269 0.0
C1345 C 0.25743 0.77241 0.02878 0.0
C1346 C 0.26266 0.76306 0.0097 0.0
C1347 C 0.2537 0.76853 1.00351 0.0
C1348 C 0.2533 0.7683 0.99149 0.0
C1349 C 0.26159 0.76231 0.98547 0.0
C1350 C 0.27053 0.75674 0.9912 0.0
C1351 C 0.27109 0.75717 1.00326 0.0
H1352 H 0.05279 0.26267 0.26534 0.0
H1353 H 0.02096 0.24719 0.25466 0.0
H1354 H 0.02136 0.27923 0.27343 0.0
H1355 H 1.0039 0.27466 0.27829 0.0
H1356 H 0.97273 0.26641 0.26038 0.0
H1357 H 1.00435 0.25278 0.24828 0.0
C1358 C 0.04347 0.2628 0.26497 0.0
C1359 C 0.03766 0.27173 0.27025 0.0
C1360 C 0.03751 0.25405 0.25922 0.0
C1361 C 0.02539 0.25423 0.25884 0.0
C1362 C 0.01917 0.26323 0.26403 0.0
C1363 C 0.02558 0.27197 0.26968 0.0
C1364 C 1.00614 0.26372 0.26333 0.0
C1365 C 0.99973 0.27034 0.27119 0.0
C1366 C 0.98777 0.27164 0.26988 0.0
C1367 C 0.98201 0.26574 0.26114 0.0
C1368 C 0.98793 0.25869 0.25361 0.0
C1369 C 0.99995 0.25783 0.25459 0.0
H1370 H 0.76285 0.97151 0.26279 0.0
H1371 H 0.77882 1.0037 0.25505 0.0
H1372 H 0.74656 1.00215 0.27377 0.0
H1373 H 0.75072 0.019 0.27979 0.0
H1374 H 0.76437 0.05137 0.26894 0.0
H1375 H 0.77478 0.0212 0.25143 0.0
C1376 C 0.76269 0.98079 0.26318 0.0
C1377 C 0.75382 0.98619 0.26902 0.0
C1378 C 0.77149 0.98713 0.25798 0.0
C1379 C 0.77158 0.99915 0.25875 0.0
C1380 C 0.76268 1.00502 0.26454 0.0
C1381 C 0.75375 0.99824 0.26956 0.0
C1382 C 0.76282 0.01801 0.26552 0.0
C1383 C 0.75613 0.02371 0.27388 0.0
C1384 C 0.7566 0.03571 0.275 0.0
C1385 C 0.76401 0.04212 0.26804 0.0
C1386 C 0.7707 0.03688 0.25969 0.0
C1387 C 0.76983 0.02494 0.25823 0.0
H1388 H 0.05299 0.75932 0.26628 0.0
H1389 H 0.02062 0.75045 0.28131 0.0
H1390 H 0.02207 0.77056 0.24989 0.0
H1391 H 1.00543 0.77702 0.25511 0.0
H1392 H 0.97273 0.7632 0.26488 0.0
H1393 H 1.00323 0.74578 0.27546 0.0
C1394 C 0.04367 0.75966 0.26601 0.0
C1395 C 0.03821 0.76575 0.25722 0.0
C1396 C 0.03734 0.754 0.27451 0.0
C1397 C 0.02526 0.75459 0.2744 0.0
C1398 C 0.01936 0.7607 0.26562 0.0
C1399 C 0.0261 0.76618 0.257 0.0
C1400 C 1.00633 0.76135 0.26544 0.0
C1401 C 1.00064 0.7703 0.25944 0.0
C1402 C 0.98856 0.77084 0.25915 0.0
C1403 C 0.98204 0.76262 0.26504 0.0
C1404 C 0.98727 0.75363 0.271 0.0
C1405 C 0.99938 0.75301 0.27115 0.0
H1406 H 0.26884 0.05054 0.26071 0.0
H1407 H 0.25249 0.01962 0.24975 0.0
H1408 H 0.27581 0.01968 0.27906 0.0
H1409 H 0.2796 1.00217 0.27443 0.0
H1410 H 0.26189 0.971 0.26595 0.0
H1411 H 0.2474 1.00279 0.25531 0.0
C1412 C 0.26755 0.04145 0.26175 0.0
C1413 C 0.27339 0.03572 0.27057 0.0
C1414 C 0.25953 0.03578 0.2547 0.0
C1415 C 0.25822 0.02383 0.25574 0.0
C1416 C 0.26443 0.01754 0.2642 0.0
C1417 C 0.27158 0.02385 0.27193 0.0
C1418 C 0.26354 1.00454 0.26492 0.0
C1419 C 0.27214 0.99804 0.27063 0.0
C1420 C 0.27152 0.98599 0.27108 0.0
C1421 C 0.26233 0.98029 0.26572 0.0
C1422 C 0.2538 0.98634 0.25988 0.0
C1423 C 0.25434 0.99839 0.25959 0.0
H1424 H 0.05256 0.76306 0.76138 0.0
H1425 H 0.02008 0.74787 0.75264 0.0
H1426 H 0.02174 0.77848 0.77358 0.0
H1427 H 1.00492 0.77269 0.77991 0.0
H1428 H 0.97233 0.76375 0.7651 0.0
H1429 H 1.00308 0.75432 0.74767 0.0
C1430 C 0.04325 0.76324 0.76182 0.0
C1431 C 0.03785 0.7716 0.76837 0.0
C1432 C 0.03684 0.75487 0.75602 0.0
C1433 C 0.02478 0.7547 0.75688 0.0
C1434 C 0.01896 0.76321 0.7632 0.0
C1435 C 0.02575 0.77165 0.7689 0.0
C1436 C 1.00595 0.76336 0.76376 0.0
C1437 C 1.00017 0.7688 0.77292 0.0
C1438 C 0.98808 0.76901 0.77333 0.0
C1439 C 0.98166 0.76366 0.76469 0.0
C1440 C 0.98702 0.75827 0.75551 0.0
C1441 C 0.99912 0.75818 0.75505 0.0
H1442 H 0.25926 0.97184 0.76253 0.0
H1443 H 0.27238 1.00332 0.74852 0.0
H1444 H 0.25092 1.0032 0.77894 0.0
H1445 H 0.24649 0.02047 0.77409 0.0
H1446 H 0.26321 0.05187 0.76437 0.0
H1447 H 0.27781 0.02024 0.7539 0.0
C1448 C 0.2599 0.98112 0.76275 0.0
C1449 C 0.25409 0.98702 0.77127 0.0
C1450 C 0.26674 0.98694 0.75475 0.0
C1451 C 0.26747 0.99901 0.75513 0.0
C1452 C 0.26163 1.0053 0.76371 0.0
C1453 C 0.2552 0.99898 0.77196 0.0
C1454 C 0.2621 0.01831 0.76397 0.0
C1455 C 0.25363 0.0247 0.76986 0.0
C1456 C 0.25405 0.03676 0.77007 0.0
C1457 C 0.26284 0.04257 0.76424 0.0
C1458 C 0.27123 0.0366 0.7583 0.0
C1459 C 0.27094 0.02456 0.75825 0.0
H1460 H 0.05273 0.25767 0.76419 0.0
H1461 H 0.02012 0.24684 0.7771 0.0
H1462 H 0.02272 0.27546 0.75312 0.0
H1463 H 1.00491 0.27282 0.74952 0.0
H1464 H 0.97263 0.26503 0.76501 0.0
H1465 H 1.00326 0.25253 0.78091 0.0
C1466 C 0.04346 0.25867 0.76434 0.0
C1467 C 0.03835 0.26707 0.75749 0.0
C1468 C 0.03692 0.25162 0.77153 0.0
C1469 C 0.0249 0.25284 0.77183 0.0
C1470 C 0.0193 0.26138 0.76515 0.0
C1471 C 0.02636 0.26864 0.75819 0.0
C1472 C 1.00624 0.26254 0.76525 0.0
C1473 C 1.00037 0.26885 0.75658 0.0
C1474 C 0.98834 0.26992 0.75671 0.0
C1475 C 0.98194 0.26443 0.76523 0.0
C1476 C 0.98729 0.25799 0.77383 0.0
C1477 C 0.99939 0.2572 0.77391 0.0
H1478 H 0.76347 0.05283 0.76404 0.0
H1479 H 0.75301 0.02111 0.74889 0.0
H1480 H 0.77272 0.02153 0.78067 0.0
H1481 H 0.77719 1.00408 0.77666 0.0
H1482 H 0.75996 0.97278 0.7676 0.0
H1483 H 0.74745 1.00422 0.75387 0.0
C1484 C 0.76338 0.04353 0.76421 0.0
C1485 C 0.769 0.03778 0.77313 0.0
C1486 C 0.75746 0.03754 0.75563 0.0
C1487 C 0.75735 0.02547 0.75585 0.0
C1488 C 0.76291 0.01926 0.76477 0.0
C1489 C 0.76872 0.02571 0.77342 0.0
C1490 C 0.76236 1.00623 0.76527 0.0
C1491 C 0.77023 0.99986 0.7721 0.0
C1492 C 0.76914 0.98787 0.77325 0.0
C1493 C 0.76058 0.98206 0.76704 0.0
C1494 C 0.75303 0.98792 0.75983 0.0
C1495 C 0.7538 0.99995 0.75909 0.0
H1496 H 0.26713 0.75862 0.47495 0.0
H1497 H 0.2524 0.74676 0.50628 0.0
H1498 H 0.27549 0.77644 0.50577 0.0
H1499 H 0.27729 0.77458 0.52379 0.0
H1500 H 0.25929 0.7659 0.55444 0.0
H1501 H 0.24762 0.75141 0.52294 0.0
C1502 C 0.26637 0.75933 0.48418 0.0
C1503 C 0.27249 0.76799 0.48988 0.0
C1504 C 0.25892 0.75191 0.49006 0.0
C1505 C 0.25784 0.75298 0.50202 0.0
C1506 C 0.26384 0.76172 0.50821 0.0
C1507 C 0.27098 0.76937 0.50176 0.0
C1508 C 0.26263 0.76285 0.52119 0.0
C1509 C 0.27022 0.76998 0.52773 0.0
C1510 C 0.26873 0.77141 0.53961 0.0
C1511 C 0.26007 0.76519 0.54521 0.0
C1512 C 0.25267 0.75778 0.53925 0.0
C1513 C 0.25383 0.7568 0.52728 0.0
H1514 H 0.76306 0.76037 0.55524 0.0
H1515 H 0.77199 0.74601 0.52296 0.0
H1516 H 0.75423 0.77849 0.52451 0.0
H1517 H 0.74841 0.77436 0.50718 0.0
H1518 H 0.76415 0.76605 0.47534 0.0
H1519 H 0.77796 0.75197 0.50634 0.0
C1520 C 0.76303 0.76096 0.54595 0.0
C1521 C 0.75786 0.77029 0.54053 0.0
C1522 C 0.76826 0.75239 0.53961 0.0
C1523 C 0.76818 0.75298 0.52759 0.0
C1524 C 0.76304 0.76232 0.52174 0.0
C1525 C 0.75791 0.77098 0.52847 0.0
C1526 C 0.7632 0.7631 0.50877 0.0
C1527 C 0.75514 0.76993 0.50273 0.0
C1528 C 0.75565 0.77112 0.49076 0.0
C1529 C 0.76392 0.7652 0.48461 0.0
C1530 C 0.77174 0.75808 0.49019 0.0
C1531 C 0.77147 0.75714 0.50222 0.0
H1532 H 0.76438 0.26042 0.47295 0.0
H1533 H 0.75219 0.2461 0.50445 0.0
H1534 H 0.77366 0.27693 0.50423 0.0
H1535 H 0.77765 0.27332 0.52168 0.0
H1536 H 0.76439 0.25999 0.55311 0.0
H1537 H 0.74815 0.2499 0.52178 0.0
C1538 C 0.76405 0.26061 0.48224 0.0
C1539 C 0.7701 0.26923 0.48806 0.0
C1540 C 0.75735 0.25248 0.4881 0.0
C1541 C 0.75695 0.25285 0.50017 0.0
C1542 C 0.76292 0.26152 0.50647 0.0
C1543 C 0.76922 0.2699 0.50007 0.0
C1544 C 0.76292 0.26156 0.51955 0.0
C1545 C 0.77121 0.26808 0.52589 0.0
C1546 C 0.77158 0.26765 0.53794 0.0
C1547 C 0.76396 0.26046 0.54382 0.0
C1548 C 0.75567 0.25398 0.53797 0.0
C1549 C 0.75492 0.25476 0.52594 0.0
H1550 H 0.2652 0.26547 0.55512 0.0
H1551 H 0.25203 0.27864 0.52343 0.0
H1552 H 0.27155 0.24717 0.52426 0.0
H1553 H 0.27595 0.25133 0.5066 0.0
H1554 H 0.25768 0.25879 0.47567 0.0
H1555 H 0.24536 0.27232 0.50724 0.0
C1556 C 0.26437 0.26489 0.54587 0.0
C1557 C 0.26947 0.25576 0.54022 0.0
C1558 C 0.25778 0.27292 0.5399 0.0
C1559 C 0.2567 0.27202 0.5279 0.0
C1560 C 0.2618 0.26286 0.52185 0.0
C1561 C 0.26792 0.25458 0.52832 0.0
C1562 C 0.26072 0.26186 0.50893 0.0
C1563 C 0.26867 0.25535 0.50251 0.0
C1564 C 0.26729 0.25391 0.49062 0.0
C1565 C 0.25836 0.25951 0.48492 0.0
C1566 C 0.25068 0.26639 0.49084 0.0
C1567 C 0.25173 0.26737 0.50282 0.0
H1568 H 0.76003 0.4716 0.7631 0.0
H1569 H 0.75116 0.50306 0.77903 0.0
H1570 H 0.77267 0.50306 0.74866 0.0
H1571 H 0.7779 0.52012 0.75381 0.0
H1572 H 0.76172 0.55163 0.76202 0.0
H1573 H 0.74654 0.52022 0.77396 0.0
C1574 C 0.76057 0.48088 0.76322 0.0
C1575 C 0.76734 0.48669 0.75512 0.0
C1576 C 0.75463 0.4868 0.77163 0.0
C1577 C 0.75558 0.4988 0.77217 0.0
C1578 C 0.76197 0.50509 0.76386 0.0
C1579 C 0.76789 0.49876 0.75537 0.0
C1580 C 0.76214 0.51811 0.7638 0.0
C1581 C 0.77082 0.52439 0.75787 0.0
C1582 C 0.77045 0.53638 0.75701 0.0
C1583 C 0.76177 0.54234 0.76251 0.0
C1584 C 0.75336 0.53654 0.76889 0.0
C1585 C 0.75346 0.52447 0.76941 0.0
H1586 H 0.26115 0.55309 0.7661 0.0
H1587 H 0.25246 0.52159 0.74951 0.0
H1588 H 0.2716 0.52173 0.78166 0.0
H1589 H 0.27632 0.50462 0.77798 0.0
H1590 H 0.26284 0.47291 0.76542 0.0
H1591 H 0.24845 0.50404 0.75288 0.0
C1592 C 0.26142 0.5438 0.76591 0.0
C1593 C 0.26722 0.53798 0.77464 0.0
C1594 C 0.25597 0.5379 0.75696 0.0
C1595 C 0.25639 0.52584 0.75676 0.0
C1596 C 0.26206 0.51953 0.76557 0.0
C1597 C 0.26744 0.52592 0.77452 0.0
C1598 C 0.26233 0.50647 0.76546 0.0
C1599 C 0.27014 0.50028 0.77254 0.0
C1600 C 0.27 0.48823 0.77283 0.0
C1601 C 0.26271 0.48221 0.7654 0.0
C1602 C 0.25525 0.48791 0.75796 0.0
C1603 C 0.25475 0.49996 0.75831 0.0
H1604 H 0.26181 0.47143 0.2644 0.0
H1605 H 0.24705 0.50257 0.27594 0.0
H1606 H 0.27632 0.5033 0.25287 0.0
H1607 H 0.27091 0.52044 0.24856 0.0
H1608 H 0.26145 0.55153 0.26499 0.0
H1609 H 0.25234 0.51964 0.28081 0.0
C1610 C 0.2618 0.48073 0.26438 0.0
C1611 C 0.26956 0.48679 0.25745 0.0
C1612 C 0.25396 0.48644 0.27125 0.0
C1613 C 0.25363 0.49847 0.27098 0.0
C1614 C 0.26173 0.50498 0.2645 0.0
C1615 C 0.26983 0.49886 0.25785 0.0
C1616 C 0.26164 0.518 0.26464 0.0
C1617 C 0.26695 0.52454 0.25578 0.0
C1618 C 0.26694 0.53659 0.25592 0.0
C1619 C 0.26146 0.54223 0.26486 0.0
C1620 C 0.25607 0.53614 0.27368 0.0
C1621 C 0.25622 0.52408 0.27363 0.0
H1622 H 0.75885 0.55286 0.26495 0.0
H1623 H 0.7509 0.52084 0.24903 0.0
H1624 H 0.77115 0.52196 0.28043 0.0
H1625 H 0.77755 0.50535 0.27498 0.0
H1626 H 0.76329 0.47295 0.26502 0.0
H1627 H 0.74608 0.50356 0.25477 0.0
C1628 C 0.75947 0.54359 0.26498 0.0
C1629 C 0.76586 0.53809 0.27354 0.0
C1630 C 0.75396 0.53737 0.25632 0.0
C1631 C 0.75494 0.52538 0.25606 0.0
C1632 C 0.76114 0.51942 0.26473 0.0
C1633 C 0.76658 0.52605 0.27346 0.0
C1634 C 0.76178 0.50644 0.26477 0.0
C1635 C 0.77075 0.50065 0.27066 0.0
C1636 C 0.7712 0.4886 0.27083 0.0
C1637 C 0.76283 0.48223 0.26495 0.0
C1638 C 0.75385 0.48759 0.25907 0.0
C1639 C 0.75332 0.49964 0.25902 0.0
H1640 H 0.47146 0.26084 0.76414 0.0
H1641 H 0.50323 0.27108 0.78014 0.0
H1642 H 0.50304 0.25268 0.74788 0.0
H1643 H 0.52036 0.24762 0.75266 0.0
H1644 H 0.55167 0.26512 0.76137 0.0
H1645 H 0.51995 0.27758 0.77457 0.0
C1646 C 0.4808 0.26107 0.76425 0.0
C1647 C 0.48672 0.25584 0.75539 0.0
C1648 C 0.48669 0.26672 0.77311 0.0
C1649 C 0.49883 0.26703 0.77302 0.0
C1650 C 0.50513 0.26193 0.76399 0.0
C1651 C 0.49878 0.2564 0.75515 0.0
C1652 C 0.51816 0.26257 0.7636 0.0
C1653 C 0.52456 0.25467 0.75704 0.0
C1654 C 0.53656 0.25586 0.75593 0.0
C1655 C 0.54236 0.26452 0.76191 0.0
C1656 C 0.53644 0.27212 0.76889 0.0
C1657 C 0.52437 0.27126 0.76957 0.0
H1658 H 0.5525 0.76179 0.7652 0.0
H1659 H 0.52125 0.75292 0.78245 0.0
H1660 H 0.52049 0.77207 0.75042 0.0
H1661 H 0.50384 0.77806 0.75626 0.0
H1662 H 0.47227 0.76404 0.76938 0.0
H1663 H 0.50379 0.74761 0.77787 0.0
C1664 C 0.54318 0.762 0.76558 0.0
C1665 C 0.5371 0.76772 0.75695 0.0
C1666 C 0.5375 0.75653 0.77466 0.0
C1667 C 0.5254 0.75686 0.77513 0.0
C1668 C 0.51887 0.76252 0.7665 0.0
C1669 C 0.52499 0.76792 0.75739 0.0
C1670 C 0.50582 0.76285 0.76705 0.0
C1671 C 0.49949 0.77146 0.76118 0.0
C1672 C 0.48738 0.77188 0.76188 0.0
C1673 C 0.48158 0.76386 0.76878 0.0
C1674 C 0.48751 0.75531 0.77467 0.0
C1675 C 0.49952 0.75461 0.77357 0.0
H1676 H 0.47305 0.76587 0.2621 0.0
H1677 H 0.5056 0.777 0.27546 0.0
H1678 H 0.50333 0.74813 0.25216 0.0
H1679 H 0.5208 0.75296 0.24731 0.0
H1680 H 0.55309 0.76093 0.26309 0.0
H1681 H 0.52209 0.76979 0.2804 0.0
C1682 C 0.48233 0.76497 0.2625 0.0
C1683 C 0.48757 0.75647 0.25606 0.0
C1684 C 0.48877 0.77211 0.26972 0.0
C1685 C 0.5008 0.77098 0.27023 0.0
C1686 C 0.50647 0.76246 0.26376 0.0
C1687 C 0.49954 0.75501 0.25695 0.0
C1688 C 0.51948 0.76159 0.26383 0.0
C1689 C 0.5254 0.75641 0.25462 0.0
C1690 C 0.53749 0.75603 0.25446 0.0
C1691 C 0.54377 0.761 0.26343 0.0
C1692 C 0.53829 0.76605 0.27275 0.0
C1693 C 0.52618 0.7662 0.27297 0.0
H1694 H 0.55148 0.26239 0.26584 0.0
H1695 H 0.51997 0.27833 0.25607 0.0
H1696 H 0.51959 0.2466 0.27575 0.0
H1697 H 0.50258 0.25254 0.28155 0.0
H1698 H 0.47114 0.26261 0.26539 0.0
H1699 H 0.50307 0.27228 0.24985 0.0
C1700 C 0.54214 0.26245 0.26591 0.0
C1701 C 0.53616 0.25367 0.2716 0.0
C1702 C 0.53635 0.27124 0.26022 0.0
C1703 C 0.52425 0.27126 0.26026 0.0
C1704 C 0.51783 0.26247 0.2659 0.0
C1705 C 0.52404 0.25367 0.27159 0.0
C1706 C 0.50479 0.26246 0.26576 0.0
C1707 C 0.49833 0.25677 0.27446 0.0
C1708 C 0.48621 0.25682 0.27431 0.0
C1709 C 0.48048 0.26256 0.26549 0.0
C1710 C 0.48651 0.26821 0.25677 0.0
C1711 C 0.49862 0.26814 0.25688 0.0
H1712 H 0.21851 0.18744 0.11913 0.0
H1713 H 0.22548 0.19662 0.10162 0.0
H1714 H 0.20432 0.2259 0.10819 0.0
H1715 H 0.19691 0.21654 0.12554 0.0
H1716 H 0.2037 0.22093 0.08589 0.0
H1717 H 0.23335 0.22646 0.11388 0.0
H1718 H 0.24736 0.22089 0.12878 0.0
H1719 H 0.26468 0.19963 0.10462 0.0
H1720 H 0.25067 0.20495 0.0896 0.0
H1721 H 0.23636 0.26192 0.05236 0.0
H1722 H 0.22582 0.25074 0.06688 0.0
H1723 H 0.24399 0.22043 0.05695 0.0
H1724 H 0.25439 0.2316 0.04228 0.0
H1725 H 0.24581 0.22549 0.08038 0.0
H1726 H 0.21616 0.22136 0.052 0.0
H1727 H 0.20229 0.22798 0.03742 0.0
H1728 H 0.18514 0.24797 0.06277 0.0
H1729 H 0.19903 0.24161 0.07748 0.0
C1730 C 0.21518 0.19576 0.1168 0.0
C1731 C 0.20713 0.20123 0.12382 0.0
C1732 C 0.21929 0.20107 0.10681 0.0
C1733 C 0.21557 0.21205 0.10362 0.0
C1734 C 0.20737 0.21745 0.11047 0.0
C1735 C 0.20322 0.21213 0.12046 0.0
C1736 C 0.22043 0.21794 0.09327 0.0
C1737 C 0.2129 0.22204 0.08476 0.0
C1738 C 0.23245 0.21925 0.09164 0.0
C1739 C 0.24088 0.21601 0.10065 0.0
C1740 C 0.24009 0.22052 0.11177 0.0
C1741 C 0.24804 0.21742 0.12023 0.0
C1742 C 0.25688 0.20989 0.11766 0.0
C1743 C 0.25781 0.20545 0.10661 0.0
C1744 C 0.24987 0.20851 0.09811 0.0
C1745 C 0.23777 0.25279 0.05301 0.0
C1746 C 0.24602 0.24756 0.04609 0.0
C1747 C 0.2318 0.24641 0.06134 0.0
C1748 C 0.23411 0.23473 0.06302 0.0
C1749 C 0.24204 0.22941 0.05579 0.0
C1750 C 0.24789 0.23576 0.04734 0.0
C1751 C 0.22909 0.22841 0.07299 0.0
C1752 C 0.2366 0.22429 0.08148 0.0
C1753 C 0.21707 0.22724 0.07464 0.0
C1754 C 0.20871 0.23109 0.06582 0.0
C1755 C 0.2095 0.22726 0.05445 0.0
C1756 C 0.20162 0.23094 0.04616 0.0
C1757 C 0.19286 0.23841 0.04916 0.0
C1758 C 0.19195 0.24219 0.06046 0.0
C1759 C 0.19982 0.23854 0.06877 0.0
H1760 H 0.18676 0.24125 0.04274 0.0
H1761 H 0.26304 0.20751 0.12422 0.0
H1762 H 0.81201 0.18187 0.11288 0.0
H1763 H 0.80428 0.19233 0.09641 0.0
H1764 H 0.81413 0.22435 0.11219 0.0
H1765 H 0.82151 0.21396 0.12888 0.0
H1766 H 0.79286 0.22544 0.10397 0.0
H1767 H 0.82916 0.2133 0.08946 0.0
H1768 H 0.84429 0.1995 0.08481 0.0
H1769 H 0.82086 0.18143 0.06255 0.0
H1770 H 0.80553 0.19505 0.06719 0.0
H1771 H 0.78484 0.26255 0.05774 0.0
H1772 H 0.79494 0.25081 0.07185 0.0
H1773 H 0.78136 0.22018 0.05593 0.0
H1774 H 0.77125 0.232 0.04162 0.0
H1775 H 0.80421 0.21782 0.06381 0.0
H1776 H 0.76797 0.23042 0.07839 0.0
H1777 H 0.7533 0.24481 0.0827 0.0
H1778 H 0.77716 0.26241 0.10488 0.0
H1779 H 0.79205 0.24823 0.10055 0.0
C1780 C 0.81249 0.19114 0.11288 0.0
C1781 C 0.81738 0.19706 0.12224 0.0
C1782 C 0.80817 0.19711 0.10339 0.0
C1783 C 0.80872 0.20914 0.10299 0.0
C1784 C 0.81364 0.21507 0.11228 0.0
C1785 C 0.81795 0.20911 0.12178 0.0
C1786 C 0.8038 0.21556 0.09307 0.0
C1787 C 0.79547 0.22386 0.09521 0.0
C1788 C 0.80696 0.21332 0.08158 0.0
C1789 C 0.81616 0.20513 0.07877 0.0
C1790 C 0.8272 0.20633 0.08365 0.0
C1791 C 0.83582 0.19855 0.081 0.0
C1792 C 0.83352 0.18957 0.07342 0.0
C1793 C 0.82262 0.18838 0.06844 0.0
C1794 C 0.81396 0.19613 0.07106 0.0
C1795 C 0.78414 0.2533 0.05714 0.0
C1796 C 0.77715 0.24817 0.04868 0.0
C1797 C 0.78991 0.2466 0.06521 0.0
C1798 C 0.78871 0.23463 0.06509 0.0
C1799 C 0.78235 0.22942 0.0562 0.0
C1800 C 0.7766 0.23616 0.04804 0.0
C1801 C 0.7934 0.22774 0.07477 0.0
C1802 C 0.80162 0.21935 0.07258 0.0
C1803 C 0.79018 0.22991 0.08624 0.0
C1804 C 0.78116 0.23831 0.08907 0.0
C1805 C 0.77011 0.23739 0.08414 0.0
C1806 C 0.76176 0.24552 0.08659 0.0
C1807 C 0.7643 0.25454 0.09404 0.0
C1808 C 0.7752 0.25543 0.0991 0.0
C1809 C 0.7836 0.24734 0.09666 0.0
H1810 H 0.75783 0.26082 0.09592 0.0
H1811 H 0.84021 0.18356 0.07138 0.0
H1812 H 0.81613 0.84104 0.11133 0.0
H1813 H 0.8089 0.83072 0.09457 0.0
H1814 H 0.81759 0.79859 0.11063 0.0
H1815 H 0.8248 0.80887 0.1275 0.0
H1816 H 0.82308 0.79839 0.0882 0.0
H1817 H 0.78991 0.80787 0.11016 0.0
H1818 H 0.77679 0.82049 0.1206 0.0
H1819 H 0.77083 0.83997 0.08985 0.0
H1820 H 0.78405 0.82755 0.07926 0.0
H1821 H 0.78509 0.76107 0.05712 0.0
H1822 H 0.79617 0.77236 0.07104 0.0
H1823 H 0.78813 0.80326 0.05236 0.0
H1824 H 0.77701 0.79191 0.03836 0.0
H1825 H 0.78292 0.80475 0.07526 0.0
H1826 H 0.81535 0.79387 0.05303 0.0
H1827 H 0.82809 0.78059 0.04296 0.0
H1828 H 0.83499 0.76294 0.0746 0.0
H1829 H 0.82215 0.77602 0.08484 0.0
C1830 C 0.81646 0.83177 0.11136 0.0
C1831 C 0.82096 0.8258 0.12087 0.0
C1832 C 0.81234 0.82587 0.10173 0.0
C1833 C 0.81253 0.81385 0.10136 0.0
C1834 C 0.81733 0.80787 0.11068 0.0
C1835 C 0.82148 0.81377 0.12033 0.0
C1836 C 0.80746 0.80753 0.0914 0.0
C1837 C 0.81426 0.7997 0.08545 0.0
C1838 C 0.79602 0.80938 0.08761 0.0
C1839 C 0.78807 0.81686 0.09395 0.0
C1840 C 0.78588 0.81491 0.10565 0.0
C1841 C 0.77841 0.82201 0.11159 0.0
C1842 C 0.77301 0.83105 0.1059 0.0
C1843 C 0.77504 0.83298 0.09425 0.0
C1844 C 0.78251 0.82591 0.08827 0.0
C1845 C 0.78592 0.77024 0.05584 0.0
C1846 C 0.78022 0.77561 0.04664 0.0
C1847 C 0.79227 0.7767 0.06379 0.0
C1848 C 0.79302 0.78868 0.06277 0.0
C1849 C 0.78769 0.79403 0.05333 0.0
C1850 C 0.78143 0.78754 0.04528 0.0
C1851 C 0.79854 0.79561 0.07205 0.0
C1852 C 0.79178 0.80353 0.07793 0.0
C1853 C 0.80997 0.79375 0.07582 0.0
C1854 C 0.8177 0.78587 0.06969 0.0
C1855 C 0.8195 0.7871 0.05783 0.0
C1856 C 0.82676 0.77962 0.05209 0.0
C1857 C 0.83232 0.77091 0.05814 0.0
C1858 C 0.83066 0.76968 0.06993 0.0
C1859 C 0.82341 0.77714 0.07571 0.0
H1860 H 0.83794 0.76513 0.05368 0.0
H1861 H 0.76722 0.83653 0.11051 0.0
H1862 H 0.19215 0.81982 0.11622 0.0
H1863 H 0.2001 0.81029 0.09944 0.0
H1864 H 0.23346 0.82518 0.10683 0.0
H1865 H 0.22561 0.83466 0.12361 0.0
H1866 H 0.22888 0.82699 0.08456 0.0
H1867 H 0.2271 0.79688 0.11276 0.0
H1868 H 0.21787 0.78417 0.12706 0.0
H1869 H 0.19471 0.77121 0.10127 0.0
H1870 H 0.20371 0.78396 0.08684 0.0
H1871 H 0.26657 0.78961 0.0553 0.0
H1872 H 0.25563 0.80104 0.06887 0.0
H1873 H 0.22395 0.78676 0.05542 0.0
H1874 H 0.23494 0.77539 0.04168 0.0
H1875 H 0.22592 0.7849 0.07936 0.0
H1876 H 0.22939 0.81405 0.05073 0.0
H1877 H 0.2394 0.82645 0.0367 0.0
H1878 H 0.26019 0.84096 0.06363 0.0
H1879 H 0.25042 0.82851 0.07781 0.0
C1880 C 0.2012 0.82098 0.11435 0.0
C1881 C 0.20822 0.82804 0.1213 0.0
C1882 C 0.20574 0.81554 0.10472 0.0
C1883 C 0.21742 0.81695 0.10186 0.0
C1884 C 0.22442 0.824 0.10878 0.0
C1885 C 0.21989 0.82945 0.11838 0.0
C1886 C 0.2224 0.81112 0.09171 0.0
C1887 C 0.2283 0.81777 0.08349 0.0
C1888 C 0.22143 0.79912 0.0901 0.0
C1889 C 0.21598 0.79148 0.09876 0.0
C1890 C 0.21997 0.79139 0.11017 0.0
C1891 C 0.21479 0.78417 0.11829 0.0
C1892 C 0.20568 0.77692 0.11509 0.0
C1893 C 0.20175 0.77685 0.10374 0.0
C1894 C 0.20689 0.78407 0.09559 0.0
C1895 C 0.25726 0.78915 0.05505 0.0
C1896 C 0.25159 0.7817 0.04739 0.0
C1897 C 0.25101 0.79566 0.06282 0.0
C1898 C 0.23895 0.79477 0.06318 0.0
C1899 C 0.23324 0.78759 0.05529 0.0
C1900 C 0.2395 0.78119 0.04738 0.0
C1901 C 0.23249 0.80075 0.07232 0.0
C1902 C 0.22635 0.79413 0.08036 0.0
C1903 C 0.23332 0.81276 0.07382 0.0
C1904 C 0.23923 0.82027 0.06532 0.0
C1905 C 0.23616 0.81981 0.05365 0.0
C1906 C 0.24178 0.82687 0.04567 0.0
C1907 C 0.25044 0.83447 0.04927 0.0
C1908 C 0.25348 0.83505 0.06086 0.0
C1909 C 0.2479 0.82801 0.06887 0.0
H1910 H 0.25478 0.83993 0.04308 0.0
H1911 H 0.20169 0.77132 0.12138 0.0
H1912 H 0.19095 0.82235 0.91603 0.0
H1913 H 0.19765 0.812 0.93306 0.0
H1914 H 0.23141 0.80945 0.9182 0.0
H1915 H 0.22469 0.81944 0.90104 0.0
H1916 H 0.22581 0.78991 0.92802 0.0
H1917 H 0.22576 0.82924 0.93884 0.0
H1918 H 0.21768 0.84846 0.94156 0.0
H1919 H 0.19267 0.83447 0.9649 0.0
H1920 H 0.20051 0.81513 0.96219 0.0
H1921 H 0.25302 0.79129 0.98824 0.0
H1922 H 0.24247 0.80163 0.97325 0.0
H1923 H 0.22412 0.77045 0.96452 0.0
H1924 H 0.23509 0.76005 0.97918 0.0
H1925 H 0.2217 0.80691 0.96665 0.0
H1926 H 0.22162 0.76821 0.93586 0.0
H1927 H 0.23233 0.75033 0.93308 0.0
H1928 H 0.26215 0.76548 0.94914 0.0
H1929 H 0.25168 0.7835 0.95182 0.0
C1930 C 0.19977 0.81946 0.91633 0.0
C1931 C 0.20729 0.8218 0.90717 0.0
C1932 C 0.20362 0.81363 0.92612 0.0
C1933 C 0.21509 0.81005 0.927 0.0
C1934 C 0.22254 0.81215 0.91777 0.0
C1935 C 0.2187 0.81796 0.90798 0.0
C1936 C 0.2194 0.80421 0.93754 0.0
C1937 C 0.22484 0.79361 0.93646 0.0
C1938 C 0.21838 0.80912 0.94857 0.0
C1939 C 0.21363 0.82072 0.95021 0.0
C1940 C 0.21847 0.83025 0.94448 0.0
C1941 C 0.21395 0.84116 0.94603 0.0
C1942 C 0.20464 0.84268 0.95338 0.0
C1943 C 0.19986 0.83328 0.9592 0.0
C1944 C 0.20434 0.82234 0.95766 0.0
C1945 C 0.24648 0.78677 0.98334 0.0
C1946 C 0.24479 0.77493 0.98484 0.0
C1947 C 0.24047 0.79265 0.97475 0.0
C1948 C 0.23266 0.78678 0.96757 0.0
C1949 C 0.23027 0.77513 0.96978 0.0
C1950 C 0.23643 0.76921 0.97822 0.0
C1951 C 0.22797 0.79254 0.95714 0.0
C1952 C 0.22251 0.80314 0.95822 0.0
C1953 C 0.22931 0.78783 0.94605 0.0
C1954 C 0.23581 0.77715 0.94415 0.0
C1955 C 0.23048 0.76774 0.93873 0.0
C1956 C 0.23651 0.75758 0.93718 0.0
C1957 C 0.2479 0.75676 0.94096 0.0
C1958 C 0.25332 0.76612 0.94623 0.0
C1959 C 0.24734 0.77631 0.94777 0.0
H1960 H 0.25254 0.74888 0.93978 0.0
H1961 H 0.20116 0.85114 0.95457 0.0
H1962 H 0.21796 0.2015 0.90129 0.0
H1963 H 0.22848 0.20845 0.91815 0.0
H1964 H 0.19664 0.21057 0.93676 0.0
H1965 H 0.18608 0.20357 0.91998 0.0
H1966 H 0.20916 0.22962 0.93963 0.0
H1967 H 0.2164 0.18933 0.94244 0.0
H1968 H 0.22265 0.17049 0.93556 0.0
H1969 H 0.2567 0.18401 0.92992 0.0
H1970 H 0.25062 0.20299 0.93662 0.0
H1971 H 0.23639 0.24463 0.99193 0.0
H1972 H 0.22506 0.23324 0.97821 0.0
H1973 H 0.25535 0.22868 0.95763 0.0
H1974 H 0.26674 0.23962 0.97149 0.0
H1975 H 0.24274 0.20993 0.95676 0.0
H1976 H 0.23544 0.25024 0.95205 0.0
H1977 H 0.22957 0.26944 0.95831 0.0
H1978 H 0.19601 0.2562 0.96679 0.0
H1979 H 0.20175 0.23688 0.96072 0.0
C1980 C 0.2132 0.20328 0.90902 0.0
C1981 C 0.20114 0.20198 0.90922 0.0
C1982 C 0.21924 0.20727 0.91867 0.0
C1983 C 0.21339 0.20997 0.92881 0.0
C1984 C 0.20137 0.20859 0.92906 0.0
C1985 C 0.19533 0.20462 0.91942 0.0
C1986 C 0.21973 0.21462 0.93899 0.0
C1987 C 0.21637 0.22519 0.94349 0.0
C1988 C 0.22932 0.20903 0.94392 0.0
C1989 C 0.23302 0.19761 0.93995 0.0
C1990 C 0.2252 0.18831 0.93966 0.0
C1991 C 0.22872 0.1776 0.9358 0.0
C1992 C 0.24006 0.17606 0.93228 0.0
C1993 C 0.24792 0.18522 0.93264 0.0
C1994 C 0.24444 0.19595 0.93648 0.0
C1995 C 0.24069 0.24093 0.98465 0.0
C1996 C 0.25244 0.24318 0.98274 0.0
C1997 C 0.23417 0.23453 0.97672 0.0
C1998 C 0.23926 0.23032 0.96669 0.0
C1999 C 0.25116 0.23189 0.96521 0.0
C2000 C 0.25766 0.23822 0.97313 0.0
C2001 C 0.23219 0.22495 0.95736 0.0
C2002 C 0.23544 0.21428 0.95297 0.0
C2003 C 0.22254 0.23049 0.95247 0.0
C2004 C 0.21906 0.2421 0.95606 0.0
C2005 C 0.22684 0.25141 0.95533 0.0
C2006 C 0.22353 0.26231 0.95883 0.0
C2007 C 0.21244 0.26403 0.96298 0.0
C2008 C 0.20461 0.25485 0.9636 0.0
C2009 C 0.20788 0.24392 0.96013 0.0
H2010 H 0.20989 0.27248 0.96568 0.0
H2011 H 0.24277 0.16776 0.92929 0.0
H2012 H 0.81163 0.20917 0.9026 0.0
H2013 H 0.80207 0.21737 0.91922 0.0
H2014 H 0.83292 0.21306 0.93939 0.0
H2015 H 0.84242 0.20452 0.92292 0.0
H2016 H 0.81448 0.20767 0.95193 0.0
H2017 H 0.82616 0.23915 0.92797 0.0
H2018 H 0.82754 0.25032 0.91001 0.0
H2019 H 0.79078 0.25345 0.909 0.0
H2020 H 0.78917 0.24215 0.92688 0.0
H2021 H 0.7912 0.26338 0.98208 0.0
H2022 H 0.80336 0.25358 0.96818 0.0
H2023 H 0.78241 0.22297 0.97188 0.0
H2024 H 0.77046 0.23275 0.98595 0.0
H2025 H 0.79737 0.24621 0.94799 0.0
H2026 H 0.7976 0.19933 0.96482 0.0
H2027 H 0.79773 0.18892 0.98328 0.0
H2028 H 0.81349 0.21804 0.99968 0.0
H2029 H 0.8136 0.22857 0.98129 0.0
C2030 C 0.81634 0.2098 0.91061 0.0
C2031 C 0.82784 0.20623 0.91137 0.0
C2032 C 0.81089 0.2146 0.92009 0.0
C2033 C 0.81681 0.21601 0.93054 0.0
C2034 C 0.82817 0.21213 0.93143 0.0
C2035 C 0.83363 0.20733 0.92195 0.0
C2036 C 0.8113 0.22179 0.94044 0.0
C2037 C 0.81072 0.21609 0.95107 0.0
C2038 C 0.8066 0.23289 0.93943 0.0
C2039 C 0.80754 0.23971 0.9287 0.0
C2040 C 0.81836 0.24215 0.92387 0.0
C2041 C 0.81919 0.24851 0.91371 0.0
C2042 C 0.80926 0.25256 0.90835 0.0
C2043 C 0.79847 0.25029 0.91315 0.0
C2044 C 0.7976 0.24391 0.9233 0.0
C2045 C 0.78947 0.25445 0.98018 0.0
C2046 C 0.78009 0.24871 0.98523 0.0
C2047 C 0.79633 0.24888 0.97215 0.0
C2048 C 0.79387 0.23749 0.96897 0.0
C2049 C 0.78466 0.23167 0.97431 0.0
C2050 C 0.77784 0.23723 0.98237 0.0
C2051 C 0.80038 0.23202 0.95948 0.0
C2052 C 0.80112 0.23779 0.9489 0.0
C2053 C 0.80541 0.22107 0.96061 0.0
C2054 C 0.8055 0.21477 0.97169 0.0
C2055 C 0.80113 0.2035 0.97235 0.0
C2056 C 0.80116 0.19758 0.98281 0.0
C2057 C 0.80559 0.20283 0.99265 0.0
C2058 C 0.81003 0.214 0.99206 0.0
C2059 C 0.81003 0.21995 0.98162 0.0
H2060 H 0.80559 0.19824 1.00074 0.0
H2061 H 0.80991 0.25749 0.90049 0.0
H2062 H 0.80558 0.84031 0.91065 0.0
H2063 H 0.79789 0.83069 0.92764 0.0
H2064 H 0.82057 0.80233 0.92215 0.0
H2065 H 0.82801 0.81172 0.90485 0.0
H2066 H 0.79953 0.79469 0.92734 0.0
H2067 H 0.82573 0.82257 0.94338 0.0
H2068 H 0.83398 0.84192 0.94631 0.0
H2069 H 0.8016 0.85341 0.95917 0.0
H2070 H 0.79311 0.83416 0.95616 0.0
H2071 H 0.79138 0.76639 0.97949 0.0
H2072 H 0.80118 0.77808 0.96494 0.0
H2073 H 0.77668 0.80501 0.96992 0.0
H2074 H 0.76699 0.79333 0.98473 0.0
H2075 H 0.79854 0.81368 0.96527 0.0
H2076 H 0.77227 0.78609 0.9492 0.0
H2077 H 0.76393 0.76671 0.94676 0.0
H2078 H 0.79615 0.75482 0.93388 0.0
H2079 H 0.80476 0.77409 0.93647 0.0
C2080 C 0.80889 0.83198 0.91297 0.0
C2081 C 0.81743 0.82681 0.90631 0.0
C2082 C 0.80456 0.82654 0.9228 0.0
C2083 C 0.80873 0.81582 0.92631 0.0
C2084 C 0.81723 0.81061 0.91967 0.0
C2085 C 0.82156 0.81605 0.90982 0.0
C2086 C 0.80406 0.80995 0.93673 0.0
C2087 C 0.79949 0.7988 0.93565 0.0
C2088 C 0.80366 0.81539 0.94756 0.0
C2089 C 0.80876 0.82695 0.94945 0.0
C2090 C 0.82035 0.82924 0.94675 0.0
C2091 C 0.82507 0.84019 0.94844 0.0
C2092 C 0.81831 0.84889 0.9529 0.0
C2093 C 0.80682 0.84666 0.95571 0.0
C2094 C 0.80205 0.83573 0.95402 0.0
C2095 C 0.78833 0.77496 0.97773 0.0
C2096 C 0.77851 0.77902 0.98325 0.0
C2097 C 0.79386 0.78159 0.96935 0.0
C2098 C 0.78954 0.79234 0.96616 0.0
C2099 C 0.78016 0.79674 0.97222 0.0
C2100 C 0.77465 0.79011 0.9807 0.0
C2101 C 0.79416 0.79842 0.95586 0.0
C2102 C 0.79864 0.80959 0.95695 0.0
C2103 C 0.79444 0.79303 0.945 0.0
C2104 C 0.78919 0.78151 0.94312 0.0
C2105 C 0.7776 0.77933 0.9459 0.0
C2106 C 0.77282 0.76837 0.9445 0.0
C2107 C 0.77952 0.75954 0.94018 0.0
C2108 C 0.79099 0.76167 0.93723 0.0
C2109 C 0.79582 0.77261 0.93866 0.0
H2110 H 0.77581 0.75105 0.93912 0.0
H2111 H 0.82197 0.85736 0.9542 0.0
H2112 H 0.12667 0.20316 0.22445 0.0
H2113 H 0.10933 0.21025 0.23362 0.0
H2114 H 0.09291 0.21355 0.20055 0.0
H2115 H 0.11036 0.20688 0.19129 0.0
H2116 H 0.08918 0.23204 0.21292 0.0
H2117 H 0.08562 0.19161 0.21957 0.0
H2118 H 0.09194 0.17254 0.22604 0.0
H2119 H 0.09571 0.18498 0.26044 0.0
H2120 H 0.08956 0.20418 0.25415 0.0
H2121 H 0.03559 0.24662 0.237 0.0
H2122 H 0.04952 0.23509 0.22649 0.0
H2123 H 0.06917 0.23039 0.2576 0.0
H2124 H 0.05516 0.24159 0.26812 0.0
H2125 H 0.07001 0.21151 0.24506 0.0
H2126 H 0.07558 0.25204 0.23829 0.0
H2127 H 0.06968 0.27136 0.23217 0.0
H2128 H 0.0626 0.25887 0.19827 0.0
H2129 H 0.06831 0.23942 0.20425 0.0
C2130 C 0.1194 0.20544 0.2191 0.0
C2131 C 0.11997 0.20439 0.2071 0.0
C2132 C 0.10942 0.20938 0.22438 0.0
C2133 C 0.0997 0.21231 0.21781 0.0
C2134 C 0.10024 0.2113 0.20583 0.0
C2135 C 0.11022 0.20737 0.20055 0.0
C2136 C 0.08912 0.21677 0.22338 0.0
C2137 C 0.08488 0.22743 0.2198 0.0
C2138 C 0.08359 0.21091 0.23254 0.0
C2139 C 0.08722 0.19936 0.23636 0.0
C2140 C 0.08788 0.19031 0.2285 0.0
C2141 C 0.09141 0.17947 0.23214 0.0
C2142 C 0.09425 0.17756 0.24364 0.0
C2143 C 0.09352 0.18648 0.25153 0.0
C2144 C 0.09 0.19733 0.24794 0.0
C2145 C 0.04269 0.24282 0.24164 0.0
C2146 C 0.04434 0.2451 0.25336 0.0
C2147 C 0.05073 0.23634 0.23561 0.0
C2148 C 0.06057 0.23207 0.24119 0.0
C2149 C 0.06172 0.23363 0.25306 0.0
C2150 C 0.05372 0.24007 0.25907 0.0
C2151 C 0.07014 0.2268 0.23464 0.0
C2152 C 0.07423 0.21602 0.23807 0.0
C2153 C 0.07559 0.23257 0.22538 0.0
C2154 C 0.07224 0.24426 0.22175 0.0
C2155 C 0.07269 0.2534 0.22956 0.0
C2156 C 0.06939 0.26437 0.22611 0.0
C2157 C 0.06574 0.26633 0.21484 0.0
C2158 C 0.06541 0.25733 0.207 0.0
C2159 C 0.06868 0.24633 0.21041 0.0
H2160 H 0.06319 0.27483 0.21219 0.0
H2161 H 0.09699 0.16916 0.24644 0.0
H2162 H 0.82136 0.11243 0.19337 0.0
H2163 H 0.81127 0.09538 0.20073 0.0
H2164 H 0.82126 0.10447 0.23519 0.0
H2165 H 0.83124 0.12153 0.22794 0.0
H2166 H 0.82478 0.08213 0.23138 0.0
H2167 H 0.79388 0.10873 0.22511 0.0
H2168 H 0.78193 0.12192 0.2137 0.0
H2169 H 0.7728 0.09456 0.19078 0.0
H2170 H 0.78483 0.08124 0.20198 0.0
H2171 H 0.78617 0.05269 0.26745 0.0
H2172 H 0.79758 0.06639 0.25629 0.0
H2173 H 0.78456 0.05147 0.22498 0.0
H2174 H 0.77291 0.03773 0.23623 0.0
H2175 H 0.78313 0.07486 0.22472 0.0
H2176 H 0.81235 0.04771 0.23254 0.0
H2177 H 0.82403 0.03462 0.24432 0.0
H2178 H 0.83626 0.06297 0.2645 0.0
H2179 H 0.82453 0.07622 0.25295 0.0
C2180 C 0.82131 0.11087 0.20253 0.0
C2181 C 0.82715 0.11836 0.21005 0.0
C2182 C 0.81556 0.10109 0.20672 0.0
C2183 C 0.81547 0.09864 0.21853 0.0
C2184 C 0.82127 0.10612 0.22604 0.0
C2185 C 0.82701 0.11587 0.22187 0.0
C2186 C 0.80941 0.08829 0.22315 0.0
C2187 C 0.81566 0.08059 0.22998 0.0
C2188 C 0.79758 0.08603 0.22103 0.0
C2189 C 0.79036 0.09403 0.2143 0.0
C2190 C 0.7894 0.10555 0.21758 0.0
C2191 C 0.7826 0.11305 0.21116 0.0
C2192 C 0.77664 0.10909 0.2015 0.0
C2193 C 0.77744 0.09762 0.19825 0.0
C2194 C 0.78425 0.0901 0.20464 0.0
C2195 C 0.78582 0.05224 0.25818 0.0
C2196 C 0.77863 0.04416 0.25271 0.0
C2197 C 0.7924 0.06005 0.25181 0.0
C2198 C 0.79201 0.05993 0.23978 0.0
C2199 C 0.78502 0.0517 0.23425 0.0
C2200 C 0.77845 0.04381 0.24067 0.0
C2201 C 0.79846 0.06886 0.23317 0.0
C2202 C 0.7923 0.07629 0.22597 0.0
C2203 C 0.81037 0.07088 0.23496 0.0
C2204 C 0.8175 0.06295 0.24191 0.0
C2205 C 0.81747 0.05115 0.23954 0.0
C2206 C 0.82411 0.0437 0.24617 0.0
C2207 C 0.83087 0.04796 0.25517 0.0
C2208 C 0.83102 0.05968 0.25753 0.0
C2209 C 0.82439 0.06717 0.25093 0.0
H2210 H 0.83601 0.04218 0.26029 0.0
H2211 H 0.77137 0.1149 0.19655 0.0
H2212 H 0.91488 0.83483 0.20464 0.0
H2213 H 0.93169 0.82772 0.21509 0.0
H2214 H 0.91634 0.79389 0.21617 0.0
H2215 H 0.89938 0.801 0.20612 0.0
H2216 H 0.92583 0.79826 0.236 0.0
H2217 H 0.93784 0.80102 0.19702 0.0
H2218 H 0.94118 0.81039 0.17832 0.0
H2219 H 0.96435 0.83459 0.19415 0.0
H2220 H 0.96101 0.82545 0.21299 0.0
H2221 H 0.98619 0.77198 0.23599 0.0
H2222 H 0.97158 0.78274 0.22533 0.0
H2223 H 0.96189 0.79975 0.25649 0.0
H2224 H 0.9762 0.78867 0.26717 0.0
H2225 H 0.96513 0.80388 0.22033 0.0
H2226 H 0.93298 0.80123 0.258 0.0
H2227 H 0.92968 0.78952 0.27538 0.0
H2228 H 0.9464 0.76105 0.25972 0.0
H2229 H 0.94959 0.77251 0.24217 0.0
C2230 C 0.91501 0.8259 0.20722 0.0
C2231 C 0.90576 0.81849 0.20445 0.0
C2232 C 0.9247 0.82182 0.2131 0.0
C2233 C 0.92539 0.81021 0.21631 0.0
C2234 C 0.91607 0.80286 0.21378 0.0
C2235 C 0.9064 0.80693 0.20791 0.0
C2236 C 0.93582 0.80566 0.22226 0.0
C2237 C 0.93442 0.79956 0.23258 0.0
C2238 C 0.94705 0.8071 0.21773 0.0
C2239 C 0.94908 0.81263 0.20643 0.0
C2240 C 0.94357 0.8084 0.19653 0.0
C2241 C 0.94548 0.81366 0.1859 0.0
C2242 C 0.95295 0.8231 0.18505 0.0
C2243 C 0.95855 0.82729 0.19483 0.0
C2244 C 0.95666 0.82207 0.20548 0.0
C2245 C 0.98119 0.77831 0.24045 0.0
C2246 C 0.98233 0.77957 0.25236 0.0
C2247 C 0.9728 0.78442 0.23437 0.0
C2248 C 0.96543 0.7919 0.24013 0.0
C2249 C 0.96729 0.79388 0.25188 0.0
C2250 C 0.97555 0.78765 0.25797 0.0
C2251 C 0.95514 0.79666 0.23414 0.0
C2252 C 0.95655 0.80273 0.2238 0.0
C2253 C 0.94386 0.79489 0.23846 0.0
C2254 C 0.94162 0.78778 0.24882 0.0
C2255 C 0.93587 0.79245 0.25824 0.0
C2256 C 0.93403 0.78585 0.26812 0.0
C2257 C 0.93785 0.77456 0.26866 0.0
C2258 C 0.94346 0.7698 0.2593 0.0
C2259 C 0.94528 0.77635 0.24938 0.0
H2260 H 0.93645 0.76948 0.27634 0.0
H2261 H 0.95442 0.82716 0.17682 0.0
H2262 H 0.20218 0.91212 0.19428 0.0
H2263 H 0.21173 0.92916 0.20224 0.0
H2264 H 0.20259 0.91806 0.23635 0.0
H2265 H 0.19311 0.90103 0.22849 0.0
H2266 H 0.19858 0.94029 0.23391 0.0
H2267 H 0.23011 0.91539 0.22588 0.0
H2268 H 0.24223 0.90314 0.21391 0.0
H2269 H 0.24968 0.93168 0.19166 0.0
H2270 H 0.23746 0.94408 0.20341 0.0
H2271 H 0.23918 0.97024 0.26879 0.0
H2272 H 0.22697 0.95663 0.25826 0.0
H2273 H 0.23624 0.97324 0.22644 0.0
H2274 H 0.24846 0.98697 0.23704 0.0
H2275 H 0.23951 0.94978 0.22604 0.0
H2276 H 0.20927 0.97511 0.23568 0.0
H2277 H 0.19755 0.98709 0.2483 0.0
H2278 H 0.18803 0.95742 0.2682 0.0
H2279 H 0.19984 0.94527 0.2558 0.0
C2280 C 0.2023 0.91324 0.20348 0.0
C2281 C 0.19684 0.90517 0.21072 0.0
C2282 C 0.20774 0.92302 0.20803 0.0
C2283 C 0.20795 0.9249 0.21992 0.0
C2284 C 0.20251 0.91686 0.22715 0.0
C2285 C 0.19705 0.90712 0.22262 0.0
C2286 C 0.2138 0.93521 0.22491 0.0
C2287 C 0.20756 0.9423 0.23225 0.0
C2288 C 0.22544 0.93806 0.22254 0.0
C2289 C 0.23276 0.93063 0.21544 0.0
C2290 C 0.23425 0.91903 0.21837 0.0
C2291 C 0.24115 0.91206 0.21164 0.0
C2292 C 0.24669 0.91662 0.20201 0.0
C2293 C 0.24536 0.92816 0.1991 0.0
C2294 C 0.23845 0.93516 0.2058 0.0
C2295 C 0.23837 0.97116 0.25957 0.0
C2296 C 0.2447 0.97969 0.25373 0.0
C2297 C 0.2314 0.96338 0.25356 0.0
C2298 C 0.23066 0.9639 0.24154 0.0
C2299 C 0.23666 0.97268 0.23571 0.0
C2300 C 0.24354 0.98058 0.24176 0.0
C2301 C 0.22433 0.95474 0.23515 0.0
C2302 C 0.23049 0.94785 0.22756 0.0
C2303 C 0.21264 0.95203 0.23737 0.0
C2304 C 0.20552 0.95929 0.24485 0.0
C2305 C 0.20476 0.97115 0.2428 0.0
C2306 C 0.19808 0.97797 0.24991 0.0
C2307 C 0.19207 0.97302 0.25906 0.0
C2308 C 0.1927 0.96124 0.26111 0.0
C2309 C 0.19937 0.95438 0.25403 0.0
H2310 H 0.1869 0.97832 0.26455 0.0
H2311 H 0.25204 0.91121 0.19681 0.0
H2312 H 0.12661 0.82103 0.81072 0.0
H2313 H 0.10963 0.81453 0.8 0.0
H2314 H 0.09104 0.81006 0.83164 0.0
H2315 H 0.10797 0.81659 0.84241 0.0
H2316 H 0.08822 0.79179 0.81835 0.0
H2317 H 0.08523 0.83238 0.81306 0.0
H2318 H 0.09201 0.85181 0.8078 0.0
H2319 H 0.09769 0.84084 0.77325 0.0
H2320 H 0.0911 0.82129 0.77835 0.0
H2321 H 0.03556 0.77806 0.79079 0.0
H2322 H 0.0494 0.78911 0.80236 0.0
H2323 H 0.07063 0.79444 0.77255 0.0
H2324 H 0.05671 0.78371 0.76092 0.0
H2325 H 0.07102 0.8132 0.78578 0.0
H2326 H 0.07587 0.77259 0.79125 0.0
H2327 H 0.06956 0.75293 0.79619 0.0
H2328 H 0.06091 0.76381 0.83013 0.0
H2329 H 0.06702 0.7836 0.82533 0.0
C2330 C 0.11886 0.81883 0.81539 0.0
C2331 C 0.11868 0.81933 0.82744 0.0
C2332 C 0.10914 0.81511 0.80925 0.0
C2333 C 0.09899 0.8119 0.81499 0.0
C2334 C 0.09876 0.81247 0.827 0.0
C2335 C 0.10847 0.81617 0.83316 0.0
C2336 C 0.08878 0.80747 0.80852 0.0
C2337 C 0.08433 0.79659 0.81137 0.0
C2338 C 0.08385 0.81358 0.79922 0.0
C2339 C 0.08776 0.82534 0.79612 0.0
C2340 C 0.08801 0.83408 0.80436 0.0
C2341 C 0.0918 0.84512 0.80141 0.0
C2342 C 0.0953 0.84755 0.79021 0.0
C2343 C 0.09498 0.83894 0.78193 0.0
C2344 C 0.09121 0.82789 0.78484 0.0
C2345 C 0.04303 0.78185 0.78665 0.0
C2346 C 0.04511 0.7799 0.77497 0.0
C2347 C 0.05099 0.78807 0.79329 0.0
C2348 C 0.06119 0.79241 0.78838 0.0
C2349 C 0.06288 0.79112 0.77656 0.0
C2350 C 0.05494 0.78492 0.76993 0.0
C2351 C 0.07051 0.79753 0.79561 0.0
C2352 C 0.07483 0.8085 0.79286 0.0
C2353 C 0.07538 0.79149 0.80497 0.0
C2354 C 0.07177 0.77959 0.80789 0.0
C2355 C 0.07254 0.77081 0.79974 0.0
C2356 C 0.06901 0.75964 0.80252 0.0
C2357 C 0.06481 0.75713 0.81345 0.0
C2358 C 0.06415 0.76578 0.82165 0.0
C2359 C 0.06765 0.77697 0.81891 0.0
H2360 H 0.06208 0.74847 0.81559 0.0
H2361 H 0.09823 0.8561 0.78793 0.0
H2362 H 0.2001 0.12282 0.81015 0.0
H2363 H 0.20702 0.10608 0.79985 0.0
H2364 H 0.21963 0.09174 0.83159 0.0
H2365 H 0.21271 0.1084 0.84193 0.0
H2366 H 0.23546 0.09005 0.81557 0.0
H2367 H 0.19529 0.08095 0.81798 0.0
H2368 H 0.17449 0.08423 0.81573 0.0
H2369 H 0.1786 0.08765 0.77931 0.0
H2370 H 0.19947 0.08455 0.78136 0.0
H2371 H 0.24929 0.03571 0.79297 0.0
H2372 H 0.2385 0.04972 0.80415 0.0
H2373 H 0.22942 0.06756 0.77299 0.0
H2374 H 0.24029 0.05367 0.76185 0.0
H2375 H 0.21127 0.06668 0.78918 0.0
H2376 H 0.25146 0.07691 0.78701 0.0
H2377 H 0.27224 0.07349 0.78916 0.0
H2378 H 0.26791 0.0679 0.8253 0.0
H2379 H 0.24704 0.07109 0.82332 0.0
C2380 C 0.2042 0.11604 0.81497 0.0
C2381 C 0.20586 0.11702 0.82689 0.0
C2382 C 0.20817 0.10645 0.80906 0.0
C2383 C 0.2138 0.09756 0.81493 0.0
C2384 C 0.21537 0.09848 0.82683 0.0
C2385 C 0.21143 0.10806 0.83274 0.0
C2386 C 0.2184 0.08749 0.80865 0.0
C2387 C 0.23009 0.08484 0.80996 0.0
C2388 C 0.21151 0.08078 0.80111 0.0
C2389 C 0.19897 0.08263 0.79984 0.0
C2390 C 0.19178 0.08249 0.8095 0.0
C2391 C 0.17997 0.0843 0.80826 0.0
C2392 C 0.17523 0.08618 0.79739 0.0
C2393 C 0.18229 0.08621 0.78773 0.0
C2394 C 0.1941 0.08442 0.78892 0.0
C2395 C 0.24472 0.04244 0.78851 0.0
C2396 C 0.24561 0.04362 0.77656 0.0
C2397 C 0.23862 0.05048 0.79489 0.0
C2398 C 0.23324 0.05976 0.78941 0.0
C2399 C 0.23349 0.06048 0.77741 0.0
C2400 C 0.2397 0.05255 0.77105 0.0
C2401 C 0.22826 0.06927 0.79618 0.0
C2402 C 0.21656 0.07185 0.79489 0.0
C2403 C 0.23512 0.07593 0.80377 0.0
C2404 C 0.24767 0.0741 0.805 0.0
C2405 C 0.25492 0.07485 0.7954 0.0
C2406 C 0.26672 0.07297 0.79658 0.0
C2407 C 0.27139 0.07045 0.80735 0.0
C2408 C 0.26428 0.06983 0.81696 0.0
C2409 C 0.25246 0.07167 0.81581 0.0
H2410 H 0.28053 0.069 0.80826 0.0
H2411 H 0.16609 0.08757 0.79645 0.0
H2412 H 0.89816 0.21727 0.82563 0.0
H2413 H 0.91466 0.22817 0.81823 0.0
H2414 H 0.93286 0.19672 0.81284 0.0
H2415 H 0.91654 0.18579 0.82058 0.0
H2416 H 0.9472 0.21283 0.82126 0.0
H2417 H 0.91964 0.21061 0.79065 0.0
H2418 H 0.90072 0.21275 0.78126 0.0
H2419 H 0.90216 0.24904 0.7871 0.0
H2420 H 0.92102 0.24709 0.79668 0.0
H2421 H 0.98824 0.23543 0.78048 0.0
H2422 H 0.97374 0.22458 0.79144 0.0
H2423 H 0.95492 0.25567 0.7969 0.0
H2424 H 0.96931 0.26647 0.78596 0.0
H2425 H 0.9411 0.23951 0.78862 0.0
H2426 H 0.96911 0.24162 0.81897 0.0
H2427 H 0.98821 0.23924 0.82791 0.0
H2428 H 0.98618 0.20297 0.82209 0.0
H2429 H 0.96713 0.20515 0.81296 0.0
C2430 C 0.90572 0.21267 0.82303 0.0
C2431 C 0.90595 0.20062 0.82365 0.0
C2432 C 0.91513 0.21891 0.81869 0.0
C2433 C 0.92497 0.21327 0.81481 0.0
C2434 C 0.92536 0.20128 0.81572 0.0
C2435 C 0.91596 0.19503 0.82006 0.0
C2436 C 0.93473 0.21984 0.80954 0.0
C2437 C 0.94589 0.21857 0.81405 0.0
C2438 C 0.93304 0.22748 0.80022 0.0
C2439 C 0.92168 0.22868 0.7945 0.0
C2440 C 0.91587 0.21903 0.79002 0.0
C2441 C 0.90517 0.22021 0.78465 0.0
C2442 C 0.90023 0.23102 0.78361 0.0
C2443 C 0.90599 0.24067 0.78793 0.0
C2444 C 0.91669 0.23953 0.79333 0.0
C2445 C 0.98118 0.23998 0.7843 0.0
C2446 C 0.9799 0.25179 0.7823 0.0
C2447 C 0.97286 0.23377 0.79053 0.0
C2448 C 0.96317 0.23928 0.79499 0.0
C2449 C 0.96224 0.25118 0.79349 0.0
C2450 C 0.9705 0.25736 0.78726 0.0
C2451 C 0.95357 0.23263 0.80043 0.0
C2452 C 0.94243 0.23383 0.79589 0.0
C2453 C 0.95531 0.22491 0.80967 0.0
C2454 C 0.96674 0.22357 0.81518 0.0
C2455 C 0.97278 0.23315 0.81951 0.0
C2456 C 0.98359 0.23183 0.82463 0.0
C2457 C 0.98842 0.22096 0.82554 0.0
C2458 C 0.98243 0.21138 0.82136 0.0
C2459 C 0.97163 0.21266 0.81622 0.0
H2460 H 0.99678 0.21996 0.82951 0.0
H2461 H 0.89194 0.23192 0.77944 0.0
H2462 H 0.84288 0.9154 0.81298 0.0
H2463 H 0.83259 0.93201 0.80559 0.0
H2464 H 0.80057 0.9174 0.81765 0.0
H2465 H 0.81075 0.90054 0.82469 0.0
H2466 H 0.79794 0.92541 0.79659 0.0
H2467 H 0.81424 0.94024 0.83136 0.0
H2468 H 0.8297 0.94472 0.84525 0.0
H2469 H 0.84682 0.96576 0.82011 0.0
H2470 H 0.83153 0.96128 0.80601 0.0
H2471 H 0.76263 0.97276 0.78982 0.0
H2472 H 0.77454 0.95862 0.79962 0.0
H2473 H 0.80478 0.9729 0.7834 0.0
H2474 H 0.7928 0.98721 0.77356 0.0
H2475 H 0.80884 0.96548 0.80626 0.0
H2476 H 0.79221 0.9506 0.77157 0.0
H2477 H 0.77629 0.94652 0.75808 0.0
H2478 H 0.75953 0.92555 0.78351 0.0
H2479 H 0.77526 0.92968 0.79724 0.0
C2480 C 0.83363 0.91566 0.81402 0.0
C2481 C 0.82767 0.90656 0.81943 0.0
C2482 C 0.82777 0.92526 0.80989 0.0
C2483 C 0.81579 0.92607 0.81115 0.0
C2484 C 0.80981 0.91703 0.81659 0.0
C2485 C 0.81567 0.90741 0.82071 0.0
C2486 C 0.80945 0.93614 0.80647 0.0
C2487 C 0.80025 0.93415 0.79885 0.0
C2488 C 0.8126 0.94761 0.80914 0.0
C2489 C 0.8218 0.95033 0.8176 0.0
C2490 C 0.82135 0.94575 0.82877 0.0
C2491 C 0.83007 0.9483 0.83668 0.0
C2492 C 0.83925 0.95549 0.83356 0.0
C2493 C 0.83971 0.96017 0.82251 0.0
C2494 C 0.83101 0.95764 0.81456 0.0
C2495 C 0.77186 0.97303 0.78852 0.0
C2496 C 0.77678 0.98101 0.78084 0.0
C2497 C 0.77865 0.96493 0.7941 0.0
C2498 C 0.79053 0.96453 0.79207 0.0
C2499 C 0.79562 0.97301 0.78505 0.0
C2500 C 0.78879 0.9812 0.77946 0.0
C2501 C 0.79731 0.95469 0.79652 0.0
C2502 C 0.80657 0.95673 0.80403 0.0
C2503 C 0.79422 0.94324 0.79379 0.0
C2504 C 0.78487 0.94053 0.78547 0.0
C2505 C 0.7851 0.94517 0.77431 0.0
C2506 C 0.77611 0.94285 0.76662 0.0
C2507 C 0.76689 0.9358 0.76995 0.0
C2508 C 0.76667 0.93102 0.78096 0.0
C2509 C 0.77562 0.93335 0.78869 0.0
H2510 H 0.75994 0.93402 0.76398 0.0
H2511 H 0.846 0.95746 0.8397 0.0
H2512 H 0.21636 0.12132 0.19932 0.0
H2513 H 0.22664 0.1043 0.20567 0.0
H2514 H 0.21853 0.11188 0.2408 0.0
H2515 H 0.2086 0.12921 0.23456 0.0
H2516 H 0.24011 0.10276 0.23926 0.0
H2517 H 0.20199 0.0932 0.22644 0.0
H2518 H 0.18548 0.0931 0.21307 0.0
H2519 H 0.20576 0.07611 0.18782 0.0
H2520 H 0.22245 0.07627 0.20099 0.0
H2521 H 0.23704 0.04181 0.25755 0.0
H2522 H 0.22762 0.05844 0.24863 0.0
H2523 H 0.25544 0.06164 0.2246 0.0
H2524 H 0.26539 0.04573 0.23416 0.0
H2525 H 0.22495 0.06667 0.22208 0.0
H2526 H 0.26416 0.076 0.23419 0.0
H2527 H 0.28053 0.06691 0.24736 0.0
H2528 H 0.25401 0.08847 0.28115 0.0
H2529 H 0.24012 0.09349 0.26244 0.0
C2530 C 0.21697 0.11955 0.20842 0.0
C2531 C 0.21149 0.12663 0.2164 0.0
C2532 C 0.2228 0.10974 0.21204 0.0
C2533 C 0.22322 0.10667 0.22371 0.0
C2534 C 0.2183 0.11401 0.23175 0.0
C2535 C 0.21249 0.12386 0.22814 0.0
C2536 C 0.22789 0.09535 0.22735 0.0
C2537 C 0.23683 0.09486 0.23554 0.0
C2538 C 0.22354 0.08502 0.22258 0.0
C2539 C 0.2135 0.08485 0.21466 0.0
C2540 C 0.20295 0.08952 0.21801 0.0
C2541 C 0.19356 0.08944 0.21047 0.0
C2542 C 0.19458 0.08463 0.19959 0.0
C2543 C 0.20499 0.07985 0.19624 0.0
C2544 C 0.21442 0.07993 0.20374 0.0
C2545 C 0.24104 0.04593 0.25022 0.0
C2546 C 0.25218 0.04278 0.24684 0.0
C2547 C 0.23565 0.05547 0.24513 0.0
C2548 C 0.24149 0.06208 0.23678 0.0
C2549 C 0.2514 0.05744 0.23186 0.0
C2550 C 0.25698 0.04818 0.23716 0.0
C2551 C 0.23749 0.07391 0.23363 0.0
C2552 C 0.22844 0.07453 0.2257 0.0
C2553 C 0.24181 0.08437 0.23874 0.0
C2554 C 0.25137 0.08459 0.2474 0.0
C2555 C 0.26314 0.07714 0.24329 0.0
C2556 C 0.27366 0.07149 0.25144 0.0
C2557 C 0.27395 0.07316 0.26586 0.0
C2558 C 0.25652 0.08538 0.27271 0.0
C2559 C 0.24807 0.089 0.26101 0.0
H2560 H 0.28121 0.06974 0.2702 0.0
H2561 H 0.1873 0.08457 0.19377 0.0
H2562 H 0.21105 0.90659 0.8366 0.0
H2563 H 0.22186 0.92318 0.82916 0.0
H2564 H 0.20407 0.92 0.79677 0.0
H2565 H 0.1936 0.90323 0.80397 0.0
H2566 H 0.22635 0.924 0.79342 0.0
H2567 H 0.1967 0.94028 0.81719 0.0
H2568 H 0.18616 0.94294 0.83525 0.0
H2569 H 0.21726 0.95459 0.85175 0.0
H2570 H 0.22801 0.95186 0.83381 0.0
H2571 H 0.23433 0.97591 0.76589 0.0
H2572 H 0.22443 0.96115 0.77725 0.0
H2573 H 0.24778 0.96748 0.80545 0.0
H2574 H 0.25763 0.98247 0.79405 0.0
H2575 H 0.22479 0.96187 0.81249 0.0
H2576 H 0.25419 0.94709 0.78853 0.0
H2577 H 0.26467 0.94522 0.77034 0.0
H2578 H 0.23449 0.93074 0.75439 0.0
H2579 H 0.22373 0.93274 0.77243 0.0
C2580 C 0.20953 0.90936 0.82786 0.0
C2581 C 0.20138 0.9036 0.82092 0.0
C2582 C 0.21563 0.91892 0.82365 0.0
C2583 C 0.21368 0.92295 0.81244 0.0
C2584 C 0.20571 0.9171 0.80546 0.0
C2585 C 0.19963 0.90756 0.80964 0.0
C2586 C 0.21986 0.93327 0.80788 0.0
C2587 C 0.22593 0.93228 0.79757 0.0
C2588 C 0.21965 0.94403 0.81345 0.0
C2589 C 0.21317 0.94575 0.8242 0.0
C2590 C 0.2013 0.94333 0.82469 0.0
C2591 C 0.19529 0.94487 0.8349 0.0
C2592 C 0.20105 0.9489 0.84465 0.0
C2593 C 0.21282 0.95145 0.8442 0.0
C2594 C 0.21887 0.94992 0.83401 0.0
C2595 C 0.23709 0.97439 0.77465 0.0
C2596 C 0.24668 0.9803 0.77915 0.0
C2597 C 0.23149 0.96593 0.7811 0.0
C2598 C 0.2355 0.96309 0.79212 0.0
C2599 C 0.24456 0.96955 0.79697 0.0
C2600 C 0.25016 0.9781 0.79049 0.0
C2601 C 0.23095 0.95261 0.79791 0.0
C2602 C 0.22528 0.95355 0.80843 0.0
C2603 C 0.23157 0.94176 0.79258 0.0
C2604 C 0.23813 0.94014 0.78182 0.0
C2605 C 0.24976 0.94355 0.78113 0.0
C2606 C 0.25576 0.94248 0.77085 0.0
C2607 C 0.25025 0.93788 0.76121 0.0
C2608 C 0.23874 0.9343 0.76186 0.0
C2609 C 0.23269 0.9354 0.77212 0.0
H2610 H 0.25489 0.93708 0.75325 0.0
H2611 H 0.19638 0.95008 0.85255 0.0
H2612 H 0.11507 0.20555 0.83628 0.0
H2613 H 0.09834 0.21565 0.82855 0.0
H2614 H 0.10438 0.201 0.79531 0.0
H2615 H 0.12125 0.19122 0.80285 0.0
H2616 H 0.09941 0.22312 0.79322 0.0
H2617 H 0.08307 0.19059 0.81358 0.0
H2618 H 0.07977 0.17826 0.83051 0.0
H2619 H 0.06569 0.20671 0.84863 0.0
H2620 H 0.06905 0.21926 0.83184 0.0
H2621 H 0.04857 0.23324 0.76392 0.0
H2622 H 0.06294 0.22224 0.77454 0.0
H2623 H 0.05448 0.24034 0.80543 0.0
H2624 H 0.03986 0.25122 0.79478 0.0
H2625 H 0.06052 0.21768 0.80993 0.0
H2626 H 0.07592 0.25003 0.78968 0.0
H2627 H 0.07859 0.2625 0.77275 0.0
H2628 H 0.09452 0.23494 0.7548 0.0
H2629 H 0.09173 0.22223 0.77155 0.0
C2630 C 0.1129 0.20456 0.8273 0.0
C2631 C 0.1195 0.19748 0.82023 0.0
C2632 C 0.10325 0.21026 0.82291 0.0
C2633 C 0.09997 0.20898 0.81136 0.0
C2634 C 0.10667 0.2021 0.80426 0.0
C2635 C 0.11628 0.19641 0.80862 0.0
C2636 C 0.0896 0.2148 0.80657 0.0
C2637 C 0.0909 0.22182 0.79683 0.0
C2638 C 0.0785 0.21343 0.81144 0.0
C2639 C 0.07642 0.20589 0.8215 0.0
C2640 C 0.07935 0.19424 0.8212 0.0
C2641 C 0.07746 0.18721 0.83077 0.0
C2642 C 0.07256 0.19171 0.84065 0.0
C2643 C 0.06951 0.20324 0.84098 0.0
C2644 C 0.07139 0.21031 0.83144 0.0
C2645 C 0.0495 0.23456 0.77307 0.0
C2646 C 0.04309 0.24301 0.77856 0.0
C2647 C 0.05777 0.22836 0.77911 0.0
C2648 C 0.05998 0.23064 0.79074 0.0
C2649 C 0.05296 0.23846 0.79647 0.0
C2650 C 0.04458 0.24462 0.79041 0.0
C2651 C 0.07034 0.22574 0.79646 0.0
C2652 C 0.06904 0.21899 0.80637 0.0
C2653 C 0.08148 0.22741 0.79181 0.0
C2654 C 0.08353 0.23514 0.78185 0.0
C2655 C 0.07995 0.24661 0.7821 0.0
C2656 C 0.08147 0.25372 0.77254 0.0
C2657 C 0.0867 0.24951 0.7627 0.0
C2658 C 0.09046 0.23819 0.76243 0.0
C2659 C 0.08891 0.23102 0.77196 0.0
H2660 H 0.08786 0.25503 0.75529 0.0
H2661 H 0.0711 0.18625 0.84805 0.0
H2662 H 0.83377 0.11084 0.829 0.0
H2663 H 0.82607 0.09379 0.81931 0.0
H2664 H 0.79179 0.10722 0.82167 0.0
H2665 H 0.7994 0.12425 0.83127 0.0
H2666 H 0.79178 0.08519 0.82772 0.0
H2667 H 0.80707 0.1076 0.79632 0.0
H2668 H 0.82209 0.11823 0.78566 0.0
H2669 H 0.84252 0.0879 0.78419 0.0
H2670 H 0.82768 0.07712 0.79498 0.0
H2671 H 0.76007 0.05516 0.78553 0.0
H2672 H 0.77035 0.06876 0.79783 0.0
H2673 H 0.80172 0.05007 0.79312 0.0
H2674 H 0.79138 0.03643 0.78062 0.0
H2675 H 0.80501 0.07291 0.78942 0.0
H2676 H 0.78849 0.04999 0.8191 0.0
H2677 H 0.77315 0.03949 0.8294 0.0
H2678 H 0.7548 0.0708 0.83395 0.0
H2679 H 0.76995 0.08148 0.82353 0.0
C2680 C 0.8246 0.11023 0.82734 0.0
C2681 C 0.81722 0.11895 0.83097 0.0
C2682 C 0.82021 0.10045 0.82182 0.0
C2683 C 0.80833 0.0992 0.8197 0.0
C2684 C 0.80097 0.10791 0.82326 0.0
C2685 C 0.80534 0.11766 0.82879 0.0
C2686 C 0.80348 0.08883 0.81388 0.0
C2687 C 0.79462 0.08257 0.8193 0.0
C2688 C 0.8074 0.08513 0.80305 0.0
C2689 C 0.81633 0.0916 0.79657 0.0
C2690 C 0.81481 0.10323 0.79381 0.0
C2691 C 0.82329 0.10927 0.78773 0.0
C2692 C 0.83327 0.10376 0.78428 0.0
C2693 C 0.83479 0.09217 0.78688 0.0
C2694 C 0.82635 0.08609 0.79298 0.0
C2695 C 0.76912 0.05383 0.78728 0.0
C2696 C 0.77493 0.04473 0.78212 0.0
C2697 C 0.77499 0.0616 0.79434 0.0
C2698 C 0.78682 0.06044 0.79648 0.0
C2699 C 0.7926 0.05114 0.79163 0.0
C2700 C 0.78667 0.04329 0.78457 0.0
C2701 C 0.79316 0.06942 0.80316 0.0
C2702 C 0.80228 0.07542 0.7979 0.0
C2703 C 0.78947 0.0729 0.81414 0.0
C2704 C 0.78034 0.06653 0.82046 0.0
C2705 C 0.78115 0.05463 0.82222 0.0
C2706 C 0.77249 0.04864 0.8281 0.0
C2707 C 0.76299 0.05447 0.83231 0.0
C2708 C 0.76215 0.0663 0.83068 0.0
C2709 C 0.77079 0.07233 0.8248 0.0
H2710 H 0.7563 0.04982 0.83686 0.0
H2711 H 0.83982 0.10845 0.77957 0.0
H2712 H 0.90369 0.79978 0.83366 0.0
H2713 H 0.92075 0.79209 0.82455 0.0
H2714 H 0.93032 0.82597 0.81277 0.0
H2715 H 0.91321 0.83377 0.82194 0.0
H2716 H 0.93339 0.81055 0.79613 0.0
H2717 H 0.94432 0.81347 0.83549 0.0
H2718 H 0.94237 0.81074 0.85636 0.0
H2719 H 0.94251 0.77423 0.85204 0.0
H2720 H 0.94429 0.77674 0.83112 0.0
H2721 H 0.98835 0.79191 0.77793 0.0
H2722 H 0.97451 0.80227 0.78976 0.0
H2723 H 0.95927 0.7701 0.80052 0.0
H2724 H 0.97298 0.7598 0.78863 0.0
H2725 H 0.96045 0.7863 0.81827 0.0
H2726 H 0.94782 0.78354 0.77891 0.0
H2727 H 0.94989 0.78618 0.75804 0.0
H2728 H 0.95306 0.82258 0.76253 0.0
H2729 H 0.95122 0.82013 0.78347 0.0
C2730 C 0.90946 0.80565 0.82924 0.0
C2731 C 0.9071 0.81744 0.82867 0.0
C2732 C 0.91923 0.80122 0.82401 0.0
C2733 C 0.92698 0.80846 0.81813 0.0
C2734 C 0.92452 0.8202 0.81729 0.0
C2735 C 0.9147 0.82465 0.82251 0.0
C2736 C 0.93754 0.8037 0.81281 0.0
C2737 C 0.93941 0.80544 0.80104 0.0
C2738 C 0.94536 0.79685 0.81913 0.0
C2739 C 0.94435 0.7953 0.83172 0.0
C2740 C 0.94385 0.80486 0.83898 0.0
C2741 C 0.94279 0.80335 0.85082 0.0
C2742 C 0.94229 0.79232 0.85552 0.0
C2743 C 0.94288 0.78277 0.84839 0.0
C2744 C 0.94394 0.78423 0.83654 0.0
C2745 C 0.98227 0.78708 0.78312 0.0
C2746 C 0.98176 0.77507 0.78245 0.0
C2747 C 0.97431 0.79299 0.78979 0.0
C2748 C 0.96576 0.78697 0.79594 0.0
C2749 C 0.96577 0.77494 0.79587 0.0
C2750 C 0.97362 0.76905 0.78911 0.0
C2751 C 0.9562 0.7931 0.80163 0.0
C2752 C 0.9545 0.79156 0.81343 0.0
C2753 C 0.94855 0.80014 0.79536 0.0
C2754 C 0.94953 0.80164 0.78277 0.0
C2755 C 0.94906 0.7921 0.77546 0.0
C2756 C 0.95018 0.79356 0.76362 0.0
C2757 C 0.95164 0.80454 0.75897 0.0
C2758 C 0.95196 0.81408 0.76615 0.0
C2759 C 0.95088 0.81266 0.77801 0.0
H2760 H 0.9525 0.80566 0.74979 0.0
H2761 H 0.94146 0.79116 0.86469 0.0
H2762 H 0.8352 0.90448 0.22725 0.0
H2763 H 0.82547 0.92099 0.23523 0.0
H2764 H 0.80947 0.92757 0.20246 0.0
H2765 H 0.81949 0.91118 0.19429 0.0
H2766 H 0.81721 0.94745 0.21239 0.0
H2767 H 0.79418 0.91508 0.22382 0.0
H2768 H 0.79033 0.89603 0.23232 0.0
H2769 H 0.80286 0.90789 0.26491 0.0
H2770 H 0.80694 0.92698 0.25655 0.0
H2771 H 0.77397 0.98477 0.23491 0.0
H2772 H 0.78563 0.97051 0.22508 0.0
H2773 H 0.80044 0.96035 0.25753 0.0
H2774 H 0.78849 0.97435 0.26732 0.0
H2775 H 0.79299 0.94233 0.24695 0.0
H2776 H 0.81613 0.97481 0.2355 0.0
H2777 H 0.81989 0.99386 0.22696 0.0
H2778 H 0.80708 0.98197 0.19449 0.0
H2779 H 0.80309 0.96289 0.20288 0.0
C2780 C 0.82972 0.90949 0.22168 0.0
C2781 C 0.82817 0.90646 0.2101 0.0
C2782 C 0.82406 0.91889 0.22629 0.0
C2783 C 0.81663 0.92549 0.21949 0.0
C2784 C 0.81514 0.92261 0.2079 0.0
C2785 C 0.82079 0.91316 0.20326 0.0
C2786 C 0.81035 0.9353 0.2246 0.0
C2787 C 0.81179 0.94632 0.21986 0.0
C2788 C 0.80343 0.93389 0.23447 0.0
C2789 C 0.80097 0.92243 0.23953 0.0
C2790 C 0.7962 0.9136 0.23277 0.0
C2791 C 0.79396 0.9028 0.23757 0.0
C2792 C 0.79637 0.90074 0.24914 0.0
C2793 C 0.80101 0.90949 0.25595 0.0
C2794 C 0.80328 0.92031 0.25118 0.0
C2795 C 0.78001 0.97974 0.23985 0.0
C2796 C 0.7805 0.98076 0.25183 0.0
C2797 C 0.78666 0.97155 0.23425 0.0
C2798 C 0.794 0.96432 0.24053 0.0
C2799 C 0.79486 0.96577 0.25246 0.0
C2800 C 0.78813 0.97385 0.25805 0.0
C2801 C 0.8 0.95459 0.23491 0.0
C2802 C 0.79844 0.94353 0.23951 0.0
C2803 C 0.80679 0.95599 0.22492 0.0
C2804 C 0.80921 0.96745 0.21985 0.0
C2805 C 0.81403 0.97628 0.22656 0.0
C2806 C 0.81622 0.98708 0.22174 0.0
C2807 C 0.8137 0.98914 0.21019 0.0
C2808 C 0.80901 0.98038 0.20343 0.0
C2809 C 0.8068 0.96956 0.20822 0.0
H2810 H 0.8154 0.9975 0.20648 0.0
H2811 H 0.79462 0.89238 0.25284 0.0
H2812 H 0.11095 0.83113 0.20154 0.0
H2813 H 0.09398 0.8231 0.21118 0.0
H2814 H 0.10849 0.78935 0.20939 0.0
H2815 H 0.12546 0.7973 0.19983 0.0
H2816 H 0.08641 0.78864 0.2032 0.0
H2817 H 0.10825 0.80488 0.23454 0.0
H2818 H 0.11845 0.82026 0.24505 0.0
H2819 H 0.08744 0.8398 0.24601 0.0
H2820 H 0.07709 0.82459 0.23536 0.0
H2821 H 0.05612 0.75698 0.24527 0.0
H2822 H 0.06988 0.76729 0.23317 0.0
H2823 H 0.05067 0.79835 0.23726 0.0
H2824 H 0.0369 0.78802 0.24963 0.0
H2825 H 0.07339 0.80203 0.24119 0.0
H2826 H 0.05108 0.78469 0.21146 0.0
H2827 H 0.04099 0.76904 0.20127 0.0
H2828 H 0.07288 0.75137 0.19739 0.0
H2829 H 0.08315 0.76684 0.20771 0.0
C2830 C 0.1106 0.82202 0.20331 0.0
C2831 C 0.1196 0.81488 0.19987 0.0
C2832 C 0.10086 0.81742 0.20881 0.0
C2833 C 0.09994 0.8056 0.21108 0.0
C2834 C 0.10893 0.79848 0.20769 0.0
C2835 C 0.11864 0.80305 0.20218 0.0
C2836 C 0.08963 0.80056 0.2169 0.0
C2837 C 0.08363 0.79151 0.21155 0.0
C2838 C 0.08573 0.80452 0.22764 0.0
C2839 C 0.09194 0.81366 0.23404 0.0
C2840 C 0.10364 0.8125 0.2369 0.0
C2841 C 0.10943 0.82118 0.2429 0.0
C2842 C 0.1036 0.83102 0.24616 0.0
C2843 C 0.09195 0.83219 0.24346 0.0
C2844 C 0.08611 0.82354 0.23745 0.0
C2845 C 0.05474 0.76598 0.24348 0.0
C2846 C 0.04543 0.7717 0.24843 0.0
C2847 C 0.06259 0.77186 0.2365 0.0
C2848 C 0.06131 0.78361 0.23423 0.0
C2849 C 0.05183 0.78929 0.23888 0.0
C2850 C 0.04391 0.78337 0.24585 0.0
C2851 C 0.0703 0.78997 0.22757 0.0
C2852 C 0.07607 0.79926 0.23277 0.0
C2853 C 0.074 0.78622 0.21669 0.0
C2854 C 0.06787 0.7769 0.21043 0.0
C2855 C 0.05593 0.77743 0.20851 0.0
C2856 C 0.05018 0.7686 0.20269 0.0
C2857 C 0.05629 0.75921 0.1987 0.0
C2858 C 0.06816 0.75865 0.20049 0.0
C2859 C 0.07396 0.76746 0.20631 0.0
H2860 H 0.05182 0.75238 0.1942 0.0
H2861 H 0.10811 0.83773 0.25081 0.0
H2862 H 0.91229 0.19188 0.20503 0.0
H2863 H 0.92945 0.1999 0.21443 0.0
H2864 H 0.92012 0.23374 0.20296 0.0
H2865 H 0.90296 0.22583 0.19364 0.0
H2866 H 0.9425 0.2303 0.19953 0.0
H2867 H 0.91607 0.22502 0.23075 0.0
H2868 H 0.90278 0.21421 0.24332 0.0
H2869 H 0.93006 0.19165 0.25312 0.0
H2870 H 0.94348 0.20225 0.24048 0.0
H2871 H 0.97256 0.26694 0.23805 0.0
H2872 H 0.95887 0.25592 0.22637 0.0
H2873 H 0.97391 0.22446 0.23844 0.0
H2874 H 0.9877 0.23554 0.25017 0.0
H2875 H 0.95022 0.22481 0.24104 0.0
H2876 H 0.97716 0.23184 0.21108 0.0
H2877 H 0.99019 0.24339 0.1989 0.0
H2878 H 0.9617 0.26337 0.18706 0.0
H2879 H 0.94851 0.25205 0.1993 0.0
C2880 C 0.91382 0.20104 0.2046 0.0
C2881 C 0.90622 0.20819 0.19854 0.0
C2882 C 0.92367 0.20562 0.20996 0.0
C2883 C 0.92608 0.21745 0.20945 0.0
C2884 C 0.91851 0.22458 0.20341 0.0
C2885 C 0.90869 0.22003 0.19806 0.0
C2886 C 0.93646 0.22245 0.21517 0.0
C2887 C 0.94414 0.22917 0.20863 0.0
C2888 C 0.9388 0.22074 0.22699 0.0
C2889 C 0.93074 0.21433 0.23455 0.0
C2890 C 0.91921 0.21769 0.2355 0.0
C2891 C 0.91166 0.21162 0.24266 0.0
C2892 C 0.91556 0.20223 0.24899 0.0
C2893 C 0.92704 0.19891 0.24819 0.0
C2894 C 0.93462 0.20495 0.24104 0.0
C2895 C 0.9731 0.25768 0.238 0.0
C2896 C 0.9812 0.25208 0.24497 0.0
C2897 C 0.96529 0.25139 0.23132 0.0
C2898 C 0.96536 0.23936 0.23151 0.0
C2899 C 0.97371 0.23374 0.23816 0.0
C2900 C 0.98164 0.24006 0.24476 0.0
C2901 C 0.95616 0.23278 0.22543 0.0
C2902 C 0.94868 0.2258 0.23191 0.0
C2903 C 0.95396 0.23432 0.21358 0.0
C2904 C 0.96186 0.24114 0.20618 0.0
C2905 C 0.97368 0.23876 0.20595 0.0
C2906 C 0.9811 0.24525 0.19902 0.0
C2907 C 0.97678 0.25412 0.19222 0.0
C2908 C 0.96503 0.2565 0.19233 0.0
C2909 C 0.95758 0.25004 0.19925 0.0
H2910 H 0.98254 0.25914 0.18686 0.0
H2911 H 0.90971 0.19754 0.25453 0.0
H2912 H 0.20636 0.68421 0.60889 0.0
H2913 H 0.2137 0.69466 0.59222 0.0
H2914 H 0.20605 0.72671 0.60852 0.0
H2915 H 0.19876 0.7163 0.62532 0.0
H2916 H 0.20036 0.72722 0.58583 0.0
H2917 H 0.23331 0.71667 0.6084 0.0
H2918 H 0.246 0.7034 0.61885 0.0
H2919 H 0.25157 0.68458 0.58791 0.0
H2920 H 0.23878 0.69765 0.5773 0.0
H2921 H 0.23799 0.76515 0.55577 0.0
H2922 H 0.22677 0.75345 0.56917 0.0
H2923 H 0.23686 0.72291 0.55138 0.0
H2924 H 0.24836 0.73465 0.53805 0.0
H2925 H 0.2406 0.72069 0.57381 0.0
H2926 H 0.20872 0.73231 0.55085 0.0
H2927 H 0.19619 0.74581 0.5405 0.0
H2928 H 0.18869 0.76283 0.57207 0.0
H2929 H 0.20131 0.74953 0.58259 0.0
C2930 C 0.20627 0.69349 0.60898 0.0
C2931 C 0.20207 0.69939 0.61855 0.0
C2932 C 0.21045 0.69946 0.5994 0.0
C2933 C 0.2106 0.71149 0.59915 0.0
C2934 C 0.20604 0.71742 0.6085 0.0
C2935 C 0.20185 0.71145 0.6181 0.0
C2936 C 0.21583 0.71786 0.5893 0.0
C2937 C 0.20919 0.72588 0.58326 0.0
C2938 C 0.22727 0.71592 0.58574 0.0
C2939 C 0.23499 0.70807 0.59209 0.0
C2940 C 0.23717 0.70965 0.60385 0.0
C2941 C 0.24439 0.70217 0.6098 0.0
C2942 C 0.24956 0.69313 0.60406 0.0
C2943 C 0.24754 0.69157 0.59235 0.0
C2944 C 0.24031 0.69902 0.58636 0.0
C2945 C 0.23766 0.75595 0.55459 0.0
C2946 C 0.24411 0.75083 0.54587 0.0
C2947 C 0.23118 0.74926 0.56223 0.0
C2948 C 0.23091 0.73726 0.5613 0.0
C2949 C 0.23692 0.73214 0.55228 0.0
C2950 C 0.24341 0.73886 0.5446 0.0
C2951 C 0.22515 0.73011 0.57031 0.0
C2952 C 0.23172 0.72196 0.57625 0.0
C2953 C 0.21366 0.73196 0.57378 0.0
C2954 C 0.20604 0.73997 0.56749 0.0
C2955 C 0.20447 0.73899 0.55557 0.0
C2956 C 0.19734 0.74659 0.54968 0.0
C2957 C 0.19167 0.75519 0.55562 0.0
C2958 C 0.1931 0.75617 0.56747 0.0
C2959 C 0.20023 0.74859 0.57341 0.0
H2960 H 0.18615 0.76107 0.55104 0.0
H2961 H 0.25515 0.68735 0.60867 0.0
H2962 H 0.81158 0.68194 0.61321 0.0
H2963 H 0.80381 0.69156 0.59627 0.0
H2964 H 0.80949 0.72436 0.61232 0.0
H2965 H 0.81693 0.71477 0.62948 0.0
H2966 H 0.78898 0.72379 0.60249 0.0
H2967 H 0.82704 0.71524 0.59092 0.0
H2968 H 0.84405 0.70328 0.58775 0.0
H2969 H 0.82465 0.68223 0.56434 0.0
H2970 H 0.80747 0.69397 0.56749 0.0
H2971 H 0.79128 0.74914 0.54154 0.0
H2972 H 0.80099 0.73761 0.55628 0.0
H2973 H 0.76815 0.72375 0.56703 0.0
H2974 H 0.75847 0.73558 0.55259 0.0
H2975 H 0.80341 0.71595 0.56338 0.0
H2976 H 0.76676 0.72368 0.59577 0.0
H2977 H 0.751 0.73736 0.59849 0.0
H2978 H 0.77027 0.76334 0.58044 0.0
H2979 H 0.78622 0.7499 0.57782 0.0
C2980 C 0.81111 0.6912 0.61319 0.0
C2981 C 0.81487 0.69757 0.62275 0.0
C2982 C 0.80677 0.6967 0.60343 0.0
C2983 C 0.80615 0.70871 0.60295 0.0
C2984 C 0.8099 0.7151 0.61247 0.0
C2985 C 0.81425 0.7096 0.62224 0.0
C2986 C 0.80138 0.71455 0.59261 0.0
C2987 C 0.79215 0.72206 0.59396 0.0
C2988 C 0.80563 0.71251 0.58145 0.0
C2989 C 0.81594 0.70542 0.57952 0.0
C2990 C 0.82637 0.708 0.58516 0.0
C2991 C 0.83605 0.70127 0.58336 0.0
C2992 C 0.83542 0.69199 0.57587 0.0
C2993 C 0.82512 0.68942 0.57015 0.0
C2994 C 0.81541 0.69612 0.57193 0.0
C2995 C 0.78622 0.74332 0.54682 0.0
C2996 C 0.77417 0.74317 0.54597 0.0
C2997 C 0.79175 0.73678 0.55526 0.0
C2998 C 0.78528 0.73001 0.56294 0.0
C2999 C 0.7733 0.72908 0.56136 0.0
C3000 C 0.76778 0.73574 0.55305 0.0
C3001 C 0.79083 0.72491 0.57327 0.0
C3002 C 0.80022 0.71761 0.57193 0.0
C3003 C 0.78695 0.7274 0.58447 0.0
C3004 C 0.77764 0.73573 0.58652 0.0
C3005 C 0.76767 0.73234 0.59247 0.0
C3006 C 0.7587 0.74005 0.59398 0.0
C3007 C 0.75962 0.7512 0.58961 0.0
C3008 C 0.76956 0.75469 0.58381 0.0
C3009 C 0.77857 0.74704 0.58232 0.0
H3010 H 0.75265 0.75713 0.59074 0.0
H3011 H 0.84292 0.68679 0.57448 0.0
H3012 H 0.80108 0.31837 0.62848 0.0
H3013 H 0.79452 0.3081 0.61143 0.0
H3014 H 0.82747 0.31418 0.59553 0.0
H3015 H 0.83399 0.3248 0.61247 0.0
H3016 H 0.81067 0.31784 0.58041 0.0
H3017 H 0.82016 0.2879 0.60658 0.0
H3018 H 0.81992 0.27697 0.62473 0.0
H3019 H 0.78354 0.27114 0.62109 0.0
H3020 H 0.78352 0.28219 0.60301 0.0
H3021 H 0.79004 0.26023 0.55011 0.0
H3022 H 0.80098 0.27086 0.56468 0.0
H3023 H 0.78143 0.30114 0.55687 0.0
H3024 H 0.77085 0.29057 0.54197 0.0
H3025 H 0.79364 0.27875 0.58338 0.0
H3026 H 0.79521 0.32526 0.56556 0.0
H3027 H 0.79708 0.33528 0.54698 0.0
H3028 H 0.81457 0.30637 0.53306 0.0
H3029 H 0.81294 0.29624 0.5516 0.0
C3030 C 0.80693 0.3176 0.62134 0.0
C3031 C 0.81809 0.32245 0.62189 0.0
C3032 C 0.80319 0.31162 0.61161 0.0
C3033 C 0.81052 0.31025 0.60219 0.0
C3034 C 0.82165 0.31509 0.60268 0.0
C3035 C 0.82541 0.32107 0.61243 0.0
C3036 C 0.8065 0.30384 0.59183 0.0
C3037 C 0.80697 0.30928 0.58105 0.0
C3038 C 0.80186 0.29258 0.59257 0.0
C3039 C 0.80182 0.28599 0.6035 0.0
C3040 C 0.81209 0.28439 0.60971 0.0
C3041 C 0.812 0.27815 0.61997 0.0
C3042 C 0.80172 0.27339 0.62408 0.0
C3043 C 0.7915 0.27485 0.61791 0.0
C3044 C 0.79153 0.28109 0.60765 0.0
C3045 C 0.78841 0.26927 0.55125 0.0
C3046 C 0.77979 0.27467 0.54479 0.0
C3047 C 0.79456 0.27532 0.55966 0.0
C3048 C 0.79211 0.28686 0.56193 0.0
C3049 C 0.78371 0.29235 0.55518 0.0
C3050 C 0.77767 0.28632 0.54664 0.0
C3051 C 0.79763 0.29279 0.57192 0.0
C3052 C 0.7974 0.28728 0.58267 0.0
C3053 C 0.8027 0.30389 0.5711 0.0
C3054 C 0.80386 0.30996 0.55995 0.0
C3055 C 0.79951 0.32107 0.55855 0.0
C3056 C 0.80051 0.32676 0.54802 0.0
C3057 C 0.80591 0.32145 0.53883 0.0
C3058 C 0.81036 0.31046 0.54017 0.0
C3059 C 0.80938 0.30473 0.55069 0.0
H3060 H 0.80668 0.32587 0.53069 0.0
H3061 H 0.80167 0.26856 0.63202 0.0
H3062 H 0.19203 0.32476 0.6126 0.0
H3063 H 0.19995 0.31552 0.59564 0.0
H3064 H 0.23433 0.32144 0.6086 0.0
H3065 H 0.22649 0.33062 0.62555 0.0
H3066 H 0.23327 0.3269 0.58645 0.0
H3067 H 0.22105 0.29474 0.60971 0.0
H3068 H 0.2072 0.28297 0.62076 0.0
H3069 H 0.18601 0.27891 0.59076 0.0
H3070 H 0.19967 0.29078 0.57956 0.0
H3071 H 0.26679 0.28695 0.55639 0.0
H3072 H 0.25634 0.29881 0.56989 0.0
H3073 H 0.22451 0.29071 0.55236 0.0
H3074 H 0.235 0.27863 0.53887 0.0
H3075 H 0.22251 0.28727 0.57513 0.0
H3076 H 0.23597 0.31788 0.55139 0.0
H3077 H 0.25012 0.32937 0.54043 0.0
H3078 H 0.26918 0.33622 0.57132 0.0
H3079 H 0.25524 0.32464 0.58245 0.0
C3080 C 0.20127 0.32399 0.61191 0.0
C3081 C 0.20861 0.32848 0.62046 0.0
C3082 C 0.2058 0.31872 0.60217 0.0
C3083 C 0.21776 0.31772 0.60082 0.0
C3084 C 0.22508 0.32216 0.60937 0.0
C3085 C 0.22057 0.32744 0.61907 0.0
C3086 C 0.22274 0.31212 0.59052 0.0
C3087 C 0.23098 0.3182 0.58403 0.0
C3088 C 0.21952 0.30089 0.58711 0.0
C3089 C 0.21131 0.29376 0.59383 0.0
C3090 C 0.21339 0.29142 0.6055 0.0
C3091 C 0.20558 0.28471 0.61178 0.0
C3092 C 0.19572 0.28023 0.60648 0.0
C3093 C 0.19365 0.28241 0.59486 0.0
C3094 C 0.20142 0.28912 0.58854 0.0
C3095 C 0.25759 0.28787 0.55528 0.0
C3096 C 0.25172 0.28185 0.54657 0.0
C3097 C 0.25161 0.29469 0.56298 0.0
C3098 C 0.23961 0.29571 0.56216 0.0
C3099 C 0.23376 0.29007 0.55318 0.0
C3100 C 0.23977 0.28327 0.5454 0.0
C3101 C 0.23319 0.30197 0.57117 0.0
C3102 C 0.22469 0.29602 0.57744 0.0
C3103 C 0.23619 0.31332 0.5744 0.0
C3104 C 0.24459 0.32032 0.56774 0.0
C3105 C 0.24322 0.32177 0.55584 0.0
C3106 C 0.2512 0.32831 0.5496 0.0
C3107 C 0.26055 0.3335 0.55517 0.0
C3108 C 0.26194 0.33219 0.56701 0.0
C3109 C 0.25399 0.32565 0.57329 0.0
H3110 H 0.26672 0.33857 0.55033 0.0
H3111 H 0.18969 0.27503 0.61136 0.0
H3112 H 0.20007 0.30772 0.40298 0.0
H3113 H 0.20646 0.29719 0.42 0.0
H3114 H 0.21593 0.32904 0.43632 0.0
H3115 H 0.2095 0.33963 0.41938 0.0
H3116 H 0.23273 0.31367 0.43855 0.0
H3117 H 0.19184 0.3137 0.44448 0.0
H3118 H 0.1715 0.31036 0.43922 0.0
H3119 H 0.17783 0.27443 0.43531 0.0
H3120 H 0.19826 0.27758 0.44039 0.0
H3121 H 0.24606 0.28926 0.49219 0.0
H3122 H 0.23525 0.30074 0.47825 0.0
H3123 H 0.22571 0.27002 0.45994 0.0
H3124 H 0.23628 0.25852 0.47395 0.0
H3125 H 0.20832 0.28541 0.45949 0.0
H3126 H 0.2489 0.28513 0.45187 0.0
H3127 H 0.26946 0.28783 0.45659 0.0
H3128 H 0.26393 0.32355 0.46287 0.0
H3129 H 0.24328 0.32102 0.45837 0.0
C3130 C 0.20336 0.3125 0.41025 0.0
C3131 C 0.20427 0.32454 0.40978 0.0
C3132 C 0.20702 0.30646 0.41998 0.0
C3133 C 0.21159 0.31232 0.4295 0.0
C3134 C 0.21246 0.32432 0.42908 0.0
C3135 C 0.20882 0.33037 0.41936 0.0
C3136 C 0.21584 0.30593 0.43974 0.0
C3137 C 0.22731 0.30765 0.44324 0.0
C3138 C 0.2089 0.29782 0.44571 0.0
C3139 C 0.1966 0.2959 0.44272 0.0
C3140 C 0.18892 0.3051 0.44242 0.0
C3141 C 0.17737 0.30324 0.43948 0.0
C3142 C 0.17338 0.29219 0.43691 0.0
C3143 C 0.18093 0.28298 0.4373 0.0
C3144 C 0.19249 0.2848 0.44021 0.0
C3145 C 0.24134 0.28493 0.48541 0.0
C3146 C 0.2421 0.27301 0.4841 0.0
C3147 C 0.23527 0.29151 0.47738 0.0
C3148 C 0.22986 0.28626 0.46792 0.0
C3149 C 0.22985 0.27427 0.46713 0.0
C3150 C 0.23593 0.26771 0.47512 0.0
C3151 C 0.22515 0.29323 0.4583 0.0
C3152 C 0.21366 0.29155 0.45487 0.0
C3153 C 0.2321 0.30131 0.45231 0.0
C3154 C 0.24452 0.30286 0.45491 0.0
C3155 C 0.25205 0.29354 0.45434 0.0
C3156 C 0.26372 0.29504 0.45697 0.0
C3157 C 0.26799 0.30585 0.46005 0.0
C3158 C 0.26061 0.31518 0.4605 0.0
C3159 C 0.24892 0.31372 0.45791 0.0
H3160 H 0.27703 0.30699 0.46208 0.0
H3161 H 0.16444 0.29077 0.43464 0.0
H3162 H 0.21718 0.69817 0.40375 0.0
H3163 H 0.22752 0.70515 0.4207 0.0
H3164 H 0.19558 0.71656 0.43508 0.0
H3165 H 0.18519 0.70953 0.41822 0.0
H3166 H 0.21166 0.73284 0.43702 0.0
H3167 H 0.20943 0.69271 0.44558 0.0
H3168 H 0.21178 0.67208 0.44195 0.0
H3169 H 0.24829 0.6771 0.43878 0.0
H3170 H 0.24614 0.6978 0.44223 0.0
H3171 H 0.23561 0.74816 0.49074 0.0
H3172 H 0.22385 0.73727 0.47694 0.0
H3173 H 0.25464 0.72629 0.45997 0.0
H3174 H 0.26638 0.73703 0.4738 0.0
H3175 H 0.23836 0.70922 0.46023 0.0
H3176 H 0.24051 0.74926 0.45023 0.0
H3177 H 0.23843 0.76996 0.45361 0.0
H3178 H 0.2022 0.76509 0.45917 0.0
H3179 H 0.2041 0.74431 0.456 0.0
C3180 C 0.21232 0.702 0.41058 0.0
C3181 C 0.20033 0.70329 0.40956 0.0
C3182 C 0.21826 0.70602 0.42029 0.0
C3183 C 0.21234 0.71133 0.42926 0.0
C3184 C 0.20037 0.71254 0.42829 0.0
C3185 C 0.19444 0.70854 0.4186 0.0
C3186 C 0.21865 0.71599 0.43944 0.0
C3187 C 0.21733 0.7276 0.4422 0.0
C3188 C 0.22628 0.70927 0.4461 0.0
C3189 C 0.22761 0.69682 0.44406 0.0
C3190 C 0.21795 0.68943 0.44402 0.0
C3191 C 0.21924 0.67772 0.44201 0.0
C3192 C 0.23017 0.67329 0.44011 0.0
C3193 C 0.23983 0.68055 0.44024 0.0
C3194 C 0.23858 0.69227 0.44224 0.0
C3195 C 0.23986 0.74316 0.48427 0.0
C3196 C 0.25191 0.74351 0.48331 0.0
C3197 C 0.23314 0.73702 0.47632 0.0
C3198 C 0.23835 0.73111 0.46728 0.0
C3199 C 0.2504 0.7308 0.46682 0.0
C3200 C 0.25711 0.73697 0.47471 0.0
C3201 C 0.23133 0.72604 0.45778 0.0
C3202 C 0.23257 0.7144 0.45511 0.0
C3203 C 0.22364 0.73273 0.45117 0.0
C3204 C 0.22247 0.74522 0.45301 0.0
C3205 C 0.23212 0.75259 0.45227 0.0
C3206 C 0.23097 0.76434 0.45413 0.0
C3207 C 0.2202 0.76884 0.45664 0.0
C3208 C 0.21054 0.76159 0.45725 0.0
C3209 C 0.21165 0.74983 0.45542 0.0
H3210 H 0.21933 0.77794 0.45807 0.0
H3211 H 0.23116 0.66422 0.43855 0.0
H3212 H 0.81726 0.69315 0.41322 0.0
H3213 H 0.8076 0.70116 0.4299 0.0
H3214 H 0.82413 0.73387 0.42354 0.0
H3215 H 0.83374 0.72597 0.40687 0.0
H3216 H 0.82515 0.72893 0.4457 0.0
H3217 H 0.79562 0.72893 0.41688 0.0
H3218 H 0.78285 0.72067 0.40205 0.0
H3219 H 0.76823 0.6975 0.42688 0.0
H3220 H 0.78103 0.70552 0.44184 0.0
H3221 H 0.78761 0.76665 0.47525 0.0
H3222 H 0.79886 0.75602 0.46125 0.0
H3223 H 0.78497 0.72419 0.4745 0.0
H3224 H 0.77384 0.73485 0.48872 0.0
H3225 H 0.78273 0.72724 0.45004 0.0
H3226 H 0.81169 0.72892 0.47925 0.0
H3227 H 0.82415 0.73821 0.49373 0.0
H3228 H 0.83952 0.75938 0.4676 0.0
H3229 H 0.82702 0.75034 0.45298 0.0
C3230 C 0.81876 0.70208 0.4153 0.0
C3231 C 0.82632 0.70889 0.40867 0.0
C3232 C 0.81324 0.70665 0.42487 0.0
C3233 C 0.81507 0.71816 0.42798 0.0
C3234 C 0.82261 0.72496 0.42139 0.0
C3235 C 0.82814 0.7204 0.41185 0.0
C3236 C 0.80917 0.72317 0.4381 0.0
C3237 C 0.81586 0.72863 0.44658 0.0
C3238 C 0.79706 0.7226 0.43943 0.0
C3239 C 0.78939 0.71772 0.43045 0.0
C3240 C 0.78976 0.722 0.41916 0.0
C3241 C 0.7825 0.71738 0.41073 0.0
C3242 C 0.77476 0.70854 0.41351 0.0
C3243 C 0.77425 0.70433 0.42473 0.0
C3244 C 0.7815 0.70891 0.43319 0.0
C3245 C 0.78719 0.75737 0.47535 0.0
C3246 C 0.77996 0.75155 0.48313 0.0
C3247 C 0.79358 0.75131 0.46734 0.0
C3248 C 0.79275 0.73931 0.46682 0.0
C3249 C 0.78574 0.73345 0.47476 0.0
C3250 C 0.77949 0.73952 0.48294 0.0
C3251 C 0.79871 0.73304 0.45755 0.0
C3252 C 0.79202 0.72739 0.44921 0.0
C3253 C 0.8108 0.73355 0.45628 0.0
C3254 C 0.81834 0.73902 0.46504 0.0
C3255 C 0.81765 0.73564 0.47661 0.0
C3256 C 0.82474 0.74084 0.48483 0.0
C3257 C 0.8326 0.7494 0.48159 0.0
C3258 C 0.83341 0.75276 0.4701 0.0
C3259 C 0.82633 0.74759 0.46184 0.0
H3260 H 0.83809 0.75342 0.48797 0.0
H3261 H 0.76914 0.70498 0.40697 0.0
H3262 H 0.80556 0.31607 0.39768 0.0
H3263 H 0.7977 0.30706 0.41495 0.0
H3264 H 0.82139 0.32677 0.43579 0.0
H3265 H 0.82935 0.33579 0.41851 0.0
H3266 H 0.82016 0.30558 0.44366 0.0
H3267 H 0.79262 0.33392 0.43349 0.0
H3268 H 0.77929 0.34425 0.42071 0.0
H3269 H 0.75925 0.31344 0.416 0.0
H3270 H 0.77256 0.30287 0.42863 0.0
H3271 H 0.7694 0.29277 0.48724 0.0
H3272 H 0.77958 0.30551 0.47365 0.0
H3273 H 0.79703 0.27639 0.45968 0.0
H3274 H 0.78697 0.26376 0.47318 0.0
H3275 H 0.77806 0.30515 0.45046 0.0
H3276 H 0.82328 0.28435 0.44986 0.0
H3277 H 0.83672 0.27517 0.4634 0.0
H3278 H 0.82158 0.29327 0.49135 0.0
H3279 H 0.80817 0.30269 0.47797 0.0
C3280 C 0.80907 0.31855 0.40594 0.0
C3281 C 0.81806 0.32672 0.40668 0.0
C3282 C 0.80455 0.31339 0.41583 0.0
C3283 C 0.8088 0.31636 0.42674 0.0
C3284 C 0.81794 0.32433 0.4275 0.0
C3285 C 0.82251 0.32946 0.41759 0.0
C3286 C 0.80371 0.31111 0.4373 0.0
C3287 C 0.81096 0.30552 0.44515 0.0
C3288 C 0.79172 0.31124 0.43946 0.0
C3289 C 0.78364 0.31759 0.43194 0.0
C3290 C 0.78541 0.32933 0.42967 0.0
C3291 C 0.77785 0.33523 0.42246 0.0
C3292 C 0.76844 0.3295 0.41753 0.0
C3293 C 0.76655 0.31786 0.41982 0.0
C3294 C 0.77409 0.31192 0.42702 0.0
C3295 C 0.77562 0.28917 0.48143 0.0
C3296 C 0.77742 0.27729 0.48126 0.0
C3297 C 0.78136 0.29642 0.47362 0.0
C3298 C 0.78912 0.29193 0.46565 0.0
C3299 C 0.79122 0.28011 0.46581 0.0
C3300 C 0.78543 0.27289 0.47351 0.0
C3301 C 0.79448 0.29933 0.45661 0.0
C3302 C 0.78727 0.3053 0.44903 0.0
C3303 C 0.80652 0.2997 0.4548 0.0
C3304 C 0.81465 0.29416 0.4629 0.0
C3305 C 0.82285 0.28642 0.45889 0.0
C3306 C 0.83046 0.28116 0.46654 0.0
C3307 C 0.82998 0.28361 0.47823 0.0
C3308 C 0.82191 0.29135 0.4823 0.0
C3309 C 0.8143 0.29663 0.47468 0.0
H3310 H 0.83587 0.27953 0.48415 0.0
H3311 H 0.7626 0.33408 0.41195 0.0
H3312 H 0.12638 0.71973 0.70999 0.0
H3313 H 0.10942 0.72658 0.71998 0.0
H3314 H 0.09026 0.69659 0.7092 0.0
H3315 H 0.10714 0.68983 0.69887 0.0
H3316 H 0.07753 0.7153 0.70643 0.0
H3317 H 0.09969 0.69925 0.7369 0.0
H3318 H 0.11697 0.69609 0.7488 0.0
H3319 H 0.11775 0.73165 0.75806 0.0
H3320 H 0.10057 0.73506 0.74608 0.0
H3321 H 0.044 0.73362 0.76239 0.0
H3322 H 0.05787 0.72161 0.75229 0.0
H3323 H 0.05862 0.74598 0.72433 0.0
H3324 H 0.04471 0.75784 0.73439 0.0
H3325 H 0.07933 0.72709 0.74719 0.0
H3326 H 0.06574 0.733 0.6995 0.0
H3327 H 0.04794 0.73481 0.68806 0.0
H3328 H 0.02892 0.71682 0.71415 0.0
H3329 H 0.04662 0.71477 0.72567 0.0
C3330 C 0.11855 0.71459 0.70968 0.0
C3331 C 0.11816 0.70421 0.70359 0.0
C3332 C 0.10887 0.71848 0.71551 0.0
C3333 C 0.09855 0.71207 0.71546 0.0
C3334 C 0.09811 0.70169 0.7094 0.0
C3335 C 0.10782 0.69778 0.70358 0.0
C3336 C 0.0882 0.71634 0.72156 0.0
C3337 C 0.07792 0.71784 0.71536 0.0
C3338 C 0.08857 0.71945 0.73327 0.0
C3339 C 0.09889 0.71742 0.74052 0.0
C3340 C 0.10359 0.70641 0.74141 0.0
C3341 C 0.11336 0.70457 0.74818 0.0
C3342 C 0.11847 0.71366 0.75416 0.0
C3343 C 0.11379 0.72461 0.75341 0.0
C3344 C 0.10403 0.7265 0.74664 0.0
C3345 C 0.04687 0.73616 0.75392 0.0
C3346 C 0.04314 0.74649 0.74902 0.0
C3347 C 0.05487 0.72939 0.7482 0.0
C3348 C 0.05927 0.73283 0.73749 0.0
C3349 C 0.05523 0.743 0.73246 0.0
C3350 C 0.04726 0.74977 0.73818 0.0
C3351 C 0.06875 0.72635 0.73199 0.0
C3352 C 0.07889 0.72446 0.73829 0.0
C3353 C 0.06819 0.72273 0.72042 0.0
C3354 C 0.05751 0.72382 0.71349 0.0
C3355 C 0.05777 0.72939 0.70278 0.0
C3356 C 0.04769 0.73046 0.69628 0.0
C3357 C 0.0373 0.72596 0.70039 0.0
C3358 C 0.03696 0.72034 0.711 0.0
C3359 C 0.04702 0.71924 0.71752 0.0
H3360 H 0.02951 0.72681 0.69535 0.0
H3361 H 0.12603 0.71222 0.7594 0.0
H3362 H 0.83894 0.61798 0.7264 0.0
H3363 H 0.82934 0.60084 0.73402 0.0
H3364 H 0.8039 0.60269 0.70707 0.0
H3365 H 0.81358 0.6197 0.69921 0.0
H3366 H 0.79422 0.59884 0.72831 0.0
H3367 H 0.82478 0.58319 0.70576 0.0
H3368 H 0.84493 0.58101 0.69973 0.0
H3369 H 0.85419 0.57 0.73368 0.0
H3370 H 0.83412 0.57227 0.73997 0.0
H3371 H 0.76708 0.54583 0.73611 0.0
H3372 H 0.77903 0.56058 0.7268 0.0
H3373 H 0.80426 0.55757 0.75388 0.0
H3374 H 0.79233 0.54261 0.7631 0.0
H3375 H 0.81442 0.56186 0.73285 0.0
H3376 H 0.78453 0.57743 0.7557 0.0
H3377 H 0.76454 0.57937 0.7623 0.0
H3378 H 0.75433 0.59091 0.7288 0.0
H3379 H 0.77422 0.5888 0.72192 0.0
C3380 C 0.83139 0.61468 0.72198 0.0
C3381 C 0.8271 0.62024 0.71212 0.0
C3382 C 0.82589 0.60489 0.72639 0.0
C3383 C 0.81596 0.60041 0.72106 0.0
C3384 C 0.81154 0.606 0.71133 0.0
C3385 C 0.81707 0.61577 0.70688 0.0
C3386 C 0.81011 0.58997 0.7257 0.0
C3387 C 0.79859 0.59072 0.72914 0.0
C3388 C 0.81591 0.57945 0.72714 0.0
C3389 C 0.82797 0.57801 0.72336 0.0
C3390 C 0.83113 0.58039 0.71196 0.0
C3391 C 0.84253 0.57912 0.7085 0.0
C3392 C 0.85084 0.5754 0.71632 0.0
C3393 C 0.84775 0.5729 0.72763 0.0
C3394 C 0.83636 0.57416 0.73115 0.0
C3395 C 0.77537 0.54807 0.73984 0.0
C3396 C 0.77889 0.54307 0.75022 0.0
C3397 C 0.78214 0.55654 0.73459 0.0
C3398 C 0.79244 0.56033 0.73975 0.0
C3399 C 0.79634 0.55479 0.74975 0.0
C3400 C 0.78957 0.54624 0.75499 0.0
C3401 C 0.79851 0.57072 0.73529 0.0
C3402 C 0.81005 0.56998 0.73197 0.0
C3403 C 0.79278 0.5813 0.73408 0.0
C3404 C 0.78086 0.58286 0.73826 0.0
C3405 C 0.77801 0.58031 0.74971 0.0
C3406 C 0.7667 0.58144 0.75351 0.0
C3407 C 0.75817 0.58524 0.74597 0.0
C3408 C 0.76095 0.58796 0.73462 0.0
C3409 C 0.77224 0.5868 0.73077 0.0
H3410 H 0.74941 0.58611 0.74892 0.0
H3411 H 0.85966 0.57442 0.71362 0.0
H3412 H 0.90824 0.33188 0.71283 0.0
H3413 H 0.92556 0.32412 0.72186 0.0
H3414 H 0.92068 0.2926 0.70326 0.0
H3415 H 0.90349 0.30031 0.69412 0.0
H3416 H 0.92554 0.28837 0.72544 0.0
H3417 H 0.94143 0.31247 0.69556 0.0
H3418 H 0.94426 0.3306 0.68492 0.0
H3419 H 0.95757 0.34668 0.71533 0.0
H3420 H 0.95467 0.32867 0.72619 0.0
H3421 H 0.97775 0.26188 0.73754 0.0
H3422 H 0.96307 0.2717 0.72609 0.0
H3423 H 0.96897 0.30252 0.74561 0.0
H3424 H 0.9838 0.29271 0.75693 0.0
H3425 H 0.9638 0.30763 0.72325 0.0
H3426 H 0.94809 0.28431 0.75323 0.0
H3427 H 0.94537 0.26655 0.76449 0.0
H3428 H 0.93133 0.24961 0.73487 0.0
H3429 H 0.9342 0.26721 0.72336 0.0
C3430 C 0.91091 0.32334 0.71056 0.0
C3431 C 0.90439 0.31673 0.70274 0.0
C3432 C 0.92082 0.3189 0.71575 0.0
C3433 C 0.92451 0.30778 0.7132 0.0
C3434 C 0.91802 0.30117 0.70542 0.0
C3435 C 0.90813 0.3056 0.70023 0.0
C3436 C 0.93499 0.3029 0.71873 0.0
C3437 C 0.93393 0.29252 0.72481 0.0
C3438 C 0.94591 0.30846 0.71826 0.0
C3439 C 0.94773 0.31926 0.71171 0.0
C3440 C 0.94488 0.31989 0.7 0.0
C3441 C 0.94651 0.33014 0.69392 0.0
C3442 C 0.95106 0.33979 0.69945 0.0
C3443 C 0.95403 0.3392 0.71106 0.0
C3444 C 0.9524 0.32897 0.71718 0.0
C3445 C 0.97619 0.27087 0.73906 0.0
C3446 C 0.98199 0.27661 0.74797 0.0
C3447 C 0.96773 0.27645 0.73262 0.0
C3448 C 0.96475 0.28781 0.73512 0.0
C3449 C 0.9711 0.29378 0.74352 0.0
C3450 C 0.97961 0.2882 0.74994 0.0
C3451 C 0.95435 0.29302 0.72976 0.0
C3452 C 0.95542 0.30348 0.72382 0.0
C3453 C 0.94339 0.2876 0.73045 0.0
C3454 C 0.94147 0.27705 0.7374 0.0
C3455 C 0.9445 0.27677 0.74909 0.0
C3456 C 0.94293 0.26673 0.75552 0.0
C3457 C 0.9382 0.25695 0.75039 0.0
C3458 C 0.93501 0.25719 0.73883 0.0
C3459 C 0.93661 0.2672 0.73234 0.0
H3460 H 0.93698 0.24918 0.75539 0.0
H3461 H 0.95232 0.34772 0.69473 0.0
H3462 H 0.2152 0.40125 0.70289 0.0
H3463 H 0.22534 0.41803 0.71058 0.0
H3464 H 0.19315 0.43172 0.72208 0.0
H3465 H 0.18289 0.41517 0.71404 0.0
H3466 H 0.20647 0.44854 0.71346 0.0
H3467 H 0.21136 0.41798 0.74061 0.0
H3468 H 0.21671 0.39868 0.74729 0.0
H3469 H 0.25164 0.40497 0.73695 0.0
H3470 H 0.24645 0.42425 0.73004 0.0
H3471 H 0.23173 0.48751 0.75504 0.0
H3472 H 0.22033 0.47322 0.74429 0.0
H3473 H 0.25164 0.45805 0.73222 0.0
H3474 H 0.26294 0.47214 0.74299 0.0
H3475 H 0.23815 0.44221 0.74132 0.0
H3476 H 0.2332 0.47296 0.71423 0.0
H3477 H 0.22776 0.49235 0.7079 0.0
H3478 H 0.19296 0.48589 0.71855 0.0
H3479 H 0.19823 0.4665 0.7251 0.0
C3480 C 0.21023 0.4079 0.7069 0.0
C3481 C 0.19821 0.40677 0.70791 0.0
C3482 C 0.21607 0.41746 0.7114 0.0
C3483 C 0.21004 0.42609 0.71709 0.0
C3484 C 0.19801 0.42517 0.7178 0.0
C3485 C 0.19217 0.41562 0.71328 0.0
C3486 C 0.2163 0.43588 0.7226 0.0
C3487 C 0.21332 0.44716 0.71964 0.0
C3488 C 0.22535 0.43412 0.73057 0.0
C3489 C 0.22848 0.42252 0.73469 0.0
C3490 C 0.22016 0.41521 0.73967 0.0
C3491 C 0.22317 0.40428 0.74351 0.0
C3492 C 0.2345 0.40059 0.74251 0.0
C3493 C 0.24286 0.40783 0.73769 0.0
C3494 C 0.23989 0.41877 0.73382 0.0
C3495 C 0.23613 0.48129 0.74984 0.0
C3496 C 0.24821 0.4809 0.74987 0.0
C3497 C 0.22963 0.47311 0.74372 0.0
C3498 C 0.23512 0.46449 0.73746 0.0
C3499 C 0.24718 0.46452 0.73704 0.0
C3500 C 0.25364 0.47262 0.74316 0.0
C3501 C 0.22847 0.45489 0.73205 0.0
C3502 C 0.23134 0.44362 0.73509 0.0
C3503 C 0.21932 0.45668 0.7242 0.0
C3504 C 0.21614 0.46832 0.72027 0.0
C3505 C 0.22441 0.47571 0.71532 0.0
C3506 C 0.22135 0.48669 0.71167 0.0
C3507 C 0.21003 0.49036 0.71285 0.0
C3508 C 0.20173 0.48304 0.71766 0.0
C3509 C 0.20475 0.47205 0.72133 0.0
H3510 H 0.20768 0.49887 0.71002 0.0
H3511 H 0.23681 0.39213 0.7455 0.0
H3512 H 0.1254 0.32182 0.31255 0.0
H3513 H 0.10838 0.31546 0.30181 0.0
H3514 H 0.08964 0.31136 0.3334 0.0
H3515 H 0.10662 0.31774 0.3442 0.0
H3516 H 0.08672 0.29305 0.3202 0.0
H3517 H 0.0841 0.33361 0.31472 0.0
H3518 H 0.09105 0.35297 0.30943 0.0
H3519 H 0.09682 0.34184 0.27494 0.0
H3520 H 0.09005 0.32236 0.28007 0.0
H3521 H 0.03442 0.27926 0.29215 0.0
H3522 H 0.04791 0.29078 0.30372 0.0
H3523 H 0.06999 0.29507 0.27437 0.0
H3524 H 0.05648 0.28376 0.26278 0.0
H3525 H 0.06994 0.31438 0.28736 0.0
H3526 H 0.07466 0.27378 0.29312 0.0
H3527 H 0.06816 0.25417 0.29804 0.0
H3528 H 0.05899 0.26527 0.33177 0.0
H3529 H 0.06527 0.28501 0.32697 0.0
C3530 C 0.11761 0.31973 0.31721 0.0
C3531 C 0.1174 0.32028 0.32925 0.0
C3532 C 0.10787 0.31609 0.31105 0.0
C3533 C 0.09767 0.31303 0.31678 0.0
C3534 C 0.09741 0.31366 0.32879 0.0
C3535 C 0.10714 0.31727 0.33495 0.0
C3536 C 0.08746 0.30868 0.31029 0.0
C3537 C 0.08291 0.29783 0.31317 0.0
C3538 C 0.08263 0.31477 0.30093 0.0
C3539 C 0.08665 0.3265 0.29781 0.0
C3540 C 0.08693 0.33527 0.30603 0.0
C3541 C 0.09082 0.34627 0.30305 0.0
C3542 C 0.0944 0.34863 0.29186 0.0
C3543 C 0.09405 0.34 0.28361 0.0
C3544 C 0.09017 0.32898 0.28654 0.0
C3545 C 0.04199 0.28295 0.28811 0.0
C3546 C 0.04447 0.28052 0.27661 0.0
C3547 C 0.04973 0.28945 0.29473 0.0
C3548 C 0.06007 0.29361 0.28996 0.0
C3549 C 0.06211 0.29191 0.27826 0.0
C3550 C 0.05441 0.2854 0.27166 0.0
C3551 C 0.06925 0.29879 0.29729 0.0
C3552 C 0.07364 0.30972 0.29452 0.0
C3553 C 0.074 0.29276 0.30672 0.0
C3554 C 0.0703 0.28089 0.30965 0.0
C3555 C 0.07117 0.27206 0.30156 0.0
C3556 C 0.06754 0.26092 0.30433 0.0
C3557 C 0.06314 0.25848 0.3152 0.0
C3558 C 0.06238 0.26718 0.32334 0.0
C3559 C 0.06598 0.27834 0.3206 0.0
H3560 H 0.06033 0.24985 0.31733 0.0
H3561 H 0.09741 0.35715 0.28958 0.0
H3562 H 0.19192 0.61057 0.32442 0.0
H3563 H 0.19976 0.59395 0.31453 0.0
H3564 H 0.23419 0.6069 0.32045 0.0
H3565 H 0.22644 0.62365 0.32999 0.0
H3566 H 0.2322 0.59903 0.29921 0.0
H3567 H 0.22218 0.58493 0.33688 0.0
H3568 H 0.20911 0.58109 0.35307 0.0
H3569 H 0.18733 0.56052 0.33132 0.0
H3570 H 0.2002 0.56437 0.31496 0.0
H3571 H 0.26579 0.55167 0.28813 0.0
H3572 H 0.25588 0.56608 0.2994 0.0
H3573 H 0.22317 0.55076 0.29018 0.0
H3574 H 0.23317 0.53612 0.27902 0.0
H3575 H 0.22299 0.55942 0.31224 0.0
H3576 H 0.23349 0.57261 0.27482 0.0
H3577 H 0.2468 0.57599 0.25874 0.0
H3578 H 0.26748 0.59832 0.27977 0.0
H3579 H 0.25444 0.59488 0.29607 0.0
C3580 C 0.20116 0.60995 0.32351 0.0
C3581 C 0.20854 0.61845 0.32811 0.0
C3582 C 0.20564 0.60037 0.31795 0.0
C3583 C 0.2176 0.59905 0.31687 0.0
C3584 C 0.22495 0.60765 0.32121 0.0
C3585 C 0.22049 0.6172 0.32676 0.0
C3586 C 0.22254 0.58875 0.31126 0.0
C3587 C 0.23026 0.59039 0.30215 0.0
C3588 C 0.2198 0.57741 0.31484 0.0
C3589 C 0.21209 0.57504 0.32467 0.0
C3590 C 0.21456 0.57966 0.33553 0.0
C3591 C 0.20719 0.57747 0.34474 0.0
C3592 C 0.19737 0.57059 0.34322 0.0
C3593 C 0.19492 0.56586 0.33249 0.0
C3594 C 0.20226 0.56804 0.32325 0.0
C3595 C 0.2565 0.55117 0.28881 0.0
C3596 C 0.25023 0.54279 0.28272 0.0
C3597 C 0.25084 0.55946 0.29517 0.0
C3598 C 0.23876 0.55969 0.29542 0.0
C3599 C 0.23249 0.5508 0.29007 0.0
C3600 C 0.23819 0.54241 0.28375 0.0
C3601 C 0.2328 0.56975 0.30038 0.0
C3602 C 0.22487 0.56807 0.30929 0.0
C3603 C 0.23531 0.58108 0.2966 0.0
C3604 C 0.24303 0.58341 0.28671 0.0
C3605 C 0.24091 0.57819 0.27605 0.0
C3606 C 0.24841 0.58011 0.26689 0.0
C3607 C 0.25799 0.58735 0.26823 0.0
C3608 C 0.26007 0.59271 0.27874 0.0
C3609 C 0.25262 0.59077 0.28795 0.0
H3610 H 0.26379 0.58882 0.26113 0.0
H3611 H 0.19168 0.5689 0.35036 0.0
H3612 H 0.91335 0.69896 0.33593 0.0
H3613 H 0.93063 0.70827 0.32808 0.0
H3614 H 0.91513 0.70818 0.2944 0.0
H3615 H 0.89787 0.69896 0.30217 0.0
H3616 H 0.93677 0.70105 0.29334 0.0
H3617 H 0.91734 0.73276 0.31072 0.0
H3618 H 0.90827 0.7432 0.32653 0.0
H3619 H 0.93988 0.74228 0.34573 0.0
H3620 H 0.9491 0.73169 0.33008 0.0
H3621 H 0.9684 0.74256 0.26233 0.0
H3622 H 0.9543 0.73083 0.27262 0.0
H3623 H 0.97481 0.7335 0.30344 0.0
H3624 H 0.98893 0.74555 0.29313 0.0
H3625 H 0.95246 0.73806 0.30763 0.0
H3626 H 0.97243 0.70802 0.28916 0.0
H3627 H 0.98141 0.69792 0.27309 0.0
H3628 H 0.94877 0.6958 0.25576 0.0
H3629 H 0.93962 0.70604 0.27166 0.0
C3630 C 0.91356 0.70105 0.32687 0.0
C3631 C 0.9042 0.69816 0.31969 0.0
C3632 C 0.92347 0.70635 0.32238 0.0
C3633 C 0.92421 0.70898 0.31063 0.0
C3634 C 0.91484 0.70618 0.30348 0.0
C3635 C 0.90496 0.70087 0.30794 0.0
C3636 C 0.93473 0.71451 0.30567 0.0
C3637 C 0.94014 0.70919 0.29641 0.0
C3638 C 0.93939 0.72496 0.30989 0.0
C3639 C 0.93386 0.73131 0.3193 0.0
C3640 C 0.92233 0.73469 0.31836 0.0
C3641 C 0.91717 0.74066 0.32728 0.0
C3642 C 0.92348 0.74337 0.33715 0.0
C3643 C 0.93499 0.74015 0.33809 0.0
C3644 C 0.94019 0.73417 0.3292 0.0
C3645 C 0.97 0.74054 0.27127 0.0
C3646 C 0.97978 0.74501 0.27693 0.0
C3647 C 0.96194 0.73377 0.27714 0.0
C3648 C 0.96349 0.73119 0.28881 0.0
C3649 C 0.97343 0.73535 0.29443 0.0
C3650 C 0.98155 0.74214 0.28852 0.0
C3651 C 0.95436 0.7247 0.29515 0.0
C3652 C 0.9492 0.72984 0.30466 0.0
C3653 C 0.9499 0.71409 0.29115 0.0
C3654 C 0.95536 0.70787 0.28158 0.0
C3655 C 0.96718 0.70547 0.28189 0.0
C3656 C 0.9723 0.69971 0.27281 0.0
C3657 C 0.96567 0.69623 0.2634 0.0
C3658 C 0.9539 0.6985 0.26306 0.0
C3659 C 0.94874 0.70427 0.27211 0.0
H3660 H 0.96965 0.69177 0.25638 0.0
H3661 H 0.91947 0.74799 0.34404 0.0
H3662 H 0.81922 0.41133 0.33441 0.0
H3663 H 0.80943 0.42822 0.32678 0.0
H3664 H 0.82539 0.42313 0.29396 0.0
H3665 H 0.83514 0.40626 0.30149 0.0
H3666 H 0.82641 0.44515 0.29937 0.0
H3667 H 0.79695 0.41596 0.2988 0.0
H3668 H 0.78442 0.40075 0.30684 0.0
H3669 H 0.77024 0.42473 0.3305 0.0
H3670 H 0.78282 0.44007 0.3227 0.0
H3671 H 0.78835 0.47571 0.26218 0.0
H3672 H 0.80029 0.46192 0.27262 0.0
H3673 H 0.78521 0.47253 0.30447 0.0
H3674 H 0.77337 0.48647 0.294 0.0
H3675 H 0.78399 0.44887 0.30108 0.0
H3676 H 0.81266 0.47853 0.30001 0.0
H3677 H 0.82493 0.49348 0.29113 0.0
H3678 H 0.84032 0.46827 0.26961 0.0
H3679 H 0.82802 0.45318 0.27824 0.0
C3680 C 0.82057 0.41374 0.32554 0.0
C3681 C 0.828 0.4074 0.31859 0.0
C3682 C 0.81498 0.42343 0.32118 0.0
C3683 C 0.8166 0.42695 0.30975 0.0
C3684 C 0.82403 0.42066 0.30282 0.0
C3685 C 0.82963 0.411 0.30716 0.0
C3686 C 0.81057 0.43716 0.30495 0.0
C3687 C 0.81712 0.4459 0.29966 0.0
C3688 C 0.79847 0.43833 0.30553 0.0
C3689 C 0.79093 0.42913 0.31026 0.0
C3690 C 0.79124 0.41797 0.30579 0.0
C3691 C 0.78411 0.40933 0.31029 0.0
C3692 C 0.77657 0.41176 0.3192 0.0
C3693 C 0.77611 0.42285 0.32362 0.0
C3694 C 0.78323 0.43152 0.31916 0.0
C3695 C 0.78789 0.47534 0.27145 0.0
C3696 C 0.78011 0.48227 0.27732 0.0
C3697 C 0.79466 0.46744 0.27741 0.0
C3698 C 0.79367 0.46618 0.28935 0.0
C3699 C 0.78615 0.47336 0.29527 0.0
C3700 C 0.77949 0.4814 0.28932 0.0
C3701 C 0.79983 0.45678 0.29543 0.0
C3702 C 0.79329 0.44818 0.30091 0.0
C3703 C 0.81192 0.45569 0.29493 0.0
C3704 C 0.81934 0.46474 0.28971 0.0
C3705 C 0.81859 0.47618 0.29331 0.0
C3706 C 0.82556 0.48468 0.28834 0.0
C3707 C 0.83338 0.48183 0.27979 0.0
C3708 C 0.83425 0.47047 0.27622 0.0
C3709 C 0.82729 0.46194 0.28116 0.0
H3710 H 0.83877 0.48842 0.27595 0.0
H3711 H 0.77105 0.40507 0.32267 0.0
H3712 H 0.18428 0.60621 0.70646 0.0
H3713 H 0.19435 0.58935 0.71366 0.0
H3714 H 0.22648 0.60825 0.71294 0.0
H3715 H 0.21653 0.62504 0.70539 0.0
H3716 H 0.2293 0.58677 0.70517 0.0
H3717 H 0.21163 0.60405 0.73798 0.0
H3718 H 0.19553 0.61161 0.7492 0.0
H3719 H 0.17852 0.57873 0.7481 0.0
H3720 H 0.19447 0.57101 0.73673 0.0
H3721 H 0.26369 0.55672 0.74518 0.0
H3722 H 0.25242 0.56994 0.73355 0.0
H3723 H 0.22259 0.54785 0.73716 0.0
H3724 H 0.23387 0.53464 0.7491 0.0
H3725 H 0.21737 0.56938 0.74221 0.0
H3726 H 0.23618 0.55156 0.711 0.0
H3727 H 0.25249 0.54409 0.70002 0.0
H3728 H 0.26752 0.57785 0.69817 0.0
H3729 H 0.25138 0.58551 0.70928 0.0
C3730 C 0.19352 0.60676 0.70767 0.0
C3731 C 0.19957 0.61704 0.70537 0.0
C3732 C 0.19925 0.59712 0.7119 0.0
C3733 C 0.21117 0.59754 0.71399 0.0
C3734 C 0.21728 0.6077 0.71144 0.0
C3735 C 0.21155 0.61734 0.70722 0.0
C3736 C 0.21725 0.58751 0.71908 0.0
C3737 C 0.22675 0.58302 0.71331 0.0
C3738 C 0.21375 0.58237 0.72955 0.0
C3739 C 0.20417 0.58699 0.73639 0.0
C3740 C 0.20441 0.59846 0.74005 0.0
C3741 C 0.19532 0.60277 0.74645 0.0
C3742 C 0.18599 0.59566 0.74933 0.0
C3743 C 0.18575 0.58423 0.74584 0.0
C3744 C 0.19481 0.57988 0.73943 0.0
C3745 C 0.25477 0.55457 0.74334 0.0
C3746 C 0.24965 0.54465 0.7481 0.0
C3747 C 0.24834 0.56212 0.73662 0.0
C3748 C 0.23663 0.55991 0.7344 0.0
C3749 C 0.2316 0.54975 0.73874 0.0
C3750 C 0.23807 0.54215 0.74547 0.0
C3751 C 0.22953 0.56869 0.72837 0.0
C3752 C 0.21985 0.57299 0.73398 0.0
C3753 C 0.23288 0.57365 0.71776 0.0
C3754 C 0.2426 0.56909 0.71105 0.0
C3755 C 0.243 0.55738 0.70833 0.0
C3756 C 0.25221 0.55311 0.70207 0.0
C3757 C 0.26104 0.56049 0.69842 0.0
C3758 C 0.26067 0.57215 0.701 0.0
C3759 C 0.25149 0.57646 0.70727 0.0
H3760 H 0.26817 0.55716 0.69357 0.0
H3761 H 0.17896 0.59902 0.75429 0.0
H3762 H 0.1826 0.4102 0.30979 0.0
H3763 H 0.19215 0.42722 0.30187 0.0
H3764 H 0.22288 0.41939 0.32108 0.0
H3765 H 0.21341 0.40224 0.32899 0.0
H3766 H 0.21834 0.4421 0.32183 0.0
H3767 H 0.2212 0.41344 0.29286 0.0
H3768 H 0.21415 0.39858 0.27953 0.0
H3769 H 0.19296 0.4233 0.26242 0.0
H3770 H 0.19977 0.43829 0.27577 0.0
H3771 H 0.26026 0.47244 0.28867 0.0
H3772 H 0.24817 0.4586 0.29908 0.0
H3773 H 0.21835 0.47042 0.28054 0.0
H3774 H 0.2305 0.48444 0.27017 0.0
H3775 H 0.22129 0.44666 0.27963 0.0
H3776 H 0.22014 0.47578 0.30819 0.0
H3777 H 0.22815 0.4903 0.32137 0.0
H3778 H 0.24723 0.46433 0.33908 0.0
H3779 H 0.23946 0.44966 0.3259 0.0
C3780 C 0.19143 0.41203 0.31228 0.0
C3781 C 0.19727 0.40476 0.31995 0.0
C3782 C 0.19686 0.4218 0.30777 0.0
C3783 C 0.20828 0.42452 0.31076 0.0
C3784 C 0.21406 0.41747 0.31864 0.0
C3785 C 0.20862 0.40767 0.32318 0.0
C3786 C 0.21426 0.43458 0.30547 0.0
C3787 C 0.21908 0.44304 0.31261 0.0
C3788 C 0.21503 0.43595 0.29342 0.0
C3789 C 0.21089 0.42696 0.2854 0.0
C3790 C 0.21495 0.41569 0.28632 0.0
C3791 C 0.21102 0.40724 0.27875 0.0
C3792 C 0.20308 0.40998 0.27016 0.0
C3793 C 0.19909 0.42118 0.2691 0.0
C3794 C 0.20299 0.42966 0.27666 0.0
C3795 C 0.25107 0.47226 0.28704 0.0
C3796 C 0.24626 0.47952 0.27871 0.0
C3797 C 0.24418 0.46436 0.29298 0.0
C3798 C 0.23234 0.4635 0.29062 0.0
C3799 C 0.22745 0.47098 0.28251 0.0
C3800 C 0.23435 0.47902 0.27666 0.0
C3801 C 0.22537 0.45417 0.29599 0.0
C3802 C 0.22042 0.44579 0.28885 0.0
C3803 C 0.22459 0.45284 0.30803 0.0
C3804 C 0.22928 0.46163 0.31599 0.0
C3805 C 0.22612 0.47317 0.31483 0.0
C3806 C 0.2306 0.48143 0.32232 0.0
C3807 C 0.23822 0.47824 0.33104 0.0
C3808 C 0.24134 0.46679 0.33231 0.0
C3809 C 0.23689 0.45849 0.32485 0.0
H3810 H 0.24168 0.48465 0.33683 0.0
H3811 H 0.20005 0.40344 0.2643 0.0
H3812 H 0.12541 0.70122 0.30484 0.0
H3813 H 0.10848 0.71162 0.29836 0.0
H3814 H 0.09418 0.7093 0.33233 0.0
H3815 H 0.111 0.69854 0.33882 0.0
H3816 H 0.07779 0.70507 0.31655 0.0
H3817 H 0.1061 0.73433 0.32272 0.0
H3818 H 0.12499 0.74402 0.32099 0.0
H3819 H 0.1204 0.74666 0.28454 0.0
H3820 H 0.10153 0.73683 0.28603 0.0
H3821 H 0.05017 0.76235 0.29217 0.0
H3822 H 0.06432 0.75193 0.30372 0.0
H3823 H 0.05424 0.72046 0.28693 0.0
H3824 H 0.03981 0.73088 0.27573 0.0
H3825 H 0.08241 0.74244 0.29653 0.0
H3826 H 0.0618 0.69717 0.30252 0.0
H3827 H 0.04267 0.68843 0.30588 0.0
H3828 H 0.03123 0.71963 0.32117 0.0
H3829 H 0.05034 0.72851 0.31804 0.0
C3830 C 0.11864 0.70282 0.31094 0.0
C3831 C 0.11962 0.69901 0.32237 0.0
C3832 C 0.10898 0.70888 0.30723 0.0
C3833 C 0.10006 0.71137 0.31486 0.0
C3834 C 0.10094 0.70752 0.32627 0.0
C3835 C 0.11063 0.70146 0.33 0.0
C3836 C 0.08988 0.71802 0.31089 0.0
C3837 C 0.07879 0.71326 0.3122 0.0
C3838 C 0.0911 0.72883 0.30543 0.0
C3839 C 0.10244 0.73475 0.30448 0.0
C3840 C 0.10915 0.73689 0.31433 0.0
C3841 C 0.11985 0.74243 0.31339 0.0
C3842 C 0.1239 0.74593 0.30266 0.0
C3843 C 0.11725 0.74393 0.29284 0.0
C3844 C 0.10655 0.73838 0.29373 0.0
C3845 C 0.05071 0.75313 0.2913 0.0
C3846 C 0.04377 0.74735 0.28325 0.0
C3847 C 0.05888 0.74719 0.29779 0.0
C3848 C 0.06041 0.73536 0.29627 0.0
C3849 C 0.05314 0.72951 0.2885 0.0
C3850 C 0.04486 0.73545 0.2821 0.0
C3851 C 0.07026 0.72941 0.30197 0.0
C3852 C 0.08134 0.73429 0.30095 0.0
C3853 C 0.06897 0.71884 0.3079 0.0
C3854 C 0.05748 0.71353 0.30995 0.0
C3855 C 0.05522 0.70215 0.30665 0.0
C3856 C 0.04438 0.69718 0.3085 0.0
C3857 C 0.03573 0.70348 0.31371 0.0
C3858 C 0.03792 0.71477 0.3171 0.0
C3859 C 0.04876 0.71978 0.31527 0.0
H3860 H 0.02734 0.69962 0.31513 0.0
H3861 H 0.13219 0.75022 0.30195 0.0
H3862 H 0.79676 0.62512 0.33101 0.0
H3863 H 0.78899 0.60804 0.32165 0.0
H3864 H 0.82323 0.59471 0.3185 0.0
H3865 H 0.83111 0.61183 0.32795 0.0
H3866 H 0.81103 0.59135 0.29903 0.0
H3867 H 0.80491 0.58411 0.33888 0.0
H3868 H 0.79838 0.58835 0.35845 0.0
H3869 H 0.76354 0.5907 0.34635 0.0
H3870 H 0.76987 0.58664 0.32666 0.0
H3871 H 0.78843 0.53731 0.2805 0.0
H3872 H 0.79876 0.55126 0.29261 0.0
H3873 H 0.76709 0.5692 0.29815 0.0
H3874 H 0.75677 0.55525 0.28625 0.0
H3875 H 0.77974 0.56867 0.31748 0.0
H3876 H 0.78609 0.57792 0.27758 0.0
H3877 H 0.79243 0.574 0.25786 0.0
H3878 H 0.82675 0.56802 0.27011 0.0
H3879 H 0.82056 0.57174 0.28993 0.0
C3880 C 0.80266 0.61853 0.32843 0.0
C3881 C 0.81457 0.61984 0.33037 0.0
C3882 C 0.79819 0.60874 0.32305 0.0
C3883 C 0.80549 0.59995 0.31954 0.0
C3884 C 0.81741 0.60134 0.32117 0.0
C3885 C 0.82191 0.61116 0.32655 0.0
C3886 C 0.8006 0.58937 0.31414 0.0
C3887 C 0.80434 0.58627 0.30317 0.0
C3888 C 0.79175 0.5828 0.31942 0.0
C3889 C 0.78788 0.58516 0.33127 0.0
C3890 C 0.79586 0.58561 0.34037 0.0
C3891 C 0.7922 0.58797 0.35149 0.0
C3892 C 0.78056 0.58981 0.35364 0.0
C3893 C 0.77255 0.58928 0.34467 0.0
C3894 C 0.77617 0.58693 0.33353 0.0
C3895 C 0.78366 0.54408 0.28453 0.0
C3896 C 0.77181 0.54524 0.28236 0.0
C3897 C 0.78957 0.55211 0.29136 0.0
C3898 C 0.78374 0.56142 0.29615 0.0
C3899 C 0.7718 0.56215 0.29453 0.0
C3900 C 0.76592 0.55419 0.28769 0.0
C3901 C 0.79004 0.57077 0.30232 0.0
C3902 C 0.78655 0.57366 0.31342 0.0
C3903 C 0.7991 0.57716 0.29715 0.0
C3904 C 0.80284 0.57497 0.28525 0.0
C3905 C 0.79497 0.57568 0.27608 0.0
C3906 C 0.79853 0.57351 0.26488 0.0
C3907 C 0.80997 0.57073 0.26274 0.0
C3908 C 0.81788 0.57015 0.27179 0.0
C3909 C 0.81435 0.57229 0.283 0.0
H3910 H 0.81272 0.56906 0.25407 0.0
H3911 H 0.77773 0.59164 0.36225 0.0
H3912 H 0.91383 0.31023 0.34187 0.0
H3913 H 0.9304 0.30263 0.33181 0.0
H3914 H 0.91915 0.31911 0.30061 0.0
H3915 H 0.90229 0.32641 0.31053 0.0
H3916 H 0.92527 0.29773 0.29642 0.0
H3917 H 0.94238 0.32941 0.3166 0.0
H3918 H 0.94712 0.3412 0.3335 0.0
H3919 H 0.96447 0.31277 0.34904 0.0
H3920 H 0.9597 0.30075 0.3323 0.0
H3921 H 0.97414 0.2892 0.26336 0.0
H3922 H 0.96006 0.29924 0.27493 0.0
H3923 H 0.97131 0.28069 0.30495 0.0
H3924 H 0.98566 0.27073 0.29333 0.0
H3925 H 0.96549 0.30295 0.31013 0.0
H3926 H 0.9483 0.27129 0.29003 0.0
H3927 H 0.94391 0.25959 0.27299 0.0
H3928 H 0.92663 0.28801 0.25735 0.0
H3929 H 0.9311 0.29996 0.27422 0.0
C3930 C 0.91482 0.3122 0.33285 0.0
C3931 C 0.90665 0.31893 0.32703 0.0
C3932 C 0.92441 0.30795 0.32713 0.0
C3933 C 0.92615 0.31038 0.31545 0.0
C3934 C 0.91805 0.31713 0.30962 0.0
C3935 C 0.90844 0.32139 0.31534 0.0
C3936 C 0.93617 0.30556 0.30923 0.0
C3937 C 0.93406 0.29904 0.29934 0.0
C3938 C 0.94767 0.30693 0.31319 0.0
C3939 C 0.95059 0.31415 0.32324 0.0
C3940 C 0.94713 0.32565 0.32366 0.0
C3941 C 0.94984 0.33237 0.3332 0.0
C3942 C 0.95607 0.32773 0.34235 0.0
C3943 C 0.95963 0.31635 0.34196 0.0
C3944 C 0.95694 0.30958 0.33244 0.0
C3945 C 0.97377 0.28744 0.27248 0.0
C3946 C 0.98093 0.27914 0.27744 0.0
C3947 C 0.96568 0.29314 0.27908 0.0
C3948 C 0.96441 0.29054 0.29077 0.0
C3949 C 0.97208 0.2828 0.29594 0.0
C3950 C 0.98029 0.27714 0.28931 0.0
C3951 C 0.95455 0.29526 0.29728 0.0
C3952 C 0.95668 0.30169 0.30722 0.0
C3953 C 0.94304 0.29379 0.2934 0.0
C3954 C 0.94012 0.28655 0.28335 0.0
C3955 C 0.94362 0.27507 0.28293 0.0
C3956 C 0.94112 0.26839 0.2733 0.0
C3957 C 0.93502 0.27306 0.26408 0.0
C3958 C 0.93137 0.28441 0.26449 0.0
C3959 C 0.93388 0.29114 0.27409 0.0
H3960 H 0.9331 0.26787 0.25663 0.0
H3961 H 0.95815 0.33295 0.34973 0.0
H3962 H 0.80698 0.39943 0.70381 0.0
H3963 H 0.79684 0.41629 0.71065 0.0
H3964 H 0.8293 0.43369 0.71644 0.0
H3965 H 0.83949 0.41692 0.70954 0.0
H3966 H 0.81568 0.43603 0.73451 0.0
H3967 H 0.81143 0.44112 0.69395 0.0
H3968 H 0.80625 0.4355 0.67423 0.0
H3969 H 0.77109 0.43034 0.68433 0.0
H3970 H 0.77609 0.43577 0.70416 0.0
H3971 H 0.79015 0.48869 0.74934 0.0
H3972 H 0.80146 0.47508 0.73823 0.0
H3973 H 0.77067 0.45524 0.73121 0.0
H3974 H 0.75936 0.46892 0.74203 0.0
H3975 H 0.78438 0.45518 0.71295 0.0
H3976 H 0.78871 0.44834 0.75349 0.0
H3977 H 0.79355 0.45352 0.77342 0.0
H3978 H 0.82827 0.46148 0.76347 0.0
H3979 H 0.82358 0.4565 0.74343 0.0
C3980 C 0.81198 0.4069 0.70637 0.0
C3981 C 0.82409 0.40676 0.70613 0.0
C3982 C 0.80615 0.41655 0.7103 0.0
C3983 C 0.81228 0.42634 0.71401 0.0
C3984 C 0.82436 0.42626 0.71367 0.0
C3985 C 0.83018 0.41662 0.70976 0.0
C3986 C 0.80615 0.43648 0.71863 0.0
C3987 C 0.80898 0.44034 0.72969 0.0
C3988 C 0.79721 0.44199 0.7125 0.0
C3989 C 0.79416 0.43876 0.70057 0.0
C3990 C 0.80261 0.4387 0.69199 0.0
C3991 C 0.79971 0.43556 0.68078 0.0
C3992 C 0.78835 0.43254 0.67803 0.0
C3993 C 0.77988 0.43267 0.68648 0.0
C3994 C 0.78275 0.43579 0.6977 0.0
C3995 C 0.78577 0.4816 0.74517 0.0
C3996 C 0.77388 0.47982 0.74667 0.0
C3997 C 0.79225 0.47375 0.73892 0.0
C3998 C 0.78697 0.46397 0.73407 0.0
C3999 C 0.77498 0.46265 0.73491 0.0
C4000 C 0.76852 0.47046 0.74115 0.0
C4001 C 0.7939 0.45469 0.72882 0.0
C4002 C 0.79118 0.45095 0.71769 0.0
C4003 C 0.80291 0.44924 0.7349 0.0
C4004 C 0.80576 0.45218 0.74694 0.0
C4005 C 0.79735 0.45128 0.75554 0.0
C4006 C 0.80007 0.45417 0.76685 0.0
C4007 C 0.8112 0.45786 0.7697 0.0
C4008 C 0.81965 0.45864 0.76124 0.0
C4009 C 0.81697 0.45579 0.74991 0.0
H4010 H 0.81329 0.46009 0.77847 0.0
H4011 H 0.78612 0.43011 0.66935 0.0
H4012 H 0.12512 0.29912 0.69995 0.0
H4013 H 0.10817 0.2916 0.70985 0.0
H4014 H 0.09583 0.32595 0.71431 0.0
H4015 H 0.11278 0.33358 0.70427 0.0
H4016 H 0.09299 0.3129 0.7338 0.0
H4017 H 0.08408 0.309 0.69381 0.0
H4018 H 0.08765 0.30317 0.67387 0.0
H4019 H 0.08929 0.26795 0.68453 0.0
H4020 H 0.0859 0.27358 0.70456 0.0
H4021 H 0.03888 0.29046 0.75368 0.0
H4022 H 0.0529 0.30141 0.74213 0.0
H4023 H 0.06895 0.26988 0.73222 0.0
H4024 H 0.05484 0.259 0.74331 0.0
H4025 H 0.06836 0.28366 0.71458 0.0
H4026 H 0.07966 0.28719 0.7543 0.0
H4027 H 0.07691 0.29234 0.77456 0.0
H4028 H 0.0715 0.32741 0.76482 0.0
H4029 H 0.07407 0.32243 0.74446 0.0
C4030 C 0.11877 0.30511 0.70294 0.0
C4031 C 0.12029 0.31697 0.70117 0.0
C4032 C 0.10908 0.30078 0.70864 0.0
C4033 C 0.1006 0.30819 0.71267 0.0
C4034 C 0.10222 0.32006 0.71125 0.0
C4035 C 0.11195 0.32441 0.70553 0.0
C4036 C 0.09002 0.30344 0.71825 0.0
C4037 C 0.08747 0.30667 0.72953 0.0
C4038 C 0.08291 0.29515 0.71277 0.0
C4039 C 0.08481 0.29173 0.7007 0.0
C4040 C 0.08527 0.30002 0.69191 0.0
C4041 C 0.08725 0.29675 0.68059 0.0
C4042 C 0.08871 0.2852 0.67794 0.0
C4043 C 0.08816 0.27689 0.6866 0.0
C4044 C 0.0862 0.28012 0.69794 0.0
C4045 C 0.04527 0.28589 0.74885 0.0
C4046 C 0.04582 0.27387 0.74952 0.0
C4047 C 0.05336 0.29215 0.74235 0.0
C4048 C 0.06215 0.2865 0.73644 0.0
C4049 C 0.06233 0.27448 0.73671 0.0
C4050 C 0.05428 0.26826 0.74314 0.0
C4051 C 0.07144 0.29292 0.73024 0.0
C4052 C 0.07376 0.29002 0.71883 0.0
C4053 C 0.0784 0.3014 0.73564 0.0
C4054 C 0.07692 0.30441 0.74786 0.0
C4055 C 0.0778 0.29598 0.75647 0.0
C4056 C 0.07628 0.29887 0.76797 0.0
C4057 C 0.07399 0.31019 0.77097 0.0
C4058 C 0.07325 0.31864 0.76248 0.0
C4059 C 0.07474 0.31579 0.75096 0.0
H4060 H 0.07283 0.31241 0.77988 0.0
H4061 H 0.09025 0.28269 0.66917 0.0
H4062 H 0.89815 0.72787 0.70008 0.0
H4063 H 0.91555 0.7357 0.70903 0.0
H4064 H 0.93075 0.7022 0.70891 0.0
H4065 H 0.91331 0.69426 0.6999 0.0
H4066 H 0.93469 0.71283 0.72902 0.0
H4067 H 0.93911 0.72259 0.68944 0.0
H4068 H 0.93327 0.73048 0.67067 0.0
H4069 H 0.93008 0.76387 0.68549 0.0
H4070 H 0.93575 0.75615 0.70439 0.0
H4071 H 0.98867 0.73657 0.74681 0.0
H4072 H 0.97463 0.72661 0.73445 0.0
H4073 H 0.95464 0.75742 0.73212 0.0
H4074 H 0.96868 0.7674 0.74424 0.0
H4075 H 0.95478 0.74653 0.71189 0.0
H4076 H 0.94814 0.73649 0.75158 0.0
H4077 H 0.95356 0.72884 0.77057 0.0
H4078 H 0.96064 0.69617 0.7556 0.0
H4079 H 0.95541 0.70369 0.73648 0.0
C4080 C 0.90522 0.72216 0.70186 0.0
C4081 C 0.90435 0.71044 0.69916 0.0
C4082 C 0.91518 0.72666 0.70699 0.0
C4083 C 0.92456 0.71959 0.70947 0.0
C4084 C 0.92364 0.70783 0.70704 0.0
C4085 C 0.91365 0.70331 0.70193 0.0
C4086 C 0.93526 0.72451 0.71466 0.0
C4087 C 0.93921 0.72006 0.72515 0.0
C4088 C 0.94109 0.73406 0.70973 0.0
C4089 C 0.93778 0.73876 0.69835 0.0
C4090 C 0.93709 0.7316 0.68871 0.0
C4091 C 0.93382 0.73604 0.67805 0.0
C4092 C 0.93129 0.74766 0.67689 0.0
C4093 C 0.93204 0.75487 0.6864 0.0
C4094 C 0.9353 0.75046 0.69709 0.0
C4095 C 0.98142 0.74126 0.74343 0.0
C4096 C 0.97971 0.75272 0.74657 0.0
C4097 C 0.97335 0.73555 0.73645 0.0
C4098 C 0.96346 0.74121 0.73251 0.0
C4099 C 0.96215 0.75285 0.73509 0.0
C4100 C 0.97016 0.75853 0.74206 0.0
C4101 C 0.95408 0.73497 0.72631 0.0
C4102 C 0.95036 0.73919 0.71565 0.0
C4103 C 0.94844 0.72523 0.7311 0.0
C4104 C 0.95152 0.72069 0.74259 0.0
C4105 C 0.95094 0.7277 0.75233 0.0
C4106 C 0.95396 0.72339 0.76311 0.0
C4107 C 0.95748 0.71203 0.76429 0.0
C4108 C 0.95794 0.70497 0.75468 0.0
C4109 C 0.95495 0.70925 0.74386 0.0
H4110 H 0.95981 0.70871 0.77265 0.0
H4111 H 0.92875 0.75109 0.66863 0.0
H4112 H 0.69146 0.21149 0.61901 0.0
H4113 H 0.69898 0.22108 0.60183 0.0
H4114 H 0.73093 0.2031 0.60577 0.0
H4115 H 0.72346 0.19339 0.6228 0.0
H4116 H 0.73483 0.22544 0.60142 0.0
H4117 H 0.71085 0.19538 0.58538 0.0
H4118 H 0.69273 0.18451 0.58255 0.0
H4119 H 0.67636 0.21485 0.56988 0.0
H4120 H 0.69435 0.22594 0.57278 0.0
H4121 H 0.76217 0.23499 0.54948 0.0
H4122 H 0.75143 0.22469 0.56439 0.0
H4123 H 0.72188 0.2457 0.55761 0.0
H4124 H 0.73266 0.25593 0.54247 0.0
H4125 H 0.71564 0.22318 0.56337 0.0
H4126 H 0.73953 0.25309 0.57846 0.0
H4127 H 0.75755 0.26419 0.58102 0.0
H4128 H 0.77377 0.23468 0.59575 0.0
H4129 H 0.75591 0.22333 0.59306 0.0
C4130 C 0.70005 0.20948 0.61617 0.0
C4131 C 0.70685 0.20167 0.62237 0.0
C4132 C 0.70435 0.215 0.60633 0.0
C4133 C 0.71552 0.21278 0.60244 0.0
C4134 C 0.72231 0.20501 0.60862 0.0
C4135 C 0.71803 0.19949 0.61841 0.0
C4136 C 0.72028 0.21863 0.59205 0.0
C4137 C 0.73068 0.22482 0.59309 0.0
C4138 C 0.71471 0.21819 0.58121 0.0
C4139 C 0.70391 0.21152 0.57941 0.0
C4140 C 0.70336 0.19975 0.58208 0.0
C4141 C 0.69312 0.19355 0.58044 0.0
C4142 C 0.68339 0.19899 0.57607 0.0
C4143 C 0.6839 0.21065 0.57328 0.0
C4144 C 0.69412 0.2169 0.57491 0.0
C4145 C 0.75326 0.23715 0.55094 0.0
C4146 C 0.7482 0.24618 0.54481 0.0
C4147 C 0.74716 0.23134 0.55951 0.0
C4148 C 0.73592 0.23457 0.56229 0.0
C4149 C 0.73055 0.24308 0.55564 0.0
C4150 C 0.73667 0.24888 0.54697 0.0
C4151 C 0.73029 0.22973 0.57274 0.0
C4152 C 0.71974 0.22381 0.57172 0.0
C4153 C 0.73567 0.23048 0.58365 0.0
C4154 C 0.74639 0.23733 0.58546 0.0
C4155 C 0.74696 0.24894 0.58217 0.0
C4156 C 0.75715 0.25528 0.58365 0.0
C4157 C 0.76681 0.25014 0.58853 0.0
C4158 C 0.76629 0.23865 0.59196 0.0
C4159 C 0.75613 0.23226 0.59046 0.0
H4160 H 0.77469 0.25506 0.58967 0.0
H4161 H 0.67547 0.19417 0.57481 0.0
H4162 H 0.30802 0.20939 0.62972 0.0
H4163 H 0.29997 0.21907 0.61288 0.0
H4164 H 0.31485 0.1937 0.59094 0.0
H4165 H 0.32306 0.18405 0.60773 0.0
H4166 H 0.31788 0.21555 0.5824 0.0
H4167 H 0.28687 0.19207 0.59668 0.0
H4168 H 0.27352 0.18458 0.61136 0.0
H4169 H 0.26023 0.21834 0.61629 0.0
H4170 H 0.27363 0.22607 0.60175 0.0
H4171 H 0.26619 0.23254 0.54206 0.0
H4172 H 0.27571 0.21947 0.55564 0.0
H4173 H 0.29725 0.24738 0.56755 0.0
H4174 H 0.28771 0.26041 0.55413 0.0
H4175 H 0.27582 0.22183 0.57949 0.0
H4176 H 0.32353 0.23626 0.57517 0.0
H4177 H 0.33681 0.24326 0.56019 0.0
H4178 H 0.31644 0.22628 0.53442 0.0
H4179 H 0.30313 0.21904 0.54925 0.0
C4180 C 0.30967 0.20593 0.6213 0.0
C4181 C 0.31616 0.19592 0.62008 0.0
C4182 C 0.30499 0.21142 0.61169 0.0
C4183 C 0.30671 0.20704 0.60065 0.0
C4184 C 0.31338 0.1972 0.59937 0.0
C4185 C 0.318 0.19166 0.60898 0.0
C4186 C 0.30146 0.2127 0.59046 0.0
C4187 C 0.30868 0.2169 0.58175 0.0
C4188 C 0.28944 0.2143 0.5895 0.0
C4189 C 0.28131 0.20966 0.59819 0.0
C4190 C 0.28116 0.19791 0.60095 0.0
C4191 C 0.27357 0.19362 0.60924 0.0
C4192 C 0.26605 0.20098 0.61477 0.0
C4193 C 0.26607 0.21265 0.612 0.0
C4194 C 0.27365 0.21699 0.60373 0.0
C4195 C 0.27312 0.23578 0.54742 0.0
C4196 C 0.27625 0.24745 0.54706 0.0
C4197 C 0.27849 0.22836 0.55522 0.0
C4198 C 0.28721 0.23245 0.56259 0.0
C4199 C 0.29063 0.24401 0.56189 0.0
C4200 C 0.28517 0.25144 0.55423 0.0
C4201 C 0.29227 0.22491 0.57156 0.0
C4202 C 0.28501 0.2204 0.58008 0.0
C4203 C 0.30425 0.22298 0.57231 0.0
C4204 C 0.31228 0.22719 0.56333 0.0
C4205 C 0.32191 0.23397 0.56631 0.0
C4206 C 0.32944 0.23799 0.55785 0.0
C4207 C 0.32745 0.23524 0.54636 0.0
C4208 C 0.31794 0.22844 0.54332 0.0
C4209 C 0.3104 0.22439 0.55175 0.0
H4210 H 0.33328 0.23837 0.53982 0.0
H4211 H 0.26018 0.19765 0.62118 0.0
H4212 H 0.30264 0.83239 0.62291 0.0
H4213 H 0.29498 0.82202 0.60642 0.0
H4214 H 0.32864 0.80864 0.59961 0.0
H4215 H 0.33649 0.81932 0.61603 0.0
H4216 H 0.31776 0.81532 0.57968 0.0
H4217 H 0.30869 0.79166 0.61193 0.0
H4218 H 0.30121 0.78704 0.63117 0.0
H4219 H 0.26737 0.7971 0.62055 0.0
H4220 H 0.27469 0.80194 0.60129 0.0
H4221 H 0.29237 0.77225 0.54164 0.0
H4222 H 0.30369 0.78296 0.55603 0.0
H4223 H 0.27269 0.79887 0.56788 0.0
H4224 H 0.26147 0.7882 0.55368 0.0
H4225 H 0.28413 0.78933 0.58529 0.0
H4226 H 0.29362 0.81392 0.55321 0.0
H4227 H 0.30123 0.81826 0.53396 0.0
H4228 H 0.33439 0.80591 0.54417 0.0
H4229 H 0.32693 0.80134 0.56345 0.0
C4230 C 0.30848 0.82736 0.61786 0.0
C4231 C 0.32022 0.82674 0.62083 0.0
C4232 C 0.30405 0.82133 0.60846 0.0
C4233 C 0.31119 0.81443 0.6018 0.0
C4234 C 0.32295 0.81388 0.60462 0.0
C4235 C 0.3274 0.81991 0.61408 0.0
C4236 C 0.30623 0.80772 0.59205 0.0
C4237 C 0.31052 0.80949 0.58093 0.0
C4238 C 0.29671 0.80018 0.59361 0.0
C4239 C 0.29226 0.79725 0.60519 0.0
C4240 C 0.29967 0.79297 0.61372 0.0
C4241 C 0.29546 0.7903 0.62463 0.0
C4242 C 0.28383 0.7918 0.62708 0.0
C4243 C 0.27638 0.79595 0.61863 0.0
C4244 C 0.28056 0.79865 0.60772 0.0
C4245 C 0.28806 0.77826 0.54713 0.0
C4246 C 0.27604 0.77936 0.54658 0.0
C4247 C 0.29452 0.78435 0.55538 0.0
C4248 C 0.28904 0.79168 0.56313 0.0
C4249 C 0.27712 0.7932 0.56211 0.0
C4250 C 0.27071 0.78714 0.55395 0.0
C4251 C 0.2954 0.79718 0.57285 0.0
C4252 C 0.2914 0.79511 0.58402 0.0
C4253 C 0.30519 0.80438 0.5713 0.0
C4254 C 0.30968 0.80717 0.55973 0.0
C4255 C 0.30251 0.81204 0.55132 0.0
C4256 C 0.3068 0.81456 0.54041 0.0
C4257 C 0.31827 0.81232 0.53783 0.0
C4258 C 0.32549 0.80761 0.54617 0.0
C4259 C 0.32125 0.80506 0.5571 0.0
H4260 H 0.32157 0.81428 0.52937 0.0
H4261 H 0.28058 0.78972 0.63553 0.0
H4262 H 0.72709 0.82659 0.62835 0.0
H4263 H 0.73547 0.81744 0.61165 0.0
H4264 H 0.70177 0.81392 0.59635 0.0
H4265 H 0.69324 0.82276 0.61324 0.0
H4266 H 0.71396 0.79458 0.59373 0.0
H4267 H 0.72077 0.83474 0.58719 0.0
H4268 H 0.72759 0.85421 0.59209 0.0
H4269 H 0.76208 0.84195 0.59584 0.0
H4270 H 0.75544 0.82237 0.59112 0.0
H4271 H 0.73579 0.7782 0.53942 0.0
H4272 H 0.72605 0.79 0.55371 0.0
H4273 H 0.75789 0.79362 0.57258 0.0
H4274 H 0.76759 0.78188 0.55838 0.0
H4275 H 0.74568 0.81368 0.57232 0.0
H4276 H 0.73918 0.7738 0.5807 0.0
H4277 H 0.73302 0.754 0.57636 0.0
H4278 H 0.69863 0.76542 0.56976 0.0
H4279 H 0.70465 0.78535 0.5739 0.0
C4280 C 0.72141 0.82377 0.62151 0.0
C4281 C 0.70946 0.82544 0.62219 0.0
C4282 C 0.72625 0.81864 0.61188 0.0
C4283 C 0.71929 0.81513 0.60263 0.0
C4284 C 0.70734 0.81662 0.60333 0.0
C4285 C 0.70248 0.82175 0.61297 0.0
C4286 C 0.72449 0.80984 0.59229 0.0
C4287 C 0.72074 0.79886 0.58893 0.0
C4288 C 0.73355 0.81528 0.58614 0.0
C4289 C 0.73759 0.82707 0.58889 0.0
C4290 C 0.7298 0.83618 0.58914 0.0
C4291 C 0.73363 0.84724 0.59187 0.0
C4292 C 0.74526 0.84931 0.5943 0.0
C4293 C 0.75308 0.84033 0.59397 0.0
C4294 C 0.74928 0.82925 0.59125 0.0
C4295 C 0.74074 0.78177 0.54647 0.0
C4296 C 0.75243 0.77912 0.54781 0.0
C4297 C 0.73516 0.78842 0.55468 0.0
C4298 C 0.74121 0.79259 0.56431 0.0
C4299 C 0.75304 0.79051 0.56526 0.0
C4300 C 0.75857 0.78379 0.55714 0.0
C4301 C 0.73515 0.79845 0.5738 0.0
C4302 C 0.73878 0.80949 0.57704 0.0
C4303 C 0.72605 0.79305 0.5799 0.0
C4304 C 0.72239 0.78108 0.57748 0.0
C4305 C 0.73033 0.77211 0.57823 0.0
C4306 C 0.72686 0.76086 0.57582 0.0
C4307 C 0.71544 0.75846 0.57275 0.0
C4308 C 0.70747 0.7673 0.57211 0.0
C4309 C 0.7109 0.77857 0.5745 0.0
H4310 H 0.71277 0.74974 0.57089 0.0
H4311 H 0.74821 0.85788 0.59642 0.0
H4312 H 0.69507 0.81256 0.40805 0.0
H4313 H 0.70242 0.80274 0.42511 0.0
H4314 H 0.7297 0.82797 0.42802 0.0
H4315 H 0.7223 0.83798 0.41116 0.0
H4316 H 0.73772 0.80623 0.43021 0.0
H4317 H 0.70702 0.82843 0.44593 0.0
H4318 H 0.68706 0.83515 0.44738 0.0
H4319 H 0.67532 0.80075 0.45421 0.0
H4320 H 0.6952 0.7938 0.45264 0.0
H4321 H 0.75999 0.79295 0.48412 0.0
H4322 H 0.74944 0.80397 0.46963 0.0
H4323 H 0.72377 0.77699 0.46765 0.0
H4324 H 0.73434 0.766 0.48226 0.0
H4325 H 0.71434 0.79901 0.46506 0.0
H4326 H 0.74461 0.77667 0.44948 0.0
H4327 H 0.76446 0.76961 0.44833 0.0
H4328 H 0.77679 0.80369 0.44088 0.0
H4329 H 0.75702 0.811 0.44223 0.0
C4330 C 0.70254 0.81612 0.41239 0.0
C4331 C 0.70808 0.82608 0.40817 0.0
C4332 C 0.70676 0.81046 0.42214 0.0
C4333 C 0.71658 0.81465 0.42789 0.0
C4334 C 0.72213 0.82455 0.4237 0.0
C4335 C 0.71791 0.83024 0.414 0.0
C4336 C 0.72125 0.80861 0.43816 0.0
C4337 C 0.73264 0.80479 0.43787 0.0
C4338 C 0.71453 0.80642 0.44805 0.0
C4339 C 0.70258 0.81058 0.44905 0.0
C4340 C 0.70017 0.82229 0.44765 0.0
C4341 C 0.68887 0.82614 0.44851 0.0
C4342 C 0.67992 0.81838 0.45086 0.0
C4343 C 0.68226 0.80675 0.45238 0.0
C4344 C 0.69354 0.80285 0.45151 0.0
C4345 C 0.75189 0.78959 0.48087 0.0
C4346 C 0.74787 0.77874 0.48434 0.0
C4347 C 0.74591 0.79583 0.47254 0.0
C4348 C 0.7359 0.79123 0.46745 0.0
C4349 C 0.73146 0.78071 0.47148 0.0
C4350 C 0.73746 0.77446 0.47983 0.0
C4351 C 0.73084 0.79683 0.45714 0.0
C4352 C 0.71939 0.80048 0.45739 0.0
C4353 C 0.73747 0.79881 0.44715 0.0
C4354 C 0.74934 0.7944 0.44607 0.0
C4355 C 0.75156 0.78268 0.44767 0.0
C4356 C 0.7628 0.77863 0.44698 0.0
C4357 C 0.77188 0.7862 0.44455 0.0
C4358 C 0.76974 0.79783 0.44278 0.0
C4359 C 0.75852 0.80194 0.44351 0.0
H4360 H 0.78058 0.78305 0.44403 0.0
H4361 H 0.67118 0.82138 0.45152 0.0
H4362 H 0.68388 0.20416 0.41917 0.0
H4363 H 0.69441 0.21147 0.43583 0.0
H4364 H 0.72642 0.20772 0.41783 0.0
H4365 H 0.71593 0.20046 0.40106 0.0
H4366 H 0.72852 0.20084 0.43996 0.0
H4367 H 0.71377 0.23385 0.42015 0.0
H4368 H 0.69876 0.24577 0.41126 0.0
H4369 H 0.68113 0.24747 0.44344 0.0
H4370 H 0.69596 0.23542 0.45249 0.0
H4371 H 0.76491 0.23948 0.47033 0.0
H4372 H 0.75333 0.22821 0.45689 0.0
H4373 H 0.72299 0.2347 0.47683 0.0
H4374 H 0.73458 0.24631 0.4902 0.0
H4375 H 0.71906 0.23927 0.45489 0.0
H4376 H 0.73484 0.20751 0.47513 0.0
H4377 H 0.75003 0.19576 0.48393 0.0
H4378 H 0.76588 0.19176 0.45107 0.0
H4379 H 0.75087 0.20362 0.44209 0.0
C4380 C 0.69316 0.20493 0.4187 0.0
C4381 C 0.69902 0.20181 0.40868 0.0
C4382 C 0.69918 0.20909 0.42827 0.0
C4383 C 0.71122 0.21031 0.42806 0.0
C4384 C 0.71714 0.20687 0.41822 0.0
C4385 C 0.71112 0.20269 0.40863 0.0
C4386 C 0.71759 0.21546 0.43796 0.0
C4387 C 0.72653 0.20928 0.44316 0.0
C4388 C 0.71481 0.22636 0.44238 0.0
C4389 C 0.70591 0.23363 0.43696 0.0
C4390 C 0.70664 0.23669 0.42531 0.0
C4391 C 0.69818 0.24348 0.42025 0.0
C4392 C 0.68898 0.24734 0.42678 0.0
C4393 C 0.68825 0.24445 0.43839 0.0
C4394 C 0.69669 0.23765 0.44349 0.0
C4395 C 0.75579 0.23837 0.47196 0.0
C4396 C 0.75065 0.24385 0.48131 0.0
C4397 C 0.74918 0.23185 0.46429 0.0
C4398 C 0.73725 0.23053 0.46582 0.0
C4399 C 0.73216 0.23558 0.47544 0.0
C4400 C 0.73881 0.24212 0.48315 0.0
C4401 C 0.73007 0.22468 0.45688 0.0
C4402 C 0.72099 0.23076 0.45181 0.0
C4403 C 0.73274 0.2137 0.45259 0.0
C4404 C 0.74177 0.20653 0.45795 0.0
C4405 C 0.74161 0.2042 0.46979 0.0
C4406 C 0.75018 0.1975 0.47481 0.0
C4407 C 0.75893 0.19304 0.46806 0.0
C4408 C 0.7591 0.19523 0.45628 0.0
C4409 C 0.75056 0.20193 0.45122 0.0
H4410 H 0.76556 0.18786 0.47197 0.0
H4411 H 0.68243 0.2526 0.42284 0.0
H4412 H 0.33609 0.22056 0.41135 0.0
H4413 H 0.32704 0.22757 0.42874 0.0
H4414 H 0.29556 0.20979 0.41966 0.0
H4415 H 0.30443 0.20307 0.402 0.0
H4416 H 0.29109 0.23091 0.42672 0.0
H4417 H 0.31394 0.19981 0.44099 0.0
H4418 H 0.33173 0.18887 0.44389 0.0
H4419 H 0.34746 0.2177 0.46083 0.0
H4420 H 0.32981 0.22887 0.4579 0.0
H4421 H 0.26127 0.2355 0.47783 0.0
H4422 H 0.27265 0.2264 0.46295 0.0
H4423 H 0.30197 0.24748 0.47224 0.0
H4424 H 0.29054 0.25653 0.48734 0.0
H4425 H 0.30813 0.22519 0.46541 0.0
H4426 H 0.28539 0.25621 0.45137 0.0
H4427 H 0.26746 0.26706 0.44909 0.0
H4428 H 0.25166 0.23854 0.43172 0.0
H4429 H 0.26943 0.22741 0.43411 0.0
C4430 C 0.32721 0.21819 0.41298 0.0
C4431 C 0.321 0.21125 0.40521 0.0
C4432 C 0.32208 0.22212 0.42303 0.0
C4433 C 0.31064 0.21912 0.42563 0.0
C4434 C 0.30441 0.21219 0.4179 0.0
C4435 C 0.30953 0.20827 0.40783 0.0
C4436 C 0.30507 0.22343 0.43624 0.0
C4437 C 0.29476 0.2295 0.43517 0.0
C4438 C 0.30999 0.22194 0.4473 0.0
C4439 C 0.32059 0.21522 0.44912 0.0
C4440 C 0.32122 0.20385 0.44526 0.0
C4441 C 0.33128 0.1976 0.44692 0.0
C4442 C 0.34073 0.2026 0.45252 0.0
C4443 C 0.34014 0.21385 0.45649 0.0
C4444 C 0.3301 0.22014 0.45484 0.0
C4445 C 0.27024 0.23795 0.47691 0.0
C4446 C 0.27504 0.24672 0.4837 0.0
C4447 C 0.27672 0.2328 0.46837 0.0
C4448 C 0.28809 0.23642 0.46631 0.0
C4449 C 0.29319 0.24458 0.47365 0.0
C4450 C 0.28669 0.24971 0.48229 0.0
C4451 C 0.29412 0.23248 0.45584 0.0
C4452 C 0.3045 0.22656 0.45693 0.0
C4453 C 0.28931 0.23415 0.44478 0.0
C4454 C 0.27872 0.24094 0.443 0.0
C4455 C 0.27808 0.25222 0.44712 0.0
C4456 C 0.26794 0.25842 0.44581 0.0
C4457 C 0.25842 0.25348 0.44028 0.0
C4458 C 0.25904 0.24235 0.43601 0.0
C4459 C 0.26915 0.23609 0.43733 0.0
H4460 H 0.25058 0.25829 0.4393 0.0
H4461 H 0.34851 0.19775 0.45379 0.0
H4462 H 0.32861 0.80985 0.40456 0.0
H4463 H 0.32117 0.79975 0.42142 0.0
H4464 H 0.30486 0.83068 0.43263 0.0
H4465 H 0.31264 0.84095 0.41602 0.0
H4466 H 0.31394 0.81958 0.45066 0.0
H4467 H 0.28946 0.80949 0.41894 0.0
H4468 H 0.28485 0.80235 0.39958 0.0
H4469 H 0.29935 0.76975 0.4082 0.0
H4470 H 0.30419 0.77675 0.42757 0.0
H4471 H 0.27278 0.79152 0.48824 0.0
H4472 H 0.2832 0.80329 0.47404 0.0
H4473 H 0.29993 0.77305 0.46159 0.0
H4474 H 0.28947 0.76136 0.4756 0.0
H4475 H 0.29052 0.78431 0.4444 0.0
H4476 H 0.31463 0.79443 0.47646 0.0
H4477 H 0.31881 0.80164 0.49589 0.0
H4478 H 0.30453 0.83422 0.4868 0.0
H4479 H 0.30012 0.82714 0.46735 0.0
C4480 C 0.32359 0.81457 0.41068 0.0
C4481 C 0.32117 0.82623 0.40882 0.0
C4482 C 0.31924 0.80875 0.42029 0.0
C4483 C 0.31228 0.81439 0.42825 0.0
C4484 C 0.31015 0.8261 0.42661 0.0
C4485 C 0.31451 0.83194 0.41702 0.0
C4486 C 0.30693 0.808 0.43803 0.0
C4487 C 0.30871 0.81194 0.44928 0.0
C4488 C 0.30022 0.79793 0.43631 0.0
C4489 C 0.2973 0.79369 0.42467 0.0
C4490 C 0.29175 0.80083 0.41668 0.0
C4491 C 0.28908 0.7968 0.40571 0.0
C4492 C 0.29183 0.78562 0.40265 0.0
C4493 C 0.29723 0.77842 0.41057 0.0
C4494 C 0.29994 0.78241 0.42155 0.0
C4495 C 0.27891 0.78747 0.48266 0.0
C4496 C 0.28029 0.77553 0.48299 0.0
C4497 C 0.28485 0.79418 0.47452 0.0
C4498 C 0.29235 0.78907 0.46667 0.0
C4499 C 0.29414 0.77722 0.46745 0.0
C4500 C 0.2882 0.77054 0.4755 0.0
C4501 C 0.29766 0.79577 0.45707 0.0
C4502 C 0.29579 0.79193 0.44581 0.0
C4503 C 0.30424 0.80592 0.45882 0.0
C4504 C 0.30694 0.81021 0.47048 0.0
C4505 C 0.3123 0.8031 0.47863 0.0
C4506 C 0.31472 0.80717 0.48964 0.0
C4507 C 0.31191 0.81837 0.49259 0.0
C4508 C 0.30669 0.82554 0.48451 0.0
C4509 C 0.30424 0.82151 0.47349 0.0
H4510 H 0.31379 0.8215 0.50112 0.0
H4511 H 0.28975 0.78251 0.39416 0.0
H4512 H 0.60808 0.19318 0.69789 0.0
H4513 H 0.59089 0.20031 0.7074 0.0
H4514 H 0.61158 0.22585 0.72476 0.0
H4515 H 0.62882 0.21857 0.71555 0.0
H4516 H 0.59584 0.21718 0.73907 0.0
H4517 H 0.59611 0.23253 0.70073 0.0
H4518 H 0.59669 0.2316 0.67963 0.0
H4519 H 0.56547 0.2115 0.67942 0.0
H4520 H 0.5648 0.21218 0.70054 0.0
H4521 H 0.54887 0.26203 0.73722 0.0
H4522 H 0.56317 0.25069 0.72716 0.0
H4523 H 0.55461 0.22141 0.74834 0.0
H4524 H 0.54017 0.23282 0.7584 0.0
H4525 H 0.56352 0.23078 0.7148 0.0
H4526 H 0.5807 0.20918 0.75586 0.0
H4527 H 0.58099 0.21244 0.77676 0.0
H4528 H 0.57892 0.24875 0.77108 0.0
H4529 H 0.57878 0.2457 0.75019 0.0
C4530 C 0.60901 0.20019 0.70387 0.0
C4531 C 0.61986 0.20534 0.70588 0.0
C4532 C 0.59914 0.20433 0.70924 0.0
C4533 C 0.59989 0.21372 0.71671 0.0
C4534 C 0.61075 0.21862 0.71902 0.0
C4535 C 0.6206 0.21451 0.71365 0.0
C4536 C 0.58935 0.21877 0.7218 0.0
C4537 C 0.58873 0.22004 0.73375 0.0
C4538 C 0.58011 0.2227 0.7149 0.0
C4539 C 0.58048 0.22229 0.70221 0.0
C4540 C 0.58942 0.22783 0.69619 0.0
C4541 C 0.58976 0.22736 0.68422 0.0
C4542 C 0.58114 0.22146 0.67819 0.0
C4543 C 0.57215 0.21604 0.68411 0.0
C4544 C 0.57179 0.21647 0.69607 0.0
C4545 C 0.54984 0.25308 0.7395 0.0
C4546 C 0.5434 0.24826 0.74852 0.0
C4547 C 0.558 0.24661 0.73376 0.0
C4548 C 0.56005 0.23522 0.73704 0.0
C4549 C 0.55322 0.2302 0.7457 0.0
C4550 C 0.54493 0.23667 0.75138 0.0
C4551 C 0.56998 0.22906 0.73205 0.0
C4552 C 0.57051 0.22766 0.72012 0.0
C4553 C 0.57926 0.22526 0.73893 0.0
C4554 C 0.57958 0.22719 0.75148 0.0
C4555 C 0.58034 0.21785 0.75909 0.0
C4556 C 0.58048 0.21966 0.77093 0.0
C4557 C 0.57992 0.23079 0.77525 0.0
C4558 C 0.57929 0.24013 0.76774 0.0
C4559 C 0.57918 0.23836 0.7559 0.0
H4560 H 0.58 0.23217 0.78442 0.0
H4561 H 0.58141 0.22111 0.66893 0.0
H4562 H 0.31123 0.1252 0.70855 0.0
H4563 H 0.3016 0.10836 0.71686 0.0
H4564 H 0.33402 0.09088 0.71861 0.0
H4565 H 0.34365 0.10755 0.70998 0.0
H4566 H 0.31724 0.07638 0.71196 0.0
H4567 H 0.32304 0.10341 0.74224 0.0
H4568 H 0.32184 0.12212 0.75184 0.0
H4569 H 0.28494 0.12019 0.75031 0.0
H4570 H 0.28593 0.10152 0.74055 0.0
H4571 H 0.28861 0.0493 0.76753 0.0
H4572 H 0.30097 0.06331 0.75764 0.0
H4573 H 0.2852 0.05397 0.72536 0.0
H4574 H 0.27321 0.03961 0.73527 0.0
H4575 H 0.29477 0.08156 0.74752 0.0
H4576 H 0.30235 0.06136 0.70299 0.0
H4577 H 0.30509 0.04229 0.6945 0.0
H4578 H 0.31814 0.0297 0.72663 0.0
H4579 H 0.31562 0.04873 0.73526 0.0
C4580 C 0.31629 0.11771 0.71054 0.0
C4581 C 0.32824 0.11778 0.70867 0.0
C4582 C 0.31078 0.10812 0.71538 0.0
C4583 C 0.3171 0.09839 0.71851 0.0
C4584 C 0.32896 0.09829 0.71632 0.0
C4585 C 0.33447 0.10788 0.71148 0.0
C4586 C 0.31144 0.08851 0.72443 0.0
C4587 C 0.31231 0.0775 0.71973 0.0
C4588 C 0.30519 0.0899 0.7347 0.0
C4589 C 0.30456 0.10113 0.74056 0.0
C4590 C 0.31467 0.10702 0.74387 0.0
C4591 C 0.31403 0.11761 0.74935 0.0
C4592 C 0.30332 0.12236 0.75165 0.0
C4593 C 0.29323 0.11651 0.7485 0.0
C4594 C 0.29383 0.10592 0.743 0.0
C4595 C 0.2881 0.05001 0.75828 0.0
C4596 C 0.28014 0.0433 0.7521 0.0
C4597 C 0.29506 0.05808 0.75264 0.0
C4598 C 0.29408 0.05974 0.74072 0.0
C4599 C 0.28633 0.05275 0.73451 0.0
C4600 C 0.27948 0.04453 0.74015 0.0
C4601 C 0.30047 0.06936 0.73503 0.0
C4602 C 0.29969 0.08037 0.73976 0.0
C4603 C 0.307 0.0679 0.72494 0.0
C4604 C 0.30869 0.05645 0.7198 0.0
C4605 C 0.30585 0.05454 0.70823 0.0
C4606 C 0.30735 0.04373 0.7034 0.0
C4607 C 0.31175 0.03478 0.71003 0.0
C4608 C 0.31469 0.03663 0.72151 0.0
C4609 C 0.31321 0.04742 0.72638 0.0
H4610 H 0.3129 0.02642 0.70628 0.0
H4611 H 0.30284 0.13055 0.7559 0.0
H4612 H 0.4184 0.81926 0.68853 0.0
H4613 H 0.43493 0.81193 0.69915 0.0
H4614 H 0.41671 0.81614 0.7309 0.0
H4615 H 0.40007 0.82343 0.72031 0.0
H4616 H 0.43898 0.8229 0.73315 0.0
H4617 H 0.41885 0.78982 0.71842 0.0
H4618 H 0.40986 0.77776 0.70348 0.0
H4619 H 0.44221 0.77576 0.68606 0.0
H4620 H 0.45136 0.78794 0.70083 0.0
H4621 H 0.46953 0.78481 0.76944 0.0
H4622 H 0.45594 0.79578 0.75794 0.0
H4623 H 0.47576 0.78907 0.72762 0.0
H4624 H 0.48927 0.77774 0.73913 0.0
H4625 H 0.4537 0.78438 0.7238 0.0
H4626 H 0.47421 0.81638 0.73945 0.0
H4627 H 0.4831 0.82828 0.75458 0.0
H4628 H 0.45015 0.83226 0.77041 0.0
H4629 H 0.44107 0.82025 0.75546 0.0
C4630 C 0.41785 0.81858 0.69777 0.0
C4631 C 0.4078 0.82185 0.70353 0.0
C4632 C 0.42735 0.8144 0.70384 0.0
C4633 C 0.42704 0.81331 0.71584 0.0
C4634 C 0.41718 0.81689 0.72166 0.0
C4635 C 0.40766 0.82109 0.71558 0.0
C4636 C 0.43689 0.80818 0.72227 0.0
C4637 C 0.44213 0.81443 0.73118 0.0
C4638 C 0.44123 0.79725 0.71953 0.0
C4639 C 0.43576 0.78989 0.71067 0.0
C4640 C 0.42402 0.78688 0.71136 0.0
C4641 C 0.4189 0.78001 0.70293 0.0
C4642 C 0.42545 0.77602 0.69381 0.0
C4643 C 0.43714 0.77887 0.69312 0.0
C4644 C 0.4423 0.78575 0.70152 0.0
C4645 C 0.4711 0.78579 0.76035 0.0
C4646 C 0.48047 0.78034 0.7552 0.0
C4647 C 0.46334 0.79215 0.75377 0.0
C4648 C 0.4648 0.79334 0.74188 0.0
C4649 C 0.47442 0.7883 0.73677 0.0
C4650 C 0.48222 0.78192 0.74337 0.0
C4651 C 0.4558 0.79907 0.73474 0.0
C4652 C 0.45066 0.79291 0.72571 0.0
C4653 C 0.45155 0.81008 0.73739 0.0
C4654 C 0.45697 0.81734 0.74638 0.0
C4655 C 0.46887 0.81972 0.7462 0.0
C4656 C 0.47394 0.8265 0.75474 0.0
C4657 C 0.4672 0.831 0.76346 0.0
C4658 C 0.45536 0.82876 0.76365 0.0
C4659 C 0.45025 0.82198 0.75514 0.0
H4660 H 0.47114 0.83624 0.77006 0.0
H4661 H 0.42147 0.7707 0.68729 0.0
H4662 H 0.7071 0.91025 0.69411 0.0
H4663 H 0.71679 0.92723 0.70204 0.0
H4664 H 0.70044 0.92095 0.73461 0.0
H4665 H 0.69079 0.904 0.72678 0.0
H4666 H 0.69929 0.94298 0.72936 0.0
H4667 H 0.72903 0.91485 0.73 0.0
H4668 H 0.74185 0.90031 0.72196 0.0
H4669 H 0.7561 0.9254 0.69882 0.0
H4670 H 0.74325 0.94006 0.70663 0.0
H4671 H 0.73628 0.97353 0.76781 0.0
H4672 H 0.72492 0.95953 0.75683 0.0
H4673 H 0.74011 0.97221 0.72551 0.0
H4674 H 0.75139 0.9864 0.73653 0.0
H4675 H 0.74169 0.94825 0.7284 0.0
H4676 H 0.71275 0.97685 0.72953 0.0
H4677 H 0.70024 0.9911 0.7385 0.0
H4678 H 0.68474 0.96471 0.75931 0.0
H4679 H 0.69729 0.95032 0.75058 0.0
C4680 C 0.70565 0.91241 0.70299 0.0
C4681 C 0.69812 0.90573 0.70977 0.0
C4682 C 0.71119 0.92215 0.70752 0.0
C4683 C 0.70941 0.92538 0.71896 0.0
C4684 C 0.70191 0.91872 0.72574 0.0
C4685 C 0.69637 0.90901 0.72122 0.0
C4686 C 0.71528 0.9357 0.72393 0.0
C4687 C 0.70857 0.94407 0.72922 0.0
C4688 C 0.72738 0.93732 0.72354 0.0
C4689 C 0.73508 0.92851 0.7188 0.0
C4690 C 0.73482 0.91724 0.72312 0.0
C4691 C 0.74211 0.90898 0.71862 0.0
C4692 C 0.74976 0.91192 0.70985 0.0
C4693 C 0.75015 0.92313 0.70559 0.0
C4694 C 0.74288 0.93142 0.71005 0.0
C4695 C 0.73694 0.97353 0.75855 0.0
C4696 C 0.7446 0.98112 0.75299 0.0
C4697 C 0.73048 0.96551 0.75228 0.0
C4698 C 0.73165 0.96481 0.74033 0.0
C4699 C 0.73905 0.97261 0.73472 0.0
C4700 C 0.7454 0.98077 0.74099 0.0
C4701 C 0.7257 0.95543 0.73392 0.0
C4702 C 0.7324 0.94722 0.72839 0.0
C4703 C 0.71361 0.9539 0.73419 0.0
C4704 C 0.70603 0.96252 0.73946 0.0
C4705 C 0.70675 0.9741 0.73609 0.0
C4706 C 0.69964 0.9822 0.74112 0.0
C4707 C 0.69172 0.97881 0.74949 0.0
C4708 C 0.69089 0.96732 0.75283 0.0
C4709 C 0.69799 0.95918 0.74783 0.0
H4710 H 0.68622 0.9851 0.75337 0.0
H4711 H 0.75539 0.90552 0.70639 0.0
H4712 H 0.60762 0.82857 0.33595 0.0
H4713 H 0.59072 0.82055 0.32603 0.0
H4714 H 0.61112 0.79251 0.314 0.0
H4715 H 0.62804 0.80058 0.32366 0.0
H4716 H 0.59797 0.80086 0.29714 0.0
H4717 H 0.59258 0.78905 0.3363 0.0
H4718 H 0.59063 0.79188 0.35712 0.0
H4719 H 0.56094 0.81268 0.35135 0.0
H4720 H 0.56281 0.81009 0.33047 0.0
H4721 H 0.55808 0.75788 0.28245 0.0
H4722 H 0.57198 0.76839 0.29423 0.0
H4723 H 0.54891 0.79691 0.29597 0.0
H4724 H 0.53505 0.78662 0.28367 0.0
H4725 H 0.56206 0.79037 0.31773 0.0
H4726 H 0.56679 0.79973 0.27795 0.0
H4727 H 0.56916 0.79568 0.2574 0.0
H4728 H 0.60108 0.77893 0.26456 0.0
H4729 H 0.5986 0.78231 0.28519 0.0
C4730 C 0.60852 0.82075 0.33111 0.0
C4731 C 0.61918 0.81519 0.33064 0.0
C4732 C 0.59882 0.81612 0.32553 0.0
C4733 C 0.5996 0.80585 0.31936 0.0
C4734 C 0.61028 0.80041 0.31874 0.0
C4735 C 0.61994 0.805 0.32433 0.0
C4736 C 0.58939 0.80075 0.31344 0.0
C4737 C 0.59015 0.7985 0.30167 0.0
C4738 C 0.57906 0.79792 0.31928 0.0
C4739 C 0.57792 0.79949 0.33182 0.0
C4740 C 0.5857 0.79431 0.33947 0.0
C4741 C 0.5846 0.79585 0.35128 0.0
C4742 C 0.57569 0.80249 0.35556 0.0
C4743 C 0.56785 0.80756 0.34803 0.0
C4744 C 0.56892 0.80606 0.3362 0.0
C4745 C 0.55589 0.76637 0.28537 0.0
C4746 C 0.54553 0.7715 0.28189 0.0
C4747 C 0.56383 0.77233 0.29217 0.0
C4748 C 0.56154 0.78348 0.29583 0.0
C4749 C 0.55084 0.78831 0.29319 0.0
C4750 C 0.54291 0.7824 0.28621 0.0
C4751 C 0.57078 0.7903 0.30152 0.0
C4752 C 0.56983 0.79287 0.3132 0.0
C4753 C 0.58101 0.79333 0.29563 0.0
C4754 C 0.58241 0.79112 0.28318 0.0
C4755 C 0.5742 0.79496 0.27518 0.0
C4756 C 0.57555 0.79278 0.2635 0.0
C4757 C 0.58521 0.78695 0.25967 0.0
C4758 C 0.59353 0.78332 0.26752 0.0
C4759 C 0.59213 0.78533 0.27922 0.0
H4760 H 0.58627 0.78531 0.25062 0.0
H4761 H 0.57485 0.80367 0.3647 0.0
H4762 H 0.71804 0.12567 0.31676 0.0
H4763 H 0.72548 0.10848 0.30768 0.0
H4764 H 0.70129 0.08758 0.32668 0.0
H4765 H 0.69395 0.10475 0.336 0.0
H4766 H 0.72249 0.07827 0.32711 0.0
H4767 H 0.69691 0.09284 0.29838 0.0
H4768 H 0.68879 0.10745 0.28542 0.0
H4769 H 0.72136 0.11114 0.26853 0.0
H4770 H 0.72973 0.09667 0.28149 0.0
H4771 H 0.73321 0.0373 0.27474 0.0
H4772 H 0.72155 0.05096 0.28551 0.0
H4773 H 0.75187 0.06229 0.3039 0.0
H4774 H 0.76352 0.04882 0.29302 0.0
H4775 H 0.7249 0.0747 0.28484 0.0
H4776 H 0.74325 0.07045 0.331 0.0
H4777 H 0.7506 0.05539 0.34391 0.0
H4778 H 0.73073 0.02998 0.32578 0.0
H4779 H 0.72313 0.04491 0.31287 0.0
C4780 C 0.71431 0.11742 0.31905 0.0
C4781 C 0.70538 0.11662 0.32713 0.0
C4782 C 0.71852 0.10759 0.31377 0.0
C4783 C 0.71389 0.09671 0.31641 0.0
C4784 C 0.70499 0.09587 0.32448 0.0
C4785 C 0.70073 0.10571 0.32973 0.0
C4786 C 0.71851 0.08623 0.31089 0.0
C4787 C 0.72298 0.07748 0.31786 0.0
C4788 C 0.719 0.08507 0.29882 0.0
C4789 C 0.71397 0.09373 0.29096 0.0
C4790 C 0.70237 0.09682 0.29195 0.0
C4791 C 0.69771 0.10507 0.2846 0.0
C4792 C 0.70456 0.11024 0.27617 0.0
C4793 C 0.71607 0.10714 0.27506 0.0
C4794 C 0.72077 0.0989 0.2824 0.0
C4795 C 0.73729 0.04248 0.28132 0.0
C4796 C 0.74922 0.04194 0.28316 0.0
C4797 C 0.73066 0.05035 0.28738 0.0
C4798 C 0.73583 0.05765 0.29552 0.0
C4799 C 0.74767 0.05669 0.29775 0.0
C4800 C 0.75431 0.04897 0.29157 0.0
C4801 C 0.72913 0.06689 0.30106 0.0
C4802 C 0.72432 0.07544 0.29408 0.0
C4803 C 0.72826 0.06782 0.31311 0.0
C4804 C 0.7327 0.0588 0.3209 0.0
C4805 C 0.74041 0.06166 0.32979 0.0
C4806 C 0.74463 0.05314 0.33711 0.0
C4807 C 0.74116 0.04173 0.33564 0.0
C4808 C 0.73344 0.03882 0.32688 0.0
C4809 C 0.72919 0.0473 0.31955 0.0
H4810 H 0.74444 0.03515 0.34131 0.0
H4811 H 0.70094 0.11662 0.27049 0.0
H4812 H 0.39467 0.22043 0.32413 0.0
H4813 H 0.41228 0.23035 0.31806 0.0
H4814 H 0.4269 0.1981 0.30833 0.0
H4815 H 0.40947 0.18806 0.31475 0.0
H4816 H 0.44293 0.21133 0.31851 0.0
H4817 H 0.41509 0.21616 0.28845 0.0
H4818 H 0.39657 0.22166 0.27975 0.0
H4819 H 0.40236 0.25654 0.29004 0.0
H4820 H 0.42084 0.25121 0.29896 0.0
H4821 H 0.48567 0.23393 0.27947 0.0
H4822 H 0.4705 0.22361 0.29006 0.0
H4823 H 0.4552 0.25583 0.29893 0.0
H4824 H 0.47016 0.26606 0.28817 0.0
H4825 H 0.43973 0.24245 0.2896 0.0
H4826 H 0.46807 0.23759 0.31925 0.0
H4827 H 0.48682 0.23195 0.32734 0.0
H4828 H 0.48042 0.19711 0.31726 0.0
H4829 H 0.46169 0.20257 0.30897 0.0
C4830 C 0.40168 0.2154 0.32086 0.0
C4831 C 0.40057 0.20342 0.31987 0.0
C4832 C 0.41173 0.22112 0.31729 0.0
C4833 C 0.42089 0.21501 0.31257 0.0
C4834 C 0.41996 0.20302 0.31189 0.0
C4835 C 0.40992 0.1973 0.31546 0.0
C4836 C 0.43129 0.22113 0.30803 0.0
C4837 C 0.44224 0.21807 0.31211 0.0
C4838 C 0.43044 0.23005 0.29979 0.0
C4839 C 0.41928 0.23325 0.2945 0.0
C4840 C 0.41236 0.22498 0.28896 0.0
C4841 C 0.40188 0.22807 0.28397 0.0
C4842 C 0.39827 0.23943 0.28438 0.0
C4843 C 0.40515 0.24774 0.28975 0.0
C4844 C 0.41563 0.24469 0.29478 0.0
C4845 C 0.47929 0.23878 0.28403 0.0
C4846 C 0.47911 0.25078 0.28306 0.0
C4847 C 0.47058 0.23289 0.29005 0.0
C4848 C 0.46164 0.23892 0.29531 0.0
C4849 C 0.46193 0.25096 0.29492 0.0
C4850 C 0.47054 0.25681 0.28885 0.0
C4851 C 0.4514 0.2328 0.30019 0.0
C4852 C 0.44045 0.2358 0.29609 0.0
C4853 C 0.45229 0.22383 0.30836 0.0
C4854 C 0.46352 0.22051 0.31339 0.0
C4855 C 0.4707 0.22874 0.31868 0.0
C4856 C 0.48132 0.22557 0.32332 0.0
C4857 C 0.48482 0.21419 0.32279 0.0
C4858 C 0.4777 0.20593 0.31765 0.0
C4859 C 0.46707 0.20905 0.31299 0.0
H4860 H 0.49305 0.21175 0.32637 0.0
H4861 H 0.39016 0.24181 0.2805 0.0
H4862 H 0.32704 0.91347 0.33566 0.0
H4863 H 0.31744 0.93046 0.328 0.0
H4864 H 0.31964 0.91674 0.29385 0.0
H4865 H 0.32916 0.89977 0.30142 0.0
H4866 H 0.32588 0.93873 0.29378 0.0
H4867 H 0.29421 0.9165 0.30916 0.0
H4868 H 0.28346 0.90603 0.32418 0.0
H4869 H 0.28229 0.93658 0.34445 0.0
H4870 H 0.29318 0.9472 0.32961 0.0
H4871 H 0.28348 0.96825 0.26227 0.0
H4872 H 0.29573 0.95475 0.27252 0.0
H4873 H 0.29172 0.9741 0.3036 0.0
H4874 H 0.2793 0.98768 0.29328 0.0
H4875 H 0.28757 0.95118 0.30703 0.0
H4876 H 0.31749 0.97389 0.29038 0.0
H4877 H 0.32785 0.9842 0.275 0.0
H4878 H 0.33208 0.95266 0.25684 0.0
H4879 H 0.3216 0.94217 0.27203 0.0
C4880 C 0.32537 0.91401 0.32653 0.0
C4881 C 0.32893 0.90523 0.31917 0.0
C4882 C 0.31989 0.92375 0.32215 0.0
C4883 C 0.31776 0.9249 0.31032 0.0
C4884 C 0.32125 0.91612 0.30299 0.0
C4885 C 0.32673 0.90642 0.30734 0.0
C4886 C 0.31199 0.93523 0.30549 0.0
C4887 C 0.31746 0.94139 0.29663 0.0
C4888 C 0.30116 0.93897 0.30942 0.0
C4889 C 0.29463 0.9326 0.31834 0.0
C4890 C 0.29175 0.92096 0.31687 0.0
C4891 C 0.28561 0.915 0.32534 0.0
C4892 C 0.28223 0.92063 0.33528 0.0
C4893 C 0.28494 0.93223 0.33676 0.0
C4894 C 0.29109 0.93822 0.32832 0.0
C4895 C 0.28536 0.96974 0.27124 0.0
C4896 C 0.28044 0.97902 0.27697 0.0
C4897 C 0.2924 0.96203 0.2771 0.0
C4898 C 0.29471 0.9634 0.28884 0.0
C4899 C 0.29008 0.97287 0.29454 0.0
C4900 C 0.28308 0.98067 0.28863 0.0
C4901 C 0.30136 0.95452 0.29517 0.0
C4902 C 0.29606 0.94862 0.3043 0.0
C4903 C 0.31234 0.95098 0.29147 0.0
C4904 C 0.31869 0.95725 0.28232 0.0
C4905 C 0.32056 0.96916 0.28306 0.0
C4906 C 0.32646 0.97504 0.27438 0.0
C4907 C 0.3306 0.96909 0.26494 0.0
C4908 C 0.32886 0.95725 0.26416 0.0
C4909 C 0.32295 0.95133 0.27281 0.0
H4910 H 0.33517 0.97366 0.25822 0.0
H4911 H 0.27747 0.916 0.34182 0.0
H4912 H 0.68519 0.10805 0.71144 0.0
H4913 H 0.69557 0.09131 0.71836 0.0
H4914 H 0.72781 0.10777 0.70965 0.0
H4915 H 0.71746 0.12464 0.70277 0.0
H4916 H 0.72796 0.08523 0.70404 0.0
H4917 H 0.71857 0.10722 0.73714 0.0
H4918 H 0.70592 0.11761 0.75029 0.0
H4919 H 0.68635 0.08675 0.75649 0.0
H4920 H 0.69878 0.07621 0.74324 0.0
H4921 H 0.76551 0.05477 0.74183 0.0
H4922 H 0.75417 0.06838 0.73061 0.0
H4923 H 0.72317 0.04953 0.73909 0.0
H4924 H 0.73456 0.03584 0.75034 0.0
H4925 H 0.72171 0.07239 0.74416 0.0
H4926 H 0.73249 0.05011 0.71187 0.0
H4927 H 0.74573 0.04006 0.69905 0.0
H4928 H 0.76343 0.07178 0.69173 0.0
H4929 H 0.75039 0.082 0.70464 0.0
C4930 C 0.69449 0.10816 0.71103 0.0
C4931 C 0.70047 0.1178 0.70666 0.0
C4932 C 0.70042 0.09854 0.71497 0.0
C4933 C 0.7125 0.09831 0.71469 0.0
C4934 C 0.71849 0.10773 0.70996 0.0
C4935 C 0.71255 0.11737 0.70601 0.0
C4936 C 0.71884 0.0884 0.71969 0.0
C4937 C 0.72668 0.08249 0.71284 0.0
C4938 C 0.71702 0.08465 0.73112 0.0
C4939 C 0.70953 0.09096 0.73909 0.0
C4940 C 0.7115 0.10267 0.74123 0.0
C4941 C 0.70439 0.10858 0.74871 0.0
C4942 C 0.69531 0.10285 0.75419 0.0
C4943 C 0.69336 0.09118 0.75222 0.0
C4944 C 0.70045 0.08523 0.74473 0.0
C4945 C 0.75631 0.05337 0.74105 0.0
C4946 C 0.75092 0.04422 0.74692 0.0
C4947 C 0.74983 0.06115 0.73463 0.0
C4948 C 0.7378 0.06 0.73398 0.0
C4949 C 0.73244 0.05058 0.73944 0.0
C4950 C 0.73895 0.04271 0.74578 0.0
C4951 C 0.73082 0.06919 0.72851 0.0
C4952 C 0.7229 0.07503 0.73531 0.0
C4953 C 0.73265 0.07292 0.71708 0.0
C4954 C 0.74052 0.0668 0.70931 0.0
C4955 C 0.73927 0.05493 0.70761 0.0
C4956 C 0.74672 0.0492 0.7003 0.0
C4957 C 0.75543 0.05527 0.6946 0.0
C4958 C 0.75669 0.06709 0.69617 0.0
C4959 C 0.74925 0.07285 0.70347 0.0
H4960 H 0.7612 0.05082 0.68895 0.0
H4961 H 0.68982 0.10744 0.75999 0.0
H4962 H 0.69715 0.89821 0.30127 0.0
H4963 H 0.70709 0.91489 0.29316 0.0
H4964 H 0.70958 0.93 0.32674 0.0
H4965 H 0.69929 0.9134 0.33491 0.0
H4966 H 0.70342 0.94585 0.31069 0.0
H4967 H 0.73291 0.91819 0.31492 0.0
H4968 H 0.74217 0.89941 0.3131 0.0
H4969 H 0.74047 0.90219 0.27642 0.0
H4970 H 0.73104 0.92092 0.27802 0.0
H4971 H 0.74642 0.98729 0.29126 0.0
H4972 H 0.7348 0.97286 0.30156 0.0
H4973 H 0.72998 0.95406 0.27013 0.0
H4974 H 0.74156 0.96838 0.25989 0.0
H4975 H 0.73811 0.94054 0.28686 0.0
H4976 H 0.70779 0.96817 0.28298 0.0
H4977 H 0.69893 0.98709 0.28521 0.0
H4978 H 0.70285 0.98461 0.32175 0.0
H4979 H 0.71188 0.96572 0.31973 0.0
C4980 C 0.69971 0.90511 0.30694 0.0
C4981 C 0.69739 0.90445 0.31875 0.0
C4982 C 0.7055 0.91461 0.3023 0.0
C4983 C 0.7092 0.92367 0.30935 0.0
C4984 C 0.70683 0.92311 0.32114 0.0
C4985 C 0.70104 0.91356 0.32581 0.0
C4986 C 0.71554 0.93366 0.30432 0.0
C4987 C 0.71111 0.94472 0.30562 0.0
C4988 C 0.72552 0.9322 0.29761 0.0
C4989 C 0.73117 0.92092 0.2966 0.0
C4990 C 0.73442 0.91476 0.30647 0.0
C4991 C 0.73972 0.90413 0.30547 0.0
C4992 C 0.74189 0.8996 0.29465 0.0
C4993 C 0.73878 0.9057 0.2848 0.0
C4994 C 0.73347 0.91633 0.28574 0.0
C4995 C 0.7426 0.98024 0.28652 0.0
C4996 C 0.74495 0.97891 0.27479 0.0
C4997 C 0.736 0.97197 0.29241 0.0
C4998 C 0.73157 0.96231 0.28663 0.0
C4999 C 0.73338 0.96136 0.2748 0.0
C5000 C 0.73997 0.96957 0.26894 0.0
C5001 C 0.72582 0.9527 0.29295 0.0
C5002 C 0.73044 0.9417 0.29194 0.0
C5003 C 0.71608 0.95425 0.29998 0.0
C5004 C 0.71063 0.96559 0.3012 0.0
C5005 C 0.70686 0.9717 0.29149 0.0
C5006 C 0.70178 0.98241 0.29271 0.0
C5007 C 0.70036 0.98707 0.30361 0.0
C5008 C 0.70397 0.981 0.31331 0.0
C5009 C 0.70906 0.97029 0.31213 0.0
H5010 H 0.69642 0.99536 0.30454 0.0
H5011 H 0.74599 0.89137 0.2939 0.0
H5012 H 0.6225 0.19441 0.30135 0.0
H5013 H 0.60587 0.20445 0.29365 0.0
H5014 H 0.59457 0.21169 0.32796 0.0
H5015 H 0.6111 0.2013 0.33578 0.0
H5016 H 0.57657 0.20499 0.31454 0.0
H5017 H 0.60724 0.23243 0.3117 0.0
H5018 H 0.62644 0.23996 0.30649 0.0
H5019 H 0.61888 0.23442 0.27087 0.0
H5020 H 0.59969 0.22668 0.27588 0.0
H5021 H 0.53634 0.2478 0.29439 0.0
H5022 H 0.55089 0.23627 0.30437 0.0
H5023 H 0.56627 0.22817 0.27188 0.0
H5024 H 0.55194 0.23982 0.262 0.0
H5025 H 0.58202 0.23613 0.2859 0.0
H5026 H 0.55152 0.20787 0.28895 0.0
H5027 H 0.53222 0.20071 0.2943 0.0
H5028 H 0.53929 0.20831 0.32963 0.0
H5029 H 0.5586 0.21565 0.32446 0.0
C5030 C 0.61645 0.19804 0.30729 0.0
C5031 C 0.61817 0.197 0.31921 0.0
C5032 C 0.60697 0.20389 0.30286 0.0
C5033 C 0.59899 0.20895 0.3102 0.0
C5034 C 0.60061 0.20789 0.32211 0.0
C5035 C 0.61013 0.20203 0.32657 0.0
C5036 C 0.589 0.21532 0.30536 0.0
C5037 C 0.57776 0.21191 0.3084 0.0
C5038 C 0.59049 0.22426 0.29722 0.0
C5039 C 0.60206 0.22886 0.29418 0.0
C5040 C 0.60971 0.23271 0.30276 0.0
C5041 C 0.62058 0.23704 0.29984 0.0
C5042 C 0.62389 0.23764 0.28836 0.0
C5043 C 0.61631 0.23393 0.27976 0.0
C5044 C 0.60543 0.22958 0.28264 0.0
C5045 C 0.54262 0.24325 0.2894 0.0
C5046 C 0.543 0.24465 0.27743 0.0
C5047 C 0.55097 0.2367 0.29509 0.0
C5048 C 0.55975 0.23134 0.28889 0.0
C5049 C 0.55967 0.23225 0.27688 0.0
C5050 C 0.55142 0.23883 0.27123 0.0
C5051 C 0.56956 0.2256 0.29481 0.0
C5052 C 0.5808 0.2292 0.29204 0.0
C5053 C 0.56804 0.21687 0.30318 0.0
C5054 C 0.55646 0.21242 0.3063 0.0
C5055 C 0.54893 0.20809 0.29784 0.0
C5056 C 0.53799 0.20399 0.30085 0.0
C5057 C 0.53452 0.20409 0.31229 0.0
C5058 C 0.54199 0.20825 0.32076 0.0
C5059 C 0.55293 0.21238 0.31781 0.0
H5060 H 0.52605 0.20091 0.3146 0.0
H5061 H 0.63231 0.241 0.28611 0.0
H5062 H 0.30028 0.119 0.33698 0.0
H5063 H 0.29377 0.10144 0.32756 0.0
H5064 H 0.30427 0.11524 0.29486 0.0
H5065 H 0.31067 0.13304 0.30423 0.0
H5066 H 0.28256 0.10221 0.29423 0.0
H5067 H 0.32191 0.09843 0.30692 0.0
H5068 H 0.33776 0.09966 0.32101 0.0
H5069 H 0.32003 0.07572 0.34297 0.0
H5070 H 0.30398 0.07448 0.32907 0.0
H5071 H 0.29353 0.04757 0.26637 0.0
H5072 H 0.30101 0.06391 0.27751 0.0
H5073 H 0.27711 0.05593 0.30447 0.0
H5074 H 0.26957 0.03958 0.2934 0.0
H5075 H 0.30386 0.06761 0.30673 0.0
H5076 H 0.26515 0.06814 0.29337 0.0
H5077 H 0.25252 0.05765 0.27744 0.0
H5078 H 0.26945 0.09525 0.25172 0.0
H5079 H 0.28174 0.09945 0.27179 0.0
C5080 C 0.30103 0.11844 0.32775 0.0
C5081 C 0.30605 0.12747 0.32138 0.0
C5082 C 0.29732 0.10835 0.32238 0.0
C5083 C 0.29854 0.107 0.3105 0.0
C5084 C 0.30319 0.11611 0.30402 0.0
C5085 C 0.30697 0.12622 0.30942 0.0
C5086 C 0.29599 0.09567 0.30515 0.0
C5087 C 0.28721 0.09463 0.29684 0.0
C5088 C 0.30202 0.08579 0.30868 0.0
C5089 C 0.3117 0.08645 0.31701 0.0
C5090 C 0.32135 0.0935 0.31479 0.0
C5091 C 0.33038 0.09418 0.32274 0.0
C5092 C 0.32989 0.08779 0.33289 0.0
C5093 C 0.32038 0.08068 0.33511 0.0
C5094 C 0.31133 0.07997 0.3272 0.0
C5095 C 0.29009 0.0491 0.27483 0.0
C5096 C 0.28056 0.04264 0.27877 0.0
C5097 C 0.29436 0.05846 0.2812 0.0
C5098 C 0.28856 0.06196 0.2911 0.0
C5099 C 0.2809 0.05404 0.29624 0.0
C5100 C 0.27665 0.04462 0.28996 0.0
C5101 C 0.29031 0.07384 0.29586 0.0
C5102 C 0.29906 0.07509 0.30406 0.0
C5103 C 0.28407 0.0839 0.29219 0.0
C5104 C 0.27449 0.08349 0.28347 0.0
C5105 C 0.26582 0.0717 0.28487 0.0
C5106 C 0.2574 0.06524 0.27505 0.0
C5107 C 0.25602 0.07057 0.26163 0.0
C5108 C 0.26829 0.08941 0.25901 0.0
C5109 C 0.27565 0.09237 0.27165 0.0
H5110 H 0.25053 0.06588 0.25604 0.0
H5111 H 0.33689 0.08834 0.33903 0.0
H5112 H 0.4155 0.80973 0.34143 0.0
H5113 H 0.43206 0.80281 0.33088 0.0
H5114 H 0.41985 0.81977 0.30031 0.0
H5115 H 0.40299 0.82639 0.31072 0.0
H5116 H 0.4267 0.7986 0.29549 0.0
H5117 H 0.44289 0.83049 0.31621 0.0
H5118 H 0.44728 0.84199 0.33339 0.0
H5119 H 0.46571 0.81381 0.34812 0.0
H5120 H 0.46129 0.80209 0.33109 0.0
H5121 H 0.47542 0.78961 0.26227 0.0
H5122 H 0.46147 0.80028 0.2735 0.0
H5123 H 0.47321 0.78334 0.30429 0.0
H5124 H 0.48747 0.77293 0.29305 0.0
H5125 H 0.46684 0.80497 0.30897 0.0
H5126 H 0.45043 0.77292 0.28887 0.0
H5127 H 0.44642 0.76117 0.27178 0.0
H5128 H 0.4282 0.78907 0.25629 0.0
H5129 H 0.43235 0.8011 0.27318 0.0
C5130 C 0.41626 0.81194 0.33244 0.0
C5131 C 0.40784 0.81863 0.32695 0.0
C5132 C 0.42584 0.80807 0.32644 0.0
C5133 C 0.42733 0.81087 0.3148 0.0
C5134 C 0.41895 0.81753 0.30928 0.0
C5135 C 0.40935 0.8214 0.31529 0.0
C5136 C 0.43745 0.80659 0.30834 0.0
C5137 C 0.43548 0.80017 0.29835 0.0
C5138 C 0.44893 0.80831 0.3122 0.0
C5139 C 0.45168 0.81538 0.32241 0.0
C5140 C 0.44781 0.82672 0.32315 0.0
C5141 C 0.45032 0.83328 0.33285 0.0
C5142 C 0.45675 0.82863 0.34185 0.0
C5143 C 0.46072 0.8174 0.34115 0.0
C5144 C 0.45823 0.8108 0.33146 0.0
C5145 C 0.47526 0.78846 0.27149 0.0
C5146 C 0.48251 0.78048 0.27682 0.0
C5147 C 0.46722 0.79447 0.27789 0.0
C5148 C 0.46606 0.7924 0.28971 0.0
C5149 C 0.47388 0.78505 0.29518 0.0
C5150 C 0.48206 0.77914 0.28878 0.0
C5151 C 0.45608 0.79708 0.2961 0.0
C5152 C 0.45807 0.80349 0.30608 0.0
C5153 C 0.44458 0.79528 0.29229 0.0
C5154 C 0.4418 0.78795 0.28225 0.0
C5155 C 0.44562 0.77658 0.2818 0.0
C5156 C 0.44333 0.76987 0.27215 0.0
C5157 C 0.43707 0.77437 0.26295 0.0
C5158 C 0.43306 0.7856 0.26341 0.0
C5159 C 0.43539 0.79237 0.27302 0.0
H5160 H 0.43531 0.76916 0.25549 0.0
H5161 H 0.45868 0.83372 0.34936 0.0
H5162 H 0.30798 0.89992 0.70298 0.0
H5163 H 0.29729 0.91645 0.70977 0.0
H5164 H 0.32909 0.93288 0.72016 0.0
H5165 H 0.33983 0.91645 0.71333 0.0
H5166 H 0.31347 0.93439 0.73672 0.0
H5167 H 0.31395 0.94171 0.69613 0.0
H5168 H 0.31077 0.93714 0.67574 0.0
H5169 H 0.27462 0.93244 0.68189 0.0
H5170 H 0.27761 0.93684 0.70236 0.0
H5171 H 0.28981 0.98812 0.75015 0.0
H5172 H 0.30112 0.97407 0.73958 0.0
H5173 H 0.26993 0.9558 0.73044 0.0
H5174 H 0.25864 0.96982 0.7409 0.0
H5175 H 0.28554 0.95579 0.71278 0.0
H5176 H 0.28476 0.94714 0.75298 0.0
H5177 H 0.28729 0.95128 0.77355 0.0
H5178 H 0.32334 0.95779 0.7683 0.0
H5179 H 0.32098 0.95386 0.74764 0.0
C5180 C 0.31273 0.90711 0.70656 0.0
C5181 C 0.3248 0.90679 0.70761 0.0
C5182 C 0.30659 0.91658 0.71046 0.0
C5183 C 0.31237 0.926 0.71543 0.0
C5184 C 0.32441 0.92573 0.71641 0.0
C5185 C 0.33054 0.91628 0.71253 0.0
C5186 C 0.30588 0.93599 0.71991 0.0
C5187 C 0.30752 0.93918 0.7314 0.0
C5188 C 0.29785 0.94209 0.71311 0.0
C5189 C 0.29603 0.93951 0.7008 0.0
C5190 C 0.30534 0.93962 0.69315 0.0
C5191 C 0.30357 0.93708 0.68158 0.0
C5192 C 0.29251 0.93448 0.67753 0.0
C5193 C 0.28319 0.93445 0.68504 0.0
C5194 C 0.28491 0.93698 0.69663 0.0
C5195 C 0.28536 0.9813 0.7456 0.0
C5196 C 0.27335 0.98005 0.74639 0.0
C5197 C 0.29183 0.97321 0.73965 0.0
C5198 C 0.28639 0.96376 0.73435 0.0
C5199 C 0.27434 0.96297 0.73447 0.0
C5200 C 0.26789 0.97099 0.74047 0.0
C5201 C 0.29324 0.95422 0.72952 0.0
C5202 C 0.2916 0.95107 0.71802 0.0
C5203 C 0.3012 0.94807 0.73633 0.0
C5204 C 0.30267 0.95034 0.74875 0.0
C5205 C 0.29321 0.94954 0.75619 0.0
C5206 C 0.29461 0.95184 0.76787 0.0
C5207 C 0.30546 0.95482 0.77222 0.0
C5208 C 0.31494 0.95549 0.76491 0.0
C5209 C 0.31357 0.95323 0.75322 0.0
H5210 H 0.30654 0.95659 0.78126 0.0
H5211 H 0.29115 0.93251 0.66856 0.0
H5212 H 0.62399 0.79839 0.69962 0.0
H5213 H 0.60664 0.79077 0.70872 0.0
H5214 H 0.59349 0.82499 0.71174 0.0
H5215 H 0.61088 0.83271 0.70252 0.0
H5216 H 0.58981 0.81272 0.73118 0.0
H5217 H 0.58295 0.80693 0.69121 0.0
H5218 H 0.58742 0.80051 0.67165 0.0
H5219 H 0.58939 0.76572 0.6836 0.0
H5220 H 0.5851 0.77195 0.70327 0.0
H5221 H 0.53578 0.79011 0.74982 0.0
H5222 H 0.54949 0.80049 0.73744 0.0
H5223 H 0.56752 0.76904 0.73146 0.0
H5224 H 0.5538 0.75868 0.74362 0.0
H5225 H 0.56704 0.78182 0.71231 0.0
H5226 H 0.57621 0.78775 0.75231 0.0
H5227 H 0.57217 0.79386 0.77206 0.0
H5228 H 0.56616 0.82814 0.76012 0.0
H5229 H 0.57 0.82219 0.74026 0.0
C5230 C 0.61738 0.80432 0.70211 0.0
C5231 C 0.61882 0.81618 0.7002 0.0
C5232 C 0.60745 0.79994 0.70734 0.0
C5233 C 0.59863 0.80727 0.71074 0.0
C5234 C 0.60014 0.81914 0.70915 0.0
C5235 C 0.61011 0.82355 0.70391 0.0
C5236 C 0.5879 0.80247 0.71598 0.0
C5237 C 0.5847 0.80613 0.72694 0.0
C5238 C 0.5813 0.79373 0.71057 0.0
C5239 C 0.58378 0.78993 0.69873 0.0
C5240 C 0.58441 0.79792 0.68968 0.0
C5241 C 0.5869 0.79432 0.67857 0.0
C5242 C 0.58871 0.78272 0.67639 0.0
C5243 C 0.58799 0.7747 0.68531 0.0
C5244 C 0.58552 0.77827 0.69643 0.0
C5245 C 0.54248 0.78539 0.74559 0.0
C5246 C 0.54377 0.77361 0.74773 0.0
C5247 C 0.55039 0.79134 0.73862 0.0
C5248 C 0.55969 0.78559 0.73367 0.0
C5249 C 0.56047 0.77369 0.73519 0.0
C5250 C 0.55264 0.76777 0.74217 0.0
C5251 C 0.56907 0.79194 0.72757 0.0
C5252 C 0.57204 0.78855 0.71645 0.0
C5253 C 0.57549 0.8009 0.73285 0.0
C5254 C 0.57325 0.8045 0.74479 0.0
C5255 C 0.57394 0.79657 0.75389 0.0
C5256 C 0.5717 0.80001 0.7651 0.0
C5257 C 0.56887 0.81137 0.76734 0.0
C5258 C 0.56832 0.81934 0.75837 0.0
C5259 C 0.57053 0.81594 0.74713 0.0
H5260 H 0.56714 0.81402 0.77603 0.0
H5261 H 0.59064 0.77995 0.66778 0.0
H5262 H 0.39732 0.20865 0.71402 0.0
H5263 H 0.41417 0.21696 0.72369 0.0
H5264 H 0.43292 0.21661 0.6919 0.0
H5265 H 0.41621 0.208 0.68225 0.0
H5266 H 0.44651 0.21012 0.70942 0.0
H5267 H 0.42117 0.24115 0.70128 0.0
H5268 H 0.40283 0.25151 0.70134 0.0
H5269 H 0.40317 0.25171 0.73814 0.0
H5270 H 0.42145 0.2412 0.7383 0.0
H5271 H 0.47583 0.26517 0.73703 0.0
H5272 H 0.46175 0.25571 0.72436 0.0
H5273 H 0.46746 0.22364 0.742 0.0
H5274 H 0.48179 0.23309 0.75438 0.0
H5275 H 0.44217 0.24685 0.73003 0.0
H5276 H 0.46029 0.20108 0.7251 0.0
H5277 H 0.47908 0.19164 0.7236 0.0
H5278 H 0.49416 0.22269 0.7102 0.0
H5279 H 0.47544 0.23227 0.71147 0.0
C5280 C 0.40507 0.21018 0.70911 0.0
C5281 C 0.40537 0.20771 0.69733 0.0
C5282 C 0.41468 0.21503 0.71464 0.0
C5283 C 0.42477 0.21755 0.70849 0.0
C5284 C 0.42522 0.21478 0.69682 0.0
C5285 C 0.41562 0.20996 0.69128 0.0
C5286 C 0.43475 0.22335 0.71417 0.0
C5287 C 0.44557 0.21814 0.71394 0.0
C5288 C 0.4336 0.23395 0.71986 0.0
C5289 C 0.42262 0.24029 0.7198 0.0
C5290 C 0.41729 0.24332 0.70939 0.0
C5291 C 0.40691 0.24924 0.70938 0.0
C5292 C 0.40182 0.25224 0.71974 0.0
C5293 C 0.40712 0.24936 0.73013 0.0
C5294 C 0.41749 0.24343 0.73018 0.0
C5295 C 0.4743 0.25603 0.7379 0.0
C5296 C 0.47998 0.24977 0.74647 0.0
C5297 C 0.4662 0.25064 0.73077 0.0
C5298 C 0.46354 0.23892 0.73216 0.0
C5299 C 0.46949 0.23262 0.74057 0.0
C5300 C 0.47768 0.23799 0.74763 0.0
C5301 C 0.45396 0.23355 0.72545 0.0
C5302 C 0.44316 0.23883 0.72551 0.0
C5303 C 0.4552 0.22313 0.71942 0.0
C5304 C 0.46648 0.21742 0.71848 0.0
C5305 C 0.46761 0.20588 0.72179 0.0
C5306 C 0.47825 0.2005 0.72099 0.0
C5307 C 0.48782 0.20657 0.71684 0.0
C5308 C 0.48675 0.21801 0.71345 0.0
C5309 C 0.47613 0.22342 0.71422 0.0
H5310 H 0.49605 0.2024 0.71624 0.0
H5311 H 0.39379 0.25683 0.71972 0.0
H5312 H 0.70248 0.71559 0.12596 0.0
H5313 H 0.70954 0.72603 0.10912 0.0
H5314 H 0.71157 0.69431 0.09052 0.0
H5315 H 0.70445 0.68382 0.10729 0.0
H5316 H 0.7308 0.70669 0.0878 0.0
H5317 H 0.69045 0.71403 0.08462 0.0
H5318 H 0.67145 0.72024 0.0913 0.0
H5319 H 0.68498 0.75413 0.09722 0.0
H5320 H 0.70411 0.74808 0.09073 0.0
H5321 H 0.74692 0.73473 0.03619 0.0
H5322 H 0.73505 0.72319 0.04937 0.0
H5323 H 0.7305 0.75282 0.07074 0.0
H5324 H 0.74198 0.76439 0.05745 0.0
H5325 H 0.71141 0.74039 0.07074 0.0
H5326 H 0.7518 0.73287 0.0761 0.0
H5327 H 0.77114 0.72704 0.07004 0.0
H5328 H 0.75781 0.69386 0.06073 0.0
H5329 H 0.73835 0.69956 0.06659 0.0
C5330 C 0.70425 0.71084 0.11823 0.0
C5331 C 0.70289 0.69883 0.11803 0.0
C5332 C 0.70831 0.71683 0.10859 0.0
C5333 C 0.71102 0.71099 0.09848 0.0
C5334 C 0.70958 0.69902 0.09821 0.0
C5335 C 0.70553 0.69303 0.10784 0.0
C5336 C 0.71578 0.71728 0.08834 0.0
C5337 C 0.72644 0.71392 0.08394 0.0
C5338 C 0.71026 0.72689 0.08342 0.0
C5339 C 0.69874 0.73057 0.08727 0.0
C5340 C 0.6894 0.72279 0.08742 0.0
C5341 C 0.6786 0.72628 0.09116 0.0
C5342 C 0.67702 0.73756 0.09471 0.0
C5343 C 0.68622 0.74539 0.09448 0.0
C5344 C 0.69704 0.74193 0.09076 0.0
C5345 C 0.74312 0.73883 0.04353 0.0
C5346 C 0.74551 0.75044 0.04585 0.0
C5347 C 0.73644 0.73221 0.05114 0.0
C5348 C 0.73208 0.73706 0.06123 0.0
C5349 C 0.73381 0.74883 0.06309 0.0
C5350 C 0.74043 0.75543 0.0555 0.0
C5351 C 0.72646 0.72985 0.07027 0.0
C5352 C 0.71568 0.73306 0.07451 0.0
C5353 C 0.73191 0.72015 0.07512 0.0
C5354 C 0.7436 0.71669 0.07165 0.0
C5355 C 0.75298 0.72436 0.07268 0.0
C5356 C 0.76397 0.72108 0.0693 0.0
C5357 C 0.7657 0.7101 0.06497 0.0
C5358 C 0.75645 0.70237 0.06406 0.0
C5359 C 0.74545 0.70562 0.06741 0.0
H5360 H 0.77421 0.70757 0.06236 0.0
H5361 H 0.66865 0.74025 0.0976 0.0
H5362 H 0.32524 0.71326 0.12625 0.0
H5363 H 0.31792 0.72386 0.1097 0.0
H5364 H 0.30373 0.69257 0.0957 0.0
H5365 H 0.31141 0.68183 0.11202 0.0
H5366 H 0.313 0.70559 0.07896 0.0
H5367 H 0.28669 0.71132 0.10979 0.0
H5368 H 0.28078 0.71655 0.12932 0.0
H5369 H 0.29368 0.75081 0.124 0.0
H5370 H 0.29981 0.74573 0.10449 0.0
H5371 H 0.27206 0.73367 0.04139 0.0
H5372 H 0.28226 0.72149 0.05527 0.0
H5373 H 0.29784 0.75157 0.07046 0.0
H5374 H 0.2877 0.76369 0.05671 0.0
H5375 H 0.28755 0.73848 0.08632 0.0
H5376 H 0.31367 0.73259 0.05515 0.0
H5377 H 0.31915 0.72716 0.03556 0.0
H5378 H 0.30601 0.69306 0.04133 0.0
H5379 H 0.3003 0.69834 0.06092 0.0
C5380 C 0.32072 0.70859 0.11958 0.0
C5381 C 0.31885 0.69668 0.12055 0.0
C5382 C 0.31644 0.71468 0.11015 0.0
C5383 C 0.31011 0.70905 0.10152 0.0
C5384 C 0.30854 0.69712 0.10226 0.0
C5385 C 0.31284 0.69101 0.11168 0.0
C5386 C 0.30481 0.71565 0.09193 0.0
C5387 C 0.30732 0.7127 0.08056 0.0
C5388 C 0.2975 0.72502 0.09399 0.0
C5389 C 0.29381 0.72811 0.10572 0.0
C5390 C 0.28835 0.71994 0.11282 0.0
C5391 C 0.28495 0.72289 0.12388 0.0
C5392 C 0.28688 0.734 0.12791 0.0
C5393 C 0.2922 0.7422 0.12087 0.0
C5394 C 0.29564 0.7393 0.10981 0.0
C5395 C 0.27789 0.73763 0.04752 0.0
C5396 C 0.27902 0.74962 0.04804 0.0
C5397 C 0.28369 0.73068 0.05546 0.0
C5398 C 0.29078 0.73562 0.06396 0.0
C5399 C 0.29235 0.74756 0.06406 0.0
C5400 C 0.28657 0.75447 0.05619 0.0
C5401 C 0.29588 0.72857 0.07333 0.0
C5402 C 0.29325 0.7314 0.0847 0.0
C5403 C 0.30301 0.71908 0.07123 0.0
C5404 C 0.30644 0.7159 0.05946 0.0
C5405 C 0.31185 0.72396 0.05221 0.0
C5406 C 0.31502 0.72091 0.04111 0.0
C5407 C 0.3129 0.70979 0.03719 0.0
C5408 C 0.30763 0.70168 0.04438 0.0
C5409 C 0.30443 0.7047 0.05548 0.0
H5410 H 0.31536 0.70744 0.0286 0.0
H5411 H 0.28424 0.73627 0.13647 0.0
H5412 H 0.3175 0.34148 0.1095 0.0
H5413 H 0.3104 0.331 0.09277 0.0
H5414 H 0.31407 0.29909 0.11116 0.0
H5415 H 0.32113 0.30953 0.12798 0.0
H5416 H 0.32131 0.29699 0.08938 0.0
H5417 H 0.28776 0.31166 0.1079 0.0
H5418 H 0.27555 0.32656 0.11621 0.0
H5419 H 0.27442 0.34406 0.08375 0.0
H5420 H 0.28675 0.32932 0.07528 0.0
H5421 H 0.283 0.26054 0.05871 0.0
H5422 H 0.29392 0.27225 0.07231 0.0
H5423 H 0.28834 0.30213 0.05117 0.0
H5424 H 0.27713 0.29038 0.03757 0.0
H5425 H 0.28303 0.3063 0.07307 0.0
H5426 H 0.31531 0.29043 0.05413 0.0
H5427 H 0.32723 0.2752 0.046 0.0
H5428 H 0.33055 0.25967 0.07928 0.0
H5429 H 0.31852 0.27471 0.08759 0.0
C5430 C 0.31675 0.33224 0.11003 0.0
C5431 C 0.31981 0.32638 0.12017 0.0
C5432 C 0.3127 0.32624 0.10042 0.0
C5433 C 0.31153 0.31424 0.10072 0.0
C5434 C 0.31489 0.30834 0.1107 0.0
C5435 C 0.31896 0.31434 0.12032 0.0
C5436 C 0.30658 0.30787 0.09073 0.0
C5437 C 0.31289 0.29896 0.08588 0.0
C5438 C 0.29572 0.31061 0.08593 0.0
C5439 C 0.28828 0.31946 0.09099 0.0
C5440 C 0.28498 0.31873 0.10256 0.0
C5441 C 0.27803 0.32714 0.10729 0.0
C5442 C 0.27424 0.33627 0.10052 0.0
C5443 C 0.27737 0.33699 0.08899 0.0
C5444 C 0.28434 0.32861 0.08422 0.0
C5445 C 0.28424 0.26958 0.05686 0.0
C5446 C 0.27915 0.27454 0.04708 0.0
C5447 C 0.29056 0.27627 0.06462 0.0
C5448 C 0.29203 0.2881 0.06278 0.0
C5449 C 0.28734 0.29302 0.05279 0.0
C5450 C 0.28102 0.28629 0.04497 0.0
C5451 C 0.29772 0.29535 0.07174 0.0
C5452 C 0.29151 0.30441 0.07645 0.0
C5453 C 0.30865 0.29272 0.07642 0.0
C5454 C 0.31593 0.28366 0.07147 0.0
C5455 C 0.31851 0.28372 0.0597 0.0
C5456 C 0.3253 0.27513 0.05506 0.0
C5457 C 0.32963 0.26646 0.06211 0.0
C5458 C 0.32719 0.26639 0.07383 0.0
C5459 C 0.3204 0.27495 0.07851 0.0
H5460 H 0.33489 0.25982 0.0585 0.0
H5461 H 0.26885 0.34277 0.1042 0.0
H5462 H 0.71465 0.31295 0.13056 0.0
H5463 H 0.72289 0.30367 0.1138 0.0
H5464 H 0.70742 0.32899 0.09174 0.0
H5465 H 0.69893 0.33816 0.10844 0.0
H5466 H 0.70527 0.30784 0.08257 0.0
H5467 H 0.73576 0.3309 0.09866 0.0
H5468 H 0.74876 0.33783 0.11396 0.0
H5469 H 0.76222 0.30398 0.1182 0.0
H5470 H 0.74917 0.29681 0.10302 0.0
H5471 H 0.75899 0.29405 0.04397 0.0
H5472 H 0.74869 0.30602 0.05775 0.0
H5473 H 0.72633 0.27737 0.06599 0.0
H5474 H 0.73663 0.26547 0.05231 0.0
H5475 H 0.74746 0.3022 0.08082 0.0
H5476 H 0.70008 0.28747 0.07412 0.0
H5477 H 0.68723 0.28132 0.05835 0.0
H5478 H 0.70793 0.30024 0.03424 0.0
H5479 H 0.7208 0.30663 0.04987 0.0
C5480 C 0.71287 0.31647 0.12214 0.0
C5481 C 0.70615 0.32635 0.12088 0.0
C5482 C 0.71768 0.31121 0.11256 0.0
C5483 C 0.71591 0.3157 0.10149 0.0
C5484 C 0.70896 0.32538 0.10018 0.0
C5485 C 0.70418 0.33067 0.10976 0.0
C5486 C 0.72145 0.31044 0.09133 0.0
C5487 C 0.7145 0.30661 0.08219 0.0
C5488 C 0.73352 0.309 0.09069 0.0
C5489 C 0.74142 0.3133 0.09977 0.0
C5490 C 0.74143 0.32492 0.10291 0.0
C5491 C 0.74882 0.32889 0.11155 0.0
C5492 C 0.75629 0.32134 0.11707 0.0
C5493 C 0.75642 0.30981 0.11393 0.0
C5494 C 0.74904 0.30579 0.1053 0.0
C5495 C 0.75165 0.29046 0.04849 0.0
C5496 C 0.74845 0.27893 0.04698 0.0
C5497 C 0.74585 0.29724 0.05644 0.0
C5498 C 0.73669 0.29262 0.06289 0.0
C5499 C 0.73325 0.2812 0.06103 0.0
C5500 C 0.7391 0.27441 0.05319 0.0
C5501 C 0.73126 0.29939 0.07217 0.0
C5502 C 0.73824 0.30347 0.08116 0.0
C5503 C 0.71924 0.30113 0.07262 0.0
C5504 C 0.71146 0.29745 0.06317 0.0
C5505 C 0.70186 0.29036 0.06546 0.0
C5506 C 0.69458 0.28683 0.05654 0.0
C5507 C 0.69678 0.29036 0.0453 0.0
C5508 C 0.70626 0.29747 0.04295 0.0
C5509 C 0.71356 0.30104 0.05183 0.0
H5510 H 0.69114 0.28761 0.03841 0.0
H5511 H 0.76201 0.32444 0.12376 0.0
H5512 H 0.70514 0.33877 0.92223 0.0
H5513 H 0.71246 0.32837 0.93891 0.0
H5514 H 0.70958 0.29661 0.92034 0.0
H5515 H 0.70188 0.30691 0.90372 0.0
H5516 H 0.70243 0.29383 0.94216 0.0
H5517 H 0.73544 0.31044 0.92335 0.0
H5518 H 0.74723 0.32606 0.91498 0.0
H5519 H 0.7483 0.34311 0.9475 0.0
H5520 H 0.73638 0.32765 0.95602 0.0
H5521 H 0.74214 0.25903 0.97235 0.0
H5522 H 0.73067 0.27023 0.95886 0.0
H5523 H 0.73545 0.30018 0.97995 0.0
H5524 H 0.74721 0.28902 0.99339 0.0
H5525 H 0.74065 0.30478 0.95809 0.0
H5526 H 0.70893 0.28699 0.9773 0.0
H5527 H 0.69748 0.27103 0.98547 0.0
H5528 H 0.69421 0.25587 0.95215 0.0
H5529 H 0.70579 0.27166 0.94379 0.0
C5530 C 0.70589 0.32955 0.92173 0.0
C5531 C 0.70294 0.3237 0.91159 0.0
C5532 C 0.71019 0.32362 0.93125 0.0
C5533 C 0.71171 0.31171 0.93085 0.0
C5534 C 0.70852 0.3058 0.92085 0.0
C5535 C 0.70422 0.31172 0.91131 0.0
C5536 C 0.7169 0.30546 0.94072 0.0
C5537 C 0.71083 0.29616 0.94558 0.0
C5538 C 0.72774 0.30866 0.9454 0.0
C5539 C 0.73491 0.31795 0.94029 0.0
C5540 C 0.73811 0.31757 0.92869 0.0
C5541 C 0.74483 0.32638 0.92392 0.0
C5542 C 0.74848 0.33559 0.9307 0.0
C5543 C 0.74544 0.33598 0.94226 0.0
C5544 C 0.73871 0.32719 0.94706 0.0
C5545 C 0.74062 0.26797 0.9742 0.0
C5546 C 0.74564 0.27316 0.98391 0.0
C5547 C 0.73399 0.27435 0.96652 0.0
C5548 C 0.73214 0.28606 0.96839 0.0
C5549 C 0.73675 0.29116 0.97833 0.0
C5550 C 0.74338 0.28476 0.98605 0.0
C5551 C 0.72622 0.29309 0.95951 0.0
C5552 C 0.73218 0.30253 0.95478 0.0
C5553 C 0.71531 0.28998 0.95495 0.0
C5554 C 0.70831 0.28048 0.95993 0.0
C5555 C 0.70585 0.28021 0.97172 0.0
C5556 C 0.69932 0.2712 0.97639 0.0
C5557 C 0.69514 0.26243 0.96934 0.0
C5558 C 0.69746 0.26267 0.9576 0.0
C5559 C 0.70399 0.27165 0.95289 0.0
H5560 H 0.69008 0.25547 0.97297 0.0
H5561 H 0.75368 0.34241 0.92699 0.0
H5562 H 0.71946 0.70183 0.90139 0.0
H5563 H 0.72951 0.7095 0.91819 0.0
H5564 H 0.69713 0.71281 0.93564 0.0
H5565 H 0.68698 0.70553 0.91873 0.0
H5566 H 0.70998 0.73162 0.93853 0.0
H5567 H 0.71627 0.69125 0.94254 0.0
H5568 H 0.72228 0.6721 0.9363 0.0
H5569 H 0.75675 0.68475 0.93126 0.0
H5570 H 0.75091 0.70402 0.93732 0.0
H5571 H 0.73619 0.74697 0.99137 0.0
H5572 H 0.72498 0.73556 0.97755 0.0
H5573 H 0.75559 0.73046 0.95758 0.0
H5574 H 0.76683 0.74149 0.9715 0.0
H5575 H 0.74266 0.71165 0.95704 0.0
H5576 H 0.7364 0.75197 0.95117 0.0
H5577 H 0.73084 0.77143 0.95685 0.0
H5578 H 0.69678 0.75916 0.96476 0.0
H5579 H 0.7022 0.73958 0.95927 0.0
C5580 C 0.71445 0.70423 0.90877 0.0
C5581 C 0.70238 0.703 0.90866 0.0
C5582 C 0.72023 0.70852 0.91844 0.0
C5583 C 0.71412 0.71162 0.92829 0.0
C5584 C 0.70207 0.71044 0.9282 0.0
C5585 C 0.69628 0.70616 0.91853 0.0
C5586 C 0.72024 0.71638 0.93855 0.0
C5587 C 0.71699 0.72714 0.9427 0.0
C5588 C 0.72957 0.7107 0.94388 0.0
C5589 C 0.73312 0.6991 0.9403 0.0
C5590 C 0.72511 0.68997 0.94002 0.0
C5591 C 0.72849 0.67909 0.93653 0.0
C5592 C 0.73989 0.67721 0.93336 0.0
C5593 C 0.74793 0.68621 0.93371 0.0
C5594 C 0.74459 0.69712 0.93718 0.0
C5595 C 0.74057 0.74315 0.9842 0.0
C5596 C 0.75238 0.74525 0.98248 0.0
C5597 C 0.73414 0.73673 0.97623 0.0
C5598 C 0.73937 0.73234 0.96635 0.0
C5599 C 0.7513 0.73379 0.96506 0.0
C5600 C 0.75772 0.74016 0.97301 0.0
C5601 C 0.73243 0.72689 0.95698 0.0
C5602 C 0.73556 0.71605 0.95296 0.0
C5603 C 0.72304 0.73252 0.9517 0.0
C5604 C 0.71974 0.74429 0.95493 0.0
C5605 C 0.72775 0.75341 0.9542 0.0
C5606 C 0.72462 0.76446 0.95737 0.0
C5607 C 0.71347 0.76653 0.9612 0.0
C5608 C 0.70542 0.75754 0.96182 0.0
C5609 C 0.70852 0.74647 0.95867 0.0
H5610 H 0.71107 0.77509 0.96365 0.0
H5611 H 0.74249 0.66878 0.93066 0.0
H5612 H 0.3241 0.69155 0.91906 0.0
H5613 H 0.31466 0.69936 0.93598 0.0
H5614 H 0.31813 0.73346 0.92186 0.0
H5615 H 0.32749 0.72574 0.90496 0.0
H5616 H 0.32425 0.7334 0.94386 0.0
H5617 H 0.29218 0.71863 0.92185 0.0
H5618 H 0.28093 0.70386 0.91152 0.0
H5619 H 0.27884 0.68349 0.94223 0.0
H5620 H 0.29022 0.69809 0.95271 0.0
H5621 H 0.28277 0.76543 0.97328 0.0
H5622 H 0.2947 0.75504 0.95979 0.0
H5623 H 0.28972 0.72401 0.9795 0.0
H5624 H 0.27762 0.73446 0.99308 0.0
H5625 H 0.28544 0.72073 0.95656 0.0
H5626 H 0.31586 0.73682 0.97903 0.0
H5627 H 0.32671 0.752 0.98917 0.0
H5628 H 0.33166 0.77021 0.95746 0.0
H5629 H 0.3207 0.75522 0.94714 0.0
C5630 C 0.32274 0.7007 0.91949 0.0
C5631 C 0.3266 0.708 0.91062 0.0
C5632 C 0.31735 0.70516 0.9292 0.0
C5633 C 0.31563 0.71702 0.93021 0.0
C5634 C 0.31942 0.7243 0.92134 0.0
C5635 C 0.32481 0.71986 0.91167 0.0
C5636 C 0.30997 0.72193 0.94051 0.0
C5637 C 0.31572 0.73068 0.94657 0.0
C5638 C 0.29899 0.71817 0.94431 0.0
C5639 C 0.29217 0.70939 0.93803 0.0
C5640 C 0.28941 0.71096 0.92637 0.0
C5641 C 0.28299 0.70262 0.9205 0.0
C5642 C 0.2792 0.69273 0.92621 0.0
C5643 C 0.2818 0.69115 0.93781 0.0
C5644 C 0.28823 0.69946 0.94373 0.0
C5645 C 0.28438 0.75643 0.97485 0.0
C5646 C 0.27928 0.75075 0.98424 0.0
C5647 C 0.29123 0.7505 0.96715 0.0
C5648 C 0.29317 0.73873 0.96863 0.0
C5649 C 0.28836 0.73308 0.97819 0.0
C5650 C 0.28155 0.73907 0.98599 0.0
C5651 C 0.29963 0.73234 0.95976 0.0
C5652 C 0.29403 0.72333 0.95395 0.0
C5653 C 0.31074 0.73589 0.95615 0.0
C5654 C 0.31738 0.74492 0.96232 0.0
C5655 C 0.31918 0.7441 0.97422 0.0
C5656 C 0.32537 0.75267 0.98001 0.0
C5657 C 0.32985 0.76207 0.97397 0.0
C5658 C 0.32818 0.76292 0.96213 0.0
C5659 C 0.32199 0.75438 0.9563 0.0
H5660 H 0.33464 0.76869 0.97846 0.0
H5661 H 0.27423 0.68629 0.92164 0.0
H5662 H 0.3116 0.31343 0.90005 0.0
H5663 H 0.30336 0.30387 0.91688 0.0
H5664 H 0.31815 0.32997 0.93866 0.0
H5665 H 0.32667 0.33942 0.9219 0.0
H5666 H 0.32062 0.3091 0.94823 0.0
H5667 H 0.28974 0.33043 0.93155 0.0
H5668 H 0.27672 0.33668 0.91604 0.0
H5669 H 0.26416 0.30214 0.9121 0.0
H5670 H 0.27723 0.29566 0.92748 0.0
H5671 H 0.26735 0.29181 0.98674 0.0
H5672 H 0.2772 0.30455 0.97291 0.0
H5673 H 0.30033 0.27731 0.96446 0.0
H5674 H 0.29045 0.26463 0.97813 0.0
H5675 H 0.27863 0.30104 0.94961 0.0
H5676 H 0.32643 0.28918 0.95701 0.0
H5677 H 0.33928 0.28383 0.97302 0.0
H5678 H 0.31755 0.30134 0.99665 0.0
H5679 H 0.30467 0.30693 0.98077 0.0
C5680 C 0.31323 0.31707 0.90843 0.0
C5681 C 0.31978 0.32724 0.90958 0.0
C5682 C 0.30841 0.31165 0.91805 0.0
C5683 C 0.30998 0.31627 0.92906 0.0
C5684 C 0.31675 0.32625 0.93027 0.0
C5685 C 0.32155 0.3317 0.92065 0.0
C5686 C 0.30448 0.31077 0.93927 0.0
C5687 C 0.31144 0.30735 0.94852 0.0
C5688 C 0.29245 0.30866 0.93981 0.0
C5689 C 0.28453 0.31255 0.93061 0.0
C5690 C 0.28426 0.32416 0.92732 0.0
C5691 C 0.27686 0.32774 0.91856 0.0
C5692 C 0.26963 0.31981 0.91307 0.0
C5693 C 0.26977 0.30828 0.91635 0.0
C5694 C 0.27716 0.30465 0.9251 0.0
C5695 C 0.27472 0.28869 0.98212 0.0
C5696 C 0.27824 0.27731 0.98356 0.0
C5697 C 0.28028 0.29592 0.97417 0.0
C5698 C 0.28954 0.29191 0.96766 0.0
C5699 C 0.29331 0.28066 0.96945 0.0
C5700 C 0.28768 0.27342 0.97727 0.0
C5701 C 0.29481 0.29913 0.95844 0.0
C5702 C 0.2878 0.30284 0.94934 0.0
C5703 C 0.30677 0.3016 0.95811 0.0
C5704 C 0.31453 0.29838 0.9677 0.0
C5705 C 0.32442 0.29193 0.96561 0.0
C5706 C 0.33171 0.28885 0.97467 0.0
C5707 C 0.32921 0.29221 0.98584 0.0
C5708 C 0.31945 0.2987 0.98799 0.0
C5709 C 0.31214 0.30181 0.97897 0.0
H5710 H 0.33486 0.28982 0.99284 0.0
H5711 H 0.26391 0.3226 0.90629 0.0
H5712 H 0.60954 0.69106 0.20107 0.0
H5713 H 0.59282 0.69901 0.2108 0.0
H5714 H 0.60841 0.73272 0.20915 0.0
H5715 H 0.62523 0.72481 0.1998 0.0
H5716 H 0.59926 0.72917 0.22961 0.0
H5717 H 0.58656 0.72398 0.19048 0.0
H5718 H 0.58268 0.71289 0.17292 0.0
H5719 H 0.55936 0.69084 0.19142 0.0
H5720 H 0.56322 0.70172 0.20914 0.0
H5721 H 0.55414 0.76547 0.24099 0.0
H5722 H 0.56813 0.75529 0.2294 0.0
H5723 H 0.55006 0.72342 0.23597 0.0
H5724 H 0.53589 0.73369 0.24751 0.0
H5725 H 0.55975 0.72442 0.21383 0.0
H5726 H 0.57145 0.73061 0.25268 0.0
H5727 H 0.57495 0.74219 0.27 0.0
H5728 H 0.60037 0.76225 0.25201 0.0
H5729 H 0.59676 0.75106 0.23451 0.0
C5730 C 0.60946 0.70014 0.20289 0.0
C5731 C 0.61873 0.70729 0.19955 0.0
C5732 C 0.59983 0.7047 0.20835 0.0
C5733 C 0.59924 0.71651 0.21059 0.0
C5734 C 0.60859 0.7236 0.20749 0.0
C5735 C 0.61819 0.71906 0.20204 0.0
C5736 C 0.58897 0.72158 0.21618 0.0
C5737 C 0.59065 0.72821 0.22607 0.0
C5738 C 0.57764 0.72009 0.2118 0.0
C5739 C 0.57527 0.71358 0.20116 0.0
C5740 C 0.58067 0.71671 0.19082 0.0
C5741 C 0.57846 0.71047 0.18084 0.0
C5742 C 0.5708 0.70115 0.18106 0.0
C5743 C 0.56531 0.69806 0.19126 0.0
C5744 C 0.56749 0.70426 0.20128 0.0
C5745 C 0.55296 0.75634 0.23967 0.0
C5746 C 0.54397 0.75035 0.24518 0.0
C5747 C 0.56098 0.75052 0.2331 0.0
C5748 C 0.5603 0.73855 0.23202 0.0
C5749 C 0.55079 0.73265 0.23672 0.0
C5750 C 0.54268 0.73852 0.24327 0.0
C5751 C 0.57013 0.73221 0.22705 0.0
C5752 C 0.56836 0.72532 0.21736 0.0
C5753 C 0.58141 0.73344 0.23161 0.0
C5754 C 0.58376 0.74005 0.24224 0.0
C5755 C 0.57772 0.73756 0.25239 0.0
C5756 C 0.57971 0.74407 0.26224 0.0
C5757 C 0.58785 0.75298 0.26211 0.0
C5758 C 0.59402 0.75539 0.25212 0.0
C5759 C 0.592 0.74897 0.24222 0.0
H5760 H 0.5894 0.75798 0.26976 0.0
H5761 H 0.56911 0.69633 0.17332 0.0
H5762 H 0.30769 0.62533 0.20422 0.0
H5763 H 0.29658 0.60875 0.21107 0.0
H5764 H 0.32803 0.59077 0.21813 0.0
H5765 H 0.33921 0.60719 0.21095 0.0
H5766 H 0.31215 0.57658 0.20868 0.0
H5767 H 0.31338 0.6037 0.23943 0.0
H5768 H 0.31078 0.62239 0.24876 0.0
H5769 H 0.27454 0.62067 0.24155 0.0
H5770 H 0.27694 0.60205 0.23202 0.0
H5771 H 0.28935 0.53537 0.24907 0.0
H5772 H 0.30006 0.54977 0.23786 0.0
H5773 H 0.26869 0.56833 0.232 0.0
H5774 H 0.25807 0.5541 0.24333 0.0
H5775 H 0.28455 0.58206 0.24037 0.0
H5776 H 0.28326 0.55449 0.21006 0.0
H5777 H 0.28597 0.53562 0.20114 0.0
H5778 H 0.32228 0.53791 0.20788 0.0
H5779 H 0.31977 0.55673 0.21699 0.0
C5780 C 0.31226 0.6178 0.20708 0.0
C5781 C 0.32436 0.61764 0.2071 0.0
C5782 C 0.30589 0.60835 0.21109 0.0
C5783 C 0.31147 0.59855 0.21526 0.0
C5784 C 0.32353 0.59824 0.21499 0.0
C5785 C 0.32991 0.60768 0.21099 0.0
C5786 C 0.30475 0.58877 0.2202 0.0
C5787 C 0.30619 0.57775 0.21568 0.0
C5788 C 0.29682 0.59031 0.22921 0.0
C5789 C 0.29537 0.60154 0.23488 0.0
C5790 C 0.30487 0.60736 0.23973 0.0
C5791 C 0.30343 0.61793 0.24508 0.0
C5792 C 0.29251 0.62273 0.24571 0.0
C5793 C 0.283 0.61696 0.24103 0.0
C5794 C 0.2844 0.60639 0.23566 0.0
C5795 C 0.28471 0.54234 0.24508 0.0
C5796 C 0.2729 0.54365 0.24708 0.0
C5797 C 0.29083 0.55059 0.23869 0.0
C5798 C 0.2852 0.56018 0.23409 0.0
C5799 C 0.27326 0.56107 0.23551 0.0
C5800 C 0.26718 0.5529 0.24194 0.0
C5801 C 0.29181 0.56985 0.22877 0.0
C5802 C 0.29042 0.58087 0.23329 0.0
C5803 C 0.29978 0.56828 0.2198 0.0
C5804 C 0.30131 0.55697 0.21431 0.0
C5805 C 0.29181 0.55093 0.20973 0.0
C5806 C 0.29331 0.54025 0.20462 0.0
C5807 C 0.30428 0.53555 0.20397 0.0
C5808 C 0.31378 0.54155 0.2084 0.0
C5809 C 0.31233 0.55223 0.21353 0.0
H5810 H 0.30543 0.52729 0.20001 0.0
H5811 H 0.29141 0.63091 0.24986 0.0
H5812 H 0.41247 0.33331 0.20485 0.0
H5813 H 0.42917 0.32534 0.21484 0.0
H5814 H 0.41492 0.29128 0.21082 0.0
H5815 H 0.39808 0.29919 0.20121 0.0
H5816 H 0.42353 0.29374 0.23175 0.0
H5817 H 0.4368 0.30191 0.19344 0.0
H5818 H 0.44055 0.31417 0.17654 0.0
H5819 H 0.46254 0.33602 0.19679 0.0
H5820 H 0.45878 0.32397 0.21386 0.0
H5821 H 0.47031 0.25892 0.24267 0.0
H5822 H 0.45586 0.26915 0.23143 0.0
H5823 H 0.47237 0.30133 0.2399 0.0
H5824 H 0.48702 0.29103 0.2511 0.0
H5825 H 0.46314 0.30123 0.21761 0.0
H5826 H 0.45077 0.29222 0.2557 0.0
H5827 H 0.44747 0.27948 0.27232 0.0
H5828 H 0.42375 0.2591 0.25249 0.0
H5829 H 0.4271 0.27157 0.23565 0.0
C5830 C 0.41282 0.32414 0.2062 0.0
C5831 C 0.40393 0.3169 0.20212 0.0
C5832 C 0.42245 0.31958 0.21182 0.0
C5833 C 0.42342 0.30768 0.21346 0.0
C5834 C 0.41443 0.30048 0.20963 0.0
C5835 C 0.40483 0.30502 0.20403 0.0
C5836 C 0.43377 0.30263 0.2191 0.0
C5837 C 0.43217 0.29531 0.22858 0.0
C5838 C 0.44511 0.30489 0.2152 0.0
C5839 C 0.44741 0.31211 0.20495 0.0
C5840 C 0.44236 0.30938 0.19431 0.0
C5841 C 0.4445 0.31628 0.1847 0.0
C5842 C 0.45175 0.32589 0.1856 0.0
C5843 C 0.45691 0.32859 0.19611 0.0
C5844 C 0.45478 0.32172 0.20575 0.0
C5845 C 0.47104 0.26816 0.24186 0.0
C5846 C 0.47975 0.2742 0.24777 0.0
C5847 C 0.46274 0.274 0.2355 0.0
C5848 C 0.46287 0.28603 0.23504 0.0
C5849 C 0.47207 0.29206 0.24019 0.0
C5850 C 0.48046 0.28617 0.24653 0.0
C5851 C 0.45283 0.29219 0.23008 0.0
C5852 C 0.4545 0.29974 0.22081 0.0
C5853 C 0.44152 0.29015 0.23417 0.0
C5854 C 0.43926 0.28279 0.24437 0.0
C5855 C 0.4449 0.28498 0.25485 0.0
C5856 C 0.44303 0.27781 0.26432 0.0
C5857 C 0.43542 0.26848 0.26346 0.0
C5858 C 0.42965 0.26633 0.25314 0.0
C5859 C 0.43153 0.27345 0.24363 0.0
H5860 H 0.43398 0.26292 0.27079 0.0
H5861 H 0.4534 0.33122 0.17815 0.0
H5862 H 0.69828 0.39916 0.22803 0.0
H5863 H 0.70741 0.41646 0.23566 0.0
H5864 H 0.70964 0.4307 0.20155 0.0
H5865 H 0.70038 0.41336 0.19381 0.0
H5866 H 0.72935 0.43465 0.21362 0.0
H5867 H 0.68922 0.43995 0.21986 0.0
H5868 H 0.66971 0.43466 0.22639 0.0
H5869 H 0.68202 0.43205 0.26106 0.0
H5870 H 0.70165 0.43717 0.25472 0.0
H5871 H 0.74668 0.48891 0.23665 0.0
H5872 H 0.73481 0.47478 0.2262 0.0
H5873 H 0.72998 0.45547 0.25749 0.0
H5874 H 0.74168 0.46955 0.26789 0.0
H5875 H 0.71039 0.45574 0.24496 0.0
H5876 H 0.75062 0.44832 0.23849 0.0
H5877 H 0.7703 0.45323 0.23217 0.0
H5878 H 0.75779 0.45965 0.19806 0.0
H5879 H 0.738 0.45493 0.20423 0.0
C5880 C 0.70062 0.40599 0.22213 0.0
C5881 C 0.69845 0.40489 0.2103 0.0
C5882 C 0.70587 0.41589 0.22652 0.0
C5883 C 0.70903 0.425 0.21922 0.0
C5884 C 0.70723 0.42382 0.20737 0.0
C5885 C 0.70197 0.41387 0.20295 0.0
C5886 C 0.71419 0.43572 0.22406 0.0
C5887 C 0.7251 0.43939 0.22031 0.0
C5888 C 0.70874 0.44185 0.23292 0.0
C5889 C 0.69693 0.43886 0.23679 0.0
C5890 C 0.68778 0.43818 0.22887 0.0
C5891 C 0.6767 0.43522 0.23253 0.0
C5892 C 0.67463 0.433 0.24413 0.0
C5893 C 0.68364 0.43377 0.25208 0.0
C5894 C 0.69474 0.43671 0.24846 0.0
C5895 C 0.74285 0.48178 0.24131 0.0
C5896 C 0.74515 0.48029 0.25306 0.0
C5897 C 0.73616 0.47366 0.23533 0.0
C5898 C 0.73163 0.46394 0.24102 0.0
C5899 C 0.73339 0.46284 0.25289 0.0
C5900 C 0.7401 0.47089 0.25882 0.0
C5901 C 0.72562 0.45455 0.23466 0.0
C5902 C 0.71456 0.45111 0.23814 0.0
C5903 C 0.73093 0.44863 0.22557 0.0
C5904 C 0.74282 0.45142 0.22185 0.0
C5905 C 0.75206 0.45087 0.22966 0.0
C5906 C 0.76323 0.45361 0.22611 0.0
C5907 C 0.76529 0.45679 0.21473 0.0
C5908 C 0.75618 0.45721 0.20688 0.0
C5909 C 0.74498 0.45451 0.2104 0.0
H5910 H 0.77395 0.45889 0.21199 0.0
H5911 H 0.66605 0.43071 0.24695 0.0
H5912 H 0.62287 0.32544 0.81157 0.0
H5913 H 0.60616 0.31812 0.80098 0.0
H5914 H 0.59027 0.3076 0.83273 0.0
H5915 H 0.60715 0.31446 0.84335 0.0
H5916 H 0.58818 0.29113 0.81731 0.0
H5917 H 0.58124 0.33158 0.81755 0.0
H5918 H 0.58599 0.35202 0.81444 0.0
H5919 H 0.59036 0.34593 0.77847 0.0
H5920 H 0.58579 0.32542 0.78139 0.0
H5921 H 0.53478 0.27641 0.79184 0.0
H5922 H 0.54847 0.28735 0.80372 0.0
H5923 H 0.56731 0.29732 0.77343 0.0
H5924 H 0.55358 0.28656 0.76155 0.0
H5925 H 0.56691 0.31469 0.78893 0.0
H5926 H 0.57549 0.27447 0.78865 0.0
H5927 H 0.57118 0.25387 0.7913 0.0
H5928 H 0.56427 0.25946 0.82693 0.0
H5929 H 0.56836 0.28014 0.82445 0.0
C5930 C 0.61586 0.32151 0.81632 0.0
C5931 C 0.61638 0.32058 0.82834 0.0
C5932 C 0.60623 0.31744 0.81024 0.0
C5933 C 0.59685 0.31244 0.81606 0.0
C5934 C 0.59735 0.31148 0.82805 0.0
C5935 C 0.60699 0.31551 0.83412 0.0
C5936 C 0.58669 0.30788 0.80961 0.0
C5937 C 0.58341 0.29637 0.81127 0.0
C5938 C 0.5806 0.3146 0.8015 0.0
C5939 C 0.58327 0.32694 0.79971 0.0
C5940 C 0.58329 0.33458 0.80899 0.0
C5941 C 0.58594 0.34618 0.80726 0.0
C5942 C 0.5885 0.35026 0.79627 0.0
C5943 C 0.58839 0.34276 0.78698 0.0
C5944 C 0.58576 0.33115 0.78867 0.0
C5945 C 0.54165 0.28121 0.78771 0.0
C5946 C 0.54318 0.28055 0.77579 0.0
C5947 C 0.54953 0.28737 0.7945 0.0
C5948 C 0.55904 0.29299 0.78948 0.0
C5949 C 0.56008 0.29302 0.7775 0.0
C5950 C 0.55226 0.28684 0.77073 0.0
C5951 C 0.56843 0.29799 0.79666 0.0
C5952 C 0.5716 0.30954 0.7951 0.0
C5953 C 0.57449 0.2913 0.80481 0.0
C5954 C 0.5721 0.27887 0.80633 0.0
C5955 C 0.57296 0.27132 0.79703 0.0
C5956 C 0.57058 0.25963 0.7985 0.0
C5957 C 0.56743 0.25537 0.80926 0.0
C5958 C 0.56669 0.26278 0.81859 0.0
C5959 C 0.56904 0.27449 0.81716 0.0
H5960 H 0.56559 0.24632 0.81039 0.0
H5961 H 0.59055 0.35925 0.79494 0.0
H5962 H 0.69853 0.62292 0.80822 0.0
H5963 H 0.7054 0.60615 0.7979 0.0
H5964 H 0.72092 0.59337 0.82901 0.0
H5965 H 0.71407 0.61004 0.83937 0.0
H5966 H 0.7356 0.5918 0.81191 0.0
H5967 H 0.69598 0.58132 0.81752 0.0
H5968 H 0.67497 0.58384 0.81654 0.0
H5969 H 0.67655 0.58599 0.77983 0.0
H5970 H 0.69761 0.58364 0.7806 0.0
H5971 H 0.74932 0.53655 0.79191 0.0
H5972 H 0.73866 0.55095 0.8027 0.0
H5973 H 0.72806 0.56687 0.77099 0.0
H5974 H 0.73883 0.55261 0.76022 0.0
H5975 H 0.71049 0.56635 0.78842 0.0
H5976 H 0.74999 0.57771 0.78287 0.0
H5977 H 0.77098 0.57501 0.78366 0.0
H5978 H 0.76947 0.57122 0.82025 0.0
H5979 H 0.74842 0.5737 0.81966 0.0
C5980 C 0.70327 0.61647 0.81291 0.0
C5981 C 0.70577 0.61789 0.82464 0.0
C5982 C 0.70721 0.60687 0.80698 0.0
C5983 C 0.71364 0.59841 0.81267 0.0
C5984 C 0.71604 0.59977 0.82439 0.0
C5985 C 0.71213 0.60935 0.83031 0.0
C5986 C 0.71819 0.58831 0.80638 0.0
C5987 C 0.73005 0.58615 0.80694 0.0
C5988 C 0.71104 0.58104 0.79962 0.0
C5989 C 0.69839 0.58242 0.79913 0.0
C5990 C 0.69186 0.58242 0.80924 0.0
C5991 C 0.67994 0.5838 0.80872 0.0
C5992 C 0.67443 0.5851 0.79813 0.0
C5993 C 0.68083 0.58499 0.78803 0.0
C5994 C 0.69276 0.58363 0.7885 0.0
C5995 C 0.74442 0.54291 0.78726 0.0
C5996 C 0.74487 0.54345 0.77524 0.0
C5997 C 0.73841 0.55118 0.79342 0.0
C5998 C 0.73264 0.56005 0.78765 0.0
C5999 C 0.73242 0.56011 0.77562 0.0
C6000 C 0.73857 0.55196 0.76948 0.0
C6001 C 0.72781 0.56985 0.7941 0.0
C6002 C 0.71597 0.57198 0.79349 0.0
C6003 C 0.73495 0.57712 0.80081 0.0
C6004 C 0.74761 0.57576 0.80121 0.0
C6005 C 0.75412 0.5762 0.79108 0.0
C6006 C 0.76603 0.57472 0.79149 0.0
C6007 C 0.77155 0.57291 0.802 0.0
C6008 C 0.76518 0.5726 0.81212 0.0
C6009 C 0.75326 0.57404 0.81175 0.0
H6010 H 0.78077 0.57177 0.8023 0.0
H6011 H 0.6652 0.58616 0.79774 0.0
H6012 H 0.41808 0.68521 0.82857 0.0
H6013 H 0.43475 0.6952 0.82031 0.0
H6014 H 0.41275 0.72221 0.80821 0.0
H6015 H 0.396 0.71214 0.81622 0.0
H6016 H 0.42761 0.71612 0.7918 0.0
H6017 H 0.42984 0.72606 0.83161 0.0
H6018 H 0.43061 0.7223 0.85242 0.0
H6019 H 0.4618 0.7035 0.84826 0.0
H6020 H 0.46113 0.70702 0.82739 0.0
H6021 H 0.47664 0.76013 0.79448 0.0
H6022 H 0.46235 0.7482 0.80453 0.0
H6023 H 0.46825 0.72071 0.78082 0.0
H6024 H 0.48267 0.73267 0.77081 0.0
H6025 H 0.46174 0.72691 0.81531 0.0
H6026 H 0.44103 0.71001 0.77359 0.0
H6027 H 0.43963 0.71541 0.75315 0.0
H6028 H 0.44415 0.75089 0.76188 0.0
H6029 H 0.44537 0.74572 0.78237 0.0
C6030 C 0.41677 0.69325 0.8241 0.0
C6031 C 0.40567 0.69787 0.82308 0.0
C6032 C 0.42633 0.699 0.81945 0.0
C6033 C 0.42504 0.70951 0.81368 0.0
C6034 C 0.41398 0.71412 0.81262 0.0
C6035 C 0.40442 0.7084 0.81731 0.0
C6036 C 0.43519 0.71567 0.80869 0.0
C6037 C 0.43508 0.71841 0.79695 0.0
C6038 C 0.44493 0.71881 0.81539 0.0
C6039 C 0.44537 0.7167 0.82793 0.0
C6040 C 0.43681 0.72104 0.83512 0.0
C6041 C 0.43724 0.71897 0.84693 0.0
C6042 C 0.44623 0.71263 0.85165 0.0
C6043 C 0.45483 0.70839 0.84458 0.0
C6044 C 0.45444 0.71043 0.83277 0.0
C6045 C 0.47511 0.75142 0.79165 0.0
C6046 C 0.48079 0.74725 0.78196 0.0
C6047 C 0.46695 0.74462 0.79737 0.0
C6048 C 0.46415 0.73359 0.79339 0.0
C6049 C 0.47023 0.72921 0.78402 0.0
C6050 C 0.47851 0.73599 0.77836 0.0
C6051 C 0.4542 0.72718 0.79842 0.0
C6052 C 0.45433 0.72445 0.81015 0.0
C6053 C 0.44439 0.72422 0.79177 0.0
C6054 C 0.44343 0.72745 0.77949 0.0
C6055 C 0.44168 0.71896 0.77114 0.0
C6056 C 0.44091 0.72198 0.75955 0.0
C6057 C 0.44184 0.73348 0.75621 0.0
C6058 C 0.44347 0.74198 0.76447 0.0
C6059 C 0.44421 0.73901 0.77607 0.0
H6060 H 0.44127 0.7358 0.74724 0.0
H6061 H 0.44654 0.71104 0.8608 0.0
H6062 H 0.3421 0.41592 0.81509 0.0
H6063 H 0.33194 0.43253 0.80753 0.0
H6064 H 0.29963 0.41752 0.81826 0.0
H6065 H 0.30971 0.40066 0.82551 0.0
H6066 H 0.29782 0.42579 0.79705 0.0
H6067 H 0.31242 0.44023 0.83274 0.0
H6068 H 0.32723 0.44459 0.84734 0.0
H6069 H 0.34529 0.46609 0.82326 0.0
H6070 H 0.33066 0.46173 0.80846 0.0
H6071 H 0.26261 0.47294 0.78877 0.0
H6072 H 0.27402 0.45878 0.79913 0.0
H6073 H 0.30509 0.47356 0.785 0.0
H6074 H 0.29359 0.48793 0.77466 0.0
H6075 H 0.30795 0.46579 0.80776 0.0
H6076 H 0.29315 0.45138 0.77213 0.0
H6077 H 0.27797 0.44742 0.7578 0.0
H6078 H 0.26017 0.4258 0.78197 0.0
H6079 H 0.27514 0.42982 0.79654 0.0
C6080 C 0.33282 0.4161 0.81581 0.0
C6081 C 0.32675 0.40689 0.8209 0.0
C6082 C 0.32703 0.42569 0.81158 0.0
C6083 C 0.315 0.42638 0.81241 0.0
C6084 C 0.3089 0.41723 0.81754 0.0
C6085 C 0.3147 0.40762 0.82177 0.0
C6086 C 0.30876 0.43645 0.80761 0.0
C6087 C 0.29995 0.43451 0.79954 0.0
C6088 C 0.31171 0.4479 0.81057 0.0
C6089 C 0.3205 0.45056 0.81946 0.0
C6090 C 0.3196 0.44581 0.83053 0.0
C6091 C 0.32795 0.4483 0.83885 0.0
C6092 C 0.33721 0.45559 0.83622 0.0
C6093 C 0.33812 0.46043 0.82528 0.0
C6094 C 0.32979 0.45797 0.81692 0.0
C6095 C 0.2719 0.47335 0.7881 0.0
C6096 C 0.27723 0.48149 0.78089 0.0
C6097 C 0.27841 0.46521 0.79398 0.0
C6098 C 0.2904 0.46494 0.79266 0.0
C6099 C 0.29585 0.47357 0.7861 0.0
C6100 C 0.28929 0.4818 0.78024 0.0
C6101 C 0.29698 0.45507 0.79733 0.0
C6102 C 0.30586 0.45705 0.80531 0.0
C6103 C 0.29411 0.44363 0.7943 0.0
C6104 C 0.28522 0.44098 0.78546 0.0
C6105 C 0.28596 0.44584 0.77442 0.0
C6106 C 0.27739 0.44358 0.76625 0.0
C6107 C 0.2681 0.43638 0.76898 0.0
C6108 C 0.26737 0.43139 0.77987 0.0
C6109 C 0.2759 0.43365 0.78809 0.0
H6110 H 0.26147 0.43465 0.76264 0.0
H6111 H 0.34367 0.4575 0.84267 0.0
H6112 H 0.70588 0.6267 0.22276 0.0
H6113 H 0.71607 0.60976 0.22949 0.0
H6114 H 0.70749 0.59231 0.19804 0.0
H6115 H 0.69697 0.60917 0.19136 0.0
H6116 H 0.70427 0.57826 0.21597 0.0
H6117 H 0.73469 0.60263 0.20277 0.0
H6118 H 0.74614 0.6205 0.20107 0.0
H6119 H 0.75376 0.61933 0.2371 0.0
H6120 H 0.74222 0.60153 0.23906 0.0
H6121 H 0.7611 0.54655 0.23602 0.0
H6122 H 0.75088 0.56064 0.22414 0.0
H6123 H 0.72148 0.55768 0.24645 0.0
H6124 H 0.73165 0.54348 0.25813 0.0
H6125 H 0.74449 0.58101 0.23021 0.0
H6126 H 0.69699 0.56497 0.23265 0.0
H6127 H 0.68614 0.54666 0.23289 0.0
H6128 H 0.71381 0.53022 0.21548 0.0
H6129 H 0.72476 0.54846 0.215 0.0
C6130 C 0.70609 0.61925 0.21728 0.0
C6131 C 0.70057 0.61933 0.2065 0.0
C6132 C 0.71202 0.60958 0.22111 0.0
C6133 C 0.71266 0.59975 0.21425 0.0
C6134 C 0.70715 0.59978 0.20349 0.0
C6135 C 0.70122 0.60948 0.19964 0.0
C6136 C 0.71896 0.58944 0.2184 0.0
C6137 C 0.71307 0.57886 0.21905 0.0
C6138 C 0.73054 0.5901 0.22221 0.0
C6139 C 0.73751 0.6008 0.22107 0.0
C6140 C 0.73873 0.60623 0.21035 0.0
C6141 C 0.74525 0.61634 0.20934 0.0
C6142 C 0.75065 0.62106 0.21897 0.0
C6143 C 0.74957 0.61567 0.22964 0.0
C6144 C 0.74305 0.60556 0.23071 0.0
C6145 C 0.75231 0.54864 0.2381 0.0
C6146 C 0.74703 0.54378 0.2478 0.0
C6147 C 0.74651 0.55677 0.23141 0.0
C6148 C 0.73535 0.56022 0.23432 0.0
C6149 C 0.72997 0.55504 0.24384 0.0
C6150 C 0.73576 0.5469 0.25051 0.0
C6151 C 0.72972 0.56987 0.22806 0.0
C6152 C 0.73572 0.58036 0.22705 0.0
C6153 C 0.71831 0.56906 0.22375 0.0
C6154 C 0.71173 0.55807 0.22388 0.0
C6155 C 0.70074 0.55746 0.22883 0.0
C6156 C 0.69457 0.54709 0.22901 0.0
C6157 C 0.69929 0.53728 0.22423 0.0
C6158 C 0.71018 0.53782 0.21922 0.0
C6159 C 0.71638 0.54817 0.219 0.0
H6160 H 0.69451 0.52926 0.22439 0.0
H6161 H 0.7557 0.62888 0.21817 0.0
H6162 H 0.68964 0.4071 0.80816 0.0
H6163 H 0.70042 0.4233 0.80023 0.0
H6164 H 0.72122 0.42498 0.83091 0.0
H6165 H 0.71015 0.40889 0.83913 0.0
H6166 H 0.71511 0.44643 0.82346 0.0
H6167 H 0.73207 0.4133 0.80718 0.0
H6168 H 0.73243 0.39471 0.79727 0.0
H6169 H 0.71731 0.41002 0.76732 0.0
H6170 H 0.7167 0.42868 0.77711 0.0
H6171 H 0.75754 0.48258 0.79458 0.0
H6172 H 0.74702 0.46822 0.80614 0.0
H6173 H 0.72448 0.46135 0.7774 0.0
H6174 H 0.73512 0.47544 0.76587 0.0
H6175 H 0.73317 0.44215 0.78533 0.0
H6176 H 0.71543 0.47521 0.80217 0.0
H6177 H 0.71529 0.49374 0.81221 0.0
H6178 H 0.73238 0.47857 0.84117 0.0
H6179 H 0.73275 0.45997 0.83123 0.0
C6180 C 0.6964 0.41098 0.81332 0.0
C6181 C 0.699 0.40667 0.82431 0.0
C6182 C 0.70264 0.42019 0.80871 0.0
C6183 C 0.71173 0.42529 0.81491 0.0
C6184 C 0.71427 0.42116 0.82596 0.0
C6185 C 0.708 0.4119 0.83059 0.0
C6186 C 0.71861 0.4348 0.80968 0.0
C6187 C 0.71922 0.44546 0.8152 0.0
C6188 C 0.72388 0.43358 0.79885 0.0
C6189 C 0.72426 0.42238 0.79292 0.0
C6190 C 0.72874 0.41269 0.79851 0.0
C6191 C 0.729 0.40214 0.79291 0.0
C6192 C 0.72487 0.40118 0.78169 0.0
C6193 C 0.72049 0.41077 0.77602 0.0
C6194 C 0.7202 0.42134 0.78159 0.0
C6195 C 0.75013 0.4782 0.7909 0.0
C6196 C 0.74705 0.48012 0.77941 0.0
C6197 C 0.74414 0.46999 0.79748 0.0
C6198 C 0.73494 0.46367 0.79264 0.0
C6199 C 0.73156 0.46605 0.78131 0.0
C6200 C 0.73758 0.47415 0.77476 0.0
C6201 C 0.72937 0.45393 0.79891 0.0
C6202 C 0.7291 0.44315 0.79361 0.0
C6203 C 0.72447 0.45506 0.80993 0.0
C6204 C 0.72423 0.46623 0.81591 0.0
C6205 C 0.71924 0.47585 0.81064 0.0
C6206 C 0.7191 0.48636 0.81632 0.0
C6207 C 0.72385 0.48734 0.82731 0.0
C6208 C 0.72872 0.4778 0.83265 0.0
C6209 C 0.72889 0.46727 0.827 0.0
H6210 H 0.72373 0.49549 0.83169 0.0
H6211 H 0.72508 0.393 0.77736 0.0
H6212 H 0.62619 0.7162 0.82481 0.0
H6213 H 0.60929 0.72667 0.81817 0.0
H6214 H 0.59039 0.69481 0.81473 0.0
H6215 H 0.6072 0.6843 0.82142 0.0
H6216 H 0.58751 0.70769 0.79614 0.0
H6217 H 0.58481 0.71382 0.83656 0.0
H6218 H 0.5917 0.71957 0.85574 0.0
H6219 H 0.5976 0.75393 0.84356 0.0
H6220 H 0.5909 0.74835 0.82426 0.0
H6221 H 0.53479 0.73438 0.78231 0.0
H6222 H 0.54863 0.72319 0.79358 0.0
H6223 H 0.57023 0.75329 0.79737 0.0
H6224 H 0.55638 0.76448 0.7863 0.0
H6225 H 0.5707 0.74051 0.81671 0.0
H6226 H 0.57508 0.73418 0.77623 0.0
H6227 H 0.56853 0.72873 0.75685 0.0
H6228 H 0.55985 0.69493 0.76905 0.0
H6229 H 0.5662 0.70025 0.78855 0.0
C6230 C 0.61839 0.71142 0.82282 0.0
C6231 C 0.61812 0.69937 0.82365 0.0
C6232 C 0.60871 0.71743 0.819 0.0
C6233 C 0.59849 0.71156 0.816 0.0
C6234 C 0.59816 0.69956 0.81694 0.0
C6235 C 0.60782 0.69355 0.82074 0.0
C6236 C 0.5883 0.71787 0.81147 0.0
C6237 C 0.58371 0.71473 0.80076 0.0
C6238 C 0.58345 0.72724 0.81733 0.0
C6239 C 0.58745 0.73064 0.82894 0.0
C6240 C 0.58766 0.72258 0.83795 0.0
C6241 C 0.59152 0.72582 0.84885 0.0
C6242 C 0.59511 0.7371 0.85086 0.0
C6243 C 0.59483 0.74519 0.84199 0.0
C6244 C 0.59099 0.742 0.83107 0.0
C6245 C 0.54233 0.73866 0.78582 0.0
C6246 C 0.54454 0.75028 0.78334 0.0
C6247 C 0.5503 0.73224 0.79217 0.0
C6248 C 0.56061 0.73734 0.79616 0.0
C6249 C 0.5624 0.74913 0.79436 0.0
C6250 C 0.55449 0.75551 0.788 0.0
C6251 C 0.56995 0.73032 0.80139 0.0
C6252 C 0.57441 0.73337 0.81218 0.0
C6253 C 0.57473 0.72089 0.79559 0.0
C6254 C 0.57099 0.71765 0.78387 0.0
C6255 C 0.57169 0.72562 0.77479 0.0
C6256 C 0.56803 0.72255 0.76379 0.0
C6257 C 0.56374 0.7115 0.76173 0.0
C6258 C 0.56315 0.70349 0.77066 0.0
C6259 C 0.56678 0.70653 0.78169 0.0
H6260 H 0.56091 0.70914 0.7532 0.0
H6261 H 0.59809 0.73959 0.8593 0.0
H6262 H 0.33227 0.61138 0.82918 0.0
H6263 H 0.32443 0.59442 0.81947 0.0
H6264 H 0.29001 0.60664 0.82468 0.0
H6265 H 0.29776 0.62358 0.83433 0.0
H6266 H 0.29099 0.58444 0.82975 0.0
H6267 H 0.30343 0.60846 0.79837 0.0
H6268 H 0.31729 0.62004 0.78716 0.0
H6269 H 0.33866 0.59063 0.78309 0.0
H6270 H 0.32499 0.5789 0.79443 0.0
H6271 H 0.2581 0.55464 0.78791 0.0
H6272 H 0.2684 0.56823 0.80025 0.0
H6273 H 0.30018 0.55079 0.79381 0.0
H6274 H 0.28983 0.53713 0.78135 0.0
H6275 H 0.30223 0.57396 0.79027 0.0
H6276 H 0.28839 0.5495 0.82013 0.0
H6277 H 0.27405 0.53812 0.83094 0.0
H6278 H 0.25488 0.56854 0.83757 0.0
H6279 H 0.26901 0.58009 0.82665 0.0
C6280 C 0.32304 0.61052 0.82816 0.0
C6281 C 0.31567 0.61887 0.83258 0.0
C6282 C 0.31855 0.60079 0.82262 0.0
C6283 C 0.3066 0.59924 0.82128 0.0
C6284 C 0.29925 0.60757 0.82566 0.0
C6285 C 0.30371 0.61727 0.83121 0.0
C6286 C 0.30168 0.58895 0.81536 0.0
C6287 C 0.29339 0.58221 0.82108 0.0
C6288 C 0.30503 0.5858 0.80416 0.0
C6289 C 0.31326 0.59284 0.79736 0.0
C6290 C 0.31114 0.60449 0.79517 0.0
C6291 C 0.31895 0.61107 0.78878 0.0
C6292 C 0.32887 0.60608 0.78445 0.0
C6293 C 0.33098 0.59449 0.78648 0.0
C6294 C 0.3232 0.58786 0.79288 0.0
C6295 C 0.26725 0.55357 0.78931 0.0
C6296 C 0.27316 0.54482 0.78369 0.0
C6297 C 0.27313 0.56133 0.79639 0.0
C6298 C 0.28508 0.56054 0.79801 0.0
C6299 C 0.29096 0.55156 0.7927 0.0
C6300 C 0.28504 0.54371 0.78568 0.0
C6301 C 0.29141 0.56957 0.80459 0.0
C6302 C 0.29995 0.57609 0.799 0.0
C6303 C 0.28825 0.57256 0.81588 0.0
C6304 C 0.27973 0.56565 0.82249 0.0
C6305 C 0.28107 0.55375 0.82381 0.0
C6306 C 0.27299 0.54727 0.82998 0.0
C6307 C 0.26355 0.5526 0.83492 0.0
C6308 C 0.26219 0.56442 0.83373 0.0
C6309 C 0.27025 0.57094 0.82756 0.0
H6310 H 0.2573 0.54757 0.83969 0.0
H6311 H 0.3349 0.6112 0.77949 0.0
H6312 H 0.39943 0.30048 0.82742 0.0
H6313 H 0.41623 0.29194 0.81856 0.0
H6314 H 0.43417 0.32449 0.81994 0.0
H6315 H 0.41723 0.3332 0.82855 0.0
H6316 H 0.43737 0.31412 0.79948 0.0
H6317 H 0.44062 0.30329 0.83896 0.0
H6318 H 0.43396 0.29524 0.85739 0.0
H6319 H 0.42843 0.26245 0.84163 0.0
H6320 H 0.43491 0.27035 0.82306 0.0
H6321 H 0.48951 0.28851 0.78164 0.0
H6322 H 0.47612 0.2989 0.79391 0.0
H6323 H 0.45472 0.26852 0.79667 0.0
H6324 H 0.4682 0.25809 0.78479 0.0
H6325 H 0.45483 0.27927 0.81635 0.0
H6326 H 0.44938 0.29031 0.77673 0.0
H6327 H 0.45546 0.2981 0.75799 0.0
H6328 H 0.46459 0.33015 0.77372 0.0
H6329 H 0.4587 0.3225 0.79259 0.0
C6330 C 0.40689 0.30588 0.82573 0.0
C6331 C 0.40694 0.31755 0.82872 0.0
C6332 C 0.41656 0.30094 0.82077 0.0
C6333 C 0.42656 0.30751 0.81872 0.0
C6334 C 0.42659 0.31921 0.8215 0.0
C6335 C 0.41692 0.32416 0.8265 0.0
C6336 C 0.43692 0.30215 0.81359 0.0
C6337 C 0.44132 0.30662 0.80329 0.0
C6338 C 0.44199 0.29225 0.81842 0.0
C6339 C 0.43817 0.28744 0.8296 0.0
C6340 C 0.43791 0.29439 0.83941 0.0
C6341 C 0.43418 0.28984 0.84988 0.0
C6342 C 0.43076 0.27835 0.85067 0.0
C6343 C 0.43108 0.27136 0.841 0.0
C6344 C 0.4348 0.27586 0.8305 0.0
C6345 C 0.4821 0.28399 0.78511 0.0
C6346 C 0.47985 0.27251 0.78213 0.0
C6347 C 0.47438 0.28997 0.79202 0.0
C6348 C 0.46424 0.28459 0.79602 0.0
C6349 C 0.46241 0.27292 0.79365 0.0
C6350 C 0.4701 0.26697 0.7868 0.0
C6351 C 0.45517 0.29111 0.80213 0.0
C6352 C 0.45099 0.28686 0.81262 0.0
C6353 C 0.45025 0.30117 0.79742 0.0
C6354 C 0.45373 0.30579 0.78609 0.0
C6355 C 0.45276 0.29899 0.7762 0.0
C6356 C 0.45616 0.30338 0.76556 0.0
C6357 C 0.46044 0.3146 0.76467 0.0
C6358 C 0.4613 0.32146 0.77442 0.0
C6359 C 0.45793 0.3171 0.7851 0.0
H6360 H 0.46307 0.31799 0.75642 0.0
H6361 H 0.42787 0.27485 0.85879 0.0
H6362 H 0.30991 0.40229 0.20263 0.0
H6363 H 0.30046 0.4193 0.21004 0.0
H6364 H 0.33277 0.43132 0.22416 0.0
H6365 H 0.34228 0.41439 0.21673 0.0
H6366 H 0.31618 0.43337 0.23955 0.0
H6367 H 0.32074 0.44385 0.20011 0.0
H6368 H 0.31914 0.44142 0.17918 0.0
H6369 H 0.28232 0.43966 0.18174 0.0
H6370 H 0.28371 0.44192 0.20271 0.0
H6371 H 0.29321 0.48706 0.25627 0.0
H6372 H 0.30531 0.47351 0.24582 0.0
H6373 H 0.27487 0.4577 0.23124 0.0
H6374 H 0.26287 0.47118 0.24156 0.0
H6375 H 0.29194 0.45882 0.2156 0.0
H6376 H 0.2874 0.44654 0.25486 0.0
H6377 H 0.28868 0.44869 0.27585 0.0
H6378 H 0.32528 0.45358 0.27355 0.0
H6379 H 0.32419 0.45163 0.25251 0.0
C6380 C 0.31505 0.40862 0.20717 0.0
C6381 C 0.32688 0.40691 0.20908 0.0
C6382 C 0.30963 0.41837 0.21143 0.0
C6383 C 0.3159 0.42669 0.21761 0.0
C6384 C 0.32771 0.42504 0.21947 0.0
C6385 C 0.33314 0.4153 0.21523 0.0
C6386 C 0.3101 0.43694 0.22243 0.0
C6387 C 0.31106 0.43905 0.23425 0.0
C6388 C 0.30321 0.44427 0.21562 0.0
C6389 C 0.30234 0.44296 0.203 0.0
C6390 C 0.31231 0.44286 0.19622 0.0
C6391 C 0.31143 0.44152 0.18435 0.0
C6392 C 0.30063 0.44036 0.17914 0.0
C6393 C 0.29068 0.44056 0.18579 0.0
C6394 C 0.2915 0.44187 0.19767 0.0
C6395 C 0.28916 0.48086 0.25061 0.0
C6396 C 0.27711 0.48013 0.24975 0.0
C6397 C 0.29605 0.47307 0.24472 0.0
C6398 C 0.29099 0.46446 0.23785 0.0
C6399 C 0.27899 0.46421 0.23648 0.0
C6400 C 0.27214 0.47191 0.24241 0.0
C6401 C 0.29799 0.45519 0.23269 0.0
C6402 C 0.2972 0.45322 0.22084 0.0
C6403 C 0.30501 0.44796 0.23947 0.0
C6404 C 0.30569 0.44908 0.25211 0.0
C6405 C 0.29571 0.44817 0.25883 0.0
C6406 C 0.2964 0.44934 0.27073 0.0
C6407 C 0.30705 0.45131 0.27602 0.0
C6408 C 0.31703 0.45208 0.26943 0.0
C6409 C 0.31638 0.45094 0.25752 0.0
H6410 H 0.30757 0.4522 0.28524 0.0
H6411 H 0.29998 0.43933 0.16994 0.0
H6412 H 0.6074 0.31586 0.18822 0.0
H6413 H 0.59084 0.30888 0.19915 0.0
H6414 H 0.60972 0.3141 0.23066 0.0
H6415 H 0.62647 0.32075 0.21975 0.0
H6416 H 0.59901 0.29374 0.23088 0.0
H6417 H 0.58808 0.33228 0.22214 0.0
H6418 H 0.58443 0.34899 0.20967 0.0
H6419 H 0.55856 0.3298 0.19132 0.0
H6420 H 0.56217 0.31292 0.20359 0.0
H6421 H 0.55366 0.28459 0.26882 0.0
H6422 H 0.5681 0.29545 0.25795 0.0
H6423 H 0.54973 0.28803 0.22659 0.0
H6424 H 0.53512 0.27723 0.23753 0.0
H6425 H 0.5599 0.30976 0.22624 0.0
H6426 H 0.57103 0.27118 0.23487 0.0
H6427 H 0.57432 0.25464 0.24765 0.0
H6428 H 0.59991 0.27395 0.26624 0.0
H6429 H 0.5966 0.2907 0.25371 0.0
C6430 C 0.60808 0.31548 0.19748 0.0
C6431 C 0.61832 0.31887 0.20308 0.0
C6432 C 0.59853 0.31159 0.20373 0.0
C6433 C 0.59895 0.31106 0.21576 0.0
C6434 C 0.60915 0.31446 0.22139 0.0
C6435 C 0.6187 0.31836 0.21514 0.0
C6436 C 0.58889 0.30665 0.22244 0.0
C6437 C 0.59051 0.29738 0.22998 0.0
C6438 C 0.57769 0.31115 0.22108 0.0
C6439 C 0.57547 0.3213 0.21371 0.0
C6440 C 0.58167 0.3316 0.21539 0.0
C6441 C 0.5796 0.3411 0.20837 0.0
C6442 C 0.57129 0.34045 0.19969 0.0
C6443 C 0.56501 0.33029 0.19804 0.0
C6444 C 0.56706 0.32075 0.20503 0.0
C6445 C 0.55255 0.28554 0.25964 0.0
C6446 C 0.54332 0.28001 0.25399 0.0
C6447 C 0.56083 0.2917 0.25343 0.0
C6448 C 0.56016 0.29233 0.24142 0.0
C6449 C 0.55046 0.2876 0.23584 0.0
C6450 C 0.54209 0.28148 0.24209 0.0
C6451 C 0.57009 0.29695 0.23472 0.0
C6452 C 0.56843 0.30618 0.22715 0.0
C6453 C 0.58127 0.29241 0.23604 0.0
C6454 C 0.58349 0.28224 0.24341 0.0
C6455 C 0.57731 0.27193 0.24172 0.0
C6456 C 0.57917 0.26251 0.24893 0.0
C6457 C 0.5873 0.26325 0.25777 0.0
C6458 C 0.59361 0.2734 0.2594 0.0
C6459 C 0.59174 0.28286 0.25225 0.0
H6460 H 0.58873 0.25595 0.26334 0.0
H6461 H 0.56969 0.34782 0.19427 0.0
H6462 H 0.40347 0.72349 0.19523 0.0
H6463 H 0.42049 0.73089 0.20519 0.0
H6464 H 0.42753 0.69707 0.2183 0.0
H6465 H 0.4105 0.68953 0.20822 0.0
H6466 H 0.4305 0.71335 0.23478 0.0
H6467 H 0.44326 0.70779 0.19644 0.0
H6468 H 0.44249 0.7094 0.17537 0.0
H6469 H 0.44471 0.74607 0.17771 0.0
H6470 H 0.44532 0.74469 0.19881 0.0
H6471 H 0.48566 0.733 0.25522 0.0
H6472 H 0.47146 0.72167 0.2442 0.0
H6473 H 0.45864 0.75272 0.22882 0.0
H6474 H 0.47275 0.76396 0.23974 0.0
H6475 H 0.46012 0.73543 0.21317 0.0
H6476 H 0.44516 0.741 0.25133 0.0
H6477 H 0.44559 0.73958 0.27243 0.0
H6478 H 0.44747 0.70294 0.27034 0.0
H6479 H 0.4472 0.70415 0.24921 0.0
C6480 C 0.40868 0.71757 0.20013 0.0
C6481 C 0.40566 0.70587 0.2008 0.0
C6482 C 0.41841 0.72184 0.20585 0.0
C6483 C 0.42542 0.71451 0.21234 0.0
C6484 C 0.42228 0.70288 0.2133 0.0
C6485 C 0.41252 0.69859 0.20757 0.0
C6486 C 0.43598 0.71909 0.21808 0.0
C6487 C 0.43709 0.71798 0.23002 0.0
C6488 C 0.44453 0.72527 0.21191 0.0
C6489 C 0.44425 0.72614 0.19922 0.0
C6490 C 0.44351 0.7162 0.19247 0.0
C6491 C 0.44311 0.71707 0.18052 0.0
C6492 C 0.44353 0.72783 0.1752 0.0
C6493 C 0.44438 0.73774 0.18183 0.0
C6494 C 0.44476 0.73692 0.19379 0.0
C6495 C 0.47995 0.73733 0.24931 0.0
C6496 C 0.48026 0.74934 0.24834 0.0
C6497 C 0.47179 0.73089 0.24309 0.0
C6498 C 0.4639 0.73636 0.23577 0.0
C6499 C 0.46462 0.7483 0.23441 0.0
C6500 C 0.47266 0.75472 0.24067 0.0
C6501 C 0.45451 0.72986 0.22988 0.0
C6502 C 0.45362 0.73063 0.2179 0.0
C6503 C 0.44617 0.72339 0.23601 0.0
C6504 C 0.44631 0.72267 0.2487 0.0
C6505 C 0.44577 0.73265 0.25537 0.0
C6506 C 0.44596 0.73188 0.26733 0.0
C6507 C 0.4466 0.72119 0.27272 0.0
C6508 C 0.44701 0.71122 0.26616 0.0
C6509 C 0.44683 0.71194 0.25419 0.0
H6510 H 0.44674 0.72061 0.28198 0.0
H6511 H 0.44322 0.72848 0.16595 0.0
loop_
_geom_bond_atom_site_label_1
_geom_bond_atom_site_label_2
_geom_bond_distance
_geom_bond_site_symmetry_2
_ccdc_geom_bond_type
C0 C1 1.264 . S
C0 C5 1.479 . S
C0 C10 1.465 . S
C1 C0 1.264 . S
C1 C3 1.339 . S
C1 H28 0.931 . S
C2 C3 1.395 . S
C2 C4 1.320 . S
C3 C1 1.339 . S
C3 C2 1.395 . S
C3 H29 0.929 . S
C4 C2 1.320 . S
C4 C5 1.405 . S
C4 H30 0.930 . S
C5 C0 1.479 . S
C5 C4 1.405 . S
C5 H31 0.931 . S
U6 O7 2.454 . S
U6 O8 2.458 . S
U6 C9 2.984 . S
U6 C10 2.847 . S
U6 C23 2.882 . S
U6 O24 2.441 . S
U6 O25 2.420 . S
U6 O26 2.455 . S
U6 O27 2.449 . S
O7 U6 2.454 . S
O7 C9 1.353 . S
O8 U6 2.458 . S
O8 C9 1.286 . S
C9 U6 2.984 . S
C9 O7 1.353 . S
C9 O8 1.286 . S
C9 C11 1.363 . S
C10 C0 1.465 . S
C10 U6 2.847 . S
C10 O24 1.249 . S
C10 O25 1.202 . S
C11 C9 1.363 . S
C11 C13 1.408 . S
C11 C16 1.342 . S
C12 C13 1.310 . S
C12 C15 1.461 . S
C12 H32 0.932 . S
C13 C11 1.408 . S
C13 C12 1.310 . S
C13 H33 0.930 . S
C14 C15 1.474 . S
C14 C16 1.285 . S
C14 H34 0.929 . S
C15 C12 1.461 . S
C15 C14 1.474 . S
C16 C11 1.342 . S
C16 C14 1.285 . S
C16 H35 0.930 . S
C17 C20 1.424 . S
C17 C22 1.245 . S
C17 C23 1.428 . S
C18 C21 1.260 . S
C18 C22 1.477 . S
C18 H36 0.932 . S
C19 C20 1.384 . S
C19 C21 1.479 . S
C19 H37 0.929 . S
C20 C17 1.424 . S
C20 C19 1.384 . S
C20 H38 0.928 . S
C21 C18 1.260 . S
C21 C19 1.479 . S
C22 C17 1.245 . S
C22 C18 1.477 . S
C22 H39 0.932 . S
C23 U6 2.882 . S
C23 C17 1.428 . S
C23 O26 1.301 . S
C23 O27 1.282 . S
O24 U6 2.441 . S
O24 C10 1.249 . S
O25 U6 2.420 . S
O25 C10 1.202 . S
O26 U6 2.455 . S
O26 C23 1.301 . S
O27 U6 2.449 . S
O27 C23 1.282 . S
H28 C1 0.931 . S
H29 C3 0.929 . S
H30 C4 0.930 . S
H31 C5 0.931 . S
H32 C12 0.932 . S
H33 C13 0.930 . S
H34 C14 0.929 . S
H35 C16 0.930 . S
H36 C18 0.932 . S
H37 C19 0.929 . S
H38 C20 0.928 . S
H39 C22 0.932 . S
C40 C41 1.264 . S
C40 C45 1.479 . S
C40 C50 1.465 . S
C41 C40 1.264 . S
C41 C43 1.339 . S
C41 H68 0.931 . S
C42 C43 1.395 . S
C42 C44 1.320 . S
C43 C41 1.339 . S
C43 C42 1.395 . S
C43 H69 0.929 . S
C44 C42 1.320 . S
C44 C45 1.405 . S
C44 H70 0.930 . S
C45 C40 1.479 . S
C45 C44 1.405 . S
C45 H71 0.931 . S
U46 O47 2.454 . S
U46 O48 2.458 . S
U46 C49 2.984 . S
U46 C50 2.847 . S
U46 C63 2.882 . S
U46 O64 2.441 . S
U46 O65 2.420 . S
U46 O66 2.455 . S
U46 O67 2.449 . S
O47 U46 2.454 . S
O47 C49 1.353 . S
O48 U46 2.458 . S
O48 C49 1.286 . S
C49 U46 2.984 . S
C49 O47 1.353 . S
C49 O48 1.286 . S
C49 C51 1.363 . S
C50 C40 1.465 . S
C50 U46 2.847 . S
C50 O64 1.249 . S
C50 O65 1.202 . S
C51 C49 1.363 . S
C51 C53 1.408 . S
C51 C56 1.342 . S
C52 C53 1.310 . S
C52 C55 1.461 . S
C52 H72 0.932 . S
C53 C51 1.408 . S
C53 C52 1.310 . S
C53 H73 0.930 . S
C54 C55 1.474 . S
C54 C56 1.285 . S
C54 H74 0.929 . S
C55 C52 1.461 . S
C55 C54 1.474 . S
C56 C51 1.342 . S
C56 C54 1.285 . S
C56 H75 0.930 . S
C57 C60 1.424 . S
C57 C62 1.245 . S
C57 C63 1.428 . S
C58 C61 1.260 . S
C58 C62 1.477 . S
C58 H76 0.932 . S
C59 C60 1.384 . S
C59 C61 1.479 . S
C59 H77 0.929 . S
C60 C57 1.424 . S
C60 C59 1.384 . S
C60 H78 0.928 . S
C61 C58 1.260 . S
C61 C59 1.479 . S
C62 C57 1.245 . S
C62 C58 1.477 . S
C62 H79 0.932 . S
C63 U46 2.882 . S
C63 C57 1.428 . S
C63 O66 1.301 . S
C63 O67 1.282 . S
O64 U46 2.441 . S
O64 C50 1.249 . S
O65 U46 2.420 . S
O65 C50 1.202 . S
O66 U46 2.455 . S
O66 C63 1.301 . S
O67 U46 2.449 . S
O67 C63 1.282 . S
H68 C41 0.931 . S
H69 C43 0.929 . S
H70 C44 0.930 . S
H71 C45 0.931 . S
H72 C52 0.932 . S
H73 C53 0.930 . S
H74 C54 0.929 . S
H75 C56 0.930 . S
H76 C58 0.932 . S
H77 C59 0.929 . S
H78 C60 0.928 . S
H79 C62 0.932 . S
C80 C81 1.264 . S
C80 C85 1.479 . S
C80 C90 1.465 . S
C81 C80 1.264 . S
C81 C83 1.339 . S
C81 H108 0.931 . S
C82 C83 1.395 . S
C82 C84 1.320 . S
C83 C81 1.339 . S
C83 C82 1.395 . S
C83 H109 0.929 . S
C84 C82 1.320 . S
C84 C85 1.405 . S
C84 H110 0.930 . S
C85 C80 1.479 . S
C85 C84 1.405 . S
C85 H111 0.931 . S
U86 O87 2.454 . S
U86 O88 2.458 . S
U86 C89 2.984 . S
U86 C90 2.847 . S
U86 C103 2.882 . S
U86 O104 2.441 . S
U86 O105 2.420 . S
U86 O106 2.455 . S
U86 O107 2.449 . S
O87 U86 2.454 . S
O87 C89 1.353 . S
O88 U86 2.458 . S
O88 C89 1.286 . S
C89 U86 2.984 . S
C89 O87 1.353 . S
C89 O88 1.286 . S
C89 C91 1.363 . S
C90 C80 1.465 . S
C90 U86 2.847 . S
C90 O104 1.249 . S
C90 O105 1.202 . S
C91 C89 1.363 . S
C91 C93 1.408 . S
C91 C96 1.342 . S
C92 C93 1.310 . S
C92 C95 1.461 . S
C92 H112 0.932 . S
C93 C91 1.408 . S
C93 C92 1.310 . S
C93 H113 0.930 . S
C94 C95 1.474 . S
C94 C96 1.285 . S
C94 H114 0.929 . S
C95 C92 1.461 . S
C95 C94 1.474 . S
C96 C91 1.342 . S
C96 C94 1.285 . S
C96 H115 0.930 . S
C97 C100 1.424 . S
C97 C102 1.245 . S
C97 C103 1.428 . S
C98 C101 1.260 . S
C98 C102 1.477 . S
C98 H116 0.932 . S
C99 C100 1.384 . S
C99 C101 1.479 . S
C99 H117 0.929 . S
C100 C97 1.424 . S
C100 C99 1.384 . S
C100 H118 0.928 . S
C101 C98 1.260 . S
C101 C99 1.479 . S
C102 C97 1.245 . S
C102 C98 1.477 . S
C102 H119 0.932 . S
C103 U86 2.882 . S
C103 C97 1.428 . S
C103 O106 1.301 . S
C103 O107 1.282 . S
O104 U86 2.441 . S
O104 C90 1.249 . S
O105 U86 2.420 . S
O105 C90 1.202 . S
O106 U86 2.455 . S
O106 C103 1.301 . S
O107 U86 2.449 . S
O107 C103 1.282 . S
H108 C81 0.931 . S
H109 C83 0.929 . S
H110 C84 0.930 . S
H111 C85 0.931 . S
H112 C92 0.932 . S
H113 C93 0.930 . S
H114 C94 0.929 . S
H115 C96 0.930 . S
H116 C98 0.932 . S
H117 C99 0.929 . S
H118 C100 0.928 . S
H119 C102 0.932 . S
C120 C121 1.264 . S
C120 C125 1.479 . S
C120 C130 1.465 . S
C121 C120 1.264 . S
C121 C123 1.339 . S
C121 H148 0.931 . S
C122 C123 1.395 . S
C122 C124 1.320 . S
C123 C121 1.339 . S
C123 C122 1.395 . S
C123 H149 0.929 . S
C124 C122 1.320 . S
C124 C125 1.405 . S
C124 H150 0.930 . S
C125 C120 1.479 . S
C125 C124 1.405 . S
C125 H151 0.931 . S
U126 O127 2.454 . S
U126 O128 2.458 . S
U126 C129 2.984 . S
U126 C130 2.847 . S
U126 C143 2.882 . S
U126 O144 2.441 . S
U126 O145 2.420 . S
U126 O146 2.455 . S
U126 O147 2.449 . S
O127 U126 2.454 . S
O127 C129 1.353 . S
O128 U126 2.458 . S
O128 C129 1.286 . S
C129 U126 2.984 . S
C129 O127 1.353 . S
C129 O128 1.286 . S
C129 C131 1.363 . S
C130 C120 1.465 . S
C130 U126 2.847 . S
C130 O144 1.249 . S
C130 O145 1.202 . S
C131 C129 1.363 . S
C131 C133 1.408 . S
C131 C136 1.342 . S
C132 C133 1.310 . S
C132 C135 1.461 . S
C132 H152 0.932 . S
C133 C131 1.408 . S
C133 C132 1.310 . S
C133 H153 0.930 . S
C134 C135 1.474 . S
C134 C136 1.285 . S
C134 H154 0.929 . S
C135 C132 1.461 . S
C135 C134 1.474 . S
C136 C131 1.342 . S
C136 C134 1.285 . S
C136 H155 0.930 . S
C137 C140 1.424 . S
C137 C142 1.245 . S
C137 C143 1.428 . S
C138 C141 1.260 . S
C138 C142 1.477 . S
C138 H156 0.932 . S
C139 C140 1.384 . S
C139 C141 1.479 . S
C139 H157 0.929 . S
C140 C137 1.424 . S
C140 C139 1.384 . S
C140 H158 0.928 . S
C141 C138 1.260 . S
C141 C139 1.479 . S
C142 C137 1.245 . S
C142 C138 1.477 . S
C142 H159 0.932 . S
C143 U126 2.882 . S
C143 C137 1.428 . S
C143 O146 1.301 . S
C143 O147 1.282 . S
O144 U126 2.441 . S
O144 C130 1.249 . S
O145 U126 2.420 . S
O145 C130 1.202 . S
O146 U126 2.455 . S
O146 C143 1.301 . S
O147 U126 2.449 . S
O147 C143 1.282 . S
H148 C121 0.931 . S
H149 C123 0.929 . S
H150 C124 0.930 . S
H151 C125 0.931 . S
H152 C132 0.932 . S
H153 C133 0.930 . S
H154 C134 0.929 . S
H155 C136 0.930 . S
H156 C138 0.932 . S
H157 C139 0.929 . S
H158 C140 0.928 . S
H159 C142 0.932 . S
C160 C161 1.264 . S
C160 C165 1.479 . S
C160 C170 1.465 . S
C161 C160 1.264 . S
C161 C163 1.339 . S
C161 H188 0.931 . S
C162 C163 1.395 . S
C162 C164 1.320 . S
C163 C161 1.339 . S
C163 C162 1.395 . S
C163 H189 0.929 . S
C164 C162 1.320 . S
C164 C165 1.405 . S
C164 H190 0.930 . S
C165 C160 1.479 . S
C165 C164 1.405 . S
C165 H191 0.931 . S
U166 O167 2.454 . S
U166 O168 2.458 . S
U166 C169 2.984 . S
U166 C170 2.847 . S
U166 C183 2.882 . S
U166 O184 2.441 . S
U166 O185 2.420 . S
U166 O186 2.455 . S
U166 O187 2.449 . S
O167 U166 2.454 . S
O167 C169 1.353 . S
O168 U166 2.458 . S
O168 C169 1.286 . S
C169 U166 2.984 . S
C169 O167 1.353 . S
C169 O168 1.286 . S
C169 C171 1.363 . S
C170 C160 1.465 . S
C170 U166 2.847 . S
C170 O184 1.249 . S
C170 O185 1.202 . S
C171 C169 1.363 . S
C171 C173 1.408 . S
C171 C176 1.342 . S
C172 C173 1.310 . S
C172 C175 1.461 . S
C172 H192 0.932 . S
C173 C171 1.408 . S
C173 C172 1.310 . S
C173 H193 0.930 . S
C174 C175 1.474 . S
C174 C176 1.285 . S
C174 H194 0.929 . S
C175 C172 1.461 . S
C175 C174 1.474 . S
C176 C171 1.342 . S
C176 C174 1.285 . S
C176 H195 0.930 . S
C177 C180 1.424 . S
C177 C182 1.245 . S
C177 C183 1.428 . S
C178 C181 1.260 . S
C178 C182 1.477 . S
C178 H196 0.932 . S
C179 C180 1.384 . S
C179 C181 1.479 . S
C179 H197 0.929 . S
C180 C177 1.424 . S
C180 C179 1.384 . S
C180 H198 0.928 . S
C181 C178 1.260 . S
C181 C179 1.479 . S
C182 C177 1.245 . S
C182 C178 1.477 . S
C182 H199 0.932 . S
C183 U166 2.882 . S
C183 C177 1.428 . S
C183 O186 1.301 . S
C183 O187 1.282 . S
O184 U166 2.441 . S
O184 C170 1.249 . S
O185 U166 2.420 . S
O185 C170 1.202 . S
O186 U166 2.455 . S
O186 C183 1.301 . S
O187 U166 2.449 . S
O187 C183 1.282 . S
H188 C161 0.931 . S
H189 C163 0.929 . S
H190 C164 0.930 . S
H191 C165 0.931 . S
H192 C172 0.932 . S
H193 C173 0.930 . S
H194 C174 0.929 . S
H195 C176 0.930 . S
H196 C178 0.932 . S
H197 C179 0.929 . S
H198 C180 0.928 . S
H199 C182 0.932 . S
C200 C201 1.264 . S
C200 C205 1.479 . S
C200 C210 1.465 . S
C201 C200 1.264 . S
C201 C203 1.339 . S
C201 H228 0.931 . S
C202 C203 1.395 . S
C202 C204 1.320 . S
C203 C201 1.339 . S
C203 C202 1.395 . S
C203 H229 0.929 . S
C204 C202 1.320 . S
C204 C205 1.405 . S
C204 H230 0.930 . S
C205 C200 1.479 . S
C205 C204 1.405 . S
C205 H231 0.931 . S
U206 O207 2.454 . S
U206 O208 2.458 . S
U206 C209 2.984 . S
U206 C210 2.847 . S
U206 C223 2.882 . S
U206 O224 2.441 . S
U206 O225 2.420 . S
U206 O226 2.455 . S
U206 O227 2.449 . S
O207 U206 2.454 . S
O207 C209 1.353 . S
O208 U206 2.458 . S
O208 C209 1.286 . S
C209 U206 2.984 . S
C209 O207 1.353 . S
C209 O208 1.286 . S
C209 C211 1.363 . S
C210 C200 1.465 . S
C210 U206 2.847 . S
C210 O224 1.249 . S
C210 O225 1.202 . S
C211 C209 1.363 . S
C211 C213 1.408 . S
C211 C216 1.342 . S
C212 C213 1.310 . S
C212 C215 1.461 . S
C212 H232 0.932 . S
C213 C211 1.408 . S
C213 C212 1.310 . S
C213 H233 0.930 . S
C214 C215 1.474 . S
C214 C216 1.285 . S
C214 H234 0.929 . S
C215 C212 1.461 . S
C215 C214 1.474 . S
C216 C211 1.342 . S
C216 C214 1.285 . S
C216 H235 0.930 . S
C217 C220 1.424 . S
C217 C222 1.245 . S
C217 C223 1.428 . S
C218 C221 1.260 . S
C218 C222 1.477 . S
C218 H236 0.932 . S
C219 C220 1.384 . S
C219 C221 1.479 . S
C219 H237 0.929 . S
C220 C217 1.424 . S
C220 C219 1.384 . S
C220 H238 0.928 . S
C221 C218 1.260 . S
C221 C219 1.479 . S
C222 C217 1.245 . S
C222 C218 1.477 . S
C222 H239 0.932 . S
C223 U206 2.882 . S
C223 C217 1.428 . S
C223 O226 1.301 . S
C223 O227 1.282 . S
O224 U206 2.441 . S
O224 C210 1.249 . S
O225 U206 2.420 . S
O225 C210 1.202 . S
O226 U206 2.455 . S
O226 C223 1.301 . S
O227 U206 2.449 . S
O227 C223 1.282 . S
H228 C201 0.931 . S
H229 C203 0.929 . S
H230 C204 0.930 . S
H231 C205 0.931 . S
H232 C212 0.932 . S
H233 C213 0.930 . S
H234 C214 0.929 . S
H235 C216 0.930 . S
H236 C218 0.932 . S
H237 C219 0.929 . S
H238 C220 0.928 . S
H239 C222 0.932 . S
C240 C241 1.264 . S
C240 C245 1.479 . S
C240 C250 1.465 . S
C241 C240 1.264 . S
C241 C243 1.339 . S
C241 H268 0.931 . S
C242 C243 1.395 . S
C242 C244 1.320 . S
C243 C241 1.339 . S
C243 C242 1.395 . S
C243 H269 0.929 . S
C244 C242 1.320 . S
C244 C245 1.405 . S
C244 H270 0.930 . S
C245 C240 1.479 . S
C245 C244 1.405 . S
C245 H271 0.931 . S
U246 O247 2.454 . S
U246 O248 2.458 . S
U246 C249 2.984 . S
U246 C250 2.847 . S
U246 C263 2.882 . S
U246 O264 2.441 . S
U246 O265 2.420 . S
U246 O266 2.455 . S
U246 O267 2.449 . S
O247 U246 2.454 . S
O247 C249 1.353 . S
O248 U246 2.458 . S
O248 C249 1.286 . S
C249 U246 2.984 . S
C249 O247 1.353 . S
C249 O248 1.286 . S
C249 C251 1.363 . S
C250 C240 1.465 . S
C250 U246 2.847 . S
C250 O264 1.249 . S
C250 O265 1.202 . S
C251 C249 1.363 . S
C251 C253 1.408 . S
C251 C256 1.342 . S
C252 C253 1.310 . S
C252 C255 1.461 . S
C252 H272 0.932 . S
C253 C251 1.408 . S
C253 C252 1.310 . S
C253 H273 0.930 . S
C254 C255 1.474 . S
C254 C256 1.285 . S
C254 H274 0.929 . S
C255 C252 1.461 . S
C255 C254 1.474 . S
C256 C251 1.342 . S
C256 C254 1.285 . S
C256 H275 0.930 . S
C257 C260 1.424 . S
C257 C262 1.245 . S
C257 C263 1.428 . S
C258 C261 1.260 . S
C258 C262 1.477 . S
C258 H276 0.932 . S
C259 C260 1.384 . S
C259 C261 1.479 . S
C259 H277 0.929 . S
C260 C257 1.424 . S
C260 C259 1.384 . S
C260 H278 0.928 . S
C261 C258 1.260 . S
C261 C259 1.479 . S
C262 C257 1.245 . S
C262 C258 1.477 . S
C262 H279 0.932 . S
C263 U246 2.882 . S
C263 C257 1.428 . S
C263 O266 1.301 . S
C263 O267 1.282 . S
O264 U246 2.441 . S
O264 C250 1.249 . S
O265 U246 2.420 . S
O265 C250 1.202 . S
O266 U246 2.455 . S
O266 C263 1.301 . S
O267 U246 2.449 . S
O267 C263 1.282 . S
H268 C241 0.931 . S
H269 C243 0.929 . S
H270 C244 0.930 . S
H271 C245 0.931 . S
H272 C252 0.932 . S
H273 C253 0.930 . S
H274 C254 0.929 . S
H275 C256 0.930 . S
H276 C258 0.932 . S
H277 C259 0.929 . S
H278 C260 0.928 . S
H279 C262 0.932 . S
C280 C281 1.264 . S
C280 C285 1.479 . S
C280 C290 1.465 . S
C281 C280 1.264 . S
C281 C283 1.339 . S
C281 H308 0.931 . S
C282 C283 1.395 . S
C282 C284 1.320 . S
C283 C281 1.339 . S
C283 C282 1.395 . S
C283 H309 0.929 . S
C284 C282 1.320 . S
C284 C285 1.405 . S
C284 H310 0.930 . S
C285 C280 1.479 . S
C285 C284 1.405 . S
C285 H311 0.931 . S
U286 O287 2.454 . S
U286 O288 2.458 . S
U286 C289 2.984 . S
U286 C290 2.847 . S
U286 C303 2.882 . S
U286 O304 2.441 . S
U286 O305 2.420 . S
U286 O306 2.455 . S
U286 O307 2.449 . S
O287 U286 2.454 . S
O287 C289 1.353 . S
O288 U286 2.458 . S
O288 C289 1.286 . S
C289 U286 2.984 . S
C289 O287 1.353 . S
C289 O288 1.286 . S
C289 C291 1.363 . S
C290 C280 1.465 . S
C290 U286 2.847 . S
C290 O304 1.249 . S
C290 O305 1.202 . S
C291 C289 1.363 . S
C291 C293 1.408 . S
C291 C296 1.342 . S
C292 C293 1.310 . S
C292 C295 1.461 . S
C292 H312 0.932 . S
C293 C291 1.408 . S
C293 C292 1.310 . S
C293 H313 0.930 . S
C294 C295 1.474 . S
C294 C296 1.285 . S
C294 H314 0.929 . S
C295 C292 1.461 . S
C295 C294 1.474 . S
C296 C291 1.342 . S
C296 C294 1.285 . S
C296 H315 0.930 . S
C297 C300 1.424 . S
C297 C302 1.245 . S
C297 C303 1.428 . S
C298 C301 1.260 . S
C298 C302 1.477 . S
C298 H316 0.932 . S
C299 C300 1.384 . S
C299 C301 1.479 . S
C299 H317 0.929 . S
C300 C297 1.424 . S
C300 C299 1.384 . S
C300 H318 0.928 . S
C301 C298 1.260 . S
C301 C299 1.479 . S
C302 C297 1.245 . S
C302 C298 1.477 . S
C302 H319 0.932 . S
C303 U286 2.882 . S
C303 C297 1.428 . S
C303 O306 1.301 . S
C303 O307 1.282 . S
O304 U286 2.441 . S
O304 C290 1.249 . S
O305 U286 2.420 . S
O305 C290 1.202 . S
O306 U286 2.455 . S
O306 C303 1.301 . S
O307 U286 2.449 . S
O307 C303 1.282 . S
H308 C281 0.931 . S
H309 C283 0.929 . S
H310 C284 0.930 . S
H311 C285 0.931 . S
H312 C292 0.932 . S
H313 C293 0.930 . S
H314 C294 0.929 . S
H315 C296 0.930 . S
H316 C298 0.932 . S
H317 C299 0.929 . S
H318 C300 0.928 . S
H319 C302 0.932 . S
C320 C321 1.264 . S
C320 C325 1.479 . S
C320 C330 1.465 . S
C321 C320 1.264 . S
C321 C323 1.339 . S
C321 H348 0.931 . S
C322 C323 1.395 . S
C322 C324 1.320 . S
C323 C321 1.339 . S
C323 C322 1.395 . S
C323 H349 0.929 . S
C324 C322 1.320 . S
C324 C325 1.405 . S
C324 H350 0.930 . S
C325 C320 1.479 . S
C325 C324 1.405 . S
C325 H351 0.931 . S
U326 O327 2.454 . S
U326 O328 2.458 . S
U326 C329 2.984 . S
U326 C330 2.847 . S
U326 C343 2.882 . S
U326 O344 2.441 . S
U326 O345 2.420 . S
U326 O346 2.455 . S
U326 O347 2.449 . S
O327 U326 2.454 . S
O327 C329 1.353 . S
O328 U326 2.458 . S
O328 C329 1.286 . S
C329 U326 2.984 . S
C329 O327 1.353 . S
C329 O328 1.286 . S
C329 C331 1.363 . S
C330 C320 1.465 . S
C330 U326 2.847 . S
C330 O344 1.249 . S
C330 O345 1.202 . S
C331 C329 1.363 . S
C331 C333 1.408 . S
C331 C336 1.342 . S
C332 C333 1.310 . S
C332 C335 1.461 . S
C332 H352 0.932 . S
C333 C331 1.408 . S
C333 C332 1.310 . S
C333 H353 0.930 . S
C334 C335 1.474 . S
C334 C336 1.285 . S
C334 H354 0.929 . S
C335 C332 1.461 . S
C335 C334 1.474 . S
C336 C331 1.342 . S
C336 C334 1.285 . S
C336 H355 0.930 . S
C337 C340 1.424 . S
C337 C342 1.245 . S
C337 C343 1.428 . S
C338 C341 1.260 . S
C338 C342 1.477 . S
C338 H356 0.932 . S
C339 C340 1.384 . S
C339 C341 1.479 . S
C339 H357 0.929 . S
C340 C337 1.424 . S
C340 C339 1.384 . S
C340 H358 0.928 . S
C341 C338 1.260 . S
C341 C339 1.479 . S
C342 C337 1.245 . S
C342 C338 1.477 . S
C342 H359 0.932 . S
C343 U326 2.882 . S
C343 C337 1.428 . S
C343 O346 1.301 . S
C343 O347 1.282 . S
O344 U326 2.441 . S
O344 C330 1.249 . S
O345 U326 2.420 . S
O345 C330 1.202 . S
O346 U326 2.455 . S
O346 C343 1.301 . S
O347 U326 2.449 . S
O347 C343 1.282 . S
H348 C321 0.931 . S
H349 C323 0.929 . S
H350 C324 0.930 . S
H351 C325 0.931 . S
H352 C332 0.932 . S
H353 C333 0.930 . S
H354 C334 0.929 . S
H355 C336 0.930 . S
H356 C338 0.932 . S
H357 C339 0.929 . S
H358 C340 0.928 . S
H359 C342 0.932 . S
C360 C361 1.264 . S
C360 C365 1.479 . S
C360 C370 1.465 . S
C361 C360 1.264 . S
C361 C363 1.339 . S
C361 H388 0.931 . S
C362 C363 1.395 . S
C362 C364 1.320 . S
C363 C361 1.339 . S
C363 C362 1.395 . S
C363 H389 0.929 . S
C364 C362 1.320 . S
C364 C365 1.405 . S
C364 H390 0.930 . S
C365 C360 1.479 . S
C365 C364 1.405 . S
C365 H391 0.931 . S
U366 O367 2.454 . S
U366 O368 2.458 . S
U366 C369 2.984 . S
U366 C370 2.847 . S
U366 C383 2.882 . S
U366 O384 2.441 . S
U366 O385 2.420 . S
U366 O386 2.455 . S
U366 O387 2.449 . S
O367 U366 2.454 . S
O367 C369 1.353 . S
O368 U366 2.458 . S
O368 C369 1.286 . S
C369 U366 2.984 . S
C369 O367 1.353 . S
C369 O368 1.286 . S
C369 C371 1.363 . S
C370 C360 1.465 . S
C370 U366 2.847 . S
C370 O384 1.249 . S
C370 O385 1.202 . S
C371 C369 1.363 . S
C371 C373 1.408 . S
C371 C376 1.342 . S
C372 C373 1.310 . S
C372 C375 1.461 . S
C372 H392 0.932 . S
C373 C371 1.408 . S
C373 C372 1.310 . S
C373 H393 0.930 . S
C374 C375 1.474 . S
C374 C376 1.285 . S
C374 H394 0.929 . S
C375 C372 1.461 . S
C375 C374 1.474 . S
C376 C371 1.342 . S
C376 C374 1.285 . S
C376 H395 0.930 . S
C377 C380 1.424 . S
C377 C382 1.245 . S
C377 C383 1.428 . S
C378 C381 1.260 . S
C378 C382 1.477 . S
C378 H396 0.932 . S
C379 C380 1.384 . S
C379 C381 1.479 . S
C379 H397 0.929 . S
C380 C377 1.424 . S
C380 C379 1.384 . S
C380 H398 0.928 . S
C381 C378 1.260 . S
C381 C379 1.479 . S
C382 C377 1.245 . S
C382 C378 1.477 . S
C382 H399 0.932 . S
C383 U366 2.882 . S
C383 C377 1.428 . S
C383 O386 1.301 . S
C383 O387 1.282 . S
O384 U366 2.441 . S
O384 C370 1.249 . S
O385 U366 2.420 . S
O385 C370 1.202 . S
O386 U366 2.455 . S
O386 C383 1.301 . S
O387 U366 2.449 . S
O387 C383 1.282 . S
H388 C361 0.931 . S
H389 C363 0.929 . S
H390 C364 0.930 . S
H391 C365 0.931 . S
H392 C372 0.932 . S
H393 C373 0.930 . S
H394 C374 0.929 . S
H395 C376 0.930 . S
H396 C378 0.932 . S
H397 C379 0.929 . S
H398 C380 0.928 . S
H399 C382 0.932 . S
C400 C401 1.264 . S
C400 C405 1.479 . S
C400 C410 1.465 . S
C401 C400 1.264 . S
C401 C403 1.339 . S
C401 H428 0.931 . S
C402 C403 1.395 . S
C402 C404 1.320 . S
C403 C401 1.339 . S
C403 C402 1.395 . S
C403 H429 0.929 . S
C404 C402 1.320 . S
C404 C405 1.405 . S
C404 H430 0.930 . S
C405 C400 1.479 . S
C405 C404 1.405 . S
C405 H431 0.931 . S
U406 O407 2.454 . S
U406 O408 2.458 . S
U406 C409 2.984 . S
U406 C410 2.847 . S
U406 C423 2.882 . S
U406 O424 2.441 . S
U406 O425 2.420 . S
U406 O426 2.455 . S
U406 O427 2.449 . S
O407 U406 2.454 . S
O407 C409 1.353 . S
O408 U406 2.458 . S
O408 C409 1.286 . S
C409 U406 2.984 . S
C409 O407 1.353 . S
C409 O408 1.286 . S
C409 C411 1.363 . S
C410 C400 1.465 . S
C410 U406 2.847 . S
C410 O424 1.249 . S
C410 O425 1.202 . S
C411 C409 1.363 . S
C411 C413 1.408 . S
C411 C416 1.342 . S
C412 C413 1.310 . S
C412 C415 1.461 . S
C412 H432 0.932 . S
C413 C411 1.408 . S
C413 C412 1.310 . S
C413 H433 0.930 . S
C414 C415 1.474 . S
C414 C416 1.285 . S
C414 H434 0.929 . S
C415 C412 1.461 . S
C415 C414 1.474 . S
C416 C411 1.342 . S
C416 C414 1.285 . S
C416 H435 0.930 . S
C417 C420 1.424 . S
C417 C422 1.245 . S
C417 C423 1.428 . S
C418 C421 1.260 . S
C418 C422 1.477 . S
C418 H436 0.932 . S
C419 C420 1.384 . S
C419 C421 1.479 . S
C419 H437 0.929 . S
C420 C417 1.424 . S
C420 C419 1.384 . S
C420 H438 0.928 . S
C421 C418 1.260 . S
C421 C419 1.479 . S
C422 C417 1.245 . S
C422 C418 1.477 . S
C422 H439 0.932 . S
C423 U406 2.882 . S
C423 C417 1.428 . S
C423 O426 1.301 . S
C423 O427 1.282 . S
O424 U406 2.441 . S
O424 C410 1.249 . S
O425 U406 2.420 . S
O425 C410 1.202 . S
O426 U406 2.455 . S
O426 C423 1.301 . S
O427 U406 2.449 . S
O427 C423 1.282 . S
H428 C401 0.931 . S
H429 C403 0.929 . S
H430 C404 0.930 . S
H431 C405 0.931 . S
H432 C412 0.932 . S
H433 C413 0.930 . S
H434 C414 0.929 . S
H435 C416 0.930 . S
H436 C418 0.932 . S
H437 C419 0.929 . S
H438 C420 0.928 . S
H439 C422 0.932 . S
C440 C441 1.264 . S
C440 C445 1.479 . S
C440 C450 1.465 . S
C441 C440 1.264 . S
C441 C443 1.339 . S
C441 H468 0.931 . S
C442 C443 1.395 . S
C442 C444 1.320 . S
C443 C441 1.339 . S
C443 C442 1.395 . S
C443 H469 0.929 . S
C444 C442 1.320 . S
C444 C445 1.405 . S
C444 H470 0.930 . S
C445 C440 1.479 . S
C445 C444 1.405 . S
C445 H471 0.931 . S
U446 O447 2.454 . S
U446 O448 2.458 . S
U446 C449 2.984 . S
U446 C450 2.847 . S
U446 C463 2.882 . S
U446 O464 2.441 . S
U446 O465 2.420 . S
U446 O466 2.455 . S
U446 O467 2.449 . S
O447 U446 2.454 . S
O447 C449 1.353 . S
O448 U446 2.458 . S
O448 C449 1.286 . S
C449 U446 2.984 . S
C449 O447 1.353 . S
C449 O448 1.286 . S
C449 C451 1.363 . S
C450 C440 1.465 . S
C450 U446 2.847 . S
C450 O464 1.249 . S
C450 O465 1.202 . S
C451 C449 1.363 . S
C451 C453 1.408 . S
C451 C456 1.342 . S
C452 C453 1.310 . S
C452 C455 1.461 . S
C452 H472 0.932 . S
C453 C451 1.408 . S
C453 C452 1.310 . S
C453 H473 0.930 . S
C454 C455 1.474 . S
C454 C456 1.285 . S
C454 H474 0.929 . S
C455 C452 1.461 . S
C455 C454 1.474 . S
C456 C451 1.342 . S
C456 C454 1.285 . S
C456 H475 0.930 . S
C457 C460 1.424 . S
C457 C462 1.245 . S
C457 C463 1.428 . S
C458 C461 1.260 . S
C458 C462 1.477 . S
C458 H476 0.932 . S
C459 C460 1.384 . S
C459 C461 1.479 . S
C459 H477 0.929 . S
C460 C457 1.424 . S
C460 C459 1.384 . S
C460 H478 0.928 . S
C461 C458 1.260 . S
C461 C459 1.479 . S
C462 C457 1.245 . S
C462 C458 1.477 . S
C462 H479 0.932 . S
C463 U446 2.882 . S
C463 C457 1.428 . S
C463 O466 1.301 . S
C463 O467 1.282 . S
O464 U446 2.441 . S
O464 C450 1.249 . S
O465 U446 2.420 . S
O465 C450 1.202 . S
O466 U446 2.455 . S
O466 C463 1.301 . S
O467 U446 2.449 . S
O467 C463 1.282 . S
H468 C441 0.931 . S
H469 C443 0.929 . S
H470 C444 0.930 . S
H471 C445 0.931 . S
H472 C452 0.932 . S
H473 C453 0.930 . S
H474 C454 0.929 . S
H475 C456 0.930 . S
H476 C458 0.932 . S
H477 C459 0.929 . S
H478 C460 0.928 . S
H479 C462 0.932 . S
C480 C481 1.264 . S
C480 C485 1.479 . S
C480 C490 1.465 . S
C481 C480 1.264 . S
C481 C483 1.339 . S
C481 H508 0.931 . S
C482 C483 1.395 . S
C482 C484 1.320 . S
C483 C481 1.339 . S
C483 C482 1.395 . S
C483 H509 0.929 . S
C484 C482 1.320 . S
C484 C485 1.405 . S
C484 H510 0.930 . S
C485 C480 1.479 . S
C485 C484 1.405 . S
C485 H511 0.931 . S
U486 O487 2.454 . S
U486 O488 2.458 . S
U486 C489 2.984 . S
U486 C490 2.847 . S
U486 C503 2.882 . S
U486 O504 2.441 . S
U486 O505 2.420 . S
U486 O506 2.455 . S
U486 O507 2.449 . S
O487 U486 2.454 . S
O487 C489 1.353 . S
O488 U486 2.458 . S
O488 C489 1.286 . S
C489 U486 2.984 . S
C489 O487 1.353 . S
C489 O488 1.286 . S
C489 C491 1.363 . S
C490 C480 1.465 . S
C490 U486 2.847 . S
C490 O504 1.249 . S
C490 O505 1.202 . S
C491 C489 1.363 . S
C491 C493 1.408 . S
C491 C496 1.342 . S
C492 C493 1.310 . S
C492 C495 1.461 . S
C492 H512 0.932 . S
C493 C491 1.408 . S
C493 C492 1.310 . S
C493 H513 0.930 . S
C494 C495 1.474 . S
C494 C496 1.285 . S
C494 H514 0.929 . S
C495 C492 1.461 . S
C495 C494 1.474 . S
C496 C491 1.342 . S
C496 C494 1.285 . S
C496 H515 0.930 . S
C497 C500 1.424 . S
C497 C502 1.245 . S
C497 C503 1.428 . S
C498 C501 1.260 . S
C498 C502 1.477 . S
C498 H516 0.932 . S
C499 C500 1.384 . S
C499 C501 1.479 . S
C499 H517 0.929 . S
C500 C497 1.424 . S
C500 C499 1.384 . S
C500 H518 0.928 . S
C501 C498 1.260 . S
C501 C499 1.479 . S
C502 C497 1.245 . S
C502 C498 1.477 . S
C502 H519 0.932 . S
C503 U486 2.882 . S
C503 C497 1.428 . S
C503 O506 1.301 . S
C503 O507 1.282 . S
O504 U486 2.441 . S
O504 C490 1.249 . S
O505 U486 2.420 . S
O505 C490 1.202 . S
O506 U486 2.455 . S
O506 C503 1.301 . S
O507 U486 2.449 . S
O507 C503 1.282 . S
H508 C481 0.931 . S
H509 C483 0.929 . S
H510 C484 0.930 . S
H511 C485 0.931 . S
H512 C492 0.932 . S
H513 C493 0.930 . S
H514 C494 0.929 . S
H515 C496 0.930 . S
H516 C498 0.932 . S
H517 C499 0.929 . S
H518 C500 0.928 . S
H519 C502 0.932 . S
C520 C521 1.264 . S
C520 C525 1.479 . S
C520 C530 1.465 . S
C521 C520 1.264 . S
C521 C523 1.339 . S
C521 H548 0.931 . S
C522 C523 1.395 . S
C522 C524 1.320 . S
C523 C521 1.339 . S
C523 C522 1.395 . S
C523 H549 0.929 . S
C524 C522 1.320 . S
C524 C525 1.405 . S
C524 H550 0.930 . S
C525 C520 1.479 . S
C525 C524 1.405 . S
C525 H551 0.931 . S
U526 O527 2.454 . S
U526 O528 2.458 . S
U526 C529 2.984 . S
U526 C530 2.847 . S
U526 C543 2.882 . S
U526 O544 2.441 . S
U526 O545 2.420 . S
U526 O546 2.455 . S
U526 O547 2.449 . S
O527 U526 2.454 . S
O527 C529 1.353 . S
O528 U526 2.458 . S
O528 C529 1.286 . S
C529 U526 2.984 . S
C529 O527 1.353 . S
C529 O528 1.286 . S
C529 C531 1.363 . S
C530 C520 1.465 . S
C530 U526 2.847 . S
C530 O544 1.249 . S
C530 O545 1.202 . S
C531 C529 1.363 . S
C531 C533 1.408 . S
C531 C536 1.342 . S
C532 C533 1.310 . S
C532 C535 1.461 . S
C532 H552 0.932 . S
C533 C531 1.408 . S
C533 C532 1.310 . S
C533 H553 0.930 . S
C534 C535 1.474 . S
C534 C536 1.285 . S
C534 H554 0.929 . S
C535 C532 1.461 . S
C535 C534 1.474 . S
C536 C531 1.342 . S
C536 C534 1.285 . S
C536 H555 0.930 . S
C537 C540 1.424 . S
C537 C542 1.245 . S
C537 C543 1.428 . S
C538 C541 1.260 . S
C538 C542 1.477 . S
C538 H556 0.932 . S
C539 C540 1.384 . S
C539 C541 1.479 . S
C539 H557 0.929 . S
C540 C537 1.424 . S
C540 C539 1.384 . S
C540 H558 0.928 . S
C541 C538 1.260 . S
C541 C539 1.479 . S
C542 C537 1.245 . S
C542 C538 1.477 . S
C542 H559 0.932 . S
C543 U526 2.882 . S
C543 C537 1.428 . S
C543 O546 1.301 . S
C543 O547 1.282 . S
O544 U526 2.441 . S
O544 C530 1.249 . S
O545 U526 2.420 . S
O545 C530 1.202 . S
O546 U526 2.455 . S
O546 C543 1.301 . S
O547 U526 2.449 . S
O547 C543 1.282 . S
H548 C521 0.931 . S
H549 C523 0.929 . S
H550 C524 0.930 . S
H551 C525 0.931 . S
H552 C532 0.932 . S
H553 C533 0.930 . S
H554 C534 0.929 . S
H555 C536 0.930 . S
H556 C538 0.932 . S
H557 C539 0.929 . S
H558 C540 0.928 . S
H559 C542 0.932 . S
C560 C561 1.264 . S
C560 C565 1.479 . S
C560 C570 1.465 . S
C561 C560 1.264 . S
C561 C563 1.339 . S
C561 H588 0.931 . S
C562 C563 1.395 . S
C562 C564 1.320 . S
C563 C561 1.339 . S
C563 C562 1.395 . S
C563 H589 0.929 . S
C564 C562 1.320 . S
C564 C565 1.405 . S
C564 H590 0.930 . S
C565 C560 1.479 . S
C565 C564 1.405 . S
C565 H591 0.931 . S
U566 O567 2.454 . S
U566 O568 2.458 . S
U566 C569 2.984 . S
U566 C570 2.847 . S
U566 C583 2.882 . S
U566 O584 2.441 . S
U566 O585 2.420 . S
U566 O586 2.455 . S
U566 O587 2.449 . S
O567 U566 2.454 . S
O567 C569 1.353 . S
O568 U566 2.458 . S
O568 C569 1.286 . S
C569 U566 2.984 . S
C569 O567 1.353 . S
C569 O568 1.286 . S
C569 C571 1.363 . S
C570 C560 1.465 . S
C570 U566 2.847 . S
C570 O584 1.249 . S
C570 O585 1.202 . S
C571 C569 1.363 . S
C571 C573 1.408 . S
C571 C576 1.342 . S
C572 C573 1.310 . S
C572 C575 1.461 . S
C572 H592 0.932 . S
C573 C571 1.408 . S
C573 C572 1.310 . S
C573 H593 0.930 . S
C574 C575 1.474 . S
C574 C576 1.285 . S
C574 H594 0.929 . S
C575 C572 1.461 . S
C575 C574 1.474 . S
C576 C571 1.342 . S
C576 C574 1.285 . S
C576 H595 0.930 . S
C577 C580 1.424 . S
C577 C582 1.245 . S
C577 C583 1.428 . S
C578 C581 1.260 . S
C578 C582 1.477 . S
C578 H596 0.932 . S
C579 C580 1.384 . S
C579 C581 1.479 . S
C579 H597 0.929 . S
C580 C577 1.424 . S
C580 C579 1.384 . S
C580 H598 0.928 . S
C581 C578 1.260 . S
C581 C579 1.479 . S
C582 C577 1.245 . S
C582 C578 1.477 . S
C582 H599 0.932 . S
C583 U566 2.882 . S
C583 C577 1.428 . S
C583 O586 1.301 . S
C583 O587 1.282 . S
O584 U566 2.441 . S
O584 C570 1.249 . S
O585 U566 2.420 . S
O585 C570 1.202 . S
O586 U566 2.455 . S
O586 C583 1.301 . S
O587 U566 2.449 . S
O587 C583 1.282 . S
H588 C561 0.931 . S
H589 C563 0.929 . S
H590 C564 0.930 . S
H591 C565 0.931 . S
H592 C572 0.932 . S
H593 C573 0.930 . S
H594 C574 0.929 . S
H595 C576 0.930 . S
H596 C578 0.932 . S
H597 C579 0.929 . S
H598 C580 0.928 . S
H599 C582 0.932 . S
C600 C601 1.264 . S
C600 C605 1.479 . S
C600 C610 1.465 . S
C601 C600 1.264 . S
C601 C603 1.339 . S
C601 H628 0.931 . S
C602 C603 1.395 . S
C602 C604 1.320 . S
C603 C601 1.339 . S
C603 C602 1.395 . S
C603 H629 0.929 . S
C604 C602 1.320 . S
C604 C605 1.405 . S
C604 H630 0.930 . S
C605 C600 1.479 . S
C605 C604 1.405 . S
C605 H631 0.931 . S
U606 O607 2.454 . S
U606 O608 2.458 . S
U606 C609 2.984 . S
U606 C610 2.847 . S
U606 C623 2.882 . S
U606 O624 2.441 . S
U606 O625 2.420 . S
U606 O626 2.455 . S
U606 O627 2.449 . S
O607 U606 2.454 . S
O607 C609 1.353 . S
O608 U606 2.458 . S
O608 C609 1.286 . S
C609 U606 2.984 . S
C609 O607 1.353 . S
C609 O608 1.286 . S
C609 C611 1.363 . S
C610 C600 1.465 . S
C610 U606 2.847 . S
C610 O624 1.249 . S
C610 O625 1.202 . S
C611 C609 1.363 . S
C611 C613 1.408 . S
C611 C616 1.342 . S
C612 C613 1.310 . S
C612 C615 1.461 . S
C612 H632 0.932 . S
C613 C611 1.408 . S
C613 C612 1.310 . S
C613 H633 0.930 . S
C614 C615 1.474 . S
C614 C616 1.285 . S
C614 H634 0.929 . S
C615 C612 1.461 . S
C615 C614 1.474 . S
C616 C611 1.342 . S
C616 C614 1.285 . S
C616 H635 0.930 . S
C617 C620 1.424 . S
C617 C622 1.245 . S
C617 C623 1.428 . S
C618 C621 1.260 . S
C618 C622 1.477 . S
C618 H636 0.932 . S
C619 C620 1.384 . S
C619 C621 1.479 . S
C619 H637 0.929 . S
C620 C617 1.424 . S
C620 C619 1.384 . S
C620 H638 0.928 . S
C621 C618 1.260 . S
C621 C619 1.479 . S
C622 C617 1.245 . S
C622 C618 1.477 . S
C622 H639 0.932 . S
C623 U606 2.882 . S
C623 C617 1.428 . S
C623 O626 1.301 . S
C623 O627 1.282 . S
O624 U606 2.441 . S
O624 C610 1.249 . S
O625 U606 2.420 . S
O625 C610 1.202 . S
O626 U606 2.455 . S
O626 C623 1.301 . S
O627 U606 2.449 . S
O627 C623 1.282 . S
H628 C601 0.931 . S
H629 C603 0.929 . S
H630 C604 0.930 . S
H631 C605 0.931 . S
H632 C612 0.932 . S
H633 C613 0.930 . S
H634 C614 0.929 . S
H635 C616 0.930 . S
H636 C618 0.932 . S
H637 C619 0.929 . S
H638 C620 0.928 . S
H639 C622 0.932 . S
C640 C641 1.264 . S
C640 C645 1.479 . S
C640 C650 1.465 . S
C641 C640 1.264 . S
C641 C643 1.339 . S
C641 H668 0.931 . S
C642 C643 1.395 . S
C642 C644 1.320 . S
C643 C641 1.339 . S
C643 C642 1.395 . S
C643 H669 0.929 . S
C644 C642 1.320 . S
C644 C645 1.405 . S
C644 H670 0.930 . S
C645 C640 1.479 . S
C645 C644 1.405 . S
C645 H671 0.931 . S
U646 O647 2.454 . S
U646 O648 2.458 . S
U646 C649 2.984 . S
U646 C650 2.847 . S
U646 C663 2.882 . S
U646 O664 2.441 . S
U646 O665 2.420 . S
U646 O666 2.455 . S
U646 O667 2.449 . S
O647 U646 2.454 . S
O647 C649 1.353 . S
O648 U646 2.458 . S
O648 C649 1.286 . S
C649 U646 2.984 . S
C649 O647 1.353 . S
C649 O648 1.286 . S
C649 C651 1.363 . S
C650 C640 1.465 . S
C650 U646 2.847 . S
C650 O664 1.249 . S
C650 O665 1.202 . S
C651 C649 1.363 . S
C651 C653 1.408 . S
C651 C656 1.342 . S
C652 C653 1.310 . S
C652 C655 1.461 . S
C652 H672 0.932 . S
C653 C651 1.408 . S
C653 C652 1.310 . S
C653 H673 0.930 . S
C654 C655 1.474 . S
C654 C656 1.285 . S
C654 H674 0.929 . S
C655 C652 1.461 . S
C655 C654 1.474 . S
C656 C651 1.342 . S
C656 C654 1.285 . S
C656 H675 0.930 . S
C657 C660 1.424 . S
C657 C662 1.245 . S
C657 C663 1.428 . S
C658 C661 1.260 . S
C658 C662 1.477 . S
C658 H676 0.932 . S
C659 C660 1.384 . S
C659 C661 1.479 . S
C659 H677 0.929 . S
C660 C657 1.424 . S
C660 C659 1.384 . S
C660 H678 0.928 . S
C661 C658 1.260 . S
C661 C659 1.479 . S
C662 C657 1.245 . S
C662 C658 1.477 . S
C662 H679 0.932 . S
C663 U646 2.882 . S
C663 C657 1.428 . S
C663 O666 1.301 . S
C663 O667 1.282 . S
O664 U646 2.441 . S
O664 C650 1.249 . S
O665 U646 2.420 . S
O665 C650 1.202 . S
O666 U646 2.455 . S
O666 C663 1.301 . S
O667 U646 2.449 . S
O667 C663 1.282 . S
H668 C641 0.931 . S
H669 C643 0.929 . S
H670 C644 0.930 . S
H671 C645 0.931 . S
H672 C652 0.932 . S
H673 C653 0.930 . S
H674 C654 0.929 . S
H675 C656 0.930 . S
H676 C658 0.932 . S
H677 C659 0.929 . S
H678 C660 0.928 . S
H679 C662 0.932 . S
C680 C681 1.264 . S
C680 C685 1.479 . S
C680 C690 1.465 . S
C681 C680 1.264 . S
C681 C683 1.339 . S
C681 H708 0.931 . S
C682 C683 1.395 . S
C682 C684 1.320 . S
C683 C681 1.339 . S
C683 C682 1.395 . S
C683 H709 0.929 . S
C684 C682 1.320 . S
C684 C685 1.405 . S
C684 H710 0.930 . S
C685 C680 1.479 . S
C685 C684 1.405 . S
C685 H711 0.931 . S
U686 O687 2.454 . S
U686 O688 2.458 . S
U686 C689 2.984 . S
U686 C690 2.847 . S
U686 C703 2.882 . S
U686 O704 2.441 . S
U686 O705 2.420 . S
U686 O706 2.455 . S
U686 O707 2.449 . S
O687 U686 2.454 . S
O687 C689 1.353 . S
O688 U686 2.458 . S
O688 C689 1.286 . S
C689 U686 2.984 . S
C689 O687 1.353 . S
C689 O688 1.286 . S
C689 C691 1.363 . S
C690 C680 1.465 . S
C690 U686 2.847 . S
C690 O704 1.249 . S
C690 O705 1.202 . S
C691 C689 1.363 . S
C691 C693 1.408 . S
C691 C696 1.342 . S
C692 C693 1.310 . S
C692 C695 1.461 . S
C692 H712 0.932 . S
C693 C691 1.408 . S
C693 C692 1.310 . S
C693 H713 0.930 . S
C694 C695 1.474 . S
C694 C696 1.285 . S
C694 H714 0.929 . S
C695 C692 1.461 . S
C695 C694 1.474 . S
C696 C691 1.342 . S
C696 C694 1.285 . S
C696 H715 0.930 . S
C697 C700 1.424 . S
C697 C702 1.245 . S
C697 C703 1.428 . S
C698 C701 1.260 . S
C698 C702 1.477 . S
C698 H716 0.932 . S
C699 C700 1.384 . S
C699 C701 1.479 . S
C699 H717 0.929 . S
C700 C697 1.424 . S
C700 C699 1.384 . S
C700 H718 0.928 . S
C701 C698 1.260 . S
C701 C699 1.479 . S
C702 C697 1.245 . S
C702 C698 1.477 . S
C702 H719 0.932 . S
C703 U686 2.882 . S
C703 C697 1.428 . S
C703 O706 1.301 . S
C703 O707 1.282 . S
O704 U686 2.441 . S
O704 C690 1.249 . S
O705 U686 2.420 . S
O705 C690 1.202 . S
O706 U686 2.455 . S
O706 C703 1.301 . S
O707 U686 2.449 . S
O707 C703 1.282 . S
H708 C681 0.931 . S
H709 C683 0.929 . S
H710 C684 0.930 . S
H711 C685 0.931 . S
H712 C692 0.932 . S
H713 C693 0.930 . S
H714 C694 0.929 . S
H715 C696 0.930 . S
H716 C698 0.932 . S
H717 C699 0.929 . S
H718 C700 0.928 . S
H719 C702 0.932 . S
C720 C721 1.264 . S
C720 C725 1.479 . S
C720 C730 1.465 . S
C721 C720 1.264 . S
C721 C723 1.339 . S
C721 H748 0.931 . S
C722 C723 1.395 . S
C722 C724 1.320 . S
C723 C721 1.339 . S
C723 C722 1.395 . S
C723 H749 0.929 . S
C724 C722 1.320 . S
C724 C725 1.405 . S
C724 H750 0.930 . S
C725 C720 1.479 . S
C725 C724 1.405 . S
C725 H751 0.931 . S
U726 O727 2.454 . S
U726 O728 2.458 . S
U726 C729 2.984 . S
U726 C730 2.847 . S
U726 C743 2.882 . S
U726 O744 2.441 . S
U726 O745 2.420 . S
U726 O746 2.455 . S
U726 O747 2.449 . S
O727 U726 2.454 . S
O727 C729 1.353 . S
O728 U726 2.458 . S
O728 C729 1.286 . S
C729 U726 2.984 . S
C729 O727 1.353 . S
C729 O728 1.286 . S
C729 C731 1.363 . S
C730 C720 1.465 . S
C730 U726 2.847 . S
C730 O744 1.249 . S
C730 O745 1.202 . S
C731 C729 1.363 . S
C731 C733 1.408 . S
C731 C736 1.342 . S
C732 C733 1.310 . S
C732 C735 1.461 . S
C732 H752 0.932 . S
C733 C731 1.408 . S
C733 C732 1.310 . S
C733 H753 0.930 . S
C734 C735 1.474 . S
C734 C736 1.285 . S
C734 H754 0.929 . S
C735 C732 1.461 . S
C735 C734 1.474 . S
C736 C731 1.342 . S
C736 C734 1.285 . S
C736 H755 0.930 . S
C737 C740 1.424 . S
C737 C742 1.245 . S
C737 C743 1.428 . S
C738 C741 1.260 . S
C738 C742 1.477 . S
C738 H756 0.932 . S
C739 C740 1.384 . S
C739 C741 1.479 . S
C739 H757 0.929 . S
C740 C737 1.424 . S
C740 C739 1.384 . S
C740 H758 0.928 . S
C741 C738 1.260 . S
C741 C739 1.479 . S
C742 C737 1.245 . S
C742 C738 1.477 . S
C742 H759 0.932 . S
C743 U726 2.882 . S
C743 C737 1.428 . S
C743 O746 1.301 . S
C743 O747 1.282 . S
O744 U726 2.441 . S
O744 C730 1.249 . S
O745 U726 2.420 . S
O745 C730 1.202 . S
O746 U726 2.455 . S
O746 C743 1.301 . S
O747 U726 2.449 . S
O747 C743 1.282 . S
H748 C721 0.931 . S
H749 C723 0.929 . S
H750 C724 0.930 . S
H751 C725 0.931 . S
H752 C732 0.932 . S
H753 C733 0.930 . S
H754 C734 0.929 . S
H755 C736 0.930 . S
H756 C738 0.932 . S
H757 C739 0.929 . S
H758 C740 0.928 . S
H759 C742 0.932 . S
C760 C761 1.264 . S
C760 C765 1.479 . S
C760 C770 1.465 . S
C761 C760 1.264 . S
C761 C763 1.339 . S
C761 H788 0.931 . S
C762 C763 1.395 . S
C762 C764 1.320 . S
C763 C761 1.339 . S
C763 C762 1.395 . S
C763 H789 0.929 . S
C764 C762 1.320 . S
C764 C765 1.405 . S
C764 H790 0.930 . S
C765 C760 1.479 . S
C765 C764 1.405 . S
C765 H791 0.931 . S
U766 O767 2.454 . S
U766 O768 2.458 . S
U766 C769 2.984 . S
U766 C770 2.847 . S
U766 C783 2.882 . S
U766 O784 2.441 . S
U766 O785 2.420 . S
U766 O786 2.455 . S
U766 O787 2.449 . S
O767 U766 2.454 . S
O767 C769 1.353 . S
O768 U766 2.458 . S
O768 C769 1.286 . S
C769 U766 2.984 . S
C769 O767 1.353 . S
C769 O768 1.286 . S
C769 C771 1.363 . S
C770 C760 1.465 . S
C770 U766 2.847 . S
C770 O784 1.249 . S
C770 O785 1.202 . S
C771 C769 1.363 . S
C771 C773 1.408 . S
C771 C776 1.342 . S
C772 C773 1.310 . S
C772 C775 1.461 . S
C772 H792 0.932 . S
C773 C771 1.408 . S
C773 C772 1.310 . S
C773 H793 0.930 . S
C774 C775 1.474 . S
C774 C776 1.285 . S
C774 H794 0.929 . S
C775 C772 1.461 . S
C775 C774 1.474 . S
C776 C771 1.342 . S
C776 C774 1.285 . S
C776 H795 0.930 . S
C777 C780 1.424 . S
C777 C782 1.245 . S
C777 C783 1.428 . S
C778 C781 1.260 . S
C778 C782 1.477 . S
C778 H796 0.932 . S
C779 C780 1.384 . S
C779 C781 1.479 . S
C779 H797 0.929 . S
C780 C777 1.424 . S
C780 C779 1.384 . S
C780 H798 0.928 . S
C781 C778 1.260 . S
C781 C779 1.479 . S
C782 C777 1.245 . S
C782 C778 1.477 . S
C782 H799 0.932 . S
C783 U766 2.882 . S
C783 C777 1.428 . S
C783 O786 1.301 . S
C783 O787 1.282 . S
O784 U766 2.441 . S
O784 C770 1.249 . S
O785 U766 2.420 . S
O785 C770 1.202 . S
O786 U766 2.455 . S
O786 C783 1.301 . S
O787 U766 2.449 . S
O787 C783 1.282 . S
H788 C761 0.931 . S
H789 C763 0.929 . S
H790 C764 0.930 . S
H791 C765 0.931 . S
H792 C772 0.932 . S
H793 C773 0.930 . S
H794 C774 0.929 . S
H795 C776 0.930 . S
H796 C778 0.932 . S
H797 C779 0.929 . S
H798 C780 0.928 . S
H799 C782 0.932 . S
C800 C801 1.264 . S
C800 C805 1.479 . S
C800 C810 1.465 . S
C801 C800 1.264 . S
C801 C803 1.339 . S
C801 H828 0.931 . S
C802 C803 1.395 . S
C802 C804 1.320 . S
C803 C801 1.339 . S
C803 C802 1.395 . S
C803 H829 0.929 . S
C804 C802 1.320 . S
C804 C805 1.405 . S
C804 H830 0.930 . S
C805 C800 1.479 . S
C805 C804 1.405 . S
C805 H831 0.931 . S
U806 O807 2.454 . S
U806 O808 2.458 . S
U806 C809 2.984 . S
U806 C810 2.847 . S
U806 C823 2.882 . S
U806 O824 2.441 . S
U806 O825 2.420 . S
U806 O826 2.455 . S
U806 O827 2.449 . S
O807 U806 2.454 . S
O807 C809 1.353 . S
O808 U806 2.458 . S
O808 C809 1.286 . S
C809 U806 2.984 . S
C809 O807 1.353 . S
C809 O808 1.286 . S
C809 C811 1.363 . S
C810 C800 1.465 . S
C810 U806 2.847 . S
C810 O824 1.249 . S
C810 O825 1.202 . S
C811 C809 1.363 . S
C811 C813 1.408 . S
C811 C816 1.342 . S
C812 C813 1.310 . S
C812 C815 1.461 . S
C812 H832 0.932 . S
C813 C811 1.408 . S
C813 C812 1.310 . S
C813 H833 0.930 . S
C814 C815 1.474 . S
C814 C816 1.285 . S
C814 H834 0.929 . S
C815 C812 1.461 . S
C815 C814 1.474 . S
C816 C811 1.342 . S
C816 C814 1.285 . S
C816 H835 0.930 . S
C817 C820 1.424 . S
C817 C822 1.245 . S
C817 C823 1.428 . S
C818 C821 1.260 . S
C818 C822 1.477 . S
C818 H836 0.932 . S
C819 C820 1.384 . S
C819 C821 1.479 . S
C819 H837 0.929 . S
C820 C817 1.424 . S
C820 C819 1.384 . S
C820 H838 0.928 . S
C821 C818 1.260 . S
C821 C819 1.479 . S
C822 C817 1.245 . S
C822 C818 1.477 . S
C822 H839 0.932 . S
C823 U806 2.882 . S
C823 C817 1.428 . S
C823 O826 1.301 . S
C823 O827 1.282 . S
O824 U806 2.441 . S
O824 C810 1.249 . S
O825 U806 2.420 . S
O825 C810 1.202 . S
O826 U806 2.455 . S
O826 C823 1.301 . S
O827 U806 2.449 . S
O827 C823 1.282 . S
H828 C801 0.931 . S
H829 C803 0.929 . S
H830 C804 0.930 . S
H831 C805 0.931 . S
H832 C812 0.932 . S
H833 C813 0.930 . S
H834 C814 0.929 . S
H835 C816 0.930 . S
H836 C818 0.932 . S
H837 C819 0.929 . S
H838 C820 0.928 . S
H839 C822 0.932 . S
C840 C841 1.264 . S
C840 C845 1.479 . S
C840 C850 1.465 . S
C841 C840 1.264 . S
C841 C843 1.339 . S
C841 H868 0.931 . S
C842 C843 1.395 . S
C842 C844 1.320 . S
C843 C841 1.339 . S
C843 C842 1.395 . S
C843 H869 0.929 . S
C844 C842 1.320 . S
C844 C845 1.405 . S
C844 H870 0.930 . S
C845 C840 1.479 . S
C845 C844 1.405 . S
C845 H871 0.931 . S
U846 O847 2.454 . S
U846 O848 2.458 . S
U846 C849 2.984 . S
U846 C850 2.847 . S
U846 C863 2.882 . S
U846 O864 2.441 . S
U846 O865 2.420 . S
U846 O866 2.455 . S
U846 O867 2.449 . S
O847 U846 2.454 . S
O847 C849 1.353 . S
O848 U846 2.458 . S
O848 C849 1.286 . S
C849 U846 2.984 . S
C849 O847 1.353 . S
C849 O848 1.286 . S
C849 C851 1.363 . S
C850 C840 1.465 . S
C850 U846 2.847 . S
C850 O864 1.249 . S
C850 O865 1.202 . S
C851 C849 1.363 . S
C851 C853 1.408 . S
C851 C856 1.342 . S
C852 C853 1.310 . S
C852 C855 1.461 . S
C852 H872 0.932 . S
C853 C851 1.408 . S
C853 C852 1.310 . S
C853 H873 0.930 . S
C854 C855 1.474 . S
C854 C856 1.285 . S
C854 H874 0.929 . S
C855 C852 1.461 . S
C855 C854 1.474 . S
C856 C851 1.342 . S
C856 C854 1.285 . S
C856 H875 0.930 . S
C857 C860 1.424 . S
C857 C862 1.245 . S
C857 C863 1.428 . S
C858 C861 1.260 . S
C858 C862 1.477 . S
C858 H876 0.932 . S
C859 C860 1.384 . S
C859 C861 1.479 . S
C859 H877 0.929 . S
C860 C857 1.424 . S
C860 C859 1.384 . S
C860 H878 0.928 . S
C861 C858 1.260 . S
C861 C859 1.479 . S
C862 C857 1.245 . S
C862 C858 1.477 . S
C862 H879 0.932 . S
C863 U846 2.882 . S
C863 C857 1.428 . S
C863 O866 1.301 . S
C863 O867 1.282 . S
O864 U846 2.441 . S
O864 C850 1.249 . S
O865 U846 2.420 . S
O865 C850 1.202 . S
O866 U846 2.455 . S
O866 C863 1.301 . S
O867 U846 2.449 . S
O867 C863 1.282 . S
H868 C841 0.931 . S
H869 C843 0.929 . S
H870 C844 0.930 . S
H871 C845 0.931 . S
H872 C852 0.932 . S
H873 C853 0.930 . S
H874 C854 0.929 . S
H875 C856 0.930 . S
H876 C858 0.932 . S
H877 C859 0.929 . S
H878 C860 0.928 . S
H879 C862 0.932 . S
C880 C881 1.264 . S
C880 C885 1.479 . S
C880 C890 1.465 . S
C881 C880 1.264 . S
C881 C883 1.339 . S
C881 H908 0.931 . S
C882 C883 1.395 . S
C882 C884 1.320 . S
C883 C881 1.339 . S
C883 C882 1.395 . S
C883 H909 0.929 . S
C884 C882 1.320 . S
C884 C885 1.405 . S
C884 H910 0.930 . S
C885 C880 1.479 . S
C885 C884 1.405 . S
C885 H911 0.931 . S
U886 O887 2.454 . S
U886 O888 2.458 . S
U886 C889 2.984 . S
U886 C890 2.847 . S
U886 C903 2.882 . S
U886 O904 2.441 . S
U886 O905 2.420 . S
U886 O906 2.455 . S
U886 O907 2.449 . S
O887 U886 2.454 . S
O887 C889 1.353 . S
O888 U886 2.458 . S
O888 C889 1.286 . S
C889 U886 2.984 . S
C889 O887 1.353 . S
C889 O888 1.286 . S
C889 C891 1.363 . S
C890 C880 1.465 . S
C890 U886 2.847 . S
C890 O904 1.249 . S
C890 O905 1.202 . S
C891 C889 1.363 . S
C891 C893 1.408 . S
C891 C896 1.342 . S
C892 C893 1.310 . S
C892 C895 1.461 . S
C892 H912 0.932 . S
C893 C891 1.408 . S
C893 C892 1.310 . S
C893 H913 0.930 . S
C894 C895 1.474 . S
C894 C896 1.285 . S
C894 H914 0.929 . S
C895 C892 1.461 . S
C895 C894 1.474 . S
C896 C891 1.342 . S
C896 C894 1.285 . S
C896 H915 0.930 . S
C897 C900 1.424 . S
C897 C902 1.245 . S
C897 C903 1.428 . S
C898 C901 1.260 . S
C898 C902 1.477 . S
C898 H916 0.932 . S
C899 C900 1.384 . S
C899 C901 1.479 . S
C899 H917 0.929 . S
C900 C897 1.424 . S
C900 C899 1.384 . S
C900 H918 0.928 . S
C901 C898 1.260 . S
C901 C899 1.479 . S
C902 C897 1.245 . S
C902 C898 1.477 . S
C902 H919 0.932 . S
C903 U886 2.882 . S
C903 C897 1.428 . S
C903 O906 1.301 . S
C903 O907 1.282 . S
O904 U886 2.441 . S
O904 C890 1.249 . S
O905 U886 2.420 . S
O905 C890 1.202 . S
O906 U886 2.455 . S
O906 C903 1.301 . S
O907 U886 2.449 . S
O907 C903 1.282 . S
H908 C881 0.931 . S
H909 C883 0.929 . S
H910 C884 0.930 . S
H911 C885 0.931 . S
H912 C892 0.932 . S
H913 C893 0.930 . S
H914 C894 0.929 . S
H915 C896 0.930 . S
H916 C898 0.932 . S
H917 C899 0.929 . S
H918 C900 0.928 . S
H919 C902 0.932 . S
C920 C921 1.264 . S
C920 C925 1.479 . S
C920 C930 1.465 . S
C921 C920 1.264 . S
C921 C923 1.339 . S
C921 H948 0.931 . S
C922 C923 1.395 . S
C922 C924 1.320 . S
C923 C921 1.339 . S
C923 C922 1.395 . S
C923 H949 0.929 . S
C924 C922 1.320 . S
C924 C925 1.405 . S
C924 H950 0.930 . S
C925 C920 1.479 . S
C925 C924 1.405 . S
C925 H951 0.931 . S
U926 O927 2.454 . S
U926 O928 2.458 . S
U926 C929 2.984 . S
U926 C930 2.847 . S
U926 C943 2.882 . S
U926 O944 2.441 . S
U926 O945 2.420 . S
U926 O946 2.455 . S
U926 O947 2.449 . S
O927 U926 2.454 . S
O927 C929 1.353 . S
O928 U926 2.458 . S
O928 C929 1.286 . S
C929 U926 2.984 . S
C929 O927 1.353 . S
C929 O928 1.286 . S
C929 C931 1.363 . S
C930 C920 1.465 . S
C930 U926 2.847 . S
C930 O944 1.249 . S
C930 O945 1.202 . S
C931 C929 1.363 . S
C931 C933 1.408 . S
C931 C936 1.342 . S
C932 C933 1.310 . S
C932 C935 1.461 . S
C932 H952 0.932 . S
C933 C931 1.408 . S
C933 C932 1.310 . S
C933 H953 0.930 . S
C934 C935 1.474 . S
C934 C936 1.285 . S
C934 H954 0.929 . S
C935 C932 1.461 . S
C935 C934 1.474 . S
C936 C931 1.342 . S
C936 C934 1.285 . S
C936 H955 0.930 . S
C937 C940 1.424 . S
C937 C942 1.245 . S
C937 C943 1.428 . S
C938 C941 1.260 . S
C938 C942 1.477 . S
C938 H956 0.932 . S
C939 C940 1.384 . S
C939 C941 1.479 . S
C939 H957 0.929 . S
C940 C937 1.424 . S
C940 C939 1.384 . S
C940 H958 0.928 . S
C941 C938 1.260 . S
C941 C939 1.479 . S
C942 C937 1.245 . S
C942 C938 1.477 . S
C942 H959 0.932 . S
C943 U926 2.882 . S
C943 C937 1.428 . S
C943 O946 1.301 . S
C943 O947 1.282 . S
O944 U926 2.441 . S
O944 C930 1.249 . S
O945 U926 2.420 . S
O945 C930 1.202 . S
O946 U926 2.455 . S
O946 C943 1.301 . S
O947 U926 2.449 . S
O947 C943 1.282 . S
H948 C921 0.931 . S
H949 C923 0.929 . S
H950 C924 0.930 . S
H951 C925 0.931 . S
H952 C932 0.932 . S
H953 C933 0.930 . S
H954 C934 0.929 . S
H955 C936 0.930 . S
H956 C938 0.932 . S
H957 C939 0.929 . S
H958 C940 0.928 . S
H959 C942 0.932 . S
C960 C961 1.264 . S
C960 C965 1.479 . S
C960 C970 1.465 . S
C961 C960 1.264 . S
C961 C963 1.339 . S
C961 H988 0.931 . S
C962 C963 1.395 . S
C962 C964 1.320 . S
C963 C961 1.339 . S
C963 C962 1.395 . S
C963 H989 0.929 . S
C964 C962 1.320 . S
C964 C965 1.405 . S
C964 H990 0.930 . S
C965 C960 1.479 . S
C965 C964 1.405 . S
C965 H991 0.931 . S
U966 O967 2.454 . S
U966 O968 2.458 . S
U966 C969 2.984 . S
U966 C970 2.847 . S
U966 C983 2.882 . S
U966 O984 2.441 . S
U966 O985 2.420 . S
U966 O986 2.455 . S
U966 O987 2.449 . S
O967 U966 2.454 . S
O967 C969 1.353 . S
O968 U966 2.458 . S
O968 C969 1.286 . S
C969 U966 2.984 . S
C969 O967 1.353 . S
C969 O968 1.286 . S
C969 C971 1.363 . S
C970 C960 1.465 . S
C970 U966 2.847 . S
C970 O984 1.249 . S
C970 O985 1.202 . S
C971 C969 1.363 . S
C971 C973 1.408 . S
C971 C976 1.342 . S
C972 C973 1.310 . S
C972 C975 1.461 . S
C972 H992 0.932 . S
C973 C971 1.408 . S
C973 C972 1.310 . S
C973 H993 0.930 . S
C974 C975 1.474 . S
C974 C976 1.285 . S
C974 H994 0.929 . S
C975 C972 1.461 . S
C975 C974 1.474 . S
C976 C971 1.342 . S
C976 C974 1.285 . S
C976 H995 0.930 . S
C977 C980 1.424 . S
C977 C982 1.245 . S
C977 C983 1.428 . S
C978 C981 1.260 . S
C978 C982 1.477 . S
C978 H996 0.932 . S
C979 C980 1.384 . S
C979 C981 1.479 . S
C979 H997 0.929 . S
C980 C977 1.424 . S
C980 C979 1.384 . S
C980 H998 0.928 . S
C981 C978 1.260 . S
C981 C979 1.479 . S
C982 C977 1.245 . S
C982 C978 1.477 . S
C982 H999 0.932 . S
C983 U966 2.882 . S
C983 C977 1.428 . S
C983 O986 1.301 . S
C983 O987 1.282 . S
O984 U966 2.441 . S
O984 C970 1.249 . S
O985 U966 2.420 . S
O985 C970 1.202 . S
O986 U966 2.455 . S
O986 C983 1.301 . S
O987 U966 2.449 . S
O987 C983 1.282 . S
H988 C961 0.931 . S
H989 C963 0.929 . S
H990 C964 0.930 . S
H991 C965 0.931 . S
H992 C972 0.932 . S
H993 C973 0.930 . S
H994 C974 0.929 . S
H995 C976 0.930 . S
H996 C978 0.932 . S
H997 C979 0.929 . S
H998 C980 0.928 . S
H999 C982 0.932 . S
C1000 C1001 1.264 . S
C1000 C1005 1.479 . S
C1000 C1010 1.465 . S
C1001 C1000 1.264 . S
C1001 C1003 1.339 . S
C1001 H1028 0.931 . S
C1002 C1003 1.395 . S
C1002 C1004 1.320 . S
C1003 C1001 1.339 . S
C1003 C1002 1.395 . S
C1003 H1029 0.929 . S
C1004 C1002 1.320 . S
C1004 C1005 1.405 . S
C1004 H1030 0.930 . S
C1005 C1000 1.479 . S
C1005 C1004 1.405 . S
C1005 H1031 0.931 . S
U1006 O1007 2.454 . S
U1006 O1008 2.458 . S
U1006 C1009 2.984 . S
U1006 C1010 2.847 . S
U1006 C1023 2.882 . S
U1006 O1024 2.441 . S
U1006 O1025 2.420 . S
U1006 O1026 2.455 . S
U1006 O1027 2.449 . S
O1007 U1006 2.454 . S
O1007 C1009 1.353 . S
O1008 U1006 2.458 . S
O1008 C1009 1.286 . S
C1009 U1006 2.984 . S
C1009 O1007 1.353 . S
C1009 O1008 1.286 . S
C1009 C1011 1.363 . S
C1010 C1000 1.465 . S
C1010 U1006 2.847 . S
C1010 O1024 1.249 . S
C1010 O1025 1.202 . S
C1011 C1009 1.363 . S
C1011 C1013 1.408 . S
C1011 C1016 1.342 . S
C1012 C1013 1.310 . S
C1012 C1015 1.461 . S
C1012 H1032 0.932 . S
C1013 C1011 1.408 . S
C1013 C1012 1.310 . S
C1013 H1033 0.930 . S
C1014 C1015 1.474 . S
C1014 C1016 1.285 . S
C1014 H1034 0.929 . S
C1015 C1012 1.461 . S
C1015 C1014 1.474 . S
C1016 C1011 1.342 . S
C1016 C1014 1.285 . S
C1016 H1035 0.930 . S
C1017 C1020 1.424 . S
C1017 C1022 1.245 . S
C1017 C1023 1.428 . S
C1018 C1021 1.260 . S
C1018 C1022 1.477 . S
C1018 H1036 0.932 . S
C1019 C1020 1.384 . S
C1019 C1021 1.479 . S
C1019 H1037 0.929 . S
C1020 C1017 1.424 . S
C1020 C1019 1.384 . S
C1020 H1038 0.928 . S
C1021 C1018 1.260 . S
C1021 C1019 1.479 . S
C1022 C1017 1.245 . S
C1022 C1018 1.477 . S
C1022 H1039 0.932 . S
C1023 U1006 2.882 . S
C1023 C1017 1.428 . S
C1023 O1026 1.301 . S
C1023 O1027 1.282 . S
O1024 U1006 2.441 . S
O1024 C1010 1.249 . S
O1025 U1006 2.420 . S
O1025 C1010 1.202 . S
O1026 U1006 2.455 . S
O1026 C1023 1.301 . S
O1027 U1006 2.449 . S
O1027 C1023 1.282 . S
H1028 C1001 0.931 . S
H1029 C1003 0.929 . S
H1030 C1004 0.930 . S
H1031 C1005 0.931 . S
H1032 C1012 0.932 . S
H1033 C1013 0.930 . S
H1034 C1014 0.929 . S
H1035 C1016 0.930 . S
H1036 C1018 0.932 . S
H1037 C1019 0.929 . S
H1038 C1020 0.928 . S
H1039 C1022 0.932 . S
C1040 C1041 1.264 . S
C1040 C1045 1.479 . S
C1040 C1050 1.465 . S
C1041 C1040 1.264 . S
C1041 C1043 1.339 . S
C1041 H1068 0.931 . S
C1042 C1043 1.395 . S
C1042 C1044 1.320 . S
C1043 C1041 1.339 . S
C1043 C1042 1.395 . S
C1043 H1069 0.929 . S
C1044 C1042 1.320 . S
C1044 C1045 1.405 . S
C1044 H1070 0.930 . S
C1045 C1040 1.479 . S
C1045 C1044 1.405 . S
C1045 H1071 0.931 . S
U1046 O1047 2.454 . S
U1046 O1048 2.458 . S
U1046 C1049 2.984 . S
U1046 C1050 2.847 . S
U1046 C1063 2.882 . S
U1046 O1064 2.441 . S
U1046 O1065 2.420 . S
U1046 O1066 2.455 . S
U1046 O1067 2.449 . S
O1047 U1046 2.454 . S
O1047 C1049 1.353 . S
O1048 U1046 2.458 . S
O1048 C1049 1.286 . S
C1049 U1046 2.984 . S
C1049 O1047 1.353 . S
C1049 O1048 1.286 . S
C1049 C1051 1.363 . S
C1050 C1040 1.465 . S
C1050 U1046 2.847 . S
C1050 O1064 1.249 . S
C1050 O1065 1.202 . S
C1051 C1049 1.363 . S
C1051 C1053 1.408 . S
C1051 C1056 1.342 . S
C1052 C1053 1.310 . S
C1052 C1055 1.461 . S
C1052 H1072 0.932 . S
C1053 C1051 1.408 . S
C1053 C1052 1.310 . S
C1053 H1073 0.930 . S
C1054 C1055 1.474 . S
C1054 C1056 1.285 . S
C1054 H1074 0.929 . S
C1055 C1052 1.461 . S
C1055 C1054 1.474 . S
C1056 C1051 1.342 . S
C1056 C1054 1.285 . S
C1056 H1075 0.930 . S
C1057 C1060 1.424 . S
C1057 C1062 1.245 . S
C1057 C1063 1.428 . S
C1058 C1061 1.260 . S
C1058 C1062 1.477 . S
C1058 H1076 0.932 . S
C1059 C1060 1.384 . S
C1059 C1061 1.479 . S
C1059 H1077 0.929 . S
C1060 C1057 1.424 . S
C1060 C1059 1.384 . S
C1060 H1078 0.928 . S
C1061 C1058 1.260 . S
C1061 C1059 1.479 . S
C1062 C1057 1.245 . S
C1062 C1058 1.477 . S
C1062 H1079 0.932 . S
C1063 U1046 2.882 . S
C1063 C1057 1.428 . S
C1063 O1066 1.301 . S
C1063 O1067 1.282 . S
O1064 U1046 2.441 . S
O1064 C1050 1.249 . S
O1065 U1046 2.420 . S
O1065 C1050 1.202 . S
O1066 U1046 2.455 . S
O1066 C1063 1.301 . S
O1067 U1046 2.449 . S
O1067 C1063 1.282 . S
H1068 C1041 0.931 . S
H1069 C1043 0.929 . S
H1070 C1044 0.930 . S
H1071 C1045 0.931 . S
H1072 C1052 0.932 . S
H1073 C1053 0.930 . S
H1074 C1054 0.929 . S
H1075 C1056 0.930 . S
H1076 C1058 0.932 . S
H1077 C1059 0.929 . S
H1078 C1060 0.928 . S
H1079 C1062 0.932 . S
C1080 C1081 1.264 . S
C1080 C1085 1.479 . S
C1080 C1090 1.465 . S
C1081 C1080 1.264 . S
C1081 C1083 1.339 . S
C1081 H1108 0.931 . S
C1082 C1083 1.395 . S
C1082 C1084 1.320 . S
C1083 C1081 1.339 . S
C1083 C1082 1.395 . S
C1083 H1109 0.929 . S
C1084 C1082 1.320 . S
C1084 C1085 1.405 . S
C1084 H1110 0.930 . S
C1085 C1080 1.479 . S
C1085 C1084 1.405 . S
C1085 H1111 0.931 . S
U1086 O1087 2.454 . S
U1086 O1088 2.458 . S
U1086 C1089 2.984 . S
U1086 C1090 2.847 . S
U1086 C1103 2.882 . S
U1086 O1104 2.441 . S
U1086 O1105 2.420 . S
U1086 O1106 2.455 . S
U1086 O1107 2.449 . S
O1087 U1086 2.454 . S
O1087 C1089 1.353 . S
O1088 U1086 2.458 . S
O1088 C1089 1.286 . S
C1089 U1086 2.984 . S
C1089 O1087 1.353 . S
C1089 O1088 1.286 . S
C1089 C1091 1.363 . S
C1090 C1080 1.465 . S
C1090 U1086 2.847 . S
C1090 O1104 1.249 . S
C1090 O1105 1.202 . S
C1091 C1089 1.363 . S
C1091 C1093 1.408 . S
C1091 C1096 1.342 . S
C1092 C1093 1.310 . S
C1092 C1095 1.461 . S
C1092 H1112 0.932 . S
C1093 C1091 1.408 . S
C1093 C1092 1.310 . S
C1093 H1113 0.930 . S
C1094 C1095 1.474 . S
C1094 C1096 1.285 . S
C1094 H1114 0.929 . S
C1095 C1092 1.461 . S
C1095 C1094 1.474 . S
C1096 C1091 1.342 . S
C1096 C1094 1.285 . S
C1096 H1115 0.930 . S
C1097 C1100 1.424 . S
C1097 C1102 1.245 . S
C1097 C1103 1.428 . S
C1098 C1101 1.260 . S
C1098 C1102 1.477 . S
C1098 H1116 0.932 . S
C1099 C1100 1.384 . S
C1099 C1101 1.479 . S
C1099 H1117 0.929 . S
C1100 C1097 1.424 . S
C1100 C1099 1.384 . S
C1100 H1118 0.928 . S
C1101 C1098 1.260 . S
C1101 C1099 1.479 . S
C1102 C1097 1.245 . S
C1102 C1098 1.477 . S
C1102 H1119 0.932 . S
C1103 U1086 2.882 . S
C1103 C1097 1.428 . S
C1103 O1106 1.301 . S
C1103 O1107 1.282 . S
O1104 U1086 2.441 . S
O1104 C1090 1.249 . S
O1105 U1086 2.420 . S
O1105 C1090 1.202 . S
O1106 U1086 2.455 . S
O1106 C1103 1.301 . S
O1107 U1086 2.449 . S
O1107 C1103 1.282 . S
H1108 C1081 0.931 . S
H1109 C1083 0.929 . S
H1110 C1084 0.930 . S
H1111 C1085 0.931 . S
H1112 C1092 0.932 . S
H1113 C1093 0.930 . S
H1114 C1094 0.929 . S
H1115 C1096 0.930 . S
H1116 C1098 0.932 . S
H1117 C1099 0.929 . S
H1118 C1100 0.928 . S
H1119 C1102 0.932 . S
C1120 C1121 1.264 . S
C1120 C1125 1.479 . S
C1120 C1130 1.465 . S
C1121 C1120 1.264 . S
C1121 C1123 1.339 . S
C1121 H1148 0.931 . S
C1122 C1123 1.395 . S
C1122 C1124 1.320 . S
C1123 C1121 1.339 . S
C1123 C1122 1.395 . S
C1123 H1149 0.929 . S
C1124 C1122 1.320 . S
C1124 C1125 1.405 . S
C1124 H1150 0.930 . S
C1125 C1120 1.479 . S
C1125 C1124 1.405 . S
C1125 H1151 0.931 . S
U1126 O1127 2.454 . S
U1126 O1128 2.458 . S
U1126 C1129 2.984 . S
U1126 C1130 2.847 . S
U1126 C1143 2.882 . S
U1126 O1144 2.441 . S
U1126 O1145 2.420 . S
U1126 O1146 2.455 . S
U1126 O1147 2.449 . S
O1127 U1126 2.454 . S
O1127 C1129 1.353 . S
O1128 U1126 2.458 . S
O1128 C1129 1.286 . S
C1129 U1126 2.984 . S
C1129 O1127 1.353 . S
C1129 O1128 1.286 . S
C1129 C1131 1.363 . S
C1130 C1120 1.465 . S
C1130 U1126 2.847 . S
C1130 O1144 1.249 . S
C1130 O1145 1.202 . S
C1131 C1129 1.363 . S
C1131 C1133 1.408 . S
C1131 C1136 1.342 . S
C1132 C1133 1.310 . S
C1132 C1135 1.461 . S
C1132 H1152 0.932 . S
C1133 C1131 1.408 . S
C1133 C1132 1.310 . S
C1133 H1153 0.930 . S
C1134 C1135 1.474 . S
C1134 C1136 1.285 . S
C1134 H1154 0.929 . S
C1135 C1132 1.461 . S
C1135 C1134 1.474 . S
C1136 C1131 1.342 . S
C1136 C1134 1.285 . S
C1136 H1155 0.930 . S
C1137 C1140 1.424 . S
C1137 C1142 1.245 . S
C1137 C1143 1.428 . S
C1138 C1141 1.260 . S
C1138 C1142 1.477 . S
C1138 H1156 0.932 . S
C1139 C1140 1.384 . S
C1139 C1141 1.479 . S
C1139 H1157 0.929 . S
C1140 C1137 1.424 . S
C1140 C1139 1.384 . S
C1140 H1158 0.928 . S
C1141 C1138 1.260 . S
C1141 C1139 1.479 . S
C1142 C1137 1.245 . S
C1142 C1138 1.477 . S
C1142 H1159 0.932 . S
C1143 U1126 2.882 . S
C1143 C1137 1.428 . S
C1143 O1146 1.301 . S
C1143 O1147 1.282 . S
O1144 U1126 2.441 . S
O1144 C1130 1.249 . S
O1145 U1126 2.420 . S
O1145 C1130 1.202 . S
O1146 U1126 2.455 . S
O1146 C1143 1.301 . S
O1147 U1126 2.449 . S
O1147 C1143 1.282 . S
H1148 C1121 0.931 . S
H1149 C1123 0.929 . S
H1150 C1124 0.930 . S
H1151 C1125 0.931 . S
H1152 C1132 0.932 . S
H1153 C1133 0.930 . S
H1154 C1134 0.929 . S
H1155 C1136 0.930 . S
H1156 C1138 0.932 . S
H1157 C1139 0.929 . S
H1158 C1140 0.928 . S
H1159 C1142 0.932 . S
C1160 C1161 1.264 . S
C1160 C1165 1.479 . S
C1160 C1170 1.465 . S
C1161 C1160 1.264 . S
C1161 C1163 1.339 . S
C1161 H1188 0.931 . S
C1162 C1163 1.395 . S
C1162 C1164 1.320 . S
C1163 C1161 1.339 . S
C1163 C1162 1.395 . S
C1163 H1189 0.929 . S
C1164 C1162 1.320 . S
C1164 C1165 1.405 . S
C1164 H1190 0.930 . S
C1165 C1160 1.479 . S
C1165 C1164 1.405 . S
C1165 H1191 0.931 . S
U1166 O1167 2.454 . S
U1166 O1168 2.458 . S
U1166 C1169 2.984 . S
U1166 C1170 2.847 . S
U1166 C1183 2.882 . S
U1166 O1184 2.441 . S
U1166 O1185 2.420 . S
U1166 O1186 2.455 . S
U1166 O1187 2.449 . S
O1167 U1166 2.454 . S
O1167 C1169 1.353 . S
O1168 U1166 2.458 . S
O1168 C1169 1.286 . S
C1169 U1166 2.984 . S
C1169 O1167 1.353 . S
C1169 O1168 1.286 . S
C1169 C1171 1.363 . S
C1170 C1160 1.465 . S
C1170 U1166 2.847 . S
C1170 O1184 1.249 . S
C1170 O1185 1.202 . S
C1171 C1169 1.363 . S
C1171 C1173 1.408 . S
C1171 C1176 1.342 . S
C1172 C1173 1.310 . S
C1172 C1175 1.461 . S
C1172 H1192 0.932 . S
C1173 C1171 1.408 . S
C1173 C1172 1.310 . S
C1173 H1193 0.930 . S
C1174 C1175 1.474 . S
C1174 C1176 1.285 . S
C1174 H1194 0.929 . S
C1175 C1172 1.461 . S
C1175 C1174 1.474 . S
C1176 C1171 1.342 . S
C1176 C1174 1.285 . S
C1176 H1195 0.930 . S
C1177 C1180 1.424 . S
C1177 C1182 1.245 . S
C1177 C1183 1.428 . S
C1178 C1181 1.260 . S
C1178 C1182 1.477 . S
C1178 H1196 0.932 . S
C1179 C1180 1.384 . S
C1179 C1181 1.479 . S
C1179 H1197 0.929 . S
C1180 C1177 1.424 . S
C1180 C1179 1.384 . S
C1180 H1198 0.928 . S
C1181 C1178 1.260 . S
C1181 C1179 1.479 . S
C1182 C1177 1.245 . S
C1182 C1178 1.477 . S
C1182 H1199 0.932 . S
C1183 U1166 2.882 . S
C1183 C1177 1.428 . S
C1183 O1186 1.301 . S
C1183 O1187 1.282 . S
O1184 U1166 2.441 . S
O1184 C1170 1.249 . S
O1185 U1166 2.420 . S
O1185 C1170 1.202 . S
O1186 U1166 2.455 . S
O1186 C1183 1.301 . S
O1187 U1166 2.449 . S
O1187 C1183 1.282 . S
H1188 C1161 0.931 . S
H1189 C1163 0.929 . S
H1190 C1164 0.930 . S
H1191 C1165 0.931 . S
H1192 C1172 0.932 . S
H1193 C1173 0.930 . S
H1194 C1174 0.929 . S
H1195 C1176 0.930 . S
H1196 C1178 0.932 . S
H1197 C1179 0.929 . S
H1198 C1180 0.928 . S
H1199 C1182 0.932 . S
C1200 C1201 1.264 . S
C1200 C1205 1.479 . S
C1200 C1210 1.465 . S
C1201 C1200 1.264 . S
C1201 C1203 1.339 . S
C1201 H1228 0.931 . S
C1202 C1203 1.395 . S
C1202 C1204 1.320 . S
C1203 C1201 1.339 . S
C1203 C1202 1.395 . S
C1203 H1229 0.929 . S
C1204 C1202 1.320 . S
C1204 C1205 1.405 . S
C1204 H1230 0.930 . S
C1205 C1200 1.479 . S
C1205 C1204 1.405 . S
C1205 H1231 0.931 . S
U1206 O1207 2.454 . S
U1206 O1208 2.458 . S
U1206 C1209 2.984 . S
U1206 C1210 2.847 . S
U1206 C1223 2.882 . S
U1206 O1224 2.441 . S
U1206 O1225 2.420 . S
U1206 O1226 2.455 . S
U1206 O1227 2.449 . S
O1207 U1206 2.454 . S
O1207 C1209 1.353 . S
O1208 U1206 2.458 . S
O1208 C1209 1.286 . S
C1209 U1206 2.984 . S
C1209 O1207 1.353 . S
C1209 O1208 1.286 . S
C1209 C1211 1.363 . S
C1210 C1200 1.465 . S
C1210 U1206 2.847 . S
C1210 O1224 1.249 . S
C1210 O1225 1.202 . S
C1211 C1209 1.363 . S
C1211 C1213 1.408 . S
C1211 C1216 1.342 . S
C1212 C1213 1.310 . S
C1212 C1215 1.461 . S
C1212 H1232 0.932 . S
C1213 C1211 1.408 . S
C1213 C1212 1.310 . S
C1213 H1233 0.930 . S
C1214 C1215 1.474 . S
C1214 C1216 1.285 . S
C1214 H1234 0.929 . S
C1215 C1212 1.461 . S
C1215 C1214 1.474 . S
C1216 C1211 1.342 . S
C1216 C1214 1.285 . S
C1216 H1235 0.930 . S
C1217 C1220 1.424 . S
C1217 C1222 1.245 . S
C1217 C1223 1.428 . S
C1218 C1221 1.260 . S
C1218 C1222 1.477 . S
C1218 H1236 0.932 . S
C1219 C1220 1.384 . S
C1219 C1221 1.479 . S
C1219 H1237 0.929 . S
C1220 C1217 1.424 . S
C1220 C1219 1.384 . S
C1220 H1238 0.928 . S
C1221 C1218 1.260 . S
C1221 C1219 1.479 . S
C1222 C1217 1.245 . S
C1222 C1218 1.477 . S
C1222 H1239 0.932 . S
C1223 U1206 2.882 . S
C1223 C1217 1.428 . S
C1223 O1226 1.301 . S
C1223 O1227 1.282 . S
O1224 U1206 2.441 . S
O1224 C1210 1.249 . S
O1225 U1206 2.420 . S
O1225 C1210 1.202 . S
O1226 U1206 2.455 . S
O1226 C1223 1.301 . S
O1227 U1206 2.449 . S
O1227 C1223 1.282 . S
H1228 C1201 0.931 . S
H1229 C1203 0.929 . S
H1230 C1204 0.930 . S
H1231 C1205 0.931 . S
H1232 C1212 0.932 . S
H1233 C1213 0.930 . S
H1234 C1214 0.929 . S
H1235 C1216 0.930 . S
H1236 C1218 0.932 . S
H1237 C1219 0.929 . S
H1238 C1220 0.928 . S
H1239 C1222 0.932 . S
C1240 C1241 1.264 . S
C1240 C1245 1.479 . S
C1240 C1250 1.465 . S
C1241 C1240 1.264 . S
C1241 C1243 1.339 . S
C1241 H1268 0.931 . S
C1242 C1243 1.395 . S
C1242 C1244 1.320 . S
C1243 C1241 1.339 . S
C1243 C1242 1.395 . S
C1243 H1269 0.929 . S
C1244 C1242 1.320 . S
C1244 C1245 1.405 . S
C1244 H1270 0.930 . S
C1245 C1240 1.479 . S
C1245 C1244 1.405 . S
C1245 H1271 0.931 . S
U1246 O1247 2.454 . S
U1246 O1248 2.458 . S
U1246 C1249 2.984 . S
U1246 C1250 2.847 . S
U1246 C1263 2.882 . S
U1246 O1264 2.441 . S
U1246 O1265 2.420 . S
U1246 O1266 2.455 . S
U1246 O1267 2.449 . S
O1247 U1246 2.454 . S
O1247 C1249 1.353 . S
O1248 U1246 2.458 . S
O1248 C1249 1.286 . S
C1249 U1246 2.984 . S
C1249 O1247 1.353 . S
C1249 O1248 1.286 . S
C1249 C1251 1.363 . S
C1250 C1240 1.465 . S
C1250 U1246 2.847 . S
C1250 O1264 1.249 . S
C1250 O1265 1.202 . S
C1251 C1249 1.363 . S
C1251 C1253 1.408 . S
C1251 C1256 1.342 . S
C1252 C1253 1.310 . S
C1252 C1255 1.461 . S
C1252 H1272 0.932 . S
C1253 C1251 1.408 . S
C1253 C1252 1.310 . S
C1253 H1273 0.930 . S
C1254 C1255 1.474 . S
C1254 C1256 1.285 . S
C1254 H1274 0.929 . S
C1255 C1252 1.461 . S
C1255 C1254 1.474 . S
C1256 C1251 1.342 . S
C1256 C1254 1.285 . S
C1256 H1275 0.930 . S
C1257 C1260 1.424 . S
C1257 C1262 1.245 . S
C1257 C1263 1.428 . S
C1258 C1261 1.260 . S
C1258 C1262 1.477 . S
C1258 H1276 0.932 . S
C1259 C1260 1.384 . S
C1259 C1261 1.479 . S
C1259 H1277 0.929 . S
C1260 C1257 1.424 . S
C1260 C1259 1.384 . S
C1260 H1278 0.928 . S
C1261 C1258 1.260 . S
C1261 C1259 1.479 . S
C1262 C1257 1.245 . S
C1262 C1258 1.477 . S
C1262 H1279 0.932 . S
C1263 U1246 2.882 . S
C1263 C1257 1.428 . S
C1263 O1266 1.301 . S
C1263 O1267 1.282 . S
O1264 U1246 2.441 . S
O1264 C1250 1.249 . S
O1265 U1246 2.420 . S
O1265 C1250 1.202 . S
O1266 U1246 2.455 . S
O1266 C1263 1.301 . S
O1267 U1246 2.449 . S
O1267 C1263 1.282 . S
H1268 C1241 0.931 . S
H1269 C1243 0.929 . S
H1270 C1244 0.930 . S
H1271 C1245 0.931 . S
H1272 C1252 0.932 . S
H1273 C1253 0.930 . S
H1274 C1254 0.929 . S
H1275 C1256 0.930 . S
H1276 C1258 0.932 . S
H1277 C1259 0.929 . S
H1278 C1260 0.928 . S
H1279 C1262 0.932 . S
H1280 C1286 0.930 . S
H1281 C1289 0.931 . S
H1282 C1291 0.931 . S
H1283 C1293 0.930 . S
H1284 C1295 0.930 . S
H1285 C1297 0.931 . S
C1286 H1280 0.930 . S
C1286 C1287 1.380 . S
C1286 C1288 1.394 . S
C1287 C1286 1.380 . S
C1287 C1291 1.382 . S
C1288 C1286 1.394 . S
C1288 C1289 1.400 . S
C1289 H1281 0.931 . S
C1289 C1288 1.400 . S
C1289 C1290 1.375 . S
C1290 C1289 1.375 . S
C1290 C1291 1.415 . S
C1290 C1292 1.501 1_556 S
C1291 H1282 0.931 . S
C1291 C1287 1.382 . S
C1291 C1290 1.415 . S
C1292 C1290 1.501 1_554 S
C1292 C1293 1.384 . S
C1292 C1297 1.408 . S
C1293 H1283 0.930 . S
C1293 C1292 1.384 . S
C1293 C1294 1.389 . S
C1294 C1293 1.389 . S
C1294 C1295 1.405 . S
C1295 H1284 0.930 . S
C1295 C1294 1.405 . S
C1295 C1296 1.364 . S
C1296 C1295 1.364 . S
C1296 C1297 1.400 . S
C1297 H1285 0.931 . S
C1297 C1292 1.408 . S
C1297 C1296 1.400 . S
H1298 C1304 0.930 . S
H1299 C1307 0.931 . S
H1300 C1309 0.931 . S
H1301 C1311 0.930 . S
H1302 C1313 0.930 . S
H1303 C1315 0.931 . S
C1304 H1298 0.930 . S
C1304 C1305 1.380 . S
C1304 C1306 1.394 . S
C1305 C1304 1.380 . S
C1305 C1309 1.382 . S
C1306 C1304 1.394 . S
C1306 C1307 1.400 . S
C1307 H1299 0.931 . S
C1307 C1306 1.400 . S
C1307 C1308 1.375 . S
C1308 C1307 1.375 . S
C1308 C1309 1.415 . S
C1308 C1310 1.556 . S
C1309 H1300 0.931 . S
C1309 C1305 1.382 . S
C1309 C1308 1.415 . S
C1310 C1308 1.556 . S
C1310 C1311 1.356 1_554 S
C1310 C1315 1.380 1_554 S
C1311 H1301 0.930 . S
C1311 C1310 1.356 1_556 S
C1311 C1312 1.389 . S
C1312 C1311 1.389 . S
C1312 C1313 1.405 . S
C1313 H1302 0.930 . S
C1313 C1312 1.405 . S
C1313 C1314 1.364 . S
C1314 C1313 1.364 . S
C1314 C1315 1.400 . S
C1315 H1303 0.931 . S
C1315 C1310 1.380 1_556 S
C1315 C1314 1.400 . S
H1316 C1322 0.930 . S
H1317 C1325 0.931 . S
H1318 C1327 0.931 . S
H1319 C1329 0.930 . S
H1320 C1331 0.930 . S
H1321 C1333 0.931 . S
C1322 H1316 0.930 . S
C1322 C1323 1.380 . S
C1322 C1324 1.394 . S
C1323 C1322 1.380 . S
C1323 C1327 1.382 . S
C1324 C1322 1.394 . S
C1324 C1325 1.400 . S
C1325 H1317 0.931 . S
C1325 C1324 1.400 . S
C1325 C1326 1.375 . S
C1326 C1325 1.375 . S
C1326 C1327 1.415 . S
C1326 C1328 1.501 1_556 S
C1327 H1318 0.931 . S
C1327 C1323 1.382 . S
C1327 C1326 1.415 . S
C1328 C1326 1.501 1_554 S
C1328 C1329 1.384 . S
C1328 C1333 1.408 . S
C1329 H1319 0.930 . S
C1329 C1328 1.384 . S
C1329 C1330 1.389 . S
C1330 C1329 1.389 . S
C1330 C1331 1.405 . S
C1331 H1320 0.930 . S
C1331 C1330 1.405 . S
C1331 C1332 1.364 . S
C1332 C1331 1.364 . S
C1332 C1333 1.400 . S
C1333 H1321 0.931 . S
C1333 C1328 1.408 . S
C1333 C1332 1.400 . S
H1334 C1340 0.930 . S
H1335 C1343 0.931 . S
H1336 C1345 0.931 . S
H1337 C1347 0.930 . S
H1338 C1349 0.930 . S
H1339 C1351 0.931 . S
C1340 H1334 0.930 . S
C1340 C1341 1.380 . S
C1340 C1342 1.394 . S
C1341 C1340 1.380 . S
C1341 C1345 1.382 . S
C1342 C1340 1.394 . S
C1342 C1343 1.400 . S
C1343 H1335 0.931 . S
C1343 C1342 1.400 . S
C1343 C1344 1.375 . S
C1344 C1343 1.375 . S
C1344 C1345 1.415 . S
C1344 C1346 1.549 . S
C1345 H1336 0.931 . S
C1345 C1341 1.382 . S
C1345 C1344 1.415 . S
C1346 C1344 1.549 . S
C1346 C1347 1.359 1_554 S
C1346 C1351 1.384 1_554 S
C1347 H1337 0.930 . S
C1347 C1346 1.359 1_556 S
C1347 C1348 1.389 . S
C1348 C1347 1.389 . S
C1348 C1349 1.405 . S
C1349 H1338 0.930 . S
C1349 C1348 1.405 . S
C1349 C1350 1.364 . S
C1350 C1349 1.364 . S
C1350 C1351 1.400 . S
C1351 H1339 0.931 . S
C1351 C1346 1.384 1_556 S
C1351 C1350 1.400 . S
H1352 C1358 0.930 . S
H1353 C1361 0.931 . S
H1354 C1363 0.931 . S
H1355 C1365 0.930 . S
H1356 C1367 0.930 . S
H1357 C1369 0.931 . S
C1358 H1352 0.930 . S
C1358 C1359 1.380 . S
C1358 C1360 1.394 . S
C1359 C1358 1.380 . S
C1359 C1363 1.382 . S
C1360 C1358 1.394 . S
C1360 C1361 1.400 . S
C1361 H1353 0.931 . S
C1361 C1360 1.400 . S
C1361 C1362 1.375 . S
C1362 C1361 1.375 . S
C1362 C1363 1.415 . S
C1362 C1364 1.501 1_455 S
C1363 H1354 0.931 . S
C1363 C1359 1.382 . S
C1363 C1362 1.415 . S
C1364 C1362 1.501 1_655 S
C1364 C1365 1.384 . S
C1364 C1369 1.408 . S
C1365 H1355 0.930 . S
C1365 C1364 1.384 . S
C1365 C1366 1.389 . S
C1366 C1365 1.389 . S
C1366 C1367 1.405 . S
C1367 H1356 0.930 . S
C1367 C1366 1.405 . S
C1367 C1368 1.364 . S
C1368 C1367 1.364 . S
C1368 C1369 1.400 . S
C1369 H1357 0.931 . S
C1369 C1364 1.408 . S
C1369 C1368 1.400 . S
H1370 C1376 0.930 . S
H1371 C1379 0.931 . S
H1372 C1381 0.931 . S
H1373 C1383 0.930 . S
H1374 C1385 0.930 . S
H1375 C1387 0.931 . S
C1376 H1370 0.930 . S
C1376 C1377 1.380 . S
C1376 C1378 1.394 . S
C1377 C1376 1.380 . S
C1377 C1381 1.382 . S
C1378 C1376 1.394 . S
C1378 C1379 1.400 . S
C1379 H1371 0.931 . S
C1379 C1378 1.400 . S
C1379 C1380 1.375 . S
C1380 C1379 1.375 . S
C1380 C1381 1.415 . S
C1380 C1382 1.501 1_565 S
C1381 H1372 0.931 . S
C1381 C1377 1.382 . S
C1381 C1380 1.415 . S
C1382 C1380 1.501 1_545 S
C1382 C1383 1.384 . S
C1382 C1387 1.408 . S
C1383 H1373 0.930 . S
C1383 C1382 1.384 . S
C1383 C1384 1.389 . S
C1384 C1383 1.389 . S
C1384 C1385 1.405 . S
C1385 H1374 0.930 . S
C1385 C1384 1.405 . S
C1385 C1386 1.364 . S
C1386 C1385 1.364 . S
C1386 C1387 1.400 . S
C1387 H1375 0.931 . S
C1387 C1382 1.408 . S
C1387 C1386 1.400 . S
H1388 C1394 0.930 . S
H1389 C1397 0.931 . S
H1390 C1399 0.931 . S
H1391 C1401 0.930 . S
H1392 C1403 0.930 . S
H1393 C1405 0.931 . S
C1394 H1388 0.930 . S
C1394 C1395 1.380 . S
C1394 C1396 1.394 . S
C1395 C1394 1.380 . S
C1395 C1399 1.382 . S
C1396 C1394 1.394 . S
C1396 C1397 1.400 . S
C1397 H1389 0.931 . S
C1397 C1396 1.400 . S
C1397 C1398 1.375 . S
C1398 C1397 1.375 . S
C1398 C1399 1.415 . S
C1398 C1400 1.501 1_455 S
C1399 H1390 0.931 . S
C1399 C1395 1.382 . S
C1399 C1398 1.415 . S
C1400 C1398 1.501 1_655 S
C1400 C1401 1.384 . S
C1400 C1405 1.408 . S
C1401 H1391 0.930 . S
C1401 C1400 1.384 . S
C1401 C1402 1.389 . S
C1402 C1401 1.389 . S
C1402 C1403 1.405 . S
C1403 H1392 0.930 . S
C1403 C1402 1.405 . S
C1403 C1404 1.364 . S
C1404 C1403 1.364 . S
C1404 C1405 1.400 . S
C1405 H1393 0.931 . S
C1405 C1400 1.408 . S
C1405 C1404 1.400 . S
H1406 C1412 0.930 . S
H1407 C1415 0.931 . S
H1408 C1417 0.931 . S
H1409 C1419 0.930 . S
H1410 C1421 0.930 . S
H1411 C1423 0.931 . S
C1412 H1406 0.930 . S
C1412 C1413 1.380 . S
C1412 C1414 1.394 . S
C1413 C1412 1.380 . S
C1413 C1417 1.382 . S
C1414 C1412 1.394 . S
C1414 C1415 1.400 . S
C1415 H1407 0.931 . S
C1415 C1414 1.400 . S
C1415 C1416 1.375 . S
C1416 C1415 1.375 . S
C1416 C1417 1.415 . S
C1416 C1418 1.501 1_545 S
C1417 H1408 0.931 . S
C1417 C1413 1.382 . S
C1417 C1416 1.415 . S
C1418 C1416 1.501 1_565 S
C1418 C1419 1.384 . S
C1418 C1423 1.408 . S
C1419 H1409 0.930 . S
C1419 C1418 1.384 . S
C1419 C1420 1.389 . S
C1420 C1419 1.389 . S
C1420 C1421 1.405 . S
C1421 H1410 0.930 . S
C1421 C1420 1.405 . S
C1421 C1422 1.364 . S
C1422 C1421 1.364 . S
C1422 C1423 1.400 . S
C1423 H1411 0.931 . S
C1423 C1418 1.408 . S
C1423 C1422 1.400 . S
H1424 C1430 0.930 . S
H1425 C1433 0.931 . S
H1426 C1435 0.931 . S
H1427 C1437 0.930 . S
H1428 C1439 0.930 . S
H1429 C1441 0.931 . S
C1430 H1424 0.930 . S
C1430 C1431 1.380 . S
C1430 C1432 1.394 . S
C1431 C1430 1.380 . S
C1431 C1435 1.382 . S
C1432 C1430 1.394 . S
C1432 C1433 1.400 . S
C1433 H1425 0.931 . S
C1433 C1432 1.400 . S
C1433 C1434 1.375 . S
C1434 C1433 1.375 . S
C1434 C1435 1.415 . S
C1434 C1436 1.501 1_455 S
C1435 H1426 0.931 . S
C1435 C1431 1.382 . S
C1435 C1434 1.415 . S
C1436 C1434 1.501 1_655 S
C1436 C1437 1.384 . S
C1436 C1441 1.408 . S
C1437 H1427 0.930 . S
C1437 C1436 1.384 . S
C1437 C1438 1.389 . S
C1438 C1437 1.389 . S
C1438 C1439 1.405 . S
C1439 H1428 0.930 . S
C1439 C1438 1.405 . S
C1439 C1440 1.364 . S
C1440 C1439 1.364 . S
C1440 C1441 1.400 . S
C1441 H1429 0.931 . S
C1441 C1436 1.408 . S
C1441 C1440 1.400 . S
H1442 C1448 0.930 . S
H1443 C1451 0.931 . S
H1444 C1453 0.931 . S
H1445 C1455 0.930 . S
H1446 C1457 0.930 . S
H1447 C1459 0.931 . S
C1448 H1442 0.930 . S
C1448 C1449 1.380 . S
C1448 C1450 1.394 . S
C1449 C1448 1.380 . S
C1449 C1453 1.382 . S
C1450 C1448 1.394 . S
C1450 C1451 1.400 . S
C1451 H1443 0.931 . S
C1451 C1450 1.400 . S
C1451 C1452 1.375 . S
C1452 C1451 1.375 . S
C1452 C1453 1.415 . S
C1452 C1454 1.501 1_565 S
C1453 H1444 0.931 . S
C1453 C1449 1.382 . S
C1453 C1452 1.415 . S
C1454 C1452 1.501 1_545 S
C1454 C1455 1.384 . S
C1454 C1459 1.408 . S
C1455 H1445 0.930 . S
C1455 C1454 1.384 . S
C1455 C1456 1.389 . S
C1456 C1455 1.389 . S
C1456 C1457 1.405 . S
C1457 H1446 0.930 . S
C1457 C1456 1.405 . S
C1457 C1458 1.364 . S
C1458 C1457 1.364 . S
C1458 C1459 1.400 . S
C1459 H1447 0.931 . S
C1459 C1454 1.408 . S
C1459 C1458 1.400 . S
H1460 C1466 0.930 . S
H1461 C1469 0.931 . S
H1462 C1471 0.931 . S
H1463 C1473 0.930 . S
H1464 C1475 0.930 . S
H1465 C1477 0.931 . S
C1466 H1460 0.930 . S
C1466 C1467 1.380 . S
C1466 C1468 1.394 . S
C1467 C1466 1.380 . S
C1467 C1471 1.382 . S
C1468 C1466 1.394 . S
C1468 C1469 1.400 . S
C1469 H1461 0.931 . S
C1469 C1468 1.400 . S
C1469 C1470 1.375 . S
C1470 C1469 1.375 . S
C1470 C1471 1.415 . S
C1470 C1472 1.501 1_455 S
C1471 H1462 0.931 . S
C1471 C1467 1.382 . S
C1471 C1470 1.415 . S
C1472 C1470 1.501 1_655 S
C1472 C1473 1.384 . S
C1472 C1477 1.408 . S
C1473 H1463 0.930 . S
C1473 C1472 1.384 . S
C1473 C1474 1.389 . S
C1474 C1473 1.389 . S
C1474 C1475 1.405 . S
C1475 H1464 0.930 . S
C1475 C1474 1.405 . S
C1475 C1476 1.364 . S
C1476 C1475 1.364 . S
C1476 C1477 1.400 . S
C1477 H1465 0.931 . S
C1477 C1472 1.408 . S
C1477 C1476 1.400 . S
H1478 C1484 0.930 . S
H1479 C1487 0.931 . S
H1480 C1489 0.931 . S
H1481 C1491 0.930 . S
H1482 C1493 0.930 . S
H1483 C1495 0.931 . S
C1484 H1478 0.930 . S
C1484 C1485 1.380 . S
C1484 C1486 1.394 . S
C1485 C1484 1.380 . S
C1485 C1489 1.382 . S
C1486 C1484 1.394 . S
C1486 C1487 1.400 . S
C1487 H1479 0.931 . S
C1487 C1486 1.400 . S
C1487 C1488 1.375 . S
C1488 C1487 1.375 . S
C1488 C1489 1.415 . S
C1488 C1490 1.501 1_545 S
C1489 H1480 0.931 . S
C1489 C1485 1.382 . S
C1489 C1488 1.415 . S
C1490 C1488 1.501 1_565 S
C1490 C1491 1.384 . S
C1490 C1495 1.408 . S
C1491 H1481 0.930 . S
C1491 C1490 1.384 . S
C1491 C1492 1.389 . S
C1492 C1491 1.389 . S
C1492 C1493 1.405 . S
C1493 H1482 0.930 . S
C1493 C1492 1.405 . S
C1493 C1494 1.364 . S
C1494 C1493 1.364 . S
C1494 C1495 1.400 . S
C1495 H1483 0.931 . S
C1495 C1490 1.408 . S
C1495 C1494 1.400 . S
H1496 C1502 0.930 . S
H1497 C1505 0.931 . S
H1498 C1507 0.931 . S
H1499 C1509 0.930 . S
H1500 C1511 0.930 . S
H1501 C1513 0.931 . S
C1502 H1496 0.930 . S
C1502 C1503 1.380 . S
C1502 C1504 1.394 . S
C1503 C1502 1.380 . S
C1503 C1507 1.382 . S
C1504 C1502 1.394 . S
C1504 C1505 1.400 . S
C1505 H1497 0.931 . S
C1505 C1504 1.400 . S
C1505 C1506 1.375 . S
C1506 C1505 1.375 . S
C1506 C1507 1.415 . S
C1506 C1508 1.501 . S
C1507 H1498 0.931 . S
C1507 C1503 1.382 . S
C1507 C1506 1.415 . S
C1508 C1506 1.501 . S
C1508 C1509 1.384 . S
C1508 C1513 1.408 . S
C1509 H1499 0.930 . S
C1509 C1508 1.384 . S
C1509 C1510 1.389 . S
C1510 C1509 1.389 . S
C1510 C1511 1.405 . S
C1511 H1500 0.930 . S
C1511 C1510 1.405 . S
C1511 C1512 1.364 . S
C1512 C1511 1.364 . S
C1512 C1513 1.400 . S
C1513 H1501 0.931 . S
C1513 C1508 1.408 . S
C1513 C1512 1.400 . S
H1514 C1520 0.930 . S
H1515 C1523 0.931 . S
H1516 C1525 0.931 . S
H1517 C1527 0.930 . S
H1518 C1529 0.930 . S
H1519 C1531 0.931 . S
C1520 H1514 0.930 . S
C1520 C1521 1.380 . S
C1520 C1522 1.394 . S
C1521 C1520 1.380 . S
C1521 C1525 1.382 . S
C1522 C1520 1.394 . S
C1522 C1523 1.400 . S
C1523 H1515 0.931 . S
C1523 C1522 1.400 . S
C1523 C1524 1.375 . S
C1524 C1523 1.375 . S
C1524 C1525 1.415 . S
C1524 C1526 1.501 . S
C1525 H1516 0.931 . S
C1525 C1521 1.382 . S
C1525 C1524 1.415 . S
C1526 C1524 1.501 . S
C1526 C1527 1.384 . S
C1526 C1531 1.408 . S
C1527 H1517 0.930 . S
C1527 C1526 1.384 . S
C1527 C1528 1.389 . S
C1528 C1527 1.389 . S
C1528 C1529 1.405 . S
C1529 H1518 0.930 . S
C1529 C1528 1.405 . S
C1529 C1530 1.364 . S
C1530 C1529 1.364 . S
C1530 C1531 1.400 . S
C1531 H1519 0.931 . S
C1531 C1526 1.408 . S
C1531 C1530 1.400 . S
H1532 C1538 0.930 . S
H1533 C1541 0.931 . S
H1534 C1543 0.931 . S
H1535 C1545 0.930 . S
H1536 C1547 0.930 . S
H1537 C1549 0.931 . S
C1538 H1532 0.930 . S
C1538 C1539 1.380 . S
C1538 C1540 1.394 . S
C1539 C1538 1.380 . S
C1539 C1543 1.382 . S
C1540 C1538 1.394 . S
C1540 C1541 1.400 . S
C1541 H1533 0.931 . S
C1541 C1540 1.400 . S
C1541 C1542 1.375 . S
C1542 C1541 1.375 . S
C1542 C1543 1.415 . S
C1542 C1544 1.501 . S
C1543 H1534 0.931 . S
C1543 C1539 1.382 . S
C1543 C1542 1.415 . S
C1544 C1542 1.501 . S
C1544 C1545 1.384 . S
C1544 C1549 1.408 . S
C1545 H1535 0.930 . S
C1545 C1544 1.384 . S
C1545 C1546 1.389 . S
C1546 C1545 1.389 . S
C1546 C1547 1.405 . S
C1547 H1536 0.930 . S
C1547 C1546 1.405 . S
C1547 C1548 1.364 . S
C1548 C1547 1.364 . S
C1548 C1549 1.400 . S
C1549 H1537 0.931 . S
C1549 C1544 1.408 . S
C1549 C1548 1.400 . S
H1550 C1556 0.930 . S
H1551 C1559 0.931 . S
H1552 C1561 0.931 . S
H1553 C1563 0.930 . S
H1554 C1565 0.930 . S
H1555 C1567 0.931 . S
C1556 H1550 0.930 . S
C1556 C1557 1.380 . S
C1556 C1558 1.394 . S
C1557 C1556 1.380 . S
C1557 C1561 1.382 . S
C1558 C1556 1.394 . S
C1558 C1559 1.400 . S
C1559 H1551 0.931 . S
C1559 C1558 1.400 . S
C1559 C1560 1.375 . S
C1560 C1559 1.375 . S
C1560 C1561 1.415 . S
C1560 C1562 1.501 . S
C1561 H1552 0.931 . S
C1561 C1557 1.382 . S
C1561 C1560 1.415 . S
C1562 C1560 1.501 . S
C1562 C1563 1.384 . S
C1562 C1567 1.408 . S
C1563 H1553 0.930 . S
C1563 C1562 1.384 . S
C1563 C1564 1.389 . S
C1564 C1563 1.389 . S
C1564 C1565 1.405 . S
C1565 H1554 0.930 . S
C1565 C1564 1.405 . S
C1565 C1566 1.364 . S
C1566 C1565 1.364 . S
C1566 C1567 1.400 . S
C1567 H1555 0.931 . S
C1567 C1562 1.408 . S
C1567 C1566 1.400 . S
H1568 C1574 0.930 . S
H1569 C1577 0.931 . S
H1570 C1579 0.931 . S
H1571 C1581 0.930 . S
H1572 C1583 0.930 . S
H1573 C1585 0.931 . S
C1574 H1568 0.930 . S
C1574 C1575 1.380 . S
C1574 C1576 1.394 . S
C1575 C1574 1.380 . S
C1575 C1579 1.382 . S
C1576 C1574 1.394 . S
C1576 C1577 1.400 . S
C1577 H1569 0.931 . S
C1577 C1576 1.400 . S
C1577 C1578 1.375 . S
C1578 C1577 1.375 . S
C1578 C1579 1.415 . S
C1578 C1580 1.501 . S
C1579 H1570 0.931 . S
C1579 C1575 1.382 . S
C1579 C1578 1.415 . S
C1580 C1578 1.501 . S
C1580 C1581 1.384 . S
C1580 C1585 1.408 . S
C1581 H1571 0.930 . S
C1581 C1580 1.384 . S
C1581 C1582 1.389 . S
C1582 C1581 1.389 . S
C1582 C1583 1.405 . S
C1583 H1572 0.930 . S
C1583 C1582 1.405 . S
C1583 C1584 1.364 . S
C1584 C1583 1.364 . S
C1584 C1585 1.400 . S
C1585 H1573 0.931 . S
C1585 C1580 1.408 . S
C1585 C1584 1.400 . S
H1586 C1592 0.930 . S
H1587 C1595 0.931 . S
H1588 C1597 0.931 . S
H1589 C1599 0.930 . S
H1590 C1601 0.930 . S
H1591 C1603 0.931 . S
C1592 H1586 0.930 . S
C1592 C1593 1.380 . S
C1592 C1594 1.394 . S
C1593 C1592 1.380 . S
C1593 C1597 1.382 . S
C1594 C1592 1.394 . S
C1594 C1595 1.400 . S
C1595 H1587 0.931 . S
C1595 C1594 1.400 . S
C1595 C1596 1.375 . S
C1596 C1595 1.375 . S
C1596 C1597 1.415 . S
C1596 C1598 1.501 . S
C1597 H1588 0.931 . S
C1597 C1593 1.382 . S
C1597 C1596 1.415 . S
C1598 C1596 1.501 . S
C1598 C1599 1.384 . S
C1598 C1603 1.408 . S
C1599 H1589 0.930 . S
C1599 C1598 1.384 . S
C1599 C1600 1.389 . S
C1600 C1599 1.389 . S
C1600 C1601 1.405 . S
C1601 H1590 0.930 . S
C1601 C1600 1.405 . S
C1601 C1602 1.364 . S
C1602 C1601 1.364 . S
C1602 C1603 1.400 . S
C1603 H1591 0.931 . S
C1603 C1598 1.408 . S
C1603 C1602 1.400 . S
H1604 C1610 0.930 . S
H1605 C1613 0.931 . S
H1606 C1615 0.931 . S
H1607 C1617 0.930 . S
H1608 C1619 0.930 . S
H1609 C1621 0.931 . S
C1610 H1604 0.930 . S
C1610 C1611 1.380 . S
C1610 C1612 1.394 . S
C1611 C1610 1.380 . S
C1611 C1615 1.382 . S
C1612 C1610 1.394 . S
C1612 C1613 1.400 . S
C1613 H1605 0.931 . S
C1613 C1612 1.400 . S
C1613 C1614 1.375 . S
C1614 C1613 1.375 . S
C1614 C1615 1.415 . S
C1614 C1616 1.501 . S
C1615 H1606 0.931 . S
C1615 C1611 1.382 . S
C1615 C1614 1.415 . S
C1616 C1614 1.501 . S
C1616 C1617 1.384 . S
C1616 C1621 1.408 . S
C1617 H1607 0.930 . S
C1617 C1616 1.384 . S
C1617 C1618 1.389 . S
C1618 C1617 1.389 . S
C1618 C1619 1.405 . S
C1619 H1608 0.930 . S
C1619 C1618 1.405 . S
C1619 C1620 1.364 . S
C1620 C1619 1.364 . S
C1620 C1621 1.400 . S
C1621 H1609 0.931 . S
C1621 C1616 1.408 . S
C1621 C1620 1.400 . S
H1622 C1628 0.930 . S
H1623 C1631 0.931 . S
H1624 C1633 0.931 . S
H1625 C1635 0.930 . S
H1626 C1637 0.930 . S
H1627 C1639 0.931 . S
C1628 H1622 0.930 . S
C1628 C1629 1.380 . S
C1628 C1630 1.394 . S
C1629 C1628 1.380 . S
C1629 C1633 1.382 . S
C1630 C1628 1.394 . S
C1630 C1631 1.400 . S
C1631 H1623 0.931 . S
C1631 C1630 1.400 . S
C1631 C1632 1.375 . S
C1632 C1631 1.375 . S
C1632 C1633 1.415 . S
C1632 C1634 1.501 . S
C1633 H1624 0.931 . S
C1633 C1629 1.382 . S
C1633 C1632 1.415 . S
C1634 C1632 1.501 . S
C1634 C1635 1.384 . S
C1634 C1639 1.408 . S
C1635 H1625 0.930 . S
C1635 C1634 1.384 . S
C1635 C1636 1.389 . S
C1636 C1635 1.389 . S
C1636 C1637 1.405 . S
C1637 H1626 0.930 . S
C1637 C1636 1.405 . S
C1637 C1638 1.364 . S
C1638 C1637 1.364 . S
C1638 C1639 1.400 . S
C1639 H1627 0.931 . S
C1639 C1634 1.408 . S
C1639 C1638 1.400 . S
H1640 C1646 0.930 . S
H1641 C1649 0.931 . S
H1642 C1651 0.931 . S
H1643 C1653 0.930 . S
H1644 C1655 0.930 . S
H1645 C1657 0.931 . S
C1646 H1640 0.930 . S
C1646 C1647 1.380 . S
C1646 C1648 1.394 . S
C1647 C1646 1.380 . S
C1647 C1651 1.382 . S
C1648 C1646 1.394 . S
C1648 C1649 1.400 . S
C1649 H1641 0.931 . S
C1649 C1648 1.400 . S
C1649 C1650 1.375 . S
C1650 C1649 1.375 . S
C1650 C1651 1.415 . S
C1650 C1652 1.501 . S
C1651 H1642 0.931 . S
C1651 C1647 1.382 . S
C1651 C1650 1.415 . S
C1652 C1650 1.501 . S
C1652 C1653 1.384 . S
C1652 C1657 1.408 . S
C1653 H1643 0.930 . S
C1653 C1652 1.384 . S
C1653 C1654 1.389 . S
C1654 C1653 1.389 . S
C1654 C1655 1.405 . S
C1655 H1644 0.930 . S
C1655 C1654 1.405 . S
C1655 C1656 1.364 . S
C1656 C1655 1.364 . S
C1656 C1657 1.400 . S
C1657 H1645 0.931 . S
C1657 C1652 1.408 . S
C1657 C1656 1.400 . S
H1658 C1664 0.930 . S
H1659 C1667 0.931 . S
H1660 C1669 0.931 . S
H1661 C1671 0.930 . S
H1662 C1673 0.930 . S
H1663 C1675 0.931 . S
C1664 H1658 0.930 . S
C1664 C1665 1.380 . S
C1664 C1666 1.394 . S
C1665 C1664 1.380 . S
C1665 C1669 1.382 . S
C1666 C1664 1.394 . S
C1666 C1667 1.400 . S
C1667 H1659 0.931 . S
C1667 C1666 1.400 . S
C1667 C1668 1.375 . S
C1668 C1667 1.375 . S
C1668 C1669 1.415 . S
C1668 C1670 1.501 . S
C1669 H1660 0.931 . S
C1669 C1665 1.382 . S
C1669 C1668 1.415 . S
C1670 C1668 1.501 . S
C1670 C1671 1.384 . S
C1670 C1675 1.408 . S
C1671 H1661 0.930 . S
C1671 C1670 1.384 . S
C1671 C1672 1.389 . S
C1672 C1671 1.389 . S
C1672 C1673 1.405 . S
C1673 H1662 0.930 . S
C1673 C1672 1.405 . S
C1673 C1674 1.364 . S
C1674 C1673 1.364 . S
C1674 C1675 1.400 . S
C1675 H1663 0.931 . S
C1675 C1670 1.408 . S
C1675 C1674 1.400 . S
H1676 C1682 0.930 . S
H1677 C1685 0.931 . S
H1678 C1687 0.931 . S
H1679 C1689 0.930 . S
H1680 C1691 0.930 . S
H1681 C1693 0.931 . S
C1682 H1676 0.930 . S
C1682 C1683 1.380 . S
C1682 C1684 1.394 . S
C1683 C1682 1.380 . S
C1683 C1687 1.382 . S
C1684 C1682 1.394 . S
C1684 C1685 1.400 . S
C1685 H1677 0.931 . S
C1685 C1684 1.400 . S
C1685 C1686 1.375 . S
C1686 C1685 1.375 . S
C1686 C1687 1.415 . S
C1686 C1688 1.501 . S
C1687 H1678 0.931 . S
C1687 C1683 1.382 . S
C1687 C1686 1.415 . S
C1688 C1686 1.501 . S
C1688 C1689 1.384 . S
C1688 C1693 1.408 . S
C1689 H1679 0.930 . S
C1689 C1688 1.384 . S
C1689 C1690 1.389 . S
C1690 C1689 1.389 . S
C1690 C1691 1.405 . S
C1691 H1680 0.930 . S
C1691 C1690 1.405 . S
C1691 C1692 1.364 . S
C1692 C1691 1.364 . S
C1692 C1693 1.400 . S
C1693 H1681 0.931 . S
C1693 C1688 1.408 . S
C1693 C1692 1.400 . S
H1694 C1700 0.930 . S
H1695 C1703 0.931 . S
H1696 C1705 0.931 . S
H1697 C1707 0.930 . S
H1698 C1709 0.930 . S
H1699 C1711 0.931 . S
C1700 H1694 0.930 . S
C1700 C1701 1.380 . S
C1700 C1702 1.394 . S
C1701 C1700 1.380 . S
C1701 C1705 1.382 . S
C1702 C1700 1.394 . S
C1702 C1703 1.400 . S
C1703 H1695 0.931 . S
C1703 C1702 1.400 . S
C1703 C1704 1.375 . S
C1704 C1703 1.375 . S
C1704 C1705 1.415 . S
C1704 C1706 1.501 . S
C1705 H1696 0.931 . S
C1705 C1701 1.382 . S
C1705 C1704 1.415 . S
C1706 C1704 1.501 . S
C1706 C1707 1.384 . S
C1706 C1711 1.408 . S
C1707 H1697 0.930 . S
C1707 C1706 1.384 . S
C1707 C1708 1.389 . S
C1708 C1707 1.389 . S
C1708 C1709 1.405 . S
C1709 H1698 0.930 . S
C1709 C1708 1.405 . S
C1709 C1710 1.364 . S
C1710 C1709 1.364 . S
C1710 C1711 1.400 . S
C1711 H1699 0.931 . S
C1711 C1706 1.408 . S
C1711 C1710 1.400 . S
H1712 C1730 0.951 . S
H1713 C1732 0.951 . S
H1714 C1734 0.950 . S
H1715 C1735 0.950 . S
H1716 C1737 0.950 . S
H1717 C1740 0.950 . S
H1718 C1741 0.950 . S
H1719 C1743 0.950 . S
H1720 C1744 0.950 . S
H1721 C1745 0.951 . S
H1722 C1747 0.951 . S
H1723 C1749 0.950 . S
H1724 C1750 0.950 . S
H1725 C1752 0.950 . S
H1726 C1755 0.950 . S
H1727 C1756 0.950 . S
H1728 C1758 0.950 . S
H1729 C1759 0.950 . S
C1730 H1712 0.951 . S
C1730 C1731 1.366 . S
C1730 C1732 1.388 . S
C1731 C1730 1.366 . S
C1731 C1735 1.385 . S
C1732 H1713 0.951 . S
C1732 C1730 1.388 . S
C1732 C1733 1.366 . S
C1733 C1732 1.366 . S
C1733 C1734 1.414 . S
C1733 C1736 1.499 . S
C1734 H1714 0.950 . S
C1734 C1733 1.414 . S
C1734 C1735 1.374 . S
C1735 H1715 0.950 . S
C1735 C1731 1.385 . S
C1735 C1734 1.374 . S
C1736 C1733 1.499 . S
C1736 C1737 1.373 . S
C1736 C1738 1.389 . S
C1737 H1716 0.950 . S
C1737 C1736 1.373 . S
C1737 C1753 1.377 . S
C1738 C1736 1.389 . S
C1738 C1739 1.524 . S
C1738 C1752 1.377 . S
C1739 C1738 1.524 . S
C1739 C1740 1.397 . S
C1739 C1744 1.363 . S
C1740 H1717 0.950 . S
C1740 C1739 1.397 . S
C1740 C1741 1.334 . S
C1741 H1718 0.950 . S
C1741 C1740 1.334 . S
C1741 C1742 1.287 . S
C1742 C1741 1.287 . S
C1742 C1743 1.524 . S
C1742 H1761 0.913 . S
C1743 H1719 0.950 . S
C1743 C1742 1.524 . S
C1743 C1744 1.415 . S
C1744 H1720 0.950 . S
C1744 C1739 1.363 . S
C1744 C1743 1.415 . S
C1745 H1721 0.951 . S
C1745 C1746 1.366 . S
C1745 C1747 1.388 . S
C1746 C1745 1.366 . S
C1746 C1750 1.385 . S
C1747 H1722 0.951 . S
C1747 C1745 1.388 . S
C1747 C1748 1.366 . S
C1748 C1747 1.366 . S
C1748 C1749 1.414 . S
C1748 C1751 1.499 . S
C1749 H1723 0.950 . S
C1749 C1748 1.414 . S
C1749 C1750 1.374 . S
C1750 H1724 0.950 . S
C1750 C1746 1.385 . S
C1750 C1749 1.374 . S
C1751 C1748 1.499 . S
C1751 C1752 1.373 . S
C1751 C1753 1.389 . S
C1752 H1725 0.950 . S
C1752 C1738 1.377 . S
C1752 C1751 1.373 . S
C1753 C1737 1.377 . S
C1753 C1751 1.389 . S
C1753 C1754 1.524 . S
C1754 C1753 1.524 . S
C1754 C1755 1.397 . S
C1754 C1759 1.363 . S
C1755 H1726 0.950 . S
C1755 C1754 1.397 . S
C1755 C1756 1.334 . S
C1756 H1727 0.950 . S
C1756 C1755 1.334 . S
C1756 C1757 1.287 . S
C1757 C1756 1.287 . S
C1757 C1758 1.524 . S
C1757 H1760 0.999 . S
C1758 H1728 0.950 . S
C1758 C1757 1.524 . S
C1758 C1759 1.415 . S
C1759 H1729 0.950 . S
C1759 C1754 1.363 . S
C1759 C1758 1.415 . S
H1760 C1757 0.999 . S
H1761 C1742 0.913 . S
H1762 C1780 0.951 . S
H1763 C1782 0.951 . S
H1764 C1784 0.950 . S
H1765 C1785 0.950 . S
H1766 C1787 0.950 . S
H1767 C1790 0.950 . S
H1768 C1791 0.950 . S
H1769 C1793 0.950 . S
H1770 C1794 0.950 . S
H1771 C1795 0.951 . S
H1772 C1797 0.951 . S
H1773 C1799 0.950 . S
H1774 C1800 0.950 . S
H1775 C1802 0.950 . S
H1776 C1805 0.950 . S
H1777 C1806 0.950 . S
H1778 C1808 0.950 . S
H1779 C1809 0.950 . S
C1780 H1762 0.951 . S
C1780 C1781 1.366 . S
C1780 C1782 1.388 . S
C1781 C1780 1.366 . S
C1781 C1785 1.385 . S
C1782 H1763 0.951 . S
C1782 C1780 1.388 . S
C1782 C1783 1.366 . S
C1783 C1782 1.366 . S
C1783 C1784 1.414 . S
C1783 C1786 1.499 . S
C1784 H1764 0.950 . S
C1784 C1783 1.414 . S
C1784 C1785 1.374 . S
C1785 H1765 0.950 . S
C1785 C1781 1.385 . S
C1785 C1784 1.374 . S
C1786 C1783 1.499 . S
C1786 C1787 1.373 . S
C1786 C1788 1.389 . S
C1787 H1766 0.950 . S
C1787 C1786 1.373 . S
C1787 C1803 1.377 . S
C1788 C1786 1.389 . S
C1788 C1789 1.524 . S
C1788 C1802 1.377 . S
C1789 C1788 1.524 . S
C1789 C1790 1.397 . S
C1789 C1794 1.363 . S
C1790 H1767 0.950 . S
C1790 C1789 1.397 . S
C1790 C1791 1.334 . S
C1791 H1768 0.950 . S
C1791 C1790 1.334 . S
C1791 C1792 1.287 . S
C1792 C1791 1.287 . S
C1792 C1793 1.524 . S
C1792 H1811 0.913 . S
C1793 H1769 0.950 . S
C1793 C1792 1.524 . S
C1793 C1794 1.415 . S
C1794 H1770 0.950 . S
C1794 C1789 1.363 . S
C1794 C1793 1.415 . S
C1795 H1771 0.951 . S
C1795 C1796 1.366 . S
C1795 C1797 1.388 . S
C1796 C1795 1.366 . S
C1796 C1800 1.385 . S
C1797 H1772 0.951 . S
C1797 C1795 1.388 . S
C1797 C1798 1.366 . S
C1798 C1797 1.366 . S
C1798 C1799 1.414 . S
C1798 C1801 1.499 . S
C1799 H1773 0.950 . S
C1799 C1798 1.414 . S
C1799 C1800 1.374 . S
C1800 H1774 0.950 . S
C1800 C1796 1.385 . S
C1800 C1799 1.374 . S
C1801 C1798 1.499 . S
C1801 C1802 1.373 . S
C1801 C1803 1.389 . S
C1802 H1775 0.950 . S
C1802 C1788 1.377 . S
C1802 C1801 1.373 . S
C1803 C1787 1.377 . S
C1803 C1801 1.389 . S
C1803 C1804 1.524 . S
C1804 C1803 1.524 . S
C1804 C1805 1.397 . S
C1804 C1809 1.363 . S
C1805 H1776 0.950 . S
C1805 C1804 1.397 . S
C1805 C1806 1.334 . S
C1806 H1777 0.950 . S
C1806 C1805 1.334 . S
C1806 C1807 1.287 . S
C1807 C1806 1.287 . S
C1807 C1808 1.524 . S
C1807 H1810 0.999 . S
C1808 H1778 0.950 . S
C1808 C1807 1.524 . S
C1808 C1809 1.415 . S
C1809 H1779 0.950 . S
C1809 C1804 1.363 . S
C1809 C1808 1.415 . S
H1810 C1807 0.999 . S
H1811 C1792 0.913 . S
H1812 C1830 0.951 . S
H1813 C1832 0.951 . S
H1814 C1834 0.950 . S
H1815 C1835 0.950 . S
H1816 C1837 0.950 . S
H1817 C1840 0.950 . S
H1818 C1841 0.950 . S
H1819 C1843 0.950 . S
H1820 C1844 0.950 . S
H1821 C1845 0.951 . S
H1822 C1847 0.951 . S
H1823 C1849 0.950 . S
H1824 C1850 0.950 . S
H1825 C1852 0.950 . S
H1826 C1855 0.950 . S
H1827 C1856 0.950 . S
H1828 C1858 0.950 . S
H1829 C1859 0.950 . S
C1830 H1812 0.951 . S
C1830 C1831 1.366 . S
C1830 C1832 1.388 . S
C1831 C1830 1.366 . S
C1831 C1835 1.385 . S
C1832 H1813 0.951 . S
C1832 C1830 1.388 . S
C1832 C1833 1.366 . S
C1833 C1832 1.366 . S
C1833 C1834 1.414 . S
C1833 C1836 1.499 . S
C1834 H1814 0.950 . S
C1834 C1833 1.414 . S
C1834 C1835 1.374 . S
C1835 H1815 0.950 . S
C1835 C1831 1.385 . S
C1835 C1834 1.374 . S
C1836 C1833 1.499 . S
C1836 C1837 1.373 . S
C1836 C1838 1.389 . S
C1837 H1816 0.950 . S
C1837 C1836 1.373 . S
C1837 C1853 1.377 . S
C1838 C1836 1.389 . S
C1838 C1839 1.524 . S
C1838 C1852 1.377 . S
C1839 C1838 1.524 . S
C1839 C1840 1.397 . S
C1839 C1844 1.363 . S
C1840 H1817 0.950 . S
C1840 C1839 1.397 . S
C1840 C1841 1.334 . S
C1841 H1818 0.950 . S
C1841 C1840 1.334 . S
C1841 C1842 1.287 . S
C1842 C1841 1.287 . S
C1842 C1843 1.524 . S
C1842 H1861 0.913 . S
C1843 H1819 0.950 . S
C1843 C1842 1.524 . S
C1843 C1844 1.415 . S
C1844 H1820 0.950 . S
C1844 C1839 1.363 . S
C1844 C1843 1.415 . S
C1845 H1821 0.951 . S
C1845 C1846 1.366 . S
C1845 C1847 1.388 . S
C1846 C1845 1.366 . S
C1846 C1850 1.385 . S
C1847 H1822 0.951 . S
C1847 C1845 1.388 . S
C1847 C1848 1.366 . S
C1848 C1847 1.366 . S
C1848 C1849 1.414 . S
C1848 C1851 1.499 . S
C1849 H1823 0.950 . S
C1849 C1848 1.414 . S
C1849 C1850 1.374 . S
C1850 H1824 0.950 . S
C1850 C1846 1.385 . S
C1850 C1849 1.374 . S
C1851 C1848 1.499 . S
C1851 C1852 1.373 . S
C1851 C1853 1.389 . S
C1852 H1825 0.950 . S
C1852 C1838 1.377 . S
C1852 C1851 1.373 . S
C1853 C1837 1.377 . S
C1853 C1851 1.389 . S
C1853 C1854 1.524 . S
C1854 C1853 1.524 . S
C1854 C1855 1.397 . S
C1854 C1859 1.363 . S
C1855 H1826 0.950 . S
C1855 C1854 1.397 . S
C1855 C1856 1.334 . S
C1856 H1827 0.950 . S
C1856 C1855 1.334 . S
C1856 C1857 1.287 . S
C1857 C1856 1.287 . S
C1857 C1858 1.524 . S
C1857 H1860 0.999 . S
C1858 H1828 0.950 . S
C1858 C1857 1.524 . S
C1858 C1859 1.415 . S
C1859 H1829 0.950 . S
C1859 C1854 1.363 . S
C1859 C1858 1.415 . S
H1860 C1857 0.999 . S
H1861 C1842 0.913 . S
H1862 C1880 0.951 . S
H1863 C1882 0.951 . S
H1864 C1884 0.950 . S
H1865 C1885 0.950 . S
H1866 C1887 0.950 . S
H1867 C1890 0.950 . S
H1868 C1891 0.950 . S
H1869 C1893 0.950 . S
H1870 C1894 0.950 . S
H1871 C1895 0.951 . S
H1872 C1897 0.951 . S
H1873 C1899 0.950 . S
H1874 C1900 0.950 . S
H1875 C1902 0.950 . S
H1876 C1905 0.950 . S
H1877 C1906 0.950 . S
H1878 C1908 0.950 . S
H1879 C1909 0.950 . S
C1880 H1862 0.951 . S
C1880 C1881 1.366 . S
C1880 C1882 1.388 . S
C1881 C1880 1.366 . S
C1881 C1885 1.385 . S
C1882 H1863 0.951 . S
C1882 C1880 1.388 . S
C1882 C1883 1.366 . S
C1883 C1882 1.366 . S
C1883 C1884 1.414 . S
C1883 C1886 1.499 . S
C1884 H1864 0.950 . S
C1884 C1883 1.414 . S
C1884 C1885 1.374 . S
C1885 H1865 0.950 . S
C1885 C1881 1.385 . S
C1885 C1884 1.374 . S
C1886 C1883 1.499 . S
C1886 C1887 1.373 . S
C1886 C1888 1.389 . S
C1887 H1866 0.950 . S
C1887 C1886 1.373 . S
C1887 C1903 1.377 . S
C1888 C1886 1.389 . S
C1888 C1889 1.524 . S
C1888 C1902 1.377 . S
C1889 C1888 1.524 . S
C1889 C1890 1.397 . S
C1889 C1894 1.363 . S
C1890 H1867 0.950 . S
C1890 C1889 1.397 . S
C1890 C1891 1.334 . S
C1891 H1868 0.950 . S
C1891 C1890 1.334 . S
C1891 C1892 1.287 . S
C1892 C1891 1.287 . S
C1892 C1893 1.524 . S
C1892 H1911 0.913 . S
C1893 H1869 0.950 . S
C1893 C1892 1.524 . S
C1893 C1894 1.415 . S
C1894 H1870 0.950 . S
C1894 C1889 1.363 . S
C1894 C1893 1.415 . S
C1895 H1871 0.951 . S
C1895 C1896 1.366 . S
C1895 C1897 1.388 . S
C1896 C1895 1.366 . S
C1896 C1900 1.385 . S
C1897 H1872 0.951 . S
C1897 C1895 1.388 . S
C1897 C1898 1.366 . S
C1898 C1897 1.366 . S
C1898 C1899 1.414 . S
C1898 C1901 1.499 . S
C1899 H1873 0.950 . S
C1899 C1898 1.414 . S
C1899 C1900 1.374 . S
C1900 H1874 0.950 . S
C1900 C1896 1.385 . S
C1900 C1899 1.374 . S
C1901 C1898 1.499 . S
C1901 C1902 1.373 . S
C1901 C1903 1.389 . S
C1902 H1875 0.950 . S
C1902 C1888 1.377 . S
C1902 C1901 1.373 . S
C1903 C1887 1.377 . S
C1903 C1901 1.389 . S
C1903 C1904 1.524 . S
C1904 C1903 1.524 . S
C1904 C1905 1.397 . S
C1904 C1909 1.363 . S
C1905 H1876 0.950 . S
C1905 C1904 1.397 . S
C1905 C1906 1.334 . S
C1906 H1877 0.950 . S
C1906 C1905 1.334 . S
C1906 C1907 1.287 . S
C1907 C1906 1.287 . S
C1907 C1908 1.524 . S
C1907 H1910 0.999 . S
C1908 H1878 0.950 . S
C1908 C1907 1.524 . S
C1908 C1909 1.415 . S
C1909 H1879 0.950 . S
C1909 C1904 1.363 . S
C1909 C1908 1.415 . S
H1910 C1907 0.999 . S
H1911 C1892 0.913 . S
H1912 C1930 0.951 . S
H1913 C1932 0.951 . S
H1914 C1934 0.950 . S
H1915 C1935 0.950 . S
H1916 C1937 0.950 . S
H1917 C1940 0.950 . S
H1918 C1941 0.950 . S
H1919 C1943 0.950 . S
H1920 C1944 0.950 . S
H1921 C1945 0.951 . S
H1922 C1947 0.951 . S
H1923 C1949 0.950 . S
H1924 C1950 0.950 . S
H1925 C1952 0.950 . S
H1926 C1955 0.950 . S
H1927 C1956 0.950 . S
H1928 C1958 0.950 . S
H1929 C1959 0.950 . S
C1930 H1912 0.951 . S
C1930 C1931 1.366 . S
C1930 C1932 1.388 . S
C1931 C1930 1.366 . S
C1931 C1935 1.385 . S
C1932 H1913 0.951 . S
C1932 C1930 1.388 . S
C1932 C1933 1.366 . S
C1933 C1932 1.366 . S
C1933 C1934 1.414 . S
C1933 C1936 1.499 . S
C1934 H1914 0.950 . S
C1934 C1933 1.414 . S
C1934 C1935 1.374 . S
C1935 H1915 0.950 . S
C1935 C1931 1.385 . S
C1935 C1934 1.374 . S
C1936 C1933 1.499 . S
C1936 C1937 1.373 . S
C1936 C1938 1.389 . S
C1937 H1916 0.950 . S
C1937 C1936 1.373 . S
C1937 C1953 1.377 . S
C1938 C1936 1.389 . S
C1938 C1939 1.524 . S
C1938 C1952 1.377 . S
C1939 C1938 1.524 . S
C1939 C1940 1.397 . S
C1939 C1944 1.363 . S
C1940 H1917 0.950 . S
C1940 C1939 1.397 . S
C1940 C1941 1.334 . S
C1941 H1918 0.950 . S
C1941 C1940 1.334 . S
C1941 C1942 1.287 . S
C1942 C1941 1.287 . S
C1942 C1943 1.524 . S
C1942 H1961 0.913 . S
C1943 H1919 0.950 . S
C1943 C1942 1.524 . S
C1943 C1944 1.415 . S
C1944 H1920 0.950 . S
C1944 C1939 1.363 . S
C1944 C1943 1.415 . S
C1945 H1921 0.951 . S
C1945 C1946 1.366 . S
C1945 C1947 1.388 . S
C1946 C1945 1.366 . S
C1946 C1950 1.385 . S
C1947 H1922 0.951 . S
C1947 C1945 1.388 . S
C1947 C1948 1.366 . S
C1948 C1947 1.366 . S
C1948 C1949 1.414 . S
C1948 C1951 1.499 . S
C1949 H1923 0.950 . S
C1949 C1948 1.414 . S
C1949 C1950 1.374 . S
C1950 H1924 0.950 . S
C1950 C1946 1.385 . S
C1950 C1949 1.374 . S
C1951 C1948 1.499 . S
C1951 C1952 1.373 . S
C1951 C1953 1.389 . S
C1952 H1925 0.950 . S
C1952 C1938 1.377 . S
C1952 C1951 1.373 . S
C1953 C1937 1.377 . S
C1953 C1951 1.389 . S
C1953 C1954 1.524 . S
C1954 C1953 1.524 . S
C1954 C1955 1.397 . S
C1954 C1959 1.363 . S
C1955 H1926 0.950 . S
C1955 C1954 1.397 . S
C1955 C1956 1.334 . S
C1956 H1927 0.950 . S
C1956 C1955 1.334 . S
C1956 C1957 1.287 . S
C1957 C1956 1.287 . S
C1957 C1958 1.524 . S
C1957 H1960 0.999 . S
C1958 H1928 0.950 . S
C1958 C1957 1.524 . S
C1958 C1959 1.415 . S
C1959 H1929 0.950 . S
C1959 C1954 1.363 . S
C1959 C1958 1.415 . S
H1960 C1957 0.999 . S
H1961 C1942 0.913 . S
H1962 C1980 0.951 . S
H1963 C1982 0.951 . S
H1964 C1984 0.950 . S
H1965 C1985 0.950 . S
H1966 C1987 0.950 . S
H1967 C1990 0.950 . S
H1968 C1991 0.950 . S
H1969 C1993 0.950 . S
H1970 C1994 0.950 . S
H1971 C1995 0.951 . S
H1972 C1997 0.951 . S
H1973 C1999 0.950 . S
H1974 C2000 0.950 . S
H1975 C2002 0.950 . S
H1976 C2005 0.950 . S
H1977 C2006 0.950 . S
H1978 C2008 0.950 . S
H1979 C2009 0.950 . S
C1980 H1962 0.951 . S
C1980 C1981 1.366 . S
C1980 C1982 1.388 . S
C1981 C1980 1.366 . S
C1981 C1985 1.385 . S
C1982 H1963 0.951 . S
C1982 C1980 1.388 . S
C1982 C1983 1.366 . S
C1983 C1982 1.366 . S
C1983 C1984 1.414 . S
C1983 C1986 1.499 . S
C1984 H1964 0.950 . S
C1984 C1983 1.414 . S
C1984 C1985 1.374 . S
C1985 H1965 0.950 . S
C1985 C1981 1.385 . S
C1985 C1984 1.374 . S
C1986 C1983 1.499 . S
C1986 C1987 1.373 . S
C1986 C1988 1.389 . S
C1987 H1966 0.950 . S
C1987 C1986 1.373 . S
C1987 C2003 1.377 . S
C1988 C1986 1.389 . S
C1988 C1989 1.524 . S
C1988 C2002 1.377 . S
C1989 C1988 1.524 . S
C1989 C1990 1.397 . S
C1989 C1994 1.363 . S
C1990 H1967 0.950 . S
C1990 C1989 1.397 . S
C1990 C1991 1.334 . S
C1991 H1968 0.950 . S
C1991 C1990 1.334 . S
C1991 C1992 1.287 . S
C1992 C1991 1.287 . S
C1992 C1993 1.524 . S
C1992 H2011 0.913 . S
C1993 H1969 0.950 . S
C1993 C1992 1.524 . S
C1993 C1994 1.415 . S
C1994 H1970 0.950 . S
C1994 C1989 1.363 . S
C1994 C1993 1.415 . S
C1995 H1971 0.951 . S
C1995 C1996 1.366 . S
C1995 C1997 1.388 . S
C1996 C1995 1.366 . S
C1996 C2000 1.385 . S
C1997 H1972 0.951 . S
C1997 C1995 1.388 . S
C1997 C1998 1.366 . S
C1998 C1997 1.366 . S
C1998 C1999 1.414 . S
C1998 C2001 1.499 . S
C1999 H1973 0.950 . S
C1999 C1998 1.414 . S
C1999 C2000 1.374 . S
C2000 H1974 0.950 . S
C2000 C1996 1.385 . S
C2000 C1999 1.374 . S
C2001 C1998 1.499 . S
C2001 C2002 1.373 . S
C2001 C2003 1.389 . S
C2002 H1975 0.950 . S
C2002 C1988 1.377 . S
C2002 C2001 1.373 . S
C2003 C1987 1.377 . S
C2003 C2001 1.389 . S
C2003 C2004 1.524 . S
C2004 C2003 1.524 . S
C2004 C2005 1.397 . S
C2004 C2009 1.363 . S
C2005 H1976 0.950 . S
C2005 C2004 1.397 . S
C2005 C2006 1.334 . S
C2006 H1977 0.950 . S
C2006 C2005 1.334 . S
C2006 C2007 1.287 . S
C2007 C2006 1.287 . S
C2007 C2008 1.524 . S
C2007 H2010 0.999 . S
C2008 H1978 0.950 . S
C2008 C2007 1.524 . S
C2008 C2009 1.415 . S
C2009 H1979 0.950 . S
C2009 C2004 1.363 . S
C2009 C2008 1.415 . S
H2010 C2007 0.999 . S
H2011 C1992 0.913 . S
H2012 C2030 0.951 . S
H2013 C2032 0.951 . S
H2014 C2034 0.950 . S
H2015 C2035 0.950 . S
H2016 C2037 0.950 . S
H2017 C2040 0.950 . S
H2018 C2041 0.950 . S
H2019 C2043 0.950 . S
H2020 C2044 0.950 . S
H2021 C2045 0.951 . S
H2022 C2047 0.951 . S
H2023 C2049 0.950 . S
H2024 C2050 0.950 . S
H2025 C2052 0.950 . S
H2026 C2055 0.950 . S
H2027 C2056 0.950 . S
H2028 C2058 0.950 . S
H2029 C2059 0.950 . S
C2030 H2012 0.951 . S
C2030 C2031 1.366 . S
C2030 C2032 1.388 . S
C2031 C2030 1.366 . S
C2031 C2035 1.385 . S
C2032 H2013 0.951 . S
C2032 C2030 1.388 . S
C2032 C2033 1.366 . S
C2033 C2032 1.366 . S
C2033 C2034 1.414 . S
C2033 C2036 1.499 . S
C2034 H2014 0.950 . S
C2034 C2033 1.414 . S
C2034 C2035 1.374 . S
C2035 H2015 0.950 . S
C2035 C2031 1.385 . S
C2035 C2034 1.374 . S
C2036 C2033 1.499 . S
C2036 C2037 1.373 . S
C2036 C2038 1.389 . S
C2037 H2016 0.950 . S
C2037 C2036 1.373 . S
C2037 C2053 1.377 . S
C2038 C2036 1.389 . S
C2038 C2039 1.524 . S
C2038 C2052 1.377 . S
C2039 C2038 1.524 . S
C2039 C2040 1.397 . S
C2039 C2044 1.363 . S
C2040 H2017 0.950 . S
C2040 C2039 1.397 . S
C2040 C2041 1.334 . S
C2041 H2018 0.950 . S
C2041 C2040 1.334 . S
C2041 C2042 1.287 . S
C2042 C2041 1.287 . S
C2042 C2043 1.524 . S
C2042 H2061 0.913 . S
C2043 H2019 0.950 . S
C2043 C2042 1.524 . S
C2043 C2044 1.415 . S
C2044 H2020 0.950 . S
C2044 C2039 1.363 . S
C2044 C2043 1.415 . S
C2045 H2021 0.951 . S
C2045 C2046 1.366 . S
C2045 C2047 1.388 . S
C2046 C2045 1.366 . S
C2046 C2050 1.385 . S
C2047 H2022 0.951 . S
C2047 C2045 1.388 . S
C2047 C2048 1.366 . S
C2048 C2047 1.366 . S
C2048 C2049 1.414 . S
C2048 C2051 1.499 . S
C2049 H2023 0.950 . S
C2049 C2048 1.414 . S
C2049 C2050 1.374 . S
C2050 H2024 0.950 . S
C2050 C2046 1.385 . S
C2050 C2049 1.374 . S
C2051 C2048 1.499 . S
C2051 C2052 1.373 . S
C2051 C2053 1.389 . S
C2052 H2025 0.950 . S
C2052 C2038 1.377 . S
C2052 C2051 1.373 . S
C2053 C2037 1.377 . S
C2053 C2051 1.389 . S
C2053 C2054 1.524 . S
C2054 C2053 1.524 . S
C2054 C2055 1.397 . S
C2054 C2059 1.363 . S
C2055 H2026 0.950 . S
C2055 C2054 1.397 . S
C2055 C2056 1.334 . S
C2056 H2027 0.950 . S
C2056 C2055 1.334 . S
C2056 C2057 1.287 . S
C2057 C2056 1.287 . S
C2057 C2058 1.524 . S
C2057 H2060 0.999 . S
C2058 H2028 0.950 . S
C2058 C2057 1.524 . S
C2058 C2059 1.415 . S
C2059 H2029 0.950 . S
C2059 C2054 1.363 . S
C2059 C2058 1.415 . S
H2060 C2057 0.999 . S
H2061 C2042 0.913 . S
H2062 C2080 0.951 . S
H2063 C2082 0.951 . S
H2064 C2084 0.950 . S
H2065 C2085 0.950 . S
H2066 C2087 0.950 . S
H2067 C2090 0.950 . S
H2068 C2091 0.950 . S
H2069 C2093 0.950 . S
H2070 C2094 0.950 . S
H2071 C2095 0.951 . S
H2072 C2097 0.951 . S
H2073 C2099 0.950 . S
H2074 C2100 0.950 . S
H2075 C2102 0.950 . S
H2076 C2105 0.950 . S
H2077 C2106 0.950 . S
H2078 C2108 0.950 . S
H2079 C2109 0.950 . S
C2080 H2062 0.951 . S
C2080 C2081 1.366 . S
C2080 C2082 1.388 . S
C2081 C2080 1.366 . S
C2081 C2085 1.385 . S
C2082 H2063 0.951 . S
C2082 C2080 1.388 . S
C2082 C2083 1.366 . S
C2083 C2082 1.366 . S
C2083 C2084 1.414 . S
C2083 C2086 1.499 . S
C2084 H2064 0.950 . S
C2084 C2083 1.414 . S
C2084 C2085 1.374 . S
C2085 H2065 0.950 . S
C2085 C2081 1.385 . S
C2085 C2084 1.374 . S
C2086 C2083 1.499 . S
C2086 C2087 1.373 . S
C2086 C2088 1.389 . S
C2087 H2066 0.950 . S
C2087 C2086 1.373 . S
C2087 C2103 1.377 . S
C2088 C2086 1.389 . S
C2088 C2089 1.524 . S
C2088 C2102 1.377 . S
C2089 C2088 1.524 . S
C2089 C2090 1.397 . S
C2089 C2094 1.363 . S
C2090 H2067 0.950 . S
C2090 C2089 1.397 . S
C2090 C2091 1.334 . S
C2091 H2068 0.950 . S
C2091 C2090 1.334 . S
C2091 C2092 1.287 . S
C2092 C2091 1.287 . S
C2092 C2093 1.524 . S
C2092 H2111 0.913 . S
C2093 H2069 0.950 . S
C2093 C2092 1.524 . S
C2093 C2094 1.415 . S
C2094 H2070 0.950 . S
C2094 C2089 1.363 . S
C2094 C2093 1.415 . S
C2095 H2071 0.951 . S
C2095 C2096 1.366 . S
C2095 C2097 1.388 . S
C2096 C2095 1.366 . S
C2096 C2100 1.385 . S
C2097 H2072 0.951 . S
C2097 C2095 1.388 . S
C2097 C2098 1.366 . S
C2098 C2097 1.366 . S
C2098 C2099 1.414 . S
C2098 C2101 1.499 . S
C2099 H2073 0.950 . S
C2099 C2098 1.414 . S
C2099 C2100 1.374 . S
C2100 H2074 0.950 . S
C2100 C2096 1.385 . S
C2100 C2099 1.374 . S
C2101 C2098 1.499 . S
C2101 C2102 1.373 . S
C2101 C2103 1.389 . S
C2102 H2075 0.950 . S
C2102 C2088 1.377 . S
C2102 C2101 1.373 . S
C2103 C2087 1.377 . S
C2103 C2101 1.389 . S
C2103 C2104 1.524 . S
C2104 C2103 1.524 . S
C2104 C2105 1.397 . S
C2104 C2109 1.363 . S
C2105 H2076 0.950 . S
C2105 C2104 1.397 . S
C2105 C2106 1.334 . S
C2106 H2077 0.950 . S
C2106 C2105 1.334 . S
C2106 C2107 1.287 . S
C2107 C2106 1.287 . S
C2107 C2108 1.524 . S
C2107 H2110 0.999 . S
C2108 H2078 0.950 . S
C2108 C2107 1.524 . S
C2108 C2109 1.415 . S
C2109 H2079 0.950 . S
C2109 C2104 1.363 . S
C2109 C2108 1.415 . S
H2110 C2107 0.999 . S
H2111 C2092 0.913 . S
H2112 C2130 0.951 . S
H2113 C2132 0.951 . S
H2114 C2134 0.950 . S
H2115 C2135 0.950 . S
H2116 C2137 0.950 . S
H2117 C2140 0.950 . S
H2118 C2141 0.950 . S
H2119 C2143 0.950 . S
H2120 C2144 0.950 . S
H2121 C2145 0.951 . S
H2122 C2147 0.951 . S
H2123 C2149 0.950 . S
H2124 C2150 0.950 . S
H2125 C2152 0.950 . S
H2126 C2155 0.950 . S
H2127 C2156 0.950 . S
H2128 C2158 0.950 . S
H2129 C2159 0.950 . S
C2130 H2112 0.951 . S
C2130 C2131 1.366 . S
C2130 C2132 1.388 . S
C2131 C2130 1.366 . S
C2131 C2135 1.385 . S
C2132 H2113 0.951 . S
C2132 C2130 1.388 . S
C2132 C2133 1.366 . S
C2133 C2132 1.366 . S
C2133 C2134 1.414 . S
C2133 C2136 1.499 . S
C2134 H2114 0.950 . S
C2134 C2133 1.414 . S
C2134 C2135 1.374 . S
C2135 H2115 0.950 . S
C2135 C2131 1.385 . S
C2135 C2134 1.374 . S
C2136 C2133 1.499 . S
C2136 C2137 1.373 . S
C2136 C2138 1.389 . S
C2137 H2116 0.950 . S
C2137 C2136 1.373 . S
C2137 C2153 1.377 . S
C2138 C2136 1.389 . S
C2138 C2139 1.524 . S
C2138 C2152 1.377 . S
C2139 C2138 1.524 . S
C2139 C2140 1.397 . S
C2139 C2144 1.363 . S
C2140 H2117 0.950 . S
C2140 C2139 1.397 . S
C2140 C2141 1.334 . S
C2141 H2118 0.950 . S
C2141 C2140 1.334 . S
C2141 C2142 1.287 . S
C2142 C2141 1.287 . S
C2142 C2143 1.524 . S
C2142 H2161 0.913 . S
C2143 H2119 0.950 . S
C2143 C2142 1.524 . S
C2143 C2144 1.415 . S
C2144 H2120 0.950 . S
C2144 C2139 1.363 . S
C2144 C2143 1.415 . S
C2145 H2121 0.951 . S
C2145 C2146 1.366 . S
C2145 C2147 1.388 . S
C2146 C2145 1.366 . S
C2146 C2150 1.385 . S
C2147 H2122 0.951 . S
C2147 C2145 1.388 . S
C2147 C2148 1.366 . S
C2148 C2147 1.366 . S
C2148 C2149 1.414 . S
C2148 C2151 1.499 . S
C2149 H2123 0.950 . S
C2149 C2148 1.414 . S
C2149 C2150 1.374 . S
C2150 H2124 0.950 . S
C2150 C2146 1.385 . S
C2150 C2149 1.374 . S
C2151 C2148 1.499 . S
C2151 C2152 1.373 . S
C2151 C2153 1.389 . S
C2152 H2125 0.950 . S
C2152 C2138 1.377 . S
C2152 C2151 1.373 . S
C2153 C2137 1.377 . S
C2153 C2151 1.389 . S
C2153 C2154 1.524 . S
C2154 C2153 1.524 . S
C2154 C2155 1.397 . S
C2154 C2159 1.363 . S
C2155 H2126 0.950 . S
C2155 C2154 1.397 . S
C2155 C2156 1.334 . S
C2156 H2127 0.950 . S
C2156 C2155 1.334 . S
C2156 C2157 1.287 . S
C2157 C2156 1.287 . S
C2157 C2158 1.524 . S
C2157 H2160 0.999 . S
C2158 H2128 0.950 . S
C2158 C2157 1.524 . S
C2158 C2159 1.415 . S
C2159 H2129 0.950 . S
C2159 C2154 1.363 . S
C2159 C2158 1.415 . S
H2160 C2157 0.999 . S
H2161 C2142 0.913 . S
H2162 C2180 0.951 . S
H2163 C2182 0.951 . S
H2164 C2184 0.950 . S
H2165 C2185 0.950 . S
H2166 C2187 0.950 . S
H2167 C2190 0.950 . S
H2168 C2191 0.950 . S
H2169 C2193 0.950 . S
H2170 C2194 0.950 . S
H2171 C2195 0.951 . S
H2172 C2197 0.951 . S
H2173 C2199 0.950 . S
H2174 C2200 0.950 . S
H2175 C2202 0.950 . S
H2176 C2205 0.950 . S
H2177 C2206 0.950 . S
H2178 C2208 0.950 . S
H2179 C2209 0.950 . S
C2180 H2162 0.951 . S
C2180 C2181 1.366 . S
C2180 C2182 1.388 . S
C2181 C2180 1.366 . S
C2181 C2185 1.385 . S
C2182 H2163 0.951 . S
C2182 C2180 1.388 . S
C2182 C2183 1.366 . S
C2183 C2182 1.366 . S
C2183 C2184 1.414 . S
C2183 C2186 1.499 . S
C2184 H2164 0.950 . S
C2184 C2183 1.414 . S
C2184 C2185 1.374 . S
C2185 H2165 0.950 . S
C2185 C2181 1.385 . S
C2185 C2184 1.374 . S
C2186 C2183 1.499 . S
C2186 C2187 1.373 . S
C2186 C2188 1.389 . S
C2187 H2166 0.950 . S
C2187 C2186 1.373 . S
C2187 C2203 1.377 . S
C2188 C2186 1.389 . S
C2188 C2189 1.524 . S
C2188 C2202 1.377 . S
C2189 C2188 1.524 . S
C2189 C2190 1.397 . S
C2189 C2194 1.363 . S
C2190 H2167 0.950 . S
C2190 C2189 1.397 . S
C2190 C2191 1.334 . S
C2191 H2168 0.950 . S
C2191 C2190 1.334 . S
C2191 C2192 1.287 . S
C2192 C2191 1.287 . S
C2192 C2193 1.524 . S
C2192 H2211 0.913 . S
C2193 H2169 0.950 . S
C2193 C2192 1.524 . S
C2193 C2194 1.415 . S
C2194 H2170 0.950 . S
C2194 C2189 1.363 . S
C2194 C2193 1.415 . S
C2195 H2171 0.951 . S
C2195 C2196 1.366 . S
C2195 C2197 1.388 . S
C2196 C2195 1.366 . S
C2196 C2200 1.385 . S
C2197 H2172 0.951 . S
C2197 C2195 1.388 . S
C2197 C2198 1.366 . S
C2198 C2197 1.366 . S
C2198 C2199 1.414 . S
C2198 C2201 1.499 . S
C2199 H2173 0.950 . S
C2199 C2198 1.414 . S
C2199 C2200 1.374 . S
C2200 H2174 0.950 . S
C2200 C2196 1.385 . S
C2200 C2199 1.374 . S
C2201 C2198 1.499 . S
C2201 C2202 1.373 . S
C2201 C2203 1.389 . S
C2202 H2175 0.950 . S
C2202 C2188 1.377 . S
C2202 C2201 1.373 . S
C2203 C2187 1.377 . S
C2203 C2201 1.389 . S
C2203 C2204 1.524 . S
C2204 C2203 1.524 . S
C2204 C2205 1.397 . S
C2204 C2209 1.363 . S
C2205 H2176 0.950 . S
C2205 C2204 1.397 . S
C2205 C2206 1.334 . S
C2206 H2177 0.950 . S
C2206 C2205 1.334 . S
C2206 C2207 1.287 . S
C2207 C2206 1.287 . S
C2207 C2208 1.524 . S
C2207 H2210 0.999 . S
C2208 H2178 0.950 . S
C2208 C2207 1.524 . S
C2208 C2209 1.415 . S
C2209 H2179 0.950 . S
C2209 C2204 1.363 . S
C2209 C2208 1.415 . S
H2210 C2207 0.999 . S
H2211 C2192 0.913 . S
H2212 C2230 0.951 . S
H2213 C2232 0.951 . S
H2214 C2234 0.950 . S
H2215 C2235 0.950 . S
H2216 C2237 0.950 . S
H2217 C2240 0.950 . S
H2218 C2241 0.950 . S
H2219 C2243 0.950 . S
H2220 C2244 0.950 . S
H2221 C2245 0.951 . S
H2222 C2247 0.951 . S
H2223 C2249 0.950 . S
H2224 C2250 0.950 . S
H2225 C2252 0.950 . S
H2226 C2255 0.950 . S
H2227 C2256 0.950 . S
H2228 C2258 0.950 . S
H2229 C2259 0.950 . S
C2230 H2212 0.951 . S
C2230 C2231 1.366 . S
C2230 C2232 1.388 . S
C2231 C2230 1.366 . S
C2231 C2235 1.385 . S
C2232 H2213 0.951 . S
C2232 C2230 1.388 . S
C2232 C2233 1.366 . S
C2233 C2232 1.366 . S
C2233 C2234 1.414 . S
C2233 C2236 1.499 . S
C2234 H2214 0.950 . S
C2234 C2233 1.414 . S
C2234 C2235 1.374 . S
C2235 H2215 0.950 . S
C2235 C2231 1.385 . S
C2235 C2234 1.374 . S
C2236 C2233 1.499 . S
C2236 C2237 1.373 . S
C2236 C2238 1.389 . S
C2237 H2216 0.950 . S
C2237 C2236 1.373 . S
C2237 C2253 1.377 . S
C2238 C2236 1.389 . S
C2238 C2239 1.524 . S
C2238 C2252 1.377 . S
C2239 C2238 1.524 . S
C2239 C2240 1.397 . S
C2239 C2244 1.363 . S
C2240 H2217 0.950 . S
C2240 C2239 1.397 . S
C2240 C2241 1.334 . S
C2241 H2218 0.950 . S
C2241 C2240 1.334 . S
C2241 C2242 1.287 . S
C2242 C2241 1.287 . S
C2242 C2243 1.524 . S
C2242 H2261 0.913 . S
C2243 H2219 0.950 . S
C2243 C2242 1.524 . S
C2243 C2244 1.415 . S
C2244 H2220 0.950 . S
C2244 C2239 1.363 . S
C2244 C2243 1.415 . S
C2245 H2221 0.951 . S
C2245 C2246 1.366 . S
C2245 C2247 1.388 . S
C2246 C2245 1.366 . S
C2246 C2250 1.385 . S
C2247 H2222 0.951 . S
C2247 C2245 1.388 . S
C2247 C2248 1.366 . S
C2248 C2247 1.366 . S
C2248 C2249 1.414 . S
C2248 C2251 1.499 . S
C2249 H2223 0.950 . S
C2249 C2248 1.414 . S
C2249 C2250 1.374 . S
C2250 H2224 0.950 . S
C2250 C2246 1.385 . S
C2250 C2249 1.374 . S
C2251 C2248 1.499 . S
C2251 C2252 1.373 . S
C2251 C2253 1.389 . S
C2252 H2225 0.950 . S
C2252 C2238 1.377 . S
C2252 C2251 1.373 . S
C2253 C2237 1.377 . S
C2253 C2251 1.389 . S
C2253 C2254 1.524 . S
C2254 C2253 1.524 . S
C2254 C2255 1.397 . S
C2254 C2259 1.363 . S
C2255 H2226 0.950 . S
C2255 C2254 1.397 . S
C2255 C2256 1.334 . S
C2256 H2227 0.950 . S
C2256 C2255 1.334 . S
C2256 C2257 1.287 . S
C2257 C2256 1.287 . S
C2257 C2258 1.524 . S
C2257 H2260 0.999 . S
C2258 H2228 0.950 . S
C2258 C2257 1.524 . S
C2258 C2259 1.415 . S
C2259 H2229 0.950 . S
C2259 C2254 1.363 . S
C2259 C2258 1.415 . S
H2260 C2257 0.999 . S
H2261 C2242 0.913 . S
H2262 C2280 0.951 . S
H2263 C2282 0.951 . S
H2264 C2284 0.950 . S
H2265 C2285 0.950 . S
H2266 C2287 0.950 . S
H2267 C2290 0.950 . S
H2268 C2291 0.950 . S
H2269 C2293 0.950 . S
H2270 C2294 0.950 . S
H2271 C2295 0.951 . S
H2272 C2297 0.951 . S
H2273 C2299 0.950 . S
H2274 C2300 0.950 . S
H2275 C2302 0.950 . S
H2276 C2305 0.950 . S
H2277 C2306 0.950 . S
H2278 C2308 0.950 . S
H2279 C2309 0.950 . S
C2280 H2262 0.951 . S
C2280 C2281 1.366 . S
C2280 C2282 1.388 . S
C2281 C2280 1.366 . S
C2281 C2285 1.385 . S
C2282 H2263 0.951 . S
C2282 C2280 1.388 . S
C2282 C2283 1.366 . S
C2283 C2282 1.366 . S
C2283 C2284 1.414 . S
C2283 C2286 1.499 . S
C2284 H2264 0.950 . S
C2284 C2283 1.414 . S
C2284 C2285 1.374 . S
C2285 H2265 0.950 . S
C2285 C2281 1.385 . S
C2285 C2284 1.374 . S
C2286 C2283 1.499 . S
C2286 C2287 1.373 . S
C2286 C2288 1.389 . S
C2287 H2266 0.950 . S
C2287 C2286 1.373 . S
C2287 C2303 1.377 . S
C2288 C2286 1.389 . S
C2288 C2289 1.524 . S
C2288 C2302 1.377 . S
C2289 C2288 1.524 . S
C2289 C2290 1.397 . S
C2289 C2294 1.363 . S
C2290 H2267 0.950 . S
C2290 C2289 1.397 . S
C2290 C2291 1.334 . S
C2291 H2268 0.950 . S
C2291 C2290 1.334 . S
C2291 C2292 1.287 . S
C2292 C2291 1.287 . S
C2292 C2293 1.524 . S
C2292 H2311 0.913 . S
C2293 H2269 0.950 . S
C2293 C2292 1.524 . S
C2293 C2294 1.415 . S
C2294 H2270 0.950 . S
C2294 C2289 1.363 . S
C2294 C2293 1.415 . S
C2295 H2271 0.951 . S
C2295 C2296 1.366 . S
C2295 C2297 1.388 . S
C2296 C2295 1.366 . S
C2296 C2300 1.385 . S
C2297 H2272 0.951 . S
C2297 C2295 1.388 . S
C2297 C2298 1.366 . S
C2298 C2297 1.366 . S
C2298 C2299 1.414 . S
C2298 C2301 1.499 . S
C2299 H2273 0.950 . S
C2299 C2298 1.414 . S
C2299 C2300 1.374 . S
C2300 H2274 0.950 . S
C2300 C2296 1.385 . S
C2300 C2299 1.374 . S
C2301 C2298 1.499 . S
C2301 C2302 1.373 . S
C2301 C2303 1.389 . S
C2302 H2275 0.950 . S
C2302 C2288 1.377 . S
C2302 C2301 1.373 . S
C2303 C2287 1.377 . S
C2303 C2301 1.389 . S
C2303 C2304 1.524 . S
C2304 C2303 1.524 . S
C2304 C2305 1.397 . S
C2304 C2309 1.363 . S
C2305 H2276 0.950 . S
C2305 C2304 1.397 . S
C2305 C2306 1.334 . S
C2306 H2277 0.950 . S
C2306 C2305 1.334 . S
C2306 C2307 1.287 . S
C2307 C2306 1.287 . S
C2307 C2308 1.524 . S
C2307 H2310 0.999 . S
C2308 H2278 0.950 . S
C2308 C2307 1.524 . S
C2308 C2309 1.415 . S
C2309 H2279 0.950 . S
C2309 C2304 1.363 . S
C2309 C2308 1.415 . S
H2310 C2307 0.999 . S
H2311 C2292 0.913 . S
H2312 C2330 0.951 . S
H2313 C2332 0.951 . S
H2314 C2334 0.950 . S
H2315 C2335 0.950 . S
H2316 C2337 0.950 . S
H2317 C2340 0.950 . S
H2318 C2341 0.950 . S
H2319 C2343 0.950 . S
H2320 C2344 0.950 . S
H2321 C2345 0.951 . S
H2322 C2347 0.951 . S
H2323 C2349 0.950 . S
H2324 C2350 0.950 . S
H2325 C2352 0.950 . S
H2326 C2355 0.950 . S
H2327 C2356 0.950 . S
H2328 C2358 0.950 . S
H2329 C2359 0.950 . S
C2330 H2312 0.951 . S
C2330 C2331 1.366 . S
C2330 C2332 1.388 . S
C2331 C2330 1.366 . S
C2331 C2335 1.385 . S
C2332 H2313 0.951 . S
C2332 C2330 1.388 . S
C2332 C2333 1.366 . S
C2333 C2332 1.366 . S
C2333 C2334 1.414 . S
C2333 C2336 1.499 . S
C2334 H2314 0.950 . S
C2334 C2333 1.414 . S
C2334 C2335 1.374 . S
C2335 H2315 0.950 . S
C2335 C2331 1.385 . S
C2335 C2334 1.374 . S
C2336 C2333 1.499 . S
C2336 C2337 1.373 . S
C2336 C2338 1.389 . S
C2337 H2316 0.950 . S
C2337 C2336 1.373 . S
C2337 C2353 1.377 . S
C2338 C2336 1.389 . S
C2338 C2339 1.524 . S
C2338 C2352 1.377 . S
C2339 C2338 1.524 . S
C2339 C2340 1.397 . S
C2339 C2344 1.363 . S
C2340 H2317 0.950 . S
C2340 C2339 1.397 . S
C2340 C2341 1.334 . S
C2341 H2318 0.950 . S
C2341 C2340 1.334 . S
C2341 C2342 1.287 . S
C2342 C2341 1.287 . S
C2342 C2343 1.524 . S
C2342 H2361 0.913 . S
C2343 H2319 0.950 . S
C2343 C2342 1.524 . S
C2343 C2344 1.415 . S
C2344 H2320 0.950 . S
C2344 C2339 1.363 . S
C2344 C2343 1.415 . S
C2345 H2321 0.951 . S
C2345 C2346 1.366 . S
C2345 C2347 1.388 . S
C2346 C2345 1.366 . S
C2346 C2350 1.385 . S
C2347 H2322 0.951 . S
C2347 C2345 1.388 . S
C2347 C2348 1.366 . S
C2348 C2347 1.366 . S
C2348 C2349 1.414 . S
C2348 C2351 1.499 . S
C2349 H2323 0.950 . S
C2349 C2348 1.414 . S
C2349 C2350 1.374 . S
C2350 H2324 0.950 . S
C2350 C2346 1.385 . S
C2350 C2349 1.374 . S
C2351 C2348 1.499 . S
C2351 C2352 1.373 . S
C2351 C2353 1.389 . S
C2352 H2325 0.950 . S
C2352 C2338 1.377 . S
C2352 C2351 1.373 . S
C2353 C2337 1.377 . S
C2353 C2351 1.389 . S
C2353 C2354 1.524 . S
C2354 C2353 1.524 . S
C2354 C2355 1.397 . S
C2354 C2359 1.363 . S
C2355 H2326 0.950 . S
C2355 C2354 1.397 . S
C2355 C2356 1.334 . S
C2356 H2327 0.950 . S
C2356 C2355 1.334 . S
C2356 C2357 1.287 . S
C2357 C2356 1.287 . S
C2357 C2358 1.524 . S
C2357 H2360 0.999 . S
C2358 H2328 0.950 . S
C2358 C2357 1.524 . S
C2358 C2359 1.415 . S
C2359 H2329 0.950 . S
C2359 C2354 1.363 . S
C2359 C2358 1.415 . S
H2360 C2357 0.999 . S
H2361 C2342 0.913 . S
H2362 C2380 0.951 . S
H2363 C2382 0.951 . S
H2364 C2384 0.950 . S
H2365 C2385 0.950 . S
H2366 C2387 0.950 . S
H2367 C2390 0.950 . S
H2368 C2391 0.950 . S
H2369 C2393 0.950 . S
H2370 C2394 0.950 . S
H2371 C2395 0.951 . S
H2372 C2397 0.951 . S
H2373 C2399 0.950 . S
H2374 C2400 0.950 . S
H2375 C2402 0.950 . S
H2376 C2405 0.950 . S
H2377 C2406 0.950 . S
H2378 C2408 0.950 . S
H2379 C2409 0.950 . S
C2380 H2362 0.951 . S
C2380 C2381 1.366 . S
C2380 C2382 1.388 . S
C2381 C2380 1.366 . S
C2381 C2385 1.385 . S
C2382 H2363 0.951 . S
C2382 C2380 1.388 . S
C2382 C2383 1.366 . S
C2383 C2382 1.366 . S
C2383 C2384 1.414 . S
C2383 C2386 1.499 . S
C2384 H2364 0.950 . S
C2384 C2383 1.414 . S
C2384 C2385 1.374 . S
C2385 H2365 0.950 . S
C2385 C2381 1.385 . S
C2385 C2384 1.374 . S
C2386 C2383 1.499 . S
C2386 C2387 1.373 . S
C2386 C2388 1.389 . S
C2387 H2366 0.950 . S
C2387 C2386 1.373 . S
C2387 C2403 1.377 . S
C2388 C2386 1.389 . S
C2388 C2389 1.524 . S
C2388 C2402 1.377 . S
C2389 C2388 1.524 . S
C2389 C2390 1.397 . S
C2389 C2394 1.363 . S
C2390 H2367 0.950 . S
C2390 C2389 1.397 . S
C2390 C2391 1.334 . S
C2391 H2368 0.950 . S
C2391 C2390 1.334 . S
C2391 C2392 1.287 . S
C2392 C2391 1.287 . S
C2392 C2393 1.524 . S
C2392 H2411 0.913 . S
C2393 H2369 0.950 . S
C2393 C2392 1.524 . S
C2393 C2394 1.415 . S
C2394 H2370 0.950 . S
C2394 C2389 1.363 . S
C2394 C2393 1.415 . S
C2395 H2371 0.951 . S
C2395 C2396 1.366 . S
C2395 C2397 1.388 . S
C2396 C2395 1.366 . S
C2396 C2400 1.385 . S
C2397 H2372 0.951 . S
C2397 C2395 1.388 . S
C2397 C2398 1.366 . S
C2398 C2397 1.366 . S
C2398 C2399 1.414 . S
C2398 C2401 1.499 . S
C2399 H2373 0.950 . S
C2399 C2398 1.414 . S
C2399 C2400 1.374 . S
C2400 H2374 0.950 . S
C2400 C2396 1.385 . S
C2400 C2399 1.374 . S
C2401 C2398 1.499 . S
C2401 C2402 1.373 . S
C2401 C2403 1.389 . S
C2402 H2375 0.950 . S
C2402 C2388 1.377 . S
C2402 C2401 1.373 . S
C2403 C2387 1.377 . S
C2403 C2401 1.389 . S
C2403 C2404 1.524 . S
C2404 C2403 1.524 . S
C2404 C2405 1.397 . S
C2404 C2409 1.363 . S
C2405 H2376 0.950 . S
C2405 C2404 1.397 . S
C2405 C2406 1.334 . S
C2406 H2377 0.950 . S
C2406 C2405 1.334 . S
C2406 C2407 1.287 . S
C2407 C2406 1.287 . S
C2407 C2408 1.524 . S
C2407 H2410 0.999 . S
C2408 H2378 0.950 . S
C2408 C2407 1.524 . S
C2408 C2409 1.415 . S
C2409 H2379 0.950 . S
C2409 C2404 1.363 . S
C2409 C2408 1.415 . S
H2410 C2407 0.999 . S
H2411 C2392 0.913 . S
H2412 C2430 0.951 . S
H2413 C2432 0.951 . S
H2414 C2434 0.950 . S
H2415 C2435 0.950 . S
H2416 C2437 0.950 . S
H2417 C2440 0.950 . S
H2418 C2441 0.950 . S
H2419 C2443 0.950 . S
H2420 C2444 0.950 . S
H2421 C2445 0.951 . S
H2422 C2447 0.951 . S
H2423 C2449 0.950 . S
H2424 C2450 0.950 . S
H2425 C2452 0.950 . S
H2426 C2455 0.950 . S
H2427 C2456 0.950 . S
H2428 C2458 0.950 . S
H2429 C2459 0.950 . S
C2430 H2412 0.951 . S
C2430 C2431 1.366 . S
C2430 C2432 1.388 . S
C2431 C2430 1.366 . S
C2431 C2435 1.385 . S
C2432 H2413 0.951 . S
C2432 C2430 1.388 . S
C2432 C2433 1.366 . S
C2433 C2432 1.366 . S
C2433 C2434 1.414 . S
C2433 C2436 1.499 . S
C2434 H2414 0.950 . S
C2434 C2433 1.414 . S
C2434 C2435 1.374 . S
C2435 H2415 0.950 . S
C2435 C2431 1.385 . S
C2435 C2434 1.374 . S
C2436 C2433 1.499 . S
C2436 C2437 1.373 . S
C2436 C2438 1.389 . S
C2437 H2416 0.950 . S
C2437 C2436 1.373 . S
C2437 C2453 1.377 . S
C2438 C2436 1.389 . S
C2438 C2439 1.524 . S
C2438 C2452 1.377 . S
C2439 C2438 1.524 . S
C2439 C2440 1.397 . S
C2439 C2444 1.363 . S
C2440 H2417 0.950 . S
C2440 C2439 1.397 . S
C2440 C2441 1.334 . S
C2441 H2418 0.950 . S
C2441 C2440 1.334 . S
C2441 C2442 1.287 . S
C2442 C2441 1.287 . S
C2442 C2443 1.524 . S
C2442 H2461 0.913 . S
C2443 H2419 0.950 . S
C2443 C2442 1.524 . S
C2443 C2444 1.415 . S
C2444 H2420 0.950 . S
C2444 C2439 1.363 . S
C2444 C2443 1.415 . S
C2445 H2421 0.951 . S
C2445 C2446 1.366 . S
C2445 C2447 1.388 . S
C2446 C2445 1.366 . S
C2446 C2450 1.385 . S
C2447 H2422 0.951 . S
C2447 C2445 1.388 . S
C2447 C2448 1.366 . S
C2448 C2447 1.366 . S
C2448 C2449 1.414 . S
C2448 C2451 1.499 . S
C2449 H2423 0.950 . S
C2449 C2448 1.414 . S
C2449 C2450 1.374 . S
C2450 H2424 0.950 . S
C2450 C2446 1.385 . S
C2450 C2449 1.374 . S
C2451 C2448 1.499 . S
C2451 C2452 1.373 . S
C2451 C2453 1.389 . S
C2452 H2425 0.950 . S
C2452 C2438 1.377 . S
C2452 C2451 1.373 . S
C2453 C2437 1.377 . S
C2453 C2451 1.389 . S
C2453 C2454 1.524 . S
C2454 C2453 1.524 . S
C2454 C2455 1.397 . S
C2454 C2459 1.363 . S
C2455 H2426 0.950 . S
C2455 C2454 1.397 . S
C2455 C2456 1.334 . S
C2456 H2427 0.950 . S
C2456 C2455 1.334 . S
C2456 C2457 1.287 . S
C2457 C2456 1.287 . S
C2457 C2458 1.524 . S
C2457 H2460 0.999 . S
C2458 H2428 0.950 . S
C2458 C2457 1.524 . S
C2458 C2459 1.415 . S
C2459 H2429 0.950 . S
C2459 C2454 1.363 . S
C2459 C2458 1.415 . S
H2460 C2457 0.999 . S
H2461 C2442 0.913 . S
H2462 C2480 0.951 . S
H2463 C2482 0.951 . S
H2464 C2484 0.950 . S
H2465 C2485 0.950 . S
H2466 C2487 0.950 . S
H2467 C2490 0.950 . S
H2468 C2491 0.950 . S
H2469 C2493 0.950 . S
H2470 C2494 0.950 . S
H2471 C2495 0.951 . S
H2472 C2497 0.951 . S
H2473 C2499 0.950 . S
H2474 C2500 0.950 . S
H2475 C2502 0.950 . S
H2476 C2505 0.950 . S
H2477 C2506 0.950 . S
H2478 C2508 0.950 . S
H2479 C2509 0.950 . S
C2480 H2462 0.951 . S
C2480 C2481 1.366 . S
C2480 C2482 1.388 . S
C2481 C2480 1.366 . S
C2481 C2485 1.385 . S
C2482 H2463 0.951 . S
C2482 C2480 1.388 . S
C2482 C2483 1.366 . S
C2483 C2482 1.366 . S
C2483 C2484 1.414 . S
C2483 C2486 1.499 . S
C2484 H2464 0.950 . S
C2484 C2483 1.414 . S
C2484 C2485 1.374 . S
C2485 H2465 0.950 . S
C2485 C2481 1.385 . S
C2485 C2484 1.374 . S
C2486 C2483 1.499 . S
C2486 C2487 1.373 . S
C2486 C2488 1.389 . S
C2487 H2466 0.950 . S
C2487 C2486 1.373 . S
C2487 C2503 1.377 . S
C2488 C2486 1.389 . S
C2488 C2489 1.524 . S
C2488 C2502 1.377 . S
C2489 C2488 1.524 . S
C2489 C2490 1.397 . S
C2489 C2494 1.363 . S
C2490 H2467 0.950 . S
C2490 C2489 1.397 . S
C2490 C2491 1.334 . S
C2491 H2468 0.950 . S
C2491 C2490 1.334 . S
C2491 C2492 1.287 . S
C2492 C2491 1.287 . S
C2492 C2493 1.524 . S
C2492 H2511 0.913 . S
C2493 H2469 0.950 . S
C2493 C2492 1.524 . S
C2493 C2494 1.415 . S
C2494 H2470 0.950 . S
C2494 C2489 1.363 . S
C2494 C2493 1.415 . S
C2495 H2471 0.951 . S
C2495 C2496 1.366 . S
C2495 C2497 1.388 . S
C2496 C2495 1.366 . S
C2496 C2500 1.385 . S
C2497 H2472 0.951 . S
C2497 C2495 1.388 . S
C2497 C2498 1.366 . S
C2498 C2497 1.366 . S
C2498 C2499 1.414 . S
C2498 C2501 1.499 . S
C2499 H2473 0.950 . S
C2499 C2498 1.414 . S
C2499 C2500 1.374 . S
C2500 H2474 0.950 . S
C2500 C2496 1.385 . S
C2500 C2499 1.374 . S
C2501 C2498 1.499 . S
C2501 C2502 1.373 . S
C2501 C2503 1.389 . S
C2502 H2475 0.950 . S
C2502 C2488 1.377 . S
C2502 C2501 1.373 . S
C2503 C2487 1.377 . S
C2503 C2501 1.389 . S
C2503 C2504 1.524 . S
C2504 C2503 1.524 . S
C2504 C2505 1.397 . S
C2504 C2509 1.363 . S
C2505 H2476 0.950 . S
C2505 C2504 1.397 . S
C2505 C2506 1.334 . S
C2506 H2477 0.950 . S
C2506 C2505 1.334 . S
C2506 C2507 1.287 . S
C2507 C2506 1.287 . S
C2507 C2508 1.524 . S
C2507 H2510 0.999 . S
C2508 H2478 0.950 . S
C2508 C2507 1.524 . S
C2508 C2509 1.415 . S
C2509 H2479 0.950 . S
C2509 C2504 1.363 . S
C2509 C2508 1.415 . S
H2510 C2507 0.999 . S
H2511 C2492 0.913 . S
H2512 C2530 0.951 . S
H2513 C2532 0.951 . S
H2514 C2534 0.950 . S
H2515 C2535 0.950 . S
H2516 C2537 0.950 . S
H2517 C2540 0.950 . S
H2518 C2541 0.950 . S
H2519 C2543 0.950 . S
H2520 C2544 0.950 . S
H2521 C2545 0.951 . S
H2522 C2547 0.951 . S
H2523 C2549 0.950 . S
H2524 C2550 0.950 . S
H2525 C2552 0.950 . S
H2526 C2555 0.950 . S
H2527 C2556 0.950 . S
H2528 C2558 0.950 . S
H2529 C2559 0.950 . S
C2530 H2512 0.951 . S
C2530 C2531 1.366 . S
C2530 C2532 1.388 . S
C2531 C2530 1.366 . S
C2531 C2535 1.385 . S
C2532 H2513 0.951 . S
C2532 C2530 1.388 . S
C2532 C2533 1.366 . S
C2533 C2532 1.366 . S
C2533 C2534 1.414 . S
C2533 C2536 1.499 . S
C2534 H2514 0.950 . S
C2534 C2533 1.414 . S
C2534 C2535 1.374 . S
C2535 H2515 0.950 . S
C2535 C2531 1.385 . S
C2535 C2534 1.374 . S
C2536 C2533 1.499 . S
C2536 C2537 1.373 . S
C2536 C2538 1.389 . S
C2537 H2516 0.950 . S
C2537 C2536 1.373 . S
C2537 C2553 1.377 . S
C2538 C2536 1.389 . S
C2538 C2539 1.524 . S
C2538 C2552 1.377 . S
C2539 C2538 1.524 . S
C2539 C2540 1.397 . S
C2539 C2544 1.363 . S
C2540 H2517 0.950 . S
C2540 C2539 1.397 . S
C2540 C2541 1.334 . S
C2541 H2518 0.950 . S
C2541 C2540 1.334 . S
C2541 C2542 1.287 . S
C2542 C2541 1.287 . S
C2542 C2543 1.524 . S
C2542 H2561 0.913 . S
C2543 H2519 0.950 . S
C2543 C2542 1.524 . S
C2543 C2544 1.415 . S
C2544 H2520 0.950 . S
C2544 C2539 1.363 . S
C2544 C2543 1.415 . S
C2545 H2521 0.951 . S
C2545 C2546 1.366 . S
C2545 C2547 1.388 . S
C2546 C2545 1.366 . S
C2546 C2550 1.385 . S
C2547 H2522 0.951 . S
C2547 C2545 1.388 . S
C2547 C2548 1.366 . S
C2548 C2547 1.366 . S
C2548 C2549 1.414 . S
C2548 C2551 1.499 . S
C2549 H2523 0.950 . S
C2549 C2548 1.414 . S
C2549 C2550 1.374 . S
C2550 H2524 0.950 . S
C2550 C2546 1.385 . S
C2550 C2549 1.374 . S
C2551 C2548 1.499 . S
C2551 C2552 1.373 . S
C2551 C2553 1.389 . S
C2552 H2525 0.950 . S
C2552 C2538 1.377 . S
C2552 C2551 1.373 . S
C2553 C2537 1.377 . S
C2553 C2551 1.389 . S
C2553 C2554 1.524 . S
C2554 C2553 1.524 . S
C2554 C2555 1.397 . S
C2554 C2559 1.363 . S
C2555 H2526 0.950 . S
C2555 C2554 1.397 . S
C2555 C2556 1.334 . S
C2556 H2527 0.950 . S
C2556 C2555 1.334 . S
C2556 C2557 1.287 . S
C2557 C2556 1.287 . S
C2557 C2558 1.524 . S
C2557 H2560 0.999 . S
C2558 H2528 0.950 . S
C2558 C2557 1.524 . S
C2558 C2559 1.415 . S
C2559 H2529 0.950 . S
C2559 C2554 1.363 . S
C2559 C2558 1.415 . S
H2560 C2557 0.999 . S
H2561 C2542 0.913 . S
H2562 C2580 0.951 . S
H2563 C2582 0.951 . S
H2564 C2584 0.950 . S
H2565 C2585 0.950 . S
H2566 C2587 0.950 . S
H2567 C2590 0.950 . S
H2568 C2591 0.950 . S
H2569 C2593 0.950 . S
H2570 C2594 0.950 . S
H2571 C2595 0.951 . S
H2572 C2597 0.951 . S
H2573 C2599 0.950 . S
H2574 C2600 0.950 . S
H2575 C2602 0.950 . S
H2576 C2605 0.950 . S
H2577 C2606 0.950 . S
H2578 C2608 0.950 . S
H2579 C2609 0.950 . S
C2580 H2562 0.951 . S
C2580 C2581 1.366 . S
C2580 C2582 1.388 . S
C2581 C2580 1.366 . S
C2581 C2585 1.385 . S
C2582 H2563 0.951 . S
C2582 C2580 1.388 . S
C2582 C2583 1.366 . S
C2583 C2582 1.366 . S
C2583 C2584 1.414 . S
C2583 C2586 1.499 . S
C2584 H2564 0.950 . S
C2584 C2583 1.414 . S
C2584 C2585 1.374 . S
C2585 H2565 0.950 . S
C2585 C2581 1.385 . S
C2585 C2584 1.374 . S
C2586 C2583 1.499 . S
C2586 C2587 1.373 . S
C2586 C2588 1.389 . S
C2587 H2566 0.950 . S
C2587 C2586 1.373 . S
C2587 C2603 1.377 . S
C2588 C2586 1.389 . S
C2588 C2589 1.524 . S
C2588 C2602 1.377 . S
C2589 C2588 1.524 . S
C2589 C2590 1.397 . S
C2589 C2594 1.363 . S
C2590 H2567 0.950 . S
C2590 C2589 1.397 . S
C2590 C2591 1.334 . S
C2591 H2568 0.950 . S
C2591 C2590 1.334 . S
C2591 C2592 1.287 . S
C2592 C2591 1.287 . S
C2592 C2593 1.524 . S
C2592 H2611 0.913 . S
C2593 H2569 0.950 . S
C2593 C2592 1.524 . S
C2593 C2594 1.415 . S
C2594 H2570 0.950 . S
C2594 C2589 1.363 . S
C2594 C2593 1.415 . S
C2595 H2571 0.951 . S
C2595 C2596 1.366 . S
C2595 C2597 1.388 . S
C2596 C2595 1.366 . S
C2596 C2600 1.385 . S
C2597 H2572 0.951 . S
C2597 C2595 1.388 . S
C2597 C2598 1.366 . S
C2598 C2597 1.366 . S
C2598 C2599 1.414 . S
C2598 C2601 1.499 . S
C2599 H2573 0.950 . S
C2599 C2598 1.414 . S
C2599 C2600 1.374 . S
C2600 H2574 0.950 . S
C2600 C2596 1.385 . S
C2600 C2599 1.374 . S
C2601 C2598 1.499 . S
C2601 C2602 1.373 . S
C2601 C2603 1.389 . S
C2602 H2575 0.950 . S
C2602 C2588 1.377 . S
C2602 C2601 1.373 . S
C2603 C2587 1.377 . S
C2603 C2601 1.389 . S
C2603 C2604 1.524 . S
C2604 C2603 1.524 . S
C2604 C2605 1.397 . S
C2604 C2609 1.363 . S
C2605 H2576 0.950 . S
C2605 C2604 1.397 . S
C2605 C2606 1.334 . S
C2606 H2577 0.950 . S
C2606 C2605 1.334 . S
C2606 C2607 1.287 . S
C2607 C2606 1.287 . S
C2607 C2608 1.524 . S
C2607 H2610 0.999 . S
C2608 H2578 0.950 . S
C2608 C2607 1.524 . S
C2608 C2609 1.415 . S
C2609 H2579 0.950 . S
C2609 C2604 1.363 . S
C2609 C2608 1.415 . S
H2610 C2607 0.999 . S
H2611 C2592 0.913 . S
H2612 C2630 0.951 . S
H2613 C2632 0.951 . S
H2614 C2634 0.950 . S
H2615 C2635 0.950 . S
H2616 C2637 0.950 . S
H2617 C2640 0.950 . S
H2618 C2641 0.950 . S
H2619 C2643 0.950 . S
H2620 C2644 0.950 . S
H2621 C2645 0.951 . S
H2622 C2647 0.951 . S
H2623 C2649 0.950 . S
H2624 C2650 0.950 . S
H2625 C2652 0.950 . S
H2626 C2655 0.950 . S
H2627 C2656 0.950 . S
H2628 C2658 0.950 . S
H2629 C2659 0.950 . S
C2630 H2612 0.951 . S
C2630 C2631 1.366 . S
C2630 C2632 1.388 . S
C2631 C2630 1.366 . S
C2631 C2635 1.385 . S
C2632 H2613 0.951 . S
C2632 C2630 1.388 . S
C2632 C2633 1.366 . S
C2633 C2632 1.366 . S
C2633 C2634 1.414 . S
C2633 C2636 1.499 . S
C2634 H2614 0.950 . S
C2634 C2633 1.414 . S
C2634 C2635 1.374 . S
C2635 H2615 0.950 . S
C2635 C2631 1.385 . S
C2635 C2634 1.374 . S
C2636 C2633 1.499 . S
C2636 C2637 1.373 . S
C2636 C2638 1.389 . S
C2637 H2616 0.950 . S
C2637 C2636 1.373 . S
C2637 C2653 1.377 . S
C2638 C2636 1.389 . S
C2638 C2639 1.524 . S
C2638 C2652 1.377 . S
C2639 C2638 1.524 . S
C2639 C2640 1.397 . S
C2639 C2644 1.363 . S
C2640 H2617 0.950 . S
C2640 C2639 1.397 . S
C2640 C2641 1.334 . S
C2641 H2618 0.950 . S
C2641 C2640 1.334 . S
C2641 C2642 1.287 . S
C2642 C2641 1.287 . S
C2642 C2643 1.524 . S
C2642 H2661 0.913 . S
C2643 H2619 0.950 . S
C2643 C2642 1.524 . S
C2643 C2644 1.415 . S
C2644 H2620 0.950 . S
C2644 C2639 1.363 . S
C2644 C2643 1.415 . S
C2645 H2621 0.951 . S
C2645 C2646 1.366 . S
C2645 C2647 1.388 . S
C2646 C2645 1.366 . S
C2646 C2650 1.385 . S
C2647 H2622 0.951 . S
C2647 C2645 1.388 . S
C2647 C2648 1.366 . S
C2648 C2647 1.366 . S
C2648 C2649 1.414 . S
C2648 C2651 1.499 . S
C2649 H2623 0.950 . S
C2649 C2648 1.414 . S
C2649 C2650 1.374 . S
C2650 H2624 0.950 . S
C2650 C2646 1.385 . S
C2650 C2649 1.374 . S
C2651 C2648 1.499 . S
C2651 C2652 1.373 . S
C2651 C2653 1.389 . S
C2652 H2625 0.950 . S
C2652 C2638 1.377 . S
C2652 C2651 1.373 . S
C2653 C2637 1.377 . S
C2653 C2651 1.389 . S
C2653 C2654 1.524 . S
C2654 C2653 1.524 . S
C2654 C2655 1.397 . S
C2654 C2659 1.363 . S
C2655 H2626 0.950 . S
C2655 C2654 1.397 . S
C2655 C2656 1.334 . S
C2656 H2627 0.950 . S
C2656 C2655 1.334 . S
C2656 C2657 1.287 . S
C2657 C2656 1.287 . S
C2657 C2658 1.524 . S
C2657 H2660 0.999 . S
C2658 H2628 0.950 . S
C2658 C2657 1.524 . S
C2658 C2659 1.415 . S
C2659 H2629 0.950 . S
C2659 C2654 1.363 . S
C2659 C2658 1.415 . S
H2660 C2657 0.999 . S
H2661 C2642 0.913 . S
H2662 C2680 0.951 . S
H2663 C2682 0.951 . S
H2664 C2684 0.950 . S
H2665 C2685 0.950 . S
H2666 C2687 0.950 . S
H2667 C2690 0.950 . S
H2668 C2691 0.950 . S
H2669 C2693 0.950 . S
H2670 C2694 0.950 . S
H2671 C2695 0.951 . S
H2672 C2697 0.951 . S
H2673 C2699 0.950 . S
H2674 C2700 0.950 . S
H2675 C2702 0.950 . S
H2676 C2705 0.950 . S
H2677 C2706 0.950 . S
H2678 C2708 0.950 . S
H2679 C2709 0.950 . S
C2680 H2662 0.951 . S
C2680 C2681 1.366 . S
C2680 C2682 1.388 . S
C2681 C2680 1.366 . S
C2681 C2685 1.385 . S
C2682 H2663 0.951 . S
C2682 C2680 1.388 . S
C2682 C2683 1.366 . S
C2683 C2682 1.366 . S
C2683 C2684 1.414 . S
C2683 C2686 1.499 . S
C2684 H2664 0.950 . S
C2684 C2683 1.414 . S
C2684 C2685 1.374 . S
C2685 H2665 0.950 . S
C2685 C2681 1.385 . S
C2685 C2684 1.374 . S
C2686 C2683 1.499 . S
C2686 C2687 1.373 . S
C2686 C2688 1.389 . S
C2687 H2666 0.950 . S
C2687 C2686 1.373 . S
C2687 C2703 1.377 . S
C2688 C2686 1.389 . S
C2688 C2689 1.524 . S
C2688 C2702 1.377 . S
C2689 C2688 1.524 . S
C2689 C2690 1.397 . S
C2689 C2694 1.363 . S
C2690 H2667 0.950 . S
C2690 C2689 1.397 . S
C2690 C2691 1.334 . S
C2691 H2668 0.950 . S
C2691 C2690 1.334 . S
C2691 C2692 1.287 . S
C2692 C2691 1.287 . S
C2692 C2693 1.524 . S
C2692 H2711 0.913 . S
C2693 H2669 0.950 . S
C2693 C2692 1.524 . S
C2693 C2694 1.415 . S
C2694 H2670 0.950 . S
C2694 C2689 1.363 . S
C2694 C2693 1.415 . S
C2695 H2671 0.951 . S
C2695 C2696 1.366 . S
C2695 C2697 1.388 . S
C2696 C2695 1.366 . S
C2696 C2700 1.385 . S
C2697 H2672 0.951 . S
C2697 C2695 1.388 . S
C2697 C2698 1.366 . S
C2698 C2697 1.366 . S
C2698 C2699 1.414 . S
C2698 C2701 1.499 . S
C2699 H2673 0.950 . S
C2699 C2698 1.414 . S
C2699 C2700 1.374 . S
C2700 H2674 0.950 . S
C2700 C2696 1.385 . S
C2700 C2699 1.374 . S
C2701 C2698 1.499 . S
C2701 C2702 1.373 . S
C2701 C2703 1.389 . S
C2702 H2675 0.950 . S
C2702 C2688 1.377 . S
C2702 C2701 1.373 . S
C2703 C2687 1.377 . S
C2703 C2701 1.389 . S
C2703 C2704 1.524 . S
C2704 C2703 1.524 . S
C2704 C2705 1.397 . S
C2704 C2709 1.363 . S
C2705 H2676 0.950 . S
C2705 C2704 1.397 . S
C2705 C2706 1.334 . S
C2706 H2677 0.950 . S
C2706 C2705 1.334 . S
C2706 C2707 1.287 . S
C2707 C2706 1.287 . S
C2707 C2708 1.524 . S
C2707 H2710 0.999 . S
C2708 H2678 0.950 . S
C2708 C2707 1.524 . S
C2708 C2709 1.415 . S
C2709 H2679 0.950 . S
C2709 C2704 1.363 . S
C2709 C2708 1.415 . S
H2710 C2707 0.999 . S
H2711 C2692 0.913 . S
H2712 C2730 0.951 . S
H2713 C2732 0.951 . S
H2714 C2734 0.950 . S
H2715 C2735 0.950 . S
H2716 C2737 0.950 . S
H2717 C2740 0.950 . S
H2718 C2741 0.950 . S
H2719 C2743 0.950 . S
H2720 C2744 0.950 . S
H2721 C2745 0.951 . S
H2722 C2747 0.951 . S
H2723 C2749 0.950 . S
H2724 C2750 0.950 . S
H2725 C2752 0.950 . S
H2726 C2755 0.950 . S
H2727 C2756 0.950 . S
H2728 C2758 0.950 . S
H2729 C2759 0.950 . S
C2730 H2712 0.951 . S
C2730 C2731 1.366 . S
C2730 C2732 1.388 . S
C2731 C2730 1.366 . S
C2731 C2735 1.385 . S
C2732 H2713 0.951 . S
C2732 C2730 1.388 . S
C2732 C2733 1.366 . S
C2733 C2732 1.366 . S
C2733 C2734 1.414 . S
C2733 C2736 1.499 . S
C2734 H2714 0.950 . S
C2734 C2733 1.414 . S
C2734 C2735 1.374 . S
C2735 H2715 0.950 . S
C2735 C2731 1.385 . S
C2735 C2734 1.374 . S
C2736 C2733 1.499 . S
C2736 C2737 1.373 . S
C2736 C2738 1.389 . S
C2737 H2716 0.950 . S
C2737 C2736 1.373 . S
C2737 C2753 1.377 . S
C2738 C2736 1.389 . S
C2738 C2739 1.524 . S
C2738 C2752 1.377 . S
C2739 C2738 1.524 . S
C2739 C2740 1.397 . S
C2739 C2744 1.363 . S
C2740 H2717 0.950 . S
C2740 C2739 1.397 . S
C2740 C2741 1.334 . S
C2741 H2718 0.950 . S
C2741 C2740 1.334 . S
C2741 C2742 1.287 . S
C2742 C2741 1.287 . S
C2742 C2743 1.524 . S
C2742 H2761 0.913 . S
C2743 H2719 0.950 . S
C2743 C2742 1.524 . S
C2743 C2744 1.415 . S
C2744 H2720 0.950 . S
C2744 C2739 1.363 . S
C2744 C2743 1.415 . S
C2745 H2721 0.951 . S
C2745 C2746 1.366 . S
C2745 C2747 1.388 . S
C2746 C2745 1.366 . S
C2746 C2750 1.385 . S
C2747 H2722 0.951 . S
C2747 C2745 1.388 . S
C2747 C2748 1.366 . S
C2748 C2747 1.366 . S
C2748 C2749 1.414 . S
C2748 C2751 1.499 . S
C2749 H2723 0.950 . S
C2749 C2748 1.414 . S
C2749 C2750 1.374 . S
C2750 H2724 0.950 . S
C2750 C2746 1.385 . S
C2750 C2749 1.374 . S
C2751 C2748 1.499 . S
C2751 C2752 1.373 . S
C2751 C2753 1.389 . S
C2752 H2725 0.950 . S
C2752 C2738 1.377 . S
C2752 C2751 1.373 . S
C2753 C2737 1.377 . S
C2753 C2751 1.389 . S
C2753 C2754 1.524 . S
C2754 C2753 1.524 . S
C2754 C2755 1.397 . S
C2754 C2759 1.363 . S
C2755 H2726 0.950 . S
C2755 C2754 1.397 . S
C2755 C2756 1.334 . S
C2756 H2727 0.950 . S
C2756 C2755 1.334 . S
C2756 C2757 1.287 . S
C2757 C2756 1.287 . S
C2757 C2758 1.524 . S
C2757 H2760 0.999 . S
C2758 H2728 0.950 . S
C2758 C2757 1.524 . S
C2758 C2759 1.415 . S
C2759 H2729 0.950 . S
C2759 C2754 1.363 . S
C2759 C2758 1.415 . S
H2760 C2757 0.999 . S
H2761 C2742 0.913 . S
H2762 C2780 0.951 . S
H2763 C2782 0.951 . S
H2764 C2784 0.950 . S
H2765 C2785 0.950 . S
H2766 C2787 0.950 . S
H2767 C2790 0.950 . S
H2768 C2791 0.950 . S
H2769 C2793 0.950 . S
H2770 C2794 0.950 . S
H2771 C2795 0.951 . S
H2772 C2797 0.951 . S
H2773 C2799 0.950 . S
H2774 C2800 0.950 . S
H2775 C2802 0.950 . S
H2776 C2805 0.950 . S
H2777 C2806 0.950 . S
H2778 C2808 0.950 . S
H2779 C2809 0.950 . S
C2780 H2762 0.951 . S
C2780 C2781 1.366 . S
C2780 C2782 1.388 . S
C2781 C2780 1.366 . S
C2781 C2785 1.385 . S
C2782 H2763 0.951 . S
C2782 C2780 1.388 . S
C2782 C2783 1.366 . S
C2783 C2782 1.366 . S
C2783 C2784 1.414 . S
C2783 C2786 1.499 . S
C2784 H2764 0.950 . S
C2784 C2783 1.414 . S
C2784 C2785 1.374 . S
C2785 H2765 0.950 . S
C2785 C2781 1.385 . S
C2785 C2784 1.374 . S
C2786 C2783 1.499 . S
C2786 C2787 1.373 . S
C2786 C2788 1.389 . S
C2787 H2766 0.950 . S
C2787 C2786 1.373 . S
C2787 C2803 1.377 . S
C2788 C2786 1.389 . S
C2788 C2789 1.524 . S
C2788 C2802 1.377 . S
C2789 C2788 1.524 . S
C2789 C2790 1.397 . S
C2789 C2794 1.363 . S
C2790 H2767 0.950 . S
C2790 C2789 1.397 . S
C2790 C2791 1.334 . S
C2791 H2768 0.950 . S
C2791 C2790 1.334 . S
C2791 C2792 1.287 . S
C2792 C2791 1.287 . S
C2792 C2793 1.524 . S
C2792 H2811 0.913 . S
C2793 H2769 0.950 . S
C2793 C2792 1.524 . S
C2793 C2794 1.415 . S
C2794 H2770 0.950 . S
C2794 C2789 1.363 . S
C2794 C2793 1.415 . S
C2795 H2771 0.951 . S
C2795 C2796 1.366 . S
C2795 C2797 1.388 . S
C2796 C2795 1.366 . S
C2796 C2800 1.385 . S
C2797 H2772 0.951 . S
C2797 C2795 1.388 . S
C2797 C2798 1.366 . S
C2798 C2797 1.366 . S
C2798 C2799 1.414 . S
C2798 C2801 1.499 . S
C2799 H2773 0.950 . S
C2799 C2798 1.414 . S
C2799 C2800 1.374 . S
C2800 H2774 0.950 . S
C2800 C2796 1.385 . S
C2800 C2799 1.374 . S
C2801 C2798 1.499 . S
C2801 C2802 1.373 . S
C2801 C2803 1.389 . S
C2802 H2775 0.950 . S
C2802 C2788 1.377 . S
C2802 C2801 1.373 . S
C2803 C2787 1.377 . S
C2803 C2801 1.389 . S
C2803 C2804 1.524 . S
C2804 C2803 1.524 . S
C2804 C2805 1.397 . S
C2804 C2809 1.363 . S
C2805 H2776 0.950 . S
C2805 C2804 1.397 . S
C2805 C2806 1.334 . S
C2806 H2777 0.950 . S
C2806 C2805 1.334 . S
C2806 C2807 1.287 . S
C2807 C2806 1.287 . S
C2807 C2808 1.524 . S
C2807 H2810 0.999 . S
C2808 H2778 0.950 . S
C2808 C2807 1.524 . S
C2808 C2809 1.415 . S
C2809 H2779 0.950 . S
C2809 C2804 1.363 . S
C2809 C2808 1.415 . S
H2810 C2807 0.999 . S
H2811 C2792 0.913 . S
H2812 C2830 0.951 . S
H2813 C2832 0.951 . S
H2814 C2834 0.950 . S
H2815 C2835 0.950 . S
H2816 C2837 0.950 . S
H2817 C2840 0.950 . S
H2818 C2841 0.950 . S
H2819 C2843 0.950 . S
H2820 C2844 0.950 . S
H2821 C2845 0.951 . S
H2822 C2847 0.951 . S
H2823 C2849 0.950 . S
H2824 C2850 0.950 . S
H2825 C2852 0.950 . S
H2826 C2855 0.950 . S
H2827 C2856 0.950 . S
H2828 C2858 0.950 . S
H2829 C2859 0.950 . S
C2830 H2812 0.951 . S
C2830 C2831 1.366 . S
C2830 C2832 1.388 . S
C2831 C2830 1.366 . S
C2831 C2835 1.385 . S
C2832 H2813 0.951 . S
C2832 C2830 1.388 . S
C2832 C2833 1.366 . S
C2833 C2832 1.366 . S
C2833 C2834 1.414 . S
C2833 C2836 1.499 . S
C2834 H2814 0.950 . S
C2834 C2833 1.414 . S
C2834 C2835 1.374 . S
C2835 H2815 0.950 . S
C2835 C2831 1.385 . S
C2835 C2834 1.374 . S
C2836 C2833 1.499 . S
C2836 C2837 1.373 . S
C2836 C2838 1.389 . S
C2837 H2816 0.950 . S
C2837 C2836 1.373 . S
C2837 C2853 1.377 . S
C2838 C2836 1.389 . S
C2838 C2839 1.524 . S
C2838 C2852 1.377 . S
C2839 C2838 1.524 . S
C2839 C2840 1.397 . S
C2839 C2844 1.363 . S
C2840 H2817 0.950 . S
C2840 C2839 1.397 . S
C2840 C2841 1.334 . S
C2841 H2818 0.950 . S
C2841 C2840 1.334 . S
C2841 C2842 1.287 . S
C2842 C2841 1.287 . S
C2842 C2843 1.524 . S
C2842 H2861 0.913 . S
C2843 H2819 0.950 . S
C2843 C2842 1.524 . S
C2843 C2844 1.415 . S
C2844 H2820 0.950 . S
C2844 C2839 1.363 . S
C2844 C2843 1.415 . S
C2845 H2821 0.951 . S
C2845 C2846 1.366 . S
C2845 C2847 1.388 . S
C2846 C2845 1.366 . S
C2846 C2850 1.385 . S
C2847 H2822 0.951 . S
C2847 C2845 1.388 . S
C2847 C2848 1.366 . S
C2848 C2847 1.366 . S
C2848 C2849 1.414 . S
C2848 C2851 1.499 . S
C2849 H2823 0.950 . S
C2849 C2848 1.414 . S
C2849 C2850 1.374 . S
C2850 H2824 0.950 . S
C2850 C2846 1.385 . S
C2850 C2849 1.374 . S
C2851 C2848 1.499 . S
C2851 C2852 1.373 . S
C2851 C2853 1.389 . S
C2852 H2825 0.950 . S
C2852 C2838 1.377 . S
C2852 C2851 1.373 . S
C2853 C2837 1.377 . S
C2853 C2851 1.389 . S
C2853 C2854 1.524 . S
C2854 C2853 1.524 . S
C2854 C2855 1.397 . S
C2854 C2859 1.363 . S
C2855 H2826 0.950 . S
C2855 C2854 1.397 . S
C2855 C2856 1.334 . S
C2856 H2827 0.950 . S
C2856 C2855 1.334 . S
C2856 C2857 1.287 . S
C2857 C2856 1.287 . S
C2857 C2858 1.524 . S
C2857 H2860 0.999 . S
C2858 H2828 0.950 . S
C2858 C2857 1.524 . S
C2858 C2859 1.415 . S
C2859 H2829 0.950 . S
C2859 C2854 1.363 . S
C2859 C2858 1.415 . S
H2860 C2857 0.999 . S
H2861 C2842 0.913 . S
H2862 C2880 0.951 . S
H2863 C2882 0.951 . S
H2864 C2884 0.950 . S
H2865 C2885 0.950 . S
H2866 C2887 0.950 . S
H2867 C2890 0.950 . S
H2868 C2891 0.950 . S
H2869 C2893 0.950 . S
H2870 C2894 0.950 . S
H2871 C2895 0.951 . S
H2872 C2897 0.951 . S
H2873 C2899 0.950 . S
H2874 C2900 0.950 . S
H2875 C2902 0.950 . S
H2876 C2905 0.950 . S
H2877 C2906 0.950 . S
H2878 C2908 0.950 . S
H2879 C2909 0.950 . S
C2880 H2862 0.951 . S
C2880 C2881 1.366 . S
C2880 C2882 1.388 . S
C2881 C2880 1.366 . S
C2881 C2885 1.385 . S
C2882 H2863 0.951 . S
C2882 C2880 1.388 . S
C2882 C2883 1.366 . S
C2883 C2882 1.366 . S
C2883 C2884 1.414 . S
C2883 C2886 1.499 . S
C2884 H2864 0.950 . S
C2884 C2883 1.414 . S
C2884 C2885 1.374 . S
C2885 H2865 0.950 . S
C2885 C2881 1.385 . S
C2885 C2884 1.374 . S
C2886 C2883 1.499 . S
C2886 C2887 1.373 . S
C2886 C2888 1.389 . S
C2887 H2866 0.950 . S
C2887 C2886 1.373 . S
C2887 C2903 1.377 . S
C2888 C2886 1.389 . S
C2888 C2889 1.524 . S
C2888 C2902 1.377 . S
C2889 C2888 1.524 . S
C2889 C2890 1.397 . S
C2889 C2894 1.363 . S
C2890 H2867 0.950 . S
C2890 C2889 1.397 . S
C2890 C2891 1.334 . S
C2891 H2868 0.950 . S
C2891 C2890 1.334 . S
C2891 C2892 1.287 . S
C2892 C2891 1.287 . S
C2892 C2893 1.524 . S
C2892 H2911 0.913 . S
C2893 H2869 0.950 . S
C2893 C2892 1.524 . S
C2893 C2894 1.415 . S
C2894 H2870 0.950 . S
C2894 C2889 1.363 . S
C2894 C2893 1.415 . S
C2895 H2871 0.951 . S
C2895 C2896 1.366 . S
C2895 C2897 1.388 . S
C2896 C2895 1.366 . S
C2896 C2900 1.385 . S
C2897 H2872 0.951 . S
C2897 C2895 1.388 . S
C2897 C2898 1.366 . S
C2898 C2897 1.366 . S
C2898 C2899 1.414 . S
C2898 C2901 1.499 . S
C2899 H2873 0.950 . S
C2899 C2898 1.414 . S
C2899 C2900 1.374 . S
C2900 H2874 0.950 . S
C2900 C2896 1.385 . S
C2900 C2899 1.374 . S
C2901 C2898 1.499 . S
C2901 C2902 1.373 . S
C2901 C2903 1.389 . S
C2902 H2875 0.950 . S
C2902 C2888 1.377 . S
C2902 C2901 1.373 . S
C2903 C2887 1.377 . S
C2903 C2901 1.389 . S
C2903 C2904 1.524 . S
C2904 C2903 1.524 . S
C2904 C2905 1.397 . S
C2904 C2909 1.363 . S
C2905 H2876 0.950 . S
C2905 C2904 1.397 . S
C2905 C2906 1.334 . S
C2906 H2877 0.950 . S
C2906 C2905 1.334 . S
C2906 C2907 1.287 . S
C2907 C2906 1.287 . S
C2907 C2908 1.524 . S
C2907 H2910 0.999 . S
C2908 H2878 0.950 . S
C2908 C2907 1.524 . S
C2908 C2909 1.415 . S
C2909 H2879 0.950 . S
C2909 C2904 1.363 . S
C2909 C2908 1.415 . S
H2910 C2907 0.999 . S
H2911 C2892 0.913 . S
H2912 C2930 0.951 . S
H2913 C2932 0.951 . S
H2914 C2934 0.950 . S
H2915 C2935 0.950 . S
H2916 C2937 0.950 . S
H2917 C2940 0.950 . S
H2918 C2941 0.950 . S
H2919 C2943 0.950 . S
H2920 C2944 0.950 . S
H2921 C2945 0.951 . S
H2922 C2947 0.951 . S
H2923 C2949 0.950 . S
H2924 C2950 0.950 . S
H2925 C2952 0.950 . S
H2926 C2955 0.950 . S
H2927 C2956 0.950 . S
H2928 C2958 0.950 . S
H2929 C2959 0.950 . S
C2930 H2912 0.951 . S
C2930 C2931 1.366 . S
C2930 C2932 1.388 . S
C2931 C2930 1.366 . S
C2931 C2935 1.385 . S
C2932 H2913 0.951 . S
C2932 C2930 1.388 . S
C2932 C2933 1.366 . S
C2933 C2932 1.366 . S
C2933 C2934 1.414 . S
C2933 C2936 1.499 . S
C2934 H2914 0.950 . S
C2934 C2933 1.414 . S
C2934 C2935 1.374 . S
C2935 H2915 0.950 . S
C2935 C2931 1.385 . S
C2935 C2934 1.374 . S
C2936 C2933 1.499 . S
C2936 C2937 1.373 . S
C2936 C2938 1.389 . S
C2937 H2916 0.950 . S
C2937 C2936 1.373 . S
C2937 C2953 1.377 . S
C2938 C2936 1.389 . S
C2938 C2939 1.524 . S
C2938 C2952 1.377 . S
C2939 C2938 1.524 . S
C2939 C2940 1.397 . S
C2939 C2944 1.363 . S
C2940 H2917 0.950 . S
C2940 C2939 1.397 . S
C2940 C2941 1.334 . S
C2941 H2918 0.950 . S
C2941 C2940 1.334 . S
C2941 C2942 1.287 . S
C2942 C2941 1.287 . S
C2942 C2943 1.524 . S
C2942 H2961 0.913 . S
C2943 H2919 0.950 . S
C2943 C2942 1.524 . S
C2943 C2944 1.415 . S
C2944 H2920 0.950 . S
C2944 C2939 1.363 . S
C2944 C2943 1.415 . S
C2945 H2921 0.951 . S
C2945 C2946 1.366 . S
C2945 C2947 1.388 . S
C2946 C2945 1.366 . S
C2946 C2950 1.385 . S
C2947 H2922 0.951 . S
C2947 C2945 1.388 . S
C2947 C2948 1.366 . S
C2948 C2947 1.366 . S
C2948 C2949 1.414 . S
C2948 C2951 1.499 . S
C2949 H2923 0.950 . S
C2949 C2948 1.414 . S
C2949 C2950 1.374 . S
C2950 H2924 0.950 . S
C2950 C2946 1.385 . S
C2950 C2949 1.374 . S
C2951 C2948 1.499 . S
C2951 C2952 1.373 . S
C2951 C2953 1.389 . S
C2952 H2925 0.950 . S
C2952 C2938 1.377 . S
C2952 C2951 1.373 . S
C2953 C2937 1.377 . S
C2953 C2951 1.389 . S
C2953 C2954 1.524 . S
C2954 C2953 1.524 . S
C2954 C2955 1.397 . S
C2954 C2959 1.363 . S
C2955 H2926 0.950 . S
C2955 C2954 1.397 . S
C2955 C2956 1.334 . S
C2956 H2927 0.950 . S
C2956 C2955 1.334 . S
C2956 C2957 1.287 . S
C2957 C2956 1.287 . S
C2957 C2958 1.524 . S
C2957 H2960 0.999 . S
C2958 H2928 0.950 . S
C2958 C2957 1.524 . S
C2958 C2959 1.415 . S
C2959 H2929 0.950 . S
C2959 C2954 1.363 . S
C2959 C2958 1.415 . S
H2960 C2957 0.999 . S
H2961 C2942 0.913 . S
H2962 C2980 0.951 . S
H2963 C2982 0.951 . S
H2964 C2984 0.950 . S
H2965 C2985 0.950 . S
H2966 C2987 0.950 . S
H2967 C2990 0.950 . S
H2968 C2991 0.950 . S
H2969 C2993 0.950 . S
H2970 C2994 0.950 . S
H2971 C2995 0.951 . S
H2972 C2997 0.951 . S
H2973 C2999 0.950 . S
H2974 C3000 0.950 . S
H2975 C3002 0.950 . S
H2976 C3005 0.950 . S
H2977 C3006 0.950 . S
H2978 C3008 0.950 . S
H2979 C3009 0.950 . S
C2980 H2962 0.951 . S
C2980 C2981 1.366 . S
C2980 C2982 1.388 . S
C2981 C2980 1.366 . S
C2981 C2985 1.385 . S
C2982 H2963 0.951 . S
C2982 C2980 1.388 . S
C2982 C2983 1.366 . S
C2983 C2982 1.366 . S
C2983 C2984 1.414 . S
C2983 C2986 1.499 . S
C2984 H2964 0.950 . S
C2984 C2983 1.414 . S
C2984 C2985 1.374 . S
C2985 H2965 0.950 . S
C2985 C2981 1.385 . S
C2985 C2984 1.374 . S
C2986 C2983 1.499 . S
C2986 C2987 1.373 . S
C2986 C2988 1.389 . S
C2987 H2966 0.950 . S
C2987 C2986 1.373 . S
C2987 C3003 1.377 . S
C2988 C2986 1.389 . S
C2988 C2989 1.524 . S
C2988 C3002 1.377 . S
C2989 C2988 1.524 . S
C2989 C2990 1.397 . S
C2989 C2994 1.363 . S
C2990 H2967 0.950 . S
C2990 C2989 1.397 . S
C2990 C2991 1.334 . S
C2991 H2968 0.950 . S
C2991 C2990 1.334 . S
C2991 C2992 1.287 . S
C2992 C2991 1.287 . S
C2992 C2993 1.524 . S
C2992 H3011 0.913 . S
C2993 H2969 0.950 . S
C2993 C2992 1.524 . S
C2993 C2994 1.415 . S
C2994 H2970 0.950 . S
C2994 C2989 1.363 . S
C2994 C2993 1.415 . S
C2995 H2971 0.951 . S
C2995 C2996 1.366 . S
C2995 C2997 1.388 . S
C2996 C2995 1.366 . S
C2996 C3000 1.385 . S
C2997 H2972 0.951 . S
C2997 C2995 1.388 . S
C2997 C2998 1.366 . S
C2998 C2997 1.366 . S
C2998 C2999 1.414 . S
C2998 C3001 1.499 . S
C2999 H2973 0.950 . S
C2999 C2998 1.414 . S
C2999 C3000 1.374 . S
C3000 H2974 0.950 . S
C3000 C2996 1.385 . S
C3000 C2999 1.374 . S
C3001 C2998 1.499 . S
C3001 C3002 1.373 . S
C3001 C3003 1.389 . S
C3002 H2975 0.950 . S
C3002 C2988 1.377 . S
C3002 C3001 1.373 . S
C3003 C2987 1.377 . S
C3003 C3001 1.389 . S
C3003 C3004 1.524 . S
C3004 C3003 1.524 . S
C3004 C3005 1.397 . S
C3004 C3009 1.363 . S
C3005 H2976 0.950 . S
C3005 C3004 1.397 . S
C3005 C3006 1.334 . S
C3006 H2977 0.950 . S
C3006 C3005 1.334 . S
C3006 C3007 1.287 . S
C3007 C3006 1.287 . S
C3007 C3008 1.524 . S
C3007 H3010 0.999 . S
C3008 H2978 0.950 . S
C3008 C3007 1.524 . S
C3008 C3009 1.415 . S
C3009 H2979 0.950 . S
C3009 C3004 1.363 . S
C3009 C3008 1.415 . S
H3010 C3007 0.999 . S
H3011 C2992 0.913 . S
H3012 C3030 0.951 . S
H3013 C3032 0.951 . S
H3014 C3034 0.950 . S
H3015 C3035 0.950 . S
H3016 C3037 0.950 . S
H3017 C3040 0.950 . S
H3018 C3041 0.950 . S
H3019 C3043 0.950 . S
H3020 C3044 0.950 . S
H3021 C3045 0.951 . S
H3022 C3047 0.951 . S
H3023 C3049 0.950 . S
H3024 C3050 0.950 . S
H3025 C3052 0.950 . S
H3026 C3055 0.950 . S
H3027 C3056 0.950 . S
H3028 C3058 0.950 . S
H3029 C3059 0.950 . S
C3030 H3012 0.951 . S
C3030 C3031 1.366 . S
C3030 C3032 1.388 . S
C3031 C3030 1.366 . S
C3031 C3035 1.385 . S
C3032 H3013 0.951 . S
C3032 C3030 1.388 . S
C3032 C3033 1.366 . S
C3033 C3032 1.366 . S
C3033 C3034 1.414 . S
C3033 C3036 1.499 . S
C3034 H3014 0.950 . S
C3034 C3033 1.414 . S
C3034 C3035 1.374 . S
C3035 H3015 0.950 . S
C3035 C3031 1.385 . S
C3035 C3034 1.374 . S
C3036 C3033 1.499 . S
C3036 C3037 1.373 . S
C3036 C3038 1.389 . S
C3037 H3016 0.950 . S
C3037 C3036 1.373 . S
C3037 C3053 1.377 . S
C3038 C3036 1.389 . S
C3038 C3039 1.524 . S
C3038 C3052 1.377 . S
C3039 C3038 1.524 . S
C3039 C3040 1.397 . S
C3039 C3044 1.363 . S
C3040 H3017 0.950 . S
C3040 C3039 1.397 . S
C3040 C3041 1.334 . S
C3041 H3018 0.950 . S
C3041 C3040 1.334 . S
C3041 C3042 1.287 . S
C3042 C3041 1.287 . S
C3042 C3043 1.524 . S
C3042 H3061 0.913 . S
C3043 H3019 0.950 . S
C3043 C3042 1.524 . S
C3043 C3044 1.415 . S
C3044 H3020 0.950 . S
C3044 C3039 1.363 . S
C3044 C3043 1.415 . S
C3045 H3021 0.951 . S
C3045 C3046 1.366 . S
C3045 C3047 1.388 . S
C3046 C3045 1.366 . S
C3046 C3050 1.385 . S
C3047 H3022 0.951 . S
C3047 C3045 1.388 . S
C3047 C3048 1.366 . S
C3048 C3047 1.366 . S
C3048 C3049 1.414 . S
C3048 C3051 1.499 . S
C3049 H3023 0.950 . S
C3049 C3048 1.414 . S
C3049 C3050 1.374 . S
C3050 H3024 0.950 . S
C3050 C3046 1.385 . S
C3050 C3049 1.374 . S
C3051 C3048 1.499 . S
C3051 C3052 1.373 . S
C3051 C3053 1.389 . S
C3052 H3025 0.950 . S
C3052 C3038 1.377 . S
C3052 C3051 1.373 . S
C3053 C3037 1.377 . S
C3053 C3051 1.389 . S
C3053 C3054 1.524 . S
C3054 C3053 1.524 . S
C3054 C3055 1.397 . S
C3054 C3059 1.363 . S
C3055 H3026 0.950 . S
C3055 C3054 1.397 . S
C3055 C3056 1.334 . S
C3056 H3027 0.950 . S
C3056 C3055 1.334 . S
C3056 C3057 1.287 . S
C3057 C3056 1.287 . S
C3057 C3058 1.524 . S
C3057 H3060 0.999 . S
C3058 H3028 0.950 . S
C3058 C3057 1.524 . S
C3058 C3059 1.415 . S
C3059 H3029 0.950 . S
C3059 C3054 1.363 . S
C3059 C3058 1.415 . S
H3060 C3057 0.999 . S
H3061 C3042 0.913 . S
H3062 C3080 0.951 . S
H3063 C3082 0.951 . S
H3064 C3084 0.950 . S
H3065 C3085 0.950 . S
H3066 C3087 0.950 . S
H3067 C3090 0.950 . S
H3068 C3091 0.950 . S
H3069 C3093 0.950 . S
H3070 C3094 0.950 . S
H3071 C3095 0.951 . S
H3072 C3097 0.951 . S
H3073 C3099 0.950 . S
H3074 C3100 0.950 . S
H3075 C3102 0.950 . S
H3076 C3105 0.950 . S
H3077 C3106 0.950 . S
H3078 C3108 0.950 . S
H3079 C3109 0.950 . S
C3080 H3062 0.951 . S
C3080 C3081 1.366 . S
C3080 C3082 1.388 . S
C3081 C3080 1.366 . S
C3081 C3085 1.385 . S
C3082 H3063 0.951 . S
C3082 C3080 1.388 . S
C3082 C3083 1.366 . S
C3083 C3082 1.366 . S
C3083 C3084 1.414 . S
C3083 C3086 1.499 . S
C3084 H3064 0.950 . S
C3084 C3083 1.414 . S
C3084 C3085 1.374 . S
C3085 H3065 0.950 . S
C3085 C3081 1.385 . S
C3085 C3084 1.374 . S
C3086 C3083 1.499 . S
C3086 C3087 1.373 . S
C3086 C3088 1.389 . S
C3087 H3066 0.950 . S
C3087 C3086 1.373 . S
C3087 C3103 1.377 . S
C3088 C3086 1.389 . S
C3088 C3089 1.524 . S
C3088 C3102 1.377 . S
C3089 C3088 1.524 . S
C3089 C3090 1.397 . S
C3089 C3094 1.363 . S
C3090 H3067 0.950 . S
C3090 C3089 1.397 . S
C3090 C3091 1.334 . S
C3091 H3068 0.950 . S
C3091 C3090 1.334 . S
C3091 C3092 1.287 . S
C3092 C3091 1.287 . S
C3092 C3093 1.524 . S
C3092 H3111 0.913 . S
C3093 H3069 0.950 . S
C3093 C3092 1.524 . S
C3093 C3094 1.415 . S
C3094 H3070 0.950 . S
C3094 C3089 1.363 . S
C3094 C3093 1.415 . S
C3095 H3071 0.951 . S
C3095 C3096 1.366 . S
C3095 C3097 1.388 . S
C3096 C3095 1.366 . S
C3096 C3100 1.385 . S
C3097 H3072 0.951 . S
C3097 C3095 1.388 . S
C3097 C3098 1.366 . S
C3098 C3097 1.366 . S
C3098 C3099 1.414 . S
C3098 C3101 1.499 . S
C3099 H3073 0.950 . S
C3099 C3098 1.414 . S
C3099 C3100 1.374 . S
C3100 H3074 0.950 . S
C3100 C3096 1.385 . S
C3100 C3099 1.374 . S
C3101 C3098 1.499 . S
C3101 C3102 1.373 . S
C3101 C3103 1.389 . S
C3102 H3075 0.950 . S
C3102 C3088 1.377 . S
C3102 C3101 1.373 . S
C3103 C3087 1.377 . S
C3103 C3101 1.389 . S
C3103 C3104 1.524 . S
C3104 C3103 1.524 . S
C3104 C3105 1.397 . S
C3104 C3109 1.363 . S
C3105 H3076 0.950 . S
C3105 C3104 1.397 . S
C3105 C3106 1.334 . S
C3106 H3077 0.950 . S
C3106 C3105 1.334 . S
C3106 C3107 1.287 . S
C3107 C3106 1.287 . S
C3107 C3108 1.524 . S
C3107 H3110 0.999 . S
C3108 H3078 0.950 . S
C3108 C3107 1.524 . S
C3108 C3109 1.415 . S
C3109 H3079 0.950 . S
C3109 C3104 1.363 . S
C3109 C3108 1.415 . S
H3110 C3107 0.999 . S
H3111 C3092 0.913 . S
H3112 C3130 0.951 . S
H3113 C3132 0.951 . S
H3114 C3134 0.950 . S
H3115 C3135 0.950 . S
H3116 C3137 0.950 . S
H3117 C3140 0.950 . S
H3118 C3141 0.950 . S
H3119 C3143 0.950 . S
H3120 C3144 0.950 . S
H3121 C3145 0.951 . S
H3122 C3147 0.951 . S
H3123 C3149 0.950 . S
H3124 C3150 0.950 . S
H3125 C3152 0.950 . S
H3126 C3155 0.950 . S
H3127 C3156 0.950 . S
H3128 C3158 0.950 . S
H3129 C3159 0.950 . S
C3130 H3112 0.951 . S
C3130 C3131 1.366 . S
C3130 C3132 1.388 . S
C3131 C3130 1.366 . S
C3131 C3135 1.385 . S
C3132 H3113 0.951 . S
C3132 C3130 1.388 . S
C3132 C3133 1.366 . S
C3133 C3132 1.366 . S
C3133 C3134 1.414 . S
C3133 C3136 1.499 . S
C3134 H3114 0.950 . S
C3134 C3133 1.414 . S
C3134 C3135 1.374 . S
C3135 H3115 0.950 . S
C3135 C3131 1.385 . S
C3135 C3134 1.374 . S
C3136 C3133 1.499 . S
C3136 C3137 1.373 . S
C3136 C3138 1.389 . S
C3137 H3116 0.950 . S
C3137 C3136 1.373 . S
C3137 C3153 1.377 . S
C3138 C3136 1.389 . S
C3138 C3139 1.524 . S
C3138 C3152 1.377 . S
C3139 C3138 1.524 . S
C3139 C3140 1.397 . S
C3139 C3144 1.363 . S
C3140 H3117 0.950 . S
C3140 C3139 1.397 . S
C3140 C3141 1.334 . S
C3141 H3118 0.950 . S
C3141 C3140 1.334 . S
C3141 C3142 1.287 . S
C3142 C3141 1.287 . S
C3142 C3143 1.524 . S
C3142 H3161 0.913 . S
C3143 H3119 0.950 . S
C3143 C3142 1.524 . S
C3143 C3144 1.415 . S
C3144 H3120 0.950 . S
C3144 C3139 1.363 . S
C3144 C3143 1.415 . S
C3145 H3121 0.951 . S
C3145 C3146 1.366 . S
C3145 C3147 1.388 . S
C3146 C3145 1.366 . S
C3146 C3150 1.385 . S
C3147 H3122 0.951 . S
C3147 C3145 1.388 . S
C3147 C3148 1.366 . S
C3148 C3147 1.366 . S
C3148 C3149 1.414 . S
C3148 C3151 1.499 . S
C3149 H3123 0.950 . S
C3149 C3148 1.414 . S
C3149 C3150 1.374 . S
C3150 H3124 0.950 . S
C3150 C3146 1.385 . S
C3150 C3149 1.374 . S
C3151 C3148 1.499 . S
C3151 C3152 1.373 . S
C3151 C3153 1.389 . S
C3152 H3125 0.950 . S
C3152 C3138 1.377 . S
C3152 C3151 1.373 . S
C3153 C3137 1.377 . S
C3153 C3151 1.389 . S
C3153 C3154 1.524 . S
C3154 C3153 1.524 . S
C3154 C3155 1.397 . S
C3154 C3159 1.363 . S
C3155 H3126 0.950 . S
C3155 C3154 1.397 . S
C3155 C3156 1.334 . S
C3156 H3127 0.950 . S
C3156 C3155 1.334 . S
C3156 C3157 1.287 . S
C3157 C3156 1.287 . S
C3157 C3158 1.524 . S
C3157 H3160 0.999 . S
C3158 H3128 0.950 . S
C3158 C3157 1.524 . S
C3158 C3159 1.415 . S
C3159 H3129 0.950 . S
C3159 C3154 1.363 . S
C3159 C3158 1.415 . S
H3160 C3157 0.999 . S
H3161 C3142 0.913 . S
H3162 C3180 0.951 . S
H3163 C3182 0.951 . S
H3164 C3184 0.950 . S
H3165 C3185 0.950 . S
H3166 C3187 0.950 . S
H3167 C3190 0.950 . S
H3168 C3191 0.950 . S
H3169 C3193 0.950 . S
H3170 C3194 0.950 . S
H3171 C3195 0.951 . S
H3172 C3197 0.951 . S
H3173 C3199 0.950 . S
H3174 C3200 0.950 . S
H3175 C3202 0.950 . S
H3176 C3205 0.950 . S
H3177 C3206 0.950 . S
H3178 C3208 0.950 . S
H3179 C3209 0.950 . S
C3180 H3162 0.951 . S
C3180 C3181 1.366 . S
C3180 C3182 1.388 . S
C3181 C3180 1.366 . S
C3181 C3185 1.385 . S
C3182 H3163 0.951 . S
C3182 C3180 1.388 . S
C3182 C3183 1.366 . S
C3183 C3182 1.366 . S
C3183 C3184 1.414 . S
C3183 C3186 1.499 . S
C3184 H3164 0.950 . S
C3184 C3183 1.414 . S
C3184 C3185 1.374 . S
C3185 H3165 0.950 . S
C3185 C3181 1.385 . S
C3185 C3184 1.374 . S
C3186 C3183 1.499 . S
C3186 C3187 1.373 . S
C3186 C3188 1.389 . S
C3187 H3166 0.950 . S
C3187 C3186 1.373 . S
C3187 C3203 1.377 . S
C3188 C3186 1.389 . S
C3188 C3189 1.524 . S
C3188 C3202 1.377 . S
C3189 C3188 1.524 . S
C3189 C3190 1.397 . S
C3189 C3194 1.363 . S
C3190 H3167 0.950 . S
C3190 C3189 1.397 . S
C3190 C3191 1.334 . S
C3191 H3168 0.950 . S
C3191 C3190 1.334 . S
C3191 C3192 1.287 . S
C3192 C3191 1.287 . S
C3192 C3193 1.524 . S
C3192 H3211 0.913 . S
C3193 H3169 0.950 . S
C3193 C3192 1.524 . S
C3193 C3194 1.415 . S
C3194 H3170 0.950 . S
C3194 C3189 1.363 . S
C3194 C3193 1.415 . S
C3195 H3171 0.951 . S
C3195 C3196 1.366 . S
C3195 C3197 1.388 . S
C3196 C3195 1.366 . S
C3196 C3200 1.385 . S
C3197 H3172 0.951 . S
C3197 C3195 1.388 . S
C3197 C3198 1.366 . S
C3198 C3197 1.366 . S
C3198 C3199 1.414 . S
C3198 C3201 1.499 . S
C3199 H3173 0.950 . S
C3199 C3198 1.414 . S
C3199 C3200 1.374 . S
C3200 H3174 0.950 . S
C3200 C3196 1.385 . S
C3200 C3199 1.374 . S
C3201 C3198 1.499 . S
C3201 C3202 1.373 . S
C3201 C3203 1.389 . S
C3202 H3175 0.950 . S
C3202 C3188 1.377 . S
C3202 C3201 1.373 . S
C3203 C3187 1.377 . S
C3203 C3201 1.389 . S
C3203 C3204 1.524 . S
C3204 C3203 1.524 . S
C3204 C3205 1.397 . S
C3204 C3209 1.363 . S
C3205 H3176 0.950 . S
C3205 C3204 1.397 . S
C3205 C3206 1.334 . S
C3206 H3177 0.950 . S
C3206 C3205 1.334 . S
C3206 C3207 1.287 . S
C3207 C3206 1.287 . S
C3207 C3208 1.524 . S
C3207 H3210 0.999 . S
C3208 H3178 0.950 . S
C3208 C3207 1.524 . S
C3208 C3209 1.415 . S
C3209 H3179 0.950 . S
C3209 C3204 1.363 . S
C3209 C3208 1.415 . S
H3210 C3207 0.999 . S
H3211 C3192 0.913 . S
H3212 C3230 0.951 . S
H3213 C3232 0.951 . S
H3214 C3234 0.950 . S
H3215 C3235 0.950 . S
H3216 C3237 0.950 . S
H3217 C3240 0.950 . S
H3218 C3241 0.950 . S
H3219 C3243 0.950 . S
H3220 C3244 0.950 . S
H3221 C3245 0.951 . S
H3222 C3247 0.951 . S
H3223 C3249 0.950 . S
H3224 C3250 0.950 . S
H3225 C3252 0.950 . S
H3226 C3255 0.950 . S
H3227 C3256 0.950 . S
H3228 C3258 0.950 . S
H3229 C3259 0.950 . S
C3230 H3212 0.951 . S
C3230 C3231 1.366 . S
C3230 C3232 1.388 . S
C3231 C3230 1.366 . S
C3231 C3235 1.385 . S
C3232 H3213 0.951 . S
C3232 C3230 1.388 . S
C3232 C3233 1.366 . S
C3233 C3232 1.366 . S
C3233 C3234 1.414 . S
C3233 C3236 1.499 . S
C3234 H3214 0.950 . S
C3234 C3233 1.414 . S
C3234 C3235 1.374 . S
C3235 H3215 0.950 . S
C3235 C3231 1.385 . S
C3235 C3234 1.374 . S
C3236 C3233 1.499 . S
C3236 C3237 1.373 . S
C3236 C3238 1.389 . S
C3237 H3216 0.950 . S
C3237 C3236 1.373 . S
C3237 C3253 1.377 . S
C3238 C3236 1.389 . S
C3238 C3239 1.524 . S
C3238 C3252 1.377 . S
C3239 C3238 1.524 . S
C3239 C3240 1.397 . S
C3239 C3244 1.363 . S
C3240 H3217 0.950 . S
C3240 C3239 1.397 . S
C3240 C3241 1.334 . S
C3241 H3218 0.950 . S
C3241 C3240 1.334 . S
C3241 C3242 1.287 . S
C3242 C3241 1.287 . S
C3242 C3243 1.524 . S
C3242 H3261 0.913 . S
C3243 H3219 0.950 . S
C3243 C3242 1.524 . S
C3243 C3244 1.415 . S
C3244 H3220 0.950 . S
C3244 C3239 1.363 . S
C3244 C3243 1.415 . S
C3245 H3221 0.951 . S
C3245 C3246 1.366 . S
C3245 C3247 1.388 . S
C3246 C3245 1.366 . S
C3246 C3250 1.385 . S
C3247 H3222 0.951 . S
C3247 C3245 1.388 . S
C3247 C3248 1.366 . S
C3248 C3247 1.366 . S
C3248 C3249 1.414 . S
C3248 C3251 1.499 . S
C3249 H3223 0.950 . S
C3249 C3248 1.414 . S
C3249 C3250 1.374 . S
C3250 H3224 0.950 . S
C3250 C3246 1.385 . S
C3250 C3249 1.374 . S
C3251 C3248 1.499 . S
C3251 C3252 1.373 . S
C3251 C3253 1.389 . S
C3252 H3225 0.950 . S
C3252 C3238 1.377 . S
C3252 C3251 1.373 . S
C3253 C3237 1.377 . S
C3253 C3251 1.389 . S
C3253 C3254 1.524 . S
C3254 C3253 1.524 . S
C3254 C3255 1.397 . S
C3254 C3259 1.363 . S
C3255 H3226 0.950 . S
C3255 C3254 1.397 . S
C3255 C3256 1.334 . S
C3256 H3227 0.950 . S
C3256 C3255 1.334 . S
C3256 C3257 1.287 . S
C3257 C3256 1.287 . S
C3257 C3258 1.524 . S
C3257 H3260 0.999 . S
C3258 H3228 0.950 . S
C3258 C3257 1.524 . S
C3258 C3259 1.415 . S
C3259 H3229 0.950 . S
C3259 C3254 1.363 . S
C3259 C3258 1.415 . S
H3260 C3257 0.999 . S
H3261 C3242 0.913 . S
H3262 C3280 0.951 . S
H3263 C3282 0.951 . S
H3264 C3284 0.950 . S
H3265 C3285 0.950 . S
H3266 C3287 0.950 . S
H3267 C3290 0.950 . S
H3268 C3291 0.950 . S
H3269 C3293 0.950 . S
H3270 C3294 0.950 . S
H3271 C3295 0.951 . S
H3272 C3297 0.951 . S
H3273 C3299 0.950 . S
H3274 C3300 0.950 . S
H3275 C3302 0.950 . S
H3276 C3305 0.950 . S
H3277 C3306 0.950 . S
H3278 C3308 0.950 . S
H3279 C3309 0.950 . S
C3280 H3262 0.951 . S
C3280 C3281 1.366 . S
C3280 C3282 1.388 . S
C3281 C3280 1.366 . S
C3281 C3285 1.385 . S
C3282 H3263 0.951 . S
C3282 C3280 1.388 . S
C3282 C3283 1.366 . S
C3283 C3282 1.366 . S
C3283 C3284 1.414 . S
C3283 C3286 1.499 . S
C3284 H3264 0.950 . S
C3284 C3283 1.414 . S
C3284 C3285 1.374 . S
C3285 H3265 0.950 . S
C3285 C3281 1.385 . S
C3285 C3284 1.374 . S
C3286 C3283 1.499 . S
C3286 C3287 1.373 . S
C3286 C3288 1.389 . S
C3287 H3266 0.950 . S
C3287 C3286 1.373 . S
C3287 C3303 1.377 . S
C3288 C3286 1.389 . S
C3288 C3289 1.524 . S
C3288 C3302 1.377 . S
C3289 C3288 1.524 . S
C3289 C3290 1.397 . S
C3289 C3294 1.363 . S
C3290 H3267 0.950 . S
C3290 C3289 1.397 . S
C3290 C3291 1.334 . S
C3291 H3268 0.950 . S
C3291 C3290 1.334 . S
C3291 C3292 1.287 . S
C3292 C3291 1.287 . S
C3292 C3293 1.524 . S
C3292 H3311 0.913 . S
C3293 H3269 0.950 . S
C3293 C3292 1.524 . S
C3293 C3294 1.415 . S
C3294 H3270 0.950 . S
C3294 C3289 1.363 . S
C3294 C3293 1.415 . S
C3295 H3271 0.951 . S
C3295 C3296 1.366 . S
C3295 C3297 1.388 . S
C3296 C3295 1.366 . S
C3296 C3300 1.385 . S
C3297 H3272 0.951 . S
C3297 C3295 1.388 . S
C3297 C3298 1.366 . S
C3298 C3297 1.366 . S
C3298 C3299 1.414 . S
C3298 C3301 1.499 . S
C3299 H3273 0.950 . S
C3299 C3298 1.414 . S
C3299 C3300 1.374 . S
C3300 H3274 0.950 . S
C3300 C3296 1.385 . S
C3300 C3299 1.374 . S
C3301 C3298 1.499 . S
C3301 C3302 1.373 . S
C3301 C3303 1.389 . S
C3302 H3275 0.950 . S
C3302 C3288 1.377 . S
C3302 C3301 1.373 . S
C3303 C3287 1.377 . S
C3303 C3301 1.389 . S
C3303 C3304 1.524 . S
C3304 C3303 1.524 . S
C3304 C3305 1.397 . S
C3304 C3309 1.363 . S
C3305 H3276 0.950 . S
C3305 C3304 1.397 . S
C3305 C3306 1.334 . S
C3306 H3277 0.950 . S
C3306 C3305 1.334 . S
C3306 C3307 1.287 . S
C3307 C3306 1.287 . S
C3307 C3308 1.524 . S
C3307 H3310 0.999 . S
C3308 H3278 0.950 . S
C3308 C3307 1.524 . S
C3308 C3309 1.415 . S
C3309 H3279 0.950 . S
C3309 C3304 1.363 . S
C3309 C3308 1.415 . S
H3310 C3307 0.999 . S
H3311 C3292 0.913 . S
H3312 C3330 0.951 . S
H3313 C3332 0.951 . S
H3314 C3334 0.950 . S
H3315 C3335 0.950 . S
H3316 C3337 0.950 . S
H3317 C3340 0.950 . S
H3318 C3341 0.950 . S
H3319 C3343 0.950 . S
H3320 C3344 0.950 . S
H3321 C3345 0.951 . S
H3322 C3347 0.951 . S
H3323 C3349 0.950 . S
H3324 C3350 0.950 . S
H3325 C3352 0.950 . S
H3326 C3355 0.950 . S
H3327 C3356 0.950 . S
H3328 C3358 0.950 . S
H3329 C3359 0.950 . S
C3330 H3312 0.951 . S
C3330 C3331 1.366 . S
C3330 C3332 1.388 . S
C3331 C3330 1.366 . S
C3331 C3335 1.385 . S
C3332 H3313 0.951 . S
C3332 C3330 1.388 . S
C3332 C3333 1.366 . S
C3333 C3332 1.366 . S
C3333 C3334 1.414 . S
C3333 C3336 1.499 . S
C3334 H3314 0.950 . S
C3334 C3333 1.414 . S
C3334 C3335 1.374 . S
C3335 H3315 0.950 . S
C3335 C3331 1.385 . S
C3335 C3334 1.374 . S
C3336 C3333 1.499 . S
C3336 C3337 1.373 . S
C3336 C3338 1.389 . S
C3337 H3316 0.950 . S
C3337 C3336 1.373 . S
C3337 C3353 1.377 . S
C3338 C3336 1.389 . S
C3338 C3339 1.524 . S
C3338 C3352 1.377 . S
C3339 C3338 1.524 . S
C3339 C3340 1.397 . S
C3339 C3344 1.363 . S
C3340 H3317 0.950 . S
C3340 C3339 1.397 . S
C3340 C3341 1.334 . S
C3341 H3318 0.950 . S
C3341 C3340 1.334 . S
C3341 C3342 1.287 . S
C3342 C3341 1.287 . S
C3342 C3343 1.524 . S
C3342 H3361 0.913 . S
C3343 H3319 0.950 . S
C3343 C3342 1.524 . S
C3343 C3344 1.415 . S
C3344 H3320 0.950 . S
C3344 C3339 1.363 . S
C3344 C3343 1.415 . S
C3345 H3321 0.951 . S
C3345 C3346 1.366 . S
C3345 C3347 1.388 . S
C3346 C3345 1.366 . S
C3346 C3350 1.385 . S
C3347 H3322 0.951 . S
C3347 C3345 1.388 . S
C3347 C3348 1.366 . S
C3348 C3347 1.366 . S
C3348 C3349 1.414 . S
C3348 C3351 1.499 . S
C3349 H3323 0.950 . S
C3349 C3348 1.414 . S
C3349 C3350 1.374 . S
C3350 H3324 0.950 . S
C3350 C3346 1.385 . S
C3350 C3349 1.374 . S
C3351 C3348 1.499 . S
C3351 C3352 1.373 . S
C3351 C3353 1.389 . S
C3352 H3325 0.950 . S
C3352 C3338 1.377 . S
C3352 C3351 1.373 . S
C3353 C3337 1.377 . S
C3353 C3351 1.389 . S
C3353 C3354 1.524 . S
C3354 C3353 1.524 . S
C3354 C3355 1.397 . S
C3354 C3359 1.363 . S
C3355 H3326 0.950 . S
C3355 C3354 1.397 . S
C3355 C3356 1.334 . S
C3356 H3327 0.950 . S
C3356 C3355 1.334 . S
C3356 C3357 1.287 . S
C3357 C3356 1.287 . S
C3357 C3358 1.524 . S
C3357 H3360 0.999 . S
C3358 H3328 0.950 . S
C3358 C3357 1.524 . S
C3358 C3359 1.415 . S
C3359 H3329 0.950 . S
C3359 C3354 1.363 . S
C3359 C3358 1.415 . S
H3360 C3357 0.999 . S
H3361 C3342 0.913 . S
H3362 C3380 0.951 . S
H3363 C3382 0.951 . S
H3364 C3384 0.950 . S
H3365 C3385 0.950 . S
H3366 C3387 0.950 . S
H3367 C3390 0.950 . S
H3368 C3391 0.950 . S
H3369 C3393 0.950 . S
H3370 C3394 0.950 . S
H3371 C3395 0.951 . S
H3372 C3397 0.951 . S
H3373 C3399 0.950 . S
H3374 C3400 0.950 . S
H3375 C3402 0.950 . S
H3376 C3405 0.950 . S
H3377 C3406 0.950 . S
H3378 C3408 0.950 . S
H3379 C3409 0.950 . S
C3380 H3362 0.951 . S
C3380 C3381 1.366 . S
C3380 C3382 1.388 . S
C3381 C3380 1.366 . S
C3381 C3385 1.385 . S
C3382 H3363 0.951 . S
C3382 C3380 1.388 . S
C3382 C3383 1.366 . S
C3383 C3382 1.366 . S
C3383 C3384 1.414 . S
C3383 C3386 1.499 . S
C3384 H3364 0.950 . S
C3384 C3383 1.414 . S
C3384 C3385 1.374 . S
C3385 H3365 0.950 . S
C3385 C3381 1.385 . S
C3385 C3384 1.374 . S
C3386 C3383 1.499 . S
C3386 C3387 1.373 . S
C3386 C3388 1.389 . S
C3387 H3366 0.950 . S
C3387 C3386 1.373 . S
C3387 C3403 1.377 . S
C3388 C3386 1.389 . S
C3388 C3389 1.524 . S
C3388 C3402 1.377 . S
C3389 C3388 1.524 . S
C3389 C3390 1.397 . S
C3389 C3394 1.363 . S
C3390 H3367 0.950 . S
C3390 C3389 1.397 . S
C3390 C3391 1.334 . S
C3391 H3368 0.950 . S
C3391 C3390 1.334 . S
C3391 C3392 1.287 . S
C3392 C3391 1.287 . S
C3392 C3393 1.524 . S
C3392 H3411 0.913 . S
C3393 H3369 0.950 . S
C3393 C3392 1.524 . S
C3393 C3394 1.415 . S
C3394 H3370 0.950 . S
C3394 C3389 1.363 . S
C3394 C3393 1.415 . S
C3395 H3371 0.951 . S
C3395 C3396 1.366 . S
C3395 C3397 1.388 . S
C3396 C3395 1.366 . S
C3396 C3400 1.385 . S
C3397 H3372 0.951 . S
C3397 C3395 1.388 . S
C3397 C3398 1.366 . S
C3398 C3397 1.366 . S
C3398 C3399 1.414 . S
C3398 C3401 1.499 . S
C3399 H3373 0.950 . S
C3399 C3398 1.414 . S
C3399 C3400 1.374 . S
C3400 H3374 0.950 . S
C3400 C3396 1.385 . S
C3400 C3399 1.374 . S
C3401 C3398 1.499 . S
C3401 C3402 1.373 . S
C3401 C3403 1.389 . S
C3402 H3375 0.950 . S
C3402 C3388 1.377 . S
C3402 C3401 1.373 . S
C3403 C3387 1.377 . S
C3403 C3401 1.389 . S
C3403 C3404 1.524 . S
C3404 C3403 1.524 . S
C3404 C3405 1.397 . S
C3404 C3409 1.363 . S
C3405 H3376 0.950 . S
C3405 C3404 1.397 . S
C3405 C3406 1.334 . S
C3406 H3377 0.950 . S
C3406 C3405 1.334 . S
C3406 C3407 1.287 . S
C3407 C3406 1.287 . S
C3407 C3408 1.524 . S
C3407 H3410 0.999 . S
C3408 H3378 0.950 . S
C3408 C3407 1.524 . S
C3408 C3409 1.415 . S
C3409 H3379 0.950 . S
C3409 C3404 1.363 . S
C3409 C3408 1.415 . S
H3410 C3407 0.999 . S
H3411 C3392 0.913 . S
H3412 C3430 0.951 . S
H3413 C3432 0.951 . S
H3414 C3434 0.950 . S
H3415 C3435 0.950 . S
H3416 C3437 0.950 . S
H3417 C3440 0.950 . S
H3418 C3441 0.950 . S
H3419 C3443 0.950 . S
H3420 C3444 0.950 . S
H3421 C3445 0.951 . S
H3422 C3447 0.951 . S
H3423 C3449 0.950 . S
H3424 C3450 0.950 . S
H3425 C3452 0.950 . S
H3426 C3455 0.950 . S
H3427 C3456 0.950 . S
H3428 C3458 0.950 . S
H3429 C3459 0.950 . S
C3430 H3412 0.951 . S
C3430 C3431 1.366 . S
C3430 C3432 1.388 . S
C3431 C3430 1.366 . S
C3431 C3435 1.385 . S
C3432 H3413 0.951 . S
C3432 C3430 1.388 . S
C3432 C3433 1.366 . S
C3433 C3432 1.366 . S
C3433 C3434 1.414 . S
C3433 C3436 1.499 . S
C3434 H3414 0.950 . S
C3434 C3433 1.414 . S
C3434 C3435 1.374 . S
C3435 H3415 0.950 . S
C3435 C3431 1.385 . S
C3435 C3434 1.374 . S
C3436 C3433 1.499 . S
C3436 C3437 1.373 . S
C3436 C3438 1.389 . S
C3437 H3416 0.950 . S
C3437 C3436 1.373 . S
C3437 C3453 1.377 . S
C3438 C3436 1.389 . S
C3438 C3439 1.524 . S
C3438 C3452 1.377 . S
C3439 C3438 1.524 . S
C3439 C3440 1.397 . S
C3439 C3444 1.363 . S
C3440 H3417 0.950 . S
C3440 C3439 1.397 . S
C3440 C3441 1.334 . S
C3441 H3418 0.950 . S
C3441 C3440 1.334 . S
C3441 C3442 1.287 . S
C3442 C3441 1.287 . S
C3442 C3443 1.524 . S
C3442 H3461 0.913 . S
C3443 H3419 0.950 . S
C3443 C3442 1.524 . S
C3443 C3444 1.415 . S
C3444 H3420 0.950 . S
C3444 C3439 1.363 . S
C3444 C3443 1.415 . S
C3445 H3421 0.951 . S
C3445 C3446 1.366 . S
C3445 C3447 1.388 . S
C3446 C3445 1.366 . S
C3446 C3450 1.385 . S
C3447 H3422 0.951 . S
C3447 C3445 1.388 . S
C3447 C3448 1.366 . S
C3448 C3447 1.366 . S
C3448 C3449 1.414 . S
C3448 C3451 1.499 . S
C3449 H3423 0.950 . S
C3449 C3448 1.414 . S
C3449 C3450 1.374 . S
C3450 H3424 0.950 . S
C3450 C3446 1.385 . S
C3450 C3449 1.374 . S
C3451 C3448 1.499 . S
C3451 C3452 1.373 . S
C3451 C3453 1.389 . S
C3452 H3425 0.950 . S
C3452 C3438 1.377 . S
C3452 C3451 1.373 . S
C3453 C3437 1.377 . S
C3453 C3451 1.389 . S
C3453 C3454 1.524 . S
C3454 C3453 1.524 . S
C3454 C3455 1.397 . S
C3454 C3459 1.363 . S
C3455 H3426 0.950 . S
C3455 C3454 1.397 . S
C3455 C3456 1.334 . S
C3456 H3427 0.950 . S
C3456 C3455 1.334 . S
C3456 C3457 1.287 . S
C3457 C3456 1.287 . S
C3457 C3458 1.524 . S
C3457 H3460 0.999 . S
C3458 H3428 0.950 . S
C3458 C3457 1.524 . S
C3458 C3459 1.415 . S
C3459 H3429 0.950 . S
C3459 C3454 1.363 . S
C3459 C3458 1.415 . S
H3460 C3457 0.999 . S
H3461 C3442 0.913 . S
H3462 C3480 0.951 . S
H3463 C3482 0.951 . S
H3464 C3484 0.950 . S
H3465 C3485 0.950 . S
H3466 C3487 0.950 . S
H3467 C3490 0.950 . S
H3468 C3491 0.950 . S
H3469 C3493 0.950 . S
H3470 C3494 0.950 . S
H3471 C3495 0.951 . S
H3472 C3497 0.951 . S
H3473 C3499 0.950 . S
H3474 C3500 0.950 . S
H3475 C3502 0.950 . S
H3476 C3505 0.950 . S
H3477 C3506 0.950 . S
H3478 C3508 0.950 . S
H3479 C3509 0.950 . S
C3480 H3462 0.951 . S
C3480 C3481 1.366 . S
C3480 C3482 1.388 . S
C3481 C3480 1.366 . S
C3481 C3485 1.385 . S
C3482 H3463 0.951 . S
C3482 C3480 1.388 . S
C3482 C3483 1.366 . S
C3483 C3482 1.366 . S
C3483 C3484 1.414 . S
C3483 C3486 1.499 . S
C3484 H3464 0.950 . S
C3484 C3483 1.414 . S
C3484 C3485 1.374 . S
C3485 H3465 0.950 . S
C3485 C3481 1.385 . S
C3485 C3484 1.374 . S
C3486 C3483 1.499 . S
C3486 C3487 1.373 . S
C3486 C3488 1.389 . S
C3487 H3466 0.950 . S
C3487 C3486 1.373 . S
C3487 C3503 1.377 . S
C3488 C3486 1.389 . S
C3488 C3489 1.524 . S
C3488 C3502 1.377 . S
C3489 C3488 1.524 . S
C3489 C3490 1.397 . S
C3489 C3494 1.363 . S
C3490 H3467 0.950 . S
C3490 C3489 1.397 . S
C3490 C3491 1.334 . S
C3491 H3468 0.950 . S
C3491 C3490 1.334 . S
C3491 C3492 1.287 . S
C3492 C3491 1.287 . S
C3492 C3493 1.524 . S
C3492 H3511 0.913 . S
C3493 H3469 0.950 . S
C3493 C3492 1.524 . S
C3493 C3494 1.415 . S
C3494 H3470 0.950 . S
C3494 C3489 1.363 . S
C3494 C3493 1.415 . S
C3495 H3471 0.951 . S
C3495 C3496 1.366 . S
C3495 C3497 1.388 . S
C3496 C3495 1.366 . S
C3496 C3500 1.385 . S
C3497 H3472 0.951 . S
C3497 C3495 1.388 . S
C3497 C3498 1.366 . S
C3498 C3497 1.366 . S
C3498 C3499 1.414 . S
C3498 C3501 1.499 . S
C3499 H3473 0.950 . S
C3499 C3498 1.414 . S
C3499 C3500 1.374 . S
C3500 H3474 0.950 . S
C3500 C3496 1.385 . S
C3500 C3499 1.374 . S
C3501 C3498 1.499 . S
C3501 C3502 1.373 . S
C3501 C3503 1.389 . S
C3502 H3475 0.950 . S
C3502 C3488 1.377 . S
C3502 C3501 1.373 . S
C3503 C3487 1.377 . S
C3503 C3501 1.389 . S
C3503 C3504 1.524 . S
C3504 C3503 1.524 . S
C3504 C3505 1.397 . S
C3504 C3509 1.363 . S
C3505 H3476 0.950 . S
C3505 C3504 1.397 . S
C3505 C3506 1.334 . S
C3506 H3477 0.950 . S
C3506 C3505 1.334 . S
C3506 C3507 1.287 . S
C3507 C3506 1.287 . S
C3507 C3508 1.524 . S
C3507 H3510 0.999 . S
C3508 H3478 0.950 . S
C3508 C3507 1.524 . S
C3508 C3509 1.415 . S
C3509 H3479 0.950 . S
C3509 C3504 1.363 . S
C3509 C3508 1.415 . S
H3510 C3507 0.999 . S
H3511 C3492 0.913 . S
H3512 C3530 0.951 . S
H3513 C3532 0.951 . S
H3514 C3534 0.950 . S
H3515 C3535 0.950 . S
H3516 C3537 0.950 . S
H3517 C3540 0.950 . S
H3518 C3541 0.950 . S
H3519 C3543 0.950 . S
H3520 C3544 0.950 . S
H3521 C3545 0.951 . S
H3522 C3547 0.951 . S
H3523 C3549 0.950 . S
H3524 C3550 0.950 . S
H3525 C3552 0.950 . S
H3526 C3555 0.950 . S
H3527 C3556 0.950 . S
H3528 C3558 0.950 . S
H3529 C3559 0.950 . S
C3530 H3512 0.951 . S
C3530 C3531 1.366 . S
C3530 C3532 1.388 . S
C3531 C3530 1.366 . S
C3531 C3535 1.385 . S
C3532 H3513 0.951 . S
C3532 C3530 1.388 . S
C3532 C3533 1.366 . S
C3533 C3532 1.366 . S
C3533 C3534 1.414 . S
C3533 C3536 1.499 . S
C3534 H3514 0.950 . S
C3534 C3533 1.414 . S
C3534 C3535 1.374 . S
C3535 H3515 0.950 . S
C3535 C3531 1.385 . S
C3535 C3534 1.374 . S
C3536 C3533 1.499 . S
C3536 C3537 1.373 . S
C3536 C3538 1.389 . S
C3537 H3516 0.950 . S
C3537 C3536 1.373 . S
C3537 C3553 1.377 . S
C3538 C3536 1.389 . S
C3538 C3539 1.524 . S
C3538 C3552 1.377 . S
C3539 C3538 1.524 . S
C3539 C3540 1.397 . S
C3539 C3544 1.363 . S
C3540 H3517 0.950 . S
C3540 C3539 1.397 . S
C3540 C3541 1.334 . S
C3541 H3518 0.950 . S
C3541 C3540 1.334 . S
C3541 C3542 1.287 . S
C3542 C3541 1.287 . S
C3542 C3543 1.524 . S
C3542 H3561 0.913 . S
C3543 H3519 0.950 . S
C3543 C3542 1.524 . S
C3543 C3544 1.415 . S
C3544 H3520 0.950 . S
C3544 C3539 1.363 . S
C3544 C3543 1.415 . S
C3545 H3521 0.951 . S
C3545 C3546 1.366 . S
C3545 C3547 1.388 . S
C3546 C3545 1.366 . S
C3546 C3550 1.385 . S
C3547 H3522 0.951 . S
C3547 C3545 1.388 . S
C3547 C3548 1.366 . S
C3548 C3547 1.366 . S
C3548 C3549 1.414 . S
C3548 C3551 1.499 . S
C3549 H3523 0.950 . S
C3549 C3548 1.414 . S
C3549 C3550 1.374 . S
C3550 H3524 0.950 . S
C3550 C3546 1.385 . S
C3550 C3549 1.374 . S
C3551 C3548 1.499 . S
C3551 C3552 1.373 . S
C3551 C3553 1.389 . S
C3552 H3525 0.950 . S
C3552 C3538 1.377 . S
C3552 C3551 1.373 . S
C3553 C3537 1.377 . S
C3553 C3551 1.389 . S
C3553 C3554 1.524 . S
C3554 C3553 1.524 . S
C3554 C3555 1.397 . S
C3554 C3559 1.363 . S
C3555 H3526 0.950 . S
C3555 C3554 1.397 . S
C3555 C3556 1.334 . S
C3556 H3527 0.950 . S
C3556 C3555 1.334 . S
C3556 C3557 1.287 . S
C3557 C3556 1.287 . S
C3557 C3558 1.524 . S
C3557 H3560 0.999 . S
C3558 H3528 0.950 . S
C3558 C3557 1.524 . S
C3558 C3559 1.415 . S
C3559 H3529 0.950 . S
C3559 C3554 1.363 . S
C3559 C3558 1.415 . S
H3560 C3557 0.999 . S
H3561 C3542 0.913 . S
H3562 C3580 0.951 . S
H3563 C3582 0.951 . S
H3564 C3584 0.950 . S
H3565 C3585 0.950 . S
H3566 C3587 0.950 . S
H3567 C3590 0.950 . S
H3568 C3591 0.950 . S
H3569 C3593 0.950 . S
H3570 C3594 0.950 . S
H3571 C3595 0.951 . S
H3572 C3597 0.951 . S
H3573 C3599 0.950 . S
H3574 C3600 0.950 . S
H3575 C3602 0.950 . S
H3576 C3605 0.950 . S
H3577 C3606 0.950 . S
H3578 C3608 0.950 . S
H3579 C3609 0.950 . S
C3580 H3562 0.951 . S
C3580 C3581 1.366 . S
C3580 C3582 1.388 . S
C3581 C3580 1.366 . S
C3581 C3585 1.385 . S
C3582 H3563 0.951 . S
C3582 C3580 1.388 . S
C3582 C3583 1.366 . S
C3583 C3582 1.366 . S
C3583 C3584 1.414 . S
C3583 C3586 1.499 . S
C3584 H3564 0.950 . S
C3584 C3583 1.414 . S
C3584 C3585 1.374 . S
C3585 H3565 0.950 . S
C3585 C3581 1.385 . S
C3585 C3584 1.374 . S
C3586 C3583 1.499 . S
C3586 C3587 1.373 . S
C3586 C3588 1.389 . S
C3587 H3566 0.950 . S
C3587 C3586 1.373 . S
C3587 C3603 1.377 . S
C3588 C3586 1.389 . S
C3588 C3589 1.524 . S
C3588 C3602 1.377 . S
C3589 C3588 1.524 . S
C3589 C3590 1.397 . S
C3589 C3594 1.363 . S
C3590 H3567 0.950 . S
C3590 C3589 1.397 . S
C3590 C3591 1.334 . S
C3591 H3568 0.950 . S
C3591 C3590 1.334 . S
C3591 C3592 1.287 . S
C3592 C3591 1.287 . S
C3592 C3593 1.524 . S
C3592 H3611 0.913 . S
C3593 H3569 0.950 . S
C3593 C3592 1.524 . S
C3593 C3594 1.415 . S
C3594 H3570 0.950 . S
C3594 C3589 1.363 . S
C3594 C3593 1.415 . S
C3595 H3571 0.951 . S
C3595 C3596 1.366 . S
C3595 C3597 1.388 . S
C3596 C3595 1.366 . S
C3596 C3600 1.385 . S
C3597 H3572 0.951 . S
C3597 C3595 1.388 . S
C3597 C3598 1.366 . S
C3598 C3597 1.366 . S
C3598 C3599 1.414 . S
C3598 C3601 1.499 . S
C3599 H3573 0.950 . S
C3599 C3598 1.414 . S
C3599 C3600 1.374 . S
C3600 H3574 0.950 . S
C3600 C3596 1.385 . S
C3600 C3599 1.374 . S
C3601 C3598 1.499 . S
C3601 C3602 1.373 . S
C3601 C3603 1.389 . S
C3602 H3575 0.950 . S
C3602 C3588 1.377 . S
C3602 C3601 1.373 . S
C3603 C3587 1.377 . S
C3603 C3601 1.389 . S
C3603 C3604 1.524 . S
C3604 C3603 1.524 . S
C3604 C3605 1.397 . S
C3604 C3609 1.363 . S
C3605 H3576 0.950 . S
C3605 C3604 1.397 . S
C3605 C3606 1.334 . S
C3606 H3577 0.950 . S
C3606 C3605 1.334 . S
C3606 C3607 1.287 . S
C3607 C3606 1.287 . S
C3607 C3608 1.524 . S
C3607 H3610 0.999 . S
C3608 H3578 0.950 . S
C3608 C3607 1.524 . S
C3608 C3609 1.415 . S
C3609 H3579 0.950 . S
C3609 C3604 1.363 . S
C3609 C3608 1.415 . S
H3610 C3607 0.999 . S
H3611 C3592 0.913 . S
H3612 C3630 0.951 . S
H3613 C3632 0.951 . S
H3614 C3634 0.950 . S
H3615 C3635 0.950 . S
H3616 C3637 0.950 . S
H3617 C3640 0.950 . S
H3618 C3641 0.950 . S
H3619 C3643 0.950 . S
H3620 C3644 0.950 . S
H3621 C3645 0.951 . S
H3622 C3647 0.951 . S
H3623 C3649 0.950 . S
H3624 C3650 0.950 . S
H3625 C3652 0.950 . S
H3626 C3655 0.950 . S
H3627 C3656 0.950 . S
H3628 C3658 0.950 . S
H3629 C3659 0.950 . S
C3630 H3612 0.951 . S
C3630 C3631 1.366 . S
C3630 C3632 1.388 . S
C3631 C3630 1.366 . S
C3631 C3635 1.385 . S
C3632 H3613 0.951 . S
C3632 C3630 1.388 . S
C3632 C3633 1.366 . S
C3633 C3632 1.366 . S
C3633 C3634 1.414 . S
C3633 C3636 1.499 . S
C3634 H3614 0.950 . S
C3634 C3633 1.414 . S
C3634 C3635 1.374 . S
C3635 H3615 0.950 . S
C3635 C3631 1.385 . S
C3635 C3634 1.374 . S
C3636 C3633 1.499 . S
C3636 C3637 1.373 . S
C3636 C3638 1.389 . S
C3637 H3616 0.950 . S
C3637 C3636 1.373 . S
C3637 C3653 1.377 . S
C3638 C3636 1.389 . S
C3638 C3639 1.524 . S
C3638 C3652 1.377 . S
C3639 C3638 1.524 . S
C3639 C3640 1.397 . S
C3639 C3644 1.363 . S
C3640 H3617 0.950 . S
C3640 C3639 1.397 . S
C3640 C3641 1.334 . S
C3641 H3618 0.950 . S
C3641 C3640 1.334 . S
C3641 C3642 1.287 . S
C3642 C3641 1.287 . S
C3642 C3643 1.524 . S
C3642 H3661 0.913 . S
C3643 H3619 0.950 . S
C3643 C3642 1.524 . S
C3643 C3644 1.415 . S
C3644 H3620 0.950 . S
C3644 C3639 1.363 . S
C3644 C3643 1.415 . S
C3645 H3621 0.951 . S
C3645 C3646 1.366 . S
C3645 C3647 1.388 . S
C3646 C3645 1.366 . S
C3646 C3650 1.385 . S
C3647 H3622 0.951 . S
C3647 C3645 1.388 . S
C3647 C3648 1.366 . S
C3648 C3647 1.366 . S
C3648 C3649 1.414 . S
C3648 C3651 1.499 . S
C3649 H3623 0.950 . S
C3649 C3648 1.414 . S
C3649 C3650 1.374 . S
C3650 H3624 0.950 . S
C3650 C3646 1.385 . S
C3650 C3649 1.374 . S
C3651 C3648 1.499 . S
C3651 C3652 1.373 . S
C3651 C3653 1.389 . S
C3652 H3625 0.950 . S
C3652 C3638 1.377 . S
C3652 C3651 1.373 . S
C3653 C3637 1.377 . S
C3653 C3651 1.389 . S
C3653 C3654 1.524 . S
C3654 C3653 1.524 . S
C3654 C3655 1.397 . S
C3654 C3659 1.363 . S
C3655 H3626 0.950 . S
C3655 C3654 1.397 . S
C3655 C3656 1.334 . S
C3656 H3627 0.950 . S
C3656 C3655 1.334 . S
C3656 C3657 1.287 . S
C3657 C3656 1.287 . S
C3657 C3658 1.524 . S
C3657 H3660 0.999 . S
C3658 H3628 0.950 . S
C3658 C3657 1.524 . S
C3658 C3659 1.415 . S
C3659 H3629 0.950 . S
C3659 C3654 1.363 . S
C3659 C3658 1.415 . S
H3660 C3657 0.999 . S
H3661 C3642 0.913 . S
H3662 C3680 0.951 . S
H3663 C3682 0.951 . S
H3664 C3684 0.950 . S
H3665 C3685 0.950 . S
H3666 C3687 0.950 . S
H3667 C3690 0.950 . S
H3668 C3691 0.950 . S
H3669 C3693 0.950 . S
H3670 C3694 0.950 . S
H3671 C3695 0.951 . S
H3672 C3697 0.951 . S
H3673 C3699 0.950 . S
H3674 C3700 0.950 . S
H3675 C3702 0.950 . S
H3676 C3705 0.950 . S
H3677 C3706 0.950 . S
H3678 C3708 0.950 . S
H3679 C3709 0.950 . S
C3680 H3662 0.951 . S
C3680 C3681 1.366 . S
C3680 C3682 1.388 . S
C3681 C3680 1.366 . S
C3681 C3685 1.385 . S
C3682 H3663 0.951 . S
C3682 C3680 1.388 . S
C3682 C3683 1.366 . S
C3683 C3682 1.366 . S
C3683 C3684 1.414 . S
C3683 C3686 1.499 . S
C3684 H3664 0.950 . S
C3684 C3683 1.414 . S
C3684 C3685 1.374 . S
C3685 H3665 0.950 . S
C3685 C3681 1.385 . S
C3685 C3684 1.374 . S
C3686 C3683 1.499 . S
C3686 C3687 1.373 . S
C3686 C3688 1.389 . S
C3687 H3666 0.950 . S
C3687 C3686 1.373 . S
C3687 C3703 1.377 . S
C3688 C3686 1.389 . S
C3688 C3689 1.524 . S
C3688 C3702 1.377 . S
C3689 C3688 1.524 . S
C3689 C3690 1.397 . S
C3689 C3694 1.363 . S
C3690 H3667 0.950 . S
C3690 C3689 1.397 . S
C3690 C3691 1.334 . S
C3691 H3668 0.950 . S
C3691 C3690 1.334 . S
C3691 C3692 1.287 . S
C3692 C3691 1.287 . S
C3692 C3693 1.524 . S
C3692 H3711 0.913 . S
C3693 H3669 0.950 . S
C3693 C3692 1.524 . S
C3693 C3694 1.415 . S
C3694 H3670 0.950 . S
C3694 C3689 1.363 . S
C3694 C3693 1.415 . S
C3695 H3671 0.951 . S
C3695 C3696 1.366 . S
C3695 C3697 1.388 . S
C3696 C3695 1.366 . S
C3696 C3700 1.385 . S
C3697 H3672 0.951 . S
C3697 C3695 1.388 . S
C3697 C3698 1.366 . S
C3698 C3697 1.366 . S
C3698 C3699 1.414 . S
C3698 C3701 1.499 . S
C3699 H3673 0.950 . S
C3699 C3698 1.414 . S
C3699 C3700 1.374 . S
C3700 H3674 0.950 . S
C3700 C3696 1.385 . S
C3700 C3699 1.374 . S
C3701 C3698 1.499 . S
C3701 C3702 1.373 . S
C3701 C3703 1.389 . S
C3702 H3675 0.950 . S
C3702 C3688 1.377 . S
C3702 C3701 1.373 . S
C3703 C3687 1.377 . S
C3703 C3701 1.389 . S
C3703 C3704 1.524 . S
C3704 C3703 1.524 . S
C3704 C3705 1.397 . S
C3704 C3709 1.363 . S
C3705 H3676 0.950 . S
C3705 C3704 1.397 . S
C3705 C3706 1.334 . S
C3706 H3677 0.950 . S
C3706 C3705 1.334 . S
C3706 C3707 1.287 . S
C3707 C3706 1.287 . S
C3707 C3708 1.524 . S
C3707 H3710 0.999 . S
C3708 H3678 0.950 . S
C3708 C3707 1.524 . S
C3708 C3709 1.415 . S
C3709 H3679 0.950 . S
C3709 C3704 1.363 . S
C3709 C3708 1.415 . S
H3710 C3707 0.999 . S
H3711 C3692 0.913 . S
H3712 C3730 0.951 . S
H3713 C3732 0.951 . S
H3714 C3734 0.950 . S
H3715 C3735 0.950 . S
H3716 C3737 0.950 . S
H3717 C3740 0.950 . S
H3718 C3741 0.950 . S
H3719 C3743 0.950 . S
H3720 C3744 0.950 . S
H3721 C3745 0.951 . S
H3722 C3747 0.951 . S
H3723 C3749 0.950 . S
H3724 C3750 0.950 . S
H3725 C3752 0.950 . S
H3726 C3755 0.950 . S
H3727 C3756 0.950 . S
H3728 C3758 0.950 . S
H3729 C3759 0.950 . S
C3730 H3712 0.951 . S
C3730 C3731 1.366 . S
C3730 C3732 1.388 . S
C3731 C3730 1.366 . S
C3731 C3735 1.385 . S
C3732 H3713 0.951 . S
C3732 C3730 1.388 . S
C3732 C3733 1.366 . S
C3733 C3732 1.366 . S
C3733 C3734 1.414 . S
C3733 C3736 1.499 . S
C3734 H3714 0.950 . S
C3734 C3733 1.414 . S
C3734 C3735 1.374 . S
C3735 H3715 0.950 . S
C3735 C3731 1.385 . S
C3735 C3734 1.374 . S
C3736 C3733 1.499 . S
C3736 C3737 1.373 . S
C3736 C3738 1.389 . S
C3737 H3716 0.950 . S
C3737 C3736 1.373 . S
C3737 C3753 1.377 . S
C3738 C3736 1.389 . S
C3738 C3739 1.524 . S
C3738 C3752 1.377 . S
C3739 C3738 1.524 . S
C3739 C3740 1.397 . S
C3739 C3744 1.363 . S
C3740 H3717 0.950 . S
C3740 C3739 1.397 . S
C3740 C3741 1.334 . S
C3741 H3718 0.950 . S
C3741 C3740 1.334 . S
C3741 C3742 1.287 . S
C3742 C3741 1.287 . S
C3742 C3743 1.524 . S
C3742 H3761 0.913 . S
C3743 H3719 0.950 . S
C3743 C3742 1.524 . S
C3743 C3744 1.415 . S
C3744 H3720 0.950 . S
C3744 C3739 1.363 . S
C3744 C3743 1.415 . S
C3745 H3721 0.951 . S
C3745 C3746 1.366 . S
C3745 C3747 1.388 . S
C3746 C3745 1.366 . S
C3746 C3750 1.385 . S
C3747 H3722 0.951 . S
C3747 C3745 1.388 . S
C3747 C3748 1.366 . S
C3748 C3747 1.366 . S
C3748 C3749 1.414 . S
C3748 C3751 1.499 . S
C3749 H3723 0.950 . S
C3749 C3748 1.414 . S
C3749 C3750 1.374 . S
C3750 H3724 0.950 . S
C3750 C3746 1.385 . S
C3750 C3749 1.374 . S
C3751 C3748 1.499 . S
C3751 C3752 1.373 . S
C3751 C3753 1.389 . S
C3752 H3725 0.950 . S
C3752 C3738 1.377 . S
C3752 C3751 1.373 . S
C3753 C3737 1.377 . S
C3753 C3751 1.389 . S
C3753 C3754 1.524 . S
C3754 C3753 1.524 . S
C3754 C3755 1.397 . S
C3754 C3759 1.363 . S
C3755 H3726 0.950 . S
C3755 C3754 1.397 . S
C3755 C3756 1.334 . S
C3756 H3727 0.950 . S
C3756 C3755 1.334 . S
C3756 C3757 1.287 . S
C3757 C3756 1.287 . S
C3757 C3758 1.524 . S
C3757 H3760 0.999 . S
C3758 H3728 0.950 . S
C3758 C3757 1.524 . S
C3758 C3759 1.415 . S
C3759 H3729 0.950 . S
C3759 C3754 1.363 . S
C3759 C3758 1.415 . S
H3760 C3757 0.999 . S
H3761 C3742 0.913 . S
H3762 C3780 0.951 . S
H3763 C3782 0.951 . S
H3764 C3784 0.950 . S
H3765 C3785 0.950 . S
H3766 C3787 0.950 . S
H3767 C3790 0.950 . S
H3768 C3791 0.950 . S
H3769 C3793 0.950 . S
H3770 C3794 0.950 . S
H3771 C3795 0.951 . S
H3772 C3797 0.951 . S
H3773 C3799 0.950 . S
H3774 C3800 0.950 . S
H3775 C3802 0.950 . S
H3776 C3805 0.950 . S
H3777 C3806 0.950 . S
H3778 C3808 0.950 . S
H3779 C3809 0.950 . S
C3780 H3762 0.951 . S
C3780 C3781 1.366 . S
C3780 C3782 1.388 . S
C3781 C3780 1.366 . S
C3781 C3785 1.385 . S
C3782 H3763 0.951 . S
C3782 C3780 1.388 . S
C3782 C3783 1.366 . S
C3783 C3782 1.366 . S
C3783 C3784 1.414 . S
C3783 C3786 1.499 . S
C3784 H3764 0.950 . S
C3784 C3783 1.414 . S
C3784 C3785 1.374 . S
C3785 H3765 0.950 . S
C3785 C3781 1.385 . S
C3785 C3784 1.374 . S
C3786 C3783 1.499 . S
C3786 C3787 1.373 . S
C3786 C3788 1.389 . S
C3787 H3766 0.950 . S
C3787 C3786 1.373 . S
C3787 C3803 1.377 . S
C3788 C3786 1.389 . S
C3788 C3789 1.524 . S
C3788 C3802 1.377 . S
C3789 C3788 1.524 . S
C3789 C3790 1.397 . S
C3789 C3794 1.363 . S
C3790 H3767 0.950 . S
C3790 C3789 1.397 . S
C3790 C3791 1.334 . S
C3791 H3768 0.950 . S
C3791 C3790 1.334 . S
C3791 C3792 1.287 . S
C3792 C3791 1.287 . S
C3792 C3793 1.524 . S
C3792 H3811 0.913 . S
C3793 H3769 0.950 . S
C3793 C3792 1.524 . S
C3793 C3794 1.415 . S
C3794 H3770 0.950 . S
C3794 C3789 1.363 . S
C3794 C3793 1.415 . S
C3795 H3771 0.951 . S
C3795 C3796 1.366 . S
C3795 C3797 1.388 . S
C3796 C3795 1.366 . S
C3796 C3800 1.385 . S
C3797 H3772 0.951 . S
C3797 C3795 1.388 . S
C3797 C3798 1.366 . S
C3798 C3797 1.366 . S
C3798 C3799 1.414 . S
C3798 C3801 1.499 . S
C3799 H3773 0.950 . S
C3799 C3798 1.414 . S
C3799 C3800 1.374 . S
C3800 H3774 0.950 . S
C3800 C3796 1.385 . S
C3800 C3799 1.374 . S
C3801 C3798 1.499 . S
C3801 C3802 1.373 . S
C3801 C3803 1.389 . S
C3802 H3775 0.950 . S
C3802 C3788 1.377 . S
C3802 C3801 1.373 . S
C3803 C3787 1.377 . S
C3803 C3801 1.389 . S
C3803 C3804 1.524 . S
C3804 C3803 1.524 . S
C3804 C3805 1.397 . S
C3804 C3809 1.363 . S
C3805 H3776 0.950 . S
C3805 C3804 1.397 . S
C3805 C3806 1.334 . S
C3806 H3777 0.950 . S
C3806 C3805 1.334 . S
C3806 C3807 1.287 . S
C3807 C3806 1.287 . S
C3807 C3808 1.524 . S
C3807 H3810 0.999 . S
C3808 H3778 0.950 . S
C3808 C3807 1.524 . S
C3808 C3809 1.415 . S
C3809 H3779 0.950 . S
C3809 C3804 1.363 . S
C3809 C3808 1.415 . S
H3810 C3807 0.999 . S
H3811 C3792 0.913 . S
H3812 C3830 0.951 . S
H3813 C3832 0.951 . S
H3814 C3834 0.950 . S
H3815 C3835 0.950 . S
H3816 C3837 0.950 . S
H3817 C3840 0.950 . S
H3818 C3841 0.950 . S
H3819 C3843 0.950 . S
H3820 C3844 0.950 . S
H3821 C3845 0.951 . S
H3822 C3847 0.951 . S
H3823 C3849 0.950 . S
H3824 C3850 0.950 . S
H3825 C3852 0.950 . S
H3826 C3855 0.950 . S
H3827 C3856 0.950 . S
H3828 C3858 0.950 . S
H3829 C3859 0.950 . S
C3830 H3812 0.951 . S
C3830 C3831 1.366 . S
C3830 C3832 1.388 . S
C3831 C3830 1.366 . S
C3831 C3835 1.385 . S
C3832 H3813 0.951 . S
C3832 C3830 1.388 . S
C3832 C3833 1.366 . S
C3833 C3832 1.366 . S
C3833 C3834 1.414 . S
C3833 C3836 1.499 . S
C3834 H3814 0.950 . S
C3834 C3833 1.414 . S
C3834 C3835 1.374 . S
C3835 H3815 0.950 . S
C3835 C3831 1.385 . S
C3835 C3834 1.374 . S
C3836 C3833 1.499 . S
C3836 C3837 1.373 . S
C3836 C3838 1.389 . S
C3837 H3816 0.950 . S
C3837 C3836 1.373 . S
C3837 C3853 1.377 . S
C3838 C3836 1.389 . S
C3838 C3839 1.524 . S
C3838 C3852 1.377 . S
C3839 C3838 1.524 . S
C3839 C3840 1.397 . S
C3839 C3844 1.363 . S
C3840 H3817 0.950 . S
C3840 C3839 1.397 . S
C3840 C3841 1.334 . S
C3841 H3818 0.950 . S
C3841 C3840 1.334 . S
C3841 C3842 1.287 . S
C3842 C3841 1.287 . S
C3842 C3843 1.524 . S
C3842 H3861 0.913 . S
C3843 H3819 0.950 . S
C3843 C3842 1.524 . S
C3843 C3844 1.415 . S
C3844 H3820 0.950 . S
C3844 C3839 1.363 . S
C3844 C3843 1.415 . S
C3845 H3821 0.951 . S
C3845 C3846 1.366 . S
C3845 C3847 1.388 . S
C3846 C3845 1.366 . S
C3846 C3850 1.385 . S
C3847 H3822 0.951 . S
C3847 C3845 1.388 . S
C3847 C3848 1.366 . S
C3848 C3847 1.366 . S
C3848 C3849 1.414 . S
C3848 C3851 1.499 . S
C3849 H3823 0.950 . S
C3849 C3848 1.414 . S
C3849 C3850 1.374 . S
C3850 H3824 0.950 . S
C3850 C3846 1.385 . S
C3850 C3849 1.374 . S
C3851 C3848 1.499 . S
C3851 C3852 1.373 . S
C3851 C3853 1.389 . S
C3852 H3825 0.950 . S
C3852 C3838 1.377 . S
C3852 C3851 1.373 . S
C3853 C3837 1.377 . S
C3853 C3851 1.389 . S
C3853 C3854 1.524 . S
C3854 C3853 1.524 . S
C3854 C3855 1.397 . S
C3854 C3859 1.363 . S
C3855 H3826 0.950 . S
C3855 C3854 1.397 . S
C3855 C3856 1.334 . S
C3856 H3827 0.950 . S
C3856 C3855 1.334 . S
C3856 C3857 1.287 . S
C3857 C3856 1.287 . S
C3857 C3858 1.524 . S
C3857 H3860 0.999 . S
C3858 H3828 0.950 . S
C3858 C3857 1.524 . S
C3858 C3859 1.415 . S
C3859 H3829 0.950 . S
C3859 C3854 1.363 . S
C3859 C3858 1.415 . S
H3860 C3857 0.999 . S
H3861 C3842 0.913 . S
H3862 C3880 0.951 . S
H3863 C3882 0.951 . S
H3864 C3884 0.950 . S
H3865 C3885 0.950 . S
H3866 C3887 0.950 . S
H3867 C3890 0.950 . S
H3868 C3891 0.950 . S
H3869 C3893 0.950 . S
H3870 C3894 0.950 . S
H3871 C3895 0.951 . S
H3872 C3897 0.951 . S
H3873 C3899 0.950 . S
H3874 C3900 0.950 . S
H3875 C3902 0.950 . S
H3876 C3905 0.950 . S
H3877 C3906 0.950 . S
H3878 C3908 0.950 . S
H3879 C3909 0.950 . S
C3880 H3862 0.951 . S
C3880 C3881 1.366 . S
C3880 C3882 1.388 . S
C3881 C3880 1.366 . S
C3881 C3885 1.385 . S
C3882 H3863 0.951 . S
C3882 C3880 1.388 . S
C3882 C3883 1.366 . S
C3883 C3882 1.366 . S
C3883 C3884 1.414 . S
C3883 C3886 1.499 . S
C3884 H3864 0.950 . S
C3884 C3883 1.414 . S
C3884 C3885 1.374 . S
C3885 H3865 0.950 . S
C3885 C3881 1.385 . S
C3885 C3884 1.374 . S
C3886 C3883 1.499 . S
C3886 C3887 1.373 . S
C3886 C3888 1.389 . S
C3887 H3866 0.950 . S
C3887 C3886 1.373 . S
C3887 C3903 1.377 . S
C3888 C3886 1.389 . S
C3888 C3889 1.524 . S
C3888 C3902 1.377 . S
C3889 C3888 1.524 . S
C3889 C3890 1.397 . S
C3889 C3894 1.363 . S
C3890 H3867 0.950 . S
C3890 C3889 1.397 . S
C3890 C3891 1.334 . S
C3891 H3868 0.950 . S
C3891 C3890 1.334 . S
C3891 C3892 1.287 . S
C3892 C3891 1.287 . S
C3892 C3893 1.524 . S
C3892 H3911 0.913 . S
C3893 H3869 0.950 . S
C3893 C3892 1.524 . S
C3893 C3894 1.415 . S
C3894 H3870 0.950 . S
C3894 C3889 1.363 . S
C3894 C3893 1.415 . S
C3895 H3871 0.951 . S
C3895 C3896 1.366 . S
C3895 C3897 1.388 . S
C3896 C3895 1.366 . S
C3896 C3900 1.385 . S
C3897 H3872 0.951 . S
C3897 C3895 1.388 . S
C3897 C3898 1.366 . S
C3898 C3897 1.366 . S
C3898 C3899 1.414 . S
C3898 C3901 1.499 . S
C3899 H3873 0.950 . S
C3899 C3898 1.414 . S
C3899 C3900 1.374 . S
C3900 H3874 0.950 . S
C3900 C3896 1.385 . S
C3900 C3899 1.374 . S
C3901 C3898 1.499 . S
C3901 C3902 1.373 . S
C3901 C3903 1.389 . S
C3902 H3875 0.950 . S
C3902 C3888 1.377 . S
C3902 C3901 1.373 . S
C3903 C3887 1.377 . S
C3903 C3901 1.389 . S
C3903 C3904 1.524 . S
C3904 C3903 1.524 . S
C3904 C3905 1.397 . S
C3904 C3909 1.363 . S
C3905 H3876 0.950 . S
C3905 C3904 1.397 . S
C3905 C3906 1.334 . S
C3906 H3877 0.950 . S
C3906 C3905 1.334 . S
C3906 C3907 1.287 . S
C3907 C3906 1.287 . S
C3907 C3908 1.524 . S
C3907 H3910 0.999 . S
C3908 H3878 0.950 . S
C3908 C3907 1.524 . S
C3908 C3909 1.415 . S
C3909 H3879 0.950 . S
C3909 C3904 1.363 . S
C3909 C3908 1.415 . S
H3910 C3907 0.999 . S
H3911 C3892 0.913 . S
H3912 C3930 0.951 . S
H3913 C3932 0.951 . S
H3914 C3934 0.950 . S
H3915 C3935 0.950 . S
H3916 C3937 0.950 . S
H3917 C3940 0.950 . S
H3918 C3941 0.950 . S
H3919 C3943 0.950 . S
H3920 C3944 0.950 . S
H3921 C3945 0.951 . S
H3922 C3947 0.951 . S
H3923 C3949 0.950 . S
H3924 C3950 0.950 . S
H3925 C3952 0.950 . S
H3926 C3955 0.950 . S
H3927 C3956 0.950 . S
H3928 C3958 0.950 . S
H3929 C3959 0.950 . S
C3930 H3912 0.951 . S
C3930 C3931 1.366 . S
C3930 C3932 1.388 . S
C3931 C3930 1.366 . S
C3931 C3935 1.385 . S
C3932 H3913 0.951 . S
C3932 C3930 1.388 . S
C3932 C3933 1.366 . S
C3933 C3932 1.366 . S
C3933 C3934 1.414 . S
C3933 C3936 1.499 . S
C3934 H3914 0.950 . S
C3934 C3933 1.414 . S
C3934 C3935 1.374 . S
C3935 H3915 0.950 . S
C3935 C3931 1.385 . S
C3935 C3934 1.374 . S
C3936 C3933 1.499 . S
C3936 C3937 1.373 . S
C3936 C3938 1.389 . S
C3937 H3916 0.950 . S
C3937 C3936 1.373 . S
C3937 C3953 1.377 . S
C3938 C3936 1.389 . S
C3938 C3939 1.524 . S
C3938 C3952 1.377 . S
C3939 C3938 1.524 . S
C3939 C3940 1.397 . S
C3939 C3944 1.363 . S
C3940 H3917 0.950 . S
C3940 C3939 1.397 . S
C3940 C3941 1.334 . S
C3941 H3918 0.950 . S
C3941 C3940 1.334 . S
C3941 C3942 1.287 . S
C3942 C3941 1.287 . S
C3942 C3943 1.524 . S
C3942 H3961 0.913 . S
C3943 H3919 0.950 . S
C3943 C3942 1.524 . S
C3943 C3944 1.415 . S
C3944 H3920 0.950 . S
C3944 C3939 1.363 . S
C3944 C3943 1.415 . S
C3945 H3921 0.951 . S
C3945 C3946 1.366 . S
C3945 C3947 1.388 . S
C3946 C3945 1.366 . S
C3946 C3950 1.385 . S
C3947 H3922 0.951 . S
C3947 C3945 1.388 . S
C3947 C3948 1.366 . S
C3948 C3947 1.366 . S
C3948 C3949 1.414 . S
C3948 C3951 1.499 . S
C3949 H3923 0.950 . S
C3949 C3948 1.414 . S
C3949 C3950 1.374 . S
C3950 H3924 0.950 . S
C3950 C3946 1.385 . S
C3950 C3949 1.374 . S
C3951 C3948 1.499 . S
C3951 C3952 1.373 . S
C3951 C3953 1.389 . S
C3952 H3925 0.950 . S
C3952 C3938 1.377 . S
C3952 C3951 1.373 . S
C3953 C3937 1.377 . S
C3953 C3951 1.389 . S
C3953 C3954 1.524 . S
C3954 C3953 1.524 . S
C3954 C3955 1.397 . S
C3954 C3959 1.363 . S
C3955 H3926 0.950 . S
C3955 C3954 1.397 . S
C3955 C3956 1.334 . S
C3956 H3927 0.950 . S
C3956 C3955 1.334 . S
C3956 C3957 1.287 . S
C3957 C3956 1.287 . S
C3957 C3958 1.524 . S
C3957 H3960 0.999 . S
C3958 H3928 0.950 . S
C3958 C3957 1.524 . S
C3958 C3959 1.415 . S
C3959 H3929 0.950 . S
C3959 C3954 1.363 . S
C3959 C3958 1.415 . S
H3960 C3957 0.999 . S
H3961 C3942 0.913 . S
H3962 C3980 0.951 . S
H3963 C3982 0.951 . S
H3964 C3984 0.950 . S
H3965 C3985 0.950 . S
H3966 C3987 0.950 . S
H3967 C3990 0.950 . S
H3968 C3991 0.950 . S
H3969 C3993 0.950 . S
H3970 C3994 0.950 . S
H3971 C3995 0.951 . S
H3972 C3997 0.951 . S
H3973 C3999 0.950 . S
H3974 C4000 0.950 . S
H3975 C4002 0.950 . S
H3976 C4005 0.950 . S
H3977 C4006 0.950 . S
H3978 C4008 0.950 . S
H3979 C4009 0.950 . S
C3980 H3962 0.951 . S
C3980 C3981 1.366 . S
C3980 C3982 1.388 . S
C3981 C3980 1.366 . S
C3981 C3985 1.385 . S
C3982 H3963 0.951 . S
C3982 C3980 1.388 . S
C3982 C3983 1.366 . S
C3983 C3982 1.366 . S
C3983 C3984 1.414 . S
C3983 C3986 1.499 . S
C3984 H3964 0.950 . S
C3984 C3983 1.414 . S
C3984 C3985 1.374 . S
C3985 H3965 0.950 . S
C3985 C3981 1.385 . S
C3985 C3984 1.374 . S
C3986 C3983 1.499 . S
C3986 C3987 1.373 . S
C3986 C3988 1.389 . S
C3987 H3966 0.950 . S
C3987 C3986 1.373 . S
C3987 C4003 1.377 . S
C3988 C3986 1.389 . S
C3988 C3989 1.524 . S
C3988 C4002 1.377 . S
C3989 C3988 1.524 . S
C3989 C3990 1.397 . S
C3989 C3994 1.363 . S
C3990 H3967 0.950 . S
C3990 C3989 1.397 . S
C3990 C3991 1.334 . S
C3991 H3968 0.950 . S
C3991 C3990 1.334 . S
C3991 C3992 1.287 . S
C3992 C3991 1.287 . S
C3992 C3993 1.524 . S
C3992 H4011 0.913 . S
C3993 H3969 0.950 . S
C3993 C3992 1.524 . S
C3993 C3994 1.415 . S
C3994 H3970 0.950 . S
C3994 C3989 1.363 . S
C3994 C3993 1.415 . S
C3995 H3971 0.951 . S
C3995 C3996 1.366 . S
C3995 C3997 1.388 . S
C3996 C3995 1.366 . S
C3996 C4000 1.385 . S
C3997 H3972 0.951 . S
C3997 C3995 1.388 . S
C3997 C3998 1.366 . S
C3998 C3997 1.366 . S
C3998 C3999 1.414 . S
C3998 C4001 1.499 . S
C3999 H3973 0.950 . S
C3999 C3998 1.414 . S
C3999 C4000 1.374 . S
C4000 H3974 0.950 . S
C4000 C3996 1.385 . S
C4000 C3999 1.374 . S
C4001 C3998 1.499 . S
C4001 C4002 1.373 . S
C4001 C4003 1.389 . S
C4002 H3975 0.950 . S
C4002 C3988 1.377 . S
C4002 C4001 1.373 . S
C4003 C3987 1.377 . S
C4003 C4001 1.389 . S
C4003 C4004 1.524 . S
C4004 C4003 1.524 . S
C4004 C4005 1.397 . S
C4004 C4009 1.363 . S
C4005 H3976 0.950 . S
C4005 C4004 1.397 . S
C4005 C4006 1.334 . S
C4006 H3977 0.950 . S
C4006 C4005 1.334 . S
C4006 C4007 1.287 . S
C4007 C4006 1.287 . S
C4007 C4008 1.524 . S
C4007 H4010 0.999 . S
C4008 H3978 0.950 . S
C4008 C4007 1.524 . S
C4008 C4009 1.415 . S
C4009 H3979 0.950 . S
C4009 C4004 1.363 . S
C4009 C4008 1.415 . S
H4010 C4007 0.999 . S
H4011 C3992 0.913 . S
H4012 C4030 0.951 . S
H4013 C4032 0.951 . S
H4014 C4034 0.950 . S
H4015 C4035 0.950 . S
H4016 C4037 0.950 . S
H4017 C4040 0.950 . S
H4018 C4041 0.950 . S
H4019 C4043 0.950 . S
H4020 C4044 0.950 . S
H4021 C4045 0.951 . S
H4022 C4047 0.951 . S
H4023 C4049 0.950 . S
H4024 C4050 0.950 . S
H4025 C4052 0.950 . S
H4026 C4055 0.950 . S
H4027 C4056 0.950 . S
H4028 C4058 0.950 . S
H4029 C4059 0.950 . S
C4030 H4012 0.951 . S
C4030 C4031 1.366 . S
C4030 C4032 1.388 . S
C4031 C4030 1.366 . S
C4031 C4035 1.385 . S
C4032 H4013 0.951 . S
C4032 C4030 1.388 . S
C4032 C4033 1.366 . S
C4033 C4032 1.366 . S
C4033 C4034 1.414 . S
C4033 C4036 1.499 . S
C4034 H4014 0.950 . S
C4034 C4033 1.414 . S
C4034 C4035 1.374 . S
C4035 H4015 0.950 . S
C4035 C4031 1.385 . S
C4035 C4034 1.374 . S
C4036 C4033 1.499 . S
C4036 C4037 1.373 . S
C4036 C4038 1.389 . S
C4037 H4016 0.950 . S
C4037 C4036 1.373 . S
C4037 C4053 1.377 . S
C4038 C4036 1.389 . S
C4038 C4039 1.524 . S
C4038 C4052 1.377 . S
C4039 C4038 1.524 . S
C4039 C4040 1.397 . S
C4039 C4044 1.363 . S
C4040 H4017 0.950 . S
C4040 C4039 1.397 . S
C4040 C4041 1.334 . S
C4041 H4018 0.950 . S
C4041 C4040 1.334 . S
C4041 C4042 1.287 . S
C4042 C4041 1.287 . S
C4042 C4043 1.524 . S
C4042 H4061 0.913 . S
C4043 H4019 0.950 . S
C4043 C4042 1.524 . S
C4043 C4044 1.415 . S
C4044 H4020 0.950 . S
C4044 C4039 1.363 . S
C4044 C4043 1.415 . S
C4045 H4021 0.951 . S
C4045 C4046 1.366 . S
C4045 C4047 1.388 . S
C4046 C4045 1.366 . S
C4046 C4050 1.385 . S
C4047 H4022 0.951 . S
C4047 C4045 1.388 . S
C4047 C4048 1.366 . S
C4048 C4047 1.366 . S
C4048 C4049 1.414 . S
C4048 C4051 1.499 . S
C4049 H4023 0.950 . S
C4049 C4048 1.414 . S
C4049 C4050 1.374 . S
C4050 H4024 0.950 . S
C4050 C4046 1.385 . S
C4050 C4049 1.374 . S
C4051 C4048 1.499 . S
C4051 C4052 1.373 . S
C4051 C4053 1.389 . S
C4052 H4025 0.950 . S
C4052 C4038 1.377 . S
C4052 C4051 1.373 . S
C4053 C4037 1.377 . S
C4053 C4051 1.389 . S
C4053 C4054 1.524 . S
C4054 C4053 1.524 . S
C4054 C4055 1.397 . S
C4054 C4059 1.363 . S
C4055 H4026 0.950 . S
C4055 C4054 1.397 . S
C4055 C4056 1.334 . S
C4056 H4027 0.950 . S
C4056 C4055 1.334 . S
C4056 C4057 1.287 . S
C4057 C4056 1.287 . S
C4057 C4058 1.524 . S
C4057 H4060 0.999 . S
C4058 H4028 0.950 . S
C4058 C4057 1.524 . S
C4058 C4059 1.415 . S
C4059 H4029 0.950 . S
C4059 C4054 1.363 . S
C4059 C4058 1.415 . S
H4060 C4057 0.999 . S
H4061 C4042 0.913 . S
H4062 C4080 0.951 . S
H4063 C4082 0.951 . S
H4064 C4084 0.950 . S
H4065 C4085 0.950 . S
H4066 C4087 0.950 . S
H4067 C4090 0.950 . S
H4068 C4091 0.950 . S
H4069 C4093 0.950 . S
H4070 C4094 0.950 . S
H4071 C4095 0.951 . S
H4072 C4097 0.951 . S
H4073 C4099 0.950 . S
H4074 C4100 0.950 . S
H4075 C4102 0.950 . S
H4076 C4105 0.950 . S
H4077 C4106 0.950 . S
H4078 C4108 0.950 . S
H4079 C4109 0.950 . S
C4080 H4062 0.951 . S
C4080 C4081 1.366 . S
C4080 C4082 1.388 . S
C4081 C4080 1.366 . S
C4081 C4085 1.385 . S
C4082 H4063 0.951 . S
C4082 C4080 1.388 . S
C4082 C4083 1.366 . S
C4083 C4082 1.366 . S
C4083 C4084 1.414 . S
C4083 C4086 1.499 . S
C4084 H4064 0.950 . S
C4084 C4083 1.414 . S
C4084 C4085 1.374 . S
C4085 H4065 0.950 . S
C4085 C4081 1.385 . S
C4085 C4084 1.374 . S
C4086 C4083 1.499 . S
C4086 C4087 1.373 . S
C4086 C4088 1.389 . S
C4087 H4066 0.950 . S
C4087 C4086 1.373 . S
C4087 C4103 1.377 . S
C4088 C4086 1.389 . S
C4088 C4089 1.524 . S
C4088 C4102 1.377 . S
C4089 C4088 1.524 . S
C4089 C4090 1.397 . S
C4089 C4094 1.363 . S
C4090 H4067 0.950 . S
C4090 C4089 1.397 . S
C4090 C4091 1.334 . S
C4091 H4068 0.950 . S
C4091 C4090 1.334 . S
C4091 C4092 1.287 . S
C4092 C4091 1.287 . S
C4092 C4093 1.524 . S
C4092 H4111 0.913 . S
C4093 H4069 0.950 . S
C4093 C4092 1.524 . S
C4093 C4094 1.415 . S
C4094 H4070 0.950 . S
C4094 C4089 1.363 . S
C4094 C4093 1.415 . S
C4095 H4071 0.951 . S
C4095 C4096 1.366 . S
C4095 C4097 1.388 . S
C4096 C4095 1.366 . S
C4096 C4100 1.385 . S
C4097 H4072 0.951 . S
C4097 C4095 1.388 . S
C4097 C4098 1.366 . S
C4098 C4097 1.366 . S
C4098 C4099 1.414 . S
C4098 C4101 1.499 . S
C4099 H4073 0.950 . S
C4099 C4098 1.414 . S
C4099 C4100 1.374 . S
C4100 H4074 0.950 . S
C4100 C4096 1.385 . S
C4100 C4099 1.374 . S
C4101 C4098 1.499 . S
C4101 C4102 1.373 . S
C4101 C4103 1.389 . S
C4102 H4075 0.950 . S
C4102 C4088 1.377 . S
C4102 C4101 1.373 . S
C4103 C4087 1.377 . S
C4103 C4101 1.389 . S
C4103 C4104 1.524 . S
C4104 C4103 1.524 . S
C4104 C4105 1.397 . S
C4104 C4109 1.363 . S
C4105 H4076 0.950 . S
C4105 C4104 1.397 . S
C4105 C4106 1.334 . S
C4106 H4077 0.950 . S
C4106 C4105 1.334 . S
C4106 C4107 1.287 . S
C4107 C4106 1.287 . S
C4107 C4108 1.524 . S
C4107 H4110 0.999 . S
C4108 H4078 0.950 . S
C4108 C4107 1.524 . S
C4108 C4109 1.415 . S
C4109 H4079 0.950 . S
C4109 C4104 1.363 . S
C4109 C4108 1.415 . S
H4110 C4107 0.999 . S
H4111 C4092 0.913 . S
H4112 C4130 0.951 . S
H4113 C4132 0.951 . S
H4114 C4134 0.950 . S
H4115 C4135 0.950 . S
H4116 C4137 0.950 . S
H4117 C4140 0.950 . S
H4118 C4141 0.950 . S
H4119 C4143 0.950 . S
H4120 C4144 0.950 . S
H4121 C4145 0.951 . S
H4122 C4147 0.951 . S
H4123 C4149 0.950 . S
H4124 C4150 0.950 . S
H4125 C4152 0.950 . S
H4126 C4155 0.950 . S
H4127 C4156 0.950 . S
H4128 C4158 0.950 . S
H4129 C4159 0.950 . S
C4130 H4112 0.951 . S
C4130 C4131 1.366 . S
C4130 C4132 1.388 . S
C4131 C4130 1.366 . S
C4131 C4135 1.385 . S
C4132 H4113 0.951 . S
C4132 C4130 1.388 . S
C4132 C4133 1.366 . S
C4133 C4132 1.366 . S
C4133 C4134 1.414 . S
C4133 C4136 1.499 . S
C4134 H4114 0.950 . S
C4134 C4133 1.414 . S
C4134 C4135 1.374 . S
C4135 H4115 0.950 . S
C4135 C4131 1.385 . S
C4135 C4134 1.374 . S
C4136 C4133 1.499 . S
C4136 C4137 1.373 . S
C4136 C4138 1.389 . S
C4137 H4116 0.950 . S
C4137 C4136 1.373 . S
C4137 C4153 1.377 . S
C4138 C4136 1.389 . S
C4138 C4139 1.524 . S
C4138 C4152 1.377 . S
C4139 C4138 1.524 . S
C4139 C4140 1.397 . S
C4139 C4144 1.363 . S
C4140 H4117 0.950 . S
C4140 C4139 1.397 . S
C4140 C4141 1.334 . S
C4141 H4118 0.950 . S
C4141 C4140 1.334 . S
C4141 C4142 1.287 . S
C4142 C4141 1.287 . S
C4142 C4143 1.524 . S
C4142 H4161 0.913 . S
C4143 H4119 0.950 . S
C4143 C4142 1.524 . S
C4143 C4144 1.415 . S
C4144 H4120 0.950 . S
C4144 C4139 1.363 . S
C4144 C4143 1.415 . S
C4145 H4121 0.951 . S
C4145 C4146 1.366 . S
C4145 C4147 1.388 . S
C4146 C4145 1.366 . S
C4146 C4150 1.385 . S
C4147 H4122 0.951 . S
C4147 C4145 1.388 . S
C4147 C4148 1.366 . S
C4148 C4147 1.366 . S
C4148 C4149 1.414 . S
C4148 C4151 1.499 . S
C4149 H4123 0.950 . S
C4149 C4148 1.414 . S
C4149 C4150 1.374 . S
C4150 H4124 0.950 . S
C4150 C4146 1.385 . S
C4150 C4149 1.374 . S
C4151 C4148 1.499 . S
C4151 C4152 1.373 . S
C4151 C4153 1.389 . S
C4152 H4125 0.950 . S
C4152 C4138 1.377 . S
C4152 C4151 1.373 . S
C4153 C4137 1.377 . S
C4153 C4151 1.389 . S
C4153 C4154 1.524 . S
C4154 C4153 1.524 . S
C4154 C4155 1.397 . S
C4154 C4159 1.363 . S
C4155 H4126 0.950 . S
C4155 C4154 1.397 . S
C4155 C4156 1.334 . S
C4156 H4127 0.950 . S
C4156 C4155 1.334 . S
C4156 C4157 1.287 . S
C4157 C4156 1.287 . S
C4157 C4158 1.524 . S
C4157 H4160 0.999 . S
C4158 H4128 0.950 . S
C4158 C4157 1.524 . S
C4158 C4159 1.415 . S
C4159 H4129 0.950 . S
C4159 C4154 1.363 . S
C4159 C4158 1.415 . S
H4160 C4157 0.999 . S
H4161 C4142 0.913 . S
H4162 C4180 0.951 . S
H4163 C4182 0.951 . S
H4164 C4184 0.950 . S
H4165 C4185 0.950 . S
H4166 C4187 0.950 . S
H4167 C4190 0.950 . S
H4168 C4191 0.950 . S
H4169 C4193 0.950 . S
H4170 C4194 0.950 . S
H4171 C4195 0.951 . S
H4172 C4197 0.951 . S
H4173 C4199 0.950 . S
H4174 C4200 0.950 . S
H4175 C4202 0.950 . S
H4176 C4205 0.950 . S
H4177 C4206 0.950 . S
H4178 C4208 0.950 . S
H4179 C4209 0.950 . S
C4180 H4162 0.951 . S
C4180 C4181 1.366 . S
C4180 C4182 1.388 . S
C4181 C4180 1.366 . S
C4181 C4185 1.385 . S
C4182 H4163 0.951 . S
C4182 C4180 1.388 . S
C4182 C4183 1.366 . S
C4183 C4182 1.366 . S
C4183 C4184 1.414 . S
C4183 C4186 1.499 . S
C4184 H4164 0.950 . S
C4184 C4183 1.414 . S
C4184 C4185 1.374 . S
C4185 H4165 0.950 . S
C4185 C4181 1.385 . S
C4185 C4184 1.374 . S
C4186 C4183 1.499 . S
C4186 C4187 1.373 . S
C4186 C4188 1.389 . S
C4187 H4166 0.950 . S
C4187 C4186 1.373 . S
C4187 C4203 1.377 . S
C4188 C4186 1.389 . S
C4188 C4189 1.524 . S
C4188 C4202 1.377 . S
C4189 C4188 1.524 . S
C4189 C4190 1.397 . S
C4189 C4194 1.363 . S
C4190 H4167 0.950 . S
C4190 C4189 1.397 . S
C4190 C4191 1.334 . S
C4191 H4168 0.950 . S
C4191 C4190 1.334 . S
C4191 C4192 1.287 . S
C4192 C4191 1.287 . S
C4192 C4193 1.524 . S
C4192 H4211 0.913 . S
C4193 H4169 0.950 . S
C4193 C4192 1.524 . S
C4193 C4194 1.415 . S
C4194 H4170 0.950 . S
C4194 C4189 1.363 . S
C4194 C4193 1.415 . S
C4195 H4171 0.951 . S
C4195 C4196 1.366 . S
C4195 C4197 1.388 . S
C4196 C4195 1.366 . S
C4196 C4200 1.385 . S
C4197 H4172 0.951 . S
C4197 C4195 1.388 . S
C4197 C4198 1.366 . S
C4198 C4197 1.366 . S
C4198 C4199 1.414 . S
C4198 C4201 1.499 . S
C4199 H4173 0.950 . S
C4199 C4198 1.414 . S
C4199 C4200 1.374 . S
C4200 H4174 0.950 . S
C4200 C4196 1.385 . S
C4200 C4199 1.374 . S
C4201 C4198 1.499 . S
C4201 C4202 1.373 . S
C4201 C4203 1.389 . S
C4202 H4175 0.950 . S
C4202 C4188 1.377 . S
C4202 C4201 1.373 . S
C4203 C4187 1.377 . S
C4203 C4201 1.389 . S
C4203 C4204 1.524 . S
C4204 C4203 1.524 . S
C4204 C4205 1.397 . S
C4204 C4209 1.363 . S
C4205 H4176 0.950 . S
C4205 C4204 1.397 . S
C4205 C4206 1.334 . S
C4206 H4177 0.950 . S
C4206 C4205 1.334 . S
C4206 C4207 1.287 . S
C4207 C4206 1.287 . S
C4207 C4208 1.524 . S
C4207 H4210 0.999 . S
C4208 H4178 0.950 . S
C4208 C4207 1.524 . S
C4208 C4209 1.415 . S
C4209 H4179 0.950 . S
C4209 C4204 1.363 . S
C4209 C4208 1.415 . S
H4210 C4207 0.999 . S
H4211 C4192 0.913 . S
H4212 C4230 0.951 . S
H4213 C4232 0.951 . S
H4214 C4234 0.950 . S
H4215 C4235 0.950 . S
H4216 C4237 0.950 . S
H4217 C4240 0.950 . S
H4218 C4241 0.950 . S
H4219 C4243 0.950 . S
H4220 C4244 0.950 . S
H4221 C4245 0.951 . S
H4222 C4247 0.951 . S
H4223 C4249 0.950 . S
H4224 C4250 0.950 . S
H4225 C4252 0.950 . S
H4226 C4255 0.950 . S
H4227 C4256 0.950 . S
H4228 C4258 0.950 . S
H4229 C4259 0.950 . S
C4230 H4212 0.951 . S
C4230 C4231 1.366 . S
C4230 C4232 1.388 . S
C4231 C4230 1.366 . S
C4231 C4235 1.385 . S
C4232 H4213 0.951 . S
C4232 C4230 1.388 . S
C4232 C4233 1.366 . S
C4233 C4232 1.366 . S
C4233 C4234 1.414 . S
C4233 C4236 1.499 . S
C4234 H4214 0.950 . S
C4234 C4233 1.414 . S
C4234 C4235 1.374 . S
C4235 H4215 0.950 . S
C4235 C4231 1.385 . S
C4235 C4234 1.374 . S
C4236 C4233 1.499 . S
C4236 C4237 1.373 . S
C4236 C4238 1.389 . S
C4237 H4216 0.950 . S
C4237 C4236 1.373 . S
C4237 C4253 1.377 . S
C4238 C4236 1.389 . S
C4238 C4239 1.524 . S
C4238 C4252 1.377 . S
C4239 C4238 1.524 . S
C4239 C4240 1.397 . S
C4239 C4244 1.363 . S
C4240 H4217 0.950 . S
C4240 C4239 1.397 . S
C4240 C4241 1.334 . S
C4241 H4218 0.950 . S
C4241 C4240 1.334 . S
C4241 C4242 1.287 . S
C4242 C4241 1.287 . S
C4242 C4243 1.524 . S
C4242 H4261 0.913 . S
C4243 H4219 0.950 . S
C4243 C4242 1.524 . S
C4243 C4244 1.415 . S
C4244 H4220 0.950 . S
C4244 C4239 1.363 . S
C4244 C4243 1.415 . S
C4245 H4221 0.951 . S
C4245 C4246 1.366 . S
C4245 C4247 1.388 . S
C4246 C4245 1.366 . S
C4246 C4250 1.385 . S
C4247 H4222 0.951 . S
C4247 C4245 1.388 . S
C4247 C4248 1.366 . S
C4248 C4247 1.366 . S
C4248 C4249 1.414 . S
C4248 C4251 1.499 . S
C4249 H4223 0.950 . S
C4249 C4248 1.414 . S
C4249 C4250 1.374 . S
C4250 H4224 0.950 . S
C4250 C4246 1.385 . S
C4250 C4249 1.374 . S
C4251 C4248 1.499 . S
C4251 C4252 1.373 . S
C4251 C4253 1.389 . S
C4252 H4225 0.950 . S
C4252 C4238 1.377 . S
C4252 C4251 1.373 . S
C4253 C4237 1.377 . S
C4253 C4251 1.389 . S
C4253 C4254 1.524 . S
C4254 C4253 1.524 . S
C4254 C4255 1.397 . S
C4254 C4259 1.363 . S
C4255 H4226 0.950 . S
C4255 C4254 1.397 . S
C4255 C4256 1.334 . S
C4256 H4227 0.950 . S
C4256 C4255 1.334 . S
C4256 C4257 1.287 . S
C4257 C4256 1.287 . S
C4257 C4258 1.524 . S
C4257 H4260 0.999 . S
C4258 H4228 0.950 . S
C4258 C4257 1.524 . S
C4258 C4259 1.415 . S
C4259 H4229 0.950 . S
C4259 C4254 1.363 . S
C4259 C4258 1.415 . S
H4260 C4257 0.999 . S
H4261 C4242 0.913 . S
H4262 C4280 0.951 . S
H4263 C4282 0.951 . S
H4264 C4284 0.950 . S
H4265 C4285 0.950 . S
H4266 C4287 0.950 . S
H4267 C4290 0.950 . S
H4268 C4291 0.950 . S
H4269 C4293 0.950 . S
H4270 C4294 0.950 . S
H4271 C4295 0.951 . S
H4272 C4297 0.951 . S
H4273 C4299 0.950 . S
H4274 C4300 0.950 . S
H4275 C4302 0.950 . S
H4276 C4305 0.950 . S
H4277 C4306 0.950 . S
H4278 C4308 0.950 . S
H4279 C4309 0.950 . S
C4280 H4262 0.951 . S
C4280 C4281 1.366 . S
C4280 C4282 1.388 . S
C4281 C4280 1.366 . S
C4281 C4285 1.385 . S
C4282 H4263 0.951 . S
C4282 C4280 1.388 . S
C4282 C4283 1.366 . S
C4283 C4282 1.366 . S
C4283 C4284 1.414 . S
C4283 C4286 1.499 . S
C4284 H4264 0.950 . S
C4284 C4283 1.414 . S
C4284 C4285 1.374 . S
C4285 H4265 0.950 . S
C4285 C4281 1.385 . S
C4285 C4284 1.374 . S
C4286 C4283 1.499 . S
C4286 C4287 1.373 . S
C4286 C4288 1.389 . S
C4287 H4266 0.950 . S
C4287 C4286 1.373 . S
C4287 C4303 1.377 . S
C4288 C4286 1.389 . S
C4288 C4289 1.524 . S
C4288 C4302 1.377 . S
C4289 C4288 1.524 . S
C4289 C4290 1.397 . S
C4289 C4294 1.363 . S
C4290 H4267 0.950 . S
C4290 C4289 1.397 . S
C4290 C4291 1.334 . S
C4291 H4268 0.950 . S
C4291 C4290 1.334 . S
C4291 C4292 1.287 . S
C4292 C4291 1.287 . S
C4292 C4293 1.524 . S
C4292 H4311 0.913 . S
C4293 H4269 0.950 . S
C4293 C4292 1.524 . S
C4293 C4294 1.415 . S
C4294 H4270 0.950 . S
C4294 C4289 1.363 . S
C4294 C4293 1.415 . S
C4295 H4271 0.951 . S
C4295 C4296 1.366 . S
C4295 C4297 1.388 . S
C4296 C4295 1.366 . S
C4296 C4300 1.385 . S
C4297 H4272 0.951 . S
C4297 C4295 1.388 . S
C4297 C4298 1.366 . S
C4298 C4297 1.366 . S
C4298 C4299 1.414 . S
C4298 C4301 1.499 . S
C4299 H4273 0.950 . S
C4299 C4298 1.414 . S
C4299 C4300 1.374 . S
C4300 H4274 0.950 . S
C4300 C4296 1.385 . S
C4300 C4299 1.374 . S
C4301 C4298 1.499 . S
C4301 C4302 1.373 . S
C4301 C4303 1.389 . S
C4302 H4275 0.950 . S
C4302 C4288 1.377 . S
C4302 C4301 1.373 . S
C4303 C4287 1.377 . S
C4303 C4301 1.389 . S
C4303 C4304 1.524 . S
C4304 C4303 1.524 . S
C4304 C4305 1.397 . S
C4304 C4309 1.363 . S
C4305 H4276 0.950 . S
C4305 C4304 1.397 . S
C4305 C4306 1.334 . S
C4306 H4277 0.950 . S
C4306 C4305 1.334 . S
C4306 C4307 1.287 . S
C4307 C4306 1.287 . S
C4307 C4308 1.524 . S
C4307 H4310 0.999 . S
C4308 H4278 0.950 . S
C4308 C4307 1.524 . S
C4308 C4309 1.415 . S
C4309 H4279 0.950 . S
C4309 C4304 1.363 . S
C4309 C4308 1.415 . S
H4310 C4307 0.999 . S
H4311 C4292 0.913 . S
H4312 C4330 0.951 . S
H4313 C4332 0.951 . S
H4314 C4334 0.950 . S
H4315 C4335 0.950 . S
H4316 C4337 0.950 . S
H4317 C4340 0.950 . S
H4318 C4341 0.950 . S
H4319 C4343 0.950 . S
H4320 C4344 0.950 . S
H4321 C4345 0.951 . S
H4322 C4347 0.951 . S
H4323 C4349 0.950 . S
H4324 C4350 0.950 . S
H4325 C4352 0.950 . S
H4326 C4355 0.950 . S
H4327 C4356 0.950 . S
H4328 C4358 0.950 . S
H4329 C4359 0.950 . S
C4330 H4312 0.951 . S
C4330 C4331 1.366 . S
C4330 C4332 1.388 . S
C4331 C4330 1.366 . S
C4331 C4335 1.385 . S
C4332 H4313 0.951 . S
C4332 C4330 1.388 . S
C4332 C4333 1.366 . S
C4333 C4332 1.366 . S
C4333 C4334 1.414 . S
C4333 C4336 1.499 . S
C4334 H4314 0.950 . S
C4334 C4333 1.414 . S
C4334 C4335 1.374 . S
C4335 H4315 0.950 . S
C4335 C4331 1.385 . S
C4335 C4334 1.374 . S
C4336 C4333 1.499 . S
C4336 C4337 1.373 . S
C4336 C4338 1.389 . S
C4337 H4316 0.950 . S
C4337 C4336 1.373 . S
C4337 C4353 1.377 . S
C4338 C4336 1.389 . S
C4338 C4339 1.524 . S
C4338 C4352 1.377 . S
C4339 C4338 1.524 . S
C4339 C4340 1.397 . S
C4339 C4344 1.363 . S
C4340 H4317 0.950 . S
C4340 C4339 1.397 . S
C4340 C4341 1.334 . S
C4341 H4318 0.950 . S
C4341 C4340 1.334 . S
C4341 C4342 1.287 . S
C4342 C4341 1.287 . S
C4342 C4343 1.524 . S
C4342 H4361 0.913 . S
C4343 H4319 0.950 . S
C4343 C4342 1.524 . S
C4343 C4344 1.415 . S
C4344 H4320 0.950 . S
C4344 C4339 1.363 . S
C4344 C4343 1.415 . S
C4345 H4321 0.951 . S
C4345 C4346 1.366 . S
C4345 C4347 1.388 . S
C4346 C4345 1.366 . S
C4346 C4350 1.385 . S
C4347 H4322 0.951 . S
C4347 C4345 1.388 . S
C4347 C4348 1.366 . S
C4348 C4347 1.366 . S
C4348 C4349 1.414 . S
C4348 C4351 1.499 . S
C4349 H4323 0.950 . S
C4349 C4348 1.414 . S
C4349 C4350 1.374 . S
C4350 H4324 0.950 . S
C4350 C4346 1.385 . S
C4350 C4349 1.374 . S
C4351 C4348 1.499 . S
C4351 C4352 1.373 . S
C4351 C4353 1.389 . S
C4352 H4325 0.950 . S
C4352 C4338 1.377 . S
C4352 C4351 1.373 . S
C4353 C4337 1.377 . S
C4353 C4351 1.389 . S
C4353 C4354 1.524 . S
C4354 C4353 1.524 . S
C4354 C4355 1.397 . S
C4354 C4359 1.363 . S
C4355 H4326 0.950 . S
C4355 C4354 1.397 . S
C4355 C4356 1.334 . S
C4356 H4327 0.950 . S
C4356 C4355 1.334 . S
C4356 C4357 1.287 . S
C4357 C4356 1.287 . S
C4357 C4358 1.524 . S
C4357 H4360 0.999 . S
C4358 H4328 0.950 . S
C4358 C4357 1.524 . S
C4358 C4359 1.415 . S
C4359 H4329 0.950 . S
C4359 C4354 1.363 . S
C4359 C4358 1.415 . S
H4360 C4357 0.999 . S
H4361 C4342 0.913 . S
H4362 C4380 0.951 . S
H4363 C4382 0.951 . S
H4364 C4384 0.950 . S
H4365 C4385 0.950 . S
H4366 C4387 0.950 . S
H4367 C4390 0.950 . S
H4368 C4391 0.950 . S
H4369 C4393 0.950 . S
H4370 C4394 0.950 . S
H4371 C4395 0.951 . S
H4372 C4397 0.951 . S
H4373 C4399 0.950 . S
H4374 C4400 0.950 . S
H4375 C4402 0.950 . S
H4376 C4405 0.950 . S
H4377 C4406 0.950 . S
H4378 C4408 0.950 . S
H4379 C4409 0.950 . S
C4380 H4362 0.951 . S
C4380 C4381 1.366 . S
C4380 C4382 1.388 . S
C4381 C4380 1.366 . S
C4381 C4385 1.385 . S
C4382 H4363 0.951 . S
C4382 C4380 1.388 . S
C4382 C4383 1.366 . S
C4383 C4382 1.366 . S
C4383 C4384 1.414 . S
C4383 C4386 1.499 . S
C4384 H4364 0.950 . S
C4384 C4383 1.414 . S
C4384 C4385 1.374 . S
C4385 H4365 0.950 . S
C4385 C4381 1.385 . S
C4385 C4384 1.374 . S
C4386 C4383 1.499 . S
C4386 C4387 1.373 . S
C4386 C4388 1.389 . S
C4387 H4366 0.950 . S
C4387 C4386 1.373 . S
C4387 C4403 1.377 . S
C4388 C4386 1.389 . S
C4388 C4389 1.524 . S
C4388 C4402 1.377 . S
C4389 C4388 1.524 . S
C4389 C4390 1.397 . S
C4389 C4394 1.363 . S
C4390 H4367 0.950 . S
C4390 C4389 1.397 . S
C4390 C4391 1.334 . S
C4391 H4368 0.950 . S
C4391 C4390 1.334 . S
C4391 C4392 1.287 . S
C4392 C4391 1.287 . S
C4392 C4393 1.524 . S
C4392 H4411 0.913 . S
C4393 H4369 0.950 . S
C4393 C4392 1.524 . S
C4393 C4394 1.415 . S
C4394 H4370 0.950 . S
C4394 C4389 1.363 . S
C4394 C4393 1.415 . S
C4395 H4371 0.951 . S
C4395 C4396 1.366 . S
C4395 C4397 1.388 . S
C4396 C4395 1.366 . S
C4396 C4400 1.385 . S
C4397 H4372 0.951 . S
C4397 C4395 1.388 . S
C4397 C4398 1.366 . S
C4398 C4397 1.366 . S
C4398 C4399 1.414 . S
C4398 C4401 1.499 . S
C4399 H4373 0.950 . S
C4399 C4398 1.414 . S
C4399 C4400 1.374 . S
C4400 H4374 0.950 . S
C4400 C4396 1.385 . S
C4400 C4399 1.374 . S
C4401 C4398 1.499 . S
C4401 C4402 1.373 . S
C4401 C4403 1.389 . S
C4402 H4375 0.950 . S
C4402 C4388 1.377 . S
C4402 C4401 1.373 . S
C4403 C4387 1.377 . S
C4403 C4401 1.389 . S
C4403 C4404 1.524 . S
C4404 C4403 1.524 . S
C4404 C4405 1.397 . S
C4404 C4409 1.363 . S
C4405 H4376 0.950 . S
C4405 C4404 1.397 . S
C4405 C4406 1.334 . S
C4406 H4377 0.950 . S
C4406 C4405 1.334 . S
C4406 C4407 1.287 . S
C4407 C4406 1.287 . S
C4407 C4408 1.524 . S
C4407 H4410 0.999 . S
C4408 H4378 0.950 . S
C4408 C4407 1.524 . S
C4408 C4409 1.415 . S
C4409 H4379 0.950 . S
C4409 C4404 1.363 . S
C4409 C4408 1.415 . S
H4410 C4407 0.999 . S
H4411 C4392 0.913 . S
H4412 C4430 0.951 . S
H4413 C4432 0.951 . S
H4414 C4434 0.950 . S
H4415 C4435 0.950 . S
H4416 C4437 0.950 . S
H4417 C4440 0.950 . S
H4418 C4441 0.950 . S
H4419 C4443 0.950 . S
H4420 C4444 0.950 . S
H4421 C4445 0.951 . S
H4422 C4447 0.951 . S
H4423 C4449 0.950 . S
H4424 C4450 0.950 . S
H4425 C4452 0.950 . S
H4426 C4455 0.950 . S
H4427 C4456 0.950 . S
H4428 C4458 0.950 . S
H4429 C4459 0.950 . S
C4430 H4412 0.951 . S
C4430 C4431 1.366 . S
C4430 C4432 1.388 . S
C4431 C4430 1.366 . S
C4431 C4435 1.385 . S
C4432 H4413 0.951 . S
C4432 C4430 1.388 . S
C4432 C4433 1.366 . S
C4433 C4432 1.366 . S
C4433 C4434 1.414 . S
C4433 C4436 1.499 . S
C4434 H4414 0.950 . S
C4434 C4433 1.414 . S
C4434 C4435 1.374 . S
C4435 H4415 0.950 . S
C4435 C4431 1.385 . S
C4435 C4434 1.374 . S
C4436 C4433 1.499 . S
C4436 C4437 1.373 . S
C4436 C4438 1.389 . S
C4437 H4416 0.950 . S
C4437 C4436 1.373 . S
C4437 C4453 1.377 . S
C4438 C4436 1.389 . S
C4438 C4439 1.524 . S
C4438 C4452 1.377 . S
C4439 C4438 1.524 . S
C4439 C4440 1.397 . S
C4439 C4444 1.363 . S
C4440 H4417 0.950 . S
C4440 C4439 1.397 . S
C4440 C4441 1.334 . S
C4441 H4418 0.950 . S
C4441 C4440 1.334 . S
C4441 C4442 1.287 . S
C4442 C4441 1.287 . S
C4442 C4443 1.524 . S
C4442 H4461 0.913 . S
C4443 H4419 0.950 . S
C4443 C4442 1.524 . S
C4443 C4444 1.415 . S
C4444 H4420 0.950 . S
C4444 C4439 1.363 . S
C4444 C4443 1.415 . S
C4445 H4421 0.951 . S
C4445 C4446 1.366 . S
C4445 C4447 1.388 . S
C4446 C4445 1.366 . S
C4446 C4450 1.385 . S
C4447 H4422 0.951 . S
C4447 C4445 1.388 . S
C4447 C4448 1.366 . S
C4448 C4447 1.366 . S
C4448 C4449 1.414 . S
C4448 C4451 1.499 . S
C4449 H4423 0.950 . S
C4449 C4448 1.414 . S
C4449 C4450 1.374 . S
C4450 H4424 0.950 . S
C4450 C4446 1.385 . S
C4450 C4449 1.374 . S
C4451 C4448 1.499 . S
C4451 C4452 1.373 . S
C4451 C4453 1.389 . S
C4452 H4425 0.950 . S
C4452 C4438 1.377 . S
C4452 C4451 1.373 . S
C4453 C4437 1.377 . S
C4453 C4451 1.389 . S
C4453 C4454 1.524 . S
C4454 C4453 1.524 . S
C4454 C4455 1.397 . S
C4454 C4459 1.363 . S
C4455 H4426 0.950 . S
C4455 C4454 1.397 . S
C4455 C4456 1.334 . S
C4456 H4427 0.950 . S
C4456 C4455 1.334 . S
C4456 C4457 1.287 . S
C4457 C4456 1.287 . S
C4457 C4458 1.524 . S
C4457 H4460 0.999 . S
C4458 H4428 0.950 . S
C4458 C4457 1.524 . S
C4458 C4459 1.415 . S
C4459 H4429 0.950 . S
C4459 C4454 1.363 . S
C4459 C4458 1.415 . S
H4460 C4457 0.999 . S
H4461 C4442 0.913 . S
H4462 C4480 0.951 . S
H4463 C4482 0.951 . S
H4464 C4484 0.950 . S
H4465 C4485 0.950 . S
H4466 C4487 0.950 . S
H4467 C4490 0.950 . S
H4468 C4491 0.950 . S
H4469 C4493 0.950 . S
H4470 C4494 0.950 . S
H4471 C4495 0.951 . S
H4472 C4497 0.951 . S
H4473 C4499 0.950 . S
H4474 C4500 0.950 . S
H4475 C4502 0.950 . S
H4476 C4505 0.950 . S
H4477 C4506 0.950 . S
H4478 C4508 0.950 . S
H4479 C4509 0.950 . S
C4480 H4462 0.951 . S
C4480 C4481 1.366 . S
C4480 C4482 1.388 . S
C4481 C4480 1.366 . S
C4481 C4485 1.385 . S
C4482 H4463 0.951 . S
C4482 C4480 1.388 . S
C4482 C4483 1.366 . S
C4483 C4482 1.366 . S
C4483 C4484 1.414 . S
C4483 C4486 1.499 . S
C4484 H4464 0.950 . S
C4484 C4483 1.414 . S
C4484 C4485 1.374 . S
C4485 H4465 0.950 . S
C4485 C4481 1.385 . S
C4485 C4484 1.374 . S
C4486 C4483 1.499 . S
C4486 C4487 1.373 . S
C4486 C4488 1.389 . S
C4487 H4466 0.950 . S
C4487 C4486 1.373 . S
C4487 C4503 1.377 . S
C4488 C4486 1.389 . S
C4488 C4489 1.524 . S
C4488 C4502 1.377 . S
C4489 C4488 1.524 . S
C4489 C4490 1.397 . S
C4489 C4494 1.363 . S
C4490 H4467 0.950 . S
C4490 C4489 1.397 . S
C4490 C4491 1.334 . S
C4491 H4468 0.950 . S
C4491 C4490 1.334 . S
C4491 C4492 1.287 . S
C4492 C4491 1.287 . S
C4492 C4493 1.524 . S
C4492 H4511 0.913 . S
C4493 H4469 0.950 . S
C4493 C4492 1.524 . S
C4493 C4494 1.415 . S
C4494 H4470 0.950 . S
C4494 C4489 1.363 . S
C4494 C4493 1.415 . S
C4495 H4471 0.951 . S
C4495 C4496 1.366 . S
C4495 C4497 1.388 . S
C4496 C4495 1.366 . S
C4496 C4500 1.385 . S
C4497 H4472 0.951 . S
C4497 C4495 1.388 . S
C4497 C4498 1.366 . S
C4498 C4497 1.366 . S
C4498 C4499 1.414 . S
C4498 C4501 1.499 . S
C4499 H4473 0.950 . S
C4499 C4498 1.414 . S
C4499 C4500 1.374 . S
C4500 H4474 0.950 . S
C4500 C4496 1.385 . S
C4500 C4499 1.374 . S
C4501 C4498 1.499 . S
C4501 C4502 1.373 . S
C4501 C4503 1.389 . S
C4502 H4475 0.950 . S
C4502 C4488 1.377 . S
C4502 C4501 1.373 . S
C4503 C4487 1.377 . S
C4503 C4501 1.389 . S
C4503 C4504 1.524 . S
C4504 C4503 1.524 . S
C4504 C4505 1.397 . S
C4504 C4509 1.363 . S
C4505 H4476 0.950 . S
C4505 C4504 1.397 . S
C4505 C4506 1.334 . S
C4506 H4477 0.950 . S
C4506 C4505 1.334 . S
C4506 C4507 1.287 . S
C4507 C4506 1.287 . S
C4507 C4508 1.524 . S
C4507 H4510 0.999 . S
C4508 H4478 0.950 . S
C4508 C4507 1.524 . S
C4508 C4509 1.415 . S
C4509 H4479 0.950 . S
C4509 C4504 1.363 . S
C4509 C4508 1.415 . S
H4510 C4507 0.999 . S
H4511 C4492 0.913 . S
H4512 C4530 0.951 . S
H4513 C4532 0.951 . S
H4514 C4534 0.950 . S
H4515 C4535 0.950 . S
H4516 C4537 0.950 . S
H4517 C4540 0.950 . S
H4518 C4541 0.950 . S
H4519 C4543 0.950 . S
H4520 C4544 0.950 . S
H4521 C4545 0.951 . S
H4522 C4547 0.951 . S
H4523 C4549 0.950 . S
H4524 C4550 0.950 . S
H4525 C4552 0.950 . S
H4526 C4555 0.950 . S
H4527 C4556 0.950 . S
H4528 C4558 0.950 . S
H4529 C4559 0.950 . S
C4530 H4512 0.951 . S
C4530 C4531 1.366 . S
C4530 C4532 1.388 . S
C4531 C4530 1.366 . S
C4531 C4535 1.385 . S
C4532 H4513 0.951 . S
C4532 C4530 1.388 . S
C4532 C4533 1.366 . S
C4533 C4532 1.366 . S
C4533 C4534 1.414 . S
C4533 C4536 1.499 . S
C4534 H4514 0.950 . S
C4534 C4533 1.414 . S
C4534 C4535 1.374 . S
C4535 H4515 0.950 . S
C4535 C4531 1.385 . S
C4535 C4534 1.374 . S
C4536 C4533 1.499 . S
C4536 C4537 1.373 . S
C4536 C4538 1.389 . S
C4537 H4516 0.950 . S
C4537 C4536 1.373 . S
C4537 C4553 1.377 . S
C4538 C4536 1.389 . S
C4538 C4539 1.524 . S
C4538 C4552 1.377 . S
C4539 C4538 1.524 . S
C4539 C4540 1.397 . S
C4539 C4544 1.363 . S
C4540 H4517 0.950 . S
C4540 C4539 1.397 . S
C4540 C4541 1.334 . S
C4541 H4518 0.950 . S
C4541 C4540 1.334 . S
C4541 C4542 1.287 . S
C4542 C4541 1.287 . S
C4542 C4543 1.524 . S
C4542 H4561 0.913 . S
C4543 H4519 0.950 . S
C4543 C4542 1.524 . S
C4543 C4544 1.415 . S
C4544 H4520 0.950 . S
C4544 C4539 1.363 . S
C4544 C4543 1.415 . S
C4545 H4521 0.951 . S
C4545 C4546 1.366 . S
C4545 C4547 1.388 . S
C4546 C4545 1.366 . S
C4546 C4550 1.385 . S
C4547 H4522 0.951 . S
C4547 C4545 1.388 . S
C4547 C4548 1.366 . S
C4548 C4547 1.366 . S
C4548 C4549 1.414 . S
C4548 C4551 1.499 . S
C4549 H4523 0.950 . S
C4549 C4548 1.414 . S
C4549 C4550 1.374 . S
C4550 H4524 0.950 . S
C4550 C4546 1.385 . S
C4550 C4549 1.374 . S
C4551 C4548 1.499 . S
C4551 C4552 1.373 . S
C4551 C4553 1.389 . S
C4552 H4525 0.950 . S
C4552 C4538 1.377 . S
C4552 C4551 1.373 . S
C4553 C4537 1.377 . S
C4553 C4551 1.389 . S
C4553 C4554 1.524 . S
C4554 C4553 1.524 . S
C4554 C4555 1.397 . S
C4554 C4559 1.363 . S
C4555 H4526 0.950 . S
C4555 C4554 1.397 . S
C4555 C4556 1.334 . S
C4556 H4527 0.950 . S
C4556 C4555 1.334 . S
C4556 C4557 1.287 . S
C4557 C4556 1.287 . S
C4557 C4558 1.524 . S
C4557 H4560 0.999 . S
C4558 H4528 0.950 . S
C4558 C4557 1.524 . S
C4558 C4559 1.415 . S
C4559 H4529 0.950 . S
C4559 C4554 1.363 . S
C4559 C4558 1.415 . S
H4560 C4557 0.999 . S
H4561 C4542 0.913 . S
H4562 C4580 0.951 . S
H4563 C4582 0.951 . S
H4564 C4584 0.950 . S
H4565 C4585 0.950 . S
H4566 C4587 0.950 . S
H4567 C4590 0.950 . S
H4568 C4591 0.950 . S
H4569 C4593 0.950 . S
H4570 C4594 0.950 . S
H4571 C4595 0.951 . S
H4572 C4597 0.951 . S
H4573 C4599 0.950 . S
H4574 C4600 0.950 . S
H4575 C4602 0.950 . S
H4576 C4605 0.950 . S
H4577 C4606 0.950 . S
H4578 C4608 0.950 . S
H4579 C4609 0.950 . S
C4580 H4562 0.951 . S
C4580 C4581 1.366 . S
C4580 C4582 1.388 . S
C4581 C4580 1.366 . S
C4581 C4585 1.385 . S
C4582 H4563 0.951 . S
C4582 C4580 1.388 . S
C4582 C4583 1.366 . S
C4583 C4582 1.366 . S
C4583 C4584 1.414 . S
C4583 C4586 1.499 . S
C4584 H4564 0.950 . S
C4584 C4583 1.414 . S
C4584 C4585 1.374 . S
C4585 H4565 0.950 . S
C4585 C4581 1.385 . S
C4585 C4584 1.374 . S
C4586 C4583 1.499 . S
C4586 C4587 1.373 . S
C4586 C4588 1.389 . S
C4587 H4566 0.950 . S
C4587 C4586 1.373 . S
C4587 C4603 1.377 . S
C4588 C4586 1.389 . S
C4588 C4589 1.524 . S
C4588 C4602 1.377 . S
C4589 C4588 1.524 . S
C4589 C4590 1.397 . S
C4589 C4594 1.363 . S
C4590 H4567 0.950 . S
C4590 C4589 1.397 . S
C4590 C4591 1.334 . S
C4591 H4568 0.950 . S
C4591 C4590 1.334 . S
C4591 C4592 1.287 . S
C4592 C4591 1.287 . S
C4592 C4593 1.524 . S
C4592 H4611 0.913 . S
C4593 H4569 0.950 . S
C4593 C4592 1.524 . S
C4593 C4594 1.415 . S
C4594 H4570 0.950 . S
C4594 C4589 1.363 . S
C4594 C4593 1.415 . S
C4595 H4571 0.951 . S
C4595 C4596 1.366 . S
C4595 C4597 1.388 . S
C4596 C4595 1.366 . S
C4596 C4600 1.385 . S
C4597 H4572 0.951 . S
C4597 C4595 1.388 . S
C4597 C4598 1.366 . S
C4598 C4597 1.366 . S
C4598 C4599 1.414 . S
C4598 C4601 1.499 . S
C4599 H4573 0.950 . S
C4599 C4598 1.414 . S
C4599 C4600 1.374 . S
C4600 H4574 0.950 . S
C4600 C4596 1.385 . S
C4600 C4599 1.374 . S
C4601 C4598 1.499 . S
C4601 C4602 1.373 . S
C4601 C4603 1.389 . S
C4602 H4575 0.950 . S
C4602 C4588 1.377 . S
C4602 C4601 1.373 . S
C4603 C4587 1.377 . S
C4603 C4601 1.389 . S
C4603 C4604 1.524 . S
C4604 C4603 1.524 . S
C4604 C4605 1.397 . S
C4604 C4609 1.363 . S
C4605 H4576 0.950 . S
C4605 C4604 1.397 . S
C4605 C4606 1.334 . S
C4606 H4577 0.950 . S
C4606 C4605 1.334 . S
C4606 C4607 1.287 . S
C4607 C4606 1.287 . S
C4607 C4608 1.524 . S
C4607 H4610 0.999 . S
C4608 H4578 0.950 . S
C4608 C4607 1.524 . S
C4608 C4609 1.415 . S
C4609 H4579 0.950 . S
C4609 C4604 1.363 . S
C4609 C4608 1.415 . S
H4610 C4607 0.999 . S
H4611 C4592 0.913 . S
H4612 C4630 0.951 . S
H4613 C4632 0.951 . S
H4614 C4634 0.950 . S
H4615 C4635 0.950 . S
H4616 C4637 0.950 . S
H4617 C4640 0.950 . S
H4618 C4641 0.950 . S
H4619 C4643 0.950 . S
H4620 C4644 0.950 . S
H4621 C4645 0.951 . S
H4622 C4647 0.951 . S
H4623 C4649 0.950 . S
H4624 C4650 0.950 . S
H4625 C4652 0.950 . S
H4626 C4655 0.950 . S
H4627 C4656 0.950 . S
H4628 C4658 0.950 . S
H4629 C4659 0.950 . S
C4630 H4612 0.951 . S
C4630 C4631 1.366 . S
C4630 C4632 1.388 . S
C4631 C4630 1.366 . S
C4631 C4635 1.385 . S
C4632 H4613 0.951 . S
C4632 C4630 1.388 . S
C4632 C4633 1.366 . S
C4633 C4632 1.366 . S
C4633 C4634 1.414 . S
C4633 C4636 1.499 . S
C4634 H4614 0.950 . S
C4634 C4633 1.414 . S
C4634 C4635 1.374 . S
C4635 H4615 0.950 . S
C4635 C4631 1.385 . S
C4635 C4634 1.374 . S
C4636 C4633 1.499 . S
C4636 C4637 1.373 . S
C4636 C4638 1.389 . S
C4637 H4616 0.950 . S
C4637 C4636 1.373 . S
C4637 C4653 1.377 . S
C4638 C4636 1.389 . S
C4638 C4639 1.524 . S
C4638 C4652 1.377 . S
C4639 C4638 1.524 . S
C4639 C4640 1.397 . S
C4639 C4644 1.363 . S
C4640 H4617 0.950 . S
C4640 C4639 1.397 . S
C4640 C4641 1.334 . S
C4641 H4618 0.950 . S
C4641 C4640 1.334 . S
C4641 C4642 1.287 . S
C4642 C4641 1.287 . S
C4642 C4643 1.524 . S
C4642 H4661 0.913 . S
C4643 H4619 0.950 . S
C4643 C4642 1.524 . S
C4643 C4644 1.415 . S
C4644 H4620 0.950 . S
C4644 C4639 1.363 . S
C4644 C4643 1.415 . S
C4645 H4621 0.951 . S
C4645 C4646 1.366 . S
C4645 C4647 1.388 . S
C4646 C4645 1.366 . S
C4646 C4650 1.385 . S
C4647 H4622 0.951 . S
C4647 C4645 1.388 . S
C4647 C4648 1.366 . S
C4648 C4647 1.366 . S
C4648 C4649 1.414 . S
C4648 C4651 1.499 . S
C4649 H4623 0.950 . S
C4649 C4648 1.414 . S
C4649 C4650 1.374 . S
C4650 H4624 0.950 . S
C4650 C4646 1.385 . S
C4650 C4649 1.374 . S
C4651 C4648 1.499 . S
C4651 C4652 1.373 . S
C4651 C4653 1.389 . S
C4652 H4625 0.950 . S
C4652 C4638 1.377 . S
C4652 C4651 1.373 . S
C4653 C4637 1.377 . S
C4653 C4651 1.389 . S
C4653 C4654 1.524 . S
C4654 C4653 1.524 . S
C4654 C4655 1.397 . S
C4654 C4659 1.363 . S
C4655 H4626 0.950 . S
C4655 C4654 1.397 . S
C4655 C4656 1.334 . S
C4656 H4627 0.950 . S
C4656 C4655 1.334 . S
C4656 C4657 1.287 . S
C4657 C4656 1.287 . S
C4657 C4658 1.524 . S
C4657 H4660 0.999 . S
C4658 H4628 0.950 . S
C4658 C4657 1.524 . S
C4658 C4659 1.415 . S
C4659 H4629 0.950 . S
C4659 C4654 1.363 . S
C4659 C4658 1.415 . S
H4660 C4657 0.999 . S
H4661 C4642 0.913 . S
H4662 C4680 0.951 . S
H4663 C4682 0.951 . S
H4664 C4684 0.950 . S
H4665 C4685 0.950 . S
H4666 C4687 0.950 . S
H4667 C4690 0.950 . S
H4668 C4691 0.950 . S
H4669 C4693 0.950 . S
H4670 C4694 0.950 . S
H4671 C4695 0.951 . S
H4672 C4697 0.951 . S
H4673 C4699 0.950 . S
H4674 C4700 0.950 . S
H4675 C4702 0.950 . S
H4676 C4705 0.950 . S
H4677 C4706 0.950 . S
H4678 C4708 0.950 . S
H4679 C4709 0.950 . S
C4680 H4662 0.951 . S
C4680 C4681 1.366 . S
C4680 C4682 1.388 . S
C4681 C4680 1.366 . S
C4681 C4685 1.385 . S
C4682 H4663 0.951 . S
C4682 C4680 1.388 . S
C4682 C4683 1.366 . S
C4683 C4682 1.366 . S
C4683 C4684 1.414 . S
C4683 C4686 1.499 . S
C4684 H4664 0.950 . S
C4684 C4683 1.414 . S
C4684 C4685 1.374 . S
C4685 H4665 0.950 . S
C4685 C4681 1.385 . S
C4685 C4684 1.374 . S
C4686 C4683 1.499 . S
C4686 C4687 1.373 . S
C4686 C4688 1.389 . S
C4687 H4666 0.950 . S
C4687 C4686 1.373 . S
C4687 C4703 1.377 . S
C4688 C4686 1.389 . S
C4688 C4689 1.524 . S
C4688 C4702 1.377 . S
C4689 C4688 1.524 . S
C4689 C4690 1.397 . S
C4689 C4694 1.363 . S
C4690 H4667 0.950 . S
C4690 C4689 1.397 . S
C4690 C4691 1.334 . S
C4691 H4668 0.950 . S
C4691 C4690 1.334 . S
C4691 C4692 1.287 . S
C4692 C4691 1.287 . S
C4692 C4693 1.524 . S
C4692 H4711 0.913 . S
C4693 H4669 0.950 . S
C4693 C4692 1.524 . S
C4693 C4694 1.415 . S
C4694 H4670 0.950 . S
C4694 C4689 1.363 . S
C4694 C4693 1.415 . S
C4695 H4671 0.951 . S
C4695 C4696 1.366 . S
C4695 C4697 1.388 . S
C4696 C4695 1.366 . S
C4696 C4700 1.385 . S
C4697 H4672 0.951 . S
C4697 C4695 1.388 . S
C4697 C4698 1.366 . S
C4698 C4697 1.366 . S
C4698 C4699 1.414 . S
C4698 C4701 1.499 . S
C4699 H4673 0.950 . S
C4699 C4698 1.414 . S
C4699 C4700 1.374 . S
C4700 H4674 0.950 . S
C4700 C4696 1.385 . S
C4700 C4699 1.374 . S
C4701 C4698 1.499 . S
C4701 C4702 1.373 . S
C4701 C4703 1.389 . S
C4702 H4675 0.950 . S
C4702 C4688 1.377 . S
C4702 C4701 1.373 . S
C4703 C4687 1.377 . S
C4703 C4701 1.389 . S
C4703 C4704 1.524 . S
C4704 C4703 1.524 . S
C4704 C4705 1.397 . S
C4704 C4709 1.363 . S
C4705 H4676 0.950 . S
C4705 C4704 1.397 . S
C4705 C4706 1.334 . S
C4706 H4677 0.950 . S
C4706 C4705 1.334 . S
C4706 C4707 1.287 . S
C4707 C4706 1.287 . S
C4707 C4708 1.524 . S
C4707 H4710 0.999 . S
C4708 H4678 0.950 . S
C4708 C4707 1.524 . S
C4708 C4709 1.415 . S
C4709 H4679 0.950 . S
C4709 C4704 1.363 . S
C4709 C4708 1.415 . S
H4710 C4707 0.999 . S
H4711 C4692 0.913 . S
H4712 C4730 0.951 . S
H4713 C4732 0.951 . S
H4714 C4734 0.950 . S
H4715 C4735 0.950 . S
H4716 C4737 0.950 . S
H4717 C4740 0.950 . S
H4718 C4741 0.950 . S
H4719 C4743 0.950 . S
H4720 C4744 0.950 . S
H4721 C4745 0.951 . S
H4722 C4747 0.951 . S
H4723 C4749 0.950 . S
H4724 C4750 0.950 . S
H4725 C4752 0.950 . S
H4726 C4755 0.950 . S
H4727 C4756 0.950 . S
H4728 C4758 0.950 . S
H4729 C4759 0.950 . S
C4730 H4712 0.951 . S
C4730 C4731 1.366 . S
C4730 C4732 1.388 . S
C4731 C4730 1.366 . S
C4731 C4735 1.385 . S
C4732 H4713 0.951 . S
C4732 C4730 1.388 . S
C4732 C4733 1.366 . S
C4733 C4732 1.366 . S
C4733 C4734 1.414 . S
C4733 C4736 1.499 . S
C4734 H4714 0.950 . S
C4734 C4733 1.414 . S
C4734 C4735 1.374 . S
C4735 H4715 0.950 . S
C4735 C4731 1.385 . S
C4735 C4734 1.374 . S
C4736 C4733 1.499 . S
C4736 C4737 1.373 . S
C4736 C4738 1.389 . S
C4737 H4716 0.950 . S
C4737 C4736 1.373 . S
C4737 C4753 1.377 . S
C4738 C4736 1.389 . S
C4738 C4739 1.524 . S
C4738 C4752 1.377 . S
C4739 C4738 1.524 . S
C4739 C4740 1.397 . S
C4739 C4744 1.363 . S
C4740 H4717 0.950 . S
C4740 C4739 1.397 . S
C4740 C4741 1.334 . S
C4741 H4718 0.950 . S
C4741 C4740 1.334 . S
C4741 C4742 1.287 . S
C4742 C4741 1.287 . S
C4742 C4743 1.524 . S
C4742 H4761 0.913 . S
C4743 H4719 0.950 . S
C4743 C4742 1.524 . S
C4743 C4744 1.415 . S
C4744 H4720 0.950 . S
C4744 C4739 1.363 . S
C4744 C4743 1.415 . S
C4745 H4721 0.951 . S
C4745 C4746 1.366 . S
C4745 C4747 1.388 . S
C4746 C4745 1.366 . S
C4746 C4750 1.385 . S
C4747 H4722 0.951 . S
C4747 C4745 1.388 . S
C4747 C4748 1.366 . S
C4748 C4747 1.366 . S
C4748 C4749 1.414 . S
C4748 C4751 1.499 . S
C4749 H4723 0.950 . S
C4749 C4748 1.414 . S
C4749 C4750 1.374 . S
C4750 H4724 0.950 . S
C4750 C4746 1.385 . S
C4750 C4749 1.374 . S
C4751 C4748 1.499 . S
C4751 C4752 1.373 . S
C4751 C4753 1.389 . S
C4752 H4725 0.950 . S
C4752 C4738 1.377 . S
C4752 C4751 1.373 . S
C4753 C4737 1.377 . S
C4753 C4751 1.389 . S
C4753 C4754 1.524 . S
C4754 C4753 1.524 . S
C4754 C4755 1.397 . S
C4754 C4759 1.363 . S
C4755 H4726 0.950 . S
C4755 C4754 1.397 . S
C4755 C4756 1.334 . S
C4756 H4727 0.950 . S
C4756 C4755 1.334 . S
C4756 C4757 1.287 . S
C4757 C4756 1.287 . S
C4757 C4758 1.524 . S
C4757 H4760 0.999 . S
C4758 H4728 0.950 . S
C4758 C4757 1.524 . S
C4758 C4759 1.415 . S
C4759 H4729 0.950 . S
C4759 C4754 1.363 . S
C4759 C4758 1.415 . S
H4760 C4757 0.999 . S
H4761 C4742 0.913 . S
H4762 C4780 0.951 . S
H4763 C4782 0.951 . S
H4764 C4784 0.950 . S
H4765 C4785 0.950 . S
H4766 C4787 0.950 . S
H4767 C4790 0.950 . S
H4768 C4791 0.950 . S
H4769 C4793 0.950 . S
H4770 C4794 0.950 . S
H4771 C4795 0.951 . S
H4772 C4797 0.951 . S
H4773 C4799 0.950 . S
H4774 C4800 0.950 . S
H4775 C4802 0.950 . S
H4776 C4805 0.950 . S
H4777 C4806 0.950 . S
H4778 C4808 0.950 . S
H4779 C4809 0.950 . S
C4780 H4762 0.951 . S
C4780 C4781 1.366 . S
C4780 C4782 1.388 . S
C4781 C4780 1.366 . S
C4781 C4785 1.385 . S
C4782 H4763 0.951 . S
C4782 C4780 1.388 . S
C4782 C4783 1.366 . S
C4783 C4782 1.366 . S
C4783 C4784 1.414 . S
C4783 C4786 1.499 . S
C4784 H4764 0.950 . S
C4784 C4783 1.414 . S
C4784 C4785 1.374 . S
C4785 H4765 0.950 . S
C4785 C4781 1.385 . S
C4785 C4784 1.374 . S
C4786 C4783 1.499 . S
C4786 C4787 1.373 . S
C4786 C4788 1.389 . S
C4787 H4766 0.950 . S
C4787 C4786 1.373 . S
C4787 C4803 1.377 . S
C4788 C4786 1.389 . S
C4788 C4789 1.524 . S
C4788 C4802 1.377 . S
C4789 C4788 1.524 . S
C4789 C4790 1.397 . S
C4789 C4794 1.363 . S
C4790 H4767 0.950 . S
C4790 C4789 1.397 . S
C4790 C4791 1.334 . S
C4791 H4768 0.950 . S
C4791 C4790 1.334 . S
C4791 C4792 1.287 . S
C4792 C4791 1.287 . S
C4792 C4793 1.524 . S
C4792 H4811 0.913 . S
C4793 H4769 0.950 . S
C4793 C4792 1.524 . S
C4793 C4794 1.415 . S
C4794 H4770 0.950 . S
C4794 C4789 1.363 . S
C4794 C4793 1.415 . S
C4795 H4771 0.951 . S
C4795 C4796 1.366 . S
C4795 C4797 1.388 . S
C4796 C4795 1.366 . S
C4796 C4800 1.385 . S
C4797 H4772 0.951 . S
C4797 C4795 1.388 . S
C4797 C4798 1.366 . S
C4798 C4797 1.366 . S
C4798 C4799 1.414 . S
C4798 C4801 1.499 . S
C4799 H4773 0.950 . S
C4799 C4798 1.414 . S
C4799 C4800 1.374 . S
C4800 H4774 0.950 . S
C4800 C4796 1.385 . S
C4800 C4799 1.374 . S
C4801 C4798 1.499 . S
C4801 C4802 1.373 . S
C4801 C4803 1.389 . S
C4802 H4775 0.950 . S
C4802 C4788 1.377 . S
C4802 C4801 1.373 . S
C4803 C4787 1.377 . S
C4803 C4801 1.389 . S
C4803 C4804 1.524 . S
C4804 C4803 1.524 . S
C4804 C4805 1.397 . S
C4804 C4809 1.363 . S
C4805 H4776 0.950 . S
C4805 C4804 1.397 . S
C4805 C4806 1.334 . S
C4806 H4777 0.950 . S
C4806 C4805 1.334 . S
C4806 C4807 1.287 . S
C4807 C4806 1.287 . S
C4807 C4808 1.524 . S
C4807 H4810 0.999 . S
C4808 H4778 0.950 . S
C4808 C4807 1.524 . S
C4808 C4809 1.415 . S
C4809 H4779 0.950 . S
C4809 C4804 1.363 . S
C4809 C4808 1.415 . S
H4810 C4807 0.999 . S
H4811 C4792 0.913 . S
H4812 C4830 0.951 . S
H4813 C4832 0.951 . S
H4814 C4834 0.950 . S
H4815 C4835 0.950 . S
H4816 C4837 0.950 . S
H4817 C4840 0.950 . S
H4818 C4841 0.950 . S
H4819 C4843 0.950 . S
H4820 C4844 0.950 . S
H4821 C4845 0.951 . S
H4822 C4847 0.951 . S
H4823 C4849 0.950 . S
H4824 C4850 0.950 . S
H4825 C4852 0.950 . S
H4826 C4855 0.950 . S
H4827 C4856 0.950 . S
H4828 C4858 0.950 . S
H4829 C4859 0.950 . S
C4830 H4812 0.951 . S
C4830 C4831 1.366 . S
C4830 C4832 1.388 . S
C4831 C4830 1.366 . S
C4831 C4835 1.385 . S
C4832 H4813 0.951 . S
C4832 C4830 1.388 . S
C4832 C4833 1.366 . S
C4833 C4832 1.366 . S
C4833 C4834 1.414 . S
C4833 C4836 1.499 . S
C4834 H4814 0.950 . S
C4834 C4833 1.414 . S
C4834 C4835 1.374 . S
C4835 H4815 0.950 . S
C4835 C4831 1.385 . S
C4835 C4834 1.374 . S
C4836 C4833 1.499 . S
C4836 C4837 1.373 . S
C4836 C4838 1.389 . S
C4837 H4816 0.950 . S
C4837 C4836 1.373 . S
C4837 C4853 1.377 . S
C4838 C4836 1.389 . S
C4838 C4839 1.524 . S
C4838 C4852 1.377 . S
C4839 C4838 1.524 . S
C4839 C4840 1.397 . S
C4839 C4844 1.363 . S
C4840 H4817 0.950 . S
C4840 C4839 1.397 . S
C4840 C4841 1.334 . S
C4841 H4818 0.950 . S
C4841 C4840 1.334 . S
C4841 C4842 1.287 . S
C4842 C4841 1.287 . S
C4842 C4843 1.524 . S
C4842 H4861 0.913 . S
C4843 H4819 0.950 . S
C4843 C4842 1.524 . S
C4843 C4844 1.415 . S
C4844 H4820 0.950 . S
C4844 C4839 1.363 . S
C4844 C4843 1.415 . S
C4845 H4821 0.951 . S
C4845 C4846 1.366 . S
C4845 C4847 1.388 . S
C4846 C4845 1.366 . S
C4846 C4850 1.385 . S
C4847 H4822 0.951 . S
C4847 C4845 1.388 . S
C4847 C4848 1.366 . S
C4848 C4847 1.366 . S
C4848 C4849 1.414 . S
C4848 C4851 1.499 . S
C4849 H4823 0.950 . S
C4849 C4848 1.414 . S
C4849 C4850 1.374 . S
C4850 H4824 0.950 . S
C4850 C4846 1.385 . S
C4850 C4849 1.374 . S
C4851 C4848 1.499 . S
C4851 C4852 1.373 . S
C4851 C4853 1.389 . S
C4852 H4825 0.950 . S
C4852 C4838 1.377 . S
C4852 C4851 1.373 . S
C4853 C4837 1.377 . S
C4853 C4851 1.389 . S
C4853 C4854 1.524 . S
C4854 C4853 1.524 . S
C4854 C4855 1.397 . S
C4854 C4859 1.363 . S
C4855 H4826 0.950 . S
C4855 C4854 1.397 . S
C4855 C4856 1.334 . S
C4856 H4827 0.950 . S
C4856 C4855 1.334 . S
C4856 C4857 1.287 . S
C4857 C4856 1.287 . S
C4857 C4858 1.524 . S
C4857 H4860 0.999 . S
C4858 H4828 0.950 . S
C4858 C4857 1.524 . S
C4858 C4859 1.415 . S
C4859 H4829 0.950 . S
C4859 C4854 1.363 . S
C4859 C4858 1.415 . S
H4860 C4857 0.999 . S
H4861 C4842 0.913 . S
H4862 C4880 0.951 . S
H4863 C4882 0.951 . S
H4864 C4884 0.950 . S
H4865 C4885 0.950 . S
H4866 C4887 0.950 . S
H4867 C4890 0.950 . S
H4868 C4891 0.950 . S
H4869 C4893 0.950 . S
H4870 C4894 0.950 . S
H4871 C4895 0.951 . S
H4872 C4897 0.951 . S
H4873 C4899 0.950 . S
H4874 C4900 0.950 . S
H4875 C4902 0.950 . S
H4876 C4905 0.950 . S
H4877 C4906 0.950 . S
H4878 C4908 0.950 . S
H4879 C4909 0.950 . S
C4880 H4862 0.951 . S
C4880 C4881 1.366 . S
C4880 C4882 1.388 . S
C4881 C4880 1.366 . S
C4881 C4885 1.385 . S
C4882 H4863 0.951 . S
C4882 C4880 1.388 . S
C4882 C4883 1.366 . S
C4883 C4882 1.366 . S
C4883 C4884 1.414 . S
C4883 C4886 1.499 . S
C4884 H4864 0.950 . S
C4884 C4883 1.414 . S
C4884 C4885 1.374 . S
C4885 H4865 0.950 . S
C4885 C4881 1.385 . S
C4885 C4884 1.374 . S
C4886 C4883 1.499 . S
C4886 C4887 1.373 . S
C4886 C4888 1.389 . S
C4887 H4866 0.950 . S
C4887 C4886 1.373 . S
C4887 C4903 1.377 . S
C4888 C4886 1.389 . S
C4888 C4889 1.524 . S
C4888 C4902 1.377 . S
C4889 C4888 1.524 . S
C4889 C4890 1.397 . S
C4889 C4894 1.363 . S
C4890 H4867 0.950 . S
C4890 C4889 1.397 . S
C4890 C4891 1.334 . S
C4891 H4868 0.950 . S
C4891 C4890 1.334 . S
C4891 C4892 1.287 . S
C4892 C4891 1.287 . S
C4892 C4893 1.524 . S
C4892 H4911 0.913 . S
C4893 H4869 0.950 . S
C4893 C4892 1.524 . S
C4893 C4894 1.415 . S
C4894 H4870 0.950 . S
C4894 C4889 1.363 . S
C4894 C4893 1.415 . S
C4895 H4871 0.951 . S
C4895 C4896 1.366 . S
C4895 C4897 1.388 . S
C4896 C4895 1.366 . S
C4896 C4900 1.385 . S
C4897 H4872 0.951 . S
C4897 C4895 1.388 . S
C4897 C4898 1.366 . S
C4898 C4897 1.366 . S
C4898 C4899 1.414 . S
C4898 C4901 1.499 . S
C4899 H4873 0.950 . S
C4899 C4898 1.414 . S
C4899 C4900 1.374 . S
C4900 H4874 0.950 . S
C4900 C4896 1.385 . S
C4900 C4899 1.374 . S
C4901 C4898 1.499 . S
C4901 C4902 1.373 . S
C4901 C4903 1.389 . S
C4902 H4875 0.950 . S
C4902 C4888 1.377 . S
C4902 C4901 1.373 . S
C4903 C4887 1.377 . S
C4903 C4901 1.389 . S
C4903 C4904 1.524 . S
C4904 C4903 1.524 . S
C4904 C4905 1.397 . S
C4904 C4909 1.363 . S
C4905 H4876 0.950 . S
C4905 C4904 1.397 . S
C4905 C4906 1.334 . S
C4906 H4877 0.950 . S
C4906 C4905 1.334 . S
C4906 C4907 1.287 . S
C4907 C4906 1.287 . S
C4907 C4908 1.524 . S
C4907 H4910 0.999 . S
C4908 H4878 0.950 . S
C4908 C4907 1.524 . S
C4908 C4909 1.415 . S
C4909 H4879 0.950 . S
C4909 C4904 1.363 . S
C4909 C4908 1.415 . S
H4910 C4907 0.999 . S
H4911 C4892 0.913 . S
H4912 C4930 0.951 . S
H4913 C4932 0.951 . S
H4914 C4934 0.950 . S
H4915 C4935 0.950 . S
H4916 C4937 0.950 . S
H4917 C4940 0.950 . S
H4918 C4941 0.950 . S
H4919 C4943 0.950 . S
H4920 C4944 0.950 . S
H4921 C4945 0.951 . S
H4922 C4947 0.951 . S
H4923 C4949 0.950 . S
H4924 C4950 0.950 . S
H4925 C4952 0.950 . S
H4926 C4955 0.950 . S
H4927 C4956 0.950 . S
H4928 C4958 0.950 . S
H4929 C4959 0.950 . S
C4930 H4912 0.951 . S
C4930 C4931 1.366 . S
C4930 C4932 1.388 . S
C4931 C4930 1.366 . S
C4931 C4935 1.385 . S
C4932 H4913 0.951 . S
C4932 C4930 1.388 . S
C4932 C4933 1.366 . S
C4933 C4932 1.366 . S
C4933 C4934 1.414 . S
C4933 C4936 1.499 . S
C4934 H4914 0.950 . S
C4934 C4933 1.414 . S
C4934 C4935 1.374 . S
C4935 H4915 0.950 . S
C4935 C4931 1.385 . S
C4935 C4934 1.374 . S
C4936 C4933 1.499 . S
C4936 C4937 1.373 . S
C4936 C4938 1.389 . S
C4937 H4916 0.950 . S
C4937 C4936 1.373 . S
C4937 C4953 1.377 . S
C4938 C4936 1.389 . S
C4938 C4939 1.524 . S
C4938 C4952 1.377 . S
C4939 C4938 1.524 . S
C4939 C4940 1.397 . S
C4939 C4944 1.363 . S
C4940 H4917 0.950 . S
C4940 C4939 1.397 . S
C4940 C4941 1.334 . S
C4941 H4918 0.950 . S
C4941 C4940 1.334 . S
C4941 C4942 1.287 . S
C4942 C4941 1.287 . S
C4942 C4943 1.524 . S
C4942 H4961 0.913 . S
C4943 H4919 0.950 . S
C4943 C4942 1.524 . S
C4943 C4944 1.415 . S
C4944 H4920 0.950 . S
C4944 C4939 1.363 . S
C4944 C4943 1.415 . S
C4945 H4921 0.951 . S
C4945 C4946 1.366 . S
C4945 C4947 1.388 . S
C4946 C4945 1.366 . S
C4946 C4950 1.385 . S
C4947 H4922 0.951 . S
C4947 C4945 1.388 . S
C4947 C4948 1.366 . S
C4948 C4947 1.366 . S
C4948 C4949 1.414 . S
C4948 C4951 1.499 . S
C4949 H4923 0.950 . S
C4949 C4948 1.414 . S
C4949 C4950 1.374 . S
C4950 H4924 0.950 . S
C4950 C4946 1.385 . S
C4950 C4949 1.374 . S
C4951 C4948 1.499 . S
C4951 C4952 1.373 . S
C4951 C4953 1.389 . S
C4952 H4925 0.950 . S
C4952 C4938 1.377 . S
C4952 C4951 1.373 . S
C4953 C4937 1.377 . S
C4953 C4951 1.389 . S
C4953 C4954 1.524 . S
C4954 C4953 1.524 . S
C4954 C4955 1.397 . S
C4954 C4959 1.363 . S
C4955 H4926 0.950 . S
C4955 C4954 1.397 . S
C4955 C4956 1.334 . S
C4956 H4927 0.950 . S
C4956 C4955 1.334 . S
C4956 C4957 1.287 . S
C4957 C4956 1.287 . S
C4957 C4958 1.524 . S
C4957 H4960 0.999 . S
C4958 H4928 0.950 . S
C4958 C4957 1.524 . S
C4958 C4959 1.415 . S
C4959 H4929 0.950 . S
C4959 C4954 1.363 . S
C4959 C4958 1.415 . S
H4960 C4957 0.999 . S
H4961 C4942 0.913 . S
H4962 C4980 0.951 . S
H4963 C4982 0.951 . S
H4964 C4984 0.950 . S
H4965 C4985 0.950 . S
H4966 C4987 0.950 . S
H4967 C4990 0.950 . S
H4968 C4991 0.950 . S
H4969 C4993 0.950 . S
H4970 C4994 0.950 . S
H4971 C4995 0.951 . S
H4972 C4997 0.951 . S
H4973 C4999 0.950 . S
H4974 C5000 0.950 . S
H4975 C5002 0.950 . S
H4976 C5005 0.950 . S
H4977 C5006 0.950 . S
H4978 C5008 0.950 . S
H4979 C5009 0.950 . S
C4980 H4962 0.951 . S
C4980 C4981 1.366 . S
C4980 C4982 1.388 . S
C4981 C4980 1.366 . S
C4981 C4985 1.385 . S
C4982 H4963 0.951 . S
C4982 C4980 1.388 . S
C4982 C4983 1.366 . S
C4983 C4982 1.366 . S
C4983 C4984 1.414 . S
C4983 C4986 1.499 . S
C4984 H4964 0.950 . S
C4984 C4983 1.414 . S
C4984 C4985 1.374 . S
C4985 H4965 0.950 . S
C4985 C4981 1.385 . S
C4985 C4984 1.374 . S
C4986 C4983 1.499 . S
C4986 C4987 1.373 . S
C4986 C4988 1.389 . S
C4987 H4966 0.950 . S
C4987 C4986 1.373 . S
C4987 C5003 1.377 . S
C4988 C4986 1.389 . S
C4988 C4989 1.524 . S
C4988 C5002 1.377 . S
C4989 C4988 1.524 . S
C4989 C4990 1.397 . S
C4989 C4994 1.363 . S
C4990 H4967 0.950 . S
C4990 C4989 1.397 . S
C4990 C4991 1.334 . S
C4991 H4968 0.950 . S
C4991 C4990 1.334 . S
C4991 C4992 1.287 . S
C4992 C4991 1.287 . S
C4992 C4993 1.524 . S
C4992 H5011 0.913 . S
C4993 H4969 0.950 . S
C4993 C4992 1.524 . S
C4993 C4994 1.415 . S
C4994 H4970 0.950 . S
C4994 C4989 1.363 . S
C4994 C4993 1.415 . S
C4995 H4971 0.951 . S
C4995 C4996 1.366 . S
C4995 C4997 1.388 . S
C4996 C4995 1.366 . S
C4996 C5000 1.385 . S
C4997 H4972 0.951 . S
C4997 C4995 1.388 . S
C4997 C4998 1.366 . S
C4998 C4997 1.366 . S
C4998 C4999 1.414 . S
C4998 C5001 1.499 . S
C4999 H4973 0.950 . S
C4999 C4998 1.414 . S
C4999 C5000 1.374 . S
C5000 H4974 0.950 . S
C5000 C4996 1.385 . S
C5000 C4999 1.374 . S
C5001 C4998 1.499 . S
C5001 C5002 1.373 . S
C5001 C5003 1.389 . S
C5002 H4975 0.950 . S
C5002 C4988 1.377 . S
C5002 C5001 1.373 . S
C5003 C4987 1.377 . S
C5003 C5001 1.389 . S
C5003 C5004 1.524 . S
C5004 C5003 1.524 . S
C5004 C5005 1.397 . S
C5004 C5009 1.363 . S
C5005 H4976 0.950 . S
C5005 C5004 1.397 . S
C5005 C5006 1.334 . S
C5006 H4977 0.950 . S
C5006 C5005 1.334 . S
C5006 C5007 1.287 . S
C5007 C5006 1.287 . S
C5007 C5008 1.524 . S
C5007 H5010 0.999 . S
C5008 H4978 0.950 . S
C5008 C5007 1.524 . S
C5008 C5009 1.415 . S
C5009 H4979 0.950 . S
C5009 C5004 1.363 . S
C5009 C5008 1.415 . S
H5010 C5007 0.999 . S
H5011 C4992 0.913 . S
H5012 C5030 0.951 . S
H5013 C5032 0.951 . S
H5014 C5034 0.950 . S
H5015 C5035 0.950 . S
H5016 C5037 0.950 . S
H5017 C5040 0.950 . S
H5018 C5041 0.950 . S
H5019 C5043 0.950 . S
H5020 C5044 0.950 . S
H5021 C5045 0.951 . S
H5022 C5047 0.951 . S
H5023 C5049 0.950 . S
H5024 C5050 0.950 . S
H5025 C5052 0.950 . S
H5026 C5055 0.950 . S
H5027 C5056 0.950 . S
H5028 C5058 0.950 . S
H5029 C5059 0.950 . S
C5030 H5012 0.951 . S
C5030 C5031 1.366 . S
C5030 C5032 1.388 . S
C5031 C5030 1.366 . S
C5031 C5035 1.385 . S
C5032 H5013 0.951 . S
C5032 C5030 1.388 . S
C5032 C5033 1.366 . S
C5033 C5032 1.366 . S
C5033 C5034 1.414 . S
C5033 C5036 1.499 . S
C5034 H5014 0.950 . S
C5034 C5033 1.414 . S
C5034 C5035 1.374 . S
C5035 H5015 0.950 . S
C5035 C5031 1.385 . S
C5035 C5034 1.374 . S
C5036 C5033 1.499 . S
C5036 C5037 1.373 . S
C5036 C5038 1.389 . S
C5037 H5016 0.950 . S
C5037 C5036 1.373 . S
C5037 C5053 1.377 . S
C5038 C5036 1.389 . S
C5038 C5039 1.524 . S
C5038 C5052 1.377 . S
C5039 C5038 1.524 . S
C5039 C5040 1.397 . S
C5039 C5044 1.363 . S
C5040 H5017 0.950 . S
C5040 C5039 1.397 . S
C5040 C5041 1.334 . S
C5041 H5018 0.950 . S
C5041 C5040 1.334 . S
C5041 C5042 1.287 . S
C5042 C5041 1.287 . S
C5042 C5043 1.524 . S
C5042 H5061 0.913 . S
C5043 H5019 0.950 . S
C5043 C5042 1.524 . S
C5043 C5044 1.415 . S
C5044 H5020 0.950 . S
C5044 C5039 1.363 . S
C5044 C5043 1.415 . S
C5045 H5021 0.951 . S
C5045 C5046 1.366 . S
C5045 C5047 1.388 . S
C5046 C5045 1.366 . S
C5046 C5050 1.385 . S
C5047 H5022 0.951 . S
C5047 C5045 1.388 . S
C5047 C5048 1.366 . S
C5048 C5047 1.366 . S
C5048 C5049 1.414 . S
C5048 C5051 1.499 . S
C5049 H5023 0.950 . S
C5049 C5048 1.414 . S
C5049 C5050 1.374 . S
C5050 H5024 0.950 . S
C5050 C5046 1.385 . S
C5050 C5049 1.374 . S
C5051 C5048 1.499 . S
C5051 C5052 1.373 . S
C5051 C5053 1.389 . S
C5052 H5025 0.950 . S
C5052 C5038 1.377 . S
C5052 C5051 1.373 . S
C5053 C5037 1.377 . S
C5053 C5051 1.389 . S
C5053 C5054 1.524 . S
C5054 C5053 1.524 . S
C5054 C5055 1.397 . S
C5054 C5059 1.363 . S
C5055 H5026 0.950 . S
C5055 C5054 1.397 . S
C5055 C5056 1.334 . S
C5056 H5027 0.950 . S
C5056 C5055 1.334 . S
C5056 C5057 1.287 . S
C5057 C5056 1.287 . S
C5057 C5058 1.524 . S
C5057 H5060 0.999 . S
C5058 H5028 0.950 . S
C5058 C5057 1.524 . S
C5058 C5059 1.415 . S
C5059 H5029 0.950 . S
C5059 C5054 1.363 . S
C5059 C5058 1.415 . S
H5060 C5057 0.999 . S
H5061 C5042 0.913 . S
H5062 C5080 0.951 . S
H5063 C5082 0.951 . S
H5064 C5084 0.950 . S
H5065 C5085 0.950 . S
H5066 C5087 0.950 . S
H5067 C5090 0.950 . S
H5068 C5091 0.950 . S
H5069 C5093 0.950 . S
H5070 C5094 0.950 . S
H5071 C5095 0.951 . S
H5072 C5097 0.951 . S
H5073 C5099 0.950 . S
H5074 C5100 0.950 . S
H5075 C5102 0.950 . S
H5076 C5105 0.950 . S
H5077 C5106 0.950 . S
H5078 C5108 0.950 . S
H5079 C5109 0.950 . S
C5080 H5062 0.951 . S
C5080 C5081 1.366 . S
C5080 C5082 1.388 . S
C5081 C5080 1.366 . S
C5081 C5085 1.385 . S
C5082 H5063 0.951 . S
C5082 C5080 1.388 . S
C5082 C5083 1.366 . S
C5083 C5082 1.366 . S
C5083 C5084 1.414 . S
C5083 C5086 1.499 . S
C5084 H5064 0.950 . S
C5084 C5083 1.414 . S
C5084 C5085 1.374 . S
C5085 H5065 0.950 . S
C5085 C5081 1.385 . S
C5085 C5084 1.374 . S
C5086 C5083 1.499 . S
C5086 C5087 1.373 . S
C5086 C5088 1.389 . S
C5087 H5066 0.950 . S
C5087 C5086 1.373 . S
C5087 C5103 1.377 . S
C5088 C5086 1.389 . S
C5088 C5089 1.524 . S
C5088 C5102 1.377 . S
C5089 C5088 1.524 . S
C5089 C5090 1.397 . S
C5089 C5094 1.363 . S
C5090 H5067 0.950 . S
C5090 C5089 1.397 . S
C5090 C5091 1.334 . S
C5091 H5068 0.950 . S
C5091 C5090 1.334 . S
C5091 C5092 1.287 . S
C5092 C5091 1.287 . S
C5092 C5093 1.524 . S
C5092 H5111 0.913 . S
C5093 H5069 0.950 . S
C5093 C5092 1.524 . S
C5093 C5094 1.415 . S
C5094 H5070 0.950 . S
C5094 C5089 1.363 . S
C5094 C5093 1.415 . S
C5095 H5071 0.951 . S
C5095 C5096 1.366 . S
C5095 C5097 1.388 . S
C5096 C5095 1.366 . S
C5096 C5100 1.385 . S
C5097 H5072 0.951 . S
C5097 C5095 1.388 . S
C5097 C5098 1.366 . S
C5098 C5097 1.366 . S
C5098 C5099 1.414 . S
C5098 C5101 1.499 . S
C5099 H5073 0.950 . S
C5099 C5098 1.414 . S
C5099 C5100 1.374 . S
C5100 H5074 0.950 . S
C5100 C5096 1.385 . S
C5100 C5099 1.374 . S
C5101 C5098 1.499 . S
C5101 C5102 1.373 . S
C5101 C5103 1.389 . S
C5102 H5075 0.950 . S
C5102 C5088 1.377 . S
C5102 C5101 1.373 . S
C5103 C5087 1.377 . S
C5103 C5101 1.389 . S
C5103 C5104 1.524 . S
C5104 C5103 1.524 . S
C5104 C5105 1.397 . S
C5104 C5109 1.363 . S
C5105 H5076 0.950 . S
C5105 C5104 1.397 . S
C5105 C5106 1.334 . S
C5106 H5077 0.950 . S
C5106 C5105 1.334 . S
C5106 C5107 1.287 . S
C5107 C5106 1.287 . S
C5107 C5108 1.524 . S
C5107 H5110 0.999 . S
C5108 H5078 0.950 . S
C5108 C5107 1.524 . S
C5108 C5109 1.415 . S
C5109 H5079 0.950 . S
C5109 C5104 1.363 . S
C5109 C5108 1.415 . S
H5110 C5107 0.999 . S
H5111 C5092 0.913 . S
H5112 C5130 0.951 . S
H5113 C5132 0.951 . S
H5114 C5134 0.950 . S
H5115 C5135 0.950 . S
H5116 C5137 0.950 . S
H5117 C5140 0.950 . S
H5118 C5141 0.950 . S
H5119 C5143 0.950 . S
H5120 C5144 0.950 . S
H5121 C5145 0.951 . S
H5122 C5147 0.951 . S
H5123 C5149 0.950 . S
H5124 C5150 0.950 . S
H5125 C5152 0.950 . S
H5126 C5155 0.950 . S
H5127 C5156 0.950 . S
H5128 C5158 0.950 . S
H5129 C5159 0.950 . S
C5130 H5112 0.951 . S
C5130 C5131 1.366 . S
C5130 C5132 1.388 . S
C5131 C5130 1.366 . S
C5131 C5135 1.385 . S
C5132 H5113 0.951 . S
C5132 C5130 1.388 . S
C5132 C5133 1.366 . S
C5133 C5132 1.366 . S
C5133 C5134 1.414 . S
C5133 C5136 1.499 . S
C5134 H5114 0.950 . S
C5134 C5133 1.414 . S
C5134 C5135 1.374 . S
C5135 H5115 0.950 . S
C5135 C5131 1.385 . S
C5135 C5134 1.374 . S
C5136 C5133 1.499 . S
C5136 C5137 1.373 . S
C5136 C5138 1.389 . S
C5137 H5116 0.950 . S
C5137 C5136 1.373 . S
C5137 C5153 1.377 . S
C5138 C5136 1.389 . S
C5138 C5139 1.524 . S
C5138 C5152 1.377 . S
C5139 C5138 1.524 . S
C5139 C5140 1.397 . S
C5139 C5144 1.363 . S
C5140 H5117 0.950 . S
C5140 C5139 1.397 . S
C5140 C5141 1.334 . S
C5141 H5118 0.950 . S
C5141 C5140 1.334 . S
C5141 C5142 1.287 . S
C5142 C5141 1.287 . S
C5142 C5143 1.524 . S
C5142 H5161 0.913 . S
C5143 H5119 0.950 . S
C5143 C5142 1.524 . S
C5143 C5144 1.415 . S
C5144 H5120 0.950 . S
C5144 C5139 1.363 . S
C5144 C5143 1.415 . S
C5145 H5121 0.951 . S
C5145 C5146 1.366 . S
C5145 C5147 1.388 . S
C5146 C5145 1.366 . S
C5146 C5150 1.385 . S
C5147 H5122 0.951 . S
C5147 C5145 1.388 . S
C5147 C5148 1.366 . S
C5148 C5147 1.366 . S
C5148 C5149 1.414 . S
C5148 C5151 1.499 . S
C5149 H5123 0.950 . S
C5149 C5148 1.414 . S
C5149 C5150 1.374 . S
C5150 H5124 0.950 . S
C5150 C5146 1.385 . S
C5150 C5149 1.374 . S
C5151 C5148 1.499 . S
C5151 C5152 1.373 . S
C5151 C5153 1.389 . S
C5152 H5125 0.950 . S
C5152 C5138 1.377 . S
C5152 C5151 1.373 . S
C5153 C5137 1.377 . S
C5153 C5151 1.389 . S
C5153 C5154 1.524 . S
C5154 C5153 1.524 . S
C5154 C5155 1.397 . S
C5154 C5159 1.363 . S
C5155 H5126 0.950 . S
C5155 C5154 1.397 . S
C5155 C5156 1.334 . S
C5156 H5127 0.950 . S
C5156 C5155 1.334 . S
C5156 C5157 1.287 . S
C5157 C5156 1.287 . S
C5157 C5158 1.524 . S
C5157 H5160 0.999 . S
C5158 H5128 0.950 . S
C5158 C5157 1.524 . S
C5158 C5159 1.415 . S
C5159 H5129 0.950 . S
C5159 C5154 1.363 . S
C5159 C5158 1.415 . S
H5160 C5157 0.999 . S
H5161 C5142 0.913 . S
H5162 C5180 0.951 . S
H5163 C5182 0.951 . S
H5164 C5184 0.950 . S
H5165 C5185 0.950 . S
H5166 C5187 0.950 . S
H5167 C5190 0.950 . S
H5168 C5191 0.950 . S
H5169 C5193 0.950 . S
H5170 C5194 0.950 . S
H5171 C5195 0.951 . S
H5172 C5197 0.951 . S
H5173 C5199 0.950 . S
H5174 C5200 0.950 . S
H5175 C5202 0.950 . S
H5176 C5205 0.950 . S
H5177 C5206 0.950 . S
H5178 C5208 0.950 . S
H5179 C5209 0.950 . S
C5180 H5162 0.951 . S
C5180 C5181 1.366 . S
C5180 C5182 1.388 . S
C5181 C5180 1.366 . S
C5181 C5185 1.385 . S
C5182 H5163 0.951 . S
C5182 C5180 1.388 . S
C5182 C5183 1.366 . S
C5183 C5182 1.366 . S
C5183 C5184 1.414 . S
C5183 C5186 1.499 . S
C5184 H5164 0.950 . S
C5184 C5183 1.414 . S
C5184 C5185 1.374 . S
C5185 H5165 0.950 . S
C5185 C5181 1.385 . S
C5185 C5184 1.374 . S
C5186 C5183 1.499 . S
C5186 C5187 1.373 . S
C5186 C5188 1.389 . S
C5187 H5166 0.950 . S
C5187 C5186 1.373 . S
C5187 C5203 1.377 . S
C5188 C5186 1.389 . S
C5188 C5189 1.524 . S
C5188 C5202 1.377 . S
C5189 C5188 1.524 . S
C5189 C5190 1.397 . S
C5189 C5194 1.363 . S
C5190 H5167 0.950 . S
C5190 C5189 1.397 . S
C5190 C5191 1.334 . S
C5191 H5168 0.950 . S
C5191 C5190 1.334 . S
C5191 C5192 1.287 . S
C5192 C5191 1.287 . S
C5192 C5193 1.524 . S
C5192 H5211 0.913 . S
C5193 H5169 0.950 . S
C5193 C5192 1.524 . S
C5193 C5194 1.415 . S
C5194 H5170 0.950 . S
C5194 C5189 1.363 . S
C5194 C5193 1.415 . S
C5195 H5171 0.951 . S
C5195 C5196 1.366 . S
C5195 C5197 1.388 . S
C5196 C5195 1.366 . S
C5196 C5200 1.385 . S
C5197 H5172 0.951 . S
C5197 C5195 1.388 . S
C5197 C5198 1.366 . S
C5198 C5197 1.366 . S
C5198 C5199 1.414 . S
C5198 C5201 1.499 . S
C5199 H5173 0.950 . S
C5199 C5198 1.414 . S
C5199 C5200 1.374 . S
C5200 H5174 0.950 . S
C5200 C5196 1.385 . S
C5200 C5199 1.374 . S
C5201 C5198 1.499 . S
C5201 C5202 1.373 . S
C5201 C5203 1.389 . S
C5202 H5175 0.950 . S
C5202 C5188 1.377 . S
C5202 C5201 1.373 . S
C5203 C5187 1.377 . S
C5203 C5201 1.389 . S
C5203 C5204 1.524 . S
C5204 C5203 1.524 . S
C5204 C5205 1.397 . S
C5204 C5209 1.363 . S
C5205 H5176 0.950 . S
C5205 C5204 1.397 . S
C5205 C5206 1.334 . S
C5206 H5177 0.950 . S
C5206 C5205 1.334 . S
C5206 C5207 1.287 . S
C5207 C5206 1.287 . S
C5207 C5208 1.524 . S
C5207 H5210 0.999 . S
C5208 H5178 0.950 . S
C5208 C5207 1.524 . S
C5208 C5209 1.415 . S
C5209 H5179 0.950 . S
C5209 C5204 1.363 . S
C5209 C5208 1.415 . S
H5210 C5207 0.999 . S
H5211 C5192 0.913 . S
H5212 C5230 0.951 . S
H5213 C5232 0.951 . S
H5214 C5234 0.950 . S
H5215 C5235 0.950 . S
H5216 C5237 0.950 . S
H5217 C5240 0.950 . S
H5218 C5241 0.950 . S
H5219 C5243 0.950 . S
H5220 C5244 0.950 . S
H5221 C5245 0.951 . S
H5222 C5247 0.951 . S
H5223 C5249 0.950 . S
H5224 C5250 0.950 . S
H5225 C5252 0.950 . S
H5226 C5255 0.950 . S
H5227 C5256 0.950 . S
H5228 C5258 0.950 . S
H5229 C5259 0.950 . S
C5230 H5212 0.951 . S
C5230 C5231 1.366 . S
C5230 C5232 1.388 . S
C5231 C5230 1.366 . S
C5231 C5235 1.385 . S
C5232 H5213 0.951 . S
C5232 C5230 1.388 . S
C5232 C5233 1.366 . S
C5233 C5232 1.366 . S
C5233 C5234 1.414 . S
C5233 C5236 1.499 . S
C5234 H5214 0.950 . S
C5234 C5233 1.414 . S
C5234 C5235 1.374 . S
C5235 H5215 0.950 . S
C5235 C5231 1.385 . S
C5235 C5234 1.374 . S
C5236 C5233 1.499 . S
C5236 C5237 1.373 . S
C5236 C5238 1.389 . S
C5237 H5216 0.950 . S
C5237 C5236 1.373 . S
C5237 C5253 1.377 . S
C5238 C5236 1.389 . S
C5238 C5239 1.524 . S
C5238 C5252 1.377 . S
C5239 C5238 1.524 . S
C5239 C5240 1.397 . S
C5239 C5244 1.363 . S
C5240 H5217 0.950 . S
C5240 C5239 1.397 . S
C5240 C5241 1.334 . S
C5241 H5218 0.950 . S
C5241 C5240 1.334 . S
C5241 C5242 1.287 . S
C5242 C5241 1.287 . S
C5242 C5243 1.524 . S
C5242 H5261 0.913 . S
C5243 H5219 0.950 . S
C5243 C5242 1.524 . S
C5243 C5244 1.415 . S
C5244 H5220 0.950 . S
C5244 C5239 1.363 . S
C5244 C5243 1.415 . S
C5245 H5221 0.951 . S
C5245 C5246 1.366 . S
C5245 C5247 1.388 . S
C5246 C5245 1.366 . S
C5246 C5250 1.385 . S
C5247 H5222 0.951 . S
C5247 C5245 1.388 . S
C5247 C5248 1.366 . S
C5248 C5247 1.366 . S
C5248 C5249 1.414 . S
C5248 C5251 1.499 . S
C5249 H5223 0.950 . S
C5249 C5248 1.414 . S
C5249 C5250 1.374 . S
C5250 H5224 0.950 . S
C5250 C5246 1.385 . S
C5250 C5249 1.374 . S
C5251 C5248 1.499 . S
C5251 C5252 1.373 . S
C5251 C5253 1.389 . S
C5252 H5225 0.950 . S
C5252 C5238 1.377 . S
C5252 C5251 1.373 . S
C5253 C5237 1.377 . S
C5253 C5251 1.389 . S
C5253 C5254 1.524 . S
C5254 C5253 1.524 . S
C5254 C5255 1.397 . S
C5254 C5259 1.363 . S
C5255 H5226 0.950 . S
C5255 C5254 1.397 . S
C5255 C5256 1.334 . S
C5256 H5227 0.950 . S
C5256 C5255 1.334 . S
C5256 C5257 1.287 . S
C5257 C5256 1.287 . S
C5257 C5258 1.524 . S
C5257 H5260 0.999 . S
C5258 H5228 0.950 . S
C5258 C5257 1.524 . S
C5258 C5259 1.415 . S
C5259 H5229 0.950 . S
C5259 C5254 1.363 . S
C5259 C5258 1.415 . S
H5260 C5257 0.999 . S
H5261 C5242 0.913 . S
H5262 C5280 0.951 . S
H5263 C5282 0.951 . S
H5264 C5284 0.950 . S
H5265 C5285 0.950 . S
H5266 C5287 0.950 . S
H5267 C5290 0.950 . S
H5268 C5291 0.950 . S
H5269 C5293 0.950 . S
H5270 C5294 0.950 . S
H5271 C5295 0.951 . S
H5272 C5297 0.951 . S
H5273 C5299 0.950 . S
H5274 C5300 0.950 . S
H5275 C5302 0.950 . S
H5276 C5305 0.950 . S
H5277 C5306 0.950 . S
H5278 C5308 0.950 . S
H5279 C5309 0.950 . S
C5280 H5262 0.951 . S
C5280 C5281 1.366 . S
C5280 C5282 1.388 . S
C5281 C5280 1.366 . S
C5281 C5285 1.385 . S
C5282 H5263 0.951 . S
C5282 C5280 1.388 . S
C5282 C5283 1.366 . S
C5283 C5282 1.366 . S
C5283 C5284 1.414 . S
C5283 C5286 1.499 . S
C5284 H5264 0.950 . S
C5284 C5283 1.414 . S
C5284 C5285 1.374 . S
C5285 H5265 0.950 . S
C5285 C5281 1.385 . S
C5285 C5284 1.374 . S
C5286 C5283 1.499 . S
C5286 C5287 1.373 . S
C5286 C5288 1.389 . S
C5287 H5266 0.950 . S
C5287 C5286 1.373 . S
C5287 C5303 1.377 . S
C5288 C5286 1.389 . S
C5288 C5289 1.524 . S
C5288 C5302 1.377 . S
C5289 C5288 1.524 . S
C5289 C5290 1.397 . S
C5289 C5294 1.363 . S
C5290 H5267 0.950 . S
C5290 C5289 1.397 . S
C5290 C5291 1.334 . S
C5291 H5268 0.950 . S
C5291 C5290 1.334 . S
C5291 C5292 1.287 . S
C5292 C5291 1.287 . S
C5292 C5293 1.524 . S
C5292 H5311 0.913 . S
C5293 H5269 0.950 . S
C5293 C5292 1.524 . S
C5293 C5294 1.415 . S
C5294 H5270 0.950 . S
C5294 C5289 1.363 . S
C5294 C5293 1.415 . S
C5295 H5271 0.951 . S
C5295 C5296 1.366 . S
C5295 C5297 1.388 . S
C5296 C5295 1.366 . S
C5296 C5300 1.385 . S
C5297 H5272 0.951 . S
C5297 C5295 1.388 . S
C5297 C5298 1.366 . S
C5298 C5297 1.366 . S
C5298 C5299 1.414 . S
C5298 C5301 1.499 . S
C5299 H5273 0.950 . S
C5299 C5298 1.414 . S
C5299 C5300 1.374 . S
C5300 H5274 0.950 . S
C5300 C5296 1.385 . S
C5300 C5299 1.374 . S
C5301 C5298 1.499 . S
C5301 C5302 1.373 . S
C5301 C5303 1.389 . S
C5302 H5275 0.950 . S
C5302 C5288 1.377 . S
C5302 C5301 1.373 . S
C5303 C5287 1.377 . S
C5303 C5301 1.389 . S
C5303 C5304 1.524 . S
C5304 C5303 1.524 . S
C5304 C5305 1.397 . S
C5304 C5309 1.363 . S
C5305 H5276 0.950 . S
C5305 C5304 1.397 . S
C5305 C5306 1.334 . S
C5306 H5277 0.950 . S
C5306 C5305 1.334 . S
C5306 C5307 1.287 . S
C5307 C5306 1.287 . S
C5307 C5308 1.524 . S
C5307 H5310 0.999 . S
C5308 H5278 0.950 . S
C5308 C5307 1.524 . S
C5308 C5309 1.415 . S
C5309 H5279 0.950 . S
C5309 C5304 1.363 . S
C5309 C5308 1.415 . S
H5310 C5307 0.999 . S
H5311 C5292 0.913 . S
H5312 C5330 0.951 . S
H5313 C5332 0.951 . S
H5314 C5334 0.950 . S
H5315 C5335 0.950 . S
H5316 C5337 0.950 . S
H5317 C5340 0.950 . S
H5318 C5341 0.950 . S
H5319 C5343 0.950 . S
H5320 C5344 0.950 . S
H5321 C5345 0.951 . S
H5322 C5347 0.951 . S
H5323 C5349 0.950 . S
H5324 C5350 0.950 . S
H5325 C5352 0.950 . S
H5326 C5355 0.950 . S
H5327 C5356 0.950 . S
H5328 C5358 0.950 . S
H5329 C5359 0.950 . S
C5330 H5312 0.951 . S
C5330 C5331 1.366 . S
C5330 C5332 1.388 . S
C5331 C5330 1.366 . S
C5331 C5335 1.385 . S
C5332 H5313 0.951 . S
C5332 C5330 1.388 . S
C5332 C5333 1.366 . S
C5333 C5332 1.366 . S
C5333 C5334 1.414 . S
C5333 C5336 1.499 . S
C5334 H5314 0.950 . S
C5334 C5333 1.414 . S
C5334 C5335 1.374 . S
C5335 H5315 0.950 . S
C5335 C5331 1.385 . S
C5335 C5334 1.374 . S
C5336 C5333 1.499 . S
C5336 C5337 1.373 . S
C5336 C5338 1.389 . S
C5337 H5316 0.950 . S
C5337 C5336 1.373 . S
C5337 C5353 1.377 . S
C5338 C5336 1.389 . S
C5338 C5339 1.524 . S
C5338 C5352 1.377 . S
C5339 C5338 1.524 . S
C5339 C5340 1.397 . S
C5339 C5344 1.363 . S
C5340 H5317 0.950 . S
C5340 C5339 1.397 . S
C5340 C5341 1.334 . S
C5341 H5318 0.950 . S
C5341 C5340 1.334 . S
C5341 C5342 1.287 . S
C5342 C5341 1.287 . S
C5342 C5343 1.524 . S
C5342 H5361 0.913 . S
C5343 H5319 0.950 . S
C5343 C5342 1.524 . S
C5343 C5344 1.415 . S
C5344 H5320 0.950 . S
C5344 C5339 1.363 . S
C5344 C5343 1.415 . S
C5345 H5321 0.951 . S
C5345 C5346 1.366 . S
C5345 C5347 1.388 . S
C5346 C5345 1.366 . S
C5346 C5350 1.385 . S
C5347 H5322 0.951 . S
C5347 C5345 1.388 . S
C5347 C5348 1.366 . S
C5348 C5347 1.366 . S
C5348 C5349 1.414 . S
C5348 C5351 1.499 . S
C5349 H5323 0.950 . S
C5349 C5348 1.414 . S
C5349 C5350 1.374 . S
C5350 H5324 0.950 . S
C5350 C5346 1.385 . S
C5350 C5349 1.374 . S
C5351 C5348 1.499 . S
C5351 C5352 1.373 . S
C5351 C5353 1.389 . S
C5352 H5325 0.950 . S
C5352 C5338 1.377 . S
C5352 C5351 1.373 . S
C5353 C5337 1.377 . S
C5353 C5351 1.389 . S
C5353 C5354 1.524 . S
C5354 C5353 1.524 . S
C5354 C5355 1.397 . S
C5354 C5359 1.363 . S
C5355 H5326 0.950 . S
C5355 C5354 1.397 . S
C5355 C5356 1.334 . S
C5356 H5327 0.950 . S
C5356 C5355 1.334 . S
C5356 C5357 1.287 . S
C5357 C5356 1.287 . S
C5357 C5358 1.524 . S
C5357 H5360 0.999 . S
C5358 H5328 0.950 . S
C5358 C5357 1.524 . S
C5358 C5359 1.415 . S
C5359 H5329 0.950 . S
C5359 C5354 1.363 . S
C5359 C5358 1.415 . S
H5360 C5357 0.999 . S
H5361 C5342 0.913 . S
H5362 C5380 0.951 . S
H5363 C5382 0.951 . S
H5364 C5384 0.950 . S
H5365 C5385 0.950 . S
H5366 C5387 0.950 . S
H5367 C5390 0.950 . S
H5368 C5391 0.950 . S
H5369 C5393 0.950 . S
H5370 C5394 0.950 . S
H5371 C5395 0.951 . S
H5372 C5397 0.951 . S
H5373 C5399 0.950 . S
H5374 C5400 0.950 . S
H5375 C5402 0.950 . S
H5376 C5405 0.950 . S
H5377 C5406 0.950 . S
H5378 C5408 0.950 . S
H5379 C5409 0.950 . S
C5380 H5362 0.951 . S
C5380 C5381 1.366 . S
C5380 C5382 1.388 . S
C5381 C5380 1.366 . S
C5381 C5385 1.385 . S
C5382 H5363 0.951 . S
C5382 C5380 1.388 . S
C5382 C5383 1.366 . S
C5383 C5382 1.366 . S
C5383 C5384 1.414 . S
C5383 C5386 1.499 . S
C5384 H5364 0.950 . S
C5384 C5383 1.414 . S
C5384 C5385 1.374 . S
C5385 H5365 0.950 . S
C5385 C5381 1.385 . S
C5385 C5384 1.374 . S
C5386 C5383 1.499 . S
C5386 C5387 1.373 . S
C5386 C5388 1.389 . S
C5387 H5366 0.950 . S
C5387 C5386 1.373 . S
C5387 C5403 1.377 . S
C5388 C5386 1.389 . S
C5388 C5389 1.524 . S
C5388 C5402 1.377 . S
C5389 C5388 1.524 . S
C5389 C5390 1.397 . S
C5389 C5394 1.363 . S
C5390 H5367 0.950 . S
C5390 C5389 1.397 . S
C5390 C5391 1.334 . S
C5391 H5368 0.950 . S
C5391 C5390 1.334 . S
C5391 C5392 1.287 . S
C5392 C5391 1.287 . S
C5392 C5393 1.524 . S
C5392 H5411 0.913 . S
C5393 H5369 0.950 . S
C5393 C5392 1.524 . S
C5393 C5394 1.415 . S
C5394 H5370 0.950 . S
C5394 C5389 1.363 . S
C5394 C5393 1.415 . S
C5395 H5371 0.951 . S
C5395 C5396 1.366 . S
C5395 C5397 1.388 . S
C5396 C5395 1.366 . S
C5396 C5400 1.385 . S
C5397 H5372 0.951 . S
C5397 C5395 1.388 . S
C5397 C5398 1.366 . S
C5398 C5397 1.366 . S
C5398 C5399 1.414 . S
C5398 C5401 1.499 . S
C5399 H5373 0.950 . S
C5399 C5398 1.414 . S
C5399 C5400 1.374 . S
C5400 H5374 0.950 . S
C5400 C5396 1.385 . S
C5400 C5399 1.374 . S
C5401 C5398 1.499 . S
C5401 C5402 1.373 . S
C5401 C5403 1.389 . S
C5402 H5375 0.950 . S
C5402 C5388 1.377 . S
C5402 C5401 1.373 . S
C5403 C5387 1.377 . S
C5403 C5401 1.389 . S
C5403 C5404 1.524 . S
C5404 C5403 1.524 . S
C5404 C5405 1.397 . S
C5404 C5409 1.363 . S
C5405 H5376 0.950 . S
C5405 C5404 1.397 . S
C5405 C5406 1.334 . S
C5406 H5377 0.950 . S
C5406 C5405 1.334 . S
C5406 C5407 1.287 . S
C5407 C5406 1.287 . S
C5407 C5408 1.524 . S
C5407 H5410 0.999 . S
C5408 H5378 0.950 . S
C5408 C5407 1.524 . S
C5408 C5409 1.415 . S
C5409 H5379 0.950 . S
C5409 C5404 1.363 . S
C5409 C5408 1.415 . S
H5410 C5407 0.999 . S
H5411 C5392 0.913 . S
H5412 C5430 0.951 . S
H5413 C5432 0.951 . S
H5414 C5434 0.950 . S
H5415 C5435 0.950 . S
H5416 C5437 0.950 . S
H5417 C5440 0.950 . S
H5418 C5441 0.950 . S
H5419 C5443 0.950 . S
H5420 C5444 0.950 . S
H5421 C5445 0.951 . S
H5422 C5447 0.951 . S
H5423 C5449 0.950 . S
H5424 C5450 0.950 . S
H5425 C5452 0.950 . S
H5426 C5455 0.950 . S
H5427 C5456 0.950 . S
H5428 C5458 0.950 . S
H5429 C5459 0.950 . S
C5430 H5412 0.951 . S
C5430 C5431 1.366 . S
C5430 C5432 1.388 . S
C5431 C5430 1.366 . S
C5431 C5435 1.385 . S
C5432 H5413 0.951 . S
C5432 C5430 1.388 . S
C5432 C5433 1.366 . S
C5433 C5432 1.366 . S
C5433 C5434 1.414 . S
C5433 C5436 1.499 . S
C5434 H5414 0.950 . S
C5434 C5433 1.414 . S
C5434 C5435 1.374 . S
C5435 H5415 0.950 . S
C5435 C5431 1.385 . S
C5435 C5434 1.374 . S
C5436 C5433 1.499 . S
C5436 C5437 1.373 . S
C5436 C5438 1.389 . S
C5437 H5416 0.950 . S
C5437 C5436 1.373 . S
C5437 C5453 1.377 . S
C5438 C5436 1.389 . S
C5438 C5439 1.524 . S
C5438 C5452 1.377 . S
C5439 C5438 1.524 . S
C5439 C5440 1.397 . S
C5439 C5444 1.363 . S
C5440 H5417 0.950 . S
C5440 C5439 1.397 . S
C5440 C5441 1.334 . S
C5441 H5418 0.950 . S
C5441 C5440 1.334 . S
C5441 C5442 1.287 . S
C5442 C5441 1.287 . S
C5442 C5443 1.524 . S
C5442 H5461 0.913 . S
C5443 H5419 0.950 . S
C5443 C5442 1.524 . S
C5443 C5444 1.415 . S
C5444 H5420 0.950 . S
C5444 C5439 1.363 . S
C5444 C5443 1.415 . S
C5445 H5421 0.951 . S
C5445 C5446 1.366 . S
C5445 C5447 1.388 . S
C5446 C5445 1.366 . S
C5446 C5450 1.385 . S
C5447 H5422 0.951 . S
C5447 C5445 1.388 . S
C5447 C5448 1.366 . S
C5448 C5447 1.366 . S
C5448 C5449 1.414 . S
C5448 C5451 1.499 . S
C5449 H5423 0.950 . S
C5449 C5448 1.414 . S
C5449 C5450 1.374 . S
C5450 H5424 0.950 . S
C5450 C5446 1.385 . S
C5450 C5449 1.374 . S
C5451 C5448 1.499 . S
C5451 C5452 1.373 . S
C5451 C5453 1.389 . S
C5452 H5425 0.950 . S
C5452 C5438 1.377 . S
C5452 C5451 1.373 . S
C5453 C5437 1.377 . S
C5453 C5451 1.389 . S
C5453 C5454 1.524 . S
C5454 C5453 1.524 . S
C5454 C5455 1.397 . S
C5454 C5459 1.363 . S
C5455 H5426 0.950 . S
C5455 C5454 1.397 . S
C5455 C5456 1.334 . S
C5456 H5427 0.950 . S
C5456 C5455 1.334 . S
C5456 C5457 1.287 . S
C5457 C5456 1.287 . S
C5457 C5458 1.524 . S
C5457 H5460 0.999 . S
C5458 H5428 0.950 . S
C5458 C5457 1.524 . S
C5458 C5459 1.415 . S
C5459 H5429 0.950 . S
C5459 C5454 1.363 . S
C5459 C5458 1.415 . S
H5460 C5457 0.999 . S
H5461 C5442 0.913 . S
H5462 C5480 0.951 . S
H5463 C5482 0.951 . S
H5464 C5484 0.950 . S
H5465 C5485 0.950 . S
H5466 C5487 0.950 . S
H5467 C5490 0.950 . S
H5468 C5491 0.950 . S
H5469 C5493 0.950 . S
H5470 C5494 0.950 . S
H5471 C5495 0.951 . S
H5472 C5497 0.951 . S
H5473 C5499 0.950 . S
H5474 C5500 0.950 . S
H5475 C5502 0.950 . S
H5476 C5505 0.950 . S
H5477 C5506 0.950 . S
H5478 C5508 0.950 . S
H5479 C5509 0.950 . S
C5480 H5462 0.951 . S
C5480 C5481 1.366 . S
C5480 C5482 1.388 . S
C5481 C5480 1.366 . S
C5481 C5485 1.385 . S
C5482 H5463 0.951 . S
C5482 C5480 1.388 . S
C5482 C5483 1.366 . S
C5483 C5482 1.366 . S
C5483 C5484 1.414 . S
C5483 C5486 1.499 . S
C5484 H5464 0.950 . S
C5484 C5483 1.414 . S
C5484 C5485 1.374 . S
C5485 H5465 0.950 . S
C5485 C5481 1.385 . S
C5485 C5484 1.374 . S
C5486 C5483 1.499 . S
C5486 C5487 1.373 . S
C5486 C5488 1.389 . S
C5487 H5466 0.950 . S
C5487 C5486 1.373 . S
C5487 C5503 1.377 . S
C5488 C5486 1.389 . S
C5488 C5489 1.524 . S
C5488 C5502 1.377 . S
C5489 C5488 1.524 . S
C5489 C5490 1.397 . S
C5489 C5494 1.363 . S
C5490 H5467 0.950 . S
C5490 C5489 1.397 . S
C5490 C5491 1.334 . S
C5491 H5468 0.950 . S
C5491 C5490 1.334 . S
C5491 C5492 1.287 . S
C5492 C5491 1.287 . S
C5492 C5493 1.524 . S
C5492 H5511 0.913 . S
C5493 H5469 0.950 . S
C5493 C5492 1.524 . S
C5493 C5494 1.415 . S
C5494 H5470 0.950 . S
C5494 C5489 1.363 . S
C5494 C5493 1.415 . S
C5495 H5471 0.951 . S
C5495 C5496 1.366 . S
C5495 C5497 1.388 . S
C5496 C5495 1.366 . S
C5496 C5500 1.385 . S
C5497 H5472 0.951 . S
C5497 C5495 1.388 . S
C5497 C5498 1.366 . S
C5498 C5497 1.366 . S
C5498 C5499 1.414 . S
C5498 C5501 1.499 . S
C5499 H5473 0.950 . S
C5499 C5498 1.414 . S
C5499 C5500 1.374 . S
C5500 H5474 0.950 . S
C5500 C5496 1.385 . S
C5500 C5499 1.374 . S
C5501 C5498 1.499 . S
C5501 C5502 1.373 . S
C5501 C5503 1.389 . S
C5502 H5475 0.950 . S
C5502 C5488 1.377 . S
C5502 C5501 1.373 . S
C5503 C5487 1.377 . S
C5503 C5501 1.389 . S
C5503 C5504 1.524 . S
C5504 C5503 1.524 . S
C5504 C5505 1.397 . S
C5504 C5509 1.363 . S
C5505 H5476 0.950 . S
C5505 C5504 1.397 . S
C5505 C5506 1.334 . S
C5506 H5477 0.950 . S
C5506 C5505 1.334 . S
C5506 C5507 1.287 . S
C5507 C5506 1.287 . S
C5507 C5508 1.524 . S
C5507 H5510 0.999 . S
C5508 H5478 0.950 . S
C5508 C5507 1.524 . S
C5508 C5509 1.415 . S
C5509 H5479 0.950 . S
C5509 C5504 1.363 . S
C5509 C5508 1.415 . S
H5510 C5507 0.999 . S
H5511 C5492 0.913 . S
H5512 C5530 0.951 . S
H5513 C5532 0.951 . S
H5514 C5534 0.950 . S
H5515 C5535 0.950 . S
H5516 C5537 0.950 . S
H5517 C5540 0.950 . S
H5518 C5541 0.950 . S
H5519 C5543 0.950 . S
H5520 C5544 0.950 . S
H5521 C5545 0.951 . S
H5522 C5547 0.951 . S
H5523 C5549 0.950 . S
H5524 C5550 0.950 . S
H5525 C5552 0.950 . S
H5526 C5555 0.950 . S
H5527 C5556 0.950 . S
H5528 C5558 0.950 . S
H5529 C5559 0.950 . S
C5530 H5512 0.951 . S
C5530 C5531 1.366 . S
C5530 C5532 1.388 . S
C5531 C5530 1.366 . S
C5531 C5535 1.385 . S
C5532 H5513 0.951 . S
C5532 C5530 1.388 . S
C5532 C5533 1.366 . S
C5533 C5532 1.366 . S
C5533 C5534 1.414 . S
C5533 C5536 1.499 . S
C5534 H5514 0.950 . S
C5534 C5533 1.414 . S
C5534 C5535 1.374 . S
C5535 H5515 0.950 . S
C5535 C5531 1.385 . S
C5535 C5534 1.374 . S
C5536 C5533 1.499 . S
C5536 C5537 1.373 . S
C5536 C5538 1.389 . S
C5537 H5516 0.950 . S
C5537 C5536 1.373 . S
C5537 C5553 1.377 . S
C5538 C5536 1.389 . S
C5538 C5539 1.524 . S
C5538 C5552 1.377 . S
C5539 C5538 1.524 . S
C5539 C5540 1.397 . S
C5539 C5544 1.363 . S
C5540 H5517 0.950 . S
C5540 C5539 1.397 . S
C5540 C5541 1.334 . S
C5541 H5518 0.950 . S
C5541 C5540 1.334 . S
C5541 C5542 1.287 . S
C5542 C5541 1.287 . S
C5542 C5543 1.524 . S
C5542 H5561 0.913 . S
C5543 H5519 0.950 . S
C5543 C5542 1.524 . S
C5543 C5544 1.415 . S
C5544 H5520 0.950 . S
C5544 C5539 1.363 . S
C5544 C5543 1.415 . S
C5545 H5521 0.951 . S
C5545 C5546 1.366 . S
C5545 C5547 1.388 . S
C5546 C5545 1.366 . S
C5546 C5550 1.385 . S
C5547 H5522 0.951 . S
C5547 C5545 1.388 . S
C5547 C5548 1.366 . S
C5548 C5547 1.366 . S
C5548 C5549 1.414 . S
C5548 C5551 1.499 . S
C5549 H5523 0.950 . S
C5549 C5548 1.414 . S
C5549 C5550 1.374 . S
C5550 H5524 0.950 . S
C5550 C5546 1.385 . S
C5550 C5549 1.374 . S
C5551 C5548 1.499 . S
C5551 C5552 1.373 . S
C5551 C5553 1.389 . S
C5552 H5525 0.950 . S
C5552 C5538 1.377 . S
C5552 C5551 1.373 . S
C5553 C5537 1.377 . S
C5553 C5551 1.389 . S
C5553 C5554 1.524 . S
C5554 C5553 1.524 . S
C5554 C5555 1.397 . S
C5554 C5559 1.363 . S
C5555 H5526 0.950 . S
C5555 C5554 1.397 . S
C5555 C5556 1.334 . S
C5556 H5527 0.950 . S
C5556 C5555 1.334 . S
C5556 C5557 1.287 . S
C5557 C5556 1.287 . S
C5557 C5558 1.524 . S
C5557 H5560 0.999 . S
C5558 H5528 0.950 . S
C5558 C5557 1.524 . S
C5558 C5559 1.415 . S
C5559 H5529 0.950 . S
C5559 C5554 1.363 . S
C5559 C5558 1.415 . S
H5560 C5557 0.999 . S
H5561 C5542 0.913 . S
H5562 C5580 0.951 . S
H5563 C5582 0.951 . S
H5564 C5584 0.950 . S
H5565 C5585 0.950 . S
H5566 C5587 0.950 . S
H5567 C5590 0.950 . S
H5568 C5591 0.950 . S
H5569 C5593 0.950 . S
H5570 C5594 0.950 . S
H5571 C5595 0.951 . S
H5572 C5597 0.951 . S
H5573 C5599 0.950 . S
H5574 C5600 0.950 . S
H5575 C5602 0.950 . S
H5576 C5605 0.950 . S
H5577 C5606 0.950 . S
H5578 C5608 0.950 . S
H5579 C5609 0.950 . S
C5580 H5562 0.951 . S
C5580 C5581 1.366 . S
C5580 C5582 1.388 . S
C5581 C5580 1.366 . S
C5581 C5585 1.385 . S
C5582 H5563 0.951 . S
C5582 C5580 1.388 . S
C5582 C5583 1.366 . S
C5583 C5582 1.366 . S
C5583 C5584 1.414 . S
C5583 C5586 1.499 . S
C5584 H5564 0.950 . S
C5584 C5583 1.414 . S
C5584 C5585 1.374 . S
C5585 H5565 0.950 . S
C5585 C5581 1.385 . S
C5585 C5584 1.374 . S
C5586 C5583 1.499 . S
C5586 C5587 1.373 . S
C5586 C5588 1.389 . S
C5587 H5566 0.950 . S
C5587 C5586 1.373 . S
C5587 C5603 1.377 . S
C5588 C5586 1.389 . S
C5588 C5589 1.524 . S
C5588 C5602 1.377 . S
C5589 C5588 1.524 . S
C5589 C5590 1.397 . S
C5589 C5594 1.363 . S
C5590 H5567 0.950 . S
C5590 C5589 1.397 . S
C5590 C5591 1.334 . S
C5591 H5568 0.950 . S
C5591 C5590 1.334 . S
C5591 C5592 1.287 . S
C5592 C5591 1.287 . S
C5592 C5593 1.524 . S
C5592 H5611 0.913 . S
C5593 H5569 0.950 . S
C5593 C5592 1.524 . S
C5593 C5594 1.415 . S
C5594 H5570 0.950 . S
C5594 C5589 1.363 . S
C5594 C5593 1.415 . S
C5595 H5571 0.951 . S
C5595 C5596 1.366 . S
C5595 C5597 1.388 . S
C5596 C5595 1.366 . S
C5596 C5600 1.385 . S
C5597 H5572 0.951 . S
C5597 C5595 1.388 . S
C5597 C5598 1.366 . S
C5598 C5597 1.366 . S
C5598 C5599 1.414 . S
C5598 C5601 1.499 . S
C5599 H5573 0.950 . S
C5599 C5598 1.414 . S
C5599 C5600 1.374 . S
C5600 H5574 0.950 . S
C5600 C5596 1.385 . S
C5600 C5599 1.374 . S
C5601 C5598 1.499 . S
C5601 C5602 1.373 . S
C5601 C5603 1.389 . S
C5602 H5575 0.950 . S
C5602 C5588 1.377 . S
C5602 C5601 1.373 . S
C5603 C5587 1.377 . S
C5603 C5601 1.389 . S
C5603 C5604 1.524 . S
C5604 C5603 1.524 . S
C5604 C5605 1.397 . S
C5604 C5609 1.363 . S
C5605 H5576 0.950 . S
C5605 C5604 1.397 . S
C5605 C5606 1.334 . S
C5606 H5577 0.950 . S
C5606 C5605 1.334 . S
C5606 C5607 1.287 . S
C5607 C5606 1.287 . S
C5607 C5608 1.524 . S
C5607 H5610 0.999 . S
C5608 H5578 0.950 . S
C5608 C5607 1.524 . S
C5608 C5609 1.415 . S
C5609 H5579 0.950 . S
C5609 C5604 1.363 . S
C5609 C5608 1.415 . S
H5610 C5607 0.999 . S
H5611 C5592 0.913 . S
H5612 C5630 0.951 . S
H5613 C5632 0.951 . S
H5614 C5634 0.950 . S
H5615 C5635 0.950 . S
H5616 C5637 0.950 . S
H5617 C5640 0.950 . S
H5618 C5641 0.950 . S
H5619 C5643 0.950 . S
H5620 C5644 0.950 . S
H5621 C5645 0.951 . S
H5622 C5647 0.951 . S
H5623 C5649 0.950 . S
H5624 C5650 0.950 . S
H5625 C5652 0.950 . S
H5626 C5655 0.950 . S
H5627 C5656 0.950 . S
H5628 C5658 0.950 . S
H5629 C5659 0.950 . S
C5630 H5612 0.951 . S
C5630 C5631 1.366 . S
C5630 C5632 1.388 . S
C5631 C5630 1.366 . S
C5631 C5635 1.385 . S
C5632 H5613 0.951 . S
C5632 C5630 1.388 . S
C5632 C5633 1.366 . S
C5633 C5632 1.366 . S
C5633 C5634 1.414 . S
C5633 C5636 1.499 . S
C5634 H5614 0.950 . S
C5634 C5633 1.414 . S
C5634 C5635 1.374 . S
C5635 H5615 0.950 . S
C5635 C5631 1.385 . S
C5635 C5634 1.374 . S
C5636 C5633 1.499 . S
C5636 C5637 1.373 . S
C5636 C5638 1.389 . S
C5637 H5616 0.950 . S
C5637 C5636 1.373 . S
C5637 C5653 1.377 . S
C5638 C5636 1.389 . S
C5638 C5639 1.524 . S
C5638 C5652 1.377 . S
C5639 C5638 1.524 . S
C5639 C5640 1.397 . S
C5639 C5644 1.363 . S
C5640 H5617 0.950 . S
C5640 C5639 1.397 . S
C5640 C5641 1.334 . S
C5641 H5618 0.950 . S
C5641 C5640 1.334 . S
C5641 C5642 1.287 . S
C5642 C5641 1.287 . S
C5642 C5643 1.524 . S
C5642 H5661 0.913 . S
C5643 H5619 0.950 . S
C5643 C5642 1.524 . S
C5643 C5644 1.415 . S
C5644 H5620 0.950 . S
C5644 C5639 1.363 . S
C5644 C5643 1.415 . S
C5645 H5621 0.951 . S
C5645 C5646 1.366 . S
C5645 C5647 1.388 . S
C5646 C5645 1.366 . S
C5646 C5650 1.385 . S
C5647 H5622 0.951 . S
C5647 C5645 1.388 . S
C5647 C5648 1.366 . S
C5648 C5647 1.366 . S
C5648 C5649 1.414 . S
C5648 C5651 1.499 . S
C5649 H5623 0.950 . S
C5649 C5648 1.414 . S
C5649 C5650 1.374 . S
C5650 H5624 0.950 . S
C5650 C5646 1.385 . S
C5650 C5649 1.374 . S
C5651 C5648 1.499 . S
C5651 C5652 1.373 . S
C5651 C5653 1.389 . S
C5652 H5625 0.950 . S
C5652 C5638 1.377 . S
C5652 C5651 1.373 . S
C5653 C5637 1.377 . S
C5653 C5651 1.389 . S
C5653 C5654 1.524 . S
C5654 C5653 1.524 . S
C5654 C5655 1.397 . S
C5654 C5659 1.363 . S
C5655 H5626 0.950 . S
C5655 C5654 1.397 . S
C5655 C5656 1.334 . S
C5656 H5627 0.950 . S
C5656 C5655 1.334 . S
C5656 C5657 1.287 . S
C5657 C5656 1.287 . S
C5657 C5658 1.524 . S
C5657 H5660 0.999 . S
C5658 H5628 0.950 . S
C5658 C5657 1.524 . S
C5658 C5659 1.415 . S
C5659 H5629 0.950 . S
C5659 C5654 1.363 . S
C5659 C5658 1.415 . S
H5660 C5657 0.999 . S
H5661 C5642 0.913 . S
H5662 C5680 0.951 . S
H5663 C5682 0.951 . S
H5664 C5684 0.950 . S
H5665 C5685 0.950 . S
H5666 C5687 0.950 . S
H5667 C5690 0.950 . S
H5668 C5691 0.950 . S
H5669 C5693 0.950 . S
H5670 C5694 0.950 . S
H5671 C5695 0.951 . S
H5672 C5697 0.951 . S
H5673 C5699 0.950 . S
H5674 C5700 0.950 . S
H5675 C5702 0.950 . S
H5676 C5705 0.950 . S
H5677 C5706 0.950 . S
H5678 C5708 0.950 . S
H5679 C5709 0.950 . S
C5680 H5662 0.951 . S
C5680 C5681 1.366 . S
C5680 C5682 1.388 . S
C5681 C5680 1.366 . S
C5681 C5685 1.385 . S
C5682 H5663 0.951 . S
C5682 C5680 1.388 . S
C5682 C5683 1.366 . S
C5683 C5682 1.366 . S
C5683 C5684 1.414 . S
C5683 C5686 1.499 . S
C5684 H5664 0.950 . S
C5684 C5683 1.414 . S
C5684 C5685 1.374 . S
C5685 H5665 0.950 . S
C5685 C5681 1.385 . S
C5685 C5684 1.374 . S
C5686 C5683 1.499 . S
C5686 C5687 1.373 . S
C5686 C5688 1.389 . S
C5687 H5666 0.950 . S
C5687 C5686 1.373 . S
C5687 C5703 1.377 . S
C5688 C5686 1.389 . S
C5688 C5689 1.524 . S
C5688 C5702 1.377 . S
C5689 C5688 1.524 . S
C5689 C5690 1.397 . S
C5689 C5694 1.363 . S
C5690 H5667 0.950 . S
C5690 C5689 1.397 . S
C5690 C5691 1.334 . S
C5691 H5668 0.950 . S
C5691 C5690 1.334 . S
C5691 C5692 1.287 . S
C5692 C5691 1.287 . S
C5692 C5693 1.524 . S
C5692 H5711 0.913 . S
C5693 H5669 0.950 . S
C5693 C5692 1.524 . S
C5693 C5694 1.415 . S
C5694 H5670 0.950 . S
C5694 C5689 1.363 . S
C5694 C5693 1.415 . S
C5695 H5671 0.951 . S
C5695 C5696 1.366 . S
C5695 C5697 1.388 . S
C5696 C5695 1.366 . S
C5696 C5700 1.385 . S
C5697 H5672 0.951 . S
C5697 C5695 1.388 . S
C5697 C5698 1.366 . S
C5698 C5697 1.366 . S
C5698 C5699 1.414 . S
C5698 C5701 1.499 . S
C5699 H5673 0.950 . S
C5699 C5698 1.414 . S
C5699 C5700 1.374 . S
C5700 H5674 0.950 . S
C5700 C5696 1.385 . S
C5700 C5699 1.374 . S
C5701 C5698 1.499 . S
C5701 C5702 1.373 . S
C5701 C5703 1.389 . S
C5702 H5675 0.950 . S
C5702 C5688 1.377 . S
C5702 C5701 1.373 . S
C5703 C5687 1.377 . S
C5703 C5701 1.389 . S
C5703 C5704 1.524 . S
C5704 C5703 1.524 . S
C5704 C5705 1.397 . S
C5704 C5709 1.363 . S
C5705 H5676 0.950 . S
C5705 C5704 1.397 . S
C5705 C5706 1.334 . S
C5706 H5677 0.950 . S
C5706 C5705 1.334 . S
C5706 C5707 1.287 . S
C5707 C5706 1.287 . S
C5707 C5708 1.524 . S
C5707 H5710 0.999 . S
C5708 H5678 0.950 . S
C5708 C5707 1.524 . S
C5708 C5709 1.415 . S
C5709 H5679 0.950 . S
C5709 C5704 1.363 . S
C5709 C5708 1.415 . S
H5710 C5707 0.999 . S
H5711 C5692 0.913 . S
H5712 C5730 0.951 . S
H5713 C5732 0.951 . S
H5714 C5734 0.950 . S
H5715 C5735 0.950 . S
H5716 C5737 0.950 . S
H5717 C5740 0.950 . S
H5718 C5741 0.950 . S
H5719 C5743 0.950 . S
H5720 C5744 0.950 . S
H5721 C5745 0.951 . S
H5722 C5747 0.951 . S
H5723 C5749 0.950 . S
H5724 C5750 0.950 . S
H5725 C5752 0.950 . S
H5726 C5755 0.950 . S
H5727 C5756 0.950 . S
H5728 C5758 0.950 . S
H5729 C5759 0.950 . S
C5730 H5712 0.951 . S
C5730 C5731 1.366 . S
C5730 C5732 1.388 . S
C5731 C5730 1.366 . S
C5731 C5735 1.385 . S
C5732 H5713 0.951 . S
C5732 C5730 1.388 . S
C5732 C5733 1.366 . S
C5733 C5732 1.366 . S
C5733 C5734 1.414 . S
C5733 C5736 1.499 . S
C5734 H5714 0.950 . S
C5734 C5733 1.414 . S
C5734 C5735 1.374 . S
C5735 H5715 0.950 . S
C5735 C5731 1.385 . S
C5735 C5734 1.374 . S
C5736 C5733 1.499 . S
C5736 C5737 1.373 . S
C5736 C5738 1.389 . S
C5737 H5716 0.950 . S
C5737 C5736 1.373 . S
C5737 C5753 1.377 . S
C5738 C5736 1.389 . S
C5738 C5739 1.524 . S
C5738 C5752 1.377 . S
C5739 C5738 1.524 . S
C5739 C5740 1.397 . S
C5739 C5744 1.363 . S
C5740 H5717 0.950 . S
C5740 C5739 1.397 . S
C5740 C5741 1.334 . S
C5741 H5718 0.950 . S
C5741 C5740 1.334 . S
C5741 C5742 1.287 . S
C5742 C5741 1.287 . S
C5742 C5743 1.524 . S
C5742 H5761 0.913 . S
C5743 H5719 0.950 . S
C5743 C5742 1.524 . S
C5743 C5744 1.415 . S
C5744 H5720 0.950 . S
C5744 C5739 1.363 . S
C5744 C5743 1.415 . S
C5745 H5721 0.951 . S
C5745 C5746 1.366 . S
C5745 C5747 1.388 . S
C5746 C5745 1.366 . S
C5746 C5750 1.385 . S
C5747 H5722 0.951 . S
C5747 C5745 1.388 . S
C5747 C5748 1.366 . S
C5748 C5747 1.366 . S
C5748 C5749 1.414 . S
C5748 C5751 1.499 . S
C5749 H5723 0.950 . S
C5749 C5748 1.414 . S
C5749 C5750 1.374 . S
C5750 H5724 0.950 . S
C5750 C5746 1.385 . S
C5750 C5749 1.374 . S
C5751 C5748 1.499 . S
C5751 C5752 1.373 . S
C5751 C5753 1.389 . S
C5752 H5725 0.950 . S
C5752 C5738 1.377 . S
C5752 C5751 1.373 . S
C5753 C5737 1.377 . S
C5753 C5751 1.389 . S
C5753 C5754 1.524 . S
C5754 C5753 1.524 . S
C5754 C5755 1.397 . S
C5754 C5759 1.363 . S
C5755 H5726 0.950 . S
C5755 C5754 1.397 . S
C5755 C5756 1.334 . S
C5756 H5727 0.950 . S
C5756 C5755 1.334 . S
C5756 C5757 1.287 . S
C5757 C5756 1.287 . S
C5757 C5758 1.524 . S
C5757 H5760 0.999 . S
C5758 H5728 0.950 . S
C5758 C5757 1.524 . S
C5758 C5759 1.415 . S
C5759 H5729 0.950 . S
C5759 C5754 1.363 . S
C5759 C5758 1.415 . S
H5760 C5757 0.999 . S
H5761 C5742 0.913 . S
H5762 C5780 0.951 . S
H5763 C5782 0.951 . S
H5764 C5784 0.950 . S
H5765 C5785 0.950 . S
H5766 C5787 0.950 . S
H5767 C5790 0.950 . S
H5768 C5791 0.950 . S
H5769 C5793 0.950 . S
H5770 C5794 0.950 . S
H5771 C5795 0.951 . S
H5772 C5797 0.951 . S
H5773 C5799 0.950 . S
H5774 C5800 0.950 . S
H5775 C5802 0.950 . S
H5776 C5805 0.950 . S
H5777 C5806 0.950 . S
H5778 C5808 0.950 . S
H5779 C5809 0.950 . S
C5780 H5762 0.951 . S
C5780 C5781 1.366 . S
C5780 C5782 1.388 . S
C5781 C5780 1.366 . S
C5781 C5785 1.385 . S
C5782 H5763 0.951 . S
C5782 C5780 1.388 . S
C5782 C5783 1.366 . S
C5783 C5782 1.366 . S
C5783 C5784 1.414 . S
C5783 C5786 1.499 . S
C5784 H5764 0.950 . S
C5784 C5783 1.414 . S
C5784 C5785 1.374 . S
C5785 H5765 0.950 . S
C5785 C5781 1.385 . S
C5785 C5784 1.374 . S
C5786 C5783 1.499 . S
C5786 C5787 1.373 . S
C5786 C5788 1.389 . S
C5787 H5766 0.950 . S
C5787 C5786 1.373 . S
C5787 C5803 1.377 . S
C5788 C5786 1.389 . S
C5788 C5789 1.524 . S
C5788 C5802 1.377 . S
C5789 C5788 1.524 . S
C5789 C5790 1.397 . S
C5789 C5794 1.363 . S
C5790 H5767 0.950 . S
C5790 C5789 1.397 . S
C5790 C5791 1.334 . S
C5791 H5768 0.950 . S
C5791 C5790 1.334 . S
C5791 C5792 1.287 . S
C5792 C5791 1.287 . S
C5792 C5793 1.524 . S
C5792 H5811 0.913 . S
C5793 H5769 0.950 . S
C5793 C5792 1.524 . S
C5793 C5794 1.415 . S
C5794 H5770 0.950 . S
C5794 C5789 1.363 . S
C5794 C5793 1.415 . S
C5795 H5771 0.951 . S
C5795 C5796 1.366 . S
C5795 C5797 1.388 . S
C5796 C5795 1.366 . S
C5796 C5800 1.385 . S
C5797 H5772 0.951 . S
C5797 C5795 1.388 . S
C5797 C5798 1.366 . S
C5798 C5797 1.366 . S
C5798 C5799 1.414 . S
C5798 C5801 1.499 . S
C5799 H5773 0.950 . S
C5799 C5798 1.414 . S
C5799 C5800 1.374 . S
C5800 H5774 0.950 . S
C5800 C5796 1.385 . S
C5800 C5799 1.374 . S
C5801 C5798 1.499 . S
C5801 C5802 1.373 . S
C5801 C5803 1.389 . S
C5802 H5775 0.950 . S
C5802 C5788 1.377 . S
C5802 C5801 1.373 . S
C5803 C5787 1.377 . S
C5803 C5801 1.389 . S
C5803 C5804 1.524 . S
C5804 C5803 1.524 . S
C5804 C5805 1.397 . S
C5804 C5809 1.363 . S
C5805 H5776 0.950 . S
C5805 C5804 1.397 . S
C5805 C5806 1.334 . S
C5806 H5777 0.950 . S
C5806 C5805 1.334 . S
C5806 C5807 1.287 . S
C5807 C5806 1.287 . S
C5807 C5808 1.524 . S
C5807 H5810 0.999 . S
C5808 H5778 0.950 . S
C5808 C5807 1.524 . S
C5808 C5809 1.415 . S
C5809 H5779 0.950 . S
C5809 C5804 1.363 . S
C5809 C5808 1.415 . S
H5810 C5807 0.999 . S
H5811 C5792 0.913 . S
H5812 C5830 0.951 . S
H5813 C5832 0.951 . S
H5814 C5834 0.950 . S
H5815 C5835 0.950 . S
H5816 C5837 0.950 . S
H5817 C5840 0.950 . S
H5818 C5841 0.950 . S
H5819 C5843 0.950 . S
H5820 C5844 0.950 . S
H5821 C5845 0.951 . S
H5822 C5847 0.951 . S
H5823 C5849 0.950 . S
H5824 C5850 0.950 . S
H5825 C5852 0.950 . S
H5826 C5855 0.950 . S
H5827 C5856 0.950 . S
H5828 C5858 0.950 . S
H5829 C5859 0.950 . S
C5830 H5812 0.951 . S
C5830 C5831 1.366 . S
C5830 C5832 1.388 . S
C5831 C5830 1.366 . S
C5831 C5835 1.385 . S
C5832 H5813 0.951 . S
C5832 C5830 1.388 . S
C5832 C5833 1.366 . S
C5833 C5832 1.366 . S
C5833 C5834 1.414 . S
C5833 C5836 1.499 . S
C5834 H5814 0.950 . S
C5834 C5833 1.414 . S
C5834 C5835 1.374 . S
C5835 H5815 0.950 . S
C5835 C5831 1.385 . S
C5835 C5834 1.374 . S
C5836 C5833 1.499 . S
C5836 C5837 1.373 . S
C5836 C5838 1.389 . S
C5837 H5816 0.950 . S
C5837 C5836 1.373 . S
C5837 C5853 1.377 . S
C5838 C5836 1.389 . S
C5838 C5839 1.524 . S
C5838 C5852 1.377 . S
C5839 C5838 1.524 . S
C5839 C5840 1.397 . S
C5839 C5844 1.363 . S
C5840 H5817 0.950 . S
C5840 C5839 1.397 . S
C5840 C5841 1.334 . S
C5841 H5818 0.950 . S
C5841 C5840 1.334 . S
C5841 C5842 1.287 . S
C5842 C5841 1.287 . S
C5842 C5843 1.524 . S
C5842 H5861 0.913 . S
C5843 H5819 0.950 . S
C5843 C5842 1.524 . S
C5843 C5844 1.415 . S
C5844 H5820 0.950 . S
C5844 C5839 1.363 . S
C5844 C5843 1.415 . S
C5845 H5821 0.951 . S
C5845 C5846 1.366 . S
C5845 C5847 1.388 . S
C5846 C5845 1.366 . S
C5846 C5850 1.385 . S
C5847 H5822 0.951 . S
C5847 C5845 1.388 . S
C5847 C5848 1.366 . S
C5848 C5847 1.366 . S
C5848 C5849 1.414 . S
C5848 C5851 1.499 . S
C5849 H5823 0.950 . S
C5849 C5848 1.414 . S
C5849 C5850 1.374 . S
C5850 H5824 0.950 . S
C5850 C5846 1.385 . S
C5850 C5849 1.374 . S
C5851 C5848 1.499 . S
C5851 C5852 1.373 . S
C5851 C5853 1.389 . S
C5852 H5825 0.950 . S
C5852 C5838 1.377 . S
C5852 C5851 1.373 . S
C5853 C5837 1.377 . S
C5853 C5851 1.389 . S
C5853 C5854 1.524 . S
C5854 C5853 1.524 . S
C5854 C5855 1.397 . S
C5854 C5859 1.363 . S
C5855 H5826 0.950 . S
C5855 C5854 1.397 . S
C5855 C5856 1.334 . S
C5856 H5827 0.950 . S
C5856 C5855 1.334 . S
C5856 C5857 1.287 . S
C5857 C5856 1.287 . S
C5857 C5858 1.524 . S
C5857 H5860 0.999 . S
C5858 H5828 0.950 . S
C5858 C5857 1.524 . S
C5858 C5859 1.415 . S
C5859 H5829 0.950 . S
C5859 C5854 1.363 . S
C5859 C5858 1.415 . S
H5860 C5857 0.999 . S
H5861 C5842 0.913 . S
H5862 C5880 0.951 . S
H5863 C5882 0.951 . S
H5864 C5884 0.950 . S
H5865 C5885 0.950 . S
H5866 C5887 0.950 . S
H5867 C5890 0.950 . S
H5868 C5891 0.950 . S
H5869 C5893 0.950 . S
H5870 C5894 0.950 . S
H5871 C5895 0.951 . S
H5872 C5897 0.951 . S
H5873 C5899 0.950 . S
H5874 C5900 0.950 . S
H5875 C5902 0.950 . S
H5876 C5905 0.950 . S
H5877 C5906 0.950 . S
H5878 C5908 0.950 . S
H5879 C5909 0.950 . S
C5880 H5862 0.951 . S
C5880 C5881 1.366 . S
C5880 C5882 1.388 . S
C5881 C5880 1.366 . S
C5881 C5885 1.385 . S
C5882 H5863 0.951 . S
C5882 C5880 1.388 . S
C5882 C5883 1.366 . S
C5883 C5882 1.366 . S
C5883 C5884 1.414 . S
C5883 C5886 1.499 . S
C5884 H5864 0.950 . S
C5884 C5883 1.414 . S
C5884 C5885 1.374 . S
C5885 H5865 0.950 . S
C5885 C5881 1.385 . S
C5885 C5884 1.374 . S
C5886 C5883 1.499 . S
C5886 C5887 1.373 . S
C5886 C5888 1.389 . S
C5887 H5866 0.950 . S
C5887 C5886 1.373 . S
C5887 C5903 1.377 . S
C5888 C5886 1.389 . S
C5888 C5889 1.524 . S
C5888 C5902 1.377 . S
C5889 C5888 1.524 . S
C5889 C5890 1.397 . S
C5889 C5894 1.363 . S
C5890 H5867 0.950 . S
C5890 C5889 1.397 . S
C5890 C5891 1.334 . S
C5891 H5868 0.950 . S
C5891 C5890 1.334 . S
C5891 C5892 1.287 . S
C5892 C5891 1.287 . S
C5892 C5893 1.524 . S
C5892 H5911 0.913 . S
C5893 H5869 0.950 . S
C5893 C5892 1.524 . S
C5893 C5894 1.415 . S
C5894 H5870 0.950 . S
C5894 C5889 1.363 . S
C5894 C5893 1.415 . S
C5895 H5871 0.951 . S
C5895 C5896 1.366 . S
C5895 C5897 1.388 . S
C5896 C5895 1.366 . S
C5896 C5900 1.385 . S
C5897 H5872 0.951 . S
C5897 C5895 1.388 . S
C5897 C5898 1.366 . S
C5898 C5897 1.366 . S
C5898 C5899 1.414 . S
C5898 C5901 1.499 . S
C5899 H5873 0.950 . S
C5899 C5898 1.414 . S
C5899 C5900 1.374 . S
C5900 H5874 0.950 . S
C5900 C5896 1.385 . S
C5900 C5899 1.374 . S
C5901 C5898 1.499 . S
C5901 C5902 1.373 . S
C5901 C5903 1.389 . S
C5902 H5875 0.950 . S
C5902 C5888 1.377 . S
C5902 C5901 1.373 . S
C5903 C5887 1.377 . S
C5903 C5901 1.389 . S
C5903 C5904 1.524 . S
C5904 C5903 1.524 . S
C5904 C5905 1.397 . S
C5904 C5909 1.363 . S
C5905 H5876 0.950 . S
C5905 C5904 1.397 . S
C5905 C5906 1.334 . S
C5906 H5877 0.950 . S
C5906 C5905 1.334 . S
C5906 C5907 1.287 . S
C5907 C5906 1.287 . S
C5907 C5908 1.524 . S
C5907 H5910 0.999 . S
C5908 H5878 0.950 . S
C5908 C5907 1.524 . S
C5908 C5909 1.415 . S
C5909 H5879 0.950 . S
C5909 C5904 1.363 . S
C5909 C5908 1.415 . S
H5910 C5907 0.999 . S
H5911 C5892 0.913 . S
H5912 C5930 0.951 . S
H5913 C5932 0.951 . S
H5914 C5934 0.950 . S
H5915 C5935 0.950 . S
H5916 C5937 0.950 . S
H5917 C5940 0.950 . S
H5918 C5941 0.950 . S
H5919 C5943 0.950 . S
H5920 C5944 0.950 . S
H5921 C5945 0.951 . S
H5922 C5947 0.951 . S
H5923 C5949 0.950 . S
H5924 C5950 0.950 . S
H5925 C5952 0.950 . S
H5926 C5955 0.950 . S
H5927 C5956 0.950 . S
H5928 C5958 0.950 . S
H5929 C5959 0.950 . S
C5930 H5912 0.951 . S
C5930 C5931 1.366 . S
C5930 C5932 1.388 . S
C5931 C5930 1.366 . S
C5931 C5935 1.385 . S
C5932 H5913 0.951 . S
C5932 C5930 1.388 . S
C5932 C5933 1.366 . S
C5933 C5932 1.366 . S
C5933 C5934 1.414 . S
C5933 C5936 1.499 . S
C5934 H5914 0.950 . S
C5934 C5933 1.414 . S
C5934 C5935 1.374 . S
C5935 H5915 0.950 . S
C5935 C5931 1.385 . S
C5935 C5934 1.374 . S
C5936 C5933 1.499 . S
C5936 C5937 1.373 . S
C5936 C5938 1.389 . S
C5937 H5916 0.950 . S
C5937 C5936 1.373 . S
C5937 C5953 1.377 . S
C5938 C5936 1.389 . S
C5938 C5939 1.524 . S
C5938 C5952 1.377 . S
C5939 C5938 1.524 . S
C5939 C5940 1.397 . S
C5939 C5944 1.363 . S
C5940 H5917 0.950 . S
C5940 C5939 1.397 . S
C5940 C5941 1.334 . S
C5941 H5918 0.950 . S
C5941 C5940 1.334 . S
C5941 C5942 1.287 . S
C5942 C5941 1.287 . S
C5942 C5943 1.524 . S
C5942 H5961 0.913 . S
C5943 H5919 0.950 . S
C5943 C5942 1.524 . S
C5943 C5944 1.415 . S
C5944 H5920 0.950 . S
C5944 C5939 1.363 . S
C5944 C5943 1.415 . S
C5945 H5921 0.951 . S
C5945 C5946 1.366 . S
C5945 C5947 1.388 . S
C5946 C5945 1.366 . S
C5946 C5950 1.385 . S
C5947 H5922 0.951 . S
C5947 C5945 1.388 . S
C5947 C5948 1.366 . S
C5948 C5947 1.366 . S
C5948 C5949 1.414 . S
C5948 C5951 1.499 . S
C5949 H5923 0.950 . S
C5949 C5948 1.414 . S
C5949 C5950 1.374 . S
C5950 H5924 0.950 . S
C5950 C5946 1.385 . S
C5950 C5949 1.374 . S
C5951 C5948 1.499 . S
C5951 C5952 1.373 . S
C5951 C5953 1.389 . S
C5952 H5925 0.950 . S
C5952 C5938 1.377 . S
C5952 C5951 1.373 . S
C5953 C5937 1.377 . S
C5953 C5951 1.389 . S
C5953 C5954 1.524 . S
C5954 C5953 1.524 . S
C5954 C5955 1.397 . S
C5954 C5959 1.363 . S
C5955 H5926 0.950 . S
C5955 C5954 1.397 . S
C5955 C5956 1.334 . S
C5956 H5927 0.950 . S
C5956 C5955 1.334 . S
C5956 C5957 1.287 . S
C5957 C5956 1.287 . S
C5957 C5958 1.524 . S
C5957 H5960 0.999 . S
C5958 H5928 0.950 . S
C5958 C5957 1.524 . S
C5958 C5959 1.415 . S
C5959 H5929 0.950 . S
C5959 C5954 1.363 . S
C5959 C5958 1.415 . S
H5960 C5957 0.999 . S
H5961 C5942 0.913 . S
H5962 C5980 0.951 . S
H5963 C5982 0.951 . S
H5964 C5984 0.950 . S
H5965 C5985 0.950 . S
H5966 C5987 0.950 . S
H5967 C5990 0.950 . S
H5968 C5991 0.950 . S
H5969 C5993 0.950 . S
H5970 C5994 0.950 . S
H5971 C5995 0.951 . S
H5972 C5997 0.951 . S
H5973 C5999 0.950 . S
H5974 C6000 0.950 . S
H5975 C6002 0.950 . S
H5976 C6005 0.950 . S
H5977 C6006 0.950 . S
H5978 C6008 0.950 . S
H5979 C6009 0.950 . S
C5980 H5962 0.951 . S
C5980 C5981 1.366 . S
C5980 C5982 1.388 . S
C5981 C5980 1.366 . S
C5981 C5985 1.385 . S
C5982 H5963 0.951 . S
C5982 C5980 1.388 . S
C5982 C5983 1.366 . S
C5983 C5982 1.366 . S
C5983 C5984 1.414 . S
C5983 C5986 1.499 . S
C5984 H5964 0.950 . S
C5984 C5983 1.414 . S
C5984 C5985 1.374 . S
C5985 H5965 0.950 . S
C5985 C5981 1.385 . S
C5985 C5984 1.374 . S
C5986 C5983 1.499 . S
C5986 C5987 1.373 . S
C5986 C5988 1.389 . S
C5987 H5966 0.950 . S
C5987 C5986 1.373 . S
C5987 C6003 1.377 . S
C5988 C5986 1.389 . S
C5988 C5989 1.524 . S
C5988 C6002 1.377 . S
C5989 C5988 1.524 . S
C5989 C5990 1.397 . S
C5989 C5994 1.363 . S
C5990 H5967 0.950 . S
C5990 C5989 1.397 . S
C5990 C5991 1.334 . S
C5991 H5968 0.950 . S
C5991 C5990 1.334 . S
C5991 C5992 1.287 . S
C5992 C5991 1.287 . S
C5992 C5993 1.524 . S
C5992 H6011 0.913 . S
C5993 H5969 0.950 . S
C5993 C5992 1.524 . S
C5993 C5994 1.415 . S
C5994 H5970 0.950 . S
C5994 C5989 1.363 . S
C5994 C5993 1.415 . S
C5995 H5971 0.951 . S
C5995 C5996 1.366 . S
C5995 C5997 1.388 . S
C5996 C5995 1.366 . S
C5996 C6000 1.385 . S
C5997 H5972 0.951 . S
C5997 C5995 1.388 . S
C5997 C5998 1.366 . S
C5998 C5997 1.366 . S
C5998 C5999 1.414 . S
C5998 C6001 1.499 . S
C5999 H5973 0.950 . S
C5999 C5998 1.414 . S
C5999 C6000 1.374 . S
C6000 H5974 0.950 . S
C6000 C5996 1.385 . S
C6000 C5999 1.374 . S
C6001 C5998 1.499 . S
C6001 C6002 1.373 . S
C6001 C6003 1.389 . S
C6002 H5975 0.950 . S
C6002 C5988 1.377 . S
C6002 C6001 1.373 . S
C6003 C5987 1.377 . S
C6003 C6001 1.389 . S
C6003 C6004 1.524 . S
C6004 C6003 1.524 . S
C6004 C6005 1.397 . S
C6004 C6009 1.363 . S
C6005 H5976 0.950 . S
C6005 C6004 1.397 . S
C6005 C6006 1.334 . S
C6006 H5977 0.950 . S
C6006 C6005 1.334 . S
C6006 C6007 1.287 . S
C6007 C6006 1.287 . S
C6007 C6008 1.524 . S
C6007 H6010 0.999 . S
C6008 H5978 0.950 . S
C6008 C6007 1.524 . S
C6008 C6009 1.415 . S
C6009 H5979 0.950 . S
C6009 C6004 1.363 . S
C6009 C6008 1.415 . S
H6010 C6007 0.999 . S
H6011 C5992 0.913 . S
H6012 C6030 0.951 . S
H6013 C6032 0.951 . S
H6014 C6034 0.950 . S
H6015 C6035 0.950 . S
H6016 C6037 0.950 . S
H6017 C6040 0.950 . S
H6018 C6041 0.950 . S
H6019 C6043 0.950 . S
H6020 C6044 0.950 . S
H6021 C6045 0.951 . S
H6022 C6047 0.951 . S
H6023 C6049 0.950 . S
H6024 C6050 0.950 . S
H6025 C6052 0.950 . S
H6026 C6055 0.950 . S
H6027 C6056 0.950 . S
H6028 C6058 0.950 . S
H6029 C6059 0.950 . S
C6030 H6012 0.951 . S
C6030 C6031 1.366 . S
C6030 C6032 1.388 . S
C6031 C6030 1.366 . S
C6031 C6035 1.385 . S
C6032 H6013 0.951 . S
C6032 C6030 1.388 . S
C6032 C6033 1.366 . S
C6033 C6032 1.366 . S
C6033 C6034 1.414 . S
C6033 C6036 1.499 . S
C6034 H6014 0.950 . S
C6034 C6033 1.414 . S
C6034 C6035 1.374 . S
C6035 H6015 0.950 . S
C6035 C6031 1.385 . S
C6035 C6034 1.374 . S
C6036 C6033 1.499 . S
C6036 C6037 1.373 . S
C6036 C6038 1.389 . S
C6037 H6016 0.950 . S
C6037 C6036 1.373 . S
C6037 C6053 1.377 . S
C6038 C6036 1.389 . S
C6038 C6039 1.524 . S
C6038 C6052 1.377 . S
C6039 C6038 1.524 . S
C6039 C6040 1.397 . S
C6039 C6044 1.363 . S
C6040 H6017 0.950 . S
C6040 C6039 1.397 . S
C6040 C6041 1.334 . S
C6041 H6018 0.950 . S
C6041 C6040 1.334 . S
C6041 C6042 1.287 . S
C6042 C6041 1.287 . S
C6042 C6043 1.524 . S
C6042 H6061 0.913 . S
C6043 H6019 0.950 . S
C6043 C6042 1.524 . S
C6043 C6044 1.415 . S
C6044 H6020 0.950 . S
C6044 C6039 1.363 . S
C6044 C6043 1.415 . S
C6045 H6021 0.951 . S
C6045 C6046 1.366 . S
C6045 C6047 1.388 . S
C6046 C6045 1.366 . S
C6046 C6050 1.385 . S
C6047 H6022 0.951 . S
C6047 C6045 1.388 . S
C6047 C6048 1.366 . S
C6048 C6047 1.366 . S
C6048 C6049 1.414 . S
C6048 C6051 1.499 . S
C6049 H6023 0.950 . S
C6049 C6048 1.414 . S
C6049 C6050 1.374 . S
C6050 H6024 0.950 . S
C6050 C6046 1.385 . S
C6050 C6049 1.374 . S
C6051 C6048 1.499 . S
C6051 C6052 1.373 . S
C6051 C6053 1.389 . S
C6052 H6025 0.950 . S
C6052 C6038 1.377 . S
C6052 C6051 1.373 . S
C6053 C6037 1.377 . S
C6053 C6051 1.389 . S
C6053 C6054 1.524 . S
C6054 C6053 1.524 . S
C6054 C6055 1.397 . S
C6054 C6059 1.363 . S
C6055 H6026 0.950 . S
C6055 C6054 1.397 . S
C6055 C6056 1.334 . S
C6056 H6027 0.950 . S
C6056 C6055 1.334 . S
C6056 C6057 1.287 . S
C6057 C6056 1.287 . S
C6057 C6058 1.524 . S
C6057 H6060 0.999 . S
C6058 H6028 0.950 . S
C6058 C6057 1.524 . S
C6058 C6059 1.415 . S
C6059 H6029 0.950 . S
C6059 C6054 1.363 . S
C6059 C6058 1.415 . S
H6060 C6057 0.999 . S
H6061 C6042 0.913 . S
H6062 C6080 0.951 . S
H6063 C6082 0.951 . S
H6064 C6084 0.950 . S
H6065 C6085 0.950 . S
H6066 C6087 0.950 . S
H6067 C6090 0.950 . S
H6068 C6091 0.950 . S
H6069 C6093 0.950 . S
H6070 C6094 0.950 . S
H6071 C6095 0.951 . S
H6072 C6097 0.951 . S
H6073 C6099 0.950 . S
H6074 C6100 0.950 . S
H6075 C6102 0.950 . S
H6076 C6105 0.950 . S
H6077 C6106 0.950 . S
H6078 C6108 0.950 . S
H6079 C6109 0.950 . S
C6080 H6062 0.951 . S
C6080 C6081 1.366 . S
C6080 C6082 1.388 . S
C6081 C6080 1.366 . S
C6081 C6085 1.385 . S
C6082 H6063 0.951 . S
C6082 C6080 1.388 . S
C6082 C6083 1.366 . S
C6083 C6082 1.366 . S
C6083 C6084 1.414 . S
C6083 C6086 1.499 . S
C6084 H6064 0.950 . S
C6084 C6083 1.414 . S
C6084 C6085 1.374 . S
C6085 H6065 0.950 . S
C6085 C6081 1.385 . S
C6085 C6084 1.374 . S
C6086 C6083 1.499 . S
C6086 C6087 1.373 . S
C6086 C6088 1.389 . S
C6087 H6066 0.950 . S
C6087 C6086 1.373 . S
C6087 C6103 1.377 . S
C6088 C6086 1.389 . S
C6088 C6089 1.524 . S
C6088 C6102 1.377 . S
C6089 C6088 1.524 . S
C6089 C6090 1.397 . S
C6089 C6094 1.363 . S
C6090 H6067 0.950 . S
C6090 C6089 1.397 . S
C6090 C6091 1.334 . S
C6091 H6068 0.950 . S
C6091 C6090 1.334 . S
C6091 C6092 1.287 . S
C6092 C6091 1.287 . S
C6092 C6093 1.524 . S
C6092 H6111 0.913 . S
C6093 H6069 0.950 . S
C6093 C6092 1.524 . S
C6093 C6094 1.415 . S
C6094 H6070 0.950 . S
C6094 C6089 1.363 . S
C6094 C6093 1.415 . S
C6095 H6071 0.951 . S
C6095 C6096 1.366 . S
C6095 C6097 1.388 . S
C6096 C6095 1.366 . S
C6096 C6100 1.385 . S
C6097 H6072 0.951 . S
C6097 C6095 1.388 . S
C6097 C6098 1.366 . S
C6098 C6097 1.366 . S
C6098 C6099 1.414 . S
C6098 C6101 1.499 . S
C6099 H6073 0.950 . S
C6099 C6098 1.414 . S
C6099 C6100 1.374 . S
C6100 H6074 0.950 . S
C6100 C6096 1.385 . S
C6100 C6099 1.374 . S
C6101 C6098 1.499 . S
C6101 C6102 1.373 . S
C6101 C6103 1.389 . S
C6102 H6075 0.950 . S
C6102 C6088 1.377 . S
C6102 C6101 1.373 . S
C6103 C6087 1.377 . S
C6103 C6101 1.389 . S
C6103 C6104 1.524 . S
C6104 C6103 1.524 . S
C6104 C6105 1.397 . S
C6104 C6109 1.363 . S
C6105 H6076 0.950 . S
C6105 C6104 1.397 . S
C6105 C6106 1.334 . S
C6106 H6077 0.950 . S
C6106 C6105 1.334 . S
C6106 C6107 1.287 . S
C6107 C6106 1.287 . S
C6107 C6108 1.524 . S
C6107 H6110 0.999 . S
C6108 H6078 0.950 . S
C6108 C6107 1.524 . S
C6108 C6109 1.415 . S
C6109 H6079 0.950 . S
C6109 C6104 1.363 . S
C6109 C6108 1.415 . S
H6110 C6107 0.999 . S
H6111 C6092 0.913 . S
H6112 C6130 0.951 . S
H6113 C6132 0.951 . S
H6114 C6134 0.950 . S
H6115 C6135 0.950 . S
H6116 C6137 0.950 . S
H6117 C6140 0.950 . S
H6118 C6141 0.950 . S
H6119 C6143 0.950 . S
H6120 C6144 0.950 . S
H6121 C6145 0.951 . S
H6122 C6147 0.951 . S
H6123 C6149 0.950 . S
H6124 C6150 0.950 . S
H6125 C6152 0.950 . S
H6126 C6155 0.950 . S
H6127 C6156 0.950 . S
H6128 C6158 0.950 . S
H6129 C6159 0.950 . S
C6130 H6112 0.951 . S
C6130 C6131 1.366 . S
C6130 C6132 1.388 . S
C6131 C6130 1.366 . S
C6131 C6135 1.385 . S
C6132 H6113 0.951 . S
C6132 C6130 1.388 . S
C6132 C6133 1.366 . S
C6133 C6132 1.366 . S
C6133 C6134 1.414 . S
C6133 C6136 1.499 . S
C6134 H6114 0.950 . S
C6134 C6133 1.414 . S
C6134 C6135 1.374 . S
C6135 H6115 0.950 . S
C6135 C6131 1.385 . S
C6135 C6134 1.374 . S
C6136 C6133 1.499 . S
C6136 C6137 1.373 . S
C6136 C6138 1.389 . S
C6137 H6116 0.950 . S
C6137 C6136 1.373 . S
C6137 C6153 1.377 . S
C6138 C6136 1.389 . S
C6138 C6139 1.524 . S
C6138 C6152 1.377 . S
C6139 C6138 1.524 . S
C6139 C6140 1.397 . S
C6139 C6144 1.363 . S
C6140 H6117 0.950 . S
C6140 C6139 1.397 . S
C6140 C6141 1.334 . S
C6141 H6118 0.950 . S
C6141 C6140 1.334 . S
C6141 C6142 1.287 . S
C6142 C6141 1.287 . S
C6142 C6143 1.524 . S
C6142 H6161 0.913 . S
C6143 H6119 0.950 . S
C6143 C6142 1.524 . S
C6143 C6144 1.415 . S
C6144 H6120 0.950 . S
C6144 C6139 1.363 . S
C6144 C6143 1.415 . S
C6145 H6121 0.951 . S
C6145 C6146 1.366 . S
C6145 C6147 1.388 . S
C6146 C6145 1.366 . S
C6146 C6150 1.385 . S
C6147 H6122 0.951 . S
C6147 C6145 1.388 . S
C6147 C6148 1.366 . S
C6148 C6147 1.366 . S
C6148 C6149 1.414 . S
C6148 C6151 1.499 . S
C6149 H6123 0.950 . S
C6149 C6148 1.414 . S
C6149 C6150 1.374 . S
C6150 H6124 0.950 . S
C6150 C6146 1.385 . S
C6150 C6149 1.374 . S
C6151 C6148 1.499 . S
C6151 C6152 1.373 . S
C6151 C6153 1.389 . S
C6152 H6125 0.950 . S
C6152 C6138 1.377 . S
C6152 C6151 1.373 . S
C6153 C6137 1.377 . S
C6153 C6151 1.389 . S
C6153 C6154 1.524 . S
C6154 C6153 1.524 . S
C6154 C6155 1.397 . S
C6154 C6159 1.363 . S
C6155 H6126 0.950 . S
C6155 C6154 1.397 . S
C6155 C6156 1.334 . S
C6156 H6127 0.950 . S
C6156 C6155 1.334 . S
C6156 C6157 1.287 . S
C6157 C6156 1.287 . S
C6157 C6158 1.524 . S
C6157 H6160 0.999 . S
C6158 H6128 0.950 . S
C6158 C6157 1.524 . S
C6158 C6159 1.415 . S
C6159 H6129 0.950 . S
C6159 C6154 1.363 . S
C6159 C6158 1.415 . S
H6160 C6157 0.999 . S
H6161 C6142 0.913 . S
H6162 C6180 0.951 . S
H6163 C6182 0.951 . S
H6164 C6184 0.950 . S
H6165 C6185 0.950 . S
H6166 C6187 0.950 . S
H6167 C6190 0.950 . S
H6168 C6191 0.950 . S
H6169 C6193 0.950 . S
H6170 C6194 0.950 . S
H6171 C6195 0.951 . S
H6172 C6197 0.951 . S
H6173 C6199 0.950 . S
H6174 C6200 0.950 . S
H6175 C6202 0.950 . S
H6176 C6205 0.950 . S
H6177 C6206 0.950 . S
H6178 C6208 0.950 . S
H6179 C6209 0.950 . S
C6180 H6162 0.951 . S
C6180 C6181 1.366 . S
C6180 C6182 1.388 . S
C6181 C6180 1.366 . S
C6181 C6185 1.385 . S
C6182 H6163 0.951 . S
C6182 C6180 1.388 . S
C6182 C6183 1.366 . S
C6183 C6182 1.366 . S
C6183 C6184 1.414 . S
C6183 C6186 1.499 . S
C6184 H6164 0.950 . S
C6184 C6183 1.414 . S
C6184 C6185 1.374 . S
C6185 H6165 0.950 . S
C6185 C6181 1.385 . S
C6185 C6184 1.374 . S
C6186 C6183 1.499 . S
C6186 C6187 1.373 . S
C6186 C6188 1.389 . S
C6187 H6166 0.950 . S
C6187 C6186 1.373 . S
C6187 C6203 1.377 . S
C6188 C6186 1.389 . S
C6188 C6189 1.524 . S
C6188 C6202 1.377 . S
C6189 C6188 1.524 . S
C6189 C6190 1.397 . S
C6189 C6194 1.363 . S
C6190 H6167 0.950 . S
C6190 C6189 1.397 . S
C6190 C6191 1.334 . S
C6191 H6168 0.950 . S
C6191 C6190 1.334 . S
C6191 C6192 1.287 . S
C6192 C6191 1.287 . S
C6192 C6193 1.524 . S
C6192 H6211 0.913 . S
C6193 H6169 0.950 . S
C6193 C6192 1.524 . S
C6193 C6194 1.415 . S
C6194 H6170 0.950 . S
C6194 C6189 1.363 . S
C6194 C6193 1.415 . S
C6195 H6171 0.951 . S
C6195 C6196 1.366 . S
C6195 C6197 1.388 . S
C6196 C6195 1.366 . S
C6196 C6200 1.385 . S
C6197 H6172 0.951 . S
C6197 C6195 1.388 . S
C6197 C6198 1.366 . S
C6198 C6197 1.366 . S
C6198 C6199 1.414 . S
C6198 C6201 1.499 . S
C6199 H6173 0.950 . S
C6199 C6198 1.414 . S
C6199 C6200 1.374 . S
C6200 H6174 0.950 . S
C6200 C6196 1.385 . S
C6200 C6199 1.374 . S
C6201 C6198 1.499 . S
C6201 C6202 1.373 . S
C6201 C6203 1.389 . S
C6202 H6175 0.950 . S
C6202 C6188 1.377 . S
C6202 C6201 1.373 . S
C6203 C6187 1.377 . S
C6203 C6201 1.389 . S
C6203 C6204 1.524 . S
C6204 C6203 1.524 . S
C6204 C6205 1.397 . S
C6204 C6209 1.363 . S
C6205 H6176 0.950 . S
C6205 C6204 1.397 . S
C6205 C6206 1.334 . S
C6206 H6177 0.950 . S
C6206 C6205 1.334 . S
C6206 C6207 1.287 . S
C6207 C6206 1.287 . S
C6207 C6208 1.524 . S
C6207 H6210 0.999 . S
C6208 H6178 0.950 . S
C6208 C6207 1.524 . S
C6208 C6209 1.415 . S
C6209 H6179 0.950 . S
C6209 C6204 1.363 . S
C6209 C6208 1.415 . S
H6210 C6207 0.999 . S
H6211 C6192 0.913 . S
H6212 C6230 0.951 . S
H6213 C6232 0.951 . S
H6214 C6234 0.950 . S
H6215 C6235 0.950 . S
H6216 C6237 0.950 . S
H6217 C6240 0.950 . S
H6218 C6241 0.950 . S
H6219 C6243 0.950 . S
H6220 C6244 0.950 . S
H6221 C6245 0.951 . S
H6222 C6247 0.951 . S
H6223 C6249 0.950 . S
H6224 C6250 0.950 . S
H6225 C6252 0.950 . S
H6226 C6255 0.950 . S
H6227 C6256 0.950 . S
H6228 C6258 0.950 . S
H6229 C6259 0.950 . S
C6230 H6212 0.951 . S
C6230 C6231 1.366 . S
C6230 C6232 1.388 . S
C6231 C6230 1.366 . S
C6231 C6235 1.385 . S
C6232 H6213 0.951 . S
C6232 C6230 1.388 . S
C6232 C6233 1.366 . S
C6233 C6232 1.366 . S
C6233 C6234 1.414 . S
C6233 C6236 1.499 . S
C6234 H6214 0.950 . S
C6234 C6233 1.414 . S
C6234 C6235 1.374 . S
C6235 H6215 0.950 . S
C6235 C6231 1.385 . S
C6235 C6234 1.374 . S
C6236 C6233 1.499 . S
C6236 C6237 1.373 . S
C6236 C6238 1.389 . S
C6237 H6216 0.950 . S
C6237 C6236 1.373 . S
C6237 C6253 1.377 . S
C6238 C6236 1.389 . S
C6238 C6239 1.524 . S
C6238 C6252 1.377 . S
C6239 C6238 1.524 . S
C6239 C6240 1.397 . S
C6239 C6244 1.363 . S
C6240 H6217 0.950 . S
C6240 C6239 1.397 . S
C6240 C6241 1.334 . S
C6241 H6218 0.950 . S
C6241 C6240 1.334 . S
C6241 C6242 1.287 . S
C6242 C6241 1.287 . S
C6242 C6243 1.524 . S
C6242 H6261 0.913 . S
C6243 H6219 0.950 . S
C6243 C6242 1.524 . S
C6243 C6244 1.415 . S
C6244 H6220 0.950 . S
C6244 C6239 1.363 . S
C6244 C6243 1.415 . S
C6245 H6221 0.951 . S
C6245 C6246 1.366 . S
C6245 C6247 1.388 . S
C6246 C6245 1.366 . S
C6246 C6250 1.385 . S
C6247 H6222 0.951 . S
C6247 C6245 1.388 . S
C6247 C6248 1.366 . S
C6248 C6247 1.366 . S
C6248 C6249 1.414 . S
C6248 C6251 1.499 . S
C6249 H6223 0.950 . S
C6249 C6248 1.414 . S
C6249 C6250 1.374 . S
C6250 H6224 0.950 . S
C6250 C6246 1.385 . S
C6250 C6249 1.374 . S
C6251 C6248 1.499 . S
C6251 C6252 1.373 . S
C6251 C6253 1.389 . S
C6252 H6225 0.950 . S
C6252 C6238 1.377 . S
C6252 C6251 1.373 . S
C6253 C6237 1.377 . S
C6253 C6251 1.389 . S
C6253 C6254 1.524 . S
C6254 C6253 1.524 . S
C6254 C6255 1.397 . S
C6254 C6259 1.363 . S
C6255 H6226 0.950 . S
C6255 C6254 1.397 . S
C6255 C6256 1.334 . S
C6256 H6227 0.950 . S
C6256 C6255 1.334 . S
C6256 C6257 1.287 . S
C6257 C6256 1.287 . S
C6257 C6258 1.524 . S
C6257 H6260 0.999 . S
C6258 H6228 0.950 . S
C6258 C6257 1.524 . S
C6258 C6259 1.415 . S
C6259 H6229 0.950 . S
C6259 C6254 1.363 . S
C6259 C6258 1.415 . S
H6260 C6257 0.999 . S
H6261 C6242 0.913 . S
H6262 C6280 0.951 . S
H6263 C6282 0.951 . S
H6264 C6284 0.950 . S
H6265 C6285 0.950 . S
H6266 C6287 0.950 . S
H6267 C6290 0.950 . S
H6268 C6291 0.950 . S
H6269 C6293 0.950 . S
H6270 C6294 0.950 . S
H6271 C6295 0.951 . S
H6272 C6297 0.951 . S
H6273 C6299 0.950 . S
H6274 C6300 0.950 . S
H6275 C6302 0.950 . S
H6276 C6305 0.950 . S
H6277 C6306 0.950 . S
H6278 C6308 0.950 . S
H6279 C6309 0.950 . S
C6280 H6262 0.951 . S
C6280 C6281 1.366 . S
C6280 C6282 1.388 . S
C6281 C6280 1.366 . S
C6281 C6285 1.385 . S
C6282 H6263 0.951 . S
C6282 C6280 1.388 . S
C6282 C6283 1.366 . S
C6283 C6282 1.366 . S
C6283 C6284 1.414 . S
C6283 C6286 1.499 . S
C6284 H6264 0.950 . S
C6284 C6283 1.414 . S
C6284 C6285 1.374 . S
C6285 H6265 0.950 . S
C6285 C6281 1.385 . S
C6285 C6284 1.374 . S
C6286 C6283 1.499 . S
C6286 C6287 1.373 . S
C6286 C6288 1.389 . S
C6287 H6266 0.950 . S
C6287 C6286 1.373 . S
C6287 C6303 1.377 . S
C6288 C6286 1.389 . S
C6288 C6289 1.524 . S
C6288 C6302 1.377 . S
C6289 C6288 1.524 . S
C6289 C6290 1.397 . S
C6289 C6294 1.363 . S
C6290 H6267 0.950 . S
C6290 C6289 1.397 . S
C6290 C6291 1.334 . S
C6291 H6268 0.950 . S
C6291 C6290 1.334 . S
C6291 C6292 1.287 . S
C6292 C6291 1.287 . S
C6292 C6293 1.524 . S
C6292 H6311 0.913 . S
C6293 H6269 0.950 . S
C6293 C6292 1.524 . S
C6293 C6294 1.415 . S
C6294 H6270 0.950 . S
C6294 C6289 1.363 . S
C6294 C6293 1.415 . S
C6295 H6271 0.951 . S
C6295 C6296 1.366 . S
C6295 C6297 1.388 . S
C6296 C6295 1.366 . S
C6296 C6300 1.385 . S
C6297 H6272 0.951 . S
C6297 C6295 1.388 . S
C6297 C6298 1.366 . S
C6298 C6297 1.366 . S
C6298 C6299 1.414 . S
C6298 C6301 1.499 . S
C6299 H6273 0.950 . S
C6299 C6298 1.414 . S
C6299 C6300 1.374 . S
C6300 H6274 0.950 . S
C6300 C6296 1.385 . S
C6300 C6299 1.374 . S
C6301 C6298 1.499 . S
C6301 C6302 1.373 . S
C6301 C6303 1.389 . S
C6302 H6275 0.950 . S
C6302 C6288 1.377 . S
C6302 C6301 1.373 . S
C6303 C6287 1.377 . S
C6303 C6301 1.389 . S
C6303 C6304 1.524 . S
C6304 C6303 1.524 . S
C6304 C6305 1.397 . S
C6304 C6309 1.363 . S
C6305 H6276 0.950 . S
C6305 C6304 1.397 . S
C6305 C6306 1.334 . S
C6306 H6277 0.950 . S
C6306 C6305 1.334 . S
C6306 C6307 1.287 . S
C6307 C6306 1.287 . S
C6307 C6308 1.524 . S
C6307 H6310 0.999 . S
C6308 H6278 0.950 . S
C6308 C6307 1.524 . S
C6308 C6309 1.415 . S
C6309 H6279 0.950 . S
C6309 C6304 1.363 . S
C6309 C6308 1.415 . S
H6310 C6307 0.999 . S
H6311 C6292 0.913 . S
H6312 C6330 0.951 . S
H6313 C6332 0.951 . S
H6314 C6334 0.950 . S
H6315 C6335 0.950 . S
H6316 C6337 0.950 . S
H6317 C6340 0.950 . S
H6318 C6341 0.950 . S
H6319 C6343 0.950 . S
H6320 C6344 0.950 . S
H6321 C6345 0.951 . S
H6322 C6347 0.951 . S
H6323 C6349 0.950 . S
H6324 C6350 0.950 . S
H6325 C6352 0.950 . S
H6326 C6355 0.950 . S
H6327 C6356 0.950 . S
H6328 C6358 0.950 . S
H6329 C6359 0.950 . S
C6330 H6312 0.951 . S
C6330 C6331 1.366 . S
C6330 C6332 1.388 . S
C6331 C6330 1.366 . S
C6331 C6335 1.385 . S
C6332 H6313 0.951 . S
C6332 C6330 1.388 . S
C6332 C6333 1.366 . S
C6333 C6332 1.366 . S
C6333 C6334 1.414 . S
C6333 C6336 1.499 . S
C6334 H6314 0.950 . S
C6334 C6333 1.414 . S
C6334 C6335 1.374 . S
C6335 H6315 0.950 . S
C6335 C6331 1.385 . S
C6335 C6334 1.374 . S
C6336 C6333 1.499 . S
C6336 C6337 1.373 . S
C6336 C6338 1.389 . S
C6337 H6316 0.950 . S
C6337 C6336 1.373 . S
C6337 C6353 1.377 . S
C6338 C6336 1.389 . S
C6338 C6339 1.524 . S
C6338 C6352 1.377 . S
C6339 C6338 1.524 . S
C6339 C6340 1.397 . S
C6339 C6344 1.363 . S
C6340 H6317 0.950 . S
C6340 C6339 1.397 . S
C6340 C6341 1.334 . S
C6341 H6318 0.950 . S
C6341 C6340 1.334 . S
C6341 C6342 1.287 . S
C6342 C6341 1.287 . S
C6342 C6343 1.524 . S
C6342 H6361 0.913 . S
C6343 H6319 0.950 . S
C6343 C6342 1.524 . S
C6343 C6344 1.415 . S
C6344 H6320 0.950 . S
C6344 C6339 1.363 . S
C6344 C6343 1.415 . S
C6345 H6321 0.951 . S
C6345 C6346 1.366 . S
C6345 C6347 1.388 . S
C6346 C6345 1.366 . S
C6346 C6350 1.385 . S
C6347 H6322 0.951 . S
C6347 C6345 1.388 . S
C6347 C6348 1.366 . S
C6348 C6347 1.366 . S
C6348 C6349 1.414 . S
C6348 C6351 1.499 . S
C6349 H6323 0.950 . S
C6349 C6348 1.414 . S
C6349 C6350 1.374 . S
C6350 H6324 0.950 . S
C6350 C6346 1.385 . S
C6350 C6349 1.374 . S
C6351 C6348 1.499 . S
C6351 C6352 1.373 . S
C6351 C6353 1.389 . S
C6352 H6325 0.950 . S
C6352 C6338 1.377 . S
C6352 C6351 1.373 . S
C6353 C6337 1.377 . S
C6353 C6351 1.389 . S
C6353 C6354 1.524 . S
C6354 C6353 1.524 . S
C6354 C6355 1.397 . S
C6354 C6359 1.363 . S
C6355 H6326 0.950 . S
C6355 C6354 1.397 . S
C6355 C6356 1.334 . S
C6356 H6327 0.950 . S
C6356 C6355 1.334 . S
C6356 C6357 1.287 . S
C6357 C6356 1.287 . S
C6357 C6358 1.524 . S
C6357 H6360 0.999 . S
C6358 H6328 0.950 . S
C6358 C6357 1.524 . S
C6358 C6359 1.415 . S
C6359 H6329 0.950 . S
C6359 C6354 1.363 . S
C6359 C6358 1.415 . S
H6360 C6357 0.999 . S
H6361 C6342 0.913 . S
H6362 C6380 0.951 . S
H6363 C6382 0.951 . S
H6364 C6384 0.950 . S
H6365 C6385 0.950 . S
H6366 C6387 0.950 . S
H6367 C6390 0.950 . S
H6368 C6391 0.950 . S
H6369 C6393 0.950 . S
H6370 C6394 0.950 . S
H6371 C6395 0.951 . S
H6372 C6397 0.951 . S
H6373 C6399 0.950 . S
H6374 C6400 0.950 . S
H6375 C6402 0.950 . S
H6376 C6405 0.950 . S
H6377 C6406 0.950 . S
H6378 C6408 0.950 . S
H6379 C6409 0.950 . S
C6380 H6362 0.951 . S
C6380 C6381 1.366 . S
C6380 C6382 1.388 . S
C6381 C6380 1.366 . S
C6381 C6385 1.385 . S
C6382 H6363 0.951 . S
C6382 C6380 1.388 . S
C6382 C6383 1.366 . S
C6383 C6382 1.366 . S
C6383 C6384 1.414 . S
C6383 C6386 1.499 . S
C6384 H6364 0.950 . S
C6384 C6383 1.414 . S
C6384 C6385 1.374 . S
C6385 H6365 0.950 . S
C6385 C6381 1.385 . S
C6385 C6384 1.374 . S
C6386 C6383 1.499 . S
C6386 C6387 1.373 . S
C6386 C6388 1.389 . S
C6387 H6366 0.950 . S
C6387 C6386 1.373 . S
C6387 C6403 1.377 . S
C6388 C6386 1.389 . S
C6388 C6389 1.524 . S
C6388 C6402 1.377 . S
C6389 C6388 1.524 . S
C6389 C6390 1.397 . S
C6389 C6394 1.363 . S
C6390 H6367 0.950 . S
C6390 C6389 1.397 . S
C6390 C6391 1.334 . S
C6391 H6368 0.950 . S
C6391 C6390 1.334 . S
C6391 C6392 1.287 . S
C6392 C6391 1.287 . S
C6392 C6393 1.524 . S
C6392 H6411 0.913 . S
C6393 H6369 0.950 . S
C6393 C6392 1.524 . S
C6393 C6394 1.415 . S
C6394 H6370 0.950 . S
C6394 C6389 1.363 . S
C6394 C6393 1.415 . S
C6395 H6371 0.951 . S
C6395 C6396 1.366 . S
C6395 C6397 1.388 . S
C6396 C6395 1.366 . S
C6396 C6400 1.385 . S
C6397 H6372 0.951 . S
C6397 C6395 1.388 . S
C6397 C6398 1.366 . S
C6398 C6397 1.366 . S
C6398 C6399 1.414 . S
C6398 C6401 1.499 . S
C6399 H6373 0.950 . S
C6399 C6398 1.414 . S
C6399 C6400 1.374 . S
C6400 H6374 0.950 . S
C6400 C6396 1.385 . S
C6400 C6399 1.374 . S
C6401 C6398 1.499 . S
C6401 C6402 1.373 . S
C6401 C6403 1.389 . S
C6402 H6375 0.950 . S
C6402 C6388 1.377 . S
C6402 C6401 1.373 . S
C6403 C6387 1.377 . S
C6403 C6401 1.389 . S
C6403 C6404 1.524 . S
C6404 C6403 1.524 . S
C6404 C6405 1.397 . S
C6404 C6409 1.363 . S
C6405 H6376 0.950 . S
C6405 C6404 1.397 . S
C6405 C6406 1.334 . S
C6406 H6377 0.950 . S
C6406 C6405 1.334 . S
C6406 C6407 1.287 . S
C6407 C6406 1.287 . S
C6407 C6408 1.524 . S
C6407 H6410 0.999 . S
C6408 H6378 0.950 . S
C6408 C6407 1.524 . S
C6408 C6409 1.415 . S
C6409 H6379 0.950 . S
C6409 C6404 1.363 . S
C6409 C6408 1.415 . S
H6410 C6407 0.999 . S
H6411 C6392 0.913 . S
H6412 C6430 0.951 . S
H6413 C6432 0.951 . S
H6414 C6434 0.950 . S
H6415 C6435 0.950 . S
H6416 C6437 0.950 . S
H6417 C6440 0.950 . S
H6418 C6441 0.950 . S
H6419 C6443 0.950 . S
H6420 C6444 0.950 . S
H6421 C6445 0.951 . S
H6422 C6447 0.951 . S
H6423 C6449 0.950 . S
H6424 C6450 0.950 . S
H6425 C6452 0.950 . S
H6426 C6455 0.950 . S
H6427 C6456 0.950 . S
H6428 C6458 0.950 . S
H6429 C6459 0.950 . S
C6430 H6412 0.951 . S
C6430 C6431 1.366 . S
C6430 C6432 1.388 . S
C6431 C6430 1.366 . S
C6431 C6435 1.385 . S
C6432 H6413 0.951 . S
C6432 C6430 1.388 . S
C6432 C6433 1.366 . S
C6433 C6432 1.366 . S
C6433 C6434 1.414 . S
C6433 C6436 1.499 . S
C6434 H6414 0.950 . S
C6434 C6433 1.414 . S
C6434 C6435 1.374 . S
C6435 H6415 0.950 . S
C6435 C6431 1.385 . S
C6435 C6434 1.374 . S
C6436 C6433 1.499 . S
C6436 C6437 1.373 . S
C6436 C6438 1.389 . S
C6437 H6416 0.950 . S
C6437 C6436 1.373 . S
C6437 C6453 1.377 . S
C6438 C6436 1.389 . S
C6438 C6439 1.524 . S
C6438 C6452 1.377 . S
C6439 C6438 1.524 . S
C6439 C6440 1.397 . S
C6439 C6444 1.363 . S
C6440 H6417 0.950 . S
C6440 C6439 1.397 . S
C6440 C6441 1.334 . S
C6441 H6418 0.950 . S
C6441 C6440 1.334 . S
C6441 C6442 1.287 . S
C6442 C6441 1.287 . S
C6442 C6443 1.524 . S
C6442 H6461 0.913 . S
C6443 H6419 0.950 . S
C6443 C6442 1.524 . S
C6443 C6444 1.415 . S
C6444 H6420 0.950 . S
C6444 C6439 1.363 . S
C6444 C6443 1.415 . S
C6445 H6421 0.951 . S
C6445 C6446 1.366 . S
C6445 C6447 1.388 . S
C6446 C6445 1.366 . S
C6446 C6450 1.385 . S
C6447 H6422 0.951 . S
C6447 C6445 1.388 . S
C6447 C6448 1.366 . S
C6448 C6447 1.366 . S
C6448 C6449 1.414 . S
C6448 C6451 1.499 . S
C6449 H6423 0.950 . S
C6449 C6448 1.414 . S
C6449 C6450 1.374 . S
C6450 H6424 0.950 . S
C6450 C6446 1.385 . S
C6450 C6449 1.374 . S
C6451 C6448 1.499 . S
C6451 C6452 1.373 . S
C6451 C6453 1.389 . S
C6452 H6425 0.950 . S
C6452 C6438 1.377 . S
C6452 C6451 1.373 . S
C6453 C6437 1.377 . S
C6453 C6451 1.389 . S
C6453 C6454 1.524 . S
C6454 C6453 1.524 . S
C6454 C6455 1.397 . S
C6454 C6459 1.363 . S
C6455 H6426 0.950 . S
C6455 C6454 1.397 . S
C6455 C6456 1.334 . S
C6456 H6427 0.950 . S
C6456 C6455 1.334 . S
C6456 C6457 1.287 . S
C6457 C6456 1.287 . S
C6457 C6458 1.524 . S
C6457 H6460 0.999 . S
C6458 H6428 0.950 . S
C6458 C6457 1.524 . S
C6458 C6459 1.415 . S
C6459 H6429 0.950 . S
C6459 C6454 1.363 . S
C6459 C6458 1.415 . S
H6460 C6457 0.999 . S
H6461 C6442 0.913 . S
H6462 C6480 0.951 . S
H6463 C6482 0.951 . S
H6464 C6484 0.950 . S
H6465 C6485 0.950 . S
H6466 C6487 0.950 . S
H6467 C6490 0.950 . S
H6468 C6491 0.950 . S
H6469 C6493 0.950 . S
H6470 C6494 0.950 . S
H6471 C6495 0.951 . S
H6472 C6497 0.951 . S
H6473 C6499 0.950 . S
H6474 C6500 0.950 . S
H6475 C6502 0.950 . S
H6476 C6505 0.950 . S
H6477 C6506 0.950 . S
H6478 C6508 0.950 . S
H6479 C6509 0.950 . S
C6480 H6462 0.951 . S
C6480 C6481 1.366 . S
C6480 C6482 1.388 . S
C6481 C6480 1.366 . S
C6481 C6485 1.385 . S
C6482 H6463 0.951 . S
C6482 C6480 1.388 . S
C6482 C6483 1.366 . S
C6483 C6482 1.366 . S
C6483 C6484 1.414 . S
C6483 C6486 1.499 . S
C6484 H6464 0.950 . S
C6484 C6483 1.414 . S
C6484 C6485 1.374 . S
C6485 H6465 0.950 . S
C6485 C6481 1.385 . S
C6485 C6484 1.374 . S
C6486 C6483 1.499 . S
C6486 C6487 1.373 . S
C6486 C6488 1.389 . S
C6487 H6466 0.950 . S
C6487 C6486 1.373 . S
C6487 C6503 1.377 . S
C6488 C6486 1.389 . S
C6488 C6489 1.524 . S
C6488 C6502 1.377 . S
C6489 C6488 1.524 . S
C6489 C6490 1.397 . S
C6489 C6494 1.363 . S
C6490 H6467 0.950 . S
C6490 C6489 1.397 . S
C6490 C6491 1.334 . S
C6491 H6468 0.950 . S
C6491 C6490 1.334 . S
C6491 C6492 1.287 . S
C6492 C6491 1.287 . S
C6492 C6493 1.524 . S
C6492 H6511 0.913 . S
C6493 H6469 0.950 . S
C6493 C6492 1.524 . S
C6493 C6494 1.415 . S
C6494 H6470 0.950 . S
C6494 C6489 1.363 . S
C6494 C6493 1.415 . S
C6495 H6471 0.951 . S
C6495 C6496 1.366 . S
C6495 C6497 1.388 . S
C6496 C6495 1.366 . S
C6496 C6500 1.385 . S
C6497 H6472 0.951 . S
C6497 C6495 1.388 . S
C6497 C6498 1.366 . S
C6498 C6497 1.366 . S
C6498 C6499 1.414 . S
C6498 C6501 1.499 . S
C6499 H6473 0.950 . S
C6499 C6498 1.414 . S
C6499 C6500 1.374 . S
C6500 H6474 0.950 . S
C6500 C6496 1.385 . S
C6500 C6499 1.374 . S
C6501 C6498 1.499 . S
C6501 C6502 1.373 . S
C6501 C6503 1.389 . S
C6502 H6475 0.950 . S
C6502 C6488 1.377 . S
C6502 C6501 1.373 . S
C6503 C6487 1.377 . S
C6503 C6501 1.389 . S
C6503 C6504 1.524 . S
C6504 C6503 1.524 . S
C6504 C6505 1.397 . S
C6504 C6509 1.363 . S
C6505 H6476 0.950 . S
C6505 C6504 1.397 . S
C6505 C6506 1.334 . S
C6506 H6477 0.950 . S
C6506 C6505 1.334 . S
C6506 C6507 1.287 . S
C6507 C6506 1.287 . S
C6507 C6508 1.524 . S
C6507 H6510 0.999 . S
C6508 H6478 0.950 . S
C6508 C6507 1.524 . S
C6508 C6509 1.415 . S
C6509 H6479 0.950 . S
C6509 C6504 1.363 . S
C6509 C6508 1.415 . S
H6510 C6507 0.999 . S
H6511 C6492 0.913 . S
C1746 C1294 1.512 . S
C1731 C21 1.551 . S
C1796 C1306 1.423 . S
C1781 C42 1.483 . S
C1831 C82 1.531 . S
C1846 C1330 1.494 . S
C1896 C1341 1.467 . S
C1881 C135 1.537 . S
C1931 C175 1.474 . S
C1946 C1348 1.414 . S
C1981 C221 1.546 . S
C1996 C1287 1.504 . S
C2031 C255 1.525 . S
C2046 C1314 1.453 . S
C2096 C1323 1.524 . S
C2081 C301 1.590 . S
C2146 C1360 1.483 . S
C2131 C15 1.542 . S
C2181 C55 1.488 . S
C2196 C1386 1.420 . S
C2231 C101 1.558 . S
C2246 C1402 1.521 . S
C2296 C1422 1.474 . S
C2281 C141 1.544 . S
C2331 C162 1.485 . S
C2346 C1431 1.445 . S
C2396 C1456 1.485 . S
C2381 C215 1.547 . S
C2431 C261 1.545 . S
C2446 C1476 1.477 . S
C2496 C1492 1.494 . S
C2481 C282 1.553 . S
C2531 C2 1.530 . S
C2546 C1414 1.496 . S
C2581 C181 1.464 . S
C2596 C1449 1.425 . S
C2646 C1468 1.515 . S
C2631 C202 1.551 . S
C2681 C242 1.546 . S
C2696 C1485 1.479 . S
C2746 C1438 1.478 . S
C2731 C295 1.542 . S
C2796 C1378 1.486 . S
C2781 C95 1.546 . S
C2831 C122 1.535 . S
C2846 C1395 1.469 . S
C2896 C1368 1.434 . S
C2881 C61 1.507 . S
C2946 C1512 1.508 . S
C2931 C341 1.551 . S
C2981 C362 1.485 . S
C2996 C1522 1.425 . S
C3031 C402 1.536 . S
C3046 C1546 1.498 . S
C3096 C1558 1.471 . S
C3081 C455 1.533 . S
C3131 C495 1.473 . S
C3146 C1566 1.410 . S
C3181 C541 1.542 . S
C3196 C1504 1.507 . S
C3231 C575 1.528 . S
C3246 C1530 1.456 . S
C3281 C621 1.592 . S
C3296 C1539 1.525 . S
C3346 C1432 1.483 . S
C3331 C335 1.542 . S
C3381 C375 1.489 . S
C3396 C1582 1.425 . S
C3446 C1474 1.524 . S
C3431 C421 1.561 . S
C3481 C461 1.542 . S
C3496 C1602 1.471 . S
C3531 C482 1.483 . S
C3546 C1359 1.443 . S
C3596 C1620 1.478 . S
C3581 C535 1.543 . S
C3631 C581 1.545 . S
C3646 C1404 1.477 . S
C3696 C1636 1.493 . S
C3681 C602 1.553 . S
C3731 C322 1.527 . S
C3746 C1594 1.493 . S
C3796 C1612 1.425 . S
C3781 C501 1.458 . S
C3831 C522 1.547 . S
C3846 C1396 1.510 . S
C3896 C1629 1.479 . S
C3881 C562 1.545 . S
C3931 C615 1.541 . S
C3946 C1366 1.478 . S
C3981 C415 1.548 . S
C3996 C1575 1.483 . S
C4031 C442 1.535 . S
C4046 C1467 1.469 . S
C4081 C381 1.508 . S
C4096 C1440 1.436 . S
C4131 C661 1.555 . S
C4146 C1548 1.513 . S
C4196 C1557 1.420 . S
C4181 C682 1.487 . S
C4231 C722 1.531 . S
C4246 C1510 1.494 . S
C4281 C775 1.536 . S
C4296 C1521 1.466 . S
C4331 C815 1.474 . S
C4346 C1528 1.413 . S
C4381 C861 1.547 . S
C4396 C1540 1.512 . S
C4446 C1564 1.462 . S
C4431 C895 1.527 . S
C4481 C941 1.588 . S
C4496 C1503 1.520 . S
C4546 C1654 1.484 . S
C4531 C655 1.545 . S
C4581 C695 1.490 . S
C4596 C1458 1.422 . S
C4646 C1672 1.518 . S
C4631 C741 1.556 . S
C4681 C781 1.545 . S
C4696 C1494 1.475 . S
C4731 C802 1.485 . S
C4746 C1692 1.445 . S
C4781 C855 1.545 . S
C4796 C1384 1.482 . S
C4846 C1708 1.481 . S
C4831 C901 1.545 . S
C4881 C922 1.550 . S
C4896 C1420 1.490 . S
C4946 C1486 1.496 . S
C4931 C642 1.531 . S
C4996 C1377 1.422 . S
C4981 C821 1.461 . S
C5031 C842 1.552 . S
C5046 C1701 1.509 . S
C5081 C882 1.547 . S
C5096 C1413 1.482 . S
C5146 C1684 1.477 . S
C5131 C935 1.538 . S
C5196 C1450 1.489 . S
C5181 C735 1.548 . S
C5246 C1665 1.471 . S
C5231 C762 1.536 . S
C5296 C1647 1.435 . S
C5281 C701 1.508 . S
C5331 C981 1.555 . S
C5346 C1332 1.513 . S
C5381 C1002 1.486 . S
C5396 C1342 1.425 . S
C5446 C1296 1.491 . S
C5431 C1042 1.534 . S
C5496 C1305 1.463 . S
C5481 C1095 1.532 . S
C5546 C1312 1.411 . S
C5531 C1135 1.472 . S
C5596 C1324 1.507 . S
C5581 C1181 1.542 . S
C5646 C1350 1.456 . S
C5631 C1215 1.528 . S
C5681 C1261 1.586 . S
C5696 C1288 1.524 . S
C5731 C975 1.547 . S
C5746 C1690 1.487 . S
C5796 C1618 1.425 . S
C5781 C1015 1.489 . S
C5846 C1710 1.517 . S
C5831 C1061 1.559 . S
C5896 C1638 1.474 . S
C5881 C1101 1.543 . S
C5931 C1122 1.483 . S
C5946 C1656 1.443 . S
C5996 C1584 1.476 . S
C5981 C1175 1.541 . S
C6046 C1674 1.477 . S
C6031 C1221 1.545 . S
C6081 C1242 1.547 . S
C6096 C1600 1.488 . S
C6146 C1630 1.496 . S
C6131 C962 1.530 . S
C6196 C1576 1.426 . S
C6181 C1141 1.459 . S
C6246 C1666 1.512 . S
C6231 C1162 1.548 . S
C6281 C1202 1.545 . S
C6296 C1593 1.478 . S
C6331 C1255 1.536 . S
C6346 C1648 1.474 . S
C6381 C1055 1.548 . S
C6396 C1611 1.482 . S
C6431 C1082 1.533 . S
C6446 C1702 1.475 . S
C6496 C1683 1.436 . S
C6481 C1021 1.507 . S
