# Generated by pormake.
# Topology pth, (4,4)-cn, num edge types: 1
# Building blocks:
#     Node 0, Type 0, BuildingBlock: NAHDIM_clean_sbu_0, # of connection points: 4
#     Node 1, Type 0, BuildingBlock: NAHDIM_clean_sbu_0, # of connection points: 4
#     Node 2, Type 0, BuildingBlock: NAHDIM_clean_sbu_0, # of connection points: 4
#     Node 3, Type 1, BuildingBlock: MIFKUJ_clean_linker_1, # of connection points: 4
#     Node 4, Type 1, BuildingBlock: MIFKUJ_clean_linker_1, # of connection points: 4
#     Node 5, Type 1, BuildingBlock: MIFKUJ_clean_linker_1, # of connection points: 4
#     Edge 6, Type (0, 1), BuildingBlock: FUNLAD_clean_linker_0, # of connection points: 2
#     Edge 7, Type (0, 1), BuildingBlock: FUNLAD_clean_linker_0, # of connection points: 2
#     Edge 8, Type (0, 1), BuildingBlock: FUNLAD_clean_linker_0, # of connection points: 2
#     Edge 9, Type (0, 1), BuildingBlock: FUNLAD_clean_linker_0, # of connection points: 2
#     Edge 10, Type (0, 1), BuildingBlock: FUNLAD_clean_linker_0, # of connection points: 2
#     Edge 11, Type (0, 1), BuildingBlock: FUNLAD_clean_linker_0, # of connection points: 2
#     Edge 12, Type (0, 1), BuildingBlock: FUNLAD_clean_linker_0, # of connection points: 2
#     Edge 13, Type (0, 1), BuildingBlock: FUNLAD_clean_linker_0, # of connection points: 2
#     Edge 14, Type (0, 1), BuildingBlock: FUNLAD_clean_linker_0, # of connection points: 2
#     Edge 15, Type (0, 1), BuildingBlock: FUNLAD_clean_linker_0, # of connection points: 2
#     Edge 16, Type (0, 1), BuildingBlock: FUNLAD_clean_linker_0, # of connection points: 2
#     Edge 17, Type (0, 1), BuildingBlock: FUNLAD_clean_linker_0, # of connection points: 2
# Relax obj value: 0.043
# Max RMSD: 0.165
# Mean RMSD: 0.094
data_MOF--net-pth--node1-NAHDIM_clean_sbu_0--node2-MIFKUJ_clean_linker_1--edge1-FUNLAD_clean_linker_0
_symmetry_space_group_name_H-M    P1
_symmetry_Int_Tables_number       1
_symmetry_cell_setting            triclinic
loop_
_symmetry_equiv_pos_as_xyz
'x, y, z'
_cell_length_a     33.600549
_cell_length_b     33.779918
_cell_length_c     71.328143
_cell_angle_alpha  91.797947
_cell_angle_beta   89.953829
_cell_angle_gamma 120.59871
loop_
_atom_site_label
_atom_site_type_symbol
_atom_site_fract_x
_atom_site_fract_y
_atom_site_fract_z
_atom_type_partial_charge
C0 C 0.97225 0.93385 0.053 0.0
O1 O 0.93242 0.93011 0.04872 0.0
O2 O 0.99417 0.05619 0.05503 0.0
Zn3 Zn 0.00337 0.01814 0.03542 0.0
O4 O 0.94826 0.98794 0.01791 0.0
C5 C 0.09408 0.09523 0.02883 0.0
O6 O 0.09303 0.10319 0.04692 0.0
O7 O 0.00943 0.96953 0.04834 0.0
C8 C 0.95221 0.97867 0.00086 0.0
O9 O 0.99328 0.99006 0.99453 0.0
C10 C 0.98313 0.08537 0.05041 0.0
O11 O 0.97628 0.08922 0.03259 0.0
O12 O 0.06015 0.05976 0.02101 0.0
C13 C 0.03208 0.10961 0.34297 0.0
O14 O 0.99417 0.0694 0.34448 0.0
O15 O 0.03978 0.01063 0.34828 0.0
Zn16 Zn 0.05561 0.0628 0.36681 0.0
O17 O 0.00194 0.05059 0.38309 0.0
C18 C 0.10968 0.03757 0.38779 0.0
O19 O 0.07712 -0.00276 0.38107 0.0
O20 O 0.06833 0.11732 0.35182 0.0
C21 C 0.98602 0.024 0.39679 0.0
O22 O 0.00442 -0.00066 0.40137 0.0
C23 C 0.00076 0.97385 0.34631 0.0
O24 O 0.96654 0.96745 0.35717 0.0
O25 O 0.1093 0.07344 0.38318 0.0
C26 C 0.08248 -0.00304 0.68025 0.0
O27 O 0.07644 0.03241 0.67973 0.0
O28 O 0.96746 0.97643 0.68442 0.0
Zn29 Zn 0.00867 0.97279 0.70376 0.0
O30 O 0.04126 0.03167 0.71932 0.0
C31 C 0.9398 0.92987 0.7295 0.0
O32 O 0.94211 0.96947 0.72731 0.0
O33 O 0.05619 0.96362 0.69045 0.0
C34 C 0.05706 0.03227 0.73555 0.0
O35 O 0.05219 0.99402 0.74195 0.0
C36 C 0.96725 0.01306 0.68115 0.0
O37 O -0.00404 0.05139 0.69048 0.0
O38 O 0.96735 0.9214 0.72042 0.0
H39 H 0.08136 0.51146 0.16724 0.0
H40 H 0.0781 0.45101 0.14635 0.0
H41 H 0.95013 0.35132 0.17162 0.0
H42 H 0.95433 0.41162 0.19269 0.0
H43 H 0.01984 0.53995 0.16886 0.0
H44 H 0.08667 0.4859 0.21133 0.0
H45 H 0.09738 0.43105 0.229 0.0
H46 H 0.96735 0.3869 0.25643 0.0
H47 H 0.95627 0.44102 0.23837 0.0
H48 H 0.93163 0.54635 0.23613 0.0
H49 H 0.91628 0.5991 0.25469 0.0
H50 H 0.04305 0.71434 0.23519 0.0
H51 H 0.05817 0.66139 0.21665 0.0
H52 H 0.00388 0.53134 0.23798 0.0
H53 H 0.94054 0.58979 0.19199 0.0
H54 H 0.93847 0.64895 0.17378 0.0
H55 H 0.0748 0.69091 0.15303 0.0
H56 H 0.07726 0.63292 0.17177 0.0
C57 C 0.01829 0.46592 0.18158 0.0
C58 C 0.05293 0.47644 0.16838 0.0
C59 C 0.05084 0.44192 0.15639 0.0
C60 C 0.01374 0.39633 0.15725 0.0
C61 C 0.97957 0.38585 0.17076 0.0
C62 C 0.98186 0.42031 0.18281 0.0
C63 C 0.01802 0.50289 0.19316 0.0
C64 C 0.01721 0.53857 0.18402 0.0
C65 C 0.01441 0.50093 0.21287 0.0
C66 C 0.02045 0.46721 0.22342 0.0
C67 C 0.06024 0.46405 0.22101 0.0
C68 C 0.06657 0.43306 0.23125 0.0
C69 C 0.03321 0.40469 0.24409 0.0
C70 C 0.9934 0.40795 0.24647 0.0
C71 C 0.98717 0.43904 0.23628 0.0
C72 C -0.00419 0.60001 0.2249 0.0
C73 C 0.95615 0.58299 0.23591 0.0
C74 C 0.94745 0.61312 0.24651 0.0
C75 C 0.97836 0.66085 0.24632 0.0
C76 C 0.0182 0.67779 0.23535 0.0
C77 C 0.02696 0.64761 0.2248 0.0
C78 C 0.00442 0.56769 0.21362 0.0
C79 C 0.00685 0.53288 0.22284 0.0
C80 C 0.01065 0.57113 0.194 0.0
C81 C 0.00925 0.60733 0.18336 0.0
C82 C 0.97019 0.61219 0.18372 0.0
C83 C 0.9689 0.6457 0.17317 0.0
C84 C 0.00651 0.67465 0.16198 0.0
C85 C 0.04557 0.66966 0.16172 0.0
C86 C 0.04687 0.63628 0.17229 0.0
H87 H 0.63204 0.0838 0.49857 0.0
H88 H 0.68968 0.07522 0.48083 0.0
H89 H 0.64969 0.94876 0.5087 0.0
H90 H 0.59098 0.9566 0.52579 0.0
H91 H 0.54182 0.03574 0.50013 0.0
H92 H 0.6632 0.0883 0.54339 0.0
H93 H 0.72665 0.09104 0.56117 0.0
H94 H 0.62932 0.96645 0.58844 0.0
H95 H 0.56595 0.96319 0.57016 0.0
H96 H 0.44021 0.96039 0.5663 0.0
H97 H 0.38057 0.96023 0.58596 0.0
H98 H 0.41933 0.09567 0.56742 0.0
H99 H 0.47992 0.09611 0.54819 0.0
H100 H 0.53405 0.02114 0.56923 0.0
H101 H 0.41172 0.97742 0.52066 0.0
H102 H 0.35855 0.98972 0.50173 0.0
H103 H 0.47208 0.12262 0.48673 0.0
H104 H 0.52503 0.10932 0.50523 0.0
C105 C 0.60755 0.02111 0.51363 0.0
C106 C 0.63547 0.05406 0.50072 0.0
C107 C 0.66867 0.04932 0.49074 0.0
C108 C 0.67445 0.01145 0.49345 0.0
C109 C 0.64587 0.97812 0.50617 0.0
C110 C 0.61263 0.98281 0.51609 0.0
C111 C 0.57322 0.02664 0.52468 0.0
C112 C 0.54043 0.03302 0.51527 0.0
C113 C 0.57182 0.02398 0.54442 0.0
C114 C 0.60995 0.02527 0.55533 0.0
C115 C 0.65558 0.06132 0.55307 0.0
C116 C 0.69174 0.0631 0.56336 0.0
C117 C 0.68294 0.02898 0.5762 0.0
C118 C 0.63719 0.99293 0.57848 0.0
C119 C 0.60095 0.99121 0.56818 0.0
C120 C 0.46418 0.02808 0.55569 0.0
C121 C 0.43573 0.98998 0.56645 0.0
C122 C 0.40148 0.98981 0.57756 0.0
C123 C 0.39519 0.0279 0.57821 0.0
C124 C 0.42362 0.06598 0.56734 0.0
C125 C 0.4579 0.0661 0.5562 0.0
C126 C 0.5016 0.02845 0.54461 0.0
C127 C 0.5353 0.02355 0.55409 0.0
C128 C 0.50501 0.03462 0.52504 0.0
C129 C 0.47219 0.0425 0.51432 0.0
C130 C 0.42496 0.00927 0.51337 0.0
C131 C 0.39463 0.01651 0.50262 0.0
C132 C 0.41105 0.05717 0.49267 0.0
C133 C 0.45838 0.09061 0.49393 0.0
C134 C 0.48866 0.08319 0.50456 0.0
H135 H 0.43 0.43941 0.83522 0.0
H136 H 0.36646 0.37165 0.81935 0.0
H137 H 0.26818 0.39091 0.8515 0.0
H138 H 0.33215 0.45917 0.86735 0.0
H139 H 0.45497 0.52546 0.83559 0.0
H140 H 0.41266 0.41308 0.88047 0.0
H141 H 0.36257 0.35057 0.90076 0.0
H142 H 0.33004 0.44209 0.93183 0.0
H143 H 0.38005 0.50464 0.91129 0.0
H144 H 0.50353 0.64182 0.90175 0.0
H145 H 0.57195 0.70818 0.91631 0.0
H146 H 0.65843 0.66152 0.89084 0.0
H147 H 0.59006 0.59589 0.87617 0.0
H148 H 0.47115 0.54534 0.90493 0.0
H149 H 0.52768 0.66057 0.856 0.0
H150 H 0.5909 0.71556 0.83666 0.0
H151 H 0.60908 0.60563 0.81415 0.0
H152 H 0.54649 0.55107 0.83373 0.0
C153 C 0.38585 0.45432 0.85248 0.0
C154 C 0.39479 0.42928 0.83878 0.0
C155 C 0.35845 0.39061 0.8297 0.0
C156 C 0.31237 0.37618 0.83412 0.0
C157 C 0.30338 0.40108 0.84793 0.0
C158 C 0.33985 0.44002 0.85697 0.0
C159 C 0.42491 0.49554 0.86193 0.0
C160 C 0.45843 0.52963 0.85076 0.0
C161 C 0.42977 0.50097 0.88171 0.0
C162 C 0.39938 0.4633 0.89414 0.0
C163 C 0.39429 0.41958 0.89149 0.0
C164 C 0.36572 0.3839 0.9031 0.0
C165 C 0.34219 0.3914 0.9178 0.0
C166 C 0.348 0.43543 0.92068 0.0
C167 C 0.3764 0.4711 0.90894 0.0
C168 C 0.5419 0.61435 0.88777 0.0
C169 C 0.53729 0.646 0.89937 0.0
C170 C 0.57637 0.68378 0.90768 0.0
C171 C 0.62067 0.69029 0.90463 0.0
C172 C 0.62496 0.65807 0.89317 0.0
C173 C 0.58593 0.62041 0.88486 0.0
C174 C 0.50076 0.57501 0.87856 0.0
C175 C 0.46692 0.54136 0.88978 0.0
C176 C 0.49663 0.56888 0.85883 0.0
C177 C 0.53268 0.60189 0.84635 0.0
C178 C 0.54526 0.6484 0.84686 0.0
C179 C 0.58114 0.67965 0.83574 0.0
C180 C 0.60499 0.66483 0.82398 0.0
C181 C 0.59168 0.61807 0.82326 0.0
C182 C 0.55571 0.58685 0.8343 0.0
C183 C 0.96864 0.14883 0.05997 0.0
C184 C 0.98129 0.11671 0.06484 0.0
C185 C 0.96944 0.18014 0.07345 0.0
C186 C 0.98346 0.18027 0.09207 0.0
C187 C 0.99456 0.14711 0.09703 0.0
C188 C 0.99361 0.11575 0.08357 0.0
C189 C 0.98681 0.21408 0.10674 0.0
C190 C 0.99291 0.25557 0.10284 0.0
C191 C -0.00142 0.29079 0.11734 0.0
C192 C 0.01527 0.33601 0.11176 0.0
C193 C 0.02072 0.3703 0.12473 0.0
C194 C 0.00958 0.36019 0.14364 0.0
H195 H 0.973 0.24613 0.14122 0.0
C196 C 0.99287 0.31497 0.14927 0.0
C197 C 0.9871 0.28056 0.13627 0.0
H198 H 0.98418 0.30606 0.16375 0.0
H199 H 0.95838 0.15003 0.0457 0.0
H200 H 0.95881 0.20387 0.06919 0.0
H201 H 0.00492 0.14603 0.1113 0.0
H202 H 0.00332 0.09126 0.08782 0.0
H203 H 0.98728 0.20526 0.12119 0.0
H204 H -0.00379 0.26547 0.08834 0.0
H205 H 0.024 0.34489 0.09727 0.0
H206 H 0.03277 0.40453 0.11981 0.0
C207 C 0.92981 0.99387 0.42317 0.0
C208 C 0.9484 0.02291 0.40794 0.0
C209 C 0.89556 0.99462 0.43408 0.0
C210 C 0.87928 0.02444 0.42991 0.0
C211 C 0.89782 0.05324 0.41466 0.0
C212 C 0.93175 0.05233 0.40373 0.0
C213 C 0.84473 0.02827 0.44153 0.0
C214 C 0.81337 0.99423 0.45202 0.0
C215 C 0.77861 -0.00087 0.46306 0.0
C216 C 0.73521 0.9601 0.46596 0.0
C217 C 0.70133 0.96398 0.47582 0.0
C218 C 0.71045 0.00699 0.48317 0.0
H219 H 0.82183 0.07249 0.46948 0.0
C220 C 0.75439 0.04582 0.48072 0.0
C221 C 0.78815 0.04195 0.47082 0.0
H222 H 0.76291 0.07919 0.48664 0.0
H223 H 0.94212 0.97102 0.42683 0.0
H224 H 0.88296 0.97275 0.44602 0.0
H225 H 0.88608 0.0767 0.4112 0.0
H226 H 0.94536 0.07525 0.39212 0.0
H227 H 0.84369 0.05978 0.4406 0.0
H228 H 0.81098 0.96093 0.45159 0.0
H229 H 0.72716 0.92667 0.46025 0.0
H230 H 0.66773 0.93343 0.47739 0.0
C231 C 0.8779 0.90792 0.75308 0.0
C232 C 0.90449 0.89565 0.74181 0.0
C233 C 0.84288 0.87552 0.76411 0.0
C234 C 0.83314 0.82976 0.76391 0.0
C235 C 0.86076 0.81787 0.75311 0.0
C236 C 0.89608 0.85047 0.74213 0.0
C237 C 0.79503 0.79398 0.77499 0.0
C238 C 0.75777 0.79657 0.78014 0.0
C239 C 0.71905 0.76161 0.79127 0.0
C240 C 0.67789 0.76281 0.79209 0.0
C241 C 0.64084 0.73144 0.80268 0.0
C242 C 0.64415 0.6981 0.81269 0.0
H243 H 0.75389 0.72703 0.80184 0.0
C244 C 0.6853 0.6969 0.812 0.0
C245 C 0.72249 0.72845 0.8015 0.0
H246 H 0.68909 0.67209 0.81988 0.0
H247 H 0.88402 0.94268 0.7534 0.0
H248 H 0.82391 0.88676 0.77284 0.0
H249 H 0.85447 0.78305 0.75292 0.0
H250 H 0.91621 0.84006 0.73367 0.0
H251 H 0.79705 0.76382 0.77809 0.0
H252 H 0.75429 0.82495 0.77546 0.0
H253 H 0.67429 0.7881 0.78447 0.0
H254 H 0.60942 0.73298 0.80287 0.0
C255 C 0.01545 0.90562 0.07162 0.0
C256 C 0.97355 0.89818 0.06399 0.0
C257 C 0.01609 0.87289 0.08292 0.0
C258 C 0.97476 0.83204 0.08677 0.0
C259 C 0.93322 0.82394 0.07859 0.0
C260 C 0.93251 0.85681 0.06744 0.0
C261 C 0.97372 0.79691 0.09903 0.0
C262 C 0.00361 0.80757 0.11351 0.0
C263 C 0.00269 0.77299 0.12615 0.0
C264 C 0.0428 0.78462 0.1366 0.0
C265 C 0.04389 0.75301 0.14842 0.0
C266 C 0.00469 0.70906 0.15016 0.0
H267 H 0.93081 0.71947 0.12107 0.0
C268 C 0.96411 0.69779 0.14011 0.0
C269 C 0.963 0.72942 0.1283 0.0
H270 H 0.93336 0.66416 0.1411 0.0
H271 H 0.04771 0.937 0.06909 0.0
H272 H 0.04901 0.87958 0.08845 0.0
H273 H 0.90102 0.7925 0.08116 0.0
H274 H 0.8997 0.84987 0.06163 0.0
H275 H 0.94649 0.76156 0.09623 0.0
H276 H 0.03046 0.8432 0.11621 0.0
H277 H 0.07366 0.81814 0.13544 0.0
H278 H 0.07544 0.76304 0.15624 0.0
C279 C 0.18218 0.0829 0.40741 0.0
C280 C 0.14416 0.0403 0.40143 0.0
C281 C 0.21392 0.08488 0.42065 0.0
C282 C 0.208 0.04423 0.42818 0.0
C283 C 0.16977 0.00186 0.42233 0.0
C284 C 0.13842 -0.00017 0.40899 0.0
C285 C 0.24015 0.04448 0.44246 0.0
C286 C 0.2854 0.07657 0.44356 0.0
C287 C 0.31759 0.07342 0.4568 0.0
C288 C 0.36331 0.08953 0.45143 0.0
C289 C 0.39373 0.0846 0.46312 0.0
C290 C 0.37922 0.0641 0.48059 0.0
H291 H 0.26872 0.04273 0.47932 0.0
C292 C 0.33385 0.04951 0.48625 0.0
C293 C 0.30334 0.05412 0.47449 0.0
H294 H 0.3219 0.03466 0.49981 0.0
H295 H 0.18733 0.11468 0.40192 0.0
H296 H 0.24242 0.11824 0.42519 0.0
H297 H 0.16427 0.97009 0.428 0.0
H298 H 0.10932 0.96646 0.40481 0.0
H299 H 0.22668 0.01506 0.45141 0.0
H300 H 0.30011 0.10348 0.43339 0.0
H301 H 0.37517 0.10473 0.43792 0.0
H302 H 0.42826 0.0958 0.45821 0.0
C303 C 0.09935 0.07663 0.76481 0.0
C304 C 0.08135 0.07568 0.74693 0.0
C305 C 0.12398 0.118 0.77525 0.0
C306 C 0.13085 0.15933 0.76804 0.0
C307 C 0.11234 0.15818 0.75027 0.0
C308 C 0.08769 0.11682 0.73984 0.0
C309 C 0.16035 0.20461 0.77786 0.0
C310 C 0.17007 0.20981 0.7964 0.0
C311 C 0.20464 0.25445 0.80554 0.0
C312 C 0.20251 0.26132 0.82495 0.0
C313 C 0.23674 0.30145 0.83422 0.0
C314 C 0.2741 0.3352 0.82425 0.0
H315 H 0.24552 0.28432 0.7807 0.0
C316 C 0.27585 0.32867 0.8048 0.0
C317 C 0.24168 0.28872 0.79555 0.0
H318 H 0.30408 0.35427 0.79673 0.0
H319 H 0.0952 0.04554 0.77064 0.0
H320 H 0.13881 0.11748 0.78862 0.0
H321 H 0.11747 0.18953 0.7443 0.0
H322 H 0.07423 0.11727 0.7261 0.0
H323 H 0.17462 0.23478 0.76934 0.0
H324 H 0.15233 0.18049 0.80532 0.0
H325 H 0.17465 0.23526 0.83302 0.0
H326 H 0.23478 0.30538 0.84926 0.0
C327 C 0.93213 0.05179 0.66402 0.0
C328 C 0.93353 0.01182 0.66751 0.0
C329 C 0.89898 0.05007 0.65167 0.0
C330 C 0.86668 0.00828 0.64248 0.0
C331 C 0.86825 0.96846 0.64597 0.0
C332 C 0.9014 0.97019 0.65827 0.0
C333 C 0.82943 0.00418 0.62996 0.0
C334 C 0.83213 0.03974 0.62082 0.0
C335 C 0.79386 0.03582 0.609 0.0
C336 C 0.79189 0.07567 0.60606 0.0
C337 C 0.75597 0.07348 0.5954 0.0
C338 C 0.72136 0.03135 0.58732 0.0
H339 H 0.76088 0.96255 0.60183 0.0
C340 C 0.72377 0.99158 0.58992 0.0
C341 C 0.75975 0.99377 0.60056 0.0
H342 H 0.69815 0.95884 0.5835 0.0
H343 H 0.95619 0.08432 0.67103 0.0
H344 H 0.89811 0.08128 0.64986 0.0
H345 H 0.8436 0.93578 0.6392 0.0
H346 H 0.90143 0.93871 0.66069 0.0
H347 H 0.79867 0.97034 0.62837 0.0
H348 H 0.86292 0.07357 0.62243 0.0
H349 H 0.81784 0.10853 0.61229 0.0
H350 H 0.75488 0.10468 0.59375 0.0
C351 C 0.9146 0.94189 0.96985 0.0
C352 C 0.91061 0.95257 0.98869 0.0
C353 C 0.87513 0.91453 0.95871 0.0
C354 C 0.83075 0.89691 0.96627 0.0
C355 C 0.82691 0.90926 0.98487 0.0
C356 C 0.86635 0.93667 0.99599 0.0
C357 C 0.78766 0.86479 0.95555 0.0
C358 C 0.78626 0.83857 0.94064 0.0
C359 C 0.74254 0.80269 0.93138 0.0
C360 C 0.74357 0.78928 0.91266 0.0
C361 C 0.70383 0.75351 0.90384 0.0
C362 C 0.66225 0.72995 0.91365 0.0
H363 H 0.69891 0.78757 0.95581 0.0
C364 C 0.66111 0.74357 0.93237 0.0
C365 C 0.70081 0.77945 0.94117 0.0
H366 H 0.6299 0.72552 0.94044 0.0
H367 H 0.94825 0.95419 0.96373 0.0
H368 H 0.87982 0.90742 0.94425 0.0
H369 H 0.79323 0.89662 0.99102 0.0
H370 H 0.86205 0.94454 0.01042 0.0
H371 H 0.75561 0.86095 0.96084 0.0
H372 H 0.81801 0.84234 0.93508 0.0
H373 H 0.77532 0.80639 0.90484 0.0
H374 H 0.70572 0.74422 0.88933 0.0
C375 C 0.95333 0.89577 0.33056 0.0
C376 C 0.99459 0.9386 0.33195 0.0
C377 C 0.94845 0.86222 0.31724 0.0
C378 C 0.98488 0.87098 0.30509 0.0
C379 C 0.02548 0.91423 0.30617 0.0
C380 C 0.03044 0.94758 0.31949 0.0
C381 C 0.98229 0.83619 0.29115 0.0
C382 C 0.95571 0.79049 0.29321 0.0
C383 C 0.95848 0.75646 0.28044 0.0
C384 C 0.94876 0.71421 0.28752 0.0
C385 C 0.95444 0.68278 0.27635 0.0
C386 C 0.96965 0.69289 0.25782 0.0
H387 H 0.97777 0.79709 0.25543 0.0
C388 C 0.97749 0.73432 0.25048 0.0
C389 C 0.97174 0.76571 0.26163 0.0
H390 H 0.98807 0.74249 0.23609 0.0
H391 H 0.92491 0.88799 0.33984 0.0
H392 H 0.91608 0.82976 0.31646 0.0
H393 H 0.05392 0.92203 0.29688 0.0
H394 H 0.06256 0.98036 0.32007 0.0
H395 H 0.00653 0.84893 0.27971 0.0
H396 H 0.93472 0.77757 0.3056 0.0
H397 H 0.93814 0.70608 0.30191 0.0
H398 H 0.94827 0.65119 0.28243 0.0
C399 C 0.14509 0.03206 0.65674 0.0
C400 C 0.11862 0.99597 0.66876 0.0
C401 C 0.17877 0.03133 0.64555 0.0
C402 C 0.18721 0.99465 0.64628 0.0
C403 C 0.16049 0.95838 0.65819 0.0
C404 C 0.12661 0.95905 0.66938 0.0
C405 C 0.22213 0.9923 0.63424 0.0
C406 C 0.25865 0.02982 0.62724 0.0
C407 C 0.293 0.02796 0.6147 0.0
C408 C 0.3367 0.06769 0.61321 0.0
C409 C 0.36977 0.06779 0.60131 0.0
C410 C 0.35972 0.02815 0.59053 0.0
H411 H 0.24888 0.95765 0.60388 0.0
C412 C 0.31577 0.98855 0.5918 0.0
C413 C 0.28267 0.98845 0.60369 0.0
H414 H 0.30669 0.95776 0.58338 0.0
H415 H 0.13947 0.0608 0.65576 0.0
H416 H 0.19726 0.05915 0.63608 0.0
H417 H 0.16592 0.92946 0.65888 0.0
H418 H 0.10664 0.93062 0.67845 0.0
H419 H 0.21824 0.95866 0.63168 0.0
H420 H 0.26493 0.06378 0.63134 0.0
H421 H 0.34546 0.09872 0.62139 0.0
H422 H 0.40347 0.09871 0.60079 0.0
C423 C 0.13234 0.12124 -0.0021 0.0
C424 C 0.13169 0.12957 0.01729 0.0
C425 C 0.16511 0.15534 0.98665 0.0
C426 C 0.19773 0.19877 0.99455 0.0
C427 C 0.1985 0.20623 0.01405 0.0
C428 C 0.16574 0.17207 0.02532 0.0
C429 C 0.23097 0.23715 0.98292 0.0
C430 C 0.22265 0.24075 0.96476 0.0
C431 C 0.25441 0.27998 0.9532 0.0
C432 C 0.2525 0.27315 0.93364 0.0
C433 C 0.28103 0.30927 0.92217 0.0
C434 C 0.31172 0.35325 0.93002 0.0
H435 H 0.28632 0.33125 0.97604 0.0
C436 C 0.3132 0.3604 0.94958 0.0
C437 C 0.28484 0.32416 0.96108 0.0
H438 H 0.33659 0.39394 0.95601 0.0
H439 H 0.10701 0.0886 0.99132 0.0
H440 H 0.16455 0.14741 0.97181 0.0
H441 H 0.22365 0.23911 0.02053 0.0
H442 H 0.16639 0.17949 0.04023 0.0
H443 H 0.26233 0.26405 0.98986 0.0
H444 H 0.19123 0.21394 0.95785 0.0
H445 H 0.22896 0.23965 0.9272 0.0
H446 H 0.27864 0.30291 0.90712 0.0
C447 C 0.07178 0.18706 0.32835 0.0
C448 C 0.03132 0.14493 0.33152 0.0
C449 C 0.07007 0.22005 0.31751 0.0
C450 C 0.02773 0.21135 0.3097 0.0
C451 C 0.98744 0.16946 0.3131 0.0
C452 C 0.9892 0.13655 0.32376 0.0
C453 C 0.02328 0.24499 0.29835 0.0
C454 C 0.05808 0.27858 0.28882 0.0
C455 C 0.05128 0.31006 0.27694 0.0
C456 C 0.08872 0.35439 0.27406 0.0
C457 C 0.08307 0.38511 0.26328 0.0
C458 C 0.03985 0.37187 0.25505 0.0
H459 H 0.97923 0.26185 0.26932 0.0
C460 C 0.00276 0.32706 0.25747 0.0
C461 C 0.00842 0.29638 0.26818 0.0
H462 H 0.96939 0.3155 0.25089 0.0
H463 H 0.1047 0.19459 0.33426 0.0
H464 H 0.10171 0.25241 0.31563 0.0
H465 H 0.95436 0.16195 0.30736 0.0
H466 H 0.95729 0.10458 0.32601 0.0
H467 H 0.98906 0.24079 0.29748 0.0
H468 H 0.09266 0.28378 0.28982 0.0
H469 H 0.12221 0.3656 0.28046 0.0
H470 H 0.11228 0.41951 0.26171 0.0
loop_
_geom_bond_atom_site_label_1
_geom_bond_atom_site_label_2
_geom_bond_distance
_geom_bond_site_symmetry_2
_ccdc_geom_bond_type
C0 O1 1.160 . S
C0 O7 1.185 . S
O1 C0 1.160 . S
O2 Zn3 1.899 . S
O2 C10 1.274 1_455 S
Zn3 O2 1.899 . S
Zn3 O4 2.032 1_445 S
Zn3 O7 2.086 1_545 S
Zn3 O12 1.977 . S
O4 Zn3 2.032 1_665 S
O4 C8 1.278 . S
C5 O6 1.203 . S
C5 O12 1.267 . S
O6 C5 1.203 . S
O7 C0 1.185 . S
O7 Zn3 2.086 1_565 S
C8 O4 1.278 . S
C8 O9 1.211 1_565 S
O9 C8 1.211 1_545 S
C10 O2 1.274 1_655 S
C10 O11 1.279 . S
O11 C10 1.279 . S
O12 Zn3 1.977 . S
O12 C5 1.267 . S
C13 O14 1.160 . S
C13 O20 1.185 . S
O14 C13 1.160 . S
O15 Zn16 1.899 . S
O15 C23 1.284 1_545 S
Zn16 O15 1.899 . S
Zn16 O17 2.032 1_455 S
Zn16 O20 2.086 . S
Zn16 O25 1.977 . S
O17 Zn16 2.032 1_655 S
O17 C21 1.278 . S
C18 O19 1.203 . S
C18 O25 1.267 . S
O19 C18 1.203 . S
O20 C13 1.185 . S
O20 Zn16 2.086 . S
C21 O17 1.278 . S
C21 O22 1.211 . S
O22 C21 1.211 . S
C23 O15 1.284 1_565 S
C23 O24 1.273 1_455 S
O24 C23 1.273 1_655 S
O25 Zn16 1.977 . S
O25 C18 1.267 . S
C26 O27 1.173 . S
C26 O33 1.181 1_545 S
O27 C26 1.173 . S
O28 Zn29 1.899 1_655 S
O28 C36 1.284 . S
Zn29 O28 1.899 1_455 S
Zn29 O30 2.032 . S
Zn29 O33 2.086 1_545 S
Zn29 O38 1.977 1_445 S
O30 Zn29 2.032 . S
O30 C34 1.278 . S
C31 O32 1.203 . S
C31 O38 1.267 . S
O32 C31 1.203 . S
O33 C26 1.181 1_565 S
O33 Zn29 2.086 1_565 S
C34 O30 1.278 . S
C34 O35 1.211 . S
O35 C34 1.211 . S
C36 O28 1.284 . S
C36 O37 1.273 . S
O37 C36 1.273 . S
O38 Zn29 1.977 1_665 S
O38 C31 1.267 . S
H39 C58 0.949 . S
H40 C59 0.950 . S
H41 C61 0.950 . S
H42 C62 0.950 . S
H43 C64 0.950 . S
H44 C67 0.950 . S
H45 C68 0.950 . S
H46 C70 0.951 . S
H47 C71 0.949 . S
H48 C73 0.949 . S
H49 C74 0.950 . S
H50 C76 0.950 . S
H51 C77 0.950 . S
H52 C79 0.949 1_655 S
H53 C82 0.950 . S
H54 C83 0.950 . S
H55 C85 0.951 . S
H56 C86 0.949 . S
C57 C58 1.376 . S
C57 C62 1.386 1_455 S
C57 C63 1.483 . S
C58 H39 0.949 . S
C58 C57 1.376 . S
C58 C59 1.397 . S
C59 H40 0.950 . S
C59 C58 1.397 . S
C59 C60 1.391 . S
C60 C59 1.391 . S
C60 C61 1.405 1_455 S
C61 H41 0.950 . S
C61 C60 1.405 1_655 S
C61 C62 1.367 . S
C62 H42 0.950 . S
C62 C57 1.386 1_655 S
C62 C61 1.367 . S
C63 C57 1.483 . S
C63 C64 1.382 . S
C63 C65 1.403 . S
C64 H43 0.950 . S
C64 C63 1.382 . S
C64 C80 1.411 . S
C65 C63 1.403 . S
C65 C66 1.489 . S
C65 C79 1.416 . S
C66 C65 1.489 . S
C66 C67 1.383 . S
C66 C71 1.382 1_455 S
C67 H44 0.950 . S
C67 C66 1.383 . S
C67 C68 1.395 . S
C68 H45 0.950 . S
C68 C67 1.395 . S
C68 C69 1.288 . S
C69 C68 1.288 . S
C69 C70 1.392 1_455 S
C70 H46 0.951 . S
C70 C69 1.392 1_655 S
C70 C71 1.392 . S
C71 H47 0.949 . S
C71 C66 1.382 1_655 S
C71 C70 1.392 . S
C72 C73 1.376 1_455 S
C72 C77 1.386 . S
C72 C78 1.483 . S
C73 H48 0.949 . S
C73 C72 1.376 1_655 S
C73 C74 1.397 . S
C74 H49 0.950 . S
C74 C73 1.397 . S
C74 C75 1.391 1_655 S
C75 C74 1.391 1_455 S
C75 C76 1.405 . S
C76 H50 0.950 . S
C76 C75 1.405 . S
C76 C77 1.367 . S
C77 H51 0.950 . S
C77 C72 1.386 . S
C77 C76 1.367 . S
C78 C72 1.483 . S
C78 C79 1.378 . S
C78 C80 1.403 . S
C79 H52 0.949 1_455 S
C79 C65 1.416 . S
C79 C78 1.378 . S
C80 C64 1.411 . S
C80 C78 1.403 . S
C80 C81 1.489 . S
C81 C80 1.489 . S
C81 C82 1.383 1_455 S
C81 C86 1.382 . S
C82 H53 0.950 . S
C82 C81 1.383 1_655 S
C82 C83 1.395 . S
C83 H54 0.950 . S
C83 C82 1.395 . S
C83 C84 1.288 1_655 S
C84 C83 1.288 1_455 S
C84 C85 1.392 . S
C85 H55 0.951 . S
C85 C84 1.392 . S
C85 C86 1.392 . S
C86 H56 0.949 . S
C86 C81 1.382 . S
C86 C85 1.392 . S
H87 C106 0.949 . S
H88 C107 0.950 . S
H89 C109 0.950 . S
H90 C110 0.950 . S
H91 C112 0.950 . S
H92 C115 0.950 . S
H93 C116 0.950 . S
H94 C118 0.951 . S
H95 C119 0.949 . S
H96 C121 0.949 . S
H97 C122 0.950 . S
H98 C124 0.950 . S
H99 C125 0.950 . S
H100 C127 0.950 . S
H101 C130 0.950 . S
H102 C131 0.950 . S
H103 C133 0.951 . S
H104 C134 0.949 . S
C105 C106 1.376 . S
C105 C110 1.386 1_545 S
C105 C111 1.483 . S
C106 H87 0.949 . S
C106 C105 1.376 . S
C106 C107 1.397 . S
C107 H88 0.950 . S
C107 C106 1.397 . S
C107 C108 1.391 . S
C108 C107 1.391 . S
C108 C109 1.405 1_545 S
C109 H89 0.950 . S
C109 C108 1.405 1_565 S
C109 C110 1.367 . S
C110 H90 0.950 . S
C110 C105 1.386 1_565 S
C110 C109 1.367 . S
C111 C105 1.483 . S
C111 C112 1.382 . S
C111 C113 1.403 . S
C112 H91 0.950 . S
C112 C111 1.382 . S
C112 C128 1.411 . S
C113 C111 1.403 . S
C113 C114 1.489 . S
C113 C127 1.411 . S
C114 C113 1.489 . S
C114 C115 1.383 . S
C114 C119 1.382 1_545 S
C115 H92 0.950 . S
C115 C114 1.383 . S
C115 C116 1.395 . S
C116 H93 0.950 . S
C116 C115 1.395 . S
C116 C117 1.288 . S
C117 C116 1.288 . S
C117 C118 1.392 1_545 S
C118 H94 0.951 . S
C118 C117 1.392 1_565 S
C118 C119 1.392 . S
C119 H95 0.949 . S
C119 C114 1.382 1_565 S
C119 C118 1.392 . S
C120 C121 1.376 1_545 S
C120 C125 1.386 . S
C120 C126 1.483 . S
C121 H96 0.949 . S
C121 C120 1.376 1_565 S
C121 C122 1.397 . S
C122 H97 0.950 . S
C122 C121 1.397 . S
C122 C123 1.391 1_565 S
C123 C122 1.391 1_545 S
C123 C124 1.405 . S
C124 H98 0.950 . S
C124 C123 1.405 . S
C124 C125 1.367 . S
C125 H99 0.950 . S
C125 C120 1.386 . S
C125 C124 1.367 . S
C126 C120 1.483 . S
C126 C127 1.382 . S
C126 C128 1.403 . S
C127 H100 0.950 . S
C127 C113 1.411 . S
C127 C126 1.382 . S
C128 C112 1.411 . S
C128 C126 1.403 . S
C128 C129 1.489 . S
C129 C128 1.489 . S
C129 C130 1.383 1_545 S
C129 C134 1.382 . S
C130 H101 0.950 . S
C130 C129 1.383 1_565 S
C130 C131 1.395 . S
C131 H102 0.950 . S
C131 C130 1.395 . S
C131 C132 1.288 1_565 S
C132 C131 1.288 1_545 S
C132 C133 1.392 . S
C133 H103 0.951 . S
C133 C132 1.392 . S
C133 C134 1.392 . S
C134 H104 0.949 . S
C134 C129 1.382 . S
C134 C133 1.392 . S
H135 C154 0.949 . S
H136 C155 0.950 . S
H137 C157 0.950 . S
H138 C158 0.950 . S
H139 C160 0.950 . S
H140 C163 0.950 . S
H141 C164 0.950 . S
H142 C166 0.951 . S
H143 C167 0.949 . S
H144 C169 0.949 . S
H145 C170 0.950 . S
H146 C172 0.950 . S
H147 C173 0.950 . S
H148 C175 0.950 . S
H149 C178 0.950 . S
H150 C179 0.950 . S
H151 C181 0.951 . S
H152 C182 0.949 . S
C153 C154 1.376 . S
C153 C158 1.386 . S
C153 C159 1.483 . S
C154 H135 0.949 . S
C154 C153 1.376 . S
C154 C155 1.397 . S
C155 H136 0.950 . S
C155 C154 1.397 . S
C155 C156 1.391 . S
C156 C155 1.391 . S
C156 C157 1.405 . S
C157 H137 0.950 . S
C157 C156 1.405 . S
C157 C158 1.367 . S
C158 H138 0.950 . S
C158 C153 1.386 . S
C158 C157 1.367 . S
C159 C153 1.483 . S
C159 C160 1.382 . S
C159 C161 1.403 . S
C160 H139 0.950 . S
C160 C159 1.382 . S
C160 C176 1.411 . S
C161 C159 1.403 . S
C161 C162 1.489 . S
C161 C175 1.411 . S
C162 C161 1.489 . S
C162 C163 1.383 . S
C162 C167 1.382 . S
C163 H140 0.950 . S
C163 C162 1.383 . S
C163 C164 1.395 . S
C164 H141 0.950 . S
C164 C163 1.395 . S
C164 C165 1.288 . S
C165 C164 1.288 . S
C165 C166 1.392 . S
C166 H142 0.951 . S
C166 C165 1.392 . S
C166 C167 1.392 . S
C167 H143 0.949 . S
C167 C162 1.382 . S
C167 C166 1.392 . S
C168 C169 1.376 . S
C168 C173 1.386 . S
C168 C174 1.483 . S
C169 H144 0.949 . S
C169 C168 1.376 . S
C169 C170 1.397 . S
C170 H145 0.950 . S
C170 C169 1.397 . S
C170 C171 1.391 . S
C171 C170 1.391 . S
C171 C172 1.405 . S
C172 H146 0.950 . S
C172 C171 1.405 . S
C172 C173 1.367 . S
C173 H147 0.950 . S
C173 C168 1.386 . S
C173 C172 1.367 . S
C174 C168 1.483 . S
C174 C175 1.382 . S
C174 C176 1.403 . S
C175 H148 0.950 . S
C175 C161 1.411 . S
C175 C174 1.382 . S
C176 C160 1.411 . S
C176 C174 1.403 . S
C176 C177 1.489 . S
C177 C176 1.489 . S
C177 C178 1.383 . S
C177 C182 1.382 . S
C178 H149 0.950 . S
C178 C177 1.383 . S
C178 C179 1.395 . S
C179 H150 0.950 . S
C179 C178 1.395 . S
C179 C180 1.288 . S
C180 C179 1.288 . S
C180 C181 1.392 . S
C181 H151 0.951 . S
C181 C180 1.392 . S
C181 C182 1.392 . S
C182 H152 0.949 . S
C182 C177 1.382 . S
C182 C181 1.392 . S
C183 C184 1.377 1_655 S
C183 C185 1.383 . S
C183 H199 0.951 . S
C184 C183 1.377 1_455 S
C184 C188 1.387 . S
C185 C183 1.383 . S
C185 C186 1.402 . S
C185 H200 0.951 . S
C186 C185 1.402 . S
C186 C187 1.375 1_655 S
C186 C189 1.481 . S
C187 C186 1.375 1_455 S
C187 C188 1.367 . S
C187 H201 0.951 . S
C188 C184 1.387 . S
C188 C187 1.367 . S
C188 H202 0.950 . S
C189 C186 1.481 . S
C189 C190 1.297 . S
C189 H203 0.950 1_655 S
C190 C189 1.297 . S
C190 C191 1.479 . S
C190 H204 0.950 . S
C191 C190 1.479 . S
C191 C192 1.375 . S
C191 C197 1.406 . S
C192 C191 1.375 . S
C192 C193 1.369 . S
C192 H205 0.950 . S
C193 C192 1.369 . S
C193 C194 1.392 . S
C193 H206 0.951 . S
C194 C193 1.392 . S
C194 C196 1.384 1_655 S
H195 C197 0.944 1_455 S
C196 C194 1.384 1_455 S
C196 C197 1.387 1_455 S
C196 H198 0.950 . S
C197 C191 1.406 . S
C197 H195 0.944 1_655 S
C197 C196 1.387 1_655 S
H198 C196 0.950 . S
H199 C183 0.951 . S
H200 C185 0.951 . S
H201 C187 0.951 . S
H202 C188 0.950 . S
H203 C189 0.950 1_455 S
H204 C190 0.950 . S
H205 C192 0.950 . S
H206 C193 0.951 . S
C207 C208 1.386 1_565 S
C207 C209 1.383 . S
C207 H223 0.951 . S
C208 C207 1.386 1_545 S
C208 C212 1.383 . S
C209 C207 1.383 . S
C209 C210 1.402 1_565 S
C209 H224 0.951 . S
C210 C209 1.402 1_545 S
C210 C211 1.375 . S
C210 C213 1.481 . S
C211 C210 1.375 . S
C211 C212 1.367 . S
C211 H225 0.951 . S
C212 C208 1.383 . S
C212 C211 1.367 . S
C212 H226 0.950 . S
C213 C210 1.481 . S
C213 C214 1.297 . S
C213 H227 0.950 . S
C214 C213 1.297 . S
C214 C215 1.479 . S
C214 H228 0.950 1_545 S
C215 C214 1.479 . S
C215 C216 1.375 1_545 S
C215 C221 1.404 . S
C216 C215 1.375 1_565 S
C216 C217 1.369 . S
C216 H229 0.950 . S
C217 C216 1.369 . S
C217 C218 1.392 1_565 S
C217 H230 0.951 . S
C218 C217 1.392 1_545 S
C218 C220 1.384 . S
H219 C221 0.949 . S
C220 C218 1.384 . S
C220 C221 1.385 . S
C220 H222 0.950 . S
C221 C215 1.404 . S
C221 H219 0.949 . S
C221 C220 1.385 . S
H222 C220 0.950 . S
H223 C207 0.951 . S
H224 C209 0.951 . S
H225 C211 0.951 . S
H226 C212 0.950 . S
H227 C213 0.950 . S
H228 C214 0.950 1_565 S
H229 C216 0.950 . S
H230 C217 0.951 . S
C231 C232 1.386 . S
C231 C233 1.383 . S
C231 H247 0.951 . S
C232 C231 1.386 . S
C232 C236 1.383 . S
C233 C231 1.383 . S
C233 C234 1.402 . S
C233 H248 0.951 . S
C234 C233 1.402 . S
C234 C235 1.375 . S
C234 C237 1.481 . S
C235 C234 1.375 . S
C235 C236 1.367 . S
C235 H249 0.951 . S
C236 C232 1.383 . S
C236 C235 1.367 . S
C236 H250 0.950 . S
C237 C234 1.481 . S
C237 C238 1.297 . S
C237 H251 0.950 . S
C238 C237 1.297 . S
C238 C239 1.479 . S
C238 H252 0.950 . S
C239 C238 1.479 . S
C239 C240 1.375 . S
C239 C245 1.404 . S
C240 C239 1.375 . S
C240 C241 1.369 . S
C240 H253 0.950 . S
C241 C240 1.369 . S
C241 C242 1.392 . S
C241 H254 0.951 . S
C242 C241 1.392 . S
C242 C244 1.384 . S
H243 C245 0.949 . S
C244 C242 1.384 . S
C244 C245 1.385 . S
C244 H246 0.950 . S
C245 C239 1.404 . S
C245 H243 0.949 . S
C245 C244 1.385 . S
H246 C244 0.950 . S
H247 C231 0.951 . S
H248 C233 0.951 . S
H249 C235 0.951 . S
H250 C236 0.950 . S
H251 C237 0.950 . S
H252 C238 0.950 . S
H253 C240 0.950 . S
H254 C241 0.951 . S
C255 C256 1.386 . S
C255 C257 1.383 . S
C255 H271 0.951 . S
C256 C255 1.386 . S
C256 C260 1.383 1_455 S
C257 C255 1.383 . S
C257 C258 1.402 . S
C257 H272 0.951 . S
C258 C257 1.402 . S
C258 C259 1.375 1_455 S
C258 C261 1.481 1_455 S
C259 C258 1.375 1_655 S
C259 C260 1.367 . S
C259 H273 0.951 . S
C260 C256 1.383 1_655 S
C260 C259 1.367 . S
C260 H274 0.950 . S
C261 C258 1.481 1_655 S
C261 C262 1.297 1_655 S
C261 H275 0.950 . S
C262 C261 1.297 1_455 S
C262 C263 1.479 . S
C262 H276 0.950 . S
C263 C262 1.479 . S
C263 C264 1.375 . S
C263 C269 1.404 1_455 S
C264 C263 1.375 . S
C264 C265 1.369 . S
C264 H277 0.950 . S
C265 C264 1.369 . S
C265 C266 1.392 . S
C265 H278 0.951 . S
C266 C265 1.392 . S
C266 C268 1.384 1_455 S
H267 C269 0.949 . S
C268 C266 1.384 1_655 S
C268 C269 1.385 . S
C268 H270 0.950 . S
C269 C263 1.404 1_655 S
C269 H267 0.949 . S
C269 C268 1.385 . S
H270 C268 0.950 . S
H271 C255 0.951 . S
H272 C257 0.951 . S
H273 C259 0.951 . S
H274 C260 0.950 . S
H275 C261 0.950 . S
H276 C262 0.950 . S
H277 C264 0.950 . S
H278 C265 0.951 . S
C279 C280 1.386 . S
C279 C281 1.383 . S
C279 H295 0.951 . S
C280 C279 1.386 . S
C280 C284 1.383 . S
C281 C279 1.383 . S
C281 C282 1.402 . S
C281 H296 0.951 . S
C282 C281 1.402 . S
C282 C283 1.375 . S
C282 C285 1.481 . S
C283 C282 1.375 . S
C283 C284 1.367 . S
C283 H297 0.951 1_545 S
C284 C280 1.383 . S
C284 C283 1.367 . S
C284 H298 0.950 . S
C285 C282 1.481 . S
C285 C286 1.297 . S
C285 H299 0.950 . S
C286 C285 1.297 . S
C286 C287 1.479 . S
C286 H300 0.950 . S
C287 C286 1.479 . S
C287 C288 1.375 . S
C287 C293 1.404 . S
C288 C287 1.375 . S
C288 C289 1.369 . S
C288 H301 0.950 . S
C289 C288 1.369 . S
C289 C290 1.392 . S
C289 H302 0.951 . S
C290 C289 1.392 . S
C290 C292 1.384 . S
H291 C293 0.949 1_565 S
C292 C290 1.384 . S
C292 C293 1.385 . S
C292 H294 0.950 1_545 S
C293 C287 1.404 . S
C293 H291 0.949 1_545 S
C293 C292 1.385 . S
H294 C292 0.950 1_565 S
H295 C279 0.951 . S
H296 C281 0.951 . S
H297 C283 0.951 1_565 S
H298 C284 0.950 . S
H299 C285 0.950 . S
H300 C286 0.950 . S
H301 C288 0.950 . S
H302 C289 0.951 . S
C303 C304 1.386 . S
C303 C305 1.383 . S
C303 H319 0.951 . S
C304 C303 1.386 . S
C304 C308 1.383 . S
C305 C303 1.383 . S
C305 C306 1.402 . S
C305 H320 0.951 . S
C306 C305 1.402 . S
C306 C307 1.375 . S
C306 C309 1.481 . S
C307 C306 1.375 . S
C307 C308 1.367 . S
C307 H321 0.951 . S
C308 C304 1.383 . S
C308 C307 1.367 . S
C308 H322 0.950 . S
C309 C306 1.481 . S
C309 C310 1.297 . S
C309 H323 0.950 . S
C310 C309 1.297 . S
C310 C311 1.479 . S
C310 H324 0.950 . S
C311 C310 1.479 . S
C311 C312 1.375 . S
C311 C317 1.404 . S
C312 C311 1.375 . S
C312 C313 1.369 . S
C312 H325 0.950 . S
C313 C312 1.369 . S
C313 C314 1.392 . S
C313 H326 0.951 . S
C314 C313 1.392 . S
C314 C316 1.384 . S
H315 C317 0.949 . S
C316 C314 1.384 . S
C316 C317 1.385 . S
C316 H318 0.950 . S
C317 C311 1.404 . S
C317 H315 0.949 . S
C317 C316 1.385 . S
H318 C316 0.950 . S
H319 C303 0.951 . S
H320 C305 0.951 . S
H321 C307 0.951 . S
H322 C308 0.950 . S
H323 C309 0.950 . S
H324 C310 0.950 . S
H325 C312 0.950 . S
H326 C313 0.951 . S
C327 C328 1.386 . S
C327 C329 1.383 . S
C327 H343 0.951 . S
C328 C327 1.386 . S
C328 C332 1.383 . S
C329 C327 1.383 . S
C329 C330 1.402 . S
C329 H344 0.951 . S
C330 C329 1.402 . S
C330 C331 1.366 1_545 S
C330 C333 1.481 . S
C331 C330 1.366 1_565 S
C331 C332 1.370 1_565 S
C331 H345 0.957 . S
C332 C328 1.383 . S
C332 C331 1.370 1_545 S
C332 H346 0.950 1_545 S
C333 C330 1.481 . S
C333 C334 1.297 . S
C333 H347 0.950 1_545 S
C334 C333 1.297 . S
C334 C335 1.479 . S
C334 H348 0.950 . S
C335 C334 1.479 . S
C335 C336 1.375 . S
C335 C341 1.404 . S
C336 C335 1.375 . S
C336 C337 1.369 . S
C336 H349 0.950 . S
C337 C336 1.369 . S
C337 C338 1.392 . S
C337 H350 0.951 . S
C338 C337 1.392 . S
C338 C340 1.384 . S
H339 C341 0.949 1_565 S
C340 C338 1.384 . S
C340 C341 1.385 . S
C340 H342 0.950 1_545 S
C341 C335 1.404 . S
C341 H339 0.949 1_545 S
C341 C340 1.385 . S
H342 C340 0.950 1_565 S
H343 C327 0.951 . S
H344 C329 0.951 . S
H345 C331 0.957 . S
H346 C332 0.950 1_565 S
H347 C333 0.950 1_565 S
H348 C334 0.950 . S
H349 C336 0.950 . S
H350 C337 0.951 . S
C351 C352 1.386 1_556 S
C351 C353 1.383 . S
C351 H367 0.951 . S
C352 C351 1.386 1_554 S
C352 C356 1.383 . S
C353 C351 1.383 . S
C353 C354 1.402 . S
C353 H368 0.951 . S
C354 C353 1.402 . S
C354 C355 1.375 1_556 S
C354 C357 1.481 . S
C355 C354 1.375 1_554 S
C355 C356 1.367 . S
C355 H369 0.951 . S
C356 C352 1.383 . S
C356 C355 1.367 . S
C356 H370 0.950 . S
C357 C354 1.481 . S
C357 C358 1.297 . S
C357 H371 0.950 . S
C358 C357 1.297 . S
C358 C359 1.479 . S
C358 H372 0.950 . S
C359 C358 1.479 . S
C359 C360 1.375 . S
C359 C365 1.404 . S
C360 C359 1.375 . S
C360 C361 1.369 . S
C360 H373 0.950 . S
C361 C360 1.369 . S
C361 C362 1.392 . S
C361 H374 0.951 . S
C362 C361 1.392 . S
C362 C364 1.384 . S
H363 C365 0.949 . S
C364 C362 1.384 . S
C364 C365 1.385 . S
C364 H366 0.950 . S
C365 C359 1.404 . S
C365 H363 0.949 . S
C365 C364 1.385 . S
H366 C364 0.950 . S
H367 C351 0.951 . S
H368 C353 0.951 . S
H369 C355 0.951 . S
H370 C356 0.950 . S
H371 C357 0.950 . S
H372 C358 0.950 . S
H373 C360 0.950 . S
H374 C361 0.951 . S
C375 C376 1.386 1_655 S
C375 C377 1.383 . S
C375 H391 0.951 . S
C376 C375 1.386 1_455 S
C376 C380 1.383 . S
C377 C375 1.383 . S
C377 C378 1.402 1_655 S
C377 H392 0.951 . S
C378 C377 1.402 1_455 S
C378 C379 1.375 . S
C378 C381 1.481 . S
C379 C378 1.375 . S
C379 C380 1.367 . S
C379 H393 0.951 . S
C380 C376 1.383 . S
C380 C379 1.367 . S
C380 H394 0.950 . S
C381 C378 1.481 . S
C381 C382 1.297 1_455 S
C381 H395 0.950 . S
C382 C381 1.297 1_655 S
C382 C383 1.479 . S
C382 H396 0.950 . S
C383 C382 1.479 . S
C383 C384 1.375 . S
C383 C389 1.404 1_655 S
C384 C383 1.375 . S
C384 C385 1.369 . S
C384 H397 0.950 . S
C385 C384 1.369 . S
C385 C386 1.392 1_655 S
C385 H398 0.951 . S
C386 C385 1.392 1_455 S
C386 C388 1.384 . S
H387 C389 0.949 . S
C388 C386 1.384 . S
C388 C389 1.385 . S
C388 H390 0.950 . S
C389 C383 1.404 1_455 S
C389 H387 0.949 . S
C389 C388 1.385 . S
H390 C388 0.950 . S
H391 C375 0.951 . S
H392 C377 0.951 . S
H393 C379 0.951 . S
H394 C380 0.950 . S
H395 C381 0.950 . S
H396 C382 0.950 . S
H397 C384 0.950 . S
H398 C385 0.951 . S
C399 C400 1.386 1_545 S
C399 C401 1.383 . S
C399 H415 0.951 . S
C400 C399 1.386 1_565 S
C400 C404 1.383 . S
C401 C399 1.383 . S
C401 C402 1.402 1_545 S
C401 H416 0.951 . S
C402 C401 1.402 1_565 S
C402 C403 1.375 . S
C402 C405 1.481 . S
C403 C402 1.375 . S
C403 C404 1.367 . S
C403 H417 0.951 . S
C404 C400 1.383 . S
C404 C403 1.367 . S
C404 H418 0.950 . S
C405 C402 1.481 . S
C405 C406 1.297 . S
C405 H419 0.950 . S
C406 C405 1.297 . S
C406 C407 1.479 . S
C406 H420 0.950 1_565 S
C407 C406 1.479 . S
C407 C408 1.375 1_565 S
C407 C413 1.404 . S
C408 C407 1.375 1_545 S
C408 C409 1.369 . S
C408 H421 0.950 . S
C409 C408 1.369 . S
C409 C410 1.392 . S
C409 H422 0.951 . S
C410 C409 1.392 . S
C410 C412 1.384 1_545 S
H411 C413 0.949 . S
C412 C410 1.384 1_565 S
C412 C413 1.385 . S
C412 H414 0.950 . S
C413 C407 1.404 . S
C413 H411 0.949 . S
C413 C412 1.385 . S
H414 C412 0.950 . S
H415 C399 0.951 . S
H416 C401 0.951 . S
H417 C403 0.951 . S
H418 C404 0.950 . S
H419 C405 0.950 . S
H420 C406 0.950 1_545 S
H421 C408 0.950 . S
H422 C409 0.951 . S
C423 C424 1.386 1_556 S
C423 C425 1.383 . S
C423 H439 0.951 . S
C424 C423 1.386 1_554 S
C424 C428 1.383 . S
C425 C423 1.383 . S
C425 C426 1.402 . S
C425 H440 0.951 . S
C426 C425 1.402 . S
C426 C427 1.375 1_556 S
C426 C429 1.481 . S
C427 C426 1.375 1_554 S
C427 C428 1.367 . S
C427 H441 0.951 . S
C428 C424 1.383 . S
C428 C427 1.367 . S
C428 H442 0.950 . S
C429 C426 1.481 . S
C429 C430 1.297 . S
C429 H443 0.950 . S
C430 C429 1.297 . S
C430 C431 1.479 . S
C430 H444 0.950 . S
C431 C430 1.479 . S
C431 C432 1.375 . S
C431 C437 1.404 . S
C432 C431 1.375 . S
C432 C433 1.369 . S
C432 H445 0.950 . S
C433 C432 1.369 . S
C433 C434 1.392 . S
C433 H446 0.951 . S
C434 C433 1.392 . S
C434 C436 1.384 . S
H435 C437 0.949 . S
C436 C434 1.384 . S
C436 C437 1.385 . S
C436 H438 0.950 . S
C437 C431 1.404 . S
C437 H435 0.949 . S
C437 C436 1.385 . S
H438 C436 0.950 . S
H439 C423 0.951 . S
H440 C425 0.951 . S
H441 C427 0.951 . S
H442 C428 0.950 . S
H443 C429 0.950 . S
H444 C430 0.950 . S
H445 C432 0.950 . S
H446 C433 0.951 . S
C447 C448 1.386 . S
C447 C449 1.383 . S
C447 H463 0.951 . S
C448 C447 1.386 . S
C448 C452 1.399 . S
C449 C447 1.383 . S
C449 C450 1.402 . S
C449 H464 0.951 . S
C450 C449 1.402 . S
C450 C451 1.375 1_455 S
C450 C453 1.481 . S
C451 C450 1.375 1_655 S
C451 C452 1.357 1_655 S
C451 H465 0.951 . S
C452 C448 1.399 . S
C452 C451 1.357 1_455 S
C452 H466 0.943 1_455 S
C453 C450 1.481 . S
C453 C454 1.297 . S
C453 H467 0.950 1_455 S
C454 C453 1.297 . S
C454 C455 1.479 . S
C454 H468 0.950 . S
C455 C454 1.479 . S
C455 C456 1.375 . S
C455 C461 1.404 1_455 S
C456 C455 1.375 . S
C456 C457 1.369 . S
C456 H469 0.950 . S
C457 C456 1.369 . S
C457 C458 1.392 . S
C457 H470 0.951 . S
C458 C457 1.392 . S
C458 C460 1.384 1_455 S
H459 C461 0.949 . S
C460 C458 1.384 1_655 S
C460 C461 1.385 . S
C460 H462 0.950 . S
C461 C455 1.404 1_655 S
C461 H459 0.949 . S
C461 C460 1.385 . S
H462 C460 0.950 . S
H463 C447 0.951 . S
H464 C449 0.951 . S
H465 C451 0.951 . S
H466 C452 0.943 1_655 S
H467 C453 0.950 1_655 S
H468 C454 0.950 . S
H469 C456 0.950 . S
H470 C457 0.951 . S
C194 C60 1.394 1_655 S
C184 C10 1.408 1_455 S
C208 C21 1.407 . S
C218 C108 1.445 . S
C232 C31 1.387 . S
C242 C180 1.431 . S
C256 C0 1.361 . S
C266 C84 1.419 . S
C290 C132 1.419 . S
C280 C18 1.377 . S
C304 C34 1.391 . S
C314 C156 1.403 . S
C338 C117 1.381 . S
C328 C36 1.383 . S
C352 C8 1.417 . S
C362 C171 1.418 . S
C386 C75 1.385 . S
C376 C23 1.404 . S
C410 C123 1.354 . S
C400 C26 1.326 1_565 S
C434 C165 1.443 . S
C424 C5 1.343 . S
C448 C13 1.353 . S
C458 C69 1.420 . S
