# Generated by pormake.
# Topology ftw, (4,12)-cn, num edge types: 1
# Building blocks:
#     Node 0, Type 0, BuildingBlock: AZAVOO_clean_linker_0, # of connection points: 4
#     Node 1, Type 0, BuildingBlock: AZAVOO_clean_linker_0, # of connection points: 4
#     Node 2, Type 0, BuildingBlock: AZAVOO_clean_linker_0, # of connection points: 4
#     Node 3, Type 1, BuildingBlock: QEWDON_clean_sbu_0, # of connection points: 12
#     Edge 4, Type (0, 1), BuildingBlock: FUNLAD_clean_linker_1, # of connection points: 2
#     Edge 5, Type (0, 1), BuildingBlock: FUNLAD_clean_linker_1, # of connection points: 2
#     Edge 6, Type (0, 1), BuildingBlock: FUNLAD_clean_linker_1, # of connection points: 2
#     Edge 7, Type (0, 1), BuildingBlock: FUNLAD_clean_linker_1, # of connection points: 2
#     Edge 8, Type (0, 1), BuildingBlock: FUNLAD_clean_linker_1, # of connection points: 2
#     Edge 9, Type (0, 1), BuildingBlock: FUNLAD_clean_linker_1, # of connection points: 2
#     Edge 10, Type (0, 1), BuildingBlock: FUNLAD_clean_linker_1, # of connection points: 2
#     Edge 11, Type (0, 1), BuildingBlock: FUNLAD_clean_linker_1, # of connection points: 2
#     Edge 12, Type (0, 1), BuildingBlock: FUNLAD_clean_linker_1, # of connection points: 2
#     Edge 13, Type (0, 1), BuildingBlock: FUNLAD_clean_linker_1, # of connection points: 2
#     Edge 14, Type (0, 1), BuildingBlock: FUNLAD_clean_linker_1, # of connection points: 2
#     Edge 15, Type (0, 1), BuildingBlock: FUNLAD_clean_linker_1, # of connection points: 2
# Relax obj value: 0.075
# Max RMSD: 0.223
# Mean RMSD: 0.192
data_MOF--net-ftw--node1-QEWDON_clean_sbu_0--node2-AZAVOO_clean_linker_0--edge1-FUNLAD_clean_linker_1
_symmetry_space_group_name_H-M    P1
_symmetry_Int_Tables_number       1
_symmetry_cell_setting            triclinic
loop_
_symmetry_equiv_pos_as_xyz
'x, y, z'
_cell_length_a     28.852398
_cell_length_b     28.421495
_cell_length_c     29.76399
_cell_angle_alpha  91.177866
_cell_angle_beta   89.021524
_cell_angle_gamma 91.361159
loop_
_atom_site_label
_atom_site_type_symbol
_atom_site_fract_x
_atom_site_fract_y
_atom_site_fract_z
_atom_type_partial_charge
H0 H 0.04349 0.20411 0.43689 0.0
H1 H 0.93492 0.59304 0.77534 0.0
H2 H 0.07355 0.46215 0.40276 0.0
H3 H 0.07884 0.41549 0.33357 0.0
H4 H 0.93332 0.43737 0.31059 0.0
H5 H 0.92894 0.48506 0.37998 0.0
H6 H 0.06494 0.40192 0.49232 0.0
H7 H 0.06938 0.31799 0.47309 0.0
H8 H 0.93138 0.3206 0.41885 0.0
H9 H 0.92714 0.40435 0.43892 0.0
H10 H 0.05356 0.45465 0.58681 0.0
H11 H 0.04519 0.3994 0.64874 0.0
H12 H 0.90842 0.35888 0.60227 0.0
H13 H 0.91677 0.41496 0.54172 0.0
H14 H 0.05842 0.56207 0.58583 0.0
H15 H 0.05344 0.59093 0.66376 0.0
H16 H 0.90925 0.54605 0.67022 0.0
H17 H 0.91449 0.51819 0.59195 0.0
H18 H 0.06682 0.61446 0.49729 0.0
H19 H 0.08036 0.68504 0.54405 0.0
H20 H 0.93596 0.68118 0.58568 0.0
H21 H 0.923 0.61156 0.53844 0.0
H22 H 0.05653 0.5691 0.39068 0.0
H23 H 0.04745 0.62605 0.33118 0.0
H24 H 0.90835 0.653 0.37975 0.0
H25 H 0.91764 0.59534 0.43876 0.0
O26 O 0.04115 0.23739 0.44378 0.0
O27 O 0.97144 0.2413 0.41351 0.0
O28 O 0.0106 0.60885 0.73789 0.0
O29 O 0.9378 0.58206 0.74446 0.0
C30 C -0.00461 0.49398 0.44389 0.0
C31 C -0.00653 0.46018 0.47838 0.0
C32 C 0.9896 0.47467 0.52388 0.0
C33 C 0.98921 0.52308 0.53515 0.0
C34 C 0.99063 0.55712 0.5009 0.0
C35 C 0.99233 0.54262 0.45504 0.0
C36 C 0.00086 0.47697 0.39651 0.0
C37 C 0.04317 0.45801 0.38202 0.0
C38 C 0.04583 0.43049 0.34257 0.0
C39 C 0.00591 0.42106 0.31693 0.0
C40 C 0.96455 0.44342 0.32977 0.0
C41 C 0.962 0.47107 0.36919 0.0
C42 C -0.00419 0.40917 0.46685 0.0
C43 C 0.03567 0.38422 0.47642 0.0
C44 C 0.03813 0.33633 0.46531 0.0
C45 C 0.00075 0.31259 0.44437 0.0
C46 C 0.96082 0.33782 0.43486 0.0
C47 C 0.95833 0.38565 0.44619 0.0
C48 C 0.98562 0.43914 0.55998 0.0
C49 C 0.02176 0.4339 0.59026 0.0
C50 C 0.01692 0.4023 0.62554 0.0
C51 C 0.97583 0.37534 0.6314 0.0
C52 C 0.94011 0.3798 0.6001 0.0
C53 C 0.94498 0.41153 0.5649 0.0
C54 C 0.98675 0.5383 0.58323 0.0
C55 C 0.02579 0.55858 0.60414 0.0
C56 C 0.02285 0.575 0.64864 0.0
C57 C 0.98088 0.5709 0.6732 0.0
C58 C 0.94206 0.5498 0.65228 0.0
C59 C 0.94497 0.53371 0.60766 0.0
C60 C -0.00603 0.60775 0.51452 0.0
C61 C 0.03768 0.63034 0.51473 0.0
C62 C 0.04544 0.67036 0.54196 0.0
C63 C 0.00962 0.68877 0.56917 0.0
C64 C 0.96463 0.66875 0.56524 0.0
C65 C 0.95692 0.62876 0.5379 0.0
C66 C 0.98784 0.57806 0.41924 0.0
C67 C 0.0242 0.58746 0.38856 0.0
C68 C 0.01902 0.62057 0.35478 0.0
C69 C 0.97727 0.64503 0.35114 0.0
C70 C 0.94098 0.63512 0.38182 0.0
C71 C 0.94627 0.60226 0.41561 0.0
C72 C 0.0034 0.26166 0.43283 0.0
C73 C 0.97751 0.58848 0.72042 0.0
H74 H 0.54525 0.94543 0.18866 0.0
H75 H 0.20739 0.02656 0.58609 0.0
H76 H 0.58405 0.9099 0.41998 0.0
H77 H 0.65577 0.91611 0.37542 0.0
H78 H 0.6815 0.05579 0.43059 0.0
H79 H 0.60878 0.04967 0.47469 0.0
H80 H 0.48796 0.91173 0.37502 0.0
H81 H 0.50626 0.91276 0.29444 0.0
H82 H 0.56432 0.05373 0.31003 0.0
H83 H 0.5452 0.05249 0.39039 0.0
H84 H 0.39052 0.91334 0.44099 0.0
H85 H 0.32661 0.91375 0.38753 0.0
H86 H 0.37712 0.04757 0.3384 0.0
H87 H 0.43916 0.04844 0.3935 0.0
H88 H 0.40137 0.90962 0.5421 0.0
H89 H 0.32317 0.9118 0.57503 0.0
H90 H 0.31008 0.05441 0.52974 0.0
H91 H 0.38866 0.05198 0.49752 0.0
H92 H 0.49286 0.90827 0.5902 0.0
H93 H 0.45981 0.90513 0.66676 0.0
H94 H 0.42077 0.05046 0.65773 0.0
H95 H 0.45331 0.05301 0.58164 0.0
H96 H 0.59356 0.90819 0.52363 0.0
H97 H 0.65498 0.90159 0.57879 0.0
H98 H 0.61986 0.0376 0.63542 0.0
H99 H 0.55908 0.04419 0.57979 0.0
O100 O 0.53795 0.94591 0.22055 0.0
O101 O 0.56777 0.01818 0.23049 0.0
O102 O 0.24693 0.95139 0.59582 0.0
O103 O 0.23813 0.02454 0.57279 0.0
C104 C 0.54234 0.97971 0.46838 0.0
C105 C 0.50523 0.98084 0.43772 0.0
C106 C 0.45874 0.98062 0.45362 0.0
C107 C 0.44942 0.9803 0.50038 0.0
C108 C 0.48638 0.98017 0.53121 0.0
C109 C 0.53296 0.97933 0.5153 0.0
C110 C 0.59082 0.97952 0.45022 0.0
C111 C 0.60548 0.94159 0.42302 0.0
C112 C 0.64614 0.94548 0.39708 0.0
C113 C 0.67332 0.98724 0.39832 0.0
C114 C 0.66072 0.02359 0.42849 0.0
C115 C 0.61952 0.01996 0.45399 0.0
C116 C 0.51529 0.982 0.38853 0.0
C117 C 0.50434 0.94289 0.36089 0.0
C118 C 0.51498 0.94353 0.31491 0.0
C119 C 0.53685 0.98329 0.2958 0.0
C120 C 0.54753 0.02252 0.32365 0.0
C121 C 0.53672 0.0219 0.36956 0.0
C122 C 0.4198 0.98079 0.42118 0.0
C123 C 0.38756 0.94298 0.41901 0.0
C124 C 0.35132 0.94305 0.38833 0.0
C125 C 0.34764 0.98009 0.35825 0.0
C126 C 0.37987 0.01793 0.36041 0.0
C127 C 0.41524 0.01852 0.39195 0.0
C128 C 0.4007 0.98068 0.51754 0.0
C129 C 0.3815 0.94125 0.53926 0.0
C130 C 0.33684 0.9426 0.55802 0.0
C131 C 0.31041 0.98337 0.55515 0.0
C132 C 0.3295 0.02251 0.53262 0.0
C133 C 0.37428 0.02117 0.51401 0.0
C134 C 0.47512 0.98075 0.58023 0.0
C135 C 0.47794 0.93961 0.6052 0.0
C136 C 0.45874 0.93779 0.64871 0.0
C137 C 0.43605 0.97685 0.66769 0.0
C138 C 0.43617 0.019 0.64361 0.0
C139 C 0.45547 0.02084 0.60031 0.0
C140 C 0.57156 0.97655 0.54773 0.0
C141 C 0.59935 0.93671 0.54774 0.0
C142 C 0.63429 0.93292 0.57936 0.0
C143 C 0.6417 0.96845 0.61215 0.0
C144 C 0.61435 0.00883 0.6116 0.0
C145 C 0.57971 0.01284 0.57958 0.0
C146 C 0.54851 0.9837 0.24703 0.0
C147 C 0.26328 0.98526 0.57582 0.0
H148 H 0.23459 0.26753 0.11816 0.0
H149 H 0.76726 0.42054 0.14594 0.0
H150 H 0.37007 0.49042 0.01367 0.0
H151 H 0.28531 0.4829 0.01289 0.0
H152 H 0.28052 0.49931 0.15737 0.0
H153 H 0.36532 0.50668 0.15796 0.0
H154 H 0.37737 0.39491 0.04441 0.0
H155 H 0.31431 0.33899 0.06215 0.0
H156 H 0.34747 0.35165 0.20309 0.0
H157 H 0.4098 0.40852 0.18494 0.0
H158 H 0.47282 0.34618 0.05979 0.0
H159 H 0.50649 0.27104 0.07865 0.0
H160 H 0.55493 0.33214 0.20393 0.0
H161 H 0.52035 0.40711 0.18508 0.0
H162 H 0.5644 0.39773 0.04231 0.0
H163 H 0.64481 0.37413 0.04998 0.0
H164 H 0.6617 0.47498 0.15961 0.0
H165 H 0.58091 0.49763 0.15211 0.0
H166 H 0.5706 0.49873 0.00982 0.0
H167 H 0.63707 0.55167 0.99486 0.0
H168 H 0.58996 0.64586 0.10089 0.0
H169 H 0.52458 0.59186 0.11694 0.0
H170 H 0.47081 0.5484 0.9885 0.0
H171 H 0.44786 0.62311 0.95706 0.0
H172 H 0.39503 0.66648 0.08822 0.0
H173 H 0.41819 0.59236 0.11861 0.0
O174 O 0.25975 0.28977 0.11191 0.0
O175 O 0.28186 0.29297 0.18316 0.0
O176 O 0.72442 0.37709 0.08642 0.0
O177 O 0.73541 0.4294 0.14204 0.0
C178 C 0.42335 0.4865 0.08783 0.0
C179 C 0.43509 0.44129 0.10246 0.0
C180 C 0.482 0.42937 0.10562 0.0
C181 C 0.51733 0.46209 0.09314 0.0
C182 C 0.50562 0.50677 0.07716 0.0
C183 C 0.45848 0.51891 0.07428 0.0
C184 C 0.37369 0.49838 0.08592 0.0
C185 C 0.35062 0.49447 0.04492 0.0
C186 C 0.30233 0.48985 0.04457 0.0
C187 C 0.27677 0.48938 0.08527 0.0
C188 C 0.29957 0.49943 0.12568 0.0
C189 C 0.34789 0.50361 0.12604 0.0
C190 C 0.398 0.40591 0.11341 0.0
C191 C 0.37083 0.38571 0.07912 0.0
C192 C 0.33489 0.3537 0.08934 0.0
C193 C 0.32589 0.34077 0.13404 0.0
C194 C 0.35354 0.36078 0.1683 0.0
C195 C 0.38924 0.39314 0.15805 0.0
C196 C 0.49469 0.3821 0.12084 0.0
C197 C 0.48975 0.34297 0.09176 0.0
C198 C 0.50945 0.30029 0.10239 0.0
C199 C 0.53451 0.29632 0.14225 0.0
C200 C 0.53606 0.33446 0.17292 0.0
C201 C 0.51648 0.37719 0.1622 0.0
C202 C 0.56679 0.44921 0.0968 0.0
C203 C 0.58549 0.41457 0.06805 0.0
C204 C 0.63145 0.40123 0.07244 0.0
C205 C 0.65967 0.4226 0.10551 0.0
C206 C 0.64092 0.45776 0.13387 0.0
C207 C 0.59484 0.47087 0.12959 0.0
C208 C 0.54302 0.54118 0.0648 0.0
C209 C 0.57475 0.53071 0.02991 0.0
C210 C 0.61276 0.5608 0.02157 0.0
C211 C 0.61902 0.60228 0.0475 0.0
C212 C 0.58595 0.61386 0.08076 0.0
C213 C 0.54856 0.58326 0.08976 0.0
C214 C 0.44583 0.56489 0.05574 0.0
C215 C 0.45453 0.57438 0.01031 0.0
C216 C 0.44148 0.6171 0.99249 0.0
C217 C 0.41943 0.65121 0.01965 0.0
C218 C 0.41169 0.64175 0.06559 0.0
C219 C 0.42477 0.59899 0.08333 0.0
C220 C 0.28792 0.3064 0.14469 0.0
C221 C 0.70841 0.40822 0.11059 0.0
Zn222 Zn 0.13347 0.09677 0.98271 0.0
Zn223 Zn 0.06401 0.10203 0.0595 0.0
O224 O 0.07014 0.06838 0.9998 0.0
H225 H 0.04546 0.05954 0.97955 0.0
C226 C 0.86448 0.17832 0.90675 0.0
O227 O 0.82797 0.18705 0.93221 0.0
Zn228 Zn 0.95162 0.91117 0.06976 0.0
Zn229 Zn 0.90841 0.91781 0.96912 0.0
O230 O 0.9442 0.95417 0.01731 0.0
H231 H 0.96316 0.98206 0.01207 0.0
Zn232 Zn 0.87383 0.10131 0.97098 0.0
O233 O 0.92574 0.07984 0.00998 0.0
Zn234 Zn 0.89972 0.07213 0.07232 0.0
H235 H 0.9564 0.07144 0.99957 0.0
Zn236 Zn 0.10987 0.92309 0.93368 0.0
O237 O 0.06859 0.92614 0.98996 0.0
H238 H 0.0351 0.92542 0.99066 0.0
Zn239 Zn 0.11091 0.93854 0.04206 0.0
C240 C 0.04308 0.89607 0.86179 0.0
O241 O 0.01482 0.92215 0.88605 0.0
O242 O 0.14022 0.1671 1.00108 0.0
O243 O 0.08527 0.16999 0.05436 0.0
O244 O 0.88946 0.85151 0.98933 0.0
O245 O 0.92221 0.84636 0.05639 0.0
O246 O 0.81179 0.10753 0.0062 0.0
O247 O 0.83062 0.08478 0.07482 0.0
C248 C 0.11676 0.02824 0.09729 0.0
O249 O 0.17829 0.91218 0.94902 0.0
O250 O 0.17743 0.92464 0.02331 0.0
O251 O 0.86341 0.95039 0.92556 0.0
C252 C 0.11647 0.19007 0.03016 0.0
O253 O 0.17045 0.07184 0.92655 0.0
C254 C 0.90415 0.98103 0.12399 0.0
O255 O 0.88974 0.14381 0.9158 0.0
C256 C 0.8981 0.82855 0.02444 0.0
O257 O 0.08448 0.8911 0.87465 0.0
C258 C 0.97581 0.12606 0.10739 0.0
O259 O 0.10423 0.07045 0.10396 0.0
O260 O 0.10226 0.00586 0.06268 0.0
C261 C 0.80099 0.09905 0.04703 0.0
O262 O 0.9188 0.93917 0.12452 0.0
O263 O 0.91397 0.00598 0.09007 0.0
C264 C 0.05051 0.8866 0.10179 0.0
O265 O 0.93229 0.11988 0.11254 0.0
O266 O -0.00291 0.09952 0.07943 0.0
C267 C 0.19884 0.91429 0.98665 0.0
O268 O 0.093 0.89515 0.09279 0.0
O269 O 0.02043 0.90709 0.07883 0.0
C270 C 0.86397 0.93821 0.88421 0.0
O271 O 0.89425 0.90733 0.8697 0.0
C272 C 0.20225 0.04188 0.92928 0.0
O273 O 0.21223 0.02504 0.96865 0.0
H274 H 0.97243 0.38236 0.26038 0.0
C275 C 0.00455 0.3858 0.27892 0.0
H276 H 0.06991 0.35494 0.28798 0.0
H277 H 0.00034 0.15262 0.2241 0.0
H278 H 0.02165 0.14 0.30126 0.0
H279 H 0.04669 0.20648 0.3502 0.0
H280 H 0.05006 0.28607 0.32267 0.0
C281 C 0.03806 0.35459 0.26924 0.0
C282 C 0.02937 0.31382 0.23765 0.0
C283 C 0.028 0.26733 0.25433 0.0
C284 C 0.0136 0.22884 0.22604 0.0
C285 C 0.0113 0.18305 0.24395 0.0
C286 C 0.02337 0.17529 0.28823 0.0
C287 C 0.0374 0.21275 0.31582 0.0
C288 C 0.0394 0.25832 0.29943 0.0
H289 H 0.03819 0.16446 0.13324 0.0
C290 C 0.00056 0.16424 0.13255 0.0
H291 H 0.93967 0.1994 0.1526 0.0
H292 H 0.03998 0.39588 0.19196 0.0
H293 H 0.02252 0.40776 0.11345 0.0
H294 H -0.00686 0.34198 0.06574 0.0
H295 H 0.98225 0.26358 0.09585 0.0
C296 C 0.97722 0.1985 0.15441 0.0
C297 C 0.00051 0.23684 0.18121 0.0
C298 C 0.00483 0.28279 0.16372 0.0
C299 C 0.02025 0.32111 0.19166 0.0
C300 C 0.02668 0.36604 0.17261 0.0
C301 C 0.01705 0.37324 0.12758 0.0
C302 C 0.00054 0.33618 0.1007 0.0
C303 C -0.00573 0.29143 0.11842 0.0
H304 H 0.74422 0.01369 0.38023 0.0
C305 C 0.71436 0.99358 0.36794 0.0
H306 H 0.68446 0.9577 0.31241 0.0
H307 H 0.8639 0.07088 0.21587 0.0
H308 H 0.82567 0.14296 0.23799 0.0
H309 H 0.75453 0.1409 0.28512 0.0
H310 H 0.72191 0.0668 0.31144 0.0
C311 C 0.71465 0.97683 0.32525 0.0
C312 C 0.75664 0.97908 0.29526 0.0
C313 C 0.77431 0.02262 0.27881 0.0
C314 C 0.81378 0.02361 0.24927 0.0
C315 C 0.83254 0.0678 0.23607 0.0
C316 C 0.8112 0.10953 0.24894 0.0
C317 C 0.77125 0.10839 0.27565 0.0
C318 C 0.753 0.06559 0.29068 0.0
H319 H 0.84375 0.01961 0.15057 0.0
C320 C 0.87211 0.99749 0.15985 0.0
H321 H 0.90295 0.95841 0.20977 0.0
H322 H 0.73301 0.88987 0.32187 0.0
H323 H 0.76678 0.81726 0.29462 0.0
H324 H 0.8299 0.81822 0.2377 0.0
H325 H 0.85996 0.89151 0.20827 0.0
C326 C 0.87391 0.98013 0.20151 0.0
C327 C 0.83362 0.98081 0.23381 0.0
C328 C 0.815 0.9372 0.2494 0.0
C329 C 0.77729 0.93647 0.28082 0.0
C330 C 0.76079 0.8925 0.29711 0.0
C331 C 0.77993 0.85047 0.28185 0.0
C332 C 0.81552 0.85101 0.24992 0.0
C333 C 0.83277 0.89362 0.2336 0.0
H334 H 0.93383 0.68713 0.30683 0.0
C335 C 0.96946 0.67966 0.31508 0.0
H336 H 0.03979 0.69712 0.30075 0.0
H337 H 0.01405 0.7631 0.10311 0.0
H338 H 0.04177 0.68416 0.08846 0.0
H339 H 0.0483 0.62806 0.15008 0.0
H340 H 0.02676 0.65035 0.22663 0.0
C341 C 0.0038 0.70316 0.29322 0.0
C342 C -0.00529 0.7357 0.25565 0.0
C343 C 0.00784 0.72236 0.21115 0.0
C344 C 0.00488 0.75498 0.17571 0.0
C345 C 0.01703 0.74017 0.13144 0.0
C346 C 0.03262 0.69486 0.12253 0.0
C347 C 0.03624 0.66326 0.15721 0.0
C348 C 0.02394 0.67658 0.20103 0.0
H349 H 0.06832 0.83538 0.15221 0.0
C350 C 0.03903 0.8518 0.13675 0.0
H351 H 0.96586 0.85508 0.13672 0.0
H352 H 0.9634 0.77215 0.33625 0.0
H353 H 0.93212 0.84973 0.3497 0.0
H354 H 0.92687 0.90596 0.28804 0.0
H355 H 0.95295 0.88488 0.21242 0.0
C356 C -0.00397 0.83843 0.14998 0.0
C357 C 0.98994 0.80147 0.18489 0.0
C358 C 0.97352 0.81371 0.22863 0.0
C359 C 0.97616 0.78096 0.26416 0.0
C360 C 0.9614 0.7951 0.30787 0.0
C361 C 0.94357 0.83967 0.31611 0.0
C362 C 0.94068 0.87137 0.28141 0.0
C363 C 0.95572 0.85884 0.23818 0.0
H364 H 0.27455 0.96888 0.33821 0.0
C365 C 0.30881 0.97998 0.32624 0.0
H366 H 0.34941 0.00331 0.27132 0.0
H367 H 0.14137 0.93794 0.18733 0.0
H368 H 0.15566 0.8599 0.21446 0.0
H369 H 0.22608 0.84433 0.2571 0.0
H370 H 0.28195 0.90705 0.2739 0.0
C371 C 0.3149 0.99313 0.28333 0.0
C372 C 0.27513 7e-05 0.25282 0.0
C373 C 0.24418 0.96232 0.24103 0.0
C374 C 0.20497 0.97065 0.21401 0.0
C375 C 0.17281 0.93317 0.20576 0.0
C376 C 0.18044 0.88821 0.22141 0.0
C377 C 0.21998 0.8795 0.24559 0.0
C378 C 0.2516 0.91594 0.25535 0.0
H379 H 0.17051 0.97807 0.11583 0.0
C380 C 0.14972 0.00716 0.12811 0.0
H381 H 0.13614 0.05572 0.18071 0.0
H382 H 0.32742 0.08058 0.26867 0.0
H383 H 0.3164 0.15694 0.2367 0.0
H384 H 0.25242 0.16967 0.18477 0.0
H385 H 0.19875 0.10623 0.16506 0.0
C386 C 0.15715 0.02646 0.16913 0.0
C387 C 0.19842 0.016 0.19643 0.0
C388 C 0.23063 0.05316 0.20647 0.0
C389 C 0.26848 0.0454 0.23519 0.0
C390 C 0.29877 0.08387 0.2461 0.0
C391 C 0.29278 0.12811 0.22811 0.0
C392 C 0.25671 0.13531 0.19898 0.0
C393 C 0.22595 0.09849 0.18816 0.0
H394 H 0.05847 0.7272 0.61396 0.0
C395 C 0.02207 0.72391 0.60518 0.0
H396 H 0.95466 0.74715 0.62204 0.0
H397 H -0.00394 0.78276 0.82734 0.0
H398 H 0.9392 0.71878 0.82966 0.0
H399 H 0.91202 0.67992 0.75981 0.0
H400 H 0.94197 0.70429 0.68729 0.0
C401 C 0.99129 0.74915 0.62954 0.0
C402 C 0.00544 0.77565 0.67123 0.0
C403 C 0.98717 0.76125 0.71352 0.0
C404 C 0.00242 0.78412 0.75388 0.0
C405 C 0.98486 0.76766 0.79559 0.0
C406 C 0.95242 0.73066 0.79747 0.0
C407 C 0.93719 0.70871 0.75815 0.0
C408 C 0.95452 0.72333 0.71665 0.0
H409 H 0.99027 0.87744 0.81113 0.0
C410 C 0.02612 0.87245 0.82026 0.0
H411 H 0.0894 0.84087 0.80192 0.0
H412 H 0.04279 0.81647 0.59585 0.0
H413 H 0.09947 0.88079 0.59355 0.0
H414 H 0.12765 0.91874 0.66354 0.0
H415 H 0.09878 0.893 0.7362 0.0
C416 C 0.0531 0.84496 0.79401 0.0
C417 C 0.03555 0.8218 0.75192 0.0
C418 C 0.05325 0.83665 0.70965 0.0
C419 C 0.03775 0.81405 0.66927 0.0
C420 C 0.05458 0.83115 0.62757 0.0
C421 C 0.08684 0.86836 0.62575 0.0
C422 C 0.10264 0.88978 0.66514 0.0
C423 C 0.08594 0.87449 0.70666 0.0
H424 H 0.42307 0.94547 0.73467 0.0
C425 C 0.41192 0.97244 0.71211 0.0
H426 H 0.36075 0.02265 0.7007 0.0
H427 H 0.20878 0.95076 0.8361 0.0
H428 H 0.17675 0.9217 0.76564 0.0
H429 H 0.22314 0.9247 0.6953 0.0
H430 H 0.30211 0.9562 0.69509 0.0
C431 C 0.37516 -0.00152 0.72422 0.0
C432 C 0.3493 0.99211 0.76757 0.0
C433 C 0.30301 0.97413 0.76703 0.0
C434 C 0.27585 0.97328 0.80739 0.0
C435 C 0.2303 0.9537 0.8061 0.0
C436 C 0.21164 0.93654 0.76596 0.0
C437 C 0.2378 0.93816 0.72638 0.0
C438 C 0.28301 0.95653 0.72671 0.0
H439 H 0.22189 0.04696 0.85768 0.0
C440 C 0.22952 0.02914 0.88859 0.0
H441 H 0.27317 0.9813 0.91964 0.0
H442 H 0.43735 0.02762 0.78114 0.0
H443 H 0.4701 0.05315 0.85216 0.0
H444 H 0.42337 0.05027 0.92225 0.0
H445 H 0.34344 0.02223 0.92163 0.0
C446 C 0.26427 -0.00161 0.88874 0.0
C447 C 0.29461 0.99151 0.84808 0.0
C448 C 0.34187 0.00639 0.84928 0.0
C449 C 0.36912 0.00724 0.8089 0.0
C450 C 0.41538 0.02493 0.81078 0.0
C451 C 0.43459 0.04 0.85137 0.0
C452 C 0.40827 0.03844 0.89082 0.0
C453 C 0.36238 0.02218 0.88996 0.0
H454 H 0.00364 0.33535 0.6878 0.0
C455 C 0.97199 0.34307 0.6703 0.0
H456 H 0.89898 0.33175 0.67072 0.0
H457 H 0.90399 0.14166 0.77725 0.0
H458 H 0.89397 0.11027 0.70155 0.0
H459 H 0.90072 0.16215 0.63619 0.0
H460 H 0.91745 0.24579 0.64617 0.0
C461 C 0.93166 0.32482 0.68641 0.0
C462 C 0.93004 0.2934 0.72596 0.0
C463 C 0.92039 0.24459 0.71962 0.0
C464 C 0.9164 0.21467 0.75733 0.0
C465 C 0.90696 0.16605 0.74987 0.0
C466 C 0.9013 0.14753 0.70657 0.0
C467 C 0.90508 0.17674 0.66978 0.0
C468 C 0.9146 0.2247 0.67599 0.0
H469 H 0.85203 0.23738 0.86196 0.0
C470 C 0.87541 0.20888 0.86821 0.0
H471 H 0.93561 0.17384 0.84585 0.0
H472 H 0.94801 0.38547 0.75033 0.0
H473 H 0.96086 0.41619 0.8258 0.0
H474 H 0.95732 0.36366 0.89079 0.0
H475 H 0.94012 0.28017 0.88075 0.0
C476 C 0.91258 0.20292 0.84095 0.0
C477 C 0.92116 0.23372 0.80146 0.0
C478 C 0.93266 0.28222 0.80773 0.0
C479 C 0.93643 0.31222 0.77002 0.0
C480 C 0.946 0.36082 0.77753 0.0
C481 C 0.95329 0.37898 0.82074 0.0
C482 C 0.95115 0.34944 0.85735 0.0
C483 C 0.94095 0.30162 0.85113 0.0
H484 H 0.706 0.93791 0.63718 0.0
C485 C 0.67847 0.96215 0.64587 0.0
H486 H 0.65035 0.00548 0.69776 0.0
H487 H 0.78954 0.86071 0.80342 0.0
H488 H 0.73638 0.79836 0.77921 0.0
H489 H 0.67132 0.81498 0.72971 0.0
H490 H 0.65943 0.89385 0.70369 0.0
C491 C 0.67767 0.98178 0.68748 0.0
C492 C 0.71433 0.97213 0.72078 0.0
C493 C 0.72014 0.92588 0.73664 0.0
C494 C 0.75698 0.91653 0.76616 0.0
C495 C 0.76228 0.86988 0.78092 0.0
C496 C 0.73186 0.83373 0.76745 0.0
C497 C 0.69529 0.84307 0.73953 0.0
C498 C 0.68916 0.88852 0.72443 0.0
H499 H 0.80138 0.97779 0.86814 0.0
C500 C 0.82826 0.95554 0.85393 0.0
H501 H 0.85271 0.91892 0.79624 0.0
H502 H 0.71064 0.06529 0.69994 0.0
H503 H 0.76082 0.12856 0.72798 0.0
H504 H 0.8235 0.11261 0.78035 0.0
H505 H 0.8376 0.0332 0.80391 0.0
C506 C 0.82684 0.94249 0.81023 0.0
C507 C 0.78706 0.95362 0.78115 0.0
C508 C 0.77984 0.00027 0.7671 0.0
C509 C 0.7434 0.0095 0.73698 0.0
C510 C 0.73745 0.05629 0.72303 0.0
C511 C 0.76609 0.09295 0.73875 0.0
C512 C 0.80153 0.08395 0.76811 0.0
C513 C 0.8089 0.03819 0.78177 0.0
H514 H 0.20422 0.48393 0.11153 0.0
C515 C 0.2289 0.46963 0.08719 0.0
H516 H 0.24496 0.41302 0.0433 0.0
H517 H 0.11331 0.27478 0.15402 0.0
H518 H 0.15454 0.29854 0.22156 0.0
H519 H 0.20746 0.36806 0.22184 0.0
H520 H 0.21896 0.41443 0.15509 0.0
C521 C 0.21941 0.42837 0.06613 0.0
C522 C 0.17654 0.39953 0.07363 0.0
C523 C 0.17046 0.37313 0.11342 0.0
C524 C 0.14072 0.33248 0.11313 0.0
C525 C 0.13576 0.30575 0.15255 0.0
C526 C 0.15915 0.31904 0.19149 0.0
C527 C 0.18882 0.35827 0.19167 0.0
C528 C 0.19504 0.38476 0.15303 0.0
H529 H 0.15352 0.25639 0.01502 0.0
C530 C 0.12613 0.24085 0.0359 0.0
H531 H 0.07772 0.25263 0.08871 0.0
H532 H 0.17042 0.45045 0.99745 0.0
H533 H 0.1213 0.43158 0.93334 0.0
H534 H 0.06929 0.36126 0.93355 0.0
H535 H 0.06651 0.30909 0.99769 0.0
C536 C 0.10377 0.26798 0.06638 0.0
C537 C 0.11869 0.31804 0.07291 0.0
C538 C 0.11839 0.34892 0.03628 0.0
C539 C 0.14775 0.38961 0.03649 0.0
C540 C 0.14864 0.41893 0.99865 0.0
C541 C 0.12053 0.4086 0.96192 0.0
C542 C 0.09126 0.36898 0.96201 0.0
C543 C 0.09015 0.33926 0.99871 0.0
H544 H 0.40781 0.69703 0.9617 0.0
C545 C 0.40271 0.69434 0.99787 0.0
H546 H 0.37317 0.72845 0.05533 0.0
H547 H 0.34136 0.92732 0.97969 0.0
H548 H 0.41084 0.94415 0.02303 0.0
H549 H 0.45586 0.87961 0.05346 0.0
H550 H 0.43194 0.79788 0.04061 0.0
C551 C 0.3782 0.72801 0.01922 0.0
C552 C 0.35578 0.7662 0.99458 0.0
C553 C 0.3704 0.81362 1.0022 0.0
C554 C 0.34426 0.85086 0.98512 0.0
C555 C 0.35962 0.89791 0.99291 0.0
C556 C 0.39949 0.90796 0.01741 0.0
C557 C 0.42486 0.8716 0.03451 0.0
C558 C 0.41069 0.8249 0.02706 0.0
H559 H 0.25892 0.89039 0.02327 0.0
C560 C 0.24612 0.89625 0.98972 0.0
H561 H 0.25592 0.8827 0.92033 0.0
H562 H 0.31826 0.67896 0.97206 0.0
H563 H 0.25203 0.66292 0.92523 0.0
H564 H 0.2087 0.72768 0.89327 0.0
H565 H 0.23125 0.80883 0.90843 0.0
C566 C 0.26891 0.8779 0.95393 0.0
C567 C 0.30327 0.84062 0.961 0.0
C568 C 0.29108 0.79324 0.94968 0.0
C569 C 0.31681 0.75587 0.9672 0.0
C570 C 0.30139 0.70888 0.95843 0.0
C571 C 0.26301 0.69906 0.9318 0.0
C572 C 0.23857 0.7355 0.91389 0.0
C573 C 0.252 0.78205 0.92291 0.0
H574 H 0.57096 0.24651 0.18506 0.0
C575 C 0.56323 0.25494 0.15054 0.0
H576 H 0.58086 0.24242 0.08216 0.0
H577 H 0.77726 0.1758 0.15933 0.0
H578 H 0.78699 0.25555 0.18881 0.0
H579 H 0.72254 0.31101 0.18773 0.0
H580 H 0.64797 0.28687 0.15829 0.0
C581 C 0.58655 0.23335 0.11686 0.0
C582 C 0.62326 0.19883 0.12466 0.0
C583 C 0.66681 0.21405 0.14203 0.0
C584 C 0.70452 0.1827 0.14116 0.0
C585 C 0.7477 0.19845 0.15856 0.0
C586 C 0.75375 0.24412 0.17563 0.0
C587 C 0.71743 0.27528 0.17515 0.0
C588 C 0.67453 0.26075 0.15836 0.0
H589 H 0.73056 0.12447 0.03833 0.0
C590 C 0.754 0.11083 0.06291 0.0
H591 H 0.765 0.10014 0.13203 0.0
H592 H 0.54286 0.15671 0.09528 0.0
H593 H 0.53333 0.07609 0.06732 0.0
H594 H 0.59953 0.02259 0.06442 0.0
H595 H 0.67579 0.04948 0.08949 0.0
C596 C 0.74137 0.11156 0.10661 0.0
C597 C 0.69924 0.13744 0.12082 0.0
C598 C 0.65491 0.121 0.10712 0.0
C599 C 0.61683 0.15177 0.109 0.0
C600 C 0.57304 0.13477 0.09426 0.0
C601 C 0.56709 0.08859 0.07831 0.0
C602 C 0.60438 0.05847 0.07666 0.0
C603 C 0.64791 0.07432 0.09085 0.0
H604 H 0.65507 0.67154 0.04753 0.0
C605 C 0.65966 0.63414 0.04087 0.0
H606 H 0.70821 0.58119 0.02566 0.0
H607 H 0.85147 0.72432 0.93404 0.0
H608 H 0.83508 0.66905 0.87279 0.0
H609 H 0.77591 0.60567 0.8817 0.0
H610 H 0.73316 0.59683 0.95204 0.0
C611 C 0.70243 0.61848 0.03135 0.0
C612 C 0.74267 0.65207 0.02801 0.0
C613 C 0.7673 0.65656 0.9867 0.0
C614 C 0.8007 0.69366 0.98128 0.0
C615 C 0.82506 0.6973 0.9397 0.0
C616 C 0.81613 0.66572 0.90432 0.0
C617 C 0.78286 0.63 0.90936 0.0
C618 C 0.75856 0.62534 0.94995 0.0
H619 H 0.88752 0.75966 0.05694 0.0
C620 C 0.87563 0.78197 0.03045 0.0
H621 H 0.82519 0.79218 0.98127 0.0
H622 H 0.71212 0.64433 0.11519 0.0
H623 H 0.7267 0.70029 0.17632 0.0
H624 H 0.77624 0.77102 0.16436 0.0
H625 H 0.8126 0.78528 0.09213 0.0
C626 C 0.83716 0.76982 0.0077 0.0
C627 C 0.80871 0.72669 0.01685 0.0
C628 C 0.78559 0.7208 0.059 0.0
C629 C 0.75416 0.68211 0.06504 0.0
C630 C 0.73418 0.67471 0.1082 0.0
C631 C 0.74254 0.70632 0.14365 0.0
C632 C 0.77061 0.74598 0.13697 0.0
C633 C 0.79178 0.75344 0.09522 0.0
loop_
_geom_bond_atom_site_label_1
_geom_bond_atom_site_label_2
_geom_bond_distance
_geom_bond_site_symmetry_2
_ccdc_geom_bond_type
H0 O26 0.856 . S
H1 O29 0.854 . S
H2 C37 0.930 . S
H3 C38 0.930 . S
H4 C40 0.930 . S
H5 C41 0.930 . S
H6 C43 0.931 . S
H7 C44 0.930 . S
H8 C46 0.930 . S
H9 C47 0.929 . S
H10 C49 0.930 . S
H11 C50 0.931 . S
H12 C52 0.930 . S
H13 C53 0.929 . S
H14 C55 0.931 . S
H15 C56 0.930 . S
H16 C58 0.930 . S
H17 C59 0.932 . S
H18 C61 0.930 . S
H19 C62 0.929 . S
H20 C64 0.931 . S
H21 C65 0.930 . S
H22 C67 0.929 . S
H23 C68 0.931 . S
H24 C70 0.930 . S
H25 C71 0.929 . S
O26 H0 0.856 . S
O26 C72 1.300 1_455 S
O27 C72 1.209 . S
O28 C73 1.199 1_455 S
O29 H1 0.854 . S
O29 C73 1.297 . S
C30 C31 1.404 1_455 S
C30 C35 1.397 . S
C30 C36 1.494 . S
C31 C30 1.404 1_655 S
C31 C32 1.396 . S
C31 C42 1.492 . S
C32 C31 1.396 . S
C32 C33 1.397 . S
C32 C48 1.509 . S
C33 C32 1.397 . S
C33 C34 1.412 1_655 S
C33 C54 1.485 . S
C34 C33 1.412 1_455 S
C34 C35 1.388 . S
C34 C60 1.490 . S
C35 C30 1.397 . S
C35 C34 1.388 . S
C35 C66 1.519 . S
C36 C30 1.494 . S
C36 C37 1.363 . S
C36 C41 1.390 1_455 S
C37 H2 0.930 . S
C37 C36 1.363 . S
C37 C38 1.372 . S
C38 H3 0.930 . S
C38 C37 1.372 . S
C38 C39 1.383 . S
C39 C38 1.383 . S
C39 C40 1.395 1_455 S
C40 H4 0.930 . S
C40 C39 1.395 1_655 S
C40 C41 1.362 . S
C41 H5 0.930 . S
C41 C36 1.390 1_655 S
C41 C40 1.362 . S
C42 C31 1.492 . S
C42 C43 1.377 1_655 S
C42 C47 1.397 . S
C43 H6 0.931 . S
C43 C42 1.377 1_455 S
C43 C44 1.376 . S
C44 H7 0.930 . S
C44 C43 1.376 . S
C44 C45 1.376 1_455 S
C45 C44 1.376 1_655 S
C45 C46 1.378 . S
C45 C72 1.486 . S
C46 H8 0.930 . S
C46 C45 1.378 . S
C46 C47 1.376 . S
C47 H9 0.929 . S
C47 C42 1.397 . S
C47 C46 1.376 . S
C48 C32 1.509 . S
C48 C49 1.391 1_655 S
C48 C53 1.386 . S
C49 H10 0.930 . S
C49 C48 1.391 1_455 S
C49 C50 1.375 . S
C50 H11 0.931 . S
C50 C49 1.375 . S
C50 C51 1.375 1_455 S
C51 C50 1.375 1_655 S
C51 C52 1.361 . S
C52 H12 0.930 . S
C52 C51 1.361 . S
C52 C53 1.399 . S
C53 H13 0.929 . S
C53 C48 1.386 . S
C53 C52 1.399 . S
C54 C33 1.485 . S
C54 C55 1.394 1_655 S
C54 C59 1.360 . S
C55 H14 0.931 . S
C55 C54 1.394 1_455 S
C55 C56 1.372 . S
C56 H15 0.930 . S
C56 C55 1.372 . S
C56 C57 1.397 1_455 S
C57 C56 1.397 1_655 S
C57 C58 1.390 . S
C57 C73 1.476 . S
C58 H16 0.930 . S
C58 C57 1.390 . S
C58 C59 1.366 . S
C59 H17 0.932 . S
C59 C54 1.360 . S
C59 C58 1.366 . S
C60 C34 1.490 . S
C60 C61 1.380 . S
C60 C65 1.386 1_455 S
C61 H18 0.930 . S
C61 C60 1.380 . S
C61 C62 1.381 . S
C62 H19 0.929 . S
C62 C61 1.381 . S
C62 C63 1.371 . S
C63 C62 1.371 . S
C63 C64 1.380 1_455 S
C64 H20 0.931 . S
C64 C63 1.380 1_655 S
C64 C65 1.387 . S
C65 H21 0.930 . S
C65 C60 1.386 1_655 S
C65 C64 1.387 . S
C66 C35 1.519 . S
C66 C67 1.381 . S
C66 C71 1.356 1_455 S
C67 H22 0.929 . S
C67 C66 1.381 . S
C67 C68 1.386 . S
C68 H23 0.931 . S
C68 C67 1.386 . S
C68 C69 1.363 1_455 S
C69 C68 1.363 1_655 S
C69 C70 1.385 . S
C70 H24 0.930 . S
C70 C69 1.385 . S
C70 C71 1.396 . S
C71 H25 0.929 . S
C71 C66 1.356 1_655 S
C71 C70 1.396 . S
C72 O26 1.300 1_655 S
C72 O27 1.209 . S
C72 C45 1.486 . S
C73 O28 1.199 1_655 S
C73 O29 1.297 . S
C73 C57 1.476 . S
H74 O100 0.856 . S
H75 O103 0.854 . S
H76 C111 0.930 . S
H77 C112 0.930 . S
H78 C114 0.930 . S
H79 C115 0.930 . S
H80 C117 0.931 . S
H81 C118 0.930 . S
H82 C120 0.930 . S
H83 C121 0.929 . S
H84 C123 0.930 . S
H85 C124 0.931 . S
H86 C126 0.930 . S
H87 C127 0.929 . S
H88 C129 0.931 . S
H89 C130 0.930 . S
H90 C132 0.930 . S
H91 C133 0.932 . S
H92 C135 0.930 . S
H93 C136 0.929 . S
H94 C138 0.931 . S
H95 C139 0.930 . S
H96 C141 0.929 . S
H97 C142 0.931 . S
H98 C144 0.930 . S
H99 C145 0.929 . S
O100 H74 0.856 . S
O100 C146 1.300 1_565 S
O101 C146 1.209 . S
O102 C147 1.199 1_565 S
O103 H75 0.854 . S
O103 C147 1.297 . S
C104 C105 1.404 . S
C104 C109 1.397 . S
C104 C110 1.492 . S
C105 C104 1.404 . S
C105 C106 1.396 . S
C105 C116 1.492 . S
C106 C105 1.396 . S
C106 C107 1.397 . S
C106 C122 1.509 . S
C107 C106 1.397 . S
C107 C108 1.412 . S
C107 C128 1.485 . S
C108 C107 1.412 . S
C108 C109 1.388 . S
C108 C134 1.490 . S
C109 C104 1.397 . S
C109 C108 1.388 . S
C109 C140 1.519 . S
C110 C104 1.492 . S
C110 C111 1.363 1_545 S
C110 C115 1.390 . S
C111 H76 0.930 . S
C111 C110 1.363 1_565 S
C111 C112 1.372 . S
C112 H77 0.930 . S
C112 C111 1.372 . S
C112 C113 1.383 . S
C113 C112 1.383 . S
C113 C114 1.395 1_565 S
C114 H78 0.930 . S
C114 C113 1.395 1_545 S
C114 C115 1.362 . S
C115 H79 0.930 . S
C115 C110 1.390 . S
C115 C114 1.362 . S
C116 C105 1.492 . S
C116 C117 1.377 1_545 S
C116 C121 1.397 . S
C117 H80 0.931 . S
C117 C116 1.377 1_565 S
C117 C118 1.376 . S
C118 H81 0.930 . S
C118 C117 1.376 . S
C118 C119 1.376 1_565 S
C119 C118 1.376 1_545 S
C119 C120 1.378 . S
C119 C146 1.486 . S
C120 H82 0.930 . S
C120 C119 1.378 . S
C120 C121 1.376 . S
C121 H83 0.929 . S
C121 C116 1.397 . S
C121 C120 1.376 . S
C122 C106 1.509 . S
C122 C123 1.391 1_545 S
C122 C127 1.386 . S
C123 H84 0.930 . S
C123 C122 1.391 1_565 S
C123 C124 1.375 . S
C124 H85 0.931 . S
C124 C123 1.375 . S
C124 C125 1.375 1_565 S
C125 C124 1.375 1_545 S
C125 C126 1.361 . S
C126 H86 0.930 . S
C126 C125 1.361 . S
C126 C127 1.399 . S
C127 H87 0.929 . S
C127 C122 1.386 . S
C127 C126 1.399 . S
C128 C107 1.485 . S
C128 C129 1.394 1_545 S
C128 C133 1.360 . S
C129 H88 0.931 . S
C129 C128 1.394 1_565 S
C129 C130 1.372 . S
C130 H89 0.930 . S
C130 C129 1.372 . S
C130 C131 1.397 1_565 S
C131 C130 1.397 1_545 S
C131 C132 1.390 . S
C131 C147 1.476 . S
C132 H90 0.930 . S
C132 C131 1.390 . S
C132 C133 1.366 . S
C133 H91 0.932 . S
C133 C128 1.360 . S
C133 C132 1.366 . S
C134 C108 1.490 . S
C134 C135 1.380 1_545 S
C134 C139 1.386 . S
C135 H92 0.930 . S
C135 C134 1.380 1_565 S
C135 C136 1.381 . S
C136 H93 0.929 . S
C136 C135 1.381 . S
C136 C137 1.371 . S
C137 C136 1.371 . S
C137 C138 1.380 1_565 S
C138 H94 0.931 . S
C138 C137 1.380 1_545 S
C138 C139 1.387 . S
C139 H95 0.930 . S
C139 C134 1.386 . S
C139 C138 1.387 . S
C140 C109 1.519 . S
C140 C141 1.377 1_545 S
C140 C145 1.361 . S
C141 H96 0.929 . S
C141 C140 1.377 1_565 S
C141 C142 1.386 . S
C142 H97 0.931 . S
C142 C141 1.386 . S
C142 C143 1.363 1_565 S
C143 C142 1.363 1_545 S
C143 C144 1.385 . S
C144 H98 0.930 . S
C144 C143 1.385 . S
C144 C145 1.396 . S
C145 H99 0.929 . S
C145 C140 1.361 . S
C145 C144 1.396 . S
C146 O100 1.300 1_545 S
C146 O101 1.209 . S
C146 C119 1.486 . S
C147 O102 1.199 1_545 S
C147 O103 1.297 . S
C147 C131 1.476 . S
H148 O174 0.853 1_554 S
H149 O177 0.854 . S
H150 C185 0.930 . S
H151 C186 0.930 . S
H152 C188 0.930 . S
H153 C189 0.930 . S
H154 C191 0.931 . S
H155 C192 0.930 . S
H156 C194 0.930 . S
H157 C195 0.929 . S
H158 C197 0.930 . S
H159 C198 0.931 . S
H160 C200 0.930 . S
H161 C201 0.929 . S
H162 C203 0.931 . S
H163 C204 0.930 . S
H164 C206 0.930 . S
H165 C207 0.932 . S
H166 C209 0.930 . S
H167 C210 0.929 . S
H168 C212 0.931 . S
H169 C213 0.930 . S
H170 C215 0.929 . S
H171 C216 0.931 . S
H172 C218 0.930 . S
H173 C219 0.929 . S
O174 H148 0.853 1_556 S
O174 C220 1.292 1_556 S
O175 C220 1.209 . S
O176 C221 1.199 1_556 S
O177 H149 0.854 . S
O177 C221 1.297 . S
C178 C179 1.404 . S
C178 C183 1.397 . S
C178 C184 1.492 . S
C179 C178 1.404 . S
C179 C180 1.396 . S
C179 C190 1.492 . S
C180 C179 1.396 . S
C180 C181 1.397 . S
C180 C196 1.509 . S
C181 C180 1.397 . S
C181 C182 1.412 . S
C181 C202 1.485 . S
C182 C181 1.412 . S
C182 C183 1.388 . S
C182 C208 1.490 . S
C183 C178 1.397 . S
C183 C182 1.388 . S
C183 C214 1.519 . S
C184 C178 1.492 . S
C184 C185 1.363 1_554 S
C184 C189 1.390 . S
C185 H150 0.930 . S
C185 C184 1.363 1_556 S
C185 C186 1.372 . S
C186 H151 0.930 . S
C186 C185 1.372 . S
C186 C187 1.395 . S
C187 C186 1.395 . S
C187 C188 1.381 1_556 S
C188 H152 0.930 . S
C188 C187 1.381 1_554 S
C188 C189 1.362 . S
C189 H153 0.930 . S
C189 C184 1.390 . S
C189 C188 1.362 . S
C190 C179 1.492 . S
C190 C191 1.377 1_554 S
C190 C195 1.397 . S
C191 H154 0.931 . S
C191 C190 1.377 1_556 S
C191 C192 1.376 . S
C192 H155 0.930 . S
C192 C191 1.376 . S
C192 C193 1.376 1_556 S
C193 C192 1.376 1_554 S
C193 C194 1.378 . S
C193 C220 1.486 . S
C194 H156 0.930 . S
C194 C193 1.378 . S
C194 C195 1.376 . S
C195 H157 0.929 . S
C195 C190 1.397 . S
C195 C194 1.376 . S
C196 C180 1.509 . S
C196 C197 1.391 1_554 S
C196 C201 1.386 . S
C197 H158 0.930 . S
C197 C196 1.391 1_556 S
C197 C198 1.375 . S
C198 H159 0.931 . S
C198 C197 1.375 . S
C198 C199 1.375 1_556 S
C199 C198 1.375 1_554 S
C199 C200 1.361 . S
C200 H160 0.930 . S
C200 C199 1.361 . S
C200 C201 1.399 . S
C201 H161 0.929 . S
C201 C196 1.386 . S
C201 C200 1.399 . S
C202 C181 1.485 . S
C202 C203 1.394 1_554 S
C202 C207 1.360 . S
C203 H162 0.931 . S
C203 C202 1.394 1_556 S
C203 C204 1.372 . S
C204 H163 0.930 . S
C204 C203 1.372 . S
C204 C205 1.397 1_556 S
C205 C204 1.397 1_554 S
C205 C206 1.390 . S
C205 C221 1.476 . S
C206 H164 0.930 . S
C206 C205 1.390 . S
C206 C207 1.366 . S
C207 H165 0.932 . S
C207 C202 1.360 . S
C207 C206 1.366 . S
C208 C182 1.490 . S
C208 C209 1.380 1_554 S
C208 C213 1.386 . S
C209 H166 0.930 . S
C209 C208 1.380 1_556 S
C209 C210 1.381 . S
C210 H167 0.929 . S
C210 C209 1.381 . S
C210 C211 1.385 . S
C211 C210 1.385 . S
C211 C212 1.363 1_556 S
C212 H168 0.931 . S
C212 C211 1.363 1_554 S
C212 C213 1.387 . S
C213 H169 0.930 . S
C213 C208 1.386 . S
C213 C212 1.387 . S
C214 C183 1.519 . S
C214 C215 1.377 1_554 S
C214 C219 1.361 . S
C215 H170 0.929 . S
C215 C214 1.377 1_556 S
C215 C216 1.386 . S
C216 H171 0.931 . S
C216 C215 1.386 . S
C216 C217 1.363 1_556 S
C217 C216 1.363 1_554 S
C217 C218 1.385 . S
C218 H172 0.930 . S
C218 C217 1.385 . S
C218 C219 1.396 . S
C219 H173 0.929 . S
C219 C214 1.361 . S
C219 C218 1.396 . S
C220 O174 1.292 1_554 S
C220 O175 1.209 . S
C220 C193 1.486 . S
C221 O176 1.199 1_554 S
C221 O177 1.297 . S
C221 C205 1.476 . S
Zn222 O224 1.933 1_556 S
Zn222 O242 1.985 . S
Zn222 O253 1.955 . S
Zn223 O224 1.911 . S
Zn223 O243 1.970 . S
Zn223 O259 1.945 . S
Zn223 O266 1.981 . S
O224 Zn222 1.933 1_554 S
O224 Zn223 1.911 . S
O224 H225 0.841 . S
H225 O224 0.841 . S
C226 O227 1.246 . S
C226 O255 1.276 1_455 S
O227 C226 1.246 . S
Zn228 O230 1.911 . S
Zn228 O245 1.970 . S
Zn228 O262 1.945 . S
Zn228 O269 1.981 . S
Zn229 O230 1.933 1_556 S
Zn229 O244 1.985 . S
Zn229 O251 1.955 . S
O230 Zn228 1.911 . S
O230 Zn229 1.933 1_554 S
O230 H231 0.841 . S
H231 O230 0.841 . S
Zn232 O233 1.933 1_556 S
Zn232 O246 1.985 . S
Zn232 O255 1.955 . S
O233 Zn232 1.933 1_554 S
O233 Zn234 1.911 . S
O233 H235 0.841 . S
Zn234 O233 1.911 . S
Zn234 O247 1.970 . S
Zn234 O263 1.981 . S
Zn234 O265 1.945 . S
H235 O233 0.841 . S
Zn236 O237 1.933 1_556 S
Zn236 O249 1.985 . S
Zn236 O257 1.955 . S
O237 Zn236 1.933 1_554 S
O237 H238 0.841 . S
O237 Zn239 1.911 . S
H238 O237 0.841 . S
Zn239 O237 1.911 . S
Zn239 O250 1.970 . S
Zn239 O260 1.981 . S
Zn239 O268 1.945 . S
C240 O241 1.246 . S
C240 O257 1.276 1_655 S
O241 C240 1.246 . S
O242 Zn222 1.985 . S
O242 C252 1.245 1_556 S
O243 Zn223 1.970 . S
O243 C252 1.263 . S
O244 Zn229 1.985 . S
O244 C256 1.245 1_556 S
O245 Zn228 1.970 . S
O245 C256 1.263 . S
O246 Zn232 1.985 . S
O246 C261 1.245 1_556 S
O247 Zn234 1.970 . S
O247 C261 1.263 . S
C248 O259 1.262 . S
C248 O260 1.245 1_545 S
O249 Zn236 1.985 . S
O249 C267 1.245 1_556 S
O250 Zn239 1.970 . S
O250 C267 1.263 . S
O251 Zn229 1.955 . S
O251 C270 1.276 1_565 S
C252 O242 1.245 1_554 S
C252 O243 1.263 . S
O253 Zn222 1.955 . S
O253 C272 1.276 . S
C254 O262 1.262 1_545 S
C254 O263 1.245 . S
O255 C226 1.276 1_655 S
O255 Zn232 1.955 . S
C256 O244 1.245 1_554 S
C256 O245 1.263 . S
O257 Zn236 1.955 . S
O257 C240 1.276 1_455 S
C258 O265 1.262 1_455 S
C258 O266 1.245 . S
O259 Zn223 1.945 . S
O259 C248 1.262 . S
O260 Zn239 1.981 . S
O260 C248 1.245 1_565 S
C261 O246 1.245 1_554 S
C261 O247 1.263 . S
O262 Zn228 1.945 . S
O262 C254 1.262 1_565 S
O263 Zn234 1.981 . S
O263 C254 1.245 . S
C264 O268 1.262 1_655 S
C264 O269 1.245 . S
O265 Zn234 1.945 . S
O265 C258 1.262 1_655 S
O266 Zn223 1.981 . S
O266 C258 1.245 . S
C267 O249 1.245 1_554 S
C267 O250 1.263 . S
O268 Zn239 1.945 . S
O268 C264 1.262 1_455 S
O269 Zn228 1.981 . S
O269 C264 1.245 . S
C270 O251 1.276 1_545 S
C270 O271 1.246 . S
O271 C270 1.246 . S
C272 O253 1.276 . S
C272 O273 1.246 1_545 S
O273 C272 1.246 1_565 S
H274 C275 0.951 1_655 S
C275 H274 0.951 1_455 S
C275 C281 1.265 . S
H276 C281 0.950 . S
H277 C285 0.949 . S
H278 C286 0.950 . S
H279 C287 0.951 . S
H280 C288 0.951 . S
C281 C275 1.265 . S
C281 H276 0.950 . S
C281 C282 1.478 . S
C282 C281 1.478 . S
C282 C283 1.397 . S
C282 C299 1.380 1_455 S
C283 C282 1.397 . S
C283 C284 1.438 . S
C283 C288 1.429 . S
C284 C283 1.438 . S
C284 C285 1.428 . S
C284 C297 1.394 . S
C285 H277 0.949 . S
C285 C284 1.428 . S
C285 C286 1.345 . S
C286 H278 0.950 . S
C286 C285 1.345 . S
C286 C287 1.424 . S
C287 H279 0.951 . S
C287 C286 1.424 . S
C287 C288 1.347 . S
C288 H280 0.951 . S
C288 C283 1.429 . S
C288 C287 1.347 . S
H289 C290 0.951 . S
C290 H289 0.951 . S
C290 C296 1.265 1_455 S
H291 C296 0.950 . S
H292 C300 0.949 . S
H293 C301 0.950 . S
H294 C302 0.951 . S
H295 C303 0.951 . S
C296 C290 1.265 1_655 S
C296 H291 0.950 . S
C296 C297 1.478 1_655 S
C297 C284 1.394 . S
C297 C296 1.478 1_455 S
C297 C298 1.397 1_455 S
C298 C297 1.397 1_655 S
C298 C299 1.443 . S
C298 C303 1.429 . S
C299 C282 1.380 1_655 S
C299 C298 1.443 . S
C299 C300 1.437 . S
C300 H292 0.949 . S
C300 C299 1.437 . S
C300 C301 1.345 . S
C301 H293 0.950 . S
C301 C300 1.345 . S
C301 C302 1.424 . S
C302 H294 0.951 . S
C302 C301 1.424 . S
C302 C303 1.347 . S
C303 H295 0.951 . S
C303 C298 1.429 . S
C303 C302 1.347 . S
H304 C305 0.951 . S
C305 H304 0.951 . S
C305 C311 1.265 . S
H306 C311 0.950 1_545 S
H307 C315 0.949 . S
H308 C316 0.950 . S
H309 C317 0.951 . S
H310 C318 0.951 . S
C311 C305 1.265 . S
C311 H306 0.950 1_565 S
C311 C312 1.479 . S
C312 C311 1.479 . S
C312 C313 1.377 1_565 S
C312 C329 1.413 . S
C313 C312 1.377 1_545 S
C313 C314 1.438 . S
C313 C318 1.429 . S
C314 C313 1.438 . S
C314 C315 1.428 . S
C314 C327 1.394 . S
C315 H307 0.949 . S
C315 C314 1.428 . S
C315 C316 1.345 . S
C316 H308 0.950 . S
C316 C315 1.345 . S
C316 C317 1.424 . S
C317 H309 0.951 . S
C317 C316 1.424 . S
C317 C318 1.347 . S
C318 H310 0.951 . S
C318 C313 1.429 . S
C318 C317 1.347 . S
H319 C320 0.951 . S
C320 H319 0.951 . S
C320 C326 1.265 . S
H321 C326 0.950 . S
H322 C330 0.949 . S
H323 C331 0.950 . S
H324 C332 0.951 . S
H325 C333 0.951 . S
C326 C320 1.265 . S
C326 H321 0.950 . S
C326 C327 1.478 . S
C327 C314 1.394 . S
C327 C326 1.478 . S
C327 C328 1.397 1_545 S
C328 C327 1.397 1_565 S
C328 C329 1.438 . S
C328 C333 1.429 . S
C329 C312 1.413 . S
C329 C328 1.438 . S
C329 C330 1.428 . S
C330 H322 0.949 . S
C330 C329 1.428 . S
C330 C331 1.345 . S
C331 H323 0.950 . S
C331 C330 1.345 . S
C331 C332 1.424 . S
C332 H324 0.951 . S
C332 C331 1.424 . S
C332 C333 1.347 . S
C333 H325 0.951 . S
C333 C328 1.429 . S
C333 C332 1.347 . S
H334 C335 0.951 . S
C335 H334 0.951 . S
C335 C341 1.265 1_655 S
H336 C341 0.950 . S
H337 C345 0.949 . S
H338 C346 0.950 . S
H339 C347 0.951 . S
H340 C348 0.951 . S
C341 C335 1.265 1_455 S
C341 H336 0.950 . S
C341 C342 1.478 1_455 S
C342 C341 1.478 1_655 S
C342 C343 1.397 . S
C342 C359 1.394 . S
C343 C342 1.397 . S
C343 C344 1.438 . S
C343 C348 1.429 1_655 S
C344 C343 1.438 . S
C344 C345 1.428 . S
C344 C357 1.394 . S
C345 H337 0.949 . S
C345 C344 1.428 . S
C345 C346 1.345 . S
C346 H338 0.950 . S
C346 C345 1.345 . S
C346 C347 1.424 1_655 S
C347 H339 0.951 . S
C347 C346 1.424 1_455 S
C347 C348 1.347 . S
C348 H340 0.951 . S
C348 C343 1.429 1_455 S
C348 C347 1.347 . S
H349 C350 0.951 1_455 S
C350 H349 0.951 1_655 S
C350 C356 1.265 . S
H351 C356 0.950 . S
H352 C360 0.949 . S
H353 C361 0.950 . S
H354 C362 0.951 . S
H355 C363 0.951 . S
C356 C350 1.265 . S
C356 H351 0.950 . S
C356 C357 1.478 . S
C357 C344 1.394 . S
C357 C356 1.478 . S
C357 C358 1.397 . S
C358 C357 1.397 . S
C358 C359 1.438 . S
C358 C363 1.429 . S
C359 C342 1.394 . S
C359 C358 1.438 . S
C359 C360 1.428 . S
C360 H352 0.949 . S
C360 C359 1.428 . S
C360 C361 1.345 . S
C361 H353 0.950 . S
C361 C360 1.345 . S
C361 C362 1.424 . S
C362 H354 0.951 . S
C362 C361 1.424 . S
C362 C363 1.347 . S
C363 H355 0.951 . S
C363 C358 1.429 . S
C363 C362 1.347 . S
H364 C365 0.951 . S
C365 H364 0.951 . S
C365 C371 1.265 . S
H366 C371 0.950 . S
H367 C375 0.949 . S
H368 C376 0.950 . S
H369 C377 0.951 . S
H370 C378 0.951 . S
C371 C365 1.265 . S
C371 H366 0.950 . S
C371 C372 1.478 . S
C372 C371 1.478 . S
C372 C373 1.397 1_545 S
C372 C389 1.394 . S
C373 C372 1.397 1_565 S
C373 C374 1.438 . S
C373 C378 1.429 . S
C374 C373 1.438 . S
C374 C375 1.428 . S
C374 C387 1.394 1_565 S
C375 H367 0.949 . S
C375 C374 1.428 . S
C375 C376 1.345 . S
C376 H368 0.950 . S
C376 C375 1.345 . S
C376 C377 1.424 . S
C377 H369 0.951 . S
C377 C376 1.424 . S
C377 C378 1.347 . S
C378 H370 0.951 . S
C378 C373 1.429 . S
C378 C377 1.347 . S
H379 C380 0.953 . S
C380 H379 0.953 . S
C380 C386 1.263 1_565 S
H381 C386 0.950 . S
H382 C390 0.949 . S
H383 C391 0.950 . S
H384 C392 0.951 . S
H385 C393 0.951 . S
C386 C380 1.263 1_545 S
C386 H381 0.950 . S
C386 C387 1.478 . S
C387 C374 1.394 1_545 S
C387 C386 1.478 . S
C387 C388 1.397 . S
C388 C387 1.397 . S
C388 C389 1.438 . S
C388 C393 1.429 . S
C389 C372 1.394 . S
C389 C388 1.438 . S
C389 C390 1.428 . S
C390 H382 0.949 . S
C390 C389 1.428 . S
C390 C391 1.345 . S
C391 H383 0.950 . S
C391 C390 1.345 . S
C391 C392 1.424 . S
C392 H384 0.951 . S
C392 C391 1.424 . S
C392 C393 1.347 . S
C393 H385 0.951 . S
C393 C388 1.429 . S
C393 C392 1.347 . S
H394 C395 0.951 . S
C395 H394 0.951 . S
C395 C401 1.265 1_455 S
H396 C401 0.950 . S
H397 C405 0.949 . S
H398 C406 0.950 . S
H399 C407 0.951 . S
H400 C408 0.951 . S
C401 C395 1.265 1_655 S
C401 H396 0.950 . S
C401 C402 1.478 . S
C402 C401 1.478 . S
C402 C403 1.397 . S
C402 C419 1.394 1_655 S
C403 C402 1.397 . S
C403 C404 1.438 . S
C403 C408 1.429 . S
C404 C403 1.438 . S
C404 C405 1.428 . S
C404 C417 1.394 1_655 S
C405 H397 0.949 . S
C405 C404 1.428 . S
C405 C406 1.345 . S
C406 H398 0.950 . S
C406 C405 1.345 . S
C406 C407 1.424 . S
C407 H399 0.951 . S
C407 C406 1.424 . S
C407 C408 1.347 . S
C408 H400 0.951 . S
C408 C403 1.429 . S
C408 C407 1.347 . S
H409 C410 0.951 . S
C410 H409 0.951 . S
C410 C416 1.265 1_655 S
H411 C416 0.950 . S
H412 C420 0.949 . S
H413 C421 0.950 . S
H414 C422 0.951 . S
H415 C423 0.951 . S
C416 C410 1.265 1_455 S
C416 H411 0.950 . S
C416 C417 1.478 . S
C417 C404 1.394 1_455 S
C417 C416 1.478 . S
C417 C418 1.397 . S
C418 C417 1.397 . S
C418 C419 1.438 . S
C418 C423 1.429 . S
C419 C402 1.394 1_455 S
C419 C418 1.438 . S
C419 C420 1.428 . S
C420 H412 0.949 . S
C420 C419 1.428 . S
C420 C421 1.345 . S
C421 H413 0.950 . S
C421 C420 1.345 . S
C421 C422 1.424 . S
C422 H414 0.951 . S
C422 C421 1.424 . S
C422 C423 1.347 . S
C423 H415 0.951 . S
C423 C418 1.429 . S
C423 C422 1.347 . S
H424 C425 0.951 . S
C425 H424 0.951 . S
C425 C431 1.265 . S
H426 C431 0.950 . S
H427 C435 0.949 . S
H428 C436 0.950 . S
H429 C437 0.951 . S
H430 C438 0.951 . S
C431 C425 1.265 . S
C431 H426 0.950 . S
C431 C432 1.478 . S
C432 C431 1.478 . S
C432 C433 1.397 . S
C432 C449 1.394 1_565 S
C433 C432 1.397 . S
C433 C434 1.438 . S
C433 C438 1.429 . S
C434 C433 1.438 . S
C434 C435 1.428 . S
C434 C447 1.394 . S
C435 H427 0.949 . S
C435 C434 1.428 . S
C435 C436 1.345 . S
C436 H428 0.950 . S
C436 C435 1.345 . S
C436 C437 1.424 . S
C437 H429 0.951 . S
C437 C436 1.424 . S
C437 C438 1.347 . S
C438 H430 0.951 . S
C438 C433 1.429 . S
C438 C437 1.347 . S
H439 C440 0.951 . S
C440 H439 0.951 . S
C440 C446 1.265 . S
H441 C446 0.950 1_545 S
H442 C450 0.949 . S
H443 C451 0.950 . S
H444 C452 0.951 . S
H445 C453 0.951 . S
C446 C440 1.265 . S
C446 H441 0.950 1_565 S
C446 C447 1.478 . S
C447 C434 1.394 . S
C447 C446 1.478 . S
C447 C448 1.397 1_565 S
C448 C447 1.397 1_545 S
C448 C449 1.438 . S
C448 C453 1.429 . S
C449 C432 1.394 1_545 S
C449 C448 1.438 . S
C449 C450 1.428 . S
C450 H442 0.949 . S
C450 C449 1.428 . S
C450 C451 1.345 . S
C451 H443 0.950 . S
C451 C450 1.345 . S
C451 C452 1.424 . S
C452 H444 0.951 . S
C452 C451 1.424 . S
C452 C453 1.347 . S
C453 H445 0.951 . S
C453 C448 1.429 . S
C453 C452 1.347 . S
H454 C455 0.951 1_455 S
C455 H454 0.951 1_655 S
C455 C461 1.265 . S
H456 C461 0.950 . S
H457 C465 0.949 . S
H458 C466 0.950 . S
H459 C467 0.951 . S
H460 C468 0.951 . S
C461 C455 1.265 . S
C461 H456 0.950 . S
C461 C462 1.478 . S
C462 C461 1.478 . S
C462 C463 1.397 . S
C462 C479 1.394 1_655 S
C463 C462 1.397 . S
C463 C464 1.438 . S
C463 C468 1.429 . S
C464 C463 1.438 . S
C464 C465 1.428 . S
C464 C477 1.394 1_655 S
C465 H457 0.949 . S
C465 C464 1.428 . S
C465 C466 1.345 . S
C466 H458 0.950 . S
C466 C465 1.345 . S
C466 C467 1.424 . S
C467 H459 0.951 . S
C467 C466 1.424 . S
C467 C468 1.347 . S
C468 H460 0.951 . S
C468 C463 1.429 . S
C468 C467 1.347 . S
H469 C470 0.951 1_655 S
C470 H469 0.951 1_455 S
C470 C476 1.265 . S
H471 C476 0.950 . S
H472 C480 0.949 . S
H473 C481 0.950 . S
H474 C482 0.951 . S
H475 C483 0.951 . S
C476 C470 1.265 . S
C476 H471 0.950 . S
C476 C477 1.478 . S
C477 C464 1.394 1_455 S
C477 C476 1.478 . S
C477 C478 1.397 . S
C478 C477 1.397 . S
C478 C479 1.438 . S
C478 C483 1.429 . S
C479 C462 1.394 1_455 S
C479 C478 1.438 . S
C479 C480 1.428 . S
C480 H472 0.949 . S
C480 C479 1.428 . S
C480 C481 1.345 . S
C481 H473 0.950 . S
C481 C480 1.345 . S
C481 C482 1.424 . S
C482 H474 0.951 . S
C482 C481 1.424 . S
C482 C483 1.347 . S
C483 H475 0.951 . S
C483 C478 1.429 . S
C483 C482 1.347 . S
H484 C485 0.951 . S
C485 H484 0.951 . S
C485 C491 1.265 . S
H486 C491 0.950 . S
H487 C495 0.949 . S
H488 C496 0.950 . S
H489 C497 0.951 . S
H490 C498 0.951 . S
C491 C485 1.265 . S
C491 H486 0.950 . S
C491 C492 1.478 . S
C492 C491 1.478 . S
C492 C493 1.397 1_545 S
C492 C509 1.394 . S
C493 C492 1.397 1_565 S
C493 C494 1.438 . S
C493 C498 1.429 . S
C494 C493 1.438 . S
C494 C495 1.428 . S
C494 C507 1.394 1_565 S
C495 H487 0.949 . S
C495 C494 1.428 . S
C495 C496 1.345 . S
C496 H488 0.950 . S
C496 C495 1.345 . S
C496 C497 1.424 . S
C497 H489 0.951 . S
C497 C496 1.424 . S
C497 C498 1.347 . S
C498 H490 0.951 . S
C498 C493 1.429 . S
C498 C497 1.347 . S
H499 C500 0.951 . S
C500 H499 0.951 . S
C500 C506 1.265 . S
H501 C506 0.950 . S
H502 C510 0.949 . S
H503 C511 0.950 . S
H504 C512 0.951 . S
H505 C513 0.951 . S
C506 C500 1.265 . S
C506 H501 0.950 . S
C506 C507 1.478 . S
C507 C494 1.394 1_545 S
C507 C506 1.478 . S
C507 C508 1.397 . S
C508 C507 1.397 . S
C508 C509 1.438 . S
C508 C513 1.429 . S
C509 C492 1.394 . S
C509 C508 1.438 . S
C509 C510 1.428 . S
C510 H502 0.949 . S
C510 C509 1.428 . S
C510 C511 1.345 . S
C511 H503 0.950 . S
C511 C510 1.345 . S
C511 C512 1.424 . S
C512 H504 0.951 . S
C512 C511 1.424 . S
C512 C513 1.347 . S
C513 H505 0.951 . S
C513 C508 1.429 . S
C513 C512 1.347 . S
H514 C515 0.951 . S
C515 H514 0.951 . S
C515 C521 1.265 1_556 S
H516 C521 0.950 . S
H517 C525 0.949 . S
H518 C526 0.950 . S
H519 C527 0.951 . S
H520 C528 0.951 . S
C521 C515 1.265 1_554 S
C521 H516 0.950 . S
C521 C522 1.478 . S
C522 C521 1.478 . S
C522 C523 1.397 . S
C522 C539 1.394 1_554 S
C523 C522 1.397 . S
C523 C524 1.438 . S
C523 C528 1.429 . S
C524 C523 1.438 . S
C524 C525 1.428 . S
C524 C537 1.394 . S
C525 H517 0.949 . S
C525 C524 1.428 . S
C525 C526 1.345 . S
C526 H518 0.950 . S
C526 C525 1.345 . S
C526 C527 1.424 . S
C527 H519 0.951 . S
C527 C526 1.424 . S
C527 C528 1.347 . S
C528 H520 0.951 . S
C528 C523 1.429 . S
C528 C527 1.347 . S
H529 C530 0.951 . S
C530 H529 0.951 . S
C530 C536 1.265 . S
H531 C536 0.950 . S
H532 C540 0.949 . S
H533 C541 0.950 . S
H534 C542 0.951 . S
H535 C543 0.951 . S
C536 C530 1.265 . S
C536 H531 0.950 . S
C536 C537 1.478 . S
C537 C524 1.394 . S
C537 C536 1.478 . S
C537 C538 1.397 1_554 S
C538 C537 1.397 1_556 S
C538 C539 1.438 . S
C538 C543 1.429 . S
C539 C522 1.394 1_556 S
C539 C538 1.438 . S
C539 C540 1.428 . S
C540 H532 0.949 . S
C540 C539 1.428 . S
C540 C541 1.345 . S
C541 H533 0.950 . S
C541 C540 1.345 . S
C541 C542 1.424 . S
C542 H534 0.951 . S
C542 C541 1.424 . S
C542 C543 1.347 . S
C543 H535 0.951 . S
C543 C538 1.429 . S
C543 C542 1.347 . S
H544 C545 0.951 . S
C545 H544 0.951 . S
C545 C551 1.265 . S
H546 C551 0.950 . S
H547 C555 0.949 . S
H548 C556 0.950 . S
H549 C557 0.951 . S
H550 C558 0.951 . S
C551 C545 1.265 . S
C551 H546 0.950 . S
C551 C552 1.478 . S
C552 C551 1.478 . S
C552 C553 1.397 . S
C552 C569 1.394 1_554 S
C553 C552 1.397 . S
C553 C554 1.438 . S
C553 C558 1.429 . S
C554 C553 1.438 . S
C554 C555 1.428 . S
C554 C567 1.394 . S
C555 H547 0.949 . S
C555 C554 1.428 . S
C555 C556 1.345 . S
C556 H548 0.950 . S
C556 C555 1.345 . S
C556 C557 1.424 . S
C557 H549 0.951 . S
C557 C556 1.424 . S
C557 C558 1.347 . S
C558 H550 0.951 . S
C558 C553 1.429 . S
C558 C557 1.347 . S
H559 C560 0.951 . S
C560 H559 0.951 . S
C560 C566 1.265 1_554 S
H561 C566 0.950 . S
H562 C570 0.949 . S
H563 C571 0.950 . S
H564 C572 0.951 . S
H565 C573 0.951 . S
C566 C560 1.265 1_556 S
C566 H561 0.950 . S
C566 C567 1.478 1_556 S
C567 C554 1.394 . S
C567 C566 1.478 1_554 S
C567 C568 1.397 1_554 S
C568 C567 1.397 1_556 S
C568 C569 1.438 . S
C568 C573 1.429 . S
C569 C552 1.394 1_556 S
C569 C568 1.438 . S
C569 C570 1.428 . S
C570 H562 0.949 . S
C570 C569 1.428 . S
C570 C571 1.345 . S
C571 H563 0.950 . S
C571 C570 1.345 . S
C571 C572 1.424 . S
C572 H564 0.951 . S
C572 C571 1.424 . S
C572 C573 1.347 . S
C573 H565 0.951 . S
C573 C568 1.429 . S
C573 C572 1.347 . S
H574 C575 0.951 . S
C575 H574 0.951 . S
C575 C581 1.265 . S
H576 C581 0.950 . S
H577 C585 0.949 . S
H578 C586 0.950 . S
H579 C587 0.951 . S
H580 C588 0.951 . S
C581 C575 1.265 . S
C581 H576 0.950 . S
C581 C582 1.478 . S
C582 C581 1.478 . S
C582 C583 1.397 . S
C582 C599 1.394 1_554 S
C583 C582 1.397 . S
C583 C584 1.438 . S
C583 C588 1.429 . S
C584 C583 1.438 . S
C584 C585 1.428 . S
C584 C597 1.394 . S
C585 H577 0.949 . S
C585 C584 1.428 . S
C585 C586 1.345 . S
C586 H578 0.950 . S
C586 C585 1.345 . S
C586 C587 1.424 . S
C587 H579 0.951 . S
C587 C586 1.424 . S
C587 C588 1.347 . S
C588 H580 0.951 . S
C588 C583 1.429 . S
C588 C587 1.347 . S
H589 C590 0.951 . S
C590 H589 0.951 . S
C590 C596 1.265 . S
H591 C596 0.950 1_556 S
H592 C600 0.949 . S
H593 C601 0.950 . S
H594 C602 0.951 . S
H595 C603 0.951 . S
C596 C590 1.265 . S
C596 H591 0.950 1_554 S
C596 C597 1.478 . S
C597 C584 1.394 . S
C597 C596 1.478 . S
C597 C598 1.397 1_554 S
C598 C597 1.397 1_556 S
C598 C599 1.438 . S
C598 C603 1.429 . S
C599 C582 1.394 1_556 S
C599 C598 1.438 . S
C599 C600 1.428 . S
C600 H592 0.949 . S
C600 C599 1.428 . S
C600 C601 1.345 . S
C601 H593 0.950 . S
C601 C600 1.345 . S
C601 C602 1.424 . S
C602 H594 0.951 . S
C602 C601 1.424 . S
C602 C603 1.347 . S
C603 H595 0.951 . S
C603 C598 1.429 . S
C603 C602 1.347 . S
H604 C605 0.951 1_554 S
C605 H604 0.951 1_556 S
C605 C611 1.265 . S
H606 C611 0.950 . S
H607 C615 0.949 . S
H608 C616 0.950 . S
H609 C617 0.951 . S
H610 C618 0.951 . S
C611 C605 1.265 . S
C611 H606 0.950 . S
C611 C612 1.478 . S
C612 C611 1.478 . S
C612 C613 1.397 . S
C612 C629 1.394 1_556 S
C613 C612 1.397 . S
C613 C614 1.438 . S
C613 C618 1.429 . S
C614 C613 1.438 . S
C614 C615 1.428 . S
C614 C627 1.394 1_556 S
C615 H607 0.949 . S
C615 C614 1.428 . S
C615 C616 1.345 . S
C616 H608 0.950 . S
C616 C615 1.345 . S
C616 C617 1.424 . S
C617 H609 0.951 . S
C617 C616 1.424 . S
C617 C618 1.347 . S
C618 H610 0.951 . S
C618 C613 1.429 . S
C618 C617 1.347 . S
H619 C620 0.951 1_556 S
C620 H619 0.951 1_554 S
C620 C626 1.265 . S
H621 C626 0.950 . S
H622 C630 0.949 . S
H623 C631 0.950 . S
H624 C632 0.951 . S
H625 C633 0.951 . S
C626 C620 1.265 . S
C626 H621 0.950 . S
C626 C627 1.478 . S
C627 C614 1.394 1_554 S
C627 C626 1.478 . S
C627 C628 1.397 . S
C628 C627 1.397 . S
C628 C629 1.438 . S
C628 C633 1.429 . S
C629 C612 1.394 1_554 S
C629 C628 1.438 . S
C629 C630 1.428 . S
C630 H622 0.949 . S
C630 C629 1.428 . S
C630 C631 1.345 . S
C631 H623 0.950 . S
C631 C630 1.345 . S
C631 C632 1.424 . S
C632 H624 0.951 . S
C632 C631 1.424 . S
C632 C633 1.347 . S
C633 H625 0.951 . S
C633 C628 1.429 . S
C633 C632 1.347 . S
C290 C258 1.731 . S
C275 C39 1.697 . S
C320 C254 1.873 . S
C305 C113 1.877 . S
C350 C264 2.114 . S
C335 C69 2.253 . S
C380 C248 0.909 1_565 S
C365 C125 1.000 . S
C395 C63 1.886 . S
C410 C240 1.955 . S
C440 C272 1.842 1_565 S
C425 C137 1.878 . S
C455 C51 1.095 . S
C470 C226 0.966 . S
C485 C143 2.382 . S
C500 C270 2.245 . S
C515 C187 1.129 . S
C530 C252 1.074 . S
C545 C217 1.565 . S
C560 C267 1.516 . S
C590 C261 0.255 . S
C575 C199 0.263 . S
C620 C256 1.242 . S
C605 C211 1.217 . S
