# Generated by pormake.
# Topology llk, (3,12)-cn, num edge types: 1
# Building blocks:
#     Node 0, Type 0, BuildingBlock: CUQRIR_clean_linker_1, # of connection points: 3
#     Node 1, Type 0, BuildingBlock: CUQRIR_clean_linker_1, # of connection points: 3
#     Node 2, Type 0, BuildingBlock: CUQRIR_clean_linker_1, # of connection points: 3
#     Node 3, Type 0, BuildingBlock: CUQRIR_clean_linker_1, # of connection points: 3
#     Node 4, Type 0, BuildingBlock: CUQRIR_clean_linker_1, # of connection points: 3
#     Node 5, Type 0, BuildingBlock: CUQRIR_clean_linker_1, # of connection points: 3
#     Node 6, Type 0, BuildingBlock: CUQRIR_clean_linker_1, # of connection points: 3
#     Node 7, Type 0, BuildingBlock: CUQRIR_clean_linker_1, # of connection points: 3
#     Node 8, Type 0, BuildingBlock: CUQRIR_clean_linker_1, # of connection points: 3
#     Node 9, Type 0, BuildingBlock: CUQRIR_clean_linker_1, # of connection points: 3
#     Node 10, Type 0, BuildingBlock: CUQRIR_clean_linker_1, # of connection points: 3
#     Node 11, Type 0, BuildingBlock: CUQRIR_clean_linker_1, # of connection points: 3
#     Node 12, Type 0, BuildingBlock: CUQRIR_clean_linker_1, # of connection points: 3
#     Node 13, Type 0, BuildingBlock: CUQRIR_clean_linker_1, # of connection points: 3
#     Node 14, Type 0, BuildingBlock: CUQRIR_clean_linker_1, # of connection points: 3
#     Node 15, Type 0, BuildingBlock: CUQRIR_clean_linker_1, # of connection points: 3
#     Node 16, Type 0, BuildingBlock: CUQRIR_clean_linker_1, # of connection points: 3
#     Node 17, Type 0, BuildingBlock: CUQRIR_clean_linker_1, # of connection points: 3
#     Node 18, Type 0, BuildingBlock: CUQRIR_clean_linker_1, # of connection points: 3
#     Node 19, Type 0, BuildingBlock: CUQRIR_clean_linker_1, # of connection points: 3
#     Node 20, Type 0, BuildingBlock: CUQRIR_clean_linker_1, # of connection points: 3
#     Node 21, Type 0, BuildingBlock: CUQRIR_clean_linker_1, # of connection points: 3
#     Node 22, Type 0, BuildingBlock: CUQRIR_clean_linker_1, # of connection points: 3
#     Node 23, Type 0, BuildingBlock: CUQRIR_clean_linker_1, # of connection points: 3
#     Node 24, Type 1, BuildingBlock: EZIPEK_clean_sbu_0, # of connection points: 12
#     Node 25, Type 1, BuildingBlock: EZIPEK_clean_sbu_0, # of connection points: 12
#     Node 26, Type 1, BuildingBlock: EZIPEK_clean_sbu_0, # of connection points: 12
#     Node 27, Type 1, BuildingBlock: EZIPEK_clean_sbu_0, # of connection points: 12
#     Node 28, Type 1, BuildingBlock: EZIPEK_clean_sbu_0, # of connection points: 12
#     Node 29, Type 1, BuildingBlock: EZIPEK_clean_sbu_0, # of connection points: 12
#     Edge 30, Type (0, 1), BuildingBlock: AJUNOK_clean_linker_0, # of connection points: 2
#     Edge 31, Type (0, 1), BuildingBlock: AJUNOK_clean_linker_0, # of connection points: 2
#     Edge 32, Type (0, 1), BuildingBlock: AJUNOK_clean_linker_0, # of connection points: 2
#     Edge 33, Type (0, 1), BuildingBlock: AJUNOK_clean_linker_0, # of connection points: 2
#     Edge 34, Type (0, 1), BuildingBlock: AJUNOK_clean_linker_0, # of connection points: 2
#     Edge 35, Type (0, 1), BuildingBlock: AJUNOK_clean_linker_0, # of connection points: 2
#     Edge 36, Type (0, 1), BuildingBlock: AJUNOK_clean_linker_0, # of connection points: 2
#     Edge 37, Type (0, 1), BuildingBlock: AJUNOK_clean_linker_0, # of connection points: 2
#     Edge 38, Type (0, 1), BuildingBlock: AJUNOK_clean_linker_0, # of connection points: 2
#     Edge 39, Type (0, 1), BuildingBlock: AJUNOK_clean_linker_0, # of connection points: 2
#     Edge 40, Type (0, 1), BuildingBlock: AJUNOK_clean_linker_0, # of connection points: 2
#     Edge 41, Type (0, 1), BuildingBlock: AJUNOK_clean_linker_0, # of connection points: 2
#     Edge 42, Type (0, 1), BuildingBlock: AJUNOK_clean_linker_0, # of connection points: 2
#     Edge 43, Type (0, 1), BuildingBlock: AJUNOK_clean_linker_0, # of connection points: 2
#     Edge 44, Type (0, 1), BuildingBlock: AJUNOK_clean_linker_0, # of connection points: 2
#     Edge 45, Type (0, 1), BuildingBlock: AJUNOK_clean_linker_0, # of connection points: 2
#     Edge 46, Type (0, 1), BuildingBlock: AJUNOK_clean_linker_0, # of connection points: 2
#     Edge 47, Type (0, 1), BuildingBlock: AJUNOK_clean_linker_0, # of connection points: 2
#     Edge 48, Type (0, 1), BuildingBlock: AJUNOK_clean_linker_0, # of connection points: 2
#     Edge 49, Type (0, 1), BuildingBlock: AJUNOK_clean_linker_0, # of connection points: 2
#     Edge 50, Type (0, 1), BuildingBlock: AJUNOK_clean_linker_0, # of connection points: 2
#     Edge 51, Type (0, 1), BuildingBlock: AJUNOK_clean_linker_0, # of connection points: 2
#     Edge 52, Type (0, 1), BuildingBlock: AJUNOK_clean_linker_0, # of connection points: 2
#     Edge 53, Type (0, 1), BuildingBlock: AJUNOK_clean_linker_0, # of connection points: 2
#     Edge 54, Type (0, 1), BuildingBlock: AJUNOK_clean_linker_0, # of connection points: 2
#     Edge 55, Type (0, 1), BuildingBlock: AJUNOK_clean_linker_0, # of connection points: 2
#     Edge 56, Type (0, 1), BuildingBlock: AJUNOK_clean_linker_0, # of connection points: 2
#     Edge 57, Type (0, 1), BuildingBlock: AJUNOK_clean_linker_0, # of connection points: 2
#     Edge 58, Type (0, 1), BuildingBlock: AJUNOK_clean_linker_0, # of connection points: 2
#     Edge 59, Type (0, 1), BuildingBlock: AJUNOK_clean_linker_0, # of connection points: 2
#     Edge 60, Type (0, 1), BuildingBlock: AJUNOK_clean_linker_0, # of connection points: 2
#     Edge 61, Type (0, 1), BuildingBlock: AJUNOK_clean_linker_0, # of connection points: 2
#     Edge 62, Type (0, 1), BuildingBlock: AJUNOK_clean_linker_0, # of connection points: 2
#     Edge 63, Type (0, 1), BuildingBlock: AJUNOK_clean_linker_0, # of connection points: 2
#     Edge 64, Type (0, 1), BuildingBlock: AJUNOK_clean_linker_0, # of connection points: 2
#     Edge 65, Type (0, 1), BuildingBlock: AJUNOK_clean_linker_0, # of connection points: 2
#     Edge 66, Type (0, 1), BuildingBlock: AJUNOK_clean_linker_0, # of connection points: 2
#     Edge 67, Type (0, 1), BuildingBlock: AJUNOK_clean_linker_0, # of connection points: 2
#     Edge 68, Type (0, 1), BuildingBlock: AJUNOK_clean_linker_0, # of connection points: 2
#     Edge 69, Type (0, 1), BuildingBlock: AJUNOK_clean_linker_0, # of connection points: 2
#     Edge 70, Type (0, 1), BuildingBlock: AJUNOK_clean_linker_0, # of connection points: 2
#     Edge 71, Type (0, 1), BuildingBlock: AJUNOK_clean_linker_0, # of connection points: 2
#     Edge 72, Type (0, 1), BuildingBlock: AJUNOK_clean_linker_0, # of connection points: 2
#     Edge 73, Type (0, 1), BuildingBlock: AJUNOK_clean_linker_0, # of connection points: 2
#     Edge 74, Type (0, 1), BuildingBlock: AJUNOK_clean_linker_0, # of connection points: 2
#     Edge 75, Type (0, 1), BuildingBlock: AJUNOK_clean_linker_0, # of connection points: 2
#     Edge 76, Type (0, 1), BuildingBlock: AJUNOK_clean_linker_0, # of connection points: 2
#     Edge 77, Type (0, 1), BuildingBlock: AJUNOK_clean_linker_0, # of connection points: 2
#     Edge 78, Type (0, 1), BuildingBlock: AJUNOK_clean_linker_0, # of connection points: 2
#     Edge 79, Type (0, 1), BuildingBlock: AJUNOK_clean_linker_0, # of connection points: 2
#     Edge 80, Type (0, 1), BuildingBlock: AJUNOK_clean_linker_0, # of connection points: 2
#     Edge 81, Type (0, 1), BuildingBlock: AJUNOK_clean_linker_0, # of connection points: 2
#     Edge 82, Type (0, 1), BuildingBlock: AJUNOK_clean_linker_0, # of connection points: 2
#     Edge 83, Type (0, 1), BuildingBlock: AJUNOK_clean_linker_0, # of connection points: 2
#     Edge 84, Type (0, 1), BuildingBlock: AJUNOK_clean_linker_0, # of connection points: 2
#     Edge 85, Type (0, 1), BuildingBlock: AJUNOK_clean_linker_0, # of connection points: 2
#     Edge 86, Type (0, 1), BuildingBlock: AJUNOK_clean_linker_0, # of connection points: 2
#     Edge 87, Type (0, 1), BuildingBlock: AJUNOK_clean_linker_0, # of connection points: 2
#     Edge 88, Type (0, 1), BuildingBlock: AJUNOK_clean_linker_0, # of connection points: 2
#     Edge 89, Type (0, 1), BuildingBlock: AJUNOK_clean_linker_0, # of connection points: 2
#     Edge 90, Type (0, 1), BuildingBlock: AJUNOK_clean_linker_0, # of connection points: 2
#     Edge 91, Type (0, 1), BuildingBlock: AJUNOK_clean_linker_0, # of connection points: 2
#     Edge 92, Type (0, 1), BuildingBlock: AJUNOK_clean_linker_0, # of connection points: 2
#     Edge 93, Type (0, 1), BuildingBlock: AJUNOK_clean_linker_0, # of connection points: 2
#     Edge 94, Type (0, 1), BuildingBlock: AJUNOK_clean_linker_0, # of connection points: 2
#     Edge 95, Type (0, 1), BuildingBlock: AJUNOK_clean_linker_0, # of connection points: 2
#     Edge 96, Type (0, 1), BuildingBlock: AJUNOK_clean_linker_0, # of connection points: 2
#     Edge 97, Type (0, 1), BuildingBlock: AJUNOK_clean_linker_0, # of connection points: 2
#     Edge 98, Type (0, 1), BuildingBlock: AJUNOK_clean_linker_0, # of connection points: 2
#     Edge 99, Type (0, 1), BuildingBlock: AJUNOK_clean_linker_0, # of connection points: 2
#     Edge 100, Type (0, 1), BuildingBlock: AJUNOK_clean_linker_0, # of connection points: 2
#     Edge 101, Type (0, 1), BuildingBlock: AJUNOK_clean_linker_0, # of connection points: 2
# Relax obj value: 0.090
# Max RMSD: 0.208
# Mean RMSD: 0.156
data_MOF--net-llk--node1-EZIPEK_clean_sbu_0--node2-CUQRIR_clean_linker_1--edge1-AJUNOK_clean_linker_0
_symmetry_space_group_name_H-M    P1
_symmetry_Int_Tables_number       1
_symmetry_cell_setting            triclinic
loop_
_symmetry_equiv_pos_as_xyz
'x, y, z'
_cell_length_a     32.852519
_cell_length_b     32.27629
_cell_length_c     31.796581
_cell_angle_alpha  89.95852
_cell_angle_beta   90.017831
_cell_angle_gamma 90.054026
loop_
_atom_site_label
_atom_site_type_symbol
_atom_site_fract_x
_atom_site_fract_y
_atom_site_fract_z
_atom_type_partial_charge
C0 C 0.04079 0.25028 0.24359 0.0
N1 N 0.03674 0.29214 0.24216 0.0
N2 N 0.03447 0.2363 0.28335 0.0
C3 C 0.05307 0.22353 0.20725 0.0
C4 C 0.02604 0.27077 0.30558 0.0
N5 N 0.02757 0.30442 0.28073 0.0
C6 C 0.01979 0.27201 0.35255 0.0
H7 H 0.02546 0.20859 0.19405 0.0
H8 H 0.07392 0.19865 0.21803 0.0
H9 H 0.0679 0.24215 0.1822 0.0
H10 H 0.04965 0.27683 0.36815 0.0
H11 H 1.00655 0.24251 0.36418 0.0
H12 H 0.99952 0.29805 0.36142 0.0
C13 C 0.79467 1.01384 0.24721 0.0
N14 N 0.75392 1.00576 0.24622 0.0
N15 N 0.81254 0.99595 0.28142 0.0
C16 C 0.81626 0.04139 0.21653 0.0
C17 C 0.7815 0.97533 0.29963 0.0
N18 N 0.74573 0.98324 0.28024 0.0
C19 C 0.78495 0.9528 0.34112 0.0
H20 H 0.82519 0.02273 0.18873 0.0
H21 H 0.84418 0.05482 0.23069 0.0
H22 H 0.79566 0.06645 0.20566 0.0
H23 H 0.77945 0.97484 0.36728 0.0
H24 H 0.81578 0.93929 0.34501 0.0
H25 H 0.76181 0.9278 0.34309 0.0
C26 C 0.03856 0.77717 0.2454 0.0
N27 N 0.04781 0.77996 0.28688 0.0
N28 N 0.04708 0.73863 0.23099 0.0
C29 C 0.02002 0.81099 0.2194 0.0
C30 C 0.06155 0.7183 0.26493 0.0
N31 N 0.06225 0.74345 0.29876 0.0
C32 C 0.06907 0.67214 0.26678 0.0
H33 H 0.98651 0.80675 0.21881 0.0
H34 H 0.03126 0.80915 0.18654 0.0
H35 H 0.02701 0.8419 0.23286 0.0
H36 H 0.06513 0.65675 0.23593 0.0
H37 H 0.04783 0.65771 0.28965 0.0
H38 H 0.10048 0.66625 0.27804 0.0
C39 C 0.26969 1.00473 0.24343 0.0
N40 N 0.31054 1.01115 0.24358 0.0
N41 N 0.2507 0.02984 0.27137 0.0
C42 C 0.24841 0.97205 0.21814 0.0
C43 C 0.28149 0.05315 0.2865 0.0
N44 N 0.31809 0.03928 0.27302 0.0
C45 C 0.27635 0.08466 0.32115 0.0
H46 H 0.22356 0.98657 0.19966 0.0
H47 H 0.23423 0.94921 0.23974 0.0
H48 H 0.26974 0.95575 0.19676 0.0
H49 H 0.26859 0.06888 0.35111 0.0
H50 H 0.2508 0.10577 0.31332 0.0
H51 H 0.30465 0.10301 0.32554 0.0
C52 C 0.022 0.77835 0.77542 0.0
N53 N 0.01797 0.7366 0.77628 0.0
N54 N 1.00846 0.79371 0.73823 0.0
C55 C 0.04334 0.80324 0.80852 0.0
C56 C 0.99543 0.75982 0.71728 0.0
N57 N 1.00192 0.72506 0.73989 0.0
C58 C 0.98287 0.75997 0.67165 0.0
H59 H 0.03309 0.79335 0.84023 0.0
H60 H 0.03763 0.83686 0.80419 0.0
H61 H 0.07655 0.79732 0.80638 0.0
H62 H 1.01052 0.76025 0.6516 0.0
H63 H 0.96483 0.78812 0.66434 0.0
H64 H 0.96469 0.73197 0.66398 0.0
C65 C 0.26951 0.01837 0.77583 0.0
N66 N 0.31017 0.02626 0.77608 0.0
N67 N 0.25152 0.03608 0.74183 0.0
C68 C 0.24792 0.99074 0.80653 0.0
C69 C 0.28246 0.05577 0.72245 0.0
N70 N 0.31827 0.04796 0.74161 0.0
C71 C 0.27893 0.07564 0.67959 0.0
H72 H 0.22823 0.96843 0.78947 0.0
H73 H 0.22787 1.00996 0.82669 0.0
H74 H 0.26982 0.97363 0.82664 0.0
H75 H 0.25083 0.09437 0.67791 0.0
H76 H 0.27717 0.05118 0.65513 0.0
H77 H 0.30541 0.09594 0.67285 0.0
C78 C 0.02923 0.25059 0.76986 0.0
N79 N 0.02501 0.2474 0.72764 0.0
N80 N 1.00927 0.28442 0.78439 0.0
C81 C 0.05675 0.2237 0.79572 0.0
C82 C 0.99128 0.29999 0.74959 0.0
N83 N 1.00227 0.27885 0.71478 0.0
C84 C 0.96842 0.34048 0.74851 0.0
H85 H 0.04967 0.1906 0.78975 0.0
H86 H 0.05356 0.23044 0.82977 0.0
H87 H 0.08873 0.22913 0.78593 0.0
H88 H 0.99 0.36626 0.74244 0.0
H89 H 0.953 0.3462 0.77902 0.0
H90 H 0.94562 0.34016 0.72273 0.0
C91 C 0.79516 0.01738 0.77066 0.0
N92 N 0.75454 0.02613 0.77338 0.0
N93 N 0.81206 0.03548 0.736 0.0
C94 C 0.81737 0.98801 0.79903 0.0
C95 C 0.78068 0.05688 0.71948 0.0
N96 N 0.74541 0.04855 0.73961 0.0
C97 C 0.7831 0.0813 0.67906 0.0
H98 H 0.83961 1.00573 0.81818 0.0
H99 H 0.8348 0.96537 0.77993 0.0
H100 H 0.79607 0.97131 0.82018 0.0
H101 H 0.77743 0.06055 0.65188 0.0
H102 H 0.81375 0.09536 0.67537 0.0
H103 H 0.75955 0.10594 0.67876 0.0
C104 C 0.27312 0.25486 0.01291 0.0
N105 N 0.31385 0.25293 0.02185 0.0
N106 N 0.25554 0.28916 0.03041 0.0
C107 C 0.25118 0.2248 0.9851 0.0
C108 C 0.28668 0.30673 0.05146 0.0
N109 N 0.32222 0.28664 0.04452 0.0
C110 C 0.28365 0.34803 0.07356 0.0
H111 H 0.27219 0.21202 0.96106 0.0
H112 H 0.22471 0.23978 0.96965 0.0
H113 H 0.23981 0.19875 1.00463 0.0
H114 H 0.25252 0.35305 0.08609 0.0
H115 H 0.29072 0.37328 0.05099 0.0
H116 H 0.30581 0.34967 0.09982 0.0
C117 C 0.27056 0.77413 0.99616 0.0
N118 N 0.31224 0.77586 0.9921 0.0
N119 N 0.25617 0.73507 0.98833 0.0
C120 C 0.24335 0.81019 1.00553 0.0
C121 C 0.28987 0.7137 0.97834 0.0
N122 N 0.32345 0.73765 0.98131 0.0
C123 C 0.29046 0.66764 0.96963 0.0
H124 H 0.23823 0.81195 0.03997 0.0
H125 H 0.21326 0.80576 0.99029 0.0
H126 H 0.25712 0.83962 0.99443 0.0
H127 H 0.26057 0.65652 0.95795 0.0
H128 H 0.29788 0.65084 0.99912 0.0
H129 H 0.31394 0.65992 0.94589 0.0
C130 C 0.74244 0.26804 0.0652 0.0
N131 N 0.76438 0.30265 0.05735 0.0
N132 N 0.75868 0.23464 0.04613 0.0
C133 C 0.70082 0.26816 0.08541 0.0
C134 C 0.79374 0.24969 0.02901 0.0
N135 N 0.79762 0.29112 0.03665 0.0
C136 C 0.82291 0.22411 1.00385 0.0
H137 H 0.69236 0.23682 0.09683 0.0
H138 H 0.6778 0.27846 0.06208 0.0
H139 H 0.70023 0.28998 0.11233 0.0
H140 H 0.81379 0.22518 0.97027 0.0
H141 H 0.82187 0.19132 0.01435 0.0
H142 H 0.85436 0.23634 1.00678 0.0
C143 C 0.74403 0.76097 0.96541 0.0
N144 N 0.76474 0.72579 0.97409 0.0
N145 N 0.75934 0.79358 0.98664 0.0
C146 C 0.70377 0.76199 0.94237 0.0
C147 C 0.79278 0.77752 1.00602 0.0
N148 N 0.79657 0.73624 0.99767 0.0
C149 C 0.81887 0.80114 0.03634 0.0
H150 H 0.7043 0.74037 0.91529 0.0
H151 H 0.69683 0.79359 0.93065 0.0
H152 H 0.67906 0.7522 0.96402 0.0
H153 H 0.83982 0.78028 0.05368 0.0
H154 H 0.79933 0.81809 0.05899 0.0
H155 H 0.83685 0.82451 0.01871 0.0
C156 C 0.54649 0.74975 0.74176 0.0
N157 N 0.55007 0.79184 0.74189 0.0
N158 N 0.55434 0.73411 0.78069 0.0
C159 C 0.53609 0.72376 0.70424 0.0
C160 C 0.56247 0.76782 0.80426 0.0
N161 N 0.56018 0.80244 0.78079 0.0
C162 C 0.5681 0.76772 0.85144 0.0
H163 H 0.50307 0.71655 0.70487 0.0
H164 H 0.55287 0.69395 0.70558 0.0
H165 H 0.5434 0.74025 0.67455 0.0
H166 H 0.59931 0.77858 0.85897 0.0
H167 H 0.5636 0.73676 0.86575 0.0
H168 H 0.54641 0.7897 0.86619 0.0
C169 C 0.29433 0.50395 0.74739 0.0
N170 N 0.25387 0.51382 0.74497 0.0
N171 N 0.31046 0.51672 0.78473 0.0
C172 C 0.31841 0.4825 0.71386 0.0
C173 C 0.27908 0.53559 0.80402 0.0
N174 N 0.24468 0.5327 0.78092 0.0
C175 C 0.28113 0.55323 0.84807 0.0
H176 H 0.31788 0.44864 0.71983 0.0
H177 H 0.35063 0.4928 0.71479 0.0
H178 H 0.30543 0.48874 0.68227 0.0
H179 H 0.3129 0.5576 0.85898 0.0
H180 H 0.26508 0.53216 0.87015 0.0
H181 H 0.26601 0.58387 0.84914 0.0
C182 C 0.52307 0.28068 0.74436 0.0
N183 N 0.51817 0.28031 0.78692 0.0
N184 N 0.51724 0.24212 0.72837 0.0
C185 C 0.53264 0.31807 0.71818 0.0
C186 C 0.50877 0.2185 0.7622 0.0
N187 N 0.5086 0.24172 0.79736 0.0
C188 C 0.50633 0.17171 0.76195 0.0
H189 H 0.52465 0.34705 0.73499 0.0
H190 H 0.51586 0.31651 0.68791 0.0
H191 H 0.56564 0.31825 0.71081 0.0
H192 H 0.50965 0.15821 0.73015 0.0
H193 H 0.47668 0.16158 0.77493 0.0
H194 H 0.53048 0.15883 0.78257 0.0
C195 C 0.77047 0.50043 0.74349 0.0
N196 N 0.81071 0.50984 0.74133 0.0
N197 N 0.75289 0.51987 0.77659 0.0
C198 C 0.74926 0.4692 0.71632 0.0
C199 C 0.7834 0.54271 0.7929 0.0
N200 N 0.81909 0.53449 0.77362 0.0
C201 C 0.77981 0.5671 0.83327 0.0
H202 H 0.7245 0.48483 0.69868 0.0
H203 H 0.73497 0.44513 0.73644 0.0
H204 H 0.77059 0.4543 0.69392 0.0
H205 H 0.78897 0.5473 0.86021 0.0
H206 H 0.74806 0.57771 0.83834 0.0
H207 H 0.80032 0.59441 0.83239 0.0
C208 C 0.52112 0.27604 0.27439 0.0
N209 N 0.51183 0.23507 0.27547 0.0
N210 N 0.51349 0.29183 0.2356 0.0
C211 C 0.54007 0.29977 0.30983 0.0
C212 C 0.49966 0.25903 0.2134 0.0
N213 N 0.49866 0.22471 0.23752 0.0
C214 C 0.49365 0.25863 0.16634 0.0
H215 H 0.52955 0.28746 0.34057 0.0
H216 H 0.53265 0.33322 0.30726 0.0
H217 H 0.57362 0.29624 0.30816 0.0
H218 H 0.51856 0.24062 0.15149 0.0
H219 H 0.49354 0.29018 0.15268 0.0
H220 H 0.46454 0.24299 0.15854 0.0
C221 C 0.7721 0.53458 0.27322 0.0
N222 N 0.8123 0.52522 0.27546 0.0
N223 N 0.75384 0.51304 0.24176 0.0
C224 C 0.75183 0.56755 0.29886 0.0
C225 C 0.78405 0.489 0.22669 0.0
N226 N 0.82004 0.49802 0.2452 0.0
C227 C 0.78008 0.4629 0.18747 0.0
H228 H 0.75755 0.56191 0.33278 0.0
H229 H 0.71856 0.56836 0.29286 0.0
H230 H 0.7654 0.59804 0.29081 0.0
H231 H 0.78552 0.48255 0.15935 0.0
H232 H 0.74909 0.44942 0.18503 0.0
H233 H 0.80282 0.4375 0.18758 0.0
C234 C 0.5218 0.74781 0.27257 0.0
N235 N 0.51561 0.74591 0.23033 0.0
N236 N 0.50825 0.78452 0.28803 0.0
C237 C 0.54217 0.7151 0.29854 0.0
C238 C 0.49327 0.80416 0.25393 0.0
N239 N 0.49867 0.7814 0.21887 0.0
C240 C 0.47912 0.84861 0.25376 0.0
H241 H 0.52939 0.71493 0.33085 0.0
H242 H 0.57511 0.72235 0.30091 0.0
H243 H 0.53849 0.68409 0.28399 0.0
H244 H 0.50549 0.86921 0.24744 0.0
H245 H 0.46578 0.85718 0.28461 0.0
H246 H 0.45622 0.8536 0.2286 0.0
C247 C 0.29516 0.52197 0.27075 0.0
N248 N 0.25431 0.52976 0.27202 0.0
N249 N 0.31213 0.53741 0.2349 0.0
C250 C 0.31776 0.49594 0.30204 0.0
C251 C 0.28043 0.55543 0.2152 0.0
N252 N 0.24523 0.5492 0.23631 0.0
C253 C 0.28273 0.57302 0.17122 0.0
H254 H 0.33846 0.51615 0.32048 0.0
H255 H 0.33688 0.47286 0.28538 0.0
H256 H 0.29658 0.47978 0.32374 0.0
H257 H 0.27762 0.5478 0.14809 0.0
H258 H 0.3131 0.58686 0.16515 0.0
H259 H 0.25901 0.597 0.16644 0.0
C260 C 0.77131 0.75375 0.52452 0.0
N261 N 0.81283 0.75241 0.52989 0.0
N262 N 0.75588 0.79146 0.53598 0.0
C263 C 0.74526 0.71854 0.50971 0.0
C264 C 0.7889 0.81216 0.54956 0.0
N265 N 0.82317 0.78959 0.5446 0.0
C266 C 0.7884 0.85715 0.56273 0.0
H267 H 0.74237 0.72013 0.47498 0.0
H268 H 0.71424 0.72108 0.52326 0.0
H269 H 0.75881 0.68832 0.51865 0.0
H270 H 0.75822 0.86611 0.57544 0.0
H271 H 0.79522 0.87694 0.53505 0.0
H272 H 0.81187 0.86311 0.58705 0.0
C273 C 0.77531 0.27228 0.4954 0.0
N274 N 0.8165 0.27572 0.48861 0.0
N275 N 0.76145 0.23361 0.48506 0.0
C276 C 0.74822 0.30625 0.51108 0.0
C277 C 0.79503 0.21445 0.47063 0.0
N278 N 0.82823 0.23907 0.4737 0.0
C279 C 0.79626 0.16947 0.45748 0.0
H280 H 0.74638 0.30445 0.54586 0.0
H281 H 0.71696 0.30239 0.49845 0.0
H282 H 0.76027 0.33708 0.50191 0.0
H283 H 0.76585 0.15836 0.44731 0.0
H284 H 0.80666 0.15031 0.48441 0.0
H285 H 0.81793 0.16499 0.43117 0.0
C286 C 0.24954 0.7589 0.4898 0.0
N287 N 0.26665 0.79662 0.49557 0.0
N288 N 0.2638 0.73102 0.5177 0.0
C289 C 0.21242 0.75138 0.46263 0.0
C290 C 0.29402 0.75211 0.53773 0.0
N291 N 0.29634 0.79193 0.52369 0.0
C292 C 0.31938 0.73482 0.57273 0.0
H293 H 0.18461 0.76044 0.48017 0.0
H294 H 0.20978 0.71822 0.4539 0.0
H295 H 0.21403 0.77012 0.43345 0.0
H296 H 0.34867 0.72372 0.55956 0.0
H297 H 0.30381 0.70832 0.58812 0.0
H298 H 0.32618 0.75933 0.59618 0.0
C299 C 0.23956 0.25997 0.53784 0.0
N300 N 0.26383 0.2263 0.53577 0.0
N301 N 0.25674 0.29272 0.51868 0.0
C302 C 0.19652 0.25969 0.55463 0.0
C303 C 0.29414 0.2786 0.50714 0.0
N304 N 0.29854 0.23756 0.51737 0.0
C305 C 0.32638 0.30614 0.48889 0.0
H306 H 0.17669 0.24097 0.53368 0.0
H307 H 0.18366 0.29131 0.5575 0.0
H308 H 0.19618 0.24547 0.58629 0.0
H309 H 0.32253 0.33827 0.50066 0.0
H310 H 0.32296 0.30708 0.45419 0.0
H311 H 0.35725 0.29493 0.49721 0.0
C312 C 0.03588 0.91924 0.61649 0.0
C313 C 0.03574 0.90758 0.41188 0.0
C314 C 0.04138 0.11755 0.60539 0.0
C315 C 0.04378 0.10577 0.401 0.0
C316 C 0.94846 0.11842 0.49956 0.0
C317 C 0.94109 0.91336 0.51716 0.0
C318 C 0.14457 0.10522 0.5107 0.0
C319 C 0.1361 0.91073 0.50431 0.0
C320 C 0.13422 1.01167 0.40392 0.0
C321 C 0.93999 1.01109 0.40479 0.0
C322 C 0.13426 1.01265 0.6127 0.0
C323 C 0.93978 0.01808 0.61207 0.0
Eu324 Eu 0.03812 0.93417 0.51275 0.0
O325 O 1.001 0.9746 0.47394 0.0
O326 O 0.07477 0.97619 0.54859 0.0
Eu327 Eu 0.9607 0.01528 0.50837 0.0
Eu328 Eu 0.11649 1.00913 0.50837 0.0
O329 O 1.00187 0.97917 0.54622 0.0
O330 O 0.07434 0.97247 0.47262 0.0
Eu331 Eu 0.03784 0.01678 0.587 0.0
Eu332 Eu 0.03773 1.00826 0.42991 0.0
O333 O 1.00369 0.05316 0.54301 0.0
O334 O 1.00445 0.04861 0.47063 0.0
O335 O 0.07693 0.04549 0.46913 0.0
O336 O 0.07706 0.04911 0.54392 0.0
Eu337 Eu 0.04401 0.09067 0.50453 0.0
O338 O 0.03943 0.90366 0.57766 0.0
O339 O 0.03552 0.89631 0.45232 0.0
O340 O 0.04424 0.12873 0.56499 0.0
O341 O 0.04957 0.12063 0.43981 0.0
O342 O 0.93248 0.08031 0.50412 0.0
O343 O 0.92771 0.95245 0.51237 0.0
O344 O 0.15477 0.06563 0.51048 0.0
O345 O 0.14935 0.9494 0.5032 0.0
O346 O 0.09537 1.00979 0.39269 0.0
O347 O 0.9788 1.00765 0.39338 0.0
O348 O 0.09569 0.01805 0.62363 0.0
O349 O 0.97875 0.01887 0.62363 0.0
O350 O 0.10691 0.12088 0.50858 0.0
O351 O 0.98761 0.12851 0.49841 0.0
O352 O 0.0977 0.8982 0.50976 0.0
O353 O 0.97939 0.90065 0.51852 0.0
O354 O 0.03706 0.94619 0.3973 0.0
O355 O 0.03634 0.06652 0.39105 0.0
O356 O 0.03359 0.95913 0.62638 0.0
O357 O 0.03801 0.07886 0.61948 0.0
O358 O 0.92672 0.0169 0.57196 0.0
O359 O 0.92687 0.01468 0.4447 0.0
O360 O 0.14825 1.00712 0.57331 0.0
O361 O 0.14843 1.0112 0.44361 0.0
C362 C 0.52789 0.89714 0.09096 0.0
C363 C 0.52408 0.09338 0.12696 0.0
C364 C 0.53847 0.93338 0.89242 0.0
C365 C 0.52803 0.12916 0.92814 0.0
C366 C 0.63242 0.02368 0.908 0.0
C367 C 0.63131 1.00543 0.11275 0.0
C368 C 0.43293 0.02267 0.90761 0.0
C369 C 0.43206 1.00091 0.11113 0.0
C370 C 0.43288 0.11586 0.01822 0.0
C371 C 0.63348 0.11171 0.02442 0.0
C372 C 0.43216 0.91222 0.99731 0.0
C373 C 0.63296 0.91543 0.99961 0.0
Eu374 Eu 0.53174 1.0 0.08832 0.0
O375 O 0.56827 0.04377 0.05331 0.0
O376 O 0.49568 0.97144 0.0398 0.0
Eu377 Eu 0.60943 1.0137 0.01034 0.0
Eu378 Eu 0.45404 1.01365 0.00953 0.0
O379 O 0.56855 0.97051 0.04086 0.0
O380 O 0.49606 0.04341 0.05203 0.0
Eu381 Eu 0.53208 0.93592 0.99643 0.0
Eu382 Eu 0.53263 0.09109 0.023 0.0
O383 O 0.56803 0.98373 0.96761 0.0
O384 O 0.56915 0.05653 0.97871 0.0
O385 O 0.49634 0.05544 0.97947 0.0
O386 O 0.4956 0.98323 0.96658 0.0
Eu387 Eu 0.53242 0.02655 0.93124 0.0
O388 O 0.53189 0.93334 0.11089 0.0
O389 O 0.52544 0.05281 0.13353 0.0
O390 O 0.53563 0.97383 0.88575 0.0
O391 O 0.52761 0.09267 0.90849 0.0
O392 O 0.64426 0.0189 0.94805 0.0
O393 O 0.64381 1.00827 0.07278 0.0
O394 O 0.42037 0.0186 0.94736 0.0
O395 O 0.42036 1.00864 0.07165 0.0
O396 O 0.47209 0.12706 0.02236 0.0
O397 O 0.59473 0.12493 0.02726 0.0
O398 O 0.47094 0.90111 0.98989 0.0
O399 O 0.59417 0.90205 0.99756 0.0
O400 O 0.47185 0.02584 0.8953 0.0
O401 O 0.59355 0.02812 0.89563 0.0
O402 O 0.4707 0.99482 0.12336 0.0
O403 O 0.59227 1.00188 0.12477 0.0
O404 O 0.52715 0.11313 0.09022 0.0
O405 O 0.53152 0.13581 0.96915 0.0
O406 O 0.52631 0.89111 0.04975 0.0
O407 O 0.53784 0.91379 0.92934 0.0
O408 O 0.64465 0.95467 1.00311 0.0
O409 O 0.64494 0.07273 0.01818 0.0
O410 O 0.42009 0.95104 1.00612 0.0
O411 O 0.42003 0.07643 0.0143 0.0
C412 C 0.03172 0.41658 0.11295 0.0
C413 C 0.02719 0.40764 0.91239 0.0
C414 C 0.027 0.61907 0.10334 0.0
C415 C 0.02728 0.61004 0.90301 0.0
C416 C 0.92801 0.61465 1.00808 0.0
C417 C 0.92793 0.4122 0.01341 0.0
C418 C 0.12582 0.61652 1.00324 0.0
C419 C 0.12697 0.41097 0.01162 0.0
C420 C 0.12439 0.51413 0.90493 0.0
C421 C 0.9321 0.51589 0.90608 0.0
C422 C 0.12558 0.52436 0.11045 0.0
C423 C 0.93376 0.50823 0.11229 0.0
Eu424 Eu 0.02793 0.43516 0.0116 0.0
O425 O 0.99102 0.47487 0.97273 0.0
O426 O 0.06542 0.47821 0.04659 0.0
Eu427 Eu 0.95 0.51323 1.00903 0.0
Eu428 Eu 0.1069 0.51373 1.00802 0.0
O429 O 0.99236 0.47864 0.04681 0.0
O430 O 0.06518 0.47504 0.97289 0.0
Eu431 Eu 0.02918 0.51681 0.08693 0.0
Eu432 Eu 0.02834 0.50991 0.92973 0.0
O433 O 0.99139 0.55185 0.04439 0.0
O434 O 0.99143 0.548 0.96999 0.0
O435 O 0.06453 0.54854 0.96995 0.0
O436 O 0.06475 0.55169 0.04284 0.0
Eu437 Eu 0.02743 0.59158 1.00459 0.0
O438 O 0.02701 0.40276 0.07394 0.0
O439 O 0.0272 0.39703 0.95273 0.0
O440 O 0.0306 0.62952 0.06321 0.0
O441 O 0.02414 0.62388 0.94218 0.0
O442 O 0.91562 0.57507 0.01042 0.0
O443 O 0.91534 0.45161 0.0112 0.0
O444 O 0.13936 0.57739 1.00776 0.0
O445 O 0.14019 0.45041 1.00834 0.0
O446 O 0.08602 0.50945 0.89317 0.0
O447 O 0.97053 0.51367 0.89388 0.0
O448 O 0.08698 0.52604 0.12233 0.0
O449 O 0.97242 0.50945 0.12385 0.0
O450 O 0.0868 0.62764 0.99993 0.0
O451 O 0.96694 0.62667 1.00538 0.0
O452 O 0.08786 0.39956 0.01388 0.0
O453 O 0.96695 0.39997 0.01408 0.0
O454 O 0.02783 0.4465 0.89754 0.0
O455 O 0.03063 0.57025 0.89162 0.0
O456 O 0.03546 0.45636 0.12431 0.0
O457 O 0.024 0.58045 0.11853 0.0
O458 O 0.91899 0.51127 0.07317 0.0
O459 O 0.91787 0.51501 0.94551 0.0
O460 O 0.13951 0.51782 0.07142 0.0
O461 O 0.13858 0.51687 0.94428 0.0
C462 C 0.53807 0.42266 0.11992 0.0
C463 C 0.53864 0.62105 0.103 0.0
C464 C 0.53561 0.40505 0.91557 0.0
C465 C 0.5387 0.60345 0.89801 0.0
C466 C 0.63266 0.50352 0.90459 0.0
C467 C 0.63435 0.52283 0.11193 0.0
C468 C 0.43867 0.5052 0.90622 0.0
C469 C 0.43951 0.51927 0.11278 0.0
C470 C 0.44286 0.61554 1.00132 0.0
C471 C 0.63865 0.60935 0.99419 0.0
C472 C 0.44219 0.41208 0.02373 0.0
C473 C 0.63947 0.41717 0.02302 0.0
Eu474 Eu 0.53742 0.51998 0.08764 0.0
O475 O 0.57496 0.55338 0.04336 0.0
O476 O 0.50231 0.4797 0.04836 0.0
Eu477 Eu 0.6149 0.51314 1.00848 0.0
Eu478 Eu 0.45971 0.51312 1.00948 0.0
O479 O 0.57427 0.47994 0.04924 0.0
O480 O 0.5015 0.55331 0.04258 0.0
Eu481 Eu 0.53939 0.43457 0.01597 0.0
Eu482 Eu 0.53922 0.59151 1.00236 0.0
O483 O 0.57454 0.47271 0.97427 0.0
O484 O 0.57364 0.5463 0.96854 0.0
O485 O 0.50135 0.54694 0.96969 0.0
O486 O 0.50115 0.47276 0.97612 0.0
Eu487 Eu 0.53643 0.50627 0.93067 0.0
O488 O 0.53491 0.46285 0.12869 0.0
O489 O 0.53897 0.58281 0.11857 0.0
O490 O 0.53631 0.44332 0.90007 0.0
O491 O 0.5379 0.56317 0.88914 0.0
O492 O 0.64685 0.50524 0.94424 0.0
O493 O 0.64776 0.52245 0.07199 0.0
O494 O 0.42557 0.50715 0.94623 0.0
O495 O 0.42628 0.51474 0.07307 0.0
O496 O 0.48148 0.62705 0.99834 0.0
O497 O 0.6007 0.62398 0.99723 0.0
O498 O 0.48088 0.40018 0.0254 0.0
O499 O 0.60138 0.40237 0.02111 0.0
O500 O 0.47749 0.50496 0.89436 0.0
O501 O 0.59378 0.50349 0.89358 0.0
O502 O 0.47832 0.52348 0.12419 0.0
O503 O 0.59571 0.52055 0.12385 0.0
O504 O 0.53806 0.63113 0.06214 0.0
O505 O 0.53909 0.62012 0.93654 0.0
O506 O 0.54144 0.40616 0.08152 0.0
O507 O 0.53586 0.39484 0.95641 0.0
O508 O 0.65087 0.45621 0.01908 0.0
O509 O 0.65031 0.57032 0.99713 0.0
O510 O 0.42816 0.45039 0.01638 0.0
O511 O 0.42849 0.5768 1.00602 0.0
C512 C 0.02837 0.39769 0.58771 0.0
C513 C 0.03216 0.4387 0.38912 0.0
C514 C 0.02962 0.59353 0.62846 0.0
C515 C 0.04275 0.63357 0.43117 0.0
C516 C 0.93421 0.61777 0.52074 0.0
C517 C 0.93317 0.41456 0.49518 0.0
C518 C 0.13564 0.61129 0.52788 0.0
C519 C 0.13346 0.4165 0.49692 0.0
C520 C 0.13305 0.52543 0.40733 0.0
C521 C 0.93405 0.53215 0.40735 0.0
C522 C 0.13124 0.50265 0.61208 0.0
C523 C 0.93209 0.50242 0.60886 0.0
Eu524 Eu 0.03274 0.43822 0.49351 0.0
O525 O 0.99683 0.48675 0.4649 0.0
O526 O 0.06865 0.47152 0.53932 0.0
Eu527 Eu 0.95519 0.51619 0.50805 0.0
Eu528 Eu 0.11002 0.51454 0.50977 0.0
O529 O 0.99645 0.47319 0.5376 0.0
O530 O 0.06918 0.48618 0.4654 0.0
Eu531 Eu 0.03194 0.50052 0.58729 0.0
Eu532 Eu 0.03365 0.53095 0.43088 0.0
O533 O 0.99668 0.54496 0.55203 0.0
O534 O 0.99738 0.55939 0.47939 0.0
O535 O 0.0699 0.55841 0.47998 0.0
O536 O 0.06906 0.54421 0.55328 0.0
Eu537 Eu 0.03407 0.5929 0.52461 0.0
O538 O 0.02779 0.39216 0.5463 0.0
O539 O 0.03422 0.41822 0.42552 0.0
O540 O 0.03276 0.61358 0.59199 0.0
O541 O 0.03942 0.63913 0.47236 0.0
O542 O 0.92172 0.57896 0.51233 0.0
O543 O 0.92109 0.45339 0.50418 0.0
O544 O 0.14604 0.57276 0.51807 0.0
O545 O 0.14481 0.45529 0.50427 0.0
O546 O 0.09423 0.52933 0.39488 0.0
O547 O 0.97288 0.53889 0.3961 0.0
O548 O 0.09225 0.499 0.62404 0.0
O549 O 0.97055 0.49572 0.62129 0.0
O550 O 0.09709 0.62474 0.53291 0.0
O551 O 0.97316 0.62871 0.52778 0.0
O552 O 0.09476 0.40382 0.49111 0.0
O553 O 0.97183 0.40345 0.48755 0.0
O554 O 0.03039 0.47943 0.38371 0.0
O555 O 0.04123 0.5977 0.41036 0.0
O556 O 0.03124 0.4337 0.60811 0.0
O557 O 0.02795 0.55273 0.63409 0.0
O558 O 0.92073 0.51091 0.56949 0.0
O559 O 0.92174 0.52193 0.446 0.0
O560 O 0.1439 0.50796 0.57243 0.0
O561 O 0.14497 0.52092 0.44743 0.0
C562 C 0.5293 0.92117 0.61801 0.0
C563 C 0.52761 0.90472 0.41744 0.0
C564 C 0.52969 0.12488 0.59879 0.0
C565 C 0.53032 0.10684 0.39965 0.0
C566 C 0.43048 0.11644 0.50469 0.0
C567 C 0.42736 0.91477 0.51895 0.0
C568 C 0.62951 0.11539 0.5024 0.0
C569 C 0.62588 0.91042 0.51742 0.0
C570 C 0.62731 1.00226 0.40848 0.0
C571 C 0.43546 1.01324 0.404 0.0
C572 C 0.62502 0.02465 0.61339 0.0
C573 C 0.43326 0.02625 0.6112 0.0
Eu574 Eu 0.52729 0.93599 0.51601 0.0
O575 O 0.49196 0.97467 0.47458 0.0
O576 O 0.56512 0.97996 0.54952 0.0
Eu577 Eu 0.45133 0.01524 0.5085 0.0
Eu578 Eu 0.60777 1.01329 0.51038 0.0
O579 O 0.49179 0.98133 0.5494 0.0
O580 O 0.56536 0.97428 0.47676 0.0
Eu581 Eu 0.52939 0.02108 0.5876 0.0
Eu582 Eu 0.5305 1.00753 0.43083 0.0
O583 O 0.49372 0.05413 0.54194 0.0
O584 O 0.49369 0.04808 0.46866 0.0
O585 O 0.56739 0.04763 0.46922 0.0
O586 O 0.56614 0.05388 0.54273 0.0
Eu587 Eu 0.53022 0.09262 0.50163 0.0
O588 O 0.52598 0.90576 0.57948 0.0
O589 O 0.52583 0.89557 0.45819 0.0
O590 O 0.52936 0.13374 0.55812 0.0
O591 O 0.53021 0.12264 0.43811 0.0
O592 O 0.41773 0.07723 0.5089 0.0
O593 O 0.41586 0.95436 0.51412 0.0
O594 O 0.642 0.07596 0.50754 0.0
O595 O 0.63974 0.94952 0.51342 0.0
O596 O 0.58887 1.00058 0.39605 0.0
O597 O 0.4739 1.00765 0.39315 0.0
O598 O 0.58632 0.02718 0.62449 0.0
O599 O 0.47179 0.02691 0.62323 0.0
O600 O 0.59068 0.12731 0.49883 0.0
O601 O 0.46941 0.1282 0.49998 0.0
O602 O 0.58665 0.89949 0.51969 0.0
O603 O 0.4661 0.90182 0.51989 0.0
O604 O 0.52994 0.94294 0.40121 0.0
O605 O 0.5306 0.06641 0.38999 0.0
O606 O 0.53205 0.96155 0.62781 0.0
O607 O 0.53011 0.0868 0.61577 0.0
O608 O 0.41914 0.021 0.57202 0.0
O609 O 0.42103 0.01607 0.44346 0.0
O610 O 0.63932 0.0179 0.57448 0.0
O611 O 0.64087 1.00824 0.4477 0.0
C612 C 0.23426 0.17437 0.48998 0.0
C613 C 0.24557 0.18633 0.53089 0.0
C614 C 0.20103 0.14807 0.48335 0.0
C615 C 0.17849 0.13325 0.51756 0.0
H616 H 0.24863 0.18879 0.46302 0.0
H617 H 0.19202 0.14056 0.45146 0.0
S618 S 0.19975 0.15 0.63044 0.0
N619 N 0.2353 0.1769 0.60576 0.0
N620 N 0.17228 0.12753 0.59338 0.0
C621 C 0.19173 0.14173 0.55851 0.0
C622 C 0.22583 0.16797 0.56519 0.0
C623 C 0.87496 0.20511 0.52166 0.0
C624 C 0.86728 0.22083 0.48113 0.0
C625 C 0.90121 0.17147 0.52763 0.0
C626 C 0.92097 0.15333 0.49324 0.0
H627 H 0.85733 0.21623 0.54812 0.0
H628 H 0.90515 0.15886 0.55896 0.0
S629 S 0.91663 0.18765 0.38224 0.0
N630 N 0.88486 0.21881 0.40716 0.0
N631 N 0.93598 0.15672 0.41854 0.0
C632 C 0.91678 0.17135 0.45334 0.0
C633 C 0.88967 0.20515 0.44725 0.0
C634 C 0.88483 0.82501 0.56776 0.0
C635 C 0.86043 0.81042 0.53477 0.0
C636 C 0.9106 0.85906 0.5618 0.0
C637 C 0.91178 0.87995 0.52299 0.0
H638 H 0.88156 0.81199 0.59898 0.0
H639 H 0.92877 0.86998 0.58803 0.0
S640 S 0.85723 0.85082 0.42575 0.0
N641 N 0.84191 0.81668 0.46115 0.0
N642 N 0.89007 0.88131 0.45011 0.0
C643 C 0.88958 0.86414 0.48913 0.0
C644 C 0.86416 0.82894 0.49494 0.0
C645 C 0.2154 0.83424 0.53528 0.0
C646 C 0.23873 0.83045 0.49827 0.0
C647 C 0.18069 0.85887 0.53652 0.0
C648 C 0.16797 0.87995 0.50052 0.0
H649 H 0.22396 0.81723 0.56324 0.0
H650 H 0.16412 0.86192 0.56583 0.0
S651 S 0.21631 0.87801 0.39532 0.0
N652 N 0.24584 0.84841 0.42475 0.0
N653 N 0.17983 0.89512 0.42665 0.0
C654 C 0.19071 0.87655 0.46329 0.0
C655 C 0.22634 0.85165 0.46223 0.0
C656 C 0.54249 0.16921 0.21306 0.0
C657 C 0.50299 0.18415 0.22026 0.0
C658 C 0.54919 0.13724 0.18446 0.0
C659 C 0.51637 0.11915 0.1633 0.0
H660 H 0.56845 0.18504 0.22662 0.0
H661 H 0.58016 0.12866 0.1767 0.0
S662 S 0.40702 0.14313 0.17617 0.0
N663 N 0.43063 0.17606 0.20768 0.0
N664 N 0.44306 0.11458 0.15442 0.0
C665 C 0.47654 0.13116 0.17308 0.0
C666 C 0.46981 0.16408 0.20175 0.0
C667 C 0.85527 0.53744 0.19143 0.0
C668 C 0.85453 0.50278 0.21832 0.0
C669 C 0.88006 0.53835 0.15602 0.0
C670 C 0.90541 0.50485 0.14701 0.0
H671 H 0.83497 0.56317 0.19703 0.0
H672 H 0.87959 0.5654 0.13578 0.0
S673 S 0.91749 0.40849 0.20919 0.0
N674 N 0.88226 0.43513 0.23462 0.0
N675 N 0.93116 0.43745 0.16865 0.0
C676 C 0.90678 0.47091 0.17469 0.0
C677 C 0.88078 0.46972 0.21037 0.0
C678 C 0.5468 0.81886 0.17518 0.0
C679 C 0.50808 0.80096 0.17981 0.0
C680 C 0.55384 0.84894 0.14457 0.0
C681 C 0.52258 0.86072 0.1172 0.0
H682 H 0.57055 0.81207 0.19781 0.0
H683 H 0.58314 0.86437 0.14354 0.0
S684 S 0.41797 0.81819 0.11279 0.0
N685 N 0.43954 0.79393 0.15277 0.0
N686 N 0.45319 0.84928 0.09312 0.0
C687 C 0.48491 0.84025 0.11896 0.0
C688 C 0.47752 0.8104 0.15089 0.0
C689 C 0.20683 0.50308 0.19063 0.0
C690 C 0.20917 0.54092 0.21255 0.0
C691 C 0.1802 0.49807 0.15677 0.0
C692 C 0.15481 0.53063 0.14436 0.0
H693 H 0.22774 0.47826 0.19823 0.0
H694 H 0.17964 0.46881 0.14008 0.0
S695 S 0.14811 0.6348 0.19267 0.0
N696 N 0.18357 0.61073 0.22027 0.0
N697 N 0.13176 0.60102 0.15744 0.0
C698 C 0.15536 0.56785 0.16726 0.0
C699 C 0.18296 0.57307 0.20132 0.0
C700 C 0.58979 0.86034 0.81923 0.0
C701 C 0.55642 0.84295 0.79822 0.0
C702 C 0.58405 0.89236 0.84802 0.0
C703 C 0.54488 0.90766 0.85585 0.0
H704 H 0.61972 0.8467 0.81588 0.0
H705 H 0.60984 0.90335 0.86616 0.0
S706 S 0.44872 0.87558 0.80517 0.0
N707 N 0.48381 0.8453 0.78425 0.0
N708 N 0.47309 0.90654 0.83804 0.0
C709 C 0.51189 0.89309 0.83242 0.0
C710 C 0.5177 0.86037 0.80336 0.0
C711 C 0.19056 0.56372 0.82304 0.0
C712 C 0.20604 0.52925 0.80144 0.0
C713 C 0.16494 0.55844 0.85774 0.0
C714 C 0.15282 0.51869 0.87032 0.0
H715 H 0.20146 0.5945 0.81546 0.0
H716 H 0.15518 0.58544 0.87529 0.0
S717 S 0.17858 0.41926 0.81943 0.0
N718 N 0.20402 0.45452 0.79241 0.0
N719 N 0.1529 0.445 0.85561 0.0
C720 C 0.16448 0.48441 0.84641 0.0
C721 C 0.1915 0.48965 0.81199 0.0
C722 C 0.54695 0.22135 0.85961 0.0
C723 C 0.50942 0.22469 0.83877 0.0
C724 C 0.55236 0.19189 0.89137 0.0
C725 C 0.52041 0.16513 0.9021 0.0
H726 H 0.573 0.23883 0.84858 0.0
H727 H 0.58227 0.18789 0.90517 0.0
S728 S 0.41484 0.16692 0.8617 0.0
N729 N 0.43853 0.20406 0.83553 0.0
N730 N 0.44915 0.14679 0.89373 0.0
C731 C 0.48194 0.17074 0.88415 0.0
C732 C 0.47622 0.20143 0.85292 0.0
C733 C 0.87759 0.56082 0.81309 0.0
C734 C 0.85356 0.52737 0.80002 0.0
C735 C 0.90286 0.55702 0.84827 0.0
C736 C 0.90348 0.52012 0.87176 0.0
H737 H 0.87497 0.59049 0.79746 0.0
H738 H 0.92127 0.58329 0.8578 0.0
S739 S 0.84792 0.42323 0.84906 0.0
N740 N 0.83354 0.45574 0.8118 0.0
N741 N 0.8806 0.44906 0.87859 0.0
C742 C 0.88074 0.48617 0.85835 0.0
C743 C 0.85587 0.48968 0.82217 0.0
C744 C 0.72833 0.66495 0.94779 0.0
C745 C 0.74127 0.68925 0.98179 0.0
C746 C 0.69413 0.63935 0.95171 0.0
C747 C 0.67192 0.63832 0.98946 0.0
H748 H 0.74309 0.66796 0.91749 0.0
H749 H 0.68437 0.62112 0.92492 0.0
S750 S 0.69716 0.69086 0.08919 0.0
N751 N 0.73217 0.70681 0.05559 0.0
N752 N 0.66757 0.65891 0.06255 0.0
C753 C 0.68597 0.66025 0.02427 0.0
C754 C 0.72092 0.68561 0.02056 0.0
C755 C 0.38405 0.70386 0.9542 0.0
C756 C 0.36235 0.71925 0.98879 0.0
C757 C 0.4099 0.66975 0.95866 0.0
C758 C 0.41425 0.64983 0.99764 0.0
H759 H 0.37788 0.71572 0.92297 0.0
H760 H 0.42526 0.65774 0.9312 0.0
S761 S 0.36914 0.68235 0.09884 0.0
N762 N 0.35076 0.71549 0.06402 0.0
N763 N 0.39938 0.65087 0.07235 0.0
C764 C 0.39549 0.66692 0.03305 0.0
C765 C 0.3698 0.7021 0.02865 0.0
C766 C 0.35943 0.33535 1.00047 0.0
C767 C 0.3576 0.3117 0.03772 0.0
C768 C 0.38665 0.36829 0.99629 0.0
C769 C 0.41257 0.37887 0.02947 0.0
H770 H 0.33827 0.32909 0.97511 0.0
H771 H 0.38726 0.3857 0.96713 0.0
S772 S 0.41637 0.33021 0.13485 0.0
N773 N 0.38177 0.30306 0.10907 0.0
N774 N 0.43385 0.36511 0.10133 0.0
C775 C 0.41121 0.35572 0.06687 0.0
C776 C 0.38338 0.3221 0.07104 0.0
C777 C 0.72619 0.36432 0.07827 0.0
C778 C 0.74237 0.33935 0.04633 0.0
C779 C 0.69201 0.3891 0.07059 0.0
C780 C 0.67299 0.38889 0.03098 0.0
H781 H 0.7382 0.36221 0.10992 0.0
H782 H 0.67971 0.40765 0.09598 0.0
S783 S 0.70707 0.3336 0.93565 0.0
N784 N 0.73952 0.31943 0.97265 0.0
N785 N 0.67522 0.3662 0.9584 0.0
C786 C 0.69054 0.36658 0.99812 0.0
C787 C 0.72553 0.34195 1.0057 0.0
C788 C 0.04793 0.68502 0.69625 0.0
C789 C 1.012 0.68678 0.72001 0.0
C790 C 0.05531 0.65208 0.66926 0.0
C791 C 0.02683 0.62003 0.66525 0.0
H792 H 0.0692 0.71069 0.69687 0.0
H793 H 0.08212 0.65301 0.64941 0.0
S794 S 0.92955 0.60901 0.72286 0.0
N795 N 0.94904 0.65307 0.74025 0.0
N796 N 0.96279 0.59021 0.68885 0.0
C797 C 0.99208 0.61986 0.69092 0.0
C798 C 0.98456 0.65372 0.71849 0.0
C799 C 0.35142 1.00394 0.68996 0.0
C800 C 0.35269 0.03941 0.71571 0.0
C801 C 0.37667 1.0004 0.6549 0.0
C802 C 0.4045 0.03184 0.64546 0.0
H803 H 0.3288 0.98017 0.69563 0.0
H804 H 0.37454 0.97305 0.63527 0.0
S805 S 0.42183 0.1287 0.70535 0.0
N806 N 0.38457 0.10519 0.73079 0.0
N807 N 0.4343 0.09789 0.66592 0.0
C808 C 0.40771 0.06627 0.67235 0.0
C809 C 0.38131 0.07016 0.70746 0.0
C810 C 0.04601 0.32823 0.67925 0.0
C811 C 1.01235 0.30144 0.67756 0.0
C812 C 0.05248 0.35765 0.64813 0.0
C813 C 0.02554 0.36101 0.61422 0.0
H814 H 0.06611 0.32772 0.70625 0.0
H815 H 0.07758 0.37921 0.65164 0.0
S816 S 0.93501 0.2955 0.59348 0.0
N817 N 0.95343 0.27781 0.63846 0.0
N818 N 0.96576 0.33338 0.5786 0.0
C819 C 0.99327 0.33259 0.61048 0.0
C820 C 0.98651 0.30268 0.6427 0.0
C821 C 0.71427 1.00622 0.68476 0.0
C822 C 0.71096 0.03892 0.7139 0.0
C823 C 0.68674 1.0022 0.65165 0.0
C824 C 0.65396 0.02956 0.64802 0.0
H825 H 0.73989 0.98524 0.68632 0.0
H826 H 0.69108 0.97762 0.6289 0.0
S827 S 0.62782 0.11504 0.72143 0.0
N828 N 0.67105 0.09625 0.73985 0.0
N829 N 0.61644 0.08684 0.67964 0.0
C830 C 0.6483 0.06008 0.67927 0.0
C831 C 0.67746 0.06513 0.71193 0.0
C832 C 0.99605 0.36915 0.30336 0.0
C833 C 0.0312 0.34563 0.29626 0.0
C834 C 0.99716 0.40287 0.33098 0.0
C835 C 0.03349 0.41324 0.35169 0.0
H836 H 0.96716 0.35916 0.29045 0.0
H837 H 0.96902 0.41857 0.33881 0.0
S838 S 0.1343 0.36423 0.33891 0.0
N839 N 0.10352 0.33693 0.30857 0.0
N840 N 0.10589 0.40097 0.35996 0.0
C841 C 0.06939 0.39224 0.34184 0.0
C842 C 0.06819 0.35809 0.31405 0.0
C843 C 0.68283 0.95985 0.31435 0.0
C844 C 0.71122 0.9912 0.30636 0.0
C845 C 0.65549 0.96364 0.3479 0.0
C846 C 0.65696 0.99823 0.3748 0.0
H847 H 0.68303 0.93179 0.29571 0.0
H848 H 0.63391 0.93891 0.35366 0.0
S849 S 0.72404 0.08965 0.36507 0.0
N850 N 0.7376 0.05888 0.32603 0.0
N851 N 0.68693 0.06526 0.38991 0.0
C852 C 0.68443 0.03014 0.36646 0.0
C853 C 0.71141 0.0268 0.33193 0.0
C854 C 0.0225 0.72267 0.35965 0.0
C855 C 0.06084 0.72815 0.34089 0.0
C856 C 1.01718 0.69387 0.39194 0.0
C857 C 0.05018 0.67024 0.40599 0.0
H858 H 0.99591 0.73742 0.34623 0.0
H859 H 0.98674 0.6877 0.40352 0.0
S860 S 0.15761 0.67875 0.37233 0.0
N861 N 0.13298 0.71254 0.34264 0.0
N862 N 0.12302 0.65769 0.40347 0.0
C863 C 0.08928 0.67848 0.3906 0.0
C864 C 0.09467 0.70798 0.358 0.0
C865 C 0.33821 1.01256 0.34229 0.0
C866 C 0.34911 0.03165 0.30395 0.0
C867 C 0.36626 1.00685 0.37442 0.0
C868 C 0.40694 0.01794 0.36871 0.0
H869 H 0.3073 1.00282 0.34799 0.0
H870 H 0.35598 0.99334 0.40378 0.0
S871 S 0.45269 0.06217 0.27116 0.0
N872 N 0.40352 0.05903 0.26079 0.0
N873 N 0.45829 0.04396 0.31942 0.0
C874 C 0.41918 0.03411 0.32919 0.0
C875 C 0.38979 0.04194 0.29718 0.0
C876 C 1.01156 0.16763 0.3056 0.0
C877 C 0.04302 0.19684 0.302 0.0
C878 C 1.0129 0.13675 0.33668 0.0
C879 C 0.04517 0.13521 0.36576 0.0
H880 H 0.98447 0.17077 0.28646 0.0
H881 H 0.98734 0.11572 0.33972 0.0
S882 S 0.13741 0.20105 0.36543 0.0
N883 N 0.10941 0.21918 0.32636 0.0
N884 N 0.11132 0.1622 0.38594 0.0
C885 C 0.07795 0.16251 0.36069 0.0
C886 C 0.07711 0.19296 0.32831 0.0
C887 C 0.84363 0.03293 0.34119 0.0
C888 C 0.8484 1.00831 0.30484 0.0
C889 C 0.87324 0.03389 0.37319 0.0
C890 C 0.90947 1.011 0.36978 0.0
H891 H 0.81535 0.04921 0.34633 0.0
H892 H 0.86733 0.05214 0.4011 0.0
S893 S 0.93869 0.94516 0.27865 0.0
N894 N 0.89295 0.96257 0.26625 0.0
N895 N 0.94982 0.96565 0.32485 0.0
C896 C 0.91585 0.98852 0.33214 0.0
C897 C 0.88514 0.98694 0.30007 0.0
C898 C 0.07859 0.82863 0.3367 0.0
C899 C 0.04395 0.81465 0.31499 0.0
C900 C 0.07552 0.85843 0.36854 0.0
C901 C 0.03756 0.87474 0.38003 0.0
H902 H 0.10819 0.81584 0.32925 0.0
H903 H 0.10295 0.86874 0.38432 0.0
S904 S 0.9374 0.84607 0.33521 0.0
N905 N 0.97041 0.81773 0.30856 0.0
N906 N 0.96451 0.87414 0.3685 0.0
C907 C 1.00261 0.86093 0.35885 0.0
C908 C 1.00581 0.83068 0.32625 0.0
C909 C 0.22236 0.98983 0.3301 0.0
C910 C 0.21665 0.01911 0.29772 0.0
C911 C 0.19667 0.9887 0.36537 0.0
C912 C 0.16301 0.01515 0.36833 0.0
H913 H 0.24846 0.96945 0.32931 0.0
H914 H 0.20324 0.96723 0.39052 0.0
S915 S 0.13311 0.09533 0.29044 0.0
N916 N 0.17483 0.0746 0.27054 0.0
N917 N 0.12409 0.07014 0.33474 0.0
C918 C 0.15562 0.04293 0.33493 0.0
C919 C 0.18282 0.04524 0.3 0.0
C920 C 0.99131 0.86185 0.70939 0.0
C921 C 0.0205 0.8311 0.71717 0.0
C922 C 0.9973 0.89139 0.67756 0.0
C923 C 0.03215 0.89015 0.65187 0.0
H924 H 0.96264 0.86129 0.72618 0.0
H925 H 0.97356 0.91392 0.67151 0.0
S926 S 0.11927 0.81846 0.66266 0.0
N927 N 0.0869 0.80342 0.69942 0.0
N928 N 0.09777 0.8583 0.63875 0.0
C929 C 0.06244 0.86096 0.66076 0.0
C930 C 0.05675 0.83163 0.69378 0.0
C931 C 0.18525 0.05256 0.71142 0.0
C932 C 0.21581 0.02323 0.71915 0.0
C933 C 0.1591 0.04858 0.67681 0.0
C934 C 0.16301 0.01543 0.64827 0.0
H935 H 0.18377 0.08039 0.73036 0.0
H936 H 0.13667 0.0726 0.67135 0.0
S937 S 0.2338 0.92694 0.65856 0.0
N938 N 0.24549 0.95754 0.69843 0.0
N939 N 0.19623 0.95002 0.63312 0.0
C940 C 0.19162 0.98448 0.65713 0.0
C941 C 0.21785 0.98827 0.69281 0.0
C942 C 1.01117 0.17689 0.70331 0.0
C943 C 0.03513 0.21277 0.70112 0.0
C944 C 1.01399 0.1461 0.67243 0.0
C945 C 0.04032 0.15039 0.63781 0.0
H946 H 0.98882 0.17358 0.72813 0.0
H947 H 0.99421 0.11948 0.67475 0.0
S948 S 0.11248 0.23678 0.61996 0.0
N949 N 0.08896 0.24912 0.66407 0.0
N950 N 0.09279 0.19216 0.60466 0.0
C951 C 0.06536 0.18559 0.6359 0.0
C952 C 0.06315 0.21653 0.66797 0.0
C953 C 0.84023 1.00192 0.6725 0.0
C954 C 0.84681 0.0227 0.711 0.0
C955 C 0.87028 1.0003 0.64097 0.0
C956 C 0.90885 0.01834 0.64693 0.0
H957 H 0.81052 0.98914 0.66565 0.0
H958 H 0.86293 0.98532 0.61145 0.0
S959 S 0.94315 0.07182 0.74446 0.0
N960 N 0.89534 0.05928 0.75434 0.0
N961 N 0.95305 0.05395 0.69687 0.0
C962 C 0.9168 0.03639 0.68673 0.0
C963 C 0.88561 0.03904 0.7183 0.0
C964 C 0.37447 0.98118 0.21447 0.0
C965 C 0.33818 1.0037 0.20891 0.0
C966 C 0.40456 0.97989 0.18273 0.0
C967 C 0.39924 1.00067 0.144 0.0
H968 H 0.38014 0.96562 0.24407 0.0
H969 H 0.43232 0.96281 0.18879 0.0
S970 S 0.30894 0.06392 0.11454 0.0
N971 N 0.29857 0.04709 0.16235 0.0
N972 N 0.35383 0.04429 0.10254 0.0
C973 C 0.36234 0.02236 0.13797 0.0
C974 C 0.33217 0.02389 0.17037 0.0
C975 C 0.06763 0.35152 0.20496 0.0
C976 C 0.03843 0.31961 0.20651 0.0
C977 C 0.06482 0.38362 0.1753 0.0
C978 C 0.03312 0.38428 0.14571 0.0
H979 H 0.09238 0.35205 0.22732 0.0
H980 H 0.08782 0.4077 0.17516 0.0
S981 S 0.94929 0.30777 0.13645 0.0
N982 N 0.9769 0.29086 0.17637 0.0
N983 N 0.97234 0.35002 0.11925 0.0
C984 C 1.00442 0.3519 0.14618 0.0
C985 C 1.00695 0.31977 0.17686 0.0
C986 C 0.73191 0.98998 0.17298 0.0
C987 C 0.72542 1.01097 0.21129 0.0
C988 C 0.70182 0.9888 0.14109 0.0
C989 C 0.66341 1.00767 0.14649 0.0
H990 H 0.76003 0.97318 0.16822 0.0
H991 H 0.70826 0.97181 0.11249 0.0
S992 S 0.63301 0.0718 0.23809 0.0
N993 N 0.67934 0.05579 0.24989 0.0
N994 N 0.62232 0.05131 0.19182 0.0
C995 C 0.65712 0.02992 0.18402 0.0
C996 C 0.68812 0.03209 0.21589 0.0
C997 C 0.06778 0.71098 0.16312 0.0
C998 C 0.0366 0.71922 0.19202 0.0
C999 C 0.06378 0.67906 0.13358 0.0
C1000 C 0.02893 0.65377 0.133 0.0
H1001 H 0.09653 0.72723 0.16562 0.0
H1002 H 0.089 0.67267 0.1126 0.0
S1003 S 0.93606 0.66774 0.19705 0.0
N1004 N 0.96784 0.70351 0.21463 0.0
N1005 N 0.96049 0.64274 0.1594 0.0
C1006 C 0.9964 0.66361 0.15959 0.0
C1007 C 1.00017 0.6967 0.189 0.0
C1008 C 0.37705 1.00276 0.8041 0.0
C1009 C 0.33886 0.02159 0.81047 0.0
C1010 C 0.40747 1.00362 0.83535 0.0
C1011 C 0.40073 0.02284 0.87449 0.0
H1012 H 0.38368 0.98744 0.77466 0.0
H1013 H 0.43636 0.98881 0.82889 0.0
S1014 S 0.30671 0.07836 0.90617 0.0
N1015 N 0.2968 0.06149 0.85821 0.0
N1016 N 0.35308 0.06199 0.91734 0.0
C1017 C 0.36251 0.04138 0.88138 0.0
C1018 C 0.33184 0.04098 0.84936 0.0
C1019 C 0.04384 0.34571 0.81279 0.0
C1020 C 0.02031 0.30986 0.81969 0.0
C1021 C 0.04626 0.37708 0.84306 0.0
C1022 C 0.02612 0.37314 0.88179 0.0
H1023 H 0.05842 0.3505 0.78264 0.0
H1024 H 0.06351 0.40481 0.83582 0.0
S1025 S 0.96472 0.28265 0.91677 0.0
N1026 N 0.97893 0.27072 0.86844 0.0
N1027 N 0.98481 0.32856 0.92678 0.0
C1028 C 1.00482 0.336 0.89015 0.0
C1029 C 1.00168 0.30454 0.85877 0.0
C1030 C 0.687 1.0042 0.80265 0.0
C1031 C 0.72648 0.02057 0.80875 0.0
C1032 C 0.65699 1.00556 0.83453 0.0
C1033 C 0.66503 0.02273 0.8745 0.0
H1034 H 0.67889 0.99044 0.77281 0.0
H1035 H 0.6272 0.99274 0.8278 0.0
S1036 S 0.76342 0.06962 0.90718 0.0
N1037 N 0.77152 0.05486 0.85815 0.0
N1038 N 0.71618 0.05592 0.9183 0.0
C1039 C 0.70475 0.03805 0.88146 0.0
C1040 C 0.73508 0.03729 0.84871 0.0
C1041 C 0.99542 0.70587 0.84274 0.0
C1042 C 0.02473 0.70861 0.81082 0.0
C1043 C 0.99644 0.67359 0.87225 0.0
C1044 C 0.02624 0.64234 0.87014 0.0
H1045 H 0.97081 0.72813 0.84394 0.0
H1046 H 0.97313 0.67246 0.89629 0.0
S1047 S 0.11172 0.63753 0.79445 0.0
N1048 N 0.08641 0.6797 0.78097 0.0
N1049 N 0.0869 0.6174 0.8348 0.0
C1050 C 0.05611 0.64513 0.83877 0.0
C1051 C 0.05575 0.67875 0.80953 0.0
C1052 C 0.22358 0.34684 0.99113 0.0
C1053 C 0.21941 0.31238 0.01824 0.0
C1054 C 0.19376 0.37833 0.98889 0.0
C1055 C 0.15794 0.37656 0.01322 0.0
H1056 H 0.25157 0.35077 0.97357 0.0
H1057 H 0.19914 0.4046 0.96841 0.0
S1058 S 0.13198 0.29282 0.08903 0.0
N1059 N 0.17667 0.27874 0.06995 0.0
N1060 N 0.1199 0.33642 0.06479 0.0
C1061 C 0.15266 0.34136 0.03919 0.0
C1062 C 0.18345 0.30974 0.04193 0.0
C1063 C 0.21523 0.68736 0.03172 0.0
C1064 C 0.21746 0.71523 0.99749 0.0
C1065 C 0.18562 0.65567 0.03355 0.0
C1066 C 0.15634 0.65097 1.00161 0.0
H1067 H 0.23872 0.68814 0.05562 0.0
H1068 H 0.18615 0.63421 0.05977 0.0
S1069 S 0.14744 0.71653 0.90612 0.0
N1070 N 0.1871 0.736 0.93135 0.0
N1071 N 0.13016 0.67826 0.93573 0.0
C1072 C 0.1567 0.68002 0.96846 0.0
C1073 C 0.18746 0.71167 0.96619 0.0
C1074 C 0.33349 0.1788 0.03485 0.0
C1075 C 0.34196 0.21776 0.0164 0.0
C1076 C 0.36223 0.14583 0.03454 0.0
C1077 C 0.40146 0.15044 0.01685 0.0
H1078 H 0.30468 0.17408 0.05066 0.0
H1079 H 0.35407 0.11689 0.04946 0.0
S1080 S 0.43744 0.24372 0.95914 0.0
N1081 N 0.39106 0.2561 0.9745 0.0
N1082 N 0.44565 0.19661 0.97747 0.0
C1083 C 0.40985 0.18884 0.99738 0.0
C1084 C 0.38014 0.22174 0.99632 0.0
C1085 C 0.84774 0.34199 0.06354 0.0
C1086 C 0.83202 0.31888 0.02957 0.0
C1087 C 0.87901 0.3715 0.05805 0.0
C1088 C 0.89583 0.37956 0.01818 0.0
H1089 H 0.83543 0.33728 0.09477 0.0
H1090 H 0.88988 0.38846 0.08524 0.0
S1091 S 0.86331 0.33061 0.91814 0.0
N1092 N 0.83436 0.30816 0.95405 0.0
N1093 N 0.89304 0.36341 0.9437 0.0
C1094 C 0.88019 0.35712 0.98377 0.0
C1095 C 0.84834 0.32687 0.98942 0.0
C1096 C 0.73413 0.86409 0.97258 0.0
C1097 C 0.73436 0.82864 0.99822 0.0
C1098 C 0.7013 0.89216 0.97346 0.0
C1099 C 0.66678 0.88495 0.9989 0.0
H1100 H 0.7584 0.86881 0.95005 0.0
H1101 H 0.70221 0.91888 0.95284 0.0
S1102 S 0.6538 0.79843 0.07413 0.0
N1103 N 0.69855 0.78985 0.0521 0.0
N1104 N 0.63633 0.84142 0.05249 0.0
C1105 C 0.6673 0.85051 0.0257 0.0
C1106 C 0.70123 0.82279 0.02576 0.0
C1107 C 0.82568 0.66954 0.02453 0.0
C1108 C 0.83104 0.70872 1.0055 0.0
C1109 C 0.85712 0.63986 0.0257 0.0
C1110 C 0.8958 0.64787 1.00831 0.0
H1111 H 0.79695 0.66111 0.03842 0.0
H1112 H 0.85084 0.61018 0.04026 0.0
S1113 S 0.92629 0.74601 0.9556 0.0
N1114 N 0.8784 0.75386 0.96921 0.0
N1115 N 0.9378 0.69904 0.97244 0.0
C1116 C 0.90209 0.68752 0.99054 0.0
C1117 C 0.86978 0.71757 0.98893 0.0
C1118 C 0.37173 0.81525 0.96349 0.0
C1119 C 0.3405 0.8113 0.99388 0.0
C1120 C 0.40097 0.8475 0.96486 0.0
C1121 C 0.40001 0.87851 0.99605 0.0
H1122 H 0.3736 0.79307 0.93809 0.0
H1123 H 0.42429 0.84842 0.9408 0.0
S1124 S 0.3268 0.88213 0.08501 0.0
N1125 N 0.31307 0.84041 0.05844 0.0
N1126 N 0.3655 0.90246 0.059 0.0
C1127 C 0.36882 0.87538 0.0265 0.0
C1128 C 0.3398 0.84162 0.02595 0.0
C1129 C 0.70132 0.20594 1.00567 0.0
C1130 C 0.73415 0.1995 0.03362 0.0
C1131 C 0.66842 0.178 1.0033 0.0
C1132 C 0.66746 0.14204 0.02823 0.0
H1133 H 0.69989 0.23437 0.98762 0.0
H1134 H 0.6435 0.1847 0.98203 0.0
S1135 S 0.7464 0.10993 0.10521 0.0
N1136 N 0.76356 0.15433 0.08622 0.0
N1137 N 0.70314 0.10059 0.08041 0.0
C1138 C 0.701 0.13424 0.05479 0.0
C1139 C 0.73399 0.16317 0.05777 0.0
C1140 C 0.58242 0.67107 0.81183 0.0
C1141 C 0.54825 0.69332 0.79769 0.0
C1142 C 0.57886 0.6409 0.84349 0.0
C1143 C 0.54097 0.63193 0.86182 0.0
H1144 H 0.61248 0.67981 0.80102 0.0
H1145 H 0.60619 0.62617 0.85531 0.0
S1146 S 0.44205 0.67927 0.83378 0.0
N1147 N 0.47528 0.7027 0.8028 0.0
N1148 N 0.46836 0.6453 0.86162 0.0
C1149 C 0.50629 0.65193 0.8461 0.0
C1150 C 0.50995 0.68263 0.81395 0.0
C1151 C 0.3438 0.47863 0.84218 0.0
C1152 C 0.34722 0.50454 0.80652 0.0
C1153 C 0.37335 0.47879 0.8743 0.0
C1154 C 0.40821 0.5039 0.87139 0.0
H1155 H 0.31615 0.46093 0.84694 0.0
H1156 H 0.36845 0.45979 0.90194 0.0
S1157 S 0.43379 0.5739 0.78238 0.0
N1158 N 0.38914 0.55408 0.76935 0.0
N1159 N 0.44612 0.5526 0.82791 0.0
C1160 C 0.41351 0.52746 0.83433 0.0
C1161 C 0.38281 0.52808 0.80229 0.0
C1162 C 0.49235 0.31913 0.84811 0.0
C1163 C 0.5226 0.31342 0.81723 0.0
C1164 C 0.49749 0.34757 0.88108 0.0
C1165 C 0.53289 0.37175 0.88397 0.0
H1166 H 0.46456 0.30111 0.84682 0.0
H1167 H 0.47323 0.35138 0.90385 0.0
S1168 S 0.62221 0.36734 0.81302 0.0
N1169 N 0.59038 0.33256 0.79362 0.0
N1170 N 0.59896 0.38797 0.85404 0.0
C1171 C 0.56334 0.36655 0.85342 0.0
C1172 C 0.55849 0.33691 0.82039 0.0
C1173 C 0.72692 0.48322 0.83863 0.0
C1174 C 0.71911 0.50615 0.8017 0.0
C1175 C 0.69888 0.4821 0.87189 0.0
C1176 C 0.6616 0.50303 0.86884 0.0
H1177 H 0.75638 0.46893 0.84309 0.0
H1178 H 0.70679 0.46554 0.90039 0.0
S1179 S 0.62525 0.56376 0.77663 0.0
N1180 N 0.67113 0.54789 0.76293 0.0
N1181 N 0.61704 0.54452 0.82403 0.0
C1182 C 0.6523 0.5235 0.83065 0.0
C1183 C 0.68132 0.52521 0.79734 0.0
C1184 C 0.55983 0.33054 0.18995 0.0
C1185 C 0.52614 0.33041 0.21727 0.0
C1186 C 0.56442 0.36143 0.15927 0.0
C1187 C 0.53603 0.39375 0.15576 0.0
H1188 H 0.58055 0.30445 0.18989 0.0
H1189 H 0.5894 0.35914 0.13715 0.0
S1190 S 0.44459 0.4092 0.22216 0.0
N1191 N 0.46531 0.36607 0.2403 0.0
N1192 N 0.47485 0.42554 0.18409 0.0
C1193 C 0.50405 0.39576 0.18506 0.0
C1194 C 0.49894 0.36375 0.21561 0.0
C1195 C 0.68424 0.50057 0.21729 0.0
C1196 C 0.7196 0.52484 0.21616 0.0
C1197 C 0.65659 0.50085 0.18362 0.0
C1198 C 0.66391 0.52458 0.14707 0.0
H1199 H 0.67942 0.47925 0.24312 0.0
H1200 H 0.63021 0.48075 0.18543 0.0
S1201 S 0.75069 0.59593 0.13027 0.0
N1202 N 0.75886 0.57575 0.17728 0.0
N1203 N 0.7077 0.57523 0.11328 0.0
C1204 C 0.69825 0.55034 0.14635 0.0
C1205 C 0.72575 0.55087 0.18116 0.0
C1206 C 0.49041 0.70034 0.17438 0.0
C1207 C 0.52257 0.71256 0.2009 0.0
C1208 C 0.49637 0.67189 0.1417 0.0
C1209 C 0.53476 0.65442 0.13437 0.0
H1210 H 0.46033 0.71324 0.17897 0.0
H1211 H 0.47059 0.66293 0.12249 0.0
S1212 S 0.62952 0.67694 0.1933 0.0
N1213 N 0.59479 0.70639 0.21611 0.0
N1214 N 0.60561 0.65109 0.15581 0.0
C1215 C 0.56727 0.66604 0.16061 0.0
C1216 C 0.56131 0.69562 0.19361 0.0
C1217 C 0.38229 0.55251 0.21183 0.0
C1218 C 0.34884 0.52533 0.21297 0.0
C1219 C 0.41218 0.54948 0.18012 0.0
C1220 C 0.40899 0.51999 0.14751 0.0
H1221 H 0.38391 0.57785 0.23406 0.0
H1222 H 0.43681 0.57183 0.17987 0.0
S1223 S 0.32908 0.43936 0.13839 0.0
N1224 N 0.31611 0.46598 0.18069 0.0
N1225 N 0.3714 0.46087 0.12066 0.0
C1226 C 0.37672 0.49147 0.14946 0.0
C1227 C 0.34699 0.49393 0.18231 0.0
C1228 C 0.87627 0.48344 0.71276 0.0
C1229 C 0.83851 0.50316 0.70666 0.0
C1230 C 0.90601 0.48265 0.68089 0.0
C1231 C 0.89924 0.50154 0.64152 0.0
H1232 H 0.88327 0.46889 0.74249 0.0
H1233 H 0.93469 0.46741 0.68742 0.0
S1234 S 0.80516 0.558 0.61036 0.0
N1235 N 0.79601 0.54222 0.65884 0.0
N1236 N 0.85111 0.5408 0.59876 0.0
C1237 C 0.86107 0.5207 0.6349 0.0
C1238 C 0.83099 0.52147 0.66744 0.0
C1239 C 0.5747 0.85292 0.70277 0.0
C1240 C 0.54501 0.8218 0.70833 0.0
C1241 C 0.56853 0.88635 0.67518 0.0
C1242 C 0.53256 0.88965 0.65163 0.0
H1243 H 0.60284 0.85154 0.72046 0.0
H1244 H 0.59252 0.90911 0.67138 0.0
S1245 S 0.44462 0.81764 0.65528 0.0
N1246 N 0.47739 0.79788 0.68924 0.0
N1247 N 0.46674 0.85929 0.63543 0.0
C1248 C 0.50275 0.85865 0.65645 0.0
C1249 C 0.50871 0.82505 0.68521 0.0
C1250 C 0.19995 0.54376 0.69958 0.0
C1251 C 0.225 0.50978 0.71017 0.0
C1252 C 0.16972 0.541 0.66819 0.0
C1253 C 0.16302 0.50406 0.64578 0.0
H1254 H 0.20378 0.57291 0.71596 0.0
H1255 H 0.15148 0.56813 0.66128 0.0
S1256 S 0.21736 0.40484 0.66285 0.0
N1257 N 0.23853 0.43685 0.69705 0.0
N1258 N 0.18289 0.43224 0.63715 0.0
C1259 C 0.18745 0.46969 0.65601 0.0
C1260 C 0.21809 0.47234 0.68837 0.0
C1261 C 0.56099 0.20512 0.67921 0.0
C1262 C 0.52418 0.22597 0.68701 0.0
C1263 C 0.56301 0.17305 0.64949 0.0
C1264 C 0.52828 0.16091 0.62699 0.0
H1265 H 0.58714 0.21099 0.69909 0.0
H1266 H 0.59147 0.15689 0.64494 0.0
S1267 S 0.42747 0.21206 0.62903 0.0
N1268 N 0.45426 0.23655 0.66539 0.0
N1269 N 0.45834 0.17708 0.6085 0.0
C1270 C 0.49274 0.18463 0.63097 0.0
C1271 C 0.49065 0.21706 0.6613 0.0
C1272 C 0.83459 0.51225 0.34825 0.0
C1273 C 0.84009 0.53315 0.30991 0.0
C1274 C 0.86456 0.51309 0.37984 0.0
C1275 C 0.90171 0.53446 0.37423 0.0
H1276 H 0.80749 0.49373 0.35308 0.0
H1277 H 0.85905 0.49548 0.40829 0.0
S1278 S 0.92913 0.59786 0.28112 0.0
N1279 N 0.88374 0.57899 0.26958 0.0
N1280 N 0.94061 0.57967 0.32816 0.0
C1281 C 0.90689 0.55672 0.33651 0.0
C1282 C 0.87603 0.55626 0.30457 0.0
C1283 C 0.55034 0.8366 0.32323 0.0
C1284 C 0.52006 0.80581 0.32582 0.0
C1285 C 0.55311 0.86817 0.35339 0.0
C1286 C 0.52639 0.86938 0.38783 0.0
H1287 H 0.56974 0.83809 0.29573 0.0
H1288 H 0.57552 0.8924 0.34908 0.0
S1289 S 0.44368 0.79425 0.4103 0.0
N1290 N 0.464 0.77754 0.36592 0.0
N1291 N 0.4703 0.83554 0.4241 0.0
C1292 C 0.49781 0.83713 0.39227 0.0
C1293 C 0.49445 0.80558 0.36095 0.0
C1294 C 0.18778 0.50582 0.30227 0.0
C1295 C 0.22602 0.52523 0.3073 0.0
C1296 C 0.15811 0.50613 0.3345 0.0
C1297 C 0.1654 0.52522 0.3737 0.0
H1298 H 0.18046 0.4902 0.2732 0.0
H1299 H 0.12923 0.49093 0.3287 0.0
S1300 S 0.25998 0.58128 0.403 0.0
N1301 N 0.26876 0.56511 0.35456 0.0
N1302 N 0.21407 0.56427 0.41533 0.0
C1303 C 0.20378 0.54399 0.37946 0.0
C1304 C 0.23371 0.5443 0.34637 0.0
C1305 C 0.55474 0.19606 0.32606 0.0
C1306 C 0.51631 0.20546 0.30912 0.0
C1307 C 0.55962 0.16271 0.35423 0.0
C1308 C 0.52632 0.13764 0.36572 0.0
H1309 H 0.58116 0.21387 0.31665 0.0
H1310 H 0.5895 0.15648 0.36712 0.0
S1311 S 0.41949 0.1508 0.33108 0.0
N1312 N 0.44469 0.18775 0.30626 0.0
N1313 N 0.45357 0.12609 0.35993 0.0
C1314 C 0.48783 0.1473 0.34948 0.0
C1315 C 0.48295 0.18091 0.32089 0.0
C1316 C 0.71864 0.8426 0.49296 0.0
C1317 C 0.71804 0.81216 0.52491 0.0
C1318 C 0.68883 0.87401 0.49054 0.0
C1319 C 0.6564 0.87587 0.5194 0.0
H1320 H 0.74429 0.84392 0.47159 0.0
H1321 H 0.69164 0.89747 0.46633 0.0
S1322 S 0.63949 0.80279 0.60797 0.0
N1323 N 0.68177 0.78589 0.58562 0.0
N1324 N 0.6245 0.84308 0.57986 0.0
C1325 C 0.65411 0.84428 0.55006 0.0
C1326 C 0.6851 0.81293 0.55308 0.0
C1327 C 0.72533 0.17955 0.52577 0.0
C1328 C 0.72403 0.21181 0.49572 0.0
C1329 C 0.69487 0.1487 0.52788 0.0
C1330 C 0.66109 0.14914 0.5006 0.0
H1331 H 0.75172 0.17667 0.54598 0.0
H1332 H 0.69811 0.12399 0.5507 0.0
S1333 S 0.6423 0.22745 0.41708 0.0
N1334 N 0.6859 0.24213 0.43833 0.0
N1335 N 0.62755 0.18598 0.44355 0.0
C1336 C 0.65838 0.1824 0.47179 0.0
C1337 C 0.68998 0.21322 0.46906 0.0
C1338 C 0.87157 0.71185 0.5582 0.0
C1339 C 0.84175 0.71769 0.5266 0.0
C1340 C 0.90118 0.68003 0.55599 0.0
C1341 C 0.90221 0.65154 0.52241 0.0
H1342 H 0.87197 0.73222 0.58522 0.0
H1343 H 0.92319 0.67738 0.58123 0.0
S1344 S 0.83449 0.65484 0.4289 0.0
N1345 N 0.81847 0.69385 0.45817 0.0
N1346 N 0.87189 0.63278 0.45547 0.0
C1347 C 0.87284 0.65697 0.49039 0.0
C1348 C 0.84329 0.69017 0.49207 0.0
C1349 C 0.36922 0.81108 0.51419 0.0
C1350 C 0.32991 0.82132 0.52863 0.0
C1351 C 0.40083 0.84087 0.51235 0.0
C1352 C 0.39432 0.88264 0.52373 0.0
H1353 H 0.37519 0.78005 0.50289 0.0
H1354 H 0.43028 0.83128 0.50071 0.0
S1355 S 0.29916 0.92433 0.57012 0.0
N1356 N 0.28859 0.87528 0.56042 0.0
N1357 N 0.34646 0.93128 0.55431 0.0
C1358 C 0.35569 0.89278 0.53992 0.0
C1359 C 0.32392 0.86225 0.54289 0.0
C1360 C 0.23393 0.36477 0.52671 0.0
C1361 C 0.23351 0.32776 0.50373 0.0
C1362 C 0.20192 0.3935 0.52326 0.0
C1363 C 0.16753 0.38587 0.49751 0.0
H1364 H 0.25774 0.37015 0.54962 0.0
H1365 H 0.20324 0.421 0.54272 0.0
S1366 S 0.153 0.29405 0.42938 0.0
N1367 N 0.19742 0.28604 0.45234 0.0
N1368 N 0.13653 0.33914 0.44704 0.0
C1369 C 0.16758 0.34967 0.47314 0.0
C1370 C 0.20081 0.32106 0.47575 0.0
C1371 C 0.34163 0.18096 0.54602 0.0
C1372 C 0.33353 0.2097 0.51353 0.0
C1373 C 0.3729 0.15125 0.54284 0.0
C1374 C 0.3986 0.1495 0.50751 0.0
H1375 H 0.32322 0.18119 0.57425 0.0
H1376 H 0.37721 0.1296 0.56853 0.0
S1377 S 0.39045 0.216 0.41281 0.0
N1378 N 0.35285 0.23186 0.4432 0.0
N1379 N 0.41404 0.17901 0.43921 0.0
C1380 C 0.39164 0.17836 0.47507 0.0
C1381 C 0.35862 0.20766 0.47755 0.0
C1382 C 0.87148 0.31987 0.45802 0.0
C1383 C 0.84366 0.31195 0.491 0.0
C1384 C 0.89983 0.35289 0.45952 0.0
C1385 C 0.90137 0.38062 0.49371 0.0
H1386 H 0.87137 0.30013 0.43054 0.0
H1387 H 0.92062 0.35691 0.43338 0.0
S1388 S 0.83858 0.37229 0.59042 0.0
N1389 N 0.82264 0.3333 0.56101 0.0
N1390 N 0.87373 0.39658 0.56256 0.0
C1391 C 0.87385 0.37329 0.52701 0.0
C1392 C 0.84562 0.33884 0.52601 0.0
C1393 C 0.24099 0.65897 0.51111 0.0
C1394 C 0.23885 0.69697 0.53225 0.0
C1395 C 0.20796 0.63124 0.51122 0.0
C1396 C 0.17082 0.64065 0.53171 0.0
H1397 H 0.26717 0.65216 0.49163 0.0
H1398 H 0.211 0.60305 0.49311 0.0
S1399 S 0.15152 0.73453 0.59552 0.0
N1400 N 0.19832 0.74092 0.57769 0.0
N1401 N 0.13584 0.68943 0.57708 0.0
C1402 C 0.16923 0.6775 0.55505 0.0
C1403 C 0.20334 0.70529 0.55569 0.0
loop_
_geom_bond_atom_site_label_1
_geom_bond_atom_site_label_2
_geom_bond_distance
_geom_bond_site_symmetry_2
_ccdc_geom_bond_type
C0 N1 1.317 . S
C0 N2 1.348 . S
C0 C3 1.485 . S
N1 C0 1.317 . S
N1 N5 1.370 . S
N2 C0 1.348 . S
N2 C4 1.346 . S
C3 C0 1.485 . S
C3 H7 0.960 1_455 S
C3 H8 0.961 . S
C3 H9 0.960 . S
C4 N2 1.346 . S
C4 N5 1.307 . S
C4 C6 1.486 . S
N5 N1 1.370 . S
N5 C4 1.307 . S
C6 C4 1.486 . S
C6 H10 0.960 . S
C6 H11 0.960 1_455 S
C6 H12 0.959 . S
H7 C3 0.960 1_655 S
H8 C3 0.961 . S
H9 C3 0.960 . S
H10 C6 0.960 . S
H11 C6 0.960 1_655 S
H12 C6 0.959 . S
C13 N14 1.317 . S
C13 N15 1.348 . S
C13 C16 1.485 . S
N14 C13 1.317 . S
N14 N18 1.370 . S
N15 C13 1.348 . S
N15 C17 1.347 . S
C16 C13 1.485 . S
C16 H20 0.960 1_545 S
C16 H21 0.961 . S
C16 H22 0.960 . S
C17 N15 1.347 . S
C17 N18 1.307 . S
C17 C19 1.486 1_545 S
N18 N14 1.370 . S
N18 C17 1.307 . S
C19 C17 1.486 1_565 S
C19 H23 0.938 1_565 S
C19 H24 0.978 . S
C19 H25 0.963 . S
H20 C16 0.960 1_565 S
H21 C16 0.961 . S
H22 C16 0.960 . S
H23 C19 0.938 1_545 S
H24 C19 0.978 . S
H25 C19 0.963 . S
C26 N27 1.317 . S
C26 N28 1.348 . S
C26 C29 1.485 . S
N27 C26 1.317 . S
N27 N31 1.370 . S
N28 C26 1.348 . S
N28 C30 1.346 . S
C29 C26 1.485 . S
C29 H33 0.960 1_455 S
C29 H34 0.961 . S
C29 H35 0.960 . S
C30 N28 1.346 . S
C30 N31 1.307 . S
C30 C32 1.486 . S
N31 N27 1.370 . S
N31 C30 1.307 . S
C32 C30 1.486 . S
C32 H36 0.960 . S
C32 H37 0.960 1_455 S
C32 H38 0.959 . S
H33 C29 0.960 1_655 S
H34 C29 0.961 . S
H35 C29 0.960 . S
H36 C32 0.960 . S
H37 C32 0.960 1_655 S
H38 C32 0.959 . S
C39 N40 1.317 . S
C39 N41 1.349 . S
C39 C42 1.485 . S
N40 C39 1.317 . S
N40 N44 1.370 1_565 S
N41 C39 1.349 . S
N41 C43 1.346 1_565 S
C42 C39 1.485 . S
C42 H46 0.960 1_565 S
C42 H47 0.961 . S
C42 H48 0.960 . S
C43 N41 1.346 1_545 S
C43 N44 1.307 . S
C43 C45 1.486 . S
N44 N40 1.370 1_545 S
N44 C43 1.307 . S
C45 C43 1.486 . S
C45 H49 0.960 1_545 S
C45 H50 0.960 . S
C45 H51 0.959 . S
H46 C42 0.960 1_545 S
H47 C42 0.961 . S
H48 C42 0.960 . S
H49 C45 0.960 1_565 S
H50 C45 0.960 . S
H51 C45 0.959 . S
C52 N53 1.317 . S
C52 N54 1.348 . S
C52 C55 1.485 . S
N53 C52 1.317 . S
N53 N57 1.370 . S
N54 C52 1.348 . S
N54 C56 1.346 . S
C55 C52 1.485 . S
C55 H59 0.960 1_455 S
C55 H60 0.961 . S
C55 H61 0.960 . S
C56 N54 1.346 . S
C56 N57 1.307 . S
C56 C58 1.486 . S
N57 N53 1.370 . S
N57 C56 1.307 . S
C58 C56 1.486 . S
C58 H62 0.960 . S
C58 H63 0.960 1_455 S
C58 H64 0.959 . S
H59 C55 0.960 1_655 S
H60 C55 0.961 . S
H61 C55 0.960 . S
H62 C58 0.960 . S
H63 C58 0.960 1_655 S
H64 C58 0.959 . S
C65 N66 1.317 . S
C65 N67 1.348 . S
C65 C68 1.485 . S
N66 C65 1.317 . S
N66 N70 1.371 . S
N67 C65 1.348 . S
N67 C69 1.346 1_545 S
C68 C65 1.485 . S
C68 H72 0.960 1_545 S
C68 H73 0.961 . S
C68 H74 0.960 . S
C69 N67 1.346 1_565 S
C69 N70 1.307 1_565 S
C69 C71 1.486 . S
N70 N66 1.371 . S
N70 C69 1.307 1_545 S
C71 C69 1.486 . S
C71 H75 0.960 1_565 S
C71 H76 0.960 . S
C71 H77 0.959 . S
H72 C68 0.960 1_565 S
H73 C68 0.961 . S
H74 C68 0.960 . S
H75 C71 0.960 1_545 S
H76 C71 0.960 . S
H77 C71 0.959 . S
C78 N79 1.317 . S
C78 N80 1.348 . S
C78 C81 1.485 . S
N79 C78 1.317 . S
N79 N83 1.370 . S
N80 C78 1.348 . S
N80 C82 1.346 . S
C81 C78 1.485 . S
C81 H85 0.960 1_455 S
C81 H86 0.961 . S
C81 H87 0.960 . S
C82 N80 1.346 . S
C82 N83 1.307 . S
C82 C84 1.486 . S
N83 N79 1.370 . S
N83 C82 1.307 . S
C84 C82 1.486 . S
C84 H88 0.960 . S
C84 H89 0.960 1_455 S
C84 H90 0.959 . S
H85 C81 0.960 1_655 S
H86 C81 0.961 . S
H87 C81 0.960 . S
H88 C84 0.960 . S
H89 C84 0.960 1_655 S
H90 C84 0.959 . S
C91 N92 1.317 . S
C91 N93 1.348 . S
C91 C94 1.485 . S
N92 C91 1.317 . S
N92 N96 1.371 . S
N93 C91 1.348 . S
N93 C95 1.346 1_565 S
C94 C91 1.485 . S
C94 H98 0.960 1_565 S
C94 H99 0.961 . S
C94 H100 0.960 . S
C95 N93 1.346 1_545 S
C95 N96 1.307 1_545 S
C95 C97 1.486 . S
N96 N92 1.371 . S
N96 C95 1.307 1_565 S
C97 C95 1.486 . S
C97 H101 0.960 1_545 S
C97 H102 0.960 . S
C97 H103 0.959 . S
H98 C94 0.960 1_545 S
H99 C94 0.961 . S
H100 C94 0.960 . S
H101 C97 0.960 1_565 S
H102 C97 0.960 . S
H103 C97 0.959 . S
C104 N105 1.317 . S
C104 N106 1.348 . S
C104 C107 1.485 . S
N105 C104 1.317 . S
N105 N109 1.371 . S
N106 C104 1.348 . S
N106 C108 1.346 1_554 S
C107 C104 1.485 . S
C107 H111 0.960 1_554 S
C107 H112 0.961 . S
C107 H113 0.960 . S
C108 N106 1.346 1_556 S
C108 N109 1.307 1_556 S
C108 C110 1.486 . S
N109 N105 1.371 . S
N109 C108 1.307 1_554 S
C110 C108 1.486 . S
C110 H114 0.960 1_556 S
C110 H115 0.960 . S
C110 H116 0.959 . S
H111 C107 0.960 1_556 S
H112 C107 0.961 . S
H113 C107 0.960 . S
H114 C110 0.960 1_554 S
H115 C110 0.960 . S
H116 C110 0.959 . S
C117 N118 1.317 . S
C117 N119 1.349 . S
C117 C120 1.485 . S
N118 C117 1.317 . S
N118 N122 1.370 1_556 S
N119 C117 1.349 . S
N119 C121 1.346 1_556 S
C120 C117 1.485 . S
C120 H124 0.960 1_556 S
C120 H125 0.961 . S
C120 H126 0.960 . S
C121 N119 1.346 1_554 S
C121 N122 1.307 . S
C121 C123 1.486 . S
N122 N118 1.370 1_554 S
N122 C121 1.307 . S
C123 C121 1.486 . S
C123 H127 0.960 1_554 S
C123 H128 0.960 . S
C123 H129 0.959 . S
H124 C120 0.960 1_554 S
H125 C120 0.961 . S
H126 C120 0.960 . S
H127 C123 0.960 1_556 S
H128 C123 0.960 . S
H129 C123 0.959 . S
C130 N131 1.317 . S
C130 N132 1.348 . S
C130 C133 1.485 . S
N131 C130 1.317 . S
N131 N135 1.371 . S
N132 C130 1.348 . S
N132 C134 1.346 1_556 S
C133 C130 1.485 . S
C133 H137 0.960 1_556 S
C133 H138 0.961 . S
C133 H139 0.960 . S
C134 N132 1.346 1_554 S
C134 N135 1.307 1_554 S
C134 C136 1.486 . S
N135 N131 1.371 . S
N135 C134 1.307 1_556 S
C136 C134 1.486 . S
C136 H140 0.960 1_554 S
C136 H141 0.960 . S
C136 H142 0.959 . S
H137 C133 0.960 1_554 S
H138 C133 0.961 . S
H139 C133 0.960 . S
H140 C136 0.960 1_556 S
H141 C136 0.960 . S
H142 C136 0.959 . S
C143 N144 1.317 . S
C143 N145 1.348 . S
C143 C146 1.485 . S
N144 C143 1.317 . S
N144 N148 1.370 . S
N145 C143 1.348 . S
N145 C147 1.347 . S
C146 C143 1.485 . S
C146 H150 0.960 1_554 S
C146 H151 0.961 . S
C146 H152 0.960 . S
C147 N145 1.347 . S
C147 N148 1.307 . S
C147 C149 1.486 1_554 S
N148 N144 1.370 . S
N148 C147 1.307 . S
C149 C147 1.486 1_556 S
C149 H153 0.936 1_556 S
C149 H154 0.980 . S
C149 H155 0.964 . S
H150 C146 0.960 1_556 S
H151 C146 0.961 . S
H152 C146 0.960 . S
H153 C149 0.936 1_554 S
H154 C149 0.980 . S
H155 C149 0.964 . S
C156 N157 1.317 . S
C156 N158 1.348 . S
C156 C159 1.485 . S
N157 C156 1.317 . S
N157 N161 1.370 . S
N158 C156 1.348 . S
N158 C160 1.346 . S
C159 C156 1.485 . S
C159 H163 0.960 . S
C159 H164 0.961 . S
C159 H165 0.960 . S
C160 N158 1.346 . S
C160 N161 1.307 . S
C160 C162 1.486 . S
N161 N157 1.370 . S
N161 C160 1.307 . S
C162 C160 1.486 . S
C162 H166 0.960 . S
C162 H167 0.960 . S
C162 H168 0.959 . S
H163 C159 0.960 . S
H164 C159 0.961 . S
H165 C159 0.960 . S
H166 C162 0.960 . S
H167 C162 0.960 . S
H168 C162 0.959 . S
C169 N170 1.317 . S
C169 N171 1.348 . S
C169 C172 1.485 . S
N170 C169 1.317 . S
N170 N174 1.370 . S
N171 C169 1.348 . S
N171 C173 1.346 . S
C172 C169 1.485 . S
C172 H176 0.960 . S
C172 H177 0.961 . S
C172 H178 0.960 . S
C173 N171 1.346 . S
C173 N174 1.307 . S
C173 C175 1.486 . S
N174 N170 1.370 . S
N174 C173 1.307 . S
C175 C173 1.486 . S
C175 H179 0.960 . S
C175 H180 0.960 . S
C175 H181 0.959 . S
H176 C172 0.960 . S
H177 C172 0.961 . S
H178 C172 0.960 . S
H179 C175 0.960 . S
H180 C175 0.960 . S
H181 C175 0.959 . S
C182 N183 1.317 . S
C182 N184 1.348 . S
C182 C185 1.485 . S
N183 C182 1.317 . S
N183 N187 1.370 . S
N184 C182 1.348 . S
N184 C186 1.346 . S
C185 C182 1.485 . S
C185 H189 0.960 . S
C185 H190 0.961 . S
C185 H191 0.960 . S
C186 N184 1.346 . S
C186 N187 1.307 . S
C186 C188 1.486 . S
N187 N183 1.370 . S
N187 C186 1.307 . S
C188 C186 1.486 . S
C188 H192 0.960 . S
C188 H193 0.960 . S
C188 H194 0.959 . S
H189 C185 0.960 . S
H190 C185 0.961 . S
H191 C185 0.960 . S
H192 C188 0.960 . S
H193 C188 0.960 . S
H194 C188 0.959 . S
C195 N196 1.317 . S
C195 N197 1.348 . S
C195 C198 1.485 . S
N196 C195 1.317 . S
N196 N200 1.370 . S
N197 C195 1.348 . S
N197 C199 1.346 . S
C198 C195 1.485 . S
C198 H202 0.960 . S
C198 H203 0.961 . S
C198 H204 0.960 . S
C199 N197 1.346 . S
C199 N200 1.307 . S
C199 C201 1.486 . S
N200 N196 1.370 . S
N200 C199 1.307 . S
C201 C199 1.486 . S
C201 H205 0.960 . S
C201 H206 0.960 . S
C201 H207 0.959 . S
H202 C198 0.960 . S
H203 C198 0.961 . S
H204 C198 0.960 . S
H205 C201 0.960 . S
H206 C201 0.960 . S
H207 C201 0.959 . S
C208 N209 1.317 . S
C208 N210 1.348 . S
C208 C211 1.485 . S
N209 C208 1.317 . S
N209 N213 1.370 . S
N210 C208 1.348 . S
N210 C212 1.346 . S
C211 C208 1.485 . S
C211 H215 0.960 . S
C211 H216 0.961 . S
C211 H217 0.960 . S
C212 N210 1.346 . S
C212 N213 1.307 . S
C212 C214 1.486 . S
N213 N209 1.370 . S
N213 C212 1.307 . S
C214 C212 1.486 . S
C214 H218 0.960 . S
C214 H219 0.960 . S
C214 H220 0.959 . S
H215 C211 0.960 . S
H216 C211 0.961 . S
H217 C211 0.960 . S
H218 C214 0.960 . S
H219 C214 0.960 . S
H220 C214 0.959 . S
C221 N222 1.317 . S
C221 N223 1.348 . S
C221 C224 1.485 . S
N222 C221 1.317 . S
N222 N226 1.370 . S
N223 C221 1.348 . S
N223 C225 1.346 . S
C224 C221 1.485 . S
C224 H228 0.960 . S
C224 H229 0.961 . S
C224 H230 0.960 . S
C225 N223 1.346 . S
C225 N226 1.307 . S
C225 C227 1.486 . S
N226 N222 1.370 . S
N226 C225 1.307 . S
C227 C225 1.486 . S
C227 H231 0.960 . S
C227 H232 0.960 . S
C227 H233 0.959 . S
H228 C224 0.960 . S
H229 C224 0.961 . S
H230 C224 0.960 . S
H231 C227 0.960 . S
H232 C227 0.960 . S
H233 C227 0.959 . S
C234 N235 1.317 . S
C234 N236 1.348 . S
C234 C237 1.485 . S
N235 C234 1.317 . S
N235 N239 1.370 . S
N236 C234 1.348 . S
N236 C238 1.346 . S
C237 C234 1.485 . S
C237 H241 0.960 . S
C237 H242 0.961 . S
C237 H243 0.960 . S
C238 N236 1.346 . S
C238 N239 1.307 . S
C238 C240 1.486 . S
N239 N235 1.370 . S
N239 C238 1.307 . S
C240 C238 1.486 . S
C240 H244 0.960 . S
C240 H245 0.960 . S
C240 H246 0.959 . S
H241 C237 0.960 . S
H242 C237 0.961 . S
H243 C237 0.960 . S
H244 C240 0.960 . S
H245 C240 0.960 . S
H246 C240 0.959 . S
C247 N248 1.317 . S
C247 N249 1.348 . S
C247 C250 1.485 . S
N248 C247 1.317 . S
N248 N252 1.370 . S
N249 C247 1.348 . S
N249 C251 1.346 . S
C250 C247 1.485 . S
C250 H254 0.960 . S
C250 H255 0.961 . S
C250 H256 0.960 . S
C251 N249 1.346 . S
C251 N252 1.307 . S
C251 C253 1.486 . S
N252 N248 1.370 . S
N252 C251 1.307 . S
C253 C251 1.486 . S
C253 H257 0.960 . S
C253 H258 0.960 . S
C253 H259 0.959 . S
H254 C250 0.960 . S
H255 C250 0.961 . S
H256 C250 0.960 . S
H257 C253 0.960 . S
H258 C253 0.960 . S
H259 C253 0.959 . S
C260 N261 1.317 . S
C260 N262 1.348 . S
C260 C263 1.485 . S
N261 C260 1.317 . S
N261 N265 1.370 . S
N262 C260 1.348 . S
N262 C264 1.346 . S
C263 C260 1.485 . S
C263 H267 0.960 . S
C263 H268 0.961 . S
C263 H269 0.960 . S
C264 N262 1.346 . S
C264 N265 1.307 . S
C264 C266 1.486 . S
N265 N261 1.370 . S
N265 C264 1.307 . S
C266 C264 1.486 . S
C266 H270 0.960 . S
C266 H271 0.960 . S
C266 H272 0.959 . S
H267 C263 0.960 . S
H268 C263 0.961 . S
H269 C263 0.960 . S
H270 C266 0.960 . S
H271 C266 0.960 . S
H272 C266 0.959 . S
C273 N274 1.317 . S
C273 N275 1.348 . S
C273 C276 1.485 . S
N274 C273 1.317 . S
N274 N278 1.370 . S
N275 C273 1.348 . S
N275 C277 1.346 . S
C276 C273 1.485 . S
C276 H280 0.960 . S
C276 H281 0.961 . S
C276 H282 0.960 . S
C277 N275 1.346 . S
C277 N278 1.307 . S
C277 C279 1.486 . S
N278 N274 1.370 . S
N278 C277 1.307 . S
C279 C277 1.486 . S
C279 H283 0.960 . S
C279 H284 0.960 . S
C279 H285 0.959 . S
H280 C276 0.960 . S
H281 C276 0.961 . S
H282 C276 0.960 . S
H283 C279 0.960 . S
H284 C279 0.960 . S
H285 C279 0.959 . S
C286 N287 1.317 . S
C286 N288 1.348 . S
C286 C289 1.485 . S
N287 C286 1.317 . S
N287 N291 1.370 . S
N288 C286 1.348 . S
N288 C290 1.346 . S
C289 C286 1.485 . S
C289 H293 0.960 . S
C289 H294 0.961 . S
C289 H295 0.960 . S
C290 N288 1.346 . S
C290 N291 1.307 . S
C290 C292 1.486 . S
N291 N287 1.370 . S
N291 C290 1.307 . S
C292 C290 1.486 . S
C292 H296 0.960 . S
C292 H297 0.960 . S
C292 H298 0.959 . S
H293 C289 0.960 . S
H294 C289 0.961 . S
H295 C289 0.960 . S
H296 C292 0.960 . S
H297 C292 0.960 . S
H298 C292 0.959 . S
C299 N300 1.317 . S
C299 N301 1.348 . S
C299 C302 1.485 . S
N300 C299 1.317 . S
N300 N304 1.370 . S
N301 C299 1.348 . S
N301 C303 1.346 . S
C302 C299 1.485 . S
C302 H306 0.960 . S
C302 H307 0.961 . S
C302 H308 0.960 . S
C303 N301 1.346 . S
C303 N304 1.307 . S
C303 C305 1.486 . S
N304 N300 1.370 . S
N304 C303 1.307 . S
C305 C303 1.486 . S
C305 H309 0.960 . S
C305 H310 0.960 . S
C305 H311 0.959 . S
H306 C302 0.960 . S
H307 C302 0.961 . S
H308 C302 0.960 . S
H309 C305 0.960 . S
H310 C305 0.960 . S
H311 C305 0.959 . S
C312 O338 1.283 . S
C312 O356 1.283 . S
C313 O339 1.283 . S
C313 O354 1.283 . S
C314 O340 1.283 . S
C314 O357 1.283 . S
C315 O341 1.283 . S
C315 O355 1.283 . S
C316 O342 1.283 . S
C316 O351 1.283 . S
C317 O343 1.283 . S
C317 O353 1.283 . S
C318 O344 1.283 . S
C318 O350 1.283 . S
C319 O345 1.283 . S
C319 O352 1.283 . S
C320 O346 1.283 . S
C320 O361 1.283 . S
C321 O347 1.283 . S
C321 O359 1.283 . S
C322 O348 1.283 . S
C322 O360 1.283 . S
C323 O349 1.283 . S
C323 O358 1.283 . S
Eu324 O325 2.370 1_455 S
Eu324 O326 2.370 . S
Eu324 O329 2.370 1_455 S
Eu324 O330 2.370 . S
Eu324 O338 2.363 . S
Eu324 O339 2.363 . S
Eu324 O352 2.363 . S
Eu324 O353 2.363 1_455 S
O325 Eu324 2.370 1_655 S
O325 Eu327 2.365 1_565 S
O325 Eu332 2.364 1_665 S
O326 Eu324 2.370 . S
O326 Eu328 2.365 1_565 S
O326 Eu331 2.366 1_565 S
Eu327 O325 2.365 1_545 S
Eu327 O329 2.365 1_545 S
Eu327 O333 2.375 . S
Eu327 O334 2.375 . S
Eu327 O342 2.372 . S
Eu327 O343 2.354 1_545 S
Eu327 O358 2.363 . S
Eu327 O359 2.363 . S
Eu328 O326 2.365 1_545 S
Eu328 O330 2.365 1_545 S
Eu328 O335 2.375 . S
Eu328 O336 2.375 . S
Eu328 O344 2.372 . S
Eu328 O345 2.354 1_545 S
Eu328 O360 2.363 . S
Eu328 O361 2.363 . S
O329 Eu324 2.370 1_655 S
O329 Eu327 2.365 1_565 S
O329 Eu331 2.366 1_665 S
O330 Eu324 2.370 . S
O330 Eu328 2.365 1_565 S
O330 Eu332 2.364 1_565 S
Eu331 O326 2.366 1_545 S
Eu331 O329 2.366 1_445 S
Eu331 O333 2.374 1_455 S
Eu331 O336 2.374 . S
Eu331 O348 2.363 . S
Eu331 O349 2.363 1_455 S
Eu331 O356 2.356 1_545 S
Eu331 O357 2.370 . S
Eu332 O325 2.364 1_445 S
Eu332 O330 2.364 1_545 S
Eu332 O334 2.376 1_455 S
Eu332 O335 2.376 . S
Eu332 O346 2.363 . S
Eu332 O347 2.363 1_455 S
Eu332 O354 2.353 1_545 S
Eu332 O355 2.373 . S
O333 Eu327 2.375 . S
O333 Eu331 2.374 1_655 S
O333 Eu337 2.370 1_655 S
O334 Eu327 2.375 . S
O334 Eu332 2.376 1_655 S
O334 Eu337 2.370 1_655 S
O335 Eu328 2.375 . S
O335 Eu332 2.376 . S
O335 Eu337 2.370 . S
O336 Eu328 2.375 . S
O336 Eu331 2.374 . S
O336 Eu337 2.370 . S
Eu337 O333 2.370 1_455 S
Eu337 O334 2.370 1_455 S
Eu337 O335 2.370 . S
Eu337 O336 2.370 . S
Eu337 O340 2.363 . S
Eu337 O341 2.363 . S
Eu337 O350 2.363 . S
Eu337 O351 2.363 1_455 S
O338 C312 1.283 . S
O338 Eu324 2.363 . S
O339 C313 1.283 . S
O339 Eu324 2.363 . S
O340 C314 1.283 . S
O340 Eu337 2.363 . S
O341 C315 1.283 . S
O341 Eu337 2.363 . S
O342 C316 1.283 . S
O342 Eu327 2.372 . S
O343 C317 1.283 . S
O343 Eu327 2.354 1_565 S
O344 C318 1.283 . S
O344 Eu328 2.372 . S
O345 C319 1.283 . S
O345 Eu328 2.354 1_565 S
O346 C320 1.283 . S
O346 Eu332 2.363 . S
O347 C321 1.283 . S
O347 Eu332 2.363 1_655 S
O348 C322 1.283 . S
O348 Eu331 2.363 . S
O349 C323 1.283 . S
O349 Eu331 2.363 1_655 S
O350 C318 1.283 . S
O350 Eu337 2.363 . S
O351 C316 1.283 . S
O351 Eu337 2.363 1_655 S
O352 C319 1.283 . S
O352 Eu324 2.363 . S
O353 C317 1.283 . S
O353 Eu324 2.363 1_655 S
O354 C313 1.283 . S
O354 Eu332 2.353 1_565 S
O355 C315 1.283 . S
O355 Eu332 2.373 . S
O356 C312 1.283 . S
O356 Eu331 2.356 1_565 S
O357 C314 1.283 . S
O357 Eu331 2.370 . S
O358 C323 1.283 . S
O358 Eu327 2.363 . S
O359 C321 1.283 . S
O359 Eu327 2.363 . S
O360 C322 1.283 . S
O360 Eu328 2.363 . S
O361 C320 1.283 . S
O361 Eu328 2.363 . S
C362 O388 1.283 . S
C362 O406 1.283 . S
C363 O389 1.283 . S
C363 O404 1.283 . S
C364 O390 1.283 . S
C364 O407 1.283 . S
C365 O391 1.283 . S
C365 O405 1.283 . S
C366 O392 1.283 . S
C366 O401 1.283 . S
C367 O393 1.283 . S
C367 O403 1.283 . S
C368 O394 1.283 . S
C368 O400 1.283 . S
C369 O395 1.283 . S
C369 O402 1.283 . S
C370 O396 1.283 . S
C370 O411 1.283 . S
C371 O397 1.283 . S
C371 O409 1.283 . S
C372 O398 1.283 . S
C372 O410 1.283 . S
C373 O399 1.283 . S
C373 O408 1.283 . S
Eu374 O375 2.378 . S
Eu374 O376 2.363 1_545 S
Eu374 O379 2.363 1_545 S
Eu374 O380 2.378 . S
Eu374 O388 2.350 1_545 S
Eu374 O389 2.376 . S
Eu374 O402 2.363 . S
Eu374 O403 2.363 . S
O375 Eu374 2.378 . S
O375 Eu377 2.380 . S
O375 Eu382 2.372 . S
O376 Eu374 2.363 1_565 S
O376 Eu378 2.370 1_565 S
O376 Eu381 2.377 . S
Eu377 O375 2.380 . S
Eu377 O379 2.370 1_545 S
Eu377 O383 2.360 1_544 S
Eu377 O384 2.371 1_554 S
Eu377 O392 2.355 1_554 S
Eu377 O393 2.371 . S
Eu377 O408 2.354 1_545 S
Eu377 O409 2.372 . S
Eu378 O376 2.370 1_545 S
Eu378 O380 2.380 . S
Eu378 O385 2.371 1_554 S
Eu378 O386 2.360 1_544 S
Eu378 O394 2.355 1_554 S
Eu378 O395 2.371 . S
Eu378 O410 2.354 1_545 S
Eu378 O411 2.372 . S
O379 Eu374 2.363 1_565 S
O379 Eu377 2.370 1_565 S
O379 Eu381 2.377 . S
O380 Eu374 2.378 . S
O380 Eu378 2.380 . S
O380 Eu382 2.372 . S
Eu381 O376 2.377 . S
Eu381 O379 2.377 . S
Eu381 O383 2.363 1_554 S
Eu381 O386 2.363 1_554 S
Eu381 O398 2.363 . S
Eu381 O399 2.363 . S
Eu381 O406 2.375 . S
Eu381 O407 2.351 1_554 S
Eu382 O375 2.372 . S
Eu382 O380 2.372 . S
Eu382 O384 2.368 1_554 S
Eu382 O385 2.368 1_554 S
Eu382 O396 2.363 . S
Eu382 O397 2.363 . S
Eu382 O404 2.367 . S
Eu382 O405 2.359 1_554 S
O383 Eu377 2.360 1_566 S
O383 Eu381 2.363 1_556 S
O383 Eu387 2.367 1_565 S
O384 Eu377 2.371 1_556 S
O384 Eu382 2.368 1_556 S
O384 Eu387 2.373 . S
O385 Eu378 2.371 1_556 S
O385 Eu382 2.368 1_556 S
O385 Eu387 2.373 . S
O386 Eu378 2.360 1_566 S
O386 Eu381 2.363 1_556 S
O386 Eu387 2.367 1_565 S
Eu387 O383 2.367 1_545 S
Eu387 O384 2.373 . S
Eu387 O385 2.373 . S
Eu387 O386 2.367 1_545 S
Eu387 O390 2.358 1_545 S
Eu387 O391 2.367 . S
Eu387 O400 2.363 . S
Eu387 O401 2.363 . S
O388 C362 1.283 . S
O388 Eu374 2.350 1_565 S
O389 C363 1.283 . S
O389 Eu374 2.376 . S
O390 C364 1.283 . S
O390 Eu387 2.358 1_565 S
O391 C365 1.283 . S
O391 Eu387 2.367 . S
O392 C366 1.283 . S
O392 Eu377 2.355 1_556 S
O393 C367 1.283 . S
O393 Eu377 2.371 . S
O394 C368 1.283 . S
O394 Eu378 2.355 1_556 S
O395 C369 1.283 . S
O395 Eu378 2.371 . S
O396 C370 1.283 . S
O396 Eu382 2.363 . S
O397 C371 1.283 . S
O397 Eu382 2.363 . S
O398 C372 1.283 . S
O398 Eu381 2.363 . S
O399 C373 1.283 . S
O399 Eu381 2.363 . S
O400 C368 1.283 . S
O400 Eu387 2.363 . S
O401 C366 1.283 . S
O401 Eu387 2.363 . S
O402 C369 1.283 . S
O402 Eu374 2.363 . S
O403 C367 1.283 . S
O403 Eu374 2.363 . S
O404 C363 1.283 . S
O404 Eu382 2.367 . S
O405 C365 1.283 . S
O405 Eu382 2.359 1_556 S
O406 C362 1.283 . S
O406 Eu381 2.375 . S
O407 C364 1.283 . S
O407 Eu381 2.351 1_556 S
O408 C373 1.283 . S
O408 Eu377 2.354 1_565 S
O409 C371 1.283 . S
O409 Eu377 2.372 . S
O410 C372 1.283 . S
O410 Eu378 2.354 1_565 S
O411 C370 1.283 . S
O411 Eu378 2.372 . S
C412 O438 1.283 . S
C412 O456 1.283 . S
C413 O439 1.283 . S
C413 O454 1.283 . S
C414 O440 1.283 . S
C414 O457 1.283 . S
C415 O441 1.283 . S
C415 O455 1.283 . S
C416 O442 1.283 . S
C416 O451 1.283 . S
C417 O443 1.283 . S
C417 O453 1.283 . S
C418 O444 1.283 . S
C418 O450 1.283 . S
C419 O445 1.283 . S
C419 O452 1.283 . S
C420 O446 1.283 . S
C420 O461 1.283 . S
C421 O447 1.283 . S
C421 O459 1.283 . S
C422 O448 1.283 . S
C422 O460 1.283 . S
C423 O449 1.283 . S
C423 O458 1.283 . S
Eu424 O425 2.367 1_454 S
Eu424 O426 2.373 . S
Eu424 O429 2.373 1_455 S
Eu424 O430 2.367 1_554 S
Eu424 O438 2.368 . S
Eu424 O439 2.357 1_554 S
Eu424 O452 2.363 . S
Eu424 O453 2.363 1_455 S
O425 Eu424 2.367 1_656 S
O425 Eu427 2.366 1_556 S
O425 Eu432 2.370 1_655 S
O426 Eu424 2.373 . S
O426 Eu428 2.375 . S
O426 Eu431 2.370 . S
Eu427 O425 2.366 1_554 S
Eu427 O429 2.375 . S
Eu427 O433 2.375 . S
Eu427 O434 2.366 1_554 S
Eu427 O442 2.363 . S
Eu427 O443 2.363 . S
Eu427 O458 2.371 . S
Eu427 O459 2.355 1_554 S
Eu428 O426 2.375 . S
Eu428 O430 2.365 1_554 S
Eu428 O435 2.365 1_554 S
Eu428 O436 2.375 . S
Eu428 O444 2.363 . S
Eu428 O445 2.363 . S
Eu428 O460 2.371 . S
Eu428 O461 2.355 1_554 S
O429 Eu424 2.373 1_655 S
O429 Eu427 2.375 . S
O429 Eu431 2.370 1_655 S
O430 Eu424 2.367 1_556 S
O430 Eu428 2.365 1_556 S
O430 Eu432 2.370 . S
Eu431 O426 2.370 . S
Eu431 O429 2.370 1_455 S
Eu431 O433 2.370 1_455 S
Eu431 O436 2.370 . S
Eu431 O448 2.363 . S
Eu431 O449 2.363 1_455 S
Eu431 O456 2.363 . S
Eu431 O457 2.363 . S
Eu432 O425 2.370 1_455 S
Eu432 O430 2.370 . S
Eu432 O434 2.370 1_455 S
Eu432 O435 2.370 . S
Eu432 O446 2.363 . S
Eu432 O447 2.363 1_455 S
Eu432 O454 2.363 . S
Eu432 O455 2.363 . S
O433 Eu427 2.375 . S
O433 Eu431 2.370 1_655 S
O433 Eu437 2.376 1_655 S
O434 Eu427 2.366 1_556 S
O434 Eu432 2.370 1_655 S
O434 Eu437 2.364 1_656 S
O435 Eu428 2.365 1_556 S
O435 Eu432 2.370 . S
O435 Eu437 2.364 1_556 S
O436 Eu428 2.375 . S
O436 Eu431 2.370 . S
O436 Eu437 2.376 . S
Eu437 O433 2.376 1_455 S
Eu437 O434 2.364 1_454 S
Eu437 O435 2.364 1_554 S
Eu437 O436 2.376 . S
Eu437 O440 2.373 . S
Eu437 O441 2.353 1_554 S
Eu437 O450 2.363 . S
Eu437 O451 2.363 1_455 S
O438 C412 1.283 . S
O438 Eu424 2.368 . S
O439 C413 1.283 . S
O439 Eu424 2.357 1_556 S
O440 C414 1.283 . S
O440 Eu437 2.373 . S
O441 C415 1.283 . S
O441 Eu437 2.353 1_556 S
O442 C416 1.283 . S
O442 Eu427 2.363 . S
O443 C417 1.283 . S
O443 Eu427 2.363 . S
O444 C418 1.283 . S
O444 Eu428 2.363 . S
O445 C419 1.283 . S
O445 Eu428 2.363 . S
O446 C420 1.283 . S
O446 Eu432 2.363 . S
O447 C421 1.283 . S
O447 Eu432 2.363 1_655 S
O448 C422 1.283 . S
O448 Eu431 2.363 . S
O449 C423 1.283 . S
O449 Eu431 2.363 1_655 S
O450 C418 1.283 . S
O450 Eu437 2.363 . S
O451 C416 1.283 . S
O451 Eu437 2.363 1_655 S
O452 C419 1.283 . S
O452 Eu424 2.363 . S
O453 C417 1.283 . S
O453 Eu424 2.363 1_655 S
O454 C413 1.283 . S
O454 Eu432 2.363 . S
O455 C415 1.283 . S
O455 Eu432 2.363 . S
O456 C412 1.283 . S
O456 Eu431 2.363 . S
O457 C414 1.283 . S
O457 Eu431 2.363 . S
O458 C423 1.283 . S
O458 Eu427 2.371 . S
O459 C421 1.283 . S
O459 Eu427 2.355 1_556 S
O460 C422 1.283 . S
O460 Eu428 2.371 . S
O461 C420 1.283 . S
O461 Eu428 2.355 1_556 S
C462 O488 1.283 . S
C462 O506 1.283 . S
C463 O489 1.283 . S
C463 O504 1.283 . S
C464 O490 1.283 . S
C464 O507 1.283 . S
C465 O491 1.283 . S
C465 O505 1.283 . S
C466 O492 1.283 . S
C466 O501 1.283 . S
C467 O493 1.283 . S
C467 O503 1.283 . S
C468 O494 1.283 . S
C468 O500 1.283 . S
C469 O495 1.283 . S
C469 O502 1.283 . S
C470 O496 1.283 . S
C470 O511 1.283 . S
C471 O497 1.283 . S
C471 O509 1.283 . S
C472 O498 1.283 . S
C472 O510 1.283 . S
C473 O499 1.283 . S
C473 O508 1.283 . S
Eu474 O475 2.370 . S
Eu474 O476 2.370 . S
Eu474 O479 2.370 . S
Eu474 O480 2.370 . S
Eu474 O488 2.363 . S
Eu474 O489 2.363 . S
Eu474 O502 2.363 . S
Eu474 O503 2.363 . S
O475 Eu474 2.370 . S
O475 Eu477 2.375 . S
O475 Eu482 2.376 . S
O476 Eu474 2.370 . S
O476 Eu478 2.375 . S
O476 Eu481 2.373 . S
Eu477 O475 2.375 . S
Eu477 O479 2.375 . S
Eu477 O483 2.366 1_554 S
Eu477 O484 2.366 1_554 S
Eu477 O492 2.355 1_554 S
Eu477 O493 2.371 . S
Eu477 O508 2.363 . S
Eu477 O509 2.363 . S
Eu478 O476 2.375 . S
Eu478 O480 2.375 . S
Eu478 O485 2.365 1_554 S
Eu478 O486 2.365 1_554 S
Eu478 O494 2.355 1_554 S
Eu478 O495 2.371 . S
Eu478 O510 2.363 . S
Eu478 O511 2.363 . S
O479 Eu474 2.370 . S
O479 Eu477 2.375 . S
O479 Eu481 2.373 . S
O480 Eu474 2.370 . S
O480 Eu478 2.375 . S
O480 Eu482 2.376 . S
Eu481 O476 2.373 . S
Eu481 O479 2.373 . S
Eu481 O483 2.367 1_554 S
Eu481 O486 2.367 1_554 S
Eu481 O498 2.363 . S
Eu481 O499 2.363 . S
Eu481 O506 2.369 . S
Eu481 O507 2.357 1_554 S
Eu482 O475 2.376 . S
Eu482 O480 2.376 . S
Eu482 O484 2.364 1_554 S
Eu482 O485 2.364 1_554 S
Eu482 O496 2.363 . S
Eu482 O497 2.363 . S
Eu482 O504 2.373 . S
Eu482 O505 2.353 1_554 S
O483 Eu477 2.366 1_556 S
O483 Eu481 2.367 1_556 S
O483 Eu487 2.370 . S
O484 Eu477 2.366 1_556 S
O484 Eu482 2.364 1_556 S
O484 Eu487 2.370 . S
O485 Eu478 2.365 1_556 S
O485 Eu482 2.364 1_556 S
O485 Eu487 2.370 . S
O486 Eu478 2.365 1_556 S
O486 Eu481 2.367 1_556 S
O486 Eu487 2.370 . S
Eu487 O483 2.370 . S
Eu487 O484 2.370 . S
Eu487 O485 2.370 . S
Eu487 O486 2.370 . S
Eu487 O490 2.363 . S
Eu487 O491 2.363 . S
Eu487 O500 2.363 . S
Eu487 O501 2.363 . S
O488 C462 1.283 . S
O488 Eu474 2.363 . S
O489 C463 1.283 . S
O489 Eu474 2.363 . S
O490 C464 1.283 . S
O490 Eu487 2.363 . S
O491 C465 1.283 . S
O491 Eu487 2.363 . S
O492 C466 1.283 . S
O492 Eu477 2.355 1_556 S
O493 C467 1.283 . S
O493 Eu477 2.371 . S
O494 C468 1.283 . S
O494 Eu478 2.355 1_556 S
O495 C469 1.283 . S
O495 Eu478 2.371 . S
O496 C470 1.283 . S
O496 Eu482 2.363 . S
O497 C471 1.283 . S
O497 Eu482 2.363 . S
O498 C472 1.283 . S
O498 Eu481 2.363 . S
O499 C473 1.283 . S
O499 Eu481 2.363 . S
O500 C468 1.283 . S
O500 Eu487 2.363 . S
O501 C466 1.283 . S
O501 Eu487 2.363 . S
O502 C469 1.283 . S
O502 Eu474 2.363 . S
O503 C467 1.283 . S
O503 Eu474 2.363 . S
O504 C463 1.283 . S
O504 Eu482 2.373 . S
O505 C465 1.283 . S
O505 Eu482 2.353 1_556 S
O506 C462 1.283 . S
O506 Eu481 2.369 . S
O507 C464 1.283 . S
O507 Eu481 2.357 1_556 S
O508 C473 1.283 . S
O508 Eu477 2.363 . S
O509 C471 1.283 . S
O509 Eu477 2.363 . S
O510 C472 1.283 . S
O510 Eu478 2.363 . S
O511 C470 1.283 . S
O511 Eu478 2.363 . S
C512 O538 1.283 . S
C512 O556 1.283 . S
C513 O539 1.283 . S
C513 O554 1.283 . S
C514 O540 1.283 . S
C514 O557 1.283 . S
C515 O541 1.283 . S
C515 O555 1.283 . S
C516 O542 1.283 . S
C516 O551 1.283 . S
C517 O543 1.283 . S
C517 O553 1.283 . S
C518 O544 1.283 . S
C518 O550 1.283 . S
C519 O545 1.283 . S
C519 O552 1.283 . S
C520 O546 1.283 . S
C520 O561 1.283 . S
C521 O547 1.283 . S
C521 O559 1.283 . S
C522 O548 1.283 . S
C522 O560 1.283 . S
C523 O549 1.283 . S
C523 O558 1.283 . S
Eu524 O525 2.370 1_455 S
Eu524 O526 2.370 . S
Eu524 O529 2.370 1_455 S
Eu524 O530 2.370 . S
Eu524 O538 2.363 . S
Eu524 O539 2.363 . S
Eu524 O552 2.363 . S
Eu524 O553 2.363 1_455 S
O525 Eu524 2.370 1_655 S
O525 Eu527 2.370 . S
O525 Eu532 2.370 1_655 S
O526 Eu524 2.370 . S
O526 Eu528 2.370 . S
O526 Eu531 2.370 . S
Eu527 O525 2.370 . S
Eu527 O529 2.370 . S
Eu527 O533 2.370 . S
Eu527 O534 2.370 . S
Eu527 O542 2.363 . S
Eu527 O543 2.363 . S
Eu527 O558 2.363 . S
Eu527 O559 2.363 . S
Eu528 O526 2.370 . S
Eu528 O530 2.370 . S
Eu528 O535 2.370 . S
Eu528 O536 2.370 . S
Eu528 O544 2.363 . S
Eu528 O545 2.363 . S
Eu528 O560 2.363 . S
Eu528 O561 2.363 . S
O529 Eu524 2.370 1_655 S
O529 Eu527 2.370 . S
O529 Eu531 2.370 1_655 S
O530 Eu524 2.370 . S
O530 Eu528 2.370 . S
O530 Eu532 2.370 . S
Eu531 O526 2.370 . S
Eu531 O529 2.370 1_455 S
Eu531 O533 2.370 1_455 S
Eu531 O536 2.370 . S
Eu531 O548 2.363 . S
Eu531 O549 2.363 1_455 S
Eu531 O556 2.363 . S
Eu531 O557 2.363 . S
Eu532 O525 2.370 1_455 S
Eu532 O530 2.370 . S
Eu532 O534 2.370 1_455 S
Eu532 O535 2.370 . S
Eu532 O546 2.363 . S
Eu532 O547 2.363 1_455 S
Eu532 O554 2.363 . S
Eu532 O555 2.363 . S
O533 Eu527 2.370 . S
O533 Eu531 2.370 1_655 S
O533 Eu537 2.370 1_655 S
O534 Eu527 2.370 . S
O534 Eu532 2.370 1_655 S
O534 Eu537 2.370 1_655 S
O535 Eu528 2.370 . S
O535 Eu532 2.370 . S
O535 Eu537 2.370 . S
O536 Eu528 2.370 . S
O536 Eu531 2.370 . S
O536 Eu537 2.370 . S
Eu537 O533 2.370 1_455 S
Eu537 O534 2.370 1_455 S
Eu537 O535 2.370 . S
Eu537 O536 2.370 . S
Eu537 O540 2.363 . S
Eu537 O541 2.363 . S
Eu537 O550 2.363 . S
Eu537 O551 2.363 1_455 S
O538 C512 1.283 . S
O538 Eu524 2.363 . S
O539 C513 1.283 . S
O539 Eu524 2.363 . S
O540 C514 1.283 . S
O540 Eu537 2.363 . S
O541 C515 1.283 . S
O541 Eu537 2.363 . S
O542 C516 1.283 . S
O542 Eu527 2.363 . S
O543 C517 1.283 . S
O543 Eu527 2.363 . S
O544 C518 1.283 . S
O544 Eu528 2.363 . S
O545 C519 1.283 . S
O545 Eu528 2.363 . S
O546 C520 1.283 . S
O546 Eu532 2.363 . S
O547 C521 1.283 . S
O547 Eu532 2.363 1_655 S
O548 C522 1.283 . S
O548 Eu531 2.363 . S
O549 C523 1.283 . S
O549 Eu531 2.363 1_655 S
O550 C518 1.283 . S
O550 Eu537 2.363 . S
O551 C516 1.283 . S
O551 Eu537 2.363 1_655 S
O552 C519 1.283 . S
O552 Eu524 2.363 . S
O553 C517 1.283 . S
O553 Eu524 2.363 1_655 S
O554 C513 1.283 . S
O554 Eu532 2.363 . S
O555 C515 1.283 . S
O555 Eu532 2.363 . S
O556 C512 1.283 . S
O556 Eu531 2.363 . S
O557 C514 1.283 . S
O557 Eu531 2.363 . S
O558 C523 1.283 . S
O558 Eu527 2.363 . S
O559 C521 1.283 . S
O559 Eu527 2.363 . S
O560 C522 1.283 . S
O560 Eu528 2.363 . S
O561 C520 1.283 . S
O561 Eu528 2.363 . S
C562 O588 1.283 . S
C562 O606 1.283 . S
C563 O589 1.283 . S
C563 O604 1.283 . S
C564 O590 1.283 . S
C564 O607 1.283 . S
C565 O591 1.283 . S
C565 O605 1.283 . S
C566 O592 1.283 . S
C566 O601 1.283 . S
C567 O593 1.283 . S
C567 O603 1.283 . S
C568 O594 1.283 . S
C568 O600 1.283 . S
C569 O595 1.283 . S
C569 O602 1.283 . S
C570 O596 1.283 . S
C570 O611 1.283 . S
C571 O597 1.283 . S
C571 O609 1.283 . S
C572 O598 1.283 . S
C572 O610 1.283 . S
C573 O599 1.283 . S
C573 O608 1.283 . S
Eu574 O575 2.370 . S
Eu574 O576 2.370 . S
Eu574 O579 2.370 . S
Eu574 O580 2.370 . S
Eu574 O588 2.363 . S
Eu574 O589 2.363 . S
Eu574 O602 2.363 . S
Eu574 O603 2.363 . S
O575 Eu574 2.370 . S
O575 Eu577 2.365 1_565 S
O575 Eu582 2.364 1_565 S
O576 Eu574 2.370 . S
O576 Eu578 2.365 1_565 S
O576 Eu581 2.366 1_565 S
Eu577 O575 2.365 1_545 S
Eu577 O579 2.365 1_545 S
Eu577 O583 2.375 . S
Eu577 O584 2.375 . S
Eu577 O592 2.372 . S
Eu577 O593 2.354 1_545 S
Eu577 O608 2.363 . S
Eu577 O609 2.363 . S
Eu578 O576 2.365 1_545 S
Eu578 O580 2.365 1_545 S
Eu578 O585 2.375 . S
Eu578 O586 2.375 . S
Eu578 O594 2.372 . S
Eu578 O595 2.354 1_545 S
Eu578 O610 2.363 . S
Eu578 O611 2.363 . S
O579 Eu574 2.370 . S
O579 Eu577 2.365 1_565 S
O579 Eu581 2.366 1_565 S
O580 Eu574 2.370 . S
O580 Eu578 2.365 1_565 S
O580 Eu582 2.364 1_565 S
Eu581 O576 2.366 1_545 S
Eu581 O579 2.366 1_545 S
Eu581 O583 2.374 . S
Eu581 O586 2.374 . S
Eu581 O598 2.363 . S
Eu581 O599 2.363 . S
Eu581 O606 2.356 1_545 S
Eu581 O607 2.370 . S
Eu582 O575 2.364 1_545 S
Eu582 O580 2.364 1_545 S
Eu582 O584 2.376 . S
Eu582 O585 2.376 . S
Eu582 O596 2.363 . S
Eu582 O597 2.363 . S
Eu582 O604 2.352 1_545 S
Eu582 O605 2.374 . S
O583 Eu577 2.375 . S
O583 Eu581 2.374 . S
O583 Eu587 2.370 . S
O584 Eu577 2.375 . S
O584 Eu582 2.376 . S
O584 Eu587 2.370 . S
O585 Eu578 2.375 . S
O585 Eu582 2.376 . S
O585 Eu587 2.370 . S
O586 Eu578 2.375 . S
O586 Eu581 2.374 . S
O586 Eu587 2.370 . S
Eu587 O583 2.370 . S
Eu587 O584 2.370 . S
Eu587 O585 2.370 . S
Eu587 O586 2.370 . S
Eu587 O590 2.363 . S
Eu587 O591 2.363 . S
Eu587 O600 2.363 . S
Eu587 O601 2.363 . S
O588 C562 1.283 . S
O588 Eu574 2.363 . S
O589 C563 1.283 . S
O589 Eu574 2.363 . S
O590 C564 1.283 . S
O590 Eu587 2.363 . S
O591 C565 1.283 . S
O591 Eu587 2.363 . S
O592 C566 1.283 . S
O592 Eu577 2.372 . S
O593 C567 1.283 . S
O593 Eu577 2.354 1_565 S
O594 C568 1.283 . S
O594 Eu578 2.372 . S
O595 C569 1.283 . S
O595 Eu578 2.354 1_565 S
O596 C570 1.283 . S
O596 Eu582 2.363 . S
O597 C571 1.283 . S
O597 Eu582 2.363 . S
O598 C572 1.283 . S
O598 Eu581 2.363 . S
O599 C573 1.283 . S
O599 Eu581 2.363 . S
O600 C568 1.283 . S
O600 Eu587 2.363 . S
O601 C566 1.283 . S
O601 Eu587 2.363 . S
O602 C569 1.283 . S
O602 Eu574 2.363 . S
O603 C567 1.283 . S
O603 Eu574 2.363 . S
O604 C563 1.283 . S
O604 Eu582 2.352 1_565 S
O605 C565 1.283 . S
O605 Eu582 2.374 . S
O606 C562 1.283 . S
O606 Eu581 2.356 1_565 S
O607 C564 1.283 . S
O607 Eu581 2.370 . S
O608 C573 1.283 . S
O608 Eu577 2.363 . S
O609 C571 1.283 . S
O609 Eu577 2.363 . S
O610 C572 1.283 . S
O610 Eu578 2.363 . S
O611 C570 1.283 . S
O611 Eu578 2.363 . S
C612 C613 1.369 . S
C612 C614 1.419 . S
C612 H616 0.930 . S
C613 C612 1.369 . S
C613 C622 1.429 . S
C614 C612 1.419 . S
C614 C615 1.363 . S
C614 H617 0.929 . S
C615 C614 1.363 . S
C615 C621 1.428 . S
H616 C612 0.930 . S
H617 C614 0.929 . S
S618 N619 1.613 . S
S618 N620 1.610 . S
N619 S618 1.613 . S
N619 C622 1.350 . S
N620 S618 1.610 . S
N620 C621 1.351 . S
C621 C615 1.428 . S
C621 N620 1.351 . S
C621 C622 1.434 . S
C622 C613 1.429 . S
C622 N619 1.350 . S
C622 C621 1.434 . S
C623 C624 1.369 . S
C623 C625 1.419 . S
C623 H627 0.930 . S
C624 C623 1.369 . S
C624 C633 1.429 . S
C625 C623 1.419 . S
C625 C626 1.363 . S
C625 H628 0.929 . S
C626 C625 1.363 . S
C626 C632 1.428 . S
H627 C623 0.930 . S
H628 C625 0.929 . S
S629 N630 1.613 . S
S629 N631 1.610 . S
N630 S629 1.613 . S
N630 C633 1.350 . S
N631 S629 1.610 . S
N631 C632 1.351 . S
C632 C626 1.428 . S
C632 N631 1.351 . S
C632 C633 1.434 . S
C633 C624 1.429 . S
C633 N630 1.350 . S
C633 C632 1.434 . S
C634 C635 1.369 . S
C634 C636 1.419 . S
C634 H638 0.930 . S
C635 C634 1.369 . S
C635 C644 1.429 . S
C636 C634 1.419 . S
C636 C637 1.363 . S
C636 H639 0.929 . S
C637 C636 1.363 . S
C637 C643 1.428 . S
H638 C634 0.930 . S
H639 C636 0.929 . S
S640 N641 1.613 . S
S640 N642 1.610 . S
N641 S640 1.613 . S
N641 C644 1.350 . S
N642 S640 1.610 . S
N642 C643 1.351 . S
C643 C637 1.428 . S
C643 N642 1.351 . S
C643 C644 1.434 . S
C644 C635 1.429 . S
C644 N641 1.350 . S
C644 C643 1.434 . S
C645 C646 1.369 . S
C645 C647 1.419 . S
C645 H649 0.930 . S
C646 C645 1.369 . S
C646 C655 1.429 . S
C647 C645 1.419 . S
C647 C648 1.363 . S
C647 H650 0.929 . S
C648 C647 1.363 . S
C648 C654 1.428 . S
H649 C645 0.930 . S
H650 C647 0.929 . S
S651 N652 1.613 . S
S651 N653 1.610 . S
N652 S651 1.613 . S
N652 C655 1.350 . S
N653 S651 1.610 . S
N653 C654 1.351 . S
C654 C648 1.428 . S
C654 N653 1.351 . S
C654 C655 1.434 . S
C655 C646 1.429 . S
C655 N652 1.350 . S
C655 C654 1.434 . S
C656 C657 1.369 . S
C656 C658 1.419 . S
C656 H660 0.930 . S
C657 C656 1.369 . S
C657 C666 1.429 . S
C658 C656 1.419 . S
C658 C659 1.363 . S
C658 H661 0.929 . S
C659 C658 1.363 . S
C659 C665 1.428 . S
H660 C656 0.930 . S
H661 C658 0.929 . S
S662 N663 1.613 . S
S662 N664 1.610 . S
N663 S662 1.613 . S
N663 C666 1.350 . S
N664 S662 1.610 . S
N664 C665 1.351 . S
C665 C659 1.428 . S
C665 N664 1.351 . S
C665 C666 1.434 . S
C666 C657 1.429 . S
C666 N663 1.350 . S
C666 C665 1.434 . S
C667 C668 1.369 . S
C667 C669 1.419 . S
C667 H671 0.930 . S
C668 C667 1.369 . S
C668 C677 1.429 . S
C669 C667 1.419 . S
C669 C670 1.363 . S
C669 H672 0.929 . S
C670 C669 1.363 . S
C670 C676 1.428 . S
H671 C667 0.930 . S
H672 C669 0.929 . S
S673 N674 1.613 . S
S673 N675 1.610 . S
N674 S673 1.613 . S
N674 C677 1.350 . S
N675 S673 1.610 . S
N675 C676 1.351 . S
C676 C670 1.428 . S
C676 N675 1.351 . S
C676 C677 1.434 . S
C677 C668 1.429 . S
C677 N674 1.350 . S
C677 C676 1.434 . S
C678 C679 1.369 . S
C678 C680 1.419 . S
C678 H682 0.930 . S
C679 C678 1.369 . S
C679 C688 1.429 . S
C680 C678 1.419 . S
C680 C681 1.363 . S
C680 H683 0.929 . S
C681 C680 1.363 . S
C681 C687 1.428 . S
H682 C678 0.930 . S
H683 C680 0.929 . S
S684 N685 1.613 . S
S684 N686 1.610 . S
N685 S684 1.613 . S
N685 C688 1.350 . S
N686 S684 1.610 . S
N686 C687 1.351 . S
C687 C681 1.428 . S
C687 N686 1.351 . S
C687 C688 1.434 . S
C688 C679 1.429 . S
C688 N685 1.350 . S
C688 C687 1.434 . S
C689 C690 1.369 . S
C689 C691 1.419 . S
C689 H693 0.930 . S
C690 C689 1.369 . S
C690 C699 1.429 . S
C691 C689 1.419 . S
C691 C692 1.363 . S
C691 H694 0.929 . S
C692 C691 1.363 . S
C692 C698 1.428 . S
H693 C689 0.930 . S
H694 C691 0.929 . S
S695 N696 1.613 . S
S695 N697 1.610 . S
N696 S695 1.613 . S
N696 C699 1.350 . S
N697 S695 1.610 . S
N697 C698 1.351 . S
C698 C692 1.428 . S
C698 N697 1.351 . S
C698 C699 1.434 . S
C699 C690 1.429 . S
C699 N696 1.350 . S
C699 C698 1.434 . S
C700 C701 1.369 . S
C700 C702 1.419 . S
C700 H704 0.930 . S
C701 C700 1.369 . S
C701 C710 1.429 . S
C702 C700 1.419 . S
C702 C703 1.363 . S
C702 H705 0.929 . S
C703 C702 1.363 . S
C703 C709 1.428 . S
H704 C700 0.930 . S
H705 C702 0.929 . S
S706 N707 1.613 . S
S706 N708 1.610 . S
N707 S706 1.613 . S
N707 C710 1.350 . S
N708 S706 1.610 . S
N708 C709 1.351 . S
C709 C703 1.428 . S
C709 N708 1.351 . S
C709 C710 1.434 . S
C710 C701 1.429 . S
C710 N707 1.350 . S
C710 C709 1.434 . S
C711 C712 1.369 . S
C711 C713 1.419 . S
C711 H715 0.930 . S
C712 C711 1.369 . S
C712 C721 1.429 . S
C713 C711 1.419 . S
C713 C714 1.363 . S
C713 H716 0.929 . S
C714 C713 1.363 . S
C714 C720 1.428 . S
H715 C711 0.930 . S
H716 C713 0.929 . S
S717 N718 1.613 . S
S717 N719 1.610 . S
N718 S717 1.613 . S
N718 C721 1.350 . S
N719 S717 1.610 . S
N719 C720 1.351 . S
C720 C714 1.428 . S
C720 N719 1.351 . S
C720 C721 1.434 . S
C721 C712 1.429 . S
C721 N718 1.350 . S
C721 C720 1.434 . S
C722 C723 1.369 . S
C722 C724 1.419 . S
C722 H726 0.930 . S
C723 C722 1.369 . S
C723 C732 1.429 . S
C724 C722 1.419 . S
C724 C725 1.363 . S
C724 H727 0.929 . S
C725 C724 1.363 . S
C725 C731 1.428 . S
H726 C722 0.930 . S
H727 C724 0.929 . S
S728 N729 1.613 . S
S728 N730 1.610 . S
N729 S728 1.613 . S
N729 C732 1.350 . S
N730 S728 1.610 . S
N730 C731 1.351 . S
C731 C725 1.428 . S
C731 N730 1.351 . S
C731 C732 1.434 . S
C732 C723 1.429 . S
C732 N729 1.350 . S
C732 C731 1.434 . S
C733 C734 1.369 . S
C733 C735 1.419 . S
C733 H737 0.930 . S
C734 C733 1.369 . S
C734 C743 1.429 . S
C735 C733 1.419 . S
C735 C736 1.363 . S
C735 H738 0.929 . S
C736 C735 1.363 . S
C736 C742 1.428 . S
H737 C733 0.930 . S
H738 C735 0.929 . S
S739 N740 1.613 . S
S739 N741 1.610 . S
N740 S739 1.613 . S
N740 C743 1.350 . S
N741 S739 1.610 . S
N741 C742 1.351 . S
C742 C736 1.428 . S
C742 N741 1.351 . S
C742 C743 1.434 . S
C743 C734 1.429 . S
C743 N740 1.350 . S
C743 C742 1.434 . S
C744 C745 1.369 1_556 S
C744 C746 1.419 . S
C744 H748 0.930 . S
C745 C744 1.369 1_554 S
C745 C754 1.429 . S
C746 C744 1.419 . S
C746 C747 1.342 1_556 S
C746 H749 0.929 . S
C747 C746 1.342 1_554 S
C747 C753 1.450 . S
H748 C744 0.930 . S
H749 C746 0.929 . S
S750 N751 1.613 . S
S750 N752 1.610 . S
N751 S750 1.613 . S
N751 C754 1.350 . S
N752 S750 1.610 . S
N752 C753 1.351 . S
C753 C747 1.450 . S
C753 N752 1.351 . S
C753 C754 1.434 . S
C754 C745 1.429 . S
C754 N751 1.350 . S
C754 C753 1.434 . S
C755 C756 1.369 1_556 S
C755 C757 1.419 . S
C755 H759 0.930 . S
C756 C755 1.369 1_554 S
C756 C765 1.429 . S
C757 C755 1.419 . S
C757 C758 1.359 1_556 S
C757 H760 0.929 . S
C758 C757 1.359 1_554 S
C758 C764 1.433 . S
H759 C755 0.930 . S
H760 C757 0.929 . S
S761 N762 1.613 . S
S761 N763 1.610 . S
N762 S761 1.613 . S
N762 C765 1.350 . S
N763 S761 1.610 . S
N763 C764 1.351 . S
C764 C758 1.433 . S
C764 N763 1.351 . S
C764 C765 1.434 . S
C765 C756 1.429 . S
C765 N762 1.350 . S
C765 C764 1.434 . S
C766 C767 1.360 1_556 S
C766 C768 1.419 . S
C766 H770 0.930 . S
C767 C766 1.360 1_554 S
C767 C776 1.438 . S
C768 C766 1.419 . S
C768 C769 1.351 1_556 S
C768 H771 0.929 . S
C769 C768 1.351 1_554 S
C769 C775 1.441 . S
H770 C766 0.930 . S
H771 C768 0.929 . S
S772 N773 1.613 . S
S772 N774 1.610 . S
N773 S772 1.613 . S
N773 C776 1.350 . S
N774 S772 1.610 . S
N774 C775 1.351 . S
C775 C769 1.441 . S
C775 N774 1.351 . S
C775 C776 1.434 . S
C776 C767 1.438 . S
C776 N773 1.350 . S
C776 C775 1.434 . S
C777 C778 1.368 1_554 S
C777 C779 1.419 . S
C777 H781 0.930 . S
C778 C777 1.368 1_556 S
C778 C787 1.430 . S
C779 C777 1.419 . S
C779 C780 1.364 1_554 S
C779 H782 0.929 . S
C780 C779 1.364 1_556 S
C780 C786 1.428 . S
H781 C777 0.930 . S
H782 C779 0.929 . S
S783 N784 1.613 . S
S783 N785 1.610 . S
N784 S783 1.613 . S
N784 C787 1.350 . S
N785 S783 1.610 . S
N785 C786 1.351 . S
C786 C780 1.428 . S
C786 N785 1.351 . S
C786 C787 1.434 . S
C787 C778 1.430 . S
C787 N784 1.350 . S
C787 C786 1.434 . S
C788 C789 1.369 . S
C788 C790 1.419 . S
C788 H792 0.930 . S
C789 C788 1.369 . S
C789 C798 1.429 1_455 S
C790 C788 1.419 . S
C790 C791 1.363 . S
C790 H793 0.929 . S
C791 C790 1.363 . S
C791 C797 1.428 1_455 S
H792 C788 0.930 . S
H793 C790 0.929 . S
S794 N795 1.613 . S
S794 N796 1.610 . S
N795 S794 1.613 . S
N795 C798 1.349 . S
N796 S794 1.610 . S
N796 C797 1.352 . S
C797 C791 1.428 1_655 S
C797 N796 1.352 . S
C797 C798 1.434 . S
C798 C789 1.429 1_655 S
C798 N795 1.349 . S
C798 C797 1.434 . S
C799 C800 1.361 1_565 S
C799 C801 1.419 . S
C799 H803 0.930 . S
C800 C799 1.361 1_545 S
C800 C809 1.436 . S
C801 C799 1.419 . S
C801 C802 1.352 1_565 S
C801 H804 0.929 . S
C802 C801 1.352 1_545 S
C802 C808 1.440 . S
H803 C799 0.930 . S
H804 C801 0.929 . S
S805 N806 1.613 . S
S805 N807 1.610 . S
N806 S805 1.613 . S
N806 C809 1.350 . S
N807 S805 1.610 . S
N807 C808 1.351 . S
C808 C802 1.440 . S
C808 N807 1.351 . S
C808 C809 1.434 . S
C809 C800 1.436 . S
C809 N806 1.350 . S
C809 C808 1.434 . S
C810 C811 1.369 . S
C810 C812 1.419 . S
C810 H814 0.930 . S
C811 C810 1.369 . S
C811 C820 1.429 1_455 S
C812 C810 1.419 . S
C812 C813 1.363 . S
C812 H815 0.929 . S
C813 C812 1.363 . S
C813 C819 1.428 1_455 S
H814 C810 0.930 . S
H815 C812 0.929 . S
S816 N817 1.613 . S
S816 N818 1.610 . S
N817 S816 1.613 . S
N817 C820 1.350 . S
N818 S816 1.610 . S
N818 C819 1.351 . S
C819 C813 1.428 1_655 S
C819 N818 1.351 . S
C819 C820 1.434 . S
C820 C811 1.429 1_655 S
C820 N817 1.350 . S
C820 C819 1.434 . S
C821 C822 1.369 1_565 S
C821 C823 1.419 . S
C821 H825 0.930 . S
C822 C821 1.369 1_545 S
C822 C831 1.428 . S
C823 C821 1.419 . S
C823 C824 1.362 1_565 S
C823 H826 0.929 . S
C824 C823 1.362 1_545 S
C824 C830 1.429 . S
H825 C821 0.930 . S
H826 C823 0.929 . S
S827 N828 1.613 . S
S827 N829 1.610 . S
N828 S827 1.613 . S
N828 C831 1.350 . S
N829 S827 1.610 . S
N829 C830 1.351 . S
C830 C824 1.429 . S
C830 N829 1.351 . S
C830 C831 1.434 . S
C831 C822 1.428 . S
C831 N828 1.350 . S
C831 C830 1.434 . S
C832 C833 1.369 1_655 S
C832 C834 1.419 . S
C832 H836 0.930 . S
C833 C832 1.369 1_455 S
C833 C842 1.429 . S
C834 C832 1.419 . S
C834 C835 1.363 1_655 S
C834 H837 0.929 . S
C835 C834 1.363 1_455 S
C835 C841 1.428 . S
H836 C832 0.930 . S
H837 C834 0.929 . S
S838 N839 1.613 . S
S838 N840 1.610 . S
N839 S838 1.613 . S
N839 C842 1.350 . S
N840 S838 1.610 . S
N840 C841 1.351 . S
C841 C835 1.428 . S
C841 N840 1.351 . S
C841 C842 1.434 . S
C842 C833 1.429 . S
C842 N839 1.350 . S
C842 C841 1.434 . S
C843 C844 1.369 1_565 S
C843 C845 1.419 . S
C843 H847 0.930 . S
C844 C843 1.369 1_545 S
C844 C853 1.429 . S
C845 C843 1.419 . S
C845 C846 1.346 1_565 S
C845 H848 0.929 . S
C846 C845 1.346 1_545 S
C846 C852 1.446 . S
H847 C843 0.930 . S
H848 C845 0.929 . S
S849 N850 1.613 . S
S849 N851 1.610 . S
N850 S849 1.613 . S
N850 C853 1.350 . S
N851 S849 1.610 . S
N851 C852 1.351 . S
C852 C846 1.446 . S
C852 N851 1.351 . S
C852 C853 1.434 . S
C853 C844 1.429 . S
C853 N850 1.350 . S
C853 C852 1.434 . S
C854 C855 1.369 1_655 S
C854 C856 1.419 . S
C854 H858 0.930 . S
C855 C854 1.369 1_455 S
C855 C864 1.429 . S
C856 C854 1.419 . S
C856 C857 1.363 1_655 S
C856 H859 0.929 . S
C857 C856 1.363 1_455 S
C857 C863 1.428 . S
H858 C854 0.930 . S
H859 C856 0.929 . S
S860 N861 1.613 . S
S860 N862 1.610 . S
N861 S860 1.613 . S
N861 C864 1.350 . S
N862 S860 1.610 . S
N862 C863 1.351 . S
C863 C857 1.428 . S
C863 N862 1.351 . S
C863 C864 1.434 . S
C864 C855 1.429 . S
C864 N861 1.350 . S
C864 C863 1.434 . S
C865 C866 1.368 1_565 S
C865 C867 1.419 . S
C865 H869 0.930 . S
C866 C865 1.368 1_545 S
C866 C875 1.429 . S
C867 C865 1.419 . S
C867 C868 1.362 1_565 S
C867 H870 0.929 . S
C868 C867 1.362 1_545 S
C868 C874 1.429 . S
H869 C865 0.930 . S
H870 C867 0.929 . S
S871 N872 1.613 . S
S871 N873 1.610 . S
N872 S871 1.613 . S
N872 C875 1.350 . S
N873 S871 1.610 . S
N873 C874 1.351 . S
C874 C868 1.429 . S
C874 N873 1.351 . S
C874 C875 1.434 . S
C875 C866 1.429 . S
C875 N872 1.350 . S
C875 C874 1.434 . S
C876 C877 1.369 1_655 S
C876 C878 1.419 . S
C876 H880 0.930 . S
C877 C876 1.369 1_455 S
C877 C886 1.429 . S
C878 C876 1.419 . S
C878 C879 1.363 1_655 S
C878 H881 0.929 . S
C879 C878 1.363 1_455 S
C879 C885 1.428 . S
H880 C876 0.930 . S
H881 C878 0.929 . S
S882 N883 1.613 . S
S882 N884 1.610 . S
N883 S882 1.613 . S
N883 C886 1.350 . S
N884 S882 1.610 . S
N884 C885 1.351 . S
C885 C879 1.428 . S
C885 N884 1.351 . S
C885 C886 1.434 . S
C886 C877 1.429 . S
C886 N883 1.350 . S
C886 C885 1.434 . S
C887 C888 1.372 . S
C887 C889 1.419 . S
C887 H891 0.930 . S
C888 C887 1.372 . S
C888 C897 1.426 1_545 S
C889 C887 1.419 . S
C889 C890 1.365 . S
C889 H892 0.929 . S
C890 C889 1.365 . S
C890 C896 1.427 1_545 S
H891 C887 0.930 . S
H892 C889 0.929 . S
S893 N894 1.613 . S
S893 N895 1.610 . S
N894 S893 1.613 . S
N894 C897 1.350 . S
N895 S893 1.610 . S
N895 C896 1.351 . S
C896 C890 1.427 1_565 S
C896 N895 1.351 . S
C896 C897 1.434 . S
C897 C888 1.426 1_565 S
C897 N894 1.350 . S
C897 C896 1.434 . S
C898 C899 1.369 . S
C898 C900 1.419 . S
C898 H902 0.930 . S
C899 C898 1.369 . S
C899 C908 1.429 . S
C900 C898 1.419 . S
C900 C901 1.363 . S
C900 H903 0.929 . S
C901 C900 1.363 . S
C901 C907 1.428 . S
H902 C898 0.930 . S
H903 C900 0.929 . S
S904 N905 1.613 . S
S904 N906 1.610 . S
N905 S904 1.613 . S
N905 C908 1.350 1_655 S
N906 S904 1.610 . S
N906 C907 1.351 1_655 S
C907 C901 1.428 . S
C907 N906 1.351 1_455 S
C907 C908 1.434 . S
C908 C899 1.429 . S
C908 N905 1.350 1_455 S
C908 C907 1.434 . S
C909 C910 1.371 . S
C909 C911 1.419 . S
C909 H913 0.930 . S
C910 C909 1.371 . S
C910 C919 1.428 1_545 S
C911 C909 1.419 . S
C911 C912 1.364 . S
C911 H914 0.929 . S
C912 C911 1.364 . S
C912 C918 1.428 1_545 S
H913 C909 0.930 . S
H914 C911 0.929 . S
S915 N916 1.613 . S
S915 N917 1.610 . S
N916 S915 1.613 . S
N916 C919 1.350 . S
N917 S915 1.610 . S
N917 C918 1.351 . S
C918 C912 1.428 1_565 S
C918 N917 1.351 . S
C918 C919 1.434 . S
C919 C910 1.428 1_565 S
C919 N916 1.350 . S
C919 C918 1.434 . S
C920 C921 1.369 . S
C920 C922 1.419 . S
C920 H924 0.930 . S
C921 C920 1.369 . S
C921 C930 1.429 . S
C922 C920 1.419 . S
C922 C923 1.363 . S
C922 H925 0.929 . S
C923 C922 1.363 . S
C923 C929 1.428 . S
H924 C920 0.930 . S
H925 C922 0.929 . S
S926 N927 1.613 . S
S926 N928 1.610 . S
N927 S926 1.613 . S
N927 C930 1.350 . S
N928 S926 1.610 . S
N928 C929 1.351 . S
C929 C923 1.428 . S
C929 N928 1.351 . S
C929 C930 1.434 . S
C930 C921 1.429 . S
C930 N927 1.350 . S
C930 C929 1.434 . S
C931 C932 1.365 1_545 S
C931 C933 1.419 . S
C931 H935 0.930 . S
C932 C931 1.365 1_565 S
C932 C941 1.433 . S
C933 C931 1.419 . S
C933 C934 1.365 1_545 S
C933 H936 0.929 . S
C934 C933 1.365 1_565 S
C934 C940 1.426 . S
H935 C931 0.930 . S
H936 C933 0.929 . S
S937 N938 1.613 . S
S937 N939 1.610 . S
N938 S937 1.613 . S
N938 C941 1.350 . S
N939 S937 1.610 . S
N939 C940 1.351 . S
C940 C934 1.426 . S
C940 N939 1.351 . S
C940 C941 1.434 . S
C941 C932 1.433 . S
C941 N938 1.350 . S
C941 C940 1.434 . S
C942 C943 1.369 1_655 S
C942 C944 1.419 . S
C942 H946 0.930 . S
C943 C942 1.369 1_455 S
C943 C952 1.429 . S
C944 C942 1.419 . S
C944 C945 1.363 1_655 S
C944 H947 0.929 . S
C945 C944 1.363 1_455 S
C945 C951 1.428 . S
H946 C942 0.930 . S
H947 C944 0.929 . S
S948 N949 1.613 . S
S948 N950 1.610 . S
N949 S948 1.613 . S
N949 C952 1.350 . S
N950 S948 1.610 . S
N950 C951 1.351 . S
C951 C945 1.428 . S
C951 N950 1.351 . S
C951 C952 1.434 . S
C952 C943 1.429 . S
C952 N949 1.350 . S
C952 C951 1.434 . S
C953 C954 1.357 1_565 S
C953 C955 1.419 . S
C953 H957 0.930 . S
C954 C953 1.357 1_545 S
C954 C963 1.441 . S
C955 C953 1.419 . S
C955 C956 1.348 1_565 S
C955 H958 0.929 . S
C956 C955 1.348 1_545 S
C956 C962 1.444 . S
H957 C953 0.930 . S
H958 C955 0.929 . S
S959 N960 1.613 . S
S959 N961 1.610 . S
N960 S959 1.613 . S
N960 C963 1.350 . S
N961 S959 1.610 . S
N961 C962 1.351 . S
C962 C956 1.444 . S
C962 N961 1.351 . S
C962 C963 1.434 . S
C963 C954 1.441 . S
C963 N960 1.350 . S
C963 C962 1.434 . S
C964 C965 1.363 1_565 S
C964 C966 1.419 . S
C964 H968 0.930 . S
C965 C964 1.363 1_545 S
C965 C974 1.434 . S
C966 C964 1.419 . S
C966 C967 1.358 1_565 S
C966 H969 0.929 . S
C967 C966 1.358 1_545 S
C967 C973 1.433 . S
H968 C964 0.930 . S
H969 C966 0.929 . S
S970 N971 1.613 . S
S970 N972 1.610 . S
N971 S970 1.613 . S
N971 C974 1.350 . S
N972 S970 1.610 . S
N972 C973 1.351 . S
C973 C967 1.433 . S
C973 N972 1.351 . S
C973 C974 1.434 . S
C974 C965 1.434 . S
C974 N971 1.350 . S
C974 C973 1.434 . S
C975 C976 1.369 . S
C975 C977 1.419 . S
C975 H979 0.930 . S
C976 C975 1.369 . S
C976 C985 1.429 1_455 S
C977 C975 1.419 . S
C977 C978 1.363 . S
C977 H980 0.929 . S
C978 C977 1.363 . S
C978 C984 1.428 1_455 S
H979 C975 0.930 . S
H980 C977 0.929 . S
S981 N982 1.613 . S
S981 N983 1.610 . S
N982 S981 1.613 . S
N982 C985 1.350 . S
N983 S981 1.610 . S
N983 C984 1.351 . S
C984 C978 1.428 1_655 S
C984 N983 1.351 . S
C984 C985 1.434 . S
C985 C976 1.429 1_655 S
C985 N982 1.350 . S
C985 C984 1.434 . S
C986 C987 1.363 1_565 S
C986 C988 1.419 . S
C986 H990 0.930 . S
C987 C986 1.363 1_545 S
C987 C996 1.435 . S
C988 C986 1.419 . S
C988 C989 1.358 1_565 S
C988 H991 0.929 . S
C989 C988 1.358 1_545 S
C989 C995 1.433 . S
H990 C986 0.930 . S
H991 C988 0.929 . S
S992 N993 1.613 . S
S992 N994 1.610 . S
N993 S992 1.613 . S
N993 C996 1.350 . S
N994 S992 1.610 . S
N994 C995 1.351 . S
C995 C989 1.433 . S
C995 N994 1.351 . S
C995 C996 1.434 . S
C996 C987 1.435 . S
C996 N993 1.350 . S
C996 C995 1.434 . S
C997 C998 1.369 . S
C997 C999 1.419 . S
C997 H1001 0.930 . S
C998 C997 1.369 . S
C998 C1007 1.429 1_455 S
C999 C997 1.419 . S
C999 C1000 1.363 . S
C999 H1002 0.929 . S
C1000 C999 1.363 . S
C1000 C1006 1.428 1_455 S
H1001 C997 0.930 . S
H1002 C999 0.929 . S
S1003 N1004 1.613 . S
S1003 N1005 1.610 . S
N1004 S1003 1.613 . S
N1004 C1007 1.350 . S
N1005 S1003 1.610 . S
N1005 C1006 1.351 . S
C1006 C1000 1.428 1_655 S
C1006 N1005 1.351 . S
C1006 C1007 1.434 . S
C1007 C998 1.429 1_655 S
C1007 N1004 1.350 . S
C1007 C1006 1.434 . S
C1008 C1009 1.364 1_565 S
C1008 C1010 1.419 . S
C1008 H1012 0.930 . S
C1009 C1008 1.364 1_545 S
C1009 C1018 1.434 . S
C1010 C1008 1.419 . S
C1010 C1011 1.358 1_565 S
C1010 H1013 0.929 . S
C1011 C1010 1.358 1_545 S
C1011 C1017 1.434 . S
H1012 C1008 0.930 . S
H1013 C1010 0.929 . S
S1014 N1015 1.613 . S
S1014 N1016 1.610 . S
N1015 S1014 1.613 . S
N1015 C1018 1.350 . S
N1016 S1014 1.610 . S
N1016 C1017 1.351 . S
C1017 C1011 1.434 . S
C1017 N1016 1.351 . S
C1017 C1018 1.434 . S
C1018 C1009 1.434 . S
C1018 N1015 1.350 . S
C1018 C1017 1.434 . S
C1019 C1020 1.369 . S
C1019 C1021 1.419 . S
C1019 H1023 0.930 . S
C1020 C1019 1.369 . S
C1020 C1029 1.429 1_455 S
C1021 C1019 1.419 . S
C1021 C1022 1.363 . S
C1021 H1024 0.929 . S
C1022 C1021 1.363 . S
C1022 C1028 1.428 1_455 S
H1023 C1019 0.930 . S
H1024 C1021 0.929 . S
S1025 N1026 1.613 . S
S1025 N1027 1.610 . S
N1026 S1025 1.613 . S
N1026 C1029 1.350 . S
N1027 S1025 1.610 . S
N1027 C1028 1.351 . S
C1028 C1022 1.428 1_655 S
C1028 N1027 1.351 . S
C1028 C1029 1.434 . S
C1029 C1020 1.429 1_655 S
C1029 N1026 1.350 . S
C1029 C1028 1.434 . S
C1030 C1031 1.358 1_565 S
C1030 C1032 1.419 . S
C1030 H1034 0.930 . S
C1031 C1030 1.358 1_545 S
C1031 C1040 1.440 . S
C1032 C1030 1.419 . S
C1032 C1033 1.351 1_565 S
C1032 H1035 0.929 . S
C1033 C1032 1.351 1_545 S
C1033 C1039 1.441 . S
H1034 C1030 0.930 . S
H1035 C1032 0.929 . S
S1036 N1037 1.613 . S
S1036 N1038 1.610 . S
N1037 S1036 1.613 . S
N1037 C1040 1.350 . S
N1038 S1036 1.610 . S
N1038 C1039 1.351 . S
C1039 C1033 1.441 . S
C1039 N1038 1.351 . S
C1039 C1040 1.434 . S
C1040 C1031 1.440 . S
C1040 N1037 1.350 . S
C1040 C1039 1.434 . S
C1041 C1042 1.369 1_655 S
C1041 C1043 1.419 . S
C1041 H1045 0.930 . S
C1042 C1041 1.369 1_455 S
C1042 C1051 1.429 . S
C1043 C1041 1.419 . S
C1043 C1044 1.363 1_655 S
C1043 H1046 0.929 . S
C1044 C1043 1.363 1_455 S
C1044 C1050 1.428 . S
H1045 C1041 0.930 . S
H1046 C1043 0.929 . S
S1047 N1048 1.613 . S
S1047 N1049 1.610 . S
N1048 S1047 1.613 . S
N1048 C1051 1.350 . S
N1049 S1047 1.610 . S
N1049 C1050 1.351 . S
C1050 C1044 1.428 . S
C1050 N1049 1.351 . S
C1050 C1051 1.434 . S
C1051 C1042 1.429 . S
C1051 N1048 1.350 . S
C1051 C1050 1.434 . S
C1052 C1053 1.363 1_556 S
C1052 C1054 1.419 . S
C1052 H1056 0.930 . S
C1053 C1052 1.363 1_554 S
C1053 C1062 1.434 . S
C1054 C1052 1.419 . S
C1054 C1055 1.355 1_556 S
C1054 H1057 0.929 . S
C1055 C1054 1.355 1_554 S
C1055 C1061 1.437 . S
H1056 C1052 0.930 . S
H1057 C1054 0.929 . S
S1058 N1059 1.613 . S
S1058 N1060 1.610 . S
N1059 S1058 1.613 . S
N1059 C1062 1.350 . S
N1060 S1058 1.610 . S
N1060 C1061 1.351 . S
C1061 C1055 1.437 . S
C1061 N1060 1.351 . S
C1061 C1062 1.434 . S
C1062 C1053 1.434 . S
C1062 N1059 1.350 . S
C1062 C1061 1.434 . S
C1063 C1064 1.374 . S
C1063 C1065 1.419 . S
C1063 H1067 0.930 . S
C1064 C1063 1.374 . S
C1064 C1073 1.424 1_554 S
C1065 C1063 1.419 . S
C1065 C1066 1.365 . S
C1065 H1068 0.929 . S
C1066 C1065 1.365 . S
C1066 C1072 1.427 1_554 S
H1067 C1063 0.930 . S
H1068 C1065 0.929 . S
S1069 N1070 1.613 . S
S1069 N1071 1.610 . S
N1070 S1069 1.613 . S
N1070 C1073 1.350 . S
N1071 S1069 1.610 . S
N1071 C1072 1.351 . S
C1072 C1066 1.427 1_556 S
C1072 N1071 1.351 . S
C1072 C1073 1.434 . S
C1073 C1064 1.424 1_556 S
C1073 N1070 1.350 . S
C1073 C1072 1.434 . S
C1074 C1075 1.361 1_554 S
C1074 C1076 1.419 . S
C1074 H1078 0.930 . S
C1075 C1074 1.361 1_556 S
C1075 C1084 1.437 . S
C1076 C1074 1.419 . S
C1076 C1077 1.360 1_554 S
C1076 H1079 0.929 . S
C1077 C1076 1.360 1_556 S
C1077 C1083 1.432 . S
H1078 C1074 0.930 . S
H1079 C1076 0.929 . S
S1080 N1081 1.613 . S
S1080 N1082 1.610 . S
N1081 S1080 1.613 . S
N1081 C1084 1.350 . S
N1082 S1080 1.610 . S
N1082 C1083 1.351 . S
C1083 C1077 1.432 . S
C1083 N1082 1.351 . S
C1083 C1084 1.434 . S
C1084 C1075 1.437 . S
C1084 N1081 1.350 . S
C1084 C1083 1.434 . S
C1085 C1086 1.365 1_554 S
C1085 C1087 1.419 . S
C1085 H1089 0.930 . S
C1086 C1085 1.365 1_556 S
C1086 C1095 1.433 . S
C1087 C1085 1.419 . S
C1087 C1088 1.363 1_554 S
C1087 H1090 0.929 . S
C1088 C1087 1.363 1_556 S
C1088 C1094 1.429 . S
H1089 C1085 0.930 . S
H1090 C1087 0.929 . S
S1091 N1092 1.613 . S
S1091 N1093 1.610 . S
N1092 S1091 1.613 . S
N1092 C1095 1.350 . S
N1093 S1091 1.610 . S
N1093 C1094 1.351 . S
C1094 C1088 1.429 . S
C1094 N1093 1.351 . S
C1094 C1095 1.434 . S
C1095 C1086 1.433 . S
C1095 N1092 1.350 . S
C1095 C1094 1.434 . S
C1096 C1097 1.363 1_556 S
C1096 C1098 1.419 . S
C1096 H1100 0.930 . S
C1097 C1096 1.363 1_554 S
C1097 C1106 1.435 . S
C1098 C1096 1.419 . S
C1098 C1099 1.357 1_556 S
C1098 H1101 0.929 . S
C1099 C1098 1.357 1_554 S
C1099 C1105 1.434 . S
H1100 C1096 0.930 . S
H1101 C1098 0.929 . S
S1102 N1103 1.613 . S
S1102 N1104 1.610 . S
N1103 S1102 1.613 . S
N1103 C1106 1.350 . S
N1104 S1102 1.610 . S
N1104 C1105 1.351 . S
C1105 C1099 1.434 . S
C1105 N1104 1.351 . S
C1105 C1106 1.434 . S
C1106 C1097 1.435 . S
C1106 N1103 1.350 . S
C1106 C1105 1.434 . S
C1107 C1108 1.370 . S
C1107 C1109 1.419 . S
C1107 H1111 0.930 . S
C1108 C1107 1.370 . S
C1108 C1117 1.428 1_554 S
C1109 C1107 1.419 . S
C1109 C1110 1.364 . S
C1109 H1112 0.929 . S
C1110 C1109 1.364 . S
C1110 C1116 1.428 1_554 S
H1111 C1107 0.930 . S
H1112 C1109 0.929 . S
S1113 N1114 1.613 . S
S1113 N1115 1.610 . S
N1114 S1113 1.613 . S
N1114 C1117 1.350 . S
N1115 S1113 1.610 . S
N1115 C1116 1.351 . S
C1116 C1110 1.428 1_556 S
C1116 N1115 1.351 . S
C1116 C1117 1.434 . S
C1117 C1108 1.428 1_556 S
C1117 N1114 1.350 . S
C1117 C1116 1.434 . S
C1118 C1119 1.369 1_556 S
C1118 C1120 1.419 . S
C1118 H1122 0.930 . S
C1119 C1118 1.369 1_554 S
C1119 C1128 1.429 . S
C1120 C1118 1.419 . S
C1120 C1121 1.344 1_556 S
C1120 H1123 0.929 . S
C1121 C1120 1.344 1_554 S
C1121 C1127 1.448 . S
H1122 C1118 0.930 . S
H1123 C1120 0.929 . S
S1124 N1125 1.613 . S
S1124 N1126 1.610 . S
N1125 S1124 1.613 . S
N1125 C1128 1.350 . S
N1126 S1124 1.610 . S
N1126 C1127 1.351 . S
C1127 C1121 1.448 . S
C1127 N1126 1.351 . S
C1127 C1128 1.434 . S
C1128 C1119 1.429 . S
C1128 N1125 1.350 . S
C1128 C1127 1.434 . S
C1129 C1130 1.370 1_556 S
C1129 C1131 1.419 . S
C1129 H1133 0.930 . S
C1130 C1129 1.370 1_554 S
C1130 C1139 1.428 . S
C1131 C1129 1.419 . S
C1131 C1132 1.362 1_556 S
C1131 H1134 0.929 . S
C1132 C1131 1.362 1_554 S
C1132 C1138 1.429 . S
H1133 C1129 0.930 . S
H1134 C1131 0.929 . S
S1135 N1136 1.613 . S
S1135 N1137 1.610 . S
N1136 S1135 1.613 . S
N1136 C1139 1.350 . S
N1137 S1135 1.610 . S
N1137 C1138 1.351 . S
C1138 C1132 1.429 . S
C1138 N1137 1.351 . S
C1138 C1139 1.434 . S
C1139 C1130 1.428 . S
C1139 N1136 1.350 . S
C1139 C1138 1.434 . S
C1140 C1141 1.369 . S
C1140 C1142 1.419 . S
C1140 H1144 0.930 . S
C1141 C1140 1.369 . S
C1141 C1150 1.429 . S
C1142 C1140 1.419 . S
C1142 C1143 1.363 . S
C1142 H1145 0.929 . S
C1143 C1142 1.363 . S
C1143 C1149 1.428 . S
H1144 C1140 0.930 . S
H1145 C1142 0.929 . S
S1146 N1147 1.613 . S
S1146 N1148 1.610 . S
N1147 S1146 1.613 . S
N1147 C1150 1.350 . S
N1148 S1146 1.610 . S
N1148 C1149 1.351 . S
C1149 C1143 1.428 . S
C1149 N1148 1.351 . S
C1149 C1150 1.434 . S
C1150 C1141 1.429 . S
C1150 N1147 1.350 . S
C1150 C1149 1.434 . S
C1151 C1152 1.369 . S
C1151 C1153 1.419 . S
C1151 H1155 0.930 . S
C1152 C1151 1.369 . S
C1152 C1161 1.429 . S
C1153 C1151 1.419 . S
C1153 C1154 1.363 . S
C1153 H1156 0.929 . S
C1154 C1153 1.363 . S
C1154 C1160 1.428 . S
H1155 C1151 0.930 . S
H1156 C1153 0.929 . S
S1157 N1158 1.613 . S
S1157 N1159 1.610 . S
N1158 S1157 1.613 . S
N1158 C1161 1.350 . S
N1159 S1157 1.610 . S
N1159 C1160 1.351 . S
C1160 C1154 1.428 . S
C1160 N1159 1.351 . S
C1160 C1161 1.434 . S
C1161 C1152 1.429 . S
C1161 N1158 1.350 . S
C1161 C1160 1.434 . S
C1162 C1163 1.369 . S
C1162 C1164 1.419 . S
C1162 H1166 0.930 . S
C1163 C1162 1.369 . S
C1163 C1172 1.429 . S
C1164 C1162 1.419 . S
C1164 C1165 1.363 . S
C1164 H1167 0.929 . S
C1165 C1164 1.363 . S
C1165 C1171 1.428 . S
H1166 C1162 0.930 . S
H1167 C1164 0.929 . S
S1168 N1169 1.613 . S
S1168 N1170 1.610 . S
N1169 S1168 1.613 . S
N1169 C1172 1.350 . S
N1170 S1168 1.610 . S
N1170 C1171 1.351 . S
C1171 C1165 1.428 . S
C1171 N1170 1.351 . S
C1171 C1172 1.434 . S
C1172 C1163 1.429 . S
C1172 N1169 1.350 . S
C1172 C1171 1.434 . S
C1173 C1174 1.369 . S
C1173 C1175 1.419 . S
C1173 H1177 0.930 . S
C1174 C1173 1.369 . S
C1174 C1183 1.429 . S
C1175 C1173 1.419 . S
C1175 C1176 1.363 . S
C1175 H1178 0.929 . S
C1176 C1175 1.363 . S
C1176 C1182 1.428 . S
H1177 C1173 0.930 . S
H1178 C1175 0.929 . S
S1179 N1180 1.613 . S
S1179 N1181 1.610 . S
N1180 S1179 1.613 . S
N1180 C1183 1.350 . S
N1181 S1179 1.610 . S
N1181 C1182 1.351 . S
C1182 C1176 1.428 . S
C1182 N1181 1.351 . S
C1182 C1183 1.434 . S
C1183 C1174 1.429 . S
C1183 N1180 1.350 . S
C1183 C1182 1.434 . S
C1184 C1185 1.369 . S
C1184 C1186 1.419 . S
C1184 H1188 0.930 . S
C1185 C1184 1.369 . S
C1185 C1194 1.429 . S
C1186 C1184 1.419 . S
C1186 C1187 1.363 . S
C1186 H1189 0.929 . S
C1187 C1186 1.363 . S
C1187 C1193 1.428 . S
H1188 C1184 0.930 . S
H1189 C1186 0.929 . S
S1190 N1191 1.613 . S
S1190 N1192 1.610 . S
N1191 S1190 1.613 . S
N1191 C1194 1.350 . S
N1192 S1190 1.610 . S
N1192 C1193 1.351 . S
C1193 C1187 1.428 . S
C1193 N1192 1.351 . S
C1193 C1194 1.434 . S
C1194 C1185 1.429 . S
C1194 N1191 1.350 . S
C1194 C1193 1.434 . S
C1195 C1196 1.369 . S
C1195 C1197 1.419 . S
C1195 H1199 0.930 . S
C1196 C1195 1.369 . S
C1196 C1205 1.429 . S
C1197 C1195 1.419 . S
C1197 C1198 1.363 . S
C1197 H1200 0.929 . S
C1198 C1197 1.363 . S
C1198 C1204 1.428 . S
H1199 C1195 0.930 . S
H1200 C1197 0.929 . S
S1201 N1202 1.613 . S
S1201 N1203 1.610 . S
N1202 S1201 1.613 . S
N1202 C1205 1.350 . S
N1203 S1201 1.610 . S
N1203 C1204 1.351 . S
C1204 C1198 1.428 . S
C1204 N1203 1.351 . S
C1204 C1205 1.434 . S
C1205 C1196 1.429 . S
C1205 N1202 1.350 . S
C1205 C1204 1.434 . S
C1206 C1207 1.369 . S
C1206 C1208 1.419 . S
C1206 H1210 0.930 . S
C1207 C1206 1.369 . S
C1207 C1216 1.429 . S
C1208 C1206 1.419 . S
C1208 C1209 1.363 . S
C1208 H1211 0.929 . S
C1209 C1208 1.363 . S
C1209 C1215 1.428 . S
H1210 C1206 0.930 . S
H1211 C1208 0.929 . S
S1212 N1213 1.613 . S
S1212 N1214 1.610 . S
N1213 S1212 1.613 . S
N1213 C1216 1.350 . S
N1214 S1212 1.610 . S
N1214 C1215 1.351 . S
C1215 C1209 1.428 . S
C1215 N1214 1.351 . S
C1215 C1216 1.434 . S
C1216 C1207 1.429 . S
C1216 N1213 1.350 . S
C1216 C1215 1.434 . S
C1217 C1218 1.369 . S
C1217 C1219 1.419 . S
C1217 H1221 0.930 . S
C1218 C1217 1.369 . S
C1218 C1227 1.429 . S
C1219 C1217 1.419 . S
C1219 C1220 1.363 . S
C1219 H1222 0.929 . S
C1220 C1219 1.363 . S
C1220 C1226 1.428 . S
H1221 C1217 0.930 . S
H1222 C1219 0.929 . S
S1223 N1224 1.613 . S
S1223 N1225 1.610 . S
N1224 S1223 1.613 . S
N1224 C1227 1.350 . S
N1225 S1223 1.610 . S
N1225 C1226 1.351 . S
C1226 C1220 1.428 . S
C1226 N1225 1.351 . S
C1226 C1227 1.434 . S
C1227 C1218 1.429 . S
C1227 N1224 1.350 . S
C1227 C1226 1.434 . S
C1228 C1229 1.369 . S
C1228 C1230 1.419 . S
C1228 H1232 0.930 . S
C1229 C1228 1.369 . S
C1229 C1238 1.429 . S
C1230 C1228 1.419 . S
C1230 C1231 1.363 . S
C1230 H1233 0.929 . S
C1231 C1230 1.363 . S
C1231 C1237 1.428 . S
H1232 C1228 0.930 . S
H1233 C1230 0.929 . S
S1234 N1235 1.613 . S
S1234 N1236 1.610 . S
N1235 S1234 1.613 . S
N1235 C1238 1.350 . S
N1236 S1234 1.610 . S
N1236 C1237 1.351 . S
C1237 C1231 1.428 . S
C1237 N1236 1.351 . S
C1237 C1238 1.434 . S
C1238 C1229 1.429 . S
C1238 N1235 1.350 . S
C1238 C1237 1.434 . S
C1239 C1240 1.369 . S
C1239 C1241 1.419 . S
C1239 H1243 0.930 . S
C1240 C1239 1.369 . S
C1240 C1249 1.429 . S
C1241 C1239 1.419 . S
C1241 C1242 1.363 . S
C1241 H1244 0.929 . S
C1242 C1241 1.363 . S
C1242 C1248 1.428 . S
H1243 C1239 0.930 . S
H1244 C1241 0.929 . S
S1245 N1246 1.613 . S
S1245 N1247 1.610 . S
N1246 S1245 1.613 . S
N1246 C1249 1.350 . S
N1247 S1245 1.610 . S
N1247 C1248 1.351 . S
C1248 C1242 1.428 . S
C1248 N1247 1.351 . S
C1248 C1249 1.434 . S
C1249 C1240 1.429 . S
C1249 N1246 1.350 . S
C1249 C1248 1.434 . S
C1250 C1251 1.369 . S
C1250 C1252 1.419 . S
C1250 H1254 0.930 . S
C1251 C1250 1.369 . S
C1251 C1260 1.429 . S
C1252 C1250 1.419 . S
C1252 C1253 1.363 . S
C1252 H1255 0.929 . S
C1253 C1252 1.363 . S
C1253 C1259 1.428 . S
H1254 C1250 0.930 . S
H1255 C1252 0.929 . S
S1256 N1257 1.613 . S
S1256 N1258 1.610 . S
N1257 S1256 1.613 . S
N1257 C1260 1.350 . S
N1258 S1256 1.610 . S
N1258 C1259 1.351 . S
C1259 C1253 1.428 . S
C1259 N1258 1.351 . S
C1259 C1260 1.434 . S
C1260 C1251 1.429 . S
C1260 N1257 1.350 . S
C1260 C1259 1.434 . S
C1261 C1262 1.369 . S
C1261 C1263 1.419 . S
C1261 H1265 0.930 . S
C1262 C1261 1.369 . S
C1262 C1271 1.429 . S
C1263 C1261 1.419 . S
C1263 C1264 1.363 . S
C1263 H1266 0.929 . S
C1264 C1263 1.363 . S
C1264 C1270 1.428 . S
H1265 C1261 0.930 . S
H1266 C1263 0.929 . S
S1267 N1268 1.613 . S
S1267 N1269 1.610 . S
N1268 S1267 1.613 . S
N1268 C1271 1.350 . S
N1269 S1267 1.610 . S
N1269 C1270 1.351 . S
C1270 C1264 1.428 . S
C1270 N1269 1.351 . S
C1270 C1271 1.434 . S
C1271 C1262 1.429 . S
C1271 N1268 1.350 . S
C1271 C1270 1.434 . S
C1272 C1273 1.369 . S
C1272 C1274 1.419 . S
C1272 H1276 0.930 . S
C1273 C1272 1.369 . S
C1273 C1282 1.429 . S
C1274 C1272 1.419 . S
C1274 C1275 1.363 . S
C1274 H1277 0.929 . S
C1275 C1274 1.363 . S
C1275 C1281 1.428 . S
H1276 C1272 0.930 . S
H1277 C1274 0.929 . S
S1278 N1279 1.613 . S
S1278 N1280 1.610 . S
N1279 S1278 1.613 . S
N1279 C1282 1.350 . S
N1280 S1278 1.610 . S
N1280 C1281 1.351 . S
C1281 C1275 1.428 . S
C1281 N1280 1.351 . S
C1281 C1282 1.434 . S
C1282 C1273 1.429 . S
C1282 N1279 1.350 . S
C1282 C1281 1.434 . S
C1283 C1284 1.369 . S
C1283 C1285 1.419 . S
C1283 H1287 0.930 . S
C1284 C1283 1.369 . S
C1284 C1293 1.429 . S
C1285 C1283 1.419 . S
C1285 C1286 1.363 . S
C1285 H1288 0.929 . S
C1286 C1285 1.363 . S
C1286 C1292 1.428 . S
H1287 C1283 0.930 . S
H1288 C1285 0.929 . S
S1289 N1290 1.613 . S
S1289 N1291 1.610 . S
N1290 S1289 1.613 . S
N1290 C1293 1.350 . S
N1291 S1289 1.610 . S
N1291 C1292 1.351 . S
C1292 C1286 1.428 . S
C1292 N1291 1.351 . S
C1292 C1293 1.434 . S
C1293 C1284 1.429 . S
C1293 N1290 1.350 . S
C1293 C1292 1.434 . S
C1294 C1295 1.369 . S
C1294 C1296 1.419 . S
C1294 H1298 0.930 . S
C1295 C1294 1.369 . S
C1295 C1304 1.429 . S
C1296 C1294 1.419 . S
C1296 C1297 1.363 . S
C1296 H1299 0.929 . S
C1297 C1296 1.363 . S
C1297 C1303 1.428 . S
H1298 C1294 0.930 . S
H1299 C1296 0.929 . S
S1300 N1301 1.613 . S
S1300 N1302 1.610 . S
N1301 S1300 1.613 . S
N1301 C1304 1.350 . S
N1302 S1300 1.610 . S
N1302 C1303 1.351 . S
C1303 C1297 1.428 . S
C1303 N1302 1.351 . S
C1303 C1304 1.434 . S
C1304 C1295 1.429 . S
C1304 N1301 1.350 . S
C1304 C1303 1.434 . S
C1305 C1306 1.369 . S
C1305 C1307 1.419 . S
C1305 H1309 0.930 . S
C1306 C1305 1.369 . S
C1306 C1315 1.429 . S
C1307 C1305 1.419 . S
C1307 C1308 1.363 . S
C1307 H1310 0.929 . S
C1308 C1307 1.363 . S
C1308 C1314 1.428 . S
H1309 C1305 0.930 . S
H1310 C1307 0.929 . S
S1311 N1312 1.613 . S
S1311 N1313 1.610 . S
N1312 S1311 1.613 . S
N1312 C1315 1.350 . S
N1313 S1311 1.610 . S
N1313 C1314 1.351 . S
C1314 C1308 1.428 . S
C1314 N1313 1.351 . S
C1314 C1315 1.434 . S
C1315 C1306 1.429 . S
C1315 N1312 1.350 . S
C1315 C1314 1.434 . S
C1316 C1317 1.369 . S
C1316 C1318 1.419 . S
C1316 H1320 0.930 . S
C1317 C1316 1.369 . S
C1317 C1326 1.429 . S
C1318 C1316 1.419 . S
C1318 C1319 1.363 . S
C1318 H1321 0.929 . S
C1319 C1318 1.363 . S
C1319 C1325 1.428 . S
H1320 C1316 0.930 . S
H1321 C1318 0.929 . S
S1322 N1323 1.613 . S
S1322 N1324 1.610 . S
N1323 S1322 1.613 . S
N1323 C1326 1.350 . S
N1324 S1322 1.610 . S
N1324 C1325 1.351 . S
C1325 C1319 1.428 . S
C1325 N1324 1.351 . S
C1325 C1326 1.434 . S
C1326 C1317 1.429 . S
C1326 N1323 1.350 . S
C1326 C1325 1.434 . S
C1327 C1328 1.369 . S
C1327 C1329 1.419 . S
C1327 H1331 0.930 . S
C1328 C1327 1.369 . S
C1328 C1337 1.429 . S
C1329 C1327 1.419 . S
C1329 C1330 1.363 . S
C1329 H1332 0.929 . S
C1330 C1329 1.363 . S
C1330 C1336 1.428 . S
H1331 C1327 0.930 . S
H1332 C1329 0.929 . S
S1333 N1334 1.613 . S
S1333 N1335 1.610 . S
N1334 S1333 1.613 . S
N1334 C1337 1.350 . S
N1335 S1333 1.610 . S
N1335 C1336 1.351 . S
C1336 C1330 1.428 . S
C1336 N1335 1.351 . S
C1336 C1337 1.434 . S
C1337 C1328 1.429 . S
C1337 N1334 1.350 . S
C1337 C1336 1.434 . S
C1338 C1339 1.369 . S
C1338 C1340 1.419 . S
C1338 H1342 0.930 . S
C1339 C1338 1.369 . S
C1339 C1348 1.429 . S
C1340 C1338 1.419 . S
C1340 C1341 1.363 . S
C1340 H1343 0.929 . S
C1341 C1340 1.363 . S
C1341 C1347 1.428 . S
H1342 C1338 0.930 . S
H1343 C1340 0.929 . S
S1344 N1345 1.613 . S
S1344 N1346 1.610 . S
N1345 S1344 1.613 . S
N1345 C1348 1.350 . S
N1346 S1344 1.610 . S
N1346 C1347 1.351 . S
C1347 C1341 1.428 . S
C1347 N1346 1.351 . S
C1347 C1348 1.434 . S
C1348 C1339 1.429 . S
C1348 N1345 1.350 . S
C1348 C1347 1.434 . S
C1349 C1350 1.369 . S
C1349 C1351 1.419 . S
C1349 H1353 0.930 . S
C1350 C1349 1.369 . S
C1350 C1359 1.429 . S
C1351 C1349 1.419 . S
C1351 C1352 1.363 . S
C1351 H1354 0.929 . S
C1352 C1351 1.363 . S
C1352 C1358 1.428 . S
H1353 C1349 0.930 . S
H1354 C1351 0.929 . S
S1355 N1356 1.613 . S
S1355 N1357 1.610 . S
N1356 S1355 1.613 . S
N1356 C1359 1.350 . S
N1357 S1355 1.610 . S
N1357 C1358 1.351 . S
C1358 C1352 1.428 . S
C1358 N1357 1.351 . S
C1358 C1359 1.434 . S
C1359 C1350 1.429 . S
C1359 N1356 1.350 . S
C1359 C1358 1.434 . S
C1360 C1361 1.369 . S
C1360 C1362 1.419 . S
C1360 H1364 0.930 . S
C1361 C1360 1.369 . S
C1361 C1370 1.429 . S
C1362 C1360 1.419 . S
C1362 C1363 1.363 . S
C1362 H1365 0.929 . S
C1363 C1362 1.363 . S
C1363 C1369 1.428 . S
H1364 C1360 0.930 . S
H1365 C1362 0.929 . S
S1366 N1367 1.613 . S
S1366 N1368 1.610 . S
N1367 S1366 1.613 . S
N1367 C1370 1.350 . S
N1368 S1366 1.610 . S
N1368 C1369 1.351 . S
C1369 C1363 1.428 . S
C1369 N1368 1.351 . S
C1369 C1370 1.434 . S
C1370 C1361 1.429 . S
C1370 N1367 1.350 . S
C1370 C1369 1.434 . S
C1371 C1372 1.369 . S
C1371 C1373 1.419 . S
C1371 H1375 0.930 . S
C1372 C1371 1.369 . S
C1372 C1381 1.429 . S
C1373 C1371 1.419 . S
C1373 C1374 1.363 . S
C1373 H1376 0.929 . S
C1374 C1373 1.363 . S
C1374 C1380 1.428 . S
H1375 C1371 0.930 . S
H1376 C1373 0.929 . S
S1377 N1378 1.613 . S
S1377 N1379 1.610 . S
N1378 S1377 1.613 . S
N1378 C1381 1.350 . S
N1379 S1377 1.610 . S
N1379 C1380 1.351 . S
C1380 C1374 1.428 . S
C1380 N1379 1.351 . S
C1380 C1381 1.434 . S
C1381 C1372 1.429 . S
C1381 N1378 1.350 . S
C1381 C1380 1.434 . S
C1382 C1383 1.369 . S
C1382 C1384 1.419 . S
C1382 H1386 0.930 . S
C1383 C1382 1.369 . S
C1383 C1392 1.429 . S
C1384 C1382 1.419 . S
C1384 C1385 1.363 . S
C1384 H1387 0.929 . S
C1385 C1384 1.363 . S
C1385 C1391 1.428 . S
H1386 C1382 0.930 . S
H1387 C1384 0.929 . S
S1388 N1389 1.613 . S
S1388 N1390 1.610 . S
N1389 S1388 1.613 . S
N1389 C1392 1.350 . S
N1390 S1388 1.610 . S
N1390 C1391 1.351 . S
C1391 C1385 1.428 . S
C1391 N1390 1.351 . S
C1391 C1392 1.434 . S
C1392 C1383 1.429 . S
C1392 N1389 1.350 . S
C1392 C1391 1.434 . S
C1393 C1394 1.369 . S
C1393 C1395 1.419 . S
C1393 H1397 0.930 . S
C1394 C1393 1.369 . S
C1394 C1403 1.429 . S
C1395 C1393 1.419 . S
C1395 C1396 1.363 . S
C1395 H1398 0.929 . S
C1396 C1395 1.363 . S
C1396 C1402 1.428 . S
H1397 C1393 0.930 . S
H1398 C1395 0.929 . S
S1399 N1400 1.613 . S
S1399 N1401 1.610 . S
N1400 S1399 1.613 . S
N1400 C1403 1.350 . S
N1401 S1399 1.610 . S
N1401 C1402 1.351 . S
C1402 C1396 1.428 . S
C1402 N1401 1.351 . S
C1402 C1403 1.434 . S
C1403 C1394 1.429 . S
C1403 N1400 1.350 . S
C1403 C1402 1.434 . S
C615 C318 1.387 . S
C613 N300 1.347 . S
C624 N278 1.510 . S
C626 C316 1.543 . S
C637 C317 1.543 . S
C635 N265 1.505 . S
C646 N287 1.344 . S
C648 C319 1.387 . S
C659 C363 1.398 . S
C657 N213 1.362 . S
C670 C423 1.358 . S
C668 N226 1.313 . S
C679 N239 1.364 . S
C681 C362 1.406 . S
C692 C422 1.507 . S
C690 N252 1.474 . S
C701 N161 1.363 . S
C703 C364 1.398 . S
C714 C420 1.507 . S
C712 N174 1.475 . S
C723 N187 1.355 . S
C725 C365 1.408 . S
C734 N200 1.310 . S
C736 C421 1.358 . S
C747 C471 1.387 . S
C745 N144 1.347 . S
C756 N122 1.506 . S
C758 C470 1.543 . S
C767 N109 1.505 . S
C769 C472 1.543 . S
C780 C473 1.387 1_556 S
C778 N131 1.343 . S
C789 N57 1.363 . S
C791 C514 1.398 . S
C800 N70 1.311 . S
C802 C573 1.358 . S
C811 N83 1.361 . S
C813 C512 1.406 . S
C822 N96 1.479 1_545 S
C824 C572 1.507 . S
C835 C513 1.399 . S
C833 N5 1.354 . S
C846 C570 1.507 . S
C844 N18 1.472 . S
C855 N31 1.357 . S
C857 C515 1.407 . S
C868 C571 1.356 . S
C866 N44 1.319 . S
C879 C315 1.389 . S
C877 N2 1.322 . S
C888 N15 1.500 . S
C890 C321 1.551 . S
C899 N27 1.596 . S
C901 C313 1.600 . S
C910 N41 1.329 1_545 S
C912 C320 1.397 . S
C921 N54 1.314 . S
C923 C312 1.390 . S
C934 C322 1.399 1_565 S
C932 N67 1.319 1_565 S
C943 N79 1.594 . S
C945 C314 1.600 . S
C956 C323 1.551 . S
C954 N93 1.495 1_545 S
C967 C369 1.575 . S
C965 N40 1.570 1_545 S
C976 N1 1.544 . S
C978 C412 1.547 . S
C989 C367 1.600 . S
C987 N14 1.593 . S
C1000 C414 1.357 . S
C998 N28 1.273 . S
C1009 N66 1.570 . S
C1011 C368 1.575 . S
C1022 C413 1.355 . S
C1020 N80 1.280 . S
C1033 C366 1.599 . S
C1031 N92 1.593 1_545 S
C1044 C415 1.547 . S
C1042 N53 1.542 . S
C1055 C419 1.570 . S
C1053 N106 1.516 . S
C1064 N119 1.515 1_554 S
C1066 C418 1.570 . S
C1077 C370 1.726 1_556 S
C1075 N105 1.721 1_556 S
C1088 C417 1.671 1_556 S
C1086 N135 1.667 . S
C1097 N145 1.349 . S
C1099 C373 1.447 . S
C1108 N148 1.669 . S
C1110 C416 1.671 . S
C1121 C372 1.726 . S
C1119 N118 1.722 1_554 S
C1132 C371 1.445 . S
C1130 N132 1.361 1_554 S
C1143 C465 1.390 . S
C1141 N158 1.314 . S
C1154 C468 1.551 . S
C1152 N171 1.501 . S
C1163 N183 1.594 . S
C1165 C464 1.600 . S
C1176 C466 1.399 . S
C1174 N197 1.321 . S
C1187 C462 1.388 . S
C1185 N210 1.325 . S
C1196 N223 1.322 . S
C1198 C467 1.398 . S
C1207 N235 1.595 . S
C1209 C463 1.600 . S
C1220 C469 1.551 . S
C1218 N249 1.493 . S
C1231 C523 1.576 . S
C1229 N196 1.570 . S
C1240 N157 1.544 . S
C1242 C562 1.547 . S
C1253 C522 1.599 . S
C1251 N170 1.594 . S
C1264 C564 1.354 . S
C1262 N184 1.283 . S
C1275 C521 1.576 . S
C1273 N222 1.568 . S
C1284 N236 1.277 . S
C1286 C563 1.356 . S
C1297 C520 1.599 . S
C1295 N248 1.594 . S
C1308 C565 1.547 . S
C1306 N209 1.543 . S
C1319 C569 1.570 . S
C1317 N262 1.517 . S
C1328 N275 1.516 . S
C1330 C568 1.570 . S
C1341 C516 1.726 . S
C1339 N261 1.722 . S
C1350 N291 1.667 . S
C1352 C567 1.671 . S
C1363 C519 1.447 . S
C1361 N301 1.348 . S
C1374 C566 1.671 . S
C1372 N304 1.668 . S
C1385 C517 1.726 . S
C1383 N274 1.722 . S
C1394 N288 1.349 . S
C1396 C518 1.447 . S
