# Generated by pormake.
# Topology apo, (3,6)-cn, num edge types: 1
# Building blocks:
#     Node 0, Type 0, BuildingBlock: QEWDON_clean_linker_0, # of connection points: 3
#     Node 1, Type 0, BuildingBlock: QEWDON_clean_linker_0, # of connection points: 3
#     Node 2, Type 0, BuildingBlock: QEWDON_clean_linker_0, # of connection points: 3
#     Node 3, Type 0, BuildingBlock: QEWDON_clean_linker_0, # of connection points: 3
#     Node 4, Type 0, BuildingBlock: QEWDON_clean_linker_0, # of connection points: 3
#     Node 5, Type 0, BuildingBlock: QEWDON_clean_linker_0, # of connection points: 3
#     Node 6, Type 0, BuildingBlock: QEWDON_clean_linker_0, # of connection points: 3
#     Node 7, Type 0, BuildingBlock: QEWDON_clean_linker_0, # of connection points: 3
#     Node 8, Type 1, BuildingBlock: MIDCAF_clean_sbu_0, # of connection points: 6
#     Node 9, Type 1, BuildingBlock: MIDCAF_clean_sbu_0, # of connection points: 6
#     Node 10, Type 1, BuildingBlock: MIDCAF_clean_sbu_0, # of connection points: 6
#     Node 11, Type 1, BuildingBlock: MIDCAF_clean_sbu_0, # of connection points: 6
#     Edge 12, Type (0, 1), BuildingBlock: EZIPEK_clean_linker_0, # of connection points: 2
#     Edge 13, Type (0, 1), BuildingBlock: EZIPEK_clean_linker_0, # of connection points: 2
#     Edge 14, Type (0, 1), BuildingBlock: EZIPEK_clean_linker_0, # of connection points: 2
#     Edge 15, Type (0, 1), BuildingBlock: EZIPEK_clean_linker_0, # of connection points: 2
#     Edge 16, Type (0, 1), BuildingBlock: EZIPEK_clean_linker_0, # of connection points: 2
#     Edge 17, Type (0, 1), BuildingBlock: EZIPEK_clean_linker_0, # of connection points: 2
#     Edge 18, Type (0, 1), BuildingBlock: EZIPEK_clean_linker_0, # of connection points: 2
#     Edge 19, Type (0, 1), BuildingBlock: EZIPEK_clean_linker_0, # of connection points: 2
#     Edge 20, Type (0, 1), BuildingBlock: EZIPEK_clean_linker_0, # of connection points: 2
#     Edge 21, Type (0, 1), BuildingBlock: EZIPEK_clean_linker_0, # of connection points: 2
#     Edge 22, Type (0, 1), BuildingBlock: EZIPEK_clean_linker_0, # of connection points: 2
#     Edge 23, Type (0, 1), BuildingBlock: EZIPEK_clean_linker_0, # of connection points: 2
#     Edge 24, Type (0, 1), BuildingBlock: EZIPEK_clean_linker_0, # of connection points: 2
#     Edge 25, Type (0, 1), BuildingBlock: EZIPEK_clean_linker_0, # of connection points: 2
#     Edge 26, Type (0, 1), BuildingBlock: EZIPEK_clean_linker_0, # of connection points: 2
#     Edge 27, Type (0, 1), BuildingBlock: EZIPEK_clean_linker_0, # of connection points: 2
#     Edge 28, Type (0, 1), BuildingBlock: EZIPEK_clean_linker_0, # of connection points: 2
#     Edge 29, Type (0, 1), BuildingBlock: EZIPEK_clean_linker_0, # of connection points: 2
#     Edge 30, Type (0, 1), BuildingBlock: EZIPEK_clean_linker_0, # of connection points: 2
#     Edge 31, Type (0, 1), BuildingBlock: EZIPEK_clean_linker_0, # of connection points: 2
#     Edge 32, Type (0, 1), BuildingBlock: EZIPEK_clean_linker_0, # of connection points: 2
#     Edge 33, Type (0, 1), BuildingBlock: EZIPEK_clean_linker_0, # of connection points: 2
#     Edge 34, Type (0, 1), BuildingBlock: EZIPEK_clean_linker_0, # of connection points: 2
#     Edge 35, Type (0, 1), BuildingBlock: EZIPEK_clean_linker_0, # of connection points: 2
# Relax obj value: 0.009
# Max RMSD: 0.102
# Mean RMSD: 0.087
data_MOF--net-apo--node1-MIDCAF_clean_sbu_0--node2-QEWDON_clean_linker_0--edge1-EZIPEK_clean_linker_0
_symmetry_space_group_name_H-M    P1
_symmetry_Int_Tables_number       1
_symmetry_cell_setting            triclinic
loop_
_symmetry_equiv_pos_as_xyz
'x, y, z'
_cell_length_a     29.277474
_cell_length_b     31.449566
_cell_length_c     25.474997
_cell_angle_alpha  89.78674
_cell_angle_beta   90.515579
_cell_angle_gamma 90.290993
loop_
_atom_site_label
_atom_site_type_symbol
_atom_site_fract_x
_atom_site_fract_y
_atom_site_fract_z
_atom_type_partial_charge
H0 H 0.30748 0.34031 0.34042 0.0
C1 C 0.32776 0.33776 0.37608 0.0
C2 C 0.36367 0.36683 0.38481 0.0
C3 C 0.31529 0.30851 0.4155 0.0
H4 H 0.41378 0.3899 0.44056 0.0
C5 C 0.38762 0.36615 0.43277 0.0
C6 C 0.37596 0.33692 0.47211 0.0
C7 C 0.34067 0.30759 0.46287 0.0
C8 C 0.27231 0.28314 0.41077 0.0
H9 H 0.33163 0.28546 0.49384 0.0
C10 C 0.25882 0.26336 0.36325 0.0
C11 C 0.21772 0.23981 0.36072 0.0
C12 C 0.24346 0.27984 0.4546 0.0
H13 H 0.25184 0.29576 0.49109 0.0
C14 C 0.20288 0.25673 0.45185 0.0
H15 H 0.2802 0.26568 0.32886 0.0
C16 C 0.19015 0.23672 0.40538 0.0
H17 H 0.15843 0.21879 0.40411 0.0
H18 H 0.18109 0.25446 0.48587 0.0
H19 H 0.19842 0.14941 0.8171 0.0
C20 C 0.18752 0.14884 0.85764 0.0
C21 C 0.14752 0.1264 0.87134 0.0
C22 C 0.21587 0.16624 0.89718 0.0
H23 H 0.10405 0.10697 0.93522 0.0
C24 C 0.13442 0.12466 0.92416 0.0
C25 C 0.16088 0.14402 0.96327 0.0
C26 C 0.20137 0.16488 0.94979 0.0
C27 C 0.26314 0.18068 0.8857 0.0
H28 H 0.22245 0.17856 0.98066 0.0
C29 C 0.27309 0.20897 0.84412 0.0
C30 C 0.31786 0.22515 0.83832 0.0
C31 C 0.29898 0.1663 0.9183 0.0
H32 H 0.29262 0.14359 0.94951 0.0
C33 C 0.34337 0.18101 0.91132 0.0
H34 H 0.24601 0.21979 0.81814 0.0
C35 C 0.35268 0.21061 0.87217 0.0
H36 H 0.38731 0.22254 0.86852 0.0
H37 H 0.37055 0.16993 0.93693 0.0
H38 H 0.82084 0.1593 0.67303 0.0
C39 C 0.83294 0.16033 0.63297 0.0
C40 C 0.86928 0.13379 0.61846 0.0
C41 C 0.80931 0.18434 0.59469 0.0
H42 H 0.91103 0.11258 0.55435 0.0
C43 C 0.88372 0.13362 0.56607 0.0
C44 C 0.86214 0.159 0.52815 0.0
C45 C 0.8253 0.18446 0.54258 0.0
C46 C 0.765 0.20505 0.60701 0.0
H47 H 0.80821 0.2032 0.51257 0.0
C48 C 0.75756 0.22609 0.65514 0.0
C49 C 0.7154 0.24606 0.66457 0.0
C50 C 0.72894 0.20271 0.57008 0.0
H51 H 0.73267 0.18545 0.53368 0.0
C52 C 0.68721 0.22196 0.57977 0.0
H53 H 0.78451 0.22788 0.68448 0.0
C54 C 0.68054 0.24372 0.62643 0.0
H55 H 0.6479 0.25886 0.63289 0.0
H56 H 0.6599 0.22001 0.55094 0.0
H57 H 0.6819 0.36359 0.21746 0.0
C58 C 0.67261 0.35616 0.17716 0.0
C59 C 0.63374 0.37485 0.15536 0.0
C60 C 0.7034 0.33404 0.14563 0.0
H61 H 0.59355 0.38377 0.08513 0.0
C62 C 0.6228 0.36781 0.10247 0.0
C63 C 0.6518 0.34379 0.07056 0.0
C64 C 0.69235 0.32671 0.09234 0.0
C65 C 0.75027 0.32817 0.16675 0.0
H66 H 0.71649 0.3108 0.06721 0.0
C67 C 0.77064 0.28789 0.17148 0.0
C68 C 0.81358 0.28402 0.19656 0.0
C69 C 0.77375 0.36418 0.18598 0.0
H70 H 0.75891 0.39557 0.18239 0.0
C71 C 0.81609 0.36017 0.2107 0.0
H72 H 0.75328 0.25995 0.15634 0.0
C73 C 0.83586 0.32028 0.21627 0.0
H74 H 0.86911 0.3177 0.23503 0.0
H75 H 0.83365 0.38807 0.22553 0.0
H76 H 0.63355 0.69924 0.70866 0.0
C77 C 0.6284 0.69438 0.66692 0.0
C78 C 0.60704 0.65697 0.64904 0.0
C79 C 0.64328 0.72526 0.63074 0.0
H80 H 0.58224 0.62269 0.58135 0.0
C81 C 0.59932 0.65132 0.59508 0.0
C82 C 0.61378 0.68186 0.55858 0.0
C83 C 0.63665 0.71834 0.57656 0.0
C84 C 0.66536 0.76518 0.64864 0.0
H85 H 0.64868 0.7416 0.5483 0.0
C86 C 0.7038 0.76455 0.68238 0.0
C87 C 0.72903 0.80216 0.69151 0.0
C88 C 0.64999 0.80418 0.62824 0.0
H89 H 0.62016 0.80547 0.6028 0.0
C90 C 0.67333 0.84175 0.6397 0.0
H91 H 0.71591 0.73463 0.69837 0.0
C92 C 0.71294 0.84073 0.67037 0.0
H93 H 0.73159 0.87012 0.67689 0.0
H94 H 0.6614 0.87162 0.62353 0.0
H95 H 0.85844 0.79704 0.20786 0.0
C96 C 0.86144 0.80285 0.16607 0.0
C97 C 0.88625 0.83831 0.14798 0.0
C98 C 0.84095 0.77477 0.12983 0.0
H99 H 0.91048 0.87217 0.07994 0.0
C100 C 0.89097 0.84501 0.09388 0.0
C101 C 0.87079 0.81733 0.05747 0.0
C102 C 0.84518 0.78261 0.07559 0.0
C103 C 0.81678 0.73595 0.14747 0.0
H104 H 0.82925 0.7613 0.04743 0.0
C105 C 0.77756 0.73819 0.17902 0.0
C106 C 0.75083 0.70142 0.18778 0.0
C107 C 0.83098 0.69636 0.1284 0.0
H108 H 0.86119 0.69398 0.10434 0.0
C109 C 0.80597 0.65967 0.13935 0.0
H110 H 0.76632 0.76865 0.19378 0.0
C111 C 0.76588 0.66219 0.16817 0.0
H112 H 0.74607 0.63345 0.17451 0.0
H113 H 0.81705 0.62932 0.12428 0.0
H114 H 0.1232 0.79457 0.32526 0.0
C115 C 0.12022 0.79897 0.36727 0.0
C116 C 0.09973 0.83589 0.38674 0.0
C117 C 0.13751 0.76824 0.40225 0.0
H118 H 0.0792 0.8696 0.456 0.0
C119 C 0.09535 0.84118 0.44105 0.0
C120 C 0.11267 0.81084 0.47633 0.0
C121 C 0.13452 0.77483 0.45671 0.0
C122 C 0.15978 0.72943 0.38286 0.0
H123 H 0.14903 0.75188 0.48393 0.0
C124 C 0.19722 0.7322 0.34876 0.0
C125 C 0.22369 0.69597 0.33881 0.0
C126 C 0.14646 0.68962 0.40285 0.0
H127 H 0.11748 0.68685 0.42883 0.0
C128 C 0.17097 0.65324 0.3904 0.0
H129 H 0.20777 0.76284 0.33327 0.0
C130 C 0.20976 0.65642 0.35932 0.0
H131 H 0.22947 0.62802 0.35199 0.0
H132 H 0.1607 0.6227 0.4062 0.0
H133 H 0.37056 0.68356 0.80682 0.0
C134 C 0.36913 0.68017 0.84913 0.0
C135 C 0.39007 0.6452 0.87384 0.0
C136 C 0.34687 0.71094 0.87941 0.0
H137 H 0.40685 0.61552 0.94778 0.0
C138 C 0.38981 0.64206 0.92872 0.0
C139 C 0.36816 0.67279 0.95935 0.0
C140 C 0.34565 0.70665 0.93438 0.0
C141 C 0.32982 0.75049 0.85518 0.0
H142 H 0.32907 0.73068 0.95783 0.0
C143 C 0.28453 0.75381 0.8366 0.0
C144 C 0.26653 0.79395 0.82284 0.0
C145 C 0.35793 0.78669 0.85643 0.0
H146 H 0.39279 0.7846 0.87088 0.0
C147 C 0.3409 0.82606 0.84075 0.0
H148 H 0.26272 0.72586 0.83578 0.0
C149 C 0.29541 0.82986 0.82489 0.0
H150 H 0.28248 0.8611 0.81485 0.0
H151 H 0.36266 0.85396 0.84235 0.0
Zn152 Zn 0.04674 0.08006 0.34078 0.0
Zn153 Zn 0.9726 0.06904 0.1565 0.0
Zn154 Zn 0.00932 0.07978 0.24895 0.0
C155 C 0.06048 0.10134 0.14124 0.0
C156 C 0.96529 0.99129 0.20188 0.0
O157 O 0.96159 0.11463 0.30028 0.0
O158 O 0.99237 0.10044 0.37813 0.0
C159 C 0.10185 0.13037 0.27782 0.0
O160 O 0.05871 0.1054 0.1915 0.0
O161 O 0.02862 0.08289 0.11639 0.0
O162 O 0.95039 0.01014 0.16156 0.0
O163 O 0.98997 0.01145 0.236 0.0
O164 O 0.09517 0.12155 0.32545 0.0
O165 O 0.07524 0.1152 0.2418 0.0
O166 O 0.02136 0.01333 0.27626 0.0
O167 O 0.06454 0.02 0.34753 0.0
C168 C 0.04569 0.99672 0.31343 0.0
O169 O 0.94846 0.12114 0.24739 0.0
O170 O 0.92752 0.11489 0.164 0.0
C171 C 0.96052 0.11623 0.3508 0.0
C172 C 0.92308 0.13237 0.20817 0.0
Zn173 Zn 0.56464 0.41346 0.68319 0.0
Zn174 Zn 0.47264 0.40523 0.85555 0.0
Zn175 Zn 0.51839 0.4069 0.76887 0.0
C176 C 0.47009 0.48866 0.82251 0.0
C177 C 0.42637 0.35286 0.78348 0.0
O178 O 0.58282 0.37127 0.78324 0.0
O179 O 0.61272 0.37334 0.70383 0.0
C180 C 0.55821 0.49502 0.71886 0.0
O181 O 0.4981 0.47307 0.78892 0.0
O182 O 0.45181 0.46496 0.85646 0.0
O183 O 0.42774 0.36244 0.83154 0.0
O184 O 0.45625 0.36833 0.75175 0.0
O185 O 0.57964 0.47446 0.68468 0.0
O186 O 0.53206 0.47549 0.75167 0.0
O187 O 0.47795 0.37649 0.70399 0.0
O188 O 0.51765 0.39305 0.63313 0.0
C189 C 0.48272 0.37653 0.65362 0.0
O190 O 0.56206 0.3768 0.83208 0.0
O191 O 0.52172 0.38656 0.90411 0.0
C192 C 0.61393 0.36009 0.75061 0.0
C193 C 0.55779 0.37401 0.88246 0.0
Zn194 Zn 0.02999 0.91584 0.85506 0.0
Zn195 Zn 0.9591 0.90476 0.67625 0.0
Zn196 Zn 0.99526 0.90697 0.76433 0.0
C197 C 0.95146 0.98766 0.7024 0.0
C198 C 0.90351 0.85528 0.73801 0.0
O199 O 0.0603 0.87069 0.76231 0.0
O200 O 0.07925 0.87365 0.84638 0.0
C201 C 0.03834 0.99455 0.81014 0.0
O202 O 0.97789 0.9737 0.7394 0.0
O203 O 0.93573 0.96246 0.66842 0.0
O204 O 0.9123 0.86138 0.6902 0.0
O205 O 0.92953 0.87175 0.77371 0.0
O206 O 0.05034 0.97524 0.85138 0.0
O207 O 0.01417 0.97531 0.77482 0.0
O208 O 0.94891 0.87782 0.82402 0.0
O209 O 0.9784 0.89972 0.89959 0.0
C210 C 0.94758 0.88011 0.87456 0.0
O211 O 0.04188 0.87229 0.7108 0.0
O212 O 0.01101 0.88826 0.63367 0.0
C213 C 0.08714 0.86035 0.80067 0.0
C214 C 0.0427 0.87154 0.66019 0.0
Zn215 Zn 0.51808 0.60021 0.17885 0.0
Zn216 Zn 0.45283 0.5998 0.34433 0.0
Zn217 Zn 0.48579 0.59739 0.26194 0.0
C218 C 0.53406 0.62483 0.37165 0.0
C219 C 0.4289 0.52049 0.30475 0.0
O220 O 0.43895 0.62752 0.20133 0.0
O221 O 0.46865 0.60444 0.12746 0.0
C222 C 0.57348 0.65286 0.2336 0.0
O223 O 0.53211 0.62924 0.32125 0.0
O224 O 0.50311 0.60453 0.39506 0.0
O225 O 0.41822 0.5469 0.33953 0.0
O226 O 0.4631 0.52945 0.27489 0.0
O227 O 0.56021 0.64907 0.18655 0.0
O228 O 0.55099 0.6338 0.27016 0.0
O229 O 0.50803 0.53 0.25243 0.0
O230 O 0.55076 0.54702 0.1852 0.0
C231 C 0.54127 0.52123 0.22148 0.0
O232 O 0.42114 0.63263 0.25226 0.0
O233 O 0.41246 0.64933 0.33535 0.0
C234 C 0.43713 0.62342 0.15091 0.0
C235 C 0.39909 0.65228 0.28824 0.0
C236 C 0.03686 0.8797 0.34777 0.0
C237 C 0.08424 0.87079 0.3515 0.0
C238 C 0.10128 0.93802 0.30713 0.0
C239 C 0.05556 0.95074 0.31484 0.0
N240 N 0.97845 0.934 0.33992 0.0
N241 N 0.16243 0.89138 0.33479 0.0
C242 C 0.02258 0.92133 0.33325 0.0
C243 C 0.11674 0.89944 0.32999 0.0
N244 N 0.0059 0.84839 0.35888 0.0
N245 N 0.12985 0.9633 0.27839 0.0
H246 H 0.17536 0.8634 0.35097 0.0
H247 H 0.18767 0.91359 0.32573 0.0
H248 H 0.11891 0.99165 0.26101 0.0
H249 H 0.16254 0.95419 0.2674 0.0
H250 H 0.97086 0.85159 0.35291 0.0
H251 H 0.01592 0.81771 0.36952 0.0
H252 H 0.95377 0.91556 0.35854 0.0
H253 H 0.967 0.96409 0.3288 0.0
C254 C 0.38594 0.57781 0.8213 0.0
C255 C 0.41271 0.61091 0.84366 0.0
C256 C 0.48165 0.56717 0.83714 0.0
C257 C 0.45413 0.53317 0.81857 0.0
N258 N 0.38484 0.51004 0.7759 0.0
N259 N 0.48668 0.64246 0.85823 0.0
C260 C 0.40779 0.54002 0.8047 0.0
C261 C 0.461 0.60737 0.8463 0.0
N262 N 0.33944 0.58126 0.81921 0.0
N263 N 0.52665 0.56028 0.84876 0.0
H264 H 0.47197 0.6721 0.86493 0.0
H265 H 0.5222 0.6432 0.85692 0.0
H266 H 0.54269 0.53144 0.84113 0.0
H267 H 0.54761 0.58231 0.86773 0.0
H268 H 0.31771 0.55612 0.80954 0.0
H269 H 0.32221 0.60877 0.82998 0.0
H270 H 0.35214 0.51453 0.76054 0.0
H271 H 0.40049 0.48226 0.76296 0.0
C272 C 0.62588 0.59474 0.70778 0.0
C273 C 0.59274 0.62239 0.68547 0.0
C274 C 0.5323 0.57005 0.70254 0.0
C275 C 0.56599 0.54147 0.72121 0.0
N276 N 0.64026 0.53124 0.75974 0.0
N277 N 0.5139 0.64279 0.67813 0.0
C278 C 0.61124 0.55573 0.73037 0.0
C279 C 0.54559 0.61222 0.68897 0.0
N280 N 0.67137 0.60399 0.70376 0.0
N281 N 0.4886 0.5561 0.69414 0.0
H282 H 0.52326 0.67385 0.66815 0.0
H283 H 0.479 0.63856 0.68393 0.0
H284 H 0.47785 0.52548 0.70403 0.0
H285 H 0.46366 0.57408 0.67511 0.0
H286 H 0.69705 0.5825 0.71354 0.0
H287 H 0.68372 0.63221 0.68761 0.0
H288 H 0.67269 0.54129 0.77158 0.0
H289 H 0.62978 0.50255 0.77671 0.0
C290 C 0.88118 0.90275 0.20553 0.0
C291 C 0.90793 0.86974 0.18403 0.0
C292 C 0.97743 0.91265 0.19548 0.0
C293 C 0.94985 0.94709 0.21097 0.0
N294 N 0.88023 0.97121 0.24953 0.0
N295 N 0.98147 0.83722 0.17506 0.0
C296 C 0.90325 0.94056 0.22284 0.0
C297 C 0.95631 0.87262 0.18526 0.0
N298 N 0.83464 0.89933 0.20552 0.0
N299 N 0.023 0.91912 0.18744 0.0
H300 H 0.96608 0.80781 0.16754 0.0
H301 H 0.01689 0.83605 0.17848 0.0
H302 H 0.03907 0.94798 0.19613 0.0
H303 H 0.04449 0.89666 0.17095 0.0
H304 H 0.813 0.92437 0.21453 0.0
H305 H 0.81741 0.87172 0.19423 0.0
H306 H 0.84705 0.96733 0.26317 0.0
H307 H 0.89629 -0.00094 0.26242 0.0
C308 C 0.93816 0.10333 0.66456 0.0
C309 C 0.89007 0.10259 0.6559 0.0
C310 C 0.88576 0.03589 0.70537 0.0
C311 C 0.93361 0.03158 0.7015 0.0
N312 N 0.00664 0.06137 0.67892 0.0
N313 N 0.81809 0.06467 0.66449 0.0
C314 C 0.96044 0.06579 0.68266 0.0
C315 C 0.86353 0.06848 0.6765 0.0
N316 N 0.96229 0.13971 0.65473 0.0
N317 N 0.86157 0.0075 0.73497 0.0
H318 H 0.80035 0.08604 0.64075 0.0
H319 H 0.79879 0.03785 0.67401 0.0
H320 H 0.87756 0.9832 0.7562 0.0
H321 H 0.82689 0.01089 0.74274 0.0
H322 H 0.99681 0.1433 0.66401 0.0
H323 H 0.9465 0.16763 0.64196 0.0
H324 H 0.02762 0.08338 0.66014 0.0
H325 H 0.0236 0.03433 0.69246 0.0
C326 C 0.63456 0.45186 0.17742 0.0
C327 C 0.61355 0.41136 0.18324 0.0
C328 C 0.55662 0.44248 0.24181 0.0
C329 C 0.57145 0.48309 0.22545 0.0
N330 N 0.63917 0.52426 0.20888 0.0
N331 N 0.55839 0.36626 0.22608 0.0
C332 C 0.6154 0.48702 0.20324 0.0
C333 C 0.57604 0.40592 0.21773 0.0
N334 N 0.6714 0.45723 0.14533 0.0
N335 N 0.52871 0.43899 0.28404 0.0
H336 H 0.57254 0.33903 0.20967 0.0
H337 H 0.5287 0.36071 0.24719 0.0
H338 H 0.51844 0.46563 0.30502 0.0
H339 H 0.5202 0.41007 0.3015 0.0
H340 H 0.68427 0.48698 0.1349 0.0
H341 H 0.68742 0.43229 0.12607 0.0
H342 H 0.67305 0.5282 0.19765 0.0
H343 H 0.62636 0.54951 0.23072 0.0
C344 C 0.34627 0.44154 0.35779 0.0
C345 C 0.37077 0.40353 0.34879 0.0
C346 C 0.41797 0.441 0.28381 0.0
C347 C 0.40173 0.47976 0.30393 0.0
N348 N 0.33195 0.51382 0.32916 0.0
N349 N 0.42443 0.36453 0.29679 0.0
C350 C 0.35968 0.47904 0.33111 0.0
C351 C 0.40446 0.40227 0.30897 0.0
N352 N 0.31208 0.44243 0.39395 0.0
N353 N 0.44196 0.44112 0.23827 0.0
H354 H 0.41415 0.33579 0.3137 0.0
H355 H 0.45173 0.36196 0.2712 0.0
H356 H 0.448 0.46913 0.21735 0.0
H357 H 0.45148 0.41355 0.21877 0.0
H358 H 0.29716 0.47048 0.40682 0.0
H359 H 0.30019 0.41531 0.41325 0.0
H360 H 0.29916 0.51427 0.34468 0.0
H361 H 0.33984 0.54033 0.30607 0.0
C362 C 0.07247 0.10831 0.82905 0.0
C363 C 0.12028 0.10078 0.83289 0.0
C364 C 0.10859 0.03288 0.78809 0.0
C365 C 0.06157 0.03534 0.79917 0.0
N366 N 0.99656 0.0765 0.82336 0.0
N367 N 0.18424 0.0541 0.81574 0.0
C368 C 0.0426 0.0739 0.81636 0.0
C369 C 0.13882 0.06322 0.81064 0.0
N370 N 0.05608 0.14791 0.83943 0.0
N371 N 0.12426 -4e-05 0.75859 0.0
H372 H 0.20799 0.07427 0.83339 0.0
H373 H 0.198 0.02476 0.80581 0.0
H374 H 0.1021 0.97723 0.74255 0.0
H375 H 0.15785 0.99789 0.74572 0.0
H376 H 0.02196 0.15632 0.83444 0.0
H377 H 0.07782 0.1733 0.84861 0.0
H378 H 0.98064 0.10218 0.84108 0.0
H379 H 0.97455 0.05178 0.81241 0.0
C380 C 0.15777 0.10125 0.04623 0.0
C381 C 0.1469 0.13931 0.01888 0.0
C382 C 0.0953 0.15992 0.08933 0.0
C383 C 0.09903 0.11841 0.11045 0.0
N384 N 0.13672 0.05091 0.11484 0.0
N385 N 0.10858 0.2068 0.01495 0.0
C386 C 0.132 0.08978 0.09127 0.0
C387 C 0.11736 0.16973 0.04126 0.0
N388 N 0.1922 0.07606 0.02841 0.0
N389 N 0.06994 0.18942 0.11508 0.0
H390 H 0.12549 0.2154 0.9806 0.0
H391 H 0.08351 0.22831 0.02578 0.0
H392 H 0.05395 0.1824 0.15045 0.0
H393 H 0.06802 0.22131 0.10432 0.0
H394 H 0.2042 0.04931 0.04817 0.0
H395 H 0.21128 0.08383 0.99529 0.0
H396 H 0.15629 0.0263 0.09995 0.0
H397 H 0.11979 0.04305 0.14949 0.0
C398 C 0.38004 0.36922 0.56219 0.0
C399 C 0.39782 0.34021 0.52501 0.0
C400 C 0.46114 0.32366 0.58523 0.0
C401 C 0.4479 0.35792 0.61766 0.0
N402 N 0.39458 0.41318 0.63885 0.0
N403 N 0.45432 0.28876 0.50057 0.0
C404 C 0.40667 0.38006 0.60736 0.0
C405 C 0.43777 0.31659 0.53676 0.0
N406 N 0.33778 0.38646 0.55402 0.0
N407 N 0.49616 0.298 0.60125 0.0
H408 H 0.43719 0.28188 0.4655 0.0
H409 H 0.48601 0.2741 0.50385 0.0
H410 H 0.51339 0.30255 0.63687 0.0
H411 H 0.50544 0.27025 0.58202 0.0
H412 H 0.32078 0.4045 0.58181 0.0
H413 H 0.3179 0.37996 0.52078 0.0
H414 H 0.36821 0.43417 0.63004 0.0
H415 H 0.4124 0.42102 0.67311 0.0
C416 C 0.60665 0.31238 0.99577 0.0
C417 C 0.64062 0.34148 0.01324 0.0
C418 C 0.63191 0.38295 0.93167 0.0
C419 C 0.59434 0.35669 0.91733 0.0
N420 N 0.55388 0.29058 0.92631 0.0
N421 N 0.69408 0.39747 0.99337 0.0
C422 C 0.58472 0.31915 0.94625 0.0
C423 C 0.65642 0.37421 0.97923 0.0
N424 N 0.59385 0.27971 0.02805 0.0
N425 N 0.64194 0.41779 0.90161 0.0
H426 H 0.71196 0.39215 0.02834 0.0
H427 H 0.70974 0.41983 0.96923 0.0
H428 H 0.62568 0.42384 0.86578 0.0
H429 H 0.66534 0.44127 0.91225 0.0
H430 H 0.56599 0.25983 0.02099 0.0
H431 H 0.61095 0.27309 0.06326 0.0
H432 H 0.54704 0.26102 0.94298 0.0
H433 H 0.53744 0.29539 0.89025 0.0
C434 C 0.90748 0.18496 0.45063 0.0
C435 C 0.87607 0.15537 0.47232 0.0
C436 C 0.88731 0.10728 0.39817 0.0
C437 C 0.92192 0.13487 0.37948 0.0
N438 N 0.95524 0.20449 0.37639 0.0
N439 N 0.82558 0.09555 0.4598 0.0
C440 C 0.92828 0.17557 0.40174 0.0
C441 C 0.86223 0.11899 0.44338 0.0
N442 N 0.9193 0.22058 0.47825 0.0
N443 N 0.8808 0.06873 0.3746 0.0
H444 H 0.80685 0.10354 0.49297 0.0
H445 H 0.81138 0.07054 0.43845 0.0
H446 H 0.89764 0.06039 0.34021 0.0
H447 H 0.86013 0.04469 0.38968 0.0
H448 H 0.94554 0.24118 0.46753 0.0
H449 H 0.90384 0.22869 0.51354 0.0
H450 H 0.95929 0.23594 0.38817 0.0
H451 H 0.9704 0.19758 0.34047 0.0
C452 C 0.85973 0.86436 0.97918 0.0
C453 C 0.87716 0.82593 1.00043 0.0
C454 C 0.9208 0.81506 0.91996 0.0
C455 C 0.91246 0.85784 0.90575 0.0
N456 N 0.8725 0.92339 0.91941 0.0
N457 N 0.92454 0.76374 0.99096 0.0
C458 C 0.88054 0.88224 0.93397 0.0
C459 C 0.9068 0.80029 0.97018 0.0
N460 N 0.82397 0.88393 1.00304 0.0
N461 N 0.94372 0.78934 0.88623 0.0
H462 H 0.91556 0.75188 0.02769 0.0
H463 H 0.95044 0.74653 0.97325 0.0
H464 H 0.9545 0.79993 0.84948 0.0
H465 H 0.9479 0.75682 0.89234 0.0
H466 H 0.80736 0.91034 0.98736 0.0
H467 H 0.80819 0.87107 0.03614 0.0
H468 H 0.8538 0.94462 0.94183 0.0
H469 H 0.88656 0.93679 0.88562 0.0
C470 C 0.623 0.63768 0.47769 0.0
C471 C 0.60471 0.6745 0.50155 0.0
C472 C 0.55937 0.68791 0.42181 0.0
C473 C 0.56892 0.64623 0.40465 0.0
N474 N 0.61035 0.58087 0.41502 0.0
N475 N 0.55353 0.73463 0.49665 0.0
C476 C 0.60173 0.62126 0.43163 0.0
C477 C 0.57322 0.70036 0.47319 0.0
N478 N 0.66025 0.6183 0.49958 0.0
N479 N 0.53537 0.71474 0.38975 0.0
H480 H 0.56146 0.74435 0.53469 0.0
H481 H 0.5266 0.75156 0.47986 0.0
H482 H 0.52465 0.70584 0.35217 0.0
H483 H 0.53035 0.74676 0.39817 0.0
H484 H 0.67735 0.59329 0.48182 0.0
H485 H 0.67667 0.63015 0.53306 0.0
H486 H 0.62984 0.55918 0.43645 0.0
H487 H 0.59585 0.56844 0.38074 0.0
C488 C 0.39888 0.69673 0.04777 0.0
C489 C 0.3708 0.66876 0.01766 0.0
C490 C 0.37081 0.61711 0.08977 0.0
C491 C 0.40159 0.64357 0.11786 0.0
N492 N 0.43109 0.71365 0.13357 0.0
N493 N 0.31736 0.6104 0.01677 0.0
C494 C 0.41013 0.68551 0.10045 0.0
C495 C 0.35206 0.63181 0.04141 0.0
N496 N 0.41811 0.73184 0.02501 0.0
N497 N 0.36229 0.57685 0.10752 0.0
H498 H 0.30323 0.62095 0.9813 0.0
H499 H 0.29996 0.58494 0.03372 0.0
H500 H 0.37522 0.56576 0.14333 0.0
H501 H 0.34443 0.55408 0.08588 0.0
H502 H 0.44303 0.75041 0.04339 0.0
H503 H 0.41159 0.74102 0.98638 0.0
H504 H 0.4354 0.74577 0.12475 0.0
H505 H 0.43982 0.70543 0.1721 0.0
C506 C 0.1282 0.85632 0.55468 0.0
C507 C 0.10875 0.81856 0.53376 0.0
C508 C 0.06927 0.80672 0.61691 0.0
C509 C 0.07829 0.8494 0.63054 0.0
N510 N 0.11725 0.91551 0.6137 0.0
N511 N 0.06001 0.75686 0.5455 0.0
C512 C 0.10917 0.87407 0.6006 0.0
C513 C 0.08011 0.79265 0.56557 0.0
N514 N 0.16387 0.87557 0.52971 0.0
N515 N 0.04803 0.78068 0.65214 0.0
H516 H 0.06581 0.7459 0.50765 0.0
H517 H 0.03493 0.73962 0.56514 0.0
H518 H 0.03952 0.79115 0.68964 0.0
H519 H 0.04326 0.74821 0.64617 0.0
H520 H 0.18161 0.9015 0.54521 0.0
H521 H 0.17844 0.86275 0.49606 0.0
H522 H 0.13521 0.93666 0.58993 0.0
H523 H 0.10362 0.92923 0.64733 0.0
C524 C 0.21484 0.17523 0.3034 0.0
C525 C 0.20137 0.21778 0.31242 0.0
C526 C 0.12847 0.2049 0.26762 0.0
C527 C 0.13895 0.16101 0.2666 0.0
N528 N 0.19573 0.10676 0.26401 0.0
N529 N 0.15508 0.27684 0.28604 0.0
C530 C 0.18399 0.14728 0.27698 0.0
C531 C 0.16168 0.23394 0.28752 0.0
N532 N 0.25523 0.161 0.32384 0.0
N533 N 0.08537 0.21791 0.25475 0.0
H534 H 0.17935 0.29797 0.30139 0.0
H535 H 0.12819 0.2913 0.26595 0.0
H536 H 0.06063 0.19685 0.24046 0.0
H537 H 0.07366 0.24877 0.26006 0.0
H538 H 0.2651 0.12927 0.3238 0.0
H539 H 0.27864 0.1814 0.34205 0.0
H540 H 0.22865 0.09474 0.26783 0.0
H541 H 0.17255 0.08644 0.24511 0.0
C542 C 0.36683 0.24891 0.76447 0.0
C543 C 0.33044 0.25831 0.79885 0.0
C544 C 0.34498 0.33398 0.78434 0.0
C545 C 0.3891 0.32379 0.76647 0.0
N546 N 0.44033 0.27185 0.73102 0.0
N547 N 0.28139 0.31117 0.83753 0.0
C548 C 0.39897 0.28143 0.75204 0.0
C549 C 0.31728 0.30129 0.80606 0.0
N550 N 0.37161 0.20836 0.74658 0.0
N551 N 0.33138 0.3754 0.78342 0.0
H552 H 0.25997 0.28838 0.85402 0.0
H553 H 0.27408 0.34207 0.84923 0.0
H554 H 0.35235 0.39935 0.76816 0.0
H555 H 0.29843 0.38502 0.79267 0.0
H556 H 0.39571 0.19963 0.71885 0.0
H557 H 0.34821 0.18447 0.75628 0.0
H558 H 0.45174 0.2409 0.72551 0.0
H559 H 0.4639 0.29519 0.72053 0.0
C560 C 0.72137 0.31254 0.71896 0.0
C561 C 0.70553 0.27009 0.71345 0.0
C562 C 0.63898 0.28569 0.76736 0.0
C563 C 0.65047 0.32936 0.76388 0.0
N564 N 0.70973 0.38165 0.75954 0.0
N565 N 0.66145 0.21273 0.74942 0.0
C566 C 0.69493 0.34143 0.74867 0.0
C567 C 0.66879 0.25543 0.7446 0.0
N568 N 0.75889 0.32606 0.6921 0.0
N569 N 0.59789 0.27383 0.78767 0.0
H570 H 0.68322 0.19073 0.73208 0.0
H571 H 0.6368 0.19937 0.77372 0.0
H572 H 0.57645 0.29555 0.80572 0.0
H573 H 0.58479 0.24304 0.78585 0.0
H574 H 0.76897 0.35779 0.68964 0.0
H575 H 0.77933 0.30544 0.67082 0.0
H576 H 0.74279 0.3924 0.75229 0.0
H577 H 0.68931 0.40282 0.78032 0.0
C578 C 0.87558 0.23772 0.16422 0.0
C579 C 0.83835 0.24306 0.19853 0.0
C580 C 0.85605 0.17482 0.24123 0.0
C581 C 0.89554 0.17165 0.20972 0.0
N582 N 0.94916 0.20549 0.15117 0.0
N583 N 0.79611 0.22032 0.27452 0.0
C584 C 0.90709 0.20472 0.17407 0.0
C585 C 0.82934 0.21261 0.23854 0.0
N586 N 0.88045 0.26388 0.1216 0.0
N587 N 0.84328 0.1413 0.27211 0.0
H588 H 0.77522 0.24707 0.27268 0.0
H589 H 0.79121 0.20172 0.30792 0.0
H590 H 0.86227 0.1134 0.27473 0.0
H591 H 0.81252 0.13995 0.29225 0.0
H592 H 0.9043 0.25862 0.09225 0.0
H593 H 0.85775 0.28843 0.1128 0.0
H594 H 0.96118 0.23105 0.12904 0.0
H595 H 0.97403 0.18266 0.15896 0.0
C596 C 0.8126 0.78149 0.7002 0.0
C597 C 0.77367 0.80256 0.72048 0.0
C598 C 0.82344 0.84901 0.77303 0.0
C599 C 0.86199 0.82986 0.74978 0.0
N600 N 0.89361 0.7674 0.711 0.0
N601 N 0.74233 0.84352 0.79104 0.0
C602 C 0.85635 0.79186 0.721 0.0
C603 C 0.77937 0.8316 0.76261 0.0
N604 N 0.80893 0.75509 0.65789 0.0
N605 N 0.82817 0.88575 0.80087 0.0
H606 H 0.70984 0.83085 0.78379 0.0
H607 H 0.74478 0.86225 0.82461 0.0
H608 H 0.85981 0.89949 0.809 0.0
H609 H 0.80056 0.90376 0.81332 0.0
H610 H 0.83721 0.74302 0.63849 0.0
H611 H 0.77821 0.74783 0.63915 0.0
H612 H 0.89139 0.73764 0.69326 0.0
H613 H 0.92597 0.77537 0.72569 0.0
C614 C 0.66756 0.72342 0.19283 0.0
C615 C 0.70596 0.70242 0.2153 0.0
C616 C 0.65513 0.65769 0.26814 0.0
C617 C 0.61679 0.67691 0.24309 0.0
N618 N 0.58689 0.73928 0.20074 0.0
N619 N 0.7361 0.66301 0.28873 0.0
C620 C 0.62342 0.71413 0.21261 0.0
C621 C 0.69947 0.6745 0.25845 0.0
N622 N 0.6722 0.74904 0.14977 0.0
N623 N 0.65026 0.62139 0.29707 0.0
H624 H 0.76881 0.67514 0.28196 0.0
H625 H 0.73309 0.64535 0.32323 0.0
H626 H 0.61886 0.60754 0.30511 0.0
H627 H 0.67785 0.60343 0.3104 0.0
H628 H 0.64437 0.76096 0.12872 0.0
H629 H 0.7034 0.75586 0.13238 0.0
H630 H 0.59 0.76856 0.18175 0.0
H631 H 0.55432 0.73261 0.21514 0.0
C632 C 0.27299 0.67031 0.26635 0.0
C633 C 0.26737 0.69822 0.30929 0.0
C634 C 0.34934 0.71295 0.30744 0.0
C635 C 0.35581 0.67545 0.2781 0.0
N636 N 0.32202 0.61806 0.22737 0.0
N637 N 0.30235 0.74638 0.3724 0.0
C638 C 0.31726 0.65471 0.25522 0.0
C639 C 0.30589 0.72083 0.32939 0.0
N640 N 0.2357 0.65753 0.23789 0.0
N641 N 0.38561 0.73934 0.31683 0.0
H642 H 0.27191 0.75178 0.39193 0.0
H643 H 0.33067 0.75954 0.39148 0.0
H644 H 0.41778 0.73334 0.3011 0.0
H645 H 0.38244 0.76876 0.33511 0.0
H646 H 0.23806 0.63968 0.20364 0.0
H647 H 0.20298 0.66879 0.2458 0.0
H648 H 0.29441 0.59914 0.21585 0.0
H649 H 0.35342 0.60499 0.21834 0.0
C650 C 0.20614 0.82327 0.76222 0.0
C651 C 0.21726 0.80018 0.80862 0.0
C652 C 0.13626 0.80099 0.83165 0.0
C653 C 0.12829 0.83337 0.79387 0.0
N654 N 0.15904 0.87913 0.72623 0.0
N655 N 0.19158 0.77172 0.8921 0.0
C656 C 0.16377 0.84499 0.75897 0.0
C657 C 0.18185 0.78939 0.84424 0.0
N658 N 0.2365 0.82523 0.72194 0.0
N659 N 0.10022 0.78232 0.85658 0.0
H660 H 0.22457 0.76543 0.9054 0.0
H661 H 0.16699 0.76742 0.921 0.0
H662 H 0.06641 0.79003 0.8474 0.0
H663 H 0.10391 0.75627 0.88167 0.0
H664 H 0.2286 0.83906 0.68574 0.0
H665 H 0.2675 0.80896 0.72308 0.0
H666 H 0.18584 0.89126 0.70395 0.0
H667 H 0.12987 0.89781 0.72516 0.0
loop_
_geom_bond_atom_site_label_1
_geom_bond_atom_site_label_2
_geom_bond_distance
_geom_bond_site_symmetry_2
_ccdc_geom_bond_type
H0 C1 0.949 . S
C1 H0 0.949 . S
C1 C2 1.395 . S
C1 C3 1.391 . S
C2 C1 1.395 . S
C2 C5 1.390 . S
C3 C1 1.391 . S
C3 C7 1.387 . S
C3 C8 1.491 . S
H4 C5 0.950 . S
C5 C2 1.390 . S
C5 H4 0.950 . S
C5 C6 1.378 . S
C6 C5 1.378 . S
C6 C7 1.409 . S
C7 C3 1.387 . S
C7 C6 1.409 . S
C7 H9 0.951 . S
C8 C3 1.491 . S
C8 C10 1.382 . S
C8 C12 1.404 . S
H9 C7 0.951 . S
C10 C8 1.382 . S
C10 C11 1.390 . S
C10 H15 0.949 . S
C11 C10 1.390 . S
C11 C16 1.399 . S
C12 C8 1.404 . S
C12 H13 0.950 . S
C12 C14 1.375 . S
H13 C12 0.950 . S
C14 C12 1.375 . S
C14 C16 1.382 . S
C14 H18 0.950 . S
H15 C10 0.949 . S
C16 C11 1.399 . S
C16 C14 1.382 . S
C16 H17 0.952 . S
H17 C16 0.952 . S
H18 C14 0.950 . S
H19 C20 0.949 . S
C20 H19 0.949 . S
C20 C21 1.395 . S
C20 C22 1.391 . S
C21 C20 1.395 . S
C21 C24 1.390 . S
C22 C20 1.391 . S
C22 C26 1.387 . S
C22 C27 1.491 . S
H23 C24 0.950 . S
C24 C21 1.390 . S
C24 H23 0.950 . S
C24 C25 1.378 . S
C25 C24 1.378 . S
C25 C26 1.409 . S
C26 C22 1.387 . S
C26 C25 1.409 . S
C26 H28 0.951 . S
C27 C22 1.491 . S
C27 C29 1.382 . S
C27 C31 1.404 . S
H28 C26 0.951 . S
C29 C27 1.382 . S
C29 C30 1.390 . S
C29 H34 0.949 . S
C30 C29 1.390 . S
C30 C35 1.399 . S
C31 C27 1.404 . S
C31 H32 0.950 . S
C31 C33 1.375 . S
H32 C31 0.950 . S
C33 C31 1.375 . S
C33 C35 1.382 . S
C33 H37 0.950 . S
H34 C29 0.949 . S
C35 C30 1.399 . S
C35 C33 1.382 . S
C35 H36 0.952 . S
H36 C35 0.952 . S
H37 C33 0.950 . S
H38 C39 0.949 . S
C39 H38 0.949 . S
C39 C40 1.395 . S
C39 C41 1.391 . S
C40 C39 1.395 . S
C40 C43 1.390 . S
C41 C39 1.391 . S
C41 C45 1.387 . S
C41 C46 1.491 . S
H42 C43 0.950 . S
C43 C40 1.390 . S
C43 H42 0.950 . S
C43 C44 1.378 . S
C44 C43 1.378 . S
C44 C45 1.409 . S
C45 C41 1.387 . S
C45 C44 1.409 . S
C45 H47 0.951 . S
C46 C41 1.491 . S
C46 C48 1.382 . S
C46 C50 1.404 . S
H47 C45 0.951 . S
C48 C46 1.382 . S
C48 C49 1.390 . S
C48 H53 0.949 . S
C49 C48 1.390 . S
C49 C54 1.399 . S
C50 C46 1.404 . S
C50 H51 0.950 . S
C50 C52 1.375 . S
H51 C50 0.950 . S
C52 C50 1.375 . S
C52 C54 1.382 . S
C52 H56 0.950 . S
H53 C48 0.949 . S
C54 C49 1.399 . S
C54 C52 1.382 . S
C54 H55 0.952 . S
H55 C54 0.952 . S
H56 C52 0.950 . S
H57 C58 0.949 . S
C58 H57 0.949 . S
C58 C59 1.395 . S
C58 C60 1.391 . S
C59 C58 1.395 . S
C59 C62 1.390 . S
C60 C58 1.391 . S
C60 C64 1.387 . S
C60 C65 1.491 . S
H61 C62 0.950 . S
C62 C59 1.390 . S
C62 H61 0.950 . S
C62 C63 1.378 . S
C63 C62 1.378 . S
C63 C64 1.409 . S
C64 C60 1.387 . S
C64 C63 1.409 . S
C64 H66 0.951 . S
C65 C60 1.491 . S
C65 C67 1.382 . S
C65 C69 1.404 . S
H66 C64 0.951 . S
C67 C65 1.382 . S
C67 C68 1.390 . S
C67 H72 0.949 . S
C68 C67 1.390 . S
C68 C73 1.399 . S
C69 C65 1.404 . S
C69 H70 0.950 . S
C69 C71 1.375 . S
H70 C69 0.950 . S
C71 C69 1.375 . S
C71 C73 1.382 . S
C71 H75 0.950 . S
H72 C67 0.949 . S
C73 C68 1.399 . S
C73 C71 1.382 . S
C73 H74 0.952 . S
H74 C73 0.952 . S
H75 C71 0.950 . S
H76 C77 0.949 . S
C77 H76 0.949 . S
C77 C78 1.395 . S
C77 C79 1.391 . S
C78 C77 1.395 . S
C78 C81 1.390 . S
C79 C77 1.391 . S
C79 C83 1.387 . S
C79 C84 1.491 . S
H80 C81 0.950 . S
C81 C78 1.390 . S
C81 H80 0.950 . S
C81 C82 1.378 . S
C82 C81 1.378 . S
C82 C83 1.409 . S
C83 C79 1.387 . S
C83 C82 1.409 . S
C83 H85 0.951 . S
C84 C79 1.491 . S
C84 C86 1.382 . S
C84 C88 1.404 . S
H85 C83 0.951 . S
C86 C84 1.382 . S
C86 C87 1.390 . S
C86 H91 0.949 . S
C87 C86 1.390 . S
C87 C92 1.399 . S
C88 C84 1.404 . S
C88 H89 0.950 . S
C88 C90 1.375 . S
H89 C88 0.950 . S
C90 C88 1.375 . S
C90 C92 1.382 . S
C90 H94 0.950 . S
H91 C86 0.949 . S
C92 C87 1.399 . S
C92 C90 1.382 . S
C92 H93 0.952 . S
H93 C92 0.952 . S
H94 C90 0.950 . S
H95 C96 0.949 . S
C96 H95 0.949 . S
C96 C97 1.395 . S
C96 C98 1.391 . S
C97 C96 1.395 . S
C97 C100 1.390 . S
C98 C96 1.391 . S
C98 C102 1.387 . S
C98 C103 1.491 . S
H99 C100 0.950 . S
C100 C97 1.390 . S
C100 H99 0.950 . S
C100 C101 1.378 . S
C101 C100 1.378 . S
C101 C102 1.409 . S
C102 C98 1.387 . S
C102 C101 1.409 . S
C102 H104 0.951 . S
C103 C98 1.491 . S
C103 C105 1.382 . S
C103 C107 1.404 . S
H104 C102 0.951 . S
C105 C103 1.382 . S
C105 C106 1.390 . S
C105 H110 0.949 . S
C106 C105 1.390 . S
C106 C111 1.399 . S
C107 C103 1.404 . S
C107 H108 0.950 . S
C107 C109 1.375 . S
H108 C107 0.950 . S
C109 C107 1.375 . S
C109 C111 1.382 . S
C109 H113 0.950 . S
H110 C105 0.949 . S
C111 C106 1.399 . S
C111 C109 1.382 . S
C111 H112 0.952 . S
H112 C111 0.952 . S
H113 C109 0.950 . S
H114 C115 0.949 . S
C115 H114 0.949 . S
C115 C116 1.395 . S
C115 C117 1.391 . S
C116 C115 1.395 . S
C116 C119 1.390 . S
C117 C115 1.391 . S
C117 C121 1.387 . S
C117 C122 1.491 . S
H118 C119 0.950 . S
C119 C116 1.390 . S
C119 H118 0.950 . S
C119 C120 1.378 . S
C120 C119 1.378 . S
C120 C121 1.409 . S
C121 C117 1.387 . S
C121 C120 1.409 . S
C121 H123 0.951 . S
C122 C117 1.491 . S
C122 C124 1.382 . S
C122 C126 1.404 . S
H123 C121 0.951 . S
C124 C122 1.382 . S
C124 C125 1.390 . S
C124 H129 0.949 . S
C125 C124 1.390 . S
C125 C130 1.399 . S
C126 C122 1.404 . S
C126 H127 0.950 . S
C126 C128 1.375 . S
H127 C126 0.950 . S
C128 C126 1.375 . S
C128 C130 1.382 . S
C128 H132 0.950 . S
H129 C124 0.949 . S
C130 C125 1.399 . S
C130 C128 1.382 . S
C130 H131 0.952 . S
H131 C130 0.952 . S
H132 C128 0.950 . S
H133 C134 0.949 . S
C134 H133 0.949 . S
C134 C135 1.395 . S
C134 C136 1.391 . S
C135 C134 1.395 . S
C135 C138 1.390 . S
C136 C134 1.391 . S
C136 C140 1.387 . S
C136 C141 1.491 . S
H137 C138 0.950 . S
C138 C135 1.390 . S
C138 H137 0.950 . S
C138 C139 1.378 . S
C139 C138 1.378 . S
C139 C140 1.409 . S
C140 C136 1.387 . S
C140 C139 1.409 . S
C140 H142 0.951 . S
C141 C136 1.491 . S
C141 C143 1.382 . S
C141 C145 1.404 . S
H142 C140 0.951 . S
C143 C141 1.382 . S
C143 C144 1.390 . S
C143 H148 0.949 . S
C144 C143 1.390 . S
C144 C149 1.399 . S
C145 C141 1.404 . S
C145 H146 0.950 . S
C145 C147 1.375 . S
H146 C145 0.950 . S
C147 C145 1.375 . S
C147 C149 1.382 . S
C147 H151 0.950 . S
H148 C143 0.949 . S
C149 C144 1.399 . S
C149 C147 1.382 . S
C149 H150 0.952 . S
H150 C149 0.952 . S
H151 C147 0.950 . S
Zn152 O158 1.920 1_455 S
Zn152 O164 1.898 . S
Zn152 O167 1.905 . S
Zn153 O161 1.905 1_655 S
Zn153 O162 1.898 . S
Zn153 O170 1.920 . S
Zn154 O157 2.080 1_455 S
Zn154 O160 2.114 . S
Zn154 O163 2.120 1_455 S
Zn154 O165 2.120 . S
Zn154 O166 2.114 . S
Zn154 O169 2.080 1_455 S
C155 O160 1.166 . S
C155 O161 1.182 . S
C156 O162 1.167 . S
C156 O163 1.299 . S
O157 Zn154 2.080 1_655 S
O157 C171 1.305 . S
O158 Zn152 1.920 1_655 S
O158 C171 1.234 . S
C159 O164 1.167 . S
C159 O165 1.299 . S
O160 Zn154 2.114 . S
O160 C155 1.166 . S
O161 Zn153 1.905 1_455 S
O161 C155 1.182 . S
O162 Zn153 1.898 . S
O162 C156 1.167 . S
O163 Zn154 2.120 1_655 S
O163 C156 1.299 . S
O164 Zn152 1.898 . S
O164 C159 1.167 . S
O165 Zn154 2.120 . S
O165 C159 1.299 . S
O166 Zn154 2.114 . S
O166 C168 1.166 . S
O167 Zn152 1.905 . S
O167 C168 1.182 . S
C168 O166 1.166 . S
C168 O167 1.182 . S
O169 Zn154 2.080 1_655 S
O169 C172 1.305 . S
O170 Zn153 1.920 . S
O170 C172 1.234 . S
C171 O157 1.305 . S
C171 O158 1.234 . S
C172 O169 1.305 . S
C172 O170 1.234 . S
Zn173 O179 1.920 . S
Zn173 O185 1.898 . S
Zn173 O188 1.905 . S
Zn174 O182 1.905 . S
Zn174 O183 1.898 . S
Zn174 O191 1.920 . S
Zn175 O178 2.080 . S
Zn175 O181 2.114 . S
Zn175 O184 2.120 . S
Zn175 O186 2.120 . S
Zn175 O187 2.114 . S
Zn175 O190 2.080 . S
C176 O181 1.166 . S
C176 O182 1.182 . S
C177 O183 1.167 . S
C177 O184 1.299 . S
O178 Zn175 2.080 . S
O178 C192 1.305 . S
O179 Zn173 1.920 . S
O179 C192 1.234 . S
C180 O185 1.167 . S
C180 O186 1.299 . S
O181 Zn175 2.114 . S
O181 C176 1.166 . S
O182 Zn174 1.905 . S
O182 C176 1.182 . S
O183 Zn174 1.898 . S
O183 C177 1.167 . S
O184 Zn175 2.120 . S
O184 C177 1.299 . S
O185 Zn173 1.898 . S
O185 C180 1.167 . S
O186 Zn175 2.120 . S
O186 C180 1.299 . S
O187 Zn175 2.114 . S
O187 C189 1.166 . S
O188 Zn173 1.905 . S
O188 C189 1.182 . S
C189 O187 1.166 . S
C189 O188 1.182 . S
O190 Zn175 2.080 . S
O190 C193 1.305 . S
O191 Zn174 1.920 . S
O191 C193 1.234 . S
C192 O178 1.305 . S
C192 O179 1.234 . S
C193 O190 1.305 . S
C193 O191 1.234 . S
Zn194 O200 1.920 . S
Zn194 O206 1.898 . S
Zn194 O209 1.905 1_455 S
Zn195 O203 1.905 . S
Zn195 O204 1.898 . S
Zn195 O212 1.920 1_655 S
Zn196 O199 2.093 . S
Zn196 O202 2.099 1_455 S
Zn196 O205 2.107 1_455 S
Zn196 O207 2.135 . S
Zn196 O208 2.103 1_455 S
Zn196 O211 2.091 . S
C197 O202 1.166 . S
C197 O203 1.182 . S
C198 O204 1.167 . S
C198 O205 1.299 . S
O199 Zn196 2.093 . S
O199 C213 1.305 . S
O200 Zn194 1.920 . S
O200 C213 1.234 . S
C201 O206 1.167 . S
C201 O207 1.299 . S
O202 Zn196 2.099 1_655 S
O202 C197 1.166 . S
O203 Zn195 1.905 . S
O203 C197 1.182 . S
O204 Zn195 1.898 . S
O204 C198 1.167 . S
O205 Zn196 2.107 1_655 S
O205 C198 1.299 . S
O206 Zn194 1.898 . S
O206 C201 1.167 . S
O207 Zn196 2.135 . S
O207 C201 1.299 . S
O208 Zn196 2.103 1_655 S
O208 C210 1.166 . S
O209 Zn194 1.905 1_655 S
O209 C210 1.182 . S
C210 O208 1.166 . S
C210 O209 1.182 . S
O211 Zn196 2.091 . S
O211 C214 1.305 . S
O212 Zn195 1.920 1_455 S
O212 C214 1.234 . S
C213 O199 1.305 . S
C213 O200 1.234 . S
C214 O211 1.305 . S
C214 O212 1.234 . S
Zn215 O221 1.920 . S
Zn215 O227 1.898 . S
Zn215 O230 1.905 . S
Zn216 O224 1.905 . S
Zn216 O225 1.898 . S
Zn216 O233 1.920 . S
Zn217 O220 2.080 . S
Zn217 O223 2.114 . S
Zn217 O226 2.120 . S
Zn217 O228 2.120 . S
Zn217 O229 2.114 . S
Zn217 O232 2.080 . S
C218 O223 1.166 . S
C218 O224 1.182 . S
C219 O225 1.167 . S
C219 O226 1.299 . S
O220 Zn217 2.080 . S
O220 C234 1.305 . S
O221 Zn215 1.920 . S
O221 C234 1.234 . S
C222 O227 1.167 . S
C222 O228 1.299 . S
O223 Zn217 2.114 . S
O223 C218 1.166 . S
O224 Zn216 1.905 . S
O224 C218 1.182 . S
O225 Zn216 1.898 . S
O225 C219 1.167 . S
O226 Zn217 2.120 . S
O226 C219 1.299 . S
O227 Zn215 1.898 . S
O227 C222 1.167 . S
O228 Zn217 2.120 . S
O228 C222 1.299 . S
O229 Zn217 2.114 . S
O229 C231 1.166 . S
O230 Zn215 1.905 . S
O230 C231 1.182 . S
C231 O229 1.166 . S
C231 O230 1.182 . S
O232 Zn217 2.080 . S
O232 C235 1.305 . S
O233 Zn216 1.920 . S
O233 C235 1.234 . S
C234 O220 1.305 . S
C234 O221 1.234 . S
C235 O232 1.305 . S
C235 O233 1.234 . S
C236 C237 1.363 . S
C236 C242 1.379 . S
C236 N244 1.356 . S
C237 C236 1.363 . S
C237 C243 1.363 . S
C238 C239 1.363 . S
C238 C243 1.379 . S
C238 N245 1.356 1_565 S
C239 C238 1.363 . S
C239 C242 1.363 . S
N240 C242 1.356 . S
N240 H252 0.984 1_455 S
N240 H253 0.985 . S
N241 C243 1.356 . S
N241 H246 0.984 . S
N241 H247 0.985 . S
C242 C236 1.379 . S
C242 C239 1.363 . S
C242 N240 1.356 . S
C243 C237 1.363 . S
C243 C238 1.379 . S
C243 N241 1.356 . S
N244 C236 1.356 . S
N244 H250 0.984 . S
N244 H251 0.984 . S
N245 C238 1.356 1_545 S
N245 H248 0.984 . S
N245 H249 0.985 . S
H246 N241 0.984 . S
H247 N241 0.985 . S
H248 N245 0.984 . S
H249 N245 0.985 . S
H250 N244 0.984 . S
H251 N244 0.984 . S
H252 N240 0.984 1_655 S
H253 N240 0.985 . S
C254 C255 1.363 . S
C254 C260 1.379 . S
C254 N262 1.356 . S
C255 C254 1.363 . S
C255 C261 1.363 . S
C256 C257 1.363 . S
C256 C261 1.379 . S
C256 N263 1.356 . S
C257 C256 1.363 . S
C257 C260 1.363 . S
N258 C260 1.356 . S
N258 H270 0.984 . S
N258 H271 0.985 . S
N259 C261 1.356 . S
N259 H264 0.984 . S
N259 H265 0.985 . S
C260 C254 1.379 . S
C260 C257 1.363 . S
C260 N258 1.356 . S
C261 C255 1.363 . S
C261 C256 1.379 . S
C261 N259 1.356 . S
N262 C254 1.356 . S
N262 H268 0.984 . S
N262 H269 0.984 . S
N263 C256 1.356 . S
N263 H266 0.984 . S
N263 H267 0.985 . S
H264 N259 0.984 . S
H265 N259 0.985 . S
H266 N263 0.984 . S
H267 N263 0.985 . S
H268 N262 0.984 . S
H269 N262 0.984 . S
H270 N258 0.984 . S
H271 N258 0.985 . S
C272 C273 1.363 . S
C272 C278 1.379 . S
C272 N280 1.356 . S
C273 C272 1.363 . S
C273 C279 1.363 . S
C274 C275 1.363 . S
C274 C279 1.379 . S
C274 N281 1.356 . S
C275 C274 1.363 . S
C275 C278 1.363 . S
N276 C278 1.356 . S
N276 H288 0.984 . S
N276 H289 0.985 . S
N277 C279 1.356 . S
N277 H282 0.984 . S
N277 H283 0.985 . S
C278 C272 1.379 . S
C278 C275 1.363 . S
C278 N276 1.356 . S
C279 C273 1.363 . S
C279 C274 1.379 . S
C279 N277 1.356 . S
N280 C272 1.356 . S
N280 H286 0.984 . S
N280 H287 0.984 . S
N281 C274 1.356 . S
N281 H284 0.984 . S
N281 H285 0.985 . S
H282 N277 0.984 . S
H283 N277 0.985 . S
H284 N281 0.984 . S
H285 N281 0.985 . S
H286 N280 0.984 . S
H287 N280 0.984 . S
H288 N276 0.984 . S
H289 N276 0.985 . S
C290 C291 1.363 . S
C290 C296 1.379 . S
C290 N298 1.356 . S
C291 C290 1.363 . S
C291 C297 1.363 . S
C292 C293 1.363 . S
C292 C297 1.379 . S
C292 N299 1.356 . S
C293 C292 1.363 . S
C293 C296 1.363 . S
N294 C296 1.356 1_545 S
N294 H306 0.984 . S
N294 H307 0.985 . S
N295 C297 1.356 . S
N295 H300 0.984 . S
N295 H301 0.985 . S
C296 C290 1.379 . S
C296 C293 1.363 . S
C296 N294 1.356 1_565 S
C297 C291 1.363 . S
C297 C292 1.379 . S
C297 N295 1.356 . S
N298 C290 1.356 . S
N298 H304 0.984 . S
N298 H305 0.984 . S
N299 C292 1.356 . S
N299 H302 0.986 . S
N299 H303 0.985 1_655 S
H300 N295 0.984 . S
H301 N295 0.985 . S
H302 N299 0.986 . S
H303 N299 0.985 1_455 S
H304 N298 0.984 . S
H305 N298 0.984 . S
H306 N294 0.984 . S
H307 N294 0.985 . S
C308 C309 1.363 . S
C308 C314 1.379 . S
C308 N316 1.356 . S
C309 C308 1.363 . S
C309 C315 1.363 . S
C310 C311 1.363 . S
C310 C315 1.379 . S
C310 N317 1.356 1_545 S
C311 C310 1.363 . S
C311 C314 1.363 . S
N312 C314 1.356 . S
N312 H324 0.984 . S
N312 H325 0.985 . S
N313 C315 1.356 . S
N313 H318 0.984 . S
N313 H319 0.985 . S
C314 C308 1.379 . S
C314 C311 1.363 . S
C314 N312 1.356 . S
C315 C309 1.363 . S
C315 C310 1.379 . S
C315 N313 1.356 . S
N316 C308 1.356 . S
N316 H322 0.984 . S
N316 H323 0.984 . S
N317 C310 1.356 1_565 S
N317 H320 0.984 . S
N317 H321 0.985 . S
H318 N313 0.984 . S
H319 N313 0.985 . S
H320 N317 0.984 . S
H321 N317 0.985 . S
H322 N316 0.984 . S
H323 N316 0.984 . S
H324 N312 0.984 . S
H325 N312 0.985 . S
C326 C327 1.363 . S
C326 C332 1.379 . S
C326 N334 1.356 . S
C327 C326 1.363 . S
C327 C333 1.363 . S
C328 C329 1.363 . S
C328 C333 1.379 . S
C328 N335 1.356 . S
C329 C328 1.363 . S
C329 C332 1.363 . S
N330 C332 1.356 . S
N330 H342 0.984 . S
N330 H343 0.985 . S
N331 C333 1.356 . S
N331 H336 0.984 . S
N331 H337 0.985 . S
C332 C326 1.379 . S
C332 C329 1.363 . S
C332 N330 1.356 . S
C333 C327 1.363 . S
C333 C328 1.379 . S
C333 N331 1.356 . S
N334 C326 1.356 . S
N334 H340 0.984 . S
N334 H341 0.984 . S
N335 C328 1.356 . S
N335 H338 0.984 . S
N335 H339 0.985 . S
H336 N331 0.984 . S
H337 N331 0.985 . S
H338 N335 0.984 . S
H339 N335 0.985 . S
H340 N334 0.984 . S
H341 N334 0.984 . S
H342 N330 0.984 . S
H343 N330 0.985 . S
C344 C345 1.363 . S
C344 C350 1.379 . S
C344 N352 1.356 . S
C345 C344 1.363 . S
C345 C351 1.363 . S
C346 C347 1.363 . S
C346 C351 1.379 . S
C346 N353 1.356 . S
C347 C346 1.363 . S
C347 C350 1.363 . S
N348 C350 1.356 . S
N348 H360 0.984 . S
N348 H361 0.985 . S
N349 C351 1.356 . S
N349 H354 0.984 . S
N349 H355 0.985 . S
C350 C344 1.379 . S
C350 C347 1.363 . S
C350 N348 1.356 . S
C351 C345 1.363 . S
C351 C346 1.379 . S
C351 N349 1.356 . S
N352 C344 1.356 . S
N352 H358 0.984 . S
N352 H359 0.984 . S
N353 C346 1.356 . S
N353 H356 0.984 . S
N353 H357 0.985 . S
H354 N349 0.984 . S
H355 N349 0.985 . S
H356 N353 0.984 . S
H357 N353 0.985 . S
H358 N352 0.984 . S
H359 N352 0.984 . S
H360 N348 0.984 . S
H361 N348 0.985 . S
C362 C363 1.363 . S
C362 C368 1.379 . S
C362 N370 1.356 . S
C363 C362 1.363 . S
C363 C369 1.363 . S
C364 C365 1.363 . S
C364 C369 1.379 . S
C364 N371 1.356 1_545 S
C365 C364 1.363 . S
C365 C368 1.363 . S
N366 C368 1.356 . S
N366 H378 0.984 1_455 S
N366 H379 0.985 1_455 S
N367 C369 1.356 . S
N367 H372 0.984 . S
N367 H373 0.985 . S
C368 C362 1.379 . S
C368 C365 1.363 . S
C368 N366 1.356 . S
C369 C363 1.363 . S
C369 C364 1.379 . S
C369 N367 1.356 . S
N370 C362 1.356 . S
N370 H376 0.984 . S
N370 H377 0.984 . S
N371 C364 1.356 1_565 S
N371 H374 0.984 . S
N371 H375 0.985 . S
H372 N367 0.984 . S
H373 N367 0.985 . S
H374 N371 0.984 . S
H375 N371 0.985 . S
H376 N370 0.984 . S
H377 N370 0.984 . S
H378 N366 0.984 1_655 S
H379 N366 0.985 1_655 S
C380 C381 1.363 . S
C380 C386 1.379 . S
C380 N388 1.352 1_554 S
C381 C380 1.363 . S
C381 C387 1.363 . S
C382 C383 1.363 . S
C382 C387 1.379 . S
C382 N389 1.356 . S
C383 C382 1.363 . S
C383 C386 1.363 . S
N384 C386 1.356 . S
N384 H396 0.984 . S
N384 H397 0.985 . S
N385 C387 1.356 . S
N385 H390 0.984 1_554 S
N385 H391 0.985 . S
C386 C380 1.379 . S
C386 C383 1.363 . S
C386 N384 1.356 . S
C387 C381 1.363 . S
C387 C382 1.379 . S
C387 N385 1.356 . S
N388 C380 1.352 1_556 S
N388 H394 0.984 1_556 S
N388 H395 0.989 . S
N389 C382 1.356 . S
N389 H392 0.984 . S
N389 H393 0.985 . S
H390 N385 0.984 1_556 S
H391 N385 0.985 . S
H392 N389 0.984 . S
H393 N389 0.985 . S
H394 N388 0.984 1_554 S
H395 N388 0.989 . S
H396 N384 0.984 . S
H397 N384 0.985 . S
C398 C399 1.363 . S
C398 C404 1.379 . S
C398 N406 1.356 . S
C399 C398 1.363 . S
C399 C405 1.363 . S
C400 C401 1.363 . S
C400 C405 1.379 . S
C400 N407 1.356 . S
C401 C400 1.363 . S
C401 C404 1.363 . S
N402 C404 1.356 . S
N402 H414 0.984 . S
N402 H415 0.985 . S
N403 C405 1.356 . S
N403 H408 0.984 . S
N403 H409 0.985 . S
C404 C398 1.379 . S
C404 C401 1.363 . S
C404 N402 1.356 . S
C405 C399 1.363 . S
C405 C400 1.379 . S
C405 N403 1.356 . S
N406 C398 1.356 . S
N406 H412 0.984 . S
N406 H413 0.984 . S
N407 C400 1.356 . S
N407 H410 0.984 . S
N407 H411 0.985 . S
H408 N403 0.984 . S
H409 N403 0.985 . S
H410 N407 0.984 . S
H411 N407 0.985 . S
H412 N406 0.984 . S
H413 N406 0.984 . S
H414 N402 0.984 . S
H415 N402 0.985 . S
C416 C417 1.363 . S
C416 C422 1.379 . S
C416 N424 1.356 . S
C417 C416 1.363 . S
C417 C423 1.363 . S
C418 C419 1.363 . S
C418 C423 1.379 . S
C418 N425 1.356 . S
C419 C418 1.363 . S
C419 C422 1.363 . S
N420 C422 1.356 . S
N420 H432 0.984 . S
N420 H433 0.985 . S
N421 C423 1.356 1_554 S
N421 H426 0.984 . S
N421 H427 0.985 . S
C422 C416 1.379 . S
C422 C419 1.363 . S
C422 N420 1.356 . S
C423 C417 1.363 . S
C423 C418 1.379 . S
C423 N421 1.356 1_556 S
N424 C416 1.356 . S
N424 H430 0.984 . S
N424 H431 0.984 1_556 S
N425 C418 1.356 . S
N425 H428 0.984 . S
N425 H429 0.985 . S
H426 N421 0.984 . S
H427 N421 0.985 . S
H428 N425 0.984 . S
H429 N425 0.985 . S
H430 N424 0.984 . S
H431 N424 0.984 1_554 S
H432 N420 0.984 . S
H433 N420 0.985 . S
C434 C435 1.363 . S
C434 C440 1.379 . S
C434 N442 1.356 . S
C435 C434 1.363 . S
C435 C441 1.363 . S
C436 C437 1.363 . S
C436 C441 1.379 . S
C436 N443 1.356 . S
C437 C436 1.363 . S
C437 C440 1.363 . S
N438 C440 1.356 . S
N438 H450 0.984 . S
N438 H451 0.985 . S
N439 C441 1.356 . S
N439 H444 0.984 . S
N439 H445 0.985 . S
C440 C434 1.379 . S
C440 C437 1.363 . S
C440 N438 1.356 . S
C441 C435 1.363 . S
C441 C436 1.379 . S
C441 N439 1.356 . S
N442 C434 1.356 . S
N442 H448 0.984 . S
N442 H449 0.984 . S
N443 C436 1.356 . S
N443 H446 0.984 . S
N443 H447 0.985 . S
H444 N439 0.984 . S
H445 N439 0.985 . S
H446 N443 0.984 . S
H447 N443 0.985 . S
H448 N442 0.984 . S
H449 N442 0.984 . S
H450 N438 0.984 . S
H451 N438 0.985 . S
C452 C453 1.363 . S
C452 C458 1.379 . S
C452 N460 1.356 . S
C453 C452 1.363 . S
C453 C459 1.363 . S
C454 C455 1.363 . S
C454 C459 1.379 . S
C454 N461 1.356 . S
C455 C454 1.363 . S
C455 C458 1.363 . S
N456 C458 1.356 . S
N456 H468 0.984 . S
N456 H469 0.985 . S
N457 C459 1.356 1_554 S
N457 H462 0.984 . S
N457 H463 0.985 1_554 S
C458 C452 1.379 . S
C458 C455 1.363 . S
C458 N456 1.356 . S
C459 C453 1.363 . S
C459 C454 1.379 . S
C459 N457 1.356 1_556 S
N460 C452 1.356 . S
N460 H466 0.984 . S
N460 H467 0.984 1_556 S
N461 C454 1.356 . S
N461 H464 0.984 . S
N461 H465 0.985 1_655 S
H462 N457 0.984 . S
H463 N457 0.985 1_556 S
H464 N461 0.984 . S
H465 N461 0.985 1_455 S
H466 N460 0.984 . S
H467 N460 0.984 1_554 S
H468 N456 0.984 . S
H469 N456 0.985 . S
C470 C471 1.363 . S
C470 C476 1.379 . S
C470 N478 1.356 . S
C471 C470 1.363 . S
C471 C477 1.363 . S
C472 C473 1.363 . S
C472 C477 1.379 . S
C472 N479 1.356 . S
C473 C472 1.363 . S
C473 C476 1.363 . S
N474 C476 1.356 . S
N474 H486 0.984 . S
N474 H487 0.985 . S
N475 C477 1.356 . S
N475 H480 0.984 . S
N475 H481 0.985 . S
C476 C470 1.379 . S
C476 C473 1.363 . S
C476 N474 1.356 . S
C477 C471 1.363 . S
C477 C472 1.379 . S
C477 N475 1.356 . S
N478 C470 1.356 . S
N478 H484 0.984 . S
N478 H485 0.984 . S
N479 C472 1.356 . S
N479 H482 0.984 . S
N479 H483 0.985 . S
H480 N475 0.984 . S
H481 N475 0.985 . S
H482 N479 0.984 . S
H483 N479 0.985 . S
H484 N478 0.984 . S
H485 N478 0.984 . S
H486 N474 0.984 . S
H487 N474 0.985 . S
C488 C489 1.363 . S
C488 C494 1.379 . S
C488 N496 1.356 1_554 S
C489 C488 1.363 . S
C489 C495 1.363 . S
C490 C491 1.363 . S
C490 C495 1.379 . S
C490 N497 1.356 . S
C491 C490 1.363 . S
C491 C494 1.363 . S
N492 C494 1.356 . S
N492 H504 0.984 . S
N492 H505 0.985 . S
N493 C495 1.346 1_556 S
N493 H498 0.998 . S
N493 H499 0.981 1_556 S
C494 C488 1.379 . S
C494 C491 1.363 . S
C494 N492 1.356 . S
C495 C489 1.363 . S
C495 C490 1.379 . S
C495 N493 1.346 1_554 S
N496 C488 1.356 1_556 S
N496 H502 0.984 1_556 S
N496 H503 0.984 . S
N497 C490 1.356 . S
N497 H500 0.984 . S
N497 H501 0.985 . S
H498 N493 0.998 . S
H499 N493 0.981 1_554 S
H500 N497 0.984 . S
H501 N497 0.985 . S
H502 N496 0.984 1_554 S
H503 N496 0.984 . S
H504 N492 0.984 . S
H505 N492 0.985 . S
C506 C507 1.363 . S
C506 C512 1.379 . S
C506 N514 1.356 . S
C507 C506 1.363 . S
C507 C513 1.363 . S
C508 C509 1.363 . S
C508 C513 1.379 . S
C508 N515 1.356 . S
C509 C508 1.363 . S
C509 C512 1.363 . S
N510 C512 1.356 . S
N510 H522 0.984 . S
N510 H523 0.985 . S
N511 C513 1.356 . S
N511 H516 0.984 . S
N511 H517 0.985 . S
C512 C506 1.379 . S
C512 C509 1.363 . S
C512 N510 1.356 . S
C513 C507 1.363 . S
C513 C508 1.379 . S
C513 N511 1.356 . S
N514 C506 1.356 . S
N514 H520 0.984 . S
N514 H521 0.984 . S
N515 C508 1.356 . S
N515 H518 0.984 . S
N515 H519 0.985 . S
H516 N511 0.984 . S
H517 N511 0.985 . S
H518 N515 0.984 . S
H519 N515 0.985 . S
H520 N514 0.984 . S
H521 N514 0.984 . S
H522 N510 0.984 . S
H523 N510 0.985 . S
C524 C525 1.363 . S
C524 C530 1.379 . S
C524 N532 1.356 . S
C525 C524 1.363 . S
C525 C531 1.363 . S
C526 C527 1.363 . S
C526 C531 1.379 . S
C526 N533 1.356 . S
C527 C526 1.363 . S
C527 C530 1.363 . S
N528 C530 1.356 . S
N528 H540 0.984 . S
N528 H541 0.985 . S
N529 C531 1.356 . S
N529 H534 0.984 . S
N529 H535 0.985 . S
C530 C524 1.379 . S
C530 C527 1.363 . S
C530 N528 1.356 . S
C531 C525 1.363 . S
C531 C526 1.379 . S
C531 N529 1.356 . S
N532 C524 1.356 . S
N532 H538 0.984 . S
N532 H539 0.984 . S
N533 C526 1.356 . S
N533 H536 0.984 . S
N533 H537 0.985 . S
H534 N529 0.984 . S
H535 N529 0.985 . S
H536 N533 0.984 . S
H537 N533 0.985 . S
H538 N532 0.984 . S
H539 N532 0.984 . S
H540 N528 0.984 . S
H541 N528 0.985 . S
C542 C543 1.363 . S
C542 C548 1.379 . S
C542 N550 1.356 . S
C543 C542 1.363 . S
C543 C549 1.363 . S
C544 C545 1.363 . S
C544 C549 1.379 . S
C544 N551 1.356 . S
C545 C544 1.363 . S
C545 C548 1.363 . S
N546 C548 1.356 . S
N546 H558 0.984 . S
N546 H559 0.985 . S
N547 C549 1.356 . S
N547 H552 0.984 . S
N547 H553 0.985 . S
C548 C542 1.379 . S
C548 C545 1.363 . S
C548 N546 1.356 . S
C549 C543 1.363 . S
C549 C544 1.379 . S
C549 N547 1.356 . S
N550 C542 1.356 . S
N550 H556 0.984 . S
N550 H557 0.984 . S
N551 C544 1.356 . S
N551 H554 0.984 . S
N551 H555 0.985 . S
H552 N547 0.984 . S
H553 N547 0.985 . S
H554 N551 0.984 . S
H555 N551 0.985 . S
H556 N550 0.984 . S
H557 N550 0.984 . S
H558 N546 0.984 . S
H559 N546 0.985 . S
C560 C561 1.363 . S
C560 C566 1.379 . S
C560 N568 1.356 . S
C561 C560 1.363 . S
C561 C567 1.363 . S
C562 C563 1.363 . S
C562 C567 1.379 . S
C562 N569 1.356 . S
C563 C562 1.363 . S
C563 C566 1.363 . S
N564 C566 1.356 . S
N564 H576 0.984 . S
N564 H577 0.985 . S
N565 C567 1.356 . S
N565 H570 0.984 . S
N565 H571 0.985 . S
C566 C560 1.379 . S
C566 C563 1.363 . S
C566 N564 1.356 . S
C567 C561 1.363 . S
C567 C562 1.379 . S
C567 N565 1.356 . S
N568 C560 1.356 . S
N568 H574 0.984 . S
N568 H575 0.984 . S
N569 C562 1.356 . S
N569 H572 0.984 . S
N569 H573 0.985 . S
H570 N565 0.984 . S
H571 N565 0.985 . S
H572 N569 0.984 . S
H573 N569 0.985 . S
H574 N568 0.984 . S
H575 N568 0.984 . S
H576 N564 0.984 . S
H577 N564 0.985 . S
C578 C579 1.363 . S
C578 C584 1.379 . S
C578 N586 1.356 . S
C579 C578 1.363 . S
C579 C585 1.363 . S
C580 C581 1.363 . S
C580 C585 1.379 . S
C580 N587 1.356 . S
C581 C580 1.363 . S
C581 C584 1.363 . S
N582 C584 1.356 . S
N582 H594 0.984 . S
N582 H595 0.985 . S
N583 C585 1.356 . S
N583 H588 0.984 . S
N583 H589 0.985 . S
C584 C578 1.379 . S
C584 C581 1.363 . S
C584 N582 1.356 . S
C585 C579 1.363 . S
C585 C580 1.379 . S
C585 N583 1.356 . S
N586 C578 1.356 . S
N586 H592 0.984 . S
N586 H593 0.984 . S
N587 C580 1.356 . S
N587 H590 0.984 . S
N587 H591 0.985 . S
H588 N583 0.984 . S
H589 N583 0.985 . S
H590 N587 0.984 . S
H591 N587 0.985 . S
H592 N586 0.984 . S
H593 N586 0.984 . S
H594 N582 0.984 . S
H595 N582 0.985 . S
C596 C597 1.363 . S
C596 C602 1.379 . S
C596 N604 1.356 . S
C597 C596 1.363 . S
C597 C603 1.363 . S
C598 C599 1.363 . S
C598 C603 1.379 . S
C598 N605 1.356 . S
C599 C598 1.363 . S
C599 C602 1.363 . S
N600 C602 1.356 . S
N600 H612 0.984 . S
N600 H613 0.985 . S
N601 C603 1.356 . S
N601 H606 0.984 . S
N601 H607 0.985 . S
C602 C596 1.379 . S
C602 C599 1.363 . S
C602 N600 1.356 . S
C603 C597 1.363 . S
C603 C598 1.379 . S
C603 N601 1.356 . S
N604 C596 1.356 . S
N604 H610 0.984 . S
N604 H611 0.984 . S
N605 C598 1.356 . S
N605 H608 0.984 . S
N605 H609 0.985 . S
H606 N601 0.984 . S
H607 N601 0.985 . S
H608 N605 0.984 . S
H609 N605 0.985 . S
H610 N604 0.984 . S
H611 N604 0.984 . S
H612 N600 0.984 . S
H613 N600 0.985 . S
C614 C615 1.363 . S
C614 C620 1.379 . S
C614 N622 1.356 . S
C615 C614 1.363 . S
C615 C621 1.363 . S
C616 C617 1.363 . S
C616 C621 1.379 . S
C616 N623 1.356 . S
C617 C616 1.363 . S
C617 C620 1.363 . S
N618 C620 1.356 . S
N618 H630 0.984 . S
N618 H631 0.985 . S
N619 C621 1.356 . S
N619 H624 0.984 . S
N619 H625 0.985 . S
C620 C614 1.379 . S
C620 C617 1.363 . S
C620 N618 1.356 . S
C621 C615 1.363 . S
C621 C616 1.379 . S
C621 N619 1.356 . S
N622 C614 1.356 . S
N622 H628 0.984 . S
N622 H629 0.984 . S
N623 C616 1.356 . S
N623 H626 0.984 . S
N623 H627 0.985 . S
H624 N619 0.984 . S
H625 N619 0.985 . S
H626 N623 0.984 . S
H627 N623 0.985 . S
H628 N622 0.984 . S
H629 N622 0.984 . S
H630 N618 0.984 . S
H631 N618 0.985 . S
C632 C633 1.363 . S
C632 C638 1.379 . S
C632 N640 1.356 . S
C633 C632 1.363 . S
C633 C639 1.363 . S
C634 C635 1.363 . S
C634 C639 1.379 . S
C634 N641 1.356 . S
C635 C634 1.363 . S
C635 C638 1.363 . S
N636 C638 1.356 . S
N636 H648 0.984 . S
N636 H649 0.985 . S
N637 C639 1.356 . S
N637 H642 0.984 . S
N637 H643 0.985 . S
C638 C632 1.379 . S
C638 C635 1.363 . S
C638 N636 1.356 . S
C639 C633 1.363 . S
C639 C634 1.379 . S
C639 N637 1.356 . S
N640 C632 1.356 . S
N640 H646 0.984 . S
N640 H647 0.984 . S
N641 C634 1.356 . S
N641 H644 0.984 . S
N641 H645 0.985 . S
H642 N637 0.984 . S
H643 N637 0.985 . S
H644 N641 0.984 . S
H645 N641 0.985 . S
H646 N640 0.984 . S
H647 N640 0.984 . S
H648 N636 0.984 . S
H649 N636 0.985 . S
C650 C651 1.363 . S
C650 C656 1.379 . S
C650 N658 1.356 . S
C651 C650 1.363 . S
C651 C657 1.363 . S
C652 C653 1.363 . S
C652 C657 1.379 . S
C652 N659 1.356 . S
C653 C652 1.363 . S
C653 C656 1.363 . S
N654 C656 1.356 . S
N654 H666 0.984 . S
N654 H667 0.985 . S
N655 C657 1.356 . S
N655 H660 0.984 . S
N655 H661 0.985 . S
C656 C650 1.379 . S
C656 C653 1.363 . S
C656 N654 1.356 . S
C657 C651 1.363 . S
C657 C652 1.379 . S
C657 N655 1.356 . S
N658 C650 1.356 . S
N658 H664 0.984 . S
N658 H665 0.984 . S
N659 C652 1.356 . S
N659 H662 0.984 . S
N659 H663 0.985 . S
H660 N655 0.984 . S
H661 N655 0.985 . S
H662 N659 0.984 . S
H663 N659 0.985 . S
H664 N658 0.984 . S
H665 N658 0.984 . S
H666 N654 0.984 . S
H667 N654 0.985 . S
C237 C116 1.445 . S
C239 C168 1.403 1_565 S
C257 C176 1.403 . S
C255 C135 1.445 . S
C275 C180 1.395 . S
C273 C78 1.447 . S
C291 C97 1.447 . S
C293 C156 1.395 1_565 S
C311 C197 1.403 1_545 S
C309 C40 1.444 . S
C329 C231 1.403 . S
C327 C59 1.444 . S
C345 C2 1.446 . S
C347 C219 1.395 . S
C363 C21 1.446 . S
C365 C201 1.395 1_545 S
C383 C155 1.400 . S
C381 C25 1.541 1_554 S
C401 C189 1.400 . S
C399 C6 1.541 . S
C419 C193 1.394 . S
C417 C63 1.538 1_556 S
C437 C171 1.394 . S
C435 C44 1.538 . S
C455 C210 1.400 . S
C453 C101 1.544 1_556 S
C471 C82 1.544 . S
C473 C218 1.400 . S
C491 C234 1.394 . S
C489 C139 1.540 1_554 S
C507 C120 1.540 . S
C509 C214 1.394 . S
C527 C159 1.382 . S
C525 C11 1.377 . S
C545 C177 1.382 . S
C543 C30 1.377 . S
C561 C49 1.373 . S
C563 C192 1.388 . S
C581 C172 1.388 . S
C579 C68 1.373 . S
C599 C198 1.382 . S
C597 C87 1.423 . S
C615 C106 1.423 . S
C617 C222 1.382 . S
C633 C125 1.413 . S
C635 C235 1.388 . S
C651 C144 1.413 . S
C653 C213 1.388 . S
