# Generated by pormake.
# Topology the, (3,8)-cn, num edge types: 1
# Building blocks:
#     Node 0, Type 0, BuildingBlock: QEWDON_clean_linker_0, # of connection points: 3
#     Node 1, Type 0, BuildingBlock: QEWDON_clean_linker_0, # of connection points: 3
#     Node 2, Type 0, BuildingBlock: QEWDON_clean_linker_0, # of connection points: 3
#     Node 3, Type 0, BuildingBlock: QEWDON_clean_linker_0, # of connection points: 3
#     Node 4, Type 0, BuildingBlock: QEWDON_clean_linker_0, # of connection points: 3
#     Node 5, Type 0, BuildingBlock: QEWDON_clean_linker_0, # of connection points: 3
#     Node 6, Type 0, BuildingBlock: QEWDON_clean_linker_0, # of connection points: 3
#     Node 7, Type 0, BuildingBlock: QEWDON_clean_linker_0, # of connection points: 3
#     Node 8, Type 1, BuildingBlock: GIZVER_clean_sbu_0, # of connection points: 8
#     Node 9, Type 1, BuildingBlock: GIZVER_clean_sbu_0, # of connection points: 8
#     Node 10, Type 1, BuildingBlock: GIZVER_clean_sbu_0, # of connection points: 8
#     Edge 11, Type (0, 1), BuildingBlock: TEMPAE_clean_linker_10, # of connection points: 2
#     Edge 12, Type (0, 1), BuildingBlock: TEMPAE_clean_linker_10, # of connection points: 2
#     Edge 13, Type (0, 1), BuildingBlock: TEMPAE_clean_linker_10, # of connection points: 2
#     Edge 14, Type (0, 1), BuildingBlock: TEMPAE_clean_linker_10, # of connection points: 2
#     Edge 15, Type (0, 1), BuildingBlock: TEMPAE_clean_linker_10, # of connection points: 2
#     Edge 16, Type (0, 1), BuildingBlock: TEMPAE_clean_linker_10, # of connection points: 2
#     Edge 17, Type (0, 1), BuildingBlock: TEMPAE_clean_linker_10, # of connection points: 2
#     Edge 18, Type (0, 1), BuildingBlock: TEMPAE_clean_linker_10, # of connection points: 2
#     Edge 19, Type (0, 1), BuildingBlock: TEMPAE_clean_linker_10, # of connection points: 2
#     Edge 20, Type (0, 1), BuildingBlock: TEMPAE_clean_linker_10, # of connection points: 2
#     Edge 21, Type (0, 1), BuildingBlock: TEMPAE_clean_linker_10, # of connection points: 2
#     Edge 22, Type (0, 1), BuildingBlock: TEMPAE_clean_linker_10, # of connection points: 2
#     Edge 23, Type (0, 1), BuildingBlock: TEMPAE_clean_linker_10, # of connection points: 2
#     Edge 24, Type (0, 1), BuildingBlock: TEMPAE_clean_linker_10, # of connection points: 2
#     Edge 25, Type (0, 1), BuildingBlock: TEMPAE_clean_linker_10, # of connection points: 2
#     Edge 26, Type (0, 1), BuildingBlock: TEMPAE_clean_linker_10, # of connection points: 2
#     Edge 27, Type (0, 1), BuildingBlock: TEMPAE_clean_linker_10, # of connection points: 2
#     Edge 28, Type (0, 1), BuildingBlock: TEMPAE_clean_linker_10, # of connection points: 2
#     Edge 29, Type (0, 1), BuildingBlock: TEMPAE_clean_linker_10, # of connection points: 2
#     Edge 30, Type (0, 1), BuildingBlock: TEMPAE_clean_linker_10, # of connection points: 2
#     Edge 31, Type (0, 1), BuildingBlock: TEMPAE_clean_linker_10, # of connection points: 2
#     Edge 32, Type (0, 1), BuildingBlock: TEMPAE_clean_linker_10, # of connection points: 2
#     Edge 33, Type (0, 1), BuildingBlock: TEMPAE_clean_linker_10, # of connection points: 2
#     Edge 34, Type (0, 1), BuildingBlock: TEMPAE_clean_linker_10, # of connection points: 2
# Relax obj value: 0.102
# Max RMSD: 0.270
# Mean RMSD: 0.183
data_MOF--net-the--node1-GIZVER_clean_sbu_0--node2-QEWDON_clean_linker_0--edge1-TEMPAE_clean_linker_10
_symmetry_space_group_name_H-M    P1
_symmetry_Int_Tables_number       1
_symmetry_cell_setting            triclinic
loop_
_symmetry_equiv_pos_as_xyz
'x, y, z'
_cell_length_a     41.992583
_cell_length_b     39.333808
_cell_length_c     38.473749
_cell_angle_alpha  87.073252
_cell_angle_beta   94.532361
_cell_angle_gamma 112.30069
loop_
_atom_site_label
_atom_site_type_symbol
_atom_site_fract_x
_atom_site_fract_y
_atom_site_fract_z
_atom_type_partial_charge
H0 H 0.35647 0.26107 0.42064 0.0
C1 C 0.36634 0.27415 0.39619 0.0
C2 C 0.3961 0.27158 0.38407 0.0
C3 C 0.34804 0.29256 0.37657 0.0
H4 H 0.43088 0.28824 0.34229 0.0
C5 C 0.40827 0.29001 0.35241 0.0
C6 C 0.39087 0.30994 0.33297 0.0
C7 C 0.36062 0.3109 0.34542 0.0
C8 C 0.31323 0.28785 0.38617 0.0
H9 H 0.34567 0.32408 0.32992 0.0
C10 C 0.30496 0.31812 0.39346 0.0
C11 C 0.27125 0.31254 0.40161 0.0
C12 C 0.28772 0.25223 0.38732 0.0
H13 H 0.29362 0.22862 0.38169 0.0
C14 C 0.25427 0.2468 0.39513 0.0
H15 H 0.32455 0.34566 0.39291 0.0
C16 C 0.24599 0.27677 0.40212 0.0
H17 H 0.21994 0.27202 0.40849 0.0
H18 H 0.23472 0.2193 0.39578 0.0
H19 H 0.79133 0.35611 0.3108 0.0
C20 C 0.77916 0.32724 0.31781 0.0
C21 C 0.79678 0.30987 0.34029 0.0
C22 C 0.74445 0.30873 0.30712 0.0
H23 H 0.79165 0.25888 0.36814 0.0
C24 C 0.77957 0.27251 0.34941 0.0
C25 C 0.74537 0.25323 0.33696 0.0
C26 C 0.72797 0.27148 0.31575 0.0
C27 C 0.72334 0.33032 0.29637 0.0
H28 H 0.70061 0.25773 0.30888 0.0
C29 C 0.7185 0.33997 0.26133 0.0
C30 C 0.69781 0.3605 0.25218 0.0
C31 C 0.7079 0.34141 0.3223 0.0
H32 H 0.71158 0.33418 0.34947 0.0
C33 C 0.68753 0.36175 0.31344 0.0
H34 H 0.73074 0.33155 0.24148 0.0
C35 C 0.68232 0.3711 0.27866 0.0
H36 H 0.66549 0.38599 0.27247 0.0
H37 H 0.67545 0.36999 0.33353 0.0
H38 H 0.77504 0.67482 0.39406 0.0
C39 C 0.76888 0.67133 0.36626 0.0
C40 C 0.78836 0.65837 0.3461 0.0
C41 C 0.73987 0.67756 0.35143 0.0
H42 H 0.7932 0.64266 0.29439 0.0
C43 C 0.77812 0.65189 0.3104 0.0
C44 C 0.74811 0.65629 0.29532 0.0
C45 C 0.72957 0.66985 0.31616 0.0
C46 C 0.71644 0.68471 0.37434 0.0
H47 H 0.70562 0.67198 0.30582 0.0
C48 C 0.71399 0.7195 0.37555 0.0
C49 C 0.69039 0.72445 0.39706 0.0
C50 C 0.69557 0.65546 0.3949 0.0
H51 H 0.69711 0.62861 0.3943 0.0
C52 C 0.67225 0.66036 0.41601 0.0
H53 H 0.73011 0.74232 0.3599 0.0
C54 C 0.66955 0.69453 0.41701 0.0
H55 H 0.65137 0.69778 0.43377 0.0
H56 H 0.65617 0.63757 0.43166 0.0
H57 H 0.40411 0.74818 0.30443 0.0
C58 C 0.38097 0.7276 0.31434 0.0
C59 C 0.37119 0.73101 0.34772 0.0
C60 C 0.36049 0.69825 0.29311 0.0
H61 H 0.33247 0.70692 0.38503 0.0
C62 C 0.34045 0.70457 0.35945 0.0
C63 C 0.31931 0.67564 0.33809 0.0
C64 C 0.32968 0.67239 0.30501 0.0
C65 C 0.36987 0.69655 0.25728 0.0
H66 H 0.31344 0.65031 0.2882 0.0
C67 C 0.3817 0.66942 0.24804 0.0
C68 C 0.39169 0.66899 0.21397 0.0
C69 C 0.36744 0.72281 0.23229 0.0
H70 H 0.35836 0.74384 0.23904 0.0
C71 C 0.37645 0.72195 0.19834 0.0
H72 H 0.38415 0.64958 0.26761 0.0
C73 C 0.38851 0.69532 0.18919 0.0
H74 H 0.3953 0.69529 0.16261 0.0
H75 H 0.37424 0.74211 0.17908 0.0
H76 H 0.44034 0.71136 0.72772 0.0
C77 C 0.41332 0.70357 0.71927 0.0
C78 C 0.40158 0.72989 0.70305 0.0
C79 C 0.39055 0.66688 0.72292 0.0
H80 H 0.35917 0.7388 0.67456 0.0
C81 C 0.36716 0.71902 0.68959 0.0
C82 C 0.34415 0.6823 0.69284 0.0
C83 C 0.35581 0.65712 0.7114 0.0
C84 C 0.40322 0.63752 0.73473 0.0
H85 H 0.33816 0.62903 0.71549 0.0
C86 C 0.4256 0.64124 0.76472 0.0
C87 C 0.43667 0.61256 0.7757 0.0
C88 C 0.39258 0.60517 0.71546 0.0
H89 H 0.37589 0.60184 0.69187 0.0
C90 C 0.40347 0.5768 0.72621 0.0
H91 H 0.43414 0.66621 0.77952 0.0
C92 C 0.42516 0.58028 0.7562 0.0
H93 H 0.43257 0.55741 0.76438 0.0
H94 H 0.3949 0.55192 0.71133 0.0
H95 H 0.37649 0.32826 0.74046 0.0
C96 C 0.38787 0.31154 0.72859 0.0
C97 C 0.41963 0.31044 0.74255 0.0
C98 C 0.36969 0.28989 0.70022 0.0
H99 H 0.4578 0.28673 0.73655 0.0
C100 C 0.43362 0.28822 0.7262 0.0
C101 C 0.41627 0.26739 0.69676 0.0
C102 C 0.38422 0.26833 0.68434 0.0
C103 C 0.33353 0.28567 0.69 0.0
H104 H 0.36981 0.25119 0.66279 0.0
C105 C 0.3243 0.316 0.68013 0.0
C106 C 0.28941 0.3106 0.67134 0.0
C107 C 0.30767 0.25024 0.69083 0.0
H108 H 0.31406 0.22659 0.69854 0.0
C109 C 0.2733 0.24493 0.68232 0.0
H110 H 0.34403 0.34344 0.67924 0.0
C111 C 0.26418 0.2748 0.67271 0.0
H112 H 0.23729 0.26984 0.66576 0.0
H113 H 0.25362 0.2175 0.68313 0.0
H114 H 0.85214 0.34504 0.7619 0.0
C115 C 0.83583 0.32291 0.74517 0.0
C116 C 0.84386 0.32197 0.71059 0.0
C117 C 0.8066 0.29549 0.75819 0.0
H118 H 0.82926 0.29185 0.66296 0.0
C119 C 0.82233 0.29311 0.68925 0.0
C120 C 0.79242 0.26579 0.70174 0.0
C121 C 0.78491 0.26733 0.7365 0.0
C122 C 0.79842 0.29603 0.79461 0.0
H123 H 0.7617 0.24724 0.74674 0.0
C124 C 0.78482 0.32127 0.80479 0.0
C125 C 0.77497 0.32022 0.83907 0.0
C126 C 0.80275 0.27007 0.81888 0.0
H127 H 0.81304 0.25032 0.81127 0.0
C128 C 0.79379 0.26945 0.85312 0.0
H129 H 0.78074 0.34069 0.78568 0.0
C130 C 0.7799 0.29425 0.8632 0.0
H131 H 0.77299 0.29313 0.8899 0.0
H132 H 0.79734 0.24948 0.87183 0.0
H133 H 0.83852 0.71003 0.6281 0.0
C134 C 0.82399 0.69577 0.65011 0.0
C135 C 0.82403 0.66127 0.66085 0.0
C136 C 0.80583 0.7123 0.66762 0.0
H137 H 0.80542 0.61606 0.69745 0.0
C138 C 0.80519 0.64274 0.68927 0.0
C139 C 0.78733 0.65921 0.70786 0.0
C140 C 0.7875 0.69396 0.69638 0.0
C141 C 0.80826 0.74984 0.65685 0.0
H142 H 0.77492 0.70774 0.71077 0.0
C143 C 0.77845 0.75783 0.64918 0.0
C144 C 0.78146 0.79281 0.63591 0.0
C145 C 0.84089 0.77753 0.65238 0.0
H146 H 0.86418 0.77208 0.65841 0.0
C147 C 0.8438 0.81241 0.63991 0.0
H148 H 0.75313 0.73664 0.65216 0.0
C149 C 0.81426 0.81997 0.63141 0.0
H150 H 0.81694 0.84708 0.62128 0.0
H151 H 0.86901 0.83351 0.63645 0.0
Co152 Co 0.13455 0.49292 0.53856 0.0
Co153 Co 0.09426 0.4644 0.48396 0.0
Co154 Co 0.06572 0.51752 0.51418 0.0
O155 O 0.0862 0.47975 0.52579 0.0
H156 H 0.07156 0.45917 0.53929 0.0
O157 O 0.0445 0.55489 0.503 0.0
Co158 Co 0.99545 0.54012 0.49064 0.0
Co159 Co 0.03558 0.56953 0.54558 0.0
H160 H 0.05879 0.57561 0.48934 0.0
O161 O 0.10223 0.42191 0.48007 0.0
O162 O 0.14176 0.47862 0.49161 0.0
O163 O 0.08609 0.48999 0.44234 0.0
O164 O 0.09542 0.53896 0.47342 0.0
O165 O 0.02996 0.48211 0.48301 0.0
O166 O 0.9513 0.53128 0.47744 0.0
O167 O 0.99715 0.58449 0.47311 0.0
O168 O 0.98711 0.49082 0.50564 0.0
O169 O 0.03658 0.49565 0.55493 0.0
O170 O 0.04305 0.54306 0.58726 0.0
O171 O 0.98789 0.55233 0.53791 0.0
O172 O 0.02372 0.61009 0.55087 0.0
C173 C 0.16445 0.46625 0.56252 0.0
C174 C 0.13387 0.56201 0.54083 0.0
C175 C 0.0982 0.52458 0.44529 0.0
C176 C 0.13417 0.44467 0.48296 0.0
C177 C 0.96409 0.56574 0.46764 0.0
C178 C 0.99799 0.47182 0.48751 0.0
C179 C 0.03438 0.50875 0.58393 0.0
C180 C 0.99284 0.58508 0.54793 0.0
O181 O 0.17842 0.5007 0.55292 0.0
O182 O 0.13133 0.44848 0.55637 0.0
O183 O 0.10193 0.5529 0.54528 0.0
O184 O 0.14389 0.54215 0.52278 0.0
Co185 Co 0.58941 0.93943 0.5117 0.0
Co186 Co 0.61301 0.97691 0.56874 0.0
Co187 Co 0.56218 0.00866 0.52919 0.0
O188 O 0.59941 0.98937 0.52435 0.0
H189 H 0.61901 0.00687 0.51312 0.0
O190 O 0.52511 0.02876 0.53426 0.0
Co191 Co 0.53639 0.07849 0.54992 0.0
Co192 Co 0.51269 0.04556 0.49157 0.0
H193 H 0.50511 0.01103 0.54474 0.0
O194 O 0.65531 0.97344 0.57802 0.0
O195 O 0.60556 0.92849 0.55955 0.0
O196 O 0.58507 0.97518 0.60687 0.0
O197 O 0.54184 0.97507 0.56984 0.0
O198 O 0.59502 0.0464 0.56096 0.0
O199 O 0.5434 0.12222 0.56607 0.0
O200 O 0.49446 0.07202 0.56616 0.0
O201 O 0.58223 0.0923 0.5371 0.0
O202 O 0.58254 0.04161 0.48813 0.0
O203 O 0.53946 0.04611 0.45324 0.0
O204 O 0.52222 0.09408 0.50293 0.0
O205 O 0.47171 0.05186 0.48163 0.0
C206 C 0.61525 0.91128 0.4897 0.0
C207 C 0.52383 0.93585 0.50354 0.0
C208 C 0.5531 0.96709 0.59967 0.0
C209 C 0.63775 0.93904 0.57137 0.0
C210 C 0.51175 0.1063 0.57469 0.0
C211 C 0.60245 0.0807 0.55591 0.0
C212 C 0.57071 0.04969 0.45863 0.0
C213 C 0.49099 0.08574 0.4887 0.0
O214 O 0.58373 0.8945 0.49867 0.0
O215 O 0.63108 0.94642 0.49535 0.0
O216 O 0.52998 0.96996 0.4975 0.0
O217 O 0.54376 0.92615 0.52493 0.0
Co218 Co 0.5328 0.49747 0.08736 0.0
Co219 Co 0.51187 0.43482 0.0554 0.0
Co220 Co 0.57622 0.49563 0.01727 0.0
O221 O 0.53192 0.48397 0.04023 0.0
H222 H 0.51539 0.49038 0.02526 0.0
O223 O 0.62048 0.50753 0.99467 0.0
Co224 Co 0.61992 0.48898 0.94994 0.0
Co225 Co 0.63933 0.55439 0.97465 0.0
H226 H 0.63759 0.50347 1.01077 0.0
O227 O 0.4667 0.41134 0.07234 0.0
O228 O 0.51475 0.44572 0.1024 0.0
O229 O 0.54106 0.40747 0.0525 0.0
O230 O 0.58892 0.4571 0.0448 0.0
O231 O 0.54923 0.45808 0.98099 0.0
O232 O 0.62327 0.46994 0.91005 0.0
O233 O 0.66071 0.48443 0.9573 0.0
O234 O 0.5765 0.49105 0.93694 0.0
O235 O 0.56318 0.53382 0.98931 0.0
O236 O 0.60901 0.58076 0.97095 0.0
O237 O 0.6411 0.53909 0.92995 0.0
O238 O 0.68552 0.57749 0.96251 0.0
C239 C 0.50029 0.51111 0.11571 0.0
C240 C 0.60212 0.52494 0.0863 0.0
C241 C 0.57371 0.4231 0.05304 0.0
C242 C 0.48273 0.42388 0.10197 0.0
C243 C 0.65179 0.47035 0.9264 0.0
C244 C 0.55044 0.46542 0.9483 0.0
C245 C 0.57685 0.56564 0.97485 0.0
C246 C 0.67303 0.56167 0.93298 0.0
O247 O 0.52948 0.51115 0.12997 0.0
O248 O 0.49078 0.49992 0.08381 0.0
O249 O 0.60346 0.53296 0.05372 0.0
O250 O 0.5771 0.49736 0.09672 0.0
C251 C 0.23623 0.351 0.39041 0.0
C252 C 0.26181 0.34326 0.41086 0.0
C253 C 0.22117 0.37406 0.40251 0.0
C254 C 0.23149 0.38899 0.43619 0.0
C255 C 0.25913 0.38335 0.45583 0.0
C256 C 0.27411 0.36055 0.44281 0.0
C257 C 0.19218 0.37983 0.38046 0.0
C258 C 0.27074 0.39843 0.49188 0.0
C259 C 0.19184 0.45609 0.46081 0.0
C260 C 0.16158 0.43193 0.4752 0.0
C261 C 0.21584 0.44291 0.44913 0.0
C262 C 0.20956 0.40492 0.45266 0.0
C263 C 0.18013 0.38099 0.46934 0.0
C264 C 0.15627 0.39471 0.47993 0.0
C265 C 0.24686 0.46923 0.43146 0.0
C266 C 0.17299 0.34049 0.47466 0.0
H267 H 0.2268 0.33747 0.36569 0.0
H268 H 0.29371 0.35417 0.4587 0.0
H269 H 0.16728 0.3637 0.39194 0.0
H270 H 0.19543 0.40918 0.38 0.0
H271 H 0.19069 0.37099 0.35321 0.0
H272 H 0.27053 0.42642 0.49347 0.0
H273 H 0.25268 0.38036 0.51073 0.0
H274 H 0.29706 0.39938 0.49994 0.0
H275 H 0.19591 0.48491 0.45706 0.0
H276 H 0.1331 0.37612 0.49151 0.0
H277 H 0.24402 0.46322 0.40326 0.0
H278 H 0.27067 0.46564 0.4424 0.0
H279 H 0.25005 0.49835 0.43422 0.0
H280 H 0.16829 0.32719 0.44899 0.0
H281 H 0.1502 0.3262 0.49014 0.0
H282 H 0.19569 0.33659 0.48827 0.0
C283 C 0.70702 0.18716 0.3303 0.0
C284 C 0.72529 0.2168 0.35194 0.0
C285 C 0.68346 0.15432 0.34408 0.0
C286 C 0.67732 0.15191 0.37995 0.0
C287 C 0.69687 0.18135 0.40207 0.0
C288 C 0.72094 0.21332 0.38779 0.0
C289 C 0.66396 0.12303 0.31998 0.0
C290 C 0.69064 0.18022 0.44034 0.0
C291 C 0.58912 0.09796 0.41205 0.0
C292 C 0.59546 0.07064 0.43285 0.0
C293 C 0.61513 0.12348 0.39296 0.0
C294 C 0.64791 0.12085 0.39394 0.0
C295 C 0.65342 0.09127 0.41233 0.0
C296 C 0.62725 0.06679 0.43212 0.0
C297 C 0.60837 0.15504 0.37424 0.0
C298 C 0.68759 0.08679 0.41288 0.0
H299 H 0.7105 0.19009 0.30253 0.0
H300 H 0.73481 0.23656 0.40432 0.0
H301 H 0.66248 0.0964 0.33235 0.0
H302 H 0.63717 0.12165 0.31454 0.0
H303 H 0.67613 0.12651 0.29475 0.0
H304 H 0.70915 0.20471 0.45418 0.0
H305 H 0.66409 0.1789 0.44324 0.0
H306 H 0.69271 0.15526 0.45331 0.0
H307 H 0.56463 0.10115 0.41269 0.0
H308 H 0.63206 0.04541 0.44794 0.0
H309 H 0.61592 0.15783 0.34697 0.0
H310 H 0.62425 0.1811 0.3874 0.0
H311 H 0.58083 0.15158 0.37391 0.0
H312 H 0.69759 0.09176 0.38647 0.0
H313 H 0.68555 0.05893 0.42238 0.0
H314 H 0.70676 0.10729 0.43042 0.0
C315 C 0.82308 0.61785 0.35233 0.0
C316 C 0.81737 0.64862 0.36305 0.0
C317 C 0.84873 0.60695 0.36927 0.0
C318 C 0.86894 0.62668 0.39827 0.0
C319 C 0.86379 0.65805 0.40899 0.0
C320 C 0.83833 0.66873 0.39117 0.0
C321 C 0.85363 0.57367 0.35656 0.0
C322 C 0.88397 0.67956 0.44024 0.0
C323 C 0.90645 0.57101 0.46066 0.0
C324 C 0.94073 0.58332 0.45142 0.0
C325 C 0.88335 0.58614 0.44476 0.0
C326 C 0.89436 0.61337 0.41801 0.0
C327 C 0.92918 0.62639 0.40903 0.0
C328 C 0.95209 0.61159 0.42622 0.0
C329 C 0.84701 0.57265 0.45636 0.0
C330 C 0.94197 0.65533 0.38068 0.0
H331 H 0.80681 0.60143 0.33125 0.0
H332 H 0.83469 0.69279 0.39961 0.0
H333 H 0.88113 0.58059 0.35178 0.0
H334 H 0.84656 0.55148 0.37687 0.0
H335 H 0.83768 0.56293 0.33216 0.0
H336 H 0.8834 0.70758 0.43992 0.0
H337 H 0.87228 0.66492 0.46428 0.0
H338 H 0.91124 0.68202 0.44172 0.0
H339 H 0.89772 0.54966 0.48064 0.0
H340 H 0.97858 0.62123 0.41905 0.0
H341 H 0.82847 0.55859 0.43459 0.0
H342 H 0.84076 0.59629 0.46351 0.0
H343 H 0.84319 0.55326 0.4791 0.0
H344 H 0.92732 0.64502 0.35559 0.0
H345 H 0.96989 0.66312 0.37724 0.0
H346 H 0.93742 0.68032 0.38683 0.0
C347 C 0.4285 0.77519 0.37193 0.0
C348 C 0.39237 0.76263 0.36996 0.0
C349 C 0.44868 0.80453 0.39333 0.0
C350 C 0.43234 0.82153 0.41352 0.0
C351 C 0.39594 0.80924 0.41145 0.0
C352 C 0.37642 0.78014 0.38955 0.0
C353 C 0.48749 0.81701 0.39469 0.0
C354 C 0.37758 0.82652 0.43274 0.0
C355 C 0.48497 0.87067 0.49357 0.0
C356 C 0.49744 0.90744 0.48181 0.0
C357 C 0.46286 0.84259 0.47197 0.0
C358 C 0.4534 0.85143 0.43758 0.0
C359 C 0.46509 0.88863 0.4259 0.0
C360 C 0.48677 0.91628 0.44829 0.0
C361 C 0.45041 0.80335 0.48566 0.0
C362 C 0.45581 0.89909 0.3893 0.0
H363 H 0.44105 0.76163 0.3572 0.0
H364 H 0.34856 0.77118 0.38767 0.0
H365 H 0.49922 0.84688 0.38843 0.0
H366 H 0.4974 0.81266 0.42145 0.0
H367 H 0.49622 0.80203 0.37622 0.0
H368 H 0.34911 0.81401 0.42788 0.0
H369 H 0.38409 0.82338 0.46093 0.0
H370 H 0.38633 0.85641 0.42662 0.0
H371 H 0.49293 0.86377 0.51959 0.0
H372 H 0.49653 0.94465 0.43902 0.0
H373 H 0.46116 0.78723 0.47074 0.0
H374 H 0.4219 0.79037 0.48202 0.0
H375 H 0.45813 0.80142 0.51376 0.0
H376 H 0.46694 0.88715 0.37026 0.0
H377 H 0.46548 0.92935 0.38484 0.0
H378 H 0.42742 0.88763 0.38388 0.0
C379 C 0.29657 0.63372 0.65905 0.0
C380 C 0.30966 0.66898 0.67329 0.0
C381 C 0.26522 0.62086 0.63915 0.0
C382 C 0.24699 0.64437 0.63169 0.0
C383 C 0.25976 0.67996 0.64575 0.0
C384 C 0.29071 0.69167 0.66686 0.0
C385 C 0.25216 0.5823 0.62527 0.0
C386 C 0.24138 0.70604 0.63752 0.0
C387 C 0.19133 0.61207 0.5492 0.0
C388 C 0.15989 0.59007 0.56268 0.0
C389 C 0.2191 0.6335 0.57125 0.0
C390 C 0.21555 0.6316 0.60768 0.0
C391 C 0.18302 0.61145 0.62105 0.0
C392 C 0.15531 0.59126 0.59818 0.0
C393 C 0.25305 0.65557 0.55584 0.0
C394 C 0.17836 0.60792 0.65974 0.0
H395 H 0.31125 0.6162 0.66249 0.0
H396 H 0.30023 0.71878 0.6779 0.0
H397 H 0.22489 0.56713 0.63135 0.0
H398 H 0.25311 0.58349 0.59649 0.0
H399 H 0.26763 0.56637 0.63636 0.0
H400 H 0.25345 0.73191 0.65222 0.0
H401 H 0.24183 0.71302 0.6092 0.0
H402 H 0.21392 0.69282 0.6436 0.0
H403 H 0.19462 0.61127 0.52161 0.0
H404 H 0.13095 0.57398 0.60855 0.0
H405 H 0.27087 0.64078 0.56075 0.0
H406 H 0.26536 0.68274 0.56826 0.0
H407 H 0.24981 0.65989 0.52722 0.0
H408 H 0.19007 0.58873 0.67164 0.0
H409 H 0.15068 0.59705 0.6654 0.0
H410 H 0.19159 0.63475 0.67252 0.0
C411 C 0.42834 0.24182 0.64278 0.0
C412 C 0.43047 0.24342 0.67935 0.0
C413 C 0.43995 0.21824 0.62578 0.0
C414 C 0.4543 0.19561 0.6457 0.0
C415 C 0.45664 0.19712 0.68262 0.0
C416 C 0.44478 0.22099 0.69896 0.0
C417 C 0.43751 0.2182 0.58641 0.0
C418 C 0.47179 0.17356 0.70488 0.0
C419 C 0.46165 0.11384 0.60156 0.0
C420 C 0.49624 0.12823 0.59309 0.0
C421 C 0.44761 0.1353 0.61882 0.0
C422 C 0.46862 0.17199 0.62783 0.0
C423 C 0.50348 0.18654 0.61927 0.0
C424 C 0.51677 0.16462 0.60213 0.0
C425 C 0.41022 0.11885 0.6272 0.0
C426 C 0.52686 0.22547 0.62807 0.0
H427 H 0.4178 0.25936 0.6273 0.0
H428 H 0.44614 0.22158 0.72718 0.0
H429 H 0.46378 0.23093 0.57683 0.0
H430 H 0.42598 0.18968 0.57682 0.0
H431 H 0.4219 0.23378 0.57484 0.0
H432 H 0.47093 0.17711 0.73321 0.0
H433 H 0.45755 0.14416 0.69876 0.0
H434 H 0.49902 0.1806 0.69895 0.0
H435 H 0.44552 0.08591 0.59462 0.0
H436 H 0.54354 0.17625 0.59576 0.0
H437 H 0.3961 0.13512 0.61383 0.0
H438 H 0.40811 0.12005 0.65563 0.0
H439 H 0.39744 0.08982 0.61909 0.0
H440 H 0.51646 0.24508 0.61469 0.0
H441 H 0.55357 0.23243 0.62028 0.0
H442 H 0.52786 0.22953 0.65652 0.0
C443 C 0.87138 0.3674 0.66357 0.0
C444 C 0.8744 0.35132 0.69638 0.0
C445 C 0.90006 0.39442 0.64913 0.0
C446 C 0.93263 0.40549 0.66789 0.0
C447 C 0.93577 0.38985 0.70132 0.0
C448 C 0.90653 0.36297 0.71525 0.0
C449 C 0.89557 0.41076 0.61355 0.0
C450 C 0.9701 0.40098 0.72199 0.0
C451 C 1.00646 0.44537 0.60878 0.0
C452 C 0.0139 0.48315 0.61068 0.0
C453 C 0.98153 0.41982 0.62905 0.0
C454 C 0.96345 0.43236 0.65158 0.0
C455 C 0.97252 0.47057 0.65543 0.0
C456 C 0.9978 0.49555 0.63504 0.0
C457 C 0.97293 0.37931 0.62453 0.0
C458 C 0.95376 0.48511 0.67901 0.0
H459 H 0.84644 0.35887 0.64919 0.0
H460 H 0.90896 0.35043 0.74055 0.0
H461 H 0.90484 0.44112 0.6149 0.0
H462 H 0.91132 0.40438 0.59496 0.0
H463 H 0.86827 0.40014 0.603 0.0
H464 H 0.96792 0.38737 0.7482 0.0
H465 H 0.98845 0.39373 0.70762 0.0
H466 H 0.98129 0.4312 0.72522 0.0
H467 H 0.01902 0.4356 0.59024 0.0
H468 H 1.00334 0.5247 0.63668 0.0
H469 H 0.94716 0.36692 0.61057 0.0
H470 H 0.9717 0.36499 0.65028 0.0
H471 H 0.99209 0.37422 0.6094 0.0
H472 H 0.92811 0.48177 0.66631 0.0
H473 H 0.96812 0.51474 0.6843 0.0
H474 H 0.94943 0.46956 0.70421 0.0
C475 C 0.74372 0.8083 0.59031 0.0
C476 C 0.75086 0.80161 0.62555 0.0
C477 C 0.71979 0.82445 0.58018 0.0
C478 C 0.70332 0.83493 0.60602 0.0
C479 C 0.70846 0.82547 0.64149 0.0
C480 C 0.73225 0.80878 0.65088 0.0
C481 C 0.7148 0.83317 0.54202 0.0
C482 C 0.6911 0.83578 0.66979 0.0
C483 C 0.68965 0.92415 0.58793 0.0
C484 C 0.65415 0.9119 0.57897 0.0
C485 C 0.70573 0.89927 0.59673 0.0
C486 C 0.68587 0.86105 0.59667 0.0
C487 C 0.6501 0.84836 0.58703 0.0
C488 C 0.63459 0.87398 0.57838 0.0
C489 C 0.74412 0.91399 0.6061 0.0
C490 C 0.6282 0.80784 0.58618 0.0
H491 H 0.75822 0.80265 0.57077 0.0
H492 H 0.738 0.80363 0.67815 0.0
H493 H 0.68929 0.83488 0.53528 0.0
H494 H 0.73505 0.86009 0.53544 0.0
H495 H 0.71743 0.81203 0.52567 0.0
H496 H 0.69377 0.82194 0.69513 0.0
H497 H 0.7029 0.86595 0.67332 0.0
H498 H 0.66329 0.82857 0.66234 0.0
H499 H 0.70504 0.95337 0.5882 0.0
H500 H 0.60712 0.86428 0.57151 0.0
H501 H 0.75719 0.90369 0.5876 0.0
H502 H 0.74937 0.90403 0.63261 0.0
H503 H 0.75573 0.94451 0.60545 0.0
H504 H 0.6022 0.80238 0.57317 0.0
H505 H 0.62503 0.7965 0.61324 0.0
H506 H 0.64097 0.79287 0.57242 0.0
C507 C 0.39281 0.21651 0.42269 0.0
C508 C 0.41268 0.24759 0.40317 0.0
C509 C 0.40738 0.19299 0.43978 0.0
C510 C 0.4423 0.1991 0.43576 0.0
C511 C 0.46272 0.23027 0.41638 0.0
C512 C 0.44793 0.25456 0.40108 0.0
C513 C 0.38497 0.16084 0.46131 0.0
C514 C 0.49982 0.23713 0.41056 0.0
C515 C 0.48634 0.14688 0.49479 0.0
C516 C 0.47919 0.11523 0.47557 0.0
C517 C 0.47418 0.17433 0.4825 0.0
C518 C 0.4563 0.17099 0.44924 0.0
C519 C 0.45034 0.13973 0.42913 0.0
C520 C 0.46115 0.11187 0.4429 0.0
C521 C 0.47974 0.20635 0.50546 0.0
C522 C 0.4325 0.13561 0.39304 0.0
H523 H 0.36542 0.20958 0.42404 0.0
H524 H 0.46407 0.27873 0.38704 0.0
H525 H 0.37951 0.13485 0.44769 0.0
H526 H 0.39852 0.15909 0.4869 0.0
H527 H 0.35999 0.16289 0.46597 0.0
H528 H 0.51245 0.26297 0.39539 0.0
H529 H 0.51476 0.23858 0.43588 0.0
H530 H 0.50101 0.21388 0.39625 0.0
H531 H 0.50067 0.14981 0.51979 0.0
H532 H 0.45617 0.08773 0.42766 0.0
H533 H 0.45474 0.20892 0.5088 0.0
H534 H 0.49658 0.23229 0.49296 0.0
H535 H 0.49176 0.20338 0.53163 0.0
H536 H 0.40531 0.13261 0.39468 0.0
H537 H 0.43269 0.11135 0.37962 0.0
H538 H 0.44522 0.16059 0.37682 0.0
C539 C 0.85456 0.31588 0.36965 0.0
C540 C 0.8306 0.33189 0.3585 0.0
C541 C 0.88427 0.33513 0.39072 0.0
C542 C 0.89087 0.37173 0.39965 0.0
C543 C 0.8679 0.38874 0.38699 0.0
C544 C 0.83776 0.36842 0.36737 0.0
C545 C 0.90778 0.31585 0.4046 0.0
C546 C 0.87451 0.42815 0.39515 0.0
C547 C 0.9419 0.41916 0.48044 0.0
C548 C 0.97293 0.44195 0.4667 0.0
C549 C 0.91593 0.39366 0.45943 0.0
C550 C 0.92077 0.39216 0.42359 0.0
C551 C 0.95272 0.41406 0.41001 0.0
C552 C 0.97872 0.43834 0.43197 0.0
C553 C 0.88263 0.36985 0.47513 0.0
C554 C 0.95848 0.41414 0.37175 0.0
H555 H 0.84977 0.28797 0.36261 0.0
H556 H 0.81929 0.38108 0.36017 0.0
H557 H 0.93479 0.33227 0.3985 0.0
H558 H 0.90731 0.31313 0.43343 0.0
H559 H 0.90004 0.28801 0.39375 0.0
H560 H 0.85622 0.43849 0.38009 0.0
H561 H 0.87196 0.43038 0.42333 0.0
H562 H 0.90118 0.44632 0.38928 0.0
H563 H 0.9377 0.42182 0.50747 0.0
H564 H 1.00273 0.45624 0.42137 0.0
H565 H 0.87427 0.34107 0.46656 0.0
H566 H 0.86202 0.38001 0.46606 0.0
H567 H 0.88508 0.37003 0.5041 0.0
H568 H 0.94989 0.3857 0.36229 0.0
H569 H 0.98599 0.42903 0.36627 0.0
H570 H 0.94288 0.42776 0.35654 0.0
C571 C 0.65602 0.76419 0.38888 0.0
C572 C 0.68705 0.76038 0.40018 0.0
C573 C 0.64865 0.7941 0.39906 0.0
C574 C 0.67225 0.82005 0.42234 0.0
C575 C 0.70495 0.81797 0.43133 0.0
C576 C 0.71198 0.78818 0.41996 0.0
C577 C 0.61472 0.79678 0.38636 0.0
C578 C 0.73253 0.84635 0.45351 0.0
C579 C 0.65466 0.90429 0.44692 0.0
C580 C 0.63271 0.88975 0.47417 0.0
C581 C 0.66802 0.88218 0.42974 0.0
C582 C 0.66031 0.84517 0.44101 0.0
C583 C 0.63961 0.83115 0.46979 0.0
C584 C 0.62554 0.8533 0.48545 0.0
C585 C 0.68968 0.89813 0.39909 0.0
C586 C 0.6318 0.79243 0.48382 0.0
H587 H 0.63681 0.7428 0.37334 0.0
H588 H 0.73615 0.78542 0.42844 0.0
H589 H 0.59644 0.78732 0.40734 0.0
H590 H 0.61833 0.82571 0.37949 0.0
H591 H 0.60283 0.77958 0.36322 0.0
H592 H 0.75093 0.86637 0.43611 0.0
H593 H 0.72213 0.86178 0.46966 0.0
H594 H 0.74747 0.83344 0.47077 0.0
H595 H 0.66017 0.93243 0.43805 0.0
H596 H 0.60879 0.842 0.50667 0.0
H597 H 0.67974 0.87967 0.37651 0.0
H598 H 0.71654 0.90043 0.40603 0.0
H599 H 0.6901 0.92583 0.39106 0.0
H600 H 0.61424 0.77246 0.46482 0.0
H601 H 0.6193 0.78743 0.50896 0.0
H602 H 0.65584 0.78681 0.48763 0.0
C603 C 0.28262 0.63457 0.3833 0.0
C604 C 0.28534 0.65053 0.34971 0.0
C605 C 0.25032 0.61341 0.39576 0.0
C606 C 0.22002 0.60851 0.37421 0.0
C607 C 0.22265 0.62396 0.34001 0.0
C608 C 0.25534 0.64466 0.32808 0.0
C609 C 0.24859 0.59678 0.43218 0.0
C610 C 0.19091 0.61943 0.31639 0.0
C611 C 0.13954 0.52935 0.40032 0.0
C612 C 0.12485 0.54686 0.42147 0.0
C613 C 0.16992 0.54924 0.3838 0.0
C614 C 0.18564 0.58771 0.38787 0.0
C615 C 0.16971 0.60591 0.40717 0.0
C616 C 0.1396 0.58523 0.42394 0.0
C617 C 0.18642 0.52868 0.36404 0.0
C618 C 0.18553 0.64699 0.41176 0.0
H619 H 0.30584 0.63891 0.39994 0.0
H620 H 0.25739 0.65736 0.30225 0.0
H621 H 0.23465 0.60835 0.44845 0.0
H622 H 0.23398 0.56664 0.43139 0.0
H623 H 0.27459 0.602 0.44506 0.0
H624 H 0.1974 0.63231 0.29018 0.0
H625 H 0.17485 0.58983 0.31322 0.0
H626 H 0.17498 0.63207 0.32836 0.0
H627 H 0.1286 0.49967 0.39841 0.0
H628 H 0.12846 0.59896 0.44021 0.0
H629 H 0.21031 0.52907 0.37891 0.0
H630 H 0.19389 0.54216 0.3383 0.0
H631 H 0.16906 0.49957 0.35994 0.0
H632 H 0.2099 0.6542 0.42838 0.0
H633 H 0.16808 0.65737 0.42418 0.0
H634 H 0.19202 0.66139 0.3862 0.0
C635 C 0.45519 0.77361 0.67779 0.0
C636 C 0.42595 0.7678 0.69604 0.0
C637 C 0.47599 0.80904 0.66655 0.0
C638 C 0.46762 0.83938 0.67435 0.0
C639 C 0.4392 0.83384 0.69449 0.0
C640 C 0.41839 0.79797 0.70473 0.0
C641 C 0.50573 0.81368 0.64462 0.0
C642 C 0.42996 0.86556 0.70398 0.0
C643 C 0.53878 0.93146 0.65609 0.0
C644 C 0.52836 0.93957 0.62218 0.0
C645 C 0.51806 0.90015 0.67459 0.0
C646 C 0.48667 0.87608 0.65842 0.0
C647 C 0.47508 0.88536 0.62508 0.0
C648 C 0.49583 0.91724 0.60761 0.0
C649 C 0.53078 0.89169 0.71051 0.0
C650 C 0.44205 0.86016 0.6066 0.0
H651 H 0.46077 0.7502 0.67075 0.0
H652 H 0.39578 0.79336 0.71897 0.0
H653 H 0.50069 0.82355 0.61799 0.0
H654 H 0.52987 0.83467 0.6559 0.0
H655 H 0.50985 0.78761 0.64242 0.0
H656 H 0.41014 0.85734 0.72355 0.0
H657 H 0.45321 0.88836 0.71451 0.0
H658 H 0.41977 0.87634 0.68028 0.0
H659 H 0.56378 0.9487 0.66761 0.0
H660 H 0.48752 0.92311 0.58138 0.0
H661 H 0.5398 0.86871 0.70912 0.0
H662 H 0.50959 0.88283 0.72854 0.0
H663 H 0.55248 0.91577 0.7216 0.0
H664 H 0.44475 0.83415 0.60044 0.0
H665 H 0.43548 0.87263 0.58189 0.0
H666 H 0.42025 0.85299 0.62367 0.0
C667 C 0.2506 0.3451 0.67466 0.0
C668 C 0.27838 0.3413 0.65961 0.0
C669 C 0.23542 0.36924 0.66012 0.0
C670 C 0.24777 0.38962 0.62925 0.0
C671 C 0.27718 0.38753 0.61511 0.0
C672 C 0.29235 0.36362 0.63071 0.0
C673 C 0.20515 0.37175 0.67702 0.0
C674 C 0.29262 0.40981 0.58324 0.0
C675 C 0.17801 0.40982 0.57298 0.0
C676 C 0.18636 0.44713 0.57893 0.0
C677 C 0.19885 0.39142 0.58778 0.0
C678 C 0.22784 0.41027 0.61055 0.0
C679 C 0.2365 0.44808 0.61649 0.0
C680 C 0.21599 0.46623 0.6001 0.0
C681 C 0.18999 0.3518 0.57885 0.0
C682 C 0.26716 0.4692 0.64042 0.0
H683 H 0.24003 0.32822 0.69732 0.0
H684 H 0.31396 0.36093 0.61911 0.0
H685 H 0.20886 0.40096 0.68002 0.0
H686 H 0.18125 0.35886 0.66012 0.0
H687 H 0.20139 0.35773 0.70304 0.0
H688 H 0.30401 0.39474 0.5677 0.0
H689 H 0.27358 0.41722 0.5662 0.0
H690 H 0.31376 0.43564 0.59175 0.0
H691 H 0.15543 0.39511 0.55624 0.0
H692 H 0.22263 0.49517 0.60461 0.0
H693 H 0.1834 0.33408 0.60267 0.0
H694 H 0.2127 0.34869 0.56859 0.0
H695 H 0.16793 0.34179 0.55908 0.0
H696 H 0.26518 0.45522 0.66642 0.0
H697 H 0.26939 0.49792 0.64378 0.0
H698 H 0.29114 0.46985 0.6297 0.0
C699 C 0.74954 0.20128 0.69179 0.0
C700 C 0.76844 0.23651 0.67833 0.0
C701 C 0.72432 0.17475 0.67091 0.0
C702 C 0.71869 0.18305 0.63529 0.0
C703 C 0.73907 0.21761 0.62094 0.0
C704 C 0.7632 0.24413 0.64271 0.0
C705 C 0.70256 0.13849 0.6874 0.0
C706 C 0.73447 0.22715 0.58283 0.0
C707 C 0.66443 0.10304 0.57762 0.0
C708 C 0.63266 0.10723 0.57507 0.0
C709 C 0.69311 0.12816 0.59633 0.0
C710 C 0.68932 0.15702 0.61398 0.0
C711 C 0.65706 0.16092 0.61175 0.0
C712 C 0.62935 0.13638 0.59177 0.0
C713 C 0.72744 0.12401 0.59701 0.0
C714 C 0.65154 0.19055 0.63107 0.0
H715 H 0.75392 0.19451 0.71892 0.0
H716 H 0.77711 0.27124 0.63186 0.0
H717 H 0.67526 0.13597 0.68624 0.0
H718 H 0.70337 0.1153 0.67279 0.0
H719 H 0.71114 0.13569 0.71509 0.0
H720 H 0.75549 0.25288 0.57472 0.0
H721 H 0.73368 0.2045 0.56629 0.0
H722 H 0.70957 0.23078 0.57774 0.0
H723 H 0.66693 0.08052 0.5645 0.0
H724 H 0.60471 0.13934 0.5902 0.0
H725 H 0.73588 0.11894 0.62415 0.0
H726 H 0.74733 0.14986 0.58748 0.0
H727 H 0.72641 0.10106 0.5807 0.0
H728 H 0.65817 0.1882 0.65936 0.0
H729 H 0.62449 0.18895 0.62756 0.0
H730 H 0.66881 0.21806 0.62183 0.0
C731 C 0.88155 0.66793 0.64259 0.0
C732 C 0.84633 0.64653 0.64386 0.0
C733 C 0.90337 0.6556 0.6257 0.0
C734 C 0.8895 0.62123 0.60914 0.0
C735 C 0.85385 0.59948 0.61023 0.0
C736 C 0.83266 0.61225 0.62799 0.0
C737 C 0.94133 0.67934 0.62576 0.0
C738 C 0.8381 0.56303 0.5923 0.0
C739 C 0.94765 0.61187 0.54265 0.0
C740 C 0.96438 0.59177 0.56194 0.0
C741 C 0.92135 0.61953 0.55684 0.0
C742 C 0.91287 0.60806 0.59161 0.0
C743 C 0.92952 0.58714 0.61089 0.0
C744 C 0.9548 0.57882 0.59556 0.0
C745 C 0.9034 0.64074 0.535 0.0
C746 C 0.92188 0.57512 0.64825 0.0
H747 H 0.89207 0.69436 0.65509 0.0
H748 H 0.80533 0.59592 0.6288 0.0
H749 H 0.95683 0.6638 0.63759 0.0
H750 H 0.94891 0.68688 0.5986 0.0
H751 H 0.94806 0.705 0.64045 0.0
H752 H 0.80985 0.54978 0.59502 0.0
H753 H 0.84288 0.56698 0.56414 0.0
H754 H 0.85043 0.54408 0.60333 0.0
H755 H 0.95537 0.6219 0.51666 0.0
H756 H 0.96803 0.56327 0.61031 0.0
H757 H 0.90972 0.66806 0.54639 0.0
H758 H 0.87502 0.62603 0.53489 0.0
H759 H 0.91104 0.64485 0.50763 0.0
H760 H 0.92963 0.59966 0.66473 0.0
H761 H 0.93576 0.55742 0.65892 0.0
H762 H 0.89381 0.55982 0.65033 0.0
C763 C 0.41634 0.31097 0.27561 0.0
C764 C 0.40299 0.32794 0.29871 0.0
C765 C 0.42779 0.32755 0.24333 0.0
C766 C 0.42529 0.36167 0.23344 0.0
C767 C 0.41133 0.37871 0.25626 0.0
C768 C 0.40063 0.36183 0.28868 0.0
C769 C 0.44295 0.30868 0.21995 0.0
C770 C 0.408 0.41496 0.24655 0.0
C771 C 0.487 0.41955 0.16701 0.0
C772 C 0.46661 0.41041 0.13555 0.0
C773 C 0.47363 0.40454 0.19904 0.0
C774 C 0.43879 0.38015 0.19987 0.0
C775 C 0.41759 0.37204 0.16844 0.0
C776 C 0.43182 0.38708 0.13658 0.0
C777 C 0.49726 0.41371 0.23183 0.0
C778 C 0.38012 0.34676 0.16839 0.0
H779 H 0.41757 0.28444 0.28256 0.0
H780 H 0.39073 0.37544 0.30638 0.0
H781 H 0.42807 0.3033 0.19434 0.0
H782 H 0.46986 0.32687 0.21503 0.0
H783 H 0.44302 0.28221 0.23142 0.0
H784 H 0.39478 0.42358 0.26627 0.0
H785 H 0.43393 0.43671 0.24383 0.0
H786 H 0.39335 0.41303 0.22094 0.0
H787 H 0.51391 0.43763 0.16662 0.0
H788 H 0.41584 0.38009 0.11246 0.0
H789 H 0.50016 0.38842 0.24306 0.0
H790 H 0.48596 0.42442 0.25171 0.0
H791 H 0.52328 0.43443 0.22693 0.0
H792 H 0.3781 0.31859 0.17654 0.0
H793 H 0.36644 0.34553 0.14227 0.0
H794 H 0.36679 0.35601 0.18748 0.0
C795 C 0.48575 0.60153 0.80832 0.0
C796 C 0.45945 0.61532 0.80782 0.0
C797 C 0.50458 0.59912 0.83935 0.0
C798 C 0.49746 0.61157 0.87061 0.0
C799 C 0.47249 0.62771 0.86998 0.0
C800 C 0.45355 0.62918 0.83854 0.0
C801 C 0.53095 0.58157 0.8389 0.0
C802 C 0.46463 0.64176 0.90272 0.0
C803 C 0.51923 0.55936 0.94743 0.0
C804 C 0.5538 0.58177 0.95567 0.0
C805 C 0.49941 0.57016 0.92154 0.0
C806 C 0.51432 0.60451 0.90404 0.0
C807 C 0.54778 0.629 0.91506 0.0
C808 C 0.56729 0.61721 0.94063 0.0
C809 C 0.4639 0.54306 0.91043 0.0
C810 C 0.56417 0.66626 0.89767 0.0
H811 H 0.49101 0.59163 0.78448 0.0
H812 H 0.43317 0.63975 0.83839 0.0
H813 H 0.55634 0.60038 0.85005 0.0
H814 H 0.52296 0.55606 0.85532 0.0
H815 H 0.53417 0.57446 0.81217 0.0
H816 H 0.44874 0.65865 0.89692 0.0
H817 H 0.45032 0.61816 0.91978 0.0
H818 H 0.48882 0.65848 0.91759 0.0
H819 H 0.50842 0.532 0.95901 0.0
H820 H 0.59382 0.63494 0.94726 0.0
H821 H 0.46494 0.53114 0.8852 0.0
H822 H 0.44525 0.5569 0.90646 0.0
H823 H 0.45412 0.5202 0.92984 0.0
H824 H 0.57303 0.66295 0.8721 0.0
H825 H 0.58678 0.68461 0.91367 0.0
H826 H 0.54527 0.67973 0.89272 0.0
C827 C 0.4179 0.33594 0.80118 0.0
C828 C 0.4373 0.3315 0.77477 0.0
C829 C 0.43384 0.35666 0.83092 0.0
C830 C 0.47027 0.37273 0.83518 0.0
C831 C 0.49011 0.36756 0.80925 0.0
C832 C 0.47347 0.34741 0.77932 0.0
C833 C 0.41162 0.36185 0.85757 0.0
C834 C 0.52904 0.38374 0.81292 0.0
C835 C 0.51586 0.45666 0.8915 0.0
C836 C 0.52524 0.44112 0.92228 0.0
C837 C 0.49678 0.43462 0.86361 0.0
C838 C 0.48764 0.39603 0.86606 0.0
C839 C 0.49624 0.38009 0.89755 0.0
C840 C 0.51459 0.40281 0.92546 0.0
C841 C 0.48741 0.45286 0.83109 0.0
C842 C 0.48761 0.33923 0.90111 0.0
H843 H 0.39002 0.3231 0.79877 0.0
H844 H 0.48895 0.34473 0.75919 0.0
H845 H 0.41772 0.35134 0.88351 0.0
H846 H 0.41722 0.39157 0.86014 0.0
H847 H 0.38364 0.34756 0.85052 0.0
H848 H 0.54077 0.37524 0.79175 0.0
H849 H 0.53834 0.41418 0.81248 0.0
H850 H 0.53835 0.37514 0.83837 0.0
H851 H 0.52413 0.48632 0.88897 0.0
H852 H 0.52234 0.39078 0.94899 0.0
H853 H 0.45949 0.4393 0.82353 0.0
H854 H 0.50174 0.44989 0.80917 0.0
H855 H 0.49354 0.48261 0.83457 0.0
H856 H 0.45976 0.3239 0.89447 0.0
H857 H 0.49416 0.33083 0.92787 0.0
H858 H 0.50209 0.33099 0.88246 0.0
C859 C 0.72907 0.33113 0.8689 0.0
C860 C 0.75834 0.34508 0.84942 0.0
C861 C 0.71309 0.35405 0.87934 0.0
C862 C 0.72674 0.39193 0.87015 0.0
C863 C 0.75603 0.40619 0.8501 0.0
C864 C 0.77147 0.38254 0.83989 0.0
C865 C 0.6817 0.33771 0.90044 0.0
C866 C 0.77129 0.44645 0.83989 0.0
C867 C 0.66456 0.44015 0.87655 0.0
C868 C 0.67358 0.45434 0.91021 0.0
C869 C 0.68275 0.42128 0.86239 0.0
C870 C 0.71057 0.41647 0.88241 0.0
C871 C 0.7209 0.43239 0.91565 0.0
C872 C 0.70229 0.45117 0.92915 0.0
C873 C 0.6711 0.40493 0.82673 0.0
C874 C 0.75054 0.42803 0.93772 0.0
H875 H 0.71844 0.30208 0.87576 0.0
H876 H 0.79421 0.39348 0.82499 0.0
H877 H 0.68695 0.351 0.92616 0.0
H878 H 0.65965 0.343 0.8869 0.0
H879 H 0.67397 0.30759 0.90487 0.0
H880 H 0.79327 0.45292 0.82309 0.0
H881 H 0.75131 0.45493 0.82578 0.0
H882 H 0.78043 0.46321 0.86365 0.0
H883 H 0.64262 0.44282 0.86158 0.0
H884 H 0.70958 0.46227 0.95509 0.0
H885 H 0.6596 0.37452 0.82937 0.0
H886 H 0.69339 0.41207 0.81032 0.0
H887 H 0.65161 0.41451 0.81304 0.0
H888 H 0.74356 0.39876 0.9459 0.0
H889 H 0.75735 0.4449 0.96148 0.0
H890 H 0.77368 0.43593 0.9224 0.0
C891 C 0.74012 0.64506 0.74923 0.0
C892 C 0.77055 0.64153 0.74049 0.0
C893 C 0.7255 0.63098 0.78103 0.0
C894 C 0.74115 0.61209 0.80445 0.0
C895 C 0.77118 0.60732 0.79541 0.0
C896 C 0.78574 0.62246 0.7638 0.0
C897 C 0.69352 0.63682 0.78977 0.0
C898 C 0.78815 0.58657 0.81931 0.0
C899 C 0.72084 0.60685 0.89973 0.0
C900 C 0.69304 0.57297 0.90142 0.0
C901 C 0.73718 0.61969 0.86847 0.0
C902 C 0.7261 0.59763 0.83851 0.0
C903 C 0.69928 0.56258 0.84063 0.0
C904 C 0.68265 0.55104 0.87179 0.0
C905 C 0.7653 0.65752 0.8671 0.0
C906 C 0.68736 0.53763 0.8097 0.0
H907 H 0.72771 0.65904 0.73125 0.0
H908 H 0.80954 0.62001 0.7578 0.0
H909 H 0.67216 0.60991 0.79355 0.0
H910 H 0.69853 0.65165 0.81464 0.0
H911 H 0.68493 0.65279 0.76908 0.0
H912 H 0.81019 0.58344 0.80758 0.0
H913 H 0.79765 0.60119 0.84422 0.0
H914 H 0.76909 0.55884 0.82569 0.0
H915 H 0.72884 0.62412 0.92238 0.0
H916 H 0.66108 0.525 0.87262 0.0
H917 H 0.75691 0.6754 0.84841 0.0
H918 H 0.78895 0.65601 0.85753 0.0
H919 H 0.77186 0.67065 0.89296 0.0
H920 H 0.67407 0.54945 0.78937 0.0
H921 H 0.66931 0.50959 0.8169 0.0
H922 H 0.70976 0.53535 0.798 0.0
C923 C 0.7364 0.61097 0.24711 0.0
C924 C 0.73393 0.64296 0.25928 0.0
C925 C 0.7194 0.59527 0.21545 0.0
C926 C 0.69869 0.61134 0.19554 0.0
C927 C 0.69747 0.64461 0.20663 0.0
C928 C 0.71531 0.66015 0.23808 0.0
C929 C 0.72179 0.56001 0.20454 0.0
C930 C 0.6754 0.6625 0.18653 0.0
C931 C 0.65961 0.5746 0.10495 0.0
C932 C 0.62745 0.54825 0.11318 0.0
C933 C 0.68329 0.59548 0.13135 0.0
C934 C 0.67426 0.59038 0.16659 0.0
C935 C 0.6416 0.56428 0.17476 0.0
C936 C 0.61898 0.54341 0.14821 0.0
C937 C 0.71814 0.62249 0.1217 0.0
C938 C 0.63044 0.55813 0.21174 0.0
H939 H 0.75018 0.5969 0.26314 0.0
H940 H 0.71372 0.68526 0.24659 0.0
H941 H 0.69723 0.53667 0.20916 0.0
H942 H 0.72578 0.56109 0.17628 0.0
H943 H 0.7431 0.55434 0.21937 0.0
H944 H 0.68041 0.69038 0.19605 0.0
H945 H 0.67993 0.66464 0.15836 0.0
H946 H 0.64777 0.64522 0.18923 0.0
H947 H 0.6665 0.57841 0.07806 0.0
H948 H 0.59429 0.52321 0.15511 0.0
H949 H 0.73869 0.61449 0.13517 0.0
H950 H 0.72226 0.65033 0.13057 0.0
H951 H 0.72103 0.62388 0.09315 0.0
H952 H 0.64768 0.54766 0.2284 0.0
H953 H 0.60348 0.53816 0.21344 0.0
H954 H 0.63251 0.58449 0.22271 0.0
C955 C 0.39147 0.60479 0.21401 0.0
C956 C 0.40637 0.64208 0.20412 0.0
C957 C 0.40433 0.57915 0.20297 0.0
C958 C 0.4327 0.59113 0.18159 0.0
C959 C 0.44836 0.62888 0.17238 0.0
C960 C 0.43508 0.65381 0.18381 0.0
C961 C 0.38711 0.53916 0.21348 0.0
C962 C 0.47887 0.64294 0.1499 0.0
C963 C 0.49001 0.53845 0.16904 0.0
C964 C 0.47918 0.52568 0.13502 0.0
C965 C 0.4736 0.55776 0.18558 0.0
C966 C 0.44573 0.5645 0.16768 0.0
C967 C 0.43318 0.54945 0.13434 0.0
C968 C 0.45003 0.53019 0.11843 0.0
C969 C 0.48758 0.57299 0.22127 0.0
C970 C 0.40338 0.55579 0.11446 0.0
H971 H 0.3692 0.59551 0.22959 0.0
H972 H 0.44721 0.68268 0.17671 0.0
H973 H 0.37492 0.52273 0.19 0.0
H974 H 0.40651 0.52854 0.22547 0.0
H975 H 0.36699 0.53468 0.23221 0.0
H976 H 0.48854 0.67324 0.14574 0.0
H977 H 0.50025 0.63553 0.16213 0.0
H978 H 0.47152 0.62981 0.12409 0.0
H979 H 0.51228 0.53477 0.18226 0.0
H980 H 0.44129 0.52018 0.09227 0.0
H981 H 0.46629 0.56769 0.23867 0.0
H982 H 0.50131 0.60323 0.21898 0.0
H983 H 0.50588 0.561 0.23367 0.0
H984 H 0.38153 0.54953 0.13132 0.0
H985 H 0.39416 0.53875 0.09084 0.0
H986 H 0.41155 0.58516 0.10623 0.0
C987 C 0.68751 0.40327 0.20657 0.0
C988 C 0.69047 0.36949 0.21522 0.0
C989 C 0.67299 0.40928 0.17402 0.0
C990 C 0.66218 0.38119 0.14909 0.0
C991 C 0.66903 0.34887 0.15608 0.0
C992 C 0.68269 0.34311 0.18935 0.0
C993 C 0.6664 0.44438 0.16761 0.0
C994 C 0.65957 0.3192 0.12945 0.0
C995 C 0.58108 0.37982 0.09911 0.0
C996 C 0.5947 0.40424 0.0714 0.0
C997 C 0.60271 0.36968 0.12334 0.0
C998 C 0.63864 0.38337 0.119 0.0
C999 C 0.65186 0.40433 0.08872 0.0
C1000 C 0.62977 0.41517 0.06552 0.0
C1001 C 0.58751 0.34759 0.15547 0.0
C1002 C 0.68965 0.4178 0.08215 0.0
H1003 H 0.69474 0.42432 0.22604 0.0
H1004 H 0.68521 0.31704 0.19564 0.0
H1005 H 0.67685 0.45786 0.14273 0.0
H1006 H 0.63819 0.43791 0.16541 0.0
H1007 H 0.67818 0.46426 0.1889 0.0
H1008 H 0.6743 0.30108 0.13505 0.0
H1009 H 0.6317 0.30193 0.12995 0.0
H1010 H 0.66442 0.33126 0.10275 0.0
H1011 H 0.55399 0.37132 0.10378 0.0
H1012 H 0.64027 0.43369 0.04378 0.0
H1013 H 0.59695 0.36518 0.17869 0.0
H1014 H 0.59584 0.32406 0.15984 0.0
H1015 H 0.55886 0.33686 0.1536 0.0
H1016 H 0.70368 0.44397 0.09585 0.0
H1017 H 0.69375 0.42314 0.05388 0.0
H1018 H 0.7011 0.39767 0.09205 0.0
loop_
_geom_bond_atom_site_label_1
_geom_bond_atom_site_label_2
_geom_bond_distance
_geom_bond_site_symmetry_2
_ccdc_geom_bond_type
H0 C1 0.949 . S
C1 H0 0.949 . S
C1 C2 1.395 . S
C1 C3 1.391 . S
C2 C1 1.395 . S
C2 C5 1.390 . S
C3 C1 1.391 . S
C3 C7 1.387 . S
C3 C8 1.491 . S
H4 C5 0.950 . S
C5 C2 1.390 . S
C5 H4 0.950 . S
C5 C6 1.378 . S
C6 C5 1.378 . S
C6 C7 1.409 . S
C7 C3 1.387 . S
C7 C6 1.409 . S
C7 H9 0.951 . S
C8 C3 1.491 . S
C8 C10 1.382 . S
C8 C12 1.404 . S
H9 C7 0.951 . S
C10 C8 1.382 . S
C10 C11 1.390 . S
C10 H15 0.949 . S
C11 C10 1.390 . S
C11 C16 1.399 . S
C12 C8 1.404 . S
C12 H13 0.950 . S
C12 C14 1.375 . S
H13 C12 0.950 . S
C14 C12 1.375 . S
C14 C16 1.382 . S
C14 H18 0.950 . S
H15 C10 0.949 . S
C16 C11 1.399 . S
C16 C14 1.382 . S
C16 H17 0.952 . S
H17 C16 0.952 . S
H18 C14 0.950 . S
H19 C20 0.949 . S
C20 H19 0.949 . S
C20 C21 1.395 . S
C20 C22 1.391 . S
C21 C20 1.395 . S
C21 C24 1.390 . S
C22 C20 1.391 . S
C22 C26 1.387 . S
C22 C27 1.491 . S
H23 C24 0.950 . S
C24 C21 1.390 . S
C24 H23 0.950 . S
C24 C25 1.378 . S
C25 C24 1.378 . S
C25 C26 1.409 . S
C26 C22 1.387 . S
C26 C25 1.409 . S
C26 H28 0.951 . S
C27 C22 1.491 . S
C27 C29 1.382 . S
C27 C31 1.404 . S
H28 C26 0.951 . S
C29 C27 1.382 . S
C29 C30 1.390 . S
C29 H34 0.949 . S
C30 C29 1.390 . S
C30 C35 1.399 . S
C31 C27 1.404 . S
C31 H32 0.950 . S
C31 C33 1.375 . S
H32 C31 0.950 . S
C33 C31 1.375 . S
C33 C35 1.382 . S
C33 H37 0.950 . S
H34 C29 0.949 . S
C35 C30 1.399 . S
C35 C33 1.382 . S
C35 H36 0.952 . S
H36 C35 0.952 . S
H37 C33 0.950 . S
H38 C39 0.949 . S
C39 H38 0.949 . S
C39 C40 1.395 . S
C39 C41 1.391 . S
C40 C39 1.395 . S
C40 C43 1.390 . S
C41 C39 1.391 . S
C41 C45 1.387 . S
C41 C46 1.491 . S
H42 C43 0.950 . S
C43 C40 1.390 . S
C43 H42 0.950 . S
C43 C44 1.378 . S
C44 C43 1.378 . S
C44 C45 1.409 . S
C45 C41 1.387 . S
C45 C44 1.409 . S
C45 H47 0.951 . S
C46 C41 1.491 . S
C46 C48 1.382 . S
C46 C50 1.404 . S
H47 C45 0.951 . S
C48 C46 1.382 . S
C48 C49 1.390 . S
C48 H53 0.949 . S
C49 C48 1.390 . S
C49 C54 1.399 . S
C50 C46 1.404 . S
C50 H51 0.950 . S
C50 C52 1.375 . S
H51 C50 0.950 . S
C52 C50 1.375 . S
C52 C54 1.382 . S
C52 H56 0.950 . S
H53 C48 0.949 . S
C54 C49 1.399 . S
C54 C52 1.382 . S
C54 H55 0.952 . S
H55 C54 0.952 . S
H56 C52 0.950 . S
H57 C58 0.949 . S
C58 H57 0.949 . S
C58 C59 1.395 . S
C58 C60 1.391 . S
C59 C58 1.395 . S
C59 C62 1.390 . S
C60 C58 1.391 . S
C60 C64 1.387 . S
C60 C65 1.491 . S
H61 C62 0.950 . S
C62 C59 1.390 . S
C62 H61 0.950 . S
C62 C63 1.378 . S
C63 C62 1.378 . S
C63 C64 1.409 . S
C64 C60 1.387 . S
C64 C63 1.409 . S
C64 H66 0.951 . S
C65 C60 1.491 . S
C65 C67 1.382 . S
C65 C69 1.404 . S
H66 C64 0.951 . S
C67 C65 1.382 . S
C67 C68 1.390 . S
C67 H72 0.949 . S
C68 C67 1.390 . S
C68 C73 1.399 . S
C69 C65 1.404 . S
C69 H70 0.950 . S
C69 C71 1.375 . S
H70 C69 0.950 . S
C71 C69 1.375 . S
C71 C73 1.382 . S
C71 H75 0.950 . S
H72 C67 0.949 . S
C73 C68 1.399 . S
C73 C71 1.382 . S
C73 H74 0.952 . S
H74 C73 0.952 . S
H75 C71 0.950 . S
H76 C77 0.949 . S
C77 H76 0.949 . S
C77 C78 1.395 . S
C77 C79 1.391 . S
C78 C77 1.395 . S
C78 C81 1.390 . S
C79 C77 1.391 . S
C79 C83 1.387 . S
C79 C84 1.491 . S
H80 C81 0.950 . S
C81 C78 1.390 . S
C81 H80 0.950 . S
C81 C82 1.378 . S
C82 C81 1.378 . S
C82 C83 1.409 . S
C83 C79 1.387 . S
C83 C82 1.409 . S
C83 H85 0.951 . S
C84 C79 1.491 . S
C84 C86 1.382 . S
C84 C88 1.404 . S
H85 C83 0.951 . S
C86 C84 1.382 . S
C86 C87 1.390 . S
C86 H91 0.949 . S
C87 C86 1.390 . S
C87 C92 1.399 . S
C88 C84 1.404 . S
C88 H89 0.950 . S
C88 C90 1.375 . S
H89 C88 0.950 . S
C90 C88 1.375 . S
C90 C92 1.382 . S
C90 H94 0.950 . S
H91 C86 0.949 . S
C92 C87 1.399 . S
C92 C90 1.382 . S
C92 H93 0.952 . S
H93 C92 0.952 . S
H94 C90 0.950 . S
H95 C96 0.949 . S
C96 H95 0.949 . S
C96 C97 1.395 . S
C96 C98 1.391 . S
C97 C96 1.395 . S
C97 C100 1.390 . S
C98 C96 1.391 . S
C98 C102 1.387 . S
C98 C103 1.491 . S
H99 C100 0.950 . S
C100 C97 1.390 . S
C100 H99 0.950 . S
C100 C101 1.378 . S
C101 C100 1.378 . S
C101 C102 1.409 . S
C102 C98 1.387 . S
C102 C101 1.409 . S
C102 H104 0.951 . S
C103 C98 1.491 . S
C103 C105 1.382 . S
C103 C107 1.404 . S
H104 C102 0.951 . S
C105 C103 1.382 . S
C105 C106 1.390 . S
C105 H110 0.949 . S
C106 C105 1.390 . S
C106 C111 1.399 . S
C107 C103 1.404 . S
C107 H108 0.950 . S
C107 C109 1.375 . S
H108 C107 0.950 . S
C109 C107 1.375 . S
C109 C111 1.382 . S
C109 H113 0.950 . S
H110 C105 0.949 . S
C111 C106 1.399 . S
C111 C109 1.382 . S
C111 H112 0.952 . S
H112 C111 0.952 . S
H113 C109 0.950 . S
H114 C115 0.949 . S
C115 H114 0.949 . S
C115 C116 1.395 . S
C115 C117 1.391 . S
C116 C115 1.395 . S
C116 C119 1.390 . S
C117 C115 1.391 . S
C117 C121 1.387 . S
C117 C122 1.491 . S
H118 C119 0.950 . S
C119 C116 1.390 . S
C119 H118 0.950 . S
C119 C120 1.378 . S
C120 C119 1.378 . S
C120 C121 1.409 . S
C121 C117 1.387 . S
C121 C120 1.409 . S
C121 H123 0.951 . S
C122 C117 1.491 . S
C122 C124 1.382 . S
C122 C126 1.404 . S
H123 C121 0.951 . S
C124 C122 1.382 . S
C124 C125 1.390 . S
C124 H129 0.949 . S
C125 C124 1.390 . S
C125 C130 1.399 . S
C126 C122 1.404 . S
C126 H127 0.950 . S
C126 C128 1.375 . S
H127 C126 0.950 . S
C128 C126 1.375 . S
C128 C130 1.382 . S
C128 H132 0.950 . S
H129 C124 0.949 . S
C130 C125 1.399 . S
C130 C128 1.382 . S
C130 H131 0.952 . S
H131 C130 0.952 . S
H132 C128 0.950 . S
H133 C134 0.949 . S
C134 H133 0.949 . S
C134 C135 1.395 . S
C134 C136 1.391 . S
C135 C134 1.395 . S
C135 C138 1.390 . S
C136 C134 1.391 . S
C136 C140 1.387 . S
C136 C141 1.491 . S
H137 C138 0.950 . S
C138 C135 1.390 . S
C138 H137 0.950 . S
C138 C139 1.378 . S
C139 C138 1.378 . S
C139 C140 1.409 . S
C140 C136 1.387 . S
C140 C139 1.409 . S
C140 H142 0.951 . S
C141 C136 1.491 . S
C141 C143 1.382 . S
C141 C145 1.404 . S
H142 C140 0.951 . S
C143 C141 1.382 . S
C143 C144 1.390 . S
C143 H148 0.949 . S
C144 C143 1.390 . S
C144 C149 1.399 . S
C145 C141 1.404 . S
C145 H146 0.950 . S
C145 C147 1.375 . S
H146 C145 0.950 . S
C147 C145 1.375 . S
C147 C149 1.382 . S
C147 H151 0.950 . S
H148 C143 0.949 . S
C149 C144 1.399 . S
C149 C147 1.382 . S
C149 H150 0.952 . S
H150 C149 0.952 . S
H151 C147 0.950 . S
Co152 O155 2.042 . S
Co152 O162 2.264 . S
Co152 O181 2.286 . S
Co152 O182 2.069 . S
Co152 O184 2.015 . S
Co153 O155 2.122 . S
Co153 O161 2.073 . S
Co153 O162 2.327 . S
Co153 O163 1.976 . S
Co154 O155 2.087 . S
Co154 O157 2.087 . S
Co154 O164 2.111 . S
Co154 O165 2.143 1_455 S
Co154 O169 2.111 . S
Co154 O183 2.143 . S
O155 Co152 2.042 . S
O155 Co153 2.122 . S
O155 Co154 2.087 . S
O155 H156 0.980 . S
H156 O155 0.980 . S
O157 Co154 2.087 . S
O157 Co158 2.042 1_455 S
O157 Co159 2.122 1_455 S
O157 H160 0.980 . S
Co158 O157 2.042 1_655 S
Co158 O166 2.286 . S
Co158 O167 2.069 . S
Co158 O168 2.015 . S
Co158 O171 2.264 . S
Co159 O157 2.122 1_655 S
Co159 O170 1.976 . S
Co159 O171 2.327 . S
Co159 O172 2.073 1_655 S
H160 O157 0.980 . S
O161 Co153 2.073 . S
O161 C176 1.245 . S
O162 Co152 2.264 . S
O162 Co153 2.327 . S
O162 C176 1.257 . S
O163 Co153 1.976 . S
O163 C175 1.251 . S
O164 Co154 2.111 . S
O164 C175 1.274 . S
O165 Co154 2.143 1_655 S
O165 C178 1.246 . S
O166 Co158 2.286 . S
O166 C177 1.259 . S
O167 Co158 2.069 . S
O167 C177 1.289 . S
O168 Co158 2.015 . S
O168 C178 1.257 . S
O169 Co154 2.111 . S
O169 C179 1.274 1_455 S
O170 Co159 1.976 . S
O170 C179 1.251 . S
O171 Co158 2.264 . S
O171 Co159 2.327 . S
O171 C180 1.257 . S
O172 Co159 2.073 1_455 S
O172 C180 1.245 1_455 S
C173 O181 1.259 . S
C173 O182 1.289 . S
C174 O183 1.246 . S
C174 O184 1.257 . S
C175 O163 1.251 . S
C175 O164 1.274 . S
C176 O161 1.245 . S
C176 O162 1.257 . S
C177 O166 1.259 . S
C177 O167 1.289 . S
C178 O165 1.246 . S
C178 O168 1.257 . S
C179 O169 1.274 1_655 S
C179 O170 1.251 . S
C180 O171 1.257 . S
C180 O172 1.245 1_655 S
O181 Co152 2.286 . S
O181 C173 1.259 . S
O182 Co152 2.069 . S
O182 C173 1.289 . S
O183 Co154 2.143 . S
O183 C174 1.246 . S
O184 Co152 2.015 . S
O184 C174 1.257 . S
Co185 O188 2.042 . S
Co185 O195 2.264 . S
Co185 O214 2.286 . S
Co185 O215 2.069 . S
Co185 O217 2.015 . S
Co186 O188 2.122 . S
Co186 O194 2.073 . S
Co186 O195 2.327 . S
Co186 O196 1.976 . S
Co187 O188 2.087 1_545 S
Co187 O190 2.087 . S
Co187 O197 2.111 1_545 S
Co187 O198 2.143 . S
Co187 O202 2.111 . S
Co187 O216 2.143 1_545 S
O188 Co185 2.042 . S
O188 Co186 2.122 . S
O188 Co187 2.087 1_565 S
O188 H189 0.980 1_565 S
H189 O188 0.980 1_545 S
O190 Co187 2.087 . S
O190 Co191 2.042 . S
O190 Co192 2.122 . S
O190 H193 0.980 . S
Co191 O190 2.042 . S
Co191 O199 2.286 . S
Co191 O200 2.069 . S
Co191 O201 2.015 . S
Co191 O204 2.264 . S
Co192 O190 2.122 . S
Co192 O203 1.976 . S
Co192 O204 2.327 . S
Co192 O205 2.073 . S
H193 O190 0.980 . S
O194 Co186 2.073 . S
O194 C209 1.245 . S
O195 Co185 2.264 . S
O195 Co186 2.327 . S
O195 C209 1.257 . S
O196 Co186 1.976 . S
O196 C208 1.251 . S
O197 Co187 2.111 1_565 S
O197 C208 1.274 . S
O198 Co187 2.143 . S
O198 C211 1.246 . S
O199 Co191 2.286 . S
O199 C210 1.259 . S
O200 Co191 2.069 . S
O200 C210 1.289 . S
O201 Co191 2.015 . S
O201 C211 1.257 . S
O202 Co187 2.111 . S
O202 C212 1.274 . S
O203 Co192 1.976 . S
O203 C212 1.251 . S
O204 Co191 2.264 . S
O204 Co192 2.327 . S
O204 C213 1.257 . S
O205 Co192 2.073 . S
O205 C213 1.245 . S
C206 O214 1.259 . S
C206 O215 1.289 . S
C207 O216 1.246 . S
C207 O217 1.257 . S
C208 O196 1.251 . S
C208 O197 1.274 . S
C209 O194 1.245 . S
C209 O195 1.257 . S
C210 O199 1.259 . S
C210 O200 1.289 . S
C211 O198 1.246 . S
C211 O201 1.257 . S
C212 O202 1.274 . S
C212 O203 1.251 . S
C213 O204 1.257 . S
C213 O205 1.245 . S
O214 Co185 2.286 . S
O214 C206 1.259 . S
O215 Co185 2.069 . S
O215 C206 1.289 . S
O216 Co187 2.143 1_565 S
O216 C207 1.246 . S
O217 Co185 2.015 . S
O217 C207 1.257 . S
Co218 O221 2.042 . S
Co218 O228 2.264 . S
Co218 O247 2.286 . S
Co218 O248 2.069 . S
Co218 O250 2.015 . S
Co219 O221 2.122 . S
Co219 O227 2.073 . S
Co219 O228 2.327 . S
Co219 O229 1.976 . S
Co220 O221 2.087 . S
Co220 O223 2.087 1_554 S
Co220 O230 2.111 . S
Co220 O231 2.143 1_554 S
Co220 O235 2.111 1_554 S
Co220 O249 2.143 . S
O221 Co218 2.042 . S
O221 Co219 2.122 . S
O221 Co220 2.087 . S
O221 H222 0.980 . S
H222 O221 0.980 . S
O223 Co220 2.087 1_556 S
O223 Co224 2.042 . S
O223 Co225 2.122 . S
O223 H226 0.980 . S
Co224 O223 2.042 . S
Co224 O232 2.286 . S
Co224 O233 2.069 . S
Co224 O234 2.015 . S
Co224 O237 2.264 . S
Co225 O223 2.122 . S
Co225 O236 1.976 . S
Co225 O237 2.327 . S
Co225 O238 2.073 . S
H226 O223 0.980 . S
O227 Co219 2.073 . S
O227 C242 1.245 . S
O228 Co218 2.264 . S
O228 Co219 2.327 . S
O228 C242 1.257 . S
O229 Co219 1.976 . S
O229 C241 1.251 . S
O230 Co220 2.111 . S
O230 C241 1.274 . S
O231 Co220 2.143 1_556 S
O231 C244 1.246 . S
O232 Co224 2.286 . S
O232 C243 1.259 . S
O233 Co224 2.069 . S
O233 C243 1.289 . S
O234 Co224 2.015 . S
O234 C244 1.257 . S
O235 Co220 2.111 1_556 S
O235 C245 1.274 . S
O236 Co225 1.976 . S
O236 C245 1.251 . S
O237 Co224 2.264 . S
O237 Co225 2.327 . S
O237 C246 1.257 . S
O238 Co225 2.073 . S
O238 C246 1.245 . S
C239 O247 1.259 . S
C239 O248 1.289 . S
C240 O249 1.246 . S
C240 O250 1.257 . S
C241 O229 1.251 . S
C241 O230 1.274 . S
C242 O227 1.245 . S
C242 O228 1.257 . S
C243 O232 1.259 . S
C243 O233 1.289 . S
C244 O231 1.246 . S
C244 O234 1.257 . S
C245 O235 1.274 . S
C245 O236 1.251 . S
C246 O237 1.257 . S
C246 O238 1.245 . S
O247 Co218 2.286 . S
O247 C239 1.259 . S
O248 Co218 2.069 . S
O248 C239 1.289 . S
O249 Co220 2.143 . S
O249 C240 1.246 . S
O250 Co218 2.015 . S
O250 C240 1.257 . S
C251 C252 1.391 . S
C251 C253 1.394 . S
C251 H267 0.931 . S
C252 C251 1.391 . S
C252 C256 1.376 . S
C253 C251 1.394 . S
C253 C254 1.369 . S
C253 C257 1.531 . S
C254 C253 1.369 . S
C254 C255 1.410 . S
C254 C262 1.503 . S
C255 C254 1.410 . S
C255 C256 1.392 . S
C255 C258 1.511 . S
C256 C252 1.376 . S
C256 C255 1.392 . S
C256 H268 0.929 . S
C257 C253 1.531 . S
C257 H269 0.960 . S
C257 H270 0.962 . S
C257 H271 0.960 . S
C258 C255 1.511 . S
C258 H272 0.961 . S
C258 H273 0.961 . S
C258 H274 0.961 . S
C259 C260 1.370 . S
C259 C261 1.363 . S
C259 H275 0.931 . S
C260 C259 1.370 . S
C260 C264 1.408 . S
C261 C259 1.363 . S
C261 C262 1.370 . S
C261 C265 1.524 . S
C262 C254 1.503 . S
C262 C261 1.370 . S
C262 C263 1.403 . S
C263 C262 1.403 . S
C263 C264 1.404 . S
C263 C266 1.539 . S
C264 C260 1.408 . S
C264 C263 1.404 . S
C264 H276 0.930 . S
C265 C261 1.524 . S
C265 H277 0.956 . S
C265 H278 0.961 . S
C265 H279 0.961 . S
C266 C263 1.539 . S
C266 H280 0.958 . S
C266 H281 0.961 . S
C266 H282 0.960 . S
H267 C251 0.931 . S
H268 C256 0.929 . S
H269 C257 0.960 . S
H270 C257 0.962 . S
H271 C257 0.960 . S
H272 C258 0.961 . S
H273 C258 0.961 . S
H274 C258 0.961 . S
H275 C259 0.931 . S
H276 C264 0.930 . S
H277 C265 0.956 . S
H278 C265 0.961 . S
H279 C265 0.961 . S
H280 C266 0.958 . S
H281 C266 0.961 . S
H282 C266 0.960 . S
C283 C284 1.391 . S
C283 C285 1.394 . S
C283 H299 0.931 . S
C284 C283 1.391 . S
C284 C288 1.376 . S
C285 C283 1.394 . S
C285 C286 1.369 . S
C285 C289 1.531 . S
C286 C285 1.369 . S
C286 C287 1.410 . S
C286 C294 1.503 . S
C287 C286 1.410 . S
C287 C288 1.392 . S
C287 C290 1.511 . S
C288 C284 1.376 . S
C288 C287 1.392 . S
C288 H300 0.929 . S
C289 C285 1.531 . S
C289 H301 0.960 . S
C289 H302 0.962 . S
C289 H303 0.960 . S
C290 C287 1.511 . S
C290 H304 0.961 . S
C290 H305 0.961 . S
C290 H306 0.961 . S
C291 C292 1.370 . S
C291 C293 1.363 . S
C291 H307 0.931 . S
C292 C291 1.370 . S
C292 C296 1.408 . S
C293 C291 1.363 . S
C293 C294 1.370 . S
C293 C297 1.524 . S
C294 C286 1.503 . S
C294 C293 1.370 . S
C294 C295 1.403 . S
C295 C294 1.403 . S
C295 C296 1.404 . S
C295 C298 1.539 . S
C296 C292 1.408 . S
C296 C295 1.404 . S
C296 H308 0.930 . S
C297 C293 1.524 . S
C297 H309 0.956 . S
C297 H310 0.961 . S
C297 H311 0.961 . S
C298 C295 1.539 . S
C298 H312 0.958 . S
C298 H313 0.961 . S
C298 H314 0.960 . S
H299 C283 0.931 . S
H300 C288 0.929 . S
H301 C289 0.960 . S
H302 C289 0.962 . S
H303 C289 0.960 . S
H304 C290 0.961 . S
H305 C290 0.961 . S
H306 C290 0.961 . S
H307 C291 0.931 . S
H308 C296 0.930 . S
H309 C297 0.956 . S
H310 C297 0.961 . S
H311 C297 0.961 . S
H312 C298 0.958 . S
H313 C298 0.961 . S
H314 C298 0.960 . S
C315 C316 1.391 . S
C315 C317 1.394 . S
C315 H331 0.931 . S
C316 C315 1.391 . S
C316 C320 1.376 . S
C317 C315 1.394 . S
C317 C318 1.369 . S
C317 C321 1.531 . S
C318 C317 1.369 . S
C318 C319 1.410 . S
C318 C326 1.503 . S
C319 C318 1.410 . S
C319 C320 1.392 . S
C319 C322 1.511 . S
C320 C316 1.376 . S
C320 C319 1.392 . S
C320 H332 0.929 . S
C321 C317 1.531 . S
C321 H333 0.960 . S
C321 H334 0.962 . S
C321 H335 0.960 . S
C322 C319 1.511 . S
C322 H336 0.961 . S
C322 H337 0.961 . S
C322 H338 0.961 . S
C323 C324 1.370 . S
C323 C325 1.363 . S
C323 H339 0.931 . S
C324 C323 1.370 . S
C324 C328 1.408 . S
C325 C323 1.363 . S
C325 C326 1.370 . S
C325 C329 1.524 . S
C326 C318 1.503 . S
C326 C325 1.370 . S
C326 C327 1.403 . S
C327 C326 1.403 . S
C327 C328 1.404 . S
C327 C330 1.539 . S
C328 C324 1.408 . S
C328 C327 1.404 . S
C328 H340 0.930 . S
C329 C325 1.524 . S
C329 H341 0.956 . S
C329 H342 0.961 . S
C329 H343 0.961 . S
C330 C327 1.539 . S
C330 H344 0.958 . S
C330 H345 0.961 . S
C330 H346 0.960 . S
H331 C315 0.931 . S
H332 C320 0.929 . S
H333 C321 0.960 . S
H334 C321 0.962 . S
H335 C321 0.960 . S
H336 C322 0.961 . S
H337 C322 0.961 . S
H338 C322 0.961 . S
H339 C323 0.931 . S
H340 C328 0.930 . S
H341 C329 0.956 . S
H342 C329 0.961 . S
H343 C329 0.961 . S
H344 C330 0.958 . S
H345 C330 0.961 . S
H346 C330 0.960 . S
C347 C348 1.391 . S
C347 C349 1.394 . S
C347 H363 0.931 . S
C348 C347 1.391 . S
C348 C352 1.376 . S
C349 C347 1.394 . S
C349 C350 1.369 . S
C349 C353 1.531 . S
C350 C349 1.369 . S
C350 C351 1.410 . S
C350 C358 1.503 . S
C351 C350 1.410 . S
C351 C352 1.392 . S
C351 C354 1.511 . S
C352 C348 1.376 . S
C352 C351 1.392 . S
C352 H364 0.929 . S
C353 C349 1.531 . S
C353 H365 0.960 . S
C353 H366 0.962 . S
C353 H367 0.960 . S
C354 C351 1.511 . S
C354 H368 0.961 . S
C354 H369 0.961 . S
C354 H370 0.961 . S
C355 C356 1.370 . S
C355 C357 1.363 . S
C355 H371 0.931 . S
C356 C355 1.370 . S
C356 C360 1.408 . S
C357 C355 1.363 . S
C357 C358 1.370 . S
C357 C361 1.524 . S
C358 C350 1.503 . S
C358 C357 1.370 . S
C358 C359 1.403 . S
C359 C358 1.403 . S
C359 C360 1.404 . S
C359 C362 1.539 . S
C360 C356 1.408 . S
C360 C359 1.404 . S
C360 H372 0.930 . S
C361 C357 1.524 . S
C361 H373 0.956 . S
C361 H374 0.961 . S
C361 H375 0.961 . S
C362 C359 1.539 . S
C362 H376 0.958 . S
C362 H377 0.961 . S
C362 H378 0.960 . S
H363 C347 0.931 . S
H364 C352 0.929 . S
H365 C353 0.960 . S
H366 C353 0.962 . S
H367 C353 0.960 . S
H368 C354 0.961 . S
H369 C354 0.961 . S
H370 C354 0.961 . S
H371 C355 0.931 . S
H372 C360 0.930 . S
H373 C361 0.956 . S
H374 C361 0.961 . S
H375 C361 0.961 . S
H376 C362 0.958 . S
H377 C362 0.961 . S
H378 C362 0.960 . S
C379 C380 1.391 . S
C379 C381 1.394 . S
C379 H395 0.931 . S
C380 C379 1.391 . S
C380 C384 1.376 . S
C381 C379 1.394 . S
C381 C382 1.369 . S
C381 C385 1.531 . S
C382 C381 1.369 . S
C382 C383 1.410 . S
C382 C390 1.503 . S
C383 C382 1.410 . S
C383 C384 1.392 . S
C383 C386 1.511 . S
C384 C380 1.376 . S
C384 C383 1.392 . S
C384 H396 0.929 . S
C385 C381 1.531 . S
C385 H397 0.960 . S
C385 H398 0.962 . S
C385 H399 0.960 . S
C386 C383 1.511 . S
C386 H400 0.961 . S
C386 H401 0.961 . S
C386 H402 0.961 . S
C387 C388 1.370 . S
C387 C389 1.363 . S
C387 H403 0.931 . S
C388 C387 1.370 . S
C388 C392 1.408 . S
C389 C387 1.363 . S
C389 C390 1.370 . S
C389 C393 1.524 . S
C390 C382 1.503 . S
C390 C389 1.370 . S
C390 C391 1.403 . S
C391 C390 1.403 . S
C391 C392 1.404 . S
C391 C394 1.539 . S
C392 C388 1.408 . S
C392 C391 1.404 . S
C392 H404 0.930 . S
C393 C389 1.524 . S
C393 H405 0.956 . S
C393 H406 0.961 . S
C393 H407 0.961 . S
C394 C391 1.539 . S
C394 H408 0.958 . S
C394 H409 0.961 . S
C394 H410 0.960 . S
H395 C379 0.931 . S
H396 C384 0.929 . S
H397 C385 0.960 . S
H398 C385 0.962 . S
H399 C385 0.960 . S
H400 C386 0.961 . S
H401 C386 0.961 . S
H402 C386 0.961 . S
H403 C387 0.931 . S
H404 C392 0.930 . S
H405 C393 0.956 . S
H406 C393 0.961 . S
H407 C393 0.961 . S
H408 C394 0.958 . S
H409 C394 0.961 . S
H410 C394 0.960 . S
C411 C412 1.391 . S
C411 C413 1.394 . S
C411 H427 0.931 . S
C412 C411 1.391 . S
C412 C416 1.376 . S
C413 C411 1.394 . S
C413 C414 1.369 . S
C413 C417 1.531 . S
C414 C413 1.369 . S
C414 C415 1.410 . S
C414 C422 1.503 . S
C415 C414 1.410 . S
C415 C416 1.392 . S
C415 C418 1.511 . S
C416 C412 1.376 . S
C416 C415 1.392 . S
C416 H428 0.929 . S
C417 C413 1.531 . S
C417 H429 0.960 . S
C417 H430 0.962 . S
C417 H431 0.960 . S
C418 C415 1.511 . S
C418 H432 0.961 . S
C418 H433 0.961 . S
C418 H434 0.961 . S
C419 C420 1.370 . S
C419 C421 1.363 . S
C419 H435 0.931 . S
C420 C419 1.370 . S
C420 C424 1.408 . S
C421 C419 1.363 . S
C421 C422 1.370 . S
C421 C425 1.524 . S
C422 C414 1.503 . S
C422 C421 1.370 . S
C422 C423 1.403 . S
C423 C422 1.403 . S
C423 C424 1.404 . S
C423 C426 1.539 . S
C424 C420 1.408 . S
C424 C423 1.404 . S
C424 H436 0.930 . S
C425 C421 1.524 . S
C425 H437 0.956 . S
C425 H438 0.961 . S
C425 H439 0.961 . S
C426 C423 1.539 . S
C426 H440 0.958 . S
C426 H441 0.961 . S
C426 H442 0.960 . S
H427 C411 0.931 . S
H428 C416 0.929 . S
H429 C417 0.960 . S
H430 C417 0.962 . S
H431 C417 0.960 . S
H432 C418 0.961 . S
H433 C418 0.961 . S
H434 C418 0.961 . S
H435 C419 0.931 . S
H436 C424 0.930 . S
H437 C425 0.956 . S
H438 C425 0.961 . S
H439 C425 0.961 . S
H440 C426 0.958 . S
H441 C426 0.961 . S
H442 C426 0.960 . S
C443 C444 1.391 . S
C443 C445 1.394 . S
C443 H459 0.931 . S
C444 C443 1.391 . S
C444 C448 1.376 . S
C445 C443 1.394 . S
C445 C446 1.369 . S
C445 C449 1.531 . S
C446 C445 1.369 . S
C446 C447 1.410 . S
C446 C454 1.503 . S
C447 C446 1.410 . S
C447 C448 1.392 . S
C447 C450 1.511 . S
C448 C444 1.376 . S
C448 C447 1.392 . S
C448 H460 0.929 . S
C449 C445 1.531 . S
C449 H461 0.960 . S
C449 H462 0.962 . S
C449 H463 0.960 . S
C450 C447 1.511 . S
C450 H464 0.961 . S
C450 H465 0.961 . S
C450 H466 0.961 . S
C451 C452 1.370 . S
C451 C453 1.363 . S
C451 H467 0.931 . S
C452 C451 1.370 . S
C452 C456 1.408 . S
C453 C451 1.363 . S
C453 C454 1.370 . S
C453 C457 1.524 . S
C454 C446 1.503 . S
C454 C453 1.370 . S
C454 C455 1.403 . S
C455 C454 1.403 . S
C455 C456 1.404 . S
C455 C458 1.539 . S
C456 C452 1.408 . S
C456 C455 1.404 . S
C456 H468 0.930 . S
C457 C453 1.524 . S
C457 H469 0.956 . S
C457 H470 0.961 . S
C457 H471 0.961 . S
C458 C455 1.539 . S
C458 H472 0.958 . S
C458 H473 0.961 . S
C458 H474 0.960 . S
H459 C443 0.931 . S
H460 C448 0.929 . S
H461 C449 0.960 . S
H462 C449 0.962 . S
H463 C449 0.960 . S
H464 C450 0.961 . S
H465 C450 0.961 . S
H466 C450 0.961 . S
H467 C451 0.931 . S
H468 C456 0.930 . S
H469 C457 0.956 . S
H470 C457 0.961 . S
H471 C457 0.961 . S
H472 C458 0.958 . S
H473 C458 0.961 . S
H474 C458 0.960 . S
C475 C476 1.391 . S
C475 C477 1.394 . S
C475 H491 0.931 . S
C476 C475 1.391 . S
C476 C480 1.376 . S
C477 C475 1.394 . S
C477 C478 1.369 . S
C477 C481 1.531 . S
C478 C477 1.369 . S
C478 C479 1.410 . S
C478 C486 1.503 . S
C479 C478 1.410 . S
C479 C480 1.392 . S
C479 C482 1.511 . S
C480 C476 1.376 . S
C480 C479 1.392 . S
C480 H492 0.929 . S
C481 C477 1.531 . S
C481 H493 0.960 . S
C481 H494 0.962 . S
C481 H495 0.960 . S
C482 C479 1.511 . S
C482 H496 0.961 . S
C482 H497 0.961 . S
C482 H498 0.961 . S
C483 C484 1.370 . S
C483 C485 1.363 . S
C483 H499 0.931 . S
C484 C483 1.370 . S
C484 C488 1.408 . S
C485 C483 1.363 . S
C485 C486 1.370 . S
C485 C489 1.524 . S
C486 C478 1.503 . S
C486 C485 1.370 . S
C486 C487 1.403 . S
C487 C486 1.403 . S
C487 C488 1.404 . S
C487 C490 1.539 . S
C488 C484 1.408 . S
C488 C487 1.404 . S
C488 H500 0.930 . S
C489 C485 1.524 . S
C489 H501 0.956 . S
C489 H502 0.961 . S
C489 H503 0.961 . S
C490 C487 1.539 . S
C490 H504 0.958 . S
C490 H505 0.961 . S
C490 H506 0.960 . S
H491 C475 0.931 . S
H492 C480 0.929 . S
H493 C481 0.960 . S
H494 C481 0.962 . S
H495 C481 0.960 . S
H496 C482 0.961 . S
H497 C482 0.961 . S
H498 C482 0.961 . S
H499 C483 0.931 . S
H500 C488 0.930 . S
H501 C489 0.956 . S
H502 C489 0.961 . S
H503 C489 0.961 . S
H504 C490 0.958 . S
H505 C490 0.961 . S
H506 C490 0.960 . S
C507 C508 1.391 . S
C507 C509 1.394 . S
C507 H523 0.931 . S
C508 C507 1.391 . S
C508 C512 1.376 . S
C509 C507 1.394 . S
C509 C510 1.369 . S
C509 C513 1.531 . S
C510 C509 1.369 . S
C510 C511 1.410 . S
C510 C518 1.503 . S
C511 C510 1.410 . S
C511 C512 1.392 . S
C511 C514 1.511 . S
C512 C508 1.376 . S
C512 C511 1.392 . S
C512 H524 0.929 . S
C513 C509 1.531 . S
C513 H525 0.960 . S
C513 H526 0.962 . S
C513 H527 0.960 . S
C514 C511 1.511 . S
C514 H528 0.961 . S
C514 H529 0.961 . S
C514 H530 0.961 . S
C515 C516 1.370 . S
C515 C517 1.363 . S
C515 H531 0.931 . S
C516 C515 1.370 . S
C516 C520 1.408 . S
C517 C515 1.363 . S
C517 C518 1.370 . S
C517 C521 1.524 . S
C518 C510 1.503 . S
C518 C517 1.370 . S
C518 C519 1.403 . S
C519 C518 1.403 . S
C519 C520 1.404 . S
C519 C522 1.539 . S
C520 C516 1.408 . S
C520 C519 1.404 . S
C520 H532 0.930 . S
C521 C517 1.524 . S
C521 H533 0.956 . S
C521 H534 0.961 . S
C521 H535 0.961 . S
C522 C519 1.539 . S
C522 H536 0.958 . S
C522 H537 0.961 . S
C522 H538 0.960 . S
H523 C507 0.931 . S
H524 C512 0.929 . S
H525 C513 0.960 . S
H526 C513 0.962 . S
H527 C513 0.960 . S
H528 C514 0.961 . S
H529 C514 0.961 . S
H530 C514 0.961 . S
H531 C515 0.931 . S
H532 C520 0.930 . S
H533 C521 0.956 . S
H534 C521 0.961 . S
H535 C521 0.961 . S
H536 C522 0.958 . S
H537 C522 0.961 . S
H538 C522 0.960 . S
C539 C540 1.391 . S
C539 C541 1.394 . S
C539 H555 0.931 . S
C540 C539 1.391 . S
C540 C544 1.376 . S
C541 C539 1.394 . S
C541 C542 1.369 . S
C541 C545 1.531 . S
C542 C541 1.369 . S
C542 C543 1.410 . S
C542 C550 1.503 . S
C543 C542 1.410 . S
C543 C544 1.392 . S
C543 C546 1.511 . S
C544 C540 1.376 . S
C544 C543 1.392 . S
C544 H556 0.929 . S
C545 C541 1.531 . S
C545 H557 0.960 . S
C545 H558 0.962 . S
C545 H559 0.960 . S
C546 C543 1.511 . S
C546 H560 0.961 . S
C546 H561 0.961 . S
C546 H562 0.961 . S
C547 C548 1.370 . S
C547 C549 1.363 . S
C547 H563 0.931 . S
C548 C547 1.370 . S
C548 C552 1.408 . S
C549 C547 1.363 . S
C549 C550 1.370 . S
C549 C553 1.524 . S
C550 C542 1.503 . S
C550 C549 1.370 . S
C550 C551 1.403 . S
C551 C550 1.403 . S
C551 C552 1.404 . S
C551 C554 1.539 . S
C552 C548 1.408 . S
C552 C551 1.404 . S
C552 H564 0.930 . S
C553 C549 1.524 . S
C553 H565 0.956 . S
C553 H566 0.961 . S
C553 H567 0.961 . S
C554 C551 1.539 . S
C554 H568 0.958 . S
C554 H569 0.961 . S
C554 H570 0.960 . S
H555 C539 0.931 . S
H556 C544 0.929 . S
H557 C545 0.960 . S
H558 C545 0.962 . S
H559 C545 0.960 . S
H560 C546 0.961 . S
H561 C546 0.961 . S
H562 C546 0.961 . S
H563 C547 0.931 . S
H564 C552 0.930 . S
H565 C553 0.956 . S
H566 C553 0.961 . S
H567 C553 0.961 . S
H568 C554 0.958 . S
H569 C554 0.961 . S
H570 C554 0.960 . S
C571 C572 1.391 . S
C571 C573 1.394 . S
C571 H587 0.931 . S
C572 C571 1.391 . S
C572 C576 1.376 . S
C573 C571 1.394 . S
C573 C574 1.369 . S
C573 C577 1.531 . S
C574 C573 1.369 . S
C574 C575 1.410 . S
C574 C582 1.503 . S
C575 C574 1.410 . S
C575 C576 1.392 . S
C575 C578 1.511 . S
C576 C572 1.376 . S
C576 C575 1.392 . S
C576 H588 0.929 . S
C577 C573 1.531 . S
C577 H589 0.960 . S
C577 H590 0.962 . S
C577 H591 0.960 . S
C578 C575 1.511 . S
C578 H592 0.961 . S
C578 H593 0.961 . S
C578 H594 0.961 . S
C579 C580 1.370 . S
C579 C581 1.363 . S
C579 H595 0.931 . S
C580 C579 1.370 . S
C580 C584 1.408 . S
C581 C579 1.363 . S
C581 C582 1.370 . S
C581 C585 1.524 . S
C582 C574 1.503 . S
C582 C581 1.370 . S
C582 C583 1.403 . S
C583 C582 1.403 . S
C583 C584 1.404 . S
C583 C586 1.539 . S
C584 C580 1.408 . S
C584 C583 1.404 . S
C584 H596 0.930 . S
C585 C581 1.524 . S
C585 H597 0.956 . S
C585 H598 0.961 . S
C585 H599 0.961 . S
C586 C583 1.539 . S
C586 H600 0.958 . S
C586 H601 0.961 . S
C586 H602 0.960 . S
H587 C571 0.931 . S
H588 C576 0.929 . S
H589 C577 0.960 . S
H590 C577 0.962 . S
H591 C577 0.960 . S
H592 C578 0.961 . S
H593 C578 0.961 . S
H594 C578 0.961 . S
H595 C579 0.931 . S
H596 C584 0.930 . S
H597 C585 0.956 . S
H598 C585 0.961 . S
H599 C585 0.961 . S
H600 C586 0.958 . S
H601 C586 0.961 . S
H602 C586 0.960 . S
C603 C604 1.391 . S
C603 C605 1.394 . S
C603 H619 0.931 . S
C604 C603 1.391 . S
C604 C608 1.376 . S
C605 C603 1.394 . S
C605 C606 1.369 . S
C605 C609 1.531 . S
C606 C605 1.369 . S
C606 C607 1.410 . S
C606 C614 1.503 . S
C607 C606 1.410 . S
C607 C608 1.392 . S
C607 C610 1.511 . S
C608 C604 1.376 . S
C608 C607 1.392 . S
C608 H620 0.929 . S
C609 C605 1.531 . S
C609 H621 0.960 . S
C609 H622 0.962 . S
C609 H623 0.960 . S
C610 C607 1.511 . S
C610 H624 0.961 . S
C610 H625 0.961 . S
C610 H626 0.961 . S
C611 C612 1.370 . S
C611 C613 1.363 . S
C611 H627 0.931 . S
C612 C611 1.370 . S
C612 C616 1.408 . S
C613 C611 1.363 . S
C613 C614 1.370 . S
C613 C617 1.524 . S
C614 C606 1.503 . S
C614 C613 1.370 . S
C614 C615 1.403 . S
C615 C614 1.403 . S
C615 C616 1.404 . S
C615 C618 1.539 . S
C616 C612 1.408 . S
C616 C615 1.404 . S
C616 H628 0.930 . S
C617 C613 1.524 . S
C617 H629 0.956 . S
C617 H630 0.961 . S
C617 H631 0.961 . S
C618 C615 1.539 . S
C618 H632 0.958 . S
C618 H633 0.961 . S
C618 H634 0.960 . S
H619 C603 0.931 . S
H620 C608 0.929 . S
H621 C609 0.960 . S
H622 C609 0.962 . S
H623 C609 0.960 . S
H624 C610 0.961 . S
H625 C610 0.961 . S
H626 C610 0.961 . S
H627 C611 0.931 . S
H628 C616 0.930 . S
H629 C617 0.956 . S
H630 C617 0.961 . S
H631 C617 0.961 . S
H632 C618 0.958 . S
H633 C618 0.961 . S
H634 C618 0.960 . S
C635 C636 1.391 . S
C635 C637 1.394 . S
C635 H651 0.931 . S
C636 C635 1.391 . S
C636 C640 1.376 . S
C637 C635 1.394 . S
C637 C638 1.369 . S
C637 C641 1.531 . S
C638 C637 1.369 . S
C638 C639 1.410 . S
C638 C646 1.503 . S
C639 C638 1.410 . S
C639 C640 1.392 . S
C639 C642 1.511 . S
C640 C636 1.376 . S
C640 C639 1.392 . S
C640 H652 0.929 . S
C641 C637 1.531 . S
C641 H653 0.960 . S
C641 H654 0.962 . S
C641 H655 0.960 . S
C642 C639 1.511 . S
C642 H656 0.961 . S
C642 H657 0.961 . S
C642 H658 0.961 . S
C643 C644 1.370 . S
C643 C645 1.363 . S
C643 H659 0.931 . S
C644 C643 1.370 . S
C644 C648 1.408 . S
C645 C643 1.363 . S
C645 C646 1.370 . S
C645 C649 1.524 . S
C646 C638 1.503 . S
C646 C645 1.370 . S
C646 C647 1.403 . S
C647 C646 1.403 . S
C647 C648 1.404 . S
C647 C650 1.539 . S
C648 C644 1.408 . S
C648 C647 1.404 . S
C648 H660 0.930 . S
C649 C645 1.524 . S
C649 H661 0.956 . S
C649 H662 0.961 . S
C649 H663 0.961 . S
C650 C647 1.539 . S
C650 H664 0.958 . S
C650 H665 0.961 . S
C650 H666 0.960 . S
H651 C635 0.931 . S
H652 C640 0.929 . S
H653 C641 0.960 . S
H654 C641 0.962 . S
H655 C641 0.960 . S
H656 C642 0.961 . S
H657 C642 0.961 . S
H658 C642 0.961 . S
H659 C643 0.931 . S
H660 C648 0.930 . S
H661 C649 0.956 . S
H662 C649 0.961 . S
H663 C649 0.961 . S
H664 C650 0.958 . S
H665 C650 0.961 . S
H666 C650 0.960 . S
C667 C668 1.391 . S
C667 C669 1.394 . S
C667 H683 0.931 . S
C668 C667 1.391 . S
C668 C672 1.376 . S
C669 C667 1.394 . S
C669 C670 1.369 . S
C669 C673 1.531 . S
C670 C669 1.369 . S
C670 C671 1.410 . S
C670 C678 1.503 . S
C671 C670 1.410 . S
C671 C672 1.392 . S
C671 C674 1.511 . S
C672 C668 1.376 . S
C672 C671 1.392 . S
C672 H684 0.929 . S
C673 C669 1.531 . S
C673 H685 0.960 . S
C673 H686 0.962 . S
C673 H687 0.960 . S
C674 C671 1.511 . S
C674 H688 0.961 . S
C674 H689 0.961 . S
C674 H690 0.961 . S
C675 C676 1.370 . S
C675 C677 1.363 . S
C675 H691 0.931 . S
C676 C675 1.370 . S
C676 C680 1.408 . S
C677 C675 1.363 . S
C677 C678 1.370 . S
C677 C681 1.524 . S
C678 C670 1.503 . S
C678 C677 1.370 . S
C678 C679 1.403 . S
C679 C678 1.403 . S
C679 C680 1.404 . S
C679 C682 1.539 . S
C680 C676 1.408 . S
C680 C679 1.404 . S
C680 H692 0.930 . S
C681 C677 1.524 . S
C681 H693 0.956 . S
C681 H694 0.961 . S
C681 H695 0.961 . S
C682 C679 1.539 . S
C682 H696 0.958 . S
C682 H697 0.961 . S
C682 H698 0.960 . S
H683 C667 0.931 . S
H684 C672 0.929 . S
H685 C673 0.960 . S
H686 C673 0.962 . S
H687 C673 0.960 . S
H688 C674 0.961 . S
H689 C674 0.961 . S
H690 C674 0.961 . S
H691 C675 0.931 . S
H692 C680 0.930 . S
H693 C681 0.956 . S
H694 C681 0.961 . S
H695 C681 0.961 . S
H696 C682 0.958 . S
H697 C682 0.961 . S
H698 C682 0.960 . S
C699 C700 1.391 . S
C699 C701 1.394 . S
C699 H715 0.931 . S
C700 C699 1.391 . S
C700 C704 1.376 . S
C701 C699 1.394 . S
C701 C702 1.369 . S
C701 C705 1.531 . S
C702 C701 1.369 . S
C702 C703 1.410 . S
C702 C710 1.503 . S
C703 C702 1.410 . S
C703 C704 1.392 . S
C703 C706 1.511 . S
C704 C700 1.376 . S
C704 C703 1.392 . S
C704 H716 0.929 . S
C705 C701 1.531 . S
C705 H717 0.960 . S
C705 H718 0.962 . S
C705 H719 0.960 . S
C706 C703 1.511 . S
C706 H720 0.961 . S
C706 H721 0.961 . S
C706 H722 0.961 . S
C707 C708 1.370 . S
C707 C709 1.363 . S
C707 H723 0.931 . S
C708 C707 1.370 . S
C708 C712 1.408 . S
C709 C707 1.363 . S
C709 C710 1.370 . S
C709 C713 1.524 . S
C710 C702 1.503 . S
C710 C709 1.370 . S
C710 C711 1.403 . S
C711 C710 1.403 . S
C711 C712 1.404 . S
C711 C714 1.539 . S
C712 C708 1.408 . S
C712 C711 1.404 . S
C712 H724 0.930 . S
C713 C709 1.524 . S
C713 H725 0.956 . S
C713 H726 0.961 . S
C713 H727 0.961 . S
C714 C711 1.539 . S
C714 H728 0.958 . S
C714 H729 0.961 . S
C714 H730 0.960 . S
H715 C699 0.931 . S
H716 C704 0.929 . S
H717 C705 0.960 . S
H718 C705 0.962 . S
H719 C705 0.960 . S
H720 C706 0.961 . S
H721 C706 0.961 . S
H722 C706 0.961 . S
H723 C707 0.931 . S
H724 C712 0.930 . S
H725 C713 0.956 . S
H726 C713 0.961 . S
H727 C713 0.961 . S
H728 C714 0.958 . S
H729 C714 0.961 . S
H730 C714 0.960 . S
C731 C732 1.391 . S
C731 C733 1.394 . S
C731 H747 0.931 . S
C732 C731 1.391 . S
C732 C736 1.376 . S
C733 C731 1.394 . S
C733 C734 1.369 . S
C733 C737 1.531 . S
C734 C733 1.369 . S
C734 C735 1.410 . S
C734 C742 1.503 . S
C735 C734 1.410 . S
C735 C736 1.392 . S
C735 C738 1.511 . S
C736 C732 1.376 . S
C736 C735 1.392 . S
C736 H748 0.929 . S
C737 C733 1.531 . S
C737 H749 0.960 . S
C737 H750 0.962 . S
C737 H751 0.960 . S
C738 C735 1.511 . S
C738 H752 0.961 . S
C738 H753 0.961 . S
C738 H754 0.961 . S
C739 C740 1.370 . S
C739 C741 1.363 . S
C739 H755 0.931 . S
C740 C739 1.370 . S
C740 C744 1.408 . S
C741 C739 1.363 . S
C741 C742 1.370 . S
C741 C745 1.524 . S
C742 C734 1.503 . S
C742 C741 1.370 . S
C742 C743 1.403 . S
C743 C742 1.403 . S
C743 C744 1.404 . S
C743 C746 1.539 . S
C744 C740 1.408 . S
C744 C743 1.404 . S
C744 H756 0.930 . S
C745 C741 1.524 . S
C745 H757 0.956 . S
C745 H758 0.961 . S
C745 H759 0.961 . S
C746 C743 1.539 . S
C746 H760 0.958 . S
C746 H761 0.961 . S
C746 H762 0.960 . S
H747 C731 0.931 . S
H748 C736 0.929 . S
H749 C737 0.960 . S
H750 C737 0.962 . S
H751 C737 0.960 . S
H752 C738 0.961 . S
H753 C738 0.961 . S
H754 C738 0.961 . S
H755 C739 0.931 . S
H756 C744 0.930 . S
H757 C745 0.956 . S
H758 C745 0.961 . S
H759 C745 0.961 . S
H760 C746 0.958 . S
H761 C746 0.961 . S
H762 C746 0.960 . S
C763 C764 1.391 . S
C763 C765 1.394 . S
C763 H779 0.931 . S
C764 C763 1.391 . S
C764 C768 1.376 . S
C765 C763 1.394 . S
C765 C766 1.369 . S
C765 C769 1.531 . S
C766 C765 1.369 . S
C766 C767 1.410 . S
C766 C774 1.503 . S
C767 C766 1.410 . S
C767 C768 1.392 . S
C767 C770 1.511 . S
C768 C764 1.376 . S
C768 C767 1.392 . S
C768 H780 0.929 . S
C769 C765 1.531 . S
C769 H781 0.960 . S
C769 H782 0.962 . S
C769 H783 0.960 . S
C770 C767 1.511 . S
C770 H784 0.961 . S
C770 H785 0.961 . S
C770 H786 0.961 . S
C771 C772 1.370 . S
C771 C773 1.363 . S
C771 H787 0.931 . S
C772 C771 1.370 . S
C772 C776 1.408 . S
C773 C771 1.363 . S
C773 C774 1.370 . S
C773 C777 1.524 . S
C774 C766 1.503 . S
C774 C773 1.370 . S
C774 C775 1.403 . S
C775 C774 1.403 . S
C775 C776 1.404 . S
C775 C778 1.539 . S
C776 C772 1.408 . S
C776 C775 1.404 . S
C776 H788 0.930 . S
C777 C773 1.524 . S
C777 H789 0.956 . S
C777 H790 0.961 . S
C777 H791 0.961 . S
C778 C775 1.539 . S
C778 H792 0.958 . S
C778 H793 0.961 . S
C778 H794 0.960 . S
H779 C763 0.931 . S
H780 C768 0.929 . S
H781 C769 0.960 . S
H782 C769 0.962 . S
H783 C769 0.960 . S
H784 C770 0.961 . S
H785 C770 0.961 . S
H786 C770 0.961 . S
H787 C771 0.931 . S
H788 C776 0.930 . S
H789 C777 0.956 . S
H790 C777 0.961 . S
H791 C777 0.961 . S
H792 C778 0.958 . S
H793 C778 0.961 . S
H794 C778 0.960 . S
C795 C796 1.391 . S
C795 C797 1.394 . S
C795 H811 0.931 . S
C796 C795 1.391 . S
C796 C800 1.376 . S
C797 C795 1.394 . S
C797 C798 1.369 . S
C797 C801 1.531 . S
C798 C797 1.369 . S
C798 C799 1.410 . S
C798 C806 1.503 . S
C799 C798 1.410 . S
C799 C800 1.392 . S
C799 C802 1.511 . S
C800 C796 1.376 . S
C800 C799 1.392 . S
C800 H812 0.929 . S
C801 C797 1.531 . S
C801 H813 0.960 . S
C801 H814 0.962 . S
C801 H815 0.960 . S
C802 C799 1.511 . S
C802 H816 0.961 . S
C802 H817 0.961 . S
C802 H818 0.961 . S
C803 C804 1.370 . S
C803 C805 1.363 . S
C803 H819 0.931 . S
C804 C803 1.370 . S
C804 C808 1.408 . S
C805 C803 1.363 . S
C805 C806 1.370 . S
C805 C809 1.524 . S
C806 C798 1.503 . S
C806 C805 1.370 . S
C806 C807 1.403 . S
C807 C806 1.403 . S
C807 C808 1.404 . S
C807 C810 1.539 . S
C808 C804 1.408 . S
C808 C807 1.404 . S
C808 H820 0.930 . S
C809 C805 1.524 . S
C809 H821 0.956 . S
C809 H822 0.961 . S
C809 H823 0.961 . S
C810 C807 1.539 . S
C810 H824 0.958 . S
C810 H825 0.961 . S
C810 H826 0.960 . S
H811 C795 0.931 . S
H812 C800 0.929 . S
H813 C801 0.960 . S
H814 C801 0.962 . S
H815 C801 0.960 . S
H816 C802 0.961 . S
H817 C802 0.961 . S
H818 C802 0.961 . S
H819 C803 0.931 . S
H820 C808 0.930 . S
H821 C809 0.956 . S
H822 C809 0.961 . S
H823 C809 0.961 . S
H824 C810 0.958 . S
H825 C810 0.961 . S
H826 C810 0.960 . S
C827 C828 1.391 . S
C827 C829 1.394 . S
C827 H843 0.931 . S
C828 C827 1.391 . S
C828 C832 1.376 . S
C829 C827 1.394 . S
C829 C830 1.369 . S
C829 C833 1.531 . S
C830 C829 1.369 . S
C830 C831 1.410 . S
C830 C838 1.503 . S
C831 C830 1.410 . S
C831 C832 1.392 . S
C831 C834 1.511 . S
C832 C828 1.376 . S
C832 C831 1.392 . S
C832 H844 0.929 . S
C833 C829 1.531 . S
C833 H845 0.960 . S
C833 H846 0.962 . S
C833 H847 0.960 . S
C834 C831 1.511 . S
C834 H848 0.961 . S
C834 H849 0.961 . S
C834 H850 0.961 . S
C835 C836 1.370 . S
C835 C837 1.363 . S
C835 H851 0.931 . S
C836 C835 1.370 . S
C836 C840 1.408 . S
C837 C835 1.363 . S
C837 C838 1.370 . S
C837 C841 1.524 . S
C838 C830 1.503 . S
C838 C837 1.370 . S
C838 C839 1.403 . S
C839 C838 1.403 . S
C839 C840 1.404 . S
C839 C842 1.539 . S
C840 C836 1.408 . S
C840 C839 1.404 . S
C840 H852 0.930 . S
C841 C837 1.524 . S
C841 H853 0.956 . S
C841 H854 0.961 . S
C841 H855 0.961 . S
C842 C839 1.539 . S
C842 H856 0.958 . S
C842 H857 0.961 . S
C842 H858 0.960 . S
H843 C827 0.931 . S
H844 C832 0.929 . S
H845 C833 0.960 . S
H846 C833 0.962 . S
H847 C833 0.960 . S
H848 C834 0.961 . S
H849 C834 0.961 . S
H850 C834 0.961 . S
H851 C835 0.931 . S
H852 C840 0.930 . S
H853 C841 0.956 . S
H854 C841 0.961 . S
H855 C841 0.961 . S
H856 C842 0.958 . S
H857 C842 0.961 . S
H858 C842 0.960 . S
C859 C860 1.391 . S
C859 C861 1.394 . S
C859 H875 0.931 . S
C860 C859 1.391 . S
C860 C864 1.376 . S
C861 C859 1.394 . S
C861 C862 1.369 . S
C861 C865 1.531 . S
C862 C861 1.369 . S
C862 C863 1.410 . S
C862 C870 1.503 . S
C863 C862 1.410 . S
C863 C864 1.392 . S
C863 C866 1.511 . S
C864 C860 1.376 . S
C864 C863 1.392 . S
C864 H876 0.929 . S
C865 C861 1.531 . S
C865 H877 0.960 . S
C865 H878 0.962 . S
C865 H879 0.960 . S
C866 C863 1.511 . S
C866 H880 0.961 . S
C866 H881 0.961 . S
C866 H882 0.961 . S
C867 C868 1.370 . S
C867 C869 1.363 . S
C867 H883 0.931 . S
C868 C867 1.370 . S
C868 C872 1.408 . S
C869 C867 1.363 . S
C869 C870 1.370 . S
C869 C873 1.524 . S
C870 C862 1.503 . S
C870 C869 1.370 . S
C870 C871 1.403 . S
C871 C870 1.403 . S
C871 C872 1.404 . S
C871 C874 1.539 . S
C872 C868 1.408 . S
C872 C871 1.404 . S
C872 H884 0.930 . S
C873 C869 1.524 . S
C873 H885 0.956 . S
C873 H886 0.961 . S
C873 H887 0.961 . S
C874 C871 1.539 . S
C874 H888 0.958 . S
C874 H889 0.961 . S
C874 H890 0.960 . S
H875 C859 0.931 . S
H876 C864 0.929 . S
H877 C865 0.960 . S
H878 C865 0.962 . S
H879 C865 0.960 . S
H880 C866 0.961 . S
H881 C866 0.961 . S
H882 C866 0.961 . S
H883 C867 0.931 . S
H884 C872 0.930 . S
H885 C873 0.956 . S
H886 C873 0.961 . S
H887 C873 0.961 . S
H888 C874 0.958 . S
H889 C874 0.961 . S
H890 C874 0.960 . S
C891 C892 1.391 . S
C891 C893 1.394 . S
C891 H907 0.931 . S
C892 C891 1.391 . S
C892 C896 1.376 . S
C893 C891 1.394 . S
C893 C894 1.369 . S
C893 C897 1.531 . S
C894 C893 1.369 . S
C894 C895 1.410 . S
C894 C902 1.503 . S
C895 C894 1.410 . S
C895 C896 1.392 . S
C895 C898 1.511 . S
C896 C892 1.376 . S
C896 C895 1.392 . S
C896 H908 0.929 . S
C897 C893 1.531 . S
C897 H909 0.960 . S
C897 H910 0.962 . S
C897 H911 0.960 . S
C898 C895 1.511 . S
C898 H912 0.961 . S
C898 H913 0.961 . S
C898 H914 0.961 . S
C899 C900 1.370 . S
C899 C901 1.363 . S
C899 H915 0.931 . S
C900 C899 1.370 . S
C900 C904 1.408 . S
C901 C899 1.363 . S
C901 C902 1.370 . S
C901 C905 1.524 . S
C902 C894 1.503 . S
C902 C901 1.370 . S
C902 C903 1.403 . S
C903 C902 1.403 . S
C903 C904 1.404 . S
C903 C906 1.539 . S
C904 C900 1.408 . S
C904 C903 1.404 . S
C904 H916 0.930 . S
C905 C901 1.524 . S
C905 H917 0.956 . S
C905 H918 0.961 . S
C905 H919 0.961 . S
C906 C903 1.539 . S
C906 H920 0.958 . S
C906 H921 0.961 . S
C906 H922 0.960 . S
H907 C891 0.931 . S
H908 C896 0.929 . S
H909 C897 0.960 . S
H910 C897 0.962 . S
H911 C897 0.960 . S
H912 C898 0.961 . S
H913 C898 0.961 . S
H914 C898 0.961 . S
H915 C899 0.931 . S
H916 C904 0.930 . S
H917 C905 0.956 . S
H918 C905 0.961 . S
H919 C905 0.961 . S
H920 C906 0.958 . S
H921 C906 0.961 . S
H922 C906 0.960 . S
C923 C924 1.391 . S
C923 C925 1.394 . S
C923 H939 0.931 . S
C924 C923 1.391 . S
C924 C928 1.376 . S
C925 C923 1.394 . S
C925 C926 1.369 . S
C925 C929 1.531 . S
C926 C925 1.369 . S
C926 C927 1.410 . S
C926 C934 1.503 . S
C927 C926 1.410 . S
C927 C928 1.392 . S
C927 C930 1.511 . S
C928 C924 1.376 . S
C928 C927 1.392 . S
C928 H940 0.929 . S
C929 C925 1.531 . S
C929 H941 0.960 . S
C929 H942 0.962 . S
C929 H943 0.960 . S
C930 C927 1.511 . S
C930 H944 0.961 . S
C930 H945 0.961 . S
C930 H946 0.961 . S
C931 C932 1.370 . S
C931 C933 1.363 . S
C931 H947 0.931 . S
C932 C931 1.370 . S
C932 C936 1.408 . S
C933 C931 1.363 . S
C933 C934 1.370 . S
C933 C937 1.524 . S
C934 C926 1.503 . S
C934 C933 1.370 . S
C934 C935 1.403 . S
C935 C934 1.403 . S
C935 C936 1.404 . S
C935 C938 1.539 . S
C936 C932 1.408 . S
C936 C935 1.404 . S
C936 H948 0.930 . S
C937 C933 1.524 . S
C937 H949 0.956 . S
C937 H950 0.961 . S
C937 H951 0.961 . S
C938 C935 1.539 . S
C938 H952 0.958 . S
C938 H953 0.961 . S
C938 H954 0.960 . S
H939 C923 0.931 . S
H940 C928 0.929 . S
H941 C929 0.960 . S
H942 C929 0.962 . S
H943 C929 0.960 . S
H944 C930 0.961 . S
H945 C930 0.961 . S
H946 C930 0.961 . S
H947 C931 0.931 . S
H948 C936 0.930 . S
H949 C937 0.956 . S
H950 C937 0.961 . S
H951 C937 0.961 . S
H952 C938 0.958 . S
H953 C938 0.961 . S
H954 C938 0.960 . S
C955 C956 1.391 . S
C955 C957 1.394 . S
C955 H971 0.931 . S
C956 C955 1.391 . S
C956 C960 1.376 . S
C957 C955 1.394 . S
C957 C958 1.369 . S
C957 C961 1.531 . S
C958 C957 1.369 . S
C958 C959 1.410 . S
C958 C966 1.503 . S
C959 C958 1.410 . S
C959 C960 1.392 . S
C959 C962 1.511 . S
C960 C956 1.376 . S
C960 C959 1.392 . S
C960 H972 0.929 . S
C961 C957 1.531 . S
C961 H973 0.960 . S
C961 H974 0.962 . S
C961 H975 0.960 . S
C962 C959 1.511 . S
C962 H976 0.961 . S
C962 H977 0.961 . S
C962 H978 0.961 . S
C963 C964 1.370 . S
C963 C965 1.363 . S
C963 H979 0.931 . S
C964 C963 1.370 . S
C964 C968 1.408 . S
C965 C963 1.363 . S
C965 C966 1.370 . S
C965 C969 1.524 . S
C966 C958 1.503 . S
C966 C965 1.370 . S
C966 C967 1.403 . S
C967 C966 1.403 . S
C967 C968 1.404 . S
C967 C970 1.539 . S
C968 C964 1.408 . S
C968 C967 1.404 . S
C968 H980 0.930 . S
C969 C965 1.524 . S
C969 H981 0.956 . S
C969 H982 0.961 . S
C969 H983 0.961 . S
C970 C967 1.539 . S
C970 H984 0.958 . S
C970 H985 0.961 . S
C970 H986 0.960 . S
H971 C955 0.931 . S
H972 C960 0.929 . S
H973 C961 0.960 . S
H974 C961 0.962 . S
H975 C961 0.960 . S
H976 C962 0.961 . S
H977 C962 0.961 . S
H978 C962 0.961 . S
H979 C963 0.931 . S
H980 C968 0.930 . S
H981 C969 0.956 . S
H982 C969 0.961 . S
H983 C969 0.961 . S
H984 C970 0.958 . S
H985 C970 0.961 . S
H986 C970 0.960 . S
C987 C988 1.391 . S
C987 C989 1.394 . S
C987 H1003 0.931 . S
C988 C987 1.391 . S
C988 C992 1.376 . S
C989 C987 1.394 . S
C989 C990 1.369 . S
C989 C993 1.531 . S
C990 C989 1.369 . S
C990 C991 1.410 . S
C990 C998 1.503 . S
C991 C990 1.410 . S
C991 C992 1.392 . S
C991 C994 1.511 . S
C992 C988 1.376 . S
C992 C991 1.392 . S
C992 H1004 0.929 . S
C993 C989 1.531 . S
C993 H1005 0.960 . S
C993 H1006 0.962 . S
C993 H1007 0.960 . S
C994 C991 1.511 . S
C994 H1008 0.961 . S
C994 H1009 0.961 . S
C994 H1010 0.961 . S
C995 C996 1.370 . S
C995 C997 1.363 . S
C995 H1011 0.931 . S
C996 C995 1.370 . S
C996 C1000 1.408 . S
C997 C995 1.363 . S
C997 C998 1.370 . S
C997 C1001 1.524 . S
C998 C990 1.503 . S
C998 C997 1.370 . S
C998 C999 1.403 . S
C999 C998 1.403 . S
C999 C1000 1.404 . S
C999 C1002 1.539 . S
C1000 C996 1.408 . S
C1000 C999 1.404 . S
C1000 H1012 0.930 . S
C1001 C997 1.524 . S
C1001 H1013 0.956 . S
C1001 H1014 0.961 . S
C1001 H1015 0.961 . S
C1002 C999 1.539 . S
C1002 H1016 0.958 . S
C1002 H1017 0.961 . S
C1002 H1018 0.960 . S
H1003 C987 0.931 . S
H1004 C992 0.929 . S
H1005 C993 0.960 . S
H1006 C993 0.962 . S
H1007 C993 0.960 . S
H1008 C994 0.961 . S
H1009 C994 0.961 . S
H1010 C994 0.961 . S
H1011 C995 0.931 . S
H1012 C1000 0.930 . S
H1013 C1001 0.956 . S
H1014 C1001 0.961 . S
H1015 C1001 0.961 . S
H1016 C1002 0.958 . S
H1017 C1002 0.961 . S
H1018 C1002 0.960 . S
C260 C176 1.476 . S
C252 C11 1.433 . S
C292 C212 1.232 . S
C284 C25 1.298 . S
C324 C177 1.827 . S
C316 C40 1.823 . S
C356 C207 1.595 . S
C348 C59 1.661 . S
C388 C174 1.391 . S
C380 C82 1.465 . S
C412 C101 2.076 . S
C420 C210 2.080 . S
C444 C116 0.501 . S
C452 C179 0.567 . S
C484 C209 1.522 . S
C476 C144 1.381 . S
C516 C213 1.967 . S
C508 C2 1.995 . S
C548 C178 0.948 . S
C540 C21 1.023 . S
C580 C206 1.665 . S
C572 C49 1.390 . S
C612 C175 1.180 . S
C604 C63 1.303 . S
C644 C208 1.833 . S
C636 C78 1.924 . S
C668 C106 1.343 . S
C676 C173 1.359 . S
C700 C120 1.002 . S
C708 C211 0.995 . S
C740 C180 1.648 . S
C732 C135 1.720 . S
C772 C242 2.046 . S
C764 C6 2.123 . S
C796 C87 1.737 . S
C804 C245 1.746 . S
C836 C244 2.221 . S
C828 C97 2.277 . S
C860 C125 0.839 . S
C868 C243 0.944 . S
C900 C246 2.103 . S
C892 C139 2.219 . S
C924 C44 2.050 . S
C932 C240 1.992 . S
C964 C239 1.959 . S
C956 C68 1.849 . S
C988 C30 0.826 . S
C996 C241 0.759 . S
