# Generated by pormake.
# Topology pto, (3,4)-cn, num edge types: 1
# Building blocks:
#     Node 0, Type 0, BuildingBlock: VETTIZ_charged_linker_0, # of connection points: 3
#     Node 1, Type 0, BuildingBlock: VETTIZ_charged_linker_0, # of connection points: 3
#     Node 2, Type 0, BuildingBlock: VETTIZ_charged_linker_0, # of connection points: 3
#     Node 3, Type 0, BuildingBlock: VETTIZ_charged_linker_0, # of connection points: 3
#     Node 4, Type 0, BuildingBlock: VETTIZ_charged_linker_0, # of connection points: 3
#     Node 5, Type 0, BuildingBlock: VETTIZ_charged_linker_0, # of connection points: 3
#     Node 6, Type 0, BuildingBlock: VETTIZ_charged_linker_0, # of connection points: 3
#     Node 7, Type 0, BuildingBlock: VETTIZ_charged_linker_0, # of connection points: 3
#     Node 8, Type 1, BuildingBlock: NAWXER_clean_sbu_0, # of connection points: 4
#     Node 9, Type 1, BuildingBlock: NAWXER_clean_sbu_0, # of connection points: 4
#     Node 10, Type 1, BuildingBlock: NAWXER_clean_sbu_0, # of connection points: 4
#     Node 11, Type 1, BuildingBlock: NAWXER_clean_sbu_0, # of connection points: 4
#     Node 12, Type 1, BuildingBlock: NAWXER_clean_sbu_0, # of connection points: 4
#     Node 13, Type 1, BuildingBlock: NAWXER_clean_sbu_0, # of connection points: 4
#     Edge 14, Type (0, 1), BuildingBlock: KIFKEQ_clean_linker_1, # of connection points: 2
#     Edge 15, Type (0, 1), BuildingBlock: KIFKEQ_clean_linker_1, # of connection points: 2
#     Edge 16, Type (0, 1), BuildingBlock: KIFKEQ_clean_linker_1, # of connection points: 2
#     Edge 17, Type (0, 1), BuildingBlock: KIFKEQ_clean_linker_1, # of connection points: 2
#     Edge 18, Type (0, 1), BuildingBlock: KIFKEQ_clean_linker_1, # of connection points: 2
#     Edge 19, Type (0, 1), BuildingBlock: KIFKEQ_clean_linker_1, # of connection points: 2
#     Edge 20, Type (0, 1), BuildingBlock: KIFKEQ_clean_linker_1, # of connection points: 2
#     Edge 21, Type (0, 1), BuildingBlock: KIFKEQ_clean_linker_1, # of connection points: 2
#     Edge 22, Type (0, 1), BuildingBlock: KIFKEQ_clean_linker_1, # of connection points: 2
#     Edge 23, Type (0, 1), BuildingBlock: KIFKEQ_clean_linker_1, # of connection points: 2
#     Edge 24, Type (0, 1), BuildingBlock: KIFKEQ_clean_linker_1, # of connection points: 2
#     Edge 25, Type (0, 1), BuildingBlock: KIFKEQ_clean_linker_1, # of connection points: 2
#     Edge 26, Type (0, 1), BuildingBlock: KIFKEQ_clean_linker_1, # of connection points: 2
#     Edge 27, Type (0, 1), BuildingBlock: KIFKEQ_clean_linker_1, # of connection points: 2
#     Edge 28, Type (0, 1), BuildingBlock: KIFKEQ_clean_linker_1, # of connection points: 2
#     Edge 29, Type (0, 1), BuildingBlock: KIFKEQ_clean_linker_1, # of connection points: 2
#     Edge 30, Type (0, 1), BuildingBlock: KIFKEQ_clean_linker_1, # of connection points: 2
#     Edge 31, Type (0, 1), BuildingBlock: KIFKEQ_clean_linker_1, # of connection points: 2
#     Edge 32, Type (0, 1), BuildingBlock: KIFKEQ_clean_linker_1, # of connection points: 2
#     Edge 33, Type (0, 1), BuildingBlock: KIFKEQ_clean_linker_1, # of connection points: 2
#     Edge 34, Type (0, 1), BuildingBlock: KIFKEQ_clean_linker_1, # of connection points: 2
#     Edge 35, Type (0, 1), BuildingBlock: KIFKEQ_clean_linker_1, # of connection points: 2
#     Edge 36, Type (0, 1), BuildingBlock: KIFKEQ_clean_linker_1, # of connection points: 2
#     Edge 37, Type (0, 1), BuildingBlock: KIFKEQ_clean_linker_1, # of connection points: 2
# Relax obj value: 0.000
# Max RMSD: 0.000
# Mean RMSD: 0.000
data_MOF--net-pto--node1-NAWXER_clean_sbu_0--node2-VETTIZ_charged_linker_0--edge1-KIFKEQ_clean_linker_1
_symmetry_space_group_name_H-M    P1
_symmetry_Int_Tables_number       1
_symmetry_cell_setting            triclinic
loop_
_symmetry_equiv_pos_as_xyz
'x, y, z'
_cell_length_a     54.087889
_cell_length_b     50.877407
_cell_length_c     47.633565
_cell_angle_alpha  90.01028
_cell_angle_beta   90.030139
_cell_angle_gamma 90.014942
loop_
_atom_site_label
_atom_site_type_symbol
_atom_site_fract_x
_atom_site_fract_y
_atom_site_fract_z
_atom_type_partial_charge
C0 C 0.2293 0.20869 0.30818 0.0
C1 C 0.2481 0.19058 0.31472 0.0
C2 C 0.27092 0.1925 0.30047 0.0
C3 C 0.25629 0.23048 0.27456 0.0
C4 C 0.23381 0.22839 0.28819 0.0
C5 C 0.21604 0.24959 0.27937 0.0
H6 H 0.19156 0.35786 0.20131 0.0
C7 C 0.25516 0.2535 0.25555 0.0
C8 C 0.23156 0.26473 0.25828 0.0
H9 H 0.14387 0.31876 0.2609 0.0
H10 H 0.17543 0.28636 0.2699 0.0
H11 H 0.2142 0.30391 0.17259 0.0
H12 H 0.23878 0.35558 0.23842 0.0
H13 H 0.26539 0.34559 0.22034 0.0
H14 H 0.24189 0.36407 0.20205 0.0
H15 H 0.22489 0.33679 0.16628 0.0
H16 H 0.24601 0.30943 0.16777 0.0
C17 C 0.19344 0.23623 0.26534 0.0
C18 C 0.20972 0.26641 0.30555 0.0
C19 C 0.33 0.27902 0.19644 0.0
C20 C 0.33445 0.29971 0.17743 0.0
C21 C 0.31547 0.3181 0.17234 0.0
C22 C 0.29247 0.31584 0.18567 0.0
C23 C 0.28827 0.29502 0.20447 0.0
C24 C 0.30691 0.27712 0.20973 0.0
C25 C 0.29918 0.25654 0.23073 0.0
C26 C 0.27279 0.26497 0.23705 0.0
C27 C 0.26652 0.28748 0.2215 0.0
C28 C 0.30014 0.22936 0.21613 0.0
C29 C 0.31614 0.25902 0.25681 0.0
C30 C 0.18786 0.34207 0.21598 0.0
C31 C 0.16522 0.34079 0.23038 0.0
C32 C 0.16124 0.32023 0.2497 0.0
C33 C 0.17959 0.30141 0.25487 0.0
C34 C 0.20232 0.30319 0.24073 0.0
C35 C 0.20614 0.32325 0.22162 0.0
C36 C 0.23175 0.32253 0.20932 0.0
C37 C 0.24257 0.29867 0.22406 0.0
C38 C 0.22522 0.28738 0.24235 0.0
C39 C 0.2293 0.31811 0.17727 0.0
C40 C 0.24526 0.34827 0.21767 0.0
H41 H 0.29287 0.21265 0.27052 0.0
H42 H 0.21165 0.20799 0.31887 0.0
H43 H 0.22588 0.26786 0.31994 0.0
H44 H 0.20516 0.28699 0.3003 0.0
H45 H 0.19418 0.25768 0.31759 0.0
H46 H 0.19931 0.21893 0.25269 0.0
H47 H 0.18005 0.2292 0.28134 0.0
H48 H 0.18375 0.24916 0.25033 0.0
H49 H 0.34425 0.26471 0.20107 0.0
H50 H 0.31825 0.33401 0.15757 0.0
H51 H 0.27881 0.33038 0.18069 0.0
H52 H 0.29394 0.23088 0.19391 0.0
H53 H 0.31924 0.22135 0.21609 0.0
H54 H 0.2876 0.21482 0.22578 0.0
H55 H 0.32061 0.27999 0.26115 0.0
H56 H 0.30739 0.2518 0.27625 0.0
H57 H 0.33387 0.24844 0.25356 0.0
H58 H 0.28561 0.17859 0.30469 0.0
C59 C 0.27509 0.21226 0.28049 0.0
C60 C 0.18933 0.66567 0.74072 0.0
C61 C 0.16714 0.66806 0.72542 0.0
C62 C 0.16333 0.69097 0.70925 0.0
C63 C 0.20301 0.70841 0.72416 0.0
C64 C 0.20676 0.68601 0.73996 0.0
C65 C 0.23066 0.68691 0.75609 0.0
H66 H 0.33644 0.75069 0.79005 0.0
C67 C 0.22462 0.72588 0.72827 0.0
C68 C 0.24085 0.71339 0.74703 0.0
H69 H 0.30907 0.677 0.82267 0.0
H70 H 0.27307 0.6801 0.79292 0.0
H71 H 0.28467 0.78013 0.79347 0.0
H72 H 0.31996 0.74091 0.724 0.0
H73 H 0.30734 0.77059 0.71163 0.0
H74 H 0.33114 0.7714 0.73813 0.0
H75 H 0.31082 0.79398 0.77561 0.0
H76 H 0.27966 0.79927 0.76334 0.0
C77 C 0.22453 0.68623 0.78791 0.0
C78 C 0.24713 0.66393 0.74583 0.0
C79 C 0.22907 0.81328 0.67657 0.0
C80 C 0.24701 0.83329 0.67542 0.0
C81 C 0.26869 0.83056 0.69169 0.0
C82 C 0.27254 0.80832 0.70853 0.0
C83 C 0.25454 0.78842 0.70927 0.0
C84 C 0.23324 0.79112 0.69346 0.0
C85 C 0.21624 0.76789 0.69661 0.0
C86 C 0.23081 0.75087 0.71693 0.0
C87 C 0.25324 0.76299 0.72435 0.0
C88 C 0.19165 0.77767 0.70962 0.0
C89 C 0.21344 0.75465 0.66748 0.0
C90 C 0.32278 0.73513 0.79043 0.0
C91 C 0.32558 0.71348 0.80855 0.0
C92 C 0.30722 0.69385 0.80892 0.0
C93 C 0.28634 0.69572 0.79163 0.0
C94 C 0.28351 0.71764 0.77396 0.0
C95 C 0.30151 0.73695 0.77359 0.0
C96 C 0.29468 0.75939 0.75442 0.0
C97 C 0.2697 0.75031 0.74336 0.0
C98 C 0.26342 0.72573 0.75473 0.0
C99 C 0.29246 0.78466 0.7724 0.0
C100 C 0.31429 0.76095 0.73082 0.0
H101 H 0.17699 0.72799 0.69593 0.0
H102 H 0.19315 0.64832 0.75314 0.0
H103 H 0.24586 0.66178 0.72263 0.0
H104 H 0.26696 0.66697 0.75025 0.0
H105 H 0.24123 0.64504 0.75539 0.0
H106 H 0.20596 0.69474 0.79223 0.0
H107 H 0.22453 0.66578 0.79608 0.0
H108 H 0.23735 0.69831 0.80059 0.0
H109 H 0.21234 0.81453 0.66413 0.0
H110 H 0.28269 0.84579 0.69154 0.0
H111 H 0.28943 0.80748 0.72032 0.0
H112 H 0.19505 0.79384 0.72488 0.0
H113 H 0.17897 0.78531 0.69319 0.0
H114 H 0.18201 0.76235 0.72186 0.0
H115 H 0.23123 0.75518 0.65575 0.0
H116 H 0.20862 0.73361 0.66883 0.0
H117 H 0.19934 0.7649 0.65453 0.0
H118 H 0.14633 0.6937 0.69762 0.0
C119 C 0.18112 0.71105 0.70849 0.0
C120 C 0.8229 0.69267 0.23782 0.0
C121 C 0.82707 0.67368 0.21687 0.0
C122 C 0.8083 0.6686 0.19707 0.0
C123 C 0.78151 0.70039 0.21978 0.0
C124 C 0.80015 0.70584 0.23876 0.0
C125 C 0.79279 0.7268 0.25944 0.0
H126 H 0.70624 0.81076 0.30988 0.0
C127 C 0.75998 0.71703 0.22695 0.0
C128 C 0.76653 0.73273 0.25002 0.0
H129 H 0.78165 0.79983 0.33798 0.0
H130 H 0.78801 0.76695 0.30259 0.0
H131 H 0.6943 0.74865 0.29972 0.0
H132 H 0.71925 0.80945 0.24334 0.0
H133 H 0.69685 0.79058 0.22576 0.0
H134 H 0.68828 0.80864 0.25687 0.0
H135 H 0.67479 0.77539 0.28902 0.0
H136 H 0.67758 0.74598 0.26817 0.0
C137 C 0.7935 0.71463 0.28925 0.0
C138 C 0.81021 0.75072 0.25532 0.0
C139 C 0.68017 0.7069 0.17173 0.0
C140 C 0.65699 0.71939 0.17305 0.0
C141 C 0.65329 0.73907 0.19357 0.0
C142 C 0.67222 0.7461 0.21232 0.0
C143 C 0.69526 0.73344 0.21062 0.0
C144 C 0.69891 0.71426 0.19049 0.0
C145 C 0.72466 0.70319 0.19132 0.0
C146 C 0.73583 0.71873 0.21539 0.0
C147 C 0.71854 0.7364 0.22675 0.0
C148 C 0.72275 0.67351 0.19826 0.0
C149 C 0.73745 0.70942 0.16295 0.0
C150 C 0.72415 0.80138 0.3083 0.0
C151 C 0.74335 0.80782 0.32715 0.0
C152 C 0.76633 0.79494 0.32429 0.0
C153 C 0.77009 0.77592 0.3035 0.0
C154 C 0.75075 0.76953 0.28507 0.0
C155 C 0.72826 0.78222 0.28752 0.0
C156 C 0.70997 0.77287 0.26578 0.0
C157 C 0.72525 0.75258 0.24995 0.0
C158 C 0.74911 0.75072 0.26145 0.0
C159 C 0.68783 0.76017 0.28127 0.0
C160 C 0.70296 0.79652 0.24695 0.0
H161 H 0.77196 0.67677 0.18297 0.0
H162 H 0.8371 0.69727 0.2531 0.0
H163 H 0.81634 0.75238 0.23309 0.0
H164 H 0.80106 0.76968 0.25979 0.0
H165 H 0.82705 0.74895 0.26855 0.0
H166 H 0.78639 0.69411 0.28891 0.0
H167 H 0.81268 0.71407 0.29756 0.0
H168 H 0.7816 0.72505 0.30441 0.0
H169 H 0.68373 0.69155 0.15651 0.0
H170 H 0.63586 0.74946 0.19484 0.0
H171 H 0.66822 0.76126 0.2273 0.0
H172 H 0.70821 0.66993 0.21433 0.0
H173 H 0.71782 0.66194 0.17928 0.0
H174 H 0.73985 0.66537 0.2074 0.0
H175 H 0.73027 0.72801 0.15371 0.0
H176 H 0.75755 0.71277 0.16517 0.0
H177 H 0.73425 0.69351 0.1474 0.0
H178 H 0.811 0.65394 0.18086 0.0
C179 C 0.78557 0.68178 0.19845 0.0
C180 C 0.68429 0.30146 0.81049 0.0
C181 C 0.66307 0.28593 0.81479 0.0
C182 C 0.65982 0.26325 0.79804 0.0
C183 C 0.69845 0.27176 0.77383 0.0
C184 C 0.70168 0.29397 0.79016 0.0
C185 C 0.72554 0.30789 0.78367 0.0
H186 H 0.8346 0.31105 0.71388 0.0
C187 C 0.72022 0.26913 0.7552 0.0
C188 C 0.73623 0.2902 0.76103 0.0
H189 H 0.80594 0.36801 0.77272 0.0
H190 H 0.76832 0.34278 0.77756 0.0
H191 H 0.78503 0.30633 0.67966 0.0
H192 H 0.81505 0.25847 0.74576 0.0
H193 H 0.80302 0.2372 0.72004 0.0
H194 H 0.82773 0.25942 0.71096 0.0
H195 H 0.80905 0.28279 0.67329 0.0
H196 H 0.77677 0.27388 0.67163 0.0
C197 C 0.71931 0.33565 0.77226 0.0
C198 C 0.7416 0.30784 0.81061 0.0
C199 C 0.72537 0.19398 0.68436 0.0
C200 C 0.74351 0.18668 0.66458 0.0
C201 C 0.7657 0.20126 0.66346 0.0
C202 C 0.76957 0.22293 0.68102 0.0
C203 C 0.75113 0.23031 0.70018 0.0
C204 C 0.72956 0.21581 0.70185 0.0
C205 C 0.7123 0.22646 0.72396 0.0
C206 C 0.72679 0.25012 0.73456 0.0
C207 C 0.74955 0.25219 0.72054 0.0
C208 C 0.68791 0.23473 0.70942 0.0
C209 C 0.70912 0.20521 0.74698 0.0
C210 C 0.82025 0.31789 0.72796 0.0
C211 C 0.82323 0.34137 0.74314 0.0
C212 C 0.80397 0.34999 0.76079 0.0
C213 C 0.78221 0.33525 0.76363 0.0
C214 C 0.77951 0.31171 0.74848 0.0
C215 C 0.79821 0.3036 0.73069 0.0
C216 C 0.79148 0.27894 0.71499 0.0
C217 C 0.76592 0.27327 0.72677 0.0
C218 C 0.75914 0.29235 0.74661 0.0
C219 C 0.79066 0.28556 0.6832 0.0
C220 C 0.8103 0.25728 0.72306 0.0
H221 H 0.67371 0.23867 0.76572 0.0
H222 H 0.68737 0.31915 0.82264 0.0
H223 H 0.74026 0.28856 0.82154 0.0
H224 H 0.76148 0.31059 0.8064 0.0
H225 H 0.73539 0.32327 0.82552 0.0
H226 H 0.70135 0.33567 0.76086 0.0
H227 H 0.71792 0.35021 0.78957 0.0
H228 H 0.7329 0.34268 0.75665 0.0
H229 H 0.70812 0.18328 0.68588 0.0
H230 H 0.78031 0.19577 0.64907 0.0
H231 H 0.78683 0.23311 0.67895 0.0
H232 H 0.69182 0.24486 0.6892 0.0
H233 H 0.67619 0.21733 0.70477 0.0
H234 H 0.67702 0.24887 0.72187 0.0
H235 H 0.72625 0.19331 0.74939 0.0
H236 H 0.70585 0.21367 0.76801 0.0
H237 H 0.69381 0.19151 0.74173 0.0
H238 H 0.64398 0.25056 0.80109 0.0
C239 C 0.67728 0.25617 0.77762 0.0
C240 C 0.80373 0.81589 0.71212 0.0
C241 C 0.78671 0.83609 0.70622 0.0
C242 C 0.76434 0.83702 0.72141 0.0
C243 C 0.77612 0.79831 0.74771 0.0
C244 C 0.79806 0.79729 0.73291 0.0
C245 C 0.81387 0.77438 0.74176 0.0
H246 H 0.82672 0.66276 0.81781 0.0
C247 C 0.77572 0.77608 0.76761 0.0
C248 C 0.7978 0.76199 0.7644 0.0
H249 H 0.87823 0.69748 0.759 0.0
H250 H 0.85108 0.73429 0.75254 0.0
H251 H 0.81571 0.71755 0.84994 0.0
H252 H 0.77561 0.6774 0.78437 0.0
H253 H 0.75502 0.68688 0.8113 0.0
H254 H 0.77957 0.66426 0.81911 0.0
H255 H 0.79657 0.68957 0.85728 0.0
H256 H 0.78404 0.72247 0.85609 0.0
C257 C 0.83844 0.78525 0.75387 0.0
C258 C 0.81699 0.75607 0.71601 0.0
C259 C 0.70055 0.76306 0.82953 0.0
C260 C 0.69474 0.74511 0.85087 0.0
C261 C 0.71205 0.72551 0.85804 0.0
C262 C 0.7347 0.72358 0.84373 0.0
C263 C 0.74018 0.74163 0.82223 0.0
C264 C 0.72331 0.76114 0.81579 0.0
C265 C 0.73255 0.77943 0.79343 0.0
C266 C 0.75771 0.76766 0.7873 0.0
C267 C 0.76203 0.7453 0.80389 0.0
C268 C 0.73457 0.8074 0.80625 0.0
C269 C 0.71489 0.77724 0.76786 0.0
C270 C 0.83224 0.67839 0.80373 0.0
C271 C 0.85449 0.67674 0.7884 0.0
C272 C 0.86092 0.69771 0.77042 0.0
C273 C 0.84516 0.71923 0.76676 0.0
C274 C 0.82262 0.72006 0.78128 0.0
C275 C 0.81667 0.7002 0.79989 0.0
C276 C 0.79228 0.70516 0.81428 0.0
C277 C 0.78427 0.73072 0.80042 0.0
C278 C 0.8021 0.73921 0.78096 0.0
C279 C 0.79718 0.70872 0.84611 0.0
C280 C 0.77458 0.68223 0.80713 0.0
H281 H 0.74162 0.8202 0.75267 0.0
H282 H 0.82113 0.81465 0.70096 0.0
H283 H 0.79939 0.75459 0.70401 0.0
H284 H 0.82164 0.73565 0.72171 0.0
H285 H 0.83138 0.76371 0.70151 0.0
H286 H 0.83562 0.80472 0.76402 0.0
H287 H 0.85251 0.78781 0.73712 0.0
H288 H 0.84616 0.7727 0.77067 0.0
H289 H 0.68776 0.7786 0.82393 0.0
H290 H 0.70786 0.71145 0.87445 0.0
H291 H 0.74703 0.70809 0.84986 0.0
H292 H 0.73875 0.80653 0.82911 0.0
H293 H 0.71703 0.81849 0.80369 0.0
H294 H 0.74993 0.81899 0.79724 0.0
H295 H 0.7084 0.75665 0.76504 0.0
H296 H 0.72386 0.78232 0.74776 0.0
H297 H 0.6983 0.78982 0.7707 0.0
H298 H 0.75064 0.85196 0.71695 0.0
C299 C 0.75901 0.81836 0.74207 0.0
C300 C 0.79435 0.19522 0.32859 0.0
C301 C 0.77741 0.17428 0.32974 0.0
C302 C 0.75722 0.17397 0.31105 0.0
C303 C 0.77079 0.21507 0.29067 0.0
C304 C 0.79058 0.21545 0.30903 0.0
C305 C 0.80616 0.23976 0.30553 0.0
H306 H 0.82953 0.35306 0.23585 0.0
C307 C 0.77218 0.23881 0.27294 0.0
C308 C 0.79284 0.2534 0.28147 0.0
H309 H 0.8668 0.32175 0.30906 0.0
H310 H 0.83981 0.2843 0.30881 0.0
H311 H 0.77338 0.33952 0.2593 0.0
H312 H 0.82267 0.29856 0.20302 0.0
H313 H 0.79246 0.29588 0.18967 0.0
H314 H 0.80667 0.32789 0.19258 0.0
H315 H 0.78204 0.35234 0.22557 0.0
H316 H 0.75687 0.32951 0.22926 0.0
C317 C 0.80487 0.25589 0.33315 0.0
C318 C 0.83256 0.23108 0.2971 0.0
C319 C 0.70669 0.25364 0.19853 0.0
C320 C 0.70362 0.27254 0.17741 0.0
C321 C 0.72155 0.29241 0.17419 0.0
C322 C 0.74198 0.29381 0.19241 0.0
C323 C 0.74457 0.27498 0.21385 0.0
C324 C 0.72731 0.25504 0.21618 0.0
C325 C 0.73365 0.23577 0.23889 0.0
C326 C 0.75721 0.24775 0.25044 0.0
C327 C 0.76343 0.27091 0.23602 0.0
C328 C 0.7125 0.2361 0.26085 0.0
C329 C 0.7383 0.20861 0.22499 0.0
C330 C 0.83177 0.33831 0.25203 0.0
C331 C 0.85065 0.34048 0.27236 0.0
C332 C 0.85291 0.32049 0.29275 0.0
C333 C 0.83701 0.29877 0.29276 0.0
C334 C 0.81835 0.29693 0.27237 0.0
C335 C 0.81579 0.31659 0.25258 0.0
C336 C 0.79427 0.31163 0.23315 0.0
C337 C 0.78431 0.28588 0.24472 0.0
C338 C 0.79871 0.27728 0.26752 0.0
C339 C 0.77559 0.33443 0.23673 0.0
C340 C 0.80433 0.30848 0.20292 0.0
H341 H 0.73809 0.19273 0.27797 0.0
H342 H 0.80985 0.19612 0.34297 0.0
H343 H 0.83178 0.21516 0.28109 0.0
H344 H 0.84348 0.24698 0.2874 0.0
H345 H 0.84286 0.22341 0.31554 0.0
H346 H 0.78748 0.25188 0.34488 0.0
H347 H 0.82055 0.25108 0.34732 0.0
H348 H 0.80454 0.27734 0.32938 0.0
H349 H 0.6934 0.23787 0.20107 0.0
H350 H 0.71948 0.3071 0.1579 0.0
H351 H 0.7549 0.30953 0.18917 0.0
H352 H 0.70543 0.25643 0.26399 0.0
H353 H 0.69673 0.22371 0.25391 0.0
H354 H 0.71848 0.22959 0.28189 0.0
H355 H 0.74512 0.21079 0.20307 0.0
H356 H 0.7529 0.19716 0.23568 0.0
H357 H 0.72108 0.19673 0.22416 0.0
H358 H 0.74406 0.15792 0.31142 0.0
C359 C 0.75385 0.19417 0.29154 0.0
C360 C 0.28074 0.20593 0.69805 0.0
C361 C 0.26506 0.20749 0.67456 0.0
C362 C 0.24627 0.22679 0.67435 0.0
C363 C 0.25827 0.24123 0.72098 0.0
C364 C 0.27713 0.22295 0.72071 0.0
C365 C 0.29244 0.22371 0.74696 0.0
H366 H 0.31774 0.2773 0.87329 0.0
C367 C 0.25913 0.25506 0.74833 0.0
C368 C 0.27922 0.24495 0.76348 0.0
H369 H 0.35872 0.21838 0.82739 0.0
H370 H 0.32808 0.21853 0.79091 0.0
H371 H 0.26249 0.2521 0.85972 0.0
H372 H 0.30459 0.31365 0.81971 0.0
H373 H 0.27384 0.3243 0.82412 0.0
H374 H 0.29223 0.31677 0.85456 0.0
H375 H 0.26623 0.28389 0.87551 0.0
H376 H 0.24198 0.2774 0.85038 0.0
C377 C 0.29043 0.19653 0.76153 0.0
C378 C 0.31914 0.23194 0.73873 0.0
C379 C 0.19369 0.32296 0.7724 0.0
C380 C 0.18886 0.33816 0.79644 0.0
C381 C 0.20457 0.33558 0.81993 0.0
C382 C 0.2249 0.31839 0.81931 0.0
C383 C 0.22955 0.30346 0.79501 0.0
C384 C 0.2139 0.30578 0.77218 0.0
C385 C 0.22114 0.28792 0.7484 0.0
C386 C 0.24376 0.27454 0.76062 0.0
C387 C 0.24875 0.2838 0.7879 0.0
C388 C 0.19969 0.2683 0.74335 0.0
C389 C 0.22769 0.30515 0.72263 0.0
C390 C 0.3198 0.26426 0.85547 0.0
C391 C 0.3407 0.24791 0.853 0.0
C392 C 0.34292 0.23132 0.82951 0.0
C393 C 0.32511 0.2315 0.8083 0.0
C394 C 0.30484 0.24862 0.81036 0.0
C395 C 0.30217 0.26443 0.83376 0.0
C396 C 0.27945 0.28158 0.83177 0.0
C397 C 0.26951 0.27394 0.80298 0.0
C398 C 0.28451 0.25457 0.79075 0.0
C399 C 0.26154 0.27361 0.85564 0.0
C400 C 0.28776 0.31067 0.83274 0.0
H401 H 0.22802 0.25763 0.69607 0.0
H402 H 0.29519 0.19126 0.69929 0.0
H403 H 0.31936 0.24373 0.71905 0.0
H404 H 0.3279 0.2449 0.75452 0.0
H405 H 0.33109 0.2145 0.73525 0.0
H406 H 0.27138 0.18846 0.75949 0.0
H407 H 0.30335 0.18212 0.75197 0.0
H408 H 0.29387 0.1974 0.78437 0.0
H409 H 0.18175 0.32412 0.75417 0.0
H410 H 0.20134 0.34716 0.83864 0.0
H411 H 0.23628 0.31744 0.83774 0.0
H412 H 0.19146 0.26188 0.76363 0.0
H413 H 0.18475 0.27744 0.73067 0.0
H414 H 0.20567 0.25 0.73296 0.0
H415 H 0.23653 0.3239 0.72928 0.0
H416 H 0.24135 0.29578 0.7086 0.0
H417 H 0.2109 0.31018 0.71033 0.0
H418 H 0.23416 0.2289 0.65639 0.0
C419 C 0.24277 0.24358 0.69741 0.0
C420 C 0.19499 0.69134 0.27632 0.0
C421 C 0.19216 0.66972 0.25829 0.0
C422 C 0.21039 0.66476 0.23783 0.0
C423 C 0.23317 0.70346 0.25273 0.0
C424 C 0.21565 0.7077 0.27339 0.0
C425 C 0.22177 0.731 0.29149 0.0
H426 H 0.2973 0.83352 0.3207 0.0
C427 C 0.25199 0.72452 0.25494 0.0
C428 C 0.2455 0.74049 0.2779 0.0
H429 H 0.23148 0.80946 0.36524 0.0
H430 H 0.22594 0.77317 0.33316 0.0
H431 H 0.2757 0.82777 0.26219 0.0
H432 H 0.31959 0.77444 0.31092 0.0
H433 H 0.33132 0.77389 0.2765 0.0
H434 H 0.33121 0.80433 0.29586 0.0
H435 H 0.30874 0.83017 0.2631 0.0
H436 H 0.29295 0.81012 0.23742 0.0
C437 C 0.20063 0.75135 0.28848 0.0
C438 C 0.22609 0.72111 0.32189 0.0
C439 C 0.32114 0.73265 0.18246 0.0
C440 C 0.34016 0.75133 0.17877 0.0
C441 C 0.34224 0.77213 0.1982 0.0
C442 C 0.32606 0.77422 0.22091 0.0
C443 C 0.30725 0.75551 0.22433 0.0
C444 C 0.30487 0.7352 0.20528 0.0
C445 C 0.28326 0.71758 0.21223 0.0
C446 C 0.27304 0.73095 0.23837 0.0
C447 C 0.28737 0.75302 0.24531 0.0
C448 C 0.26482 0.71863 0.18741 0.0
C449 C 0.29329 0.68973 0.21872 0.0
C450 C 0.28191 0.82018 0.32377 0.0
C451 C 0.26487 0.82425 0.34555 0.0
C452 C 0.24477 0.8068 0.34847 0.0
C453 C 0.24164 0.78569 0.32988 0.0
C454 C 0.25871 0.78204 0.308 0.0
C455 C 0.27842 0.79914 0.30528 0.0
C456 C 0.2943 0.7928 0.28036 0.0
C457 C 0.28119 0.76869 0.2689 0.0
C458 C 0.26038 0.76248 0.28511 0.0
C459 C 0.29312 0.81637 0.25967 0.0
C460 C 0.32058 0.78615 0.29122 0.0
H461 H 0.24395 0.67698 0.21872 0.0
H462 H 0.18147 0.69532 0.29255 0.0
H463 H 0.23414 0.70098 0.32196 0.0
H464 H 0.23959 0.73319 0.33358 0.0
H465 H 0.20848 0.72033 0.33385 0.0
H466 H 0.19396 0.75225 0.2664 0.0
H467 H 0.18463 0.74605 0.30195 0.0
H468 H 0.20647 0.77159 0.29352 0.0
H469 H 0.31904 0.71632 0.16807 0.0
H470 H 0.35622 0.78718 0.19565 0.0
H471 H 0.3288 0.79051 0.23482 0.0
H472 H 0.26258 0.73918 0.17984 0.0
H473 H 0.27151 0.70657 0.16952 0.0
H474 H 0.24608 0.71201 0.1931 0.0
H475 H 0.31162 0.69081 0.22929 0.0
H476 H 0.2814 0.67872 0.23345 0.0
H477 H 0.29563 0.67809 0.19917 0.0
H478 H 0.20853 0.64816 0.22374 0.0
C479 C 0.23083 0.68158 0.23487 0.0
C480 C 0.97426 0.48873 0.26254 0.0
C481 C 0.04251 0.55192 0.25969 0.0
O482 O 0.98555 0.49868 0.28344 0.0
Zn483 Zn 0.00827 0.52032 0.26207 0.0
O484 O 0.98065 0.4952 0.23754 0.0
Zn485 Zn 1.0073 0.52014 0.21718 0.0
O486 O 0.02782 0.49504 0.19657 0.0
O487 O 0.03026 0.49083 0.24261 0.0
O488 O 0.03438 0.54581 0.23526 0.0
O489 O 0.03291 0.54144 0.28132 0.0
O490 O 0.98402 0.54879 0.24333 0.0
O491 O 0.98574 0.54418 0.19725 0.0
C492 C 0.03632 0.48313 0.21798 0.0
C493 C 0.97693 0.55574 0.21871 0.0
C494 C 0.97454 0.45633 0.74549 0.0
C495 C 0.03645 0.52631 0.74304 0.0
O496 O 0.98152 0.46341 0.77013 0.0
Zn497 Zn 1.00686 0.49146 0.78839 0.0
O498 O 0.98418 0.46707 0.72403 0.0
Zn499 Zn 1.00605 0.49067 0.74374 0.0
O500 O 0.03266 0.46487 0.7626 0.0
O501 O 0.0304 0.46962 0.80853 0.0
O502 O 0.02681 0.51442 0.72226 0.0
O503 O 0.03046 0.51954 0.76806 0.0
O504 O 0.98482 0.51456 0.80921 0.0
O505 O 0.98001 0.51678 0.76324 0.0
C506 C 0.04029 0.4588 0.78726 0.0
C507 C 0.97373 0.52412 0.78798 0.0
C508 C 0.23527 0.98846 0.54412 0.0
C509 C 0.23609 0.05005 0.46413 0.0
O510 O 0.21616 0.9975 0.53175 0.0
Zn511 Zn 0.23379 0.01953 0.50463 0.0
O512 O 0.25683 0.9956 0.53595 0.0
Zn513 Zn 0.27393 0.01975 0.50467 0.0
O514 O 0.29117 0.04607 0.52706 0.0
O515 O 0.2505 0.04803 0.53113 0.0
O516 O 0.25743 0.0431 0.47304 0.0
O517 O 0.21683 0.04134 0.47636 0.0
O518 O 0.25102 0.98974 0.48037 0.0
O519 O 0.29169 0.99362 0.48243 0.0
C520 C 0.27201 0.05645 0.5379 0.0
C521 C 0.27259 0.98153 0.4736 0.0
C522 C 0.52621 0.70506 0.02457 0.0
C523 C 0.46693 0.71075 0.9465 0.0
O524 O 0.51807 0.68574 0.0103 0.0
Zn525 Zn 0.49764 0.70645 0.98433 0.0
O526 O 0.51993 0.72848 0.01788 0.0
Zn527 Zn 0.49815 0.74854 0.98758 0.0
O528 O 0.47538 0.7667 0.01204 0.0
O529 O 0.47057 0.72352 0.01206 0.0
O530 O 0.4735 0.7331 0.95647 0.0
O531 O 0.47681 0.68984 0.95598 0.0
O532 O 0.52508 0.72526 0.95948 0.0
O533 O 0.523 0.76804 0.96663 0.0
C534 C 0.46406 0.74635 0.02081 0.0
C535 C 0.53315 0.74848 0.95468 0.0
C536 C 0.7839 0.96117 0.5436 0.0
C537 C 0.78232 0.02275 0.46523 0.0
O538 O 0.76192 0.9672 0.5358 0.0
Zn539 Zn 0.74424 0.99078 0.50441 0.0
O540 O 0.80234 0.97062 0.5305 0.0
Zn541 Zn 0.78374 0.99138 0.50379 0.0
O542 O 0.76661 0.0207 0.52977 0.0
O543 O 0.72611 0.01604 0.52739 0.0
O544 O 0.80134 0.01326 0.47721 0.0
O545 O 0.76069 0.01576 0.47337 0.0
O546 O 0.72658 0.96515 0.48149 0.0
O547 O 0.76709 0.96194 0.47763 0.0
C548 C 0.74488 0.02819 0.53699 0.0
C549 C 0.7454 0.95393 0.47087 0.0
C550 C 0.55322 0.26726 0.053 0.0
C551 C 0.48327 0.26166 0.98808 0.0
O552 O 0.54344 0.24643 0.04329 0.0
Zn553 Zn 0.51817 0.26321 0.02054 0.0
O554 O 0.54491 0.28976 0.04544 0.0
Zn555 Zn 0.51729 0.30541 0.01811 0.0
O556 O 0.49574 0.3249 0.0436 0.0
O557 O 0.49486 0.28202 0.05061 0.0
O558 O 0.49049 0.28518 0.99314 0.0
O559 O 0.494 0.24238 1.0 0.0
O560 O 0.5393 0.27987 0.98716 0.0
O561 O 0.53713 0.32313 0.98939 0.0
C562 C 0.48753 0.30517 0.05714 0.0
C563 C 0.5452 0.30248 0.9774 0.0
H564 H 0.14688 0.36052 0.18097 0.0
H565 H 0.14094 0.36784 0.27096 0.0
H566 H 0.1144 0.39365 0.1751 0.0
H567 H 0.10941 0.40138 0.26534 0.0
H568 H 0.03778 0.44087 0.25198 0.0
H569 H 0.0679 0.40556 0.25255 0.0
H570 H 0.10393 0.43927 0.17996 0.0
H571 H 0.07262 0.47415 0.17869 0.0
C572 C 0.13873 0.36939 0.19945 0.0
C573 C 0.14615 0.3614 0.22642 0.0
C574 C 0.12021 0.38842 0.19612 0.0
C575 C 0.10894 0.39999 0.21973 0.0
C576 C 0.11701 0.39238 0.24664 0.0
C577 C 0.13521 0.37322 0.24993 0.0
C578 C 0.05197 0.44056 0.23593 0.0
C579 C 0.05305 0.46035 0.21546 0.0
C580 C 0.06941 0.42044 0.23639 0.0
C581 C 0.08882 0.41985 0.21677 0.0
C582 C 0.08925 0.43903 0.19539 0.0
C583 C 0.07137 0.45904 0.19464 0.0
H584 H 0.15424 0.63809 0.77094 0.0
H585 H 0.13606 0.65051 0.68356 0.0
H586 H 0.12329 0.60379 0.77371 0.0
H587 H 0.10366 0.61739 0.68695 0.0
H588 H 0.06389 0.53767 0.69605 0.0
H589 H 0.09555 0.57166 0.69104 0.0
H590 H 0.08049 0.59813 0.77558 0.0
H591 H 0.04989 0.56363 0.78088 0.0
C592 C 0.14369 0.63352 0.75224 0.0
C593 C 0.14784 0.64714 0.72699 0.0
C594 C 0.12555 0.61406 0.75397 0.0
C595 C 0.11068 0.60788 0.73063 0.0
C596 C 0.11484 0.62141 0.70531 0.0
C597 C 0.13323 0.64072 0.70349 0.0
C598 C 0.06737 0.55084 0.71348 0.0
C599 C 0.05457 0.5478 0.73894 0.0
C600 C 0.08544 0.57042 0.7106 0.0
C601 C 0.09086 0.58757 0.73301 0.0
C602 C 0.0774 0.58491 0.75811 0.0
C603 C 0.05967 0.56519 0.7611 0.0
H604 H 0.8505 0.65005 0.26072 0.0
H605 H 0.85638 0.66288 0.17143 0.0
H606 H 0.88781 0.62344 0.25968 0.0
H607 H 0.89438 0.63694 0.17035 0.0
H608 H 0.9447 0.56351 0.17505 0.0
H609 H 0.90944 0.59345 0.17381 0.0
H610 H 0.93079 0.62446 0.25481 0.0
H611 H 0.96515 0.59374 0.2565 0.0
C612 C 0.86007 0.64753 0.24093 0.0
C613 C 0.85054 0.65856 0.21618 0.0
C614 C 0.88157 0.63233 0.24029 0.0
C615 C 0.89433 0.62805 0.21493 0.0
C616 C 0.88492 0.63943 0.1902 0.0
C617 C 0.8632 0.65439 0.1908 0.0
C618 C 0.94195 0.57696 0.19241 0.0
C619 C 0.95753 0.5761 0.21598 0.0
C620 C 0.92177 0.59421 0.1917 0.0
C621 C 0.91695 0.61123 0.2144 0.0
C622 C 0.9334 0.61119 0.23729 0.0
C623 C 0.95328 0.5937 0.23818 0.0
H624 H 0.82778 0.39356 0.73131 0.0
H625 H 0.87063 0.32414 0.74974 0.0
H626 H 0.86582 0.41966 0.72926 0.0
H627 H 0.9087 0.35036 0.7482 0.0
H628 H 0.96023 0.419 0.78319 0.0
H629 H 0.92455 0.38961 0.78016 0.0
H630 H 0.90678 0.42114 0.69853 0.0
H631 H 0.94282 0.45024 0.70122 0.0
C632 C 0.84536 0.38392 0.73485 0.0
C633 C 0.84633 0.35689 0.74074 0.0
C634 C 0.86709 0.39878 0.73349 0.0
C635 C 0.89015 0.38698 0.73855 0.0
C636 C 0.89114 0.3599 0.74427 0.0
C637 C 0.86943 0.34493 0.74505 0.0
C638 C 0.9489 0.41943 0.76444 0.0
C639 C 0.95431 0.43694 0.74245 0.0
C640 C 0.92856 0.40255 0.76268 0.0
C641 C 0.91292 0.4032 0.73915 0.0
C642 C 0.91852 0.42036 0.71694 0.0
C643 C 0.9392 0.43687 0.71843 0.0
H644 H 0.28066 0.1751 0.35522 0.0
H645 H 0.20689 0.16006 0.32444 0.0
H646 H 0.27558 0.14084 0.39026 0.0
H647 H 0.20179 0.12543 0.35973 0.0
H648 H 0.19744 0.08214 0.44752 0.0
H649 H 0.19865 0.11637 0.4111 0.0
H650 H 0.27332 0.09351 0.39024 0.0
H651 H 0.27229 0.06015 0.42646 0.0
C652 C 0.26341 0.16431 0.35576 0.0
C653 C 0.24434 0.17012 0.33672 0.0
C654 C 0.26047 0.14463 0.3759 0.0
C655 C 0.23839 0.13007 0.37758 0.0
C656 C 0.21898 0.13632 0.35909 0.0
C657 C 0.22193 0.15614 0.33886 0.0
C658 C 0.21395 0.08432 0.43489 0.0
C659 C 0.23487 0.06867 0.44017 0.0
C660 C 0.21467 0.10389 0.41404 0.0
C661 C 0.23629 0.10805 0.39813 0.0
C662 C 0.25663 0.09142 0.4026 0.0
C663 C 0.25596 0.07213 0.42333 0.0
H664 H 0.37487 0.71627 0.79579 0.0
H665 H 0.32432 0.70684 0.86514 0.0
H666 H 0.41001 0.71352 0.82855 0.0
H667 H 0.35933 0.70483 0.89777 0.0
H668 H 0.43095 0.74704 0.93827 0.0
H669 H 0.39724 0.7461 0.90421 0.0
H670 H 0.42381 0.6721 0.87209 0.0
H671 H 0.45748 0.6725 0.90696 0.0
C672 C 0.37133 0.71363 0.81799 0.0
C673 C 0.34694 0.71175 0.82799 0.0
C674 C 0.39135 0.71188 0.83661 0.0
C675 C 0.38723 0.70881 0.86553 0.0
C676 C 0.36289 0.70703 0.87551 0.0
C677 C 0.34294 0.70819 0.85689 0.0
C678 C 0.42973 0.73055 0.92394 0.0
C679 C 0.44691 0.70983 0.92527 0.0
C680 C 0.41039 0.73004 0.90454 0.0
C681 C 0.40809 0.7091 0.88561 0.0
C682 C 0.42536 0.68849 0.8865 0.0
C683 C 0.44449 0.68868 0.90645 0.0
H684 H 0.76026 0.80622 0.38126 0.0
H685 H 0.71859 0.85508 0.32412 0.0
H686 H 0.75866 0.84076 0.41656 0.0
H687 H 0.71666 0.88961 0.35988 0.0
H688 H 0.70366 0.93713 0.44282 0.0
H689 H 0.70054 0.90097 0.40884 0.0
H690 H 0.77833 0.88485 0.41955 0.0
H691 H 0.78148 0.9206 0.45317 0.0
C692 C 0.75073 0.82433 0.37619 0.0
C693 C 0.73993 0.82798 0.3496 0.0
C694 C 0.74976 0.84411 0.3965 0.0
C695 C 0.73779 0.86805 0.39091 0.0
C696 C 0.72592 0.87132 0.36487 0.0
C697 C 0.72702 0.85152 0.34439 0.0
C698 C 0.72003 0.92575 0.43797 0.0
C699 C 0.74281 0.93176 0.45076 0.0
C700 C 0.71827 0.90517 0.41842 0.0
C701 C 0.73916 0.88995 0.41162 0.0
C702 C 0.76181 0.89592 0.42459 0.0
C703 C 0.76364 0.91657 0.44378 0.0
H704 H 0.61255 0.28073 0.81311 0.0
H705 H 0.67194 0.30667 0.86723 0.0
H706 H 0.58309 0.28797 0.85104 0.0
H707 H 0.64221 0.31463 0.90482 0.0
H708 H 0.57573 0.34262 0.95963 0.0
H709 H 0.60363 0.34208 0.91882 0.0
H710 H 0.57774 0.26436 0.89737 0.0
H711 H 0.55036 0.26474 0.93779 0.0
C712 C 0.61938 0.28803 0.83302 0.0
C713 C 0.64476 0.29275 0.83711 0.0
C714 C 0.60243 0.29235 0.85469 0.0
C715 C 0.61037 0.30176 0.88093 0.0
C716 C 0.63552 0.30762 0.88472 0.0
C717 C 0.65255 0.30306 0.86311 0.0
C718 C 0.57591 0.32558 0.94599 0.0
C719 C 0.56095 0.30369 0.95199 0.0
C720 C 0.59192 0.32521 0.92277 0.0
C721 C 0.59279 0.3032 0.90488 0.0
C722 C 0.57731 0.28171 0.91056 0.0
C723 C 0.56174 0.28188 0.93387 0.0
H724 H 0.28137 0.85704 0.64202 0.0
H725 H 0.20469 0.8622 0.66661 0.0
H726 H 0.27634 0.89547 0.61231 0.0
H727 H 0.19962 0.90103 0.6368 0.0
H728 H 0.19766 0.95326 0.55493 0.0
H729 H 0.19901 0.91602 0.58766 0.0
H730 H 0.27054 0.94193 0.6171 0.0
H731 H 0.26945 0.97833 0.58423 0.0
C732 C 0.26347 0.86657 0.64134 0.0
C733 C 0.24352 0.85665 0.65695 0.0
C734 C 0.26056 0.88867 0.62429 0.0
C735 C 0.23763 0.90163 0.6224 0.0
C736 C 0.2175 0.89148 0.63762 0.0
C737 C 0.22041 0.86923 0.65471 0.0
C738 C 0.21344 0.95116 0.56877 0.0
C739 C 0.23357 0.96854 0.56676 0.0
C740 C 0.21424 0.92984 0.5875 0.0
C741 C 0.23514 0.92564 0.60462 0.0
C742 C 0.25449 0.94405 0.60369 0.0
C743 C 0.25377 0.96508 0.58495 0.0
H744 H 0.66144 0.70678 0.11713 0.0
H745 H 0.60703 0.71609 0.18283 0.0
H746 H 0.62851 0.69797 0.08345 0.0
H747 H 0.57415 0.70796 0.14885 0.0
H748 H 0.52852 0.73558 0.07082 0.0
H749 H 0.55919 0.73472 0.10812 0.0
H750 H 0.59323 0.66655 0.07042 0.0
H751 H 0.56203 0.66732 0.03278 0.0
C752 C 0.64253 0.70653 0.12456 0.0
C753 C 0.63696 0.71242 0.15276 0.0
C754 C 0.62365 0.70144 0.10519 0.0
C755 C 0.59874 0.70234 0.11347 0.0
C756 C 0.59317 0.7074 0.14179 0.0
C757 C 0.61204 0.71227 0.16121 0.0
C758 C 0.5423 0.72012 0.07068 0.0
C759 C 0.54295 0.70156 0.04884 0.0
C760 C 0.5598 0.71955 0.09217 0.0
C761 C 0.57866 0.70061 0.0922 0.0
C762 C 0.57894 0.68146 0.07083 0.0
C763 C 0.56104 0.68176 0.04945 0.0
H764 H 0.75641 0.18352 0.60921 0.0
H765 H 0.72183 0.13865 0.67546 0.0
H766 H 0.75447 0.14542 0.57842 0.0
H767 H 0.71941 0.10051 0.64411 0.0
H768 H 0.70366 0.04518 0.56601 0.0
H769 H 0.70049 0.0839 0.59672 0.0
H770 H 0.77713 0.10204 0.5806 0.0
H771 H 0.7804 0.06377 0.5504 0.0
C772 C 0.74836 0.16554 0.61725 0.0
C773 C 0.73973 0.16407 0.64506 0.0
C774 C 0.74716 0.14373 0.59951 0.0
C775 C 0.73706 0.11989 0.60896 0.0
C776 C 0.72721 0.11867 0.63624 0.0
C777 C 0.72859 0.14054 0.65416 0.0
C778 C 0.71978 0.05748 0.56906 0.0
C779 C 0.74227 0.05137 0.55571 0.0
C780 C 0.71799 0.07954 0.58671 0.0
C781 C 0.73852 0.09609 0.59088 0.0
C782 C 0.7609 0.08989 0.57752 0.0
C783 C 0.76278 0.0678 0.56031 0.0
H784 H 0.36101 0.26024 0.15299 0.0
H785 H 0.36207 0.344 0.16745 0.0
H786 H 0.39931 0.26364 0.12656 0.0
H787 H 0.4008 0.34745 0.14132 0.0
H788 H 0.45343 0.34477 0.0636 0.0
H789 H 0.41737 0.34459 0.09461 0.0
H790 H 0.44223 0.27144 0.13109 0.0
H791 H 0.47752 0.27122 0.09956 0.0
C792 C 0.36965 0.27934 0.1509 0.0
C793 C 0.35848 0.30182 0.16237 0.0
C794 C 0.39171 0.28133 0.13577 0.0
C795 C 0.40334 0.30583 0.13187 0.0
C796 C 0.39226 0.32832 0.14358 0.0
C797 C 0.37007 0.32634 0.1586 0.0
C798 C 0.45135 0.32893 0.0786 0.0
C799 C 0.46816 0.30789 0.07893 0.0
C800 C 0.43069 0.32879 0.09641 0.0
C801 C 0.42658 0.30773 0.11507 0.0
C802 C 0.44433 0.28759 0.11648 0.0
C803 C 0.46472 0.28758 0.09854 0.0
H804 H 0.87944 0.6529 0.74564 0.0
H805 H 0.86608 0.64668 0.83483 0.0
H806 H 0.90702 0.61556 0.74784 0.0
H807 H 0.8928 0.60791 0.83674 0.0
H808 H 0.96561 0.55826 0.83181 0.0
H809 H 0.93552 0.59422 0.83347 0.0
H810 H 0.90653 0.56968 0.75304 0.0
H811 H 0.93705 0.53479 0.75095 0.0
C812 C 0.88238 0.64357 0.7658 0.0
C813 C 0.87066 0.65306 0.79011 0.0
C814 C 0.89794 0.62177 0.76698 0.0
C815 C 0.90205 0.60846 0.79244 0.0
C816 C 0.89022 0.61777 0.81681 0.0
C817 C 0.87467 0.63982 0.81565 0.0
C818 C 0.95262 0.5605 0.81467 0.0
C819 C 0.95392 0.54398 0.79107 0.0
C820 C 0.93531 0.58104 0.81563 0.0
C821 C 0.91883 0.5852 0.79315 0.0
C822 C 0.91938 0.56764 0.77035 0.0
C823 C 0.93681 0.54749 0.76922 0.0
H824 H 0.90007 0.34097 0.28574 0.0
H825 H 0.84058 0.39207 0.25923 0.0
H826 H 0.92823 0.37832 0.28622 0.0
H827 H 0.8692 0.42917 0.25866 0.0
H828 H 0.93827 0.4756 0.22522 0.0
H829 H 0.90735 0.44094 0.22941 0.0
H830 H 0.93442 0.42233 0.31232 0.0
H831 H 0.96539 0.45735 0.30828 0.0
C832 C 0.89286 0.36015 0.2803 0.0
C833 C 0.86792 0.36338 0.27247 0.0
C834 C 0.90907 0.38155 0.28054 0.0
C835 C 0.90088 0.40663 0.27256 0.0
C836 C 0.87603 0.40998 0.26473 0.0
C837 C 0.8597 0.38865 0.26486 0.0
C838 C 0.93751 0.46429 0.24447 0.0
C839 C 0.95433 0.46913 0.2664 0.0
C840 C 0.9197 0.44455 0.2469 0.0
C841 C 0.91854 0.42892 0.27114 0.0
C842 C 0.93504 0.43402 0.29332 0.0
C843 C 0.95264 0.45412 0.29108 0.0
H844 H 0.15479 0.34584 0.83833 0.0
H845 H 0.17478 0.37224 0.75527 0.0
H846 H 0.11844 0.37443 0.83739 0.0
H847 H 0.13893 0.40108 0.75445 0.0
H848 H 0.05979 0.427 0.747 0.0
H849 H 0.09525 0.39799 0.75056 0.0
H850 H 0.1042 0.41946 0.83776 0.0
H851 H 0.06799 0.4481 0.83436 0.0
C852 C 0.15158 0.358 0.82003 0.0
C853 C 0.16753 0.3566 0.79677 0.0
C854 C 0.13076 0.37441 0.81949 0.0
C855 C 0.12553 0.38989 0.79572 0.0
C856 C 0.14196 0.38897 0.77283 0.0
C857 C 0.16259 0.37249 0.77331 0.0
C858 C 0.06921 0.4255 0.76701 0.0
C859 C 0.0611 0.44001 0.79036 0.0
C860 C 0.08972 0.40896 0.769 0.0
C861 C 0.10289 0.40661 0.79434 0.0
C862 C 0.09444 0.42065 0.81795 0.0
C863 C 0.07372 0.43713 0.81599 0.0
H864 H 0.14401 0.68511 0.25814 0.0
H865 H 0.19034 0.61624 0.26337 0.0
H866 H 0.1071 0.65725 0.26056 0.0
H867 H 0.15334 0.58837 0.2664 0.0
H868 H 0.07777 0.55453 0.30096 0.0
H869 H 0.11423 0.58334 0.30223 0.0
H870 H 0.09054 0.62013 0.22518 0.0
H871 H 0.05461 0.59105 0.22345 0.0
C872 C 0.14625 0.66403 0.26007 0.0
C873 C 0.16996 0.65276 0.26049 0.0
C874 C 0.12519 0.64814 0.26139 0.0
C875 C 0.12745 0.62073 0.26376 0.0
C876 C 0.15116 0.60948 0.26479 0.0
C877 C 0.17225 0.62535 0.26286 0.0
C878 C 0.08028 0.56893 0.28446 0.0
C879 C 0.06339 0.57055 0.26209 0.0
C880 C 0.10117 0.58525 0.28511 0.0
C881 C 0.10512 0.60387 0.26379 0.0
C882 C 0.08784 0.606 0.24192 0.0
C883 C 0.06734 0.58932 0.24092 0.0
H884 H 0.77717 0.88878 0.70766 0.0
H885 H 0.80715 0.82804 0.65415 0.0
H886 H 0.77944 0.91996 0.66893 0.0
H887 H 0.8099 0.85961 0.6155 0.0
H888 H 0.82545 0.93363 0.55923 0.0
H889 H 0.8299 0.90413 0.59977 0.0
H890 H 0.75442 0.92026 0.62359 0.0
H891 H 0.74986 0.94928 0.58342 0.0
C892 C 0.78441 0.88212 0.6877 0.0
C893 C 0.79154 0.85579 0.68385 0.0
C894 C 0.78581 0.90001 0.66558 0.0
C895 C 0.79458 0.89208 0.63918 0.0
C896 C 0.80317 0.86623 0.63571 0.0
C897 C 0.80161 0.8482 0.65785 0.0
C898 C 0.80989 0.93089 0.57323 0.0
C899 C 0.7873 0.94373 0.56812 0.0
C900 C 0.81242 0.91399 0.5963 0.0
C901 C 0.79256 0.91011 0.61487 0.0
C902 C 0.77013 0.92316 0.60984 0.0
C903 C 0.76749 0.93965 0.58668 0.0
H904 H 0.6556 0.27259 0.19385 0.0
H905 H 0.70192 0.26978 0.12018 0.0
H906 H 0.61868 0.26994 0.16411 0.0
H907 H 0.66489 0.26644 0.09039 0.0
H908 H 0.58939 0.22967 0.05634 0.0
H909 H 0.62635 0.23044 0.08643 0.0
H910 H 0.60152 0.30308 0.12368 0.0
H911 H 0.56511 0.30277 0.09326 0.0
C912 C 0.65781 0.27132 0.17128 0.0
C913 C 0.68149 0.2715 0.1592 0.0
C914 C 0.63677 0.26981 0.15434 0.0
C915 C 0.63905 0.26784 0.12507 0.0
C916 C 0.66273 0.26773 0.11296 0.0
C917 C 0.68381 0.26985 0.12989 0.0
C918 C 0.59179 0.24565 0.07112 0.0
C919 C 0.57444 0.26616 0.0725 0.0
C920 C 0.61294 0.24618 0.08812 0.0
C921 C 0.61668 0.26686 0.10722 0.0
C922 C 0.59898 0.28692 0.10914 0.0
C923 C 0.57822 0.28673 0.09173 0.0
H924 H 0.30754 0.18554 0.65291 0.0
H925 H 0.22801 0.18496 0.64353 0.0
H926 H 0.31072 0.14909 0.62003 0.0
H927 H 0.2314 0.15015 0.60907 0.0
H928 H 0.23965 0.06742 0.57931 0.0
H929 H 0.23928 0.10492 0.61062 0.0
H930 H 0.30697 0.13333 0.57302 0.0
H931 H 0.30781 0.09466 0.54225 0.0
C932 C 0.29073 0.17787 0.64366 0.0
C933 C 0.26746 0.18799 0.65136 0.0
C934 C 0.29262 0.15716 0.62446 0.0
C935 C 0.27129 0.14629 0.61223 0.0
C936 C 0.24819 0.1575 0.61865 0.0
C937 C 0.24627 0.17789 0.63812 0.0
C938 C 0.25456 0.08159 0.57782 0.0
C939 C 0.27368 0.07825 0.55824 0.0
C940 C 0.25422 0.10329 0.59559 0.0
C941 C 0.27277 0.12258 0.59396 0.0
C942 C 0.2924 0.11885 0.5749 0.0
C943 C 0.29292 0.09674 0.55729 0.0
H944 H 0.38968 0.76243 0.17881 0.0
H945 H 0.33054 0.73656 0.12429 0.0
H946 H 0.41793 0.7629 0.13909 0.0
H947 H 0.35927 0.73619 0.08466 0.0
H948 H 0.4292 0.70956 0.03324 0.0
H949 H 0.39825 0.71098 0.07044 0.0
H950 H 0.42277 0.78883 0.09339 0.0
H951 H 0.45378 0.78753 0.05598 0.0
C952 C 0.38262 0.75698 0.15835 0.0
C953 C 0.3577 0.74972 0.15476 0.0
C954 C 0.39886 0.75725 0.1356 0.0
C955 C 0.39071 0.74988 0.10877 0.0
C956 C 0.36602 0.74193 0.10518 0.0
C957 C 0.34964 0.74198 0.12791 0.0
C958 C 0.42787 0.72709 0.04606 0.0
C959 C 0.44402 0.7484 0.0418 0.0
C960 C 0.41005 0.72793 0.06724 0.0
C961 C 0.40822 0.74994 0.08485 0.0
C962 C 0.42397 0.77152 0.08023 0.0
C963 C 0.44159 0.77084 0.05874 0.0
H964 H 0.74219 0.15484 0.36452 0.0
H965 H 0.81893 0.14559 0.34183 0.0
H966 H 0.7454 0.11774 0.39645 0.0
H967 H 0.82213 0.10771 0.37342 0.0
H968 H 0.82112 0.05617 0.45484 0.0
H969 H 0.82154 0.09337 0.42219 0.0
H970 H 0.74885 0.07125 0.39271 0.0
H971 H 0.74814 0.03497 0.42577 0.0
C972 C 0.75974 0.14472 0.36632 0.0
C973 C 0.78023 0.15286 0.35052 0.0
C974 C 0.76159 0.12336 0.38449 0.0
C975 C 0.78391 0.10938 0.3871 0.0
C976 C 0.80469 0.11807 0.37196 0.0
C977 C 0.80288 0.13971 0.35388 0.0
C978 C 0.80541 0.05916 0.44109 0.0
C979 C 0.78448 0.0429 0.44307 0.0
C980 C 0.80564 0.08043 0.42239 0.0
C981 C 0.78501 0.08562 0.40523 0.0
C982 C 0.76474 0.06835 0.40622 0.0
C983 C 0.7644 0.0474 0.42502 0.0
H984 H 0.38924 0.25526 0.84179 0.0
H985 H 0.33829 0.2432 0.91032 0.0
H986 H 0.42367 0.2567 0.87488 0.0
H987 H 0.37307 0.24442 0.94368 0.0
H988 H 0.45061 0.22026 0.98502 0.0
H989 H 0.41505 0.21605 0.95303 0.0
H990 H 0.43414 0.29019 0.91475 0.0
H991 H 0.46909 0.29463 0.94658 0.0
C992 C 0.38547 0.25278 0.86397 0.0
C993 C 0.36117 0.24912 0.87357 0.0
C994 C 0.40514 0.25364 0.88286 0.0
C995 C 0.40097 0.25056 0.91174 0.0
C996 C 0.37671 0.24661 0.92144 0.0
C997 C 0.35688 0.24616 0.90248 0.0
C998 C 0.4472 0.23553 0.96965 0.0
C999 C 0.46259 0.25775 0.96825 0.0
C1000 C 0.42682 0.23323 0.95159 0.0
C1001 C 0.42194 0.25283 0.93153 0.0
C1002 C 0.43757 0.27477 0.92996 0.0
C1003 C 0.45753 0.2773 0.94822 0.0
H1004 H 0.30677 0.84189 0.37187 0.0
H1005 H 0.22905 0.85858 0.36145 0.0
H1006 H 0.31067 0.87955 0.40358 0.0
H1007 H 0.23295 0.89634 0.39239 0.0
H1008 H 0.23905 0.94247 0.47123 0.0
H1009 H 0.23888 0.90417 0.44112 0.0
H1010 H 0.30934 0.9276 0.40637 0.0
H1011 H 0.30985 0.96599 0.43769 0.0
C1012 C 0.29059 0.85374 0.37624 0.0
C1013 C 0.26753 0.84715 0.36452 0.0
C1014 C 0.29284 0.87533 0.39428 0.0
C1015 C 0.27208 0.89079 0.40079 0.0
C1016 C 0.24919 0.88447 0.38844 0.0
C1017 C 0.24692 0.86284 0.37068 0.0
C1018 C 0.25459 0.93948 0.45724 0.0
C1019 C 0.27431 0.95743 0.45649 0.0
C1020 C 0.25442 0.91755 0.43984 0.0
C1021 C 0.2738 0.91311 0.42084 0.0
C1022 C 0.29411 0.93048 0.42079 0.0
C1023 C 0.29441 0.95246 0.43862 0.0
H1024 H 0.68607 0.74718 0.90731 0.0
H1025 H 0.6491 0.74754 0.82699 0.0
H1026 H 0.64597 0.75121 0.93105 0.0
H1027 H 0.60907 0.75115 0.85069 0.0
H1028 H 0.54668 0.71775 0.91083 0.0
H1029 H 0.58554 0.71888 0.88476 0.0
H1030 H 0.60896 0.78635 0.93284 0.0
H1031 H 0.56965 0.78561 0.95866 0.0
C1032 C 0.66935 0.74802 0.89481 0.0
C1033 C 0.6706 0.74697 0.86538 0.0
C1034 C 0.64651 0.75058 0.90832 0.0
C1035 C 0.62452 0.75163 0.89263 0.0
C1036 C 0.62578 0.75042 0.86322 0.0
C1037 C 0.64862 0.74837 0.84971 0.0
C1038 C 0.55995 0.73311 0.91551 0.0
C1039 C 0.55517 0.75163 0.9367 0.0
C1040 C 0.58214 0.73375 0.90058 0.0
C1041 C 0.60023 0.7526 0.90695 0.0
C1042 C 0.5953 0.77154 0.92769 0.0
C1043 C 0.57279 0.77126 0.94224 0.0
loop_
_geom_bond_atom_site_label_1
_geom_bond_atom_site_label_2
_geom_bond_distance
_geom_bond_site_symmetry_2
_ccdc_geom_bond_type
C0 C1 1.391 . S
C0 C4 1.391 . S
C0 H42 0.948 . S
C1 C0 1.391 . S
C1 C2 1.391 . S
C2 C1 1.391 . S
C2 H58 0.947 . S
C2 C59 1.392 . S
C3 C4 1.391 . S
C3 C7 1.397 . S
C3 C59 1.419 . S
C4 C0 1.391 . S
C4 C3 1.391 . S
C4 C5 1.399 . S
C5 C4 1.399 . S
C5 C8 1.396 . S
C5 C17 1.453 . S
C5 C18 1.684 . S
H6 C30 0.948 . S
C7 C3 1.397 . S
C7 C8 1.394 . S
C7 C26 1.723 . S
C8 C5 1.396 . S
C8 C7 1.394 . S
C8 C38 1.723 . S
H9 C32 0.947 . S
H10 C33 0.948 . S
H11 C39 0.982 . S
H12 C40 0.979 . S
H13 C40 0.980 . S
H14 C40 0.983 . S
H15 C39 0.979 . S
H16 C39 0.977 . S
C17 C5 1.453 . S
C17 H46 0.982 . S
C17 H47 0.979 . S
C17 H48 0.977 . S
C18 C5 1.684 . S
C18 H43 0.979 . S
C18 H44 0.980 . S
C18 H45 0.983 . S
C19 C20 1.391 . S
C19 C24 1.391 . S
C19 H49 0.948 . S
C20 C19 1.391 . S
C20 C21 1.391 . S
C21 C20 1.391 . S
C21 C22 1.392 . S
C21 H50 0.947 . S
C22 C21 1.392 . S
C22 C23 1.419 . S
C22 H51 0.948 . S
C23 C22 1.419 . S
C23 C24 1.391 . S
C23 C27 1.397 . S
C24 C19 1.391 . S
C24 C23 1.391 . S
C24 C25 1.399 . S
C25 C24 1.399 . S
C25 C26 1.396 . S
C25 C28 1.453 . S
C25 C29 1.684 . S
C26 C7 1.723 . S
C26 C25 1.396 . S
C26 C27 1.394 . S
C27 C23 1.397 . S
C27 C26 1.394 . S
C27 C37 1.723 . S
C28 C25 1.453 . S
C28 H52 0.982 . S
C28 H53 0.979 . S
C28 H54 0.977 . S
C29 C25 1.684 . S
C29 H55 0.979 . S
C29 H56 0.980 . S
C29 H57 0.983 . S
C30 H6 0.948 . S
C30 C31 1.391 . S
C30 C35 1.391 . S
C31 C30 1.391 . S
C31 C32 1.391 . S
C32 H9 0.947 . S
C32 C31 1.391 . S
C32 C33 1.392 . S
C33 H10 0.948 . S
C33 C32 1.392 . S
C33 C34 1.419 . S
C34 C33 1.419 . S
C34 C35 1.391 . S
C34 C38 1.397 . S
C35 C30 1.391 . S
C35 C34 1.391 . S
C35 C36 1.399 . S
C36 C35 1.399 . S
C36 C37 1.396 . S
C36 C39 1.453 . S
C36 C40 1.684 . S
C37 C27 1.723 . S
C37 C36 1.396 . S
C37 C38 1.394 . S
C38 C8 1.723 . S
C38 C34 1.397 . S
C38 C37 1.394 . S
C39 H11 0.982 . S
C39 H15 0.979 . S
C39 H16 0.977 . S
C39 C36 1.453 . S
C40 H12 0.979 . S
C40 H13 0.980 . S
C40 H14 0.983 . S
C40 C36 1.684 . S
H41 C59 0.948 . S
H42 C0 0.948 . S
H43 C18 0.979 . S
H44 C18 0.980 . S
H45 C18 0.983 . S
H46 C17 0.982 . S
H47 C17 0.979 . S
H48 C17 0.977 . S
H49 C19 0.948 . S
H50 C21 0.947 . S
H51 C22 0.948 . S
H52 C28 0.982 . S
H53 C28 0.979 . S
H54 C28 0.977 . S
H55 C29 0.979 . S
H56 C29 0.980 . S
H57 C29 0.983 . S
H58 C2 0.947 . S
C59 C2 1.392 . S
C59 C3 1.419 . S
C59 H41 0.948 . S
C60 C61 1.391 . S
C60 C64 1.391 . S
C60 H102 0.948 . S
C61 C60 1.391 . S
C61 C62 1.391 . S
C62 C61 1.391 . S
C62 H118 0.947 . S
C62 C119 1.392 . S
C63 C64 1.391 . S
C63 C67 1.397 . S
C63 C119 1.419 . S
C64 C60 1.391 . S
C64 C63 1.391 . S
C64 C65 1.399 . S
C65 C64 1.399 . S
C65 C68 1.396 . S
C65 C77 1.453 . S
C65 C78 1.684 . S
H66 C90 0.948 . S
C67 C63 1.397 . S
C67 C68 1.394 . S
C67 C86 1.723 . S
C68 C65 1.396 . S
C68 C67 1.394 . S
C68 C98 1.723 . S
H69 C92 0.947 . S
H70 C93 0.948 . S
H71 C99 0.982 . S
H72 C100 0.979 . S
H73 C100 0.980 . S
H74 C100 0.983 . S
H75 C99 0.979 . S
H76 C99 0.977 . S
C77 C65 1.453 . S
C77 H106 0.982 . S
C77 H107 0.979 . S
C77 H108 0.977 . S
C78 C65 1.684 . S
C78 H103 0.979 . S
C78 H104 0.980 . S
C78 H105 0.983 . S
C79 C80 1.391 . S
C79 C84 1.391 . S
C79 H109 0.948 . S
C80 C79 1.391 . S
C80 C81 1.391 . S
C81 C80 1.391 . S
C81 C82 1.392 . S
C81 H110 0.947 . S
C82 C81 1.392 . S
C82 C83 1.419 . S
C82 H111 0.948 . S
C83 C82 1.419 . S
C83 C84 1.391 . S
C83 C87 1.397 . S
C84 C79 1.391 . S
C84 C83 1.391 . S
C84 C85 1.399 . S
C85 C84 1.399 . S
C85 C86 1.396 . S
C85 C88 1.453 . S
C85 C89 1.684 . S
C86 C67 1.723 . S
C86 C85 1.396 . S
C86 C87 1.394 . S
C87 C83 1.397 . S
C87 C86 1.394 . S
C87 C97 1.723 . S
C88 C85 1.453 . S
C88 H112 0.982 . S
C88 H113 0.979 . S
C88 H114 0.977 . S
C89 C85 1.684 . S
C89 H115 0.979 . S
C89 H116 0.980 . S
C89 H117 0.983 . S
C90 H66 0.948 . S
C90 C91 1.391 . S
C90 C95 1.391 . S
C91 C90 1.391 . S
C91 C92 1.391 . S
C92 H69 0.947 . S
C92 C91 1.391 . S
C92 C93 1.392 . S
C93 H70 0.948 . S
C93 C92 1.392 . S
C93 C94 1.419 . S
C94 C93 1.419 . S
C94 C95 1.391 . S
C94 C98 1.397 . S
C95 C90 1.391 . S
C95 C94 1.391 . S
C95 C96 1.399 . S
C96 C95 1.399 . S
C96 C97 1.396 . S
C96 C99 1.453 . S
C96 C100 1.684 . S
C97 C87 1.723 . S
C97 C96 1.396 . S
C97 C98 1.394 . S
C98 C68 1.723 . S
C98 C94 1.397 . S
C98 C97 1.394 . S
C99 H71 0.982 . S
C99 H75 0.979 . S
C99 H76 0.977 . S
C99 C96 1.453 . S
C100 H72 0.979 . S
C100 H73 0.980 . S
C100 H74 0.983 . S
C100 C96 1.684 . S
H101 C119 0.948 . S
H102 C60 0.948 . S
H103 C78 0.979 . S
H104 C78 0.980 . S
H105 C78 0.983 . S
H106 C77 0.982 . S
H107 C77 0.979 . S
H108 C77 0.977 . S
H109 C79 0.948 . S
H110 C81 0.947 . S
H111 C82 0.948 . S
H112 C88 0.982 . S
H113 C88 0.979 . S
H114 C88 0.977 . S
H115 C89 0.979 . S
H116 C89 0.980 . S
H117 C89 0.983 . S
H118 C62 0.947 . S
C119 C62 1.392 . S
C119 C63 1.419 . S
C119 H101 0.948 . S
C120 C121 1.391 . S
C120 C124 1.391 . S
C120 H162 0.948 . S
C121 C120 1.391 . S
C121 C122 1.391 . S
C122 C121 1.391 . S
C122 H178 0.947 . S
C122 C179 1.392 . S
C123 C124 1.391 . S
C123 C127 1.397 . S
C123 C179 1.419 . S
C124 C120 1.391 . S
C124 C123 1.391 . S
C124 C125 1.399 . S
C125 C124 1.399 . S
C125 C128 1.396 . S
C125 C137 1.453 . S
C125 C138 1.684 . S
H126 C150 0.948 . S
C127 C123 1.397 . S
C127 C128 1.394 . S
C127 C146 1.723 . S
C128 C125 1.396 . S
C128 C127 1.394 . S
C128 C158 1.723 . S
H129 C152 0.947 . S
H130 C153 0.948 . S
H131 C159 0.982 . S
H132 C160 0.979 . S
H133 C160 0.980 . S
H134 C160 0.983 . S
H135 C159 0.979 . S
H136 C159 0.977 . S
C137 C125 1.453 . S
C137 H166 0.982 . S
C137 H167 0.979 . S
C137 H168 0.977 . S
C138 C125 1.684 . S
C138 H163 0.979 . S
C138 H164 0.980 . S
C138 H165 0.983 . S
C139 C140 1.391 . S
C139 C144 1.391 . S
C139 H169 0.948 . S
C140 C139 1.391 . S
C140 C141 1.391 . S
C141 C140 1.391 . S
C141 C142 1.392 . S
C141 H170 0.947 . S
C142 C141 1.392 . S
C142 C143 1.419 . S
C142 H171 0.948 . S
C143 C142 1.419 . S
C143 C144 1.391 . S
C143 C147 1.397 . S
C144 C139 1.391 . S
C144 C143 1.391 . S
C144 C145 1.399 . S
C145 C144 1.399 . S
C145 C146 1.396 . S
C145 C148 1.453 . S
C145 C149 1.684 . S
C146 C127 1.723 . S
C146 C145 1.396 . S
C146 C147 1.394 . S
C147 C143 1.397 . S
C147 C146 1.394 . S
C147 C157 1.723 . S
C148 C145 1.453 . S
C148 H172 0.982 . S
C148 H173 0.979 . S
C148 H174 0.977 . S
C149 C145 1.684 . S
C149 H175 0.979 . S
C149 H176 0.980 . S
C149 H177 0.983 . S
C150 H126 0.948 . S
C150 C151 1.391 . S
C150 C155 1.391 . S
C151 C150 1.391 . S
C151 C152 1.391 . S
C152 H129 0.947 . S
C152 C151 1.391 . S
C152 C153 1.392 . S
C153 H130 0.948 . S
C153 C152 1.392 . S
C153 C154 1.419 . S
C154 C153 1.419 . S
C154 C155 1.391 . S
C154 C158 1.397 . S
C155 C150 1.391 . S
C155 C154 1.391 . S
C155 C156 1.399 . S
C156 C155 1.399 . S
C156 C157 1.396 . S
C156 C159 1.453 . S
C156 C160 1.684 . S
C157 C147 1.723 . S
C157 C156 1.396 . S
C157 C158 1.394 . S
C158 C128 1.723 . S
C158 C154 1.397 . S
C158 C157 1.394 . S
C159 H131 0.982 . S
C159 H135 0.979 . S
C159 H136 0.977 . S
C159 C156 1.453 . S
C160 H132 0.979 . S
C160 H133 0.980 . S
C160 H134 0.983 . S
C160 C156 1.684 . S
H161 C179 0.948 . S
H162 C120 0.948 . S
H163 C138 0.979 . S
H164 C138 0.980 . S
H165 C138 0.983 . S
H166 C137 0.982 . S
H167 C137 0.979 . S
H168 C137 0.977 . S
H169 C139 0.948 . S
H170 C141 0.947 . S
H171 C142 0.948 . S
H172 C148 0.982 . S
H173 C148 0.979 . S
H174 C148 0.977 . S
H175 C149 0.979 . S
H176 C149 0.980 . S
H177 C149 0.983 . S
H178 C122 0.947 . S
C179 C122 1.392 . S
C179 C123 1.419 . S
C179 H161 0.948 . S
C180 C181 1.391 . S
C180 C184 1.391 . S
C180 H222 0.948 . S
C181 C180 1.391 . S
C181 C182 1.391 . S
C182 C181 1.391 . S
C182 H238 0.947 . S
C182 C239 1.392 . S
C183 C184 1.391 . S
C183 C187 1.397 . S
C183 C239 1.419 . S
C184 C180 1.391 . S
C184 C183 1.391 . S
C184 C185 1.399 . S
C185 C184 1.399 . S
C185 C188 1.396 . S
C185 C197 1.453 . S
C185 C198 1.684 . S
H186 C210 0.948 . S
C187 C183 1.397 . S
C187 C188 1.394 . S
C187 C206 1.723 . S
C188 C185 1.396 . S
C188 C187 1.394 . S
C188 C218 1.723 . S
H189 C212 0.947 . S
H190 C213 0.948 . S
H191 C219 0.982 . S
H192 C220 0.979 . S
H193 C220 0.980 . S
H194 C220 0.983 . S
H195 C219 0.979 . S
H196 C219 0.977 . S
C197 C185 1.453 . S
C197 H226 0.982 . S
C197 H227 0.979 . S
C197 H228 0.977 . S
C198 C185 1.684 . S
C198 H223 0.979 . S
C198 H224 0.980 . S
C198 H225 0.983 . S
C199 C200 1.391 . S
C199 C204 1.391 . S
C199 H229 0.948 . S
C200 C199 1.391 . S
C200 C201 1.391 . S
C201 C200 1.391 . S
C201 C202 1.392 . S
C201 H230 0.947 . S
C202 C201 1.392 . S
C202 C203 1.419 . S
C202 H231 0.948 . S
C203 C202 1.419 . S
C203 C204 1.391 . S
C203 C207 1.397 . S
C204 C199 1.391 . S
C204 C203 1.391 . S
C204 C205 1.399 . S
C205 C204 1.399 . S
C205 C206 1.396 . S
C205 C208 1.453 . S
C205 C209 1.684 . S
C206 C187 1.723 . S
C206 C205 1.396 . S
C206 C207 1.394 . S
C207 C203 1.397 . S
C207 C206 1.394 . S
C207 C217 1.723 . S
C208 C205 1.453 . S
C208 H232 0.982 . S
C208 H233 0.979 . S
C208 H234 0.977 . S
C209 C205 1.684 . S
C209 H235 0.979 . S
C209 H236 0.980 . S
C209 H237 0.983 . S
C210 H186 0.948 . S
C210 C211 1.391 . S
C210 C215 1.391 . S
C211 C210 1.391 . S
C211 C212 1.391 . S
C212 H189 0.947 . S
C212 C211 1.391 . S
C212 C213 1.392 . S
C213 H190 0.948 . S
C213 C212 1.392 . S
C213 C214 1.419 . S
C214 C213 1.419 . S
C214 C215 1.391 . S
C214 C218 1.397 . S
C215 C210 1.391 . S
C215 C214 1.391 . S
C215 C216 1.399 . S
C216 C215 1.399 . S
C216 C217 1.396 . S
C216 C219 1.453 . S
C216 C220 1.684 . S
C217 C207 1.723 . S
C217 C216 1.396 . S
C217 C218 1.394 . S
C218 C188 1.723 . S
C218 C214 1.397 . S
C218 C217 1.394 . S
C219 H191 0.982 . S
C219 H195 0.979 . S
C219 H196 0.977 . S
C219 C216 1.453 . S
C220 H192 0.979 . S
C220 H193 0.980 . S
C220 H194 0.983 . S
C220 C216 1.684 . S
H221 C239 0.948 . S
H222 C180 0.948 . S
H223 C198 0.979 . S
H224 C198 0.980 . S
H225 C198 0.983 . S
H226 C197 0.982 . S
H227 C197 0.979 . S
H228 C197 0.977 . S
H229 C199 0.948 . S
H230 C201 0.947 . S
H231 C202 0.948 . S
H232 C208 0.982 . S
H233 C208 0.979 . S
H234 C208 0.977 . S
H235 C209 0.979 . S
H236 C209 0.980 . S
H237 C209 0.983 . S
H238 C182 0.947 . S
C239 C182 1.392 . S
C239 C183 1.419 . S
C239 H221 0.948 . S
C240 C241 1.391 . S
C240 C244 1.391 . S
C240 H282 0.948 . S
C241 C240 1.391 . S
C241 C242 1.391 . S
C242 C241 1.391 . S
C242 H298 0.947 . S
C242 C299 1.392 . S
C243 C244 1.391 . S
C243 C247 1.397 . S
C243 C299 1.419 . S
C244 C240 1.391 . S
C244 C243 1.391 . S
C244 C245 1.399 . S
C245 C244 1.399 . S
C245 C248 1.396 . S
C245 C257 1.453 . S
C245 C258 1.684 . S
H246 C270 0.948 . S
C247 C243 1.397 . S
C247 C248 1.394 . S
C247 C266 1.723 . S
C248 C245 1.396 . S
C248 C247 1.394 . S
C248 C278 1.723 . S
H249 C272 0.947 . S
H250 C273 0.948 . S
H251 C279 0.982 . S
H252 C280 0.979 . S
H253 C280 0.980 . S
H254 C280 0.983 . S
H255 C279 0.979 . S
H256 C279 0.977 . S
C257 C245 1.453 . S
C257 H286 0.982 . S
C257 H287 0.979 . S
C257 H288 0.977 . S
C258 C245 1.684 . S
C258 H283 0.979 . S
C258 H284 0.980 . S
C258 H285 0.983 . S
C259 C260 1.391 . S
C259 C264 1.391 . S
C259 H289 0.948 . S
C260 C259 1.391 . S
C260 C261 1.391 . S
C261 C260 1.391 . S
C261 C262 1.392 . S
C261 H290 0.947 . S
C262 C261 1.392 . S
C262 C263 1.419 . S
C262 H291 0.948 . S
C263 C262 1.419 . S
C263 C264 1.391 . S
C263 C267 1.397 . S
C264 C259 1.391 . S
C264 C263 1.391 . S
C264 C265 1.399 . S
C265 C264 1.399 . S
C265 C266 1.396 . S
C265 C268 1.453 . S
C265 C269 1.684 . S
C266 C247 1.723 . S
C266 C265 1.396 . S
C266 C267 1.394 . S
C267 C263 1.397 . S
C267 C266 1.394 . S
C267 C277 1.723 . S
C268 C265 1.453 . S
C268 H292 0.982 . S
C268 H293 0.979 . S
C268 H294 0.977 . S
C269 C265 1.684 . S
C269 H295 0.979 . S
C269 H296 0.980 . S
C269 H297 0.983 . S
C270 H246 0.948 . S
C270 C271 1.391 . S
C270 C275 1.391 . S
C271 C270 1.391 . S
C271 C272 1.391 . S
C272 H249 0.947 . S
C272 C271 1.391 . S
C272 C273 1.392 . S
C273 H250 0.948 . S
C273 C272 1.392 . S
C273 C274 1.419 . S
C274 C273 1.419 . S
C274 C275 1.391 . S
C274 C278 1.397 . S
C275 C270 1.391 . S
C275 C274 1.391 . S
C275 C276 1.399 . S
C276 C275 1.399 . S
C276 C277 1.396 . S
C276 C279 1.453 . S
C276 C280 1.684 . S
C277 C267 1.723 . S
C277 C276 1.396 . S
C277 C278 1.394 . S
C278 C248 1.723 . S
C278 C274 1.397 . S
C278 C277 1.394 . S
C279 H251 0.982 . S
C279 H255 0.979 . S
C279 H256 0.977 . S
C279 C276 1.453 . S
C280 H252 0.979 . S
C280 H253 0.980 . S
C280 H254 0.983 . S
C280 C276 1.684 . S
H281 C299 0.948 . S
H282 C240 0.948 . S
H283 C258 0.979 . S
H284 C258 0.980 . S
H285 C258 0.983 . S
H286 C257 0.982 . S
H287 C257 0.979 . S
H288 C257 0.977 . S
H289 C259 0.948 . S
H290 C261 0.947 . S
H291 C262 0.948 . S
H292 C268 0.982 . S
H293 C268 0.979 . S
H294 C268 0.977 . S
H295 C269 0.979 . S
H296 C269 0.980 . S
H297 C269 0.983 . S
H298 C242 0.947 . S
C299 C242 1.392 . S
C299 C243 1.419 . S
C299 H281 0.948 . S
C300 C301 1.391 . S
C300 C304 1.391 . S
C300 H342 0.948 . S
C301 C300 1.391 . S
C301 C302 1.391 . S
C302 C301 1.391 . S
C302 H358 0.947 . S
C302 C359 1.392 . S
C303 C304 1.391 . S
C303 C307 1.397 . S
C303 C359 1.419 . S
C304 C300 1.391 . S
C304 C303 1.391 . S
C304 C305 1.399 . S
C305 C304 1.399 . S
C305 C308 1.396 . S
C305 C317 1.453 . S
C305 C318 1.684 . S
H306 C330 0.948 . S
C307 C303 1.397 . S
C307 C308 1.394 . S
C307 C326 1.723 . S
C308 C305 1.396 . S
C308 C307 1.394 . S
C308 C338 1.723 . S
H309 C332 0.947 . S
H310 C333 0.948 . S
H311 C339 0.982 . S
H312 C340 0.979 . S
H313 C340 0.980 . S
H314 C340 0.983 . S
H315 C339 0.979 . S
H316 C339 0.977 . S
C317 C305 1.453 . S
C317 H346 0.982 . S
C317 H347 0.979 . S
C317 H348 0.977 . S
C318 C305 1.684 . S
C318 H343 0.979 . S
C318 H344 0.980 . S
C318 H345 0.983 . S
C319 C320 1.391 . S
C319 C324 1.391 . S
C319 H349 0.948 . S
C320 C319 1.391 . S
C320 C321 1.391 . S
C321 C320 1.391 . S
C321 C322 1.392 . S
C321 H350 0.947 . S
C322 C321 1.392 . S
C322 C323 1.419 . S
C322 H351 0.948 . S
C323 C322 1.419 . S
C323 C324 1.391 . S
C323 C327 1.397 . S
C324 C319 1.391 . S
C324 C323 1.391 . S
C324 C325 1.399 . S
C325 C324 1.399 . S
C325 C326 1.396 . S
C325 C328 1.453 . S
C325 C329 1.684 . S
C326 C307 1.723 . S
C326 C325 1.396 . S
C326 C327 1.394 . S
C327 C323 1.397 . S
C327 C326 1.394 . S
C327 C337 1.723 . S
C328 C325 1.453 . S
C328 H352 0.982 . S
C328 H353 0.979 . S
C328 H354 0.977 . S
C329 C325 1.684 . S
C329 H355 0.979 . S
C329 H356 0.980 . S
C329 H357 0.983 . S
C330 H306 0.948 . S
C330 C331 1.391 . S
C330 C335 1.391 . S
C331 C330 1.391 . S
C331 C332 1.391 . S
C332 H309 0.947 . S
C332 C331 1.391 . S
C332 C333 1.392 . S
C333 H310 0.948 . S
C333 C332 1.392 . S
C333 C334 1.419 . S
C334 C333 1.419 . S
C334 C335 1.391 . S
C334 C338 1.397 . S
C335 C330 1.391 . S
C335 C334 1.391 . S
C335 C336 1.399 . S
C336 C335 1.399 . S
C336 C337 1.396 . S
C336 C339 1.453 . S
C336 C340 1.684 . S
C337 C327 1.723 . S
C337 C336 1.396 . S
C337 C338 1.394 . S
C338 C308 1.723 . S
C338 C334 1.397 . S
C338 C337 1.394 . S
C339 H311 0.982 . S
C339 H315 0.979 . S
C339 H316 0.977 . S
C339 C336 1.453 . S
C340 H312 0.979 . S
C340 H313 0.980 . S
C340 H314 0.983 . S
C340 C336 1.684 . S
H341 C359 0.948 . S
H342 C300 0.948 . S
H343 C318 0.979 . S
H344 C318 0.980 . S
H345 C318 0.983 . S
H346 C317 0.982 . S
H347 C317 0.979 . S
H348 C317 0.977 . S
H349 C319 0.948 . S
H350 C321 0.947 . S
H351 C322 0.948 . S
H352 C328 0.982 . S
H353 C328 0.979 . S
H354 C328 0.977 . S
H355 C329 0.979 . S
H356 C329 0.980 . S
H357 C329 0.983 . S
H358 C302 0.947 . S
C359 C302 1.392 . S
C359 C303 1.419 . S
C359 H341 0.948 . S
C360 C361 1.391 . S
C360 C364 1.391 . S
C360 H402 0.948 . S
C361 C360 1.391 . S
C361 C362 1.391 . S
C362 C361 1.391 . S
C362 H418 0.947 . S
C362 C419 1.392 . S
C363 C364 1.391 . S
C363 C367 1.397 . S
C363 C419 1.419 . S
C364 C360 1.391 . S
C364 C363 1.391 . S
C364 C365 1.399 . S
C365 C364 1.399 . S
C365 C368 1.396 . S
C365 C377 1.453 . S
C365 C378 1.684 . S
H366 C390 0.948 . S
C367 C363 1.397 . S
C367 C368 1.394 . S
C367 C386 1.723 . S
C368 C365 1.396 . S
C368 C367 1.394 . S
C368 C398 1.723 . S
H369 C392 0.947 . S
H370 C393 0.948 . S
H371 C399 0.982 . S
H372 C400 0.979 . S
H373 C400 0.980 . S
H374 C400 0.983 . S
H375 C399 0.979 . S
H376 C399 0.977 . S
C377 C365 1.453 . S
C377 H406 0.982 . S
C377 H407 0.979 . S
C377 H408 0.977 . S
C378 C365 1.684 . S
C378 H403 0.979 . S
C378 H404 0.980 . S
C378 H405 0.983 . S
C379 C380 1.391 . S
C379 C384 1.391 . S
C379 H409 0.948 . S
C380 C379 1.391 . S
C380 C381 1.391 . S
C381 C380 1.391 . S
C381 C382 1.392 . S
C381 H410 0.947 . S
C382 C381 1.392 . S
C382 C383 1.419 . S
C382 H411 0.948 . S
C383 C382 1.419 . S
C383 C384 1.391 . S
C383 C387 1.397 . S
C384 C379 1.391 . S
C384 C383 1.391 . S
C384 C385 1.399 . S
C385 C384 1.399 . S
C385 C386 1.396 . S
C385 C388 1.453 . S
C385 C389 1.684 . S
C386 C367 1.723 . S
C386 C385 1.396 . S
C386 C387 1.394 . S
C387 C383 1.397 . S
C387 C386 1.394 . S
C387 C397 1.723 . S
C388 C385 1.453 . S
C388 H412 0.982 . S
C388 H413 0.979 . S
C388 H414 0.977 . S
C389 C385 1.684 . S
C389 H415 0.979 . S
C389 H416 0.980 . S
C389 H417 0.983 . S
C390 H366 0.948 . S
C390 C391 1.391 . S
C390 C395 1.391 . S
C391 C390 1.391 . S
C391 C392 1.391 . S
C392 H369 0.947 . S
C392 C391 1.391 . S
C392 C393 1.392 . S
C393 H370 0.948 . S
C393 C392 1.392 . S
C393 C394 1.419 . S
C394 C393 1.419 . S
C394 C395 1.391 . S
C394 C398 1.397 . S
C395 C390 1.391 . S
C395 C394 1.391 . S
C395 C396 1.399 . S
C396 C395 1.399 . S
C396 C397 1.396 . S
C396 C399 1.453 . S
C396 C400 1.684 . S
C397 C387 1.723 . S
C397 C396 1.396 . S
C397 C398 1.394 . S
C398 C368 1.723 . S
C398 C394 1.397 . S
C398 C397 1.394 . S
C399 H371 0.982 . S
C399 H375 0.979 . S
C399 H376 0.977 . S
C399 C396 1.453 . S
C400 H372 0.979 . S
C400 H373 0.980 . S
C400 H374 0.983 . S
C400 C396 1.684 . S
H401 C419 0.948 . S
H402 C360 0.948 . S
H403 C378 0.979 . S
H404 C378 0.980 . S
H405 C378 0.983 . S
H406 C377 0.982 . S
H407 C377 0.979 . S
H408 C377 0.977 . S
H409 C379 0.948 . S
H410 C381 0.947 . S
H411 C382 0.948 . S
H412 C388 0.982 . S
H413 C388 0.979 . S
H414 C388 0.977 . S
H415 C389 0.979 . S
H416 C389 0.980 . S
H417 C389 0.983 . S
H418 C362 0.947 . S
C419 C362 1.392 . S
C419 C363 1.419 . S
C419 H401 0.948 . S
C420 C421 1.391 . S
C420 C424 1.391 . S
C420 H462 0.948 . S
C421 C420 1.391 . S
C421 C422 1.391 . S
C422 C421 1.391 . S
C422 H478 0.947 . S
C422 C479 1.392 . S
C423 C424 1.391 . S
C423 C427 1.397 . S
C423 C479 1.419 . S
C424 C420 1.391 . S
C424 C423 1.391 . S
C424 C425 1.399 . S
C425 C424 1.399 . S
C425 C428 1.396 . S
C425 C437 1.453 . S
C425 C438 1.684 . S
H426 C450 0.948 . S
C427 C423 1.397 . S
C427 C428 1.394 . S
C427 C446 1.723 . S
C428 C425 1.396 . S
C428 C427 1.394 . S
C428 C458 1.723 . S
H429 C452 0.947 . S
H430 C453 0.948 . S
H431 C459 0.982 . S
H432 C460 0.979 . S
H433 C460 0.980 . S
H434 C460 0.983 . S
H435 C459 0.979 . S
H436 C459 0.977 . S
C437 C425 1.453 . S
C437 H466 0.982 . S
C437 H467 0.979 . S
C437 H468 0.977 . S
C438 C425 1.684 . S
C438 H463 0.979 . S
C438 H464 0.980 . S
C438 H465 0.983 . S
C439 C440 1.391 . S
C439 C444 1.391 . S
C439 H469 0.948 . S
C440 C439 1.391 . S
C440 C441 1.391 . S
C441 C440 1.391 . S
C441 C442 1.392 . S
C441 H470 0.947 . S
C442 C441 1.392 . S
C442 C443 1.419 . S
C442 H471 0.948 . S
C443 C442 1.419 . S
C443 C444 1.391 . S
C443 C447 1.397 . S
C444 C439 1.391 . S
C444 C443 1.391 . S
C444 C445 1.399 . S
C445 C444 1.399 . S
C445 C446 1.396 . S
C445 C448 1.453 . S
C445 C449 1.684 . S
C446 C427 1.723 . S
C446 C445 1.396 . S
C446 C447 1.394 . S
C447 C443 1.397 . S
C447 C446 1.394 . S
C447 C457 1.723 . S
C448 C445 1.453 . S
C448 H472 0.982 . S
C448 H473 0.979 . S
C448 H474 0.977 . S
C449 C445 1.684 . S
C449 H475 0.979 . S
C449 H476 0.980 . S
C449 H477 0.983 . S
C450 H426 0.948 . S
C450 C451 1.391 . S
C450 C455 1.391 . S
C451 C450 1.391 . S
C451 C452 1.391 . S
C452 H429 0.947 . S
C452 C451 1.391 . S
C452 C453 1.392 . S
C453 H430 0.948 . S
C453 C452 1.392 . S
C453 C454 1.419 . S
C454 C453 1.419 . S
C454 C455 1.391 . S
C454 C458 1.397 . S
C455 C450 1.391 . S
C455 C454 1.391 . S
C455 C456 1.399 . S
C456 C455 1.399 . S
C456 C457 1.396 . S
C456 C459 1.453 . S
C456 C460 1.684 . S
C457 C447 1.723 . S
C457 C456 1.396 . S
C457 C458 1.394 . S
C458 C428 1.723 . S
C458 C454 1.397 . S
C458 C457 1.394 . S
C459 H431 0.982 . S
C459 H435 0.979 . S
C459 H436 0.977 . S
C459 C456 1.453 . S
C460 H432 0.979 . S
C460 H433 0.980 . S
C460 H434 0.983 . S
C460 C456 1.684 . S
H461 C479 0.948 . S
H462 C420 0.948 . S
H463 C438 0.979 . S
H464 C438 0.980 . S
H465 C438 0.983 . S
H466 C437 0.982 . S
H467 C437 0.979 . S
H468 C437 0.977 . S
H469 C439 0.948 . S
H470 C441 0.947 . S
H471 C442 0.948 . S
H472 C448 0.982 . S
H473 C448 0.979 . S
H474 C448 0.977 . S
H475 C449 0.979 . S
H476 C449 0.980 . S
H477 C449 0.983 . S
H478 C422 0.947 . S
C479 C422 1.392 . S
C479 C423 1.419 . S
C479 H461 0.948 . S
C480 O482 1.247 . S
C480 O484 1.258 . S
C481 O488 1.247 . S
C481 O489 1.258 . S
O482 C480 1.247 . S
O482 Zn483 2.030 1_655 S
Zn483 O482 2.030 1_455 S
Zn483 O487 2.033 . S
Zn483 O489 2.033 . S
Zn483 O490 2.030 1_455 S
O484 C480 1.258 . S
O484 Zn485 2.023 1_655 S
Zn485 O484 2.023 1_455 S
Zn485 O486 2.040 . S
Zn485 O488 2.040 . S
Zn485 O491 2.023 1_455 S
O486 Zn485 2.040 . S
O486 C492 1.247 . S
O487 Zn483 2.033 . S
O487 C492 1.258 . S
O488 C481 1.247 . S
O488 Zn485 2.040 . S
O489 C481 1.258 . S
O489 Zn483 2.033 . S
O490 Zn483 2.030 1_655 S
O490 C493 1.247 . S
O491 Zn485 2.023 1_655 S
O491 C493 1.258 . S
C492 O486 1.247 . S
C492 O487 1.258 . S
C493 O490 1.247 . S
C493 O491 1.258 . S
C494 O496 1.247 . S
C494 O498 1.258 . S
C495 O502 1.247 . S
C495 O503 1.258 . S
O496 C494 1.247 . S
O496 Zn497 2.030 1_655 S
Zn497 O496 2.030 1_455 S
Zn497 O501 2.033 . S
Zn497 O503 2.033 . S
Zn497 O504 2.030 1_455 S
O498 C494 1.258 . S
O498 Zn499 2.023 1_655 S
Zn499 O498 2.023 1_455 S
Zn499 O500 2.040 . S
Zn499 O502 2.040 . S
Zn499 O505 2.023 1_455 S
O500 Zn499 2.040 . S
O500 C506 1.247 . S
O501 Zn497 2.033 . S
O501 C506 1.258 . S
O502 C495 1.247 . S
O502 Zn499 2.040 . S
O503 C495 1.258 . S
O503 Zn497 2.033 . S
O504 Zn497 2.030 1_655 S
O504 C507 1.247 . S
O505 Zn499 2.023 1_655 S
O505 C507 1.258 . S
C506 O500 1.247 . S
C506 O501 1.258 . S
C507 O504 1.247 . S
C507 O505 1.258 . S
C508 O510 1.247 . S
C508 O512 1.258 . S
C509 O516 1.247 . S
C509 O517 1.258 . S
O510 C508 1.247 . S
O510 Zn511 2.028 . S
Zn511 O510 2.028 . S
Zn511 O515 2.035 1_565 S
Zn511 O517 2.035 1_565 S
Zn511 O518 2.028 . S
O512 C508 1.258 . S
O512 Zn513 2.028 1_565 S
Zn513 O512 2.028 1_545 S
Zn513 O514 2.035 . S
Zn513 O516 2.035 . S
Zn513 O519 2.028 1_545 S
O514 Zn513 2.035 . S
O514 C520 1.247 . S
O515 Zn511 2.035 1_545 S
O515 C520 1.258 . S
O516 C509 1.247 . S
O516 Zn513 2.035 . S
O517 C509 1.258 . S
O517 Zn511 2.035 1_545 S
O518 Zn511 2.028 . S
O518 C521 1.247 . S
O519 Zn513 2.028 1_565 S
O519 C521 1.258 . S
C520 O514 1.247 . S
C520 O515 1.258 . S
C521 O518 1.247 . S
C521 O519 1.258 . S
C522 O524 1.247 . S
C522 O526 1.258 . S
C523 O530 1.247 . S
C523 O531 1.258 . S
O524 C522 1.247 . S
O524 Zn525 2.028 . S
Zn525 O524 2.028 . S
Zn525 O529 2.035 . S
Zn525 O531 2.035 1_554 S
Zn525 O532 2.028 1_554 S
O526 C522 1.258 . S
O526 Zn527 2.035 . S
Zn527 O526 2.035 . S
Zn527 O528 2.028 . S
Zn527 O530 2.028 1_554 S
Zn527 O533 2.035 1_554 S
O528 Zn527 2.028 . S
O528 C534 1.247 . S
O529 Zn525 2.035 . S
O529 C534 1.258 . S
O530 C523 1.247 . S
O530 Zn527 2.028 1_556 S
O531 C523 1.258 . S
O531 Zn525 2.035 1_556 S
O532 Zn525 2.028 1_556 S
O532 C535 1.247 . S
O533 Zn527 2.035 1_556 S
O533 C535 1.258 . S
C534 O528 1.247 . S
C534 O529 1.258 . S
C535 O532 1.247 . S
C535 O533 1.258 . S
C536 O538 1.247 . S
C536 O540 1.258 . S
C537 O544 1.247 . S
C537 O545 1.258 . S
O538 C536 1.247 . S
O538 Zn539 2.028 . S
Zn539 O538 2.028 . S
Zn539 O543 2.035 1_565 S
Zn539 O545 2.035 1_565 S
Zn539 O546 2.028 . S
O540 C536 1.258 . S
O540 Zn541 2.028 1_565 S
Zn541 O540 2.028 1_545 S
Zn541 O542 2.035 . S
Zn541 O544 2.035 . S
Zn541 O547 2.028 1_545 S
O542 Zn541 2.035 . S
O542 C548 1.247 . S
O543 Zn539 2.035 1_545 S
O543 C548 1.258 . S
O544 C537 1.247 . S
O544 Zn541 2.035 . S
O545 C537 1.258 . S
O545 Zn539 2.035 1_545 S
O546 Zn539 2.028 . S
O546 C549 1.247 . S
O547 Zn541 2.028 1_565 S
O547 C549 1.258 . S
C548 O542 1.247 . S
C548 O543 1.258 . S
C549 O546 1.247 . S
C549 O547 1.258 . S
C550 O552 1.247 . S
C550 O554 1.258 . S
C551 O558 1.247 . S
C551 O559 1.258 . S
O552 C550 1.247 . S
O552 Zn553 2.028 . S
Zn553 O552 2.028 . S
Zn553 O557 2.035 . S
Zn553 O559 2.035 1_554 S
Zn553 O560 2.028 1_554 S
O554 C550 1.258 . S
O554 Zn555 2.035 . S
Zn555 O554 2.035 . S
Zn555 O556 2.028 . S
Zn555 O558 2.028 1_554 S
Zn555 O561 2.035 1_554 S
O556 Zn555 2.028 . S
O556 C562 1.247 . S
O557 Zn553 2.035 . S
O557 C562 1.258 . S
O558 C551 1.247 . S
O558 Zn555 2.028 1_556 S
O559 C551 1.258 . S
O559 Zn553 2.035 1_556 S
O560 Zn553 2.028 1_556 S
O560 C563 1.247 . S
O561 Zn555 2.035 1_556 S
O561 C563 1.258 . S
C562 O556 1.247 . S
C562 O557 1.258 . S
C563 O560 1.247 . S
C563 O561 1.258 . S
H564 C572 0.950 . S
H565 C577 0.950 . S
H566 C574 0.950 . S
H567 C576 0.950 . S
H568 C578 0.950 . S
H569 C580 0.950 . S
H570 C582 0.950 . S
H571 C583 0.950 . S
C572 H564 0.950 . S
C572 C573 1.386 . S
C572 C574 1.391 . S
C573 C572 1.386 . S
C573 C577 1.393 . S
C574 H566 0.950 . S
C574 C572 1.391 . S
C574 C575 1.400 . S
C575 C574 1.400 . S
C575 C576 1.398 . S
C575 C581 1.491 . S
C576 H567 0.950 . S
C576 C575 1.398 . S
C576 C577 1.391 . S
C577 H565 0.950 . S
C577 C573 1.393 . S
C577 C576 1.391 . S
C578 H568 0.950 . S
C578 C579 1.386 . S
C578 C580 1.391 . S
C579 C578 1.386 . S
C579 C583 1.393 . S
C580 H569 0.950 . S
C580 C578 1.391 . S
C580 C581 1.400 . S
C581 C575 1.491 . S
C581 C580 1.400 . S
C581 C582 1.398 . S
C582 H570 0.950 . S
C582 C581 1.398 . S
C582 C583 1.391 . S
C583 H571 0.950 . S
C583 C579 1.393 . S
C583 C582 1.391 . S
H584 C592 0.950 . S
H585 C597 0.950 . S
H586 C594 0.950 . S
H587 C596 0.950 . S
H588 C598 0.950 . S
H589 C600 0.950 . S
H590 C602 0.950 . S
H591 C603 0.950 . S
C592 H584 0.950 . S
C592 C593 1.386 . S
C592 C594 1.391 . S
C593 C592 1.386 . S
C593 C597 1.393 . S
C594 H586 0.950 . S
C594 C592 1.391 . S
C594 C595 1.400 . S
C595 C594 1.400 . S
C595 C596 1.398 . S
C595 C601 1.491 . S
C596 H587 0.950 . S
C596 C595 1.398 . S
C596 C597 1.391 . S
C597 H585 0.950 . S
C597 C593 1.393 . S
C597 C596 1.391 . S
C598 H588 0.950 . S
C598 C599 1.386 . S
C598 C600 1.391 . S
C599 C598 1.386 . S
C599 C603 1.393 . S
C600 H589 0.950 . S
C600 C598 1.391 . S
C600 C601 1.400 . S
C601 C595 1.491 . S
C601 C600 1.400 . S
C601 C602 1.398 . S
C602 H590 0.950 . S
C602 C601 1.398 . S
C602 C603 1.391 . S
C603 H591 0.950 . S
C603 C599 1.393 . S
C603 C602 1.391 . S
H604 C612 0.950 . S
H605 C617 0.950 . S
H606 C614 0.950 . S
H607 C616 0.950 . S
H608 C618 0.950 . S
H609 C620 0.950 . S
H610 C622 0.950 . S
H611 C623 0.950 . S
C612 H604 0.950 . S
C612 C613 1.386 . S
C612 C614 1.391 . S
C613 C612 1.386 . S
C613 C617 1.393 . S
C614 H606 0.950 . S
C614 C612 1.391 . S
C614 C615 1.400 . S
C615 C614 1.400 . S
C615 C616 1.398 . S
C615 C621 1.491 . S
C616 H607 0.950 . S
C616 C615 1.398 . S
C616 C617 1.391 . S
C617 H605 0.950 . S
C617 C613 1.393 . S
C617 C616 1.391 . S
C618 H608 0.950 . S
C618 C619 1.386 . S
C618 C620 1.391 . S
C619 C618 1.386 . S
C619 C623 1.393 . S
C620 H609 0.950 . S
C620 C618 1.391 . S
C620 C621 1.400 . S
C621 C615 1.491 . S
C621 C620 1.400 . S
C621 C622 1.398 . S
C622 H610 0.950 . S
C622 C621 1.398 . S
C622 C623 1.391 . S
C623 H611 0.950 . S
C623 C619 1.393 . S
C623 C622 1.391 . S
H624 C632 0.950 . S
H625 C637 0.950 . S
H626 C634 0.950 . S
H627 C636 0.950 . S
H628 C638 0.950 . S
H629 C640 0.950 . S
H630 C642 0.950 . S
H631 C643 0.950 . S
C632 H624 0.950 . S
C632 C633 1.386 . S
C632 C634 1.391 . S
C633 C632 1.386 . S
C633 C637 1.393 . S
C634 H626 0.950 . S
C634 C632 1.391 . S
C634 C635 1.400 . S
C635 C634 1.400 . S
C635 C636 1.398 . S
C635 C641 1.491 . S
C636 H627 0.950 . S
C636 C635 1.398 . S
C636 C637 1.391 . S
C637 H625 0.950 . S
C637 C633 1.393 . S
C637 C636 1.391 . S
C638 H628 0.950 . S
C638 C639 1.386 . S
C638 C640 1.391 . S
C639 C638 1.386 . S
C639 C643 1.393 . S
C640 H629 0.950 . S
C640 C638 1.391 . S
C640 C641 1.400 . S
C641 C635 1.491 . S
C641 C640 1.400 . S
C641 C642 1.398 . S
C642 H630 0.950 . S
C642 C641 1.398 . S
C642 C643 1.391 . S
C643 H631 0.950 . S
C643 C639 1.393 . S
C643 C642 1.391 . S
H644 C652 0.950 . S
H645 C657 0.950 . S
H646 C654 0.950 . S
H647 C656 0.950 . S
H648 C658 0.950 . S
H649 C660 0.950 . S
H650 C662 0.950 . S
H651 C663 0.950 . S
C652 H644 0.950 . S
C652 C653 1.386 . S
C652 C654 1.391 . S
C653 C652 1.386 . S
C653 C657 1.393 . S
C654 H646 0.950 . S
C654 C652 1.391 . S
C654 C655 1.400 . S
C655 C654 1.400 . S
C655 C656 1.398 . S
C655 C661 1.491 . S
C656 H647 0.950 . S
C656 C655 1.398 . S
C656 C657 1.391 . S
C657 H645 0.950 . S
C657 C653 1.393 . S
C657 C656 1.391 . S
C658 H648 0.950 . S
C658 C659 1.386 . S
C658 C660 1.391 . S
C659 C658 1.386 . S
C659 C663 1.393 . S
C660 H649 0.950 . S
C660 C658 1.391 . S
C660 C661 1.400 . S
C661 C655 1.491 . S
C661 C660 1.400 . S
C661 C662 1.398 . S
C662 H650 0.950 . S
C662 C661 1.398 . S
C662 C663 1.391 . S
C663 H651 0.950 . S
C663 C659 1.393 . S
C663 C662 1.391 . S
H664 C672 0.950 . S
H665 C677 0.950 . S
H666 C674 0.950 . S
H667 C676 0.950 . S
H668 C678 0.950 . S
H669 C680 0.950 . S
H670 C682 0.950 . S
H671 C683 0.950 . S
C672 H664 0.950 . S
C672 C673 1.386 . S
C672 C674 1.391 . S
C673 C672 1.386 . S
C673 C677 1.393 . S
C674 H666 0.950 . S
C674 C672 1.391 . S
C674 C675 1.400 . S
C675 C674 1.400 . S
C675 C676 1.398 . S
C675 C681 1.491 . S
C676 H667 0.950 . S
C676 C675 1.398 . S
C676 C677 1.391 . S
C677 H665 0.950 . S
C677 C673 1.393 . S
C677 C676 1.391 . S
C678 H668 0.950 . S
C678 C679 1.386 . S
C678 C680 1.391 . S
C679 C678 1.386 . S
C679 C683 1.393 . S
C680 H669 0.950 . S
C680 C678 1.391 . S
C680 C681 1.400 . S
C681 C675 1.491 . S
C681 C680 1.400 . S
C681 C682 1.398 . S
C682 H670 0.950 . S
C682 C681 1.398 . S
C682 C683 1.391 . S
C683 H671 0.950 . S
C683 C679 1.393 . S
C683 C682 1.391 . S
H684 C692 0.950 . S
H685 C697 0.950 . S
H686 C694 0.950 . S
H687 C696 0.950 . S
H688 C698 0.950 . S
H689 C700 0.950 . S
H690 C702 0.950 . S
H691 C703 0.950 . S
C692 H684 0.950 . S
C692 C693 1.386 . S
C692 C694 1.391 . S
C693 C692 1.386 . S
C693 C697 1.393 . S
C694 H686 0.950 . S
C694 C692 1.391 . S
C694 C695 1.400 . S
C695 C694 1.400 . S
C695 C696 1.398 . S
C695 C701 1.491 . S
C696 H687 0.950 . S
C696 C695 1.398 . S
C696 C697 1.391 . S
C697 H685 0.950 . S
C697 C693 1.393 . S
C697 C696 1.391 . S
C698 H688 0.950 . S
C698 C699 1.386 . S
C698 C700 1.391 . S
C699 C698 1.386 . S
C699 C703 1.393 . S
C700 H689 0.950 . S
C700 C698 1.391 . S
C700 C701 1.400 . S
C701 C695 1.491 . S
C701 C700 1.400 . S
C701 C702 1.398 . S
C702 H690 0.950 . S
C702 C701 1.398 . S
C702 C703 1.391 . S
C703 H691 0.950 . S
C703 C699 1.393 . S
C703 C702 1.391 . S
H704 C712 0.950 . S
H705 C717 0.950 . S
H706 C714 0.950 . S
H707 C716 0.950 . S
H708 C718 0.950 . S
H709 C720 0.950 . S
H710 C722 0.950 . S
H711 C723 0.950 . S
C712 H704 0.950 . S
C712 C713 1.386 . S
C712 C714 1.391 . S
C713 C712 1.386 . S
C713 C717 1.393 . S
C714 H706 0.950 . S
C714 C712 1.391 . S
C714 C715 1.400 . S
C715 C714 1.400 . S
C715 C716 1.398 . S
C715 C721 1.491 . S
C716 H707 0.950 . S
C716 C715 1.398 . S
C716 C717 1.391 . S
C717 H705 0.950 . S
C717 C713 1.393 . S
C717 C716 1.391 . S
C718 H708 0.950 . S
C718 C719 1.386 . S
C718 C720 1.391 . S
C719 C718 1.386 . S
C719 C723 1.393 . S
C720 H709 0.950 . S
C720 C718 1.391 . S
C720 C721 1.400 . S
C721 C715 1.491 . S
C721 C720 1.400 . S
C721 C722 1.398 . S
C722 H710 0.950 . S
C722 C721 1.398 . S
C722 C723 1.391 . S
C723 H711 0.950 . S
C723 C719 1.393 . S
C723 C722 1.391 . S
H724 C732 0.950 . S
H725 C737 0.950 . S
H726 C734 0.950 . S
H727 C736 0.950 . S
H728 C738 0.950 . S
H729 C740 0.950 . S
H730 C742 0.950 . S
H731 C743 0.950 . S
C732 H724 0.950 . S
C732 C733 1.386 . S
C732 C734 1.391 . S
C733 C732 1.386 . S
C733 C737 1.393 . S
C734 H726 0.950 . S
C734 C732 1.391 . S
C734 C735 1.400 . S
C735 C734 1.400 . S
C735 C736 1.398 . S
C735 C741 1.491 . S
C736 H727 0.950 . S
C736 C735 1.398 . S
C736 C737 1.391 . S
C737 H725 0.950 . S
C737 C733 1.393 . S
C737 C736 1.391 . S
C738 H728 0.950 . S
C738 C739 1.386 . S
C738 C740 1.391 . S
C739 C738 1.386 . S
C739 C743 1.393 . S
C740 H729 0.950 . S
C740 C738 1.391 . S
C740 C741 1.400 . S
C741 C735 1.491 . S
C741 C740 1.400 . S
C741 C742 1.398 . S
C742 H730 0.950 . S
C742 C741 1.398 . S
C742 C743 1.391 . S
C743 H731 0.950 . S
C743 C739 1.393 . S
C743 C742 1.391 . S
H744 C752 0.950 . S
H745 C757 0.950 . S
H746 C754 0.950 . S
H747 C756 0.950 . S
H748 C758 0.950 . S
H749 C760 0.950 . S
H750 C762 0.950 . S
H751 C763 0.950 . S
C752 H744 0.950 . S
C752 C753 1.386 . S
C752 C754 1.391 . S
C753 C752 1.386 . S
C753 C757 1.393 . S
C754 H746 0.950 . S
C754 C752 1.391 . S
C754 C755 1.400 . S
C755 C754 1.400 . S
C755 C756 1.398 . S
C755 C761 1.491 . S
C756 H747 0.950 . S
C756 C755 1.398 . S
C756 C757 1.391 . S
C757 H745 0.950 . S
C757 C753 1.393 . S
C757 C756 1.391 . S
C758 H748 0.950 . S
C758 C759 1.386 . S
C758 C760 1.391 . S
C759 C758 1.386 . S
C759 C763 1.393 . S
C760 H749 0.950 . S
C760 C758 1.391 . S
C760 C761 1.400 . S
C761 C755 1.491 . S
C761 C760 1.400 . S
C761 C762 1.398 . S
C762 H750 0.950 . S
C762 C761 1.398 . S
C762 C763 1.391 . S
C763 H751 0.950 . S
C763 C759 1.393 . S
C763 C762 1.391 . S
H764 C772 0.950 . S
H765 C777 0.950 . S
H766 C774 0.950 . S
H767 C776 0.950 . S
H768 C778 0.950 . S
H769 C780 0.950 . S
H770 C782 0.950 . S
H771 C783 0.950 . S
C772 H764 0.950 . S
C772 C773 1.386 . S
C772 C774 1.391 . S
C773 C772 1.386 . S
C773 C777 1.393 . S
C774 H766 0.950 . S
C774 C772 1.391 . S
C774 C775 1.400 . S
C775 C774 1.400 . S
C775 C776 1.398 . S
C775 C781 1.491 . S
C776 H767 0.950 . S
C776 C775 1.398 . S
C776 C777 1.391 . S
C777 H765 0.950 . S
C777 C773 1.393 . S
C777 C776 1.391 . S
C778 H768 0.950 . S
C778 C779 1.386 . S
C778 C780 1.391 . S
C779 C778 1.386 . S
C779 C783 1.393 . S
C780 H769 0.950 . S
C780 C778 1.391 . S
C780 C781 1.400 . S
C781 C775 1.491 . S
C781 C780 1.400 . S
C781 C782 1.398 . S
C782 H770 0.950 . S
C782 C781 1.398 . S
C782 C783 1.391 . S
C783 H771 0.950 . S
C783 C779 1.393 . S
C783 C782 1.391 . S
H784 C792 0.950 . S
H785 C797 0.950 . S
H786 C794 0.950 . S
H787 C796 0.950 . S
H788 C798 0.950 . S
H789 C800 0.950 . S
H790 C802 0.950 . S
H791 C803 0.950 . S
C792 H784 0.950 . S
C792 C793 1.386 . S
C792 C794 1.391 . S
C793 C792 1.386 . S
C793 C797 1.393 . S
C794 H786 0.950 . S
C794 C792 1.391 . S
C794 C795 1.400 . S
C795 C794 1.400 . S
C795 C796 1.398 . S
C795 C801 1.491 . S
C796 H787 0.950 . S
C796 C795 1.398 . S
C796 C797 1.391 . S
C797 H785 0.950 . S
C797 C793 1.393 . S
C797 C796 1.391 . S
C798 H788 0.950 . S
C798 C799 1.386 . S
C798 C800 1.391 . S
C799 C798 1.386 . S
C799 C803 1.393 . S
C800 H789 0.950 . S
C800 C798 1.391 . S
C800 C801 1.400 . S
C801 C795 1.491 . S
C801 C800 1.400 . S
C801 C802 1.398 . S
C802 H790 0.950 . S
C802 C801 1.398 . S
C802 C803 1.391 . S
C803 H791 0.950 . S
C803 C799 1.393 . S
C803 C802 1.391 . S
H804 C812 0.950 . S
H805 C817 0.950 . S
H806 C814 0.950 . S
H807 C816 0.950 . S
H808 C818 0.950 . S
H809 C820 0.950 . S
H810 C822 0.950 . S
H811 C823 0.950 . S
C812 H804 0.950 . S
C812 C813 1.386 . S
C812 C814 1.391 . S
C813 C812 1.386 . S
C813 C817 1.393 . S
C814 H806 0.950 . S
C814 C812 1.391 . S
C814 C815 1.400 . S
C815 C814 1.400 . S
C815 C816 1.398 . S
C815 C821 1.491 . S
C816 H807 0.950 . S
C816 C815 1.398 . S
C816 C817 1.391 . S
C817 H805 0.950 . S
C817 C813 1.393 . S
C817 C816 1.391 . S
C818 H808 0.950 . S
C818 C819 1.386 . S
C818 C820 1.391 . S
C819 C818 1.386 . S
C819 C823 1.393 . S
C820 H809 0.950 . S
C820 C818 1.391 . S
C820 C821 1.400 . S
C821 C815 1.491 . S
C821 C820 1.400 . S
C821 C822 1.398 . S
C822 H810 0.950 . S
C822 C821 1.398 . S
C822 C823 1.391 . S
C823 H811 0.950 . S
C823 C819 1.393 . S
C823 C822 1.391 . S
H824 C832 0.950 . S
H825 C837 0.950 . S
H826 C834 0.950 . S
H827 C836 0.950 . S
H828 C838 0.950 . S
H829 C840 0.950 . S
H830 C842 0.950 . S
H831 C843 0.950 . S
C832 H824 0.950 . S
C832 C833 1.386 . S
C832 C834 1.391 . S
C833 C832 1.386 . S
C833 C837 1.393 . S
C834 H826 0.950 . S
C834 C832 1.391 . S
C834 C835 1.400 . S
C835 C834 1.400 . S
C835 C836 1.398 . S
C835 C841 1.491 . S
C836 H827 0.950 . S
C836 C835 1.398 . S
C836 C837 1.391 . S
C837 H825 0.950 . S
C837 C833 1.393 . S
C837 C836 1.391 . S
C838 H828 0.950 . S
C838 C839 1.386 . S
C838 C840 1.391 . S
C839 C838 1.386 . S
C839 C843 1.393 . S
C840 H829 0.950 . S
C840 C838 1.391 . S
C840 C841 1.400 . S
C841 C835 1.491 . S
C841 C840 1.400 . S
C841 C842 1.398 . S
C842 H830 0.950 . S
C842 C841 1.398 . S
C842 C843 1.391 . S
C843 H831 0.950 . S
C843 C839 1.393 . S
C843 C842 1.391 . S
H844 C852 0.950 . S
H845 C857 0.950 . S
H846 C854 0.950 . S
H847 C856 0.950 . S
H848 C858 0.950 . S
H849 C860 0.950 . S
H850 C862 0.950 . S
H851 C863 0.950 . S
C852 H844 0.950 . S
C852 C853 1.386 . S
C852 C854 1.391 . S
C853 C852 1.386 . S
C853 C857 1.393 . S
C854 H846 0.950 . S
C854 C852 1.391 . S
C854 C855 1.400 . S
C855 C854 1.400 . S
C855 C856 1.398 . S
C855 C861 1.491 . S
C856 H847 0.950 . S
C856 C855 1.398 . S
C856 C857 1.391 . S
C857 H845 0.950 . S
C857 C853 1.393 . S
C857 C856 1.391 . S
C858 H848 0.950 . S
C858 C859 1.386 . S
C858 C860 1.391 . S
C859 C858 1.386 . S
C859 C863 1.393 . S
C860 H849 0.950 . S
C860 C858 1.391 . S
C860 C861 1.400 . S
C861 C855 1.491 . S
C861 C860 1.400 . S
C861 C862 1.398 . S
C862 H850 0.950 . S
C862 C861 1.398 . S
C862 C863 1.391 . S
C863 H851 0.950 . S
C863 C859 1.393 . S
C863 C862 1.391 . S
H864 C872 0.950 . S
H865 C877 0.950 . S
H866 C874 0.950 . S
H867 C876 0.950 . S
H868 C878 0.950 . S
H869 C880 0.950 . S
H870 C882 0.950 . S
H871 C883 0.950 . S
C872 H864 0.950 . S
C872 C873 1.386 . S
C872 C874 1.391 . S
C873 C872 1.386 . S
C873 C877 1.393 . S
C874 H866 0.950 . S
C874 C872 1.391 . S
C874 C875 1.400 . S
C875 C874 1.400 . S
C875 C876 1.398 . S
C875 C881 1.491 . S
C876 H867 0.950 . S
C876 C875 1.398 . S
C876 C877 1.391 . S
C877 H865 0.950 . S
C877 C873 1.393 . S
C877 C876 1.391 . S
C878 H868 0.950 . S
C878 C879 1.386 . S
C878 C880 1.391 . S
C879 C878 1.386 . S
C879 C883 1.393 . S
C880 H869 0.950 . S
C880 C878 1.391 . S
C880 C881 1.400 . S
C881 C875 1.491 . S
C881 C880 1.400 . S
C881 C882 1.398 . S
C882 H870 0.950 . S
C882 C881 1.398 . S
C882 C883 1.391 . S
C883 H871 0.950 . S
C883 C879 1.393 . S
C883 C882 1.391 . S
H884 C892 0.950 . S
H885 C897 0.950 . S
H886 C894 0.950 . S
H887 C896 0.950 . S
H888 C898 0.950 . S
H889 C900 0.950 . S
H890 C902 0.950 . S
H891 C903 0.950 . S
C892 H884 0.950 . S
C892 C893 1.386 . S
C892 C894 1.391 . S
C893 C892 1.386 . S
C893 C897 1.393 . S
C894 H886 0.950 . S
C894 C892 1.391 . S
C894 C895 1.400 . S
C895 C894 1.400 . S
C895 C896 1.398 . S
C895 C901 1.491 . S
C896 H887 0.950 . S
C896 C895 1.398 . S
C896 C897 1.391 . S
C897 H885 0.950 . S
C897 C893 1.393 . S
C897 C896 1.391 . S
C898 H888 0.950 . S
C898 C899 1.386 . S
C898 C900 1.391 . S
C899 C898 1.386 . S
C899 C903 1.393 . S
C900 H889 0.950 . S
C900 C898 1.391 . S
C900 C901 1.400 . S
C901 C895 1.491 . S
C901 C900 1.400 . S
C901 C902 1.398 . S
C902 H890 0.950 . S
C902 C901 1.398 . S
C902 C903 1.391 . S
C903 H891 0.950 . S
C903 C899 1.393 . S
C903 C902 1.391 . S
H904 C912 0.950 . S
H905 C917 0.950 . S
H906 C914 0.950 . S
H907 C916 0.950 . S
H908 C918 0.950 . S
H909 C920 0.950 . S
H910 C922 0.950 . S
H911 C923 0.950 . S
C912 H904 0.950 . S
C912 C913 1.386 . S
C912 C914 1.391 . S
C913 C912 1.386 . S
C913 C917 1.393 . S
C914 H906 0.950 . S
C914 C912 1.391 . S
C914 C915 1.400 . S
C915 C914 1.400 . S
C915 C916 1.398 . S
C915 C921 1.491 . S
C916 H907 0.950 . S
C916 C915 1.398 . S
C916 C917 1.391 . S
C917 H905 0.950 . S
C917 C913 1.393 . S
C917 C916 1.391 . S
C918 H908 0.950 . S
C918 C919 1.386 . S
C918 C920 1.391 . S
C919 C918 1.386 . S
C919 C923 1.393 . S
C920 H909 0.950 . S
C920 C918 1.391 . S
C920 C921 1.400 . S
C921 C915 1.491 . S
C921 C920 1.400 . S
C921 C922 1.398 . S
C922 H910 0.950 . S
C922 C921 1.398 . S
C922 C923 1.391 . S
C923 H911 0.950 . S
C923 C919 1.393 . S
C923 C922 1.391 . S
H924 C932 0.950 . S
H925 C937 0.950 . S
H926 C934 0.950 . S
H927 C936 0.950 . S
H928 C938 0.950 . S
H929 C940 0.950 . S
H930 C942 0.950 . S
H931 C943 0.950 . S
C932 H924 0.950 . S
C932 C933 1.386 . S
C932 C934 1.391 . S
C933 C932 1.386 . S
C933 C937 1.393 . S
C934 H926 0.950 . S
C934 C932 1.391 . S
C934 C935 1.400 . S
C935 C934 1.400 . S
C935 C936 1.398 . S
C935 C941 1.491 . S
C936 H927 0.950 . S
C936 C935 1.398 . S
C936 C937 1.391 . S
C937 H925 0.950 . S
C937 C933 1.393 . S
C937 C936 1.391 . S
C938 H928 0.950 . S
C938 C939 1.386 . S
C938 C940 1.391 . S
C939 C938 1.386 . S
C939 C943 1.393 . S
C940 H929 0.950 . S
C940 C938 1.391 . S
C940 C941 1.400 . S
C941 C935 1.491 . S
C941 C940 1.400 . S
C941 C942 1.398 . S
C942 H930 0.950 . S
C942 C941 1.398 . S
C942 C943 1.391 . S
C943 H931 0.950 . S
C943 C939 1.393 . S
C943 C942 1.391 . S
H944 C952 0.950 . S
H945 C957 0.950 . S
H946 C954 0.950 . S
H947 C956 0.950 . S
H948 C958 0.950 . S
H949 C960 0.950 . S
H950 C962 0.950 . S
H951 C963 0.950 . S
C952 H944 0.950 . S
C952 C953 1.386 . S
C952 C954 1.391 . S
C953 C952 1.386 . S
C953 C957 1.393 . S
C954 H946 0.950 . S
C954 C952 1.391 . S
C954 C955 1.400 . S
C955 C954 1.400 . S
C955 C956 1.398 . S
C955 C961 1.491 . S
C956 H947 0.950 . S
C956 C955 1.398 . S
C956 C957 1.391 . S
C957 H945 0.950 . S
C957 C953 1.393 . S
C957 C956 1.391 . S
C958 H948 0.950 . S
C958 C959 1.386 . S
C958 C960 1.391 . S
C959 C958 1.386 . S
C959 C963 1.393 . S
C960 H949 0.950 . S
C960 C958 1.391 . S
C960 C961 1.400 . S
C961 C955 1.491 . S
C961 C960 1.400 . S
C961 C962 1.398 . S
C962 H950 0.950 . S
C962 C961 1.398 . S
C962 C963 1.391 . S
C963 H951 0.950 . S
C963 C959 1.393 . S
C963 C962 1.391 . S
H964 C972 0.950 . S
H965 C977 0.950 . S
H966 C974 0.950 . S
H967 C976 0.950 . S
H968 C978 0.950 . S
H969 C980 0.950 . S
H970 C982 0.950 . S
H971 C983 0.950 . S
C972 H964 0.950 . S
C972 C973 1.386 . S
C972 C974 1.391 . S
C973 C972 1.386 . S
C973 C977 1.393 . S
C974 H966 0.950 . S
C974 C972 1.391 . S
C974 C975 1.400 . S
C975 C974 1.400 . S
C975 C976 1.398 . S
C975 C981 1.491 . S
C976 H967 0.950 . S
C976 C975 1.398 . S
C976 C977 1.391 . S
C977 H965 0.950 . S
C977 C973 1.393 . S
C977 C976 1.391 . S
C978 H968 0.950 . S
C978 C979 1.386 . S
C978 C980 1.391 . S
C979 C978 1.386 . S
C979 C983 1.393 . S
C980 H969 0.950 . S
C980 C978 1.391 . S
C980 C981 1.400 . S
C981 C975 1.491 . S
C981 C980 1.400 . S
C981 C982 1.398 . S
C982 H970 0.950 . S
C982 C981 1.398 . S
C982 C983 1.391 . S
C983 H971 0.950 . S
C983 C979 1.393 . S
C983 C982 1.391 . S
H984 C992 0.950 . S
H985 C997 0.950 . S
H986 C994 0.950 . S
H987 C996 0.950 . S
H988 C998 0.950 . S
H989 C1000 0.950 . S
H990 C1002 0.950 . S
H991 C1003 0.950 . S
C992 H984 0.950 . S
C992 C993 1.386 . S
C992 C994 1.391 . S
C993 C992 1.386 . S
C993 C997 1.393 . S
C994 H986 0.950 . S
C994 C992 1.391 . S
C994 C995 1.400 . S
C995 C994 1.400 . S
C995 C996 1.398 . S
C995 C1001 1.491 . S
C996 H987 0.950 . S
C996 C995 1.398 . S
C996 C997 1.391 . S
C997 H985 0.950 . S
C997 C993 1.393 . S
C997 C996 1.391 . S
C998 H988 0.950 . S
C998 C999 1.386 . S
C998 C1000 1.391 . S
C999 C998 1.386 . S
C999 C1003 1.393 . S
C1000 H989 0.950 . S
C1000 C998 1.391 . S
C1000 C1001 1.400 . S
C1001 C995 1.491 . S
C1001 C1000 1.400 . S
C1001 C1002 1.398 . S
C1002 H990 0.950 . S
C1002 C1001 1.398 . S
C1002 C1003 1.391 . S
C1003 H991 0.950 . S
C1003 C999 1.393 . S
C1003 C1002 1.391 . S
H1004 C1012 0.950 . S
H1005 C1017 0.950 . S
H1006 C1014 0.950 . S
H1007 C1016 0.950 . S
H1008 C1018 0.950 . S
H1009 C1020 0.950 . S
H1010 C1022 0.950 . S
H1011 C1023 0.950 . S
C1012 H1004 0.950 . S
C1012 C1013 1.386 . S
C1012 C1014 1.391 . S
C1013 C1012 1.386 . S
C1013 C1017 1.393 . S
C1014 H1006 0.950 . S
C1014 C1012 1.391 . S
C1014 C1015 1.400 . S
C1015 C1014 1.400 . S
C1015 C1016 1.398 . S
C1015 C1021 1.491 . S
C1016 H1007 0.950 . S
C1016 C1015 1.398 . S
C1016 C1017 1.391 . S
C1017 H1005 0.950 . S
C1017 C1013 1.393 . S
C1017 C1016 1.391 . S
C1018 H1008 0.950 . S
C1018 C1019 1.386 . S
C1018 C1020 1.391 . S
C1019 C1018 1.386 . S
C1019 C1023 1.393 . S
C1020 H1009 0.950 . S
C1020 C1018 1.391 . S
C1020 C1021 1.400 . S
C1021 C1015 1.491 . S
C1021 C1020 1.400 . S
C1021 C1022 1.398 . S
C1022 H1010 0.950 . S
C1022 C1021 1.398 . S
C1022 C1023 1.391 . S
C1023 H1011 0.950 . S
C1023 C1019 1.393 . S
C1023 C1022 1.391 . S
H1024 C1032 0.950 . S
H1025 C1037 0.950 . S
H1026 C1034 0.950 . S
H1027 C1036 0.950 . S
H1028 C1038 0.950 . S
H1029 C1040 0.950 . S
H1030 C1042 0.950 . S
H1031 C1043 0.950 . S
C1032 H1024 0.950 . S
C1032 C1033 1.386 . S
C1032 C1034 1.391 . S
C1033 C1032 1.386 . S
C1033 C1037 1.393 . S
C1034 H1026 0.950 . S
C1034 C1032 1.391 . S
C1034 C1035 1.400 . S
C1035 C1034 1.400 . S
C1035 C1036 1.398 . S
C1035 C1041 1.491 . S
C1036 H1027 0.950 . S
C1036 C1035 1.398 . S
C1036 C1037 1.391 . S
C1037 H1025 0.950 . S
C1037 C1033 1.393 . S
C1037 C1036 1.391 . S
C1038 H1028 0.950 . S
C1038 C1039 1.386 . S
C1038 C1040 1.391 . S
C1039 C1038 1.386 . S
C1039 C1043 1.393 . S
C1040 H1029 0.950 . S
C1040 C1038 1.391 . S
C1040 C1041 1.400 . S
C1041 C1035 1.491 . S
C1041 C1040 1.400 . S
C1041 C1042 1.398 . S
C1042 H1030 0.950 . S
C1042 C1041 1.398 . S
C1042 C1043 1.391 . S
C1043 H1031 0.950 . S
C1043 C1039 1.393 . S
C1043 C1042 1.391 . S
C579 C492 1.507 . S
C573 C31 1.490 . S
C599 C495 1.508 . S
C593 C61 1.482 . S
C619 C493 1.505 . S
C613 C121 1.481 . S
C639 C494 1.503 . S
C633 C211 1.470 . S
C659 C509 1.502 . S
C653 C1 1.484 . S
C679 C523 1.507 . S
C673 C91 1.493 . S
C693 C151 1.467 . S
C699 C549 1.503 . S
C719 C563 1.506 . S
C713 C181 1.477 . S
C739 C508 1.502 . S
C733 C80 1.483 . S
C753 C140 1.489 . S
C759 C522 1.506 . S
C779 C548 1.505 . S
C773 C200 1.471 . S
C799 C562 1.503 . S
C793 C20 1.482 . S
C813 C271 1.484 . S
C819 C507 1.508 . S
C839 C480 1.503 . S
C833 C331 1.484 . S
C853 C380 1.477 . S
C859 C506 1.503 . S
C873 C421 1.479 . S
C879 C481 1.504 . S
C899 C536 1.503 . S
C893 C241 1.493 . S
C919 C550 1.503 . S
C913 C320 1.474 . S
C939 C520 1.506 . S
C933 C361 1.491 . S
C953 C440 1.490 . S
C959 C534 1.504 . S
C979 C537 1.505 . S
C973 C301 1.473 . S
C999 C551 1.504 . S
C993 C391 1.494 . S
C1019 C521 1.505 . S
C1013 C451 1.486 . S
C1033 C260 1.493 . S
C1039 C535 1.509 . S
