# Generated by pormake.
# Topology anh, (6,3)-cn, num edge types: 1
# Building blocks:
#     Node 0, Type 0, BuildingBlock: PAMTOO_clean_sbu_0, # of connection points: 6
#     Node 1, Type 0, BuildingBlock: PAMTOO_clean_sbu_0, # of connection points: 6
#     Node 2, Type 0, BuildingBlock: PAMTOO_clean_sbu_0, # of connection points: 6
#     Node 3, Type 1, BuildingBlock: BETDIP_clean_linker_0, # of connection points: 3
#     Node 4, Type 1, BuildingBlock: BETDIP_clean_linker_0, # of connection points: 3
#     Node 5, Type 1, BuildingBlock: BETDIP_clean_linker_0, # of connection points: 3
#     Node 6, Type 1, BuildingBlock: BETDIP_clean_linker_0, # of connection points: 3
#     Node 7, Type 1, BuildingBlock: BETDIP_clean_linker_0, # of connection points: 3
#     Node 8, Type 1, BuildingBlock: BETDIP_clean_linker_0, # of connection points: 3
#     Edge 9, Type (0, 1), BuildingBlock: XIVTED_clean_linker_0, # of connection points: 2
#     Edge 10, Type (0, 1), BuildingBlock: XIVTED_clean_linker_0, # of connection points: 2
#     Edge 11, Type (0, 1), BuildingBlock: XIVTED_clean_linker_0, # of connection points: 2
#     Edge 12, Type (0, 1), BuildingBlock: XIVTED_clean_linker_0, # of connection points: 2
#     Edge 13, Type (0, 1), BuildingBlock: XIVTED_clean_linker_0, # of connection points: 2
#     Edge 14, Type (0, 1), BuildingBlock: XIVTED_clean_linker_0, # of connection points: 2
#     Edge 15, Type (0, 1), BuildingBlock: XIVTED_clean_linker_0, # of connection points: 2
#     Edge 16, Type (0, 1), BuildingBlock: XIVTED_clean_linker_0, # of connection points: 2
#     Edge 17, Type (0, 1), BuildingBlock: XIVTED_clean_linker_0, # of connection points: 2
#     Edge 18, Type (0, 1), BuildingBlock: XIVTED_clean_linker_0, # of connection points: 2
#     Edge 19, Type (0, 1), BuildingBlock: XIVTED_clean_linker_0, # of connection points: 2
#     Edge 20, Type (0, 1), BuildingBlock: XIVTED_clean_linker_0, # of connection points: 2
#     Edge 21, Type (0, 1), BuildingBlock: XIVTED_clean_linker_0, # of connection points: 2
#     Edge 22, Type (0, 1), BuildingBlock: XIVTED_clean_linker_0, # of connection points: 2
#     Edge 23, Type (0, 1), BuildingBlock: XIVTED_clean_linker_0, # of connection points: 2
#     Edge 24, Type (0, 1), BuildingBlock: XIVTED_clean_linker_0, # of connection points: 2
#     Edge 25, Type (0, 1), BuildingBlock: XIVTED_clean_linker_0, # of connection points: 2
#     Edge 26, Type (0, 1), BuildingBlock: XIVTED_clean_linker_0, # of connection points: 2
# Relax obj value: 0.159
# Max RMSD: 0.208
# Mean RMSD: 0.127
data_MOF--net-anh--node1-PAMTOO_clean_sbu_0--node2-BETDIP_clean_linker_0--edge1-XIVTED_clean_linker_0
_symmetry_space_group_name_H-M    P1
_symmetry_Int_Tables_number       1
_symmetry_cell_setting            triclinic
loop_
_symmetry_equiv_pos_as_xyz
'x, y, z'
_cell_length_a     30.182747
_cell_length_b     29.798233
_cell_length_c     50.012986
_cell_angle_alpha  92.806989
_cell_angle_beta   95.052459
_cell_angle_gamma 100.64346
loop_
_atom_site_label
_atom_site_type_symbol
_atom_site_fract_x
_atom_site_fract_y
_atom_site_fract_z
_atom_type_partial_charge
Dy0 Dy 0.11454 0.65586 0.15557 0.0
Dy1 Dy 0.08876 0.54556 0.13736 0.0
C2 C 0.10896 0.62122 0.09429 0.0
O3 O 1.03868 0.64082 0.14443 0.0
O4 O 1.02665 0.56463 0.15213 0.0
O5 O 0.11466 0.72625 0.14693 0.0
O6 O 0.14494 0.71018 0.18532 0.0
O7 O 0.10809 0.5513 0.18188 0.0
O8 O 0.09078 0.62158 0.19149 0.0
O9 O 0.16221 0.56472 0.13152 0.0
O10 O 0.18046 0.62995 0.15987 0.0
O11 O 0.09803 0.47572 0.14061 0.0
O12 O 1.04484 0.49092 0.11255 0.0
C13 C 1.01113 0.60246 0.14847 0.0
O14 O 0.13141 0.64988 0.11356 0.0
O15 O 1.08394 0.58218 0.09937 0.0
C16 C 0.18271 0.77363 0.1654 0.0
C17 C 0.26786 0.83036 0.16309 0.0
C18 C 0.258 0.78612 0.15022 0.0
C19 C 0.21581 0.75802 0.15138 0.0
C20 C 0.19169 0.81815 0.17751 0.0
C21 C 0.23392 0.8464 0.17631 0.0
C22 C 0.14042 0.74216 0.16895 0.0
C23 C 0.09951 0.58245 0.19916 0.0
C24 C 0.19249 0.59658 0.14558 0.0
C25 C 1.02783 0.42383 0.13514 0.0
C26 C 0.95618 0.36194 0.15364 0.0
C27 C 0.98345 0.3964 0.17132 0.0
C28 C 1.01868 0.42721 0.16212 0.0
C29 C 1.00168 0.38884 0.1176 0.0
C30 C 0.96617 0.35815 0.12674 0.0
C31 C 1.06152 0.45906 0.12462 0.0
H32 H 0.28318 0.77293 0.13964 0.0
H33 H 0.20941 0.72363 0.14192 0.0
H34 H 0.16657 0.83057 0.18855 0.0
H35 H 0.24063 0.88007 0.1867 0.0
H36 H 0.97734 0.39992 0.19226 0.0
H37 H 1.03815 0.45428 0.17598 0.0
H38 H 1.00789 0.38607 0.09663 0.0
H39 H 0.94561 0.3325 0.11247 0.0
Dy40 Dy 0.56431 0.01767 0.50868 0.0
Dy41 Dy 0.67561 0.03337 0.51687 0.0
C42 C 0.61787 0.02672 0.56596 0.0
O43 O 0.58617 0.09124 0.50109 0.0
O44 O 0.65744 0.1024 0.52366 0.0
O45 O 0.50188 0.00208 0.52725 0.0
O46 O 0.5002 0.01356 0.48478 0.0
O47 O 0.65465 0.04931 0.47513 0.0
O48 O 0.58799 0.99805 0.46946 0.0
O49 O 0.65425 0.95754 0.50761 0.0
O50 O 0.58009 0.94943 0.51722 0.0
O51 O 0.73966 0.02844 0.50187 0.0
O52 O 0.73807 0.06071 0.54146 0.0
C53 C 0.62335 0.11847 0.51198 0.0
O54 O 0.58887 0.04462 0.55083 0.0
O55 O 0.64997 0.01003 0.55527 0.0
C56 C 0.44397 0.95547 0.49893 0.0
C57 C 0.38575 0.86899 0.49316 0.0
C58 C 0.37757 0.90393 0.51099 0.0
C59 C 0.40639 0.94677 0.51379 0.0
C60 C 0.45206 0.92095 0.48093 0.0
C61 C 0.42307 0.87831 0.47791 0.0
C62 C 0.47682 0.99875 0.50441 0.0
C63 C 0.62192 0.02344 0.45935 0.0
C64 C 0.61554 0.93185 0.51214 0.0
C65 C 0.79307 0.09534 0.51491 0.0
C66 C 0.84945 0.17514 0.50059 0.0
C67 C 0.80204 0.17086 0.49767 0.0
C68 C 0.7742 0.13132 0.50464 0.0
C69 C 0.84024 0.09937 0.51818 0.0
C70 C 0.8683 0.13903 0.51107 0.0
C71 C 0.76298 0.05408 0.52213 0.0
H72 H 0.34963 0.8979 0.52334 0.0
H73 H 0.40002 0.97275 0.52811 0.0
H74 H 0.48125 0.92662 0.4695 0.0
H75 H 0.43003 0.85265 0.46362 0.0
H76 H 0.78634 0.19824 0.49016 0.0
H77 H 0.7378 0.12882 0.50202 0.0
H78 H 0.85531 0.07184 0.52608 0.0
H79 H 0.90464 0.14107 0.51334 0.0
Dy80 Dy 0.61962 0.47974 0.83664 0.0
Dy81 Dy 0.50848 0.45015 0.82913 0.0
C82 C 0.56721 0.46142 0.77983 0.0
O83 O 0.59489 0.54454 0.82798 0.0
O84 O 0.51983 0.52606 0.83571 0.0
O85 O 0.67906 0.52108 0.82401 0.0
O86 O 0.68582 0.47466 0.85568 0.0
O87 O 0.53025 0.44838 0.87309 0.0
O88 O 0.59631 0.50106 0.87521 0.0
O89 O 0.53276 0.38399 0.82592 0.0
O90 O 0.60544 0.40626 0.84627 0.0
O91 O 0.44319 0.44324 0.84449 0.0
O92 O 0.44787 0.42102 0.80314 0.0
C93 C 0.55572 0.55617 0.83148 0.0
O94 O 0.59893 0.44829 0.7953 0.0
O95 O 0.53284 0.47423 0.79029 0.0
C96 C 0.74619 0.49059 0.82778 0.0
C97 C 0.83004 0.48976 0.8074 0.0
C98 C 0.79129 0.49067 0.78981 0.0
C99 C 0.7496 0.49095 0.79991 0.0
C100 C 0.78376 0.48522 0.84497 0.0
C101 C 0.82529 0.48458 0.83488 0.0
C102 C 0.70672 0.50284 0.83966 0.0
C103 C 0.56278 0.47825 0.88688 0.0
C104 C 0.57055 0.37426 0.83715 0.0
C105 C 0.38912 0.45972 0.81231 0.0
C106 C 0.33362 0.5254 0.80662 0.0
C107 C 0.37721 0.53351 0.79786 0.0
C108 C 0.40478 0.50096 0.80077 0.0
C109 C 0.34464 0.45009 0.81933 0.0
C110 C 0.31696 0.48266 0.8164 0.0
C111 C 0.42126 0.43071 0.82089 0.0
H112 H 0.79387 0.49422 0.76852 0.0
H113 H 0.7209 0.49449 0.7861 0.0
H114 H 0.78187 0.48485 0.8665 0.0
H115 H 0.85449 0.4843 0.84906 0.0
H116 H 0.39127 0.56625 0.79058 0.0
H117 H 0.43929 0.50916 0.79551 0.0
H118 H 0.33218 0.41851 0.8284 0.0
H119 H 0.28331 0.4753 0.82302 0.0
H120 H 0.5962 0.05622 0.18214 0.0
H121 H 0.67364 0.09739 0.25863 0.0
H122 H 0.55371 0.99266 0.25326 0.0
H123 H 0.67976 0.16823 0.2383 0.0
C124 C 0.69081 0.15643 0.21953 0.0
C125 C 0.60137 0.05281 0.20361 0.0
C126 C 0.57144 0.02026 0.21594 0.0
C127 C 0.63776 0.08142 0.21902 0.0
C128 C 0.64455 0.07663 0.24688 0.0
C129 C 0.61457 0.0445 0.25954 0.0
C130 C 0.57813 0.01653 0.24378 0.0
N131 N 0.66759 0.11433 0.20617 0.0
H132 H 0.62421 0.48626 0.50758 0.0
H133 H 0.59778 0.55819 0.5796 0.0
H134 H 0.62295 0.42124 0.58247 0.0
H135 H 0.54495 0.57934 0.54249 0.0
C136 C 0.57427 0.59358 0.53234 0.0
C137 C 0.62039 0.48732 0.52893 0.0
C138 C 0.62515 0.44923 0.54369 0.0
C139 C 0.61006 0.52665 0.54176 0.0
C140 C 0.60476 0.52764 0.56948 0.0
C141 C 0.61004 0.48998 0.58438 0.0
C142 C 0.62021 0.45105 0.57128 0.0
N143 N 0.60617 0.5655 0.52692 0.0
H144 H 0.12373 0.7356 0.82812 0.0
H145 H 0.16559 0.77569 0.91154 0.0
H146 H 1.08299 0.64322 0.8885 0.0
H147 H 0.20772 0.83454 0.82983 0.0
C148 C 0.20198 0.80421 0.84115 0.0
C149 C 0.12383 0.72778 0.84905 0.0
C150 C 0.10138 0.68504 0.85589 0.0
C151 C 0.14694 0.76048 0.86916 0.0
C152 C 0.14682 0.7506 0.89629 0.0
C153 C 0.12506 0.70755 0.90347 0.0
C154 C 0.10199 0.67545 0.88309 0.0
N155 N 0.17273 0.80236 0.8621 0.0
H156 H 0.14498 0.54599 0.47572 0.0
H157 H 1.07939 0.4871 0.39862 0.0
H158 H 0.18995 0.60152 0.40282 0.0
H159 H 1.01833 0.47838 0.42456 0.0
C160 C 1.03353 0.46244 0.44121 0.0
C161 C 0.14234 0.54517 0.45394 0.0
C162 C 0.17194 0.57708 0.44096 0.0
C163 C 0.10865 0.51274 0.43883 0.0
C164 C 0.10511 0.51206 0.41052 0.0
C165 C 0.13397 0.54434 0.39744 0.0
C166 C 0.16765 0.57628 0.4128 0.0
N167 N 1.07848 0.48125 0.45234 0.0
H168 H 0.57095 0.00623 0.8398 0.0
H169 H 0.57287 0.93197 0.7639 0.0
H170 H 0.59556 0.07891 0.76872 0.0
H171 H 0.50823 0.88648 0.78704 0.0
C172 C 0.53335 0.8825 0.80328 0.0
C173 C 0.57513 0.00603 0.8185 0.0
C174 C 0.5839 0.04754 0.80594 0.0
C175 C 0.57096 0.96414 0.80336 0.0
C176 C 0.57596 0.96413 0.77564 0.0
C177 C 0.58466 0.00541 0.76299 0.0
C178 C 0.58889 0.04684 0.77835 0.0
N179 N 0.56236 0.92222 0.81613 0.0
H180 H 0.5596 0.60908 0.15811 0.0
H181 H 0.63166 0.57257 0.09236 0.0
H182 H 0.48766 0.56389 0.08025 0.0
H183 H 0.65466 0.53143 0.1396 0.0
C184 C 0.67089 0.56706 0.14416 0.0
C185 C 0.55954 0.59777 0.13719 0.0
C186 C 0.51811 0.58602 0.1205 0.0
C187 C 0.60062 0.59209 0.12705 0.0
C188 C 0.60011 0.57681 0.10004 0.0
C189 C 0.55968 0.56691 0.08297 0.0
C190 C 0.51898 0.57127 0.09342 0.0
N191 N 0.6426 0.60054 0.14373 0.0
H192 H 0.2292 0.52619 0.12546 0.0
H193 H 0.48888 0.65665 0.14793 0.0
H194 H 0.26813 0.66206 0.16434 0.0
H195 H 0.44386 0.51774 0.1149 0.0
H196 H 0.41021 0.65951 0.15684 0.0
H197 H 0.30875 0.52298 0.12335 0.0
C198 C 0.25445 0.55546 0.13361 0.0
C199 C 0.24155 0.59451 0.14504 0.0
C200 C 0.41772 0.62828 0.14791 0.0
C201 C 0.33391 0.59108 0.14261 0.0
C202 C 0.46268 0.62654 0.14304 0.0
C203 C 0.47296 0.587 0.13047 0.0
C204 C 0.38292 0.59015 0.1402 0.0
C205 C 0.43751 0.54912 0.12434 0.0
C206 C 0.30016 0.55355 0.13246 0.0
C207 C 0.27631 0.63117 0.15538 0.0
N208 N 0.39437 0.55177 0.12905 0.0
N209 N 0.32081 0.62868 0.15378 0.0
H210 H 0.93072 0.22254 0.52573 0.0
H211 H 0.9496 0.41938 0.4216 0.0
H212 H 0.83484 0.22319 0.45646 0.0
H213 H 1.05695 0.41125 0.48301 0.0
H214 H 0.90537 0.34939 0.43617 0.0
H215 H 0.97656 0.29281 0.512 0.0
C216 C 0.91943 0.23723 0.50757 0.0
C217 C 0.87866 0.21699 0.49233 0.0
C218 C 0.93858 0.3628 0.44652 0.0
C219 C 0.93062 0.29764 0.47674 0.0
C220 C 0.96374 0.40281 0.43824 0.0
C221 C 1.00688 0.42097 0.45109 0.0
C222 C 0.95663 0.34071 0.46791 0.0
C223 C 1.02376 0.39829 0.47255 0.0
C224 C 0.94549 0.27747 0.49984 0.0
C225 C 0.8655 0.23793 0.46915 0.0
N226 N 0.99854 0.35922 0.48031 0.0
N227 N 0.8913 0.27704 0.46214 0.0
H228 H 0.47813 0.59106 0.82308 0.0
H229 H 0.60273 0.85366 0.83334 0.0
H230 H 0.62361 0.63224 0.83601 0.0
H231 H 0.47118 0.80499 0.79014 0.0
H232 H 0.60787 0.77427 0.84225 0.0
H233 H 0.47201 0.67113 0.81865 0.0
C234 C 0.50879 0.61692 0.82516 0.0
C235 C 0.5515 0.60481 0.82979 0.0
C236 C 0.57779 0.7811 0.83097 0.0
C237 C 0.54461 0.69667 0.82497 0.0
C238 C 0.57473 0.82634 0.82603 0.0
C239 C 0.5364 0.83574 0.811 0.0
C240 C 0.542 0.74527 0.82116 0.0
C241 C 0.50128 0.79908 0.8018 0.0
C242 C 0.50525 0.66262 0.82254 0.0
C243 C 0.59003 0.63993 0.83225 0.0
N244 N 0.50483 0.75549 0.80707 0.0
N245 N 0.58567 0.68427 0.82988 0.0
H246 H 0.94725 0.52844 0.15715 0.0
H247 H 0.73084 0.65097 0.14461 0.0
H248 H 0.96065 0.67152 0.14211 0.0
H249 H 0.7261 0.5065 0.15096 0.0
H250 H 0.81443 0.66252 0.14676 0.0
H251 H 0.86641 0.52312 0.15802 0.0
C252 C 0.93333 0.559 0.15404 0.0
C253 C 0.96135 0.60056 0.14945 0.0
C254 C 0.79499 0.62839 0.14785 0.0
C255 C 0.86706 0.59448 0.15041 0.0
C256 C 0.74733 0.62184 0.14678 0.0
C257 C 0.72145 0.57765 0.14771 0.0
C258 C 0.8167 0.59051 0.15001 0.0
C259 C 0.7446 0.54114 0.15023 0.0
C260 C 0.88674 0.55585 0.15454 0.0
C261 C 0.94057 0.63873 0.14566 0.0
N262 N 0.79051 0.54836 0.15126 0.0
N263 N 0.8947 0.63478 0.14617 0.0
H264 H 0.40972 0.78496 0.48553 0.0
H265 H 0.15616 0.64263 0.47697 0.0
H266 H 0.29333 0.84749 0.49511 0.0
H267 H 0.2631 0.59614 0.43829 0.0
H268 H 0.20992 0.71226 0.49466 0.0
H269 H 0.35947 0.71031 0.47822 0.0
C270 C 0.37365 0.78316 0.48605 0.0
C271 C 0.3558 0.82294 0.49051 0.0
C272 C 0.22173 0.68641 0.48269 0.0
C273 C 0.29825 0.73715 0.4829 0.0
C274 C 0.19127 0.64662 0.47285 0.0
C275 C 0.20545 0.6139 0.45621 0.0
C276 C 0.26662 0.69305 0.47599 0.0
C277 C 0.25103 0.62077 0.45106 0.0
C278 C 0.34506 0.74041 0.4821 0.0
C279 C 0.30881 0.81795 0.49187 0.0
N280 N 0.28 0.65972 0.4608 0.0
N281 N 0.28166 0.7759 0.48794 0.0
H282 H 0.64757 0.33831 0.84603 0.0
H283 H 0.51508 0.07783 0.82867 0.0
H284 H 0.50202 0.299 0.83213 0.0
H285 H 0.65481 0.11948 0.81411 0.0
H286 H 0.51259 0.15779 0.84195 0.0
H287 H 0.65295 0.25724 0.84551 0.0
C288 C 0.61671 0.3127 0.84314 0.0
C289 C 0.57429 0.32552 0.83881 0.0
C290 C 0.54406 0.14925 0.83639 0.0
C291 C 0.58027 0.23274 0.83847 0.0
C292 C 0.5456 0.10366 0.82915 0.0
C293 C 0.58525 0.09231 0.82044 0.0
C294 C 0.58256 0.18348 0.83505 0.0
C295 C 0.62369 0.12704 0.82084 0.0
C296 C 0.61985 0.26646 0.84282 0.0
C297 C 0.53547 0.29075 0.83521 0.0
N298 N 0.62133 0.17113 0.82783 0.0
N299 N 0.5394 0.24599 0.83505 0.0
H300 H 0.68105 0.87893 0.50692 0.0
H301 H 0.51332 0.64869 0.53558 0.0
H302 H 0.5392 0.86919 0.5176 0.0
H303 H 0.64916 0.64905 0.51509 0.0
H304 H 0.5233 0.73009 0.52839 0.0
H305 H 0.67147 0.79549 0.5092 0.0
C306 C 0.64795 0.85939 0.50964 0.0
C307 C 0.61102 0.88136 0.5123 0.0
C308 C 0.55097 0.71253 0.52526 0.0
C309 C 0.59989 0.78607 0.51494 0.0
C310 C 0.54521 0.66599 0.52935 0.0
C311 C 0.58037 0.64217 0.52589 0.0
C312 C 0.59252 0.73584 0.5179 0.0
C313 C 0.6211 0.66619 0.51787 0.0
C314 C 0.64251 0.81177 0.51092 0.0
C315 C 0.56888 0.85413 0.5157 0.0
N316 N 0.62621 0.7119 0.51432 0.0
N317 N 0.56461 0.8082 0.51703 0.0
H318 H 0.90655 0.4543 0.8203 0.0
H319 H 1.04386 0.70028 0.8132 0.0
H320 H 0.85865 0.55911 0.77567 0.0
H321 H 0.09724 0.5923 0.85159 0.0
H322 H 0.98581 0.64286 0.78736 0.0
H323 H 0.98418 0.49571 0.8196 0.0
C324 C 0.91249 0.4853 0.80964 0.0
C325 C 0.87603 0.50401 0.79878 0.0
C326 C 1.01082 0.63154 0.80096 0.0
C327 C 0.96449 0.5521 0.79839 0.0
C328 C 1.04417 0.66442 0.81565 0.0
C329 C 1.07439 0.65106 0.83525 0.0
C330 C 1.00734 0.58516 0.80627 0.0
C331 C 1.07341 0.60408 0.83739 0.0
C332 C 0.95683 0.50903 0.80926 0.0
C333 C 0.88565 0.54369 0.78466 0.0
N334 N 1.03967 0.57285 0.82361 0.0
N335 N 0.92887 0.56712 0.78554 0.0
H336 H 0.29329 0.92277 0.15767 0.0
H337 H 0.54913 0.92746 0.21317 0.0
H338 H 0.34838 0.80145 0.17218 0.0
H339 H 0.5028 0.0467 0.18484 0.0
H340 H 0.47699 0.88006 0.19477 0.0
H341 H 0.37016 0.96852 0.16459 0.0
C342 C 0.32156 0.90573 0.16212 0.0
C343 C 0.31432 0.85823 0.16451 0.0
C344 C 0.48269 0.91646 0.19214 0.0
C345 C 0.40228 0.91029 0.17242 0.0
C346 C 0.52389 0.94343 0.20259 0.0
C347 C 0.53165 0.99091 0.20052 0.0
C348 C 0.4486 0.93723 0.17996 0.0
C349 C 0.49802 0.01012 0.1867 0.0
C350 C 0.36543 0.93181 0.1659 0.0
C351 C 0.35227 0.83787 0.16994 0.0
N352 N 0.45757 0.98327 0.17728 0.0
N353 N 0.39446 0.86404 0.17398 0.0
H354 H 0.56049 0.16603 0.49029 0.0
H355 H 0.69652 0.40724 0.55496 0.0
H356 H 0.69427 0.18595 0.53277 0.0
H357 H 0.57001 0.39179 0.50521 0.0
H358 H 0.70001 0.32763 0.54268 0.0
H359 H 0.56588 0.24905 0.49198 0.0
C360 C 0.59107 0.18777 0.49989 0.0
C361 C 0.62673 0.16878 0.51173 0.0
C362 C 0.67185 0.34172 0.53398 0.0
C363 C 0.63315 0.26405 0.51362 0.0
C364 C 0.6701 0.38725 0.54083 0.0
C365 C 0.63304 0.40592 0.53096 0.0
C366 C 0.6358 0.31434 0.51753 0.0
C367 C 0.59934 0.37862 0.513 0.0
C368 C 0.59418 0.23525 0.50074 0.0
C369 C 0.66567 0.19884 0.52364 0.0
N370 N 0.60113 0.3339 0.50717 0.0
N371 N 0.66764 0.24484 0.52446 0.0
H372 H 0.28964 0.54803 0.849 0.0
H373 H 0.21959 0.77285 0.79165 0.0
H374 H 0.32244 0.59071 0.77069 0.0
H375 H 0.23607 0.74833 0.87586 0.0
H376 H 0.24917 0.70293 0.78103 0.0
H377 H 0.25746 0.61616 0.8561 0.0
C378 C 0.2893 0.5713 0.83305 0.0
C379 C 0.30872 0.5636 0.80919 0.0
C380 C 0.24621 0.71302 0.80179 0.0
C381 C 0.27295 0.64254 0.81754 0.0
C382 C 0.22964 0.75284 0.80783 0.0
C383 C 0.22423 0.76537 0.83454 0.0
C384 C 0.25724 0.68599 0.82271 0.0
C385 C 0.23812 0.73886 0.8549 0.0
C386 C 0.27148 0.61057 0.83728 0.0
C387 C 0.30811 0.59559 0.78947 0.0
N388 N 0.25349 0.70018 0.84854 0.0
N389 N 0.29058 0.63385 0.7941 0.0
H390 H 0.89726 0.38416 0.18859 0.0
H391 H 0.73589 0.13719 0.1759 0.0
H392 H 0.92373 0.2702 0.13982 0.0
H393 H 0.73198 0.24218 0.23768 0.0
H394 H 0.80032 0.18708 0.15922 0.0
H395 H 0.8325 0.33412 0.20389 0.0
C396 C 0.88981 0.34851 0.18126 0.0
C397 C 0.91647 0.33141 0.16302 0.0
C398 C 0.78528 0.19918 0.1764 0.0
C399 C 0.84132 0.27393 0.18012 0.0
C400 C 0.74844 0.17082 0.18585 0.0
C401 C 0.72864 0.18577 0.20817 0.0
C402 C 0.80205 0.24279 0.18926 0.0
C403 C 0.74634 0.22947 0.2204 0.0
C404 C 0.85253 0.31999 0.18989 0.0
C405 C 0.90406 0.28509 0.15369 0.0
N406 N 0.78194 0.25647 0.21077 0.0
N407 N 0.86739 0.25797 0.16234 0.0
H408 H 0.13618 0.70653 0.07727 0.0
H409 H 0.13166 0.6245 0.92332 0.0
H410 H 0.0891 0.56571 0.04759 0.0
H411 H 0.12123 0.76244 0.94891 0.0
H412 H 0.12739 0.60314 0.96959 0.0
H413 H 0.14199 0.72814 0.03108 0.0
C414 C 0.12715 0.68008 0.06103 0.0
C415 C 0.11209 0.63417 0.06628 0.0
C416 C 0.12599 0.63805 0.96503 0.0
C417 C 0.11909 0.65883 0.01341 0.0
C418 C 0.12824 0.65034 0.93859 0.0
C419 C 0.12607 0.6953 0.932 0.0
C420 C 0.12238 0.67104 0.98523 0.0
C421 C 0.12325 0.7275 0.95295 0.0
C422 C 0.13033 0.69255 0.03469 0.0
C423 C 0.10066 0.60149 0.04443 0.0
N424 N 0.12148 0.71473 0.97863 0.0
N425 N 0.10467 0.61442 0.0189 0.0
H426 H 0.57337 0.96195 0.42007 0.0
H427 H 0.64392 0.11373 0.29914 0.0
H428 H 0.67175 0.08808 0.43164 0.0
H429 H 0.59736 0.96732 0.28796 0.0
H430 H 0.64835 0.10757 0.34775 0.0
H431 H 0.57444 0.96601 0.37129 0.0
C432 C 0.59517 0.99045 0.41236 0.0
C433 C 0.62252 0.02471 0.42991 0.0
C434 C 0.6374 0.07682 0.33459 0.0
C435 C 0.62357 0.02975 0.37431 0.0
C436 C 0.63513 0.08021 0.30679 0.0
C437 C 0.62004 0.04101 0.28923 0.0
C438 C 0.62385 0.03409 0.34499 0.0
C439 C 0.60823 0.99867 0.30057 0.0
C440 C 0.59592 0.99263 0.38457 0.0
C441 C 0.65025 0.06082 0.41884 0.0
N442 N 0.61 0.9964 0.3277 0.0
N443 N 0.6498 0.0626 0.39173 0.0
H444 H 0.63537 0.43919 0.75257 0.0
H445 H 0.54381 0.51953 0.61104 0.0
H446 H 0.51236 0.49345 0.74128 0.0
H447 H 0.6639 0.46113 0.62409 0.0
H448 H 0.53282 0.51386 0.65888 0.0
H449 H 0.64665 0.44911 0.70556 0.0
C450 C 0.61053 0.45301 0.74017 0.0
C451 C 0.57275 0.46538 0.75091 0.0
C452 C 0.56163 0.50244 0.65125 0.0
C453 C 0.58572 0.47717 0.69682 0.0
C454 C 0.56809 0.50598 0.62403 0.0
C455 C 0.60463 0.49045 0.61357 0.0
C456 C 0.59205 0.48341 0.66807 0.0
C457 C 0.63487 0.47283 0.63122 0.0
C458 C 0.61709 0.45881 0.71327 0.0
C459 C 0.54188 0.48331 0.73381 0.0
N460 N 0.62782 0.46967 0.65752 0.0
N461 N 0.54906 0.48871 0.70757 0.0
H462 H 0.56014 0.06419 0.59549 0.0
H463 H 0.63302 0.95664 0.73245 0.0
H464 H 0.6646 0.98288 0.60265 0.0
H465 H 0.54495 0.05524 0.72688 0.0
H466 H 0.64124 0.96109 0.68424 0.0
H467 H 0.55105 0.05741 0.64316 0.0
C468 C 0.58128 0.045 0.60709 0.0
C469 C 0.61327 0.02415 0.59505 0.0
C470 C 0.62012 0.98172 0.6936 0.0
C471 C 0.60279 0.01599 0.64971 0.0
C472 C 0.61519 0.97894 0.72102 0.0
C473 C 0.5885 0.00582 0.73366 0.0
C474 C 0.59787 0.01129 0.67872 0.0
C475 C 0.56638 0.03443 0.718 0.0
C476 C 0.57605 0.04113 0.63434 0.0
C477 C 0.63965 0.99966 0.61112 0.0
N478 N 0.57156 0.03641 0.69138 0.0
N479 N 0.63374 0.99615 0.63763 0.0
H480 H 0.49786 0.44227 0.91954 0.0
H481 H 0.62104 0.60125 0.04856 0.0
H482 H 0.62528 0.53678 0.92092 0.0
H483 H 0.49944 0.50007 0.05159 0.0
H484 H 0.62204 0.57751 0.00141 0.0
H485 H 0.49666 0.46231 0.96763 0.0
C486 C 0.52562 0.46702 0.92992 0.0
C487 C 0.56165 0.48791 0.91611 0.0
C488 C 0.59513 0.56034 0.01233 0.0
C489 C 0.56039 0.51108 0.97094 0.0
C490 C 0.59469 0.57376 0.03936 0.0
C491 C 0.56022 0.55252 0.05414 0.0
C492 C 0.56076 0.52545 -0.0002 0.0
C493 C 0.52642 0.51772 0.0409 0.0
C494 C 0.52489 0.47847 0.95734 0.0
C495 C 0.59669 0.51979 0.9306 0.0
N496 N 0.52753 0.50525 0.01447 0.0
N497 N 0.59507 0.53041 0.95711 0.0
H498 H 0.08993 0.64221 0.24031 0.0
H499 H 0.12146 0.47467 0.3577 0.0
H500 H 0.11232 0.50479 0.22424 0.0
H501 H 0.13009 0.62044 0.37017 0.0
H502 H 0.11021 0.48156 0.30887 0.0
H503 H 0.09594 0.63101 0.28813 0.0
C504 C 0.09595 0.60951 0.2468 0.0
C505 C 0.10092 0.57447 0.22816 0.0
C506 C 0.11466 0.51196 0.32236 0.0
C507 C 0.10801 0.56149 0.28325 0.0
C508 C 0.12089 0.50803 0.35014 0.0
C509 C 0.12709 0.54712 0.36792 0.0
C510 C 0.11406 0.55518 0.31245 0.0
C511 C 0.12618 0.58955 0.35716 0.0
C512 C 0.09953 0.60321 0.2742 0.0
C513 C 0.10854 0.53284 0.23791 0.0
N514 N 0.11973 0.5924 0.33018 0.0
N515 N 0.11194 0.52749 0.26486 0.0
loop_
_geom_bond_atom_site_label_1
_geom_bond_atom_site_label_2
_geom_bond_distance
_geom_bond_site_symmetry_2
_ccdc_geom_bond_type
Dy0 O3 2.307 1_455 S
Dy0 O5 2.395 . S
Dy0 O6 2.379 . S
Dy0 O8 2.339 . S
Dy0 O10 2.298 . S
Dy0 O14 2.275 . S
Dy0 C22 2.738 . S
Dy1 O4 2.298 1_455 S
Dy1 O7 2.275 . S
Dy1 O9 2.307 . S
Dy1 O11 2.395 1_455 S
Dy1 O12 2.379 1_455 S
Dy1 O15 2.339 . S
Dy1 C31 2.738 1_455 S
C2 O14 1.254 . S
C2 O15 1.257 . S
O3 Dy0 2.307 1_655 S
O3 C13 1.266 . S
O4 Dy1 2.298 1_655 S
O4 C13 1.236 . S
O5 Dy0 2.395 . S
O5 C22 1.255 . S
O6 Dy0 2.379 . S
O6 C22 1.249 . S
O7 Dy1 2.275 . S
O7 C23 1.254 . S
O8 Dy0 2.339 . S
O8 C23 1.257 . S
O9 Dy1 2.307 . S
O9 C24 1.266 . S
O10 Dy0 2.298 . S
O10 C24 1.236 . S
O11 Dy1 2.395 1_655 S
O11 C31 1.255 . S
O12 Dy1 2.379 1_655 S
O12 C31 1.249 . S
C13 O3 1.266 . S
C13 O4 1.236 . S
O14 Dy0 2.275 . S
O14 C2 1.254 . S
O15 Dy1 2.339 . S
O15 C2 1.257 . S
C16 C19 1.344 . S
C16 C20 1.328 . S
C16 C22 1.516 . S
C17 C18 1.304 . S
C17 C21 1.323 . S
C18 C17 1.304 . S
C18 C19 1.371 . S
C18 H32 0.930 . S
C19 C16 1.344 . S
C19 C18 1.371 . S
C19 H33 0.931 . S
C20 C16 1.328 . S
C20 C21 1.433 . S
C20 H34 0.931 . S
C21 C17 1.323 . S
C21 C20 1.433 . S
C21 H35 0.933 . S
C22 Dy0 2.738 . S
C22 O5 1.255 . S
C22 O6 1.249 . S
C22 C16 1.516 . S
C23 O7 1.254 . S
C23 O8 1.257 . S
C24 O9 1.266 . S
C24 O10 1.236 . S
C25 C28 1.344 . S
C25 C29 1.328 . S
C25 C31 1.516 . S
C26 C27 1.304 . S
C26 C30 1.323 . S
C27 C26 1.304 . S
C27 C28 1.371 . S
C27 H36 0.930 . S
C28 C25 1.344 . S
C28 C27 1.371 . S
C28 H37 0.931 . S
C29 C25 1.328 . S
C29 C30 1.433 . S
C29 H38 0.931 . S
C30 C26 1.323 . S
C30 C29 1.433 . S
C30 H39 0.933 . S
C31 Dy1 2.738 1_655 S
C31 O11 1.255 . S
C31 O12 1.249 . S
C31 C25 1.516 . S
H32 C18 0.930 . S
H33 C19 0.931 . S
H34 C20 0.931 . S
H35 C21 0.933 . S
H36 C27 0.930 . S
H37 C28 0.931 . S
H38 C29 0.931 . S
H39 C30 0.933 . S
Dy40 O43 2.307 . S
Dy40 O45 2.395 1_545 S
Dy40 O46 2.379 1_545 S
Dy40 O48 2.339 . S
Dy40 O50 2.298 1_545 S
Dy40 O54 2.275 . S
Dy40 C62 2.738 1_545 S
Dy41 O44 2.298 . S
Dy41 O47 2.275 . S
Dy41 O49 2.307 1_545 S
Dy41 O51 2.395 . S
Dy41 O52 2.379 . S
Dy41 O55 2.339 . S
Dy41 C71 2.738 . S
C42 O54 1.254 . S
C42 O55 1.257 . S
O43 Dy40 2.307 . S
O43 C53 1.266 . S
O44 Dy41 2.298 . S
O44 C53 1.236 . S
O45 Dy40 2.395 1_565 S
O45 C62 1.255 . S
O46 Dy40 2.379 1_565 S
O46 C62 1.249 . S
O47 Dy41 2.275 . S
O47 C63 1.254 . S
O48 Dy40 2.339 . S
O48 C63 1.257 . S
O49 Dy41 2.307 1_565 S
O49 C64 1.266 . S
O50 Dy40 2.298 1_565 S
O50 C64 1.236 . S
O51 Dy41 2.395 . S
O51 C71 1.255 . S
O52 Dy41 2.379 . S
O52 C71 1.249 . S
C53 O43 1.266 . S
C53 O44 1.236 . S
O54 Dy40 2.275 . S
O54 C42 1.254 . S
O55 Dy41 2.339 . S
O55 C42 1.257 . S
C56 C59 1.344 . S
C56 C60 1.328 . S
C56 C62 1.516 . S
C57 C58 1.304 . S
C57 C61 1.323 . S
C58 C57 1.304 . S
C58 C59 1.371 . S
C58 H72 0.930 . S
C59 C56 1.344 . S
C59 C58 1.371 . S
C59 H73 0.931 . S
C60 C56 1.328 . S
C60 C61 1.433 . S
C60 H74 0.931 . S
C61 C57 1.323 . S
C61 C60 1.433 . S
C61 H75 0.933 . S
C62 Dy40 2.738 1_565 S
C62 O45 1.255 . S
C62 O46 1.249 . S
C62 C56 1.516 . S
C63 O47 1.254 . S
C63 O48 1.257 . S
C64 O49 1.266 . S
C64 O50 1.236 . S
C65 C68 1.344 . S
C65 C69 1.328 . S
C65 C71 1.516 . S
C66 C67 1.304 . S
C66 C70 1.323 . S
C67 C66 1.304 . S
C67 C68 1.371 . S
C67 H76 0.930 . S
C68 C65 1.344 . S
C68 C67 1.371 . S
C68 H77 0.931 . S
C69 C65 1.328 . S
C69 C70 1.433 . S
C69 H78 0.931 . S
C70 C66 1.323 . S
C70 C69 1.433 . S
C70 H79 0.933 . S
C71 Dy41 2.738 . S
C71 O51 1.255 . S
C71 O52 1.249 . S
C71 C65 1.516 . S
H72 C58 0.930 . S
H73 C59 0.931 . S
H74 C60 0.931 . S
H75 C61 0.933 . S
H76 C67 0.930 . S
H77 C68 0.931 . S
H78 C69 0.931 . S
H79 C70 0.933 . S
Dy80 O83 2.307 . S
Dy80 O85 2.395 . S
Dy80 O86 2.379 . S
Dy80 O88 2.339 . S
Dy80 O90 2.298 . S
Dy80 O94 2.275 . S
Dy80 C102 2.738 . S
Dy81 O84 2.298 . S
Dy81 O87 2.275 . S
Dy81 O89 2.307 . S
Dy81 O91 2.395 . S
Dy81 O92 2.379 . S
Dy81 O95 2.339 . S
Dy81 C111 2.738 . S
C82 O94 1.254 . S
C82 O95 1.257 . S
O83 Dy80 2.307 . S
O83 C93 1.266 . S
O84 Dy81 2.298 . S
O84 C93 1.236 . S
O85 Dy80 2.395 . S
O85 C102 1.255 . S
O86 Dy80 2.379 . S
O86 C102 1.249 . S
O87 Dy81 2.275 . S
O87 C103 1.254 . S
O88 Dy80 2.339 . S
O88 C103 1.257 . S
O89 Dy81 2.307 . S
O89 C104 1.266 . S
O90 Dy80 2.298 . S
O90 C104 1.236 . S
O91 Dy81 2.395 . S
O91 C111 1.255 . S
O92 Dy81 2.379 . S
O92 C111 1.249 . S
C93 O83 1.266 . S
C93 O84 1.236 . S
O94 Dy80 2.275 . S
O94 C82 1.254 . S
O95 Dy81 2.339 . S
O95 C82 1.257 . S
C96 C99 1.344 . S
C96 C100 1.328 . S
C96 C102 1.516 . S
C97 C98 1.304 . S
C97 C101 1.323 . S
C98 C97 1.304 . S
C98 C99 1.371 . S
C98 H112 0.930 . S
C99 C96 1.344 . S
C99 C98 1.371 . S
C99 H113 0.931 . S
C100 C96 1.328 . S
C100 C101 1.433 . S
C100 H114 0.931 . S
C101 C97 1.323 . S
C101 C100 1.433 . S
C101 H115 0.933 . S
C102 Dy80 2.738 . S
C102 O85 1.255 . S
C102 O86 1.249 . S
C102 C96 1.516 . S
C103 O87 1.254 . S
C103 O88 1.257 . S
C104 O89 1.266 . S
C104 O90 1.236 . S
C105 C108 1.344 . S
C105 C109 1.328 . S
C105 C111 1.516 . S
C106 C107 1.304 . S
C106 C110 1.323 . S
C107 C106 1.304 . S
C107 C108 1.371 . S
C107 H116 0.930 . S
C108 C105 1.344 . S
C108 C107 1.371 . S
C108 H117 0.931 . S
C109 C105 1.328 . S
C109 C110 1.433 . S
C109 H118 0.931 . S
C110 C106 1.323 . S
C110 C109 1.433 . S
C110 H119 0.933 . S
C111 Dy81 2.738 . S
C111 O91 1.255 . S
C111 O92 1.249 . S
C111 C105 1.516 . S
H112 C98 0.930 . S
H113 C99 0.931 . S
H114 C100 0.931 . S
H115 C101 0.933 . S
H116 C107 0.930 . S
H117 C108 0.931 . S
H118 C109 0.931 . S
H119 C110 0.933 . S
H120 C125 0.930 . S
H121 C128 0.930 . S
H122 C130 0.930 . S
H123 C124 1.016 . S
C124 H123 1.016 . S
C124 N131 1.286 . S
C125 H120 0.930 . S
C125 C126 1.397 . S
C125 C127 1.361 . S
C126 C125 1.397 . S
C126 C130 1.390 . S
C127 C125 1.361 . S
C127 C128 1.393 . S
C127 N131 1.413 . S
C128 H121 0.930 . S
C128 C127 1.393 . S
C128 C129 1.399 . S
C129 C128 1.399 . S
C129 C130 1.381 . S
C130 H122 0.930 . S
C130 C126 1.390 . S
C130 C129 1.381 . S
N131 C124 1.286 . S
N131 C127 1.413 . S
H132 C137 0.930 . S
H133 C140 0.930 . S
H134 C142 0.930 . S
H135 C136 1.016 . S
C136 H135 1.016 . S
C136 N143 1.286 . S
C137 H132 0.930 . S
C137 C138 1.397 . S
C137 C139 1.361 . S
C138 C137 1.397 . S
C138 C142 1.390 . S
C139 C137 1.361 . S
C139 C140 1.393 . S
C139 N143 1.413 . S
C140 H133 0.930 . S
C140 C139 1.393 . S
C140 C141 1.399 . S
C141 C140 1.399 . S
C141 C142 1.381 . S
C142 H134 0.930 . S
C142 C138 1.390 . S
C142 C141 1.381 . S
N143 C136 1.286 . S
N143 C139 1.413 . S
H144 C149 0.930 1_655 S
H145 C152 0.930 . S
H146 C154 0.930 . S
H147 C148 1.016 . S
C148 H147 1.016 . S
C148 N155 1.286 . S
C149 H144 0.930 1_455 S
C149 C150 1.397 1_455 S
C149 C151 1.361 . S
C150 C149 1.397 1_655 S
C150 C154 1.390 . S
C151 C149 1.361 . S
C151 C152 1.393 . S
C151 N155 1.413 . S
C152 H145 0.930 . S
C152 C151 1.393 . S
C152 C153 1.399 . S
C153 C152 1.399 . S
C153 C154 1.381 1_455 S
C154 H146 0.930 . S
C154 C150 1.390 . S
C154 C153 1.381 1_655 S
N155 C148 1.286 . S
N155 C151 1.413 . S
H156 C161 0.930 . S
H157 C164 0.930 . S
H158 C166 0.930 . S
H159 C160 1.016 . S
C160 H159 1.016 . S
C160 N167 1.286 . S
C161 H156 0.930 . S
C161 C162 1.397 . S
C161 C163 1.361 . S
C162 C161 1.397 . S
C162 C166 1.390 . S
C163 C161 1.361 . S
C163 C164 1.393 1_455 S
C163 N167 1.413 1_455 S
C164 H157 0.930 . S
C164 C163 1.393 1_655 S
C164 C165 1.399 1_655 S
C165 C164 1.399 1_455 S
C165 C166 1.381 . S
C166 H158 0.930 . S
C166 C162 1.390 . S
C166 C165 1.381 . S
N167 C160 1.286 . S
N167 C163 1.413 1_655 S
H168 C173 0.930 . S
H169 C176 0.930 . S
H170 C178 0.930 . S
H171 C172 1.016 . S
C172 H171 1.016 . S
C172 N179 1.286 . S
C173 H168 0.930 . S
C173 C174 1.397 . S
C173 C175 1.361 1_545 S
C174 C173 1.397 . S
C174 C178 1.390 . S
C175 C173 1.361 1_565 S
C175 C176 1.393 . S
C175 N179 1.413 . S
C176 H169 0.930 . S
C176 C175 1.393 . S
C176 C177 1.399 1_565 S
C177 C176 1.399 1_545 S
C177 C178 1.381 . S
C178 H170 0.930 . S
C178 C174 1.390 . S
C178 C177 1.381 . S
N179 C172 1.286 . S
N179 C175 1.413 . S
H180 C185 0.930 . S
H181 C188 0.930 . S
H182 C190 0.930 . S
H183 C184 1.016 . S
C184 H183 1.016 . S
C184 N191 1.286 . S
C185 H180 0.930 . S
C185 C186 1.397 . S
C185 C187 1.361 . S
C186 C185 1.397 . S
C186 C190 1.390 . S
C187 C185 1.361 . S
C187 C188 1.393 . S
C187 N191 1.413 . S
C188 H181 0.930 . S
C188 C187 1.393 . S
C188 C189 1.399 . S
C189 C188 1.399 . S
C189 C190 1.381 . S
C190 H182 0.930 . S
C190 C186 1.390 . S
C190 C189 1.381 . S
N191 C184 1.286 . S
N191 C187 1.413 . S
H192 C198 0.930 . S
H193 C202 0.930 . S
H194 C207 0.929 . S
H195 C205 0.929 . S
H196 C200 0.929 . S
H197 C206 0.929 . S
C198 H192 0.930 . S
C198 C199 1.367 . S
C198 C206 1.378 . S
C199 C198 1.367 . S
C199 C207 1.433 . S
C200 H196 0.929 . S
C200 C202 1.378 . S
C200 C204 1.350 . S
C201 C204 1.463 . S
C201 C206 1.350 . S
C201 N209 1.427 . S
C202 H193 0.930 . S
C202 C200 1.378 . S
C202 C203 1.367 . S
C203 C202 1.367 . S
C203 C205 1.433 . S
C204 C200 1.350 . S
C204 C201 1.463 . S
C204 N208 1.427 . S
C205 H195 0.929 . S
C205 C203 1.433 . S
C205 N208 1.384 . S
C206 H197 0.929 . S
C206 C198 1.378 . S
C206 C201 1.350 . S
C207 H194 0.929 . S
C207 C199 1.433 . S
C207 N209 1.384 . S
N208 C204 1.427 . S
N208 C205 1.384 . S
N209 C201 1.427 . S
N209 C207 1.384 . S
H210 C216 0.930 . S
H211 C220 0.930 . S
H212 C225 0.929 . S
H213 C223 0.929 . S
H214 C218 0.929 . S
H215 C224 0.929 . S
C216 H210 0.930 . S
C216 C217 1.367 . S
C216 C224 1.378 . S
C217 C216 1.367 . S
C217 C225 1.433 . S
C218 H214 0.929 . S
C218 C220 1.378 . S
C218 C222 1.350 . S
C219 C222 1.463 . S
C219 C224 1.350 . S
C219 N227 1.427 . S
C220 H211 0.930 . S
C220 C218 1.378 . S
C220 C221 1.367 . S
C221 C220 1.367 . S
C221 C223 1.433 . S
C222 C218 1.350 . S
C222 C219 1.463 . S
C222 N226 1.427 . S
C223 H213 0.929 . S
C223 C221 1.433 . S
C223 N226 1.384 . S
C224 H215 0.929 . S
C224 C216 1.378 . S
C224 C219 1.350 . S
C225 H212 0.929 . S
C225 C217 1.433 . S
C225 N227 1.384 . S
N226 C222 1.427 . S
N226 C223 1.384 . S
N227 C219 1.427 . S
N227 C225 1.384 . S
H228 C234 0.930 . S
H229 C238 0.930 . S
H230 C243 0.929 . S
H231 C241 0.929 . S
H232 C236 0.929 . S
H233 C242 0.929 . S
C234 H228 0.930 . S
C234 C235 1.367 . S
C234 C242 1.378 . S
C235 C234 1.367 . S
C235 C243 1.433 . S
C236 H232 0.929 . S
C236 C238 1.378 . S
C236 C240 1.350 . S
C237 C240 1.463 . S
C237 C242 1.350 . S
C237 N245 1.427 . S
C238 H229 0.930 . S
C238 C236 1.378 . S
C238 C239 1.367 . S
C239 C238 1.367 . S
C239 C241 1.433 . S
C240 C236 1.350 . S
C240 C237 1.463 . S
C240 N244 1.427 . S
C241 H231 0.929 . S
C241 C239 1.433 . S
C241 N244 1.384 . S
C242 H233 0.929 . S
C242 C234 1.378 . S
C242 C237 1.350 . S
C243 H230 0.929 . S
C243 C235 1.433 . S
C243 N245 1.384 . S
N244 C240 1.427 . S
N244 C241 1.384 . S
N245 C237 1.427 . S
N245 C243 1.384 . S
H246 C252 0.930 . S
H247 C256 0.930 . S
H248 C261 0.929 . S
H249 C259 0.929 . S
H250 C254 0.929 . S
H251 C260 0.929 . S
C252 H246 0.930 . S
C252 C253 1.367 . S
C252 C260 1.378 . S
C253 C252 1.367 . S
C253 C261 1.433 . S
C254 H250 0.929 . S
C254 C256 1.378 . S
C254 C258 1.350 . S
C255 C258 1.463 . S
C255 C260 1.350 . S
C255 N263 1.427 . S
C256 H247 0.930 . S
C256 C254 1.378 . S
C256 C257 1.367 . S
C257 C256 1.367 . S
C257 C259 1.433 . S
C258 C254 1.350 . S
C258 C255 1.463 . S
C258 N262 1.427 . S
C259 H249 0.929 . S
C259 C257 1.433 . S
C259 N262 1.384 . S
C260 H251 0.929 . S
C260 C252 1.378 . S
C260 C255 1.350 . S
C261 H248 0.929 . S
C261 C253 1.433 . S
C261 N263 1.384 . S
N262 C258 1.427 . S
N262 C259 1.384 . S
N263 C255 1.427 . S
N263 C261 1.384 . S
H264 C270 0.930 . S
H265 C274 0.930 . S
H266 C279 0.929 . S
H267 C277 0.929 . S
H268 C272 0.929 . S
H269 C278 0.929 . S
C270 H264 0.930 . S
C270 C271 1.367 . S
C270 C278 1.378 . S
C271 C270 1.367 . S
C271 C279 1.433 . S
C272 H268 0.929 . S
C272 C274 1.378 . S
C272 C276 1.350 . S
C273 C276 1.463 . S
C273 C278 1.350 . S
C273 N281 1.427 . S
C274 H265 0.930 . S
C274 C272 1.378 . S
C274 C275 1.367 . S
C275 C274 1.367 . S
C275 C277 1.433 . S
C276 C272 1.350 . S
C276 C273 1.463 . S
C276 N280 1.427 . S
C277 H267 0.929 . S
C277 C275 1.433 . S
C277 N280 1.384 . S
C278 H269 0.929 . S
C278 C270 1.378 . S
C278 C273 1.350 . S
C279 H266 0.929 . S
C279 C271 1.433 . S
C279 N281 1.384 . S
N280 C276 1.427 . S
N280 C277 1.384 . S
N281 C273 1.427 . S
N281 C279 1.384 . S
H282 C288 0.930 . S
H283 C292 0.930 . S
H284 C297 0.929 . S
H285 C295 0.929 . S
H286 C290 0.929 . S
H287 C296 0.929 . S
C288 H282 0.930 . S
C288 C289 1.367 . S
C288 C296 1.378 . S
C289 C288 1.367 . S
C289 C297 1.433 . S
C290 H286 0.929 . S
C290 C292 1.378 . S
C290 C294 1.350 . S
C291 C294 1.463 . S
C291 C296 1.350 . S
C291 N299 1.427 . S
C292 H283 0.930 . S
C292 C290 1.378 . S
C292 C293 1.367 . S
C293 C292 1.367 . S
C293 C295 1.433 . S
C294 C290 1.350 . S
C294 C291 1.463 . S
C294 N298 1.427 . S
C295 H285 0.929 . S
C295 C293 1.433 . S
C295 N298 1.384 . S
C296 H287 0.929 . S
C296 C288 1.378 . S
C296 C291 1.350 . S
C297 H284 0.929 . S
C297 C289 1.433 . S
C297 N299 1.384 . S
N298 C294 1.427 . S
N298 C295 1.384 . S
N299 C291 1.427 . S
N299 C297 1.384 . S
H300 C306 0.930 . S
H301 C310 0.930 . S
H302 C315 0.929 . S
H303 C313 0.929 . S
H304 C308 0.929 . S
H305 C314 0.929 . S
C306 H300 0.930 . S
C306 C307 1.367 . S
C306 C314 1.378 . S
C307 C306 1.367 . S
C307 C315 1.433 . S
C308 H304 0.929 . S
C308 C310 1.378 . S
C308 C312 1.350 . S
C309 C312 1.463 . S
C309 C314 1.350 . S
C309 N317 1.427 . S
C310 H301 0.930 . S
C310 C308 1.378 . S
C310 C311 1.367 . S
C311 C310 1.367 . S
C311 C313 1.433 . S
C312 C308 1.350 . S
C312 C309 1.463 . S
C312 N316 1.427 . S
C313 H303 0.929 . S
C313 C311 1.433 . S
C313 N316 1.384 . S
C314 H305 0.929 . S
C314 C306 1.378 . S
C314 C309 1.350 . S
C315 H302 0.929 . S
C315 C307 1.433 . S
C315 N317 1.384 . S
N316 C312 1.427 . S
N316 C313 1.384 . S
N317 C309 1.427 . S
N317 C315 1.384 . S
H318 C324 0.930 . S
H319 C328 0.930 . S
H320 C333 0.929 . S
H321 C331 0.929 . S
H322 C326 0.929 . S
H323 C332 0.929 . S
C324 H318 0.930 . S
C324 C325 1.367 . S
C324 C332 1.378 . S
C325 C324 1.367 . S
C325 C333 1.433 . S
C326 H322 0.929 . S
C326 C328 1.378 . S
C326 C330 1.350 . S
C327 C330 1.463 . S
C327 C332 1.350 . S
C327 N335 1.427 . S
C328 H319 0.930 . S
C328 C326 1.378 . S
C328 C329 1.367 . S
C329 C328 1.367 . S
C329 C331 1.433 . S
C330 C326 1.350 . S
C330 C327 1.463 . S
C330 N334 1.427 . S
C331 H321 0.929 . S
C331 C329 1.433 . S
C331 N334 1.384 . S
C332 H323 0.929 . S
C332 C324 1.378 . S
C332 C327 1.350 . S
C333 H320 0.929 . S
C333 C325 1.433 . S
C333 N335 1.384 . S
N334 C330 1.427 . S
N334 C331 1.384 . S
N335 C327 1.427 . S
N335 C333 1.384 . S
H336 C342 0.930 . S
H337 C346 0.930 . S
H338 C351 0.929 . S
H339 C349 0.929 . S
H340 C344 0.929 . S
H341 C350 0.929 . S
C342 H336 0.930 . S
C342 C343 1.367 . S
C342 C350 1.378 . S
C343 C342 1.367 . S
C343 C351 1.433 . S
C344 H340 0.929 . S
C344 C346 1.378 . S
C344 C348 1.350 . S
C345 C348 1.463 . S
C345 C350 1.350 . S
C345 N353 1.427 . S
C346 H337 0.930 . S
C346 C344 1.378 . S
C346 C347 1.367 1_565 S
C347 C346 1.367 1_545 S
C347 C349 1.433 . S
C348 C344 1.350 . S
C348 C345 1.463 . S
C348 N352 1.427 . S
C349 H339 0.929 . S
C349 C347 1.433 . S
C349 N352 1.384 1_545 S
C350 H341 0.929 . S
C350 C342 1.378 . S
C350 C345 1.350 . S
C351 H338 0.929 . S
C351 C343 1.433 . S
C351 N353 1.384 . S
N352 C348 1.427 . S
N352 C349 1.384 1_565 S
N353 C345 1.427 . S
N353 C351 1.384 . S
H354 C360 0.930 . S
H355 C364 0.930 . S
H356 C369 0.929 . S
H357 C367 0.929 . S
H358 C362 0.929 . S
H359 C368 0.929 . S
C360 H354 0.930 . S
C360 C361 1.367 . S
C360 C368 1.378 . S
C361 C360 1.367 . S
C361 C369 1.433 . S
C362 H358 0.929 . S
C362 C364 1.378 . S
C362 C366 1.350 . S
C363 C366 1.463 . S
C363 C368 1.350 . S
C363 N371 1.427 . S
C364 H355 0.930 . S
C364 C362 1.378 . S
C364 C365 1.367 . S
C365 C364 1.367 . S
C365 C367 1.433 . S
C366 C362 1.350 . S
C366 C363 1.463 . S
C366 N370 1.427 . S
C367 H357 0.929 . S
C367 C365 1.433 . S
C367 N370 1.384 . S
C368 H359 0.929 . S
C368 C360 1.378 . S
C368 C363 1.350 . S
C369 H356 0.929 . S
C369 C361 1.433 . S
C369 N371 1.384 . S
N370 C366 1.427 . S
N370 C367 1.384 . S
N371 C363 1.427 . S
N371 C369 1.384 . S
H372 C378 0.930 . S
H373 C382 0.930 . S
H374 C387 0.929 . S
H375 C385 0.929 . S
H376 C380 0.929 . S
H377 C386 0.929 . S
C378 H372 0.930 . S
C378 C379 1.367 . S
C378 C386 1.378 . S
C379 C378 1.367 . S
C379 C387 1.433 . S
C380 H376 0.929 . S
C380 C382 1.378 . S
C380 C384 1.350 . S
C381 C384 1.463 . S
C381 C386 1.350 . S
C381 N389 1.427 . S
C382 H373 0.930 . S
C382 C380 1.378 . S
C382 C383 1.367 . S
C383 C382 1.367 . S
C383 C385 1.433 . S
C384 C380 1.350 . S
C384 C381 1.463 . S
C384 N388 1.427 . S
C385 H375 0.929 . S
C385 C383 1.433 . S
C385 N388 1.384 . S
C386 H377 0.929 . S
C386 C378 1.378 . S
C386 C381 1.350 . S
C387 H374 0.929 . S
C387 C379 1.433 . S
C387 N389 1.384 . S
N388 C384 1.427 . S
N388 C385 1.384 . S
N389 C381 1.427 . S
N389 C387 1.384 . S
H390 C396 0.930 . S
H391 C400 0.930 . S
H392 C405 0.929 . S
H393 C403 0.929 . S
H394 C398 0.929 . S
H395 C404 0.929 . S
C396 H390 0.930 . S
C396 C397 1.367 . S
C396 C404 1.378 . S
C397 C396 1.367 . S
C397 C405 1.433 . S
C398 H394 0.929 . S
C398 C400 1.378 . S
C398 C402 1.350 . S
C399 C402 1.463 . S
C399 C404 1.350 . S
C399 N407 1.427 . S
C400 H391 0.930 . S
C400 C398 1.378 . S
C400 C401 1.367 . S
C401 C400 1.367 . S
C401 C403 1.433 . S
C402 C398 1.350 . S
C402 C399 1.463 . S
C402 N406 1.427 . S
C403 H393 0.929 . S
C403 C401 1.433 . S
C403 N406 1.384 . S
C404 H395 0.929 . S
C404 C396 1.378 . S
C404 C399 1.350 . S
C405 H392 0.929 . S
C405 C397 1.433 . S
C405 N407 1.384 . S
N406 C402 1.427 . S
N406 C403 1.384 . S
N407 C399 1.427 . S
N407 C405 1.384 . S
H408 C414 0.930 . S
H409 C418 0.930 . S
H410 C423 0.929 . S
H411 C421 0.929 . S
H412 C416 0.929 1_554 S
H413 C422 0.929 . S
C414 H408 0.930 . S
C414 C415 1.367 . S
C414 C422 1.378 . S
C415 C414 1.367 . S
C415 C423 1.433 . S
C416 H412 0.929 1_556 S
C416 C418 1.378 . S
C416 C420 1.350 1_556 S
C417 C420 1.463 . S
C417 C422 1.350 . S
C417 N425 1.427 . S
C418 H409 0.930 . S
C418 C416 1.378 . S
C418 C419 1.367 . S
C419 C418 1.367 . S
C419 C421 1.433 . S
C420 C416 1.350 1_554 S
C420 C417 1.463 . S
C420 N424 1.427 1_554 S
C421 H411 0.929 . S
C421 C419 1.433 . S
C421 N424 1.384 . S
C422 H413 0.929 . S
C422 C414 1.378 . S
C422 C417 1.350 . S
C423 H410 0.929 . S
C423 C415 1.433 . S
C423 N425 1.384 . S
N424 C420 1.427 1_556 S
N424 C421 1.384 . S
N425 C417 1.427 . S
N425 C423 1.384 . S
H426 C432 0.930 1_565 S
H427 C436 0.930 . S
H428 C441 0.929 . S
H429 C439 0.929 . S
H430 C434 0.929 . S
H431 C440 0.923 1_565 S
C432 H426 0.930 1_545 S
C432 C433 1.367 . S
C432 C440 1.378 . S
C433 C432 1.367 . S
C433 C441 1.433 . S
C434 H430 0.929 . S
C434 C436 1.378 . S
C434 C438 1.350 . S
C435 C438 1.463 . S
C435 C440 1.350 . S
C435 N443 1.427 . S
C436 H427 0.930 . S
C436 C434 1.378 . S
C436 C437 1.367 . S
C437 C436 1.367 . S
C437 C439 1.433 . S
C438 C434 1.350 . S
C438 C435 1.463 . S
C438 N442 1.427 . S
C439 H429 0.929 . S
C439 C437 1.433 . S
C439 N442 1.384 . S
C440 H431 0.923 1_545 S
C440 C432 1.378 . S
C440 C435 1.350 . S
C441 H428 0.929 . S
C441 C433 1.433 . S
C441 N443 1.384 . S
N442 C438 1.427 . S
N442 C439 1.384 . S
N443 C435 1.427 . S
N443 C441 1.384 . S
H444 C450 0.930 . S
H445 C454 0.930 . S
H446 C459 0.929 . S
H447 C457 0.929 . S
H448 C452 0.929 . S
H449 C458 0.929 . S
C450 H444 0.930 . S
C450 C451 1.367 . S
C450 C458 1.378 . S
C451 C450 1.367 . S
C451 C459 1.433 . S
C452 H448 0.929 . S
C452 C454 1.378 . S
C452 C456 1.350 . S
C453 C456 1.463 . S
C453 C458 1.350 . S
C453 N461 1.427 . S
C454 H445 0.930 . S
C454 C452 1.378 . S
C454 C455 1.367 . S
C455 C454 1.367 . S
C455 C457 1.433 . S
C456 C452 1.350 . S
C456 C453 1.463 . S
C456 N460 1.427 . S
C457 H447 0.929 . S
C457 C455 1.433 . S
C457 N460 1.384 . S
C458 H449 0.929 . S
C458 C450 1.378 . S
C458 C453 1.350 . S
C459 H446 0.929 . S
C459 C451 1.433 . S
C459 N461 1.384 . S
N460 C456 1.427 . S
N460 C457 1.384 . S
N461 C453 1.427 . S
N461 C459 1.384 . S
H462 C468 0.930 . S
H463 C472 0.930 . S
H464 C477 0.929 1_565 S
H465 C475 0.929 . S
H466 C470 0.929 . S
H467 C476 0.929 . S
C468 H462 0.930 . S
C468 C469 1.367 . S
C468 C476 1.378 . S
C469 C468 1.367 . S
C469 C477 1.433 . S
C470 H466 0.929 . S
C470 C472 1.378 . S
C470 C474 1.350 1_565 S
C471 C474 1.463 . S
C471 C476 1.350 . S
C471 N479 1.427 . S
C472 H463 0.930 . S
C472 C470 1.378 . S
C472 C473 1.367 1_565 S
C473 C472 1.367 1_545 S
C473 C475 1.433 . S
C474 C470 1.350 1_545 S
C474 C471 1.463 . S
C474 N478 1.427 . S
C475 H465 0.929 . S
C475 C473 1.433 . S
C475 N478 1.384 . S
C476 H467 0.929 . S
C476 C468 1.378 . S
C476 C471 1.350 . S
C477 H464 0.929 1_545 S
C477 C469 1.433 . S
C477 N479 1.384 . S
N478 C474 1.427 . S
N478 C475 1.384 . S
N479 C471 1.427 . S
N479 C477 1.384 . S
H480 C486 0.930 . S
H481 C490 0.930 . S
H482 C495 0.929 . S
H483 C493 0.929 . S
H484 C488 0.929 . S
H485 C494 0.929 . S
C486 H480 0.930 . S
C486 C487 1.367 . S
C486 C494 1.378 . S
C487 C486 1.367 . S
C487 C495 1.433 . S
C488 H484 0.929 . S
C488 C490 1.378 . S
C488 C492 1.370 . S
C489 C492 1.424 1_556 S
C489 C494 1.350 . S
C489 N497 1.427 . S
C490 H481 0.930 . S
C490 C488 1.378 . S
C490 C491 1.367 . S
C491 C490 1.367 . S
C491 C493 1.433 . S
C492 C488 1.370 . S
C492 C489 1.424 1_554 S
C492 N496 1.445 . S
C493 H483 0.929 . S
C493 C491 1.433 . S
C493 N496 1.384 . S
C494 H485 0.929 . S
C494 C486 1.378 . S
C494 C489 1.350 . S
C495 H482 0.929 . S
C495 C487 1.433 . S
C495 N497 1.384 . S
N496 C492 1.445 . S
N496 C493 1.384 . S
N497 C489 1.427 . S
N497 C495 1.384 . S
H498 C504 0.930 . S
H499 C508 0.930 . S
H500 C513 0.929 . S
H501 C511 0.929 . S
H502 C506 0.929 . S
H503 C512 0.929 . S
C504 H498 0.930 . S
C504 C505 1.367 . S
C504 C512 1.378 . S
C505 C504 1.367 . S
C505 C513 1.433 . S
C506 H502 0.929 . S
C506 C508 1.378 . S
C506 C510 1.350 . S
C507 C510 1.463 . S
C507 C512 1.350 . S
C507 N515 1.427 . S
C508 H499 0.930 . S
C508 C506 1.378 . S
C508 C509 1.367 . S
C509 C508 1.367 . S
C509 C511 1.433 . S
C510 C506 1.350 . S
C510 C507 1.463 . S
C510 N514 1.427 . S
C511 H501 0.929 . S
C511 C509 1.433 . S
C511 N514 1.384 . S
C512 H503 0.929 . S
C512 C504 1.378 . S
C512 C507 1.350 . S
C513 H500 0.929 . S
C513 C505 1.433 . S
C513 N515 1.384 . S
N514 C510 1.427 . S
N514 C511 1.384 . S
N515 C507 1.427 . S
N515 C513 1.384 . S
C199 C24 3.240 . S
C203 C186 3.220 . S
C217 C66 1.202 . S
C221 C160 1.201 . S
C235 C93 1.851 . S
C239 C172 1.791 . S
C253 C13 2.852 . S
C257 C184 2.740 . S
C275 C162 1.100 . S
C271 C57 1.096 . S
C293 C174 1.818 . S
C289 C104 1.854 . S
C307 C64 1.988 . S
C311 C136 1.905 . S
C325 C97 0.752 . S
C329 C150 0.741 . S
C343 C17 1.193 . S
C347 C126 1.200 . S
C365 C138 1.696 . S
C361 C53 1.726 . S
C383 C148 0.262 . S
C379 C106 0.319 . S
C397 C26 1.218 . S
C401 C124 1.229 . S
C419 C153 1.211 . S
C415 C2 1.189 . S
C433 C63 1.481 . S
C437 C129 1.501 . S
C451 C82 1.456 . S
C455 C141 1.480 . S
C473 C177 1.460 . S
C469 C42 1.433 . S
C491 C189 1.810 . S
C487 C103 1.777 . S
C505 C23 1.518 . S
C509 C165 1.528 . S
