# Generated by pormake.
# Topology zzz, (3,6)-cn, num edge types: 1
# Building blocks:
#     Node 0, Type 0, BuildingBlock: KAKCAD_clean_linker_0, # of connection points: 3
#     Node 1, Type 0, BuildingBlock: KAKCAD_clean_linker_0, # of connection points: 3
#     Node 2, Type 0, BuildingBlock: KAKCAD_clean_linker_0, # of connection points: 3
#     Node 3, Type 0, BuildingBlock: KAKCAD_clean_linker_0, # of connection points: 3
#     Node 4, Type 0, BuildingBlock: KAKCAD_clean_linker_0, # of connection points: 3
#     Node 5, Type 0, BuildingBlock: KAKCAD_clean_linker_0, # of connection points: 3
#     Node 6, Type 0, BuildingBlock: KAKCAD_clean_linker_0, # of connection points: 3
#     Node 7, Type 0, BuildingBlock: KAKCAD_clean_linker_0, # of connection points: 3
#     Node 8, Type 1, BuildingBlock: NUHQIS_clean_sbu_0, # of connection points: 6
#     Node 9, Type 1, BuildingBlock: NUHQIS_clean_sbu_0, # of connection points: 6
#     Node 10, Type 1, BuildingBlock: NUHQIS_clean_sbu_0, # of connection points: 6
#     Node 11, Type 1, BuildingBlock: NUHQIS_clean_sbu_0, # of connection points: 6
#     Edge 12, Type (0, 1), BuildingBlock: EZIPEK_clean_linker_0, # of connection points: 2
#     Edge 13, Type (0, 1), BuildingBlock: EZIPEK_clean_linker_0, # of connection points: 2
#     Edge 14, Type (0, 1), BuildingBlock: EZIPEK_clean_linker_0, # of connection points: 2
#     Edge 15, Type (0, 1), BuildingBlock: EZIPEK_clean_linker_0, # of connection points: 2
#     Edge 16, Type (0, 1), BuildingBlock: EZIPEK_clean_linker_0, # of connection points: 2
#     Edge 17, Type (0, 1), BuildingBlock: EZIPEK_clean_linker_0, # of connection points: 2
#     Edge 18, Type (0, 1), BuildingBlock: EZIPEK_clean_linker_0, # of connection points: 2
#     Edge 19, Type (0, 1), BuildingBlock: EZIPEK_clean_linker_0, # of connection points: 2
#     Edge 20, Type (0, 1), BuildingBlock: EZIPEK_clean_linker_0, # of connection points: 2
#     Edge 21, Type (0, 1), BuildingBlock: EZIPEK_clean_linker_0, # of connection points: 2
#     Edge 22, Type (0, 1), BuildingBlock: EZIPEK_clean_linker_0, # of connection points: 2
#     Edge 23, Type (0, 1), BuildingBlock: EZIPEK_clean_linker_0, # of connection points: 2
#     Edge 24, Type (0, 1), BuildingBlock: EZIPEK_clean_linker_0, # of connection points: 2
#     Edge 25, Type (0, 1), BuildingBlock: EZIPEK_clean_linker_0, # of connection points: 2
#     Edge 26, Type (0, 1), BuildingBlock: EZIPEK_clean_linker_0, # of connection points: 2
#     Edge 27, Type (0, 1), BuildingBlock: EZIPEK_clean_linker_0, # of connection points: 2
#     Edge 28, Type (0, 1), BuildingBlock: EZIPEK_clean_linker_0, # of connection points: 2
#     Edge 29, Type (0, 1), BuildingBlock: EZIPEK_clean_linker_0, # of connection points: 2
#     Edge 30, Type (0, 1), BuildingBlock: EZIPEK_clean_linker_0, # of connection points: 2
#     Edge 31, Type (0, 1), BuildingBlock: EZIPEK_clean_linker_0, # of connection points: 2
#     Edge 32, Type (0, 1), BuildingBlock: EZIPEK_clean_linker_0, # of connection points: 2
#     Edge 33, Type (0, 1), BuildingBlock: EZIPEK_clean_linker_0, # of connection points: 2
#     Edge 34, Type (0, 1), BuildingBlock: EZIPEK_clean_linker_0, # of connection points: 2
#     Edge 35, Type (0, 1), BuildingBlock: EZIPEK_clean_linker_0, # of connection points: 2
# Relax obj value: 0.471
# Max RMSD: 0.250
# Mean RMSD: 0.233
data_MOF--net-zzz--node1-NUHQIS_clean_sbu_0--node2-KAKCAD_clean_linker_0--edge1-EZIPEK_clean_linker_0
_symmetry_space_group_name_H-M    P1
_symmetry_Int_Tables_number       1
_symmetry_cell_setting            triclinic
loop_
_symmetry_equiv_pos_as_xyz
'x, y, z'
_cell_length_a     46.602757
_cell_length_b     46.486254
_cell_length_c     15.072532
_cell_angle_alpha  89.71458
_cell_angle_beta   89.827003
_cell_angle_gamma 89.896604
loop_
_atom_site_label
_atom_site_type_symbol
_atom_site_fract_x
_atom_site_fract_y
_atom_site_fract_z
_atom_type_partial_charge
C0 C 0.8275 0.43446 1.00487 0.0
C1 C 0.81296 0.4103 0.97263 0.0
C2 C 0.81454 0.4525 0.06632 0.0
C3 C 0.7867 0.44678 0.09715 0.0
C4 C 0.77154 0.42325 0.06204 0.0
C5 C 0.78464 0.40506 0.99988 0.0
C6 C 0.77429 0.46497 0.16802 0.0
C7 C 0.74647 0.47581 0.16099 0.0
C8 C 0.73522 0.49436 0.22547 0.0
C9 C 0.75228 0.50178 0.3001 0.0
C10 C 0.78037 0.49004 0.30957 0.0
C11 C 0.79092 0.47216 0.24179 0.0
C12 C 0.80002 0.49577 0.38685 0.0
C13 C 0.80478 0.52367 0.41976 0.0
C14 C 0.8176 0.47333 0.41938 0.0
C15 C 0.8409 0.47887 0.47503 0.0
C16 C 0.84697 0.50694 0.50325 0.0
C17 C 0.70558 0.50523 0.20907 0.0
C18 C 0.7016 0.53014 0.15708 0.0
C19 C 0.68234 0.48619 0.21934 0.0
C20 C 0.65644 0.49092 0.17409 0.0
C21 C 0.65322 0.51475 0.1172 0.0
C22 C 0.67564 0.5349 0.1118 0.0
C23 C 0.8278 0.52912 0.4782 0.0
H24 H 0.84924 0.43907 0.98353 0.0
H25 H 0.82647 0.47082 0.09057 0.0
H26 H 0.74999 0.41844 0.08469 0.0
H27 H 0.77306 0.38663 0.97491 0.0
H28 H 0.73368 0.47044 0.10336 0.0
H29 H 0.81257 0.46371 0.24597 0.0
H30 H 0.74367 0.51595 0.35041 0.0
H31 H 0.79178 0.5415 0.39667 0.0
H32 H 0.81423 0.45138 0.39799 0.0
H33 H 0.85482 0.46119 0.4939 0.0
H34 H 0.71939 0.54466 0.14542 0.0
H35 H 0.68507 0.46637 0.25648 0.0
H36 H 0.83156 0.55093 0.50012 0.0
H37 H 0.67379 0.55329 0.06776 0.0
H38 H 0.6396 0.47496 0.17885 0.0
C39 C 0.12012 0.80541 0.13561 0.0
C40 C 0.13984 0.81821 0.19321 0.0
C41 C 0.104 0.7819 0.16385 0.0
C42 C 0.10713 0.77128 0.2506 0.0
C43 C 0.13006 0.78116 0.30273 0.0
C44 C 0.14683 0.8043 0.27322 0.0
C45 C 0.08202 0.7573 0.29238 0.0
C46 C 0.06835 0.73428 0.25093 0.0
C47 C 0.04027 0.72619 0.27452 0.0
C48 C 0.02568 0.74201 0.34179 0.0
C49 C 0.03975 0.76513 0.38535 0.0
C50 C 0.06802 0.77182 0.36108 0.0
C51 C 0.02555 0.78569 0.44811 0.0
C52 C 1.00693 0.80707 0.41506 0.0
C53 C 0.03732 0.78965 0.53327 0.0
C54 C 0.0321 0.81496 0.58153 0.0
C55 C 0.01513 0.83716 0.54571 0.0
C56 C 0.02689 0.70243 0.22192 0.0
C57 C 0.02687 0.7043 0.12851 0.0
C58 C 0.01961 0.67592 0.26145 0.0
C59 C 0.01399 0.65158 0.20863 0.0
C60 C 0.01568 0.65323 0.11522 0.0
C61 C 0.02137 0.6801 0.07603 0.0
C62 C 1.00181 0.83251 0.46322 0.0
H63 H 0.11483 0.81557 0.07286 0.0
H64 H 0.08655 0.77465 0.12222 0.0
H65 H 0.13295 0.7731 0.36968 0.0
H66 H 0.16236 0.81371 0.31779 0.0
H67 H 0.07927 0.72342 0.19693 0.0
H68 H 0.07821 0.7905 0.39017 0.0
H69 H 1.00361 0.73696 0.35811 0.0
H70 H 0.99827 0.80521 0.34872 0.0
H71 H 0.05239 0.77405 0.55961 0.0
H72 H 0.04279 0.81799 0.64449 0.0
H73 H 0.03261 0.7243 0.09588 0.0
H74 H 0.01995 0.67359 0.33297 0.0
H75 H 0.98881 0.84933 0.43367 0.0
H76 H 0.02271 0.6821 1.0045 0.0
H77 H 0.00958 0.63115 0.24066 0.0
C78 C 0.74502 0.08864 0.93238 0.0
C79 C 0.71947 0.10413 0.94523 0.0
C80 C 0.75718 0.07323 1.00296 0.0
C81 C 0.74478 0.07444 0.0883 0.0
C82 C 0.72228 0.09402 0.10307 0.0
C83 C 0.70941 0.1082 0.03223 0.0
C84 C 0.75319 0.05392 0.15999 0.0
C85 C 0.78121 0.04368 0.16737 0.0
C86 C 0.78861 0.02322 0.23208 0.0
C87 C 0.76785 0.01465 0.29643 0.0
C88 C 0.73941 0.02593 0.29255 0.0
C89 C 0.73242 0.04362 0.21954 0.0
C90 C 0.71621 0.02062 0.36166 0.0
C91 C 0.71441 0.99531 0.41357 0.0
C92 C 0.69425 0.04136 0.37316 0.0
C93 C 0.67034 0.03606 0.42658 0.0
C94 C 0.6681 0.01075 0.47703 0.0
C95 C 0.81805 0.01095 0.22401 0.0
C96 C 0.82201 0.98611 0.1724 0.0
C97 C 0.84171 0.02925 0.23691 0.0
C98 C 0.86774 0.02439 0.19229 0.0
C99 C 0.8707 1.0011 0.13392 0.0
C100 C 0.8481 0.98121 0.12775 0.0
C101 C 0.69089 0.99069 0.47175 0.0
H102 H 0.75451 0.0868 0.86708 0.0
H103 H 0.77504 0.05904 0.98889 0.0
H104 H 0.71321 0.09694 0.16865 0.0
H105 H 0.69009 0.12054 0.04494 0.0
H106 H 0.79745 0.05105 0.12094 0.0
H107 H 0.71024 0.04935 0.20793 0.0
H108 H 0.77393 0.99983 0.34871 0.0
H109 H 0.73075 0.97885 0.40821 0.0
H110 H 0.69512 0.06204 0.34001 0.0
H111 H 0.65359 0.05223 0.42956 0.0
H112 H 0.80399 0.97212 0.15889 0.0
H113 H 0.83908 0.04899 0.27402 0.0
H114 H 0.69016 0.97115 0.51107 0.0
H115 H 0.84978 0.96322 0.08264 0.0
H116 H 0.88476 0.04011 0.19773 0.0
C117 C 0.48464 0.70541 0.58285 0.0
C118 C 0.50587 0.68602 0.55458 0.0
C119 C 0.47933 0.73093 0.53532 0.0
C120 C 0.49498 0.73775 0.4578 0.0
C121 C 0.51768 0.71937 0.43328 0.0
C122 C 0.52312 0.69381 0.48133 0.0
C123 C 0.48199 0.75803 0.39141 0.0
C124 C 0.4958 0.78279 0.35544 0.0
C125 C 0.48177 0.79969 0.28937 0.0
C126 C 0.45506 0.79059 0.25687 0.0
C127 C 0.44181 0.76593 0.29054 0.0
C128 C 0.45493 0.75039 0.35887 0.0
C129 C 0.41772 0.75234 0.24359 0.0
C130 C 0.39315 0.74348 0.2906 0.0
C131 C 0.42309 0.74107 0.15906 0.0
C132 C 0.40694 0.71801 0.12839 0.0
C133 C 0.385 0.70637 0.18132 0.0
C134 C 0.49399 0.82645 0.2489 0.0
C135 C 0.47875 0.85249 0.25756 0.0
C136 C 0.51593 0.82494 0.18468 0.0
C137 C 0.5213 0.84837 0.12721 0.0
C138 C 0.5048 0.87372 0.13279 0.0
C139 C 0.48411 0.87582 0.20044 0.0
C140 C 0.37637 0.72089 0.25842 0.0
H141 H 0.47097 0.69997 0.6387 0.0
H142 H 0.46135 0.74426 0.55509 0.0
H143 H 0.52962 0.7235 0.37281 0.0
H144 H 0.53952 0.67917 0.45777 0.0
H145 H 0.51683 0.78894 0.37901 0.0
H146 H 0.44491 0.73069 0.38234 0.0
H147 H 0.44495 0.80223 0.20273 0.0
H148 H 0.3887 0.75197 0.35603 0.0
H149 H 0.44196 0.74755 0.12182 0.0
H150 H 0.4136 0.70734 0.06794 0.0
H151 H 0.46131 0.85412 0.30501 0.0
H152 H 0.52748 0.80497 0.1747 0.0
H153 H 0.3592 0.71237 0.29933 0.0
H154 H 0.47099 0.89499 0.20592 0.0
H155 H 0.5372 0.84611 0.07516 0.0
C156 C 0.23589 0.63567 0.42041 0.0
C157 C 0.20692 0.63126 0.44189 0.0
C158 C 0.25058 0.61542 0.36832 0.0
C159 C 0.23635 0.59069 0.33738 0.0
C160 C 0.20738 0.58658 0.35988 0.0
C161 C 0.19288 0.60664 0.41111 0.0
C162 C 0.25126 0.56842 0.28396 0.0
C163 C 0.27851 0.55842 0.30787 0.0
C164 C 0.2911 0.53462 0.26521 0.0
C165 C 0.2755 0.5205 0.19709 0.0
C166 C 0.24823 0.53115 0.1708 0.0
C167 C 0.23682 0.55519 0.21388 0.0
C168 C 0.22961 0.51785 0.1019 0.0
C169 C 0.22862 0.5301 0.01639 0.0
C170 C 0.20668 0.50015 0.12902 0.0
C171 C 0.18261 0.49625 0.07433 0.0
C172 C 0.18083 0.51007 0.99131 0.0
C173 C 0.31989 0.52484 0.29795 0.0
C174 C 0.34175 0.54532 0.31063 0.0
C175 C 0.32416 0.49686 0.33163 0.0
C176 C 0.34884 0.49018 0.38172 0.0
C177 C 0.36962 0.51139 0.39928 0.0
C178 C 0.36619 0.53871 0.3607 0.0
C179 C 0.20459 0.52613 0.96152 0.0
H180 H 0.24705 0.65451 0.44428 0.0
H181 H 0.27292 0.61911 0.35198 0.0
H182 H 0.19595 0.56747 0.33935 0.0
H183 H 0.17062 0.6027 0.4281 0.0
H184 H 0.28943 0.56833 0.36327 0.0
H185 H 0.21591 0.56322 0.19395 0.0
H186 H 0.28448 0.50174 0.16487 0.0
H187 H 0.24541 0.54465 0.99483 0.0
H188 H 0.20632 0.49126 0.1956 0.0
H189 H 0.16458 0.4839 0.09919 0.0
H190 H 0.3392 0.56706 0.2855 0.0
H191 H 0.30766 0.4807 0.32401 0.0
H192 H 0.20374 0.53714 0.89807 0.0
H193 H 0.3819 0.55537 0.37265 0.0
H194 H 0.35108 0.46887 0.41027 0.0
C195 C 0.07498 0.20842 0.40798 0.0
C196 C 0.08471 0.18453 0.36022 0.0
C197 C 0.07996 0.23602 0.3748 0.0
C198 C 0.09403 0.23944 0.29257 0.0
C199 C 0.11064 0.21624 0.26097 0.0
C200 C 0.10513 0.18847 0.29281 0.0
C201 C 0.08014 0.25914 0.22719 0.0
C202 C 0.06925 0.28584 0.25389 0.0
C203 C 0.04591 0.29861 0.20982 0.0
C204 C 0.03306 0.28388 0.13742 0.0
C205 C 0.04535 0.2578 0.10604 0.0
C206 C 0.06971 0.24693 0.1487 0.0
C207 C 0.03196 0.23799 0.03952 0.0
C208 C 1.00797 0.22132 0.06401 0.0
C209 C 0.04854 0.22866 0.96663 0.0
C210 C 0.04276 0.20242 0.92423 0.0
C211 C 0.02013 0.1847 0.95312 0.0
C212 C 0.03432 0.32573 0.24911 0.0
C213 C 0.01601 0.32429 0.32346 0.0
C214 C 0.04741 0.35223 0.22885 0.0
C215 C 0.04308 0.3764 0.28323 0.0
C216 C 0.02584 0.37456 0.35992 0.0
C217 C 0.01174 0.34842 0.37802 0.0
C218 C 1.00204 0.19508 0.02105 0.0
H219 H 0.05976 0.20567 0.46185 0.0
H220 H 0.06791 0.25354 0.40402 0.0
H221 H 0.12299 0.21854 0.20034 0.0
H222 H 0.11342 0.17017 0.25656 0.0
H223 H 0.07743 0.29562 0.31391 0.0
H224 H 0.07777 0.22617 0.12748 0.0
H225 H 0.01379 0.29235 0.10693 0.0
H226 H 0.99533 0.22722 0.12155 0.0
H227 H 0.06761 0.24048 0.9475 0.0
H228 H 0.05706 0.19512 0.87219 0.0
H229 H 1.00641 0.30396 0.34252 0.0
H230 H 0.06236 0.35377 0.17388 0.0
H231 H 0.98445 0.18193 0.04493 0.0
H232 H 0.99846 0.34632 0.43677 0.0
H233 H 0.05428 0.3962 0.2678 0.0
C234 C 0.27324 0.89909 0.47158 0.0
C235 C 0.30231 0.90305 0.49162 0.0
C236 C 0.26007 0.91655 0.40727 0.0
C237 C 0.27588 0.93813 0.36287 0.0
C238 C 0.3049 0.94197 0.38436 0.0
C239 C 0.31794 0.92457 0.4476 0.0
C240 C 0.26239 0.95747 0.29629 0.0
C241 C 0.23533 0.96935 0.31184 0.0
C242 C 0.22361 0.99009 0.25432 0.0
C243 C 0.23982 0.99936 0.17939 0.0
C244 C 0.26693 0.98657 0.16105 0.0
C245 C 0.27762 0.96571 0.2201 0.0
C246 C 0.2858 0.99448 0.08388 0.0
C247 C 0.29821 0.97235 0.03272 0.0
C248 C 0.29663 0.02255 0.0735 0.0
C249 C 0.32069 0.0278 0.01871 0.0
C250 C 0.33452 1.00502 0.97413 0.0
C251 C 0.19462 1.00133 0.27847 0.0
C252 C 0.17185 0.98165 0.28737 0.0
C253 C 0.19146 0.02881 0.31602 0.0
C254 C 0.16694 0.03562 0.36674 0.0
C255 C 0.14537 0.01491 0.38169 0.0
C256 C 0.1476 0.98833 0.33845 0.0
C257 C 0.32232 0.97749 0.97919 0.0
H258 H 0.26089 0.88263 0.50541 0.0
H259 H 0.23766 0.91307 0.39193 0.0
H260 H 0.31751 0.95882 0.35338 0.0
H261 H 0.34037 0.92809 0.46296 0.0
H262 H 0.22361 0.96326 0.37131 0.0
H263 H 0.29851 0.95621 0.20763 0.0
H264 H 0.23123 0.01567 0.13528 0.0
H265 H 0.29044 0.95048 0.03911 0.0
H266 H 0.2879 0.03997 0.11269 0.0
H267 H 0.32965 0.04926 0.01574 0.0
H268 H 0.17388 0.96015 0.26055 0.0
H269 H 0.20888 0.04416 0.31208 0.0
H270 H 0.33236 0.95961 0.9452 0.0
H271 H 0.13132 0.97207 0.34873 0.0
H272 H 0.16565 0.05635 0.39902 0.0
C273 C 0.47684 0.31772 0.915 0.0
C274 C 0.49878 0.33582 0.94561 0.0
C275 C 0.47077 0.29157 0.95842 0.0
C276 C 0.48645 0.28276 0.03373 0.0
C277 C 0.50993 0.29974 0.05965 0.0
C278 C 0.51605 0.32593 0.0161 0.0
C279 C 0.47204 0.26389 0.10119 0.0
C280 C 0.48274 0.23713 0.13284 0.0
C281 C 0.46884 0.22299 0.20511 0.0
C282 C 0.44611 0.23699 0.24893 0.0
C283 C 0.43668 0.26423 0.22135 0.0
C284 C 0.44836 0.27618 0.1437 0.0
C285 C 0.42249 0.28428 0.28445 0.0
C286 C 0.43615 0.28822 0.36664 0.0
C287 C 0.40589 0.30713 0.25015 0.0
C288 C 0.41067 0.33508 0.28057 0.0
C289 C 0.43049 0.33961 0.34884 0.0
C290 C 0.47851 0.19487 0.24312 0.0
C291 C 0.46012 0.17092 0.23922 0.0
C292 C 0.50229 0.19353 0.30028 0.0
C293 C 0.50684 0.16929 0.35499 0.0
C294 C 0.48772 0.14585 0.35357 0.0
C295 C 0.4648 0.14663 0.29313 0.0
C296 C 0.44039 0.31603 0.39837 0.0
H297 H 0.46311 0.32474 0.86118 0.0
H298 H 0.45202 0.27953 0.93831 0.0
H299 H 0.52181 0.29422 0.11905 0.0
H300 H 0.53303 0.33945 0.04144 0.0
H301 H 0.50148 0.22755 0.10216 0.0
H302 H 0.44159 0.29743 0.12223 0.0
H303 H 0.43715 0.22758 0.30889 0.0
H304 H 0.44832 0.27096 0.39712 0.0
H305 H 0.3941 0.30441 0.18892 0.0
H306 H 0.40235 0.35311 0.24272 0.0
H307 H 0.44124 0.17161 0.19752 0.0
H308 H 0.51634 0.21194 0.30662 0.0
H309 H 0.45523 0.31921 0.45264 0.0
H310 H 0.44973 0.12894 0.29063 0.0
H311 H 0.52462 0.16931 0.40108 0.0
Tb312 Tb 0.03293 1.00149 0.83642 0.0
Eu313 Eu 0.98593 0.01783 0.68574 0.0
C314 C 0.05276 0.01759 0.64366 0.0
C315 C 0.01196 0.06634 0.81607 0.0
C316 C 0.09084 0.96824 0.97684 0.0
C317 C 0.13524 0.9552 0.05151 0.0
C318 C 0.11677 0.97623 0.01714 0.0
C319 C 0.08457 0.93899 0.96549 0.0
C320 C 0.10273 0.91809 1.00096 0.0
C321 C 0.1275 0.92609 0.04733 0.0
C322 C 0.06943 0.99043 0.95536 0.0
O323 O 0.99168 1.00851 0.90502 0.0
O324 O 0.95997 0.99738 0.79477 0.0
O325 O 0.99747 0.97154 0.6571 0.0
O326 O 0.02274 0.95869 0.7825 0.0
C327 C 0.96571 1.00125 0.87898 0.0
O328 O 0.95025 0.04357 0.63449 0.0
O329 O 0.96925 0.0107 0.55274 0.0
O330 O 0.02928 0.03299 0.63648 0.0
O331 O 0.0557 0.99918 0.70946 0.0
O332 O 0.03346 0.0487 0.83217 0.0
O333 O 0.98939 0.05773 0.77147 0.0
C334 C 0.0105 0.95213 0.70625 0.0
O335 O 0.07472 1.00672 0.88674 0.0
O336 O 0.04258 0.9826 0.95897 0.0
C337 C 0.96396 0.0564 0.4884 0.0
C338 C 1.00248 0.09501 0.40968 0.0
C339 C 0.98288 0.10475 0.47342 0.0
C340 C 0.96358 0.08561 0.51229 0.0
C341 C 0.98086 0.04784 0.41536 0.0
C342 C 1.00035 0.067 0.37694 0.0
C343 C 0.95447 0.03452 0.55358 0.0
H344 H 0.15436 0.96167 0.08684 0.0
H345 H 0.12201 0.99873 0.02592 0.0
H346 H 0.06491 0.9323 0.93352 0.0
H347 H 0.09659 0.89566 0.99672 0.0
H348 H 0.98397 0.12663 0.49767 0.0
H349 H 0.95052 0.0931 0.56714 0.0
H350 H 0.98128 0.0256 0.39425 0.0
H351 H 0.01506 0.05946 0.32628 0.0
Tb352 Tb 0.51328 0.03086 0.80488 0.0
Eu353 Eu 0.49208 0.98338 0.65892 0.0
C354 C 0.49726 0.05056 0.60858 0.0
C355 C 0.44765 1.01015 0.80312 0.0
C356 C 0.55431 0.0904 0.89912 0.0
C357 C 0.58904 0.11373 0.8023 0.0
C358 C 0.56187 0.1018 0.81562 0.0
C359 C 0.57275 0.09427 0.97126 0.0
C360 C 0.59989 0.10616 0.95788 0.0
C361 C 0.60876 0.11415 0.87221 0.0
C362 C 0.53064 0.06975 0.90756 0.0
O363 O 0.50699 0.99203 0.88596 0.0
O364 O 0.50658 0.95733 0.77791 0.0
O365 O 0.53674 0.99578 0.61537 0.0
O366 O 0.55336 0.0138 0.74714 0.0
C367 C 0.50743 0.96485 0.86174 0.0
O368 O 0.49779 0.94135 0.597 0.0
O369 O 0.46388 0.96983 0.55227 0.0
O370 O 0.48269 0.02677 0.59635 0.0
O371 O 0.5142 0.05377 0.67733 0.0
O372 O 0.46641 0.03043 0.82144 0.0
O373 O 0.45377 0.98876 0.74963 0.0
C374 C 0.55794 1.00454 0.6656 0.0
O375 O 0.50925 0.07304 0.85287 0.0
O376 O 0.53872 0.04293 0.91305 0.0
C377 C 0.45269 0.92105 0.56168 0.0
C378 C 0.40261 0.88964 0.5979 0.0
C379 C 0.42504 0.88977 0.65974 0.0
C380 C 0.44985 0.90581 0.64227 0.0
C381 C 0.43158 0.91829 0.49661 0.0
C382 C 0.4067 0.90282 0.51469 0.0
C383 C 0.47429 0.94378 0.55072 0.0
H384 H 0.59566 0.11978 0.73585 0.0
H385 H 0.5479 0.09917 0.75895 0.0
H386 H 0.56727 0.08565 0.03605 0.0
H387 H 0.61502 0.1062 0.01234 0.0
H388 H 0.42253 0.87924 0.72355 0.0
H389 H 0.46592 0.90767 0.69366 0.0
H390 H 0.43336 0.92987 0.43425 0.0
H391 H 0.38977 0.90272 0.46556 0.0
Tb392 Tb 0.48817 0.52013 0.83877 0.0
Eu393 Eu 0.53272 0.50359 0.6813 0.0
C394 C 0.46545 0.50555 0.64842 0.0
C395 C 0.50714 0.45489 0.81341 0.0
C396 C 0.43229 0.55472 0.98233 0.0
C397 C 0.38674 0.56892 0.04836 0.0
C398 C 0.40528 0.54744 0.01748 0.0
C399 C 0.43983 0.5838 0.97341 0.0
C400 C 0.42158 0.60513 1.00543 0.0
C401 C 0.39543 0.59779 0.04588 0.0
C402 C 0.45304 0.53187 0.96125 0.0
O403 O 0.52987 0.51135 0.90206 0.0
O404 O 0.56051 0.52246 0.78794 0.0
O405 O 0.52098 0.54996 0.65406 0.0
O406 O 0.49974 0.56291 0.7861 0.0
C407 C 0.5557 0.51809 0.87278 0.0
O408 O 0.56665 0.47692 0.62394 0.0
O409 O 0.5486 0.51172 0.5473 0.0
O410 O 0.4885 0.48975 0.63708 0.0
O411 O 0.46381 0.52359 0.71515 0.0
O412 O 0.48649 0.47299 0.83421 0.0
O413 O 0.52927 0.46321 0.76568 0.0
C414 C 0.51016 0.56954 0.70704 0.0
O415 O 0.44689 0.51551 0.89414 0.0
O416 O 0.48012 0.53897 0.96219 0.0
C417 C 0.55117 0.46662 0.47842 0.0
C418 C 0.5116 0.42949 0.39958 0.0
C419 C 0.53198 0.4186 0.45903 0.0
C420 C 0.55179 0.437 0.49792 0.0
C421 C 0.53315 0.47658 0.40977 0.0
C422 C 0.51318 0.45815 0.3713 0.0
C423 C 0.56219 0.48722 0.54441 0.0
H424 H 0.36653 0.56296 0.07898 0.0
H425 H 0.39903 0.52509 0.02417 0.0
H426 H 0.46033 0.59003 0.94525 0.0
H427 H 0.42848 0.62737 1.0025 0.0
H428 H 0.53127 0.39626 0.47986 0.0
H429 H 0.56563 0.4285 0.5494 0.0
H430 H 0.53249 0.49918 0.39203 0.0
H431 H 0.49785 0.4666 0.32392 0.0
Tb432 Tb 1.00365 0.49093 0.81111 0.0
Eu433 Eu 0.02507 0.53709 0.66037 0.0
C434 C 0.01969 0.47 0.61391 0.0
C435 C 0.07012 0.51153 0.80553 0.0
C436 C 0.96167 0.4304 0.90005 0.0
C437 C 0.93595 0.39499 0.81177 0.0
C438 C 0.96029 0.41203 0.826 0.0
C439 C 0.939 0.43056 0.96105 0.0
C440 C 0.91466 0.41404 0.94607 0.0
C441 C 0.91253 0.3967 0.87022 0.0
C442 C 0.98485 0.45161 0.91083 0.0
O443 O 1.00896 0.52906 0.89316 0.0
O444 O 0.01567 0.56341 0.78428 0.0
O445 O 0.98058 0.52265 0.62124 0.0
O446 O 0.96448 0.51132 0.75959 0.0
C447 C 0.01211 0.55602 0.86818 0.0
O448 O 0.01715 0.57882 0.59754 0.0
O449 O 0.05124 0.55124 0.54875 0.0
O450 O 0.03365 0.49393 0.59734 0.0
O451 O 1.00363 0.46706 0.68532 0.0
O452 O 0.04981 0.49485 0.83895 0.0
O453 O 0.06558 0.52894 0.73796 0.0
C454 C 0.95929 0.51705 0.67567 0.0
O455 O 1.00748 0.44873 0.86046 0.0
O456 O 0.97638 0.47831 0.91506 0.0
C457 C 0.05999 0.60081 0.54454 0.0
C458 C 0.10661 0.63892 0.55423 0.0
C459 C 0.08498 0.63977 0.61919 0.0
C460 C 0.06197 0.62042 0.61522 0.0
C461 C 0.08014 0.60205 0.47566 0.0
C462 C 0.10329 0.62079 0.48069 0.0
C463 C 0.03953 0.57673 0.54563 0.0
H464 H 0.93512 0.38122 0.75415 0.0
H465 H 0.97755 0.41146 0.77774 0.0
H466 H 0.93958 0.44445 0.01856 0.0
H467 H 0.89697 0.41553 0.99264 0.0
H468 H 0.08678 0.65409 0.67535 0.0
H469 H 0.04657 0.61995 0.66916 0.0
H470 H 0.07891 0.58729 0.42037 0.0
H471 H 0.11951 0.62002 0.42907 0.0
C472 C 0.12779 0.02058 0.54044 0.0
C473 C 0.12165 0.01956 0.44807 0.0
C474 C 0.07005 0.01714 0.48318 0.0
C475 C 0.07613 0.0202 0.57524 0.0
N476 N 0.11059 0.03272 0.68753 0.0
N477 N 0.08663 0.02385 0.33162 0.0
C478 C 0.10496 0.02432 0.6026 0.0
C479 C 0.09264 0.02013 0.41959 0.0
N480 N 0.15523 0.0165 0.56966 0.0
N481 N 0.04315 1.00958 0.45628 0.0
H482 H 0.10263 0.02624 0.28359 0.0
H483 H 0.06595 0.02743 0.3078 0.0
H484 H 0.02623 1.00593 0.50017 0.0
H485 H 0.0383 1.00411 0.3911 0.0
H486 H 0.16036 0.0138 0.63643 0.0
H487 H 0.17259 0.01313 0.52719 0.0
H488 H 0.13095 0.03874 0.70886 0.0
H489 H 0.09443 0.03674 0.7339 0.0
C490 C 0.46977 0.11811 0.48824 0.0
C491 C 0.49046 0.12138 0.41918 0.0
C492 C 0.51686 0.07943 0.47859 0.0
C493 C 0.49479 0.07468 0.54243 0.0
N494 N 0.44834 0.08732 0.6011 0.0
N495 N 0.53142 0.10256 0.34062 0.0
C496 C 0.47064 0.09334 0.54486 0.0
C497 C 0.51346 0.10136 0.41242 0.0
N498 N 0.45005 0.13941 0.50251 0.0
N499 N 0.54128 0.06316 0.48165 0.0
H500 H 0.52953 0.11812 0.29088 0.0
H501 H 0.54664 0.08683 0.32632 0.0
H502 H 0.544 0.04617 0.52614 0.0
H503 H 0.5596 0.06769 0.44444 0.0
H504 H 0.43641 0.13993 0.55732 0.0
H505 H 0.449 0.15807 0.46394 0.0
H506 H 0.4287 0.09799 0.59889 0.0
H507 H 0.44867 0.07018 0.64603 0.0
C508 C 0.42284 0.5064 0.42986 0.0
C509 C 0.39418 0.50611 0.4621 0.0
C510 C 0.41271 0.49933 0.61386 0.0
C511 C 0.44119 0.504 0.58312 0.0
N512 N 0.47272 0.51659 0.46144 0.0
N513 N 0.3619 0.50646 0.58776 0.0
C514 C 0.44615 0.50851 0.49081 0.0
C515 C 0.38912 0.50353 0.55495 0.0
N516 N 0.42784 0.5043 0.34076 0.0
N517 N 0.40818 0.48997 0.69883 0.0
H518 H 0.34402 0.50978 0.5476 0.0
H519 H 0.35739 0.50809 0.65528 0.0
H520 H 0.42491 0.48579 0.74292 0.0
H521 H 0.38818 0.48345 0.72244 0.0
H522 H 0.44823 0.50135 0.31376 0.0
H523 H 0.4113 0.50264 0.29453 0.0
H524 H 0.47683 0.52313 0.39645 0.0
H525 H 0.49013 0.51953 0.50356 0.0
C526 C 0.99861 0.41572 0.43269 0.0
C527 C 0.02419 0.39924 0.42453 0.0
C528 C 0.04745 0.43052 0.53532 0.0
C529 C 0.02123 0.4457 0.54823 0.0
N530 N 0.97072 0.45055 0.51638 0.0
N531 N 0.07141 0.3878 0.47924 0.0
C532 C 0.99645 0.43753 0.49925 0.0
C533 C 0.04823 0.40589 0.4787 0.0
N534 N 0.9767 0.41129 0.37421 0.0
N535 N 0.07174 0.43961 0.57735 0.0
H536 H 0.07278 0.36951 0.43966 0.0
H537 H 0.08824 0.38939 0.52419 0.0
H538 H 0.07182 0.45629 0.62329 0.0
H539 H 0.09218 0.4319 0.5626 0.0
H540 H 0.95874 0.42455 0.3695 0.0
H541 H 0.9775 0.39562 0.32496 0.0
H542 H 0.95122 0.44325 0.49174 0.0
H543 H 0.96848 0.46774 0.55988 0.0
C544 C 0.89371 0.01793 0.99132 0.0
C545 C 0.89514 1.00042 0.06875 0.0
C546 C 0.9419 0.98151 0.01837 0.0
C547 C 0.94153 1.00088 0.94495 0.0
N548 N 0.91955 0.0417 0.87227 0.0
N549 N 0.92194 0.9681 0.16222 0.0
C550 C 0.91805 0.02016 0.93422 0.0
C551 C 0.91966 0.98292 0.08405 0.0
N552 N 0.86877 0.03203 0.97104 0.0
N553 N 0.96288 0.96099 0.02346 0.0
H554 H 0.90581 0.96819 0.21038 0.0
H555 H 0.94052 0.95744 0.18215 0.0
H556 H 0.97927 0.95917 0.9765 0.0
H557 H 0.96281 0.94433 0.06987 0.0
H558 H 0.86525 0.04229 0.91044 0.0
H559 H 0.85058 0.03146 0.01146 0.0
H560 H 0.90468 0.0584 0.86817 0.0
H561 H 0.93712 0.04463 0.83034 0.0
C562 C 0.48567 0.89726 0.99347 0.0
C563 C 0.50652 0.89667 0.06205 0.0
C564 C 0.52964 0.93943 0.9952 0.0
C565 C 0.50719 0.94155 0.93159 0.0
N566 N 0.4607 0.92538 0.88219 0.0
N567 N 0.54641 0.91914 0.13504 0.0
C568 C 0.48441 0.92117 0.93384 0.0
C569 C 0.52798 0.91834 0.06479 0.0
N570 N 0.46733 0.87456 0.98392 0.0
N571 N 0.55316 0.95676 0.98701 0.0
H572 H 0.54621 0.90373 0.18559 0.0
H573 H 0.56044 0.9361 0.14664 0.0
H574 H 0.55531 0.9721 0.93672 0.0
H575 H 0.5716 0.95433 0.02519 0.0
H576 H 0.45396 0.87207 0.92925 0.0
H577 H 0.46726 0.85681 0.02655 0.0
H578 H 0.44205 0.9132 0.88805 0.0
H579 H 0.45847 0.9428 0.83918 0.0
C580 C 0.62849 0.49922 0.97654 0.0
C581 C 0.62822 0.51631 0.05447 0.0
C582 C 0.58145 0.53659 1.00948 0.0
C583 C 0.58063 0.51761 0.93573 0.0
N584 N 0.60101 0.47678 0.85966 0.0
N585 N 0.60298 0.54867 0.15145 0.0
C586 C 0.60357 0.49788 0.92201 0.0
C587 C 0.60424 0.53429 0.07271 0.0
N588 N 0.65291 0.48472 0.95322 0.0
N589 N 0.56105 0.55761 0.0172 0.0
H590 H 0.61949 0.54791 0.198 0.0
H591 H 0.58482 0.55961 0.17356 0.0
H592 H 0.54429 0.5601 0.97206 0.0
H593 H 0.56199 0.57402 0.06381 0.0
H594 H 0.65562 0.47468 0.89213 0.0
H595 H 0.67151 0.48477 0.99156 0.0
H596 H 0.61546 0.45979 0.85349 0.0
H597 H 0.583 0.47453 0.81953 0.0
C598 C 0.03544 0.60574 0.05805 0.0
C599 C 0.01328 0.62683 0.05771 0.0
C600 C 0.98992 0.6012 0.93406 0.0
C601 C 0.01143 0.5794 0.93726 0.0
N602 N 0.05106 0.55788 0.01695 0.0
N603 N 0.96662 0.64164 1.00699 0.0
C604 C 0.03293 0.58065 1.00417 0.0
C605 C 0.98973 0.62368 0.9988 0.0
N606 N 0.05985 0.61043 0.10598 0.0
N607 N 0.9695 0.60039 0.86919 0.0
H608 H 0.96564 0.65798 0.05412 0.0
H609 H 0.94744 0.6389 0.97285 0.0
H610 H 0.96722 0.58313 0.82585 0.0
H611 H 0.95559 0.61737 0.85554 0.0
H612 H 0.07821 0.59776 0.10033 0.0
H613 H 0.06286 0.62852 0.14544 0.0
H614 H 0.06477 0.55615 0.07116 0.0
H615 H 0.05107 0.53963 0.97731 0.0
C616 C 0.07332 0.13516 0.41915 0.0
C617 C 0.06674 0.1583 0.36133 0.0
C618 C 0.02185 0.1349 0.31788 0.0
C619 C 0.02655 0.11381 0.38364 0.0
N620 N 0.0561 0.09283 0.49817 0.0
N621 N 0.03457 0.17917 0.25063 0.0
C622 C 0.05238 0.11332 0.43378 0.0
C623 C 0.04135 0.15774 0.30884 0.0
N624 N 0.09954 0.13417 0.45945 0.0
N625 N 0.99802 0.13382 0.26527 0.0
H626 H 0.04726 0.19716 0.23813 0.0
H627 H 0.04726 0.19716 0.23813 0.0
H628 H 0.98317 0.11707 0.26865 0.0
H629 H 0.99367 0.14925 0.21653 0.0
H630 H 0.10689 0.11674 0.49655 0.0
H631 H 0.11496 0.15017 0.45023 0.0
H632 H 0.07286 0.09282 0.5436 0.0
H633 H 0.0415 0.07619 0.50888 0.0
C634 C 0.33387 0.86193 0.52927 0.0
C635 C 0.31763 0.8857 0.55904 0.0
C636 C 0.3546 0.8982 0.66559 0.0
C637 C 0.37336 0.87922 0.61992 0.0
N638 N 0.37898 0.83545 0.53909 0.0
N639 N 0.30608 0.91755 0.67779 0.0
C640 C 0.3619 0.85787 0.56392 0.0
C641 C 0.32568 0.90024 0.63691 0.0
N642 N 0.3234 0.84537 0.46237 0.0
N643 N 0.36514 0.91609 0.72917 0.0
H644 H 0.28508 0.91925 0.65417 0.0
H645 H 0.30978 0.92817 0.73728 0.0
H646 H 0.38595 0.91419 0.75348 0.0
H647 H 0.35348 0.93279 0.75764 0.0
H648 H 0.33501 0.82916 0.43114 0.0
H649 H 0.30262 0.84828 0.43817 0.0
H650 H 0.37211 0.81844 0.49993 0.0
H651 H 0.39979 0.83327 0.56393 0.0
C652 C 0.44098 0.38897 0.40717 0.0
C653 C 0.44795 0.3662 0.34905 0.0
C654 C 0.49225 0.39081 0.30425 0.0
C655 C 0.48756 0.41091 0.37257 0.0
N656 N 0.45806 0.43019 0.48999 0.0
N657 N 0.48061 0.34435 0.24362 0.0
C658 C 0.46183 0.41062 0.42348 0.0
C659 C 0.4735 0.36703 0.29681 0.0
N660 N 0.41456 0.38969 0.44665 0.0
N661 N 0.51476 0.39455 0.24687 0.0
H662 H 0.46709 0.32698 0.23266 0.0
H663 H 0.50067 0.34183 0.21411 0.0
H664 H 0.52882 0.41193 0.25109 0.0
H665 H 0.51815 0.38201 0.19079 0.0
H666 H 0.40703 0.40696 0.48377 0.0
H667 H 0.39918 0.37378 0.43621 0.0
H668 H 0.44136 0.42934 0.53591 0.0
H669 H 0.47256 0.44676 0.50213 0.0
C670 C 0.17078 0.66992 0.45771 0.0
C671 C 0.19025 0.6509 0.49936 0.0
C672 C 0.15594 0.64103 0.6175 0.0
C673 C 0.13449 0.65404 0.56382 0.0
N674 N 0.12261 0.69053 0.45754 0.0
N675 N 0.20674 0.62961 0.63435 0.0
C676 C 0.14266 0.67257 0.49349 0.0
C677 C 0.18471 0.64098 0.58618 0.0
N678 N 0.17858 0.68291 0.38002 0.0
N679 N 0.14836 0.62642 0.69273 0.0
H680 H 0.22764 0.62916 0.60908 0.0
H681 H 0.20488 0.62295 0.70014 0.0
H682 H 0.12767 0.62709 0.71882 0.0
H683 H 0.16238 0.61356 0.7291 0.0
H684 H 0.16478 0.6952 0.34103 0.0
H685 H 0.19941 0.68098 0.35496 0.0
H686 H 0.12691 0.70533 0.40724 0.0
H687 H 0.10185 0.69164 0.48372 0.0
C688 C 0.1637 0.85574 0.1001 0.0
C689 C 0.14737 0.84878 0.17666 0.0
C690 C 0.13211 0.89904 0.18839 0.0
C691 C 0.14223 0.9038 0.10105 0.0
N692 N 0.17053 0.88883 0.97626 0.0
N693 N 0.11518 0.864 0.29446 0.0
C694 C 0.15955 0.88297 0.05844 0.0
C695 C 0.13213 0.87067 0.22298 0.0
N696 N 0.18233 0.83586 0.0665 0.0
N697 N 0.12118 0.92138 0.23643 0.0
H698 H 0.11405 0.84366 0.32321 0.0
H699 H 0.10049 0.87829 0.32222 0.0
H700 H 0.11989 0.94228 0.21158 0.0
H701 H 0.11613 0.9198 0.30365 0.0
H702 H 0.19626 0.83994 0.01384 0.0
H703 H 0.1854 0.81586 0.09695 0.0
H704 H 0.18074 0.87364 0.93661 0.0
H705 H 0.16859 0.90913 0.9469 0.0
C706 C 0.68607 0.1383 0.87191 0.0
C707 C 0.69933 0.11087 0.8715 0.0
C708 C 0.65396 0.08782 0.83875 0.0
C709 C 0.63984 0.11449 0.85285 0.0
N710 N 0.64191 0.16613 0.85728 0.0
N711 N 0.69871 0.06399 0.80429 0.0
C712 C 0.65582 0.14028 0.85941 0.0
C713 C 0.68423 0.08721 0.83668 0.0
N714 N 0.70235 0.16167 0.89254 0.0
N715 N 0.63863 0.06283 0.83324 0.0
H716 H 0.7209 0.06384 0.79702 0.0
H717 H 0.6886 0.04668 0.77393 0.0
H718 H 0.61628 0.06218 0.83215 0.0
H719 H 0.64814 0.04253 0.83432 0.0
H720 H 0.69418 0.18223 0.90258 0.0
H721 H 0.72455 0.1598 0.90055 0.0
H722 H 0.65231 0.18591 0.85797 0.0
H723 H 0.61972 0.16761 0.8491 0.0
C724 C 0.36188 0.67005 0.0835 0.0
C725 C 0.37615 0.67627 0.164 0.0
C726 C 0.38691 0.6251 0.18377 0.0
C727 C 0.37967 0.62062 0.09399 0.0
N728 N 0.35688 0.63684 0.96029 0.0
N729 N 0.40325 0.65942 0.29152 0.0
C730 C 0.3654 0.64237 0.04506 0.0
C731 C 0.38811 0.65361 0.21609 0.0
N732 N 0.34589 0.69097 0.04326 0.0
N733 N 0.39403 0.60226 0.23664 0.0
H734 H 0.40534 0.67984 0.31849 0.0
H735 H 0.4157 0.64414 0.32453 0.0
H736 H 0.39396 0.58113 0.21397 0.0
H737 H 0.39699 0.60396 0.30489 0.0
H738 H 0.33347 0.68754 0.98705 0.0
H739 H 0.34328 0.71132 0.07129 0.0
H740 H 0.34921 0.65248 0.91675 0.0
H741 H 0.35834 0.61627 0.93306 0.0
C742 C 0.83669 0.40161 0.82866 0.0
C743 C 0.82903 0.39074 0.91316 0.0
C744 C 0.87413 0.36431 0.92145 0.0
C745 C 0.88462 0.38237 0.85322 0.0
N746 N 0.87401 0.40653 0.71617 0.0
N747 N 0.83519 0.35454 0.0255 0.0
C748 C 0.86499 0.39667 0.79684 0.0
C749 C 0.84573 0.36879 0.95314 0.0
N750 N 0.81764 0.41872 0.78438 0.0
N751 N 0.89252 0.34513 0.95989 0.0
H752 H 0.81424 0.3578 0.04791 0.0
H753 H 0.84655 0.3392 0.06154 0.0
H754 H 0.91346 0.34267 0.93599 0.0
H755 H 0.88702 0.3312 0.01133 0.0
H756 H 0.82214 0.42947 0.72529 0.0
H757 H 0.79682 0.4219 0.8084 0.0
H758 H 0.86078 0.41676 0.67032 0.0
H759 H 0.89468 0.40249 0.69279 0.0
C760 C 1.0089 0.14945 0.82831 0.0
C761 C 0.01724 0.15438 0.91778 0.0
C762 C 0.01911 0.10176 0.94196 0.0
C763 C 0.01318 0.09675 0.85079 0.0
N764 N 1.00794 0.11656 0.7034 0.0
N765 N 0.03382 0.13349 0.0568 0.0
C766 C 0.0094 0.12083 0.79295 0.0
C767 C 0.02333 0.13023 0.97323 0.0
N768 N 0.99963 0.17205 0.77761 0.0
N769 N 0.02071 0.07928 1.00054 0.0
H770 H 0.03902 0.15326 0.08489 0.0
H771 H 0.03902 0.15326 0.08489 0.0
H772 H 0.01614 0.0581 0.98331 0.0
H773 H 0.02509 0.08217 0.06782 0.0
H774 H 0.9903 0.16959 0.7154 0.0
H775 H 0.99889 0.19311 0.80103 0.0
H776 H 1.00843 0.13325 0.65709 0.0
H777 H 1.00908 0.09625 0.67456 0.0
C778 C 0.38857 1.00978 0.98238 0.0
C779 C 0.3633 1.00889 0.92974 0.0
C780 C 0.39326 0.01248 0.79449 0.0
C781 C 0.41856 0.01086 0.84687 0.0
N782 N 0.44013 1.00344 0.99053 0.0
N783 N 0.3415 1.00643 0.78534 0.0
C784 C 0.41615 1.00859 0.94085 0.0
C785 C 0.36566 1.00938 0.83561 0.0
N786 N 0.38629 0.01159 0.07268 0.0
N787 N 0.39557 0.01815 0.70566 0.0
H788 H 0.32092 1.00577 0.81272 0.0
H789 H 0.34188 1.00289 0.7172 0.0
H790 H 0.41526 0.02092 0.67368 0.0
H791 H 0.37809 0.02257 0.66495 0.0
H792 H 0.40354 0.01623 0.11394 0.0
H793 H 0.36682 1.0104 0.10664 0.0
H794 H 0.43959 0.99776 0.0574 0.0
H795 H 0.46065 1.00241 0.96357 0.0
C796 C 0.51019 0.37187 0.82195 0.0
C797 C 0.50141 0.36627 0.91084 0.0
C798 C 0.49986 0.41852 0.93781 0.0
C799 C 0.50551 0.42425 0.84656 0.0
N800 N 0.51031 0.40549 0.69806 0.0
N801 N 0.48078 0.3849 0.04592 0.0
C802 C 0.5092 0.40065 0.78753 0.0
C803 C 0.49423 0.3898 0.96663 0.0
N804 N 0.52008 0.34979 0.77077 0.0
N805 N 0.50109 0.44028 0.99832 0.0
H806 H 0.47531 0.36437 0.06827 0.0
H807 H 0.47241 0.40135 0.08505 0.0
H808 H 0.50636 0.46138 0.98131 0.0
H809 H 0.50003 0.43674 0.0666 0.0
H810 H 0.52957 0.35289 0.70879 0.0
H811 H 0.52114 0.3286 0.79367 0.0
H812 H 0.51002 0.38903 0.65142 0.0
H813 H 0.50854 0.42594 0.66984 0.0
C814 C 0.1433 0.48548 0.89556 0.0
C815 C 0.15299 0.51042 0.94054 0.0
C816 C 0.11057 0.53702 0.88633 0.0
C817 C 0.09931 0.51133 0.84861 0.0
N818 N 0.10448 0.46048 0.82104 0.0
N819 N 0.14314 0.55843 0.9923 0.0
C820 C 0.11553 0.48535 0.85475 0.0
C821 C 0.13596 0.53582 0.93904 0.0
N822 N 0.16116 0.46221 0.88913 0.0
N823 N 0.09709 0.5628 0.87241 0.0
H824 H 0.16127 0.55848 0.03267 0.0
H825 H 0.12976 0.57604 1.00308 0.0
H826 H 0.07723 0.5649 0.84169 0.0
H827 H 0.10642 0.58254 0.88724 0.0
H828 H 0.15699 0.44442 0.84961 0.0
H829 H 0.18144 0.46161 0.91821 0.0
H830 H 0.11322 0.44022 0.83303 0.0
H831 H 0.08565 0.45983 0.78402 0.0
C832 C 0.99619 0.87161 0.66371 0.0
C833 C 0.01428 0.86637 0.58925 0.0
C834 C 0.03017 0.91703 0.59285 0.0
C835 C 0.01301 0.92207 0.66967 0.0
N836 N 0.9823 0.90337 0.78488 0.0
N837 N 0.05232 0.88262 0.49277 0.0
C838 C 0.99691 0.89902 0.70731 0.0
C839 C 0.03229 0.88873 0.55655 0.0
N840 N 0.97756 0.85064 0.69076 0.0
N841 N 0.04437 0.93947 0.55368 0.0
H842 H 0.05446 0.86238 0.46389 0.0
H843 H 0.06841 0.89681 0.47319 0.0
H844 H 0.04537 0.95988 0.58155 0.0
H845 H 0.0539 0.9384 0.49123 0.0
H846 H 0.9616 0.8537 0.73821 0.0
H847 H 0.97674 0.83042 0.6611 0.0
H848 H 0.9726 0.88698 0.82135 0.0
H849 H 0.98138 0.92329 0.81628 0.0
C850 C 0.62348 0.98244 0.5266 0.0
C851 C 0.64195 1.00662 0.53582 0.0
C852 C 0.60501 0.02991 0.62872 0.0
C853 C 0.58783 1.00467 0.62683 0.0
N854 N 0.58493 0.95421 0.59132 0.0
N855 N 0.65284 0.04995 0.61622 0.0
C856 C 0.59843 0.98008 0.58125 0.0
C857 C 0.63351 0.02917 0.59392 0.0
N858 N 0.62858 0.96257 0.46197 0.0
N859 N 0.59367 0.05524 0.65809 0.0
H860 H 0.67439 0.04899 0.59745 0.0
H861 H 0.64826 0.06657 0.66002 0.0
H862 H 0.57265 0.05723 0.68078 0.0
H863 H 0.60413 0.07488 0.65053 0.0
H864 H 0.61412 0.94628 0.44662 0.0
H865 H 0.64568 0.964 0.41755 0.0
H866 H 0.59323 0.93506 0.56624 0.0
H867 H 0.5672 0.95138 0.63287 0.0
C868 C 0.49235 0.63329 0.55364 0.0
C869 C 0.50734 0.65625 0.59479 0.0
C870 C 0.52432 0.62249 0.71092 0.0
C871 C 0.5081 0.59992 0.67222 0.0
N872 N 0.47247 0.58521 0.56621 0.0
N873 N 0.53458 0.6738 0.71855 0.0
C874 C 0.49105 0.60573 0.59595 0.0
C875 C 0.52238 0.65114 0.6754 0.0
N876 N 0.47946 0.63774 0.47328 0.0
N877 N 0.54255 0.6163 0.7793 0.0
H878 H 0.53463 0.69466 0.69268 0.0
H879 H 0.54304 0.6724 0.78226 0.0
H880 H 0.54434 0.5958 0.80723 0.0
H881 H 0.55737 0.63083 0.80445 0.0
H882 H 0.47141 0.62124 0.43415 0.0
H883 H 0.47842 0.65781 0.44225 0.0
H884 H 0.45712 0.58885 0.51738 0.0
H885 H 0.47047 0.56509 0.59609 0.0
C886 C 0.89545 0.53189 0.52254 0.0
C887 C 0.87417 0.51256 0.55505 0.0
C888 C 0.90879 0.49537 0.66706 0.0
C889 C 0.92902 0.51669 0.63995 0.0
N890 N 0.9363 0.56136 0.56035 0.0
N891 N 0.85852 0.48223 0.67614 0.0
C892 C 0.9207 0.53685 0.57343 0.0
C893 C 0.88018 0.49641 0.63331 0.0
N894 N 0.89264 0.54439 0.44082 0.0
N895 N 0.91705 0.47293 0.72006 0.0
H896 H 0.83726 0.48318 0.65479 0.0
H897 H 0.86119 0.47232 0.73778 0.0
H898 H 0.93817 0.46931 0.73928 0.0
H899 H 0.90348 0.45595 0.73646 0.0
H900 H 0.90899 0.55639 0.41124 0.0
H901 H 0.87552 0.54027 0.39853 0.0
H902 H 0.92974 0.57777 0.51753 0.0
H903 H 0.95363 0.56692 0.60032 0.0
loop_
_geom_bond_atom_site_label_1
_geom_bond_atom_site_label_2
_geom_bond_distance
_geom_bond_site_symmetry_2
_ccdc_geom_bond_type
C0 C1 1.386 . S
C0 C2 1.397 . S
C0 H24 0.931 . S
C1 C0 1.386 . S
C1 C5 1.397 . S
C2 C0 1.397 . S
C2 C3 1.384 . S
C2 H25 0.930 . S
C3 C2 1.384 . S
C3 C4 1.377 . S
C3 C6 1.481 . S
C4 C3 1.377 . S
C4 C5 1.389 . S
C4 H26 0.929 . S
C5 C1 1.397 . S
C5 C4 1.389 . S
C5 H27 0.931 . S
C6 C3 1.481 . S
C6 C7 1.387 . S
C6 C11 1.390 . S
C7 C6 1.387 . S
C7 C8 1.401 . S
C7 H28 0.930 . S
C8 C7 1.401 . S
C8 C9 1.376 . S
C8 C17 1.511 . S
C9 C8 1.376 . S
C9 C10 1.392 . S
C9 H30 0.931 . S
C10 C9 1.392 . S
C10 C11 1.361 . S
C10 C12 1.500 . S
C11 C6 1.390 . S
C11 C10 1.361 . S
C11 H29 0.931 . S
C12 C10 1.500 . S
C12 C13 1.371 . S
C12 C14 1.365 . S
C13 C12 1.371 . S
C13 C23 1.386 . S
C13 H31 0.931 . S
C14 C12 1.365 . S
C14 C15 1.409 . S
C14 H32 0.929 . S
C15 C14 1.409 . S
C15 C16 1.380 . S
C15 H33 0.930 . S
C16 C15 1.380 . S
C16 C23 1.357 . S
C17 C8 1.511 . S
C17 C18 1.341 . S
C17 C19 1.371 . S
C18 C17 1.341 . S
C18 C22 1.394 . S
C18 H34 0.930 . S
C19 C17 1.371 . S
C19 C20 1.392 . S
C19 H35 0.931 . S
C20 C19 1.392 . S
C20 C21 1.331 . S
C20 H38 0.932 . S
C21 C20 1.331 . S
C21 C22 1.336 . S
C22 C18 1.394 . S
C22 C21 1.336 . S
C22 H37 0.929 . S
C23 C13 1.386 . S
C23 C16 1.357 . S
C23 H36 0.928 . S
H24 C0 0.931 . S
H25 C2 0.930 . S
H26 C4 0.929 . S
H27 C5 0.931 . S
H28 C7 0.930 . S
H29 C11 0.931 . S
H30 C9 0.931 . S
H31 C13 0.931 . S
H32 C14 0.929 . S
H33 C15 0.930 . S
H34 C18 0.930 . S
H35 C19 0.931 . S
H36 C23 0.928 . S
H37 C22 0.929 . S
H38 C20 0.932 . S
C39 C40 1.394 . S
C39 C41 1.397 . S
C39 H63 0.931 . S
C40 C39 1.394 . S
C40 C44 1.389 1_655 S
C41 C39 1.397 . S
C41 C42 1.389 . S
C41 H64 0.930 . S
C42 C41 1.389 . S
C42 C43 1.373 1_655 S
C42 C45 1.480 . S
C43 C42 1.373 1_455 S
C43 C44 1.389 . S
C43 H65 0.929 . S
C44 C40 1.389 1_455 S
C44 C43 1.389 . S
C44 H66 0.931 . S
C45 C42 1.480 . S
C45 C46 1.388 . S
C45 C50 1.390 . S
C46 C45 1.388 . S
C46 C47 1.402 . S
C46 H67 0.930 . S
C47 C46 1.402 . S
C47 C48 1.377 . S
C47 C56 1.513 . S
C48 C47 1.377 . S
C48 C49 1.392 . S
C48 H69 0.931 . S
C49 C48 1.392 . S
C49 C50 1.361 . S
C49 C51 1.499 1_655 S
C50 C45 1.390 . S
C50 C49 1.361 . S
C50 H68 0.931 . S
C51 C49 1.499 1_455 S
C51 C52 1.361 1_455 S
C51 C53 1.376 . S
C52 C51 1.361 1_655 S
C52 C62 1.386 . S
C52 H70 0.931 . S
C53 C51 1.376 . S
C53 C54 1.409 . S
C53 H71 0.929 . S
C54 C53 1.409 . S
C54 C55 1.380 . S
C54 H72 0.930 . S
C55 C54 1.380 . S
C55 C62 1.357 1_455 S
C56 C47 1.513 . S
C56 C57 1.341 . S
C56 C58 1.371 1_655 S
C57 C56 1.341 . S
C57 C61 1.394 . S
C57 H73 0.930 . S
C58 C56 1.371 1_455 S
C58 C59 1.392 . S
C58 H74 0.931 . S
C59 C58 1.392 . S
C59 C60 1.322 1_455 S
C59 H77 0.932 . S
C60 C59 1.322 1_655 S
C60 C61 1.345 . S
C61 C57 1.394 . S
C61 C60 1.345 . S
C61 H76 0.929 . S
C62 C52 1.386 . S
C62 C55 1.357 1_655 S
C62 H75 0.928 . S
H63 C39 0.931 . S
H64 C41 0.930 . S
H65 C43 0.929 . S
H66 C44 0.931 . S
H67 C46 0.930 . S
H68 C50 0.931 . S
H69 C48 0.931 . S
H70 C52 0.931 . S
H71 C53 0.929 . S
H72 C54 0.930 . S
H73 C57 0.930 . S
H74 C58 0.931 . S
H75 C62 0.928 . S
H76 C61 0.929 . S
H77 C59 0.932 . S
C78 C79 1.394 . S
C78 C80 1.397 . S
C78 H102 0.931 . S
C79 C78 1.394 . S
C79 C83 1.389 1_565 S
C80 C78 1.397 . S
C80 C81 1.389 . S
C80 H103 0.930 . S
C81 C80 1.389 . S
C81 C82 1.373 1_565 S
C81 C84 1.481 . S
C82 C81 1.373 1_545 S
C82 C83 1.389 . S
C82 H104 0.929 . S
C83 C79 1.389 1_545 S
C83 C82 1.389 . S
C83 H105 0.931 . S
C84 C81 1.481 . S
C84 C85 1.389 . S
C84 C89 1.390 . S
C85 C84 1.389 . S
C85 C86 1.403 . S
C85 H106 0.930 . S
C86 C85 1.403 . S
C86 C87 1.377 . S
C86 C95 1.513 . S
C87 C86 1.377 . S
C87 C88 1.392 . S
C87 H108 0.931 . S
C88 C87 1.392 . S
C88 C89 1.361 . S
C88 C90 1.499 1_565 S
C89 C84 1.390 . S
C89 C88 1.361 . S
C89 H107 0.931 . S
C90 C88 1.499 1_545 S
C90 C91 1.361 1_545 S
C90 C92 1.376 . S
C91 C90 1.361 1_565 S
C91 C101 1.386 . S
C91 H109 0.931 . S
C92 C90 1.376 . S
C92 C93 1.409 . S
C92 H110 0.929 . S
C93 C92 1.409 . S
C93 C94 1.380 . S
C93 H111 0.930 . S
C94 C93 1.380 . S
C94 C101 1.357 1_545 S
C95 C86 1.513 . S
C95 C96 1.341 . S
C95 C97 1.371 1_565 S
C96 C95 1.341 . S
C96 C100 1.394 . S
C96 H112 0.930 . S
C97 C95 1.371 1_545 S
C97 C98 1.392 . S
C97 H113 0.931 . S
C98 C97 1.392 . S
C98 C99 1.322 1_545 S
C98 H116 0.932 . S
C99 C98 1.322 1_565 S
C99 C100 1.345 . S
C100 C96 1.394 . S
C100 C99 1.345 . S
C100 H115 0.929 . S
C101 C91 1.386 . S
C101 C94 1.357 1_565 S
C101 H114 0.928 . S
H102 C78 0.931 . S
H103 C80 0.930 . S
H104 C82 0.929 . S
H105 C83 0.931 . S
H106 C85 0.930 . S
H107 C89 0.931 . S
H108 C87 0.931 . S
H109 C91 0.931 . S
H110 C92 0.929 . S
H111 C93 0.930 . S
H112 C96 0.930 . S
H113 C97 0.931 . S
H114 C101 0.928 . S
H115 C100 0.929 . S
H116 C98 0.932 . S
C117 C118 1.386 . S
C117 C119 1.397 . S
C117 H141 0.931 . S
C118 C117 1.386 . S
C118 C122 1.397 . S
C119 C117 1.397 . S
C119 C120 1.384 . S
C119 H142 0.930 . S
C120 C119 1.384 . S
C120 C121 1.377 . S
C120 C123 1.481 . S
C121 C120 1.377 . S
C121 C122 1.389 . S
C121 H143 0.929 . S
C122 C118 1.397 . S
C122 C121 1.389 . S
C122 H144 0.931 . S
C123 C120 1.481 . S
C123 C124 1.387 . S
C123 C128 1.390 . S
C124 C123 1.387 . S
C124 C125 1.401 . S
C124 H145 0.930 . S
C125 C124 1.401 . S
C125 C126 1.376 . S
C125 C134 1.511 . S
C126 C125 1.376 . S
C126 C127 1.392 . S
C126 H147 0.931 . S
C127 C126 1.392 . S
C127 C128 1.361 . S
C127 C129 1.500 . S
C128 C123 1.390 . S
C128 C127 1.361 . S
C128 H146 0.931 . S
C129 C127 1.500 . S
C129 C130 1.371 . S
C129 C131 1.365 . S
C130 C129 1.371 . S
C130 C140 1.386 . S
C130 H148 0.931 . S
C131 C129 1.365 . S
C131 C132 1.409 . S
C131 H149 0.929 . S
C132 C131 1.409 . S
C132 C133 1.380 . S
C132 H150 0.930 . S
C133 C132 1.380 . S
C133 C140 1.357 . S
C134 C125 1.511 . S
C134 C135 1.341 . S
C134 C136 1.371 . S
C135 C134 1.341 . S
C135 C139 1.394 . S
C135 H151 0.930 . S
C136 C134 1.371 . S
C136 C137 1.392 . S
C136 H152 0.931 . S
C137 C136 1.392 . S
C137 C138 1.331 . S
C137 H155 0.932 . S
C138 C137 1.331 . S
C138 C139 1.336 . S
C139 C135 1.394 . S
C139 C138 1.336 . S
C139 H154 0.929 . S
C140 C130 1.386 . S
C140 C133 1.357 . S
C140 H153 0.928 . S
H141 C117 0.931 . S
H142 C119 0.930 . S
H143 C121 0.929 . S
H144 C122 0.931 . S
H145 C124 0.930 . S
H146 C128 0.931 . S
H147 C126 0.931 . S
H148 C130 0.931 . S
H149 C131 0.929 . S
H150 C132 0.930 . S
H151 C135 0.930 . S
H152 C136 0.931 . S
H153 C140 0.928 . S
H154 C139 0.929 . S
H155 C137 0.932 . S
C156 C157 1.386 . S
C156 C158 1.397 . S
C156 H180 0.931 . S
C157 C156 1.386 . S
C157 C161 1.397 . S
C158 C156 1.397 . S
C158 C159 1.384 . S
C158 H181 0.930 . S
C159 C158 1.384 . S
C159 C160 1.377 . S
C159 C162 1.481 . S
C160 C159 1.377 . S
C160 C161 1.389 . S
C160 H182 0.929 . S
C161 C157 1.397 . S
C161 C160 1.389 . S
C161 H183 0.931 . S
C162 C159 1.481 . S
C162 C163 1.387 . S
C162 C167 1.390 . S
C163 C162 1.387 . S
C163 C164 1.401 . S
C163 H184 0.930 . S
C164 C163 1.401 . S
C164 C165 1.376 1_554 S
C164 C173 1.511 . S
C165 C164 1.376 1_556 S
C165 C166 1.392 . S
C165 H186 0.931 . S
C166 C165 1.392 . S
C166 C167 1.361 1_556 S
C166 C168 1.500 . S
C167 C162 1.390 . S
C167 C166 1.361 1_554 S
C167 H185 0.931 . S
C168 C166 1.500 . S
C168 C169 1.371 . S
C168 C170 1.365 . S
C169 C168 1.371 . S
C169 C179 1.386 . S
C169 H187 0.931 . S
C170 C168 1.365 . S
C170 C171 1.409 . S
C170 H188 0.929 . S
C171 C170 1.409 . S
C171 C172 1.380 . S
C171 H189 0.930 . S
C172 C171 1.380 . S
C172 C179 1.357 . S
C173 C164 1.511 . S
C173 C174 1.341 . S
C173 C175 1.371 . S
C174 C173 1.341 . S
C174 C178 1.394 . S
C174 H190 0.930 . S
C175 C173 1.371 . S
C175 C176 1.392 . S
C175 H191 0.931 1_554 S
C176 C175 1.392 . S
C176 C177 1.331 . S
C176 H194 0.932 . S
C177 C176 1.331 . S
C177 C178 1.336 . S
C178 C174 1.394 . S
C178 C177 1.336 . S
C178 H193 0.929 . S
C179 C169 1.386 . S
C179 C172 1.357 . S
C179 H192 0.928 . S
H180 C156 0.931 . S
H181 C158 0.930 . S
H182 C160 0.929 . S
H183 C161 0.931 . S
H184 C163 0.930 . S
H185 C167 0.931 . S
H186 C165 0.931 . S
H187 C169 0.931 . S
H188 C170 0.929 . S
H189 C171 0.930 . S
H190 C174 0.930 . S
H191 C175 0.931 1_556 S
H192 C179 0.928 . S
H193 C178 0.929 . S
H194 C176 0.932 . S
C195 C196 1.389 . S
C195 C197 1.397 . S
C195 H219 0.931 . S
C196 C195 1.389 . S
C196 C200 1.394 1_655 S
C197 C195 1.397 . S
C197 C198 1.383 . S
C197 H220 0.930 . S
C198 C197 1.383 . S
C198 C199 1.378 1_655 S
C198 C201 1.480 . S
C199 C198 1.378 1_455 S
C199 C200 1.389 . S
C199 H221 0.929 . S
C200 C196 1.394 1_455 S
C200 C199 1.389 . S
C200 H222 0.931 . S
C201 C198 1.480 . S
C201 C202 1.388 . S
C201 C206 1.390 . S
C202 C201 1.388 . S
C202 C203 1.402 . S
C202 H223 0.930 . S
C203 C202 1.402 . S
C203 C204 1.376 1_554 S
C203 C212 1.512 . S
C204 C203 1.376 1_556 S
C204 C205 1.392 1_655 S
C204 H225 0.934 . S
C205 C204 1.392 1_455 S
C205 C206 1.361 1_456 S
C205 C207 1.499 . S
C206 C201 1.390 . S
C206 C205 1.361 1_654 S
C206 H224 0.931 . S
C207 C205 1.499 . S
C207 C208 1.357 1_455 S
C207 C209 1.380 . S
C208 C207 1.357 1_655 S
C208 C218 1.386 . S
C208 H226 0.931 . S
C209 C207 1.380 . S
C209 C210 1.409 . S
C209 H227 0.929 . S
C210 C209 1.409 . S
C210 C211 1.384 . S
C210 H228 0.930 . S
C211 C210 1.384 . S
C211 C218 1.353 1_455 S
C212 C203 1.512 . S
C212 C213 1.341 . S
C212 C214 1.371 1_655 S
C213 C212 1.341 . S
C213 C217 1.394 . S
C213 H229 0.930 . S
C214 C212 1.371 1_455 S
C214 C215 1.392 . S
C214 H230 0.931 1_554 S
C215 C214 1.392 . S
C215 C216 1.325 1_455 S
C215 H233 0.932 . S
C216 C215 1.325 1_655 S
C216 C217 1.342 . S
C217 C213 1.394 . S
C217 C216 1.342 . S
C217 H232 0.929 . S
C218 C208 1.386 . S
C218 C211 1.353 1_655 S
C218 H231 0.928 . S
H219 C195 0.931 . S
H220 C197 0.930 . S
H221 C199 0.929 . S
H222 C200 0.931 . S
H223 C202 0.930 . S
H224 C206 0.931 . S
H225 C204 0.934 . S
H226 C208 0.931 . S
H227 C209 0.929 . S
H228 C210 0.930 . S
H229 C213 0.930 . S
H230 C214 0.931 1_556 S
H231 C218 0.928 . S
H232 C217 0.929 . S
H233 C215 0.932 . S
C234 C235 1.389 . S
C234 C236 1.397 . S
C234 H258 0.931 . S
C235 C234 1.389 . S
C235 C239 1.394 1_565 S
C236 C234 1.397 . S
C236 C237 1.383 . S
C236 H259 0.930 . S
C237 C236 1.383 . S
C237 C238 1.378 1_565 S
C237 C240 1.480 . S
C238 C237 1.378 1_545 S
C238 C239 1.389 . S
C238 H260 0.929 . S
C239 C235 1.394 1_545 S
C239 C238 1.389 . S
C239 H261 0.931 . S
C240 C237 1.480 . S
C240 C241 1.388 . S
C240 C245 1.390 . S
C241 C240 1.388 . S
C241 C242 1.402 . S
C241 H262 0.930 . S
C242 C241 1.402 . S
C242 C243 1.376 1_554 S
C242 C251 1.512 . S
C243 C242 1.376 1_556 S
C243 C244 1.392 1_565 S
C243 H264 0.934 . S
C244 C243 1.392 1_545 S
C244 C245 1.361 1_546 S
C244 C246 1.499 . S
C245 C240 1.390 . S
C245 C244 1.361 1_564 S
C245 H263 0.931 . S
C246 C244 1.499 . S
C246 C247 1.357 1_545 S
C246 C248 1.380 . S
C247 C246 1.357 1_565 S
C247 C257 1.386 . S
C247 H265 0.931 . S
C248 C246 1.380 . S
C248 C249 1.409 . S
C248 H266 0.929 . S
C249 C248 1.409 . S
C249 C250 1.384 . S
C249 H267 0.930 . S
C250 C249 1.384 . S
C250 C257 1.353 1_545 S
C251 C242 1.512 . S
C251 C252 1.341 . S
C251 C253 1.371 1_565 S
C252 C251 1.341 . S
C252 C256 1.394 . S
C252 H268 0.930 . S
C253 C251 1.371 1_545 S
C253 C254 1.392 . S
C253 H269 0.931 1_554 S
C254 C253 1.392 . S
C254 C255 1.325 1_545 S
C254 H272 0.932 . S
C255 C254 1.325 1_565 S
C255 C256 1.342 . S
C256 C252 1.394 . S
C256 C255 1.342 . S
C256 H271 0.929 . S
C257 C247 1.386 . S
C257 C250 1.353 1_565 S
C257 H270 0.928 . S
H258 C234 0.931 . S
H259 C236 0.930 . S
H260 C238 0.929 . S
H261 C239 0.931 . S
H262 C241 0.930 . S
H263 C245 0.931 . S
H264 C243 0.934 . S
H265 C247 0.931 . S
H266 C248 0.929 . S
H267 C249 0.930 . S
H268 C252 0.930 . S
H269 C253 0.931 1_556 S
H270 C257 0.928 . S
H271 C256 0.929 . S
H272 C254 0.932 . S
C273 C274 1.386 . S
C273 C275 1.397 . S
C273 H297 0.931 . S
C274 C273 1.386 . S
C274 C278 1.397 . S
C275 C273 1.397 . S
C275 C276 1.384 . S
C275 H298 0.930 . S
C276 C275 1.384 . S
C276 C277 1.377 . S
C276 C279 1.481 . S
C277 C276 1.377 . S
C277 C278 1.389 . S
C277 H299 0.929 . S
C278 C274 1.397 . S
C278 C277 1.389 . S
C278 H300 0.931 . S
C279 C276 1.481 . S
C279 C280 1.387 . S
C279 C284 1.390 1_556 S
C280 C279 1.387 . S
C280 C281 1.401 1_556 S
C280 H301 0.930 . S
C281 C280 1.401 1_554 S
C281 C282 1.376 . S
C281 C290 1.511 . S
C282 C281 1.376 . S
C282 C283 1.392 . S
C282 H303 0.931 . S
C283 C282 1.392 . S
C283 C284 1.361 . S
C283 C285 1.500 . S
C284 C279 1.390 1_554 S
C284 C283 1.361 . S
C284 H302 0.931 . S
C285 C283 1.500 . S
C285 C286 1.371 . S
C285 C287 1.365 . S
C286 C285 1.371 . S
C286 C296 1.386 . S
C286 H304 0.931 . S
C287 C285 1.365 . S
C287 C288 1.409 . S
C287 H305 0.929 . S
C288 C287 1.409 . S
C288 C289 1.380 . S
C288 H306 0.930 . S
C289 C288 1.380 . S
C289 C296 1.357 . S
C290 C281 1.511 . S
C290 C291 1.341 . S
C290 C292 1.371 . S
C291 C290 1.341 . S
C291 C295 1.394 . S
C291 H307 0.930 1_554 S
C292 C290 1.371 . S
C292 C293 1.392 . S
C292 H308 0.931 . S
C293 C292 1.392 . S
C293 C294 1.331 . S
C293 H311 0.932 . S
C294 C293 1.331 . S
C294 C295 1.336 . S
C295 C291 1.394 . S
C295 C294 1.336 . S
C295 H310 0.929 . S
C296 C286 1.386 . S
C296 C289 1.357 . S
C296 H309 0.928 . S
H297 C273 0.931 . S
H298 C275 0.930 . S
H299 C277 0.929 . S
H300 C278 0.931 . S
H301 C280 0.930 . S
H302 C284 0.931 . S
H303 C282 0.931 . S
H304 C286 0.931 . S
H305 C287 0.929 . S
H306 C288 0.930 . S
H307 C291 0.930 1_556 S
H308 C292 0.931 . S
H309 C296 0.928 . S
H310 C295 0.929 . S
H311 C293 0.932 . S
Tb312 C322 2.825 . S
Tb312 O323 2.347 1_455 S
Tb312 O326 2.366 . S
Tb312 O331 2.418 . S
Tb312 O332 2.384 1_565 S
Tb312 O335 2.479 . S
Tb312 O336 2.471 . S
Eu313 O324 2.418 . S
Eu313 O325 2.384 1_545 S
Eu313 O328 2.479 . S
Eu313 O329 2.471 . S
Eu313 O330 2.347 1_655 S
Eu313 O333 2.366 . S
Eu313 C343 2.825 . S
C314 O330 1.259 1_565 S
C314 O331 1.265 . S
C315 O332 1.255 . S
C315 O333 1.265 1_455 S
C316 C318 1.380 . S
C316 C319 1.374 . S
C316 C322 1.507 . S
C317 C318 1.384 1_554 S
C317 C321 1.387 . S
C317 H344 0.930 . S
C318 C316 1.380 . S
C318 C317 1.384 1_556 S
C318 H345 0.931 . S
C319 C316 1.374 . S
C319 C320 1.390 1_556 S
C319 H346 0.930 1_455 S
C320 C319 1.390 1_554 S
C320 C321 1.391 . S
C320 H347 0.930 1_455 S
C321 C317 1.387 . S
C321 C320 1.391 . S
C322 Tb312 2.825 . S
C322 C316 1.507 . S
C322 O335 1.238 . S
C322 O336 1.247 . S
O323 Tb312 2.347 1_655 S
O323 C327 1.259 1_565 S
O324 Eu313 2.418 . S
O324 C327 1.265 . S
O325 Eu313 2.384 1_565 S
O325 C334 1.255 . S
O326 Tb312 2.366 . S
O326 C334 1.265 1_455 S
C327 O323 1.259 1_545 S
C327 O324 1.265 . S
O328 Eu313 2.479 . S
O328 C343 1.238 . S
O329 Eu313 2.471 . S
O329 C343 1.247 . S
O330 Eu313 2.347 1_455 S
O330 C314 1.259 1_545 S
O331 Tb312 2.418 . S
O331 C314 1.265 . S
O332 Tb312 2.384 1_545 S
O332 C315 1.255 . S
O333 Eu313 2.366 . S
O333 C315 1.265 1_655 S
C334 O325 1.255 . S
C334 O326 1.265 1_655 S
O335 Tb312 2.479 . S
O335 C322 1.238 . S
O336 Tb312 2.471 . S
O336 C322 1.247 . S
C337 C340 1.380 . S
C337 C341 1.374 . S
C337 C343 1.507 . S
C338 C339 1.387 . S
C338 C342 1.391 . S
C339 C338 1.387 . S
C339 C340 1.384 . S
C339 H348 0.930 . S
C340 C337 1.380 . S
C340 C339 1.384 . S
C340 H349 0.931 . S
C341 C337 1.374 . S
C341 C342 1.390 . S
C341 H350 0.930 1_655 S
C342 C338 1.391 . S
C342 C341 1.390 . S
C342 H351 0.930 1_655 S
C343 Eu313 2.825 . S
C343 O328 1.238 . S
C343 O329 1.247 . S
C343 C337 1.507 . S
H344 C317 0.930 . S
H345 C318 0.931 . S
H346 C319 0.930 1_655 S
H347 C320 0.930 1_655 S
H348 C339 0.930 . S
H349 C340 0.931 . S
H350 C341 0.930 1_455 S
H351 C342 0.930 1_455 S
Tb352 C362 2.825 . S
Tb352 O363 2.347 1_545 S
Tb352 O366 2.366 . S
Tb352 O371 2.418 . S
Tb352 O372 2.384 . S
Tb352 O375 2.479 . S
Tb352 O376 2.471 . S
Eu353 O364 2.418 . S
Eu353 O365 2.384 . S
Eu353 O368 2.479 . S
Eu353 O369 2.471 . S
Eu353 O370 2.347 1_565 S
Eu353 O373 2.366 . S
Eu353 C383 2.825 . S
C354 O370 1.259 . S
C354 O371 1.265 . S
C355 O372 1.255 . S
C355 O373 1.265 1_545 S
C356 C358 1.380 . S
C356 C359 1.374 . S
C356 C362 1.507 . S
C357 C358 1.384 1_554 S
C357 C361 1.387 . S
C357 H384 0.930 . S
C358 C356 1.380 . S
C358 C357 1.384 1_556 S
C358 H385 0.931 . S
C359 C356 1.374 . S
C359 C360 1.390 1_556 S
C359 H386 0.930 1_545 S
C360 C359 1.390 1_554 S
C360 C361 1.391 . S
C360 H387 0.930 1_545 S
C361 C357 1.387 . S
C361 C360 1.391 . S
C362 Tb352 2.825 . S
C362 C356 1.507 . S
C362 O375 1.238 . S
C362 O376 1.247 . S
O363 Tb352 2.347 1_565 S
O363 C367 1.259 . S
O364 Eu353 2.418 . S
O364 C367 1.265 . S
O365 Eu353 2.384 . S
O365 C374 1.255 . S
O366 Tb352 2.366 . S
O366 C374 1.265 1_545 S
C367 O363 1.259 . S
C367 O364 1.265 . S
O368 Eu353 2.479 . S
O368 C383 1.238 . S
O369 Eu353 2.471 . S
O369 C383 1.247 . S
O370 Eu353 2.347 1_545 S
O370 C354 1.259 . S
O371 Tb352 2.418 . S
O371 C354 1.265 . S
O372 Tb352 2.384 . S
O372 C355 1.255 . S
O373 Eu353 2.366 . S
O373 C355 1.265 1_565 S
C374 O365 1.255 . S
C374 O366 1.265 1_565 S
O375 Tb352 2.479 . S
O375 C362 1.238 . S
O376 Tb352 2.471 . S
O376 C362 1.247 . S
C377 C380 1.380 . S
C377 C381 1.374 . S
C377 C383 1.507 . S
C378 C379 1.387 . S
C378 C382 1.391 . S
C379 C378 1.387 . S
C379 C380 1.384 . S
C379 H388 0.930 . S
C380 C377 1.380 . S
C380 C379 1.384 . S
C380 H389 0.931 . S
C381 C377 1.374 . S
C381 C382 1.390 . S
C381 H390 0.930 1_565 S
C382 C378 1.391 . S
C382 C381 1.390 . S
C382 H391 0.930 1_565 S
C383 Eu353 2.825 . S
C383 O368 1.238 . S
C383 O369 1.247 . S
C383 C377 1.507 . S
H384 C357 0.930 . S
H385 C358 0.931 . S
H386 C359 0.930 1_565 S
H387 C360 0.930 1_565 S
H388 C379 0.930 . S
H389 C380 0.931 . S
H390 C381 0.930 1_545 S
H391 C382 0.930 1_545 S
Tb392 C402 2.825 . S
Tb392 O403 2.347 . S
Tb392 O406 2.366 . S
Tb392 O411 2.418 . S
Tb392 O412 2.384 . S
Tb392 O415 2.479 . S
Tb392 O416 2.471 . S
Eu393 O404 2.418 . S
Eu393 O405 2.384 . S
Eu393 O408 2.479 . S
Eu393 O409 2.471 . S
Eu393 O410 2.347 . S
Eu393 O413 2.366 . S
Eu393 C423 2.825 . S
C394 O410 1.259 . S
C394 O411 1.265 . S
C395 O412 1.255 . S
C395 O413 1.265 . S
C396 C398 1.380 . S
C396 C399 1.374 . S
C396 C402 1.507 . S
C397 C398 1.384 1_554 S
C397 C401 1.387 . S
C397 H424 0.930 . S
C398 C396 1.380 . S
C398 C397 1.384 1_556 S
C398 H425 0.931 . S
C399 C396 1.374 . S
C399 C400 1.390 1_556 S
C399 H426 0.930 . S
C400 C399 1.390 1_554 S
C400 C401 1.391 . S
C400 H427 0.930 . S
C401 C397 1.387 . S
C401 C400 1.391 . S
C402 Tb392 2.825 . S
C402 C396 1.507 . S
C402 O415 1.238 . S
C402 O416 1.247 . S
O403 Tb392 2.347 . S
O403 C407 1.259 . S
O404 Eu393 2.418 . S
O404 C407 1.265 . S
O405 Eu393 2.384 . S
O405 C414 1.255 . S
O406 Tb392 2.366 . S
O406 C414 1.265 . S
C407 O403 1.259 . S
C407 O404 1.265 . S
O408 Eu393 2.479 . S
O408 C423 1.238 . S
O409 Eu393 2.471 . S
O409 C423 1.247 . S
O410 Eu393 2.347 . S
O410 C394 1.259 . S
O411 Tb392 2.418 . S
O411 C394 1.265 . S
O412 Tb392 2.384 . S
O412 C395 1.255 . S
O413 Eu393 2.366 . S
O413 C395 1.265 . S
C414 O405 1.255 . S
C414 O406 1.265 . S
O415 Tb392 2.479 . S
O415 C402 1.238 . S
O416 Tb392 2.471 . S
O416 C402 1.247 . S
C417 C420 1.380 . S
C417 C421 1.374 . S
C417 C423 1.507 . S
C418 C419 1.387 . S
C418 C422 1.391 . S
C419 C418 1.387 . S
C419 C420 1.384 . S
C419 H428 0.930 . S
C420 C417 1.380 . S
C420 C419 1.384 . S
C420 H429 0.931 . S
C421 C417 1.374 . S
C421 C422 1.390 . S
C421 H430 0.930 . S
C422 C418 1.391 . S
C422 C421 1.390 . S
C422 H431 0.930 . S
C423 Eu393 2.825 . S
C423 O408 1.238 . S
C423 O409 1.247 . S
C423 C417 1.507 . S
H424 C397 0.930 . S
H425 C398 0.931 . S
H426 C399 0.930 . S
H427 C400 0.930 . S
H428 C419 0.930 . S
H429 C420 0.931 . S
H430 C421 0.930 . S
H431 C422 0.930 . S
Tb432 C442 2.825 . S
Tb432 O443 2.347 . S
Tb432 O446 2.366 . S
Tb432 O451 2.418 . S
Tb432 O452 2.384 1_655 S
Tb432 O455 2.479 . S
Tb432 O456 2.471 . S
Eu433 O444 2.418 . S
Eu433 O445 2.384 1_455 S
Eu433 O448 2.479 . S
Eu433 O449 2.471 . S
Eu433 O450 2.347 . S
Eu433 O453 2.366 . S
Eu433 C463 2.825 . S
C434 O450 1.259 1_655 S
C434 O451 1.265 . S
C435 O452 1.255 . S
C435 O453 1.265 . S
C436 C438 1.380 . S
C436 C439 1.374 . S
C436 C442 1.507 . S
C437 C438 1.384 1_554 S
C437 C441 1.387 . S
C437 H464 0.930 . S
C438 C436 1.380 . S
C438 C437 1.384 1_556 S
C438 H465 0.931 . S
C439 C436 1.374 . S
C439 C440 1.390 1_556 S
C439 H466 0.930 . S
C440 C439 1.390 1_554 S
C440 C441 1.391 . S
C440 H467 0.930 . S
C441 C437 1.387 . S
C441 C440 1.391 . S
C442 Tb432 2.825 . S
C442 C436 1.507 . S
C442 O455 1.238 . S
C442 O456 1.247 . S
O443 Tb432 2.347 . S
O443 C447 1.259 1_655 S
O444 Eu433 2.418 . S
O444 C447 1.265 . S
O445 Eu433 2.384 1_655 S
O445 C454 1.255 . S
O446 Tb432 2.366 . S
O446 C454 1.265 . S
C447 O443 1.259 1_455 S
C447 O444 1.265 . S
O448 Eu433 2.479 . S
O448 C463 1.238 . S
O449 Eu433 2.471 . S
O449 C463 1.247 . S
O450 Eu433 2.347 . S
O450 C434 1.259 1_455 S
O451 Tb432 2.418 . S
O451 C434 1.265 . S
O452 Tb432 2.384 1_455 S
O452 C435 1.255 . S
O453 Eu433 2.366 . S
O453 C435 1.265 . S
C454 O445 1.255 . S
C454 O446 1.265 . S
O455 Tb432 2.479 . S
O455 C442 1.238 . S
O456 Tb432 2.471 . S
O456 C442 1.247 . S
C457 C460 1.380 . S
C457 C461 1.374 . S
C457 C463 1.507 . S
C458 C459 1.387 . S
C458 C462 1.391 . S
C459 C458 1.387 . S
C459 C460 1.384 . S
C459 H468 0.930 . S
C460 C457 1.380 . S
C460 C459 1.384 . S
C460 H469 0.931 . S
C461 C457 1.374 . S
C461 C462 1.390 . S
C461 H470 0.930 . S
C462 C458 1.391 . S
C462 C461 1.390 . S
C462 H471 0.930 . S
C463 Eu433 2.825 . S
C463 O448 1.238 . S
C463 O449 1.247 . S
C463 C457 1.507 . S
H464 C437 0.930 . S
H465 C438 0.931 . S
H466 C439 0.930 . S
H467 C440 0.930 . S
H468 C459 0.930 . S
H469 C460 0.931 . S
H470 C461 0.930 . S
H471 C462 0.930 . S
C472 C473 1.363 . S
C472 C478 1.379 . S
C472 N480 1.356 . S
C473 C472 1.363 . S
C473 C479 1.363 1_545 S
C474 C475 1.362 1_565 S
C474 C479 1.379 . S
C474 N481 1.356 . S
C475 C474 1.362 1_545 S
C475 C478 1.364 . S
N476 C478 1.356 . S
N476 H488 0.984 . S
N476 H489 0.985 . S
N477 C479 1.356 . S
N477 H482 0.984 . S
N477 H483 0.985 . S
C478 C472 1.379 . S
C478 C475 1.364 . S
C478 N476 1.356 . S
C479 C473 1.363 1_565 S
C479 C474 1.379 . S
C479 N477 1.356 . S
N480 C472 1.356 . S
N480 H486 0.984 . S
N480 H487 0.984 . S
N481 C474 1.356 . S
N481 H484 0.984 . S
N481 H485 0.985 . S
H482 N477 0.984 . S
H483 N477 0.985 . S
H484 N481 0.984 . S
H485 N481 0.985 . S
H486 N480 0.984 . S
H487 N480 0.984 . S
H488 N476 0.984 . S
H489 N476 0.985 . S
C490 C491 1.363 . S
C490 C496 1.379 . S
C490 N498 1.356 . S
C491 C490 1.363 . S
C491 C497 1.363 . S
C492 C493 1.363 . S
C492 C497 1.379 . S
C492 N499 1.356 . S
C493 C492 1.363 . S
C493 C496 1.363 . S
N494 C496 1.356 . S
N494 H506 0.984 . S
N494 H507 0.985 . S
N495 C497 1.356 . S
N495 H500 0.984 . S
N495 H501 0.985 . S
C496 C490 1.379 . S
C496 C493 1.363 . S
C496 N494 1.356 . S
C497 C491 1.363 . S
C497 C492 1.379 . S
C497 N495 1.356 . S
N498 C490 1.356 . S
N498 H504 0.984 . S
N498 H505 0.984 . S
N499 C492 1.356 . S
N499 H502 0.984 . S
N499 H503 0.985 . S
H500 N495 0.984 . S
H501 N495 0.985 . S
H502 N499 0.984 . S
H503 N499 0.985 . S
H504 N498 0.984 . S
H505 N498 0.984 . S
H506 N494 0.984 . S
H507 N494 0.985 . S
C508 C509 1.363 . S
C508 C514 1.379 . S
C508 N516 1.356 . S
C509 C508 1.363 . S
C509 C515 1.363 . S
C510 C511 1.363 . S
C510 C515 1.379 . S
C510 N517 1.356 . S
C511 C510 1.363 . S
C511 C514 1.363 . S
N512 C514 1.356 . S
N512 H524 0.984 . S
N512 H525 0.985 . S
N513 C515 1.356 . S
N513 H518 0.984 . S
N513 H519 0.985 . S
C514 C508 1.379 . S
C514 C511 1.363 . S
C514 N512 1.356 . S
C515 C509 1.363 . S
C515 C510 1.379 . S
C515 N513 1.356 . S
N516 C508 1.356 . S
N516 H522 0.984 . S
N516 H523 0.984 . S
N517 C510 1.356 . S
N517 H520 0.984 . S
N517 H521 0.985 . S
H518 N513 0.984 . S
H519 N513 0.985 . S
H520 N517 0.984 . S
H521 N517 0.985 . S
H522 N516 0.984 . S
H523 N516 0.984 . S
H524 N512 0.984 . S
H525 N512 0.985 . S
C526 C527 1.355 1_655 S
C526 C532 1.379 . S
C526 N534 1.356 . S
C527 C526 1.355 1_455 S
C527 C533 1.372 . S
C528 C529 1.363 . S
C528 C533 1.379 . S
C528 N535 1.356 . S
C529 C528 1.363 . S
C529 C532 1.363 1_455 S
N530 C532 1.356 . S
N530 H542 0.984 . S
N530 H543 0.985 . S
N531 C533 1.356 . S
N531 H536 0.984 . S
N531 H537 0.985 . S
C532 C526 1.379 . S
C532 C529 1.363 1_655 S
C532 N530 1.356 . S
C533 C527 1.372 . S
C533 C528 1.379 . S
C533 N531 1.356 . S
N534 C526 1.356 . S
N534 H540 0.984 . S
N534 H541 0.984 . S
N535 C528 1.356 . S
N535 H538 0.984 . S
N535 H539 0.985 . S
H536 N531 0.984 . S
H537 N531 0.985 . S
H538 N535 0.984 . S
H539 N535 0.985 . S
H540 N534 0.984 . S
H541 N534 0.984 . S
H542 N530 0.984 . S
H543 N530 0.985 . S
C544 C545 1.363 . S
C544 C550 1.379 . S
C544 N552 1.356 . S
C545 C544 1.363 . S
C545 C551 1.363 1_545 S
C546 C547 1.363 1_564 S
C546 C551 1.379 . S
C546 N553 1.356 1_554 S
C547 C546 1.363 1_546 S
C547 C550 1.363 1_556 S
N548 C550 1.356 1_556 S
N548 H560 0.984 . S
N548 H561 0.985 . S
N549 C551 1.356 . S
N549 H554 0.984 . S
N549 H555 0.985 . S
C550 C544 1.379 . S
C550 C547 1.363 1_554 S
C550 N548 1.356 1_554 S
C551 C545 1.363 1_565 S
C551 C546 1.379 . S
C551 N549 1.356 . S
N552 C544 1.356 . S
N552 H558 0.984 . S
N552 H559 0.984 . S
N553 C546 1.356 1_556 S
N553 H556 0.984 . S
N553 H557 0.985 1_556 S
H554 N549 0.984 . S
H555 N549 0.985 . S
H556 N553 0.984 . S
H557 N553 0.985 1_554 S
H558 N552 0.984 . S
H559 N552 0.984 . S
H560 N548 0.984 . S
H561 N548 0.985 . S
C562 C563 1.363 . S
C562 C568 1.379 . S
C562 N570 1.356 . S
C563 C562 1.363 . S
C563 C569 1.363 . S
C564 C565 1.365 . S
C564 C569 1.379 . S
C564 N571 1.356 . S
C565 C564 1.365 . S
C565 C568 1.364 . S
N566 C568 1.356 1_556 S
N566 H578 0.984 . S
N566 H579 0.985 . S
N567 C569 1.356 . S
N567 H572 0.984 . S
N567 H573 0.985 . S
C568 C562 1.379 . S
C568 C565 1.364 . S
C568 N566 1.356 1_554 S
C569 C563 1.363 . S
C569 C564 1.379 . S
C569 N567 1.356 . S
N570 C562 1.356 . S
N570 H576 0.984 . S
N570 H577 0.984 . S
N571 C564 1.356 . S
N571 H574 0.984 1_554 S
N571 H575 0.985 . S
H572 N567 0.984 . S
H573 N567 0.985 . S
H574 N571 0.984 1_556 S
H575 N571 0.985 . S
H576 N570 0.984 . S
H577 N570 0.984 . S
H578 N566 0.984 . S
H579 N566 0.985 . S
C580 C581 1.363 . S
C580 C586 1.379 . S
C580 N588 1.356 . S
C581 C580 1.363 . S
C581 C587 1.363 . S
C582 C583 1.363 1_554 S
C582 C587 1.379 . S
C582 N589 1.353 1_554 S
C583 C582 1.363 1_556 S
C583 C586 1.363 1_556 S
N584 C586 1.356 1_556 S
N584 H596 0.984 . S
N584 H597 0.985 . S
N585 C587 1.356 . S
N585 H590 0.984 . S
N585 H591 0.985 . S
C586 C580 1.379 . S
C586 C583 1.363 1_554 S
C586 N584 1.356 1_554 S
C587 C581 1.363 . S
C587 C582 1.379 . S
C587 N585 1.356 . S
N588 C580 1.356 . S
N588 H594 0.984 . S
N588 H595 0.984 . S
N589 C582 1.353 1_556 S
N589 H592 0.990 . S
N589 H593 0.983 1_556 S
H590 N585 0.984 . S
H591 N585 0.985 . S
H592 N589 0.990 . S
H593 N589 0.983 1_554 S
H594 N588 0.984 . S
H595 N588 0.984 . S
H596 N584 0.984 . S
H597 N584 0.985 . S
C598 C599 1.354 1_455 S
C598 C604 1.379 . S
C598 N606 1.356 . S
C599 C598 1.354 1_655 S
C599 C605 1.373 . S
C600 C601 1.363 1_554 S
C600 C605 1.379 . S
C600 N607 1.356 1_554 S
C601 C600 1.363 1_556 S
C601 C604 1.363 1_656 S
N602 C604 1.356 1_556 S
N602 H614 0.984 1_556 S
N602 H615 0.985 . S
N603 C605 1.356 . S
N603 H608 0.984 . S
N603 H609 0.985 . S
C604 C598 1.379 . S
C604 C601 1.363 1_454 S
C604 N602 1.356 1_554 S
C605 C599 1.373 . S
C605 C600 1.379 . S
C605 N603 1.356 . S
N606 C598 1.356 . S
N606 H612 0.984 . S
N606 H613 0.984 . S
N607 C600 1.356 1_556 S
N607 H610 0.984 . S
N607 H611 0.985 . S
H608 N603 0.984 . S
H609 N603 0.985 . S
H610 N607 0.984 . S
H611 N607 0.985 . S
H612 N606 0.984 . S
H613 N606 0.984 . S
H614 N602 0.984 1_554 S
H615 N602 0.985 . S
C616 C617 1.363 . S
C616 C622 1.351 1_455 S
C616 N624 1.390 . S
C617 C616 1.363 . S
C617 C623 1.354 1_455 S
C618 C619 1.363 . S
C618 C623 1.379 . S
C618 N625 1.356 . S
C619 C618 1.363 . S
C619 C622 1.363 . S
N620 C622 1.356 . S
N620 H632 0.984 . S
N620 H633 0.985 . S
N621 C623 1.356 . S
N621 H626 0.984 1_655 S
N621 H627 0.985 . S
C622 C616 1.351 1_655 S
C622 C619 1.363 . S
C622 N620 1.356 . S
C623 C617 1.354 1_655 S
C623 C618 1.379 . S
C623 N621 1.356 . S
N624 C616 1.390 . S
N624 H630 0.984 . S
N624 H631 0.984 . S
N625 C618 1.356 . S
N625 H628 0.984 . S
N625 H629 0.985 . S
H626 N621 0.984 1_455 S
H627 N621 0.985 . S
H628 N625 0.984 . S
H629 N625 0.985 . S
H630 N624 0.984 . S
H631 N624 0.984 . S
H632 N620 0.984 . S
H633 N620 0.985 . S
C634 C635 1.349 1_565 S
C634 C640 1.379 . S
C634 N642 1.356 . S
C635 C634 1.349 1_545 S
C635 C641 1.366 . S
C636 C637 1.363 . S
C636 C641 1.379 1_565 S
C636 N643 1.356 . S
C637 C636 1.363 . S
C637 C640 1.363 . S
N638 C640 1.356 . S
N638 H650 0.984 . S
N638 H651 0.985 . S
N639 C641 1.356 . S
N639 H644 0.984 . S
N639 H645 0.985 . S
C640 C634 1.379 . S
C640 C637 1.363 . S
C640 N638 1.356 . S
C641 C635 1.366 . S
C641 C636 1.379 1_545 S
C641 N639 1.356 . S
N642 C634 1.356 . S
N642 H648 0.984 . S
N642 H649 0.984 . S
N643 C636 1.356 . S
N643 H646 0.984 . S
N643 H647 1.005 . S
H644 N639 0.984 . S
H645 N639 0.985 . S
H646 N643 0.984 . S
H647 N643 1.005 . S
H648 N642 0.984 . S
H649 N642 0.984 . S
H650 N638 0.984 . S
H651 N638 0.985 . S
C652 C653 1.363 . S
C652 C658 1.379 . S
C652 N660 1.356 . S
C653 C652 1.363 . S
C653 C659 1.363 . S
C654 C655 1.363 . S
C654 C659 1.379 . S
C654 N661 1.356 . S
C655 C654 1.363 . S
C655 C658 1.363 . S
N656 C658 1.356 . S
N656 H668 0.984 . S
N656 H669 0.985 . S
N657 C659 1.356 . S
N657 H662 0.984 . S
N657 H663 0.985 . S
C658 C652 1.379 . S
C658 C655 1.363 . S
C658 N656 1.356 . S
C659 C653 1.363 . S
C659 C654 1.379 . S
C659 N657 1.356 . S
N660 C652 1.356 . S
N660 H666 0.984 . S
N660 H667 0.984 . S
N661 C654 1.356 . S
N661 H664 0.984 . S
N661 H665 0.985 . S
H662 N657 0.984 . S
H663 N657 0.985 . S
H664 N661 0.984 . S
H665 N661 0.985 . S
H666 N660 0.984 . S
H667 N660 0.984 . S
H668 N656 0.984 . S
H669 N656 0.985 . S
C670 C671 1.363 . S
C670 C676 1.379 . S
C670 N678 1.356 . S
C671 C670 1.363 . S
C671 C677 1.363 . S
C672 C673 1.363 . S
C672 C677 1.379 . S
C672 N679 1.356 . S
C673 C672 1.363 . S
C673 C676 1.363 . S
N674 C676 1.356 . S
N674 H686 0.984 . S
N674 H687 0.985 . S
N675 C677 1.356 . S
N675 H680 0.984 . S
N675 H681 0.985 . S
C676 C670 1.379 . S
C676 C673 1.363 . S
C676 N674 1.356 . S
C677 C671 1.363 . S
C677 C672 1.379 . S
C677 N675 1.356 . S
N678 C670 1.356 . S
N678 H684 0.984 . S
N678 H685 0.984 . S
N679 C672 1.356 . S
N679 H682 0.984 . S
N679 H683 0.985 . S
H680 N675 0.984 . S
H681 N675 0.985 . S
H682 N679 0.984 . S
H683 N679 0.985 . S
H684 N678 0.984 . S
H685 N678 0.984 . S
H686 N674 0.984 . S
H687 N674 0.985 . S
C688 C689 1.353 1_455 S
C688 C694 1.379 . S
C688 N696 1.356 . S
C689 C688 1.353 1_655 S
C689 C695 1.364 . S
C690 C691 1.363 . S
C690 C695 1.379 1_455 S
C690 N697 1.356 . S
C691 C690 1.363 . S
C691 C694 1.363 . S
N692 C694 1.356 . S
N692 H704 0.984 1_554 S
N692 H705 0.985 . S
N693 C695 1.356 . S
N693 H698 0.984 . S
N693 H699 0.985 . S
C694 C688 1.379 . S
C694 C691 1.363 . S
C694 N692 1.356 . S
C695 C689 1.364 . S
C695 C690 1.379 1_655 S
C695 N693 1.356 . S
N696 C688 1.356 . S
N696 H702 0.984 . S
N696 H703 0.984 . S
N697 C690 1.356 . S
N697 H700 0.984 . S
N697 H701 0.985 . S
H698 N693 0.984 . S
H699 N693 0.985 . S
H700 N697 0.984 . S
H701 N697 0.985 . S
H702 N696 0.984 . S
H703 N696 0.984 . S
H704 N692 0.984 1_556 S
H705 N692 0.985 . S
C706 C707 1.357 1_545 S
C706 C712 1.379 . S
C706 N714 1.356 . S
C707 C706 1.357 1_565 S
C707 C713 1.364 . S
C708 C709 1.363 . S
C708 C713 1.379 1_545 S
C708 N715 1.356 1_554 S
C709 C708 1.363 . S
C709 C712 1.363 . S
N710 C712 1.356 . S
N710 H722 0.984 . S
N710 H723 0.985 . S
N711 C713 1.356 . S
N711 H716 0.984 . S
N711 H717 0.985 1_554 S
C712 C706 1.379 . S
C712 C709 1.363 . S
C712 N710 1.356 . S
C713 C707 1.364 . S
C713 C708 1.379 1_565 S
C713 N711 1.356 . S
N714 C706 1.356 . S
N714 H720 0.984 . S
N714 H721 0.984 . S
N715 C708 1.356 1_556 S
N715 H718 0.984 . S
N715 H719 0.985 . S
H716 N711 0.984 . S
H717 N711 0.985 1_556 S
H718 N715 0.984 . S
H719 N715 0.985 . S
H720 N714 0.984 . S
H721 N714 0.984 . S
H722 N710 0.984 . S
H723 N710 0.985 . S
C724 C725 1.363 . S
C724 C730 1.379 . S
C724 N732 1.356 . S
C725 C724 1.363 . S
C725 C731 1.363 . S
C726 C727 1.363 . S
C726 C731 1.379 . S
C726 N733 1.356 . S
C727 C726 1.363 . S
C727 C730 1.363 . S
N728 C730 1.356 1_556 S
N728 H740 0.984 . S
N728 H741 0.985 . S
N729 C731 1.356 . S
N729 H734 0.984 . S
N729 H735 0.985 . S
C730 C724 1.379 . S
C730 C727 1.363 . S
C730 N728 1.356 1_554 S
C731 C725 1.363 . S
C731 C726 1.379 . S
C731 N729 1.356 . S
N732 C724 1.356 . S
N732 H738 0.984 1_554 S
N732 H739 0.984 . S
N733 C726 1.356 . S
N733 H736 0.984 . S
N733 H737 0.985 . S
H734 N729 0.984 . S
H735 N729 0.985 . S
H736 N733 0.984 . S
H737 N733 0.985 . S
H738 N732 0.984 1_556 S
H739 N732 0.984 . S
H740 N728 0.984 . S
H741 N728 0.985 . S
C742 C743 1.363 . S
C742 C748 1.379 . S
C742 N750 1.356 1_554 S
C743 C742 1.363 . S
C743 C749 1.363 . S
C744 C745 1.363 . S
C744 C749 1.379 . S
C744 N751 1.356 . S
C745 C744 1.363 . S
C745 C748 1.363 . S
N746 C748 1.356 1_556 S
N746 H758 0.984 . S
N746 H759 0.985 . S
N747 C749 1.356 . S
N747 H752 0.984 . S
N747 H753 0.985 . S
C748 C742 1.379 . S
C748 C745 1.363 . S
C748 N746 1.356 1_554 S
C749 C743 1.363 . S
C749 C744 1.379 . S
C749 N747 1.356 . S
N750 C742 1.356 1_556 S
N750 H756 0.984 . S
N750 H757 0.984 1_556 S
N751 C744 1.356 . S
N751 H754 0.984 . S
N751 H755 0.985 . S
H752 N747 0.984 . S
H753 N747 0.985 . S
H754 N751 0.984 . S
H755 N751 0.985 . S
H756 N750 0.984 . S
H757 N750 0.984 1_554 S
H758 N746 0.984 . S
H759 N746 0.985 . S
C760 C761 1.363 1_655 S
C760 C766 1.379 . S
C760 N768 1.356 . S
C761 C760 1.363 1_455 S
C761 C767 1.363 . S
C762 C763 1.363 . S
C762 C767 1.379 . S
C762 N769 1.356 . S
C763 C762 1.363 . S
C763 C766 1.363 1_455 S
N764 C766 1.356 . S
N764 H776 0.984 . S
N764 H777 0.985 . S
N765 C767 1.356 . S
N765 H770 0.984 . S
N765 H771 0.985 . S
C766 C760 1.379 . S
C766 C763 1.363 1_655 S
C766 N764 1.356 . S
C767 C761 1.363 . S
C767 C762 1.379 . S
C767 N765 1.356 . S
N768 C760 1.356 . S
N768 H774 0.984 . S
N768 H775 0.984 . S
N769 C762 1.356 . S
N769 H772 0.984 . S
N769 H773 0.985 . S
H770 N765 0.984 . S
H771 N765 0.985 . S
H772 N769 0.984 . S
H773 N769 0.985 . S
H774 N768 0.984 . S
H775 N768 0.984 . S
H776 N764 0.984 . S
H777 N764 0.985 . S
C778 C779 1.363 . S
C778 C784 1.379 . S
C778 N786 1.356 . S
C779 C778 1.363 . S
C779 C785 1.363 . S
C780 C781 1.363 . S
C780 C785 1.379 . S
C780 N787 1.356 . S
C781 C780 1.363 . S
C781 C784 1.363 . S
N782 C784 1.356 . S
N782 H794 0.984 . S
N782 H795 0.985 . S
N783 C785 1.352 1_565 S
N783 H788 0.986 . S
N783 H789 0.989 . S
C784 C778 1.379 . S
C784 C781 1.363 . S
C784 N782 1.356 . S
C785 C779 1.363 . S
C785 C780 1.379 . S
C785 N783 1.352 1_545 S
N786 C778 1.356 . S
N786 H792 0.984 . S
N786 H793 0.984 . S
N787 C780 1.356 . S
N787 H790 0.984 . S
N787 H791 0.985 . S
H788 N783 0.986 . S
H789 N783 0.989 . S
H790 N787 0.984 . S
H791 N787 0.985 . S
H792 N786 0.984 . S
H793 N786 0.984 . S
H794 N782 0.984 . S
H795 N782 0.985 . S
C796 C797 1.363 . S
C796 C802 1.379 . S
C796 N804 1.356 . S
C797 C796 1.363 . S
C797 C803 1.363 . S
C798 C799 1.363 . S
C798 C803 1.379 . S
C798 N805 1.356 . S
C799 C798 1.363 . S
C799 C802 1.363 . S
N800 C802 1.356 . S
N800 H812 0.984 . S
N800 H813 0.985 . S
N801 C803 1.356 . S
N801 H806 0.984 . S
N801 H807 0.985 . S
C802 C796 1.379 . S
C802 C799 1.363 . S
C802 N800 1.356 . S
C803 C797 1.363 . S
C803 C798 1.379 . S
C803 N801 1.356 . S
N804 C796 1.356 . S
N804 H810 0.984 . S
N804 H811 0.984 . S
N805 C798 1.356 . S
N805 H808 0.984 . S
N805 H809 0.985 . S
H806 N801 0.984 . S
H807 N801 0.985 . S
H808 N805 0.984 . S
H809 N805 0.985 . S
H810 N804 0.984 . S
H811 N804 0.984 . S
H812 N800 0.984 . S
H813 N800 0.985 . S
C814 C815 1.363 . S
C814 C820 1.379 . S
C814 N822 1.356 . S
C815 C814 1.363 . S
C815 C821 1.363 . S
C816 C817 1.363 . S
C816 C821 1.379 . S
C816 N823 1.356 . S
C817 C816 1.363 . S
C817 C820 1.363 . S
N818 C820 1.356 . S
N818 H830 0.984 . S
N818 H831 0.985 . S
N819 C821 1.356 . S
N819 H824 0.984 . S
N819 H825 0.985 . S
C820 C814 1.379 . S
C820 C817 1.363 . S
C820 N818 1.356 . S
C821 C815 1.363 . S
C821 C816 1.379 . S
C821 N819 1.356 . S
N822 C814 1.356 . S
N822 H828 0.984 . S
N822 H829 0.984 . S
N823 C816 1.356 . S
N823 H826 0.984 . S
N823 H827 0.985 . S
H824 N819 0.984 . S
H825 N819 0.985 . S
H826 N823 0.984 . S
H827 N823 0.985 . S
H828 N822 0.984 . S
H829 N822 0.984 . S
H830 N818 0.984 . S
H831 N818 0.985 . S
C832 C833 1.363 . S
C832 C838 1.379 . S
C832 N840 1.356 . S
C833 C832 1.363 . S
C833 C839 1.363 . S
C834 C835 1.363 . S
C834 C839 1.379 . S
C834 N841 1.356 . S
C835 C834 1.363 . S
C835 C838 1.363 . S
N836 C838 1.356 . S
N836 H848 0.984 . S
N836 H849 0.985 . S
N837 C839 1.356 . S
N837 H842 0.987 . S
N837 H843 0.985 . S
C838 C832 1.379 . S
C838 C835 1.363 . S
C838 N836 1.356 . S
C839 C833 1.363 . S
C839 C834 1.379 . S
C839 N837 1.356 . S
N840 C832 1.356 . S
N840 H846 0.984 . S
N840 H847 0.984 . S
N841 C834 1.356 . S
N841 H844 0.984 . S
N841 H845 0.985 . S
H842 N837 0.987 . S
H843 N837 0.985 . S
H844 N841 0.984 . S
H845 N841 0.985 . S
H846 N840 0.984 . S
H847 N840 0.984 . S
H848 N836 0.984 . S
H849 N836 0.985 . S
C850 C851 1.363 . S
C850 C856 1.379 . S
C850 N858 1.356 . S
C851 C850 1.363 . S
C851 C857 1.363 1_565 S
C852 C853 1.363 1_545 S
C852 C857 1.379 . S
C852 N859 1.356 . S
C853 C852 1.363 1_565 S
C853 C856 1.363 . S
N854 C856 1.356 . S
N854 H866 0.984 . S
N854 H867 0.985 . S
N855 C857 1.356 . S
N855 H860 0.984 . S
N855 H861 0.985 . S
C856 C850 1.379 . S
C856 C853 1.363 . S
C856 N854 1.356 . S
C857 C851 1.363 1_545 S
C857 C852 1.379 . S
C857 N855 1.356 . S
N858 C850 1.356 . S
N858 H864 0.984 . S
N858 H865 0.984 . S
N859 C852 1.356 . S
N859 H862 0.984 . S
N859 H863 0.985 . S
H860 N855 0.984 . S
H861 N855 0.985 . S
H862 N859 0.984 . S
H863 N859 0.985 . S
H864 N858 0.984 . S
H865 N858 0.984 . S
H866 N854 0.984 . S
H867 N854 0.985 . S
C868 C869 1.363 . S
C868 C874 1.379 . S
C868 N876 1.356 . S
C869 C868 1.363 . S
C869 C875 1.363 . S
C870 C871 1.363 . S
C870 C875 1.379 . S
C870 N877 1.356 . S
C871 C870 1.363 . S
C871 C874 1.363 . S
N872 C874 1.356 . S
N872 H884 0.984 . S
N872 H885 0.985 . S
N873 C875 1.356 . S
N873 H878 0.984 . S
N873 H879 0.985 . S
C874 C868 1.379 . S
C874 C871 1.363 . S
C874 N872 1.356 . S
C875 C869 1.363 . S
C875 C870 1.379 . S
C875 N873 1.356 . S
N876 C868 1.356 . S
N876 H882 0.984 . S
N876 H883 0.984 . S
N877 C870 1.356 . S
N877 H880 0.984 . S
N877 H881 0.985 . S
H878 N873 0.984 . S
H879 N873 0.985 . S
H880 N877 0.984 . S
H881 N877 0.985 . S
H882 N876 0.984 . S
H883 N876 0.984 . S
H884 N872 0.984 . S
H885 N872 0.985 . S
C886 C887 1.363 . S
C886 C892 1.379 . S
C886 N894 1.356 . S
C887 C886 1.363 . S
C887 C893 1.363 . S
C888 C889 1.363 . S
C888 C893 1.379 . S
C888 N895 1.356 . S
C889 C888 1.363 . S
C889 C892 1.363 . S
N890 C892 1.356 . S
N890 H902 0.984 . S
N890 H903 0.985 . S
N891 C893 1.356 . S
N891 H896 0.984 . S
N891 H897 0.985 . S
C892 C886 1.379 . S
C892 C889 1.363 . S
C892 N890 1.356 . S
C893 C887 1.363 . S
C893 C888 1.379 . S
C893 N891 1.356 . S
N894 C886 1.356 . S
N894 H900 0.984 . S
N894 H901 0.984 . S
N895 C888 1.356 . S
N895 H898 0.984 . S
N895 H899 0.985 . S
H896 N891 0.984 . S
H897 N891 0.985 . S
H898 N895 0.984 . S
H899 N895 0.985 . S
H900 N894 0.984 . S
H901 N894 0.984 . S
H902 N890 0.984 . S
H903 N890 0.985 . S
C473 C255 2.539 1_545 S
C475 C314 2.856 1_545 S
C493 C354 2.889 . S
C491 C294 2.533 . S
C511 C394 2.881 . S
C509 C177 2.572 . S
C529 C434 2.866 1_455 S
C527 C216 2.551 1_455 S
C547 C327 2.857 . S
C545 C99 2.541 1_545 S
C563 C138 2.540 . S
C565 C367 2.887 1_554 S
C581 C21 2.567 . S
C583 C407 2.880 . S
C599 C60 2.551 . S
C601 C447 2.867 1_655 S
C619 C338 0.740 . S
C617 C196 0.737 1_455 S
C637 C378 0.735 . S
C635 C235 0.735 1_545 S
C655 C418 0.690 . S
C653 C289 0.692 . S
C671 C157 0.699 . S
C673 C458 0.694 . S
C689 C40 0.740 . S
C691 C321 0.743 . S
C709 C361 0.735 . S
C707 C79 0.735 . S
C727 C401 0.690 . S
C725 C133 0.691 . S
C743 C1 0.698 . S
C745 C441 0.702 . S
C761 C211 3.207 . S
C763 C315 3.711 . S
C779 C250 3.164 . S
C781 C355 3.676 . S
C799 C395 3.673 . S
C797 C274 3.165 . S
C817 C435 3.702 . S
C815 C172 3.186 . S
C833 C55 3.208 1_655 S
C835 C334 3.720 . S
C853 C374 3.676 . S
C851 C94 3.164 1_565 S
C871 C414 3.674 . S
C869 C118 3.169 . S
C887 C16 3.192 . S
C889 C454 3.707 . S
