# Generated by pormake.
# Topology scu, (8,4)-cn, num edge types: 1
# Building blocks:
#     Node 0, Type 0, BuildingBlock: GIZVER_clean_sbu_0, # of connection points: 8
#     Node 1, Type 1, BuildingBlock: IZENUY_clean_linker_0, # of connection points: 4
#     Node 2, Type 1, BuildingBlock: IZENUY_clean_linker_0, # of connection points: 4
#     Edge 3, Type (0, 1), BuildingBlock: XUDNAN_clean_linker_2, # of connection points: 2
#     Edge 4, Type (0, 1), BuildingBlock: XUDNAN_clean_linker_2, # of connection points: 2
#     Edge 5, Type (0, 1), BuildingBlock: XUDNAN_clean_linker_2, # of connection points: 2
#     Edge 6, Type (0, 1), BuildingBlock: XUDNAN_clean_linker_2, # of connection points: 2
#     Edge 7, Type (0, 1), BuildingBlock: XUDNAN_clean_linker_2, # of connection points: 2
#     Edge 8, Type (0, 1), BuildingBlock: XUDNAN_clean_linker_2, # of connection points: 2
#     Edge 9, Type (0, 1), BuildingBlock: XUDNAN_clean_linker_2, # of connection points: 2
#     Edge 10, Type (0, 1), BuildingBlock: XUDNAN_clean_linker_2, # of connection points: 2
# Relax obj value: 0.121
# Max RMSD: 0.250
# Mean RMSD: 0.211
data_MOF--net-scu--node1-GIZVER_clean_sbu_0--node2-IZENUY_clean_linker_0--edge1-XUDNAN_clean_linker_2
_symmetry_space_group_name_H-M    P1
_symmetry_Int_Tables_number       1
_symmetry_cell_setting            triclinic
loop_
_symmetry_equiv_pos_as_xyz
'x, y, z'
_cell_length_a     26.852873
_cell_length_b     27.546322
_cell_length_c     21.862916
_cell_angle_alpha  100.75529
_cell_angle_beta   80.927808
_cell_angle_gamma 110.47143
loop_
_atom_site_label
_atom_site_type_symbol
_atom_site_fract_x
_atom_site_fract_y
_atom_site_fract_z
_atom_type_partial_charge
Co0 Co 0.05283 0.98058 0.12338 0.0
Co1 Co 0.13309 0.05787 0.08773 0.0
Co2 Co 0.03905 0.04206 1.00759 0.0
O3 O 0.07866 1.00853 0.04581 0.0
H4 H 0.09305 0.98556 0.01496 0.0
O5 O 0.99885 0.07505 0.96955 0.0
Co6 Co 1.01924 0.09705 0.88885 0.0
Co7 Co 0.94036 1.02345 0.93699 0.0
H8 H 0.98669 0.10003 0.99966 0.0
O9 O 0.19248 0.04173 0.09015 0.0
O10 O 0.11907 1.02966 0.1609 0.0
O11 O 0.1324 0.12809 0.1089 0.0
O12 O 0.05539 0.10914 0.06919 0.0
O13 O 0.10505 0.0716 0.95235 0.0
O14 O 1.03471 0.12271 0.81669 0.0
O15 O 0.98113 0.14153 0.90103 0.0
O16 O 0.0652 0.05555 0.86564 0.0
O17 O 1.02223 0.97588 0.94492 0.0
O18 O 0.9356 0.95124 0.93451 0.0
O19 O 0.95712 0.0381 0.85539 0.0
O20 O 0.88237 0.0382 0.9197 0.0
C21 C 0.05967 0.92132 0.1633 0.0
C22 C 0.9726 1.0234 0.12253 0.0
C23 C 0.09234 0.14002 0.1021 0.0
C24 C 0.16707 1.02689 0.14279 0.0
C25 C 1.00416 0.14959 0.84484 0.0
C26 C 0.1062 0.06208 0.89296 0.0
C27 C 0.97901 0.94134 0.92741 0.0
C28 C 0.90807 0.03852 0.86416 0.0
O29 O 1.03179 0.95053 0.19232 0.0
O30 O 0.08357 0.92954 0.10741 0.0
O31 O 0.97353 1.01219 0.06321 0.0
O32 O 1.01334 1.0289 0.15008 0.0
H33 H 0.03803 0.46874 0.42108 0.0
H34 H 1.00948 0.46687 0.62041 0.0
H35 H 1.01911 0.32909 0.49542 0.0
H36 H 1.01994 0.61218 0.60189 0.0
H37 H 0.05417 0.61526 0.40335 0.0
H38 H 0.04697 0.75417 0.52816 0.0
N39 N 1.02548 0.52733 0.53339 0.0
N40 N 0.03514 0.55425 0.49009 0.0
C41 C 1.03073 0.4482 0.46101 0.0
C42 C 1.0302 0.39618 0.45145 0.0
C43 C 1.02321 0.47397 0.52213 0.0
C44 C 1.01451 0.4468 0.57347 0.0
C45 C 1.01387 0.39459 0.56446 0.0
C46 C 1.02116 0.36977 0.50319 0.0
C47 C 1.02917 0.63326 0.56214 0.0
C48 C 1.03254 0.68615 0.57195 0.0
C49 C 0.03788 0.60775 0.50131 0.0
C50 C 0.049 0.63549 0.45016 0.0
C51 C 0.05181 0.68837 0.45902 0.0
C52 C 0.04452 0.71341 0.52039 0.0
H53 H 0.61785 0.06058 0.41808 0.0
H54 H 0.61036 1.02927 0.60623 0.0
H55 H 0.75532 0.04911 0.48421 0.0
H56 H 0.46444 0.04416 0.59466 0.0
H57 H 0.4618 1.01642 0.39452 0.0
H58 H 0.31543 0.99622 0.51481 0.0
N59 N 0.55221 0.03943 0.52558 0.0
N60 N 0.52497 1.03594 0.48264 0.0
C61 C 0.63698 0.05532 0.45524 0.0
C62 C 0.69105 0.05808 0.44448 0.0
C63 C 0.60765 0.04535 0.51405 0.0
C64 C 0.63293 0.03814 0.56168 0.0
C65 C 0.68606 0.03891 0.5504 0.0
C66 C 0.7146 0.04963 0.49253 0.0
C67 C 0.44225 1.03256 0.55406 0.0
C68 C 0.38676 1.02345 0.56191 0.0
C69 C 0.46918 1.02835 0.4932 0.0
C70 C 0.44044 1.01687 0.44088 0.0
C71 C 0.38489 1.00672 0.44827 0.0
C72 C 0.35861 1.0073 0.50881 0.0
H73 H 0.13599 0.19235 0.21006 0.0
H74 H 1.02765 0.19279 0.08263 0.0
H75 H 1.00606 0.26536 0.15399 0.0
H76 H 0.05229 0.20855 0.34545 0.0
H77 H 0.10527 0.24851 0.39276 0.0
H78 H 0.11777 0.2021 0.32784 0.0
H79 H 0.19575 0.2761 0.2806 0.0
H80 H 0.18377 0.32285 0.34567 0.0
H81 H 0.18378 0.33341 0.26674 0.0
H82 H 0.99183 0.3342 0.24384 0.0
H83 H 0.98275 0.38901 0.34603 0.0
H84 H 0.09814 0.34004 0.41439 0.0
C85 C 0.10896 0.20871 0.19611 0.0
C86 C 0.08428 0.18759 0.14018 0.0
C87 C 0.04753 0.20884 0.12491 0.0
C88 C 0.03508 0.25007 0.16512 0.0
C89 C 0.05943 0.26932 0.22056 0.0
C90 C 0.09549 0.24913 0.23605 0.0
C91 C 0.11218 0.27275 0.30089 0.0
C92 C 0.09589 0.23046 0.34427 0.0
C93 C 0.17245 0.30309 0.29829 0.0
C94 C 0.07977 0.30926 0.31973 0.0
C95 C 0.04996 0.3073 0.2727 0.0
C96 C 1.01538 0.33636 0.28074 0.0
C97 C 1.01061 0.36751 0.33871 0.0
C98 C 0.03972 0.36866 0.3879 0.0
C99 C 0.07531 0.33979 0.37759 0.0
H100 H 0.96371 0.08195 0.23797 0.0
H101 H 0.87145 0.98315 0.08789 0.0
H102 H 0.78903 0.99345 0.14786 0.0
H103 H 0.87271 1.03518 0.36235 0.0
H104 H 0.88409 0.09763 0.41137 0.0
H105 H 0.93613 0.0866 0.35378 0.0
H106 H 0.94204 0.16767 0.30532 0.0
H107 H 0.88954 0.17871 0.36265 0.0
H108 H 0.88287 0.17162 0.28041 0.0
H109 H 0.7155 1.00384 0.23006 0.0
H110 H 0.6577 1.01316 0.32812 0.0
H111 H 0.79741 0.11346 0.42038 0.0
C112 C 0.92619 0.06291 0.21761 0.0
C113 C 0.92392 1.03148 0.1585 0.0
C114 C 0.87415 1.00749 0.13312 0.0
C115 C 0.8271 1.01328 0.16669 0.0
C116 C 0.83053 0.04425 0.22501 0.0
C117 C 0.87889 0.06919 0.24997 0.0
C118 C 0.87123 0.09814 0.31488 0.0
C119 C 0.89226 0.07816 0.36343 0.0
C120 C 0.898 0.15756 0.31585 0.0
C121 C 0.8108 0.08309 0.3238 0.0
C122 C 0.78803 0.05248 0.2712 0.0
C123 C 0.73277 1.02886 0.27107 0.0
C124 C 0.70008 1.0347 0.32696 0.0
C125 C 0.72281 0.06394 0.38218 0.0
C126 C 0.77867 0.09065 0.37911 0.0
H127 H 1.00882 0.8925 0.27558 0.0
H128 H 0.12503 0.86049 0.12613 0.0
H129 H 0.13583 0.79614 0.18429 0.0
H130 H 0.07465 0.88571 0.40187 0.0
H131 H 1.01322 0.8559 0.44799 0.0
H132 H 1.01469 0.89833 0.39379 0.0
H133 H 0.93801 0.82461 0.3393 0.0
H134 H 0.93621 0.78198 0.39339 0.0
H135 H 0.94556 0.76159 0.31035 0.0
H136 H 0.13348 0.73497 0.26179 0.0
H137 H 0.11917 0.68487 0.3498 0.0
H138 H 1.00311 0.75764 0.44509 0.0
C139 C 0.03646 0.87191 0.25464 0.0
C140 C 0.0658 0.88133 0.19594 0.0
C141 C 0.10171 0.85358 0.17073 0.0
C142 C 0.1082 0.81708 0.20356 0.0
C143 C 0.07847 0.80881 0.26145 0.0
C144 C 0.04332 0.8356 0.28656 0.0
C145 C 1.01628 0.82051 0.34959 0.0
C146 C 1.03058 0.86793 0.40135 0.0
C147 C 0.95541 0.79569 0.34802 0.0
C148 C 0.0413 0.78067 0.35626 0.0
C149 C 0.0772 0.77434 0.30523 0.0
C150 C 0.10532 0.73965 0.3018 0.0
C151 C 0.09669 0.71108 0.35189 0.0
C152 C 0.06022 0.71735 0.4048 0.0
C153 C 1.03204 0.75243 0.40616 0.0
H154 H 0.16628 0.04447 0.27045 0.0
H155 H 0.23087 0.96767 0.10136 0.0
H156 H 0.2882 0.9463 0.16271 0.0
H157 H 0.28596 0.10715 0.33266 0.0
H158 H 0.2607 0.10103 0.41328 0.0
H159 H 0.21726 0.10139 0.35879 0.0
H160 H 0.15063 1.01219 0.38604 0.0
H161 H 0.19371 1.01183 0.4413 0.0
H162 H 0.17398 0.95741 0.37985 0.0
H163 H 0.34601 0.94226 0.24034 0.0
H164 H 0.39833 0.95458 0.32894 0.0
H165 H 0.30082 0.04065 0.44454 0.0
C166 C 0.19124 1.02167 0.24692 0.0
C167 C 0.19413 1.00739 0.18149 0.0
C168 C 0.22826 0.97889 0.15166 0.0
C169 C 0.26078 0.96641 0.18609 0.0
C170 C 0.25889 0.98298 0.2503 0.0
C171 C 0.22476 1.00973 0.28055 0.0
C172 C 0.23451 1.02792 0.34864 0.0
C173 C 0.25058 0.08792 0.3642 0.0
C174 C 0.18529 1.00071 0.39149 0.0
C175 C 0.2807 1.00907 0.35116 0.0
C176 C 0.29351 0.98227 0.29446 0.0
C177 C 0.33602 0.96276 0.28526 0.0
C178 C 0.36595 0.97049 0.33563 0.0
C179 C 0.35367 0.99816 0.39419 0.0
C180 C 0.31059 1.0179 0.40127 0.0
H181 H 0.06032 0.93021 0.8407 0.0
H182 H 0.90265 0.84428 0.92079 0.0
H183 H 0.90407 0.7656 0.84502 0.0
H184 H 1.0347 0.88169 0.68611 0.0
H185 H 0.10083 0.87942 0.65839 0.0
H186 H 0.09147 0.92581 0.72504 0.0
H187 H 0.13849 0.88974 0.79139 0.0
H188 H 0.14838 0.84318 0.72492 0.0
H189 H 0.11455 0.8208 0.79761 0.0
H190 H 0.92031 0.69846 0.7562 0.0
H191 H 0.94626 0.65036 0.65605 0.0
H192 H 0.09067 0.78238 0.62977 0.0
C193 C 1.02681 0.89431 0.84348 0.0
C194 C 0.98179 0.89272 0.88736 0.0
C195 C 0.93772 0.84585 0.88799 0.0
C196 C 0.9383 0.80107 0.8453 0.0
C197 C 0.98293 0.80417 0.80179 0.0
C198 C 1.02622 0.84976 0.80028 0.0
C199 C 0.06647 0.84487 0.74453 0.0
C200 C 0.07375 0.88533 0.70096 0.0
C201 C 0.12015 0.84993 0.76592 0.0
C202 C 0.03866 0.78962 0.71427 0.0
C203 C 0.99108 0.76645 0.7487 0.0
C204 C 0.95767 0.71604 0.72914 0.0
C205 C 0.97281 0.68893 0.67238 0.0
C206 C 1.02048 0.7126 0.63538 0.0
C207 C 0.05403 0.76334 0.6572 0.0
H208 H 0.13995 0.08063 0.77293 0.0
H209 H 0.18226 1.02988 0.92778 0.0
H210 H 0.26284 1.01835 0.86261 0.0
H211 H 0.1812 0.99422 0.65082 0.0
H212 H 0.20664 0.04161 0.59702 0.0
H213 H 0.15309 0.04569 0.65646 0.0
H214 H 0.2087 0.14119 0.69686 0.0
H215 H 0.26254 0.1374 0.6376 0.0
H216 H 0.27474 0.15493 0.71886 0.0
H217 H 0.33677 1.00726 0.7754 0.0
H218 H 0.39616 1.00024 0.67711 0.0
H219 H 0.30845 0.06792 0.58677 0.0
C220 C 0.16618 0.06712 0.79318 0.0
C221 C 0.15489 0.05595 0.85516 0.0
C222 C 0.19042 0.03884 0.88028 0.0
C223 C 0.23619 1.03213 0.84363 0.0
C224 C 0.24628 0.04368 0.78248 0.0
C225 C 0.21238 0.06135 0.75789 0.0
C226 C 0.23183 0.07156 0.6914 0.0
C227 C 0.19076 1.03615 0.64628 0.0
C228 C 0.24526 0.12973 0.68589 0.0
C229 C 0.2816 0.05626 0.68188 0.0
C230 C 0.28943 0.03985 0.73442 0.0
C231 C 0.33131 1.02068 0.73425 0.0
C232 C 0.36509 1.01713 0.67841 0.0
C233 C 0.35673 1.03291 0.62388 0.0
C234 C 0.31552 0.05445 0.62705 0.0
H235 H 0.05799 0.18439 0.73618 0.0
H236 H 0.93257 0.20367 0.88025 0.0
H237 H 0.92224 0.27077 0.82643 0.0
H238 H 0.11845 0.31907 0.71646 0.0
H239 H 0.13361 0.30527 0.63308 0.0
H240 H 0.1301 0.25859 0.68269 0.0
H241 H 0.05929 0.18672 0.61772 0.0
H242 H 0.06277 0.23307 0.56769 0.0
H243 H 0.99942 0.19823 0.6067 0.0
H244 H 0.92686 0.3371 0.75493 0.0
H245 H 0.9433 0.39235 0.67144 0.0
H246 H 0.06746 0.3297 0.57816 0.0
C247 C 1.02815 0.20249 0.75653 0.0
C248 C 0.99617 0.18881 0.81261 0.0
C249 C 0.95774 0.21369 0.83751 0.0
C250 C 0.95161 0.25185 0.80725 0.0
C251 C 0.98438 0.26483 0.75233 0.0
C252 C 1.02178 0.24063 0.72729 0.0
C253 C 0.05221 0.26111 0.66792 0.0
C254 C 0.11213 0.28759 0.67553 0.0
C255 C 0.04284 0.21717 0.6117 0.0
C256 C 1.02619 0.30067 0.66314 0.0
C257 C 0.98717 0.30251 0.71209 0.0
C258 C 0.95744 0.33595 0.71652 0.0
C259 C 0.9673 0.36749 0.66915 0.0
C260 C 1.00644 0.36524 0.61796 0.0
C261 C 0.03668 0.33191 0.61603 0.0
H262 H 0.83751 0.08771 0.85456 0.0
H263 H 0.91379 0.97716 0.7529 0.0
H264 H 0.85842 0.95997 0.66598 0.0
H265 H 0.70593 1.02206 0.80773 0.0
H266 H 0.69442 0.08064 0.79767 0.0
H267 H 0.73883 0.08375 0.85316 0.0
H268 H 0.8153 0.15457 0.79894 0.0
H269 H 0.77085 0.15248 0.74407 0.0
H270 H 0.83358 0.14186 0.7161 0.0
H271 H 0.79242 0.95109 0.59383 0.0
H272 H 0.73163 0.96325 0.52909 0.0
H273 H 0.70206 0.08478 0.67243 0.0
C274 C 0.84247 0.06005 0.81377 0.0
C275 C 0.87932 1.03328 0.81019 0.0
C276 C 0.88575 0.99805 0.75606 0.0
C277 C 0.85419 0.98771 0.7069 0.0
C278 C 0.8173 1.0138 0.71231 0.0
C279 C 0.81225 0.05031 0.76345 0.0
C280 C 0.77219 0.07551 0.75516 0.0
C281 C 0.72505 0.06483 0.8065 0.0
C282 C 0.79961 0.1346 0.75345 0.0
C283 C 0.75483 0.04671 0.69179 0.0
C284 C 0.78092 1.01076 0.66864 0.0
C285 C 0.77206 0.97936 0.61111 0.0
C286 C 0.73734 0.98639 0.57489 0.0
C287 C 0.71248 1.02504 0.59582 0.0
C288 C 0.72014 0.0546 0.6558 0.0
loop_
_geom_bond_atom_site_label_1
_geom_bond_atom_site_label_2
_geom_bond_distance
_geom_bond_site_symmetry_2
_ccdc_geom_bond_type
Co0 O3 2.042 . S
Co0 O10 2.264 1_565 S
Co0 O29 2.286 1_455 S
Co0 O30 2.069 . S
Co0 O32 2.015 1_455 S
Co1 O3 2.122 1_545 S
Co1 O9 2.073 . S
Co1 O10 2.327 . S
Co1 O11 1.976 . S
Co2 O3 2.086 1_545 S
Co2 O5 2.087 1_454 S
Co2 O12 2.117 . S
Co2 O13 2.147 1_554 S
Co2 O17 2.105 1_444 S
Co2 O31 2.140 1_445 S
O3 Co0 2.042 . S
O3 Co1 2.122 1_565 S
O3 Co2 2.086 1_565 S
O3 H4 0.980 . S
H4 O3 0.980 . S
O5 Co2 2.087 1_656 S
O5 Co6 2.042 . S
O5 Co7 2.122 1_545 S
O5 H8 0.980 . S
Co6 O5 2.042 . S
Co6 O14 2.286 1_655 S
Co6 O15 2.069 . S
Co6 O16 2.015 1_655 S
Co6 O19 2.259 1_545 S
Co7 O5 2.122 1_565 S
Co7 O18 1.976 . S
Co7 O19 2.337 . S
Co7 O20 2.073 . S
H8 O5 0.980 . S
O9 Co1 2.073 . S
O9 C24 1.245 1_545 S
O10 Co0 2.264 1_545 S
O10 Co1 2.327 . S
O10 C24 1.257 1_545 S
O11 Co1 1.976 . S
O11 C23 1.251 . S
O12 Co2 2.117 . S
O12 C23 1.274 . S
O13 Co2 2.147 1_556 S
O13 C26 1.246 . S
O14 Co6 2.286 1_455 S
O14 C25 1.259 1_455 S
O15 Co6 2.069 . S
O15 C25 1.289 . S
O16 Co6 2.015 1_455 S
O16 C26 1.257 . S
O17 Co2 2.105 1_666 S
O17 C27 1.274 . S
O18 Co7 1.976 . S
O18 C27 1.251 . S
O19 Co6 2.259 1_565 S
O19 Co7 2.337 . S
O19 C28 1.251 1_565 S
O20 Co7 2.073 . S
O20 C28 1.245 1_565 S
C21 O29 1.259 1_455 S
C21 O30 1.289 . S
C22 O31 1.246 . S
C22 O32 1.257 . S
C23 O11 1.251 . S
C23 O12 1.274 . S
C24 O9 1.245 1_565 S
C24 O10 1.257 1_565 S
C25 O14 1.259 1_655 S
C25 O15 1.289 . S
C26 O13 1.246 . S
C26 O16 1.257 . S
C27 O17 1.274 . S
C27 O18 1.251 . S
C28 O19 1.251 1_545 S
C28 O20 1.245 1_545 S
O29 Co0 2.286 1_655 S
O29 C21 1.259 1_655 S
O30 Co0 2.069 . S
O30 C21 1.289 . S
O31 Co2 2.140 1_665 S
O31 C22 1.246 . S
O32 Co0 2.015 1_655 S
O32 C22 1.257 . S
H33 C41 0.940 . S
H34 C44 0.940 . S
H35 C46 0.940 . S
H36 C47 0.940 . S
H37 C50 0.940 . S
H38 C52 0.940 . S
N39 N40 1.190 . S
N39 C43 1.477 . S
N40 N39 1.190 . S
N40 C49 1.477 . S
C41 H33 0.940 . S
C41 C42 1.390 1_455 S
C41 C43 1.322 . S
C42 C41 1.390 1_655 S
C42 C46 1.370 . S
C43 N39 1.477 . S
C43 C41 1.322 . S
C43 C44 1.447 . S
C44 H34 0.940 . S
C44 C43 1.447 . S
C44 C45 1.373 . S
C45 C44 1.373 . S
C45 C46 1.417 1_455 S
C46 H35 0.940 . S
C46 C42 1.370 . S
C46 C45 1.417 1_655 S
C47 H36 0.940 . S
C47 C48 1.390 1_455 S
C47 C49 1.322 . S
C48 C47 1.390 1_655 S
C48 C52 1.370 . S
C49 N40 1.477 . S
C49 C47 1.322 . S
C49 C50 1.447 . S
C50 H37 0.940 . S
C50 C49 1.447 . S
C50 C51 1.373 . S
C51 C50 1.373 . S
C51 C52 1.417 1_455 S
C52 H38 0.940 . S
C52 C48 1.370 . S
C52 C51 1.417 1_655 S
H53 C61 0.940 . S
H54 C64 0.940 . S
H55 C66 0.940 . S
H56 C67 0.940 . S
H57 C70 0.940 . S
H58 C72 0.940 . S
N59 N60 1.190 . S
N59 C63 1.477 . S
N60 N59 1.190 . S
N60 C69 1.477 . S
C61 H53 0.940 . S
C61 C62 1.390 1_545 S
C61 C63 1.322 . S
C62 C61 1.390 1_565 S
C62 C66 1.370 . S
C63 N59 1.477 . S
C63 C61 1.322 . S
C63 C64 1.447 . S
C64 H54 0.940 . S
C64 C63 1.447 . S
C64 C65 1.373 . S
C65 C64 1.373 . S
C65 C66 1.417 1_545 S
C66 H55 0.940 . S
C66 C62 1.370 . S
C66 C65 1.417 1_565 S
C67 H56 0.940 . S
C67 C68 1.390 1_545 S
C67 C69 1.322 . S
C68 C67 1.390 1_565 S
C68 C72 1.370 . S
C69 N60 1.477 . S
C69 C67 1.322 . S
C69 C70 1.447 . S
C70 H57 0.940 . S
C70 C69 1.447 . S
C70 C71 1.373 . S
C71 C70 1.373 . S
C71 C72 1.417 1_545 S
C72 H58 0.940 . S
C72 C68 1.370 . S
C72 C71 1.417 1_565 S
H73 C85 0.930 . S
H74 C87 0.930 . S
H75 C88 0.930 . S
H76 C92 0.959 . S
H77 C92 0.959 . S
H78 C92 0.961 . S
H79 C93 0.960 . S
H80 C93 0.961 . S
H81 C93 0.959 . S
H82 C96 0.929 . S
H83 C97 0.931 . S
H84 C99 0.930 . S
C85 H73 0.930 . S
C85 C86 1.399 1_455 S
C85 C90 1.399 . S
C86 C85 1.399 1_655 S
C86 C87 1.376 . S
C87 H74 0.930 . S
C87 C86 1.376 . S
C87 C88 1.388 . S
C88 H75 0.930 . S
C88 C87 1.388 . S
C88 C89 1.390 . S
C89 C88 1.390 . S
C89 C90 1.394 1_655 S
C89 C95 1.465 . S
C90 C85 1.399 . S
C90 C89 1.394 1_455 S
C90 C91 1.516 . S
C91 C90 1.516 . S
C91 C92 1.502 . S
C91 C93 1.561 1_455 S
C91 C94 1.526 . S
C92 H76 0.959 . S
C92 H77 0.959 . S
C92 H78 0.961 . S
C92 C91 1.502 . S
C93 H79 0.960 . S
C93 H80 0.961 . S
C93 H81 0.959 . S
C93 C91 1.561 1_655 S
C94 C91 1.526 . S
C94 C95 1.396 1_455 S
C94 C99 1.390 . S
C95 C89 1.465 . S
C95 C94 1.396 1_655 S
C95 C96 1.399 . S
C96 H82 0.929 . S
C96 C95 1.399 . S
C96 C97 1.385 . S
C97 H83 0.931 . S
C97 C96 1.385 . S
C97 C98 1.389 . S
C98 C97 1.389 . S
C98 C99 1.387 1_655 S
C99 H84 0.930 . S
C99 C94 1.390 . S
C99 C98 1.387 1_455 S
H100 C112 0.930 . S
H101 C114 0.930 . S
H102 C115 0.930 . S
H103 C119 0.959 . S
H104 C119 0.959 . S
H105 C119 0.961 . S
H106 C120 0.960 . S
H107 C120 0.961 . S
H108 C120 0.959 . S
H109 C123 0.929 . S
H110 C124 0.931 . S
H111 C126 0.930 . S
C112 H100 0.930 . S
C112 C113 1.399 1_545 S
C112 C117 1.399 . S
C113 C112 1.399 1_565 S
C113 C114 1.376 . S
C114 H101 0.930 . S
C114 C113 1.376 . S
C114 C115 1.388 . S
C115 H102 0.930 . S
C115 C114 1.388 . S
C115 C116 1.390 . S
C116 C115 1.390 . S
C116 C117 1.394 1_565 S
C116 C122 1.465 . S
C117 C112 1.399 . S
C117 C116 1.394 1_545 S
C117 C118 1.516 . S
C118 C117 1.516 . S
C118 C119 1.502 . S
C118 C120 1.561 . S
C118 C121 1.526 . S
C119 H103 0.959 . S
C119 H104 0.959 . S
C119 H105 0.961 . S
C119 C118 1.502 . S
C120 H106 0.960 . S
C120 H107 0.961 . S
C120 H108 0.959 . S
C120 C118 1.561 . S
C121 C118 1.526 . S
C121 C122 1.396 1_545 S
C121 C126 1.390 . S
C122 C116 1.465 . S
C122 C121 1.396 1_565 S
C122 C123 1.399 . S
C123 H109 0.929 . S
C123 C122 1.399 . S
C123 C124 1.385 . S
C124 H110 0.931 . S
C124 C123 1.385 . S
C124 C125 1.389 . S
C125 C124 1.389 . S
C125 C126 1.387 1_565 S
C126 H111 0.930 . S
C126 C121 1.390 . S
C126 C125 1.387 1_545 S
H127 C139 0.930 . S
H128 C141 0.930 . S
H129 C142 0.930 . S
H130 C146 0.959 . S
H131 C146 0.959 . S
H132 C146 0.961 . S
H133 C147 0.960 . S
H134 C147 0.961 . S
H135 C147 0.959 1_455 S
H136 C150 0.929 . S
H137 C151 0.931 . S
H138 C153 0.930 . S
C139 H127 0.930 . S
C139 C140 1.399 1_655 S
C139 C144 1.399 . S
C140 C139 1.399 1_455 S
C140 C141 1.376 . S
C141 H128 0.930 . S
C141 C140 1.376 . S
C141 C142 1.388 . S
C142 H129 0.930 . S
C142 C141 1.388 . S
C142 C143 1.390 . S
C143 C142 1.390 . S
C143 C144 1.394 1_455 S
C143 C149 1.465 . S
C144 C139 1.399 . S
C144 C143 1.394 1_655 S
C144 C145 1.516 . S
C145 C144 1.516 . S
C145 C146 1.502 . S
C145 C147 1.561 . S
C145 C148 1.526 . S
C146 H130 0.959 . S
C146 H131 0.959 . S
C146 H132 0.961 . S
C146 C145 1.502 . S
C147 H133 0.960 . S
C147 H134 0.961 . S
C147 H135 0.959 1_655 S
C147 C145 1.561 . S
C148 C145 1.526 . S
C148 C149 1.396 1_655 S
C148 C153 1.390 . S
C149 C143 1.465 . S
C149 C148 1.396 1_455 S
C149 C150 1.399 . S
C150 H136 0.929 . S
C150 C149 1.399 . S
C150 C151 1.385 . S
C151 H137 0.931 . S
C151 C150 1.385 . S
C151 C152 1.389 . S
C152 C151 1.389 . S
C152 C153 1.387 1_455 S
C153 H138 0.930 . S
C153 C148 1.390 . S
C153 C152 1.387 1_655 S
H154 C166 0.930 . S
H155 C168 0.930 . S
H156 C169 0.930 . S
H157 C173 0.959 . S
H158 C173 0.959 . S
H159 C173 0.961 . S
H160 C174 0.960 . S
H161 C174 0.961 . S
H162 C174 0.959 . S
H163 C177 0.929 . S
H164 C178 0.931 . S
H165 C180 0.930 . S
C166 H154 0.930 . S
C166 C167 1.399 1_545 S
C166 C171 1.399 . S
C167 C166 1.399 1_565 S
C167 C168 1.376 . S
C168 H155 0.930 . S
C168 C167 1.376 . S
C168 C169 1.388 . S
C169 H156 0.930 . S
C169 C168 1.388 . S
C169 C170 1.390 . S
C170 C169 1.390 . S
C170 C171 1.394 1_565 S
C170 C176 1.465 . S
C171 C166 1.399 . S
C171 C170 1.394 1_545 S
C171 C172 1.516 . S
C172 C171 1.516 . S
C172 C173 1.502 . S
C172 C174 1.561 . S
C172 C175 1.526 . S
C173 H157 0.959 . S
C173 H158 0.959 . S
C173 H159 0.961 . S
C173 C172 1.502 . S
C174 H160 0.960 . S
C174 H161 0.961 . S
C174 H162 0.959 . S
C174 C172 1.561 . S
C175 C172 1.526 . S
C175 C176 1.396 1_545 S
C175 C180 1.390 . S
C176 C170 1.465 . S
C176 C175 1.396 1_565 S
C176 C177 1.399 . S
C177 H163 0.929 . S
C177 C176 1.399 . S
C177 C178 1.385 . S
C178 H164 0.931 . S
C178 C177 1.385 . S
C178 C179 1.389 . S
C179 C178 1.389 . S
C179 C180 1.387 1_565 S
C180 H165 0.930 . S
C180 C175 1.390 . S
C180 C179 1.387 1_545 S
H181 C193 0.930 . S
H182 C195 0.930 . S
H183 C196 0.930 . S
H184 C200 0.959 . S
H185 C200 0.959 . S
H186 C200 0.961 . S
H187 C201 0.960 . S
H188 C201 0.961 . S
H189 C201 0.959 1_655 S
H190 C204 0.929 . S
H191 C205 0.931 . S
H192 C207 0.930 . S
C193 H181 0.930 . S
C193 C194 1.399 1_455 S
C193 C198 1.399 . S
C194 C193 1.399 1_655 S
C194 C195 1.376 . S
C195 H182 0.930 . S
C195 C194 1.376 . S
C195 C196 1.388 . S
C196 H183 0.930 . S
C196 C195 1.388 . S
C196 C197 1.390 . S
C197 C196 1.390 . S
C197 C198 1.394 1_655 S
C197 C203 1.465 . S
C198 C193 1.399 . S
C198 C197 1.394 1_455 S
C198 C199 1.516 . S
C199 C198 1.516 . S
C199 C200 1.502 . S
C199 C201 1.561 . S
C199 C202 1.526 . S
C200 H184 0.959 . S
C200 H185 0.959 . S
C200 H186 0.961 . S
C200 C199 1.502 . S
C201 H187 0.960 . S
C201 H188 0.961 . S
C201 H189 0.959 1_455 S
C201 C199 1.561 . S
C202 C199 1.526 . S
C202 C203 1.396 1_455 S
C202 C207 1.390 . S
C203 C197 1.465 . S
C203 C202 1.396 1_655 S
C203 C204 1.399 . S
C204 H190 0.929 . S
C204 C203 1.399 . S
C204 C205 1.385 . S
C205 H191 0.931 . S
C205 C204 1.385 . S
C205 C206 1.389 . S
C206 C205 1.389 . S
C206 C207 1.387 1_655 S
C207 H192 0.930 . S
C207 C202 1.390 . S
C207 C206 1.387 1_455 S
H208 C220 0.930 . S
H209 C222 0.930 . S
H210 C223 0.930 . S
H211 C227 0.959 . S
H212 C227 0.959 . S
H213 C227 0.961 . S
H214 C228 0.960 . S
H215 C228 0.961 . S
H216 C228 0.959 . S
H217 C231 0.929 . S
H218 C232 0.931 . S
H219 C234 0.930 . S
C220 H208 0.930 . S
C220 C221 1.400 1_545 S
C220 C225 1.399 . S
C221 C220 1.400 1_565 S
C221 C222 1.376 . S
C222 H209 0.930 . S
C222 C221 1.376 . S
C222 C223 1.388 . S
C223 H210 0.930 . S
C223 C222 1.388 . S
C223 C224 1.390 . S
C224 C223 1.390 . S
C224 C225 1.394 1_565 S
C224 C230 1.465 . S
C225 C220 1.399 . S
C225 C224 1.394 1_545 S
C225 C226 1.516 . S
C226 C225 1.516 . S
C226 C227 1.502 . S
C226 C228 1.561 . S
C226 C229 1.526 . S
C227 H211 0.959 . S
C227 H212 0.959 . S
C227 H213 0.961 . S
C227 C226 1.502 . S
C228 H214 0.960 . S
C228 H215 0.961 . S
C228 H216 0.959 . S
C228 C226 1.561 . S
C229 C226 1.526 . S
C229 C230 1.396 1_545 S
C229 C234 1.390 . S
C230 C224 1.465 . S
C230 C229 1.396 1_565 S
C230 C231 1.399 . S
C231 H217 0.929 . S
C231 C230 1.399 . S
C231 C232 1.385 . S
C232 H218 0.931 . S
C232 C231 1.385 . S
C232 C233 1.389 . S
C233 C232 1.389 . S
C233 C234 1.387 1_565 S
C234 H219 0.930 . S
C234 C229 1.390 . S
C234 C233 1.387 1_545 S
H235 C247 0.940 . S
H236 C249 0.930 . S
H237 C250 0.930 . S
H238 C254 0.959 . S
H239 C254 0.959 . S
H240 C254 0.961 . S
H241 C255 0.960 . S
H242 C255 0.961 . S
H243 C255 0.959 . S
H244 C258 0.929 . S
H245 C259 0.931 . S
H246 C261 0.930 . S
C247 H235 0.940 . S
C247 C248 1.396 1_455 S
C247 C252 1.392 1_455 S
C248 C247 1.396 1_655 S
C248 C249 1.376 . S
C249 H236 0.930 . S
C249 C248 1.376 . S
C249 C250 1.388 . S
C250 H237 0.930 . S
C250 C249 1.388 . S
C250 C251 1.390 . S
C251 C250 1.390 . S
C251 C252 1.394 . S
C251 C257 1.465 . S
C252 C247 1.392 1_655 S
C252 C251 1.394 . S
C252 C253 1.516 1_655 S
C253 C252 1.516 1_455 S
C253 C254 1.502 . S
C253 C255 1.561 1_455 S
C253 C256 1.526 . S
C254 H238 0.959 . S
C254 H239 0.959 . S
C254 H240 0.961 . S
C254 C253 1.502 . S
C255 H241 0.960 . S
C255 H242 0.961 . S
C255 H243 0.959 . S
C255 C253 1.561 1_655 S
C256 C253 1.526 . S
C256 C257 1.396 1_455 S
C256 C261 1.390 . S
C257 C251 1.465 . S
C257 C256 1.396 1_655 S
C257 C258 1.399 . S
C258 H244 0.929 . S
C258 C257 1.399 . S
C258 C259 1.385 . S
C259 H245 0.931 . S
C259 C258 1.385 . S
C259 C260 1.384 1_655 S
C260 C259 1.384 1_455 S
C260 C261 1.394 . S
C261 H246 0.930 . S
C261 C256 1.390 . S
C261 C260 1.394 . S
H262 C274 0.930 . S
H263 C276 0.930 . S
H264 C277 0.930 . S
H265 C281 0.959 . S
H266 C281 0.959 . S
H267 C281 0.961 . S
H268 C282 0.960 . S
H269 C282 0.961 . S
H270 C282 0.959 . S
H271 C285 0.929 . S
H272 C286 0.931 . S
H273 C288 0.930 . S
C274 H262 0.930 . S
C274 C275 1.399 . S
C274 C279 1.399 . S
C275 C274 1.399 . S
C275 C276 1.376 1_545 S
C276 H263 0.930 . S
C276 C275 1.376 1_565 S
C276 C277 1.388 . S
C277 H264 0.930 . S
C277 C276 1.388 . S
C277 C278 1.390 . S
C278 C277 1.390 . S
C278 C279 1.394 1_565 S
C278 C284 1.465 . S
C279 C274 1.399 . S
C279 C278 1.394 1_545 S
C279 C280 1.516 . S
C280 C279 1.516 . S
C280 C281 1.502 . S
C280 C282 1.561 . S
C280 C283 1.526 . S
C281 H265 0.959 . S
C281 H266 0.959 . S
C281 H267 0.961 . S
C281 C280 1.502 . S
C282 H268 0.960 . S
C282 H269 0.961 . S
C282 H270 0.959 . S
C282 C280 1.561 . S
C283 C280 1.526 . S
C283 C284 1.396 1_545 S
C283 C288 1.390 . S
C284 C278 1.465 . S
C284 C283 1.396 1_565 S
C284 C285 1.399 . S
C285 H271 0.929 . S
C285 C284 1.399 . S
C285 C286 1.385 . S
C286 H272 0.931 . S
C286 C285 1.385 . S
C286 C287 1.389 1_565 S
C287 C286 1.389 1_545 S
C287 C288 1.387 . S
C288 H273 0.930 . S
C288 C283 1.390 . S
C288 C287 1.387 . S
C86 C23 1.533 1_655 S
C98 C42 1.542 . S
C113 C22 1.650 . S
C125 C62 1.674 . S
C140 C21 1.945 . S
C152 C51 1.908 . S
C167 C24 1.714 . S
C179 C71 1.735 1_565 S
C194 C27 1.453 . S
C206 C48 1.550 . S
C221 C26 1.678 1_565 S
C233 C68 1.678 . S
C260 C45 1.939 . S
C248 C25 1.951 . S
C275 C28 1.665 . S
C287 C65 1.733 . S
