# Generated by pormake.
# Topology pyr, (3,6)-cn, num edge types: 1
# Building blocks:
#     Node 0, Type 0, BuildingBlock: KAKCAD_clean_linker_0, # of connection points: 3
#     Node 1, Type 0, BuildingBlock: KAKCAD_clean_linker_0, # of connection points: 3
#     Node 2, Type 0, BuildingBlock: KAKCAD_clean_linker_0, # of connection points: 3
#     Node 3, Type 0, BuildingBlock: KAKCAD_clean_linker_0, # of connection points: 3
#     Node 4, Type 0, BuildingBlock: KAKCAD_clean_linker_0, # of connection points: 3
#     Node 5, Type 0, BuildingBlock: KAKCAD_clean_linker_0, # of connection points: 3
#     Node 6, Type 0, BuildingBlock: KAKCAD_clean_linker_0, # of connection points: 3
#     Node 7, Type 0, BuildingBlock: KAKCAD_clean_linker_0, # of connection points: 3
#     Node 8, Type 1, BuildingBlock: BETDEL_clean_sbu_0, # of connection points: 6
#     Node 9, Type 1, BuildingBlock: BETDEL_clean_sbu_0, # of connection points: 6
#     Node 10, Type 1, BuildingBlock: BETDEL_clean_sbu_0, # of connection points: 6
#     Node 11, Type 1, BuildingBlock: BETDEL_clean_sbu_0, # of connection points: 6
#     Edge 12, Type (0, 1), BuildingBlock: ZUJKAS_clean_linker_0, # of connection points: 2
#     Edge 13, Type (0, 1), BuildingBlock: ZUJKAS_clean_linker_0, # of connection points: 2
#     Edge 14, Type (0, 1), BuildingBlock: ZUJKAS_clean_linker_0, # of connection points: 2
#     Edge 15, Type (0, 1), BuildingBlock: ZUJKAS_clean_linker_0, # of connection points: 2
#     Edge 16, Type (0, 1), BuildingBlock: ZUJKAS_clean_linker_0, # of connection points: 2
#     Edge 17, Type (0, 1), BuildingBlock: ZUJKAS_clean_linker_0, # of connection points: 2
#     Edge 18, Type (0, 1), BuildingBlock: ZUJKAS_clean_linker_0, # of connection points: 2
#     Edge 19, Type (0, 1), BuildingBlock: ZUJKAS_clean_linker_0, # of connection points: 2
#     Edge 20, Type (0, 1), BuildingBlock: ZUJKAS_clean_linker_0, # of connection points: 2
#     Edge 21, Type (0, 1), BuildingBlock: ZUJKAS_clean_linker_0, # of connection points: 2
#     Edge 22, Type (0, 1), BuildingBlock: ZUJKAS_clean_linker_0, # of connection points: 2
#     Edge 23, Type (0, 1), BuildingBlock: ZUJKAS_clean_linker_0, # of connection points: 2
#     Edge 24, Type (0, 1), BuildingBlock: ZUJKAS_clean_linker_0, # of connection points: 2
#     Edge 25, Type (0, 1), BuildingBlock: ZUJKAS_clean_linker_0, # of connection points: 2
#     Edge 26, Type (0, 1), BuildingBlock: ZUJKAS_clean_linker_0, # of connection points: 2
#     Edge 27, Type (0, 1), BuildingBlock: ZUJKAS_clean_linker_0, # of connection points: 2
#     Edge 28, Type (0, 1), BuildingBlock: ZUJKAS_clean_linker_0, # of connection points: 2
#     Edge 29, Type (0, 1), BuildingBlock: ZUJKAS_clean_linker_0, # of connection points: 2
#     Edge 30, Type (0, 1), BuildingBlock: ZUJKAS_clean_linker_0, # of connection points: 2
#     Edge 31, Type (0, 1), BuildingBlock: ZUJKAS_clean_linker_0, # of connection points: 2
#     Edge 32, Type (0, 1), BuildingBlock: ZUJKAS_clean_linker_0, # of connection points: 2
#     Edge 33, Type (0, 1), BuildingBlock: ZUJKAS_clean_linker_0, # of connection points: 2
#     Edge 34, Type (0, 1), BuildingBlock: ZUJKAS_clean_linker_0, # of connection points: 2
#     Edge 35, Type (0, 1), BuildingBlock: ZUJKAS_clean_linker_0, # of connection points: 2
# Relax obj value: 0.024
# Max RMSD: 0.087
# Mean RMSD: 0.036
data_MOF--net-pyr--node1-BETDEL_clean_sbu_0--node2-KAKCAD_clean_linker_0--edge1-ZUJKAS_clean_linker_0
_symmetry_space_group_name_H-M    P1
_symmetry_Int_Tables_number       1
_symmetry_cell_setting            triclinic
loop_
_symmetry_equiv_pos_as_xyz
'x, y, z'
_cell_length_a     56.622279
_cell_length_b     58.476602
_cell_length_c     53.81257
_cell_angle_alpha  91.879816
_cell_angle_beta   89.332983
_cell_angle_gamma 94.753196
loop_
_atom_site_label
_atom_site_type_symbol
_atom_site_fract_x
_atom_site_fract_y
_atom_site_fract_z
_atom_type_partial_charge
C0 C 0.13551 0.1675 0.22357 0.0
C1 C 0.14655 0.16209 0.24561 0.0
C2 C 0.1489 0.17686 0.20389 0.0
C3 C 0.17362 0.18113 0.20583 0.0
C4 C 0.18466 0.17587 0.22795 0.0
C5 C 0.17126 0.16642 0.24764 0.0
C6 C 0.18777 0.19072 0.18463 0.0
C7 C 0.17911 0.20793 0.17051 0.0
C8 C 0.19156 0.21618 0.14953 0.0
C9 C 0.21308 0.20734 0.14282 0.0
C10 C 0.22199 0.19009 0.15668 0.0
C11 C 0.20937 0.18201 0.1777 0.0
C12 C 0.24362 0.17943 0.14817 0.0
C13 C 0.24625 0.17276 0.12307 0.0
C14 C 0.26141 0.17532 0.16504 0.0
C15 C 0.28147 0.1647 0.15691 0.0
C16 C 0.28402 0.15782 0.13178 0.0
C17 C 0.1815 0.23333 0.13403 0.0
C18 C 0.15768 0.23019 0.12681 0.0
C19 C 0.19551 0.25284 0.12641 0.0
C20 C 0.18567 0.2692 0.11223 0.0
C21 C 0.16177 0.26613 0.10518 0.0
C22 C 0.14793 0.24639 0.11245 0.0
C23 C 0.26615 0.16201 0.11498 0.0
H24 H 0.11656 0.16398 0.22129 0.0
H25 H 0.13989 0.18029 0.18693 0.0
H26 H 0.20364 0.17922 0.23013 0.0
H27 H 0.18021 0.16265 0.26452 0.0
H28 H 0.16264 0.21502 0.17588 0.0
H29 H 0.21581 0.16816 0.18793 0.0
H30 H 0.22261 0.21351 0.12645 0.0
H31 H 0.23259 0.17534 0.10974 0.0
H32 H 0.25988 0.18046 0.18448 0.0
H33 H 0.29503 0.16199 0.17028 0.0
H34 H 0.14658 0.21516 0.13223 0.0
H35 H 0.21392 0.25565 0.1318 0.0
H36 H 0.26724 0.1565 0.09562 0.0
H37 H 0.12939 0.24372 0.10751 0.0
H38 H 0.19672 0.28425 0.10678 0.0
C39 C 0.32089 0.86438 0.73286 0.0
C40 C 0.34517 0.86518 0.73812 0.0
C41 C 0.3126 0.85726 0.70929 0.0
C42 C 0.32845 0.85097 0.69046 0.0
C43 C 0.3528 0.85212 0.69567 0.0
C44 C 0.36106 0.85908 0.71929 0.0
C45 C 0.31955 0.84261 0.66569 0.0
C46 C 0.30094 0.85279 0.65451 0.0
C47 C 0.29169 0.8442 0.63165 0.0
C48 C 0.30147 0.82543 0.61971 0.0
C49 C 0.32015 0.81513 0.63059 0.0
C50 C 0.32908 0.82382 0.65354 0.0
C51 C 0.32959 0.79446 0.61892 0.0
C52 C 0.31411 0.77605 0.61007 0.0
C53 C 0.35413 0.79239 0.61809 0.0
C54 C 0.36298 0.772 0.60944 0.0
C55 C 0.34747 0.75325 0.60152 0.0
C56 C 0.27128 0.85442 0.62074 0.0
C57 C 0.25182 0.85938 0.63579 0.0
C58 C 0.27106 0.85923 0.59535 0.0
C59 C 0.25181 0.86906 0.58526 0.0
C60 C 0.23237 0.87415 0.60036 0.0
C61 C 0.23255 0.86909 0.6257 0.0
C62 C 0.32297 0.75561 0.60151 0.0
H63 H 0.30824 0.86877 0.74712 0.0
H64 H 0.2937 0.85621 0.70601 0.0
H65 H 0.36551 0.84775 0.68146 0.0
H66 H 0.37993 0.8599 0.72275 0.0
H67 H 0.29372 0.86757 0.66351 0.0
H68 H 0.34284 0.8153 0.66246 0.0
H69 H 0.29427 0.81859 0.60216 0.0
H70 H 0.29511 0.77712 0.61066 0.0
H71 H 0.36646 0.8064 0.62459 0.0
H72 H 0.38193 0.77065 0.60986 0.0
H73 H 0.25135 0.85548 0.65534 0.0
H74 H 0.28596 0.85576 0.5834 0.0
H75 H 0.31062 0.7415 0.59526 0.0
H76 H 0.21766 0.87238 0.63773 0.0
H77 H 0.25234 0.87303 0.56574 0.0
C78 C 0.7215 0.38531 0.87576 0.0
C79 C 0.74059 0.37238 0.88109 0.0
C80 C 0.70056 0.37469 0.86561 0.0
C81 C 0.69811 0.35085 0.86065 0.0
C82 C 0.71716 0.3379 0.86607 0.0
C83 C 0.73816 0.34854 0.8761 0.0
C84 C 0.67581 0.33955 0.84979 0.0
C85 C 0.66439 0.34978 0.83046 0.0
C86 C 0.6434 0.33928 0.81996 0.0
C87 C 0.63371 0.31824 0.82924 0.0
C88 C 0.64478 0.30773 0.84868 0.0
C89 C 0.66586 0.31851 0.85871 0.0
C90 C 0.63428 0.28567 0.85885 0.0
C91 C 0.60984 0.28224 0.86387 0.0
C92 C 0.64876 0.26805 0.8642 0.0
C93 C 0.63907 0.2476 0.87441 0.0
C94 C 0.61467 0.24428 0.87975 0.0
C95 C 0.63194 0.35026 0.7991 0.0
C96 C 0.62962 0.37403 0.79984 0.0
C97 C 0.62389 0.33725 0.77797 0.0
C98 C 0.61423 0.34784 0.75787 0.0
C99 C 0.61217 0.3717 0.75844 0.0
C100 C 0.6198 0.38459 0.77986 0.0
C101 C 0.60017 0.26185 0.8743 0.0
H102 H 0.72283 0.40373 0.87915 0.0
H103 H 0.68617 0.38516 0.86188 0.0
H104 H 0.71597 0.31954 0.86228 0.0
H105 H 0.75241 0.33802 0.88018 0.0
H106 H 0.67226 0.3657 0.82305 0.0
H107 H 0.67421 0.31081 0.87403 0.0
H108 H 0.61753 0.31004 0.82131 0.0
H109 H 0.59821 0.29552 0.86018 0.0
H110 H 0.66763 0.27005 0.86038 0.0
H111 H 0.65078 0.23451 0.87852 0.0
H112 H 0.63531 0.38451 0.81599 0.0
H113 H 0.62567 0.31895 0.77666 0.0
H114 H 0.58127 0.25978 0.87793 0.0
H115 H 0.61807 0.40288 0.78132 0.0
H116 H 0.60891 0.33734 0.74163 0.0
C117 C 0.84757 0.62021 0.25004 0.0
C118 C 0.87223 0.62169 0.24618 0.0
C119 C 0.83784 0.63027 0.27132 0.0
C120 C 0.85256 0.64192 0.28933 0.0
C121 C 0.87725 0.64336 0.28544 0.0
C122 C 0.88695 0.63343 0.26409 0.0
C123 C 0.84224 0.6525 0.3121 0.0
C124 C 0.82276 0.64125 0.32438 0.0
C125 C 0.8129 0.6511 0.34587 0.0
C126 C 0.8229 0.67242 0.3552 0.0
C127 C 0.84241 0.68395 0.34326 0.0
C128 C 0.85187 0.67389 0.32168 0.0
C129 C 0.85291 0.7065 0.35331 0.0
C130 C 0.83833 0.72329 0.36239 0.0
C131 C 0.87764 0.71136 0.35398 0.0
C132 C 0.88755 0.73247 0.36356 0.0
C133 C 0.87299 0.74923 0.37272 0.0
C134 C 0.79205 0.6392 0.35847 0.0
C135 C 0.77311 0.62865 0.34447 0.0
C136 C 0.79076 0.63854 0.38455 0.0
C137 C 0.7709 0.6278 0.39636 0.0
C138 C 0.75184 0.61749 0.38237 0.0
C139 C 0.75324 0.61794 0.35628 0.0
C140 C 0.84825 0.7444 0.37198 0.0
H141 H 0.83575 0.61153 0.23642 0.0
H142 H 0.81875 0.62915 0.27349 0.0
H143 H 0.88914 0.65185 0.2991 0.0
H144 H 0.90604 0.63457 0.26183 0.0
H145 H 0.81558 0.6245 0.31754 0.0
H146 H 0.86644 0.68301 0.31196 0.0
H147 H 0.81544 0.68009 0.37181 0.0
H148 H 0.81922 0.72021 0.3619 0.0
H149 H 0.88938 0.69873 0.34736 0.0
H150 H 0.90666 0.73571 0.36358 0.0
H151 H 0.77344 0.62901 0.32436 0.0
H152 H 0.80517 0.64628 0.39587 0.0
H153 H 0.83651 0.75683 0.37911 0.0
H154 H 0.73898 0.60995 0.34493 0.0
H155 H 0.77031 0.62795 0.41649 0.0
C156 C 0.8548 0.82369 0.75661 0.0
C157 C 0.8609 0.84751 0.75731 0.0
C158 C 0.83917 0.81379 0.77428 0.0
C159 C 0.82924 0.82753 0.79289 0.0
C160 C 0.83518 0.85133 0.79348 0.0
C161 C 0.85088 0.8612 0.77595 0.0
C162 C 0.8135 0.81709 0.81238 0.0
C163 C 0.81983 0.79771 0.82454 0.0
C164 C 0.8062 0.78886 0.84452 0.0
C165 C 0.78589 0.79954 0.85218 0.0
C166 C 0.77913 0.81886 0.84002 0.0
C167 C 0.79297 0.82736 0.81997 0.0
C168 C 0.75826 0.83078 0.84888 0.0
C169 C 0.73758 0.81825 0.8573 0.0
C170 C 0.75906 0.8549 0.84939 0.0
C171 C 0.73969 0.86621 0.85804 0.0
C172 C 0.71918 0.85369 0.86666 0.0
C173 C 0.81423 0.76942 0.85828 0.0
C174 C 0.82291 0.75058 0.84533 0.0
C175 C 0.81473 0.77027 0.8844 0.0
C176 C 0.82459 0.75306 0.89727 0.0
C177 C 0.83415 0.73469 0.88425 0.0
C178 C 0.83275 0.73339 0.85818 0.0
C179 C 0.71829 0.82961 0.86623 0.0
H180 H 0.86194 0.81271 0.74229 0.0
H181 H 0.83474 0.7954 0.77331 0.0
H182 H 0.82816 0.86228 0.8079 0.0
H183 H 0.85554 0.87953 0.77734 0.0
H184 H 0.8361 0.79018 0.81925 0.0
H185 H 0.78781 0.84205 0.8102 0.0
H186 H 0.77564 0.79303 0.86793 0.0
H187 H 0.73622 0.79966 0.85684 0.0
H188 H 0.77486 0.86513 0.84358 0.0
H189 H 0.74096 0.88481 0.85853 0.0
H190 H 0.82242 0.74931 0.82521 0.0
H191 H 0.80842 0.78472 0.89487 0.0
H192 H 0.70256 0.81957 0.87259 0.0
H193 H 0.83956 0.71921 0.84767 0.0
H194 H 0.82563 0.75466 0.91734 0.0
C195 C 0.67493 0.12759 0.28829 0.0
C196 C 0.67196 0.14082 0.26738 0.0
C197 C 0.68401 0.13791 0.31032 0.0
C198 C 0.69018 0.16168 0.31189 0.0
C199 C 0.6874 0.17487 0.29092 0.0
C200 C 0.67841 0.16454 0.26888 0.0
C201 C 0.69947 0.17277 0.33533 0.0
C202 C 0.71675 0.16279 0.34883 0.0
C203 C 0.72612 0.17359 0.37066 0.0
C204 C 0.71791 0.19451 0.37908 0.0
C205 C 0.70049 0.20463 0.36585 0.0
C206 C 0.69133 0.1936 0.34403 0.0
C207 C 0.69177 0.22673 0.37462 0.0
C208 C 0.68652 0.23074 0.39989 0.0
C209 C 0.68807 0.24375 0.35759 0.0
C210 C 0.67882 0.26414 0.36554 0.0
C211 C 0.67312 0.26801 0.39073 0.0
C212 C 0.74514 0.16332 0.38399 0.0
C213 C 0.7434 0.13969 0.38833 0.0
C214 C 0.76565 0.17689 0.39138 0.0
C215 C 0.78439 0.16686 0.40222 0.0
C216 C 0.78287 0.14313 0.40602 0.0
C217 C 0.76206 0.12969 0.39931 0.0
C218 C 0.67726 0.25118 0.40787 0.0
H219 H 0.67027 0.10924 0.2876 0.0
H220 H 0.68585 0.12736 0.32624 0.0
H221 H 0.69227 0.19318 0.29152 0.0
H222 H 0.67609 0.1752 0.25316 0.0
H223 H 0.72354 0.14699 0.34185 0.0
H224 H 0.6775 0.20105 0.33402 0.0
H225 H 0.72522 0.20298 0.39583 0.0
H226 H 0.68905 0.21788 0.41343 0.0
H227 H 0.69223 0.24126 0.33804 0.0
H228 H 0.6756 0.27665 0.35183 0.0
H229 H 0.72769 0.12889 0.38298 0.0
H230 H 0.76751 0.19513 0.38809 0.0
H231 H 0.67327 0.25377 0.42744 0.0
H232 H 0.76048 0.11133 0.40187 0.0
H233 H 0.80015 0.17763 0.40744 0.0
C234 C 0.26327 0.63399 0.15249 0.0
C235 C 0.26081 0.63183 0.12649 0.0
C236 C 0.28433 0.64388 0.16309 0.0
C237 C 0.30348 0.65194 0.14799 0.0
C238 C 0.30109 0.64968 0.12201 0.0
C239 C 0.28007 0.63973 0.11142 0.0
C240 C 0.32577 0.6629 0.15923 0.0
C241 C 0.33564 0.65361 0.18015 0.0
C242 C 0.35667 0.66383 0.19086 0.0
C243 C 0.36778 0.68377 0.18037 0.0
C244 C 0.35818 0.69339 0.15945 0.0
C245 C 0.33721 0.68277 0.14906 0.0
C246 C 0.36976 0.71467 0.14851 0.0
C247 C 0.37841 0.73339 0.16383 0.0
C248 C 0.3717 0.71666 0.12256 0.0
C249 C 0.38179 0.73689 0.1122 0.0
C250 C 0.39012 0.75574 0.1275 0.0
C251 C 0.36707 0.65349 0.21285 0.0
C252 C 0.35243 0.645 0.23235 0.0
C253 C 0.39163 0.65165 0.21435 0.0
C254 C 0.40125 0.64137 0.23467 0.0
C255 C 0.38658 0.63276 0.2541 0.0
C256 C 0.36205 0.63482 0.2527 0.0
C257 C 0.38839 0.75369 0.15346 0.0
H258 H 0.24873 0.62844 0.16471 0.0
H259 H 0.28545 0.64562 0.18315 0.0
H260 H 0.31561 0.65537 0.10983 0.0
H261 H 0.27905 0.63799 0.09135 0.0
H262 H 0.32725 0.63797 0.1877 0.0
H263 H 0.32936 0.69039 0.13337 0.0
H264 H 0.38393 0.69183 0.1885 0.0
H265 H 0.37703 0.73253 0.18388 0.0
H266 H 0.36544 0.70251 0.1102 0.0
H267 H 0.38266 0.7379 0.09214 0.0
H268 H 0.33347 0.64632 0.23195 0.0
H269 H 0.40342 0.65781 0.19959 0.0
H270 H 0.39486 0.76775 0.16581 0.0
H271 H 0.35017 0.62821 0.26718 0.0
H272 H 0.42023 0.6403 0.23522 0.0
C273 C 0.15273 0.26022 0.63345 0.0
C274 C 0.12809 0.25584 0.63069 0.0
C275 C 0.1624 0.28142 0.643 0.0
C276 C 0.14767 0.29877 0.65005 0.0
C277 C 0.12302 0.29438 0.64742 0.0
C278 C 0.11335 0.27317 0.63782 0.0
C279 C 0.15803 0.32138 0.66005 0.0
C280 C 0.17856 0.33211 0.64916 0.0
C281 C 0.18865 0.35336 0.65855 0.0
C282 C 0.17802 0.36386 0.67919 0.0
C283 C 0.15751 0.3534 0.69036 0.0
C284 C 0.14756 0.33223 0.68059 0.0
C285 C 0.14665 0.36447 0.71244 0.0
C286 C 0.16086 0.37361 0.7322 0.0
C287 C 0.12202 0.36595 0.71392 0.0
C288 C 0.11185 0.37649 0.73465 0.0
C289 C 0.12605 0.38557 0.75445 0.0
C290 C 0.2103 0.36455 0.64678 0.0
C291 C 0.22932 0.35163 0.63989 0.0
C292 C 0.21209 0.38818 0.64225 0.0
C293 C 0.23241 0.39863 0.63099 0.0
C294 C 0.25146 0.3857 0.62416 0.0
C295 C 0.24969 0.36209 0.62877 0.0
C296 C 0.15066 0.38395 0.75303 0.0
H297 H 0.16458 0.24713 0.62854 0.0
H298 H 0.18143 0.28412 0.64517 0.0
H299 H 0.11121 0.30749 0.65237 0.0
H300 H 0.09432 0.27051 0.63561 0.0
H301 H 0.1864 0.32415 0.63293 0.0
H302 H 0.13203 0.32386 0.68947 0.0
H303 H 0.18578 0.38019 0.68663 0.0
H304 H 0.17987 0.37254 0.73168 0.0
H305 H 0.11065 0.35919 0.6989 0.0
H306 H 0.09281 0.37732 0.73531 0.0
H307 H 0.22856 0.33343 0.64331 0.0
H308 H 0.19764 0.39855 0.64715 0.0
H309 H 0.16209 0.39095 0.76791 0.0
H310 H 0.26395 0.35162 0.6235 0.0
H311 H 0.23332 0.41688 0.62786 0.0
Dy312 Dy 0.01152 0.00943 0.47482 0.0
C313 C 0.98676 0.97086 0.56915 0.0
C314 C 0.02169 0.03255 0.43231 0.0
Dy315 Dy 0.99584 0.99391 0.52644 0.0
O316 O 0.03118 0.01422 0.43872 0.0
O317 O 0.00628 0.03818 0.44901 0.0
O318 O 0.03661 0.98174 0.47244 0.0
O319 O 0.0296 0.99758 0.507 0.0
C320 C 0.03989 0.98171 0.49625 0.0
C321 C 0.9677 0.02196 0.50528 0.0
O322 O 0.02089 0.02377 0.53795 0.0
O323 O 0.02295 0.04037 0.49931 0.0
O324 O 0.97605 0.98835 0.56231 0.0
O325 O 0.0027 0.96597 0.55271 0.0
O326 O 0.97086 0.02167 0.52911 0.0
O327 O 0.97783 0.00604 0.49439 0.0
O328 O 0.986 0.97992 0.46333 0.0
O329 O 0.98404 0.96315 0.50189 0.0
C330 C 0.02678 0.04142 0.52365 0.0
C331 C 0.97999 0.96226 0.47759 0.0
Dy332 Dy 0.51925 0.00969 0.02572 0.0
C333 C 0.45018 0.96304 0.9588 0.0
C334 C 0.54684 0.0334 0.06036 0.0
Dy335 Dy 0.48221 0.99115 0.98486 0.0
O336 O 0.52808 0.01991 0.06513 0.0
O337 O 0.55068 0.03401 0.0365 0.0
O338 O 0.52078 0.97351 0.03785 0.0
O339 O 0.48912 0.98355 0.02346 0.0
C340 C 0.49933 0.96674 0.03106 0.0
C341 C 0.50625 0.03043 0.97029 0.0
O342 O 0.45891 0.00913 0.01139 0.0
O343 O 0.48858 0.03081 0.0335 0.0
O344 O 0.44876 0.98493 0.96288 0.0
O345 O 0.469 0.95648 0.96917 0.0
O346 O 0.49015 0.01896 0.95677 0.0
O347 O 0.50816 0.01981 0.98999 0.0
O348 O 0.54353 0.99566 0.99731 0.0
O349 O 0.5147 0.97335 0.97457 0.0
C350 C 0.46602 0.02588 0.02749 0.0
C351 C 0.53715 0.97964 0.98011 0.0
Dy352 Dy 0.51059 0.48405 0.48801 0.0
C353 C 0.46626 0.55174 0.54658 0.0
C354 C 0.53909 0.45551 0.46333 0.0
Dy355 Dy 0.49352 0.52186 0.52215 0.0
O356 O 0.51609 0.45277 0.4639 0.0
O357 O 0.54645 0.47391 0.47604 0.0
O358 O 0.47327 0.46834 0.4836 0.0
O359 O 0.48366 0.48539 0.51716 0.0
C360 C 0.4663 0.47593 0.50522 0.0
C361 C 0.53778 0.52985 0.50459 0.0
O362 O 0.50526 0.49924 0.55161 0.0
O363 O 0.52634 0.47621 0.52498 0.0
O364 O 0.48926 0.5536 0.54588 0.0
O365 O 0.45815 0.53337 0.53424 0.0
O366 O 0.53102 0.53735 0.5263 0.0
O367 O 0.52025 0.52052 0.49288 0.0
O368 O 0.49854 0.50664 0.45866 0.0
O369 O 0.47704 0.52916 0.48538 0.0
C370 C 0.52038 0.48327 0.54778 0.0
C371 C 0.48307 0.52226 0.46256 0.0
Dy372 Dy 0.00758 0.48256 0.00943 0.0
C373 C 0.97127 0.56703 0.98431 0.0
C374 C 0.02963 0.44397 0.01804 0.0
Dy375 Dy 0.99404 0.52857 0.99143 0.0
O376 O 0.01642 0.45423 0.034 0.0
O377 O 0.03068 0.45466 0.99726 0.0
O378 O 0.97939 0.48343 0.039 0.0
O379 O 0.99759 0.51422 0.02768 0.0
C380 C 0.98092 0.50572 0.04106 0.0
C381 C 0.02014 0.50526 0.95923 0.0
O382 O 0.02606 0.54112 0.01349 0.0
O383 O 0.04124 0.50559 0.01542 0.0
O384 O 0.98936 0.56097 0.97139 0.0
O385 O 0.96571 0.55216 0.00123 0.0
O386 O 0.0212 0.52754 0.9607 0.0
O387 O 0.00385 0.49692 0.97318 0.0
O388 O 0.97475 0.46951 0.98908 0.0
O389 O 0.96085 0.50528 0.98348 0.0
C390 C 0.04362 0.52831 0.01835 0.0
C391 C 0.95787 0.48246 0.98244 0.0
H392 H 0.10371 0.17369 0.26399 0.0
H393 H 0.0796 0.15478 0.29668 0.0
H394 H 0.1329 0.10719 0.30568 0.0
H395 H 0.15707 0.12597 0.27313 0.0
H396 H 0.06096 0.10966 0.2976 0.0
H397 H 0.12165 0.12974 0.37675 0.0
H398 H 0.1251 0.14427 0.34768 0.0
H399 H 0.13593 0.11643 0.35078 0.0
C400 C 0.11029 0.15922 0.273 0.0
C401 C 0.13234 0.15137 0.2661 0.0
C402 C 0.09655 0.14851 0.29169 0.0
C403 C 0.10465 0.12985 0.30385 0.0
C404 C 0.12661 0.12195 0.29696 0.0
H405 H 0.05557 0.02306 0.39846 0.0
H406 H 0.07303 0.04821 0.36653 0.0
C407 C 0.14039 0.13268 0.27836 0.0
C408 C 0.08979 0.11791 0.32301 0.0
H409 H 0.091 0.09942 0.38243 0.0
C410 C 0.06734 0.10772 0.31628 0.0
C411 C 0.09812 0.11556 0.3474 0.0
C412 C 0.12142 0.12729 0.35618 0.0
C413 C 0.05349 0.09427 0.333 0.0
C414 C 0.06238 0.09104 0.35688 0.0
C415 C 0.08439 0.10189 0.36394 0.0
C416 C 0.04992 0.07524 0.37436 0.0
C417 C 0.02988 0.08282 0.32487 0.0
C418 C 0.03091 0.0821 0.38894 0.0
C419 C 0.0209 0.06777 0.40727 0.0
C420 C 0.02987 0.04649 0.41114 0.0
C421 C 0.04832 0.03938 0.39584 0.0
C422 C 0.05832 0.0537 0.37765 0.0
H423 H 0.02577 0.08649 0.30533 0.0
H424 H 0.02978 0.06395 0.32669 0.0
H425 H 0.01564 0.08883 0.33718 0.0
H426 H 0.02435 0.09878 0.38666 0.0
H427 H 0.00673 0.07364 0.41891 0.0
H428 H 0.33309 0.90173 0.76701 0.0
H429 H 0.34868 0.91419 0.80795 0.0
H430 H 0.39216 0.85697 0.80692 0.0
H431 H 0.37685 0.84457 0.76587 0.0
H432 H 0.34813 0.89203 0.85297 0.0
H433 H 0.44018 0.91193 0.81841 0.0
H434 H 0.41532 0.90657 0.79778 0.0
H435 H 0.42825 0.88303 0.81162 0.0
C436 C 0.34586 0.89174 0.77561 0.0
C437 C 0.35395 0.87232 0.76321 0.0
C438 C 0.35475 0.89888 0.79894 0.0
C439 C 0.37182 0.88669 0.81024 0.0
C440 C 0.37938 0.86689 0.79824 0.0
H441 H 0.455 0.91883 0.94362 0.0
H442 H 0.43352 0.89725 0.90993 0.0
C443 C 0.37065 0.85985 0.77484 0.0
C444 C 0.38207 0.89505 0.83432 0.0
H445 H 0.43392 0.91555 0.86171 0.0
C446 C 0.36689 0.89712 0.85495 0.0
C447 C 0.40655 0.9017 0.83675 0.0
C448 C 0.42352 0.90092 0.81494 0.0
C449 C 0.37559 0.90572 0.87802 0.0
C450 C 0.4 0.91253 0.88033 0.0
C451 C 0.41522 0.91009 0.85985 0.0
C452 C 0.41009 0.92376 0.90325 0.0
C453 C 0.35867 0.90746 0.89972 0.0
C454 C 0.40367 0.94558 0.91085 0.0
C455 C 0.41595 0.95794 0.92996 0.0
C456 C 0.43484 0.94865 0.94165 0.0
C457 C 0.44046 0.92634 0.93489 0.0
C458 C 0.42825 0.91402 0.9157 0.0
H459 H 0.34212 0.89614 0.89683 0.0
H460 H 0.36703 0.90288 0.91725 0.0
H461 H 0.3538 0.92542 0.9019 0.0
H462 H 0.38999 0.95354 0.90115 0.0
H463 H 0.41133 0.97515 0.93481 0.0
H464 H 0.57591 0.35546 0.7272 0.0
H465 H 0.56097 0.37394 0.69114 0.0
H466 H 0.61043 0.43293 0.70505 0.0
H467 H 0.62635 0.41415 0.74025 0.0
H468 H 0.5397 0.41294 0.68729 0.0
H469 H 0.62327 0.41983 0.6326 0.0
H470 H 0.61956 0.40275 0.6599 0.0
H471 H 0.62645 0.43333 0.66292 0.0
C472 C 0.58393 0.37221 0.7224 0.0
C473 C 0.60252 0.38316 0.7367 0.0
C474 C 0.57519 0.38286 0.70184 0.0
C475 C 0.58481 0.4047 0.69502 0.0
C476 C 0.60304 0.41587 0.7095 0.0
H477 H 0.5165 0.49548 0.59728 0.0
H478 H 0.53192 0.47662 0.63285 0.0
C479 C 0.6119 0.40519 0.72994 0.0
C480 C 0.57549 0.41595 0.67308 0.0
H481 H 0.59207 0.44076 0.61822 0.0
C482 C 0.55115 0.41894 0.67214 0.0
C483 C 0.59031 0.42349 0.65306 0.0
C484 C 0.61629 0.41949 0.65198 0.0
C485 C 0.54131 0.42953 0.65202 0.0
C486 C 0.5563 0.43794 0.63251 0.0
C487 C 0.58058 0.43462 0.63327 0.0
C488 C 0.54715 0.44976 0.61087 0.0
C489 C 0.51485 0.43111 0.65165 0.0
C490 C 0.55124 0.44153 0.58651 0.0
C491 C 0.54275 0.45251 0.56608 0.0
C492 C 0.52991 0.472 0.56951 0.0
C493 C 0.52609 0.4804 0.59391 0.0
C494 C 0.53477 0.46951 0.61433 0.0
H495 H 0.50538 0.41815 0.66364 0.0
H496 H 0.51078 0.44835 0.65886 0.0
H497 H 0.50785 0.42862 0.63248 0.0
H498 H 0.56084 0.42642 0.58328 0.0
H499 H 0.54607 0.44553 0.54759 0.0
H500 H 0.85998 0.57915 0.22528 0.0
H501 H 0.87785 0.56097 0.18885 0.0
H502 H 0.92545 0.62165 0.1796 0.0
H503 H 0.90782 0.63984 0.21615 0.0
H504 H 0.88146 0.57373 0.1402 0.0
H505 H 0.97093 0.5717 0.18076 0.0
H506 H 0.94537 0.57804 0.19926 0.0
H507 H 0.96051 0.59986 0.18075 0.0
C508 C 0.87418 0.58866 0.2154 0.0
C509 C 0.88262 0.61087 0.22369 0.0
C510 C 0.88441 0.57823 0.19464 0.0
C511 C 0.90326 0.58979 0.18177 0.0
C512 C 0.91134 0.61218 0.18962 0.0
H513 H 0.98787 0.55145 0.05305 0.0
H514 H 0.96792 0.57277 0.086 0.0
C515 C 0.90123 0.62256 0.21048 0.0
C516 C 0.91439 0.5784 0.1601 0.0
H517 H 0.96696 0.56073 0.13812 0.0
C518 C 0.90014 0.57085 0.13976 0.0
C519 C 0.93878 0.57463 0.15957 0.0
C520 C 0.95477 0.58127 0.18133 0.0
C521 C 0.90967 0.5598 0.11883 0.0
C522 C 0.93401 0.55606 0.11835 0.0
C523 C 0.94831 0.56376 0.13855 0.0
C524 C 0.94492 0.54353 0.09742 0.0
C525 C 0.89373 0.55239 0.09727 0.0
C526 C 0.93853 0.52007 0.09298 0.0
C527 C 0.94996 0.50785 0.0743 0.0
C528 C 0.96796 0.51891 0.05979 0.0
C529 C 0.97404 0.54251 0.06396 0.0
C530 C 0.96269 0.55469 0.08275 0.0
H531 H 0.87694 0.56098 0.09809 0.0
H532 H 0.90284 0.5562 0.0793 0.0
H533 H 0.88922 0.53358 0.0977 0.0
H534 H 0.92509 0.51109 0.10435 0.0
H535 H 0.94496 0.48967 0.07147 0.0
H536 H 0.30869 0.16306 0.088 0.0
H537 H 0.34046 0.14074 0.07207 0.0
H538 H 0.33926 0.10395 0.14031 0.0
H539 H 0.30654 0.12529 0.15587 0.0
H540 H 0.3846 0.13596 0.08829 0.0
H541 H 0.33104 0.05207 0.08885 0.0
H542 H 0.31808 0.07904 0.09362 0.0
H543 H 0.33285 0.06667 0.11871 0.0
C544 C 0.31499 0.15005 0.09955 0.0
C545 C 0.3048 0.14574 0.12307 0.0
C546 C 0.3333 0.13746 0.09049 0.0
C547 C 0.34188 0.12037 0.1048 0.0
C548 C 0.33251 0.11669 0.12873 0.0
H549 H 0.4714 0.05505 0.06815 0.0
H550 H 0.44168 0.07798 0.08758 0.0
C551 C 0.31402 0.12914 0.13773 0.0
C552 C 0.36038 0.10626 0.0944 0.0
H553 H 0.37182 0.05117 0.07898 0.0
C554 C 0.38184 0.11741 0.08625 0.0
C555 C 0.35654 0.08211 0.0914 0.0
C556 C 0.33331 0.06926 0.09837 0.0
C557 C 0.39963 0.10507 0.07519 0.0
C558 C 0.39606 0.08086 0.07286 0.0
C559 C 0.37459 0.06971 0.08099 0.0
C560 C 0.41406 0.06675 0.06138 0.0
C561 C 0.42173 0.11815 0.06546 0.0
C562 C 0.40815 0.05223 0.04071 0.0
C563 C 0.42498 0.03881 0.02979 0.0
C564 C 0.44806 0.03974 0.03931 0.0
C565 C 0.45385 0.05413 0.06018 0.0
C566 C 0.43693 0.06737 0.07124 0.0
H567 H 0.41883 0.13639 0.06232 0.0
H568 H 0.43606 0.1179 0.07932 0.0
H569 H 0.42786 0.11026 0.04774 0.0
H570 H 0.39055 0.05143 0.03288 0.0
H571 H 0.41995 0.02792 0.01373 0.0
H572 H 0.21088 0.86417 0.55552 0.0
H573 H 0.17732 0.88199 0.53828 0.0
H574 H 0.17354 0.92508 0.60457 0.0
H575 H 0.20763 0.90811 0.62149 0.0
H576 H 0.13165 0.88326 0.5573 0.0
H577 H 0.17553 0.97122 0.54945 0.0
H578 H 0.19186 0.94661 0.55462 0.0
H579 H 0.1768 0.96008 0.58005 0.0
C580 C 0.20313 0.87769 0.56626 0.0
C581 C 0.21199 0.88481 0.58982 0.0
C582 C 0.18386 0.8877 0.55648 0.0
C583 C 0.1732 0.90504 0.57003 0.0
C584 C 0.18181 0.91201 0.59364 0.0
H585 H 0.05453 0.98552 0.54435 0.0
H586 H 0.08574 0.96534 0.56318 0.0
C587 C 0.20111 0.90209 0.60339 0.0
C588 C 0.1528 0.91561 0.55966 0.0
H589 H 0.13396 0.9668 0.54295 0.0
C590 C 0.13216 0.9015 0.55404 0.0
C591 C 0.1536 0.93941 0.55545 0.0
C592 C 0.1757 0.9552 0.55997 0.0
C593 C 0.11209 0.91067 0.54464 0.0
C594 C 0.11286 0.93447 0.54065 0.0
C595 C 0.13347 0.94857 0.54626 0.0
C596 C 0.09273 0.94509 0.52994 0.0
C597 C 0.0901 0.89497 0.53936 0.0
C598 C 0.08638 0.94021 0.50511 0.0
C599 C 0.0687 0.95176 0.4943 0.0
C600 C 0.0572 0.96836 0.5082 0.0
C601 C 0.06317 0.9728 0.53325 0.0
C602 C 0.08094 0.96132 0.54401 0.0
H603 H 0.09064 0.87817 0.54832 0.0
H604 H 0.074 0.90308 0.54595 0.0
H605 H 0.08854 0.89173 0.51899 0.0
H606 H 0.09555 0.92794 0.49391 0.0
H607 H 0.06438 0.94804 0.47495 0.0
H608 H 0.74551 0.40606 0.91781 0.0
H609 H 0.78227 0.425 0.93488 0.0
H610 H 0.82302 0.38306 0.88617 0.0
H611 H 0.78637 0.36435 0.86864 0.0
H612 H 0.81976 0.40481 0.95869 0.0
H613 H 0.8506 0.44938 0.8732 0.0
H614 H 0.82042 0.43745 0.8774 0.0
H615 H 0.84329 0.41901 0.86907 0.0
C616 C 0.76229 0.40101 0.91053 0.0
C617 C 0.76296 0.38374 0.89175 0.0
C618 C 0.78328 0.41176 0.92043 0.0
C619 C 0.80539 0.40565 0.9116 0.0
C620 C 0.80616 0.38829 0.89302 0.0
H621 H 0.94391 0.43638 0.97922 0.0
H622 H 0.90683 0.41788 0.96257 0.0
C623 C 0.78518 0.37745 0.88319 0.0
C624 C 0.82762 0.41723 0.92206 0.0
H625 H 0.87747 0.45108 0.9068 0.0
C626 C 0.83237 0.41495 0.94737 0.0
C627 C 0.84394 0.43067 0.90732 0.0
C628 C 0.8393 0.43451 0.88028 0.0
C629 C 0.85317 0.42543 0.95824 0.0
C630 C 0.86976 0.43839 0.94336 0.0
C631 C 0.86483 0.44098 0.91814 0.0
C632 C 0.89223 0.44962 0.95366 0.0
C633 C 0.85707 0.42285 0.98566 0.0
C634 C 0.89655 0.47361 0.95382 0.0
C635 C 0.91775 0.48427 0.96331 0.0
C636 C 0.93522 0.47114 0.97264 0.0
C637 C 0.93088 0.44707 0.97228 0.0
C638 C 0.90961 0.43644 0.96288 0.0
H639 H 0.8404 0.41705 0.99551 0.0
H640 H 0.86999 0.40987 0.98819 0.0
H641 H 0.86445 0.43932 0.99445 0.0
H642 H 0.88342 0.48411 0.9467 0.0
H643 H 0.92046 0.50282 0.96319 0.0
H644 H 0.74959 0.59041 0.42316 0.0
H645 H 0.71406 0.57384 0.44446 0.0
H646 H 0.67009 0.60328 0.39116 0.0
H647 H 0.70544 0.62047 0.3702 0.0
H648 H 0.65632 0.61115 0.44036 0.0
H649 H 0.66869 0.51895 0.42135 0.0
H650 H 0.69365 0.53524 0.43537 0.0
H651 H 0.68474 0.54165 0.4046 0.0
C652 C 0.73235 0.59342 0.41601 0.0
C653 C 0.73036 0.60673 0.39493 0.0
C654 C 0.71208 0.58372 0.42804 0.0
C655 C 0.68946 0.58706 0.41917 0.0
C656 C 0.6874 0.60035 0.39818 0.0
H657 H 0.55212 0.52036 0.45709 0.0
H658 H 0.58964 0.53368 0.4371 0.0
C659 C 0.70763 0.61003 0.38613 0.0
C660 C 0.66785 0.57752 0.43228 0.0
H661 H 0.63741 0.52739 0.44901 0.0
C662 C 0.65217 0.59284 0.44226 0.0
C663 C 0.6624 0.55361 0.4345 0.0
C664 C 0.67811 0.53634 0.42321 0.0
C665 C 0.63124 0.58493 0.45458 0.0
C666 C 0.62604 0.56105 0.45729 0.0
C667 C 0.6416 0.54569 0.44712 0.0
C668 C 0.6041 0.55175 0.46997 0.0
C669 C 0.61461 0.60217 0.46411 0.0
C670 C 0.60008 0.55703 0.49522 0.0
C671 C 0.57868 0.54945 0.50667 0.0
C672 C 0.56102 0.5364 0.49305 0.0
C673 C 0.56541 0.53046 0.468 0.0
C674 C 0.58682 0.53803 0.45658 0.0
H675 H 0.6184 0.61912 0.45554 0.0
H676 H 0.59589 0.59595 0.46037 0.0
H677 H 0.61669 0.60466 0.48453 0.0
H678 H 0.61338 0.56725 0.50598 0.0
H679 H 0.57582 0.55412 0.52605 0.0
H680 H 0.16554 0.31234 0.11465 0.0
H681 H 0.14397 0.34117 0.09462 0.0
H682 H 0.11194 0.28887 0.04435 0.0
H683 H 0.13321 0.25987 0.06458 0.0
H684 H 0.1419 0.3557 0.04649 0.0
H685 H 0.05478 0.31515 0.07764 0.0
H686 H 0.08251 0.30695 0.08922 0.0
H687 H 0.07218 0.29662 0.05911 0.0
C688 C 0.15416 0.30706 0.09909 0.0
C689 C 0.15082 0.28387 0.0913 0.0
C690 C 0.14183 0.32351 0.08771 0.0
C691 C 0.12604 0.31704 0.06834 0.0
C692 C 0.12362 0.29409 0.05967 0.0
H693 H 0.0571 0.42021 0.98613 0.0
H694 H 0.08043 0.38819 0.99599 0.0
C695 C 0.13579 0.27759 0.07118 0.0
C696 C 0.11135 0.3342 0.05813 0.0
H697 H 0.05415 0.34766 0.05299 0.0
C698 C 0.12271 0.35393 0.04775 0.0
C699 C 0.08633 0.33188 0.06013 0.0
C700 C 0.07318 0.31163 0.07232 0.0
C701 C 0.10971 0.37162 0.03958 0.0
C702 C 0.08469 0.36921 0.04142 0.0
C703 C 0.07333 0.34932 0.05144 0.0
C704 C 0.07 0.38783 0.03483 0.0
C705 C 0.12292 0.3931 0.03002 0.0
C706 C 0.05583 0.39764 0.05318 0.0
C707 C 0.04233 0.41563 0.04753 0.0
C708 C 0.0428 0.42411 0.02343 0.0
C709 C 0.05658 0.414 0.00489 0.0
C710 C 0.07 0.39587 0.01053 0.0
H711 H 0.14195 0.39436 0.03513 0.0
H712 H 0.12185 0.39287 0.00944 0.0
H713 H 0.11495 0.40868 0.03742 0.0
H714 H 0.05553 0.39162 0.07202 0.0
H715 H 0.03183 0.42314 0.06214 0.0
H716 H 0.62436 0.20006 0.8676 0.0
H717 H 0.60701 0.16453 0.88562 0.0
H718 H 0.56489 0.20383 0.93574 0.0
H719 H 0.58194 0.2394 0.91759 0.0
H720 H 0.60691 0.14836 0.93246 0.0
H721 H 0.51475 0.15946 0.90425 0.0
H722 H 0.53986 0.17708 0.89265 0.0
H723 H 0.52781 0.18297 0.92306 0.0
C724 C 0.61147 0.20116 0.88253 0.0
C725 C 0.6044 0.2226 0.89099 0.0
C726 C 0.60154 0.18081 0.89281 0.0
C727 C 0.58432 0.18141 0.91179 0.0
C728 C 0.57766 0.20283 0.92069 0.0
H729 H 0.53551 0.06041 0.9989 0.0
H730 H 0.55529 0.09738 0.9864 0.0
C731 C 0.58745 0.22317 0.91029 0.0
C732 C 0.57326 0.15961 0.92203 0.0
H733 H 0.52011 0.12846 0.93017 0.0
C734 C 0.58792 0.144 0.93199 0.0
C735 C 0.54849 0.15377 0.9212 0.0
C736 C 0.53181 0.16907 0.90951 0.0
C737 C 0.57854 0.12276 0.94102 0.0
C738 C 0.55373 0.11712 0.94055 0.0
C739 C 0.5391 0.13281 0.93075 0.0
C740 C 0.54257 0.09448 0.94851 0.0
C741 C 0.59537 0.10627 0.9502 0.0
C742 C 0.52854 0.08068 0.93163 0.0
C743 C 0.51709 0.05983 0.93882 0.0
C744 C 0.51944 0.05217 0.96307 0.0
C745 C 0.53363 0.06579 0.98002 0.0
C746 C 0.545 0.08686 0.97284 0.0
H747 H 0.61381 0.11067 0.94365 0.0
H748 H 0.59536 0.10701 0.97083 0.0
H749 H 0.5898 0.08838 0.94393 0.0
H750 H 0.52634 0.0861 0.91279 0.0
H751 H 0.50627 0.04972 0.92534 0.0
H752 H 0.91186 0.75706 0.4026 0.0
H753 H 0.92923 0.79385 0.41968 0.0
H754 H 0.8755 0.8288 0.38381 0.0
H755 H 0.85815 0.79212 0.36637 0.0
H756 H 0.94693 0.83318 0.39397 0.0
H757 H 0.87197 0.8514 0.45714 0.0
H758 H 0.87523 0.82326 0.44334 0.0
H759 H 0.86402 0.84519 0.42525 0.0
C760 C 0.90382 0.77257 0.39817 0.0
C761 C 0.88356 0.77161 0.38315 0.0
C762 C 0.91371 0.79357 0.40805 0.0
C763 C 0.90348 0.81399 0.40327 0.0
C764 C 0.8834 0.81317 0.38813 0.0
H765 H 0.96956 0.95291 0.42846 0.0
H766 H 0.95076 0.91729 0.40992 0.0
C767 C 0.87349 0.79218 0.37821 0.0
C768 C 0.91407 0.83617 0.41386 0.0
H769 H 0.90307 0.88084 0.45363 0.0
C770 C 0.93736 0.84363 0.40699 0.0
C771 C 0.90159 0.84961 0.43104 0.0
C772 C 0.87689 0.84194 0.43985 0.0
C773 C 0.94847 0.8643 0.41672 0.0
C774 C 0.93584 0.87797 0.43354 0.0
C775 C 0.91261 0.87042 0.44055 0.0
C776 C 0.94671 0.89978 0.44471 0.0
C777 C 0.97381 0.87112 0.40936 0.0
C778 C 0.95014 0.90193 0.47047 0.0
C779 C 0.96079 0.92226 0.48115 0.0
C780 C 0.9681 0.94094 0.46626 0.0
C781 C 0.96425 0.93886 0.44047 0.0
C782 C 0.95362 0.91847 0.42981 0.0
H783 H 0.98262 0.85644 0.40085 0.0
H784 H 0.97413 0.88481 0.39554 0.0
H785 H 0.98422 0.87799 0.42572 0.0
H786 H 0.94484 0.88772 0.4823 0.0
H787 H 0.96341 0.92324 0.50107 0.0
H788 H 0.32984 0.71063 0.61533 0.0
H789 H 0.34699 0.67408 0.60691 0.0
H790 H 0.40367 0.70892 0.56495 0.0
H791 H 0.38634 0.74551 0.5728 0.0
H792 H 0.38287 0.66681 0.54238 0.0
H793 H 0.40889 0.65782 0.64075 0.0
H794 H 0.37834 0.66253 0.6358 0.0
H795 H 0.4011 0.68467 0.62881 0.0
C796 C 0.34573 0.71046 0.60397 0.0
C797 C 0.35681 0.73093 0.59479 0.0
C798 C 0.35562 0.68962 0.59941 0.0
C799 C 0.37674 0.68895 0.58566 0.0
C800 C 0.38742 0.70919 0.57576 0.0
H801 H 0.48142 0.59191 0.57033 0.0
H802 H 0.45778 0.62405 0.58129 0.0
C803 C 0.37759 0.73005 0.58035 0.0
C804 C 0.38803 0.66723 0.58194 0.0
H805 H 0.41649 0.62746 0.61254 0.0
C806 C 0.39011 0.65809 0.55769 0.0
C807 C 0.39763 0.65615 0.60202 0.0
C808 C 0.39661 0.66581 0.62832 0.0
C809 C 0.40167 0.6381 0.55291 0.0
C810 C 0.41111 0.62691 0.57301 0.0
C811 C 0.40897 0.636 0.59728 0.0
C812 C 0.42462 0.60657 0.56889 0.0
C813 C 0.40437 0.6295 0.52636 0.0
C814 C 0.41357 0.58592 0.55911 0.0
C815 C 0.42701 0.56756 0.55288 0.0
C816 C 0.45164 0.56965 0.55642 0.0
C817 C 0.46245 0.58991 0.56739 0.0
C818 C 0.44901 0.60824 0.57364 0.0
H819 H 0.40019 0.6425 0.51282 0.0
H820 H 0.4227 0.62473 0.52271 0.0
H821 H 0.39208 0.61393 0.52307 0.0
H822 H 0.39468 0.58426 0.55568 0.0
H823 H 0.41827 0.55206 0.54451 0.0
H824 H 0.90165 0.83097 0.73841 0.0
H825 H 0.92966 0.84928 0.70856 0.0
H826 H 0.88653 0.90645 0.70507 0.0
H827 H 0.85818 0.88813 0.73423 0.0
H828 H 0.91857 0.86484 0.65857 0.0
H829 H 0.95512 0.93503 0.72242 0.0
H830 H 0.94004 0.90874 0.73335 0.0
H831 H 0.92331 0.93106 0.7222 0.0
C832 C 0.898 0.84733 0.7311 0.0
C833 C 0.87774 0.85817 0.73884 0.0
C834 C 0.9141 0.85781 0.71422 0.0
C835 C 0.9103 0.87934 0.70505 0.0
C836 C 0.88997 0.89002 0.7124 0.0
H837 H 0.95307 0.97965 0.60341 0.0
H838 H 0.9387 0.95563 0.63755 0.0
C839 C 0.87383 0.87955 0.72911 0.0
C840 C 0.92708 0.89064 0.6872 0.0
H841 H 0.96182 0.94031 0.67892 0.0
C842 C 0.92846 0.88112 0.66303 0.0
C843 C 0.93993 0.91177 0.69328 0.0
C844 C 0.93976 0.9222 0.71929 0.0
C845 C 0.94112 0.89304 0.64423 0.0
C846 C 0.953 0.91478 0.65003 0.0
C847 C 0.95266 0.92365 0.67456 0.0
C848 C 0.96337 0.92977 0.63044 0.0
C849 C 0.94044 0.88296 0.61803 0.0
C850 C 0.9824 0.92342 0.61549 0.0
C851 C 0.99062 0.93713 0.59585 0.0
C852 C 0.97995 0.95737 0.59107 0.0
C853 C 0.96156 0.96409 0.60666 0.0
C854 C 0.95336 0.95042 0.62618 0.0
H855 H 0.92723 0.86789 0.61599 0.0
H856 H 0.93612 0.89605 0.60467 0.0
H857 H 0.95814 0.87731 0.61293 0.0
H858 H 0.9906 0.90772 0.61878 0.0
H859 H 0.0049 0.93167 0.58411 0.0
H860 H 0.6336 0.10956 0.26327 0.0
H861 H 0.61523 0.09304 0.22512 0.0
H862 H 0.66767 0.1318 0.18127 0.0
H863 H 0.68649 0.14811 0.2194 0.0
H864 H 0.5974 0.12015 0.18611 0.0
H865 H 0.6671 0.06423 0.15294 0.0
H866 H 0.66511 0.07441 0.1849 0.0
H867 H 0.6765 0.09357 0.16146 0.0
C868 C 0.64146 0.11428 0.24552 0.0
C869 C 0.6615 0.13008 0.2443 0.0
C870 C 0.63088 0.10495 0.22379 0.0
C871 C 0.64025 0.11111 0.20049 0.0
C872 C 0.66039 0.12667 0.19914 0.0
H873 H 0.5869 0.06216 0.05386 0.0
H874 H 0.61059 0.08329 0.08651 0.0
C875 C 0.67096 0.1361 0.22089 0.0
C876 C 0.62818 0.10193 0.1777 0.0
H877 H 0.63324 0.06488 0.12797 0.0
C878 C 0.60526 0.10817 0.1733 0.0
C879 C 0.63867 0.08652 0.16099 0.0
C880 C 0.66314 0.07909 0.16524 0.0
C881 C 0.59227 0.09901 0.1528 0.0
C882 C 0.60237 0.08289 0.13661 0.0
C883 C 0.62562 0.07725 0.14049 0.0
C884 C 0.58833 0.07039 0.11677 0.0
C885 C 0.56779 0.10653 0.14873 0.0
C886 C 0.56831 0.05596 0.12312 0.0
C887 C 0.55489 0.04398 0.10466 0.0
C888 C 0.56135 0.04611 0.07954 0.0
C889 C 0.58156 0.06033 0.07313 0.0
C890 C 0.59506 0.07235 0.09169 0.0
H891 H 0.56551 0.12347 0.15801 0.0
H892 H 0.56409 0.10764 0.1286 0.0
H893 H 0.55446 0.09379 0.15675 0.0
H894 H 0.56314 0.05389 0.14241 0.0
H895 H 0.53945 0.03302 0.1101 0.0
H896 H 0.42149 0.6028 0.25346 0.0
H897 H 0.43759 0.58387 0.28867 0.0
H898 H 0.39104 0.61827 0.33865 0.0
H899 H 0.37483 0.63723 0.30357 0.0
H900 H 0.46059 0.60182 0.33042 0.0
H901 H 0.37727 0.5519 0.35751 0.0
H902 H 0.38069 0.56614 0.32829 0.0
H903 H 0.37454 0.5822 0.35638 0.0
C904 C 0.41475 0.60645 0.27196 0.0
C905 C 0.39673 0.62147 0.27561 0.0
C906 C 0.42391 0.59552 0.29208 0.0
C907 C 0.41525 0.59927 0.31631 0.0
C908 C 0.39759 0.61458 0.32009 0.0
H909 H 0.44971 0.55373 0.46284 0.0
H910 H 0.43385 0.57227 0.42726 0.0
C911 C 0.38835 0.62545 0.29998 0.0
C912 C 0.425 0.58752 0.33764 0.0
H913 H 0.40945 0.55205 0.3855 0.0
C914 C 0.44942 0.59083 0.34237 0.0
C915 C 0.41046 0.57315 0.35328 0.0
C916 C 0.38432 0.56792 0.34852 0.0
C917 C 0.45958 0.5806 0.36253 0.0
C918 C 0.44501 0.56636 0.37824 0.0
C919 C 0.42061 0.563 0.3735 0.0
C920 C 0.45471 0.55489 0.39976 0.0
C921 C 0.48575 0.58555 0.36721 0.0
C922 C 0.47148 0.53867 0.39615 0.0
C923 C 0.48058 0.52797 0.41647 0.0
C924 C 0.47306 0.53322 0.44088 0.0
C925 C 0.45601 0.54929 0.44437 0.0
C926 C 0.44688 0.55991 0.42403 0.0
H927 H 0.49321 0.601 0.35742 0.0
H928 H 0.48929 0.58815 0.38741 0.0
H929 H 0.49523 0.5707 0.36031 0.0
H930 H 0.47746 0.53417 0.37757 0.0
H931 H 0.49359 0.51564 0.41301 0.0
H932 H 0.13533 0.37993 0.80355 0.0
H933 H 0.11753 0.39848 0.83981 0.0
H934 H 0.07516 0.43548 0.79135 0.0
H935 H 0.09262 0.41671 0.75509 0.0
H936 H 0.11827 0.44299 0.85398 0.0
H937 H 0.02539 0.40853 0.83852 0.0
H938 H 0.04997 0.39752 0.82168 0.0
H939 H 0.03787 0.42334 0.81217 0.0
C940 C 0.12221 0.39202 0.80065 0.0
C941 C 0.11525 0.39676 0.77648 0.0
C942 C 0.11201 0.40256 0.82137 0.0
C943 C 0.09468 0.41806 0.81834 0.0
C944 C 0.08799 0.42309 0.7942 0.0
H945 H 0.05236 0.5215 0.92479 0.0
H946 H 0.07119 0.49962 0.89164 0.0
C947 C 0.09802 0.41241 0.77348 0.0
C948 C 0.08413 0.42947 0.84037 0.0
H949 H 0.03137 0.43965 0.86824 0.0
C950 C 0.09928 0.44212 0.85721 0.0
C951 C 0.05937 0.42801 0.84484 0.0
C952 C 0.04223 0.41342 0.82849 0.0
C953 C 0.09032 0.45385 0.87799 0.0
C954 C 0.0655 0.45339 0.8817 0.0
C955 C 0.05039 0.44023 0.86524 0.0
C956 C 0.05474 0.4666 0.90234 0.0
C957 C 0.10758 0.46635 0.89592 0.0
C958 C 0.03877 0.45542 0.91903 0.0
C959 C 0.0277 0.46796 0.93772 0.0
C960 C 0.03246 0.49189 0.9401 0.0
C961 C 0.04852 0.50305 0.9235 0.0
C962 C 0.05943 0.49053 0.90468 0.0
H963 H 0.12515 0.45919 0.89492 0.0
H964 H 0.1102 0.48468 0.89104 0.0
H965 H 0.10086 0.46542 0.91536 0.0
H966 H 0.03474 0.437 0.91749 0.0
H967 H 0.01518 0.45895 0.95008 0.0
H968 H 0.6948 0.84626 0.91002 0.0
H969 H 0.66287 0.86777 0.92741 0.0
H970 H 0.66609 0.9099 0.8629 0.0
H971 H 0.69844 0.88877 0.84574 0.0
H972 H 0.66494 0.93551 0.90468 0.0
H973 H 0.59414 0.86447 0.90874 0.0
H974 H 0.6202 0.85834 0.92505 0.0
H975 H 0.62156 0.86173 0.89191 0.0
C976 C 0.68845 0.85992 0.89943 0.0
C977 C 0.69899 0.86584 0.87652 0.0
C978 C 0.67017 0.87213 0.90932 0.0
C979 C 0.66181 0.89018 0.89625 0.0
C980 C 0.67222 0.89599 0.87326 0.0
H981 H 0.53273 0.95343 0.93723 0.0
H982 H 0.56326 0.93295 0.91577 0.0
C983 C 0.69068 0.88395 0.8635 0.0
C984 C 0.64301 0.90372 0.90707 0.0
H985 H 0.58707 0.89899 0.93163 0.0
C986 C 0.64783 0.92755 0.91039 0.0
C987 C 0.62059 0.89337 0.91418 0.0
C988 C 0.6137 0.86811 0.90955 0.0
C989 C 0.63101 0.94128 0.9211 0.0
C990 C 0.60905 0.93076 0.92936 0.0
C991 C 0.60404 0.907 0.92556 0.0
C992 C 0.59094 0.94404 0.94195 0.0
C993 C 0.63685 0.96693 0.92307 0.0
C994 C 0.59634 0.95703 0.96385 0.0
C995 C 0.579 0.96899 0.97603 0.0
C996 C 0.55581 0.9678 0.96676 0.0
C997 C 0.55042 0.95466 0.9449 0.0
C998 C 0.56783 0.94294 0.9326 0.0
H999 H 0.65065 0.97272 0.90929 0.0
H1000 H 0.62089 0.97631 0.92018 0.0
H1001 H 0.64384 0.97167 0.94188 0.0
H1002 H 0.61388 0.95762 0.97178 0.0
H1003 H 0.58365 0.97874 0.99298 0.0
H1004 H 0.82938 0.15051 0.39251 0.0
H1005 H 0.86287 0.13097 0.40731 0.0
H1006 H 0.81598 0.09169 0.45669 0.0
H1007 H 0.78238 0.11104 0.44183 0.0
H1008 H 0.88126 0.12877 0.45393 0.0
H1009 H 0.84865 0.04204 0.41818 0.0
H1010 H 0.83592 0.06774 0.40904 0.0
H1011 H 0.82765 0.05504 0.43822 0.0
C1012 C 0.82626 0.13785 0.40668 0.0
C1013 C 0.80328 0.13219 0.41595 0.0
C1014 C 0.84536 0.12664 0.41501 0.0
C1015 C 0.84179 0.1096 0.43271 0.0
C1016 C 0.81898 0.10438 0.44253 0.0
H1017 H 0.94163 0.05381 0.5276 0.0
H1018 H 0.91271 0.07625 0.50828 0.0
C1019 C 0.79985 0.11547 0.4341 0.0
C1020 C 0.86196 0.0974 0.44108 0.0
H1021 H 0.88096 0.04396 0.44646 0.0
C1022 C 0.88131 0.11025 0.45214 0.0
C1023 C 0.86216 0.07328 0.43824 0.0
C1024 C 0.8426 0.05872 0.42504 0.0
C1025 C 0.90054 0.09951 0.46125 0.0
C1026 C 0.9001 0.07529 0.45967 0.0
C1027 C 0.88113 0.06252 0.44785 0.0
C1028 C 0.91864 0.06273 0.47099 0.0
C1029 C 0.92117 0.11421 0.47237 0.0
C1030 C 0.93123 0.04737 0.45649 0.0
C1031 C 0.94754 0.0343 0.46756 0.0
C1032 C 0.95141 0.0364 0.49328 0.0
C1033 C 0.93902 0.05196 0.5077 0.0
C1034 C 0.92265 0.06492 0.49666 0.0
H1035 H 0.92227 0.13189 0.46523 0.0
H1036 H 0.91876 0.11552 0.49285 0.0
H1037 H 0.9382 0.10665 0.46831 0.0
H1038 H 0.92825 0.04534 0.43666 0.0
H1039 H 0.95685 0.02236 0.45606 0.0
H1040 H 0.23863 0.64517 0.08484 0.0
H1041 H 0.20182 0.62812 0.0662 0.0
H1042 H 0.1948 0.57834 0.1237 0.0
H1043 H 0.2318 0.59499 0.14227 0.0
H1044 H 0.19059 0.58248 0.04832 0.0
H1045 H 0.13026 0.60644 0.1252 0.0
H1046 H 0.16018 0.61941 0.12212 0.0
H1047 H 0.15485 0.59131 0.13461 0.0
C1048 C 0.22941 0.63047 0.09345 0.0
C1049 C 0.23826 0.62152 0.11515 0.0
C1050 C 0.20827 0.62083 0.08282 0.0
C1051 C 0.19538 0.60216 0.09373 0.0
C1052 C 0.20419 0.59305 0.11524 0.0
H1053 H 0.08437 0.50821 0.02841 0.0
H1054 H 0.12114 0.52645 0.04596 0.0
C1055 C 0.22536 0.60263 0.12586 0.0
C1056 C 0.17296 0.59197 0.08232 0.0
H1057 H 0.11354 0.58135 0.09332 0.0
C1058 C 0.17373 0.58227 0.05812 0.0
C1059 C 0.15093 0.59195 0.09501 0.0
C1060 C 0.14884 0.60301 0.12059 0.0
C1061 C 0.15314 0.57219 0.04648 0.0
C1062 C 0.13123 0.57158 0.05946 0.0
C1063 C 0.13038 0.58166 0.08346 0.0
C1064 C 0.10896 0.56056 0.04845 0.0
C1065 C 0.15496 0.56252 0.02025 0.0
C1066 C 0.08971 0.57359 0.04437 0.0
C1067 C 0.06859 0.5632 0.03435 0.0
C1068 C 0.06621 0.5395 0.02842 0.0
C1069 C 0.08554 0.5265 0.03265 0.0
C1070 C 0.10667 0.53692 0.04258 0.0
H1071 H 0.17151 0.56932 0.01081 0.0
H1072 H 0.15506 0.54357 0.02072 0.0
H1073 H 0.13957 0.56653 0.00906 0.0
H1074 H 0.09105 0.59184 0.04888 0.0
H1075 H 0.05408 0.57375 0.03146 0.0
H1076 H 0.29767 0.37939 0.63412 0.0
H1077 H 0.33327 0.39685 0.6138 0.0
H1078 H 0.28987 0.43413 0.56673 0.0
H1079 H 0.25416 0.41681 0.58708 0.0
H1080 H 0.34627 0.39345 0.56505 0.0
H1081 H 0.33773 0.48463 0.59283 0.0
H1082 H 0.32042 0.46121 0.60715 0.0
H1083 H 0.31213 0.47096 0.57738 0.0
C1084 C 0.2957 0.3913 0.61943 0.0
C1085 C 0.2731 0.39675 0.61223 0.0
C1086 C 0.31606 0.40133 0.60791 0.0
C1087 C 0.31425 0.41704 0.58899 0.0
C1088 C 0.29172 0.42249 0.5817 0.0
H1089 H 0.42807 0.45269 0.483 0.0
H1090 H 0.39039 0.43931 0.50262 0.0
C1091 C 0.27133 0.41254 0.59331 0.0
C1092 C 0.33596 0.42691 0.57626 0.0
H1093 H 0.36766 0.47737 0.56293 0.0
C1094 C 0.35097 0.4118 0.56462 0.0
C1095 C 0.34219 0.45084 0.57594 0.0
C1096 C 0.32741 0.46787 0.58918 0.0
C1097 C 0.37194 0.41994 0.55254 0.0
C1098 C 0.37783 0.4439 0.55161 0.0
C1099 C 0.36295 0.45903 0.56342 0.0
C1100 C 0.39982 0.45348 0.53918 0.0
C1101 C 0.38789 0.40277 0.54143 0.0
C1102 C 0.41719 0.46671 0.55297 0.0
C1103 C 0.43861 0.47454 0.54175 0.0
C1104 C 0.44299 0.46927 0.51654 0.0
C1105 C 0.42524 0.45678 0.50253 0.0
C1106 C 0.40378 0.44904 0.51374 0.0
H1107 H 0.38402 0.38549 0.54924 0.0
H1108 H 0.38508 0.40117 0.52106 0.0
H1109 H 0.40684 0.40843 0.54472 0.0
H1110 H 0.41443 0.47047 0.57259 0.0
H1111 H 0.45195 0.48425 0.55296 0.0
H1112 H 0.87602 0.7176 0.8712 0.0
H1113 H 0.89756 0.69032 0.89354 0.0
H1114 H 0.84328 0.68688 0.95048 0.0
H1115 H 0.82119 0.71384 0.92786 0.0
H1116 H 0.91435 0.69592 0.94385 0.0
H1117 H 0.85081 0.61881 0.92922 0.0
H1118 H 0.85038 0.64388 0.91057 0.0
H1119 H 0.83892 0.64437 0.94179 0.0
C1120 C 0.86844 0.71078 0.88827 0.0
C1121 C 0.84679 0.71771 0.89767 0.0
C1122 C 0.88088 0.69537 0.90111 0.0
C1123 C 0.87189 0.68651 0.92351 0.0
C1124 C 0.85033 0.69337 0.93305 0.0
H1125 H 0.93158 0.57994 0.00819 0.0
H1126 H 0.90734 0.61088 0.99704 0.0
C1127 C 0.83786 0.70886 0.92022 0.0
C1128 C 0.88544 0.6703 0.93684 0.0
H1129 H 0.88541 0.614 0.95152 0.0
C1130 C 0.90798 0.67804 0.94574 0.0
C1131 C 0.87694 0.64708 0.93937 0.0
C1132 C 0.85301 0.63787 0.92963 0.0
C1133 C 0.92254 0.66299 0.95666 0.0
C1134 C 0.91444 0.63956 0.95827 0.0
C1135 C 0.89154 0.632 0.95023 0.0
C1136 C 0.93005 0.62226 0.96647 0.0
C1137 C 0.9465 0.67228 0.96622 0.0
C1138 C 0.9508 0.6185 0.95297 0.0
C1139 C 0.96462 0.60092 0.95929 0.0
C1140 C 0.95778 0.58672 0.97908 0.0
C1141 C 0.93724 0.59072 0.99288 0.0
C1142 C 0.9234 0.60833 0.98654 0.0
H1143 H 0.94697 0.69098 0.97076 0.0
H1144 H 0.95133 0.66329 0.98306 0.0
H1145 H 0.96011 0.66966 0.95163 0.0
H1146 H 0.95595 0.62872 0.93708 0.0
H1147 H 0.98031 0.59808 0.94828 0.0
H1148 H 0.38296 0.79999 0.14233 0.0
H1149 H 0.39961 0.83563 0.12405 0.0
H1150 H 0.43717 0.79656 0.06946 0.0
H1151 H 0.42051 0.76086 0.08756 0.0
H1152 H 0.44507 0.85255 0.11946 0.0
H1153 H 0.40577 0.83995 0.02574 0.0
H1154 H 0.396 0.82245 0.05151 0.0
H1155 H 0.42237 0.81661 0.03427 0.0
C1156 C 0.39482 0.79896 0.12647 0.0
C1157 C 0.40032 0.77751 0.11639 0.0
C1158 C 0.40423 0.81937 0.11594 0.0
C1159 C 0.41933 0.81884 0.09506 0.0
C1160 C 0.42506 0.79747 0.08511 0.0
H1161 H 0.51931 0.93029 0.04957 0.0
H1162 H 0.49931 0.89446 0.06409 0.0
C1163 C 0.41556 0.77704 0.09555 0.0
C1164 C 0.42984 0.84066 0.08442 0.0
H1165 H 0.43636 0.87037 0.0307 0.0
C1166 C 0.44304 0.85647 0.10008 0.0
C1167 C 0.42694 0.84602 0.0592 0.0
C1168 C 0.4118 0.83048 0.04175 0.0
C1169 C 0.45385 0.87714 0.09115 0.0
C1170 C 0.45186 0.88201 0.06568 0.0
C1171 C 0.43816 0.86651 0.05013 0.0
C1172 C 0.46406 0.90304 0.05495 0.0
C1173 C 0.46704 0.89372 0.10921 0.0
C1174 C 0.45105 0.91938 0.04384 0.0
C1175 C 0.46252 0.93987 0.03526 0.0
C1176 C 0.48719 0.9443 0.03763 0.0
C1177 C 0.50025 0.92748 0.04775 0.0
C1178 C 0.48882 0.90704 0.05621 0.0
H1179 H 0.46124 0.8907 0.12871 0.0
H1180 H 0.48626 0.89137 0.10791 0.0
H1181 H 0.46445 0.91178 0.1049 0.0
H1182 H 0.43196 0.91658 0.04244 0.0
H1183 H 0.45203 0.95247 0.0274 0.0
H1184 H 0.08793 0.23047 0.64594 0.0
H1185 H 0.0711 0.19352 0.62866 0.0
H1186 H 0.12812 0.19319 0.57489 0.0
H1187 H 0.14493 0.23024 0.59181 0.0
H1188 H 0.05613 0.18253 0.57971 0.0
H1189 H 0.12854 0.13023 0.60694 0.0
H1190 H 0.12511 0.15855 0.6202 0.0
H1191 H 0.13822 0.15523 0.58985 0.0
C1192 C 0.09683 0.22262 0.63034 0.0
C1193 C 0.11785 0.23331 0.62033 0.0
C1194 C 0.08725 0.20145 0.62059 0.0
C1195 C 0.09856 0.19047 0.60076 0.0
C1196 C 0.1194 0.20113 0.59057 0.0
H1197 H 0.03972 0.08178 0.50085 0.0
H1198 H 0.05701 0.11769 0.51995 0.0
C1199 C 0.12899 0.22231 0.60028 0.0
C1200 C 0.08819 0.16815 0.59028 0.0
H1201 H 0.09947 0.11217 0.57961 0.0
C1202 C 0.06555 0.16712 0.57976 0.0
C1203 C 0.10043 0.14803 0.59063 0.0
C1204 C 0.12433 0.14791 0.60271 0.0
C1205 C 0.055 0.14659 0.56912 0.0
C1206 C 0.06756 0.12665 0.56874 0.0
C1207 C 0.08999 0.12755 0.57972 0.0
C1208 C 0.05765 0.10467 0.55708 0.0
C1209 C 0.03038 0.14633 0.55861 0.0
C1210 C 0.05288 0.08525 0.57151 0.0
C1211 C 0.04306 0.06461 0.56064 0.0
C1212 C 0.038 0.06299 0.53507 0.0
C1213 C 0.04329 0.0824 0.5206 0.0
C1214 C 0.05305 0.10301 0.5315 0.0
H1215 H 0.021 0.16118 0.56578 0.0
H1216 H 0.03162 0.14725 0.53807 0.0
H1217 H 0.01962 0.13023 0.56316 0.0
H1218 H 0.05644 0.08615 0.59127 0.0
H1219 H 0.0393 0.05001 0.57234 0.0
H1220 H 0.68479 0.31191 0.37602 0.0
H1221 H 0.66482 0.34635 0.38745 0.0
H1222 H 0.61665 0.30642 0.43495 0.0
H1223 H 0.63626 0.27188 0.4234 0.0
H1224 H 0.61624 0.35241 0.38021 0.0
H1225 H 0.64108 0.36184 0.47972 0.0
H1226 H 0.6564 0.34433 0.45759 0.0
H1227 H 0.62838 0.3337 0.47057 0.0
C1228 C 0.66995 0.31047 0.38891 0.0
C1229 C 0.66211 0.28918 0.39883 0.0
C1230 C 0.65866 0.33016 0.39548 0.0
C1231 C 0.63948 0.32891 0.41223 0.0
C1232 C 0.63174 0.30778 0.42237 0.0
H1233 H 0.52594 0.41522 0.43858 0.0
H1234 H 0.55178 0.38589 0.42403 0.0
C1235 C 0.64299 0.28808 0.41578 0.0
C1236 C 0.62679 0.34948 0.41823 0.0
H1237 H 0.61045 0.38416 0.46649 0.0
C1238 C 0.61513 0.35952 0.39902 0.0
C1239 C 0.62563 0.35878 0.44273 0.0
C1240 C 0.63871 0.34927 0.46383 0.0
C1241 C 0.60163 0.37825 0.40384 0.0
C1242 C 0.59964 0.38691 0.42853 0.0
C1243 C 0.61193 0.37734 0.4476 0.0
C1244 C 0.58429 0.40543 0.43523 0.0
C1245 C 0.58962 0.3886 0.38253 0.0
C1246 C 0.59405 0.42603 0.44637 0.0
C1247 C 0.57933 0.44274 0.45473 0.0
C1248 C 0.55465 0.43896 0.45224 0.0
C1249 C 0.54493 0.41856 0.44058 0.0
C1250 C 0.55966 0.40187 0.43218 0.0
H1251 H 0.59791 0.38418 0.36437 0.0
H1252 H 0.57074 0.3818 0.38202 0.0
H1253 H 0.59027 0.40758 0.38488 0.0
H1254 H 0.61301 0.429 0.44897 0.0
H1255 H 0.58723 0.45833 0.46372 0.0
loop_
_geom_bond_atom_site_label_1
_geom_bond_atom_site_label_2
_geom_bond_distance
_geom_bond_site_symmetry_2
_ccdc_geom_bond_type
C0 C1 1.386 . S
C0 C2 1.397 . S
C0 H24 0.931 . S
C1 C0 1.386 . S
C1 C5 1.397 . S
C2 C0 1.397 . S
C2 C3 1.384 . S
C2 H25 0.930 . S
C3 C2 1.384 . S
C3 C4 1.377 . S
C3 C6 1.481 . S
C4 C3 1.377 . S
C4 C5 1.389 . S
C4 H26 0.929 . S
C5 C1 1.397 . S
C5 C4 1.389 . S
C5 H27 0.931 . S
C6 C3 1.481 . S
C6 C7 1.387 . S
C6 C11 1.390 . S
C7 C6 1.387 . S
C7 C8 1.401 . S
C7 H28 0.930 . S
C8 C7 1.401 . S
C8 C9 1.376 . S
C8 C17 1.511 . S
C9 C8 1.376 . S
C9 C10 1.392 . S
C9 H30 0.931 . S
C10 C9 1.392 . S
C10 C11 1.361 . S
C10 C12 1.500 . S
C11 C6 1.390 . S
C11 C10 1.361 . S
C11 H29 0.931 . S
C12 C10 1.500 . S
C12 C13 1.371 . S
C12 C14 1.365 . S
C13 C12 1.371 . S
C13 C23 1.386 . S
C13 H31 0.931 . S
C14 C12 1.365 . S
C14 C15 1.409 . S
C14 H32 0.929 . S
C15 C14 1.409 . S
C15 C16 1.380 . S
C15 H33 0.930 . S
C16 C15 1.380 . S
C16 C23 1.357 . S
C17 C8 1.511 . S
C17 C18 1.341 . S
C17 C19 1.371 . S
C18 C17 1.341 . S
C18 C22 1.394 . S
C18 H34 0.930 . S
C19 C17 1.371 . S
C19 C20 1.392 . S
C19 H35 0.931 . S
C20 C19 1.392 . S
C20 C21 1.331 . S
C20 H38 0.932 . S
C21 C20 1.331 . S
C21 C22 1.336 . S
C22 C18 1.394 . S
C22 C21 1.336 . S
C22 H37 0.929 . S
C23 C13 1.386 . S
C23 C16 1.357 . S
C23 H36 0.928 . S
H24 C0 0.931 . S
H25 C2 0.930 . S
H26 C4 0.929 . S
H27 C5 0.931 . S
H28 C7 0.930 . S
H29 C11 0.931 . S
H30 C9 0.931 . S
H31 C13 0.931 . S
H32 C14 0.929 . S
H33 C15 0.930 . S
H34 C18 0.930 . S
H35 C19 0.931 . S
H36 C23 0.928 . S
H37 C22 0.929 . S
H38 C20 0.932 . S
C39 C40 1.386 . S
C39 C41 1.397 . S
C39 H63 0.931 . S
C40 C39 1.386 . S
C40 C44 1.397 . S
C41 C39 1.397 . S
C41 C42 1.384 . S
C41 H64 0.930 . S
C42 C41 1.384 . S
C42 C43 1.377 . S
C42 C45 1.481 . S
C43 C42 1.377 . S
C43 C44 1.389 . S
C43 H65 0.929 . S
C44 C40 1.397 . S
C44 C43 1.389 . S
C44 H66 0.931 . S
C45 C42 1.481 . S
C45 C46 1.387 . S
C45 C50 1.390 . S
C46 C45 1.387 . S
C46 C47 1.401 . S
C46 H67 0.930 . S
C47 C46 1.401 . S
C47 C48 1.376 . S
C47 C56 1.511 . S
C48 C47 1.376 . S
C48 C49 1.392 . S
C48 H69 0.931 . S
C49 C48 1.392 . S
C49 C50 1.361 . S
C49 C51 1.500 . S
C50 C45 1.390 . S
C50 C49 1.361 . S
C50 H68 0.931 . S
C51 C49 1.500 . S
C51 C52 1.371 . S
C51 C53 1.365 . S
C52 C51 1.371 . S
C52 C62 1.386 . S
C52 H70 0.931 . S
C53 C51 1.365 . S
C53 C54 1.409 . S
C53 H71 0.929 . S
C54 C53 1.409 . S
C54 C55 1.380 . S
C54 H72 0.930 . S
C55 C54 1.380 . S
C55 C62 1.357 . S
C56 C47 1.511 . S
C56 C57 1.341 . S
C56 C58 1.371 . S
C57 C56 1.341 . S
C57 C61 1.394 . S
C57 H73 0.930 . S
C58 C56 1.371 . S
C58 C59 1.392 . S
C58 H74 0.931 . S
C59 C58 1.392 . S
C59 C60 1.331 . S
C59 H77 0.932 . S
C60 C59 1.331 . S
C60 C61 1.336 . S
C61 C57 1.394 . S
C61 C60 1.336 . S
C61 H76 0.929 . S
C62 C52 1.386 . S
C62 C55 1.357 . S
C62 H75 0.928 . S
H63 C39 0.931 . S
H64 C41 0.930 . S
H65 C43 0.929 . S
H66 C44 0.931 . S
H67 C46 0.930 . S
H68 C50 0.931 . S
H69 C48 0.931 . S
H70 C52 0.931 . S
H71 C53 0.929 . S
H72 C54 0.930 . S
H73 C57 0.930 . S
H74 C58 0.931 . S
H75 C62 0.928 . S
H76 C61 0.929 . S
H77 C59 0.932 . S
C78 C79 1.386 . S
C78 C80 1.397 . S
C78 H102 0.931 . S
C79 C78 1.386 . S
C79 C83 1.397 . S
C80 C78 1.397 . S
C80 C81 1.384 . S
C80 H103 0.930 . S
C81 C80 1.384 . S
C81 C82 1.377 . S
C81 C84 1.481 . S
C82 C81 1.377 . S
C82 C83 1.389 . S
C82 H104 0.929 . S
C83 C79 1.397 . S
C83 C82 1.389 . S
C83 H105 0.931 . S
C84 C81 1.481 . S
C84 C85 1.387 . S
C84 C89 1.390 . S
C85 C84 1.387 . S
C85 C86 1.401 . S
C85 H106 0.930 . S
C86 C85 1.401 . S
C86 C87 1.376 . S
C86 C95 1.511 . S
C87 C86 1.376 . S
C87 C88 1.392 . S
C87 H108 0.931 . S
C88 C87 1.392 . S
C88 C89 1.361 . S
C88 C90 1.500 . S
C89 C84 1.390 . S
C89 C88 1.361 . S
C89 H107 0.931 . S
C90 C88 1.500 . S
C90 C91 1.371 . S
C90 C92 1.365 . S
C91 C90 1.371 . S
C91 C101 1.386 . S
C91 H109 0.931 . S
C92 C90 1.365 . S
C92 C93 1.409 . S
C92 H110 0.929 . S
C93 C92 1.409 . S
C93 C94 1.380 . S
C93 H111 0.930 . S
C94 C93 1.380 . S
C94 C101 1.357 . S
C95 C86 1.511 . S
C95 C96 1.341 . S
C95 C97 1.371 . S
C96 C95 1.341 . S
C96 C100 1.394 . S
C96 H112 0.930 . S
C97 C95 1.371 . S
C97 C98 1.392 . S
C97 H113 0.931 . S
C98 C97 1.392 . S
C98 C99 1.331 . S
C98 H116 0.932 . S
C99 C98 1.331 . S
C99 C100 1.336 . S
C100 C96 1.394 . S
C100 C99 1.336 . S
C100 H115 0.929 . S
C101 C91 1.386 . S
C101 C94 1.357 . S
C101 H114 0.928 . S
H102 C78 0.931 . S
H103 C80 0.930 . S
H104 C82 0.929 . S
H105 C83 0.931 . S
H106 C85 0.930 . S
H107 C89 0.931 . S
H108 C87 0.931 . S
H109 C91 0.931 . S
H110 C92 0.929 . S
H111 C93 0.930 . S
H112 C96 0.930 . S
H113 C97 0.931 . S
H114 C101 0.928 . S
H115 C100 0.929 . S
H116 C98 0.932 . S
C117 C118 1.386 . S
C117 C119 1.397 . S
C117 H141 0.931 . S
C118 C117 1.386 . S
C118 C122 1.397 . S
C119 C117 1.397 . S
C119 C120 1.384 . S
C119 H142 0.930 . S
C120 C119 1.384 . S
C120 C121 1.377 . S
C120 C123 1.481 . S
C121 C120 1.377 . S
C121 C122 1.389 . S
C121 H143 0.929 . S
C122 C118 1.397 . S
C122 C121 1.389 . S
C122 H144 0.931 . S
C123 C120 1.481 . S
C123 C124 1.387 . S
C123 C128 1.390 . S
C124 C123 1.387 . S
C124 C125 1.401 . S
C124 H145 0.930 . S
C125 C124 1.401 . S
C125 C126 1.376 . S
C125 C134 1.511 . S
C126 C125 1.376 . S
C126 C127 1.392 . S
C126 H147 0.931 . S
C127 C126 1.392 . S
C127 C128 1.361 . S
C127 C129 1.500 . S
C128 C123 1.390 . S
C128 C127 1.361 . S
C128 H146 0.931 . S
C129 C127 1.500 . S
C129 C130 1.371 . S
C129 C131 1.365 . S
C130 C129 1.371 . S
C130 C140 1.386 . S
C130 H148 0.931 . S
C131 C129 1.365 . S
C131 C132 1.409 . S
C131 H149 0.929 . S
C132 C131 1.409 . S
C132 C133 1.380 . S
C132 H150 0.930 . S
C133 C132 1.380 . S
C133 C140 1.357 . S
C134 C125 1.511 . S
C134 C135 1.341 . S
C134 C136 1.371 . S
C135 C134 1.341 . S
C135 C139 1.394 . S
C135 H151 0.930 . S
C136 C134 1.371 . S
C136 C137 1.392 . S
C136 H152 0.931 . S
C137 C136 1.392 . S
C137 C138 1.331 . S
C137 H155 0.932 . S
C138 C137 1.331 . S
C138 C139 1.336 . S
C139 C135 1.394 . S
C139 C138 1.336 . S
C139 H154 0.929 . S
C140 C130 1.386 . S
C140 C133 1.357 . S
C140 H153 0.928 . S
H141 C117 0.931 . S
H142 C119 0.930 . S
H143 C121 0.929 . S
H144 C122 0.931 . S
H145 C124 0.930 . S
H146 C128 0.931 . S
H147 C126 0.931 . S
H148 C130 0.931 . S
H149 C131 0.929 . S
H150 C132 0.930 . S
H151 C135 0.930 . S
H152 C136 0.931 . S
H153 C140 0.928 . S
H154 C139 0.929 . S
H155 C137 0.932 . S
C156 C157 1.386 . S
C156 C158 1.397 . S
C156 H180 0.931 . S
C157 C156 1.386 . S
C157 C161 1.397 . S
C158 C156 1.397 . S
C158 C159 1.384 . S
C158 H181 0.930 . S
C159 C158 1.384 . S
C159 C160 1.377 . S
C159 C162 1.481 . S
C160 C159 1.377 . S
C160 C161 1.389 . S
C160 H182 0.929 . S
C161 C157 1.397 . S
C161 C160 1.389 . S
C161 H183 0.931 . S
C162 C159 1.481 . S
C162 C163 1.387 . S
C162 C167 1.390 . S
C163 C162 1.387 . S
C163 C164 1.401 . S
C163 H184 0.930 . S
C164 C163 1.401 . S
C164 C165 1.376 . S
C164 C173 1.511 . S
C165 C164 1.376 . S
C165 C166 1.392 . S
C165 H186 0.931 . S
C166 C165 1.392 . S
C166 C167 1.361 . S
C166 C168 1.500 . S
C167 C162 1.390 . S
C167 C166 1.361 . S
C167 H185 0.931 . S
C168 C166 1.500 . S
C168 C169 1.371 . S
C168 C170 1.365 . S
C169 C168 1.371 . S
C169 C179 1.386 . S
C169 H187 0.931 . S
C170 C168 1.365 . S
C170 C171 1.409 . S
C170 H188 0.929 . S
C171 C170 1.409 . S
C171 C172 1.380 . S
C171 H189 0.930 . S
C172 C171 1.380 . S
C172 C179 1.357 . S
C173 C164 1.511 . S
C173 C174 1.341 . S
C173 C175 1.371 . S
C174 C173 1.341 . S
C174 C178 1.394 . S
C174 H190 0.930 . S
C175 C173 1.371 . S
C175 C176 1.392 . S
C175 H191 0.931 . S
C176 C175 1.392 . S
C176 C177 1.331 . S
C176 H194 0.932 . S
C177 C176 1.331 . S
C177 C178 1.336 . S
C178 C174 1.394 . S
C178 C177 1.336 . S
C178 H193 0.929 . S
C179 C169 1.386 . S
C179 C172 1.357 . S
C179 H192 0.928 . S
H180 C156 0.931 . S
H181 C158 0.930 . S
H182 C160 0.929 . S
H183 C161 0.931 . S
H184 C163 0.930 . S
H185 C167 0.931 . S
H186 C165 0.931 . S
H187 C169 0.931 . S
H188 C170 0.929 . S
H189 C171 0.930 . S
H190 C174 0.930 . S
H191 C175 0.931 . S
H192 C179 0.928 . S
H193 C178 0.929 . S
H194 C176 0.932 . S
C195 C196 1.386 . S
C195 C197 1.397 . S
C195 H219 0.931 . S
C196 C195 1.386 . S
C196 C200 1.397 . S
C197 C195 1.397 . S
C197 C198 1.384 . S
C197 H220 0.930 . S
C198 C197 1.384 . S
C198 C199 1.377 . S
C198 C201 1.481 . S
C199 C198 1.377 . S
C199 C200 1.389 . S
C199 H221 0.929 . S
C200 C196 1.397 . S
C200 C199 1.389 . S
C200 H222 0.931 . S
C201 C198 1.481 . S
C201 C202 1.387 . S
C201 C206 1.390 . S
C202 C201 1.387 . S
C202 C203 1.401 . S
C202 H223 0.930 . S
C203 C202 1.401 . S
C203 C204 1.376 . S
C203 C212 1.511 . S
C204 C203 1.376 . S
C204 C205 1.392 . S
C204 H225 0.931 . S
C205 C204 1.392 . S
C205 C206 1.361 . S
C205 C207 1.500 . S
C206 C201 1.390 . S
C206 C205 1.361 . S
C206 H224 0.931 . S
C207 C205 1.500 . S
C207 C208 1.371 . S
C207 C209 1.365 . S
C208 C207 1.371 . S
C208 C218 1.386 . S
C208 H226 0.931 . S
C209 C207 1.365 . S
C209 C210 1.409 . S
C209 H227 0.929 . S
C210 C209 1.409 . S
C210 C211 1.380 . S
C210 H228 0.930 . S
C211 C210 1.380 . S
C211 C218 1.357 . S
C212 C203 1.511 . S
C212 C213 1.341 . S
C212 C214 1.371 . S
C213 C212 1.341 . S
C213 C217 1.394 . S
C213 H229 0.930 . S
C214 C212 1.371 . S
C214 C215 1.392 . S
C214 H230 0.931 . S
C215 C214 1.392 . S
C215 C216 1.331 . S
C215 H233 0.932 . S
C216 C215 1.331 . S
C216 C217 1.336 . S
C217 C213 1.394 . S
C217 C216 1.336 . S
C217 H232 0.929 . S
C218 C208 1.386 . S
C218 C211 1.357 . S
C218 H231 0.928 . S
H219 C195 0.931 . S
H220 C197 0.930 . S
H221 C199 0.929 . S
H222 C200 0.931 . S
H223 C202 0.930 . S
H224 C206 0.931 . S
H225 C204 0.931 . S
H226 C208 0.931 . S
H227 C209 0.929 . S
H228 C210 0.930 . S
H229 C213 0.930 . S
H230 C214 0.931 . S
H231 C218 0.928 . S
H232 C217 0.929 . S
H233 C215 0.932 . S
C234 C235 1.386 . S
C234 C236 1.397 . S
C234 H258 0.931 . S
C235 C234 1.386 . S
C235 C239 1.397 . S
C236 C234 1.397 . S
C236 C237 1.384 . S
C236 H259 0.930 . S
C237 C236 1.384 . S
C237 C238 1.377 . S
C237 C240 1.481 . S
C238 C237 1.377 . S
C238 C239 1.389 . S
C238 H260 0.929 . S
C239 C235 1.397 . S
C239 C238 1.389 . S
C239 H261 0.931 . S
C240 C237 1.481 . S
C240 C241 1.387 . S
C240 C245 1.390 . S
C241 C240 1.387 . S
C241 C242 1.401 . S
C241 H262 0.930 . S
C242 C241 1.401 . S
C242 C243 1.376 . S
C242 C251 1.511 . S
C243 C242 1.376 . S
C243 C244 1.392 . S
C243 H264 0.931 . S
C244 C243 1.392 . S
C244 C245 1.361 . S
C244 C246 1.500 . S
C245 C240 1.390 . S
C245 C244 1.361 . S
C245 H263 0.931 . S
C246 C244 1.500 . S
C246 C247 1.371 . S
C246 C248 1.365 . S
C247 C246 1.371 . S
C247 C257 1.386 . S
C247 H265 0.931 . S
C248 C246 1.365 . S
C248 C249 1.409 . S
C248 H266 0.929 . S
C249 C248 1.409 . S
C249 C250 1.380 . S
C249 H267 0.930 . S
C250 C249 1.380 . S
C250 C257 1.357 . S
C251 C242 1.511 . S
C251 C252 1.341 . S
C251 C253 1.371 . S
C252 C251 1.341 . S
C252 C256 1.394 . S
C252 H268 0.930 . S
C253 C251 1.371 . S
C253 C254 1.392 . S
C253 H269 0.931 . S
C254 C253 1.392 . S
C254 C255 1.331 . S
C254 H272 0.932 . S
C255 C254 1.331 . S
C255 C256 1.336 . S
C256 C252 1.394 . S
C256 C255 1.336 . S
C256 H271 0.929 . S
C257 C247 1.386 . S
C257 C250 1.357 . S
C257 H270 0.928 . S
H258 C234 0.931 . S
H259 C236 0.930 . S
H260 C238 0.929 . S
H261 C239 0.931 . S
H262 C241 0.930 . S
H263 C245 0.931 . S
H264 C243 0.931 . S
H265 C247 0.931 . S
H266 C248 0.929 . S
H267 C249 0.930 . S
H268 C252 0.930 . S
H269 C253 0.931 . S
H270 C257 0.928 . S
H271 C256 0.929 . S
H272 C254 0.932 . S
C273 C274 1.386 . S
C273 C275 1.397 . S
C273 H297 0.931 . S
C274 C273 1.386 . S
C274 C278 1.397 . S
C275 C273 1.397 . S
C275 C276 1.384 . S
C275 H298 0.930 . S
C276 C275 1.384 . S
C276 C277 1.377 . S
C276 C279 1.481 . S
C277 C276 1.377 . S
C277 C278 1.389 . S
C277 H299 0.929 . S
C278 C274 1.397 . S
C278 C277 1.389 . S
C278 H300 0.931 . S
C279 C276 1.481 . S
C279 C280 1.387 . S
C279 C284 1.390 . S
C280 C279 1.387 . S
C280 C281 1.401 . S
C280 H301 0.930 . S
C281 C280 1.401 . S
C281 C282 1.376 . S
C281 C290 1.511 . S
C282 C281 1.376 . S
C282 C283 1.392 . S
C282 H303 0.931 . S
C283 C282 1.392 . S
C283 C284 1.361 . S
C283 C285 1.500 . S
C284 C279 1.390 . S
C284 C283 1.361 . S
C284 H302 0.931 . S
C285 C283 1.500 . S
C285 C286 1.371 . S
C285 C287 1.365 . S
C286 C285 1.371 . S
C286 C296 1.386 . S
C286 H304 0.931 . S
C287 C285 1.365 . S
C287 C288 1.409 . S
C287 H305 0.929 . S
C288 C287 1.409 . S
C288 C289 1.380 . S
C288 H306 0.930 . S
C289 C288 1.380 . S
C289 C296 1.357 . S
C290 C281 1.511 . S
C290 C291 1.341 . S
C290 C292 1.371 . S
C291 C290 1.341 . S
C291 C295 1.394 . S
C291 H307 0.930 . S
C292 C290 1.371 . S
C292 C293 1.392 . S
C292 H308 0.931 . S
C293 C292 1.392 . S
C293 C294 1.331 . S
C293 H311 0.932 . S
C294 C293 1.331 . S
C294 C295 1.336 . S
C295 C291 1.394 . S
C295 C294 1.336 . S
C295 H310 0.929 . S
C296 C286 1.386 . S
C296 C289 1.357 . S
C296 H309 0.928 . S
H297 C273 0.931 . S
H298 C275 0.930 . S
H299 C277 0.929 . S
H300 C278 0.931 . S
H301 C280 0.930 . S
H302 C284 0.931 . S
H303 C282 0.931 . S
H304 C286 0.931 . S
H305 C287 0.929 . S
H306 C288 0.930 . S
H307 C291 0.930 . S
H308 C292 0.931 . S
H309 C296 0.928 . S
H310 C295 0.929 . S
H311 C293 0.932 . S
Dy312 O316 2.398 . S
Dy312 O317 2.491 . S
Dy312 O318 2.403 1_545 S
Dy312 O319 2.664 1_545 S
Dy312 O323 2.326 . S
Dy312 O327 2.310 1_455 S
Dy312 O328 2.351 1_445 S
C313 O324 1.185 . S
C313 O325 1.355 . S
C314 O316 1.185 . S
C314 O317 1.355 . S
Dy315 O319 2.310 1_655 S
Dy315 O322 2.351 1_665 S
Dy315 O324 2.398 . S
Dy315 O325 2.491 . S
Dy315 O326 2.403 1_565 S
Dy315 O327 2.664 1_565 S
Dy315 O329 2.326 . S
O316 Dy312 2.398 . S
O316 C314 1.185 . S
O317 Dy312 2.491 . S
O317 C314 1.355 . S
O318 Dy312 2.403 1_565 S
O318 C320 1.254 . S
O319 Dy312 2.664 1_565 S
O319 Dy315 2.310 1_455 S
O319 C320 1.268 . S
C320 O318 1.254 . S
C320 O319 1.268 . S
C321 O326 1.254 . S
C321 O327 1.268 . S
O322 Dy315 2.351 1_445 S
O322 C330 1.249 . S
O323 Dy312 2.326 . S
O323 C330 1.267 . S
O324 C313 1.185 . S
O324 Dy315 2.398 . S
O325 C313 1.355 . S
O325 Dy315 2.491 . S
O326 Dy315 2.403 1_545 S
O326 C321 1.254 . S
O327 Dy312 2.310 1_655 S
O327 Dy315 2.664 1_545 S
O327 C321 1.268 . S
O328 Dy312 2.351 1_665 S
O328 C331 1.249 . S
O329 Dy315 2.326 . S
O329 C331 1.267 . S
C330 O322 1.249 . S
C330 O323 1.267 . S
C331 O328 1.249 . S
C331 O329 1.267 . S
Dy332 O336 2.398 . S
Dy332 O337 2.491 . S
Dy332 O338 2.403 1_545 S
Dy332 O339 2.664 1_545 S
Dy332 O343 2.326 . S
Dy332 O347 2.310 1_554 S
Dy332 O348 2.351 1_544 S
C333 O344 1.185 . S
C333 O345 1.355 . S
C334 O336 1.185 . S
C334 O337 1.355 . S
Dy335 O339 2.288 1_546 S
Dy335 O342 2.370 1_556 S
Dy335 O344 2.394 1_545 S
Dy335 O345 2.461 1_545 S
Dy335 O346 2.431 . S
Dy335 O347 2.681 . S
Dy335 O349 2.313 1_545 S
O336 Dy332 2.398 . S
O336 C334 1.185 . S
O337 Dy332 2.491 . S
O337 C334 1.355 . S
O338 Dy332 2.403 1_565 S
O338 C340 1.254 . S
O339 Dy332 2.664 1_565 S
O339 Dy335 2.288 1_564 S
O339 C340 1.268 . S
C340 O338 1.254 . S
C340 O339 1.268 . S
C341 O346 1.254 . S
C341 O347 1.268 . S
O342 Dy335 2.370 1_554 S
O342 C350 1.249 . S
O343 Dy332 2.326 . S
O343 C350 1.267 . S
O344 C333 1.185 . S
O344 Dy335 2.394 1_565 S
O345 C333 1.355 . S
O345 Dy335 2.461 1_565 S
O346 Dy335 2.431 . S
O346 C341 1.254 . S
O347 Dy332 2.310 1_556 S
O347 Dy335 2.681 . S
O347 C341 1.268 . S
O348 Dy332 2.351 1_566 S
O348 C351 1.249 . S
O349 Dy335 2.313 1_565 S
O349 C351 1.267 . S
C350 O342 1.249 . S
C350 O343 1.267 . S
C351 O348 1.249 . S
C351 O349 1.267 . S
Dy352 O356 2.398 . S
Dy352 O357 2.491 . S
Dy352 O358 2.403 . S
Dy352 O359 2.664 . S
Dy352 O363 2.326 . S
Dy352 O367 2.310 . S
Dy352 O368 2.351 . S
C353 O364 1.185 . S
C353 O365 1.355 . S
C354 O356 1.185 . S
C354 O357 1.355 . S
Dy355 O359 2.310 . S
Dy355 O362 2.351 . S
Dy355 O364 2.398 . S
Dy355 O365 2.491 . S
Dy355 O366 2.403 . S
Dy355 O367 2.664 . S
Dy355 O369 2.326 . S
O356 Dy352 2.398 . S
O356 C354 1.185 . S
O357 Dy352 2.491 . S
O357 C354 1.355 . S
O358 Dy352 2.403 . S
O358 C360 1.254 . S
O359 Dy352 2.664 . S
O359 Dy355 2.310 . S
O359 C360 1.268 . S
C360 O358 1.254 . S
C360 O359 1.268 . S
C361 O366 1.254 . S
C361 O367 1.268 . S
O362 Dy355 2.351 . S
O362 C370 1.249 . S
O363 Dy352 2.326 . S
O363 C370 1.267 . S
O364 C353 1.185 . S
O364 Dy355 2.398 . S
O365 C353 1.355 . S
O365 Dy355 2.491 . S
O366 Dy355 2.403 . S
O366 C361 1.254 . S
O367 Dy352 2.310 . S
O367 Dy355 2.664 . S
O367 C361 1.268 . S
O368 Dy352 2.351 . S
O368 C371 1.249 . S
O369 Dy355 2.326 . S
O369 C371 1.267 . S
C370 O362 1.249 . S
C370 O363 1.267 . S
C371 O368 1.249 . S
C371 O369 1.267 . S
Dy372 O376 2.398 . S
Dy372 O377 2.491 . S
Dy372 O378 2.403 1_455 S
Dy372 O379 2.664 1_455 S
Dy372 O383 2.326 . S
Dy372 O387 2.310 1_554 S
Dy372 O388 2.351 1_454 S
C373 O384 1.185 . S
C373 O385 1.355 . S
C374 O376 1.185 . S
C374 O377 1.355 . S
Dy375 O379 2.310 1_556 S
Dy375 O382 2.351 1_656 S
Dy375 O384 2.398 . S
Dy375 O385 2.491 . S
Dy375 O386 2.403 1_655 S
Dy375 O387 2.664 1_655 S
Dy375 O389 2.326 . S
O376 Dy372 2.398 . S
O376 C374 1.185 . S
O377 Dy372 2.491 . S
O377 C374 1.355 . S
O378 Dy372 2.403 1_655 S
O378 C380 1.254 . S
O379 Dy372 2.664 1_655 S
O379 Dy375 2.310 1_554 S
O379 C380 1.268 . S
C380 O378 1.254 . S
C380 O379 1.268 . S
C381 O386 1.254 . S
C381 O387 1.268 . S
O382 Dy375 2.351 1_454 S
O382 C390 1.249 . S
O383 Dy372 2.326 . S
O383 C390 1.267 . S
O384 C373 1.185 . S
O384 Dy375 2.398 . S
O385 C373 1.355 . S
O385 Dy375 2.491 . S
O386 Dy375 2.403 1_455 S
O386 C381 1.254 . S
O387 Dy372 2.310 1_556 S
O387 Dy375 2.664 1_455 S
O387 C381 1.268 . S
O388 Dy372 2.351 1_656 S
O388 C391 1.249 . S
O389 Dy375 2.326 . S
O389 C391 1.267 . S
C390 O382 1.249 . S
C390 O383 1.267 . S
C391 O388 1.249 . S
C391 O389 1.267 . S
H392 C400 0.929 . S
H393 C402 0.930 . S
H394 C404 0.930 . S
H395 C407 0.929 . S
H396 C410 0.930 . S
H397 C412 0.960 . S
H398 C412 0.960 . S
H399 C412 0.960 . S
C400 H392 0.929 . S
C400 C401 1.377 . S
C400 C402 1.384 . S
C401 C400 1.377 . S
C401 C407 1.390 . S
C402 H393 0.930 . S
C402 C400 1.384 . S
C402 C403 1.372 . S
C403 C402 1.372 . S
C403 C404 1.400 . S
C403 C408 1.490 . S
C404 H394 0.930 . S
C404 C403 1.400 . S
C404 C407 1.386 . S
H405 C421 0.930 . S
H406 C422 0.931 . S
C407 H395 0.929 . S
C407 C401 1.390 . S
C407 C404 1.386 . S
C408 C403 1.490 . S
C408 C410 1.395 . S
C408 C411 1.403 . S
H409 C415 0.930 . S
C410 H396 0.930 . S
C410 C408 1.395 . S
C410 C413 1.403 . S
C411 C408 1.403 . S
C411 C412 1.524 . S
C411 C415 1.400 . S
C412 H397 0.960 . S
C412 H398 0.960 . S
C412 H399 0.960 . S
C412 C411 1.524 . S
C413 C410 1.403 . S
C413 C414 1.392 . S
C413 C417 1.495 . S
C414 C413 1.392 . S
C414 C415 1.385 . S
C414 C416 1.478 . S
C415 H409 0.930 . S
C415 C411 1.400 . S
C415 C414 1.385 . S
C416 C414 1.478 . S
C416 C418 1.381 . S
C416 C422 1.383 . S
C417 C413 1.495 . S
C417 H423 0.959 . S
C417 H424 0.961 . S
C417 H425 0.960 . S
C418 C416 1.381 . S
C418 C419 1.394 . S
C418 H426 0.930 . S
C419 C418 1.394 . S
C419 C420 1.383 . S
C419 H427 0.929 . S
C420 C419 1.383 . S
C420 C421 1.377 . S
C421 H405 0.930 . S
C421 C420 1.377 . S
C421 C422 1.379 . S
C422 H406 0.931 . S
C422 C416 1.383 . S
C422 C421 1.379 . S
H423 C417 0.959 . S
H424 C417 0.961 . S
H425 C417 0.960 . S
H426 C418 0.930 . S
H427 C419 0.929 . S
H428 C436 0.929 . S
H429 C438 0.930 . S
H430 C440 0.930 . S
H431 C443 0.929 . S
H432 C446 0.930 . S
H433 C448 0.960 . S
H434 C448 0.960 . S
H435 C448 0.960 . S
C436 H428 0.929 . S
C436 C437 1.377 . S
C436 C438 1.384 . S
C437 C436 1.377 . S
C437 C443 1.390 . S
C438 H429 0.930 . S
C438 C436 1.384 . S
C438 C439 1.372 . S
C439 C438 1.372 . S
C439 C440 1.400 . S
C439 C444 1.490 . S
C440 H430 0.930 . S
C440 C439 1.400 . S
C440 C443 1.386 . S
H441 C457 0.930 . S
H442 C458 0.931 . S
C443 H431 0.929 . S
C443 C437 1.390 . S
C443 C440 1.386 . S
C444 C439 1.490 . S
C444 C446 1.395 . S
C444 C447 1.403 . S
H445 C451 0.930 . S
C446 H432 0.930 . S
C446 C444 1.395 . S
C446 C449 1.403 . S
C447 C444 1.403 . S
C447 C448 1.524 . S
C447 C451 1.400 . S
C448 H433 0.960 . S
C448 H434 0.960 . S
C448 H435 0.960 . S
C448 C447 1.524 . S
C449 C446 1.403 . S
C449 C450 1.392 . S
C449 C453 1.495 . S
C450 C449 1.392 . S
C450 C451 1.385 . S
C450 C452 1.478 . S
C451 H445 0.930 . S
C451 C447 1.400 . S
C451 C450 1.385 . S
C452 C450 1.478 . S
C452 C454 1.381 . S
C452 C458 1.383 . S
C453 C449 1.495 . S
C453 H459 0.959 . S
C453 H460 0.961 . S
C453 H461 0.960 . S
C454 C452 1.381 . S
C454 C455 1.394 . S
C454 H462 0.930 . S
C455 C454 1.394 . S
C455 C456 1.383 . S
C455 H463 0.929 . S
C456 C455 1.383 . S
C456 C457 1.377 . S
C457 H441 0.930 . S
C457 C456 1.377 . S
C457 C458 1.379 . S
C458 H442 0.931 . S
C458 C452 1.383 . S
C458 C457 1.379 . S
H459 C453 0.959 . S
H460 C453 0.961 . S
H461 C453 0.960 . S
H462 C454 0.930 . S
H463 C455 0.929 . S
H464 C472 0.929 . S
H465 C474 0.930 . S
H466 C476 0.930 . S
H467 C479 0.929 . S
H468 C482 0.930 . S
H469 C484 0.960 . S
H470 C484 0.960 . S
H471 C484 0.960 . S
C472 H464 0.929 . S
C472 C473 1.377 . S
C472 C474 1.384 . S
C473 C472 1.377 . S
C473 C479 1.390 . S
C474 H465 0.930 . S
C474 C472 1.384 . S
C474 C475 1.372 . S
C475 C474 1.372 . S
C475 C476 1.400 . S
C475 C480 1.490 . S
C476 H466 0.930 . S
C476 C475 1.400 . S
C476 C479 1.386 . S
H477 C493 0.930 . S
H478 C494 0.931 . S
C479 H467 0.929 . S
C479 C473 1.390 . S
C479 C476 1.386 . S
C480 C475 1.490 . S
C480 C482 1.395 . S
C480 C483 1.403 . S
H481 C487 0.930 . S
C482 H468 0.930 . S
C482 C480 1.395 . S
C482 C485 1.403 . S
C483 C480 1.403 . S
C483 C484 1.524 . S
C483 C487 1.400 . S
C484 H469 0.960 . S
C484 H470 0.960 . S
C484 H471 0.960 . S
C484 C483 1.524 . S
C485 C482 1.403 . S
C485 C486 1.392 . S
C485 C489 1.495 . S
C486 C485 1.392 . S
C486 C487 1.385 . S
C486 C488 1.478 . S
C487 H481 0.930 . S
C487 C483 1.400 . S
C487 C486 1.385 . S
C488 C486 1.478 . S
C488 C490 1.381 . S
C488 C494 1.383 . S
C489 C485 1.495 . S
C489 H495 0.959 . S
C489 H496 0.961 . S
C489 H497 0.960 . S
C490 C488 1.381 . S
C490 C491 1.394 . S
C490 H498 0.930 . S
C491 C490 1.394 . S
C491 C492 1.383 . S
C491 H499 0.929 . S
C492 C491 1.383 . S
C492 C493 1.377 . S
C493 H477 0.930 . S
C493 C492 1.377 . S
C493 C494 1.379 . S
C494 H478 0.931 . S
C494 C488 1.383 . S
C494 C493 1.379 . S
H495 C489 0.959 . S
H496 C489 0.961 . S
H497 C489 0.960 . S
H498 C490 0.930 . S
H499 C491 0.929 . S
H500 C508 0.929 . S
H501 C510 0.930 . S
H502 C512 0.930 . S
H503 C515 0.929 . S
H504 C518 0.930 . S
H505 C520 0.960 . S
H506 C520 0.960 . S
H507 C520 0.960 . S
C508 H500 0.929 . S
C508 C509 1.377 . S
C508 C510 1.384 . S
C509 C508 1.377 . S
C509 C515 1.390 . S
C510 H501 0.930 . S
C510 C508 1.384 . S
C510 C511 1.372 . S
C511 C510 1.372 . S
C511 C512 1.400 . S
C511 C516 1.490 . S
C512 H502 0.930 . S
C512 C511 1.400 . S
C512 C515 1.386 . S
H513 C529 0.930 . S
H514 C530 0.931 . S
C515 H503 0.929 . S
C515 C509 1.390 . S
C515 C512 1.386 . S
C516 C511 1.490 . S
C516 C518 1.395 . S
C516 C519 1.403 . S
H517 C523 0.930 . S
C518 H504 0.930 . S
C518 C516 1.395 . S
C518 C521 1.403 . S
C519 C516 1.403 . S
C519 C520 1.524 . S
C519 C523 1.400 . S
C520 H505 0.960 . S
C520 H506 0.960 . S
C520 H507 0.960 . S
C520 C519 1.524 . S
C521 C518 1.403 . S
C521 C522 1.392 . S
C521 C525 1.495 . S
C522 C521 1.392 . S
C522 C523 1.385 . S
C522 C524 1.478 . S
C523 H517 0.930 . S
C523 C519 1.400 . S
C523 C522 1.385 . S
C524 C522 1.478 . S
C524 C526 1.381 . S
C524 C530 1.383 . S
C525 C521 1.495 . S
C525 H531 0.959 . S
C525 H532 0.961 . S
C525 H533 0.960 . S
C526 C524 1.381 . S
C526 C527 1.394 . S
C526 H534 0.930 . S
C527 C526 1.394 . S
C527 C528 1.383 . S
C527 H535 0.929 . S
C528 C527 1.383 . S
C528 C529 1.377 . S
C529 H513 0.930 . S
C529 C528 1.377 . S
C529 C530 1.379 . S
C530 H514 0.931 . S
C530 C524 1.383 . S
C530 C529 1.379 . S
H531 C525 0.959 . S
H532 C525 0.961 . S
H533 C525 0.960 . S
H534 C526 0.930 . S
H535 C527 0.929 . S
H536 C544 0.929 . S
H537 C546 0.930 . S
H538 C548 0.930 . S
H539 C551 0.929 . S
H540 C554 0.930 . S
H541 C556 0.960 . S
H542 C556 0.960 . S
H543 C556 0.960 . S
C544 H536 0.929 . S
C544 C545 1.377 . S
C544 C546 1.384 . S
C545 C544 1.377 . S
C545 C551 1.390 . S
C546 H537 0.930 . S
C546 C544 1.384 . S
C546 C547 1.372 . S
C547 C546 1.372 . S
C547 C548 1.400 . S
C547 C552 1.490 . S
C548 H538 0.930 . S
C548 C547 1.400 . S
C548 C551 1.386 . S
H549 C565 0.930 . S
H550 C566 0.931 . S
C551 H539 0.929 . S
C551 C545 1.390 . S
C551 C548 1.386 . S
C552 C547 1.490 . S
C552 C554 1.395 . S
C552 C555 1.403 . S
H553 C559 0.930 . S
C554 H540 0.930 . S
C554 C552 1.395 . S
C554 C557 1.403 . S
C555 C552 1.403 . S
C555 C556 1.524 . S
C555 C559 1.400 . S
C556 H541 0.960 . S
C556 H542 0.960 . S
C556 H543 0.960 . S
C556 C555 1.524 . S
C557 C554 1.403 . S
C557 C558 1.392 . S
C557 C561 1.495 . S
C558 C557 1.392 . S
C558 C559 1.385 . S
C558 C560 1.478 . S
C559 H553 0.930 . S
C559 C555 1.400 . S
C559 C558 1.385 . S
C560 C558 1.478 . S
C560 C562 1.381 . S
C560 C566 1.383 . S
C561 C557 1.495 . S
C561 H567 0.959 . S
C561 H568 0.961 . S
C561 H569 0.960 . S
C562 C560 1.381 . S
C562 C563 1.394 . S
C562 H570 0.930 . S
C563 C562 1.394 . S
C563 C564 1.383 . S
C563 H571 0.929 . S
C564 C563 1.383 . S
C564 C565 1.377 . S
C565 H549 0.930 . S
C565 C564 1.377 . S
C565 C566 1.379 . S
C566 H550 0.931 . S
C566 C560 1.383 . S
C566 C565 1.379 . S
H567 C561 0.959 . S
H568 C561 0.961 . S
H569 C561 0.960 . S
H570 C562 0.930 . S
H571 C563 0.929 . S
H572 C580 0.929 . S
H573 C582 0.930 . S
H574 C584 0.930 . S
H575 C587 0.929 . S
H576 C590 0.930 . S
H577 C592 0.960 . S
H578 C592 0.960 . S
H579 C592 0.960 . S
C580 H572 0.929 . S
C580 C581 1.377 . S
C580 C582 1.384 . S
C581 C580 1.377 . S
C581 C587 1.390 . S
C582 H573 0.930 . S
C582 C580 1.384 . S
C582 C583 1.372 . S
C583 C582 1.372 . S
C583 C584 1.400 . S
C583 C588 1.490 . S
C584 H574 0.930 . S
C584 C583 1.400 . S
C584 C587 1.386 . S
H585 C601 0.930 . S
H586 C602 0.931 . S
C587 H575 0.929 . S
C587 C581 1.390 . S
C587 C584 1.386 . S
C588 C583 1.490 . S
C588 C590 1.395 . S
C588 C591 1.403 . S
H589 C595 0.930 . S
C590 H576 0.930 . S
C590 C588 1.395 . S
C590 C593 1.403 . S
C591 C588 1.403 . S
C591 C592 1.524 . S
C591 C595 1.400 . S
C592 H577 0.960 . S
C592 H578 0.960 . S
C592 H579 0.960 . S
C592 C591 1.524 . S
C593 C590 1.403 . S
C593 C594 1.392 . S
C593 C597 1.495 . S
C594 C593 1.392 . S
C594 C595 1.385 . S
C594 C596 1.478 . S
C595 H589 0.930 . S
C595 C591 1.400 . S
C595 C594 1.385 . S
C596 C594 1.478 . S
C596 C598 1.381 . S
C596 C602 1.383 . S
C597 C593 1.495 . S
C597 H603 0.959 . S
C597 H604 0.961 . S
C597 H605 0.960 . S
C598 C596 1.381 . S
C598 C599 1.394 . S
C598 H606 0.930 . S
C599 C598 1.394 . S
C599 C600 1.383 . S
C599 H607 0.929 . S
C600 C599 1.383 . S
C600 C601 1.377 . S
C601 H585 0.930 . S
C601 C600 1.377 . S
C601 C602 1.379 . S
C602 H586 0.931 . S
C602 C596 1.383 . S
C602 C601 1.379 . S
H603 C597 0.959 . S
H604 C597 0.961 . S
H605 C597 0.960 . S
H606 C598 0.930 . S
H607 C599 0.929 . S
H608 C616 0.929 . S
H609 C618 0.930 . S
H610 C620 0.930 . S
H611 C623 0.929 . S
H612 C626 0.930 . S
H613 C628 0.960 . S
H614 C628 0.960 . S
H615 C628 0.960 . S
C616 H608 0.929 . S
C616 C617 1.377 . S
C616 C618 1.384 . S
C617 C616 1.377 . S
C617 C623 1.390 . S
C618 H609 0.930 . S
C618 C616 1.384 . S
C618 C619 1.372 . S
C619 C618 1.372 . S
C619 C620 1.400 . S
C619 C624 1.490 . S
C620 H610 0.930 . S
C620 C619 1.400 . S
C620 C623 1.386 . S
H621 C637 0.930 . S
H622 C638 0.931 . S
C623 H611 0.929 . S
C623 C617 1.390 . S
C623 C620 1.386 . S
C624 C619 1.490 . S
C624 C626 1.395 . S
C624 C627 1.403 . S
H625 C631 0.930 . S
C626 H612 0.930 . S
C626 C624 1.395 . S
C626 C629 1.403 . S
C627 C624 1.403 . S
C627 C628 1.524 . S
C627 C631 1.400 . S
C628 H613 0.960 . S
C628 H614 0.960 . S
C628 H615 0.960 . S
C628 C627 1.524 . S
C629 C626 1.403 . S
C629 C630 1.392 . S
C629 C633 1.495 . S
C630 C629 1.392 . S
C630 C631 1.385 . S
C630 C632 1.478 . S
C631 H625 0.930 . S
C631 C627 1.400 . S
C631 C630 1.385 . S
C632 C630 1.478 . S
C632 C634 1.381 . S
C632 C638 1.383 . S
C633 C629 1.495 . S
C633 H639 0.959 . S
C633 H640 0.961 . S
C633 H641 0.960 . S
C634 C632 1.381 . S
C634 C635 1.394 . S
C634 H642 0.930 . S
C635 C634 1.394 . S
C635 C636 1.383 . S
C635 H643 0.898 1_556 S
C636 C635 1.383 . S
C636 C637 1.377 . S
C637 H621 0.930 . S
C637 C636 1.377 . S
C637 C638 1.379 . S
C638 H622 0.931 . S
C638 C632 1.383 . S
C638 C637 1.379 . S
H639 C633 0.959 . S
H640 C633 0.961 . S
H641 C633 0.960 . S
H642 C634 0.930 . S
H643 C635 0.898 1_554 S
H644 C652 0.929 . S
H645 C654 0.930 . S
H646 C656 0.930 . S
H647 C659 0.929 . S
H648 C662 0.930 . S
H649 C664 0.960 . S
H650 C664 0.960 . S
H651 C664 0.960 . S
C652 H644 0.929 . S
C652 C653 1.377 . S
C652 C654 1.384 . S
C653 C652 1.377 . S
C653 C659 1.390 . S
C654 H645 0.930 . S
C654 C652 1.384 . S
C654 C655 1.372 . S
C655 C654 1.372 . S
C655 C656 1.400 . S
C655 C660 1.490 . S
C656 H646 0.930 . S
C656 C655 1.400 . S
C656 C659 1.386 . S
H657 C673 0.930 . S
H658 C674 0.931 . S
C659 H647 0.929 . S
C659 C653 1.390 . S
C659 C656 1.386 . S
C660 C655 1.490 . S
C660 C662 1.395 . S
C660 C663 1.403 . S
H661 C667 0.930 . S
C662 H648 0.930 . S
C662 C660 1.395 . S
C662 C665 1.403 . S
C663 C660 1.403 . S
C663 C664 1.524 . S
C663 C667 1.400 . S
C664 H649 0.960 . S
C664 H650 0.960 . S
C664 H651 0.960 . S
C664 C663 1.524 . S
C665 C662 1.403 . S
C665 C666 1.392 . S
C665 C669 1.495 . S
C666 C665 1.392 . S
C666 C667 1.385 . S
C666 C668 1.478 . S
C667 H661 0.930 . S
C667 C663 1.400 . S
C667 C666 1.385 . S
C668 C666 1.478 . S
C668 C670 1.381 . S
C668 C674 1.383 . S
C669 C665 1.495 . S
C669 H675 0.959 . S
C669 H676 0.961 . S
C669 H677 0.960 . S
C670 C668 1.381 . S
C670 C671 1.394 . S
C670 H678 0.930 . S
C671 C670 1.394 . S
C671 C672 1.383 . S
C671 H679 0.929 . S
C672 C671 1.383 . S
C672 C673 1.377 . S
C673 H657 0.930 . S
C673 C672 1.377 . S
C673 C674 1.379 . S
C674 H658 0.931 . S
C674 C668 1.383 . S
C674 C673 1.379 . S
H675 C669 0.959 . S
H676 C669 0.961 . S
H677 C669 0.960 . S
H678 C670 0.930 . S
H679 C671 0.929 . S
H680 C688 0.929 . S
H681 C690 0.930 . S
H682 C692 0.930 . S
H683 C695 0.929 . S
H684 C698 0.930 . S
H685 C700 0.960 . S
H686 C700 0.960 . S
H687 C700 0.960 . S
C688 H680 0.929 . S
C688 C689 1.377 . S
C688 C690 1.384 . S
C689 C688 1.377 . S
C689 C695 1.390 . S
C690 H681 0.930 . S
C690 C688 1.384 . S
C690 C691 1.372 . S
C691 C690 1.372 . S
C691 C692 1.400 . S
C691 C696 1.490 . S
C692 H682 0.930 . S
C692 C691 1.400 . S
C692 C695 1.386 . S
H693 C709 0.930 . S
H694 C710 0.931 . S
C695 H683 0.929 . S
C695 C689 1.390 . S
C695 C692 1.386 . S
C696 C691 1.490 . S
C696 C698 1.395 . S
C696 C699 1.403 . S
H697 C703 0.930 . S
C698 H684 0.930 . S
C698 C696 1.395 . S
C698 C701 1.403 . S
C699 C696 1.403 . S
C699 C700 1.524 . S
C699 C703 1.400 . S
C700 H685 0.960 . S
C700 H686 0.960 . S
C700 H687 0.960 . S
C700 C699 1.524 . S
C701 C698 1.403 . S
C701 C702 1.392 . S
C701 C705 1.495 . S
C702 C701 1.392 . S
C702 C703 1.385 . S
C702 C704 1.478 . S
C703 H697 0.930 . S
C703 C699 1.400 . S
C703 C702 1.385 . S
C704 C702 1.478 . S
C704 C706 1.381 . S
C704 C710 1.383 . S
C705 C701 1.495 . S
C705 H711 0.959 . S
C705 H712 0.961 . S
C705 H713 0.960 . S
C706 C704 1.381 . S
C706 C707 1.394 . S
C706 H714 0.930 . S
C707 C706 1.394 . S
C707 C708 1.383 . S
C707 H715 0.929 . S
C708 C707 1.383 . S
C708 C709 1.377 . S
C709 H693 0.930 . S
C709 C708 1.377 . S
C709 C710 1.379 . S
C710 H694 0.931 . S
C710 C704 1.383 . S
C710 C709 1.379 . S
H711 C705 0.959 . S
H712 C705 0.961 . S
H713 C705 0.960 . S
H714 C706 0.930 . S
H715 C707 0.929 . S
H716 C724 0.929 . S
H717 C726 0.930 . S
H718 C728 0.930 . S
H719 C731 0.929 . S
H720 C734 0.930 . S
H721 C736 0.960 . S
H722 C736 0.960 . S
H723 C736 0.960 . S
C724 H716 0.929 . S
C724 C725 1.377 . S
C724 C726 1.384 . S
C725 C724 1.377 . S
C725 C731 1.390 . S
C726 H717 0.930 . S
C726 C724 1.384 . S
C726 C727 1.372 . S
C727 C726 1.372 . S
C727 C728 1.400 . S
C727 C732 1.490 . S
C728 H718 0.930 . S
C728 C727 1.400 . S
C728 C731 1.386 . S
H729 C745 0.930 . S
H730 C746 0.931 . S
C731 H719 0.929 . S
C731 C725 1.390 . S
C731 C728 1.386 . S
C732 C727 1.490 . S
C732 C734 1.395 . S
C732 C735 1.403 . S
H733 C739 0.930 . S
C734 H720 0.930 . S
C734 C732 1.395 . S
C734 C737 1.403 . S
C735 C732 1.403 . S
C735 C736 1.524 . S
C735 C739 1.400 . S
C736 H721 0.960 . S
C736 H722 0.960 . S
C736 H723 0.960 . S
C736 C735 1.524 . S
C737 C734 1.403 . S
C737 C738 1.392 . S
C737 C741 1.495 . S
C738 C737 1.392 . S
C738 C739 1.385 . S
C738 C740 1.478 . S
C739 H733 0.930 . S
C739 C735 1.400 . S
C739 C738 1.385 . S
C740 C738 1.478 . S
C740 C742 1.381 . S
C740 C746 1.383 . S
C741 C737 1.495 . S
C741 H747 0.959 . S
C741 H748 0.961 . S
C741 H749 0.960 . S
C742 C740 1.381 . S
C742 C743 1.394 . S
C742 H750 0.930 . S
C743 C742 1.394 . S
C743 C744 1.383 . S
C743 H751 0.929 . S
C744 C743 1.383 . S
C744 C745 1.377 . S
C745 H729 0.930 . S
C745 C744 1.377 . S
C745 C746 1.379 . S
C746 H730 0.931 . S
C746 C740 1.383 . S
C746 C745 1.379 . S
H747 C741 0.959 . S
H748 C741 0.961 . S
H749 C741 0.960 . S
H750 C742 0.930 . S
H751 C743 0.929 . S
H752 C760 0.929 . S
H753 C762 0.930 . S
H754 C764 0.930 . S
H755 C767 0.929 . S
H756 C770 0.930 . S
H757 C772 0.960 . S
H758 C772 0.960 . S
H759 C772 0.960 . S
C760 H752 0.929 . S
C760 C761 1.377 . S
C760 C762 1.384 . S
C761 C760 1.377 . S
C761 C767 1.390 . S
C762 H753 0.930 . S
C762 C760 1.384 . S
C762 C763 1.372 . S
C763 C762 1.372 . S
C763 C764 1.400 . S
C763 C768 1.490 . S
C764 H754 0.930 . S
C764 C763 1.400 . S
C764 C767 1.386 . S
H765 C781 0.930 . S
H766 C782 0.931 . S
C767 H755 0.929 . S
C767 C761 1.390 . S
C767 C764 1.386 . S
C768 C763 1.490 . S
C768 C770 1.395 . S
C768 C771 1.403 . S
H769 C775 0.930 . S
C770 H756 0.930 . S
C770 C768 1.395 . S
C770 C773 1.403 . S
C771 C768 1.403 . S
C771 C772 1.524 . S
C771 C775 1.400 . S
C772 H757 0.960 . S
C772 H758 0.960 . S
C772 H759 0.960 . S
C772 C771 1.524 . S
C773 C770 1.403 . S
C773 C774 1.392 . S
C773 C777 1.495 . S
C774 C773 1.392 . S
C774 C775 1.385 . S
C774 C776 1.478 . S
C775 H769 0.930 . S
C775 C771 1.400 . S
C775 C774 1.385 . S
C776 C774 1.478 . S
C776 C778 1.381 . S
C776 C782 1.383 . S
C777 C773 1.495 . S
C777 H783 0.974 . S
C777 H784 0.963 1_655 S
C777 H785 0.960 . S
C778 C776 1.381 . S
C778 C779 1.394 . S
C778 H786 0.930 . S
C779 C778 1.394 . S
C779 C780 1.383 . S
C779 H787 0.929 . S
C780 C779 1.383 . S
C780 C781 1.377 . S
C781 H765 0.930 . S
C781 C780 1.377 . S
C781 C782 1.379 . S
C782 H766 0.931 . S
C782 C776 1.383 . S
C782 C781 1.379 . S
H783 C777 0.974 . S
H784 C777 0.963 1_455 S
H785 C777 0.960 . S
H786 C778 0.930 . S
H787 C779 0.929 . S
H788 C796 0.929 . S
H789 C798 0.930 . S
H790 C800 0.930 . S
H791 C803 0.929 . S
H792 C806 0.930 . S
H793 C808 0.960 . S
H794 C808 0.960 . S
H795 C808 0.960 . S
C796 H788 0.929 . S
C796 C797 1.377 . S
C796 C798 1.384 . S
C797 C796 1.377 . S
C797 C803 1.390 . S
C798 H789 0.930 . S
C798 C796 1.384 . S
C798 C799 1.372 . S
C799 C798 1.372 . S
C799 C800 1.400 . S
C799 C804 1.490 . S
C800 H790 0.930 . S
C800 C799 1.400 . S
C800 C803 1.386 . S
H801 C817 0.930 . S
H802 C818 0.931 . S
C803 H791 0.929 . S
C803 C797 1.390 . S
C803 C800 1.386 . S
C804 C799 1.490 . S
C804 C806 1.395 . S
C804 C807 1.403 . S
H805 C811 0.930 . S
C806 H792 0.930 . S
C806 C804 1.395 . S
C806 C809 1.403 . S
C807 C804 1.403 . S
C807 C808 1.524 . S
C807 C811 1.400 . S
C808 H793 0.960 . S
C808 H794 0.960 . S
C808 H795 0.960 . S
C808 C807 1.524 . S
C809 C806 1.403 . S
C809 C810 1.392 . S
C809 C813 1.495 . S
C810 C809 1.392 . S
C810 C811 1.385 . S
C810 C812 1.478 . S
C811 H805 0.930 . S
C811 C807 1.400 . S
C811 C810 1.385 . S
C812 C810 1.478 . S
C812 C814 1.381 . S
C812 C818 1.383 . S
C813 C809 1.495 . S
C813 H819 0.959 . S
C813 H820 0.961 . S
C813 H821 0.960 . S
C814 C812 1.381 . S
C814 C815 1.394 . S
C814 H822 0.930 . S
C815 C814 1.394 . S
C815 C816 1.383 . S
C815 H823 0.929 . S
C816 C815 1.383 . S
C816 C817 1.377 . S
C817 H801 0.930 . S
C817 C816 1.377 . S
C817 C818 1.379 . S
C818 H802 0.931 . S
C818 C812 1.383 . S
C818 C817 1.379 . S
H819 C813 0.959 . S
H820 C813 0.961 . S
H821 C813 0.960 . S
H822 C814 0.930 . S
H823 C815 0.929 . S
H824 C832 0.929 . S
H825 C834 0.930 . S
H826 C836 0.930 . S
H827 C839 0.929 . S
H828 C842 0.930 . S
H829 C844 0.960 . S
H830 C844 0.960 . S
H831 C844 0.960 . S
C832 H824 0.929 . S
C832 C833 1.377 . S
C832 C834 1.384 . S
C833 C832 1.377 . S
C833 C839 1.390 . S
C834 H825 0.930 . S
C834 C832 1.384 . S
C834 C835 1.372 . S
C835 C834 1.372 . S
C835 C836 1.400 . S
C835 C840 1.490 . S
C836 H826 0.930 . S
C836 C835 1.400 . S
C836 C839 1.386 . S
H837 C853 0.930 . S
H838 C854 0.931 . S
C839 H827 0.929 . S
C839 C833 1.390 . S
C839 C836 1.386 . S
C840 C835 1.490 . S
C840 C842 1.395 . S
C840 C843 1.403 . S
H841 C847 0.930 . S
C842 H828 0.930 . S
C842 C840 1.395 . S
C842 C845 1.403 . S
C843 C840 1.403 . S
C843 C844 1.524 . S
C843 C847 1.400 . S
C844 H829 0.960 . S
C844 H830 0.960 . S
C844 H831 0.960 . S
C844 C843 1.524 . S
C845 C842 1.403 . S
C845 C846 1.392 . S
C845 C849 1.495 . S
C846 C845 1.392 . S
C846 C847 1.385 . S
C846 C848 1.478 . S
C847 H841 0.930 . S
C847 C843 1.400 . S
C847 C846 1.385 . S
C848 C846 1.478 . S
C848 C850 1.381 . S
C848 C854 1.383 . S
C849 C845 1.495 . S
C849 H855 0.959 . S
C849 H856 0.961 . S
C849 H857 0.960 . S
C850 C848 1.381 . S
C850 C851 1.394 . S
C850 H858 0.930 . S
C851 C850 1.394 . S
C851 C852 1.383 . S
C851 H859 0.929 . S
C852 C851 1.383 . S
C852 C853 1.377 . S
C853 H837 0.930 . S
C853 C852 1.377 . S
C853 C854 1.379 . S
C854 H838 0.931 . S
C854 C848 1.383 . S
C854 C853 1.379 . S
H855 C849 0.959 . S
H856 C849 0.961 . S
H857 C849 0.960 . S
H858 C850 0.930 . S
H859 C851 0.929 . S
H860 C868 0.929 . S
H861 C870 0.930 . S
H862 C872 0.930 . S
H863 C875 0.929 . S
H864 C878 0.930 . S
H865 C880 0.960 . S
H866 C880 0.960 . S
H867 C880 0.960 . S
C868 H860 0.929 . S
C868 C869 1.377 . S
C868 C870 1.384 . S
C869 C868 1.377 . S
C869 C875 1.390 . S
C870 H861 0.930 . S
C870 C868 1.384 . S
C870 C871 1.372 . S
C871 C870 1.372 . S
C871 C872 1.400 . S
C871 C876 1.490 . S
C872 H862 0.930 . S
C872 C871 1.400 . S
C872 C875 1.386 . S
H873 C889 0.930 . S
H874 C890 0.931 . S
C875 H863 0.929 . S
C875 C869 1.390 . S
C875 C872 1.386 . S
C876 C871 1.490 . S
C876 C878 1.395 . S
C876 C879 1.403 . S
H877 C883 0.930 . S
C878 H864 0.930 . S
C878 C876 1.395 . S
C878 C881 1.403 . S
C879 C876 1.403 . S
C879 C880 1.524 . S
C879 C883 1.400 . S
C880 H865 0.960 . S
C880 H866 0.960 . S
C880 H867 0.960 . S
C880 C879 1.524 . S
C881 C878 1.403 . S
C881 C882 1.392 . S
C881 C885 1.495 . S
C882 C881 1.392 . S
C882 C883 1.385 . S
C882 C884 1.478 . S
C883 H877 0.930 . S
C883 C879 1.400 . S
C883 C882 1.385 . S
C884 C882 1.478 . S
C884 C886 1.381 . S
C884 C890 1.383 . S
C885 C881 1.495 . S
C885 H891 0.959 . S
C885 H892 0.961 . S
C885 H893 0.960 . S
C886 C884 1.381 . S
C886 C887 1.394 . S
C886 H894 0.930 . S
C887 C886 1.394 . S
C887 C888 1.383 . S
C887 H895 0.929 . S
C888 C887 1.383 . S
C888 C889 1.377 . S
C889 H873 0.930 . S
C889 C888 1.377 . S
C889 C890 1.379 . S
C890 H874 0.931 . S
C890 C884 1.383 . S
C890 C889 1.379 . S
H891 C885 0.959 . S
H892 C885 0.961 . S
H893 C885 0.960 . S
H894 C886 0.930 . S
H895 C887 0.929 . S
H896 C904 0.929 . S
H897 C906 0.930 . S
H898 C908 0.930 . S
H899 C911 0.929 . S
H900 C914 0.930 . S
H901 C916 0.960 . S
H902 C916 0.960 . S
H903 C916 0.960 . S
C904 H896 0.929 . S
C904 C905 1.377 . S
C904 C906 1.384 . S
C905 C904 1.377 . S
C905 C911 1.390 . S
C906 H897 0.930 . S
C906 C904 1.384 . S
C906 C907 1.372 . S
C907 C906 1.372 . S
C907 C908 1.400 . S
C907 C912 1.490 . S
C908 H898 0.930 . S
C908 C907 1.400 . S
C908 C911 1.386 . S
H909 C925 0.930 . S
H910 C926 0.931 . S
C911 H899 0.929 . S
C911 C905 1.390 . S
C911 C908 1.386 . S
C912 C907 1.490 . S
C912 C914 1.395 . S
C912 C915 1.403 . S
H913 C919 0.930 . S
C914 H900 0.930 . S
C914 C912 1.395 . S
C914 C917 1.403 . S
C915 C912 1.403 . S
C915 C916 1.524 . S
C915 C919 1.400 . S
C916 H901 0.960 . S
C916 H902 0.960 . S
C916 H903 0.960 . S
C916 C915 1.524 . S
C917 C914 1.403 . S
C917 C918 1.392 . S
C917 C921 1.495 . S
C918 C917 1.392 . S
C918 C919 1.385 . S
C918 C920 1.478 . S
C919 H913 0.930 . S
C919 C915 1.400 . S
C919 C918 1.385 . S
C920 C918 1.478 . S
C920 C922 1.381 . S
C920 C926 1.383 . S
C921 C917 1.495 . S
C921 H927 0.959 . S
C921 H928 0.961 . S
C921 H929 0.960 . S
C922 C920 1.381 . S
C922 C923 1.394 . S
C922 H930 0.930 . S
C923 C922 1.394 . S
C923 C924 1.383 . S
C923 H931 0.929 . S
C924 C923 1.383 . S
C924 C925 1.377 . S
C925 H909 0.930 . S
C925 C924 1.377 . S
C925 C926 1.379 . S
C926 H910 0.931 . S
C926 C920 1.383 . S
C926 C925 1.379 . S
H927 C921 0.959 . S
H928 C921 0.961 . S
H929 C921 0.960 . S
H930 C922 0.930 . S
H931 C923 0.929 . S
H932 C940 0.929 . S
H933 C942 0.930 . S
H934 C944 0.930 . S
H935 C947 0.929 . S
H936 C950 0.930 . S
H937 C952 0.960 . S
H938 C952 0.960 . S
H939 C952 0.960 . S
C940 H932 0.929 . S
C940 C941 1.377 . S
C940 C942 1.384 . S
C941 C940 1.377 . S
C941 C947 1.390 . S
C942 H933 0.930 . S
C942 C940 1.384 . S
C942 C943 1.372 . S
C943 C942 1.372 . S
C943 C944 1.400 . S
C943 C948 1.490 . S
C944 H934 0.930 . S
C944 C943 1.400 . S
C944 C947 1.386 . S
H945 C961 0.930 . S
H946 C962 0.931 . S
C947 H935 0.929 . S
C947 C941 1.390 . S
C947 C944 1.386 . S
C948 C943 1.490 . S
C948 C950 1.395 . S
C948 C951 1.403 . S
H949 C955 0.930 . S
C950 H936 0.930 . S
C950 C948 1.395 . S
C950 C953 1.403 . S
C951 C948 1.403 . S
C951 C952 1.524 . S
C951 C955 1.400 . S
C952 H937 0.960 . S
C952 H938 0.960 . S
C952 H939 0.960 . S
C952 C951 1.524 . S
C953 C950 1.403 . S
C953 C954 1.392 . S
C953 C957 1.495 . S
C954 C953 1.392 . S
C954 C955 1.385 . S
C954 C956 1.478 . S
C955 H949 0.930 . S
C955 C951 1.400 . S
C955 C954 1.385 . S
C956 C954 1.478 . S
C956 C958 1.381 . S
C956 C962 1.383 . S
C957 C953 1.495 . S
C957 H963 0.959 . S
C957 H964 0.961 . S
C957 H965 0.960 . S
C958 C956 1.381 . S
C958 C959 1.394 . S
C958 H966 0.930 . S
C959 C958 1.394 . S
C959 C960 1.383 . S
C959 H967 0.929 . S
C960 C959 1.383 . S
C960 C961 1.377 . S
C961 H945 0.930 . S
C961 C960 1.377 . S
C961 C962 1.379 . S
C962 H946 0.931 . S
C962 C956 1.383 . S
C962 C961 1.379 . S
H963 C957 0.959 . S
H964 C957 0.961 . S
H965 C957 0.960 . S
H966 C958 0.930 . S
H967 C959 0.929 . S
H968 C976 0.929 . S
H969 C978 0.930 . S
H970 C980 0.930 . S
H971 C983 0.929 . S
H972 C986 0.930 . S
H973 C988 0.960 . S
H974 C988 0.960 . S
H975 C988 0.960 . S
C976 H968 0.929 . S
C976 C977 1.377 . S
C976 C978 1.384 . S
C977 C976 1.377 . S
C977 C983 1.390 . S
C978 H969 0.930 . S
C978 C976 1.384 . S
C978 C979 1.372 . S
C979 C978 1.372 . S
C979 C980 1.400 . S
C979 C984 1.490 . S
C980 H970 0.930 . S
C980 C979 1.400 . S
C980 C983 1.386 . S
H981 C997 0.930 . S
H982 C998 0.931 . S
C983 H971 0.929 . S
C983 C977 1.390 . S
C983 C980 1.386 . S
C984 C979 1.490 . S
C984 C986 1.395 . S
C984 C987 1.403 . S
H985 C991 0.930 . S
C986 H972 0.930 . S
C986 C984 1.395 . S
C986 C989 1.403 . S
C987 C984 1.403 . S
C987 C988 1.524 . S
C987 C991 1.400 . S
C988 H973 0.960 . S
C988 H974 0.960 . S
C988 H975 0.960 . S
C988 C987 1.524 . S
C989 C986 1.403 . S
C989 C990 1.392 . S
C989 C993 1.495 . S
C990 C989 1.392 . S
C990 C991 1.385 . S
C990 C992 1.478 . S
C991 H985 0.930 . S
C991 C987 1.400 . S
C991 C990 1.385 . S
C992 C990 1.478 . S
C992 C994 1.381 . S
C992 C998 1.383 . S
C993 C989 1.495 . S
C993 H999 0.959 . S
C993 H1000 0.961 . S
C993 H1001 0.960 . S
C994 C992 1.381 . S
C994 C995 1.394 . S
C994 H1002 0.930 . S
C995 C994 1.394 . S
C995 C996 1.383 . S
C995 H1003 0.929 . S
C996 C995 1.383 . S
C996 C997 1.377 . S
C997 H981 0.930 . S
C997 C996 1.377 . S
C997 C998 1.379 . S
C998 H982 0.931 . S
C998 C992 1.383 . S
C998 C997 1.379 . S
H999 C993 0.959 . S
H1000 C993 0.961 . S
H1001 C993 0.960 . S
H1002 C994 0.930 . S
H1003 C995 0.929 . S
H1004 C1012 0.929 . S
H1005 C1014 0.930 . S
H1006 C1016 0.930 . S
H1007 C1019 0.929 . S
H1008 C1022 0.930 . S
H1009 C1024 0.960 . S
H1010 C1024 0.960 . S
H1011 C1024 0.960 . S
C1012 H1004 0.929 . S
C1012 C1013 1.377 . S
C1012 C1014 1.384 . S
C1013 C1012 1.377 . S
C1013 C1019 1.390 . S
C1014 H1005 0.930 . S
C1014 C1012 1.384 . S
C1014 C1015 1.372 . S
C1015 C1014 1.372 . S
C1015 C1016 1.400 . S
C1015 C1020 1.490 . S
C1016 H1006 0.930 . S
C1016 C1015 1.400 . S
C1016 C1019 1.386 . S
H1017 C1033 0.930 . S
H1018 C1034 0.931 . S
C1019 H1007 0.929 . S
C1019 C1013 1.390 . S
C1019 C1016 1.386 . S
C1020 C1015 1.490 . S
C1020 C1022 1.395 . S
C1020 C1023 1.403 . S
H1021 C1027 0.930 . S
C1022 H1008 0.930 . S
C1022 C1020 1.395 . S
C1022 C1025 1.403 . S
C1023 C1020 1.403 . S
C1023 C1024 1.524 . S
C1023 C1027 1.400 . S
C1024 H1009 0.960 . S
C1024 H1010 0.960 . S
C1024 H1011 0.960 . S
C1024 C1023 1.524 . S
C1025 C1022 1.403 . S
C1025 C1026 1.392 . S
C1025 C1029 1.495 . S
C1026 C1025 1.392 . S
C1026 C1027 1.385 . S
C1026 C1028 1.478 . S
C1027 H1021 0.930 . S
C1027 C1023 1.400 . S
C1027 C1026 1.385 . S
C1028 C1026 1.478 . S
C1028 C1030 1.381 . S
C1028 C1034 1.383 . S
C1029 C1025 1.495 . S
C1029 H1035 0.959 . S
C1029 H1036 0.961 . S
C1029 H1037 0.960 . S
C1030 C1028 1.381 . S
C1030 C1031 1.394 . S
C1030 H1038 0.930 . S
C1031 C1030 1.394 . S
C1031 C1032 1.383 . S
C1031 H1039 0.929 . S
C1032 C1031 1.383 . S
C1032 C1033 1.377 . S
C1033 H1017 0.930 . S
C1033 C1032 1.377 . S
C1033 C1034 1.379 . S
C1034 H1018 0.931 . S
C1034 C1028 1.383 . S
C1034 C1033 1.379 . S
H1035 C1029 0.959 . S
H1036 C1029 0.961 . S
H1037 C1029 0.960 . S
H1038 C1030 0.930 . S
H1039 C1031 0.929 . S
H1040 C1048 0.929 . S
H1041 C1050 0.930 . S
H1042 C1052 0.930 . S
H1043 C1055 0.929 . S
H1044 C1058 0.930 . S
H1045 C1060 0.960 . S
H1046 C1060 0.960 . S
H1047 C1060 0.960 . S
C1048 H1040 0.929 . S
C1048 C1049 1.377 . S
C1048 C1050 1.384 . S
C1049 C1048 1.377 . S
C1049 C1055 1.390 . S
C1050 H1041 0.930 . S
C1050 C1048 1.384 . S
C1050 C1051 1.372 . S
C1051 C1050 1.372 . S
C1051 C1052 1.400 . S
C1051 C1056 1.490 . S
C1052 H1042 0.930 . S
C1052 C1051 1.400 . S
C1052 C1055 1.386 . S
H1053 C1069 0.930 . S
H1054 C1070 0.931 . S
C1055 H1043 0.929 . S
C1055 C1049 1.390 . S
C1055 C1052 1.386 . S
C1056 C1051 1.490 . S
C1056 C1058 1.395 . S
C1056 C1059 1.403 . S
H1057 C1063 0.930 . S
C1058 H1044 0.930 . S
C1058 C1056 1.395 . S
C1058 C1061 1.403 . S
C1059 C1056 1.403 . S
C1059 C1060 1.524 . S
C1059 C1063 1.400 . S
C1060 H1045 0.960 . S
C1060 H1046 0.960 . S
C1060 H1047 0.960 . S
C1060 C1059 1.524 . S
C1061 C1058 1.403 . S
C1061 C1062 1.392 . S
C1061 C1065 1.495 . S
C1062 C1061 1.392 . S
C1062 C1063 1.385 . S
C1062 C1064 1.478 . S
C1063 H1057 0.930 . S
C1063 C1059 1.400 . S
C1063 C1062 1.385 . S
C1064 C1062 1.478 . S
C1064 C1066 1.381 . S
C1064 C1070 1.383 . S
C1065 C1061 1.495 . S
C1065 H1071 0.959 . S
C1065 H1072 0.961 . S
C1065 H1073 0.960 . S
C1066 C1064 1.381 . S
C1066 C1067 1.394 . S
C1066 H1074 0.930 . S
C1067 C1066 1.394 . S
C1067 C1068 1.383 . S
C1067 H1075 0.929 . S
C1068 C1067 1.383 . S
C1068 C1069 1.377 . S
C1069 H1053 0.930 . S
C1069 C1068 1.377 . S
C1069 C1070 1.379 . S
C1070 H1054 0.931 . S
C1070 C1064 1.383 . S
C1070 C1069 1.379 . S
H1071 C1065 0.959 . S
H1072 C1065 0.961 . S
H1073 C1065 0.960 . S
H1074 C1066 0.930 . S
H1075 C1067 0.929 . S
H1076 C1084 0.929 . S
H1077 C1086 0.930 . S
H1078 C1088 0.930 . S
H1079 C1091 0.929 . S
H1080 C1094 0.930 . S
H1081 C1096 0.960 . S
H1082 C1096 0.960 . S
H1083 C1096 0.960 . S
C1084 H1076 0.929 . S
C1084 C1085 1.377 . S
C1084 C1086 1.384 . S
C1085 C1084 1.377 . S
C1085 C1091 1.390 . S
C1086 H1077 0.930 . S
C1086 C1084 1.384 . S
C1086 C1087 1.372 . S
C1087 C1086 1.372 . S
C1087 C1088 1.400 . S
C1087 C1092 1.490 . S
C1088 H1078 0.930 . S
C1088 C1087 1.400 . S
C1088 C1091 1.386 . S
H1089 C1105 0.930 . S
H1090 C1106 0.931 . S
C1091 H1079 0.929 . S
C1091 C1085 1.390 . S
C1091 C1088 1.386 . S
C1092 C1087 1.490 . S
C1092 C1094 1.395 . S
C1092 C1095 1.403 . S
H1093 C1099 0.930 . S
C1094 H1080 0.930 . S
C1094 C1092 1.395 . S
C1094 C1097 1.403 . S
C1095 C1092 1.403 . S
C1095 C1096 1.524 . S
C1095 C1099 1.400 . S
C1096 H1081 0.960 . S
C1096 H1082 0.960 . S
C1096 H1083 0.960 . S
C1096 C1095 1.524 . S
C1097 C1094 1.403 . S
C1097 C1098 1.392 . S
C1097 C1101 1.495 . S
C1098 C1097 1.392 . S
C1098 C1099 1.385 . S
C1098 C1100 1.478 . S
C1099 H1093 0.930 . S
C1099 C1095 1.400 . S
C1099 C1098 1.385 . S
C1100 C1098 1.478 . S
C1100 C1102 1.381 . S
C1100 C1106 1.383 . S
C1101 C1097 1.495 . S
C1101 H1107 0.959 . S
C1101 H1108 0.961 . S
C1101 H1109 0.960 . S
C1102 C1100 1.381 . S
C1102 C1103 1.394 . S
C1102 H1110 0.930 . S
C1103 C1102 1.394 . S
C1103 C1104 1.383 . S
C1103 H1111 0.929 . S
C1104 C1103 1.383 . S
C1104 C1105 1.377 . S
C1105 H1089 0.930 . S
C1105 C1104 1.377 . S
C1105 C1106 1.379 . S
C1106 H1090 0.931 . S
C1106 C1100 1.383 . S
C1106 C1105 1.379 . S
H1107 C1101 0.959 . S
H1108 C1101 0.961 . S
H1109 C1101 0.960 . S
H1110 C1102 0.930 . S
H1111 C1103 0.929 . S
H1112 C1120 0.929 . S
H1113 C1122 0.930 . S
H1114 C1124 0.930 . S
H1115 C1127 0.929 . S
H1116 C1130 0.930 . S
H1117 C1132 0.960 . S
H1118 C1132 0.960 . S
H1119 C1132 0.960 . S
C1120 H1112 0.929 . S
C1120 C1121 1.377 . S
C1120 C1122 1.384 . S
C1121 C1120 1.377 . S
C1121 C1127 1.390 . S
C1122 H1113 0.930 . S
C1122 C1120 1.384 . S
C1122 C1123 1.372 . S
C1123 C1122 1.372 . S
C1123 C1124 1.400 . S
C1123 C1128 1.490 . S
C1124 H1114 0.930 . S
C1124 C1123 1.400 . S
C1124 C1127 1.386 . S
H1125 C1141 0.930 . S
H1126 C1142 0.931 . S
C1127 H1115 0.929 . S
C1127 C1121 1.390 . S
C1127 C1124 1.386 . S
C1128 C1123 1.490 . S
C1128 C1130 1.395 . S
C1128 C1131 1.403 . S
H1129 C1135 0.930 . S
C1130 H1116 0.930 . S
C1130 C1128 1.395 . S
C1130 C1133 1.403 . S
C1131 C1128 1.403 . S
C1131 C1132 1.524 . S
C1131 C1135 1.400 . S
C1132 H1117 0.960 . S
C1132 H1118 0.960 . S
C1132 H1119 0.960 . S
C1132 C1131 1.524 . S
C1133 C1130 1.403 . S
C1133 C1134 1.392 . S
C1133 C1137 1.495 . S
C1134 C1133 1.392 . S
C1134 C1135 1.385 . S
C1134 C1136 1.478 . S
C1135 H1129 0.930 . S
C1135 C1131 1.400 . S
C1135 C1134 1.385 . S
C1136 C1134 1.478 . S
C1136 C1138 1.381 . S
C1136 C1142 1.383 . S
C1137 C1133 1.495 . S
C1137 H1143 0.959 . S
C1137 H1144 0.961 . S
C1137 H1145 0.960 . S
C1138 C1136 1.381 . S
C1138 C1139 1.394 . S
C1138 H1146 0.930 . S
C1139 C1138 1.394 . S
C1139 C1140 1.383 . S
C1139 H1147 0.929 . S
C1140 C1139 1.383 . S
C1140 C1141 1.377 . S
C1141 H1125 0.930 . S
C1141 C1140 1.377 . S
C1141 C1142 1.379 . S
C1142 H1126 0.931 . S
C1142 C1136 1.383 . S
C1142 C1141 1.379 . S
H1143 C1137 0.959 . S
H1144 C1137 0.961 . S
H1145 C1137 0.960 . S
H1146 C1138 0.930 . S
H1147 C1139 0.929 . S
H1148 C1156 0.929 . S
H1149 C1158 0.930 . S
H1150 C1160 0.930 . S
H1151 C1163 0.929 . S
H1152 C1166 0.930 . S
H1153 C1168 0.960 . S
H1154 C1168 0.960 . S
H1155 C1168 0.960 . S
C1156 H1148 0.929 . S
C1156 C1157 1.377 . S
C1156 C1158 1.384 . S
C1157 C1156 1.377 . S
C1157 C1163 1.390 . S
C1158 H1149 0.930 . S
C1158 C1156 1.384 . S
C1158 C1159 1.372 . S
C1159 C1158 1.372 . S
C1159 C1160 1.400 . S
C1159 C1164 1.490 . S
C1160 H1150 0.930 . S
C1160 C1159 1.400 . S
C1160 C1163 1.386 . S
H1161 C1177 0.930 . S
H1162 C1178 0.931 . S
C1163 H1151 0.929 . S
C1163 C1157 1.390 . S
C1163 C1160 1.386 . S
C1164 C1159 1.490 . S
C1164 C1166 1.395 . S
C1164 C1167 1.403 . S
H1165 C1171 0.930 . S
C1166 H1152 0.930 . S
C1166 C1164 1.395 . S
C1166 C1169 1.403 . S
C1167 C1164 1.403 . S
C1167 C1168 1.524 . S
C1167 C1171 1.400 . S
C1168 H1153 0.960 . S
C1168 H1154 0.960 . S
C1168 H1155 0.960 . S
C1168 C1167 1.524 . S
C1169 C1166 1.403 . S
C1169 C1170 1.392 . S
C1169 C1173 1.495 . S
C1170 C1169 1.392 . S
C1170 C1171 1.385 . S
C1170 C1172 1.478 . S
C1171 H1165 0.930 . S
C1171 C1167 1.400 . S
C1171 C1170 1.385 . S
C1172 C1170 1.478 . S
C1172 C1174 1.381 . S
C1172 C1178 1.383 . S
C1173 C1169 1.495 . S
C1173 H1179 0.959 . S
C1173 H1180 0.961 . S
C1173 H1181 0.960 . S
C1174 C1172 1.381 . S
C1174 C1175 1.394 . S
C1174 H1182 0.930 . S
C1175 C1174 1.394 . S
C1175 C1176 1.383 . S
C1175 H1183 0.929 . S
C1176 C1175 1.383 . S
C1176 C1177 1.377 . S
C1177 H1161 0.930 . S
C1177 C1176 1.377 . S
C1177 C1178 1.379 . S
C1178 H1162 0.931 . S
C1178 C1172 1.383 . S
C1178 C1177 1.379 . S
H1179 C1173 0.959 . S
H1180 C1173 0.961 . S
H1181 C1173 0.960 . S
H1182 C1174 0.930 . S
H1183 C1175 0.929 . S
H1184 C1192 0.929 . S
H1185 C1194 0.930 . S
H1186 C1196 0.930 . S
H1187 C1199 0.929 . S
H1188 C1202 0.930 . S
H1189 C1204 0.960 . S
H1190 C1204 0.960 . S
H1191 C1204 0.960 . S
C1192 H1184 0.929 . S
C1192 C1193 1.377 . S
C1192 C1194 1.384 . S
C1193 C1192 1.377 . S
C1193 C1199 1.390 . S
C1194 H1185 0.930 . S
C1194 C1192 1.384 . S
C1194 C1195 1.372 . S
C1195 C1194 1.372 . S
C1195 C1196 1.400 . S
C1195 C1200 1.490 . S
C1196 H1186 0.930 . S
C1196 C1195 1.400 . S
C1196 C1199 1.386 . S
H1197 C1213 0.930 . S
H1198 C1214 0.931 . S
C1199 H1187 0.929 . S
C1199 C1193 1.390 . S
C1199 C1196 1.386 . S
C1200 C1195 1.490 . S
C1200 C1202 1.395 . S
C1200 C1203 1.403 . S
H1201 C1207 0.930 . S
C1202 H1188 0.930 . S
C1202 C1200 1.395 . S
C1202 C1205 1.403 . S
C1203 C1200 1.403 . S
C1203 C1204 1.524 . S
C1203 C1207 1.400 . S
C1204 H1189 0.960 . S
C1204 H1190 0.960 . S
C1204 H1191 0.960 . S
C1204 C1203 1.524 . S
C1205 C1202 1.403 . S
C1205 C1206 1.392 . S
C1205 C1209 1.495 . S
C1206 C1205 1.392 . S
C1206 C1207 1.385 . S
C1206 C1208 1.478 . S
C1207 H1201 0.930 . S
C1207 C1203 1.400 . S
C1207 C1206 1.385 . S
C1208 C1206 1.478 . S
C1208 C1210 1.381 . S
C1208 C1214 1.383 . S
C1209 C1205 1.495 . S
C1209 H1215 0.959 . S
C1209 H1216 0.961 . S
C1209 H1217 0.960 . S
C1210 C1208 1.381 . S
C1210 C1211 1.394 . S
C1210 H1218 0.930 . S
C1211 C1210 1.394 . S
C1211 C1212 1.383 . S
C1211 H1219 0.929 . S
C1212 C1211 1.383 . S
C1212 C1213 1.377 . S
C1213 H1197 0.930 . S
C1213 C1212 1.377 . S
C1213 C1214 1.379 . S
C1214 H1198 0.931 . S
C1214 C1208 1.383 . S
C1214 C1213 1.379 . S
H1215 C1209 0.959 . S
H1216 C1209 0.961 . S
H1217 C1209 0.960 . S
H1218 C1210 0.930 . S
H1219 C1211 0.929 . S
H1220 C1228 0.929 . S
H1221 C1230 0.930 . S
H1222 C1232 0.930 . S
H1223 C1235 0.929 . S
H1224 C1238 0.930 . S
H1225 C1240 0.960 . S
H1226 C1240 0.960 . S
H1227 C1240 0.960 . S
C1228 H1220 0.929 . S
C1228 C1229 1.377 . S
C1228 C1230 1.384 . S
C1229 C1228 1.377 . S
C1229 C1235 1.390 . S
C1230 H1221 0.930 . S
C1230 C1228 1.384 . S
C1230 C1231 1.372 . S
C1231 C1230 1.372 . S
C1231 C1232 1.400 . S
C1231 C1236 1.490 . S
C1232 H1222 0.930 . S
C1232 C1231 1.400 . S
C1232 C1235 1.386 . S
H1233 C1249 0.930 . S
H1234 C1250 0.931 . S
C1235 H1223 0.929 . S
C1235 C1229 1.390 . S
C1235 C1232 1.386 . S
C1236 C1231 1.490 . S
C1236 C1238 1.395 . S
C1236 C1239 1.403 . S
H1237 C1243 0.930 . S
C1238 H1224 0.930 . S
C1238 C1236 1.395 . S
C1238 C1241 1.403 . S
C1239 C1236 1.403 . S
C1239 C1240 1.524 . S
C1239 C1243 1.400 . S
C1240 H1225 0.960 . S
C1240 H1226 0.960 . S
C1240 H1227 0.960 . S
C1240 C1239 1.524 . S
C1241 C1238 1.403 . S
C1241 C1242 1.392 . S
C1241 C1245 1.495 . S
C1242 C1241 1.392 . S
C1242 C1243 1.385 . S
C1242 C1244 1.478 . S
C1243 H1237 0.930 . S
C1243 C1239 1.400 . S
C1243 C1242 1.385 . S
C1244 C1242 1.478 . S
C1244 C1246 1.381 . S
C1244 C1250 1.383 . S
C1245 C1241 1.495 . S
C1245 H1251 0.959 . S
C1245 H1252 0.961 . S
C1245 H1253 0.960 . S
C1246 C1244 1.381 . S
C1246 C1247 1.394 . S
C1246 H1254 0.930 . S
C1247 C1246 1.394 . S
C1247 C1248 1.383 . S
C1247 H1255 0.929 . S
C1248 C1247 1.383 . S
C1248 C1249 1.377 . S
C1249 H1233 0.930 . S
C1249 C1248 1.377 . S
C1249 C1250 1.379 . S
C1250 H1234 0.931 . S
C1250 C1244 1.383 . S
C1250 C1249 1.379 . S
H1251 C1245 0.959 . S
H1252 C1245 0.961 . S
H1253 C1245 0.960 . S
H1254 C1246 0.930 . S
H1255 C1247 0.929 . S
C401 C1 1.555 . S
C420 C314 1.568 . S
C437 C40 1.395 . S
C456 C333 1.352 . S
C492 C370 1.708 . S
C473 C99 1.751 . S
C509 C118 1.667 . S
C528 C380 1.612 . S
C564 C350 2.062 . S
C545 C16 2.031 . S
C600 C320 1.467 . S
C581 C60 1.513 . S
C636 C391 1.490 . S
C617 C79 1.512 . S
C672 C361 1.300 . S
C653 C138 1.343 . S
C689 C21 1.803 . S
C708 C374 1.828 . S
C744 C341 1.727 . S
C725 C94 1.762 . S
C761 C133 1.714 . S
C780 C331 1.712 . S
C797 C55 1.215 . S
C816 C353 1.223 . S
C852 C313 1.580 . S
C833 C157 1.558 . S
C869 C196 1.397 . S
C888 C334 1.387 . S
C905 C255 1.748 . S
C924 C371 1.710 . S
C941 C289 1.661 . S
C960 C381 1.599 . S
C977 C172 2.029 . S
C996 C351 2.051 . S
C1032 C321 1.458 . S
C1013 C216 1.515 . S
C1068 C390 1.500 . S
C1049 C235 1.513 . S
C1104 C360 1.293 . S
C1085 C294 1.340 . S
C1121 C177 1.816 . S
C1140 C373 1.806 . S
C1176 C340 1.689 . S
C1157 C250 1.764 . S
C1212 C330 1.719 . S
C1193 C274 1.716 . S
C1229 C211 1.213 . S
C1248 C354 1.187 . S
