# Generated by pormake.
# Topology pto, (3,4)-cn, num edge types: 1
# Building blocks:
#     Node 0, Type 0, BuildingBlock: WUSLED_clean_sbu_0, # of connection points: 3
#     Node 1, Type 0, BuildingBlock: WUSLED_clean_sbu_0, # of connection points: 3
#     Node 2, Type 0, BuildingBlock: WUSLED_clean_sbu_0, # of connection points: 3
#     Node 3, Type 0, BuildingBlock: WUSLED_clean_sbu_0, # of connection points: 3
#     Node 4, Type 0, BuildingBlock: WUSLED_clean_sbu_0, # of connection points: 3
#     Node 5, Type 0, BuildingBlock: WUSLED_clean_sbu_0, # of connection points: 3
#     Node 6, Type 0, BuildingBlock: WUSLED_clean_sbu_0, # of connection points: 3
#     Node 7, Type 0, BuildingBlock: WUSLED_clean_sbu_0, # of connection points: 3
#     Node 8, Type 1, BuildingBlock: NAHDIM_clean_linker_0, # of connection points: 4
#     Node 9, Type 1, BuildingBlock: NAHDIM_clean_linker_0, # of connection points: 4
#     Node 10, Type 1, BuildingBlock: NAHDIM_clean_linker_0, # of connection points: 4
#     Node 11, Type 1, BuildingBlock: NAHDIM_clean_linker_0, # of connection points: 4
#     Node 12, Type 1, BuildingBlock: NAHDIM_clean_linker_0, # of connection points: 4
#     Node 13, Type 1, BuildingBlock: NAHDIM_clean_linker_0, # of connection points: 4
#     Edge 14, Type (0, 1), BuildingBlock: OJICUG_clean_linker_0, # of connection points: 2
#     Edge 15, Type (0, 1), BuildingBlock: OJICUG_clean_linker_0, # of connection points: 2
#     Edge 16, Type (0, 1), BuildingBlock: OJICUG_clean_linker_0, # of connection points: 2
#     Edge 17, Type (0, 1), BuildingBlock: OJICUG_clean_linker_0, # of connection points: 2
#     Edge 18, Type (0, 1), BuildingBlock: OJICUG_clean_linker_0, # of connection points: 2
#     Edge 19, Type (0, 1), BuildingBlock: OJICUG_clean_linker_0, # of connection points: 2
#     Edge 20, Type (0, 1), BuildingBlock: OJICUG_clean_linker_0, # of connection points: 2
#     Edge 21, Type (0, 1), BuildingBlock: OJICUG_clean_linker_0, # of connection points: 2
#     Edge 22, Type (0, 1), BuildingBlock: OJICUG_clean_linker_0, # of connection points: 2
#     Edge 23, Type (0, 1), BuildingBlock: OJICUG_clean_linker_0, # of connection points: 2
#     Edge 24, Type (0, 1), BuildingBlock: OJICUG_clean_linker_0, # of connection points: 2
#     Edge 25, Type (0, 1), BuildingBlock: OJICUG_clean_linker_0, # of connection points: 2
#     Edge 26, Type (0, 1), BuildingBlock: OJICUG_clean_linker_0, # of connection points: 2
#     Edge 27, Type (0, 1), BuildingBlock: OJICUG_clean_linker_0, # of connection points: 2
#     Edge 28, Type (0, 1), BuildingBlock: OJICUG_clean_linker_0, # of connection points: 2
#     Edge 29, Type (0, 1), BuildingBlock: OJICUG_clean_linker_0, # of connection points: 2
#     Edge 30, Type (0, 1), BuildingBlock: OJICUG_clean_linker_0, # of connection points: 2
#     Edge 31, Type (0, 1), BuildingBlock: OJICUG_clean_linker_0, # of connection points: 2
#     Edge 32, Type (0, 1), BuildingBlock: OJICUG_clean_linker_0, # of connection points: 2
#     Edge 33, Type (0, 1), BuildingBlock: OJICUG_clean_linker_0, # of connection points: 2
#     Edge 34, Type (0, 1), BuildingBlock: OJICUG_clean_linker_0, # of connection points: 2
#     Edge 35, Type (0, 1), BuildingBlock: OJICUG_clean_linker_0, # of connection points: 2
#     Edge 36, Type (0, 1), BuildingBlock: OJICUG_clean_linker_0, # of connection points: 2
#     Edge 37, Type (0, 1), BuildingBlock: OJICUG_clean_linker_0, # of connection points: 2
# Relax obj value: 0.001
# Max RMSD: 0.073
# Mean RMSD: 0.020
data_MOF--net-pto--node1-WUSLED_clean_sbu_0--node2-NAHDIM_clean_linker_0--edge1-OJICUG_clean_linker_0
_symmetry_space_group_name_H-M    P1
_symmetry_Int_Tables_number       1
_symmetry_cell_setting            triclinic
loop_
_symmetry_equiv_pos_as_xyz
'x, y, z'
_cell_length_a     61.963826
_cell_length_b     59.52625
_cell_length_c     56.472628
_cell_angle_alpha  89.105072
_cell_angle_beta   90.93545
_cell_angle_gamma 90.852743
loop_
_atom_site_label
_atom_site_type_symbol
_atom_site_fract_x
_atom_site_fract_y
_atom_site_fract_z
_atom_type_partial_charge
C0 C 0.2549 0.24853 0.31425 0.0
C1 C 0.27329 0.23564 0.3107 0.0
C2 C 0.264 0.21142 0.34435 0.0
C3 C 0.27779 0.21725 0.32558 0.0
C4 C 0.24532 0.22416 0.34749 0.0
C5 C 0.24084 0.24258 0.33256 0.0
U6 U 0.2718 0.28822 0.26463 0.0
O7 O 0.2531 0.3051 0.23626 0.0
O8 O 0.2715 0.32515 0.2622 0.0
C9 C 0.25807 0.32528 0.24393 0.0
C10 C 0.25077 0.2686 0.29944 0.0
C11 C 0.2403 0.34137 0.24451 0.0
C12 C 0.20853 0.35725 0.2624 0.0
C13 C 0.22521 0.34147 0.26283 0.0
C14 C 0.22206 0.37275 0.22552 0.0
C15 C 0.20671 0.37288 0.24355 0.0
C16 C 0.23862 0.35715 0.226 0.0
C17 C 0.32399 0.27587 0.23213 0.0
C18 C 0.33895 0.30107 0.20213 0.0
C19 C 0.35736 0.26665 0.21272 0.0
C20 C 0.34121 0.2613 0.22898 0.0
C21 C 0.35659 0.28674 0.19924 0.0
C22 C 0.32281 0.2957 0.21845 0.0
C23 C 0.30774 0.2704 0.25012 0.0
O24 O 0.2646 0.28529 0.30256 0.0
O25 O 0.24641 0.26478 0.27698 0.0
O26 O 0.28854 0.26454 0.24193 0.0
O27 O 0.30698 0.28437 0.26787 0.0
H28 H 0.28432 0.24 0.2966 0.0
H29 H 0.29213 0.20764 0.32241 0.0
H30 H 0.23448 0.22034 0.3619 0.0
H31 H 0.22658 0.2524 0.33558 0.0
H32 H 0.19694 0.35697 0.27654 0.0
H33 H 0.22631 0.32939 0.27733 0.0
H34 H 0.22166 0.38497 0.21116 0.0
H35 H 0.25024 0.35749 0.21186 0.0
H36 H 0.33763 0.31651 0.19185 0.0
H37 H 0.37078 0.25534 0.21126 0.0
H38 H 0.34237 0.24591 0.2394 0.0
H39 H 0.30955 0.30712 0.22059 0.0
C40 C 0.26066 0.78387 0.69123 0.0
C41 C 0.27918 0.7977 0.68969 0.0
C42 C 0.26211 0.81962 0.65789 0.0
C43 C 0.27993 0.81546 0.673 0.0
C44 C 0.24383 0.80546 0.65942 0.0
C45 C 0.24312 0.78783 0.67593 0.0
U46 U 0.27954 0.74789 0.74525 0.0
O47 O 0.2595 0.73405 0.77398 0.0
O48 O 0.27652 0.71134 0.75073 0.0
C49 C 0.26245 0.71316 0.76774 0.0
C50 C 0.2588 0.76532 0.70861 0.0
C51 C 0.24275 0.69926 0.76524 0.0
C52 C 0.21124 0.68697 0.74247 0.0
C53 C 0.22945 0.70098 0.74497 0.0
C54 C 0.21914 0.66978 0.78075 0.0
C55 C 0.20597 0.67103 0.76024 0.0
C56 C 0.23736 0.68377 0.78319 0.0
C57 C 0.33131 0.75864 0.78007 0.0
C58 C 0.34292 0.73252 0.81108 0.0
C59 C 0.36005 0.76926 0.80762 0.0
C60 C 0.34673 0.77433 0.78807 0.0
C61 C 0.35819 0.74835 0.81945 0.0
C62 C 0.32953 0.73766 0.79163 0.0
C63 C 0.31661 0.76457 0.76032 0.0
O64 O 0.27265 0.74894 0.70688 0.0
O65 O 0.25538 0.77116 0.73056 0.0
O66 O 0.29788 0.77243 0.76663 0.0
O67 O 0.31495 0.74973 0.74335 0.0
H68 H 0.2929 0.79485 0.70143 0.0
H69 H 0.29424 0.82609 0.67221 0.0
H70 H 0.23009 0.80763 0.64759 0.0
H71 H 0.22877 0.77722 0.67673 0.0
H72 H 0.2013 0.68859 0.7266 0.0
H73 H 0.2333 0.71298 0.73099 0.0
H74 H 0.21574 0.65755 0.79463 0.0
H75 H 0.24744 0.68224 0.79897 0.0
H76 H 0.34089 0.7164 0.81999 0.0
H77 H 0.37179 0.78172 0.8135 0.0
H78 H 0.3483 0.79061 0.77937 0.0
H79 H 0.31756 0.72539 0.78582 0.0
C80 C 0.72164 0.76577 0.21548 0.0
C81 C 0.72292 0.74446 0.20536 0.0
C82 C 0.69283 0.75311 0.1787 0.0
C83 C 0.7086 0.73817 0.18721 0.0
C84 C 0.69169 0.77452 0.18872 0.0
C85 C 0.70596 0.78078 0.20705 0.0
U86 U 0.77354 0.75544 0.24955 0.0
O87 O 0.79843 0.7785 0.26379 0.0
O88 O 0.78103 0.75547 0.28775 0.0
C89 C 0.79496 0.77225 0.28586 0.0
C90 C 0.73681 0.77233 0.23456 0.0
C91 C 0.79234 0.7905 0.30276 0.0
C92 C 0.77318 0.82291 0.31672 0.0
C93 C 0.77561 0.80597 0.30008 0.0
C94 C 0.80423 0.80906 0.33878 0.0
C95 C 0.7874 0.8246 0.33636 0.0
C96 C 0.80666 0.7922 0.32212 0.0
C97 C 0.80751 0.70584 0.23065 0.0
C98 C 0.83711 0.69086 0.25446 0.0
C99 C 0.8295 0.67607 0.21542 0.0
C100 C 0.81247 0.69106 0.21253 0.0
C101 C 0.84185 0.67557 0.23655 0.0
C102 C 0.8201 0.70589 0.25152 0.0
C103 C 0.78872 0.72047 0.22783 0.0
O104 O 0.73831 0.75786 0.25232 0.0
O105 O 0.75568 0.77997 0.22747 0.0
O106 O 0.7929 0.74131 0.22115 0.0
O107 O 0.77455 0.71891 0.24487 0.0
H108 H 0.73508 0.73272 0.21146 0.0
H109 H 0.71028 0.72176 0.17953 0.0
H110 H 0.6796 0.78634 0.18266 0.0
H111 H 0.70477 0.79731 0.21463 0.0
H112 H 0.7602 0.83473 0.31414 0.0
H113 H 0.7644 0.80489 0.28519 0.0
H114 H 0.81526 0.80958 0.35383 0.0
H115 H 0.81962 0.7803 0.32449 0.0
H116 H 0.84647 0.6911 0.27082 0.0
H117 H 0.83254 0.66438 0.20139 0.0
H118 H 0.80289 0.69081 0.19631 0.0
H119 H 0.81655 0.71731 0.26565 0.0
C120 C 0.74312 0.23804 0.70418 0.0
C121 C 0.76213 0.23942 0.69106 0.0
C122 C 0.75479 0.20216 0.67505 0.0
C123 C 0.76788 0.22167 0.67657 0.0
C124 C 0.7354 0.20126 0.68772 0.0
C125 C 0.72965 0.21904 0.70214 0.0
U126 U 0.75651 0.29265 0.73638 0.0
O127 O 0.73519 0.3195 0.74807 0.0
O128 O 0.7543 0.30029 0.77417 0.0
C129 C 0.73948 0.31559 0.77062 0.0
C130 C 0.73788 0.25552 0.7212 0.0
C131 C 0.72085 0.31378 0.78634 0.0
C132 C 0.6899 0.29314 0.80178 0.0
C133 C 0.70647 0.2954 0.7853 0.0
C134 C 0.70172 0.32783 0.82011 0.0
C135 C 0.68753 0.30915 0.81965 0.0
C136 C 0.7182 0.3301 0.8036 0.0
C137 C 0.80774 0.32598 0.72508 0.0
C138 C 0.8194 0.35475 0.75272 0.0
C139 C 0.83815 0.35066 0.71577 0.0
C140 C 0.82413 0.33291 0.70965 0.0
C141 C 0.83602 0.36159 0.73748 0.0
C142 C 0.80534 0.33716 0.74654 0.0
C143 C 0.79335 0.30697 0.71903 0.0
O144 O 0.75061 0.25629 0.74001 0.0
O145 O 0.73362 0.2755 0.71217 0.0
O146 O 0.77453 0.31241 0.70969 0.0
O147 O 0.79188 0.29123 0.73553 0.0
H148 H 0.77273 0.254 0.69243 0.0
H149 H 0.78275 0.22312 0.66681 0.0
H150 H 0.72504 0.18646 0.68726 0.0
H151 H 0.71495 0.21767 0.71223 0.0
H152 H 0.6791 0.27871 0.80068 0.0
H153 H 0.70831 0.28263 0.77204 0.0
H154 H 0.70064 0.34033 0.83375 0.0
H155 H 0.72925 0.34434 0.8047 0.0
H156 H 0.81698 0.36314 0.76931 0.0
H157 H 0.8509 0.35546 0.70374 0.0
H158 H 0.8262 0.32448 0.693 0.0
H159 H 0.79263 0.33219 0.75858 0.0
C160 C 0.80122 0.6942 0.77177 0.0
C161 C 0.81842 0.70056 0.75713 0.0
C162 C 0.83602 0.66493 0.76571 0.0
C163 C 0.8357 0.68606 0.75415 0.0
C164 C 0.81864 0.65871 0.7803 0.0
C165 C 0.80144 0.67324 0.78332 0.0
U166 U 0.7695 0.7465 0.75487 0.0
O167 O 0.73443 0.7518 0.75298 0.0
O168 O 0.75465 0.77148 0.77751 0.0
C169 C 0.73494 0.76595 0.77062 0.0
C170 C 0.78296 0.70919 0.77514 0.0
C171 C 0.71996 0.76067 0.78988 0.0
C172 C 0.70978 0.7378 0.824 0.0
C173 C 0.7239 0.74257 0.80548 0.0
C174 C 0.68757 0.76911 0.81146 0.0
C175 C 0.69146 0.75104 0.82725 0.0
C176 C 0.70171 0.77386 0.79292 0.0
C177 C 0.78942 0.78508 0.70502 0.0
C178 C 0.76862 0.81618 0.68884 0.0
C179 C 0.80729 0.81534 0.68332 0.0
C180 C 0.80818 0.79484 0.69566 0.0
C181 C 0.78754 0.82644 0.67999 0.0
C182 C 0.76958 0.79575 0.70138 0.0
C183 C 0.79114 0.76455 0.71968 0.0
O184 O 0.78806 0.72927 0.78302 0.0
O185 O 0.76855 0.70958 0.7578 0.0
O186 O 0.77579 0.7493 0.7167 0.0
O187 O 0.79617 0.76794 0.74204 0.0
H188 H 0.81847 0.71674 0.74807 0.0
H189 H 0.84889 0.69148 0.74298 0.0
H190 H 0.81811 0.64244 0.78912 0.0
H191 H 0.78824 0.66806 0.79461 0.0
H192 H 0.71342 0.72396 0.83602 0.0
H193 H 0.73798 0.73224 0.8034 0.0
H194 H 0.67347 0.77945 0.81329 0.0
H195 H 0.69842 0.78785 0.78096 0.0
H196 H 0.75308 0.82403 0.68633 0.0
H197 H 0.82225 0.82282 0.67717 0.0
H198 H 0.82366 0.78689 0.69844 0.0
H199 H 0.75489 0.78849 0.70857 0.0
C200 C 0.72364 0.25138 0.20503 0.0
C201 C 0.72894 0.26583 0.18605 0.0
C202 C 0.69077 0.27034 0.17626 0.0
C203 C 0.71266 0.27511 0.17169 0.0
C204 C 0.68569 0.2553 0.19493 0.0
C205 C 0.70197 0.24589 0.20911 0.0
U206 U 0.77837 0.2591 0.23476 0.0
O207 O 0.78825 0.25642 0.27214 0.0
O208 O 0.80283 0.23445 0.24614 0.0
C209 C 0.80087 0.23928 0.26863 0.0
C210 C 0.74028 0.24349 0.22188 0.0
C211 C 0.79777 0.22013 0.28502 0.0
C212 C 0.77419 0.19501 0.30739 0.0
C213 C 0.77705 0.2116 0.28986 0.0
C214 C 0.81284 0.1946 0.31462 0.0
C215 C 0.79204 0.18661 0.32031 0.0
C216 C 0.81565 0.21126 0.29718 0.0
C217 C 0.81344 0.30937 0.21853 0.0
C218 C 0.84928 0.31351 0.23598 0.0
C219 C 0.83377 0.34419 0.21303 0.0
C220 C 0.81508 0.33121 0.20907 0.0
C221 C 0.85109 0.33548 0.22656 0.0
C222 C 0.8306 0.30061 0.23207 0.0
C223 C 0.79362 0.296 0.21485 0.0
O224 O 0.75834 0.23667 0.21261 0.0
O225 O 0.7434 0.25645 0.24029 0.0
O226 O 0.78024 0.296 0.23265 0.0
O227 O 0.79634 0.27591 0.2061 0.0
H228 H 0.74563 0.27037 0.18271 0.0
H229 H 0.71723 0.28634 0.15729 0.0
H230 H 0.66908 0.2515 0.19933 0.0
H231 H 0.6976 0.23492 0.22381 0.0
H232 H 0.75794 0.18942 0.31143 0.0
H233 H 0.76303 0.21828 0.28061 0.0
H234 H 0.82696 0.18822 0.3239 0.0
H235 H 0.83177 0.2176 0.2936 0.0
H236 H 0.86242 0.30614 0.24616 0.0
H237 H 0.83453 0.36112 0.20577 0.0
H238 H 0.80186 0.33827 0.19876 0.0
H239 H 0.82954 0.28378 0.23961 0.0
C240 C 0.25108 0.23303 0.71049 0.0
C241 C 0.26764 0.219 0.71871 0.0
C242 C 0.26128 0.1941 0.68546 0.0
C243 C 0.27264 0.19969 0.70638 0.0
C244 C 0.24476 0.20835 0.67719 0.0
C245 C 0.23971 0.22769 0.68963 0.0
U246 U 0.26549 0.27331 0.75911 0.0
O247 O 0.26256 0.31005 0.76126 0.0
O248 O 0.24613 0.28799 0.78697 0.0
C249 C 0.24875 0.30858 0.77866 0.0
C250 C 0.24573 0.25312 0.72381 0.0
C251 C 0.22873 0.32112 0.77506 0.0
C252 C 0.19218 0.3235 0.75927 0.0
C253 C 0.21163 0.31205 0.76157 0.0
C254 C 0.20695 0.35351 0.78343 0.0
C255 C 0.18954 0.3443 0.77032 0.0
C256 C 0.22638 0.34197 0.7858 0.0
C257 C 0.31661 0.26418 0.79515 0.0
C258 C 0.32457 0.28771 0.82896 0.0
C259 C 0.35012 0.25961 0.8174 0.0
C260 C 0.3363 0.2533 0.79875 0.0
C261 C 0.34441 0.27692 0.83268 0.0
C262 C 0.3108 0.2814 0.81034 0.0
C263 C 0.3021 0.25749 0.77567 0.0
O264 O 0.24098 0.24926 0.74612 0.0
O265 O 0.259 0.27033 0.72084 0.0
O266 O 0.30092 0.27191 0.75785 0.0
O267 O 0.28315 0.24968 0.78227 0.0
H268 H 0.27659 0.22291 0.73481 0.0
H269 H 0.28519 0.18893 0.7135 0.0
H270 H 0.23586 0.20465 0.66101 0.0
H271 H 0.22694 0.23845 0.68301 0.0
H272 H 0.17904 0.31575 0.74934 0.0
H273 H 0.2132 0.29592 0.75317 0.0
H274 H 0.20557 0.36962 0.79188 0.0
H275 H 0.2395 0.34921 0.79621 0.0
H276 H 0.31957 0.30089 0.8406 0.0
H277 H 0.36539 0.25116 0.81965 0.0
H278 H 0.34101 0.23999 0.78712 0.0
H279 H 0.29557 0.28991 0.80781 0.0
C280 C 0.21102 0.73595 0.26128 0.0
C281 C 0.21561 0.71987 0.24427 0.0
C282 C 0.18385 0.69797 0.25566 0.0
C283 C 0.20216 0.70104 0.24149 0.0
C284 C 0.17919 0.71431 0.27252 0.0
C285 C 0.1927 0.73317 0.27529 0.0
U286 U 0.2622 0.76694 0.24489 0.0
O287 O 0.27054 0.80299 0.24317 0.0
O288 O 0.28855 0.78045 0.26718 0.0
C289 C 0.28518 0.80128 0.2602 0.0
C290 C 0.22593 0.75496 0.26511 0.0
C291 C 0.28377 0.81749 0.2794 0.0
C292 C 0.26448 0.83381 0.31187 0.0
C293 C 0.26497 0.81921 0.29271 0.0
C294 C 0.30153 0.8451 0.30444 0.0
C295 C 0.28286 0.84678 0.31815 0.0
C296 C 0.30193 0.83064 0.28523 0.0
C297 C 0.29687 0.74432 0.19648 0.0
C298 C 0.33396 0.75732 0.19262 0.0
C299 C 0.31852 0.73145 0.16404 0.0
C300 C 0.29894 0.73152 0.17606 0.0
C301 C 0.33637 0.74415 0.17236 0.0
C302 C 0.31439 0.75746 0.2045 0.0
C303 C 0.27685 0.74321 0.21002 0.0
O304 O 0.24502 0.74927 0.2735 0.0
O305 O 0.22693 0.76978 0.24762 0.0
O306 O 0.26372 0.76015 0.20669 0.0
O307 O 0.27951 0.73759 0.23246 0.0
H308 H 0.22981 0.7217 0.23342 0.0
H309 H 0.20639 0.68863 0.2286 0.0
H310 H 0.16509 0.71255 0.28351 0.0
H311 H 0.18897 0.74546 0.28852 0.0
H312 H 0.24974 0.83487 0.32179 0.0
H313 H 0.25081 0.80907 0.28845 0.0
H314 H 0.3161 0.85446 0.30891 0.0
H315 H 0.31661 0.82938 0.2752 0.0
H316 H 0.3474 0.76701 0.1998 0.0
H317 H 0.31971 0.72138 0.14833 0.0
H318 H 0.28551 0.72134 0.16961 0.0
H319 H 0.31306 0.76744 0.22028 0.0
C320 C 0.94964 0.36873 0.22874 0.0
C321 C 0.93285 0.38286 0.24116 0.0
C322 C 0.94869 0.4202 0.23737 0.0
C323 C 0.95486 0.42461 0.26087 0.0
C324 C 0.97198 0.43955 0.26596 0.0
C325 C 0.9831 0.45024 0.24714 0.0
C326 C 0.97629 0.44654 0.22344 0.0
C327 C 0.95892 0.43174 0.21889 0.0
C328 C 0.97843 0.44365 0.29142 0.0
C329 C 0.98776 0.45772 0.20293 0.0
C330 C 0.15056 0.3973 0.24079 0.0
C331 C 0.13174 0.41239 0.23726 0.0
C332 C 0.09996 0.42675 0.2566 0.0
C333 C 0.09346 0.44017 0.23707 0.0
C334 C 0.07452 0.45276 0.2376 0.0
C335 C 0.0621 0.45271 0.2584 0.0
C336 C 0.06883 0.43973 0.27834 0.0
C337 C 0.08759 0.42678 0.2771 0.0
C338 C 0.06764 0.46584 0.21566 0.0
C339 C 0.0561 0.43941 0.30089 0.0
C340 C 0.0983 0.60077 0.26035 0.0
C341 C 0.09215 0.58863 0.24007 0.0
C342 C 0.07299 0.5758 0.23952 0.0
C343 C 0.06008 0.5743 0.25995 0.0
C344 C 0.06634 0.58621 0.28049 0.0
C345 C 0.08526 0.59949 0.28029 0.0
C346 C 0.06654 0.56391 0.21698 0.0
C347 C 0.0531 0.58483 0.30267 0.0
C348 C 0.89345 0.58295 0.23917 0.0
C349 C 0.90397 0.60382 0.25026 0.0
C350 C 0.94226 0.5967 0.24386 0.0
C351 C 0.95604 0.59358 0.22489 0.0
C352 C 0.97509 0.58125 0.22775 0.0
C353 C 0.98073 0.57232 0.25035 0.0
C354 C 0.96725 0.57612 0.26983 0.0
C355 C 0.9481 0.58815 0.26637 0.0
C356 C 0.98911 0.57763 0.20659 0.0
C357 C 0.97319 0.56759 0.29436 0.0
C358 C 1.00258 0.46428 0.25217 0.0
C359 C 0.02231 0.45334 0.25481 0.0
C360 C 0.04156 0.46537 0.25868 0.0
C361 C 0.04112 0.48906 0.26035 0.0
C362 C 0.06005 0.50172 0.2647 0.0
C363 C 0.05966 0.52509 0.26491 0.0
C364 C 0.04031 0.53669 0.2608 0.0
C365 C 0.03995 0.56043 0.25961 0.0
C366 C 0.02033 0.57144 0.25635 0.0
C367 C 1.00092 0.55939 0.25375 0.0
C368 C 1.00105 0.5356 0.25405 0.0
C369 C 0.98196 0.5229 0.25066 0.0
C370 C 0.98235 0.49952 0.25041 0.0
C371 C 1.00187 0.48796 0.25336 0.0
C372 C 0.02125 0.5004 0.25729 0.0
C373 C 0.02084 0.52424 0.25755 0.0
C374 C 0.14812 0.59609 0.24764 0.0
C375 C 0.13267 0.61585 0.2449 0.0
O376 O 0.93322 0.40463 0.23203 0.0
O377 O 0.92375 0.60828 0.23982 0.0
O378 O 0.11647 0.61391 0.26151 0.0
O379 O 0.11779 0.41353 0.25618 0.0
H380 H 0.937 0.38287 0.26039 0.0
H381 H 0.96609 0.37571 0.23222 0.0
H382 H 0.94663 0.36879 0.20928 0.0
H383 H 0.9491 0.35112 0.23554 0.0
H384 H 0.94634 0.41641 0.27527 0.0
H385 H 0.9538 0.42842 0.20082 0.0
H386 H 0.99479 0.43688 0.29493 0.0
H387 H 0.96702 0.43557 0.30405 0.0
H388 H 0.97918 0.46198 0.29476 0.0
H389 H 0.98078 0.45266 0.18553 0.0
H390 H 1.00512 0.45334 0.20355 0.0
H391 H 0.98676 0.47625 0.20435 0.0
H392 H 0.12308 0.40995 0.21998 0.0
H393 H 0.14814 0.38356 0.2275 0.0
H394 H 0.14676 0.38625 0.25661 0.0
H395 H 0.17702 0.41949 0.23996 0.0
H396 H 0.10288 0.44079 0.22112 0.0
H397 H 0.09268 0.41656 0.29217 0.0
H398 H 0.06955 0.4841 0.21889 0.0
H399 H 0.05036 0.46242 0.21139 0.0
H400 H 0.07736 0.46166 0.20001 0.0
H401 H 0.06474 0.43066 0.31566 0.0
H402 H 0.04037 0.43071 0.29777 0.0
H403 H 0.05267 0.45686 0.30627 0.0
H404 H 0.12555 0.61598 0.22672 0.0
H405 H 0.10201 0.58907 0.22448 0.0
H406 H 0.0901 0.60882 0.29588 0.0
H407 H 0.06881 0.54557 0.21944 0.0
H408 H 0.07632 0.56968 0.20167 0.0
H409 H 0.04923 0.56669 0.21265 0.0
H410 H 0.06133 0.59313 0.31789 0.0
H411 H 0.04971 0.56698 0.30751 0.0
H412 H 0.03736 0.59308 0.29935 0.0
H413 H 0.90616 0.60053 0.26953 0.0
H414 H 0.87743 0.57944 0.24712 0.0
H415 H 0.90376 0.56809 0.24249 0.0
H416 H 0.89133 0.58537 0.21972 0.0
H417 H 0.95157 0.60046 0.20765 0.0
H418 H 0.93813 0.59118 0.28147 0.0
H419 H 0.9923 0.55944 0.20469 0.0
H420 H 1.00492 0.58631 0.20932 0.0
H421 H 0.98162 0.5841 0.18987 0.0
H422 H 0.96185 0.57334 0.30796 0.0
H423 H 0.98977 0.57338 0.29926 0.0
H424 H 0.97312 0.54894 0.29457 0.0
H425 H 0.02277 0.43521 0.25317 0.0
H426 H 0.07544 0.49368 0.26774 0.0
H427 H 0.07478 0.53397 0.26812 0.0
H428 H 0.02019 0.58966 0.25546 0.0
H429 H 0.96652 0.53089 0.24796 0.0
H430 H 0.96719 0.49062 0.2476 0.0
H431 H 0.16122 0.59762 0.23448 0.0
H432 H 0.1393 0.57999 0.24461 0.0
H433 H 0.1554 0.59559 0.26575 0.0
C434 C 0.08938 0.36836 0.77939 0.0
C435 C 0.10443 0.38427 0.7656 0.0
C436 C 0.0886 0.42098 0.77029 0.0
C437 C 0.08221 0.42622 0.74693 0.0
C438 C 0.06536 0.44122 0.74227 0.0
C439 C 0.05476 0.45117 0.76138 0.0
C440 C 0.06181 0.44663 0.78492 0.0
C441 C 0.07889 0.43177 0.78904 0.0
C442 C 0.05861 0.44614 0.71695 0.0
C443 C 0.05091 0.457 0.80571 0.0
C444 C 0.8889 0.38998 0.75167 0.0
C445 C 0.90667 0.40542 0.7595 0.0
C446 C 0.93871 0.42505 0.74433 0.0
C447 C 0.94425 0.43551 0.76582 0.0
C448 C 0.96291 0.44908 0.76783 0.0
C449 C 0.97607 0.45272 0.74785 0.0
C450 C 0.97023 0.44272 0.72605 0.0
C451 C 0.95168 0.42892 0.72463 0.0
C452 C 0.96879 0.45921 0.79146 0.0
C453 C 0.98379 0.44634 0.70433 0.0
C454 C 0.94021 0.59684 0.74291 0.0
C455 C 0.94872 0.58995 0.76499 0.0
C456 C 0.96853 0.57887 0.76665 0.0
C457 C 0.9801 0.57474 0.7458 0.0
C458 C 0.97208 0.58267 0.72366 0.0
C459 C 0.95227 0.59384 0.72254 0.0
C460 C 0.97689 0.57117 0.79063 0.0
C461 C 0.98415 0.57874 0.70115 0.0
C462 C 0.1474 0.58147 0.75697 0.0
C463 C 0.13771 0.60355 0.74778 0.0
C464 C 0.0996 0.59691 0.75723 0.0
C465 C 0.08636 0.59459 0.77695 0.0
C466 C 0.06665 0.58265 0.77567 0.0
C467 C 0.05975 0.57331 0.75388 0.0
C468 C 0.07266 0.57633 0.73361 0.0
C469 C 0.0925 0.58792 0.73551 0.0
C470 C 0.05331 0.57975 0.79765 0.0
C471 C 0.06546 0.56729 0.70988 0.0
C472 C 0.03546 0.46516 0.75681 0.0
C473 C 0.01557 0.45404 0.75411 0.0
C474 C 0.99655 0.46592 0.75011 0.0
C475 C 0.99729 0.48968 0.74886 0.0
C476 C 0.97849 0.50221 0.745 0.0
C477 C 0.97932 0.52559 0.7444 0.0
C478 C 0.99904 0.53735 0.74734 0.0
C479 C 0.99998 0.56111 0.74718 0.0
C480 C 0.01991 0.57228 0.74938 0.0
C481 C 0.03908 0.56034 0.75221 0.0
C482 C 0.03838 0.53655 0.75321 0.0
C483 C 0.05723 0.52397 0.75678 0.0
C484 C 0.05635 0.50059 0.75785 0.0
C485 C 0.03658 0.48888 0.75543 0.0
C486 C 0.01739 0.50118 0.75159 0.0
C487 C 0.01828 0.52504 0.75064 0.0
C488 C 0.89146 0.57988 0.73579 0.0
C489 C 0.90192 0.59797 0.75141 0.0
O490 O 0.10399 0.40554 0.77524 0.0
O491 O 0.11891 0.60795 0.75984 0.0
O492 O 0.92046 0.60634 0.74077 0.0
O493 O 0.92129 0.411 0.74193 0.0
H494 H 0.09859 0.3847 0.74689 0.0
H495 H 0.0725 0.37429 0.77776 0.0
H496 H 0.09403 0.36775 0.79848 0.0
H497 H 0.08997 0.35113 0.77216 0.0
H498 H 0.09038 0.41869 0.73231 0.0
H499 H 0.08421 0.42784 0.80699 0.0
H500 H 0.04218 0.43905 0.71363 0.0
H501 H 0.0698 0.43884 0.70407 0.0
H502 H 0.05788 0.46457 0.71379 0.0
H503 H 0.05813 0.4515 0.82294 0.0
H504 H 0.03348 0.45238 0.80546 0.0
H505 H 0.05216 0.47559 0.8043 0.0
H506 H 0.91458 0.40039 0.77662 0.0
H507 H 0.89121 0.37411 0.76247 0.0
H508 H 0.89419 0.38241 0.73457 0.0
H509 H 0.86131 0.40958 0.75399 0.0
H510 H 0.93427 0.43298 0.7812 0.0
H511 H 0.94727 0.42092 0.70809 0.0
H512 H 0.96874 0.47782 0.78986 0.0
H513 H 0.98536 0.45421 0.79691 0.0
H514 H 0.95745 0.45393 0.80559 0.0
H515 H 0.97592 0.43933 0.68818 0.0
H516 H 0.99961 0.43811 0.70711 0.0
H517 H 0.98697 0.46457 0.70136 0.0
H518 H 0.90585 0.58979 0.76873 0.0
H519 H 0.93998 0.59324 0.78097 0.0
H520 H 0.94572 0.59958 0.70563 0.0
H521 H 0.97716 0.55253 0.79138 0.0
H522 H 0.96681 0.57712 0.8053 0.0
H523 H 0.99372 0.57736 0.79344 0.0
H524 H 0.9759 0.5862 0.68535 0.0
H525 H 0.98578 0.5604 0.69849 0.0
H526 H 1.00068 0.58607 0.70265 0.0
H527 H 0.13416 0.60196 0.72856 0.0
H528 H 0.16265 0.578 0.74771 0.0
H529 H 0.13594 0.5673 0.75365 0.0
H530 H 0.15078 0.58229 0.77633 0.0
H531 H 0.09181 0.60173 0.79359 0.0
H532 H 0.10208 0.59015 0.71982 0.0
H533 H 0.04974 0.56164 0.80093 0.0
H534 H 0.03765 0.58833 0.795 0.0
H535 H 0.06157 0.58674 0.81358 0.0
H536 H 0.07638 0.5727 0.69539 0.0
H537 H 0.04887 0.57301 0.70546 0.0
H538 H 0.06499 0.54865 0.71074 0.0
H539 H 0.01487 0.43582 0.75528 0.0
H540 H 0.96288 0.49407 0.74258 0.0
H541 H 0.96428 0.53433 0.74154 0.0
H542 H 0.02049 0.59051 0.74904 0.0
H543 H 0.07289 0.53207 0.75892 0.0
H544 H 0.07137 0.49179 0.76066 0.0
H545 H 0.87625 0.57349 0.7438 0.0
H546 H 0.9026 0.56556 0.73419 0.0
H547 H 0.88784 0.58665 0.71774 0.0
C548 C 0.27664 0.09102 0.66097 0.0
C549 C 0.28223 0.10918 0.64242 0.0
C550 C 0.27505 0.08838 0.60608 0.0
C551 C 0.2961 0.08135 0.60142 0.0
C552 C 0.29965 0.06347 0.58613 0.0
C553 C 0.28182 0.05233 0.57537 0.0
C554 C 0.26063 0.05971 0.57957 0.0
C555 C 0.25757 0.07789 0.59463 0.0
C556 C 0.32247 0.0564 0.58151 0.0
C557 C 0.24123 0.04814 0.56847 0.0
C558 C 0.26538 0.87864 0.63182 0.0
C559 C 0.26367 0.89882 0.61596 0.0
C560 C 0.28415 0.93028 0.59909 0.0
C561 C 0.26675 0.93809 0.58501 0.0
C562 C 0.26852 0.95799 0.57153 0.0
C563 C 0.28832 0.97014 0.57141 0.0
C564 C 0.3061 0.96205 0.58494 0.0
C565 C 0.30374 0.94225 0.5987 0.0
C566 C 0.24897 0.96625 0.55783 0.0
C567 C 0.32749 0.97448 0.5851 0.0
C568 C 0.29338 0.94012 0.41371 0.0
C569 C 0.2743 0.94458 0.42571 0.0
C570 C 0.27289 0.96347 0.44016 0.0
C571 C 0.2911 0.97792 0.443 0.0
C572 C 0.3103 0.97348 0.43079 0.0
C573 C 0.31104 0.95481 0.41598 0.0
C574 C 0.25184 0.96812 0.45212 0.0
C575 C 0.33005 0.98845 0.43335 0.0
C576 C 0.28383 0.15169 0.43783 0.0
C577 C 0.28667 0.14134 0.41341 0.0
C578 C 0.27749 0.10184 0.42274 0.0
C579 C 0.25997 0.08699 0.42525 0.0
C580 C 0.26214 0.06637 0.43744 0.0
C581 C 0.28256 0.06019 0.44683 0.0
C582 C 0.30057 0.07474 0.44361 0.0
C583 C 0.29782 0.09551 0.4319 0.0
C584 C 0.24256 0.0513 0.44055 0.0
C585 C 0.32276 0.06834 0.45259 0.0
C586 C 0.28532 0.03258 0.56026 0.0
C587 C 0.28718 0.01157 0.57144 0.0
C588 C 0.28972 0.99205 0.5584 0.0
C589 C 0.29095 0.99354 0.53341 0.0
C590 C 0.29415 0.9744 0.51971 0.0
C591 C 0.29419 0.97587 0.49508 0.0
C592 C 0.29088 0.99652 0.48319 0.0
C593 C 0.28985 0.99803 0.45816 0.0
C594 C 0.28706 0.01893 0.44696 0.0
C595 C 0.28513 0.03853 0.46002 0.0
C596 C 0.28566 0.03728 0.48508 0.0
C597 C 0.28329 0.05656 0.49883 0.0
C598 C 0.28356 0.05513 0.52345 0.0
C599 C 0.2859 0.03433 0.53528 0.0
C600 C 0.28862 0.01471 0.52181 0.0
C601 C 0.28849 0.01619 0.49668 0.0
C602 C 0.30363 0.88878 0.4205 0.0
C603 C 0.28772 0.90061 0.4036 0.0
O604 O 0.27096 0.10509 0.62146 0.0
O605 O 0.27406 0.12195 0.41148 0.0
O606 O 0.29509 0.92236 0.39911 0.0
O607 O 0.28245 0.9116 0.61335 0.0
H608 H 0.29988 0.10885 0.63945 0.0
H609 H 0.28183 0.07433 0.65486 0.0
H610 H 0.25896 0.09028 0.66396 0.0
H611 H 0.28512 0.09456 0.67803 0.0
H612 H 0.30988 0.08984 0.60936 0.0
H613 H 0.24141 0.08358 0.59813 0.0
H614 H 0.32489 0.03906 0.58848 0.0
H615 H 0.33467 0.06771 0.58994 0.0
H616 H 0.32528 0.05621 0.56214 0.0
H617 H 0.22578 0.05529 0.57435 0.0
H618 H 0.24134 0.02993 0.57305 0.0
H619 H 0.24197 0.04975 0.54889 0.0
H620 H 0.24933 0.90934 0.61947 0.0
H621 H 0.25457 0.88204 0.64715 0.0
H622 H 0.28086 0.88083 0.64237 0.0
H623 H 0.25981 0.85193 0.60879 0.0
H624 H 0.25154 0.92895 0.58463 0.0
H625 H 0.31716 0.93615 0.6094 0.0
H626 H 0.25185 0.96501 0.53855 0.0
H627 H 0.24608 0.98418 0.5617 0.0
H628 H 0.23414 0.95637 0.56204 0.0
H629 H 0.34042 0.96468 0.59414 0.0
H630 H 0.3258 0.99064 0.59439 0.0
H631 H 0.33245 0.97846 0.56667 0.0
H632 H 0.27163 0.90072 0.41197 0.0
H633 H 0.26026 0.9338 0.42331 0.0
H634 H 0.32559 0.95136 0.40637 0.0
H635 H 0.25373 0.96519 0.47149 0.0
H636 H 0.23844 0.95717 0.44552 0.0
H637 H 0.2473 0.98595 0.44926 0.0
H638 H 0.34445 0.98114 0.4251 0.0
H639 H 0.33372 0.99144 0.45237 0.0
H640 H 0.32687 0.00499 0.42474 0.0
H641 H 0.30393 0.13728 0.41108 0.0
H642 H 0.29366 0.16738 0.4394 0.0
H643 H 0.28924 0.1398 0.45198 0.0
H644 H 0.26659 0.15562 0.44068 0.0
H645 H 0.24438 0.09187 0.41804 0.0
H646 H 0.31172 0.10649 0.4299 0.0
H647 H 0.24058 0.04689 0.45958 0.0
H648 H 0.24486 0.03541 0.43094 0.0
H649 H 0.22753 0.05926 0.43378 0.0
H650 H 0.33549 0.0803 0.44643 0.0
H651 H 0.32674 0.05122 0.4466 0.0
H652 H 0.323 0.06799 0.47224 0.0
H653 H 0.28596 0.01032 0.59057 0.0
H654 H 0.29652 0.95804 0.52793 0.0
H655 H 0.29662 0.96055 0.48545 0.0
H656 H 0.28635 0.01996 0.42776 0.0
H657 H 0.28109 0.07298 0.49071 0.0
H658 H 0.28164 0.07053 0.5331 0.0
H659 H 0.31987 0.8881 0.41248 0.0
H660 H 0.29795 0.87139 0.42466 0.0
H661 H 0.30503 0.89804 0.43739 0.0
C662 C 0.43599 0.72499 0.15488 0.0
C663 C 0.42331 0.73823 0.13593 0.0
C664 C 0.44143 0.73042 0.0993 0.0
C665 C 0.44901 0.75187 0.09257 0.0
C666 C 0.46723 0.75445 0.07831 0.0
C667 C 0.47803 0.73517 0.07061 0.0
C668 C 0.46985 0.71351 0.07655 0.0
C669 C 0.45143 0.71143 0.09063 0.0
C670 C 0.47519 0.77778 0.0718 0.0
C671 C 0.48088 0.69259 0.06851 0.0
C672 C 0.64031 0.74081 0.14698 0.0
C673 C 0.62292 0.73344 0.13016 0.0
C674 C 0.59269 0.74832 0.10663 0.0
C675 C 0.58733 0.72781 0.09578 0.0
C676 C 0.56955 0.72605 0.08014 0.0
C677 C 0.55709 0.74527 0.07483 0.0
C678 C 0.56275 0.76606 0.08524 0.0
C679 C 0.58044 0.76727 0.10108 0.0
C680 C 0.56383 0.70353 0.06962 0.0
C681 C 0.54993 0.78692 0.07989 0.0
C682 C 0.60049 0.7444 0.92117 0.0
C683 C 0.59414 0.72436 0.93284 0.0
C684 C 0.57464 0.72293 0.94512 0.0
C685 C 0.5614 0.74205 0.94624 0.0
C686 C 0.56777 0.76226 0.93467 0.0
C687 C 0.58717 0.7631 0.92216 0.0
C688 C 0.56816 0.70094 0.95687 0.0
C689 C 0.5541 0.78299 0.93556 0.0
C690 C 0.39203 0.71092 0.92087 0.0
C691 C 0.40585 0.72764 0.90662 0.0
C692 C 0.44426 0.72292 0.91525 0.0
C693 C 0.45767 0.70514 0.92176 0.0
C694 C 0.47652 0.70881 0.93539 0.0
C695 C 0.48225 0.73092 0.94219 0.0
C696 C 0.46921 0.74911 0.93476 0.0
C697 C 0.45034 0.74493 0.92132 0.0
C698 C 0.49016 0.68904 0.94279 0.0
C699 C 0.4752 0.77295 0.94111 0.0
C700 C 0.49845 0.73773 0.05737 0.0
C701 C 0.51758 0.74055 0.07052 0.0
C702 C 0.53746 0.7433 0.05944 0.0
C703 C 0.53838 0.74336 0.03441 0.0
C704 C 0.55801 0.74652 0.0226 0.0
C705 C 0.55881 0.74595 0.99799 0.0
C706 C 0.54001 0.74211 0.98424 0.0
C707 C 0.54075 0.74075 0.95927 0.0
C708 C 0.52169 0.73728 0.94614 0.0
C709 C 0.50177 0.73496 0.95726 0.0
C710 C 0.50073 0.73601 0.98223 0.0
C711 C 0.481 0.73353 0.99402 0.0
C712 C 0.48017 0.73432 0.0186 0.0
C713 C 0.49906 0.73739 0.03237 0.0
C714 C 0.51912 0.74014 0.02086 0.0
C715 C 0.51995 0.7395 0.99575 0.0
C716 C 0.64961 0.73068 0.92928 0.0
C717 C 0.63532 0.73085 0.90687 0.0
O718 O 0.42468 0.72763 0.11432 0.0
O719 O 0.42586 0.71834 0.90271 0.0
O720 O 0.61915 0.74656 0.90884 0.0
O721 O 0.60929 0.75048 0.12259 0.0
H722 H 0.43066 0.75537 0.13494 0.0
H723 H 0.45335 0.72478 0.15027 0.0
H724 H 0.42996 0.70735 0.15617 0.0
H725 H 0.43456 0.73301 0.17241 0.0
H726 H 0.4407 0.7666 0.09843 0.0
H727 H 0.44522 0.69495 0.09566 0.0
H728 H 0.49117 0.78089 0.08039 0.0
H729 H 0.46395 0.79098 0.07742 0.0
H730 H 0.47734 0.77926 0.05235 0.0
H731 H 0.47273 0.67699 0.075 0.0
H732 H 0.49791 0.69267 0.07497 0.0
H733 H 0.48113 0.69238 0.04886 0.0
H734 H 0.61407 0.71784 0.13581 0.0
H735 H 0.63685 0.73151 0.16405 0.0
H736 H 0.63542 0.75766 0.15377 0.0
H737 H 0.66859 0.73618 0.12808 0.0
H738 H 0.59678 0.71301 0.0996 0.0
H739 H 0.58471 0.78305 0.10939 0.0
H740 H 0.54677 0.69903 0.07343 0.0
H741 H 0.57433 0.68991 0.07662 0.0
H742 H 0.56543 0.7045 0.05009 0.0
H743 H 0.55778 0.80224 0.08728 0.0
H744 H 0.53363 0.78497 0.08759 0.0
H745 H 0.5478 0.78926 0.06045 0.0
H746 H 0.62803 0.71386 0.90433 0.0
H747 H 0.60419 0.70969 0.93247 0.0
H748 H 0.59214 0.77849 0.91315 0.0
H749 H 0.56873 0.70281 0.97639 0.0
H750 H 0.57896 0.68702 0.95216 0.0
H751 H 0.55133 0.69627 0.95172 0.0
H752 H 0.56218 0.7979 0.92738 0.0
H753 H 0.55032 0.78679 0.95422 0.0
H754 H 0.53856 0.77987 0.92603 0.0
H755 H 0.40746 0.74304 0.91745 0.0
H756 H 0.3758 0.71794 0.92388 0.0
H757 H 0.39987 0.70757 0.93838 0.0
H758 H 0.39016 0.69473 0.91147 0.0
H759 H 0.45303 0.68826 0.91661 0.0
H760 H 0.44054 0.75888 0.91534 0.0
H761 H 0.49189 0.68835 0.9624 0.0
H762 H 0.5066 0.69116 0.93545 0.0
H763 H 0.48317 0.67282 0.93665 0.0
H764 H 0.46399 0.78536 0.93295 0.0
H765 H 0.49186 0.77696 0.93525 0.0
H766 H 0.47497 0.77474 0.96064 0.0
H767 H 0.51698 0.7405 0.08972 0.0
H768 H 0.573 0.74939 0.03228 0.0
H769 H 0.57439 0.74842 0.98987 0.0
H770 H 0.52239 0.73614 0.92701 0.0
H771 H 0.46595 0.7309 0.98437 0.0
H772 H 0.46453 0.7323 0.02671 0.0
H773 H 0.66267 0.71821 0.92769 0.0
H774 H 0.63994 0.72597 0.94501 0.0
H775 H 0.65699 0.74756 0.9322 0.0
C776 C 0.78049 0.10224 0.64976 0.0
C777 C 0.78295 0.12024 0.6302 0.0
C778 C 0.77512 0.09633 0.59601 0.0
C779 C 0.79601 0.08799 0.59301 0.0
C780 C 0.79942 0.06899 0.5792 0.0
C781 C 0.78159 0.05783 0.5684 0.0
C782 C 0.76059 0.06644 0.57099 0.0
C783 C 0.75771 0.08583 0.58441 0.0
C784 C 0.8221 0.06059 0.57647 0.0
C785 C 0.7411 0.05478 0.56016 0.0
C786 C 0.80584 0.93048 0.65952 0.0
C787 C 0.79073 0.91803 0.64228 0.0
C788 C 0.79641 0.93797 0.60506 0.0
C789 C 0.77594 0.94642 0.59946 0.0
C790 C 0.77365 0.96527 0.58443 0.0
C791 C 0.79228 0.97592 0.575 0.0
C792 C 0.81296 0.96732 0.58059 0.0
C793 C 0.81471 0.94815 0.59525 0.0
C794 C 0.75135 0.97373 0.57848 0.0
C795 C 0.83319 0.97842 0.57118 0.0
C796 C 0.78959 0.92643 0.42303 0.0
C797 C 0.77091 0.93383 0.43425 0.0
C798 C 0.77076 0.95454 0.4458 0.0
C799 C 0.78984 0.96791 0.44683 0.0
C800 C 0.80869 0.96048 0.43573 0.0
C801 C 0.80823 0.93994 0.42378 0.0
C802 C 0.75012 0.96214 0.45684 0.0
C803 C 0.82936 0.9742 0.43656 0.0
C804 C 0.75774 0.13852 0.41522 0.0
C805 C 0.77653 0.12818 0.40217 0.0
C806 C 0.77509 0.08802 0.41023 0.0
C807 C 0.75815 0.07301 0.41502 0.0
C808 C 0.76128 0.05425 0.42997 0.0
C809 C 0.78207 0.05015 0.43974 0.0
C810 C 0.7995 0.06483 0.43412 0.0
C811 C 0.79578 0.08373 0.41951 0.0
C812 C 0.74234 0.03892 0.43545 0.0
C813 C 0.82201 0.06053 0.44352 0.0
C814 C 0.78481 0.03638 0.55579 0.0
C815 C 0.78722 0.01682 0.56958 0.0
C816 C 0.79008 0.99595 0.55917 0.0
C817 C 0.79046 0.99435 0.53422 0.0
C818 C 0.79299 0.97356 0.52316 0.0
C819 C 0.79314 0.9721 0.49861 0.0
C820 C 0.7905 0.99131 0.48413 0.0
C821 C 0.78981 0.98984 0.45914 0.0
C822 C 0.78757 0.00936 0.44529 0.0
C823 C 0.78553 0.03038 0.45566 0.0
C824 C 0.78576 0.03214 0.48064 0.0
C825 C 0.78331 0.05294 0.49171 0.0
C826 C 0.78327 0.05444 0.5163 0.0
C827 C 0.78539 0.03515 0.53078 0.0
C828 C 0.78811 0.01402 0.51999 0.0
C829 C 0.78826 0.01251 0.4949 0.0
C830 C 0.77605 0.87601 0.43456 0.0
C831 C 0.77495 0.88942 0.41119 0.0
O832 O 0.77107 0.11407 0.61019 0.0
O833 O 0.77115 0.10626 0.39623 0.0
O834 O 0.79039 0.90658 0.41134 0.0
O835 O 0.7989 0.91982 0.6196 0.0
H836 H 0.80028 0.12211 0.62571 0.0
H837 H 0.78694 0.08599 0.64386 0.0
H838 H 0.76321 0.09975 0.65421 0.0
H839 H 0.78964 0.10725 0.66597 0.0
H840 H 0.80978 0.09615 0.60134 0.0
H841 H 0.74167 0.09241 0.58667 0.0
H842 H 0.8239 0.04449 0.58644 0.0
H843 H 0.83445 0.07273 0.58322 0.0
H844 H 0.8253 0.0573 0.55756 0.0
H845 H 0.72574 0.06262 0.56529 0.0
H846 H 0.7407 0.03681 0.56574 0.0
H847 H 0.74217 0.0554 0.54057 0.0
H848 H 0.77452 0.92579 0.64291 0.0
H849 H 0.79952 0.92939 0.67781 0.0
H850 H 0.80708 0.94852 0.6543 0.0
H851 H 0.82226 0.9232 0.65939 0.0
H852 H 0.76173 0.93807 0.60651 0.0
H853 H 0.83042 0.94132 0.59959 0.0
H854 H 0.74952 0.9908 0.58575 0.0
H855 H 0.73845 0.96261 0.58581 0.0
H856 H 0.74908 0.97507 0.55897 0.0
H857 H 0.84807 0.97096 0.57899 0.0
H858 H 0.83322 0.99667 0.57499 0.0
H859 H 0.83358 0.97665 0.55166 0.0
H860 H 0.7586 0.89663 0.40885 0.0
H861 H 0.75629 0.92373 0.43405 0.0
H862 H 0.82257 0.93418 0.41513 0.0
H863 H 0.75183 0.9613 0.47642 0.0
H864 H 0.73601 0.95153 0.45154 0.0
H865 H 0.74679 0.97986 0.45171 0.0
H866 H 0.84315 0.96509 0.42911 0.0
H867 H 0.8334 0.97876 0.45512 0.0
H868 H 0.82714 0.99006 0.42627 0.0
H869 H 0.79089 0.12854 0.41428 0.0
H870 H 0.76175 0.15611 0.42013 0.0
H871 H 0.75449 0.12873 0.43172 0.0
H872 H 0.74287 0.13837 0.40394 0.0
H873 H 0.74232 0.07636 0.40744 0.0
H874 H 0.80906 0.09496 0.41504 0.0
H875 H 0.74094 0.03648 0.45491 0.0
H876 H 0.74498 0.02218 0.42768 0.0
H877 H 0.72687 0.04559 0.42827 0.0
H878 H 0.83413 0.07234 0.43579 0.0
H879 H 0.82672 0.04305 0.43964 0.0
H880 H 0.82239 0.06234 0.46306 0.0
H881 H 0.78678 0.01785 0.58873 0.0
H882 H 0.79483 0.95815 0.53337 0.0
H883 H 0.79522 0.95566 0.49111 0.0
H884 H 0.78688 0.00811 0.42614 0.0
H885 H 0.78133 0.06833 0.48148 0.0
H886 H 0.78138 0.0709 0.52383 0.0
H887 H 0.76378 0.8622 0.43451 0.0
H888 H 0.77274 0.88704 0.4497 0.0
H889 H 0.79233 0.86871 0.43726 0.0
C890 C 0.45069 0.3093 0.16072 0.0
C891 C 0.4317 0.31188 0.14316 0.0
C892 C 0.45063 0.30183 0.10709 0.0
C893 C 0.45901 0.32323 0.1011 0.0
C894 C 0.47597 0.32574 0.08502 0.0
C895 C 0.485 0.30648 0.07492 0.0
C896 C 0.47633 0.28494 0.08055 0.0
C897 C 0.45898 0.28297 0.09624 0.0
C898 C 0.48445 0.34901 0.07906 0.0
C899 C 0.48575 0.26395 0.07051 0.0
C900 C 0.61561 0.34097 0.15275 0.0
C901 C 0.61787 0.31993 0.13773 0.0
C902 C 0.60156 0.3229 0.0989 0.0
C903 C 0.59298 0.30133 0.09517 0.0
C904 C 0.57434 0.29821 0.08111 0.0
C905 C 0.564 0.31715 0.07088 0.0
C906 C 0.57301 0.33891 0.07415 0.0
C907 C 0.59197 0.34146 0.08787 0.0
C908 C 0.56546 0.27474 0.07757 0.0
C909 C 0.56229 0.35949 0.06373 0.0
C910 C 0.5949 0.31018 0.9135 0.0
C911 C 0.58893 0.2908 0.92659 0.0
C912 C 0.57051 0.2905 0.94075 0.0
C913 C 0.55806 0.31014 0.94246 0.0
C914 C 0.56402 0.32968 0.92939 0.0
C915 C 0.58223 0.32933 0.91489 0.0
C916 C 0.5643 0.26908 0.95379 0.0
C917 C 0.55119 0.35095 0.93078 0.0
C918 C 0.3891 0.30414 0.93301 0.0
C919 C 0.40163 0.3049 0.90985 0.0
C920 C 0.43861 0.29542 0.92291 0.0
C921 C 0.4528 0.2776 0.92623 0.0
C922 C 0.47269 0.28058 0.93808 0.0
C923 C 0.47873 0.30215 0.94628 0.0
C924 C 0.46475 0.32045 0.94238 0.0
C925 C 0.44467 0.31685 0.93111 0.0
C926 C 0.48713 0.26063 0.94206 0.0
C927 C 0.47095 0.34383 0.95026 0.0
C928 C 0.50427 0.30884 0.05958 0.0
C929 C 0.52439 0.31188 0.07071 0.0
C930 C 0.54328 0.31422 0.05762 0.0
C931 C 0.54223 0.31344 0.03263 0.0
C932 C 0.56094 0.31551 0.01893 0.0
C933 C 0.55975 0.31468 0.99433 0.0
C934 C 0.53985 0.31146 0.98247 0.0
C935 C 0.53854 0.30997 0.95749 0.0
C936 C 0.51841 0.30718 0.9463 0.0
C937 C 0.49947 0.30544 0.95937 0.0
C938 C 0.50049 0.30645 0.98437 0.0
C939 C 0.48179 0.30431 0.99809 0.0
C940 C 0.48294 0.30535 0.02268 0.0
C941 C 0.50287 0.3082 0.03455 0.0
C942 C 0.52195 0.31043 0.02106 0.0
C943 C 0.52075 0.30953 0.99595 0.0
C944 C 0.64387 0.29863 0.921 0.0
C945 C 0.62934 0.29595 0.89895 0.0
O946 O 0.43486 0.29869 0.12345 0.0
O947 O 0.4194 0.29107 0.91174 0.0
O948 O 0.61258 0.31117 0.89942 0.0
O949 O 0.61849 0.32613 0.114 0.0
H950 H 0.43048 0.3298 0.13761 0.0
H951 H 0.46594 0.31524 0.15249 0.0
H952 H 0.45251 0.2914 0.16617 0.0
H953 H 0.44812 0.31948 0.17673 0.0
H954 H 0.45242 0.33809 0.10881 0.0
H955 H 0.45236 0.26654 0.1008 0.0
H956 H 0.5009 0.35119 0.08686 0.0
H957 H 0.47402 0.36236 0.08595 0.0
H958 H 0.48572 0.35125 0.05956 0.0
H959 H 0.47827 0.2484 0.07805 0.0
H960 H 0.50342 0.26363 0.07411 0.0
H961 H 0.48328 0.26396 0.05101 0.0
H962 H 0.60323 0.30939 0.14142 0.0
H963 H 0.61654 0.3365 0.17192 0.0
H964 H 0.5997 0.34871 0.14898 0.0
H965 H 0.62834 0.35368 0.14858 0.0
H966 H 0.60077 0.28702 0.10354 0.0
H967 H 0.59885 0.35803 0.09089 0.0
H968 H 0.56233 0.2718 0.05844 0.0
H969 H 0.54983 0.27284 0.08678 0.0
H970 H 0.57661 0.26169 0.08456 0.0
H971 H 0.57068 0.37529 0.06905 0.0
H972 H 0.54526 0.36005 0.0695 0.0
H973 H 0.5621 0.35863 0.04412 0.0
H974 H 0.62265 0.27853 0.89848 0.0
H975 H 0.59838 0.27573 0.92582 0.0
H976 H 0.58685 0.3442 0.90475 0.0
H977 H 0.56698 0.27131 0.97309 0.0
H978 H 0.57388 0.25453 0.94816 0.0
H979 H 0.5469 0.26512 0.95085 0.0
H980 H 0.55914 0.36533 0.92147 0.0
H981 H 0.54888 0.35541 0.94959 0.0
H982 H 0.53495 0.34817 0.92266 0.0
H983 H 0.4069 0.32247 0.90597 0.0
H984 H 0.37468 0.31498 0.93151 0.0
H985 H 0.39946 0.31039 0.94779 0.0
H986 H 0.38381 0.28665 0.93733 0.0
H987 H 0.44804 0.26116 0.91983 0.0
H988 H 0.43401 0.33093 0.92881 0.0
H989 H 0.49174 0.2591 0.9611 0.0
H990 H 0.5022 0.26316 0.93193 0.0
H991 H 0.47928 0.24465 0.93641 0.0
H992 H 0.45972 0.35672 0.94307 0.0
H993 H 0.48757 0.34821 0.94453 0.0
H994 H 0.47079 0.34446 0.96988 0.0
H995 H 0.52539 0.31239 0.0899 0.0
H996 H 0.57673 0.31781 0.02709 0.0
H997 H 0.57467 0.3165 0.98472 0.0
H998 H 0.51749 0.30603 0.92715 0.0
H999 H 0.466 0.3018 0.98998 0.0
H1000 H 0.468 0.30375 0.03229 0.0
H1001 H 0.65737 0.28657 0.92069 0.0
H1002 H 0.63454 0.29522 0.93731 0.0
H1003 H 0.65064 0.316 0.9218 0.0
C1004 C 0.17992 0.40217 0.26931 0.0
C1005 C 0.18922 0.38957 0.24237 0.0
H1006 H 0.15356 0.43105 0.28396 0.0
C1007 C 0.18041 0.3995 0.21338 0.0
H1008 H 0.18643 0.39673 0.28629 0.0
C1009 C 0.161 0.42147 0.21026 0.0
C1010 C 0.14775 0.42927 0.23812 0.0
H1011 H 0.18675 0.39219 0.19758 0.0
H1012 H 0.15435 0.42607 0.19305 0.0
C1013 C 0.16033 0.4244 0.26804 0.0
C1014 C 0.17413 0.64877 0.7759 0.0
C1015 C 0.18749 0.65501 0.7569 0.0
H1016 H 0.14791 0.62781 0.78799 0.0
C1017 C 0.18372 0.64502 0.73479 0.0
H1018 H 0.1765 0.65624 0.79313 0.0
C1019 C 0.16728 0.62896 0.73184 0.0
C1020 C 0.15403 0.62257 0.75084 0.0
H1021 H 0.19394 0.64906 0.7199 0.0
H1022 H 0.1652 0.62113 0.71475 0.0
C1023 C 0.15763 0.63266 0.77293 0.0
C1024 C 0.86065 0.6469 0.26221 0.0
C1025 C 0.85882 0.65838 0.24034 0.0
H1026 H 0.8762 0.62083 0.28233 0.0
C1027 C 0.87259 0.65253 0.22192 0.0
H1028 H 0.85003 0.65066 0.27662 0.0
C1029 C 0.88758 0.63535 0.2252 0.0
C1030 C 0.88923 0.62376 0.24704 0.0
H1031 H 0.87168 0.66113 0.2049 0.0
H1032 H 0.89767 0.63086 0.21057 0.0
C1033 C 0.87559 0.62975 0.26547 0.0
C1034 C 0.85693 0.3841 0.7755 0.0
C1035 C 0.85105 0.37995 0.74435 0.0
H1036 H 0.87999 0.4076 0.80334 0.0
C1037 C 0.86165 0.39874 0.72168 0.0
H1038 H 0.8499 0.37298 0.78868 0.0
C1039 C 0.87979 0.42155 0.72941 0.0
C1040 C 0.88981 0.42083 0.76074 0.0
H1041 H 0.857 0.39646 0.70333 0.0
H1042 H 0.88746 0.43186 0.71592 0.0
C1043 C 0.87489 0.40634 0.78499 0.0
C1044 C 0.29113 0.18991 0.36882 0.0
C1045 C 0.26962 0.19277 0.36117 0.0
H1046 H 0.31316 0.17157 0.39108 0.0
C1047 C 0.25362 0.17814 0.37027 0.0
H1048 H 0.30381 0.20117 0.36266 0.0
C1049 C 0.25901 0.16119 0.38674 0.0
C1050 C 0.28057 0.15834 0.39424 0.0
H1051 H 0.2369 0.17978 0.36469 0.0
H1052 H 0.24631 0.15047 0.39378 0.0
C1053 C 0.2965 0.17299 0.38516 0.0
C1054 C 0.38087 0.72222 0.84452 0.0
C1055 C 0.37149 0.7434 0.841 0.0
H1056 H 0.39933 0.70077 0.86777 0.0
C1057 C 0.37424 0.75965 0.85865 0.0
H1058 H 0.3792 0.70942 0.83117 0.0
C1059 C 0.38569 0.75468 0.87955 0.0
C1060 C 0.39484 0.73342 0.88321 0.0
H1061 H 0.36698 0.77602 0.85661 0.0
H1062 H 0.3871 0.76736 0.89305 0.0
C1063 C 0.39248 0.7173 0.86538 0.0
C1064 C 0.80224 0.85283 0.36548 0.0
C1065 C 0.78437 0.84202 0.35464 0.0
H1066 H 0.81341 0.87612 0.39174 0.0
C1067 C 0.76353 0.84743 0.36199 0.0
H1068 H 0.81852 0.84921 0.36016 0.0
C1069 C 0.76064 0.86309 0.3798 0.0
C1070 C 0.77846 0.87385 0.39065 0.0
H1071 H 0.74942 0.83911 0.35445 0.0
H1072 H 0.7444 0.86652 0.38543 0.0
C1073 C 0.79933 0.86844 0.3834 0.0
C1074 C 0.66737 0.28424 0.84831 0.0
C1075 C 0.67124 0.30579 0.83858 0.0
H1076 H 0.65117 0.26444 0.87475 0.0
C1077 C 0.66036 0.32413 0.84805 0.0
H1078 H 0.67579 0.26979 0.8419 0.0
C1079 C 0.64639 0.32106 0.86711 0.0
C1080 C 0.64268 0.29949 0.87688 0.0
H1081 H 0.66281 0.34094 0.8409 0.0
H1082 H 0.63876 0.33559 0.87444 0.0
C1083 C 0.65332 0.28116 0.86722 0.0
C1084 C 0.28701 0.84574 0.62515 0.0
C1085 C 0.26227 0.8383 0.64028 0.0
H1086 H 0.30185 0.87239 0.59349 0.0
C1087 C 0.23663 0.85039 0.63164 0.0
H1088 H 0.30183 0.83727 0.62982 0.0
C1089 C 0.23496 0.87132 0.60849 0.0
C1090 C 0.26134 0.88262 0.59831 0.0
H1091 H 0.22201 0.84512 0.64044 0.0
H1092 H 0.22002 0.87994 0.60472 0.0
C1093 C 0.28701 0.8667 0.60162 0.0
C1094 C 0.67094 0.71695 0.15613 0.0
C1095 C 0.67796 0.74641 0.15924 0.0
H1096 H 0.64779 0.69046 0.13154 0.0
C1097 C 0.66915 0.76743 0.13779 0.0
H1098 H 0.67697 0.70468 0.1688 0.0
C1099 C 0.65171 0.75981 0.11323 0.0
C1100 C 0.64036 0.73063 0.115 0.0
H1101 H 0.67454 0.7847 0.13947 0.0
H1102 H 0.6451 0.77241 0.10129 0.0
C1103 C 0.65359 0.70768 0.13226 0.0
C1104 C 0.7471 0.16855 0.64923 0.0
C1105 C 0.76199 0.18226 0.66166 0.0
H1106 H 0.74185 0.13832 0.62958 0.0
C1107 C 0.78381 0.17607 0.66242 0.0
H1108 H 0.73019 0.17287 0.64812 0.0
C1109 C 0.79049 0.15654 0.65147 0.0
C1110 C 0.77561 0.14267 0.63937 0.0
H1111 H 0.79568 0.18585 0.67226 0.0
H1112 H 0.8073 0.15189 0.65305 0.0
C1113 C 0.75379 0.14888 0.63837 0.0
C1114 C 0.38205 0.31563 0.18188 0.0
C1115 C 0.37466 0.2932 0.18321 0.0
H1116 H 0.40558 0.33888 0.16819 0.0
C1117 C 0.38541 0.27695 0.1701 0.0
H1118 H 0.37454 0.32854 0.19209 0.0
C1119 C 0.40341 0.2829 0.15652 0.0
C1120 C 0.41085 0.30533 0.15543 0.0
H1121 H 0.38006 0.25955 0.1705 0.0
H1122 H 0.41172 0.2699 0.14724 0.0
C1123 C 0.3999 0.32158 0.16822 0.0
C1124 C 0.86337 0.6467 0.73995 0.0
C1125 C 0.85412 0.64917 0.76234 0.0
H1126 H 0.88584 0.62883 0.71901 0.0
C1127 C 0.86174 0.6358 0.78137 0.0
H1128 H 0.8578 0.65657 0.72485 0.0
C1129 C 0.87754 0.61976 0.77791 0.0
C1130 C 0.8863 0.61681 0.75541 0.0
H1131 H 0.85534 0.63758 0.79896 0.0
H1132 H 0.88267 0.60936 0.79282 0.0
C1133 C 0.87933 0.63074 0.73654 0.0
C1134 C 0.88182 0.34819 0.25282 0.0
C1135 C 0.8711 0.34903 0.23069 0.0
H1136 H 0.90954 0.35821 0.27338 0.0
C1137 C 0.8801 0.36222 0.21235 0.0
H1138 H 0.87517 0.3385 0.26743 0.0
C1139 C 0.89969 0.37376 0.21589 0.0
C1140 C 0.91062 0.37243 0.23787 0.0
H1141 H 0.87238 0.36303 0.19502 0.0
H1142 H 0.90659 0.38326 0.20129 0.0
C1143 C 0.9014 0.35965 0.25632 0.0
C1144 C 0.15623 0.35578 0.74752 0.0
C1145 C 0.16848 0.35592 0.76871 0.0
H1146 H 0.12658 0.36457 0.73 0.0
C1147 C 0.16003 0.36645 0.7886 0.0
H1148 H 0.16237 0.34811 0.73177 0.0
C1149 C 0.13962 0.37615 0.78746 0.0
C1150 C 0.12723 0.37554 0.7664 0.0
H1151 H 0.16888 0.3666 0.80529 0.0
H1152 H 0.13329 0.3837 0.80318 0.0
C1153 C 0.13581 0.36537 0.74642 0.0
C1154 C 0.16497 0.66919 0.23047 0.0
C1155 C 0.16997 0.67756 0.25306 0.0
H1156 H 0.14936 0.64329 0.21033 0.0
C1157 C 0.16223 0.66588 0.27311 0.0
H1158 H 0.17055 0.67786 0.21466 0.0
C1159 C 0.14997 0.64612 0.2706 0.0
C1160 C 0.14495 0.63781 0.24796 0.0
H1161 H 0.16612 0.67168 0.29078 0.0
H1162 H 0.14461 0.63718 0.28634 0.0
C1163 C 0.15269 0.6495 0.22796 0.0
C1164 C 0.80101 0.85502 0.65007 0.0
C1165 C 0.78698 0.8492 0.66862 0.0
H1166 H 0.81348 0.88107 0.62736 0.0
C1167 C 0.77334 0.86578 0.67727 0.0
H1168 H 0.81153 0.84265 0.64271 0.0
C1169 C 0.77408 0.88767 0.66802 0.0
C1170 C 0.7885 0.89361 0.64996 0.0
H1171 H 0.76264 0.86213 0.69184 0.0
H1172 H 0.76382 0.90022 0.67551 0.0
C1173 C 0.80195 0.87701 0.64104 0.0
C1174 C 0.65328 0.27138 0.15847 0.0
C1175 C 0.67322 0.28222 0.16301 0.0
H1176 H 0.62038 0.27479 0.147 0.0
C1177 C 0.6756 0.30504 0.1565 0.0
H1178 H 0.65103 0.25366 0.16246 0.0
C1179 C 0.65812 0.31702 0.14713 0.0
C1180 C 0.63771 0.3066 0.14466 0.0
H1181 H 0.69068 0.31401 0.15966 0.0
H1182 H 0.66039 0.33466 0.14278 0.0
C1183 C 0.63573 0.28345 0.14948 0.0
C1184 C 0.28813 0.16664 0.67082 0.0
C1185 C 0.26655 0.17327 0.67271 0.0
H1186 H 0.30987 0.14137 0.65987 0.0
C1187 C 0.2501 0.15934 0.6633 0.0
H1188 H 0.30122 0.17712 0.67754 0.0
C1189 C 0.25512 0.13893 0.65289 0.0
C1190 C 0.27669 0.13211 0.65155 0.0
H1191 H 0.2333 0.16382 0.66471 0.0
H1192 H 0.24213 0.1282 0.64637 0.0
C1193 C 0.29312 0.14626 0.66051 0.0
C1194 C 0.37113 0.76224 0.1591 0.0
C1195 C 0.35771 0.74303 0.16073 0.0
H1196 H 0.40218 0.77573 0.15006 0.0
C1197 C 0.36539 0.72249 0.15245 0.0
H1198 H 0.36562 0.77841 0.16487 0.0
C1199 C 0.38626 0.72107 0.14358 0.0
C1200 C 0.39993 0.74012 0.14289 0.0
H1201 H 0.35561 0.70731 0.15366 0.0
H1202 H 0.39199 0.70493 0.13795 0.0
C1203 C 0.39202 0.76076 0.15042 0.0
C1204 C 0.77305 0.15344 0.33949 0.0
C1205 C 0.78888 0.17062 0.34054 0.0
H1206 H 0.75672 0.12662 0.35799 0.0
C1207 C 0.80109 0.17312 0.36158 0.0
H1208 H 0.76344 0.15095 0.32354 0.0
C1209 C 0.79744 0.15901 0.38113 0.0
C1210 C 0.78156 0.14197 0.38014 0.0
H1211 H 0.81307 0.18646 0.36325 0.0
H1212 H 0.80675 0.16171 0.39726 0.0
C1213 C 0.76934 0.13936 0.35912 0.0
C1214 C 0.36996 0.26779 0.86637 0.0
C1215 C 0.35914 0.2839 0.8523 0.0
H1216 H 0.3916 0.2617 0.89569 0.0
C1217 C 0.36235 0.30679 0.85721 0.0
H1218 H 0.36752 0.25001 0.86328 0.0
C1219 C 0.37614 0.31345 0.87567 0.0
C1220 C 0.38716 0.29739 0.88955 0.0
H1221 H 0.35437 0.31962 0.84661 0.0
H1222 H 0.37822 0.3312 0.87912 0.0
C1223 C 0.38371 0.27446 0.88492 0.0
C1224 C 0.27229 0.8544 0.36011 0.0
C1225 C 0.28295 0.86135 0.33938 0.0
H1226 H 0.26535 0.86149 0.39627 0.0
C1227 C 0.29454 0.88186 0.33949 0.0
H1228 H 0.26354 0.83853 0.36089 0.0
C1229 C 0.296 0.89472 0.35996 0.0
C1230 C 0.28543 0.88767 0.38072 0.0
H1231 H 0.30266 0.88797 0.32378 0.0
H1232 H 0.30553 0.9101 0.35946 0.0
C1233 C 0.27345 0.86745 0.38046 0.0
C1234 C 0.66816 0.7635 0.86052 0.0
C1235 C 0.67657 0.74604 0.84711 0.0
H1236 H 0.64876 0.77248 0.88992 0.0
C1237 C 0.67097 0.72371 0.85309 0.0
H1238 H 0.67244 0.78086 0.85663 0.0
C1239 C 0.6574 0.71895 0.87209 0.0
C1240 C 0.64895 0.73638 0.88546 0.0
H1241 H 0.67703 0.70988 0.84302 0.0
H1242 H 0.6536 0.70157 0.87646 0.0
C1243 C 0.65462 0.75872 0.87959 0.0
loop_
_geom_bond_atom_site_label_1
_geom_bond_atom_site_label_2
_geom_bond_distance
_geom_bond_site_symmetry_2
_ccdc_geom_bond_type
C0 C1 1.264 . S
C0 C5 1.479 . S
C0 C10 1.465 . S
C1 C0 1.264 . S
C1 C3 1.339 . S
C1 H28 0.931 . S
C2 C3 1.395 . S
C2 C4 1.320 . S
C3 C1 1.339 . S
C3 C2 1.395 . S
C3 H29 0.929 . S
C4 C2 1.320 . S
C4 C5 1.405 . S
C4 H30 0.930 . S
C5 C0 1.479 . S
C5 C4 1.405 . S
C5 H31 0.931 . S
U6 O7 2.454 . S
U6 O8 2.458 . S
U6 C9 2.984 . S
U6 C10 2.847 . S
U6 C23 2.882 . S
U6 O24 2.441 . S
U6 O25 2.420 . S
U6 O26 2.455 . S
U6 O27 2.449 . S
O7 U6 2.454 . S
O7 C9 1.353 . S
O8 U6 2.458 . S
O8 C9 1.286 . S
C9 U6 2.984 . S
C9 O7 1.353 . S
C9 O8 1.286 . S
C9 C11 1.363 . S
C10 C0 1.465 . S
C10 U6 2.847 . S
C10 O24 1.249 . S
C10 O25 1.202 . S
C11 C9 1.363 . S
C11 C13 1.408 . S
C11 C16 1.342 . S
C12 C13 1.310 . S
C12 C15 1.461 . S
C12 H32 0.932 . S
C13 C11 1.408 . S
C13 C12 1.310 . S
C13 H33 0.930 . S
C14 C15 1.474 . S
C14 C16 1.285 . S
C14 H34 0.929 . S
C15 C12 1.461 . S
C15 C14 1.474 . S
C16 C11 1.342 . S
C16 C14 1.285 . S
C16 H35 0.930 . S
C17 C20 1.424 . S
C17 C22 1.245 . S
C17 C23 1.428 . S
C18 C21 1.260 . S
C18 C22 1.477 . S
C18 H36 0.932 . S
C19 C20 1.384 . S
C19 C21 1.479 . S
C19 H37 0.929 . S
C20 C17 1.424 . S
C20 C19 1.384 . S
C20 H38 0.928 . S
C21 C18 1.260 . S
C21 C19 1.479 . S
C22 C17 1.245 . S
C22 C18 1.477 . S
C22 H39 0.932 . S
C23 U6 2.882 . S
C23 C17 1.428 . S
C23 O26 1.301 . S
C23 O27 1.282 . S
O24 U6 2.441 . S
O24 C10 1.249 . S
O25 U6 2.420 . S
O25 C10 1.202 . S
O26 U6 2.455 . S
O26 C23 1.301 . S
O27 U6 2.449 . S
O27 C23 1.282 . S
H28 C1 0.931 . S
H29 C3 0.929 . S
H30 C4 0.930 . S
H31 C5 0.931 . S
H32 C12 0.932 . S
H33 C13 0.930 . S
H34 C14 0.929 . S
H35 C16 0.930 . S
H36 C18 0.932 . S
H37 C19 0.929 . S
H38 C20 0.928 . S
H39 C22 0.932 . S
C40 C41 1.264 . S
C40 C45 1.479 . S
C40 C50 1.465 . S
C41 C40 1.264 . S
C41 C43 1.339 . S
C41 H68 0.931 . S
C42 C43 1.395 . S
C42 C44 1.320 . S
C43 C41 1.339 . S
C43 C42 1.395 . S
C43 H69 0.929 . S
C44 C42 1.320 . S
C44 C45 1.405 . S
C44 H70 0.930 . S
C45 C40 1.479 . S
C45 C44 1.405 . S
C45 H71 0.931 . S
U46 O47 2.454 . S
U46 O48 2.458 . S
U46 C49 2.984 . S
U46 C50 2.847 . S
U46 C63 2.882 . S
U46 O64 2.441 . S
U46 O65 2.420 . S
U46 O66 2.455 . S
U46 O67 2.449 . S
O47 U46 2.454 . S
O47 C49 1.353 . S
O48 U46 2.458 . S
O48 C49 1.286 . S
C49 U46 2.984 . S
C49 O47 1.353 . S
C49 O48 1.286 . S
C49 C51 1.363 . S
C50 C40 1.465 . S
C50 U46 2.847 . S
C50 O64 1.249 . S
C50 O65 1.202 . S
C51 C49 1.363 . S
C51 C53 1.408 . S
C51 C56 1.342 . S
C52 C53 1.310 . S
C52 C55 1.461 . S
C52 H72 0.932 . S
C53 C51 1.408 . S
C53 C52 1.310 . S
C53 H73 0.930 . S
C54 C55 1.474 . S
C54 C56 1.285 . S
C54 H74 0.929 . S
C55 C52 1.461 . S
C55 C54 1.474 . S
C56 C51 1.342 . S
C56 C54 1.285 . S
C56 H75 0.930 . S
C57 C60 1.424 . S
C57 C62 1.245 . S
C57 C63 1.428 . S
C58 C61 1.260 . S
C58 C62 1.477 . S
C58 H76 0.932 . S
C59 C60 1.384 . S
C59 C61 1.479 . S
C59 H77 0.929 . S
C60 C57 1.424 . S
C60 C59 1.384 . S
C60 H78 0.928 . S
C61 C58 1.260 . S
C61 C59 1.479 . S
C62 C57 1.245 . S
C62 C58 1.477 . S
C62 H79 0.932 . S
C63 U46 2.882 . S
C63 C57 1.428 . S
C63 O66 1.301 . S
C63 O67 1.282 . S
O64 U46 2.441 . S
O64 C50 1.249 . S
O65 U46 2.420 . S
O65 C50 1.202 . S
O66 U46 2.455 . S
O66 C63 1.301 . S
O67 U46 2.449 . S
O67 C63 1.282 . S
H68 C41 0.931 . S
H69 C43 0.929 . S
H70 C44 0.930 . S
H71 C45 0.931 . S
H72 C52 0.932 . S
H73 C53 0.930 . S
H74 C54 0.929 . S
H75 C56 0.930 . S
H76 C58 0.932 . S
H77 C59 0.929 . S
H78 C60 0.928 . S
H79 C62 0.932 . S
C80 C81 1.264 . S
C80 C85 1.479 . S
C80 C90 1.465 . S
C81 C80 1.264 . S
C81 C83 1.339 . S
C81 H108 0.931 . S
C82 C83 1.395 . S
C82 C84 1.320 . S
C83 C81 1.339 . S
C83 C82 1.395 . S
C83 H109 0.929 . S
C84 C82 1.320 . S
C84 C85 1.405 . S
C84 H110 0.930 . S
C85 C80 1.479 . S
C85 C84 1.405 . S
C85 H111 0.931 . S
U86 O87 2.454 . S
U86 O88 2.458 . S
U86 C89 2.984 . S
U86 C90 2.847 . S
U86 C103 2.882 . S
U86 O104 2.441 . S
U86 O105 2.420 . S
U86 O106 2.455 . S
U86 O107 2.449 . S
O87 U86 2.454 . S
O87 C89 1.353 . S
O88 U86 2.458 . S
O88 C89 1.286 . S
C89 U86 2.984 . S
C89 O87 1.353 . S
C89 O88 1.286 . S
C89 C91 1.363 . S
C90 C80 1.465 . S
C90 U86 2.847 . S
C90 O104 1.249 . S
C90 O105 1.202 . S
C91 C89 1.363 . S
C91 C93 1.408 . S
C91 C96 1.342 . S
C92 C93 1.310 . S
C92 C95 1.461 . S
C92 H112 0.932 . S
C93 C91 1.408 . S
C93 C92 1.310 . S
C93 H113 0.930 . S
C94 C95 1.474 . S
C94 C96 1.285 . S
C94 H114 0.929 . S
C95 C92 1.461 . S
C95 C94 1.474 . S
C96 C91 1.342 . S
C96 C94 1.285 . S
C96 H115 0.930 . S
C97 C100 1.424 . S
C97 C102 1.245 . S
C97 C103 1.428 . S
C98 C101 1.260 . S
C98 C102 1.477 . S
C98 H116 0.932 . S
C99 C100 1.384 . S
C99 C101 1.479 . S
C99 H117 0.929 . S
C100 C97 1.424 . S
C100 C99 1.384 . S
C100 H118 0.928 . S
C101 C98 1.260 . S
C101 C99 1.479 . S
C102 C97 1.245 . S
C102 C98 1.477 . S
C102 H119 0.932 . S
C103 U86 2.882 . S
C103 C97 1.428 . S
C103 O106 1.301 . S
C103 O107 1.282 . S
O104 U86 2.441 . S
O104 C90 1.249 . S
O105 U86 2.420 . S
O105 C90 1.202 . S
O106 U86 2.455 . S
O106 C103 1.301 . S
O107 U86 2.449 . S
O107 C103 1.282 . S
H108 C81 0.931 . S
H109 C83 0.929 . S
H110 C84 0.930 . S
H111 C85 0.931 . S
H112 C92 0.932 . S
H113 C93 0.930 . S
H114 C94 0.929 . S
H115 C96 0.930 . S
H116 C98 0.932 . S
H117 C99 0.929 . S
H118 C100 0.928 . S
H119 C102 0.932 . S
C120 C121 1.264 . S
C120 C125 1.479 . S
C120 C130 1.465 . S
C121 C120 1.264 . S
C121 C123 1.339 . S
C121 H148 0.931 . S
C122 C123 1.395 . S
C122 C124 1.320 . S
C123 C121 1.339 . S
C123 C122 1.395 . S
C123 H149 0.929 . S
C124 C122 1.320 . S
C124 C125 1.405 . S
C124 H150 0.930 . S
C125 C120 1.479 . S
C125 C124 1.405 . S
C125 H151 0.931 . S
U126 O127 2.454 . S
U126 O128 2.458 . S
U126 C129 2.984 . S
U126 C130 2.847 . S
U126 C143 2.882 . S
U126 O144 2.441 . S
U126 O145 2.420 . S
U126 O146 2.455 . S
U126 O147 2.449 . S
O127 U126 2.454 . S
O127 C129 1.353 . S
O128 U126 2.458 . S
O128 C129 1.286 . S
C129 U126 2.984 . S
C129 O127 1.353 . S
C129 O128 1.286 . S
C129 C131 1.363 . S
C130 C120 1.465 . S
C130 U126 2.847 . S
C130 O144 1.249 . S
C130 O145 1.202 . S
C131 C129 1.363 . S
C131 C133 1.408 . S
C131 C136 1.342 . S
C132 C133 1.310 . S
C132 C135 1.461 . S
C132 H152 0.932 . S
C133 C131 1.408 . S
C133 C132 1.310 . S
C133 H153 0.930 . S
C134 C135 1.474 . S
C134 C136 1.285 . S
C134 H154 0.929 . S
C135 C132 1.461 . S
C135 C134 1.474 . S
C136 C131 1.342 . S
C136 C134 1.285 . S
C136 H155 0.930 . S
C137 C140 1.424 . S
C137 C142 1.245 . S
C137 C143 1.428 . S
C138 C141 1.260 . S
C138 C142 1.477 . S
C138 H156 0.932 . S
C139 C140 1.384 . S
C139 C141 1.479 . S
C139 H157 0.929 . S
C140 C137 1.424 . S
C140 C139 1.384 . S
C140 H158 0.928 . S
C141 C138 1.260 . S
C141 C139 1.479 . S
C142 C137 1.245 . S
C142 C138 1.477 . S
C142 H159 0.932 . S
C143 U126 2.882 . S
C143 C137 1.428 . S
C143 O146 1.301 . S
C143 O147 1.282 . S
O144 U126 2.441 . S
O144 C130 1.249 . S
O145 U126 2.420 . S
O145 C130 1.202 . S
O146 U126 2.455 . S
O146 C143 1.301 . S
O147 U126 2.449 . S
O147 C143 1.282 . S
H148 C121 0.931 . S
H149 C123 0.929 . S
H150 C124 0.930 . S
H151 C125 0.931 . S
H152 C132 0.932 . S
H153 C133 0.930 . S
H154 C134 0.929 . S
H155 C136 0.930 . S
H156 C138 0.932 . S
H157 C139 0.929 . S
H158 C140 0.928 . S
H159 C142 0.932 . S
C160 C161 1.264 . S
C160 C165 1.479 . S
C160 C170 1.465 . S
C161 C160 1.264 . S
C161 C163 1.339 . S
C161 H188 0.931 . S
C162 C163 1.395 . S
C162 C164 1.320 . S
C163 C161 1.339 . S
C163 C162 1.395 . S
C163 H189 0.929 . S
C164 C162 1.320 . S
C164 C165 1.405 . S
C164 H190 0.930 . S
C165 C160 1.479 . S
C165 C164 1.405 . S
C165 H191 0.931 . S
U166 O167 2.454 . S
U166 O168 2.458 . S
U166 C169 2.984 . S
U166 C170 2.847 . S
U166 C183 2.882 . S
U166 O184 2.441 . S
U166 O185 2.420 . S
U166 O186 2.455 . S
U166 O187 2.449 . S
O167 U166 2.454 . S
O167 C169 1.353 . S
O168 U166 2.458 . S
O168 C169 1.286 . S
C169 U166 2.984 . S
C169 O167 1.353 . S
C169 O168 1.286 . S
C169 C171 1.363 . S
C170 C160 1.465 . S
C170 U166 2.847 . S
C170 O184 1.249 . S
C170 O185 1.202 . S
C171 C169 1.363 . S
C171 C173 1.408 . S
C171 C176 1.342 . S
C172 C173 1.310 . S
C172 C175 1.461 . S
C172 H192 0.932 . S
C173 C171 1.408 . S
C173 C172 1.310 . S
C173 H193 0.930 . S
C174 C175 1.474 . S
C174 C176 1.285 . S
C174 H194 0.929 . S
C175 C172 1.461 . S
C175 C174 1.474 . S
C176 C171 1.342 . S
C176 C174 1.285 . S
C176 H195 0.930 . S
C177 C180 1.424 . S
C177 C182 1.245 . S
C177 C183 1.428 . S
C178 C181 1.260 . S
C178 C182 1.477 . S
C178 H196 0.932 . S
C179 C180 1.384 . S
C179 C181 1.479 . S
C179 H197 0.929 . S
C180 C177 1.424 . S
C180 C179 1.384 . S
C180 H198 0.928 . S
C181 C178 1.260 . S
C181 C179 1.479 . S
C182 C177 1.245 . S
C182 C178 1.477 . S
C182 H199 0.932 . S
C183 U166 2.882 . S
C183 C177 1.428 . S
C183 O186 1.301 . S
C183 O187 1.282 . S
O184 U166 2.441 . S
O184 C170 1.249 . S
O185 U166 2.420 . S
O185 C170 1.202 . S
O186 U166 2.455 . S
O186 C183 1.301 . S
O187 U166 2.449 . S
O187 C183 1.282 . S
H188 C161 0.931 . S
H189 C163 0.929 . S
H190 C164 0.930 . S
H191 C165 0.931 . S
H192 C172 0.932 . S
H193 C173 0.930 . S
H194 C174 0.929 . S
H195 C176 0.930 . S
H196 C178 0.932 . S
H197 C179 0.929 . S
H198 C180 0.928 . S
H199 C182 0.932 . S
C200 C201 1.264 . S
C200 C205 1.479 . S
C200 C210 1.465 . S
C201 C200 1.264 . S
C201 C203 1.339 . S
C201 H228 0.931 . S
C202 C203 1.395 . S
C202 C204 1.320 . S
C203 C201 1.339 . S
C203 C202 1.395 . S
C203 H229 0.929 . S
C204 C202 1.320 . S
C204 C205 1.405 . S
C204 H230 0.930 . S
C205 C200 1.479 . S
C205 C204 1.405 . S
C205 H231 0.931 . S
U206 O207 2.454 . S
U206 O208 2.458 . S
U206 C209 2.984 . S
U206 C210 2.847 . S
U206 C223 2.882 . S
U206 O224 2.441 . S
U206 O225 2.420 . S
U206 O226 2.455 . S
U206 O227 2.449 . S
O207 U206 2.454 . S
O207 C209 1.353 . S
O208 U206 2.458 . S
O208 C209 1.286 . S
C209 U206 2.984 . S
C209 O207 1.353 . S
C209 O208 1.286 . S
C209 C211 1.363 . S
C210 C200 1.465 . S
C210 U206 2.847 . S
C210 O224 1.249 . S
C210 O225 1.202 . S
C211 C209 1.363 . S
C211 C213 1.408 . S
C211 C216 1.342 . S
C212 C213 1.310 . S
C212 C215 1.461 . S
C212 H232 0.932 . S
C213 C211 1.408 . S
C213 C212 1.310 . S
C213 H233 0.930 . S
C214 C215 1.474 . S
C214 C216 1.285 . S
C214 H234 0.929 . S
C215 C212 1.461 . S
C215 C214 1.474 . S
C216 C211 1.342 . S
C216 C214 1.285 . S
C216 H235 0.930 . S
C217 C220 1.424 . S
C217 C222 1.245 . S
C217 C223 1.428 . S
C218 C221 1.260 . S
C218 C222 1.477 . S
C218 H236 0.932 . S
C219 C220 1.384 . S
C219 C221 1.479 . S
C219 H237 0.929 . S
C220 C217 1.424 . S
C220 C219 1.384 . S
C220 H238 0.928 . S
C221 C218 1.260 . S
C221 C219 1.479 . S
C222 C217 1.245 . S
C222 C218 1.477 . S
C222 H239 0.932 . S
C223 U206 2.882 . S
C223 C217 1.428 . S
C223 O226 1.301 . S
C223 O227 1.282 . S
O224 U206 2.441 . S
O224 C210 1.249 . S
O225 U206 2.420 . S
O225 C210 1.202 . S
O226 U206 2.455 . S
O226 C223 1.301 . S
O227 U206 2.449 . S
O227 C223 1.282 . S
H228 C201 0.931 . S
H229 C203 0.929 . S
H230 C204 0.930 . S
H231 C205 0.931 . S
H232 C212 0.932 . S
H233 C213 0.930 . S
H234 C214 0.929 . S
H235 C216 0.930 . S
H236 C218 0.932 . S
H237 C219 0.929 . S
H238 C220 0.928 . S
H239 C222 0.932 . S
C240 C241 1.264 . S
C240 C245 1.479 . S
C240 C250 1.465 . S
C241 C240 1.264 . S
C241 C243 1.339 . S
C241 H268 0.931 . S
C242 C243 1.395 . S
C242 C244 1.320 . S
C243 C241 1.339 . S
C243 C242 1.395 . S
C243 H269 0.929 . S
C244 C242 1.320 . S
C244 C245 1.405 . S
C244 H270 0.930 . S
C245 C240 1.479 . S
C245 C244 1.405 . S
C245 H271 0.931 . S
U246 O247 2.454 . S
U246 O248 2.458 . S
U246 C249 2.984 . S
U246 C250 2.847 . S
U246 C263 2.882 . S
U246 O264 2.441 . S
U246 O265 2.420 . S
U246 O266 2.455 . S
U246 O267 2.449 . S
O247 U246 2.454 . S
O247 C249 1.353 . S
O248 U246 2.458 . S
O248 C249 1.286 . S
C249 U246 2.984 . S
C249 O247 1.353 . S
C249 O248 1.286 . S
C249 C251 1.363 . S
C250 C240 1.465 . S
C250 U246 2.847 . S
C250 O264 1.249 . S
C250 O265 1.202 . S
C251 C249 1.363 . S
C251 C253 1.408 . S
C251 C256 1.342 . S
C252 C253 1.310 . S
C252 C255 1.461 . S
C252 H272 0.932 . S
C253 C251 1.408 . S
C253 C252 1.310 . S
C253 H273 0.930 . S
C254 C255 1.474 . S
C254 C256 1.285 . S
C254 H274 0.929 . S
C255 C252 1.461 . S
C255 C254 1.474 . S
C256 C251 1.342 . S
C256 C254 1.285 . S
C256 H275 0.930 . S
C257 C260 1.424 . S
C257 C262 1.245 . S
C257 C263 1.428 . S
C258 C261 1.260 . S
C258 C262 1.477 . S
C258 H276 0.932 . S
C259 C260 1.384 . S
C259 C261 1.479 . S
C259 H277 0.929 . S
C260 C257 1.424 . S
C260 C259 1.384 . S
C260 H278 0.928 . S
C261 C258 1.260 . S
C261 C259 1.479 . S
C262 C257 1.245 . S
C262 C258 1.477 . S
C262 H279 0.932 . S
C263 U246 2.882 . S
C263 C257 1.428 . S
C263 O266 1.301 . S
C263 O267 1.282 . S
O264 U246 2.441 . S
O264 C250 1.249 . S
O265 U246 2.420 . S
O265 C250 1.202 . S
O266 U246 2.455 . S
O266 C263 1.301 . S
O267 U246 2.449 . S
O267 C263 1.282 . S
H268 C241 0.931 . S
H269 C243 0.929 . S
H270 C244 0.930 . S
H271 C245 0.931 . S
H272 C252 0.932 . S
H273 C253 0.930 . S
H274 C254 0.929 . S
H275 C256 0.930 . S
H276 C258 0.932 . S
H277 C259 0.929 . S
H278 C260 0.928 . S
H279 C262 0.932 . S
C280 C281 1.264 . S
C280 C285 1.479 . S
C280 C290 1.465 . S
C281 C280 1.264 . S
C281 C283 1.339 . S
C281 H308 0.931 . S
C282 C283 1.395 . S
C282 C284 1.320 . S
C283 C281 1.339 . S
C283 C282 1.395 . S
C283 H309 0.929 . S
C284 C282 1.320 . S
C284 C285 1.405 . S
C284 H310 0.930 . S
C285 C280 1.479 . S
C285 C284 1.405 . S
C285 H311 0.931 . S
U286 O287 2.454 . S
U286 O288 2.458 . S
U286 C289 2.984 . S
U286 C290 2.847 . S
U286 C303 2.882 . S
U286 O304 2.441 . S
U286 O305 2.420 . S
U286 O306 2.455 . S
U286 O307 2.449 . S
O287 U286 2.454 . S
O287 C289 1.353 . S
O288 U286 2.458 . S
O288 C289 1.286 . S
C289 U286 2.984 . S
C289 O287 1.353 . S
C289 O288 1.286 . S
C289 C291 1.363 . S
C290 C280 1.465 . S
C290 U286 2.847 . S
C290 O304 1.249 . S
C290 O305 1.202 . S
C291 C289 1.363 . S
C291 C293 1.408 . S
C291 C296 1.342 . S
C292 C293 1.310 . S
C292 C295 1.461 . S
C292 H312 0.932 . S
C293 C291 1.408 . S
C293 C292 1.310 . S
C293 H313 0.930 . S
C294 C295 1.474 . S
C294 C296 1.285 . S
C294 H314 0.929 . S
C295 C292 1.461 . S
C295 C294 1.474 . S
C296 C291 1.342 . S
C296 C294 1.285 . S
C296 H315 0.930 . S
C297 C300 1.424 . S
C297 C302 1.245 . S
C297 C303 1.428 . S
C298 C301 1.260 . S
C298 C302 1.477 . S
C298 H316 0.932 . S
C299 C300 1.384 . S
C299 C301 1.479 . S
C299 H317 0.929 . S
C300 C297 1.424 . S
C300 C299 1.384 . S
C300 H318 0.928 . S
C301 C298 1.260 . S
C301 C299 1.479 . S
C302 C297 1.245 . S
C302 C298 1.477 . S
C302 H319 0.932 . S
C303 U286 2.882 . S
C303 C297 1.428 . S
C303 O306 1.301 . S
C303 O307 1.282 . S
O304 U286 2.441 . S
O304 C290 1.249 . S
O305 U286 2.420 . S
O305 C290 1.202 . S
O306 U286 2.455 . S
O306 C303 1.301 . S
O307 U286 2.449 . S
O307 C303 1.282 . S
H308 C281 0.931 . S
H309 C283 0.929 . S
H310 C284 0.930 . S
H311 C285 0.931 . S
H312 C292 0.932 . S
H313 C293 0.930 . S
H314 C294 0.929 . S
H315 C296 0.930 . S
H316 C298 0.932 . S
H317 C299 0.929 . S
H318 C300 0.928 . S
H319 C302 0.932 . S
C320 C321 1.560 . S
C320 H381 0.959 . S
C320 H382 0.959 . S
C320 H383 0.960 . S
C321 C320 1.560 . S
C321 O376 1.426 . S
C321 H380 0.980 . S
C322 C323 1.407 . S
C322 C327 1.418 . S
C322 O376 1.334 . S
C323 C322 1.407 . S
C323 C324 1.360 . S
C323 H384 0.929 . S
C324 C323 1.360 . S
C324 C325 1.401 . S
C324 C328 1.527 . S
C325 C324 1.401 . S
C325 C326 1.405 . S
C325 C358 1.587 . S
C326 C325 1.405 . S
C326 C327 1.332 . S
C326 C329 1.496 . S
C327 C322 1.418 . S
C327 C326 1.332 . S
C327 H385 0.929 . S
C328 C324 1.527 . S
C328 H386 0.959 . S
C328 H387 0.961 . S
C328 H388 0.961 . S
C329 C326 1.496 . S
C329 H389 0.960 . S
C329 H390 0.960 1_655 S
C329 H391 0.961 . S
C330 C331 1.517 . S
C330 H393 0.961 . S
C330 H394 0.960 . S
C330 H395 0.959 . S
C331 C330 1.517 . S
C331 O379 1.468 . S
C331 H392 0.980 . S
C332 C333 1.349 . S
C332 C337 1.367 . S
C332 O379 1.408 . S
C333 C332 1.349 . S
C333 C334 1.407 . S
C333 H396 0.930 . S
C334 C333 1.407 . S
C334 C335 1.449 . S
C334 C338 1.535 . S
C335 C334 1.449 . S
C335 C336 1.384 . S
C335 C360 1.553 . S
C336 C335 1.384 . S
C336 C337 1.364 . S
C336 C339 1.450 . S
C337 C332 1.367 . S
C337 C336 1.364 . S
C337 H397 0.931 . S
C338 C334 1.535 . S
C338 H398 0.959 . S
C338 H399 0.961 . S
C338 H400 0.959 . S
C339 C336 1.450 . S
C339 H401 0.960 . S
C339 H402 0.960 . S
C339 H403 0.960 . S
C340 C341 1.309 . S
C340 C345 1.304 . S
C340 O378 1.435 . S
C341 C340 1.309 . S
C341 C342 1.476 . S
C341 H405 0.930 . S
C342 C341 1.476 . S
C342 C343 1.400 . S
C342 C346 1.567 . S
C343 C342 1.400 . S
C343 C344 1.373 . S
C343 C365 1.432 . S
C344 C343 1.373 . S
C344 C345 1.339 . S
C344 C347 1.530 . S
C345 C340 1.304 . S
C345 C344 1.339 . S
C345 H406 0.930 . S
C346 C342 1.567 . S
C346 H407 0.961 . S
C346 H408 0.960 . S
C346 H409 0.958 . S
C347 C344 1.530 . S
C347 H410 0.961 . S
C347 H411 0.960 . S
C347 H412 0.960 . S
C348 C349 1.530 . S
C348 H414 0.961 . S
C348 H415 0.961 . S
C348 H416 0.959 . S
C349 C348 1.530 . S
C349 O377 1.412 . S
C349 H413 0.980 . S
C350 C351 1.288 . S
C350 C355 1.377 . S
C350 O377 1.393 . S
C351 C350 1.288 . S
C351 C352 1.369 . S
C351 H417 0.932 . S
C352 C351 1.369 . S
C352 C353 1.398 . S
C352 C356 1.527 . S
C353 C352 1.398 . S
C353 C354 1.380 . S
C353 C367 1.497 . S
C354 C353 1.380 . S
C354 C355 1.383 . S
C354 C357 1.603 . S
C355 C350 1.377 . S
C355 C354 1.383 . S
C355 H418 0.929 . S
C356 C352 1.527 . S
C356 H419 0.961 . S
C356 H420 0.959 . S
C356 H421 0.959 . S
C357 C354 1.603 . S
C357 H422 0.960 . S
C357 H423 0.962 . S
C357 H424 0.961 . S
C358 C325 1.587 . S
C358 C359 1.360 1_655 S
C358 C371 1.412 . S
C359 C358 1.360 1_455 S
C359 C360 1.365 . S
C359 H425 0.929 . S
C360 C335 1.553 . S
C360 C359 1.365 . S
C360 C361 1.404 . S
C361 C360 1.404 . S
C361 C362 1.395 . S
C361 C372 1.451 . S
C362 C361 1.395 . S
C362 C363 1.322 . S
C362 H426 0.930 . S
C363 C362 1.322 . S
C363 C364 1.459 . S
C363 H427 0.929 . S
C364 C363 1.459 . S
C364 C365 1.445 . S
C364 C373 1.395 . S
C365 C343 1.432 . S
C365 C364 1.445 . S
C365 C366 1.370 . S
C366 C365 1.370 . S
C366 C367 1.438 1_455 S
C366 H428 0.930 . S
C367 C353 1.497 . S
C367 C366 1.438 1_655 S
C367 C368 1.360 . S
C368 C367 1.360 . S
C368 C369 1.401 . S
C368 C373 1.446 1_655 S
C369 C368 1.401 . S
C369 C370 1.347 . S
C369 H429 0.929 . S
C370 C369 1.347 . S
C370 C371 1.455 . S
C370 H430 0.930 . S
C371 C358 1.412 . S
C371 C370 1.455 . S
C371 C372 1.331 1_655 S
C372 C361 1.451 . S
C372 C371 1.331 1_455 S
C372 C373 1.497 . S
C373 C364 1.395 . S
C373 C368 1.446 1_455 S
C373 C372 1.497 . S
C374 C375 1.582 . S
C374 H431 0.962 . S
C374 H432 0.959 . S
C374 H433 0.958 . S
C375 C374 1.582 . S
C375 O378 1.458 . S
C375 H404 0.980 . S
O376 C321 1.426 . S
O376 C322 1.334 . S
O377 C349 1.412 . S
O377 C350 1.393 . S
O378 C340 1.435 . S
O378 C375 1.458 . S
O379 C331 1.468 . S
O379 C332 1.408 . S
H380 C321 0.980 . S
H381 C320 0.959 . S
H382 C320 0.959 . S
H383 C320 0.960 . S
H384 C323 0.929 . S
H385 C327 0.929 . S
H386 C328 0.959 . S
H387 C328 0.961 . S
H388 C328 0.961 . S
H389 C329 0.960 . S
H390 C329 0.960 1_455 S
H391 C329 0.961 . S
H392 C331 0.980 . S
H393 C330 0.961 . S
H394 C330 0.960 . S
H395 C330 0.959 . S
H396 C333 0.930 . S
H397 C337 0.931 . S
H398 C338 0.959 . S
H399 C338 0.961 . S
H400 C338 0.959 . S
H401 C339 0.960 . S
H402 C339 0.960 . S
H403 C339 0.960 . S
H404 C375 0.980 . S
H405 C341 0.930 . S
H406 C345 0.930 . S
H407 C346 0.961 . S
H408 C346 0.960 . S
H409 C346 0.958 . S
H410 C347 0.961 . S
H411 C347 0.960 . S
H412 C347 0.960 . S
H413 C349 0.980 . S
H414 C348 0.961 . S
H415 C348 0.961 . S
H416 C348 0.959 . S
H417 C351 0.932 . S
H418 C355 0.929 . S
H419 C356 0.961 . S
H420 C356 0.959 . S
H421 C356 0.959 . S
H422 C357 0.960 . S
H423 C357 0.962 . S
H424 C357 0.961 . S
H425 C359 0.929 . S
H426 C362 0.930 . S
H427 C363 0.929 . S
H428 C366 0.930 . S
H429 C369 0.929 . S
H430 C370 0.930 . S
H431 C374 0.962 . S
H432 C374 0.959 . S
H433 C374 0.958 . S
C434 C435 1.560 . S
C434 H495 0.959 . S
C434 H496 0.959 . S
C434 H497 0.960 . S
C435 C434 1.560 . S
C435 O490 1.426 . S
C435 H494 0.980 . S
C436 C437 1.407 . S
C436 C441 1.418 . S
C436 O490 1.334 . S
C437 C436 1.407 . S
C437 C438 1.360 . S
C437 H498 0.929 . S
C438 C437 1.360 . S
C438 C439 1.401 . S
C438 C442 1.527 . S
C439 C438 1.401 . S
C439 C440 1.405 . S
C439 C472 1.587 . S
C440 C439 1.405 . S
C440 C441 1.332 . S
C440 C443 1.496 . S
C441 C436 1.418 . S
C441 C440 1.332 . S
C441 H499 0.929 . S
C442 C438 1.527 . S
C442 H500 0.959 . S
C442 H501 0.961 . S
C442 H502 0.961 . S
C443 C440 1.496 . S
C443 H503 0.960 . S
C443 H504 0.960 . S
C443 H505 0.961 . S
C444 C445 1.517 . S
C444 H507 0.961 . S
C444 H508 0.960 . S
C444 H509 0.959 . S
C445 C444 1.517 . S
C445 O493 1.468 . S
C445 H506 0.980 . S
C446 C447 1.349 . S
C446 C451 1.367 . S
C446 O493 1.408 . S
C447 C446 1.349 . S
C447 C448 1.407 . S
C447 H510 0.930 . S
C448 C447 1.407 . S
C448 C449 1.449 . S
C448 C452 1.535 . S
C449 C448 1.449 . S
C449 C450 1.384 . S
C449 C474 1.553 . S
C450 C449 1.384 . S
C450 C451 1.364 . S
C450 C453 1.450 . S
C451 C446 1.367 . S
C451 C450 1.364 . S
C451 H511 0.931 . S
C452 C448 1.535 . S
C452 H512 0.959 . S
C452 H513 0.961 . S
C452 H514 0.959 . S
C453 C450 1.450 . S
C453 H515 0.960 . S
C453 H516 0.960 . S
C453 H517 0.960 . S
C454 C455 1.309 . S
C454 C459 1.304 . S
C454 O492 1.435 . S
C455 C454 1.309 . S
C455 C456 1.476 . S
C455 H519 0.930 . S
C456 C455 1.476 . S
C456 C457 1.400 . S
C456 C460 1.567 . S
C457 C456 1.400 . S
C457 C458 1.373 . S
C457 C479 1.432 . S
C458 C457 1.373 . S
C458 C459 1.339 . S
C458 C461 1.530 . S
C459 C454 1.304 . S
C459 C458 1.339 . S
C459 H520 0.930 . S
C460 C456 1.567 . S
C460 H521 0.961 . S
C460 H522 0.960 . S
C460 H523 0.958 . S
C461 C458 1.530 . S
C461 H524 0.961 . S
C461 H525 0.960 . S
C461 H526 0.960 . S
C462 C463 1.530 . S
C462 H528 0.961 . S
C462 H529 0.961 . S
C462 H530 0.959 . S
C463 C462 1.530 . S
C463 O491 1.412 . S
C463 H527 0.980 . S
C464 C465 1.288 . S
C464 C469 1.377 . S
C464 O491 1.393 . S
C465 C464 1.288 . S
C465 C466 1.369 . S
C465 H531 0.932 . S
C466 C465 1.369 . S
C466 C467 1.398 . S
C466 C470 1.527 . S
C467 C466 1.398 . S
C467 C468 1.380 . S
C467 C481 1.497 . S
C468 C467 1.380 . S
C468 C469 1.383 . S
C468 C471 1.603 . S
C469 C464 1.377 . S
C469 C468 1.383 . S
C469 H532 0.929 . S
C470 C466 1.527 . S
C470 H533 0.961 . S
C470 H534 0.959 . S
C470 H535 0.959 . S
C471 C468 1.603 . S
C471 H536 0.960 . S
C471 H537 0.962 . S
C471 H538 0.961 . S
C472 C439 1.587 . S
C472 C473 1.360 . S
C472 C485 1.412 . S
C473 C472 1.360 . S
C473 C474 1.365 1_455 S
C473 H539 0.929 . S
C474 C449 1.553 . S
C474 C473 1.365 1_655 S
C474 C475 1.404 . S
C475 C474 1.404 . S
C475 C476 1.395 . S
C475 C486 1.451 1_655 S
C476 C475 1.395 . S
C476 C477 1.322 . S
C476 H540 0.930 . S
C477 C476 1.322 . S
C477 C478 1.459 . S
C477 H541 0.929 . S
C478 C477 1.459 . S
C478 C479 1.445 . S
C478 C487 1.395 1_655 S
C479 C457 1.432 . S
C479 C478 1.445 . S
C479 C480 1.370 1_655 S
C480 C479 1.370 1_455 S
C480 C481 1.438 . S
C480 H542 0.930 . S
C481 C467 1.497 . S
C481 C480 1.438 . S
C481 C482 1.360 . S
C482 C481 1.360 . S
C482 C483 1.401 . S
C482 C487 1.446 . S
C483 C482 1.401 . S
C483 C484 1.347 . S
C483 H543 0.929 . S
C484 C483 1.347 . S
C484 C485 1.455 . S
C484 H544 0.930 . S
C485 C472 1.412 . S
C485 C484 1.455 . S
C485 C486 1.331 . S
C486 C475 1.451 1_455 S
C486 C485 1.331 . S
C486 C487 1.497 . S
C487 C478 1.395 1_455 S
C487 C482 1.446 . S
C487 C486 1.497 . S
C488 C489 1.582 . S
C488 H545 0.962 . S
C488 H546 0.959 . S
C488 H547 0.958 . S
C489 C488 1.582 . S
C489 O492 1.458 . S
C489 H518 0.980 . S
O490 C435 1.426 . S
O490 C436 1.334 . S
O491 C463 1.412 . S
O491 C464 1.393 . S
O492 C454 1.435 . S
O492 C489 1.458 . S
O493 C445 1.468 . S
O493 C446 1.408 . S
H494 C435 0.980 . S
H495 C434 0.959 . S
H496 C434 0.959 . S
H497 C434 0.960 . S
H498 C437 0.929 . S
H499 C441 0.929 . S
H500 C442 0.959 . S
H501 C442 0.961 . S
H502 C442 0.961 . S
H503 C443 0.960 . S
H504 C443 0.960 . S
H505 C443 0.961 . S
H506 C445 0.980 . S
H507 C444 0.961 . S
H508 C444 0.960 . S
H509 C444 0.959 . S
H510 C447 0.930 . S
H511 C451 0.931 . S
H512 C452 0.959 . S
H513 C452 0.961 . S
H514 C452 0.959 . S
H515 C453 0.960 . S
H516 C453 0.960 . S
H517 C453 0.960 . S
H518 C489 0.980 . S
H519 C455 0.930 . S
H520 C459 0.930 . S
H521 C460 0.961 . S
H522 C460 0.960 . S
H523 C460 0.958 . S
H524 C461 0.961 . S
H525 C461 0.960 . S
H526 C461 0.960 . S
H527 C463 0.980 . S
H528 C462 0.961 . S
H529 C462 0.961 . S
H530 C462 0.959 . S
H531 C465 0.932 . S
H532 C469 0.929 . S
H533 C470 0.961 . S
H534 C470 0.959 . S
H535 C470 0.959 . S
H536 C471 0.960 . S
H537 C471 0.962 . S
H538 C471 0.961 . S
H539 C473 0.929 . S
H540 C476 0.930 . S
H541 C477 0.929 . S
H542 C480 0.930 . S
H543 C483 0.929 . S
H544 C484 0.930 . S
H545 C488 0.962 . S
H546 C488 0.959 . S
H547 C488 0.958 . S
C548 C549 1.560 . S
C548 H609 0.959 . S
C548 H610 0.959 . S
C548 H611 0.960 . S
C549 C548 1.560 . S
C549 O604 1.426 . S
C549 H608 0.980 . S
C550 C551 1.407 . S
C550 C555 1.418 . S
C550 O604 1.334 . S
C551 C550 1.407 . S
C551 C552 1.360 . S
C551 H612 0.929 . S
C552 C551 1.360 . S
C552 C553 1.401 . S
C552 C556 1.527 . S
C553 C552 1.401 . S
C553 C554 1.405 . S
C553 C586 1.587 . S
C554 C553 1.405 . S
C554 C555 1.332 . S
C554 C557 1.496 . S
C555 C550 1.418 . S
C555 C554 1.332 . S
C555 H613 0.929 . S
C556 C552 1.527 . S
C556 H614 0.959 . S
C556 H615 0.961 . S
C556 H616 0.961 . S
C557 C554 1.496 . S
C557 H617 0.960 . S
C557 H618 0.960 . S
C557 H619 0.961 . S
C558 C559 1.517 . S
C558 H621 0.961 . S
C558 H622 0.960 . S
C558 H623 0.959 . S
C559 C558 1.517 . S
C559 O607 1.468 . S
C559 H620 0.980 . S
C560 C561 1.349 . S
C560 C565 1.367 . S
C560 O607 1.408 . S
C561 C560 1.349 . S
C561 C562 1.407 . S
C561 H624 0.930 . S
C562 C561 1.407 . S
C562 C563 1.449 . S
C562 C566 1.535 . S
C563 C562 1.449 . S
C563 C564 1.384 . S
C563 C588 1.553 . S
C564 C563 1.384 . S
C564 C565 1.364 . S
C564 C567 1.450 . S
C565 C560 1.367 . S
C565 C564 1.364 . S
C565 H625 0.931 . S
C566 C562 1.535 . S
C566 H626 0.959 . S
C566 H627 0.961 . S
C566 H628 0.959 . S
C567 C564 1.450 . S
C567 H629 0.960 . S
C567 H630 0.960 . S
C567 H631 0.960 . S
C568 C569 1.309 . S
C568 C573 1.304 . S
C568 O606 1.435 . S
C569 C568 1.309 . S
C569 C570 1.476 . S
C569 H633 0.930 . S
C570 C569 1.476 . S
C570 C571 1.400 . S
C570 C574 1.567 . S
C571 C570 1.400 . S
C571 C572 1.373 . S
C571 C593 1.432 . S
C572 C571 1.373 . S
C572 C573 1.339 . S
C572 C575 1.530 . S
C573 C568 1.304 . S
C573 C572 1.339 . S
C573 H634 0.930 . S
C574 C570 1.567 . S
C574 H635 0.961 . S
C574 H636 0.960 . S
C574 H637 0.958 . S
C575 C572 1.530 . S
C575 H638 0.961 . S
C575 H639 0.960 . S
C575 H640 0.960 . S
C576 C577 1.530 . S
C576 H642 0.961 . S
C576 H643 0.961 . S
C576 H644 0.959 . S
C577 C576 1.530 . S
C577 O605 1.412 . S
C577 H641 0.980 . S
C578 C579 1.288 . S
C578 C583 1.377 . S
C578 O605 1.393 . S
C579 C578 1.288 . S
C579 C580 1.369 . S
C579 H645 0.932 . S
C580 C579 1.369 . S
C580 C581 1.398 . S
C580 C584 1.527 . S
C581 C580 1.398 . S
C581 C582 1.380 . S
C581 C595 1.497 . S
C582 C581 1.380 . S
C582 C583 1.383 . S
C582 C585 1.603 . S
C583 C578 1.377 . S
C583 C582 1.383 . S
C583 H646 0.929 . S
C584 C580 1.527 . S
C584 H647 0.961 . S
C584 H648 0.959 . S
C584 H649 0.959 . S
C585 C582 1.603 . S
C585 H650 0.960 . S
C585 H651 0.962 . S
C585 H652 0.961 . S
C586 C553 1.587 . S
C586 C587 1.360 . S
C586 C599 1.412 . S
C587 C586 1.360 . S
C587 C588 1.365 1_545 S
C587 H653 0.929 . S
C588 C563 1.553 . S
C588 C587 1.365 1_565 S
C588 C589 1.404 . S
C589 C588 1.404 . S
C589 C590 1.395 . S
C589 C600 1.451 1_565 S
C590 C589 1.395 . S
C590 C591 1.322 . S
C590 H654 0.930 . S
C591 C590 1.322 . S
C591 C592 1.459 . S
C591 H655 0.929 . S
C592 C591 1.459 . S
C592 C593 1.445 . S
C592 C601 1.395 1_565 S
C593 C571 1.432 . S
C593 C592 1.445 . S
C593 C594 1.370 1_565 S
C594 C593 1.370 1_545 S
C594 C595 1.438 . S
C594 H656 0.930 . S
C595 C581 1.497 . S
C595 C594 1.438 . S
C595 C596 1.360 . S
C596 C595 1.360 . S
C596 C597 1.401 . S
C596 C601 1.446 . S
C597 C596 1.401 . S
C597 C598 1.347 . S
C597 H657 0.929 . S
C598 C597 1.347 . S
C598 C599 1.455 . S
C598 H658 0.930 . S
C599 C586 1.412 . S
C599 C598 1.455 . S
C599 C600 1.331 . S
C600 C589 1.451 1_545 S
C600 C599 1.331 . S
C600 C601 1.497 . S
C601 C592 1.395 1_545 S
C601 C596 1.446 . S
C601 C600 1.497 . S
C602 C603 1.582 . S
C602 H659 0.962 . S
C602 H660 0.959 . S
C602 H661 0.958 . S
C603 C602 1.582 . S
C603 O606 1.458 . S
C603 H632 0.980 . S
O604 C549 1.426 . S
O604 C550 1.334 . S
O605 C577 1.412 . S
O605 C578 1.393 . S
O606 C568 1.435 . S
O606 C603 1.458 . S
O607 C559 1.468 . S
O607 C560 1.408 . S
H608 C549 0.980 . S
H609 C548 0.959 . S
H610 C548 0.959 . S
H611 C548 0.960 . S
H612 C551 0.929 . S
H613 C555 0.929 . S
H614 C556 0.959 . S
H615 C556 0.961 . S
H616 C556 0.961 . S
H617 C557 0.960 . S
H618 C557 0.960 . S
H619 C557 0.961 . S
H620 C559 0.980 . S
H621 C558 0.961 . S
H622 C558 0.960 . S
H623 C558 0.959 . S
H624 C561 0.930 . S
H625 C565 0.931 . S
H626 C566 0.959 . S
H627 C566 0.961 . S
H628 C566 0.959 . S
H629 C567 0.960 . S
H630 C567 0.960 . S
H631 C567 0.960 . S
H632 C603 0.980 . S
H633 C569 0.930 . S
H634 C573 0.930 . S
H635 C574 0.961 . S
H636 C574 0.960 . S
H637 C574 0.958 . S
H638 C575 0.961 . S
H639 C575 0.960 . S
H640 C575 0.960 . S
H641 C577 0.980 . S
H642 C576 0.961 . S
H643 C576 0.961 . S
H644 C576 0.959 . S
H645 C579 0.932 . S
H646 C583 0.929 . S
H647 C584 0.961 . S
H648 C584 0.959 . S
H649 C584 0.959 . S
H650 C585 0.960 . S
H651 C585 0.962 . S
H652 C585 0.961 . S
H653 C587 0.929 . S
H654 C590 0.930 . S
H655 C591 0.929 . S
H656 C594 0.930 . S
H657 C597 0.929 . S
H658 C598 0.930 . S
H659 C602 0.962 . S
H660 C602 0.959 . S
H661 C602 0.958 . S
C662 C663 1.560 . S
C662 H723 0.959 . S
C662 H724 0.959 . S
C662 H725 0.960 . S
C663 C662 1.560 . S
C663 O718 1.426 . S
C663 H722 0.980 . S
C664 C665 1.407 . S
C664 C669 1.418 . S
C664 O718 1.334 . S
C665 C664 1.407 . S
C665 C666 1.360 . S
C665 H726 0.929 . S
C666 C665 1.360 . S
C666 C667 1.401 . S
C666 C670 1.527 . S
C667 C666 1.401 . S
C667 C668 1.405 . S
C667 C700 1.587 . S
C668 C667 1.405 . S
C668 C669 1.332 . S
C668 C671 1.496 . S
C669 C664 1.418 . S
C669 C668 1.332 . S
C669 H727 0.929 . S
C670 C666 1.527 . S
C670 H728 0.959 . S
C670 H729 0.961 . S
C670 H730 0.961 . S
C671 C668 1.496 . S
C671 H731 0.960 . S
C671 H732 0.960 . S
C671 H733 0.961 . S
C672 C673 1.517 . S
C672 H735 0.961 . S
C672 H736 0.960 . S
C672 H737 0.959 . S
C673 C672 1.517 . S
C673 O721 1.468 . S
C673 H734 0.980 . S
C674 C675 1.349 . S
C674 C679 1.367 . S
C674 O721 1.408 . S
C675 C674 1.349 . S
C675 C676 1.407 . S
C675 H738 0.930 . S
C676 C675 1.407 . S
C676 C677 1.449 . S
C676 C680 1.535 . S
C677 C676 1.449 . S
C677 C678 1.384 . S
C677 C702 1.553 . S
C678 C677 1.384 . S
C678 C679 1.364 . S
C678 C681 1.450 . S
C679 C674 1.367 . S
C679 C678 1.364 . S
C679 H739 0.931 . S
C680 C676 1.535 . S
C680 H740 0.959 . S
C680 H741 0.961 . S
C680 H742 0.959 . S
C681 C678 1.450 . S
C681 H743 0.960 . S
C681 H744 0.960 . S
C681 H745 0.960 . S
C682 C683 1.309 . S
C682 C687 1.304 . S
C682 O720 1.435 . S
C683 C682 1.309 . S
C683 C684 1.476 . S
C683 H747 0.930 . S
C684 C683 1.476 . S
C684 C685 1.400 . S
C684 C688 1.567 . S
C685 C684 1.400 . S
C685 C686 1.373 . S
C685 C707 1.432 . S
C686 C685 1.373 . S
C686 C687 1.339 . S
C686 C689 1.530 . S
C687 C682 1.304 . S
C687 C686 1.339 . S
C687 H748 0.930 . S
C688 C684 1.567 . S
C688 H749 0.961 . S
C688 H750 0.960 . S
C688 H751 0.958 . S
C689 C686 1.530 . S
C689 H752 0.961 . S
C689 H753 0.960 . S
C689 H754 0.960 . S
C690 C691 1.530 . S
C690 H756 0.961 . S
C690 H757 0.961 . S
C690 H758 0.959 . S
C691 C690 1.530 . S
C691 O719 1.412 . S
C691 H755 0.980 . S
C692 C693 1.288 . S
C692 C697 1.377 . S
C692 O719 1.393 . S
C693 C692 1.288 . S
C693 C694 1.369 . S
C693 H759 0.932 . S
C694 C693 1.369 . S
C694 C695 1.398 . S
C694 C698 1.527 . S
C695 C694 1.398 . S
C695 C696 1.380 . S
C695 C709 1.497 . S
C696 C695 1.380 . S
C696 C697 1.383 . S
C696 C699 1.603 . S
C697 C692 1.377 . S
C697 C696 1.383 . S
C697 H760 0.929 . S
C698 C694 1.527 . S
C698 H761 0.961 . S
C698 H762 0.959 . S
C698 H763 0.959 . S
C699 C696 1.603 . S
C699 H764 0.960 . S
C699 H765 0.962 . S
C699 H766 0.961 . S
C700 C667 1.587 . S
C700 C701 1.360 . S
C700 C713 1.412 . S
C701 C700 1.360 . S
C701 C702 1.365 . S
C701 H767 0.929 . S
C702 C677 1.553 . S
C702 C701 1.365 . S
C702 C703 1.404 . S
C703 C702 1.404 . S
C703 C704 1.395 . S
C703 C714 1.451 . S
C704 C703 1.395 . S
C704 C705 1.316 1_554 S
C704 H768 0.930 . S
C705 C704 1.316 1_556 S
C705 C706 1.462 . S
C705 H769 0.932 . S
C706 C705 1.462 . S
C706 C707 1.445 . S
C706 C715 1.395 . S
C707 C685 1.432 . S
C707 C706 1.445 . S
C707 C708 1.370 . S
C708 C707 1.370 . S
C708 C709 1.438 . S
C708 H770 0.930 . S
C709 C695 1.497 . S
C709 C708 1.438 . S
C709 C710 1.360 . S
C710 C709 1.360 . S
C710 C711 1.401 . S
C710 C715 1.446 . S
C711 C710 1.401 . S
C711 C712 1.347 1_556 S
C711 H771 0.929 . S
C712 C711 1.347 1_554 S
C712 C713 1.455 . S
C712 H772 0.930 . S
C713 C700 1.412 . S
C713 C712 1.455 . S
C713 C714 1.331 . S
C714 C703 1.451 . S
C714 C713 1.331 . S
C714 C715 1.497 1_554 S
C715 C706 1.395 . S
C715 C710 1.446 . S
C715 C714 1.497 1_556 S
C716 C717 1.582 . S
C716 H773 0.962 . S
C716 H774 0.959 . S
C716 H775 0.958 . S
C717 C716 1.582 . S
C717 O720 1.458 . S
C717 H746 0.980 . S
O718 C663 1.426 . S
O718 C664 1.334 . S
O719 C691 1.412 . S
O719 C692 1.393 . S
O720 C682 1.435 . S
O720 C717 1.458 . S
O721 C673 1.468 . S
O721 C674 1.408 . S
H722 C663 0.980 . S
H723 C662 0.959 . S
H724 C662 0.959 . S
H725 C662 0.960 . S
H726 C665 0.929 . S
H727 C669 0.929 . S
H728 C670 0.959 . S
H729 C670 0.961 . S
H730 C670 0.961 . S
H731 C671 0.960 . S
H732 C671 0.960 . S
H733 C671 0.961 . S
H734 C673 0.980 . S
H735 C672 0.961 . S
H736 C672 0.960 . S
H737 C672 0.959 . S
H738 C675 0.930 . S
H739 C679 0.931 . S
H740 C680 0.959 . S
H741 C680 0.961 . S
H742 C680 0.959 . S
H743 C681 0.960 . S
H744 C681 0.960 . S
H745 C681 0.960 . S
H746 C717 0.980 . S
H747 C683 0.930 . S
H748 C687 0.930 . S
H749 C688 0.961 . S
H750 C688 0.960 . S
H751 C688 0.958 . S
H752 C689 0.961 . S
H753 C689 0.960 . S
H754 C689 0.960 . S
H755 C691 0.980 . S
H756 C690 0.961 . S
H757 C690 0.961 . S
H758 C690 0.959 . S
H759 C693 0.932 . S
H760 C697 0.929 . S
H761 C698 0.961 . S
H762 C698 0.959 . S
H763 C698 0.959 . S
H764 C699 0.960 . S
H765 C699 0.962 . S
H766 C699 0.961 . S
H767 C701 0.929 . S
H768 C704 0.930 . S
H769 C705 0.932 . S
H770 C708 0.930 . S
H771 C711 0.929 . S
H772 C712 0.930 . S
H773 C716 0.962 . S
H774 C716 0.959 . S
H775 C716 0.958 . S
C776 C777 1.560 . S
C776 H837 0.959 . S
C776 H838 0.959 . S
C776 H839 0.960 . S
C777 C776 1.560 . S
C777 O832 1.426 . S
C777 H836 0.980 . S
C778 C779 1.407 . S
C778 C783 1.418 . S
C778 O832 1.334 . S
C779 C778 1.407 . S
C779 C780 1.360 . S
C779 H840 0.929 . S
C780 C779 1.360 . S
C780 C781 1.401 . S
C780 C784 1.527 . S
C781 C780 1.401 . S
C781 C782 1.405 . S
C781 C814 1.587 . S
C782 C781 1.405 . S
C782 C783 1.332 . S
C782 C785 1.496 . S
C783 C778 1.418 . S
C783 C782 1.332 . S
C783 H841 0.929 . S
C784 C780 1.527 . S
C784 H842 0.959 . S
C784 H843 0.961 . S
C784 H844 0.961 . S
C785 C782 1.496 . S
C785 H845 0.960 . S
C785 H846 0.960 . S
C785 H847 0.961 . S
C786 C787 1.517 . S
C786 H849 0.961 . S
C786 H850 0.960 . S
C786 H851 0.959 . S
C787 C786 1.517 . S
C787 O835 1.468 . S
C787 H848 0.980 . S
C788 C789 1.349 . S
C788 C793 1.367 . S
C788 O835 1.408 . S
C789 C788 1.349 . S
C789 C790 1.407 . S
C789 H852 0.930 . S
C790 C789 1.407 . S
C790 C791 1.449 . S
C790 C794 1.535 . S
C791 C790 1.449 . S
C791 C792 1.384 . S
C791 C816 1.553 . S
C792 C791 1.384 . S
C792 C793 1.364 . S
C792 C795 1.450 . S
C793 C788 1.367 . S
C793 C792 1.364 . S
C793 H853 0.931 . S
C794 C790 1.535 . S
C794 H854 0.959 . S
C794 H855 0.961 . S
C794 H856 0.959 . S
C795 C792 1.450 . S
C795 H857 0.960 . S
C795 H858 0.960 . S
C795 H859 0.960 . S
C796 C797 1.309 . S
C796 C801 1.304 . S
C796 O834 1.435 . S
C797 C796 1.309 . S
C797 C798 1.476 . S
C797 H861 0.930 . S
C798 C797 1.476 . S
C798 C799 1.400 . S
C798 C802 1.567 . S
C799 C798 1.400 . S
C799 C800 1.373 . S
C799 C821 1.432 . S
C800 C799 1.373 . S
C800 C801 1.339 . S
C800 C803 1.530 . S
C801 C796 1.304 . S
C801 C800 1.339 . S
C801 H862 0.930 . S
C802 C798 1.567 . S
C802 H863 0.961 . S
C802 H864 0.960 . S
C802 H865 0.958 . S
C803 C800 1.530 . S
C803 H866 0.961 . S
C803 H867 0.960 . S
C803 H868 0.960 . S
C804 C805 1.530 . S
C804 H870 0.961 . S
C804 H871 0.961 . S
C804 H872 0.959 . S
C805 C804 1.530 . S
C805 O833 1.412 . S
C805 H869 0.980 . S
C806 C807 1.288 . S
C806 C811 1.377 . S
C806 O833 1.393 . S
C807 C806 1.288 . S
C807 C808 1.369 . S
C807 H873 0.932 . S
C808 C807 1.369 . S
C808 C809 1.398 . S
C808 C812 1.527 . S
C809 C808 1.398 . S
C809 C810 1.380 . S
C809 C823 1.497 . S
C810 C809 1.380 . S
C810 C811 1.383 . S
C810 C813 1.603 . S
C811 C806 1.377 . S
C811 C810 1.383 . S
C811 H874 0.929 . S
C812 C808 1.527 . S
C812 H875 0.961 . S
C812 H876 0.959 . S
C812 H877 0.959 . S
C813 C810 1.603 . S
C813 H878 0.960 . S
C813 H879 0.962 . S
C813 H880 0.961 . S
C814 C781 1.587 . S
C814 C815 1.360 . S
C814 C827 1.412 . S
C815 C814 1.360 . S
C815 C816 1.365 1_545 S
C815 H881 0.929 . S
C816 C791 1.553 . S
C816 C815 1.365 1_565 S
C816 C817 1.404 . S
C817 C816 1.404 . S
C817 C818 1.395 . S
C817 C828 1.451 1_565 S
C818 C817 1.395 . S
C818 C819 1.322 . S
C818 H882 0.930 . S
C819 C818 1.322 . S
C819 C820 1.459 . S
C819 H883 0.929 . S
C820 C819 1.459 . S
C820 C821 1.445 . S
C820 C829 1.395 1_565 S
C821 C799 1.432 . S
C821 C820 1.445 . S
C821 C822 1.370 1_565 S
C822 C821 1.370 1_545 S
C822 C823 1.438 . S
C822 H884 0.930 . S
C823 C809 1.497 . S
C823 C822 1.438 . S
C823 C824 1.360 . S
C824 C823 1.360 . S
C824 C825 1.401 . S
C824 C829 1.446 . S
C825 C824 1.401 . S
C825 C826 1.347 . S
C825 H885 0.929 . S
C826 C825 1.347 . S
C826 C827 1.455 . S
C826 H886 0.930 . S
C827 C814 1.412 . S
C827 C826 1.455 . S
C827 C828 1.331 . S
C828 C817 1.451 1_545 S
C828 C827 1.331 . S
C828 C829 1.497 . S
C829 C820 1.395 1_545 S
C829 C824 1.446 . S
C829 C828 1.497 . S
C830 C831 1.582 . S
C830 H887 0.962 . S
C830 H888 0.959 . S
C830 H889 0.958 . S
C831 C830 1.582 . S
C831 O834 1.458 . S
C831 H860 0.980 . S
O832 C777 1.426 . S
O832 C778 1.334 . S
O833 C805 1.412 . S
O833 C806 1.393 . S
O834 C796 1.435 . S
O834 C831 1.458 . S
O835 C787 1.468 . S
O835 C788 1.408 . S
H836 C777 0.980 . S
H837 C776 0.959 . S
H838 C776 0.959 . S
H839 C776 0.960 . S
H840 C779 0.929 . S
H841 C783 0.929 . S
H842 C784 0.959 . S
H843 C784 0.961 . S
H844 C784 0.961 . S
H845 C785 0.960 . S
H846 C785 0.960 . S
H847 C785 0.961 . S
H848 C787 0.980 . S
H849 C786 0.961 . S
H850 C786 0.960 . S
H851 C786 0.959 . S
H852 C789 0.930 . S
H853 C793 0.931 . S
H854 C794 0.959 . S
H855 C794 0.961 . S
H856 C794 0.959 . S
H857 C795 0.960 . S
H858 C795 0.960 . S
H859 C795 0.960 . S
H860 C831 0.980 . S
H861 C797 0.930 . S
H862 C801 0.930 . S
H863 C802 0.961 . S
H864 C802 0.960 . S
H865 C802 0.958 . S
H866 C803 0.961 . S
H867 C803 0.960 . S
H868 C803 0.960 . S
H869 C805 0.980 . S
H870 C804 0.961 . S
H871 C804 0.961 . S
H872 C804 0.959 . S
H873 C807 0.932 . S
H874 C811 0.929 . S
H875 C812 0.961 . S
H876 C812 0.959 . S
H877 C812 0.959 . S
H878 C813 0.960 . S
H879 C813 0.962 . S
H880 C813 0.961 . S
H881 C815 0.929 . S
H882 C818 0.930 . S
H883 C819 0.929 . S
H884 C822 0.930 . S
H885 C825 0.929 . S
H886 C826 0.930 . S
H887 C830 0.962 . S
H888 C830 0.959 . S
H889 C830 0.958 . S
C890 C891 1.560 . S
C890 H951 0.959 . S
C890 H952 0.959 . S
C890 H953 0.960 . S
C891 C890 1.560 . S
C891 O946 1.426 . S
C891 H950 0.980 . S
C892 C893 1.407 . S
C892 C897 1.418 . S
C892 O946 1.334 . S
C893 C892 1.407 . S
C893 C894 1.360 . S
C893 H954 0.929 . S
C894 C893 1.360 . S
C894 C895 1.401 . S
C894 C898 1.527 . S
C895 C894 1.401 . S
C895 C896 1.405 . S
C895 C928 1.587 . S
C896 C895 1.405 . S
C896 C897 1.332 . S
C896 C899 1.496 . S
C897 C892 1.418 . S
C897 C896 1.332 . S
C897 H955 0.929 . S
C898 C894 1.527 . S
C898 H956 0.959 . S
C898 H957 0.961 . S
C898 H958 0.961 . S
C899 C896 1.496 . S
C899 H959 0.960 . S
C899 H960 0.960 . S
C899 H961 0.961 . S
C900 C901 1.517 . S
C900 H963 0.961 . S
C900 H964 0.960 . S
C900 H965 0.959 . S
C901 C900 1.517 . S
C901 O949 1.468 . S
C901 H962 0.980 . S
C902 C903 1.349 . S
C902 C907 1.367 . S
C902 O949 1.408 . S
C903 C902 1.349 . S
C903 C904 1.407 . S
C903 H966 0.930 . S
C904 C903 1.407 . S
C904 C905 1.449 . S
C904 C908 1.535 . S
C905 C904 1.449 . S
C905 C906 1.384 . S
C905 C930 1.553 . S
C906 C905 1.384 . S
C906 C907 1.364 . S
C906 C909 1.450 . S
C907 C902 1.367 . S
C907 C906 1.364 . S
C907 H967 0.931 . S
C908 C904 1.535 . S
C908 H968 0.959 . S
C908 H969 0.961 . S
C908 H970 0.959 . S
C909 C906 1.450 . S
C909 H971 0.960 . S
C909 H972 0.960 . S
C909 H973 0.960 . S
C910 C911 1.309 . S
C910 C915 1.304 . S
C910 O948 1.435 . S
C911 C910 1.309 . S
C911 C912 1.476 . S
C911 H975 0.930 . S
C912 C911 1.476 . S
C912 C913 1.400 . S
C912 C916 1.567 . S
C913 C912 1.400 . S
C913 C914 1.373 . S
C913 C935 1.432 . S
C914 C913 1.373 . S
C914 C915 1.339 . S
C914 C917 1.530 . S
C915 C910 1.304 . S
C915 C914 1.339 . S
C915 H976 0.930 . S
C916 C912 1.567 . S
C916 H977 0.961 . S
C916 H978 0.960 . S
C916 H979 0.958 . S
C917 C914 1.530 . S
C917 H980 0.961 . S
C917 H981 0.960 . S
C917 H982 0.960 . S
C918 C919 1.530 . S
C918 H984 0.961 . S
C918 H985 0.961 . S
C918 H986 0.959 . S
C919 C918 1.530 . S
C919 O947 1.412 . S
C919 H983 0.980 . S
C920 C921 1.288 . S
C920 C925 1.377 . S
C920 O947 1.393 . S
C921 C920 1.288 . S
C921 C922 1.369 . S
C921 H987 0.932 . S
C922 C921 1.369 . S
C922 C923 1.398 . S
C922 C926 1.527 . S
C923 C922 1.398 . S
C923 C924 1.380 . S
C923 C937 1.497 . S
C924 C923 1.380 . S
C924 C925 1.383 . S
C924 C927 1.603 . S
C925 C920 1.377 . S
C925 C924 1.383 . S
C925 H988 0.929 . S
C926 C922 1.527 . S
C926 H989 0.961 . S
C926 H990 0.959 . S
C926 H991 0.959 . S
C927 C924 1.603 . S
C927 H992 0.960 . S
C927 H993 0.962 . S
C927 H994 0.961 . S
C928 C895 1.587 . S
C928 C929 1.360 . S
C928 C941 1.412 . S
C929 C928 1.360 . S
C929 C930 1.365 . S
C929 H995 0.929 . S
C930 C905 1.553 . S
C930 C929 1.365 . S
C930 C931 1.404 . S
C931 C930 1.404 . S
C931 C932 1.395 . S
C931 C942 1.451 . S
C932 C931 1.395 . S
C932 C933 1.322 1_554 S
C932 H996 0.930 . S
C933 C932 1.322 1_556 S
C933 C934 1.459 . S
C933 H997 0.929 . S
C934 C933 1.459 . S
C934 C935 1.445 . S
C934 C943 1.395 . S
C935 C913 1.432 . S
C935 C934 1.445 . S
C935 C936 1.370 . S
C936 C935 1.370 . S
C936 C937 1.438 . S
C936 H998 0.930 . S
C937 C923 1.497 . S
C937 C936 1.438 . S
C937 C938 1.360 . S
C938 C937 1.360 . S
C938 C939 1.403 . S
C938 C943 1.446 . S
C939 C938 1.403 . S
C939 C940 1.343 1_556 S
C939 H999 0.931 . S
C940 C939 1.343 1_554 S
C940 C941 1.455 . S
C940 H1000 0.930 . S
C941 C928 1.412 . S
C941 C940 1.455 . S
C941 C942 1.331 . S
C942 C931 1.451 . S
C942 C941 1.331 . S
C942 C943 1.497 1_554 S
C943 C934 1.395 . S
C943 C938 1.446 . S
C943 C942 1.497 1_556 S
C944 C945 1.582 . S
C944 H1001 0.962 . S
C944 H1002 0.959 . S
C944 H1003 0.958 . S
C945 C944 1.582 . S
C945 O948 1.458 . S
C945 H974 0.980 . S
O946 C891 1.426 . S
O946 C892 1.334 . S
O947 C919 1.412 . S
O947 C920 1.393 . S
O948 C910 1.435 . S
O948 C945 1.458 . S
O949 C901 1.468 . S
O949 C902 1.408 . S
H950 C891 0.980 . S
H951 C890 0.959 . S
H952 C890 0.959 . S
H953 C890 0.960 . S
H954 C893 0.929 . S
H955 C897 0.929 . S
H956 C898 0.959 . S
H957 C898 0.961 . S
H958 C898 0.961 . S
H959 C899 0.960 . S
H960 C899 0.960 . S
H961 C899 0.961 . S
H962 C901 0.980 . S
H963 C900 0.961 . S
H964 C900 0.960 . S
H965 C900 0.959 . S
H966 C903 0.930 . S
H967 C907 0.931 . S
H968 C908 0.959 . S
H969 C908 0.961 . S
H970 C908 0.959 . S
H971 C909 0.960 . S
H972 C909 0.960 . S
H973 C909 0.960 . S
H974 C945 0.980 . S
H975 C911 0.930 . S
H976 C915 0.930 . S
H977 C916 0.961 . S
H978 C916 0.960 . S
H979 C916 0.958 . S
H980 C917 0.961 . S
H981 C917 0.960 . S
H982 C917 0.960 . S
H983 C919 0.980 . S
H984 C918 0.961 . S
H985 C918 0.961 . S
H986 C918 0.959 . S
H987 C921 0.932 . S
H988 C925 0.929 . S
H989 C926 0.961 . S
H990 C926 0.959 . S
H991 C926 0.959 . S
H992 C927 0.960 . S
H993 C927 0.962 . S
H994 C927 0.961 . S
H995 C929 0.929 . S
H996 C932 0.930 . S
H997 C933 0.929 . S
H998 C936 0.930 . S
H999 C939 0.931 . S
H1000 C940 0.930 . S
H1001 C944 0.962 . S
H1002 C944 0.959 . S
H1003 C944 0.958 . S
C1004 C1005 1.387 . S
C1004 H1008 0.950 . S
C1004 C1013 1.390 . S
C1005 C1004 1.387 . S
C1005 C1007 1.387 . S
H1006 C1013 0.950 . S
C1007 C1005 1.387 . S
C1007 C1009 1.390 . S
C1007 H1011 0.950 . S
H1008 C1004 0.950 . S
C1009 C1007 1.390 . S
C1009 C1010 1.387 . S
C1009 H1012 0.950 . S
C1010 C1009 1.387 . S
C1010 C1013 1.387 . S
H1011 C1007 0.950 . S
H1012 C1009 0.950 . S
C1013 C1004 1.390 . S
C1013 H1006 0.950 . S
C1013 C1010 1.387 . S
C1014 C1015 1.387 . S
C1014 H1018 0.950 . S
C1014 C1023 1.390 . S
C1015 C1014 1.387 . S
C1015 C1017 1.387 . S
H1016 C1023 0.950 . S
C1017 C1015 1.387 . S
C1017 C1019 1.390 . S
C1017 H1021 0.950 . S
H1018 C1014 0.950 . S
C1019 C1017 1.390 . S
C1019 C1020 1.387 . S
C1019 H1022 0.950 . S
C1020 C1019 1.387 . S
C1020 C1023 1.387 . S
H1021 C1017 0.950 . S
H1022 C1019 0.950 . S
C1023 C1014 1.390 . S
C1023 H1016 0.950 . S
C1023 C1020 1.387 . S
C1024 C1025 1.387 . S
C1024 H1028 0.950 . S
C1024 C1033 1.390 . S
C1025 C1024 1.387 . S
C1025 C1027 1.387 . S
H1026 C1033 0.950 . S
C1027 C1025 1.387 . S
C1027 C1029 1.390 . S
C1027 H1031 0.950 . S
H1028 C1024 0.950 . S
C1029 C1027 1.390 . S
C1029 C1030 1.387 . S
C1029 H1032 0.950 . S
C1030 C1029 1.387 . S
C1030 C1033 1.387 . S
H1031 C1027 0.950 . S
H1032 C1029 0.950 . S
C1033 C1024 1.390 . S
C1033 H1026 0.950 . S
C1033 C1030 1.387 . S
C1034 C1035 1.387 . S
C1034 H1038 0.950 . S
C1034 C1043 1.390 . S
C1035 C1034 1.387 . S
C1035 C1037 1.387 . S
H1036 C1043 0.950 . S
C1037 C1035 1.387 . S
C1037 C1039 1.390 . S
C1037 H1041 0.950 . S
H1038 C1034 0.950 . S
C1039 C1037 1.390 . S
C1039 C1040 1.387 . S
C1039 H1042 0.950 . S
C1040 C1039 1.387 . S
C1040 C1043 1.387 . S
H1041 C1037 0.950 . S
H1042 C1039 0.950 . S
C1043 C1034 1.390 . S
C1043 H1036 0.950 . S
C1043 C1040 1.387 . S
C1044 C1045 1.387 . S
C1044 H1048 0.950 . S
C1044 C1053 1.390 . S
C1045 C1044 1.387 . S
C1045 C1047 1.387 . S
H1046 C1053 0.950 . S
C1047 C1045 1.387 . S
C1047 C1049 1.390 . S
C1047 H1051 0.950 . S
H1048 C1044 0.950 . S
C1049 C1047 1.390 . S
C1049 C1050 1.387 . S
C1049 H1052 0.950 . S
C1050 C1049 1.387 . S
C1050 C1053 1.387 . S
H1051 C1047 0.950 . S
H1052 C1049 0.950 . S
C1053 C1044 1.390 . S
C1053 H1046 0.950 . S
C1053 C1050 1.387 . S
C1054 C1055 1.387 . S
C1054 H1058 0.950 . S
C1054 C1063 1.390 . S
C1055 C1054 1.387 . S
C1055 C1057 1.387 . S
H1056 C1063 0.950 . S
C1057 C1055 1.387 . S
C1057 C1059 1.390 . S
C1057 H1061 0.950 . S
H1058 C1054 0.950 . S
C1059 C1057 1.390 . S
C1059 C1060 1.387 . S
C1059 H1062 0.950 . S
C1060 C1059 1.387 . S
C1060 C1063 1.387 . S
H1061 C1057 0.950 . S
H1062 C1059 0.950 . S
C1063 C1054 1.390 . S
C1063 H1056 0.950 . S
C1063 C1060 1.387 . S
C1064 C1065 1.387 . S
C1064 H1068 0.950 . S
C1064 C1073 1.390 . S
C1065 C1064 1.387 . S
C1065 C1067 1.387 . S
H1066 C1073 0.950 . S
C1067 C1065 1.387 . S
C1067 C1069 1.390 . S
C1067 H1071 0.950 . S
H1068 C1064 0.950 . S
C1069 C1067 1.390 . S
C1069 C1070 1.387 . S
C1069 H1072 0.950 . S
C1070 C1069 1.387 . S
C1070 C1073 1.387 . S
H1071 C1067 0.950 . S
H1072 C1069 0.950 . S
C1073 C1064 1.390 . S
C1073 H1066 0.950 . S
C1073 C1070 1.387 . S
C1074 C1075 1.387 . S
C1074 H1078 0.950 . S
C1074 C1083 1.390 . S
C1075 C1074 1.387 . S
C1075 C1077 1.387 . S
H1076 C1083 0.950 . S
C1077 C1075 1.387 . S
C1077 C1079 1.390 . S
C1077 H1081 0.950 . S
H1078 C1074 0.950 . S
C1079 C1077 1.390 . S
C1079 C1080 1.387 . S
C1079 H1082 0.950 . S
C1080 C1079 1.387 . S
C1080 C1083 1.387 . S
H1081 C1077 0.950 . S
H1082 C1079 0.950 . S
C1083 C1074 1.390 . S
C1083 H1076 0.950 . S
C1083 C1080 1.387 . S
C1084 C1085 1.387 . S
C1084 H1088 0.950 . S
C1084 C1093 1.390 . S
C1085 C1084 1.387 . S
C1085 C1087 1.387 . S
H1086 C1093 0.950 . S
C1087 C1085 1.387 . S
C1087 C1089 1.390 . S
C1087 H1091 0.950 . S
H1088 C1084 0.950 . S
C1089 C1087 1.390 . S
C1089 C1090 1.387 . S
C1089 H1092 0.950 . S
C1090 C1089 1.387 . S
C1090 C1093 1.387 . S
H1091 C1087 0.950 . S
H1092 C1089 0.950 . S
C1093 C1084 1.390 . S
C1093 H1086 0.950 . S
C1093 C1090 1.387 . S
C1094 C1095 1.387 . S
C1094 H1098 0.950 . S
C1094 C1103 1.390 . S
C1095 C1094 1.387 . S
C1095 C1097 1.387 . S
H1096 C1103 0.950 . S
C1097 C1095 1.387 . S
C1097 C1099 1.390 . S
C1097 H1101 0.950 . S
H1098 C1094 0.950 . S
C1099 C1097 1.390 . S
C1099 C1100 1.387 . S
C1099 H1102 0.950 . S
C1100 C1099 1.387 . S
C1100 C1103 1.387 . S
H1101 C1097 0.950 . S
H1102 C1099 0.950 . S
C1103 C1094 1.390 . S
C1103 H1096 0.950 . S
C1103 C1100 1.387 . S
C1104 C1105 1.387 . S
C1104 H1108 0.950 . S
C1104 C1113 1.390 . S
C1105 C1104 1.387 . S
C1105 C1107 1.387 . S
H1106 C1113 0.950 . S
C1107 C1105 1.387 . S
C1107 C1109 1.390 . S
C1107 H1111 0.950 . S
H1108 C1104 0.950 . S
C1109 C1107 1.390 . S
C1109 C1110 1.387 . S
C1109 H1112 0.950 . S
C1110 C1109 1.387 . S
C1110 C1113 1.387 . S
H1111 C1107 0.950 . S
H1112 C1109 0.950 . S
C1113 C1104 1.390 . S
C1113 H1106 0.950 . S
C1113 C1110 1.387 . S
C1114 C1115 1.387 . S
C1114 H1118 0.950 . S
C1114 C1123 1.390 . S
C1115 C1114 1.387 . S
C1115 C1117 1.387 . S
H1116 C1123 0.950 . S
C1117 C1115 1.387 . S
C1117 C1119 1.390 . S
C1117 H1121 0.950 . S
H1118 C1114 0.950 . S
C1119 C1117 1.390 . S
C1119 C1120 1.387 . S
C1119 H1122 0.950 . S
C1120 C1119 1.387 . S
C1120 C1123 1.387 . S
H1121 C1117 0.950 . S
H1122 C1119 0.950 . S
C1123 C1114 1.390 . S
C1123 H1116 0.950 . S
C1123 C1120 1.387 . S
C1124 C1125 1.387 . S
C1124 H1128 0.950 . S
C1124 C1133 1.390 . S
C1125 C1124 1.387 . S
C1125 C1127 1.387 . S
H1126 C1133 0.950 . S
C1127 C1125 1.387 . S
C1127 C1129 1.390 . S
C1127 H1131 0.950 . S
H1128 C1124 0.950 . S
C1129 C1127 1.390 . S
C1129 C1130 1.387 . S
C1129 H1132 0.950 . S
C1130 C1129 1.387 . S
C1130 C1133 1.387 . S
H1131 C1127 0.950 . S
H1132 C1129 0.950 . S
C1133 C1124 1.390 . S
C1133 H1126 0.950 . S
C1133 C1130 1.387 . S
C1134 C1135 1.387 . S
C1134 H1138 0.950 . S
C1134 C1143 1.390 . S
C1135 C1134 1.387 . S
C1135 C1137 1.387 . S
H1136 C1143 0.950 . S
C1137 C1135 1.387 . S
C1137 C1139 1.390 . S
C1137 H1141 0.950 . S
H1138 C1134 0.950 . S
C1139 C1137 1.390 . S
C1139 C1140 1.387 . S
C1139 H1142 0.950 . S
C1140 C1139 1.387 . S
C1140 C1143 1.387 . S
H1141 C1137 0.950 . S
H1142 C1139 0.950 . S
C1143 C1134 1.390 . S
C1143 H1136 0.950 . S
C1143 C1140 1.387 . S
C1144 C1145 1.387 . S
C1144 H1148 0.950 . S
C1144 C1153 1.390 . S
C1145 C1144 1.387 . S
C1145 C1147 1.387 . S
H1146 C1153 0.950 . S
C1147 C1145 1.387 . S
C1147 C1149 1.390 . S
C1147 H1151 0.950 . S
H1148 C1144 0.950 . S
C1149 C1147 1.390 . S
C1149 C1150 1.387 . S
C1149 H1152 0.950 . S
C1150 C1149 1.387 . S
C1150 C1153 1.387 . S
H1151 C1147 0.950 . S
H1152 C1149 0.950 . S
C1153 C1144 1.390 . S
C1153 H1146 0.950 . S
C1153 C1150 1.387 . S
C1154 C1155 1.387 . S
C1154 H1158 0.950 . S
C1154 C1163 1.390 . S
C1155 C1154 1.387 . S
C1155 C1157 1.387 . S
H1156 C1163 0.950 . S
C1157 C1155 1.387 . S
C1157 C1159 1.390 . S
C1157 H1161 0.950 . S
H1158 C1154 0.950 . S
C1159 C1157 1.390 . S
C1159 C1160 1.387 . S
C1159 H1162 0.950 . S
C1160 C1159 1.387 . S
C1160 C1163 1.387 . S
H1161 C1157 0.950 . S
H1162 C1159 0.950 . S
C1163 C1154 1.390 . S
C1163 H1156 0.950 . S
C1163 C1160 1.387 . S
C1164 C1165 1.387 . S
C1164 H1168 0.950 . S
C1164 C1173 1.390 . S
C1165 C1164 1.387 . S
C1165 C1167 1.387 . S
H1166 C1173 0.950 . S
C1167 C1165 1.387 . S
C1167 C1169 1.390 . S
C1167 H1171 0.950 . S
H1168 C1164 0.950 . S
C1169 C1167 1.390 . S
C1169 C1170 1.387 . S
C1169 H1172 0.950 . S
C1170 C1169 1.387 . S
C1170 C1173 1.387 . S
H1171 C1167 0.950 . S
H1172 C1169 0.950 . S
C1173 C1164 1.390 . S
C1173 H1166 0.950 . S
C1173 C1170 1.387 . S
C1174 C1175 1.387 . S
C1174 H1178 0.950 . S
C1174 C1183 1.390 . S
C1175 C1174 1.387 . S
C1175 C1177 1.387 . S
H1176 C1183 0.950 . S
C1177 C1175 1.387 . S
C1177 C1179 1.390 . S
C1177 H1181 0.950 . S
H1178 C1174 0.950 . S
C1179 C1177 1.390 . S
C1179 C1180 1.387 . S
C1179 H1182 0.950 . S
C1180 C1179 1.387 . S
C1180 C1183 1.387 . S
H1181 C1177 0.950 . S
H1182 C1179 0.950 . S
C1183 C1174 1.390 . S
C1183 H1176 0.950 . S
C1183 C1180 1.387 . S
C1184 C1185 1.387 . S
C1184 H1188 0.950 . S
C1184 C1193 1.390 . S
C1185 C1184 1.387 . S
C1185 C1187 1.387 . S
H1186 C1193 0.950 . S
C1187 C1185 1.387 . S
C1187 C1189 1.390 . S
C1187 H1191 0.950 . S
H1188 C1184 0.950 . S
C1189 C1187 1.390 . S
C1189 C1190 1.387 . S
C1189 H1192 0.950 . S
C1190 C1189 1.387 . S
C1190 C1193 1.387 . S
H1191 C1187 0.950 . S
H1192 C1189 0.950 . S
C1193 C1184 1.390 . S
C1193 H1186 0.950 . S
C1193 C1190 1.387 . S
C1194 C1195 1.387 . S
C1194 H1198 0.950 . S
C1194 C1203 1.390 . S
C1195 C1194 1.387 . S
C1195 C1197 1.387 . S
H1196 C1203 0.950 . S
C1197 C1195 1.387 . S
C1197 C1199 1.390 . S
C1197 H1201 0.950 . S
H1198 C1194 0.950 . S
C1199 C1197 1.390 . S
C1199 C1200 1.387 . S
C1199 H1202 0.950 . S
C1200 C1199 1.387 . S
C1200 C1203 1.387 . S
H1201 C1197 0.950 . S
H1202 C1199 0.950 . S
C1203 C1194 1.390 . S
C1203 H1196 0.950 . S
C1203 C1200 1.387 . S
C1204 C1205 1.387 . S
C1204 H1208 0.950 . S
C1204 C1213 1.390 . S
C1205 C1204 1.387 . S
C1205 C1207 1.387 . S
H1206 C1213 0.950 . S
C1207 C1205 1.387 . S
C1207 C1209 1.390 . S
C1207 H1211 0.950 . S
H1208 C1204 0.950 . S
C1209 C1207 1.390 . S
C1209 C1210 1.387 . S
C1209 H1212 0.950 . S
C1210 C1209 1.387 . S
C1210 C1213 1.387 . S
H1211 C1207 0.950 . S
H1212 C1209 0.950 . S
C1213 C1204 1.390 . S
C1213 H1206 0.950 . S
C1213 C1210 1.387 . S
C1214 C1215 1.387 . S
C1214 H1218 0.950 . S
C1214 C1223 1.390 . S
C1215 C1214 1.387 . S
C1215 C1217 1.387 . S
H1216 C1223 0.950 . S
C1217 C1215 1.387 . S
C1217 C1219 1.390 . S
C1217 H1221 0.950 . S
H1218 C1214 0.950 . S
C1219 C1217 1.390 . S
C1219 C1220 1.387 . S
C1219 H1222 0.950 . S
C1220 C1219 1.387 . S
C1220 C1223 1.387 . S
H1221 C1217 0.950 . S
H1222 C1219 0.950 . S
C1223 C1214 1.390 . S
C1223 H1216 0.950 . S
C1223 C1220 1.387 . S
C1224 C1225 1.387 . S
C1224 H1228 0.950 . S
C1224 C1233 1.390 . S
C1225 C1224 1.387 . S
C1225 C1227 1.387 . S
H1226 C1233 0.950 . S
C1227 C1225 1.387 . S
C1227 C1229 1.390 . S
C1227 H1231 0.950 . S
H1228 C1224 0.950 . S
C1229 C1227 1.390 . S
C1229 C1230 1.387 . S
C1229 H1232 0.950 . S
C1230 C1229 1.387 . S
C1230 C1233 1.387 . S
H1231 C1227 0.950 . S
H1232 C1229 0.950 . S
C1233 C1224 1.390 . S
C1233 H1226 0.950 . S
C1233 C1230 1.387 . S
C1234 C1235 1.387 . S
C1234 H1238 0.950 . S
C1234 C1243 1.390 . S
C1235 C1234 1.387 . S
C1235 C1237 1.387 . S
H1236 C1243 0.950 . S
C1237 C1235 1.387 . S
C1237 C1239 1.390 . S
C1237 H1241 0.950 . S
H1238 C1234 0.950 . S
C1239 C1237 1.390 . S
C1239 C1240 1.387 . S
C1239 H1242 0.950 . S
C1240 C1239 1.387 . S
C1240 C1243 1.387 . S
H1241 C1237 0.950 . S
H1242 C1239 0.950 . S
C1243 C1234 1.390 . S
C1243 H1236 0.950 . S
C1243 C1240 1.387 . S
C1010 C331 0.938 . S
C1005 C15 1.594 . S
C1020 C463 1.256 . S
C1015 C55 1.531 . S
C1030 C349 1.306 . S
C1025 C101 1.531 . S
C1040 C445 0.918 . S
C1035 C141 1.570 . S
C1050 C577 1.208 . S
C1045 C2 1.521 . S
C1060 C691 1.301 . S
C1055 C61 1.536 . S
C1065 C95 1.603 . S
C1070 C831 1.247 . S
C1080 C945 1.158 . S
C1075 C135 1.539 . S
C1090 C559 0.916 . S
C1085 C42 1.457 . S
C1095 C82 1.602 . S
C1100 C673 0.946 . S
C1110 C777 1.244 . S
C1105 C122 1.582 . S
C1120 C891 1.097 . S
C1115 C21 1.409 . S
C1125 C162 1.504 . S
C1130 C489 1.123 . S
C1140 C321 1.068 . S
C1135 C221 1.427 . S
C1145 C255 1.391 . S
C1150 C435 1.048 . S
C1155 C282 1.530 . S
C1160 C375 1.130 . S
C1170 C787 1.000 . S
C1165 C181 1.579 . S
C1180 C901 1.243 . S
C1175 C202 1.618 . S
C1190 C549 0.990 . S
C1185 C242 1.331 . S
C1195 C301 1.569 . S
C1200 C663 1.308 . S
C1210 C805 1.242 . S
C1205 C215 1.478 . S
C1220 C919 1.119 . S
C1215 C261 1.564 . S
C1230 C603 1.182 . S
C1225 C295 1.548 . S
C1235 C175 1.649 . S
C1240 C717 1.121 . S
