# Generated by pormake.
# Topology zzz, (3,6)-cn, num edge types: 1
# Building blocks:
#     Node 0, Type 0, BuildingBlock: MIDCAF_clean_linker_0, # of connection points: 3
#     Node 1, Type 0, BuildingBlock: MIDCAF_clean_linker_0, # of connection points: 3
#     Node 2, Type 0, BuildingBlock: MIDCAF_clean_linker_0, # of connection points: 3
#     Node 3, Type 0, BuildingBlock: MIDCAF_clean_linker_0, # of connection points: 3
#     Node 4, Type 0, BuildingBlock: MIDCAF_clean_linker_0, # of connection points: 3
#     Node 5, Type 0, BuildingBlock: MIDCAF_clean_linker_0, # of connection points: 3
#     Node 6, Type 0, BuildingBlock: MIDCAF_clean_linker_0, # of connection points: 3
#     Node 7, Type 0, BuildingBlock: MIDCAF_clean_linker_0, # of connection points: 3
#     Node 8, Type 1, BuildingBlock: CUKXOW_clean_sbu_0, # of connection points: 6
#     Node 9, Type 1, BuildingBlock: CUKXOW_clean_sbu_0, # of connection points: 6
#     Node 10, Type 1, BuildingBlock: CUKXOW_clean_sbu_0, # of connection points: 6
#     Node 11, Type 1, BuildingBlock: CUKXOW_clean_sbu_0, # of connection points: 6
#     Edge 12, Type (0, 1), BuildingBlock: EZIPEK_clean_linker_0, # of connection points: 2
#     Edge 13, Type (0, 1), BuildingBlock: EZIPEK_clean_linker_0, # of connection points: 2
#     Edge 14, Type (0, 1), BuildingBlock: EZIPEK_clean_linker_0, # of connection points: 2
#     Edge 15, Type (0, 1), BuildingBlock: EZIPEK_clean_linker_0, # of connection points: 2
#     Edge 16, Type (0, 1), BuildingBlock: EZIPEK_clean_linker_0, # of connection points: 2
#     Edge 17, Type (0, 1), BuildingBlock: EZIPEK_clean_linker_0, # of connection points: 2
#     Edge 18, Type (0, 1), BuildingBlock: EZIPEK_clean_linker_0, # of connection points: 2
#     Edge 19, Type (0, 1), BuildingBlock: EZIPEK_clean_linker_0, # of connection points: 2
#     Edge 20, Type (0, 1), BuildingBlock: EZIPEK_clean_linker_0, # of connection points: 2
#     Edge 21, Type (0, 1), BuildingBlock: EZIPEK_clean_linker_0, # of connection points: 2
#     Edge 22, Type (0, 1), BuildingBlock: EZIPEK_clean_linker_0, # of connection points: 2
#     Edge 23, Type (0, 1), BuildingBlock: EZIPEK_clean_linker_0, # of connection points: 2
#     Edge 24, Type (0, 1), BuildingBlock: EZIPEK_clean_linker_0, # of connection points: 2
#     Edge 25, Type (0, 1), BuildingBlock: EZIPEK_clean_linker_0, # of connection points: 2
#     Edge 26, Type (0, 1), BuildingBlock: EZIPEK_clean_linker_0, # of connection points: 2
#     Edge 27, Type (0, 1), BuildingBlock: EZIPEK_clean_linker_0, # of connection points: 2
#     Edge 28, Type (0, 1), BuildingBlock: EZIPEK_clean_linker_0, # of connection points: 2
#     Edge 29, Type (0, 1), BuildingBlock: EZIPEK_clean_linker_0, # of connection points: 2
#     Edge 30, Type (0, 1), BuildingBlock: EZIPEK_clean_linker_0, # of connection points: 2
#     Edge 31, Type (0, 1), BuildingBlock: EZIPEK_clean_linker_0, # of connection points: 2
#     Edge 32, Type (0, 1), BuildingBlock: EZIPEK_clean_linker_0, # of connection points: 2
#     Edge 33, Type (0, 1), BuildingBlock: EZIPEK_clean_linker_0, # of connection points: 2
#     Edge 34, Type (0, 1), BuildingBlock: EZIPEK_clean_linker_0, # of connection points: 2
#     Edge 35, Type (0, 1), BuildingBlock: EZIPEK_clean_linker_0, # of connection points: 2
# Relax obj value: 0.213
# Max RMSD: 0.230
# Mean RMSD: 0.186
data_MOF--net-zzz--node1-CUKXOW_clean_sbu_0--node2-MIDCAF_clean_linker_0--edge1-EZIPEK_clean_linker_0
_symmetry_space_group_name_H-M    P1
_symmetry_Int_Tables_number       1
_symmetry_cell_setting            triclinic
loop_
_symmetry_equiv_pos_as_xyz
'x, y, z'
_cell_length_a     45.092837
_cell_length_b     44.616809
_cell_length_c     16.085937
_cell_angle_alpha  93.020628
_cell_angle_beta   87.843574
_cell_angle_gamma 95.728081
loop_
_atom_site_label
_atom_site_type_symbol
_atom_site_fract_x
_atom_site_fract_y
_atom_site_fract_z
_atom_type_partial_charge
C0 C 0.81981 0.48719 0.34125 0.0
C1 C 0.81494 0.46977 0.41131 0.0
C2 C 0.78913 0.44934 0.41685 0.0
C3 C 0.77038 0.44399 0.34868 0.0
H4 H 0.68985 0.47759 0.14854 0.0
H5 H 0.64436 0.48834 0.08082 0.0
H6 H 0.66214 0.42434 0.87956 0.0
H7 H 0.7074 0.41353 0.9458 0.0
H8 H 0.79227 0.44395 0.90609 0.0
H9 H 0.842 0.44852 0.83827 0.0
H10 H 0.87453 0.39625 0.02706 0.0
H11 H 0.82512 0.39208 0.09596 0.0
H12 H 0.80678 0.49405 0.21782 0.0
H13 H 0.83947 0.50314 0.33597 0.0
H14 H 0.78502 0.43573 0.47065 0.0
H15 H 0.75246 0.42593 0.3504 0.0
N16 N 0.73874 0.4499 0.16679 0.0
N17 N 0.75298 0.42893 0.03533 0.0
N18 N 0.78672 0.43449 0.14285 0.0
C19 C 0.73181 0.44051 0.08681 0.0
C20 C 0.78032 0.42552 0.06355 0.0
C21 C 0.76634 0.44658 0.19475 0.0
C22 C 0.70249 0.44491 0.05233 0.0
C23 C 0.68386 0.46548 0.09052 0.0
C24 C 0.6579 0.47169 0.05192 0.0
C25 C 0.65006 0.45722 0.97503 0.0
C26 C 0.66789 0.43579 0.93871 0.0
C27 C 0.69382 0.42974 0.97674 0.0
C28 C 0.80509 0.41797 0.00666 0.0
C29 C 0.80962 0.43212 0.93061 0.0
C30 C 0.838 0.43484 0.892 0.0
C31 C 0.86179 0.42296 0.92846 0.0
C32 C 0.85633 0.40546 0.99819 0.0
C33 C 0.82814 0.40313 0.03741 0.0
C34 C 0.77699 0.45952 0.27554 0.0
C35 C 0.80096 0.48216 0.27412 0.0
C36 C 0.90855 0.81302 0.3976 0.0
C37 C 0.93149 0.80358 0.44317 0.0
C38 C 0.94375 0.77666 0.41804 0.0
C39 C 0.93657 0.76223 0.34083 0.0
H40 H 0.91665 0.68452 0.1344 0.0
H41 H 0.9278 0.63613 0.0672 0.0
H42 H 0.96935 0.68231 0.85791 0.0
H43 H 0.95805 0.73056 0.9232 0.0
H44 H 0.94033 0.80446 0.90521 0.0
H45 H 0.96185 0.85105 0.84109 0.0
H46 H 0.97852 0.89267 0.08517 0.0
H47 H 0.9564 0.84731 0.14909 0.0
H48 H 0.88623 0.8086 0.28217 0.0
H49 H 0.89869 0.8336 0.41642 0.0
H50 H 0.96147 0.76907 0.45279 0.0
H51 H 0.94912 0.74392 0.31743 0.0
N52 N 0.92396 0.74316 0.15937 0.0
N53 N 0.93778 0.76677 0.03414 0.0
N54 N 0.92688 0.79575 0.15441 0.0
C55 C 0.93178 0.7411 0.07659 0.0
C56 C 0.93545 0.79419 0.07298 0.0
C57 C 0.92092 0.77059 0.19794 0.0
C58 C 0.93657 0.71151 0.03452 0.0
C59 C 0.92795 0.6844 0.07379 0.0
C60 C 0.93423 0.65674 0.03556 0.0
C61 C 0.94949 0.65579 0.95795 0.0
C62 C 0.95755 0.68266 0.91784 0.0
C63 C 0.95103 0.71022 0.95546 0.0
C64 C 0.94648 0.82226 0.03213 0.0
C65 C 0.9483 0.82372 0.94491 0.0
C66 C 0.96057 0.85021 0.90831 0.0
C67 C 0.97185 0.87517 0.95858 0.0
C68 C 0.96989 0.87367 0.04539 0.0
C69 C 0.95709 0.84769 0.08176 0.0
C70 C 0.91716 0.77476 0.28899 0.0
C71 C 0.90141 0.79867 0.3209 0.0
C72 C 0.67305 0.97964 0.36475 0.0
C73 C 0.6757 0.00269 0.42749 0.0
C74 C 0.70035 0.02462 0.42482 0.0
C75 C 0.7198 0.02568 0.35467 0.0
H76 H 0.77802 0.03554 0.93434 0.0
H77 H 0.82671 0.03155 0.86686 0.0
H78 H 0.85604 0.99037 0.08166 0.0
H79 H 0.80695 0.99434 0.15113 0.0
H80 H 0.695 0.01371 0.91705 0.0
H81 H 0.65063 0.02527 0.84511 0.0
H82 H 0.62571 0.08166 0.05724 0.0
H83 H 0.6692 0.06922 0.13049 0.0
H84 H 0.68812 0.96437 0.24363 0.0
H85 H 0.65427 0.96248 0.3658 0.0
H86 H 0.70276 0.04255 0.47288 0.0
H87 H 0.73646 0.04478 0.34908 0.0
N88 N 0.75201 0.01036 0.16907 0.0
N89 N 0.73656 0.02736 0.04281 0.0
N90 N 0.70317 0.02337 0.15704 0.0
C91 C 0.75831 0.01764 0.08827 0.0
C92 C 0.70912 0.03049 0.07729 0.0
C93 C 0.72421 0.01319 0.20303 0.0
C94 C 0.78837 0.01519 0.04852 0.0
C95 C 0.79464 0.02558 0.96788 0.0
C96 C 0.82254 0.02338 0.92889 0.0
C97 C 0.84488 0.01068 0.96922 0.0
C98 C 0.83898 0.00028 0.04968 0.0
C99 C 0.81095 0.00258 0.08918 0.0
C100 C 0.68529 0.04057 0.02906 0.0
C101 C 0.68023 0.0289 0.94755 0.0
C102 C 0.65494 0.03534 0.90678 0.0
C103 C 0.63491 0.05405 0.94651 0.0
C104 C 0.64086 0.06699 0.02615 0.0
C105 C 0.66563 0.05992 0.06765 0.0
C106 C 0.71502 0.00452 0.28761 0.0
C107 C 0.6926 0.98055 0.29538 0.0
C108 C 0.52917 0.65275 0.08814 0.0
C109 C 0.52856 0.65258 0.00112 0.0
C110 C 0.54066 0.67815 0.95964 0.0
C111 C 0.55383 0.70339 0.00498 0.0
H112 H 0.5683 0.79785 0.01441 0.0
H113 H 0.56474 0.84878 0.97181 0.0
H114 H 0.60114 0.88534 0.20378 0.0
H115 H 0.60467 0.83401 0.24839 0.0
H116 H 0.56691 0.7608 0.41202 0.0
H117 H 0.56214 0.72665 0.52715 0.0
H118 H 0.63363 0.67913 0.41685 0.0
H119 H 0.63817 0.71295 0.3016 0.0
H120 H 0.54327 0.67675 0.2002 0.0
H121 H 0.52001 0.63317 0.12106 0.0
H122 H 0.54057 0.67822 0.89231 0.0
H123 H 0.56353 0.7227 0.9718 0.0
N124 N 0.57334 0.75702 0.11482 0.0
N125 N 0.59595 0.77516 0.23982 0.0
N126 N 0.58175 0.72348 0.21595 0.0
C127 C 0.58581 0.78051 0.16363 0.0
C128 C 0.59439 0.74645 0.26505 0.0
C129 C 0.57105 0.72847 0.14108 0.0
C130 C 0.58645 0.8117 0.13544 0.0
C131 C 0.57581 0.81654 0.05663 0.0
C132 C 0.57382 0.84567 0.03185 0.0
C133 C 0.58252 0.87061 0.08489 0.0
C134 C 0.59433 0.8662 0.16223 0.0
C135 C 0.59624 0.83688 0.18747 0.0
C136 C 0.6028 0.73927 0.34824 0.0
C137 C 0.58301 0.74447 0.41567 0.0
C138 C 0.58017 0.72487 0.48127 0.0
C139 C 0.59727 0.7002 0.47948 0.0
C140 C 0.62034 0.69812 0.41921 0.0
C141 C 0.62301 0.71753 0.35356 0.0
C142 C 0.55556 0.70304 0.09205 0.0
C143 C 0.5427 0.67761 0.1331 0.0
C144 C 0.19808 0.57046 0.02087 0.0
C145 C 0.19852 0.54062 0.98938 0.0
C146 C 0.22037 0.52319 0.01631 0.0
C147 C 0.23873 0.53419 0.08206 0.0
H148 H 0.32001 0.53729 0.26292 0.0
H149 H 0.36609 0.5302 0.33364 0.0
H150 H 0.34334 0.5943 0.52984 0.0
H151 H 0.29723 0.60095 0.46111 0.0
H152 H 0.21814 0.56427 0.51009 0.0
H153 H 0.17073 0.55296 0.58777 0.0
H154 H 0.12293 0.58131 0.38336 0.0
H155 H 0.16973 0.59322 0.30632 0.0
H156 H 0.21349 0.6035 0.11448 0.0
H157 H 0.18164 0.58438 0.00051 0.0
H158 H 0.22116 0.50014 0.99224 0.0
H159 H 0.25291 0.51919 0.10851 0.0
N160 N 0.2707 0.56666 0.23805 0.0
N161 N 0.25181 0.57643 0.37468 0.0
N162 N 0.22044 0.57484 0.26229 0.0
C163 C 0.27523 0.5712 0.32163 0.0
C164 C 0.22431 0.5782 0.34519 0.0
C165 C 0.24316 0.56916 0.20839 0.0
C166 C 0.30486 0.56941 0.35692 0.0
C167 C 0.3251 0.55017 0.32046 0.0
C168 C 0.35137 0.54609 0.36077 0.0
C169 C 0.35798 0.5616 0.43724 0.0
C170 C 0.33858 0.58203 0.47117 0.0
C171 C 0.3122 0.5857 0.43187 0.0
C172 C 0.19764 0.57905 0.40134 0.0
C173 C 0.19763 0.56909 0.48294 0.0
C174 C 0.17062 0.56253 0.5273 0.0
C175 C 0.14352 0.56581 0.49018 0.0
C176 C 0.14369 0.57836 0.41229 0.0
C177 C 0.1705 0.58508 0.36841 0.0
C178 C 0.23553 0.56276 0.12046 0.0
C179 C 0.21646 0.58144 0.08568 0.0
C180 C 0.06553 0.22142 0.96459 0.0
C181 C 0.08056 0.19628 0.93825 0.0
C182 C 0.10516 0.18963 0.98205 0.0
C183 C 0.11154 0.20462 0.05846 0.0
H184 H 0.07797 0.31414 0.24379 0.0
H185 H 0.0654 0.36055 0.32056 0.0
H186 H 0.0564 0.31345 0.54857 0.0
H187 H 0.06902 0.2674 0.47393 0.0
H188 H 0.07323 0.19404 0.4743 0.0
H189 H 0.05322 0.1469 0.53783 0.0
H190 H 0.03831 0.10488 0.2934 0.0
H191 H 0.05894 0.15092 0.2299 0.0
H192 H 0.05755 0.25311 0.06604 0.0
H193 H 0.04647 0.22682 0.9313 0.0
H194 H 0.11709 0.17042 0.96237 0.0
H195 H 0.12821 0.19652 0.09615 0.0
N196 N 0.08616 0.25678 0.22342 0.0
N197 N 0.07468 0.2318 0.34774 0.0
N198 N 0.08509 0.20414 0.22488 0.0
C199 C 0.07927 0.25793 0.30685 0.0
C200 C 0.07738 0.20481 0.30691 0.0
C201 C 0.08977 0.22979 0.18285 0.0
C202 C 0.07424 0.28687 0.35241 0.0
C203 C 0.07362 0.31373 0.3104 0.0
C204 C 0.06644 0.34024 0.35393 0.0
C205 C 0.05978 0.34016 0.43983 0.0
C206 C 0.06134 0.31378 0.48214 0.0
C207 C 0.06852 0.28745 0.43908 0.0
C208 C 0.06779 0.17621 0.34711 0.0
C209 C 0.06603 0.17459 0.43431 0.0
C210 C 0.05462 0.14777 0.47063 0.0
C211 C 0.04418 0.12253 0.42017 0.0
C212 C 0.04628 0.12409 0.33335 0.0
C213 C 0.05822 0.15047 0.29721 0.0
C214 C 0.09339 0.22642 0.0917 0.0
C215 C 0.07198 0.23652 0.04142 0.0
C216 C 0.35799 0.01406 0.06688 0.0
C217 C 0.34991 0.99915 0.99109 0.0
C218 C 0.32188 0.9823 0.98567 0.0
C219 C 0.30354 0.97801 0.05751 0.0
H220 H 0.2178 -0.00054 0.25023 0.0
H221 H 0.16801 0.00588 0.31253 0.0
H222 H 0.1881 0.95652 0.52308 0.0
H223 H 0.23733 0.94988 0.46253 0.0
H224 H 0.31571 0.965 0.50473 0.0
H225 H 0.35974 0.95727 0.58348 0.0
H226 H 0.39789 0.91297 0.36612 0.0
H227 H 0.35452 0.92132 0.2867 0.0
H228 H 0.34776 0.01956 0.19728 0.0
H229 H 0.37946 0.02717 0.07231 0.0
H230 H 0.31532 0.9706 0.92753 0.0
H231 H 0.28332 0.96277 0.05387 0.0
N232 N 0.27193 0.98104 0.24081 0.0
N233 N 0.28191 0.95854 0.36483 0.0
N234 N 0.31931 0.96565 0.26153 0.0
C235 C 0.26246 0.97094 0.31717 0.0
C236 C 0.31017 0.95549 0.33676 0.0
C237 C 0.30059 0.97844 0.21338 0.0
C238 C 0.23175 0.97423 0.35123 0.0
C239 C 0.21158 0.98985 0.30956 0.0
C240 C 0.18317 0.99358 0.345 0.0
C241 C 0.17456 0.98171 0.42239 0.0
C242 C 0.19442 0.96588 0.46343 0.0
C243 C 0.22263 0.96215 0.42838 0.0
C244 C 0.33205 0.94408 0.38957 0.0
C245 C 0.33304 0.95269 0.47478 0.0
C246 C 0.35808 0.94829 0.51975 0.0
C247 C 0.38193 0.93468 0.48016 0.0
C248 C 0.37957 0.92341 0.39746 0.0
C249 C 0.35492 0.92833 0.35221 0.0
C250 C 0.31313 0.99067 0.13487 0.0
C251 C 0.33982 0.00978 0.13812 0.0
C252 C 0.49931 0.37029 0.32599 0.0
C253 C 0.49609 0.36811 0.4123 0.0
C254 C 0.48598 0.34031 0.4455 0.0
C255 C 0.47831 0.31507 0.39221 0.0
H256 H 0.42171 0.22086 0.35276 0.0
H257 H 0.42347 0.17237 0.41667 0.0
H258 H 0.48185 0.14394 0.21536 0.0
H259 H 0.47866 0.1917 0.14894 0.0
H260 H 0.4086 0.26444 0.01908 0.0
H261 H 0.39662 0.29695 0.90852 0.0
H262 H 0.48733 0.33802 0.90419 0.0
H263 H 0.49934 0.30564 0.01306 0.0
H264 H 0.49408 0.34806 0.20653 0.0
H265 H 0.50708 0.39162 0.29953 0.0
H266 H 0.48344 0.33834 0.51223 0.0
H267 H 0.46991 0.294 0.419 0.0
N268 N 0.46347 0.26365 0.27325 0.0
N269 N 0.4519 0.2462 0.13597 0.0
N270 N 0.46816 0.29706 0.16567 0.0
C271 C 0.45438 0.24071 0.21788 0.0
C272 C 0.45881 0.27462 0.11013 0.0
C273 C 0.47055 0.29197 0.24709 0.0
C274 C 0.45009 0.2098 0.24632 0.0
C275 C 0.43398 0.20374 0.32086 0.0
C276 C 0.43495 0.17614 0.35719 0.0
C277 C 0.45305 0.15476 0.32114 0.0
C278 C 0.46769 0.16011 0.24395 0.0
C279 C 0.46586 0.18732 0.20614 0.0
C280 C 0.45481 0.28283 0.02447 0.0
C281 C 0.4263 0.27916 0.99086 0.0
C282 C 0.41939 0.29785 0.92838 0.0
C283 C 0.441 0.32026 0.90013 0.0
C284 C 0.47037 0.32104 0.92601 0.0
C285 C 0.47723 0.30244 0.98781 0.0
C286 C 0.48058 0.3175 0.30524 0.0
C287 C 0.49169 0.3453 0.27301 0.0
Tb288 Tb 0.99695 0.96667 0.65719 0.0
C289 C 0.06113 0.9921 0.59946 0.0
Tb290 Tb 0.02125 0.03049 0.72392 0.0
O291 O 0.99629 0.98362 0.53166 0.0
O292 O 0.99073 0.01181 0.63532 0.0
O293 O 0.04349 0.96724 0.61538 0.0
C294 C 0.04154 0.08832 0.75107 0.0
O295 O 0.05468 0.0195 0.62697 0.0
C296 C 0.0246 0.98583 0.8237 0.0
C297 C 0.95728 0.00466 0.7829 0.0
O298 O 0.05247 0.06548 0.78088 0.0
O299 O 0.01893 0.07861 0.7062 0.0
O300 O 0.02199 0.01351 0.84946 0.0
O301 O 0.02743 0.98543 0.74575 0.0
O302 O 0.97469 0.02963 0.76647 0.0
O303 O 0.96389 0.97737 0.75519 0.0
C304 C 0.97617 0.90903 0.63016 0.0
O305 O 0.9649 0.93201 0.60228 0.0
O306 O 0.99933 0.91846 0.67321 0.0
C307 C 0.99365 0.0113 0.55736 0.0
Tb308 Tb 0.50106 0.02562 0.6366 0.0
C309 C 0.56638 0.0076 0.62608 0.0
Tb310 Tb 0.52186 0.98627 0.77041 0.0
O311 O 0.52933 0.06494 0.68572 0.0
O312 O 0.51342 0.03175 0.76249 0.0
O313 O 0.54311 0.01236 0.58198 0.0
C314 C 0.54677 0.96181 0.89463 0.0
O315 O 0.56369 0.00215 0.7064 0.0
C316 C 0.49182 0.95567 0.6499 0.0
C317 C 0.45514 0.001 0.77652 0.0
O318 O 0.5498 0.95384 0.81637 0.0
O319 O 0.53013 0.9839 0.90299 0.0
O320 O 0.49383 0.94653 0.72449 0.0
O321 O 0.5088 0.97979 0.64481 0.0
O322 O 0.47766 0.99426 0.82084 0.0
O323 O 0.45863 0.00937 0.69822 0.0
C324 C 0.47926 0.0555 0.51549 0.0
O325 O 0.467 0.05142 0.58878 0.0
O326 O 0.50326 0.04174 0.50963 0.0
C327 C 0.53071 0.05554 0.75972 0.0
Tb328 Tb 0.52695 0.53589 0.67072 0.0
C329 C 0.45773 0.53211 0.6263 0.0
Tb330 Tb 0.48186 0.48729 0.74591 0.0
O331 O 0.54471 0.5018 0.58316 0.0
O332 O 0.50084 0.4969 0.6283 0.0
O333 O 0.48382 0.54897 0.63081 0.0
C334 C 0.45078 0.43399 0.77102 0.0
O335 O 0.45316 0.50521 0.65885 0.0
C336 C 0.48873 0.53987 0.82798 0.0
C337 C 0.55069 0.49143 0.79197 0.0
O338 O 0.4495 0.45843 0.81826 0.0
O339 O 0.47091 0.43949 0.7127 0.0
O340 O 0.46416 0.52195 0.83251 0.0
O341 O 0.50805 0.52629 0.78804 0.0
O342 O 0.5252 0.47376 0.78298 0.0
O343 O 0.55442 0.51916 0.76382 0.0
C344 C 0.55473 0.58912 0.63255 0.0
O345 O 0.5626 0.56305 0.60525 0.0
O346 O 0.5313 0.58518 0.68141 0.0
C347 C 0.52033 0.4837 0.58765 0.0
Tb348 Tb 0.97607 0.49176 0.66352 0.0
C349 C 0.02046 0.44068 0.64222 0.0
Tb350 Tb 0.03168 0.49663 0.77537 0.0
O351 O 0.0046 0.50489 0.55487 0.0
O352 O 0.01683 0.51885 0.67535 0.0
O353 O 0.99442 0.44979 0.62296 0.0
C354 C 0.08765 0.5054 0.82761 0.0
O355 O 0.03899 0.45714 0.69305 0.0
C356 C 0.98229 0.46939 0.83844 0.0
C357 C 0.98692 0.54546 0.79898 0.0
O358 O 0.06365 0.50431 0.87508 0.0
O359 O 0.08013 0.50104 0.75043 0.0
O360 O 0.00387 0.48158 0.88423 0.0
O361 O 0.99104 0.46964 0.76373 0.0
O362 O 0.01561 0.54089 0.79772 0.0
O363 O 0.96667 0.52622 0.761 0.0
C364 C 0.92104 0.48389 0.60496 0.0
O365 O 0.93246 0.46557 0.65207 0.0
O366 O 0.94052 0.50668 0.59107 0.0
C367 C 0.02579 0.51798 0.60067 0.0
C368 C 0.11934 0.967 0.43714 0.0
C369 C 0.1449 0.98587 0.46242 0.0
C370 C 0.1165 0.00549 0.58249 0.0
C371 C 0.08997 0.98924 0.55248 0.0
N372 N 0.06562 0.95748 0.44306 0.0
N373 N 0.16664 0.02727 0.54948 0.0
C374 C 0.09122 0.97074 0.47757 0.0
C375 C 0.14303 0.00652 0.53192 0.0
N376 N 0.12209 0.94476 0.37633 0.0
N377 N 0.11704 0.01816 0.66179 0.0
H378 H 0.18652 0.02859 0.5139 0.0
H379 H 0.16542 0.0449 0.59422 0.0
H380 H 0.09889 0.01588 0.70383 0.0
H381 H 0.13651 0.02777 0.68934 0.0
H382 H 0.10511 0.92784 0.36247 0.0
H383 H 0.14213 0.94174 0.34391 0.0
H384 H 0.06505 0.94691 0.38378 0.0
H385 H 0.04448 0.9592 0.46972 0.0
C386 C 0.47499 0.13511 0.446 0.0
C387 C 0.46012 0.12909 0.36975 0.0
C388 C 0.4644 0.0752 0.38071 0.0
C389 C 0.47393 0.0808 0.46352 0.0
N390 N 0.48768 0.11668 0.57719 0.0
N391 N 0.43679 0.0928 0.26979 0.0
C392 C 0.47877 0.11092 0.49714 0.0
C393 C 0.45369 0.09892 0.33846 0.0
N394 N 0.4873 0.16365 0.46712 0.0
N395 N 0.46674 0.04773 0.34104 0.0
H396 H 0.42808 0.10959 0.23817 0.0
H397 H 0.42915 0.07094 0.24925 0.0
H398 H 0.47694 0.03088 0.36797 0.0
H399 H 0.46218 0.04317 0.27837 0.0
H400 H 0.50109 0.16871 0.51751 0.0
H401 H 0.48662 0.18184 0.42935 0.0
H402 H 0.48745 0.13781 0.60795 0.0
H403 H 0.49397 0.10023 0.61462 0.0
C404 C 0.41354 0.56322 0.45596 0.0
C405 C 0.38398 0.55496 0.48544 0.0
C406 C 0.40337 0.53829 0.61369 0.0
C407 C 0.43294 0.5424 0.57942 0.0
N408 N 0.46534 0.55385 0.45898 0.0
N409 N 0.35095 0.52878 0.58524 0.0
C410 C 0.43792 0.55372 0.49826 0.0
C411 C 0.37894 0.54084 0.56234 0.0
N412 N 0.41843 0.58068 0.38857 0.0
N413 N 0.39849 0.53301 0.69625 0.0
H414 H 0.33246 0.52938 0.5485 0.0
H415 H 0.34666 0.51547 0.63649 0.0
H416 H 0.41567 0.53211 0.73729 0.0
H417 H 0.37753 0.53288 0.72589 0.0
H418 H 0.43954 0.59012 0.36985 0.0
H419 H 0.40116 0.58807 0.3561 0.0
H420 H 0.46913 0.55879 0.39667 0.0
H421 H 0.48376 0.54618 0.4851 0.0
C422 C 0.01928 0.37123 0.49325 0.0
C423 C 0.05002 0.36705 0.48722 0.0
C424 C 0.05997 0.40481 0.60121 0.0
C425 C 0.02978 0.41176 0.60101 0.0
N426 N 0.9792 0.39057 0.577 0.0
N427 N 0.10049 0.38278 0.52502 0.0
C428 C 0.00887 0.39205 0.55489 0.0
C429 C 0.07061 0.38484 0.53787 0.0
N430 N 1.00004 0.35546 0.43937 0.0
N431 N 0.07744 0.41385 0.66728 0.0
H432 H 0.109 0.36813 0.47952 0.0
H433 H 0.11676 0.39766 0.55359 0.0
H434 H 0.0688 0.42201 0.72398 0.0
H435 H 0.09905 0.40796 0.67234 0.0
H436 H 0.97806 0.36015 0.43361 0.0
H437 H 0.0067 0.33937 0.39503 0.0
H438 H 0.96306 0.37508 0.55036 0.0
H439 H 0.97121 0.40154 0.63072 0.0
C440 C 0.87635 0.98763 0.85607 0.0
C441 C 0.87429 0.00826 0.92555 0.0
C442 C 0.92736 0.02563 0.90598 0.0
C443 C 0.92862 0.00708 0.8312 0.0
N444 N 0.90138 0.97716 0.72398 0.0
N445 N 0.89623 0.05085 0.0081 0.0
C446 C 0.90232 0.98983 0.80324 0.0
C447 C 0.89935 0.02839 0.94817 0.0
N448 N 0.85358 0.96566 0.8409 0.0
N449 N 0.95285 0.0398 0.93894 0.0
H450 H 0.87622 0.05341 0.04116 0.0
H451 H 0.91273 0.06843 0.02015 0.0
H452 H 0.97395 0.03856 0.91147 0.0
H453 H 0.95348 0.05056 0.99798 0.0
H454 H 0.85521 0.94811 0.79609 0.0
H455 H 0.83419 0.96328 0.87848 0.0
H456 H 0.88191 0.96673 0.69815 0.0
H457 H 0.91899 0.98029 0.68042 0.0
C458 C 0.59779 0.91667 0.005 0.0
C459 C 0.57702 0.90091 0.05926 0.0
C460 C 0.53771 0.93111 0.02131 0.0
C461 C 0.55798 0.94553 0.96272 0.0
N462 N 0.60871 0.95939 0.91735 0.0
N463 N 0.53084 0.89916 0.13945 0.0
C464 C 0.5886 0.94074 0.96091 0.0
C465 C 0.54825 0.91047 0.07478 0.0
N466 N 0.62575 0.90761 0.99291 0.0
N467 N 0.50802 0.93505 0.02139 0.0
H468 H 0.53795 0.88361 0.17866 0.0
H469 H 0.51076 0.90729 0.15918 0.0
H470 H 0.49905 0.94987 0.98369 0.0
H471 H 0.49175 0.92211 0.05508 0.0
H472 H 0.64088 0.91572 0.94697 0.0
H473 H 0.63336 0.8909 0.02737 0.0
H474 H 0.6317 0.95877 0.91888 0.0
H475 H 0.6024 0.97749 0.8858 0.0
C476 C 0.62961 0.48236 0.85663 0.0
C477 C 0.62427 0.46573 0.92925 0.0
C478 C 0.57033 0.46668 0.91536 0.0
C479 C 0.57562 0.48082 0.83787 0.0
N480 N 0.61077 0.49486 0.72568 0.0
N481 N 0.58971 0.43696 0.01924 0.0
C482 C 0.60541 0.48661 0.80595 0.0
C483 C 0.59466 0.45635 0.95606 0.0
N484 N 0.65776 0.49487 0.83701 0.0
N485 N 0.54256 0.46444 0.95292 0.0
H486 H 0.60694 0.42919 0.05108 0.0
H487 H 0.56869 0.42654 0.03508 0.0
H488 H 0.52392 0.4719 0.92749 0.0
H489 H 0.53846 0.45767 0.01362 0.0
H490 H 0.66236 0.51 0.78995 0.0
H491 H 0.67613 0.4925 0.87278 0.0
H492 H 0.63191 0.4962 0.69686 0.0
H493 H 0.59392 0.49714 0.6846 0.0
C494 C 0.94544 0.61508 0.84404 0.0
C495 C 0.95824 0.62686 0.91947 0.0
C496 C 0.98771 0.58365 0.92081 0.0
C497 C 0.97742 0.57366 0.84044 0.0
N498 N 0.95262 0.58517 0.71675 0.0
N499 N 0.99625 0.62581 0.02074 0.0
C500 C 0.95787 0.59076 0.79956 0.0
C501 C 0.98071 0.61212 0.95544 0.0
N502 N 0.92113 0.62682 0.81537 0.0
N503 N 0.00323 0.56567 0.96588 0.0
H504 H 0.9921 0.64683 0.04759 0.0
H505 H 0.01514 0.61765 0.04309 0.0
H506 H 0.00883 0.54449 0.94447 0.0
H507 H 0.00811 0.57056 0.02822 0.0
H508 H 0.90911 0.61705 0.76511 0.0
H509 H 0.91125 0.64453 0.84673 0.0
H510 H 0.9407 0.59882 0.68256 0.0
H511 H 0.96312 0.56924 0.67964 0.0
C512 C 0.04339 0.06705 0.43656 0.0
C513 C 0.03043 0.09426 0.45648 0.0
C514 C 0.98968 0.06603 0.53339 0.0
C515 C 0.00222 0.03874 0.50951 0.0
N516 N 0.0327 0.01388 0.40549 0.0
N517 N 0.98746 0.11882 0.50752 0.0
C518 C 0.02656 0.03927 0.45109 0.0
C519 C 0.00247 0.09361 0.50056 0.0
N520 N 0.07196 0.06763 0.40482 0.0
N521 N 0.96525 0.06552 0.58639 0.0
H522 H 0.99573 0.13926 0.48288 0.0
H523 H 0.96569 0.11889 0.53143 0.0
H524 H 0.95298 0.04552 0.60297 0.0
H525 H 0.95768 0.08485 0.61555 0.0
H526 H 0.08317 0.04828 0.39669 0.0
H527 H 0.08537 0.08768 0.39533 0.0
H528 H 0.04948 0.01388 0.35911 0.0
H529 H 0.01806 0.99432 0.4037 0.0
C530 C 0.43366 0.95959 0.49151 0.0
C531 C 0.41139 0.93724 0.51889 0.0
C532 C 0.44658 0.91975 0.61354 0.0
C533 C 0.4674 0.94448 0.59262 0.0
N534 N 0.4864 0.97501 0.48039 0.0
N535 N 0.39571 0.89604 0.60627 0.0
C536 C 0.4627 0.96073 0.52231 0.0
C537 C 0.41764 0.91707 0.57963 0.0
N538 N 0.42674 0.98087 0.43937 0.0
N539 N 0.45536 0.89768 0.66011 0.0
H540 H 0.37471 0.89289 0.58025 0.0
H541 H 0.39758 0.88298 0.65719 0.0
H542 H 0.4775 0.8971 0.67599 0.0
H543 H 0.442 0.87806 0.67373 0.0
H544 H 0.4412 -0.00012 0.42747 0.0
H545 H 0.40568 0.98135 0.41513 0.0
H546 H 0.48447 0.98456 0.42339 0.0
H547 H 0.50833 0.97293 0.49572 0.0
C548 C 0.52856 0.40276 0.50715 0.0
C549 C 0.50128 0.39597 0.46608 0.0
C550 C 0.48848 0.44739 0.49668 0.0
C551 C 0.5146 0.45371 0.54371 0.0
N552 N 0.55652 0.43541 0.60751 0.0
N553 N 0.45217 0.40916 0.43866 0.0
C554 C 0.53389 0.43085 0.55282 0.0
C555 C 0.48021 0.41745 0.4666 0.0
N556 N 0.54972 0.38279 0.50049 0.0
N557 N 0.47258 0.47026 0.47586 0.0
H558 H 0.44531 0.38727 0.41636 0.0
H559 H 0.43493 0.42309 0.4456 0.0
H560 H 0.47919 0.49284 0.49089 0.0
H561 H 0.45495 0.46724 0.43526 0.0
H562 H 0.57138 0.38797 0.52075 0.0
H563 H 0.54623 0.36167 0.46948 0.0
H564 H 0.56921 0.41844 0.62347 0.0
H565 H 0.56094 0.45548 0.64267 0.0
C566 C 0.10492 0.52231 0.50803 0.0
C567 C 0.11466 0.55306 0.52684 0.0
C568 C 0.06624 0.56079 0.5948 0.0
C569 C 0.05583 0.53045 0.57123 0.0
N570 N 0.06382 0.48325 0.4967 0.0
N571 N 0.10542 0.6022 0.58438 0.0
C572 C 0.07475 0.51146 0.52539 0.0
C573 C 0.09559 0.57243 0.56987 0.0
N574 N 0.12475 0.50335 0.47439 0.0
N575 N 0.04781 0.57863 0.63973 0.0
H576 H 0.12729 0.61095 0.57086 0.0
H577 H 0.09192 0.61861 0.60682 0.0
H578 H 0.02508 0.57257 0.6495 0.0
H579 H 0.05494 0.5993 0.66894 0.0
H580 H 0.12032 0.48 0.46909 0.0
H581 H 0.14672 0.51058 0.45733 0.0
H582 H 0.07532 0.46974 0.45469 0.0
H583 H 0.04224 0.4738 0.50953 0.0
C584 C 0.97377 0.93071 0.94288 0.0
C585 C 0.98611 0.90321 0.92229 0.0
C586 C 0.02754 0.93087 0.84661 0.0
C587 C 0.01557 0.9584 0.87112 0.0
N588 N 0.98563 0.98361 0.97576 0.0
N589 N 0.02841 0.87773 0.87056 0.0
C590 C 0.99122 0.95821 0.92939 0.0
C591 C 0.01407 0.90337 0.8784 0.0
N592 N 0.9452 0.93068 0.97435 0.0
N593 N 0.05206 0.93108 0.79397 0.0
H594 H 0.01957 0.8573 0.89416 0.0
H595 H 0.05016 0.87721 0.84679 0.0
H596 H 0.06472 0.95095 0.77809 0.0
H597 H 0.05931 0.91167 0.76443 0.0
H598 H 0.93446 0.95031 0.98299 0.0
H599 H 0.93134 0.91085 0.9831 0.0
H600 H 0.96884 0.98378 0.02211 0.0
H601 H 1.00063 0.0029 0.97802 0.0
C602 C 0.6086 0.07742 0.83563 0.0
C603 C 0.60712 0.05937 0.90583 0.0
C604 C 0.55272 0.05228 0.89838 0.0
C605 C 0.55504 0.06451 0.81889 0.0
N606 N 0.58402 0.10042 0.73134 0.0
N607 N 0.57771 0.02881 0.00464 0.0
C608 C 0.58235 0.08058 0.79309 0.0
C609 C 0.57908 0.047 0.9385 0.0
N610 N 0.63511 0.09203 0.80938 0.0
N611 N 0.52527 0.04693 0.93653 0.0
H612 H 0.59656 0.02326 0.03371 0.0
H613 H 0.55805 0.01723 0.02674 0.0
H614 H 0.50589 0.0523 0.90953 0.0
H615 H 0.52209 0.0405 0.99778 0.0
H616 H 0.63706 0.105 0.75693 0.0
H617 H 0.65494 0.09148 0.84044 0.0
H618 H 0.56557 0.10723 0.70285 0.0
H619 H 0.56557 0.10723 0.70285 0.0
C620 C 0.53453 0.59909 0.95653 0.0
C621 C 0.51783 0.62426 0.95428 0.0
C622 C 0.48079 0.59403 0.86879 0.0
C623 C 0.49613 0.56823 0.87843 0.0
N624 N 0.53276 0.54484 0.95145 0.0
N625 N 0.47268 0.64488 0.91952 0.0
C626 C 0.52164 0.57039 0.92809 0.0
C627 C 0.49021 0.62154 0.9136 0.0
N628 N 0.56307 0.60269 0.98392 0.0
N629 N 0.4581 0.59266 0.81442 0.0
H630 H 0.47904 0.6654 0.95112 0.0
H631 H 0.45096 0.64309 0.89865 0.0
H632 H 0.45051 0.57286 0.78134 0.0
H633 H 0.44832 0.61155 0.79765 0.0
H634 H 0.57721 0.58553 0.9788 0.0
H635 H 0.57364 0.62357 0.00375 0.0
H636 H 0.54983 0.54501 0.9934 0.0
H637 H 0.52236 0.52341 0.93695 0.0
C638 C 0.90529 0.46166 0.94614 0.0
C639 C 0.89286 0.43438 0.90625 0.0
C640 C 0.94096 0.42747 0.83633 0.0
C641 C 0.95235 0.45653 0.86782 0.0
N642 N 0.94419 0.5029 0.9462 0.0
N643 N 0.89727 0.39281 0.80655 0.0
C644 C 0.93431 0.47398 0.92158 0.0
C645 C 0.91024 0.4177 0.84923 0.0
N646 N 0.88956 0.47557 0.00885 0.0
N647 N 0.95986 0.40854 0.79808 0.0
H648 H 0.87494 0.38474 0.81607 0.0
H649 H 0.90797 0.38164 0.75735 0.0
H650 H 0.98278 0.41433 0.79116 0.0
H651 H 0.95344 0.38605 0.78109 0.0
H652 H 0.89889 0.49323 0.04742 0.0
H653 H 0.86774 0.46811 0.02703 0.0
H654 H 0.93053 0.51811 0.97509 0.0
H655 H 0.96558 0.51256 0.93265 0.0
C656 C 0.07904 0.16711 0.79998 0.0
C657 C 0.06638 0.17235 0.88087 0.0
C658 C 0.03134 0.12709 0.86153 0.0
C659 C 0.04717 0.11934 0.78718 0.0
N660 N 0.08553 0.13123 0.68289 0.0
N661 N 0.03265 0.15543 0.99349 0.0
C662 C 0.0707 0.13933 0.75496 0.0
C663 C 0.04275 0.15212 0.91252 0.0
N664 N 0.09897 0.18872 0.76685 0.0
N665 N 0.00551 0.11027 0.88395 0.0
H666 H 0.04027 0.17319 0.03429 0.0
H667 H 0.01837 0.13916 0.02284 0.0
H668 H 0.99672 0.09133 0.84898 0.0
H669 H 0.9913 0.11668 0.9328 0.0
H670 H 0.10738 0.18756 0.70576 0.0
H671 H 0.10532 0.20913 0.7991 0.0
H672 H 0.10486 0.14315 0.66 0.0
H673 H 0.07893 0.11165 0.64717 0.0
C674 C 0.38849 0.97175 0.90968 0.0
C675 C 0.373 0.99789 0.92261 0.0
C676 C 0.41 0.02586 0.83254 0.0
C677 C 0.42497 -0.00059 0.81789 0.0
N678 N 0.42358 0.94545 0.82336 0.0
N679 N 0.36483 0.04749 0.88243 0.0
C680 C 0.4126 0.9718 0.85038 0.0
C681 C 0.38239 0.02418 0.87905 0.0
N682 N 0.38145 0.94743 0.95751 0.0
N683 N 0.42299 0.05295 0.80674 0.0
H684 H 0.34458 0.04676 0.91624 0.0
H685 H 0.36891 0.06615 0.84595 0.0
H686 H 0.4433 0.05531 0.77342 0.0
H687 H 0.41482 0.07349 0.82381 0.0
H688 H 0.39443 0.9294 0.95783 0.0
H689 H 0.36405 0.9462 0.00207 0.0
H690 H 0.41352 0.92426 0.83799 0.0
H691 H 0.44089 0.94473 0.77901 0.0
C692 C 0.44146 0.34938 0.77106 0.0
C693 C 0.43268 0.34637 0.85603 0.0
C694 C 0.42073 0.39882 0.86616 0.0
C695 C 0.43631 0.40343 0.78944 0.0
N696 N 0.4464 0.38156 0.65287 0.0
N697 N 0.41292 0.36793 0.98535 0.0
C698 C 0.44202 0.37814 0.73641 0.0
C699 C 0.42118 0.37076 0.90327 0.0
N700 N 0.45068 0.32512 0.72544 0.0
N701 N 0.40454 0.42073 0.90145 0.0
H702 H 0.41246 0.34776 0.01536 0.0
H703 H 0.40825 0.38613 0.02527 0.0
H704 H 0.40151 0.44014 0.87068 0.0
H705 H 0.39086 0.41783 0.9546 0.0
H706 H 0.4607 0.32639 0.66622 0.0
H707 H 0.44904 0.30358 0.74864 0.0
H708 H 0.44889 0.36383 0.60941 0.0
H709 H 0.44375 0.40186 0.62597 0.0
C710 C 0.1687 0.53768 0.85945 0.0
C711 C 0.17302 0.52693 0.93911 0.0
C712 C 0.12542 0.49538 0.92977 0.0
C713 C 0.11854 0.51045 0.8586 0.0
N714 N 0.13305 0.54848 0.75891 0.0
N715 N 0.15284 0.49864 0.05633 0.0
C716 C 0.14019 0.53197 0.82321 0.0
C717 C 0.15082 0.50634 0.97572 0.0
N718 N 0.19188 0.55341 0.81869 0.0
N719 N 0.10801 0.47011 0.95263 0.0
H720 H 0.17049 0.50662 0.09399 0.0
H721 H 0.1355 0.4865 0.08847 0.0
H722 H 0.08992 0.46064 0.91833 0.0
H723 H 0.1136 0.45666 0.99957 0.0
H724 H 0.19104 0.55942 0.75717 0.0
H725 H 0.21295 0.55784 0.84396 0.0
H726 H 0.14683 0.56674 0.7372 0.0
H727 H 0.11234 0.54579 0.7316 0.0
C728 C 0.97294 0.84391 0.47293 0.0
C729 C 0.94716 0.82596 0.50214 0.0
C730 C 0.94379 0.85994 0.62635 0.0
C731 C 0.9692 0.87789 0.59607 0.0
N732 N 0.01274 0.88294 0.50431 0.0
N733 N 0.91178 0.81276 0.61292 0.0
C734 C 0.98549 0.86832 0.52431 0.0
C735 C 0.93386 0.8326 0.58139 0.0
N736 N 0.98408 0.83923 0.39346 0.0
N737 N 0.92876 0.8696 0.6965 0.0
H738 H 0.90432 0.79266 0.58067 0.0
H739 H 0.90256 0.81489 0.67295 0.0
H740 H 0.93648 0.88875 0.73249 0.0
H741 H 0.90829 0.85939 0.71758 0.0
H742 H 1.00017 0.85411 0.36524 0.0
H743 H 0.97575 0.82182 0.35253 0.0
H744 H 0.02708 0.87498 0.45781 0.0
H745 H 0.02236 0.90152 0.53909 0.0
C746 C 0.64215 0.98414 0.54644 0.0
C747 C 0.65005 0.0062 0.48716 0.0
C748 C 0.60663 0.03238 0.53369 0.0
C749 C 0.5962 0.00784 0.58312 0.0
N750 N 0.60209 0.95764 0.62595 0.0
N751 N 0.63647 0.0485 0.41349 0.0
C752 C 0.61356 0.98307 0.58754 0.0
C753 C 0.63151 0.02971 0.4781 0.0
N754 N 0.662 0.96427 0.56352 0.0
N755 N 0.59326 0.05859 0.54112 0.0
H756 H 0.65384 0.04705 0.36935 0.0
H757 H 0.62157 0.06371 0.39896 0.0
H758 H 0.57541 0.06174 0.58258 0.0
H759 H 0.6019 0.07821 0.51279 0.0
H760 H 0.65868 0.94957 0.61196 0.0
H761 H 0.68309 0.96457 0.53433 0.0
H762 H 0.61262 0.93785 0.62353 0.0
H763 H 0.58071 0.95509 0.65307 0.0
C764 C 0.59267 0.66835 0.60529 0.0
C765 C 0.5855 0.67257 0.52196 0.0
C766 C 0.55864 0.62202 0.51142 0.0
C767 C 0.56513 0.61803 0.59553 0.0
N768 N 0.58365 0.63846 0.72747 0.0
N769 N 0.55693 0.65637 0.40057 0.0
C770 C 0.58067 0.6416 0.64417 0.0
C771 C 0.56715 0.65021 0.47637 0.0
N772 N 0.61157 0.68955 0.64611 0.0
N773 N 0.54426 0.59882 0.46478 0.0
H774 H 0.5628 0.67654 0.37151 0.0
H775 H 0.54063 0.64259 0.36888 0.0
H776 H 0.53491 0.57877 0.48945 0.0
H777 H 0.54277 0.59871 0.40034 0.0
H778 H 0.62025 0.68658 0.70381 0.0
H779 H 0.62009 0.70961 0.61965 0.0
H780 H 0.59193 0.65589 0.76835 0.0
H781 H 0.57596 0.6188 0.75716 0.0
C782 C 0.85993 0.44845 0.46297 0.0
C783 C 0.83921 0.47053 0.4721 0.0
C784 C 0.86968 0.49802 0.58046 0.0
C785 C 0.89194 0.47794 0.56409 0.0
N786 N 0.90999 0.43566 0.48479 0.0
N787 N 0.82417 0.51673 0.53685 0.0
C788 C 0.88734 0.45328 0.50504 0.0
C789 C 0.84395 0.49535 0.53063 0.0
N790 N 0.8536 0.42301 0.41305 0.0
N791 N 0.87288 0.51913 0.6451 0.0
H792 H 0.80431 0.51451 0.50482 0.0
H793 H 0.82794 0.53724 0.57047 0.0
H794 H 0.8914 0.52154 0.68276 0.0
H795 H 0.85632 0.53265 0.66587 0.0
H796 H 0.86584 0.40439 0.41189 0.0
H797 H 0.83481 0.41935 0.37676 0.0
H798 H 0.90955 0.41977 0.435 0.0
H799 H 0.93048 0.43836 0.51353 0.0
loop_
_geom_bond_atom_site_label_1
_geom_bond_atom_site_label_2
_geom_bond_distance
_geom_bond_site_symmetry_2
_ccdc_geom_bond_type
C0 C1 1.384 . S
C0 H13 0.947 . S
C0 C35 1.382 . S
C1 C0 1.384 . S
C1 C2 1.378 . S
C2 C1 1.378 . S
C2 C3 1.378 . S
C2 H14 0.952 . S
C3 C2 1.378 . S
C3 H15 0.950 . S
C3 C34 1.383 . S
H4 C23 0.947 . S
H5 C24 0.946 . S
H6 C26 0.953 . S
H7 C27 0.945 . S
H8 C29 0.952 . S
H9 C30 0.949 . S
H10 C32 0.950 . S
H11 C33 0.948 1_554 S
H12 C35 0.951 . S
H13 C0 0.947 . S
H14 C2 0.952 . S
H15 C3 0.950 . S
N16 C19 1.382 . S
N16 C21 1.363 . S
N17 C19 1.371 1_556 S
N17 C20 1.372 . S
N18 C20 1.361 1_554 S
N18 C21 1.377 . S
C19 N16 1.382 . S
C19 N17 1.371 1_554 S
C19 C22 1.480 . S
C20 N17 1.372 . S
C20 N18 1.361 1_556 S
C20 C28 1.457 . S
C21 N16 1.363 . S
C21 N18 1.377 . S
C21 C34 1.479 . S
C22 C19 1.480 . S
C22 C23 1.383 . S
C22 C27 1.385 1_554 S
C23 H4 0.947 . S
C23 C22 1.383 . S
C23 C24 1.388 . S
C24 H5 0.946 . S
C24 C23 1.388 . S
C24 C25 1.384 1_554 S
C25 C24 1.384 1_556 S
C25 C26 1.377 . S
C26 H6 0.953 . S
C26 C25 1.377 . S
C26 C27 1.369 . S
C27 H7 0.945 . S
C27 C22 1.385 1_556 S
C27 C26 1.369 . S
C28 C20 1.457 . S
C28 C29 1.372 . S
C28 C33 1.364 . S
C29 H8 0.952 . S
C29 C28 1.372 . S
C29 C30 1.389 . S
C30 H9 0.949 . S
C30 C29 1.389 . S
C30 C31 1.387 . S
C31 C30 1.387 . S
C31 C32 1.372 . S
C32 H10 0.950 . S
C32 C31 1.372 . S
C32 C33 1.379 . S
C33 H11 0.948 1_556 S
C33 C28 1.364 . S
C33 C32 1.379 . S
C34 C3 1.383 . S
C34 C21 1.479 . S
C34 C35 1.398 . S
C35 C0 1.382 . S
C35 H12 0.951 . S
C35 C34 1.398 . S
C36 C37 1.384 . S
C36 H49 0.947 . S
C36 C71 1.382 . S
C37 C36 1.384 . S
C37 C38 1.378 . S
C38 C37 1.378 . S
C38 C39 1.378 . S
C38 H50 0.952 . S
C39 C38 1.378 . S
C39 H51 0.950 . S
C39 C70 1.383 . S
H40 C59 0.947 . S
H41 C60 0.946 . S
H42 C62 0.953 . S
H43 C63 0.945 . S
H44 C65 0.952 . S
H45 C66 0.949 . S
H46 C68 0.950 . S
H47 C69 0.948 . S
H48 C71 0.951 . S
H49 C36 0.947 . S
H50 C38 0.952 . S
H51 C39 0.950 . S
N52 C55 1.387 . S
N52 C57 1.363 . S
N53 C55 1.367 1_556 S
N53 C56 1.372 . S
N54 C56 1.361 1_554 S
N54 C57 1.377 . S
C55 N52 1.387 . S
C55 N53 1.367 1_554 S
C55 C58 1.479 1_554 S
C56 N53 1.372 . S
C56 N54 1.361 1_556 S
C56 C64 1.457 . S
C57 N52 1.363 . S
C57 N54 1.377 . S
C57 C70 1.479 . S
C58 C55 1.479 1_556 S
C58 C59 1.383 1_556 S
C58 C63 1.385 . S
C59 H40 0.947 . S
C59 C58 1.383 1_554 S
C59 C60 1.388 . S
C60 H41 0.946 . S
C60 C59 1.388 . S
C60 C61 1.384 1_554 S
C61 C60 1.384 1_556 S
C61 C62 1.377 . S
C62 H42 0.953 . S
C62 C61 1.377 . S
C62 C63 1.369 . S
C63 H43 0.945 . S
C63 C58 1.385 . S
C63 C62 1.369 . S
C64 C56 1.457 . S
C64 C65 1.372 . S
C64 C69 1.364 . S
C65 H44 0.952 . S
C65 C64 1.372 . S
C65 C66 1.389 . S
C66 H45 0.949 . S
C66 C65 1.389 . S
C66 C67 1.387 . S
C67 C66 1.387 . S
C67 C68 1.372 . S
C68 H46 0.950 . S
C68 C67 1.372 . S
C68 C69 1.379 . S
C69 H47 0.948 . S
C69 C64 1.364 . S
C69 C68 1.379 . S
C70 C39 1.383 . S
C70 C57 1.479 . S
C70 C71 1.398 . S
C71 C36 1.382 . S
C71 H48 0.951 . S
C71 C70 1.398 . S
C72 C73 1.384 1_565 S
C72 H85 0.947 . S
C72 C107 1.382 1_565 S
C73 C72 1.384 1_545 S
C73 C74 1.378 . S
C74 C73 1.378 . S
C74 C75 1.378 . S
C74 H86 0.952 . S
C75 C74 1.378 . S
C75 H87 0.950 . S
C75 C106 1.383 . S
H76 C95 0.947 . S
H77 C96 0.955 . S
H78 C98 0.953 . S
H79 C99 0.945 . S
H80 C101 0.947 1_565 S
H81 C102 0.949 . S
H82 C104 0.950 . S
H83 C105 0.948 . S
H84 C107 0.951 1_565 S
H85 C72 0.947 . S
H86 C74 0.952 . S
H87 C75 0.950 . S
N88 C91 1.382 . S
N88 C93 1.363 . S
N89 C91 1.371 . S
N89 C92 1.372 . S
N90 C92 1.361 . S
N90 C93 1.377 . S
C91 N88 1.382 . S
C91 N89 1.371 . S
C91 C94 1.480 . S
C92 N89 1.372 . S
C92 N90 1.361 . S
C92 C100 1.457 1_554 S
C93 N88 1.363 . S
C93 N90 1.377 . S
C93 C106 1.479 . S
C94 C91 1.480 . S
C94 C95 1.383 . S
C94 C99 1.385 1_554 S
C95 H76 0.947 . S
C95 C94 1.383 . S
C95 C96 1.383 1_545 S
C96 H77 0.955 . S
C96 C95 1.383 1_565 S
C96 C97 1.381 1_565 S
C97 C96 1.381 1_545 S
C97 C98 1.377 1_554 S
C98 H78 0.953 . S
C98 C97 1.377 1_556 S
C98 C99 1.369 . S
C99 H79 0.945 . S
C99 C94 1.385 1_556 S
C99 C98 1.369 . S
C100 C92 1.457 1_556 S
C100 C101 1.377 . S
C100 C105 1.364 1_556 S
C101 H80 0.947 1_545 S
C101 C100 1.377 . S
C101 C102 1.390 1_545 S
C102 H81 0.949 . S
C102 C101 1.390 1_565 S
C102 C103 1.387 1_565 S
C103 C102 1.387 1_545 S
C103 C104 1.372 . S
C104 H82 0.950 . S
C104 C103 1.372 . S
C104 C105 1.379 1_556 S
C105 H83 0.948 . S
C105 C100 1.364 1_554 S
C105 C104 1.379 1_554 S
C106 C75 1.383 . S
C106 C93 1.479 . S
C106 C107 1.398 . S
C107 C72 1.382 1_545 S
C107 H84 0.951 1_545 S
C107 C106 1.398 . S
C108 C109 1.384 . S
C108 H121 0.947 . S
C108 C143 1.382 . S
C109 C108 1.384 . S
C109 C110 1.378 . S
C110 C109 1.378 . S
C110 C111 1.378 . S
C110 H122 0.952 . S
C111 C110 1.378 . S
C111 H123 0.950 . S
C111 C142 1.383 . S
H112 C131 0.947 . S
H113 C132 0.946 . S
H114 C134 0.953 . S
H115 C135 0.945 . S
H116 C137 0.952 . S
H117 C138 0.949 . S
H118 C140 0.950 . S
H119 C141 0.948 . S
H120 C143 0.951 1_554 S
H121 C108 0.947 . S
H122 C110 0.952 . S
H123 C111 0.950 . S
N124 C127 1.382 . S
N124 C129 1.363 . S
N125 C127 1.371 . S
N125 C128 1.372 . S
N126 C128 1.361 . S
N126 C129 1.377 . S
C127 N124 1.382 . S
C127 N125 1.371 . S
C127 C130 1.480 . S
C128 N125 1.372 . S
C128 N126 1.361 . S
C128 C136 1.457 . S
C129 N124 1.363 . S
C129 N126 1.377 . S
C129 C142 1.479 1_554 S
C130 C127 1.480 . S
C130 C131 1.383 1_554 S
C130 C135 1.385 . S
C131 H112 0.947 . S
C131 C130 1.383 1_556 S
C131 C132 1.388 . S
C132 H113 0.946 . S
C132 C131 1.388 . S
C132 C133 1.384 1_556 S
C133 C132 1.384 1_554 S
C133 C134 1.377 . S
C134 H114 0.953 . S
C134 C133 1.377 . S
C134 C135 1.369 . S
C135 H115 0.945 . S
C135 C130 1.385 . S
C135 C134 1.369 . S
C136 C128 1.457 . S
C136 C137 1.372 . S
C136 C141 1.364 . S
C137 H116 0.952 . S
C137 C136 1.372 . S
C137 C138 1.389 . S
C138 H117 0.949 . S
C138 C137 1.389 . S
C138 C139 1.387 . S
C139 C138 1.387 . S
C139 C140 1.372 . S
C140 H118 0.950 . S
C140 C139 1.372 . S
C140 C141 1.379 . S
C141 H119 0.948 . S
C141 C136 1.364 . S
C141 C140 1.379 . S
C142 C111 1.383 . S
C142 C129 1.479 1_556 S
C142 C143 1.398 . S
C143 C108 1.382 . S
C143 H120 0.951 1_556 S
C143 C142 1.398 . S
C144 C145 1.384 . S
C144 H157 0.947 . S
C144 C179 1.382 . S
C145 C144 1.384 . S
C145 C146 1.378 . S
C146 C145 1.378 . S
C146 C147 1.378 . S
C146 H158 0.952 1_554 S
C147 C146 1.378 . S
C147 H159 0.950 . S
C147 C178 1.383 . S
H148 C167 0.947 . S
H149 C168 0.946 . S
H150 C170 0.953 . S
H151 C171 0.945 . S
H152 C173 0.952 . S
H153 C174 0.949 . S
H154 C176 0.950 . S
H155 C177 0.948 . S
H156 C179 0.951 . S
H157 C144 0.947 . S
H158 C146 0.952 1_556 S
H159 C147 0.950 . S
N160 C163 1.382 . S
N160 C165 1.363 . S
N161 C163 1.371 . S
N161 C164 1.372 . S
N162 C164 1.361 . S
N162 C165 1.377 . S
C163 N160 1.382 . S
C163 N161 1.371 . S
C163 C166 1.480 . S
C164 N161 1.372 . S
C164 N162 1.361 . S
C164 C172 1.457 . S
C165 N160 1.363 . S
C165 N162 1.377 . S
C165 C178 1.479 . S
C166 C163 1.480 . S
C166 C167 1.383 . S
C166 C171 1.385 . S
C167 H148 0.947 . S
C167 C166 1.383 . S
C167 C168 1.388 . S
C168 H149 0.946 . S
C168 C167 1.388 . S
C168 C169 1.384 . S
C169 C168 1.384 . S
C169 C170 1.377 . S
C170 H150 0.953 . S
C170 C169 1.377 . S
C170 C171 1.369 . S
C171 H151 0.945 . S
C171 C166 1.385 . S
C171 C170 1.369 . S
C172 C164 1.457 . S
C172 C173 1.372 . S
C172 C177 1.364 . S
C173 H152 0.952 . S
C173 C172 1.372 . S
C173 C174 1.389 . S
C174 H153 0.949 . S
C174 C173 1.389 . S
C174 C175 1.387 . S
C175 C174 1.387 . S
C175 C176 1.372 . S
C176 H154 0.950 . S
C176 C175 1.372 . S
C176 C177 1.379 . S
C177 H155 0.948 . S
C177 C172 1.364 . S
C177 C176 1.379 . S
C178 C147 1.383 . S
C178 C165 1.479 . S
C178 C179 1.398 . S
C179 C144 1.382 . S
C179 H156 0.951 . S
C179 C178 1.398 . S
C180 C181 1.384 . S
C180 H193 0.947 . S
C180 C215 1.382 . S
C181 C180 1.384 . S
C181 C182 1.378 . S
C182 C181 1.378 . S
C182 C183 1.378 . S
C182 H194 0.952 . S
C183 C182 1.378 . S
C183 H195 0.950 . S
C183 C214 1.383 . S
H184 C203 0.947 . S
H185 C204 0.946 . S
H186 C206 0.953 . S
H187 C207 0.945 . S
H188 C209 0.952 . S
H189 C210 0.949 . S
H190 C212 0.950 . S
H191 C213 0.948 . S
H192 C215 0.951 . S
H193 C180 0.947 . S
H194 C182 0.952 . S
H195 C183 0.950 . S
N196 C199 1.382 . S
N196 C201 1.363 . S
N197 C199 1.371 . S
N197 C200 1.372 . S
N198 C200 1.361 . S
N198 C201 1.377 . S
C199 N196 1.382 . S
C199 N197 1.371 . S
C199 C202 1.480 . S
C200 N197 1.372 . S
C200 N198 1.361 . S
C200 C208 1.457 . S
C201 N196 1.363 . S
C201 N198 1.377 . S
C201 C214 1.479 . S
C202 C199 1.480 . S
C202 C203 1.383 . S
C202 C207 1.385 . S
C203 H184 0.947 . S
C203 C202 1.383 . S
C203 C204 1.388 . S
C204 H185 0.946 . S
C204 C203 1.388 . S
C204 C205 1.384 . S
C205 C204 1.384 . S
C205 C206 1.377 . S
C206 H186 0.953 . S
C206 C205 1.377 . S
C206 C207 1.369 . S
C207 H187 0.945 . S
C207 C202 1.385 . S
C207 C206 1.369 . S
C208 C200 1.457 . S
C208 C209 1.372 . S
C208 C213 1.364 . S
C209 H188 0.952 . S
C209 C208 1.372 . S
C209 C210 1.389 . S
C210 H189 0.949 . S
C210 C209 1.389 . S
C210 C211 1.387 . S
C211 C210 1.387 . S
C211 C212 1.372 . S
C212 H190 0.950 . S
C212 C211 1.372 . S
C212 C213 1.379 . S
C213 H191 0.948 . S
C213 C208 1.364 . S
C213 C212 1.379 . S
C214 C183 1.383 . S
C214 C201 1.479 . S
C214 C215 1.398 . S
C215 C180 1.382 . S
C215 H192 0.951 . S
C215 C214 1.398 . S
C216 C217 1.384 1_554 S
C216 H229 0.947 . S
C216 C251 1.382 . S
C217 C216 1.384 1_556 S
C217 C218 1.378 . S
C218 C217 1.378 . S
C218 C219 1.378 1_556 S
C218 H230 0.952 . S
C219 C218 1.378 1_554 S
C219 H231 0.950 . S
C219 C250 1.383 . S
H220 C239 0.947 . S
H221 C240 0.946 . S
H222 C242 0.953 . S
H223 C243 0.945 . S
H224 C245 0.952 . S
H225 C246 0.949 . S
H226 C248 0.950 . S
H227 C249 0.948 . S
H228 C251 0.951 . S
H229 C216 0.947 . S
H230 C218 0.952 . S
H231 C219 0.950 . S
N232 C235 1.382 . S
N232 C237 1.363 . S
N233 C235 1.371 . S
N233 C236 1.372 . S
N234 C236 1.361 . S
N234 C237 1.377 . S
C235 N232 1.382 . S
C235 N233 1.371 . S
C235 C238 1.480 . S
C236 N233 1.372 . S
C236 N234 1.361 . S
C236 C244 1.457 . S
C237 N232 1.363 . S
C237 N234 1.377 . S
C237 C250 1.479 . S
C238 C235 1.480 . S
C238 C239 1.383 . S
C238 C243 1.385 . S
C239 H220 0.947 . S
C239 C238 1.383 . S
C239 C240 1.388 . S
C240 H221 0.946 . S
C240 C239 1.388 . S
C240 C241 1.384 . S
C241 C240 1.384 . S
C241 C242 1.377 . S
C242 H222 0.953 . S
C242 C241 1.377 . S
C242 C243 1.369 . S
C243 H223 0.945 . S
C243 C238 1.385 . S
C243 C242 1.369 . S
C244 C236 1.457 . S
C244 C245 1.372 . S
C244 C249 1.364 . S
C245 H224 0.952 . S
C245 C244 1.372 . S
C245 C246 1.389 . S
C246 H225 0.949 . S
C246 C245 1.389 . S
C246 C247 1.387 . S
C247 C246 1.387 . S
C247 C248 1.372 . S
C248 H226 0.950 . S
C248 C247 1.372 . S
C248 C249 1.379 . S
C249 H227 0.948 . S
C249 C244 1.364 . S
C249 C248 1.379 . S
C250 C219 1.383 . S
C250 C237 1.479 . S
C250 C251 1.398 . S
C251 C216 1.382 . S
C251 H228 0.951 . S
C251 C250 1.398 . S
C252 C253 1.384 . S
C252 H265 0.947 . S
C252 C287 1.382 . S
C253 C252 1.384 . S
C253 C254 1.378 . S
C254 C253 1.378 . S
C254 C255 1.378 . S
C254 H266 0.952 . S
C255 C254 1.378 . S
C255 H267 0.950 . S
C255 C286 1.383 . S
H256 C275 0.947 . S
H257 C276 0.946 . S
H258 C278 0.953 . S
H259 C279 0.945 . S
H260 C281 0.952 . S
H261 C282 0.949 1_556 S
H262 C284 0.950 . S
H263 C285 0.948 . S
H264 C287 0.951 . S
H265 C252 0.947 . S
H266 C254 0.952 . S
H267 C255 0.950 . S
N268 C271 1.382 . S
N268 C273 1.363 . S
N269 C271 1.371 . S
N269 C272 1.372 . S
N270 C272 1.361 . S
N270 C273 1.377 . S
C271 N268 1.382 . S
C271 N269 1.371 . S
C271 C274 1.480 . S
C272 N269 1.372 . S
C272 N270 1.361 . S
C272 C280 1.457 . S
C273 N268 1.363 . S
C273 N270 1.377 . S
C273 C286 1.479 . S
C274 C271 1.480 . S
C274 C275 1.383 . S
C274 C279 1.385 . S
C275 H256 0.947 . S
C275 C274 1.383 . S
C275 C276 1.388 . S
C276 H257 0.946 . S
C276 C275 1.388 . S
C276 C277 1.384 . S
C277 C276 1.384 . S
C277 C278 1.377 . S
C278 H258 0.953 . S
C278 C277 1.377 . S
C278 C279 1.369 . S
C279 H259 0.945 . S
C279 C274 1.385 . S
C279 C278 1.369 . S
C280 C272 1.457 . S
C280 C281 1.372 . S
C280 C285 1.364 . S
C281 H260 0.952 . S
C281 C280 1.372 . S
C281 C282 1.389 . S
C282 H261 0.949 1_554 S
C282 C281 1.389 . S
C282 C283 1.387 1_554 S
C283 C282 1.387 1_556 S
C283 C284 1.372 1_556 S
C284 H262 0.950 . S
C284 C283 1.372 1_554 S
C284 C285 1.379 . S
C285 H263 0.948 . S
C285 C280 1.364 . S
C285 C284 1.379 . S
C286 C255 1.383 . S
C286 C273 1.479 . S
C286 C287 1.398 . S
C287 C252 1.382 . S
C287 H264 0.951 . S
C287 C286 1.398 . S
Tb288 O291 2.453 1_665 S
Tb288 O292 2.596 1_665 S
Tb288 O293 2.374 1_655 S
Tb288 O301 2.343 . S
Tb288 O303 2.353 1_565 S
Tb288 O305 2.427 . S
Tb288 O306 2.513 . S
C289 O293 1.251 . S
C289 O295 1.263 . S
Tb290 O292 2.343 . S
Tb290 O295 2.353 1_545 S
Tb290 O298 2.427 . S
Tb290 O299 2.513 . S
Tb290 O300 2.453 1_545 S
Tb290 O301 2.596 1_445 S
Tb290 O302 2.374 1_455 S
O291 Tb288 2.453 1_445 S
O291 C307 1.245 . S
O292 Tb288 2.596 1_445 S
O292 Tb290 2.343 . S
O292 C307 1.259 . S
O293 Tb288 2.374 1_455 S
O293 C289 1.251 . S
C294 O298 1.275 . S
C294 O299 1.246 . S
O295 C289 1.263 . S
O295 Tb290 2.353 1_565 S
C296 O300 1.245 1_655 S
C296 O301 1.259 . S
C297 O302 1.250 . S
C297 O303 1.263 . S
O298 Tb290 2.427 . S
O298 C294 1.275 . S
O299 Tb290 2.513 . S
O299 C294 1.246 . S
O300 Tb290 2.453 1_565 S
O300 C296 1.245 1_455 S
O301 Tb288 2.343 . S
O301 Tb290 2.596 1_665 S
O301 C296 1.259 . S
O302 Tb290 2.374 1_655 S
O302 C297 1.250 . S
O303 Tb288 2.353 1_545 S
O303 C297 1.263 . S
C304 O305 1.275 . S
C304 O306 1.246 . S
O305 Tb288 2.427 . S
O305 C304 1.275 . S
O306 Tb288 2.513 . S
O306 C304 1.246 . S
C307 O291 1.245 . S
C307 O292 1.259 . S
Tb308 O311 2.453 . S
Tb308 O312 2.596 1_545 S
Tb308 O313 2.374 . S
Tb308 O321 2.343 . S
Tb308 O323 2.353 . S
Tb308 O325 2.427 . S
Tb308 O326 2.513 . S
C309 O313 1.251 . S
C309 O315 1.263 1_545 S
Tb310 O312 2.343 . S
Tb310 O315 2.353 . S
Tb310 O318 2.427 . S
Tb310 O319 2.513 . S
Tb310 O320 2.453 . S
Tb310 O321 2.596 1_565 S
Tb310 O322 2.374 . S
O311 Tb308 2.453 . S
O311 C327 1.245 . S
O312 Tb308 2.596 1_565 S
O312 Tb310 2.343 . S
O312 C327 1.259 1_565 S
O313 Tb308 2.374 . S
O313 C309 1.251 . S
C314 O318 1.275 . S
C314 O319 1.246 . S
O315 C309 1.263 1_565 S
O315 Tb310 2.353 . S
C316 O320 1.245 . S
C316 O321 1.259 1_565 S
C317 O322 1.250 1_545 S
C317 O323 1.263 . S
O318 Tb310 2.427 . S
O318 C314 1.275 . S
O319 Tb310 2.513 . S
O319 C314 1.246 . S
O320 Tb310 2.453 . S
O320 C316 1.245 . S
O321 Tb308 2.343 . S
O321 Tb310 2.596 1_545 S
O321 C316 1.259 1_545 S
O322 Tb310 2.374 . S
O322 C317 1.250 1_565 S
O323 Tb308 2.353 . S
O323 C317 1.263 . S
C324 O325 1.275 . S
C324 O326 1.246 . S
O325 Tb308 2.427 . S
O325 C324 1.275 . S
O326 Tb308 2.513 . S
O326 C324 1.246 . S
C327 O311 1.245 . S
C327 O312 1.259 1_545 S
Tb328 O331 2.453 . S
Tb328 O332 2.596 . S
Tb328 O333 2.374 . S
Tb328 O341 2.343 . S
Tb328 O343 2.353 . S
Tb328 O345 2.427 . S
Tb328 O346 2.513 . S
C329 O333 1.251 . S
C329 O335 1.263 . S
Tb330 O332 2.343 . S
Tb330 O335 2.353 . S
Tb330 O338 2.427 . S
Tb330 O339 2.513 . S
Tb330 O340 2.453 . S
Tb330 O341 2.596 . S
Tb330 O342 2.374 . S
O331 Tb328 2.453 . S
O331 C347 1.245 . S
O332 Tb328 2.596 . S
O332 Tb330 2.343 . S
O332 C347 1.259 . S
O333 Tb328 2.374 . S
O333 C329 1.251 . S
C334 O338 1.275 . S
C334 O339 1.246 . S
O335 C329 1.263 . S
O335 Tb330 2.353 . S
C336 O340 1.245 . S
C336 O341 1.259 . S
C337 O342 1.250 . S
C337 O343 1.263 . S
O338 Tb330 2.427 . S
O338 C334 1.275 . S
O339 Tb330 2.513 . S
O339 C334 1.246 . S
O340 Tb330 2.453 . S
O340 C336 1.245 . S
O341 Tb328 2.343 . S
O341 Tb330 2.596 . S
O341 C336 1.259 . S
O342 Tb330 2.374 . S
O342 C337 1.250 . S
O343 Tb328 2.353 . S
O343 C337 1.263 . S
C344 O345 1.275 . S
C344 O346 1.246 . S
O345 Tb328 2.427 . S
O345 C344 1.275 . S
O346 Tb328 2.513 . S
O346 C344 1.246 . S
C347 O331 1.245 . S
C347 O332 1.259 . S
Tb348 O351 2.453 1_655 S
Tb348 O352 2.596 1_655 S
Tb348 O353 2.374 1_655 S
Tb348 O361 2.343 . S
Tb348 O363 2.353 . S
Tb348 O365 2.427 . S
Tb348 O366 2.513 . S
C349 O353 1.251 . S
C349 O355 1.263 . S
Tb350 O352 2.343 . S
Tb350 O355 2.353 . S
Tb350 O358 2.427 . S
Tb350 O359 2.513 . S
Tb350 O360 2.453 1_455 S
Tb350 O361 2.596 1_455 S
Tb350 O362 2.387 . S
O351 Tb348 2.453 1_455 S
O351 C367 1.245 . S
O352 Tb348 2.596 1_455 S
O352 Tb350 2.343 . S
O352 C367 1.259 . S
O353 Tb348 2.374 1_455 S
O353 C349 1.251 . S
C354 O358 1.275 . S
C354 O359 1.246 . S
O355 C349 1.263 . S
O355 Tb350 2.353 . S
C356 O360 1.245 . S
C356 O361 1.259 . S
C357 O362 1.234 1_655 S
C357 O363 1.263 . S
O358 Tb350 2.427 . S
O358 C354 1.275 . S
O359 Tb350 2.513 . S
O359 C354 1.246 . S
O360 Tb350 2.453 1_655 S
O360 C356 1.245 . S
O361 Tb348 2.343 . S
O361 Tb350 2.596 1_655 S
O361 C356 1.259 . S
O362 Tb350 2.387 . S
O362 C357 1.234 1_455 S
O363 Tb348 2.353 . S
O363 C357 1.263 . S
C364 O365 1.275 . S
C364 O366 1.246 . S
O365 Tb348 2.427 . S
O365 C364 1.275 . S
O366 Tb348 2.513 . S
O366 C364 1.246 . S
C367 O351 1.245 . S
C367 O352 1.259 . S
C368 C369 1.363 1_565 S
C368 C374 1.379 . S
C368 N376 1.356 . S
C369 C368 1.363 1_545 S
C369 C375 1.363 . S
C370 C371 1.348 1_545 S
C370 C375 1.379 . S
C370 N377 1.356 . S
C371 C370 1.348 1_565 S
C371 C374 1.377 . S
N372 C374 1.356 . S
N372 H384 0.984 . S
N372 H385 0.985 . S
N373 C375 1.356 . S
N373 H378 0.984 . S
N373 H379 0.985 . S
C374 C368 1.379 . S
C374 C371 1.377 . S
C374 N372 1.356 . S
C375 C369 1.363 . S
C375 C370 1.379 . S
C375 N373 1.356 . S
N376 C368 1.356 . S
N376 H382 0.984 . S
N376 H383 0.984 . S
N377 C370 1.356 . S
N377 H380 0.984 . S
N377 H381 0.985 . S
H378 N373 0.984 . S
H379 N373 0.985 . S
H380 N377 0.984 . S
H381 N377 0.985 . S
H382 N376 0.984 . S
H383 N376 0.984 . S
H384 N372 0.984 . S
H385 N372 0.985 . S
C386 C387 1.363 . S
C386 C392 1.379 . S
C386 N394 1.356 . S
C387 C386 1.363 . S
C387 C393 1.363 . S
C388 C389 1.363 . S
C388 C393 1.379 . S
C388 N395 1.356 . S
C389 C388 1.363 . S
C389 C392 1.363 . S
N390 C392 1.356 . S
N390 H402 0.984 . S
N390 H403 0.985 . S
N391 C393 1.356 . S
N391 H396 0.984 . S
N391 H397 0.985 . S
C392 C386 1.379 . S
C392 C389 1.363 . S
C392 N390 1.356 . S
C393 C387 1.363 . S
C393 C388 1.379 . S
C393 N391 1.356 . S
N394 C386 1.356 . S
N394 H400 0.984 . S
N394 H401 0.984 . S
N395 C388 1.356 . S
N395 H398 0.984 . S
N395 H399 0.985 . S
H396 N391 0.984 . S
H397 N391 0.985 . S
H398 N395 0.984 . S
H399 N395 0.985 . S
H400 N394 0.984 . S
H401 N394 0.984 . S
H402 N390 0.984 . S
H403 N390 0.985 . S
C404 C405 1.363 . S
C404 C410 1.379 . S
C404 N412 1.356 . S
C405 C404 1.363 . S
C405 C411 1.363 . S
C406 C407 1.363 . S
C406 C411 1.379 . S
C406 N413 1.356 . S
C407 C406 1.363 . S
C407 C410 1.363 . S
N408 C410 1.356 . S
N408 H420 0.984 . S
N408 H421 0.985 . S
N409 C411 1.356 . S
N409 H414 0.984 . S
N409 H415 0.985 . S
C410 C404 1.379 . S
C410 C407 1.363 . S
C410 N408 1.356 . S
C411 C405 1.363 . S
C411 C406 1.379 . S
C411 N409 1.356 . S
N412 C404 1.356 . S
N412 H418 0.984 . S
N412 H419 0.984 . S
N413 C406 1.356 . S
N413 H416 0.984 . S
N413 H417 0.985 . S
H414 N409 0.984 . S
H415 N409 0.985 . S
H416 N413 0.984 . S
H417 N413 0.985 . S
H418 N412 0.984 . S
H419 N412 0.984 . S
H420 N408 0.984 . S
H421 N408 0.985 . S
C422 C423 1.363 . S
C422 C428 1.379 . S
C422 N430 1.356 . S
C423 C422 1.363 . S
C423 C429 1.363 . S
C424 C425 1.363 . S
C424 C429 1.379 . S
C424 N431 1.356 . S
C425 C424 1.363 . S
C425 C428 1.363 . S
N426 C428 1.356 . S
N426 H438 0.984 . S
N426 H439 0.985 . S
N427 C429 1.356 . S
N427 H432 0.984 . S
N427 H433 0.985 . S
C428 C422 1.379 . S
C428 C425 1.363 . S
C428 N426 1.356 . S
C429 C423 1.363 . S
C429 C424 1.379 . S
C429 N427 1.356 . S
N430 C422 1.356 . S
N430 H436 0.984 . S
N430 H437 0.984 . S
N431 C424 1.356 . S
N431 H434 0.984 . S
N431 H435 0.985 . S
H432 N427 0.984 . S
H433 N427 0.985 . S
H434 N431 0.984 . S
H435 N431 0.985 . S
H436 N430 0.984 . S
H437 N430 0.984 . S
H438 N426 0.984 . S
H439 N426 0.985 . S
C440 C441 1.363 . S
C440 C446 1.379 . S
C440 N448 1.356 . S
C441 C440 1.363 . S
C441 C447 1.363 1_545 S
C442 C443 1.363 1_565 S
C442 C447 1.379 . S
C442 N449 1.356 . S
C443 C442 1.363 1_545 S
C443 C446 1.363 . S
N444 C446 1.356 . S
N444 H456 0.984 . S
N444 H457 0.985 . S
N445 C447 1.356 1_554 S
N445 H450 0.984 . S
N445 H451 0.985 . S
C446 C440 1.379 . S
C446 C443 1.363 . S
C446 N444 1.356 . S
C447 C441 1.363 1_565 S
C447 C442 1.379 . S
C447 N445 1.356 1_556 S
N448 C440 1.356 . S
N448 H454 0.984 . S
N448 H455 0.984 . S
N449 C442 1.356 . S
N449 H452 0.984 . S
N449 H453 0.985 . S
H450 N445 0.984 . S
H451 N445 0.985 . S
H452 N449 0.984 . S
H453 N449 0.985 . S
H454 N448 0.984 . S
H455 N448 0.984 . S
H456 N444 0.984 . S
H457 N444 0.985 . S
C458 C459 1.363 . S
C458 C464 1.379 . S
C458 N466 1.356 . S
C459 C458 1.363 . S
C459 C465 1.363 . S
C460 C461 1.363 . S
C460 C465 1.379 . S
C460 N467 1.356 . S
C461 C460 1.363 . S
C461 C464 1.363 . S
N462 C464 1.356 . S
N462 H474 0.984 . S
N462 H475 0.985 . S
N463 C465 1.356 1_554 S
N463 H468 0.984 . S
N463 H469 0.985 . S
C464 C458 1.379 . S
C464 C461 1.363 . S
C464 N462 1.356 . S
C465 C459 1.363 . S
C465 C460 1.379 . S
C465 N463 1.356 1_556 S
N466 C458 1.356 . S
N466 H472 0.984 . S
N466 H473 0.984 . S
N467 C460 1.356 . S
N467 H470 0.984 . S
N467 H471 0.985 1_556 S
H468 N463 0.984 . S
H469 N463 0.985 . S
H470 N467 0.984 . S
H471 N467 0.985 1_554 S
H472 N466 0.984 . S
H473 N466 0.984 . S
H474 N462 0.984 . S
H475 N462 0.985 . S
C476 C477 1.363 . S
C476 C482 1.379 . S
C476 N484 1.356 . S
C477 C476 1.363 . S
C477 C483 1.363 . S
C478 C479 1.363 . S
C478 C483 1.379 . S
C478 N485 1.356 . S
C479 C478 1.363 . S
C479 C482 1.363 . S
N480 C482 1.356 . S
N480 H492 0.984 . S
N480 H493 0.985 . S
N481 C483 1.356 1_554 S
N481 H486 0.984 . S
N481 H487 0.985 . S
C482 C476 1.379 . S
C482 C479 1.363 . S
C482 N480 1.356 . S
C483 C477 1.363 . S
C483 C478 1.379 . S
C483 N481 1.356 1_556 S
N484 C476 1.356 . S
N484 H490 0.984 . S
N484 H491 0.984 . S
N485 C478 1.356 . S
N485 H488 0.984 . S
N485 H489 0.985 . S
H486 N481 0.984 . S
H487 N481 0.985 . S
H488 N485 0.984 . S
H489 N485 0.985 . S
H490 N484 0.984 . S
H491 N484 0.984 . S
H492 N480 0.984 . S
H493 N480 0.985 . S
C494 C495 1.363 . S
C494 C500 1.379 . S
C494 N502 1.356 . S
C495 C494 1.363 . S
C495 C501 1.363 . S
C496 C497 1.363 . S
C496 C501 1.379 . S
C496 N503 1.356 . S
C497 C496 1.363 . S
C497 C500 1.363 . S
N498 C500 1.356 . S
N498 H510 0.984 . S
N498 H511 0.985 . S
N499 C501 1.356 1_554 S
N499 H504 0.984 . S
N499 H505 0.985 . S
C500 C494 1.379 . S
C500 C497 1.363 . S
C500 N498 1.356 . S
C501 C495 1.363 . S
C501 C496 1.379 . S
C501 N499 1.356 1_556 S
N502 C494 1.356 . S
N502 H508 0.984 . S
N502 H509 0.984 . S
N503 C496 1.356 . S
N503 H506 0.984 . S
N503 H507 0.985 . S
H504 N499 0.984 . S
H505 N499 0.985 . S
H506 N503 0.984 . S
H507 N503 0.985 . S
H508 N502 0.984 . S
H509 N502 0.984 . S
H510 N498 0.984 . S
H511 N498 0.985 . S
C512 C513 1.363 . S
C512 C518 1.379 . S
C512 N520 1.356 . S
C513 C512 1.363 . S
C513 C519 1.363 . S
C514 C515 1.363 . S
C514 C519 1.379 . S
C514 N521 1.356 . S
C515 C514 1.363 . S
C515 C518 1.363 . S
N516 C518 1.356 . S
N516 H528 0.984 . S
N516 H529 0.985 . S
N517 C519 1.356 . S
N517 H522 0.984 . S
N517 H523 0.985 . S
C518 C512 1.379 . S
C518 C515 1.363 . S
C518 N516 1.356 . S
C519 C513 1.363 . S
C519 C514 1.379 . S
C519 N517 1.356 . S
N520 C512 1.356 . S
N520 H526 0.984 . S
N520 H527 0.984 . S
N521 C514 1.356 . S
N521 H524 0.984 . S
N521 H525 0.985 . S
H522 N517 0.984 . S
H523 N517 0.985 . S
H524 N521 0.984 . S
H525 N521 0.985 . S
H526 N520 0.984 . S
H527 N520 0.984 . S
H528 N516 0.984 . S
H529 N516 0.985 . S
C530 C531 1.363 . S
C530 C536 1.379 . S
C530 N538 1.356 . S
C531 C530 1.363 . S
C531 C537 1.363 1_545 S
C532 C533 1.339 1_565 S
C532 C537 1.379 . S
C532 N539 1.356 . S
C533 C532 1.339 1_545 S
C533 C536 1.394 . S
N534 C536 1.356 . S
N534 H546 0.984 . S
N534 H547 0.985 . S
N535 C537 1.356 . S
N535 H540 0.984 . S
N535 H541 0.985 . S
C536 C530 1.379 . S
C536 C533 1.394 . S
C536 N534 1.356 . S
C537 C531 1.363 1_565 S
C537 C532 1.379 . S
C537 N535 1.356 . S
N538 C530 1.356 . S
N538 H544 0.984 . S
N538 H545 0.984 . S
N539 C532 1.356 . S
N539 H542 0.984 . S
N539 H543 0.985 . S
H540 N535 0.984 . S
H541 N535 0.985 . S
H542 N539 0.984 . S
H543 N539 0.985 . S
H544 N538 0.984 . S
H545 N538 0.984 . S
H546 N534 0.984 . S
H547 N534 0.985 . S
C548 C549 1.363 . S
C548 C554 1.379 . S
C548 N556 1.356 . S
C549 C548 1.363 . S
C549 C555 1.363 . S
C550 C551 1.363 . S
C550 C555 1.379 . S
C550 N557 1.356 . S
C551 C550 1.363 . S
C551 C554 1.363 . S
N552 C554 1.356 . S
N552 H564 0.984 . S
N552 H565 0.985 . S
N553 C555 1.356 . S
N553 H558 0.984 . S
N553 H559 0.985 . S
C554 C548 1.379 . S
C554 C551 1.363 . S
C554 N552 1.356 . S
C555 C549 1.363 . S
C555 C550 1.379 . S
C555 N553 1.356 . S
N556 C548 1.356 . S
N556 H562 0.984 . S
N556 H563 0.984 . S
N557 C550 1.356 . S
N557 H560 0.984 . S
N557 H561 0.985 . S
H558 N553 0.984 . S
H559 N553 0.985 . S
H560 N557 0.984 . S
H561 N557 0.985 . S
H562 N556 0.984 . S
H563 N556 0.984 . S
H564 N552 0.984 . S
H565 N552 0.985 . S
C566 C567 1.363 . S
C566 C572 1.379 . S
C566 N574 1.356 . S
C567 C566 1.363 . S
C567 C573 1.363 . S
C568 C569 1.363 . S
C568 C573 1.379 . S
C568 N575 1.356 . S
C569 C568 1.363 . S
C569 C572 1.363 . S
N570 C572 1.356 . S
N570 H582 0.984 . S
N570 H583 0.985 . S
N571 C573 1.356 . S
N571 H576 0.984 . S
N571 H577 0.985 . S
C572 C566 1.379 . S
C572 C569 1.363 . S
C572 N570 1.356 . S
C573 C567 1.363 . S
C573 C568 1.379 . S
C573 N571 1.356 . S
N574 C566 1.356 . S
N574 H580 0.984 . S
N574 H581 0.984 . S
N575 C568 1.356 . S
N575 H578 0.984 . S
N575 H579 0.985 . S
H576 N571 0.984 . S
H577 N571 0.985 . S
H578 N575 0.984 . S
H579 N575 0.985 . S
H580 N574 0.984 . S
H581 N574 0.984 . S
H582 N570 0.984 . S
H583 N570 0.985 . S
C584 C585 1.363 . S
C584 C590 1.379 . S
C584 N592 1.356 . S
C585 C584 1.363 . S
C585 C591 1.363 . S
C586 C587 1.363 . S
C586 C591 1.379 . S
C586 N593 1.356 . S
C587 C586 1.363 . S
C587 C590 1.363 . S
N588 C590 1.356 . S
N588 H600 0.984 . S
N588 H601 0.985 . S
N589 C591 1.356 . S
N589 H594 0.984 . S
N589 H595 0.985 . S
C590 C584 1.379 . S
C590 C587 1.363 . S
C590 N588 1.356 . S
C591 C585 1.363 . S
C591 C586 1.379 . S
C591 N589 1.356 . S
N592 C584 1.356 . S
N592 H598 0.984 . S
N592 H599 0.984 . S
N593 C586 1.356 . S
N593 H596 0.984 . S
N593 H597 0.985 . S
H594 N589 0.984 . S
H595 N589 0.985 . S
H596 N593 0.984 . S
H597 N593 0.985 . S
H598 N592 0.984 . S
H599 N592 0.984 . S
H600 N588 0.984 . S
H601 N588 0.985 . S
C602 C603 1.373 . S
C602 C608 1.379 . S
C602 N610 1.356 . S
C603 C602 1.373 . S
C603 C609 1.356 1_545 S
C604 C605 1.363 1_565 S
C604 C609 1.379 . S
C604 N611 1.356 . S
C605 C604 1.363 1_545 S
C605 C608 1.363 . S
N606 C608 1.356 . S
N606 H618 0.984 . S
N606 H619 0.985 . S
N607 C609 1.356 . S
N607 H612 0.984 . S
N607 H613 0.985 . S
C608 C602 1.379 . S
C608 C605 1.363 . S
C608 N606 1.356 . S
C609 C603 1.356 1_565 S
C609 C604 1.379 . S
C609 N607 1.356 . S
N610 C602 1.356 . S
N610 H616 0.984 . S
N610 H617 0.984 . S
N611 C604 1.356 . S
N611 H614 0.984 . S
N611 H615 0.985 . S
H612 N607 0.984 . S
H613 N607 0.985 . S
H614 N611 0.984 . S
H615 N611 0.985 . S
H616 N610 0.984 . S
H617 N610 0.984 . S
H618 N606 0.984 . S
H619 N606 0.985 . S
C620 C621 1.363 . S
C620 C626 1.379 . S
C620 N628 1.356 . S
C621 C620 1.363 . S
C621 C627 1.363 . S
C622 C623 1.363 . S
C622 C627 1.379 . S
C622 N629 1.356 . S
C623 C622 1.363 . S
C623 C626 1.363 . S
N624 C626 1.356 . S
N624 H636 0.984 . S
N624 H637 0.985 . S
N625 C627 1.356 . S
N625 H630 0.984 . S
N625 H631 0.985 . S
C626 C620 1.379 . S
C626 C623 1.363 . S
C626 N624 1.356 . S
C627 C621 1.363 . S
C627 C622 1.379 . S
C627 N625 1.356 . S
N628 C620 1.356 . S
N628 H634 0.984 . S
N628 H635 0.984 . S
N629 C622 1.356 . S
N629 H632 0.984 . S
N629 H633 0.985 . S
H630 N625 0.984 . S
H631 N625 0.985 . S
H632 N629 0.984 . S
H633 N629 0.985 . S
H634 N628 0.984 . S
H635 N628 0.984 . S
H636 N624 0.984 . S
H637 N624 0.985 . S
C638 C639 1.363 . S
C638 C644 1.379 . S
C638 N646 1.356 . S
C639 C638 1.363 . S
C639 C645 1.363 . S
C640 C641 1.363 . S
C640 C645 1.379 . S
C640 N647 1.356 . S
C641 C640 1.363 . S
C641 C644 1.363 . S
N642 C644 1.356 . S
N642 H654 0.984 . S
N642 H655 0.985 . S
N643 C645 1.356 . S
N643 H648 0.984 . S
N643 H649 0.985 . S
C644 C638 1.379 . S
C644 C641 1.363 . S
C644 N642 1.356 . S
C645 C639 1.363 . S
C645 C640 1.379 . S
C645 N643 1.356 . S
N646 C638 1.356 . S
N646 H652 0.984 . S
N646 H653 0.984 . S
N647 C640 1.356 . S
N647 H650 0.984 . S
N647 H651 0.985 . S
H648 N643 0.984 . S
H649 N643 0.985 . S
H650 N647 0.984 . S
H651 N647 0.985 . S
H652 N646 0.984 . S
H653 N646 0.984 . S
H654 N642 0.984 . S
H655 N642 0.985 . S
C656 C657 1.363 . S
C656 C662 1.379 . S
C656 N664 1.356 . S
C657 C656 1.363 . S
C657 C663 1.363 . S
C658 C659 1.363 . S
C658 C663 1.379 . S
C658 N665 1.356 . S
C659 C658 1.363 . S
C659 C662 1.363 . S
N660 C662 1.356 . S
N660 H672 0.984 . S
N660 H673 0.985 . S
N661 C663 1.356 1_554 S
N661 H666 0.984 . S
N661 H667 0.985 . S
C662 C656 1.379 . S
C662 C659 1.363 . S
C662 N660 1.356 . S
C663 C657 1.363 . S
C663 C658 1.379 . S
C663 N661 1.356 1_556 S
N664 C656 1.356 . S
N664 H670 0.984 . S
N664 H671 0.984 . S
N665 C658 1.356 . S
N665 H668 0.984 . S
N665 H669 0.985 1_556 S
H666 N661 0.984 . S
H667 N661 0.985 . S
H668 N665 0.984 . S
H669 N665 0.985 1_554 S
H670 N664 0.984 . S
H671 N664 0.984 . S
H672 N660 0.984 . S
H673 N660 0.985 . S
C674 C675 1.363 1_565 S
C674 C680 1.379 . S
C674 N682 1.356 . S
C675 C674 1.363 1_545 S
C675 C681 1.363 . S
C676 C677 1.363 . S
C676 C681 1.379 . S
C676 N683 1.356 . S
C677 C676 1.363 . S
C677 C680 1.363 1_545 S
N678 C680 1.356 . S
N678 H690 0.984 . S
N678 H691 0.985 . S
N679 C681 1.356 . S
N679 H684 0.984 . S
N679 H685 0.985 . S
C680 C674 1.379 . S
C680 C677 1.363 1_565 S
C680 N678 1.356 . S
C681 C675 1.363 . S
C681 C676 1.379 . S
C681 N679 1.356 . S
N682 C674 1.356 . S
N682 H688 0.984 1_556 S
N682 H689 0.984 . S
N683 C676 1.356 . S
N683 H686 0.984 . S
N683 H687 0.985 . S
H684 N679 0.984 . S
H685 N679 0.985 . S
H686 N683 0.984 . S
H687 N683 0.985 . S
H688 N682 0.984 1_554 S
H689 N682 0.984 . S
H690 N678 0.984 . S
H691 N678 0.985 . S
C692 C693 1.363 . S
C692 C698 1.379 . S
C692 N700 1.356 . S
C693 C692 1.363 . S
C693 C699 1.363 . S
C694 C695 1.363 . S
C694 C699 1.379 . S
C694 N701 1.356 . S
C695 C694 1.363 . S
C695 C698 1.363 . S
N696 C698 1.356 . S
N696 H708 0.984 . S
N696 H709 0.985 . S
N697 C699 1.356 1_554 S
N697 H702 0.984 . S
N697 H703 0.985 . S
C698 C692 1.379 . S
C698 C695 1.363 . S
C698 N696 1.356 . S
C699 C693 1.363 . S
C699 C694 1.379 . S
C699 N697 1.356 1_556 S
N700 C692 1.356 . S
N700 H706 0.984 . S
N700 H707 0.984 . S
N701 C694 1.356 . S
N701 H704 0.984 . S
N701 H705 0.985 . S
H702 N697 0.984 . S
H703 N697 0.985 . S
H704 N701 0.984 . S
H705 N701 0.985 . S
H706 N700 0.984 . S
H707 N700 0.984 . S
H708 N696 0.984 . S
H709 N696 0.985 . S
C710 C711 1.363 . S
C710 C716 1.379 . S
C710 N718 1.356 . S
C711 C710 1.363 . S
C711 C717 1.363 . S
C712 C713 1.363 . S
C712 C717 1.379 . S
C712 N719 1.356 . S
C713 C712 1.363 . S
C713 C716 1.363 . S
N714 C716 1.356 . S
N714 H726 0.984 . S
N714 H727 0.985 . S
N715 C717 1.356 . S
N715 H720 0.984 . S
N715 H721 0.985 . S
C716 C710 1.379 . S
C716 C713 1.363 . S
C716 N714 1.356 . S
C717 C711 1.363 . S
C717 C712 1.379 . S
C717 N715 1.356 . S
N718 C710 1.356 . S
N718 H724 0.984 . S
N718 H725 0.984 . S
N719 C712 1.356 . S
N719 H722 0.984 . S
N719 H723 0.985 . S
H720 N715 0.984 . S
H721 N715 0.985 . S
H722 N719 0.984 . S
H723 N719 0.985 . S
H724 N718 0.984 . S
H725 N718 0.984 . S
H726 N714 0.984 . S
H727 N714 0.985 . S
C728 C729 1.363 . S
C728 C734 1.379 . S
C728 N736 1.356 . S
C729 C728 1.363 . S
C729 C735 1.363 . S
C730 C731 1.363 . S
C730 C735 1.379 . S
C730 N737 1.356 . S
C731 C730 1.363 . S
C731 C734 1.363 . S
N732 C734 1.356 . S
N732 H744 0.984 . S
N732 H745 0.985 . S
N733 C735 1.356 . S
N733 H738 0.984 . S
N733 H739 0.985 . S
C734 C728 1.379 . S
C734 C731 1.363 . S
C734 N732 1.356 . S
C735 C729 1.363 . S
C735 C730 1.379 . S
C735 N733 1.356 . S
N736 C728 1.356 . S
N736 H742 0.984 . S
N736 H743 0.984 . S
N737 C730 1.356 . S
N737 H740 0.984 . S
N737 H741 0.985 . S
H738 N733 0.984 . S
H739 N733 0.985 . S
H740 N737 0.984 . S
H741 N737 0.985 . S
H742 N736 0.984 . S
H743 N736 0.984 . S
H744 N732 0.984 . S
H745 N732 0.985 . S
C746 C747 1.359 1_565 S
C746 C752 1.379 . S
C746 N754 1.356 . S
C747 C746 1.359 1_545 S
C747 C753 1.368 . S
C748 C749 1.382 . S
C748 C753 1.379 . S
C748 N755 1.356 . S
C749 C748 1.382 . S
C749 C752 1.342 1_545 S
N750 C752 1.356 . S
N750 H762 0.984 . S
N750 H763 0.985 . S
N751 C753 1.356 . S
N751 H756 0.984 . S
N751 H757 0.985 . S
C752 C746 1.379 . S
C752 C749 1.342 1_565 S
C752 N750 1.356 . S
C753 C747 1.368 . S
C753 C748 1.379 . S
C753 N751 1.356 . S
N754 C746 1.356 . S
N754 H760 0.984 . S
N754 H761 0.984 . S
N755 C748 1.356 . S
N755 H758 0.984 . S
N755 H759 0.985 . S
H756 N751 0.984 . S
H757 N751 0.985 . S
H758 N755 0.984 . S
H759 N755 0.985 . S
H760 N754 0.984 . S
H761 N754 0.984 . S
H762 N750 0.984 . S
H763 N750 0.985 . S
C764 C765 1.363 . S
C764 C770 1.379 . S
C764 N772 1.356 . S
C765 C764 1.363 . S
C765 C771 1.363 . S
C766 C767 1.363 . S
C766 C771 1.379 . S
C766 N773 1.356 . S
C767 C766 1.363 . S
C767 C770 1.363 . S
N768 C770 1.356 . S
N768 H780 0.984 . S
N768 H781 0.985 . S
N769 C771 1.356 . S
N769 H774 0.984 . S
N769 H775 0.985 . S
C770 C764 1.379 . S
C770 C767 1.363 . S
C770 N768 1.356 . S
C771 C765 1.363 . S
C771 C766 1.379 . S
C771 N769 1.356 . S
N772 C764 1.356 . S
N772 H778 0.984 . S
N772 H779 0.984 . S
N773 C766 1.356 . S
N773 H776 0.984 . S
N773 H777 0.985 . S
H774 N769 0.984 . S
H775 N769 0.985 . S
H776 N773 0.984 . S
H777 N773 0.985 . S
H778 N772 0.984 . S
H779 N772 0.984 . S
H780 N768 0.984 . S
H781 N768 0.985 . S
C782 C783 1.363 . S
C782 C788 1.379 . S
C782 N790 1.356 . S
C783 C782 1.363 . S
C783 C789 1.363 . S
C784 C785 1.363 . S
C784 C789 1.379 . S
C784 N791 1.356 . S
C785 C784 1.363 . S
C785 C788 1.363 . S
N786 C788 1.356 . S
N786 H798 0.984 . S
N786 H799 0.985 . S
N787 C789 1.356 . S
N787 H792 0.984 . S
N787 H793 0.985 . S
C788 C782 1.379 . S
C788 C785 1.363 . S
C788 N786 1.356 . S
C789 C783 1.363 . S
C789 C784 1.379 . S
C789 N787 1.356 . S
N790 C782 1.356 . S
N790 H796 0.984 . S
N790 H797 0.984 . S
N791 C784 1.356 . S
N791 H794 0.984 . S
N791 H795 0.985 . S
H792 N787 0.984 . S
H793 N787 0.985 . S
H794 N791 0.984 . S
H795 N791 0.985 . S
H796 N790 0.984 . S
H797 N790 0.984 . S
H798 N786 0.984 . S
H799 N786 0.985 . S
C369 C241 1.579 . S
C371 C289 1.635 . S
C389 C324 2.350 . S
C387 C277 2.064 . S
C407 C329 1.528 . S
C405 C169 1.464 . S
C425 C349 2.093 . S
C423 C205 1.955 . S
C443 C297 1.633 . S
C441 C97 1.568 1_556 S
C459 C133 2.181 1_556 S
C461 C314 2.350 . S
C477 C25 1.510 . S
C479 C337 1.527 . S
C495 C61 1.841 . S
C497 C357 2.093 . S
C515 C307 1.976 . S
C513 C211 1.712 . S
C533 C316 0.966 1_545 S
C531 C247 0.950 . S
C551 C347 2.060 . S
C549 C253 1.705 . S
C567 C175 1.104 . S
C569 C367 1.225 . S
C585 C67 1.586 . S
C587 C296 1.976 . S
C605 C327 0.982 . S
C603 C103 0.945 . S
C623 C336 2.060 . S
C621 C109 1.812 . S
C639 C31 1.140 . S
C641 C356 1.225 . S
C657 C181 2.105 1_556 S
C659 C294 2.292 . S
C675 C217 1.896 . S
C677 C317 2.114 . S
C695 C334 2.490 . S
C693 C283 2.107 . S
C713 C354 2.211 . S
C711 C145 1.984 1_556 S
C729 C37 2.040 . S
C731 C304 2.292 . S
C749 C309 2.117 . S
C747 C73 1.896 . S
C767 C344 2.490 . S
C765 C139 2.202 . S
C783 C1 2.018 . S
C785 C364 2.210 . S
