# Generated by pormake.
# Topology tbo, (3,4)-cn, num edge types: 1
# Building blocks:
#     Node 0, Type 0, BuildingBlock: WUSLED_clean_sbu_0, # of connection points: 3
#     Node 1, Type 0, BuildingBlock: WUSLED_clean_sbu_0, # of connection points: 3
#     Node 2, Type 0, BuildingBlock: WUSLED_clean_sbu_0, # of connection points: 3
#     Node 3, Type 0, BuildingBlock: WUSLED_clean_sbu_0, # of connection points: 3
#     Node 4, Type 0, BuildingBlock: WUSLED_clean_sbu_0, # of connection points: 3
#     Node 5, Type 0, BuildingBlock: WUSLED_clean_sbu_0, # of connection points: 3
#     Node 6, Type 0, BuildingBlock: WUSLED_clean_sbu_0, # of connection points: 3
#     Node 7, Type 0, BuildingBlock: WUSLED_clean_sbu_0, # of connection points: 3
#     Node 8, Type 0, BuildingBlock: WUSLED_clean_sbu_0, # of connection points: 3
#     Node 9, Type 0, BuildingBlock: WUSLED_clean_sbu_0, # of connection points: 3
#     Node 10, Type 0, BuildingBlock: WUSLED_clean_sbu_0, # of connection points: 3
#     Node 11, Type 0, BuildingBlock: WUSLED_clean_sbu_0, # of connection points: 3
#     Node 12, Type 0, BuildingBlock: WUSLED_clean_sbu_0, # of connection points: 3
#     Node 13, Type 0, BuildingBlock: WUSLED_clean_sbu_0, # of connection points: 3
#     Node 14, Type 0, BuildingBlock: WUSLED_clean_sbu_0, # of connection points: 3
#     Node 15, Type 0, BuildingBlock: WUSLED_clean_sbu_0, # of connection points: 3
#     Node 16, Type 0, BuildingBlock: WUSLED_clean_sbu_0, # of connection points: 3
#     Node 17, Type 0, BuildingBlock: WUSLED_clean_sbu_0, # of connection points: 3
#     Node 18, Type 0, BuildingBlock: WUSLED_clean_sbu_0, # of connection points: 3
#     Node 19, Type 0, BuildingBlock: WUSLED_clean_sbu_0, # of connection points: 3
#     Node 20, Type 0, BuildingBlock: WUSLED_clean_sbu_0, # of connection points: 3
#     Node 21, Type 0, BuildingBlock: WUSLED_clean_sbu_0, # of connection points: 3
#     Node 22, Type 0, BuildingBlock: WUSLED_clean_sbu_0, # of connection points: 3
#     Node 23, Type 0, BuildingBlock: WUSLED_clean_sbu_0, # of connection points: 3
#     Node 24, Type 0, BuildingBlock: WUSLED_clean_sbu_0, # of connection points: 3
#     Node 25, Type 0, BuildingBlock: WUSLED_clean_sbu_0, # of connection points: 3
#     Node 26, Type 0, BuildingBlock: WUSLED_clean_sbu_0, # of connection points: 3
#     Node 27, Type 0, BuildingBlock: WUSLED_clean_sbu_0, # of connection points: 3
#     Node 28, Type 0, BuildingBlock: WUSLED_clean_sbu_0, # of connection points: 3
#     Node 29, Type 0, BuildingBlock: WUSLED_clean_sbu_0, # of connection points: 3
#     Node 30, Type 0, BuildingBlock: WUSLED_clean_sbu_0, # of connection points: 3
#     Node 31, Type 0, BuildingBlock: WUSLED_clean_sbu_0, # of connection points: 3
#     Node 32, Type 1, BuildingBlock: GIZVER_clean_linker_0, # of connection points: 4
#     Node 33, Type 1, BuildingBlock: GIZVER_clean_linker_0, # of connection points: 4
#     Node 34, Type 1, BuildingBlock: GIZVER_clean_linker_0, # of connection points: 4
#     Node 35, Type 1, BuildingBlock: GIZVER_clean_linker_0, # of connection points: 4
#     Node 36, Type 1, BuildingBlock: GIZVER_clean_linker_0, # of connection points: 4
#     Node 37, Type 1, BuildingBlock: GIZVER_clean_linker_0, # of connection points: 4
#     Node 38, Type 1, BuildingBlock: GIZVER_clean_linker_0, # of connection points: 4
#     Node 39, Type 1, BuildingBlock: GIZVER_clean_linker_0, # of connection points: 4
#     Node 40, Type 1, BuildingBlock: GIZVER_clean_linker_0, # of connection points: 4
#     Node 41, Type 1, BuildingBlock: GIZVER_clean_linker_0, # of connection points: 4
#     Node 42, Type 1, BuildingBlock: GIZVER_clean_linker_0, # of connection points: 4
#     Node 43, Type 1, BuildingBlock: GIZVER_clean_linker_0, # of connection points: 4
#     Node 44, Type 1, BuildingBlock: GIZVER_clean_linker_0, # of connection points: 4
#     Node 45, Type 1, BuildingBlock: GIZVER_clean_linker_0, # of connection points: 4
#     Node 46, Type 1, BuildingBlock: GIZVER_clean_linker_0, # of connection points: 4
#     Node 47, Type 1, BuildingBlock: GIZVER_clean_linker_0, # of connection points: 4
#     Node 48, Type 1, BuildingBlock: GIZVER_clean_linker_0, # of connection points: 4
#     Node 49, Type 1, BuildingBlock: GIZVER_clean_linker_0, # of connection points: 4
#     Node 50, Type 1, BuildingBlock: GIZVER_clean_linker_0, # of connection points: 4
#     Node 51, Type 1, BuildingBlock: GIZVER_clean_linker_0, # of connection points: 4
#     Node 52, Type 1, BuildingBlock: GIZVER_clean_linker_0, # of connection points: 4
#     Node 53, Type 1, BuildingBlock: GIZVER_clean_linker_0, # of connection points: 4
#     Node 54, Type 1, BuildingBlock: GIZVER_clean_linker_0, # of connection points: 4
#     Node 55, Type 1, BuildingBlock: GIZVER_clean_linker_0, # of connection points: 4
#     Edge 56, Type (0, 1), BuildingBlock: ZUJKAS_clean_linker_0, # of connection points: 2
#     Edge 57, Type (0, 1), BuildingBlock: ZUJKAS_clean_linker_0, # of connection points: 2
#     Edge 58, Type (0, 1), BuildingBlock: ZUJKAS_clean_linker_0, # of connection points: 2
#     Edge 59, Type (0, 1), BuildingBlock: ZUJKAS_clean_linker_0, # of connection points: 2
#     Edge 60, Type (0, 1), BuildingBlock: ZUJKAS_clean_linker_0, # of connection points: 2
#     Edge 61, Type (0, 1), BuildingBlock: ZUJKAS_clean_linker_0, # of connection points: 2
#     Edge 62, Type (0, 1), BuildingBlock: ZUJKAS_clean_linker_0, # of connection points: 2
#     Edge 63, Type (0, 1), BuildingBlock: ZUJKAS_clean_linker_0, # of connection points: 2
#     Edge 64, Type (0, 1), BuildingBlock: ZUJKAS_clean_linker_0, # of connection points: 2
#     Edge 65, Type (0, 1), BuildingBlock: ZUJKAS_clean_linker_0, # of connection points: 2
#     Edge 66, Type (0, 1), BuildingBlock: ZUJKAS_clean_linker_0, # of connection points: 2
#     Edge 67, Type (0, 1), BuildingBlock: ZUJKAS_clean_linker_0, # of connection points: 2
#     Edge 68, Type (0, 1), BuildingBlock: ZUJKAS_clean_linker_0, # of connection points: 2
#     Edge 69, Type (0, 1), BuildingBlock: ZUJKAS_clean_linker_0, # of connection points: 2
#     Edge 70, Type (0, 1), BuildingBlock: ZUJKAS_clean_linker_0, # of connection points: 2
#     Edge 71, Type (0, 1), BuildingBlock: ZUJKAS_clean_linker_0, # of connection points: 2
#     Edge 72, Type (0, 1), BuildingBlock: ZUJKAS_clean_linker_0, # of connection points: 2
#     Edge 73, Type (0, 1), BuildingBlock: ZUJKAS_clean_linker_0, # of connection points: 2
#     Edge 74, Type (0, 1), BuildingBlock: ZUJKAS_clean_linker_0, # of connection points: 2
#     Edge 75, Type (0, 1), BuildingBlock: ZUJKAS_clean_linker_0, # of connection points: 2
#     Edge 76, Type (0, 1), BuildingBlock: ZUJKAS_clean_linker_0, # of connection points: 2
#     Edge 77, Type (0, 1), BuildingBlock: ZUJKAS_clean_linker_0, # of connection points: 2
#     Edge 78, Type (0, 1), BuildingBlock: ZUJKAS_clean_linker_0, # of connection points: 2
#     Edge 79, Type (0, 1), BuildingBlock: ZUJKAS_clean_linker_0, # of connection points: 2
#     Edge 80, Type (0, 1), BuildingBlock: ZUJKAS_clean_linker_0, # of connection points: 2
#     Edge 81, Type (0, 1), BuildingBlock: ZUJKAS_clean_linker_0, # of connection points: 2
#     Edge 82, Type (0, 1), BuildingBlock: ZUJKAS_clean_linker_0, # of connection points: 2
#     Edge 83, Type (0, 1), BuildingBlock: ZUJKAS_clean_linker_0, # of connection points: 2
#     Edge 84, Type (0, 1), BuildingBlock: ZUJKAS_clean_linker_0, # of connection points: 2
#     Edge 85, Type (0, 1), BuildingBlock: ZUJKAS_clean_linker_0, # of connection points: 2
#     Edge 86, Type (0, 1), BuildingBlock: ZUJKAS_clean_linker_0, # of connection points: 2
#     Edge 87, Type (0, 1), BuildingBlock: ZUJKAS_clean_linker_0, # of connection points: 2
#     Edge 88, Type (0, 1), BuildingBlock: ZUJKAS_clean_linker_0, # of connection points: 2
#     Edge 89, Type (0, 1), BuildingBlock: ZUJKAS_clean_linker_0, # of connection points: 2
#     Edge 90, Type (0, 1), BuildingBlock: ZUJKAS_clean_linker_0, # of connection points: 2
#     Edge 91, Type (0, 1), BuildingBlock: ZUJKAS_clean_linker_0, # of connection points: 2
#     Edge 92, Type (0, 1), BuildingBlock: ZUJKAS_clean_linker_0, # of connection points: 2
#     Edge 93, Type (0, 1), BuildingBlock: ZUJKAS_clean_linker_0, # of connection points: 2
#     Edge 94, Type (0, 1), BuildingBlock: ZUJKAS_clean_linker_0, # of connection points: 2
#     Edge 95, Type (0, 1), BuildingBlock: ZUJKAS_clean_linker_0, # of connection points: 2
#     Edge 96, Type (0, 1), BuildingBlock: ZUJKAS_clean_linker_0, # of connection points: 2
#     Edge 97, Type (0, 1), BuildingBlock: ZUJKAS_clean_linker_0, # of connection points: 2
#     Edge 98, Type (0, 1), BuildingBlock: ZUJKAS_clean_linker_0, # of connection points: 2
#     Edge 99, Type (0, 1), BuildingBlock: ZUJKAS_clean_linker_0, # of connection points: 2
#     Edge 100, Type (0, 1), BuildingBlock: ZUJKAS_clean_linker_0, # of connection points: 2
#     Edge 101, Type (0, 1), BuildingBlock: ZUJKAS_clean_linker_0, # of connection points: 2
#     Edge 102, Type (0, 1), BuildingBlock: ZUJKAS_clean_linker_0, # of connection points: 2
#     Edge 103, Type (0, 1), BuildingBlock: ZUJKAS_clean_linker_0, # of connection points: 2
#     Edge 104, Type (0, 1), BuildingBlock: ZUJKAS_clean_linker_0, # of connection points: 2
#     Edge 105, Type (0, 1), BuildingBlock: ZUJKAS_clean_linker_0, # of connection points: 2
#     Edge 106, Type (0, 1), BuildingBlock: ZUJKAS_clean_linker_0, # of connection points: 2
#     Edge 107, Type (0, 1), BuildingBlock: ZUJKAS_clean_linker_0, # of connection points: 2
#     Edge 108, Type (0, 1), BuildingBlock: ZUJKAS_clean_linker_0, # of connection points: 2
#     Edge 109, Type (0, 1), BuildingBlock: ZUJKAS_clean_linker_0, # of connection points: 2
#     Edge 110, Type (0, 1), BuildingBlock: ZUJKAS_clean_linker_0, # of connection points: 2
#     Edge 111, Type (0, 1), BuildingBlock: ZUJKAS_clean_linker_0, # of connection points: 2
#     Edge 112, Type (0, 1), BuildingBlock: ZUJKAS_clean_linker_0, # of connection points: 2
#     Edge 113, Type (0, 1), BuildingBlock: ZUJKAS_clean_linker_0, # of connection points: 2
#     Edge 114, Type (0, 1), BuildingBlock: ZUJKAS_clean_linker_0, # of connection points: 2
#     Edge 115, Type (0, 1), BuildingBlock: ZUJKAS_clean_linker_0, # of connection points: 2
#     Edge 116, Type (0, 1), BuildingBlock: ZUJKAS_clean_linker_0, # of connection points: 2
#     Edge 117, Type (0, 1), BuildingBlock: ZUJKAS_clean_linker_0, # of connection points: 2
#     Edge 118, Type (0, 1), BuildingBlock: ZUJKAS_clean_linker_0, # of connection points: 2
#     Edge 119, Type (0, 1), BuildingBlock: ZUJKAS_clean_linker_0, # of connection points: 2
#     Edge 120, Type (0, 1), BuildingBlock: ZUJKAS_clean_linker_0, # of connection points: 2
#     Edge 121, Type (0, 1), BuildingBlock: ZUJKAS_clean_linker_0, # of connection points: 2
#     Edge 122, Type (0, 1), BuildingBlock: ZUJKAS_clean_linker_0, # of connection points: 2
#     Edge 123, Type (0, 1), BuildingBlock: ZUJKAS_clean_linker_0, # of connection points: 2
#     Edge 124, Type (0, 1), BuildingBlock: ZUJKAS_clean_linker_0, # of connection points: 2
#     Edge 125, Type (0, 1), BuildingBlock: ZUJKAS_clean_linker_0, # of connection points: 2
#     Edge 126, Type (0, 1), BuildingBlock: ZUJKAS_clean_linker_0, # of connection points: 2
#     Edge 127, Type (0, 1), BuildingBlock: ZUJKAS_clean_linker_0, # of connection points: 2
#     Edge 128, Type (0, 1), BuildingBlock: ZUJKAS_clean_linker_0, # of connection points: 2
#     Edge 129, Type (0, 1), BuildingBlock: ZUJKAS_clean_linker_0, # of connection points: 2
#     Edge 130, Type (0, 1), BuildingBlock: ZUJKAS_clean_linker_0, # of connection points: 2
#     Edge 131, Type (0, 1), BuildingBlock: ZUJKAS_clean_linker_0, # of connection points: 2
#     Edge 132, Type (0, 1), BuildingBlock: ZUJKAS_clean_linker_0, # of connection points: 2
#     Edge 133, Type (0, 1), BuildingBlock: ZUJKAS_clean_linker_0, # of connection points: 2
#     Edge 134, Type (0, 1), BuildingBlock: ZUJKAS_clean_linker_0, # of connection points: 2
#     Edge 135, Type (0, 1), BuildingBlock: ZUJKAS_clean_linker_0, # of connection points: 2
#     Edge 136, Type (0, 1), BuildingBlock: ZUJKAS_clean_linker_0, # of connection points: 2
#     Edge 137, Type (0, 1), BuildingBlock: ZUJKAS_clean_linker_0, # of connection points: 2
#     Edge 138, Type (0, 1), BuildingBlock: ZUJKAS_clean_linker_0, # of connection points: 2
#     Edge 139, Type (0, 1), BuildingBlock: ZUJKAS_clean_linker_0, # of connection points: 2
#     Edge 140, Type (0, 1), BuildingBlock: ZUJKAS_clean_linker_0, # of connection points: 2
#     Edge 141, Type (0, 1), BuildingBlock: ZUJKAS_clean_linker_0, # of connection points: 2
#     Edge 142, Type (0, 1), BuildingBlock: ZUJKAS_clean_linker_0, # of connection points: 2
#     Edge 143, Type (0, 1), BuildingBlock: ZUJKAS_clean_linker_0, # of connection points: 2
#     Edge 144, Type (0, 1), BuildingBlock: ZUJKAS_clean_linker_0, # of connection points: 2
#     Edge 145, Type (0, 1), BuildingBlock: ZUJKAS_clean_linker_0, # of connection points: 2
#     Edge 146, Type (0, 1), BuildingBlock: ZUJKAS_clean_linker_0, # of connection points: 2
#     Edge 147, Type (0, 1), BuildingBlock: ZUJKAS_clean_linker_0, # of connection points: 2
#     Edge 148, Type (0, 1), BuildingBlock: ZUJKAS_clean_linker_0, # of connection points: 2
#     Edge 149, Type (0, 1), BuildingBlock: ZUJKAS_clean_linker_0, # of connection points: 2
#     Edge 150, Type (0, 1), BuildingBlock: ZUJKAS_clean_linker_0, # of connection points: 2
#     Edge 151, Type (0, 1), BuildingBlock: ZUJKAS_clean_linker_0, # of connection points: 2
# Relax obj value: 0.000
# Max RMSD: 0.035
# Mean RMSD: 0.017
data_MOF--net-tbo--node1-WUSLED_clean_sbu_0--node2-GIZVER_clean_linker_0--edge1-ZUJKAS_clean_linker_0
_symmetry_space_group_name_H-M    P1
_symmetry_Int_Tables_number       1
_symmetry_cell_setting            triclinic
loop_
_symmetry_equiv_pos_as_xyz
'x, y, z'
_cell_length_a     117.02787
_cell_length_b     117.43707
_cell_length_c     117.10643
_cell_angle_alpha  89.677894
_cell_angle_beta   90.397095
_cell_angle_gamma 90.878343
loop_
_atom_site_label
_atom_site_type_symbol
_atom_site_fract_x
_atom_site_fract_y
_atom_site_fract_z
_atom_type_partial_charge
C0 C 0.1759 0.14498 0.19272 0.0
C1 C 0.18787 0.14536 0.19371 0.0
C2 C 0.18798 0.12566 0.20054 0.0
C3 C 0.19384 0.13582 0.1976 0.0
C4 C 0.176 0.12527 0.19929 0.0
C5 C 0.17005 0.13482 0.19546 0.0
U6 U 0.17013 0.17102 0.17342 0.0
O7 O 0.15373 0.17742 0.16682 0.0
O8 O 0.16441 0.18814 0.178 0.0
C9 C 0.15461 0.18698 0.17255 0.0
C10 C 0.16927 0.15508 0.18924 0.0
C11 C 0.14439 0.19038 0.1789 0.0
C12 C 0.13217 0.18945 0.19563 0.0
C13 C 0.14174 0.1857 0.18963 0.0
C14 C 0.12776 0.20245 0.18015 0.0
C15 C 0.12511 0.19795 0.191 0.0
C16 C 0.13729 0.19871 0.17419 0.0
C17 C 0.19051 0.17789 0.14834 0.0
C18 C 0.18732 0.18629 0.12952 0.0
C19 C 0.20615 0.18724 0.13816 0.0
C20 C 0.20201 0.1814 0.14776 0.0
C21 C 0.1989 0.18965 0.12884 0.0
C22 C 0.18316 0.18049 0.13917 0.0
C23 C 0.18664 0.17106 0.1583 0.0
O24 O 0.1742 0.16509 0.1908 0.0
O25 O 0.16372 0.1543 0.17947 0.0
O26 O 0.17706 0.16517 0.1571 0.0
O27 O 0.18764 0.17596 0.16833 0.0
H28 H 0.19263 0.15308 0.19163 0.0
H29 H 0.20303 0.13652 0.19856 0.0
H30 H 0.17119 0.11756 0.20125 0.0
H31 H 0.16082 0.1343 0.19473 0.0
H32 H 0.13046 0.18586 0.20399 0.0
H33 H 0.14713 0.17926 0.19341 0.0
H34 H 0.12242 0.20885 0.17622 0.0
H35 H 0.13917 0.20239 0.16589 0.0
H36 H 0.1815 0.18789 0.12249 0.0
H37 H 0.21505 0.18988 0.13807 0.0
H38 H 0.20785 0.17951 0.15471 0.0
H39 H 0.17425 0.17789 0.13935 0.0
C40 C 0.82836 0.17423 0.14656 0.0
C41 C 0.83347 0.18466 0.14342 0.0
C42 C 0.82032 0.18629 0.12724 0.0
C43 C 0.82949 0.19064 0.13384 0.0
C44 C 0.81536 0.17574 0.13038 0.0
C45 C 0.81934 0.16978 0.13995 0.0
U46 U 0.84893 0.1699 0.1717 0.0
O47 O 0.8453 0.16502 0.18949 0.0
O48 O 0.85584 0.15404 0.17889 0.0
C49 C 0.85053 0.15524 0.18866 0.0
C50 C 0.83218 0.16795 0.15676 0.0
C51 C 0.84402 0.1452 0.1927 0.0
C52 C 0.82733 0.13262 0.19187 0.0
C53 C 0.8335 0.14207 0.18771 0.0
C54 C 0.84221 0.12928 0.20592 0.0
C55 C 0.83158 0.12614 0.20108 0.0
C56 C 0.84835 0.13872 0.20177 0.0
C57 C 0.87421 0.1907 0.17592 0.0
C58 C 0.88641 0.19097 0.19281 0.0
C59 C 0.89087 0.20327 0.17672 0.0
C60 C 0.88131 0.19896 0.17085 0.0
C61 C 0.8935 0.19941 0.18782 0.0
C62 C 0.87685 0.18665 0.18691 0.0
C63 C 0.86402 0.18657 0.16967 0.0
O64 O 0.84192 0.16263 0.15579 0.0
O65 O 0.83124 0.17338 0.16649 0.0
O66 O 0.85425 0.18762 0.175 0.0
O67 O 0.86502 0.17671 0.16456 0.0
H68 H 0.84045 0.18822 0.14845 0.0
H69 H 0.83343 0.19878 0.13175 0.0
H70 H 0.80842 0.17204 0.12541 0.0
H71 H 0.81533 0.16171 0.14222 0.0
H72 H 0.81913 0.13052 0.18801 0.0
H73 H 0.83002 0.147 0.18069 0.0
H74 H 0.84584 0.1244 0.2129 0.0
H75 H 0.85648 0.14099 0.20569 0.0
H76 H 0.88811 0.18788 0.20138 0.0
H77 H 0.89622 0.2096 0.17253 0.0
H78 H 0.87943 0.20214 0.16235 0.0
H79 H 0.87145 0.18025 0.19096 0.0
C80 C 0.83054 0.84401 0.14669 0.0
C81 C 0.83198 0.83217 0.14626 0.0
C82 C 0.82322 0.83156 0.12728 0.0
C83 C 0.82832 0.82599 0.13666 0.0
C84 C 0.82202 0.84345 0.12768 0.0
C85 C 0.82562 0.84959 0.13729 0.0
U86 U 0.84952 0.85045 0.17301 0.0
O87 O 0.85558 0.86707 0.17954 0.0
O88 O 0.84464 0.85605 0.19016 0.0
C89 C 0.84964 0.86609 0.18899 0.0
C90 C 0.83377 0.85071 0.15688 0.0
C91 C 0.84296 0.87616 0.19229 0.0
C92 C 0.82515 0.88504 0.19779 0.0
C93 C 0.83107 0.87555 0.1939 0.0
C94 C 0.84282 0.89599 0.19825 0.0
C95 C 0.83096 0.89537 0.20013 0.0
C96 C 0.84874 0.8865 0.19441 0.0
C97 C 0.87531 0.83132 0.17989 0.0
C98 C 0.88436 0.82642 0.19802 0.0
C99 C 0.8949 0.82465 0.18042 0.0
C100 C 0.88542 0.82853 0.17427 0.0
C101 C 0.89447 0.8234 0.19238 0.0
C102 C 0.87489 0.83036 0.19185 0.0
C103 C 0.86524 0.8347 0.17301 0.0
O104 O 0.83233 0.84566 0.16683 0.0
O105 O 0.84342 0.85655 0.15623 0.0
O106 O 0.86624 0.84431 0.16728 0.0
O107 O 0.85515 0.83327 0.17775 0.0
H108 H 0.83584 0.82768 0.15338 0.0
H109 H 0.82949 0.81687 0.13658 0.0
H110 H 0.81801 0.848 0.12069 0.0
H111 H 0.82441 0.85872 0.13745 0.0
H112 H 0.81605 0.88417 0.19925 0.0
H113 H 0.82637 0.86769 0.19234 0.0
H114 H 0.84757 0.90383 0.19974 0.0
H115 H 0.8579 0.8872 0.19324 0.0
H116 H 0.88365 0.82547 0.20719 0.0
H117 H 0.90257 0.82263 0.17579 0.0
H118 H 0.88596 0.82923 0.16505 0.0
H119 H 0.8672 0.83246 0.19642 0.0
C120 C 0.14359 0.8285 0.17791 0.0
C121 C 0.13905 0.83516 0.18665 0.0
C122 C 0.124 0.82089 0.1899 0.0
C123 C 0.12934 0.83138 0.1926 0.0
C124 C 0.12867 0.81427 0.18115 0.0
C125 C 0.13835 0.81805 0.17522 0.0
U126 U 0.16924 0.84867 0.17279 0.0
O127 O 0.18681 0.84454 0.16775 0.0
O128 O 0.17627 0.85533 0.15667 0.0
C129 C 0.18585 0.84971 0.15781 0.0
C130 C 0.1538 0.83222 0.17152 0.0
C131 C 0.18973 0.84325 0.14777 0.0
C132 C 0.18641 0.83481 0.12905 0.0
C133 C 0.18231 0.84041 0.13869 0.0
C134 C 0.20533 0.83455 0.13751 0.0
C135 C 0.19801 0.83188 0.12828 0.0
C136 C 0.20124 0.8402 0.1471 0.0
C137 C 0.17466 0.87394 0.19297 0.0
C138 C 0.19111 0.88679 0.19169 0.0
C139 C 0.17678 0.88974 0.20615 0.0
C140 C 0.17062 0.88026 0.20216 0.0
C141 C 0.18715 0.89311 0.20102 0.0
C142 C 0.18493 0.87728 0.1877 0.0
C143 C 0.1681 0.86386 0.18914 0.0
O144 O 0.15296 0.84192 0.16593 0.0
O145 O 0.16359 0.83118 0.17694 0.0
O146 O 0.17323 0.85405 0.19036 0.0
O147 O 0.16275 0.86488 0.17929 0.0
H148 H 0.14301 0.84326 0.18885 0.0
H149 H 0.12593 0.83675 0.19921 0.0
H150 H 0.12494 0.80606 0.17898 0.0
H151 H 0.14177 0.81277 0.16854 0.0
H152 H 0.18053 0.83299 0.12209 0.0
H153 H 0.17337 0.84264 0.13896 0.0
H154 H 0.21425 0.83224 0.13737 0.0
H155 H 0.20712 0.84227 0.154 0.0
H156 H 0.19911 0.88907 0.18761 0.0
H157 H 0.17336 0.89449 0.21322 0.0
H158 H 0.16268 0.87784 0.2063 0.0
H159 H 0.18818 0.87248 0.18059 0.0
C160 C 0.14476 0.82988 0.84606 0.0
C161 C 0.1404 0.83665 0.83718 0.0
C162 C 0.12524 0.82257 0.83361 0.0
C163 C 0.13071 0.83303 0.83101 0.0
C164 C 0.12971 0.81584 0.84252 0.0
C165 C 0.13936 0.81947 0.84868 0.0
U166 U 0.17042 0.84986 0.85132 0.0
O167 O 0.17743 0.85667 0.8674 0.0
O168 O 0.18796 0.84575 0.85671 0.0
C169 C 0.18698 0.85099 0.86654 0.0
C170 C 0.15494 0.83347 0.85263 0.0
C171 C 0.19075 0.84453 0.87674 0.0
C172 C 0.18724 0.83615 0.8955 0.0
C173 C 0.18328 0.84189 0.88577 0.0
C174 C 0.20613 0.83539 0.88726 0.0
C175 C 0.19874 0.83286 0.8964 0.0
C176 C 0.20218 0.84119 0.87758 0.0
C177 C 0.17607 0.87503 0.83077 0.0
C178 C 0.18537 0.89339 0.83426 0.0
C179 C 0.18449 0.88583 0.81508 0.0
C180 C 0.17864 0.87617 0.81914 0.0
C181 C 0.18784 0.89463 0.82255 0.0
C182 C 0.17957 0.88368 0.83833 0.0
C183 C 0.16947 0.86492 0.83468 0.0
O184 O 0.16475 0.83235 0.84741 0.0
O185 O 0.15414 0.84318 0.85807 0.0
O186 O 0.16387 0.86592 0.84432 0.0
O187 O 0.17455 0.85508 0.83369 0.0
H188 H 0.14447 0.84472 0.83503 0.0
H189 H 0.12745 0.83847 0.82428 0.0
H190 H 0.12586 0.80766 0.84464 0.0
H191 H 0.14265 0.81411 0.85547 0.0
H192 H 0.18133 0.83447 0.9024 0.0
H193 H 0.1744 0.84435 0.88537 0.0
H194 H 0.21497 0.83282 0.88753 0.0
H195 H 0.2081 0.8431 0.87073 0.0
H196 H 0.1877 0.90002 0.84026 0.0
H197 H 0.18644 0.88634 0.80606 0.0
H198 H 0.17606 0.86959 0.81316 0.0
H199 H 0.17773 0.88302 0.84736 0.0
C200 C 0.14338 0.17408 0.8315 0.0
C201 C 0.13986 0.18377 0.83739 0.0
C202 C 0.12411 0.1863 0.82386 0.0
C203 C 0.13031 0.18984 0.83361 0.0
C204 C 0.1277 0.17655 0.81804 0.0
C205 C 0.13723 0.17051 0.82183 0.0
U206 U 0.16895 0.16897 0.85154 0.0
O207 O 0.17567 0.15284 0.85829 0.0
O208 O 0.18642 0.16378 0.84741 0.0
C209 C 0.18538 0.15397 0.85279 0.0
C210 C 0.15347 0.16763 0.8352 0.0
C211 C 0.18911 0.14391 0.84644 0.0
C212 C 0.18733 0.13078 0.8305 0.0
C213 C 0.1834 0.14022 0.83652 0.0
C214 C 0.20265 0.12859 0.84431 0.0
C215 C 0.19708 0.12489 0.83427 0.0
C216 C 0.19871 0.138 0.85031 0.0
C217 C 0.17465 0.18958 0.87654 0.0
C218 C 0.18889 0.18692 0.89153 0.0
C219 C 0.17878 0.20472 0.89008 0.0
C220 C 0.17269 0.20055 0.88064 0.0
C221 C 0.18699 0.19798 0.89564 0.0
C222 C 0.18279 0.18277 0.88203 0.0
C223 C 0.16808 0.18552 0.86654 0.0
O224 O 0.16337 0.17291 0.83399 0.0
O225 O 0.15254 0.1622 0.845 0.0
O226 O 0.16261 0.17573 0.86776 0.0
O227 O 0.17322 0.18656 0.85664 0.0
H228 H 0.14451 0.18665 0.8449 0.0
H229 H 0.12774 0.19724 0.83837 0.0
H230 H 0.12328 0.17367 0.8104 0.0
H231 H 0.13985 0.16307 0.81714 0.0
H232 H 0.1829 0.12824 0.82275 0.0
H233 H 0.17597 0.14471 0.83339 0.0
H234 H 0.21005 0.12418 0.84758 0.0
H235 H 0.20321 0.1407 0.85797 0.0
H236 H 0.19522 0.18155 0.89554 0.0
H237 H 0.17696 0.21319 0.89311 0.0
H238 H 0.16641 0.20593 0.87654 0.0
H239 H 0.18445 0.17427 0.87894 0.0
C240 C 0.82943 0.14456 0.84997 0.0
C241 C 0.83329 0.14278 0.83881 0.0
C242 C 0.82226 0.12499 0.83774 0.0
C243 C 0.82971 0.13309 0.83273 0.0
C244 C 0.81858 0.12678 0.849 0.0
C245 C 0.82212 0.13646 0.85503 0.0
U246 U 0.84831 0.17114 0.85505 0.0
O247 O 0.8433 0.1884 0.86013 0.0
O248 O 0.85468 0.17846 0.87118 0.0
C249 C 0.84861 0.18774 0.87002 0.0
C250 C 0.83267 0.15489 0.85639 0.0
C251 C 0.84197 0.19124 0.88006 0.0
C252 C 0.831 0.18688 0.89718 0.0
C253 C 0.83707 0.18324 0.88761 0.0
C254 C 0.8345 0.20652 0.89164 0.0
C255 C 0.82964 0.19857 0.8993 0.0
C256 C 0.84061 0.20288 0.88215 0.0
C257 C 0.87326 0.17792 0.83445 0.0
C258 C 0.89226 0.18636 0.83698 0.0
C259 C 0.88273 0.18761 0.81862 0.0
C260 C 0.87331 0.18165 0.82305 0.0
C261 C 0.89241 0.18994 0.82548 0.0
C262 C 0.88279 0.18043 0.84142 0.0
C263 C 0.86345 0.17095 0.83859 0.0
O264 O 0.84249 0.15454 0.8619 0.0
O265 O 0.83104 0.16462 0.85107 0.0
O266 O 0.8533 0.17546 0.83741 0.0
O267 O 0.86479 0.16552 0.84835 0.0
H268 H 0.83898 0.14893 0.83477 0.0
H269 H 0.83281 0.13193 0.82413 0.0
H270 H 0.81272 0.12082 0.85308 0.0
H271 H 0.81903 0.13771 0.86363 0.0
H272 H 0.82726 0.18054 0.90283 0.0
H273 H 0.83793 0.1742 0.88613 0.0
H274 H 0.83374 0.21558 0.89308 0.0
H275 H 0.84434 0.20919 0.87644 0.0
H276 H 0.89958 0.18789 0.8425 0.0
H277 H 0.88242 0.19041 0.8098 0.0
H278 H 0.86608 0.17982 0.81749 0.0
H279 H 0.88303 0.17766 0.85026 0.0
C280 C 0.84306 0.8741 0.83045 0.0
C281 C 0.8376 0.8812 0.83826 0.0
C282 C 0.83068 0.89317 0.82263 0.0
C283 C 0.83151 0.89068 0.83439 0.0
C284 C 0.83609 0.88595 0.81487 0.0
C285 C 0.84222 0.87654 0.81874 0.0
U286 U 0.84959 0.84934 0.85111 0.0
O287 O 0.85484 0.83185 0.84721 0.0
O288 O 0.86616 0.84306 0.85725 0.0
C289 C 0.8649 0.8332 0.85211 0.0
C290 C 0.84978 0.8642 0.83423 0.0
C291 C 0.87478 0.8293 0.84551 0.0
C292 C 0.88981 0.83244 0.83152 0.0
C293 C 0.88022 0.83632 0.83739 0.0
C294 C 0.88849 0.81448 0.84171 0.0
C295 C 0.89412 0.82149 0.83366 0.0
C296 C 0.87895 0.81836 0.84756 0.0
C297 C 0.83057 0.8443 0.87746 0.0
C298 C 0.83038 0.82722 0.88934 0.0
C299 C 0.81981 0.84376 0.89515 0.0
C300 C 0.82349 0.84959 0.88536 0.0
C301 C 0.82314 0.83247 0.89725 0.0
C302 C 0.83409 0.8331 0.87955 0.0
C303 C 0.8339 0.85055 0.86701 0.0
O304 O 0.85584 0.86549 0.84365 0.0
O305 O 0.84454 0.85425 0.83361 0.0
O306 O 0.83236 0.84508 0.85734 0.0
O307 O 0.84367 0.8562 0.86749 0.0
H308 H 0.83807 0.87944 0.84734 0.0
H309 H 0.82733 0.89598 0.84059 0.0
H310 H 0.83575 0.88768 0.80578 0.0
H311 H 0.84639 0.87118 0.81257 0.0
H312 H 0.89396 0.8381 0.82545 0.0
H313 H 0.87712 0.84481 0.83568 0.0
H314 H 0.8914 0.80592 0.84343 0.0
H315 H 0.87483 0.81279 0.85375 0.0
H316 H 0.83321 0.81859 0.89074 0.0
H317 H 0.81412 0.84802 0.90093 0.0
H318 H 0.82065 0.85822 0.88388 0.0
H319 H 0.83961 0.82887 0.87357 0.0
C320 C 0.17581 0.64467 0.69339 0.0
C321 C 0.17108 0.63366 0.69232 0.0
C322 C 0.18786 0.62538 0.70144 0.0
C323 C 0.17703 0.62413 0.69624 0.0
C324 C 0.19263 0.63641 0.70243 0.0
C325 C 0.18669 0.64593 0.69846 0.0
U326 U 0.16951 0.67038 0.67372 0.0
O327 O 0.15301 0.67658 0.66719 0.0
O328 O 0.16378 0.68756 0.67804 0.0
C329 C 0.15392 0.68626 0.67272 0.0
C330 C 0.16902 0.6547 0.68984 0.0
C331 C 0.14374 0.68978 0.67906 0.0
C332 C 0.13175 0.68933 0.69597 0.0
C333 C 0.14129 0.68548 0.69 0.0
C334 C 0.12697 0.70168 0.68006 0.0
C335 C 0.12452 0.69757 0.6911 0.0
C336 C 0.13648 0.69783 0.67413 0.0
C337 C 0.1895 0.67675 0.64837 0.0
C338 C 0.18617 0.69124 0.63384 0.0
C339 C 0.20374 0.68061 0.6338 0.0
C340 C 0.20011 0.67456 0.64346 0.0
C341 C 0.19682 0.68901 0.62881 0.0
C342 C 0.18255 0.68516 0.64353 0.0
C343 C 0.18588 0.67009 0.65845 0.0
O344 O 0.17382 0.66481 0.69117 0.0
O345 O 0.16329 0.65376 0.68018 0.0
O346 O 0.17623 0.6643 0.65739 0.0
O347 O 0.18692 0.67526 0.66834 0.0
H348 H 0.16268 0.6324 0.68853 0.0
H349 H 0.17313 0.61578 0.69519 0.0
H350 H 0.20085 0.63775 0.70654 0.0
H351 H 0.19058 0.65429 0.69955 0.0
H352 H 0.13019 0.68604 0.70448 0.0
H353 H 0.14681 0.67925 0.69395 0.0
H354 H 0.1215 0.70785 0.67596 0.0
H355 H 0.1382 0.70121 0.66568 0.0
H356 H 0.18057 0.69758 0.63019 0.0
H357 H 0.21207 0.6788 0.63032 0.0
H358 H 0.20562 0.66813 0.6471 0.0
H359 H 0.17431 0.68697 0.64722 0.0
C360 C 0.82659 0.67693 0.64721 0.0
C361 C 0.83389 0.68058 0.63839 0.0
C362 C 0.81776 0.68857 0.62791 0.0
C363 C 0.82951 0.68631 0.62883 0.0
C364 C 0.81054 0.68506 0.63688 0.0
C365 C 0.8149 0.67928 0.64638 0.0
U366 U 0.84765 0.67197 0.67208 0.0
O367 O 0.84419 0.66611 0.68962 0.0
O368 O 0.85503 0.656 0.67846 0.0
C369 C 0.84973 0.65656 0.6883 0.0
C370 C 0.83083 0.67042 0.65718 0.0
C371 C 0.84359 0.64614 0.6919 0.0
C372 C 0.82829 0.63209 0.68945 0.0
C373 C 0.83405 0.642 0.6858 0.0
C374 C 0.84157 0.6304 0.70531 0.0
C375 C 0.83199 0.62616 0.69926 0.0
C376 C 0.8473 0.64029 0.70165 0.0
C377 C 0.87247 0.69325 0.6773 0.0
C378 C 0.8907 0.69011 0.68689 0.0
C379 C 0.88344 0.70923 0.68502 0.0
C380 C 0.87377 0.70495 0.67931 0.0
C381 C 0.89209 0.70188 0.68881 0.0
C382 C 0.88097 0.68583 0.68122 0.0
C383 C 0.8623 0.6891 0.67094 0.0
O384 O 0.84063 0.66523 0.65598 0.0
O385 O 0.82981 0.67537 0.66715 0.0
O386 O 0.85254 0.68964 0.67637 0.0
O387 O 0.86342 0.67962 0.66515 0.0
H388 H 0.84296 0.67891 0.6388 0.0
H389 H 0.83532 0.68877 0.62207 0.0
H390 H 0.80149 0.68684 0.63661 0.0
H391 H 0.80912 0.67658 0.65309 0.0
H392 H 0.82102 0.62902 0.68453 0.0
H393 H 0.83107 0.64643 0.67822 0.0
H394 H 0.84454 0.62619 0.713 0.0
H395 H 0.85461 0.6434 0.7065 0.0
H396 H 0.89721 0.6842 0.68958 0.0
H397 H 0.88407 0.7183 0.68654 0.0
H398 H 0.86729 0.71082 0.67641 0.0
H399 H 0.88016 0.67674 0.67982 0.0
C400 C 0.82939 0.34563 0.64756 0.0
C401 C 0.83376 0.33486 0.64508 0.0
C402 C 0.82171 0.33366 0.62798 0.0
C403 C 0.82995 0.32893 0.63537 0.0
C404 C 0.81751 0.34453 0.63048 0.0
C405 C 0.82131 0.35043 0.64016 0.0
U406 U 0.84883 0.35088 0.67381 0.0
O407 O 0.85525 0.36714 0.6808 0.0
O408 O 0.84404 0.35613 0.69113 0.0
C409 C 0.84939 0.36601 0.69029 0.0
C410 C 0.83294 0.35195 0.65786 0.0
C411 C 0.84285 0.37601 0.69381 0.0
C412 C 0.82893 0.39078 0.69004 0.0
C413 C 0.83498 0.38123 0.68644 0.0
C414 C 0.83851 0.3899 0.70841 0.0
C415 C 0.83065 0.39526 0.70108 0.0
C416 C 0.84454 0.38039 0.70481 0.0
C417 C 0.87404 0.33093 0.68044 0.0
C418 C 0.89299 0.33413 0.68871 0.0
C419 C 0.88384 0.31559 0.69036 0.0
C420 C 0.87433 0.31962 0.68436 0.0
C421 C 0.89337 0.32274 0.69252 0.0
C422 C 0.88343 0.33819 0.68275 0.0
C423 C 0.86411 0.3347 0.67352 0.0
O424 O 0.8315 0.3466 0.66765 0.0
O425 O 0.84276 0.3575 0.65724 0.0
O426 O 0.86527 0.34436 0.66787 0.0
O427 O 0.85402 0.33342 0.67827 0.0
H428 H 0.84002 0.33101 0.6507 0.0
H429 H 0.8333 0.32054 0.63378 0.0
H430 H 0.81132 0.34854 0.62491 0.0
H431 H 0.81788 0.35875 0.64191 0.0
H432 H 0.82303 0.39474 0.68412 0.0
H433 H 0.83354 0.37796 0.67792 0.0
H434 H 0.83991 0.39294 0.71703 0.0
H435 H 0.85053 0.37643 0.71064 0.0
H436 H 0.90019 0.33988 0.69009 0.0
H437 H 0.8837 0.30684 0.69333 0.0
H438 H 0.86722 0.31384 0.68269 0.0
H439 H 0.88349 0.34695 0.67983 0.0
C440 C 0.14589 0.32841 0.6789 0.0
C441 C 0.13757 0.33587 0.68295 0.0
C442 C 0.12659 0.31985 0.69084 0.0
C443 C 0.12801 0.33163 0.68884 0.0
C444 C 0.13508 0.31247 0.68696 0.0
C445 C 0.14458 0.31671 0.68103 0.0
U446 U 0.17111 0.34906 0.67283 0.0
O447 O 0.1884 0.34537 0.66681 0.0
O448 O 0.17712 0.35603 0.65636 0.0
C449 C 0.18684 0.35059 0.65696 0.0
C450 C 0.15577 0.3325 0.67213 0.0
C451 C 0.1902 0.34434 0.6466 0.0
C452 C 0.19517 0.32686 0.63683 0.0
C453 C 0.19125 0.33243 0.64657 0.0
C454 C 0.19671 0.34494 0.62691 0.0
C455 C 0.19807 0.33305 0.6269 0.0
C456 C 0.19286 0.35051 0.63665 0.0
C457 C 0.17739 0.37397 0.69353 0.0
C458 C 0.1863 0.3926 0.69037 0.0
C459 C 0.186 0.38439 0.70938 0.0
C460 C 0.18023 0.37477 0.70515 0.0
C461 C 0.18901 0.39351 0.70208 0.0
C462 C 0.18056 0.38292 0.68614 0.0
C463 C 0.17079 0.36389 0.68955 0.0
O464 O 0.1546 0.34223 0.66666 0.0
O465 O 0.16587 0.3314 0.67695 0.0
O466 O 0.17601 0.35408 0.69031 0.0
O467 O 0.16483 0.36503 0.68005 0.0
H468 H 0.13837 0.34496 0.68145 0.0
H469 H 0.12162 0.33757 0.69161 0.0
H470 H 0.13443 0.30339 0.68853 0.0
H471 H 0.1509 0.3108 0.67803 0.0
H472 H 0.19622 0.31772 0.63722 0.0
H473 H 0.18924 0.32744 0.65411 0.0
H474 H 0.19864 0.34998 0.61937 0.0
H475 H 0.19208 0.35969 0.63646 0.0
H476 H 0.18839 0.39947 0.68451 0.0
H477 H 0.18814 0.38465 0.71838 0.0
H478 H 0.17791 0.36796 0.71101 0.0
H479 H 0.17849 0.38252 0.67712 0.0
C480 C 0.1443 0.3296 0.3471 0.0
C481 C 0.1434 0.33165 0.33531 0.0
C482 C 0.12503 0.32158 0.33472 0.0
C483 C 0.13387 0.32763 0.32916 0.0
C484 C 0.12591 0.31972 0.34657 0.0
C485 C 0.13546 0.32367 0.35269 0.0
U486 U 0.16946 0.3502 0.35249 0.0
O487 O 0.17606 0.35712 0.36875 0.0
O488 O 0.18708 0.34679 0.35797 0.0
C489 C 0.18583 0.35182 0.36788 0.0
C490 C 0.15438 0.33345 0.35373 0.0
C491 C 0.1895 0.34532 0.37806 0.0
C492 C 0.1931 0.3274 0.3879 0.0
C493 C 0.18915 0.33336 0.3783 0.0
C494 C 0.19751 0.34527 0.39728 0.0
C495 C 0.1974 0.33327 0.3975 0.0
C496 C 0.19363 0.35121 0.38765 0.0
C497 C 0.17417 0.37542 0.33187 0.0
C498 C 0.18911 0.38987 0.3342 0.0
C499 C 0.17673 0.39025 0.31754 0.0
C500 C 0.17094 0.38055 0.32154 0.0
C501 C 0.18589 0.39506 0.32381 0.0
C502 C 0.18329 0.38013 0.3382 0.0
C503 C 0.16794 0.36518 0.33581 0.0
O504 O 0.16431 0.33254 0.34867 0.0
O505 O 0.15328 0.34313 0.35917 0.0
O506 O 0.16252 0.36613 0.34555 0.0
O507 O 0.1734 0.35554 0.33489 0.0
H508 H 0.15009 0.3363 0.33084 0.0
H509 H 0.13339 0.32931 0.32007 0.0
H510 H 0.11932 0.31498 0.35109 0.0
H511 H 0.136 0.32201 0.36178 0.0
H512 H 0.193 0.31819 0.38767 0.0
H513 H 0.18595 0.3286 0.37101 0.0
H514 H 0.20055 0.3501 0.40457 0.0
H515 H 0.19391 0.36044 0.38768 0.0
H516 H 0.19604 0.39339 0.33929 0.0
H517 H 0.17414 0.39388 0.30942 0.0
H518 H 0.16395 0.37699 0.31652 0.0
H519 H 0.1859 0.37627 0.34621 0.0
C520 C 0.14492 0.67417 0.33107 0.0
C521 C 0.14011 0.68237 0.33819 0.0
C522 C 0.12555 0.68643 0.32373 0.0
C523 C 0.13051 0.68844 0.33455 0.0
C524 C 0.13049 0.67823 0.31665 0.0
C525 C 0.14006 0.67217 0.32029 0.0
U526 U 0.17044 0.66861 0.35107 0.0
O527 O 0.17714 0.65235 0.35748 0.0
O528 O 0.18793 0.6635 0.34685 0.0
C529 C 0.18689 0.65361 0.35207 0.0
C530 C 0.155 0.66765 0.33467 0.0
C531 C 0.19089 0.64367 0.34569 0.0
C532 C 0.18804 0.62854 0.33177 0.0
C533 C 0.18391 0.63799 0.33767 0.0
C534 C 0.20612 0.63043 0.34182 0.0
C535 C 0.19923 0.62467 0.33375 0.0
C536 C 0.20198 0.63981 0.34771 0.0
C537 C 0.17643 0.68866 0.37655 0.0
C538 C 0.18437 0.68556 0.3956 0.0
C539 C 0.1862 0.7041 0.38663 0.0
C540 C 0.18035 0.7 0.37701 0.0
C541 C 0.1882 0.69697 0.39612 0.0
C542 C 0.17856 0.68144 0.38592 0.0
C543 C 0.16976 0.68481 0.36644 0.0
O544 O 0.16491 0.67294 0.33358 0.0
O545 O 0.15405 0.662 0.34435 0.0
O546 O 0.16405 0.67511 0.36738 0.0
O547 O 0.17478 0.68609 0.35651 0.0
H548 H 0.14376 0.68405 0.34655 0.0
H549 H 0.12689 0.69461 0.34028 0.0
H550 H 0.12707 0.67659 0.30819 0.0
H551 H 0.14369 0.66592 0.31466 0.0
H552 H 0.18254 0.62437 0.32554 0.0
H553 H 0.17532 0.64088 0.33596 0.0
H554 H 0.21469 0.6276 0.34371 0.0
H555 H 0.20748 0.64405 0.3539 0.0
H556 H 0.18564 0.67984 0.40277 0.0
H557 H 0.18919 0.71287 0.3866 0.0
H558 H 0.17882 0.70575 0.36991 0.0
H559 H 0.17563 0.67265 0.38586 0.0
C560 C 0.82737 0.64435 0.34993 0.0
C561 C 0.83182 0.64179 0.33916 0.0
C562 C 0.81907 0.62518 0.33773 0.0
C563 C 0.8277 0.63228 0.33311 0.0
C564 C 0.81477 0.62776 0.34861 0.0
C565 C 0.81888 0.63724 0.35462 0.0
U566 U 0.84772 0.6699 0.35484 0.0
O567 O 0.84383 0.68725 0.36044 0.0
O568 O 0.85493 0.67649 0.37098 0.0
C569 C 0.8494 0.68612 0.37016 0.0
C570 C 0.83132 0.65442 0.35637 0.0
C571 C 0.84326 0.68964 0.38047 0.0
C572 C 0.82641 0.68931 0.39254 0.0
C573 C 0.83218 0.68556 0.38283 0.0
C574 C 0.84281 0.70107 0.39769 0.0
C575 C 0.83165 0.69714 0.40008 0.0
C576 C 0.84854 0.69735 0.38799 0.0
C577 C 0.87242 0.67588 0.33412 0.0
C578 C 0.88554 0.69206 0.33592 0.0
C579 C 0.88772 0.67871 0.32043 0.0
C580 C 0.87831 0.6724 0.32441 0.0
C581 C 0.89143 0.68865 0.32609 0.0
C582 C 0.8761 0.68573 0.3399 0.0
C583 C 0.86244 0.66917 0.33801 0.0
O584 O 0.84125 0.6535 0.36158 0.0
O585 O 0.83005 0.66429 0.35119 0.0
O586 O 0.85254 0.67426 0.3372 0.0
O587 O 0.86376 0.66359 0.34768 0.0
H588 H 0.83838 0.64719 0.3354 0.0
H589 H 0.83113 0.63064 0.32473 0.0
H590 H 0.80827 0.62239 0.35252 0.0
H591 H 0.81539 0.63905 0.36295 0.0
H592 H 0.81788 0.68602 0.39418 0.0
H593 H 0.82798 0.67955 0.37715 0.0
H594 H 0.84705 0.70722 0.40319 0.0
H595 H 0.85707 0.70061 0.38628 0.0
H596 H 0.88808 0.69972 0.34043 0.0
H597 H 0.89214 0.67572 0.31295 0.0
H598 H 0.87561 0.6648 0.31987 0.0
H599 H 0.87163 0.68855 0.34742 0.0
C600 C 0.84547 0.37328 0.33143 0.0
C601 C 0.83535 0.37652 0.33681 0.0
C602 C 0.83333 0.39242 0.32343 0.0
C603 C 0.82934 0.38602 0.33285 0.0
C604 C 0.84355 0.38915 0.31819 0.0
C605 C 0.84954 0.37968 0.32214 0.0
U606 U 0.85042 0.34778 0.35155 0.0
O607 O 0.85571 0.3304 0.34743 0.0
O608 O 0.86659 0.34113 0.35841 0.0
C609 C 0.86551 0.33145 0.3529 0.0
C610 C 0.85186 0.36322 0.33525 0.0
C611 C 0.87566 0.32768 0.34667 0.0
C612 C 0.88881 0.32913 0.3307 0.0
C613 C 0.87932 0.33316 0.33662 0.0
C614 C 0.89111 0.31423 0.34487 0.0
C615 C 0.89477 0.31955 0.33471 0.0
C616 C 0.88166 0.31826 0.35077 0.0
C617 C 0.82964 0.34184 0.37646 0.0
C618 C 0.83273 0.33261 0.3949 0.0
C619 C 0.81363 0.33355 0.38693 0.0
C620 C 0.81793 0.33932 0.37736 0.0
C621 C 0.82094 0.33022 0.3959 0.0
C622 C 0.83704 0.33835 0.38527 0.0
C623 C 0.83376 0.34845 0.36646 0.0
O624 O 0.85721 0.36417 0.34511 0.0
O625 O 0.84657 0.35335 0.33399 0.0
O626 O 0.83274 0.3434 0.35651 0.0
O627 O 0.84347 0.35411 0.36769 0.0
H628 H 0.83207 0.37165 0.34399 0.0
H629 H 0.82145 0.38821 0.33703 0.0
H630 H 0.84699 0.39396 0.31105 0.0
H631 H 0.85736 0.37734 0.31792 0.0
H632 H 0.89132 0.33338 0.32285 0.0
H633 H 0.87477 0.34045 0.33332 0.0
H634 H 0.89558 0.30696 0.34832 0.0
H635 H 0.87898 0.31395 0.35853 0.0
H636 H 0.83862 0.33028 0.40166 0.0
H637 H 0.80455 0.33167 0.38726 0.0
H638 H 0.81206 0.3419 0.37067 0.0
H639 H 0.84613 0.34016 0.38481 0.0
C640 C 0.67314 0.14264 0.69261 0.0
C641 C 0.68515 0.14287 0.69301 0.0
C642 C 0.6853 0.1233 0.70023 0.0
C643 C 0.69115 0.13332 0.69681 0.0
C644 C 0.67328 0.12307 0.69957 0.0
C645 C 0.66728 0.13264 0.69584 0.0
U646 U 0.66783 0.1688 0.67348 0.0
O647 O 0.65166 0.17556 0.66674 0.0
O648 O 0.6624 0.18603 0.67811 0.0
C649 C 0.65264 0.18507 0.67256 0.0
C650 C 0.66654 0.15278 0.68919 0.0
C651 C 0.64242 0.18853 0.67888 0.0
C652 C 0.62845 0.18562 0.69395 0.0
C653 C 0.6381 0.18202 0.688 0.0
C654 C 0.62737 0.20225 0.6817 0.0
C655 C 0.62296 0.1958 0.69088 0.0
C656 C 0.63699 0.19864 0.67578 0.0
C657 C 0.6889 0.17518 0.64889 0.0
C658 C 0.68631 0.18897 0.63352 0.0
C659 C 0.7045 0.17967 0.63595 0.0
C660 C 0.70017 0.17363 0.64532 0.0
C661 C 0.69764 0.18743 0.62991 0.0
C662 C 0.68198 0.18292 0.64296 0.0
C663 C 0.68462 0.16847 0.65869 0.0
O664 O 0.67152 0.16274 0.69089 0.0
O665 O 0.66112 0.15212 0.67934 0.0
O666 O 0.67484 0.16302 0.65716 0.0
O667 O 0.6855 0.17337 0.66872 0.0
H668 H 0.6899 0.15046 0.69053 0.0
H669 H 0.70039 0.1339 0.69732 0.0
H670 H 0.66846 0.11548 0.70192 0.0
H671 H 0.65803 0.13226 0.69556 0.0
H672 H 0.62524 0.18038 0.7009 0.0
H673 H 0.64219 0.17417 0.69052 0.0
H674 H 0.62353 0.21023 0.6792 0.0
H675 H 0.64024 0.20382 0.66879 0.0
H676 H 0.68083 0.19495 0.62914 0.0
H677 H 0.71319 0.17812 0.63333 0.0
H678 H 0.70563 0.16766 0.64976 0.0
H679 H 0.67326 0.18426 0.64561 0.0
C680 C 0.3286 0.17666 0.64707 0.0
C681 C 0.33584 0.18063 0.63834 0.0
C682 C 0.31958 0.18863 0.62806 0.0
C683 C 0.33138 0.18652 0.62892 0.0
C684 C 0.31242 0.18481 0.63695 0.0
C685 C 0.31688 0.17886 0.64631 0.0
U686 U 0.34996 0.17102 0.67155 0.0
O687 O 0.34672 0.16488 0.68902 0.0
O688 O 0.3572 0.1548 0.67749 0.0
C689 C 0.35205 0.15525 0.68741 0.0
C690 C 0.33293 0.16994 0.65685 0.0
C691 C 0.34576 0.14486 0.6909 0.0
C692 C 0.3287 0.13277 0.69061 0.0
C693 C 0.33466 0.14252 0.68686 0.0
C694 C 0.34498 0.12751 0.70228 0.0
C695 C 0.33378 0.12517 0.69841 0.0
C696 C 0.3509 0.13727 0.69856 0.0
C697 C 0.37504 0.19204 0.67691 0.0
C698 C 0.39391 0.18899 0.68519 0.0
C699 C 0.38558 0.20771 0.68575 0.0
C700 C 0.37585 0.20351 0.68009 0.0
C701 C 0.3948 0.20054 0.68829 0.0
C702 C 0.38412 0.18477 0.67958 0.0
C703 C 0.36477 0.18802 0.67058 0.0
O704 O 0.34266 0.1647 0.6554 0.0
O705 O 0.33209 0.17471 0.66694 0.0
O706 O 0.35506 0.18856 0.67611 0.0
O707 O 0.36574 0.17864 0.6646 0.0
H708 H 0.34494 0.17907 0.63871 0.0
H709 H 0.33715 0.18922 0.62221 0.0
H710 H 0.30334 0.18646 0.63673 0.0
H711 H 0.31113 0.17592 0.65296 0.0
H712 H 0.32014 0.13117 0.68737 0.0
H713 H 0.33057 0.14828 0.68089 0.0
H714 H 0.3491 0.12195 0.7084 0.0
H715 H 0.35946 0.13895 0.70178 0.0
H716 H 0.40086 0.18323 0.68691 0.0
H717 H 0.38582 0.21659 0.6882 0.0
H718 H 0.36895 0.20927 0.67816 0.0
H719 H 0.38373 0.17586 0.67725 0.0
C720 C 0.3289 0.84346 0.64899 0.0
C721 C 0.33614 0.84146 0.63969 0.0
C722 C 0.32078 0.83122 0.62967 0.0
C723 C 0.33212 0.83542 0.63015 0.0
C724 C 0.31366 0.83306 0.6391 0.0
C725 C 0.31766 0.83914 0.6486 0.0
U726 U 0.34882 0.85087 0.67449 0.0
O727 O 0.3551 0.8677 0.68028 0.0
O728 O 0.34443 0.85707 0.69156 0.0
C729 C 0.34942 0.86705 0.68991 0.0
C730 C 0.33259 0.85052 0.65885 0.0
C731 C 0.3428 0.8772 0.69303 0.0
C732 C 0.32486 0.88643 0.69741 0.0
C733 C 0.33081 0.87689 0.69369 0.0
C734 C 0.34274 0.89685 0.69954 0.0
C735 C 0.33075 0.89652 0.70051 0.0
C736 C 0.34868 0.8873 0.69588 0.0
C737 C 0.37445 0.83145 0.68152 0.0
C738 C 0.39361 0.83503 0.68916 0.0
C739 C 0.3847 0.81645 0.6915 0.0
C740 C 0.37497 0.82025 0.68571 0.0
C741 C 0.39422 0.82373 0.69319 0.0
C742 C 0.38383 0.83886 0.68339 0.0
C743 C 0.36432 0.83489 0.67475 0.0
O744 O 0.33139 0.84585 0.66901 0.0
O745 O 0.34218 0.8564 0.65777 0.0
O746 O 0.36525 0.84427 0.6686 0.0
O747 O 0.35438 0.83379 0.67982 0.0
H748 H 0.34485 0.8447 0.63969 0.0
H749 H 0.33783 0.83429 0.62302 0.0
H750 H 0.30496 0.82979 0.63917 0.0
H751 H 0.31189 0.84057 0.65564 0.0
H752 H 0.31565 0.88578 0.69815 0.0
H753 H 0.32604 0.86921 0.69153 0.0
H754 H 0.34757 0.90451 0.70163 0.0
H755 H 0.35792 0.88776 0.69541 0.0
H756 H 0.40079 0.84086 0.6902 0.0
H757 H 0.38473 0.80776 0.69466 0.0
H758 H 0.36787 0.81437 0.68438 0.0
H759 H 0.38371 0.84755 0.68025 0.0
C760 C 0.64574 0.82821 0.67887 0.0
C761 C 0.63711 0.83562 0.6823 0.0
C762 C 0.62631 0.81971 0.69065 0.0
C763 C 0.62748 0.83141 0.6881 0.0
C764 C 0.63511 0.81239 0.68737 0.0
C765 C 0.64467 0.81659 0.68152 0.0
U766 U 0.67073 0.84915 0.67297 0.0
O767 O 0.68831 0.84557 0.66763 0.0
O768 O 0.6772 0.85579 0.65659 0.0
C769 C 0.68705 0.85065 0.65768 0.0
C770 C 0.65576 0.83226 0.67227 0.0
C771 C 0.69078 0.84413 0.64771 0.0
C772 C 0.68844 0.82841 0.63441 0.0
C773 C 0.68463 0.83453 0.64387 0.0
C774 C 0.70455 0.84147 0.63256 0.0
C775 C 0.69849 0.83178 0.62867 0.0
C776 C 0.70073 0.84757 0.64198 0.0
C777 C 0.67567 0.87479 0.69286 0.0
C778 C 0.6905 0.88929 0.69018 0.0
C779 C 0.67838 0.88981 0.70684 0.0
C780 C 0.67258 0.88002 0.70308 0.0
C781 C 0.6874 0.89461 0.70044 0.0
C782 C 0.68468 0.87946 0.68642 0.0
C783 C 0.66941 0.86446 0.68919 0.0
O784 O 0.6546 0.84178 0.66644 0.0
O785 O 0.66572 0.83152 0.67746 0.0
O786 O 0.6749 0.85485 0.6904 0.0
O787 O 0.66385 0.86521 0.67942 0.0
H788 H 0.63772 0.84465 0.68039 0.0
H789 H 0.62086 0.8373 0.69039 0.0
H790 H 0.63465 0.80338 0.68937 0.0
H791 H 0.65124 0.81072 0.679 0.0
H792 H 0.68363 0.82093 0.63173 0.0
H793 H 0.67693 0.83174 0.64822 0.0
H794 H 0.71222 0.84441 0.62826 0.0
H795 H 0.70557 0.85498 0.6448 0.0
H796 H 0.69734 0.89279 0.68499 0.0
H797 H 0.67589 0.89352 0.71488 0.0
H798 H 0.66569 0.87649 0.70819 0.0
H799 H 0.68718 0.87552 0.6785 0.0
C800 C 0.64435 0.8293 0.34637 0.0
C801 C 0.63941 0.83627 0.33798 0.0
C802 C 0.62517 0.82147 0.33372 0.0
C803 C 0.62989 0.8324 0.33172 0.0
C804 C 0.63023 0.81452 0.34213 0.0
C805 C 0.63972 0.81841 0.34838 0.0
U806 U 0.66917 0.85017 0.35174 0.0
O807 O 0.67578 0.85725 0.36791 0.0
O808 O 0.68685 0.84691 0.35719 0.0
C809 C 0.68566 0.85216 0.36699 0.0
C810 C 0.65436 0.83319 0.35304 0.0
C811 C 0.68949 0.84583 0.37716 0.0
C812 C 0.68859 0.82926 0.3897 0.0
C813 C 0.68463 0.83523 0.3801 0.0
C814 C 0.70222 0.84451 0.39357 0.0
C815 C 0.6975 0.8338 0.39652 0.0
C816 C 0.69825 0.85045 0.38399 0.0
C817 C 0.67371 0.8754 0.3312 0.0
C818 C 0.69016 0.88828 0.33207 0.0
C819 C 0.675 0.89165 0.31833 0.0
C820 C 0.66911 0.88201 0.32236 0.0
C821 C 0.68564 0.89489 0.32308 0.0
C822 C 0.68425 0.87862 0.3361 0.0
C823 C 0.66747 0.86513 0.33506 0.0
O824 O 0.66425 0.83243 0.34788 0.0
O825 O 0.65317 0.84285 0.3585 0.0
O826 O 0.66203 0.86603 0.34479 0.0
O827 O 0.67298 0.85551 0.33413 0.0
H828 H 0.6429 0.84471 0.33629 0.0
H829 H 0.62615 0.83803 0.32541 0.0
H830 H 0.62697 0.806 0.34377 0.0
H831 H 0.64348 0.81289 0.35478 0.0
H832 H 0.68485 0.82099 0.39163 0.0
H833 H 0.67784 0.83153 0.37491 0.0
H834 H 0.70895 0.84836 0.39872 0.0
H835 H 0.70207 0.85866 0.38188 0.0
H836 H 0.69838 0.89044 0.33585 0.0
H837 H 0.67117 0.89663 0.31154 0.0
H838 H 0.66096 0.87967 0.31851 0.0
H839 H 0.68793 0.87359 0.34295 0.0
C840 C 0.64471 0.17488 0.33207 0.0
C841 C 0.6409 0.18422 0.33834 0.0
C842 C 0.62545 0.18717 0.32454 0.0
C843 C 0.63135 0.19032 0.3346 0.0
C844 C 0.62937 0.1778 0.31832 0.0
C845 C 0.6389 0.17173 0.32206 0.0
U846 U 0.66999 0.16901 0.35235 0.0
O847 O 0.67619 0.15256 0.35891 0.0
O848 O 0.68736 0.16343 0.34836 0.0
C849 C 0.68593 0.15349 0.35344 0.0
C850 C 0.65469 0.16828 0.3358 0.0
C851 C 0.68939 0.1434 0.3469 0.0
C852 C 0.69193 0.13337 0.32897 0.0
C853 C 0.68806 0.14284 0.33498 0.0
C854 C 0.69819 0.12477 0.34674 0.0
C855 C 0.6971 0.12424 0.33478 0.0
C856 C 0.6944 0.13426 0.35272 0.0
C857 C 0.67573 0.18884 0.37795 0.0
C858 C 0.69123 0.18646 0.39167 0.0
C859 C 0.6784 0.20234 0.39343 0.0
C860 C 0.67239 0.19863 0.38374 0.0
C861 C 0.68791 0.19631 0.39754 0.0
C862 C 0.68519 0.18275 0.38196 0.0
C863 C 0.66925 0.18522 0.36772 0.0
O864 O 0.66467 0.17346 0.33483 0.0
O865 O 0.65355 0.16268 0.34549 0.0
O866 O 0.66352 0.17555 0.36862 0.0
O867 O 0.67461 0.18635 0.35795 0.0
H868 H 0.64529 0.18676 0.34611 0.0
H869 H 0.62852 0.19742 0.33966 0.0
H870 H 0.62519 0.17524 0.31045 0.0
H871 H 0.64175 0.16456 0.31709 0.0
H872 H 0.69083 0.13318 0.31979 0.0
H873 H 0.68415 0.14976 0.33031 0.0
H874 H 0.70225 0.11797 0.35147 0.0
H875 H 0.69552 0.13452 0.36191 0.0
H876 H 0.69843 0.18155 0.39465 0.0
H877 H 0.6757 0.21005 0.39758 0.0
H878 H 0.66514 0.20346 0.38074 0.0
H879 H 0.68788 0.17515 0.37759 0.0
C880 C 0.3281 0.14555 0.34792 0.0
C881 C 0.33491 0.14086 0.33938 0.0
C882 C 0.32053 0.12595 0.33598 0.0
C883 C 0.33116 0.13114 0.33345 0.0
C884 C 0.31375 0.13077 0.34452 0.0
C885 C 0.31751 0.14046 0.35042 0.0
U886 U 0.34875 0.17068 0.35344 0.0
O887 O 0.34497 0.18832 0.35822 0.0
O888 O 0.35508 0.17762 0.36977 0.0
C889 C 0.34991 0.18738 0.36829 0.0
C890 C 0.33184 0.15572 0.35432 0.0
C891 C 0.34321 0.19137 0.37805 0.0
C892 C 0.32688 0.18978 0.39073 0.0
C893 C 0.33315 0.18572 0.38148 0.0
C894 C 0.34071 0.20514 0.3932 0.0
C895 C 0.33056 0.19959 0.39667 0.0
C896 C 0.34696 0.20107 0.38398 0.0
C897 C 0.37489 0.1754 0.33427 0.0
C898 C 0.38712 0.19232 0.33497 0.0
C899 C 0.39214 0.17655 0.32285 0.0
C900 C 0.38237 0.17056 0.32644 0.0
C901 C 0.39462 0.18753 0.32702 0.0
C902 C 0.37735 0.18629 0.33858 0.0
C903 C 0.36451 0.16902 0.33767 0.0
O904 O 0.34136 0.15472 0.36024 0.0
O905 O 0.3312 0.16544 0.34876 0.0
O906 O 0.35481 0.17431 0.33604 0.0
O907 O 0.36506 0.16372 0.34757 0.0
H908 H 0.34313 0.14469 0.33733 0.0
H909 H 0.33664 0.12761 0.32701 0.0
H910 H 0.30543 0.12716 0.34656 0.0
H911 H 0.31211 0.144 0.35695 0.0
H912 H 0.31905 0.18536 0.3931 0.0
H913 H 0.33012 0.17821 0.37698 0.0
H914 H 0.34391 0.2126 0.39767 0.0
H915 H 0.35473 0.20552 0.38147 0.0
H916 H 0.38883 0.2007 0.33846 0.0
H917 H 0.39763 0.17266 0.31662 0.0
H918 H 0.38059 0.16216 0.323 0.0
H919 H 0.37169 0.19015 0.34468 0.0
C920 C 0.34262 0.87393 0.32972 0.0
C921 C 0.33695 0.88083 0.33756 0.0
C922 C 0.33015 0.893 0.32204 0.0
C923 C 0.33081 0.89031 0.33376 0.0
C924 C 0.33574 0.88596 0.31424 0.0
C925 C 0.34192 0.87655 0.31804 0.0
U926 U 0.34917 0.84857 0.34967 0.0
O927 O 0.35519 0.83149 0.34538 0.0
O928 O 0.36582 0.84268 0.35617 0.0
C929 C 0.36514 0.83307 0.35047 0.0
C930 C 0.3495 0.86412 0.33343 0.0
C931 C 0.37545 0.82983 0.34402 0.0
C932 C 0.38465 0.82337 0.32665 0.0
C933 C 0.37497 0.82733 0.3323 0.0
C934 C 0.39553 0.82467 0.34425 0.0
C935 C 0.39503 0.82185 0.33259 0.0
C936 C 0.38585 0.82857 0.34989 0.0
C937 C 0.32891 0.84163 0.3749 0.0
C938 C 0.33191 0.83378 0.39399 0.0
C939 C 0.31339 0.83183 0.38484 0.0
C940 C 0.31756 0.83763 0.37524 0.0
C941 C 0.32045 0.82994 0.39442 0.0
C942 C 0.3361 0.83956 0.38434 0.0
C943 C 0.33274 0.84839 0.36488 0.0
O944 O 0.35508 0.86523 0.34316 0.0
O945 O 0.34467 0.85403 0.33218 0.0
O946 O 0.3318 0.84337 0.35491 0.0
O947 O 0.34224 0.85444 0.36599 0.0
H948 H 0.33731 0.87893 0.34662 0.0
H949 H 0.32649 0.89546 0.33998 0.0
H950 H 0.33553 0.88785 0.30517 0.0
H951 H 0.34625 0.87136 0.31185 0.0
H952 H 0.38387 0.82118 0.31771 0.0
H953 H 0.36708 0.8282 0.32751 0.0
H954 H 0.4034 0.82382 0.34907 0.0
H955 H 0.38645 0.83043 0.35893 0.0
H956 H 0.33758 0.83258 0.40123 0.0
H957 H 0.3046 0.82881 0.38473 0.0
H958 H 0.31184 0.83911 0.36808 0.0
H959 H 0.3449 0.84255 0.38435 0.0
C960 C 0.67699 0.64382 0.19382 0.0
C961 C 0.68027 0.6354 0.18607 0.0
C962 C 0.68871 0.62427 0.20159 0.0
C963 C 0.68605 0.62572 0.18992 0.0
C964 C 0.68559 0.63286 0.20925 0.0
C965 C 0.67977 0.64249 0.20541 0.0
U966 U 0.67081 0.66937 0.1739 0.0
O967 O 0.65436 0.676 0.16781 0.0
O968 O 0.6656 0.68672 0.17846 0.0
C969 C 0.65551 0.68554 0.17357 0.0
C970 C 0.67038 0.65388 0.19019 0.0
C971 C 0.64559 0.68918 0.18038 0.0
C972 C 0.62671 0.68577 0.18852 0.0
C973 C 0.63625 0.68184 0.18263 0.0
C974 C 0.63575 0.70436 0.19022 0.0
C975 C 0.62629 0.69712 0.19232 0.0
C976 C 0.64525 0.70044 0.1843 0.0
C977 C 0.69045 0.6753 0.14811 0.0
C978 C 0.68699 0.68919 0.13302 0.0
C979 C 0.70516 0.67965 0.13413 0.0
C980 C 0.70141 0.67361 0.14375 0.0
C981 C 0.69802 0.68753 0.12863 0.0
C982 C 0.68325 0.68315 0.1427 0.0
C983 C 0.68679 0.66874 0.15825 0.0
O984 O 0.6756 0.6638 0.19127 0.0
O985 O 0.66443 0.65297 0.18066 0.0
O986 O 0.67698 0.66319 0.15738 0.0
O987 O 0.68818 0.67386 0.16811 0.0
H988 H 0.67825 0.63621 0.17706 0.0
H989 H 0.68821 0.61925 0.18378 0.0
H990 H 0.68768 0.6322 0.21825 0.0
H991 H 0.67737 0.64889 0.21154 0.0
H992 H 0.61955 0.67998 0.18985 0.0
H993 H 0.63623 0.67311 0.17971 0.0
H994 H 0.63587 0.71307 0.19319 0.0
H995 H 0.65233 0.70628 0.18268 0.0
H996 H 0.68131 0.69528 0.12907 0.0
H997 H 0.71363 0.67802 0.13091 0.0
H998 H 0.70708 0.66756 0.14779 0.0
H999 H 0.67476 0.68461 0.14597 0.0
C1000 C 0.32917 0.67376 0.14544 0.0
C1001 C 0.33336 0.68482 0.14323 0.0
C1002 C 0.3216 0.68588 0.12598 0.0
C1003 C 0.32958 0.69084 0.13359 0.0
C1004 C 0.31755 0.67475 0.12821 0.0
C1005 C 0.3213 0.66877 0.13785 0.0
U1006 U 0.34892 0.66937 0.17127 0.0
O1007 O 0.34476 0.66369 0.18871 0.0
O1008 O 0.35618 0.65356 0.17817 0.0
C1009 C 0.35047 0.65419 0.18776 0.0
C1010 C 0.33283 0.66735 0.15562 0.0
C1011 C 0.34431 0.64375 0.19128 0.0
C1012 C 0.32908 0.62966 0.18865 0.0
C1013 C 0.33488 0.63956 0.18504 0.0
C1014 C 0.3421 0.62808 0.20473 0.0
C1015 C 0.33263 0.62379 0.19855 0.0
C1016 C 0.34787 0.63795 0.20112 0.0
C1017 C 0.37335 0.69074 0.1773 0.0
C1018 C 0.39015 0.68732 0.18911 0.0
C1019 C 0.38499 0.70663 0.18416 0.0
C1020 C 0.37556 0.70248 0.17798 0.0
C1021 C 0.39243 0.6991 0.18976 0.0
C1022 C 0.38066 0.68317 0.18298 0.0
C1023 C 0.36347 0.68661 0.17052 0.0
O1024 O 0.34279 0.6624 0.15488 0.0
O1025 O 0.33132 0.67243 0.16546 0.0
O1026 O 0.35348 0.68714 0.17554 0.0
O1027 O 0.36489 0.67708 0.1649 0.0
H1028 H 0.3395 0.68879 0.14898 0.0
H1029 H 0.33296 0.69935 0.13207 0.0
H1030 H 0.31128 0.67073 0.12263 0.0
H1031 H 0.31797 0.66025 0.13943 0.0
H1032 H 0.32189 0.62655 0.18363 0.0
H1033 H 0.33202 0.64395 0.1774 0.0
H1034 H 0.34496 0.62391 0.21249 0.0
H1035 H 0.3551 0.6411 0.20607 0.0
H1036 H 0.39564 0.68131 0.19344 0.0
H1037 H 0.38656 0.71574 0.1844 0.0
H1038 H 0.37003 0.70845 0.17365 0.0
H1039 H 0.37906 0.67407 0.18265 0.0
C1040 C 0.33111 0.34406 0.1476 0.0
C1041 C 0.32984 0.33214 0.14789 0.0
C1042 C 0.32334 0.33206 0.12801 0.0
C1043 C 0.32598 0.32621 0.13822 0.0
C1044 C 0.32485 0.34398 0.12773 0.0
C1045 C 0.32864 0.34989 0.13742 0.0
U1046 U 0.35078 0.35001 0.17348 0.0
O1047 O 0.35704 0.36635 0.18039 0.0
O1048 O 0.34642 0.35501 0.191 0.0
C1049 C 0.35155 0.365 0.19008 0.0
C1050 C 0.33456 0.35064 0.15786 0.0
C1051 C 0.34499 0.37483 0.19404 0.0
C1052 C 0.33134 0.39 0.19089 0.0
C1053 C 0.33735 0.3806 0.18684 0.0
C1054 C 0.3405 0.38787 0.20937 0.0
C1055 C 0.33283 0.39373 0.20223 0.0
C1056 C 0.34651 0.37854 0.20531 0.0
C1057 C 0.37648 0.33044 0.17885 0.0
C1058 C 0.38871 0.3309 0.19574 0.0
C1059 C 0.39318 0.31844 0.18004 0.0
C1060 C 0.38361 0.32231 0.17405 0.0
C1061 C 0.39584 0.32261 0.191 0.0
C1062 C 0.37911 0.33478 0.18972 0.0
C1063 C 0.36631 0.33411 0.1724 0.0
O1064 O 0.33336 0.34548 0.16779 0.0
O1065 O 0.34414 0.35657 0.15707 0.0
O1066 O 0.36725 0.34395 0.16706 0.0
O1067 O 0.35645 0.33267 0.17755 0.0
H1068 H 0.33169 0.32738 0.15562 0.0
H1069 H 0.3248 0.31707 0.13884 0.0
H1070 H 0.32312 0.34877 0.12 0.0
H1071 H 0.32957 0.35908 0.13697 0.0
H1072 H 0.32543 0.39425 0.1852 0.0
H1073 H 0.33603 0.37784 0.17811 0.0
H1074 H 0.342 0.39059 0.21808 0.0
H1075 H 0.35239 0.37422 0.21099 0.0
H1076 H 0.39043 0.33424 0.20419 0.0
H1077 H 0.39856 0.31221 0.17603 0.0
H1078 H 0.38174 0.3189 0.16565 0.0
H1079 H 0.37369 0.34108 0.19356 0.0
C1080 C 0.64539 0.32843 0.17896 0.0
C1081 C 0.63831 0.3361 0.18462 0.0
C1082 C 0.62628 0.32036 0.19145 0.0
C1083 C 0.62881 0.33211 0.19076 0.0
C1084 C 0.63348 0.31273 0.18585 0.0
C1085 C 0.64291 0.31673 0.17966 0.0
U1086 U 0.67028 0.34928 0.17288 0.0
O1087 O 0.68776 0.34579 0.16725 0.0
O1088 O 0.67649 0.3561 0.15646 0.0
C1089 C 0.68634 0.35093 0.15735 0.0
C1090 C 0.6553 0.33238 0.1722 0.0
C1091 C 0.68985 0.34448 0.14723 0.0
C1092 C 0.68929 0.32739 0.13558 0.0
C1093 C 0.68565 0.33342 0.14516 0.0
C1094 C 0.70123 0.34347 0.12998 0.0
C1095 C 0.69715 0.33234 0.12788 0.0
C1096 C 0.69762 0.34947 0.13957 0.0
C1097 C 0.67533 0.37472 0.19308 0.0
C1098 C 0.69212 0.38721 0.19303 0.0
C1099 C 0.67628 0.3912 0.20552 0.0
C1100 C 0.67039 0.38163 0.20135 0.0
C1101 C 0.68727 0.39407 0.20151 0.0
C1102 C 0.6862 0.37761 0.18886 0.0
C1103 C 0.66909 0.36442 0.18927 0.0
O1104 O 0.65405 0.34197 0.1665 0.0
O1105 O 0.66531 0.33161 0.17726 0.0
O1106 O 0.67461 0.3548 0.19031 0.0
O1107 O 0.66345 0.36529 0.17957 0.0
H1108 H 0.64011 0.34517 0.18427 0.0
H1109 H 0.62353 0.3382 0.19508 0.0
H1110 H 0.63171 0.30365 0.1861 0.0
H1111 H 0.64825 0.31067 0.17534 0.0
H1112 H 0.68588 0.31889 0.13416 0.0
H1113 H 0.6796 0.32945 0.15096 0.0
H1114 H 0.7074 0.34749 0.12434 0.0
H1115 H 0.70097 0.35799 0.14104 0.0
H1116 H 0.7006 0.38909 0.18982 0.0
H1117 H 0.6722 0.39638 0.21189 0.0
H1118 H 0.66199 0.37956 0.20468 0.0
H1119 H 0.69015 0.37236 0.18246 0.0
C1120 C 0.64563 0.32951 0.84876 0.0
C1121 C 0.64049 0.33617 0.84022 0.0
C1122 C 0.6264 0.32107 0.83659 0.0
C1123 C 0.63093 0.332 0.83421 0.0
C1124 C 0.63161 0.31447 0.84518 0.0
C1125 C 0.64112 0.31866 0.8512 0.0
U1126 U 0.6707 0.35044 0.85344 0.0
O1127 O 0.67747 0.35776 0.86942 0.0
O1128 O 0.68835 0.34702 0.85892 0.0
C1129 C 0.68726 0.3525 0.8686 0.0
C1130 C 0.6557 0.33365 0.85519 0.0
C1131 C 0.69108 0.34633 0.87888 0.0
C1132 C 0.68814 0.33194 0.89363 0.0
C1133 C 0.68424 0.33779 0.88393 0.0
C1134 C 0.70573 0.34308 0.89328 0.0
C1135 C 0.69896 0.33448 0.8984 0.0
C1136 C 0.70181 0.34894 0.88363 0.0
C1137 C 0.67577 0.37517 0.8323 0.0
C1138 C 0.68519 0.39353 0.83548 0.0
C1139 C 0.68377 0.38591 0.81635 0.0
C1140 C 0.67802 0.37628 0.8206 0.0
C1141 C 0.68737 0.39472 0.82371 0.0
C1142 C 0.67949 0.38384 0.83973 0.0
C1143 C 0.66937 0.36504 0.83643 0.0
O1144 O 0.66555 0.33267 0.85001 0.0
O1145 O 0.65459 0.34349 0.86034 0.0
O1146 O 0.66374 0.36614 0.84604 0.0
O1147 O 0.67468 0.35529 0.83569 0.0
H1148 H 0.6439 0.34457 0.83819 0.0
H1149 H 0.62719 0.33725 0.82757 0.0
H1150 H 0.62826 0.30609 0.84735 0.0
H1151 H 0.64496 0.31341 0.85778 0.0
H1152 H 0.68277 0.32528 0.89727 0.0
H1153 H 0.67594 0.33562 0.88033 0.0
H1154 H 0.71403 0.34536 0.89681 0.0
H1155 H 0.7072 0.35551 0.87984 0.0
H1156 H 0.68772 0.40016 0.8414 0.0
H1157 H 0.68548 0.38639 0.80728 0.0
H1158 H 0.67527 0.36968 0.81471 0.0
H1159 H 0.6779 0.38319 0.84882 0.0
C1160 C 0.64361 0.67402 0.83158 0.0
C1161 C 0.63993 0.68349 0.83773 0.0
C1162 C 0.62426 0.68623 0.82414 0.0
C1163 C 0.63034 0.68955 0.83404 0.0
C1164 C 0.62803 0.67671 0.81805 0.0
C1165 C 0.6376 0.67067 0.82174 0.0
U1166 U 0.66901 0.66861 0.85175 0.0
O1167 O 0.67582 0.6524 0.85814 0.0
O1168 O 0.68661 0.66372 0.84768 0.0
C1169 C 0.68562 0.6538 0.85285 0.0
C1170 C 0.65374 0.66758 0.83519 0.0
C1171 C 0.68975 0.64393 0.84644 0.0
C1172 C 0.6873 0.62918 0.83205 0.0
C1173 C 0.68307 0.63857 0.83797 0.0
C1174 C 0.7049 0.63048 0.84301 0.0
C1175 C 0.69831 0.62505 0.83448 0.0
C1176 C 0.70066 0.63981 0.84891 0.0
C1177 C 0.6744 0.68829 0.87742 0.0
C1178 C 0.6888 0.68496 0.89211 0.0
C1179 C 0.67839 0.70263 0.89185 0.0
C1180 C 0.67231 0.69896 0.88219 0.0
C1181 C 0.68671 0.69568 0.89697 0.0
C1182 C 0.68271 0.6813 0.88241 0.0
C1183 C 0.66785 0.68467 0.86724 0.0
O1184 O 0.6636 0.673 0.83425 0.0
O1185 O 0.65275 0.66185 0.84482 0.0
O1186 O 0.66238 0.67484 0.86806 0.0
O1187 O 0.67306 0.68607 0.85742 0.0
H1188 H 0.64447 0.68618 0.84536 0.0
H1189 H 0.62762 0.69676 0.839 0.0
H1190 H 0.6237 0.67401 0.8103 0.0
H1191 H 0.64035 0.66342 0.81685 0.0
H1192 H 0.68204 0.62527 0.82547 0.0
H1193 H 0.67462 0.64167 0.83592 0.0
H1194 H 0.71332 0.62744 0.84524 0.0
H1195 H 0.70592 0.6438 0.85545 0.0
H1196 H 0.69505 0.67934 0.89587 0.0
H1197 H 0.67669 0.71101 0.89519 0.0
H1198 H 0.66598 0.70449 0.87841 0.0
H1199 H 0.68445 0.67303 0.87883 0.0
C1200 C 0.32725 0.64699 0.84774 0.0
C1201 C 0.3349 0.63874 0.84393 0.0
C1202 C 0.31906 0.62744 0.83602 0.0
C1203 C 0.33084 0.62905 0.83815 0.0
C1204 C 0.31149 0.63586 0.83968 0.0
C1205 C 0.31554 0.64548 0.8455 0.0
U1206 U 0.34801 0.67209 0.85391 0.0
O1207 O 0.34403 0.68968 0.85882 0.0
O1208 O 0.3541 0.6789 0.87035 0.0
C1209 C 0.34874 0.68859 0.86898 0.0
C1210 C 0.33113 0.65708 0.85428 0.0
C1211 C 0.34192 0.69259 0.87873 0.0
C1212 C 0.33259 0.68948 0.89706 0.0
C1213 C 0.33849 0.68526 0.88765 0.0
C1214 C 0.3332 0.70836 0.88868 0.0
C1215 C 0.32994 0.70112 0.89775 0.0
C1216 C 0.33914 0.70415 0.87932 0.0
C1217 C 0.37437 0.67706 0.83498 0.0
C1218 C 0.38645 0.69409 0.83548 0.0
C1219 C 0.39179 0.67809 0.8238 0.0
C1220 C 0.38201 0.6721 0.82738 0.0
C1221 C 0.39411 0.68919 0.82775 0.0
C1222 C 0.37668 0.68807 0.83908 0.0
C1223 C 0.36396 0.67068 0.83829 0.0
O1224 O 0.34053 0.65603 0.86038 0.0
O1225 O 0.33051 0.6669 0.8489 0.0
O1226 O 0.35427 0.67597 0.83664 0.0
O1227 O 0.36443 0.66529 0.84815 0.0
H1228 H 0.34399 0.63971 0.84552 0.0
H1229 H 0.33691 0.62272 0.83555 0.0
H1230 H 0.3024 0.63506 0.838 0.0
H1231 H 0.30949 0.65176 0.8483 0.0
H1232 H 0.33033 0.68366 0.90391 0.0
H1233 H 0.3405 0.67629 0.88743 0.0
H1234 H 0.33112 0.71731 0.88876 0.0
H1235 H 0.34166 0.70997 0.87255 0.0
H1236 H 0.38804 0.70256 0.83879 0.0
H1237 H 0.39739 0.67411 0.81774 0.0
H1238 H 0.38035 0.66362 0.8241 0.0
H1239 H 0.37089 0.69202 0.845 0.0
C1240 C 0.34576 0.37593 0.83149 0.0
C1241 C 0.33602 0.37943 0.83737 0.0
C1242 C 0.33309 0.39472 0.82346 0.0
C1243 C 0.32975 0.38875 0.8334 0.0
C1244 C 0.34292 0.39117 0.81768 0.0
C1245 C 0.34917 0.38188 0.82166 0.0
U1246 U 0.3515 0.35083 0.85189 0.0
O1247 O 0.3573 0.33357 0.84799 0.0
O1248 O 0.36788 0.34475 0.85882 0.0
C1249 C 0.36708 0.33498 0.85341 0.0
C1250 C 0.35245 0.36609 0.83538 0.0
C1251 C 0.37737 0.33148 0.84722 0.0
C1252 C 0.38938 0.33163 0.83033 0.0
C1253 C 0.37972 0.33542 0.83613 0.0
C1254 C 0.39451 0.32007 0.84672 0.0
C1255 C 0.39689 0.32387 0.83555 0.0
C1256 C 0.38486 0.32384 0.85247 0.0
C1257 C 0.33113 0.34486 0.87699 0.0
C1258 C 0.33274 0.3287 0.88997 0.0
C1259 C 0.31778 0.34243 0.89265 0.0
C1260 C 0.32172 0.34861 0.88318 0.0
C1261 C 0.32318 0.33235 0.89614 0.0
C1262 C 0.33667 0.3349 0.88047 0.0
C1263 C 0.33489 0.35142 0.86689 0.0
O1264 O 0.35784 0.36729 0.84519 0.0
O1265 O 0.3474 0.35607 0.83427 0.0
O1266 O 0.33401 0.34612 0.85706 0.0
O1267 O 0.34453 0.35721 0.86803 0.0
H1268 H 0.33325 0.37491 0.84498 0.0
H1269 H 0.32217 0.39116 0.838 0.0
H1270 H 0.34586 0.39565 0.81012 0.0
H1271 H 0.35669 0.37933 0.81703 0.0
H1272 H 0.39101 0.33482 0.82179 0.0
H1273 H 0.37404 0.34137 0.83195 0.0
H1274 H 0.39998 0.31397 0.85094 0.0
H1275 H 0.38317 0.32067 0.86101 0.0
H1276 H 0.33704 0.32092 0.89234 0.0
H1277 H 0.31053 0.34562 0.89728 0.0
H1278 H 0.31736 0.35631 0.88065 0.0
H1279 H 0.34396 0.33187 0.87577 0.0
H1280 H 0.26754 0.27937 1.00017 0.0
H1281 H 0.23954 0.25519 0.99813 0.0
H1282 H 0.26256 0.25926 0.96994 0.0
H1283 H 0.24984 0.28141 0.01172 0.0
H1284 H 0.23912 0.27056 0.01178 0.0
H1285 H 0.26667 0.28022 0.0241 0.0
H1286 H 0.26368 0.25729 0.05267 0.0
H1287 H 0.24118 0.25338 0.02374 0.0
C1288 C 0.26305 0.27259 0.99568 0.0
C1289 C 0.26647 0.26964 0.98459 0.0
C1290 C 0.25345 0.26725 1.00074 0.0
C1291 C 0.24728 0.25888 0.99455 0.0
C1292 C 0.25045 0.25608 0.98336 0.0
C1293 C 0.26022 0.26127 0.97864 0.0
C1294 C 0.24854 0.272 0.01164 0.0
C1295 C 0.25371 0.26702 0.02243 0.0
C1296 C 0.26282 0.27272 0.02801 0.0
C1297 C 0.26655 0.26917 0.03889 0.0
C1298 C 0.26123 0.25967 0.04404 0.0
C1299 C 0.25205 0.25393 0.03872 0.0
C1300 C 0.24843 0.25757 0.02782 0.0
H1301 H 0.7642 0.24068 0.0246 0.0
H1302 H 0.73761 0.26555 0.02664 0.0
H1303 H 0.761 0.26113 0.05469 0.0
H1304 H 0.74604 0.23896 0.01327 0.0
H1305 H 0.73614 0.25026 0.01297 0.0
H1306 H 0.76418 0.24028 1.00228 0.0
H1307 H 0.76212 0.26141 0.97228 0.0
H1308 H 0.73825 0.26581 0.99956 0.0
C1309 C 0.76017 0.24759 0.02908 0.0
C1310 C 0.76399 0.25053 0.0401 0.0
C1311 C 0.75077 0.2531 0.02405 0.0
C1312 C 0.7452 0.26168 0.0302 0.0
C1313 C 0.74878 0.26451 0.04133 0.0
C1314 C 0.75834 0.2591 0.04604 0.0
C1315 C 0.74544 0.24841 0.01321 0.0
C1316 C 0.75097 0.25295 1.00241 0.0
C1317 C 0.76038 0.24733 0.99769 0.0
C1318 C 0.76452 0.25041 0.98683 0.0
C1319 C 0.75919 0.25923 0.98078 0.0
C1320 C 0.74965 0.26477 0.98521 0.0
C1321 C 0.74579 0.2618 0.99619 0.0
H1322 H 0.73847 0.7541 0.02541 0.0
H1323 H 0.7655 0.77933 0.02336 0.0
H1324 H 0.76154 0.75896 0.05371 0.0
H1325 H 0.73726 0.76983 0.01189 0.0
H1326 H 0.74786 0.78078 0.01167 0.0
H1327 H 0.7396 0.75217 1.00068 0.0
H1328 H 0.75993 0.75683 0.97054 0.0
H1329 H 0.76362 0.78025 0.9984 0.0
C1330 C 0.74609 0.75807 0.02901 0.0
C1331 C 0.74945 0.75535 0.04024 0.0
C1332 C 0.75189 0.7667 0.0228 0.0
C1333 C 0.76131 0.77238 0.02788 0.0
C1334 C 0.76491 0.76956 0.03903 0.0
C1335 C 0.75904 0.76092 0.04499 0.0
C1336 C 0.74667 0.77136 0.01188 0.0
C1337 C 0.75154 0.76639 1.00107 0.0
C1338 C 0.74637 0.75664 0.99615 0.0
C1339 C 0.7494 0.75309 0.98513 0.0
C1340 C 0.75782 0.75929 0.97917 0.0
C1341 C 0.76294 0.76914 0.98379 0.0
C1342 C 0.76 0.77246 0.9949 0.0
H1343 H 0.26254 0.73987 0.0263 0.0
H1344 H 0.23885 0.76754 0.0242 0.0
H1345 H 0.25988 0.7634 0.0541 0.0
H1346 H 0.24712 0.73934 0.01248 0.0
H1347 H 0.23646 0.74997 0.01241 0.0
H1348 H 0.26425 0.74138 1.0006 0.0
H1349 H 0.26202 0.76529 0.97278 0.0
H1350 H 0.23859 0.7673 1.00078 0.0
C1351 C 0.2591 0.74759 0.02984 0.0
C1352 C 0.2623 0.75097 0.04092 0.0
C1353 C 0.2507 0.75359 0.02367 0.0
C1354 C 0.24566 0.76317 0.02867 0.0
C1355 C 0.24905 0.76682 0.03961 0.0
C1356 C 0.2575 0.76079 0.04553 0.0
C1357 C 0.24587 0.74871 0.01269 0.0
C1358 C 0.25113 0.75404 1.00212 0.0
C1359 C 0.26044 0.74886 0.99676 0.0
C1360 C 0.26451 0.75297 0.98621 0.0
C1361 C 0.25929 0.76246 0.98118 0.0
C1362 C 0.2499 0.76765 0.98629 0.0
C1363 C 0.24596 0.76348 0.99686 0.0
H1364 H 0.02167 0.23839 0.25587 0.0
H1365 H 0.02163 0.26366 0.28236 0.0
H1366 H 0.05078 0.2607 0.26052 0.0
H1367 H 0.00879 0.23644 0.27217 0.0
H1368 H 0.00925 0.24647 0.28349 0.0
H1369 H 0.99701 0.23976 0.25503 0.0
H1370 H 0.96893 0.26242 0.25957 0.0
H1371 H 0.99738 0.26347 0.28296 0.0
C1372 C 0.02575 0.24556 0.26013 0.0
C1373 C 0.03676 0.24919 0.25679 0.0
C1374 C 0.02018 0.25082 0.26929 0.0
C1375 C 0.02572 0.25983 0.27508 0.0
C1376 C 0.03674 0.26353 0.27188 0.0
C1377 C 0.04207 0.25826 0.26264 0.0
C1378 C 0.00922 0.24572 0.27401 0.0
C1379 C 0.99859 0.25128 0.26927 0.0
C1380 C 0.99314 0.24676 0.25952 0.0
C1381 C 0.98246 0.2508 0.2559 0.0
C1382 C 0.97742 0.25968 0.26197 0.0
C1383 C 0.98269 0.26433 0.27173 0.0
C1384 C 0.99335 0.26015 0.27529 0.0
H1385 H 0.77909 0.02251 0.25694 0.0
H1386 H 0.75418 0.0218 0.28383 0.0
H1387 H 0.75697 0.05096 0.26162 0.0
H1388 H 0.78147 0.01019 0.27387 0.0
H1389 H 0.7709 0.00951 0.28468 0.0
H1390 H 0.78056 0.99746 0.25763 0.0
H1391 H 0.75692 0.96919 0.25982 0.0
H1392 H 0.75306 0.99802 0.28186 0.0
C1393 C 0.77196 0.02637 0.26125 0.0
C1394 C 0.76837 0.03728 0.2579 0.0
C1395 C 0.76682 0.02067 0.27054 0.0
C1396 C 0.75791 0.02597 0.27643 0.0
C1397 C 0.75418 0.03686 0.27316 0.0
C1398 C 0.75936 0.04232 0.26379 0.0
C1399 C 0.77208 0.00991 0.27527 0.0
C1400 C 0.7671 0.99915 0.27004 0.0
C1401 C 0.7729 0.99359 0.26121 0.0
C1402 C 0.76917 0.98282 0.25736 0.0
C1403 C 0.75945 0.97775 0.26232 0.0
C1404 C 0.75358 0.98309 0.27119 0.0
C1405 C 0.75738 0.9939 0.27489 0.0
H1406 H 0.99594 0.73964 0.27084 0.0
H1407 H 0.99651 0.76505 0.2442 0.0
H1408 H 0.96795 0.76266 0.267 0.0
H1409 H 0.00786 0.73734 0.25394 0.0
H1410 H 0.00799 0.74771 0.24284 0.0
H1411 H 0.02104 0.73882 0.27014 0.0
H1412 H 0.05045 0.76054 0.26504 0.0
H1413 H 0.02053 0.76475 0.24402 0.0
C1414 C 0.99215 0.74696 0.2667 0.0
C1415 C 0.98143 0.75078 0.27031 0.0
C1416 C 0.99773 0.75215 0.25736 0.0
C1417 C 0.99248 0.76131 0.25167 0.0
C1418 C 0.98178 0.76526 0.2552 0.0
C1419 C 0.97646 0.76005 0.26463 0.0
C1420 C 0.00817 0.74668 0.25229 0.0
C1421 C 0.01937 0.75152 0.25685 0.0
C1422 C 0.02511 0.746 0.26588 0.0
C1423 C 0.03631 0.74933 0.269 0.0
C1424 C 0.04161 0.75841 0.26312 0.0
C1425 C 0.03605 0.76405 0.25409 0.0
C1426 C 0.02484 0.76065 0.25112 0.0
H1427 H 0.23948 0.99722 0.25622 0.0
H1428 H 0.26573 0.99751 0.28217 0.0
H1429 H 0.26241 0.96912 0.25933 0.0
H1430 H 0.23777 0.00908 0.27324 0.0
H1431 H 0.24852 0.00914 0.28402 0.0
H1432 H 0.2391 0.0219 0.25665 0.0
H1433 H 0.261 0.05124 0.26107 0.0
H1434 H 0.2653 0.02183 0.28265 0.0
C1435 C 0.24691 0.99337 0.26014 0.0
C1436 C 0.25055 0.98267 0.25638 0.0
C1437 C 0.25243 0.99887 0.26936 0.0
C1438 C 0.26173 0.99354 0.27479 0.0
C1439 C 0.2655 0.98285 0.2711 0.0
C1440 C 0.25995 0.97763 0.26179 0.0
C1441 C 0.24719 0.00931 0.2746 0.0
C1442 C 0.25197 0.02043 0.26988 0.0
C1443 C 0.24636 0.026 0.2608 0.0
C1444 C 0.24972 0.03708 0.25746 0.0
C1445 C 0.25886 0.04247 0.26319 0.0
C1446 C 0.26453 0.03712 0.27233 0.0
C1447 C 0.26115 0.02599 0.27549 0.0
H1448 H 0.99729 0.76571 0.78221 0.0
H1449 H 0.99688 0.7417 0.75456 0.0
H1450 H 0.96862 0.76408 0.75907 0.0
H1451 H 0.00943 0.74898 0.78287 0.0
H1452 H 0.00869 0.73861 0.77187 0.0
H1453 H 0.02176 0.76618 0.78085 0.0
H1454 H 0.0506 0.76214 0.7588 0.0
H1455 H 0.02137 0.73979 0.75546 0.0
C1456 C 0.99322 0.76228 0.77461 0.0
C1457 C 0.98242 0.76627 0.77118 0.0
C1458 C 0.99856 0.75349 0.76858 0.0
C1459 C 0.99302 0.74874 0.75898 0.0
C1460 C 0.98228 0.75267 0.7554 0.0
C1461 C 0.97717 0.7615 0.76146 0.0
C1462 C 0.00915 0.74795 0.77343 0.0
C1463 C 0.02015 0.75272 0.76845 0.0
C1464 C 0.02576 0.76201 0.77372 0.0
C1465 C 0.03673 0.76554 0.77021 0.0
C1466 C 0.04192 0.75984 0.76114 0.0
C1467 C 0.0365 0.75056 0.75574 0.0
C1468 C 0.02554 0.7471 0.75939 0.0
H1469 H 0.25356 0.99911 0.78193 0.0
H1470 H 0.28049 0.9993 0.75707 0.0
H1471 H 0.25714 0.97078 0.75924 0.0
H1472 H 0.27101 0.01094 0.78452 0.0
H1473 H 0.28173 0.01153 0.77385 0.0
H1474 H 0.25347 0.02243 0.78274 0.0
H1475 H 0.25714 0.05251 0.76194 0.0
H1476 H 0.28066 0.02506 0.75821 0.0
C1477 C 0.25771 0.99521 0.77473 0.0
C1478 C 0.25395 0.98444 0.77092 0.0
C1479 C 0.2672 1.00071 0.76969 0.0
C1480 C 0.27292 0.99531 0.7607 0.0
C1481 C 0.26924 0.98455 0.75677 0.0
C1482 C 0.25964 0.97932 0.76182 0.0
C1483 C 0.27231 0.01131 0.77512 0.0
C1484 C 0.26726 0.02224 0.77054 0.0
C1485 C 0.2577 0.02701 0.77586 0.0
C1486 C 0.25394 0.03793 0.77273 0.0
C1487 C 0.25979 0.04397 0.76415 0.0
C1488 C 0.26951 0.03951 0.75895 0.0
C1489 C 0.273 0.02847 0.76195 0.0
H1490 H 0.99787 0.28021 0.75673 0.0
H1491 H 0.99709 0.25374 0.78235 0.0
H1492 H 0.96862 0.25778 0.75939 0.0
H1493 H 0.01037 0.28125 0.7737 0.0
H1494 H 0.01001 0.27033 0.78429 0.0
H1495 H 0.02221 0.27944 0.75651 0.0
H1496 H 0.04992 0.25599 0.75918 0.0
H1497 H 0.02185 0.25338 0.78258 0.0
C1498 C 0.99366 0.27286 0.76058 0.0
C1499 C 0.98274 0.26944 0.7567 0.0
C1500 C 0.999 0.26712 0.76973 0.0
C1501 C 0.99323 0.25792 0.77503 0.0
C1502 C 0.98231 0.25442 0.77125 0.0
C1503 C 0.97726 0.26011 0.76198 0.0
C1504 C 0.00998 0.27184 0.7749 0.0
C1505 C 0.02059 0.26671 0.76983 0.0
C1506 C 0.02601 0.27202 0.76046 0.0
C1507 C 0.03656 0.2681 0.7565 0.0
C1508 C 0.04154 0.25868 0.76187 0.0
C1509 C 0.03638 0.25332 0.7713 0.0
C1510 C 0.02582 0.25732 0.77518 0.0
H1511 H 0.73974 0.99814 0.7574 0.0
H1512 H 0.7662 0.99761 0.7831 0.0
H1513 H 0.76194 0.96941 0.76019 0.0
H1514 H 0.73828 0.00939 0.77512 0.0
H1515 H 0.74961 0.0097 0.78527 0.0
H1516 H 0.73938 0.02104 0.75724 0.0
H1517 H 0.7594 0.0518 0.76077 0.0
H1518 H 0.76458 0.02394 0.7841 0.0
C1519 C 0.74709 0.99406 0.76123 0.0
C1520 C 0.75041 0.98327 0.75736 0.0
C1521 C 0.75279 0.99934 0.77046 0.0
C1522 C 0.76203 0.99377 0.77574 0.0
C1523 C 0.76551 0.98302 0.77195 0.0
C1524 C 0.75972 0.97796 0.76269 0.0
C1525 C 0.74776 0.00978 0.77594 0.0
C1526 C 0.752 0.02094 0.77082 0.0
C1527 C 0.74627 0.02576 0.76137 0.0
C1528 C 0.74898 0.03688 0.75765 0.0
C1529 C 0.75754 0.04311 0.76341 0.0
C1530 C 0.76312 0.03862 0.77304 0.0
C1531 C 0.76056 0.02738 0.77649 0.0
H1532 H 0.25257 0.74044 0.50067 0.0
H1533 H 0.27852 0.76685 0.4998 0.0
H1534 H 0.25519 0.76276 0.47157 0.0
H1535 H 0.26982 0.73929 0.51276 0.0
H1536 H 0.28043 0.75028 0.51251 0.0
H1537 H 0.25282 0.74075 0.52493 0.0
H1538 H 0.25648 0.76342 0.55346 0.0
H1539 H 0.27892 0.76702 0.52475 0.0
C1540 C 0.25645 0.74778 0.49649 0.0
C1541 C 0.25251 0.75116 0.48563 0.0
C1542 C 0.26573 0.75351 0.50177 0.0
C1543 C 0.27109 0.76269 0.49601 0.0
C1544 C 0.26723 0.76617 0.48515 0.0
C1545 C 0.25784 0.76047 0.48016 0.0
C1546 C 0.27102 0.74871 0.51257 0.0
C1547 C 0.26612 0.75362 0.5234 0.0
C1548 C 0.25688 0.7481 0.52889 0.0
C1549 C 0.25327 0.75166 0.53973 0.0
C1550 C 0.25883 0.761 0.54488 0.0
C1551 C 0.26809 0.7666 0.5396 0.0
C1552 C 0.27162 0.76293 0.52879 0.0
H1553 H 0.75287 0.78181 0.52464 0.0
H1554 H 0.77748 0.75492 0.52462 0.0
H1555 H 0.75402 0.7578 0.55246 0.0
H1556 H 0.77001 0.78327 0.51287 0.0
H1557 H 0.78047 0.77246 0.51328 0.0
H1558 H 0.75256 0.7811 0.50068 0.0
H1559 H 0.75748 0.76084 0.47071 0.0
H1560 H 0.78009 0.7572 0.49952 0.0
C1561 C 0.75631 0.77416 0.52848 0.0
C1562 C 0.75206 0.77025 0.53904 0.0
C1563 C 0.76539 0.76857 0.52313 0.0
C1564 C 0.7702 0.75898 0.52846 0.0
C1565 C 0.76602 0.75496 0.53898 0.0
C1566 C 0.75684 0.76053 0.54407 0.0
C1567 C 0.7711 0.77387 0.51279 0.0
C1568 C 0.7665 0.76926 0.50159 0.0
C1569 C 0.75702 0.77439 0.4963 0.0
C1570 C 0.75366 0.77134 0.48516 0.0
C1571 C 0.7598 0.76297 0.47943 0.0
C1572 C 0.7694 0.75788 0.48445 0.0
C1573 C 0.77252 0.76084 0.49568 0.0
H1574 H 0.7793 0.26672 0.5246 0.0
H1575 H 0.75531 0.23862 0.527 0.0
H1576 H 0.75949 0.26176 0.55505 0.0
H1577 H 0.78136 0.24908 0.51304 0.0
H1578 H 0.7706 0.23827 0.51318 0.0
H1579 H 0.77943 0.26619 0.50103 0.0
H1580 H 0.75625 0.26283 0.47261 0.0
H1581 H 0.75348 0.23976 0.50112 0.0
C1582 C 0.77262 0.26219 0.5292 0.0
C1583 C 0.76976 0.26565 0.5403 0.0
C1584 C 0.7673 0.25254 0.52424 0.0
C1585 C 0.75901 0.24637 0.53052 0.0
C1586 C 0.75627 0.24958 0.54172 0.0
C1587 C 0.76147 0.25937 0.54636 0.0
C1588 C 0.77194 0.24767 0.51327 0.0
C1589 C 0.7667 0.25273 0.50255 0.0
C1590 C 0.77202 0.26212 0.49711 0.0
C1591 C 0.76819 0.2659 0.48634 0.0
C1592 C 0.75883 0.26032 0.48116 0.0
C1593 C 0.75348 0.25086 0.48635 0.0
C1594 C 0.75738 0.2472 0.49714 0.0
H1595 H 0.25597 0.28248 0.52424 0.0
H1596 H 0.27963 0.25477 0.52458 0.0
H1597 H 0.25698 0.25938 0.55284 0.0
H1598 H 0.27294 0.28298 0.51208 0.0
H1599 H 0.2829 0.27169 0.51245 0.0
H1600 H 0.25548 0.28166 0.50011 0.0
H1601 H 0.25765 0.25923 0.47137 0.0
H1602 H 0.28072 0.25537 0.49982 0.0
C1603 C 0.25926 0.27487 0.52828 0.0
C1604 C 0.25513 0.27145 0.53905 0.0
C1605 C 0.26802 0.26881 0.52293 0.0
C1606 C 0.27261 0.25922 0.52846 0.0
C1607 C 0.26855 0.25569 0.5392 0.0
C1608 C 0.25971 0.26174 0.54431 0.0
C1609 C 0.2736 0.27353 0.51226 0.0
C1610 C 0.26839 0.26876 0.50139 0.0
C1611 C 0.25921 0.27433 0.49605 0.0
C1612 C 0.25521 0.27085 0.48525 0.0
C1613 C 0.26033 0.26155 0.47994 0.0
C1614 C 0.26957 0.25593 0.48506 0.0
C1615 C 0.27346 0.2595 0.49588 0.0
H1616 H 0.77899 0.52197 0.75525 0.0
H1617 H 0.75526 0.52378 0.7831 0.0
H1618 H 0.75964 0.55233 0.76041 0.0
H1619 H 0.7813 0.51033 0.77294 0.0
H1620 H 0.77055 0.51008 0.78357 0.0
H1621 H 0.7797 0.49831 0.756 0.0
H1622 H 0.75635 0.46982 0.7588 0.0
H1623 H 0.75309 0.4984 0.78121 0.0
C1624 C 0.77241 0.5265 0.75975 0.0
C1625 C 0.76969 0.53767 0.75641 0.0
C1626 C 0.76716 0.52136 0.76931 0.0
C1627 C 0.75894 0.52747 0.77543 0.0
C1628 C 0.75626 0.5387 0.77229 0.0
C1629 C 0.7615 0.54358 0.76266 0.0
C1630 C 0.77188 0.5104 0.77417 0.0
C1631 C 0.76668 0.49978 0.76888 0.0
C1632 C 0.77219 0.49435 0.75978 0.0
C1633 C 0.76844 0.48355 0.75599 0.0
C1634 C 0.75891 0.47838 0.76123 0.0
C1635 C 0.75333 0.48362 0.77033 0.0
C1636 C 0.75716 0.49441 0.77401 0.0
H1637 H 0.25314 0.52281 0.74399 0.0
H1638 H 0.27926 0.52309 0.7701 0.0
H1639 H 0.25577 0.55073 0.7675 0.0
H1640 H 0.27023 0.51109 0.74218 0.0
H1641 H 0.28114 0.51138 0.75283 0.0
H1642 H 0.25332 0.49845 0.74415 0.0
H1643 H 0.25759 0.46958 0.76637 0.0
H1644 H 0.28035 0.49851 0.76933 0.0
C1645 C 0.25706 0.52673 0.75143 0.0
C1646 C 0.25306 0.53726 0.75532 0.0
C1647 C 0.26642 0.52146 0.75682 0.0
C1648 C 0.2718 0.52687 0.76618 0.0
C1649 C 0.26788 0.53738 0.77017 0.0
C1650 C 0.25844 0.54238 0.76479 0.0
C1651 C 0.2717 0.51104 0.75158 0.0
C1652 C 0.26707 0.49994 0.7565 0.0
C1653 C 0.25764 0.49442 0.75129 0.0
C1654 C 0.2541 0.48349 0.75491 0.0
C1655 C 0.25996 0.47822 0.76395 0.0
C1656 C 0.26946 0.48349 0.76919 0.0
C1657 C 0.2729 0.49444 0.76549 0.0
H1658 H 0.27921 0.52031 0.2554 0.0
H1659 H 0.25558 0.52275 0.28326 0.0
H1660 H 0.25978 0.55074 0.25984 0.0
H1661 H 0.28168 0.50936 0.27361 0.0
H1662 H 0.27072 0.50902 0.28401 0.0
H1663 H 0.28174 0.49574 0.25834 0.0
H1664 H 0.25758 0.46791 0.26045 0.0
H1665 H 0.25254 0.49801 0.28039 0.0
C1666 C 0.27262 0.52493 0.25979 0.0
C1667 C 0.26987 0.53601 0.25619 0.0
C1668 C 0.26741 0.52001 0.26948 0.0
C1669 C 0.2592 0.52624 0.27548 0.0
C1670 C 0.25648 0.53739 0.27208 0.0
C1671 C 0.26167 0.54205 0.2623 0.0
C1672 C 0.27223 0.50923 0.27463 0.0
C1673 C 0.26735 0.49839 0.26947 0.0
C1674 C 0.27371 0.49224 0.26144 0.0
C1675 C 0.27029 0.48116 0.25827 0.0
C1676 C 0.26012 0.47653 0.26271 0.0
C1677 C 0.25364 0.48251 0.27066 0.0
C1678 C 0.25726 0.49349 0.27395 0.0
H1679 H 0.75408 0.52109 0.24354 0.0
H1680 H 0.77896 0.52185 0.27082 0.0
H1681 H 0.75573 0.54956 0.2664 0.0
H1682 H 0.77116 0.50932 0.24275 0.0
H1683 H 0.78167 0.50995 0.25377 0.0
H1684 H 0.7537 0.49713 0.2449 0.0
H1685 H 0.75808 0.46803 0.26682 0.0
H1686 H 0.78094 0.49685 0.26985 0.0
C1687 C 0.75766 0.52515 0.25107 0.0
C1688 C 0.75353 0.53578 0.25452 0.0
C1689 C 0.76675 0.51998 0.25701 0.0
C1690 C 0.77171 0.52559 0.26647 0.0
C1691 C 0.76768 0.53622 0.27001 0.0
C1692 C 0.7585 0.54111 0.26407 0.0
C1693 C 0.77229 0.50948 0.25219 0.0
C1694 C 0.76756 0.49845 0.25714 0.0
C1695 C 0.75804 0.49301 0.25197 0.0
C1696 C 0.75448 0.48206 0.25553 0.0
C1697 C 0.76041 0.47669 0.26447 0.0
C1698 C 0.76997 0.48189 0.26969 0.0
C1699 C 0.77343 0.49285 0.26605 0.0
H1700 H 0.52116 0.23993 0.75649 0.0
H1701 H 0.52355 0.2642 0.7839 0.0
H1702 H 0.55176 0.26013 0.76109 0.0
H1703 H 0.50924 0.23803 0.77392 0.0
H1704 H 0.50976 0.24861 0.78469 0.0
H1705 H 0.49854 0.24139 0.75565 0.0
H1706 H 0.46923 0.26253 0.75964 0.0
H1707 H 0.49658 0.26415 0.78429 0.0
C1708 C 0.52577 0.24672 0.76084 0.0
C1709 C 0.53692 0.2497 0.75736 0.0
C1710 C 0.52078 0.25208 0.7703 0.0
C1711 C 0.52709 0.26048 0.77627 0.0
C1712 C 0.53835 0.26329 0.77308 0.0
C1713 C 0.54302 0.25809 0.76345 0.0
C1714 C 0.50974 0.2474 0.77527 0.0
C1715 C 0.49911 0.25267 0.77017 0.0
C1716 C 0.49421 0.2481 0.76014 0.0
C1717 C 0.48346 0.2517 0.75626 0.0
C1718 C 0.47768 0.26001 0.76244 0.0
C1719 C 0.48222 0.26446 0.77263 0.0
C1720 C 0.49313 0.261 0.77628 0.0
H1721 H 0.49873 0.7803 0.7572 0.0
H1722 H 0.49655 0.75544 0.78434 0.0
H1723 H 0.46785 0.76059 0.76192 0.0
H1724 H 0.51118 0.78156 0.77446 0.0
H1725 H 0.51081 0.77071 0.78508 0.0
H1726 H 0.52243 0.77941 0.75695 0.0
H1727 H 0.54979 0.75553 0.75924 0.0
H1728 H 0.52207 0.75344 0.7831 0.0
C1729 C 0.49407 0.77354 0.76156 0.0
C1730 C 0.48278 0.77085 0.75819 0.0
C1731 C 0.49919 0.76787 0.77089 0.0
C1732 C 0.49287 0.75944 0.77684 0.0
C1733 C 0.48149 0.7569 0.77373 0.0
C1734 C 0.47667 0.76244 0.76425 0.0
C1735 C 0.51051 0.77217 0.77569 0.0
C1736 C 0.5208 0.76671 0.77031 0.0
C1737 C 0.52614 0.77191 0.76083 0.0
C1738 C 0.53655 0.76781 0.75671 0.0
C1739 C 0.54148 0.75832 0.76203 0.0
C1740 C 0.5364 0.75309 0.77158 0.0
C1741 C 0.52595 0.75725 0.77559 0.0
H1742 H 0.52193 0.73817 0.25562 0.0
H1743 H 0.52196 0.76469 0.28084 0.0
H1744 H 0.55078 0.76103 0.25866 0.0
H1745 H 0.5093 0.73685 0.27212 0.0
H1746 H 0.50995 0.7473 0.28303 0.0
H1747 H 0.49724 0.7396 0.25498 0.0
H1748 H 0.46881 0.76181 0.25955 0.0
H1749 H 0.49771 0.76395 0.28234 0.0
C1750 C 0.52597 0.7456 0.25945 0.0
C1751 C 0.53685 0.74922 0.25574 0.0
C1752 C 0.52048 0.75122 0.26844 0.0
C1753 C 0.526 0.76058 0.27369 0.0
C1754 C 0.53692 0.76425 0.27015 0.0
C1755 C 0.54215 0.75862 0.26106 0.0
C1756 C 0.50969 0.7462 0.2736 0.0
C1757 C 0.49889 0.75148 0.26892 0.0
C1758 C 0.49333 0.74663 0.25938 0.0
C1759 C 0.4825 0.75039 0.25588 0.0
C1760 C 0.4774 0.7593 0.26185 0.0
C1761 C 0.48276 0.76426 0.27141 0.0
C1762 C 0.49359 0.76037 0.27482 0.0
H1763 H 0.49891 0.27961 0.25749 0.0
H1764 H 0.49689 0.25476 0.28464 0.0
H1765 H 0.46821 0.25958 0.26215 0.0
H1766 H 0.51109 0.28112 0.275 0.0
H1767 H 0.51094 0.27014 0.28548 0.0
H1768 H 0.52232 0.27938 0.25742 0.0
H1769 H 0.55056 0.25651 0.25979 0.0
H1770 H 0.52269 0.25324 0.28336 0.0
C1771 C 0.49429 0.27281 0.26184 0.0
C1772 C 0.48305 0.27 0.25842 0.0
C1773 C 0.49944 0.26723 0.27121 0.0
C1774 C 0.4932 0.25872 0.27712 0.0
C1775 C 0.48186 0.25603 0.27397 0.0
C1776 C 0.47701 0.26153 0.26448 0.0
C1777 C 0.51064 0.27171 0.2761 0.0
C1778 C 0.52108 0.26658 0.27069 0.0
C1779 C 0.52629 0.272 0.26126 0.0
C1780 C 0.5369 0.26833 0.2572 0.0
C1781 C 0.54212 0.25898 0.2625 0.0
C1782 C 0.53712 0.25348 0.27195 0.0
C1783 C 0.52651 0.25725 0.27592 0.0
H1784 H 0.18852 0.20579 0.11532 0.0
H1785 H 0.19614 0.21525 0.09827 0.0
H1786 H 0.22745 0.19667 0.10197 0.0
H1787 H 0.21973 0.18678 0.11866 0.0
H1788 H 0.21459 0.22909 0.09631 0.0
H1789 H 0.22048 0.19159 0.06866 0.0
H1790 H 0.21224 0.19089 0.08163 0.0
H1791 H 0.2276 0.19016 0.0822 0.0
C1792 C 0.19695 0.20354 0.1124 0.0
C1793 C 0.20348 0.19547 0.1184 0.0
C1794 C 0.20132 0.20903 0.10267 0.0
C1795 C 0.2123 0.20654 0.09868 0.0
C1796 C 0.21886 0.19855 0.10469 0.0
H1797 H 0.26038 0.23626 0.05148 0.0
H1798 H 0.24988 0.22429 0.06516 0.0
C1799 C 0.21448 0.19303 0.11437 0.0
C1800 C 0.21712 0.21272 0.08862 0.0
H1801 H 0.22995 0.20887 0.06279 0.0
C1802 C 0.21781 0.22466 0.08892 0.0
C1803 C 0.22134 0.20696 0.07895 0.0
C1804 C 0.22028 0.1942 0.07777 0.0
C1805 C 0.22293 0.23097 0.08004 0.0
C1806 C 0.22737 0.22519 0.07051 0.0
C1807 C 0.22654 0.21327 0.0701 0.0
C1808 C 0.23339 0.23143 0.06119 0.0
C1809 C 0.22389 0.24375 0.08108 0.0
C1810 C 0.22753 0.2391 0.0541 0.0
C1811 C 0.23351 0.24593 0.04624 0.0
C1812 C 0.24546 0.24522 0.04535 0.0
C1813 C 0.25119 0.23706 0.05202 0.0
C1814 C 0.24521 0.2302 0.05983 0.0
H1815 H 0.22198 0.24669 0.08986 0.0
H1816 H 0.23261 0.24679 0.07876 0.0
H1817 H 0.21774 0.24777 0.07511 0.0
H1818 H 0.21839 0.24007 0.05493 0.0
H1819 H 0.22885 0.25219 0.04132 0.0
H1820 H 0.79795 0.18904 0.12101 0.0
H1821 H 0.79037 0.19965 0.10472 0.0
H1822 H 0.82461 0.20935 0.09488 0.0
H1823 H 0.83231 0.19842 0.11099 0.0
H1824 H 0.79284 0.22263 0.10032 0.0
H1825 H 0.81076 0.1973 0.06494 0.0
H1826 H 0.81027 0.19214 0.07949 0.0
H1827 H 0.82105 0.20234 0.07526 0.0
C1828 C 0.8039 0.19326 0.11529 0.0
C1829 C 0.81576 0.19279 0.11729 0.0
C1830 C 0.79954 0.19939 0.10602 0.0
C1831 C 0.80692 0.20517 0.09849 0.0
C1832 C 0.81876 0.20479 0.10046 0.0
H1833 H 0.78214 0.25845 0.05275 0.0
H1834 H 0.79392 0.24751 0.06611 0.0
C1835 C 0.82314 0.19865 0.10975 0.0
C1836 C 0.80211 0.21193 0.08888 0.0
H1837 H 0.80101 0.21413 0.05976 0.0
C1838 C 0.79466 0.22079 0.09146 0.0
C1839 C 0.80441 0.20945 0.07731 0.0
C1840 C 0.81198 0.19973 0.07403 0.0
C1841 C 0.78941 0.22722 0.08281 0.0
C1842 C 0.79184 0.22487 0.07124 0.0
C1843 C 0.79928 0.216 0.06863 0.0
C1844 C 0.78623 0.23122 0.06179 0.0
C1845 C 0.78104 0.23626 0.08614 0.0
C1846 C 0.77849 0.2256 0.05445 0.0
C1847 C 0.77182 0.23182 0.04673 0.0
C1848 C 0.77277 0.24377 0.04625 0.0
C1849 C 0.78113 0.24927 0.05303 0.0
C1850 C 0.78783 0.24304 0.06069 0.0
H1851 H 0.77817 0.23521 0.09512 0.0
H1852 H 0.78521 0.24477 0.08532 0.0
H1853 H 0.77341 0.23606 0.08045 0.0
H1854 H 0.77716 0.21648 0.05513 0.0
H1855 H 0.76539 0.22736 0.0417 0.0
H1856 H 0.8113 0.81129 0.12729 0.0
H1857 H 0.80327 0.80103 0.11089 0.0
H1858 H 0.81682 0.82683 0.08819 0.0
H1859 H 0.82506 0.83705 0.10453 0.0
H1860 H 0.78717 0.80984 0.09508 0.0
H1861 H 0.82697 0.79659 0.07357 0.0
H1862 H 0.82672 0.80104 0.08831 0.0
H1863 H 0.82624 0.81146 0.07704 0.0
C1864 C 0.81275 0.81469 0.1188 0.0
C1865 C 0.81885 0.825 0.11724 0.0
C1866 C 0.8081 0.80884 0.10944 0.0
C1867 C 0.80954 0.8131 0.0983 0.0
C1868 C 0.81574 0.8233 0.09668 0.0
H1869 H 0.76659 0.79279 0.04026 0.0
H1870 H 0.77832 0.80399 0.05366 0.0
C1871 C 0.82035 0.82919 0.10605 0.0
C1872 C 0.80402 0.80716 0.08848 0.0
H1873 H 0.80953 0.79304 0.06369 0.0
C1874 C 0.79206 0.80619 0.08821 0.0
C1875 C 0.81042 0.80234 0.07955 0.0
C1876 C 0.82331 0.8028 0.07962 0.0
C1877 C 0.78631 0.80056 0.07926 0.0
C1878 C 0.79268 0.79587 0.07024 0.0
C1879 C 0.80466 0.79677 0.07053 0.0
C1880 C 0.78699 0.78944 0.06084 0.0
C1881 C 0.77345 0.79942 0.07966 0.0
C1882 C 0.78841 0.77764 0.06003 0.0
C1883 C 0.78178 0.77124 0.05234 0.0
C1884 C 0.77365 0.77653 0.04526 0.0
C1885 C 0.77284 0.78847 0.04552 0.0
C1886 C 0.77945 0.79486 0.05326 0.0
H1887 H 0.77004 0.80149 0.08822 0.0
H1888 H 0.76963 0.80536 0.07334 0.0
H1889 H 0.77064 0.79064 0.0774 0.0
H1890 H 0.79423 0.77329 0.06575 0.0
H1891 H 0.78265 0.76207 0.05227 0.0
H1892 H 0.21873 0.83541 0.11789 0.0
H1893 H 0.22645 0.82553 0.10141 0.0
H1894 H 0.19528 0.80572 0.0984 0.0
H1895 H 0.18756 0.81534 0.11509 0.0
H1896 H 0.22896 0.80094 0.0999 0.0
H1897 H 0.20137 0.81855 0.06542 0.0
H1898 H 0.20329 0.82551 0.07904 0.0
H1899 H 0.19422 0.8131 0.07792 0.0
C1900 C 0.21351 0.82891 0.1138 0.0
C1901 C 0.20252 0.82616 0.11791 0.0
C1902 C 0.21791 0.82333 0.10431 0.0
C1903 C 0.2114 0.81499 0.0986 0.0
C1904 C 0.20038 0.81229 0.10255 0.0
H1905 H 0.22609 0.76853 0.04309 0.0
H1906 H 0.21666 0.78094 0.05682 0.0
C1907 C 0.19598 0.81781 0.1121 0.0
C1908 C 0.21642 0.80867 0.08895 0.0
H1909 H 0.21416 0.80408 0.06021 0.0
C1910 C 0.22576 0.80165 0.09121 0.0
C1911 C 0.21215 0.80954 0.07766 0.0
C1912 C 0.20225 0.81713 0.07477 0.0
C1913 C 0.23089 0.79537 0.08252 0.0
C1914 C 0.22679 0.7964 0.07114 0.0
C1915 C 0.21737 0.80336 0.06889 0.0
C1916 C 0.23212 0.79014 0.06158 0.0
C1917 C 0.24046 0.78745 0.08568 0.0
C1918 C 0.24381 0.79159 0.05926 0.0
C1919 C 0.2492 0.78449 0.05148 0.0
C1920 C 0.24296 0.77594 0.04572 0.0
C1921 C 0.23108 0.77511 0.04735 0.0
C1922 C 0.22571 0.78215 0.05524 0.0
H1923 H 0.24036 0.78523 0.09492 0.0
H1924 H 0.23991 0.77945 0.08069 0.0
H1925 H 0.24878 0.7917 0.08383 0.0
H1926 H 0.24887 0.79791 0.06381 0.0
H1927 H 0.25835 0.78534 0.05033 0.0
H1928 H 0.21955 0.83561 0.9071 0.0
H1929 H 0.22692 0.82525 0.92365 0.0
H1930 H 0.19496 0.80672 0.92639 0.0
H1931 H 0.18771 0.81661 0.90948 0.0
H1932 H 0.2197 0.82393 0.94567 0.0
H1933 H 0.21755 0.7811 0.92588 0.0
H1934 H 0.21578 0.79402 0.9177 0.0
H1935 H 0.20412 0.78826 0.92596 0.0
C1936 C 0.21412 0.82921 0.91109 0.0
C1937 C 0.20306 0.82687 0.90682 0.0
C1938 C 0.21832 0.82338 0.92065 0.0
C1939 C 0.21158 0.81507 0.92616 0.0
C1940 C 0.20042 0.81292 0.92214 0.0
H1941 H 0.22686 0.76857 0.98253 0.0
H1942 H 0.21677 0.78101 0.96909 0.0
C1943 C 0.19623 0.8187 0.91253 0.0
C1944 C 0.21628 0.80864 0.93607 0.0
H1945 H 0.22264 0.78184 0.94544 0.0
C1946 C 0.22033 0.81473 0.94562 0.0
C1947 C 0.21713 0.79662 0.93601 0.0
C1948 C 0.21352 0.78961 0.92581 0.0
C1949 C 0.22517 0.80913 0.95509 0.0
C1950 C 0.22606 0.79714 0.95498 0.0
C1951 C 0.22187 0.79104 0.94553 0.0
C1952 C 0.23184 0.79074 0.96428 0.0
C1953 C 0.22926 0.81606 0.96516 0.0
C1954 C 0.24362 0.79222 0.96618 0.0
C1955 C 0.2494 0.78514 0.97385 0.0
C1956 C 0.24351 0.77643 0.97977 0.0
C1957 C 0.23161 0.7753 0.97823 0.0
C1958 C 0.22585 0.78234 0.9705 0.0
H1959 H 0.22542 0.82465 0.9652 0.0
H1960 H 0.2272 0.81166 0.97332 0.0
H1961 H 0.23868 0.81717 0.96472 0.0
H1962 H 0.24845 0.79853 0.96136 0.0
H1963 H 0.25856 0.78621 0.97486 0.0
H1964 H 0.19615 0.21938 0.89826 0.0
H1965 H 0.20608 0.22728 0.91489 0.0
H1966 H 0.20254 0.19503 0.93239 0.0
H1967 H 0.19254 0.18704 0.91572 0.0
H1968 H 0.19778 0.22935 0.9369 0.0
H1969 H 0.23655 0.20253 0.93661 0.0
H1970 H 0.22694 0.20341 0.92453 0.0
H1971 H 0.2231 0.19493 0.93677 0.0
C1972 C 0.19745 0.21395 0.90564 0.0
C1973 C 0.19351 0.20257 0.90564 0.0
C1974 C 0.20318 0.21847 0.91514 0.0
C1975 C 0.20515 0.21173 0.92487 0.0
C1976 C 0.20131 0.20034 0.92491 0.0
H1977 H 0.24084 0.23495 0.98791 0.0
H1978 H 0.22892 0.22321 0.97493 0.0
C1979 C 0.19559 0.19578 0.91537 0.0
C1980 C 0.21092 0.21686 0.93502 0.0
H1981 H 0.23525 0.21604 0.95135 0.0
C1982 C 0.20593 0.22637 0.9401 0.0
C1983 C 0.22151 0.21293 0.93928 0.0
C1984 C 0.22742 0.20295 0.93399 0.0
C1985 C 0.21138 0.23223 0.94908 0.0
C1986 C 0.22217 0.22858 0.95304 0.0
C1987 C 0.22696 0.2188 0.94831 0.0
C1988 C 0.22911 0.23555 0.96113 0.0
C1989 C 0.20565 0.24243 0.95415 0.0
C1990 C 0.23318 0.24629 0.95765 0.0
C1991 C 0.23996 0.25291 0.96496 0.0
C1992 C 0.24289 0.24894 0.97593 0.0
C1993 C 0.2387 0.23822 0.97951 0.0
C1994 C 0.23195 0.23151 0.9721 0.0
H1995 H 0.19629 0.24227 0.95248 0.0
H1996 H 0.20715 0.24284 0.96352 0.0
H1997 H 0.20928 0.25031 0.95024 0.0
H1998 H 0.23119 0.24953 0.9492 0.0
H1999 H 0.24292 0.2612 0.962 0.0
H2000 H 0.83064 0.19044 0.92131 0.0
H2001 H 0.82031 0.19733 0.93801 0.0
H2002 H 0.80401 0.22268 0.91699 0.0
H2003 H 0.81413 0.21575 0.90027 0.0
H2004 H 0.82077 0.21988 0.94736 0.0
H2005 H 0.77717 0.2065 0.93361 0.0
H2006 H 0.78993 0.20085 0.92732 0.0
H2007 H 0.78489 0.21463 0.92306 0.0
C2008 C 0.82475 0.19739 0.92022 0.0
C2009 C 0.8232 0.20253 0.90944 0.0
C2010 C 0.81891 0.20136 0.92979 0.0
C2011 C 0.8113 0.21044 0.92873 0.0
C2012 C 0.80972 0.21556 0.91799 0.0
H2013 H 0.783 0.25838 0.9749 0.0
H2014 H 0.79524 0.24759 0.96218 0.0
C2015 C 0.8156 0.21166 0.90845 0.0
C2016 C 0.80516 0.21477 0.93885 0.0
H2017 H 0.77842 0.2196 0.94907 0.0
C2018 C 0.81152 0.21972 0.9478 0.0
C2019 C 0.7931 0.21441 0.9395 0.0
C2020 C 0.78585 0.20872 0.93042 0.0
C2021 C 0.80609 0.22474 0.95716 0.0
C2022 C 0.79401 0.22491 0.95751 0.0
C2023 C 0.78769 0.21953 0.94879 0.0
C2024 C 0.7877 0.23117 0.96643 0.0
C2025 C 0.81335 0.22988 0.96656 0.0
C2026 C 0.77945 0.22555 0.97316 0.0
C2027 C 0.77241 0.23173 0.98043 0.0
C2028 C 0.77341 0.24366 0.981 0.0
C2029 C 0.78203 0.2492 0.97464 0.0
C2030 C 0.78908 0.24303 0.96742 0.0
H2031 H 0.82199 0.22611 0.96683 0.0
H2032 H 0.8144 0.23916 0.96497 0.0
H2033 H 0.80927 0.22867 0.97502 0.0
H2034 H 0.77819 0.21642 0.97248 0.0
H2035 H 0.76576 0.22723 0.98509 0.0
H2036 H 0.81571 0.81022 0.89856 0.0
H2037 H 0.80722 0.80032 0.91496 0.0
H2038 H 0.81203 0.83044 0.93542 0.0
H2039 H 0.82059 0.84039 0.91909 0.0
H2040 H 0.8154 0.7958 0.93736 0.0
H2041 H 0.77753 0.82381 0.93758 0.0
H2042 H 0.78732 0.82345 0.92576 0.0
H2043 H 0.79113 0.83106 0.93853 0.0
C2044 C 0.81513 0.8147 0.90659 0.0
C2045 C 0.81875 0.82615 0.90745 0.0
C2046 C 0.81023 0.80904 0.91595 0.0
C2047 C 0.80882 0.81469 0.92637 0.0
C2048 C 0.81281 0.82598 0.9274 0.0
H2049 H 0.78371 0.77948 0.98877 0.0
H2050 H 0.79567 0.79115 0.97584 0.0
C2051 C 0.81769 0.83165 0.91804 0.0
C2052 C 0.8028 0.80889 0.93598 0.0
H2053 H 0.77847 0.80971 0.95192 0.0
C2054 C 0.80738 0.79888 0.94062 0.0
C2055 C 0.79227 0.81288 0.94016 0.0
C2056 C 0.78669 0.82333 0.93522 0.0
C2057 C 0.80164 0.79267 0.94922 0.0
C2058 C 0.7911 0.79665 0.95335 0.0
C2059 C 0.78662 0.80675 0.94883 0.0
C2060 C 0.78399 0.78987 0.96147 0.0
C2061 C 0.80666 0.78168 0.95351 0.0
C2062 C 0.77337 0.78553 0.95779 0.0
C2063 C 0.76658 0.77895 0.96511 0.0
C2064 C 0.77021 0.77654 0.97634 0.0
C2065 C 0.78072 0.78115 0.98016 0.0
C2066 C 0.78758 0.78773 0.97276 0.0
H2067 H 0.81389 0.77887 0.94817 0.0
H2068 H 0.80985 0.78288 0.96238 0.0
H2069 H 0.80002 0.77482 0.95367 0.0
H2070 H 0.77038 0.78714 0.94916 0.0
H2071 H 0.75843 0.77575 0.96196 0.0
H2072 H 0.11798 0.22 0.19272 0.0
H2073 H 0.10155 0.22715 0.20307 0.0
H2074 H 0.09318 0.19306 0.21438 0.0
H2075 H 0.10959 0.18579 0.20395 0.0
H2076 H 0.07831 0.2215 0.20057 0.0
H2077 H 0.09403 0.21108 0.24423 0.0
H2078 H 0.10323 0.21108 0.23193 0.0
H2079 H 0.09353 0.19935 0.23445 0.0
C2080 C 0.11262 0.21398 0.19733 0.0
C2081 C 0.11514 0.2023 0.19748 0.0
C2082 C 0.10324 0.2181 0.20329 0.0
C2083 C 0.09619 0.21067 0.20961 0.0
C2084 C 0.09862 0.19899 0.20975 0.0
H2085 H 0.03893 0.22608 0.25462 0.0
H2086 H 0.05214 0.21594 0.24225 0.0
C2087 C 0.10802 0.19485 0.20378 0.0
C2088 C 0.08627 0.21521 0.21594 0.0
H2089 H 0.07561 0.21883 0.24275 0.0
C2090 C 0.0777 0.22089 0.20979 0.0
C2091 C 0.08545 0.21437 0.22797 0.0
C2092 C 0.09458 0.20873 0.23508 0.0
C2093 C 0.06837 0.22578 0.21534 0.0
C2094 C 0.06768 0.22516 0.22738 0.0
C2095 C 0.07611 0.21927 0.23351 0.0
C2096 C 0.05869 0.23114 0.23389 0.0
C2097 C 0.0593 0.23151 0.20823 0.0
C2098 C 0.05784 0.24304 0.23319 0.0
C2099 C 0.05026 0.24883 0.24018 0.0
C2100 C 0.0434 0.24287 0.2481 0.0
C2101 C 0.04396 0.23092 0.24851 0.0
C2102 C 0.05158 0.22512 0.24151 0.0
H2103 H 0.05912 0.22824 0.19934 0.0
H2104 H 0.0507 0.23025 0.21201 0.0
H2105 H 0.06119 0.24079 0.20782 0.0
H2106 H 0.06337 0.2479 0.22754 0.0
H2107 H 0.05002 0.25804 0.23965 0.0
H2108 H 0.82874 0.12013 0.22352 0.0
H2109 H 0.81806 0.10386 0.23128 0.0
H2110 H 0.80821 0.09377 0.19722 0.0
H2111 H 0.81922 0.10984 0.18932 0.0
H2112 H 0.79504 0.09902 0.22922 0.0
H2113 H 0.82061 0.0642 0.21087 0.0
H2114 H 0.82564 0.07881 0.21123 0.0
H2115 H 0.81535 0.07434 0.20065 0.0
C2116 C 0.82445 0.11436 0.21764 0.0
C2117 C 0.82493 0.11627 0.20578 0.0
C2118 C 0.81828 0.1051 0.22211 0.0
C2119 C 0.81246 0.09749 0.21483 0.0
C2120 C 0.81281 0.0994 0.20299 0.0
H2121 H 0.75982 0.05049 0.24059 0.0
H2122 H 0.77031 0.06446 0.22892 0.0
C2123 C 0.819 0.10868 0.1985 0.0
C2124 C 0.80578 0.0878 0.21975 0.0
H2125 H 0.80385 0.05873 0.22087 0.0
C2126 C 0.79694 0.09021 0.22736 0.0
C2127 C 0.80835 0.07631 0.21741 0.0
C2128 C 0.81807 0.07321 0.20967 0.0
C2129 C 0.79063 0.08147 0.23273 0.0
C2130 C 0.79307 0.06997 0.23026 0.0
C2131 C 0.80191 0.06754 0.22264 0.0
C2132 C 0.7869 0.06041 0.236 0.0
C2133 C 0.78163 0.08463 0.24128 0.0
C2134 C 0.7928 0.05306 0.24338 0.0
C2135 C 0.78684 0.04501 0.25 0.0
C2136 C 0.77485 0.04417 0.24934 0.0
C2137 C 0.76904 0.05105 0.24139 0.0
C2138 C 0.77502 0.05906 0.23475 0.0
H2139 H 0.78265 0.09358 0.24416 0.0
H2140 H 0.77305 0.08368 0.23727 0.0
H2141 H 0.78194 0.07895 0.24888 0.0
H2142 H 0.80198 0.05393 0.24445 0.0
H2143 H 0.79156 0.03993 0.2561 0.0
H2144 H 0.90878 0.80628 0.18599 0.0
H2145 H 0.92483 0.79837 0.19669 0.0
H2146 H 0.91868 0.82161 0.22424 0.0
H2147 H 0.90273 0.82979 0.2135 0.0
H2148 H 0.94509 0.80988 0.20597 0.0
H2149 H 0.918 0.78939 0.23933 0.0
H2150 H 0.91226 0.79413 0.22579 0.0
H2151 H 0.91565 0.80428 0.23676 0.0
C2152 C 0.9109 0.80985 0.19425 0.0
C2153 C 0.9044 0.8187 0.19886 0.0
C2154 C 0.92006 0.80526 0.20038 0.0
C2155 C 0.92288 0.80932 0.2113 0.0
C2156 C 0.91654 0.81823 0.21589 0.0
H2157 H 0.97009 0.78365 0.26293 0.0
H2158 H 0.95682 0.79556 0.25211 0.0
C2159 C 0.90739 0.82287 0.20975 0.0
C2160 C 0.93235 0.80409 0.21791 0.0
H2161 H 0.93792 0.7879 0.24156 0.0
C2162 C 0.94355 0.80509 0.21377 0.0
C2163 C 0.93032 0.79788 0.2281 0.0
C2164 C 0.91841 0.79624 0.23276 0.0
C2165 C 0.9528 0.80011 0.21958 0.0
C2166 C 0.95074 0.79371 0.22967 0.0
C2167 C 0.93953 0.79283 0.23385 0.0
C2168 C 0.95994 0.78752 0.23586 0.0
C2169 C 0.96469 0.8019 0.21494 0.0
C2170 C 0.96633 0.77917 0.23032 0.0
C2171 C 0.974 0.77242 0.23649 0.0
C2172 C 0.97533 0.77377 0.24835 0.0
C2173 C 0.96924 0.7824 0.2538 0.0
C2174 C 0.96164 0.7892 0.24763 0.0
H2175 H 0.96528 0.80974 0.2096 0.0
H2176 H 0.97112 0.80254 0.22193 0.0
H2177 H 0.96688 0.79458 0.20947 0.0
H2178 H 0.96499 0.7775 0.22133 0.0
H2179 H 0.97839 0.76571 0.23208 0.0
H2180 H 0.19087 0.89888 0.22337 0.0
H2181 H 0.20145 0.91532 0.23087 0.0
H2182 H 0.20954 0.9261 0.19658 0.0
H2183 H 0.19865 0.90982 0.18896 0.0
H2184 H 0.22428 0.92088 0.22811 0.0
H2185 H 0.19678 0.95511 0.21075 0.0
H2186 H 0.19221 0.94036 0.21126 0.0
H2187 H 0.20187 0.94523 0.20035 0.0
C2188 C 0.19475 0.90482 0.21739 0.0
C2189 C 0.19381 0.90305 0.20554 0.0
C2190 C 0.20087 0.91418 0.22171 0.0
C2191 C 0.20615 0.92204 0.21429 0.0
C2192 C 0.20536 0.92027 0.20246 0.0
H2193 H 0.25849 0.97027 0.23844 0.0
H2194 H 0.24779 0.95626 0.22703 0.0
C2195 C 0.19924 0.91087 0.19812 0.0
C2196 C 0.21275 0.93187 0.21905 0.0
H2197 H 0.21376 0.96096 0.22031 0.0
C2198 C 0.22201 0.92965 0.22637 0.0
C2199 C 0.20969 0.9433 0.21687 0.0
C2200 C 0.19954 0.9462 0.20946 0.0
C2201 C 0.22828 0.93851 0.23158 0.0
C2202 C 0.22534 0.94995 0.22927 0.0
C2203 C 0.21607 0.9522 0.22196 0.0
C2204 C 0.2315 0.95961 0.23485 0.0
C2205 C 0.23778 0.93552 0.2398 0.0
C2206 C 0.22578 0.9666 0.24257 0.0
C2207 C 0.23187 0.97467 0.24905 0.0
C2208 C 0.24378 0.9759 0.24792 0.0
C2209 C 0.24934 0.96942 0.23961 0.0
C2210 C 0.24325 0.96139 0.23312 0.0
H2211 H 0.23721 0.92648 0.24263 0.0
H2212 H 0.24613 0.93685 0.23552 0.0
H2213 H 0.23762 0.94105 0.24746 0.0
H2214 H 0.21671 0.9654 0.24401 0.0
H2215 H 0.22734 0.97944 0.25544 0.0
H2216 H 0.12131 0.82429 0.81053 0.0
H2217 H 0.10485 0.81703 0.79966 0.0
H2218 H 0.08982 0.80406 0.83073 0.0
H2219 H 0.106 0.81166 0.8417 0.0
H2220 H 0.09797 0.79486 0.79782 0.0
H2221 H 0.06291 0.81999 0.81611 0.0
H2222 H 0.07779 0.82376 0.81821 0.0
H2223 H 0.07121 0.81272 0.82674 0.0
C2224 C 0.1144 0.82011 0.81509 0.0
C2225 C 0.115 0.81858 0.82701 0.0
C2226 C 0.10502 0.8159 0.80885 0.0
C2227 C 0.09601 0.81014 0.81438 0.0
C2228 C 0.09654 0.80868 0.82628 0.0
H2229 H 0.03891 0.76754 0.79343 0.0
H2230 H 0.05268 0.77949 0.80393 0.0
C2231 C 0.10589 0.8129 0.83253 0.0
C2232 C 0.08646 0.80497 0.80764 0.0
H2233 H 0.05734 0.80384 0.80491 0.0
C2234 C 0.0891 0.79692 0.79929 0.0
C2235 C 0.07487 0.80763 0.80959 0.0
C2236 C 0.07151 0.81658 0.81807 0.0
C2237 C 0.08048 0.79124 0.79305 0.0
C2238 C 0.06889 0.79379 0.79508 0.0
C2239 C 0.06623 0.8019 0.80337 0.0
C2240 C 0.05948 0.78783 0.78887 0.0
C2241 C 0.08384 0.78228 0.78456 0.0
C2242 C 0.0584 0.78893 0.77698 0.0
C2243 C 0.0505 0.78216 0.77096 0.0
C2244 C 0.04351 0.77419 0.77673 0.0
C2245 C 0.0441 0.77365 0.78873 0.0
C2246 C 0.05201 0.78043 0.79474 0.0
H2247 H 0.09282 0.77957 0.78582 0.0
H2248 H 0.07814 0.77466 0.78522 0.0
H2249 H 0.08302 0.78579 0.77578 0.0
H2250 H 0.06393 0.79475 0.77231 0.0
H2251 H 0.05014 0.78289 0.76174 0.0
H2252 H 0.21942 0.11998 0.82988 0.0
H2253 H 0.22689 0.10385 0.81937 0.0
H2254 H 0.19256 0.09151 0.81302 0.0
H2255 H 0.18498 0.10752 0.82384 0.0
H2256 H 0.2078 0.07426 0.81996 0.0
H2257 H 0.22577 0.10031 0.78459 0.0
H2258 H 0.23051 0.1049 0.79845 0.0
H2259 H 0.21564 0.10585 0.79462 0.0
C2260 C 0.21343 0.1138 0.82634 0.0
C2261 C 0.20158 0.11508 0.82772 0.0
C2262 C 0.21772 0.10463 0.82023 0.0
C2263 C 0.21029 0.09655 0.81527 0.0
C2264 C 0.19846 0.09769 0.81671 0.0
H2265 H 0.23581 0.04976 0.76422 0.0
H2266 H 0.22358 0.06281 0.77461 0.0
C2267 C 0.19414 0.10689 0.82283 0.0
C2268 C 0.21493 0.08694 0.8086 0.0
H2269 H 0.23175 0.08104 0.78575 0.0
C2270 C 0.21296 0.07572 0.81242 0.0
C2271 C 0.22151 0.08882 0.79866 0.0
C2272 C 0.2234 0.10061 0.79375 0.0
C2273 C 0.21772 0.06637 0.80677 0.0
C2274 C 0.22477 0.06832 0.79716 0.0
C2275 C 0.22642 0.07952 0.79315 0.0
C2276 C 0.23082 0.05899 0.79122 0.0
C2277 C 0.2151 0.05451 0.81113 0.0
C2278 C 0.23874 0.05222 0.79712 0.0
C2279 C 0.24568 0.04467 0.79119 0.0
C2280 C 0.24493 0.04386 0.77923 0.0
C2281 C 0.2366 0.05022 0.77343 0.0
C2282 C 0.22962 0.0577 0.77936 0.0
H2283 H 0.20701 0.05421 0.81605 0.0
H2284 H 0.21443 0.04833 0.80401 0.0
H2285 H 0.2221 0.0518 0.81694 0.0
H2286 H 0.24002 0.05322 0.80623 0.0
H2287 H 0.25215 0.04004 0.79588 0.0
H2288 H 0.9016 0.18733 0.80418 0.0
H2289 H 0.91799 0.1974 0.79589 0.0
H2290 H 0.92308 0.21586 0.82727 0.0
H2291 H 0.9065 0.20601 0.83559 0.0
H2292 H 0.92044 0.22169 0.79345 0.0
H2293 H 0.95522 0.20309 0.81987 0.0
H2294 H 0.94122 0.19648 0.81862 0.0
H2295 H 0.94332 0.20873 0.82754 0.0
C2296 C 0.90612 0.19358 0.80932 0.0
C2297 C 0.90265 0.19587 0.82056 0.0
C2298 C 0.91556 0.19927 0.80459 0.0
C2299 C 0.92184 0.20728 0.811 0.0
C2300 C 0.91849 0.20955 0.82224 0.0
H2301 H 0.97865 0.25312 0.79428 0.0
H2302 H 0.96446 0.24114 0.80418 0.0
C2303 C 0.909 0.2039 0.82698 0.0
C2304 C 0.93152 0.21363 0.80568 0.0
H2305 H 0.96047 0.21788 0.80702 0.0
C2306 C 0.9292 0.22083 0.79638 0.0
C2307 C 0.94292 0.21256 0.8096 0.0
C2308 C 0.9459 0.20475 0.8194 0.0
C2309 C 0.93794 0.22709 0.79095 0.0
C2310 C 0.9494 0.22587 0.79471 0.0
C2311 C 0.95171 0.21874 0.8041 0.0
C2312 C 0.95901 0.23205 0.78903 0.0
C2313 C 0.93477 0.23515 0.7814 0.0
C2314 C 0.96103 0.23055 0.77733 0.0
C2315 C 0.96909 0.23739 0.77166 0.0
C2316 C 0.97542 0.24576 0.77761 0.0
C2317 C 0.97396 0.24669 0.78948 0.0
C2318 C 0.96582 0.2399 0.79514 0.0
H2319 H 0.9256 0.23746 0.78173 0.0
H2320 H 0.94002 0.2431 0.78175 0.0
H2321 H 0.93627 0.23098 0.77308 0.0
H2322 H 0.9561 0.22434 0.77249 0.0
H2323 H 0.97012 0.2364 0.76254 0.0
H2324 H 0.81611 0.89439 0.80427 0.0
H2325 H 0.80607 0.91107 0.79696 0.0
H2326 H 0.82038 0.93141 0.8242 0.0
H2327 H 0.83065 0.91479 0.83148 0.0
H2328 H 0.78998 0.92486 0.80844 0.0
H2329 H 0.82843 0.94965 0.79476 0.0
H2330 H 0.82879 0.93455 0.79774 0.0
H2331 H 0.82853 0.94455 0.80927 0.0
C2332 C 0.81721 0.90243 0.80867 0.0
C2333 C 0.82425 0.90326 0.81843 0.0
C2334 C 0.81141 0.91194 0.80451 0.0
C2335 C 0.81259 0.92252 0.80994 0.0
C2336 C 0.81948 0.92337 0.81977 0.0
H2337 H 0.76725 0.97973 0.79509 0.0
H2338 H 0.77932 0.96601 0.80519 0.0
C2339 C 0.82525 0.91383 0.82399 0.0
C2340 C 0.80647 0.93258 0.80533 0.0
H2341 H 0.81058 0.95855 0.79251 0.0
C2342 C 0.79448 0.93226 0.80503 0.0
C2343 C 0.81236 0.94217 0.80079 0.0
C2344 C 0.82524 0.94279 0.80054 0.0
C2345 C 0.78821 0.94125 0.80025 0.0
C2346 C 0.79409 0.95088 0.79575 0.0
C2347 C 0.80609 0.95122 0.79608 0.0
C2348 C 0.7879 0.9603 0.79 0.0
C2349 C 0.77535 0.94021 0.79972 0.0
C2350 C 0.78909 0.96202 0.7782 0.0
C2351 C 0.78227 0.96989 0.77242 0.0
C2352 C 0.77416 0.97627 0.77835 0.0
C2353 C 0.77347 0.97503 0.79028 0.0
C2354 C 0.78028 0.9671 0.79605 0.0
H2355 H 0.77229 0.93138 0.80152 0.0
H2356 H 0.77161 0.94592 0.80617 0.0
H2357 H 0.77211 0.94284 0.79118 0.0
H2358 H 0.79497 0.95691 0.77336 0.0
H2359 H 0.78307 0.97072 0.76324 0.0
H2360 H 0.18129 0.11073 0.21745 0.0
H2361 H 0.19171 0.0945 0.22517 0.0
H2362 H 0.21945 0.10164 0.20208 0.0
H2363 H 0.20898 0.11774 0.19406 0.0
H2364 H 0.20101 0.07472 0.21303 0.0
H2365 H 0.23414 0.10141 0.23482 0.0
H2366 H 0.22061 0.10704 0.23015 0.0
H2367 H 0.23163 0.10445 0.21995 0.0
C2368 C 0.18953 0.10878 0.21387 0.0
C2369 C 0.19427 0.11561 0.20512 0.0
C2370 C 0.1955 0.09952 0.21834 0.0
C2371 C 0.20639 0.09692 0.21427 0.0
C2372 C 0.21111 0.10359 0.20545 0.0
H2373 H 0.2577 0.04997 0.23964 0.0
H2374 H 0.24699 0.06351 0.22792 0.0
C2375 C 0.20513 0.11283 0.20092 0.0
C2376 C 0.21287 0.08737 0.21941 0.0
H2377 H 0.23625 0.08155 0.23591 0.0
C2378 C 0.20873 0.07618 0.21802 0.0
C2379 C 0.22295 0.08931 0.22588 0.0
C2380 C 0.2276 0.10119 0.2279 0.0
C2381 C 0.21447 0.06685 0.22285 0.0
C2382 C 0.22446 0.0688 0.2295 0.0
C2383 C 0.22862 0.08001 0.23079 0.0
C2384 C 0.2306 0.05946 0.23551 0.0
C2385 C 0.20987 0.055 0.2206 0.0
C2386 C 0.22495 0.05246 0.24352 0.0
C2387 C 0.23105 0.04462 0.25014 0.0
C2388 C 0.24296 0.04375 0.24901 0.0
C2389 C 0.24853 0.05046 0.24071 0.0
C2390 C 0.24242 0.05822 0.23403 0.0
H2391 H 0.20467 0.05469 0.21263 0.0
H2392 H 0.21688 0.04878 0.21991 0.0
H2393 H 0.20426 0.05232 0.22777 0.0
H2394 H 0.21591 0.05342 0.24506 0.0
H2395 H 0.22655 0.03972 0.25662 0.0
H2396 H 0.20537 0.90691 0.8326 0.0
H2397 H 0.21515 0.92393 0.8252 0.0
H2398 H 0.19415 0.92263 0.79483 0.0
H2399 H 0.18393 0.90602 0.80239 0.0
H2400 H 0.22779 0.92617 0.80635 0.0
H2401 H 0.19144 0.95564 0.80308 0.0
H2402 H 0.19052 0.94233 0.81083 0.0
H2403 H 0.18879 0.9426 0.79554 0.0
C2404 C 0.20266 0.91037 0.82445 0.0
C2405 C 0.19381 0.90507 0.81813 0.0
C2406 C 0.20832 0.92007 0.82019 0.0
C2407 C 0.20526 0.92471 0.80954 0.0
C2408 C 0.19649 0.91941 0.80319 0.0
H2409 H 0.23595 0.97212 0.7621 0.0
H2410 H 0.2236 0.95845 0.77227 0.0
C2411 C 0.19077 0.90976 0.80746 0.0
C2412 C 0.21168 0.93467 0.80479 0.0
H2413 H 0.20846 0.9612 0.79308 0.0
C2414 C 0.22357 0.93388 0.80358 0.0
C2415 C 0.20618 0.94476 0.80117 0.0
C2416 C 0.19355 0.94645 0.80283 0.0
C2417 C 0.23005 0.94271 0.79857 0.0
C2418 C 0.22451 0.95265 0.79471 0.0
C2419 C 0.21266 0.95355 0.79603 0.0
C2420 C 0.23093 0.96197 0.7889 0.0
C2421 C 0.24274 0.94124 0.79711 0.0
C2422 C 0.23885 0.96874 0.79496 0.0
C2423 C 0.24587 0.97658 0.78919 0.0
C2424 C 0.24513 0.97775 0.77725 0.0
C2425 C 0.23676 0.97136 0.7713 0.0
C2426 C 0.22969 0.96358 0.77709 0.0
H2427 H 0.24542 0.93236 0.79889 0.0
H2428 H 0.24533 0.94358 0.78828 0.0
H2429 H 0.24741 0.94699 0.80307 0.0
H2430 H 0.23987 0.96766 0.80411 0.0
H2431 H 0.25231 0.98128 0.794 0.0
H2432 H 0.10382 0.17789 0.81521 0.0
H2433 H 0.0879 0.18858 0.8071 0.0
H2434 H 0.1054 0.22012 0.81512 0.0
H2435 H 0.12154 0.20951 0.8229 0.0
H2436 H 0.07348 0.20479 0.81648 0.0
H2437 H 0.09896 0.22318 0.78088 0.0
H2438 H 0.10399 0.21157 0.78963 0.0
H2439 H 0.10486 0.22595 0.7948 0.0
C2440 C 0.10434 0.1871 0.81518 0.0
C2441 C 0.11406 0.19282 0.81961 0.0
C2442 C 0.09518 0.1932 0.81062 0.0
C2443 C 0.09552 0.20515 0.81034 0.0
C2444 C 0.10503 0.2109 0.81507 0.0
H2445 H 0.04028 0.25183 0.79435 0.0
H2446 H 0.05377 0.23937 0.80424 0.0
C2447 C 0.11421 0.20481 0.81963 0.0
C2448 C 0.08606 0.21156 0.80485 0.0
H2449 H 0.08021 0.23009 0.78307 0.0
C2450 C 0.07494 0.21032 0.80916 0.0
C2451 C 0.08793 0.21863 0.79519 0.0
C2452 C 0.09955 0.21986 0.78977 0.0
C2453 C 0.06567 0.21609 0.80419 0.0
C2454 C 0.06761 0.2234 0.79473 0.0
C2455 C 0.07872 0.22452 0.79035 0.0
C2456 C 0.05832 0.22997 0.78913 0.0
C2457 C 0.05387 0.21413 0.80897 0.0
C2458 C 0.05626 0.2288 0.77736 0.0
C2459 C 0.04859 0.23593 0.7717 0.0
C2460 C 0.04281 0.24443 0.77766 0.0
C2461 C 0.04445 0.24525 0.78955 0.0
C2462 C 0.05219 0.23813 0.79521 0.0
H2463 H 0.05331 0.20609 0.814 0.0
H2464 H 0.05178 0.22126 0.81474 0.0
H2465 H 0.04734 0.21381 0.80205 0.0
H2466 H 0.06087 0.22256 0.77248 0.0
H2467 H 0.04747 0.23505 0.76255 0.0
H2468 H 0.81544 0.1241 0.8153 0.0
H2469 H 0.80719 0.10783 0.80501 0.0
H2470 H 0.81116 0.08677 0.835 0.0
H2471 H 0.81947 0.10298 0.84535 0.0
H2472 H 0.81542 0.08581 0.80029 0.0
H2473 H 0.77685 0.08413 0.82774 0.0
H2474 H 0.78669 0.0961 0.82773 0.0
H2475 H 0.79026 0.08323 0.83522 0.0
C2476 C 0.81472 0.11597 0.81967 0.0
C2477 C 0.81803 0.11489 0.8312 0.0
C2478 C 0.80996 0.10669 0.81378 0.0
C2479 C 0.80839 0.09613 0.81928 0.0
C2480 C 0.81207 0.09489 0.83065 0.0
H2481 H 0.78402 0.03419 0.78308 0.0
H2482 H 0.79584 0.04722 0.79479 0.0
C2483 C 0.81681 0.10418 0.83656 0.0
C2484 C 0.80249 0.08659 0.81324 0.0
H2485 H 0.77813 0.07018 0.81345 0.0
C2486 C 0.80731 0.08232 0.8032 0.0
C2487 C 0.79186 0.08212 0.81701 0.0
C2488 C 0.78603 0.08667 0.82745 0.0
C2489 C 0.80171 0.07379 0.79677 0.0
C2490 C 0.79106 0.06936 0.80053 0.0
C2491 C 0.78634 0.07352 0.81065 0.0
C2492 C 0.78412 0.06126 0.79355 0.0
C2493 C 0.80698 0.0699 0.78577 0.0
C2494 C 0.77354 0.06474 0.78919 0.0
C2495 C 0.76681 0.05736 0.7826 0.0
C2496 C 0.77048 0.04627 0.78019 0.0
C2497 C 0.78099 0.04268 0.78474 0.0
C2498 C 0.78778 0.05014 0.79135 0.0
H2499 H 0.81424 0.07549 0.78311 0.0
H2500 H 0.81019 0.06113 0.78691 0.0
H2501 H 0.8005 0.06972 0.7788 0.0
H2502 H 0.77049 0.07323 0.79085 0.0
H2503 H 0.75864 0.06032 0.77948 0.0
H2504 H 0.91166 0.80884 0.84245 0.0
H2505 H 0.92799 0.80111 0.83236 0.0
H2506 H 0.91646 0.81693 0.80113 0.0
H2507 H 0.89997 0.82459 0.81112 0.0
H2508 H 0.92701 0.78631 0.81373 0.0
H2509 H 0.95047 0.82623 0.80254 0.0
H2510 H 0.93946 0.82568 0.81327 0.0
H2511 H 0.93566 0.82592 0.79838 0.0
C2512 C 0.91255 0.81067 0.83342 0.0
C2513 C 0.90443 0.81731 0.8276 0.0
C2514 C 0.92196 0.8063 0.82769 0.0
C2515 C 0.92354 0.80854 0.81602 0.0
C2516 C 0.91556 0.81528 0.81019 0.0
H2517 H 0.96916 0.78406 0.76407 0.0
H2518 H 0.95558 0.79474 0.77545 0.0
C2519 C 0.90612 0.81965 0.81592 0.0
C2520 C 0.93317 0.80324 0.80985 0.0
H2521 H 0.95706 0.80919 0.79412 0.0
C2522 C 0.93363 0.79131 0.80952 0.0
C2523 C 0.94177 0.80978 0.80431 0.0
C2524 C 0.94192 0.82261 0.80469 0.0
C2525 C 0.94229 0.78573 0.80359 0.0
C2526 C 0.95093 0.79225 0.79806 0.0
C2527 C 0.95049 0.80419 0.79842 0.0
C2528 C 0.96018 0.78676 0.79149 0.0
C2529 C 0.94188 0.77289 0.803 0.0
C2530 C 0.96765 0.77907 0.79678 0.0
C2531 C 0.97537 0.77287 0.79028 0.0
C2532 C 0.97584 0.77431 0.77835 0.0
C2533 C 0.9689 0.78261 0.77321 0.0
C2534 C 0.96115 0.78876 0.77971 0.0
H2535 H 0.93328 0.76939 0.80515 0.0
H2536 H 0.9442 0.7699 0.79436 0.0
H2537 H 0.94809 0.76935 0.80923 0.0
H2538 H 0.96724 0.77757 0.8059 0.0
H2539 H 0.98053 0.76653 0.79453 0.0
H2540 H 0.80938 0.90277 0.1946 0.0
H2541 H 0.79913 0.91878 0.20277 0.0
H2542 H 0.82817 0.92666 0.2243 0.0
H2543 H 0.83839 0.91057 0.2164 0.0
H2544 H 0.79389 0.92201 0.22623 0.0
H2545 H 0.82064 0.95761 0.20928 0.0
H2546 H 0.82095 0.94341 0.20343 0.0
H2547 H 0.82844 0.94661 0.2165 0.0
C2548 C 0.8136 0.90786 0.2011 0.0
C2549 C 0.82476 0.90535 0.20479 0.0
C2550 C 0.80774 0.91707 0.20571 0.0
C2551 C 0.81295 0.92403 0.21401 0.0
C2552 C 0.82407 0.92158 0.21771 0.0
H2553 H 0.79224 0.97926 0.25767 0.0
H2554 H 0.80279 0.9655 0.24633 0.0
C2555 C 0.82992 0.91235 0.21316 0.0
C2556 C 0.80655 0.9335 0.21925 0.0
H2557 H 0.80696 0.96231 0.22334 0.0
C2558 C 0.79668 0.93083 0.22552 0.0
C2559 C 0.81026 0.94499 0.21838 0.0
C2560 C 0.8206 0.94839 0.21145 0.0
C2561 C 0.79058 0.9393 0.23118 0.0
C2562 C 0.79427 0.95083 0.23031 0.0
C2563 C 0.80411 0.9535 0.22397 0.0
C2564 C 0.78817 0.96013 0.23619 0.0
C2565 C 0.78047 0.93575 0.23838 0.0
C2566 C 0.77656 0.96207 0.23393 0.0
C2567 C 0.77051 0.96991 0.24041 0.0
C2568 C 0.77599 0.97609 0.24918 0.0
C2569 C 0.78779 0.9747 0.25092 0.0
C2570 C 0.79382 0.96679 0.24448 0.0
H2571 H 0.78065 0.92655 0.24061 0.0
H2572 H 0.7802 0.94073 0.24641 0.0
H2573 H 0.77247 0.93731 0.23351 0.0
H2574 H 0.77208 0.95728 0.22737 0.0
H2575 H 0.76145 0.97089 0.23878 0.0
H2576 H 0.10503 0.80986 0.18126 0.0
H2577 H 0.08869 0.80202 0.19174 0.0
H2578 H 0.10313 0.81465 0.22326 0.0
H2579 H 0.11961 0.8224 0.21288 0.0
H2580 H 0.08976 0.78566 0.20926 0.0
H2581 H 0.0698 0.82531 0.22453 0.0
H2582 H 0.08008 0.82525 0.2131 0.0
H2583 H 0.08479 0.82418 0.2277 0.0
C2584 C 0.10476 0.81098 0.19043 0.0
C2585 C 0.11369 0.81674 0.19622 0.0
C2586 C 0.09536 0.80655 0.19639 0.0
C2587 C 0.09461 0.80786 0.20826 0.0
C2588 C 0.1034 0.81375 0.21407 0.0
H2589 H 0.05088 0.78085 0.26141 0.0
H2590 H 0.06435 0.792 0.24983 0.0
C2591 C 0.11283 0.81817 0.20811 0.0
C2592 C 0.08501 0.80242 0.21462 0.0
H2593 H 0.0626 0.80788 0.23225 0.0
C2594 C 0.08376 0.79052 0.21421 0.0
C2595 C 0.07723 0.80877 0.22113 0.0
C2596 C 0.07794 0.8216 0.2216 0.0
C2597 C 0.07513 0.78477 0.22033 0.0
C2598 C 0.06732 0.79111 0.22683 0.0
C2599 C 0.06853 0.80303 0.22721 0.0
C2600 C 0.05818 0.78543 0.23366 0.0
C2601 C 0.07472 0.77192 0.22008 0.0
C2602 C 0.04989 0.7784 0.22841 0.0
C2603 C 0.04224 0.77192 0.23502 0.0
C2604 C 0.04266 0.77243 0.24702 0.0
C2605 C 0.05045 0.78011 0.2522 0.0
C2606 C 0.05813 0.78653 0.24559 0.0
H2607 H 0.08292 0.76834 0.21713 0.0
H2608 H 0.07277 0.76834 0.22865 0.0
H2609 H 0.0679 0.76907 0.21407 0.0
H2610 H 0.0496 0.7776 0.21921 0.0
H2611 H 0.03641 0.76608 0.23073 0.0
H2612 H 0.90889 0.18833 0.20164 0.0
H2613 H 0.92497 0.19667 0.21239 0.0
H2614 H 0.91697 0.22985 0.19889 0.0
H2615 H 0.9007 0.2217 0.18845 0.0
H2616 H 0.94428 0.20907 0.20462 0.0
H2617 H 0.91785 0.23509 0.23335 0.0
H2618 H 0.91187 0.22375 0.22474 0.0
H2619 H 0.91498 0.23745 0.21846 0.0
C2620 C 0.91047 0.19743 0.20106 0.0
C2621 C 0.90345 0.20435 0.19421 0.0
C2622 C 0.91972 0.20216 0.20713 0.0
C2623 C 0.92208 0.2139 0.20656 0.0
C2624 C 0.91521 0.2208 0.1996 0.0
H2625 H 0.97016 0.26065 0.23862 0.0
H2626 H 0.95641 0.25129 0.22577 0.0
C2627 C 0.90597 0.21609 0.19354 0.0
C2628 C 0.93169 0.219 0.21324 0.0
H2629 H 0.93784 0.23868 0.23382 0.0
C2630 C 0.94288 0.2155 0.21105 0.0
C2631 C 0.92984 0.22738 0.22164 0.0
C2632 C 0.91798 0.23108 0.22479 0.0
C2633 C 0.95232 0.22038 0.21684 0.0
C2634 C 0.95047 0.22885 0.22514 0.0
C2635 C 0.93926 0.23226 0.22738 0.0
C2636 C 0.95994 0.23424 0.23178 0.0
C2637 C 0.96419 0.21661 0.21386 0.0
C2638 C 0.96669 0.22775 0.23925 0.0
C2639 C 0.97456 0.23308 0.24661 0.0
C2640 C 0.97576 0.24502 0.24669 0.0
C2641 C 0.96937 0.25144 0.23882 0.0
C2642 C 0.96152 0.24611 0.23147 0.0
H2643 H 0.96437 0.21232 0.20543 0.0
H2644 H 0.97027 0.22396 0.21372 0.0
H2645 H 0.96719 0.21047 0.22042 0.0
H2646 H 0.96546 0.2186 0.23981 0.0
H2647 H 0.97921 0.2279 0.25269 0.0
H2648 H 0.1945 0.71179 0.62394 0.0
H2649 H 0.20174 0.72234 0.60734 0.0
H2650 H 0.21579 0.69146 0.59398 0.0
H2651 H 0.20823 0.68079 0.61028 0.0
H2652 H 0.22403 0.72503 0.60108 0.0
H2653 H 0.19978 0.70414 0.566 0.0
H2654 H 0.19588 0.70246 0.58081 0.0
H2655 H 0.20728 0.69425 0.57495 0.0
C2656 C 0.19893 0.70719 0.61736 0.0
C2657 C 0.20077 0.69542 0.61848 0.0
C2658 C 0.20312 0.71325 0.6079 0.0
C2659 C 0.20918 0.70768 0.59931 0.0
C2660 C 0.21095 0.69592 0.60035 0.0
H2661 H 0.25171 0.72849 0.54249 0.0
H2662 H 0.23996 0.71793 0.55633 0.0
C2663 C 0.20675 0.68985 0.60978 0.0
C2664 C 0.2143 0.71427 0.58967 0.0
H2665 H 0.21573 0.71587 0.56052 0.0
C2666 C 0.22211 0.7231 0.59222 0.0
C2667 C 0.21185 0.71173 0.57808 0.0
C2668 C 0.20316 0.7027 0.57477 0.0
C2669 C 0.22775 0.72924 0.58355 0.0
C2670 C 0.22539 0.72663 0.57197 0.0
C2671 C 0.21752 0.71786 0.56939 0.0
C2672 C 0.23127 0.73278 0.5625 0.0
C2673 C 0.23647 0.73826 0.58687 0.0
C2674 C 0.2299 0.74455 0.56102 0.0
C2675 C 0.23656 0.75059 0.5531 0.0
C2676 C 0.24468 0.74498 0.54644 0.0
C2677 C 0.24548 0.73307 0.5474 0.0
C2678 C 0.23882 0.72703 0.55536 0.0
H2679 H 0.23919 0.73742 0.59594 0.0
H2680 H 0.24416 0.73782 0.58139 0.0
H2681 H 0.23268 0.7468 0.58571 0.0
H2682 H 0.22395 0.74913 0.56627 0.0
H2683 H 0.23563 0.75974 0.55245 0.0
H2684 H 0.79732 0.68436 0.61694 0.0
H2685 H 0.78921 0.69452 0.60059 0.0
H2686 H 0.81927 0.71611 0.59898 0.0
H2687 H 0.82735 0.70625 0.61557 0.0
H2688 H 0.78557 0.71928 0.59973 0.0
H2689 H 0.81413 0.70386 0.56552 0.0
H2690 H 0.81224 0.69631 0.57889 0.0
H2691 H 0.82093 0.70902 0.57836 0.0
C2692 C 0.80221 0.69132 0.61319 0.0
C2693 C 0.813 0.69449 0.61765 0.0
C2694 C 0.79758 0.69705 0.60378 0.0
C2695 C 0.80369 0.70597 0.59851 0.0
C2696 C 0.8145 0.70911 0.60281 0.0
H2697 H 0.78885 0.75364 0.54368 0.0
H2698 H 0.79809 0.74105 0.5576 0.0
C2699 C 0.81911 0.70344 0.61229 0.0
C2700 C 0.79847 0.71237 0.5889 0.0
H2701 H 0.80091 0.71807 0.56036 0.0
C2702 C 0.78888 0.71898 0.59111 0.0
C2703 C 0.80289 0.71202 0.5777 0.0
C2704 C 0.81307 0.70487 0.57488 0.0
C2705 C 0.78366 0.72543 0.58245 0.0
C2706 C 0.78794 0.72497 0.57117 0.0
C2707 C 0.79758 0.71836 0.56897 0.0
C2708 C 0.78266 0.73154 0.56166 0.0
C2709 C 0.77382 0.73295 0.58558 0.0
C2710 C 0.77103 0.73002 0.55892 0.0
C2711 C 0.76573 0.73724 0.55103 0.0
C2712 C 0.77201 0.74597 0.54557 0.0
C2713 C 0.78382 0.74693 0.54769 0.0
C2714 C 0.7891 0.73978 0.55569 0.0
H2715 H 0.77372 0.73479 0.59488 0.0
H2716 H 0.77422 0.74116 0.58084 0.0
H2717 H 0.76565 0.72856 0.58337 0.0
H2718 H 0.76596 0.7235 0.56317 0.0
H2719 H 0.75663 0.73625 0.54948 0.0
H2720 H 0.83376 0.3205 0.61302 0.0
H2721 H 0.82643 0.31019 0.59629 0.0
H2722 H 0.79249 0.322 0.60322 0.0
H2723 H 0.79969 0.33222 0.61994 0.0
H2724 H 0.80992 0.29305 0.59515 0.0
H2725 H 0.79626 0.33033 0.56961 0.0
H2726 H 0.80562 0.33163 0.58187 0.0
H2727 H 0.79042 0.33008 0.58374 0.0
C2728 C 0.82473 0.32088 0.61101 0.0
C2729 C 0.81734 0.32729 0.61781 0.0
C2730 C 0.82057 0.31503 0.6014 0.0
C2731 C 0.80895 0.31551 0.59834 0.0
C2732 C 0.80154 0.32176 0.6052 0.0
H2733 H 0.76116 0.2828 0.55322 0.0
H2734 H 0.77173 0.2954 0.56623 0.0
C2735 C 0.80568 0.3276 0.61479 0.0
C2736 C 0.80444 0.30912 0.58829 0.0
H2737 H 0.78912 0.31214 0.56352 0.0
C2738 C 0.80551 0.29723 0.58815 0.0
C2739 C 0.79869 0.31458 0.57915 0.0
C2740 C 0.79776 0.32737 0.57851 0.0
C2741 C 0.80056 0.29062 0.57939 0.0
C2742 C 0.79455 0.29606 0.5704 0.0
C2743 C 0.79373 0.30797 0.5704 0.0
C2744 C 0.7884 0.28944 0.5614 0.0
C2745 C 0.80137 0.27782 0.58011 0.0
C2746 C 0.79428 0.28225 0.55399 0.0
C2747 C 0.78824 0.27502 0.54652 0.0
C2748 C 0.77621 0.27487 0.54634 0.0
C2749 C 0.77041 0.28263 0.55324 0.0
C2750 C 0.77644 0.28985 0.56067 0.0
H2751 H 0.80418 0.2749 0.5887 0.0
H2752 H 0.793 0.2737 0.57808 0.0
H2753 H 0.80768 0.27487 0.57379 0.0
H2754 H 0.80352 0.28194 0.55425 0.0
H2755 H 0.79296 0.2691 0.54137 0.0
H2756 H 0.21512 0.34063 0.61265 0.0
H2757 H 0.22313 0.33099 0.5962 0.0
H2758 H 0.20043 0.3023 0.60193 0.0
H2759 H 0.19197 0.3121 0.61809 0.0
H2760 H 0.23439 0.31122 0.5959 0.0
H2761 H 0.19605 0.30738 0.56806 0.0
H2762 H 0.19654 0.31649 0.58042 0.0
H2763 H 0.19397 0.30143 0.58205 0.0
C2764 C 0.21163 0.33237 0.61029 0.0
C2765 C 0.20281 0.3272 0.6167 0.0
C2766 C 0.2163 0.32683 0.60091 0.0
C2767 C 0.21228 0.31599 0.59768 0.0
C2768 C 0.20351 0.31077 0.60406 0.0
H2769 H 0.23653 0.26451 0.55153 0.0
H2770 H 0.22562 0.27586 0.56502 0.0
C2771 C 0.19879 0.31633 0.61343 0.0
C2772 C 0.21773 0.30992 0.58805 0.0
H2773 H 0.21231 0.29673 0.56256 0.0
C2774 C 0.22957 0.30815 0.58857 0.0
C2775 C 0.21144 0.30588 0.57848 0.0
C2776 C 0.19882 0.30798 0.57713 0.0
C2777 C 0.23523 0.30227 0.57993 0.0
C2778 C 0.22894 0.29815 0.57041 0.0
C2779 C 0.21711 0.29993 0.56985 0.0
C2780 C 0.23452 0.29168 0.56118 0.0
C2781 C 0.24789 0.30024 0.58118 0.0
C2782 C 0.24284 0.29691 0.55424 0.0
C2783 C 0.24908 0.29045 0.54651 0.0
C2784 C 0.24712 0.27864 0.5456 0.0
C2785 C 0.23832 0.27357 0.55211 0.0
C2786 C 0.23206 0.28005 0.55979 0.0
H2787 H 0.25099 0.30187 0.59002 0.0
H2788 H 0.24995 0.29135 0.57887 0.0
H2789 H 0.25263 0.30604 0.57532 0.0
H2790 H 0.24478 0.30591 0.55508 0.0
H2791 H 0.25585 0.2946 0.54171 0.0
H2792 H 0.216 0.33883 0.41091 0.0
H2793 H 0.22371 0.32826 0.42719 0.0
H2794 H 0.19728 0.30263 0.42314 0.0
H2795 H 0.18924 0.3133 0.40704 0.0
H2796 H 0.21112 0.3201 0.44846 0.0
H2797 H 0.22923 0.2859 0.4216 0.0
H2798 H 0.22585 0.29977 0.41588 0.0
H2799 H 0.2146 0.28971 0.419 0.0
C2800 C 0.21168 0.33105 0.41356 0.0
C2801 C 0.20198 0.32694 0.4076 0.0
C2802 C 0.21615 0.32499 0.42285 0.0
C2803 C 0.2111 0.31465 0.42631 0.0
C2804 C 0.20136 0.31055 0.42051 0.0
H2805 H 0.23645 0.26305 0.47345 0.0
H2806 H 0.22439 0.27383 0.46022 0.0
C2807 C 0.19683 0.31664 0.41127 0.0
C2808 C 0.21622 0.30802 0.43581 0.0
H2809 H 0.23167 0.2842 0.44145 0.0
C2810 C 0.21559 0.31223 0.44697 0.0
C2811 C 0.22197 0.29773 0.43381 0.0
C2812 C 0.22306 0.29298 0.42193 0.0
C2813 C 0.22054 0.30638 0.45624 0.0
C2814 C 0.22656 0.29622 0.45421 0.0
C2815 C 0.22704 0.29197 0.44303 0.0
C2816 C 0.23282 0.29005 0.46341 0.0
C2817 C 0.21912 0.31108 0.4681 0.0
C2818 C 0.24144 0.29559 0.4698 0.0
C2819 C 0.24824 0.28946 0.47747 0.0
C2820 C 0.2467 0.27763 0.47875 0.0
C2821 C 0.23784 0.27216 0.47263 0.0
C2822 C 0.23096 0.27831 0.46506 0.0
H2823 H 0.21137 0.31639 0.46867 0.0
H2824 H 0.2185 0.30415 0.47456 0.0
H2825 H 0.22662 0.31657 0.47024 0.0
H2826 H 0.24327 0.30456 0.46848 0.0
H2827 H 0.25515 0.29387 0.48189 0.0
H2828 H 0.18609 0.71803 0.40591 0.0
H2829 H 0.1963 0.7257 0.42248 0.0
H2830 H 0.21348 0.69376 0.427 0.0
H2831 H 0.20372 0.68618 0.41009 0.0
H2832 H 0.19662 0.71898 0.44481 0.0
H2833 H 0.24014 0.71606 0.4266 0.0
H2834 H 0.22739 0.71423 0.41803 0.0
H2835 H 0.23237 0.70277 0.42692 0.0
C2836 C 0.19216 0.71266 0.4103 0.0
C2837 C 0.19416 0.7015 0.40652 0.0
C2838 C 0.19792 0.71704 0.41986 0.0
C2839 C 0.20581 0.71039 0.4259 0.0
C2840 C 0.20762 0.69916 0.42236 0.0
H2841 H 0.25159 0.72804 0.48283 0.0
H2842 H 0.23935 0.71725 0.46953 0.0
C2843 C 0.20191 0.69478 0.41275 0.0
C2844 C 0.21213 0.71528 0.43586 0.0
H2845 H 0.23893 0.72191 0.44581 0.0
C2846 C 0.20587 0.7196 0.44504 0.0
C2847 C 0.22422 0.7161 0.43617 0.0
C2848 C 0.23144 0.71215 0.42637 0.0
C2849 C 0.21136 0.72471 0.45447 0.0
C2850 C 0.22342 0.72563 0.45471 0.0
C2851 C 0.22969 0.72113 0.44565 0.0
C2852 C 0.22973 0.73184 0.46388 0.0
C2853 C 0.2042 0.72905 0.46414 0.0
C2854 C 0.22825 0.74359 0.46527 0.0
C2855 C 0.2352 0.74976 0.47286 0.0
C2856 C 0.24381 0.74431 0.47921 0.0
C2857 C 0.24493 0.73246 0.47819 0.0
C2858 C 0.23801 0.72629 0.47053 0.0
H2859 H 0.19557 0.72498 0.46421 0.0
H2860 H 0.20842 0.7275 0.47251 0.0
H2861 H 0.20311 0.73837 0.46309 0.0
H2862 H 0.22205 0.74809 0.46011 0.0
H2863 H 0.23414 0.75888 0.47346 0.0
H2864 H 0.84011 0.70085 0.42167 0.0
H2865 H 0.83029 0.70916 0.43794 0.0
H2866 H 0.79947 0.71168 0.41775 0.0
H2867 H 0.80923 0.70341 0.40145 0.0
H2868 H 0.82113 0.73019 0.43908 0.0
H2869 H 0.78737 0.69767 0.44714 0.0
H2870 H 0.79961 0.69495 0.43831 0.0
H2871 H 0.78755 0.70246 0.43256 0.0
C2872 C 0.83122 0.70313 0.4207 0.0
C2873 C 0.82547 0.70146 0.41023 0.0
C2874 C 0.8256 0.70783 0.43003 0.0
C2875 C 0.81408 0.7109 0.42914 0.0
C2876 C 0.80827 0.70911 0.41876 0.0
H2877 H 0.7767 0.7621 0.46282 0.0
H2878 H 0.78819 0.75007 0.45065 0.0
C2879 C 0.81387 0.70439 0.40942 0.0
C2880 C 0.80841 0.71674 0.43877 0.0
H2881 H 0.7846 0.71604 0.45554 0.0
C2882 C 0.81322 0.72701 0.44278 0.0
C2883 C 0.79817 0.71253 0.44373 0.0
C2884 C 0.79293 0.70124 0.4403 0.0
C2885 C 0.80782 0.73342 0.4512 0.0
C2886 C 0.79723 0.72956 0.45565 0.0
C2887 C 0.79267 0.71904 0.45206 0.0
C2888 C 0.79037 0.73678 0.46331 0.0
C2889 C 0.81343 0.74437 0.45517 0.0
C2890 C 0.7876 0.73323 0.47445 0.0
C2891 C 0.78094 0.74011 0.48147 0.0
C2892 C 0.77678 0.75055 0.47735 0.0
C2893 C 0.77962 0.75404 0.4662 0.0
C2894 C 0.78629 0.74722 0.45926 0.0
H2895 H 0.82278 0.74443 0.45358 0.0
H2896 H 0.8097 0.75161 0.45039 0.0
H2897 H 0.81197 0.74573 0.46442 0.0
H2898 H 0.79062 0.72516 0.47771 0.0
H2899 H 0.77886 0.7372 0.49001 0.0
H2900 H 0.83032 0.31276 0.4085 0.0
H2901 H 0.82219 0.30299 0.42518 0.0
H2902 H 0.79273 0.32451 0.42341 0.0
H2903 H 0.80087 0.33452 0.40695 0.0
H2904 H 0.81415 0.31281 0.44719 0.0
H2905 H 0.78006 0.29086 0.42193 0.0
H2906 H 0.79277 0.29688 0.41546 0.0
H2907 H 0.7814 0.30599 0.41972 0.0
C2908 C 0.82218 0.31553 0.41173 0.0
C2909 C 0.81622 0.32439 0.40627 0.0
C2910 C 0.81753 0.3099 0.42125 0.0
C2911 C 0.80681 0.31295 0.42545 0.0
C2912 C 0.80095 0.32192 0.4202 0.0
H2913 H 0.7596 0.2842 0.47484 0.0
H2914 H 0.76955 0.29649 0.46107 0.0
C2915 C 0.8056 0.32758 0.41073 0.0
C2916 C 0.80158 0.30661 0.43516 0.0
H2917 H 0.77918 0.28895 0.44196 0.0
C2918 C 0.80652 0.30756 0.44608 0.0
C2919 C 0.79163 0.2998 0.43367 0.0
C2920 C 0.78616 0.29821 0.42206 0.0
C2921 C 0.80161 0.30205 0.45561 0.0
C2922 C 0.79164 0.29522 0.45412 0.0
C2923 C 0.78678 0.29424 0.44315 0.0
C2924 C 0.78609 0.28886 0.46369 0.0
C2925 C 0.80699 0.30385 0.46722 0.0
C2926 C 0.7921 0.28064 0.47 0.0
C2927 C 0.78644 0.27368 0.47798 0.0
C2928 C 0.77461 0.27469 0.47968 0.0
C2929 C 0.76871 0.28322 0.4737 0.0
C2930 C 0.77439 0.29023 0.46581 0.0
H2931 H 0.81226 0.3118 0.46747 0.0
H2932 H 0.80039 0.30428 0.47396 0.0
H2933 H 0.81267 0.29662 0.46921 0.0
H2934 H 0.80106 0.27921 0.46835 0.0
H2935 H 0.79117 0.26706 0.4823 0.0
H2936 H 0.11711 0.71956 0.69205 0.0
H2937 H 0.10068 0.72689 0.70228 0.0
H2938 H 0.0929 0.69316 0.715 0.0
H2939 H 0.10931 0.68571 0.7047 0.0
H2940 H 0.07748 0.7208 0.70021 0.0
H2941 H 0.09379 0.71238 0.7441 0.0
H2942 H 0.10287 0.71203 0.73172 0.0
H2943 H 0.09337 0.70027 0.7348 0.0
C2944 C 0.11187 0.71366 0.69695 0.0
C2945 C 0.11456 0.70202 0.69752 0.0
C2946 C 0.1025 0.71788 0.70284 0.0
C2947 C 0.09561 0.71061 0.70951 0.0
C2948 C 0.09821 0.69898 0.71008 0.0
H2949 H 0.03872 0.72739 0.75452 0.0
H2950 H 0.05182 0.71679 0.74242 0.0
C2951 C 0.10761 0.69473 0.70419 0.0
C2952 C 0.08569 0.71526 0.71574 0.0
H2953 H 0.07527 0.71988 0.74249 0.0
C2954 C 0.07698 0.72056 0.70945 0.0
C2955 C 0.085 0.71491 0.7278 0.0
C2956 C 0.09428 0.70968 0.73504 0.0
C2957 C 0.06764 0.72557 0.71489 0.0
C2958 C 0.0671 0.72547 0.72696 0.0
C2959 C 0.07567 0.71993 0.73323 0.0
C2960 C 0.05814 0.73165 0.7333 0.0
C2961 C 0.05843 0.7309 0.70764 0.0
C2962 C 0.05719 0.7435 0.73209 0.0
C2963 C 0.04967 0.74955 0.73893 0.0
C2964 C 0.04298 0.7439 0.74721 0.0
C2965 C 0.04363 0.73198 0.74812 0.0
C2966 C 0.05118 0.72592 0.74128 0.0
H2967 H 0.05818 0.72723 0.69892 0.0
H2968 H 0.04989 0.72972 0.71159 0.0
H2969 H 0.06023 0.74017 0.7068 0.0
H2970 H 0.0626 0.74815 0.72616 0.0
H2971 H 0.04937 0.75872 0.738 0.0
H2972 H 0.80884 0.62198 0.69983 0.0
H2973 H 0.79885 0.60517 0.70753 0.0
H2974 H 0.83118 0.58989 0.71565 0.0
H2975 H 0.84124 0.60656 0.70784 0.0
H2976 H 0.80048 0.58117 0.70189 0.0
H2977 H 0.81402 0.59066 0.74648 0.0
H2978 H 0.81497 0.6011 0.73513 0.0
H2979 H 0.82538 0.59006 0.73627 0.0
C2980 C 0.81384 0.61498 0.7031 0.0
C2981 C 0.82586 0.61568 0.70331 0.0
C2982 C 0.80811 0.6054 0.70754 0.0
C2983 C 0.81427 0.59636 0.71231 0.0
C2984 C 0.82625 0.59686 0.71219 0.0
H2985 H 0.79285 0.53778 0.75317 0.0
H2986 H 0.804 0.55069 0.74098 0.0
C2987 C 0.83199 0.60642 0.70776 0.0
C2988 C 0.80818 0.58659 0.71774 0.0
H2989 H 0.80374 0.57353 0.74348 0.0
C2990 C 0.80119 0.57947 0.71098 0.0
C2991 C 0.80915 0.58438 0.72959 0.0
C2992 C 0.8162 0.59199 0.73734 0.0
C2993 C 0.79521 0.57013 0.71576 0.0
C2994 C 0.79607 0.56801 0.72765 0.0
C2995 C 0.80315 0.57509 0.73436 0.0
C2996 C 0.78929 0.55891 0.7335 0.0
C2997 C 0.78815 0.56256 0.70801 0.0
C2998 C 0.7773 0.55901 0.73313 0.0
C2999 C 0.7709 0.55153 0.73999 0.0
C3000 C 0.77635 0.5439 0.74748 0.0
C3001 C 0.78836 0.54343 0.74741 0.0
C3002 C 0.79475 0.55088 0.74051 0.0
H3003 H 0.79122 0.56302 0.69906 0.0
H3004 H 0.78831 0.55355 0.71092 0.0
H3005 H 0.77915 0.56541 0.70804 0.0
H3006 H 0.77287 0.56524 0.72798 0.0
H3007 H 0.76167 0.55207 0.73979 0.0
H3008 H 0.90302 0.30169 0.69046 0.0
H3009 H 0.91952 0.29417 0.70073 0.0
H3010 H 0.92411 0.32624 0.71803 0.0
H3011 H 0.90727 0.33367 0.7082 0.0
H3012 H 0.94188 0.30105 0.70108 0.0
H3013 H 0.92366 0.30411 0.74459 0.0
H3014 H 0.91509 0.3058 0.73185 0.0
H3015 H 0.92402 0.31735 0.73687 0.0
C3016 C 0.90741 0.30711 0.69658 0.0
C3017 C 0.90368 0.31827 0.69857 0.0
C3018 C 0.91693 0.30282 0.70236 0.0
C3019 C 0.92297 0.30955 0.7103 0.0
C3020 C 0.91946 0.32078 0.71213 0.0
H3021 H 0.97997 0.29254 0.75595 0.0
H3022 H 0.96665 0.3032 0.74382 0.0
C3023 C 0.90989 0.32507 0.70638 0.0
C3024 C 0.93293 0.30477 0.7166 0.0
H3025 H 0.94288 0.29839 0.74336 0.0
C3026 C 0.9421 0.30049 0.71033 0.0
C3027 C 0.93324 0.30404 0.72868 0.0
C3028 C 0.92344 0.30797 0.73591 0.0
C3029 C 0.95154 0.29549 0.71579 0.0
C3030 C 0.95178 0.29464 0.72784 0.0
C3031 C 0.94272 0.29912 0.73412 0.0
C3032 C 0.96094 0.28853 0.73412 0.0
C3033 C 0.9612 0.29118 0.70863 0.0
C3034 C 0.96231 0.27679 0.73257 0.0
C3035 C 0.96991 0.2707 0.73946 0.0
C3036 C 0.9763 0.27622 0.74808 0.0
C3037 C 0.97529 0.28807 0.74929 0.0
C3038 C 0.96762 0.29415 0.74243 0.0
H3039 H 0.96129 0.29523 0.70003 0.0
H3040 H 0.96959 0.29281 0.71286 0.0
H3041 H 0.96013 0.28186 0.70748 0.0
H3042 H 0.95713 0.27222 0.72635 0.0
H3043 H 0.97049 0.26158 0.73833 0.0
H3044 H 0.20617 0.40653 0.69235 0.0
H3045 H 0.21605 0.4232 0.70047 0.0
H3046 H 0.19511 0.42062 0.73052 0.0
H3047 H 0.18499 0.40418 0.72241 0.0
H3048 H 0.20621 0.44491 0.7094 0.0
H3049 H 0.22928 0.41919 0.74196 0.0
H3050 H 0.22299 0.41299 0.72927 0.0
H3051 H 0.21409 0.41676 0.74104 0.0
C3052 C 0.20355 0.40959 0.70062 0.0
C3053 C 0.19483 0.4039 0.70675 0.0
C3054 C 0.20924 0.4191 0.70526 0.0
C3055 C 0.20639 0.42305 0.71614 0.0
C3056 C 0.19755 0.41759 0.72217 0.0
H3057 H 0.23605 0.47144 0.76374 0.0
H3058 H 0.22358 0.45778 0.75377 0.0
C3059 C 0.19182 0.40814 0.71753 0.0
C3060 C 0.21285 0.43269 0.72139 0.0
H3061 H 0.23111 0.43916 0.74333 0.0
C3062 C 0.21169 0.44368 0.7168 0.0
C3063 C 0.21996 0.43105 0.73104 0.0
C3064 C 0.22177 0.41936 0.7361 0.0
C3065 C 0.21728 0.45315 0.72179 0.0
C3066 C 0.2244 0.4515 0.73147 0.0
C3067 C 0.2256 0.44046 0.73597 0.0
C3068 C 0.23084 0.461 0.73709 0.0
C3069 C 0.21526 0.46483 0.71682 0.0
C3070 C 0.23889 0.46759 0.73101 0.0
C3071 C 0.24595 0.47551 0.73669 0.0
C3072 C 0.2452 0.47685 0.74858 0.0
C3073 C 0.23683 0.47057 0.75457 0.0
C3074 C 0.22972 0.46275 0.74889 0.0
H3075 H 0.20716 0.46508 0.71181 0.0
H3076 H 0.21494 0.47136 0.72363 0.0
H3077 H 0.22236 0.46711 0.71098 0.0
H3078 H 0.24012 0.46624 0.72197 0.0
H3079 H 0.25245 0.48008 0.73188 0.0
H3080 H 0.1024 0.32198 0.34057 0.0
H3081 H 0.08613 0.31341 0.33028 0.0
H3082 H 0.10875 0.30228 0.30383 0.0
H3083 H 0.12508 0.3107 0.31411 0.0
H3084 H 0.07845 0.31731 0.30635 0.0
H3085 H 0.09149 0.27288 0.31574 0.0
H3086 H 0.09687 0.28492 0.32377 0.0
H3087 H 0.10239 0.28208 0.30983 0.0
C3088 C 0.10391 0.31769 0.33257 0.0
C3089 C 0.11505 0.31696 0.32819 0.0
C3090 C 0.0946 0.31286 0.32668 0.0
C3091 C 0.09627 0.30713 0.31636 0.0
C3092 C 0.10731 0.30659 0.31183 0.0
H3093 H 0.05004 0.28145 0.26449 0.0
H3094 H 0.0635 0.29294 0.27585 0.0
C3095 C 0.11662 0.31148 0.31768 0.0
C3096 C 0.0865 0.30144 0.31047 0.0
H3097 H 0.07598 0.27525 0.30293 0.0
C3098 C 0.07787 0.30812 0.30563 0.0
C3099 C 0.08571 0.28944 0.30968 0.0
C3100 C 0.09454 0.28186 0.3151 0.0
C3101 C 0.06858 0.3031 0.29973 0.0
C3102 C 0.06797 0.29111 0.29865 0.0
C3103 C 0.07648 0.28444 0.30374 0.0
C3104 C 0.05879 0.28525 0.29201 0.0
C3105 C 0.05946 0.31063 0.29477 0.0
C3106 C 0.0516 0.27718 0.29733 0.0
C3107 C 0.04391 0.27059 0.29086 0.0
C3108 C 0.04337 0.27185 0.27891 0.0
C3109 C 0.05028 0.28026 0.27367 0.0
C3110 C 0.05792 0.28689 0.28016 0.0
H3111 H 0.05961 0.3192 0.29875 0.0
H3112 H 0.06094 0.31174 0.28548 0.0
H3113 H 0.05084 0.30673 0.29592 0.0
H3114 H 0.05219 0.27573 0.30646 0.0
H3115 H 0.03884 0.26408 0.29514 0.0
H3116 H 0.18832 0.60441 0.3285 0.0
H3117 H 0.19639 0.5878 0.319 0.0
H3118 H 0.22849 0.60588 0.31524 0.0
H3119 H 0.22053 0.62244 0.32463 0.0
H3120 H 0.20609 0.58526 0.29737 0.0
H3121 H 0.23801 0.57654 0.33126 0.0
H3122 H 0.22616 0.58596 0.33336 0.0
H3123 H 0.23883 0.59096 0.32614 0.0
C3124 C 0.19707 0.60487 0.32557 0.0
C3125 C 0.20382 0.61473 0.32746 0.0
C3126 C 0.20168 0.59535 0.32019 0.0
C3127 C 0.21313 0.59549 0.31665 0.0
C3128 C 0.21974 0.60544 0.31819 0.0
H3129 H 0.26158 0.55892 0.27905 0.0
H3130 H 0.24994 0.57167 0.29031 0.0
C3131 C 0.21517 0.61492 0.32356 0.0
C3132 C 0.21824 0.58533 0.31125 0.0
H3133 H 0.24113 0.56767 0.31317 0.0
C3134 C 0.21363 0.58127 0.30091 0.0
C3135 C 0.22804 0.58006 0.31592 0.0
C3136 C 0.23298 0.58352 0.32734 0.0
C3137 C 0.21895 0.57254 0.2948 0.0
C3138 C 0.22907 0.5677 0.29921 0.0
C3139 C 0.23339 0.57142 0.30978 0.0
C3140 C 0.23596 0.55962 0.2925 0.0
C3141 C 0.21407 0.56894 0.28341 0.0
C3142 C 0.23204 0.5485 0.29011 0.0
C3143 C 0.23873 0.54113 0.28363 0.0
C3144 C 0.24938 0.54482 0.27937 0.0
C3145 C 0.25332 0.55589 0.282 0.0
C3146 C 0.2467 0.56318 0.2885 0.0
H3147 H 0.20698 0.57448 0.28054 0.0
H3148 H 0.22084 0.56912 0.27681 0.0
H3149 H 0.21074 0.56006 0.28406 0.0
H3150 H 0.22383 0.54554 0.29325 0.0
H3151 H 0.23551 0.53264 0.28177 0.0
H3152 H 0.90883 0.69903 0.33826 0.0
H3153 H 0.92503 0.71019 0.33079 0.0
H3154 H 0.91285 0.7045 0.29643 0.0
H3155 H 0.8965 0.69367 0.3038 0.0
H3156 H 0.9423 0.7037 0.31579 0.0
H3157 H 0.91713 0.73908 0.29753 0.0
H3158 H 0.91118 0.7289 0.30754 0.0
H3159 H 0.91237 0.72532 0.29268 0.0
C3160 C 0.90952 0.70027 0.32912 0.0
C3161 C 0.90132 0.69547 0.32164 0.0
C3162 C 0.91883 0.70659 0.32486 0.0
C3163 C 0.92008 0.70831 0.31306 0.0
C3164 C 0.91198 0.70345 0.30558 0.0
H3165 H 0.97795 0.72773 0.27181 0.0
H3166 H 0.964 0.71753 0.28365 0.0
C3167 C 0.90269 0.69714 0.30982 0.0
C3168 C 0.92991 0.71505 0.30849 0.0
H3169 H 0.93654 0.73799 0.29163 0.0
C3170 C 0.94107 0.71126 0.31059 0.0
C3171 C 0.92831 0.72501 0.30186 0.0
C3172 C 0.91661 0.7299 0.29985 0.0
C3173 C 0.95062 0.71695 0.30589 0.0
C3174 C 0.94897 0.72658 0.29877 0.0
C3175 C 0.93783 0.73057 0.29701 0.0
C3176 C 0.95854 0.73248 0.29274 0.0
C3177 C 0.9624 0.71261 0.30864 0.0
C3178 C 0.96021 0.74429 0.29392 0.0
C3179 C 0.96816 0.75015 0.28711 0.0
C3180 C 0.97459 0.74434 0.27895 0.0
C3181 C 0.97329 0.73244 0.27815 0.0
C3182 C 0.9653 0.72658 0.28493 0.0
H3183 H 0.96247 0.70768 0.31677 0.0
H3184 H 0.96514 0.70687 0.30173 0.0
H3185 H 0.96872 0.71973 0.30932 0.0
H3186 H 0.95511 0.74903 0.29987 0.0
H3187 H 0.969 0.7593 0.28797 0.0
H3188 H 0.8295 0.39838 0.3011 0.0
H3189 H 0.81919 0.4148 0.29368 0.0
H3190 H 0.81171 0.4252 0.32804 0.0
H3191 H 0.82234 0.40895 0.33558 0.0
H3192 H 0.79654 0.42008 0.29663 0.0
H3193 H 0.82474 0.45453 0.3137 0.0
H3194 H 0.82906 0.43984 0.31319 0.0
H3195 H 0.8196 0.44451 0.32419 0.0
C3196 C 0.82581 0.40424 0.30711 0.0
C3197 C 0.82685 0.40237 0.31896 0.0
C3198 C 0.81985 0.41359 0.30284 0.0
C3199 C 0.81481 0.42134 0.3103 0.0
C3200 C 0.81571 0.41947 0.32212 0.0
H3201 H 0.76251 0.46883 0.28766 0.0
H3202 H 0.77344 0.45482 0.29857 0.0
C3203 C 0.82167 0.41008 0.32641 0.0
C3204 C 0.80833 0.43114 0.30559 0.0
H3205 H 0.80762 0.46024 0.30451 0.0
C3206 C 0.79895 0.42886 0.29838 0.0
C3207 C 0.81155 0.4426 0.30777 0.0
C3208 C 0.82185 0.44557 0.31505 0.0
C3209 C 0.7927 0.43769 0.29331 0.0
C3210 C 0.79578 0.44916 0.29566 0.0
C3211 C 0.8052 0.45146 0.30282 0.0
C3212 C 0.78953 0.4588 0.29036 0.0
C3213 C 0.78303 0.43466 0.28523 0.0
C3214 C 0.79506 0.46613 0.28258 0.0
C3215 C 0.78884 0.47422 0.27638 0.0
C3216 C 0.77696 0.4751 0.27786 0.0
C3217 C 0.77161 0.46826 0.28622 0.0
C3218 C 0.77784 0.46022 0.29243 0.0
H3219 H 0.78351 0.42571 0.28227 0.0
H3220 H 0.77477 0.43566 0.28968 0.0
H3221 H 0.78307 0.44037 0.27765 0.0
H3222 H 0.80409 0.46522 0.28088 0.0
H3223 H 0.7932 0.47928 0.26995 0.0
H3224 H 0.17879 0.60668 0.71256 0.0
H3225 H 0.18895 0.5905 0.72077 0.0
H3226 H 0.22097 0.60499 0.70936 0.0
H3227 H 0.21089 0.6211 0.70092 0.0
H3228 H 0.20421 0.57446 0.71042 0.0
H3229 H 0.22527 0.6004 0.7443 0.0
H3230 H 0.21318 0.6054 0.73614 0.0
H3231 H 0.2272 0.60566 0.72999 0.0
C3232 C 0.18798 0.60637 0.71163 0.0
C3233 C 0.194 0.61528 0.7061 0.0
C3234 C 0.19378 0.59712 0.71639 0.0
C3235 C 0.20573 0.5966 0.7158 0.0
C3236 C 0.21176 0.60531 0.71008 0.0
H3237 H 0.25138 0.54082 0.73221 0.0
H3238 H 0.23899 0.55431 0.72224 0.0
C3239 C 0.20597 0.61455 0.70529 0.0
C3240 C 0.2119 0.58709 0.72142 0.0
H3241 H 0.23099 0.58125 0.74276 0.0
C3242 C 0.21006 0.57592 0.7175 0.0
C3243 C 0.21941 0.589 0.73075 0.0
C3244 C 0.22135 0.60074 0.73564 0.0
C3245 C 0.21569 0.56663 0.72256 0.0
C3246 C 0.22341 0.56859 0.73172 0.0
C3247 C 0.22511 0.57975 0.73571 0.0
C3248 C 0.22984 0.55926 0.73738 0.0
C3249 C 0.2132 0.55479 0.71818 0.0
C3250 C 0.22874 0.55742 0.74918 0.0
C3251 C 0.2358 0.54972 0.75489 0.0
C3252 C 0.24418 0.54372 0.74893 0.0
C3253 C 0.2449 0.54516 0.73702 0.0
C3254 C 0.23783 0.5529 0.73131 0.0
H3255 H 0.20507 0.55439 0.71323 0.0
H3256 H 0.22021 0.55221 0.71247 0.0
H3257 H 0.21269 0.54856 0.72534 0.0
H3258 H 0.22263 0.56221 0.75405 0.0
H3259 H 0.23497 0.54874 0.76405 0.0
H3260 H 0.17695 0.41386 0.31321 0.0
H3261 H 0.18732 0.42999 0.30468 0.0
H3262 H 0.21924 0.41588 0.31612 0.0
H3263 H 0.20898 0.39952 0.32433 0.0
H3264 H 0.20226 0.44634 0.31395 0.0
H3265 H 0.22392 0.41989 0.28175 0.0
H3266 H 0.21205 0.4146 0.2901 0.0
H3267 H 0.22618 0.41528 0.29622 0.0
C3268 C 0.18619 0.41414 0.31385 0.0
C3269 C 0.19213 0.4053 0.31935 0.0
C3270 C 0.19209 0.42342 0.30905 0.0
C3271 C 0.20406 0.42405 0.3096 0.0
C3272 C 0.21001 0.41547 0.31542 0.0
H3273 H 0.24992 0.48064 0.29361 0.0
H3274 H 0.23673 0.46742 0.30322 0.0
C3275 C 0.20412 0.40617 0.32022 0.0
C3276 C 0.21033 0.43354 0.30383 0.0
H3277 H 0.23001 0.43916 0.28309 0.0
C3278 C 0.20831 0.44479 0.30718 0.0
C3279 C 0.21807 0.43152 0.29486 0.0
C3280 C 0.22013 0.41968 0.29042 0.0
C3281 C 0.21401 0.45407 0.30195 0.0
C3282 C 0.22204 0.45201 0.29325 0.0
C3283 C 0.22389 0.44076 0.28979 0.0
C3284 C 0.22877 0.46128 0.28764 0.0
C3285 C 0.21125 0.46598 0.30568 0.0
C3286 C 0.2286 0.46237 0.27569 0.0
C3287 C 0.23617 0.46988 0.27019 0.0
C3288 C 0.24407 0.47645 0.27652 0.0
C3289 C 0.2438 0.47583 0.28851 0.0
C3290 C 0.23626 0.46826 0.29402 0.0
H3291 H 0.20276 0.4663 0.30985 0.0
H3292 H 0.21778 0.46893 0.31195 0.0
H3293 H 0.21132 0.47199 0.29832 0.0
H3294 H 0.2229 0.45709 0.27058 0.0
H3295 H 0.23617 0.4702 0.26094 0.0
H3296 H 0.10701 0.67849 0.31149 0.0
H3297 H 0.09095 0.68935 0.30395 0.0
H3298 H 0.1046 0.71977 0.31972 0.0
H3299 H 0.12094 0.70908 0.32693 0.0
H3300 H 0.07426 0.70196 0.31468 0.0
H3301 H 0.1009 0.72957 0.28651 0.0
H3302 H 0.10634 0.7169 0.29327 0.0
H3303 H 0.10512 0.72984 0.30128 0.0
C3304 C 0.10667 0.68752 0.31328 0.0
C3305 C 0.11538 0.69292 0.31972 0.0
C3306 C 0.09742 0.6937 0.30904 0.0
C3307 C 0.09665 0.70542 0.3111 0.0
C3308 C 0.10511 0.71078 0.31783 0.0
H3309 H 0.0505 0.75741 0.28588 0.0
H3310 H 0.06427 0.74663 0.29726 0.0
C3311 C 0.1144 0.70461 0.32206 0.0
C3312 C 0.0871 0.71204 0.30603 0.0
H3313 H 0.08132 0.73395 0.28768 0.0
C3314 C 0.07579 0.70896 0.30877 0.0
C3315 C 0.0891 0.72115 0.2983 0.0
C3316 C 0.10101 0.72452 0.29456 0.0
C3317 C 0.06645 0.71484 0.3041 0.0
C3318 C 0.06846 0.72393 0.29635 0.0
C3319 C 0.07977 0.72703 0.29367 0.0
C3320 C 0.05904 0.73019 0.29063 0.0
C3321 C 0.05451 0.71137 0.30762 0.0
C3322 C 0.05133 0.72453 0.28328 0.0
C3323 C 0.04342 0.73068 0.27676 0.0
C3324 C 0.04315 0.74263 0.27739 0.0
C3325 C 0.05054 0.74822 0.28514 0.0
C3326 C 0.05842 0.74207 0.29165 0.0
H3327 H 0.05452 0.70657 0.31582 0.0
H3328 H 0.049 0.71893 0.30851 0.0
H3329 H 0.05069 0.70577 0.30097 0.0
H3330 H 0.05178 0.7154 0.28216 0.0
H3331 H 0.03799 0.72613 0.27075 0.0
H3332 H 0.79675 0.61795 0.33601 0.0
H3333 H 0.78904 0.6016 0.32554 0.0
H3334 H 0.82285 0.59378 0.31379 0.0
H3335 H 0.83072 0.60993 0.32458 0.0
H3336 H 0.78985 0.59777 0.30235 0.0
H3337 H 0.81148 0.56297 0.32596 0.0
H3338 H 0.81083 0.57731 0.33138 0.0
H3339 H 0.8209 0.57388 0.32045 0.0
C3340 C 0.8026 0.61266 0.33136 0.0
C3341 C 0.81439 0.61524 0.33123 0.0
C3342 C 0.79816 0.60335 0.32531 0.0
C3343 C 0.80538 0.59634 0.31902 0.0
C3344 C 0.81713 0.59892 0.31877 0.0
H3345 H 0.79074 0.53994 0.27261 0.0
H3346 H 0.80024 0.55395 0.28507 0.0
C3347 C 0.8216 0.60825 0.32483 0.0
C3348 C 0.80046 0.58666 0.31237 0.0
H3349 H 0.80084 0.55769 0.30945 0.0
C3350 C 0.79223 0.58901 0.30394 0.0
C3351 C 0.80362 0.57523 0.31439 0.0
C3352 C 0.81212 0.57214 0.3236 0.0
C3353 C 0.78712 0.58028 0.29744 0.0
C3354 C 0.79016 0.56883 0.29956 0.0
C3355 C 0.79849 0.56646 0.30788 0.0
C3356 C 0.78467 0.55927 0.29318 0.0
C3357 C 0.77863 0.58341 0.28822 0.0
C3358 C 0.77285 0.55726 0.29399 0.0
C3359 C 0.76742 0.54924 0.28694 0.0
C3360 C 0.77371 0.54303 0.27897 0.0
C3361 C 0.78566 0.54452 0.27872 0.0
C3362 C 0.7911 0.55257 0.28578 0.0
H3363 H 0.77939 0.59254 0.28577 0.0
H3364 H 0.77981 0.57814 0.28048 0.0
H3365 H 0.76984 0.58183 0.29141 0.0
H3366 H 0.76776 0.56216 0.29983 0.0
H3367 H 0.75823 0.54819 0.28744 0.0
H3368 H 0.89971 0.2972 0.33077 0.0
H3369 H 0.91596 0.28953 0.32054 0.0
H3370 H 0.92824 0.3236 0.31338 0.0
H3371 H 0.91212 0.33139 0.32392 0.0
H3372 H 0.92177 0.29285 0.29789 0.0
H3373 H 0.95669 0.30807 0.3266 0.0
H3374 H 0.94187 0.30787 0.3308 0.0
H3375 H 0.94723 0.31892 0.32152 0.0
C3376 C 0.90594 0.30309 0.32717 0.0
C3377 C 0.90463 0.31493 0.32827 0.0
C3378 C 0.9152 0.29868 0.32125 0.0
C3379 C 0.92342 0.30597 0.31633 0.0
C3380 C 0.92212 0.3178 0.31729 0.0
H3381 H 0.97091 0.28298 0.26441 0.0
H3382 H 0.95728 0.29412 0.27531 0.0
C3383 C 0.91282 0.32224 0.3232 0.0
C3384 C 0.93311 0.30111 0.30989 0.0
H3385 H 0.96223 0.29897 0.30953 0.0
C3386 C 0.93061 0.29422 0.30042 0.0
C3387 C 0.94465 0.3028 0.31327 0.0
C3388 C 0.94782 0.30973 0.32366 0.0
C3389 C 0.93931 0.28899 0.29423 0.0
C3390 C 0.95087 0.29083 0.29747 0.0
C3391 C 0.95339 0.29768 0.30698 0.0
C3392 C 0.96035 0.28532 0.29129 0.0
C3393 C 0.93602 0.28128 0.28443 0.0
C3394 C 0.96707 0.2771 0.29679 0.0
C3395 C 0.97493 0.27076 0.29058 0.0
C3396 C 0.97621 0.27254 0.27876 0.0
C3397 C 0.97001 0.28131 0.27347 0.0
C3398 C 0.9622 0.28766 0.27968 0.0
H3399 H 0.92685 0.27868 0.28473 0.0
H3400 H 0.93751 0.28585 0.27625 0.0
H3401 H 0.94128 0.27349 0.28448 0.0
H3402 H 0.96583 0.2752 0.30576 0.0
H3403 H 0.97949 0.26402 0.2949 0.0
H3404 H 0.83859 0.41308 0.71414 0.0
H3405 H 0.82781 0.42902 0.72163 0.0
H3406 H 0.79757 0.41677 0.70411 0.0
H3407 H 0.80816 0.40053 0.69694 0.0
H3408 H 0.81597 0.44637 0.71087 0.0
H3409 H 0.78662 0.41937 0.73688 0.0
H3410 H 0.79941 0.41389 0.73055 0.0
H3411 H 0.78677 0.41584 0.72199 0.0
C3412 C 0.82961 0.41369 0.71196 0.0
C3413 C 0.82423 0.4054 0.70504 0.0
C3414 C 0.82349 0.42288 0.71617 0.0
C3415 C 0.81183 0.42401 0.7136 0.0
C3416 C 0.8065 0.41597 0.7064 0.0
H3417 H 0.76032 0.47053 0.73827 0.0
H3418 H 0.77096 0.45697 0.72682 0.0
C3419 C 0.81262 0.40675 0.70219 0.0
C3420 C 0.80525 0.43348 0.71864 0.0
H3421 H 0.78286 0.43906 0.73622 0.0
C3422 C 0.80872 0.44478 0.71641 0.0
C3423 C 0.7958 0.4314 0.72589 0.0
C3424 C 0.79197 0.41948 0.72908 0.0
C3425 C 0.80296 0.45404 0.72115 0.0
C3426 C 0.79356 0.45195 0.72844 0.0
C3427 C 0.79003 0.44066 0.73058 0.0
C3428 C 0.78743 0.46126 0.73428 0.0
C3429 C 0.80689 0.46598 0.7182 0.0
C3430 C 0.79316 0.46837 0.74213 0.0
C3431 C 0.78709 0.47614 0.7487 0.0
C3432 C 0.77514 0.47689 0.74761 0.0
C3433 C 0.76951 0.47011 0.73938 0.0
C3434 C 0.77558 0.46236 0.73282 0.0
H3435 H 0.81193 0.46621 0.71019 0.0
H3436 H 0.79951 0.47175 0.71722 0.0
H3437 H 0.81244 0.46929 0.72519 0.0
H3438 H 0.80226 0.46753 0.74359 0.0
H3439 H 0.79167 0.48107 0.75508 0.0
H3440 H 0.1152 0.329 0.70906 0.0
H3441 H 0.09856 0.32104 0.71907 0.0
H3442 H 0.09806 0.29224 0.69643 0.0
H3443 H 0.11446 0.30022 0.68618 0.0
H3444 H 0.0757 0.31361 0.7093 0.0
H3445 H 0.10047 0.27899 0.72996 0.0
H3446 H 0.1072 0.29171 0.72423 0.0
H3447 H 0.10225 0.28067 0.71479 0.0
C3448 C 0.11148 0.32105 0.7061 0.0
C3449 C 0.11628 0.31522 0.69684 0.0
C3450 C 0.10198 0.31649 0.71186 0.0
C3451 C 0.09716 0.306 0.70855 0.0
C3452 C 0.10176 0.30028 0.69921 0.0
H3453 H 0.04711 0.25946 0.7378 0.0
H3454 H 0.0608 0.26924 0.72529 0.0
C3455 C 0.11119 0.30483 0.69341 0.0
C3456 C 0.08749 0.30086 0.71501 0.0
H3457 H 0.08051 0.2785 0.73248 0.0
C3458 C 0.07672 0.30595 0.71441 0.0
C3459 C 0.08886 0.29087 0.72162 0.0
C3460 C 0.10032 0.28524 0.72281 0.0
C3461 C 0.06721 0.30115 0.72006 0.0
C3462 C 0.06859 0.29114 0.72671 0.0
C3463 C 0.0794 0.28613 0.72734 0.0
C3464 C 0.05905 0.28571 0.73324 0.0
C3465 C 0.05574 0.30668 0.71862 0.0
C3466 C 0.05328 0.29175 0.74171 0.0
C3467 C 0.04534 0.28619 0.74879 0.0
C3468 C 0.04317 0.27444 0.74765 0.0
C3469 C 0.04862 0.26851 0.73888 0.0
C3470 C 0.05646 0.27409 0.73175 0.0
H3471 H 0.05539 0.31197 0.71073 0.0
H3472 H 0.04873 0.30021 0.71828 0.0
H3473 H 0.05423 0.31234 0.72599 0.0
H3474 H 0.0553 0.30065 0.74323 0.0
H3475 H 0.04142 0.29093 0.7556 0.0
H3476 H 0.90394 0.69267 0.70693 0.0
H3477 H 0.92069 0.70071 0.71683 0.0
H3478 H 0.92044 0.72974 0.69419 0.0
H3479 H 0.90394 0.72167 0.684 0.0
H3480 H 0.94346 0.70901 0.70633 0.0
H3481 H 0.91815 0.74198 0.72837 0.0
H3482 H 0.91171 0.72907 0.72279 0.0
H3483 H 0.91584 0.74039 0.71325 0.0
C3484 C 0.90754 0.70068 0.70393 0.0
C3485 C 0.9025 0.70654 0.69469 0.0
C3486 C 0.91708 0.70528 0.70963 0.0
C3487 C 0.92173 0.71585 0.70628 0.0
C3488 C 0.9169 0.72162 0.69697 0.0
H3489 H 0.97097 0.76228 0.73739 0.0
H3490 H 0.95732 0.75295 0.72442 0.0
C3491 C 0.90741 0.71702 0.69121 0.0
C3492 C 0.93142 0.72104 0.71272 0.0
H3493 H 0.93809 0.74267 0.73103 0.0
C3494 C 0.94233 0.71636 0.71175 0.0
C3495 C 0.92988 0.73064 0.71972 0.0
C3496 C 0.91827 0.73582 0.72121 0.0
C3497 C 0.95182 0.72118 0.7175 0.0
C3498 C 0.95028 0.73075 0.72461 0.0
C3499 C 0.93932 0.73538 0.72555 0.0
C3500 C 0.95976 0.73604 0.73137 0.0
C3501 C 0.96344 0.71613 0.71567 0.0
C3502 C 0.9659 0.72962 0.73943 0.0
C3503 C 0.97382 0.73493 0.74676 0.0
C3504 C 0.97561 0.74679 0.74629 0.0
C3505 C 0.96976 0.75313 0.73794 0.0
C3506 C 0.96195 0.74781 0.73055 0.0
H3507 H 0.96379 0.71142 0.70748 0.0
H3508 H 0.97025 0.72282 0.71567 0.0
H3509 H 0.96527 0.71001 0.72267 0.0
H3510 H 0.96419 0.72058 0.74045 0.0
H3511 H 0.97804 0.72985 0.75324 0.0
H3512 H 0.68713 0.1921 0.60934 0.0
H3513 H 0.69547 0.20164 0.59259 0.0
H3514 H 0.72712 0.20666 0.61106 0.0
H3515 H 0.71888 0.19724 0.62778 0.0
H3516 H 0.70513 0.22359 0.58975 0.0
H3517 H 0.73729 0.19046 0.5821 0.0
H3518 H 0.72522 0.18816 0.5914 0.0
H3519 H 0.73773 0.19573 0.59645 0.0
C3520 C 0.69584 0.19532 0.60987 0.0
C3521 C 0.70238 0.19377 0.61988 0.0
C3522 C 0.70061 0.20073 0.60026 0.0
C3523 C 0.71201 0.20463 0.60048 0.0
C3524 C 0.71841 0.20343 0.61058 0.0
H3525 H 0.76119 0.24255 0.56332 0.0
H3526 H 0.74935 0.23115 0.57622 0.0
C3527 C 0.71368 0.19804 0.62015 0.0
C3528 C 0.71729 0.21003 0.59023 0.0
H3529 H 0.74046 0.20842 0.57275 0.0
C3530 C 0.71274 0.22019 0.58589 0.0
C3531 C 0.72718 0.20553 0.58514 0.0
C3532 C 0.73208 0.19431 0.58893 0.0
C3533 C 0.71821 0.2263 0.57705 0.0
C3534 C 0.7284 0.22207 0.57236 0.0
C3535 C 0.73266 0.21167 0.57637 0.0
C3536 C 0.73543 0.22883 0.56418 0.0
C3537 C 0.71339 0.23753 0.57317 0.0
C3538 C 0.73162 0.23119 0.55301 0.0
C3539 C 0.73842 0.23776 0.54555 0.0
C3540 C 0.74908 0.24213 0.5492 0.0
C3541 C 0.75292 0.23951 0.56031 0.0
C3542 C 0.7462 0.23293 0.56768 0.0
H3543 H 0.7063 0.24034 0.5787 0.0
H3544 H 0.72019 0.24423 0.57314 0.0
H3545 H 0.71007 0.23669 0.56431 0.0
H3546 H 0.7234 0.22796 0.55007 0.0
H3547 H 0.73526 0.23961 0.53703 0.0
H3548 H 0.32889 0.20669 0.61607 0.0
H3549 H 0.32065 0.21673 0.59966 0.0
H3550 H 0.29098 0.19459 0.60081 0.0
H3551 H 0.29925 0.18426 0.61697 0.0
H3552 H 0.31176 0.20646 0.57725 0.0
H3553 H 0.2794 0.22869 0.60326 0.0
H3554 H 0.29229 0.22295 0.60943 0.0
H3555 H 0.28069 0.21359 0.60548 0.0
C3556 C 0.32069 0.20384 0.61276 0.0
C3557 C 0.31472 0.19469 0.61794 0.0
C3558 C 0.31597 0.20962 0.6034 0.0
C3559 C 0.30518 0.20645 0.5991 0.0
C3560 C 0.29927 0.19724 0.6041 0.0
H3561 H 0.25865 0.23786 0.55073 0.0
H3562 H 0.26786 0.22488 0.56426 0.0
C3563 C 0.304 0.1914 0.6134 0.0
C3564 C 0.29995 0.2129 0.58954 0.0
H3565 H 0.27849 0.23133 0.58334 0.0
C3566 C 0.30449 0.21191 0.57854 0.0
C3567 C 0.29045 0.21995 0.59128 0.0
C3568 C 0.28542 0.22147 0.603 0.0
C3569 C 0.29965 0.21769 0.56916 0.0
C3570 C 0.2902 0.22485 0.57092 0.0
C3571 C 0.28569 0.22581 0.58196 0.0
C3572 C 0.28494 0.23166 0.56156 0.0
C3573 C 0.30455 0.21583 0.55745 0.0
C3574 C 0.29148 0.23965 0.55533 0.0
C3575 C 0.28624 0.24698 0.54749 0.0
C3576 C 0.27432 0.2466 0.54587 0.0
C3577 C 0.26784 0.23835 0.55182 0.0
C3578 C 0.2731 0.23095 0.55956 0.0
H3579 H 0.30912 0.20762 0.55699 0.0
H3580 H 0.29777 0.21591 0.55078 0.0
H3581 H 0.31081 0.22276 0.55553 0.0
H3582 H 0.30057 0.24059 0.55691 0.0
H3583 H 0.29142 0.25339 0.54319 0.0
H3584 H 0.29951 0.83269 0.61978 0.0
H3585 H 0.29203 0.8224 0.60321 0.0
H3586 H 0.32455 0.8062 0.59908 0.0
H3587 H 0.33196 0.81605 0.61598 0.0
H3588 H 0.29881 0.82252 0.58094 0.0
H3589 H 0.30286 0.77905 0.59926 0.0
H3590 H 0.30435 0.7917 0.60784 0.0
H3591 H 0.31599 0.78715 0.59911 0.0
C3592 C 0.30505 0.82681 0.61548 0.0
C3593 C 0.31632 0.82513 0.61935 0.0
C3594 C 0.30078 0.821 0.60592 0.0
C3595 C 0.30765 0.81338 0.59998 0.0
C3596 C 0.31899 0.81186 0.60364 0.0
H3597 H 0.29125 0.76801 0.54283 0.0
H3598 H 0.30173 0.78027 0.55632 0.0
C3599 C 0.32326 0.81762 0.61325 0.0
C3600 C 0.30291 0.80707 0.58997 0.0
H3601 H 0.29698 0.78032 0.57997 0.0
C3602 C 0.29843 0.81329 0.58073 0.0
C3603 C 0.30241 0.79501 0.58967 0.0
C3604 C 0.30656 0.78782 0.59953 0.0
C3605 C 0.29347 0.8078 0.57122 0.0
C3606 C 0.29286 0.79577 0.57099 0.0
C3607 C 0.29752 0.78954 0.58012 0.0
C3608 C 0.28682 0.78943 0.56173 0.0
C3609 C 0.28895 0.81493 0.56148 0.0
C3610 C 0.275 0.79064 0.56013 0.0
C3611 C 0.26902 0.78367 0.55243 0.0
C3612 C 0.27472 0.77532 0.54616 0.0
C3613 C 0.28664 0.77446 0.5474 0.0
C3614 C 0.29262 0.7814 0.55517 0.0
H3615 H 0.29283 0.82362 0.56145 0.0
H3616 H 0.29063 0.81085 0.55313 0.0
H3617 H 0.27957 0.81578 0.56239 0.0
H3618 H 0.27031 0.79664 0.56521 0.0
H3619 H 0.25984 0.78453 0.55167 0.0
H3620 H 0.68607 0.82237 0.61098 0.0
H3621 H 0.69322 0.81157 0.59472 0.0
H3622 H 0.72767 0.8158 0.60745 0.0
H3623 H 0.7206 0.8263 0.62383 0.0
H3624 H 0.70906 0.81829 0.57777 0.0
H3625 H 0.7246 0.78133 0.60275 0.0
H3626 H 0.71499 0.79163 0.6086 0.0
H3627 H 0.73005 0.79476 0.60781 0.0
C3628 C 0.69515 0.82089 0.61039 0.0
C3629 C 0.70275 0.82519 0.61875 0.0
C3630 C 0.69923 0.81479 0.60105 0.0
C3631 C 0.71097 0.81276 0.59994 0.0
C3632 C 0.71857 0.81711 0.60821 0.0
H3633 H 0.75221 0.79324 0.54274 0.0
H3634 H 0.7408 0.80363 0.55653 0.0
C3635 C 0.71451 0.82322 0.61752 0.0
C3636 C 0.71534 0.8062 0.59011 0.0
H3637 H 0.7308 0.78276 0.58346 0.0
C3638 C 0.71373 0.81046 0.57899 0.0
C3639 C 0.72129 0.79591 0.59169 0.0
C3640 C 0.72275 0.79056 0.60334 0.0
C3641 C 0.71826 0.80491 0.56945 0.0
C3642 C 0.72468 0.79491 0.57109 0.0
C3643 C 0.72595 0.79046 0.58219 0.0
C3644 C 0.73046 0.78902 0.56155 0.0
C3645 C 0.71607 0.80977 0.5577 0.0
C3646 C 0.7284 0.77737 0.55967 0.0
C3647 C 0.73494 0.77141 0.55181 0.0
C3648 C 0.74372 0.77696 0.54568 0.0
C3649 C 0.7454 0.78875 0.54717 0.0
C3650 C 0.73887 0.7947 0.55507 0.0
H3651 H 0.70835 0.81517 0.55756 0.0
H3652 H 0.72348 0.81519 0.55516 0.0
H3653 H 0.71495 0.80291 0.55129 0.0
H3654 H 0.72197 0.77279 0.56456 0.0
H3655 H 0.73341 0.76235 0.55081 0.0
H3656 H 0.68551 0.8212 0.41242 0.0
H3657 H 0.69316 0.81046 0.42868 0.0
H3658 H 0.72733 0.82125 0.41969 0.0
H3659 H 0.71982 0.83167 0.40325 0.0
H3660 H 0.72554 0.79825 0.42408 0.0
H3661 H 0.70581 0.82292 0.45894 0.0
H3662 H 0.69596 0.81752 0.44838 0.0
H3663 H 0.70648 0.82808 0.4444 0.0
C3664 C 0.69465 0.82124 0.41387 0.0
C3665 C 0.70204 0.82735 0.40653 0.0
C3666 C 0.699 0.81521 0.42326 0.0
C3667 C 0.7108 0.81521 0.42552 0.0
C3668 C 0.71818 0.82122 0.41818 0.0
H3669 H 0.75146 0.79444 0.48352 0.0
H3670 H 0.73972 0.8049 0.46973 0.0
C3671 C 0.71386 0.82724 0.40881 0.0
C3672 C 0.71559 0.8086 0.43526 0.0
H3673 H 0.71598 0.80643 0.4644 0.0
C3674 C 0.72342 0.80001 0.43289 0.0
C3675 C 0.7129 0.811 0.44676 0.0
C3676 C 0.70491 0.82044 0.44983 0.0
C3677 C 0.72866 0.79377 0.44169 0.0
C3678 C 0.72584 0.79602 0.45319 0.0
C3679 C 0.71802 0.80462 0.45558 0.0
C3680 C 0.73141 0.78986 0.46278 0.0
C3681 C 0.73744 0.78504 0.43859 0.0
C3682 C 0.73021 0.77799 0.46384 0.0
C3683 C 0.7369 0.772 0.4717 0.0
C3684 C 0.74484 0.77778 0.47874 0.0
C3685 C 0.74536 0.78975 0.47829 0.0
C3686 C 0.7387 0.79573 0.47037 0.0
H3687 H 0.74054 0.78621 0.4297 0.0
H3688 H 0.7449 0.78549 0.44449 0.0
H3689 H 0.73355 0.77639 0.43928 0.0
H3690 H 0.72445 0.77331 0.45823 0.0
H3691 H 0.73621 0.76279 0.47195 0.0
H3692 H 0.71114 0.19681 0.40107 0.0
H3693 H 0.7217 0.20442 0.41752 0.0
H3694 H 0.68996 0.21329 0.43344 0.0
H3695 H 0.67934 0.20534 0.41724 0.0
H3696 H 0.7219 0.2263 0.42506 0.0
H3697 H 0.70655 0.19756 0.45955 0.0
H3698 H 0.7045 0.19436 0.44461 0.0
H3699 H 0.69519 0.2041 0.45165 0.0
C3700 C 0.70639 0.20016 0.40817 0.0
C3701 C 0.69437 0.20044 0.4078 0.0
C3702 C 0.71244 0.20458 0.41754 0.0
C3703 C 0.70664 0.20931 0.4268 0.0
C3704 C 0.69465 0.2095 0.42652 0.0
H3705 H 0.73532 0.25888 0.47404 0.0
H3706 H 0.72348 0.24841 0.46022 0.0
C3707 C 0.68858 0.20508 0.41716 0.0
C3708 C 0.71313 0.21468 0.43639 0.0
H3709 H 0.71662 0.21442 0.46543 0.0
C3710 C 0.72078 0.22366 0.43387 0.0
C3711 C 0.71177 0.21116 0.4479 0.0
C3712 C 0.70415 0.20119 0.45111 0.0
C3713 C 0.72693 0.22935 0.44253 0.0
C3714 C 0.72523 0.22614 0.45408 0.0
C3715 C 0.71779 0.21698 0.4566 0.0
C3716 C 0.73128 0.23213 0.46356 0.0
C3717 C 0.73531 0.23866 0.4392 0.0
C3718 C 0.73915 0.22635 0.4705 0.0
C3719 C 0.74588 0.23231 0.47849 0.0
C3720 C 0.74484 0.24417 0.47967 0.0
C3721 C 0.73642 0.24978 0.47323 0.0
C3722 C 0.72968 0.24382 0.46529 0.0
H3723 H 0.73776 0.23809 0.43008 0.0
H3724 H 0.73132 0.24706 0.44051 0.0
H3725 H 0.74318 0.23831 0.44454 0.0
H3726 H 0.74047 0.21731 0.46936 0.0
H3727 H 0.75235 0.22775 0.48324 0.0
H3728 H 0.31978 0.18763 0.41386 0.0
H3729 H 0.30879 0.19526 0.42977 0.0
H3730 H 0.31547 0.22941 0.41758 0.0
H3731 H 0.32614 0.22188 0.40152 0.0
H3732 H 0.31574 0.21031 0.44711 0.0
H3733 H 0.28074 0.22857 0.42107 0.0
H3734 H 0.29067 0.21847 0.41541 0.0
H3735 H 0.29468 0.23327 0.4166 0.0
C3736 C 0.31879 0.19676 0.41448 0.0
C3737 C 0.32383 0.20413 0.40637 0.0
C3738 C 0.31257 0.20111 0.42363 0.0
C3739 C 0.31118 0.2129 0.42479 0.0
C3740 C 0.31627 0.22027 0.41677 0.0
H3741 H 0.29266 0.25443 0.48207 0.0
H3742 H 0.30265 0.24257 0.46837 0.0
C3743 C 0.32248 0.21595 0.40765 0.0
C3744 C 0.30455 0.21756 0.43444 0.0
H3745 H 0.28197 0.23454 0.44047 0.0
C3746 C 0.3083 0.21553 0.44568 0.0
C3747 C 0.29473 0.22422 0.43259 0.0
C3748 C 0.28988 0.22618 0.42077 0.0
C3749 C 0.30272 0.2203 0.45508 0.0
C3750 C 0.29324 0.22744 0.45318 0.0
C3751 C 0.28928 0.22915 0.44195 0.0
C3752 C 0.28745 0.23351 0.46259 0.0
C3753 C 0.30699 0.21761 0.46696 0.0
C3754 C 0.27557 0.23236 0.46399 0.0
C3755 C 0.26984 0.23918 0.47178 0.0
C3756 C 0.27585 0.24733 0.47834 0.0
C3757 C 0.28781 0.24811 0.4773 0.0
C3758 C 0.29354 0.24132 0.46946 0.0
H3759 H 0.31176 0.2095 0.46718 0.0
H3760 H 0.31291 0.22451 0.4698 0.0
H3761 H 0.29983 0.21698 0.47312 0.0
H3762 H 0.27068 0.22642 0.45879 0.0
H3763 H 0.26064 0.23833 0.47242 0.0
H3764 H 0.29928 0.83234 0.40394 0.0
H3765 H 0.29132 0.82239 0.42051 0.0
H3766 H 0.32299 0.80468 0.42532 0.0
H3767 H 0.33099 0.81443 0.40857 0.0
H3768 H 0.28903 0.79827 0.4231 0.0
H3769 H 0.3159 0.81749 0.45748 0.0
H3770 H 0.31453 0.8239 0.44349 0.0
H3771 H 0.32346 0.81175 0.44555 0.0
C3772 C 0.30456 0.82628 0.40845 0.0
C3773 C 0.31578 0.82416 0.40483 0.0
C3774 C 0.30001 0.82067 0.41799 0.0
C3775 C 0.30659 0.81289 0.42423 0.0
C3776 C 0.31783 0.81081 0.42076 0.0
H3777 H 0.29026 0.76744 0.48126 0.0
H3778 H 0.30015 0.77929 0.46698 0.0
C3779 C 0.32239 0.8164 0.41117 0.0
C3780 C 0.30143 0.80656 0.43399 0.0
H3781 H 0.30313 0.80262 0.46291 0.0
C3782 C 0.29209 0.79925 0.43181 0.0
C3783 C 0.3055 0.80777 0.44534 0.0
C3784 C 0.31535 0.81571 0.44819 0.0
C3785 C 0.28675 0.79305 0.44062 0.0
C3786 C 0.29065 0.79442 0.45202 0.0
C3787 C 0.30009 0.80163 0.4542 0.0
C3788 C 0.28502 0.78834 0.4617 0.0
C3789 C 0.27712 0.78488 0.43758 0.0
C3790 C 0.27335 0.78986 0.46386 0.0
C3791 C 0.2677 0.7831 0.47198 0.0
C3792 C 0.27363 0.77478 0.47823 0.0
C3793 C 0.28548 0.77383 0.47664 0.0
C3794 C 0.29112 0.78055 0.46844 0.0
H3795 H 0.27732 0.78247 0.42842 0.0
H3796 H 0.2775 0.777 0.44284 0.0
H3797 H 0.26883 0.78902 0.43918 0.0
H3798 H 0.26852 0.79603 0.45899 0.0
H3799 H 0.25859 0.78411 0.47311 0.0
H3800 H 0.61926 0.19499 0.71401 0.0
H3801 H 0.60306 0.20249 0.72454 0.0
H3802 H 0.58778 0.21383 0.69295 0.0
H3803 H 0.6037 0.20597 0.68232 0.0
H3804 H 0.59657 0.22449 0.72558 0.0
H3805 H 0.56078 0.19824 0.70834 0.0
H3806 H 0.57556 0.19459 0.70637 0.0
H3807 H 0.56905 0.20521 0.69742 0.0
C3808 C 0.61234 0.19885 0.70927 0.0
C3809 C 0.61282 0.19985 0.69729 0.0
C3810 C 0.60311 0.20321 0.71532 0.0
C3811 C 0.5941 0.2086 0.70955 0.0
C3812 C 0.59448 0.20951 0.69759 0.0
H3813 H 0.54953 0.25831 0.73968 0.0
H3814 H 0.56267 0.24796 0.72748 0.0
C3815 C 0.6037 0.20514 0.69154 0.0
C3816 C 0.58473 0.21395 0.71608 0.0
H3817 H 0.55567 0.21469 0.71899 0.0
C3818 C 0.58764 0.22229 0.72417 0.0
C3819 C 0.57306 0.21101 0.71434 0.0
C3820 C 0.56941 0.20169 0.70623 0.0
C3821 C 0.57924 0.22793 0.7304 0.0
C3822 C 0.56755 0.22534 0.72833 0.0
C3823 C 0.56462 0.2168 0.72044 0.0
C3824 C 0.55833 0.23136 0.73444 0.0
C3825 C 0.58298 0.23653 0.73926 0.0
C3826 C 0.55102 0.2254 0.74192 0.0
C3827 C 0.5434 0.2313 0.74884 0.0
C3828 C 0.54298 0.24326 0.74838 0.0
C3829 C 0.54975 0.24911 0.74031 0.0
C3830 C 0.5573 0.24321 0.73338 0.0
H3831 H 0.59203 0.23537 0.74188 0.0
H3832 H 0.58219 0.24523 0.73563 0.0
H3833 H 0.57753 0.23591 0.74697 0.0
H3834 H 0.55162 0.21625 0.74283 0.0
H3835 H 0.53837 0.22657 0.75503 0.0
H3836 H 0.31132 0.1238 0.70484 0.0
H3837 H 0.30118 0.10751 0.71335 0.0
H3838 H 0.33147 0.08731 0.71053 0.0
H3839 H 0.34168 0.10355 0.70198 0.0
H3840 H 0.2968 0.08504 0.70566 0.0
H3841 H 0.32406 0.08579 0.74474 0.0
H3842 H 0.32396 0.09737 0.73455 0.0
H3843 H 0.33162 0.08461 0.73151 0.0
C3844 C 0.31579 0.11585 0.70587 0.0
C3845 C 0.32735 0.11502 0.70281 0.0
C3846 C 0.30998 0.10655 0.71077 0.0
C3847 C 0.31562 0.09625 0.71274 0.0
C3848 C 0.32703 0.09525 0.70931 0.0
H3849 H 0.27972 0.03438 0.73847 0.0
H3850 H 0.29145 0.04716 0.72644 0.0
C3851 C 0.33285 0.10455 0.70443 0.0
C3852 C 0.30966 0.08675 0.71879 0.0
H3853 H 0.30987 0.0714 0.74366 0.0
C3854 C 0.29969 0.08197 0.71392 0.0
C3855 C 0.31341 0.08284 0.72962 0.0
C3856 C 0.32379 0.08795 0.73549 0.0
C3857 C 0.29329 0.07351 0.71968 0.0
C3858 C 0.29703 0.06966 0.73053 0.0
C3859 C 0.30709 0.0743 0.73529 0.0
C3860 C 0.29005 0.0617 0.73761 0.0
C3861 C 0.28234 0.06908 0.71434 0.0
C3862 C 0.28559 0.06555 0.74794 0.0
C3863 C 0.27899 0.05831 0.75479 0.0
C3864 C 0.27667 0.047 0.75149 0.0
C3865 C 0.28132 0.04305 0.74122 0.0
C3866 C 0.28794 0.05036 0.73431 0.0
H3867 H 0.2797 0.07426 0.70683 0.0
H3868 H 0.28357 0.06019 0.71147 0.0
H3869 H 0.27533 0.069 0.72067 0.0
H3870 H 0.28719 0.07423 0.7507 0.0
H3871 H 0.27579 0.06156 0.76277 0.0
H3872 H 0.40841 0.83495 0.70839 0.0
H3873 H 0.42557 0.82773 0.71788 0.0
H3874 H 0.42077 0.79547 0.70098 0.0
H3875 H 0.40397 0.80275 0.6911 0.0
H3876 H 0.42741 0.81011 0.73265 0.0
H3877 H 0.45413 0.80162 0.69495 0.0
H3878 H 0.44136 0.81001 0.69408 0.0
H3879 H 0.4404 0.79469 0.69401 0.0
C3880 C 0.41112 0.82638 0.70652 0.0
C3881 C 0.40477 0.81945 0.69894 0.0
C3882 C 0.4209 0.82224 0.71202 0.0
C3883 C 0.42461 0.81111 0.71001 0.0
C3884 C 0.41828 0.80417 0.70248 0.0
H3885 H 0.46958 0.76279 0.7406 0.0
H3886 H 0.45657 0.77365 0.72838 0.0
C3887 C 0.40853 0.80831 0.69696 0.0
C3888 C 0.43469 0.80651 0.71625 0.0
H3889 H 0.45992 0.7927 0.71253 0.0
C3890 C 0.4346 0.80647 0.72824 0.0
C3891 C 0.4441 0.80175 0.71052 0.0
C3892 C 0.44508 0.80211 0.69768 0.0
C3893 C 0.44338 0.80139 0.73464 0.0
C3894 C 0.4526 0.79632 0.7289 0.0
C3895 C 0.45284 0.79659 0.71692 0.0
C3896 C 0.46161 0.79006 0.73522 0.0
C3897 C 0.44251 0.80106 0.74749 0.0
C3898 C 0.4691 0.79572 0.74279 0.0
C3899 C 0.47659 0.78952 0.74975 0.0
C3900 C 0.47668 0.77756 0.74928 0.0
C3901 C 0.46965 0.77199 0.7412 0.0
C3902 C 0.46222 0.77818 0.73421 0.0
H3903 H 0.43391 0.80354 0.75048 0.0
H3904 H 0.44438 0.79241 0.75081 0.0
H3905 H 0.4489 0.80708 0.75121 0.0
H3906 H 0.46887 0.80489 0.74359 0.0
H3907 H 0.48184 0.79405 0.75594 0.0
H3908 H 0.71046 0.89947 0.69975 0.0
H3909 H 0.72058 0.91609 0.70766 0.0
H3910 H 0.68855 0.92986 0.71857 0.0
H3911 H 0.67834 0.91341 0.71055 0.0
H3912 H 0.71774 0.94042 0.70339 0.0
H3913 H 0.7082 0.92776 0.74817 0.0
H3914 H 0.70673 0.918 0.73638 0.0
H3915 H 0.69602 0.92849 0.73878 0.0
C3916 C 0.70554 0.9061 0.70368 0.0
C3917 C 0.69358 0.90502 0.70461 0.0
C3918 C 0.71135 0.91558 0.70824 0.0
C3919 C 0.70533 0.92412 0.71385 0.0
C3920 C 0.69338 0.92326 0.71446 0.0
H3921 H 0.72705 0.98151 0.75585 0.0
H3922 H 0.71577 0.96837 0.74402 0.0
C3923 C 0.68757 0.91382 0.7099 0.0
C3924 C 0.71155 0.93376 0.71939 0.0
H3925 H 0.71746 0.94552 0.74541 0.0
C3926 C 0.71769 0.94156 0.71257 0.0
C3927 C 0.71145 0.93523 0.73137 0.0
C3928 C 0.70533 0.92689 0.73915 0.0
C3929 C 0.72364 0.95088 0.71742 0.0
C3930 C 0.72362 0.95229 0.72943 0.0
C3931 C 0.71742 0.9445 0.73621 0.0
C3932 C 0.73032 0.96146 0.73527 0.0
C3933 C 0.72971 0.95921 0.70963 0.0
C3934 C 0.74225 0.96217 0.73412 0.0
C3935 C 0.74871 0.96978 0.74077 0.0
C3936 C 0.74341 0.97677 0.74884 0.0
C3937 C 0.73142 0.97639 0.74962 0.0
C3938 C 0.72496 0.9688 0.74293 0.0
H3939 H 0.72599 0.95906 0.70087 0.0
H3940 H 0.7293 0.96803 0.71295 0.0
H3941 H 0.73882 0.95686 0.709 0.0
H3942 H 0.74663 0.95647 0.72845 0.0
H3943 H 0.75792 0.9699 0.7399 0.0
H3944 H 0.60683 0.80882 0.34137 0.0
H3945 H 0.59088 0.80099 0.33018 0.0
H3946 H 0.60437 0.81708 0.29985 0.0
H3947 H 0.6206 0.82457 0.31088 0.0
H3948 H 0.57411 0.81149 0.31704 0.0
H3949 H 0.6011 0.78389 0.29029 0.0
H3950 H 0.60644 0.79071 0.30307 0.0
H3951 H 0.60514 0.79869 0.28999 0.0
C3952 C 0.60648 0.81061 0.3323 0.0
C3953 C 0.6151 0.81724 0.32702 0.0
C3954 C 0.59729 0.80621 0.32593 0.0
C3955 C 0.59652 0.8083 0.31414 0.0
C3956 C 0.6049 0.81518 0.3089 0.0
H3957 H 0.55038 0.78161 0.26174 0.0
H3958 H 0.56396 0.7936 0.27241 0.0
C3959 C 0.61411 0.81957 0.31525 0.0
C3960 C 0.58705 0.80308 0.30734 0.0
H3961 H 0.58148 0.78457 0.28554 0.0
C3962 C 0.57571 0.80561 0.31014 0.0
C3963 C 0.58915 0.79539 0.29836 0.0
C3964 C 0.6011 0.79191 0.29529 0.0
C3965 C 0.56643 0.80072 0.30414 0.0
C3966 C 0.56854 0.79299 0.29521 0.0
C3967 C 0.57988 0.79056 0.29235 0.0
C3968 C 0.5592 0.78691 0.28898 0.0
C3969 C 0.55445 0.80395 0.30733 0.0
C3970 C 0.55185 0.77932 0.29477 0.0
C3971 C 0.54409 0.77244 0.2887 0.0
C3972 C 0.5436 0.77295 0.2767 0.0
C3973 C 0.55061 0.78094 0.27097 0.0
C3974 C 0.55836 0.78781 0.27705 0.0
H3975 H 0.55434 0.81216 0.312 0.0
H3976 H 0.5489 0.80464 0.29964 0.0
H3977 H 0.55076 0.79727 0.313 0.0
H3978 H 0.5525 0.77831 0.30395 0.0
H3979 H 0.53897 0.76625 0.29336 0.0
H3980 H 0.69542 0.10154 0.34035 0.0
H3981 H 0.70392 0.08543 0.33044 0.0
H3982 H 0.71745 0.10835 0.30485 0.0
H3983 H 0.70916 0.12451 0.31478 0.0
H3984 H 0.70095 0.07785 0.30703 0.0
H3985 H 0.74568 0.09088 0.31725 0.0
H3986 H 0.73355 0.09651 0.32469 0.0
H3987 H 0.73715 0.10177 0.31071 0.0
C3988 C 0.70024 0.10316 0.33263 0.0
C3989 C 0.70166 0.11434 0.32841 0.0
C3990 C 0.70502 0.09393 0.32695 0.0
C3991 C 0.71143 0.09571 0.31699 0.0
C3992 C 0.71265 0.1068 0.3126 0.0
H3993 H 0.73621 0.04973 0.2658 0.0
H3994 H 0.72501 0.06299 0.27704 0.0
C3995 C 0.70782 0.11602 0.31824 0.0
C3996 C 0.71701 0.08599 0.3113 0.0
H3997 H 0.74314 0.07567 0.30422 0.0
C3998 C 0.71017 0.07733 0.30645 0.0
C3999 C 0.72905 0.08524 0.3107 0.0
C4000 C 0.73682 0.09403 0.31619 0.0
C4001 C 0.71506 0.06811 0.30072 0.0
C4002 C 0.72709 0.06758 0.29978 0.0
C4003 C 0.73392 0.07609 0.3049 0.0
C4004 C 0.73284 0.05852 0.29321 0.0
C4005 C 0.70732 0.05898 0.29579 0.0
C4006 C 0.74092 0.0515 0.29855 0.0
C4007 C 0.74737 0.04392 0.29213 0.0
C4008 C 0.74595 0.04331 0.28021 0.0
C4009 C 0.73752 0.05002 0.27496 0.0
C4010 C 0.73105 0.05755 0.28139 0.0
H4011 H 0.69876 0.05894 0.29984 0.0
H4012 H 0.70613 0.0606 0.28652 0.0
H4013 H 0.71111 0.05043 0.29686 0.0
H4014 H 0.74249 0.05215 0.30766 0.0
H4015 H 0.75389 0.03901 0.29642 0.0
H4016 H 0.3962 0.21018 0.32136 0.0
H4017 H 0.41277 0.22065 0.31387 0.0
H4018 H 0.43277 0.19017 0.31582 0.0
H4019 H 0.41623 0.17961 0.32332 0.0
H4020 H 0.43444 0.22439 0.32317 0.0
H4021 H 0.43704 0.20012 0.28267 0.0
H4022 H 0.42475 0.19923 0.29187 0.0
H4023 H 0.43751 0.19163 0.29546 0.0
C4024 C 0.40414 0.20571 0.3203 0.0
C4025 C 0.40484 0.19403 0.32288 0.0
C4026 C 0.4136 0.21171 0.31597 0.0
C4027 C 0.42397 0.20616 0.3141 0.0
C4028 C 0.42479 0.19457 0.31693 0.0
H4029 H 0.48651 0.23459 0.28223 0.0
H4030 H 0.4736 0.22188 0.29314 0.0
C4031 C 0.41532 0.18855 0.32122 0.0
C4032 C 0.43385 0.21257 0.30918 0.0
H4033 H 0.45115 0.21433 0.28581 0.0
C4034 C 0.43813 0.22215 0.31503 0.0
C4035 C 0.43872 0.20961 0.29859 0.0
C4036 C 0.43424 0.19965 0.29171 0.0
C4037 C 0.447 0.22894 0.31049 0.0
C4038 C 0.45163 0.22618 0.29975 0.0
C4039 C 0.44762 0.2164 0.29407 0.0
C4040 C 0.4598 0.23392 0.29377 0.0
C4041 C 0.45129 0.23909 0.3172 0.0
C4042 C 0.45631 0.24484 0.29052 0.0
C4043 C 0.4636 0.25202 0.2843 0.0
C4044 C 0.47454 0.24844 0.28114 0.0
C4045 C 0.47814 0.23757 0.28458 0.0
C4046 C 0.47077 0.23032 0.29076 0.0
H4047 H 0.44941 0.23813 0.32645 0.0
H4048 H 0.46065 0.24037 0.31613 0.0
H4049 H 0.44696 0.24685 0.31405 0.0
H4050 H 0.44784 0.24775 0.29259 0.0
H4051 H 0.46062 0.26039 0.28189 0.0
H4052 H 0.31587 0.89448 0.30347 0.0
H4053 H 0.30592 0.91124 0.29626 0.0
H4054 H 0.3197 0.93116 0.32408 0.0
H4055 H 0.32988 0.91445 0.33126 0.0
H4056 H 0.28961 0.92483 0.30766 0.0
H4057 H 0.32829 0.94986 0.29509 0.0
H4058 H 0.32861 0.93473 0.29785 0.0
H4059 H 0.32811 0.94454 0.30952 0.0
C4060 C 0.31687 0.90244 0.30802 0.0
C4061 C 0.32374 0.90312 0.31791 0.0
C4062 C 0.31112 0.912 0.30392 0.0
C4063 C 0.31218 0.92249 0.30954 0.0
C4064 C 0.31889 0.92319 0.31951 0.0
H4065 H 0.26687 0.97963 0.29426 0.0
H4066 H 0.27888 0.96601 0.30457 0.0
C4067 C 0.32461 0.9136 0.32366 0.0
C4068 C 0.30614 0.93261 0.30498 0.0
H4069 H 0.31046 0.95874 0.29256 0.0
C4070 C 0.29416 0.93228 0.30443 0.0
C4071 C 0.31211 0.94228 0.30068 0.0
C4072 C 0.32499 0.94291 0.3007 0.0
C4073 C 0.28798 0.94131 0.29964 0.0
C4074 C 0.29393 0.95101 0.29537 0.0
C4075 C 0.30592 0.95136 0.29596 0.0
C4076 C 0.28784 0.96044 0.28954 0.0
C4077 C 0.27513 0.94025 0.29882 0.0
C4078 C 0.28928 0.96223 0.27778 0.0
C4079 C 0.2825 0.97005 0.27189 0.0
C4080 C 0.27417 0.9763 0.27766 0.0
C4081 C 0.27326 0.97502 0.28958 0.0
C4082 C 0.28003 0.96715 0.29546 0.0
H4083 H 0.27205 0.9314 0.30048 0.0
H4084 H 0.27123 0.94589 0.30524 0.0
H4085 H 0.27206 0.94295 0.29024 0.0
H4086 H 0.2953 0.9572 0.27306 0.0
H4087 H 0.28347 0.97091 0.26274 0.0
H4088 H 0.67922 0.10873 0.7177 0.0
H4089 H 0.68987 0.09259 0.72529 0.0
H4090 H 0.7166 0.09903 0.70087 0.0
H4091 H 0.70589 0.11501 0.69296 0.0
H4092 H 0.69887 0.07238 0.71293 0.0
H4093 H 0.73234 0.09976 0.73337 0.0
H4094 H 0.71855 0.10514 0.72918 0.0
H4095 H 0.72918 0.10258 0.71857 0.0
C4096 C 0.68727 0.10664 0.71379 0.0
C4097 C 0.69168 0.11325 0.7047 0.0
C4098 C 0.69337 0.09742 0.7182 0.0
C4099 C 0.70405 0.09467 0.71371 0.0
C4100 C 0.70842 0.1011 0.70455 0.0
H4101 H 0.75651 0.04911 0.73919 0.0
H4102 H 0.74537 0.062 0.72713 0.0
C4103 C 0.7023 0.11028 0.70008 0.0
C4104 C 0.71074 0.08526 0.71883 0.0
H4105 H 0.73455 0.07995 0.73487 0.0
C4106 C 0.70669 0.074 0.71771 0.0
C4107 C 0.72095 0.0874 0.72502 0.0
C4108 C 0.72553 0.09936 0.72672 0.0
C4109 C 0.71265 0.06481 0.72255 0.0
C4110 C 0.72277 0.06697 0.72893 0.0
C4111 C 0.72684 0.07825 0.72995 0.0
C4112 C 0.72914 0.05781 0.73499 0.0
C4113 C 0.70813 0.05287 0.72059 0.0
C4114 C 0.72372 0.05089 0.74323 0.0
C4115 C 0.73007 0.04339 0.75003 0.0
C4116 C 0.74199 0.04281 0.74885 0.0
C4117 C 0.74733 0.04937 0.74027 0.0
C4118 C 0.74097 0.05677 0.73341 0.0
H4119 H 0.70282 0.05238 0.7127 0.0
H4120 H 0.71519 0.04671 0.71991 0.0
H4121 H 0.70264 0.05029 0.72787 0.0
H4122 H 0.71467 0.05171 0.74485 0.0
H4123 H 0.72575 0.03861 0.75671 0.0
H4124 H 0.68796 0.90161 0.30076 0.0
H4125 H 0.69839 0.91819 0.29329 0.0
H4126 H 0.70828 0.92767 0.32751 0.0
H4127 H 0.69775 0.91114 0.3351 0.0
H4128 H 0.69559 0.94164 0.29813 0.0
H4129 H 0.73885 0.92669 0.31041 0.0
H4130 H 0.72648 0.91732 0.31018 0.0
H4131 H 0.72865 0.92707 0.32179 0.0
C4132 C 0.69226 0.90726 0.30673 0.0
C4133 C 0.69202 0.90501 0.31855 0.0
C4134 C 0.69826 0.91672 0.30243 0.0
C4135 C 0.70421 0.9241 0.30982 0.0
C4136 C 0.70392 0.92197 0.32163 0.0
H4137 H 0.75058 0.98107 0.29429 0.0
H4138 H 0.7375 0.96806 0.30434 0.0
C4139 C 0.69791 0.9125 0.32595 0.0
C4140 C 0.71073 0.93399 0.30512 0.0
H4141 H 0.73775 0.94491 0.30198 0.0
C4142 C 0.70481 0.94238 0.299 0.0
C4143 C 0.72275 0.93496 0.30629 0.0
C4144 C 0.72961 0.926 0.31244 0.0
C4145 C 0.71058 0.95172 0.294 0.0
C4146 C 0.72262 0.95257 0.29497 0.0
C4147 C 0.72851 0.94428 0.30128 0.0
C4148 C 0.7294 0.96157 0.28899 0.0
C4149 C 0.70372 0.96062 0.2878 0.0
C4150 C 0.72905 0.96241 0.27703 0.0
C4151 C 0.73645 0.96991 0.27127 0.0
C4152 C 0.74443 0.97665 0.27735 0.0
C4153 C 0.74444 0.97613 0.28936 0.0
C4154 C 0.73703 0.96862 0.29511 0.0
H4155 H 0.69475 0.96072 0.29084 0.0
H4156 H 0.70757 0.96925 0.2889 0.0
H4157 H 0.70352 0.95865 0.27854 0.0
H4158 H 0.72341 0.95692 0.27209 0.0
H4159 H 0.73619 0.97014 0.26203 0.0
H4160 H 0.6224 0.21032 0.32461 0.0
H4161 H 0.60609 0.22092 0.31717 0.0
H4162 H 0.5895 0.18944 0.30726 0.0
H4163 H 0.60556 0.17875 0.31502 0.0
H4164 H 0.5983 0.2215 0.29516 0.0
H4165 H 0.56387 0.20556 0.3236 0.0
H4166 H 0.57883 0.20354 0.32675 0.0
H4167 H 0.57152 0.19442 0.31671 0.0
C4168 C 0.61519 0.20562 0.32105 0.0
C4169 C 0.61532 0.19366 0.32044 0.0
C4170 C 0.6059 0.21171 0.31673 0.0
C4171 C 0.59649 0.20598 0.31178 0.0
C4172 C 0.59654 0.19405 0.31124 0.0
H4173 H 0.54894 0.23563 0.2632 0.0
H4174 H 0.56273 0.22361 0.2732 0.0
C4175 C 0.60583 0.18795 0.31555 0.0
C4176 C 0.58695 0.21253 0.30659 0.0
H4177 H 0.55798 0.216 0.30708 0.0
C4178 C 0.5895 0.22033 0.29781 0.0
C4179 C 0.57546 0.2111 0.31012 0.0
C4180 C 0.57224 0.20328 0.31988 0.0
C4181 C 0.58089 0.22657 0.29233 0.0
C4182 C 0.56935 0.22482 0.29555 0.0
C4183 C 0.5668 0.21721 0.3045 0.0
C4184 C 0.5599 0.23101 0.2898 0.0
C4185 C 0.58425 0.23511 0.28323 0.0
C4186 C 0.55326 0.23872 0.29591 0.0
C4187 C 0.5453 0.24556 0.29022 0.0
C4188 C 0.54383 0.24478 0.27831 0.0
C4189 C 0.54998 0.23653 0.27235 0.0
C4190 C 0.5579 0.22969 0.27805 0.0
H4191 H 0.59346 0.23752 0.28382 0.0
H4192 H 0.58267 0.23133 0.27469 0.0
H4193 H 0.57912 0.24295 0.28387 0.0
H4194 H 0.55462 0.23984 0.305 0.0
H4195 H 0.54078 0.25189 0.29505 0.0
H4196 H 0.30921 0.10723 0.34465 0.0
H4197 H 0.30151 0.0908 0.33425 0.0
H4198 H 0.31482 0.10468 0.3028 0.0
H4199 H 0.32244 0.12124 0.31311 0.0
H4200 H 0.28546 0.09154 0.31645 0.0
H4201 H 0.32554 0.0715 0.30219 0.0
H4202 H 0.32527 0.08195 0.31344 0.0
H4203 H 0.32443 0.08637 0.29875 0.0
C4204 C 0.3105 0.10682 0.33552 0.0
C4205 C 0.31643 0.11561 0.32973 0.0
C4206 C 0.30616 0.09737 0.3296 0.0
C4207 C 0.30771 0.09643 0.31777 0.0
C4208 C 0.31374 0.1051 0.31197 0.0
H4209 H 0.28134 0.05189 0.26491 0.0
H4210 H 0.29235 0.06559 0.27638 0.0
C4211 C 0.31808 0.11457 0.31788 0.0
C4212 C 0.30237 0.08676 0.31145 0.0
H4213 H 0.30818 0.06417 0.29425 0.0
C4214 C 0.29043 0.08549 0.31167 0.0
C4215 C 0.30887 0.07893 0.30516 0.0
C4216 C 0.32174 0.07965 0.30491 0.0
C4217 C 0.28478 0.07678 0.30559 0.0
C4218 C 0.29127 0.06891 0.29932 0.0
C4219 C 0.30323 0.07015 0.29911 0.0
C4220 C 0.2857 0.05965 0.29258 0.0
C4221 C 0.27188 0.07632 0.30565 0.0
C4222 C 0.27866 0.05143 0.29789 0.0
C4223 C 0.27227 0.04365 0.29135 0.0
C4224 C 0.27287 0.04387 0.27935 0.0
C4225 C 0.28054 0.0516 0.27412 0.0
C4226 C 0.28689 0.05941 0.28067 0.0
H4227 H 0.26821 0.08452 0.30841 0.0
H4228 H 0.26843 0.07422 0.29704 0.0
H4229 H 0.26896 0.0696 0.3117 0.0
H4230 H 0.2778 0.0513 0.30709 0.0
H4231 H 0.26642 0.03788 0.29568 0.0
H4232 H 0.40253 0.82582 0.31065 0.0
H4233 H 0.41858 0.81702 0.30094 0.0
H4234 H 0.42687 0.79844 0.33168 0.0
H4235 H 0.41059 0.80677 0.34128 0.0
H4236 H 0.44181 0.81727 0.30561 0.0
H4237 H 0.42435 0.77317 0.30833 0.0
H4238 H 0.41585 0.78546 0.31135 0.0
H4239 H 0.42562 0.78006 0.32192 0.0
C4240 C 0.40768 0.81977 0.31533 0.0
C4241 C 0.40516 0.81697 0.32676 0.0
C4242 C 0.41693 0.81482 0.30978 0.0
C4243 C 0.42383 0.80692 0.31551 0.0
C4244 C 0.42154 0.80434 0.327 0.0
H4245 H 0.48023 0.76427 0.29464 0.0
H4246 H 0.467 0.77564 0.30581 0.0
C4247 C 0.41228 0.80924 0.33253 0.0
C4248 C 0.43336 0.80131 0.30947 0.0
H4249 H 0.44334 0.77529 0.3017 0.0
C4250 C 0.44214 0.8081 0.30473 0.0
C4251 C 0.43379 0.78932 0.3083 0.0
C4252 C 0.42435 0.78157 0.31264 0.0
C4253 C 0.45139 0.80322 0.29901 0.0
C4254 C 0.45181 0.79124 0.29788 0.0
C4255 C 0.44307 0.78447 0.30265 0.0
C4256 C 0.46096 0.78551 0.2914 0.0
C4257 C 0.4607 0.81091 0.29434 0.0
C4258 C 0.46213 0.78743 0.27962 0.0
C4259 C 0.46971 0.78098 0.27322 0.0
C4260 C 0.47627 0.77244 0.27847 0.0
C4261 C 0.47544 0.77088 0.29036 0.0
C4262 C 0.46781 0.77731 0.29674 0.0
H4263 H 0.46076 0.81939 0.2985 0.0
H4264 H 0.46923 0.80704 0.29553 0.0
H4265 H 0.45925 0.81222 0.28506 0.0
H4266 H 0.45681 0.79357 0.27526 0.0
H4267 H 0.47017 0.78239 0.26409 0.0
H4268 H 0.33736 0.91106 0.7177 0.0
H4269 H 0.32697 0.92721 0.72531 0.0
H4270 H 0.29946 0.92077 0.70146 0.0
H4271 H 0.30989 0.90473 0.69357 0.0
H4272 H 0.31822 0.94726 0.71345 0.0
H4273 H 0.2841 0.92056 0.73348 0.0
H4274 H 0.29756 0.91478 0.72904 0.0
H4275 H 0.28674 0.91797 0.71862 0.0
C4276 C 0.32917 0.91314 0.71393 0.0
C4277 C 0.32448 0.90653 0.70501 0.0
C4278 C 0.32322 0.92236 0.71835 0.0
C4279 C 0.3124 0.92512 0.71403 0.0
C4280 C 0.30773 0.91868 0.70503 0.0
H4281 H 0.26147 0.97251 0.73827 0.0
H4282 H 0.27216 0.95908 0.7267 0.0
C4283 C 0.3137 0.90948 0.70057 0.0
C4284 C 0.30595 0.93464 0.71909 0.0
H4285 H 0.28227 0.94044 0.73478 0.0
C4286 C 0.31034 0.9458 0.7181 0.0
C4287 C 0.29567 0.93271 0.72512 0.0
C4288 C 0.29074 0.92086 0.72674 0.0
C4289 C 0.30468 0.95509 0.72291 0.0
C4290 C 0.29448 0.95313 0.72912 0.0
C4291 C 0.29005 0.94197 0.73 0.0
C4292 C 0.2884 0.96241 0.7351 0.0
C4293 C 0.30958 0.96691 0.72112 0.0
C4294 C 0.29398 0.96895 0.74353 0.0
C4295 C 0.28789 0.97671 0.75009 0.0
C4296 C 0.27606 0.97797 0.74846 0.0
C4297 C 0.27057 0.97172 0.73974 0.0
C4298 C 0.27668 0.96403 0.73314 0.0
H4299 H 0.31501 0.96737 0.71339 0.0
H4300 H 0.30271 0.97329 0.72027 0.0
H4301 H 0.31501 0.96924 0.72857 0.0
H4302 H 0.30294 0.96768 0.74543 0.0
H4303 H 0.29232 0.98124 0.75688 0.0
H4304 H 0.61488 0.79949 0.6868 0.0
H4305 H 0.59842 0.79161 0.69704 0.0
H4306 H 0.59754 0.82158 0.71805 0.0
H4307 H 0.61422 0.82945 0.70807 0.0
H4308 H 0.59755 0.7877 0.72159 0.0
H4309 H 0.56392 0.81709 0.70612 0.0
H4310 H 0.57723 0.81527 0.69865 0.0
H4311 H 0.5769 0.8236 0.71144 0.0
C4312 C 0.61126 0.80441 0.69364 0.0
C4313 C 0.61596 0.81511 0.69662 0.0
C4314 C 0.60178 0.79991 0.69943 0.0
C4315 C 0.59668 0.80606 0.70821 0.0
C4316 C 0.60123 0.81678 0.71115 0.0
H4317 H 0.54178 0.79057 0.75588 0.0
H4318 H 0.55584 0.8001 0.74352 0.0
C4319 C 0.61076 0.82127 0.70542 0.0
C4320 C 0.587 0.80093 0.71468 0.0
H4321 H 0.55857 0.80373 0.72039 0.0
C4322 C 0.58901 0.79117 0.72129 0.0
C4323 C 0.57591 0.80555 0.71436 0.0
C4324 C 0.57327 0.81591 0.70721 0.0
C4325 C 0.58027 0.78595 0.72771 0.0
C4326 C 0.5691 0.79042 0.72724 0.0
C4327 C 0.5671 0.80025 0.72068 0.0
C4328 C 0.55948 0.78505 0.73367 0.0
C4329 C 0.5832 0.77587 0.73518 0.0
C4330 C 0.55643 0.77358 0.7319 0.0
C4331 C 0.54845 0.76812 0.73897 0.0
C4332 C 0.5432 0.77408 0.74784 0.0
C4333 C 0.54562 0.78578 0.74907 0.0
C4334 C 0.5537 0.79122 0.74205 0.0
H4335 H 0.59251 0.77557 0.73707 0.0
H4336 H 0.57852 0.7761 0.74339 0.0
H4337 H 0.58076 0.76789 0.73069 0.0
H4338 H 0.56053 0.76873 0.72528 0.0
H4339 H 0.54667 0.75913 0.73777 0.0
H4340 H 0.40531 0.22135 0.68506 0.0
H4341 H 0.42186 0.22929 0.69525 0.0
H4342 H 0.42483 0.19819 0.71467 0.0
H4343 H 0.40806 0.19025 0.70476 0.0
H4344 H 0.42328 0.23156 0.7201 0.0
H4345 H 0.45786 0.20516 0.70222 0.0
H4346 H 0.44425 0.2069 0.69507 0.0
H4347 H 0.44533 0.19767 0.70728 0.0
C4348 C 0.40941 0.21619 0.69154 0.0
C4349 C 0.40526 0.20516 0.69411 0.0
C4350 C 0.41894 0.22072 0.69729 0.0
C4351 C 0.42464 0.21429 0.70562 0.0
C4352 C 0.42067 0.20323 0.70812 0.0
H4353 H 0.47978 0.22887 0.75359 0.0
H4354 H 0.46613 0.21964 0.74048 0.0
C4355 C 0.41108 0.1987 0.70243 0.0
C4356 C 0.43428 0.21946 0.71217 0.0
H4357 H 0.46301 0.21775 0.71718 0.0
C4358 C 0.43198 0.22859 0.71943 0.0
C4359 C 0.44558 0.21547 0.71135 0.0
C4360 C 0.44849 0.20581 0.70351 0.0
C4361 C 0.44066 0.23376 0.72601 0.0
C4362 C 0.45204 0.22993 0.72506 0.0
C4363 C 0.45432 0.22074 0.71783 0.0
C4364 C 0.46155 0.23523 0.73175 0.0
C4365 C 0.43745 0.24306 0.73419 0.0
C4366 C 0.46395 0.24695 0.73081 0.0
C4367 C 0.47168 0.25223 0.73832 0.0
C4368 C 0.47733 0.24585 0.74677 0.0
C4369 C 0.47562 0.23398 0.7471 0.0
C4370 C 0.46778 0.22871 0.73965 0.0
H4371 H 0.42819 0.24276 0.73621 0.0
H4372 H 0.44237 0.24241 0.74231 0.0
H4373 H 0.43939 0.25147 0.73024 0.0
H4374 H 0.45949 0.2521 0.72457 0.0
H4375 H 0.47291 0.26138 0.73783 0.0
H4376 H 0.6862 0.69258 0.1089 0.0
H4377 H 0.69328 0.70278 0.09198 0.0
H4378 H 0.72615 0.70732 0.1083 0.0
H4379 H 0.71918 0.69718 0.12519 0.0
H4380 H 0.70159 0.72453 0.08957 0.0
H4381 H 0.73503 0.69405 0.07774 0.0
H4382 H 0.72397 0.69057 0.08791 0.0
H4383 H 0.73644 0.69865 0.09227 0.0
C4384 C 0.69493 0.69579 0.1089 0.0
C4385 C 0.70215 0.69396 0.11838 0.0
C4386 C 0.69898 0.70157 0.09919 0.0
C4387 C 0.71033 0.70559 0.09874 0.0
C4388 C 0.71747 0.70399 0.10828 0.0
H4389 H 0.74243 0.75947 0.0619 0.0
H4390 H 0.73183 0.74686 0.07472 0.0
C4391 C 0.71345 0.69821 0.11796 0.0
C4392 C 0.71465 0.71186 0.08851 0.0
H4393 H 0.73657 0.71274 0.06936 0.0
C4394 C 0.70915 0.72186 0.08506 0.0
C4395 C 0.72439 0.70829 0.08245 0.0
C4396 C 0.73023 0.69723 0.0852 0.0
C4397 C 0.71348 0.72869 0.07614 0.0
C4398 C 0.72368 0.72554 0.07063 0.0
C4399 C 0.72882 0.71523 0.07366 0.0
C4400 C 0.72966 0.73329 0.06245 0.0
C4401 C 0.70714 0.73931 0.07279 0.0
C4402 C 0.73216 0.72981 0.05127 0.0
C4403 C 0.73836 0.73703 0.04388 0.0
C4404 C 0.74232 0.74775 0.04764 0.0
C4405 C 0.73965 0.75121 0.05879 0.0
C4406 C 0.73346 0.74405 0.0661 0.0
H4407 H 0.69794 0.73856 0.07497 0.0
H4408 H 0.71081 0.74667 0.07754 0.0
H4409 H 0.70792 0.7411 0.06351 0.0
H4410 H 0.72938 0.7215 0.0483 0.0
H4411 H 0.7403 0.73413 0.03536 0.0
H4412 H 0.31558 0.70834 0.12489 0.0
H4413 H 0.30722 0.71857 0.10868 0.0
H4414 H 0.30933 0.68837 0.08809 0.0
H4415 H 0.31774 0.67808 0.10423 0.0
H4416 H 0.31499 0.72283 0.08617 0.0
H4417 H 0.27526 0.69624 0.08669 0.0
H4418 H 0.28547 0.6962 0.0983 0.0
H4419 H 0.28832 0.68851 0.08544 0.0
C4420 C 0.31442 0.70391 0.11687 0.0
C4421 C 0.31724 0.69235 0.1159 0.0
C4422 C 0.30961 0.70976 0.10762 0.0
C4423 C 0.30749 0.70418 0.09723 0.0
C4424 C 0.31068 0.69278 0.09609 0.0
H4425 H 0.28242 0.74033 0.03557 0.0
H4426 H 0.29418 0.7284 0.04823 0.0
C4427 C 0.31547 0.6869 0.10534 0.0
C4428 C 0.30155 0.71021 0.08777 0.0
H4429 H 0.27664 0.71036 0.0724 0.0
C4430 C 0.30664 0.72007 0.08308 0.0
C4431 C 0.29062 0.70663 0.08383 0.0
C4432 C 0.28452 0.69638 0.08886 0.0
C4433 C 0.30102 0.72653 0.07465 0.0
C4434 C 0.29007 0.72296 0.07077 0.0
C4435 C 0.28508 0.71301 0.07532 0.0
C4436 C 0.28313 0.73002 0.06287 0.0
C4437 C 0.30661 0.73735 0.0703 0.0
C4438 C 0.27295 0.73467 0.06682 0.0
C4439 C 0.26625 0.74139 0.05965 0.0
C4440 C 0.26957 0.74364 0.04832 0.0
C4441 C 0.27968 0.73879 0.04426 0.0
C4442 C 0.28643 0.73205 0.0515 0.0
H4443 H 0.31421 0.73986 0.07549 0.0
H4444 H 0.30939 0.7361 0.06136 0.0
H4445 H 0.30044 0.74445 0.07033 0.0
H4446 H 0.27019 0.73315 0.07552 0.0
H4447 H 0.25839 0.74476 0.06297 0.0
H4448 H 0.32942 0.31095 0.12016 0.0
H4449 H 0.32141 0.30051 0.10386 0.0
H4450 H 0.29914 0.32849 0.09632 0.0
H4451 H 0.30683 0.33888 0.11275 0.0
H4452 H 0.29762 0.29451 0.10045 0.0
H4453 H 0.3146 0.32163 0.06525 0.0
H4454 H 0.32056 0.3219 0.07953 0.0
H4455 H 0.30747 0.32911 0.07643 0.0
C4456 C 0.32278 0.31489 0.11509 0.0
C4457 C 0.31881 0.3258 0.11781 0.0
C4458 C 0.31827 0.30893 0.10571 0.0
C4459 C 0.3098 0.31379 0.09877 0.0
C4460 C 0.30585 0.32468 0.10141 0.0
H4461 H 0.26665 0.29218 0.04235 0.0
H4462 H 0.27803 0.30291 0.05638 0.0
C4463 C 0.31029 0.33061 0.11081 0.0
C4464 C 0.30466 0.30725 0.08914 0.0
H4465 H 0.30081 0.30747 0.06018 0.0
C4466 C 0.2984 0.29728 0.09163 0.0
C4467 C 0.30561 0.31094 0.07766 0.0
C4468 C 0.3125 0.32143 0.07449 0.0
C4469 C 0.2928 0.29103 0.08298 0.0
C4470 C 0.29377 0.29468 0.07146 0.0
C4471 C 0.30011 0.30463 0.06898 0.0
C4472 C 0.28792 0.28847 0.06198 0.0
C4473 C 0.28556 0.28082 0.08635 0.0
C4474 C 0.29004 0.27689 0.06006 0.0
C4475 C 0.28352 0.27074 0.05208 0.0
C4476 C 0.27487 0.27608 0.04571 0.0
C4477 C 0.27331 0.28785 0.04706 0.0
C4478 C 0.27977 0.29398 0.05513 0.0
H4479 H 0.28323 0.28102 0.09553 0.0
H4480 H 0.27759 0.28034 0.08118 0.0
H4481 H 0.29045 0.27295 0.08489 0.0
H4482 H 0.29651 0.27252 0.065 0.0
H4483 H 0.28499 0.26171 0.05114 0.0
H4484 H 0.70301 0.30984 0.1269 0.0
H4485 H 0.71036 0.29944 0.11055 0.0
H4486 H 0.70795 0.3297 0.08971 0.0
H4487 H 0.70059 0.34018 0.10602 0.0
H4488 H 0.70077 0.29524 0.08921 0.0
H4489 H 0.74105 0.32058 0.08507 0.0
H4490 H 0.73206 0.32137 0.09749 0.0
H4491 H 0.7282 0.32874 0.08456 0.0
C4492 C 0.70395 0.31427 0.11882 0.0
C4493 C 0.70126 0.32588 0.11781 0.0
C4494 C 0.7082 0.30832 0.10948 0.0
C4495 C 0.7099 0.31383 0.09894 0.0
C4496 C 0.70699 0.32533 0.09782 0.0
H4497 H 0.74037 0.28578 0.03639 0.0
H4498 H 0.72983 0.29832 0.04929 0.0
C4499 C 0.70277 0.33131 0.10717 0.0
C4500 C 0.71468 0.30746 0.08916 0.0
H4501 H 0.73769 0.30623 0.07138 0.0
C4502 C 0.70882 0.29768 0.08528 0.0
C4503 C 0.72516 0.31068 0.08397 0.0
C4504 C 0.73206 0.32085 0.08802 0.0
C4505 C 0.71321 0.29096 0.0765 0.0
C4506 C 0.72383 0.29399 0.07155 0.0
C4507 C 0.72953 0.30396 0.07515 0.0
C4508 C 0.72967 0.28637 0.06343 0.0
C4509 C 0.70649 0.2806 0.07264 0.0
C4510 C 0.73309 0.27556 0.06711 0.0
C4511 C 0.73909 0.26848 0.05983 0.0
C4512 C 0.74189 0.27204 0.04869 0.0
C4513 C 0.73831 0.28281 0.04491 0.0
C4514 C 0.73233 0.28997 0.05227 0.0
H4515 H 0.69728 0.2813 0.07473 0.0
H4516 H 0.70733 0.2793 0.0633 0.0
H4517 H 0.70981 0.27296 0.07709 0.0
H4518 H 0.73128 0.27266 0.07572 0.0
H4519 H 0.7416 0.26018 0.06296 0.0
H4520 H 0.68717 0.32805 0.91765 0.0
H4521 H 0.69439 0.31762 0.93431 0.0
H4522 H 0.72761 0.31601 0.91876 0.0
H4523 H 0.72049 0.32641 0.90213 0.0
H4524 H 0.70316 0.29642 0.93571 0.0
H4525 H 0.73576 0.3278 0.95026 0.0
H4526 H 0.72483 0.33129 0.93992 0.0
H4527 H 0.73754 0.3241 0.93554 0.0
C4528 C 0.69601 0.32546 0.91777 0.0
C4529 C 0.70327 0.32814 0.90857 0.0
C4530 C 0.70014 0.31956 0.92733 0.0
C4531 C 0.71161 0.31624 0.92791 0.0
C4532 C 0.71882 0.31877 0.91868 0.0
H4533 H 0.74375 0.26177 0.96288 0.0
H4534 H 0.73361 0.27475 0.95024 0.0
C4535 C 0.71472 0.3247 0.90915 0.0
C4536 C 0.71594 0.30964 0.93788 0.0
H4537 H 0.73761 0.30873 0.95757 0.0
C4538 C 0.7106 0.29919 0.94058 0.0
C4539 C 0.72552 0.31333 0.94441 0.0
C4540 C 0.73117 0.3248 0.94247 0.0
C4541 C 0.71493 0.29208 0.94922 0.0
C4542 C 0.72499 0.29541 0.95519 0.0
C4543 C 0.72998 0.30612 0.95291 0.0
C4544 C 0.73093 0.28753 0.96314 0.0
C4545 C 0.70874 0.281 0.95179 0.0
C4546 C 0.73305 0.29049 0.97459 0.0
C4547 C 0.73901 0.28309 0.98187 0.0
C4548 C 0.74309 0.27269 0.97775 0.0
C4549 C 0.74089 0.26979 0.96629 0.0
C4550 C 0.73495 0.27714 0.95908 0.0
H4551 H 0.69957 0.28141 0.94934 0.0
H4552 H 0.71264 0.27408 0.94678 0.0
H4553 H 0.70938 0.27876 0.96099 0.0
H4554 H 0.73009 0.29852 0.97788 0.0
H4555 H 0.7406 0.28558 0.99064 0.0
H4556 H 0.67872 0.70763 0.91528 0.0
H4557 H 0.68964 0.71532 0.93143 0.0
H4558 H 0.72023 0.7002 0.91845 0.0
H4559 H 0.70948 0.69285 0.90201 0.0
H4560 H 0.70255 0.70495 0.94847 0.0
H4561 H 0.7297 0.73351 0.92174 0.0
H4562 H 0.71702 0.72648 0.91624 0.0
H4563 H 0.73011 0.71878 0.91779 0.0
C4564 C 0.68779 0.70601 0.91578 0.0
C4565 C 0.69322 0.69972 0.90723 0.0
C4566 C 0.694 0.71033 0.92509 0.0
C4567 C 0.70579 0.7085 0.92607 0.0
C4568 C 0.71118 0.70191 0.91777 0.0
H4569 H 0.75785 0.73586 0.97218 0.0
H4570 H 0.74718 0.72365 0.95886 0.0
C4571 C 0.70498 0.6976 0.90843 0.0
C4572 C 0.71245 0.71373 0.93562 0.0
H4573 H 0.73421 0.7326 0.94139 0.0
C4574 C 0.70948 0.71099 0.94693 0.0
C4575 C 0.72148 0.72164 0.93362 0.0
C4576 C 0.72473 0.72538 0.92171 0.0
C4577 C 0.71537 0.71586 0.95627 0.0
C4578 C 0.72436 0.72379 0.95425 0.0
C4579 C 0.72737 0.72646 0.94295 0.0
C4580 C 0.73056 0.7298 0.96364 0.0
C4581 C 0.71201 0.71237 0.96821 0.0
C4582 C 0.72476 0.73711 0.971 0.0
C4583 C 0.73085 0.7441 0.97865 0.0
C4584 C 0.74287 0.74398 0.979 0.0
C4585 C 0.7486 0.73619 0.97207 0.0
C4586 C 0.74252 0.72921 0.96445 0.0
H4587 H 0.70735 0.70406 0.9683 0.0
H4588 H 0.71962 0.71176 0.97388 0.0
H4589 H 0.70627 0.71887 0.97178 0.0
H4590 H 0.71557 0.7379 0.97039 0.0
H4591 H 0.72619 0.75012 0.98373 0.0
H4592 H 0.3337 0.72163 0.90838 0.0
H4593 H 0.32347 0.72951 0.92457 0.0
H4594 H 0.30258 0.69904 0.92663 0.0
H4595 H 0.31256 0.69116 0.91022 0.0
H4596 H 0.29903 0.73293 0.92551 0.0
H4597 H 0.31458 0.70418 0.95997 0.0
H4598 H 0.32195 0.70594 0.94655 0.0
H4599 H 0.30911 0.69742 0.94727 0.0
C4600 C 0.32688 0.7166 0.91219 0.0
C4601 C 0.32395 0.70575 0.90791 0.0
C4602 C 0.32111 0.7211 0.92152 0.0
C4603 C 0.31236 0.71482 0.92689 0.0
C4604 C 0.30945 0.70395 0.92275 0.0
H4605 H 0.26504 0.73018 0.98159 0.0
H4606 H 0.27721 0.72068 0.96771 0.0
C4607 C 0.31518 0.69946 0.91336 0.0
C4608 C 0.30593 0.71992 0.93643 0.0
H4609 H 0.30034 0.71733 0.96495 0.0
C4610 C 0.29935 0.72955 0.93414 0.0
C4611 C 0.30628 0.71542 0.94766 0.0
C4612 C 0.31341 0.70521 0.9506 0.0
C4613 C 0.29299 0.73476 0.94274 0.0
C4614 C 0.2935 0.73042 0.95405 0.0
C4615 C 0.30002 0.72071 0.95632 0.0
C4616 C 0.28716 0.7358 0.96353 0.0
C4617 C 0.28556 0.7447 0.93954 0.0
C4618 C 0.28905 0.74732 0.96621 0.0
C4619 C 0.2821 0.75276 0.97409 0.0
C4620 C 0.27322 0.74675 0.97961 0.0
C4621 C 0.27187 0.73502 0.97754 0.0
C4622 C 0.27877 0.72959 0.96956 0.0
H4623 H 0.28362 0.74487 0.93024 0.0
H4624 H 0.27737 0.7444 0.94427 0.0
H4625 H 0.29012 0.75276 0.9417 0.0
H4626 H 0.29568 0.75221 0.96192 0.0
H4627 H 0.28341 0.76178 0.9756 0.0
H4628 H 0.33532 0.32156 0.91314 0.0
H4629 H 0.32776 0.31048 0.9293 0.0
H4630 H 0.29339 0.31718 0.91794 0.0
H4631 H 0.30082 0.32794 0.90164 0.0
H4632 H 0.31316 0.31709 0.94707 0.0
H4633 H 0.29352 0.28248 0.92124 0.0
H4634 H 0.30379 0.29253 0.91543 0.0
H4635 H 0.28906 0.29642 0.91691 0.0
C4636 C 0.32615 0.32057 0.91401 0.0
C4637 C 0.31869 0.32563 0.90604 0.0
C4638 C 0.32185 0.3143 0.9233 0.0
C4639 C 0.31001 0.31288 0.92476 0.0
C4640 C 0.30255 0.31801 0.9169 0.0
H4641 H 0.2689 0.29276 0.9826 0.0
H4642 H 0.28102 0.30325 0.96908 0.0
C4643 C 0.30683 0.32427 0.90764 0.0
C4644 C 0.30538 0.30608 0.93449 0.0
H4645 H 0.288 0.28331 0.94074 0.0
C4646 C 0.30773 0.30964 0.94571 0.0
C4647 C 0.29845 0.29626 0.93272 0.0
C4648 C 0.29613 0.29161 0.92093 0.0
C4649 C 0.30302 0.30387 0.95518 0.0
C4650 C 0.29563 0.29438 0.95338 0.0
C4651 C 0.29359 0.29063 0.94216 0.0
C4652 C 0.28963 0.28833 0.96287 0.0
C4653 C 0.30605 0.30795 0.96702 0.0
C4654 C 0.29049 0.27646 0.96404 0.0
C4655 C 0.28352 0.27046 0.97172 0.0
C4656 C 0.27552 0.27618 0.97841 0.0
C4657 C 0.27512 0.28813 0.97772 0.0
C4658 C 0.28205 0.29414 0.96997 0.0
H4659 H 0.31429 0.31278 0.96711 0.0
H4660 H 0.2993 0.31374 0.97003 0.0
H4661 H 0.30666 0.30072 0.97314 0.0
H4662 H 0.29626 0.27178 0.95867 0.0
H4663 H 0.28404 0.26126 0.97208 0.0
H4664 H 0.61649 0.71813 0.19017 0.0
H4665 H 0.60005 0.72547 0.20034 0.0
H4666 H 0.59577 0.69321 0.21766 0.0
H4667 H 0.61256 0.68596 0.20793 0.0
H4668 H 0.57772 0.71847 0.20059 0.0
H4669 H 0.59633 0.71509 0.2442 0.0
H4670 H 0.6048 0.71357 0.23151 0.0
H4671 H 0.59597 0.70192 0.23649 0.0
C4672 C 0.61219 0.71263 0.19627 0.0
C4673 C 0.61599 0.70147 0.1983 0.0
C4674 C 0.60269 0.71682 0.202 0.0
C4675 C 0.59676 0.70998 0.20991 0.0
C4676 C 0.60034 0.69875 0.21178 0.0
H4677 H 0.53993 0.72617 0.25512 0.0
H4678 H 0.55332 0.71575 0.24316 0.0
C4679 C 0.60988 0.69456 0.20609 0.0
C4680 C 0.58683 0.71465 0.21616 0.0
H4681 H 0.57707 0.72072 0.24286 0.0
C4682 C 0.57758 0.71894 0.20984 0.0
C4683 C 0.58662 0.71527 0.22823 0.0
C4684 C 0.5965 0.71132 0.23552 0.0
C4685 C 0.56816 0.72385 0.21524 0.0
C4686 C 0.56803 0.72458 0.22729 0.0
C4687 C 0.57716 0.72009 0.23363 0.0
C4688 C 0.55887 0.73057 0.23351 0.0
C4689 C 0.55841 0.72817 0.20802 0.0
C4690 C 0.5574 0.74231 0.23193 0.0
C4691 C 0.54977 0.74827 0.23874 0.0
C4692 C 0.54343 0.7426 0.24727 0.0
C4693 C 0.54455 0.73075 0.24852 0.0
C4694 C 0.55227 0.7248 0.24175 0.0
H4695 H 0.55828 0.72422 0.19942 0.0
H4696 H 0.55007 0.72645 0.2122 0.0
H4697 H 0.55942 0.73752 0.20688 0.0
H4698 H 0.56253 0.74698 0.22577 0.0
H4699 H 0.54909 0.75739 0.23758 0.0
H4700 H 0.30947 0.61962 0.19882 0.0
H4701 H 0.29936 0.6029 0.20657 0.0
H4702 H 0.33157 0.58766 0.21524 0.0
H4703 H 0.34175 0.60424 0.2074 0.0
H4704 H 0.30101 0.5788 0.20128 0.0
H4705 H 0.31407 0.58889 0.24586 0.0
H4706 H 0.31516 0.59917 0.23438 0.0
H4707 H 0.32555 0.58814 0.2358 0.0
C4708 C 0.31442 0.61264 0.20222 0.0
C4709 C 0.32644 0.61334 0.20258 0.0
C4710 C 0.30862 0.60311 0.20668 0.0
C4711 C 0.31471 0.59412 0.21162 0.0
C4712 C 0.3267 0.5946 0.21165 0.0
H4713 H 0.29304 0.53608 0.25306 0.0
H4714 H 0.30424 0.54883 0.24075 0.0
C4715 C 0.3325 0.60411 0.20719 0.0
C4716 C 0.30855 0.58442 0.21712 0.0
H4717 H 0.30387 0.5717 0.24298 0.0
C4718 C 0.30163 0.57722 0.21039 0.0
C4719 C 0.30939 0.58238 0.22901 0.0
C4720 C 0.31636 0.59009 0.23673 0.0
C4721 C 0.2956 0.56794 0.21523 0.0
C4722 C 0.29635 0.56597 0.22715 0.0
C4723 C 0.30335 0.57314 0.23384 0.0
C4724 C 0.28956 0.55691 0.23305 0.0
C4725 C 0.28862 0.56026 0.20751 0.0
C4726 C 0.27757 0.55697 0.2326 0.0
C4727 C 0.27114 0.54958 0.23953 0.0
C4728 C 0.27657 0.54207 0.24717 0.0
C4729 C 0.28857 0.54163 0.24717 0.0
C4730 C 0.29499 0.549 0.24021 0.0
H4731 H 0.29176 0.56063 0.19858 0.0
H4732 H 0.28878 0.55128 0.21052 0.0
H4733 H 0.27962 0.5631 0.20745 0.0
H4734 H 0.27315 0.56312 0.22732 0.0
H4735 H 0.26191 0.5501 0.23927 0.0
H4736 H 0.41123 0.33454 0.20441 0.0
H4737 H 0.42784 0.32714 0.21476 0.0
H4738 H 0.41984 0.29335 0.20259 0.0
H4739 H 0.40322 0.30061 0.19234 0.0
H4740 H 0.4287 0.31057 0.2318 0.0
H4741 H 0.4535 0.29706 0.19424 0.0
H4742 H 0.44147 0.30646 0.19307 0.0
H4743 H 0.43919 0.29133 0.1944 0.0
C4744 C 0.41297 0.32552 0.20397 0.0
C4745 C 0.40591 0.3182 0.19744 0.0
C4746 C 0.42252 0.32132 0.20984 0.0
C4747 C 0.42524 0.30973 0.20925 0.0
C4748 C 0.41811 0.30238 0.20291 0.0
H4749 H 0.46957 0.26171 0.24113 0.0
H4750 H 0.45661 0.27243 0.22878 0.0
C4751 C 0.40859 0.30656 0.19705 0.0
C4752 C 0.43525 0.30518 0.21562 0.0
H4753 H 0.45961 0.28984 0.21239 0.0
C4754 C 0.43555 0.30618 0.22756 0.0
C4755 C 0.44419 0.29945 0.21006 0.0
C4756 C 0.44466 0.29859 0.19723 0.0
C4757 C 0.44425 0.30117 0.23413 0.0
C4758 C 0.45303 0.29518 0.22859 0.0
C4759 C 0.45289 0.29444 0.21663 0.0
C4760 C 0.46193 0.28895 0.23513 0.0
C4761 C 0.44369 0.3019 0.24697 0.0
C4762 C 0.46958 0.29469 0.24248 0.0
C4763 C 0.47701 0.28857 0.24958 0.0
C4764 C 0.47692 0.27659 0.24943 0.0
C4765 C 0.46976 0.27092 0.24153 0.0
C4766 C 0.46236 0.27704 0.23445 0.0
H4767 H 0.43519 0.30472 0.24993 0.0
H4768 H 0.44555 0.29353 0.25097 0.0
H4769 H 0.45021 0.30815 0.25005 0.0
H4770 H 0.46955 0.3039 0.243 0.0
H4771 H 0.48237 0.29319 0.2556 0.0
H4772 H 0.68849 0.4007 0.22387 0.0
H4773 H 0.69889 0.41697 0.23195 0.0
H4774 H 0.71147 0.42596 0.19853 0.0
H4775 H 0.70077 0.40986 0.19028 0.0
H4776 H 0.72226 0.42105 0.23156 0.0
H4777 H 0.69918 0.45628 0.21008 0.0
H4778 H 0.69361 0.44186 0.21053 0.0
H4779 H 0.70474 0.4457 0.20068 0.0
C4780 C 0.69331 0.40623 0.21818 0.0
C4781 C 0.6937 0.404 0.20639 0.0
C4782 C 0.69931 0.4155 0.22284 0.0
C4783 C 0.70582 0.4228 0.21584 0.0
C4784 C 0.70632 0.42058 0.20408 0.0
H4785 H 0.75207 0.47953 0.23238 0.0
H4786 H 0.7397 0.46574 0.22236 0.0
C4787 C 0.70031 0.41129 0.19939 0.0
C4788 C 0.71245 0.4324 0.221 0.0
H4789 H 0.71543 0.46143 0.22123 0.0
C4790 C 0.72074 0.42988 0.22932 0.0
C4791 C 0.71051 0.44392 0.21802 0.0
C4792 C 0.70147 0.44716 0.20941 0.0
C4793 C 0.72717 0.43852 0.2347 0.0
C4794 C 0.72511 0.45005 0.23186 0.0
C4795 C 0.71694 0.45259 0.22343 0.0
C4796 C 0.73139 0.4595 0.23766 0.0
C4797 C 0.73625 0.43521 0.24326 0.0
C4798 C 0.73044 0.46093 0.24951 0.0
C4799 C 0.73746 0.46881 0.25523 0.0
C4800 C 0.74552 0.47547 0.24922 0.0
C4801 C 0.74589 0.47459 0.23725 0.0
C4802 C 0.73888 0.46666 0.23152 0.0
H4803 H 0.73875 0.42618 0.24231 0.0
H4804 H 0.744 0.44071 0.24237 0.0
H4805 H 0.73289 0.43629 0.25202 0.0
H4806 H 0.72454 0.45567 0.25439 0.0
H4807 H 0.73687 0.46939 0.26444 0.0
H4808 H 0.62322 0.29953 0.82828 0.0
H4809 H 0.60653 0.29171 0.81826 0.0
H4810 H 0.59004 0.32422 0.82029 0.0
H4811 H 0.60678 0.33214 0.83034 0.0
H4812 H 0.58425 0.29001 0.82599 0.0
H4813 H 0.58655 0.31642 0.78646 0.0
H4814 H 0.59832 0.3155 0.79645 0.0
H4815 H 0.58626 0.32417 0.79964 0.0
C4816 C 0.61604 0.30503 0.82663 0.0
C4817 C 0.61634 0.31646 0.83014 0.0
C4818 C 0.60651 0.30055 0.82086 0.0
C4819 C 0.59707 0.30739 0.81842 0.0
C4820 C 0.59732 0.31883 0.82187 0.0
H4821 H 0.53407 0.28438 0.78221 0.0
H4822 H 0.54712 0.29611 0.79408 0.0
C4823 C 0.60689 0.32334 0.82762 0.0
C4824 C 0.5869 0.30234 0.81255 0.0
H4825 H 0.57129 0.30314 0.78777 0.0
C4826 C 0.58137 0.29295 0.81768 0.0
C4827 C 0.58308 0.30623 0.80173 0.0
C4828 C 0.58889 0.31607 0.79567 0.0
C4829 C 0.57235 0.28715 0.81215 0.0
C4830 C 0.56882 0.29076 0.80117 0.0
C4831 C 0.574 0.30043 0.79622 0.0
C4832 C 0.56071 0.28383 0.79421 0.0
C4833 C 0.56679 0.27704 0.818 0.0
C4834 C 0.56408 0.27313 0.79035 0.0
C4835 C 0.55675 0.26652 0.78359 0.0
C4836 C 0.54586 0.27046 0.7805 0.0
C4837 C 0.5424 0.28114 0.78448 0.0
C4838 C 0.54984 0.28784 0.7912 0.0
H4839 H 0.56834 0.27715 0.82737 0.0
H4840 H 0.55743 0.27681 0.81636 0.0
H4841 H 0.57044 0.26909 0.81457 0.0
H4842 H 0.57246 0.26992 0.7925 0.0
H4843 H 0.5596 0.25826 0.7808 0.0
H4844 H 0.68728 0.60515 0.82821 0.0
H4845 H 0.69546 0.58864 0.81865 0.0
H4846 H 0.72805 0.60615 0.81688 0.0
H4847 H 0.71999 0.62261 0.82635 0.0
H4848 H 0.70598 0.58653 0.79746 0.0
H4849 H 0.73635 0.57616 0.83228 0.0
H4850 H 0.72464 0.58578 0.83419 0.0
H4851 H 0.73769 0.5907 0.82763 0.0
C4852 C 0.69617 0.60551 0.82571 0.0
C4853 C 0.70301 0.61517 0.82818 0.0
C4854 C 0.70084 0.59604 0.82029 0.0
C4855 C 0.71244 0.59604 0.81729 0.0
C4856 C 0.71917 0.60581 0.81942 0.0
H4857 H 0.76145 0.55994 0.78002 0.0
H4858 H 0.74968 0.57249 0.79139 0.0
C4859 C 0.71453 0.61523 0.82483 0.0
C4860 C 0.71758 0.58596 0.81178 0.0
H4861 H 0.74006 0.56782 0.81403 0.0
C4862 C 0.71331 0.58229 0.80116 0.0
C4863 C 0.72709 0.58036 0.81667 0.0
C4864 C 0.73164 0.58337 0.82837 0.0
C4865 C 0.7187 0.57365 0.795 0.0
C4866 C 0.72855 0.56849 0.79964 0.0
C4867 C 0.73252 0.57181 0.81047 0.0
C4868 C 0.73555 0.56051 0.79293 0.0
C4869 C 0.71421 0.57048 0.78333 0.0
C4870 C 0.73158 0.5495 0.79016 0.0
C4871 C 0.73835 0.54224 0.78364 0.0
C4872 C 0.74912 0.54595 0.77971 0.0
C4873 C 0.75311 0.5569 0.78273 0.0
C4874 C 0.74642 0.56407 0.78928 0.0
H4875 H 0.70726 0.57617 0.78041 0.0
H4876 H 0.72122 0.57084 0.77699 0.0
H4877 H 0.71081 0.56161 0.78355 0.0
H4878 H 0.72327 0.54654 0.79303 0.0
H4879 H 0.73509 0.53384 0.78147 0.0
H4880 H 0.39557 0.71173 0.8216 0.0
H4881 H 0.41212 0.72215 0.81398 0.0
H4882 H 0.43233 0.69186 0.81678 0.0
H4883 H 0.41583 0.68137 0.82444 0.0
H4884 H 0.43378 0.72624 0.82328 0.0
H4885 H 0.43662 0.70103 0.78339 0.0
H4886 H 0.4243 0.70031 0.79256 0.0
H4887 H 0.43707 0.69285 0.79638 0.0
C4888 C 0.40356 0.7073 0.82071 0.0
C4889 C 0.40433 0.69568 0.82358 0.0
C4890 C 0.41301 0.71326 0.8163 0.0
C4891 C 0.42342 0.70774 0.81462 0.0
C4892 C 0.42432 0.69623 0.81774 0.0
H4893 H 0.486 0.73552 0.78229 0.0
H4894 H 0.47301 0.72304 0.79336 0.0
C4895 C 0.41486 0.69025 0.82213 0.0
C4896 C 0.43328 0.71409 0.80958 0.0
H4897 H 0.45067 0.71536 0.78624 0.0
C4898 C 0.4375 0.72382 0.81521 0.0
C4899 C 0.4382 0.7109 0.79907 0.0
C4900 C 0.43378 0.70076 0.79242 0.0
C4901 C 0.44638 0.73053 0.81056 0.0
C4902 C 0.45106 0.72754 0.7999 0.0
C4903 C 0.4471 0.71761 0.79443 0.0
C4904 C 0.45926 0.73515 0.79379 0.0
C4905 C 0.45063 0.74083 0.81706 0.0
C4906 C 0.45583 0.74603 0.79035 0.0
C4907 C 0.46315 0.75308 0.78404 0.0
C4908 C 0.47409 0.74941 0.78096 0.0
C4909 C 0.47764 0.73858 0.78457 0.0
C4910 C 0.47023 0.73145 0.79085 0.0
H4911 H 0.44875 0.74005 0.82632 0.0
H4912 H 0.45998 0.74213 0.81597 0.0
H4913 H 0.44625 0.74851 0.81376 0.0
H4914 H 0.44736 0.749 0.79235 0.0
H4915 H 0.46022 0.76144 0.78152 0.0
H4916 H 0.32316 0.41187 0.83563 0.0
H4917 H 0.31209 0.42789 0.82819 0.0
H4918 H 0.31702 0.41596 0.79385 0.0
H4919 H 0.32777 0.3998 0.8012 0.0
H4920 H 0.31857 0.4453 0.81278 0.0
H4921 H 0.28235 0.41951 0.79564 0.0
H4922 H 0.2927 0.4138 0.80553 0.0
H4923 H 0.29602 0.41507 0.7906 0.0
C4924 C 0.32177 0.41258 0.8265 0.0
C4925 C 0.32634 0.4045 0.81903 0.0
C4926 C 0.31552 0.42179 0.82226 0.0
C4927 C 0.31361 0.42306 0.81047 0.0
C4928 C 0.31823 0.41507 0.80299 0.0
H4929 H 0.29266 0.48081 0.76961 0.0
H4930 H 0.30348 0.46704 0.78094 0.0
C4931 C 0.32449 0.40589 0.80721 0.0
C4932 C 0.30685 0.43274 0.80593 0.0
H4933 H 0.28335 0.43893 0.78974 0.0
C4934 C 0.31082 0.44393 0.80781 0.0
C4935 C 0.29665 0.43096 0.79959 0.0
C4936 C 0.2916 0.4192 0.7978 0.0
C4937 C 0.30504 0.45336 0.80323 0.0
C4938 C 0.29512 0.45154 0.79645 0.0
C4939 C 0.29099 0.44036 0.79486 0.0
C4940 C 0.28894 0.461 0.79071 0.0
C4941 C 0.30957 0.46518 0.80576 0.0
C4942 C 0.27717 0.46231 0.79246 0.0
C4943 C 0.27097 0.47014 0.78596 0.0
C4944 C 0.27638 0.47683 0.77753 0.0
C4945 C 0.28827 0.47592 0.77616 0.0
C4946 C 0.29447 0.46804 0.78264 0.0
H4947 H 0.31493 0.4653 0.81363 0.0
H4948 H 0.31498 0.46814 0.79855 0.0
H4949 H 0.3025 0.47128 0.80678 0.0
H4950 H 0.2727 0.45699 0.79862 0.0
H4951 H 0.26183 0.47067 0.78725 0.0
H4952 H 0.70597 0.61246 0.19132 0.0
H4953 H 0.7157 0.59553 0.19847 0.0
H4954 H 0.69504 0.59587 0.22881 0.0
H4955 H 0.68491 0.61241 0.22151 0.0
H4956 H 0.72854 0.59319 0.21742 0.0
H4957 H 0.69194 0.56293 0.21997 0.0
H4958 H 0.69111 0.57633 0.2124 0.0
H4959 H 0.68942 0.57579 0.22767 0.0
C4960 C 0.70333 0.60881 0.19942 0.0
C4961 C 0.69461 0.61384 0.20581 0.0
C4962 C 0.70896 0.59916 0.20353 0.0
C4963 C 0.70599 0.59427 0.21409 0.0
C4964 C 0.69732 0.59928 0.22051 0.0
H4965 H 0.73478 0.54707 0.26204 0.0
H4966 H 0.72289 0.56033 0.25116 0.0
C4967 C 0.69165 0.60889 0.21639 0.0
C4968 C 0.71235 0.58435 0.21873 0.0
H4969 H 0.70889 0.5577 0.23028 0.0
C4970 C 0.72426 0.58537 0.22008 0.0
C4971 C 0.70678 0.57412 0.2222 0.0
C4972 C 0.69412 0.57216 0.22038 0.0
C4973 C 0.73066 0.57666 0.22518 0.0
C4974 C 0.72504 0.56658 0.22894 0.0
C4975 C 0.71318 0.56544 0.2274 0.0
C4976 C 0.7313 0.55746 0.23507 0.0
C4977 C 0.74335 0.57847 0.2269 0.0
C4978 C 0.73968 0.55112 0.22954 0.0
C4979 C 0.74646 0.54349 0.23572 0.0
C4980 C 0.74499 0.54211 0.24757 0.0
C4981 C 0.73616 0.54801 0.25294 0.0
C4982 C 0.72936 0.55558 0.24674 0.0
H4983 H 0.74604 0.58746 0.22536 0.0
H4984 H 0.74592 0.57601 0.23572 0.0
H4985 H 0.74804 0.573 0.22088 0.0
H4986 H 0.74123 0.55236 0.2205 0.0
H4987 H 0.75325 0.53915 0.23136 0.0
H4988 H 0.70521 0.40691 0.83329 0.0
H4989 H 0.71498 0.42379 0.82558 0.0
H4990 H 0.69327 0.42253 0.7957 0.0
H4991 H 0.68306 0.40606 0.8036 0.0
H4992 H 0.7272 0.42577 0.80645 0.0
H4993 H 0.69112 0.45562 0.80377 0.0
H4994 H 0.69023 0.44237 0.81162 0.0
H4995 H 0.68818 0.44257 0.79637 0.0
C4996 C 0.70234 0.41035 0.82519 0.0
C4997 C 0.6933 0.4051 0.8191 0.0
C4998 C 0.708 0.41997 0.82075 0.0
C4999 C 0.70474 0.42458 0.81014 0.0
C5000 C 0.69577 0.41933 0.80403 0.0
H5001 H 0.73518 0.4713 0.76182 0.0
H5002 H 0.72286 0.4578 0.77224 0.0
C5003 C 0.69005 0.40977 0.80849 0.0
C5004 C 0.71116 0.43444 0.80518 0.0
H5005 H 0.70799 0.46094 0.79338 0.0
C5006 C 0.72301 0.43351 0.80373 0.0
C5007 C 0.7057 0.44457 0.80161 0.0
C5008 C 0.69313 0.44641 0.80352 0.0
C5009 C 0.72948 0.44224 0.79853 0.0
C5010 C 0.72397 0.45222 0.79473 0.0
C5011 C 0.71216 0.45326 0.79629 0.0
C5012 C 0.73037 0.46145 0.78876 0.0
C5013 C 0.74212 0.44064 0.79683 0.0
C5014 C 0.73839 0.46823 0.79468 0.0
C5015 C 0.7454 0.47598 0.78876 0.0
C5016 C 0.74453 0.47703 0.77681 0.0
C5017 C 0.73608 0.47063 0.77101 0.0
C5018 C 0.72903 0.46294 0.77694 0.0
H5019 H 0.74475 0.43176 0.79867 0.0
H5020 H 0.74454 0.44285 0.78793 0.0
H5021 H 0.74696 0.44642 0.80262 0.0
H5022 H 0.73951 0.46723 0.80382 0.0
H5023 H 0.75191 0.48069 0.79346 0.0
H5024 H 0.62146 0.70941 0.82379 0.0
H5025 H 0.60518 0.72005 0.81635 0.0
H5026 H 0.58812 0.68856 0.80725 0.0
H5027 H 0.60416 0.67784 0.81502 0.0
H5028 H 0.59712 0.72028 0.79442 0.0
H5029 H 0.56289 0.70532 0.82361 0.0
H5030 H 0.57787 0.7032 0.82661 0.0
H5031 H 0.57034 0.69397 0.81684 0.0
C5032 C 0.61415 0.70472 0.82041 0.0
C5033 C 0.61415 0.69274 0.82003 0.0
C5034 C 0.60487 0.71083 0.8161 0.0
C5035 C 0.59534 0.70512 0.81137 0.0
C5036 C 0.59526 0.69317 0.81105 0.0
H5037 H 0.54755 0.73474 0.76298 0.0
H5038 H 0.5612 0.72257 0.77298 0.0
C5039 C 0.60453 0.68705 0.81537 0.0
C5040 C 0.58582 0.71168 0.80617 0.0
H5041 H 0.55693 0.71562 0.80703 0.0
C5042 C 0.58835 0.71929 0.79722 0.0
C5043 C 0.57437 0.71048 0.80989 0.0
C5044 C 0.57119 0.70289 0.81984 0.0
C5045 C 0.57975 0.72556 0.79176 0.0
C5046 C 0.56824 0.72406 0.79519 0.0
C5047 C 0.56572 0.71664 0.8043 0.0
C5048 C 0.55881 0.73032 0.78949 0.0
C5049 C 0.5831 0.73389 0.78246 0.0
C5050 C 0.55245 0.73829 0.79557 0.0
C5051 C 0.54457 0.74522 0.78988 0.0
C5052 C 0.5429 0.74428 0.778 0.0
C5053 C 0.54875 0.73577 0.7721 0.0
C5054 C 0.55658 0.72884 0.77779 0.0
H5055 H 0.59235 0.73614 0.78284 0.0
H5056 H 0.58129 0.73 0.77401 0.0
H5057 H 0.57813 0.74184 0.78306 0.0
H5058 H 0.55399 0.73954 0.80461 0.0
H5059 H 0.54029 0.75175 0.79466 0.0
H5060 H 0.32856 0.61602 0.81801 0.0
H5061 H 0.32079 0.59933 0.80798 0.0
H5062 H 0.29169 0.59869 0.83032 0.0
H5063 H 0.29948 0.61514 0.8406 0.0
H5064 H 0.31337 0.57652 0.81757 0.0
H5065 H 0.27864 0.60106 0.79672 0.0
H5066 H 0.29132 0.60781 0.8026 0.0
H5067 H 0.28017 0.60281 0.8119 0.0
C5068 C 0.32058 0.61225 0.82091 0.0
C5069 C 0.31461 0.61703 0.83008 0.0
C5070 C 0.31614 0.60273 0.81513 0.0
C5071 C 0.30561 0.59786 0.81834 0.0
C5072 C 0.29975 0.60242 0.82761 0.0
H5073 H 0.25919 0.54782 0.7889 0.0
H5074 H 0.26897 0.56148 0.80145 0.0
C5075 C 0.3042 0.61189 0.83343 0.0
C5076 C 0.30055 0.5882 0.81182 0.0
H5077 H 0.2782 0.58115 0.79422 0.0
C5078 C 0.3057 0.5775 0.81243 0.0
C5079 C 0.29054 0.58953 0.80515 0.0
C5080 C 0.28485 0.60093 0.80394 0.0
C5081 C 0.30094 0.568 0.80673 0.0
C5082 C 0.29091 0.56933 0.80005 0.0
C5083 C 0.28584 0.58009 0.7994 0.0
C5084 C 0.2855 0.5598 0.79351 0.0
C5085 C 0.30653 0.55659 0.80818 0.0
C5086 C 0.29158 0.55406 0.78504 0.0
C5087 C 0.28602 0.54614 0.77793 0.0
C5088 C 0.27423 0.54395 0.77905 0.0
C5089 C 0.26828 0.54935 0.78783 0.0
C5090 C 0.27385 0.55718 0.79498 0.0
H5091 H 0.31185 0.55627 0.81607 0.0
H5092 H 0.30007 0.54958 0.80852 0.0
H5093 H 0.31221 0.55509 0.80081 0.0
H5094 H 0.3005 0.55611 0.78353 0.0
H5095 H 0.29078 0.54226 0.77111 0.0
H5096 H 0.39822 0.3176 0.81304 0.0
H5097 H 0.4144 0.3091 0.80326 0.0
H5098 H 0.43457 0.31152 0.83411 0.0
H5099 H 0.41848 0.3201 0.84394 0.0
H5100 H 0.43729 0.31677 0.79967 0.0
H5101 H 0.43529 0.27743 0.82625 0.0
H5102 H 0.42389 0.2876 0.82588 0.0
H5103 H 0.43664 0.29051 0.83405 0.0
C5104 C 0.40615 0.31649 0.81772 0.0
C5105 C 0.40699 0.31945 0.82933 0.0
C5106 C 0.41538 0.31159 0.81212 0.0
C5107 C 0.42564 0.30951 0.818 0.0
C5108 C 0.42667 0.31283 0.82946 0.0
H5109 H 0.48777 0.28438 0.78394 0.0
H5110 H 0.47503 0.29605 0.79559 0.0
C5111 C 0.41744 0.31772 0.83507 0.0
C5112 C 0.43509 0.3035 0.81224 0.0
H5113 H 0.44996 0.27868 0.81261 0.0
C5114 C 0.44014 0.30848 0.80254 0.0
C5115 C 0.43872 0.29264 0.81595 0.0
C5116 C 0.43332 0.28665 0.82604 0.0
C5117 C 0.44863 0.30284 0.79638 0.0
C5118 C 0.45222 0.29197 0.80008 0.0
C5119 C 0.44728 0.28706 0.80987 0.0
C5120 C 0.46021 0.28502 0.79329 0.0
C5121 C 0.45339 0.30833 0.78572 0.0
C5122 C 0.4562 0.27485 0.78838 0.0
C5123 C 0.46341 0.26822 0.78181 0.0
C5124 C 0.47486 0.27156 0.77999 0.0
C5125 C 0.47899 0.28162 0.78515 0.0
C5126 C 0.4717 0.28832 0.79172 0.0
H5127 H 0.44843 0.31589 0.78302 0.0
H5128 H 0.46236 0.31112 0.78733 0.0
H5129 H 0.45341 0.30214 0.77859 0.0
H5130 H 0.4474 0.27208 0.78955 0.0
H5131 H 0.46 0.2604 0.77818 0.0
H5132 H 0.32277 0.39587 0.22312 0.0
H5133 H 0.31313 0.4124 0.23085 0.0
H5134 H 0.3188 0.43069 0.19933 0.0
H5135 H 0.32852 0.41413 0.1915 0.0
H5136 H 0.32212 0.4341 0.23417 0.0
H5137 H 0.28471 0.43534 0.20466 0.0
H5138 H 0.2938 0.4231 0.20582 0.0
H5139 H 0.29848 0.43547 0.19795 0.0
C5140 C 0.322 0.4034 0.21782 0.0
C5141 C 0.32646 0.40366 0.20669 0.0
C5142 C 0.31643 0.41284 0.22224 0.0
C5143 C 0.31514 0.42277 0.21565 0.0
C5144 C 0.3195 0.42306 0.2045 0.0
H5145 H 0.28103 0.4858 0.23783 0.0
H5146 H 0.29292 0.47281 0.22666 0.0
C5147 C 0.32505 0.41358 0.20004 0.0
C5148 C 0.30955 0.43285 0.22071 0.0
H5149 H 0.28603 0.44971 0.21863 0.0
C5150 C 0.31427 0.43755 0.23071 0.0
C5151 C 0.29935 0.43743 0.21615 0.0
C5152 C 0.2937 0.43255 0.20561 0.0
C5153 C 0.30895 0.44649 0.23643 0.0
C5154 C 0.29854 0.45078 0.23213 0.0
C5155 C 0.29403 0.44642 0.22188 0.0
C5156 C 0.29166 0.4589 0.2388 0.0
C5157 C 0.31442 0.45116 0.24717 0.0
C5158 C 0.287 0.45536 0.24926 0.0
C5159 C 0.28023 0.46268 0.25555 0.0
C5160 C 0.27791 0.47373 0.25154 0.0
C5161 C 0.2827 0.47735 0.24113 0.0
C5162 C 0.28944 0.46994 0.23474 0.0
H5163 H 0.32369 0.4493 0.24758 0.0
H5164 H 0.31329 0.46052 0.24773 0.0
H5165 H 0.31028 0.44714 0.25471 0.0
H5166 H 0.2885 0.44685 0.2525 0.0
H5167 H 0.27679 0.45967 0.26361 0.0
H5168 H 0.60459 0.32891 0.19158 0.0
H5169 H 0.58795 0.32158 0.2021 0.0
H5170 H 0.60839 0.29466 0.21625 0.0
H5171 H 0.62507 0.302 0.20592 0.0
H5172 H 0.57772 0.29897 0.20086 0.0
H5173 H 0.59341 0.30969 0.2444 0.0
H5174 H 0.59938 0.31609 0.23166 0.0
H5175 H 0.60333 0.30194 0.23588 0.0
C5176 C 0.60557 0.3215 0.19703 0.0
C5177 C 0.61618 0.31606 0.19794 0.0
C5178 C 0.59604 0.31729 0.20297 0.0
C5179 C 0.59696 0.30764 0.21003 0.0
C5180 C 0.60752 0.30219 0.21095 0.0
H5181 H 0.54853 0.26015 0.23887 0.0
H5182 H 0.56196 0.27062 0.22663 0.0
C5183 C 0.61702 0.30634 0.20497 0.0
C5184 C 0.58687 0.30314 0.21633 0.0
H5185 H 0.57708 0.29744 0.2432 0.0
C5186 C 0.57752 0.29872 0.21012 0.0
C5187 C 0.58657 0.30294 0.2284 0.0
C5188 C 0.59615 0.30801 0.23551 0.0
C5189 C 0.56805 0.29373 0.21567 0.0
C5190 C 0.56798 0.29309 0.22774 0.0
C5191 C 0.57716 0.29788 0.23395 0.0
C5192 C 0.55876 0.28705 0.23415 0.0
C5193 C 0.55821 0.28917 0.20858 0.0
C5194 C 0.55242 0.2928 0.24239 0.0
C5195 C 0.54474 0.28683 0.24942 0.0
C5196 C 0.54337 0.27495 0.24842 0.0
C5197 C 0.54941 0.26929 0.23985 0.0
C5198 C 0.55703 0.27528 0.2328 0.0
H5199 H 0.55807 0.29308 0.19992 0.0
H5200 H 0.55912 0.27984 0.20758 0.0
H5201 H 0.54991 0.29074 0.21279 0.0
H5202 H 0.55367 0.30187 0.24363 0.0
H5203 H 0.54035 0.29141 0.25604 0.0
H5204 H 0.41431 0.69109 0.18969 0.0
H5205 H 0.43098 0.69862 0.20016 0.0
H5206 H 0.41018 0.72479 0.21462 0.0
H5207 H 0.39347 0.71725 0.20431 0.0
H5208 H 0.44049 0.72185 0.1991 0.0
H5209 H 0.4261 0.70906 0.24249 0.0
H5210 H 0.4202 0.70279 0.22965 0.0
H5211 H 0.41577 0.71665 0.23409 0.0
C5212 C 0.41327 0.69838 0.19519 0.0
C5213 C 0.40255 0.70355 0.19619 0.0
C5214 C 0.42281 0.70271 0.2011 0.0
C5215 C 0.42179 0.7122 0.20823 0.0
C5216 C 0.41112 0.71739 0.20924 0.0
H5217 H 0.46984 0.75946 0.23841 0.0
H5218 H 0.45618 0.74944 0.22597 0.0
C5219 C 0.4016 0.71312 0.20328 0.0
C5220 C 0.43187 0.71678 0.21454 0.0
H5221 H 0.44221 0.72155 0.24145 0.0
C5222 C 0.44092 0.72172 0.20836 0.0
C5223 C 0.43246 0.71648 0.2266 0.0
C5224 C 0.42317 0.71088 0.23363 0.0
C5225 C 0.4504 0.72671 0.21396 0.0
C5226 C 0.45078 0.72679 0.22603 0.0
C5227 C 0.44189 0.72152 0.23219 0.0
C5228 C 0.46007 0.73266 0.23251 0.0
C5229 C 0.45993 0.73186 0.20692 0.0
C5230 C 0.46688 0.72656 0.24026 0.0
C5231 C 0.47469 0.73227 0.24738 0.0
C5232 C 0.47574 0.74421 0.24699 0.0
C5233 C 0.46922 0.75025 0.23892 0.0
C5234 C 0.46145 0.74453 0.23176 0.0
H5235 H 0.45984 0.72852 0.19806 0.0
H5236 H 0.45889 0.74123 0.20646 0.0
H5237 H 0.46839 0.73014 0.21087 0.0
H5238 H 0.46589 0.7174 0.24103 0.0
H5239 H 0.47946 0.72738 0.25362 0.0
loop_
_geom_bond_atom_site_label_1
_geom_bond_atom_site_label_2
_geom_bond_distance
_geom_bond_site_symmetry_2
_ccdc_geom_bond_type
C0 C1 1.264 . S
C0 C5 1.479 . S
C0 C10 1.465 . S
C1 C0 1.264 . S
C1 C3 1.339 . S
C1 H28 0.931 . S
C2 C3 1.395 . S
C2 C4 1.320 . S
C3 C1 1.339 . S
C3 C2 1.395 . S
C3 H29 0.929 . S
C4 C2 1.320 . S
C4 C5 1.405 . S
C4 H30 0.930 . S
C5 C0 1.479 . S
C5 C4 1.405 . S
C5 H31 0.931 . S
U6 O7 2.454 . S
U6 O8 2.458 . S
U6 C9 2.984 . S
U6 C10 2.847 . S
U6 C23 2.882 . S
U6 O24 2.441 . S
U6 O25 2.420 . S
U6 O26 2.455 . S
U6 O27 2.449 . S
O7 U6 2.454 . S
O7 C9 1.353 . S
O8 U6 2.458 . S
O8 C9 1.286 . S
C9 U6 2.984 . S
C9 O7 1.353 . S
C9 O8 1.286 . S
C9 C11 1.363 . S
C10 C0 1.465 . S
C10 U6 2.847 . S
C10 O24 1.249 . S
C10 O25 1.202 . S
C11 C9 1.363 . S
C11 C13 1.408 . S
C11 C16 1.342 . S
C12 C13 1.310 . S
C12 C15 1.461 . S
C12 H32 0.932 . S
C13 C11 1.408 . S
C13 C12 1.310 . S
C13 H33 0.930 . S
C14 C15 1.474 . S
C14 C16 1.285 . S
C14 H34 0.929 . S
C15 C12 1.461 . S
C15 C14 1.474 . S
C16 C11 1.342 . S
C16 C14 1.285 . S
C16 H35 0.930 . S
C17 C20 1.424 . S
C17 C22 1.245 . S
C17 C23 1.428 . S
C18 C21 1.260 . S
C18 C22 1.477 . S
C18 H36 0.932 . S
C19 C20 1.384 . S
C19 C21 1.479 . S
C19 H37 0.929 . S
C20 C17 1.424 . S
C20 C19 1.384 . S
C20 H38 0.928 . S
C21 C18 1.260 . S
C21 C19 1.479 . S
C22 C17 1.245 . S
C22 C18 1.477 . S
C22 H39 0.932 . S
C23 U6 2.882 . S
C23 C17 1.428 . S
C23 O26 1.301 . S
C23 O27 1.282 . S
O24 U6 2.441 . S
O24 C10 1.249 . S
O25 U6 2.420 . S
O25 C10 1.202 . S
O26 U6 2.455 . S
O26 C23 1.301 . S
O27 U6 2.449 . S
O27 C23 1.282 . S
H28 C1 0.931 . S
H29 C3 0.929 . S
H30 C4 0.930 . S
H31 C5 0.931 . S
H32 C12 0.932 . S
H33 C13 0.930 . S
H34 C14 0.929 . S
H35 C16 0.930 . S
H36 C18 0.932 . S
H37 C19 0.929 . S
H38 C20 0.928 . S
H39 C22 0.932 . S
C40 C41 1.264 . S
C40 C45 1.479 . S
C40 C50 1.465 . S
C41 C40 1.264 . S
C41 C43 1.339 . S
C41 H68 0.931 . S
C42 C43 1.395 . S
C42 C44 1.320 . S
C43 C41 1.339 . S
C43 C42 1.395 . S
C43 H69 0.929 . S
C44 C42 1.320 . S
C44 C45 1.405 . S
C44 H70 0.930 . S
C45 C40 1.479 . S
C45 C44 1.405 . S
C45 H71 0.931 . S
U46 O47 2.454 . S
U46 O48 2.458 . S
U46 C49 2.984 . S
U46 C50 2.847 . S
U46 C63 2.882 . S
U46 O64 2.441 . S
U46 O65 2.420 . S
U46 O66 2.455 . S
U46 O67 2.449 . S
O47 U46 2.454 . S
O47 C49 1.353 . S
O48 U46 2.458 . S
O48 C49 1.286 . S
C49 U46 2.984 . S
C49 O47 1.353 . S
C49 O48 1.286 . S
C49 C51 1.363 . S
C50 C40 1.465 . S
C50 U46 2.847 . S
C50 O64 1.249 . S
C50 O65 1.202 . S
C51 C49 1.363 . S
C51 C53 1.408 . S
C51 C56 1.342 . S
C52 C53 1.310 . S
C52 C55 1.461 . S
C52 H72 0.932 . S
C53 C51 1.408 . S
C53 C52 1.310 . S
C53 H73 0.930 . S
C54 C55 1.474 . S
C54 C56 1.285 . S
C54 H74 0.929 . S
C55 C52 1.461 . S
C55 C54 1.474 . S
C56 C51 1.342 . S
C56 C54 1.285 . S
C56 H75 0.930 . S
C57 C60 1.424 . S
C57 C62 1.245 . S
C57 C63 1.428 . S
C58 C61 1.260 . S
C58 C62 1.477 . S
C58 H76 0.932 . S
C59 C60 1.384 . S
C59 C61 1.479 . S
C59 H77 0.929 . S
C60 C57 1.424 . S
C60 C59 1.384 . S
C60 H78 0.928 . S
C61 C58 1.260 . S
C61 C59 1.479 . S
C62 C57 1.245 . S
C62 C58 1.477 . S
C62 H79 0.932 . S
C63 U46 2.882 . S
C63 C57 1.428 . S
C63 O66 1.301 . S
C63 O67 1.282 . S
O64 U46 2.441 . S
O64 C50 1.249 . S
O65 U46 2.420 . S
O65 C50 1.202 . S
O66 U46 2.455 . S
O66 C63 1.301 . S
O67 U46 2.449 . S
O67 C63 1.282 . S
H68 C41 0.931 . S
H69 C43 0.929 . S
H70 C44 0.930 . S
H71 C45 0.931 . S
H72 C52 0.932 . S
H73 C53 0.930 . S
H74 C54 0.929 . S
H75 C56 0.930 . S
H76 C58 0.932 . S
H77 C59 0.929 . S
H78 C60 0.928 . S
H79 C62 0.932 . S
C80 C81 1.264 . S
C80 C85 1.479 . S
C80 C90 1.465 . S
C81 C80 1.264 . S
C81 C83 1.339 . S
C81 H108 0.931 . S
C82 C83 1.395 . S
C82 C84 1.320 . S
C83 C81 1.339 . S
C83 C82 1.395 . S
C83 H109 0.929 . S
C84 C82 1.320 . S
C84 C85 1.405 . S
C84 H110 0.930 . S
C85 C80 1.479 . S
C85 C84 1.405 . S
C85 H111 0.931 . S
U86 O87 2.454 . S
U86 O88 2.458 . S
U86 C89 2.984 . S
U86 C90 2.847 . S
U86 C103 2.882 . S
U86 O104 2.441 . S
U86 O105 2.420 . S
U86 O106 2.455 . S
U86 O107 2.449 . S
O87 U86 2.454 . S
O87 C89 1.353 . S
O88 U86 2.458 . S
O88 C89 1.286 . S
C89 U86 2.984 . S
C89 O87 1.353 . S
C89 O88 1.286 . S
C89 C91 1.363 . S
C90 C80 1.465 . S
C90 U86 2.847 . S
C90 O104 1.249 . S
C90 O105 1.202 . S
C91 C89 1.363 . S
C91 C93 1.408 . S
C91 C96 1.342 . S
C92 C93 1.310 . S
C92 C95 1.461 . S
C92 H112 0.932 . S
C93 C91 1.408 . S
C93 C92 1.310 . S
C93 H113 0.930 . S
C94 C95 1.474 . S
C94 C96 1.285 . S
C94 H114 0.929 . S
C95 C92 1.461 . S
C95 C94 1.474 . S
C96 C91 1.342 . S
C96 C94 1.285 . S
C96 H115 0.930 . S
C97 C100 1.424 . S
C97 C102 1.245 . S
C97 C103 1.428 . S
C98 C101 1.260 . S
C98 C102 1.477 . S
C98 H116 0.932 . S
C99 C100 1.384 . S
C99 C101 1.479 . S
C99 H117 0.929 . S
C100 C97 1.424 . S
C100 C99 1.384 . S
C100 H118 0.928 . S
C101 C98 1.260 . S
C101 C99 1.479 . S
C102 C97 1.245 . S
C102 C98 1.477 . S
C102 H119 0.932 . S
C103 U86 2.882 . S
C103 C97 1.428 . S
C103 O106 1.301 . S
C103 O107 1.282 . S
O104 U86 2.441 . S
O104 C90 1.249 . S
O105 U86 2.420 . S
O105 C90 1.202 . S
O106 U86 2.455 . S
O106 C103 1.301 . S
O107 U86 2.449 . S
O107 C103 1.282 . S
H108 C81 0.931 . S
H109 C83 0.929 . S
H110 C84 0.930 . S
H111 C85 0.931 . S
H112 C92 0.932 . S
H113 C93 0.930 . S
H114 C94 0.929 . S
H115 C96 0.930 . S
H116 C98 0.932 . S
H117 C99 0.929 . S
H118 C100 0.928 . S
H119 C102 0.932 . S
C120 C121 1.264 . S
C120 C125 1.479 . S
C120 C130 1.465 . S
C121 C120 1.264 . S
C121 C123 1.339 . S
C121 H148 0.931 . S
C122 C123 1.395 . S
C122 C124 1.320 . S
C123 C121 1.339 . S
C123 C122 1.395 . S
C123 H149 0.929 . S
C124 C122 1.320 . S
C124 C125 1.405 . S
C124 H150 0.930 . S
C125 C120 1.479 . S
C125 C124 1.405 . S
C125 H151 0.931 . S
U126 O127 2.454 . S
U126 O128 2.458 . S
U126 C129 2.984 . S
U126 C130 2.847 . S
U126 C143 2.882 . S
U126 O144 2.441 . S
U126 O145 2.420 . S
U126 O146 2.455 . S
U126 O147 2.449 . S
O127 U126 2.454 . S
O127 C129 1.353 . S
O128 U126 2.458 . S
O128 C129 1.286 . S
C129 U126 2.984 . S
C129 O127 1.353 . S
C129 O128 1.286 . S
C129 C131 1.363 . S
C130 C120 1.465 . S
C130 U126 2.847 . S
C130 O144 1.249 . S
C130 O145 1.202 . S
C131 C129 1.363 . S
C131 C133 1.408 . S
C131 C136 1.342 . S
C132 C133 1.310 . S
C132 C135 1.461 . S
C132 H152 0.932 . S
C133 C131 1.408 . S
C133 C132 1.310 . S
C133 H153 0.930 . S
C134 C135 1.474 . S
C134 C136 1.285 . S
C134 H154 0.929 . S
C135 C132 1.461 . S
C135 C134 1.474 . S
C136 C131 1.342 . S
C136 C134 1.285 . S
C136 H155 0.930 . S
C137 C140 1.424 . S
C137 C142 1.245 . S
C137 C143 1.428 . S
C138 C141 1.260 . S
C138 C142 1.477 . S
C138 H156 0.932 . S
C139 C140 1.384 . S
C139 C141 1.479 . S
C139 H157 0.929 . S
C140 C137 1.424 . S
C140 C139 1.384 . S
C140 H158 0.928 . S
C141 C138 1.260 . S
C141 C139 1.479 . S
C142 C137 1.245 . S
C142 C138 1.477 . S
C142 H159 0.932 . S
C143 U126 2.882 . S
C143 C137 1.428 . S
C143 O146 1.301 . S
C143 O147 1.282 . S
O144 U126 2.441 . S
O144 C130 1.249 . S
O145 U126 2.420 . S
O145 C130 1.202 . S
O146 U126 2.455 . S
O146 C143 1.301 . S
O147 U126 2.449 . S
O147 C143 1.282 . S
H148 C121 0.931 . S
H149 C123 0.929 . S
H150 C124 0.930 . S
H151 C125 0.931 . S
H152 C132 0.932 . S
H153 C133 0.930 . S
H154 C134 0.929 . S
H155 C136 0.930 . S
H156 C138 0.932 . S
H157 C139 0.929 . S
H158 C140 0.928 . S
H159 C142 0.932 . S
C160 C161 1.264 . S
C160 C165 1.479 . S
C160 C170 1.465 . S
C161 C160 1.264 . S
C161 C163 1.339 . S
C161 H188 0.931 . S
C162 C163 1.395 . S
C162 C164 1.320 . S
C163 C161 1.339 . S
C163 C162 1.395 . S
C163 H189 0.929 . S
C164 C162 1.320 . S
C164 C165 1.405 . S
C164 H190 0.930 . S
C165 C160 1.479 . S
C165 C164 1.405 . S
C165 H191 0.931 . S
U166 O167 2.454 . S
U166 O168 2.458 . S
U166 C169 2.984 . S
U166 C170 2.847 . S
U166 C183 2.882 . S
U166 O184 2.441 . S
U166 O185 2.420 . S
U166 O186 2.455 . S
U166 O187 2.449 . S
O167 U166 2.454 . S
O167 C169 1.353 . S
O168 U166 2.458 . S
O168 C169 1.286 . S
C169 U166 2.984 . S
C169 O167 1.353 . S
C169 O168 1.286 . S
C169 C171 1.363 . S
C170 C160 1.465 . S
C170 U166 2.847 . S
C170 O184 1.249 . S
C170 O185 1.202 . S
C171 C169 1.363 . S
C171 C173 1.408 . S
C171 C176 1.342 . S
C172 C173 1.310 . S
C172 C175 1.461 . S
C172 H192 0.932 . S
C173 C171 1.408 . S
C173 C172 1.310 . S
C173 H193 0.930 . S
C174 C175 1.474 . S
C174 C176 1.285 . S
C174 H194 0.929 . S
C175 C172 1.461 . S
C175 C174 1.474 . S
C176 C171 1.342 . S
C176 C174 1.285 . S
C176 H195 0.930 . S
C177 C180 1.424 . S
C177 C182 1.245 . S
C177 C183 1.428 . S
C178 C181 1.260 . S
C178 C182 1.477 . S
C178 H196 0.932 . S
C179 C180 1.384 . S
C179 C181 1.479 . S
C179 H197 0.929 . S
C180 C177 1.424 . S
C180 C179 1.384 . S
C180 H198 0.928 . S
C181 C178 1.260 . S
C181 C179 1.479 . S
C182 C177 1.245 . S
C182 C178 1.477 . S
C182 H199 0.932 . S
C183 U166 2.882 . S
C183 C177 1.428 . S
C183 O186 1.301 . S
C183 O187 1.282 . S
O184 U166 2.441 . S
O184 C170 1.249 . S
O185 U166 2.420 . S
O185 C170 1.202 . S
O186 U166 2.455 . S
O186 C183 1.301 . S
O187 U166 2.449 . S
O187 C183 1.282 . S
H188 C161 0.931 . S
H189 C163 0.929 . S
H190 C164 0.930 . S
H191 C165 0.931 . S
H192 C172 0.932 . S
H193 C173 0.930 . S
H194 C174 0.929 . S
H195 C176 0.930 . S
H196 C178 0.932 . S
H197 C179 0.929 . S
H198 C180 0.928 . S
H199 C182 0.932 . S
C200 C201 1.264 . S
C200 C205 1.479 . S
C200 C210 1.465 . S
C201 C200 1.264 . S
C201 C203 1.339 . S
C201 H228 0.931 . S
C202 C203 1.395 . S
C202 C204 1.320 . S
C203 C201 1.339 . S
C203 C202 1.395 . S
C203 H229 0.929 . S
C204 C202 1.320 . S
C204 C205 1.405 . S
C204 H230 0.930 . S
C205 C200 1.479 . S
C205 C204 1.405 . S
C205 H231 0.931 . S
U206 O207 2.454 . S
U206 O208 2.458 . S
U206 C209 2.984 . S
U206 C210 2.847 . S
U206 C223 2.882 . S
U206 O224 2.441 . S
U206 O225 2.420 . S
U206 O226 2.455 . S
U206 O227 2.449 . S
O207 U206 2.454 . S
O207 C209 1.353 . S
O208 U206 2.458 . S
O208 C209 1.286 . S
C209 U206 2.984 . S
C209 O207 1.353 . S
C209 O208 1.286 . S
C209 C211 1.363 . S
C210 C200 1.465 . S
C210 U206 2.847 . S
C210 O224 1.249 . S
C210 O225 1.202 . S
C211 C209 1.363 . S
C211 C213 1.408 . S
C211 C216 1.342 . S
C212 C213 1.310 . S
C212 C215 1.461 . S
C212 H232 0.932 . S
C213 C211 1.408 . S
C213 C212 1.310 . S
C213 H233 0.930 . S
C214 C215 1.474 . S
C214 C216 1.285 . S
C214 H234 0.929 . S
C215 C212 1.461 . S
C215 C214 1.474 . S
C216 C211 1.342 . S
C216 C214 1.285 . S
C216 H235 0.930 . S
C217 C220 1.424 . S
C217 C222 1.245 . S
C217 C223 1.428 . S
C218 C221 1.260 . S
C218 C222 1.477 . S
C218 H236 0.932 . S
C219 C220 1.384 . S
C219 C221 1.479 . S
C219 H237 0.929 . S
C220 C217 1.424 . S
C220 C219 1.384 . S
C220 H238 0.928 . S
C221 C218 1.260 . S
C221 C219 1.479 . S
C222 C217 1.245 . S
C222 C218 1.477 . S
C222 H239 0.932 . S
C223 U206 2.882 . S
C223 C217 1.428 . S
C223 O226 1.301 . S
C223 O227 1.282 . S
O224 U206 2.441 . S
O224 C210 1.249 . S
O225 U206 2.420 . S
O225 C210 1.202 . S
O226 U206 2.455 . S
O226 C223 1.301 . S
O227 U206 2.449 . S
O227 C223 1.282 . S
H228 C201 0.931 . S
H229 C203 0.929 . S
H230 C204 0.930 . S
H231 C205 0.931 . S
H232 C212 0.932 . S
H233 C213 0.930 . S
H234 C214 0.929 . S
H235 C216 0.930 . S
H236 C218 0.932 . S
H237 C219 0.929 . S
H238 C220 0.928 . S
H239 C222 0.932 . S
C240 C241 1.264 . S
C240 C245 1.479 . S
C240 C250 1.465 . S
C241 C240 1.264 . S
C241 C243 1.339 . S
C241 H268 0.931 . S
C242 C243 1.395 . S
C242 C244 1.320 . S
C243 C241 1.339 . S
C243 C242 1.395 . S
C243 H269 0.929 . S
C244 C242 1.320 . S
C244 C245 1.405 . S
C244 H270 0.930 . S
C245 C240 1.479 . S
C245 C244 1.405 . S
C245 H271 0.931 . S
U246 O247 2.454 . S
U246 O248 2.458 . S
U246 C249 2.984 . S
U246 C250 2.847 . S
U246 C263 2.882 . S
U246 O264 2.441 . S
U246 O265 2.420 . S
U246 O266 2.455 . S
U246 O267 2.449 . S
O247 U246 2.454 . S
O247 C249 1.353 . S
O248 U246 2.458 . S
O248 C249 1.286 . S
C249 U246 2.984 . S
C249 O247 1.353 . S
C249 O248 1.286 . S
C249 C251 1.363 . S
C250 C240 1.465 . S
C250 U246 2.847 . S
C250 O264 1.249 . S
C250 O265 1.202 . S
C251 C249 1.363 . S
C251 C253 1.408 . S
C251 C256 1.342 . S
C252 C253 1.310 . S
C252 C255 1.461 . S
C252 H272 0.932 . S
C253 C251 1.408 . S
C253 C252 1.310 . S
C253 H273 0.930 . S
C254 C255 1.474 . S
C254 C256 1.285 . S
C254 H274 0.929 . S
C255 C252 1.461 . S
C255 C254 1.474 . S
C256 C251 1.342 . S
C256 C254 1.285 . S
C256 H275 0.930 . S
C257 C260 1.424 . S
C257 C262 1.245 . S
C257 C263 1.428 . S
C258 C261 1.260 . S
C258 C262 1.477 . S
C258 H276 0.932 . S
C259 C260 1.384 . S
C259 C261 1.479 . S
C259 H277 0.929 . S
C260 C257 1.424 . S
C260 C259 1.384 . S
C260 H278 0.928 . S
C261 C258 1.260 . S
C261 C259 1.479 . S
C262 C257 1.245 . S
C262 C258 1.477 . S
C262 H279 0.932 . S
C263 U246 2.882 . S
C263 C257 1.428 . S
C263 O266 1.301 . S
C263 O267 1.282 . S
O264 U246 2.441 . S
O264 C250 1.249 . S
O265 U246 2.420 . S
O265 C250 1.202 . S
O266 U246 2.455 . S
O266 C263 1.301 . S
O267 U246 2.449 . S
O267 C263 1.282 . S
H268 C241 0.931 . S
H269 C243 0.929 . S
H270 C244 0.930 . S
H271 C245 0.931 . S
H272 C252 0.932 . S
H273 C253 0.930 . S
H274 C254 0.929 . S
H275 C256 0.930 . S
H276 C258 0.932 . S
H277 C259 0.929 . S
H278 C260 0.928 . S
H279 C262 0.932 . S
C280 C281 1.264 . S
C280 C285 1.479 . S
C280 C290 1.465 . S
C281 C280 1.264 . S
C281 C283 1.339 . S
C281 H308 0.931 . S
C282 C283 1.395 . S
C282 C284 1.320 . S
C283 C281 1.339 . S
C283 C282 1.395 . S
C283 H309 0.929 . S
C284 C282 1.320 . S
C284 C285 1.405 . S
C284 H310 0.930 . S
C285 C280 1.479 . S
C285 C284 1.405 . S
C285 H311 0.931 . S
U286 O287 2.454 . S
U286 O288 2.458 . S
U286 C289 2.984 . S
U286 C290 2.847 . S
U286 C303 2.882 . S
U286 O304 2.441 . S
U286 O305 2.420 . S
U286 O306 2.455 . S
U286 O307 2.449 . S
O287 U286 2.454 . S
O287 C289 1.353 . S
O288 U286 2.458 . S
O288 C289 1.286 . S
C289 U286 2.984 . S
C289 O287 1.353 . S
C289 O288 1.286 . S
C289 C291 1.363 . S
C290 C280 1.465 . S
C290 U286 2.847 . S
C290 O304 1.249 . S
C290 O305 1.202 . S
C291 C289 1.363 . S
C291 C293 1.408 . S
C291 C296 1.342 . S
C292 C293 1.310 . S
C292 C295 1.461 . S
C292 H312 0.932 . S
C293 C291 1.408 . S
C293 C292 1.310 . S
C293 H313 0.930 . S
C294 C295 1.474 . S
C294 C296 1.285 . S
C294 H314 0.929 . S
C295 C292 1.461 . S
C295 C294 1.474 . S
C296 C291 1.342 . S
C296 C294 1.285 . S
C296 H315 0.930 . S
C297 C300 1.424 . S
C297 C302 1.245 . S
C297 C303 1.428 . S
C298 C301 1.260 . S
C298 C302 1.477 . S
C298 H316 0.932 . S
C299 C300 1.384 . S
C299 C301 1.479 . S
C299 H317 0.929 . S
C300 C297 1.424 . S
C300 C299 1.384 . S
C300 H318 0.928 . S
C301 C298 1.260 . S
C301 C299 1.479 . S
C302 C297 1.245 . S
C302 C298 1.477 . S
C302 H319 0.932 . S
C303 U286 2.882 . S
C303 C297 1.428 . S
C303 O306 1.301 . S
C303 O307 1.282 . S
O304 U286 2.441 . S
O304 C290 1.249 . S
O305 U286 2.420 . S
O305 C290 1.202 . S
O306 U286 2.455 . S
O306 C303 1.301 . S
O307 U286 2.449 . S
O307 C303 1.282 . S
H308 C281 0.931 . S
H309 C283 0.929 . S
H310 C284 0.930 . S
H311 C285 0.931 . S
H312 C292 0.932 . S
H313 C293 0.930 . S
H314 C294 0.929 . S
H315 C296 0.930 . S
H316 C298 0.932 . S
H317 C299 0.929 . S
H318 C300 0.928 . S
H319 C302 0.932 . S
C320 C321 1.264 . S
C320 C325 1.479 . S
C320 C330 1.465 . S
C321 C320 1.264 . S
C321 C323 1.339 . S
C321 H348 0.931 . S
C322 C323 1.395 . S
C322 C324 1.320 . S
C323 C321 1.339 . S
C323 C322 1.395 . S
C323 H349 0.929 . S
C324 C322 1.320 . S
C324 C325 1.405 . S
C324 H350 0.930 . S
C325 C320 1.479 . S
C325 C324 1.405 . S
C325 H351 0.931 . S
U326 O327 2.454 . S
U326 O328 2.458 . S
U326 C329 2.984 . S
U326 C330 2.847 . S
U326 C343 2.882 . S
U326 O344 2.441 . S
U326 O345 2.420 . S
U326 O346 2.455 . S
U326 O347 2.449 . S
O327 U326 2.454 . S
O327 C329 1.353 . S
O328 U326 2.458 . S
O328 C329 1.286 . S
C329 U326 2.984 . S
C329 O327 1.353 . S
C329 O328 1.286 . S
C329 C331 1.363 . S
C330 C320 1.465 . S
C330 U326 2.847 . S
C330 O344 1.249 . S
C330 O345 1.202 . S
C331 C329 1.363 . S
C331 C333 1.408 . S
C331 C336 1.342 . S
C332 C333 1.310 . S
C332 C335 1.461 . S
C332 H352 0.932 . S
C333 C331 1.408 . S
C333 C332 1.310 . S
C333 H353 0.930 . S
C334 C335 1.474 . S
C334 C336 1.285 . S
C334 H354 0.929 . S
C335 C332 1.461 . S
C335 C334 1.474 . S
C336 C331 1.342 . S
C336 C334 1.285 . S
C336 H355 0.930 . S
C337 C340 1.424 . S
C337 C342 1.245 . S
C337 C343 1.428 . S
C338 C341 1.260 . S
C338 C342 1.477 . S
C338 H356 0.932 . S
C339 C340 1.384 . S
C339 C341 1.479 . S
C339 H357 0.929 . S
C340 C337 1.424 . S
C340 C339 1.384 . S
C340 H358 0.928 . S
C341 C338 1.260 . S
C341 C339 1.479 . S
C342 C337 1.245 . S
C342 C338 1.477 . S
C342 H359 0.932 . S
C343 U326 2.882 . S
C343 C337 1.428 . S
C343 O346 1.301 . S
C343 O347 1.282 . S
O344 U326 2.441 . S
O344 C330 1.249 . S
O345 U326 2.420 . S
O345 C330 1.202 . S
O346 U326 2.455 . S
O346 C343 1.301 . S
O347 U326 2.449 . S
O347 C343 1.282 . S
H348 C321 0.931 . S
H349 C323 0.929 . S
H350 C324 0.930 . S
H351 C325 0.931 . S
H352 C332 0.932 . S
H353 C333 0.930 . S
H354 C334 0.929 . S
H355 C336 0.930 . S
H356 C338 0.932 . S
H357 C339 0.929 . S
H358 C340 0.928 . S
H359 C342 0.932 . S
C360 C361 1.264 . S
C360 C365 1.479 . S
C360 C370 1.465 . S
C361 C360 1.264 . S
C361 C363 1.339 . S
C361 H388 0.931 . S
C362 C363 1.395 . S
C362 C364 1.320 . S
C363 C361 1.339 . S
C363 C362 1.395 . S
C363 H389 0.929 . S
C364 C362 1.320 . S
C364 C365 1.405 . S
C364 H390 0.930 . S
C365 C360 1.479 . S
C365 C364 1.405 . S
C365 H391 0.931 . S
U366 O367 2.454 . S
U366 O368 2.458 . S
U366 C369 2.984 . S
U366 C370 2.847 . S
U366 C383 2.882 . S
U366 O384 2.441 . S
U366 O385 2.420 . S
U366 O386 2.455 . S
U366 O387 2.449 . S
O367 U366 2.454 . S
O367 C369 1.353 . S
O368 U366 2.458 . S
O368 C369 1.286 . S
C369 U366 2.984 . S
C369 O367 1.353 . S
C369 O368 1.286 . S
C369 C371 1.363 . S
C370 C360 1.465 . S
C370 U366 2.847 . S
C370 O384 1.249 . S
C370 O385 1.202 . S
C371 C369 1.363 . S
C371 C373 1.408 . S
C371 C376 1.342 . S
C372 C373 1.310 . S
C372 C375 1.461 . S
C372 H392 0.932 . S
C373 C371 1.408 . S
C373 C372 1.310 . S
C373 H393 0.930 . S
C374 C375 1.474 . S
C374 C376 1.285 . S
C374 H394 0.929 . S
C375 C372 1.461 . S
C375 C374 1.474 . S
C376 C371 1.342 . S
C376 C374 1.285 . S
C376 H395 0.930 . S
C377 C380 1.424 . S
C377 C382 1.245 . S
C377 C383 1.428 . S
C378 C381 1.260 . S
C378 C382 1.477 . S
C378 H396 0.932 . S
C379 C380 1.384 . S
C379 C381 1.479 . S
C379 H397 0.929 . S
C380 C377 1.424 . S
C380 C379 1.384 . S
C380 H398 0.928 . S
C381 C378 1.260 . S
C381 C379 1.479 . S
C382 C377 1.245 . S
C382 C378 1.477 . S
C382 H399 0.932 . S
C383 U366 2.882 . S
C383 C377 1.428 . S
C383 O386 1.301 . S
C383 O387 1.282 . S
O384 U366 2.441 . S
O384 C370 1.249 . S
O385 U366 2.420 . S
O385 C370 1.202 . S
O386 U366 2.455 . S
O386 C383 1.301 . S
O387 U366 2.449 . S
O387 C383 1.282 . S
H388 C361 0.931 . S
H389 C363 0.929 . S
H390 C364 0.930 . S
H391 C365 0.931 . S
H392 C372 0.932 . S
H393 C373 0.930 . S
H394 C374 0.929 . S
H395 C376 0.930 . S
H396 C378 0.932 . S
H397 C379 0.929 . S
H398 C380 0.928 . S
H399 C382 0.932 . S
C400 C401 1.264 . S
C400 C405 1.479 . S
C400 C410 1.465 . S
C401 C400 1.264 . S
C401 C403 1.339 . S
C401 H428 0.931 . S
C402 C403 1.395 . S
C402 C404 1.320 . S
C403 C401 1.339 . S
C403 C402 1.395 . S
C403 H429 0.929 . S
C404 C402 1.320 . S
C404 C405 1.405 . S
C404 H430 0.930 . S
C405 C400 1.479 . S
C405 C404 1.405 . S
C405 H431 0.931 . S
U406 O407 2.454 . S
U406 O408 2.458 . S
U406 C409 2.984 . S
U406 C410 2.847 . S
U406 C423 2.882 . S
U406 O424 2.441 . S
U406 O425 2.420 . S
U406 O426 2.455 . S
U406 O427 2.449 . S
O407 U406 2.454 . S
O407 C409 1.353 . S
O408 U406 2.458 . S
O408 C409 1.286 . S
C409 U406 2.984 . S
C409 O407 1.353 . S
C409 O408 1.286 . S
C409 C411 1.363 . S
C410 C400 1.465 . S
C410 U406 2.847 . S
C410 O424 1.249 . S
C410 O425 1.202 . S
C411 C409 1.363 . S
C411 C413 1.408 . S
C411 C416 1.342 . S
C412 C413 1.310 . S
C412 C415 1.461 . S
C412 H432 0.932 . S
C413 C411 1.408 . S
C413 C412 1.310 . S
C413 H433 0.930 . S
C414 C415 1.474 . S
C414 C416 1.285 . S
C414 H434 0.929 . S
C415 C412 1.461 . S
C415 C414 1.474 . S
C416 C411 1.342 . S
C416 C414 1.285 . S
C416 H435 0.930 . S
C417 C420 1.424 . S
C417 C422 1.245 . S
C417 C423 1.428 . S
C418 C421 1.260 . S
C418 C422 1.477 . S
C418 H436 0.932 . S
C419 C420 1.384 . S
C419 C421 1.479 . S
C419 H437 0.929 . S
C420 C417 1.424 . S
C420 C419 1.384 . S
C420 H438 0.928 . S
C421 C418 1.260 . S
C421 C419 1.479 . S
C422 C417 1.245 . S
C422 C418 1.477 . S
C422 H439 0.932 . S
C423 U406 2.882 . S
C423 C417 1.428 . S
C423 O426 1.301 . S
C423 O427 1.282 . S
O424 U406 2.441 . S
O424 C410 1.249 . S
O425 U406 2.420 . S
O425 C410 1.202 . S
O426 U406 2.455 . S
O426 C423 1.301 . S
O427 U406 2.449 . S
O427 C423 1.282 . S
H428 C401 0.931 . S
H429 C403 0.929 . S
H430 C404 0.930 . S
H431 C405 0.931 . S
H432 C412 0.932 . S
H433 C413 0.930 . S
H434 C414 0.929 . S
H435 C416 0.930 . S
H436 C418 0.932 . S
H437 C419 0.929 . S
H438 C420 0.928 . S
H439 C422 0.932 . S
C440 C441 1.264 . S
C440 C445 1.479 . S
C440 C450 1.465 . S
C441 C440 1.264 . S
C441 C443 1.339 . S
C441 H468 0.931 . S
C442 C443 1.395 . S
C442 C444 1.320 . S
C443 C441 1.339 . S
C443 C442 1.395 . S
C443 H469 0.929 . S
C444 C442 1.320 . S
C444 C445 1.405 . S
C444 H470 0.930 . S
C445 C440 1.479 . S
C445 C444 1.405 . S
C445 H471 0.931 . S
U446 O447 2.454 . S
U446 O448 2.458 . S
U446 C449 2.984 . S
U446 C450 2.847 . S
U446 C463 2.882 . S
U446 O464 2.441 . S
U446 O465 2.420 . S
U446 O466 2.455 . S
U446 O467 2.449 . S
O447 U446 2.454 . S
O447 C449 1.353 . S
O448 U446 2.458 . S
O448 C449 1.286 . S
C449 U446 2.984 . S
C449 O447 1.353 . S
C449 O448 1.286 . S
C449 C451 1.363 . S
C450 C440 1.465 . S
C450 U446 2.847 . S
C450 O464 1.249 . S
C450 O465 1.202 . S
C451 C449 1.363 . S
C451 C453 1.408 . S
C451 C456 1.342 . S
C452 C453 1.310 . S
C452 C455 1.461 . S
C452 H472 0.932 . S
C453 C451 1.408 . S
C453 C452 1.310 . S
C453 H473 0.930 . S
C454 C455 1.474 . S
C454 C456 1.285 . S
C454 H474 0.929 . S
C455 C452 1.461 . S
C455 C454 1.474 . S
C456 C451 1.342 . S
C456 C454 1.285 . S
C456 H475 0.930 . S
C457 C460 1.424 . S
C457 C462 1.245 . S
C457 C463 1.428 . S
C458 C461 1.260 . S
C458 C462 1.477 . S
C458 H476 0.932 . S
C459 C460 1.384 . S
C459 C461 1.479 . S
C459 H477 0.929 . S
C460 C457 1.424 . S
C460 C459 1.384 . S
C460 H478 0.928 . S
C461 C458 1.260 . S
C461 C459 1.479 . S
C462 C457 1.245 . S
C462 C458 1.477 . S
C462 H479 0.932 . S
C463 U446 2.882 . S
C463 C457 1.428 . S
C463 O466 1.301 . S
C463 O467 1.282 . S
O464 U446 2.441 . S
O464 C450 1.249 . S
O465 U446 2.420 . S
O465 C450 1.202 . S
O466 U446 2.455 . S
O466 C463 1.301 . S
O467 U446 2.449 . S
O467 C463 1.282 . S
H468 C441 0.931 . S
H469 C443 0.929 . S
H470 C444 0.930 . S
H471 C445 0.931 . S
H472 C452 0.932 . S
H473 C453 0.930 . S
H474 C454 0.929 . S
H475 C456 0.930 . S
H476 C458 0.932 . S
H477 C459 0.929 . S
H478 C460 0.928 . S
H479 C462 0.932 . S
C480 C481 1.264 . S
C480 C485 1.479 . S
C480 C490 1.465 . S
C481 C480 1.264 . S
C481 C483 1.339 . S
C481 H508 0.931 . S
C482 C483 1.395 . S
C482 C484 1.320 . S
C483 C481 1.339 . S
C483 C482 1.395 . S
C483 H509 0.929 . S
C484 C482 1.320 . S
C484 C485 1.405 . S
C484 H510 0.930 . S
C485 C480 1.479 . S
C485 C484 1.405 . S
C485 H511 0.931 . S
U486 O487 2.454 . S
U486 O488 2.458 . S
U486 C489 2.984 . S
U486 C490 2.847 . S
U486 C503 2.882 . S
U486 O504 2.441 . S
U486 O505 2.420 . S
U486 O506 2.455 . S
U486 O507 2.449 . S
O487 U486 2.454 . S
O487 C489 1.353 . S
O488 U486 2.458 . S
O488 C489 1.286 . S
C489 U486 2.984 . S
C489 O487 1.353 . S
C489 O488 1.286 . S
C489 C491 1.363 . S
C490 C480 1.465 . S
C490 U486 2.847 . S
C490 O504 1.249 . S
C490 O505 1.202 . S
C491 C489 1.363 . S
C491 C493 1.408 . S
C491 C496 1.342 . S
C492 C493 1.310 . S
C492 C495 1.461 . S
C492 H512 0.932 . S
C493 C491 1.408 . S
C493 C492 1.310 . S
C493 H513 0.930 . S
C494 C495 1.474 . S
C494 C496 1.285 . S
C494 H514 0.929 . S
C495 C492 1.461 . S
C495 C494 1.474 . S
C496 C491 1.342 . S
C496 C494 1.285 . S
C496 H515 0.930 . S
C497 C500 1.424 . S
C497 C502 1.245 . S
C497 C503 1.428 . S
C498 C501 1.260 . S
C498 C502 1.477 . S
C498 H516 0.932 . S
C499 C500 1.384 . S
C499 C501 1.479 . S
C499 H517 0.929 . S
C500 C497 1.424 . S
C500 C499 1.384 . S
C500 H518 0.928 . S
C501 C498 1.260 . S
C501 C499 1.479 . S
C502 C497 1.245 . S
C502 C498 1.477 . S
C502 H519 0.932 . S
C503 U486 2.882 . S
C503 C497 1.428 . S
C503 O506 1.301 . S
C503 O507 1.282 . S
O504 U486 2.441 . S
O504 C490 1.249 . S
O505 U486 2.420 . S
O505 C490 1.202 . S
O506 U486 2.455 . S
O506 C503 1.301 . S
O507 U486 2.449 . S
O507 C503 1.282 . S
H508 C481 0.931 . S
H509 C483 0.929 . S
H510 C484 0.930 . S
H511 C485 0.931 . S
H512 C492 0.932 . S
H513 C493 0.930 . S
H514 C494 0.929 . S
H515 C496 0.930 . S
H516 C498 0.932 . S
H517 C499 0.929 . S
H518 C500 0.928 . S
H519 C502 0.932 . S
C520 C521 1.264 . S
C520 C525 1.479 . S
C520 C530 1.465 . S
C521 C520 1.264 . S
C521 C523 1.339 . S
C521 H548 0.931 . S
C522 C523 1.395 . S
C522 C524 1.320 . S
C523 C521 1.339 . S
C523 C522 1.395 . S
C523 H549 0.929 . S
C524 C522 1.320 . S
C524 C525 1.405 . S
C524 H550 0.930 . S
C525 C520 1.479 . S
C525 C524 1.405 . S
C525 H551 0.931 . S
U526 O527 2.454 . S
U526 O528 2.458 . S
U526 C529 2.984 . S
U526 C530 2.847 . S
U526 C543 2.882 . S
U526 O544 2.441 . S
U526 O545 2.420 . S
U526 O546 2.455 . S
U526 O547 2.449 . S
O527 U526 2.454 . S
O527 C529 1.353 . S
O528 U526 2.458 . S
O528 C529 1.286 . S
C529 U526 2.984 . S
C529 O527 1.353 . S
C529 O528 1.286 . S
C529 C531 1.363 . S
C530 C520 1.465 . S
C530 U526 2.847 . S
C530 O544 1.249 . S
C530 O545 1.202 . S
C531 C529 1.363 . S
C531 C533 1.408 . S
C531 C536 1.342 . S
C532 C533 1.310 . S
C532 C535 1.461 . S
C532 H552 0.932 . S
C533 C531 1.408 . S
C533 C532 1.310 . S
C533 H553 0.930 . S
C534 C535 1.474 . S
C534 C536 1.285 . S
C534 H554 0.929 . S
C535 C532 1.461 . S
C535 C534 1.474 . S
C536 C531 1.342 . S
C536 C534 1.285 . S
C536 H555 0.930 . S
C537 C540 1.424 . S
C537 C542 1.245 . S
C537 C543 1.428 . S
C538 C541 1.260 . S
C538 C542 1.477 . S
C538 H556 0.932 . S
C539 C540 1.384 . S
C539 C541 1.479 . S
C539 H557 0.929 . S
C540 C537 1.424 . S
C540 C539 1.384 . S
C540 H558 0.928 . S
C541 C538 1.260 . S
C541 C539 1.479 . S
C542 C537 1.245 . S
C542 C538 1.477 . S
C542 H559 0.932 . S
C543 U526 2.882 . S
C543 C537 1.428 . S
C543 O546 1.301 . S
C543 O547 1.282 . S
O544 U526 2.441 . S
O544 C530 1.249 . S
O545 U526 2.420 . S
O545 C530 1.202 . S
O546 U526 2.455 . S
O546 C543 1.301 . S
O547 U526 2.449 . S
O547 C543 1.282 . S
H548 C521 0.931 . S
H549 C523 0.929 . S
H550 C524 0.930 . S
H551 C525 0.931 . S
H552 C532 0.932 . S
H553 C533 0.930 . S
H554 C534 0.929 . S
H555 C536 0.930 . S
H556 C538 0.932 . S
H557 C539 0.929 . S
H558 C540 0.928 . S
H559 C542 0.932 . S
C560 C561 1.264 . S
C560 C565 1.479 . S
C560 C570 1.465 . S
C561 C560 1.264 . S
C561 C563 1.339 . S
C561 H588 0.931 . S
C562 C563 1.395 . S
C562 C564 1.320 . S
C563 C561 1.339 . S
C563 C562 1.395 . S
C563 H589 0.929 . S
C564 C562 1.320 . S
C564 C565 1.405 . S
C564 H590 0.930 . S
C565 C560 1.479 . S
C565 C564 1.405 . S
C565 H591 0.931 . S
U566 O567 2.454 . S
U566 O568 2.458 . S
U566 C569 2.984 . S
U566 C570 2.847 . S
U566 C583 2.882 . S
U566 O584 2.441 . S
U566 O585 2.420 . S
U566 O586 2.455 . S
U566 O587 2.449 . S
O567 U566 2.454 . S
O567 C569 1.353 . S
O568 U566 2.458 . S
O568 C569 1.286 . S
C569 U566 2.984 . S
C569 O567 1.353 . S
C569 O568 1.286 . S
C569 C571 1.363 . S
C570 C560 1.465 . S
C570 U566 2.847 . S
C570 O584 1.249 . S
C570 O585 1.202 . S
C571 C569 1.363 . S
C571 C573 1.408 . S
C571 C576 1.342 . S
C572 C573 1.310 . S
C572 C575 1.461 . S
C572 H592 0.932 . S
C573 C571 1.408 . S
C573 C572 1.310 . S
C573 H593 0.930 . S
C574 C575 1.474 . S
C574 C576 1.285 . S
C574 H594 0.929 . S
C575 C572 1.461 . S
C575 C574 1.474 . S
C576 C571 1.342 . S
C576 C574 1.285 . S
C576 H595 0.930 . S
C577 C580 1.424 . S
C577 C582 1.245 . S
C577 C583 1.428 . S
C578 C581 1.260 . S
C578 C582 1.477 . S
C578 H596 0.932 . S
C579 C580 1.384 . S
C579 C581 1.479 . S
C579 H597 0.929 . S
C580 C577 1.424 . S
C580 C579 1.384 . S
C580 H598 0.928 . S
C581 C578 1.260 . S
C581 C579 1.479 . S
C582 C577 1.245 . S
C582 C578 1.477 . S
C582 H599 0.932 . S
C583 U566 2.882 . S
C583 C577 1.428 . S
C583 O586 1.301 . S
C583 O587 1.282 . S
O584 U566 2.441 . S
O584 C570 1.249 . S
O585 U566 2.420 . S
O585 C570 1.202 . S
O586 U566 2.455 . S
O586 C583 1.301 . S
O587 U566 2.449 . S
O587 C583 1.282 . S
H588 C561 0.931 . S
H589 C563 0.929 . S
H590 C564 0.930 . S
H591 C565 0.931 . S
H592 C572 0.932 . S
H593 C573 0.930 . S
H594 C574 0.929 . S
H595 C576 0.930 . S
H596 C578 0.932 . S
H597 C579 0.929 . S
H598 C580 0.928 . S
H599 C582 0.932 . S
C600 C601 1.264 . S
C600 C605 1.479 . S
C600 C610 1.465 . S
C601 C600 1.264 . S
C601 C603 1.339 . S
C601 H628 0.931 . S
C602 C603 1.395 . S
C602 C604 1.320 . S
C603 C601 1.339 . S
C603 C602 1.395 . S
C603 H629 0.929 . S
C604 C602 1.320 . S
C604 C605 1.405 . S
C604 H630 0.930 . S
C605 C600 1.479 . S
C605 C604 1.405 . S
C605 H631 0.931 . S
U606 O607 2.454 . S
U606 O608 2.458 . S
U606 C609 2.984 . S
U606 C610 2.847 . S
U606 C623 2.882 . S
U606 O624 2.441 . S
U606 O625 2.420 . S
U606 O626 2.455 . S
U606 O627 2.449 . S
O607 U606 2.454 . S
O607 C609 1.353 . S
O608 U606 2.458 . S
O608 C609 1.286 . S
C609 U606 2.984 . S
C609 O607 1.353 . S
C609 O608 1.286 . S
C609 C611 1.363 . S
C610 C600 1.465 . S
C610 U606 2.847 . S
C610 O624 1.249 . S
C610 O625 1.202 . S
C611 C609 1.363 . S
C611 C613 1.408 . S
C611 C616 1.342 . S
C612 C613 1.310 . S
C612 C615 1.461 . S
C612 H632 0.932 . S
C613 C611 1.408 . S
C613 C612 1.310 . S
C613 H633 0.930 . S
C614 C615 1.474 . S
C614 C616 1.285 . S
C614 H634 0.929 . S
C615 C612 1.461 . S
C615 C614 1.474 . S
C616 C611 1.342 . S
C616 C614 1.285 . S
C616 H635 0.930 . S
C617 C620 1.424 . S
C617 C622 1.245 . S
C617 C623 1.428 . S
C618 C621 1.260 . S
C618 C622 1.477 . S
C618 H636 0.932 . S
C619 C620 1.384 . S
C619 C621 1.479 . S
C619 H637 0.929 . S
C620 C617 1.424 . S
C620 C619 1.384 . S
C620 H638 0.928 . S
C621 C618 1.260 . S
C621 C619 1.479 . S
C622 C617 1.245 . S
C622 C618 1.477 . S
C622 H639 0.932 . S
C623 U606 2.882 . S
C623 C617 1.428 . S
C623 O626 1.301 . S
C623 O627 1.282 . S
O624 U606 2.441 . S
O624 C610 1.249 . S
O625 U606 2.420 . S
O625 C610 1.202 . S
O626 U606 2.455 . S
O626 C623 1.301 . S
O627 U606 2.449 . S
O627 C623 1.282 . S
H628 C601 0.931 . S
H629 C603 0.929 . S
H630 C604 0.930 . S
H631 C605 0.931 . S
H632 C612 0.932 . S
H633 C613 0.930 . S
H634 C614 0.929 . S
H635 C616 0.930 . S
H636 C618 0.932 . S
H637 C619 0.929 . S
H638 C620 0.928 . S
H639 C622 0.932 . S
C640 C641 1.264 . S
C640 C645 1.479 . S
C640 C650 1.465 . S
C641 C640 1.264 . S
C641 C643 1.339 . S
C641 H668 0.931 . S
C642 C643 1.395 . S
C642 C644 1.320 . S
C643 C641 1.339 . S
C643 C642 1.395 . S
C643 H669 0.929 . S
C644 C642 1.320 . S
C644 C645 1.405 . S
C644 H670 0.930 . S
C645 C640 1.479 . S
C645 C644 1.405 . S
C645 H671 0.931 . S
U646 O647 2.454 . S
U646 O648 2.458 . S
U646 C649 2.984 . S
U646 C650 2.847 . S
U646 C663 2.882 . S
U646 O664 2.441 . S
U646 O665 2.420 . S
U646 O666 2.455 . S
U646 O667 2.449 . S
O647 U646 2.454 . S
O647 C649 1.353 . S
O648 U646 2.458 . S
O648 C649 1.286 . S
C649 U646 2.984 . S
C649 O647 1.353 . S
C649 O648 1.286 . S
C649 C651 1.363 . S
C650 C640 1.465 . S
C650 U646 2.847 . S
C650 O664 1.249 . S
C650 O665 1.202 . S
C651 C649 1.363 . S
C651 C653 1.408 . S
C651 C656 1.342 . S
C652 C653 1.310 . S
C652 C655 1.461 . S
C652 H672 0.932 . S
C653 C651 1.408 . S
C653 C652 1.310 . S
C653 H673 0.930 . S
C654 C655 1.474 . S
C654 C656 1.285 . S
C654 H674 0.929 . S
C655 C652 1.461 . S
C655 C654 1.474 . S
C656 C651 1.342 . S
C656 C654 1.285 . S
C656 H675 0.930 . S
C657 C660 1.424 . S
C657 C662 1.245 . S
C657 C663 1.428 . S
C658 C661 1.260 . S
C658 C662 1.477 . S
C658 H676 0.932 . S
C659 C660 1.384 . S
C659 C661 1.479 . S
C659 H677 0.929 . S
C660 C657 1.424 . S
C660 C659 1.384 . S
C660 H678 0.928 . S
C661 C658 1.260 . S
C661 C659 1.479 . S
C662 C657 1.245 . S
C662 C658 1.477 . S
C662 H679 0.932 . S
C663 U646 2.882 . S
C663 C657 1.428 . S
C663 O666 1.301 . S
C663 O667 1.282 . S
O664 U646 2.441 . S
O664 C650 1.249 . S
O665 U646 2.420 . S
O665 C650 1.202 . S
O666 U646 2.455 . S
O666 C663 1.301 . S
O667 U646 2.449 . S
O667 C663 1.282 . S
H668 C641 0.931 . S
H669 C643 0.929 . S
H670 C644 0.930 . S
H671 C645 0.931 . S
H672 C652 0.932 . S
H673 C653 0.930 . S
H674 C654 0.929 . S
H675 C656 0.930 . S
H676 C658 0.932 . S
H677 C659 0.929 . S
H678 C660 0.928 . S
H679 C662 0.932 . S
C680 C681 1.264 . S
C680 C685 1.479 . S
C680 C690 1.465 . S
C681 C680 1.264 . S
C681 C683 1.339 . S
C681 H708 0.931 . S
C682 C683 1.395 . S
C682 C684 1.320 . S
C683 C681 1.339 . S
C683 C682 1.395 . S
C683 H709 0.929 . S
C684 C682 1.320 . S
C684 C685 1.405 . S
C684 H710 0.930 . S
C685 C680 1.479 . S
C685 C684 1.405 . S
C685 H711 0.931 . S
U686 O687 2.454 . S
U686 O688 2.458 . S
U686 C689 2.984 . S
U686 C690 2.847 . S
U686 C703 2.882 . S
U686 O704 2.441 . S
U686 O705 2.420 . S
U686 O706 2.455 . S
U686 O707 2.449 . S
O687 U686 2.454 . S
O687 C689 1.353 . S
O688 U686 2.458 . S
O688 C689 1.286 . S
C689 U686 2.984 . S
C689 O687 1.353 . S
C689 O688 1.286 . S
C689 C691 1.363 . S
C690 C680 1.465 . S
C690 U686 2.847 . S
C690 O704 1.249 . S
C690 O705 1.202 . S
C691 C689 1.363 . S
C691 C693 1.408 . S
C691 C696 1.342 . S
C692 C693 1.310 . S
C692 C695 1.461 . S
C692 H712 0.932 . S
C693 C691 1.408 . S
C693 C692 1.310 . S
C693 H713 0.930 . S
C694 C695 1.474 . S
C694 C696 1.285 . S
C694 H714 0.929 . S
C695 C692 1.461 . S
C695 C694 1.474 . S
C696 C691 1.342 . S
C696 C694 1.285 . S
C696 H715 0.930 . S
C697 C700 1.424 . S
C697 C702 1.245 . S
C697 C703 1.428 . S
C698 C701 1.260 . S
C698 C702 1.477 . S
C698 H716 0.932 . S
C699 C700 1.384 . S
C699 C701 1.479 . S
C699 H717 0.929 . S
C700 C697 1.424 . S
C700 C699 1.384 . S
C700 H718 0.928 . S
C701 C698 1.260 . S
C701 C699 1.479 . S
C702 C697 1.245 . S
C702 C698 1.477 . S
C702 H719 0.932 . S
C703 U686 2.882 . S
C703 C697 1.428 . S
C703 O706 1.301 . S
C703 O707 1.282 . S
O704 U686 2.441 . S
O704 C690 1.249 . S
O705 U686 2.420 . S
O705 C690 1.202 . S
O706 U686 2.455 . S
O706 C703 1.301 . S
O707 U686 2.449 . S
O707 C703 1.282 . S
H708 C681 0.931 . S
H709 C683 0.929 . S
H710 C684 0.930 . S
H711 C685 0.931 . S
H712 C692 0.932 . S
H713 C693 0.930 . S
H714 C694 0.929 . S
H715 C696 0.930 . S
H716 C698 0.932 . S
H717 C699 0.929 . S
H718 C700 0.928 . S
H719 C702 0.932 . S
C720 C721 1.264 . S
C720 C725 1.479 . S
C720 C730 1.465 . S
C721 C720 1.264 . S
C721 C723 1.339 . S
C721 H748 0.931 . S
C722 C723 1.395 . S
C722 C724 1.320 . S
C723 C721 1.339 . S
C723 C722 1.395 . S
C723 H749 0.929 . S
C724 C722 1.320 . S
C724 C725 1.405 . S
C724 H750 0.930 . S
C725 C720 1.479 . S
C725 C724 1.405 . S
C725 H751 0.931 . S
U726 O727 2.454 . S
U726 O728 2.458 . S
U726 C729 2.984 . S
U726 C730 2.847 . S
U726 C743 2.882 . S
U726 O744 2.441 . S
U726 O745 2.420 . S
U726 O746 2.455 . S
U726 O747 2.449 . S
O727 U726 2.454 . S
O727 C729 1.353 . S
O728 U726 2.458 . S
O728 C729 1.286 . S
C729 U726 2.984 . S
C729 O727 1.353 . S
C729 O728 1.286 . S
C729 C731 1.363 . S
C730 C720 1.465 . S
C730 U726 2.847 . S
C730 O744 1.249 . S
C730 O745 1.202 . S
C731 C729 1.363 . S
C731 C733 1.408 . S
C731 C736 1.342 . S
C732 C733 1.310 . S
C732 C735 1.461 . S
C732 H752 0.932 . S
C733 C731 1.408 . S
C733 C732 1.310 . S
C733 H753 0.930 . S
C734 C735 1.474 . S
C734 C736 1.285 . S
C734 H754 0.929 . S
C735 C732 1.461 . S
C735 C734 1.474 . S
C736 C731 1.342 . S
C736 C734 1.285 . S
C736 H755 0.930 . S
C737 C740 1.424 . S
C737 C742 1.245 . S
C737 C743 1.428 . S
C738 C741 1.260 . S
C738 C742 1.477 . S
C738 H756 0.932 . S
C739 C740 1.384 . S
C739 C741 1.479 . S
C739 H757 0.929 . S
C740 C737 1.424 . S
C740 C739 1.384 . S
C740 H758 0.928 . S
C741 C738 1.260 . S
C741 C739 1.479 . S
C742 C737 1.245 . S
C742 C738 1.477 . S
C742 H759 0.932 . S
C743 U726 2.882 . S
C743 C737 1.428 . S
C743 O746 1.301 . S
C743 O747 1.282 . S
O744 U726 2.441 . S
O744 C730 1.249 . S
O745 U726 2.420 . S
O745 C730 1.202 . S
O746 U726 2.455 . S
O746 C743 1.301 . S
O747 U726 2.449 . S
O747 C743 1.282 . S
H748 C721 0.931 . S
H749 C723 0.929 . S
H750 C724 0.930 . S
H751 C725 0.931 . S
H752 C732 0.932 . S
H753 C733 0.930 . S
H754 C734 0.929 . S
H755 C736 0.930 . S
H756 C738 0.932 . S
H757 C739 0.929 . S
H758 C740 0.928 . S
H759 C742 0.932 . S
C760 C761 1.264 . S
C760 C765 1.479 . S
C760 C770 1.465 . S
C761 C760 1.264 . S
C761 C763 1.339 . S
C761 H788 0.931 . S
C762 C763 1.395 . S
C762 C764 1.320 . S
C763 C761 1.339 . S
C763 C762 1.395 . S
C763 H789 0.929 . S
C764 C762 1.320 . S
C764 C765 1.405 . S
C764 H790 0.930 . S
C765 C760 1.479 . S
C765 C764 1.405 . S
C765 H791 0.931 . S
U766 O767 2.454 . S
U766 O768 2.458 . S
U766 C769 2.984 . S
U766 C770 2.847 . S
U766 C783 2.882 . S
U766 O784 2.441 . S
U766 O785 2.420 . S
U766 O786 2.455 . S
U766 O787 2.449 . S
O767 U766 2.454 . S
O767 C769 1.353 . S
O768 U766 2.458 . S
O768 C769 1.286 . S
C769 U766 2.984 . S
C769 O767 1.353 . S
C769 O768 1.286 . S
C769 C771 1.363 . S
C770 C760 1.465 . S
C770 U766 2.847 . S
C770 O784 1.249 . S
C770 O785 1.202 . S
C771 C769 1.363 . S
C771 C773 1.408 . S
C771 C776 1.342 . S
C772 C773 1.310 . S
C772 C775 1.461 . S
C772 H792 0.932 . S
C773 C771 1.408 . S
C773 C772 1.310 . S
C773 H793 0.930 . S
C774 C775 1.474 . S
C774 C776 1.285 . S
C774 H794 0.929 . S
C775 C772 1.461 . S
C775 C774 1.474 . S
C776 C771 1.342 . S
C776 C774 1.285 . S
C776 H795 0.930 . S
C777 C780 1.424 . S
C777 C782 1.245 . S
C777 C783 1.428 . S
C778 C781 1.260 . S
C778 C782 1.477 . S
C778 H796 0.932 . S
C779 C780 1.384 . S
C779 C781 1.479 . S
C779 H797 0.929 . S
C780 C777 1.424 . S
C780 C779 1.384 . S
C780 H798 0.928 . S
C781 C778 1.260 . S
C781 C779 1.479 . S
C782 C777 1.245 . S
C782 C778 1.477 . S
C782 H799 0.932 . S
C783 U766 2.882 . S
C783 C777 1.428 . S
C783 O786 1.301 . S
C783 O787 1.282 . S
O784 U766 2.441 . S
O784 C770 1.249 . S
O785 U766 2.420 . S
O785 C770 1.202 . S
O786 U766 2.455 . S
O786 C783 1.301 . S
O787 U766 2.449 . S
O787 C783 1.282 . S
H788 C761 0.931 . S
H789 C763 0.929 . S
H790 C764 0.930 . S
H791 C765 0.931 . S
H792 C772 0.932 . S
H793 C773 0.930 . S
H794 C774 0.929 . S
H795 C776 0.930 . S
H796 C778 0.932 . S
H797 C779 0.929 . S
H798 C780 0.928 . S
H799 C782 0.932 . S
C800 C801 1.264 . S
C800 C805 1.479 . S
C800 C810 1.465 . S
C801 C800 1.264 . S
C801 C803 1.339 . S
C801 H828 0.931 . S
C802 C803 1.395 . S
C802 C804 1.320 . S
C803 C801 1.339 . S
C803 C802 1.395 . S
C803 H829 0.929 . S
C804 C802 1.320 . S
C804 C805 1.405 . S
C804 H830 0.930 . S
C805 C800 1.479 . S
C805 C804 1.405 . S
C805 H831 0.931 . S
U806 O807 2.454 . S
U806 O808 2.458 . S
U806 C809 2.984 . S
U806 C810 2.847 . S
U806 C823 2.882 . S
U806 O824 2.441 . S
U806 O825 2.420 . S
U806 O826 2.455 . S
U806 O827 2.449 . S
O807 U806 2.454 . S
O807 C809 1.353 . S
O808 U806 2.458 . S
O808 C809 1.286 . S
C809 U806 2.984 . S
C809 O807 1.353 . S
C809 O808 1.286 . S
C809 C811 1.363 . S
C810 C800 1.465 . S
C810 U806 2.847 . S
C810 O824 1.249 . S
C810 O825 1.202 . S
C811 C809 1.363 . S
C811 C813 1.408 . S
C811 C816 1.342 . S
C812 C813 1.310 . S
C812 C815 1.461 . S
C812 H832 0.932 . S
C813 C811 1.408 . S
C813 C812 1.310 . S
C813 H833 0.930 . S
C814 C815 1.474 . S
C814 C816 1.285 . S
C814 H834 0.929 . S
C815 C812 1.461 . S
C815 C814 1.474 . S
C816 C811 1.342 . S
C816 C814 1.285 . S
C816 H835 0.930 . S
C817 C820 1.424 . S
C817 C822 1.245 . S
C817 C823 1.428 . S
C818 C821 1.260 . S
C818 C822 1.477 . S
C818 H836 0.932 . S
C819 C820 1.384 . S
C819 C821 1.479 . S
C819 H837 0.929 . S
C820 C817 1.424 . S
C820 C819 1.384 . S
C820 H838 0.928 . S
C821 C818 1.260 . S
C821 C819 1.479 . S
C822 C817 1.245 . S
C822 C818 1.477 . S
C822 H839 0.932 . S
C823 U806 2.882 . S
C823 C817 1.428 . S
C823 O826 1.301 . S
C823 O827 1.282 . S
O824 U806 2.441 . S
O824 C810 1.249 . S
O825 U806 2.420 . S
O825 C810 1.202 . S
O826 U806 2.455 . S
O826 C823 1.301 . S
O827 U806 2.449 . S
O827 C823 1.282 . S
H828 C801 0.931 . S
H829 C803 0.929 . S
H830 C804 0.930 . S
H831 C805 0.931 . S
H832 C812 0.932 . S
H833 C813 0.930 . S
H834 C814 0.929 . S
H835 C816 0.930 . S
H836 C818 0.932 . S
H837 C819 0.929 . S
H838 C820 0.928 . S
H839 C822 0.932 . S
C840 C841 1.264 . S
C840 C845 1.479 . S
C840 C850 1.465 . S
C841 C840 1.264 . S
C841 C843 1.339 . S
C841 H868 0.931 . S
C842 C843 1.395 . S
C842 C844 1.320 . S
C843 C841 1.339 . S
C843 C842 1.395 . S
C843 H869 0.929 . S
C844 C842 1.320 . S
C844 C845 1.405 . S
C844 H870 0.930 . S
C845 C840 1.479 . S
C845 C844 1.405 . S
C845 H871 0.931 . S
U846 O847 2.454 . S
U846 O848 2.458 . S
U846 C849 2.984 . S
U846 C850 2.847 . S
U846 C863 2.882 . S
U846 O864 2.441 . S
U846 O865 2.420 . S
U846 O866 2.455 . S
U846 O867 2.449 . S
O847 U846 2.454 . S
O847 C849 1.353 . S
O848 U846 2.458 . S
O848 C849 1.286 . S
C849 U846 2.984 . S
C849 O847 1.353 . S
C849 O848 1.286 . S
C849 C851 1.363 . S
C850 C840 1.465 . S
C850 U846 2.847 . S
C850 O864 1.249 . S
C850 O865 1.202 . S
C851 C849 1.363 . S
C851 C853 1.408 . S
C851 C856 1.342 . S
C852 C853 1.310 . S
C852 C855 1.461 . S
C852 H872 0.932 . S
C853 C851 1.408 . S
C853 C852 1.310 . S
C853 H873 0.930 . S
C854 C855 1.474 . S
C854 C856 1.285 . S
C854 H874 0.929 . S
C855 C852 1.461 . S
C855 C854 1.474 . S
C856 C851 1.342 . S
C856 C854 1.285 . S
C856 H875 0.930 . S
C857 C860 1.424 . S
C857 C862 1.245 . S
C857 C863 1.428 . S
C858 C861 1.260 . S
C858 C862 1.477 . S
C858 H876 0.932 . S
C859 C860 1.384 . S
C859 C861 1.479 . S
C859 H877 0.929 . S
C860 C857 1.424 . S
C860 C859 1.384 . S
C860 H878 0.928 . S
C861 C858 1.260 . S
C861 C859 1.479 . S
C862 C857 1.245 . S
C862 C858 1.477 . S
C862 H879 0.932 . S
C863 U846 2.882 . S
C863 C857 1.428 . S
C863 O866 1.301 . S
C863 O867 1.282 . S
O864 U846 2.441 . S
O864 C850 1.249 . S
O865 U846 2.420 . S
O865 C850 1.202 . S
O866 U846 2.455 . S
O866 C863 1.301 . S
O867 U846 2.449 . S
O867 C863 1.282 . S
H868 C841 0.931 . S
H869 C843 0.929 . S
H870 C844 0.930 . S
H871 C845 0.931 . S
H872 C852 0.932 . S
H873 C853 0.930 . S
H874 C854 0.929 . S
H875 C856 0.930 . S
H876 C858 0.932 . S
H877 C859 0.929 . S
H878 C860 0.928 . S
H879 C862 0.932 . S
C880 C881 1.264 . S
C880 C885 1.479 . S
C880 C890 1.465 . S
C881 C880 1.264 . S
C881 C883 1.339 . S
C881 H908 0.931 . S
C882 C883 1.395 . S
C882 C884 1.320 . S
C883 C881 1.339 . S
C883 C882 1.395 . S
C883 H909 0.929 . S
C884 C882 1.320 . S
C884 C885 1.405 . S
C884 H910 0.930 . S
C885 C880 1.479 . S
C885 C884 1.405 . S
C885 H911 0.931 . S
U886 O887 2.454 . S
U886 O888 2.458 . S
U886 C889 2.984 . S
U886 C890 2.847 . S
U886 C903 2.882 . S
U886 O904 2.441 . S
U886 O905 2.420 . S
U886 O906 2.455 . S
U886 O907 2.449 . S
O887 U886 2.454 . S
O887 C889 1.353 . S
O888 U886 2.458 . S
O888 C889 1.286 . S
C889 U886 2.984 . S
C889 O887 1.353 . S
C889 O888 1.286 . S
C889 C891 1.363 . S
C890 C880 1.465 . S
C890 U886 2.847 . S
C890 O904 1.249 . S
C890 O905 1.202 . S
C891 C889 1.363 . S
C891 C893 1.408 . S
C891 C896 1.342 . S
C892 C893 1.310 . S
C892 C895 1.461 . S
C892 H912 0.932 . S
C893 C891 1.408 . S
C893 C892 1.310 . S
C893 H913 0.930 . S
C894 C895 1.474 . S
C894 C896 1.285 . S
C894 H914 0.929 . S
C895 C892 1.461 . S
C895 C894 1.474 . S
C896 C891 1.342 . S
C896 C894 1.285 . S
C896 H915 0.930 . S
C897 C900 1.424 . S
C897 C902 1.245 . S
C897 C903 1.428 . S
C898 C901 1.260 . S
C898 C902 1.477 . S
C898 H916 0.932 . S
C899 C900 1.384 . S
C899 C901 1.479 . S
C899 H917 0.929 . S
C900 C897 1.424 . S
C900 C899 1.384 . S
C900 H918 0.928 . S
C901 C898 1.260 . S
C901 C899 1.479 . S
C902 C897 1.245 . S
C902 C898 1.477 . S
C902 H919 0.932 . S
C903 U886 2.882 . S
C903 C897 1.428 . S
C903 O906 1.301 . S
C903 O907 1.282 . S
O904 U886 2.441 . S
O904 C890 1.249 . S
O905 U886 2.420 . S
O905 C890 1.202 . S
O906 U886 2.455 . S
O906 C903 1.301 . S
O907 U886 2.449 . S
O907 C903 1.282 . S
H908 C881 0.931 . S
H909 C883 0.929 . S
H910 C884 0.930 . S
H911 C885 0.931 . S
H912 C892 0.932 . S
H913 C893 0.930 . S
H914 C894 0.929 . S
H915 C896 0.930 . S
H916 C898 0.932 . S
H917 C899 0.929 . S
H918 C900 0.928 . S
H919 C902 0.932 . S
C920 C921 1.264 . S
C920 C925 1.479 . S
C920 C930 1.465 . S
C921 C920 1.264 . S
C921 C923 1.339 . S
C921 H948 0.931 . S
C922 C923 1.395 . S
C922 C924 1.320 . S
C923 C921 1.339 . S
C923 C922 1.395 . S
C923 H949 0.929 . S
C924 C922 1.320 . S
C924 C925 1.405 . S
C924 H950 0.930 . S
C925 C920 1.479 . S
C925 C924 1.405 . S
C925 H951 0.931 . S
U926 O927 2.454 . S
U926 O928 2.458 . S
U926 C929 2.984 . S
U926 C930 2.847 . S
U926 C943 2.882 . S
U926 O944 2.441 . S
U926 O945 2.420 . S
U926 O946 2.455 . S
U926 O947 2.449 . S
O927 U926 2.454 . S
O927 C929 1.353 . S
O928 U926 2.458 . S
O928 C929 1.286 . S
C929 U926 2.984 . S
C929 O927 1.353 . S
C929 O928 1.286 . S
C929 C931 1.363 . S
C930 C920 1.465 . S
C930 U926 2.847 . S
C930 O944 1.249 . S
C930 O945 1.202 . S
C931 C929 1.363 . S
C931 C933 1.408 . S
C931 C936 1.342 . S
C932 C933 1.310 . S
C932 C935 1.461 . S
C932 H952 0.932 . S
C933 C931 1.408 . S
C933 C932 1.310 . S
C933 H953 0.930 . S
C934 C935 1.474 . S
C934 C936 1.285 . S
C934 H954 0.929 . S
C935 C932 1.461 . S
C935 C934 1.474 . S
C936 C931 1.342 . S
C936 C934 1.285 . S
C936 H955 0.930 . S
C937 C940 1.424 . S
C937 C942 1.245 . S
C937 C943 1.428 . S
C938 C941 1.260 . S
C938 C942 1.477 . S
C938 H956 0.932 . S
C939 C940 1.384 . S
C939 C941 1.479 . S
C939 H957 0.929 . S
C940 C937 1.424 . S
C940 C939 1.384 . S
C940 H958 0.928 . S
C941 C938 1.260 . S
C941 C939 1.479 . S
C942 C937 1.245 . S
C942 C938 1.477 . S
C942 H959 0.932 . S
C943 U926 2.882 . S
C943 C937 1.428 . S
C943 O946 1.301 . S
C943 O947 1.282 . S
O944 U926 2.441 . S
O944 C930 1.249 . S
O945 U926 2.420 . S
O945 C930 1.202 . S
O946 U926 2.455 . S
O946 C943 1.301 . S
O947 U926 2.449 . S
O947 C943 1.282 . S
H948 C921 0.931 . S
H949 C923 0.929 . S
H950 C924 0.930 . S
H951 C925 0.931 . S
H952 C932 0.932 . S
H953 C933 0.930 . S
H954 C934 0.929 . S
H955 C936 0.930 . S
H956 C938 0.932 . S
H957 C939 0.929 . S
H958 C940 0.928 . S
H959 C942 0.932 . S
C960 C961 1.264 . S
C960 C965 1.479 . S
C960 C970 1.465 . S
C961 C960 1.264 . S
C961 C963 1.339 . S
C961 H988 0.931 . S
C962 C963 1.395 . S
C962 C964 1.320 . S
C963 C961 1.339 . S
C963 C962 1.395 . S
C963 H989 0.929 . S
C964 C962 1.320 . S
C964 C965 1.405 . S
C964 H990 0.930 . S
C965 C960 1.479 . S
C965 C964 1.405 . S
C965 H991 0.931 . S
U966 O967 2.454 . S
U966 O968 2.458 . S
U966 C969 2.984 . S
U966 C970 2.847 . S
U966 C983 2.882 . S
U966 O984 2.441 . S
U966 O985 2.420 . S
U966 O986 2.455 . S
U966 O987 2.449 . S
O967 U966 2.454 . S
O967 C969 1.353 . S
O968 U966 2.458 . S
O968 C969 1.286 . S
C969 U966 2.984 . S
C969 O967 1.353 . S
C969 O968 1.286 . S
C969 C971 1.363 . S
C970 C960 1.465 . S
C970 U966 2.847 . S
C970 O984 1.249 . S
C970 O985 1.202 . S
C971 C969 1.363 . S
C971 C973 1.408 . S
C971 C976 1.342 . S
C972 C973 1.310 . S
C972 C975 1.461 . S
C972 H992 0.932 . S
C973 C971 1.408 . S
C973 C972 1.310 . S
C973 H993 0.930 . S
C974 C975 1.474 . S
C974 C976 1.285 . S
C974 H994 0.929 . S
C975 C972 1.461 . S
C975 C974 1.474 . S
C976 C971 1.342 . S
C976 C974 1.285 . S
C976 H995 0.930 . S
C977 C980 1.424 . S
C977 C982 1.245 . S
C977 C983 1.428 . S
C978 C981 1.260 . S
C978 C982 1.477 . S
C978 H996 0.932 . S
C979 C980 1.384 . S
C979 C981 1.479 . S
C979 H997 0.929 . S
C980 C977 1.424 . S
C980 C979 1.384 . S
C980 H998 0.928 . S
C981 C978 1.260 . S
C981 C979 1.479 . S
C982 C977 1.245 . S
C982 C978 1.477 . S
C982 H999 0.932 . S
C983 U966 2.882 . S
C983 C977 1.428 . S
C983 O986 1.301 . S
C983 O987 1.282 . S
O984 U966 2.441 . S
O984 C970 1.249 . S
O985 U966 2.420 . S
O985 C970 1.202 . S
O986 U966 2.455 . S
O986 C983 1.301 . S
O987 U966 2.449 . S
O987 C983 1.282 . S
H988 C961 0.931 . S
H989 C963 0.929 . S
H990 C964 0.930 . S
H991 C965 0.931 . S
H992 C972 0.932 . S
H993 C973 0.930 . S
H994 C974 0.929 . S
H995 C976 0.930 . S
H996 C978 0.932 . S
H997 C979 0.929 . S
H998 C980 0.928 . S
H999 C982 0.932 . S
C1000 C1001 1.264 . S
C1000 C1005 1.479 . S
C1000 C1010 1.465 . S
C1001 C1000 1.264 . S
C1001 C1003 1.339 . S
C1001 H1028 0.931 . S
C1002 C1003 1.395 . S
C1002 C1004 1.320 . S
C1003 C1001 1.339 . S
C1003 C1002 1.395 . S
C1003 H1029 0.929 . S
C1004 C1002 1.320 . S
C1004 C1005 1.405 . S
C1004 H1030 0.930 . S
C1005 C1000 1.479 . S
C1005 C1004 1.405 . S
C1005 H1031 0.931 . S
U1006 O1007 2.454 . S
U1006 O1008 2.458 . S
U1006 C1009 2.984 . S
U1006 C1010 2.847 . S
U1006 C1023 2.882 . S
U1006 O1024 2.441 . S
U1006 O1025 2.420 . S
U1006 O1026 2.455 . S
U1006 O1027 2.449 . S
O1007 U1006 2.454 . S
O1007 C1009 1.353 . S
O1008 U1006 2.458 . S
O1008 C1009 1.286 . S
C1009 U1006 2.984 . S
C1009 O1007 1.353 . S
C1009 O1008 1.286 . S
C1009 C1011 1.363 . S
C1010 C1000 1.465 . S
C1010 U1006 2.847 . S
C1010 O1024 1.249 . S
C1010 O1025 1.202 . S
C1011 C1009 1.363 . S
C1011 C1013 1.408 . S
C1011 C1016 1.342 . S
C1012 C1013 1.310 . S
C1012 C1015 1.461 . S
C1012 H1032 0.932 . S
C1013 C1011 1.408 . S
C1013 C1012 1.310 . S
C1013 H1033 0.930 . S
C1014 C1015 1.474 . S
C1014 C1016 1.285 . S
C1014 H1034 0.929 . S
C1015 C1012 1.461 . S
C1015 C1014 1.474 . S
C1016 C1011 1.342 . S
C1016 C1014 1.285 . S
C1016 H1035 0.930 . S
C1017 C1020 1.424 . S
C1017 C1022 1.245 . S
C1017 C1023 1.428 . S
C1018 C1021 1.260 . S
C1018 C1022 1.477 . S
C1018 H1036 0.932 . S
C1019 C1020 1.384 . S
C1019 C1021 1.479 . S
C1019 H1037 0.929 . S
C1020 C1017 1.424 . S
C1020 C1019 1.384 . S
C1020 H1038 0.928 . S
C1021 C1018 1.260 . S
C1021 C1019 1.479 . S
C1022 C1017 1.245 . S
C1022 C1018 1.477 . S
C1022 H1039 0.932 . S
C1023 U1006 2.882 . S
C1023 C1017 1.428 . S
C1023 O1026 1.301 . S
C1023 O1027 1.282 . S
O1024 U1006 2.441 . S
O1024 C1010 1.249 . S
O1025 U1006 2.420 . S
O1025 C1010 1.202 . S
O1026 U1006 2.455 . S
O1026 C1023 1.301 . S
O1027 U1006 2.449 . S
O1027 C1023 1.282 . S
H1028 C1001 0.931 . S
H1029 C1003 0.929 . S
H1030 C1004 0.930 . S
H1031 C1005 0.931 . S
H1032 C1012 0.932 . S
H1033 C1013 0.930 . S
H1034 C1014 0.929 . S
H1035 C1016 0.930 . S
H1036 C1018 0.932 . S
H1037 C1019 0.929 . S
H1038 C1020 0.928 . S
H1039 C1022 0.932 . S
C1040 C1041 1.264 . S
C1040 C1045 1.479 . S
C1040 C1050 1.465 . S
C1041 C1040 1.264 . S
C1041 C1043 1.339 . S
C1041 H1068 0.931 . S
C1042 C1043 1.395 . S
C1042 C1044 1.320 . S
C1043 C1041 1.339 . S
C1043 C1042 1.395 . S
C1043 H1069 0.929 . S
C1044 C1042 1.320 . S
C1044 C1045 1.405 . S
C1044 H1070 0.930 . S
C1045 C1040 1.479 . S
C1045 C1044 1.405 . S
C1045 H1071 0.931 . S
U1046 O1047 2.454 . S
U1046 O1048 2.458 . S
U1046 C1049 2.984 . S
U1046 C1050 2.847 . S
U1046 C1063 2.882 . S
U1046 O1064 2.441 . S
U1046 O1065 2.420 . S
U1046 O1066 2.455 . S
U1046 O1067 2.449 . S
O1047 U1046 2.454 . S
O1047 C1049 1.353 . S
O1048 U1046 2.458 . S
O1048 C1049 1.286 . S
C1049 U1046 2.984 . S
C1049 O1047 1.353 . S
C1049 O1048 1.286 . S
C1049 C1051 1.363 . S
C1050 C1040 1.465 . S
C1050 U1046 2.847 . S
C1050 O1064 1.249 . S
C1050 O1065 1.202 . S
C1051 C1049 1.363 . S
C1051 C1053 1.408 . S
C1051 C1056 1.342 . S
C1052 C1053 1.310 . S
C1052 C1055 1.461 . S
C1052 H1072 0.932 . S
C1053 C1051 1.408 . S
C1053 C1052 1.310 . S
C1053 H1073 0.930 . S
C1054 C1055 1.474 . S
C1054 C1056 1.285 . S
C1054 H1074 0.929 . S
C1055 C1052 1.461 . S
C1055 C1054 1.474 . S
C1056 C1051 1.342 . S
C1056 C1054 1.285 . S
C1056 H1075 0.930 . S
C1057 C1060 1.424 . S
C1057 C1062 1.245 . S
C1057 C1063 1.428 . S
C1058 C1061 1.260 . S
C1058 C1062 1.477 . S
C1058 H1076 0.932 . S
C1059 C1060 1.384 . S
C1059 C1061 1.479 . S
C1059 H1077 0.929 . S
C1060 C1057 1.424 . S
C1060 C1059 1.384 . S
C1060 H1078 0.928 . S
C1061 C1058 1.260 . S
C1061 C1059 1.479 . S
C1062 C1057 1.245 . S
C1062 C1058 1.477 . S
C1062 H1079 0.932 . S
C1063 U1046 2.882 . S
C1063 C1057 1.428 . S
C1063 O1066 1.301 . S
C1063 O1067 1.282 . S
O1064 U1046 2.441 . S
O1064 C1050 1.249 . S
O1065 U1046 2.420 . S
O1065 C1050 1.202 . S
O1066 U1046 2.455 . S
O1066 C1063 1.301 . S
O1067 U1046 2.449 . S
O1067 C1063 1.282 . S
H1068 C1041 0.931 . S
H1069 C1043 0.929 . S
H1070 C1044 0.930 . S
H1071 C1045 0.931 . S
H1072 C1052 0.932 . S
H1073 C1053 0.930 . S
H1074 C1054 0.929 . S
H1075 C1056 0.930 . S
H1076 C1058 0.932 . S
H1077 C1059 0.929 . S
H1078 C1060 0.928 . S
H1079 C1062 0.932 . S
C1080 C1081 1.264 . S
C1080 C1085 1.479 . S
C1080 C1090 1.465 . S
C1081 C1080 1.264 . S
C1081 C1083 1.339 . S
C1081 H1108 0.931 . S
C1082 C1083 1.395 . S
C1082 C1084 1.320 . S
C1083 C1081 1.339 . S
C1083 C1082 1.395 . S
C1083 H1109 0.929 . S
C1084 C1082 1.320 . S
C1084 C1085 1.405 . S
C1084 H1110 0.930 . S
C1085 C1080 1.479 . S
C1085 C1084 1.405 . S
C1085 H1111 0.931 . S
U1086 O1087 2.454 . S
U1086 O1088 2.458 . S
U1086 C1089 2.984 . S
U1086 C1090 2.847 . S
U1086 C1103 2.882 . S
U1086 O1104 2.441 . S
U1086 O1105 2.420 . S
U1086 O1106 2.455 . S
U1086 O1107 2.449 . S
O1087 U1086 2.454 . S
O1087 C1089 1.353 . S
O1088 U1086 2.458 . S
O1088 C1089 1.286 . S
C1089 U1086 2.984 . S
C1089 O1087 1.353 . S
C1089 O1088 1.286 . S
C1089 C1091 1.363 . S
C1090 C1080 1.465 . S
C1090 U1086 2.847 . S
C1090 O1104 1.249 . S
C1090 O1105 1.202 . S
C1091 C1089 1.363 . S
C1091 C1093 1.408 . S
C1091 C1096 1.342 . S
C1092 C1093 1.310 . S
C1092 C1095 1.461 . S
C1092 H1112 0.932 . S
C1093 C1091 1.408 . S
C1093 C1092 1.310 . S
C1093 H1113 0.930 . S
C1094 C1095 1.474 . S
C1094 C1096 1.285 . S
C1094 H1114 0.929 . S
C1095 C1092 1.461 . S
C1095 C1094 1.474 . S
C1096 C1091 1.342 . S
C1096 C1094 1.285 . S
C1096 H1115 0.930 . S
C1097 C1100 1.424 . S
C1097 C1102 1.245 . S
C1097 C1103 1.428 . S
C1098 C1101 1.260 . S
C1098 C1102 1.477 . S
C1098 H1116 0.932 . S
C1099 C1100 1.384 . S
C1099 C1101 1.479 . S
C1099 H1117 0.929 . S
C1100 C1097 1.424 . S
C1100 C1099 1.384 . S
C1100 H1118 0.928 . S
C1101 C1098 1.260 . S
C1101 C1099 1.479 . S
C1102 C1097 1.245 . S
C1102 C1098 1.477 . S
C1102 H1119 0.932 . S
C1103 U1086 2.882 . S
C1103 C1097 1.428 . S
C1103 O1106 1.301 . S
C1103 O1107 1.282 . S
O1104 U1086 2.441 . S
O1104 C1090 1.249 . S
O1105 U1086 2.420 . S
O1105 C1090 1.202 . S
O1106 U1086 2.455 . S
O1106 C1103 1.301 . S
O1107 U1086 2.449 . S
O1107 C1103 1.282 . S
H1108 C1081 0.931 . S
H1109 C1083 0.929 . S
H1110 C1084 0.930 . S
H1111 C1085 0.931 . S
H1112 C1092 0.932 . S
H1113 C1093 0.930 . S
H1114 C1094 0.929 . S
H1115 C1096 0.930 . S
H1116 C1098 0.932 . S
H1117 C1099 0.929 . S
H1118 C1100 0.928 . S
H1119 C1102 0.932 . S
C1120 C1121 1.264 . S
C1120 C1125 1.479 . S
C1120 C1130 1.465 . S
C1121 C1120 1.264 . S
C1121 C1123 1.339 . S
C1121 H1148 0.931 . S
C1122 C1123 1.395 . S
C1122 C1124 1.320 . S
C1123 C1121 1.339 . S
C1123 C1122 1.395 . S
C1123 H1149 0.929 . S
C1124 C1122 1.320 . S
C1124 C1125 1.405 . S
C1124 H1150 0.930 . S
C1125 C1120 1.479 . S
C1125 C1124 1.405 . S
C1125 H1151 0.931 . S
U1126 O1127 2.454 . S
U1126 O1128 2.458 . S
U1126 C1129 2.984 . S
U1126 C1130 2.847 . S
U1126 C1143 2.882 . S
U1126 O1144 2.441 . S
U1126 O1145 2.420 . S
U1126 O1146 2.455 . S
U1126 O1147 2.449 . S
O1127 U1126 2.454 . S
O1127 C1129 1.353 . S
O1128 U1126 2.458 . S
O1128 C1129 1.286 . S
C1129 U1126 2.984 . S
C1129 O1127 1.353 . S
C1129 O1128 1.286 . S
C1129 C1131 1.363 . S
C1130 C1120 1.465 . S
C1130 U1126 2.847 . S
C1130 O1144 1.249 . S
C1130 O1145 1.202 . S
C1131 C1129 1.363 . S
C1131 C1133 1.408 . S
C1131 C1136 1.342 . S
C1132 C1133 1.310 . S
C1132 C1135 1.461 . S
C1132 H1152 0.932 . S
C1133 C1131 1.408 . S
C1133 C1132 1.310 . S
C1133 H1153 0.930 . S
C1134 C1135 1.474 . S
C1134 C1136 1.285 . S
C1134 H1154 0.929 . S
C1135 C1132 1.461 . S
C1135 C1134 1.474 . S
C1136 C1131 1.342 . S
C1136 C1134 1.285 . S
C1136 H1155 0.930 . S
C1137 C1140 1.424 . S
C1137 C1142 1.245 . S
C1137 C1143 1.428 . S
C1138 C1141 1.260 . S
C1138 C1142 1.477 . S
C1138 H1156 0.932 . S
C1139 C1140 1.384 . S
C1139 C1141 1.479 . S
C1139 H1157 0.929 . S
C1140 C1137 1.424 . S
C1140 C1139 1.384 . S
C1140 H1158 0.928 . S
C1141 C1138 1.260 . S
C1141 C1139 1.479 . S
C1142 C1137 1.245 . S
C1142 C1138 1.477 . S
C1142 H1159 0.932 . S
C1143 U1126 2.882 . S
C1143 C1137 1.428 . S
C1143 O1146 1.301 . S
C1143 O1147 1.282 . S
O1144 U1126 2.441 . S
O1144 C1130 1.249 . S
O1145 U1126 2.420 . S
O1145 C1130 1.202 . S
O1146 U1126 2.455 . S
O1146 C1143 1.301 . S
O1147 U1126 2.449 . S
O1147 C1143 1.282 . S
H1148 C1121 0.931 . S
H1149 C1123 0.929 . S
H1150 C1124 0.930 . S
H1151 C1125 0.931 . S
H1152 C1132 0.932 . S
H1153 C1133 0.930 . S
H1154 C1134 0.929 . S
H1155 C1136 0.930 . S
H1156 C1138 0.932 . S
H1157 C1139 0.929 . S
H1158 C1140 0.928 . S
H1159 C1142 0.932 . S
C1160 C1161 1.264 . S
C1160 C1165 1.479 . S
C1160 C1170 1.465 . S
C1161 C1160 1.264 . S
C1161 C1163 1.339 . S
C1161 H1188 0.931 . S
C1162 C1163 1.395 . S
C1162 C1164 1.320 . S
C1163 C1161 1.339 . S
C1163 C1162 1.395 . S
C1163 H1189 0.929 . S
C1164 C1162 1.320 . S
C1164 C1165 1.405 . S
C1164 H1190 0.930 . S
C1165 C1160 1.479 . S
C1165 C1164 1.405 . S
C1165 H1191 0.931 . S
U1166 O1167 2.454 . S
U1166 O1168 2.458 . S
U1166 C1169 2.984 . S
U1166 C1170 2.847 . S
U1166 C1183 2.882 . S
U1166 O1184 2.441 . S
U1166 O1185 2.420 . S
U1166 O1186 2.455 . S
U1166 O1187 2.449 . S
O1167 U1166 2.454 . S
O1167 C1169 1.353 . S
O1168 U1166 2.458 . S
O1168 C1169 1.286 . S
C1169 U1166 2.984 . S
C1169 O1167 1.353 . S
C1169 O1168 1.286 . S
C1169 C1171 1.363 . S
C1170 C1160 1.465 . S
C1170 U1166 2.847 . S
C1170 O1184 1.249 . S
C1170 O1185 1.202 . S
C1171 C1169 1.363 . S
C1171 C1173 1.408 . S
C1171 C1176 1.342 . S
C1172 C1173 1.310 . S
C1172 C1175 1.461 . S
C1172 H1192 0.932 . S
C1173 C1171 1.408 . S
C1173 C1172 1.310 . S
C1173 H1193 0.930 . S
C1174 C1175 1.474 . S
C1174 C1176 1.285 . S
C1174 H1194 0.929 . S
C1175 C1172 1.461 . S
C1175 C1174 1.474 . S
C1176 C1171 1.342 . S
C1176 C1174 1.285 . S
C1176 H1195 0.930 . S
C1177 C1180 1.424 . S
C1177 C1182 1.245 . S
C1177 C1183 1.428 . S
C1178 C1181 1.260 . S
C1178 C1182 1.477 . S
C1178 H1196 0.932 . S
C1179 C1180 1.384 . S
C1179 C1181 1.479 . S
C1179 H1197 0.929 . S
C1180 C1177 1.424 . S
C1180 C1179 1.384 . S
C1180 H1198 0.928 . S
C1181 C1178 1.260 . S
C1181 C1179 1.479 . S
C1182 C1177 1.245 . S
C1182 C1178 1.477 . S
C1182 H1199 0.932 . S
C1183 U1166 2.882 . S
C1183 C1177 1.428 . S
C1183 O1186 1.301 . S
C1183 O1187 1.282 . S
O1184 U1166 2.441 . S
O1184 C1170 1.249 . S
O1185 U1166 2.420 . S
O1185 C1170 1.202 . S
O1186 U1166 2.455 . S
O1186 C1183 1.301 . S
O1187 U1166 2.449 . S
O1187 C1183 1.282 . S
H1188 C1161 0.931 . S
H1189 C1163 0.929 . S
H1190 C1164 0.930 . S
H1191 C1165 0.931 . S
H1192 C1172 0.932 . S
H1193 C1173 0.930 . S
H1194 C1174 0.929 . S
H1195 C1176 0.930 . S
H1196 C1178 0.932 . S
H1197 C1179 0.929 . S
H1198 C1180 0.928 . S
H1199 C1182 0.932 . S
C1200 C1201 1.264 . S
C1200 C1205 1.479 . S
C1200 C1210 1.465 . S
C1201 C1200 1.264 . S
C1201 C1203 1.339 . S
C1201 H1228 0.931 . S
C1202 C1203 1.395 . S
C1202 C1204 1.320 . S
C1203 C1201 1.339 . S
C1203 C1202 1.395 . S
C1203 H1229 0.929 . S
C1204 C1202 1.320 . S
C1204 C1205 1.405 . S
C1204 H1230 0.930 . S
C1205 C1200 1.479 . S
C1205 C1204 1.405 . S
C1205 H1231 0.931 . S
U1206 O1207 2.454 . S
U1206 O1208 2.458 . S
U1206 C1209 2.984 . S
U1206 C1210 2.847 . S
U1206 C1223 2.882 . S
U1206 O1224 2.441 . S
U1206 O1225 2.420 . S
U1206 O1226 2.455 . S
U1206 O1227 2.449 . S
O1207 U1206 2.454 . S
O1207 C1209 1.353 . S
O1208 U1206 2.458 . S
O1208 C1209 1.286 . S
C1209 U1206 2.984 . S
C1209 O1207 1.353 . S
C1209 O1208 1.286 . S
C1209 C1211 1.363 . S
C1210 C1200 1.465 . S
C1210 U1206 2.847 . S
C1210 O1224 1.249 . S
C1210 O1225 1.202 . S
C1211 C1209 1.363 . S
C1211 C1213 1.408 . S
C1211 C1216 1.342 . S
C1212 C1213 1.310 . S
C1212 C1215 1.461 . S
C1212 H1232 0.932 . S
C1213 C1211 1.408 . S
C1213 C1212 1.310 . S
C1213 H1233 0.930 . S
C1214 C1215 1.474 . S
C1214 C1216 1.285 . S
C1214 H1234 0.929 . S
C1215 C1212 1.461 . S
C1215 C1214 1.474 . S
C1216 C1211 1.342 . S
C1216 C1214 1.285 . S
C1216 H1235 0.930 . S
C1217 C1220 1.424 . S
C1217 C1222 1.245 . S
C1217 C1223 1.428 . S
C1218 C1221 1.260 . S
C1218 C1222 1.477 . S
C1218 H1236 0.932 . S
C1219 C1220 1.384 . S
C1219 C1221 1.479 . S
C1219 H1237 0.929 . S
C1220 C1217 1.424 . S
C1220 C1219 1.384 . S
C1220 H1238 0.928 . S
C1221 C1218 1.260 . S
C1221 C1219 1.479 . S
C1222 C1217 1.245 . S
C1222 C1218 1.477 . S
C1222 H1239 0.932 . S
C1223 U1206 2.882 . S
C1223 C1217 1.428 . S
C1223 O1226 1.301 . S
C1223 O1227 1.282 . S
O1224 U1206 2.441 . S
O1224 C1210 1.249 . S
O1225 U1206 2.420 . S
O1225 C1210 1.202 . S
O1226 U1206 2.455 . S
O1226 C1223 1.301 . S
O1227 U1206 2.449 . S
O1227 C1223 1.282 . S
H1228 C1201 0.931 . S
H1229 C1203 0.929 . S
H1230 C1204 0.930 . S
H1231 C1205 0.931 . S
H1232 C1212 0.932 . S
H1233 C1213 0.930 . S
H1234 C1214 0.929 . S
H1235 C1216 0.930 . S
H1236 C1218 0.932 . S
H1237 C1219 0.929 . S
H1238 C1220 0.928 . S
H1239 C1222 0.932 . S
C1240 C1241 1.264 . S
C1240 C1245 1.479 . S
C1240 C1250 1.465 . S
C1241 C1240 1.264 . S
C1241 C1243 1.339 . S
C1241 H1268 0.931 . S
C1242 C1243 1.395 . S
C1242 C1244 1.320 . S
C1243 C1241 1.339 . S
C1243 C1242 1.395 . S
C1243 H1269 0.929 . S
C1244 C1242 1.320 . S
C1244 C1245 1.405 . S
C1244 H1270 0.930 . S
C1245 C1240 1.479 . S
C1245 C1244 1.405 . S
C1245 H1271 0.931 . S
U1246 O1247 2.454 . S
U1246 O1248 2.458 . S
U1246 C1249 2.984 . S
U1246 C1250 2.847 . S
U1246 C1263 2.882 . S
U1246 O1264 2.441 . S
U1246 O1265 2.420 . S
U1246 O1266 2.455 . S
U1246 O1267 2.449 . S
O1247 U1246 2.454 . S
O1247 C1249 1.353 . S
O1248 U1246 2.458 . S
O1248 C1249 1.286 . S
C1249 U1246 2.984 . S
C1249 O1247 1.353 . S
C1249 O1248 1.286 . S
C1249 C1251 1.363 . S
C1250 C1240 1.465 . S
C1250 U1246 2.847 . S
C1250 O1264 1.249 . S
C1250 O1265 1.202 . S
C1251 C1249 1.363 . S
C1251 C1253 1.408 . S
C1251 C1256 1.342 . S
C1252 C1253 1.310 . S
C1252 C1255 1.461 . S
C1252 H1272 0.932 . S
C1253 C1251 1.408 . S
C1253 C1252 1.310 . S
C1253 H1273 0.930 . S
C1254 C1255 1.474 . S
C1254 C1256 1.285 . S
C1254 H1274 0.929 . S
C1255 C1252 1.461 . S
C1255 C1254 1.474 . S
C1256 C1251 1.342 . S
C1256 C1254 1.285 . S
C1256 H1275 0.930 . S
C1257 C1260 1.424 . S
C1257 C1262 1.245 . S
C1257 C1263 1.428 . S
C1258 C1261 1.260 . S
C1258 C1262 1.477 . S
C1258 H1276 0.932 . S
C1259 C1260 1.384 . S
C1259 C1261 1.479 . S
C1259 H1277 0.929 . S
C1260 C1257 1.424 . S
C1260 C1259 1.384 . S
C1260 H1278 0.928 . S
C1261 C1258 1.260 . S
C1261 C1259 1.479 . S
C1262 C1257 1.245 . S
C1262 C1258 1.477 . S
C1262 H1279 0.932 . S
C1263 U1246 2.882 . S
C1263 C1257 1.428 . S
C1263 O1266 1.301 . S
C1263 O1267 1.282 . S
O1264 U1246 2.441 . S
O1264 C1250 1.249 . S
O1265 U1246 2.420 . S
O1265 C1250 1.202 . S
O1266 U1246 2.455 . S
O1266 C1263 1.301 . S
O1267 U1246 2.449 . S
O1267 C1263 1.282 . S
H1268 C1241 0.931 . S
H1269 C1243 0.929 . S
H1270 C1244 0.930 . S
H1271 C1245 0.931 . S
H1272 C1252 0.932 . S
H1273 C1253 0.930 . S
H1274 C1254 0.929 . S
H1275 C1256 0.930 . S
H1276 C1258 0.932 . S
H1277 C1259 0.929 . S
H1278 C1260 0.928 . S
H1279 C1262 0.932 . S
H1280 C1288 0.930 . S
H1281 C1291 0.930 . S
H1282 C1293 0.930 . S
H1283 C1294 0.970 . S
H1284 C1294 0.970 . S
H1285 C1296 0.930 . S
H1286 C1298 0.930 . S
H1287 C1300 0.930 . S
C1288 H1280 0.930 . S
C1288 C1289 1.382 . S
C1288 C1290 1.426 . S
C1289 C1288 1.382 . S
C1289 C1293 1.389 . S
C1290 C1288 1.426 . S
C1290 C1291 1.375 . S
C1290 C1294 1.532 1_556 S
C1291 H1281 0.930 . S
C1291 C1290 1.375 . S
C1291 C1292 1.416 . S
C1292 C1291 1.416 . S
C1292 C1293 1.371 . S
C1293 H1282 0.930 . S
C1293 C1289 1.389 . S
C1293 C1292 1.371 . S
C1294 H1283 0.970 . S
C1294 H1284 0.970 . S
C1294 C1290 1.532 1_554 S
C1294 C1295 1.499 . S
C1295 C1294 1.499 . S
C1295 C1296 1.370 . S
C1295 C1300 1.415 . S
C1296 H1285 0.930 . S
C1296 C1295 1.370 . S
C1296 C1297 1.407 . S
C1297 C1296 1.407 . S
C1297 C1298 1.365 . S
C1298 H1286 0.930 . S
C1298 C1297 1.365 . S
C1298 C1299 1.393 . S
C1299 C1298 1.393 . S
C1299 C1300 1.387 . S
C1300 H1287 0.930 . S
C1300 C1295 1.415 . S
C1300 C1299 1.387 . S
H1301 C1309 0.930 . S
H1302 C1312 0.930 . S
H1303 C1314 0.930 . S
H1304 C1315 0.970 . S
H1305 C1315 0.970 . S
H1306 C1317 0.930 . S
H1307 C1319 0.930 . S
H1308 C1321 0.930 . S
C1309 H1301 0.930 . S
C1309 C1310 1.382 . S
C1309 C1311 1.426 . S
C1310 C1309 1.382 . S
C1310 C1314 1.389 . S
C1311 C1309 1.426 . S
C1311 C1312 1.375 . S
C1311 C1315 1.532 . S
C1312 H1302 0.930 . S
C1312 C1311 1.375 . S
C1312 C1313 1.416 . S
C1313 C1312 1.416 . S
C1313 C1314 1.371 . S
C1314 H1303 0.930 . S
C1314 C1310 1.389 . S
C1314 C1313 1.371 . S
C1315 H1304 0.970 . S
C1315 H1305 0.970 . S
C1315 C1311 1.532 . S
C1315 C1316 1.499 1_554 S
C1316 C1315 1.499 1_556 S
C1316 C1317 1.370 . S
C1316 C1321 1.415 . S
C1317 H1306 0.930 . S
C1317 C1316 1.370 . S
C1317 C1318 1.407 . S
C1318 C1317 1.407 . S
C1318 C1319 1.365 . S
C1319 H1307 0.930 . S
C1319 C1318 1.365 . S
C1319 C1320 1.393 . S
C1320 C1319 1.393 . S
C1320 C1321 1.387 . S
C1321 H1308 0.930 . S
C1321 C1316 1.415 . S
C1321 C1320 1.387 . S
H1322 C1330 0.930 . S
H1323 C1333 0.930 . S
H1324 C1335 0.930 . S
H1325 C1336 0.970 . S
H1326 C1336 0.970 . S
H1327 C1338 0.930 . S
H1328 C1340 0.930 . S
H1329 C1342 0.930 . S
C1330 H1322 0.930 . S
C1330 C1331 1.382 . S
C1330 C1332 1.426 . S
C1331 C1330 1.382 . S
C1331 C1335 1.389 . S
C1332 C1330 1.426 . S
C1332 C1333 1.375 . S
C1332 C1336 1.532 . S
C1333 H1323 0.930 . S
C1333 C1332 1.375 . S
C1333 C1334 1.416 . S
C1334 C1333 1.416 . S
C1334 C1335 1.371 . S
C1335 H1324 0.930 . S
C1335 C1331 1.389 . S
C1335 C1334 1.371 . S
C1336 H1325 0.970 . S
C1336 H1326 0.970 . S
C1336 C1332 1.532 . S
C1336 C1337 1.499 1_554 S
C1337 C1336 1.499 1_556 S
C1337 C1338 1.370 . S
C1337 C1342 1.415 . S
C1338 H1327 0.930 . S
C1338 C1337 1.370 . S
C1338 C1339 1.407 . S
C1339 C1338 1.407 . S
C1339 C1340 1.365 . S
C1340 H1328 0.930 . S
C1340 C1339 1.365 . S
C1340 C1341 1.393 . S
C1341 C1340 1.393 . S
C1341 C1342 1.387 . S
C1342 H1329 0.930 . S
C1342 C1337 1.415 . S
C1342 C1341 1.387 . S
H1343 C1351 0.930 . S
H1344 C1354 0.930 . S
H1345 C1356 0.930 . S
H1346 C1357 0.970 . S
H1347 C1357 0.970 . S
H1348 C1359 0.930 . S
H1349 C1361 0.930 . S
H1350 C1363 0.930 . S
C1351 H1343 0.930 . S
C1351 C1352 1.382 . S
C1351 C1353 1.426 . S
C1352 C1351 1.382 . S
C1352 C1356 1.389 . S
C1353 C1351 1.426 . S
C1353 C1354 1.375 . S
C1353 C1357 1.532 . S
C1354 H1344 0.930 . S
C1354 C1353 1.375 . S
C1354 C1355 1.416 . S
C1355 C1354 1.416 . S
C1355 C1356 1.371 . S
C1356 H1345 0.930 . S
C1356 C1352 1.389 . S
C1356 C1355 1.371 . S
C1357 H1346 0.970 . S
C1357 H1347 0.970 . S
C1357 C1353 1.532 . S
C1357 C1358 1.499 1_554 S
C1358 C1357 1.499 1_556 S
C1358 C1359 1.370 . S
C1358 C1363 1.415 . S
C1359 H1348 0.930 . S
C1359 C1358 1.370 . S
C1359 C1360 1.407 . S
C1360 C1359 1.407 . S
C1360 C1361 1.365 . S
C1361 H1349 0.930 . S
C1361 C1360 1.365 . S
C1361 C1362 1.393 . S
C1362 C1361 1.393 . S
C1362 C1363 1.387 . S
C1363 H1350 0.930 . S
C1363 C1358 1.415 . S
C1363 C1362 1.387 . S
H1364 C1372 0.930 . S
H1365 C1375 0.930 . S
H1366 C1377 0.930 . S
H1367 C1378 0.970 . S
H1368 C1378 0.970 . S
H1369 C1380 0.930 . S
H1370 C1382 0.930 . S
H1371 C1384 0.930 . S
C1372 H1364 0.930 . S
C1372 C1373 1.382 . S
C1372 C1374 1.426 . S
C1373 C1372 1.382 . S
C1373 C1377 1.389 . S
C1374 C1372 1.426 . S
C1374 C1375 1.375 . S
C1374 C1378 1.532 . S
C1375 H1365 0.930 . S
C1375 C1374 1.375 . S
C1375 C1376 1.416 . S
C1376 C1375 1.416 . S
C1376 C1377 1.371 . S
C1377 H1366 0.930 . S
C1377 C1373 1.389 . S
C1377 C1376 1.371 . S
C1378 H1367 0.970 . S
C1378 H1368 0.970 . S
C1378 C1374 1.532 . S
C1378 C1379 1.499 1_455 S
C1379 C1378 1.499 1_655 S
C1379 C1380 1.370 . S
C1379 C1384 1.415 . S
C1380 H1369 0.930 . S
C1380 C1379 1.370 . S
C1380 C1381 1.407 . S
C1381 C1380 1.407 . S
C1381 C1382 1.365 . S
C1382 H1370 0.930 . S
C1382 C1381 1.365 . S
C1382 C1383 1.393 . S
C1383 C1382 1.393 . S
C1383 C1384 1.387 . S
C1384 H1371 0.930 . S
C1384 C1379 1.415 . S
C1384 C1383 1.387 . S
H1385 C1393 0.930 . S
H1386 C1396 0.930 . S
H1387 C1398 0.930 . S
H1388 C1399 0.970 . S
H1389 C1399 0.970 . S
H1390 C1401 0.930 . S
H1391 C1403 0.930 . S
H1392 C1405 0.930 . S
C1393 H1385 0.930 . S
C1393 C1394 1.382 . S
C1393 C1395 1.426 . S
C1394 C1393 1.382 . S
C1394 C1398 1.389 . S
C1395 C1393 1.426 . S
C1395 C1396 1.375 . S
C1395 C1399 1.566 . S
C1396 H1386 0.930 . S
C1396 C1395 1.375 . S
C1396 C1397 1.416 . S
C1397 C1396 1.416 . S
C1397 C1398 1.371 . S
C1398 H1387 0.930 . S
C1398 C1394 1.389 . S
C1398 C1397 1.371 . S
C1399 H1388 0.970 . S
C1399 H1389 0.970 . S
C1399 C1395 1.566 . S
C1399 C1400 1.466 1_545 S
C1400 C1399 1.466 1_565 S
C1400 C1401 1.370 . S
C1400 C1405 1.415 . S
C1401 H1390 0.930 . S
C1401 C1400 1.370 . S
C1401 C1402 1.407 . S
C1402 C1401 1.407 . S
C1402 C1403 1.365 . S
C1403 H1391 0.930 . S
C1403 C1402 1.365 . S
C1403 C1404 1.393 . S
C1404 C1403 1.393 . S
C1404 C1405 1.387 . S
C1405 H1392 0.930 . S
C1405 C1400 1.415 . S
C1405 C1404 1.387 . S
H1406 C1414 0.930 . S
H1407 C1417 0.930 . S
H1408 C1419 0.930 . S
H1409 C1420 0.970 . S
H1410 C1420 0.970 . S
H1411 C1422 0.930 . S
H1412 C1424 0.930 . S
H1413 C1426 0.930 . S
C1414 H1406 0.930 . S
C1414 C1415 1.382 . S
C1414 C1416 1.426 . S
C1415 C1414 1.382 . S
C1415 C1419 1.389 . S
C1416 C1414 1.426 . S
C1416 C1417 1.375 . S
C1416 C1420 1.493 1_655 S
C1417 H1407 0.930 . S
C1417 C1416 1.375 . S
C1417 C1418 1.416 . S
C1418 C1417 1.416 . S
C1418 C1419 1.371 . S
C1419 H1408 0.930 . S
C1419 C1415 1.389 . S
C1419 C1418 1.371 . S
C1420 H1409 0.970 . S
C1420 H1410 0.970 . S
C1420 C1416 1.493 1_455 S
C1420 C1421 1.539 . S
C1421 C1420 1.539 . S
C1421 C1422 1.370 . S
C1421 C1426 1.415 . S
C1422 H1411 0.930 . S
C1422 C1421 1.370 . S
C1422 C1423 1.407 . S
C1423 C1422 1.407 . S
C1423 C1424 1.365 . S
C1424 H1412 0.930 . S
C1424 C1423 1.365 . S
C1424 C1425 1.393 . S
C1425 C1424 1.393 . S
C1425 C1426 1.387 . S
C1426 H1413 0.930 . S
C1426 C1421 1.415 . S
C1426 C1425 1.387 . S
H1427 C1435 0.930 . S
H1428 C1438 0.930 . S
H1429 C1440 0.930 . S
H1430 C1441 0.970 . S
H1431 C1441 0.970 . S
H1432 C1443 0.930 . S
H1433 C1445 0.930 . S
H1434 C1447 0.930 . S
C1435 H1427 0.930 . S
C1435 C1436 1.382 . S
C1435 C1437 1.426 . S
C1436 C1435 1.382 . S
C1436 C1440 1.389 . S
C1437 C1435 1.426 . S
C1437 C1438 1.375 . S
C1437 C1441 1.532 1_565 S
C1438 H1428 0.930 . S
C1438 C1437 1.375 . S
C1438 C1439 1.416 . S
C1439 C1438 1.416 . S
C1439 C1440 1.371 . S
C1440 H1429 0.930 . S
C1440 C1436 1.389 . S
C1440 C1439 1.371 . S
C1441 H1430 0.970 . S
C1441 H1431 0.970 . S
C1441 C1437 1.532 1_545 S
C1441 C1442 1.499 . S
C1442 C1441 1.499 . S
C1442 C1443 1.370 . S
C1442 C1447 1.415 . S
C1443 H1432 0.930 . S
C1443 C1442 1.370 . S
C1443 C1444 1.407 . S
C1444 C1443 1.407 . S
C1444 C1445 1.365 . S
C1445 H1433 0.930 . S
C1445 C1444 1.365 . S
C1445 C1446 1.393 . S
C1446 C1445 1.393 . S
C1446 C1447 1.387 . S
C1447 H1434 0.930 . S
C1447 C1442 1.415 . S
C1447 C1446 1.387 . S
H1448 C1456 0.930 . S
H1449 C1459 0.930 . S
H1450 C1461 0.930 . S
H1451 C1462 0.970 . S
H1452 C1462 0.970 . S
H1453 C1464 0.930 . S
H1454 C1466 0.930 . S
H1455 C1468 0.930 . S
C1456 H1448 0.930 . S
C1456 C1457 1.382 . S
C1456 C1458 1.426 . S
C1457 C1456 1.382 . S
C1457 C1461 1.389 . S
C1458 C1456 1.426 . S
C1458 C1459 1.375 . S
C1458 C1462 1.532 1_655 S
C1459 H1449 0.930 . S
C1459 C1458 1.375 . S
C1459 C1460 1.416 . S
C1460 C1459 1.416 . S
C1460 C1461 1.371 . S
C1461 H1450 0.930 . S
C1461 C1457 1.389 . S
C1461 C1460 1.371 . S
C1462 H1451 0.970 . S
C1462 H1452 0.970 . S
C1462 C1458 1.532 1_455 S
C1462 C1463 1.499 . S
C1463 C1462 1.499 . S
C1463 C1464 1.370 . S
C1463 C1468 1.415 . S
C1464 H1453 0.930 . S
C1464 C1463 1.370 . S
C1464 C1465 1.407 . S
C1465 C1464 1.407 . S
C1465 C1466 1.365 . S
C1466 H1454 0.930 . S
C1466 C1465 1.365 . S
C1466 C1467 1.393 . S
C1467 C1466 1.393 . S
C1467 C1468 1.387 . S
C1468 H1455 0.930 . S
C1468 C1463 1.415 . S
C1468 C1467 1.387 . S
H1469 C1477 0.930 . S
H1470 C1480 0.930 . S
H1471 C1482 0.930 . S
H1472 C1483 0.970 . S
H1473 C1483 0.970 . S
H1474 C1485 0.930 . S
H1475 C1487 0.930 . S
H1476 C1489 0.930 . S
C1477 H1469 0.930 . S
C1477 C1478 1.382 . S
C1477 C1479 1.426 . S
C1478 C1477 1.382 . S
C1478 C1482 1.389 . S
C1479 C1477 1.426 . S
C1479 C1480 1.375 . S
C1479 C1483 1.532 1_565 S
C1480 H1470 0.930 . S
C1480 C1479 1.375 . S
C1480 C1481 1.416 . S
C1481 C1480 1.416 . S
C1481 C1482 1.371 . S
C1482 H1471 0.930 . S
C1482 C1478 1.389 . S
C1482 C1481 1.371 . S
C1483 H1472 0.970 . S
C1483 H1473 0.970 . S
C1483 C1479 1.532 1_545 S
C1483 C1484 1.499 . S
C1484 C1483 1.499 . S
C1484 C1485 1.370 . S
C1484 C1489 1.415 . S
C1485 H1474 0.930 . S
C1485 C1484 1.370 . S
C1485 C1486 1.407 . S
C1486 C1485 1.407 . S
C1486 C1487 1.365 . S
C1487 H1475 0.930 . S
C1487 C1486 1.365 . S
C1487 C1488 1.393 . S
C1488 C1487 1.393 . S
C1488 C1489 1.387 . S
C1489 H1476 0.930 . S
C1489 C1484 1.415 . S
C1489 C1488 1.387 . S
H1490 C1498 0.930 . S
H1491 C1501 0.930 . S
H1492 C1503 0.930 . S
H1493 C1504 0.970 . S
H1494 C1504 0.970 . S
H1495 C1506 0.930 . S
H1496 C1508 0.930 . S
H1497 C1510 0.930 . S
C1498 H1490 0.930 . S
C1498 C1499 1.382 . S
C1498 C1500 1.426 . S
C1499 C1498 1.382 . S
C1499 C1503 1.389 . S
C1500 C1498 1.426 . S
C1500 C1501 1.375 . S
C1500 C1504 1.532 1_655 S
C1501 H1491 0.930 . S
C1501 C1500 1.375 . S
C1501 C1502 1.416 . S
C1502 C1501 1.416 . S
C1502 C1503 1.371 . S
C1503 H1492 0.930 . S
C1503 C1499 1.389 . S
C1503 C1502 1.371 . S
C1504 H1493 0.970 . S
C1504 H1494 0.970 . S
C1504 C1500 1.532 1_455 S
C1504 C1505 1.499 . S
C1505 C1504 1.499 . S
C1505 C1506 1.370 . S
C1505 C1510 1.415 . S
C1506 H1495 0.930 . S
C1506 C1505 1.370 . S
C1506 C1507 1.407 . S
C1507 C1506 1.407 . S
C1507 C1508 1.365 . S
C1508 H1496 0.930 . S
C1508 C1507 1.365 . S
C1508 C1509 1.393 . S
C1509 C1508 1.393 . S
C1509 C1510 1.387 . S
C1510 H1497 0.930 . S
C1510 C1505 1.415 . S
C1510 C1509 1.387 . S
H1511 C1519 0.930 . S
H1512 C1522 0.930 . S
H1513 C1524 0.930 . S
H1514 C1525 0.970 . S
H1515 C1525 0.970 . S
H1516 C1527 0.930 . S
H1517 C1529 0.930 . S
H1518 C1531 0.930 . S
C1519 H1511 0.930 . S
C1519 C1520 1.382 . S
C1519 C1521 1.426 . S
C1520 C1519 1.382 . S
C1520 C1524 1.389 . S
C1521 C1519 1.426 . S
C1521 C1522 1.375 . S
C1521 C1525 1.532 1_565 S
C1522 H1512 0.930 . S
C1522 C1521 1.375 . S
C1522 C1523 1.416 . S
C1523 C1522 1.416 . S
C1523 C1524 1.371 . S
C1524 H1513 0.930 . S
C1524 C1520 1.389 . S
C1524 C1523 1.371 . S
C1525 H1514 0.970 . S
C1525 H1515 0.970 . S
C1525 C1521 1.532 1_545 S
C1525 C1526 1.499 . S
C1526 C1525 1.499 . S
C1526 C1527 1.370 . S
C1526 C1531 1.415 . S
C1527 H1516 0.930 . S
C1527 C1526 1.370 . S
C1527 C1528 1.407 . S
C1528 C1527 1.407 . S
C1528 C1529 1.365 . S
C1529 H1517 0.930 . S
C1529 C1528 1.365 . S
C1529 C1530 1.393 . S
C1530 C1529 1.393 . S
C1530 C1531 1.387 . S
C1531 H1518 0.930 . S
C1531 C1526 1.415 . S
C1531 C1530 1.387 . S
H1532 C1540 0.930 . S
H1533 C1543 0.930 . S
H1534 C1545 0.930 . S
H1535 C1546 0.970 . S
H1536 C1546 0.970 . S
H1537 C1548 0.930 . S
H1538 C1550 0.930 . S
H1539 C1552 0.930 . S
C1540 H1532 0.930 . S
C1540 C1541 1.382 . S
C1540 C1542 1.426 . S
C1541 C1540 1.382 . S
C1541 C1545 1.389 . S
C1542 C1540 1.426 . S
C1542 C1543 1.375 . S
C1542 C1546 1.532 . S
C1543 H1533 0.930 . S
C1543 C1542 1.375 . S
C1543 C1544 1.416 . S
C1544 C1543 1.416 . S
C1544 C1545 1.371 . S
C1545 H1534 0.930 . S
C1545 C1541 1.389 . S
C1545 C1544 1.371 . S
C1546 H1535 0.970 . S
C1546 H1536 0.970 . S
C1546 C1542 1.532 . S
C1546 C1547 1.499 . S
C1547 C1546 1.499 . S
C1547 C1548 1.370 . S
C1547 C1552 1.415 . S
C1548 H1537 0.930 . S
C1548 C1547 1.370 . S
C1548 C1549 1.407 . S
C1549 C1548 1.407 . S
C1549 C1550 1.365 . S
C1550 H1538 0.930 . S
C1550 C1549 1.365 . S
C1550 C1551 1.393 . S
C1551 C1550 1.393 . S
C1551 C1552 1.387 . S
C1552 H1539 0.930 . S
C1552 C1547 1.415 . S
C1552 C1551 1.387 . S
H1553 C1561 0.930 . S
H1554 C1564 0.930 . S
H1555 C1566 0.930 . S
H1556 C1567 0.970 . S
H1557 C1567 0.970 . S
H1558 C1569 0.930 . S
H1559 C1571 0.930 . S
H1560 C1573 0.930 . S
C1561 H1553 0.930 . S
C1561 C1562 1.382 . S
C1561 C1563 1.426 . S
C1562 C1561 1.382 . S
C1562 C1566 1.389 . S
C1563 C1561 1.426 . S
C1563 C1564 1.375 . S
C1563 C1567 1.532 . S
C1564 H1554 0.930 . S
C1564 C1563 1.375 . S
C1564 C1565 1.416 . S
C1565 C1564 1.416 . S
C1565 C1566 1.371 . S
C1566 H1555 0.930 . S
C1566 C1562 1.389 . S
C1566 C1565 1.371 . S
C1567 H1556 0.970 . S
C1567 H1557 0.970 . S
C1567 C1563 1.532 . S
C1567 C1568 1.499 . S
C1568 C1567 1.499 . S
C1568 C1569 1.370 . S
C1568 C1573 1.415 . S
C1569 H1558 0.930 . S
C1569 C1568 1.370 . S
C1569 C1570 1.407 . S
C1570 C1569 1.407 . S
C1570 C1571 1.365 . S
C1571 H1559 0.930 . S
C1571 C1570 1.365 . S
C1571 C1572 1.393 . S
C1572 C1571 1.393 . S
C1572 C1573 1.387 . S
C1573 H1560 0.930 . S
C1573 C1568 1.415 . S
C1573 C1572 1.387 . S
H1574 C1582 0.930 . S
H1575 C1585 0.930 . S
H1576 C1587 0.930 . S
H1577 C1588 0.970 . S
H1578 C1588 0.970 . S
H1579 C1590 0.930 . S
H1580 C1592 0.930 . S
H1581 C1594 0.930 . S
C1582 H1574 0.930 . S
C1582 C1583 1.382 . S
C1582 C1584 1.426 . S
C1583 C1582 1.382 . S
C1583 C1587 1.389 . S
C1584 C1582 1.426 . S
C1584 C1585 1.375 . S
C1584 C1588 1.532 . S
C1585 H1575 0.930 . S
C1585 C1584 1.375 . S
C1585 C1586 1.416 . S
C1586 C1585 1.416 . S
C1586 C1587 1.371 . S
C1587 H1576 0.930 . S
C1587 C1583 1.389 . S
C1587 C1586 1.371 . S
C1588 H1577 0.970 . S
C1588 H1578 0.970 . S
C1588 C1584 1.532 . S
C1588 C1589 1.499 . S
C1589 C1588 1.499 . S
C1589 C1590 1.370 . S
C1589 C1594 1.415 . S
C1590 H1579 0.930 . S
C1590 C1589 1.370 . S
C1590 C1591 1.407 . S
C1591 C1590 1.407 . S
C1591 C1592 1.365 . S
C1592 H1580 0.930 . S
C1592 C1591 1.365 . S
C1592 C1593 1.393 . S
C1593 C1592 1.393 . S
C1593 C1594 1.387 . S
C1594 H1581 0.930 . S
C1594 C1589 1.415 . S
C1594 C1593 1.387 . S
H1595 C1603 0.930 . S
H1596 C1606 0.930 . S
H1597 C1608 0.930 . S
H1598 C1609 0.970 . S
H1599 C1609 0.970 . S
H1600 C1611 0.930 . S
H1601 C1613 0.930 . S
H1602 C1615 0.930 . S
C1603 H1595 0.930 . S
C1603 C1604 1.382 . S
C1603 C1605 1.426 . S
C1604 C1603 1.382 . S
C1604 C1608 1.389 . S
C1605 C1603 1.426 . S
C1605 C1606 1.375 . S
C1605 C1609 1.532 . S
C1606 H1596 0.930 . S
C1606 C1605 1.375 . S
C1606 C1607 1.416 . S
C1607 C1606 1.416 . S
C1607 C1608 1.371 . S
C1608 H1597 0.930 . S
C1608 C1604 1.389 . S
C1608 C1607 1.371 . S
C1609 H1598 0.970 . S
C1609 H1599 0.970 . S
C1609 C1605 1.532 . S
C1609 C1610 1.499 . S
C1610 C1609 1.499 . S
C1610 C1611 1.370 . S
C1610 C1615 1.415 . S
C1611 H1600 0.930 . S
C1611 C1610 1.370 . S
C1611 C1612 1.407 . S
C1612 C1611 1.407 . S
C1612 C1613 1.365 . S
C1613 H1601 0.930 . S
C1613 C1612 1.365 . S
C1613 C1614 1.393 . S
C1614 C1613 1.393 . S
C1614 C1615 1.387 . S
C1615 H1602 0.930 . S
C1615 C1610 1.415 . S
C1615 C1614 1.387 . S
H1616 C1624 0.930 . S
H1617 C1627 0.930 . S
H1618 C1629 0.930 . S
H1619 C1630 0.970 . S
H1620 C1630 0.970 . S
H1621 C1632 0.930 . S
H1622 C1634 0.930 . S
H1623 C1636 0.930 . S
C1624 H1616 0.930 . S
C1624 C1625 1.382 . S
C1624 C1626 1.426 . S
C1625 C1624 1.382 . S
C1625 C1629 1.389 . S
C1626 C1624 1.426 . S
C1626 C1627 1.375 . S
C1626 C1630 1.532 . S
C1627 H1617 0.930 . S
C1627 C1626 1.375 . S
C1627 C1628 1.416 . S
C1628 C1627 1.416 . S
C1628 C1629 1.371 . S
C1629 H1618 0.930 . S
C1629 C1625 1.389 . S
C1629 C1628 1.371 . S
C1630 H1619 0.970 . S
C1630 H1620 0.970 . S
C1630 C1626 1.532 . S
C1630 C1631 1.499 . S
C1631 C1630 1.499 . S
C1631 C1632 1.370 . S
C1631 C1636 1.415 . S
C1632 H1621 0.930 . S
C1632 C1631 1.370 . S
C1632 C1633 1.407 . S
C1633 C1632 1.407 . S
C1633 C1634 1.365 . S
C1634 H1622 0.930 . S
C1634 C1633 1.365 . S
C1634 C1635 1.393 . S
C1635 C1634 1.393 . S
C1635 C1636 1.387 . S
C1636 H1623 0.930 . S
C1636 C1631 1.415 . S
C1636 C1635 1.387 . S
H1637 C1645 0.930 . S
H1638 C1648 0.930 . S
H1639 C1650 0.930 . S
H1640 C1651 0.970 . S
H1641 C1651 0.970 . S
H1642 C1653 0.930 . S
H1643 C1655 0.930 . S
H1644 C1657 0.930 . S
C1645 H1637 0.930 . S
C1645 C1646 1.382 . S
C1645 C1647 1.426 . S
C1646 C1645 1.382 . S
C1646 C1650 1.389 . S
C1647 C1645 1.426 . S
C1647 C1648 1.375 . S
C1647 C1651 1.532 . S
C1648 H1638 0.930 . S
C1648 C1647 1.375 . S
C1648 C1649 1.416 . S
C1649 C1648 1.416 . S
C1649 C1650 1.371 . S
C1650 H1639 0.930 . S
C1650 C1646 1.389 . S
C1650 C1649 1.371 . S
C1651 H1640 0.970 . S
C1651 H1641 0.970 . S
C1651 C1647 1.532 . S
C1651 C1652 1.499 . S
C1652 C1651 1.499 . S
C1652 C1653 1.370 . S
C1652 C1657 1.415 . S
C1653 H1642 0.930 . S
C1653 C1652 1.370 . S
C1653 C1654 1.407 . S
C1654 C1653 1.407 . S
C1654 C1655 1.365 . S
C1655 H1643 0.930 . S
C1655 C1654 1.365 . S
C1655 C1656 1.393 . S
C1656 C1655 1.393 . S
C1656 C1657 1.387 . S
C1657 H1644 0.930 . S
C1657 C1652 1.415 . S
C1657 C1656 1.387 . S
H1658 C1666 0.930 . S
H1659 C1669 0.930 . S
H1660 C1671 0.930 . S
H1661 C1672 0.970 . S
H1662 C1672 0.970 . S
H1663 C1674 0.930 . S
H1664 C1676 0.930 . S
H1665 C1678 0.930 . S
C1666 H1658 0.930 . S
C1666 C1667 1.382 . S
C1666 C1668 1.426 . S
C1667 C1666 1.382 . S
C1667 C1671 1.389 . S
C1668 C1666 1.426 . S
C1668 C1669 1.375 . S
C1668 C1672 1.532 . S
C1669 H1659 0.930 . S
C1669 C1668 1.375 . S
C1669 C1670 1.416 . S
C1670 C1669 1.416 . S
C1670 C1671 1.371 . S
C1671 H1660 0.930 . S
C1671 C1667 1.389 . S
C1671 C1670 1.371 . S
C1672 H1661 0.970 . S
C1672 H1662 0.970 . S
C1672 C1668 1.532 . S
C1672 C1673 1.499 . S
C1673 C1672 1.499 . S
C1673 C1674 1.370 . S
C1673 C1678 1.415 . S
C1674 H1663 0.930 . S
C1674 C1673 1.370 . S
C1674 C1675 1.407 . S
C1675 C1674 1.407 . S
C1675 C1676 1.365 . S
C1676 H1664 0.930 . S
C1676 C1675 1.365 . S
C1676 C1677 1.393 . S
C1677 C1676 1.393 . S
C1677 C1678 1.387 . S
C1678 H1665 0.930 . S
C1678 C1673 1.415 . S
C1678 C1677 1.387 . S
H1679 C1687 0.930 . S
H1680 C1690 0.930 . S
H1681 C1692 0.930 . S
H1682 C1693 0.970 . S
H1683 C1693 0.970 . S
H1684 C1695 0.930 . S
H1685 C1697 0.930 . S
H1686 C1699 0.930 . S
C1687 H1679 0.930 . S
C1687 C1688 1.382 . S
C1687 C1689 1.426 . S
C1688 C1687 1.382 . S
C1688 C1692 1.389 . S
C1689 C1687 1.426 . S
C1689 C1690 1.375 . S
C1689 C1693 1.532 . S
C1690 H1680 0.930 . S
C1690 C1689 1.375 . S
C1690 C1691 1.416 . S
C1691 C1690 1.416 . S
C1691 C1692 1.371 . S
C1692 H1681 0.930 . S
C1692 C1688 1.389 . S
C1692 C1691 1.371 . S
C1693 H1682 0.970 . S
C1693 H1683 0.970 . S
C1693 C1689 1.532 . S
C1693 C1694 1.499 . S
C1694 C1693 1.499 . S
C1694 C1695 1.370 . S
C1694 C1699 1.415 . S
C1695 H1684 0.930 . S
C1695 C1694 1.370 . S
C1695 C1696 1.407 . S
C1696 C1695 1.407 . S
C1696 C1697 1.365 . S
C1697 H1685 0.930 . S
C1697 C1696 1.365 . S
C1697 C1698 1.393 . S
C1698 C1697 1.393 . S
C1698 C1699 1.387 . S
C1699 H1686 0.930 . S
C1699 C1694 1.415 . S
C1699 C1698 1.387 . S
H1700 C1708 0.930 . S
H1701 C1711 0.930 . S
H1702 C1713 0.930 . S
H1703 C1714 0.970 . S
H1704 C1714 0.970 . S
H1705 C1716 0.930 . S
H1706 C1718 0.930 . S
H1707 C1720 0.930 . S
C1708 H1700 0.930 . S
C1708 C1709 1.382 . S
C1708 C1710 1.426 . S
C1709 C1708 1.382 . S
C1709 C1713 1.389 . S
C1710 C1708 1.426 . S
C1710 C1711 1.375 . S
C1710 C1714 1.532 . S
C1711 H1701 0.930 . S
C1711 C1710 1.375 . S
C1711 C1712 1.416 . S
C1712 C1711 1.416 . S
C1712 C1713 1.371 . S
C1713 H1702 0.930 . S
C1713 C1709 1.389 . S
C1713 C1712 1.371 . S
C1714 H1703 0.970 . S
C1714 H1704 0.970 . S
C1714 C1710 1.532 . S
C1714 C1715 1.499 . S
C1715 C1714 1.499 . S
C1715 C1716 1.370 . S
C1715 C1720 1.415 . S
C1716 H1705 0.930 . S
C1716 C1715 1.370 . S
C1716 C1717 1.407 . S
C1717 C1716 1.407 . S
C1717 C1718 1.365 . S
C1718 H1706 0.930 . S
C1718 C1717 1.365 . S
C1718 C1719 1.393 . S
C1719 C1718 1.393 . S
C1719 C1720 1.387 . S
C1720 H1707 0.930 . S
C1720 C1715 1.415 . S
C1720 C1719 1.387 . S
H1721 C1729 0.930 . S
H1722 C1732 0.930 . S
H1723 C1734 0.930 . S
H1724 C1735 0.970 . S
H1725 C1735 0.970 . S
H1726 C1737 0.930 . S
H1727 C1739 0.930 . S
H1728 C1741 0.930 . S
C1729 H1721 0.930 . S
C1729 C1730 1.382 . S
C1729 C1731 1.426 . S
C1730 C1729 1.382 . S
C1730 C1734 1.389 . S
C1731 C1729 1.426 . S
C1731 C1732 1.375 . S
C1731 C1735 1.532 . S
C1732 H1722 0.930 . S
C1732 C1731 1.375 . S
C1732 C1733 1.416 . S
C1733 C1732 1.416 . S
C1733 C1734 1.371 . S
C1734 H1723 0.930 . S
C1734 C1730 1.389 . S
C1734 C1733 1.371 . S
C1735 H1724 0.970 . S
C1735 H1725 0.970 . S
C1735 C1731 1.532 . S
C1735 C1736 1.499 . S
C1736 C1735 1.499 . S
C1736 C1737 1.370 . S
C1736 C1741 1.415 . S
C1737 H1726 0.930 . S
C1737 C1736 1.370 . S
C1737 C1738 1.407 . S
C1738 C1737 1.407 . S
C1738 C1739 1.365 . S
C1739 H1727 0.930 . S
C1739 C1738 1.365 . S
C1739 C1740 1.393 . S
C1740 C1739 1.393 . S
C1740 C1741 1.387 . S
C1741 H1728 0.930 . S
C1741 C1736 1.415 . S
C1741 C1740 1.387 . S
H1742 C1750 0.930 . S
H1743 C1753 0.930 . S
H1744 C1755 0.930 . S
H1745 C1756 0.970 . S
H1746 C1756 0.970 . S
H1747 C1758 0.930 . S
H1748 C1760 0.930 . S
H1749 C1762 0.930 . S
C1750 H1742 0.930 . S
C1750 C1751 1.382 . S
C1750 C1752 1.426 . S
C1751 C1750 1.382 . S
C1751 C1755 1.389 . S
C1752 C1750 1.426 . S
C1752 C1753 1.375 . S
C1752 C1756 1.532 . S
C1753 H1743 0.930 . S
C1753 C1752 1.375 . S
C1753 C1754 1.416 . S
C1754 C1753 1.416 . S
C1754 C1755 1.371 . S
C1755 H1744 0.930 . S
C1755 C1751 1.389 . S
C1755 C1754 1.371 . S
C1756 H1745 0.970 . S
C1756 H1746 0.970 . S
C1756 C1752 1.532 . S
C1756 C1757 1.499 . S
C1757 C1756 1.499 . S
C1757 C1758 1.370 . S
C1757 C1762 1.415 . S
C1758 H1747 0.930 . S
C1758 C1757 1.370 . S
C1758 C1759 1.407 . S
C1759 C1758 1.407 . S
C1759 C1760 1.365 . S
C1760 H1748 0.930 . S
C1760 C1759 1.365 . S
C1760 C1761 1.393 . S
C1761 C1760 1.393 . S
C1761 C1762 1.387 . S
C1762 H1749 0.930 . S
C1762 C1757 1.415 . S
C1762 C1761 1.387 . S
H1763 C1771 0.930 . S
H1764 C1774 0.930 . S
H1765 C1776 0.930 . S
H1766 C1777 0.970 . S
H1767 C1777 0.970 . S
H1768 C1779 0.930 . S
H1769 C1781 0.930 . S
H1770 C1783 0.930 . S
C1771 H1763 0.930 . S
C1771 C1772 1.382 . S
C1771 C1773 1.426 . S
C1772 C1771 1.382 . S
C1772 C1776 1.389 . S
C1773 C1771 1.426 . S
C1773 C1774 1.375 . S
C1773 C1777 1.532 . S
C1774 H1764 0.930 . S
C1774 C1773 1.375 . S
C1774 C1775 1.416 . S
C1775 C1774 1.416 . S
C1775 C1776 1.371 . S
C1776 H1765 0.930 . S
C1776 C1772 1.389 . S
C1776 C1775 1.371 . S
C1777 H1766 0.970 . S
C1777 H1767 0.970 . S
C1777 C1773 1.532 . S
C1777 C1778 1.499 . S
C1778 C1777 1.499 . S
C1778 C1779 1.370 . S
C1778 C1783 1.415 . S
C1779 H1768 0.930 . S
C1779 C1778 1.370 . S
C1779 C1780 1.407 . S
C1780 C1779 1.407 . S
C1780 C1781 1.365 . S
C1781 H1769 0.930 . S
C1781 C1780 1.365 . S
C1781 C1782 1.393 . S
C1782 C1781 1.393 . S
C1782 C1783 1.387 . S
C1783 H1770 0.930 . S
C1783 C1778 1.415 . S
C1783 C1782 1.387 . S
H1784 C1792 0.929 . S
H1785 C1794 0.930 . S
H1786 C1796 0.930 . S
H1787 C1799 0.929 . S
H1788 C1802 0.930 . S
H1789 C1804 0.960 . S
H1790 C1804 0.960 . S
H1791 C1804 0.960 . S
C1792 H1784 0.929 . S
C1792 C1793 1.377 . S
C1792 C1794 1.384 . S
C1793 C1792 1.377 . S
C1793 C1799 1.390 . S
C1794 H1785 0.930 . S
C1794 C1792 1.384 . S
C1794 C1795 1.372 . S
C1795 C1794 1.372 . S
C1795 C1796 1.400 . S
C1795 C1800 1.490 . S
C1796 H1786 0.930 . S
C1796 C1795 1.400 . S
C1796 C1799 1.386 . S
H1797 C1813 0.930 . S
H1798 C1814 0.931 . S
C1799 H1787 0.929 . S
C1799 C1793 1.390 . S
C1799 C1796 1.386 . S
C1800 C1795 1.490 . S
C1800 C1802 1.395 . S
C1800 C1803 1.403 . S
H1801 C1807 0.930 . S
C1802 H1788 0.930 . S
C1802 C1800 1.395 . S
C1802 C1805 1.403 . S
C1803 C1800 1.403 . S
C1803 C1804 1.524 . S
C1803 C1807 1.400 . S
C1804 H1789 0.960 . S
C1804 H1790 0.960 . S
C1804 H1791 0.960 . S
C1804 C1803 1.524 . S
C1805 C1802 1.403 . S
C1805 C1806 1.392 . S
C1805 C1809 1.495 . S
C1806 C1805 1.392 . S
C1806 C1807 1.385 . S
C1806 C1808 1.478 . S
C1807 H1801 0.930 . S
C1807 C1803 1.400 . S
C1807 C1806 1.385 . S
C1808 C1806 1.478 . S
C1808 C1810 1.381 . S
C1808 C1814 1.383 . S
C1809 C1805 1.495 . S
C1809 H1815 0.959 . S
C1809 H1816 0.961 . S
C1809 H1817 0.960 . S
C1810 C1808 1.381 . S
C1810 C1811 1.394 . S
C1810 H1818 0.930 . S
C1811 C1810 1.394 . S
C1811 C1812 1.383 . S
C1811 H1819 0.929 . S
C1812 C1811 1.383 . S
C1812 C1813 1.377 . S
C1813 H1797 0.930 . S
C1813 C1812 1.377 . S
C1813 C1814 1.379 . S
C1814 H1798 0.931 . S
C1814 C1808 1.383 . S
C1814 C1813 1.379 . S
H1815 C1809 0.959 . S
H1816 C1809 0.961 . S
H1817 C1809 0.960 . S
H1818 C1810 0.930 . S
H1819 C1811 0.929 . S
H1820 C1828 0.929 . S
H1821 C1830 0.930 . S
H1822 C1832 0.930 . S
H1823 C1835 0.929 . S
H1824 C1838 0.930 . S
H1825 C1840 0.960 . S
H1826 C1840 0.960 . S
H1827 C1840 0.960 . S
C1828 H1820 0.929 . S
C1828 C1829 1.377 . S
C1828 C1830 1.384 . S
C1829 C1828 1.377 . S
C1829 C1835 1.390 . S
C1830 H1821 0.930 . S
C1830 C1828 1.384 . S
C1830 C1831 1.372 . S
C1831 C1830 1.372 . S
C1831 C1832 1.400 . S
C1831 C1836 1.490 . S
C1832 H1822 0.930 . S
C1832 C1831 1.400 . S
C1832 C1835 1.386 . S
H1833 C1849 0.930 . S
H1834 C1850 0.931 . S
C1835 H1823 0.929 . S
C1835 C1829 1.390 . S
C1835 C1832 1.386 . S
C1836 C1831 1.490 . S
C1836 C1838 1.395 . S
C1836 C1839 1.403 . S
H1837 C1843 0.930 . S
C1838 H1824 0.930 . S
C1838 C1836 1.395 . S
C1838 C1841 1.403 . S
C1839 C1836 1.403 . S
C1839 C1840 1.524 . S
C1839 C1843 1.400 . S
C1840 H1825 0.960 . S
C1840 H1826 0.960 . S
C1840 H1827 0.960 . S
C1840 C1839 1.524 . S
C1841 C1838 1.403 . S
C1841 C1842 1.392 . S
C1841 C1845 1.495 . S
C1842 C1841 1.392 . S
C1842 C1843 1.385 . S
C1842 C1844 1.478 . S
C1843 H1837 0.930 . S
C1843 C1839 1.400 . S
C1843 C1842 1.385 . S
C1844 C1842 1.478 . S
C1844 C1846 1.381 . S
C1844 C1850 1.383 . S
C1845 C1841 1.495 . S
C1845 H1851 0.959 . S
C1845 H1852 0.961 . S
C1845 H1853 0.960 . S
C1846 C1844 1.381 . S
C1846 C1847 1.394 . S
C1846 H1854 0.930 . S
C1847 C1846 1.394 . S
C1847 C1848 1.383 . S
C1847 H1855 0.929 . S
C1848 C1847 1.383 . S
C1848 C1849 1.377 . S
C1849 H1833 0.930 . S
C1849 C1848 1.377 . S
C1849 C1850 1.379 . S
C1850 H1834 0.931 . S
C1850 C1844 1.383 . S
C1850 C1849 1.379 . S
H1851 C1845 0.959 . S
H1852 C1845 0.961 . S
H1853 C1845 0.960 . S
H1854 C1846 0.930 . S
H1855 C1847 0.929 . S
H1856 C1864 0.929 . S
H1857 C1866 0.930 . S
H1858 C1868 0.930 . S
H1859 C1871 0.929 . S
H1860 C1874 0.930 . S
H1861 C1876 0.960 . S
H1862 C1876 0.960 . S
H1863 C1876 0.960 . S
C1864 H1856 0.929 . S
C1864 C1865 1.377 . S
C1864 C1866 1.384 . S
C1865 C1864 1.377 . S
C1865 C1871 1.390 . S
C1866 H1857 0.930 . S
C1866 C1864 1.384 . S
C1866 C1867 1.372 . S
C1867 C1866 1.372 . S
C1867 C1868 1.400 . S
C1867 C1872 1.490 . S
C1868 H1858 0.930 . S
C1868 C1867 1.400 . S
C1868 C1871 1.386 . S
H1869 C1885 0.930 . S
H1870 C1886 0.931 . S
C1871 H1859 0.929 . S
C1871 C1865 1.390 . S
C1871 C1868 1.386 . S
C1872 C1867 1.490 . S
C1872 C1874 1.395 . S
C1872 C1875 1.403 . S
H1873 C1879 0.930 . S
C1874 H1860 0.930 . S
C1874 C1872 1.395 . S
C1874 C1877 1.403 . S
C1875 C1872 1.403 . S
C1875 C1876 1.524 . S
C1875 C1879 1.400 . S
C1876 H1861 0.960 . S
C1876 H1862 0.960 . S
C1876 H1863 0.960 . S
C1876 C1875 1.524 . S
C1877 C1874 1.403 . S
C1877 C1878 1.392 . S
C1877 C1881 1.495 . S
C1878 C1877 1.392 . S
C1878 C1879 1.385 . S
C1878 C1880 1.478 . S
C1879 H1873 0.930 . S
C1879 C1875 1.400 . S
C1879 C1878 1.385 . S
C1880 C1878 1.478 . S
C1880 C1882 1.381 . S
C1880 C1886 1.383 . S
C1881 C1877 1.495 . S
C1881 H1887 0.959 . S
C1881 H1888 0.961 . S
C1881 H1889 0.960 . S
C1882 C1880 1.381 . S
C1882 C1883 1.394 . S
C1882 H1890 0.930 . S
C1883 C1882 1.394 . S
C1883 C1884 1.383 . S
C1883 H1891 0.929 . S
C1884 C1883 1.383 . S
C1884 C1885 1.377 . S
C1885 H1869 0.930 . S
C1885 C1884 1.377 . S
C1885 C1886 1.379 . S
C1886 H1870 0.931 . S
C1886 C1880 1.383 . S
C1886 C1885 1.379 . S
H1887 C1881 0.959 . S
H1888 C1881 0.961 . S
H1889 C1881 0.960 . S
H1890 C1882 0.930 . S
H1891 C1883 0.929 . S
H1892 C1900 0.929 . S
H1893 C1902 0.930 . S
H1894 C1904 0.930 . S
H1895 C1907 0.929 . S
H1896 C1910 0.930 . S
H1897 C1912 0.960 . S
H1898 C1912 0.960 . S
H1899 C1912 0.960 . S
C1900 H1892 0.929 . S
C1900 C1901 1.377 . S
C1900 C1902 1.384 . S
C1901 C1900 1.377 . S
C1901 C1907 1.390 . S
C1902 H1893 0.930 . S
C1902 C1900 1.384 . S
C1902 C1903 1.372 . S
C1903 C1902 1.372 . S
C1903 C1904 1.400 . S
C1903 C1908 1.490 . S
C1904 H1894 0.930 . S
C1904 C1903 1.400 . S
C1904 C1907 1.386 . S
H1905 C1921 0.930 . S
H1906 C1922 0.931 . S
C1907 H1895 0.929 . S
C1907 C1901 1.390 . S
C1907 C1904 1.386 . S
C1908 C1903 1.490 . S
C1908 C1910 1.395 . S
C1908 C1911 1.403 . S
H1909 C1915 0.930 . S
C1910 H1896 0.930 . S
C1910 C1908 1.395 . S
C1910 C1913 1.403 . S
C1911 C1908 1.403 . S
C1911 C1912 1.524 . S
C1911 C1915 1.400 . S
C1912 H1897 0.960 . S
C1912 H1898 0.960 . S
C1912 H1899 0.960 . S
C1912 C1911 1.524 . S
C1913 C1910 1.403 . S
C1913 C1914 1.392 . S
C1913 C1917 1.495 . S
C1914 C1913 1.392 . S
C1914 C1915 1.385 . S
C1914 C1916 1.478 . S
C1915 H1909 0.930 . S
C1915 C1911 1.400 . S
C1915 C1914 1.385 . S
C1916 C1914 1.478 . S
C1916 C1918 1.381 . S
C1916 C1922 1.383 . S
C1917 C1913 1.495 . S
C1917 H1923 0.959 . S
C1917 H1924 0.961 . S
C1917 H1925 0.960 . S
C1918 C1916 1.381 . S
C1918 C1919 1.394 . S
C1918 H1926 0.930 . S
C1919 C1918 1.394 . S
C1919 C1920 1.383 . S
C1919 H1927 0.929 . S
C1920 C1919 1.383 . S
C1920 C1921 1.377 . S
C1921 H1905 0.930 . S
C1921 C1920 1.377 . S
C1921 C1922 1.379 . S
C1922 H1906 0.931 . S
C1922 C1916 1.383 . S
C1922 C1921 1.379 . S
H1923 C1917 0.959 . S
H1924 C1917 0.961 . S
H1925 C1917 0.960 . S
H1926 C1918 0.930 . S
H1927 C1919 0.929 . S
H1928 C1936 0.929 . S
H1929 C1938 0.930 . S
H1930 C1940 0.930 . S
H1931 C1943 0.929 . S
H1932 C1946 0.930 . S
H1933 C1948 0.960 . S
H1934 C1948 0.960 . S
H1935 C1948 0.960 . S
C1936 H1928 0.929 . S
C1936 C1937 1.377 . S
C1936 C1938 1.384 . S
C1937 C1936 1.377 . S
C1937 C1943 1.390 . S
C1938 H1929 0.930 . S
C1938 C1936 1.384 . S
C1938 C1939 1.372 . S
C1939 C1938 1.372 . S
C1939 C1940 1.400 . S
C1939 C1944 1.490 . S
C1940 H1930 0.930 . S
C1940 C1939 1.400 . S
C1940 C1943 1.386 . S
H1941 C1957 0.930 . S
H1942 C1958 0.931 . S
C1943 H1931 0.929 . S
C1943 C1937 1.390 . S
C1943 C1940 1.386 . S
C1944 C1939 1.490 . S
C1944 C1946 1.395 . S
C1944 C1947 1.403 . S
H1945 C1951 0.930 . S
C1946 H1932 0.930 . S
C1946 C1944 1.395 . S
C1946 C1949 1.403 . S
C1947 C1944 1.403 . S
C1947 C1948 1.524 . S
C1947 C1951 1.400 . S
C1948 H1933 0.960 . S
C1948 H1934 0.960 . S
C1948 H1935 0.960 . S
C1948 C1947 1.524 . S
C1949 C1946 1.403 . S
C1949 C1950 1.392 . S
C1949 C1953 1.495 . S
C1950 C1949 1.392 . S
C1950 C1951 1.385 . S
C1950 C1952 1.478 . S
C1951 H1945 0.930 . S
C1951 C1947 1.400 . S
C1951 C1950 1.385 . S
C1952 C1950 1.478 . S
C1952 C1954 1.381 . S
C1952 C1958 1.383 . S
C1953 C1949 1.495 . S
C1953 H1959 0.959 . S
C1953 H1960 0.961 . S
C1953 H1961 0.960 . S
C1954 C1952 1.381 . S
C1954 C1955 1.394 . S
C1954 H1962 0.930 . S
C1955 C1954 1.394 . S
C1955 C1956 1.383 . S
C1955 H1963 0.929 . S
C1956 C1955 1.383 . S
C1956 C1957 1.377 . S
C1957 H1941 0.930 . S
C1957 C1956 1.377 . S
C1957 C1958 1.379 . S
C1958 H1942 0.931 . S
C1958 C1952 1.383 . S
C1958 C1957 1.379 . S
H1959 C1953 0.959 . S
H1960 C1953 0.961 . S
H1961 C1953 0.960 . S
H1962 C1954 0.930 . S
H1963 C1955 0.929 . S
H1964 C1972 0.929 . S
H1965 C1974 0.930 . S
H1966 C1976 0.930 . S
H1967 C1979 0.929 . S
H1968 C1982 0.930 . S
H1969 C1984 0.960 . S
H1970 C1984 0.960 . S
H1971 C1984 0.960 . S
C1972 H1964 0.929 . S
C1972 C1973 1.377 . S
C1972 C1974 1.384 . S
C1973 C1972 1.377 . S
C1973 C1979 1.390 . S
C1974 H1965 0.930 . S
C1974 C1972 1.384 . S
C1974 C1975 1.372 . S
C1975 C1974 1.372 . S
C1975 C1976 1.400 . S
C1975 C1980 1.490 . S
C1976 H1966 0.930 . S
C1976 C1975 1.400 . S
C1976 C1979 1.386 . S
H1977 C1993 0.930 . S
H1978 C1994 0.931 . S
C1979 H1967 0.929 . S
C1979 C1973 1.390 . S
C1979 C1976 1.386 . S
C1980 C1975 1.490 . S
C1980 C1982 1.395 . S
C1980 C1983 1.403 . S
H1981 C1987 0.930 . S
C1982 H1968 0.930 . S
C1982 C1980 1.395 . S
C1982 C1985 1.403 . S
C1983 C1980 1.403 . S
C1983 C1984 1.524 . S
C1983 C1987 1.400 . S
C1984 H1969 0.960 . S
C1984 H1970 0.960 . S
C1984 H1971 0.960 . S
C1984 C1983 1.524 . S
C1985 C1982 1.403 . S
C1985 C1986 1.392 . S
C1985 C1989 1.495 . S
C1986 C1985 1.392 . S
C1986 C1987 1.385 . S
C1986 C1988 1.478 . S
C1987 H1981 0.930 . S
C1987 C1983 1.400 . S
C1987 C1986 1.385 . S
C1988 C1986 1.478 . S
C1988 C1990 1.381 . S
C1988 C1994 1.383 . S
C1989 C1985 1.495 . S
C1989 H1995 0.959 . S
C1989 H1996 0.961 . S
C1989 H1997 0.960 . S
C1990 C1988 1.381 . S
C1990 C1991 1.394 . S
C1990 H1998 0.930 . S
C1991 C1990 1.394 . S
C1991 C1992 1.383 . S
C1991 H1999 0.929 . S
C1992 C1991 1.383 . S
C1992 C1993 1.377 . S
C1993 H1977 0.930 . S
C1993 C1992 1.377 . S
C1993 C1994 1.379 . S
C1994 H1978 0.931 . S
C1994 C1988 1.383 . S
C1994 C1993 1.379 . S
H1995 C1989 0.959 . S
H1996 C1989 0.961 . S
H1997 C1989 0.960 . S
H1998 C1990 0.930 . S
H1999 C1991 0.929 . S
H2000 C2008 0.929 . S
H2001 C2010 0.930 . S
H2002 C2012 0.930 . S
H2003 C2015 0.929 . S
H2004 C2018 0.930 . S
H2005 C2020 0.960 . S
H2006 C2020 0.960 . S
H2007 C2020 0.960 . S
C2008 H2000 0.929 . S
C2008 C2009 1.377 . S
C2008 C2010 1.384 . S
C2009 C2008 1.377 . S
C2009 C2015 1.390 . S
C2010 H2001 0.930 . S
C2010 C2008 1.384 . S
C2010 C2011 1.372 . S
C2011 C2010 1.372 . S
C2011 C2012 1.400 . S
C2011 C2016 1.490 . S
C2012 H2002 0.930 . S
C2012 C2011 1.400 . S
C2012 C2015 1.386 . S
H2013 C2029 0.930 . S
H2014 C2030 0.931 . S
C2015 H2003 0.929 . S
C2015 C2009 1.390 . S
C2015 C2012 1.386 . S
C2016 C2011 1.490 . S
C2016 C2018 1.395 . S
C2016 C2019 1.403 . S
H2017 C2023 0.930 . S
C2018 H2004 0.930 . S
C2018 C2016 1.395 . S
C2018 C2021 1.403 . S
C2019 C2016 1.403 . S
C2019 C2020 1.524 . S
C2019 C2023 1.400 . S
C2020 H2005 0.960 . S
C2020 H2006 0.960 . S
C2020 H2007 0.960 . S
C2020 C2019 1.524 . S
C2021 C2018 1.403 . S
C2021 C2022 1.392 . S
C2021 C2025 1.495 . S
C2022 C2021 1.392 . S
C2022 C2023 1.385 . S
C2022 C2024 1.478 . S
C2023 H2017 0.930 . S
C2023 C2019 1.400 . S
C2023 C2022 1.385 . S
C2024 C2022 1.478 . S
C2024 C2026 1.381 . S
C2024 C2030 1.383 . S
C2025 C2021 1.495 . S
C2025 H2031 0.959 . S
C2025 H2032 0.961 . S
C2025 H2033 0.960 . S
C2026 C2024 1.381 . S
C2026 C2027 1.394 . S
C2026 H2034 0.930 . S
C2027 C2026 1.394 . S
C2027 C2028 1.383 . S
C2027 H2035 0.929 . S
C2028 C2027 1.383 . S
C2028 C2029 1.377 . S
C2029 H2013 0.930 . S
C2029 C2028 1.377 . S
C2029 C2030 1.379 . S
C2030 H2014 0.931 . S
C2030 C2024 1.383 . S
C2030 C2029 1.379 . S
H2031 C2025 0.959 . S
H2032 C2025 0.961 . S
H2033 C2025 0.960 . S
H2034 C2026 0.930 . S
H2035 C2027 0.929 . S
H2036 C2044 0.929 . S
H2037 C2046 0.930 . S
H2038 C2048 0.930 . S
H2039 C2051 0.929 . S
H2040 C2054 0.930 . S
H2041 C2056 0.960 . S
H2042 C2056 0.960 . S
H2043 C2056 0.960 . S
C2044 H2036 0.929 . S
C2044 C2045 1.377 . S
C2044 C2046 1.384 . S
C2045 C2044 1.377 . S
C2045 C2051 1.390 . S
C2046 H2037 0.930 . S
C2046 C2044 1.384 . S
C2046 C2047 1.372 . S
C2047 C2046 1.372 . S
C2047 C2048 1.400 . S
C2047 C2052 1.490 . S
C2048 H2038 0.930 . S
C2048 C2047 1.400 . S
C2048 C2051 1.386 . S
H2049 C2065 0.930 . S
H2050 C2066 0.931 . S
C2051 H2039 0.929 . S
C2051 C2045 1.390 . S
C2051 C2048 1.386 . S
C2052 C2047 1.490 . S
C2052 C2054 1.395 . S
C2052 C2055 1.403 . S
H2053 C2059 0.930 . S
C2054 H2040 0.930 . S
C2054 C2052 1.395 . S
C2054 C2057 1.403 . S
C2055 C2052 1.403 . S
C2055 C2056 1.524 . S
C2055 C2059 1.400 . S
C2056 H2041 0.960 . S
C2056 H2042 0.960 . S
C2056 H2043 0.960 . S
C2056 C2055 1.524 . S
C2057 C2054 1.403 . S
C2057 C2058 1.392 . S
C2057 C2061 1.495 . S
C2058 C2057 1.392 . S
C2058 C2059 1.385 . S
C2058 C2060 1.478 . S
C2059 H2053 0.930 . S
C2059 C2055 1.400 . S
C2059 C2058 1.385 . S
C2060 C2058 1.478 . S
C2060 C2062 1.381 . S
C2060 C2066 1.383 . S
C2061 C2057 1.495 . S
C2061 H2067 0.959 . S
C2061 H2068 0.961 . S
C2061 H2069 0.960 . S
C2062 C2060 1.381 . S
C2062 C2063 1.394 . S
C2062 H2070 0.930 . S
C2063 C2062 1.394 . S
C2063 C2064 1.383 . S
C2063 H2071 0.929 . S
C2064 C2063 1.383 . S
C2064 C2065 1.377 . S
C2065 H2049 0.930 . S
C2065 C2064 1.377 . S
C2065 C2066 1.379 . S
C2066 H2050 0.931 . S
C2066 C2060 1.383 . S
C2066 C2065 1.379 . S
H2067 C2061 0.959 . S
H2068 C2061 0.961 . S
H2069 C2061 0.960 . S
H2070 C2062 0.930 . S
H2071 C2063 0.929 . S
H2072 C2080 0.929 . S
H2073 C2082 0.930 . S
H2074 C2084 0.930 . S
H2075 C2087 0.929 . S
H2076 C2090 0.930 . S
H2077 C2092 0.960 . S
H2078 C2092 0.960 . S
H2079 C2092 0.960 . S
C2080 H2072 0.929 . S
C2080 C2081 1.377 . S
C2080 C2082 1.384 . S
C2081 C2080 1.377 . S
C2081 C2087 1.390 . S
C2082 H2073 0.930 . S
C2082 C2080 1.384 . S
C2082 C2083 1.372 . S
C2083 C2082 1.372 . S
C2083 C2084 1.400 . S
C2083 C2088 1.490 . S
C2084 H2074 0.930 . S
C2084 C2083 1.400 . S
C2084 C2087 1.386 . S
H2085 C2101 0.930 . S
H2086 C2102 0.931 . S
C2087 H2075 0.929 . S
C2087 C2081 1.390 . S
C2087 C2084 1.386 . S
C2088 C2083 1.490 . S
C2088 C2090 1.395 . S
C2088 C2091 1.403 . S
H2089 C2095 0.930 . S
C2090 H2076 0.930 . S
C2090 C2088 1.395 . S
C2090 C2093 1.403 . S
C2091 C2088 1.403 . S
C2091 C2092 1.524 . S
C2091 C2095 1.400 . S
C2092 H2077 0.960 . S
C2092 H2078 0.960 . S
C2092 H2079 0.960 . S
C2092 C2091 1.524 . S
C2093 C2090 1.403 . S
C2093 C2094 1.392 . S
C2093 C2097 1.495 . S
C2094 C2093 1.392 . S
C2094 C2095 1.385 . S
C2094 C2096 1.478 . S
C2095 H2089 0.930 . S
C2095 C2091 1.400 . S
C2095 C2094 1.385 . S
C2096 C2094 1.478 . S
C2096 C2098 1.381 . S
C2096 C2102 1.383 . S
C2097 C2093 1.495 . S
C2097 H2103 0.959 . S
C2097 H2104 0.961 . S
C2097 H2105 0.960 . S
C2098 C2096 1.381 . S
C2098 C2099 1.394 . S
C2098 H2106 0.930 . S
C2099 C2098 1.394 . S
C2099 C2100 1.383 . S
C2099 H2107 0.929 . S
C2100 C2099 1.383 . S
C2100 C2101 1.377 . S
C2101 H2085 0.930 . S
C2101 C2100 1.377 . S
C2101 C2102 1.379 . S
C2102 H2086 0.931 . S
C2102 C2096 1.383 . S
C2102 C2101 1.379 . S
H2103 C2097 0.959 . S
H2104 C2097 0.961 . S
H2105 C2097 0.960 . S
H2106 C2098 0.930 . S
H2107 C2099 0.929 . S
H2108 C2116 0.929 . S
H2109 C2118 0.930 . S
H2110 C2120 0.930 . S
H2111 C2123 0.929 . S
H2112 C2126 0.930 . S
H2113 C2128 0.960 . S
H2114 C2128 0.960 . S
H2115 C2128 0.960 . S
C2116 H2108 0.929 . S
C2116 C2117 1.377 . S
C2116 C2118 1.384 . S
C2117 C2116 1.377 . S
C2117 C2123 1.390 . S
C2118 H2109 0.930 . S
C2118 C2116 1.384 . S
C2118 C2119 1.372 . S
C2119 C2118 1.372 . S
C2119 C2120 1.400 . S
C2119 C2124 1.490 . S
C2120 H2110 0.930 . S
C2120 C2119 1.400 . S
C2120 C2123 1.386 . S
H2121 C2137 0.930 . S
H2122 C2138 0.931 . S
C2123 H2111 0.929 . S
C2123 C2117 1.390 . S
C2123 C2120 1.386 . S
C2124 C2119 1.490 . S
C2124 C2126 1.395 . S
C2124 C2127 1.403 . S
H2125 C2131 0.930 . S
C2126 H2112 0.930 . S
C2126 C2124 1.395 . S
C2126 C2129 1.403 . S
C2127 C2124 1.403 . S
C2127 C2128 1.524 . S
C2127 C2131 1.400 . S
C2128 H2113 0.960 . S
C2128 H2114 0.960 . S
C2128 H2115 0.960 . S
C2128 C2127 1.524 . S
C2129 C2126 1.403 . S
C2129 C2130 1.392 . S
C2129 C2133 1.495 . S
C2130 C2129 1.392 . S
C2130 C2131 1.385 . S
C2130 C2132 1.478 . S
C2131 H2125 0.930 . S
C2131 C2127 1.400 . S
C2131 C2130 1.385 . S
C2132 C2130 1.478 . S
C2132 C2134 1.381 . S
C2132 C2138 1.383 . S
C2133 C2129 1.495 . S
C2133 H2139 0.959 . S
C2133 H2140 0.961 . S
C2133 H2141 0.960 . S
C2134 C2132 1.381 . S
C2134 C2135 1.394 . S
C2134 H2142 0.930 . S
C2135 C2134 1.394 . S
C2135 C2136 1.383 . S
C2135 H2143 0.929 . S
C2136 C2135 1.383 . S
C2136 C2137 1.377 . S
C2137 H2121 0.930 . S
C2137 C2136 1.377 . S
C2137 C2138 1.379 . S
C2138 H2122 0.931 . S
C2138 C2132 1.383 . S
C2138 C2137 1.379 . S
H2139 C2133 0.959 . S
H2140 C2133 0.961 . S
H2141 C2133 0.960 . S
H2142 C2134 0.930 . S
H2143 C2135 0.929 . S
H2144 C2152 0.929 . S
H2145 C2154 0.930 . S
H2146 C2156 0.930 . S
H2147 C2159 0.929 . S
H2148 C2162 0.930 . S
H2149 C2164 0.960 . S
H2150 C2164 0.960 . S
H2151 C2164 0.960 . S
C2152 H2144 0.929 . S
C2152 C2153 1.377 . S
C2152 C2154 1.384 . S
C2153 C2152 1.377 . S
C2153 C2159 1.390 . S
C2154 H2145 0.930 . S
C2154 C2152 1.384 . S
C2154 C2155 1.372 . S
C2155 C2154 1.372 . S
C2155 C2156 1.400 . S
C2155 C2160 1.490 . S
C2156 H2146 0.930 . S
C2156 C2155 1.400 . S
C2156 C2159 1.386 . S
H2157 C2173 0.930 . S
H2158 C2174 0.931 . S
C2159 H2147 0.929 . S
C2159 C2153 1.390 . S
C2159 C2156 1.386 . S
C2160 C2155 1.490 . S
C2160 C2162 1.395 . S
C2160 C2163 1.403 . S
H2161 C2167 0.930 . S
C2162 H2148 0.930 . S
C2162 C2160 1.395 . S
C2162 C2165 1.403 . S
C2163 C2160 1.403 . S
C2163 C2164 1.524 . S
C2163 C2167 1.400 . S
C2164 H2149 0.960 . S
C2164 H2150 0.960 . S
C2164 H2151 0.960 . S
C2164 C2163 1.524 . S
C2165 C2162 1.403 . S
C2165 C2166 1.392 . S
C2165 C2169 1.495 . S
C2166 C2165 1.392 . S
C2166 C2167 1.385 . S
C2166 C2168 1.478 . S
C2167 H2161 0.930 . S
C2167 C2163 1.400 . S
C2167 C2166 1.385 . S
C2168 C2166 1.478 . S
C2168 C2170 1.381 . S
C2168 C2174 1.383 . S
C2169 C2165 1.495 . S
C2169 H2175 0.959 . S
C2169 H2176 0.961 . S
C2169 H2177 0.960 . S
C2170 C2168 1.381 . S
C2170 C2171 1.394 . S
C2170 H2178 0.930 . S
C2171 C2170 1.394 . S
C2171 C2172 1.383 . S
C2171 H2179 0.929 . S
C2172 C2171 1.383 . S
C2172 C2173 1.377 . S
C2173 H2157 0.930 . S
C2173 C2172 1.377 . S
C2173 C2174 1.379 . S
C2174 H2158 0.931 . S
C2174 C2168 1.383 . S
C2174 C2173 1.379 . S
H2175 C2169 0.959 . S
H2176 C2169 0.961 . S
H2177 C2169 0.960 . S
H2178 C2170 0.930 . S
H2179 C2171 0.929 . S
H2180 C2188 0.929 . S
H2181 C2190 0.930 . S
H2182 C2192 0.930 . S
H2183 C2195 0.929 . S
H2184 C2198 0.930 . S
H2185 C2200 0.960 . S
H2186 C2200 0.960 . S
H2187 C2200 0.960 . S
C2188 H2180 0.929 . S
C2188 C2189 1.377 . S
C2188 C2190 1.384 . S
C2189 C2188 1.377 . S
C2189 C2195 1.390 . S
C2190 H2181 0.930 . S
C2190 C2188 1.384 . S
C2190 C2191 1.372 . S
C2191 C2190 1.372 . S
C2191 C2192 1.400 . S
C2191 C2196 1.490 . S
C2192 H2182 0.930 . S
C2192 C2191 1.400 . S
C2192 C2195 1.386 . S
H2193 C2209 0.930 . S
H2194 C2210 0.931 . S
C2195 H2183 0.929 . S
C2195 C2189 1.390 . S
C2195 C2192 1.386 . S
C2196 C2191 1.490 . S
C2196 C2198 1.395 . S
C2196 C2199 1.403 . S
H2197 C2203 0.930 . S
C2198 H2184 0.930 . S
C2198 C2196 1.395 . S
C2198 C2201 1.403 . S
C2199 C2196 1.403 . S
C2199 C2200 1.524 . S
C2199 C2203 1.400 . S
C2200 H2185 0.960 . S
C2200 H2186 0.960 . S
C2200 H2187 0.960 . S
C2200 C2199 1.524 . S
C2201 C2198 1.403 . S
C2201 C2202 1.392 . S
C2201 C2205 1.495 . S
C2202 C2201 1.392 . S
C2202 C2203 1.385 . S
C2202 C2204 1.478 . S
C2203 H2197 0.930 . S
C2203 C2199 1.400 . S
C2203 C2202 1.385 . S
C2204 C2202 1.478 . S
C2204 C2206 1.381 . S
C2204 C2210 1.383 . S
C2205 C2201 1.495 . S
C2205 H2211 0.959 . S
C2205 H2212 0.961 . S
C2205 H2213 0.960 . S
C2206 C2204 1.381 . S
C2206 C2207 1.394 . S
C2206 H2214 0.930 . S
C2207 C2206 1.394 . S
C2207 C2208 1.383 . S
C2207 H2215 0.929 . S
C2208 C2207 1.383 . S
C2208 C2209 1.377 . S
C2209 H2193 0.930 . S
C2209 C2208 1.377 . S
C2209 C2210 1.379 . S
C2210 H2194 0.931 . S
C2210 C2204 1.383 . S
C2210 C2209 1.379 . S
H2211 C2205 0.959 . S
H2212 C2205 0.961 . S
H2213 C2205 0.960 . S
H2214 C2206 0.930 . S
H2215 C2207 0.929 . S
H2216 C2224 0.929 . S
H2217 C2226 0.930 . S
H2218 C2228 0.930 . S
H2219 C2231 0.929 . S
H2220 C2234 0.930 . S
H2221 C2236 0.960 . S
H2222 C2236 0.960 . S
H2223 C2236 0.960 . S
C2224 H2216 0.929 . S
C2224 C2225 1.377 . S
C2224 C2226 1.384 . S
C2225 C2224 1.377 . S
C2225 C2231 1.390 . S
C2226 H2217 0.930 . S
C2226 C2224 1.384 . S
C2226 C2227 1.372 . S
C2227 C2226 1.372 . S
C2227 C2228 1.400 . S
C2227 C2232 1.490 . S
C2228 H2218 0.930 . S
C2228 C2227 1.400 . S
C2228 C2231 1.386 . S
H2229 C2245 0.930 . S
H2230 C2246 0.931 . S
C2231 H2219 0.929 . S
C2231 C2225 1.390 . S
C2231 C2228 1.386 . S
C2232 C2227 1.490 . S
C2232 C2234 1.395 . S
C2232 C2235 1.403 . S
H2233 C2239 0.930 . S
C2234 H2220 0.930 . S
C2234 C2232 1.395 . S
C2234 C2237 1.403 . S
C2235 C2232 1.403 . S
C2235 C2236 1.524 . S
C2235 C2239 1.400 . S
C2236 H2221 0.960 . S
C2236 H2222 0.960 . S
C2236 H2223 0.960 . S
C2236 C2235 1.524 . S
C2237 C2234 1.403 . S
C2237 C2238 1.392 . S
C2237 C2241 1.495 . S
C2238 C2237 1.392 . S
C2238 C2239 1.385 . S
C2238 C2240 1.478 . S
C2239 H2233 0.930 . S
C2239 C2235 1.400 . S
C2239 C2238 1.385 . S
C2240 C2238 1.478 . S
C2240 C2242 1.381 . S
C2240 C2246 1.383 . S
C2241 C2237 1.495 . S
C2241 H2247 0.959 . S
C2241 H2248 0.961 . S
C2241 H2249 0.960 . S
C2242 C2240 1.381 . S
C2242 C2243 1.394 . S
C2242 H2250 0.930 . S
C2243 C2242 1.394 . S
C2243 C2244 1.383 . S
C2243 H2251 0.929 . S
C2244 C2243 1.383 . S
C2244 C2245 1.377 . S
C2245 H2229 0.930 . S
C2245 C2244 1.377 . S
C2245 C2246 1.379 . S
C2246 H2230 0.931 . S
C2246 C2240 1.383 . S
C2246 C2245 1.379 . S
H2247 C2241 0.959 . S
H2248 C2241 0.961 . S
H2249 C2241 0.960 . S
H2250 C2242 0.930 . S
H2251 C2243 0.929 . S
H2252 C2260 0.929 . S
H2253 C2262 0.930 . S
H2254 C2264 0.930 . S
H2255 C2267 0.929 . S
H2256 C2270 0.930 . S
H2257 C2272 0.960 . S
H2258 C2272 0.960 . S
H2259 C2272 0.960 . S
C2260 H2252 0.929 . S
C2260 C2261 1.377 . S
C2260 C2262 1.384 . S
C2261 C2260 1.377 . S
C2261 C2267 1.390 . S
C2262 H2253 0.930 . S
C2262 C2260 1.384 . S
C2262 C2263 1.372 . S
C2263 C2262 1.372 . S
C2263 C2264 1.400 . S
C2263 C2268 1.490 . S
C2264 H2254 0.930 . S
C2264 C2263 1.400 . S
C2264 C2267 1.386 . S
H2265 C2281 0.930 . S
H2266 C2282 0.931 . S
C2267 H2255 0.929 . S
C2267 C2261 1.390 . S
C2267 C2264 1.386 . S
C2268 C2263 1.490 . S
C2268 C2270 1.395 . S
C2268 C2271 1.403 . S
H2269 C2275 0.930 . S
C2270 H2256 0.930 . S
C2270 C2268 1.395 . S
C2270 C2273 1.403 . S
C2271 C2268 1.403 . S
C2271 C2272 1.524 . S
C2271 C2275 1.400 . S
C2272 H2257 0.960 . S
C2272 H2258 0.960 . S
C2272 H2259 0.960 . S
C2272 C2271 1.524 . S
C2273 C2270 1.403 . S
C2273 C2274 1.392 . S
C2273 C2277 1.495 . S
C2274 C2273 1.392 . S
C2274 C2275 1.385 . S
C2274 C2276 1.478 . S
C2275 H2269 0.930 . S
C2275 C2271 1.400 . S
C2275 C2274 1.385 . S
C2276 C2274 1.478 . S
C2276 C2278 1.381 . S
C2276 C2282 1.383 . S
C2277 C2273 1.495 . S
C2277 H2283 0.959 . S
C2277 H2284 0.961 . S
C2277 H2285 0.960 . S
C2278 C2276 1.381 . S
C2278 C2279 1.394 . S
C2278 H2286 0.930 . S
C2279 C2278 1.394 . S
C2279 C2280 1.383 . S
C2279 H2287 0.929 . S
C2280 C2279 1.383 . S
C2280 C2281 1.377 . S
C2281 H2265 0.930 . S
C2281 C2280 1.377 . S
C2281 C2282 1.379 . S
C2282 H2266 0.931 . S
C2282 C2276 1.383 . S
C2282 C2281 1.379 . S
H2283 C2277 0.959 . S
H2284 C2277 0.961 . S
H2285 C2277 0.960 . S
H2286 C2278 0.930 . S
H2287 C2279 0.929 . S
H2288 C2296 0.929 . S
H2289 C2298 0.930 . S
H2290 C2300 0.930 . S
H2291 C2303 0.929 . S
H2292 C2306 0.930 . S
H2293 C2308 0.960 . S
H2294 C2308 0.960 . S
H2295 C2308 0.960 . S
C2296 H2288 0.929 . S
C2296 C2297 1.377 . S
C2296 C2298 1.384 . S
C2297 C2296 1.377 . S
C2297 C2303 1.390 . S
C2298 H2289 0.930 . S
C2298 C2296 1.384 . S
C2298 C2299 1.372 . S
C2299 C2298 1.372 . S
C2299 C2300 1.400 . S
C2299 C2304 1.490 . S
C2300 H2290 0.930 . S
C2300 C2299 1.400 . S
C2300 C2303 1.386 . S
H2301 C2317 0.930 . S
H2302 C2318 0.931 . S
C2303 H2291 0.929 . S
C2303 C2297 1.390 . S
C2303 C2300 1.386 . S
C2304 C2299 1.490 . S
C2304 C2306 1.395 . S
C2304 C2307 1.403 . S
H2305 C2311 0.930 . S
C2306 H2292 0.930 . S
C2306 C2304 1.395 . S
C2306 C2309 1.403 . S
C2307 C2304 1.403 . S
C2307 C2308 1.524 . S
C2307 C2311 1.400 . S
C2308 H2293 0.960 . S
C2308 H2294 0.960 . S
C2308 H2295 0.960 . S
C2308 C2307 1.524 . S
C2309 C2306 1.403 . S
C2309 C2310 1.392 . S
C2309 C2313 1.495 . S
C2310 C2309 1.392 . S
C2310 C2311 1.385 . S
C2310 C2312 1.478 . S
C2311 H2305 0.930 . S
C2311 C2307 1.400 . S
C2311 C2310 1.385 . S
C2312 C2310 1.478 . S
C2312 C2314 1.381 . S
C2312 C2318 1.383 . S
C2313 C2309 1.495 . S
C2313 H2319 0.959 . S
C2313 H2320 0.961 . S
C2313 H2321 0.960 . S
C2314 C2312 1.381 . S
C2314 C2315 1.394 . S
C2314 H2322 0.930 . S
C2315 C2314 1.394 . S
C2315 C2316 1.383 . S
C2315 H2323 0.929 . S
C2316 C2315 1.383 . S
C2316 C2317 1.377 . S
C2317 H2301 0.930 . S
C2317 C2316 1.377 . S
C2317 C2318 1.379 . S
C2318 H2302 0.931 . S
C2318 C2312 1.383 . S
C2318 C2317 1.379 . S
H2319 C2313 0.959 . S
H2320 C2313 0.961 . S
H2321 C2313 0.960 . S
H2322 C2314 0.930 . S
H2323 C2315 0.929 . S
H2324 C2332 0.929 . S
H2325 C2334 0.930 . S
H2326 C2336 0.930 . S
H2327 C2339 0.929 . S
H2328 C2342 0.930 . S
H2329 C2344 0.960 . S
H2330 C2344 0.960 . S
H2331 C2344 0.960 . S
C2332 H2324 0.929 . S
C2332 C2333 1.377 . S
C2332 C2334 1.384 . S
C2333 C2332 1.377 . S
C2333 C2339 1.390 . S
C2334 H2325 0.930 . S
C2334 C2332 1.384 . S
C2334 C2335 1.372 . S
C2335 C2334 1.372 . S
C2335 C2336 1.400 . S
C2335 C2340 1.490 . S
C2336 H2326 0.930 . S
C2336 C2335 1.400 . S
C2336 C2339 1.386 . S
H2337 C2353 0.930 . S
H2338 C2354 0.931 . S
C2339 H2327 0.929 . S
C2339 C2333 1.390 . S
C2339 C2336 1.386 . S
C2340 C2335 1.490 . S
C2340 C2342 1.395 . S
C2340 C2343 1.403 . S
H2341 C2347 0.930 . S
C2342 H2328 0.930 . S
C2342 C2340 1.395 . S
C2342 C2345 1.403 . S
C2343 C2340 1.403 . S
C2343 C2344 1.524 . S
C2343 C2347 1.400 . S
C2344 H2329 0.960 . S
C2344 H2330 0.960 . S
C2344 H2331 0.960 . S
C2344 C2343 1.524 . S
C2345 C2342 1.403 . S
C2345 C2346 1.392 . S
C2345 C2349 1.495 . S
C2346 C2345 1.392 . S
C2346 C2347 1.385 . S
C2346 C2348 1.478 . S
C2347 H2341 0.930 . S
C2347 C2343 1.400 . S
C2347 C2346 1.385 . S
C2348 C2346 1.478 . S
C2348 C2350 1.381 . S
C2348 C2354 1.383 . S
C2349 C2345 1.495 . S
C2349 H2355 0.959 . S
C2349 H2356 0.961 . S
C2349 H2357 0.960 . S
C2350 C2348 1.381 . S
C2350 C2351 1.394 . S
C2350 H2358 0.930 . S
C2351 C2350 1.394 . S
C2351 C2352 1.383 . S
C2351 H2359 0.929 . S
C2352 C2351 1.383 . S
C2352 C2353 1.377 . S
C2353 H2337 0.930 . S
C2353 C2352 1.377 . S
C2353 C2354 1.379 . S
C2354 H2338 0.931 . S
C2354 C2348 1.383 . S
C2354 C2353 1.379 . S
H2355 C2349 0.959 . S
H2356 C2349 0.961 . S
H2357 C2349 0.960 . S
H2358 C2350 0.930 . S
H2359 C2351 0.929 . S
H2360 C2368 0.929 . S
H2361 C2370 0.930 . S
H2362 C2372 0.930 . S
H2363 C2375 0.929 . S
H2364 C2378 0.930 . S
H2365 C2380 0.960 . S
H2366 C2380 0.960 . S
H2367 C2380 0.960 . S
C2368 H2360 0.929 . S
C2368 C2369 1.377 . S
C2368 C2370 1.384 . S
C2369 C2368 1.377 . S
C2369 C2375 1.390 . S
C2370 H2361 0.930 . S
C2370 C2368 1.384 . S
C2370 C2371 1.372 . S
C2371 C2370 1.372 . S
C2371 C2372 1.400 . S
C2371 C2376 1.490 . S
C2372 H2362 0.930 . S
C2372 C2371 1.400 . S
C2372 C2375 1.386 . S
H2373 C2389 0.930 . S
H2374 C2390 0.931 . S
C2375 H2363 0.929 . S
C2375 C2369 1.390 . S
C2375 C2372 1.386 . S
C2376 C2371 1.490 . S
C2376 C2378 1.395 . S
C2376 C2379 1.403 . S
H2377 C2383 0.930 . S
C2378 H2364 0.930 . S
C2378 C2376 1.395 . S
C2378 C2381 1.403 . S
C2379 C2376 1.403 . S
C2379 C2380 1.524 . S
C2379 C2383 1.400 . S
C2380 H2365 0.960 . S
C2380 H2366 0.960 . S
C2380 H2367 0.960 . S
C2380 C2379 1.524 . S
C2381 C2378 1.403 . S
C2381 C2382 1.392 . S
C2381 C2385 1.495 . S
C2382 C2381 1.392 . S
C2382 C2383 1.385 . S
C2382 C2384 1.478 . S
C2383 H2377 0.930 . S
C2383 C2379 1.400 . S
C2383 C2382 1.385 . S
C2384 C2382 1.478 . S
C2384 C2386 1.381 . S
C2384 C2390 1.383 . S
C2385 C2381 1.495 . S
C2385 H2391 0.959 . S
C2385 H2392 0.961 . S
C2385 H2393 0.960 . S
C2386 C2384 1.381 . S
C2386 C2387 1.394 . S
C2386 H2394 0.930 . S
C2387 C2386 1.394 . S
C2387 C2388 1.383 . S
C2387 H2395 0.929 . S
C2388 C2387 1.383 . S
C2388 C2389 1.377 . S
C2389 H2373 0.930 . S
C2389 C2388 1.377 . S
C2389 C2390 1.379 . S
C2390 H2374 0.931 . S
C2390 C2384 1.383 . S
C2390 C2389 1.379 . S
H2391 C2385 0.959 . S
H2392 C2385 0.961 . S
H2393 C2385 0.960 . S
H2394 C2386 0.930 . S
H2395 C2387 0.929 . S
H2396 C2404 0.929 . S
H2397 C2406 0.930 . S
H2398 C2408 0.930 . S
H2399 C2411 0.929 . S
H2400 C2414 0.930 . S
H2401 C2416 0.960 . S
H2402 C2416 0.960 . S
H2403 C2416 0.960 . S
C2404 H2396 0.929 . S
C2404 C2405 1.377 . S
C2404 C2406 1.384 . S
C2405 C2404 1.377 . S
C2405 C2411 1.390 . S
C2406 H2397 0.930 . S
C2406 C2404 1.384 . S
C2406 C2407 1.372 . S
C2407 C2406 1.372 . S
C2407 C2408 1.400 . S
C2407 C2412 1.490 . S
C2408 H2398 0.930 . S
C2408 C2407 1.400 . S
C2408 C2411 1.386 . S
H2409 C2425 0.930 . S
H2410 C2426 0.931 . S
C2411 H2399 0.929 . S
C2411 C2405 1.390 . S
C2411 C2408 1.386 . S
C2412 C2407 1.490 . S
C2412 C2414 1.395 . S
C2412 C2415 1.403 . S
H2413 C2419 0.930 . S
C2414 H2400 0.930 . S
C2414 C2412 1.395 . S
C2414 C2417 1.403 . S
C2415 C2412 1.403 . S
C2415 C2416 1.524 . S
C2415 C2419 1.400 . S
C2416 H2401 0.960 . S
C2416 H2402 0.960 . S
C2416 H2403 0.960 . S
C2416 C2415 1.524 . S
C2417 C2414 1.403 . S
C2417 C2418 1.392 . S
C2417 C2421 1.495 . S
C2418 C2417 1.392 . S
C2418 C2419 1.385 . S
C2418 C2420 1.478 . S
C2419 H2413 0.930 . S
C2419 C2415 1.400 . S
C2419 C2418 1.385 . S
C2420 C2418 1.478 . S
C2420 C2422 1.381 . S
C2420 C2426 1.383 . S
C2421 C2417 1.495 . S
C2421 H2427 0.959 . S
C2421 H2428 0.961 . S
C2421 H2429 0.960 . S
C2422 C2420 1.381 . S
C2422 C2423 1.394 . S
C2422 H2430 0.930 . S
C2423 C2422 1.394 . S
C2423 C2424 1.383 . S
C2423 H2431 0.929 . S
C2424 C2423 1.383 . S
C2424 C2425 1.377 . S
C2425 H2409 0.930 . S
C2425 C2424 1.377 . S
C2425 C2426 1.379 . S
C2426 H2410 0.931 . S
C2426 C2420 1.383 . S
C2426 C2425 1.379 . S
H2427 C2421 0.959 . S
H2428 C2421 0.961 . S
H2429 C2421 0.960 . S
H2430 C2422 0.930 . S
H2431 C2423 0.929 . S
H2432 C2440 0.929 . S
H2433 C2442 0.930 . S
H2434 C2444 0.930 . S
H2435 C2447 0.929 . S
H2436 C2450 0.930 . S
H2437 C2452 0.960 . S
H2438 C2452 0.960 . S
H2439 C2452 0.960 . S
C2440 H2432 0.929 . S
C2440 C2441 1.377 . S
C2440 C2442 1.384 . S
C2441 C2440 1.377 . S
C2441 C2447 1.390 . S
C2442 H2433 0.930 . S
C2442 C2440 1.384 . S
C2442 C2443 1.372 . S
C2443 C2442 1.372 . S
C2443 C2444 1.400 . S
C2443 C2448 1.490 . S
C2444 H2434 0.930 . S
C2444 C2443 1.400 . S
C2444 C2447 1.386 . S
H2445 C2461 0.930 . S
H2446 C2462 0.931 . S
C2447 H2435 0.929 . S
C2447 C2441 1.390 . S
C2447 C2444 1.386 . S
C2448 C2443 1.490 . S
C2448 C2450 1.395 . S
C2448 C2451 1.403 . S
H2449 C2455 0.930 . S
C2450 H2436 0.930 . S
C2450 C2448 1.395 . S
C2450 C2453 1.403 . S
C2451 C2448 1.403 . S
C2451 C2452 1.524 . S
C2451 C2455 1.400 . S
C2452 H2437 0.960 . S
C2452 H2438 0.960 . S
C2452 H2439 0.960 . S
C2452 C2451 1.524 . S
C2453 C2450 1.403 . S
C2453 C2454 1.392 . S
C2453 C2457 1.495 . S
C2454 C2453 1.392 . S
C2454 C2455 1.385 . S
C2454 C2456 1.478 . S
C2455 H2449 0.930 . S
C2455 C2451 1.400 . S
C2455 C2454 1.385 . S
C2456 C2454 1.478 . S
C2456 C2458 1.381 . S
C2456 C2462 1.383 . S
C2457 C2453 1.495 . S
C2457 H2463 0.959 . S
C2457 H2464 0.961 . S
C2457 H2465 0.960 . S
C2458 C2456 1.381 . S
C2458 C2459 1.394 . S
C2458 H2466 0.930 . S
C2459 C2458 1.394 . S
C2459 C2460 1.383 . S
C2459 H2467 0.929 . S
C2460 C2459 1.383 . S
C2460 C2461 1.377 . S
C2461 H2445 0.930 . S
C2461 C2460 1.377 . S
C2461 C2462 1.379 . S
C2462 H2446 0.931 . S
C2462 C2456 1.383 . S
C2462 C2461 1.379 . S
H2463 C2457 0.959 . S
H2464 C2457 0.961 . S
H2465 C2457 0.960 . S
H2466 C2458 0.930 . S
H2467 C2459 0.929 . S
H2468 C2476 0.929 . S
H2469 C2478 0.930 . S
H2470 C2480 0.930 . S
H2471 C2483 0.929 . S
H2472 C2486 0.930 . S
H2473 C2488 0.960 . S
H2474 C2488 0.960 . S
H2475 C2488 0.960 . S
C2476 H2468 0.929 . S
C2476 C2477 1.377 . S
C2476 C2478 1.384 . S
C2477 C2476 1.377 . S
C2477 C2483 1.390 . S
C2478 H2469 0.930 . S
C2478 C2476 1.384 . S
C2478 C2479 1.372 . S
C2479 C2478 1.372 . S
C2479 C2480 1.400 . S
C2479 C2484 1.490 . S
C2480 H2470 0.930 . S
C2480 C2479 1.400 . S
C2480 C2483 1.386 . S
H2481 C2497 0.930 . S
H2482 C2498 0.931 . S
C2483 H2471 0.929 . S
C2483 C2477 1.390 . S
C2483 C2480 1.386 . S
C2484 C2479 1.490 . S
C2484 C2486 1.395 . S
C2484 C2487 1.403 . S
H2485 C2491 0.930 . S
C2486 H2472 0.930 . S
C2486 C2484 1.395 . S
C2486 C2489 1.403 . S
C2487 C2484 1.403 . S
C2487 C2488 1.524 . S
C2487 C2491 1.400 . S
C2488 H2473 0.960 . S
C2488 H2474 0.960 . S
C2488 H2475 0.960 . S
C2488 C2487 1.524 . S
C2489 C2486 1.403 . S
C2489 C2490 1.392 . S
C2489 C2493 1.495 . S
C2490 C2489 1.392 . S
C2490 C2491 1.385 . S
C2490 C2492 1.478 . S
C2491 H2485 0.930 . S
C2491 C2487 1.400 . S
C2491 C2490 1.385 . S
C2492 C2490 1.478 . S
C2492 C2494 1.381 . S
C2492 C2498 1.383 . S
C2493 C2489 1.495 . S
C2493 H2499 0.959 . S
C2493 H2500 0.961 . S
C2493 H2501 0.960 . S
C2494 C2492 1.381 . S
C2494 C2495 1.394 . S
C2494 H2502 0.930 . S
C2495 C2494 1.394 . S
C2495 C2496 1.383 . S
C2495 H2503 0.929 . S
C2496 C2495 1.383 . S
C2496 C2497 1.377 . S
C2497 H2481 0.930 . S
C2497 C2496 1.377 . S
C2497 C2498 1.379 . S
C2498 H2482 0.931 . S
C2498 C2492 1.383 . S
C2498 C2497 1.379 . S
H2499 C2493 0.959 . S
H2500 C2493 0.961 . S
H2501 C2493 0.960 . S
H2502 C2494 0.930 . S
H2503 C2495 0.929 . S
H2504 C2512 0.929 . S
H2505 C2514 0.930 . S
H2506 C2516 0.930 . S
H2507 C2519 0.929 . S
H2508 C2522 0.930 . S
H2509 C2524 0.960 . S
H2510 C2524 0.960 . S
H2511 C2524 0.960 . S
C2512 H2504 0.929 . S
C2512 C2513 1.377 . S
C2512 C2514 1.384 . S
C2513 C2512 1.377 . S
C2513 C2519 1.390 . S
C2514 H2505 0.930 . S
C2514 C2512 1.384 . S
C2514 C2515 1.372 . S
C2515 C2514 1.372 . S
C2515 C2516 1.400 . S
C2515 C2520 1.490 . S
C2516 H2506 0.930 . S
C2516 C2515 1.400 . S
C2516 C2519 1.386 . S
H2517 C2533 0.930 . S
H2518 C2534 0.931 . S
C2519 H2507 0.929 . S
C2519 C2513 1.390 . S
C2519 C2516 1.386 . S
C2520 C2515 1.490 . S
C2520 C2522 1.395 . S
C2520 C2523 1.403 . S
H2521 C2527 0.930 . S
C2522 H2508 0.930 . S
C2522 C2520 1.395 . S
C2522 C2525 1.403 . S
C2523 C2520 1.403 . S
C2523 C2524 1.524 . S
C2523 C2527 1.400 . S
C2524 H2509 0.960 . S
C2524 H2510 0.960 . S
C2524 H2511 0.960 . S
C2524 C2523 1.524 . S
C2525 C2522 1.403 . S
C2525 C2526 1.392 . S
C2525 C2529 1.495 . S
C2526 C2525 1.392 . S
C2526 C2527 1.385 . S
C2526 C2528 1.478 . S
C2527 H2521 0.930 . S
C2527 C2523 1.400 . S
C2527 C2526 1.385 . S
C2528 C2526 1.478 . S
C2528 C2530 1.381 . S
C2528 C2534 1.383 . S
C2529 C2525 1.495 . S
C2529 H2535 0.959 . S
C2529 H2536 0.961 . S
C2529 H2537 0.960 . S
C2530 C2528 1.381 . S
C2530 C2531 1.394 . S
C2530 H2538 0.930 . S
C2531 C2530 1.394 . S
C2531 C2532 1.383 . S
C2531 H2539 0.929 . S
C2532 C2531 1.383 . S
C2532 C2533 1.377 . S
C2533 H2517 0.930 . S
C2533 C2532 1.377 . S
C2533 C2534 1.379 . S
C2534 H2518 0.931 . S
C2534 C2528 1.383 . S
C2534 C2533 1.379 . S
H2535 C2529 0.959 . S
H2536 C2529 0.961 . S
H2537 C2529 0.960 . S
H2538 C2530 0.930 . S
H2539 C2531 0.929 . S
H2540 C2548 0.929 . S
H2541 C2550 0.930 . S
H2542 C2552 0.930 . S
H2543 C2555 0.929 . S
H2544 C2558 0.930 . S
H2545 C2560 0.960 . S
H2546 C2560 0.960 . S
H2547 C2560 0.960 . S
C2548 H2540 0.929 . S
C2548 C2549 1.377 . S
C2548 C2550 1.384 . S
C2549 C2548 1.377 . S
C2549 C2555 1.390 . S
C2550 H2541 0.930 . S
C2550 C2548 1.384 . S
C2550 C2551 1.372 . S
C2551 C2550 1.372 . S
C2551 C2552 1.400 . S
C2551 C2556 1.490 . S
C2552 H2542 0.930 . S
C2552 C2551 1.400 . S
C2552 C2555 1.386 . S
H2553 C2569 0.930 . S
H2554 C2570 0.931 . S
C2555 H2543 0.929 . S
C2555 C2549 1.390 . S
C2555 C2552 1.386 . S
C2556 C2551 1.490 . S
C2556 C2558 1.395 . S
C2556 C2559 1.403 . S
H2557 C2563 0.930 . S
C2558 H2544 0.930 . S
C2558 C2556 1.395 . S
C2558 C2561 1.403 . S
C2559 C2556 1.403 . S
C2559 C2560 1.524 . S
C2559 C2563 1.400 . S
C2560 H2545 0.960 . S
C2560 H2546 0.960 . S
C2560 H2547 0.960 . S
C2560 C2559 1.524 . S
C2561 C2558 1.403 . S
C2561 C2562 1.392 . S
C2561 C2565 1.495 . S
C2562 C2561 1.392 . S
C2562 C2563 1.385 . S
C2562 C2564 1.478 . S
C2563 H2557 0.930 . S
C2563 C2559 1.400 . S
C2563 C2562 1.385 . S
C2564 C2562 1.478 . S
C2564 C2566 1.381 . S
C2564 C2570 1.383 . S
C2565 C2561 1.495 . S
C2565 H2571 0.959 . S
C2565 H2572 0.961 . S
C2565 H2573 0.960 . S
C2566 C2564 1.381 . S
C2566 C2567 1.394 . S
C2566 H2574 0.930 . S
C2567 C2566 1.394 . S
C2567 C2568 1.383 . S
C2567 H2575 0.929 . S
C2568 C2567 1.383 . S
C2568 C2569 1.377 . S
C2569 H2553 0.930 . S
C2569 C2568 1.377 . S
C2569 C2570 1.379 . S
C2570 H2554 0.931 . S
C2570 C2564 1.383 . S
C2570 C2569 1.379 . S
H2571 C2565 0.959 . S
H2572 C2565 0.961 . S
H2573 C2565 0.960 . S
H2574 C2566 0.930 . S
H2575 C2567 0.929 . S
H2576 C2584 0.929 . S
H2577 C2586 0.930 . S
H2578 C2588 0.930 . S
H2579 C2591 0.929 . S
H2580 C2594 0.930 . S
H2581 C2596 0.960 . S
H2582 C2596 0.960 . S
H2583 C2596 0.960 . S
C2584 H2576 0.929 . S
C2584 C2585 1.377 . S
C2584 C2586 1.384 . S
C2585 C2584 1.377 . S
C2585 C2591 1.390 . S
C2586 H2577 0.930 . S
C2586 C2584 1.384 . S
C2586 C2587 1.372 . S
C2587 C2586 1.372 . S
C2587 C2588 1.400 . S
C2587 C2592 1.490 . S
C2588 H2578 0.930 . S
C2588 C2587 1.400 . S
C2588 C2591 1.386 . S
H2589 C2605 0.930 . S
H2590 C2606 0.931 . S
C2591 H2579 0.929 . S
C2591 C2585 1.390 . S
C2591 C2588 1.386 . S
C2592 C2587 1.490 . S
C2592 C2594 1.395 . S
C2592 C2595 1.403 . S
H2593 C2599 0.930 . S
C2594 H2580 0.930 . S
C2594 C2592 1.395 . S
C2594 C2597 1.403 . S
C2595 C2592 1.403 . S
C2595 C2596 1.524 . S
C2595 C2599 1.400 . S
C2596 H2581 0.960 . S
C2596 H2582 0.960 . S
C2596 H2583 0.960 . S
C2596 C2595 1.524 . S
C2597 C2594 1.403 . S
C2597 C2598 1.392 . S
C2597 C2601 1.495 . S
C2598 C2597 1.392 . S
C2598 C2599 1.385 . S
C2598 C2600 1.478 . S
C2599 H2593 0.930 . S
C2599 C2595 1.400 . S
C2599 C2598 1.385 . S
C2600 C2598 1.478 . S
C2600 C2602 1.381 . S
C2600 C2606 1.383 . S
C2601 C2597 1.495 . S
C2601 H2607 0.959 . S
C2601 H2608 0.961 . S
C2601 H2609 0.960 . S
C2602 C2600 1.381 . S
C2602 C2603 1.394 . S
C2602 H2610 0.930 . S
C2603 C2602 1.394 . S
C2603 C2604 1.383 . S
C2603 H2611 0.929 . S
C2604 C2603 1.383 . S
C2604 C2605 1.377 . S
C2605 H2589 0.930 . S
C2605 C2604 1.377 . S
C2605 C2606 1.379 . S
C2606 H2590 0.931 . S
C2606 C2600 1.383 . S
C2606 C2605 1.379 . S
H2607 C2601 0.959 . S
H2608 C2601 0.961 . S
H2609 C2601 0.960 . S
H2610 C2602 0.930 . S
H2611 C2603 0.929 . S
H2612 C2620 0.929 . S
H2613 C2622 0.930 . S
H2614 C2624 0.930 . S
H2615 C2627 0.929 . S
H2616 C2630 0.930 . S
H2617 C2632 0.960 . S
H2618 C2632 0.960 . S
H2619 C2632 0.960 . S
C2620 H2612 0.929 . S
C2620 C2621 1.377 . S
C2620 C2622 1.384 . S
C2621 C2620 1.377 . S
C2621 C2627 1.390 . S
C2622 H2613 0.930 . S
C2622 C2620 1.384 . S
C2622 C2623 1.372 . S
C2623 C2622 1.372 . S
C2623 C2624 1.400 . S
C2623 C2628 1.490 . S
C2624 H2614 0.930 . S
C2624 C2623 1.400 . S
C2624 C2627 1.386 . S
H2625 C2641 0.930 . S
H2626 C2642 0.931 . S
C2627 H2615 0.929 . S
C2627 C2621 1.390 . S
C2627 C2624 1.386 . S
C2628 C2623 1.490 . S
C2628 C2630 1.395 . S
C2628 C2631 1.403 . S
H2629 C2635 0.930 . S
C2630 H2616 0.930 . S
C2630 C2628 1.395 . S
C2630 C2633 1.403 . S
C2631 C2628 1.403 . S
C2631 C2632 1.524 . S
C2631 C2635 1.400 . S
C2632 H2617 0.960 . S
C2632 H2618 0.960 . S
C2632 H2619 0.960 . S
C2632 C2631 1.524 . S
C2633 C2630 1.403 . S
C2633 C2634 1.392 . S
C2633 C2637 1.495 . S
C2634 C2633 1.392 . S
C2634 C2635 1.385 . S
C2634 C2636 1.478 . S
C2635 H2629 0.930 . S
C2635 C2631 1.400 . S
C2635 C2634 1.385 . S
C2636 C2634 1.478 . S
C2636 C2638 1.381 . S
C2636 C2642 1.383 . S
C2637 C2633 1.495 . S
C2637 H2643 0.959 . S
C2637 H2644 0.961 . S
C2637 H2645 0.960 . S
C2638 C2636 1.381 . S
C2638 C2639 1.394 . S
C2638 H2646 0.930 . S
C2639 C2638 1.394 . S
C2639 C2640 1.383 . S
C2639 H2647 0.929 . S
C2640 C2639 1.383 . S
C2640 C2641 1.377 . S
C2641 H2625 0.930 . S
C2641 C2640 1.377 . S
C2641 C2642 1.379 . S
C2642 H2626 0.931 . S
C2642 C2636 1.383 . S
C2642 C2641 1.379 . S
H2643 C2637 0.959 . S
H2644 C2637 0.961 . S
H2645 C2637 0.960 . S
H2646 C2638 0.930 . S
H2647 C2639 0.929 . S
H2648 C2656 0.929 . S
H2649 C2658 0.930 . S
H2650 C2660 0.930 . S
H2651 C2663 0.929 . S
H2652 C2666 0.930 . S
H2653 C2668 0.960 . S
H2654 C2668 0.960 . S
H2655 C2668 0.960 . S
C2656 H2648 0.929 . S
C2656 C2657 1.377 . S
C2656 C2658 1.384 . S
C2657 C2656 1.377 . S
C2657 C2663 1.390 . S
C2658 H2649 0.930 . S
C2658 C2656 1.384 . S
C2658 C2659 1.372 . S
C2659 C2658 1.372 . S
C2659 C2660 1.400 . S
C2659 C2664 1.490 . S
C2660 H2650 0.930 . S
C2660 C2659 1.400 . S
C2660 C2663 1.386 . S
H2661 C2677 0.930 . S
H2662 C2678 0.931 . S
C2663 H2651 0.929 . S
C2663 C2657 1.390 . S
C2663 C2660 1.386 . S
C2664 C2659 1.490 . S
C2664 C2666 1.395 . S
C2664 C2667 1.403 . S
H2665 C2671 0.930 . S
C2666 H2652 0.930 . S
C2666 C2664 1.395 . S
C2666 C2669 1.403 . S
C2667 C2664 1.403 . S
C2667 C2668 1.524 . S
C2667 C2671 1.400 . S
C2668 H2653 0.960 . S
C2668 H2654 0.960 . S
C2668 H2655 0.960 . S
C2668 C2667 1.524 . S
C2669 C2666 1.403 . S
C2669 C2670 1.392 . S
C2669 C2673 1.495 . S
C2670 C2669 1.392 . S
C2670 C2671 1.385 . S
C2670 C2672 1.478 . S
C2671 H2665 0.930 . S
C2671 C2667 1.400 . S
C2671 C2670 1.385 . S
C2672 C2670 1.478 . S
C2672 C2674 1.381 . S
C2672 C2678 1.383 . S
C2673 C2669 1.495 . S
C2673 H2679 0.959 . S
C2673 H2680 0.961 . S
C2673 H2681 0.960 . S
C2674 C2672 1.381 . S
C2674 C2675 1.394 . S
C2674 H2682 0.930 . S
C2675 C2674 1.394 . S
C2675 C2676 1.383 . S
C2675 H2683 0.929 . S
C2676 C2675 1.383 . S
C2676 C2677 1.377 . S
C2677 H2661 0.930 . S
C2677 C2676 1.377 . S
C2677 C2678 1.379 . S
C2678 H2662 0.931 . S
C2678 C2672 1.383 . S
C2678 C2677 1.379 . S
H2679 C2673 0.959 . S
H2680 C2673 0.961 . S
H2681 C2673 0.960 . S
H2682 C2674 0.930 . S
H2683 C2675 0.929 . S
H2684 C2692 0.929 . S
H2685 C2694 0.930 . S
H2686 C2696 0.930 . S
H2687 C2699 0.929 . S
H2688 C2702 0.930 . S
H2689 C2704 0.960 . S
H2690 C2704 0.960 . S
H2691 C2704 0.960 . S
C2692 H2684 0.929 . S
C2692 C2693 1.377 . S
C2692 C2694 1.384 . S
C2693 C2692 1.377 . S
C2693 C2699 1.390 . S
C2694 H2685 0.930 . S
C2694 C2692 1.384 . S
C2694 C2695 1.372 . S
C2695 C2694 1.372 . S
C2695 C2696 1.400 . S
C2695 C2700 1.490 . S
C2696 H2686 0.930 . S
C2696 C2695 1.400 . S
C2696 C2699 1.386 . S
H2697 C2713 0.930 . S
H2698 C2714 0.931 . S
C2699 H2687 0.929 . S
C2699 C2693 1.390 . S
C2699 C2696 1.386 . S
C2700 C2695 1.490 . S
C2700 C2702 1.395 . S
C2700 C2703 1.403 . S
H2701 C2707 0.930 . S
C2702 H2688 0.930 . S
C2702 C2700 1.395 . S
C2702 C2705 1.403 . S
C2703 C2700 1.403 . S
C2703 C2704 1.524 . S
C2703 C2707 1.400 . S
C2704 H2689 0.960 . S
C2704 H2690 0.960 . S
C2704 H2691 0.960 . S
C2704 C2703 1.524 . S
C2705 C2702 1.403 . S
C2705 C2706 1.392 . S
C2705 C2709 1.495 . S
C2706 C2705 1.392 . S
C2706 C2707 1.385 . S
C2706 C2708 1.478 . S
C2707 H2701 0.930 . S
C2707 C2703 1.400 . S
C2707 C2706 1.385 . S
C2708 C2706 1.478 . S
C2708 C2710 1.381 . S
C2708 C2714 1.383 . S
C2709 C2705 1.495 . S
C2709 H2715 0.959 . S
C2709 H2716 0.961 . S
C2709 H2717 0.960 . S
C2710 C2708 1.381 . S
C2710 C2711 1.394 . S
C2710 H2718 0.930 . S
C2711 C2710 1.394 . S
C2711 C2712 1.383 . S
C2711 H2719 0.929 . S
C2712 C2711 1.383 . S
C2712 C2713 1.377 . S
C2713 H2697 0.930 . S
C2713 C2712 1.377 . S
C2713 C2714 1.379 . S
C2714 H2698 0.931 . S
C2714 C2708 1.383 . S
C2714 C2713 1.379 . S
H2715 C2709 0.959 . S
H2716 C2709 0.961 . S
H2717 C2709 0.960 . S
H2718 C2710 0.930 . S
H2719 C2711 0.929 . S
H2720 C2728 0.929 . S
H2721 C2730 0.930 . S
H2722 C2732 0.930 . S
H2723 C2735 0.929 . S
H2724 C2738 0.930 . S
H2725 C2740 0.960 . S
H2726 C2740 0.960 . S
H2727 C2740 0.960 . S
C2728 H2720 0.929 . S
C2728 C2729 1.377 . S
C2728 C2730 1.384 . S
C2729 C2728 1.377 . S
C2729 C2735 1.390 . S
C2730 H2721 0.930 . S
C2730 C2728 1.384 . S
C2730 C2731 1.372 . S
C2731 C2730 1.372 . S
C2731 C2732 1.400 . S
C2731 C2736 1.490 . S
C2732 H2722 0.930 . S
C2732 C2731 1.400 . S
C2732 C2735 1.386 . S
H2733 C2749 0.930 . S
H2734 C2750 0.931 . S
C2735 H2723 0.929 . S
C2735 C2729 1.390 . S
C2735 C2732 1.386 . S
C2736 C2731 1.490 . S
C2736 C2738 1.395 . S
C2736 C2739 1.403 . S
H2737 C2743 0.930 . S
C2738 H2724 0.930 . S
C2738 C2736 1.395 . S
C2738 C2741 1.403 . S
C2739 C2736 1.403 . S
C2739 C2740 1.524 . S
C2739 C2743 1.400 . S
C2740 H2725 0.960 . S
C2740 H2726 0.960 . S
C2740 H2727 0.960 . S
C2740 C2739 1.524 . S
C2741 C2738 1.403 . S
C2741 C2742 1.392 . S
C2741 C2745 1.495 . S
C2742 C2741 1.392 . S
C2742 C2743 1.385 . S
C2742 C2744 1.478 . S
C2743 H2737 0.930 . S
C2743 C2739 1.400 . S
C2743 C2742 1.385 . S
C2744 C2742 1.478 . S
C2744 C2746 1.381 . S
C2744 C2750 1.383 . S
C2745 C2741 1.495 . S
C2745 H2751 0.959 . S
C2745 H2752 0.961 . S
C2745 H2753 0.960 . S
C2746 C2744 1.381 . S
C2746 C2747 1.394 . S
C2746 H2754 0.930 . S
C2747 C2746 1.394 . S
C2747 C2748 1.383 . S
C2747 H2755 0.929 . S
C2748 C2747 1.383 . S
C2748 C2749 1.377 . S
C2749 H2733 0.930 . S
C2749 C2748 1.377 . S
C2749 C2750 1.379 . S
C2750 H2734 0.931 . S
C2750 C2744 1.383 . S
C2750 C2749 1.379 . S
H2751 C2745 0.959 . S
H2752 C2745 0.961 . S
H2753 C2745 0.960 . S
H2754 C2746 0.930 . S
H2755 C2747 0.929 . S
H2756 C2764 0.929 . S
H2757 C2766 0.930 . S
H2758 C2768 0.930 . S
H2759 C2771 0.929 . S
H2760 C2774 0.930 . S
H2761 C2776 0.960 . S
H2762 C2776 0.960 . S
H2763 C2776 0.960 . S
C2764 H2756 0.929 . S
C2764 C2765 1.377 . S
C2764 C2766 1.384 . S
C2765 C2764 1.377 . S
C2765 C2771 1.390 . S
C2766 H2757 0.930 . S
C2766 C2764 1.384 . S
C2766 C2767 1.372 . S
C2767 C2766 1.372 . S
C2767 C2768 1.400 . S
C2767 C2772 1.490 . S
C2768 H2758 0.930 . S
C2768 C2767 1.400 . S
C2768 C2771 1.386 . S
H2769 C2785 0.930 . S
H2770 C2786 0.931 . S
C2771 H2759 0.929 . S
C2771 C2765 1.390 . S
C2771 C2768 1.386 . S
C2772 C2767 1.490 . S
C2772 C2774 1.395 . S
C2772 C2775 1.403 . S
H2773 C2779 0.930 . S
C2774 H2760 0.930 . S
C2774 C2772 1.395 . S
C2774 C2777 1.403 . S
C2775 C2772 1.403 . S
C2775 C2776 1.524 . S
C2775 C2779 1.400 . S
C2776 H2761 0.960 . S
C2776 H2762 0.960 . S
C2776 H2763 0.960 . S
C2776 C2775 1.524 . S
C2777 C2774 1.403 . S
C2777 C2778 1.392 . S
C2777 C2781 1.495 . S
C2778 C2777 1.392 . S
C2778 C2779 1.385 . S
C2778 C2780 1.478 . S
C2779 H2773 0.930 . S
C2779 C2775 1.400 . S
C2779 C2778 1.385 . S
C2780 C2778 1.478 . S
C2780 C2782 1.381 . S
C2780 C2786 1.383 . S
C2781 C2777 1.495 . S
C2781 H2787 0.959 . S
C2781 H2788 0.961 . S
C2781 H2789 0.960 . S
C2782 C2780 1.381 . S
C2782 C2783 1.394 . S
C2782 H2790 0.930 . S
C2783 C2782 1.394 . S
C2783 C2784 1.383 . S
C2783 H2791 0.929 . S
C2784 C2783 1.383 . S
C2784 C2785 1.377 . S
C2785 H2769 0.930 . S
C2785 C2784 1.377 . S
C2785 C2786 1.379 . S
C2786 H2770 0.931 . S
C2786 C2780 1.383 . S
C2786 C2785 1.379 . S
H2787 C2781 0.959 . S
H2788 C2781 0.961 . S
H2789 C2781 0.960 . S
H2790 C2782 0.930 . S
H2791 C2783 0.929 . S
H2792 C2800 0.929 . S
H2793 C2802 0.930 . S
H2794 C2804 0.930 . S
H2795 C2807 0.929 . S
H2796 C2810 0.930 . S
H2797 C2812 0.960 . S
H2798 C2812 0.960 . S
H2799 C2812 0.960 . S
C2800 H2792 0.929 . S
C2800 C2801 1.377 . S
C2800 C2802 1.384 . S
C2801 C2800 1.377 . S
C2801 C2807 1.390 . S
C2802 H2793 0.930 . S
C2802 C2800 1.384 . S
C2802 C2803 1.372 . S
C2803 C2802 1.372 . S
C2803 C2804 1.400 . S
C2803 C2808 1.490 . S
C2804 H2794 0.930 . S
C2804 C2803 1.400 . S
C2804 C2807 1.386 . S
H2805 C2821 0.930 . S
H2806 C2822 0.931 . S
C2807 H2795 0.929 . S
C2807 C2801 1.390 . S
C2807 C2804 1.386 . S
C2808 C2803 1.490 . S
C2808 C2810 1.395 . S
C2808 C2811 1.403 . S
H2809 C2815 0.930 . S
C2810 H2796 0.930 . S
C2810 C2808 1.395 . S
C2810 C2813 1.403 . S
C2811 C2808 1.403 . S
C2811 C2812 1.524 . S
C2811 C2815 1.400 . S
C2812 H2797 0.960 . S
C2812 H2798 0.960 . S
C2812 H2799 0.960 . S
C2812 C2811 1.524 . S
C2813 C2810 1.403 . S
C2813 C2814 1.392 . S
C2813 C2817 1.495 . S
C2814 C2813 1.392 . S
C2814 C2815 1.385 . S
C2814 C2816 1.478 . S
C2815 H2809 0.930 . S
C2815 C2811 1.400 . S
C2815 C2814 1.385 . S
C2816 C2814 1.478 . S
C2816 C2818 1.381 . S
C2816 C2822 1.383 . S
C2817 C2813 1.495 . S
C2817 H2823 0.959 . S
C2817 H2824 0.961 . S
C2817 H2825 0.960 . S
C2818 C2816 1.381 . S
C2818 C2819 1.394 . S
C2818 H2826 0.930 . S
C2819 C2818 1.394 . S
C2819 C2820 1.383 . S
C2819 H2827 0.929 . S
C2820 C2819 1.383 . S
C2820 C2821 1.377 . S
C2821 H2805 0.930 . S
C2821 C2820 1.377 . S
C2821 C2822 1.379 . S
C2822 H2806 0.931 . S
C2822 C2816 1.383 . S
C2822 C2821 1.379 . S
H2823 C2817 0.959 . S
H2824 C2817 0.961 . S
H2825 C2817 0.960 . S
H2826 C2818 0.930 . S
H2827 C2819 0.929 . S
H2828 C2836 0.929 . S
H2829 C2838 0.930 . S
H2830 C2840 0.930 . S
H2831 C2843 0.929 . S
H2832 C2846 0.930 . S
H2833 C2848 0.960 . S
H2834 C2848 0.960 . S
H2835 C2848 0.960 . S
C2836 H2828 0.929 . S
C2836 C2837 1.377 . S
C2836 C2838 1.384 . S
C2837 C2836 1.377 . S
C2837 C2843 1.390 . S
C2838 H2829 0.930 . S
C2838 C2836 1.384 . S
C2838 C2839 1.372 . S
C2839 C2838 1.372 . S
C2839 C2840 1.400 . S
C2839 C2844 1.490 . S
C2840 H2830 0.930 . S
C2840 C2839 1.400 . S
C2840 C2843 1.386 . S
H2841 C2857 0.930 . S
H2842 C2858 0.931 . S
C2843 H2831 0.929 . S
C2843 C2837 1.390 . S
C2843 C2840 1.386 . S
C2844 C2839 1.490 . S
C2844 C2846 1.395 . S
C2844 C2847 1.403 . S
H2845 C2851 0.930 . S
C2846 H2832 0.930 . S
C2846 C2844 1.395 . S
C2846 C2849 1.403 . S
C2847 C2844 1.403 . S
C2847 C2848 1.524 . S
C2847 C2851 1.400 . S
C2848 H2833 0.960 . S
C2848 H2834 0.960 . S
C2848 H2835 0.960 . S
C2848 C2847 1.524 . S
C2849 C2846 1.403 . S
C2849 C2850 1.392 . S
C2849 C2853 1.495 . S
C2850 C2849 1.392 . S
C2850 C2851 1.385 . S
C2850 C2852 1.478 . S
C2851 H2845 0.930 . S
C2851 C2847 1.400 . S
C2851 C2850 1.385 . S
C2852 C2850 1.478 . S
C2852 C2854 1.381 . S
C2852 C2858 1.383 . S
C2853 C2849 1.495 . S
C2853 H2859 0.959 . S
C2853 H2860 0.961 . S
C2853 H2861 0.960 . S
C2854 C2852 1.381 . S
C2854 C2855 1.394 . S
C2854 H2862 0.930 . S
C2855 C2854 1.394 . S
C2855 C2856 1.383 . S
C2855 H2863 0.929 . S
C2856 C2855 1.383 . S
C2856 C2857 1.377 . S
C2857 H2841 0.930 . S
C2857 C2856 1.377 . S
C2857 C2858 1.379 . S
C2858 H2842 0.931 . S
C2858 C2852 1.383 . S
C2858 C2857 1.379 . S
H2859 C2853 0.959 . S
H2860 C2853 0.961 . S
H2861 C2853 0.960 . S
H2862 C2854 0.930 . S
H2863 C2855 0.929 . S
H2864 C2872 0.929 . S
H2865 C2874 0.930 . S
H2866 C2876 0.930 . S
H2867 C2879 0.929 . S
H2868 C2882 0.930 . S
H2869 C2884 0.960 . S
H2870 C2884 0.960 . S
H2871 C2884 0.960 . S
C2872 H2864 0.929 . S
C2872 C2873 1.377 . S
C2872 C2874 1.384 . S
C2873 C2872 1.377 . S
C2873 C2879 1.390 . S
C2874 H2865 0.930 . S
C2874 C2872 1.384 . S
C2874 C2875 1.372 . S
C2875 C2874 1.372 . S
C2875 C2876 1.400 . S
C2875 C2880 1.490 . S
C2876 H2866 0.930 . S
C2876 C2875 1.400 . S
C2876 C2879 1.386 . S
H2877 C2893 0.930 . S
H2878 C2894 0.931 . S
C2879 H2867 0.929 . S
C2879 C2873 1.390 . S
C2879 C2876 1.386 . S
C2880 C2875 1.490 . S
C2880 C2882 1.395 . S
C2880 C2883 1.403 . S
H2881 C2887 0.930 . S
C2882 H2868 0.930 . S
C2882 C2880 1.395 . S
C2882 C2885 1.403 . S
C2883 C2880 1.403 . S
C2883 C2884 1.524 . S
C2883 C2887 1.400 . S
C2884 H2869 0.960 . S
C2884 H2870 0.960 . S
C2884 H2871 0.960 . S
C2884 C2883 1.524 . S
C2885 C2882 1.403 . S
C2885 C2886 1.392 . S
C2885 C2889 1.495 . S
C2886 C2885 1.392 . S
C2886 C2887 1.385 . S
C2886 C2888 1.478 . S
C2887 H2881 0.930 . S
C2887 C2883 1.400 . S
C2887 C2886 1.385 . S
C2888 C2886 1.478 . S
C2888 C2890 1.381 . S
C2888 C2894 1.383 . S
C2889 C2885 1.495 . S
C2889 H2895 0.959 . S
C2889 H2896 0.961 . S
C2889 H2897 0.960 . S
C2890 C2888 1.381 . S
C2890 C2891 1.394 . S
C2890 H2898 0.930 . S
C2891 C2890 1.394 . S
C2891 C2892 1.383 . S
C2891 H2899 0.929 . S
C2892 C2891 1.383 . S
C2892 C2893 1.377 . S
C2893 H2877 0.930 . S
C2893 C2892 1.377 . S
C2893 C2894 1.379 . S
C2894 H2878 0.931 . S
C2894 C2888 1.383 . S
C2894 C2893 1.379 . S
H2895 C2889 0.959 . S
H2896 C2889 0.961 . S
H2897 C2889 0.960 . S
H2898 C2890 0.930 . S
H2899 C2891 0.929 . S
H2900 C2908 0.929 . S
H2901 C2910 0.930 . S
H2902 C2912 0.930 . S
H2903 C2915 0.929 . S
H2904 C2918 0.930 . S
H2905 C2920 0.960 . S
H2906 C2920 0.960 . S
H2907 C2920 0.960 . S
C2908 H2900 0.929 . S
C2908 C2909 1.377 . S
C2908 C2910 1.384 . S
C2909 C2908 1.377 . S
C2909 C2915 1.390 . S
C2910 H2901 0.930 . S
C2910 C2908 1.384 . S
C2910 C2911 1.372 . S
C2911 C2910 1.372 . S
C2911 C2912 1.400 . S
C2911 C2916 1.490 . S
C2912 H2902 0.930 . S
C2912 C2911 1.400 . S
C2912 C2915 1.386 . S
H2913 C2929 0.930 . S
H2914 C2930 0.931 . S
C2915 H2903 0.929 . S
C2915 C2909 1.390 . S
C2915 C2912 1.386 . S
C2916 C2911 1.490 . S
C2916 C2918 1.395 . S
C2916 C2919 1.403 . S
H2917 C2923 0.930 . S
C2918 H2904 0.930 . S
C2918 C2916 1.395 . S
C2918 C2921 1.403 . S
C2919 C2916 1.403 . S
C2919 C2920 1.524 . S
C2919 C2923 1.400 . S
C2920 H2905 0.960 . S
C2920 H2906 0.960 . S
C2920 H2907 0.960 . S
C2920 C2919 1.524 . S
C2921 C2918 1.403 . S
C2921 C2922 1.392 . S
C2921 C2925 1.495 . S
C2922 C2921 1.392 . S
C2922 C2923 1.385 . S
C2922 C2924 1.478 . S
C2923 H2917 0.930 . S
C2923 C2919 1.400 . S
C2923 C2922 1.385 . S
C2924 C2922 1.478 . S
C2924 C2926 1.381 . S
C2924 C2930 1.383 . S
C2925 C2921 1.495 . S
C2925 H2931 0.959 . S
C2925 H2932 0.961 . S
C2925 H2933 0.960 . S
C2926 C2924 1.381 . S
C2926 C2927 1.394 . S
C2926 H2934 0.930 . S
C2927 C2926 1.394 . S
C2927 C2928 1.383 . S
C2927 H2935 0.929 . S
C2928 C2927 1.383 . S
C2928 C2929 1.377 . S
C2929 H2913 0.930 . S
C2929 C2928 1.377 . S
C2929 C2930 1.379 . S
C2930 H2914 0.931 . S
C2930 C2924 1.383 . S
C2930 C2929 1.379 . S
H2931 C2925 0.959 . S
H2932 C2925 0.961 . S
H2933 C2925 0.960 . S
H2934 C2926 0.930 . S
H2935 C2927 0.929 . S
H2936 C2944 0.929 . S
H2937 C2946 0.930 . S
H2938 C2948 0.930 . S
H2939 C2951 0.929 . S
H2940 C2954 0.930 . S
H2941 C2956 0.960 . S
H2942 C2956 0.960 . S
H2943 C2956 0.960 . S
C2944 H2936 0.929 . S
C2944 C2945 1.377 . S
C2944 C2946 1.384 . S
C2945 C2944 1.377 . S
C2945 C2951 1.390 . S
C2946 H2937 0.930 . S
C2946 C2944 1.384 . S
C2946 C2947 1.372 . S
C2947 C2946 1.372 . S
C2947 C2948 1.400 . S
C2947 C2952 1.490 . S
C2948 H2938 0.930 . S
C2948 C2947 1.400 . S
C2948 C2951 1.386 . S
H2949 C2965 0.930 . S
H2950 C2966 0.931 . S
C2951 H2939 0.929 . S
C2951 C2945 1.390 . S
C2951 C2948 1.386 . S
C2952 C2947 1.490 . S
C2952 C2954 1.395 . S
C2952 C2955 1.403 . S
H2953 C2959 0.930 . S
C2954 H2940 0.930 . S
C2954 C2952 1.395 . S
C2954 C2957 1.403 . S
C2955 C2952 1.403 . S
C2955 C2956 1.524 . S
C2955 C2959 1.400 . S
C2956 H2941 0.960 . S
C2956 H2942 0.960 . S
C2956 H2943 0.960 . S
C2956 C2955 1.524 . S
C2957 C2954 1.403 . S
C2957 C2958 1.392 . S
C2957 C2961 1.495 . S
C2958 C2957 1.392 . S
C2958 C2959 1.385 . S
C2958 C2960 1.478 . S
C2959 H2953 0.930 . S
C2959 C2955 1.400 . S
C2959 C2958 1.385 . S
C2960 C2958 1.478 . S
C2960 C2962 1.381 . S
C2960 C2966 1.383 . S
C2961 C2957 1.495 . S
C2961 H2967 0.959 . S
C2961 H2968 0.961 . S
C2961 H2969 0.960 . S
C2962 C2960 1.381 . S
C2962 C2963 1.394 . S
C2962 H2970 0.930 . S
C2963 C2962 1.394 . S
C2963 C2964 1.383 . S
C2963 H2971 0.929 . S
C2964 C2963 1.383 . S
C2964 C2965 1.377 . S
C2965 H2949 0.930 . S
C2965 C2964 1.377 . S
C2965 C2966 1.379 . S
C2966 H2950 0.931 . S
C2966 C2960 1.383 . S
C2966 C2965 1.379 . S
H2967 C2961 0.959 . S
H2968 C2961 0.961 . S
H2969 C2961 0.960 . S
H2970 C2962 0.930 . S
H2971 C2963 0.929 . S
H2972 C2980 0.929 . S
H2973 C2982 0.930 . S
H2974 C2984 0.930 . S
H2975 C2987 0.929 . S
H2976 C2990 0.930 . S
H2977 C2992 0.960 . S
H2978 C2992 0.960 . S
H2979 C2992 0.960 . S
C2980 H2972 0.929 . S
C2980 C2981 1.377 . S
C2980 C2982 1.384 . S
C2981 C2980 1.377 . S
C2981 C2987 1.390 . S
C2982 H2973 0.930 . S
C2982 C2980 1.384 . S
C2982 C2983 1.372 . S
C2983 C2982 1.372 . S
C2983 C2984 1.400 . S
C2983 C2988 1.490 . S
C2984 H2974 0.930 . S
C2984 C2983 1.400 . S
C2984 C2987 1.386 . S
H2985 C3001 0.930 . S
H2986 C3002 0.931 . S
C2987 H2975 0.929 . S
C2987 C2981 1.390 . S
C2987 C2984 1.386 . S
C2988 C2983 1.490 . S
C2988 C2990 1.395 . S
C2988 C2991 1.403 . S
H2989 C2995 0.930 . S
C2990 H2976 0.930 . S
C2990 C2988 1.395 . S
C2990 C2993 1.403 . S
C2991 C2988 1.403 . S
C2991 C2992 1.524 . S
C2991 C2995 1.400 . S
C2992 H2977 0.960 . S
C2992 H2978 0.960 . S
C2992 H2979 0.960 . S
C2992 C2991 1.524 . S
C2993 C2990 1.403 . S
C2993 C2994 1.392 . S
C2993 C2997 1.495 . S
C2994 C2993 1.392 . S
C2994 C2995 1.385 . S
C2994 C2996 1.478 . S
C2995 H2989 0.930 . S
C2995 C2991 1.400 . S
C2995 C2994 1.385 . S
C2996 C2994 1.478 . S
C2996 C2998 1.381 . S
C2996 C3002 1.383 . S
C2997 C2993 1.495 . S
C2997 H3003 0.959 . S
C2997 H3004 0.961 . S
C2997 H3005 0.960 . S
C2998 C2996 1.381 . S
C2998 C2999 1.394 . S
C2998 H3006 0.930 . S
C2999 C2998 1.394 . S
C2999 C3000 1.383 . S
C2999 H3007 0.929 . S
C3000 C2999 1.383 . S
C3000 C3001 1.377 . S
C3001 H2985 0.930 . S
C3001 C3000 1.377 . S
C3001 C3002 1.379 . S
C3002 H2986 0.931 . S
C3002 C2996 1.383 . S
C3002 C3001 1.379 . S
H3003 C2997 0.959 . S
H3004 C2997 0.961 . S
H3005 C2997 0.960 . S
H3006 C2998 0.930 . S
H3007 C2999 0.929 . S
H3008 C3016 0.929 . S
H3009 C3018 0.930 . S
H3010 C3020 0.930 . S
H3011 C3023 0.929 . S
H3012 C3026 0.930 . S
H3013 C3028 0.960 . S
H3014 C3028 0.960 . S
H3015 C3028 0.960 . S
C3016 H3008 0.929 . S
C3016 C3017 1.377 . S
C3016 C3018 1.384 . S
C3017 C3016 1.377 . S
C3017 C3023 1.390 . S
C3018 H3009 0.930 . S
C3018 C3016 1.384 . S
C3018 C3019 1.372 . S
C3019 C3018 1.372 . S
C3019 C3020 1.400 . S
C3019 C3024 1.490 . S
C3020 H3010 0.930 . S
C3020 C3019 1.400 . S
C3020 C3023 1.386 . S
H3021 C3037 0.930 . S
H3022 C3038 0.931 . S
C3023 H3011 0.929 . S
C3023 C3017 1.390 . S
C3023 C3020 1.386 . S
C3024 C3019 1.490 . S
C3024 C3026 1.395 . S
C3024 C3027 1.403 . S
H3025 C3031 0.930 . S
C3026 H3012 0.930 . S
C3026 C3024 1.395 . S
C3026 C3029 1.403 . S
C3027 C3024 1.403 . S
C3027 C3028 1.524 . S
C3027 C3031 1.400 . S
C3028 H3013 0.960 . S
C3028 H3014 0.960 . S
C3028 H3015 0.960 . S
C3028 C3027 1.524 . S
C3029 C3026 1.403 . S
C3029 C3030 1.392 . S
C3029 C3033 1.495 . S
C3030 C3029 1.392 . S
C3030 C3031 1.385 . S
C3030 C3032 1.478 . S
C3031 H3025 0.930 . S
C3031 C3027 1.400 . S
C3031 C3030 1.385 . S
C3032 C3030 1.478 . S
C3032 C3034 1.381 . S
C3032 C3038 1.383 . S
C3033 C3029 1.495 . S
C3033 H3039 0.959 . S
C3033 H3040 0.961 . S
C3033 H3041 0.960 . S
C3034 C3032 1.381 . S
C3034 C3035 1.394 . S
C3034 H3042 0.930 . S
C3035 C3034 1.394 . S
C3035 C3036 1.383 . S
C3035 H3043 0.929 . S
C3036 C3035 1.383 . S
C3036 C3037 1.377 . S
C3037 H3021 0.930 . S
C3037 C3036 1.377 . S
C3037 C3038 1.379 . S
C3038 H3022 0.931 . S
C3038 C3032 1.383 . S
C3038 C3037 1.379 . S
H3039 C3033 0.959 . S
H3040 C3033 0.961 . S
H3041 C3033 0.960 . S
H3042 C3034 0.930 . S
H3043 C3035 0.929 . S
H3044 C3052 0.929 . S
H3045 C3054 0.930 . S
H3046 C3056 0.930 . S
H3047 C3059 0.929 . S
H3048 C3062 0.930 . S
H3049 C3064 0.960 . S
H3050 C3064 0.960 . S
H3051 C3064 0.960 . S
C3052 H3044 0.929 . S
C3052 C3053 1.377 . S
C3052 C3054 1.384 . S
C3053 C3052 1.377 . S
C3053 C3059 1.390 . S
C3054 H3045 0.930 . S
C3054 C3052 1.384 . S
C3054 C3055 1.372 . S
C3055 C3054 1.372 . S
C3055 C3056 1.400 . S
C3055 C3060 1.490 . S
C3056 H3046 0.930 . S
C3056 C3055 1.400 . S
C3056 C3059 1.386 . S
H3057 C3073 0.930 . S
H3058 C3074 0.931 . S
C3059 H3047 0.929 . S
C3059 C3053 1.390 . S
C3059 C3056 1.386 . S
C3060 C3055 1.490 . S
C3060 C3062 1.395 . S
C3060 C3063 1.403 . S
H3061 C3067 0.930 . S
C3062 H3048 0.930 . S
C3062 C3060 1.395 . S
C3062 C3065 1.403 . S
C3063 C3060 1.403 . S
C3063 C3064 1.524 . S
C3063 C3067 1.400 . S
C3064 H3049 0.960 . S
C3064 H3050 0.960 . S
C3064 H3051 0.960 . S
C3064 C3063 1.524 . S
C3065 C3062 1.403 . S
C3065 C3066 1.392 . S
C3065 C3069 1.495 . S
C3066 C3065 1.392 . S
C3066 C3067 1.385 . S
C3066 C3068 1.478 . S
C3067 H3061 0.930 . S
C3067 C3063 1.400 . S
C3067 C3066 1.385 . S
C3068 C3066 1.478 . S
C3068 C3070 1.381 . S
C3068 C3074 1.383 . S
C3069 C3065 1.495 . S
C3069 H3075 0.959 . S
C3069 H3076 0.961 . S
C3069 H3077 0.960 . S
C3070 C3068 1.381 . S
C3070 C3071 1.394 . S
C3070 H3078 0.930 . S
C3071 C3070 1.394 . S
C3071 C3072 1.383 . S
C3071 H3079 0.929 . S
C3072 C3071 1.383 . S
C3072 C3073 1.377 . S
C3073 H3057 0.930 . S
C3073 C3072 1.377 . S
C3073 C3074 1.379 . S
C3074 H3058 0.931 . S
C3074 C3068 1.383 . S
C3074 C3073 1.379 . S
H3075 C3069 0.959 . S
H3076 C3069 0.961 . S
H3077 C3069 0.960 . S
H3078 C3070 0.930 . S
H3079 C3071 0.929 . S
H3080 C3088 0.929 . S
H3081 C3090 0.930 . S
H3082 C3092 0.930 . S
H3083 C3095 0.929 . S
H3084 C3098 0.930 . S
H3085 C3100 0.960 . S
H3086 C3100 0.960 . S
H3087 C3100 0.960 . S
C3088 H3080 0.929 . S
C3088 C3089 1.377 . S
C3088 C3090 1.384 . S
C3089 C3088 1.377 . S
C3089 C3095 1.390 . S
C3090 H3081 0.930 . S
C3090 C3088 1.384 . S
C3090 C3091 1.372 . S
C3091 C3090 1.372 . S
C3091 C3092 1.400 . S
C3091 C3096 1.490 . S
C3092 H3082 0.930 . S
C3092 C3091 1.400 . S
C3092 C3095 1.386 . S
H3093 C3109 0.930 . S
H3094 C3110 0.931 . S
C3095 H3083 0.929 . S
C3095 C3089 1.390 . S
C3095 C3092 1.386 . S
C3096 C3091 1.490 . S
C3096 C3098 1.395 . S
C3096 C3099 1.403 . S
H3097 C3103 0.930 . S
C3098 H3084 0.930 . S
C3098 C3096 1.395 . S
C3098 C3101 1.403 . S
C3099 C3096 1.403 . S
C3099 C3100 1.524 . S
C3099 C3103 1.400 . S
C3100 H3085 0.960 . S
C3100 H3086 0.960 . S
C3100 H3087 0.960 . S
C3100 C3099 1.524 . S
C3101 C3098 1.403 . S
C3101 C3102 1.392 . S
C3101 C3105 1.495 . S
C3102 C3101 1.392 . S
C3102 C3103 1.385 . S
C3102 C3104 1.478 . S
C3103 H3097 0.930 . S
C3103 C3099 1.400 . S
C3103 C3102 1.385 . S
C3104 C3102 1.478 . S
C3104 C3106 1.381 . S
C3104 C3110 1.383 . S
C3105 C3101 1.495 . S
C3105 H3111 0.959 . S
C3105 H3112 0.961 . S
C3105 H3113 0.960 . S
C3106 C3104 1.381 . S
C3106 C3107 1.394 . S
C3106 H3114 0.930 . S
C3107 C3106 1.394 . S
C3107 C3108 1.383 . S
C3107 H3115 0.929 . S
C3108 C3107 1.383 . S
C3108 C3109 1.377 . S
C3109 H3093 0.930 . S
C3109 C3108 1.377 . S
C3109 C3110 1.379 . S
C3110 H3094 0.931 . S
C3110 C3104 1.383 . S
C3110 C3109 1.379 . S
H3111 C3105 0.959 . S
H3112 C3105 0.961 . S
H3113 C3105 0.960 . S
H3114 C3106 0.930 . S
H3115 C3107 0.929 . S
H3116 C3124 0.929 . S
H3117 C3126 0.930 . S
H3118 C3128 0.930 . S
H3119 C3131 0.929 . S
H3120 C3134 0.930 . S
H3121 C3136 0.960 . S
H3122 C3136 0.960 . S
H3123 C3136 0.960 . S
C3124 H3116 0.929 . S
C3124 C3125 1.377 . S
C3124 C3126 1.384 . S
C3125 C3124 1.377 . S
C3125 C3131 1.390 . S
C3126 H3117 0.930 . S
C3126 C3124 1.384 . S
C3126 C3127 1.372 . S
C3127 C3126 1.372 . S
C3127 C3128 1.400 . S
C3127 C3132 1.490 . S
C3128 H3118 0.930 . S
C3128 C3127 1.400 . S
C3128 C3131 1.386 . S
H3129 C3145 0.930 . S
H3130 C3146 0.931 . S
C3131 H3119 0.929 . S
C3131 C3125 1.390 . S
C3131 C3128 1.386 . S
C3132 C3127 1.490 . S
C3132 C3134 1.395 . S
C3132 C3135 1.403 . S
H3133 C3139 0.930 . S
C3134 H3120 0.930 . S
C3134 C3132 1.395 . S
C3134 C3137 1.403 . S
C3135 C3132 1.403 . S
C3135 C3136 1.524 . S
C3135 C3139 1.400 . S
C3136 H3121 0.960 . S
C3136 H3122 0.960 . S
C3136 H3123 0.960 . S
C3136 C3135 1.524 . S
C3137 C3134 1.403 . S
C3137 C3138 1.392 . S
C3137 C3141 1.495 . S
C3138 C3137 1.392 . S
C3138 C3139 1.385 . S
C3138 C3140 1.478 . S
C3139 H3133 0.930 . S
C3139 C3135 1.400 . S
C3139 C3138 1.385 . S
C3140 C3138 1.478 . S
C3140 C3142 1.381 . S
C3140 C3146 1.383 . S
C3141 C3137 1.495 . S
C3141 H3147 0.959 . S
C3141 H3148 0.961 . S
C3141 H3149 0.960 . S
C3142 C3140 1.381 . S
C3142 C3143 1.394 . S
C3142 H3150 0.930 . S
C3143 C3142 1.394 . S
C3143 C3144 1.383 . S
C3143 H3151 0.929 . S
C3144 C3143 1.383 . S
C3144 C3145 1.377 . S
C3145 H3129 0.930 . S
C3145 C3144 1.377 . S
C3145 C3146 1.379 . S
C3146 H3130 0.931 . S
C3146 C3140 1.383 . S
C3146 C3145 1.379 . S
H3147 C3141 0.959 . S
H3148 C3141 0.961 . S
H3149 C3141 0.960 . S
H3150 C3142 0.930 . S
H3151 C3143 0.929 . S
H3152 C3160 0.929 . S
H3153 C3162 0.930 . S
H3154 C3164 0.930 . S
H3155 C3167 0.929 . S
H3156 C3170 0.930 . S
H3157 C3172 0.960 . S
H3158 C3172 0.960 . S
H3159 C3172 0.960 . S
C3160 H3152 0.929 . S
C3160 C3161 1.377 . S
C3160 C3162 1.384 . S
C3161 C3160 1.377 . S
C3161 C3167 1.390 . S
C3162 H3153 0.930 . S
C3162 C3160 1.384 . S
C3162 C3163 1.372 . S
C3163 C3162 1.372 . S
C3163 C3164 1.400 . S
C3163 C3168 1.490 . S
C3164 H3154 0.930 . S
C3164 C3163 1.400 . S
C3164 C3167 1.386 . S
H3165 C3181 0.930 . S
H3166 C3182 0.931 . S
C3167 H3155 0.929 . S
C3167 C3161 1.390 . S
C3167 C3164 1.386 . S
C3168 C3163 1.490 . S
C3168 C3170 1.395 . S
C3168 C3171 1.403 . S
H3169 C3175 0.930 . S
C3170 H3156 0.930 . S
C3170 C3168 1.395 . S
C3170 C3173 1.403 . S
C3171 C3168 1.403 . S
C3171 C3172 1.524 . S
C3171 C3175 1.400 . S
C3172 H3157 0.960 . S
C3172 H3158 0.960 . S
C3172 H3159 0.960 . S
C3172 C3171 1.524 . S
C3173 C3170 1.403 . S
C3173 C3174 1.392 . S
C3173 C3177 1.495 . S
C3174 C3173 1.392 . S
C3174 C3175 1.385 . S
C3174 C3176 1.478 . S
C3175 H3169 0.930 . S
C3175 C3171 1.400 . S
C3175 C3174 1.385 . S
C3176 C3174 1.478 . S
C3176 C3178 1.381 . S
C3176 C3182 1.383 . S
C3177 C3173 1.495 . S
C3177 H3183 0.959 . S
C3177 H3184 0.961 . S
C3177 H3185 0.960 . S
C3178 C3176 1.381 . S
C3178 C3179 1.394 . S
C3178 H3186 0.930 . S
C3179 C3178 1.394 . S
C3179 C3180 1.383 . S
C3179 H3187 0.929 . S
C3180 C3179 1.383 . S
C3180 C3181 1.377 . S
C3181 H3165 0.930 . S
C3181 C3180 1.377 . S
C3181 C3182 1.379 . S
C3182 H3166 0.931 . S
C3182 C3176 1.383 . S
C3182 C3181 1.379 . S
H3183 C3177 0.959 . S
H3184 C3177 0.961 . S
H3185 C3177 0.960 . S
H3186 C3178 0.930 . S
H3187 C3179 0.929 . S
H3188 C3196 0.929 . S
H3189 C3198 0.930 . S
H3190 C3200 0.930 . S
H3191 C3203 0.929 . S
H3192 C3206 0.930 . S
H3193 C3208 0.960 . S
H3194 C3208 0.960 . S
H3195 C3208 0.960 . S
C3196 H3188 0.929 . S
C3196 C3197 1.377 . S
C3196 C3198 1.384 . S
C3197 C3196 1.377 . S
C3197 C3203 1.390 . S
C3198 H3189 0.930 . S
C3198 C3196 1.384 . S
C3198 C3199 1.372 . S
C3199 C3198 1.372 . S
C3199 C3200 1.400 . S
C3199 C3204 1.490 . S
C3200 H3190 0.930 . S
C3200 C3199 1.400 . S
C3200 C3203 1.386 . S
H3201 C3217 0.930 . S
H3202 C3218 0.931 . S
C3203 H3191 0.929 . S
C3203 C3197 1.390 . S
C3203 C3200 1.386 . S
C3204 C3199 1.490 . S
C3204 C3206 1.395 . S
C3204 C3207 1.403 . S
H3205 C3211 0.930 . S
C3206 H3192 0.930 . S
C3206 C3204 1.395 . S
C3206 C3209 1.403 . S
C3207 C3204 1.403 . S
C3207 C3208 1.524 . S
C3207 C3211 1.400 . S
C3208 H3193 0.960 . S
C3208 H3194 0.960 . S
C3208 H3195 0.960 . S
C3208 C3207 1.524 . S
C3209 C3206 1.403 . S
C3209 C3210 1.392 . S
C3209 C3213 1.495 . S
C3210 C3209 1.392 . S
C3210 C3211 1.385 . S
C3210 C3212 1.478 . S
C3211 H3205 0.930 . S
C3211 C3207 1.400 . S
C3211 C3210 1.385 . S
C3212 C3210 1.478 . S
C3212 C3214 1.381 . S
C3212 C3218 1.383 . S
C3213 C3209 1.495 . S
C3213 H3219 0.959 . S
C3213 H3220 0.961 . S
C3213 H3221 0.960 . S
C3214 C3212 1.381 . S
C3214 C3215 1.394 . S
C3214 H3222 0.930 . S
C3215 C3214 1.394 . S
C3215 C3216 1.383 . S
C3215 H3223 0.929 . S
C3216 C3215 1.383 . S
C3216 C3217 1.377 . S
C3217 H3201 0.930 . S
C3217 C3216 1.377 . S
C3217 C3218 1.379 . S
C3218 H3202 0.931 . S
C3218 C3212 1.383 . S
C3218 C3217 1.379 . S
H3219 C3213 0.959 . S
H3220 C3213 0.961 . S
H3221 C3213 0.960 . S
H3222 C3214 0.930 . S
H3223 C3215 0.929 . S
H3224 C3232 0.929 . S
H3225 C3234 0.930 . S
H3226 C3236 0.930 . S
H3227 C3239 0.929 . S
H3228 C3242 0.930 . S
H3229 C3244 0.960 . S
H3230 C3244 0.960 . S
H3231 C3244 0.960 . S
C3232 H3224 0.929 . S
C3232 C3233 1.377 . S
C3232 C3234 1.384 . S
C3233 C3232 1.377 . S
C3233 C3239 1.390 . S
C3234 H3225 0.930 . S
C3234 C3232 1.384 . S
C3234 C3235 1.372 . S
C3235 C3234 1.372 . S
C3235 C3236 1.400 . S
C3235 C3240 1.490 . S
C3236 H3226 0.930 . S
C3236 C3235 1.400 . S
C3236 C3239 1.386 . S
H3237 C3253 0.930 . S
H3238 C3254 0.931 . S
C3239 H3227 0.929 . S
C3239 C3233 1.390 . S
C3239 C3236 1.386 . S
C3240 C3235 1.490 . S
C3240 C3242 1.395 . S
C3240 C3243 1.403 . S
H3241 C3247 0.930 . S
C3242 H3228 0.930 . S
C3242 C3240 1.395 . S
C3242 C3245 1.403 . S
C3243 C3240 1.403 . S
C3243 C3244 1.524 . S
C3243 C3247 1.400 . S
C3244 H3229 0.960 . S
C3244 H3230 0.960 . S
C3244 H3231 0.960 . S
C3244 C3243 1.524 . S
C3245 C3242 1.403 . S
C3245 C3246 1.392 . S
C3245 C3249 1.495 . S
C3246 C3245 1.392 . S
C3246 C3247 1.385 . S
C3246 C3248 1.478 . S
C3247 H3241 0.930 . S
C3247 C3243 1.400 . S
C3247 C3246 1.385 . S
C3248 C3246 1.478 . S
C3248 C3250 1.381 . S
C3248 C3254 1.383 . S
C3249 C3245 1.495 . S
C3249 H3255 0.959 . S
C3249 H3256 0.961 . S
C3249 H3257 0.960 . S
C3250 C3248 1.381 . S
C3250 C3251 1.394 . S
C3250 H3258 0.930 . S
C3251 C3250 1.394 . S
C3251 C3252 1.383 . S
C3251 H3259 0.929 . S
C3252 C3251 1.383 . S
C3252 C3253 1.377 . S
C3253 H3237 0.930 . S
C3253 C3252 1.377 . S
C3253 C3254 1.379 . S
C3254 H3238 0.931 . S
C3254 C3248 1.383 . S
C3254 C3253 1.379 . S
H3255 C3249 0.959 . S
H3256 C3249 0.961 . S
H3257 C3249 0.960 . S
H3258 C3250 0.930 . S
H3259 C3251 0.929 . S
H3260 C3268 0.929 . S
H3261 C3270 0.930 . S
H3262 C3272 0.930 . S
H3263 C3275 0.929 . S
H3264 C3278 0.930 . S
H3265 C3280 0.960 . S
H3266 C3280 0.960 . S
H3267 C3280 0.960 . S
C3268 H3260 0.929 . S
C3268 C3269 1.377 . S
C3268 C3270 1.384 . S
C3269 C3268 1.377 . S
C3269 C3275 1.390 . S
C3270 H3261 0.930 . S
C3270 C3268 1.384 . S
C3270 C3271 1.372 . S
C3271 C3270 1.372 . S
C3271 C3272 1.400 . S
C3271 C3276 1.490 . S
C3272 H3262 0.930 . S
C3272 C3271 1.400 . S
C3272 C3275 1.386 . S
H3273 C3289 0.930 . S
H3274 C3290 0.931 . S
C3275 H3263 0.929 . S
C3275 C3269 1.390 . S
C3275 C3272 1.386 . S
C3276 C3271 1.490 . S
C3276 C3278 1.395 . S
C3276 C3279 1.403 . S
H3277 C3283 0.930 . S
C3278 H3264 0.930 . S
C3278 C3276 1.395 . S
C3278 C3281 1.403 . S
C3279 C3276 1.403 . S
C3279 C3280 1.524 . S
C3279 C3283 1.400 . S
C3280 H3265 0.960 . S
C3280 H3266 0.960 . S
C3280 H3267 0.960 . S
C3280 C3279 1.524 . S
C3281 C3278 1.403 . S
C3281 C3282 1.392 . S
C3281 C3285 1.495 . S
C3282 C3281 1.392 . S
C3282 C3283 1.385 . S
C3282 C3284 1.478 . S
C3283 H3277 0.930 . S
C3283 C3279 1.400 . S
C3283 C3282 1.385 . S
C3284 C3282 1.478 . S
C3284 C3286 1.381 . S
C3284 C3290 1.383 . S
C3285 C3281 1.495 . S
C3285 H3291 0.959 . S
C3285 H3292 0.961 . S
C3285 H3293 0.960 . S
C3286 C3284 1.381 . S
C3286 C3287 1.394 . S
C3286 H3294 0.930 . S
C3287 C3286 1.394 . S
C3287 C3288 1.383 . S
C3287 H3295 0.929 . S
C3288 C3287 1.383 . S
C3288 C3289 1.377 . S
C3289 H3273 0.930 . S
C3289 C3288 1.377 . S
C3289 C3290 1.379 . S
C3290 H3274 0.931 . S
C3290 C3284 1.383 . S
C3290 C3289 1.379 . S
H3291 C3285 0.959 . S
H3292 C3285 0.961 . S
H3293 C3285 0.960 . S
H3294 C3286 0.930 . S
H3295 C3287 0.929 . S
H3296 C3304 0.929 . S
H3297 C3306 0.930 . S
H3298 C3308 0.930 . S
H3299 C3311 0.929 . S
H3300 C3314 0.930 . S
H3301 C3316 0.960 . S
H3302 C3316 0.960 . S
H3303 C3316 0.960 . S
C3304 H3296 0.929 . S
C3304 C3305 1.377 . S
C3304 C3306 1.384 . S
C3305 C3304 1.377 . S
C3305 C3311 1.390 . S
C3306 H3297 0.930 . S
C3306 C3304 1.384 . S
C3306 C3307 1.372 . S
C3307 C3306 1.372 . S
C3307 C3308 1.400 . S
C3307 C3312 1.490 . S
C3308 H3298 0.930 . S
C3308 C3307 1.400 . S
C3308 C3311 1.386 . S
H3309 C3325 0.930 . S
H3310 C3326 0.931 . S
C3311 H3299 0.929 . S
C3311 C3305 1.390 . S
C3311 C3308 1.386 . S
C3312 C3307 1.490 . S
C3312 C3314 1.395 . S
C3312 C3315 1.403 . S
H3313 C3319 0.930 . S
C3314 H3300 0.930 . S
C3314 C3312 1.395 . S
C3314 C3317 1.403 . S
C3315 C3312 1.403 . S
C3315 C3316 1.524 . S
C3315 C3319 1.400 . S
C3316 H3301 0.960 . S
C3316 H3302 0.960 . S
C3316 H3303 0.960 . S
C3316 C3315 1.524 . S
C3317 C3314 1.403 . S
C3317 C3318 1.392 . S
C3317 C3321 1.495 . S
C3318 C3317 1.392 . S
C3318 C3319 1.385 . S
C3318 C3320 1.478 . S
C3319 H3313 0.930 . S
C3319 C3315 1.400 . S
C3319 C3318 1.385 . S
C3320 C3318 1.478 . S
C3320 C3322 1.381 . S
C3320 C3326 1.383 . S
C3321 C3317 1.495 . S
C3321 H3327 0.959 . S
C3321 H3328 0.961 . S
C3321 H3329 0.960 . S
C3322 C3320 1.381 . S
C3322 C3323 1.394 . S
C3322 H3330 0.930 . S
C3323 C3322 1.394 . S
C3323 C3324 1.383 . S
C3323 H3331 0.929 . S
C3324 C3323 1.383 . S
C3324 C3325 1.377 . S
C3325 H3309 0.930 . S
C3325 C3324 1.377 . S
C3325 C3326 1.379 . S
C3326 H3310 0.931 . S
C3326 C3320 1.383 . S
C3326 C3325 1.379 . S
H3327 C3321 0.959 . S
H3328 C3321 0.961 . S
H3329 C3321 0.960 . S
H3330 C3322 0.930 . S
H3331 C3323 0.929 . S
H3332 C3340 0.929 . S
H3333 C3342 0.930 . S
H3334 C3344 0.930 . S
H3335 C3347 0.929 . S
H3336 C3350 0.930 . S
H3337 C3352 0.960 . S
H3338 C3352 0.960 . S
H3339 C3352 0.960 . S
C3340 H3332 0.929 . S
C3340 C3341 1.377 . S
C3340 C3342 1.384 . S
C3341 C3340 1.377 . S
C3341 C3347 1.390 . S
C3342 H3333 0.930 . S
C3342 C3340 1.384 . S
C3342 C3343 1.372 . S
C3343 C3342 1.372 . S
C3343 C3344 1.400 . S
C3343 C3348 1.490 . S
C3344 H3334 0.930 . S
C3344 C3343 1.400 . S
C3344 C3347 1.386 . S
H3345 C3361 0.930 . S
H3346 C3362 0.931 . S
C3347 H3335 0.929 . S
C3347 C3341 1.390 . S
C3347 C3344 1.386 . S
C3348 C3343 1.490 . S
C3348 C3350 1.395 . S
C3348 C3351 1.403 . S
H3349 C3355 0.930 . S
C3350 H3336 0.930 . S
C3350 C3348 1.395 . S
C3350 C3353 1.403 . S
C3351 C3348 1.403 . S
C3351 C3352 1.524 . S
C3351 C3355 1.400 . S
C3352 H3337 0.960 . S
C3352 H3338 0.960 . S
C3352 H3339 0.960 . S
C3352 C3351 1.524 . S
C3353 C3350 1.403 . S
C3353 C3354 1.392 . S
C3353 C3357 1.495 . S
C3354 C3353 1.392 . S
C3354 C3355 1.385 . S
C3354 C3356 1.478 . S
C3355 H3349 0.930 . S
C3355 C3351 1.400 . S
C3355 C3354 1.385 . S
C3356 C3354 1.478 . S
C3356 C3358 1.381 . S
C3356 C3362 1.383 . S
C3357 C3353 1.495 . S
C3357 H3363 0.959 . S
C3357 H3364 0.961 . S
C3357 H3365 0.960 . S
C3358 C3356 1.381 . S
C3358 C3359 1.394 . S
C3358 H3366 0.930 . S
C3359 C3358 1.394 . S
C3359 C3360 1.383 . S
C3359 H3367 0.929 . S
C3360 C3359 1.383 . S
C3360 C3361 1.377 . S
C3361 H3345 0.930 . S
C3361 C3360 1.377 . S
C3361 C3362 1.379 . S
C3362 H3346 0.931 . S
C3362 C3356 1.383 . S
C3362 C3361 1.379 . S
H3363 C3357 0.959 . S
H3364 C3357 0.961 . S
H3365 C3357 0.960 . S
H3366 C3358 0.930 . S
H3367 C3359 0.929 . S
H3368 C3376 0.929 . S
H3369 C3378 0.930 . S
H3370 C3380 0.930 . S
H3371 C3383 0.929 . S
H3372 C3386 0.930 . S
H3373 C3388 0.960 . S
H3374 C3388 0.960 . S
H3375 C3388 0.960 . S
C3376 H3368 0.929 . S
C3376 C3377 1.377 . S
C3376 C3378 1.384 . S
C3377 C3376 1.377 . S
C3377 C3383 1.390 . S
C3378 H3369 0.930 . S
C3378 C3376 1.384 . S
C3378 C3379 1.372 . S
C3379 C3378 1.372 . S
C3379 C3380 1.400 . S
C3379 C3384 1.490 . S
C3380 H3370 0.930 . S
C3380 C3379 1.400 . S
C3380 C3383 1.386 . S
H3381 C3397 0.930 . S
H3382 C3398 0.931 . S
C3383 H3371 0.929 . S
C3383 C3377 1.390 . S
C3383 C3380 1.386 . S
C3384 C3379 1.490 . S
C3384 C3386 1.395 . S
C3384 C3387 1.403 . S
H3385 C3391 0.930 . S
C3386 H3372 0.930 . S
C3386 C3384 1.395 . S
C3386 C3389 1.403 . S
C3387 C3384 1.403 . S
C3387 C3388 1.524 . S
C3387 C3391 1.400 . S
C3388 H3373 0.960 . S
C3388 H3374 0.960 . S
C3388 H3375 0.960 . S
C3388 C3387 1.524 . S
C3389 C3386 1.403 . S
C3389 C3390 1.392 . S
C3389 C3393 1.495 . S
C3390 C3389 1.392 . S
C3390 C3391 1.385 . S
C3390 C3392 1.478 . S
C3391 H3385 0.930 . S
C3391 C3387 1.400 . S
C3391 C3390 1.385 . S
C3392 C3390 1.478 . S
C3392 C3394 1.381 . S
C3392 C3398 1.383 . S
C3393 C3389 1.495 . S
C3393 H3399 0.959 . S
C3393 H3400 0.961 . S
C3393 H3401 0.960 . S
C3394 C3392 1.381 . S
C3394 C3395 1.394 . S
C3394 H3402 0.930 . S
C3395 C3394 1.394 . S
C3395 C3396 1.383 . S
C3395 H3403 0.929 . S
C3396 C3395 1.383 . S
C3396 C3397 1.377 . S
C3397 H3381 0.930 . S
C3397 C3396 1.377 . S
C3397 C3398 1.379 . S
C3398 H3382 0.931 . S
C3398 C3392 1.383 . S
C3398 C3397 1.379 . S
H3399 C3393 0.959 . S
H3400 C3393 0.961 . S
H3401 C3393 0.960 . S
H3402 C3394 0.930 . S
H3403 C3395 0.929 . S
H3404 C3412 0.929 . S
H3405 C3414 0.930 . S
H3406 C3416 0.930 . S
H3407 C3419 0.929 . S
H3408 C3422 0.930 . S
H3409 C3424 0.960 . S
H3410 C3424 0.960 . S
H3411 C3424 0.960 . S
C3412 H3404 0.929 . S
C3412 C3413 1.377 . S
C3412 C3414 1.384 . S
C3413 C3412 1.377 . S
C3413 C3419 1.390 . S
C3414 H3405 0.930 . S
C3414 C3412 1.384 . S
C3414 C3415 1.372 . S
C3415 C3414 1.372 . S
C3415 C3416 1.400 . S
C3415 C3420 1.490 . S
C3416 H3406 0.930 . S
C3416 C3415 1.400 . S
C3416 C3419 1.386 . S
H3417 C3433 0.930 . S
H3418 C3434 0.931 . S
C3419 H3407 0.929 . S
C3419 C3413 1.390 . S
C3419 C3416 1.386 . S
C3420 C3415 1.490 . S
C3420 C3422 1.395 . S
C3420 C3423 1.403 . S
H3421 C3427 0.930 . S
C3422 H3408 0.930 . S
C3422 C3420 1.395 . S
C3422 C3425 1.403 . S
C3423 C3420 1.403 . S
C3423 C3424 1.524 . S
C3423 C3427 1.400 . S
C3424 H3409 0.960 . S
C3424 H3410 0.960 . S
C3424 H3411 0.960 . S
C3424 C3423 1.524 . S
C3425 C3422 1.403 . S
C3425 C3426 1.392 . S
C3425 C3429 1.495 . S
C3426 C3425 1.392 . S
C3426 C3427 1.385 . S
C3426 C3428 1.478 . S
C3427 H3421 0.930 . S
C3427 C3423 1.400 . S
C3427 C3426 1.385 . S
C3428 C3426 1.478 . S
C3428 C3430 1.381 . S
C3428 C3434 1.383 . S
C3429 C3425 1.495 . S
C3429 H3435 0.959 . S
C3429 H3436 0.961 . S
C3429 H3437 0.960 . S
C3430 C3428 1.381 . S
C3430 C3431 1.394 . S
C3430 H3438 0.930 . S
C3431 C3430 1.394 . S
C3431 C3432 1.383 . S
C3431 H3439 0.929 . S
C3432 C3431 1.383 . S
C3432 C3433 1.377 . S
C3433 H3417 0.930 . S
C3433 C3432 1.377 . S
C3433 C3434 1.379 . S
C3434 H3418 0.931 . S
C3434 C3428 1.383 . S
C3434 C3433 1.379 . S
H3435 C3429 0.959 . S
H3436 C3429 0.961 . S
H3437 C3429 0.960 . S
H3438 C3430 0.930 . S
H3439 C3431 0.929 . S
H3440 C3448 0.929 . S
H3441 C3450 0.930 . S
H3442 C3452 0.930 . S
H3443 C3455 0.929 . S
H3444 C3458 0.930 . S
H3445 C3460 0.960 . S
H3446 C3460 0.960 . S
H3447 C3460 0.960 . S
C3448 H3440 0.929 . S
C3448 C3449 1.377 . S
C3448 C3450 1.384 . S
C3449 C3448 1.377 . S
C3449 C3455 1.390 . S
C3450 H3441 0.930 . S
C3450 C3448 1.384 . S
C3450 C3451 1.372 . S
C3451 C3450 1.372 . S
C3451 C3452 1.400 . S
C3451 C3456 1.490 . S
C3452 H3442 0.930 . S
C3452 C3451 1.400 . S
C3452 C3455 1.386 . S
H3453 C3469 0.930 . S
H3454 C3470 0.931 . S
C3455 H3443 0.929 . S
C3455 C3449 1.390 . S
C3455 C3452 1.386 . S
C3456 C3451 1.490 . S
C3456 C3458 1.395 . S
C3456 C3459 1.403 . S
H3457 C3463 0.930 . S
C3458 H3444 0.930 . S
C3458 C3456 1.395 . S
C3458 C3461 1.403 . S
C3459 C3456 1.403 . S
C3459 C3460 1.524 . S
C3459 C3463 1.400 . S
C3460 H3445 0.960 . S
C3460 H3446 0.960 . S
C3460 H3447 0.960 . S
C3460 C3459 1.524 . S
C3461 C3458 1.403 . S
C3461 C3462 1.392 . S
C3461 C3465 1.495 . S
C3462 C3461 1.392 . S
C3462 C3463 1.385 . S
C3462 C3464 1.478 . S
C3463 H3457 0.930 . S
C3463 C3459 1.400 . S
C3463 C3462 1.385 . S
C3464 C3462 1.478 . S
C3464 C3466 1.381 . S
C3464 C3470 1.383 . S
C3465 C3461 1.495 . S
C3465 H3471 0.959 . S
C3465 H3472 0.961 . S
C3465 H3473 0.960 . S
C3466 C3464 1.381 . S
C3466 C3467 1.394 . S
C3466 H3474 0.930 . S
C3467 C3466 1.394 . S
C3467 C3468 1.383 . S
C3467 H3475 0.929 . S
C3468 C3467 1.383 . S
C3468 C3469 1.377 . S
C3469 H3453 0.930 . S
C3469 C3468 1.377 . S
C3469 C3470 1.379 . S
C3470 H3454 0.931 . S
C3470 C3464 1.383 . S
C3470 C3469 1.379 . S
H3471 C3465 0.959 . S
H3472 C3465 0.961 . S
H3473 C3465 0.960 . S
H3474 C3466 0.930 . S
H3475 C3467 0.929 . S
H3476 C3484 0.929 . S
H3477 C3486 0.930 . S
H3478 C3488 0.930 . S
H3479 C3491 0.929 . S
H3480 C3494 0.930 . S
H3481 C3496 0.960 . S
H3482 C3496 0.960 . S
H3483 C3496 0.960 . S
C3484 H3476 0.929 . S
C3484 C3485 1.377 . S
C3484 C3486 1.384 . S
C3485 C3484 1.377 . S
C3485 C3491 1.390 . S
C3486 H3477 0.930 . S
C3486 C3484 1.384 . S
C3486 C3487 1.372 . S
C3487 C3486 1.372 . S
C3487 C3488 1.400 . S
C3487 C3492 1.490 . S
C3488 H3478 0.930 . S
C3488 C3487 1.400 . S
C3488 C3491 1.386 . S
H3489 C3505 0.930 . S
H3490 C3506 0.931 . S
C3491 H3479 0.929 . S
C3491 C3485 1.390 . S
C3491 C3488 1.386 . S
C3492 C3487 1.490 . S
C3492 C3494 1.395 . S
C3492 C3495 1.403 . S
H3493 C3499 0.930 . S
C3494 H3480 0.930 . S
C3494 C3492 1.395 . S
C3494 C3497 1.403 . S
C3495 C3492 1.403 . S
C3495 C3496 1.524 . S
C3495 C3499 1.400 . S
C3496 H3481 0.960 . S
C3496 H3482 0.960 . S
C3496 H3483 0.960 . S
C3496 C3495 1.524 . S
C3497 C3494 1.403 . S
C3497 C3498 1.392 . S
C3497 C3501 1.495 . S
C3498 C3497 1.392 . S
C3498 C3499 1.385 . S
C3498 C3500 1.478 . S
C3499 H3493 0.930 . S
C3499 C3495 1.400 . S
C3499 C3498 1.385 . S
C3500 C3498 1.478 . S
C3500 C3502 1.381 . S
C3500 C3506 1.383 . S
C3501 C3497 1.495 . S
C3501 H3507 0.959 . S
C3501 H3508 0.961 . S
C3501 H3509 0.960 . S
C3502 C3500 1.381 . S
C3502 C3503 1.394 . S
C3502 H3510 0.930 . S
C3503 C3502 1.394 . S
C3503 C3504 1.383 . S
C3503 H3511 0.929 . S
C3504 C3503 1.383 . S
C3504 C3505 1.377 . S
C3505 H3489 0.930 . S
C3505 C3504 1.377 . S
C3505 C3506 1.379 . S
C3506 H3490 0.931 . S
C3506 C3500 1.383 . S
C3506 C3505 1.379 . S
H3507 C3501 0.959 . S
H3508 C3501 0.961 . S
H3509 C3501 0.960 . S
H3510 C3502 0.930 . S
H3511 C3503 0.929 . S
H3512 C3520 0.929 . S
H3513 C3522 0.930 . S
H3514 C3524 0.930 . S
H3515 C3527 0.929 . S
H3516 C3530 0.930 . S
H3517 C3532 0.960 . S
H3518 C3532 0.960 . S
H3519 C3532 0.960 . S
C3520 H3512 0.929 . S
C3520 C3521 1.377 . S
C3520 C3522 1.384 . S
C3521 C3520 1.377 . S
C3521 C3527 1.390 . S
C3522 H3513 0.930 . S
C3522 C3520 1.384 . S
C3522 C3523 1.372 . S
C3523 C3522 1.372 . S
C3523 C3524 1.400 . S
C3523 C3528 1.490 . S
C3524 H3514 0.930 . S
C3524 C3523 1.400 . S
C3524 C3527 1.386 . S
H3525 C3541 0.930 . S
H3526 C3542 0.931 . S
C3527 H3515 0.929 . S
C3527 C3521 1.390 . S
C3527 C3524 1.386 . S
C3528 C3523 1.490 . S
C3528 C3530 1.395 . S
C3528 C3531 1.403 . S
H3529 C3535 0.930 . S
C3530 H3516 0.930 . S
C3530 C3528 1.395 . S
C3530 C3533 1.403 . S
C3531 C3528 1.403 . S
C3531 C3532 1.524 . S
C3531 C3535 1.400 . S
C3532 H3517 0.960 . S
C3532 H3518 0.960 . S
C3532 H3519 0.960 . S
C3532 C3531 1.524 . S
C3533 C3530 1.403 . S
C3533 C3534 1.392 . S
C3533 C3537 1.495 . S
C3534 C3533 1.392 . S
C3534 C3535 1.385 . S
C3534 C3536 1.478 . S
C3535 H3529 0.930 . S
C3535 C3531 1.400 . S
C3535 C3534 1.385 . S
C3536 C3534 1.478 . S
C3536 C3538 1.381 . S
C3536 C3542 1.383 . S
C3537 C3533 1.495 . S
C3537 H3543 0.959 . S
C3537 H3544 0.961 . S
C3537 H3545 0.960 . S
C3538 C3536 1.381 . S
C3538 C3539 1.394 . S
C3538 H3546 0.930 . S
C3539 C3538 1.394 . S
C3539 C3540 1.383 . S
C3539 H3547 0.929 . S
C3540 C3539 1.383 . S
C3540 C3541 1.377 . S
C3541 H3525 0.930 . S
C3541 C3540 1.377 . S
C3541 C3542 1.379 . S
C3542 H3526 0.931 . S
C3542 C3536 1.383 . S
C3542 C3541 1.379 . S
H3543 C3537 0.959 . S
H3544 C3537 0.961 . S
H3545 C3537 0.960 . S
H3546 C3538 0.930 . S
H3547 C3539 0.929 . S
H3548 C3556 0.929 . S
H3549 C3558 0.930 . S
H3550 C3560 0.930 . S
H3551 C3563 0.929 . S
H3552 C3566 0.930 . S
H3553 C3568 0.960 . S
H3554 C3568 0.960 . S
H3555 C3568 0.960 . S
C3556 H3548 0.929 . S
C3556 C3557 1.377 . S
C3556 C3558 1.384 . S
C3557 C3556 1.377 . S
C3557 C3563 1.390 . S
C3558 H3549 0.930 . S
C3558 C3556 1.384 . S
C3558 C3559 1.372 . S
C3559 C3558 1.372 . S
C3559 C3560 1.400 . S
C3559 C3564 1.490 . S
C3560 H3550 0.930 . S
C3560 C3559 1.400 . S
C3560 C3563 1.386 . S
H3561 C3577 0.930 . S
H3562 C3578 0.931 . S
C3563 H3551 0.929 . S
C3563 C3557 1.390 . S
C3563 C3560 1.386 . S
C3564 C3559 1.490 . S
C3564 C3566 1.395 . S
C3564 C3567 1.403 . S
H3565 C3571 0.930 . S
C3566 H3552 0.930 . S
C3566 C3564 1.395 . S
C3566 C3569 1.403 . S
C3567 C3564 1.403 . S
C3567 C3568 1.524 . S
C3567 C3571 1.400 . S
C3568 H3553 0.960 . S
C3568 H3554 0.960 . S
C3568 H3555 0.960 . S
C3568 C3567 1.524 . S
C3569 C3566 1.403 . S
C3569 C3570 1.392 . S
C3569 C3573 1.495 . S
C3570 C3569 1.392 . S
C3570 C3571 1.385 . S
C3570 C3572 1.478 . S
C3571 H3565 0.930 . S
C3571 C3567 1.400 . S
C3571 C3570 1.385 . S
C3572 C3570 1.478 . S
C3572 C3574 1.381 . S
C3572 C3578 1.383 . S
C3573 C3569 1.495 . S
C3573 H3579 0.959 . S
C3573 H3580 0.961 . S
C3573 H3581 0.960 . S
C3574 C3572 1.381 . S
C3574 C3575 1.394 . S
C3574 H3582 0.930 . S
C3575 C3574 1.394 . S
C3575 C3576 1.383 . S
C3575 H3583 0.929 . S
C3576 C3575 1.383 . S
C3576 C3577 1.377 . S
C3577 H3561 0.930 . S
C3577 C3576 1.377 . S
C3577 C3578 1.379 . S
C3578 H3562 0.931 . S
C3578 C3572 1.383 . S
C3578 C3577 1.379 . S
H3579 C3573 0.959 . S
H3580 C3573 0.961 . S
H3581 C3573 0.960 . S
H3582 C3574 0.930 . S
H3583 C3575 0.929 . S
H3584 C3592 0.929 . S
H3585 C3594 0.930 . S
H3586 C3596 0.930 . S
H3587 C3599 0.929 . S
H3588 C3602 0.930 . S
H3589 C3604 0.960 . S
H3590 C3604 0.960 . S
H3591 C3604 0.960 . S
C3592 H3584 0.929 . S
C3592 C3593 1.377 . S
C3592 C3594 1.384 . S
C3593 C3592 1.377 . S
C3593 C3599 1.390 . S
C3594 H3585 0.930 . S
C3594 C3592 1.384 . S
C3594 C3595 1.372 . S
C3595 C3594 1.372 . S
C3595 C3596 1.400 . S
C3595 C3600 1.490 . S
C3596 H3586 0.930 . S
C3596 C3595 1.400 . S
C3596 C3599 1.386 . S
H3597 C3613 0.930 . S
H3598 C3614 0.931 . S
C3599 H3587 0.929 . S
C3599 C3593 1.390 . S
C3599 C3596 1.386 . S
C3600 C3595 1.490 . S
C3600 C3602 1.395 . S
C3600 C3603 1.403 . S
H3601 C3607 0.930 . S
C3602 H3588 0.930 . S
C3602 C3600 1.395 . S
C3602 C3605 1.403 . S
C3603 C3600 1.403 . S
C3603 C3604 1.524 . S
C3603 C3607 1.400 . S
C3604 H3589 0.960 . S
C3604 H3590 0.960 . S
C3604 H3591 0.960 . S
C3604 C3603 1.524 . S
C3605 C3602 1.403 . S
C3605 C3606 1.392 . S
C3605 C3609 1.495 . S
C3606 C3605 1.392 . S
C3606 C3607 1.385 . S
C3606 C3608 1.478 . S
C3607 H3601 0.930 . S
C3607 C3603 1.400 . S
C3607 C3606 1.385 . S
C3608 C3606 1.478 . S
C3608 C3610 1.381 . S
C3608 C3614 1.383 . S
C3609 C3605 1.495 . S
C3609 H3615 0.959 . S
C3609 H3616 0.961 . S
C3609 H3617 0.960 . S
C3610 C3608 1.381 . S
C3610 C3611 1.394 . S
C3610 H3618 0.930 . S
C3611 C3610 1.394 . S
C3611 C3612 1.383 . S
C3611 H3619 0.929 . S
C3612 C3611 1.383 . S
C3612 C3613 1.377 . S
C3613 H3597 0.930 . S
C3613 C3612 1.377 . S
C3613 C3614 1.379 . S
C3614 H3598 0.931 . S
C3614 C3608 1.383 . S
C3614 C3613 1.379 . S
H3615 C3609 0.959 . S
H3616 C3609 0.961 . S
H3617 C3609 0.960 . S
H3618 C3610 0.930 . S
H3619 C3611 0.929 . S
H3620 C3628 0.929 . S
H3621 C3630 0.930 . S
H3622 C3632 0.930 . S
H3623 C3635 0.929 . S
H3624 C3638 0.930 . S
H3625 C3640 0.960 . S
H3626 C3640 0.960 . S
H3627 C3640 0.960 . S
C3628 H3620 0.929 . S
C3628 C3629 1.377 . S
C3628 C3630 1.384 . S
C3629 C3628 1.377 . S
C3629 C3635 1.390 . S
C3630 H3621 0.930 . S
C3630 C3628 1.384 . S
C3630 C3631 1.372 . S
C3631 C3630 1.372 . S
C3631 C3632 1.400 . S
C3631 C3636 1.490 . S
C3632 H3622 0.930 . S
C3632 C3631 1.400 . S
C3632 C3635 1.386 . S
H3633 C3649 0.930 . S
H3634 C3650 0.931 . S
C3635 H3623 0.929 . S
C3635 C3629 1.390 . S
C3635 C3632 1.386 . S
C3636 C3631 1.490 . S
C3636 C3638 1.395 . S
C3636 C3639 1.403 . S
H3637 C3643 0.930 . S
C3638 H3624 0.930 . S
C3638 C3636 1.395 . S
C3638 C3641 1.403 . S
C3639 C3636 1.403 . S
C3639 C3640 1.524 . S
C3639 C3643 1.400 . S
C3640 H3625 0.960 . S
C3640 H3626 0.960 . S
C3640 H3627 0.960 . S
C3640 C3639 1.524 . S
C3641 C3638 1.403 . S
C3641 C3642 1.392 . S
C3641 C3645 1.495 . S
C3642 C3641 1.392 . S
C3642 C3643 1.385 . S
C3642 C3644 1.478 . S
C3643 H3637 0.930 . S
C3643 C3639 1.400 . S
C3643 C3642 1.385 . S
C3644 C3642 1.478 . S
C3644 C3646 1.381 . S
C3644 C3650 1.383 . S
C3645 C3641 1.495 . S
C3645 H3651 0.959 . S
C3645 H3652 0.961 . S
C3645 H3653 0.960 . S
C3646 C3644 1.381 . S
C3646 C3647 1.394 . S
C3646 H3654 0.930 . S
C3647 C3646 1.394 . S
C3647 C3648 1.383 . S
C3647 H3655 0.929 . S
C3648 C3647 1.383 . S
C3648 C3649 1.377 . S
C3649 H3633 0.930 . S
C3649 C3648 1.377 . S
C3649 C3650 1.379 . S
C3650 H3634 0.931 . S
C3650 C3644 1.383 . S
C3650 C3649 1.379 . S
H3651 C3645 0.959 . S
H3652 C3645 0.961 . S
H3653 C3645 0.960 . S
H3654 C3646 0.930 . S
H3655 C3647 0.929 . S
H3656 C3664 0.929 . S
H3657 C3666 0.930 . S
H3658 C3668 0.930 . S
H3659 C3671 0.929 . S
H3660 C3674 0.930 . S
H3661 C3676 0.960 . S
H3662 C3676 0.960 . S
H3663 C3676 0.960 . S
C3664 H3656 0.929 . S
C3664 C3665 1.377 . S
C3664 C3666 1.384 . S
C3665 C3664 1.377 . S
C3665 C3671 1.390 . S
C3666 H3657 0.930 . S
C3666 C3664 1.384 . S
C3666 C3667 1.372 . S
C3667 C3666 1.372 . S
C3667 C3668 1.400 . S
C3667 C3672 1.490 . S
C3668 H3658 0.930 . S
C3668 C3667 1.400 . S
C3668 C3671 1.386 . S
H3669 C3685 0.930 . S
H3670 C3686 0.931 . S
C3671 H3659 0.929 . S
C3671 C3665 1.390 . S
C3671 C3668 1.386 . S
C3672 C3667 1.490 . S
C3672 C3674 1.395 . S
C3672 C3675 1.403 . S
H3673 C3679 0.930 . S
C3674 H3660 0.930 . S
C3674 C3672 1.395 . S
C3674 C3677 1.403 . S
C3675 C3672 1.403 . S
C3675 C3676 1.524 . S
C3675 C3679 1.400 . S
C3676 H3661 0.960 . S
C3676 H3662 0.960 . S
C3676 H3663 0.960 . S
C3676 C3675 1.524 . S
C3677 C3674 1.403 . S
C3677 C3678 1.392 . S
C3677 C3681 1.495 . S
C3678 C3677 1.392 . S
C3678 C3679 1.385 . S
C3678 C3680 1.478 . S
C3679 H3673 0.930 . S
C3679 C3675 1.400 . S
C3679 C3678 1.385 . S
C3680 C3678 1.478 . S
C3680 C3682 1.381 . S
C3680 C3686 1.383 . S
C3681 C3677 1.495 . S
C3681 H3687 0.959 . S
C3681 H3688 0.961 . S
C3681 H3689 0.960 . S
C3682 C3680 1.381 . S
C3682 C3683 1.394 . S
C3682 H3690 0.930 . S
C3683 C3682 1.394 . S
C3683 C3684 1.383 . S
C3683 H3691 0.929 . S
C3684 C3683 1.383 . S
C3684 C3685 1.377 . S
C3685 H3669 0.930 . S
C3685 C3684 1.377 . S
C3685 C3686 1.379 . S
C3686 H3670 0.931 . S
C3686 C3680 1.383 . S
C3686 C3685 1.379 . S
H3687 C3681 0.959 . S
H3688 C3681 0.961 . S
H3689 C3681 0.960 . S
H3690 C3682 0.930 . S
H3691 C3683 0.929 . S
H3692 C3700 0.929 . S
H3693 C3702 0.930 . S
H3694 C3704 0.930 . S
H3695 C3707 0.929 . S
H3696 C3710 0.930 . S
H3697 C3712 0.960 . S
H3698 C3712 0.960 . S
H3699 C3712 0.960 . S
C3700 H3692 0.929 . S
C3700 C3701 1.377 . S
C3700 C3702 1.384 . S
C3701 C3700 1.377 . S
C3701 C3707 1.390 . S
C3702 H3693 0.930 . S
C3702 C3700 1.384 . S
C3702 C3703 1.372 . S
C3703 C3702 1.372 . S
C3703 C3704 1.400 . S
C3703 C3708 1.490 . S
C3704 H3694 0.930 . S
C3704 C3703 1.400 . S
C3704 C3707 1.386 . S
H3705 C3721 0.930 . S
H3706 C3722 0.931 . S
C3707 H3695 0.929 . S
C3707 C3701 1.390 . S
C3707 C3704 1.386 . S
C3708 C3703 1.490 . S
C3708 C3710 1.395 . S
C3708 C3711 1.403 . S
H3709 C3715 0.930 . S
C3710 H3696 0.930 . S
C3710 C3708 1.395 . S
C3710 C3713 1.403 . S
C3711 C3708 1.403 . S
C3711 C3712 1.524 . S
C3711 C3715 1.400 . S
C3712 H3697 0.960 . S
C3712 H3698 0.960 . S
C3712 H3699 0.960 . S
C3712 C3711 1.524 . S
C3713 C3710 1.403 . S
C3713 C3714 1.392 . S
C3713 C3717 1.495 . S
C3714 C3713 1.392 . S
C3714 C3715 1.385 . S
C3714 C3716 1.478 . S
C3715 H3709 0.930 . S
C3715 C3711 1.400 . S
C3715 C3714 1.385 . S
C3716 C3714 1.478 . S
C3716 C3718 1.381 . S
C3716 C3722 1.383 . S
C3717 C3713 1.495 . S
C3717 H3723 0.959 . S
C3717 H3724 0.961 . S
C3717 H3725 0.960 . S
C3718 C3716 1.381 . S
C3718 C3719 1.394 . S
C3718 H3726 0.930 . S
C3719 C3718 1.394 . S
C3719 C3720 1.383 . S
C3719 H3727 0.929 . S
C3720 C3719 1.383 . S
C3720 C3721 1.377 . S
C3721 H3705 0.930 . S
C3721 C3720 1.377 . S
C3721 C3722 1.379 . S
C3722 H3706 0.931 . S
C3722 C3716 1.383 . S
C3722 C3721 1.379 . S
H3723 C3717 0.959 . S
H3724 C3717 0.961 . S
H3725 C3717 0.960 . S
H3726 C3718 0.930 . S
H3727 C3719 0.929 . S
H3728 C3736 0.929 . S
H3729 C3738 0.930 . S
H3730 C3740 0.930 . S
H3731 C3743 0.929 . S
H3732 C3746 0.930 . S
H3733 C3748 0.960 . S
H3734 C3748 0.960 . S
H3735 C3748 0.960 . S
C3736 H3728 0.929 . S
C3736 C3737 1.377 . S
C3736 C3738 1.384 . S
C3737 C3736 1.377 . S
C3737 C3743 1.390 . S
C3738 H3729 0.930 . S
C3738 C3736 1.384 . S
C3738 C3739 1.372 . S
C3739 C3738 1.372 . S
C3739 C3740 1.400 . S
C3739 C3744 1.490 . S
C3740 H3730 0.930 . S
C3740 C3739 1.400 . S
C3740 C3743 1.386 . S
H3741 C3757 0.930 . S
H3742 C3758 0.931 . S
C3743 H3731 0.929 . S
C3743 C3737 1.390 . S
C3743 C3740 1.386 . S
C3744 C3739 1.490 . S
C3744 C3746 1.395 . S
C3744 C3747 1.403 . S
H3745 C3751 0.930 . S
C3746 H3732 0.930 . S
C3746 C3744 1.395 . S
C3746 C3749 1.403 . S
C3747 C3744 1.403 . S
C3747 C3748 1.524 . S
C3747 C3751 1.400 . S
C3748 H3733 0.960 . S
C3748 H3734 0.960 . S
C3748 H3735 0.960 . S
C3748 C3747 1.524 . S
C3749 C3746 1.403 . S
C3749 C3750 1.392 . S
C3749 C3753 1.495 . S
C3750 C3749 1.392 . S
C3750 C3751 1.385 . S
C3750 C3752 1.478 . S
C3751 H3745 0.930 . S
C3751 C3747 1.400 . S
C3751 C3750 1.385 . S
C3752 C3750 1.478 . S
C3752 C3754 1.381 . S
C3752 C3758 1.383 . S
C3753 C3749 1.495 . S
C3753 H3759 0.959 . S
C3753 H3760 0.961 . S
C3753 H3761 0.960 . S
C3754 C3752 1.381 . S
C3754 C3755 1.394 . S
C3754 H3762 0.930 . S
C3755 C3754 1.394 . S
C3755 C3756 1.383 . S
C3755 H3763 0.929 . S
C3756 C3755 1.383 . S
C3756 C3757 1.377 . S
C3757 H3741 0.930 . S
C3757 C3756 1.377 . S
C3757 C3758 1.379 . S
C3758 H3742 0.931 . S
C3758 C3752 1.383 . S
C3758 C3757 1.379 . S
H3759 C3753 0.959 . S
H3760 C3753 0.961 . S
H3761 C3753 0.960 . S
H3762 C3754 0.930 . S
H3763 C3755 0.929 . S
H3764 C3772 0.929 . S
H3765 C3774 0.930 . S
H3766 C3776 0.930 . S
H3767 C3779 0.929 . S
H3768 C3782 0.930 . S
H3769 C3784 0.960 . S
H3770 C3784 0.960 . S
H3771 C3784 0.960 . S
C3772 H3764 0.929 . S
C3772 C3773 1.377 . S
C3772 C3774 1.384 . S
C3773 C3772 1.377 . S
C3773 C3779 1.390 . S
C3774 H3765 0.930 . S
C3774 C3772 1.384 . S
C3774 C3775 1.372 . S
C3775 C3774 1.372 . S
C3775 C3776 1.400 . S
C3775 C3780 1.490 . S
C3776 H3766 0.930 . S
C3776 C3775 1.400 . S
C3776 C3779 1.386 . S
H3777 C3793 0.930 . S
H3778 C3794 0.931 . S
C3779 H3767 0.929 . S
C3779 C3773 1.390 . S
C3779 C3776 1.386 . S
C3780 C3775 1.490 . S
C3780 C3782 1.395 . S
C3780 C3783 1.403 . S
H3781 C3787 0.930 . S
C3782 H3768 0.930 . S
C3782 C3780 1.395 . S
C3782 C3785 1.403 . S
C3783 C3780 1.403 . S
C3783 C3784 1.524 . S
C3783 C3787 1.400 . S
C3784 H3769 0.960 . S
C3784 H3770 0.960 . S
C3784 H3771 0.960 . S
C3784 C3783 1.524 . S
C3785 C3782 1.403 . S
C3785 C3786 1.392 . S
C3785 C3789 1.495 . S
C3786 C3785 1.392 . S
C3786 C3787 1.385 . S
C3786 C3788 1.478 . S
C3787 H3781 0.930 . S
C3787 C3783 1.400 . S
C3787 C3786 1.385 . S
C3788 C3786 1.478 . S
C3788 C3790 1.381 . S
C3788 C3794 1.383 . S
C3789 C3785 1.495 . S
C3789 H3795 0.959 . S
C3789 H3796 0.961 . S
C3789 H3797 0.960 . S
C3790 C3788 1.381 . S
C3790 C3791 1.394 . S
C3790 H3798 0.930 . S
C3791 C3790 1.394 . S
C3791 C3792 1.383 . S
C3791 H3799 0.929 . S
C3792 C3791 1.383 . S
C3792 C3793 1.377 . S
C3793 H3777 0.930 . S
C3793 C3792 1.377 . S
C3793 C3794 1.379 . S
C3794 H3778 0.931 . S
C3794 C3788 1.383 . S
C3794 C3793 1.379 . S
H3795 C3789 0.959 . S
H3796 C3789 0.961 . S
H3797 C3789 0.960 . S
H3798 C3790 0.930 . S
H3799 C3791 0.929 . S
H3800 C3808 0.929 . S
H3801 C3810 0.930 . S
H3802 C3812 0.930 . S
H3803 C3815 0.929 . S
H3804 C3818 0.930 . S
H3805 C3820 0.960 . S
H3806 C3820 0.960 . S
H3807 C3820 0.960 . S
C3808 H3800 0.929 . S
C3808 C3809 1.377 . S
C3808 C3810 1.384 . S
C3809 C3808 1.377 . S
C3809 C3815 1.390 . S
C3810 H3801 0.930 . S
C3810 C3808 1.384 . S
C3810 C3811 1.372 . S
C3811 C3810 1.372 . S
C3811 C3812 1.400 . S
C3811 C3816 1.490 . S
C3812 H3802 0.930 . S
C3812 C3811 1.400 . S
C3812 C3815 1.386 . S
H3813 C3829 0.930 . S
H3814 C3830 0.931 . S
C3815 H3803 0.929 . S
C3815 C3809 1.390 . S
C3815 C3812 1.386 . S
C3816 C3811 1.490 . S
C3816 C3818 1.395 . S
C3816 C3819 1.403 . S
H3817 C3823 0.930 . S
C3818 H3804 0.930 . S
C3818 C3816 1.395 . S
C3818 C3821 1.403 . S
C3819 C3816 1.403 . S
C3819 C3820 1.524 . S
C3819 C3823 1.400 . S
C3820 H3805 0.960 . S
C3820 H3806 0.960 . S
C3820 H3807 0.960 . S
C3820 C3819 1.524 . S
C3821 C3818 1.403 . S
C3821 C3822 1.392 . S
C3821 C3825 1.495 . S
C3822 C3821 1.392 . S
C3822 C3823 1.385 . S
C3822 C3824 1.478 . S
C3823 H3817 0.930 . S
C3823 C3819 1.400 . S
C3823 C3822 1.385 . S
C3824 C3822 1.478 . S
C3824 C3826 1.381 . S
C3824 C3830 1.383 . S
C3825 C3821 1.495 . S
C3825 H3831 0.959 . S
C3825 H3832 0.961 . S
C3825 H3833 0.960 . S
C3826 C3824 1.381 . S
C3826 C3827 1.394 . S
C3826 H3834 0.930 . S
C3827 C3826 1.394 . S
C3827 C3828 1.383 . S
C3827 H3835 0.929 . S
C3828 C3827 1.383 . S
C3828 C3829 1.377 . S
C3829 H3813 0.930 . S
C3829 C3828 1.377 . S
C3829 C3830 1.379 . S
C3830 H3814 0.931 . S
C3830 C3824 1.383 . S
C3830 C3829 1.379 . S
H3831 C3825 0.959 . S
H3832 C3825 0.961 . S
H3833 C3825 0.960 . S
H3834 C3826 0.930 . S
H3835 C3827 0.929 . S
H3836 C3844 0.929 . S
H3837 C3846 0.930 . S
H3838 C3848 0.930 . S
H3839 C3851 0.929 . S
H3840 C3854 0.930 . S
H3841 C3856 0.960 . S
H3842 C3856 0.960 . S
H3843 C3856 0.960 . S
C3844 H3836 0.929 . S
C3844 C3845 1.377 . S
C3844 C3846 1.384 . S
C3845 C3844 1.377 . S
C3845 C3851 1.390 . S
C3846 H3837 0.930 . S
C3846 C3844 1.384 . S
C3846 C3847 1.372 . S
C3847 C3846 1.372 . S
C3847 C3848 1.400 . S
C3847 C3852 1.490 . S
C3848 H3838 0.930 . S
C3848 C3847 1.400 . S
C3848 C3851 1.386 . S
H3849 C3865 0.930 . S
H3850 C3866 0.931 . S
C3851 H3839 0.929 . S
C3851 C3845 1.390 . S
C3851 C3848 1.386 . S
C3852 C3847 1.490 . S
C3852 C3854 1.395 . S
C3852 C3855 1.403 . S
H3853 C3859 0.930 . S
C3854 H3840 0.930 . S
C3854 C3852 1.395 . S
C3854 C3857 1.403 . S
C3855 C3852 1.403 . S
C3855 C3856 1.524 . S
C3855 C3859 1.400 . S
C3856 H3841 0.960 . S
C3856 H3842 0.960 . S
C3856 H3843 0.960 . S
C3856 C3855 1.524 . S
C3857 C3854 1.403 . S
C3857 C3858 1.392 . S
C3857 C3861 1.495 . S
C3858 C3857 1.392 . S
C3858 C3859 1.385 . S
C3858 C3860 1.478 . S
C3859 H3853 0.930 . S
C3859 C3855 1.400 . S
C3859 C3858 1.385 . S
C3860 C3858 1.478 . S
C3860 C3862 1.381 . S
C3860 C3866 1.383 . S
C3861 C3857 1.495 . S
C3861 H3867 0.959 . S
C3861 H3868 0.961 . S
C3861 H3869 0.960 . S
C3862 C3860 1.381 . S
C3862 C3863 1.394 . S
C3862 H3870 0.930 . S
C3863 C3862 1.394 . S
C3863 C3864 1.383 . S
C3863 H3871 0.929 . S
C3864 C3863 1.383 . S
C3864 C3865 1.377 . S
C3865 H3849 0.930 . S
C3865 C3864 1.377 . S
C3865 C3866 1.379 . S
C3866 H3850 0.931 . S
C3866 C3860 1.383 . S
C3866 C3865 1.379 . S
H3867 C3861 0.959 . S
H3868 C3861 0.961 . S
H3869 C3861 0.960 . S
H3870 C3862 0.930 . S
H3871 C3863 0.929 . S
H3872 C3880 0.929 . S
H3873 C3882 0.930 . S
H3874 C3884 0.930 . S
H3875 C3887 0.929 . S
H3876 C3890 0.930 . S
H3877 C3892 0.960 . S
H3878 C3892 0.960 . S
H3879 C3892 0.960 . S
C3880 H3872 0.929 . S
C3880 C3881 1.377 . S
C3880 C3882 1.384 . S
C3881 C3880 1.377 . S
C3881 C3887 1.390 . S
C3882 H3873 0.930 . S
C3882 C3880 1.384 . S
C3882 C3883 1.372 . S
C3883 C3882 1.372 . S
C3883 C3884 1.400 . S
C3883 C3888 1.490 . S
C3884 H3874 0.930 . S
C3884 C3883 1.400 . S
C3884 C3887 1.386 . S
H3885 C3901 0.930 . S
H3886 C3902 0.931 . S
C3887 H3875 0.929 . S
C3887 C3881 1.390 . S
C3887 C3884 1.386 . S
C3888 C3883 1.490 . S
C3888 C3890 1.395 . S
C3888 C3891 1.403 . S
H3889 C3895 0.930 . S
C3890 H3876 0.930 . S
C3890 C3888 1.395 . S
C3890 C3893 1.403 . S
C3891 C3888 1.403 . S
C3891 C3892 1.524 . S
C3891 C3895 1.400 . S
C3892 H3877 0.960 . S
C3892 H3878 0.960 . S
C3892 H3879 0.960 . S
C3892 C3891 1.524 . S
C3893 C3890 1.403 . S
C3893 C3894 1.392 . S
C3893 C3897 1.495 . S
C3894 C3893 1.392 . S
C3894 C3895 1.385 . S
C3894 C3896 1.478 . S
C3895 H3889 0.930 . S
C3895 C3891 1.400 . S
C3895 C3894 1.385 . S
C3896 C3894 1.478 . S
C3896 C3898 1.381 . S
C3896 C3902 1.383 . S
C3897 C3893 1.495 . S
C3897 H3903 0.959 . S
C3897 H3904 0.961 . S
C3897 H3905 0.960 . S
C3898 C3896 1.381 . S
C3898 C3899 1.394 . S
C3898 H3906 0.930 . S
C3899 C3898 1.394 . S
C3899 C3900 1.383 . S
C3899 H3907 0.929 . S
C3900 C3899 1.383 . S
C3900 C3901 1.377 . S
C3901 H3885 0.930 . S
C3901 C3900 1.377 . S
C3901 C3902 1.379 . S
C3902 H3886 0.931 . S
C3902 C3896 1.383 . S
C3902 C3901 1.379 . S
H3903 C3897 0.959 . S
H3904 C3897 0.961 . S
H3905 C3897 0.960 . S
H3906 C3898 0.930 . S
H3907 C3899 0.929 . S
H3908 C3916 0.929 . S
H3909 C3918 0.930 . S
H3910 C3920 0.930 . S
H3911 C3923 0.929 . S
H3912 C3926 0.930 . S
H3913 C3928 0.960 . S
H3914 C3928 0.960 . S
H3915 C3928 0.960 . S
C3916 H3908 0.929 . S
C3916 C3917 1.377 . S
C3916 C3918 1.384 . S
C3917 C3916 1.377 . S
C3917 C3923 1.390 . S
C3918 H3909 0.930 . S
C3918 C3916 1.384 . S
C3918 C3919 1.372 . S
C3919 C3918 1.372 . S
C3919 C3920 1.400 . S
C3919 C3924 1.490 . S
C3920 H3910 0.930 . S
C3920 C3919 1.400 . S
C3920 C3923 1.386 . S
H3921 C3937 0.930 . S
H3922 C3938 0.931 . S
C3923 H3911 0.929 . S
C3923 C3917 1.390 . S
C3923 C3920 1.386 . S
C3924 C3919 1.490 . S
C3924 C3926 1.395 . S
C3924 C3927 1.403 . S
H3925 C3931 0.930 . S
C3926 H3912 0.930 . S
C3926 C3924 1.395 . S
C3926 C3929 1.403 . S
C3927 C3924 1.403 . S
C3927 C3928 1.524 . S
C3927 C3931 1.400 . S
C3928 H3913 0.960 . S
C3928 H3914 0.960 . S
C3928 H3915 0.960 . S
C3928 C3927 1.524 . S
C3929 C3926 1.403 . S
C3929 C3930 1.392 . S
C3929 C3933 1.495 . S
C3930 C3929 1.392 . S
C3930 C3931 1.385 . S
C3930 C3932 1.478 . S
C3931 H3925 0.930 . S
C3931 C3927 1.400 . S
C3931 C3930 1.385 . S
C3932 C3930 1.478 . S
C3932 C3934 1.381 . S
C3932 C3938 1.383 . S
C3933 C3929 1.495 . S
C3933 H3939 0.959 . S
C3933 H3940 0.961 . S
C3933 H3941 0.960 . S
C3934 C3932 1.381 . S
C3934 C3935 1.394 . S
C3934 H3942 0.930 . S
C3935 C3934 1.394 . S
C3935 C3936 1.383 . S
C3935 H3943 0.929 . S
C3936 C3935 1.383 . S
C3936 C3937 1.377 . S
C3937 H3921 0.930 . S
C3937 C3936 1.377 . S
C3937 C3938 1.379 . S
C3938 H3922 0.931 . S
C3938 C3932 1.383 . S
C3938 C3937 1.379 . S
H3939 C3933 0.959 . S
H3940 C3933 0.961 . S
H3941 C3933 0.960 . S
H3942 C3934 0.930 . S
H3943 C3935 0.929 . S
H3944 C3952 0.929 . S
H3945 C3954 0.930 . S
H3946 C3956 0.930 . S
H3947 C3959 0.929 . S
H3948 C3962 0.930 . S
H3949 C3964 0.960 . S
H3950 C3964 0.960 . S
H3951 C3964 0.960 . S
C3952 H3944 0.929 . S
C3952 C3953 1.377 . S
C3952 C3954 1.384 . S
C3953 C3952 1.377 . S
C3953 C3959 1.390 . S
C3954 H3945 0.930 . S
C3954 C3952 1.384 . S
C3954 C3955 1.372 . S
C3955 C3954 1.372 . S
C3955 C3956 1.400 . S
C3955 C3960 1.490 . S
C3956 H3946 0.930 . S
C3956 C3955 1.400 . S
C3956 C3959 1.386 . S
H3957 C3973 0.930 . S
H3958 C3974 0.931 . S
C3959 H3947 0.929 . S
C3959 C3953 1.390 . S
C3959 C3956 1.386 . S
C3960 C3955 1.490 . S
C3960 C3962 1.395 . S
C3960 C3963 1.403 . S
H3961 C3967 0.930 . S
C3962 H3948 0.930 . S
C3962 C3960 1.395 . S
C3962 C3965 1.403 . S
C3963 C3960 1.403 . S
C3963 C3964 1.524 . S
C3963 C3967 1.400 . S
C3964 H3949 0.960 . S
C3964 H3950 0.960 . S
C3964 H3951 0.960 . S
C3964 C3963 1.524 . S
C3965 C3962 1.403 . S
C3965 C3966 1.392 . S
C3965 C3969 1.495 . S
C3966 C3965 1.392 . S
C3966 C3967 1.385 . S
C3966 C3968 1.478 . S
C3967 H3961 0.930 . S
C3967 C3963 1.400 . S
C3967 C3966 1.385 . S
C3968 C3966 1.478 . S
C3968 C3970 1.381 . S
C3968 C3974 1.383 . S
C3969 C3965 1.495 . S
C3969 H3975 0.959 . S
C3969 H3976 0.961 . S
C3969 H3977 0.960 . S
C3970 C3968 1.381 . S
C3970 C3971 1.394 . S
C3970 H3978 0.930 . S
C3971 C3970 1.394 . S
C3971 C3972 1.383 . S
C3971 H3979 0.929 . S
C3972 C3971 1.383 . S
C3972 C3973 1.377 . S
C3973 H3957 0.930 . S
C3973 C3972 1.377 . S
C3973 C3974 1.379 . S
C3974 H3958 0.931 . S
C3974 C3968 1.383 . S
C3974 C3973 1.379 . S
H3975 C3969 0.959 . S
H3976 C3969 0.961 . S
H3977 C3969 0.960 . S
H3978 C3970 0.930 . S
H3979 C3971 0.929 . S
H3980 C3988 0.929 . S
H3981 C3990 0.930 . S
H3982 C3992 0.930 . S
H3983 C3995 0.929 . S
H3984 C3998 0.930 . S
H3985 C4000 0.960 . S
H3986 C4000 0.960 . S
H3987 C4000 0.960 . S
C3988 H3980 0.929 . S
C3988 C3989 1.377 . S
C3988 C3990 1.384 . S
C3989 C3988 1.377 . S
C3989 C3995 1.390 . S
C3990 H3981 0.930 . S
C3990 C3988 1.384 . S
C3990 C3991 1.372 . S
C3991 C3990 1.372 . S
C3991 C3992 1.400 . S
C3991 C3996 1.490 . S
C3992 H3982 0.930 . S
C3992 C3991 1.400 . S
C3992 C3995 1.386 . S
H3993 C4009 0.930 . S
H3994 C4010 0.931 . S
C3995 H3983 0.929 . S
C3995 C3989 1.390 . S
C3995 C3992 1.386 . S
C3996 C3991 1.490 . S
C3996 C3998 1.395 . S
C3996 C3999 1.403 . S
H3997 C4003 0.930 . S
C3998 H3984 0.930 . S
C3998 C3996 1.395 . S
C3998 C4001 1.403 . S
C3999 C3996 1.403 . S
C3999 C4000 1.524 . S
C3999 C4003 1.400 . S
C4000 H3985 0.960 . S
C4000 H3986 0.960 . S
C4000 H3987 0.960 . S
C4000 C3999 1.524 . S
C4001 C3998 1.403 . S
C4001 C4002 1.392 . S
C4001 C4005 1.495 . S
C4002 C4001 1.392 . S
C4002 C4003 1.385 . S
C4002 C4004 1.478 . S
C4003 H3997 0.930 . S
C4003 C3999 1.400 . S
C4003 C4002 1.385 . S
C4004 C4002 1.478 . S
C4004 C4006 1.381 . S
C4004 C4010 1.383 . S
C4005 C4001 1.495 . S
C4005 H4011 0.959 . S
C4005 H4012 0.961 . S
C4005 H4013 0.960 . S
C4006 C4004 1.381 . S
C4006 C4007 1.394 . S
C4006 H4014 0.930 . S
C4007 C4006 1.394 . S
C4007 C4008 1.383 . S
C4007 H4015 0.929 . S
C4008 C4007 1.383 . S
C4008 C4009 1.377 . S
C4009 H3993 0.930 . S
C4009 C4008 1.377 . S
C4009 C4010 1.379 . S
C4010 H3994 0.931 . S
C4010 C4004 1.383 . S
C4010 C4009 1.379 . S
H4011 C4005 0.959 . S
H4012 C4005 0.961 . S
H4013 C4005 0.960 . S
H4014 C4006 0.930 . S
H4015 C4007 0.929 . S
H4016 C4024 0.929 . S
H4017 C4026 0.930 . S
H4018 C4028 0.930 . S
H4019 C4031 0.929 . S
H4020 C4034 0.930 . S
H4021 C4036 0.960 . S
H4022 C4036 0.960 . S
H4023 C4036 0.960 . S
C4024 H4016 0.929 . S
C4024 C4025 1.377 . S
C4024 C4026 1.384 . S
C4025 C4024 1.377 . S
C4025 C4031 1.390 . S
C4026 H4017 0.930 . S
C4026 C4024 1.384 . S
C4026 C4027 1.372 . S
C4027 C4026 1.372 . S
C4027 C4028 1.400 . S
C4027 C4032 1.490 . S
C4028 H4018 0.930 . S
C4028 C4027 1.400 . S
C4028 C4031 1.386 . S
H4029 C4045 0.930 . S
H4030 C4046 0.931 . S
C4031 H4019 0.929 . S
C4031 C4025 1.390 . S
C4031 C4028 1.386 . S
C4032 C4027 1.490 . S
C4032 C4034 1.395 . S
C4032 C4035 1.403 . S
H4033 C4039 0.930 . S
C4034 H4020 0.930 . S
C4034 C4032 1.395 . S
C4034 C4037 1.403 . S
C4035 C4032 1.403 . S
C4035 C4036 1.524 . S
C4035 C4039 1.400 . S
C4036 H4021 0.960 . S
C4036 H4022 0.960 . S
C4036 H4023 0.960 . S
C4036 C4035 1.524 . S
C4037 C4034 1.403 . S
C4037 C4038 1.392 . S
C4037 C4041 1.495 . S
C4038 C4037 1.392 . S
C4038 C4039 1.385 . S
C4038 C4040 1.478 . S
C4039 H4033 0.930 . S
C4039 C4035 1.400 . S
C4039 C4038 1.385 . S
C4040 C4038 1.478 . S
C4040 C4042 1.381 . S
C4040 C4046 1.383 . S
C4041 C4037 1.495 . S
C4041 H4047 0.959 . S
C4041 H4048 0.961 . S
C4041 H4049 0.960 . S
C4042 C4040 1.381 . S
C4042 C4043 1.394 . S
C4042 H4050 0.930 . S
C4043 C4042 1.394 . S
C4043 C4044 1.383 . S
C4043 H4051 0.929 . S
C4044 C4043 1.383 . S
C4044 C4045 1.377 . S
C4045 H4029 0.930 . S
C4045 C4044 1.377 . S
C4045 C4046 1.379 . S
C4046 H4030 0.931 . S
C4046 C4040 1.383 . S
C4046 C4045 1.379 . S
H4047 C4041 0.959 . S
H4048 C4041 0.961 . S
H4049 C4041 0.960 . S
H4050 C4042 0.930 . S
H4051 C4043 0.929 . S
H4052 C4060 0.929 . S
H4053 C4062 0.930 . S
H4054 C4064 0.930 . S
H4055 C4067 0.929 . S
H4056 C4070 0.930 . S
H4057 C4072 0.960 . S
H4058 C4072 0.960 . S
H4059 C4072 0.960 . S
C4060 H4052 0.929 . S
C4060 C4061 1.377 . S
C4060 C4062 1.384 . S
C4061 C4060 1.377 . S
C4061 C4067 1.390 . S
C4062 H4053 0.930 . S
C4062 C4060 1.384 . S
C4062 C4063 1.372 . S
C4063 C4062 1.372 . S
C4063 C4064 1.400 . S
C4063 C4068 1.490 . S
C4064 H4054 0.930 . S
C4064 C4063 1.400 . S
C4064 C4067 1.386 . S
H4065 C4081 0.930 . S
H4066 C4082 0.931 . S
C4067 H4055 0.929 . S
C4067 C4061 1.390 . S
C4067 C4064 1.386 . S
C4068 C4063 1.490 . S
C4068 C4070 1.395 . S
C4068 C4071 1.403 . S
H4069 C4075 0.930 . S
C4070 H4056 0.930 . S
C4070 C4068 1.395 . S
C4070 C4073 1.403 . S
C4071 C4068 1.403 . S
C4071 C4072 1.524 . S
C4071 C4075 1.400 . S
C4072 H4057 0.960 . S
C4072 H4058 0.960 . S
C4072 H4059 0.960 . S
C4072 C4071 1.524 . S
C4073 C4070 1.403 . S
C4073 C4074 1.392 . S
C4073 C4077 1.495 . S
C4074 C4073 1.392 . S
C4074 C4075 1.385 . S
C4074 C4076 1.478 . S
C4075 H4069 0.930 . S
C4075 C4071 1.400 . S
C4075 C4074 1.385 . S
C4076 C4074 1.478 . S
C4076 C4078 1.381 . S
C4076 C4082 1.383 . S
C4077 C4073 1.495 . S
C4077 H4083 0.959 . S
C4077 H4084 0.961 . S
C4077 H4085 0.960 . S
C4078 C4076 1.381 . S
C4078 C4079 1.394 . S
C4078 H4086 0.930 . S
C4079 C4078 1.394 . S
C4079 C4080 1.383 . S
C4079 H4087 0.929 . S
C4080 C4079 1.383 . S
C4080 C4081 1.377 . S
C4081 H4065 0.930 . S
C4081 C4080 1.377 . S
C4081 C4082 1.379 . S
C4082 H4066 0.931 . S
C4082 C4076 1.383 . S
C4082 C4081 1.379 . S
H4083 C4077 0.959 . S
H4084 C4077 0.961 . S
H4085 C4077 0.960 . S
H4086 C4078 0.930 . S
H4087 C4079 0.929 . S
H4088 C4096 0.929 . S
H4089 C4098 0.930 . S
H4090 C4100 0.930 . S
H4091 C4103 0.929 . S
H4092 C4106 0.930 . S
H4093 C4108 0.960 . S
H4094 C4108 0.960 . S
H4095 C4108 0.960 . S
C4096 H4088 0.929 . S
C4096 C4097 1.377 . S
C4096 C4098 1.384 . S
C4097 C4096 1.377 . S
C4097 C4103 1.390 . S
C4098 H4089 0.930 . S
C4098 C4096 1.384 . S
C4098 C4099 1.372 . S
C4099 C4098 1.372 . S
C4099 C4100 1.400 . S
C4099 C4104 1.490 . S
C4100 H4090 0.930 . S
C4100 C4099 1.400 . S
C4100 C4103 1.386 . S
H4101 C4117 0.930 . S
H4102 C4118 0.931 . S
C4103 H4091 0.929 . S
C4103 C4097 1.390 . S
C4103 C4100 1.386 . S
C4104 C4099 1.490 . S
C4104 C4106 1.395 . S
C4104 C4107 1.403 . S
H4105 C4111 0.930 . S
C4106 H4092 0.930 . S
C4106 C4104 1.395 . S
C4106 C4109 1.403 . S
C4107 C4104 1.403 . S
C4107 C4108 1.524 . S
C4107 C4111 1.400 . S
C4108 H4093 0.960 . S
C4108 H4094 0.960 . S
C4108 H4095 0.960 . S
C4108 C4107 1.524 . S
C4109 C4106 1.403 . S
C4109 C4110 1.392 . S
C4109 C4113 1.495 . S
C4110 C4109 1.392 . S
C4110 C4111 1.385 . S
C4110 C4112 1.478 . S
C4111 H4105 0.930 . S
C4111 C4107 1.400 . S
C4111 C4110 1.385 . S
C4112 C4110 1.478 . S
C4112 C4114 1.381 . S
C4112 C4118 1.383 . S
C4113 C4109 1.495 . S
C4113 H4119 0.959 . S
C4113 H4120 0.961 . S
C4113 H4121 0.960 . S
C4114 C4112 1.381 . S
C4114 C4115 1.394 . S
C4114 H4122 0.930 . S
C4115 C4114 1.394 . S
C4115 C4116 1.383 . S
C4115 H4123 0.929 . S
C4116 C4115 1.383 . S
C4116 C4117 1.377 . S
C4117 H4101 0.930 . S
C4117 C4116 1.377 . S
C4117 C4118 1.379 . S
C4118 H4102 0.931 . S
C4118 C4112 1.383 . S
C4118 C4117 1.379 . S
H4119 C4113 0.959 . S
H4120 C4113 0.961 . S
H4121 C4113 0.960 . S
H4122 C4114 0.930 . S
H4123 C4115 0.929 . S
H4124 C4132 0.929 . S
H4125 C4134 0.930 . S
H4126 C4136 0.930 . S
H4127 C4139 0.929 . S
H4128 C4142 0.930 . S
H4129 C4144 0.960 . S
H4130 C4144 0.960 . S
H4131 C4144 0.960 . S
C4132 H4124 0.929 . S
C4132 C4133 1.377 . S
C4132 C4134 1.384 . S
C4133 C4132 1.377 . S
C4133 C4139 1.390 . S
C4134 H4125 0.930 . S
C4134 C4132 1.384 . S
C4134 C4135 1.372 . S
C4135 C4134 1.372 . S
C4135 C4136 1.400 . S
C4135 C4140 1.490 . S
C4136 H4126 0.930 . S
C4136 C4135 1.400 . S
C4136 C4139 1.386 . S
H4137 C4153 0.930 . S
H4138 C4154 0.931 . S
C4139 H4127 0.929 . S
C4139 C4133 1.390 . S
C4139 C4136 1.386 . S
C4140 C4135 1.490 . S
C4140 C4142 1.395 . S
C4140 C4143 1.403 . S
H4141 C4147 0.930 . S
C4142 H4128 0.930 . S
C4142 C4140 1.395 . S
C4142 C4145 1.403 . S
C4143 C4140 1.403 . S
C4143 C4144 1.524 . S
C4143 C4147 1.400 . S
C4144 H4129 0.960 . S
C4144 H4130 0.960 . S
C4144 H4131 0.960 . S
C4144 C4143 1.524 . S
C4145 C4142 1.403 . S
C4145 C4146 1.392 . S
C4145 C4149 1.495 . S
C4146 C4145 1.392 . S
C4146 C4147 1.385 . S
C4146 C4148 1.478 . S
C4147 H4141 0.930 . S
C4147 C4143 1.400 . S
C4147 C4146 1.385 . S
C4148 C4146 1.478 . S
C4148 C4150 1.381 . S
C4148 C4154 1.383 . S
C4149 C4145 1.495 . S
C4149 H4155 0.959 . S
C4149 H4156 0.961 . S
C4149 H4157 0.960 . S
C4150 C4148 1.381 . S
C4150 C4151 1.394 . S
C4150 H4158 0.930 . S
C4151 C4150 1.394 . S
C4151 C4152 1.383 . S
C4151 H4159 0.929 . S
C4152 C4151 1.383 . S
C4152 C4153 1.377 . S
C4153 H4137 0.930 . S
C4153 C4152 1.377 . S
C4153 C4154 1.379 . S
C4154 H4138 0.931 . S
C4154 C4148 1.383 . S
C4154 C4153 1.379 . S
H4155 C4149 0.959 . S
H4156 C4149 0.961 . S
H4157 C4149 0.960 . S
H4158 C4150 0.930 . S
H4159 C4151 0.929 . S
H4160 C4168 0.929 . S
H4161 C4170 0.930 . S
H4162 C4172 0.930 . S
H4163 C4175 0.929 . S
H4164 C4178 0.930 . S
H4165 C4180 0.960 . S
H4166 C4180 0.960 . S
H4167 C4180 0.960 . S
C4168 H4160 0.929 . S
C4168 C4169 1.377 . S
C4168 C4170 1.384 . S
C4169 C4168 1.377 . S
C4169 C4175 1.390 . S
C4170 H4161 0.930 . S
C4170 C4168 1.384 . S
C4170 C4171 1.372 . S
C4171 C4170 1.372 . S
C4171 C4172 1.400 . S
C4171 C4176 1.490 . S
C4172 H4162 0.930 . S
C4172 C4171 1.400 . S
C4172 C4175 1.386 . S
H4173 C4189 0.930 . S
H4174 C4190 0.931 . S
C4175 H4163 0.929 . S
C4175 C4169 1.390 . S
C4175 C4172 1.386 . S
C4176 C4171 1.490 . S
C4176 C4178 1.395 . S
C4176 C4179 1.403 . S
H4177 C4183 0.930 . S
C4178 H4164 0.930 . S
C4178 C4176 1.395 . S
C4178 C4181 1.403 . S
C4179 C4176 1.403 . S
C4179 C4180 1.524 . S
C4179 C4183 1.400 . S
C4180 H4165 0.960 . S
C4180 H4166 0.960 . S
C4180 H4167 0.960 . S
C4180 C4179 1.524 . S
C4181 C4178 1.403 . S
C4181 C4182 1.392 . S
C4181 C4185 1.495 . S
C4182 C4181 1.392 . S
C4182 C4183 1.385 . S
C4182 C4184 1.478 . S
C4183 H4177 0.930 . S
C4183 C4179 1.400 . S
C4183 C4182 1.385 . S
C4184 C4182 1.478 . S
C4184 C4186 1.381 . S
C4184 C4190 1.383 . S
C4185 C4181 1.495 . S
C4185 H4191 0.959 . S
C4185 H4192 0.961 . S
C4185 H4193 0.960 . S
C4186 C4184 1.381 . S
C4186 C4187 1.394 . S
C4186 H4194 0.930 . S
C4187 C4186 1.394 . S
C4187 C4188 1.383 . S
C4187 H4195 0.929 . S
C4188 C4187 1.383 . S
C4188 C4189 1.377 . S
C4189 H4173 0.930 . S
C4189 C4188 1.377 . S
C4189 C4190 1.379 . S
C4190 H4174 0.931 . S
C4190 C4184 1.383 . S
C4190 C4189 1.379 . S
H4191 C4185 0.959 . S
H4192 C4185 0.961 . S
H4193 C4185 0.960 . S
H4194 C4186 0.930 . S
H4195 C4187 0.929 . S
H4196 C4204 0.929 . S
H4197 C4206 0.930 . S
H4198 C4208 0.930 . S
H4199 C4211 0.929 . S
H4200 C4214 0.930 . S
H4201 C4216 0.960 . S
H4202 C4216 0.960 . S
H4203 C4216 0.960 . S
C4204 H4196 0.929 . S
C4204 C4205 1.377 . S
C4204 C4206 1.384 . S
C4205 C4204 1.377 . S
C4205 C4211 1.390 . S
C4206 H4197 0.930 . S
C4206 C4204 1.384 . S
C4206 C4207 1.372 . S
C4207 C4206 1.372 . S
C4207 C4208 1.400 . S
C4207 C4212 1.490 . S
C4208 H4198 0.930 . S
C4208 C4207 1.400 . S
C4208 C4211 1.386 . S
H4209 C4225 0.930 . S
H4210 C4226 0.931 . S
C4211 H4199 0.929 . S
C4211 C4205 1.390 . S
C4211 C4208 1.386 . S
C4212 C4207 1.490 . S
C4212 C4214 1.395 . S
C4212 C4215 1.403 . S
H4213 C4219 0.930 . S
C4214 H4200 0.930 . S
C4214 C4212 1.395 . S
C4214 C4217 1.403 . S
C4215 C4212 1.403 . S
C4215 C4216 1.524 . S
C4215 C4219 1.400 . S
C4216 H4201 0.960 . S
C4216 H4202 0.960 . S
C4216 H4203 0.960 . S
C4216 C4215 1.524 . S
C4217 C4214 1.403 . S
C4217 C4218 1.392 . S
C4217 C4221 1.495 . S
C4218 C4217 1.392 . S
C4218 C4219 1.385 . S
C4218 C4220 1.478 . S
C4219 H4213 0.930 . S
C4219 C4215 1.400 . S
C4219 C4218 1.385 . S
C4220 C4218 1.478 . S
C4220 C4222 1.381 . S
C4220 C4226 1.383 . S
C4221 C4217 1.495 . S
C4221 H4227 0.959 . S
C4221 H4228 0.961 . S
C4221 H4229 0.960 . S
C4222 C4220 1.381 . S
C4222 C4223 1.394 . S
C4222 H4230 0.930 . S
C4223 C4222 1.394 . S
C4223 C4224 1.383 . S
C4223 H4231 0.929 . S
C4224 C4223 1.383 . S
C4224 C4225 1.377 . S
C4225 H4209 0.930 . S
C4225 C4224 1.377 . S
C4225 C4226 1.379 . S
C4226 H4210 0.931 . S
C4226 C4220 1.383 . S
C4226 C4225 1.379 . S
H4227 C4221 0.959 . S
H4228 C4221 0.961 . S
H4229 C4221 0.960 . S
H4230 C4222 0.930 . S
H4231 C4223 0.929 . S
H4232 C4240 0.929 . S
H4233 C4242 0.930 . S
H4234 C4244 0.930 . S
H4235 C4247 0.929 . S
H4236 C4250 0.930 . S
H4237 C4252 0.960 . S
H4238 C4252 0.960 . S
H4239 C4252 0.960 . S
C4240 H4232 0.929 . S
C4240 C4241 1.377 . S
C4240 C4242 1.384 . S
C4241 C4240 1.377 . S
C4241 C4247 1.390 . S
C4242 H4233 0.930 . S
C4242 C4240 1.384 . S
C4242 C4243 1.372 . S
C4243 C4242 1.372 . S
C4243 C4244 1.400 . S
C4243 C4248 1.490 . S
C4244 H4234 0.930 . S
C4244 C4243 1.400 . S
C4244 C4247 1.386 . S
H4245 C4261 0.930 . S
H4246 C4262 0.931 . S
C4247 H4235 0.929 . S
C4247 C4241 1.390 . S
C4247 C4244 1.386 . S
C4248 C4243 1.490 . S
C4248 C4250 1.395 . S
C4248 C4251 1.403 . S
H4249 C4255 0.930 . S
C4250 H4236 0.930 . S
C4250 C4248 1.395 . S
C4250 C4253 1.403 . S
C4251 C4248 1.403 . S
C4251 C4252 1.524 . S
C4251 C4255 1.400 . S
C4252 H4237 0.960 . S
C4252 H4238 0.960 . S
C4252 H4239 0.960 . S
C4252 C4251 1.524 . S
C4253 C4250 1.403 . S
C4253 C4254 1.392 . S
C4253 C4257 1.495 . S
C4254 C4253 1.392 . S
C4254 C4255 1.385 . S
C4254 C4256 1.478 . S
C4255 H4249 0.930 . S
C4255 C4251 1.400 . S
C4255 C4254 1.385 . S
C4256 C4254 1.478 . S
C4256 C4258 1.381 . S
C4256 C4262 1.383 . S
C4257 C4253 1.495 . S
C4257 H4263 0.959 . S
C4257 H4264 0.961 . S
C4257 H4265 0.960 . S
C4258 C4256 1.381 . S
C4258 C4259 1.394 . S
C4258 H4266 0.930 . S
C4259 C4258 1.394 . S
C4259 C4260 1.383 . S
C4259 H4267 0.929 . S
C4260 C4259 1.383 . S
C4260 C4261 1.377 . S
C4261 H4245 0.930 . S
C4261 C4260 1.377 . S
C4261 C4262 1.379 . S
C4262 H4246 0.931 . S
C4262 C4256 1.383 . S
C4262 C4261 1.379 . S
H4263 C4257 0.959 . S
H4264 C4257 0.961 . S
H4265 C4257 0.960 . S
H4266 C4258 0.930 . S
H4267 C4259 0.929 . S
H4268 C4276 0.929 . S
H4269 C4278 0.930 . S
H4270 C4280 0.930 . S
H4271 C4283 0.929 . S
H4272 C4286 0.930 . S
H4273 C4288 0.960 . S
H4274 C4288 0.960 . S
H4275 C4288 0.960 . S
C4276 H4268 0.929 . S
C4276 C4277 1.377 . S
C4276 C4278 1.384 . S
C4277 C4276 1.377 . S
C4277 C4283 1.390 . S
C4278 H4269 0.930 . S
C4278 C4276 1.384 . S
C4278 C4279 1.372 . S
C4279 C4278 1.372 . S
C4279 C4280 1.400 . S
C4279 C4284 1.490 . S
C4280 H4270 0.930 . S
C4280 C4279 1.400 . S
C4280 C4283 1.386 . S
H4281 C4297 0.930 . S
H4282 C4298 0.931 . S
C4283 H4271 0.929 . S
C4283 C4277 1.390 . S
C4283 C4280 1.386 . S
C4284 C4279 1.490 . S
C4284 C4286 1.395 . S
C4284 C4287 1.403 . S
H4285 C4291 0.930 . S
C4286 H4272 0.930 . S
C4286 C4284 1.395 . S
C4286 C4289 1.403 . S
C4287 C4284 1.403 . S
C4287 C4288 1.524 . S
C4287 C4291 1.400 . S
C4288 H4273 0.960 . S
C4288 H4274 0.960 . S
C4288 H4275 0.960 . S
C4288 C4287 1.524 . S
C4289 C4286 1.403 . S
C4289 C4290 1.392 . S
C4289 C4293 1.495 . S
C4290 C4289 1.392 . S
C4290 C4291 1.385 . S
C4290 C4292 1.478 . S
C4291 H4285 0.930 . S
C4291 C4287 1.400 . S
C4291 C4290 1.385 . S
C4292 C4290 1.478 . S
C4292 C4294 1.381 . S
C4292 C4298 1.383 . S
C4293 C4289 1.495 . S
C4293 H4299 0.959 . S
C4293 H4300 0.961 . S
C4293 H4301 0.960 . S
C4294 C4292 1.381 . S
C4294 C4295 1.394 . S
C4294 H4302 0.930 . S
C4295 C4294 1.394 . S
C4295 C4296 1.383 . S
C4295 H4303 0.929 . S
C4296 C4295 1.383 . S
C4296 C4297 1.377 . S
C4297 H4281 0.930 . S
C4297 C4296 1.377 . S
C4297 C4298 1.379 . S
C4298 H4282 0.931 . S
C4298 C4292 1.383 . S
C4298 C4297 1.379 . S
H4299 C4293 0.959 . S
H4300 C4293 0.961 . S
H4301 C4293 0.960 . S
H4302 C4294 0.930 . S
H4303 C4295 0.929 . S
H4304 C4312 0.929 . S
H4305 C4314 0.930 . S
H4306 C4316 0.930 . S
H4307 C4319 0.929 . S
H4308 C4322 0.930 . S
H4309 C4324 0.960 . S
H4310 C4324 0.960 . S
H4311 C4324 0.960 . S
C4312 H4304 0.929 . S
C4312 C4313 1.377 . S
C4312 C4314 1.384 . S
C4313 C4312 1.377 . S
C4313 C4319 1.390 . S
C4314 H4305 0.930 . S
C4314 C4312 1.384 . S
C4314 C4315 1.372 . S
C4315 C4314 1.372 . S
C4315 C4316 1.400 . S
C4315 C4320 1.490 . S
C4316 H4306 0.930 . S
C4316 C4315 1.400 . S
C4316 C4319 1.386 . S
H4317 C4333 0.930 . S
H4318 C4334 0.931 . S
C4319 H4307 0.929 . S
C4319 C4313 1.390 . S
C4319 C4316 1.386 . S
C4320 C4315 1.490 . S
C4320 C4322 1.395 . S
C4320 C4323 1.403 . S
H4321 C4327 0.930 . S
C4322 H4308 0.930 . S
C4322 C4320 1.395 . S
C4322 C4325 1.403 . S
C4323 C4320 1.403 . S
C4323 C4324 1.524 . S
C4323 C4327 1.400 . S
C4324 H4309 0.960 . S
C4324 H4310 0.960 . S
C4324 H4311 0.960 . S
C4324 C4323 1.524 . S
C4325 C4322 1.403 . S
C4325 C4326 1.392 . S
C4325 C4329 1.495 . S
C4326 C4325 1.392 . S
C4326 C4327 1.385 . S
C4326 C4328 1.478 . S
C4327 H4321 0.930 . S
C4327 C4323 1.400 . S
C4327 C4326 1.385 . S
C4328 C4326 1.478 . S
C4328 C4330 1.381 . S
C4328 C4334 1.383 . S
C4329 C4325 1.495 . S
C4329 H4335 0.959 . S
C4329 H4336 0.961 . S
C4329 H4337 0.960 . S
C4330 C4328 1.381 . S
C4330 C4331 1.394 . S
C4330 H4338 0.930 . S
C4331 C4330 1.394 . S
C4331 C4332 1.383 . S
C4331 H4339 0.929 . S
C4332 C4331 1.383 . S
C4332 C4333 1.377 . S
C4333 H4317 0.930 . S
C4333 C4332 1.377 . S
C4333 C4334 1.379 . S
C4334 H4318 0.931 . S
C4334 C4328 1.383 . S
C4334 C4333 1.379 . S
H4335 C4329 0.959 . S
H4336 C4329 0.961 . S
H4337 C4329 0.960 . S
H4338 C4330 0.930 . S
H4339 C4331 0.929 . S
H4340 C4348 0.929 . S
H4341 C4350 0.930 . S
H4342 C4352 0.930 . S
H4343 C4355 0.929 . S
H4344 C4358 0.930 . S
H4345 C4360 0.960 . S
H4346 C4360 0.960 . S
H4347 C4360 0.960 . S
C4348 H4340 0.929 . S
C4348 C4349 1.377 . S
C4348 C4350 1.384 . S
C4349 C4348 1.377 . S
C4349 C4355 1.390 . S
C4350 H4341 0.930 . S
C4350 C4348 1.384 . S
C4350 C4351 1.372 . S
C4351 C4350 1.372 . S
C4351 C4352 1.400 . S
C4351 C4356 1.490 . S
C4352 H4342 0.930 . S
C4352 C4351 1.400 . S
C4352 C4355 1.386 . S
H4353 C4369 0.930 . S
H4354 C4370 0.931 . S
C4355 H4343 0.929 . S
C4355 C4349 1.390 . S
C4355 C4352 1.386 . S
C4356 C4351 1.490 . S
C4356 C4358 1.395 . S
C4356 C4359 1.403 . S
H4357 C4363 0.930 . S
C4358 H4344 0.930 . S
C4358 C4356 1.395 . S
C4358 C4361 1.403 . S
C4359 C4356 1.403 . S
C4359 C4360 1.524 . S
C4359 C4363 1.400 . S
C4360 H4345 0.960 . S
C4360 H4346 0.960 . S
C4360 H4347 0.960 . S
C4360 C4359 1.524 . S
C4361 C4358 1.403 . S
C4361 C4362 1.392 . S
C4361 C4365 1.495 . S
C4362 C4361 1.392 . S
C4362 C4363 1.385 . S
C4362 C4364 1.478 . S
C4363 H4357 0.930 . S
C4363 C4359 1.400 . S
C4363 C4362 1.385 . S
C4364 C4362 1.478 . S
C4364 C4366 1.381 . S
C4364 C4370 1.383 . S
C4365 C4361 1.495 . S
C4365 H4371 0.959 . S
C4365 H4372 0.961 . S
C4365 H4373 0.960 . S
C4366 C4364 1.381 . S
C4366 C4367 1.394 . S
C4366 H4374 0.930 . S
C4367 C4366 1.394 . S
C4367 C4368 1.383 . S
C4367 H4375 0.929 . S
C4368 C4367 1.383 . S
C4368 C4369 1.377 . S
C4369 H4353 0.930 . S
C4369 C4368 1.377 . S
C4369 C4370 1.379 . S
C4370 H4354 0.931 . S
C4370 C4364 1.383 . S
C4370 C4369 1.379 . S
H4371 C4365 0.959 . S
H4372 C4365 0.961 . S
H4373 C4365 0.960 . S
H4374 C4366 0.930 . S
H4375 C4367 0.929 . S
H4376 C4384 0.929 . S
H4377 C4386 0.930 . S
H4378 C4388 0.930 . S
H4379 C4391 0.929 . S
H4380 C4394 0.930 . S
H4381 C4396 0.960 . S
H4382 C4396 0.960 . S
H4383 C4396 0.960 . S
C4384 H4376 0.929 . S
C4384 C4385 1.377 . S
C4384 C4386 1.384 . S
C4385 C4384 1.377 . S
C4385 C4391 1.390 . S
C4386 H4377 0.930 . S
C4386 C4384 1.384 . S
C4386 C4387 1.372 . S
C4387 C4386 1.372 . S
C4387 C4388 1.400 . S
C4387 C4392 1.490 . S
C4388 H4378 0.930 . S
C4388 C4387 1.400 . S
C4388 C4391 1.386 . S
H4389 C4405 0.930 . S
H4390 C4406 0.931 . S
C4391 H4379 0.929 . S
C4391 C4385 1.390 . S
C4391 C4388 1.386 . S
C4392 C4387 1.490 . S
C4392 C4394 1.395 . S
C4392 C4395 1.403 . S
H4393 C4399 0.930 . S
C4394 H4380 0.930 . S
C4394 C4392 1.395 . S
C4394 C4397 1.403 . S
C4395 C4392 1.403 . S
C4395 C4396 1.524 . S
C4395 C4399 1.400 . S
C4396 H4381 0.960 . S
C4396 H4382 0.960 . S
C4396 H4383 0.960 . S
C4396 C4395 1.524 . S
C4397 C4394 1.403 . S
C4397 C4398 1.392 . S
C4397 C4401 1.495 . S
C4398 C4397 1.392 . S
C4398 C4399 1.385 . S
C4398 C4400 1.478 . S
C4399 H4393 0.930 . S
C4399 C4395 1.400 . S
C4399 C4398 1.385 . S
C4400 C4398 1.478 . S
C4400 C4402 1.381 . S
C4400 C4406 1.383 . S
C4401 C4397 1.495 . S
C4401 H4407 0.959 . S
C4401 H4408 0.961 . S
C4401 H4409 0.960 . S
C4402 C4400 1.381 . S
C4402 C4403 1.394 . S
C4402 H4410 0.930 . S
C4403 C4402 1.394 . S
C4403 C4404 1.383 . S
C4403 H4411 0.929 . S
C4404 C4403 1.383 . S
C4404 C4405 1.377 . S
C4405 H4389 0.930 . S
C4405 C4404 1.377 . S
C4405 C4406 1.379 . S
C4406 H4390 0.931 . S
C4406 C4400 1.383 . S
C4406 C4405 1.379 . S
H4407 C4401 0.959 . S
H4408 C4401 0.961 . S
H4409 C4401 0.960 . S
H4410 C4402 0.930 . S
H4411 C4403 0.929 . S
H4412 C4420 0.929 . S
H4413 C4422 0.930 . S
H4414 C4424 0.930 . S
H4415 C4427 0.929 . S
H4416 C4430 0.930 . S
H4417 C4432 0.960 . S
H4418 C4432 0.960 . S
H4419 C4432 0.960 . S
C4420 H4412 0.929 . S
C4420 C4421 1.377 . S
C4420 C4422 1.384 . S
C4421 C4420 1.377 . S
C4421 C4427 1.390 . S
C4422 H4413 0.930 . S
C4422 C4420 1.384 . S
C4422 C4423 1.372 . S
C4423 C4422 1.372 . S
C4423 C4424 1.400 . S
C4423 C4428 1.490 . S
C4424 H4414 0.930 . S
C4424 C4423 1.400 . S
C4424 C4427 1.386 . S
H4425 C4441 0.930 . S
H4426 C4442 0.931 . S
C4427 H4415 0.929 . S
C4427 C4421 1.390 . S
C4427 C4424 1.386 . S
C4428 C4423 1.490 . S
C4428 C4430 1.395 . S
C4428 C4431 1.403 . S
H4429 C4435 0.930 . S
C4430 H4416 0.930 . S
C4430 C4428 1.395 . S
C4430 C4433 1.403 . S
C4431 C4428 1.403 . S
C4431 C4432 1.524 . S
C4431 C4435 1.400 . S
C4432 H4417 0.960 . S
C4432 H4418 0.960 . S
C4432 H4419 0.960 . S
C4432 C4431 1.524 . S
C4433 C4430 1.403 . S
C4433 C4434 1.392 . S
C4433 C4437 1.495 . S
C4434 C4433 1.392 . S
C4434 C4435 1.385 . S
C4434 C4436 1.478 . S
C4435 H4429 0.930 . S
C4435 C4431 1.400 . S
C4435 C4434 1.385 . S
C4436 C4434 1.478 . S
C4436 C4438 1.381 . S
C4436 C4442 1.383 . S
C4437 C4433 1.495 . S
C4437 H4443 0.959 . S
C4437 H4444 0.961 . S
C4437 H4445 0.960 . S
C4438 C4436 1.381 . S
C4438 C4439 1.394 . S
C4438 H4446 0.930 . S
C4439 C4438 1.394 . S
C4439 C4440 1.383 . S
C4439 H4447 0.929 . S
C4440 C4439 1.383 . S
C4440 C4441 1.377 . S
C4441 H4425 0.930 . S
C4441 C4440 1.377 . S
C4441 C4442 1.379 . S
C4442 H4426 0.931 . S
C4442 C4436 1.383 . S
C4442 C4441 1.379 . S
H4443 C4437 0.959 . S
H4444 C4437 0.961 . S
H4445 C4437 0.960 . S
H4446 C4438 0.930 . S
H4447 C4439 0.929 . S
H4448 C4456 0.929 . S
H4449 C4458 0.930 . S
H4450 C4460 0.930 . S
H4451 C4463 0.929 . S
H4452 C4466 0.930 . S
H4453 C4468 0.960 . S
H4454 C4468 0.960 . S
H4455 C4468 0.960 . S
C4456 H4448 0.929 . S
C4456 C4457 1.377 . S
C4456 C4458 1.384 . S
C4457 C4456 1.377 . S
C4457 C4463 1.390 . S
C4458 H4449 0.930 . S
C4458 C4456 1.384 . S
C4458 C4459 1.372 . S
C4459 C4458 1.372 . S
C4459 C4460 1.400 . S
C4459 C4464 1.490 . S
C4460 H4450 0.930 . S
C4460 C4459 1.400 . S
C4460 C4463 1.386 . S
H4461 C4477 0.930 . S
H4462 C4478 0.931 . S
C4463 H4451 0.929 . S
C4463 C4457 1.390 . S
C4463 C4460 1.386 . S
C4464 C4459 1.490 . S
C4464 C4466 1.395 . S
C4464 C4467 1.403 . S
H4465 C4471 0.930 . S
C4466 H4452 0.930 . S
C4466 C4464 1.395 . S
C4466 C4469 1.403 . S
C4467 C4464 1.403 . S
C4467 C4468 1.524 . S
C4467 C4471 1.400 . S
C4468 H4453 0.960 . S
C4468 H4454 0.960 . S
C4468 H4455 0.960 . S
C4468 C4467 1.524 . S
C4469 C4466 1.403 . S
C4469 C4470 1.392 . S
C4469 C4473 1.495 . S
C4470 C4469 1.392 . S
C4470 C4471 1.385 . S
C4470 C4472 1.478 . S
C4471 H4465 0.930 . S
C4471 C4467 1.400 . S
C4471 C4470 1.385 . S
C4472 C4470 1.478 . S
C4472 C4474 1.381 . S
C4472 C4478 1.383 . S
C4473 C4469 1.495 . S
C4473 H4479 0.959 . S
C4473 H4480 0.961 . S
C4473 H4481 0.960 . S
C4474 C4472 1.381 . S
C4474 C4475 1.394 . S
C4474 H4482 0.930 . S
C4475 C4474 1.394 . S
C4475 C4476 1.383 . S
C4475 H4483 0.929 . S
C4476 C4475 1.383 . S
C4476 C4477 1.377 . S
C4477 H4461 0.930 . S
C4477 C4476 1.377 . S
C4477 C4478 1.379 . S
C4478 H4462 0.931 . S
C4478 C4472 1.383 . S
C4478 C4477 1.379 . S
H4479 C4473 0.959 . S
H4480 C4473 0.961 . S
H4481 C4473 0.960 . S
H4482 C4474 0.930 . S
H4483 C4475 0.929 . S
H4484 C4492 0.929 . S
H4485 C4494 0.930 . S
H4486 C4496 0.930 . S
H4487 C4499 0.929 . S
H4488 C4502 0.930 . S
H4489 C4504 0.960 . S
H4490 C4504 0.960 . S
H4491 C4504 0.960 . S
C4492 H4484 0.929 . S
C4492 C4493 1.377 . S
C4492 C4494 1.384 . S
C4493 C4492 1.377 . S
C4493 C4499 1.390 . S
C4494 H4485 0.930 . S
C4494 C4492 1.384 . S
C4494 C4495 1.372 . S
C4495 C4494 1.372 . S
C4495 C4496 1.400 . S
C4495 C4500 1.490 . S
C4496 H4486 0.930 . S
C4496 C4495 1.400 . S
C4496 C4499 1.386 . S
H4497 C4513 0.930 . S
H4498 C4514 0.931 . S
C4499 H4487 0.929 . S
C4499 C4493 1.390 . S
C4499 C4496 1.386 . S
C4500 C4495 1.490 . S
C4500 C4502 1.395 . S
C4500 C4503 1.403 . S
H4501 C4507 0.930 . S
C4502 H4488 0.930 . S
C4502 C4500 1.395 . S
C4502 C4505 1.403 . S
C4503 C4500 1.403 . S
C4503 C4504 1.524 . S
C4503 C4507 1.400 . S
C4504 H4489 0.960 . S
C4504 H4490 0.960 . S
C4504 H4491 0.960 . S
C4504 C4503 1.524 . S
C4505 C4502 1.403 . S
C4505 C4506 1.392 . S
C4505 C4509 1.495 . S
C4506 C4505 1.392 . S
C4506 C4507 1.385 . S
C4506 C4508 1.478 . S
C4507 H4501 0.930 . S
C4507 C4503 1.400 . S
C4507 C4506 1.385 . S
C4508 C4506 1.478 . S
C4508 C4510 1.381 . S
C4508 C4514 1.383 . S
C4509 C4505 1.495 . S
C4509 H4515 0.959 . S
C4509 H4516 0.961 . S
C4509 H4517 0.960 . S
C4510 C4508 1.381 . S
C4510 C4511 1.394 . S
C4510 H4518 0.930 . S
C4511 C4510 1.394 . S
C4511 C4512 1.383 . S
C4511 H4519 0.929 . S
C4512 C4511 1.383 . S
C4512 C4513 1.377 . S
C4513 H4497 0.930 . S
C4513 C4512 1.377 . S
C4513 C4514 1.379 . S
C4514 H4498 0.931 . S
C4514 C4508 1.383 . S
C4514 C4513 1.379 . S
H4515 C4509 0.959 . S
H4516 C4509 0.961 . S
H4517 C4509 0.960 . S
H4518 C4510 0.930 . S
H4519 C4511 0.929 . S
H4520 C4528 0.929 . S
H4521 C4530 0.930 . S
H4522 C4532 0.930 . S
H4523 C4535 0.929 . S
H4524 C4538 0.930 . S
H4525 C4540 0.960 . S
H4526 C4540 0.960 . S
H4527 C4540 0.960 . S
C4528 H4520 0.929 . S
C4528 C4529 1.377 . S
C4528 C4530 1.384 . S
C4529 C4528 1.377 . S
C4529 C4535 1.390 . S
C4530 H4521 0.930 . S
C4530 C4528 1.384 . S
C4530 C4531 1.372 . S
C4531 C4530 1.372 . S
C4531 C4532 1.400 . S
C4531 C4536 1.490 . S
C4532 H4522 0.930 . S
C4532 C4531 1.400 . S
C4532 C4535 1.386 . S
H4533 C4549 0.930 . S
H4534 C4550 0.931 . S
C4535 H4523 0.929 . S
C4535 C4529 1.390 . S
C4535 C4532 1.386 . S
C4536 C4531 1.490 . S
C4536 C4538 1.395 . S
C4536 C4539 1.403 . S
H4537 C4543 0.930 . S
C4538 H4524 0.930 . S
C4538 C4536 1.395 . S
C4538 C4541 1.403 . S
C4539 C4536 1.403 . S
C4539 C4540 1.524 . S
C4539 C4543 1.400 . S
C4540 H4525 0.960 . S
C4540 H4526 0.960 . S
C4540 H4527 0.960 . S
C4540 C4539 1.524 . S
C4541 C4538 1.403 . S
C4541 C4542 1.392 . S
C4541 C4545 1.495 . S
C4542 C4541 1.392 . S
C4542 C4543 1.385 . S
C4542 C4544 1.478 . S
C4543 H4537 0.930 . S
C4543 C4539 1.400 . S
C4543 C4542 1.385 . S
C4544 C4542 1.478 . S
C4544 C4546 1.381 . S
C4544 C4550 1.383 . S
C4545 C4541 1.495 . S
C4545 H4551 0.959 . S
C4545 H4552 0.961 . S
C4545 H4553 0.960 . S
C4546 C4544 1.381 . S
C4546 C4547 1.394 . S
C4546 H4554 0.930 . S
C4547 C4546 1.394 . S
C4547 C4548 1.383 . S
C4547 H4555 0.929 . S
C4548 C4547 1.383 . S
C4548 C4549 1.377 . S
C4549 H4533 0.930 . S
C4549 C4548 1.377 . S
C4549 C4550 1.379 . S
C4550 H4534 0.931 . S
C4550 C4544 1.383 . S
C4550 C4549 1.379 . S
H4551 C4545 0.959 . S
H4552 C4545 0.961 . S
H4553 C4545 0.960 . S
H4554 C4546 0.930 . S
H4555 C4547 0.929 . S
H4556 C4564 0.929 . S
H4557 C4566 0.930 . S
H4558 C4568 0.930 . S
H4559 C4571 0.929 . S
H4560 C4574 0.930 . S
H4561 C4576 0.960 . S
H4562 C4576 0.960 . S
H4563 C4576 0.960 . S
C4564 H4556 0.929 . S
C4564 C4565 1.377 . S
C4564 C4566 1.384 . S
C4565 C4564 1.377 . S
C4565 C4571 1.390 . S
C4566 H4557 0.930 . S
C4566 C4564 1.384 . S
C4566 C4567 1.372 . S
C4567 C4566 1.372 . S
C4567 C4568 1.400 . S
C4567 C4572 1.490 . S
C4568 H4558 0.930 . S
C4568 C4567 1.400 . S
C4568 C4571 1.386 . S
H4569 C4585 0.930 . S
H4570 C4586 0.931 . S
C4571 H4559 0.929 . S
C4571 C4565 1.390 . S
C4571 C4568 1.386 . S
C4572 C4567 1.490 . S
C4572 C4574 1.395 . S
C4572 C4575 1.403 . S
H4573 C4579 0.930 . S
C4574 H4560 0.930 . S
C4574 C4572 1.395 . S
C4574 C4577 1.403 . S
C4575 C4572 1.403 . S
C4575 C4576 1.524 . S
C4575 C4579 1.400 . S
C4576 H4561 0.960 . S
C4576 H4562 0.960 . S
C4576 H4563 0.960 . S
C4576 C4575 1.524 . S
C4577 C4574 1.403 . S
C4577 C4578 1.392 . S
C4577 C4581 1.495 . S
C4578 C4577 1.392 . S
C4578 C4579 1.385 . S
C4578 C4580 1.478 . S
C4579 H4573 0.930 . S
C4579 C4575 1.400 . S
C4579 C4578 1.385 . S
C4580 C4578 1.478 . S
C4580 C4582 1.381 . S
C4580 C4586 1.383 . S
C4581 C4577 1.495 . S
C4581 H4587 0.959 . S
C4581 H4588 0.961 . S
C4581 H4589 0.960 . S
C4582 C4580 1.381 . S
C4582 C4583 1.394 . S
C4582 H4590 0.930 . S
C4583 C4582 1.394 . S
C4583 C4584 1.383 . S
C4583 H4591 0.929 . S
C4584 C4583 1.383 . S
C4584 C4585 1.377 . S
C4585 H4569 0.930 . S
C4585 C4584 1.377 . S
C4585 C4586 1.379 . S
C4586 H4570 0.931 . S
C4586 C4580 1.383 . S
C4586 C4585 1.379 . S
H4587 C4581 0.959 . S
H4588 C4581 0.961 . S
H4589 C4581 0.960 . S
H4590 C4582 0.930 . S
H4591 C4583 0.929 . S
H4592 C4600 0.929 . S
H4593 C4602 0.930 . S
H4594 C4604 0.930 . S
H4595 C4607 0.929 . S
H4596 C4610 0.930 . S
H4597 C4612 0.960 . S
H4598 C4612 0.960 . S
H4599 C4612 0.960 . S
C4600 H4592 0.929 . S
C4600 C4601 1.377 . S
C4600 C4602 1.384 . S
C4601 C4600 1.377 . S
C4601 C4607 1.390 . S
C4602 H4593 0.930 . S
C4602 C4600 1.384 . S
C4602 C4603 1.372 . S
C4603 C4602 1.372 . S
C4603 C4604 1.400 . S
C4603 C4608 1.490 . S
C4604 H4594 0.930 . S
C4604 C4603 1.400 . S
C4604 C4607 1.386 . S
H4605 C4621 0.930 . S
H4606 C4622 0.931 . S
C4607 H4595 0.929 . S
C4607 C4601 1.390 . S
C4607 C4604 1.386 . S
C4608 C4603 1.490 . S
C4608 C4610 1.395 . S
C4608 C4611 1.403 . S
H4609 C4615 0.930 . S
C4610 H4596 0.930 . S
C4610 C4608 1.395 . S
C4610 C4613 1.403 . S
C4611 C4608 1.403 . S
C4611 C4612 1.524 . S
C4611 C4615 1.400 . S
C4612 H4597 0.960 . S
C4612 H4598 0.960 . S
C4612 H4599 0.960 . S
C4612 C4611 1.524 . S
C4613 C4610 1.403 . S
C4613 C4614 1.392 . S
C4613 C4617 1.495 . S
C4614 C4613 1.392 . S
C4614 C4615 1.385 . S
C4614 C4616 1.478 . S
C4615 H4609 0.930 . S
C4615 C4611 1.400 . S
C4615 C4614 1.385 . S
C4616 C4614 1.478 . S
C4616 C4618 1.381 . S
C4616 C4622 1.383 . S
C4617 C4613 1.495 . S
C4617 H4623 0.959 . S
C4617 H4624 0.961 . S
C4617 H4625 0.960 . S
C4618 C4616 1.381 . S
C4618 C4619 1.394 . S
C4618 H4626 0.930 . S
C4619 C4618 1.394 . S
C4619 C4620 1.383 . S
C4619 H4627 0.929 . S
C4620 C4619 1.383 . S
C4620 C4621 1.377 . S
C4621 H4605 0.930 . S
C4621 C4620 1.377 . S
C4621 C4622 1.379 . S
C4622 H4606 0.931 . S
C4622 C4616 1.383 . S
C4622 C4621 1.379 . S
H4623 C4617 0.959 . S
H4624 C4617 0.961 . S
H4625 C4617 0.960 . S
H4626 C4618 0.930 . S
H4627 C4619 0.929 . S
H4628 C4636 0.929 . S
H4629 C4638 0.930 . S
H4630 C4640 0.930 . S
H4631 C4643 0.929 . S
H4632 C4646 0.930 . S
H4633 C4648 0.960 . S
H4634 C4648 0.960 . S
H4635 C4648 0.960 . S
C4636 H4628 0.929 . S
C4636 C4637 1.377 . S
C4636 C4638 1.384 . S
C4637 C4636 1.377 . S
C4637 C4643 1.390 . S
C4638 H4629 0.930 . S
C4638 C4636 1.384 . S
C4638 C4639 1.372 . S
C4639 C4638 1.372 . S
C4639 C4640 1.400 . S
C4639 C4644 1.490 . S
C4640 H4630 0.930 . S
C4640 C4639 1.400 . S
C4640 C4643 1.386 . S
H4641 C4657 0.930 . S
H4642 C4658 0.931 . S
C4643 H4631 0.929 . S
C4643 C4637 1.390 . S
C4643 C4640 1.386 . S
C4644 C4639 1.490 . S
C4644 C4646 1.395 . S
C4644 C4647 1.403 . S
H4645 C4651 0.930 . S
C4646 H4632 0.930 . S
C4646 C4644 1.395 . S
C4646 C4649 1.403 . S
C4647 C4644 1.403 . S
C4647 C4648 1.524 . S
C4647 C4651 1.400 . S
C4648 H4633 0.960 . S
C4648 H4634 0.960 . S
C4648 H4635 0.960 . S
C4648 C4647 1.524 . S
C4649 C4646 1.403 . S
C4649 C4650 1.392 . S
C4649 C4653 1.495 . S
C4650 C4649 1.392 . S
C4650 C4651 1.385 . S
C4650 C4652 1.478 . S
C4651 H4645 0.930 . S
C4651 C4647 1.400 . S
C4651 C4650 1.385 . S
C4652 C4650 1.478 . S
C4652 C4654 1.381 . S
C4652 C4658 1.383 . S
C4653 C4649 1.495 . S
C4653 H4659 0.959 . S
C4653 H4660 0.961 . S
C4653 H4661 0.960 . S
C4654 C4652 1.381 . S
C4654 C4655 1.394 . S
C4654 H4662 0.930 . S
C4655 C4654 1.394 . S
C4655 C4656 1.383 . S
C4655 H4663 0.929 . S
C4656 C4655 1.383 . S
C4656 C4657 1.377 . S
C4657 H4641 0.930 . S
C4657 C4656 1.377 . S
C4657 C4658 1.379 . S
C4658 H4642 0.931 . S
C4658 C4652 1.383 . S
C4658 C4657 1.379 . S
H4659 C4653 0.959 . S
H4660 C4653 0.961 . S
H4661 C4653 0.960 . S
H4662 C4654 0.930 . S
H4663 C4655 0.929 . S
H4664 C4672 0.929 . S
H4665 C4674 0.930 . S
H4666 C4676 0.930 . S
H4667 C4679 0.929 . S
H4668 C4682 0.930 . S
H4669 C4684 0.960 . S
H4670 C4684 0.960 . S
H4671 C4684 0.960 . S
C4672 H4664 0.929 . S
C4672 C4673 1.377 . S
C4672 C4674 1.384 . S
C4673 C4672 1.377 . S
C4673 C4679 1.390 . S
C4674 H4665 0.930 . S
C4674 C4672 1.384 . S
C4674 C4675 1.372 . S
C4675 C4674 1.372 . S
C4675 C4676 1.400 . S
C4675 C4680 1.490 . S
C4676 H4666 0.930 . S
C4676 C4675 1.400 . S
C4676 C4679 1.386 . S
H4677 C4693 0.930 . S
H4678 C4694 0.931 . S
C4679 H4667 0.929 . S
C4679 C4673 1.390 . S
C4679 C4676 1.386 . S
C4680 C4675 1.490 . S
C4680 C4682 1.395 . S
C4680 C4683 1.403 . S
H4681 C4687 0.930 . S
C4682 H4668 0.930 . S
C4682 C4680 1.395 . S
C4682 C4685 1.403 . S
C4683 C4680 1.403 . S
C4683 C4684 1.524 . S
C4683 C4687 1.400 . S
C4684 H4669 0.960 . S
C4684 H4670 0.960 . S
C4684 H4671 0.960 . S
C4684 C4683 1.524 . S
C4685 C4682 1.403 . S
C4685 C4686 1.392 . S
C4685 C4689 1.495 . S
C4686 C4685 1.392 . S
C4686 C4687 1.385 . S
C4686 C4688 1.478 . S
C4687 H4681 0.930 . S
C4687 C4683 1.400 . S
C4687 C4686 1.385 . S
C4688 C4686 1.478 . S
C4688 C4690 1.381 . S
C4688 C4694 1.383 . S
C4689 C4685 1.495 . S
C4689 H4695 0.959 . S
C4689 H4696 0.961 . S
C4689 H4697 0.960 . S
C4690 C4688 1.381 . S
C4690 C4691 1.394 . S
C4690 H4698 0.930 . S
C4691 C4690 1.394 . S
C4691 C4692 1.383 . S
C4691 H4699 0.929 . S
C4692 C4691 1.383 . S
C4692 C4693 1.377 . S
C4693 H4677 0.930 . S
C4693 C4692 1.377 . S
C4693 C4694 1.379 . S
C4694 H4678 0.931 . S
C4694 C4688 1.383 . S
C4694 C4693 1.379 . S
H4695 C4689 0.959 . S
H4696 C4689 0.961 . S
H4697 C4689 0.960 . S
H4698 C4690 0.930 . S
H4699 C4691 0.929 . S
H4700 C4708 0.929 . S
H4701 C4710 0.930 . S
H4702 C4712 0.930 . S
H4703 C4715 0.929 . S
H4704 C4718 0.930 . S
H4705 C4720 0.960 . S
H4706 C4720 0.960 . S
H4707 C4720 0.960 . S
C4708 H4700 0.929 . S
C4708 C4709 1.377 . S
C4708 C4710 1.384 . S
C4709 C4708 1.377 . S
C4709 C4715 1.390 . S
C4710 H4701 0.930 . S
C4710 C4708 1.384 . S
C4710 C4711 1.372 . S
C4711 C4710 1.372 . S
C4711 C4712 1.400 . S
C4711 C4716 1.490 . S
C4712 H4702 0.930 . S
C4712 C4711 1.400 . S
C4712 C4715 1.386 . S
H4713 C4729 0.930 . S
H4714 C4730 0.931 . S
C4715 H4703 0.929 . S
C4715 C4709 1.390 . S
C4715 C4712 1.386 . S
C4716 C4711 1.490 . S
C4716 C4718 1.395 . S
C4716 C4719 1.403 . S
H4717 C4723 0.930 . S
C4718 H4704 0.930 . S
C4718 C4716 1.395 . S
C4718 C4721 1.403 . S
C4719 C4716 1.403 . S
C4719 C4720 1.524 . S
C4719 C4723 1.400 . S
C4720 H4705 0.960 . S
C4720 H4706 0.960 . S
C4720 H4707 0.960 . S
C4720 C4719 1.524 . S
C4721 C4718 1.403 . S
C4721 C4722 1.392 . S
C4721 C4725 1.495 . S
C4722 C4721 1.392 . S
C4722 C4723 1.385 . S
C4722 C4724 1.478 . S
C4723 H4717 0.930 . S
C4723 C4719 1.400 . S
C4723 C4722 1.385 . S
C4724 C4722 1.478 . S
C4724 C4726 1.381 . S
C4724 C4730 1.383 . S
C4725 C4721 1.495 . S
C4725 H4731 0.959 . S
C4725 H4732 0.961 . S
C4725 H4733 0.960 . S
C4726 C4724 1.381 . S
C4726 C4727 1.394 . S
C4726 H4734 0.930 . S
C4727 C4726 1.394 . S
C4727 C4728 1.383 . S
C4727 H4735 0.929 . S
C4728 C4727 1.383 . S
C4728 C4729 1.377 . S
C4729 H4713 0.930 . S
C4729 C4728 1.377 . S
C4729 C4730 1.379 . S
C4730 H4714 0.931 . S
C4730 C4724 1.383 . S
C4730 C4729 1.379 . S
H4731 C4725 0.959 . S
H4732 C4725 0.961 . S
H4733 C4725 0.960 . S
H4734 C4726 0.930 . S
H4735 C4727 0.929 . S
H4736 C4744 0.929 . S
H4737 C4746 0.930 . S
H4738 C4748 0.930 . S
H4739 C4751 0.929 . S
H4740 C4754 0.930 . S
H4741 C4756 0.960 . S
H4742 C4756 0.960 . S
H4743 C4756 0.960 . S
C4744 H4736 0.929 . S
C4744 C4745 1.377 . S
C4744 C4746 1.384 . S
C4745 C4744 1.377 . S
C4745 C4751 1.390 . S
C4746 H4737 0.930 . S
C4746 C4744 1.384 . S
C4746 C4747 1.372 . S
C4747 C4746 1.372 . S
C4747 C4748 1.400 . S
C4747 C4752 1.490 . S
C4748 H4738 0.930 . S
C4748 C4747 1.400 . S
C4748 C4751 1.386 . S
H4749 C4765 0.930 . S
H4750 C4766 0.931 . S
C4751 H4739 0.929 . S
C4751 C4745 1.390 . S
C4751 C4748 1.386 . S
C4752 C4747 1.490 . S
C4752 C4754 1.395 . S
C4752 C4755 1.403 . S
H4753 C4759 0.930 . S
C4754 H4740 0.930 . S
C4754 C4752 1.395 . S
C4754 C4757 1.403 . S
C4755 C4752 1.403 . S
C4755 C4756 1.524 . S
C4755 C4759 1.400 . S
C4756 H4741 0.960 . S
C4756 H4742 0.960 . S
C4756 H4743 0.960 . S
C4756 C4755 1.524 . S
C4757 C4754 1.403 . S
C4757 C4758 1.392 . S
C4757 C4761 1.495 . S
C4758 C4757 1.392 . S
C4758 C4759 1.385 . S
C4758 C4760 1.478 . S
C4759 H4753 0.930 . S
C4759 C4755 1.400 . S
C4759 C4758 1.385 . S
C4760 C4758 1.478 . S
C4760 C4762 1.381 . S
C4760 C4766 1.383 . S
C4761 C4757 1.495 . S
C4761 H4767 0.959 . S
C4761 H4768 0.961 . S
C4761 H4769 0.960 . S
C4762 C4760 1.381 . S
C4762 C4763 1.394 . S
C4762 H4770 0.930 . S
C4763 C4762 1.394 . S
C4763 C4764 1.383 . S
C4763 H4771 0.929 . S
C4764 C4763 1.383 . S
C4764 C4765 1.377 . S
C4765 H4749 0.930 . S
C4765 C4764 1.377 . S
C4765 C4766 1.379 . S
C4766 H4750 0.931 . S
C4766 C4760 1.383 . S
C4766 C4765 1.379 . S
H4767 C4761 0.959 . S
H4768 C4761 0.961 . S
H4769 C4761 0.960 . S
H4770 C4762 0.930 . S
H4771 C4763 0.929 . S
H4772 C4780 0.929 . S
H4773 C4782 0.930 . S
H4774 C4784 0.930 . S
H4775 C4787 0.929 . S
H4776 C4790 0.930 . S
H4777 C4792 0.960 . S
H4778 C4792 0.960 . S
H4779 C4792 0.960 . S
C4780 H4772 0.929 . S
C4780 C4781 1.377 . S
C4780 C4782 1.384 . S
C4781 C4780 1.377 . S
C4781 C4787 1.390 . S
C4782 H4773 0.930 . S
C4782 C4780 1.384 . S
C4782 C4783 1.372 . S
C4783 C4782 1.372 . S
C4783 C4784 1.400 . S
C4783 C4788 1.490 . S
C4784 H4774 0.930 . S
C4784 C4783 1.400 . S
C4784 C4787 1.386 . S
H4785 C4801 0.930 . S
H4786 C4802 0.931 . S
C4787 H4775 0.929 . S
C4787 C4781 1.390 . S
C4787 C4784 1.386 . S
C4788 C4783 1.490 . S
C4788 C4790 1.395 . S
C4788 C4791 1.403 . S
H4789 C4795 0.930 . S
C4790 H4776 0.930 . S
C4790 C4788 1.395 . S
C4790 C4793 1.403 . S
C4791 C4788 1.403 . S
C4791 C4792 1.524 . S
C4791 C4795 1.400 . S
C4792 H4777 0.960 . S
C4792 H4778 0.960 . S
C4792 H4779 0.960 . S
C4792 C4791 1.524 . S
C4793 C4790 1.403 . S
C4793 C4794 1.392 . S
C4793 C4797 1.495 . S
C4794 C4793 1.392 . S
C4794 C4795 1.385 . S
C4794 C4796 1.478 . S
C4795 H4789 0.930 . S
C4795 C4791 1.400 . S
C4795 C4794 1.385 . S
C4796 C4794 1.478 . S
C4796 C4798 1.381 . S
C4796 C4802 1.383 . S
C4797 C4793 1.495 . S
C4797 H4803 0.959 . S
C4797 H4804 0.961 . S
C4797 H4805 0.960 . S
C4798 C4796 1.381 . S
C4798 C4799 1.394 . S
C4798 H4806 0.930 . S
C4799 C4798 1.394 . S
C4799 C4800 1.383 . S
C4799 H4807 0.929 . S
C4800 C4799 1.383 . S
C4800 C4801 1.377 . S
C4801 H4785 0.930 . S
C4801 C4800 1.377 . S
C4801 C4802 1.379 . S
C4802 H4786 0.931 . S
C4802 C4796 1.383 . S
C4802 C4801 1.379 . S
H4803 C4797 0.959 . S
H4804 C4797 0.961 . S
H4805 C4797 0.960 . S
H4806 C4798 0.930 . S
H4807 C4799 0.929 . S
H4808 C4816 0.929 . S
H4809 C4818 0.930 . S
H4810 C4820 0.930 . S
H4811 C4823 0.929 . S
H4812 C4826 0.930 . S
H4813 C4828 0.960 . S
H4814 C4828 0.960 . S
H4815 C4828 0.960 . S
C4816 H4808 0.929 . S
C4816 C4817 1.377 . S
C4816 C4818 1.384 . S
C4817 C4816 1.377 . S
C4817 C4823 1.390 . S
C4818 H4809 0.930 . S
C4818 C4816 1.384 . S
C4818 C4819 1.372 . S
C4819 C4818 1.372 . S
C4819 C4820 1.400 . S
C4819 C4824 1.490 . S
C4820 H4810 0.930 . S
C4820 C4819 1.400 . S
C4820 C4823 1.386 . S
H4821 C4837 0.930 . S
H4822 C4838 0.931 . S
C4823 H4811 0.929 . S
C4823 C4817 1.390 . S
C4823 C4820 1.386 . S
C4824 C4819 1.490 . S
C4824 C4826 1.395 . S
C4824 C4827 1.403 . S
H4825 C4831 0.930 . S
C4826 H4812 0.930 . S
C4826 C4824 1.395 . S
C4826 C4829 1.403 . S
C4827 C4824 1.403 . S
C4827 C4828 1.524 . S
C4827 C4831 1.400 . S
C4828 H4813 0.960 . S
C4828 H4814 0.960 . S
C4828 H4815 0.960 . S
C4828 C4827 1.524 . S
C4829 C4826 1.403 . S
C4829 C4830 1.392 . S
C4829 C4833 1.495 . S
C4830 C4829 1.392 . S
C4830 C4831 1.385 . S
C4830 C4832 1.478 . S
C4831 H4825 0.930 . S
C4831 C4827 1.400 . S
C4831 C4830 1.385 . S
C4832 C4830 1.478 . S
C4832 C4834 1.381 . S
C4832 C4838 1.383 . S
C4833 C4829 1.495 . S
C4833 H4839 0.959 . S
C4833 H4840 0.961 . S
C4833 H4841 0.960 . S
C4834 C4832 1.381 . S
C4834 C4835 1.394 . S
C4834 H4842 0.930 . S
C4835 C4834 1.394 . S
C4835 C4836 1.383 . S
C4835 H4843 0.929 . S
C4836 C4835 1.383 . S
C4836 C4837 1.377 . S
C4837 H4821 0.930 . S
C4837 C4836 1.377 . S
C4837 C4838 1.379 . S
C4838 H4822 0.931 . S
C4838 C4832 1.383 . S
C4838 C4837 1.379 . S
H4839 C4833 0.959 . S
H4840 C4833 0.961 . S
H4841 C4833 0.960 . S
H4842 C4834 0.930 . S
H4843 C4835 0.929 . S
H4844 C4852 0.929 . S
H4845 C4854 0.930 . S
H4846 C4856 0.930 . S
H4847 C4859 0.929 . S
H4848 C4862 0.930 . S
H4849 C4864 0.960 . S
H4850 C4864 0.960 . S
H4851 C4864 0.960 . S
C4852 H4844 0.929 . S
C4852 C4853 1.377 . S
C4852 C4854 1.384 . S
C4853 C4852 1.377 . S
C4853 C4859 1.390 . S
C4854 H4845 0.930 . S
C4854 C4852 1.384 . S
C4854 C4855 1.372 . S
C4855 C4854 1.372 . S
C4855 C4856 1.400 . S
C4855 C4860 1.490 . S
C4856 H4846 0.930 . S
C4856 C4855 1.400 . S
C4856 C4859 1.386 . S
H4857 C4873 0.930 . S
H4858 C4874 0.931 . S
C4859 H4847 0.929 . S
C4859 C4853 1.390 . S
C4859 C4856 1.386 . S
C4860 C4855 1.490 . S
C4860 C4862 1.395 . S
C4860 C4863 1.403 . S
H4861 C4867 0.930 . S
C4862 H4848 0.930 . S
C4862 C4860 1.395 . S
C4862 C4865 1.403 . S
C4863 C4860 1.403 . S
C4863 C4864 1.524 . S
C4863 C4867 1.400 . S
C4864 H4849 0.960 . S
C4864 H4850 0.960 . S
C4864 H4851 0.960 . S
C4864 C4863 1.524 . S
C4865 C4862 1.403 . S
C4865 C4866 1.392 . S
C4865 C4869 1.495 . S
C4866 C4865 1.392 . S
C4866 C4867 1.385 . S
C4866 C4868 1.478 . S
C4867 H4861 0.930 . S
C4867 C4863 1.400 . S
C4867 C4866 1.385 . S
C4868 C4866 1.478 . S
C4868 C4870 1.381 . S
C4868 C4874 1.383 . S
C4869 C4865 1.495 . S
C4869 H4875 0.959 . S
C4869 H4876 0.961 . S
C4869 H4877 0.960 . S
C4870 C4868 1.381 . S
C4870 C4871 1.394 . S
C4870 H4878 0.930 . S
C4871 C4870 1.394 . S
C4871 C4872 1.383 . S
C4871 H4879 0.929 . S
C4872 C4871 1.383 . S
C4872 C4873 1.377 . S
C4873 H4857 0.930 . S
C4873 C4872 1.377 . S
C4873 C4874 1.379 . S
C4874 H4858 0.931 . S
C4874 C4868 1.383 . S
C4874 C4873 1.379 . S
H4875 C4869 0.959 . S
H4876 C4869 0.961 . S
H4877 C4869 0.960 . S
H4878 C4870 0.930 . S
H4879 C4871 0.929 . S
H4880 C4888 0.929 . S
H4881 C4890 0.930 . S
H4882 C4892 0.930 . S
H4883 C4895 0.929 . S
H4884 C4898 0.930 . S
H4885 C4900 0.960 . S
H4886 C4900 0.960 . S
H4887 C4900 0.960 . S
C4888 H4880 0.929 . S
C4888 C4889 1.377 . S
C4888 C4890 1.384 . S
C4889 C4888 1.377 . S
C4889 C4895 1.390 . S
C4890 H4881 0.930 . S
C4890 C4888 1.384 . S
C4890 C4891 1.372 . S
C4891 C4890 1.372 . S
C4891 C4892 1.400 . S
C4891 C4896 1.490 . S
C4892 H4882 0.930 . S
C4892 C4891 1.400 . S
C4892 C4895 1.386 . S
H4893 C4909 0.930 . S
H4894 C4910 0.931 . S
C4895 H4883 0.929 . S
C4895 C4889 1.390 . S
C4895 C4892 1.386 . S
C4896 C4891 1.490 . S
C4896 C4898 1.395 . S
C4896 C4899 1.403 . S
H4897 C4903 0.930 . S
C4898 H4884 0.930 . S
C4898 C4896 1.395 . S
C4898 C4901 1.403 . S
C4899 C4896 1.403 . S
C4899 C4900 1.524 . S
C4899 C4903 1.400 . S
C4900 H4885 0.960 . S
C4900 H4886 0.960 . S
C4900 H4887 0.960 . S
C4900 C4899 1.524 . S
C4901 C4898 1.403 . S
C4901 C4902 1.392 . S
C4901 C4905 1.495 . S
C4902 C4901 1.392 . S
C4902 C4903 1.385 . S
C4902 C4904 1.478 . S
C4903 H4897 0.930 . S
C4903 C4899 1.400 . S
C4903 C4902 1.385 . S
C4904 C4902 1.478 . S
C4904 C4906 1.381 . S
C4904 C4910 1.383 . S
C4905 C4901 1.495 . S
C4905 H4911 0.959 . S
C4905 H4912 0.961 . S
C4905 H4913 0.960 . S
C4906 C4904 1.381 . S
C4906 C4907 1.394 . S
C4906 H4914 0.930 . S
C4907 C4906 1.394 . S
C4907 C4908 1.383 . S
C4907 H4915 0.929 . S
C4908 C4907 1.383 . S
C4908 C4909 1.377 . S
C4909 H4893 0.930 . S
C4909 C4908 1.377 . S
C4909 C4910 1.379 . S
C4910 H4894 0.931 . S
C4910 C4904 1.383 . S
C4910 C4909 1.379 . S
H4911 C4905 0.959 . S
H4912 C4905 0.961 . S
H4913 C4905 0.960 . S
H4914 C4906 0.930 . S
H4915 C4907 0.929 . S
H4916 C4924 0.929 . S
H4917 C4926 0.930 . S
H4918 C4928 0.930 . S
H4919 C4931 0.929 . S
H4920 C4934 0.930 . S
H4921 C4936 0.960 . S
H4922 C4936 0.960 . S
H4923 C4936 0.960 . S
C4924 H4916 0.929 . S
C4924 C4925 1.377 . S
C4924 C4926 1.384 . S
C4925 C4924 1.377 . S
C4925 C4931 1.390 . S
C4926 H4917 0.930 . S
C4926 C4924 1.384 . S
C4926 C4927 1.372 . S
C4927 C4926 1.372 . S
C4927 C4928 1.400 . S
C4927 C4932 1.490 . S
C4928 H4918 0.930 . S
C4928 C4927 1.400 . S
C4928 C4931 1.386 . S
H4929 C4945 0.930 . S
H4930 C4946 0.931 . S
C4931 H4919 0.929 . S
C4931 C4925 1.390 . S
C4931 C4928 1.386 . S
C4932 C4927 1.490 . S
C4932 C4934 1.395 . S
C4932 C4935 1.403 . S
H4933 C4939 0.930 . S
C4934 H4920 0.930 . S
C4934 C4932 1.395 . S
C4934 C4937 1.403 . S
C4935 C4932 1.403 . S
C4935 C4936 1.524 . S
C4935 C4939 1.400 . S
C4936 H4921 0.960 . S
C4936 H4922 0.960 . S
C4936 H4923 0.960 . S
C4936 C4935 1.524 . S
C4937 C4934 1.403 . S
C4937 C4938 1.392 . S
C4937 C4941 1.495 . S
C4938 C4937 1.392 . S
C4938 C4939 1.385 . S
C4938 C4940 1.478 . S
C4939 H4933 0.930 . S
C4939 C4935 1.400 . S
C4939 C4938 1.385 . S
C4940 C4938 1.478 . S
C4940 C4942 1.381 . S
C4940 C4946 1.383 . S
C4941 C4937 1.495 . S
C4941 H4947 0.959 . S
C4941 H4948 0.961 . S
C4941 H4949 0.960 . S
C4942 C4940 1.381 . S
C4942 C4943 1.394 . S
C4942 H4950 0.930 . S
C4943 C4942 1.394 . S
C4943 C4944 1.383 . S
C4943 H4951 0.929 . S
C4944 C4943 1.383 . S
C4944 C4945 1.377 . S
C4945 H4929 0.930 . S
C4945 C4944 1.377 . S
C4945 C4946 1.379 . S
C4946 H4930 0.931 . S
C4946 C4940 1.383 . S
C4946 C4945 1.379 . S
H4947 C4941 0.959 . S
H4948 C4941 0.961 . S
H4949 C4941 0.960 . S
H4950 C4942 0.930 . S
H4951 C4943 0.929 . S
H4952 C4960 0.929 . S
H4953 C4962 0.930 . S
H4954 C4964 0.930 . S
H4955 C4967 0.929 . S
H4956 C4970 0.930 . S
H4957 C4972 0.960 . S
H4958 C4972 0.960 . S
H4959 C4972 0.960 . S
C4960 H4952 0.929 . S
C4960 C4961 1.377 . S
C4960 C4962 1.384 . S
C4961 C4960 1.377 . S
C4961 C4967 1.390 . S
C4962 H4953 0.930 . S
C4962 C4960 1.384 . S
C4962 C4963 1.372 . S
C4963 C4962 1.372 . S
C4963 C4964 1.400 . S
C4963 C4968 1.490 . S
C4964 H4954 0.930 . S
C4964 C4963 1.400 . S
C4964 C4967 1.386 . S
H4965 C4981 0.930 . S
H4966 C4982 0.931 . S
C4967 H4955 0.929 . S
C4967 C4961 1.390 . S
C4967 C4964 1.386 . S
C4968 C4963 1.490 . S
C4968 C4970 1.395 . S
C4968 C4971 1.403 . S
H4969 C4975 0.930 . S
C4970 H4956 0.930 . S
C4970 C4968 1.395 . S
C4970 C4973 1.403 . S
C4971 C4968 1.403 . S
C4971 C4972 1.524 . S
C4971 C4975 1.400 . S
C4972 H4957 0.960 . S
C4972 H4958 0.960 . S
C4972 H4959 0.960 . S
C4972 C4971 1.524 . S
C4973 C4970 1.403 . S
C4973 C4974 1.392 . S
C4973 C4977 1.495 . S
C4974 C4973 1.392 . S
C4974 C4975 1.385 . S
C4974 C4976 1.478 . S
C4975 H4969 0.930 . S
C4975 C4971 1.400 . S
C4975 C4974 1.385 . S
C4976 C4974 1.478 . S
C4976 C4978 1.381 . S
C4976 C4982 1.383 . S
C4977 C4973 1.495 . S
C4977 H4983 0.959 . S
C4977 H4984 0.961 . S
C4977 H4985 0.960 . S
C4978 C4976 1.381 . S
C4978 C4979 1.394 . S
C4978 H4986 0.930 . S
C4979 C4978 1.394 . S
C4979 C4980 1.383 . S
C4979 H4987 0.929 . S
C4980 C4979 1.383 . S
C4980 C4981 1.377 . S
C4981 H4965 0.930 . S
C4981 C4980 1.377 . S
C4981 C4982 1.379 . S
C4982 H4966 0.931 . S
C4982 C4976 1.383 . S
C4982 C4981 1.379 . S
H4983 C4977 0.959 . S
H4984 C4977 0.961 . S
H4985 C4977 0.960 . S
H4986 C4978 0.930 . S
H4987 C4979 0.929 . S
H4988 C4996 0.929 . S
H4989 C4998 0.930 . S
H4990 C5000 0.930 . S
H4991 C5003 0.929 . S
H4992 C5006 0.930 . S
H4993 C5008 0.960 . S
H4994 C5008 0.960 . S
H4995 C5008 0.960 . S
C4996 H4988 0.929 . S
C4996 C4997 1.377 . S
C4996 C4998 1.384 . S
C4997 C4996 1.377 . S
C4997 C5003 1.390 . S
C4998 H4989 0.930 . S
C4998 C4996 1.384 . S
C4998 C4999 1.372 . S
C4999 C4998 1.372 . S
C4999 C5000 1.400 . S
C4999 C5004 1.490 . S
C5000 H4990 0.930 . S
C5000 C4999 1.400 . S
C5000 C5003 1.386 . S
H5001 C5017 0.930 . S
H5002 C5018 0.931 . S
C5003 H4991 0.929 . S
C5003 C4997 1.390 . S
C5003 C5000 1.386 . S
C5004 C4999 1.490 . S
C5004 C5006 1.395 . S
C5004 C5007 1.403 . S
H5005 C5011 0.930 . S
C5006 H4992 0.930 . S
C5006 C5004 1.395 . S
C5006 C5009 1.403 . S
C5007 C5004 1.403 . S
C5007 C5008 1.524 . S
C5007 C5011 1.400 . S
C5008 H4993 0.960 . S
C5008 H4994 0.960 . S
C5008 H4995 0.960 . S
C5008 C5007 1.524 . S
C5009 C5006 1.403 . S
C5009 C5010 1.392 . S
C5009 C5013 1.495 . S
C5010 C5009 1.392 . S
C5010 C5011 1.385 . S
C5010 C5012 1.478 . S
C5011 H5005 0.930 . S
C5011 C5007 1.400 . S
C5011 C5010 1.385 . S
C5012 C5010 1.478 . S
C5012 C5014 1.381 . S
C5012 C5018 1.383 . S
C5013 C5009 1.495 . S
C5013 H5019 0.959 . S
C5013 H5020 0.961 . S
C5013 H5021 0.960 . S
C5014 C5012 1.381 . S
C5014 C5015 1.394 . S
C5014 H5022 0.930 . S
C5015 C5014 1.394 . S
C5015 C5016 1.383 . S
C5015 H5023 0.929 . S
C5016 C5015 1.383 . S
C5016 C5017 1.377 . S
C5017 H5001 0.930 . S
C5017 C5016 1.377 . S
C5017 C5018 1.379 . S
C5018 H5002 0.931 . S
C5018 C5012 1.383 . S
C5018 C5017 1.379 . S
H5019 C5013 0.959 . S
H5020 C5013 0.961 . S
H5021 C5013 0.960 . S
H5022 C5014 0.930 . S
H5023 C5015 0.929 . S
H5024 C5032 0.929 . S
H5025 C5034 0.930 . S
H5026 C5036 0.930 . S
H5027 C5039 0.929 . S
H5028 C5042 0.930 . S
H5029 C5044 0.960 . S
H5030 C5044 0.960 . S
H5031 C5044 0.960 . S
C5032 H5024 0.929 . S
C5032 C5033 1.377 . S
C5032 C5034 1.384 . S
C5033 C5032 1.377 . S
C5033 C5039 1.390 . S
C5034 H5025 0.930 . S
C5034 C5032 1.384 . S
C5034 C5035 1.372 . S
C5035 C5034 1.372 . S
C5035 C5036 1.400 . S
C5035 C5040 1.490 . S
C5036 H5026 0.930 . S
C5036 C5035 1.400 . S
C5036 C5039 1.386 . S
H5037 C5053 0.930 . S
H5038 C5054 0.931 . S
C5039 H5027 0.929 . S
C5039 C5033 1.390 . S
C5039 C5036 1.386 . S
C5040 C5035 1.490 . S
C5040 C5042 1.395 . S
C5040 C5043 1.403 . S
H5041 C5047 0.930 . S
C5042 H5028 0.930 . S
C5042 C5040 1.395 . S
C5042 C5045 1.403 . S
C5043 C5040 1.403 . S
C5043 C5044 1.524 . S
C5043 C5047 1.400 . S
C5044 H5029 0.960 . S
C5044 H5030 0.960 . S
C5044 H5031 0.960 . S
C5044 C5043 1.524 . S
C5045 C5042 1.403 . S
C5045 C5046 1.392 . S
C5045 C5049 1.495 . S
C5046 C5045 1.392 . S
C5046 C5047 1.385 . S
C5046 C5048 1.478 . S
C5047 H5041 0.930 . S
C5047 C5043 1.400 . S
C5047 C5046 1.385 . S
C5048 C5046 1.478 . S
C5048 C5050 1.381 . S
C5048 C5054 1.383 . S
C5049 C5045 1.495 . S
C5049 H5055 0.959 . S
C5049 H5056 0.961 . S
C5049 H5057 0.960 . S
C5050 C5048 1.381 . S
C5050 C5051 1.394 . S
C5050 H5058 0.930 . S
C5051 C5050 1.394 . S
C5051 C5052 1.383 . S
C5051 H5059 0.929 . S
C5052 C5051 1.383 . S
C5052 C5053 1.377 . S
C5053 H5037 0.930 . S
C5053 C5052 1.377 . S
C5053 C5054 1.379 . S
C5054 H5038 0.931 . S
C5054 C5048 1.383 . S
C5054 C5053 1.379 . S
H5055 C5049 0.959 . S
H5056 C5049 0.961 . S
H5057 C5049 0.960 . S
H5058 C5050 0.930 . S
H5059 C5051 0.929 . S
H5060 C5068 0.929 . S
H5061 C5070 0.930 . S
H5062 C5072 0.930 . S
H5063 C5075 0.929 . S
H5064 C5078 0.930 . S
H5065 C5080 0.960 . S
H5066 C5080 0.960 . S
H5067 C5080 0.960 . S
C5068 H5060 0.929 . S
C5068 C5069 1.377 . S
C5068 C5070 1.384 . S
C5069 C5068 1.377 . S
C5069 C5075 1.390 . S
C5070 H5061 0.930 . S
C5070 C5068 1.384 . S
C5070 C5071 1.372 . S
C5071 C5070 1.372 . S
C5071 C5072 1.400 . S
C5071 C5076 1.490 . S
C5072 H5062 0.930 . S
C5072 C5071 1.400 . S
C5072 C5075 1.386 . S
H5073 C5089 0.930 . S
H5074 C5090 0.931 . S
C5075 H5063 0.929 . S
C5075 C5069 1.390 . S
C5075 C5072 1.386 . S
C5076 C5071 1.490 . S
C5076 C5078 1.395 . S
C5076 C5079 1.403 . S
H5077 C5083 0.930 . S
C5078 H5064 0.930 . S
C5078 C5076 1.395 . S
C5078 C5081 1.403 . S
C5079 C5076 1.403 . S
C5079 C5080 1.524 . S
C5079 C5083 1.400 . S
C5080 H5065 0.960 . S
C5080 H5066 0.960 . S
C5080 H5067 0.960 . S
C5080 C5079 1.524 . S
C5081 C5078 1.403 . S
C5081 C5082 1.392 . S
C5081 C5085 1.495 . S
C5082 C5081 1.392 . S
C5082 C5083 1.385 . S
C5082 C5084 1.478 . S
C5083 H5077 0.930 . S
C5083 C5079 1.400 . S
C5083 C5082 1.385 . S
C5084 C5082 1.478 . S
C5084 C5086 1.381 . S
C5084 C5090 1.383 . S
C5085 C5081 1.495 . S
C5085 H5091 0.959 . S
C5085 H5092 0.961 . S
C5085 H5093 0.960 . S
C5086 C5084 1.381 . S
C5086 C5087 1.394 . S
C5086 H5094 0.930 . S
C5087 C5086 1.394 . S
C5087 C5088 1.383 . S
C5087 H5095 0.929 . S
C5088 C5087 1.383 . S
C5088 C5089 1.377 . S
C5089 H5073 0.930 . S
C5089 C5088 1.377 . S
C5089 C5090 1.379 . S
C5090 H5074 0.931 . S
C5090 C5084 1.383 . S
C5090 C5089 1.379 . S
H5091 C5085 0.959 . S
H5092 C5085 0.961 . S
H5093 C5085 0.960 . S
H5094 C5086 0.930 . S
H5095 C5087 0.929 . S
H5096 C5104 0.929 . S
H5097 C5106 0.930 . S
H5098 C5108 0.930 . S
H5099 C5111 0.929 . S
H5100 C5114 0.930 . S
H5101 C5116 0.960 . S
H5102 C5116 0.960 . S
H5103 C5116 0.960 . S
C5104 H5096 0.929 . S
C5104 C5105 1.377 . S
C5104 C5106 1.384 . S
C5105 C5104 1.377 . S
C5105 C5111 1.390 . S
C5106 H5097 0.930 . S
C5106 C5104 1.384 . S
C5106 C5107 1.372 . S
C5107 C5106 1.372 . S
C5107 C5108 1.400 . S
C5107 C5112 1.490 . S
C5108 H5098 0.930 . S
C5108 C5107 1.400 . S
C5108 C5111 1.386 . S
H5109 C5125 0.930 . S
H5110 C5126 0.931 . S
C5111 H5099 0.929 . S
C5111 C5105 1.390 . S
C5111 C5108 1.386 . S
C5112 C5107 1.490 . S
C5112 C5114 1.395 . S
C5112 C5115 1.403 . S
H5113 C5119 0.930 . S
C5114 H5100 0.930 . S
C5114 C5112 1.395 . S
C5114 C5117 1.403 . S
C5115 C5112 1.403 . S
C5115 C5116 1.524 . S
C5115 C5119 1.400 . S
C5116 H5101 0.960 . S
C5116 H5102 0.960 . S
C5116 H5103 0.960 . S
C5116 C5115 1.524 . S
C5117 C5114 1.403 . S
C5117 C5118 1.392 . S
C5117 C5121 1.495 . S
C5118 C5117 1.392 . S
C5118 C5119 1.385 . S
C5118 C5120 1.478 . S
C5119 H5113 0.930 . S
C5119 C5115 1.400 . S
C5119 C5118 1.385 . S
C5120 C5118 1.478 . S
C5120 C5122 1.381 . S
C5120 C5126 1.383 . S
C5121 C5117 1.495 . S
C5121 H5127 0.959 . S
C5121 H5128 0.961 . S
C5121 H5129 0.960 . S
C5122 C5120 1.381 . S
C5122 C5123 1.394 . S
C5122 H5130 0.930 . S
C5123 C5122 1.394 . S
C5123 C5124 1.383 . S
C5123 H5131 0.929 . S
C5124 C5123 1.383 . S
C5124 C5125 1.377 . S
C5125 H5109 0.930 . S
C5125 C5124 1.377 . S
C5125 C5126 1.379 . S
C5126 H5110 0.931 . S
C5126 C5120 1.383 . S
C5126 C5125 1.379 . S
H5127 C5121 0.959 . S
H5128 C5121 0.961 . S
H5129 C5121 0.960 . S
H5130 C5122 0.930 . S
H5131 C5123 0.929 . S
H5132 C5140 0.929 . S
H5133 C5142 0.930 . S
H5134 C5144 0.930 . S
H5135 C5147 0.929 . S
H5136 C5150 0.930 . S
H5137 C5152 0.960 . S
H5138 C5152 0.960 . S
H5139 C5152 0.960 . S
C5140 H5132 0.929 . S
C5140 C5141 1.377 . S
C5140 C5142 1.384 . S
C5141 C5140 1.377 . S
C5141 C5147 1.390 . S
C5142 H5133 0.930 . S
C5142 C5140 1.384 . S
C5142 C5143 1.372 . S
C5143 C5142 1.372 . S
C5143 C5144 1.400 . S
C5143 C5148 1.490 . S
C5144 H5134 0.930 . S
C5144 C5143 1.400 . S
C5144 C5147 1.386 . S
H5145 C5161 0.930 . S
H5146 C5162 0.931 . S
C5147 H5135 0.929 . S
C5147 C5141 1.390 . S
C5147 C5144 1.386 . S
C5148 C5143 1.490 . S
C5148 C5150 1.395 . S
C5148 C5151 1.403 . S
H5149 C5155 0.930 . S
C5150 H5136 0.930 . S
C5150 C5148 1.395 . S
C5150 C5153 1.403 . S
C5151 C5148 1.403 . S
C5151 C5152 1.524 . S
C5151 C5155 1.400 . S
C5152 H5137 0.960 . S
C5152 H5138 0.960 . S
C5152 H5139 0.960 . S
C5152 C5151 1.524 . S
C5153 C5150 1.403 . S
C5153 C5154 1.392 . S
C5153 C5157 1.495 . S
C5154 C5153 1.392 . S
C5154 C5155 1.385 . S
C5154 C5156 1.478 . S
C5155 H5149 0.930 . S
C5155 C5151 1.400 . S
C5155 C5154 1.385 . S
C5156 C5154 1.478 . S
C5156 C5158 1.381 . S
C5156 C5162 1.383 . S
C5157 C5153 1.495 . S
C5157 H5163 0.959 . S
C5157 H5164 0.961 . S
C5157 H5165 0.960 . S
C5158 C5156 1.381 . S
C5158 C5159 1.394 . S
C5158 H5166 0.930 . S
C5159 C5158 1.394 . S
C5159 C5160 1.383 . S
C5159 H5167 0.929 . S
C5160 C5159 1.383 . S
C5160 C5161 1.377 . S
C5161 H5145 0.930 . S
C5161 C5160 1.377 . S
C5161 C5162 1.379 . S
C5162 H5146 0.931 . S
C5162 C5156 1.383 . S
C5162 C5161 1.379 . S
H5163 C5157 0.959 . S
H5164 C5157 0.961 . S
H5165 C5157 0.960 . S
H5166 C5158 0.930 . S
H5167 C5159 0.929 . S
H5168 C5176 0.929 . S
H5169 C5178 0.930 . S
H5170 C5180 0.930 . S
H5171 C5183 0.929 . S
H5172 C5186 0.930 . S
H5173 C5188 0.960 . S
H5174 C5188 0.960 . S
H5175 C5188 0.960 . S
C5176 H5168 0.929 . S
C5176 C5177 1.377 . S
C5176 C5178 1.384 . S
C5177 C5176 1.377 . S
C5177 C5183 1.390 . S
C5178 H5169 0.930 . S
C5178 C5176 1.384 . S
C5178 C5179 1.372 . S
C5179 C5178 1.372 . S
C5179 C5180 1.400 . S
C5179 C5184 1.490 . S
C5180 H5170 0.930 . S
C5180 C5179 1.400 . S
C5180 C5183 1.386 . S
H5181 C5197 0.930 . S
H5182 C5198 0.931 . S
C5183 H5171 0.929 . S
C5183 C5177 1.390 . S
C5183 C5180 1.386 . S
C5184 C5179 1.490 . S
C5184 C5186 1.395 . S
C5184 C5187 1.403 . S
H5185 C5191 0.930 . S
C5186 H5172 0.930 . S
C5186 C5184 1.395 . S
C5186 C5189 1.403 . S
C5187 C5184 1.403 . S
C5187 C5188 1.524 . S
C5187 C5191 1.400 . S
C5188 H5173 0.960 . S
C5188 H5174 0.960 . S
C5188 H5175 0.960 . S
C5188 C5187 1.524 . S
C5189 C5186 1.403 . S
C5189 C5190 1.392 . S
C5189 C5193 1.495 . S
C5190 C5189 1.392 . S
C5190 C5191 1.385 . S
C5190 C5192 1.478 . S
C5191 H5185 0.930 . S
C5191 C5187 1.400 . S
C5191 C5190 1.385 . S
C5192 C5190 1.478 . S
C5192 C5194 1.381 . S
C5192 C5198 1.383 . S
C5193 C5189 1.495 . S
C5193 H5199 0.959 . S
C5193 H5200 0.961 . S
C5193 H5201 0.960 . S
C5194 C5192 1.381 . S
C5194 C5195 1.394 . S
C5194 H5202 0.930 . S
C5195 C5194 1.394 . S
C5195 C5196 1.383 . S
C5195 H5203 0.929 . S
C5196 C5195 1.383 . S
C5196 C5197 1.377 . S
C5197 H5181 0.930 . S
C5197 C5196 1.377 . S
C5197 C5198 1.379 . S
C5198 H5182 0.931 . S
C5198 C5192 1.383 . S
C5198 C5197 1.379 . S
H5199 C5193 0.959 . S
H5200 C5193 0.961 . S
H5201 C5193 0.960 . S
H5202 C5194 0.930 . S
H5203 C5195 0.929 . S
H5204 C5212 0.929 . S
H5205 C5214 0.930 . S
H5206 C5216 0.930 . S
H5207 C5219 0.929 . S
H5208 C5222 0.930 . S
H5209 C5224 0.960 . S
H5210 C5224 0.960 . S
H5211 C5224 0.960 . S
C5212 H5204 0.929 . S
C5212 C5213 1.377 . S
C5212 C5214 1.384 . S
C5213 C5212 1.377 . S
C5213 C5219 1.390 . S
C5214 H5205 0.930 . S
C5214 C5212 1.384 . S
C5214 C5215 1.372 . S
C5215 C5214 1.372 . S
C5215 C5216 1.400 . S
C5215 C5220 1.490 . S
C5216 H5206 0.930 . S
C5216 C5215 1.400 . S
C5216 C5219 1.386 . S
H5217 C5233 0.930 . S
H5218 C5234 0.931 . S
C5219 H5207 0.929 . S
C5219 C5213 1.390 . S
C5219 C5216 1.386 . S
C5220 C5215 1.490 . S
C5220 C5222 1.395 . S
C5220 C5223 1.403 . S
H5221 C5227 0.930 . S
C5222 H5208 0.930 . S
C5222 C5220 1.395 . S
C5222 C5225 1.403 . S
C5223 C5220 1.403 . S
C5223 C5224 1.524 . S
C5223 C5227 1.400 . S
C5224 H5209 0.960 . S
C5224 H5210 0.960 . S
C5224 H5211 0.960 . S
C5224 C5223 1.524 . S
C5225 C5222 1.403 . S
C5225 C5226 1.392 . S
C5225 C5229 1.495 . S
C5226 C5225 1.392 . S
C5226 C5227 1.385 . S
C5226 C5228 1.478 . S
C5227 H5221 0.930 . S
C5227 C5223 1.400 . S
C5227 C5226 1.385 . S
C5228 C5226 1.478 . S
C5228 C5230 1.381 . S
C5228 C5234 1.383 . S
C5229 C5225 1.495 . S
C5229 H5235 0.959 . S
C5229 H5236 0.961 . S
C5229 H5237 0.960 . S
C5230 C5228 1.381 . S
C5230 C5231 1.394 . S
C5230 H5238 0.930 . S
C5231 C5230 1.394 . S
C5231 C5232 1.383 . S
C5231 H5239 0.929 . S
C5232 C5231 1.383 . S
C5232 C5233 1.377 . S
C5233 H5217 0.930 . S
C5233 C5232 1.377 . S
C5233 C5234 1.379 . S
C5234 H5218 0.931 . S
C5234 C5228 1.383 . S
C5234 C5233 1.379 . S
H5235 C5229 0.959 . S
H5236 C5229 0.961 . S
H5237 C5229 0.960 . S
H5238 C5230 0.930 . S
H5239 C5231 0.929 . S
C1812 C1299 1.461 . S
C1793 C21 1.553 . S
C1848 C1310 1.390 . S
C1829 C42 1.503 . S
C1865 C82 1.547 . S
C1884 C1334 1.409 . S
C1920 C1355 1.420 . S
C1901 C135 1.539 . S
C1937 C175 1.482 . S
C1956 C1362 1.425 . S
C1973 C221 1.553 . S
C1992 C1292 1.420 . S
C2009 C255 1.535 . S
C2028 C1318 1.450 . S
C2064 C1341 1.514 . S
C2045 C301 1.596 . S
C2100 C1373 1.478 . S
C2081 C15 1.548 . S
C2117 C55 1.496 . S
C2136 C1394 1.370 . S
C2153 C101 1.576 . S
C2172 C1418 1.485 . S
C2208 C1436 1.421 . S
C2189 C141 1.544 . S
C2225 C162 1.495 . S
C2244 C1465 1.367 . S
C2280 C1486 1.419 . S
C2261 C215 1.558 . S
C2297 C261 1.568 . S
C2316 C1502 1.431 . S
C2352 C1523 1.398 . S
C2333 C282 1.557 . S
C2369 C2 1.535 . S
C2388 C1444 1.454 . S
C2405 C181 1.462 . S
C2424 C1478 1.360 . S
C2460 C1509 1.517 . S
C2441 C202 1.552 . S
C2477 C242 1.556 . S
C2496 C1530 1.475 . S
C2532 C1457 1.401 . S
C2513 C295 1.539 . S
C2568 C1402 1.452 . S
C2549 C95 1.567 . S
C2585 C122 1.540 . S
C2604 C1425 1.421 . S
C2640 C1381 1.432 . S
C2621 C61 1.517 . S
C2676 C1549 1.438 . S
C2657 C341 1.553 . S
C2693 C362 1.502 . S
C2712 C1565 1.385 . S
C2729 C402 1.536 . S
C2748 C1583 1.433 . S
C2784 C1604 1.420 . S
C2765 C455 1.551 . S
C2801 C495 1.486 . S
C2820 C1612 1.370 . S
C2837 C541 1.561 . S
C2856 C1541 1.519 . S
C2873 C575 1.526 . S
C2892 C1572 1.423 . S
C2909 C621 1.590 . S
C2928 C1591 1.496 . S
C2964 C1467 1.485 . S
C2945 C335 1.544 . S
C2981 C375 1.501 . S
C3000 C1625 1.430 . S
C3036 C1499 1.520 . S
C3017 C421 1.562 . S
C3053 C461 1.552 . S
C3072 C1654 1.423 . S
C3089 C482 1.494 . S
C3108 C1376 1.439 . S
C3144 C1670 1.468 . S
C3125 C535 1.566 . S
C3161 C581 1.552 . S
C3180 C1415 1.481 . S
C3216 C1698 1.455 . S
C3197 C602 1.552 . S
C3233 C322 1.535 . S
C3252 C1646 1.466 . S
C3288 C1677 1.434 . S
C3269 C501 1.469 . S
C3305 C522 1.567 . S
C3324 C1423 1.504 . S
C3360 C1691 1.397 . S
C3341 C562 1.550 . S
C3377 C615 1.538 . S
C3396 C1383 1.426 . S
C3413 C415 1.559 . S
C3432 C1633 1.481 . S
C3449 C442 1.557 . S
C3468 C1507 1.443 . S
C3485 C381 1.523 . S
C3504 C1460 1.385 . S
C3521 C661 1.560 . S
C3540 C1586 1.496 . S
C3576 C1607 1.400 . S
C3557 C682 1.503 . S
C3593 C722 1.539 . S
C3612 C1551 1.507 . S
C3629 C775 1.545 . S
C3648 C1562 1.476 . S
C3665 C815 1.481 . S
C3684 C1570 1.356 . S
C3701 C861 1.543 . S
C3720 C1593 1.458 . S
C3756 C1614 1.473 . S
C3737 C895 1.530 . S
C3773 C941 1.602 . S
C3792 C1544 1.470 . S
C3828 C1709 1.430 . S
C3809 C655 1.548 . S
C3845 C695 1.495 . S
C3864 C1488 1.410 . S
C3900 C1730 1.457 . S
C3881 C741 1.560 . S
C3917 C781 1.552 . S
C3936 C1520 1.483 . S
C3953 C802 1.496 . S
C3972 C1754 1.436 . S
C3989 C855 1.558 . S
C4008 C1397 1.474 . S
C4044 C1775 1.406 . S
C4025 C901 1.555 . S
C4061 C922 1.556 . S
C4080 C1439 1.395 . S
C4116 C1528 1.465 . S
C4097 C642 1.543 . S
C4152 C1404 1.441 . S
C4133 C821 1.472 . S
C4169 C842 1.553 . S
C4188 C1782 1.465 . S
C4205 C882 1.548 . S
C4224 C1446 1.428 . S
C4260 C1761 1.482 . S
C4241 C935 1.541 . S
C4296 C1481 1.450 . S
C4277 C735 1.562 . S
C4332 C1738 1.421 . S
C4313 C762 1.550 . S
C4368 C1717 1.387 . S
C4349 C701 1.517 . S
C4385 C981 1.555 . S
C4404 C1331 1.464 . S
C4421 C1002 1.499 . S
C4440 C1352 1.403 . S
C4476 C1297 1.453 . S
C4457 C1042 1.536 . S
C4512 C1313 1.395 . S
C4493 C1095 1.554 . S
C4548 C1320 1.369 . S
C4529 C1135 1.477 . S
C4584 C1339 1.497 . S
C4565 C1181 1.552 . S
C4620 C1360 1.415 . S
C4601 C1215 1.535 . S
C4637 C1261 1.592 . S
C4656 C1289 1.519 . S
C4673 C975 1.547 . S
C4692 C1751 1.478 . S
C4728 C1667 1.429 . S
C4709 C1015 1.500 . S
C4764 C1772 1.467 . S
C4745 C1061 1.563 . S
C4800 C1696 1.399 . S
C4781 C1101 1.553 . S
C4817 C1122 1.495 . S
C4836 C1712 1.371 . S
C4872 C1628 1.452 . S
C4853 C1175 1.556 . S
C4908 C1733 1.410 . S
C4889 C1221 1.562 . S
C4925 C1242 1.554 . S
C4944 C1656 1.471 . S
C4980 C1688 1.427 . S
C4961 C962 1.535 . S
C5016 C1635 1.371 . S
C4997 C1141 1.458 . S
C5052 C1740 1.468 . S
C5033 C1162 1.557 . S
C5069 C1202 1.563 . S
C5088 C1649 1.429 . S
C5105 C1255 1.535 . S
C5124 C1719 1.460 . S
C5141 C1055 1.569 . S
C5160 C1675 1.435 . S
C5177 C1082 1.554 . S
C5196 C1780 1.473 . S
C5232 C1759 1.435 . S
C5213 C1021 1.519 . S
