# Generated by pormake.
# Topology eea, (3,6)-cn, num edge types: 1
# Building blocks:
#     Node 0, Type 0, BuildingBlock: PAMTOO_clean_linker_0, # of connection points: 3
#     Node 1, Type 0, BuildingBlock: PAMTOO_clean_linker_0, # of connection points: 3
#     Node 2, Type 0, BuildingBlock: PAMTOO_clean_linker_0, # of connection points: 3
#     Node 3, Type 0, BuildingBlock: PAMTOO_clean_linker_0, # of connection points: 3
#     Node 4, Type 0, BuildingBlock: PAMTOO_clean_linker_0, # of connection points: 3
#     Node 5, Type 0, BuildingBlock: PAMTOO_clean_linker_0, # of connection points: 3
#     Node 6, Type 0, BuildingBlock: PAMTOO_clean_linker_0, # of connection points: 3
#     Node 7, Type 0, BuildingBlock: PAMTOO_clean_linker_0, # of connection points: 3
#     Node 8, Type 0, BuildingBlock: PAMTOO_clean_linker_0, # of connection points: 3
#     Node 9, Type 0, BuildingBlock: PAMTOO_clean_linker_0, # of connection points: 3
#     Node 10, Type 0, BuildingBlock: PAMTOO_clean_linker_0, # of connection points: 3
#     Node 11, Type 0, BuildingBlock: PAMTOO_clean_linker_0, # of connection points: 3
#     Node 12, Type 0, BuildingBlock: PAMTOO_clean_linker_0, # of connection points: 3
#     Node 13, Type 0, BuildingBlock: PAMTOO_clean_linker_0, # of connection points: 3
#     Node 14, Type 0, BuildingBlock: PAMTOO_clean_linker_0, # of connection points: 3
#     Node 15, Type 0, BuildingBlock: PAMTOO_clean_linker_0, # of connection points: 3
#     Node 16, Type 0, BuildingBlock: PAMTOO_clean_linker_0, # of connection points: 3
#     Node 17, Type 0, BuildingBlock: PAMTOO_clean_linker_0, # of connection points: 3
#     Node 18, Type 1, BuildingBlock: CUKXOW_clean_sbu_0, # of connection points: 6
#     Node 19, Type 1, BuildingBlock: CUKXOW_clean_sbu_0, # of connection points: 6
#     Node 20, Type 1, BuildingBlock: CUKXOW_clean_sbu_0, # of connection points: 6
#     Node 21, Type 1, BuildingBlock: CUKXOW_clean_sbu_0, # of connection points: 6
#     Node 22, Type 1, BuildingBlock: CUKXOW_clean_sbu_0, # of connection points: 6
#     Node 23, Type 1, BuildingBlock: CUKXOW_clean_sbu_0, # of connection points: 6
#     Node 24, Type 1, BuildingBlock: CUKXOW_clean_sbu_0, # of connection points: 6
#     Node 25, Type 1, BuildingBlock: CUKXOW_clean_sbu_0, # of connection points: 6
#     Node 26, Type 1, BuildingBlock: CUKXOW_clean_sbu_0, # of connection points: 6
#     Edge 27, Type (0, 1), BuildingBlock: TEMPAE_clean_linker_10, # of connection points: 2
#     Edge 28, Type (0, 1), BuildingBlock: TEMPAE_clean_linker_10, # of connection points: 2
#     Edge 29, Type (0, 1), BuildingBlock: TEMPAE_clean_linker_10, # of connection points: 2
#     Edge 30, Type (0, 1), BuildingBlock: TEMPAE_clean_linker_10, # of connection points: 2
#     Edge 31, Type (0, 1), BuildingBlock: TEMPAE_clean_linker_10, # of connection points: 2
#     Edge 32, Type (0, 1), BuildingBlock: TEMPAE_clean_linker_10, # of connection points: 2
#     Edge 33, Type (0, 1), BuildingBlock: TEMPAE_clean_linker_10, # of connection points: 2
#     Edge 34, Type (0, 1), BuildingBlock: TEMPAE_clean_linker_10, # of connection points: 2
#     Edge 35, Type (0, 1), BuildingBlock: TEMPAE_clean_linker_10, # of connection points: 2
#     Edge 36, Type (0, 1), BuildingBlock: TEMPAE_clean_linker_10, # of connection points: 2
#     Edge 37, Type (0, 1), BuildingBlock: TEMPAE_clean_linker_10, # of connection points: 2
#     Edge 38, Type (0, 1), BuildingBlock: TEMPAE_clean_linker_10, # of connection points: 2
#     Edge 39, Type (0, 1), BuildingBlock: TEMPAE_clean_linker_10, # of connection points: 2
#     Edge 40, Type (0, 1), BuildingBlock: TEMPAE_clean_linker_10, # of connection points: 2
#     Edge 41, Type (0, 1), BuildingBlock: TEMPAE_clean_linker_10, # of connection points: 2
#     Edge 42, Type (0, 1), BuildingBlock: TEMPAE_clean_linker_10, # of connection points: 2
#     Edge 43, Type (0, 1), BuildingBlock: TEMPAE_clean_linker_10, # of connection points: 2
#     Edge 44, Type (0, 1), BuildingBlock: TEMPAE_clean_linker_10, # of connection points: 2
#     Edge 45, Type (0, 1), BuildingBlock: TEMPAE_clean_linker_10, # of connection points: 2
#     Edge 46, Type (0, 1), BuildingBlock: TEMPAE_clean_linker_10, # of connection points: 2
#     Edge 47, Type (0, 1), BuildingBlock: TEMPAE_clean_linker_10, # of connection points: 2
#     Edge 48, Type (0, 1), BuildingBlock: TEMPAE_clean_linker_10, # of connection points: 2
#     Edge 49, Type (0, 1), BuildingBlock: TEMPAE_clean_linker_10, # of connection points: 2
#     Edge 50, Type (0, 1), BuildingBlock: TEMPAE_clean_linker_10, # of connection points: 2
#     Edge 51, Type (0, 1), BuildingBlock: TEMPAE_clean_linker_10, # of connection points: 2
#     Edge 52, Type (0, 1), BuildingBlock: TEMPAE_clean_linker_10, # of connection points: 2
#     Edge 53, Type (0, 1), BuildingBlock: TEMPAE_clean_linker_10, # of connection points: 2
#     Edge 54, Type (0, 1), BuildingBlock: TEMPAE_clean_linker_10, # of connection points: 2
#     Edge 55, Type (0, 1), BuildingBlock: TEMPAE_clean_linker_10, # of connection points: 2
#     Edge 56, Type (0, 1), BuildingBlock: TEMPAE_clean_linker_10, # of connection points: 2
#     Edge 57, Type (0, 1), BuildingBlock: TEMPAE_clean_linker_10, # of connection points: 2
#     Edge 58, Type (0, 1), BuildingBlock: TEMPAE_clean_linker_10, # of connection points: 2
#     Edge 59, Type (0, 1), BuildingBlock: TEMPAE_clean_linker_10, # of connection points: 2
#     Edge 60, Type (0, 1), BuildingBlock: TEMPAE_clean_linker_10, # of connection points: 2
#     Edge 61, Type (0, 1), BuildingBlock: TEMPAE_clean_linker_10, # of connection points: 2
#     Edge 62, Type (0, 1), BuildingBlock: TEMPAE_clean_linker_10, # of connection points: 2
#     Edge 63, Type (0, 1), BuildingBlock: TEMPAE_clean_linker_10, # of connection points: 2
#     Edge 64, Type (0, 1), BuildingBlock: TEMPAE_clean_linker_10, # of connection points: 2
#     Edge 65, Type (0, 1), BuildingBlock: TEMPAE_clean_linker_10, # of connection points: 2
#     Edge 66, Type (0, 1), BuildingBlock: TEMPAE_clean_linker_10, # of connection points: 2
#     Edge 67, Type (0, 1), BuildingBlock: TEMPAE_clean_linker_10, # of connection points: 2
#     Edge 68, Type (0, 1), BuildingBlock: TEMPAE_clean_linker_10, # of connection points: 2
#     Edge 69, Type (0, 1), BuildingBlock: TEMPAE_clean_linker_10, # of connection points: 2
#     Edge 70, Type (0, 1), BuildingBlock: TEMPAE_clean_linker_10, # of connection points: 2
#     Edge 71, Type (0, 1), BuildingBlock: TEMPAE_clean_linker_10, # of connection points: 2
#     Edge 72, Type (0, 1), BuildingBlock: TEMPAE_clean_linker_10, # of connection points: 2
#     Edge 73, Type (0, 1), BuildingBlock: TEMPAE_clean_linker_10, # of connection points: 2
#     Edge 74, Type (0, 1), BuildingBlock: TEMPAE_clean_linker_10, # of connection points: 2
#     Edge 75, Type (0, 1), BuildingBlock: TEMPAE_clean_linker_10, # of connection points: 2
#     Edge 76, Type (0, 1), BuildingBlock: TEMPAE_clean_linker_10, # of connection points: 2
#     Edge 77, Type (0, 1), BuildingBlock: TEMPAE_clean_linker_10, # of connection points: 2
#     Edge 78, Type (0, 1), BuildingBlock: TEMPAE_clean_linker_10, # of connection points: 2
#     Edge 79, Type (0, 1), BuildingBlock: TEMPAE_clean_linker_10, # of connection points: 2
#     Edge 80, Type (0, 1), BuildingBlock: TEMPAE_clean_linker_10, # of connection points: 2
# Relax obj value: 0.033
# Max RMSD: 0.157
# Mean RMSD: 0.091
data_MOF--net-eea--node1-CUKXOW_clean_sbu_0--node2-PAMTOO_clean_linker_0--edge1-TEMPAE_clean_linker_10
_symmetry_space_group_name_H-M    P1
_symmetry_Int_Tables_number       1
_symmetry_cell_setting            triclinic
loop_
_symmetry_equiv_pos_as_xyz
'x, y, z'
_cell_length_a     60.917246
_cell_length_b     57.264033
_cell_length_c     50.625882
_cell_angle_alpha  93.278877
_cell_angle_beta   93.39402
_cell_angle_gamma 119.96017
loop_
_atom_site_label
_atom_site_type_symbol
_atom_site_fract_x
_atom_site_fract_y
_atom_site_fract_z
_atom_type_partial_charge
H0 H 0.24105 0.07846 0.45338 0.0
H1 H 0.23787 0.15147 0.45056 0.0
H2 H 0.20979 0.09349 0.38174 0.0
H3 H 0.23494 0.14962 0.36813 0.0
C4 C 0.23308 0.15957 0.3867 0.0
O5 O 0.21639 0.13996 0.40157 0.0
H6 H 0.25232 0.17139 0.39795 0.0
C7 C 0.23615 0.09108 0.44219 0.0
C8 C 0.2247 0.08233 0.41578 0.0
C9 C 0.24109 0.11595 0.45471 0.0
C10 C 0.23409 0.1322 0.44105 0.0
C11 C 0.2228 0.12398 0.41477 0.0
C12 C 0.21815 0.0992 0.4022 0.0
H13 H 0.92953 0.1744 0.45925 0.0
H14 H 0.86085 0.0964 0.44681 0.0
H15 H 0.91626 0.11939 0.3904 0.0
H16 H 0.86259 0.08331 0.36353 0.0
C17 C 0.85365 0.07769 0.38242 0.0
O18 O 0.87187 0.08121 0.40228 0.0
H19 H 0.8458 0.09117 0.38714 0.0
C20 C 0.9177 0.15508 0.44748 0.0
C21 C 0.92572 0.14929 0.42376 0.0
C22 C 0.89438 0.13603 0.45596 0.0
C23 C 0.87896 0.1112 0.44052 0.0
C24 C 0.88688 0.10522 0.41698 0.0
C25 C 0.91033 0.12412 0.40875 0.0
H26 H 0.83797 0.75043 0.46841 0.0
H27 H 0.90575 0.74547 0.4601 0.0
H28 H 0.88483 0.78754 0.40593 0.0
H29 H 0.91161 0.76252 0.38082 0.0
C30 C 0.92069 0.75981 0.39918 0.0
O31 O 0.91942 0.77504 0.4205 0.0
H32 H 0.91023 0.73795 0.40251 0.0
C33 C 0.85452 0.75473 0.45817 0.0
C34 C 0.85916 0.76947 0.43595 0.0
C35 C 0.87095 0.74551 0.46708 0.0
C36 C 0.89269 0.75221 0.45381 0.0
C37 C 0.89777 0.76756 0.43207 0.0
C38 C 0.88086 0.77586 0.42292 0.0
H39 H 0.08334 0.2635 0.55984 0.0
H40 H 0.1535 0.2627 0.57611 0.0
H41 H 0.09109 0.21925 0.62177 0.0
H42 H 0.14137 0.23647 0.65304 0.0
C43 C 0.15269 0.24291 0.63573 0.0
O44 O 0.13685 0.22994 0.61261 0.0
H45 H 0.16146 0.26528 0.63579 0.0
C46 C 0.09515 0.25774 0.57128 0.0
C47 C 0.08481 0.24153 0.59206 0.0
C48 C 0.11995 0.26556 0.5648 0.0
C49 C 0.13415 0.25668 0.57978 0.0
C50 C 0.12354 0.23968 0.5998 0.0
C51 C 0.09895 0.2321 0.60593 0.0
H52 H 0.76307 0.82613 0.57579 0.0
H53 H 0.77354 0.90628 0.57874 0.0
H54 H 0.80558 0.88442 0.64376 0.0
H55 H 0.78806 0.92209 0.66255 0.0
C56 C 0.78594 0.92875 0.64283 0.0
O57 O 0.79967 0.92299 0.62552 0.0
H58 H 0.76526 0.9174 0.63563 0.0
C59 C 0.77108 0.84621 0.58612 0.0
C60 C 0.78486 0.8526 0.6114 0.0
C61 C 0.76705 0.8655 0.57427 0.0
C62 C 0.77672 0.89133 0.58769 0.0
C63 C 0.79041 0.89798 0.61276 0.0
C64 C 0.79459 0.87876 0.62451 0.0
H65 H 0.17674 0.93174 0.5597 0.0
H66 H 0.10281 0.86062 0.55628 0.0
H67 H 0.13148 0.91748 0.62597 0.0
H68 H 0.10212 0.86332 0.63939 0.0
C69 C 0.09079 0.85296 0.62001 0.0
O70 O 0.09296 0.87214 0.60335 0.0
H71 H 0.09847 0.84067 0.61095 0.0
C72 C 0.15973 0.91946 0.56927 0.0
C73 C 0.15698 0.92812 0.59485 0.0
C74 C 0.14045 0.89516 0.55539 0.0
C75 C 0.1178 0.87946 0.56681 0.0
C76 C 0.11469 0.88766 0.59222 0.0
C77 C 0.13415 0.91185 0.60616 0.0
H78 H 0.91149 0.41522 0.78333 0.0
H79 H 0.90713 0.48776 0.78254 0.0
H80 H 0.87345 0.42761 0.71544 0.0
H81 H 0.90017 0.48367 0.69961 0.0
C82 C 0.90015 0.49455 0.71853 0.0
O83 O 0.88381 0.47589 0.73441 0.0
H84 H 0.91995 0.50553 0.72853 0.0
C85 C 0.90499 0.4272 0.77326 0.0
C86 C 0.89129 0.41764 0.74786 0.0
C87 C 0.91042 0.45219 0.78601 0.0
C88 C 0.90275 0.46828 0.77302 0.0
C89 C 0.89006 0.45965 0.74731 0.0
C90 C 0.884 0.43427 0.73497 0.0
H91 H 0.60133 0.50694 0.80139 0.0
H92 H 0.53169 0.43012 0.7868 0.0
H93 H 0.58656 0.45398 0.73005 0.0
H94 H 0.53343 0.41966 0.70399 0.0
C95 C 0.52433 0.41207 0.72246 0.0
O96 O 0.54272 0.41551 0.74206 0.0
H97 H 0.51525 0.42403 0.72845 0.0
C98 C 0.58925 0.48822 0.78881 0.0
C99 C 0.59717 0.48314 0.76458 0.0
C100 C 0.56555 0.46935 0.7968 0.0
C101 C 0.54993 0.44494 0.78078 0.0
C102 C 0.55774 0.43938 0.757 0.0
C103 C 0.58117 0.45842 0.74887 0.0
H104 H 0.50832 0.08875 0.80377 0.0
H105 H 0.57955 0.09011 0.80238 0.0
H106 H 0.556 0.12432 0.7412 0.0
H107 H 0.58178 0.09789 0.72044 0.0
C108 C 0.5924 0.09772 0.73899 0.0
O109 O 0.59174 0.11469 0.75899 0.0
H110 H 0.58312 0.07663 0.74475 0.0
C111 C 0.52574 0.0944 0.79463 0.0
C112 C 0.53012 0.10737 0.77126 0.0
C113 C 0.5435 0.08812 0.8059 0.0
C114 C 0.5658 0.09504 0.79386 0.0
C115 C 0.57031 0.10818 0.77061 0.0
C116 C 0.55251 0.11438 0.75934 0.0
H117 H 0.74853 0.60055 0.89322 0.0
H118 H 0.81161 0.58624 0.89603 0.0
H119 H 0.75232 0.54656 0.94684 0.0
H120 H 0.80128 0.55822 0.97458 0.0
C121 C 0.81237 0.56641 0.95737 0.0
O122 O 0.79641 0.5544 0.93411 0.0
H123 H 0.82012 0.58873 0.95927 0.0
C124 C 0.75833 0.59081 0.9016 0.0
C125 C 0.74756 0.57293 0.92107 0.0
C126 C 0.78117 0.59532 0.89212 0.0
C127 C 0.79371 0.58255 0.90285 0.0
C128 C 0.78345 0.5653 0.92277 0.0
C129 C 0.76015 0.56003 0.93145 0.0
H130 H 0.43948 0.16672 0.902 0.0
H131 H 0.44607 0.2452 0.91181 0.0
H132 H 0.47206 0.21751 0.97641 0.0
H133 H 0.45473 0.25536 0.99561 0.0
C134 C 0.45378 0.26269 0.97593 0.0
O135 O 0.4689 0.258 0.95976 0.0
H136 H 0.43348 0.25129 0.96732 0.0
C137 C 0.44474 0.18509 0.91449 0.0
C138 C 0.45603 0.18905 0.94078 0.0
C139 C 0.44074 0.20501 0.9038 0.0
C140 C 0.44897 0.22955 0.91943 0.0
C141 C 0.46053 0.23398 0.9453 0.0
C142 C 0.46373 0.21377 0.95604 0.0
H143 H 0.83847 0.26713 0.89205 0.0
H144 H 0.7642 0.19626 0.88697 0.0
H145 H 0.7921 0.25209 0.95742 0.0
H146 H 0.762 0.19649 0.96949 0.0
C147 C 0.75143 0.187 0.94957 0.0
O148 O 0.7538 0.20698 0.93398 0.0
H149 H 0.75999 0.17561 0.9405 0.0
C150 C 0.82121 0.25478 0.90121 0.0
C151 C 0.81809 0.26309 0.92677 0.0
C152 C 0.80203 0.2307 0.88688 0.0
C153 C 0.77909 0.21498 0.89779 0.0
C154 C 0.77564 0.22283 0.92318 0.0
C155 C 0.79501 0.24675 0.9376 0.0
H156 H 0.56874 0.74387 0.12896 0.0
H157 H 0.56779 0.81799 0.12463 0.0
H158 H 0.5389 0.75923 0.0565 0.0
H159 H 0.56249 0.81459 0.04147 0.0
C160 C 0.56198 0.82489 0.06054 0.0
O161 O 0.54562 0.80578 0.07598 0.0
H162 H 0.5817 0.83601 0.07077 0.0
C163 C 0.56423 0.7566 0.1175 0.0
C164 C 0.55322 0.74795 0.09092 0.0
C165 C 0.56977 0.78187 0.12957 0.0
C166 C 0.56358 0.79844 0.11544 0.0
C167 C 0.55206 0.78993 0.08929 0.0
C168 C 0.5471 0.76495 0.07702 0.0
H169 H 0.2678 0.83373 0.13877 0.0
H170 H 0.20024 0.75507 0.12242 0.0
H171 H 0.25913 0.78088 0.06989 0.0
H172 H 0.20782 0.74649 0.03986 0.0
C173 C 0.19723 0.73959 0.05764 0.0
O174 O 0.2139 0.74183 0.07869 0.0
H175 H 0.18909 0.75284 0.06212 0.0
C176 C 0.25693 0.81447 0.12666 0.0
C177 C 0.26641 0.80961 0.10363 0.0
C178 C 0.23314 0.7948 0.13368 0.0
C179 C 0.2188 0.77025 0.11744 0.0
C180 C 0.22821 0.76522 0.09457 0.0
C181 C 0.25213 0.78474 0.08786 0.0
H182 H 0.16741 0.40704 0.12782 0.0
H183 H 0.23893 0.40965 0.12122 0.0
H184 H 0.21626 0.45233 0.06969 0.0
H185 H 0.24579 0.43252 0.04288 0.0
C186 C 0.2538 0.42777 0.06071 0.0
O187 O 0.25198 0.44127 0.08316 0.0
H188 H 0.24263 0.40547 0.06186 0.0
C189 C 0.18469 0.41339 0.11823 0.0
C190 C 0.18934 0.42982 0.09734 0.0
C191 C 0.2024 0.40593 0.1273 0.0
C192 C 0.22507 0.41535 0.11505 0.0
C193 C 0.23003 0.43216 0.09452 0.0
C194 C 0.21232 0.43955 0.08581 0.0
H195 H 0.40379 0.90741 0.20605 0.0
H196 H 0.47211 0.90386 0.22334 0.0
H197 H 0.41271 0.87102 0.27509 0.0
H198 H 0.46389 0.89225 0.30514 0.0
C199 C 0.47441 0.89511 0.28727 0.0
O200 O 0.45761 0.87856 0.26585 0.0
H201 H 0.48313 0.91685 0.28363 0.0
C202 C 0.41472 0.90106 0.21826 0.0
C203 C 0.40523 0.88844 0.24129 0.0
C204 C 0.43901 0.90704 0.21189 0.0
C205 C 0.45337 0.8994 0.22809 0.0
C206 C 0.44374 0.88614 0.25061 0.0
C207 C 0.41982 0.88086 0.25732 0.0
H208 H 0.09855 0.49275 0.23427 0.0
H209 H 0.10723 0.5722 0.24008 0.0
H210 H 0.13958 0.54925 0.30383 0.0
H211 H 0.12238 0.58742 0.32411 0.0
C212 C 0.11942 0.59334 0.30425 0.0
O213 O 0.13332 0.58805 0.28678 0.0
H214 H 0.09865 0.58109 0.29759 0.0
C215 C 0.10612 0.51249 0.24521 0.0
C216 C 0.11953 0.51825 0.27065 0.0
C217 C 0.10158 0.53182 0.23416 0.0
C218 C 0.11065 0.55716 0.24844 0.0
C219 C 0.12429 0.56333 0.27347 0.0
C220 C 0.12875 0.544 0.28451 0.0
H221 H 0.50748 0.59699 0.23177 0.0
H222 H 0.43279 0.52656 0.22761 0.0
H223 H 0.45955 0.58641 0.2948 0.0
H224 H 0.43096 0.53247 0.31125 0.0
C225 C 0.42096 0.52112 0.29167 0.0
O226 O 0.42235 0.53914 0.2739 0.0
H227 H 0.43059 0.51015 0.28437 0.0
C228 C 0.48966 0.58552 0.24036 0.0
C229 C 0.48601 0.59522 0.26491 0.0
C230 C 0.47048 0.56102 0.22667 0.0
C231 C 0.44758 0.5457 0.23784 0.0
C232 C 0.44397 0.55467 0.26263 0.0
C233 C 0.46293 0.57951 0.27593 0.0
Tb234 Tb 0.52878 0.0226 0.01062 0.0
C235 C 0.51025 0.96266 0.01935 0.0
Tb236 Tb 0.47177 0.98514 0.01751 0.0
O237 O 0.53904 0.02243 0.05276 0.0
O238 O 0.50393 0.01744 0.04011 0.0
O239 O 0.52612 0.98323 0.00652 0.0
C240 C 0.42743 0.95129 0.03557 0.0
O241 O 0.48936 0.96103 0.02798 0.0
C242 C 0.48333 0.99164 0.96848 0.0
C243 C 0.49006 0.0451 0.00614 0.0
O244 O 0.43399 0.94859 0.01217 0.0
O245 O 0.44579 0.97319 0.04877 0.0
O246 O 0.46134 0.98632 0.97583 0.0
O247 O 0.49657 0.99041 0.98787 0.0
O248 O 0.4719 0.02322 0.01567 0.0
O249 O 0.51275 0.04837 0.00193 0.0
C250 C 0.57422 0.05614 0.99427 0.0
O251 O 0.55233 0.04826 0.9812 0.0
O252 O 0.57049 0.04515 0.01646 0.0
C253 C 0.51694 0.01664 0.05988 0.0
Tb254 Tb 0.98695 0.51083 0.00981 0.0
C255 C 0.04557 0.54963 0.01812 0.0
Tb256 Tb 0.02035 0.48495 0.01521 0.0
O257 O 0.99965 0.52893 0.05104 0.0
O258 O 0.99675 0.49188 0.03928 0.0
O259 O 0.02364 0.54706 0.00843 0.0
C260 C 0.05405 0.47094 0.03217 0.0
O261 O 0.04777 0.5285 0.02414 0.0
C262 C 0.00357 0.48529 0.96662 0.0
C263 C 0.96186 0.44637 0.00475 0.0
O264 O 0.03788 0.47278 0.04644 0.0
O265 O 0.05105 0.4767 0.00829 0.0
O266 O 0.00847 0.46687 0.97405 0.0
O267 O 0.01034 0.50353 0.98557 0.0
O268 O 0.98331 0.44862 0.01563 0.0
O269 O 0.96001 0.46765 0.99869 0.0
C270 C 0.95246 0.52459 0.99525 0.0
O271 O 0.95533 0.51694 0.01819 0.0
O272 O 0.96925 0.52479 0.98045 0.0
C273 C 0.00385 0.51002 0.05834 0.0
Tb274 Tb 0.47989 0.49912 0.00952 0.0
C275 C 0.49989 0.45889 0.00332 0.0
Tb276 Tb 0.53723 0.52327 0.00527 0.0
O277 O 0.47207 0.48048 0.96852 0.0
O278 O 0.50543 0.51704 0.98048 0.0
O279 O 0.4818 0.46263 0.01254 0.0
C280 C 0.58222 0.53673 0.9882 0.0
O281 O 0.52172 0.47927 0.99693 0.0
C282 C 0.52419 0.52347 0.05346 0.0
C283 C 0.51723 0.56329 0.01567 0.0
O284 O 0.57559 0.52917 0.01152 0.0
O285 O 0.56357 0.53687 0.97458 0.0
O286 O 0.54624 0.54119 0.04654 0.0
O287 O 0.51187 0.50554 0.03432 0.0
O288 O 0.53558 0.56048 0.00567 0.0
O289 O 0.49522 0.54234 0.02057 0.0
C290 C 0.43366 0.4855 0.02297 0.0
O291 O 0.4418 0.493 1.0001 0.0
O292 O 0.45152 0.48554 0.03831 0.0
C293 C 0.49371 0.49885 0.96146 0.0
Tb294 Tb 0.19557 0.35906 0.34831 0.0
C295 C 0.17894 0.29651 0.34875 0.0
Tb296 Tb 0.13847 0.31567 0.34512 0.0
O297 O 0.19557 0.37164 0.3901 0.0
O298 O 0.17047 0.33222 0.37351 0.0
O299 O 0.19686 0.32125 0.34401 0.0
C300 C 0.09126 0.28537 0.35868 0.0
O301 O 0.15551 0.29077 0.35318 0.0
C302 C 0.15845 0.32614 0.29989 0.0
C303 C 0.15529 0.37854 0.34336 0.0
O304 O 0.09932 0.28156 0.33654 0.0
O305 O 0.10962 0.30649 0.37284 0.0
O306 O 0.13881 0.30292 0.30337 0.0
O307 O 0.1635 0.34228 0.32012 0.0
O308 O 0.13675 0.35339 0.34613 0.0
O309 O 0.17933 0.38485 0.34184 0.0
C310 C 0.24282 0.39041 0.33532 0.0
O311 O 0.23591 0.38892 0.35924 0.0
O312 O 0.22318 0.37402 0.31878 0.0
C313 C 0.17604 0.34845 0.39388 0.0
Tb314 Tb 0.64935 0.8416 0.3513 0.0
C315 C 0.70695 0.8839 0.35919 0.0
Tb316 Tb 0.68708 0.82081 0.35547 0.0
O317 O 0.65899 0.85698 0.39355 0.0
O318 O 0.66139 0.82353 0.37976 0.0
O319 O 0.68478 0.87853 0.347 0.0
C320 C 0.72355 0.81064 0.37227 0.0
O321 O 0.71054 0.86442 0.36777 0.0
C322 C 0.66998 0.82126 0.30706 0.0
C323 C 0.62861 0.77772 0.3459 0.0
O324 O 0.72461 0.82497 0.35292 0.0
O325 O 0.70183 0.80176 0.38198 0.0
O326 O 0.67805 0.80502 0.31361 0.0
O327 O 0.67467 0.83826 0.32665 0.0
O328 O 0.65183 0.78185 0.3525 0.0
O329 O 0.6237 0.79778 0.34402 0.0
C330 C 0.61327 0.85287 0.33538 0.0
O331 O 0.61994 0.83814 0.3215 0.0
O332 O 0.62688 0.86121 0.35823 0.0
C333 C 0.6662 0.84 0.39972 0.0
Tb334 Tb 0.14459 0.83047 0.33983 0.0
C335 C 0.16232 0.7888 0.3298 0.0
Tb336 Tb 0.20137 0.85278 0.33211 0.0
O337 O 0.13449 0.812 0.29853 0.0
O338 O 0.1688 0.84753 0.30964 0.0
O339 O 0.14558 0.79323 0.34142 0.0
C340 C 0.24406 0.86228 0.31144 0.0
O341 O 0.18348 0.80874 0.32178 0.0
C342 C 0.19096 0.85343 0.38141 0.0
C343 C 0.18365 0.89445 0.34511 0.0
O344 O 0.23537 0.849 0.33191 0.0
O345 O 0.22908 0.87088 0.30301 0.0
O346 O 0.21299 0.87016 0.37365 0.0
O347 O 0.17737 0.83593 0.36238 0.0
O348 O 0.20117 0.89082 0.3341 0.0
O349 O 0.1616 0.87405 0.35083 0.0
C350 C 0.09932 0.81807 0.35557 0.0
O351 O 0.11758 0.818 0.37009 0.0
O352 O 0.10658 0.82509 0.3323 0.0
C353 C 0.15596 0.82977 0.29063 0.0
Tb354 Tb 0.86713 0.69961 0.68726 0.0
C355 C 0.85156 0.63716 0.68793 0.0
Tb356 Tb 0.80991 0.65481 0.68606 0.0
O357 O 0.8685 0.71448 0.72854 0.0
O358 O 0.84255 0.67453 0.71373 0.0
O359 O 0.86961 0.6625 0.68523 0.0
C360 C 0.76426 0.62094 0.70162 0.0
O361 O 0.82743 0.63003 0.69009 0.0
C362 C 0.82911 0.66462 0.64024 0.0
C363 C 0.82535 0.717 0.68479 0.0
O364 O 0.76814 0.62991 0.67831 0.0
O365 O 0.78594 0.63123 0.71592 0.0
O366 O 0.81013 0.64115 0.64446 0.0
O367 O 0.83417 0.68096 0.66028 0.0
O368 O 0.80789 0.69229 0.69031 0.0
O369 O 0.84892 0.72339 0.68017 0.0
C370 C 0.91337 0.73115 0.67184 0.0
O371 O 0.90728 0.73106 0.69602 0.0
O372 O 0.89344 0.71333 0.65639 0.0
C373 C 0.84826 0.69218 0.73292 0.0
Tb374 Tb 0.32199 0.17683 0.6787 0.0
C375 C 0.38036 0.21746 0.68618 0.0
Tb376 Tb 0.35788 0.15336 0.68099 0.0
O377 O 0.33386 0.19425 0.72023 0.0
O378 O 0.33547 0.15994 0.70728 0.0
O379 O 0.35793 0.2138 0.67671 0.0
C380 C 0.39216 0.1391 0.69499 0.0
O381 O 0.38368 0.19699 0.69211 0.0
C382 C 0.33872 0.15308 0.63322 0.0
C383 C 0.29924 0.11309 0.67153 0.0
O384 O 0.39454 0.15564 0.67741 0.0
O385 O 0.37035 0.13034 0.70444 0.0
O386 O 0.3462 0.13629 0.63943 0.0
O387 O 0.34492 0.17066 0.65264 0.0
O388 O 0.32135 0.11619 0.68135 0.0
O389 O 0.29611 0.1338 0.66658 0.0
C390 C 0.28674 0.19022 0.66685 0.0
O391 O 0.28859 0.17923 0.68793 0.0
O392 O 0.3048 0.19372 0.65228 0.0
C393 C 0.34169 0.1778 0.72652 0.0
Tb394 Tb 0.81357 0.16724 0.67156 0.0
C395 C 0.8321 0.12543 0.66611 0.0
Tb396 Tb 0.87074 0.18942 0.66779 0.0
O397 O 0.80509 0.14826 0.63071 0.0
O398 O 0.83942 0.18408 0.64265 0.0
O399 O 0.81421 0.12992 0.67469 0.0
C400 C 0.91556 0.20106 0.65142 0.0
O401 O 0.85438 0.14532 0.66014 0.0
C402 C 0.85729 0.19079 0.7156 0.0
C403 C 0.85235 0.23135 0.67507 0.0
O404 O 0.90905 0.19539 0.67521 0.0
O405 O 0.8969 0.20032 0.63693 0.0
O406 O 0.87954 0.20806 0.70879 0.0
O407 O 0.84495 0.1727 0.69663 0.0
O408 O 0.87076 0.22738 0.66713 0.0
O409 O 0.82955 0.21114 0.67932 0.0
C410 C 0.76839 0.15509 0.68728 0.0
O411 O 0.77457 0.15906 0.66316 0.0
O412 O 0.7876 0.15788 0.70249 0.0
C413 C 0.82715 0.16584 0.62377 0.0
C414 C 0.31135 0.82743 0.09342 0.0
C415 C 0.29044 0.83116 0.09511 0.0
C416 C 0.33405 0.8476 0.08474 0.0
C417 C 0.3355 0.87167 0.07689 0.0
C418 C 0.31431 0.87541 0.07855 0.0
C419 C 0.29212 0.85521 0.08798 0.0
C420 C 0.35645 0.84317 0.08393 0.0
C421 C 0.31485 0.90043 0.06976 0.0
C422 C 0.4002 0.93421 0.07288 0.0
C423 C 0.40354 0.93169 0.04594 0.0
C424 C 0.37831 0.91463 0.08336 0.0
C425 C 0.35892 0.89258 0.06622 0.0
C426 C 0.36187 0.89047 0.03879 0.0
C427 C 0.3843 0.90988 0.02905 0.0
C428 C 0.37612 0.91728 0.1128 0.0
C429 C 0.34135 0.86767 0.01974 0.0
H430 H 0.30995 0.80879 0.09909 0.0
H431 H 0.27577 0.85788 0.08914 0.0
H432 H 0.36155 0.84323 0.06325 0.0
H433 H 0.37329 0.85999 0.09612 0.0
H434 H 0.35247 0.82372 0.09146 0.0
H435 H 0.29677 0.90023 0.07234 0.0
H436 H 0.33073 0.91883 0.08126 0.0
H437 H 0.3183 0.90206 0.04849 0.0
H438 H 0.415 0.95117 0.0859 0.0
H439 H 0.38677 0.908 0.00815 0.0
H440 H 0.37329 0.89876 0.12156 0.0
H441 H 0.35927 0.91924 0.11615 0.0
H442 H 0.39327 0.93507 0.12357 0.0
H443 H 0.33841 0.84795 0.0254 0.0
H444 H 0.34613 0.86959 0.99884 0.0
H445 H 0.32303 0.86727 0.02084 0.0
C446 C 0.17618 0.46313 0.08512 0.0
C447 C 0.16981 0.43628 0.08751 0.0
C448 C 0.15748 0.46935 0.07666 0.0
C449 C 0.13199 0.44813 0.07002 0.0
C450 C 0.12558 0.42095 0.07213 0.0
C451 C 0.14455 0.41538 0.08104 0.0
C452 C 0.16492 0.4986 0.07501 0.0
C453 C 0.0987 0.39774 0.06487 0.0
C454 C 0.07786 0.46313 0.069 0.0
C455 C 0.07363 0.46472 0.04185 0.0
C456 C 0.09705 0.4581 0.07856 0.0
C457 C 0.11204 0.45421 0.0604 0.0
C458 C 0.10761 0.45554 0.0329 0.0
C459 C 0.08854 0.46098 0.02397 0.0
C460 C 0.10144 0.4572 0.10806 0.0
C461 C 0.12291 0.45105 0.0129 0.0
H462 H 0.19569 0.47929 0.09036 0.0
H463 H 0.1397 0.39458 0.08271 0.0
H464 H 0.16072 0.5017 0.05431 0.0
H465 H 0.1535 0.50388 0.08774 0.0
H466 H 0.18545 0.51273 0.08137 0.0
H467 H 0.09694 0.37775 0.06743 0.0
H468 H 0.08552 0.4002 0.07741 0.0
H469 H 0.09241 0.39781 0.04387 0.0
H470 H 0.06631 0.46608 0.0828 0.0
H471 H 0.08523 0.46219 0.00295 0.0
H472 H 0.10049 0.43788 0.11199 0.0
H473 H 0.08729 0.45926 0.11934 0.0
H474 H 0.12079 0.47386 0.11577 0.0
H475 H 0.14344 0.46617 0.01763 0.0
H476 H 0.11696 0.4526 0.99221 0.0
H477 H 0.12073 0.43071 0.01395 0.0
C478 C 0.5649 0.71162 0.08446 0.0
C479 C 0.54847 0.72147 0.07783 0.0
C480 C 0.56007 0.68625 0.07338 0.0
C481 C 0.53877 0.67059 0.05441 0.0
C482 C 0.52262 0.68072 0.04683 0.0
C483 C 0.52742 0.70579 0.05888 0.0
C484 C 0.57747 0.67593 0.08247 0.0
C485 C 0.49995 0.66484 0.02632 0.0
C486 C 0.53876 0.61337 0.01196 0.0
C487 C 0.52216 0.59073 0.02444 0.0
C488 C 0.54383 0.63946 0.02102 0.0
C489 C 0.53269 0.64301 0.0436 0.0
C490 C 0.51608 0.62017 0.05636 0.0
C491 C 0.51075 0.59433 0.04639 0.0
C492 C 0.56111 0.66323 0.00648 0.0
C493 C 0.50443 0.62305 0.08098 0.0
H494 H 0.58164 0.7237 0.09843 0.0
H495 H 0.5143 0.71278 0.05375 0.0
H496 H 0.56638 0.65656 0.09132 0.0
H497 H 0.58583 0.67173 0.06524 0.0
H498 H 0.59321 0.69056 0.09743 0.0
H499 H 0.49058 0.67653 0.02088 0.0
H500 H 0.50591 0.65886 0.00806 0.0
H501 H 0.48573 0.64594 0.03412 0.0
H502 H 0.54756 0.61064 0.99496 0.0
H503 H 0.49818 0.57694 0.05639 0.0
H504 H 0.57835 0.67767 0.01985 0.0
H505 H 0.55126 0.67426 0.00046 0.0
H506 H 0.56717 0.65691 0.98846 0.0
H507 H 0.51974 0.63578 0.09712 0.0
H508 H 0.49153 0.60318 0.08821 0.0
H509 H 0.49349 0.63339 0.07693 0.0
C510 C 0.83338 0.30518 0.95847 0.0
C511 C 0.83894 0.28875 0.94176 0.0
C512 C 0.85286 0.33008 0.97134 0.0
C513 C 0.8785 0.33926 0.9668 0.0
C514 C 0.88433 0.32263 0.95044 0.0
C515 C 0.86461 0.29743 0.93862 0.0
C516 C 0.84592 0.34692 0.9892 0.0
C517 C 0.91136 0.33189 0.9446 0.0
C518 C 0.92448 0.41512 0.97278 0.0
C519 C 0.93982 0.41914 0.99629 0.0
C520 C 0.90448 0.38927 0.96303 0.0
C521 C 0.89908 0.36695 0.97764 0.0
C522 C 0.914 0.37104 0.0019 0.0
C523 C 0.93456 0.39706 0.01069 0.0
C524 C 0.88972 0.38573 0.93661 0.0
C525 C 0.90832 0.34793 0.01845 0.0
H526 H 0.81375 0.29901 0.96098 0.0
H527 H 0.8694 0.28468 0.92658 0.0
H528 H 0.858 0.35364 0.00848 0.0
H529 H 0.84951 0.36539 0.97982 0.0
H530 H 0.8256 0.33564 0.99311 0.0
H531 H 0.91274 0.31645 0.93163 0.0
H532 H 0.91898 0.35081 0.93462 0.0
H533 H 0.92375 0.33656 0.96337 0.0
H534 H 0.92868 0.43212 0.96142 0.0
H535 H 0.94636 0.40019 0.02893 0.0
H536 H 0.86908 0.37612 0.93886 0.0
H537 H 0.89223 0.37208 0.92224 0.0
H538 H 0.89596 0.40528 0.92806 0.0
H539 H 0.88801 0.33751 0.0224 0.0
H540 H 0.92042 0.35484 0.03775 0.0
H541 H 0.9115 0.33277 0.0074 0.0
C542 C 0.7203 0.58959 0.93973 0.0
C543 C 0.72321 0.56784 0.93057 0.0
C544 C 0.69741 0.5851 0.94904 0.0
C545 C 0.67685 0.55823 0.94867 0.0
C546 C 0.67959 0.53621 0.93902 0.0
C547 C 0.70288 0.54129 0.93033 0.0
C548 C 0.69532 0.60905 0.95957 0.0
C549 C 0.65791 0.50733 0.93785 0.0
C550 C 0.62587 0.54347 0.99525 0.0
C551 C 0.60661 0.54297 0.9783 0.0
C552 C 0.64897 0.54871 0.98591 0.0
C553 C 0.65264 0.55314 0.95888 0.0
C554 C 0.63318 0.55264 0.94168 0.0
C555 C 0.61047 0.54786 0.95171 0.0
C556 C 0.66941 0.54945 0.00493 0.0
C557 C 0.63625 0.55686 0.91265 0.0
H558 H 0.73614 0.61011 0.94003 0.0
H559 H 0.70512 0.52452 0.92297 0.0
H560 H 0.67938 0.60933 0.9481 0.0
H561 H 0.691 0.60723 0.98059 0.0
H562 H 0.71308 0.62864 0.95848 0.0
H563 H 0.66286 0.4926 0.92892 0.0
H564 H 0.65253 0.50218 0.95816 0.0
H565 H 0.6409 0.50501 0.92597 0.0
H566 H 0.62289 0.53976 0.01586 0.0
H567 H 0.59557 0.54759 0.93864 0.0
H568 H 0.68728 0.56923 0.00539 0.0
H569 H 0.67364 0.53351 0.99803 0.0
H570 H 0.6638 0.5463 0.02548 0.0
H571 H 0.65302 0.57698 0.91068 0.0
H572 H 0.6192 0.55558 0.90189 0.0
H573 H 0.63978 0.54138 0.90285 0.0
C574 C 0.44311 0.14 0.94405 0.0
C575 C 0.46002 0.16764 0.95208 0.0
C576 C 0.44738 0.11984 0.95348 0.0
C577 C 0.46847 0.12726 0.97228 0.0
C578 C 0.48518 0.15493 0.98113 0.0
C579 C 0.48102 0.17475 0.97065 0.0
C580 C 0.4298 0.09065 0.94262 0.0
C581 C 0.50807 0.16369 0.00092 0.0
C582 C 0.46789 0.07191 0.01125 0.0
C583 C 0.48462 0.06631 0.99817 0.0
C584 C 0.46278 0.09204 0.00332 0.0
C585 C 0.4741 0.10628 0.98133 0.0
C586 C 0.49087 0.10046 0.96797 0.0
C587 C 0.49598 0.08068 0.97664 0.0
C588 C 0.44551 0.0983 0.01864 0.0
C589 C 0.50309 0.11427 0.94398 0.0
H590 H 0.4265 0.13395 0.93023 0.0
H591 H 0.49469 0.19589 0.97664 0.0
H592 H 0.44082 0.08286 0.93236 0.0
H593 H 0.42152 0.07798 0.95909 0.0
H594 H 0.41403 0.08812 0.92833 0.0
H595 H 0.51777 0.18564 0.00782 0.0
H596 H 0.50232 0.15197 0.01846 0.0
H597 H 0.52192 0.15943 0.99161 0.0
H598 H 0.45913 0.06087 0.02793 0.0
H599 H 0.50853 0.07605 0.96604 0.0
H600 H 0.42867 0.09443 0.00532 0.0
H601 H 0.45573 0.12008 0.02623 0.0
H602 H 0.43881 0.08599 0.03571 0.0
H603 H 0.49209 0.10063 0.92575 0.0
H604 H 0.52284 0.11801 0.94439 0.0
H605 H 0.50379 0.13384 0.94242 0.0
C606 C 0.71036 0.1772 0.9677 0.0
C607 C 0.72378 0.16804 0.95289 0.0
C608 C 0.68514 0.15938 0.97265 0.0
C609 C 0.67315 0.13172 0.96263 0.0
C610 C 0.68637 0.1226 0.94686 0.0
C611 C 0.71153 0.14091 0.94212 0.0
C612 C 0.67164 0.16994 0.98935 0.0
C613 C 0.67429 0.0933 0.93584 0.0
C614 C 0.62159 0.08094 0.00137 0.0
C615 C 0.59935 0.07502 0.98574 0.0
C616 C 0.64569 0.0992 0.99392 0.0
C617 C 0.64758 0.11197 0.97032 0.0
C618 C 0.62511 0.10591 0.95436 0.0
C619 C 0.60124 0.08742 0.96227 0.0
C620 C 0.66915 0.1049 0.01138 0.0
C621 C 0.62629 0.11914 0.92912 0.0
H622 H 0.71987 0.19824 0.97588 0.0
H623 H 0.72185 0.13385 0.93051 0.0
H624 H 0.65284 0.16428 0.97896 0.0
H625 H 0.66809 0.16056 0.00838 0.0
H626 H 0.68285 0.19231 0.9939 0.0
H627 H 0.68642 0.08986 0.92245 0.0
H628 H 0.67086 0.08043 0.95245 0.0
H629 H 0.65553 0.08648 0.92467 0.0
H630 H 0.62017 0.07131 0.01952 0.0
H631 H 0.58402 0.08284 0.95022 0.0
H632 H 0.68039 0.12675 0.01863 0.0
H633 H 0.6815 0.1001 0.99971 0.0
H634 H 0.66441 0.09296 0.02884 0.0
H635 H 0.63566 0.14141 0.93384 0.0
H636 H 0.60709 0.11167 0.9186 0.0
H637 H 0.63796 0.11527 0.91547 0.0
C638 C 0.8284 0.53348 0.95516 0.0
C639 C 0.83377 0.56035 0.95819 0.0
C640 C 0.84797 0.52735 0.9584 0.0
C641 C 0.87341 0.54861 0.9652 0.0
C642 C 0.87898 0.57584 0.9675 0.0
C643 C 0.85907 0.58137 0.96398 0.0
C644 C 0.84128 0.49808 0.95564 0.0
C645 C 0.90582 0.59905 0.97491 0.0
C646 C 0.9175 0.53269 0.00625 0.0
C647 C 0.9326 0.53104 0.98727 0.0
C648 C 0.8982 0.5384 0.99925 0.0
C649 C 0.89376 0.54231 0.97253 0.0
C650 C 0.90888 0.54049 0.95319 0.0
C651 C 0.92827 0.535 0.96085 0.0
C652 C 0.8826 0.5403 0.0205 0.0
C653 C 0.90452 0.54428 0.92448 0.0
H654 H 0.80879 0.51724 0.95088 0.0
H655 H 0.86323 0.60216 0.9665 0.0
H656 H 0.85378 0.49526 0.94234 0.0
H657 H 0.84446 0.49217 0.97537 0.0
H658 H 0.82111 0.48422 0.94762 0.0
H659 H 0.90726 0.61908 0.97379 0.0
H660 H 0.91238 0.59802 0.9955 0.0
H661 H 0.91898 0.59755 0.9616 0.0
H662 H 0.92084 0.52961 0.02669 0.0
H663 H 0.93987 0.53353 0.94613 0.0
H664 H 0.86216 0.52518 0.01513 0.0
H665 H 0.88445 0.56063 0.02198 0.0
H666 H 0.88855 0.53678 0.04035 0.0
H667 H 0.88453 0.52968 0.91653 0.0
H668 H 0.91742 0.54141 0.91178 0.0
H669 H 0.90756 0.56492 0.92299 0.0
C670 C 0.47985 0.30927 0.0008 0.0
C671 C 0.46278 0.29253 0.97904 0.0
C672 C 0.4877 0.33695 0.00434 0.0
C673 C 0.47838 0.34813 0.98553 0.0
C674 C 0.46192 0.33146 0.96294 0.0
C675 C 0.4544 0.30385 0.95991 0.0
C676 C 0.50541 0.35407 0.02857 0.0
C677 C 0.45163 0.3426 0.94238 0.0
C678 C 0.47388 0.40958 0.00923 0.0
C679 C 0.4951 0.43078 0.9994 0.0
C680 C 0.46837 0.3827 0.00494 0.0
C681 C 0.48443 0.37674 0.99041 0.0
C682 C 0.50596 0.39801 0.98051 0.0
C683 C 0.51106 0.4248 0.98515 0.0
C684 C 0.44521 0.36061 0.01581 0.0
C685 C 0.52345 0.39245 0.96484 0.0
H686 H 0.48669 0.30056 0.01532 0.0
H687 H 0.44157 0.29093 0.94283 0.0
H688 H 0.52218 0.37226 0.02257 0.0
H689 H 0.49545 0.36127 0.04149 0.0
H690 H 0.51219 0.34273 0.04041 0.0
H691 H 0.44041 0.32743 0.92512 0.0
H692 H 0.43922 0.34912 0.95155 0.0
H693 H 0.46747 0.3607 0.93506 0.0
H694 H 0.46142 0.41393 0.02029 0.0
H695 H 0.52737 0.44099 0.97727 0.0
H696 H 0.45096 0.34963 0.02937 0.0
H697 H 0.432 0.34564 0.99929 0.0
H698 H 0.43475 0.36864 0.02684 0.0
H699 H 0.53123 0.38209 0.9768 0.0
H700 H 0.53959 0.41127 0.95884 0.0
H701 H 0.51262 0.37865 0.94666 0.0
C702 C 0.17346 0.69473 0.02916 0.0
C703 C 0.17563 0.71073 0.05227 0.0
C704 C 0.15275 0.66822 0.02347 0.0
C705 C 0.13387 0.65745 0.0414 0.0
C706 C 0.13631 0.67337 0.06508 0.0
C707 C 0.1572 0.69985 0.07022 0.0
C708 C 0.15087 0.65189 0.99807 0.0
C709 C 0.11668 0.66258 0.08478 0.0
C710 C 0.06778 0.59979 0.01502 0.0
C711 C 0.06836 0.57715 0.02341 0.0
C712 C 0.08899 0.626 0.02066 0.0
C713 C 0.11131 0.62972 0.03514 0.0
C714 C 0.11205 0.60698 0.04364 0.0
C715 C 0.09061 0.581 0.03764 0.0
C716 C 0.08747 0.64974 0.01121 0.0
C717 C 0.13543 0.61011 0.05924 0.0
H718 H 0.18781 0.70312 0.01535 0.0
H719 H 0.15902 0.71225 0.08815 0.0
H720 H 0.14967 0.63259 0.00265 0.0
H721 H 0.13322 0.64661 0.9854 0.0
H722 H 0.16742 0.66299 0.98652 0.0
H723 H 0.1218 0.67722 0.10261 0.0
H724 H 0.09789 0.65788 0.07516 0.0
H725 H 0.1145 0.64342 0.0913 0.0
H726 H 0.05071 0.59708 0.00404 0.0
H727 H 0.09124 0.56371 0.04443 0.0
H728 H 0.10275 0.66071 0.9982 0.0
H729 H 0.09055 0.66424 0.02847 0.0
H730 H 0.06881 0.64342 1.00001 0.0
H731 H 0.1521 0.62004 0.04766 0.0
H732 H 0.13299 0.59038 0.06428 0.0
H733 H 0.13988 0.62337 0.07797 0.0
C734 C 0.2995 0.46441 0.05966 0.0
C735 C 0.28131 0.43675 0.05794 0.0
C736 C 0.32499 0.47314 0.05587 0.0
C737 C 0.33229 0.4537 0.04972 0.0
C738 C 0.314 0.42573 0.04811 0.0
C739 C 0.2887 0.41759 0.05224 0.0
C740 C 0.34397 0.50313 0.05785 0.0
C741 C 0.32101 0.40442 0.04131 0.0
C742 C 0.38922 0.4744 0.01044 0.0
C743 C 0.40802 0.47788 0.03012 0.0
C744 C 0.36451 0.46661 0.01662 0.0
C745 C 0.35862 0.46257 0.04321 0.0
C746 C 0.37772 0.46653 0.06329 0.0
C747 C 0.40222 0.47399 0.05645 0.0
C748 C 0.34465 0.46241 0.99461 0.0
C749 C 0.37223 0.46279 0.09191 0.0
H750 H 0.29367 0.47921 0.06374 0.0
H751 H 0.27458 0.3962 0.05061 0.0
H752 H 0.36078 0.50815 0.07186 0.0
H753 H 0.35088 0.50892 0.03815 0.0
H754 H 0.33565 0.51555 0.06467 0.0
H755 H 0.3048 0.38354 0.04198 0.0
H756 H 0.32737 0.4063 0.02105 0.0
H757 H 0.33713 0.40748 0.05532 0.0
H758 H 0.39374 0.47742 0.99007 0.0
H759 H 0.41687 0.47687 0.0717 0.0
H760 H 0.33688 0.47589 0.99923 0.0
H761 H 0.32852 0.44124 0.99305 0.0
H762 H 0.35238 0.46653 0.97501 0.0
H763 H 0.38947 0.46783 0.10527 0.0
H764 H 0.35745 0.44147 0.09358 0.0
H765 H 0.36458 0.47577 0.09891 0.0
C766 C 0.5341 0.83808 0.03425 0.0
C767 C 0.55299 0.84451 0.0551 0.0
C768 C 0.52587 0.85638 0.02858 0.0
C769 C 0.53673 0.88161 0.04426 0.0
C770 C 0.55526 0.88781 0.06587 0.0
C771 C 0.56307 0.86908 0.07112 0.0
C772 C 0.50587 0.8489 0.00557 0.0
C773 C 0.56722 0.91443 0.08311 0.0
C774 C 0.53642 0.94048 0.01348 0.0
C775 C 0.51633 0.94125 0.02489 0.0
C776 C 0.5431 0.92106 0.0195 0.0
C777 C 0.52943 0.90196 0.03742 0.0
C778 C 0.50905 0.90254 0.04892 0.0
C779 C 0.50274 0.92215 0.04251 0.0
C780 C 0.56499 0.92116 0.00686 0.0
C781 C 0.49413 0.88268 0.06827 0.0
H782 H 0.52602 0.81883 0.02219 0.0
H783 H 0.57736 0.8738 0.08754 0.0
H784 H 0.4896 0.85035 0.01248 0.0
H785 H 0.51394 0.86338 0.99038 0.0
H786 H 0.49861 0.82808 0.996 0.0
H787 H 0.5806 0.91569 0.09977 0.0
H788 H 0.57777 0.93139 0.07088 0.0
H789 H 0.55224 0.91736 0.09148 0.0
H790 H 0.54706 0.95516 0.9999 0.0
H791 H 0.48738 0.92276 0.05169 0.0
H792 H 0.55838 0.90123 0.99556 0.0
H793 H 0.58003 0.92437 0.02253 0.0
H794 H 0.57355 0.9372 0.99317 0.0
H795 H 0.48632 0.86161 0.05919 0.0
H796 H 0.47814 0.88508 0.07457 0.0
H797 H 0.5069 0.88557 0.08624 0.0
C798 C 0.96921 0.16386 0.4104 0.0
C799 C 0.94987 0.16976 0.41439 0.0
C800 C 0.99226 0.18319 0.40161 0.0
C801 C 0.9957 0.20871 0.39599 0.0
C802 C 0.97603 0.21458 0.3997 0.0
C803 C 0.95345 0.19514 0.40921 0.0
C804 C 0.013 0.17639 0.39854 0.0
C805 C 0.97871 0.24128 0.39336 0.0
C806 C 0.06305 0.26778 0.39494 0.0
C807 C 0.06633 0.26688 0.36782 0.0
C808 C 0.0402 0.24892 0.40442 0.0
C809 C 0.01988 0.22922 0.38619 0.0
C810 C 0.02286 0.22884 0.35864 0.0
C811 C 0.04622 0.24745 0.34982 0.0
C812 C 0.03808 0.24961 0.43399 0.0
C813 C 1.00144 0.20864 0.33851 0.0
H814 H 0.96639 0.14424 0.41457 0.0
H815 H 0.93835 0.19954 0.41214 0.0
H816 H 0.01732 0.17702 0.37753 0.0
H817 H 0.03075 0.19171 0.41074 0.0
H818 H 0.00764 0.15603 0.40461 0.0
H819 H 0.96139 0.24241 0.39673 0.0
H820 H 0.99519 0.25821 0.40584 0.0
H821 H 0.98248 0.24433 0.37229 0.0
H822 H 0.07866 0.28276 0.4089 0.0
H823 H 0.04875 0.24682 0.32882 0.0
H824 H 0.0348 0.23023 0.44104 0.0
H825 H 0.02152 0.25175 0.43843 0.0
H826 H 0.05548 0.2665 0.44545 0.0
H827 H 0.99677 0.18777 0.342 0.0
H828 H 0.00631 0.21203 0.31774 0.0
H829 H 0.98403 0.20988 0.3408 0.0
C830 C 0.82709 0.76672 0.40114 0.0
C831 C 0.84085 0.77756 0.42617 0.0
C832 C 0.80815 0.77244 0.39238 0.0
C833 C 0.80338 0.78997 0.40882 0.0
C834 C 0.8178 0.80157 0.43385 0.0
C835 C 0.83615 0.79489 0.4424 0.0
C836 C 0.79279 0.75919 0.36585 0.0
C837 C 0.81373 0.82088 0.45163 0.0
C838 C 0.76868 0.8215 0.37475 0.0
C839 C 0.74397 0.80564 0.38196 0.0
C840 C 0.78837 0.81704 0.38387 0.0
C841 C 0.78299 0.79575 0.39998 0.0
C842 C 0.75799 0.77966 0.40728 0.0
C843 C 0.73884 0.78506 0.39846 0.0
C844 C 0.81491 0.83511 0.3763 0.0
C845 C 0.75138 0.75646 0.42401 0.0
H846 H 0.83065 0.75309 0.3888 0.0
H847 H 0.84689 0.80322 0.46176 0.0
H848 H 0.7723 0.74681 0.36874 0.0
H849 H 0.79475 0.77486 0.35275 0.0
H850 H 0.79879 0.74595 0.35556 0.0
H851 H 0.82743 0.82922 0.46983 0.0
H852 H 0.81573 0.83795 0.44064 0.0
H853 H 0.79412 0.81036 0.45771 0.0
H854 H 0.77269 0.83761 0.3622 0.0
H855 H 0.7197 0.77283 0.40406 0.0
H856 H 0.821 0.82295 0.36426 0.0
H857 H 0.82857 0.84437 0.39445 0.0
H858 H 0.81617 0.85155 0.3647 0.0
H859 H 0.75572 0.74171 0.41396 0.0
H860 H 0.73098 0.7457 0.42766 0.0
H861 H 0.76316 0.76401 0.44347 0.0
C862 C 0.19781 0.03962 0.3847 0.0
C863 C 0.21952 0.05564 0.40277 0.0
C864 C 0.19221 0.01399 0.37337 0.0
C865 C 0.20827 0.00368 0.38077 0.0
C866 C 0.23034 0.01978 0.39869 0.0
C867 C 0.23591 0.04565 0.40906 0.0
C868 C 0.16874 0.99766 0.35393 0.0
C869 C 0.24774 0.00938 0.40751 0.0
C870 C 0.17921 0.92719 0.37569 0.0
C871 C 0.18946 0.92235 0.35334 0.0
C872 C 0.18524 0.95352 0.38482 0.0
C873 C 0.20139 0.97556 0.37085 0.0
C874 C 0.21137 0.97073 0.3479 0.0
C875 C 0.20561 0.9442 0.33966 0.0
C876 C 0.17481 0.95777 0.40984 0.0
C877 C 0.22812 0.99358 0.33208 0.0
H878 H 0.18475 0.04674 0.37982 0.0
H879 H 0.25314 0.05797 0.42232 0.0
H880 H 0.17372 0.99059 0.33559 0.0
H881 H 0.15472 0.9794 0.36279 0.0
H882 H 0.15951 0.00946 0.34838 0.0
H883 H 0.26419 0.02443 0.42154 0.0
H884 H 0.23692 0.99063 0.4174 0.0
H885 H 0.2551 0.00406 0.39003 0.0
H886 H 0.16697 0.91042 0.38657 0.0
H887 H 0.21348 0.94051 0.32232 0.0
H888 H 0.16429 0.9686 0.40595 0.0
H889 H 0.19078 0.97061 0.42534 0.0
H890 H 0.16182 0.93839 0.41784 0.0
H891 H 0.21826 0.00459 0.326 0.0
H892 H 0.23328 0.98628 0.31398 0.0
H893 H 0.24589 0.00834 0.34456 0.0
C894 C 0.52041 0.6437 0.26432 0.0
C895 C 0.50637 0.62163 0.27885 0.0
C896 C 0.54019 0.66847 0.27691 0.0
C897 C 0.54595 0.67145 0.30484 0.0
C898 C 0.53167 0.64944 0.31973 0.0
C899 C 0.51212 0.62476 0.30656 0.0
C900 C 0.55497 0.69146 0.26029 0.0
C901 C 0.53711 0.65194 0.34955 0.0
C902 C 0.61205 0.72863 0.33175 0.0
C903 C 0.60726 0.74963 0.33866 0.0
C904 C 0.59215 0.70278 0.32148 0.0
C905 C 0.56685 0.69776 0.31831 0.0
C906 C 0.56177 0.71851 0.32639 0.0
C907 C 0.58203 0.74421 0.33633 0.0
C908 C 0.59836 0.68124 0.31288 0.0
C909 C 0.53503 0.7139 0.32361 0.0
H910 H 0.51583 0.64169 0.24299 0.0
H911 H 0.50161 0.60777 0.31794 0.0
H912 H 0.55296 0.70909 0.26671 0.0
H913 H 0.57555 0.69817 0.26323 0.0
H914 H 0.54846 0.68568 0.23873 0.0
H915 H 0.52395 0.63311 0.3583 0.0
H916 H 0.55695 0.65667 0.35478 0.0
H917 H 0.53542 0.66893 0.35882 0.0
H918 H 0.63147 0.73265 0.3333 0.0
H919 H 0.57809 0.76025 0.34175 0.0
H920 H 0.59426 0.67643 0.29098 0.0
H921 H 0.58621 0.6623 0.32195 0.0
H922 H 0.61866 0.68771 0.31842 0.0
H923 H 0.52802 0.71063 0.30223 0.0
H924 H 0.534 0.73132 0.33295 0.0
H925 H 0.52196 0.69542 0.33283 0.0
C926 C 0.35816 0.86942 0.2328 0.0
C927 C 0.38085 0.88465 0.24954 0.0
C928 C 0.33489 0.86525 0.24092 0.0
C929 C 0.33453 0.87713 0.26613 0.0
C930 C 0.35761 0.8932 0.28271 0.0
C931 C 0.38044 0.89647 0.27434 0.0
C932 C 0.31066 0.84736 0.22296 0.0
C933 C 0.35819 0.90682 0.3094 0.0
C934 C 0.27838 0.8856 0.28168 0.0
C935 C 0.2665 0.86551 0.29885 0.0
C936 C 0.3003 0.88933 0.27038 0.0
C937 C 0.31006 0.87204 0.27586 0.0
C938 C 0.29734 0.85093 0.29225 0.0
C939 C 0.27592 0.84818 0.30386 0.0
C940 C 0.31346 0.91223 0.25325 0.0
C941 C 0.30661 0.83152 0.29789 0.0
H942 H 0.35856 0.86022 0.21364 0.0
H943 H 0.3981 0.90853 0.28709 0.0
H944 H 0.29936 0.82802 0.23175 0.0
H945 H 0.29879 0.85698 0.22116 0.0
H946 H 0.3145 0.84268 0.20274 0.0
H947 H 0.37789 0.92005 0.31907 0.0
H948 H 0.34902 0.91925 0.30705 0.0
H949 H 0.34722 0.89128 0.32283 0.0
H950 H 0.27091 0.89885 0.27764 0.0
H951 H 0.26643 0.8323 0.31677 0.0
H952 H 0.31551 0.90437 0.23357 0.0
H953 H 0.33293 0.92682 0.26273 0.0
H954 H 0.30296 0.92325 0.25014 0.0
H955 H 0.3089 0.82255 0.27897 0.0
H956 H 0.29337 0.81486 0.30915 0.0
H957 H 0.32555 0.84258 0.3096 0.0
C958 C 0.12969 0.48067 0.26728 0.0
C959 C 0.12367 0.49741 0.28281 0.0
C960 C 0.13376 0.46109 0.27853 0.0
C961 C 0.13191 0.4582 0.30606 0.0
C962 C 0.12571 0.47489 0.32183 0.0
C963 C 0.1216 0.49421 0.31003 0.0
C964 C 0.14036 0.4437 0.261 0.0
C965 C 0.12363 0.47251 0.35124 0.0
C966 C 0.12337 0.39218 0.32912 0.0
C967 C 0.14858 0.39947 0.33737 0.0
C968 C 0.11753 0.41124 0.31955 0.0
C969 C 0.13732 0.43828 0.31839 0.0
C970 C 0.16259 0.44602 0.32785 0.0
C971 C 0.16791 0.42656 0.33714 0.0
C972 C 0.09034 0.40216 0.3096 0.0
C973 C 0.18423 0.47468 0.32726 0.0
H974 H 0.13167 0.48316 0.24634 0.0
H975 H 0.11653 0.50669 0.32215 0.0
H976 H 0.15958 0.44744 0.26792 0.0
H977 H 0.12667 0.42195 0.26234 0.0
H978 H 0.14016 0.44777 0.23981 0.0
H979 H 0.11827 0.48671 0.36067 0.0
H980 H 0.1092 0.45154 0.35458 0.0
H981 H 0.14209 0.47676 0.36138 0.0
H982 H 0.10831 0.37131 0.32906 0.0
H983 H 0.18744 0.43248 0.3436 0.0
H984 H 0.08888 0.40344 0.28784 0.0
H985 H 0.08432 0.41572 0.31908 0.0
H986 H 0.07692 0.38101 0.3136 0.0
H987 H 0.18689 0.47944 0.30634 0.0
H988 H 0.20247 0.47789 0.33703 0.0
H989 H 0.17968 0.48925 0.33731 0.0
C990 C 0.37599 0.50977 0.29846 0.0
C991 C 0.39361 0.50111 0.29539 0.0
C992 C 0.35097 0.49158 0.30379 0.0
C993 C 0.34362 0.46424 0.3067 0.0
C994 C 0.36138 0.45543 0.30368 0.0
C995 C 0.38617 0.47399 0.29813 0.0
C996 C 0.33257 0.50173 0.3068 0.0
C997 C 0.35437 0.42653 0.30689 0.0
C998 C 0.28864 0.42466 0.34774 0.0
C999 C 0.26861 0.4088 0.32796 0.0
C1000 C 0.31316 0.44272 0.34107 0.0
C1001 C 0.31767 0.44509 0.31396 0.0
C1002 C 0.29746 0.42906 0.29389 0.0
C1003 C 0.27315 0.41103 0.30114 0.0
C1004 C 0.33424 0.45927 0.36306 0.0
C1005 C 0.30147 0.43113 0.26478 0.0
H1006 H 0.38186 0.53086 0.29694 0.0
H1007 H 0.39992 0.46738 0.29631 0.0
H1008 H 0.31498 0.48911 0.29314 0.0
H1009 H 0.32692 0.49995 0.32736 0.0
H1010 H 0.34086 0.5232 0.30261 0.0
H1011 H 0.37014 0.42271 0.3031 0.0
H1012 H 0.34929 0.42179 0.32738 0.0
H1013 H 0.3374 0.41236 0.29303 0.0
H1014 H 0.28514 0.42295 0.36848 0.0
H1015 H 0.25762 0.39886 0.28581 0.0
H1016 H 0.34206 0.48119 0.36128 0.0
H1017 H 0.35007 0.45513 0.36128 0.0
H1018 H 0.32764 0.45487 0.38313 0.0
H1019 H 0.30757 0.45203 0.25992 0.0
H1020 H 0.28395 0.41676 0.25166 0.0
H1021 H 0.31688 0.42699 0.2603 0.0
C1022 C 0.48955 0.86477 0.30482 0.0
C1023 C 0.49485 0.88794 0.29228 0.0
C1024 C 0.50854 0.85815 0.31036 0.0
C1025 C 0.53339 0.87514 0.30312 0.0
C1026 C 0.53859 0.89812 0.28968 0.0
C1027 C 0.51918 0.90416 0.28427 0.0
C1028 C 0.50217 0.83335 0.3245 0.0
C1029 C 0.56482 0.91671 0.28163 0.0
C1030 C 0.58799 0.87534 0.34366 0.0
C1031 C 0.5932 0.85887 0.32679 0.0
C1032 C 0.56871 0.88096 0.33605 0.0
C1033 C 0.55426 0.86973 0.311 0.0
C1034 C 0.55961 0.85321 0.29378 0.0
C1035 C 0.57908 0.84799 0.30189 0.0
C1036 C 0.56371 0.8988 0.35492 0.0
C1037 C 0.54463 0.84084 0.26693 0.0
H1038 H 0.47058 0.85206 0.31062 0.0
H1039 H 0.52314 0.92185 0.27419 0.0
H1040 H 0.50742 0.82008 0.31304 0.0
H1041 H 0.51341 0.8395 0.34426 0.0
H1042 H 0.48162 0.82144 0.32741 0.0
H1043 H 0.5654 0.93293 0.27013 0.0
H1044 H 0.57863 0.92632 0.29964 0.0
H1045 H 0.57123 0.90497 0.26943 0.0
H1046 H 0.59895 0.88381 0.3629 0.0
H1047 H 0.58314 0.83526 0.28882 0.0
H1048 H 0.5439 0.88737 0.36032 0.0
H1049 H 0.56569 0.91648 0.34508 0.0
H1050 H 0.57695 0.90631 0.37347 0.0
H1051 H 0.52423 0.82727 0.26949 0.0
H1052 H 0.55157 0.82899 0.25568 0.0
H1053 H 0.54581 0.85695 0.2549 0.0
C1054 C 0.11625 0.6326 0.28828 0.0
C1055 C 0.12762 0.62302 0.30617 0.0
C1056 C 0.12272 0.65994 0.29067 0.0
C1057 C 0.14117 0.67812 0.31132 0.0
C1058 C 0.15348 0.66872 0.32874 0.0
C1059 C 0.1466 0.64128 0.32588 0.0
C1060 C 0.10926 0.66916 0.27161 0.0
C1061 C 0.17339 0.68748 0.35085 0.0
C1062 C 0.17114 0.75423 0.30806 0.0
C1063 C 0.15698 0.76053 0.32499 0.0
C1064 C 0.1661 0.7275 0.3032 0.0
C1065 C 0.14654 0.70656 0.3157 0.0
C1066 C 0.13213 0.71279 0.3327 0.0
C1067 C 0.13746 0.73964 0.33708 0.0
C1068 C 0.18174 0.72168 0.28474 0.0
C1069 C 0.11108 0.69108 0.34638 0.0
H1070 H 0.10186 0.61852 0.27276 0.0
H1071 H 0.15569 0.63391 0.33942 0.0
H1072 H 0.09752 0.67543 0.28262 0.0
H1073 H 0.12334 0.68707 0.26236 0.0
H1074 H 0.09667 0.65298 0.25559 0.0
H1075 H 0.18215 0.67737 0.36175 0.0
H1076 H 0.18866 0.70544 0.34271 0.0
H1077 H 0.16465 0.69493 0.3652 0.0
H1078 H 0.18607 0.77016 0.29837 0.0
H1079 H 0.12641 0.74427 0.35018 0.0
H1080 H 0.16909 0.70641 0.26814 0.0
H1081 H 0.19189 0.71298 0.29558 0.0
H1082 H 0.19597 0.74014 0.27625 0.0
H1083 H 0.0966 0.67503 0.33137 0.0
H1084 H 0.1015 0.6992 0.35881 0.0
H1085 H 0.11892 0.68137 0.35926 0.0
C1086 C 0.83019 0.03049 0.35851 0.0
C1087 C 0.83218 0.04871 0.37948 0.0
C1088 C 0.80999 0.00354 0.35541 0.0
C1089 C 0.79151 0.9946 0.37388 0.0
C1090 C 0.79379 0.01284 0.39543 0.0
C1091 C 0.81416 0.03968 0.398 0.0
C1092 C 0.80829 0.9847 0.33224 0.0
C1093 C 0.77459 0.00405 0.41564 0.0
C1094 C 0.72643 0.93299 0.35177 0.0
C1095 C 0.72844 0.91228 0.36316 0.0
C1096 C 0.74677 0.95986 0.35519 0.0
C1097 C 0.76966 0.96625 0.37046 0.0
C1098 C 0.77174 0.9455 0.38221 0.0
C1099 C 0.75114 0.91879 0.37839 0.0
C1100 C 0.74383 0.98142 0.34231 0.0
C1101 C 0.79576 0.9515 0.39875 0.0
H1102 H 0.84433 0.03742 0.34438 0.0
H1103 H 0.81596 0.05378 0.41439 0.0
H1104 H 0.80822 0.96677 0.33957 0.0
H1105 H 0.79016 0.9772 0.31948 0.0
H1106 H 0.82436 0.99472 0.31983 0.0
H1107 H 0.77938 0.02055 0.43152 0.0
H1108 H 0.75539 0.99734 0.40563 0.0
H1109 H 0.77351 0.9865 0.42501 0.0
H1110 H 0.709 0.9282 0.33998 0.0
H1111 H 0.75287 0.903 0.38743 0.0
H1112 H 0.75851 0.99093 0.32831 0.0
H1113 H 0.74685 0.99765 0.35766 0.0
H1114 H 0.72474 0.9732 0.33124 0.0
H1115 H 0.81206 0.95999 0.38652 0.0
H1116 H 0.79418 0.93316 0.40688 0.0
H1117 H 0.80021 0.96699 0.41556 0.0
C1118 C 0.96598 0.7967 0.39599 0.0
C1119 C 0.94813 0.76903 0.39555 0.0
C1120 C 0.99135 0.80554 0.39146 0.0
C1121 C 0.99887 0.7862 0.38577 0.0
C1122 C 0.98092 0.75823 0.38535 0.0
C1123 C 0.95574 0.74998 0.39023 0.0
C1124 C 0.00996 0.83554 0.39218 0.0
C1125 C 0.98812 0.73698 0.37901 0.0
C1126 C 0.05443 0.80612 0.34446 0.0
C1127 C 0.07398 0.81056 0.36367 0.0
C1128 C 0.02993 0.79821 0.35145 0.0
C1129 C 0.02499 0.7951 0.37839 0.0
C1130 C 0.04484 0.80008 0.39798 0.0
C1131 C 0.06913 0.80755 0.39033 0.0
C1132 C 0.00924 0.79285 0.32993 0.0
C1133 C 0.04042 0.79742 0.42695 0.0
H1134 H 0.96 0.81142 0.39969 0.0
H1135 H 0.94188 0.72857 0.38952 0.0
H1136 H 0.02726 0.84129 0.40572 0.0
H1137 H 0.0161 0.84058 0.37207 0.0
H1138 H 1.0016 0.84796 0.39887 0.0
H1139 H 0.97223 0.71615 0.38063 0.0
H1140 H 0.9938 0.73812 0.35849 0.0
H1141 H 0.00475 0.7408 0.39267 0.0
H1142 H 0.05819 0.80841 0.32382 0.0
H1143 H 0.08433 0.81116 0.4052 0.0
H1144 H 1.00135 0.80625 0.33432 0.0
H1145 H 0.99336 0.77164 0.32936 0.0
H1146 H 0.01624 0.79621 0.30994 0.0
H1147 H 0.0327 0.81039 0.4338 0.0
H1148 H 0.05814 0.80322 0.43983 0.0
H1149 H 0.02604 0.7762 0.42956 0.0
C1150 C 0.22538 0.19768 0.40041 0.0
C1151 C 0.22371 0.17875 0.38042 0.0
C1152 C 0.21763 0.2164 0.3948 0.0
C1153 C 0.20791 0.21609 0.36856 0.0
C1154 C 0.20576 0.19663 0.34841 0.0
C1155 C 0.21361 0.17812 0.35461 0.0
C1156 C 0.22009 0.23667 0.41689 0.0
C1157 C 0.19541 0.19555 0.32024 0.0
C1158 C 0.16815 0.24995 0.35955 0.0
C1159 C 0.18602 0.27539 0.35216 0.0
C1160 C 0.17492 0.23037 0.36462 0.0
C1161 C 0.20018 0.23627 0.3622 0.0
C1162 C 0.21818 0.26167 0.35423 0.0
C1163 C 0.2109 0.28091 0.34931 0.0
C1164 C 0.15514 0.20354 0.37304 0.0
C1165 C 0.24528 0.26871 0.35135 0.0
H1166 H 0.23304 0.19799 0.42039 0.0
H1167 H 0.21214 0.16334 0.33918 0.0
H1168 H 0.23303 0.25755 0.41192 0.0
H1169 H 0.20126 0.23478 0.41907 0.0
H1170 H 0.2276 0.23394 0.43629 0.0
H1171 H 0.19461 0.17894 0.30698 0.0
H1172 H 0.17597 0.19264 0.31996 0.0
H1173 H 0.20754 0.21507 0.31204 0.0
H1174 H 0.14887 0.24538 0.36184 0.0
H1175 H 0.22488 0.30044 0.3436 0.0
H1176 H 0.1612 0.20103 0.39327 0.0
H1177 H 0.15331 0.18665 0.35942 0.0
H1178 H 0.13614 0.20177 0.3732 0.0
H1179 H 0.25454 0.26844 0.37078 0.0
H1180 H 0.25678 0.289 0.34425 0.0
H1181 H 0.2455 0.25335 0.33716 0.0
C1182 C 0.62995 0.53146 0.75924 0.0
C1183 C 0.62181 0.50371 0.75544 0.0
C1184 C 0.65294 0.551 0.75047 0.0
C1185 C 0.66812 0.54266 0.73729 0.0
C1186 C 0.66001 0.51473 0.73328 0.0
C1187 C 0.63708 0.49565 0.74252 0.0
C1188 C 0.661 0.58059 0.7553 0.0
C1189 C 0.67562 0.50499 0.71931 0.0
C1190 C 0.71682 0.59084 0.69383 0.0
C1191 C 0.73951 0.60134 0.71056 0.0
C1192 C 0.6934 0.57175 0.70228 0.0
C1193 C 0.69271 0.56317 0.7281 0.0
C1194 C 0.71563 0.57392 0.74508 0.0
C1195 C 0.73873 0.59272 0.73602 0.0
C1196 C 0.66943 0.56057 0.6835 0.0
C1197 C 0.71579 0.56555 0.77281 0.0
H1198 H 0.61816 0.53794 0.76878 0.0
H1199 H 0.63124 0.47435 0.73982 0.0
H1200 H 0.6799 0.59186 0.76709 0.0
H1201 H 0.66299 0.58948 0.73607 0.0
H1202 H 0.64718 0.58378 0.76605 0.0
H1203 H 0.66636 0.48255 0.71713 0.0
H1204 H 0.67874 0.51224 0.69926 0.0
H1205 H 0.69464 0.51354 0.73059 0.0
H1206 H 0.71741 0.59739 0.67409 0.0
H1207 H 0.75629 0.60055 0.74887 0.0
H1208 H 0.65547 0.56473 0.69265 0.0
H1209 H 0.66046 0.53825 0.67971 0.0
H1210 H 0.67316 0.56939 0.66416 0.0
H1211 H 0.70372 0.57066 0.78462 0.0
H1212 H 0.73528 0.57561 0.78341 0.0
H1213 H 0.70757 0.54329 0.77196 0.0
C1214 C 0.50921 0.13507 0.76828 0.0
C1215 C 0.51072 0.11255 0.75885 0.0
C1216 C 0.49012 0.13958 0.75726 0.0
C1217 C 0.47207 0.12088 0.73661 0.0
C1218 C 0.47368 0.0981 0.72703 0.0
C1219 C 0.49313 0.09427 0.73824 0.0
C1220 C 0.48911 0.16419 0.76784 0.0
C1221 C 0.45464 0.07759 0.70526 0.0
C1222 C 0.40857 0.11815 0.72639 0.0
C1223 C 0.41208 0.13335 0.7047 0.0
C1224 C 0.42792 0.11385 0.73693 0.0
C1225 C 0.45124 0.12489 0.72535 0.0
C1226 C 0.45473 0.13997 0.70319 0.0
C1227 C 0.43508 0.14409 0.69315 0.0
C1228 C 0.42355 0.09778 0.76067 0.0
C1229 C 0.47932 0.15203 0.69031 0.0
H1230 H 0.52292 0.14905 0.78433 0.0
H1231 H 0.49439 0.07677 0.73122 0.0
H1232 H 0.49017 0.17664 0.75143 0.0
H1233 H 0.47073 0.15781 0.77619 0.0
H1234 H 0.50488 0.17704 0.78357 0.0
H1235 H 0.45878 0.06122 0.69982 0.0
H1236 H 0.43519 0.0683 0.71176 0.0
H1237 H 0.45458 0.08772 0.68725 0.0
H1238 H 0.39083 0.11002 0.73546 0.0
H1239 H 0.4378 0.15592 0.6764 0.0
H1240 H 0.43774 0.11059 0.77764 0.0
H1241 H 0.4262 0.08025 0.75592 0.0
H1242 H 0.40417 0.09018 0.76702 0.0
H1243 H 0.49537 0.16649 0.70502 0.0
H1244 H 0.47882 0.16284 0.67294 0.0
H1245 H 0.48332 0.13586 0.68361 0.0
C1246 C 0.88485 0.38586 0.7076 0.0
C1247 C 0.88466 0.39037 0.73515 0.0
C1248 C 0.87915 0.36038 0.69569 0.0
C1249 C 0.87354 0.33897 0.7117 0.0
C1250 C 0.87319 0.34331 0.73944 0.0
C1251 C 0.87844 0.36876 0.75074 0.0
C1252 C 0.8793 0.35642 0.66598 0.0
C1253 C 0.86766 0.32116 0.75732 0.0
C1254 C 0.83801 0.26499 0.68327 0.0
C1255 C 0.85793 0.25951 0.68153 0.0
C1256 C 0.8429 0.29105 0.69198 0.0
C1257 C 0.86828 0.31204 0.69967 0.0
C1258 C 0.88851 0.30677 0.69739 0.0
C1259 C 0.88311 0.28064 0.68813 0.0
C1260 C 0.82081 0.29591 0.69372 0.0
C1261 C 0.9158 0.32842 0.70582 0.0
H1262 H 0.8899 0.40236 0.69533 0.0
H1263 H 0.8776 0.37166 0.77191 0.0
H1264 H 0.89425 0.35154 0.66154 0.0
H1265 H 0.86078 0.33904 0.65714 0.0
H1266 H 0.88286 0.37469 0.65615 0.0
H1267 H 0.86771 0.32763 0.77845 0.0
H1268 H 0.84886 0.30302 0.75066 0.0
H1269 H 0.88219 0.31496 0.75609 0.0
H1270 H 0.8185 0.2488 0.67813 0.0
H1271 H 0.8986 0.27652 0.68714 0.0
H1272 H 0.82429 0.3139 0.68348 0.0
H1273 H 0.81893 0.30017 0.71486 0.0
H1274 H 0.80251 0.27822 0.68477 0.0
H1275 H 0.9208 0.34678 0.69556 0.0
H1276 H 0.92943 0.32151 0.70149 0.0
H1277 H 0.91817 0.33439 0.7275 0.0
C1278 C 0.2035 0.96314 0.60565 0.0
C1279 C 0.17787 0.95411 0.60934 0.0
C1280 C 0.22317 0.98856 0.61709 0.0
C1281 C 0.21735 0.00507 0.63365 0.0
C1282 C 0.19178 0.9956 0.63869 0.0
C1283 C 0.17233 0.97049 0.62616 0.0
C1284 C 0.25011 0.99814 0.61069 0.0
C1285 C 0.18487 0.01232 0.65676 0.0
C1286 C 0.2733 0.06353 0.67711 0.0
C1287 C 0.27781 0.08553 0.6629 0.0
C1288 C 0.2531 0.03729 0.66834 0.0
C1289 C 0.23783 0.03291 0.64426 0.0
C1290 C 0.24259 0.05513 0.62976 0.0
C1291 C 0.26219 0.0812 0.63953 0.0
C1292 C 0.24809 0.01428 0.68479 0.0
C1293 C 0.22749 0.05131 0.60349 0.0
H1294 H 0.2083 0.95048 0.5935 0.0
H1295 H 0.15273 0.96412 0.62908 0.0
H1296 H 0.25731 0.01701 0.60067 0.0
H1297 H 0.26284 0.00302 0.62924 0.0
H1298 H 0.25149 0.98281 0.59755 0.0
H1299 H 0.16465 1.00087 0.66101 0.0
H1300 H 0.19722 0.01922 0.67588 0.0
H1301 H 0.1881 0.03067 0.64739 0.0
H1302 H 0.28533 0.06692 0.69524 0.0
H1303 H 0.26583 0.09816 0.62834 0.0
H1304 H 0.2512 0.99922 0.67344 0.0
H1305 H 0.22793 0.00369 0.68925 0.0
H1306 H 0.2606 0.02133 0.70383 0.0
H1307 H 0.23 0.03771 0.58905 0.0
H1308 H 0.23343 0.07077 0.59488 0.0
H1309 H 0.20689 0.04151 0.60601 0.0
C1310 C 0.05421 0.25587 0.60522 0.0
C1311 C 0.05939 0.23498 0.59952 0.0
C1312 C 0.03055 0.25028 0.61315 0.0
C1313 C 0.01148 0.22308 0.61493 0.0
C1314 C 0.01644 0.20184 0.60865 0.0
C1315 C 0.0405 0.20808 0.60129 0.0
C1316 C 0.02612 0.2735 0.62013 0.0
C1317 C 0.99639 0.17257 0.60981 0.0
C1318 C 0.95986 0.21001 0.66021 0.0
C1319 C 0.94002 0.20674 0.64211 0.0
C1320 C 0.98327 0.2154 0.6516 0.0
C1321 C 0.98663 0.217 0.62419 0.0
C1322 C 0.96649 0.21341 0.60579 0.0
C1323 C 0.94349 0.20864 0.61506 0.0
C1324 C 0.00447 0.21964 0.67187 0.0
C1325 C 0.96919 0.21446 0.57636 0.0
H1326 H 0.06895 0.27668 0.60403 0.0
H1327 H 0.0445 0.19195 0.59665 0.0
H1328 H 0.00943 0.27099 0.60749 0.0
H1329 H 0.02176 0.27353 0.6411 0.0
H1330 H 0.04289 0.29346 0.61753 0.0
H1331 H 0.00288 0.15842 0.6031 0.0
H1332 H 0.99127 0.16914 0.63047 0.0
H1333 H 0.97881 0.16762 0.59718 0.0
H1334 H 0.95718 0.20863 0.68116 0.0
H1335 H 0.92812 0.20621 0.60111 0.0
H1336 H 0.0214 0.23996 0.67105 0.0
H1337 H 0.01029 0.20446 0.66722 0.0
H1338 H 0.99883 0.21798 0.69246 0.0
H1339 H 0.98553 0.23424 0.57263 0.0
H1340 H 0.95178 0.21149 0.56474 0.0
H1341 H 0.97319 0.1985 0.56889 0.0
C1342 C 0.78761 0.82967 0.65143 0.0
C1343 C 0.7891 0.83207 0.62405 0.0
C1344 C 0.79212 0.81082 0.66367 0.0
C1345 C 0.79814 0.7938 0.64817 0.0
C1346 C 0.79929 0.7958 0.62046 0.0
C1347 C 0.79484 0.81492 0.60878 0.0
C1348 C 0.79079 0.80937 0.69326 0.0
C1349 C 0.80569 0.77806 0.6032 0.0
C1350 C 0.8364 0.76448 0.67866 0.0
C1351 C 0.81765 0.73729 0.67961 0.0
C1352 C 0.83013 0.78331 0.66955 0.0
C1353 C 0.80447 0.77477 0.66096 0.0
C1354 C 0.78527 0.74766 0.66305 0.0
C1355 C 0.79207 0.72924 0.67247 0.0
C1356 C 0.85118 0.81208 0.66798 0.0
C1357 C 0.7577 0.73774 0.65402 0.0
H1358 H 0.78278 0.84248 0.66335 0.0
H1359 H 0.79638 0.81682 0.5877 0.0
H1360 H 0.77696 0.78844 0.69738 0.0
H1361 H 0.80964 0.81451 0.7031 0.0
H1362 H 0.78511 0.82341 0.70238 0.0
H1363 H 0.80465 0.78122 0.58182 0.0
H1364 H 0.82522 0.7824 0.60961 0.0
H1365 H 0.79244 0.7564 0.60548 0.0
H1366 H 0.8562 0.77095 0.68431 0.0
H1367 H 0.77748 0.70825 0.67296 0.0
H1368 H 0.8464 0.82659 0.67774 0.0
H1369 H 0.85325 0.81616 0.64684 0.0
H1370 H 0.86979 0.81605 0.67749 0.0
H1371 H 0.75169 0.75146 0.66313 0.0
H1372 H 0.74484 0.71687 0.65915 0.0
H1373 H 0.75536 0.73786 0.63213 0.0
C1374 C 0.04616 0.84396 0.62601 0.0
C1375 C 0.0634 0.8345 0.62504 0.0
C1376 C 0.02118 0.82715 0.63241 0.0
C1377 C 0.01348 0.8005 0.63867 0.0
C1378 C 0.03087 0.79094 0.63792 0.0
C1379 C 0.05561 0.80808 0.63118 0.0
C1380 C 0.00318 0.83805 0.63291 0.0
C1381 C 0.02352 0.76279 0.64475 0.0
C1382 C 0.95913 0.7667 0.68202 0.0
C1383 C 0.93882 0.74891 0.66326 0.0
C1384 C 0.98348 0.7837 0.67425 0.0
C1385 C 0.98757 0.78292 0.64703 0.0
C1386 C 0.96704 0.76504 0.62798 0.0
C1387 C 0.94288 0.74823 0.63634 0.0
C1388 C 0.00487 0.80234 0.69521 0.0
C1389 C 0.97058 0.76371 0.59878 0.0
H1390 H 0.05224 0.86459 0.62196 0.0
H1391 H 0.06907 0.80093 0.63105 0.0
H1392 H 0.98538 0.82436 0.61991 0.0
H1393 H 0.99783 0.83881 0.65338 0.0
H1394 H 0.01167 0.8587 0.62625 0.0
H1395 H 0.03905 0.75819 0.64255 0.0
H1396 H 0.01862 0.76058 0.66557 0.0
H1397 H 0.00636 0.7475 0.63176 0.0
H1398 H 0.95602 0.76727 0.70285 0.0
H1399 H 0.92715 0.73456 0.62177 0.0
H1400 H 0.01297 0.82367 0.69069 0.0
H1401 H 0.02043 0.79759 0.69513 0.0
H1402 H 0.9985 0.80064 0.71548 0.0
H1403 H 0.97612 0.78357 0.59132 0.0
H1404 H 0.95302 0.74784 0.58669 0.0
H1405 H 0.98622 0.75951 0.59573 0.0
C1406 C 0.1983 0.25509 0.64706 0.0
C1407 C 0.1731 0.23537 0.6382 0.0
C1408 C 0.21729 0.24815 0.65054 0.0
C1409 C 0.21086 0.22082 0.64503 0.0
C1410 C 0.18545 0.20084 0.63591 0.0
C1411 C 0.1668 0.20831 0.63291 0.0
C1412 C 0.2441 0.26994 0.66069 0.0
C1413 C 0.17787 0.17151 0.62974 0.0
C1414 C 0.26433 0.20586 0.63597 0.0
C1415 C 0.26738 0.19791 0.66093 0.0
C1416 C 0.24583 0.21319 0.63036 0.0
C1417 C 0.23037 0.21286 0.65034 0.0
C1418 C 0.23351 0.2049 0.6756 0.0
C1419 C 0.25187 0.19735 0.68051 0.0
C1420 C 0.24277 0.22119 0.60309 0.0
C1421 C 0.21757 0.20451 0.69751 0.0
H1422 H 0.20311 0.27594 0.65155 0.0
H1423 H 0.14722 0.19296 0.6265 0.0
H1424 H 0.2496 0.26542 0.68019 0.0
H1425 H 0.25768 0.27034 0.6468 0.0
H1426 H 0.24616 0.29037 0.66312 0.0
H1427 H 0.1577 0.15881 0.62122 0.0
H1428 H 0.19025 0.16977 0.61547 0.0
H1429 H 0.18057 0.16324 0.64816 0.0
H1430 H 0.27627 0.20616 0.62078 0.0
H1431 H 0.25428 0.19124 0.69985 0.0
H1432 H 0.2464 0.24225 0.60474 0.0
H1433 H 0.22291 0.20789 0.59393 0.0
H1434 H 0.25593 0.21985 0.58961 0.0
H1435 H 0.2201 0.22496 0.70194 0.0
H1436 H 0.22262 0.19812 0.71613 0.0
H1437 H 0.1971 0.19046 0.691 0.0
C1438 C 0.81115 0.97561 0.66748 0.0
C1439 C 0.79512 0.95868 0.64522 0.0
C1440 C 0.81859 0.00321 0.67059 0.0
C1441 C 0.80991 0.01413 0.65085 0.0
C1442 C 0.79448 0.99727 0.62783 0.0
C1443 C 0.78732 0.96974 0.62527 0.0
C1444 C 0.83517 0.02051 0.69533 0.0
C1445 C 0.78495 0.00813 0.60626 0.0
C1446 C 0.8049 0.07605 0.67166 0.0
C1447 C 0.82681 0.09708 0.66265 0.0
C1448 C 0.79927 0.04905 0.66801 0.0
C1449 C 0.81589 0.0428 0.65492 0.0
C1450 C 0.83806 0.0639 0.64578 0.0
C1451 C 0.84328 0.09077 0.64978 0.0
C1452 C 0.77545 0.02717 0.67809 0.0
C1453 C 0.85618 0.05807 0.63163 0.0
H1454 H 0.81744 0.96711 0.68274 0.0
H1455 H 0.77517 0.95664 0.60792 0.0
H1456 H 0.85231 0.03866 0.68987 0.0
H1457 H 0.82455 0.02776 0.7071 0.0
H1458 H 0.84138 0.0093 0.70812 0.0
H1459 H 0.77437 0.9928 0.58895 0.0
H1460 H 0.77215 0.0147 0.61435 0.0
H1461 H 0.80113 0.02617 0.59926 0.0
H1462 H 0.79204 0.08063 0.68164 0.0
H1463 H 0.86016 0.1068 0.64255 0.0
H1464 H 0.7805 0.01629 0.69249 0.0
H1465 H 0.76289 0.01207 0.66134 0.0
H1466 H 0.76457 0.03538 0.68797 0.0
H1467 H 0.86348 0.04795 0.64461 0.0
H1468 H 0.87265 0.07674 0.62585 0.0
H1469 H 0.84601 0.04396 0.61345 0.0
C1470 C 0.50316 0.36655 0.69514 0.0
C1471 C 0.50409 0.38256 0.71765 0.0
C1472 C 0.48382 0.33927 0.69009 0.0
C1473 C 0.46511 0.32772 0.7081 0.0
C1474 C 0.46645 0.34365 0.73128 0.0
C1475 C 0.48597 0.37089 0.7358 0.0
C1476 C 0.48312 0.32296 0.66521 0.0
C1477 C 0.44698 0.33207 0.75106 0.0
C1478 C 0.40046 0.26728 0.68221 0.0
C1479 C 0.40233 0.24555 0.69123 0.0
C1480 C 0.4208 0.29405 0.68744 0.0
C1481 C 0.44357 0.29931 0.70217 0.0
C1482 C 0.44563 0.27749 0.71128 0.0
C1483 C 0.42503 0.25088 0.70565 0.0
C1484 C 0.41786 0.31673 0.67729 0.0
C1485 C 0.46953 0.28228 0.72718 0.0
H1486 H 0.51738 0.37552 0.68128 0.0
H1487 H 0.48694 0.38327 0.75336 0.0
H1488 H 0.48305 0.30437 0.67042 0.0
H1489 H 0.46532 0.31641 0.65222 0.0
H1490 H 0.4996 0.33463 0.65375 0.0
H1491 H 0.45134 0.34678 0.76863 0.0
H1492 H 0.42783 0.32598 0.74135 0.0
H1493 H 0.44607 0.31361 0.75801 0.0
H1494 H 0.38306 0.26343 0.67102 0.0
H1495 H 0.42664 0.23429 0.71288 0.0
H1496 H 0.43299 0.32814 0.66426 0.0
H1497 H 0.42011 0.33119 0.69422 0.0
H1498 H 0.39903 0.30923 0.66589 0.0
H1499 H 0.48614 0.29286 0.71563 0.0
H1500 H 0.46819 0.26312 0.73263 0.0
H1501 H 0.47329 0.2956 0.74569 0.0
C1502 C 0.62745 0.08835 0.72903 0.0
C1503 C 0.61952 0.10721 0.73373 0.0
C1504 C 0.65221 0.09664 0.72258 0.0
C1505 C 0.66937 0.12445 0.72071 0.0
C1506 C 0.66151 0.14363 0.72562 0.0
C1507 C 0.63655 0.13472 0.73177 0.0
C1508 C 0.65981 0.07556 0.71717 0.0
C1509 C 0.67932 0.17346 0.72391 0.0
C1510 C 0.73971 0.1471 0.723 0.0
C1511 C 0.74336 0.14803 0.69594 0.0
C1512 C 0.71581 0.13995 0.73147 0.0
C1513 C 0.69511 0.13326 0.71232 0.0
C1514 C 0.69882 0.13434 0.68496 0.0
C1515 C 0.72299 0.14189 0.67712 0.0
C1516 C 0.71269 0.13943 0.76083 0.0
C1517 C 0.67717 0.12713 0.66395 0.0
H1518 H 0.61415 0.06702 0.73009 0.0
H1519 H 0.63025 0.14925 0.7349 0.0
H1520 H 0.66461 0.07549 0.69637 0.0
H1521 H 0.6771 0.08058 0.73038 0.0
H1522 H 0.64446 0.05487 0.72024 0.0
H1523 H 0.67076 0.18589 0.72985 0.0
H1524 H 0.69727 0.18063 0.73688 0.0
H1525 H 0.68442 0.17694 0.70325 0.0
H1526 H 0.75555 0.15195 0.73756 0.0
H1527 H 0.72585 0.14259 0.65618 0.0
H1528 H 0.6982 0.11876 0.76497 0.0
H1529 H 0.70573 0.15328 0.76707 0.0
H1530 H 0.73079 0.14554 0.77315 0.0
H1531 H 0.66177 0.10592 0.66485 0.0
H1532 H 0.68331 0.12928 0.64356 0.0
H1533 H 0.66894 0.14031 0.66771 0.0
C1534 C 0.88541 0.51804 0.68728 0.0
C1535 C 0.89221 0.51509 0.7133 0.0
C1536 C 0.87904 0.53791 0.68216 0.0
C1537 C 0.87944 0.55519 0.70358 0.0
C1538 C 0.88619 0.55218 0.72992 0.0
C1539 C 0.89255 0.53219 0.73444 0.0
C1540 C 0.87194 0.54044 0.65382 0.0
C1541 C 0.88671 0.57008 0.75332 0.0
C1542 C 0.88413 0.62229 0.69009 0.0
C1543 C 0.85874 0.61601 0.69049 0.0
C1544 C 0.89112 0.60265 0.69403 0.0
C1545 C 0.8723 0.57608 0.69852 0.0
C1546 C 0.84662 0.56951 0.69854 0.0
C1547 C 0.84016 0.58947 0.6945 0.0
C1548 C 0.9187 0.61041 0.69377 0.0
C1549 C 0.82596 0.54144 0.70324 0.0
H1550 H 0.88525 0.5049 0.67089 0.0
H1551 H 0.89795 0.52995 0.75452 0.0
H1552 H 0.85237 0.53727 0.65172 0.0
H1553 H 0.88497 0.56117 0.64854 0.0
H1554 H 0.87277 0.52561 0.63939 0.0
H1555 H 0.89243 0.56518 0.77252 0.0
H1556 H 0.90021 0.59164 0.75088 0.0
H1557 H 0.8676 0.56786 0.75419 0.0
H1558 H 0.89866 0.64267 0.68702 0.0
H1559 H 0.82047 0.58426 0.69486 0.0
H1560 H 0.92051 0.5968 0.67868 0.0
H1561 H 0.92599 0.60789 0.71337 0.0
H1562 H 0.93092 0.63169 0.68933 0.0
H1563 H 0.82547 0.52619 0.68831 0.0
H1564 H 0.80682 0.53944 0.70214 0.0
H1565 H 0.83011 0.53652 0.72313 0.0
C1566 C 0.43878 0.91247 0.16329 0.0
C1567 C 0.45015 0.92275 0.18931 0.0
C1568 C 0.44964 0.92719 0.14173 0.0
C1569 C 0.47203 0.95302 0.14654 0.0
C1570 C 0.48343 0.96346 0.1729 0.0
C1571 C 0.47246 0.94806 0.19396 0.0
C1572 C 0.43754 0.91449 0.11393 0.0
C1573 C 0.50724 0.99089 0.17885 0.0
C1574 C 0.51389 0.98341 0.09104 0.0
C1575 C 0.50604 1.00119 0.08255 0.0
C1576 C 0.50257 0.96711 0.11144 0.0
C1577 C 0.48353 0.96935 0.12416 0.0
C1578 C 0.47573 0.98752 0.11577 0.0
C1579 C 0.487 0.00313 0.09488 0.0
C1580 C 0.51074 0.94729 0.11914 0.0
C1581 C 0.45565 0.99063 0.12899 0.0
H1582 H 0.4217 0.89268 0.15977 0.0
H1583 H 0.48114 0.95591 0.21419 0.0
H1584 H 0.44013 0.92984 0.10018 0.0
H1585 H 0.44667 0.90329 0.1061 0.0
H1586 H 0.41688 0.8998 0.11378 0.0
H1587 H 0.51363 0.99612 0.20047 0.0
H1588 H 0.52288 0.99129 0.16833 0.0
H1589 H 0.50379 0.00676 0.17144 0.0
H1590 H 0.5284 0.98166 0.08117 0.0
H1591 H 0.48101 0.01694 0.08821 0.0
H1592 H 0.49406 0.92642 0.11652 0.0
H1593 H 0.51824 0.95179 0.14044 0.0
H1594 H 0.5256 0.94783 0.10704 0.0
H1595 H 0.43892 0.97051 0.13102 0.0
H1596 H 0.44917 0.00259 0.11778 0.0
H1597 H 0.46351 1.00104 0.14933 0.0
C1598 C 0.09747 0.52359 0.18466 0.0
C1599 C 0.08692 0.52563 0.20789 0.0
C1600 C 0.08453 0.52003 0.15949 0.0
C1601 C 0.06032 0.51804 0.1577 0.0
C1602 C 0.0493 0.51919 0.18127 0.0
C1603 C 0.06289 0.52331 0.20609 0.0
C1604 C 0.09729 0.51967 0.13493 0.0
C1605 C 0.02333 0.51657 0.18026 0.0
C1606 C 0.03561 0.53733 0.09698 0.0
C1607 C 0.01866 0.51193 0.08331 0.0
C1608 C 0.04997 0.53963 0.12073 0.0
C1609 C 0.04685 0.51591 0.13134 0.0
C1610 C 0.02993 0.4902 0.11738 0.0
C1611 C 0.01611 0.48854 0.09341 0.0
C1612 C 0.06834 0.56746 0.13456 0.0
C1613 C 0.02612 0.46447 0.128 0.0
H1614 H 0.11622 0.52569 0.1862 0.0
H1615 H 0.05484 0.52489 0.22418 0.0
H1616 H 0.08365 0.50346 0.11957 0.0
H1617 H 0.10425 0.53924 0.12628 0.0
H1618 H 0.11376 0.5167 0.13943 0.0
H1619 H 0.01678 0.51613 0.20034 0.0
H1620 H 0.02383 0.53386 0.17091 0.0
H1621 H 0.00914 0.49776 0.16782 0.0
H1622 H 0.03783 0.55546 0.08894 0.0
H1623 H 0.00296 0.4689 0.08279 0.0
H1624 H 0.08756 0.56995 0.13831 0.0
H1625 H 0.06206 0.56984 0.15415 0.0
H1626 H 0.06983 0.58388 0.12277 0.0
H1627 H 0.04463 0.46516 0.13103 0.0
H1628 H 0.01275 0.44615 0.11443 0.0
H1629 H 0.01854 0.46259 0.14765 0.0
C1630 C 0.45999 0.54935 0.17754 0.0
C1631 C 0.47479 0.55154 0.20081 0.0
C1632 C 0.46571 0.54308 0.15255 0.0
C1633 C 0.48637 0.53838 0.15106 0.0
C1634 C 0.50057 0.53937 0.17471 0.0
C1635 C 0.4948 0.54629 0.19931 0.0
C1636 C 0.45048 0.54276 0.12774 0.0
C1637 C 0.52238 0.53393 0.17401 0.0
C1638 C 0.49379 0.50481 0.0879 0.0
C1639 C 0.51362 0.52706 0.07774 0.0
C1640 C 0.48424 0.50817 0.11153 0.0
C1641 C 0.4945 0.53448 0.12485 0.0
C1642 C 0.51388 0.5571 0.11396 0.0
C1643 C 0.52349 0.55304 0.09077 0.0
C1644 C 0.46378 0.48354 0.12265 0.0
C1645 C 0.52482 0.58558 0.12706 0.0
H1646 H 0.44461 0.55362 0.17884 0.0
H1647 H 0.50611 0.5479 0.21742 0.0
H1648 H 0.46296 0.55946 0.1161 0.0
H1649 H 0.44322 0.52353 0.11487 0.0
H1650 H 0.43409 0.54519 0.13237 0.0
H1651 H 0.52991 0.53301 0.19421 0.0
H1652 H 0.51616 0.5145 0.16188 0.0
H1653 H 0.5381 0.55019 0.16451 0.0
H1654 H 0.48624 0.48471 0.07774 0.0
H1655 H 0.53861 0.5703 0.08265 0.0
H1656 H 0.4472 0.48606 0.12589 0.0
H1657 H 0.47121 0.48121 0.14227 0.0
H1658 H 0.45712 0.46467 0.10931 0.0
H1659 H 0.5093 0.58958 0.13146 0.0
H1660 H 0.5376 0.60109 0.11446 0.0
H1661 H 0.53585 0.58797 0.14626 0.0
C1662 C 0.94911 0.46579 0.81689 0.0
C1663 C 0.92432 0.46131 0.81291 0.0
C1664 C 0.9619 0.47224 0.84253 0.0
C1665 C 0.94931 0.47352 0.86476 0.0
C1666 C 0.92443 0.46962 0.86075 0.0
C1667 C 0.9123 0.46381 0.83475 0.0
C1668 C 0.9886 0.47681 0.84589 0.0
C1669 C 0.91018 0.47025 0.88394 0.0
C1670 C 0.9729 0.45685 0.92787 0.0
C1671 C 0.98865 0.48258 0.94147 0.0
C1672 C 0.95896 0.45357 0.90354 0.0
C1673 C 0.96151 0.4767 0.89211 0.0
C1674 C 0.97707 0.50275 0.90606 0.0
C1675 C 0.99027 0.50535 0.93081 0.0
C1676 C 0.94195 0.42534 0.88981 0.0
C1677 C 0.98048 0.5279 0.89442 0.0
H1678 H 0.95834 0.46392 0.79989 0.0
H1679 H 0.89302 0.46012 0.83154 0.0
H1680 H 1.00138 0.49597 0.85862 0.0
H1681 H 0.98857 0.4601 0.856 0.0
H1682 H 0.99657 0.47772 0.82655 0.0
H1683 H 0.89179 0.46886 0.8774 0.0
H1684 H 0.90625 0.45302 0.89568 0.0
H1685 H 0.92189 0.48911 0.89742 0.0
H1686 H 0.97136 0.43918 0.93634 0.0
H1687 H 0.0025 0.52524 0.9414 0.0
H1688 H 0.94987 0.42289 0.87136 0.0
H1689 H 0.92268 0.42203 0.88397 0.0
H1690 H 0.94005 0.40944 0.90263 0.0
H1691 H 0.98994 0.53034 0.87587 0.0
H1692 H 0.99214 0.54646 0.90838 0.0
H1693 H 0.96171 0.526 0.88904 0.0
C1694 C 0.57064 0.48002 0.84622 0.0
C1695 C 0.55664 0.4752 0.82156 0.0
C1696 C 0.56157 0.48424 0.86989 0.0
C1697 C 0.53822 0.48416 0.86869 0.0
C1698 C 0.52437 0.47993 0.84369 0.0
C1699 C 0.53361 0.47518 0.82046 0.0
C1700 C 0.57654 0.48782 0.89614 0.0
C1701 C 0.4997 0.48025 0.84147 0.0
C1702 C 0.49892 0.46915 0.92761 0.0
C1703 C 0.5054 0.49522 0.93807 0.0
C1704 C 0.51023 0.46531 0.90567 0.0
C1705 C 0.52789 0.48808 0.89347 0.0
C1706 C 0.53463 0.51448 0.90418 0.0
C1707 C 0.52341 0.51774 0.92651 0.0
C1708 C 0.50317 0.43689 0.89547 0.0
C1709 C 0.55326 0.53925 0.8917 0.0
H1710 H 0.58834 0.47975 0.84702 0.0
H1711 H 0.5229 0.47159 0.80131 0.0
H1712 H 0.57791 0.50467 0.90939 0.0
H1713 H 0.5665 0.46913 0.90629 0.0
H1714 H 0.59608 0.49183 0.89358 0.0
H1715 H 0.49185 0.47781 0.82047 0.0
H1716 H 0.48532 0.46366 0.85191 0.0
H1717 H 0.5027 0.49962 0.85124 0.0
H1718 H 0.48526 0.45175 0.93686 0.0
H1719 H 0.5284 0.53789 0.9347 0.0
H1720 H 0.52061 0.43552 0.89404 0.0
H1721 H 0.49306 0.4317 0.87517 0.0
H1722 H 0.49074 0.4216 0.90846 0.0
H1723 H 0.5712 0.53907 0.88962 0.0
H1724 H 0.55785 0.55837 0.90351 0.0
H1725 H 0.54513 0.53901 0.87142 0.0
C1726 C 0.54418 0.08786 0.85496 0.0
C1727 C 0.53815 0.07355 0.8298 0.0
C1728 C 0.537 0.07405 0.87775 0.0
C1729 C 0.52335 0.04535 0.8751 0.0
C1730 C 0.51794 0.0309 0.84968 0.0
C1731 C 0.52546 0.04525 0.82724 0.0
C1732 C 0.54326 0.09009 0.90455 0.0
C1733 C 0.50324 1.00032 0.84604 0.0
C1734 C 0.51671 0.00835 0.93679 0.0
C1735 C 0.49309 0.00376 0.94382 0.0
C1736 C 0.527 0.02206 0.91452 0.0
C1737 C 0.51287 0.03053 0.89859 0.0
C1738 C 0.48864 0.02517 0.90524 0.0
C1739 C 0.47909 0.01192 0.92785 0.0
C1740 C 0.55304 0.02774 0.90825 0.0
C1741 C 0.47299 0.0339 0.88878 0.0
H1742 H 0.55401 0.10982 0.85667 0.0
H1743 H 0.52078 0.03439 0.8076 0.0
H1744 H 0.52545 0.08483 0.91365 0.0
H1745 H 0.5546 0.08464 0.91807 0.0
H1746 H 0.55409 0.11231 0.90327 0.0
H1747 H 0.50212 0.9922 0.82524 0.0
H1748 H 0.51223 0.99213 0.85945 0.0
H1749 H 0.48359 0.99281 0.85148 0.0
H1750 H 0.52735 1.00168 0.94899 0.0
H1751 H 0.4608 0.0084 0.93328 0.0
H1752 H 0.55132 0.01624 0.8891 0.0
H1753 H 0.56248 0.02202 0.92397 0.0
H1754 H 0.56546 0.04956 0.90591 0.0
H1755 H 0.48333 0.0563 0.88922 0.0
H1756 H 0.45409 0.02721 0.89608 0.0
H1757 H 0.47002 0.02552 0.86773 0.0
C1758 C 0.14812 0.27907 0.52732 0.0
C1759 C 0.13045 0.28188 0.54187 0.0
C1760 C 0.1571 0.29308 0.50496 0.0
C1761 C 0.14717 0.30917 0.49587 0.0
C1762 C 0.12965 0.31248 0.51042 0.0
C1763 C 0.12209 0.29946 0.53363 0.0
C1764 C 0.17653 0.28978 0.49048 0.0
C1765 C 0.11791 0.32867 0.50078 0.0
C1766 C 0.18033 0.35659 0.44348 0.0
C1767 C 0.16759 0.33959 0.42004 0.0
C1768 C 0.17381 0.34711 0.46848 0.0
C1769 C 0.15346 0.32042 0.46987 0.0
C1770 C 0.13994 0.30361 0.44619 0.0
C1771 C 0.14769 0.31314 0.42164 0.0
C1772 C 0.18943 0.36513 0.4933 0.0
C1773 C 0.11758 0.27533 0.44675 0.0
H1774 H 0.15452 0.26528 0.53275 0.0
H1775 H 0.10921 0.30278 0.54495 0.0
H1776 H 0.16731 0.27697 0.47139 0.0
H1777 H 0.19194 0.30974 0.48574 0.0
H1778 H 0.1852 0.28013 0.5023 0.0
H1779 H 0.1055 0.33039 0.51505 0.0
H1780 H 0.13293 0.34932 0.49732 0.0
H1781 H 0.10629 0.31876 0.48146 0.0
H1782 H 0.19603 0.37691 0.44231 0.0
H1783 H 0.13844 0.29956 0.40368 0.0
H1784 H 0.19947 0.35595 0.5035 0.0
H1785 H 0.17695 0.36688 0.50739 0.0
H1786 H 0.20381 0.38578 0.48888 0.0
H1787 H 0.12396 0.26243 0.45617 0.0
H1788 H 0.10819 0.26554 0.42653 0.0
H1789 H 0.10327 0.27599 0.45888 0.0
C1790 C 0.7263 0.85043 0.54665 0.0
C1791 C 0.75218 0.85866 0.5481 0.0
C1792 C 0.71219 0.84568 0.522 0.0
C1793 C 0.72444 0.84961 0.49835 0.0
C1794 C 0.75054 0.85734 0.49977 0.0
C1795 C 0.76413 0.86175 0.52473 0.0
C1796 C 0.68435 0.83713 0.52132 0.0
C1797 C 0.76431 0.86187 0.47506 0.0
C1798 C 0.68266 0.82005 0.43254 0.0
C1799 C 0.68122 0.84234 0.42469 0.0
C1800 C 0.69695 0.82214 0.4563 0.0
C1801 C 0.71023 0.8472 0.4724 0.0
C1802 C 0.70916 0.8699 0.46422 0.0
C1803 C 0.69446 0.86711 0.44057 0.0
C1804 C 0.69749 0.79744 0.46439 0.0
C1805 C 0.72345 0.89712 0.48052 0.0
H1806 H 0.71722 0.84812 0.56487 0.0
H1807 H 0.78424 0.86823 0.52608 0.0
H1808 H 0.68131 0.85325 0.51386 0.0
H1809 H 0.67273 0.81855 0.50742 0.0
H1810 H 0.6773 0.83316 0.54125 0.0
H1811 H 0.78414 0.86613 0.4794 0.0
H1812 H 0.75396 0.84386 0.46023 0.0
H1813 H 0.76492 0.87924 0.46575 0.0
H1814 H 0.67221 0.80083 0.42032 0.0
H1815 H 0.69356 0.88444 0.43433 0.0
H1816 H 0.6892 0.79203 0.48358 0.0
H1817 H 0.71743 0.80185 0.46746 0.0
H1818 H 0.6867 0.77968 0.44929 0.0
H1819 H 0.71612 0.89554 0.50027 0.0
H1820 H 0.72165 0.91304 0.47072 0.0
H1821 H 0.74395 0.90361 0.48397 0.0
C1822 C 0.13004 0.88409 0.50608 0.0
C1823 C 0.14473 0.88598 0.52933 0.0
C1824 C 0.13564 0.87768 0.48105 0.0
C1825 C 0.15601 0.87252 0.4795 0.0
C1826 C 0.1702 0.8734 0.50312 0.0
C1827 C 0.16457 0.88046 0.52773 0.0
C1828 C 0.12045 0.87748 0.45627 0.0
C1829 C 0.19169 0.86746 0.50239 0.0
C1830 C 0.16155 0.8366 0.41689 0.0
C1831 C 0.1815 0.85816 0.40607 0.0
C1832 C 0.1526 0.84098 0.44055 0.0
C1833 C 0.16359 0.86764 0.45326 0.0
C1834 C 0.18315 0.88958 0.44176 0.0
C1835 C 0.19217 0.88449 0.41854 0.0
C1836 C 0.13196 0.81703 0.45234 0.0
C1837 C 0.19485 0.91841 0.45418 0.0
H1838 H 0.1148 0.88856 0.50745 0.0
H1839 H 0.17579 0.88185 0.54583 0.0
H1840 H 0.13317 0.89348 0.4441 0.0
H1841 H 0.11231 0.85783 0.4439 0.0
H1842 H 0.10468 0.881 0.46092 0.0
H1843 H 0.19947 0.8669 0.5226 0.0
H1844 H 0.18503 0.84771 0.49069 0.0
H1845 H 0.20735 0.88324 0.4924 0.0
H1846 H 0.15336 0.81624 0.40716 0.0
H1847 H 0.20736 0.90123 0.4099 0.0
H1848 H 0.11573 0.82019 0.4555 0.0
H1849 H 0.13944 0.81501 0.47208 0.0
H1850 H 0.12477 0.79777 0.43947 0.0
H1851 H 0.17977 0.923 0.45888 0.0
H1852 H 0.20741 0.93334 0.44098 0.0
H1853 H 0.20631 0.92107 0.47316 0.0
C1854 C 0.60993 0.80834 0.15935 0.0
C1855 C 0.58346 0.79145 0.15645 0.0
C1856 C 0.62379 0.81541 0.18448 0.0
C1857 C 0.61074 0.80551 0.20719 0.0
C1858 C 0.5838 0.78942 0.20441 0.0
C1859 C 0.57045 0.78233 0.17893 0.0
C1860 C 0.65248 0.8323 0.18653 0.0
C1861 C 0.56918 0.77887 0.22819 0.0
C1862 C 0.64701 0.79462 0.26402 0.0
C1863 C 0.65506 0.81783 0.28161 0.0
C1864 C 0.63243 0.79035 0.23987 0.0
C1865 C 0.62547 0.80964 0.23326 0.0
C1866 C 0.63333 0.83303 0.25111 0.0
C1867 C 0.64844 0.83707 0.27493 0.0
C1868 C 0.62461 0.76522 0.22136 0.0
C1869 C 0.62583 0.85375 0.24503 0.0
H1870 H 0.61984 0.8152 0.14178 0.0
H1871 H 0.54993 0.76923 0.17647 0.0
H1872 H 0.65946 0.84983 0.20179 0.0
H1873 H 0.66083 0.81994 0.19293 0.0
H1874 H 0.65956 0.83997 0.16732 0.0
H1875 H 0.5483 0.76938 0.2231 0.0
H1876 H 0.57311 0.76353 0.23615 0.0
H1877 H 0.57543 0.79553 0.2443 0.0
H1878 H 0.65209 0.77968 0.26914 0.0
H1879 H 0.65503 0.85524 0.28833 0.0
H1880 H 0.63192 0.771 0.2018 0.0
H1881 H 0.60354 0.75293 0.21786 0.0
H1882 H 0.63182 0.75237 0.22938 0.0
H1883 H 0.63478 0.86368 0.22733 0.0
H1884 H 0.63169 0.86959 0.26193 0.0
H1885 H 0.60489 0.84371 0.24021 0.0
C1886 C 0.23569 0.80607 0.18265 0.0
C1887 C 0.22264 0.80033 0.15725 0.0
C1888 C 0.22536 0.81053 0.20519 0.0
C1889 C 0.20195 0.81025 0.20196 0.0
C1890 C 0.18906 0.80505 0.1762 0.0
C1891 C 0.19939 0.79974 0.15419 0.0
C1892 C 0.23973 0.81574 0.23225 0.0
C1893 C 0.16447 0.80535 0.17184 0.0
C1894 C 0.16017 0.79824 0.25823 0.0
C1895 C 0.1671 0.82476 0.26753 0.0
C1896 C 0.17215 0.79329 0.2376 0.0
C1897 C 0.1907 0.81535 0.22532 0.0
C1898 C 0.19772 0.84219 0.2347 0.0
C1899 C 0.18599 0.84657 0.25594 0.0
C1900 C 0.16534 0.76452 0.22929 0.0
C1901 C 0.21758 0.86624 0.22232 0.0
H1902 H 0.25373 0.80654 0.18493 0.0
H1903 H 0.18951 0.79556 0.13445 0.0
H1904 H 0.25228 0.83789 0.23727 0.0
H1905 H 0.22673 0.80777 0.24805 0.0
H1906 H 0.25196 0.80645 0.23244 0.0
H1907 H 0.1574 0.802 0.15044 0.0
H1908 H 0.14958 0.78935 0.18239 0.0
H1909 H 0.16726 0.82509 0.18024 0.0
H1910 H 0.14596 0.7814 0.26768 0.0
H1911 H 0.19145 0.86707 0.26341 0.0
H1912 H 0.18283 0.763 0.23045 0.0
H1913 H 0.15677 0.75865 0.20833 0.0
H1914 H 0.15172 0.74984 0.24197 0.0
H1915 H 0.23628 0.8674 0.22558 0.0
H1916 H 0.21967 0.88565 0.23082 0.0
H1917 H 0.21255 0.86386 0.20051 0.0
C1918 C 0.17244 0.36945 0.1538 0.0
C1919 C 0.19743 0.38929 0.15018 0.0
C1920 C 0.16681 0.35667 0.17727 0.0
C1921 C 0.18679 0.36307 0.1972 0.0
C1922 C 0.2123 0.38124 0.19273 0.0
C1923 C 0.2173 0.39447 0.16945 0.0
C1924 C 0.13928 0.33785 0.1815 0.0
C1925 C 0.23419 0.38796 0.21322 0.0
C1926 C 0.17112 0.36104 0.26844 0.0
C1927 C 0.16643 0.33534 0.27385 0.0
C1928 C 0.17771 0.37021 0.24353 0.0
C1929 C 0.18066 0.35363 0.2239 0.0
C1930 C 0.17678 0.32796 0.22958 0.0
C1931 C 0.16915 0.31883 0.25446 0.0
C1932 C 0.18088 0.39736 0.23807 0.0
C1933 C 0.18075 0.31028 0.20946 0.0
H1934 H 0.15702 0.36455 0.13868 0.0
H1935 H 0.23669 0.40978 0.16704 0.0
H1936 H 0.13659 0.31846 0.18784 0.0
H1937 H 0.13377 0.34725 0.19763 0.0
H1938 H 0.12619 0.3334 0.16328 0.0
H1939 H 0.25282 0.39829 0.2048 0.0
H1940 H 0.23465 0.40156 0.23002 0.0
H1941 H 0.23179 0.36934 0.2214 0.0
H1942 H 0.16882 0.37372 0.28348 0.0
H1943 H 0.16571 0.29905 0.25891 0.0
H1944 H 0.16771 0.39479 0.22059 0.0
H1945 H 0.20054 0.41111 0.23324 0.0
H1946 H 0.17704 0.40727 0.25527 0.0
H1947 H 0.16685 0.30415 0.19166 0.0
H1948 H 0.17858 0.29171 0.21762 0.0
H1949 H 0.20006 0.32181 0.20276 0.0
C1950 C 0.7971 0.63962 0.87307 0.0
C1951 C 0.7915 0.61267 0.8704 0.0
C1952 C 0.80701 0.65621 0.85245 0.0
C1953 C 0.81076 0.64524 0.82851 0.0
C1954 C 0.80466 0.61783 0.82564 0.0
C1955 C 0.79538 0.60196 0.84679 0.0
C1956 C 0.81365 0.68542 0.85632 0.0
C1957 C 0.80767 0.60517 0.80011 0.0
C1958 C 0.81383 0.67433 0.7627 0.0
C1959 C 0.8396 0.68528 0.75923 0.0
C1960 C 0.80426 0.66253 0.78599 0.0
C1961 C 0.82109 0.66212 0.80624 0.0
C1962 C 0.84755 0.67521 0.80359 0.0
C1963 C 0.85652 0.68666 0.77998 0.0
C1964 C 0.77603 0.64943 0.78838 0.0
C1965 C 0.86612 0.67549 0.82489 0.0
H1966 H 0.79406 0.64779 0.89146 0.0
H1967 H 0.7907 0.58098 0.84473 0.0
H1968 H 0.83392 0.69894 0.85323 0.0
H1969 H 0.80202 0.68918 0.84137 0.0
H1970 H 0.8104 0.69103 0.87649 0.0
H1971 H 0.80179 0.5835 0.80105 0.0
H1972 H 0.796 0.60665 0.78331 0.0
H1973 H 0.82782 0.6163 0.79568 0.0
H1974 H 0.80106 0.67431 0.74684 0.0
H1975 H 0.87652 0.6953 0.77714 0.0
H1976 H 0.77268 0.66025 0.8051 0.0
H1977 H 0.76818 0.62813 0.79289 0.0
H1978 H 0.76532 0.64969 0.76996 0.0
H1979 H 0.86276 0.68156 0.84477 0.0
H1980 H 0.88622 0.6895 0.82141 0.0
H1981 H 0.86324 0.65479 0.82526 0.0
C1982 C 0.43561 0.2209 0.85978 0.0
C1983 C 0.42747 0.20006 0.87661 0.0
C1984 C 0.42226 0.21704 0.83484 0.0
C1985 C 0.40029 0.19166 0.82639 0.0
C1986 C 0.3924 0.17029 0.84289 0.0
C1987 C 0.40601 0.17476 0.86782 0.0
C1988 C 0.43147 0.24024 0.81765 0.0
C1989 C 0.36923 0.14287 0.83444 0.0
C1990 C 0.35106 0.19022 0.77545 0.0
C1991 C 0.35628 0.1806 0.75201 0.0
C1992 C 0.36512 0.1937 0.79984 0.0
C1993 C 0.38511 0.18778 0.80067 0.0
C1994 C 0.39076 0.17855 0.77688 0.0
C1995 C 0.37624 0.17514 0.75287 0.0
C1996 C 0.35864 0.20382 0.82471 0.0
C1997 C 0.41205 0.17224 0.7767 0.0
H1998 H 0.45244 0.24035 0.86616 0.0
H1999 H 0.3994 0.15861 0.88076 0.0
H2000 H 0.43501 0.234 0.79794 0.0
H2001 H 0.41657 0.24578 0.81415 0.0
H2002 H 0.44925 0.25848 0.82681 0.0
H2003 H 0.36611 0.12808 0.84914 0.0
H2004 H 0.35205 0.14487 0.83185 0.0
H2005 H 0.37128 0.13463 0.81496 0.0
H2006 H 0.33582 0.19484 0.77473 0.0
H2007 H 0.38119 0.16925 0.73462 0.0
H2008 H 0.37543 0.2231 0.83369 0.0
H2009 H 0.35373 0.18896 0.83963 0.0
H2010 H 0.34242 0.20729 0.82072 0.0
H2011 H 0.42959 0.18855 0.78841 0.0
H2012 H 0.4166 0.1696 0.75622 0.0
H2013 H 0.40636 0.15323 0.78607 0.0
C2014 C 0.8274 0.21731 0.85983 0.0
C2015 C 0.80679 0.22162 0.86105 0.0
C2016 C 0.83342 0.21029 0.83546 0.0
C2017 C 0.81879 0.20815 0.81167 0.0
C2018 C 0.79755 0.21191 0.81286 0.0
C2019 C 0.79165 0.21839 0.83767 0.0
C2020 C 0.85586 0.20587 0.83512 0.0
C2021 C 0.78177 0.21028 0.78793 0.0
C2022 C 0.85554 0.22136 0.75114 0.0
C2023 C 0.84651 0.19504 0.73941 0.0
C2024 C 0.84576 0.22595 0.77398 0.0
C2025 C 0.82688 0.2036 0.78565 0.0
C2026 C 0.81735 0.17695 0.77353 0.0
C2027 C 0.82721 0.173 0.75039 0.0
C2028 C 0.85588 0.25471 0.78582 0.0
C2029 C 0.79735 0.15262 0.78546 0.0
H2030 H 0.83893 0.21963 0.87803 0.0
H2031 H 0.77578 0.22189 0.83873 0.0
H2032 H 0.85007 0.18613 0.82386 0.0
H2033 H 0.87103 0.22191 0.82487 0.0
H2034 H 0.86398 0.20619 0.85546 0.0
H2035 H 0.76388 0.20971 0.79239 0.0
H2036 H 0.79302 0.22826 0.77715 0.0
H2037 H 0.77688 0.1921 0.77436 0.0
H2038 H 0.87019 0.23842 0.74232 0.0
H2039 H 0.82027 0.15265 0.74121 0.0
H2040 H 0.86505 0.25768 0.80629 0.0
H2041 H 0.83996 0.25876 0.78723 0.0
H2042 H 0.87004 0.26979 0.77387 0.0
H2043 H 0.80518 0.15114 0.80524 0.0
H2044 H 0.79085 0.13343 0.77273 0.0
H2045 H 0.78061 0.15489 0.78855 0.0
C2046 C 0.24155 0.12407 0.50386 0.0
C2047 C 0.25465 0.12521 0.48172 0.0
C2048 C 0.25396 0.13027 0.52978 0.0
C2049 C 0.28007 0.13807 0.5334 0.0
C2050 C 0.29352 0.14028 0.5109 0.0
C2051 C 0.28055 0.13356 0.48532 0.0
C2052 C 0.23888 0.12724 0.55324 0.0
C2053 C 0.32142 0.14883 0.51384 0.0
C2054 C 0.32071 0.17098 0.59948 0.0
C2055 C 0.32241 0.14932 0.60879 0.0
C2056 C 0.30625 0.16751 0.57532 0.0
C2057 C 0.29297 0.14168 0.5605 0.0
C2058 C 0.29371 0.11951 0.57062 0.0
C2059 C 0.30872 0.12371 0.59443 0.0
C2060 C 0.30601 0.19165 0.56518 0.0
C2061 C 0.27929 0.09146 0.55592 0.0
H2062 H 0.22143 0.11742 0.50089 0.0
H2063 H 0.29056 0.13438 0.46806 0.0
H2064 H 0.23724 0.11016 0.56399 0.0
H2065 H 0.24883 0.14575 0.56748 0.0
H2066 H 0.2194 0.12326 0.54712 0.0
H2067 H 0.32958 0.15187 0.49443 0.0
H2068 H 0.33241 0.16795 0.52716 0.0
H2069 H 0.32394 0.13312 0.52309 0.0
H2070 H 0.33138 0.19081 0.6106 0.0
H2071 H 0.30972 0.10683 0.60185 0.0
H2072 H 0.28618 0.18679 0.55969 0.0
H2073 H 0.31604 0.19686 0.54694 0.0
H2074 H 0.31543 0.2097 0.5801 0.0
H2075 H 0.25923 0.08569 0.55017 0.0
H2076 H 0.27938 0.0759 0.56801 0.0
H2077 H 0.28802 0.09125 0.53735 0.0
C2078 C 0.89915 0.14427 0.50541 0.0
C2079 C 0.88596 0.14197 0.48091 0.0
C2080 C 0.89052 0.14851 0.52935 0.0
C2081 C 0.8685 0.15102 0.52859 0.0
C2082 C 0.85552 0.14934 0.50375 0.0
C2083 C 0.86424 0.14448 0.48018 0.0
C2084 C 0.90444 0.14926 0.55535 0.0
C2085 C 0.83231 0.15248 0.50207 0.0
C2086 C 0.82923 0.13607 0.58746 0.0
C2087 C 0.83791 0.16216 0.59966 0.0
C2088 C 0.83958 0.1321 0.56475 0.0
C2089 C 0.8586 0.15485 0.55367 0.0
C2090 C 0.86749 0.18126 0.56606 0.0
C2091 C 0.85711 0.18458 0.58905 0.0
C2092 C 0.83016 0.10359 0.55263 0.0
C2093 C 0.88772 0.20599 0.55484 0.0
H2094 H 0.91581 0.14203 0.50582 0.0
H2095 H 0.85417 0.14272 0.46111 0.0
H2096 H 0.90677 0.16579 0.56981 0.0
H2097 H 0.89307 0.12993 0.56416 0.0
H2098 H 0.92352 0.15196 0.55269 0.0
H2099 H 0.82515 0.15191 0.4812 0.0
H2100 H 0.81683 0.13603 0.51163 0.0
H2101 H 0.83687 0.17198 0.51301 0.0
H2102 H 0.81461 0.11871 0.59594 0.0
H2103 H 0.86374 0.20476 0.59854 0.0
H2104 H 0.84645 0.10019 0.55093 0.0
H2105 H 0.82084 0.10061 0.53224 0.0
H2106 H 0.81633 0.08809 0.56452 0.0
H2107 H 0.90498 0.20435 0.55303 0.0
H2108 H 0.89321 0.22502 0.56738 0.0
H2109 H 0.88068 0.20728 0.53457 0.0
C2110 C 0.84025 0.71095 0.49476 0.0
C2111 C 0.8655 0.72938 0.49041 0.0
C2112 C 0.83457 0.69778 0.51802 0.0
C2113 C 0.85464 0.70247 0.53708 0.0
C2114 C 0.88021 0.71955 0.53204 0.0
C2115 C 0.88534 0.73309 0.50895 0.0
C2116 C 0.80702 0.68017 0.52291 0.0
C2117 C 0.90216 0.72464 0.55167 0.0
C2118 C 0.84147 0.69989 0.60919 0.0
C2119 C 0.83608 0.67375 0.61386 0.0
C2120 C 0.84739 0.70931 0.58426 0.0
C2121 C 0.8488 0.69248 0.56366 0.0
C2122 C 0.84398 0.66624 0.56842 0.0
C2123 C 0.83719 0.65694 0.59347 0.0
C2124 C 0.85165 0.73712 0.57989 0.0
C2125 C 0.84614 0.64815 0.54714 0.0
H2126 H 0.82478 0.70725 0.48024 0.0
H2127 H 0.90491 0.74737 0.50601 0.0
H2128 H 0.80338 0.66017 0.5284 0.0
H2129 H 0.80269 0.68988 0.53985 0.0
H2130 H 0.79371 0.67693 0.50526 0.0
H2131 H 0.9206 0.73452 0.54286 0.0
H2132 H 0.90357 0.73803 0.5692 0.0
H2133 H 0.89905 0.70538 0.55889 0.0
H2134 H 0.84038 0.71283 0.6249 0.0
H2135 H 0.83317 0.6368 0.59725 0.0
H2136 H 0.83822 0.73555 0.56314 0.0
H2137 H 0.87122 0.75022 0.57445 0.0
H2138 H 0.84898 0.74722 0.59781 0.0
H2139 H 0.83207 0.6434 0.52981 0.0
H2140 H 0.84291 0.62883 0.55438 0.0
H2141 H 0.86533 0.6588 0.54001 0.0
loop_
_geom_bond_atom_site_label_1
_geom_bond_atom_site_label_2
_geom_bond_distance
_geom_bond_site_symmetry_2
_ccdc_geom_bond_type
H0 C7 0.929 . S
H1 C10 0.930 . S
H2 C12 0.929 . S
H3 C4 0.969 . S
C4 H3 0.969 . S
C4 O5 1.550 . S
C4 H6 0.973 . S
O5 C4 1.550 . S
O5 C11 1.412 . S
H6 C4 0.973 . S
C7 H0 0.929 . S
C7 C8 1.400 . S
C7 C9 1.364 . S
C8 C7 1.400 . S
C8 C12 1.377 . S
C9 C7 1.364 . S
C9 C10 1.374 . S
C10 H1 0.930 . S
C10 C9 1.374 . S
C10 C11 1.383 . S
C11 O5 1.412 . S
C11 C10 1.383 . S
C11 C12 1.394 . S
C12 H2 0.929 . S
C12 C8 1.377 . S
C12 C11 1.394 . S
H13 C20 0.929 . S
H14 C23 0.930 . S
H15 C25 0.929 . S
H16 C17 0.969 . S
C17 H16 0.969 . S
C17 O18 1.550 . S
C17 H19 0.973 . S
O18 C17 1.550 . S
O18 C24 1.412 . S
H19 C17 0.973 . S
C20 H13 0.929 . S
C20 C21 1.400 . S
C20 C22 1.364 . S
C21 C20 1.400 . S
C21 C25 1.377 . S
C22 C20 1.364 . S
C22 C23 1.374 . S
C23 H14 0.930 . S
C23 C22 1.374 . S
C23 C24 1.383 . S
C24 O18 1.412 . S
C24 C23 1.383 . S
C24 C25 1.394 . S
C25 H15 0.929 . S
C25 C21 1.377 . S
C25 C24 1.394 . S
H26 C33 0.929 . S
H27 C36 0.930 . S
H28 C38 0.929 . S
H29 C30 0.969 . S
C30 H29 0.969 . S
C30 O31 1.550 . S
C30 H32 0.973 . S
O31 C30 1.550 . S
O31 C37 1.412 . S
H32 C30 0.973 . S
C33 H26 0.929 . S
C33 C34 1.400 . S
C33 C35 1.364 . S
C34 C33 1.400 . S
C34 C38 1.377 . S
C35 C33 1.364 . S
C35 C36 1.374 . S
C36 H27 0.930 . S
C36 C35 1.374 . S
C36 C37 1.383 . S
C37 O31 1.412 . S
C37 C36 1.383 . S
C37 C38 1.394 . S
C38 H28 0.929 . S
C38 C34 1.377 . S
C38 C37 1.394 . S
H39 C46 0.929 . S
H40 C49 0.930 . S
H41 C51 0.929 . S
H42 C43 0.969 . S
C43 H42 0.969 . S
C43 O44 1.550 . S
C43 H45 0.973 . S
O44 C43 1.550 . S
O44 C50 1.412 . S
H45 C43 0.973 . S
C46 H39 0.929 . S
C46 C47 1.400 . S
C46 C48 1.364 . S
C47 C46 1.400 . S
C47 C51 1.377 . S
C48 C46 1.364 . S
C48 C49 1.374 . S
C49 H40 0.930 . S
C49 C48 1.374 . S
C49 C50 1.383 . S
C50 O44 1.412 . S
C50 C49 1.383 . S
C50 C51 1.394 . S
C51 H41 0.929 . S
C51 C47 1.377 . S
C51 C50 1.394 . S
H52 C59 0.929 . S
H53 C62 0.930 . S
H54 C64 0.929 . S
H55 C56 0.969 . S
C56 H55 0.969 . S
C56 O57 1.550 . S
C56 H58 0.973 . S
O57 C56 1.550 . S
O57 C63 1.412 . S
H58 C56 0.973 . S
C59 H52 0.929 . S
C59 C60 1.400 . S
C59 C61 1.364 . S
C60 C59 1.400 . S
C60 C64 1.377 . S
C61 C59 1.364 . S
C61 C62 1.374 . S
C62 H53 0.930 . S
C62 C61 1.374 . S
C62 C63 1.383 . S
C63 O57 1.412 . S
C63 C62 1.383 . S
C63 C64 1.394 . S
C64 H54 0.929 . S
C64 C60 1.377 . S
C64 C63 1.394 . S
H65 C72 0.929 . S
H66 C75 0.930 . S
H67 C77 0.929 . S
H68 C69 0.969 . S
C69 H68 0.969 . S
C69 O70 1.550 . S
C69 H71 0.973 . S
O70 C69 1.550 . S
O70 C76 1.412 . S
H71 C69 0.973 . S
C72 H65 0.929 . S
C72 C73 1.400 . S
C72 C74 1.364 . S
C73 C72 1.400 . S
C73 C77 1.377 . S
C74 C72 1.364 . S
C74 C75 1.374 . S
C75 H66 0.930 . S
C75 C74 1.374 . S
C75 C76 1.383 . S
C76 O70 1.412 . S
C76 C75 1.383 . S
C76 C77 1.394 . S
C77 H67 0.929 . S
C77 C73 1.377 . S
C77 C76 1.394 . S
H78 C85 0.929 . S
H79 C88 0.930 . S
H80 C90 0.929 . S
H81 C82 0.969 . S
C82 H81 0.969 . S
C82 O83 1.550 . S
C82 H84 0.973 . S
O83 C82 1.550 . S
O83 C89 1.412 . S
H84 C82 0.973 . S
C85 H78 0.929 . S
C85 C86 1.400 . S
C85 C87 1.364 . S
C86 C85 1.400 . S
C86 C90 1.377 . S
C87 C85 1.364 . S
C87 C88 1.374 . S
C88 H79 0.930 . S
C88 C87 1.374 . S
C88 C89 1.383 . S
C89 O83 1.412 . S
C89 C88 1.383 . S
C89 C90 1.394 . S
C90 H80 0.929 . S
C90 C86 1.377 . S
C90 C89 1.394 . S
H91 C98 0.929 . S
H92 C101 0.930 . S
H93 C103 0.929 . S
H94 C95 0.969 . S
C95 H94 0.969 . S
C95 O96 1.550 . S
C95 H97 0.973 . S
O96 C95 1.550 . S
O96 C102 1.412 . S
H97 C95 0.973 . S
C98 H91 0.929 . S
C98 C99 1.400 . S
C98 C100 1.364 . S
C99 C98 1.400 . S
C99 C103 1.377 . S
C100 C98 1.364 . S
C100 C101 1.374 . S
C101 H92 0.930 . S
C101 C100 1.374 . S
C101 C102 1.383 . S
C102 O96 1.412 . S
C102 C101 1.383 . S
C102 C103 1.394 . S
C103 H93 0.929 . S
C103 C99 1.377 . S
C103 C102 1.394 . S
H104 C111 0.929 . S
H105 C114 0.930 . S
H106 C116 0.929 . S
H107 C108 0.969 . S
C108 H107 0.969 . S
C108 O109 1.550 . S
C108 H110 0.973 . S
O109 C108 1.550 . S
O109 C115 1.412 . S
H110 C108 0.973 . S
C111 H104 0.929 . S
C111 C112 1.400 . S
C111 C113 1.364 . S
C112 C111 1.400 . S
C112 C116 1.377 . S
C113 C111 1.364 . S
C113 C114 1.374 . S
C114 H105 0.930 . S
C114 C113 1.374 . S
C114 C115 1.383 . S
C115 O109 1.412 . S
C115 C114 1.383 . S
C115 C116 1.394 . S
C116 H106 0.929 . S
C116 C112 1.377 . S
C116 C115 1.394 . S
H117 C124 0.929 . S
H118 C127 0.930 . S
H119 C129 0.929 . S
H120 C121 0.969 . S
C121 H120 0.969 . S
C121 O122 1.550 . S
C121 H123 0.973 . S
O122 C121 1.550 . S
O122 C128 1.412 . S
H123 C121 0.973 . S
C124 H117 0.929 . S
C124 C125 1.400 . S
C124 C126 1.364 . S
C125 C124 1.400 . S
C125 C129 1.377 . S
C126 C124 1.364 . S
C126 C127 1.374 . S
C127 H118 0.930 . S
C127 C126 1.374 . S
C127 C128 1.383 . S
C128 O122 1.412 . S
C128 C127 1.383 . S
C128 C129 1.394 . S
C129 H119 0.929 . S
C129 C125 1.377 . S
C129 C128 1.394 . S
H130 C137 0.929 . S
H131 C140 0.930 . S
H132 C142 0.929 . S
H133 C134 0.969 . S
C134 H133 0.969 . S
C134 O135 1.550 . S
C134 H136 0.973 . S
O135 C134 1.550 . S
O135 C141 1.412 . S
H136 C134 0.973 . S
C137 H130 0.929 . S
C137 C138 1.400 . S
C137 C139 1.364 . S
C138 C137 1.400 . S
C138 C142 1.377 . S
C139 C137 1.364 . S
C139 C140 1.374 . S
C140 H131 0.930 . S
C140 C139 1.374 . S
C140 C141 1.383 . S
C141 O135 1.412 . S
C141 C140 1.383 . S
C141 C142 1.394 . S
C142 H132 0.929 . S
C142 C138 1.377 . S
C142 C141 1.394 . S
H143 C150 0.929 . S
H144 C153 0.930 . S
H145 C155 0.929 . S
H146 C147 0.969 . S
C147 H146 0.969 . S
C147 O148 1.550 . S
C147 H149 0.973 . S
O148 C147 1.550 . S
O148 C154 1.412 . S
H149 C147 0.973 . S
C150 H143 0.929 . S
C150 C151 1.400 . S
C150 C152 1.364 . S
C151 C150 1.400 . S
C151 C155 1.377 . S
C152 C150 1.364 . S
C152 C153 1.374 . S
C153 H144 0.930 . S
C153 C152 1.374 . S
C153 C154 1.383 . S
C154 O148 1.412 . S
C154 C153 1.383 . S
C154 C155 1.394 . S
C155 H145 0.929 . S
C155 C151 1.377 . S
C155 C154 1.394 . S
H156 C163 0.929 . S
H157 C166 0.930 . S
H158 C168 0.929 . S
H159 C160 0.969 . S
C160 H159 0.969 . S
C160 O161 1.550 . S
C160 H162 0.973 . S
O161 C160 1.550 . S
O161 C167 1.412 . S
H162 C160 0.973 . S
C163 H156 0.929 . S
C163 C164 1.400 . S
C163 C165 1.364 . S
C164 C163 1.400 . S
C164 C168 1.377 . S
C165 C163 1.364 . S
C165 C166 1.374 . S
C166 H157 0.930 . S
C166 C165 1.374 . S
C166 C167 1.383 . S
C167 O161 1.412 . S
C167 C166 1.383 . S
C167 C168 1.394 . S
C168 H158 0.929 . S
C168 C164 1.377 . S
C168 C167 1.394 . S
H169 C176 0.929 . S
H170 C179 0.930 . S
H171 C181 0.929 . S
H172 C173 0.969 . S
C173 H172 0.969 . S
C173 O174 1.550 . S
C173 H175 0.973 . S
O174 C173 1.550 . S
O174 C180 1.412 . S
H175 C173 0.973 . S
C176 H169 0.929 . S
C176 C177 1.400 . S
C176 C178 1.364 . S
C177 C176 1.400 . S
C177 C181 1.377 . S
C178 C176 1.364 . S
C178 C179 1.374 . S
C179 H170 0.930 . S
C179 C178 1.374 . S
C179 C180 1.383 . S
C180 O174 1.412 . S
C180 C179 1.383 . S
C180 C181 1.394 . S
C181 H171 0.929 . S
C181 C177 1.377 . S
C181 C180 1.394 . S
H182 C189 0.929 . S
H183 C192 0.930 . S
H184 C194 0.929 . S
H185 C186 0.969 . S
C186 H185 0.969 . S
C186 O187 1.550 . S
C186 H188 0.973 . S
O187 C186 1.550 . S
O187 C193 1.412 . S
H188 C186 0.973 . S
C189 H182 0.929 . S
C189 C190 1.400 . S
C189 C191 1.364 . S
C190 C189 1.400 . S
C190 C194 1.377 . S
C191 C189 1.364 . S
C191 C192 1.374 . S
C192 H183 0.930 . S
C192 C191 1.374 . S
C192 C193 1.383 . S
C193 O187 1.412 . S
C193 C192 1.383 . S
C193 C194 1.394 . S
C194 H184 0.929 . S
C194 C190 1.377 . S
C194 C193 1.394 . S
H195 C202 0.929 . S
H196 C205 0.930 . S
H197 C207 0.929 . S
H198 C199 0.969 . S
C199 H198 0.969 . S
C199 O200 1.550 . S
C199 H201 0.973 . S
O200 C199 1.550 . S
O200 C206 1.412 . S
H201 C199 0.973 . S
C202 H195 0.929 . S
C202 C203 1.400 . S
C202 C204 1.364 . S
C203 C202 1.400 . S
C203 C207 1.377 . S
C204 C202 1.364 . S
C204 C205 1.374 . S
C205 H196 0.930 . S
C205 C204 1.374 . S
C205 C206 1.383 . S
C206 O200 1.412 . S
C206 C205 1.383 . S
C206 C207 1.394 . S
C207 H197 0.929 . S
C207 C203 1.377 . S
C207 C206 1.394 . S
H208 C215 0.929 . S
H209 C218 0.930 . S
H210 C220 0.929 . S
H211 C212 0.969 . S
C212 H211 0.969 . S
C212 O213 1.550 . S
C212 H214 0.973 . S
O213 C212 1.550 . S
O213 C219 1.412 . S
H214 C212 0.973 . S
C215 H208 0.929 . S
C215 C216 1.400 . S
C215 C217 1.364 . S
C216 C215 1.400 . S
C216 C220 1.377 . S
C217 C215 1.364 . S
C217 C218 1.374 . S
C218 H209 0.930 . S
C218 C217 1.374 . S
C218 C219 1.383 . S
C219 O213 1.412 . S
C219 C218 1.383 . S
C219 C220 1.394 . S
C220 H210 0.929 . S
C220 C216 1.377 . S
C220 C219 1.394 . S
H221 C228 0.929 . S
H222 C231 0.930 . S
H223 C233 0.929 . S
H224 C225 0.969 . S
C225 H224 0.969 . S
C225 O226 1.550 . S
C225 H227 0.973 . S
O226 C225 1.550 . S
O226 C232 1.412 . S
H227 C225 0.973 . S
C228 H221 0.929 . S
C228 C229 1.400 . S
C228 C230 1.364 . S
C229 C228 1.400 . S
C229 C233 1.377 . S
C230 C228 1.364 . S
C230 C231 1.374 . S
C231 H222 0.930 . S
C231 C230 1.374 . S
C231 C232 1.383 . S
C232 O226 1.412 . S
C232 C231 1.383 . S
C232 C233 1.394 . S
C233 H223 0.929 . S
C233 C229 1.377 . S
C233 C232 1.394 . S
Tb234 O237 2.453 . S
Tb234 O238 2.596 1_545 S
Tb234 O239 2.374 1_545 S
Tb234 O247 2.343 1_554 S
Tb234 O249 2.353 . S
Tb234 O251 2.427 . S
Tb234 O252 2.536 . S
C235 O239 1.251 . S
C235 O241 1.263 1_554 S
Tb236 O238 2.343 1_556 S
Tb236 O241 2.353 . S
Tb236 O244 2.427 1_556 S
Tb236 O245 2.513 1_556 S
Tb236 O246 2.453 . S
Tb236 O247 2.596 1_565 S
Tb236 O248 2.374 1_565 S
O237 Tb234 2.453 . S
O237 C253 1.245 1_545 S
O238 Tb234 2.596 1_565 S
O238 Tb236 2.343 1_554 S
O238 C253 1.259 . S
O239 Tb234 2.374 1_565 S
O239 C235 1.251 . S
C240 O244 1.275 . S
C240 O245 1.246 . S
O241 C235 1.263 1_556 S
O241 Tb236 2.353 . S
C242 O246 1.245 1_545 S
C242 O247 1.259 . S
C243 O248 1.251 1_554 S
C243 O249 1.263 . S
O244 Tb236 2.427 1_554 S
O244 C240 1.275 . S
O245 Tb236 2.513 1_554 S
O245 C240 1.246 . S
O246 Tb236 2.453 . S
O246 C242 1.245 1_565 S
O247 Tb234 2.343 1_556 S
O247 Tb236 2.596 1_545 S
O247 C242 1.259 . S
O248 Tb236 2.374 1_545 S
O248 C243 1.251 1_556 S
O249 Tb234 2.353 . S
O249 C243 1.263 . S
C250 O251 1.275 1_556 S
C250 O252 1.238 1_556 S
O251 Tb234 2.427 . S
O251 C250 1.275 1_554 S
O252 Tb234 2.536 . S
O252 C250 1.238 1_554 S
C253 O237 1.245 1_565 S
C253 O238 1.259 . S
Tb254 O257 2.453 . S
Tb254 O258 2.596 1_655 S
Tb254 O259 2.374 1_655 S
Tb254 O267 2.343 1_554 S
Tb254 O269 2.353 . S
Tb254 O271 2.427 1_554 S
Tb254 O272 2.513 1_554 S
C255 O259 1.251 . S
C255 O261 1.263 . S
Tb256 O258 2.343 1_556 S
Tb256 O261 2.353 1_556 S
Tb256 O264 2.427 1_556 S
Tb256 O265 2.513 1_556 S
Tb256 O266 2.453 . S
Tb256 O267 2.596 1_455 S
Tb256 O268 2.374 1_455 S
O257 Tb254 2.453 . S
O257 C273 1.245 1_655 S
O258 Tb254 2.596 1_455 S
O258 Tb256 2.343 1_554 S
O258 C273 1.259 . S
O259 Tb254 2.374 1_455 S
O259 C255 1.251 . S
C260 O264 1.275 . S
C260 O265 1.246 . S
O261 C255 1.263 . S
O261 Tb256 2.353 1_554 S
C262 O266 1.245 1_655 S
C262 O267 1.259 . S
C263 O268 1.250 1_554 S
C263 O269 1.263 . S
O264 Tb256 2.427 1_554 S
O264 C260 1.275 . S
O265 Tb256 2.513 1_554 S
O265 C260 1.246 . S
O266 Tb256 2.453 . S
O266 C262 1.245 1_455 S
O267 Tb254 2.343 1_556 S
O267 Tb256 2.596 1_655 S
O267 C262 1.259 . S
O268 Tb256 2.374 1_655 S
O268 C263 1.250 1_556 S
O269 Tb254 2.353 . S
O269 C263 1.263 . S
C270 O271 1.275 . S
C270 O272 1.246 . S
O271 Tb254 2.427 1_556 S
O271 C270 1.275 . S
O272 Tb254 2.513 1_556 S
O272 C270 1.246 . S
C273 O257 1.245 1_455 S
C273 O258 1.259 . S
Tb274 O277 2.453 . S
Tb274 O278 2.596 . S
Tb274 O279 2.374 1_556 S
Tb274 O287 2.343 1_556 S
Tb274 O289 2.353 1_556 S
Tb274 O291 2.427 1_556 S
Tb274 O292 2.513 1_556 S
C275 O279 1.251 . S
C275 O281 1.263 . S
Tb276 O278 2.343 1_554 S
Tb276 O281 2.353 . S
Tb276 O284 2.427 . S
Tb276 O285 2.502 1_554 S
Tb276 O286 2.453 . S
Tb276 O287 2.596 . S
Tb276 O288 2.374 . S
O277 Tb274 2.453 . S
O277 C293 1.245 . S
O278 Tb274 2.596 . S
O278 Tb276 2.343 1_556 S
O278 C293 1.259 . S
O279 Tb274 2.374 1_554 S
O279 C275 1.251 . S
C280 O284 1.275 1_556 S
C280 O285 1.249 . S
O281 C275 1.263 . S
O281 Tb276 2.353 . S
C282 O286 1.245 . S
C282 O287 1.259 . S
C283 O288 1.250 . S
C283 O289 1.263 . S
O284 Tb276 2.427 . S
O284 C280 1.275 1_554 S
O285 Tb276 2.502 1_556 S
O285 C280 1.249 . S
O286 Tb276 2.453 . S
O286 C282 1.245 . S
O287 Tb274 2.343 1_554 S
O287 Tb276 2.596 . S
O287 C282 1.259 . S
O288 Tb276 2.374 . S
O288 C283 1.250 . S
O289 Tb274 2.353 1_554 S
O289 C283 1.263 . S
C290 O291 1.275 . S
C290 O292 1.246 . S
O291 Tb274 2.427 1_554 S
O291 C290 1.275 . S
O292 Tb274 2.513 1_554 S
O292 C290 1.246 . S
C293 O277 1.245 . S
C293 O278 1.259 . S
Tb294 O297 2.453 . S
Tb294 O298 2.596 . S
Tb294 O299 2.374 . S
Tb294 O307 2.343 . S
Tb294 O309 2.353 . S
Tb294 O311 2.427 . S
Tb294 O312 2.513 . S
C295 O299 1.251 . S
C295 O301 1.263 . S
Tb296 O298 2.343 . S
Tb296 O301 2.353 . S
Tb296 O304 2.427 . S
Tb296 O305 2.513 . S
Tb296 O306 2.453 . S
Tb296 O307 2.596 . S
Tb296 O308 2.374 . S
O297 Tb294 2.453 . S
O297 C313 1.245 . S
O298 Tb294 2.596 . S
O298 Tb296 2.343 . S
O298 C313 1.259 . S
O299 Tb294 2.374 . S
O299 C295 1.251 . S
C300 O304 1.275 . S
C300 O305 1.246 . S
O301 C295 1.263 . S
O301 Tb296 2.353 . S
C302 O306 1.245 . S
C302 O307 1.259 . S
C303 O308 1.250 . S
C303 O309 1.263 . S
O304 Tb296 2.427 . S
O304 C300 1.275 . S
O305 Tb296 2.513 . S
O305 C300 1.246 . S
O306 Tb296 2.453 . S
O306 C302 1.245 . S
O307 Tb294 2.343 . S
O307 Tb296 2.596 . S
O307 C302 1.259 . S
O308 Tb296 2.374 . S
O308 C303 1.250 . S
O309 Tb294 2.353 . S
O309 C303 1.263 . S
C310 O311 1.275 . S
C310 O312 1.246 . S
O311 Tb294 2.427 . S
O311 C310 1.275 . S
O312 Tb294 2.513 . S
O312 C310 1.246 . S
C313 O297 1.245 . S
C313 O298 1.259 . S
Tb314 O317 2.453 . S
Tb314 O318 2.596 . S
Tb314 O319 2.374 . S
Tb314 O327 2.343 . S
Tb314 O329 2.353 . S
Tb314 O331 2.427 . S
Tb314 O332 2.513 . S
C315 O319 1.251 . S
C315 O321 1.263 . S
Tb316 O318 2.343 . S
Tb316 O321 2.353 . S
Tb316 O324 2.427 . S
Tb316 O325 2.513 . S
Tb316 O326 2.453 . S
Tb316 O327 2.596 . S
Tb316 O328 2.374 . S
O317 Tb314 2.453 . S
O317 C333 1.245 . S
O318 Tb314 2.596 . S
O318 Tb316 2.343 . S
O318 C333 1.259 . S
O319 Tb314 2.374 . S
O319 C315 1.251 . S
C320 O324 1.275 . S
C320 O325 1.246 . S
O321 C315 1.263 . S
O321 Tb316 2.353 . S
C322 O326 1.245 . S
C322 O327 1.259 . S
C323 O328 1.250 . S
C323 O329 1.263 . S
O324 Tb316 2.427 . S
O324 C320 1.275 . S
O325 Tb316 2.513 . S
O325 C320 1.246 . S
O326 Tb316 2.453 . S
O326 C322 1.245 . S
O327 Tb314 2.343 . S
O327 Tb316 2.596 . S
O327 C322 1.259 . S
O328 Tb316 2.374 . S
O328 C323 1.250 . S
O329 Tb314 2.353 . S
O329 C323 1.263 . S
C330 O331 1.275 . S
C330 O332 1.246 . S
O331 Tb314 2.427 . S
O331 C330 1.275 . S
O332 Tb314 2.513 . S
O332 C330 1.246 . S
C333 O317 1.245 . S
C333 O318 1.259 . S
Tb334 O337 2.453 . S
Tb334 O338 2.596 . S
Tb334 O339 2.374 . S
Tb334 O347 2.343 . S
Tb334 O349 2.353 . S
Tb334 O351 2.427 . S
Tb334 O352 2.513 . S
C335 O339 1.251 . S
C335 O341 1.263 . S
Tb336 O338 2.343 . S
Tb336 O341 2.353 . S
Tb336 O344 2.427 . S
Tb336 O345 2.513 . S
Tb336 O346 2.453 . S
Tb336 O347 2.596 . S
Tb336 O348 2.374 . S
O337 Tb334 2.453 . S
O337 C353 1.245 . S
O338 Tb334 2.596 . S
O338 Tb336 2.343 . S
O338 C353 1.259 . S
O339 Tb334 2.374 . S
O339 C335 1.251 . S
C340 O344 1.275 . S
C340 O345 1.246 . S
O341 C335 1.263 . S
O341 Tb336 2.353 . S
C342 O346 1.245 . S
C342 O347 1.259 . S
C343 O348 1.250 . S
C343 O349 1.263 . S
O344 Tb336 2.427 . S
O344 C340 1.275 . S
O345 Tb336 2.513 . S
O345 C340 1.246 . S
O346 Tb336 2.453 . S
O346 C342 1.245 . S
O347 Tb334 2.343 . S
O347 Tb336 2.596 . S
O347 C342 1.259 . S
O348 Tb336 2.374 . S
O348 C343 1.250 . S
O349 Tb334 2.353 . S
O349 C343 1.263 . S
C350 O351 1.275 . S
C350 O352 1.246 . S
O351 Tb334 2.427 . S
O351 C350 1.275 . S
O352 Tb334 2.513 . S
O352 C350 1.246 . S
C353 O337 1.245 . S
C353 O338 1.259 . S
Tb354 O357 2.453 . S
Tb354 O358 2.596 . S
Tb354 O359 2.374 . S
Tb354 O367 2.343 . S
Tb354 O369 2.353 . S
Tb354 O371 2.427 . S
Tb354 O372 2.513 . S
C355 O359 1.251 . S
C355 O361 1.263 . S
Tb356 O358 2.343 . S
Tb356 O361 2.353 . S
Tb356 O364 2.427 . S
Tb356 O365 2.513 . S
Tb356 O366 2.453 . S
Tb356 O367 2.596 . S
Tb356 O368 2.374 . S
O357 Tb354 2.453 . S
O357 C373 1.245 . S
O358 Tb354 2.596 . S
O358 Tb356 2.343 . S
O358 C373 1.259 . S
O359 Tb354 2.374 . S
O359 C355 1.251 . S
C360 O364 1.275 . S
C360 O365 1.246 . S
O361 C355 1.263 . S
O361 Tb356 2.353 . S
C362 O366 1.245 . S
C362 O367 1.259 . S
C363 O368 1.250 . S
C363 O369 1.263 . S
O364 Tb356 2.427 . S
O364 C360 1.275 . S
O365 Tb356 2.513 . S
O365 C360 1.246 . S
O366 Tb356 2.453 . S
O366 C362 1.245 . S
O367 Tb354 2.343 . S
O367 Tb356 2.596 . S
O367 C362 1.259 . S
O368 Tb356 2.374 . S
O368 C363 1.250 . S
O369 Tb354 2.353 . S
O369 C363 1.263 . S
C370 O371 1.275 . S
C370 O372 1.246 . S
O371 Tb354 2.427 . S
O371 C370 1.275 . S
O372 Tb354 2.513 . S
O372 C370 1.246 . S
C373 O357 1.245 . S
C373 O358 1.259 . S
Tb374 O377 2.453 . S
Tb374 O378 2.596 . S
Tb374 O379 2.374 . S
Tb374 O387 2.343 . S
Tb374 O389 2.353 . S
Tb374 O391 2.427 . S
Tb374 O392 2.513 . S
C375 O379 1.251 . S
C375 O381 1.263 . S
Tb376 O378 2.343 . S
Tb376 O381 2.353 . S
Tb376 O384 2.427 . S
Tb376 O385 2.513 . S
Tb376 O386 2.453 . S
Tb376 O387 2.596 . S
Tb376 O388 2.374 . S
O377 Tb374 2.453 . S
O377 C393 1.245 . S
O378 Tb374 2.596 . S
O378 Tb376 2.343 . S
O378 C393 1.259 . S
O379 Tb374 2.374 . S
O379 C375 1.251 . S
C380 O384 1.275 . S
C380 O385 1.246 . S
O381 C375 1.263 . S
O381 Tb376 2.353 . S
C382 O386 1.245 . S
C382 O387 1.259 . S
C383 O388 1.250 . S
C383 O389 1.263 . S
O384 Tb376 2.427 . S
O384 C380 1.275 . S
O385 Tb376 2.513 . S
O385 C380 1.246 . S
O386 Tb376 2.453 . S
O386 C382 1.245 . S
O387 Tb374 2.343 . S
O387 Tb376 2.596 . S
O387 C382 1.259 . S
O388 Tb376 2.374 . S
O388 C383 1.250 . S
O389 Tb374 2.353 . S
O389 C383 1.263 . S
C390 O391 1.275 . S
C390 O392 1.246 . S
O391 Tb374 2.427 . S
O391 C390 1.275 . S
O392 Tb374 2.513 . S
O392 C390 1.246 . S
C393 O377 1.245 . S
C393 O378 1.259 . S
Tb394 O397 2.453 . S
Tb394 O398 2.596 . S
Tb394 O399 2.374 . S
Tb394 O407 2.343 . S
Tb394 O409 2.353 . S
Tb394 O411 2.427 . S
Tb394 O412 2.513 . S
C395 O399 1.251 . S
C395 O401 1.263 . S
Tb396 O398 2.343 . S
Tb396 O401 2.353 . S
Tb396 O404 2.427 . S
Tb396 O405 2.513 . S
Tb396 O406 2.453 . S
Tb396 O407 2.596 . S
Tb396 O408 2.374 . S
O397 Tb394 2.453 . S
O397 C413 1.245 . S
O398 Tb394 2.596 . S
O398 Tb396 2.343 . S
O398 C413 1.259 . S
O399 Tb394 2.374 . S
O399 C395 1.251 . S
C400 O404 1.275 . S
C400 O405 1.246 . S
O401 C395 1.263 . S
O401 Tb396 2.353 . S
C402 O406 1.245 . S
C402 O407 1.259 . S
C403 O408 1.250 . S
C403 O409 1.263 . S
O404 Tb396 2.427 . S
O404 C400 1.275 . S
O405 Tb396 2.513 . S
O405 C400 1.246 . S
O406 Tb396 2.453 . S
O406 C402 1.245 . S
O407 Tb394 2.343 . S
O407 Tb396 2.596 . S
O407 C402 1.259 . S
O408 Tb396 2.374 . S
O408 C403 1.250 . S
O409 Tb394 2.353 . S
O409 C403 1.263 . S
C410 O411 1.275 . S
C410 O412 1.246 . S
O411 Tb394 2.427 . S
O411 C410 1.275 . S
O412 Tb394 2.513 . S
O412 C410 1.246 . S
C413 O397 1.245 . S
C413 O398 1.259 . S
C414 C415 1.391 . S
C414 C416 1.394 . S
C414 H430 0.931 . S
C415 C414 1.391 . S
C415 C419 1.376 . S
C416 C414 1.394 . S
C416 C417 1.369 . S
C416 C420 1.531 . S
C417 C416 1.369 . S
C417 C418 1.410 . S
C417 C425 1.503 . S
C418 C417 1.410 . S
C418 C419 1.392 . S
C418 C421 1.511 . S
C419 C415 1.376 . S
C419 C418 1.392 . S
C419 H431 0.929 . S
C420 C416 1.531 . S
C420 H432 0.960 . S
C420 H433 0.962 . S
C420 H434 0.960 . S
C421 C418 1.511 . S
C421 H435 0.961 . S
C421 H436 0.961 . S
C421 H437 0.961 . S
C422 C423 1.370 . S
C422 C424 1.363 . S
C422 H438 0.931 . S
C423 C422 1.370 . S
C423 C427 1.408 . S
C424 C422 1.363 . S
C424 C425 1.370 . S
C424 C428 1.524 . S
C425 C417 1.503 . S
C425 C424 1.370 . S
C425 C426 1.403 . S
C426 C425 1.403 . S
C426 C427 1.404 . S
C426 C429 1.539 1_554 S
C427 C423 1.408 . S
C427 C426 1.404 . S
C427 H439 0.930 1_554 S
C428 C424 1.524 . S
C428 H440 0.956 . S
C428 H441 0.961 . S
C428 H442 0.961 . S
C429 C426 1.539 1_556 S
C429 H443 0.958 . S
C429 H444 0.961 . S
C429 H445 0.960 . S
H430 C414 0.931 . S
H431 C419 0.929 . S
H432 C420 0.960 . S
H433 C420 0.962 . S
H434 C420 0.960 . S
H435 C421 0.961 . S
H436 C421 0.961 . S
H437 C421 0.961 . S
H438 C422 0.931 . S
H439 C427 0.930 1_556 S
H440 C428 0.956 . S
H441 C428 0.961 . S
H442 C428 0.961 . S
H443 C429 0.958 . S
H444 C429 0.961 . S
H445 C429 0.960 . S
C446 C447 1.391 . S
C446 C448 1.394 . S
C446 H462 0.931 . S
C447 C446 1.391 . S
C447 C451 1.376 . S
C448 C446 1.394 . S
C448 C449 1.369 . S
C448 C452 1.531 . S
C449 C448 1.369 . S
C449 C450 1.410 . S
C449 C457 1.503 . S
C450 C449 1.410 . S
C450 C451 1.392 . S
C450 C453 1.511 . S
C451 C447 1.376 . S
C451 C450 1.392 . S
C451 H463 0.929 . S
C452 C448 1.531 . S
C452 H464 0.960 . S
C452 H465 0.962 . S
C452 H466 0.960 . S
C453 C450 1.511 . S
C453 H467 0.961 . S
C453 H468 0.961 . S
C453 H469 0.961 . S
C454 C455 1.370 . S
C454 C456 1.363 . S
C454 H470 0.931 . S
C455 C454 1.370 . S
C455 C459 1.408 . S
C456 C454 1.363 . S
C456 C457 1.370 . S
C456 C460 1.524 . S
C457 C449 1.503 . S
C457 C456 1.370 . S
C457 C458 1.403 . S
C458 C457 1.403 . S
C458 C459 1.404 . S
C458 C461 1.539 . S
C459 C455 1.408 . S
C459 C458 1.404 . S
C459 H471 0.930 . S
C460 C456 1.524 . S
C460 H472 0.956 . S
C460 H473 0.961 . S
C460 H474 0.961 . S
C461 C458 1.539 . S
C461 H475 0.958 . S
C461 H476 0.961 . S
C461 H477 0.960 . S
H462 C446 0.931 . S
H463 C451 0.929 . S
H464 C452 0.960 . S
H465 C452 0.962 . S
H466 C452 0.960 . S
H467 C453 0.961 . S
H468 C453 0.961 . S
H469 C453 0.961 . S
H470 C454 0.931 . S
H471 C459 0.930 . S
H472 C460 0.956 . S
H473 C460 0.961 . S
H474 C460 0.961 . S
H475 C461 0.958 . S
H476 C461 0.961 . S
H477 C461 0.960 . S
C478 C479 1.391 . S
C478 C480 1.394 . S
C478 H494 0.931 . S
C479 C478 1.391 . S
C479 C483 1.376 . S
C480 C478 1.394 . S
C480 C481 1.369 . S
C480 C484 1.531 . S
C481 C480 1.369 . S
C481 C482 1.410 . S
C481 C489 1.503 . S
C482 C481 1.410 . S
C482 C483 1.392 . S
C482 C485 1.511 . S
C483 C479 1.376 . S
C483 C482 1.392 . S
C483 H495 0.929 . S
C484 C480 1.531 . S
C484 H496 0.960 . S
C484 H497 0.962 . S
C484 H498 0.960 . S
C485 C482 1.511 . S
C485 H499 0.961 1_554 S
C485 H500 0.962 1_554 S
C485 H501 0.961 . S
C486 C487 1.370 . S
C486 C488 1.363 . S
C486 H502 0.931 . S
C487 C486 1.370 . S
C487 C491 1.408 . S
C488 C486 1.363 . S
C488 C489 1.370 . S
C488 C492 1.524 . S
C489 C481 1.503 . S
C489 C488 1.370 . S
C489 C490 1.403 . S
C490 C489 1.403 . S
C490 C491 1.404 . S
C490 C493 1.539 . S
C491 C487 1.408 . S
C491 C490 1.404 . S
C491 H503 0.930 . S
C492 C488 1.524 . S
C492 H504 0.956 . S
C492 H505 0.961 . S
C492 H506 0.950 1_554 S
C493 C490 1.539 . S
C493 H507 0.958 . S
C493 H508 0.961 . S
C493 H509 0.960 . S
H494 C478 0.931 . S
H495 C483 0.929 . S
H496 C484 0.960 . S
H497 C484 0.962 . S
H498 C484 0.960 . S
H499 C485 0.961 1_556 S
H500 C485 0.962 1_556 S
H501 C485 0.961 . S
H502 C486 0.931 . S
H503 C491 0.930 . S
H504 C492 0.956 . S
H505 C492 0.961 . S
H506 C492 0.950 1_556 S
H507 C493 0.958 . S
H508 C493 0.961 . S
H509 C493 0.960 . S
C510 C511 1.391 . S
C510 C512 1.394 . S
C510 H526 0.931 . S
C511 C510 1.391 . S
C511 C515 1.376 . S
C512 C510 1.394 . S
C512 C513 1.369 . S
C512 C516 1.511 1_556 S
C513 C512 1.369 . S
C513 C514 1.410 . S
C513 C521 1.503 . S
C514 C513 1.410 . S
C514 C515 1.392 . S
C514 C517 1.511 . S
C515 C511 1.376 . S
C515 C514 1.392 . S
C515 H527 0.929 . S
C516 C512 1.511 1_554 S
C516 H528 0.979 . S
C516 H529 0.939 1_554 S
C516 H530 0.985 . S
C517 C514 1.511 . S
C517 H531 0.961 . S
C517 H532 0.961 . S
C517 H533 0.961 . S
C518 C519 1.370 . S
C518 C520 1.363 . S
C518 H534 0.931 . S
C519 C518 1.370 . S
C519 C523 1.408 1_556 S
C520 C518 1.363 . S
C520 C521 1.370 . S
C520 C524 1.524 . S
C521 C513 1.503 . S
C521 C520 1.370 . S
C521 C522 1.403 1_556 S
C522 C521 1.403 1_554 S
C522 C523 1.404 . S
C522 C525 1.539 . S
C523 C519 1.408 1_554 S
C523 C522 1.404 . S
C523 H535 0.930 . S
C524 C520 1.524 . S
C524 H536 0.956 . S
C524 H537 0.961 . S
C524 H538 0.961 . S
C525 C522 1.539 . S
C525 H539 0.958 . S
C525 H540 0.961 . S
C525 H541 0.960 . S
H526 C510 0.931 . S
H527 C515 0.929 . S
H528 C516 0.979 . S
H529 C516 0.939 1_556 S
H530 C516 0.985 . S
H531 C517 0.961 . S
H532 C517 0.961 . S
H533 C517 0.961 . S
H534 C518 0.931 . S
H535 C523 0.930 . S
H536 C524 0.956 . S
H537 C524 0.961 . S
H538 C524 0.961 . S
H539 C525 0.958 . S
H540 C525 0.961 . S
H541 C525 0.960 . S
C542 C543 1.391 . S
C542 C544 1.394 . S
C542 H558 0.931 . S
C543 C542 1.391 . S
C543 C547 1.376 . S
C544 C542 1.394 . S
C544 C545 1.369 . S
C544 C548 1.531 1_556 S
C545 C544 1.369 . S
C545 C546 1.410 . S
C545 C553 1.503 . S
C546 C545 1.410 . S
C546 C547 1.392 . S
C546 C549 1.511 . S
C547 C543 1.376 . S
C547 C546 1.392 . S
C547 H559 0.929 . S
C548 C544 1.531 1_554 S
C548 H560 0.960 . S
C548 H561 0.962 . S
C548 H562 0.960 . S
C549 C546 1.511 . S
C549 H563 0.961 . S
C549 H564 0.961 . S
C549 H565 0.961 . S
C550 C551 1.370 . S
C550 C552 1.363 . S
C550 H566 0.931 . S
C551 C550 1.370 . S
C551 C555 1.408 . S
C552 C550 1.363 . S
C552 C553 1.370 . S
C552 C556 1.524 . S
C553 C545 1.503 . S
C553 C552 1.370 . S
C553 C554 1.403 . S
C554 C553 1.403 . S
C554 C555 1.404 . S
C554 C557 1.539 . S
C555 C551 1.408 . S
C555 C554 1.404 . S
C555 H567 0.930 . S
C556 C552 1.524 . S
C556 H568 0.956 . S
C556 H569 0.961 . S
C556 H570 0.961 . S
C557 C554 1.539 . S
C557 H571 0.958 . S
C557 H572 0.961 . S
C557 H573 0.960 . S
H558 C542 0.931 . S
H559 C547 0.929 . S
H560 C548 0.960 . S
H561 C548 0.962 . S
H562 C548 0.960 . S
H563 C549 0.961 . S
H564 C549 0.961 . S
H565 C549 0.961 . S
H566 C550 0.931 . S
H567 C555 0.930 . S
H568 C556 0.956 . S
H569 C556 0.961 . S
H570 C556 0.961 . S
H571 C557 0.958 . S
H572 C557 0.961 . S
H573 C557 0.960 . S
C574 C575 1.391 . S
C574 C576 1.394 . S
C574 H590 0.931 . S
C575 C574 1.391 . S
C575 C579 1.376 . S
C576 C574 1.394 . S
C576 C577 1.369 . S
C576 C580 1.531 . S
C577 C576 1.369 . S
C577 C578 1.410 . S
C577 C585 1.503 . S
C578 C577 1.410 . S
C578 C579 1.392 . S
C578 C581 1.511 . S
C579 C575 1.376 . S
C579 C578 1.392 . S
C579 H591 0.929 . S
C580 C576 1.531 . S
C580 H592 0.960 . S
C580 H593 0.962 . S
C580 H594 0.960 . S
C581 C578 1.511 . S
C581 H595 0.961 1_556 S
C581 H596 0.961 1_556 S
C581 H597 0.961 . S
C582 C583 1.370 1_554 S
C582 C584 1.363 . S
C582 H598 0.931 . S
C583 C582 1.370 1_556 S
C583 C587 1.408 . S
C584 C582 1.363 . S
C584 C585 1.370 1_554 S
C584 C588 1.524 . S
C585 C577 1.503 . S
C585 C584 1.370 1_556 S
C585 C586 1.403 . S
C586 C585 1.403 . S
C586 C587 1.404 . S
C586 C589 1.539 . S
C587 C583 1.408 . S
C587 C586 1.404 . S
C587 H599 0.930 . S
C588 C584 1.524 . S
C588 H600 0.956 . S
C588 H601 0.961 . S
C588 H602 0.961 . S
C589 C586 1.539 . S
C589 H603 0.958 . S
C589 H604 0.961 . S
C589 H605 0.960 . S
H590 C574 0.931 . S
H591 C579 0.929 . S
H592 C580 0.960 . S
H593 C580 0.962 . S
H594 C580 0.960 . S
H595 C581 0.961 1_554 S
H596 C581 0.961 1_554 S
H597 C581 0.961 . S
H598 C582 0.931 . S
H599 C587 0.930 . S
H600 C588 0.956 . S
H601 C588 0.961 . S
H602 C588 0.961 . S
H603 C589 0.958 . S
H604 C589 0.961 . S
H605 C589 0.960 . S
C606 C607 1.391 . S
C606 C608 1.394 . S
C606 H622 0.931 . S
C607 C606 1.391 . S
C607 C611 1.376 . S
C608 C606 1.394 . S
C608 C609 1.369 . S
C608 C612 1.531 . S
C609 C608 1.369 . S
C609 C610 1.410 . S
C609 C617 1.503 . S
C610 C609 1.410 . S
C610 C611 1.392 . S
C610 C613 1.511 . S
C611 C607 1.376 . S
C611 C610 1.392 . S
C611 H623 0.929 . S
C612 C608 1.531 . S
C612 H624 0.960 . S
C612 H625 0.962 1_556 S
C612 H626 0.960 . S
C613 C610 1.511 . S
C613 H627 0.961 . S
C613 H628 0.961 . S
C613 H629 0.961 . S
C614 C615 1.366 1_554 S
C614 C616 1.360 1_554 S
C614 H630 0.939 . S
C615 C614 1.366 1_556 S
C615 C619 1.408 . S
C616 C614 1.360 1_556 S
C616 C617 1.370 . S
C616 C620 1.524 1_556 S
C617 C609 1.503 . S
C617 C616 1.370 . S
C617 C618 1.403 . S
C618 C617 1.403 . S
C618 C619 1.404 . S
C618 C621 1.539 . S
C619 C615 1.408 . S
C619 C618 1.404 . S
C619 H631 0.930 . S
C620 C616 1.524 1_554 S
C620 H632 0.956 . S
C620 H633 0.961 1_554 S
C620 H634 0.961 . S
C621 C618 1.539 . S
C621 H635 0.958 . S
C621 H636 0.961 . S
C621 H637 0.960 . S
H622 C606 0.931 . S
H623 C611 0.929 . S
H624 C612 0.960 . S
H625 C612 0.962 1_554 S
H626 C612 0.960 . S
H627 C613 0.961 . S
H628 C613 0.961 . S
H629 C613 0.961 . S
H630 C614 0.939 . S
H631 C619 0.930 . S
H632 C620 0.956 . S
H633 C620 0.961 1_556 S
H634 C620 0.961 . S
H635 C621 0.958 . S
H636 C621 0.961 . S
H637 C621 0.960 . S
C638 C639 1.391 . S
C638 C640 1.394 . S
C638 H654 0.931 . S
C639 C638 1.391 . S
C639 C643 1.376 . S
C640 C638 1.394 . S
C640 C641 1.369 . S
C640 C644 1.531 . S
C641 C640 1.369 . S
C641 C642 1.410 . S
C641 C649 1.503 . S
C642 C641 1.410 . S
C642 C643 1.392 . S
C642 C645 1.537 . S
C643 C639 1.376 . S
C643 C642 1.392 . S
C643 H655 0.929 . S
C644 C640 1.531 . S
C644 H656 0.960 . S
C644 H657 0.962 . S
C644 H658 0.960 . S
C645 C642 1.537 . S
C645 H659 0.936 1_556 S
C645 H660 0.950 1_556 S
C645 H661 0.971 . S
C646 C647 1.370 . S
C646 C648 1.363 . S
C646 H662 0.931 . S
C647 C646 1.370 . S
C647 C651 1.408 . S
C648 C646 1.363 . S
C648 C649 1.370 . S
C648 C652 1.524 . S
C649 C641 1.503 . S
C649 C648 1.370 . S
C649 C650 1.403 . S
C650 C649 1.403 . S
C650 C651 1.404 . S
C650 C653 1.539 . S
C651 C647 1.408 . S
C651 C650 1.404 . S
C651 H663 0.930 . S
C652 C648 1.524 . S
C652 H664 0.956 . S
C652 H665 0.961 . S
C652 H666 0.961 . S
C653 C650 1.539 . S
C653 H667 0.958 . S
C653 H668 0.961 . S
C653 H669 0.960 . S
H654 C638 0.931 . S
H655 C643 0.929 . S
H656 C644 0.960 . S
H657 C644 0.962 . S
H658 C644 0.960 . S
H659 C645 0.936 1_554 S
H660 C645 0.950 1_554 S
H661 C645 0.971 . S
H662 C646 0.931 . S
H663 C651 0.930 . S
H664 C652 0.956 . S
H665 C652 0.961 . S
H666 C652 0.961 . S
H667 C653 0.958 . S
H668 C653 0.961 . S
H669 C653 0.960 . S
C670 C671 1.391 1_554 S
C670 C672 1.394 . S
C670 H686 0.931 . S
C671 C670 1.391 1_556 S
C671 C675 1.376 . S
C672 C670 1.394 . S
C672 C673 1.369 1_554 S
C672 C676 1.531 . S
C673 C672 1.369 1_556 S
C673 C674 1.410 . S
C673 C681 1.503 . S
C674 C673 1.410 . S
C674 C675 1.392 . S
C674 C677 1.511 . S
C675 C671 1.376 . S
C675 C674 1.392 . S
C675 H687 0.929 . S
C676 C672 1.531 . S
C676 H688 0.960 . S
C676 H689 0.962 . S
C676 H690 0.960 . S
C677 C674 1.511 . S
C677 H691 0.961 . S
C677 H692 0.961 . S
C677 H693 0.961 . S
C678 C679 1.370 1_556 S
C678 C680 1.363 . S
C678 H694 0.931 . S
C679 C678 1.370 1_554 S
C679 C683 1.408 . S
C680 C678 1.363 . S
C680 C681 1.370 . S
C680 C684 1.524 . S
C681 C673 1.503 . S
C681 C680 1.370 . S
C681 C682 1.403 1_556 S
C682 C681 1.403 1_554 S
C682 C683 1.404 . S
C682 C685 1.539 . S
C683 C679 1.408 . S
C683 C682 1.404 . S
C683 H695 0.930 . S
C684 C680 1.524 . S
C684 H696 0.956 . S
C684 H697 0.961 . S
C684 H698 0.961 . S
C685 C682 1.539 . S
C685 H699 0.958 . S
C685 H700 0.961 . S
C685 H701 0.960 . S
H686 C670 0.931 . S
H687 C675 0.929 . S
H688 C676 0.960 . S
H689 C676 0.962 . S
H690 C676 0.960 . S
H691 C677 0.961 . S
H692 C677 0.961 . S
H693 C677 0.961 . S
H694 C678 0.931 . S
H695 C683 0.930 . S
H696 C684 0.956 . S
H697 C684 0.961 . S
H698 C684 0.961 . S
H699 C685 0.958 . S
H700 C685 0.961 . S
H701 C685 0.960 . S
C702 C703 1.391 . S
C702 C704 1.394 . S
C702 H718 0.931 . S
C703 C702 1.391 . S
C703 C707 1.376 . S
C704 C702 1.394 . S
C704 C705 1.369 . S
C704 C708 1.531 1_554 S
C705 C704 1.369 . S
C705 C706 1.410 . S
C705 C713 1.503 . S
C706 C705 1.410 . S
C706 C707 1.392 . S
C706 C709 1.511 . S
C707 C703 1.376 . S
C707 C706 1.392 . S
C707 H719 0.929 . S
C708 C704 1.531 1_556 S
C708 H720 0.960 1_556 S
C708 H721 0.962 . S
C708 H722 0.960 . S
C709 C706 1.511 . S
C709 H723 0.961 . S
C709 H724 0.961 . S
C709 H725 0.961 . S
C710 C711 1.370 . S
C710 C712 1.363 . S
C710 H726 0.931 . S
C711 C710 1.370 . S
C711 C715 1.408 . S
C712 C710 1.363 . S
C712 C713 1.370 . S
C712 C716 1.524 . S
C713 C705 1.503 . S
C713 C712 1.370 . S
C713 C714 1.403 . S
C714 C713 1.403 . S
C714 C715 1.404 . S
C714 C717 1.539 . S
C715 C711 1.408 . S
C715 C714 1.404 . S
C715 H727 0.930 . S
C716 C712 1.524 . S
C716 H728 0.956 . S
C716 H729 0.961 . S
C716 H730 0.961 . S
C717 C714 1.539 . S
C717 H731 0.958 . S
C717 H732 0.961 . S
C717 H733 0.960 . S
H718 C702 0.931 . S
H719 C707 0.929 . S
H720 C708 0.960 1_554 S
H721 C708 0.962 . S
H722 C708 0.960 . S
H723 C709 0.961 . S
H724 C709 0.961 . S
H725 C709 0.961 . S
H726 C710 0.931 . S
H727 C715 0.930 . S
H728 C716 0.956 . S
H729 C716 0.961 . S
H730 C716 0.961 . S
H731 C717 0.958 . S
H732 C717 0.961 . S
H733 C717 0.960 . S
C734 C735 1.391 . S
C734 C736 1.394 . S
C734 H750 0.931 . S
C735 C734 1.391 . S
C735 C739 1.376 . S
C736 C734 1.394 . S
C736 C737 1.369 . S
C736 C740 1.531 . S
C737 C736 1.369 . S
C737 C738 1.410 . S
C737 C745 1.503 . S
C738 C737 1.410 . S
C738 C739 1.392 . S
C738 C741 1.511 . S
C739 C735 1.376 . S
C739 C738 1.392 . S
C739 H751 0.929 . S
C740 C736 1.531 . S
C740 H752 0.960 . S
C740 H753 0.962 . S
C740 H754 0.960 . S
C741 C738 1.511 . S
C741 H755 0.961 . S
C741 H756 0.961 . S
C741 H757 0.961 . S
C742 C743 1.370 . S
C742 C744 1.363 . S
C742 H758 0.931 . S
C743 C742 1.370 . S
C743 C747 1.408 . S
C744 C742 1.363 . S
C744 C745 1.370 . S
C744 C748 1.524 . S
C745 C737 1.503 . S
C745 C744 1.370 . S
C745 C746 1.403 . S
C746 C745 1.403 . S
C746 C747 1.404 . S
C746 C749 1.539 . S
C747 C743 1.408 . S
C747 C746 1.404 . S
C747 H759 0.930 . S
C748 C744 1.524 . S
C748 H760 0.956 . S
C748 H761 0.961 . S
C748 H762 0.961 . S
C749 C746 1.539 . S
C749 H763 0.958 . S
C749 H764 0.961 . S
C749 H765 0.960 . S
H750 C734 0.931 . S
H751 C739 0.929 . S
H752 C740 0.960 . S
H753 C740 0.962 . S
H754 C740 0.960 . S
H755 C741 0.961 . S
H756 C741 0.961 . S
H757 C741 0.961 . S
H758 C742 0.931 . S
H759 C747 0.930 . S
H760 C748 0.956 . S
H761 C748 0.961 . S
H762 C748 0.961 . S
H763 C749 0.958 . S
H764 C749 0.961 . S
H765 C749 0.960 . S
C766 C767 1.391 . S
C766 C768 1.394 . S
C766 H782 0.931 . S
C767 C766 1.391 . S
C767 C771 1.376 . S
C768 C766 1.394 . S
C768 C769 1.369 . S
C768 C772 1.531 1_554 S
C769 C768 1.369 . S
C769 C770 1.410 . S
C769 C777 1.503 . S
C770 C769 1.410 . S
C770 C771 1.392 . S
C770 C773 1.511 . S
C771 C767 1.376 . S
C771 C770 1.392 . S
C771 H783 0.929 . S
C772 C768 1.531 1_556 S
C772 H784 0.960 . S
C772 H785 0.962 . S
C772 H786 0.960 . S
C773 C770 1.511 . S
C773 H787 0.961 . S
C773 H788 0.961 . S
C773 H789 0.961 . S
C774 C775 1.370 . S
C774 C776 1.363 . S
C774 H790 0.931 . S
C775 C774 1.370 . S
C775 C779 1.408 . S
C776 C774 1.363 . S
C776 C777 1.370 . S
C776 C780 1.524 . S
C777 C769 1.503 . S
C777 C776 1.370 . S
C777 C778 1.403 . S
C778 C777 1.403 . S
C778 C779 1.404 . S
C778 C781 1.539 . S
C779 C775 1.408 . S
C779 C778 1.404 . S
C779 H791 0.930 . S
C780 C776 1.524 . S
C780 H792 0.956 . S
C780 H793 0.961 . S
C780 H794 0.961 . S
C781 C778 1.539 . S
C781 H795 0.958 . S
C781 H796 0.961 . S
C781 H797 0.960 . S
H782 C766 0.931 . S
H783 C771 0.929 . S
H784 C772 0.960 . S
H785 C772 0.962 . S
H786 C772 0.960 . S
H787 C773 0.961 . S
H788 C773 0.961 . S
H789 C773 0.961 . S
H790 C774 0.931 . S
H791 C779 0.930 . S
H792 C780 0.956 . S
H793 C780 0.961 . S
H794 C780 0.961 . S
H795 C781 0.958 . S
H796 C781 0.961 . S
H797 C781 0.960 . S
C798 C799 1.391 . S
C798 C800 1.394 . S
C798 H814 0.931 . S
C799 C798 1.391 . S
C799 C803 1.376 . S
C800 C798 1.394 . S
C800 C801 1.369 . S
C800 C804 1.531 . S
C801 C800 1.369 . S
C801 C802 1.410 . S
C801 C809 1.503 1_655 S
C802 C801 1.410 . S
C802 C803 1.392 . S
C802 C805 1.511 . S
C803 C799 1.376 . S
C803 C802 1.392 . S
C803 H815 0.929 . S
C804 C800 1.531 . S
C804 H816 0.960 1_655 S
C804 H817 0.962 1_655 S
C804 H818 0.960 . S
C805 C802 1.511 . S
C805 H819 0.961 . S
C805 H820 0.961 . S
C805 H821 0.961 . S
C806 C807 1.370 . S
C806 C808 1.363 . S
C806 H822 0.931 . S
C807 C806 1.370 . S
C807 C811 1.408 . S
C808 C806 1.363 . S
C808 C809 1.370 . S
C808 C812 1.524 . S
C809 C801 1.503 1_455 S
C809 C808 1.370 . S
C809 C810 1.403 . S
C810 C809 1.403 . S
C810 C811 1.404 . S
C810 C813 1.539 1_455 S
C811 C807 1.408 . S
C811 C810 1.404 . S
C811 H823 0.930 . S
C812 C808 1.524 . S
C812 H824 0.956 . S
C812 H825 0.961 1_455 S
C812 H826 0.961 . S
C813 C810 1.539 1_655 S
C813 H827 0.958 . S
C813 H828 0.961 . S
C813 H829 0.960 . S
H814 C798 0.931 . S
H815 C803 0.929 . S
H816 C804 0.960 1_455 S
H817 C804 0.962 1_455 S
H818 C804 0.960 . S
H819 C805 0.961 . S
H820 C805 0.961 . S
H821 C805 0.961 . S
H822 C806 0.931 . S
H823 C811 0.930 . S
H824 C812 0.956 . S
H825 C812 0.961 1_655 S
H826 C812 0.961 . S
H827 C813 0.958 . S
H828 C813 0.961 . S
H829 C813 0.960 . S
C830 C831 1.391 . S
C830 C832 1.394 . S
C830 H846 0.931 . S
C831 C830 1.391 . S
C831 C835 1.376 . S
C832 C830 1.394 . S
C832 C833 1.369 . S
C832 C836 1.531 . S
C833 C832 1.369 . S
C833 C834 1.410 . S
C833 C841 1.503 . S
C834 C833 1.410 . S
C834 C835 1.392 . S
C834 C837 1.511 . S
C835 C831 1.376 . S
C835 C834 1.392 . S
C835 H847 0.929 . S
C836 C832 1.531 . S
C836 H848 0.960 . S
C836 H849 0.962 . S
C836 H850 0.960 . S
C837 C834 1.511 . S
C837 H851 0.961 . S
C837 H852 0.961 . S
C837 H853 0.961 . S
C838 C839 1.370 . S
C838 C840 1.363 . S
C838 H854 0.931 . S
C839 C838 1.370 . S
C839 C843 1.408 . S
C840 C838 1.363 . S
C840 C841 1.370 . S
C840 C844 1.524 . S
C841 C833 1.503 . S
C841 C840 1.370 . S
C841 C842 1.403 . S
C842 C841 1.403 . S
C842 C843 1.404 . S
C842 C845 1.539 . S
C843 C839 1.408 . S
C843 C842 1.404 . S
C843 H855 0.930 . S
C844 C840 1.524 . S
C844 H856 0.956 . S
C844 H857 0.961 . S
C844 H858 0.961 . S
C845 C842 1.539 . S
C845 H859 0.958 . S
C845 H860 0.961 . S
C845 H861 0.960 . S
H846 C830 0.931 . S
H847 C835 0.929 . S
H848 C836 0.960 . S
H849 C836 0.962 . S
H850 C836 0.960 . S
H851 C837 0.961 . S
H852 C837 0.961 . S
H853 C837 0.961 . S
H854 C838 0.931 . S
H855 C843 0.930 . S
H856 C844 0.956 . S
H857 C844 0.961 . S
H858 C844 0.961 . S
H859 C845 0.958 . S
H860 C845 0.961 . S
H861 C845 0.960 . S
C862 C863 1.391 . S
C862 C864 1.394 . S
C862 H878 0.931 . S
C863 C862 1.391 . S
C863 C867 1.376 . S
C864 C862 1.394 . S
C864 C865 1.369 . S
C864 C868 1.531 . S
C865 C864 1.369 . S
C865 C866 1.410 . S
C865 C873 1.503 1_545 S
C866 C865 1.410 . S
C866 C867 1.392 . S
C866 C869 1.511 . S
C867 C863 1.376 . S
C867 C866 1.392 . S
C867 H879 0.929 . S
C868 C864 1.531 . S
C868 H880 0.960 1_545 S
C868 H881 0.962 1_545 S
C868 H882 0.960 . S
C869 C866 1.511 . S
C869 H883 0.961 . S
C869 H884 0.961 . S
C869 H885 0.961 . S
C870 C871 1.370 . S
C870 C872 1.363 . S
C870 H886 0.931 . S
C871 C870 1.370 . S
C871 C875 1.408 . S
C872 C870 1.363 . S
C872 C873 1.370 . S
C872 C876 1.524 . S
C873 C865 1.503 1_565 S
C873 C872 1.370 . S
C873 C874 1.403 . S
C874 C873 1.403 . S
C874 C875 1.404 . S
C874 C877 1.539 . S
C875 C871 1.408 . S
C875 C874 1.404 . S
C875 H887 0.930 . S
C876 C872 1.524 . S
C876 H888 0.956 . S
C876 H889 0.961 1_565 S
C876 H890 0.961 . S
C877 C874 1.539 . S
C877 H891 0.958 . S
C877 H892 0.961 . S
C877 H893 0.960 1_565 S
H878 C862 0.931 . S
H879 C867 0.929 . S
H880 C868 0.960 1_565 S
H881 C868 0.962 1_565 S
H882 C868 0.960 . S
H883 C869 0.961 . S
H884 C869 0.961 . S
H885 C869 0.961 . S
H886 C870 0.931 . S
H887 C875 0.930 . S
H888 C876 0.956 . S
H889 C876 0.961 1_545 S
H890 C876 0.961 . S
H891 C877 0.958 . S
H892 C877 0.961 . S
H893 C877 0.960 1_545 S
C894 C895 1.391 . S
C894 C896 1.394 . S
C894 H910 0.931 . S
C895 C894 1.391 . S
C895 C899 1.376 . S
C896 C894 1.394 . S
C896 C897 1.369 . S
C896 C900 1.531 . S
C897 C896 1.369 . S
C897 C898 1.410 . S
C897 C905 1.503 . S
C898 C897 1.410 . S
C898 C899 1.392 . S
C898 C901 1.511 . S
C899 C895 1.376 . S
C899 C898 1.392 . S
C899 H911 0.929 . S
C900 C896 1.531 . S
C900 H912 0.960 . S
C900 H913 0.962 . S
C900 H914 0.960 . S
C901 C898 1.511 . S
C901 H915 0.961 . S
C901 H916 0.961 . S
C901 H917 0.961 . S
C902 C903 1.370 . S
C902 C904 1.363 . S
C902 H918 0.931 . S
C903 C902 1.370 . S
C903 C907 1.408 . S
C904 C902 1.363 . S
C904 C905 1.370 . S
C904 C908 1.524 . S
C905 C897 1.503 . S
C905 C904 1.370 . S
C905 C906 1.403 . S
C906 C905 1.403 . S
C906 C907 1.404 . S
C906 C909 1.539 . S
C907 C903 1.408 . S
C907 C906 1.404 . S
C907 H919 0.930 . S
C908 C904 1.524 . S
C908 H920 0.956 . S
C908 H921 0.961 . S
C908 H922 0.961 . S
C909 C906 1.539 . S
C909 H923 0.958 . S
C909 H924 0.961 . S
C909 H925 0.960 . S
H910 C894 0.931 . S
H911 C899 0.929 . S
H912 C900 0.960 . S
H913 C900 0.962 . S
H914 C900 0.960 . S
H915 C901 0.961 . S
H916 C901 0.961 . S
H917 C901 0.961 . S
H918 C902 0.931 . S
H919 C907 0.930 . S
H920 C908 0.956 . S
H921 C908 0.961 . S
H922 C908 0.961 . S
H923 C909 0.958 . S
H924 C909 0.961 . S
H925 C909 0.960 . S
C926 C927 1.391 . S
C926 C928 1.394 . S
C926 H942 0.931 . S
C927 C926 1.391 . S
C927 C931 1.376 . S
C928 C926 1.394 . S
C928 C929 1.369 . S
C928 C932 1.531 . S
C929 C928 1.369 . S
C929 C930 1.410 . S
C929 C937 1.503 . S
C930 C929 1.410 . S
C930 C931 1.392 . S
C930 C933 1.511 . S
C931 C927 1.376 . S
C931 C930 1.392 . S
C931 H943 0.929 . S
C932 C928 1.531 . S
C932 H944 0.960 . S
C932 H945 0.962 . S
C932 H946 0.960 . S
C933 C930 1.511 . S
C933 H947 0.961 . S
C933 H948 0.961 . S
C933 H949 0.961 . S
C934 C935 1.370 . S
C934 C936 1.363 . S
C934 H950 0.931 . S
C935 C934 1.370 . S
C935 C939 1.408 . S
C936 C934 1.363 . S
C936 C937 1.370 . S
C936 C940 1.524 . S
C937 C929 1.503 . S
C937 C936 1.370 . S
C937 C938 1.403 . S
C938 C937 1.403 . S
C938 C939 1.404 . S
C938 C941 1.539 . S
C939 C935 1.408 . S
C939 C938 1.404 . S
C939 H951 0.930 . S
C940 C936 1.524 . S
C940 H952 0.956 . S
C940 H953 0.961 . S
C940 H954 0.961 . S
C941 C938 1.539 . S
C941 H955 0.958 . S
C941 H956 0.961 . S
C941 H957 0.960 . S
H942 C926 0.931 . S
H943 C931 0.929 . S
H944 C932 0.960 . S
H945 C932 0.962 . S
H946 C932 0.960 . S
H947 C933 0.961 . S
H948 C933 0.961 . S
H949 C933 0.961 . S
H950 C934 0.931 . S
H951 C939 0.930 . S
H952 C940 0.956 . S
H953 C940 0.961 . S
H954 C940 0.961 . S
H955 C941 0.958 . S
H956 C941 0.961 . S
H957 C941 0.960 . S
C958 C959 1.391 . S
C958 C960 1.394 . S
C958 H974 0.931 . S
C959 C958 1.391 . S
C959 C963 1.376 . S
C960 C958 1.394 . S
C960 C961 1.369 . S
C960 C964 1.531 . S
C961 C960 1.369 . S
C961 C962 1.410 . S
C961 C969 1.503 . S
C962 C961 1.410 . S
C962 C963 1.392 . S
C962 C965 1.511 . S
C963 C959 1.376 . S
C963 C962 1.392 . S
C963 H975 0.929 . S
C964 C960 1.531 . S
C964 H976 0.960 . S
C964 H977 0.962 . S
C964 H978 0.960 . S
C965 C962 1.511 . S
C965 H979 0.961 . S
C965 H980 0.961 . S
C965 H981 0.961 . S
C966 C967 1.370 . S
C966 C968 1.363 . S
C966 H982 0.931 . S
C967 C966 1.370 . S
C967 C971 1.408 . S
C968 C966 1.363 . S
C968 C969 1.370 . S
C968 C972 1.524 . S
C969 C961 1.503 . S
C969 C968 1.370 . S
C969 C970 1.403 . S
C970 C969 1.403 . S
C970 C971 1.404 . S
C970 C973 1.539 . S
C971 C967 1.408 . S
C971 C970 1.404 . S
C971 H983 0.930 . S
C972 C968 1.524 . S
C972 H984 0.956 . S
C972 H985 0.961 . S
C972 H986 0.961 . S
C973 C970 1.539 . S
C973 H987 0.958 . S
C973 H988 0.961 . S
C973 H989 0.960 . S
H974 C958 0.931 . S
H975 C963 0.929 . S
H976 C964 0.960 . S
H977 C964 0.962 . S
H978 C964 0.960 . S
H979 C965 0.961 . S
H980 C965 0.961 . S
H981 C965 0.961 . S
H982 C966 0.931 . S
H983 C971 0.930 . S
H984 C972 0.956 . S
H985 C972 0.961 . S
H986 C972 0.961 . S
H987 C973 0.958 . S
H988 C973 0.961 . S
H989 C973 0.960 . S
C990 C991 1.391 . S
C990 C992 1.394 . S
C990 H1006 0.931 . S
C991 C990 1.391 . S
C991 C995 1.376 . S
C992 C990 1.394 . S
C992 C993 1.369 . S
C992 C996 1.531 . S
C993 C992 1.369 . S
C993 C994 1.410 . S
C993 C1001 1.503 . S
C994 C993 1.410 . S
C994 C995 1.392 . S
C994 C997 1.511 . S
C995 C991 1.376 . S
C995 C994 1.392 . S
C995 H1007 0.929 . S
C996 C992 1.531 . S
C996 H1008 0.960 . S
C996 H1009 0.962 . S
C996 H1010 0.960 . S
C997 C994 1.511 . S
C997 H1011 0.961 . S
C997 H1012 0.961 . S
C997 H1013 0.961 . S
C998 C999 1.370 . S
C998 C1000 1.363 . S
C998 H1014 0.931 . S
C999 C998 1.370 . S
C999 C1003 1.408 . S
C1000 C998 1.363 . S
C1000 C1001 1.370 . S
C1000 C1004 1.524 . S
C1001 C993 1.503 . S
C1001 C1000 1.370 . S
C1001 C1002 1.403 . S
C1002 C1001 1.403 . S
C1002 C1003 1.404 . S
C1002 C1005 1.539 . S
C1003 C999 1.408 . S
C1003 C1002 1.404 . S
C1003 H1015 0.930 . S
C1004 C1000 1.524 . S
C1004 H1016 0.956 . S
C1004 H1017 0.961 . S
C1004 H1018 0.961 . S
C1005 C1002 1.539 . S
C1005 H1019 0.958 . S
C1005 H1020 0.961 . S
C1005 H1021 0.960 . S
H1006 C990 0.931 . S
H1007 C995 0.929 . S
H1008 C996 0.960 . S
H1009 C996 0.962 . S
H1010 C996 0.960 . S
H1011 C997 0.961 . S
H1012 C997 0.961 . S
H1013 C997 0.961 . S
H1014 C998 0.931 . S
H1015 C1003 0.930 . S
H1016 C1004 0.956 . S
H1017 C1004 0.961 . S
H1018 C1004 0.961 . S
H1019 C1005 0.958 . S
H1020 C1005 0.961 . S
H1021 C1005 0.960 . S
C1022 C1023 1.391 . S
C1022 C1024 1.394 . S
C1022 H1038 0.931 . S
C1023 C1022 1.391 . S
C1023 C1027 1.376 . S
C1024 C1022 1.394 . S
C1024 C1025 1.369 . S
C1024 C1028 1.531 . S
C1025 C1024 1.369 . S
C1025 C1026 1.410 . S
C1025 C1033 1.503 . S
C1026 C1025 1.410 . S
C1026 C1027 1.392 . S
C1026 C1029 1.511 . S
C1027 C1023 1.376 . S
C1027 C1026 1.392 . S
C1027 H1039 0.929 . S
C1028 C1024 1.531 . S
C1028 H1040 0.960 . S
C1028 H1041 0.962 . S
C1028 H1042 0.960 . S
C1029 C1026 1.511 . S
C1029 H1043 0.961 . S
C1029 H1044 0.961 . S
C1029 H1045 0.961 . S
C1030 C1031 1.370 . S
C1030 C1032 1.363 . S
C1030 H1046 0.931 . S
C1031 C1030 1.370 . S
C1031 C1035 1.408 . S
C1032 C1030 1.363 . S
C1032 C1033 1.370 . S
C1032 C1036 1.524 . S
C1033 C1025 1.503 . S
C1033 C1032 1.370 . S
C1033 C1034 1.403 . S
C1034 C1033 1.403 . S
C1034 C1035 1.404 . S
C1034 C1037 1.539 . S
C1035 C1031 1.408 . S
C1035 C1034 1.404 . S
C1035 H1047 0.930 . S
C1036 C1032 1.524 . S
C1036 H1048 0.956 . S
C1036 H1049 0.961 . S
C1036 H1050 0.961 . S
C1037 C1034 1.539 . S
C1037 H1051 0.958 . S
C1037 H1052 0.961 . S
C1037 H1053 0.960 . S
H1038 C1022 0.931 . S
H1039 C1027 0.929 . S
H1040 C1028 0.960 . S
H1041 C1028 0.962 . S
H1042 C1028 0.960 . S
H1043 C1029 0.961 . S
H1044 C1029 0.961 . S
H1045 C1029 0.961 . S
H1046 C1030 0.931 . S
H1047 C1035 0.930 . S
H1048 C1036 0.956 . S
H1049 C1036 0.961 . S
H1050 C1036 0.961 . S
H1051 C1037 0.958 . S
H1052 C1037 0.961 . S
H1053 C1037 0.960 . S
C1054 C1055 1.391 . S
C1054 C1056 1.394 . S
C1054 H1070 0.931 . S
C1055 C1054 1.391 . S
C1055 C1059 1.376 . S
C1056 C1054 1.394 . S
C1056 C1057 1.369 . S
C1056 C1060 1.531 . S
C1057 C1056 1.369 . S
C1057 C1058 1.410 . S
C1057 C1065 1.503 . S
C1058 C1057 1.410 . S
C1058 C1059 1.392 . S
C1058 C1061 1.511 . S
C1059 C1055 1.376 . S
C1059 C1058 1.392 . S
C1059 H1071 0.929 . S
C1060 C1056 1.531 . S
C1060 H1072 0.960 . S
C1060 H1073 0.962 . S
C1060 H1074 0.960 . S
C1061 C1058 1.511 . S
C1061 H1075 0.961 . S
C1061 H1076 0.961 . S
C1061 H1077 0.961 . S
C1062 C1063 1.370 . S
C1062 C1064 1.363 . S
C1062 H1078 0.931 . S
C1063 C1062 1.370 . S
C1063 C1067 1.408 . S
C1064 C1062 1.363 . S
C1064 C1065 1.370 . S
C1064 C1068 1.524 . S
C1065 C1057 1.503 . S
C1065 C1064 1.370 . S
C1065 C1066 1.403 . S
C1066 C1065 1.403 . S
C1066 C1067 1.404 . S
C1066 C1069 1.539 . S
C1067 C1063 1.408 . S
C1067 C1066 1.404 . S
C1067 H1079 0.930 . S
C1068 C1064 1.524 . S
C1068 H1080 0.956 . S
C1068 H1081 0.961 . S
C1068 H1082 0.961 . S
C1069 C1066 1.539 . S
C1069 H1083 0.958 . S
C1069 H1084 0.961 . S
C1069 H1085 0.960 . S
H1070 C1054 0.931 . S
H1071 C1059 0.929 . S
H1072 C1060 0.960 . S
H1073 C1060 0.962 . S
H1074 C1060 0.960 . S
H1075 C1061 0.961 . S
H1076 C1061 0.961 . S
H1077 C1061 0.961 . S
H1078 C1062 0.931 . S
H1079 C1067 0.930 . S
H1080 C1068 0.956 . S
H1081 C1068 0.961 . S
H1082 C1068 0.961 . S
H1083 C1069 0.958 . S
H1084 C1069 0.961 . S
H1085 C1069 0.960 . S
C1086 C1087 1.391 . S
C1086 C1088 1.394 1_545 S
C1086 H1102 0.931 . S
C1087 C1086 1.391 . S
C1087 C1091 1.376 . S
C1088 C1086 1.394 1_565 S
C1088 C1089 1.369 . S
C1088 C1092 1.531 . S
C1089 C1088 1.369 . S
C1089 C1090 1.410 . S
C1089 C1097 1.503 . S
C1090 C1089 1.410 . S
C1090 C1091 1.392 1_565 S
C1090 C1093 1.511 . S
C1091 C1087 1.376 . S
C1091 C1090 1.392 1_545 S
C1091 H1103 0.929 . S
C1092 C1088 1.531 . S
C1092 H1104 0.960 . S
C1092 H1105 0.962 . S
C1092 H1106 0.960 . S
C1093 C1090 1.511 . S
C1093 H1107 0.941 1_565 S
C1093 H1108 0.961 . S
C1093 H1109 0.961 . S
C1094 C1095 1.370 . S
C1094 C1096 1.363 . S
C1094 H1110 0.931 . S
C1095 C1094 1.370 . S
C1095 C1099 1.408 . S
C1096 C1094 1.363 . S
C1096 C1097 1.370 . S
C1096 C1100 1.524 . S
C1097 C1089 1.503 . S
C1097 C1096 1.370 . S
C1097 C1098 1.403 . S
C1098 C1097 1.403 . S
C1098 C1099 1.404 . S
C1098 C1101 1.539 . S
C1099 C1095 1.408 . S
C1099 C1098 1.404 . S
C1099 H1111 0.930 . S
C1100 C1096 1.524 . S
C1100 H1112 0.956 . S
C1100 H1113 0.961 . S
C1100 H1114 0.961 . S
C1101 C1098 1.539 . S
C1101 H1115 0.958 . S
C1101 H1116 0.961 . S
C1101 H1117 0.960 . S
H1102 C1086 0.931 . S
H1103 C1091 0.929 . S
H1104 C1092 0.960 . S
H1105 C1092 0.962 . S
H1106 C1092 0.960 . S
H1107 C1093 0.941 1_545 S
H1108 C1093 0.961 . S
H1109 C1093 0.961 . S
H1110 C1094 0.931 . S
H1111 C1099 0.930 . S
H1112 C1100 0.956 . S
H1113 C1100 0.961 . S
H1114 C1100 0.961 . S
H1115 C1101 0.958 . S
H1116 C1101 0.961 . S
H1117 C1101 0.960 . S
C1118 C1119 1.391 . S
C1118 C1120 1.394 1_655 S
C1118 H1134 0.931 . S
C1119 C1118 1.391 . S
C1119 C1123 1.376 . S
C1120 C1118 1.394 1_455 S
C1120 C1121 1.369 . S
C1120 C1124 1.531 . S
C1121 C1120 1.369 . S
C1121 C1122 1.410 . S
C1121 C1129 1.503 . S
C1122 C1121 1.410 . S
C1122 C1123 1.392 1_455 S
C1122 C1125 1.511 . S
C1123 C1119 1.376 . S
C1123 C1122 1.392 1_655 S
C1123 H1135 0.929 . S
C1124 C1120 1.531 . S
C1124 H1136 0.960 . S
C1124 H1137 0.962 . S
C1124 H1138 0.960 1_455 S
C1125 C1122 1.511 . S
C1125 H1139 0.961 . S
C1125 H1140 0.961 . S
C1125 H1141 0.961 . S
C1126 C1127 1.370 . S
C1126 C1128 1.363 . S
C1126 H1142 0.931 . S
C1127 C1126 1.370 . S
C1127 C1131 1.408 . S
C1128 C1126 1.363 . S
C1128 C1129 1.370 . S
C1128 C1132 1.524 . S
C1129 C1121 1.503 . S
C1129 C1128 1.370 . S
C1129 C1130 1.403 . S
C1130 C1129 1.403 . S
C1130 C1131 1.404 . S
C1130 C1133 1.539 . S
C1131 C1127 1.408 . S
C1131 C1130 1.404 . S
C1131 H1143 0.930 . S
C1132 C1128 1.524 . S
C1132 H1144 0.956 . S
C1132 H1145 0.961 . S
C1132 H1146 0.961 . S
C1133 C1130 1.539 . S
C1133 H1147 0.958 . S
C1133 H1148 0.961 . S
C1133 H1149 0.960 . S
H1134 C1118 0.931 . S
H1135 C1123 0.929 . S
H1136 C1124 0.960 . S
H1137 C1124 0.962 . S
H1138 C1124 0.960 1_655 S
H1139 C1125 0.961 . S
H1140 C1125 0.961 . S
H1141 C1125 0.961 . S
H1142 C1126 0.931 . S
H1143 C1131 0.930 . S
H1144 C1132 0.956 . S
H1145 C1132 0.961 . S
H1146 C1132 0.961 . S
H1147 C1133 0.958 . S
H1148 C1133 0.961 . S
H1149 C1133 0.960 . S
C1150 C1151 1.391 . S
C1150 C1152 1.394 . S
C1150 H1166 0.931 . S
C1151 C1150 1.391 . S
C1151 C1155 1.376 . S
C1152 C1150 1.394 . S
C1152 C1153 1.369 . S
C1152 C1156 1.531 . S
C1153 C1152 1.369 . S
C1153 C1154 1.410 . S
C1153 C1161 1.503 . S
C1154 C1153 1.410 . S
C1154 C1155 1.392 . S
C1154 C1157 1.511 . S
C1155 C1151 1.376 . S
C1155 C1154 1.392 . S
C1155 H1167 0.929 . S
C1156 C1152 1.531 . S
C1156 H1168 0.960 . S
C1156 H1169 0.962 . S
C1156 H1170 0.960 . S
C1157 C1154 1.511 . S
C1157 H1171 0.961 . S
C1157 H1172 0.961 . S
C1157 H1173 0.961 . S
C1158 C1159 1.370 . S
C1158 C1160 1.363 . S
C1158 H1174 0.931 . S
C1159 C1158 1.370 . S
C1159 C1163 1.408 . S
C1160 C1158 1.363 . S
C1160 C1161 1.370 . S
C1160 C1164 1.524 . S
C1161 C1153 1.503 . S
C1161 C1160 1.370 . S
C1161 C1162 1.403 . S
C1162 C1161 1.403 . S
C1162 C1163 1.404 . S
C1162 C1165 1.539 . S
C1163 C1159 1.408 . S
C1163 C1162 1.404 . S
C1163 H1175 0.930 . S
C1164 C1160 1.524 . S
C1164 H1176 0.956 . S
C1164 H1177 0.961 . S
C1164 H1178 0.961 . S
C1165 C1162 1.539 . S
C1165 H1179 0.958 . S
C1165 H1180 0.961 . S
C1165 H1181 0.960 . S
H1166 C1150 0.931 . S
H1167 C1155 0.929 . S
H1168 C1156 0.960 . S
H1169 C1156 0.962 . S
H1170 C1156 0.960 . S
H1171 C1157 0.961 . S
H1172 C1157 0.961 . S
H1173 C1157 0.961 . S
H1174 C1158 0.931 . S
H1175 C1163 0.930 . S
H1176 C1164 0.956 . S
H1177 C1164 0.961 . S
H1178 C1164 0.961 . S
H1179 C1165 0.958 . S
H1180 C1165 0.961 . S
H1181 C1165 0.960 . S
C1182 C1183 1.391 . S
C1182 C1184 1.394 . S
C1182 H1198 0.931 . S
C1183 C1182 1.391 . S
C1183 C1187 1.376 . S
C1184 C1182 1.394 . S
C1184 C1185 1.369 . S
C1184 C1188 1.531 . S
C1185 C1184 1.369 . S
C1185 C1186 1.410 . S
C1185 C1193 1.503 . S
C1186 C1185 1.410 . S
C1186 C1187 1.392 . S
C1186 C1189 1.511 . S
C1187 C1183 1.376 . S
C1187 C1186 1.392 . S
C1187 H1199 0.929 . S
C1188 C1184 1.531 . S
C1188 H1200 0.960 . S
C1188 H1201 0.962 . S
C1188 H1202 0.960 . S
C1189 C1186 1.511 . S
C1189 H1203 0.961 . S
C1189 H1204 0.961 . S
C1189 H1205 0.961 . S
C1190 C1191 1.370 . S
C1190 C1192 1.363 . S
C1190 H1206 0.931 . S
C1191 C1190 1.370 . S
C1191 C1195 1.408 . S
C1192 C1190 1.363 . S
C1192 C1193 1.370 . S
C1192 C1196 1.524 . S
C1193 C1185 1.503 . S
C1193 C1192 1.370 . S
C1193 C1194 1.403 . S
C1194 C1193 1.403 . S
C1194 C1195 1.404 . S
C1194 C1197 1.539 . S
C1195 C1191 1.408 . S
C1195 C1194 1.404 . S
C1195 H1207 0.930 . S
C1196 C1192 1.524 . S
C1196 H1208 0.956 . S
C1196 H1209 0.961 . S
C1196 H1210 0.961 . S
C1197 C1194 1.539 . S
C1197 H1211 0.958 . S
C1197 H1212 0.961 . S
C1197 H1213 0.960 . S
H1198 C1182 0.931 . S
H1199 C1187 0.929 . S
H1200 C1188 0.960 . S
H1201 C1188 0.962 . S
H1202 C1188 0.960 . S
H1203 C1189 0.961 . S
H1204 C1189 0.961 . S
H1205 C1189 0.961 . S
H1206 C1190 0.931 . S
H1207 C1195 0.930 . S
H1208 C1196 0.956 . S
H1209 C1196 0.961 . S
H1210 C1196 0.961 . S
H1211 C1197 0.958 . S
H1212 C1197 0.961 . S
H1213 C1197 0.960 . S
C1214 C1215 1.391 . S
C1214 C1216 1.394 . S
C1214 H1230 0.931 . S
C1215 C1214 1.391 . S
C1215 C1219 1.376 . S
C1216 C1214 1.394 . S
C1216 C1217 1.369 . S
C1216 C1220 1.531 . S
C1217 C1216 1.369 . S
C1217 C1218 1.410 . S
C1217 C1225 1.503 . S
C1218 C1217 1.410 . S
C1218 C1219 1.392 . S
C1218 C1221 1.511 . S
C1219 C1215 1.376 . S
C1219 C1218 1.392 . S
C1219 H1231 0.929 . S
C1220 C1216 1.531 . S
C1220 H1232 0.960 . S
C1220 H1233 0.962 . S
C1220 H1234 0.960 . S
C1221 C1218 1.511 . S
C1221 H1235 0.961 . S
C1221 H1236 0.961 . S
C1221 H1237 0.961 . S
C1222 C1223 1.370 . S
C1222 C1224 1.363 . S
C1222 H1238 0.931 . S
C1223 C1222 1.370 . S
C1223 C1227 1.408 . S
C1224 C1222 1.363 . S
C1224 C1225 1.370 . S
C1224 C1228 1.524 . S
C1225 C1217 1.503 . S
C1225 C1224 1.370 . S
C1225 C1226 1.403 . S
C1226 C1225 1.403 . S
C1226 C1227 1.404 . S
C1226 C1229 1.539 . S
C1227 C1223 1.408 . S
C1227 C1226 1.404 . S
C1227 H1239 0.930 . S
C1228 C1224 1.524 . S
C1228 H1240 0.956 . S
C1228 H1241 0.961 . S
C1228 H1242 0.961 . S
C1229 C1226 1.539 . S
C1229 H1243 0.958 . S
C1229 H1244 0.961 . S
C1229 H1245 0.960 . S
H1230 C1214 0.931 . S
H1231 C1219 0.929 . S
H1232 C1220 0.960 . S
H1233 C1220 0.962 . S
H1234 C1220 0.960 . S
H1235 C1221 0.961 . S
H1236 C1221 0.961 . S
H1237 C1221 0.961 . S
H1238 C1222 0.931 . S
H1239 C1227 0.930 . S
H1240 C1228 0.956 . S
H1241 C1228 0.961 . S
H1242 C1228 0.961 . S
H1243 C1229 0.958 . S
H1244 C1229 0.961 . S
H1245 C1229 0.960 . S
C1246 C1247 1.391 . S
C1246 C1248 1.394 . S
C1246 H1262 0.931 . S
C1247 C1246 1.391 . S
C1247 C1251 1.376 . S
C1248 C1246 1.394 . S
C1248 C1249 1.369 . S
C1248 C1252 1.531 . S
C1249 C1248 1.369 . S
C1249 C1250 1.410 . S
C1249 C1257 1.503 . S
C1250 C1249 1.410 . S
C1250 C1251 1.392 . S
C1250 C1253 1.511 . S
C1251 C1247 1.376 . S
C1251 C1250 1.392 . S
C1251 H1263 0.929 . S
C1252 C1248 1.531 . S
C1252 H1264 0.960 . S
C1252 H1265 0.962 . S
C1252 H1266 0.960 . S
C1253 C1250 1.511 . S
C1253 H1267 0.961 . S
C1253 H1268 0.961 . S
C1253 H1269 0.961 . S
C1254 C1255 1.370 . S
C1254 C1256 1.363 . S
C1254 H1270 0.931 . S
C1255 C1254 1.370 . S
C1255 C1259 1.408 . S
C1256 C1254 1.363 . S
C1256 C1257 1.370 . S
C1256 C1260 1.524 . S
C1257 C1249 1.503 . S
C1257 C1256 1.370 . S
C1257 C1258 1.403 . S
C1258 C1257 1.403 . S
C1258 C1259 1.404 . S
C1258 C1261 1.539 . S
C1259 C1255 1.408 . S
C1259 C1258 1.404 . S
C1259 H1271 0.930 . S
C1260 C1256 1.524 . S
C1260 H1272 0.956 . S
C1260 H1273 0.961 . S
C1260 H1274 0.961 . S
C1261 C1258 1.539 . S
C1261 H1275 0.958 . S
C1261 H1276 0.961 . S
C1261 H1277 0.960 . S
H1262 C1246 0.931 . S
H1263 C1251 0.929 . S
H1264 C1252 0.960 . S
H1265 C1252 0.962 . S
H1266 C1252 0.960 . S
H1267 C1253 0.961 . S
H1268 C1253 0.961 . S
H1269 C1253 0.961 . S
H1270 C1254 0.931 . S
H1271 C1259 0.930 . S
H1272 C1260 0.956 . S
H1273 C1260 0.961 . S
H1274 C1260 0.961 . S
H1275 C1261 0.958 . S
H1276 C1261 0.961 . S
H1277 C1261 0.960 . S
C1278 C1279 1.391 . S
C1278 C1280 1.394 . S
C1278 H1294 0.931 . S
C1279 C1278 1.391 . S
C1279 C1283 1.376 . S
C1280 C1278 1.394 . S
C1280 C1281 1.369 . S
C1280 C1284 1.531 . S
C1281 C1280 1.369 . S
C1281 C1282 1.410 . S
C1281 C1289 1.503 1_565 S
C1282 C1281 1.410 . S
C1282 C1283 1.392 . S
C1282 C1285 1.511 1_565 S
C1283 C1279 1.376 . S
C1283 C1282 1.392 . S
C1283 H1295 0.929 . S
C1284 C1280 1.531 . S
C1284 H1296 0.960 . S
C1284 H1297 0.962 . S
C1284 H1298 0.960 . S
C1285 C1282 1.511 1_545 S
C1285 H1299 0.961 . S
C1285 H1300 0.961 . S
C1285 H1301 0.961 . S
C1286 C1287 1.370 . S
C1286 C1288 1.363 . S
C1286 H1302 0.931 . S
C1287 C1286 1.370 . S
C1287 C1291 1.408 . S
C1288 C1286 1.363 . S
C1288 C1289 1.370 . S
C1288 C1292 1.524 . S
C1289 C1281 1.503 1_545 S
C1289 C1288 1.370 . S
C1289 C1290 1.403 . S
C1290 C1289 1.403 . S
C1290 C1291 1.404 . S
C1290 C1293 1.539 . S
C1291 C1287 1.408 . S
C1291 C1290 1.404 . S
C1291 H1303 0.930 . S
C1292 C1288 1.524 . S
C1292 H1304 0.956 1_545 S
C1292 H1305 0.961 . S
C1292 H1306 0.961 . S
C1293 C1290 1.539 . S
C1293 H1307 0.958 . S
C1293 H1308 0.961 . S
C1293 H1309 0.960 . S
H1294 C1278 0.931 . S
H1295 C1283 0.929 . S
H1296 C1284 0.960 . S
H1297 C1284 0.962 . S
H1298 C1284 0.960 . S
H1299 C1285 0.961 . S
H1300 C1285 0.961 . S
H1301 C1285 0.961 . S
H1302 C1286 0.931 . S
H1303 C1291 0.930 . S
H1304 C1292 0.956 1_565 S
H1305 C1292 0.961 . S
H1306 C1292 0.961 . S
H1307 C1293 0.958 . S
H1308 C1293 0.961 . S
H1309 C1293 0.960 . S
C1310 C1311 1.391 . S
C1310 C1312 1.394 . S
C1310 H1326 0.931 . S
C1311 C1310 1.391 . S
C1311 C1315 1.376 . S
C1312 C1310 1.394 . S
C1312 C1313 1.369 . S
C1312 C1316 1.531 . S
C1313 C1312 1.369 . S
C1313 C1314 1.410 . S
C1313 C1321 1.503 1_455 S
C1314 C1313 1.410 . S
C1314 C1315 1.392 . S
C1314 C1317 1.511 1_455 S
C1315 C1311 1.376 . S
C1315 C1314 1.392 . S
C1315 H1327 0.929 . S
C1316 C1312 1.531 . S
C1316 H1328 0.960 . S
C1316 H1329 0.962 . S
C1316 H1330 0.960 . S
C1317 C1314 1.511 1_655 S
C1317 H1331 0.961 1_655 S
C1317 H1332 0.961 . S
C1317 H1333 0.961 . S
C1318 C1319 1.370 . S
C1318 C1320 1.363 . S
C1318 H1334 0.931 . S
C1319 C1318 1.370 . S
C1319 C1323 1.408 . S
C1320 C1318 1.363 . S
C1320 C1321 1.370 . S
C1320 C1324 1.524 1_655 S
C1321 C1313 1.503 1_655 S
C1321 C1320 1.370 . S
C1321 C1322 1.403 . S
C1322 C1321 1.403 . S
C1322 C1323 1.404 . S
C1322 C1325 1.539 . S
C1323 C1319 1.408 . S
C1323 C1322 1.404 . S
C1323 H1335 0.930 . S
C1324 C1320 1.524 1_455 S
C1324 H1336 0.956 . S
C1324 H1337 0.961 . S
C1324 H1338 0.961 . S
C1325 C1322 1.539 . S
C1325 H1339 0.958 . S
C1325 H1340 0.961 . S
C1325 H1341 0.960 . S
H1326 C1310 0.931 . S
H1327 C1315 0.929 . S
H1328 C1316 0.960 . S
H1329 C1316 0.962 . S
H1330 C1316 0.960 . S
H1331 C1317 0.961 1_455 S
H1332 C1317 0.961 . S
H1333 C1317 0.961 . S
H1334 C1318 0.931 . S
H1335 C1323 0.930 . S
H1336 C1324 0.956 . S
H1337 C1324 0.961 . S
H1338 C1324 0.961 . S
H1339 C1325 0.958 . S
H1340 C1325 0.961 . S
H1341 C1325 0.960 . S
C1342 C1343 1.391 . S
C1342 C1344 1.394 . S
C1342 H1358 0.931 . S
C1343 C1342 1.391 . S
C1343 C1347 1.376 . S
C1344 C1342 1.394 . S
C1344 C1345 1.369 . S
C1344 C1348 1.531 . S
C1345 C1344 1.369 . S
C1345 C1346 1.410 . S
C1345 C1353 1.503 . S
C1346 C1345 1.410 . S
C1346 C1347 1.392 . S
C1346 C1349 1.511 . S
C1347 C1343 1.376 . S
C1347 C1346 1.392 . S
C1347 H1359 0.929 . S
C1348 C1344 1.531 . S
C1348 H1360 0.960 . S
C1348 H1361 0.962 . S
C1348 H1362 0.960 . S
C1349 C1346 1.511 . S
C1349 H1363 0.961 . S
C1349 H1364 0.961 . S
C1349 H1365 0.961 . S
C1350 C1351 1.370 . S
C1350 C1352 1.363 . S
C1350 H1366 0.931 . S
C1351 C1350 1.370 . S
C1351 C1355 1.408 . S
C1352 C1350 1.363 . S
C1352 C1353 1.370 . S
C1352 C1356 1.524 . S
C1353 C1345 1.503 . S
C1353 C1352 1.370 . S
C1353 C1354 1.403 . S
C1354 C1353 1.403 . S
C1354 C1355 1.404 . S
C1354 C1357 1.539 . S
C1355 C1351 1.408 . S
C1355 C1354 1.404 . S
C1355 H1367 0.930 . S
C1356 C1352 1.524 . S
C1356 H1368 0.956 . S
C1356 H1369 0.961 . S
C1356 H1370 0.961 . S
C1357 C1354 1.539 . S
C1357 H1371 0.958 . S
C1357 H1372 0.961 . S
C1357 H1373 0.960 . S
H1358 C1342 0.931 . S
H1359 C1347 0.929 . S
H1360 C1348 0.960 . S
H1361 C1348 0.962 . S
H1362 C1348 0.960 . S
H1363 C1349 0.961 . S
H1364 C1349 0.961 . S
H1365 C1349 0.961 . S
H1366 C1350 0.931 . S
H1367 C1355 0.930 . S
H1368 C1356 0.956 . S
H1369 C1356 0.961 . S
H1370 C1356 0.961 . S
H1371 C1357 0.958 . S
H1372 C1357 0.961 . S
H1373 C1357 0.960 . S
C1374 C1375 1.391 . S
C1374 C1376 1.428 . S
C1374 H1390 0.931 . S
C1375 C1374 1.391 . S
C1375 C1379 1.376 . S
C1376 C1374 1.428 . S
C1376 C1377 1.366 1_455 S
C1376 C1380 1.500 1_455 S
C1377 C1376 1.366 1_655 S
C1377 C1378 1.410 1_655 S
C1377 C1385 1.503 . S
C1378 C1377 1.410 1_455 S
C1378 C1379 1.392 . S
C1378 C1381 1.511 . S
C1379 C1375 1.376 . S
C1379 C1378 1.392 . S
C1379 H1391 0.929 . S
C1380 C1376 1.500 1_655 S
C1380 H1392 0.960 . S
C1380 H1393 0.962 . S
C1380 H1394 0.960 . S
C1381 C1378 1.511 . S
C1381 H1395 0.961 . S
C1381 H1396 0.961 1_455 S
C1381 H1397 0.961 . S
C1382 C1383 1.370 . S
C1382 C1384 1.363 . S
C1382 H1398 0.931 . S
C1383 C1382 1.370 . S
C1383 C1387 1.408 . S
C1384 C1382 1.363 . S
C1384 C1385 1.370 . S
C1384 C1388 1.524 . S
C1385 C1377 1.503 . S
C1385 C1384 1.370 . S
C1385 C1386 1.403 . S
C1386 C1385 1.403 . S
C1386 C1387 1.404 . S
C1386 C1389 1.539 . S
C1387 C1383 1.408 . S
C1387 C1386 1.404 . S
C1387 H1399 0.930 . S
C1388 C1384 1.524 . S
C1388 H1400 0.956 . S
C1388 H1401 0.961 . S
C1388 H1402 0.961 . S
C1389 C1386 1.539 . S
C1389 H1403 0.958 . S
C1389 H1404 0.961 . S
C1389 H1405 0.960 . S
H1390 C1374 0.931 . S
H1391 C1379 0.929 . S
H1392 C1380 0.960 . S
H1393 C1380 0.962 . S
H1394 C1380 0.960 . S
H1395 C1381 0.961 . S
H1396 C1381 0.961 1_655 S
H1397 C1381 0.961 . S
H1398 C1382 0.931 . S
H1399 C1387 0.930 . S
H1400 C1388 0.956 . S
H1401 C1388 0.961 . S
H1402 C1388 0.961 . S
H1403 C1389 0.958 . S
H1404 C1389 0.961 . S
H1405 C1389 0.960 . S
C1406 C1407 1.391 . S
C1406 C1408 1.394 . S
C1406 H1422 0.931 . S
C1407 C1406 1.391 . S
C1407 C1411 1.376 . S
C1408 C1406 1.394 . S
C1408 C1409 1.369 . S
C1408 C1412 1.531 . S
C1409 C1408 1.369 . S
C1409 C1410 1.410 . S
C1409 C1417 1.503 . S
C1410 C1409 1.410 . S
C1410 C1411 1.392 . S
C1410 C1413 1.511 . S
C1411 C1407 1.376 . S
C1411 C1410 1.392 . S
C1411 H1423 0.929 . S
C1412 C1408 1.531 . S
C1412 H1424 0.960 . S
C1412 H1425 0.962 . S
C1412 H1426 0.960 . S
C1413 C1410 1.511 . S
C1413 H1427 0.961 . S
C1413 H1428 0.961 . S
C1413 H1429 0.961 . S
C1414 C1415 1.370 . S
C1414 C1416 1.363 . S
C1414 H1430 0.931 . S
C1415 C1414 1.370 . S
C1415 C1419 1.408 . S
C1416 C1414 1.363 . S
C1416 C1417 1.370 . S
C1416 C1420 1.524 . S
C1417 C1409 1.503 . S
C1417 C1416 1.370 . S
C1417 C1418 1.403 . S
C1418 C1417 1.403 . S
C1418 C1419 1.404 . S
C1418 C1421 1.539 . S
C1419 C1415 1.408 . S
C1419 C1418 1.404 . S
C1419 H1431 0.930 . S
C1420 C1416 1.524 . S
C1420 H1432 0.956 . S
C1420 H1433 0.961 . S
C1420 H1434 0.961 . S
C1421 C1418 1.539 . S
C1421 H1435 0.958 . S
C1421 H1436 0.961 . S
C1421 H1437 0.960 . S
H1422 C1406 0.931 . S
H1423 C1411 0.929 . S
H1424 C1412 0.960 . S
H1425 C1412 0.962 . S
H1426 C1412 0.960 . S
H1427 C1413 0.961 . S
H1428 C1413 0.961 . S
H1429 C1413 0.961 . S
H1430 C1414 0.931 . S
H1431 C1419 0.930 . S
H1432 C1420 0.956 . S
H1433 C1420 0.961 . S
H1434 C1420 0.961 . S
H1435 C1421 0.958 . S
H1436 C1421 0.961 . S
H1437 C1421 0.960 . S
C1438 C1439 1.391 . S
C1438 C1440 1.394 1_565 S
C1438 H1454 0.931 . S
C1439 C1438 1.391 . S
C1439 C1443 1.376 . S
C1440 C1438 1.394 1_545 S
C1440 C1441 1.369 . S
C1440 C1444 1.531 . S
C1441 C1440 1.369 . S
C1441 C1442 1.410 . S
C1441 C1449 1.503 . S
C1442 C1441 1.410 . S
C1442 C1443 1.392 1_545 S
C1442 C1445 1.511 . S
C1443 C1439 1.376 . S
C1443 C1442 1.392 1_565 S
C1443 H1455 0.929 . S
C1444 C1440 1.531 . S
C1444 H1456 0.960 . S
C1444 H1457 0.962 . S
C1444 H1458 0.960 . S
C1445 C1442 1.511 . S
C1445 H1459 0.961 . S
C1445 H1460 0.961 . S
C1445 H1461 0.961 . S
C1446 C1447 1.370 . S
C1446 C1448 1.363 . S
C1446 H1462 0.931 . S
C1447 C1446 1.370 . S
C1447 C1451 1.408 . S
C1448 C1446 1.363 . S
C1448 C1449 1.370 . S
C1448 C1452 1.524 . S
C1449 C1441 1.503 . S
C1449 C1448 1.370 . S
C1449 C1450 1.403 . S
C1450 C1449 1.403 . S
C1450 C1451 1.404 . S
C1450 C1453 1.539 . S
C1451 C1447 1.408 . S
C1451 C1450 1.404 . S
C1451 H1463 0.930 . S
C1452 C1448 1.524 . S
C1452 H1464 0.956 . S
C1452 H1465 0.961 . S
C1452 H1466 0.961 . S
C1453 C1450 1.539 . S
C1453 H1467 0.958 . S
C1453 H1468 0.961 . S
C1453 H1469 0.960 . S
H1454 C1438 0.931 . S
H1455 C1443 0.929 . S
H1456 C1444 0.960 . S
H1457 C1444 0.962 . S
H1458 C1444 0.960 . S
H1459 C1445 0.961 . S
H1460 C1445 0.961 . S
H1461 C1445 0.961 . S
H1462 C1446 0.931 . S
H1463 C1451 0.930 . S
H1464 C1452 0.956 . S
H1465 C1452 0.961 . S
H1466 C1452 0.961 . S
H1467 C1453 0.958 . S
H1468 C1453 0.961 . S
H1469 C1453 0.960 . S
C1470 C1471 1.391 . S
C1470 C1472 1.394 . S
C1470 H1486 0.931 . S
C1471 C1470 1.391 . S
C1471 C1475 1.376 . S
C1472 C1470 1.394 . S
C1472 C1473 1.369 . S
C1472 C1476 1.531 . S
C1473 C1472 1.369 . S
C1473 C1474 1.410 . S
C1473 C1481 1.503 . S
C1474 C1473 1.410 . S
C1474 C1475 1.392 . S
C1474 C1477 1.511 . S
C1475 C1471 1.376 . S
C1475 C1474 1.392 . S
C1475 H1487 0.929 . S
C1476 C1472 1.531 . S
C1476 H1488 0.960 . S
C1476 H1489 0.962 . S
C1476 H1490 0.960 . S
C1477 C1474 1.511 . S
C1477 H1491 0.961 . S
C1477 H1492 0.961 . S
C1477 H1493 0.961 . S
C1478 C1479 1.370 . S
C1478 C1480 1.363 . S
C1478 H1494 0.931 . S
C1479 C1478 1.370 . S
C1479 C1483 1.408 . S
C1480 C1478 1.363 . S
C1480 C1481 1.370 . S
C1480 C1484 1.524 . S
C1481 C1473 1.503 . S
C1481 C1480 1.370 . S
C1481 C1482 1.403 . S
C1482 C1481 1.403 . S
C1482 C1483 1.404 . S
C1482 C1485 1.539 . S
C1483 C1479 1.408 . S
C1483 C1482 1.404 . S
C1483 H1495 0.930 . S
C1484 C1480 1.524 . S
C1484 H1496 0.956 . S
C1484 H1497 0.961 . S
C1484 H1498 0.961 . S
C1485 C1482 1.539 . S
C1485 H1499 0.958 . S
C1485 H1500 0.961 . S
C1485 H1501 0.960 . S
H1486 C1470 0.931 . S
H1487 C1475 0.929 . S
H1488 C1476 0.960 . S
H1489 C1476 0.962 . S
H1490 C1476 0.960 . S
H1491 C1477 0.961 . S
H1492 C1477 0.961 . S
H1493 C1477 0.961 . S
H1494 C1478 0.931 . S
H1495 C1483 0.930 . S
H1496 C1484 0.956 . S
H1497 C1484 0.961 . S
H1498 C1484 0.961 . S
H1499 C1485 0.958 . S
H1500 C1485 0.961 . S
H1501 C1485 0.960 . S
C1502 C1503 1.391 . S
C1502 C1504 1.394 . S
C1502 H1518 0.931 . S
C1503 C1502 1.391 . S
C1503 C1507 1.376 . S
C1504 C1502 1.394 . S
C1504 C1505 1.369 . S
C1504 C1508 1.531 . S
C1505 C1504 1.369 . S
C1505 C1506 1.410 . S
C1505 C1513 1.503 . S
C1506 C1505 1.410 . S
C1506 C1507 1.392 . S
C1506 C1509 1.511 . S
C1507 C1503 1.376 . S
C1507 C1506 1.392 . S
C1507 H1519 0.929 . S
C1508 C1504 1.531 . S
C1508 H1520 0.960 . S
C1508 H1521 0.962 . S
C1508 H1522 0.960 . S
C1509 C1506 1.511 . S
C1509 H1523 0.961 . S
C1509 H1524 0.961 . S
C1509 H1525 0.961 . S
C1510 C1511 1.370 . S
C1510 C1512 1.363 . S
C1510 H1526 0.931 . S
C1511 C1510 1.370 . S
C1511 C1515 1.408 . S
C1512 C1510 1.363 . S
C1512 C1513 1.370 . S
C1512 C1516 1.524 . S
C1513 C1505 1.503 . S
C1513 C1512 1.370 . S
C1513 C1514 1.403 . S
C1514 C1513 1.403 . S
C1514 C1515 1.404 . S
C1514 C1517 1.539 . S
C1515 C1511 1.408 . S
C1515 C1514 1.404 . S
C1515 H1527 0.930 . S
C1516 C1512 1.524 . S
C1516 H1528 0.956 . S
C1516 H1529 0.961 . S
C1516 H1530 0.961 . S
C1517 C1514 1.539 . S
C1517 H1531 0.958 . S
C1517 H1532 0.961 . S
C1517 H1533 0.960 . S
H1518 C1502 0.931 . S
H1519 C1507 0.929 . S
H1520 C1508 0.960 . S
H1521 C1508 0.962 . S
H1522 C1508 0.960 . S
H1523 C1509 0.961 . S
H1524 C1509 0.961 . S
H1525 C1509 0.961 . S
H1526 C1510 0.931 . S
H1527 C1515 0.930 . S
H1528 C1516 0.956 . S
H1529 C1516 0.961 . S
H1530 C1516 0.961 . S
H1531 C1517 0.958 . S
H1532 C1517 0.961 . S
H1533 C1517 0.960 . S
C1534 C1535 1.391 . S
C1534 C1536 1.394 . S
C1534 H1550 0.931 . S
C1535 C1534 1.391 . S
C1535 C1539 1.376 . S
C1536 C1534 1.394 . S
C1536 C1537 1.369 . S
C1536 C1540 1.531 . S
C1537 C1536 1.369 . S
C1537 C1538 1.410 . S
C1537 C1545 1.503 . S
C1538 C1537 1.410 . S
C1538 C1539 1.392 . S
C1538 C1541 1.511 . S
C1539 C1535 1.376 . S
C1539 C1538 1.392 . S
C1539 H1551 0.929 . S
C1540 C1536 1.531 . S
C1540 H1552 0.960 . S
C1540 H1553 0.962 . S
C1540 H1554 0.960 . S
C1541 C1538 1.511 . S
C1541 H1555 0.961 . S
C1541 H1556 0.961 . S
C1541 H1557 0.961 . S
C1542 C1543 1.370 . S
C1542 C1544 1.363 . S
C1542 H1558 0.931 . S
C1543 C1542 1.370 . S
C1543 C1547 1.408 . S
C1544 C1542 1.363 . S
C1544 C1545 1.370 . S
C1544 C1548 1.524 . S
C1545 C1537 1.503 . S
C1545 C1544 1.370 . S
C1545 C1546 1.403 . S
C1546 C1545 1.403 . S
C1546 C1547 1.404 . S
C1546 C1549 1.539 . S
C1547 C1543 1.408 . S
C1547 C1546 1.404 . S
C1547 H1559 0.930 . S
C1548 C1544 1.524 . S
C1548 H1560 0.956 . S
C1548 H1561 0.961 . S
C1548 H1562 0.961 . S
C1549 C1546 1.539 . S
C1549 H1563 0.958 . S
C1549 H1564 0.961 . S
C1549 H1565 0.960 . S
H1550 C1534 0.931 . S
H1551 C1539 0.929 . S
H1552 C1540 0.960 . S
H1553 C1540 0.962 . S
H1554 C1540 0.960 . S
H1555 C1541 0.961 . S
H1556 C1541 0.961 . S
H1557 C1541 0.961 . S
H1558 C1542 0.931 . S
H1559 C1547 0.930 . S
H1560 C1548 0.956 . S
H1561 C1548 0.961 . S
H1562 C1548 0.961 . S
H1563 C1549 0.958 . S
H1564 C1549 0.961 . S
H1565 C1549 0.960 . S
C1566 C1567 1.391 . S
C1566 C1568 1.394 . S
C1566 H1582 0.931 . S
C1567 C1566 1.391 . S
C1567 C1571 1.376 . S
C1568 C1566 1.394 . S
C1568 C1569 1.369 . S
C1568 C1572 1.531 . S
C1569 C1568 1.369 . S
C1569 C1570 1.410 . S
C1569 C1577 1.503 . S
C1570 C1569 1.410 . S
C1570 C1571 1.392 . S
C1570 C1573 1.511 . S
C1571 C1567 1.376 . S
C1571 C1570 1.392 . S
C1571 H1583 0.929 . S
C1572 C1568 1.531 . S
C1572 H1584 0.960 . S
C1572 H1585 0.962 . S
C1572 H1586 0.960 . S
C1573 C1570 1.511 . S
C1573 H1587 0.961 . S
C1573 H1588 0.961 . S
C1573 H1589 0.961 . S
C1574 C1575 1.370 . S
C1574 C1576 1.363 . S
C1574 H1590 0.931 . S
C1575 C1574 1.370 . S
C1575 C1579 1.391 1_565 S
C1576 C1574 1.363 . S
C1576 C1577 1.370 . S
C1576 C1580 1.524 . S
C1577 C1569 1.503 . S
C1577 C1576 1.370 . S
C1577 C1578 1.403 . S
C1578 C1577 1.403 . S
C1578 C1579 1.393 1_565 S
C1578 C1581 1.539 1_565 S
C1579 C1575 1.391 1_545 S
C1579 C1578 1.393 1_545 S
C1579 H1591 0.958 . S
C1580 C1576 1.524 . S
C1580 H1592 0.956 . S
C1580 H1593 0.961 . S
C1580 H1594 0.961 . S
C1581 C1578 1.539 1_545 S
C1581 H1595 0.958 . S
C1581 H1596 0.961 . S
C1581 H1597 0.960 . S
H1582 C1566 0.931 . S
H1583 C1571 0.929 . S
H1584 C1572 0.960 . S
H1585 C1572 0.962 . S
H1586 C1572 0.960 . S
H1587 C1573 0.961 . S
H1588 C1573 0.961 . S
H1589 C1573 0.961 . S
H1590 C1574 0.931 . S
H1591 C1579 0.958 . S
H1592 C1580 0.956 . S
H1593 C1580 0.961 . S
H1594 C1580 0.961 . S
H1595 C1581 0.958 . S
H1596 C1581 0.961 . S
H1597 C1581 0.960 . S
C1598 C1599 1.391 . S
C1598 C1600 1.394 . S
C1598 H1614 0.931 . S
C1599 C1598 1.391 . S
C1599 C1603 1.376 . S
C1600 C1598 1.394 . S
C1600 C1601 1.369 . S
C1600 C1604 1.531 . S
C1601 C1600 1.369 . S
C1601 C1602 1.410 . S
C1601 C1609 1.503 . S
C1602 C1601 1.410 . S
C1602 C1603 1.392 . S
C1602 C1605 1.511 . S
C1603 C1599 1.376 . S
C1603 C1602 1.392 . S
C1603 H1615 0.929 . S
C1604 C1600 1.531 . S
C1604 H1616 0.960 . S
C1604 H1617 0.962 . S
C1604 H1618 0.960 . S
C1605 C1602 1.511 . S
C1605 H1619 0.961 . S
C1605 H1620 0.961 . S
C1605 H1621 0.961 . S
C1606 C1607 1.370 . S
C1606 C1608 1.363 . S
C1606 H1622 0.931 . S
C1607 C1606 1.370 . S
C1607 C1611 1.408 . S
C1608 C1606 1.363 . S
C1608 C1609 1.370 . S
C1608 C1612 1.524 . S
C1609 C1601 1.503 . S
C1609 C1608 1.370 . S
C1609 C1610 1.403 . S
C1610 C1609 1.403 . S
C1610 C1611 1.404 . S
C1610 C1613 1.539 1_455 S
C1611 C1607 1.408 . S
C1611 C1610 1.404 . S
C1611 H1623 0.930 1_455 S
C1612 C1608 1.524 . S
C1612 H1624 0.956 . S
C1612 H1625 0.961 . S
C1612 H1626 0.961 . S
C1613 C1610 1.539 1_655 S
C1613 H1627 0.958 . S
C1613 H1628 0.961 . S
C1613 H1629 0.960 1_655 S
H1614 C1598 0.931 . S
H1615 C1603 0.929 . S
H1616 C1604 0.960 . S
H1617 C1604 0.962 . S
H1618 C1604 0.960 . S
H1619 C1605 0.961 . S
H1620 C1605 0.961 . S
H1621 C1605 0.961 . S
H1622 C1606 0.931 . S
H1623 C1611 0.930 1_655 S
H1624 C1612 0.956 . S
H1625 C1612 0.961 . S
H1626 C1612 0.961 . S
H1627 C1613 0.958 . S
H1628 C1613 0.961 . S
H1629 C1613 0.960 1_455 S
C1630 C1631 1.391 . S
C1630 C1632 1.394 . S
C1630 H1646 0.931 . S
C1631 C1630 1.391 . S
C1631 C1635 1.376 . S
C1632 C1630 1.394 . S
C1632 C1633 1.369 . S
C1632 C1636 1.531 . S
C1633 C1632 1.369 . S
C1633 C1634 1.410 . S
C1633 C1641 1.503 . S
C1634 C1633 1.410 . S
C1634 C1635 1.392 . S
C1634 C1637 1.511 . S
C1635 C1631 1.376 . S
C1635 C1634 1.392 . S
C1635 H1647 0.929 . S
C1636 C1632 1.531 . S
C1636 H1648 0.960 . S
C1636 H1649 0.962 . S
C1636 H1650 0.960 . S
C1637 C1634 1.511 . S
C1637 H1651 0.961 . S
C1637 H1652 0.961 . S
C1637 H1653 0.961 . S
C1638 C1639 1.370 . S
C1638 C1640 1.363 . S
C1638 H1654 0.931 . S
C1639 C1638 1.370 . S
C1639 C1643 1.408 . S
C1640 C1638 1.363 . S
C1640 C1641 1.370 . S
C1640 C1644 1.524 . S
C1641 C1633 1.503 . S
C1641 C1640 1.370 . S
C1641 C1642 1.403 . S
C1642 C1641 1.403 . S
C1642 C1643 1.404 . S
C1642 C1645 1.539 . S
C1643 C1639 1.408 . S
C1643 C1642 1.404 . S
C1643 H1655 0.930 . S
C1644 C1640 1.524 . S
C1644 H1656 0.956 . S
C1644 H1657 0.961 . S
C1644 H1658 0.961 . S
C1645 C1642 1.539 . S
C1645 H1659 0.958 . S
C1645 H1660 0.961 . S
C1645 H1661 0.960 . S
H1646 C1630 0.931 . S
H1647 C1635 0.929 . S
H1648 C1636 0.960 . S
H1649 C1636 0.962 . S
H1650 C1636 0.960 . S
H1651 C1637 0.961 . S
H1652 C1637 0.961 . S
H1653 C1637 0.961 . S
H1654 C1638 0.931 . S
H1655 C1643 0.930 . S
H1656 C1644 0.956 . S
H1657 C1644 0.961 . S
H1658 C1644 0.961 . S
H1659 C1645 0.958 . S
H1660 C1645 0.961 . S
H1661 C1645 0.960 . S
C1662 C1663 1.391 . S
C1662 C1664 1.394 . S
C1662 H1678 0.931 . S
C1663 C1662 1.391 . S
C1663 C1667 1.376 . S
C1664 C1662 1.394 . S
C1664 C1665 1.369 . S
C1664 C1668 1.531 . S
C1665 C1664 1.369 . S
C1665 C1666 1.410 . S
C1665 C1673 1.503 . S
C1666 C1665 1.410 . S
C1666 C1667 1.392 . S
C1666 C1669 1.511 . S
C1667 C1663 1.376 . S
C1667 C1666 1.392 . S
C1667 H1679 0.929 . S
C1668 C1664 1.531 . S
C1668 H1680 0.960 . S
C1668 H1681 0.962 1_655 S
C1668 H1682 0.960 1_655 S
C1669 C1666 1.511 . S
C1669 H1683 0.961 . S
C1669 H1684 0.961 . S
C1669 H1685 0.961 . S
C1670 C1671 1.370 . S
C1670 C1672 1.363 . S
C1670 H1686 0.931 . S
C1671 C1670 1.370 . S
C1671 C1675 1.408 . S
C1672 C1670 1.363 . S
C1672 C1673 1.370 . S
C1672 C1676 1.524 . S
C1673 C1665 1.503 . S
C1673 C1672 1.370 . S
C1673 C1674 1.403 . S
C1674 C1673 1.403 . S
C1674 C1675 1.404 . S
C1674 C1677 1.539 . S
C1675 C1671 1.408 . S
C1675 C1674 1.404 . S
C1675 H1687 0.930 . S
C1676 C1672 1.524 . S
C1676 H1688 0.956 . S
C1676 H1689 0.961 . S
C1676 H1690 0.961 . S
C1677 C1674 1.539 . S
C1677 H1691 0.958 . S
C1677 H1692 0.961 . S
C1677 H1693 0.960 . S
H1678 C1662 0.931 . S
H1679 C1667 0.929 . S
H1680 C1668 0.960 . S
H1681 C1668 0.962 1_455 S
H1682 C1668 0.960 1_455 S
H1683 C1669 0.961 . S
H1684 C1669 0.961 . S
H1685 C1669 0.961 . S
H1686 C1670 0.931 . S
H1687 C1675 0.930 . S
H1688 C1676 0.956 . S
H1689 C1676 0.961 . S
H1690 C1676 0.961 . S
H1691 C1677 0.958 . S
H1692 C1677 0.961 . S
H1693 C1677 0.960 . S
C1694 C1695 1.391 . S
C1694 C1696 1.394 . S
C1694 H1710 0.931 . S
C1695 C1694 1.391 . S
C1695 C1699 1.376 . S
C1696 C1694 1.394 . S
C1696 C1697 1.369 . S
C1696 C1700 1.531 . S
C1697 C1696 1.369 . S
C1697 C1698 1.410 . S
C1697 C1705 1.503 . S
C1698 C1697 1.410 . S
C1698 C1699 1.392 . S
C1698 C1701 1.511 . S
C1699 C1695 1.376 . S
C1699 C1698 1.392 . S
C1699 H1711 0.929 . S
C1700 C1696 1.531 . S
C1700 H1712 0.960 . S
C1700 H1713 0.962 . S
C1700 H1714 0.960 . S
C1701 C1698 1.511 . S
C1701 H1715 0.961 . S
C1701 H1716 0.961 . S
C1701 H1717 0.961 . S
C1702 C1703 1.370 . S
C1702 C1704 1.363 . S
C1702 H1718 0.931 . S
C1703 C1702 1.370 . S
C1703 C1707 1.408 . S
C1704 C1702 1.363 . S
C1704 C1705 1.370 . S
C1704 C1708 1.524 . S
C1705 C1697 1.503 . S
C1705 C1704 1.370 . S
C1705 C1706 1.403 . S
C1706 C1705 1.403 . S
C1706 C1707 1.404 . S
C1706 C1709 1.539 . S
C1707 C1703 1.408 . S
C1707 C1706 1.404 . S
C1707 H1719 0.930 . S
C1708 C1704 1.524 . S
C1708 H1720 0.956 . S
C1708 H1721 0.961 . S
C1708 H1722 0.961 . S
C1709 C1706 1.539 . S
C1709 H1723 0.958 . S
C1709 H1724 0.961 . S
C1709 H1725 0.960 . S
H1710 C1694 0.931 . S
H1711 C1699 0.929 . S
H1712 C1700 0.960 . S
H1713 C1700 0.962 . S
H1714 C1700 0.960 . S
H1715 C1701 0.961 . S
H1716 C1701 0.961 . S
H1717 C1701 0.961 . S
H1718 C1702 0.931 . S
H1719 C1707 0.930 . S
H1720 C1708 0.956 . S
H1721 C1708 0.961 . S
H1722 C1708 0.961 . S
H1723 C1709 0.958 . S
H1724 C1709 0.961 . S
H1725 C1709 0.960 . S
C1726 C1727 1.391 . S
C1726 C1728 1.394 . S
C1726 H1742 0.931 . S
C1727 C1726 1.391 . S
C1727 C1731 1.376 . S
C1728 C1726 1.394 . S
C1728 C1729 1.369 . S
C1728 C1732 1.531 . S
C1729 C1728 1.369 . S
C1729 C1730 1.410 . S
C1729 C1737 1.503 . S
C1730 C1729 1.410 . S
C1730 C1731 1.392 . S
C1730 C1733 1.511 . S
C1731 C1727 1.376 . S
C1731 C1730 1.392 . S
C1731 H1743 0.929 . S
C1732 C1728 1.531 . S
C1732 H1744 0.960 . S
C1732 H1745 0.962 . S
C1732 H1746 0.960 . S
C1733 C1730 1.511 . S
C1733 H1747 0.961 . S
C1733 H1748 0.961 . S
C1733 H1749 0.961 . S
C1734 C1735 1.370 . S
C1734 C1736 1.363 . S
C1734 H1750 0.931 . S
C1735 C1734 1.370 . S
C1735 C1739 1.408 . S
C1736 C1734 1.363 . S
C1736 C1737 1.370 . S
C1736 C1740 1.524 . S
C1737 C1729 1.503 . S
C1737 C1736 1.370 . S
C1737 C1738 1.403 . S
C1738 C1737 1.403 . S
C1738 C1739 1.404 . S
C1738 C1741 1.539 1_545 S
C1739 C1735 1.408 . S
C1739 C1738 1.404 . S
C1739 H1751 0.930 1_545 S
C1740 C1736 1.524 . S
C1740 H1752 0.956 . S
C1740 H1753 0.961 . S
C1740 H1754 0.961 . S
C1741 C1738 1.539 1_565 S
C1741 H1755 0.958 . S
C1741 H1756 0.961 . S
C1741 H1757 0.960 . S
H1742 C1726 0.931 . S
H1743 C1731 0.929 . S
H1744 C1732 0.960 . S
H1745 C1732 0.962 . S
H1746 C1732 0.960 . S
H1747 C1733 0.961 . S
H1748 C1733 0.961 . S
H1749 C1733 0.961 . S
H1750 C1734 0.931 . S
H1751 C1739 0.930 1_565 S
H1752 C1740 0.956 . S
H1753 C1740 0.961 . S
H1754 C1740 0.961 . S
H1755 C1741 0.958 . S
H1756 C1741 0.961 . S
H1757 C1741 0.960 . S
C1758 C1759 1.391 . S
C1758 C1760 1.394 . S
C1758 H1774 0.931 . S
C1759 C1758 1.391 . S
C1759 C1763 1.376 . S
C1760 C1758 1.394 . S
C1760 C1761 1.369 . S
C1760 C1764 1.531 . S
C1761 C1760 1.369 . S
C1761 C1762 1.410 . S
C1761 C1769 1.503 . S
C1762 C1761 1.410 . S
C1762 C1763 1.392 . S
C1762 C1765 1.511 . S
C1763 C1759 1.376 . S
C1763 C1762 1.392 . S
C1763 H1775 0.929 . S
C1764 C1760 1.531 . S
C1764 H1776 0.960 . S
C1764 H1777 0.962 . S
C1764 H1778 0.960 . S
C1765 C1762 1.511 . S
C1765 H1779 0.961 . S
C1765 H1780 0.961 . S
C1765 H1781 0.961 . S
C1766 C1767 1.370 . S
C1766 C1768 1.363 . S
C1766 H1782 0.931 . S
C1767 C1766 1.370 . S
C1767 C1771 1.408 . S
C1768 C1766 1.363 . S
C1768 C1769 1.370 . S
C1768 C1772 1.524 . S
C1769 C1761 1.503 . S
C1769 C1768 1.370 . S
C1769 C1770 1.403 . S
C1770 C1769 1.403 . S
C1770 C1771 1.404 . S
C1770 C1773 1.539 . S
C1771 C1767 1.408 . S
C1771 C1770 1.404 . S
C1771 H1783 0.930 . S
C1772 C1768 1.524 . S
C1772 H1784 0.956 . S
C1772 H1785 0.961 . S
C1772 H1786 0.961 . S
C1773 C1770 1.539 . S
C1773 H1787 0.958 . S
C1773 H1788 0.961 . S
C1773 H1789 0.960 . S
H1774 C1758 0.931 . S
H1775 C1763 0.929 . S
H1776 C1764 0.960 . S
H1777 C1764 0.962 . S
H1778 C1764 0.960 . S
H1779 C1765 0.961 . S
H1780 C1765 0.961 . S
H1781 C1765 0.961 . S
H1782 C1766 0.931 . S
H1783 C1771 0.930 . S
H1784 C1772 0.956 . S
H1785 C1772 0.961 . S
H1786 C1772 0.961 . S
H1787 C1773 0.958 . S
H1788 C1773 0.961 . S
H1789 C1773 0.960 . S
C1790 C1791 1.391 . S
C1790 C1792 1.394 . S
C1790 H1806 0.931 . S
C1791 C1790 1.391 . S
C1791 C1795 1.376 . S
C1792 C1790 1.394 . S
C1792 C1793 1.369 . S
C1792 C1796 1.531 . S
C1793 C1792 1.369 . S
C1793 C1794 1.410 . S
C1793 C1801 1.503 . S
C1794 C1793 1.410 . S
C1794 C1795 1.392 . S
C1794 C1797 1.511 . S
C1795 C1791 1.376 . S
C1795 C1794 1.392 . S
C1795 H1807 0.929 . S
C1796 C1792 1.531 . S
C1796 H1808 0.960 . S
C1796 H1809 0.962 . S
C1796 H1810 0.960 . S
C1797 C1794 1.511 . S
C1797 H1811 0.961 . S
C1797 H1812 0.961 . S
C1797 H1813 0.961 . S
C1798 C1799 1.370 . S
C1798 C1800 1.363 . S
C1798 H1814 0.931 . S
C1799 C1798 1.370 . S
C1799 C1803 1.408 . S
C1800 C1798 1.363 . S
C1800 C1801 1.370 . S
C1800 C1804 1.524 . S
C1801 C1793 1.503 . S
C1801 C1800 1.370 . S
C1801 C1802 1.403 . S
C1802 C1801 1.403 . S
C1802 C1803 1.404 . S
C1802 C1805 1.539 . S
C1803 C1799 1.408 . S
C1803 C1802 1.404 . S
C1803 H1815 0.930 . S
C1804 C1800 1.524 . S
C1804 H1816 0.956 . S
C1804 H1817 0.961 . S
C1804 H1818 0.961 . S
C1805 C1802 1.539 . S
C1805 H1819 0.958 . S
C1805 H1820 0.961 . S
C1805 H1821 0.960 . S
H1806 C1790 0.931 . S
H1807 C1795 0.929 . S
H1808 C1796 0.960 . S
H1809 C1796 0.962 . S
H1810 C1796 0.960 . S
H1811 C1797 0.961 . S
H1812 C1797 0.961 . S
H1813 C1797 0.961 . S
H1814 C1798 0.931 . S
H1815 C1803 0.930 . S
H1816 C1804 0.956 . S
H1817 C1804 0.961 . S
H1818 C1804 0.961 . S
H1819 C1805 0.958 . S
H1820 C1805 0.961 . S
H1821 C1805 0.960 . S
C1822 C1823 1.391 . S
C1822 C1824 1.394 . S
C1822 H1838 0.931 . S
C1823 C1822 1.391 . S
C1823 C1827 1.376 . S
C1824 C1822 1.394 . S
C1824 C1825 1.369 . S
C1824 C1828 1.531 . S
C1825 C1824 1.369 . S
C1825 C1826 1.410 . S
C1825 C1833 1.503 . S
C1826 C1825 1.410 . S
C1826 C1827 1.392 . S
C1826 C1829 1.511 . S
C1827 C1823 1.376 . S
C1827 C1826 1.392 . S
C1827 H1839 0.929 . S
C1828 C1824 1.531 . S
C1828 H1840 0.960 . S
C1828 H1841 0.962 . S
C1828 H1842 0.960 . S
C1829 C1826 1.511 . S
C1829 H1843 0.961 . S
C1829 H1844 0.961 . S
C1829 H1845 0.961 . S
C1830 C1831 1.370 . S
C1830 C1832 1.363 . S
C1830 H1846 0.931 . S
C1831 C1830 1.370 . S
C1831 C1835 1.408 . S
C1832 C1830 1.363 . S
C1832 C1833 1.370 . S
C1832 C1836 1.524 . S
C1833 C1825 1.503 . S
C1833 C1832 1.370 . S
C1833 C1834 1.403 . S
C1834 C1833 1.403 . S
C1834 C1835 1.404 . S
C1834 C1837 1.539 . S
C1835 C1831 1.408 . S
C1835 C1834 1.404 . S
C1835 H1847 0.930 . S
C1836 C1832 1.524 . S
C1836 H1848 0.956 . S
C1836 H1849 0.961 . S
C1836 H1850 0.961 . S
C1837 C1834 1.539 . S
C1837 H1851 0.958 . S
C1837 H1852 0.961 . S
C1837 H1853 0.960 . S
H1838 C1822 0.931 . S
H1839 C1827 0.929 . S
H1840 C1828 0.960 . S
H1841 C1828 0.962 . S
H1842 C1828 0.960 . S
H1843 C1829 0.961 . S
H1844 C1829 0.961 . S
H1845 C1829 0.961 . S
H1846 C1830 0.931 . S
H1847 C1835 0.930 . S
H1848 C1836 0.956 . S
H1849 C1836 0.961 . S
H1850 C1836 0.961 . S
H1851 C1837 0.958 . S
H1852 C1837 0.961 . S
H1853 C1837 0.960 . S
C1854 C1855 1.391 . S
C1854 C1856 1.394 . S
C1854 H1870 0.931 . S
C1855 C1854 1.391 . S
C1855 C1859 1.376 . S
C1856 C1854 1.394 . S
C1856 C1857 1.369 . S
C1856 C1860 1.531 . S
C1857 C1856 1.369 . S
C1857 C1858 1.410 . S
C1857 C1865 1.503 . S
C1858 C1857 1.410 . S
C1858 C1859 1.392 . S
C1858 C1861 1.511 . S
C1859 C1855 1.376 . S
C1859 C1858 1.392 . S
C1859 H1871 0.929 . S
C1860 C1856 1.531 . S
C1860 H1872 0.960 . S
C1860 H1873 0.962 . S
C1860 H1874 0.960 . S
C1861 C1858 1.511 . S
C1861 H1875 0.961 . S
C1861 H1876 0.961 . S
C1861 H1877 0.961 . S
C1862 C1863 1.370 . S
C1862 C1864 1.363 . S
C1862 H1878 0.931 . S
C1863 C1862 1.370 . S
C1863 C1867 1.408 . S
C1864 C1862 1.363 . S
C1864 C1865 1.370 . S
C1864 C1868 1.524 . S
C1865 C1857 1.503 . S
C1865 C1864 1.370 . S
C1865 C1866 1.403 . S
C1866 C1865 1.403 . S
C1866 C1867 1.404 . S
C1866 C1869 1.539 . S
C1867 C1863 1.408 . S
C1867 C1866 1.404 . S
C1867 H1879 0.930 . S
C1868 C1864 1.524 . S
C1868 H1880 0.956 . S
C1868 H1881 0.961 . S
C1868 H1882 0.961 . S
C1869 C1866 1.539 . S
C1869 H1883 0.958 . S
C1869 H1884 0.961 . S
C1869 H1885 0.960 . S
H1870 C1854 0.931 . S
H1871 C1859 0.929 . S
H1872 C1860 0.960 . S
H1873 C1860 0.962 . S
H1874 C1860 0.960 . S
H1875 C1861 0.961 . S
H1876 C1861 0.961 . S
H1877 C1861 0.961 . S
H1878 C1862 0.931 . S
H1879 C1867 0.930 . S
H1880 C1868 0.956 . S
H1881 C1868 0.961 . S
H1882 C1868 0.961 . S
H1883 C1869 0.958 . S
H1884 C1869 0.961 . S
H1885 C1869 0.960 . S
C1886 C1887 1.391 . S
C1886 C1888 1.394 . S
C1886 H1902 0.931 . S
C1887 C1886 1.391 . S
C1887 C1891 1.376 . S
C1888 C1886 1.394 . S
C1888 C1889 1.369 . S
C1888 C1892 1.531 . S
C1889 C1888 1.369 . S
C1889 C1890 1.410 . S
C1889 C1897 1.503 . S
C1890 C1889 1.410 . S
C1890 C1891 1.392 . S
C1890 C1893 1.511 . S
C1891 C1887 1.376 . S
C1891 C1890 1.392 . S
C1891 H1903 0.929 . S
C1892 C1888 1.531 . S
C1892 H1904 0.960 . S
C1892 H1905 0.962 . S
C1892 H1906 0.960 . S
C1893 C1890 1.511 . S
C1893 H1907 0.961 . S
C1893 H1908 0.961 . S
C1893 H1909 0.961 . S
C1894 C1895 1.370 . S
C1894 C1896 1.363 . S
C1894 H1910 0.931 . S
C1895 C1894 1.370 . S
C1895 C1899 1.408 . S
C1896 C1894 1.363 . S
C1896 C1897 1.370 . S
C1896 C1900 1.524 . S
C1897 C1889 1.503 . S
C1897 C1896 1.370 . S
C1897 C1898 1.403 . S
C1898 C1897 1.403 . S
C1898 C1899 1.404 . S
C1898 C1901 1.539 . S
C1899 C1895 1.408 . S
C1899 C1898 1.404 . S
C1899 H1911 0.930 . S
C1900 C1896 1.524 . S
C1900 H1912 0.956 . S
C1900 H1913 0.961 . S
C1900 H1914 0.961 . S
C1901 C1898 1.539 . S
C1901 H1915 0.958 . S
C1901 H1916 0.961 . S
C1901 H1917 0.960 . S
H1902 C1886 0.931 . S
H1903 C1891 0.929 . S
H1904 C1892 0.960 . S
H1905 C1892 0.962 . S
H1906 C1892 0.960 . S
H1907 C1893 0.961 . S
H1908 C1893 0.961 . S
H1909 C1893 0.961 . S
H1910 C1894 0.931 . S
H1911 C1899 0.930 . S
H1912 C1900 0.956 . S
H1913 C1900 0.961 . S
H1914 C1900 0.961 . S
H1915 C1901 0.958 . S
H1916 C1901 0.961 . S
H1917 C1901 0.960 . S
C1918 C1919 1.391 . S
C1918 C1920 1.394 . S
C1918 H1934 0.931 . S
C1919 C1918 1.391 . S
C1919 C1923 1.376 . S
C1920 C1918 1.394 . S
C1920 C1921 1.369 . S
C1920 C1924 1.531 . S
C1921 C1920 1.369 . S
C1921 C1922 1.410 . S
C1921 C1929 1.503 . S
C1922 C1921 1.410 . S
C1922 C1923 1.392 . S
C1922 C1925 1.511 . S
C1923 C1919 1.376 . S
C1923 C1922 1.392 . S
C1923 H1935 0.929 . S
C1924 C1920 1.531 . S
C1924 H1936 0.960 . S
C1924 H1937 0.962 . S
C1924 H1938 0.960 . S
C1925 C1922 1.511 . S
C1925 H1939 0.961 . S
C1925 H1940 0.961 . S
C1925 H1941 0.961 . S
C1926 C1927 1.370 . S
C1926 C1928 1.363 . S
C1926 H1942 0.931 . S
C1927 C1926 1.370 . S
C1927 C1931 1.408 . S
C1928 C1926 1.363 . S
C1928 C1929 1.370 . S
C1928 C1932 1.524 . S
C1929 C1921 1.503 . S
C1929 C1928 1.370 . S
C1929 C1930 1.403 . S
C1930 C1929 1.403 . S
C1930 C1931 1.404 . S
C1930 C1933 1.539 . S
C1931 C1927 1.408 . S
C1931 C1930 1.404 . S
C1931 H1943 0.930 . S
C1932 C1928 1.524 . S
C1932 H1944 0.956 . S
C1932 H1945 0.961 . S
C1932 H1946 0.961 . S
C1933 C1930 1.539 . S
C1933 H1947 0.958 . S
C1933 H1948 0.961 . S
C1933 H1949 0.960 . S
H1934 C1918 0.931 . S
H1935 C1923 0.929 . S
H1936 C1924 0.960 . S
H1937 C1924 0.962 . S
H1938 C1924 0.960 . S
H1939 C1925 0.961 . S
H1940 C1925 0.961 . S
H1941 C1925 0.961 . S
H1942 C1926 0.931 . S
H1943 C1931 0.930 . S
H1944 C1932 0.956 . S
H1945 C1932 0.961 . S
H1946 C1932 0.961 . S
H1947 C1933 0.958 . S
H1948 C1933 0.961 . S
H1949 C1933 0.960 . S
C1950 C1951 1.391 . S
C1950 C1952 1.394 . S
C1950 H1966 0.931 . S
C1951 C1950 1.391 . S
C1951 C1955 1.376 . S
C1952 C1950 1.394 . S
C1952 C1953 1.369 . S
C1952 C1956 1.531 . S
C1953 C1952 1.369 . S
C1953 C1954 1.410 . S
C1953 C1961 1.503 . S
C1954 C1953 1.410 . S
C1954 C1955 1.392 . S
C1954 C1957 1.511 . S
C1955 C1951 1.376 . S
C1955 C1954 1.392 . S
C1955 H1967 0.929 . S
C1956 C1952 1.531 . S
C1956 H1968 0.960 . S
C1956 H1969 0.962 . S
C1956 H1970 0.960 . S
C1957 C1954 1.511 . S
C1957 H1971 0.961 . S
C1957 H1972 0.961 . S
C1957 H1973 0.961 . S
C1958 C1959 1.370 . S
C1958 C1960 1.363 . S
C1958 H1974 0.931 . S
C1959 C1958 1.370 . S
C1959 C1963 1.408 . S
C1960 C1958 1.363 . S
C1960 C1961 1.370 . S
C1960 C1964 1.524 . S
C1961 C1953 1.503 . S
C1961 C1960 1.370 . S
C1961 C1962 1.403 . S
C1962 C1961 1.403 . S
C1962 C1963 1.404 . S
C1962 C1965 1.539 . S
C1963 C1959 1.408 . S
C1963 C1962 1.404 . S
C1963 H1975 0.930 . S
C1964 C1960 1.524 . S
C1964 H1976 0.956 . S
C1964 H1977 0.961 . S
C1964 H1978 0.961 . S
C1965 C1962 1.539 . S
C1965 H1979 0.958 . S
C1965 H1980 0.961 . S
C1965 H1981 0.960 . S
H1966 C1950 0.931 . S
H1967 C1955 0.929 . S
H1968 C1956 0.960 . S
H1969 C1956 0.962 . S
H1970 C1956 0.960 . S
H1971 C1957 0.961 . S
H1972 C1957 0.961 . S
H1973 C1957 0.961 . S
H1974 C1958 0.931 . S
H1975 C1963 0.930 . S
H1976 C1964 0.956 . S
H1977 C1964 0.961 . S
H1978 C1964 0.961 . S
H1979 C1965 0.958 . S
H1980 C1965 0.961 . S
H1981 C1965 0.960 . S
C1982 C1983 1.391 . S
C1982 C1984 1.394 . S
C1982 H1998 0.931 . S
C1983 C1982 1.391 . S
C1983 C1987 1.376 . S
C1984 C1982 1.394 . S
C1984 C1985 1.369 . S
C1984 C1988 1.531 . S
C1985 C1984 1.369 . S
C1985 C1986 1.410 . S
C1985 C1993 1.503 . S
C1986 C1985 1.410 . S
C1986 C1987 1.392 . S
C1986 C1989 1.511 . S
C1987 C1983 1.376 . S
C1987 C1986 1.392 . S
C1987 H1999 0.929 . S
C1988 C1984 1.531 . S
C1988 H2000 0.960 . S
C1988 H2001 0.962 . S
C1988 H2002 0.960 . S
C1989 C1986 1.511 . S
C1989 H2003 0.961 . S
C1989 H2004 0.961 . S
C1989 H2005 0.961 . S
C1990 C1991 1.370 . S
C1990 C1992 1.363 . S
C1990 H2006 0.931 . S
C1991 C1990 1.370 . S
C1991 C1995 1.408 . S
C1992 C1990 1.363 . S
C1992 C1993 1.370 . S
C1992 C1996 1.524 . S
C1993 C1985 1.503 . S
C1993 C1992 1.370 . S
C1993 C1994 1.403 . S
C1994 C1993 1.403 . S
C1994 C1995 1.404 . S
C1994 C1997 1.539 . S
C1995 C1991 1.408 . S
C1995 C1994 1.404 . S
C1995 H2007 0.930 . S
C1996 C1992 1.524 . S
C1996 H2008 0.956 . S
C1996 H2009 0.961 . S
C1996 H2010 0.961 . S
C1997 C1994 1.539 . S
C1997 H2011 0.958 . S
C1997 H2012 0.961 . S
C1997 H2013 0.960 . S
H1998 C1982 0.931 . S
H1999 C1987 0.929 . S
H2000 C1988 0.960 . S
H2001 C1988 0.962 . S
H2002 C1988 0.960 . S
H2003 C1989 0.961 . S
H2004 C1989 0.961 . S
H2005 C1989 0.961 . S
H2006 C1990 0.931 . S
H2007 C1995 0.930 . S
H2008 C1996 0.956 . S
H2009 C1996 0.961 . S
H2010 C1996 0.961 . S
H2011 C1997 0.958 . S
H2012 C1997 0.961 . S
H2013 C1997 0.960 . S
C2014 C2015 1.391 . S
C2014 C2016 1.394 . S
C2014 H2030 0.931 . S
C2015 C2014 1.391 . S
C2015 C2019 1.376 . S
C2016 C2014 1.394 . S
C2016 C2017 1.369 . S
C2016 C2020 1.531 . S
C2017 C2016 1.369 . S
C2017 C2018 1.410 . S
C2017 C2025 1.503 . S
C2018 C2017 1.410 . S
C2018 C2019 1.392 . S
C2018 C2021 1.511 . S
C2019 C2015 1.376 . S
C2019 C2018 1.392 . S
C2019 H2031 0.929 . S
C2020 C2016 1.531 . S
C2020 H2032 0.960 . S
C2020 H2033 0.962 . S
C2020 H2034 0.960 . S
C2021 C2018 1.511 . S
C2021 H2035 0.961 . S
C2021 H2036 0.961 . S
C2021 H2037 0.961 . S
C2022 C2023 1.370 . S
C2022 C2024 1.363 . S
C2022 H2038 0.931 . S
C2023 C2022 1.370 . S
C2023 C2027 1.408 . S
C2024 C2022 1.363 . S
C2024 C2025 1.370 . S
C2024 C2028 1.524 . S
C2025 C2017 1.503 . S
C2025 C2024 1.370 . S
C2025 C2026 1.403 . S
C2026 C2025 1.403 . S
C2026 C2027 1.404 . S
C2026 C2029 1.539 . S
C2027 C2023 1.408 . S
C2027 C2026 1.404 . S
C2027 H2039 0.930 . S
C2028 C2024 1.524 . S
C2028 H2040 0.956 . S
C2028 H2041 0.961 . S
C2028 H2042 0.961 . S
C2029 C2026 1.539 . S
C2029 H2043 0.958 . S
C2029 H2044 0.961 . S
C2029 H2045 0.960 . S
H2030 C2014 0.931 . S
H2031 C2019 0.929 . S
H2032 C2020 0.960 . S
H2033 C2020 0.962 . S
H2034 C2020 0.960 . S
H2035 C2021 0.961 . S
H2036 C2021 0.961 . S
H2037 C2021 0.961 . S
H2038 C2022 0.931 . S
H2039 C2027 0.930 . S
H2040 C2028 0.956 . S
H2041 C2028 0.961 . S
H2042 C2028 0.961 . S
H2043 C2029 0.958 . S
H2044 C2029 0.961 . S
H2045 C2029 0.960 . S
C2046 C2047 1.391 . S
C2046 C2048 1.394 . S
C2046 H2062 0.931 . S
C2047 C2046 1.391 . S
C2047 C2051 1.376 . S
C2048 C2046 1.394 . S
C2048 C2049 1.369 . S
C2048 C2052 1.531 . S
C2049 C2048 1.369 . S
C2049 C2050 1.410 . S
C2049 C2057 1.503 . S
C2050 C2049 1.410 . S
C2050 C2051 1.392 . S
C2050 C2053 1.511 . S
C2051 C2047 1.376 . S
C2051 C2050 1.392 . S
C2051 H2063 0.929 . S
C2052 C2048 1.531 . S
C2052 H2064 0.960 . S
C2052 H2065 0.962 . S
C2052 H2066 0.960 . S
C2053 C2050 1.511 . S
C2053 H2067 0.961 . S
C2053 H2068 0.961 . S
C2053 H2069 0.961 . S
C2054 C2055 1.370 . S
C2054 C2056 1.363 . S
C2054 H2070 0.931 . S
C2055 C2054 1.370 . S
C2055 C2059 1.408 . S
C2056 C2054 1.363 . S
C2056 C2057 1.370 . S
C2056 C2060 1.524 . S
C2057 C2049 1.503 . S
C2057 C2056 1.370 . S
C2057 C2058 1.403 . S
C2058 C2057 1.403 . S
C2058 C2059 1.404 . S
C2058 C2061 1.539 . S
C2059 C2055 1.408 . S
C2059 C2058 1.404 . S
C2059 H2071 0.930 . S
C2060 C2056 1.524 . S
C2060 H2072 0.956 . S
C2060 H2073 0.961 . S
C2060 H2074 0.961 . S
C2061 C2058 1.539 . S
C2061 H2075 0.958 . S
C2061 H2076 0.961 . S
C2061 H2077 0.960 . S
H2062 C2046 0.931 . S
H2063 C2051 0.929 . S
H2064 C2052 0.960 . S
H2065 C2052 0.962 . S
H2066 C2052 0.960 . S
H2067 C2053 0.961 . S
H2068 C2053 0.961 . S
H2069 C2053 0.961 . S
H2070 C2054 0.931 . S
H2071 C2059 0.930 . S
H2072 C2060 0.956 . S
H2073 C2060 0.961 . S
H2074 C2060 0.961 . S
H2075 C2061 0.958 . S
H2076 C2061 0.961 . S
H2077 C2061 0.960 . S
C2078 C2079 1.391 . S
C2078 C2080 1.394 . S
C2078 H2094 0.931 . S
C2079 C2078 1.391 . S
C2079 C2083 1.376 . S
C2080 C2078 1.394 . S
C2080 C2081 1.369 . S
C2080 C2084 1.531 . S
C2081 C2080 1.369 . S
C2081 C2082 1.410 . S
C2081 C2089 1.503 . S
C2082 C2081 1.410 . S
C2082 C2083 1.392 . S
C2082 C2085 1.511 . S
C2083 C2079 1.376 . S
C2083 C2082 1.392 . S
C2083 H2095 0.929 . S
C2084 C2080 1.531 . S
C2084 H2096 0.960 . S
C2084 H2097 0.962 . S
C2084 H2098 0.960 . S
C2085 C2082 1.511 . S
C2085 H2099 0.961 . S
C2085 H2100 0.961 . S
C2085 H2101 0.961 . S
C2086 C2087 1.370 . S
C2086 C2088 1.363 . S
C2086 H2102 0.931 . S
C2087 C2086 1.370 . S
C2087 C2091 1.408 . S
C2088 C2086 1.363 . S
C2088 C2089 1.370 . S
C2088 C2092 1.524 . S
C2089 C2081 1.503 . S
C2089 C2088 1.370 . S
C2089 C2090 1.403 . S
C2090 C2089 1.403 . S
C2090 C2091 1.404 . S
C2090 C2093 1.539 . S
C2091 C2087 1.408 . S
C2091 C2090 1.404 . S
C2091 H2103 0.930 . S
C2092 C2088 1.524 . S
C2092 H2104 0.956 . S
C2092 H2105 0.961 . S
C2092 H2106 0.961 . S
C2093 C2090 1.539 . S
C2093 H2107 0.958 . S
C2093 H2108 0.961 . S
C2093 H2109 0.960 . S
H2094 C2078 0.931 . S
H2095 C2083 0.929 . S
H2096 C2084 0.960 . S
H2097 C2084 0.962 . S
H2098 C2084 0.960 . S
H2099 C2085 0.961 . S
H2100 C2085 0.961 . S
H2101 C2085 0.961 . S
H2102 C2086 0.931 . S
H2103 C2091 0.930 . S
H2104 C2092 0.956 . S
H2105 C2092 0.961 . S
H2106 C2092 0.961 . S
H2107 C2093 0.958 . S
H2108 C2093 0.961 . S
H2109 C2093 0.960 . S
C2110 C2111 1.391 . S
C2110 C2112 1.394 . S
C2110 H2126 0.931 . S
C2111 C2110 1.391 . S
C2111 C2115 1.376 . S
C2112 C2110 1.394 . S
C2112 C2113 1.369 . S
C2112 C2116 1.531 . S
C2113 C2112 1.369 . S
C2113 C2114 1.410 . S
C2113 C2121 1.503 . S
C2114 C2113 1.410 . S
C2114 C2115 1.392 . S
C2114 C2117 1.511 . S
C2115 C2111 1.376 . S
C2115 C2114 1.392 . S
C2115 H2127 0.929 . S
C2116 C2112 1.531 . S
C2116 H2128 0.960 . S
C2116 H2129 0.962 . S
C2116 H2130 0.960 . S
C2117 C2114 1.511 . S
C2117 H2131 0.961 . S
C2117 H2132 0.961 . S
C2117 H2133 0.961 . S
C2118 C2119 1.370 . S
C2118 C2120 1.363 . S
C2118 H2134 0.931 . S
C2119 C2118 1.370 . S
C2119 C2123 1.408 . S
C2120 C2118 1.363 . S
C2120 C2121 1.370 . S
C2120 C2124 1.524 . S
C2121 C2113 1.503 . S
C2121 C2120 1.370 . S
C2121 C2122 1.403 . S
C2122 C2121 1.403 . S
C2122 C2123 1.404 . S
C2122 C2125 1.539 . S
C2123 C2119 1.408 . S
C2123 C2122 1.404 . S
C2123 H2135 0.930 . S
C2124 C2120 1.524 . S
C2124 H2136 0.956 . S
C2124 H2137 0.961 . S
C2124 H2138 0.961 . S
C2125 C2122 1.539 . S
C2125 H2139 0.958 . S
C2125 H2140 0.961 . S
C2125 H2141 0.960 . S
H2126 C2110 0.931 . S
H2127 C2115 0.929 . S
H2128 C2116 0.960 . S
H2129 C2116 0.962 . S
H2130 C2116 0.960 . S
H2131 C2117 0.961 . S
H2132 C2117 0.961 . S
H2133 C2117 0.961 . S
H2134 C2118 0.931 . S
H2135 C2123 0.930 . S
H2136 C2124 0.956 . S
H2137 C2124 0.961 . S
H2138 C2124 0.961 . S
H2139 C2125 0.958 . S
H2140 C2125 0.961 . S
H2141 C2125 0.960 . S
C415 C177 1.561 . S
C423 C240 1.532 . S
C447 C190 1.518 . S
C455 C260 1.487 . S
C479 C164 1.499 . S
C487 C283 1.522 . S
C511 C151 1.433 . S
C519 C263 1.424 1_556 S
C551 C280 1.433 . S
C543 C125 1.445 . S
C575 C138 1.454 . S
C583 C243 1.475 1_556 S
C615 C250 1.556 . S
C607 C147 1.526 . S
C647 C270 1.437 . S
C639 C121 1.372 . S
C671 C134 1.525 . S
C679 C275 1.561 . S
C703 C173 1.411 . S
C711 C255 1.468 . S
C735 C186 1.401 . S
C743 C290 1.436 . S
C775 C235 1.548 . S
C767 C160 1.505 . S
C807 C300 1.531 . S
C799 C21 1.561 . S
C831 C34 1.514 . S
C839 C320 1.491 . S
C863 C8 1.523 . S
C871 C343 1.513 . S
C895 C229 1.427 . S
C903 C323 1.427 . S
C927 C203 1.445 . S
C935 C340 1.432 . S
C959 C216 1.475 . S
C967 C303 1.468 . S
C991 C225 1.502 . S
C999 C310 1.547 . S
C1023 C199 1.409 . S
C1031 C330 1.447 . S
C1063 C335 1.555 . S
C1055 C212 1.516 . S
C1087 C17 1.365 . S
C1095 C315 1.465 . S
C1127 C350 1.434 . S
C1119 C30 1.427 . S
C1151 C4 1.459 . S
C1159 C295 1.540 . S
C1191 C360 1.547 . S
C1183 C99 1.547 . S
C1215 C112 1.520 . S
C1223 C380 1.484 . S
C1255 C403 1.517 . S
C1247 C86 1.508 . S
C1287 C383 1.432 . S
C1279 C73 1.409 . S
C1319 C400 1.440 . S
C1311 C47 1.442 . S
C1343 C60 1.467 . S
C1351 C363 1.469 . S
C1375 C69 1.504 . S
C1383 C370 1.543 . S
C1407 C43 1.439 . S
C1415 C390 1.428 . S
C1447 C395 1.564 . S
C1439 C56 1.455 . S
C1471 C95 1.363 . S
C1479 C375 1.464 . S
C1503 C108 1.425 . S
C1511 C410 1.415 . S
C1535 C82 1.523 . S
C1543 C355 1.541 . S
C1567 C204 1.358 . S
C1575 C253 1.297 . S
C1607 C273 1.625 . S
C1599 C217 1.717 . S
C1631 C230 1.500 . S
C1639 C282 1.493 . S
C1663 C87 1.685 . S
C1671 C262 1.637 . S
C1695 C100 1.576 . S
C1703 C293 1.519 . S
C1735 C242 1.298 . S
C1727 C113 1.327 . S
C1759 C48 1.347 . S
C1767 C313 1.323 . S
C1791 C61 1.708 . S
C1799 C333 1.645 . S
C1823 C74 1.500 . S
C1831 C342 1.479 . S
C1855 C165 1.685 . S
C1863 C322 1.637 . S
C1895 C353 1.518 . S
C1887 C178 1.576 . S
C1919 C191 1.347 . S
C1927 C302 1.310 . S
C1951 C126 1.366 . S
C1959 C373 1.298 . S
C1983 C139 1.702 . S
C1991 C393 1.649 . S
C2023 C402 1.488 . S
C2015 C152 1.531 . S
C2047 C9 1.666 . S
C2055 C382 1.621 . S
C2079 C22 1.586 . S
C2087 C413 1.506 . S
C2111 C35 1.338 . S
C2119 C362 1.301 . S
