# Generated by pormake.
# Topology zzz, (3,6)-cn, num edge types: 1
# Building blocks:
#     Node 0, Type 0, BuildingBlock: PAMTOO_clean_linker_0, # of connection points: 3
#     Node 1, Type 0, BuildingBlock: PAMTOO_clean_linker_0, # of connection points: 3
#     Node 2, Type 0, BuildingBlock: PAMTOO_clean_linker_0, # of connection points: 3
#     Node 3, Type 0, BuildingBlock: PAMTOO_clean_linker_0, # of connection points: 3
#     Node 4, Type 0, BuildingBlock: PAMTOO_clean_linker_0, # of connection points: 3
#     Node 5, Type 0, BuildingBlock: PAMTOO_clean_linker_0, # of connection points: 3
#     Node 6, Type 0, BuildingBlock: PAMTOO_clean_linker_0, # of connection points: 3
#     Node 7, Type 0, BuildingBlock: PAMTOO_clean_linker_0, # of connection points: 3
#     Node 8, Type 1, BuildingBlock: FUNLAD_clean_sbu_0, # of connection points: 6
#     Node 9, Type 1, BuildingBlock: FUNLAD_clean_sbu_0, # of connection points: 6
#     Node 10, Type 1, BuildingBlock: FUNLAD_clean_sbu_0, # of connection points: 6
#     Node 11, Type 1, BuildingBlock: FUNLAD_clean_sbu_0, # of connection points: 6
#     Edge 12, Type (0, 1), BuildingBlock: MIFKUJ_clean_linker_0, # of connection points: 2
#     Edge 13, Type (0, 1), BuildingBlock: MIFKUJ_clean_linker_0, # of connection points: 2
#     Edge 14, Type (0, 1), BuildingBlock: MIFKUJ_clean_linker_0, # of connection points: 2
#     Edge 15, Type (0, 1), BuildingBlock: MIFKUJ_clean_linker_0, # of connection points: 2
#     Edge 16, Type (0, 1), BuildingBlock: MIFKUJ_clean_linker_0, # of connection points: 2
#     Edge 17, Type (0, 1), BuildingBlock: MIFKUJ_clean_linker_0, # of connection points: 2
#     Edge 18, Type (0, 1), BuildingBlock: MIFKUJ_clean_linker_0, # of connection points: 2
#     Edge 19, Type (0, 1), BuildingBlock: MIFKUJ_clean_linker_0, # of connection points: 2
#     Edge 20, Type (0, 1), BuildingBlock: MIFKUJ_clean_linker_0, # of connection points: 2
#     Edge 21, Type (0, 1), BuildingBlock: MIFKUJ_clean_linker_0, # of connection points: 2
#     Edge 22, Type (0, 1), BuildingBlock: MIFKUJ_clean_linker_0, # of connection points: 2
#     Edge 23, Type (0, 1), BuildingBlock: MIFKUJ_clean_linker_0, # of connection points: 2
#     Edge 24, Type (0, 1), BuildingBlock: MIFKUJ_clean_linker_0, # of connection points: 2
#     Edge 25, Type (0, 1), BuildingBlock: MIFKUJ_clean_linker_0, # of connection points: 2
#     Edge 26, Type (0, 1), BuildingBlock: MIFKUJ_clean_linker_0, # of connection points: 2
#     Edge 27, Type (0, 1), BuildingBlock: MIFKUJ_clean_linker_0, # of connection points: 2
#     Edge 28, Type (0, 1), BuildingBlock: MIFKUJ_clean_linker_0, # of connection points: 2
#     Edge 29, Type (0, 1), BuildingBlock: MIFKUJ_clean_linker_0, # of connection points: 2
#     Edge 30, Type (0, 1), BuildingBlock: MIFKUJ_clean_linker_0, # of connection points: 2
#     Edge 31, Type (0, 1), BuildingBlock: MIFKUJ_clean_linker_0, # of connection points: 2
#     Edge 32, Type (0, 1), BuildingBlock: MIFKUJ_clean_linker_0, # of connection points: 2
#     Edge 33, Type (0, 1), BuildingBlock: MIFKUJ_clean_linker_0, # of connection points: 2
#     Edge 34, Type (0, 1), BuildingBlock: MIFKUJ_clean_linker_0, # of connection points: 2
#     Edge 35, Type (0, 1), BuildingBlock: MIFKUJ_clean_linker_0, # of connection points: 2
# Relax obj value: 0.124
# Max RMSD: 0.176
# Mean RMSD: 0.088
data_MOF--net-zzz--node1-FUNLAD_clean_sbu_0--node2-PAMTOO_clean_linker_0--edge1-MIFKUJ_clean_linker_0
_symmetry_space_group_name_H-M    P1
_symmetry_Int_Tables_number       1
_symmetry_cell_setting            triclinic
loop_
_symmetry_equiv_pos_as_xyz
'x, y, z'
_cell_length_a     66.106018
_cell_length_b     71.8658
_cell_length_c     22.301321
_cell_angle_alpha  86.250894
_cell_angle_beta   85.975087
_cell_angle_gamma 90.029831
loop_
_atom_site_label
_atom_site_type_symbol
_atom_site_fract_x
_atom_site_fract_y
_atom_site_fract_z
_atom_type_partial_charge
H0 H 0.8492 0.48271 0.20306 0.0
H1 H 0.79237 0.48028 0.12097 0.0
H2 H 0.79592 0.50733 0.28651 0.0
H3 H 0.77797 0.52361 0.15633 0.0
C4 C 0.76512 0.51487 0.17755 0.0
O5 O 0.77191 0.49827 0.20369 0.0
H6 H 0.75756 0.52301 0.21333 0.0
C7 C 0.83308 0.48564 0.20389 0.0
C8 C 0.824 0.49574 0.25013 0.0
C9 C 0.8218 0.47987 0.15754 0.0
C10 C 0.80115 0.48426 0.1574 0.0
C11 C 0.7918 0.49398 0.20426 0.0
C12 C 0.80316 0.49954 0.251 0.0
H13 H 0.95715 0.822 0.14118 0.0
H14 H 0.97219 0.77618 0.0319 0.0
H15 H 0.95627 0.76604 0.22163 0.0
H16 H 0.98723 0.73859 0.17304 0.0
C17 C 0.98502 0.74208 0.12462 0.0
O18 O 0.96634 0.75046 0.12011 0.0
H19 H 0.99745 0.75171 0.10598 0.0
C20 C 0.95827 0.80712 0.13617 0.0
C21 C 0.9553 0.79484 0.18732 0.0
C22 C 0.9647 0.80066 0.08016 0.0
C23 C 0.96711 0.78143 0.07483 0.0
C24 C 0.96365 0.76892 0.12557 0.0
C25 C 0.95806 0.77565 0.18209 0.0
H26 H 0.70135 0.00878 0.1421 0.0
H27 H 0.75606 0.00971 0.02556 0.0
H28 H 0.7576 0.99095 0.21286 0.0
H29 H 0.77777 0.97373 0.06528 0.0
C30 C 0.78861 0.98169 0.09004 0.0
O31 O 0.77972 0.99792 0.10922 0.0
H32 H 0.79235 0.97269 0.13012 0.0
C33 C 0.71758 0.00653 0.13564 0.0
C34 C 0.72814 0.99945 0.18422 0.0
C35 C 0.72745 0.0102 0.07849 0.0
C36 C 0.74832 0.0069 0.06969 0.0
C37 C 0.75933 1.00013 0.11806 0.0
C38 C 0.74918 0.99628 0.17553 0.0
H39 H 0.54054 0.662 0.14385 0.0
H40 H 0.53019 0.71413 0.04512 0.0
H41 H 0.54741 0.71365 0.22787 0.0
H42 H 0.52209 0.74912 0.19217 0.0
C43 C 0.52261 0.7458 0.14411 0.0
O44 O 0.53938 0.73492 0.13146 0.0
H45 H 0.50835 0.73817 0.13736 0.0
C46 C 0.54026 0.67713 0.14151 0.0
C47 C 0.54474 0.68657 0.19202 0.0
C48 C 0.53482 0.68688 0.08868 0.0
C49 C 0.53409 0.70641 0.08604 0.0
C50 C 0.53882 0.71607 0.13596 0.0
C51 C 0.54385 0.70614 0.18934 0.0
H52 H 0.19355 0.51591 0.19281 0.0
H53 H 0.25208 0.5154 0.26511 0.0
H54 H 0.24457 0.49191 0.09537 0.0
H55 H 0.2856 0.47512 0.15987 0.0
C56 C 0.27813 0.48251 0.19758 0.0
O57 O 0.27058 0.49924 0.17469 0.0
H58 H 0.26569 0.47323 0.21853 0.0
C59 C 0.20952 0.51244 0.18859 0.0
C60 C 0.21735 0.50316 0.13875 0.0
C61 C 0.22187 0.51691 0.2341 0.0
C62 C 0.24246 0.51229 0.22962 0.0
C63 C 0.25065 0.5035 0.17915 0.0
C64 C 0.23816 0.49902 0.1336 0.0
H65 H 0.08322 0.1806 0.25123 0.0
H66 H 0.07108 0.22638 0.36331 0.0
H67 H 0.07534 0.23573 0.17026 0.0
H68 H 0.03986 0.24825 0.30417 0.0
C69 C 0.05029 0.25841 0.27781 0.0
O70 O 0.06981 0.25155 0.27334 0.0
H71 H 0.04493 0.26067 0.23174 0.0
C72 C 0.08137 0.19545 0.2561 0.0
C73 C 0.08048 0.2074 0.20429 0.0
C74 C 0.07772 0.20199 0.31368 0.0
C75 C 0.07414 0.22107 0.31921 0.0
C76 C 0.07369 0.23328 0.26753 0.0
C77 C 0.07656 0.2264 0.21001 0.0
H78 H 0.34326 0.00131 0.25693 0.0
H79 H 0.2853 0.99462 0.35508 0.0
H80 H 0.28859 0.00895 0.16379 0.0
H81 H 0.2477 0.02402 0.22925 0.0
C82 C 0.25261 0.01789 0.27287 0.0
O83 O 0.26388 0.00202 0.26224 0.0
H84 H 0.26206 0.02868 0.29151 0.0
C85 C 0.32685 0.00166 0.25718 0.0
C86 C 0.31757 0.00589 0.20334 0.0
C87 C 0.31542 0.99765 0.3116 0.0
C88 C 0.29423 0.99761 0.31291 0.0
C89 C 0.28447 0.00181 0.25981 0.0
C90 C 0.29615 0.00573 0.20471 0.0
H91 H 0.52523 0.33829 0.22696 0.0
H92 H 0.52179 0.28659 0.33552 0.0
H93 H 0.50436 0.2885 0.1528 0.0
H94 H 0.4821 0.25621 0.2332 0.0
C95 C 0.49119 0.2588 0.27191 0.0
O96 O 0.50955 0.26674 0.25044 0.0
H97 H 0.48246 0.26846 0.301 0.0
C98 C 0.52211 0.32342 0.23139 0.0
C99 C 0.51466 0.31468 0.18302 0.0
C100 C 0.52458 0.3135 0.28648 0.0
C101 C 0.51992 0.29442 0.29309 0.0
C102 C 0.51287 0.28536 0.24468 0.0
C103 C 0.50995 0.29553 0.18989 0.0
C104 C 0.02948 0.96832 0.76195 0.0
N105 N 0.00804 0.97426 0.59145 0.0
C106 C 0.02042 0.95955 0.58072 0.0
C107 C 0.01396 0.94497 0.54847 0.0
C108 C 0.99447 0.94539 0.5272 0.0
C109 C 0.98235 0.96117 0.53618 0.0
C110 C 0.98947 0.97553 0.56877 0.0
Zn111 Zn 0.01685 0.99217 0.65251 0.0
C112 C 0.98281 1.0002 0.74317 0.0
N113 N 0.03625 0.02549 0.7893 0.0
C114 C 0.05363 0.024 0.81855 0.0
C115 C 0.02363 0.04025 0.79628 0.0
C116 C 0.02843 0.05447 0.83223 0.0
C117 C 0.04633 0.05356 0.86267 0.0
C118 C 0.05896 0.03794 0.85589 0.0
Zn119 Zn 0.02808 0.00748 0.72747 0.0
O120 O 0.02273 0.96885 0.71 0.0
C121 C 0.06205 0.99938 0.63684 0.0
O122 O 0.03365 0.98348 0.78502 0.0
H123 H 0.00997 0.04135 0.77239 0.0
H124 H 0.03504 0.95866 0.59955 0.0
H125 H 0.06352 0.0122 0.81214 0.0
O126 O 0.04727 0.99193 0.61352 0.0
O127 O 0.05874 0.00701 0.68664 0.0
H128 H 0.9798 0.98728 0.57819 0.0
O129 O 0.0224 0.03101 0.66866 0.0
O130 O 0.01163 0.01575 0.59472 0.0
O131 O 0.99754 0.00757 0.76687 0.0
O132 O 0.98623 0.99276 0.6932 0.0
C133 C 0.01598 0.03104 0.61636 0.0
H134 H 0.02395 0.93325 0.5416 0.0
H135 H 0.96719 0.96201 0.52073 0.0
H136 H 0.01842 0.06635 0.83443 0.0
H137 H 0.07282 0.03652 0.87884 0.0
C138 C 0.49263 0.9904 0.61447 0.0
N139 N 0.51924 0.04232 0.6371 0.0
C140 C 0.51992 0.04508 0.57604 0.0
C141 C 0.51848 0.06301 0.54868 0.0
C142 C 0.51631 0.0784 0.58429 0.0
C143 C 0.51561 0.07517 0.64731 0.0
C144 C 0.51714 0.05693 0.67289 0.0
Zn145 Zn 0.5212 0.01533 0.67309 0.0
C146 C 0.49055 0.00622 0.77437 0.0
N147 N 0.52506 0.9582 0.73959 0.0
C148 C 0.52501 0.94326 0.70505 0.0
C149 C 0.52625 0.95585 0.80029 0.0
C150 C 0.52758 0.93803 0.82852 0.0
C151 C 0.52757 0.92233 0.79424 0.0
C152 C 0.52617 0.9251 0.73164 0.0
Zn153 Zn 0.52305 0.98516 0.70319 0.0
O154 O 0.49956 0.00692 0.61451 0.0
C155 C 0.55379 0.99449 0.60196 0.0
O156 O 0.5001 0.97751 0.64777 0.0
H157 H 0.52606 0.96785 0.82715 0.0
H158 H 0.52148 0.0333 0.54831 0.0
H159 H 0.52405 0.94543 0.65688 0.0
O160 O 0.54585 0.01039 0.60902 0.0
O161 O 0.54652 0.98035 0.63383 0.0
H162 H 0.51665 0.05445 0.72134 0.0
O163 O 0.54597 0.99339 0.75751 0.0
O164 O 0.54283 0.02327 0.7328 0.0
O165 O 0.49955 0.99059 0.77187 0.0
O166 O 0.49661 0.01974 0.73781 0.0
C167 C 0.55161 0.01013 0.76172 0.0
H168 H 0.51875 0.06474 0.50003 0.0
H169 H 0.51413 0.08661 0.67655 0.0
H170 H 0.52827 0.93657 0.87697 0.0
H171 H 0.52622 0.91338 0.70347 0.0
C172 C 0.53027 0.47192 0.62461 0.0
N173 N 0.47638 0.50186 0.6451 0.0
C174 C 0.47716 0.50126 0.58413 0.0
C175 C 0.45946 0.50154 0.55383 0.0
C176 C 0.44056 0.50245 0.58623 0.0
C177 C 0.44005 0.50284 0.64932 0.0
C178 C 0.45828 0.5026 0.67804 0.0
Zn179 Zn 0.50394 0.50154 0.68235 0.0
C180 C 0.50733 0.47442 0.78387 0.0
N181 N 0.56385 0.50026 0.74275 0.0
C182 C 0.58158 0.49846 0.70878 0.0
C183 C 0.56369 0.50151 0.80339 0.0
C184 C 0.58172 0.50097 0.83222 0.0
C185 C 0.60028 0.4989 0.79872 0.0
C186 C 0.60007 0.49773 0.736 0.0
Zn187 Zn 0.53618 0.5008 0.70628 0.0
O188 O 0.51277 0.47916 0.62989 0.0
C189 C 0.53302 0.52788 0.60475 0.0
O190 O 0.54473 0.4788 0.6508 0.0
H191 H 0.54947 0.50289 0.82977 0.0
H192 H 0.49162 0.50051 0.55862 0.0
H193 H 0.58138 0.49745 0.66065 0.0
O194 O 0.51494 0.5217 0.61312 0.0
O195 O 0.54648 0.52117 0.63792 0.0
H196 H 0.45799 0.50305 0.72649 0.0
O197 O 0.52711 0.52275 0.76057 0.0
O198 O 0.49551 0.52388 0.73625 0.0
O199 O 0.52542 0.48047 0.77415 0.0
O200 O 0.49358 0.48136 0.75214 0.0
C201 C 0.50971 0.53028 0.76471 0.0
H202 H 0.4606 0.50081 0.50535 0.0
H203 H 0.42578 0.50358 0.676 0.0
H204 H 0.58106 0.50233 0.88038 0.0
H205 H 0.61398 0.49598 0.70836 0.0
C206 C 0.0496 0.51749 0.6119 0.0
N207 N 0.02716 0.46284 0.6375 0.0
C208 C 0.02867 0.46272 0.57637 0.0
C209 C 0.0313 0.446 0.54843 0.0
C210 C 0.03225 0.42911 0.58358 0.0
C211 C 0.03081 0.42965 0.64667 0.0
C212 C 0.02828 0.44674 0.6728 0.0
Zn213 Zn 0.02263 0.48786 0.67534 0.0
C214 C 0.05013 0.49414 0.77071 0.0
N215 N 0.0129 0.54097 0.74843 0.0
C216 C 0.01278 0.55722 0.71351 0.0
C217 C 0.01041 0.54088 0.80952 0.0
C218 C 0.00772 0.55754 0.83782 0.0
C219 C 0.00781 0.57459 0.80314 0.0
C220 C 0.0103 0.57426 0.74004 0.0
Zn221 Zn 0.01747 0.51597 0.7104 0.0
O222 O 0.04458 0.50041 0.61272 0.0
C223 C 0.99012 0.50981 0.61481 0.0
O224 O 0.04054 0.52798 0.64877 0.0
H225 H 0.01059 0.52784 0.83654 0.0
H226 H 0.02775 0.47565 0.54906 0.0
H227 H 0.01481 0.55698 0.66502 0.0
O228 O 0.99952 0.49437 0.61616 0.0
O229 O 0.99484 0.52228 0.64933 0.0
H230 H 0.02702 0.44714 0.72131 0.0
O231 O 0.99457 0.50354 0.77055 0.0
O232 O 1.00034 0.47561 0.73889 0.0
O233 O 0.04004 0.50919 0.77116 0.0
O234 O 0.04591 0.48192 0.73468 0.0
C235 C 0.99022 0.48627 0.7729 0.0
H236 H 0.0327 0.44635 0.4997 0.0
H237 H 0.03124 0.41698 0.67562 0.0
H238 H 0.00548 0.557 0.88646 0.0
H239 H 0.01071 0.58703 0.71139 0.0
H240 H 0.2447 0.02781 0.3894 0.0
H241 H 0.21327 0.02357 0.45372 0.0
H242 H 0.18698 0.99368 0.31639 0.0
H243 H 0.21839 0.99837 0.25132 0.0
H244 H 0.16062 0.01798 0.35759 0.0
H245 H 0.20243 0.97166 0.45131 0.0
H246 H 0.23285 0.95962 0.49849 0.0
H247 H 0.22289 0.99713 0.63969 0.0
H248 H 0.19255 0.00958 0.59289 0.0
H249 H 0.07364 0.98358 0.53162 0.0
H250 H 0.10646 0.98564 0.47437 0.0
H251 H 0.13 0.01841 0.60921 0.0
H252 H 0.09706 0.01622 0.6675 0.0
H253 H 0.15776 0.99296 0.57071 0.0
H254 H 0.11585 0.0392 0.47663 0.0
H255 H 0.08498 0.05062 0.4304 0.0
H256 H 0.09504 0.01284 0.29006 0.0
H257 H 0.12583 0.00102 0.33583 0.0
C258 C 0.23229 0.02015 0.37323 0.0
C259 C 0.234 0.01342 0.31527 0.0
C260 C 0.2143 0.01767 0.41016 0.0
C261 C 0.19764 0.00816 0.39041 0.0
C262 C 0.19952 0.00109 0.33288 0.0
C263 C 0.21751 0.00365 0.29582 0.0
C264 C 0.17807 0.00621 0.42869 0.0
C265 C 0.16002 0.01224 0.4039 0.0
C266 C 0.17715 0.99922 0.48984 0.0
C267 C 0.19532 0.99167 0.51827 0.0
C268 C 0.20681 0.97744 0.49219 0.0
C269 C 0.22403 0.97052 0.5189 0.0
C270 C 0.22983 0.97764 0.57197 0.0
C271 C 0.21839 0.99165 0.59854 0.0
C272 C 0.20117 0.99863 0.57197 0.0
C273 C 0.08577 0.99117 0.54949 0.0
C274 C 0.08258 0.99982 0.60423 0.0
C275 C 0.10458 0.99241 0.5164 0.0
C276 C 0.12072 0.00245 0.53676 0.0
C277 C 0.1178 0.01064 0.5923 0.0
C278 C 0.09893 0.0094 0.62559 0.0
C279 C 0.1404 0.00461 0.49938 0.0
C280 C 0.15842 0.99868 0.52437 0.0
C281 C 0.14132 0.01169 0.43839 0.0
C282 C 0.12306 0.0191 0.40998 0.0
C283 C 0.11142 0.03326 0.43607 0.0
C284 C 0.09394 0.03981 0.40995 0.0
C285 C 0.08802 0.0324 0.35748 0.0
C286 C 0.09964 0.01853 0.33077 0.0
C287 C 0.11712 0.01192 0.35673 0.0
H288 H 0.07442 0.03739 0.3375 0.0
H289 H 0.24317 0.97227 0.59257 0.0
H290 H 0.51657 0.23029 0.2403 0.0
H291 H 0.52136 0.2002 0.29553 0.0
H292 H 0.47719 0.21547 0.43534 0.0
H293 H 0.47288 0.2458 0.38101 0.0
H294 H 0.50811 0.19894 0.48455 0.0
H295 H 0.46575 0.18508 0.32728 0.0
H296 H 0.45583 0.18471 0.22281 0.0
H297 H 0.50926 0.15353 0.17472 0.0
H298 H 0.51965 0.15392 0.27877 0.0
H299 H 0.49122 0.10668 0.62007 0.0
H300 H 0.48758 0.13768 0.56982 0.0
H301 H 0.53369 0.12453 0.43277 0.0
H302 H 0.53751 0.0936 0.48286 0.0
H303 H 0.50139 0.14002 0.38337 0.0
H304 H 0.54339 0.15393 0.54258 0.0
H305 H 0.55249 0.15409 0.6479 0.0
H306 H 0.49858 0.18493 0.69334 0.0
H307 H 0.489 0.18473 0.58842 0.0
C308 C 0.50806 0.22726 0.28313 0.0
C309 C 0.49459 0.24048 0.30684 0.0
C310 C 0.51066 0.21001 0.31445 0.0
C311 C 0.49948 0.20543 0.36942 0.0
C312 C 0.48604 0.21866 0.39318 0.0
C313 C 0.48356 0.23598 0.36208 0.0
C314 C 0.50171 0.18685 0.40198 0.0
C315 C 0.50637 0.18606 0.4626 0.0
C316 C 0.4998 0.16999 0.37325 0.0
C317 C 0.49357 0.16969 0.31068 0.0
C318 C 0.47546 0.17826 0.29432 0.0
C319 C 0.46974 0.17803 0.2352 0.0
C320 C 0.48194 0.16914 0.19212 0.0
C321 C 0.49985 0.16043 0.20812 0.0
C322 C 0.50565 0.16064 0.26717 0.0
C323 C 0.5008 0.11047 0.57971 0.0
C324 C 0.51463 0.0976 0.55548 0.0
C325 C 0.49867 0.12821 0.55094 0.0
C326 C 0.51044 0.1335 0.49762 0.0
C327 C 0.52437 0.12074 0.47367 0.0
C328 C 0.52649 0.10303 0.50231 0.0
C329 C 0.50791 0.15212 0.46575 0.0
C330 C 0.50314 0.15291 0.40528 0.0
C331 C 0.5096 0.16895 0.49474 0.0
C332 C 0.51538 0.16915 0.55778 0.0
C333 C 0.53339 0.16062 0.57514 0.0
C334 C 0.53865 0.16074 0.63474 0.0
C335 C 0.5261 0.16947 0.67732 0.0
C336 C 0.50827 0.17815 0.66033 0.0
C337 C 0.50293 0.17805 0.60079 0.0
H338 H 0.53019 0.16955 0.72345 0.0
H339 H 0.47748 0.16897 0.14637 0.0
H340 H 0.31199 0.50459 0.1807 0.0
H341 H 0.338 0.50926 0.2514 0.0
H342 H 0.30537 0.47226 0.38477 0.0
H343 H 0.27905 0.46804 0.31461 0.0
H344 H 0.31967 0.5012 0.43684 0.0
H345 H 0.34731 0.45757 0.30026 0.0
H346 H 0.35763 0.44557 0.20167 0.0
H347 H 0.39877 0.49169 0.16195 0.0
H348 H 0.38848 0.50412 0.25999 0.0
H349 H 0.40505 0.4831 0.61647 0.0
H350 H 0.37567 0.48116 0.5558 0.0
H351 H 0.40432 0.52027 0.42107 0.0
H352 H 0.43353 0.52237 0.48142 0.0
H353 H 0.39159 0.48945 0.37211 0.0
H354 H 0.36363 0.53277 0.51106 0.0
H355 H 0.3536 0.54373 0.6113 0.0
H356 H 0.31339 0.49681 0.6485 0.0
H357 H 0.3234 0.48543 0.54874 0.0
C358 C 0.31033 0.49763 0.22534 0.0
C359 C 0.29354 0.48601 0.24233 0.0
C360 C 0.32523 0.50018 0.26557 0.0
C361 C 0.32382 0.49089 0.32318 0.0
C362 C 0.30681 0.47956 0.34061 0.0
C363 C 0.29182 0.47711 0.30049 0.0
C364 C 0.34028 0.49268 0.36466 0.0
C365 C 0.33537 0.49841 0.42294 0.0
C366 C 0.36082 0.48927 0.34638 0.0
C367 C 0.36697 0.48187 0.28724 0.0
C368 C 0.35843 0.46524 0.27029 0.0
C369 C 0.3643 0.45835 0.21454 0.0
C370 C 0.37881 0.46789 0.17551 0.0
C371 C 0.38751 0.48433 0.19219 0.0
C372 C 0.38168 0.4913 0.24786 0.0
C373 C 0.40489 0.49156 0.5745 0.0
C374 C 0.42171 0.50275 0.55348 0.0
C375 C 0.38811 0.49041 0.53981 0.0
C376 C 0.38782 0.50055 0.48378 0.0
C377 C 0.40428 0.51222 0.46389 0.0
C378 C 0.42099 0.51336 0.4984 0.0
C379 C 0.37103 0.49822 0.44393 0.0
C380 C 0.37589 0.49228 0.38598 0.0
C381 C 0.35048 0.5013 0.46274 0.0
C382 C 0.34443 0.50814 0.52267 0.0
C383 C 0.35279 0.5247 0.54081 0.0
C384 C 0.34708 0.53101 0.5975 0.0
C385 C 0.33291 0.52094 0.63631 0.0
C386 C 0.32439 0.50458 0.61843 0.0
C387 C 0.33006 0.4982 0.5618 0.0
H388 H 0.32851 0.52585 0.68018 0.0
H389 H 0.38336 0.46251 0.1324 0.0
H390 H 0.06665 0.26532 0.38374 0.0
H391 H 0.06482 0.29406 0.43731 0.0
H392 H 0.02972 0.31992 0.29887 0.0
H393 H 0.03206 0.29139 0.24448 0.0
H394 H 0.0572 0.34358 0.32845 0.0
H395 H 0.00774 0.30297 0.43773 0.0
H396 H 0.9953 0.2741 0.49426 0.0
H397 H 0.03726 0.28193 0.62907 0.0
H398 H 0.05015 0.31074 0.57288 0.0
H399 H 0.01467 0.41865 0.48326 0.0
H400 H 0.01925 0.38959 0.43328 0.0
H401 H 0.05902 0.36938 0.56801 0.0
H402 H 0.0549 0.39865 0.6178 0.0
H403 H 0.03086 0.34286 0.5425 0.0
H404 H 0.07913 0.3845 0.43359 0.0
H405 H 0.0906 0.41365 0.3769 0.0
H406 H 0.04967 0.40401 0.24082 0.0
H407 H 0.03772 0.37493 0.29717 0.0
C408 C 0.05875 0.27724 0.36458 0.0
C409 C 0.04979 0.27629 0.30955 0.0
C410 C 0.05755 0.29358 0.3954 0.0
C411 C 0.04697 0.30912 0.37242 0.0
C412 C 0.03802 0.30815 0.31738 0.0
C413 C 0.03935 0.29187 0.28636 0.0
C414 C 0.04516 0.3264 0.40556 0.0
C415 C 0.05121 0.34342 0.37504 0.0
C416 C 0.03781 0.32619 0.46684 0.0
C417 C 0.03006 0.3089 0.50077 0.0
C418 C 0.01443 0.29846 0.47918 0.0
C419 C 0.00728 0.28212 0.51121 0.0
C420 C 0.01553 0.27616 0.56513 0.0
C421 C 0.03091 0.28655 0.58724 0.0
C422 C 0.03813 0.30289 0.55535 0.0
C423 C 0.02459 0.40815 0.50201 0.0
C424 C 0.03456 0.4111 0.55434 0.0
C425 C 0.02712 0.3915 0.47347 0.0
C426 C 0.03966 0.37742 0.49656 0.0
C427 C 0.04928 0.38009 0.54946 0.0
C428 C 0.04684 0.3968 0.57797 0.0
C429 C 0.0427 0.35996 0.46514 0.0
C430 C 0.03691 0.34295 0.49599 0.0
C431 C 0.05017 0.36018 0.40405 0.0
C432 C 0.0574 0.37762 0.3699 0.0
C433 C 0.07245 0.38867 0.39182 0.0
C434 C 0.07907 0.40517 0.35971 0.0
C435 C 0.07084 0.4107 0.30536 0.0
C436 C 0.05602 0.39972 0.28295 0.0
C437 C 0.04933 0.38322 0.31493 0.0
H438 H 0.07598 0.42348 0.28056 0.0
H439 H 0.00997 0.26351 0.58986 0.0
H440 H 0.82379 0.99814 0.11985 0.0
H441 H 0.85603 0.0024 0.05858 0.0
H442 H 0.82936 0.97835 0.91025 0.0
H443 H 0.79724 0.97402 0.97151 0.0
H444 H 0.86613 0.96356 0.9266 0.0
H445 H 0.8388 0.02547 0.9093 0.0
H446 H 0.82427 0.05444 0.94701 0.0
H447 H 0.87779 0.06328 0.04016 0.0
H448 H 0.89253 0.03422 0.00367 0.0
H449 H 0.94744 0.98576 0.70644 0.0
H450 H 0.91409 0.98375 0.76182 0.0
H451 H 0.93819 0.01078 0.90871 0.0
H452 H 0.97135 0.01321 0.85315 0.0
H453 H 0.90225 0.02421 0.89138 0.0
H454 H 0.92944 0.96249 0.91283 0.0
H455 H 0.94441 0.9333 0.87819 0.0
H456 H 0.89192 0.92367 0.78129 0.0
H457 H 0.87674 0.95294 0.81473 0.0
C458 C 0.82479 0.99401 0.0739 0.0
C459 C 0.80794 0.98587 0.05043 0.0
C460 C 0.84321 0.99644 0.03883 0.0
C461 C 0.84521 0.9908 0.9794 0.0
C462 C 0.8283 0.98281 0.95584 0.0
C463 C 0.80989 0.98043 0.99081 0.0
C464 C 0.865 0.9928 0.94233 0.0
C465 C 0.87387 0.97689 0.91818 0.0
C466 C 0.87548 0.01006 0.93242 0.0
C467 C 0.86668 0.02757 0.95421 0.0
C468 C 0.8474 0.03352 0.9382 0.0
C469 C 0.83914 0.04997 0.95929 0.0
C470 C 0.85008 0.06067 0.99608 0.0
C471 C 0.86932 0.05497 0.01172 0.0
C472 C 0.87764 0.03852 0.9908 0.0
C473 C 0.94563 0.99136 0.7504 0.0
C474 C 0.96218 0.9996 0.77524 0.0
C475 C 0.92653 0.9901 0.7823 0.0
C476 C 0.92355 0.99685 0.84013 0.0
C477 C 0.93997 0.00542 0.86436 0.0
C478 C 0.95901 0.00677 0.83244 0.0
C479 C 0.90344 0.99496 0.87564 0.0
C480 C 0.89451 0.01088 0.89959 0.0
C481 C 0.89299 0.97767 0.8858 0.0
C482 C 0.90204 0.96002 0.86578 0.0
C483 C 0.92115 0.95422 0.88377 0.0
C484 C 0.92967 0.93765 0.86442 0.0
C485 C 0.91915 0.92666 0.82743 0.0
C486 C 0.90006 0.93221 0.80987 0.0
C487 C 0.89149 0.94878 0.82905 0.0
H488 H 0.92576 0.91384 0.81248 0.0
H489 H 0.84365 0.0734 0.01236 0.0
H490 H 0.54779 0.77559 0.1519 0.0
H491 H 0.54996 0.80483 0.08846 0.0
H492 H 0.50287 0.78518 0.9834 0.0
H493 H 0.5011 0.75577 0.04593 0.0
H494 H 0.53181 0.80238 0.9115 0.0
H495 H 0.49296 0.81669 0.09293 0.0
H496 H 0.4861 0.81824 0.20262 0.0
H497 H 0.53869 0.85294 0.20927 0.0
H498 H 0.54601 0.8514 0.09968 0.0
H499 H 0.5056 0.89117 0.77454 0.0
H500 H 0.506 0.86055 0.8295 0.0
H501 H 0.5526 0.87983 0.93692 0.0
H502 H 0.55213 0.91045 0.88254 0.0
H503 H 0.52389 0.86263 0.00691 0.0
H504 H 0.56246 0.84878 0.82486 0.0
H505 H 0.56919 0.84729 0.71512 0.0
H506 H 0.51711 0.81191 0.70922 0.0
H507 H 0.5099 0.81339 0.81885 0.0
C508 C 0.53793 0.77759 0.11521 0.0
C509 C 0.52403 0.76363 0.10439 0.0
C510 C 0.53912 0.79428 0.07913 0.0
C511 C 0.5263 0.79739 0.03177 0.0
C512 C 0.51283 0.78318 0.01982 0.0
C513 C 0.51174 0.76643 0.05571 0.0
C514 C 0.52674 0.81553 0.99529 0.0
C515 C 0.52983 0.81555 0.9323 0.0
C516 C 0.52457 0.83277 0.02236 0.0
C517 C 0.52014 0.83378 0.08821 0.0
C518 C 0.50314 0.82454 0.11786 0.0
C519 C 0.49915 0.82544 0.18 0.0
C520 C 0.51198 0.83564 0.21292 0.0
C521 C 0.52878 0.84502 0.18372 0.0
C522 C 0.53285 0.84416 0.1216 0.0
C523 C 0.51614 0.88879 0.80926 0.0
C524 C 0.52878 0.90328 0.8243 0.0
C525 C 0.51636 0.87127 0.84069 0.0
C526 C 0.52942 0.8678 0.88725 0.0
C527 C 0.54232 0.88216 0.90145 0.0
C528 C 0.54201 0.89967 0.87036 0.0
C529 C 0.52908 0.84954 0.92305 0.0
C530 C 0.52593 0.84949 0.986 0.0
C531 C 0.53118 0.8323 0.89588 0.0
C532 C 0.53553 0.83135 0.82998 0.0
C533 C 0.55235 0.8408 0.80009 0.0
C534 C 0.55627 0.83994 0.73792 0.0
C535 C 0.54356 0.82955 0.70519 0.0
C536 C 0.52693 0.81997 0.73461 0.0
C537 C 0.52293 0.8208 0.79677 0.0
H538 H 0.54662 0.8289 0.65706 0.0
H539 H 0.50887 0.83632 0.26102 0.0
H540 H 0.76867 0.52294 0.05497 0.0
H541 H 0.74327 0.5182 0.9822 0.0
H542 H 0.70259 0.49336 0.12503 0.0
H543 H 0.72798 0.49814 0.19788 0.0
H544 H 0.70346 0.47403 0.0209 0.0
H545 H 0.69656 0.53782 0.07729 0.0
H546 H 0.70897 0.56962 0.08956 0.0
H547 H 0.72587 0.57657 0.89993 0.0
H548 H 0.71379 0.54469 0.88669 0.0
H549 H 0.60693 0.48178 0.90892 0.0
H550 H 0.63738 0.48279 0.9638 0.0
H551 H 0.66835 0.5142 0.8131 0.0
H552 H 0.63739 0.51421 0.75902 0.0
H553 H 0.67543 0.52947 0.91165 0.0
H554 H 0.67954 0.46721 0.85178 0.0
H555 H 0.66762 0.43538 0.83765 0.0
H556 H 0.65711 0.42503 0.02911 0.0
H557 H 0.6687 0.45689 0.0444 0.0
C558 C 0.75433 0.5164 0.07064 0.0
C559 C 0.75013 0.51104 0.13199 0.0
C560 C 0.73985 0.51372 0.02914 0.0
C561 C 0.72097 0.5056 0.04833 0.0
C562 C 0.71705 0.49966 0.10929 0.0
C563 C 0.73148 0.50243 0.15082 0.0
C564 C 0.70498 0.50388 0.00549 0.0
C565 C 0.6972 0.48613 0.99726 0.0
C566 C 0.69731 0.51963 0.9732 0.0
C567 C 0.70449 0.53881 0.98113 0.0
C568 C 0.70307 0.54607 0.0383 0.0
C569 C 0.71002 0.56412 0.04541 0.0
C570 C 0.71826 0.57509 0.99559 0.0
C571 C 0.71952 0.56805 0.93851 0.0
C572 C 0.71261 0.55 0.93117 0.0
C573 C 0.62015 0.48901 0.88737 0.0
C574 C 0.61958 0.49807 0.82961 0.0
C575 C 0.63771 0.48932 0.91857 0.0
C576 C 0.65532 0.49835 0.8924 0.0
C577 C 0.65499 0.50707 0.83421 0.0
C578 C 0.63731 0.50693 0.80309 0.0
C579 C 0.67358 0.49958 0.92745 0.0
C580 C 0.68181 0.51727 0.93442 0.0
C581 C 0.68178 0.48373 0.95813 0.0
C582 C 0.67487 0.46451 0.94919 0.0
C583 C 0.67456 0.4582 0.89086 0.0
C584 C 0.66788 0.44014 0.88265 0.0
C585 C 0.66158 0.42821 0.93244 0.0
C586 C 0.66199 0.43429 0.99058 0.0
C587 C 0.66864 0.45234 0.99905 0.0
H588 H 0.65641 0.41423 0.92599 0.0
H589 H 0.72363 0.58905 0.00118 0.0
H590 H 1.001 0.70814 0.15803 0.0
H591 H 0.00472 0.68057 0.09913 0.0
H592 H 0.97641 0.70991 0.95247 0.0
H593 H 0.97278 0.73758 0.01124 0.0
H594 H 0.96163 0.67356 0.97743 0.0
H595 H 0.02583 0.70493 0.94141 0.0
H596 H 0.0569 0.72008 0.96994 0.0
H597 H 0.07397 0.66929 0.0652 0.0
H598 H 0.04284 0.6539 0.03795 0.0
H599 H 0.98736 0.60611 0.76554 0.0
H600 H 0.98364 0.63534 0.81526 0.0
H601 H 0.01853 0.6127 0.95909 0.0
H602 H 0.02332 0.58391 0.90807 0.0
H603 H 0.02974 0.64698 0.93069 0.0
H604 H 0.96533 0.61588 0.97234 0.0
H605 H 0.93402 0.60041 0.94695 0.0
H606 H 0.91707 0.65002 0.84497 0.0
H607 H 0.94842 0.66571 0.86914 0.0
C608 C 0.99541 0.70862 0.11345 0.0
C609 C 0.98622 0.72482 0.08963 0.0
C610 C 0.99763 0.69293 0.07975 0.0
C611 C 0.99088 0.69323 0.02138 0.0
C612 C 0.98161 0.70937 0.99754 0.0
C613 C 0.97951 0.72512 0.03111 0.0
C614 C 0.99371 0.67671 0.98513 0.0
C615 C 0.97653 0.66788 0.96637 0.0
C616 C 0.01313 0.66913 0.97185 0.0
C617 C 0.03191 0.67832 0.98809 0.0
C618 C 0.03613 0.69703 0.96885 0.0
C619 C 0.05376 0.70565 0.98472 0.0
C620 C 0.06738 0.69566 0.01948 0.0
C621 C 0.0634 0.67701 0.03833 0.0
C622 C 0.04577 0.66833 0.02263 0.0
C623 C 0.99448 0.60741 0.80735 0.0
C624 C 0.00553 0.59253 0.8329 0.0
C625 C 0.99212 0.62408 0.83614 0.0
C626 C 1.00051 0.62614 0.89152 0.0
C627 C 0.01181 0.61144 0.91659 0.0
C628 C 0.01434 0.59486 0.88761 0.0
C629 C 0.99763 0.64358 0.92354 0.0
C630 C 0.01482 0.65264 0.94146 0.0
C631 C 0.9782 0.65129 0.93644 0.0
C632 C 0.95932 0.6419 0.92202 0.0
C633 C 0.955 0.62344 0.94413 0.0
C634 C 0.93723 0.61464 0.93002 0.0
C635 C 0.9236 0.62421 0.89423 0.0
C636 C 0.92767 0.64262 0.87261 0.0
C637 C 0.94542 0.65147 0.88653 0.0
H638 H 0.90985 0.61738 0.88336 0.0
H639 H 0.08102 0.70236 0.03172 0.0
H640 H 0.04571 0.19925 0.39788 0.0
H641 H 0.03532 0.17109 0.46022 0.0
H642 H 0.09156 0.14464 0.40541 0.0
H643 H 0.10214 0.17283 0.34383 0.0
H644 H 0.05676 0.12677 0.37245 0.0
H645 H 0.0823 0.15132 0.54764 0.0
H646 H 0.08582 0.17443 0.62327 0.0
H647 H 0.02212 0.17005 0.67502 0.0
H648 H 0.01815 0.1471 0.59907 0.0
H649 H 0.04371 0.03794 0.52425 0.0
H650 H 0.05409 0.06848 0.47855 0.0
H651 H 1.00393 0.09376 0.57761 0.0
H652 H 0.99475 0.06316 0.62753 0.0
H653 H 0.0345 0.11324 0.58777 0.0
H654 H 0.00865 0.08839 0.41292 0.0
H655 H 0.00523 0.06501 0.33796 0.0
H656 H 0.06857 0.07068 0.28251 0.0
H657 H 0.07249 0.09376 0.35797 0.0
C658 C 0.05625 0.18776 0.4014 0.0
C659 C 0.07463 0.1881 0.36555 0.0
C660 C 0.05024 0.17164 0.43671 0.0
C661 C 0.06257 0.15574 0.43659 0.0
C662 C 0.08178 0.15674 0.40561 0.0
C663 C 0.08783 0.17285 0.37069 0.0
C664 C 0.0543 0.13741 0.46066 0.0
C665 C 0.0521 0.12367 0.41969 0.0
C666 C 0.04755 0.13375 0.52172 0.0
C667 C 0.04989 0.14764 0.56716 0.0
C668 C 0.06899 0.15543 0.57468 0.0
C669 C 0.07108 0.16847 0.61773 0.0
C670 C 0.05419 0.17375 0.6538 0.0
C671 C 0.03518 0.16597 0.64698 0.0
C672 C 0.03301 0.15293 0.60398 0.0
C673 C 0.03453 0.04997 0.53456 0.0
C674 C 0.01813 0.0483 0.57791 0.0
C675 C 0.04045 0.06746 0.50844 0.0
C676 C 0.02958 0.08353 0.52344 0.0
C677 C 0.01256 0.08164 0.56502 0.0
C678 C 0.0071 0.06418 0.59286 0.0
C679 C 0.03695 0.10234 0.49955 0.0
C680 C 0.03896 0.11626 0.54039 0.0
C681 C 0.04336 0.10627 0.43801 0.0
C682 C 0.04088 0.0927 0.39155 0.0
C683 C 0.02187 0.08458 0.38498 0.0
C684 C 0.01986 0.07135 0.34246 0.0
C685 C 0.03671 0.06626 0.3059 0.0
C686 C 0.05556 0.07456 0.31114 0.0
C687 C 0.05768 0.08771 0.35376 0.0
H688 H 0.03518 0.05589 0.27341 0.0
H689 H 0.05585 0.18383 0.68714 0.0
H690 H 0.32141 0.96425 0.37262 0.0
H691 H 0.34757 0.95761 0.44421 0.0
H692 H 0.36176 0.01638 0.43892 0.0
H693 H 0.33558 0.02288 0.36881 0.0
H694 H 0.38641 0.96306 0.41636 0.0
H695 H 0.38301 0.02888 0.55867 0.0
H696 H 0.35712 0.0477 0.6115 0.0
H697 H 0.31563 0.00138 0.62538 0.0
H698 H 0.34136 0.98217 0.57348 0.0
H699 H 0.47137 0.01594 0.54904 0.0
H700 H 0.43795 0.01203 0.51198 0.0
H701 H 0.43796 0.95377 0.57195 0.0
H702 H 0.47156 0.95756 0.61015 0.0
H703 H 0.40308 0.99996 0.58675 0.0
H704 H 0.40828 0.93249 0.46523 0.0
H705 H 0.43375 0.91305 0.41282 0.0
H706 H 0.47024 0.96164 0.36044 0.0
H707 H 0.44487 0.98137 0.41181 0.0
C708 C 0.32957 0.97573 0.38913 0.0
C709 C 0.32642 0.99407 0.3663 0.0
C710 C 0.34461 0.97194 0.4294 0.0
C711 C 0.35658 0.98649 0.44733 0.0
C712 C 0.35248 0.00494 0.42703 0.0
C713 C 0.33752 0.00868 0.38697 0.0
C714 C 0.37506 0.98254 0.48012 0.0
C715 C 0.38981 0.97073 0.45478 0.0
C716 C 0.37964 0.99264 0.52992 0.0
C717 C 0.36413 0.00409 0.56186 0.0
C718 C 0.36842 0.02265 0.57335 0.0
C719 C 0.35375 0.0334 0.60305 0.0
C720 C 0.33473 0.02575 0.62169 0.0
C721 C 0.33036 0.00731 0.61077 0.0
C722 C 0.34497 0.99649 0.58112 0.0
C723 C 0.46448 0.00219 0.55367 0.0
C724 C 0.47413 0.98707 0.58288 0.0
C725 C 0.4453 1.00003 0.53279 0.0
C726 C 0.43543 0.98268 0.53987 0.0
C727 C 0.44535 0.96729 0.56624 0.0
C728 C 0.46457 0.96947 0.58775 0.0
C729 C 0.41448 0.98117 0.52123 0.0
C730 C 0.39936 0.99193 0.54944 0.0
C731 C 0.4095 0.96998 0.47456 0.0
C732 C 0.42482 0.95834 0.44312 0.0
C733 C 0.42174 0.93901 0.44247 0.0
C734 C 0.43615 0.92794 0.41292 0.0
C735 C 0.45365 0.93609 0.38356 0.0
C736 C 0.45674 0.95533 0.38347 0.0
C737 C 0.44236 0.96645 0.4129 0.0
H738 H 0.46479 0.9275 0.36073 0.0
H739 H 0.3234 0.03411 0.64465 0.0
H740 H 0.55917 0.33345 0.29361 0.0
H741 H 0.56437 0.35751 0.36424 0.0
H742 H 0.50742 0.34228 0.46119 0.0
H743 H 0.5024 0.31793 0.39142 0.0
H744 H 0.51214 0.38039 0.40067 0.0
H745 H 0.54438 0.33676 0.53685 0.0
H746 H 0.56982 0.31324 0.56445 0.0
H747 H 0.61767 0.35271 0.51266 0.0
H748 H 0.59251 0.37641 0.48388 0.0
H749 H 0.50105 0.44665 0.61101 0.0
H750 H 0.50416 0.41743 0.56256 0.0
H751 H 0.56791 0.4282 0.51878 0.0
H752 H 0.56505 0.45738 0.57082 0.0
H753 H 0.56219 0.39236 0.54952 0.0
H754 H 0.53227 0.43568 0.41191 0.0
H755 H 0.5084 0.45993 0.37848 0.0
H756 H 0.45845 0.42209 0.42205 0.0
H757 H 0.48199 0.39769 0.45656 0.0
C758 C 0.54823 0.33476 0.33158 0.0
C759 C 0.53043 0.3239 0.33748 0.0
C760 C 0.55119 0.34847 0.37175 0.0
C761 C 0.53625 0.35163 0.41767 0.0
C762 C 0.51915 0.33991 0.42615 0.0
C763 C 0.51635 0.32599 0.3866 0.0
C764 C 0.53672 0.369 0.44947 0.0
C765 C 0.52286 0.38292 0.43398 0.0
C766 C 0.55143 0.37253 0.49035 0.0
C767 C 0.56656 0.3583 0.50756 0.0
C768 C 0.56033 0.34037 0.53071 0.0
C769 C 0.5747 0.32702 0.54674 0.0
C770 C 0.59535 0.33146 0.54014 0.0
C771 C 0.60167 0.34928 0.51766 0.0
C772 C 0.58736 0.36268 0.50154 0.0
C773 C 0.51575 0.44291 0.59084 0.0
C774 C 0.53275 0.45447 0.5936 0.0
C775 C 0.5175 0.42616 0.56308 0.0
C776 C 0.53613 0.42084 0.53549 0.0
C777 C 0.55333 0.43212 0.53934 0.0
C778 C 0.55168 0.4488 0.56865 0.0
C779 C 0.53721 0.40366 0.50188 0.0
C780 C 0.55145 0.38986 0.5163 0.0
C781 C 0.52312 0.40031 0.45871 0.0
C782 C 0.5089 0.41489 0.43723 0.0
C783 C 0.51619 0.43256 0.41467 0.0
C784 C 0.50271 0.44633 0.39551 0.0
C785 C 0.48192 0.44256 0.39825 0.0
C786 C 0.47456 0.42499 0.41998 0.0
C787 C 0.48796 0.41117 0.43928 0.0
H788 H 0.47151 0.45325 0.38345 0.0
H789 H 0.60646 0.3211 0.55259 0.0
H790 H 0.21397 0.49934 0.34408 0.0
H791 H 0.18758 0.50821 0.4192 0.0
H792 H 0.18089 0.56105 0.31912 0.0
H793 H 0.20671 0.55178 0.24268 0.0
H794 H 0.17473 0.53409 0.4945 0.0
H795 H 0.13239 0.56828 0.30206 0.0
H796 H 0.1322 0.56902 0.1912 0.0
H797 H 0.1547 0.51297 0.19317 0.0
H798 H 0.15513 0.51195 0.30397 0.0
H799 H 0.07331 0.54828 0.62232 0.0
H800 H 0.10533 0.55648 0.56393 0.0
H801 H 0.09742 0.51007 0.45433 0.0
H802 H 0.06566 0.50185 0.512 0.0
H803 H 0.11152 0.54075 0.38742 0.0
H804 H 0.12528 0.50534 0.57245 0.0
H805 H 0.12417 0.49972 0.68295 0.0
H806 H 0.15737 0.55048 0.69616 0.0
H807 H 0.15835 0.55657 0.5857 0.0
C808 C 0.20746 0.51316 0.33972 0.0
C809 C 0.21219 0.5249 0.28794 0.0
C810 C 0.19238 0.51824 0.38255 0.0
C811 C 0.18195 0.53512 0.374 0.0
C812 C 0.18852 0.54783 0.32603 0.0
C813 C 0.20334 0.54262 0.28268 0.0
C814 C 0.16214 0.53765 0.40794 0.0
C815 C 0.16093 0.53591 0.47121 0.0
C816 C 0.14406 0.53967 0.37757 0.0
C817 C 0.14398 0.54014 0.31105 0.0
C818 C 0.13732 0.55614 0.27874 0.0
C819 C 0.13722 0.55662 0.21597 0.0
C820 C 0.14355 0.54109 0.18517 0.0
C821 C 0.14995 0.52503 0.21707 0.0
C822 C 0.15018 0.52451 0.27981 0.0
C823 C 0.07823 0.54009 0.58495 0.0
C824 C 0.06708 0.52436 0.57184 0.0
C825 C 0.09655 0.54472 0.55195 0.0
C826 C 0.10379 0.53377 0.50525 0.0
C827 C 0.09208 0.51871 0.49018 0.0
C828 C 0.07397 0.51399 0.52331 0.0
C829 C 0.12407 0.53699 0.47385 0.0
C830 C 0.12535 0.53969 0.41093 0.0
C831 C 0.14208 0.53528 0.50459 0.0
C832 C 0.14164 0.53154 0.57091 0.0
C833 C 0.13218 0.51539 0.59896 0.0
C834 C 0.1316 0.5121 0.66157 0.0
C835 C 0.14063 0.52477 0.69658 0.0
C836 C 0.15033 0.54071 0.669 0.0
C837 C 0.15089 0.54409 0.6064 0.0
H838 H 0.14018 0.5222 0.74504 0.0
H839 H 0.14341 0.54148 0.13663 0.0
H840 H 0.94439 0.83134 0.03869 0.0
H841 H 0.95886 0.85793 0.97599 0.0
H842 H 0.01525 0.82834 0.95058 0.0
H843 H 1.00088 0.80175 0.01386 0.0
H844 H 0.02027 0.86291 0.99326 0.0
H845 H 0.98671 0.83679 0.83353 0.0
H846 H 0.95801 0.82419 0.78366 0.0
H847 H 0.92586 0.87565 0.80167 0.0
H848 H 0.95425 0.88848 0.85235 0.0
H849 H 0.03595 0.93509 0.71441 0.0
H850 H 0.02934 0.90432 0.76436 0.0
H851 H 0.01739 0.92914 0.9342 0.0
H852 H 0.02426 0.96021 0.8841 0.0
H853 H 0.99228 0.89536 0.81448 0.0
H854 H 0.0252 0.89383 0.04817 0.0
H855 H 0.05443 0.90633 0.09587 0.0
H856 H 0.08929 0.90938 0.9256 0.0
H857 H 0.06039 0.89665 0.87704 0.0
C858 C 0.95968 0.83033 0.01826 0.0
C859 C 0.97151 0.8145 0.03086 0.0
C860 C 0.96793 0.84551 0.98255 0.0
C861 C 0.98813 0.84509 0.95879 0.0
C862 C 0.99963 0.82891 0.9686 0.0
C863 C 0.99134 0.81366 0.00408 0.0
C864 C 0.99769 0.86211 0.92829 0.0
C865 C 0.01425 0.86997 0.9539 0.0
C866 C 0.98975 0.8713 0.87718 0.0
C867 C 0.97255 0.86353 0.8473 0.0
C868 C 0.97344 0.84535 0.82741 0.0
C869 C 0.95724 0.83818 0.79887 0.0
C870 C 0.9401 0.84908 0.78973 0.0
C871 C 0.93913 0.8672 0.80893 0.0
C872 C 0.95528 0.87444 0.83749 0.0
C873 C 0.03245 0.93397 0.76273 0.0
C874 C 0.03044 0.95002 0.79541 0.0
C875 C 0.02862 0.91638 0.79113 0.0
C876 C 0.02267 0.91446 0.85276 0.0
C877 C 0.02208 0.93033 0.88657 0.0
C878 C 0.02607 0.94805 0.85805 0.0
C879 C 0.01489 0.89621 0.87939 0.0
C880 C 0.99846 0.88823 0.85349 0.0
C881 C 0.02298 0.88693 0.93013 0.0
C882 C 0.04052 0.8945 0.95884 0.0
C883 C 0.03912 0.89713 0.02092 0.0
C884 C 0.05563 0.90425 0.04812 0.0
C885 C 0.07368 0.90872 0.01374 0.0
C886 C 0.07527 0.906 0.95212 0.0
C887 C 0.05881 0.89887 0.92471 0.0
H888 H 0.08644 0.91423 0.03488 0.0
H889 H 0.92759 0.84351 0.76756 0.0
H890 H 0.70532 0.04187 0.06897 0.0
H891 H 0.6777 0.04789 0.00285 0.0
H892 H 0.69301 0.9979 0.91286 0.0
H893 H 0.72105 0.99217 0.97803 0.0
H894 H 0.67722 0.024 0.83572 0.0
H895 H 0.66033 0.99558 0.03313 0.0
H896 H 0.65969 0.99292 0.14406 0.0
H897 H 0.62617 0.04396 0.15226 0.0
H898 H 0.62698 0.04712 0.0412 0.0
H899 H 0.58009 0.98508 0.79508 0.0
H900 H 0.61192 0.99114 0.83942 0.0
H901 H 0.59648 0.04924 0.8467 0.0
H902 H 0.56458 0.04344 0.80013 0.0
H903 H 0.61212 0.02343 0.96141 0.0
H904 H 0.62695 0.04836 0.75586 0.0
H905 H 0.62721 0.04705 0.64564 0.0
H906 H 0.66399 0.99787 0.65406 0.0
H907 H 0.66356 0.99862 0.76469 0.0
C908 C 0.70323 0.0326 0.03344 0.0
C909 C 0.71514 0.01654 0.02848 0.0
C910 C 0.68742 0.03598 0.99597 0.0
C911 C 0.68301 0.0231 0.95397 0.0
C912 C 0.69612 0.00798 0.9451 0.0
C913 C 0.71214 0.00473 0.98219 0.0
C914 C 0.66329 0.02385 0.92604 0.0
C915 C 0.663 0.02395 0.86315 0.0
C916 C 0.6447 0.0237 0.96196 0.0
C917 C 0.64393 0.02171 0.02881 0.0
C918 C 0.65295 0.00631 0.05856 0.0
C919 C 0.65255 0.0047 0.12146 0.0
C920 C 0.64294 0.01828 0.15519 0.0
C921 C 0.63366 0.03347 0.12606 0.0
C922 C 0.63409 0.03519 0.06313 0.0
C923 C 0.5833 0.99915 0.80648 0.0
C924 C 0.56978 0.0138 0.79421 0.0
C925 C 0.60156 0.00257 0.83148 0.0
C926 C 0.60654 0.02062 0.84562 0.0
C927 C 0.59286 0.03523 0.83555 0.0
C928 C 0.57468 0.03189 0.8092 0.0
C929 C 0.62611 0.02387 0.8713 0.0
C930 C 0.62636 0.02411 0.93396 0.0
C931 C 0.64459 0.02389 0.83528 0.0
C932 C 0.645 0.02343 0.76872 0.0
C933 C 0.63488 0.03712 0.73437 0.0
C934 C 0.63509 0.0365 0.67179 0.0
C935 C 0.64555 0.02235 0.64291 0.0
C936 C 0.65586 0.0088 0.67655 0.0
C937 C 0.65563 0.00931 0.73921 0.0
H938 H 0.64572 0.02194 0.59447 0.0
H939 H 0.64263 0.017 0.20388 0.0
H940 H 0.55847 0.66154 0.03327 0.0
H941 H 0.54849 0.6398 0.96095 0.0
H942 H 0.48962 0.66563 0.95789 0.0
H943 H 0.49972 0.68761 0.03075 0.0
H944 H 0.48737 0.62754 0.98175 0.0
H945 H 0.51942 0.66882 0.83093 0.0
H946 H 0.54561 0.69002 0.78067 0.0
H947 H 0.58835 0.64507 0.77703 0.0
H948 H 0.56256 0.62368 0.82838 0.0
H949 H 0.47639 0.55327 0.7732 0.0
H950 H 0.47475 0.58405 0.81556 0.0
H951 H 0.53588 0.57718 0.86901 0.0
H952 H 0.53761 0.54668 0.82807 0.0
H953 H 0.5291 0.61087 0.79975 0.0
H954 H 0.49877 0.57249 0.97201 0.0
H955 H 0.47265 0.55121 0.02234 0.0
H956 H 0.42644 0.59126 0.98301 0.0
H957 H 0.4523 0.61269 0.93173 0.0
C958 C 0.54358 0.66286 0.01599 0.0
C959 C 0.52986 0.67621 0.03723 0.0
C960 C 0.5379 0.6505 0.97456 0.0
C961 C 0.51836 0.65119 0.9537 0.0
C962 C 0.50481 0.66497 0.9732 0.0
C963 C 0.51061 0.67754 0.01436 0.0
C964 C 0.5118 0.6362 0.91673 0.0
C965 C 0.4961 0.62418 0.94087 0.0
C966 C 0.52327 0.63176 0.86369 0.0
C967 C 0.53902 0.64464 0.83367 0.0
C968 C 0.53445 0.66348 0.81992 0.0
C969 C 0.54923 0.67553 0.79117 0.0
C970 C 0.56864 0.6689 0.77569 0.0
C971 C 0.57331 0.6502 0.78905 0.0
C972 C 0.55861 0.6381 0.81797 0.0
C973 C 0.48933 0.55822 0.79493 0.0
C974 C 0.50716 0.54756 0.79699 0.0
C975 C 0.48839 0.5758 0.81881 0.0
C976 C 0.50529 0.5829 0.84469 0.0
C977 C 0.52276 0.572 0.84861 0.0
C978 C 0.52366 0.5545 0.82539 0.0
C979 C 0.50547 0.60188 0.86656 0.0
C980 C 0.51996 0.61461 0.83941 0.0
C981 C 0.4929 0.60696 0.91665 0.0
C982 C 0.47741 0.59406 0.94729 0.0
C983 C 0.48301 0.57667 0.97354 0.0
C984 C 0.46826 0.5646 0.00238 0.0
C985 C 0.44788 0.56984 0.00566 0.0
C986 C 0.44222 0.58719 0.98028 0.0
C987 C 0.45691 0.59931 0.95134 0.0
H988 H 0.43649 0.56049 0.02803 0.0
H989 H 0.58004 0.67824 0.75332 0.0
H990 H 0.82688 0.49349 0.04156 0.0
H991 H 0.85262 0.48382 0.96646 0.0
H992 H 0.86706 0.43649 0.08519 0.0
H993 H 0.84196 0.44692 0.16175 0.0
H994 H 0.89918 0.45368 0.05675 0.0
H995 H 0.84998 0.43209 0.93659 0.0
H996 H 0.8184 0.43111 0.88438 0.0
H997 H 0.83706 0.48005 0.77358 0.0
H998 H 0.86862 0.48153 0.82569 0.0
H999 H 0.98126 0.45024 0.81526 0.0
H1000 H 0.95006 0.43907 0.87356 0.0
H1001 H 0.92701 0.49521 0.86875 0.0
H1002 H 0.95809 0.50651 0.81282 0.0
H1003 H 0.89963 0.46196 0.83416 0.0
H1004 H 0.94306 0.4861 0.98641 0.0
H1005 H 0.97485 0.48529 0.03827 0.0
H1006 H 0.96615 0.42679 0.0855 0.0
H1007 H 0.93442 0.42726 0.03315 0.0
C1008 C 0.83503 0.48064 0.0505 0.0
C1009 C 0.83255 0.47091 0.10705 0.0
C1010 C 0.84972 0.47501 0.00744 0.0
C1011 C 0.86184 0.45931 0.01979 0.0
C1012 C 0.858 0.44866 0.07455 0.0
C1013 C 0.84361 0.45453 0.1181 0.0
C1014 C 0.88055 0.45619 0.98068 0.0
C1015 C 0.89908 0.45484 0.00803 0.0
C1016 C 0.88071 0.45766 0.91696 0.0
C1017 C 0.86171 0.45694 0.88529 0.0
C1018 C 0.84731 0.44273 0.90138 0.0
C1019 C 0.82941 0.44207 0.87174 0.0
C1020 C 0.82572 0.45551 0.82572 0.0
C1021 C 0.83995 0.46963 0.8092 0.0
C1022 C 0.85788 0.47036 0.8387 0.0
C1023 C 0.96955 0.46015 0.82705 0.0
C1024 C 0.97215 0.47925 0.81006 0.0
C1025 C 0.95177 0.45376 0.85988 0.0
C1026 C 0.93628 0.46634 0.87462 0.0
C1027 C 0.93879 0.48532 0.85719 0.0
C1028 C 0.95664 0.49175 0.82583 0.0
C1029 C 0.91766 0.46026 0.91084 0.0
C1030 C 0.89935 0.45998 0.88284 0.0
C1031 C 0.91761 0.45688 0.97378 0.0
C1032 C 0.93658 0.45666 0.00527 0.0
C1033 C 0.94805 0.47304 0.00736 0.0
C1034 C 0.96602 0.47265 0.03694 0.0
C1035 C 0.97256 0.45598 0.06497 0.0
C1036 C 0.9611 0.43968 0.06363 0.0
C1037 C 0.94313 0.44 0.03403 0.0
H1038 H 0.98647 0.45571 0.08788 0.0
H1039 H 0.81185 0.45498 0.80283 0.0
H1040 H 0.11156 0.1894 0.14686 0.0
H1041 H 0.10779 0.16565 0.07422 0.0
H1042 H 0.04484 0.18033 0.0641 0.0
H1043 H 0.04872 0.20438 0.13559 0.0
H1044 H 0.05449 0.14251 0.11356 0.0
H1045 H 0.07065 0.18567 0.94258 0.0
H1046 H 0.09166 0.20914 0.88121 0.0
H1047 H 0.14046 0.16993 0.86627 0.0
H1048 H 0.11982 0.14629 0.92833 0.0
H1049 H 0.02078 0.07498 0.93138 0.0
H1050 H 0.02888 0.1031 0.97923 0.0
H1051 H 0.09246 0.09553 0.92924 0.0
H1052 H 0.08422 0.06811 0.87604 0.0
H1053 H 0.08428 0.13009 0.90985 0.0
H1054 H 0.06996 0.0871 0.08042 0.0
H1055 H 0.05048 0.06317 0.14474 0.0
H1056 H 1.00086 0.10119 0.16687 0.0
H1057 H 0.01994 0.12529 0.10224 0.0
C1058 C 0.09725 0.1882 0.12649 0.0
C1059 C 0.08047 0.19877 0.14608 0.0
C1060 C 0.09507 0.17458 0.08541 0.0
C1061 C 0.07602 0.17121 0.06422 0.0
C1062 C 0.05968 0.18283 0.07985 0.0
C1063 C 0.06195 0.19665 0.12014 0.0
C1064 C 0.07233 0.15373 0.03511 0.0
C1065 C 0.06071 0.13985 0.06861 0.0
C1066 C 0.08131 0.15006 0.97783 0.0
C1067 C 0.09376 0.16428 0.94069 0.0
C1068 C 0.08593 0.18211 0.92678 0.0
C1069 C 0.09776 0.19543 0.89171 0.0
C1070 C 0.1174 0.19105 0.87 0.0
C1071 C 0.12525 0.17332 0.88319 0.0
C1072 C 0.11349 0.15995 0.91826 0.0
C1073 C 0.03651 0.0793 0.9299 0.0
C1074 C 0.05181 0.06928 0.89904 0.0
C1075 C 0.04117 0.0953 0.95835 0.0
C1076 C 0.06134 0.10138 0.95885 0.0
C1077 C 0.07677 0.09114 0.92964 0.0
C1078 C 0.07206 0.07528 0.8999 0.0
C1079 C 0.06607 0.11879 0.98792 0.0
C1080 C 0.07802 0.13264 0.95483 0.0
C1081 C 0.05771 0.12234 0.04633 0.0
C1082 C 0.04631 0.10794 0.08594 0.0
C1083 C 0.05485 0.09032 0.09871 0.0
C1084 C 0.04388 0.07673 0.13526 0.0
C1085 C 0.0244 0.08063 0.15949 0.0
C1086 C 0.01593 0.09818 0.14785 0.0
C1087 C 0.02682 0.11182 0.11137 0.0
H1088 H 0.01585 0.07006 0.18735 0.0
H1089 H 0.12653 0.20138 0.84284 0.0
H1090 H 0.31586 0.99202 0.09101 0.0
H1091 H 0.34245 0.99447 0.00799 0.0
H1092 H 0.37701 0.03079 0.10936 0.0
H1093 H 0.35014 0.02931 0.18966 0.0
H1094 H 0.38441 0.04138 0.0021 0.0
H1095 H 0.38401 0.98066 0.10681 0.0
H1096 H 0.36932 0.95028 0.14549 0.0
H1097 H 0.35953 0.93664 0.96511 0.0
H1098 H 0.37396 0.96705 0.92545 0.0
H1099 H 0.47987 0.98553 0.8794 0.0
H1100 H 0.44882 0.9877 0.94503 0.0
H1101 H 0.42768 0.03209 0.82563 0.0
H1102 H 0.45924 0.03071 0.76224 0.0
H1103 H 0.41216 0.98138 0.93623 0.0
H1104 H 0.39432 0.05998 0.89488 0.0
H1105 H 0.41251 0.08987 0.87179 0.0
H1106 H 0.46502 0.06703 0.95203 0.0
H1107 H 0.44707 0.03709 0.97622 0.0
C1108 C 0.32885 0.00098 0.09454 0.0
C1109 C 0.33101 0.01022 0.1474 0.0
C1110 C 0.34423 0.00216 0.04745 0.0
C1111 C 0.3622 0.01236 0.05279 0.0
C1112 C 0.36353 0.02268 0.10373 0.0
C1113 C 0.34813 0.02174 0.15003 0.0
C1114 C 0.38021 0.01156 0.0081 0.0
C1115 C 0.39036 0.02823 0.98746 0.0
C1116 C 0.38847 0.99447 0.9896 0.0
C1117 C 0.37983 0.97619 0.01326 0.0
C1118 C 0.3786 0.97122 0.07546 0.0
C1119 C 0.37034 0.954 0.09755 0.0
C1120 C 0.36344 0.94156 0.0578 0.0
C1121 C 0.36484 0.9463 0.99585 0.0
C1122 C 0.37306 0.96352 0.97354 0.0
C1123 C 0.46872 0.99594 0.86771 0.0
C1124 C 0.47218 0.00812 0.81605 0.0
C1125 C 0.45084 0.99709 0.90506 0.0
C1126 C 0.43577 0.01022 0.89116 0.0
C1127 C 0.43914 0.02219 0.83883 0.0
C1128 C 0.45724 0.02135 0.80233 0.0
C1129 C 0.41656 0.01118 0.93102 0.0
C1130 C 0.40615 0.99455 0.95045 0.0
C1131 C 0.40856 0.02825 0.9506 0.0
C1132 C 0.41942 0.04624 0.93669 0.0
C1133 C 0.40973 0.06136 0.90772 0.0
C1134 C 0.42 0.07831 0.89443 0.0
C1135 C 0.43993 0.08033 0.91023 0.0
C1136 C 0.44961 0.06543 0.93959 0.0
C1137 C 0.4394 0.04846 0.95304 0.0
H1138 H 0.44785 0.09345 0.89985 0.0
H1139 H 0.35705 0.92823 0.07498 0.0
H1140 H 0.4798 0.31897 0.12401 0.0
H1141 H 0.47331 0.34291 0.0436 0.0
H1142 H 0.53571 0.36097 0.03902 0.0
H1143 H 0.54218 0.33709 0.11792 0.0
H1144 H 0.47566 0.38 0.05066 0.0
H1145 H 0.55281 0.37881 0.90554 0.0
H1146 H 0.57695 0.35559 0.86675 0.0
H1147 H 0.52965 0.31426 0.88033 0.0
H1148 H 0.50513 0.33728 0.91835 0.0
H1149 H 0.53365 0.45778 0.85868 0.0
H1150 H 0.52955 0.42812 0.91732 0.0
H1151 H 0.46823 0.42355 0.8654 0.0
H1152 H 0.47226 0.45345 0.80537 0.0
H1153 H 0.52109 0.3943 0.86686 0.0
H1154 H 0.44294 0.39654 0.99296 0.0
H1155 H 0.41826 0.41934 0.032 0.0
H1156 H 0.46673 0.45751 0.05451 0.0
H1157 H 0.49169 0.43485 0.0164 0.0
C1158 C 0.49221 0.3277 0.10426 0.0
C1159 C 0.5115 0.32618 0.12686 0.0
C1160 C 0.48847 0.34147 0.05885 0.0
C1161 C 0.50403 0.3537 0.03494 0.0
C1162 C 0.52351 0.35155 0.05582 0.0
C1163 C 0.52721 0.33792 0.10107 0.0
C1164 C 0.49994 0.36979 0.9921 0.0
C1165 C 0.48524 0.38289 0.00958 0.0
C1166 C 0.51249 0.37368 0.93866 0.0
C1167 C 0.52713 0.35978 0.91513 0.0
C1168 C 0.54751 0.3648 0.8999 0.0
C1169 C 0.56128 0.35167 0.87812 0.0
C1170 C 0.55485 0.33346 0.87118 0.0
C1171 C 0.53462 0.32836 0.88589 0.0
C1172 C 0.52079 0.34144 0.90764 0.0
C1173 C 0.51915 0.45067 0.86011 0.0
C1174 C 0.50331 0.45798 0.82688 0.0
C1175 C 0.51689 0.43363 0.89355 0.0
C1176 C 0.49869 0.42355 0.89523 0.0
C1177 C 0.48242 0.43114 0.86462 0.0
C1178 C 0.48472 0.44824 0.83057 0.0
C1179 C 0.49748 0.40472 0.92694 0.0
C1180 C 0.51118 0.39114 0.90712 0.0
C1181 C 0.48392 0.40036 0.9778 0.0
C1182 C 0.46913 0.41411 0.00097 0.0
C1183 C 0.44831 0.4098 0.00627 0.0
C1184 C 0.43428 0.42269 0.02828 0.0
C1185 C 0.44091 0.4399 0.04546 0.0
C1186 C 0.4616 0.44422 0.04088 0.0
C1187 C 0.47569 0.43137 0.01895 0.0
H1188 H 0.43003 0.44985 0.06251 0.0
H1189 H 0.56554 0.32331 0.85435 0.0
H1190 H 0.22198 0.50806 0.01529 0.0
H1191 H 0.19623 0.50269 0.94384 0.0
H1192 H 0.1552 0.48088 0.09072 0.0
H1193 H 0.1809 0.48572 0.16144 0.0
H1194 H 0.15095 0.46182 0.99444 0.0
H1195 H 0.15415 0.52632 0.03978 0.0
H1196 H 0.17051 0.55695 0.04535 0.0
H1197 H 0.1835 0.56063 0.8535 0.0
H1198 H 0.16743 0.52987 0.84699 0.0
H1199 H 0.0596 0.51483 0.86307 0.0
H1200 H 0.0901 0.51304 0.91864 0.0
H1201 H 0.11164 0.46717 0.81648 0.0
H1202 H 0.08081 0.46859 0.76152 0.0
H1203 H 0.12806 0.51876 0.88114 0.0
H1204 H 0.14219 0.43952 0.90379 0.0
H1205 H 0.1229 0.40996 0.90971 0.0
H1206 H 0.07019 0.43756 0.9839 0.0
H1207 H 0.08924 0.4672 0.97909 0.0
C1208 C 0.20763 0.50172 0.03192 0.0
C1209 C 0.20331 0.49757 0.09395 0.0
C1210 C 0.1929 0.49876 0.99122 0.0
C1211 C 0.17367 0.49162 0.01205 0.0
C1212 C 0.16987 0.48641 0.07351 0.0
C1213 C 0.18452 0.48934 0.11398 0.0
C1214 C 0.1568 0.49101 0.9715 0.0
C1215 C 0.14608 0.47422 0.96907 0.0
C1216 C 0.15018 0.50725 0.93927 0.0
C1217 C 0.15986 0.5257 0.94304 0.0
C1218 C 0.16065 0.5336 0.99889 0.0
C1219 C 0.16984 0.55099 0.0022 0.0
C1220 C 0.17811 0.5607 0.94983 0.0
C1221 C 0.17715 0.55306 0.89404 0.0
C1222 C 0.16801 0.53565 0.89052 0.0
C1223 C 0.07069 0.5042 0.85286 0.0
C1224 C 0.06772 0.49179 0.80807 0.0
C1225 C 0.0882 0.50327 0.88442 0.0
C1226 C 0.10319 0.48998 0.87182 0.0
C1227 C 0.10019 0.4774 0.82756 0.0
C1228 C 0.08254 0.47821 0.79624 0.0
C1229 C 0.12201 0.48963 0.9047 0.0
C1230 C 0.13313 0.50625 0.9055 0.0
C1231 C 0.12864 0.47337 0.93679 0.0
C1232 C 0.11708 0.45561 0.94034 0.0
C1233 C 0.1265 0.43925 0.92147 0.0
C1234 C 0.11561 0.42249 0.92463 0.0
C1235 C 0.09531 0.4219 0.94694 0.0
C1236 C 0.08589 0.43805 0.96637 0.0
C1237 C 0.09671 0.45484 0.96335 0.0
H1238 H 0.08691 0.40891 0.94932 0.0
H1239 H 0.18521 0.57417 0.95246 0.0
H1240 H 0.92262 0.81378 0.23165 0.0
H1241 H 0.92377 0.83744 0.30585 0.0
H1242 H 0.98429 0.82015 0.34308 0.0
H1243 H 0.98296 0.79617 0.27026 0.0
H1244 H 0.94177 0.83858 0.44211 0.0
H1245 H 0.00746 0.86125 0.27983 0.0
H1246 H 0.01968 0.85898 0.17326 0.0
H1247 H 0.95829 0.86002 0.1218 0.0
H1248 H 0.94577 0.86243 0.22792 0.0
H1249 H 0.99882 0.90867 0.56305 0.0
H1250 H 0.98705 0.88148 0.51531 0.0
H1251 H 0.95991 0.91747 0.38114 0.0
H1252 H 0.97223 0.94489 0.42782 0.0
H1253 H 0.98132 0.89021 0.33032 0.0
H1254 H 0.93042 0.8937 0.49256 0.0
H1255 H 0.91753 0.89624 0.59815 0.0
H1256 H 0.9463 0.8446 0.649 0.0
H1257 H 0.95959 0.84186 0.54379 0.0
C1258 C 0.93564 0.81433 0.25842 0.0
C1259 C 0.95262 0.8031 0.24604 0.0
C1260 C 0.93634 0.82789 0.30042 0.0
C1261 C 0.95416 0.83054 0.32938 0.0
C1262 C 0.97037 0.81816 0.32132 0.0
C1263 C 0.96955 0.80441 0.28012 0.0
C1264 C 0.95743 0.84814 0.35795 0.0
C1265 C 0.95036 0.84993 0.41797 0.0
C1266 C 0.9683 0.86297 0.32569 0.0
C1267 C 0.9757 0.86182 0.26175 0.0
C1268 C 0.9966 0.86102 0.24569 0.0
C1269 C 1.00357 0.8597 0.18541 0.0
C1270 C 0.98976 0.85926 0.14082 0.0
C1271 C 0.96897 0.86027 0.15639 0.0
C1272 C 0.96193 0.86156 0.21659 0.0
C1273 C 0.99046 0.91084 0.52312 0.0
C1274 C 0.98661 0.92895 0.49888 0.0
C1275 C 0.98352 0.89526 0.49634 0.0
C1276 C 0.97241 0.89744 0.44506 0.0
C1277 C 0.96839 0.91549 0.42088 0.0
C1278 C 0.97534 0.93113 0.44773 0.0
C1279 C 0.96584 0.88081 0.4153 0.0
C1280 C 0.97248 0.87907 0.35477 0.0
C1281 C 0.95431 0.86619 0.44708 0.0
C1282 C 0.94611 0.86764 0.5103 0.0
C1283 C 0.9341 0.88293 0.5263 0.0
C1284 C 0.9267 0.8844 0.58608 0.0
C1285 C 0.93112 0.87061 0.63026 0.0
C1286 C 0.94289 0.85528 0.61473 0.0
C1287 C 0.95033 0.85374 0.55499 0.0
H1288 H 0.92537 0.87179 0.67649 0.0
H1289 H 0.99517 0.8582 0.09422 0.0
H1290 H 0.71829 0.02339 0.27097 0.0
H1291 H 0.69076 0.01948 0.35042 0.0
H1292 H 0.68167 0.96292 0.30358 0.0
H1293 H 0.70912 0.96699 0.22374 0.0
H1294 H 0.64699 0.98076 0.30591 0.0
H1295 H 0.6996 0.97344 0.44041 0.0
H1296 H 0.73069 0.98081 0.48915 0.0
H1297 H 0.70391 0.03156 0.54753 0.0
H1298 H 0.6728 0.02471 0.49807 0.0
H1299 H 0.57014 0.96324 0.55199 0.0
H1300 H 0.60161 0.96131 0.48688 0.0
H1301 H 0.61139 0.02032 0.49635 0.0
H1302 H 0.57991 0.02244 0.55971 0.0
H1303 H 0.64627 0.99813 0.51755 0.0
H1304 H 0.59529 0.00664 0.37379 0.0
H1305 H 0.56394 0.99889 0.32683 0.0
H1306 H 0.58798 0.94511 0.28859 0.0
H1307 H 0.61937 0.95245 0.33616 0.0
C1308 C 0.71097 0.00989 0.27951 0.0
C1309 C 0.71621 0.99532 0.24245 0.0
C1310 C 0.69512 0.00767 0.32468 0.0
C1311 C 0.68408 0.99084 0.33353 0.0
C1312 C 0.68992 0.97602 0.298 0.0
C1313 C 0.7058 0.97824 0.25293 0.0
C1314 C 0.66534 0.98937 0.37548 0.0
C1315 C 0.64699 0.98421 0.35254 0.0
C1316 C 0.66505 0.99428 0.43612 0.0
C1317 C 0.68392 0.99865 0.46488 0.0
C1318 C 0.70042 0.98629 0.46297 0.0
C1319 C 0.71804 0.99036 0.49086 0.0
C1320 C 0.7193 0.00667 0.52124 0.0
C1321 C 0.70294 0.01895 0.52384 0.0
C1322 C 0.6853 0.01498 0.49587 0.0
C1323 C 0.57893 0.97581 0.53978 0.0
C1324 C 0.57237 0.99301 0.56069 0.0
C1325 C 0.59692 0.97469 0.50263 0.0
C1326 C 0.60888 0.99069 0.48664 0.0
C1327 C 0.60245 0.0078 0.508 0.0
C1328 C 0.58433 0.00899 0.54397 0.0
C1329 C 0.62811 0.98977 0.44762 0.0
C1330 C 0.64645 0.99452 0.47107 0.0
C1331 C 0.62844 0.98447 0.38758 0.0
C1332 C 0.60955 0.98 0.35927 0.0
C1333 C 0.5938 0.99309 0.35597 0.0
C1334 C 0.57605 0.98879 0.3291 0.0
C1335 C 0.57394 0.97149 0.30494 0.0
C1336 C 0.58961 0.95848 0.30746 0.0
C1337 C 0.60739 0.96271 0.33435 0.0
H1338 H 0.56019 0.96819 0.28412 0.0
H1339 H 0.73295 0.00977 0.54291 0.0
H1340 H 0.57551 0.66198 0.20301 0.0
H1341 H 0.57781 0.63701 0.28215 0.0
H1342 H 0.52645 0.65979 0.38213 0.0
H1343 H 0.52432 0.68504 0.303 0.0
H1344 H 0.55485 0.64185 0.45743 0.0
H1345 H 0.51695 0.62993 0.28705 0.0
H1346 H 0.51253 0.62958 0.17824 0.0
H1347 H 0.56181 0.59103 0.15907 0.0
H1348 H 0.56679 0.59147 0.26765 0.0
H1349 H 0.50853 0.54297 0.52117 0.0
H1350 H 0.51401 0.57156 0.45698 0.0
H1351 H 0.57302 0.57813 0.5243 0.0
H1352 H 0.56755 0.54949 0.58948 0.0
H1353 H 0.5411 0.5821 0.36754 0.0
H1354 H 0.58116 0.6261 0.53288 0.0
H1355 H 0.58342 0.62764 0.64246 0.0
H1356 H 0.52442 0.6025 0.67525 0.0
H1357 H 0.52163 0.60113 0.56588 0.0
C1358 C 0.56523 0.66205 0.24303 0.0
C1359 C 0.54968 0.67532 0.24698 0.0
C1360 C 0.56651 0.64777 0.28809 0.0
C1361 C 0.55207 0.64636 0.33743 0.0
C1362 C 0.53773 0.66063 0.34439 0.0
C1363 C 0.53654 0.67505 0.29932 0.0
C1364 C 0.54999 0.62867 0.37571 0.0
C1365 C 0.55198 0.62875 0.4379 0.0
C1366 C 0.54577 0.61165 0.35027 0.0
C1367 C 0.54237 0.61087 0.28537 0.0
C1368 C 0.52691 0.62146 0.25958 0.0
C1369 C 0.52431 0.62125 0.19795 0.0
C1370 C 0.53691 0.61032 0.16173 0.0
C1371 C 0.55208 0.59951 0.18716 0.0
C1372 C 0.5548 0.59973 0.24875 0.0
C1373 C 0.52278 0.55036 0.52201 0.0
C1374 C 0.53758 0.54395 0.56067 0.0
C1375 C 0.52589 0.56672 0.48518 0.0
C1376 C 0.54381 0.57714 0.48635 0.0
C1377 C 0.55895 0.57046 0.52329 0.0
C1378 C 0.55587 0.55401 0.56015 0.0
C1379 C 0.54629 0.59511 0.4495 0.0
C1380 C 0.54424 0.59511 0.38729 0.0
C1381 C 0.55003 0.6122 0.47529 0.0
C1382 C 0.55132 0.61329 0.54116 0.0
C1383 C 0.56863 0.62097 0.56345 0.0
C1384 C 0.57 0.62182 0.62551 0.0
C1385 C 0.55412 0.61508 0.66572 0.0
C1386 C 0.53675 0.60763 0.644 0.0
C1387 C 0.53527 0.60681 0.58198 0.0
H1388 H 0.55529 0.61564 0.71367 0.0
H1389 H 0.53489 0.61021 0.114 0.0
H1390 H 0.85652 0.51869 0.22901 0.0
H1391 H 0.88198 0.52537 0.29923 0.0
H1392 H 0.84659 0.49458 0.44259 0.0
H1393 H 0.82093 0.48793 0.37202 0.0
H1394 H 0.88404 0.5412 0.40957 0.0
H1395 H 0.88063 0.46562 0.51186 0.0
H1396 H 0.86944 0.43455 0.48582 0.0
H1397 H 0.88065 0.45072 0.29759 0.0
H1398 H 0.89219 0.48173 0.32258 0.0
H1399 H 0.9568 0.53167 0.634 0.0
H1400 H 0.92615 0.53258 0.57839 0.0
H1401 H 0.95384 0.49489 0.45409 0.0
H1402 H 0.98399 0.4932 0.51145 0.0
H1403 H 0.91812 0.48348 0.48328 0.0
H1404 H 0.94645 0.54421 0.42027 0.0
H1405 H 0.95974 0.5755 0.43564 0.0
H1406 H 0.90307 0.58963 0.52721 0.0
H1407 H 0.88952 0.55835 0.51299 0.0
C1408 C 0.85395 0.51378 0.27592 0.0
C1409 C 0.83691 0.50273 0.29531 0.0
C1410 C 0.86843 0.51767 0.31599 0.0
C1411 C 0.86625 0.51034 0.37592 0.0
C1412 C 0.84856 0.5003 0.39639 0.0
C1413 C 0.83391 0.49656 0.35629 0.0
C1414 C 0.88367 0.51119 0.41407 0.0
C1415 C 0.89142 0.52861 0.42634 0.0
C1416 C 0.89355 0.49478 0.43453 0.0
C1417 C 0.88701 0.47604 0.41913 0.0
C1418 C 0.88076 0.4625 0.46496 0.0
C1419 C 0.87436 0.44491 0.45038 0.0
C1420 C 0.87426 0.44069 0.3901 0.0
C1421 C 0.88066 0.45402 0.34426 0.0
C1422 C 0.88712 0.4716 0.35861 0.0
C1423 C 0.95642 0.52381 0.59426 0.0
C1424 C 0.97277 0.51239 0.5769 0.0
C1425 C 0.93889 0.52436 0.56241 0.0
C1426 C 0.93765 0.5139 0.51164 0.0
C1427 C 0.95431 0.50299 0.49329 0.0
C1428 C 0.9716 0.50211 0.52585 0.0
C1429 C 0.91879 0.51357 0.47885 0.0
C1430 C 0.9107 0.49616 0.46752 0.0
C1431 C 0.90896 0.53004 0.45796 0.0
C1432 C 0.91705 0.54888 0.46608 0.0
C1433 C 0.93687 0.55395 0.444 0.0
C1434 C 0.94444 0.57169 0.45246 0.0
C1435 C 0.93228 0.58453 0.48252 0.0
C1436 C 0.91249 0.57967 0.50401 0.0
C1437 C 0.90485 0.56195 0.49571 0.0
H1438 H 0.93817 0.59824 0.48906 0.0
H1439 H 0.86927 0.42707 0.37891 0.0
loop_
_geom_bond_atom_site_label_1
_geom_bond_atom_site_label_2
_geom_bond_distance
_geom_bond_site_symmetry_2
_ccdc_geom_bond_type
H0 C7 0.929 . S
H1 C10 0.930 . S
H2 C12 0.929 . S
H3 C4 0.969 . S
C4 H3 0.969 . S
C4 O5 1.550 . S
C4 H6 0.973 . S
O5 C4 1.550 . S
O5 C11 1.412 . S
H6 C4 0.973 . S
C7 H0 0.929 . S
C7 C8 1.400 . S
C7 C9 1.364 . S
C8 C7 1.400 . S
C8 C12 1.377 . S
C9 C7 1.364 . S
C9 C10 1.374 . S
C10 H1 0.930 . S
C10 C9 1.374 . S
C10 C11 1.383 . S
C11 O5 1.412 . S
C11 C10 1.383 . S
C11 C12 1.394 . S
C12 H2 0.929 . S
C12 C8 1.377 . S
C12 C11 1.394 . S
H13 C20 0.929 . S
H14 C23 0.930 . S
H15 C25 0.929 . S
H16 C17 0.969 . S
C17 H16 0.969 . S
C17 O18 1.550 1_556 S
C17 H19 0.973 . S
O18 C17 1.550 1_554 S
O18 C24 1.412 . S
H19 C17 0.973 . S
C20 H13 0.929 . S
C20 C21 1.400 . S
C20 C22 1.364 1_554 S
C21 C20 1.400 . S
C21 C25 1.377 . S
C22 C20 1.364 1_556 S
C22 C23 1.374 . S
C23 H14 0.930 . S
C23 C22 1.374 . S
C23 C24 1.383 1_556 S
C24 O18 1.412 . S
C24 C23 1.383 1_554 S
C24 C25 1.394 . S
C25 H15 0.929 . S
C25 C21 1.377 . S
C25 C24 1.394 . S
H26 C33 0.929 . S
H27 C36 0.927 1_556 S
H28 C38 0.929 1_565 S
H29 C30 0.969 . S
C30 H29 0.969 . S
C30 O31 1.550 1_545 S
C30 H32 0.973 1_544 S
O31 C30 1.550 1_565 S
O31 C37 1.406 1_565 S
H32 C30 0.973 1_566 S
C33 H26 0.929 . S
C33 C34 1.400 1_565 S
C33 C35 1.363 1_565 S
C34 C33 1.400 1_545 S
C34 C38 1.377 . S
C35 C33 1.363 1_545 S
C35 C36 1.374 1_545 S
C36 H27 0.927 1_554 S
C36 C35 1.374 1_565 S
C36 C37 1.381 1_565 S
C37 O31 1.406 1_545 S
C37 C36 1.381 1_545 S
C37 C38 1.396 . S
C38 H28 0.929 1_545 S
C38 C34 1.377 . S
C38 C37 1.396 . S
H39 C46 0.929 . S
H40 C49 0.930 1_556 S
H41 C51 0.929 . S
H42 C43 0.969 . S
C43 H42 0.969 . S
C43 O44 1.550 . S
C43 H45 0.973 1_554 S
O44 C43 1.550 . S
O44 C50 1.412 . S
H45 C43 0.973 1_556 S
C46 H39 0.929 . S
C46 C47 1.400 . S
C46 C48 1.364 . S
C47 C46 1.400 . S
C47 C51 1.377 . S
C48 C46 1.364 . S
C48 C49 1.374 . S
C49 H40 0.930 1_554 S
C49 C48 1.374 . S
C49 C50 1.383 . S
C50 O44 1.412 . S
C50 C49 1.383 . S
C50 C51 1.394 . S
C51 H41 0.929 . S
C51 C47 1.377 . S
C51 C50 1.394 . S
H52 C59 0.929 . S
H53 C62 0.930 . S
H54 C64 0.929 . S
H55 C56 0.969 . S
C56 H55 0.969 . S
C56 O57 1.550 . S
C56 H58 0.973 . S
O57 C56 1.550 . S
O57 C63 1.412 . S
H58 C56 0.973 . S
C59 H52 0.929 . S
C59 C60 1.400 . S
C59 C61 1.364 . S
C60 C59 1.400 . S
C60 C64 1.377 . S
C61 C59 1.364 . S
C61 C62 1.374 . S
C62 H53 0.930 . S
C62 C61 1.374 . S
C62 C63 1.383 . S
C63 O57 1.412 . S
C63 C62 1.383 . S
C63 C64 1.394 . S
C64 H54 0.929 . S
C64 C60 1.377 . S
C64 C63 1.394 . S
H65 C72 0.929 . S
H66 C75 0.930 . S
H67 C77 0.929 . S
H68 C69 0.969 . S
C69 H68 0.969 . S
C69 O70 1.550 . S
C69 H71 0.973 . S
O70 C69 1.550 . S
O70 C76 1.412 . S
H71 C69 0.973 . S
C72 H65 0.929 . S
C72 C73 1.400 . S
C72 C74 1.364 . S
C73 C72 1.400 . S
C73 C77 1.377 . S
C74 C72 1.364 . S
C74 C75 1.374 . S
C75 H66 0.930 . S
C75 C74 1.374 . S
C75 C76 1.383 . S
C76 O70 1.412 . S
C76 C75 1.383 . S
C76 C77 1.394 . S
C77 H67 0.929 . S
C77 C73 1.377 . S
C77 C76 1.394 . S
H78 C85 0.929 1_565 S
H79 C88 0.932 . S
H80 C90 0.928 1_565 S
H81 C82 0.969 . S
C82 H81 0.969 . S
C82 O83 1.550 1_545 S
C82 H84 0.973 1_545 S
O83 C82 1.550 1_565 S
O83 C89 1.402 1_565 S
H84 C82 0.973 1_565 S
C85 H78 0.929 1_545 S
C85 C86 1.400 . S
C85 C87 1.364 . S
C86 C85 1.400 . S
C86 C90 1.377 . S
C87 C85 1.364 . S
C87 C88 1.374 1_545 S
C88 H79 0.932 . S
C88 C87 1.374 1_565 S
C88 C89 1.384 1_565 S
C89 O83 1.402 1_545 S
C89 C88 1.384 1_545 S
C89 C90 1.392 . S
C90 H80 0.928 1_545 S
C90 C86 1.377 . S
C90 C89 1.392 . S
H91 C98 0.929 . S
H92 C101 0.930 . S
H93 C103 0.929 . S
H94 C95 0.969 . S
C95 H94 0.969 . S
C95 O96 1.550 . S
C95 H97 0.973 . S
O96 C95 1.550 . S
O96 C102 1.412 . S
H97 C95 0.973 . S
C98 H91 0.929 . S
C98 C99 1.400 . S
C98 C100 1.364 . S
C99 C98 1.400 . S
C99 C103 1.377 . S
C100 C98 1.364 . S
C100 C101 1.374 . S
C101 H92 0.930 . S
C101 C100 1.374 . S
C101 C102 1.383 . S
C102 O96 1.412 . S
C102 C101 1.383 . S
C102 C103 1.394 . S
C103 H93 0.929 . S
C103 C99 1.377 . S
C103 C102 1.394 . S
C104 O120 1.251 . S
C104 O122 1.254 . S
N105 C106 1.333 . S
N105 C110 1.307 1_455 S
N105 Zn111 2.020 . S
C106 N105 1.333 . S
C106 C107 1.379 . S
C106 H124 0.952 . S
C107 C106 1.379 . S
C107 C108 1.390 1_455 S
C107 H134 0.949 . S
C108 C107 1.390 1_655 S
C108 C109 1.357 . S
C109 C108 1.357 . S
C109 C110 1.370 . S
C109 H135 0.950 . S
C110 N105 1.307 1_655 S
C110 C109 1.370 . S
C110 H128 0.948 . S
Zn111 N105 2.020 . S
Zn111 O120 2.039 . S
Zn111 O126 2.034 . S
Zn111 O130 2.025 1_565 S
Zn111 O132 2.024 1_455 S
C112 O131 1.246 . S
C112 O132 1.249 1_545 S
N113 C114 1.307 . S
N113 C115 1.333 . S
N113 Zn119 2.020 . S
C114 N113 1.307 . S
C114 C118 1.370 . S
C114 H125 0.948 . S
C115 N113 1.333 . S
C115 C116 1.379 . S
C115 H123 0.952 . S
C116 C115 1.379 . S
C116 C117 1.390 . S
C116 H136 0.949 . S
C117 C116 1.390 . S
C117 C118 1.357 . S
C118 C114 1.370 . S
C118 C117 1.357 . S
C118 H137 0.950 . S
Zn119 N113 2.020 . S
Zn119 O122 2.025 1_545 S
Zn119 O127 2.024 . S
Zn119 O129 2.039 . S
Zn119 O131 2.034 1_455 S
O120 C104 1.251 . S
O120 Zn111 2.039 . S
C121 O126 1.246 . S
C121 O127 1.249 1_565 S
O122 C104 1.254 . S
O122 Zn119 2.025 1_565 S
H123 C115 0.952 . S
H124 C106 0.952 . S
H125 C114 0.948 . S
O126 Zn111 2.034 . S
O126 C121 1.246 . S
O127 Zn119 2.024 . S
O127 C121 1.249 1_545 S
H128 C110 0.948 . S
O129 Zn119 2.039 . S
O129 C133 1.251 . S
O130 Zn111 2.025 1_545 S
O130 C133 1.254 . S
O131 C112 1.246 . S
O131 Zn119 2.034 1_655 S
O132 Zn111 2.024 1_655 S
O132 C112 1.249 1_565 S
C133 O129 1.251 . S
C133 O130 1.254 . S
H134 C107 0.949 . S
H135 C109 0.950 . S
H136 C116 0.949 . S
H137 C118 0.950 . S
C138 O154 1.251 1_565 S
C138 O156 1.254 . S
N139 C140 1.333 . S
N139 C144 1.307 . S
N139 Zn145 2.020 . S
C140 N139 1.333 . S
C140 C141 1.379 . S
C140 H158 0.952 . S
C141 C140 1.379 . S
C141 C142 1.390 . S
C141 H168 0.949 . S
C142 C141 1.390 . S
C142 C143 1.357 . S
C143 C142 1.357 . S
C143 C144 1.370 . S
C143 H169 0.950 . S
C144 N139 1.307 . S
C144 C143 1.370 . S
C144 H162 0.948 . S
Zn145 N139 2.020 . S
Zn145 O154 2.039 . S
Zn145 O160 2.034 . S
Zn145 O164 2.025 . S
Zn145 O166 2.024 . S
C146 O165 1.246 1_545 S
C146 O166 1.249 . S
N147 C148 1.307 . S
N147 C149 1.333 . S
N147 Zn153 2.020 . S
C148 N147 1.307 . S
C148 C152 1.370 . S
C148 H159 0.948 . S
C149 N147 1.333 . S
C149 C150 1.379 . S
C149 H157 0.952 . S
C150 C149 1.379 . S
C150 C151 1.390 . S
C150 H170 0.949 . S
C151 C150 1.390 . S
C151 C152 1.357 . S
C152 C148 1.370 . S
C152 C151 1.357 . S
C152 H171 0.950 . S
Zn153 N147 2.020 . S
Zn153 O156 2.025 . S
Zn153 O161 2.024 . S
Zn153 O163 2.039 . S
Zn153 O165 2.034 . S
O154 C138 1.251 1_545 S
O154 Zn145 2.039 . S
C155 O160 1.246 1_565 S
C155 O161 1.249 . S
O156 C138 1.254 . S
O156 Zn153 2.025 . S
H157 C149 0.952 . S
H158 C140 0.952 . S
H159 C148 0.948 . S
O160 Zn145 2.034 . S
O160 C155 1.246 1_545 S
O161 Zn153 2.024 . S
O161 C155 1.249 . S
H162 C144 0.948 . S
O163 Zn153 2.039 . S
O163 C167 1.251 1_565 S
O164 Zn145 2.025 . S
O164 C167 1.254 . S
O165 C146 1.246 1_565 S
O165 Zn153 2.034 . S
O166 Zn145 2.024 . S
O166 C146 1.249 . S
C167 O163 1.251 1_545 S
C167 O164 1.254 . S
H168 C141 0.949 . S
H169 C143 0.950 . S
H170 C150 0.949 . S
H171 C152 0.950 . S
C172 O188 1.251 . S
C172 O190 1.254 . S
N173 C174 1.333 . S
N173 C178 1.307 . S
N173 Zn179 2.020 . S
C174 N173 1.333 . S
C174 C175 1.379 . S
C174 H192 0.952 . S
C175 C174 1.379 . S
C175 C176 1.390 . S
C175 H202 0.949 . S
C176 C175 1.390 . S
C176 C177 1.357 . S
C177 C176 1.357 . S
C177 C178 1.370 . S
C177 H203 0.950 . S
C178 N173 1.307 . S
C178 C177 1.370 . S
C178 H196 0.948 . S
Zn179 N173 2.020 . S
Zn179 O188 2.039 . S
Zn179 O194 2.034 . S
Zn179 O198 2.025 . S
Zn179 O200 2.024 . S
C180 O199 1.246 . S
C180 O200 1.249 . S
N181 C182 1.307 . S
N181 C183 1.333 . S
N181 Zn187 2.020 . S
C182 N181 1.307 . S
C182 C186 1.370 . S
C182 H193 0.948 . S
C183 N181 1.333 . S
C183 C184 1.379 . S
C183 H191 0.952 . S
C184 C183 1.379 . S
C184 C185 1.390 . S
C184 H204 0.949 . S
C185 C184 1.390 . S
C185 C186 1.357 . S
C186 C182 1.370 . S
C186 C185 1.357 . S
C186 H205 0.950 . S
Zn187 N181 2.020 . S
Zn187 O190 2.025 . S
Zn187 O195 2.024 . S
Zn187 O197 2.039 . S
Zn187 O199 2.034 . S
O188 C172 1.251 . S
O188 Zn179 2.039 . S
C189 O194 1.246 . S
C189 O195 1.249 . S
O190 C172 1.254 . S
O190 Zn187 2.025 . S
H191 C183 0.952 . S
H192 C174 0.952 . S
H193 C182 0.948 . S
O194 Zn179 2.034 . S
O194 C189 1.246 . S
O195 Zn187 2.024 . S
O195 C189 1.249 . S
H196 C178 0.948 . S
O197 Zn187 2.039 . S
O197 C201 1.251 . S
O198 Zn179 2.025 . S
O198 C201 1.254 . S
O199 C180 1.246 . S
O199 Zn187 2.034 . S
O200 Zn179 2.024 . S
O200 C180 1.249 . S
C201 O197 1.251 . S
C201 O198 1.254 . S
H202 C175 0.949 . S
H203 C177 0.950 . S
H204 C184 0.949 . S
H205 C186 0.950 . S
C206 O222 1.251 . S
C206 O224 1.254 . S
N207 C208 1.333 . S
N207 C212 1.307 . S
N207 Zn213 2.020 . S
C208 N207 1.333 . S
C208 C209 1.379 . S
C208 H226 0.952 . S
C209 C208 1.379 . S
C209 C210 1.390 . S
C209 H236 0.949 . S
C210 C209 1.390 . S
C210 C211 1.357 . S
C211 C210 1.357 . S
C211 C212 1.370 . S
C211 H237 0.950 . S
C212 N207 1.307 . S
C212 C211 1.370 . S
C212 H230 0.948 . S
Zn213 N207 2.020 . S
Zn213 O222 2.039 . S
Zn213 O228 2.042 . S
Zn213 O232 2.025 1_455 S
Zn213 O234 2.024 . S
C214 O233 1.246 . S
C214 O234 1.249 . S
N215 C216 1.307 . S
N215 C217 1.333 . S
N215 Zn221 2.020 . S
C216 N215 1.307 . S
C216 C220 1.370 . S
C216 H227 0.948 . S
C217 N215 1.333 . S
C217 C218 1.379 . S
C217 H225 0.938 1_455 S
C218 C217 1.379 . S
C218 C219 1.390 . S
C218 H238 0.949 1_455 S
C219 C218 1.390 . S
C219 C220 1.357 . S
C220 C216 1.370 . S
C220 C219 1.357 . S
C220 H239 0.950 . S
Zn221 N215 2.020 . S
Zn221 O224 2.025 . S
Zn221 O229 2.024 1_455 S
Zn221 O231 2.039 1_455 S
Zn221 O233 2.034 . S
O222 C206 1.251 . S
O222 Zn213 2.039 . S
C223 O228 1.240 1_655 S
C223 O229 1.249 . S
O224 C206 1.254 . S
O224 Zn221 2.025 . S
H225 C217 0.938 1_655 S
H226 C208 0.952 . S
H227 C216 0.948 . S
O228 Zn213 2.042 . S
O228 C223 1.240 1_455 S
O229 Zn221 2.024 1_655 S
O229 C223 1.249 . S
H230 C212 0.948 . S
O231 Zn221 2.039 1_655 S
O231 C235 1.251 . S
O232 Zn213 2.025 1_655 S
O232 C235 1.254 . S
O233 C214 1.246 . S
O233 Zn221 2.034 . S
O234 Zn213 2.024 . S
O234 C214 1.249 . S
C235 O231 1.251 . S
C235 O232 1.254 . S
H236 C209 0.949 . S
H237 C211 0.950 . S
H238 C218 0.949 1_655 S
H239 C220 0.950 . S
H240 C258 0.951 . S
H241 C260 0.951 . S
H242 C262 0.950 . S
H243 C263 0.950 . S
H244 C265 0.950 . S
H245 C268 0.902 1_565 S
H246 C269 0.950 1_565 S
H247 C271 0.950 . S
H248 C272 0.950 . S
H249 C273 0.951 . S
H250 C275 0.951 . S
H251 C277 0.950 . S
H252 C278 0.950 . S
H253 C280 0.950 . S
H254 C283 0.950 1_545 S
H255 C284 0.957 . S
H256 C286 0.950 . S
H257 C287 0.950 . S
C258 H240 0.951 . S
C258 C259 1.363 1_545 S
C258 C260 1.388 . S
C259 C258 1.363 1_565 S
C259 C263 1.387 . S
C260 H241 0.951 . S
C260 C258 1.388 . S
C260 C261 1.366 1_545 S
C261 C260 1.366 1_565 S
C261 C262 1.414 . S
C261 C264 1.499 . S
C262 H242 0.950 . S
C262 C261 1.414 . S
C262 C263 1.374 . S
C263 H243 0.950 . S
C263 C259 1.387 . S
C263 C262 1.374 . S
C264 C261 1.499 . S
C264 C265 1.373 . S
C264 C266 1.389 1_565 S
C265 H244 0.950 . S
C265 C264 1.373 . S
C265 C281 1.377 . S
C266 C264 1.389 1_545 S
C266 C267 1.524 . S
C266 C280 1.377 . S
C267 C266 1.524 . S
C267 C268 1.429 . S
C267 C272 1.363 . S
C268 H245 0.902 1_545 S
C268 C267 1.429 . S
C268 C269 1.350 . S
C269 H246 0.950 1_545 S
C269 C268 1.350 . S
C269 C270 1.287 . S
C270 C269 1.287 . S
C270 C271 1.524 . S
C270 H289 0.913 . S
C271 H247 0.950 . S
C271 C270 1.524 . S
C271 C272 1.415 . S
C272 H248 0.950 . S
C272 C267 1.363 . S
C272 C271 1.415 . S
C273 H249 0.951 . S
C273 C274 1.366 . S
C273 C275 1.388 . S
C274 C273 1.366 . S
C274 C278 1.385 1_565 S
C275 H250 0.951 . S
C275 C273 1.388 . S
C275 C276 1.366 . S
C276 C275 1.366 . S
C276 C277 1.414 1_565 S
C276 C279 1.500 . S
C277 H251 0.950 . S
C277 C276 1.414 1_545 S
C277 C278 1.374 . S
C278 H252 0.950 . S
C278 C274 1.385 1_545 S
C278 C277 1.374 . S
C279 C276 1.500 . S
C279 C280 1.353 1_565 S
C279 C281 1.413 . S
C280 H253 0.950 . S
C280 C266 1.377 . S
C280 C279 1.353 1_545 S
C281 C265 1.377 . S
C281 C279 1.413 . S
C281 C282 1.524 . S
C282 C281 1.524 . S
C282 C283 1.397 . S
C282 C287 1.363 . S
C283 H254 0.950 1_565 S
C283 C282 1.397 . S
C283 C284 1.334 . S
C284 H255 0.957 . S
C284 C283 1.334 . S
C284 C285 1.287 . S
C285 C284 1.287 . S
C285 C286 1.524 . S
C285 H288 0.999 . S
C286 H256 0.950 . S
C286 C285 1.524 . S
C286 C287 1.415 . S
C287 H257 0.950 . S
C287 C282 1.363 . S
C287 C286 1.415 . S
H288 C285 0.999 . S
H289 C270 0.913 . S
H290 C308 0.951 . S
H291 C310 0.951 . S
H292 C312 0.950 . S
H293 C313 0.950 . S
H294 C315 0.950 . S
H295 C318 0.950 . S
H296 C319 0.950 . S
H297 C321 0.950 . S
H298 C322 0.950 . S
H299 C323 0.951 . S
H300 C325 0.951 . S
H301 C327 0.950 . S
H302 C328 0.950 . S
H303 C330 0.950 . S
H304 C333 0.950 . S
H305 C334 0.950 . S
H306 C336 0.950 . S
H307 C337 0.950 . S
C308 H290 0.951 . S
C308 C309 1.366 . S
C308 C310 1.388 . S
C309 C308 1.366 . S
C309 C313 1.385 . S
C310 H291 0.951 . S
C310 C308 1.388 . S
C310 C311 1.366 . S
C311 C310 1.366 . S
C311 C312 1.414 . S
C311 C314 1.499 . S
C312 H292 0.950 . S
C312 C311 1.414 . S
C312 C313 1.374 . S
C313 H293 0.950 . S
C313 C309 1.385 . S
C313 C312 1.374 . S
C314 C311 1.499 . S
C314 C315 1.373 . S
C314 C316 1.389 . S
C315 H294 0.950 . S
C315 C314 1.373 . S
C315 C331 1.377 . S
C316 C314 1.389 . S
C316 C317 1.524 . S
C316 C330 1.377 . S
C317 C316 1.524 . S
C317 C318 1.397 . S
C317 C322 1.363 . S
C318 H295 0.950 . S
C318 C317 1.397 . S
C318 C319 1.334 . S
C319 H296 0.950 . S
C319 C318 1.334 . S
C319 C320 1.287 . S
C320 C319 1.287 . S
C320 C321 1.524 . S
C320 H339 0.913 . S
C321 H297 0.950 . S
C321 C320 1.524 . S
C321 C322 1.415 . S
C322 H298 0.950 . S
C322 C317 1.363 . S
C322 C321 1.415 . S
C323 H299 0.951 . S
C323 C324 1.366 . S
C323 C325 1.388 . S
C324 C323 1.366 . S
C324 C328 1.385 . S
C325 H300 0.951 . S
C325 C323 1.388 . S
C325 C326 1.366 . S
C326 C325 1.366 . S
C326 C327 1.414 . S
C326 C329 1.499 . S
C327 H301 0.950 . S
C327 C326 1.414 . S
C327 C328 1.374 . S
C328 H302 0.950 . S
C328 C324 1.385 . S
C328 C327 1.374 . S
C329 C326 1.499 . S
C329 C330 1.373 . S
C329 C331 1.389 . S
C330 H303 0.950 . S
C330 C316 1.377 . S
C330 C329 1.373 . S
C331 C315 1.377 . S
C331 C329 1.389 . S
C331 C332 1.524 . S
C332 C331 1.524 . S
C332 C333 1.397 . S
C332 C337 1.363 . S
C333 H304 0.950 . S
C333 C332 1.397 . S
C333 C334 1.334 . S
C334 H305 0.950 . S
C334 C333 1.334 . S
C334 C335 1.287 . S
C335 C334 1.287 . S
C335 C336 1.524 . S
C335 H338 0.999 . S
C336 H306 0.950 . S
C336 C335 1.524 . S
C336 C337 1.415 . S
C337 H307 0.950 . S
C337 C332 1.363 . S
C337 C336 1.415 . S
H338 C335 0.999 . S
H339 C320 0.913 . S
H340 C358 0.951 . S
H341 C360 0.951 . S
H342 C362 0.950 . S
H343 C363 0.950 . S
H344 C365 0.950 . S
H345 C368 0.950 . S
H346 C369 0.950 . S
H347 C371 0.950 . S
H348 C372 0.950 . S
H349 C373 0.951 . S
H350 C375 0.951 . S
H351 C377 0.950 . S
H352 C378 0.950 . S
H353 C380 0.950 . S
H354 C383 0.950 . S
H355 C384 0.950 . S
H356 C386 0.950 . S
H357 C387 0.950 . S
C358 H340 0.951 . S
C358 C359 1.366 . S
C358 C360 1.388 . S
C359 C358 1.366 . S
C359 C363 1.385 . S
C360 H341 0.951 . S
C360 C358 1.388 . S
C360 C361 1.366 . S
C361 C360 1.366 . S
C361 C362 1.414 . S
C361 C364 1.499 . S
C362 H342 0.950 . S
C362 C361 1.414 . S
C362 C363 1.374 . S
C363 H343 0.950 . S
C363 C359 1.385 . S
C363 C362 1.374 . S
C364 C361 1.499 . S
C364 C365 1.373 . S
C364 C366 1.389 . S
C365 H344 0.950 . S
C365 C364 1.373 . S
C365 C381 1.377 . S
C366 C364 1.389 . S
C366 C367 1.524 . S
C366 C380 1.377 . S
C367 C366 1.524 . S
C367 C368 1.397 . S
C367 C372 1.363 . S
C368 H345 0.950 . S
C368 C367 1.397 . S
C368 C369 1.334 . S
C369 H346 0.950 . S
C369 C368 1.334 . S
C369 C370 1.287 . S
C370 C369 1.287 . S
C370 C371 1.524 . S
C370 H389 0.913 . S
C371 H347 0.950 . S
C371 C370 1.524 . S
C371 C372 1.415 . S
C372 H348 0.950 . S
C372 C367 1.363 . S
C372 C371 1.415 . S
C373 H349 0.951 . S
C373 C374 1.366 . S
C373 C375 1.388 . S
C374 C373 1.366 . S
C374 C378 1.385 . S
C375 H350 0.951 . S
C375 C373 1.388 . S
C375 C376 1.366 . S
C376 C375 1.366 . S
C376 C377 1.414 . S
C376 C379 1.499 . S
C377 H351 0.950 . S
C377 C376 1.414 . S
C377 C378 1.374 . S
C378 H352 0.950 . S
C378 C374 1.385 . S
C378 C377 1.374 . S
C379 C376 1.499 . S
C379 C380 1.373 . S
C379 C381 1.389 . S
C380 H353 0.950 . S
C380 C366 1.377 . S
C380 C379 1.373 . S
C381 C365 1.377 . S
C381 C379 1.389 . S
C381 C382 1.524 . S
C382 C381 1.524 . S
C382 C383 1.397 . S
C382 C387 1.363 . S
C383 H354 0.950 . S
C383 C382 1.397 . S
C383 C384 1.334 . S
C384 H355 0.950 . S
C384 C383 1.334 . S
C384 C385 1.287 . S
C385 C384 1.287 . S
C385 C386 1.524 . S
C385 H388 0.999 . S
C386 H356 0.950 . S
C386 C385 1.524 . S
C386 C387 1.415 . S
C387 H357 0.950 . S
C387 C382 1.363 . S
C387 C386 1.415 . S
H388 C385 0.999 . S
H389 C370 0.913 . S
H390 C408 0.951 . S
H391 C410 0.951 . S
H392 C412 0.950 . S
H393 C413 0.950 . S
H394 C415 0.950 . S
H395 C418 0.950 . S
H396 C419 0.950 1_655 S
H397 C421 0.950 . S
H398 C422 0.950 . S
H399 C423 0.951 . S
H400 C425 0.951 . S
H401 C427 0.950 . S
H402 C428 0.950 . S
H403 C430 0.950 . S
H404 C433 0.950 . S
H405 C434 0.950 . S
H406 C436 0.950 . S
H407 C437 0.950 . S
C408 H390 0.951 . S
C408 C409 1.366 . S
C408 C410 1.388 . S
C409 C408 1.366 . S
C409 C413 1.385 . S
C410 H391 0.951 . S
C410 C408 1.388 . S
C410 C411 1.366 . S
C411 C410 1.366 . S
C411 C412 1.414 . S
C411 C414 1.499 . S
C412 H392 0.950 . S
C412 C411 1.414 . S
C412 C413 1.374 . S
C413 H393 0.950 . S
C413 C409 1.385 . S
C413 C412 1.374 . S
C414 C411 1.499 . S
C414 C415 1.373 . S
C414 C416 1.389 . S
C415 H394 0.950 . S
C415 C414 1.373 . S
C415 C431 1.377 . S
C416 C414 1.389 . S
C416 C417 1.524 . S
C416 C430 1.377 . S
C417 C416 1.524 . S
C417 C418 1.397 . S
C417 C422 1.363 . S
C418 H395 0.950 . S
C418 C417 1.397 . S
C418 C419 1.334 . S
C419 H396 0.950 1_455 S
C419 C418 1.334 . S
C419 C420 1.287 . S
C420 C419 1.287 . S
C420 C421 1.524 . S
C420 H439 0.913 . S
C421 H397 0.950 . S
C421 C420 1.524 . S
C421 C422 1.415 . S
C422 H398 0.950 . S
C422 C417 1.363 . S
C422 C421 1.415 . S
C423 H399 0.951 . S
C423 C424 1.366 . S
C423 C425 1.388 . S
C424 C423 1.366 . S
C424 C428 1.385 . S
C425 H400 0.951 . S
C425 C423 1.388 . S
C425 C426 1.366 . S
C426 C425 1.366 . S
C426 C427 1.414 . S
C426 C429 1.499 . S
C427 H401 0.950 . S
C427 C426 1.414 . S
C427 C428 1.374 . S
C428 H402 0.950 . S
C428 C424 1.385 . S
C428 C427 1.374 . S
C429 C426 1.499 . S
C429 C430 1.373 . S
C429 C431 1.389 . S
C430 H403 0.950 . S
C430 C416 1.377 . S
C430 C429 1.373 . S
C431 C415 1.377 . S
C431 C429 1.389 . S
C431 C432 1.524 . S
C432 C431 1.524 . S
C432 C433 1.397 . S
C432 C437 1.363 . S
C433 H404 0.950 . S
C433 C432 1.397 . S
C433 C434 1.334 . S
C434 H405 0.950 . S
C434 C433 1.334 . S
C434 C435 1.287 . S
C435 C434 1.287 . S
C435 C436 1.524 . S
C435 H438 0.999 . S
C436 H406 0.950 . S
C436 C435 1.524 . S
C436 C437 1.415 . S
C437 H407 0.950 . S
C437 C432 1.363 . S
C437 C436 1.415 . S
H438 C435 0.999 . S
H439 C420 0.913 . S
H440 C458 0.951 . S
H441 C460 0.955 1_554 S
H442 C462 0.950 . S
H443 C463 0.950 . S
H444 C465 0.950 . S
H445 C468 0.950 . S
H446 C469 0.950 . S
H447 C471 0.950 . S
H448 C472 0.950 . S
H449 C473 0.951 . S
H450 C475 0.951 . S
H451 C477 0.951 . S
H452 C478 0.949 1_565 S
H453 C480 0.950 . S
H454 C483 0.950 . S
H455 C484 0.950 . S
H456 C486 0.950 . S
H457 C487 0.950 . S
C458 H440 0.951 . S
C458 C459 1.365 1_564 S
C458 C460 1.389 1_554 S
C459 C458 1.365 1_546 S
C459 C463 1.386 . S
C460 H441 0.955 1_556 S
C460 C458 1.389 1_556 S
C460 C461 1.363 1_565 S
C461 C460 1.363 1_545 S
C461 C462 1.414 . S
C461 C464 1.499 . S
C462 H442 0.950 . S
C462 C461 1.414 . S
C462 C463 1.374 . S
C463 H443 0.950 . S
C463 C459 1.386 . S
C463 C462 1.374 . S
C464 C461 1.499 . S
C464 C465 1.373 1_545 S
C464 C466 1.389 . S
C465 H444 0.950 . S
C465 C464 1.373 1_565 S
C465 C481 1.377 . S
C466 C464 1.389 . S
C466 C467 1.524 . S
C466 C480 1.377 . S
C467 C466 1.524 . S
C467 C468 1.397 . S
C467 C472 1.363 1_556 S
C468 H445 0.950 . S
C468 C467 1.397 . S
C468 C469 1.334 . S
C469 H446 0.950 . S
C469 C468 1.334 . S
C469 C470 1.287 1_556 S
C470 C469 1.287 1_554 S
C470 C471 1.524 . S
C470 H489 0.913 . S
C471 H447 0.950 . S
C471 C470 1.524 . S
C471 C472 1.415 . S
C472 H448 0.950 . S
C472 C467 1.363 1_554 S
C472 C471 1.415 . S
C473 H449 0.951 . S
C473 C474 1.366 . S
C473 C475 1.388 . S
C474 C473 1.366 . S
C474 C478 1.385 . S
C475 H450 0.951 . S
C475 C473 1.388 . S
C475 C476 1.366 . S
C476 C475 1.366 . S
C476 C477 1.413 1_545 S
C476 C479 1.499 . S
C477 H451 0.951 . S
C477 C476 1.413 1_565 S
C477 C478 1.374 1_565 S
C478 H452 0.949 1_545 S
C478 C474 1.385 . S
C478 C477 1.374 1_545 S
C479 C476 1.499 . S
C479 C480 1.401 . S
C479 C481 1.366 1_545 S
C480 H453 0.950 . S
C480 C466 1.377 . S
C480 C479 1.401 . S
C481 C465 1.377 . S
C481 C479 1.366 1_565 S
C481 C482 1.524 . S
C482 C481 1.524 . S
C482 C483 1.397 . S
C482 C487 1.363 . S
C483 H454 0.950 . S
C483 C482 1.397 . S
C483 C484 1.334 . S
C484 H455 0.950 . S
C484 C483 1.334 . S
C484 C485 1.287 . S
C485 C484 1.287 . S
C485 C486 1.524 . S
C485 H488 0.999 . S
C486 H456 0.950 . S
C486 C485 1.524 . S
C486 C487 1.415 . S
C487 H457 0.950 . S
C487 C482 1.363 . S
C487 C486 1.415 . S
H488 C485 0.999 . S
H489 C470 0.913 . S
H490 C508 0.951 . S
H491 C510 0.951 . S
H492 C512 0.950 . S
H493 C513 0.950 . S
H494 C515 0.950 . S
H495 C518 0.950 . S
H496 C519 0.950 . S
H497 C521 0.950 . S
H498 C522 0.950 1_556 S
H499 C523 0.951 . S
H500 C525 0.951 . S
H501 C527 0.950 . S
H502 C528 0.950 . S
H503 C530 0.950 . S
H504 C533 0.950 . S
H505 C534 0.950 . S
H506 C536 0.950 . S
H507 C537 0.950 . S
C508 H490 0.951 . S
C508 C509 1.366 . S
C508 C510 1.388 1_554 S
C509 C508 1.366 . S
C509 C513 1.385 1_554 S
C510 H491 0.951 . S
C510 C508 1.388 1_556 S
C510 C511 1.366 . S
C511 C510 1.366 . S
C511 C512 1.414 . S
C511 C514 1.499 . S
C512 H492 0.950 . S
C512 C511 1.414 . S
C512 C513 1.374 . S
C513 H493 0.950 . S
C513 C509 1.385 1_556 S
C513 C512 1.374 . S
C514 C511 1.499 . S
C514 C515 1.373 . S
C514 C516 1.389 . S
C515 H494 0.950 . S
C515 C514 1.373 . S
C515 C531 1.377 . S
C516 C514 1.389 . S
C516 C517 1.524 1_556 S
C516 C530 1.377 . S
C517 C516 1.524 1_554 S
C517 C518 1.397 . S
C517 C522 1.363 . S
C518 H495 0.950 . S
C518 C517 1.397 . S
C518 C519 1.334 . S
C519 H496 0.950 . S
C519 C518 1.334 . S
C519 C520 1.287 . S
C520 C519 1.287 . S
C520 C521 1.524 . S
C520 H539 0.913 . S
C521 H497 0.950 . S
C521 C520 1.524 . S
C521 C522 1.415 . S
C522 H498 0.950 1_554 S
C522 C517 1.363 . S
C522 C521 1.415 . S
C523 H499 0.951 . S
C523 C524 1.366 . S
C523 C525 1.388 . S
C524 C523 1.366 . S
C524 C528 1.385 . S
C525 H500 0.951 . S
C525 C523 1.388 . S
C525 C526 1.366 . S
C526 C525 1.366 . S
C526 C527 1.414 . S
C526 C529 1.499 . S
C527 H501 0.950 . S
C527 C526 1.414 . S
C527 C528 1.374 . S
C528 H502 0.950 . S
C528 C524 1.385 . S
C528 C527 1.374 . S
C529 C526 1.499 . S
C529 C530 1.373 . S
C529 C531 1.389 . S
C530 H503 0.950 . S
C530 C516 1.377 . S
C530 C529 1.373 . S
C531 C515 1.377 . S
C531 C529 1.389 . S
C531 C532 1.524 . S
C532 C531 1.524 . S
C532 C533 1.397 . S
C532 C537 1.363 . S
C533 H504 0.950 . S
C533 C532 1.397 . S
C533 C534 1.334 . S
C534 H505 0.950 . S
C534 C533 1.334 . S
C534 C535 1.287 . S
C535 C534 1.287 . S
C535 C536 1.524 . S
C535 H538 0.999 . S
C536 H506 0.950 . S
C536 C535 1.524 . S
C536 C537 1.415 . S
C537 H507 0.950 . S
C537 C532 1.363 . S
C537 C536 1.415 . S
H538 C535 0.999 . S
H539 C520 0.913 . S
H540 C558 0.951 . S
H541 C560 0.951 . S
H542 C562 0.950 . S
H543 C563 0.950 . S
H544 C565 0.950 . S
H545 C568 0.950 . S
H546 C569 0.950 . S
H547 C571 0.950 . S
H548 C572 0.950 . S
H549 C573 0.951 . S
H550 C575 0.951 . S
H551 C577 0.950 . S
H552 C578 0.950 . S
H553 C580 0.950 . S
H554 C583 0.950 . S
H555 C584 0.950 . S
H556 C586 0.950 . S
H557 C587 0.950 1_554 S
C558 H540 0.951 . S
C558 C559 1.366 1_556 S
C558 C560 1.388 . S
C559 C558 1.366 1_554 S
C559 C563 1.385 . S
C560 H541 0.951 . S
C560 C558 1.388 . S
C560 C561 1.366 . S
C561 C560 1.366 . S
C561 C562 1.414 1_556 S
C561 C564 1.499 . S
C562 H542 0.950 . S
C562 C561 1.414 1_554 S
C562 C563 1.374 . S
C563 H543 0.950 . S
C563 C559 1.385 . S
C563 C562 1.374 . S
C564 C561 1.499 . S
C564 C565 1.373 . S
C564 C566 1.389 . S
C565 H544 0.950 . S
C565 C564 1.373 . S
C565 C581 1.377 . S
C566 C564 1.389 . S
C566 C567 1.524 . S
C566 C580 1.377 . S
C567 C566 1.524 . S
C567 C568 1.397 . S
C567 C572 1.363 . S
C568 H545 0.950 . S
C568 C567 1.397 . S
C568 C569 1.334 . S
C569 H546 0.950 . S
C569 C568 1.334 . S
C569 C570 1.287 . S
C570 C569 1.287 . S
C570 C571 1.524 . S
C570 H589 0.913 . S
C571 H547 0.950 . S
C571 C570 1.524 . S
C571 C572 1.415 . S
C572 H548 0.950 . S
C572 C567 1.363 . S
C572 C571 1.415 . S
C573 H549 0.951 . S
C573 C574 1.366 . S
C573 C575 1.388 . S
C574 C573 1.366 . S
C574 C578 1.385 . S
C575 H550 0.951 . S
C575 C573 1.388 . S
C575 C576 1.366 . S
C576 C575 1.366 . S
C576 C577 1.414 . S
C576 C579 1.499 . S
C577 H551 0.950 . S
C577 C576 1.414 . S
C577 C578 1.374 . S
C578 H552 0.950 . S
C578 C574 1.385 . S
C578 C577 1.374 . S
C579 C576 1.499 . S
C579 C580 1.373 . S
C579 C581 1.389 . S
C580 H553 0.950 . S
C580 C566 1.377 . S
C580 C579 1.373 . S
C581 C565 1.377 . S
C581 C579 1.389 . S
C581 C582 1.524 . S
C582 C581 1.524 . S
C582 C583 1.397 . S
C582 C587 1.363 . S
C583 H554 0.950 . S
C583 C582 1.397 . S
C583 C584 1.334 . S
C584 H555 0.950 . S
C584 C583 1.334 . S
C584 C585 1.287 . S
C585 C584 1.287 . S
C585 C586 1.524 1_556 S
C585 H588 0.999 . S
C586 H556 0.950 . S
C586 C585 1.524 1_554 S
C586 C587 1.415 1_554 S
C587 H557 0.950 1_556 S
C587 C582 1.363 . S
C587 C586 1.415 1_556 S
H588 C585 0.999 . S
H589 C570 0.913 . S
H590 C608 0.951 1_554 S
H591 C610 0.951 . S
H592 C612 0.950 . S
H593 C613 0.950 . S
H594 C615 0.950 . S
H595 C618 0.950 . S
H596 C619 0.950 . S
H597 C621 0.950 . S
H598 C622 0.950 . S
H599 C623 0.951 . S
H600 C625 0.951 . S
H601 C627 0.951 . S
H602 C628 0.950 . S
H603 C630 0.950 . S
H604 C633 0.950 . S
H605 C634 0.950 . S
H606 C636 0.950 . S
H607 C637 0.950 . S
C608 H590 0.951 1_556 S
C608 C609 1.366 . S
C608 C610 1.388 . S
C609 C608 1.366 . S
C609 C613 1.385 . S
C610 H591 0.951 . S
C610 C608 1.388 . S
C610 C611 1.366 . S
C611 C610 1.366 . S
C611 C612 1.414 . S
C611 C614 1.499 . S
C612 H592 0.950 . S
C612 C611 1.414 . S
C612 C613 1.374 . S
C613 H593 0.950 . S
C613 C609 1.385 . S
C613 C612 1.374 . S
C614 C611 1.499 . S
C614 C615 1.373 . S
C614 C616 1.389 1_655 S
C615 H594 0.950 . S
C615 C614 1.373 . S
C615 C631 1.377 . S
C616 C614 1.389 1_455 S
C616 C617 1.524 . S
C616 C630 1.377 . S
C617 C616 1.524 . S
C617 C618 1.397 . S
C617 C622 1.363 . S
C618 H595 0.950 . S
C618 C617 1.397 . S
C618 C619 1.334 . S
C619 H596 0.950 . S
C619 C618 1.334 . S
C619 C620 1.287 . S
C620 C619 1.287 . S
C620 C621 1.524 1_556 S
C620 H639 0.913 1_556 S
C621 H597 0.950 . S
C621 C620 1.524 1_554 S
C621 C622 1.415 1_554 S
C622 H598 0.950 . S
C622 C617 1.363 . S
C622 C621 1.415 1_556 S
C623 H599 0.951 . S
C623 C624 1.366 . S
C623 C625 1.388 1_455 S
C624 C623 1.366 . S
C624 C628 1.385 . S
C625 H600 0.951 . S
C625 C623 1.388 1_655 S
C625 C626 1.366 . S
C626 C625 1.366 . S
C626 C627 1.414 1_655 S
C626 C629 1.499 . S
C627 H601 0.951 . S
C627 C626 1.414 1_455 S
C627 C628 1.374 . S
C628 H602 0.950 . S
C628 C624 1.385 . S
C628 C627 1.374 . S
C629 C626 1.499 . S
C629 C630 1.373 1_655 S
C629 C631 1.389 . S
C630 H603 0.950 . S
C630 C616 1.377 . S
C630 C629 1.373 1_455 S
C631 C615 1.377 . S
C631 C629 1.389 . S
C631 C632 1.524 . S
C632 C631 1.524 . S
C632 C633 1.397 . S
C632 C637 1.363 . S
C633 H604 0.950 . S
C633 C632 1.397 . S
C633 C634 1.334 . S
C634 H605 0.950 . S
C634 C633 1.334 . S
C634 C635 1.287 . S
C635 C634 1.287 . S
C635 C636 1.524 . S
C635 H638 0.999 . S
C636 H606 0.950 . S
C636 C635 1.524 . S
C636 C637 1.415 . S
C637 H607 0.950 . S
C637 C632 1.363 . S
C637 C636 1.415 . S
H638 C635 0.999 . S
H639 C620 0.913 1_554 S
H640 C658 0.951 . S
H641 C660 0.951 . S
H642 C662 0.950 . S
H643 C663 0.950 . S
H644 C665 0.950 . S
H645 C668 0.950 . S
H646 C669 0.950 . S
H647 C671 0.950 . S
H648 C672 0.950 . S
H649 C673 0.951 . S
H650 C675 0.951 . S
H651 C677 0.950 . S
H652 C678 0.950 1_655 S
H653 C680 0.950 . S
H654 C683 0.950 . S
H655 C684 0.950 . S
H656 C686 0.950 . S
H657 C687 0.950 . S
C658 H640 0.951 . S
C658 C659 1.366 . S
C658 C660 1.388 . S
C659 C658 1.366 . S
C659 C663 1.385 . S
C660 H641 0.951 . S
C660 C658 1.388 . S
C660 C661 1.366 . S
C661 C660 1.366 . S
C661 C662 1.414 . S
C661 C664 1.499 . S
C662 H642 0.950 . S
C662 C661 1.414 . S
C662 C663 1.374 . S
C663 H643 0.950 . S
C663 C659 1.385 . S
C663 C662 1.374 . S
C664 C661 1.499 . S
C664 C665 1.373 . S
C664 C666 1.389 . S
C665 H644 0.950 . S
C665 C664 1.373 . S
C665 C681 1.377 . S
C666 C664 1.389 . S
C666 C667 1.524 . S
C666 C680 1.377 . S
C667 C666 1.524 . S
C667 C668 1.397 . S
C667 C672 1.363 . S
C668 H645 0.950 . S
C668 C667 1.397 . S
C668 C669 1.334 . S
C669 H646 0.950 . S
C669 C668 1.334 . S
C669 C670 1.287 . S
C670 C669 1.287 . S
C670 C671 1.524 . S
C670 H689 0.913 . S
C671 H647 0.950 . S
C671 C670 1.524 . S
C671 C672 1.415 . S
C672 H648 0.950 . S
C672 C667 1.363 . S
C672 C671 1.415 . S
C673 H649 0.951 . S
C673 C674 1.366 . S
C673 C675 1.388 . S
C674 C673 1.366 . S
C674 C678 1.385 . S
C675 H650 0.951 . S
C675 C673 1.388 . S
C675 C676 1.366 . S
C676 C675 1.366 . S
C676 C677 1.414 . S
C676 C679 1.499 . S
C677 H651 0.950 . S
C677 C676 1.414 . S
C677 C678 1.374 . S
C678 H652 0.950 1_455 S
C678 C674 1.385 . S
C678 C677 1.374 . S
C679 C676 1.499 . S
C679 C680 1.373 . S
C679 C681 1.389 . S
C680 H653 0.950 . S
C680 C666 1.377 . S
C680 C679 1.373 . S
C681 C665 1.377 . S
C681 C679 1.389 . S
C681 C682 1.524 . S
C682 C681 1.524 . S
C682 C683 1.397 . S
C682 C687 1.363 . S
C683 H654 0.950 . S
C683 C682 1.397 . S
C683 C684 1.334 . S
C684 H655 0.950 . S
C684 C683 1.334 . S
C684 C685 1.287 . S
C685 C684 1.287 . S
C685 C686 1.524 . S
C685 H688 0.999 . S
C686 H656 0.950 . S
C686 C685 1.524 . S
C686 C687 1.415 . S
C687 H657 0.950 . S
C687 C682 1.363 . S
C687 C686 1.415 . S
H688 C685 0.999 . S
H689 C670 0.913 . S
H690 C708 0.953 . S
H691 C710 0.951 . S
H692 C712 0.951 . S
H693 C713 0.952 . S
H694 C715 0.950 . S
H695 C718 0.950 . S
H696 C719 0.950 . S
H697 C721 0.950 . S
H698 C722 0.950 . S
H699 C723 0.951 . S
H700 C725 0.951 . S
H701 C727 0.950 . S
H702 C728 0.950 . S
H703 C730 0.950 . S
H704 C733 0.950 . S
H705 C734 0.950 . S
H706 C736 0.950 . S
H707 C737 0.950 . S
C708 H690 0.953 . S
C708 C709 1.368 1_565 S
C708 C710 1.388 . S
C709 C708 1.368 1_545 S
C709 C713 1.385 . S
C710 H691 0.951 . S
C710 C708 1.388 . S
C710 C711 1.366 . S
C711 C710 1.366 . S
C711 C712 1.415 1_565 S
C711 C714 1.499 . S
C712 H692 0.951 . S
C712 C711 1.415 1_545 S
C712 C713 1.374 . S
C713 H693 0.952 . S
C713 C709 1.385 . S
C713 C712 1.374 . S
C714 C711 1.499 . S
C714 C715 1.396 . S
C714 C716 1.370 1_565 S
C715 H694 0.950 . S
C715 C714 1.396 . S
C715 C731 1.377 . S
C716 C714 1.370 1_545 S
C716 C717 1.524 . S
C716 C730 1.377 . S
C717 C716 1.524 . S
C717 C718 1.397 . S
C717 C722 1.363 . S
C718 H695 0.950 . S
C718 C717 1.397 . S
C718 C719 1.334 . S
C719 H696 0.950 . S
C719 C718 1.334 . S
C719 C720 1.287 . S
C720 C719 1.287 . S
C720 C721 1.524 . S
C720 H739 0.913 . S
C721 H697 0.950 . S
C721 C720 1.524 . S
C721 C722 1.415 . S
C722 H698 0.950 . S
C722 C717 1.363 . S
C722 C721 1.415 . S
C723 H699 0.951 . S
C723 C724 1.366 . S
C723 C725 1.388 . S
C724 C723 1.366 . S
C724 C728 1.385 . S
C725 H700 0.951 . S
C725 C723 1.388 . S
C725 C726 1.366 . S
C726 C725 1.366 . S
C726 C727 1.414 . S
C726 C729 1.499 . S
C727 H701 0.950 . S
C727 C726 1.414 . S
C727 C728 1.374 . S
C728 H702 0.950 . S
C728 C724 1.385 . S
C728 C727 1.374 . S
C729 C726 1.499 . S
C729 C730 1.373 1_565 S
C729 C731 1.389 . S
C730 H703 0.950 . S
C730 C716 1.377 . S
C730 C729 1.373 1_545 S
C731 C715 1.377 . S
C731 C729 1.389 . S
C731 C732 1.524 . S
C732 C731 1.524 . S
C732 C733 1.397 . S
C732 C737 1.363 . S
C733 H704 0.950 . S
C733 C732 1.397 . S
C733 C734 1.334 . S
C734 H705 0.950 . S
C734 C733 1.334 . S
C734 C735 1.287 . S
C735 C734 1.287 . S
C735 C736 1.524 . S
C735 H738 0.999 . S
C736 H706 0.950 . S
C736 C735 1.524 . S
C736 C737 1.415 . S
C737 H707 0.950 . S
C737 C732 1.363 . S
C737 C736 1.415 . S
H738 C735 0.999 . S
H739 C720 0.913 . S
H740 C758 0.951 . S
H741 C760 0.951 . S
H742 C762 0.950 . S
H743 C763 0.950 . S
H744 C765 0.950 . S
H745 C768 0.950 . S
H746 C769 0.950 . S
H747 C771 0.950 . S
H748 C772 0.950 . S
H749 C773 0.951 . S
H750 C775 0.951 . S
H751 C777 0.950 . S
H752 C778 0.950 . S
H753 C780 0.950 . S
H754 C783 0.950 . S
H755 C784 0.950 . S
H756 C786 0.950 . S
H757 C787 0.950 . S
C758 H740 0.951 . S
C758 C759 1.366 . S
C758 C760 1.388 . S
C759 C758 1.366 . S
C759 C763 1.385 . S
C760 H741 0.951 . S
C760 C758 1.388 . S
C760 C761 1.366 . S
C761 C760 1.366 . S
C761 C762 1.414 . S
C761 C764 1.499 . S
C762 H742 0.950 . S
C762 C761 1.414 . S
C762 C763 1.374 . S
C763 H743 0.950 . S
C763 C759 1.385 . S
C763 C762 1.374 . S
C764 C761 1.499 . S
C764 C765 1.373 . S
C764 C766 1.389 . S
C765 H744 0.950 . S
C765 C764 1.373 . S
C765 C781 1.377 . S
C766 C764 1.389 . S
C766 C767 1.524 . S
C766 C780 1.377 . S
C767 C766 1.524 . S
C767 C768 1.397 . S
C767 C772 1.363 . S
C768 H745 0.950 . S
C768 C767 1.397 . S
C768 C769 1.334 . S
C769 H746 0.950 . S
C769 C768 1.334 . S
C769 C770 1.287 . S
C770 C769 1.287 . S
C770 C771 1.524 . S
C770 H789 0.913 . S
C771 H747 0.950 . S
C771 C770 1.524 . S
C771 C772 1.415 . S
C772 H748 0.950 . S
C772 C767 1.363 . S
C772 C771 1.415 . S
C773 H749 0.951 . S
C773 C774 1.366 . S
C773 C775 1.388 . S
C774 C773 1.366 . S
C774 C778 1.385 . S
C775 H750 0.951 . S
C775 C773 1.388 . S
C775 C776 1.366 . S
C776 C775 1.366 . S
C776 C777 1.414 . S
C776 C779 1.499 . S
C777 H751 0.950 . S
C777 C776 1.414 . S
C777 C778 1.374 . S
C778 H752 0.950 . S
C778 C774 1.385 . S
C778 C777 1.374 . S
C779 C776 1.499 . S
C779 C780 1.373 . S
C779 C781 1.389 . S
C780 H753 0.950 . S
C780 C766 1.377 . S
C780 C779 1.373 . S
C781 C765 1.377 . S
C781 C779 1.389 . S
C781 C782 1.524 . S
C782 C781 1.524 . S
C782 C783 1.397 . S
C782 C787 1.363 . S
C783 H754 0.950 . S
C783 C782 1.397 . S
C783 C784 1.334 . S
C784 H755 0.950 . S
C784 C783 1.334 . S
C784 C785 1.287 . S
C785 C784 1.287 . S
C785 C786 1.524 . S
C785 H788 0.999 . S
C786 H756 0.950 . S
C786 C785 1.524 . S
C786 C787 1.415 . S
C787 H757 0.950 . S
C787 C782 1.363 . S
C787 C786 1.415 . S
H788 C785 0.999 . S
H789 C770 0.913 . S
H790 C808 0.951 . S
H791 C810 0.951 . S
H792 C812 0.950 . S
H793 C813 0.950 . S
H794 C815 0.950 . S
H795 C818 0.950 . S
H796 C819 0.950 . S
H797 C821 0.950 . S
H798 C822 0.950 . S
H799 C823 0.951 . S
H800 C825 0.951 . S
H801 C827 0.950 . S
H802 C828 0.950 . S
H803 C830 0.950 . S
H804 C833 0.950 . S
H805 C834 0.950 . S
H806 C836 0.950 . S
H807 C837 0.950 . S
C808 H790 0.951 . S
C808 C809 1.366 . S
C808 C810 1.388 . S
C809 C808 1.366 . S
C809 C813 1.385 . S
C810 H791 0.951 . S
C810 C808 1.388 . S
C810 C811 1.366 . S
C811 C810 1.366 . S
C811 C812 1.414 . S
C811 C814 1.499 . S
C812 H792 0.950 . S
C812 C811 1.414 . S
C812 C813 1.374 . S
C813 H793 0.950 . S
C813 C809 1.385 . S
C813 C812 1.374 . S
C814 C811 1.499 . S
C814 C815 1.373 . S
C814 C816 1.389 . S
C815 H794 0.950 . S
C815 C814 1.373 . S
C815 C831 1.377 . S
C816 C814 1.389 . S
C816 C817 1.524 . S
C816 C830 1.377 . S
C817 C816 1.524 . S
C817 C818 1.397 . S
C817 C822 1.363 . S
C818 H795 0.950 . S
C818 C817 1.397 . S
C818 C819 1.334 . S
C819 H796 0.950 . S
C819 C818 1.334 . S
C819 C820 1.287 . S
C820 C819 1.287 . S
C820 C821 1.524 . S
C820 H839 0.913 . S
C821 H797 0.950 . S
C821 C820 1.524 . S
C821 C822 1.415 . S
C822 H798 0.950 . S
C822 C817 1.363 . S
C822 C821 1.415 . S
C823 H799 0.951 . S
C823 C824 1.366 . S
C823 C825 1.388 . S
C824 C823 1.366 . S
C824 C828 1.385 . S
C825 H800 0.951 . S
C825 C823 1.388 . S
C825 C826 1.366 . S
C826 C825 1.366 . S
C826 C827 1.414 . S
C826 C829 1.499 . S
C827 H801 0.950 . S
C827 C826 1.414 . S
C827 C828 1.374 . S
C828 H802 0.950 . S
C828 C824 1.385 . S
C828 C827 1.374 . S
C829 C826 1.499 . S
C829 C830 1.373 . S
C829 C831 1.389 . S
C830 H803 0.950 . S
C830 C816 1.377 . S
C830 C829 1.373 . S
C831 C815 1.377 . S
C831 C829 1.389 . S
C831 C832 1.524 . S
C832 C831 1.524 . S
C832 C833 1.397 . S
C832 C837 1.363 . S
C833 H804 0.950 . S
C833 C832 1.397 . S
C833 C834 1.334 . S
C834 H805 0.950 . S
C834 C833 1.334 . S
C834 C835 1.287 . S
C835 C834 1.287 . S
C835 C836 1.524 . S
C835 H838 0.999 . S
C836 H806 0.950 . S
C836 C835 1.524 . S
C836 C837 1.415 . S
C837 H807 0.950 . S
C837 C832 1.363 . S
C837 C836 1.415 . S
H838 C835 0.999 . S
H839 C820 0.913 . S
H840 C858 0.951 . S
H841 C860 0.951 . S
H842 C862 0.950 1_455 S
H843 C863 0.921 1_455 S
H844 C865 0.950 . S
H845 C868 0.950 . S
H846 C869 0.950 . S
H847 C871 0.950 . S
H848 C872 0.950 . S
H849 C873 0.951 . S
H850 C875 0.951 . S
H851 C877 0.950 . S
H852 C878 0.950 . S
H853 C880 0.950 . S
H854 C883 0.998 . S
H855 C884 0.950 . S
H856 C886 0.950 . S
H857 C887 0.950 . S
C858 H840 0.951 . S
C858 C859 1.366 . S
C858 C860 1.388 . S
C859 C858 1.366 . S
C859 C863 1.385 . S
C860 H841 0.951 . S
C860 C858 1.388 . S
C860 C861 1.366 . S
C861 C860 1.366 . S
C861 C862 1.414 . S
C861 C864 1.499 . S
C862 H842 0.950 1_655 S
C862 C861 1.414 . S
C862 C863 1.374 . S
C863 H843 0.921 1_655 S
C863 C859 1.385 . S
C863 C862 1.374 . S
C864 C861 1.499 . S
C864 C865 1.373 1_655 S
C864 C866 1.389 . S
C865 H844 0.950 . S
C865 C864 1.373 1_455 S
C865 C881 1.377 . S
C866 C864 1.389 . S
C866 C867 1.524 . S
C866 C880 1.377 . S
C867 C866 1.524 . S
C867 C868 1.397 . S
C867 C872 1.363 . S
C868 H845 0.950 . S
C868 C867 1.397 . S
C868 C869 1.334 . S
C869 H846 0.950 . S
C869 C868 1.334 . S
C869 C870 1.287 . S
C870 C869 1.287 . S
C870 C871 1.524 . S
C870 H889 0.913 . S
C871 H847 0.950 . S
C871 C870 1.524 . S
C871 C872 1.415 . S
C872 H848 0.950 . S
C872 C867 1.363 . S
C872 C871 1.415 . S
C873 H849 0.951 . S
C873 C874 1.366 . S
C873 C875 1.388 . S
C874 C873 1.366 . S
C874 C878 1.385 1_455 S
C875 H850 0.951 . S
C875 C873 1.388 . S
C875 C876 1.366 . S
C876 C875 1.366 . S
C876 C877 1.414 1_455 S
C876 C879 1.484 1_455 S
C877 H851 0.950 . S
C877 C876 1.414 1_655 S
C877 C878 1.374 . S
C878 H852 0.950 . S
C878 C874 1.385 1_655 S
C878 C877 1.374 . S
C879 C876 1.484 1_655 S
C879 C880 1.413 . S
C879 C881 1.365 1_655 S
C880 H853 0.950 . S
C880 C866 1.377 . S
C880 C879 1.413 . S
C881 C865 1.377 . S
C881 C879 1.365 1_455 S
C881 C882 1.524 . S
C882 C881 1.524 . S
C882 C883 1.397 . S
C882 C887 1.363 . S
C883 H854 0.998 . S
C883 C882 1.397 . S
C883 C884 1.334 . S
C884 H855 0.950 . S
C884 C883 1.334 . S
C884 C885 1.287 1_556 S
C885 C884 1.287 1_554 S
C885 C886 1.524 1_554 S
C885 H888 0.999 . S
C886 H856 0.950 . S
C886 C885 1.524 1_556 S
C886 C887 1.415 . S
C887 H857 0.950 . S
C887 C882 1.363 . S
C887 C886 1.415 . S
H888 C885 0.999 . S
H889 C870 0.913 . S
H890 C908 0.951 . S
H891 C910 0.951 . S
H892 C912 0.950 . S
H893 C913 0.950 . S
H894 C915 0.950 . S
H895 C918 0.950 1_556 S
H896 C919 0.950 . S
H897 C921 0.950 . S
H898 C922 0.950 . S
H899 C923 0.966 . S
H900 C925 0.969 . S
H901 C927 0.950 . S
H902 C928 0.950 . S
H903 C930 0.950 . S
H904 C933 0.950 . S
H905 C934 0.950 . S
H906 C936 0.950 . S
H907 C937 0.950 . S
C908 H890 0.951 . S
C908 C909 1.366 . S
C908 C910 1.388 . S
C909 C908 1.366 . S
C909 C913 1.385 1_544 S
C910 H891 0.951 . S
C910 C908 1.388 . S
C910 C911 1.370 1_554 S
C911 C910 1.370 1_556 S
C911 C912 1.410 1_545 S
C911 C914 1.499 . S
C912 H892 0.950 . S
C912 C911 1.410 1_565 S
C912 C913 1.374 . S
C913 H893 0.950 . S
C913 C909 1.385 1_566 S
C913 C912 1.374 . S
C914 C911 1.499 . S
C914 C915 1.390 . S
C914 C916 1.376 1_545 S
C915 H894 0.950 . S
C915 C914 1.390 . S
C915 C931 1.377 . S
C916 C914 1.376 1_565 S
C916 C917 1.524 1_556 S
C916 C930 1.377 . S
C917 C916 1.524 1_554 S
C917 C918 1.397 . S
C917 C922 1.363 . S
C918 H895 0.950 1_554 S
C918 C917 1.397 . S
C918 C919 1.334 . S
C919 H896 0.950 . S
C919 C918 1.334 . S
C919 C920 1.287 . S
C920 C919 1.287 . S
C920 C921 1.524 . S
C920 H939 0.913 . S
C921 H897 0.950 . S
C921 C920 1.524 . S
C921 C922 1.415 . S
C922 H898 0.950 . S
C922 C917 1.363 . S
C922 C921 1.415 . S
C923 H899 0.966 . S
C923 C924 1.353 1_565 S
C923 C925 1.388 . S
C924 C923 1.353 1_545 S
C924 C928 1.385 . S
C925 H900 0.969 . S
C925 C923 1.388 . S
C925 C926 1.348 1_565 S
C926 C925 1.348 1_545 S
C926 C927 1.414 . S
C926 C929 1.499 . S
C927 H901 0.950 . S
C927 C926 1.414 . S
C927 C928 1.374 . S
C928 H902 0.950 . S
C928 C924 1.385 . S
C928 C927 1.374 . S
C929 C926 1.499 . S
C929 C930 1.373 1_545 S
C929 C931 1.389 . S
C930 H903 0.950 . S
C930 C916 1.377 . S
C930 C929 1.373 1_565 S
C931 C915 1.377 . S
C931 C929 1.389 . S
C931 C932 1.524 . S
C932 C931 1.524 . S
C932 C933 1.397 . S
C932 C937 1.363 . S
C933 H904 0.950 . S
C933 C932 1.397 . S
C933 C934 1.334 . S
C934 H905 0.950 . S
C934 C933 1.334 . S
C934 C935 1.287 . S
C935 C934 1.287 . S
C935 C936 1.524 . S
C935 H938 0.999 . S
C936 H906 0.950 . S
C936 C935 1.524 . S
C936 C937 1.415 . S
C937 H907 0.950 . S
C937 C932 1.363 . S
C937 C936 1.415 . S
H938 C935 0.999 . S
H939 C920 0.913 . S
H940 C958 0.951 . S
H941 C960 0.951 . S
H942 C962 0.950 . S
H943 C963 0.950 . S
H944 C965 0.950 . S
H945 C968 0.950 . S
H946 C969 0.950 . S
H947 C971 0.950 . S
H948 C972 0.950 . S
H949 C973 0.951 . S
H950 C975 0.951 . S
H951 C977 0.950 . S
H952 C978 0.950 . S
H953 C980 0.950 . S
H954 C983 0.950 . S
H955 C984 0.950 . S
H956 C986 0.950 . S
H957 C987 0.950 . S
C958 H940 0.951 . S
C958 C959 1.366 1_556 S
C958 C960 1.388 . S
C959 C958 1.366 1_554 S
C959 C963 1.385 . S
C960 H941 0.951 . S
C960 C958 1.388 . S
C960 C961 1.366 . S
C961 C960 1.366 . S
C961 C962 1.414 . S
C961 C964 1.499 . S
C962 H942 0.950 . S
C962 C961 1.414 . S
C962 C963 1.374 1_556 S
C963 H943 0.950 . S
C963 C959 1.385 . S
C963 C962 1.374 1_554 S
C964 C961 1.499 . S
C964 C965 1.373 . S
C964 C966 1.389 . S
C965 H944 0.950 . S
C965 C964 1.373 . S
C965 C981 1.377 . S
C966 C964 1.389 . S
C966 C967 1.524 . S
C966 C980 1.377 . S
C967 C966 1.524 . S
C967 C968 1.397 . S
C967 C972 1.363 . S
C968 H945 0.950 . S
C968 C967 1.397 . S
C968 C969 1.334 . S
C969 H946 0.950 . S
C969 C968 1.334 . S
C969 C970 1.287 . S
C970 C969 1.287 . S
C970 C971 1.524 . S
C970 H989 0.913 . S
C971 H947 0.950 . S
C971 C970 1.524 . S
C971 C972 1.415 . S
C972 H948 0.950 . S
C972 C967 1.363 . S
C972 C971 1.415 . S
C973 H949 0.951 . S
C973 C974 1.366 . S
C973 C975 1.388 . S
C974 C973 1.366 . S
C974 C978 1.385 . S
C975 H950 0.951 . S
C975 C973 1.388 . S
C975 C976 1.366 . S
C976 C975 1.366 . S
C976 C977 1.414 . S
C976 C979 1.499 . S
C977 H951 0.950 . S
C977 C976 1.414 . S
C977 C978 1.374 . S
C978 H952 0.950 . S
C978 C974 1.385 . S
C978 C977 1.374 . S
C979 C976 1.499 . S
C979 C980 1.373 . S
C979 C981 1.389 . S
C980 H953 0.950 . S
C980 C966 1.377 . S
C980 C979 1.373 . S
C981 C965 1.377 . S
C981 C979 1.389 . S
C981 C982 1.524 . S
C982 C981 1.524 . S
C982 C983 1.397 . S
C982 C987 1.363 . S
C983 H954 0.950 . S
C983 C982 1.397 . S
C983 C984 1.334 1_556 S
C984 H955 0.950 . S
C984 C983 1.334 1_554 S
C984 C985 1.287 . S
C985 C984 1.287 . S
C985 C986 1.524 . S
C985 H988 0.999 . S
C986 H956 0.950 . S
C986 C985 1.524 . S
C986 C987 1.415 1_554 S
C987 H957 0.950 . S
C987 C982 1.363 . S
C987 C986 1.415 1_556 S
H988 C985 0.999 . S
H989 C970 0.913 . S
H990 C1008 0.951 1_556 S
H991 C1010 0.951 . S
H992 C1012 0.950 . S
H993 C1013 0.950 . S
H994 C1015 0.950 1_554 S
H995 C1018 0.950 . S
H996 C1019 0.950 . S
H997 C1021 0.950 . S
H998 C1022 0.950 . S
H999 C1023 0.951 . S
H1000 C1025 0.951 . S
H1001 C1027 0.950 . S
H1002 C1028 0.950 . S
H1003 C1030 0.950 . S
H1004 C1033 0.950 . S
H1005 C1034 0.950 . S
H1006 C1036 0.950 . S
H1007 C1037 0.950 . S
C1008 H990 0.951 1_554 S
C1008 C1009 1.366 . S
C1008 C1010 1.388 1_554 S
C1009 C1008 1.366 . S
C1009 C1013 1.385 . S
C1010 H991 0.951 . S
C1010 C1008 1.388 1_556 S
C1010 C1011 1.366 . S
C1011 C1010 1.366 . S
C1011 C1012 1.414 1_556 S
C1011 C1014 1.499 . S
C1012 H992 0.950 . S
C1012 C1011 1.414 1_554 S
C1012 C1013 1.374 . S
C1013 H993 0.950 . S
C1013 C1009 1.385 . S
C1013 C1012 1.374 . S
C1014 C1011 1.499 . S
C1014 C1015 1.373 . S
C1014 C1016 1.389 . S
C1015 H994 0.950 1_556 S
C1015 C1014 1.373 . S
C1015 C1031 1.377 . S
C1016 C1014 1.389 . S
C1016 C1017 1.524 . S
C1016 C1030 1.377 . S
C1017 C1016 1.524 . S
C1017 C1018 1.397 . S
C1017 C1022 1.363 . S
C1018 H995 0.950 . S
C1018 C1017 1.397 . S
C1018 C1019 1.334 . S
C1019 H996 0.950 . S
C1019 C1018 1.334 . S
C1019 C1020 1.287 . S
C1020 C1019 1.287 . S
C1020 C1021 1.524 . S
C1020 H1039 0.913 . S
C1021 H997 0.950 . S
C1021 C1020 1.524 . S
C1021 C1022 1.415 . S
C1022 H998 0.950 . S
C1022 C1017 1.363 . S
C1022 C1021 1.415 . S
C1023 H999 0.951 . S
C1023 C1024 1.366 . S
C1023 C1025 1.388 . S
C1024 C1023 1.366 . S
C1024 C1028 1.385 . S
C1025 H1000 0.951 . S
C1025 C1023 1.388 . S
C1025 C1026 1.366 . S
C1026 C1025 1.366 . S
C1026 C1027 1.414 . S
C1026 C1029 1.499 . S
C1027 H1001 0.950 . S
C1027 C1026 1.414 . S
C1027 C1028 1.374 . S
C1028 H1002 0.950 . S
C1028 C1024 1.385 . S
C1028 C1027 1.374 . S
C1029 C1026 1.499 . S
C1029 C1030 1.373 . S
C1029 C1031 1.389 . S
C1030 H1003 0.950 . S
C1030 C1016 1.377 . S
C1030 C1029 1.373 . S
C1031 C1015 1.377 . S
C1031 C1029 1.389 . S
C1031 C1032 1.524 . S
C1032 C1031 1.524 . S
C1032 C1033 1.397 . S
C1032 C1037 1.363 1_556 S
C1033 H1004 0.950 . S
C1033 C1032 1.397 . S
C1033 C1034 1.334 . S
C1034 H1005 0.950 . S
C1034 C1033 1.334 . S
C1034 C1035 1.287 1_556 S
C1035 C1034 1.287 1_554 S
C1035 C1036 1.524 . S
C1035 H1038 0.999 . S
C1036 H1006 0.950 . S
C1036 C1035 1.524 . S
C1036 C1037 1.415 . S
C1037 H1007 0.950 . S
C1037 C1032 1.363 1_554 S
C1037 C1036 1.415 . S
H1038 C1035 0.999 . S
H1039 C1020 0.913 . S
H1040 C1058 0.951 . S
H1041 C1060 0.951 . S
H1042 C1062 0.950 . S
H1043 C1063 0.950 . S
H1044 C1065 0.950 . S
H1045 C1068 0.950 . S
H1046 C1069 0.950 . S
H1047 C1071 0.950 . S
H1048 C1072 0.950 . S
H1049 C1073 0.951 . S
H1050 C1075 0.951 . S
H1051 C1077 0.950 . S
H1052 C1078 0.950 . S
H1053 C1080 0.950 . S
H1054 C1083 0.950 . S
H1055 C1084 0.950 . S
H1056 C1086 0.950 . S
H1057 C1087 0.950 . S
C1058 H1040 0.951 . S
C1058 C1059 1.366 . S
C1058 C1060 1.388 . S
C1059 C1058 1.366 . S
C1059 C1063 1.385 . S
C1060 H1041 0.951 . S
C1060 C1058 1.388 . S
C1060 C1061 1.366 . S
C1061 C1060 1.366 . S
C1061 C1062 1.414 . S
C1061 C1064 1.499 . S
C1062 H1042 0.950 . S
C1062 C1061 1.414 . S
C1062 C1063 1.374 . S
C1063 H1043 0.950 . S
C1063 C1059 1.385 . S
C1063 C1062 1.374 . S
C1064 C1061 1.499 . S
C1064 C1065 1.373 . S
C1064 C1066 1.389 . S
C1065 H1044 0.950 . S
C1065 C1064 1.373 . S
C1065 C1081 1.377 . S
C1066 C1064 1.389 . S
C1066 C1067 1.524 . S
C1066 C1080 1.377 . S
C1067 C1066 1.524 . S
C1067 C1068 1.397 . S
C1067 C1072 1.363 . S
C1068 H1045 0.950 . S
C1068 C1067 1.397 . S
C1068 C1069 1.334 . S
C1069 H1046 0.950 . S
C1069 C1068 1.334 . S
C1069 C1070 1.287 1_554 S
C1070 C1069 1.287 1_556 S
C1070 C1071 1.524 . S
C1070 H1089 0.913 . S
C1071 H1047 0.950 . S
C1071 C1070 1.524 . S
C1071 C1072 1.415 1_556 S
C1072 H1048 0.950 . S
C1072 C1067 1.363 . S
C1072 C1071 1.415 1_554 S
C1073 H1049 0.951 . S
C1073 C1074 1.366 . S
C1073 C1075 1.388 1_556 S
C1074 C1073 1.366 . S
C1074 C1078 1.385 . S
C1075 H1050 0.951 . S
C1075 C1073 1.388 1_554 S
C1075 C1076 1.366 . S
C1076 C1075 1.366 . S
C1076 C1077 1.414 1_554 S
C1076 C1079 1.499 . S
C1077 H1051 0.950 . S
C1077 C1076 1.414 1_556 S
C1077 C1078 1.374 . S
C1078 H1052 0.950 . S
C1078 C1074 1.385 . S
C1078 C1077 1.374 . S
C1079 C1076 1.499 . S
C1079 C1080 1.373 . S
C1079 C1081 1.389 . S
C1080 H1053 0.950 . S
C1080 C1066 1.377 . S
C1080 C1079 1.373 . S
C1081 C1065 1.377 . S
C1081 C1079 1.389 . S
C1081 C1082 1.524 . S
C1082 C1081 1.524 . S
C1082 C1083 1.397 . S
C1082 C1087 1.363 . S
C1083 H1054 0.950 . S
C1083 C1082 1.397 . S
C1083 C1084 1.334 . S
C1084 H1055 0.950 . S
C1084 C1083 1.334 . S
C1084 C1085 1.287 . S
C1085 C1084 1.287 . S
C1085 C1086 1.524 . S
C1085 H1088 0.999 . S
C1086 H1056 0.950 . S
C1086 C1085 1.524 . S
C1086 C1087 1.415 . S
C1087 H1057 0.950 . S
C1087 C1082 1.363 . S
C1087 C1086 1.415 . S
H1088 C1085 0.999 . S
H1089 C1070 0.913 . S
H1090 C1108 0.951 . S
H1091 C1110 0.951 . S
H1092 C1112 0.950 . S
H1093 C1113 0.950 . S
H1094 C1115 0.950 . S
H1095 C1118 0.950 . S
H1096 C1119 0.950 . S
H1097 C1121 0.950 . S
H1098 C1122 0.950 . S
H1099 C1123 0.951 . S
H1100 C1125 0.951 . S
H1101 C1127 0.950 . S
H1102 C1128 0.950 . S
H1103 C1130 0.950 . S
H1104 C1133 0.950 . S
H1105 C1134 0.950 1_556 S
H1106 C1136 0.950 . S
H1107 C1137 0.950 . S
C1108 H1090 0.951 . S
C1108 C1109 1.370 . S
C1108 C1110 1.388 . S
C1109 C1108 1.370 . S
C1109 C1113 1.379 1_545 S
C1110 H1091 0.951 . S
C1110 C1108 1.388 . S
C1110 C1111 1.368 . S
C1111 C1110 1.368 . S
C1111 C1112 1.412 1_545 S
C1111 C1114 1.499 . S
C1112 H1092 0.950 . S
C1112 C1111 1.412 1_565 S
C1112 C1113 1.374 . S
C1113 H1093 0.950 . S
C1113 C1109 1.379 1_565 S
C1113 C1112 1.374 . S
C1114 C1111 1.499 . S
C1114 C1115 1.384 . S
C1114 C1116 1.380 1_544 S
C1115 H1094 0.950 . S
C1115 C1114 1.384 . S
C1115 C1131 1.377 . S
C1116 C1114 1.380 1_566 S
C1116 C1117 1.524 . S
C1116 C1130 1.377 . S
C1117 C1116 1.524 . S
C1117 C1118 1.397 1_556 S
C1117 C1122 1.363 . S
C1118 H1095 0.950 . S
C1118 C1117 1.397 1_554 S
C1118 C1119 1.334 . S
C1119 H1096 0.950 . S
C1119 C1118 1.334 . S
C1119 C1120 1.287 1_554 S
C1120 C1119 1.287 1_556 S
C1120 C1121 1.524 . S
C1120 H1139 0.913 . S
C1121 H1097 0.950 . S
C1121 C1120 1.524 . S
C1121 C1122 1.415 . S
C1122 H1098 0.950 . S
C1122 C1117 1.363 . S
C1122 C1121 1.415 . S
C1123 H1099 0.951 . S
C1123 C1124 1.366 1_565 S
C1123 C1125 1.388 . S
C1124 C1123 1.366 1_545 S
C1124 C1128 1.385 . S
C1125 H1100 0.951 . S
C1125 C1123 1.388 . S
C1125 C1126 1.366 1_565 S
C1126 C1125 1.366 1_545 S
C1126 C1127 1.414 . S
C1126 C1129 1.499 . S
C1127 H1101 0.950 . S
C1127 C1126 1.414 . S
C1127 C1128 1.374 . S
C1128 H1102 0.950 . S
C1128 C1124 1.385 . S
C1128 C1127 1.374 . S
C1129 C1126 1.499 . S
C1129 C1130 1.373 1_545 S
C1129 C1131 1.389 1_556 S
C1130 H1103 0.950 . S
C1130 C1116 1.377 . S
C1130 C1129 1.373 1_565 S
C1131 C1115 1.377 . S
C1131 C1129 1.389 1_554 S
C1131 C1132 1.524 . S
C1132 C1131 1.524 . S
C1132 C1133 1.397 1_554 S
C1132 C1137 1.363 . S
C1133 H1104 0.950 . S
C1133 C1132 1.397 1_556 S
C1133 C1134 1.334 1_556 S
C1134 H1105 0.950 1_554 S
C1134 C1133 1.334 1_554 S
C1134 C1135 1.287 . S
C1135 C1134 1.287 . S
C1135 C1136 1.524 . S
C1135 H1138 0.999 . S
C1136 H1106 0.950 . S
C1136 C1135 1.524 . S
C1136 C1137 1.415 . S
C1137 H1107 0.950 . S
C1137 C1132 1.363 . S
C1137 C1136 1.415 . S
H1138 C1135 0.999 . S
H1139 C1120 0.913 . S
H1140 C1158 0.951 . S
H1141 C1160 0.951 . S
H1142 C1162 0.950 . S
H1143 C1163 0.950 . S
H1144 C1165 0.950 . S
H1145 C1168 0.950 . S
H1146 C1169 0.950 . S
H1147 C1171 0.950 . S
H1148 C1172 0.950 . S
H1149 C1173 0.951 . S
H1150 C1175 0.951 . S
H1151 C1177 0.950 . S
H1152 C1178 0.950 . S
H1153 C1180 0.950 . S
H1154 C1183 0.950 . S
H1155 C1184 0.950 . S
H1156 C1186 0.950 . S
H1157 C1187 0.950 . S
C1158 H1140 0.951 . S
C1158 C1159 1.366 . S
C1158 C1160 1.388 . S
C1159 C1158 1.366 . S
C1159 C1163 1.385 . S
C1160 H1141 0.951 . S
C1160 C1158 1.388 . S
C1160 C1161 1.366 . S
C1161 C1160 1.366 . S
C1161 C1162 1.414 . S
C1161 C1164 1.499 . S
C1162 H1142 0.950 . S
C1162 C1161 1.414 . S
C1162 C1163 1.374 . S
C1163 H1143 0.950 . S
C1163 C1159 1.385 . S
C1163 C1162 1.374 . S
C1164 C1161 1.499 . S
C1164 C1165 1.373 . S
C1164 C1166 1.389 . S
C1165 H1144 0.950 . S
C1165 C1164 1.373 . S
C1165 C1181 1.377 . S
C1166 C1164 1.389 . S
C1166 C1167 1.524 . S
C1166 C1180 1.377 1_554 S
C1167 C1166 1.524 . S
C1167 C1168 1.397 . S
C1167 C1172 1.363 1_554 S
C1168 H1145 0.950 . S
C1168 C1167 1.397 . S
C1168 C1169 1.334 . S
C1169 H1146 0.950 . S
C1169 C1168 1.334 . S
C1169 C1170 1.287 . S
C1170 C1169 1.287 . S
C1170 C1171 1.524 1_554 S
C1170 H1189 0.913 . S
C1171 H1147 0.950 . S
C1171 C1170 1.524 1_556 S
C1171 C1172 1.415 . S
C1172 H1148 0.950 . S
C1172 C1167 1.363 1_556 S
C1172 C1171 1.415 . S
C1173 H1149 0.951 . S
C1173 C1174 1.366 . S
C1173 C1175 1.388 . S
C1174 C1173 1.366 . S
C1174 C1178 1.385 . S
C1175 H1150 0.951 . S
C1175 C1173 1.388 . S
C1175 C1176 1.366 . S
C1176 C1175 1.366 . S
C1176 C1177 1.414 . S
C1176 C1179 1.499 . S
C1177 H1151 0.950 . S
C1177 C1176 1.414 . S
C1177 C1178 1.374 . S
C1178 H1152 0.950 . S
C1178 C1174 1.385 . S
C1178 C1177 1.374 . S
C1179 C1176 1.499 . S
C1179 C1180 1.373 . S
C1179 C1181 1.389 1_556 S
C1180 H1153 0.950 . S
C1180 C1166 1.377 1_556 S
C1180 C1179 1.373 . S
C1181 C1165 1.377 . S
C1181 C1179 1.389 1_554 S
C1181 C1182 1.524 . S
C1182 C1181 1.524 . S
C1182 C1183 1.397 1_554 S
C1182 C1187 1.363 . S
C1183 H1154 0.950 . S
C1183 C1182 1.397 1_556 S
C1183 C1184 1.334 . S
C1184 H1155 0.950 . S
C1184 C1183 1.334 . S
C1184 C1185 1.287 1_556 S
C1185 C1184 1.287 1_554 S
C1185 C1186 1.524 . S
C1185 H1188 0.999 . S
C1186 H1156 0.950 . S
C1186 C1185 1.524 . S
C1186 C1187 1.415 . S
C1187 H1157 0.950 . S
C1187 C1182 1.363 . S
C1187 C1186 1.415 . S
H1188 C1185 0.999 . S
H1189 C1170 0.913 . S
H1190 C1208 0.951 . S
H1191 C1210 0.935 1_556 S
H1192 C1212 0.950 . S
H1193 C1213 0.950 . S
H1194 C1215 0.950 . S
H1195 C1218 0.950 1_554 S
H1196 C1219 0.950 1_554 S
H1197 C1221 0.950 . S
H1198 C1222 0.950 . S
H1199 C1223 0.951 . S
H1200 C1225 0.951 . S
H1201 C1227 0.950 . S
H1202 C1228 0.950 . S
H1203 C1230 0.950 . S
H1204 C1233 0.950 . S
H1205 C1234 0.950 . S
H1206 C1236 0.950 . S
H1207 C1237 0.950 . S
C1208 H1190 0.951 . S
C1208 C1209 1.366 . S
C1208 C1210 1.388 . S
C1209 C1208 1.366 . S
C1209 C1213 1.385 . S
C1210 H1191 0.935 1_554 S
C1210 C1208 1.388 . S
C1210 C1211 1.366 . S
C1211 C1210 1.366 . S
C1211 C1212 1.414 . S
C1211 C1214 1.499 . S
C1212 H1192 0.950 . S
C1212 C1211 1.414 . S
C1212 C1213 1.374 . S
C1213 H1193 0.950 . S
C1213 C1209 1.385 . S
C1213 C1212 1.374 . S
C1214 C1211 1.499 . S
C1214 C1215 1.373 . S
C1214 C1216 1.389 1_554 S
C1215 H1194 0.950 . S
C1215 C1214 1.373 . S
C1215 C1231 1.377 1_554 S
C1216 C1214 1.389 1_556 S
C1216 C1217 1.524 . S
C1216 C1230 1.377 . S
C1217 C1216 1.524 . S
C1217 C1218 1.397 . S
C1217 C1222 1.363 . S
C1218 H1195 0.950 1_556 S
C1218 C1217 1.397 . S
C1218 C1219 1.334 . S
C1219 H1196 0.950 1_556 S
C1219 C1218 1.334 . S
C1219 C1220 1.287 . S
C1220 C1219 1.287 . S
C1220 C1221 1.524 . S
C1220 H1239 0.913 . S
C1221 H1197 0.950 . S
C1221 C1220 1.524 . S
C1221 C1222 1.415 . S
C1222 H1198 0.950 . S
C1222 C1217 1.363 . S
C1222 C1221 1.415 . S
C1223 H1199 0.951 . S
C1223 C1224 1.366 . S
C1223 C1225 1.388 . S
C1224 C1223 1.366 . S
C1224 C1228 1.385 . S
C1225 H1200 0.951 . S
C1225 C1223 1.388 . S
C1225 C1226 1.366 . S
C1226 C1225 1.366 . S
C1226 C1227 1.414 . S
C1226 C1229 1.499 . S
C1227 H1201 0.950 . S
C1227 C1226 1.414 . S
C1227 C1228 1.374 . S
C1228 H1202 0.950 . S
C1228 C1224 1.385 . S
C1228 C1227 1.374 . S
C1229 C1226 1.499 . S
C1229 C1230 1.373 . S
C1229 C1231 1.389 . S
C1230 H1203 0.950 . S
C1230 C1216 1.377 . S
C1230 C1229 1.373 . S
C1231 C1215 1.377 1_556 S
C1231 C1229 1.389 . S
C1231 C1232 1.524 1_556 S
C1232 C1231 1.524 1_554 S
C1232 C1233 1.397 1_554 S
C1232 C1237 1.363 . S
C1233 H1204 0.950 . S
C1233 C1232 1.397 1_556 S
C1233 C1234 1.334 . S
C1234 H1205 0.950 . S
C1234 C1233 1.334 . S
C1234 C1235 1.287 1_556 S
C1235 C1234 1.287 1_554 S
C1235 C1236 1.524 . S
C1235 H1238 0.999 . S
C1236 H1206 0.950 . S
C1236 C1235 1.524 . S
C1236 C1237 1.415 . S
C1237 H1207 0.950 . S
C1237 C1232 1.363 . S
C1237 C1236 1.415 . S
H1238 C1235 0.999 . S
H1239 C1220 0.913 . S
H1240 C1258 0.951 . S
H1241 C1260 0.951 . S
H1242 C1262 0.950 . S
H1243 C1263 0.950 . S
H1244 C1265 0.950 . S
H1245 C1268 0.950 . S
H1246 C1269 0.950 . S
H1247 C1271 0.950 . S
H1248 C1272 0.950 . S
H1249 C1273 0.951 . S
H1250 C1275 0.951 . S
H1251 C1277 0.950 . S
H1252 C1278 0.950 . S
H1253 C1280 0.950 1_455 S
H1254 C1283 0.950 . S
H1255 C1284 0.950 . S
H1256 C1286 0.950 . S
H1257 C1287 0.950 . S
C1258 H1240 0.951 . S
C1258 C1259 1.366 . S
C1258 C1260 1.388 . S
C1259 C1258 1.366 . S
C1259 C1263 1.385 . S
C1260 H1241 0.951 . S
C1260 C1258 1.388 . S
C1260 C1261 1.366 . S
C1261 C1260 1.366 . S
C1261 C1262 1.414 . S
C1261 C1264 1.499 . S
C1262 H1242 0.950 . S
C1262 C1261 1.414 . S
C1262 C1263 1.374 . S
C1263 H1243 0.950 . S
C1263 C1259 1.385 . S
C1263 C1262 1.374 . S
C1264 C1261 1.499 . S
C1264 C1265 1.373 . S
C1264 C1266 1.389 . S
C1265 H1244 0.950 . S
C1265 C1264 1.373 . S
C1265 C1281 1.377 . S
C1266 C1264 1.389 . S
C1266 C1267 1.524 1_655 S
C1266 C1280 1.377 . S
C1267 C1266 1.524 1_455 S
C1267 C1268 1.397 . S
C1267 C1272 1.363 . S
C1268 H1245 0.950 . S
C1268 C1267 1.397 . S
C1268 C1269 1.334 . S
C1269 H1246 0.950 . S
C1269 C1268 1.334 . S
C1269 C1270 1.287 . S
C1270 C1269 1.287 . S
C1270 C1271 1.524 . S
C1270 H1289 0.913 . S
C1271 H1247 0.950 . S
C1271 C1270 1.524 . S
C1271 C1272 1.415 . S
C1272 H1248 0.950 . S
C1272 C1267 1.363 . S
C1272 C1271 1.415 . S
C1273 H1249 0.951 . S
C1273 C1274 1.366 . S
C1273 C1275 1.388 . S
C1274 C1273 1.366 . S
C1274 C1278 1.385 . S
C1275 H1250 0.951 . S
C1275 C1273 1.388 . S
C1275 C1276 1.366 . S
C1276 C1275 1.366 . S
C1276 C1277 1.414 . S
C1276 C1279 1.499 . S
C1277 H1251 0.950 . S
C1277 C1276 1.414 . S
C1277 C1278 1.374 . S
C1278 H1252 0.950 . S
C1278 C1274 1.385 . S
C1278 C1277 1.374 . S
C1279 C1276 1.499 . S
C1279 C1280 1.373 . S
C1279 C1281 1.389 . S
C1280 H1253 0.950 1_655 S
C1280 C1266 1.377 . S
C1280 C1279 1.373 . S
C1281 C1265 1.377 . S
C1281 C1279 1.389 . S
C1281 C1282 1.524 . S
C1282 C1281 1.524 . S
C1282 C1283 1.397 . S
C1282 C1287 1.363 . S
C1283 H1254 0.950 . S
C1283 C1282 1.397 . S
C1283 C1284 1.334 . S
C1284 H1255 0.950 . S
C1284 C1283 1.334 . S
C1284 C1285 1.287 . S
C1285 C1284 1.287 . S
C1285 C1286 1.524 . S
C1285 H1288 0.999 . S
C1286 H1256 0.950 . S
C1286 C1285 1.524 . S
C1286 C1287 1.415 . S
C1287 H1257 0.950 . S
C1287 C1282 1.363 . S
C1287 C1286 1.415 . S
H1288 C1285 0.999 . S
H1289 C1270 0.913 . S
H1290 C1308 0.951 . S
H1291 C1310 0.951 . S
H1292 C1312 0.950 . S
H1293 C1313 0.950 . S
H1294 C1315 0.950 . S
H1295 C1318 0.950 . S
H1296 C1319 0.950 . S
H1297 C1321 0.950 . S
H1298 C1322 0.950 1_545 S
H1299 C1323 0.951 . S
H1300 C1325 0.951 . S
H1301 C1327 0.950 . S
H1302 C1328 0.950 . S
H1303 C1330 0.950 . S
H1304 C1333 0.950 . S
H1305 C1334 0.950 . S
H1306 C1336 0.950 . S
H1307 C1337 0.950 1_565 S
C1308 H1290 0.951 . S
C1308 C1309 1.364 1_545 S
C1308 C1310 1.388 . S
C1309 C1308 1.364 1_565 S
C1309 C1313 1.387 . S
C1310 H1291 0.951 . S
C1310 C1308 1.388 . S
C1310 C1311 1.366 1_545 S
C1311 C1310 1.366 1_565 S
C1311 C1312 1.414 . S
C1311 C1314 1.499 . S
C1312 H1292 0.950 . S
C1312 C1311 1.414 . S
C1312 C1313 1.374 . S
C1313 H1293 0.950 . S
C1313 C1309 1.387 . S
C1313 C1312 1.374 . S
C1314 C1311 1.499 . S
C1314 C1315 1.373 1_565 S
C1314 C1316 1.389 . S
C1315 H1294 0.950 . S
C1315 C1314 1.373 1_545 S
C1315 C1331 1.377 . S
C1316 C1314 1.389 . S
C1316 C1317 1.524 . S
C1316 C1330 1.377 . S
C1317 C1316 1.524 . S
C1317 C1318 1.397 . S
C1317 C1322 1.363 . S
C1318 H1295 0.950 . S
C1318 C1317 1.397 . S
C1318 C1319 1.334 . S
C1319 H1296 0.950 . S
C1319 C1318 1.334 . S
C1319 C1320 1.287 . S
C1320 C1319 1.287 . S
C1320 C1321 1.524 . S
C1320 H1339 0.913 . S
C1321 H1297 0.950 . S
C1321 C1320 1.524 . S
C1321 C1322 1.415 . S
C1322 H1298 0.950 1_565 S
C1322 C1317 1.363 . S
C1322 C1321 1.415 . S
C1323 H1299 0.951 . S
C1323 C1324 1.366 . S
C1323 C1325 1.388 . S
C1324 C1323 1.366 . S
C1324 C1328 1.385 1_565 S
C1325 H1300 0.951 . S
C1325 C1323 1.388 . S
C1325 C1326 1.366 . S
C1326 C1325 1.366 . S
C1326 C1327 1.414 1_565 S
C1326 C1329 1.500 . S
C1327 H1301 0.950 . S
C1327 C1326 1.414 1_545 S
C1327 C1328 1.374 . S
C1328 H1302 0.950 . S
C1328 C1324 1.385 1_545 S
C1328 C1327 1.374 . S
C1329 C1326 1.500 . S
C1329 C1330 1.392 . S
C1329 C1331 1.379 1_565 S
C1330 H1303 0.950 . S
C1330 C1316 1.377 . S
C1330 C1329 1.392 . S
C1331 C1315 1.377 . S
C1331 C1329 1.379 1_545 S
C1331 C1332 1.524 . S
C1332 C1331 1.524 . S
C1332 C1333 1.397 . S
C1332 C1337 1.363 . S
C1333 H1304 0.950 . S
C1333 C1332 1.397 . S
C1333 C1334 1.334 . S
C1334 H1305 0.950 . S
C1334 C1333 1.334 . S
C1334 C1335 1.287 . S
C1335 C1334 1.287 . S
C1335 C1336 1.524 . S
C1335 H1338 0.999 . S
C1336 H1306 0.950 . S
C1336 C1335 1.524 . S
C1336 C1337 1.415 . S
C1337 H1307 0.950 1_545 S
C1337 C1332 1.363 . S
C1337 C1336 1.415 . S
H1338 C1335 0.999 . S
H1339 C1320 0.913 . S
H1340 C1358 0.951 . S
H1341 C1360 0.951 . S
H1342 C1362 0.950 . S
H1343 C1363 0.950 . S
H1344 C1365 0.950 . S
H1345 C1368 0.950 . S
H1346 C1369 0.950 . S
H1347 C1371 0.950 . S
H1348 C1372 0.950 . S
H1349 C1373 0.951 . S
H1350 C1375 0.951 . S
H1351 C1377 0.950 . S
H1352 C1378 0.950 . S
H1353 C1380 0.950 . S
H1354 C1383 0.950 . S
H1355 C1384 0.950 . S
H1356 C1386 0.950 . S
H1357 C1387 0.950 . S
C1358 H1340 0.951 . S
C1358 C1359 1.366 . S
C1358 C1360 1.388 . S
C1359 C1358 1.366 . S
C1359 C1363 1.385 . S
C1360 H1341 0.951 . S
C1360 C1358 1.388 . S
C1360 C1361 1.366 . S
C1361 C1360 1.366 . S
C1361 C1362 1.414 . S
C1361 C1364 1.499 . S
C1362 H1342 0.950 . S
C1362 C1361 1.414 . S
C1362 C1363 1.374 . S
C1363 H1343 0.950 . S
C1363 C1359 1.385 . S
C1363 C1362 1.374 . S
C1364 C1361 1.499 . S
C1364 C1365 1.373 . S
C1364 C1366 1.389 . S
C1365 H1344 0.950 . S
C1365 C1364 1.373 . S
C1365 C1381 1.377 . S
C1366 C1364 1.389 . S
C1366 C1367 1.524 . S
C1366 C1380 1.377 . S
C1367 C1366 1.524 . S
C1367 C1368 1.397 . S
C1367 C1372 1.363 . S
C1368 H1345 0.950 . S
C1368 C1367 1.397 . S
C1368 C1369 1.334 . S
C1369 H1346 0.950 . S
C1369 C1368 1.334 . S
C1369 C1370 1.287 . S
C1370 C1369 1.287 . S
C1370 C1371 1.524 . S
C1370 H1389 0.913 . S
C1371 H1347 0.950 . S
C1371 C1370 1.524 . S
C1371 C1372 1.415 . S
C1372 H1348 0.950 . S
C1372 C1367 1.363 . S
C1372 C1371 1.415 . S
C1373 H1349 0.951 . S
C1373 C1374 1.366 . S
C1373 C1375 1.388 . S
C1374 C1373 1.366 . S
C1374 C1378 1.385 . S
C1375 H1350 0.951 . S
C1375 C1373 1.388 . S
C1375 C1376 1.366 . S
C1376 C1375 1.366 . S
C1376 C1377 1.414 . S
C1376 C1379 1.499 . S
C1377 H1351 0.950 . S
C1377 C1376 1.414 . S
C1377 C1378 1.374 . S
C1378 H1352 0.950 . S
C1378 C1374 1.385 . S
C1378 C1377 1.374 . S
C1379 C1376 1.499 . S
C1379 C1380 1.373 . S
C1379 C1381 1.389 . S
C1380 H1353 0.950 . S
C1380 C1366 1.377 . S
C1380 C1379 1.373 . S
C1381 C1365 1.377 . S
C1381 C1379 1.389 . S
C1381 C1382 1.524 . S
C1382 C1381 1.524 . S
C1382 C1383 1.397 . S
C1382 C1387 1.363 . S
C1383 H1354 0.950 . S
C1383 C1382 1.397 . S
C1383 C1384 1.334 . S
C1384 H1355 0.950 . S
C1384 C1383 1.334 . S
C1384 C1385 1.287 . S
C1385 C1384 1.287 . S
C1385 C1386 1.524 . S
C1385 H1388 0.999 . S
C1386 H1356 0.950 . S
C1386 C1385 1.524 . S
C1386 C1387 1.415 . S
C1387 H1357 0.950 . S
C1387 C1382 1.363 . S
C1387 C1386 1.415 . S
H1388 C1385 0.999 . S
H1389 C1370 0.913 . S
H1390 C1408 0.951 . S
H1391 C1410 0.951 . S
H1392 C1412 0.950 . S
H1393 C1413 0.950 . S
H1394 C1415 0.950 . S
H1395 C1418 0.950 . S
H1396 C1419 0.950 . S
H1397 C1421 0.950 . S
H1398 C1422 0.950 . S
H1399 C1423 0.951 . S
H1400 C1425 0.951 . S
H1401 C1427 0.950 . S
H1402 C1428 0.950 . S
H1403 C1430 0.950 . S
H1404 C1433 0.950 . S
H1405 C1434 0.950 . S
H1406 C1436 0.950 . S
H1407 C1437 0.950 . S
C1408 H1390 0.951 . S
C1408 C1409 1.366 . S
C1408 C1410 1.388 . S
C1409 C1408 1.366 . S
C1409 C1413 1.385 . S
C1410 H1391 0.951 . S
C1410 C1408 1.388 . S
C1410 C1411 1.366 . S
C1411 C1410 1.366 . S
C1411 C1412 1.414 . S
C1411 C1414 1.499 . S
C1412 H1392 0.950 . S
C1412 C1411 1.414 . S
C1412 C1413 1.374 . S
C1413 H1393 0.950 . S
C1413 C1409 1.385 . S
C1413 C1412 1.374 . S
C1414 C1411 1.499 . S
C1414 C1415 1.373 . S
C1414 C1416 1.389 . S
C1415 H1394 0.950 . S
C1415 C1414 1.373 . S
C1415 C1431 1.377 . S
C1416 C1414 1.389 . S
C1416 C1417 1.524 . S
C1416 C1430 1.377 . S
C1417 C1416 1.524 . S
C1417 C1418 1.397 . S
C1417 C1422 1.363 . S
C1418 H1395 0.950 . S
C1418 C1417 1.397 . S
C1418 C1419 1.334 . S
C1419 H1396 0.950 . S
C1419 C1418 1.334 . S
C1419 C1420 1.287 . S
C1420 C1419 1.287 . S
C1420 C1421 1.524 . S
C1420 H1439 0.913 . S
C1421 H1397 0.950 . S
C1421 C1420 1.524 . S
C1421 C1422 1.415 . S
C1422 H1398 0.950 . S
C1422 C1417 1.363 . S
C1422 C1421 1.415 . S
C1423 H1399 0.951 . S
C1423 C1424 1.366 . S
C1423 C1425 1.388 . S
C1424 C1423 1.366 . S
C1424 C1428 1.385 . S
C1425 H1400 0.951 . S
C1425 C1423 1.388 . S
C1425 C1426 1.366 . S
C1426 C1425 1.366 . S
C1426 C1427 1.414 . S
C1426 C1429 1.499 . S
C1427 H1401 0.950 . S
C1427 C1426 1.414 . S
C1427 C1428 1.374 . S
C1428 H1402 0.950 . S
C1428 C1424 1.385 . S
C1428 C1427 1.374 . S
C1429 C1426 1.499 . S
C1429 C1430 1.373 . S
C1429 C1431 1.389 . S
C1430 H1403 0.950 . S
C1430 C1416 1.377 . S
C1430 C1429 1.373 . S
C1431 C1415 1.377 . S
C1431 C1429 1.389 . S
C1431 C1432 1.524 . S
C1432 C1431 1.524 . S
C1432 C1433 1.397 . S
C1432 C1437 1.363 . S
C1433 H1404 0.950 . S
C1433 C1432 1.397 . S
C1433 C1434 1.334 . S
C1434 H1405 0.950 . S
C1434 C1433 1.334 . S
C1434 C1435 1.287 . S
C1435 C1434 1.287 . S
C1435 C1436 1.524 . S
C1435 H1438 0.999 . S
C1436 H1406 0.950 . S
C1436 C1435 1.524 . S
C1436 C1437 1.415 . S
C1437 H1407 0.950 . S
C1437 C1432 1.363 . S
C1437 C1436 1.415 . S
H1438 C1435 0.999 . S
H1439 C1420 0.913 . S
C259 C82 1.762 1_565 S
C274 C121 1.872 . S
C324 C142 1.547 . S
C309 C95 1.459 . S
C374 C176 1.322 . S
C359 C56 1.218 . S
C424 C210 1.538 . S
C409 C69 1.472 . S
C474 C112 1.872 . S
C459 C30 1.758 1_556 S
C509 C43 1.441 . S
C524 C151 1.553 . S
C559 C4 1.220 . S
C574 C185 1.322 . S
C609 C17 1.433 . S
C624 C219 1.538 . S
C674 C133 0.241 . S
C659 C74 0.442 . S
C724 C138 0.694 . S
C709 C87 0.700 . S
C774 C172 0.627 . S
C759 C100 0.636 . S
C809 C61 0.250 . S
C824 C206 0.159 . S
C859 C22 0.448 . S
C874 C104 0.244 . S
C924 C167 0.694 . S
C909 C35 0.699 . S
C974 C201 0.626 . S
C959 C48 0.636 . S
C1009 C9 0.248 . S
C1024 C235 0.159 . S
C1059 C73 1.264 . S
C1074 C117 1.289 . S
C1109 C86 1.712 . S
C1124 C146 1.755 . S
C1174 C180 1.553 . S
C1159 C99 1.521 . S
C1224 C214 1.615 . S
C1209 C60 1.571 . S
C1259 C21 1.263 . S
C1274 C108 1.299 . S
C1324 C155 1.755 . S
C1309 C34 1.714 1_565 S
C1374 C189 1.553 . S
C1359 C47 1.520 . S
C1409 C8 1.572 . S
C1424 C223 1.615 . S
