# Generated by pormake.
# Topology eea, (3,6)-cn, num edge types: 1
# Building blocks:
#     Node 0, Type 0, BuildingBlock: QEWDON_clean_linker_0, # of connection points: 3
#     Node 1, Type 0, BuildingBlock: QEWDON_clean_linker_0, # of connection points: 3
#     Node 2, Type 0, BuildingBlock: QEWDON_clean_linker_0, # of connection points: 3
#     Node 3, Type 0, BuildingBlock: QEWDON_clean_linker_0, # of connection points: 3
#     Node 4, Type 0, BuildingBlock: QEWDON_clean_linker_0, # of connection points: 3
#     Node 5, Type 0, BuildingBlock: QEWDON_clean_linker_0, # of connection points: 3
#     Node 6, Type 0, BuildingBlock: QEWDON_clean_linker_0, # of connection points: 3
#     Node 7, Type 0, BuildingBlock: QEWDON_clean_linker_0, # of connection points: 3
#     Node 8, Type 0, BuildingBlock: QEWDON_clean_linker_0, # of connection points: 3
#     Node 9, Type 0, BuildingBlock: QEWDON_clean_linker_0, # of connection points: 3
#     Node 10, Type 0, BuildingBlock: QEWDON_clean_linker_0, # of connection points: 3
#     Node 11, Type 0, BuildingBlock: QEWDON_clean_linker_0, # of connection points: 3
#     Node 12, Type 0, BuildingBlock: QEWDON_clean_linker_0, # of connection points: 3
#     Node 13, Type 0, BuildingBlock: QEWDON_clean_linker_0, # of connection points: 3
#     Node 14, Type 0, BuildingBlock: QEWDON_clean_linker_0, # of connection points: 3
#     Node 15, Type 0, BuildingBlock: QEWDON_clean_linker_0, # of connection points: 3
#     Node 16, Type 0, BuildingBlock: QEWDON_clean_linker_0, # of connection points: 3
#     Node 17, Type 0, BuildingBlock: QEWDON_clean_linker_0, # of connection points: 3
#     Node 18, Type 1, BuildingBlock: CUWYAW_clean_sbu_0, # of connection points: 6
#     Node 19, Type 1, BuildingBlock: CUWYAW_clean_sbu_0, # of connection points: 6
#     Node 20, Type 1, BuildingBlock: CUWYAW_clean_sbu_0, # of connection points: 6
#     Node 21, Type 1, BuildingBlock: CUWYAW_clean_sbu_0, # of connection points: 6
#     Node 22, Type 1, BuildingBlock: CUWYAW_clean_sbu_0, # of connection points: 6
#     Node 23, Type 1, BuildingBlock: CUWYAW_clean_sbu_0, # of connection points: 6
#     Node 24, Type 1, BuildingBlock: CUWYAW_clean_sbu_0, # of connection points: 6
#     Node 25, Type 1, BuildingBlock: CUWYAW_clean_sbu_0, # of connection points: 6
#     Node 26, Type 1, BuildingBlock: CUWYAW_clean_sbu_0, # of connection points: 6
#     Edge 27, Type (0, 1), BuildingBlock: MIFKUJ_clean_linker_0, # of connection points: 2
#     Edge 28, Type (0, 1), BuildingBlock: MIFKUJ_clean_linker_0, # of connection points: 2
#     Edge 29, Type (0, 1), BuildingBlock: MIFKUJ_clean_linker_0, # of connection points: 2
#     Edge 30, Type (0, 1), BuildingBlock: MIFKUJ_clean_linker_0, # of connection points: 2
#     Edge 31, Type (0, 1), BuildingBlock: MIFKUJ_clean_linker_0, # of connection points: 2
#     Edge 32, Type (0, 1), BuildingBlock: MIFKUJ_clean_linker_0, # of connection points: 2
#     Edge 33, Type (0, 1), BuildingBlock: MIFKUJ_clean_linker_0, # of connection points: 2
#     Edge 34, Type (0, 1), BuildingBlock: MIFKUJ_clean_linker_0, # of connection points: 2
#     Edge 35, Type (0, 1), BuildingBlock: MIFKUJ_clean_linker_0, # of connection points: 2
#     Edge 36, Type (0, 1), BuildingBlock: MIFKUJ_clean_linker_0, # of connection points: 2
#     Edge 37, Type (0, 1), BuildingBlock: MIFKUJ_clean_linker_0, # of connection points: 2
#     Edge 38, Type (0, 1), BuildingBlock: MIFKUJ_clean_linker_0, # of connection points: 2
#     Edge 39, Type (0, 1), BuildingBlock: MIFKUJ_clean_linker_0, # of connection points: 2
#     Edge 40, Type (0, 1), BuildingBlock: MIFKUJ_clean_linker_0, # of connection points: 2
#     Edge 41, Type (0, 1), BuildingBlock: MIFKUJ_clean_linker_0, # of connection points: 2
#     Edge 42, Type (0, 1), BuildingBlock: MIFKUJ_clean_linker_0, # of connection points: 2
#     Edge 43, Type (0, 1), BuildingBlock: MIFKUJ_clean_linker_0, # of connection points: 2
#     Edge 44, Type (0, 1), BuildingBlock: MIFKUJ_clean_linker_0, # of connection points: 2
#     Edge 45, Type (0, 1), BuildingBlock: MIFKUJ_clean_linker_0, # of connection points: 2
#     Edge 46, Type (0, 1), BuildingBlock: MIFKUJ_clean_linker_0, # of connection points: 2
#     Edge 47, Type (0, 1), BuildingBlock: MIFKUJ_clean_linker_0, # of connection points: 2
#     Edge 48, Type (0, 1), BuildingBlock: MIFKUJ_clean_linker_0, # of connection points: 2
#     Edge 49, Type (0, 1), BuildingBlock: MIFKUJ_clean_linker_0, # of connection points: 2
#     Edge 50, Type (0, 1), BuildingBlock: MIFKUJ_clean_linker_0, # of connection points: 2
#     Edge 51, Type (0, 1), BuildingBlock: MIFKUJ_clean_linker_0, # of connection points: 2
#     Edge 52, Type (0, 1), BuildingBlock: MIFKUJ_clean_linker_0, # of connection points: 2
#     Edge 53, Type (0, 1), BuildingBlock: MIFKUJ_clean_linker_0, # of connection points: 2
#     Edge 54, Type (0, 1), BuildingBlock: MIFKUJ_clean_linker_0, # of connection points: 2
#     Edge 55, Type (0, 1), BuildingBlock: MIFKUJ_clean_linker_0, # of connection points: 2
#     Edge 56, Type (0, 1), BuildingBlock: MIFKUJ_clean_linker_0, # of connection points: 2
#     Edge 57, Type (0, 1), BuildingBlock: MIFKUJ_clean_linker_0, # of connection points: 2
#     Edge 58, Type (0, 1), BuildingBlock: MIFKUJ_clean_linker_0, # of connection points: 2
#     Edge 59, Type (0, 1), BuildingBlock: MIFKUJ_clean_linker_0, # of connection points: 2
#     Edge 60, Type (0, 1), BuildingBlock: MIFKUJ_clean_linker_0, # of connection points: 2
#     Edge 61, Type (0, 1), BuildingBlock: MIFKUJ_clean_linker_0, # of connection points: 2
#     Edge 62, Type (0, 1), BuildingBlock: MIFKUJ_clean_linker_0, # of connection points: 2
#     Edge 63, Type (0, 1), BuildingBlock: MIFKUJ_clean_linker_0, # of connection points: 2
#     Edge 64, Type (0, 1), BuildingBlock: MIFKUJ_clean_linker_0, # of connection points: 2
#     Edge 65, Type (0, 1), BuildingBlock: MIFKUJ_clean_linker_0, # of connection points: 2
#     Edge 66, Type (0, 1), BuildingBlock: MIFKUJ_clean_linker_0, # of connection points: 2
#     Edge 67, Type (0, 1), BuildingBlock: MIFKUJ_clean_linker_0, # of connection points: 2
#     Edge 68, Type (0, 1), BuildingBlock: MIFKUJ_clean_linker_0, # of connection points: 2
#     Edge 69, Type (0, 1), BuildingBlock: MIFKUJ_clean_linker_0, # of connection points: 2
#     Edge 70, Type (0, 1), BuildingBlock: MIFKUJ_clean_linker_0, # of connection points: 2
#     Edge 71, Type (0, 1), BuildingBlock: MIFKUJ_clean_linker_0, # of connection points: 2
#     Edge 72, Type (0, 1), BuildingBlock: MIFKUJ_clean_linker_0, # of connection points: 2
#     Edge 73, Type (0, 1), BuildingBlock: MIFKUJ_clean_linker_0, # of connection points: 2
#     Edge 74, Type (0, 1), BuildingBlock: MIFKUJ_clean_linker_0, # of connection points: 2
#     Edge 75, Type (0, 1), BuildingBlock: MIFKUJ_clean_linker_0, # of connection points: 2
#     Edge 76, Type (0, 1), BuildingBlock: MIFKUJ_clean_linker_0, # of connection points: 2
#     Edge 77, Type (0, 1), BuildingBlock: MIFKUJ_clean_linker_0, # of connection points: 2
#     Edge 78, Type (0, 1), BuildingBlock: MIFKUJ_clean_linker_0, # of connection points: 2
#     Edge 79, Type (0, 1), BuildingBlock: MIFKUJ_clean_linker_0, # of connection points: 2
#     Edge 80, Type (0, 1), BuildingBlock: MIFKUJ_clean_linker_0, # of connection points: 2
# Relax obj value: 0.084
# Max RMSD: 0.253
# Mean RMSD: 0.173
data_MOF--net-eea--node1-CUWYAW_clean_sbu_0--node2-QEWDON_clean_linker_0--edge1-MIFKUJ_clean_linker_0
_symmetry_space_group_name_H-M    P1
_symmetry_Int_Tables_number       1
_symmetry_cell_setting            triclinic
loop_
_symmetry_equiv_pos_as_xyz
'x, y, z'
_cell_length_a     75.357596
_cell_length_b     75.138654
_cell_length_c     82.89217
_cell_angle_alpha  93.279061
_cell_angle_beta   93.521977
_cell_angle_gamma 119.82715
loop_
_atom_site_label
_atom_site_type_symbol
_atom_site_fract_x
_atom_site_fract_y
_atom_site_fract_z
_atom_type_partial_charge
H0 H 0.19382 0.11912 0.41849 0.0
C1 C 0.19609 0.10701 0.41312 0.0
C2 C 0.20646 0.09933 0.42256 0.0
C3 C 0.18732 0.09799 0.39721 0.0
H4 H 0.21669 0.07715 0.42296 0.0
C5 C 0.20854 0.08298 0.41577 0.0
C6 C 0.20011 0.07393 0.39988 0.0
C7 C 0.18974 0.08171 0.39062 0.0
C8 C 0.17383 0.10397 0.38798 0.0
H9 H 0.18284 0.07452 0.37844 0.0
C10 C 0.1795 0.12483 0.38707 0.0
C11 C 0.16655 0.12998 0.37793 0.0
C12 C 0.15483 0.08843 0.38004 0.0
H13 H 0.14982 0.07229 0.3808 0.0
C14 C 0.1419 0.09347 0.37122 0.0
H15 H 0.19416 0.13696 0.39303 0.0
C16 C 0.14769 0.11404 0.37012 0.0
H17 H 0.13725 0.11749 0.36327 0.0
H18 H 0.12728 0.08136 0.36523 0.0
H19 H 0.90564 0.10474 0.42845 0.0
C20 C 0.91669 0.11845 0.42335 0.0
C21 C 0.92353 0.13805 0.4316 0.0
C22 C 0.92493 0.11631 0.40909 0.0
H23 H 0.9441 0.17081 0.43137 0.0
C24 C 0.93889 0.15562 0.42531 0.0
C25 C 0.94755 0.15384 0.4112 0.0
C26 C 0.94017 0.13416 0.40303 0.0
C27 C 0.91891 0.09546 0.40115 0.0
H28 H 0.94678 0.13268 0.39216 0.0
C29 C 0.89834 0.07895 0.39967 0.0
C30 C 0.89312 0.05931 0.39226 0.0
C31 C 0.93412 0.09193 0.39522 0.0
H32 H 0.95012 0.10399 0.39654 0.0
C33 C 0.929 0.07272 0.38769 0.0
H34 H 0.88647 0.08135 0.4043 0.0
C35 C 0.90872 0.05659 0.38614 0.0
H36 H 0.90526 0.04195 0.37997 0.0
H37 H 0.94084 0.07031 0.38305 0.0
H38 H 0.91686 0.79882 0.43694 0.0
C39 C 0.9034 0.79809 0.4307 0.0
C40 C 0.88418 0.78701 0.43675 0.0
C41 C 0.90548 0.80903 0.41707 0.0
H42 H 0.85238 0.77899 0.434 0.0
C43 C 0.86697 0.78676 0.4289 0.0
C44 C 0.86872 0.79765 0.41529 0.0
C45 C 0.88805 0.80858 0.4094 0.0
C46 C 0.92615 0.82297 0.41198 0.0
H47 H 0.88968 0.81707 0.39892 0.0
C48 C 0.94006 0.81609 0.40875 0.0
C49 C 0.95976 0.83002 0.4044 0.0
C50 C 0.93215 0.84376 0.41071 0.0
H51 H 0.92184 0.84948 0.41326 0.0
C52 C 0.95162 0.8575 0.40647 0.0
H53 H 0.93563 0.80009 0.40961 0.0
C54 C 0.96536 0.85073 0.40338 0.0
H55 H 0.98038 0.86166 0.4 0.0
H56 H 0.95609 0.87349 0.4056 0.0
H57 H 0.11083 0.20716 0.58014 0.0
C58 C 0.09853 0.20788 0.5857 0.0
C59 C 0.09009 0.21923 0.57907 0.0
C60 C 0.09025 0.1963 0.59877 0.0
H61 H 0.06686 0.22792 0.58092 0.0
C62 C 0.07352 0.21933 0.58601 0.0
C63 C 0.06516 0.20797 0.59921 0.0
C64 C 0.0737 0.19659 0.60551 0.0
C65 C 0.09759 0.18248 0.6046 0.0
H66 H 0.06741 0.18786 0.61572 0.0
C67 C 0.11875 0.18938 0.60801 0.0
C68 C 0.12519 0.17607 0.61401 0.0
C69 C 0.08309 0.16202 0.6068 0.0
H70 H 0.06678 0.15619 0.60402 0.0
C71 C 0.08942 0.14874 0.6124 0.0
H72 H 0.13007 0.20518 0.60653 0.0
C73 C 0.11027 0.15567 0.61603 0.0
H74 H 0.11474 0.14498 0.62033 0.0
H75 H 0.07811 0.13298 0.61396 0.0
H76 H 0.81831 0.91858 0.6013 0.0
C77 C 0.81639 0.9049 0.60651 0.0
C78 C 0.8052 0.88556 0.59726 0.0
C79 C 0.82625 0.90688 0.62201 0.0
H80 H 0.79549 0.8532 0.5967 0.0
C81 C 0.80382 0.86809 0.60381 0.0
C82 C 0.81366 0.86976 0.61923 0.0
C83 C 0.82448 0.88915 0.62833 0.0
C84 C 0.83991 0.92759 0.63107 0.0
H85 H 0.83177 0.89048 0.64037 0.0
C86 C 0.8344 0.94304 0.63175 0.0
C87 C 0.84783 0.96265 0.64017 0.0
C88 C 0.859 0.93208 0.63888 0.0
H89 H 0.86394 0.92078 0.6383 0.0
C90 C 0.87217 0.95132 0.64733 0.0
H91 H 0.8198 0.93985 0.62574 0.0
C92 C 0.86667 0.96647 0.64803 0.0
H93 H 0.87713 0.98118 0.65489 0.0
H94 H 0.88677 0.95452 0.65335 0.0
H95 H 0.09677 0.88667 0.59307 0.0
C96 C 0.11016 0.89965 0.59986 0.0
C97 C 0.1295 0.90779 0.59381 0.0
C98 C 0.1079 0.90883 0.61426 0.0
H99 H 0.16108 0.93236 0.59713 0.0
C100 C 0.14655 0.9253 0.60234 0.0
C101 C 0.14472 0.9346 0.61686 0.0
C102 C 0.12538 0.92584 0.62288 0.0
C103 C 0.08715 0.90256 0.61941 0.0
H104 H 0.1237 0.93259 0.63417 0.0
C105 C 0.07198 0.88166 0.61994 0.0
C106 C 0.05243 0.87647 0.62482 0.0
C107 C 0.08242 0.91802 0.62364 0.0
H108 H 0.09354 0.93414 0.62305 0.0
C109 C 0.06326 0.91296 0.6285 0.0
H110 H 0.07537 0.8696 0.61664 0.0
C111 C 0.04843 0.89243 0.62916 0.0
H112 H 0.03383 0.88907 0.63331 0.0
H113 H 0.05991 0.92504 0.63181 0.0
H114 H 0.87542 0.4538 0.7478 0.0
C115 C 0.87649 0.44096 0.74232 0.0
C116 C 0.88783 0.4337 0.75096 0.0
C117 C 0.86628 0.43146 0.72681 0.0
H118 H 0.89643 0.41033 0.7513 0.0
C119 C 0.88854 0.41651 0.74422 0.0
C120 C 0.87812 0.40653 0.72892 0.0
C121 C 0.86757 0.41451 0.72015 0.0
C122 C 0.85354 0.43847 0.71771 0.0
H123 H 0.86023 0.40737 0.70806 0.0
C124 C 0.85967 0.45958 0.71794 0.0
C125 C 0.8478 0.4658 0.70866 0.0
C126 C 0.83503 0.42382 0.70848 0.0
H127 H 0.82944 0.40746 0.7084 0.0
C128 C 0.82332 0.43004 0.6993 0.0
H129 H 0.87382 0.47118 0.72492 0.0
C130 C 0.82972 0.4509 0.69928 0.0
H131 H 0.82037 0.45542 0.69213 0.0
H132 H 0.80919 0.41862 0.69222 0.0
H133 H 0.5717 0.43021 0.76009 0.0
C134 C 0.58384 0.44363 0.75541 0.0
C135 C 0.59224 0.46312 0.76427 0.0
C136 C 0.59179 0.44118 0.74108 0.0
H137 H 0.61534 0.49534 0.7654 0.0
C138 C 0.60868 0.48035 0.75854 0.0
C139 C 0.61679 0.47829 0.74417 0.0
C140 C 0.60807 0.45869 0.73548 0.0
C141 C 0.58402 0.4203 0.7324 0.0
H142 H 0.61397 0.45708 0.72422 0.0
C143 C 0.56284 0.40528 0.73036 0.0
C144 C 0.55592 0.38587 0.7217 0.0
C145 C 0.59807 0.41527 0.72607 0.0
H146 H 0.61445 0.42615 0.72777 0.0
C147 C 0.59126 0.39605 0.71764 0.0
H148 H 0.55174 0.40886 0.73504 0.0
C149 C 0.57036 0.38149 0.71538 0.0
H150 H 0.56547 0.36663 0.70882 0.0
H151 H 0.60225 0.39241 0.71285 0.0
H152 H 0.5886 0.13936 0.77217 0.0
C153 C 0.57541 0.139 0.76578 0.0
C154 C 0.55584 0.12755 0.77125 0.0
C155 C 0.57813 0.15063 0.75249 0.0
H156 H 0.5239 0.11922 0.76751 0.0
C157 C 0.53889 0.12748 0.76306 0.0
C158 C 0.54138 0.13925 0.74995 0.0
C159 C 0.561 0.15069 0.74471 0.0
C160 C 0.59894 0.16403 0.74735 0.0
H161 H 0.56295 0.15977 0.73457 0.0
C162 C 0.6124 0.15649 0.74431 0.0
C163 C 0.63139 0.16927 0.73831 0.0
C164 C 0.60515 0.18462 0.74494 0.0
H165 H 0.5953 0.19092 0.74741 0.0
C166 C 0.62409 0.19734 0.73934 0.0
H167 H 0.60782 0.14063 0.74598 0.0
C168 C 0.63706 0.1897 0.73591 0.0
H169 H 0.65162 0.19978 0.73138 0.0
H170 H 0.62865 0.21314 0.73751 0.0
H171 H 0.77441 0.5333 0.91523 0.0
C172 C 0.76279 0.5352 0.92088 0.0
C173 C 0.75488 0.54675 0.91375 0.0
C174 C 0.75488 0.52503 0.93467 0.0
H175 H 0.73257 0.5567 0.9152 0.0
C176 C 0.73893 0.5481 0.92071 0.0
C177 C 0.73079 0.53802 0.93449 0.0
C178 C 0.73918 0.52689 0.94151 0.0
C179 C 0.76172 0.51113 0.94131 0.0
H180 H 0.73334 0.51949 0.95236 0.0
C181 C 0.78266 0.51659 0.94302 0.0
C182 C 0.78867 0.50315 0.94948 0.0
C183 C 0.74693 0.49197 0.94591 0.0
H184 H 0.73071 0.48706 0.9444 0.0
C185 C 0.75279 0.47876 0.95237 0.0
H186 H 0.79417 0.53123 0.93941 0.0
C187 C 0.77344 0.4843 0.95425 0.0
H188 H 0.77747 0.47384 0.95968 0.0
H189 H 0.74126 0.46414 0.956 0.0
H190 H 0.48557 0.2536 0.93433 0.0
C191 C 0.48508 0.24 0.93857 0.0
C192 C 0.47535 0.22137 0.92834 0.0
C193 C 0.49457 0.24131 0.95409 0.0
H194 H 0.46837 0.1897 0.92584 0.0
C195 C 0.47512 0.20389 0.93385 0.0
C196 C 0.48445 0.20483 0.94931 0.0
C197 C 0.49391 0.22352 0.95938 0.0
C198 C 0.50603 0.26135 0.96453 0.0
H199 H 0.50073 0.22416 0.97145 0.0
C200 C 0.49867 0.27537 0.96556 0.0
C201 C 0.5096 0.29402 0.97577 0.0
C202 C 0.52471 0.26661 0.97357 0.0
H203 H 0.53114 0.25655 0.97276 0.0
C204 C 0.53557 0.28507 0.9836 0.0
H205 H 0.48426 0.27158 0.9588 0.0
C206 C 0.52807 0.29865 0.98477 0.0
H207 H 0.53691 0.31299 0.99255 0.0
H208 H 0.54992 0.28892 0.99046 0.0
H209 H 0.75717 0.22277 0.9252 0.0
C210 C 0.7711 0.23498 0.93206 0.0
C211 C 0.79028 0.24086 0.92641 0.0
C212 C 0.76977 0.24549 0.94609 0.0
H213 H 0.82295 0.26145 0.93069 0.0
C214 C 0.80824 0.25705 0.93514 0.0
C215 C 0.80727 0.26821 0.94895 0.0
C216 C 0.78787 0.26211 0.95436 0.0
C217 C 0.74941 0.24071 0.95119 0.0
H218 H 0.78664 0.27075 0.96472 0.0
C219 C 0.7342 0.22042 0.95349 0.0
C220 C 0.71499 0.2164 0.95831 0.0
C221 C 0.74516 0.25682 0.9537 0.0
H222 H 0.75647 0.27249 0.95185 0.0
C223 C 0.72623 0.2529 0.95842 0.0
H224 H 0.73732 0.20789 0.95157 0.0
C225 C 0.71127 0.2329 0.96073 0.0
H226 H 0.69681 0.23038 0.96466 0.0
H227 H 0.72315 0.26544 0.96034 0.0
H228 H 0.52981 0.78279 0.08473 0.0
C229 C 0.53179 0.7707 0.07891 0.0
C230 C 0.54297 0.76326 0.08759 0.0
C231 C 0.52181 0.76146 0.06329 0.0
H232 H 0.55301 0.74088 0.08706 0.0
C233 C 0.54468 0.74688 0.08033 0.0
C234 C 0.5349 0.73751 0.06479 0.0
C235 C 0.52369 0.745 0.05629 0.0
C236 C 0.50774 0.76743 0.05492 0.0
H237 H 0.51615 0.73771 0.04427 0.0
C238 C 0.51265 0.78824 0.05519 0.0
C239 C 0.49869 0.79332 0.04758 0.0
C240 C 0.48875 0.75192 0.04691 0.0
H241 H 0.48421 0.73579 0.0468 0.0
C242 C 0.47511 0.75692 0.0392 0.0
H243 H 0.52714 0.80038 0.06135 0.0
C244 C 0.48001 0.77741 0.03949 0.0
H245 H 0.46916 0.78082 0.03324 0.0
H246 H 0.46061 0.74483 0.03303 0.0
H247 H 0.23372 0.76596 0.08967 0.0
C248 C 0.24512 0.7795 0.0846 0.0
C249 C 0.25247 0.79916 0.09285 0.0
C250 C 0.25332 0.77701 0.07043 0.0
H251 H 0.27377 0.83175 0.09272 0.0
C252 C 0.26819 0.8165 0.08662 0.0
C253 C 0.27673 0.81438 0.07252 0.0
C254 C 0.26899 0.79459 0.06442 0.0
C255 C 0.24679 0.75595 0.06276 0.0
H256 H 0.27561 0.79278 0.05364 0.0
C257 C 0.22594 0.74009 0.06099 0.0
C258 C 0.22025 0.71996 0.05457 0.0
C259 C 0.26172 0.75138 0.05778 0.0
H260 H 0.27788 0.76303 0.05925 0.0
C261 C 0.2561 0.73156 0.05126 0.0
H262 H 0.21422 0.74332 0.06475 0.0
C263 C 0.23555 0.71594 0.0497 0.0
H264 H 0.23159 0.70069 0.04453 0.0
H265 H 0.26774 0.72824 0.0475 0.0
H266 H 0.25465 0.46912 0.10363 0.0
C267 C 0.24057 0.46755 0.09787 0.0
C268 C 0.22254 0.45854 0.10583 0.0
C269 C 0.2408 0.47601 0.0831 0.0
H270 H 0.19063 0.45026 0.10458 0.0
C271 C 0.2046 0.45741 0.09858 0.0
C272 C 0.20447 0.46551 0.08377 0.0
C273 C 0.22258 0.47458 0.07605 0.0
C274 C 0.26036 0.48849 0.07585 0.0
H275 H 0.22276 0.48134 0.06481 0.0
C276 C 0.27386 0.48103 0.07277 0.0
C277 C 0.29161 0.49292 0.06491 0.0
C278 C 0.26532 0.50819 0.07163 0.0
H279 H 0.25544 0.51446 0.07412 0.0
C280 C 0.28305 0.52009 0.06422 0.0
H281 H 0.2702 0.46584 0.07588 0.0
C282 C 0.29604 0.5125 0.06078 0.0
H283 H 0.30971 0.52205 0.05496 0.0
H284 H 0.28668 0.53524 0.06105 0.0
H285 H 0.44226 0.87157 0.24833 0.0
C286 C 0.4302 0.8727 0.25398 0.0
C287 C 0.42253 0.88478 0.24759 0.0
C288 C 0.42195 0.86155 0.26726 0.0
H289 H 0.40031 0.89475 0.24957 0.0
C290 C 0.40661 0.8859 0.25476 0.0
C291 C 0.3979 0.87455 0.26789 0.0
C292 C 0.40585 0.86263 0.27413 0.0
C293 C 0.4291 0.8477 0.27339 0.0
H294 H 0.39943 0.8541 0.28441 0.0
C295 C 0.45024 0.85427 0.27632 0.0
C296 C 0.45659 0.84113 0.28281 0.0
C297 C 0.4145 0.82765 0.27652 0.0
H298 H 0.39819 0.82204 0.27412 0.0
C299 C 0.42074 0.81453 0.28264 0.0
H300 H 0.46166 0.86975 0.27413 0.0
C301 C 0.44159 0.8212 0.28584 0.0
H302 H 0.44602 0.81069 0.29061 0.0
H303 H 0.40935 0.79911 0.28496 0.0
H304 H 0.1453 0.58694 0.27256 0.0
C305 C 0.14453 0.57347 0.27735 0.0
C306 C 0.13367 0.55423 0.26797 0.0
C307 C 0.15481 0.5755 0.29267 0.0
H308 H 0.1249 0.52211 0.26684 0.0
C309 C 0.13307 0.53689 0.27411 0.0
C310 C 0.14334 0.53857 0.28935 0.0
C311 C 0.15395 0.55791 0.29859 0.0
C312 C 0.16746 0.59609 0.30218 0.0
H313 H 0.16202 0.55939 0.3103 0.0
C314 C 0.1605 0.6104 0.30356 0.0
C315 C 0.17247 0.62948 0.31311 0.0
C316 C 0.1868 0.60147 0.31007 0.0
H317 H 0.19286 0.59112 0.30893 0.0
C318 C 0.19872 0.62038 0.31937 0.0
H319 H 0.1456 0.6065 0.29766 0.0
C320 C 0.19161 0.63425 0.32096 0.0
H321 H 0.20124 0.6489 0.32819 0.0
H322 H 0.21357 0.62433 0.32535 0.0
H323 H 0.42707 0.55506 0.25576 0.0
C324 C 0.44032 0.56875 0.26196 0.0
C325 C 0.45989 0.57579 0.25658 0.0
C326 C 0.43754 0.57994 0.27475 0.0
H327 H 0.4919 0.59933 0.2606 0.0
C328 C 0.47683 0.5938 0.26469 0.0
C329 C 0.47445 0.60524 0.27755 0.0
C330 C 0.45467 0.59808 0.28247 0.0
C331 C 0.41649 0.57423 0.27873 0.0
H332 H 0.45236 0.60701 0.29197 0.0
C333 C 0.40196 0.5539 0.28159 0.0
C334 C 0.38188 0.5489 0.28473 0.0
C335 C 0.41071 0.58938 0.27918 0.0
H336 H 0.42144 0.60502 0.27684 0.0
C337 C 0.3909 0.58445 0.2823 0.0
H338 H 0.40621 0.54207 0.28129 0.0
C339 C 0.37656 0.56439 0.28501 0.0
H340 H 0.36131 0.56099 0.28753 0.0
H341 H 0.38662 0.59624 0.28256 0.0
C342 C 0.5206 0.01262 0.05905 0.0
Eu343 Eu 0.50984 0.01339 0.02872 0.0
C344 C 0.51083 1.00157 0.07314 0.0
C345 C 0.5058 0.01144 0.08543 0.0
C346 C 0.49741 1.00161 0.09914 0.0
C347 C 0.49417 0.98175 0.1011 0.0
C348 C 0.499 0.97178 0.08866 0.0
C349 C 0.50711 0.98152 0.07482 0.0
C350 C 0.50194 0.04162 0.01649 0.0
C351 C 0.45998 0.98132 0.02034 0.0
C352 C 0.4791 0.00269 0.96325 0.0
Eu353 Eu 0.49016 1.00238 0.99363 0.0
C354 C 0.48761 0.0149 0.94936 0.0
C355 C 0.50166 0.0125 0.94039 0.0
C356 C 0.50865 0.02311 0.92672 0.0
C357 C 0.50178 0.03642 0.92163 0.0
C358 C 0.48784 0.03893 0.93071 0.0
C359 C 0.48084 0.02829 0.94439 0.0
C360 C 0.49796 0.97415 0.00606 0.0
C361 C 0.53962 0.0352 0.00211 0.0
O362 O 0.5228 1.00207 0.04697 0.0
O363 O 0.51516 0.02561 0.05411 0.0
O364 O 0.51799 0.04641 0.02645 0.0
O365 O 0.49029 0.02231 0.01419 0.0
O366 O 0.47679 0.98821 0.03055 0.0
O367 O 0.46078 0.98674 0.0054 0.0
O368 O 0.47485 0.01144 0.97536 0.0
O369 O 0.48713 0.99171 0.96811 0.0
O370 O 0.48176 0.96941 0.99632 0.0
O371 O 0.5098 0.99343 0.00815 0.0
O372 O 0.52263 0.02886 0.99227 0.0
O373 O 0.5391 0.0287 0.01666 0.0
H374 H 0.50846 0.02689 0.08452 0.0
H375 H 0.49347 0.00967 0.10819 0.0
H376 H 0.49702 0.95662 0.08973 0.0
H377 H 0.51075 0.97343 0.06555 0.0
H378 H 0.50706 1.00215 0.94373 0.0
H379 H 0.51904 0.02043 0.9199 0.0
H380 H 0.48245 0.04929 0.92736 0.0
H381 H 0.46997 0.03043 0.95101 0.0
C382 C 0.01083 0.52343 0.05781 0.0
Eu383 Eu 0.00354 0.50574 0.02825 0.0
C384 C 0.02101 0.5241 0.07377 0.0
C385 C 0.01195 0.5251 0.0878 0.0
C386 C 0.02148 0.52635 0.10315 0.0
C387 C 0.04035 0.52675 0.10475 0.0
C388 C 0.04931 0.52549 0.09066 0.0
C389 C 0.03967 0.52409 0.07527 0.0
C390 C 0.97417 0.46639 0.01781 0.0
C391 C 0.03322 0.48606 0.02251 0.0
C392 C 0.99864 0.47372 0.96447 0.0
Eu393 Eu 0.00627 0.49103 0.99418 0.0
C394 C 0.99006 0.47506 0.94832 0.0
C395 C 1.00207 0.4906 0.9386 0.0
C396 C 0.99418 0.49092 0.92297 0.0
C397 C 0.97413 0.47571 0.91671 0.0
C398 C 0.96201 0.46039 0.92654 0.0
C399 C 0.96992 0.46002 0.94214 0.0
C400 C 0.03597 0.53014 0.00472 0.0
C401 C 0.97632 0.51046 0.99988 0.0
O402 O 0.02263 0.53179 0.04631 0.0
O403 O 0.99406 0.50615 0.05257 0.0
O404 O 0.97094 0.47891 0.02689 0.0
O405 O 0.99288 0.4747 0.01538 0.0
O406 O 0.02929 0.49833 0.03184 0.0
O407 O 0.02357 0.47834 0.00778 0.0
O408 O 0.98582 0.46633 0.9755 0.0
O409 O 0.01655 0.4892 0.97047 0.0
O410 O 0.03889 0.5175 0.9955 0.0
O411 O 0.01724 0.52213 0.00707 0.0
O412 O 0.9808 0.49875 0.99045 0.0
O413 O 0.98543 0.51772 0.0148 0.0
H414 H 0.99756 0.52513 0.08689 0.0
H415 H 0.01431 0.52746 0.1138 0.0
H416 H 0.06379 0.52563 0.09155 0.0
H417 H 0.04691 0.52325 0.06458 0.0
H418 H 0.01768 0.50238 0.94294 0.0
H419 H 0.00383 0.50303 0.91575 0.0
H420 H 0.94661 0.44827 0.922 0.0
H421 H 0.96037 0.44771 0.94926 0.0
C422 C 0.48899 0.49475 0.95701 0.0
Eu423 Eu 0.49973 0.50694 0.98783 0.0
C424 C 0.4983 0.49101 0.94295 0.0
C425 C 0.51765 0.50615 0.93902 0.0
C426 C 0.5257 0.50283 0.92515 0.0
C427 C 0.51466 0.48426 0.91492 0.0
C428 C 0.49553 0.46893 0.91915 0.0
C429 C 0.48743 0.47231 0.93299 0.0
C430 C 0.50926 0.54377 0.0031 0.0
C431 C 0.54911 0.52249 0.99611 0.0
C432 C 0.53387 0.53741 0.05363 0.0
Eu433 Eu 0.52058 0.51788 0.02473 0.0
C434 C 0.52554 0.53532 0.06955 0.0
C435 C 0.53615 0.53339 0.08321 0.0
C436 C 0.52898 0.53235 0.09849 0.0
C437 C 0.51114 0.53353 0.10054 0.0
C438 C 0.50025 0.53487 0.08668 0.0
C439 C 0.5073 0.53569 0.07139 0.0
C440 C 0.50604 0.47742 0.01434 0.0
C441 C 0.47039 0.49712 0.01645 0.0
O442 O 0.48433 0.48189 0.96819 0.0
O443 O 0.49691 0.51396 0.9631 0.0
O444 O 0.49293 0.53274 0.99294 0.0
O445 O 0.52006 0.53529 0.00423 0.0
O446 O 0.53237 0.51379 0.98556 0.0
O447 O 0.54891 0.52721 0.01174 0.0
O448 O 0.52535 0.54289 0.04214 0.0
O449 O 0.538 0.5232 0.04832 0.0
O450 O 0.51502 0.48566 0.02889 0.0
O451 O 0.50512 0.49102 0.00684 0.0
O452 O 0.48701 0.50768 0.02703 0.0
O453 O 0.47118 0.49282 1.00086 0.0
H454 H 0.52645 0.52073 0.94649 0.0
H455 H 0.54034 0.5151 0.92223 0.0
H456 H 0.48675 0.45429 0.91176 0.0
H457 H 0.47254 0.46038 0.93581 0.0
H458 H 0.55014 0.53287 0.08208 0.0
H459 H 0.53753 0.5307 0.1087 0.0
H460 H 0.48659 0.53597 0.08762 0.0
H461 H 0.49864 0.53705 0.06109 0.0
C462 C 0.19292 0.34738 0.3918 0.0
Eu463 Eu 0.17994 0.34953 0.36249 0.0
C464 C 0.18385 0.33647 0.40599 0.0
C465 C 0.16476 0.33322 0.4102 0.0
C466 C 0.15669 0.32333 0.42396 0.0
C467 C 0.16748 0.31638 0.43377 0.0
C468 C 0.18643 0.31936 0.42928 0.0
C469 C 0.19451 0.32931 0.41554 0.0
C470 C 0.17101 0.37799 0.3523 0.0
C471 C 0.12969 0.31852 0.35596 0.0
C472 C 0.14564 0.34054 0.29829 0.0
Eu473 Eu 0.158 0.33938 0.32808 0.0
C474 C 0.15523 0.35176 0.28436 0.0
C475 C 0.17568 0.35775 0.28198 0.0
C476 C 0.18437 0.36786 0.26844 0.0
C477 C 0.1728 0.37225 0.25706 0.0
C478 C 0.15242 0.3665 0.25966 0.0
C479 C 0.14374 0.35634 0.27318 0.0
C480 C 0.16638 0.31076 0.33869 0.0
C481 C 0.20798 0.37147 0.33485 0.0
O482 O 0.1925 0.336 0.37906 0.0
O483 O 0.18857 0.36154 0.38798 0.0
O484 O 0.18756 0.38257 0.36155 0.0
O485 O 0.1594 0.35869 0.34968 0.0
O486 O 0.14701 0.32501 0.36544 0.0
O487 O 0.1296 0.32414 0.34114 0.0
O488 O 0.1447 0.35148 0.31073 0.0
O489 O 0.15086 0.32717 0.30264 0.0
O490 O 0.14972 0.30628 0.32968 0.0
O491 O 0.17833 0.33004 0.34093 0.0
O492 O 0.19052 0.36506 0.32561 0.0
O493 O 0.20828 0.3652 0.34938 0.0
H494 H 0.15619 0.33854 0.40296 0.0
H495 H 0.14218 0.32153 0.42708 0.0
H496 H 0.19496 0.31382 0.43628 0.0
H497 H 0.20916 0.33148 0.4124 0.0
H498 H 0.18491 0.3545 0.29053 0.0
H499 H 0.20017 0.37232 0.26692 0.0
H500 H 0.14302 0.36947 0.25105 0.0
H501 H 0.12794 0.35186 0.27481 0.0
C502 C 0.6746 0.85563 0.38995 0.0
Eu503 Eu 0.6704 0.8425 0.3594 0.0
C504 C 0.68739 0.85838 0.40516 0.0
C505 C 0.68758 0.8416 0.41168 0.0
C506 C 0.69873 0.84442 0.42665 0.0
C507 C 0.71002 0.86407 0.43538 0.0
C508 C 0.71025 0.88091 0.42857 0.0
C509 C 0.69899 0.87806 0.41367 0.0
C510 C 0.64041 0.80586 0.34426 0.0
C511 C 0.7009 0.82382 0.35317 0.0
C512 C 0.676 0.82446 0.29437 0.0
Eu513 Eu 0.67782 0.83422 0.32533 0.0
C514 C 0.6627 0.82158 0.2795 0.0
C515 C 0.67184 0.83113 0.26586 0.0
C516 C 0.65972 0.82882 0.2516 0.0
C517 C 0.63816 0.81678 0.25065 0.0
C518 C 0.629 0.80721 0.26435 0.0
C519 C 0.64115 0.80971 0.2787 0.0
C520 C 0.70773 0.87017 0.34142 0.0
C521 C 0.64557 0.85055 0.33141 0.0
O522 O 0.68376 0.86782 0.37882 0.0
O523 O 0.66142 0.83674 0.38384 0.0
O524 O 0.63721 0.81742 0.35451 0.0
O525 O 0.65946 0.81343 0.34314 0.0
O526 O 0.69515 0.83378 0.36333 0.0
O527 O 0.69426 0.81979 0.33755 0.0
O528 O 0.66826 0.81082 0.30484 0.0
O529 O 0.68689 0.84333 0.30133 0.0
O530 O 0.71121 0.85813 0.332 0.0
O531 O 0.68865 0.86314 0.34156 0.0
O532 O 0.65151 0.84067 0.32139 0.0
O533 O 0.65268 0.85541 0.34691 0.0
H534 H 0.67883 0.82622 0.40538 0.0
H535 H 0.698 0.83105 0.43157 0.0
H536 H 0.71908 0.89632 0.43478 0.0
H537 H 0.69914 0.89125 0.40887 0.0
H538 H 0.68842 0.84035 0.26623 0.0
H539 H 0.66726 0.8361 0.24118 0.0
H540 H 0.61245 0.79787 0.26401 0.0
H541 H 0.6337 0.80232 0.28912 0.0
C542 C 0.15797 0.83139 0.29014 0.0
Eu543 Eu 0.16767 0.84339 0.32113 0.0
C544 C 0.167 0.82788 0.2757 0.0
C545 C 0.1796 0.84447 0.26703 0.0
C546 C 0.18677 0.84113 0.25268 0.0
C547 C 0.18153 0.82111 0.24655 0.0
C548 C 0.16915 0.8045 0.25531 0.0
C549 C 0.16192 0.80785 0.26971 0.0
C550 C 0.1769 0.88117 0.33426 0.0
C551 C 0.21662 0.85864 0.33078 0.0
C552 C 0.20066 0.87857 0.38656 0.0
Eu553 Eu 0.18823 0.85752 0.35815 0.0
C554 C 0.19276 0.87684 0.40272 0.0
C555 C 0.20058 0.87033 0.41547 0.0
C556 C 0.1938 0.86952 0.43091 0.0
C557 C 0.17926 0.87552 0.43408 0.0
C558 C 0.17137 0.8819 0.42122 0.0
C559 C 0.17791 0.88241 0.40575 0.0
C560 C 0.17361 0.81639 0.34999 0.0
C561 C 0.138 0.8361 0.34899 0.0
O562 O 0.15309 0.81842 0.30127 0.0
O563 O 0.16593 0.85054 0.29636 0.0
O564 O 0.16044 0.86908 0.32457 0.0
O565 O 0.18792 0.87305 0.33633 0.0
O566 O 0.19968 0.84746 0.32063 0.0
O567 O 0.21667 0.86694 0.34533 0.0
O568 O 0.19088 0.88229 0.37479 0.0
O569 O 0.20634 0.86535 0.38175 0.0
O570 O 0.18271 0.82575 0.36427 0.0
O571 O 0.17272 0.82936 0.34167 0.0
O572 O 0.15471 0.84825 0.35913 0.0
O573 O 0.13884 0.82955 0.33398 0.0
H574 H 0.18363 0.8601 0.27112 0.0
H575 H 0.19602 0.85424 0.24616 0.0
H576 H 0.16501 0.7889 0.25102 0.0
H577 H 0.15212 0.79472 0.27601 0.0
H578 H 0.21205 0.86597 0.41355 0.0
H579 H 0.2 0.86417 0.44036 0.0
H580 H 0.16049 0.88705 0.42316 0.0
H581 H 0.17165 0.88769 0.39627 0.0
C582 C 0.85575 0.68262 0.72927 0.0
Eu583 Eu 0.8448 0.68158 0.69861 0.0
C584 C 0.84714 0.67068 0.74306 0.0
C585 C 0.85867 0.67712 0.75829 0.0
C586 C 0.85067 0.66614 0.77161 0.0
C587 C 0.83092 0.64848 0.76996 0.0
C588 C 0.81936 0.64222 0.75462 0.0
C589 C 0.82746 0.65313 0.74128 0.0
C590 C 0.83679 0.70862 0.68438 0.0
C591 C 0.79555 0.64812 0.68935 0.0
C592 C 0.81589 0.66868 0.63227 0.0
Eu593 Eu 0.82659 0.66882 0.66283 0.0
C594 C 0.82442 0.6799 0.61797 0.0
C595 C 0.82649 0.66932 0.60437 0.0
C596 C 0.83312 0.67898 0.59026 0.0
C597 C 0.83767 0.69944 0.58931 0.0
C598 C 0.83607 0.71022 0.60309 0.0
C599 C 0.8295 0.70056 0.61727 0.0
C600 C 0.83405 0.64144 0.67701 0.0
C601 C 0.87606 0.70171 0.67222 0.0
O602 O 0.86018 0.67354 0.71753 0.0
O603 O 0.84686 0.69262 0.72391 0.0
O604 O 0.85234 0.71414 0.69512 0.0
O605 O 0.82555 0.68926 0.68242 0.0
O606 O 0.81196 0.65614 0.70011 0.0
O607 O 0.79675 0.65232 0.67404 0.0
O608 O 0.81228 0.67831 0.64417 0.0
O609 O 0.82335 0.65734 0.63742 0.0
O610 O 0.81924 0.6362 0.66561 0.0
O611 O 0.84551 0.66079 0.67912 0.0
O612 O 0.85987 0.69355 0.66121 0.0
O613 O 0.87463 0.69802 0.6876 0.0
H614 H 0.87385 0.69073 0.7599 0.0
H615 H 0.85987 0.67172 0.78327 0.0
H616 H 0.80412 0.62882 0.75286 0.0
H617 H 0.81834 0.64787 0.7296 0.0
H618 H 0.82267 0.65341 0.60456 0.0
H619 H 0.83458 0.67033 0.58004 0.0
H620 H 0.83932 0.72594 0.60278 0.0
H621 H 0.82805 0.70916 0.62754 0.0
C622 C 0.34479 0.19336 0.7224 0.0
Eu623 Eu 0.33789 0.17629 0.69273 0.0
C624 C 0.3583 0.19638 0.73715 0.0
C625 C 0.36236 0.18083 0.74142 0.0
C626 C 0.37404 0.1834 0.75603 0.0
C627 C 0.38212 0.20166 0.7665 0.0
C628 C 0.37868 0.2175 0.76189 0.0
C629 C 0.3668 0.21484 0.74736 0.0
C630 C 0.30892 0.13705 0.68166 0.0
C631 C 0.36985 0.15935 0.68733 0.0
C632 C 0.3345 0.14483 0.6291 0.0
Eu633 Eu 0.3418 0.16202 0.65876 0.0
C634 C 0.32275 0.14421 0.61387 0.0
C635 C 0.33328 0.15486 0.60103 0.0
C636 C 0.32245 0.15439 0.58654 0.0
C637 C 0.30084 0.14307 0.58452 0.0
C638 C 0.2903 0.13238 0.59736 0.0
C639 C 0.30112 0.13296 0.61189 0.0
C640 C 0.37104 0.2009 0.67002 0.0
C641 C 0.31087 0.18065 0.66406 0.0
O642 O 0.35375 0.20365 0.71031 0.0
O643 O 0.33029 0.17441 0.71767 0.0
O644 O 0.30525 0.14947 0.69046 0.0
O645 O 0.3278 0.14547 0.67975 0.0
O646 O 0.36535 0.17148 0.69621 0.0
O647 O 0.36013 0.15063 0.67277 0.0
O648 O 0.32394 0.13537 0.64094 0.0
O649 O 0.35091 0.16252 0.63425 0.0
O650 O 0.37459 0.18844 0.66111 0.0
O651 O 0.35214 0.19272 0.67178 0.0
O652 O 0.31654 0.17011 0.65441 0.0
O653 O 0.31853 0.18682 0.6794 0.0
H654 H 0.3562 0.16655 0.73362 0.0
H655 H 0.37661 0.17102 0.75921 0.0
H656 H 0.38464 0.2317 0.76977 0.0
H657 H 0.36394 0.22705 0.74422 0.0
H658 H 0.34993 0.16351 0.60215 0.0
H659 H 0.33103 0.16252 0.57679 0.0
H660 H 0.27365 0.12362 0.59619 0.0
H661 H 0.2925 0.12454 0.62153 0.0
C662 C 0.82344 0.14982 0.63125 0.0
Eu663 Eu 0.83565 0.16863 0.66064 0.0
C664 C 0.83227 0.15006 0.61575 0.0
C665 C 0.84333 0.16839 0.60841 0.0
C666 C 0.85064 0.16806 0.59334 0.0
C667 C 0.84718 0.14942 0.5853 0.0
C668 C 0.83644 0.13118 0.59285 0.0
C669 C 0.82903 0.1315 0.60787 0.0
C670 C 0.84654 0.20843 0.66896 0.0
C671 C 0.88561 0.18841 0.6678 0.0
C672 C 0.86932 0.20631 0.72384 0.0
Eu673 Eu 0.8572 0.18635 0.6949 0.0
C674 C 0.86028 0.20621 0.73926 0.0
C675 C 0.85457 0.18995 0.74911 0.0
C676 C 0.84668 0.19048 0.76387 0.0
C677 C 0.84428 0.20722 0.76911 0.0
C678 C 0.84978 0.22335 0.75915 0.0
C679 C 0.85777 0.22288 0.74444 0.0
C680 C 0.84736 0.14695 0.68656 0.0
C681 C 0.80681 0.16512 0.6881 0.0
O682 O 0.82903 0.14251 0.64326 0.0
O683 O 0.82222 0.16604 0.63602 0.0
O684 O 0.82973 0.19537 0.66005 0.0
O685 O 0.85724 0.2003 0.67231 0.0
O686 O 0.86833 0.17502 0.65883 0.0
O687 O 0.88557 0.19812 0.68159 0.0
O688 O 0.86314 0.21273 0.71152 0.0
O689 O 0.87145 0.19048 0.71953 0.0
O690 O 0.86385 0.16025 0.69577 0.0
O691 O 0.8361 0.15452 0.68315 0.0
O692 O 0.82397 0.17757 0.6976 0.0
O693 O 0.80704 0.15715 0.67353 0.0
H694 H 0.84615 0.18298 0.6142 0.0
H695 H 0.8587 0.18238 0.58787 0.0
H696 H 0.83385 0.11661 0.58722 0.0
H697 H 0.82062 0.11719 0.61331 0.0
H698 H 0.85627 0.17684 0.74551 0.0
H699 H 0.84239 0.17771 0.77117 0.0
H700 H 0.84836 0.23659 0.76292 0.0
H701 H 0.86218 0.2357 0.73716 0.0
H702 H 0.31047 0.84589 0.09082 0.0
H703 H 0.34017 0.87515 0.08144 0.0
H704 H 0.31324 0.85351 0.03182 0.0
H705 H 0.28341 0.82411 0.04115 0.0
H706 H 0.35281 0.86455 0.03417 0.0
H707 H 0.31444 0.8957 0.05203 0.0
H708 H 0.29554 0.90463 0.07108 0.0
H709 H 0.3498 0.93622 0.10502 0.0
H710 H 0.36896 0.92723 0.08626 0.0
H711 H 0.4236 0.95635 1.00138 0.0
H712 H 0.39149 0.92905 0.00987 0.0
H713 H 0.41881 0.94401 0.05955 0.0
H714 H 0.45101 0.97123 0.05119 0.0
H715 H 0.37833 0.93687 0.05633 0.0
H716 H 0.41611 0.90452 0.03897 0.0
H717 H 0.43514 0.89577 0.01994 0.0
H718 H 0.38182 0.86661 0.98497 0.0
H719 H 0.36253 0.87546 0.00372 0.0
C720 C 0.31069 0.8475 0.07792 0.0
C721 C 0.29446 0.83267 0.06675 0.0
C722 C 0.32773 0.86425 0.07256 0.0
C723 C 0.32889 0.86673 0.05591 0.0
C724 C 0.31273 0.85196 0.04472 0.0
C725 C 0.29569 0.83513 0.05007 0.0
C726 C 0.34721 0.88444 0.0502 0.0
C727 C 0.35815 0.88038 0.03883 0.0
C728 C 0.35454 0.90512 0.0565 0.0
C729 C 0.34309 0.91063 0.06779 0.0
C730 C 0.3223 0.90442 0.06361 0.0
C731 C 0.31155 0.90952 0.07435 0.0
C732 C 0.32145 0.92095 0.08927 0.0
C733 C 0.34214 0.92735 0.09347 0.0
C734 C 0.35297 0.92228 0.08278 0.0
C735 C 0.42274 0.954 0.01414 0.0
C736 C 0.43993 0.96598 0.02559 0.0
C737 C 0.40439 0.93832 0.01896 0.0
C738 C 0.4028 0.93439 0.03533 0.0
C739 C 0.41969 0.94677 0.04686 0.0
C740 C 0.43811 0.9623 0.04203 0.0
C741 C 0.38382 0.91691 0.04036 0.0
C742 C 0.37283 0.92103 0.05162 0.0
C743 C 0.37643 0.8963 0.03394 0.0
C744 C 0.38794 0.89086 0.02268 0.0
C745 C 0.40849 0.8964 0.02717 0.0
C746 C 0.41932 0.8914 0.01644 0.0
C747 C 0.40973 0.8807 1.00124 0.0
C748 C 0.38925 0.87493 0.99675 0.0
C749 C 0.37835 0.87992 0.00742 0.0
H750 H 0.41814 0.87684 0.99296 0.0
H751 H 0.31309 0.92487 0.09757 0.0
H752 H 0.1798 0.47563 0.10007 0.0
H753 H 0.14965 0.47677 0.08905 0.0
H754 H 0.15682 0.45731 0.04109 0.0
H755 H 0.18726 0.45636 0.05209 0.0
H756 H 0.14895 0.48781 0.03978 0.0
H757 H 0.11861 0.42399 0.0637 0.0
H758 H 0.11303 0.40107 0.08532 0.0
H759 H 0.09398 0.43582 0.11518 0.0
H760 H 0.09972 0.45914 0.09383 0.0
H761 H 0.05108 0.46797 0.00539 0.0
H762 H 0.07898 0.46233 0.01531 0.0
H763 H 0.07939 0.48781 0.06338 0.0
H764 H 0.05152 0.49349 0.0536 0.0
H765 H 0.08248 0.45244 0.0636 0.0
H766 H 0.11438 0.51701 0.04022 0.0
H767 H 0.11961 0.5398 0.01856 0.0
H768 H 0.13544 0.50315 0.98758 0.0
H769 H 0.12997 0.47992 0.00898 0.0
C770 C 0.17482 0.47133 0.08721 0.0
C771 C 0.18583 0.46571 0.07698 0.0
C772 C 0.15755 0.47199 0.08091 0.0
C773 C 0.15071 0.4668 0.06426 0.0
C774 C 0.16176 0.46133 0.05398 0.0
C775 C 0.17915 0.4608 0.06027 0.0
C776 C 0.13234 0.4676 0.05759 0.0
C777 C 0.13432 0.47975 0.04481 0.0
C778 C 0.11332 0.45748 0.06436 0.0
C779 C 0.10977 0.44342 0.07721 0.0
C780 C 0.11337 0.42684 0.07492 0.0
C781 C 0.11016 0.41376 0.08712 0.0
C782 C 0.1032 0.41701 0.10163 0.0
C783 C 0.09939 0.43333 0.10395 0.0
C784 C 0.1026 0.44647 0.09179 0.0
C785 C 0.05697 0.47222 0.01811 0.0
C786 C 0.04913 0.48129 0.02868 0.0
C787 C 0.07298 0.46905 0.02374 0.0
C788 C 0.08139 0.47483 0.04005 0.0
C789 C 0.07315 0.48327 0.05074 0.0
C790 C 0.05727 0.48659 0.0451 0.0
C791 C 0.09918 0.47266 0.04589 0.0
C792 C 0.09708 0.4603 0.05851 0.0
C793 C 0.11807 0.48256 0.03897 0.0
C794 C 0.12154 0.4966 0.02614 0.0
C795 C 0.11881 0.51371 0.02874 0.0
C796 C 0.12184 0.52672 0.01652 0.0
C797 C 0.1278 0.52289 0.00168 0.0
C798 C 0.13079 0.50607 0.99906 0.0
C799 C 0.12773 0.49298 0.01124 0.0
H800 H 0.13015 0.53298 0.99223 0.0
H801 H 0.10072 0.40687 0.11106 0.0
H802 H 0.5678 0.7318 0.06181 0.0
H803 H 0.56697 0.69973 0.05233 0.0
H804 H 0.50081 0.66858 0.04411 0.0
H805 H 0.50158 0.70058 0.05322 0.0
H806 H 0.51947 0.64876 0.06393 0.0
H807 H 0.52323 0.67917 0.01291 0.0
H808 H 0.53942 0.70694 0.99503 0.0
H809 H 0.59474 0.70364 1.00006 0.0
H810 H 0.57896 0.67604 0.01817 0.0
H811 H 0.48292 0.55681 0.01107 0.0
H812 H 0.4915 0.59061 0.02416 0.0
H813 H 0.55599 0.60987 0.02719 0.0
H814 H 0.5474 0.57567 0.01462 0.0
H815 H 0.54353 0.63733 0.01203 0.0
H816 H 0.54185 0.60671 0.05985 0.0
H817 H 0.53107 0.5827 0.08098 0.0
H818 H 0.47774 0.58871 0.08506 0.0
H819 H 0.48796 0.61247 0.06369 0.0
C820 C 0.55312 0.71813 0.05783 0.0
C821 C 0.53476 0.71867 0.05814 0.0
C822 C 0.55267 0.69988 0.05243 0.0
C823 C 0.53382 0.68183 0.04755 0.0
C824 C 0.5155 0.68236 0.04783 0.0
C825 C 0.51597 0.70066 0.05292 0.0
C826 C 0.53301 0.66217 0.04248 0.0
C827 C 0.52449 0.64612 0.0525 0.0
C828 C 0.54058 0.65921 0.02798 0.0
C829 C 0.55001 0.67573 0.01705 0.0
C830 C 0.53892 0.68451 0.01034 0.0
C831 C 0.548 0.70019 1.00013 0.0
C832 C 0.56812 0.7071 0.99646 0.0
C833 C 0.57917 0.6983 0.00294 0.0
C834 C 0.57016 0.68264 0.01317 0.0
C835 C 0.49891 0.56819 0.01469 0.0
C836 C 0.51452 0.56373 0.01181 0.0
C837 C 0.50378 0.58743 0.0222 0.0
C838 C 0.52437 0.60271 0.02663 0.0
C839 C 0.54002 0.59825 0.02388 0.0
C840 C 0.5351 0.57877 0.01674 0.0
C841 C 0.5293 0.6236 0.03323 0.0
C842 C 0.53859 0.63992 0.02351 0.0
C843 C 0.52287 0.62696 0.04821 0.0
C844 C 0.51558 0.61124 0.06 0.0
C845 C 0.52758 0.60258 0.06497 0.0
C846 C 0.52163 0.58909 0.07707 0.0
C847 C 0.50375 0.5842 0.08437 0.0
C848 C 0.4916 0.59253 0.0794 0.0
C849 C 0.49745 0.60599 0.06728 0.0
H850 H 0.49942 0.57411 0.09397 0.0
H851 H 0.57513 0.71923 0.98855 0.0
H852 H 0.81686 0.2833 0.9814 0.0
H853 H 0.84611 0.31599 0.9937 0.0
H854 H 0.87049 0.32835 0.94741 0.0
H855 H 0.84073 0.29658 0.93467 0.0
H856 H 0.89863 0.33404 0.98228 0.0
H857 H 0.85433 0.35381 0.95048 0.0
H858 H 0.82033 0.35002 0.94302 0.0
H859 H 0.81522 0.36274 0.99316 0.0
H860 H 0.84907 0.36628 1.00092 0.0
H861 H 0.97727 0.43914 0.9964 0.0
H862 H 0.94989 0.40481 0.98515 0.0
H863 H 0.90815 0.41023 0.01582 0.0
H864 H 0.93499 0.44523 0.02591 0.0
H865 H 0.88811 0.39406 0.98927 0.0
H866 H 0.93187 0.3784 0.02209 0.0
H867 H 0.96421 0.3802 0.03234 0.0
H868 H 0.96913 0.3576 0.98504 0.0
H869 H 0.93695 0.35591 0.97445 0.0
C870 C 0.82828 0.29297 0.97373 0.0
C871 C 0.82616 0.28712 0.95693 0.0
C872 C 0.84513 0.31156 0.98086 0.0
C873 C 0.86041 0.32449 0.97144 0.0
C874 C 0.85888 0.31845 0.95488 0.0
C875 C 0.84185 0.30011 0.94766 0.0
C876 C 0.87732 0.34494 0.97865 0.0
C877 C 0.89652 0.34729 0.9837 0.0
C878 C 0.87424 0.36191 0.98098 0.0
C879 C 0.85406 0.36005 0.97628 0.0
C880 C 0.84585 0.35559 0.95992 0.0
C881 C 0.82663 0.35353 0.95563 0.0
C882 C 0.81558 0.35607 0.96761 0.0
C883 C 0.82377 0.36074 0.98389 0.0
C884 C 0.84296 0.36278 0.98824 0.0
C885 C 0.96216 0.43305 1.00059 0.0
C886 C 0.95817 0.44499 0.01184 0.0
C887 C 0.94656 0.41324 0.99434 0.0
C888 C 0.92685 0.40459 0.99975 0.0
C889 C 0.92309 0.41643 0.01131 0.0
C890 C 0.9385 0.43645 0.01717 0.0
C891 C 0.90994 0.38359 0.99299 0.0
C892 C 0.89053 0.381 0.98799 0.0
C893 C 0.91278 0.36628 0.99111 0.0
C894 C 0.9321 0.36721 0.99744 0.0
C895 C 0.93992 0.37394 0.01385 0.0
C896 C 0.95821 0.37493 0.01972 0.0
C897 C 0.96874 0.36907 0.00934 0.0
C898 C 0.96097 0.36216 0.99307 0.0
C899 C 0.9427 0.36116 0.98712 0.0
H900 H 0.9829 0.36984 0.01391 0.0
H901 H 0.80071 0.35448 0.96427 0.0
H902 H 0.69748 0.50595 0.94572 0.0
H903 H 0.66781 0.50573 0.95607 0.0
H904 H 0.69285 0.56961 0.94775 0.0
H905 H 0.72318 0.57023 0.93804 0.0
H906 H 0.6769 0.5635 0.97558 0.0
H907 H 0.6535 0.53079 0.92173 0.0
H908 H 0.6472 0.50625 0.89804 0.0
H909 H 0.6099 0.45554 0.92484 0.0
H910 H 0.6162 0.47977 0.94877 0.0
H911 H 0.5581 0.52496 0.96462 0.0
H912 H 0.58974 0.53052 0.95408 0.0
H913 H 0.61608 0.53423 0.00275 0.0
H914 H 0.58461 0.52945 0.01346 0.0
H915 H 0.60672 0.50893 0.95309 0.0
H916 H 0.668 0.56266 0.00606 0.0
H917 H 0.67382 0.5904 0.02683 0.0
H918 H 0.63493 0.60471 0.99692 0.0
H919 H 0.6291 0.57726 0.97588 0.0
C920 C 0.6969 0.52008 0.94631 0.0
C921 C 0.71282 0.53813 0.94104 0.0
C922 C 0.67974 0.51985 0.95205 0.0
C923 C 0.67789 0.53756 0.95248 0.0
C924 C 0.69387 0.55571 0.94748 0.0
C925 C 0.71113 0.55599 0.94179 0.0
C926 C 0.65921 0.537 0.95808 0.0
C927 C 0.66155 0.55158 0.97066 0.0
C928 C 0.63914 0.52178 0.9514 0.0
C929 C 0.63549 0.50711 0.9371 0.0
C930 C 0.64411 0.5144 0.92262 0.0
C931 C 0.64051 0.50054 0.90914 0.0
C932 C 0.6282 0.47935 0.90995 0.0
C933 C 0.61945 0.47196 0.92424 0.0
C934 C 0.62302 0.48575 0.93776 0.0
C935 C 0.57067 0.52714 0.97313 0.0
C936 C 0.5688 0.52679 0.98991 0.0
C937 C 0.58879 0.53027 0.96706 0.0
C938 C 0.60547 0.53295 0.97757 0.0
C939 C 0.60366 0.53265 0.99437 0.0
C940 C 0.5856 0.52982 1.00049 0.0
C941 C 0.62433 0.53522 0.97083 0.0
C942 C 0.62204 0.52089 0.95804 0.0
C943 C 0.6444 0.55109 0.97695 0.0
C944 C 0.64796 0.56776 0.98947 0.0
C945 C 0.66075 0.57178 0.00389 0.0
C946 C 0.66404 0.58744 0.01572 0.0
C947 C 0.6547 0.59926 0.01322 0.0
C948 C 0.6421 0.59549 0.99887 0.0
C949 C 0.63877 0.57986 0.987 0.0
H950 H 0.65725 0.61137 0.02239 0.0
H951 H 0.6254 0.46865 0.89948 0.0
H952 H 0.45323 0.16447 0.94612 0.0
H953 H 0.45449 0.13451 0.95499 0.0
H954 H 0.51817 0.17388 0.97356 0.0
H955 H 0.51712 0.20378 0.9645 0.0
H956 H 0.51132 0.13812 0.9566 0.0
H957 H 0.48116 0.15795 0.99891 0.0
H958 H 0.45556 0.16551 0.00967 0.0
H959 H 0.4072 0.10431 0.9922 0.0
H960 H 0.43251 0.09648 0.98114 0.0
H961 H 0.53016 0.08188 0.01455 0.0
H962 H 0.52545 0.10712 1.00033 0.0
H963 H 0.46251 0.06082 0.98458 0.0
H964 H 0.46715 0.03544 0.99885 0.0
H965 H 0.46604 0.097 0.99714 0.0
H966 H 0.49857 0.07528 0.96024 0.0
H967 H 0.52481 0.06828 0.95021 0.0
H968 H 0.56891 0.13297 0.95578 0.0
H969 H 0.5436 0.14039 0.96713 0.0
C970 C 0.46753 0.16671 0.952 0.0
C971 C 0.48504 0.18654 0.95471 0.0
C972 C 0.4682 0.1496 0.95713 0.0
C973 C 0.48639 0.15197 0.96503 0.0
C974 C 0.50396 0.17168 0.9675 0.0
C975 C 0.50328 0.18879 0.96246 0.0
C976 C 0.48713 0.13408 0.97109 0.0
C977 C 0.50163 0.12922 0.9656 0.0
C978 C 0.47389 0.12204 0.98236 0.0
C979 C 0.45869 0.12672 0.98903 0.0
C980 C 0.46504 0.14617 0.99724 0.0
C981 C 0.45059 0.15049 0.00342 0.0
C982 C 0.42976 0.13542 0.00157 0.0
C983 C 0.42334 0.11598 0.99359 0.0
C984 C 0.43773 0.11159 0.98737 0.0
C985 C 0.51531 0.07708 0.00806 0.0
C986 C 0.49898 0.05673 0.00782 0.0
C987 C 0.51269 0.09149 0.99986 0.0
C988 C 0.49368 0.08583 0.9913 0.0
C989 C 0.47732 0.0655 0.99109 0.0
C990 C 0.47999 0.05102 0.99919 0.0
C991 C 0.49076 0.10138 0.98306 0.0
C992 C 0.47574 0.10574 0.98807 0.0
C993 C 0.50363 0.11296 0.97136 0.0
C994 C 0.51911 0.1084 0.96482 0.0
C995 C 0.51397 0.08803 0.95972 0.0
C996 C 0.5287 0.08397 0.95378 0.0
C997 C 0.54846 0.10015 0.95234 0.0
C998 C 0.55362 0.12042 0.957 0.0
C999 C 0.53912 0.12456 0.96332 0.0
H1000 H 0.55975 0.09697 0.94754 0.0
H1001 H 0.41859 0.13879 0.00636 0.0
H1002 H 0.71898 0.18816 0.97554 0.0
H1003 H 0.69122 0.15557 0.98327 0.0
H1004 H 0.64655 0.16472 0.95556 0.0
H1005 H 0.67409 0.19716 0.94792 0.0
H1006 H 0.63578 0.15595 0.9852 0.0
H1007 H 0.65896 0.12784 0.94303 0.0
H1008 H 0.6844 0.12246 0.92949 0.0
H1009 H 0.69559 0.09724 0.97155 0.0
H1010 H 0.6704 0.10273 0.98542 0.0
H1011 H 0.54485 0.06001 0.97796 0.0
H1012 H 0.57682 0.089 0.97123 0.0
H1013 H 0.61117 0.07688 0.00811 0.0
H1014 H 0.57902 0.0478 0.0152 0.0
H1015 H 0.62923 0.08693 0.97691 0.0
H1016 H 0.60248 0.11137 0.01764 0.0
H1017 H 0.57609 0.11582 0.03038 0.0
H1018 H 0.57194 0.14886 0.99114 0.0
H1019 H 0.59774 0.14389 0.97779 0.0
C1020 C 0.70327 0.18298 0.97085 0.0
C1021 C 0.69872 0.19531 0.96122 0.0
C1022 C 0.68739 0.16437 0.9753 0.0
C1023 C 0.66673 0.15768 0.97006 0.0
C1024 C 0.66231 0.16961 0.95991 0.0
C1025 C 0.67809 0.18816 0.95553 0.0
C1026 C 0.6495 0.13887 0.97568 0.0
C1027 C 0.63427 0.14083 0.98322 0.0
C1028 C 0.64785 0.11923 0.97366 0.0
C1029 C 0.66298 0.11592 0.96533 0.0
C1030 C 0.66698 0.12132 0.94944 0.0
C1031 C 0.68133 0.11821 0.9417 0.0
C1032 C 0.69166 0.10958 0.94968 0.0
C1033 C 0.68761 0.10397 0.9654 0.0
C1034 C 0.67329 0.10706 0.9732 0.0
C1035 C 0.55918 0.06326 0.98455 0.0
C1036 C 0.55935 0.05157 0.99718 0.0
C1037 C 0.57744 0.0799 0.98068 0.0
C1038 C 0.59633 0.08515 0.98921 0.0
C1039 C 0.59673 0.07305 1.00137 0.0
C1040 C 0.57836 0.05651 0.00545 0.0
C1041 C 0.61532 0.10402 0.98593 0.0
C1042 C 0.63086 0.10209 0.97895 0.0
C1043 C 0.61727 0.12374 0.98844 0.0
C1044 C 0.60181 0.12689 0.99652 0.0
C1045 C 0.5957 0.11926 0.01155 0.0
C1046 C 0.58084 0.12189 0.0189 0.0
C1047 C 0.57221 0.13247 0.0115 0.0
C1048 C 0.57849 0.14049 0.99677 0.0
C1049 C 0.5932 0.13773 0.98928 0.0
H1050 H 0.56077 0.13456 0.01723 0.0
H1051 H 0.70276 0.10718 0.94366 0.0
H1052 H 0.80433 0.47756 0.94441 0.0
H1053 H 0.83922 0.48478 0.95215 0.0
H1054 H 0.85824 0.5482 0.96673 0.0
H1055 H 0.82296 0.54094 0.95973 0.0
H1056 H 0.88599 0.53344 0.94543 0.0
H1057 H 0.85491 0.53214 0.99611 0.0
H1058 H 0.82589 0.51658 0.01284 0.0
H1059 H 0.82572 0.4593 0.0078 0.0
H1060 H 0.85455 0.47446 0.99082 0.0
H1061 H 0.96157 0.53279 0.01564 0.0
H1062 H 0.9331 0.53763 0.00587 0.0
H1063 H 0.92553 0.50239 0.96045 0.0
H1064 H 0.95409 0.49777 0.96997 0.0
H1065 H 0.89393 0.50864 0.99815 0.0
H1066 H 0.90492 0.5169 0.93012 0.0
H1067 H 0.9331 0.53072 0.9125 0.0
H1068 H 0.97412 0.5742 0.952 0.0
H1069 H 0.94614 0.56077 0.96983 0.0
C1070 C 0.81587 0.49308 0.94926 0.0
C1071 C 0.81067 0.50857 0.95174 0.0
C1072 C 0.83586 0.4972 0.95352 0.0
C1073 C 0.85121 0.51696 0.96007 0.0
C1074 C 0.84654 0.53284 0.96163 0.0
C1075 C 0.82639 0.52867 0.95757 0.0
C1076 C 0.87145 0.52022 0.96662 0.0
C1077 C 0.8879 0.52825 0.95702 0.0
C1078 C 0.87381 0.51339 0.9817 0.0
C1079 C 0.85672 0.50437 0.99209 0.0
C1080 C 0.84856 0.51618 0.99846 0.0
C1081 C 0.83217 0.50744 0.00801 0.0
C1082 C 0.82393 0.48695 0.01135 0.0
C1083 C 0.8321 0.47516 0.00519 0.0
C1084 C 0.84847 0.48382 0.99562 0.0
C1085 C 0.95404 0.52631 0.00348 0.0
C1086 C 0.96015 0.51487 0.99362 0.0
C1087 C 0.93773 0.52906 0.99793 0.0
C1088 C 0.92725 0.52055 0.98236 0.0
C1089 C 0.93357 0.50945 0.97238 0.0
C1090 C 0.94988 0.50672 0.97791 0.0
C1091 C 0.9088 0.52196 0.97702 0.0
C1092 C 0.89242 0.51439 0.98674 0.0
C1093 C 0.90659 0.52923 0.96203 0.0
C1094 C 0.92345 0.53773 0.95133 0.0
C1095 C 0.91992 0.52949 0.93502 0.0
C1096 C 0.93586 0.53724 0.925 0.0
C1097 C 0.95539 0.55332 0.93113 0.0
C1098 C 0.959 0.56171 0.94728 0.0
C1099 C 0.94311 0.55401 0.95736 0.0
H1100 H 0.96772 0.55928 0.92335 0.0
H1101 H 0.81124 0.48021 0.01874 0.0
H1102 H 0.49715 0.30966 0.95126 0.0
H1103 H 0.48964 0.33795 0.95396 0.0
H1104 H 0.49836 0.3406 0.00615 0.0
H1105 H 0.50573 0.31242 0.00351 0.0
H1106 H 0.46591 0.34585 0.9961 0.0
H1107 H 0.53711 0.37222 0.98554 0.0
H1108 H 0.56451 0.37457 0.96943 0.0
H1109 H 0.53978 0.392 0.92925 0.0
H1110 H 0.51204 0.38946 0.94508 0.0
H1111 H 0.50181 0.44621 0.03145 0.0
H1112 H 0.49553 0.41233 0.02105 0.0
H1113 H 0.49146 0.42714 0.97192 0.0
H1114 H 0.49829 0.46144 0.98242 0.0
H1115 H 0.51593 0.41114 0.9753 0.0
H1116 H 0.44841 0.39099 0.98778 0.0
H1117 H 0.42145 0.38928 0.0041 0.0
H1118 H 0.43855 0.36036 0.04028 0.0
H1119 H 0.46584 0.36216 0.0243 0.0
C1120 C 0.49703 0.31603 0.96329 0.0
C1121 C 0.50219 0.30899 0.97718 0.0
C1122 C 0.49287 0.33225 0.96482 0.0
C1123 C 0.49366 0.34155 0.98027 0.0
C1124 C 0.49768 0.33371 0.99412 0.0
C1125 C 0.502 0.31768 0.99259 0.0
C1126 C 0.49185 0.36036 0.98224 0.0
C1127 C 0.47683 0.36014 0.99157 0.0
C1128 C 0.5057 0.37886 0.97589 0.0
C1129 C 0.52235 0.38037 0.9664 0.0
C1130 C 0.53741 0.37637 0.97322 0.0
C1131 C 0.55302 0.37777 0.96415 0.0
C1132 C 0.55384 0.38336 0.94831 0.0
C1133 C 0.53909 0.38761 0.94151 0.0
C1134 C 0.52342 0.38619 0.95052 0.0
C1135 C 0.49929 0.44215 0.01843 0.0
C1136 C 0.50025 0.45635 0.00772 0.0
C1137 C 0.49557 0.42271 0.01248 0.0
C1138 C 0.49267 0.41698 0.99568 0.0
C1139 C 0.49344 0.43111 0.98493 0.0
C1140 C 0.49713 0.45062 0.99091 0.0
C1141 C 0.49033 0.39682 0.98958 0.0
C1142 C 0.50462 0.39677 0.97951 0.0
C1143 C 0.47576 0.37807 0.99521 0.0
C1144 C 0.45927 0.37681 0.00486 0.0
C1145 C 0.44652 0.38438 0.99927 0.0
C1146 C 0.43116 0.38338 0.00845 0.0
C1147 C 0.4283 0.37474 0.02323 0.0
C1148 C 0.44078 0.36704 0.02883 0.0
C1149 C 0.45618 0.36802 0.01969 0.0
H1150 H 0.41641 0.37398 0.03033 0.0
H1151 H 0.56595 0.38445 0.94131 0.0
H1152 H 0.20519 0.68142 0.06415 0.0
H1153 H 0.17049 0.65181 0.05778 0.0
H1154 H 0.15137 0.69018 0.03432 0.0
H1155 H 0.18627 0.71997 0.04065 0.0
H1156 H 0.13103 0.64183 0.06375 0.0
H1157 H 0.12086 0.66071 0.99908 0.0
H1158 H 0.14182 0.68134 0.97821 0.0
H1159 H 0.19235 0.67473 0.99714 0.0
H1160 H 0.17159 0.65385 0.01795 0.0
H1161 H 0.03323 0.55998 0.02347 0.0
H1162 H 0.06155 0.59461 0.03389 0.0
H1163 H 0.10418 0.58214 0.01022 0.0
H1164 H 0.07623 0.54777 1.00001 0.0
H1165 H 0.10982 0.61993 0.00483 0.0
H1166 H 0.10216 0.57984 0.05063 0.0
H1167 H 0.08346 0.5581 0.07181 0.0
H1168 H 0.0708 0.60468 0.0905 0.0
H1169 H 0.08947 0.62671 0.0694 0.0
C1170 C 0.19351 0.6836 0.05782 0.0
C1171 C 0.19848 0.70294 0.05274 0.0
C1172 C 0.17365 0.66671 0.0543 0.0
C1173 C 0.15836 0.66871 0.04546 0.0
C1174 C 0.16296 0.68826 0.04109 0.0
C1175 C 0.18286 0.70527 0.04475 0.0
C1176 C 0.13842 0.64992 0.03955 0.0
C1177 C 0.12622 0.63718 0.05087 0.0
C1178 C 0.13222 0.64369 0.02276 0.0
C1179 C 0.14476 0.65597 0.01018 0.0
C1180 C 0.13643 0.66364 0.99874 0.0
C1181 C 0.14827 0.67536 0.98693 0.0
C1182 C 0.16843 0.67941 0.98639 0.0
C1183 C 0.17676 0.67166 0.99761 0.0
C1184 C 0.16497 0.65989 0.00943 0.0
C1185 C 0.04868 0.56467 0.02058 0.0
C1186 C 0.05254 0.55117 0.01098 0.0
C1187 C 0.06482 0.58442 0.02652 0.0
C1188 C 0.085 0.59096 0.02284 0.0
C1189 C 0.08875 0.5775 0.01314 0.0
C1190 C 0.07274 0.55782 0.00734 0.0
C1191 C 0.10247 0.61173 0.02901 0.0
C1192 C 0.11427 0.62482 0.01772 0.0
C1193 C 0.1084 0.61812 0.04581 0.0
C1194 C 0.09699 0.6048 0.05835 0.0
C1195 C 0.09523 0.58536 0.05917 0.0
C1196 C 0.08468 0.57301 0.07119 0.0
C1197 C 0.07584 0.57996 0.08245 0.0
C1198 C 0.07761 0.5993 0.08175 0.0
C1199 C 0.08821 0.61175 0.06979 0.0
H1200 H 0.06772 0.57043 0.09177 0.0
H1201 H 0.17758 0.68851 0.97725 0.0
H1202 H 0.30485 0.49133 0.03544 0.0
H1203 H 0.33238 0.48473 0.0291 0.0
H1204 H 0.33842 0.4714 0.07842 0.0
H1205 H 0.31075 0.47821 0.08485 0.0
H1206 H 0.37497 0.49942 0.0692 0.0
H1207 H 0.32111 0.43325 0.04728 0.0
H1208 H 0.28865 0.40785 0.03115 0.0
H1209 H 0.31376 0.43322 0.98737 0.0
H1210 H 0.34629 0.45898 0.00324 0.0
H1211 H 0.45918 0.48872 0.04709 0.0
H1212 H 0.42643 0.48081 0.05711 0.0
H1213 H 0.40369 0.48532 0.00931 0.0
H1214 H 0.4359 0.49188 0.99908 0.0
H1215 H 0.37403 0.45633 0.02119 0.0
H1216 H 0.42577 0.52608 0.04416 0.0
H1217 H 0.45748 0.55228 0.0608 0.0
H1218 H 0.4357 0.5203 0.10299 0.0
H1219 H 0.40401 0.49376 0.08655 0.0
C1220 C 0.31179 0.48661 0.04486 0.0
C1221 C 0.30573 0.48534 0.06065 0.0
C1222 C 0.32746 0.48272 0.0412 0.0
C1223 C 0.33745 0.47745 0.05325 0.0
C1224 C 0.33089 0.47538 0.06891 0.0
C1225 C 0.31502 0.47913 0.07256 0.0
C1226 C 0.35592 0.47613 0.0497 0.0
C1227 C 0.37471 0.48966 0.05891 0.0
C1228 C 0.35566 0.46366 0.03612 0.0
C1229 C 0.33613 0.44814 0.02648 0.0
C1230 C 0.31967 0.43352 0.03422 0.0
C1231 C 0.30126 0.41904 0.02512 0.0
C1232 C 0.29913 0.41894 0.00825 0.0
C1233 C 0.31543 0.43331 1.00044 0.0
C1234 C 0.33388 0.44784 0.00948 0.0
C1235 C 0.44708 0.48779 0.0387 0.0
C1236 C 0.45012 0.49097 0.0223 0.0
C1237 C 0.42839 0.48344 0.04447 0.0
C1238 C 0.41262 0.48295 0.03411 0.0
C1239 C 0.41552 0.4856 0.01762 0.0
C1240 C 0.43398 0.48939 0.01175 0.0
C1241 C 0.3933 0.48024 0.04032 0.0
C1242 C 0.37431 0.46591 0.03162 0.0
C1243 C 0.39338 0.49204 0.05436 0.0
C1244 C 0.41262 0.50784 0.0641 0.0
C1245 C 0.42783 0.52456 0.05695 0.0
C1246 C 0.44578 0.53948 0.06636 0.0
C1247 C 0.44855 0.53795 0.08295 0.0
C1248 C 0.43349 0.52145 0.09015 0.0
C1249 C 0.41556 0.50647 0.0808 0.0
H1250 H 0.46232 0.54955 0.09027 0.0
H1251 H 0.28486 0.40771 1.00122 0.0
H1252 H 0.47283 0.80785 0.05361 0.0
H1253 H 0.47764 0.84174 0.04924 0.0
H1254 H 0.53942 0.86203 0.03764 0.0
H1255 H 0.53458 0.82777 0.04177 0.0
H1256 H 0.53323 0.89311 0.05692 0.0
H1257 H 0.50757 0.84751 0.00747 0.0
H1258 H 0.48449 0.81466 0.99077 0.0
H1259 H 0.43235 0.82069 1.00061 0.0
H1260 H 0.45509 0.85343 0.01762 0.0
H1261 H 0.53455 0.97645 0.01589 0.0
H1262 H 0.53924 0.9487 0.02573 0.0
H1263 H 0.47338 0.91009 0.02471 0.0
H1264 H 0.46875 0.93718 0.0139 0.0
H1265 H 0.48618 0.88926 0.01056 0.0
H1266 H 0.51084 0.93243 0.06267 0.0
H1267 H 0.5335 0.96378 0.08132 0.0
H1268 H 0.58661 0.96262 0.06682 0.0
H1269 H 0.56433 0.93106 0.04837 0.0
C1270 C 0.48754 0.81956 0.05029 0.0
C1271 C 0.5032 0.815 0.04773 0.0
C1272 C 0.49029 0.83896 0.04789 0.0
C1273 C 0.50878 0.85429 0.04291 0.0
C1274 C 0.52503 0.85038 0.04148 0.0
C1275 C 0.52225 0.83083 0.04385 0.0
C1276 C 0.50999 0.87338 0.03762 0.0
C1277 C 0.52317 0.89242 0.04666 0.0
C1278 C 0.49672 0.87238 0.02435 0.0
C1279 C 0.48302 0.85283 0.01394 0.0
C1280 C 0.49117 0.84175 0.00618 0.0
C1281 C 0.47815 0.82316 0.99664 0.0
C1282 C 0.45696 0.81557 0.99466 0.0
C1283 C 0.44876 0.82658 0.00218 0.0
C1284 C 0.46171 0.84516 0.01176 0.0
C1285 C 0.52115 0.96206 0.01795 0.0
C1286 C 0.50129 0.95878 0.01394 0.0
C1287 C 0.52383 0.94625 0.02371 0.0
C1288 C 0.50666 0.92715 0.02604 0.0
C1289 C 0.48689 0.92449 0.02286 0.0
C1290 C 0.48423 0.93999 0.01669 0.0
C1291 C 0.50878 0.90919 0.0303 0.0
C1292 C 0.49631 0.8902 0.02087 0.0
C1293 C 0.52262 0.91032 0.04327 0.0
C1294 C 0.53596 0.92956 0.05402 0.0
C1295 C 0.52736 0.93897 0.06338 0.0
C1296 C 0.54011 0.95672 0.07393 0.0
C1297 C 0.56144 0.96529 0.07511 0.0
C1298 C 0.57009 0.95602 0.06585 0.0
C1299 C 0.55742 0.93814 0.05541 0.0
H1300 H 0.57126 0.97905 0.08327 0.0
H1301 H 0.44691 0.80117 0.98727 0.0
H1302 H 0.98089 0.18574 0.42962 0.0
H1303 H 0.0108 0.21484 0.42029 0.0
H1304 H 0.98455 0.19274 0.37059 0.0
H1305 H 0.95444 0.1636 0.37984 0.0
H1306 H 0.0245 0.20309 0.37408 0.0
H1307 H 0.98557 0.23497 0.38974 0.0
H1308 H 0.96655 0.24453 0.40821 0.0
H1309 H 0.02058 0.27689 0.44232 0.0
H1310 H 0.03986 0.26729 0.42415 0.0
H1311 H 0.0925 0.29319 0.33821 0.0
H1312 H 0.061 0.26641 0.34794 0.0
H1313 H 0.09083 0.28307 0.39689 0.0
H1314 H 0.12246 0.30965 0.38728 0.0
H1315 H 0.04921 0.27605 0.39378 0.0
H1316 H 0.08777 0.24369 0.37944 0.0
H1317 H 0.10778 0.23495 0.36147 0.0
H1318 H 0.05531 0.20375 0.32576 0.0
H1319 H 0.03507 0.21267 0.34341 0.0
C1320 C 0.98126 0.18723 0.41671 0.0
C1321 C 0.96517 0.17231 0.40549 0.0
C1322 C 0.99845 0.20388 0.41139 0.0
C1323 C 0.99991 0.20611 0.39473 0.0
C1324 C 0.98382 0.19134 0.3835 0.0
C1325 C 0.96662 0.17467 0.38881 0.0
C1326 C 0.01845 0.22353 0.38902 0.0
C1327 C 0.02967 0.21904 0.3782 0.0
C1328 C 0.02563 0.24437 0.39474 0.0
C1329 C 0.0141 0.25025 0.40565 0.0
C1330 C 0.99335 0.244 0.40124 0.0
C1331 C 0.98253 0.24944 0.41164 0.0
C1332 C 0.99234 0.26127 0.42645 0.0
C1333 C 0.013 0.26772 0.43086 0.0
C1334 C 0.02388 0.26229 0.4205 0.0
C1335 C 0.09231 0.29134 0.35108 0.0
C1336 C 0.11003 0.30358 0.36196 0.0
C1337 C 0.07431 0.27598 0.3566 0.0
C1338 C 0.07362 0.27273 0.37312 0.0
C1339 C 0.09103 0.28537 0.3841 0.0
C1340 C 0.10912 0.30052 0.37856 0.0
C1341 C 0.05501 0.25553 0.3788 0.0
C1342 C 0.04388 0.26008 0.38963 0.0
C1343 C 0.04799 0.23474 0.37321 0.0
C1344 C 0.05997 0.22904 0.36267 0.0
C1345 C 0.08054 0.23511 0.3677 0.0
C1346 C 0.09193 0.2301 0.35758 0.0
C1347 C 0.08284 0.21884 0.34247 0.0
C1348 C 0.06233 0.2125 0.33746 0.0
C1349 C 0.05089 0.21752 0.34752 0.0
H1350 H 0.09169 0.21498 0.33465 0.0
H1351 H 0.98393 0.26547 0.43449 0.0
H1352 H 0.86821 0.83117 0.40423 0.0
H1353 H 0.83853 0.83341 0.39365 0.0
H1354 H 0.79849 0.76939 0.40022 0.0
H1355 H 0.82825 0.76675 0.4101 0.0
H1356 H 0.78611 0.77708 0.37298 0.0
H1357 H 0.80318 0.80878 0.42722 0.0
H1358 H 0.82477 0.83251 0.45118 0.0
H1359 H 0.8362 0.88445 0.42525 0.0
H1360 H 0.81492 0.86103 0.40105 0.0
H1361 H 0.7106 0.82029 0.38468 0.0
H1362 H 0.73703 0.81298 0.39526 0.0
H1363 H 0.75302 0.80874 0.34663 0.0
H1364 H 0.72598 0.81513 0.33594 0.0
H1365 H 0.77562 0.83294 0.39651 0.0
H1366 H 0.77431 0.77887 0.34272 0.0
H1367 H 0.74922 0.7519 0.32174 0.0
H1368 H 0.70056 0.73892 0.35177 0.0
H1369 H 0.72538 0.76561 0.37301 0.0
C1370 C 0.85315 0.81743 0.40316 0.0
C1371 C 0.85069 0.79876 0.40806 0.0
C1372 C 0.83612 0.81882 0.3973 0.0
C1373 C 0.81617 0.80167 0.39638 0.0
C1374 C 0.81369 0.78288 0.40088 0.0
C1375 C 0.83073 0.78144 0.40666 0.0
C1376 C 0.79793 0.80338 0.39082 0.0
C1377 C 0.78382 0.7893 0.37813 0.0
C1378 C 0.79454 0.81896 0.39781 0.0
C1379 C 0.80763 0.83314 0.41225 0.0
C1380 C 0.81047 0.82526 0.42657 0.0
C1381 C 0.82262 0.83866 0.4402 0.0
C1382 C 0.83192 0.85997 0.43971 0.0
C1383 C 0.82904 0.86793 0.42559 0.0
C1384 C 0.81693 0.85461 0.41192 0.0
C1385 C 0.71957 0.81754 0.37621 0.0
C1386 C 0.7161 0.81817 0.35945 0.0
C1387 C 0.73476 0.81344 0.38229 0.0
C1388 C 0.74701 0.8101 0.37178 0.0
C1389 C 0.74353 0.81074 0.35501 0.0
C1390 C 0.72808 0.81448 0.34889 0.0
C1391 C 0.76393 0.80685 0.37844 0.0
C1392 C 0.77785 0.82069 0.39134 0.0
C1393 C 0.76671 0.79061 0.37203 0.0
C1394 C 0.75169 0.77439 0.35938 0.0
C1395 C 0.75827 0.77021 0.34487 0.0
C1396 C 0.74409 0.75498 0.33293 0.0
C1397 C 0.7233 0.74375 0.3354 0.0
C1398 C 0.71665 0.74768 0.34984 0.0
C1399 C 0.73076 0.76288 0.36183 0.0
H1400 H 0.71235 0.73197 0.32613 0.0
H1401 H 0.8413 0.87032 0.45028 0.0
H1402 H 0.20881 0.06553 0.36965 0.0
H1403 H 0.20808 0.03408 0.35886 0.0
H1404 H 0.19176 0.00891 0.40471 0.0
H1405 H 0.1927 0.04029 0.41556 0.0
H1406 H 0.2183 0.99957 0.39324 0.0
H1407 H 0.15536 0.99563 0.37192 0.0
H1408 H 0.13457 0.00781 0.35729 0.0
H1409 H 0.16249 0.0073 0.31376 0.0
H1410 H 0.18366 0.99538 0.32822 0.0
H1411 H 0.14909 0.8925 0.34122 0.0
H1412 H 0.15569 0.9258 0.35352 0.0
H1413 H 0.22105 0.94852 0.35688 0.0
H1414 H 0.21426 0.91459 0.34551 0.0
H1415 H 0.17195 0.96042 0.34332 0.0
H1416 H 0.24716 0.98945 0.38416 0.0
H1417 H 0.26562 0.97632 0.40079 0.0
H1418 H 0.20821 0.92378 0.40874 0.0
H1419 H 0.18935 0.9364 0.39197 0.0
C1420 C 0.20512 0.0533 0.37742 0.0
C1421 C 0.20077 0.05539 0.39344 0.0
C1422 C 0.20472 0.03534 0.37125 0.0
C1423 C 0.19964 0.019 0.38091 0.0
C1424 C 0.19581 0.02131 0.39704 0.0
C1425 C 0.19636 0.03928 0.40323 0.0
C1426 C 0.19736 0.99912 0.37411 0.0
C1427 C 0.2082 0.99101 0.3823 0.0
C1428 C 0.18406 0.98781 0.35993 0.0
C1429 C 0.17124 0.99483 0.35119 0.0
C1430 C 0.15716 0.99825 0.35926 0.0
C1431 C 0.1453 0.00509 0.35099 0.0
C1432 C 0.14725 0.00838 0.33462 0.0
C1433 C 0.16102 0.00478 0.32646 0.0
C1434 C 0.17295 0.99798 0.33467 0.0
C1435 C 0.16485 0.90456 0.34478 0.0
C1436 C 0.18118 0.90106 0.34243 0.0
C1437 C 0.16865 0.92363 0.35176 0.0
C1438 C 0.18889 0.93982 0.35624 0.0
C1439 C 0.20527 0.93626 0.35393 0.0
C1440 C 0.20142 0.91692 0.34732 0.0
C1441 C 0.19257 0.9605 0.36262 0.0
C1442 C 0.18211 0.9689 0.35426 0.0
C1443 C 0.20584 0.97181 0.37686 0.0
C1444 C 0.21689 0.96379 0.3867 0.0
C1445 C 0.23848 0.97505 0.38942 0.0
C1446 C 0.24899 0.96765 0.39881 0.0
C1447 C 0.23806 0.94911 0.40569 0.0
C1448 C 0.2166 0.93795 0.40321 0.0
C1449 C 0.206 0.94519 0.39372 0.0
H1450 H 0.24621 0.94344 0.41302 0.0
H1451 H 0.13805 0.01368 0.32824 0.0
H1452 H 0.50683 0.63435 0.26276 0.0
H1453 H 0.5358 0.66706 0.27501 0.0
H1454 H 0.51125 0.65557 0.32129 0.0
H1455 H 0.48275 0.62209 0.30946 0.0
H1456 H 0.52268 0.69641 0.30858 0.0
H1457 H 0.54926 0.65108 0.31978 0.0
H1458 H 0.55819 0.62451 0.31221 0.0
H1459 H 0.59915 0.66343 0.27941 0.0
H1460 H 0.59022 0.69013 0.2866 0.0
H1461 H 0.60371 0.7823 0.35588 0.0
H1462 H 0.5766 0.74762 0.34552 0.0
H1463 H 0.61274 0.74731 0.30715 0.0
H1464 H 0.64068 0.78142 0.31849 0.0
H1465 H 0.5949 0.71159 0.31559 0.0
H1466 H 0.56936 0.75643 0.30265 0.0
H1467 H 0.56026 0.78334 0.30788 0.0
H1468 H 0.51696 0.74643 0.34014 0.0
H1469 H 0.52609 0.7194 0.3354 0.0
C1470 C 0.50773 0.63839 0.27564 0.0
C1471 C 0.49234 0.62528 0.28509 0.0
C1472 C 0.52427 0.65726 0.28258 0.0
C1473 C 0.52567 0.66368 0.29904 0.0
C1474 C 0.51039 0.65087 0.30854 0.0
C1475 C 0.49402 0.63178 0.30169 0.0
C1476 C 0.54282 0.68407 0.30618 0.0
C1477 C 0.53846 0.69972 0.31037 0.0
C1478 C 0.56344 0.6885 0.30787 0.0
C1479 C 0.5689 0.67251 0.3036 0.0
C1480 C 0.56002 0.6539 0.31083 0.0
C1481 C 0.56511 0.63883 0.30664 0.0
C1482 C 0.57918 0.64225 0.2953 0.0
C1483 C 0.58823 0.66078 0.28817 0.0
C1484 C 0.58317 0.6759 0.29231 0.0
C1485 C 0.60591 0.77481 0.34526 0.0
C1486 C 0.62423 0.78471 0.33783 0.0
C1487 C 0.59028 0.75499 0.33922 0.0
C1488 C 0.59218 0.74492 0.32517 0.0
C1489 C 0.6107 0.7547 0.31792 0.0
C1490 C 0.62666 0.7743 0.32431 0.0
C1491 C 0.57491 0.72424 0.31814 0.0
C1492 C 0.57919 0.70847 0.31388 0.0
C1493 C 0.55421 0.71981 0.31601 0.0
C1494 C 0.54856 0.73597 0.31878 0.0
C1495 C 0.55799 0.75409 0.31095 0.0
C1496 C 0.55282 0.76938 0.31381 0.0
C1497 C 0.53807 0.76664 0.32433 0.0
C1498 C 0.52841 0.74856 0.332 0.0
C1499 C 0.53358 0.73324 0.32924 0.0
H1500 H 0.5341 0.77851 0.32652 0.0
H1501 H 0.58311 0.63057 0.29207 0.0
H1502 H 0.39181 0.90704 0.27572 0.0
H1503 H 0.36172 0.90576 0.28677 0.0
H1504 H 0.33291 0.83967 0.28593 0.0
H1505 H 0.36275 0.84084 0.27485 0.0
H1506 H 0.30638 0.85193 0.27342 0.0
H1507 H 0.35433 0.8692 0.32099 0.0
H1508 H 0.38753 0.89003 0.33781 0.0
H1509 H 0.37998 0.94305 0.33807 0.0
H1510 H 0.34684 0.92258 0.32104 0.0
H1511 H 0.22344 0.82854 0.31888 0.0
H1512 H 0.25514 0.83225 0.30955 0.0
H1513 H 0.28493 0.89829 0.32072 0.0
H1514 H 0.25356 0.89426 0.3314 0.0
H1515 H 0.31167 0.88796 0.32709 0.0
H1516 H 0.2625 0.87025 0.28075 0.0
H1517 H 0.2285 0.84882 0.26525 0.0
H1518 H 0.23839 0.79724 0.26172 0.0
H1519 H 0.27217 0.81815 0.27777 0.0
C1520 C 0.37902 0.89225 0.27785 0.0
C1521 C 0.37974 0.87406 0.27453 0.0
C1522 C 0.36189 0.89155 0.28424 0.0
C1523 C 0.3451 0.87262 0.28729 0.0
C1524 C 0.34568 0.85445 0.28372 0.0
C1525 C 0.36283 0.85516 0.27751 0.0
C1526 C 0.32683 0.87159 0.29414 0.0
C1527 C 0.30748 0.85968 0.28521 0.0
C1528 C 0.32834 0.88212 0.30933 0.0
C1529 C 0.34823 0.89442 0.31959 0.0
C1530 C 0.35983 0.88534 0.32451 0.0
C1531 C 0.37863 0.89708 0.33411 0.0
C1532 C 0.38589 0.91787 0.33896 0.0
C1533 C 0.37435 0.92695 0.33427 0.0
C1534 C 0.35556 0.91529 0.32466 0.0
C1535 C 0.23684 0.84382 0.31944 0.0
C1536 C 0.23609 0.86115 0.32568 0.0
C1537 C 0.25494 0.84598 0.31398 0.0
C1538 C 0.27237 0.86564 0.31384 0.0
C1539 C 0.27173 0.88295 0.32053 0.0
C1540 C 0.25381 0.88069 0.32658 0.0
C1541 C 0.291 0.86812 0.30644 0.0
C1542 C 0.31047 0.88034 0.31523 0.0
C1543 C 0.28962 0.85799 0.29101 0.0
C1544 C 0.26981 0.84574 0.28058 0.0
C1545 C 0.25742 0.85433 0.27669 0.0
C1546 C 0.23815 0.84224 0.26785 0.0
C1547 C 0.23128 0.82167 0.26248 0.0
C1548 C 0.24372 0.81317 0.2659 0.0
C1549 C 0.26292 0.82512 0.27491 0.0
H1550 H 0.21632 0.81227 0.25571 0.0
H1551 H 0.40044 0.92693 0.34639 0.0
H1552 H 0.14049 0.52704 0.32038 0.0
H1553 H 0.14407 0.49889 0.33039 0.0
H1554 H 0.15019 0.48038 0.28179 0.0
H1555 H 0.14762 0.50905 0.27182 0.0
H1556 H 0.12309 0.45863 0.32522 0.0
H1557 H 0.18317 0.46122 0.28329 0.0
H1558 H 0.21144 0.48626 0.26889 0.0
H1559 H 0.21928 0.53578 0.30263 0.0
H1560 H 0.19128 0.51102 0.31738 0.0
H1561 H 0.13593 0.37148 0.33475 0.0
H1562 H 0.12968 0.39741 0.32312 0.0
H1563 H 0.19022 0.44529 0.34342 0.0
H1564 H 0.19675 0.41943 0.3545 0.0
H1565 H 0.18324 0.45164 0.31364 0.0
H1566 H 0.14578 0.43598 0.36074 0.0
H1567 H 0.12028 0.41329 0.37829 0.0
H1568 H 0.07196 0.39476 0.33971 0.0
H1569 H 0.09723 0.41716 0.32186 0.0
C1570 C 0.14275 0.51708 0.31183 0.0
C1571 C 0.14392 0.52046 0.2953 0.0
C1572 C 0.14459 0.50085 0.31755 0.0
C1573 C 0.14766 0.48763 0.3069 0.0
C1574 C 0.14815 0.49054 0.29031 0.0
C1575 C 0.14643 0.50683 0.28459 0.0
C1576 C 0.15082 0.47113 0.31323 0.0
C1577 C 0.13627 0.45713 0.32269 0.0
C1578 C 0.16812 0.46923 0.31012 0.0
C1579 C 0.1849 0.48428 0.30128 0.0
C1580 C 0.19092 0.47746 0.28764 0.0
C1581 C 0.20691 0.4916 0.27942 0.0
C1582 C 0.21708 0.51261 0.2848 0.0
C1583 C 0.21132 0.51952 0.29843 0.0
C1584 C 0.19537 0.50544 0.30671 0.0
C1585 C 0.14792 0.38754 0.33662 0.0
C1586 C 0.16683 0.39345 0.34549 0.0
C1587 C 0.14429 0.40236 0.33008 0.0
C1588 C 0.15942 0.42337 0.3325 0.0
C1589 C 0.17833 0.42921 0.34134 0.0
C1590 C 0.182 0.41442 0.34776 0.0
C1591 C 0.15576 0.43938 0.32584 0.0
C1592 C 0.17011 0.45319 0.3162 0.0
C1593 C 0.13864 0.44147 0.3292 0.0
C1594 C 0.12342 0.42808 0.33992 0.0
C1595 C 0.12974 0.42695 0.35597 0.0
C1596 C 0.11532 0.41416 0.36597 0.0
C1597 C 0.09452 0.40255 0.3601 0.0
C1598 C 0.08808 0.40374 0.34423 0.0
C1599 C 0.10244 0.41649 0.33417 0.0
H1600 H 0.08338 0.39266 0.36787 0.0
H1601 H 0.22946 0.52353 0.27842 0.0
H1602 H 0.38507 0.52523 0.30742 0.0
H1603 H 0.35713 0.49314 0.31566 0.0
H1604 H 0.31536 0.49316 0.27762 0.0
H1605 H 0.34305 0.52541 0.26975 0.0
H1606 H 0.29879 0.48777 0.30458 0.0
H1607 H 0.33323 0.45751 0.27699 0.0
H1608 H 0.36259 0.45312 0.27112 0.0
H1609 H 0.36838 0.43931 0.32006 0.0
H1610 H 0.33921 0.44389 0.32629 0.0
H1611 H 0.21251 0.38983 0.30668 0.0
H1612 H 0.24362 0.41803 0.29813 0.0
H1613 H 0.27871 0.41799 0.3412 0.0
H1614 H 0.24747 0.38947 0.34991 0.0
H1615 H 0.29953 0.4234 0.31343 0.0
H1616 H 0.26406 0.45245 0.34045 0.0
H1617 H 0.2349 0.45722 0.34622 0.0
H1618 H 0.23111 0.47357 0.29786 0.0
H1619 H 0.25999 0.46848 0.29167 0.0
C1620 C 0.37002 0.51809 0.30063 0.0
C1621 C 0.36619 0.5278 0.28798 0.0
C1622 C 0.35403 0.49974 0.30533 0.0
C1623 C 0.33404 0.49063 0.29727 0.0
C1624 C 0.33055 0.4999 0.28414 0.0
C1625 C 0.3464 0.51829 0.27959 0.0
C1626 C 0.31637 0.47234 0.30311 0.0
C1627 C 0.29889 0.4736 0.30625 0.0
C1628 C 0.31666 0.45404 0.30588 0.0
C1629 C 0.33418 0.45126 0.30215 0.0
C1630 C 0.34087 0.4537 0.28654 0.0
C1631 C 0.35746 0.45115 0.28314 0.0
C1632 C 0.36739 0.446 0.29523 0.0
C1633 C 0.3607 0.44334 0.31072 0.0
C1634 C 0.34413 0.44589 0.31419 0.0
C1635 C 0.22682 0.39557 0.31431 0.0
C1636 C 0.2274 0.38737 0.32906 0.0
C1637 C 0.24463 0.41181 0.3094 0.0
C1638 C 0.26346 0.42032 0.31912 0.0
C1639 C 0.26433 0.41168 0.33353 0.0
C1640 C 0.24644 0.39541 0.3385 0.0
C1641 C 0.28191 0.43878 0.31448 0.0
C1642 C 0.29951 0.43759 0.31169 0.0
C1643 C 0.28174 0.45717 0.31195 0.0
C1644 C 0.26412 0.45992 0.31555 0.0
C1645 C 0.25688 0.45683 0.33097 0.0
C1646 C 0.24042 0.45963 0.33433 0.0
C1647 C 0.23119 0.46572 0.32242 0.0
C1648 C 0.23829 0.46887 0.30708 0.0
C1649 C 0.2547 0.46602 0.30364 0.0
H1650 H 0.21864 0.46813 0.32512 0.0
H1651 H 0.38022 0.44403 0.29257 0.0
H1652 H 0.47467 0.83768 0.31093 0.0
H1653 H 0.51008 0.8455 0.3169 0.0
H1654 H 0.52402 0.86753 0.2698 0.0
H1655 H 0.48827 0.85955 0.2637 0.0
H1656 H 0.53756 0.84036 0.27662 0.0
H1657 H 0.54414 0.90167 0.30246 0.0
H1658 H 0.53475 0.92273 0.31992 0.0
H1659 H 0.54204 0.89464 0.36158 0.0
H1660 H 0.55118 0.87317 0.34433 0.0
H1661 H 0.63883 0.85985 0.30105 0.0
H1662 H 0.61072 0.86498 0.29067 0.0
H1663 H 0.58652 0.85383 0.33727 0.0
H1664 H 0.61542 0.85033 0.34791 0.0
H1665 H 0.58141 0.8817 0.32695 0.0
H1666 H 0.56975 0.81675 0.29998 0.0
H1667 H 0.57799 0.79493 0.28212 0.0
H1668 H 0.5797 0.82961 0.24227 0.0
H1669 H 0.57174 0.85175 0.25994 0.0
C1670 C 0.48531 0.84434 0.30188 0.0
C1671 C 0.47869 0.84795 0.28682 0.0
C1672 C 0.50559 0.84892 0.30534 0.0
C1673 C 0.51977 0.85723 0.29384 0.0
C1674 C 0.51334 0.86118 0.27886 0.0
C1675 C 0.49299 0.85676 0.27544 0.0
C1676 C 0.54092 0.8607 0.2974 0.0
C1677 C 0.54739 0.84972 0.28745 0.0
C1678 C 0.55363 0.87276 0.3116 0.0
C1679 C 0.54824 0.88572 0.32206 0.0
C1680 C 0.5436 0.89987 0.31532 0.0
C1681 C 0.53835 0.9119 0.32519 0.0
C1682 C 0.53777 0.91 0.34184 0.0
C1683 C 0.54249 0.89609 0.34867 0.0
C1684 C 0.54774 0.88401 0.33886 0.0
C1685 C 0.6276 0.85876 0.30908 0.0
C1686 C 0.6293 0.85474 0.32529 0.0
C1687 C 0.6114 0.8615 0.30311 0.0
C1688 C 0.59607 0.85933 0.31302 0.0
C1689 C 0.59806 0.85564 0.32931 0.0
C1690 C 0.61459 0.8536 0.33541 0.0
C1691 C 0.5777 0.86048 0.30663 0.0
C1692 C 0.57178 0.87249 0.316 0.0
C1693 C 0.56548 0.84928 0.2919 0.0
C1694 C 0.57033 0.83598 0.28133 0.0
C1695 C 0.57198 0.81974 0.28743 0.0
C1696 C 0.57659 0.80733 0.27735 0.0
C1697 C 0.57934 0.81088 0.26108 0.0
C1698 C 0.57756 0.82688 0.25488 0.0
C1699 C 0.573 0.83936 0.26492 0.0
H1700 H 0.58277 0.8012 0.25325 0.0
H1701 H 0.5337 0.91933 0.34946 0.0
H1702 H 0.15808 0.64441 0.28933 0.0
H1703 H 0.15151 0.67331 0.29263 0.0
H1704 H 0.16503 0.67797 0.34454 0.0
H1705 H 0.17147 0.64921 0.3413 0.0
H1706 H 0.13258 0.68414 0.33646 0.0
H1707 H 0.20173 0.70771 0.32174 0.0
H1708 H 0.2271 0.70829 0.30402 0.0
H1709 H 0.19993 0.72499 0.26498 0.0
H1710 H 0.17419 0.72419 0.28242 0.0
H1711 H 0.17165 0.78693 0.36843 0.0
H1712 H 0.16488 0.75244 0.35923 0.0
H1713 H 0.15649 0.76324 0.3095 0.0
H1714 H 0.16372 0.79803 0.31876 0.0
H1715 H 0.18104 0.74736 0.31235 0.0
H1716 H 0.11539 0.72943 0.3284 0.0
H1717 H 0.09035 0.72949 0.34616 0.0
H1718 H 0.11008 0.70241 0.38221 0.0
H1719 H 0.13548 0.70249 0.36477 0.0
C1720 C 0.1592 0.65135 0.30144 0.0
C1721 C 0.16547 0.64472 0.31505 0.0
C1722 C 0.15557 0.66791 0.30332 0.0
C1723 C 0.15802 0.67796 0.31883 0.0
C1724 C 0.16307 0.6705 0.33246 0.0
C1725 C 0.16686 0.65414 0.33059 0.0
C1726 C 0.15699 0.6972 0.32097 0.0
C1727 C 0.14317 0.69798 0.33121 0.0
C1728 C 0.17041 0.71513 0.31376 0.0
C1729 C 0.18588 0.71561 0.3033 0.0
C1730 C 0.20106 0.71131 0.30933 0.0
C1731 C 0.21552 0.71172 0.29935 0.0
C1732 C 0.21508 0.7166 0.28337 0.0
C1733 C 0.20021 0.72115 0.27735 0.0
C1734 C 0.18568 0.72072 0.28727 0.0
C1735 C 0.16812 0.78186 0.35555 0.0
C1736 C 0.16796 0.79506 0.34429 0.0
C1737 C 0.16414 0.76209 0.3503 0.0
C1738 C 0.15985 0.75506 0.33367 0.0
C1739 C 0.15958 0.76823 0.3224 0.0
C1740 C 0.16354 0.78803 0.32768 0.0
C1741 C 0.15694 0.73448 0.32816 0.0
C1742 C 0.17008 0.73345 0.31733 0.0
C1743 C 0.14281 0.71632 0.33478 0.0
C1744 C 0.12745 0.71609 0.34529 0.0
C1745 C 0.11449 0.72362 0.34016 0.0
C1746 C 0.10022 0.72361 0.35017 0.0
C1747 C 0.09865 0.71599 0.36531 0.0
C1748 C 0.11132 0.70832 0.37047 0.0
C1749 C 0.12564 0.70831 0.36051 0.0
H1750 H 0.08759 0.71601 0.37305 0.0
H1751 H 0.2263 0.71692 0.27566 0.0
H1752 H 0.85677 0.05899 0.38448 0.0
H1753 H 0.82217 0.02861 0.37836 0.0
H1754 H 0.84646 0.98904 0.3895 0.0
H1755 H 0.88066 0.01906 0.39627 0.0
H1756 H 0.82409 0.98274 0.35609 0.0
H1757 H 0.81955 0.99077 0.41426 0.0
H1758 H 0.81973 0.01004 0.43942 0.0
H1759 H 0.76936 0.015 0.41768 0.0
H1760 H 0.76909 0.996 0.39229 0.0
H1761 H 0.74726 0.88091 0.34938 0.0
H1762 H 0.77585 0.91459 0.36028 0.0
H1763 H 0.73455 0.93872 0.36207 0.0
H1764 H 0.7055 0.9044 0.35179 0.0
H1765 H 0.7632 0.95622 0.38721 0.0
H1766 H 0.76482 0.94695 0.33034 0.0
H1767 H 0.76392 0.92917 0.3041 0.0
H1768 H 0.8189 0.92922 0.3212 0.0
H1769 H 0.81997 0.94674 0.34763 0.0
C1770 C 0.85465 0.04386 0.38603 0.0
C1771 C 0.87162 0.04149 0.3906 0.0
C1772 C 0.83488 0.02653 0.38247 0.0
C1773 C 0.83184 0.00661 0.38337 0.0
C1774 C 0.84853 0.00429 0.38863 0.0
C1775 C 0.86811 0.0215 0.39237 0.0
C1776 C 0.81187 0.98798 0.37746 0.0
C1777 C 0.8108 0.97685 0.36292 0.0
C1778 C 0.79432 0.98084 0.38605 0.0
C1779 C 0.79449 0.99222 0.40131 0.0
C1780 C 0.80868 0.99618 0.41478 0.0
C1781 C 0.80875 0.007 0.4291 0.0
C1782 C 0.79462 0.01381 0.43013 0.0
C1783 C 0.78033 0.00975 0.41685 0.0
C1784 C 0.7802 0.99895 0.4025 0.0
C1785 C 0.74422 0.89334 0.35224 0.0
C1786 C 0.72426 0.89018 0.34952 0.0
C1787 C 0.7606 0.91264 0.3584 0.0
C1788 C 0.75753 0.92944 0.36152 0.0
C1789 C 0.73737 0.92607 0.3596 0.0
C1790 C 0.7208 0.90651 0.35371 0.0
C1791 C 0.77563 0.95048 0.36607 0.0
C1792 C 0.77636 0.96215 0.38024 0.0
C1793 C 0.79285 0.95844 0.35695 0.0
C1794 C 0.7924 0.94806 0.34101 0.0
C1795 C 0.77665 0.94307 0.32854 0.0
C1796 C 0.77612 0.93304 0.31363 0.0
C1797 C 0.79133 0.92804 0.31099 0.0
C1798 C 0.80713 0.9331 0.32326 0.0
C1799 C 0.80772 0.94311 0.3382 0.0
H1800 H 0.79088 0.92027 0.29944 0.0
H1801 H 0.7947 0.02218 0.44123 0.0
H1802 H 0.99755 0.84401 0.42021 0.0
H1803 H 0.02537 0.83963 0.41072 0.0
H1804 H 0.98439 0.79843 0.36984 0.0
H1805 H 0.95624 0.80238 0.37967 0.0
H1806 H 0.01275 0.78723 0.38045 0.0
H1807 H 0.01384 0.84816 0.36538 0.0
H1808 H 0.01308 0.88047 0.36998 0.0
H1809 H 0.06884 0.90679 0.40216 0.0
H1810 H 0.06973 0.87448 0.398 0.0
H1811 H 0.09903 0.81111 0.33308 0.0
H1812 H 0.06627 0.80515 0.34224 0.0
H1813 H 0.09859 0.84369 0.38675 0.0
H1814 H 0.13108 0.84967 0.37787 0.0
H1815 H 0.07259 0.85462 0.37159 0.0
H1816 H 0.07052 0.79259 0.38691 0.0
H1817 H 0.07101 0.76021 0.3817 0.0
H1818 H 0.01711 0.73611 0.34763 0.0
H1819 H 0.01648 0.7685 0.35247 0.0
C1820 C 0.99435 0.83354 0.40947 0.0
C1821 C 0.97482 0.82356 0.40064 0.0
C1822 C 0.01026 0.83113 0.404 0.0
C1823 C 0.00712 0.81908 0.38935 0.0
C1824 C 0.9872 0.80787 0.38113 0.0
C1825 C 0.97114 0.81008 0.38675 0.0
C1826 C 0.02508 0.82008 0.38195 0.0
C1827 C 0.02573 0.80192 0.37831 0.0
C1828 C 0.04207 0.83925 0.37913 0.0
C1829 C 0.04176 0.85883 0.38148 0.0
C1830 C 0.02587 0.86079 0.37352 0.0
C1831 C 0.02542 0.87911 0.37605 0.0
C1832 C 0.04088 0.89566 0.38638 0.0
C1833 C 0.05686 0.89395 0.39418 0.0
C1834 C 0.05736 0.87564 0.39173 0.0
C1835 C 0.09913 0.81815 0.34488 0.0
C1836 C 0.11777 0.83094 0.35467 0.0
C1837 C 0.08038 0.81468 0.35012 0.0
C1838 C 0.07998 0.82399 0.3652 0.0
C1839 C 0.09851 0.83639 0.37506 0.0
C1840 C 0.11713 0.83975 0.36993 0.0
C1841 C 0.06057 0.82187 0.37053 0.0
C1842 C 0.0596 0.83989 0.37367 0.0
C1843 C 0.04333 0.80259 0.37272 0.0
C1844 C 0.0436 0.78306 0.36991 0.0
C1845 C 0.05888 0.78046 0.3782 0.0
C1846 C 0.05916 0.76209 0.37534 0.0
C1847 C 0.04414 0.74613 0.3643 0.0
C1848 C 0.02876 0.74849 0.35615 0.0
C1849 C 0.02843 0.76685 0.35896 0.0
H1850 H 0.0444 0.73193 0.3621 0.0
H1851 H 0.0405 0.90983 0.38832 0.0
H1852 H 0.1636 0.14662 0.35026 0.0
H1853 H 0.1692 0.18113 0.34763 0.0
H1854 H 0.18825 0.19743 0.39901 0.0
H1855 H 0.1822 0.16247 0.4018 0.0
H1856 H 0.16044 0.20868 0.38913 0.0
H1857 H 0.22356 0.21793 0.37187 0.0
H1858 H 0.24546 0.20914 0.35627 0.0
H1859 H 0.21627 0.21325 0.31163 0.0
H1860 H 0.19399 0.22178 0.32693 0.0
H1861 H 0.20255 0.31555 0.35284 0.0
H1862 H 0.20803 0.28882 0.36402 0.0
H1863 H 0.14361 0.24434 0.35212 0.0
H1864 H 0.13809 0.27081 0.34099 0.0
H1865 H 0.20105 0.25238 0.34754 0.0
H1866 H 0.12798 0.21082 0.38178 0.0
H1867 H 0.1061 0.21979 0.39722 0.0
H1868 H 0.15641 0.28166 0.40868 0.0
H1869 H 0.17881 0.27299 0.39372 0.0
C1870 C 0.16909 0.15756 0.36101 0.0
C1871 C 0.17234 0.15178 0.37626 0.0
C1872 C 0.17244 0.17737 0.35946 0.0
C1873 C 0.17929 0.19196 0.3731 0.0
C1874 C 0.18301 0.18643 0.38832 0.0
C1875 C 0.17971 0.16653 0.38988 0.0
C1876 C 0.18146 0.21254 0.37136 0.0
C1877 C 0.16949 0.21836 0.38017 0.0
C1878 C 0.1935 0.22534 0.35982 0.0
C1879 C 0.20704 0.22042 0.35057 0.0
C1880 C 0.22173 0.21685 0.35872 0.0
C1881 C 0.23423 0.21193 0.34993 0.0
C1882 C 0.23225 0.21062 0.33297 0.0
C1883 C 0.2178 0.21428 0.32476 0.0
C1884 C 0.20526 0.2192 0.3335 0.0
C1885 C 0.18958 0.30009 0.35275 0.0
C1886 C 0.16993 0.2952 0.34601 0.0
C1887 C 0.19272 0.28487 0.3591 0.0
C1888 C 0.17619 0.26465 0.35903 0.0
C1889 C 0.15652 0.25989 0.35251 0.0
C1890 C 0.15343 0.275 0.34604 0.0
C1891 C 0.17945 0.24807 0.36486 0.0
C1892 C 0.19235 0.24295 0.35676 0.0
C1893 C 0.1683 0.23598 0.37707 0.0
C1894 C 0.15507 0.24124 0.3865 0.0
C1895 C 0.13447 0.22629 0.38773 0.0
C1896 C 0.12197 0.23133 0.39642 0.0
C1897 C 0.12988 0.25129 0.40395 0.0
C1898 C 0.15033 0.26622 0.40287 0.0
C1899 C 0.16293 0.26124 0.39428 0.0
H1900 H 0.12016 0.25519 0.41061 0.0
H1901 H 0.24193 0.20679 0.32619 0.0
H1902 H 0.6238 0.51779 0.74335 0.0
H1903 H 0.65348 0.54745 0.73411 0.0
H1904 H 0.67993 0.50947 0.72264 0.0
H1905 H 0.6506 0.47994 0.73221 0.0
H1906 H 0.70854 0.54593 0.73787 0.0
H1907 H 0.65666 0.52231 0.69278 0.0
H1908 H 0.62255 0.51214 0.679 0.0
H1909 H 0.63222 0.57264 0.69229 0.0
H1910 H 0.66629 0.58309 0.70634 0.0
H1911 H 0.76208 0.61677 0.67068 0.0
H1912 H 0.73106 0.589 0.68015 0.0
H1913 H 0.75253 0.6176 0.72939 0.0
H1914 H 0.78386 0.64493 0.72006 0.0
H1915 H 0.6999 0.58512 0.69491 0.0
H1916 H 0.73664 0.57672 0.75604 0.0
H1917 H 0.7705 0.58488 0.76895 0.0
H1918 H 0.79243 0.58726 0.72211 0.0
H1919 H 0.75829 0.5776 0.70883 0.0
C1920 C 0.636 0.51579 0.73896 0.0
C1921 C 0.63474 0.49643 0.73846 0.0
C1922 C 0.65289 0.53272 0.73356 0.0
C1923 C 0.66889 0.53068 0.72752 0.0
C1924 C 0.66778 0.51145 0.7272 0.0
C1925 C 0.65089 0.49451 0.73254 0.0
C1926 C 0.68681 0.54855 0.72158 0.0
C1927 C 0.7067 0.5546 0.72854 0.0
C1928 C 0.6844 0.55964 0.70921 0.0
C1929 C 0.66394 0.55341 0.70075 0.0
C1930 C 0.65144 0.5334 0.69287 0.0
C1931 C 0.63213 0.52759 0.685 0.0
C1932 C 0.6252 0.54172 0.68481 0.0
C1933 C 0.63759 0.5617 0.69246 0.0
C1934 C 0.65692 0.56758 0.70038 0.0
C1935 C 0.76006 0.61726 0.68349 0.0
C1936 C 0.77553 0.6329 0.69464 0.0
C1937 C 0.74231 0.60138 0.6889 0.0
C1938 C 0.73959 0.60092 0.70555 0.0
C1939 C 0.75445 0.61729 0.71655 0.0
C1940 C 0.77235 0.63294 0.71118 0.0
C1941 C 0.72176 0.58284 0.71139 0.0
C1942 C 0.70185 0.57666 0.70437 0.0
C1943 C 0.72425 0.57152 0.72363 0.0
C1944 C 0.74483 0.57667 0.7314 0.0
C1945 C 0.74856 0.57868 0.74844 0.0
C1946 C 0.76779 0.58342 0.75584 0.0
C1947 C 0.78355 0.58642 0.74635 0.0
C1948 C 0.78013 0.58472 0.72944 0.0
C1949 C 0.76077 0.57945 0.72196 0.0
H1950 H 0.79848 0.59025 0.7521 0.0
H1951 H 0.61024 0.53719 0.6787 0.0
H1952 H 0.5029 0.1078 0.73837 0.0
H1953 H 0.47353 0.11061 0.72712 0.0
H1954 H 0.5106 0.1769 0.73426 0.0
H1955 H 0.54008 0.17419 0.74517 0.0
H1956 H 0.46984 0.15802 0.74692 0.0
H1957 H 0.50238 0.15804 0.69834 0.0
H1958 H 0.51653 0.14376 0.67873 0.0
H1959 H 0.45783 0.08819 0.66935 0.0
H1960 H 0.44341 0.10203 0.6891 0.0
H1961 H 0.40401 0.18685 0.70712 0.0
H1962 H 0.43283 0.18295 0.71725 0.0
H1963 H 0.40278 0.12118 0.69289 0.0
H1964 H 0.37453 0.12569 0.68177 0.0
H1965 H 0.43986 0.13658 0.68941 0.0
H1966 H 0.40622 0.1345 0.73681 0.0
H1967 H 0.3911 0.14557 0.75795 0.0
H1968 H 0.44925 0.20077 0.77126 0.0
H1969 H 0.46468 0.1902 0.75004 0.0
C1970 C 0.50477 0.12294 0.73742 0.0
C1971 C 0.52377 0.14077 0.74254 0.0
C1972 C 0.48803 0.12453 0.731 0.0
C1973 C 0.48993 0.14397 0.72985 0.0
C1974 C 0.50885 0.16177 0.73503 0.0
C1975 C 0.52568 0.1602 0.74115 0.0
C1976 C 0.47207 0.14577 0.72355 0.0
C1977 C 0.46336 0.15358 0.7343 0.0
C1978 C 0.46325 0.13925 0.70726 0.0
C1979 C 0.47188 0.13098 0.69533 0.0
C1980 C 0.49254 0.14269 0.69222 0.0
C1981 C 0.5006 0.1347 0.68105 0.0
C1982 C 0.4881 0.11506 0.67283 0.0
C1983 C 0.4675 0.10339 0.67574 0.0
C1984 C 0.45937 0.11131 0.68691 0.0
C1985 C 0.40352 0.17239 0.70397 0.0
C1986 C 0.38695 0.15649 0.69374 0.0
C1987 C 0.41997 0.1701 0.70989 0.0
C1988 C 0.4199 0.15154 0.70625 0.0
C1989 C 0.4033 0.13565 0.69597 0.0
C1990 C 0.3871 0.13818 0.68964 0.0
C1991 C 0.43736 0.14895 0.71277 0.0
C1992 C 0.4461 0.14098 0.70207 0.0
C1993 C 0.44594 0.15493 0.72926 0.0
C1994 C 0.43657 0.16162 0.74174 0.0
C1995 C 0.41574 0.1491 0.74413 0.0
C1996 C 0.40713 0.15527 0.75615 0.0
C1997 C 0.41922 0.17386 0.76593 0.0
C1998 C 0.43993 0.18636 0.76369 0.0
C1999 C 0.44861 0.18029 0.75166 0.0
H2000 H 0.41258 0.17853 0.7753 0.0
H2001 H 0.49436 0.1089 0.66419 0.0
H2002 H 0.84478 0.37205 0.71315 0.0
H2003 H 0.84216 0.33947 0.7037 0.0
H2004 H 0.90565 0.36332 0.72162 0.0
H2005 H 0.90868 0.39648 0.73057 0.0
H2006 H 0.89661 0.34136 0.69247 0.0
H2007 H 0.86755 0.33053 0.7428 0.0
H2008 H 0.84532 0.33108 0.7632 0.0
H2009 H 0.79163 0.29021 0.73063 0.0
H2010 H 0.81355 0.28967 0.70992 0.0
H2011 H 0.88265 0.23894 0.68529 0.0
H2012 H 0.89046 0.2734 0.69629 0.0
H2013 H 0.82967 0.25947 0.67781 0.0
H2014 H 0.82181 0.2251 0.66688 0.0
H2015 H 0.8402 0.27679 0.70956 0.0
H2016 H 0.87056 0.28999 0.65864 0.0
H2017 H 0.89356 0.28948 0.63893 0.0
H2018 H 0.94591 0.32572 0.67402 0.0
H2019 H 0.92317 0.3262 0.69403 0.0
C2020 C 0.85834 0.37058 0.71485 0.0
C2021 C 0.87697 0.38696 0.72261 0.0
C2022 C 0.85673 0.3518 0.70962 0.0
C2023 C 0.87361 0.34881 0.7122 0.0
C2024 C 0.89239 0.36524 0.71959 0.0
C2025 C 0.89405 0.38413 0.7248 0.0
C2026 C 0.87139 0.32841 0.70725 0.0
C2027 C 0.8845 0.32727 0.69643 0.0
C2028 C 0.85549 0.30997 0.71231 0.0
C2029 C 0.84222 0.3102 0.72475 0.0
C2030 C 0.85101 0.32178 0.73993 0.0
C2031 C 0.83846 0.32208 0.75156 0.0
C2032 C 0.81708 0.31072 0.7482 0.0
C2033 C 0.8082 0.29902 0.73321 0.0
C2034 C 0.82068 0.29869 0.72152 0.0
C2035 C 0.87101 0.2433 0.68356 0.0
C2036 C 0.85163 0.2294 0.67524 0.0
C2037 C 0.8755 0.26297 0.68979 0.0
C2038 C 0.86067 0.26903 0.6878 0.0
C2039 C 0.84132 0.25511 0.6795 0.0
C2040 C 0.83688 0.23552 0.6732 0.0
C2041 C 0.86507 0.28973 0.69449 0.0
C2042 C 0.8524 0.29091 0.70571 0.0
C2043 C 0.88148 0.30816 0.68992 0.0
C2044 C 0.89515 0.30793 0.67788 0.0
C2045 C 0.88696 0.2977 0.6622 0.0
C2046 C 0.89995 0.29745 0.65096 0.0
C2047 C 0.92118 0.30751 0.65523 0.0
C2048 C 0.92946 0.3179 0.67074 0.0
C2049 C 0.91653 0.31818 0.68202 0.0
H2050 H 0.93121 0.3073 0.64652 0.0
H2051 H 0.80739 0.31096 0.75722 0.0
H2052 H 0.18613 0.94715 0.61928 0.0
H2053 H 0.21501 0.9807 0.63023 0.0
H2054 H 0.17269 1.00013 0.64456 0.0
H2055 H 0.1439 0.96744 0.63248 0.0
H2056 H 0.20058 0.02916 0.63148 0.0
H2057 H 0.20233 0.98698 0.67218 0.0
H2058 H 0.20394 0.95776 0.68278 0.0
H2059 H 0.26244 0.97822 0.6645 0.0
H2060 H 0.26105 0.00744 0.6536 0.0
H2061 H 0.26786 0.11817 0.68426 0.0
H2062 H 0.24137 0.08313 0.67374 0.0
H2063 H 0.2875 0.07254 0.65431 0.0
H2064 H 0.31422 0.10762 0.66515 0.0
H2065 H 0.25942 0.03919 0.66895 0.0
H2066 H 0.25721 0.08375 0.63027 0.0
H2067 H 0.25436 0.1131 0.62161 0.0
H2068 H 0.19441 0.08761 0.63821 0.0
H2069 H 0.19714 0.05838 0.64746 0.0
C2070 C 0.18291 0.95858 0.62465 0.0
C2071 C 0.1625 0.95437 0.62493 0.0
C2072 C 0.19952 0.97774 0.63116 0.0
C2073 C 0.19615 0.99301 0.63845 0.0
C2074 C 0.1758 0.98868 0.63904 0.0
C2075 C 0.15924 0.96973 0.6323 0.0
C2076 C 0.21364 0.01386 0.64478 0.0
C2077 C 0.21326 0.03126 0.63986 0.0
C2078 C 0.2306 0.0168 0.65537 0.0
C2079 C 0.23148 0.99926 0.66192 0.0
C2080 C 0.21546 0.98516 0.67031 0.0
C2081 C 0.21635 0.96861 0.67639 0.0
C2082 C 0.23325 0.9661 0.67427 0.0
C2083 C 0.24934 0.98017 0.66611 0.0
C2084 C 0.24852 0.99673 0.65999 0.0
C2085 C 0.27239 0.10837 0.67778 0.0
C2086 C 0.2931 0.11569 0.6754 0.0
C2087 C 0.25721 0.08835 0.67173 0.0
C2088 C 0.26237 0.07525 0.66303 0.0
C2089 C 0.28313 0.08237 0.66093 0.0
C2090 C 0.29838 0.10245 0.66703 0.0
C2091 C 0.24598 0.05431 0.65592 0.0
C2092 C 0.24668 0.03696 0.66058 0.0
C2093 C 0.22907 0.05136 0.64532 0.0
C2094 C 0.22745 0.06893 0.63966 0.0
C2095 C 0.24349 0.08447 0.6322 0.0
C2096 C 0.24188 0.1011 0.62717 0.0
C2097 C 0.22419 0.10219 0.62931 0.0
C2098 C 0.2081 0.08672 0.63656 0.0
C2099 C 0.20968 0.07015 0.64172 0.0
H2100 H 0.22287 0.11497 0.62534 0.0
H2101 H 0.23391 0.95328 0.67899 0.0
H2102 H 0.05849 0.24007 0.60696 0.0
H2103 H 0.0287 0.2385 0.61876 0.0
H2104 H 1.00108 0.1726 0.61874 0.0
H2105 H 0.03061 0.17404 0.60685 0.0
H2106 H 0.97336 0.18358 0.60736 0.0
H2107 H 0.02425 0.20366 0.65334 0.0
H2108 H 0.05815 0.22561 0.66897 0.0
H2109 H 0.04896 0.27762 0.66908 0.0
H2110 H 0.0151 0.25602 0.65325 0.0
H2111 H 0.89393 0.15921 0.65652 0.0
H2112 H 0.92545 0.16406 0.64604 0.0
H2113 H 0.95255 0.23007 0.65509 0.0
H2114 H 0.92136 0.22504 0.66681 0.0
H2115 H 0.98105 0.22132 0.66082 0.0
H2116 H 0.92912 0.20081 0.61611 0.0
H2117 H 0.89441 0.17825 0.6021 0.0
H2118 H 0.90539 0.12736 0.59917 0.0
H2119 H 0.94 0.14949 0.61361 0.0
C2120 C 0.046 0.22525 0.60939 0.0
C2121 C 0.04699 0.2072 0.60607 0.0
C2122 C 0.02905 0.22438 0.61623 0.0
C2123 C 0.01271 0.20545 0.61977 0.0
C2124 C 0.01351 0.18739 0.61616 0.0
C2125 C 0.03048 0.18826 0.60947 0.0
C2126 C 0.99476 0.20429 0.62729 0.0
C2127 C 0.97503 0.19172 0.6191 0.0
C2128 C 0.99693 0.21531 0.64242 0.0
C2129 C 0.01725 0.22829 0.65195 0.0
C2130 C 0.02954 0.21982 0.65657 0.0
C2131 C 0.04873 0.23219 0.66549 0.0
C2132 C 0.05573 0.25301 0.66997 0.0
C2133 C 0.04353 0.2615 0.66557 0.0
C2134 C 0.02434 0.2492 0.65664 0.0
C2135 C 0.9067 0.17474 0.65636 0.0
C2136 C 0.9052 0.19177 0.66227 0.0
C2137 C 0.92468 0.17754 0.65026 0.0
C2138 C 0.94124 0.19748 0.64917 0.0
C2139 C 0.93998 0.21453 0.65561 0.0
C2140 C 0.92217 0.21168 0.66227 0.0
C2141 C 0.95952 0.2004 0.64099 0.0
C2142 C 0.97933 0.21333 0.649 0.0
C2143 C 0.95745 0.18981 0.62561 0.0
C2144 C 0.93714 0.17681 0.616 0.0
C2145 C 0.92416 0.18482 0.61243 0.0
C2146 C 0.90448 0.17209 0.6044 0.0
C2147 C 0.89775 0.15141 0.59957 0.0
C2148 C 0.91066 0.14341 0.60282 0.0
C2149 C 0.93032 0.15604 0.61094 0.0
H2150 H 0.8825 0.14155 0.59336 0.0
H2151 H 0.07059 0.26256 0.67688 0.0
H2152 H 0.84616 0.86881 0.63482 0.0
H2153 H 0.84727 0.8391 0.64398 0.0
H2154 H 0.78338 0.79961 0.62603 0.0
H2155 H 0.78193 0.82955 0.6173 0.0
H2156 H 0.7915 0.7898 0.65516 0.0
H2157 H 0.82067 0.79985 0.60493 0.0
H2158 H 0.84344 0.81901 0.58446 0.0
H2159 H 0.89641 0.83374 0.61715 0.0
H2160 H 0.87397 0.81492 0.63793 0.0
H2161 H 0.80162 0.70073 0.66611 0.0
H2162 H 0.79512 0.72568 0.6529 0.0
H2163 H 0.85636 0.77437 0.67072 0.0
H2164 H 0.86293 0.74957 0.68381 0.0
H2165 H 0.84613 0.77611 0.6386 0.0
H2166 H 0.81587 0.7683 0.68961 0.0
H2167 H 0.79245 0.74846 0.70952 0.0
H2168 H 0.7405 0.72827 0.67405 0.0
H2169 H 0.76366 0.74778 0.65385 0.0
C2170 C 0.83222 0.85388 0.63302 0.0
C2171 C 0.81394 0.8516 0.62533 0.0
C2172 C 0.83296 0.83684 0.63809 0.0
C2173 C 0.8155 0.81705 0.63544 0.0
C2174 C 0.79708 0.81471 0.62809 0.0
C2175 C 0.79631 0.83181 0.62302 0.0
C2176 C 0.81668 0.79893 0.64044 0.0
C2177 C 0.8032 0.78658 0.65129 0.0
C2178 C 0.83203 0.79476 0.6355 0.0
C2179 C 0.84562 0.8061 0.62304 0.0
C2180 C 0.83718 0.80731 0.60781 0.0
C2181 C 0.85003 0.81809 0.59614 0.0
C2182 C 0.87136 0.82762 0.59952 0.0
C2183 C 0.87988 0.82636 0.61456 0.0
C2184 C 0.8671 0.81562 0.62628 0.0
C2185 C 0.8137 0.71674 0.6671 0.0
C2186 C 0.83275 0.72326 0.67602 0.0
C2187 C 0.80995 0.73097 0.65962 0.0
C2188 C 0.82521 0.75191 0.66093 0.0
C2189 C 0.84437 0.7583 0.66956 0.0
C2190 C 0.84806 0.74414 0.67709 0.0
C2191 C 0.82133 0.7674 0.65362 0.0
C2192 C 0.83428 0.77922 0.6423 0.0
C2193 C 0.80541 0.77094 0.65802 0.0
C2194 C 0.7915 0.75929 0.67017 0.0
C2195 C 0.79946 0.75948 0.68602 0.0
C2196 C 0.78624 0.74833 0.69736 0.0
C2197 C 0.76501 0.73706 0.69304 0.0
C2198 C 0.75695 0.73697 0.67737 0.0
C2199 C 0.77012 0.74808 0.66598 0.0
H2200 H 0.75479 0.72843 0.70184 0.0
H2201 H 0.88129 0.83596 0.59046 0.0
H2202 H 0.0114 0.8585 0.61508 0.0
H2203 H 0.98377 0.82557 0.62164 0.0
H2204 H 0.02846 0.81156 0.64312 0.0
H2205 H 0.05632 0.84521 0.63729 0.0
H2206 H 0.96966 0.7868 0.61535 0.0
H2207 H 0.01025 0.78509 0.67592 0.0
H2208 H 0.03818 0.80904 0.69682 0.0
H2209 H 0.0279 0.85821 0.68466 0.0
H2210 H 0.99978 0.8345 0.66385 0.0
H2211 H 0.89524 0.69668 0.647 0.0
H2212 H 0.92793 0.72241 0.63803 0.0
H2213 H 0.93367 0.76681 0.67651 0.0
H2214 H 0.90202 0.74047 0.68626 0.0
H2215 H 0.96907 0.77403 0.67341 0.0
H2216 H 0.91318 0.76151 0.63334 0.0
H2217 H 0.88295 0.73868 0.61383 0.0
H2218 H 0.92012 0.72261 0.58607 0.0
H2219 H 0.95048 0.74505 0.60558 0.0
C2220 C 0.0154 0.8484 0.62115 0.0
C2221 C 0.0361 0.85472 0.62598 0.0
C2222 C 0.99954 0.82943 0.62477 0.0
C2223 C 0.00391 0.81616 0.63321 0.0
C2224 C 0.02462 0.82169 0.63693 0.0
C2225 C 0.04058 0.84085 0.63342 0.0
C2226 C 0.98671 0.79746 0.63905 0.0
C2227 C 0.9696 0.78395 0.62803 0.0
C2228 C 0.98638 0.79374 0.65563 0.0
C2229 C 1.00312 0.80808 0.66821 0.0
C2230 C 0.01395 0.801 0.67774 0.0
C2231 C 0.0298 0.81453 0.68957 0.0
C2232 C 0.03487 0.83515 0.69202 0.0
C2233 C 0.02402 0.84226 0.68271 0.0
C2234 C 0.00814 0.82879 0.67089 0.0
C2235 C 0.90373 0.71188 0.65362 0.0
C2236 C 0.89623 0.71669 0.66729 0.0
C2237 C 0.92232 0.72667 0.64842 0.0
C2238 C 0.93316 0.74689 0.65626 0.0
C2239 C 0.92575 0.75143 0.67018 0.0
C2240 C 0.90762 0.73641 0.67575 0.0
C2241 C 0.95172 0.76358 0.64978 0.0
C2242 C 0.96915 0.7767 0.66068 0.0
C2243 C 0.95203 0.76735 0.63318 0.0
C2244 C 0.93403 0.75477 0.621 0.0
C2245 C 0.91489 0.75311 0.62307 0.0
C2246 C 0.89773 0.74019 0.61203 0.0
C2247 C 0.8996 0.72912 0.59877 0.0
C2248 C 0.91869 0.73114 0.59639 0.0
C2249 C 0.93587 0.74394 0.60742 0.0
H2250 H 0.88629 0.71893 0.59034 0.0
H2251 H 0.04715 0.8456 0.70117 0.0
H2252 H 0.14204 0.16968 0.64147 0.0
H2253 H 0.17732 0.17756 0.6479 0.0
H2254 H 0.19394 0.20636 0.60345 0.0
H2255 H 0.15818 0.19803 0.59674 0.0
H2256 H 0.20858 0.18053 0.6071 0.0
H2257 H 0.21191 0.23584 0.63981 0.0
H2258 H 0.20084 0.25339 0.65936 0.0
H2259 H 0.20489 0.21781 0.69664 0.0
H2260 H 0.21569 0.1998 0.67727 0.0
H2261 H 0.30739 0.19437 0.63482 0.0
H2262 H 0.28054 0.20142 0.62447 0.0
H2263 H 0.25039 0.18154 0.66802 0.0
H2264 H 0.27818 0.17643 0.67886 0.0
H2265 H 0.24723 0.21151 0.66135 0.0
H2266 H 0.23749 0.15172 0.6254 0.0
H2267 H 0.24771 0.13458 0.60459 0.0
H2268 H 0.2567 0.1807 0.57272 0.0
H2269 H 0.24645 0.19804 0.59325 0.0
C2270 C 0.1532 0.1778 0.63308 0.0
C2271 C 0.14728 0.18311 0.61854 0.0
C2272 C 0.17346 0.18247 0.63684 0.0
C2273 C 0.18841 0.19274 0.62624 0.0
C2274 C 0.1827 0.1985 0.61184 0.0
C2275 C 0.16232 0.19386 0.60808 0.0
C2276 C 0.20954 0.19619 0.62998 0.0
C2277 C 0.21724 0.18764 0.61886 0.0
C2278 C 0.22093 0.20554 0.64527 0.0
C2279 C 0.21454 0.2164 0.65704 0.0
C2280 C 0.21032 0.23165 0.65215 0.0
C2281 C 0.20411 0.2417 0.66321 0.0
C2282 C 0.20214 0.2367 0.67923 0.0
C2283 C 0.20642 0.22167 0.68423 0.0
C2284 C 0.21263 0.21156 0.67322 0.0
C2285 C 0.29505 0.19169 0.64216 0.0
C2286 C 0.29481 0.18493 0.65763 0.0
C2287 C 0.27956 0.19551 0.63618 0.0
C2288 C 0.26299 0.19162 0.64524 0.0
C2289 C 0.26292 0.18481 0.66073 0.0
C2290 C 0.27878 0.1818 0.66694 0.0
C2291 C 0.24559 0.19446 0.63893 0.0
C2292 C 0.23871 0.2045 0.64953 0.0
C2293 C 0.23505 0.18658 0.6231 0.0
C2294 C 0.24138 0.17622 0.6109 0.0
C2295 C 0.24171 0.15819 0.61397 0.0
C2296 C 0.24751 0.14848 0.60225 0.0
C2297 C 0.25294 0.15661 0.58743 0.0
C2298 C 0.25258 0.17448 0.58425 0.0
C2299 C 0.2467 0.18421 0.59589 0.0
H2300 H 0.25719 0.14894 0.57833 0.0
H2301 H 0.19733 0.2445 0.68777 0.0
H2302 H 0.81082 0.95957 0.64585 0.0
H2303 H 0.80406 0.98809 0.6512 0.0
H2304 H 0.86624 0.03167 0.64284 0.0
H2305 H 0.87295 0.00348 0.63699 0.0
H2306 H 0.84097 0.02818 0.67781 0.0
H2307 H 0.85039 0.04089 0.61882 0.0
H2308 H 0.83949 0.02796 0.58982 0.0
H2309 H 0.77706 0.00972 0.59735 0.0
H2310 H 0.78762 0.02234 0.62646 0.0
H2311 H 0.87373 0.13245 0.68896 0.0
H2312 H 0.86761 0.09845 0.67929 0.0
H2313 H 0.80561 0.08044 0.6607 0.0
H2314 H 0.81192 0.11497 0.67012 0.0
H2315 H 0.82242 0.06625 0.63959 0.0
H2316 H 0.81441 0.063 0.69581 0.0
H2317 H 0.823 0.07448 0.72512 0.0
H2318 H 0.87851 0.07173 0.72436 0.0
H2319 H 0.87042 0.06053 0.69499 0.0
C2320 C 0.82286 0.97519 0.6447 0.0
C2321 C 0.8425 0.97927 0.64116 0.0
C2322 C 0.81898 0.99143 0.64781 0.0
C2323 C 0.83463 0.01192 0.6473 0.0
C2324 C 0.85392 0.01594 0.64313 0.0
C2325 C 0.85777 0.99981 0.63995 0.0
C2326 C 0.83196 0.02939 0.65296 0.0
C2327 C 0.8369 0.03654 0.6695 0.0
C2328 C 0.82598 0.03978 0.64219 0.0
C2329 C 0.81972 0.03225 0.62478 0.0
C2330 C 0.83431 0.03391 0.61431 0.0
C2331 C 0.82821 0.0267 0.59786 0.0
C2332 C 0.80758 0.01795 0.59176 0.0
C2333 C 0.79302 0.01645 0.6021 0.0
C2334 C 0.79905 0.02362 0.61856 0.0
C2335 C 0.85876 0.12125 0.68286 0.0
C2336 C 0.84322 0.12625 0.68045 0.0
C2337 C 0.85525 0.10177 0.67737 0.0
C2338 C 0.83599 0.08668 0.66958 0.0
C2339 C 0.82053 0.09177 0.66679 0.0
C2340 C 0.82412 0.11144 0.67221 0.0
C2341 C 0.83237 0.06573 0.66445 0.0
C2342 C 0.82617 0.05781 0.64804 0.0
C2343 C 0.83697 0.05445 0.67544 0.0
C2344 C 0.84185 0.06101 0.69316 0.0
C2345 C 0.82851 0.06495 0.70187 0.0
C2346 C 0.83329 0.0714 0.7185 0.0
C2347 C 0.8513 0.07386 0.7266 0.0
C2348 C 0.86456 0.06982 0.71808 0.0
C2349 C 0.85987 0.06339 0.70144 0.0
H2350 H 0.85498 0.07886 0.73947 0.0
H2351 H 0.80288 0.01239 0.57902 0.0
H2352 H 0.53398 0.36514 0.69293 0.0
H2353 H 0.49878 0.3361 0.68837 0.0
H2354 H 0.49256 0.34104 0.73957 0.0
H2355 H 0.52806 0.37035 0.74419 0.0
H2356 H 0.4798 0.3009 0.72715 0.0
H2357 H 0.46581 0.35372 0.71464 0.0
H2358 H 0.47048 0.38458 0.70215 0.0
H2359 H 0.45811 0.35246 0.65462 0.0
H2360 H 0.45367 0.3215 0.66681 0.0
H2361 H 0.3668 0.23184 0.68509 0.0
H2362 H 0.39447 0.26537 0.69822 0.0
H2363 H 0.43946 0.24869 0.68594 0.0
H2364 H 0.41207 0.21543 0.6729 0.0
H2365 H 0.42777 0.29664 0.68496 0.0
H2366 H 0.47658 0.26593 0.71716 0.0
H2367 H 0.47012 0.23428 0.72931 0.0
H2368 H 0.41024 0.22246 0.73937 0.0
H2369 H 0.41643 0.25422 0.72763 0.0
C2370 C 0.52503 0.3602 0.70319 0.0
C2371 C 0.53374 0.36998 0.71892 0.0
C2372 C 0.50489 0.34365 0.70057 0.0
C2373 C 0.49298 0.33642 0.71361 0.0
C2374 C 0.50147 0.34639 0.72933 0.0
C2375 C 0.52165 0.36319 0.73194 0.0
C2376 C 0.47212 0.31779 0.71067 0.0
C2377 C 0.46832 0.30003 0.71809 0.0
C2378 C 0.45691 0.31673 0.69909 0.0
C2379 C 0.4595 0.3353 0.69166 0.0
C2380 C 0.46423 0.35327 0.70152 0.0
C2381 C 0.46681 0.37078 0.69449 0.0
C2382 C 0.46462 0.37049 0.6776 0.0
C2383 C 0.4598 0.35266 0.66771 0.0
C2384 C 0.45721 0.33512 0.67467 0.0
C2385 C 0.38261 0.23538 0.68527 0.0
C2386 C 0.38733 0.22109 0.67799 0.0
C2387 C 0.39837 0.25451 0.69271 0.0
C2388 C 0.419 0.25943 0.69318 0.0
C2389 C 0.42364 0.24512 0.6859 0.0
C2390 C 0.40799 0.22617 0.67837 0.0
C2391 C 0.43596 0.27965 0.70088 0.0
C2392 C 0.43905 0.29764 0.69431 0.0
C2393 C 0.45033 0.28097 0.71341 0.0
C2394 C 0.44697 0.26247 0.72141 0.0
C2395 C 0.46213 0.25674 0.72214 0.0
C2396 C 0.45849 0.23874 0.72894 0.0
C2397 C 0.43977 0.22638 0.73509 0.0
C2398 C 0.42472 0.23206 0.73461 0.0
C2399 C 0.42829 0.25006 0.72788 0.0
H2400 H 0.4369 0.21238 0.74021 0.0
H2401 H 0.46663 0.38406 0.67219 0.0
H2402 H 0.65275 0.15722 0.75845 0.0
H2403 H 0.68067 0.15097 0.75155 0.0
H2404 H 0.66988 0.15889 0.70146 0.0
H2405 H 0.64231 0.16537 0.70837 0.0
H2406 H 0.67834 0.12657 0.70513 0.0
H2407 H 0.70541 0.19831 0.72582 0.0
H2408 H 0.71142 0.22616 0.74653 0.0
H2409 H 0.74153 0.20564 0.78004 0.0
H2410 H 0.73527 0.17734 0.75965 0.0
H2411 H 0.77086 0.15514 0.67013 0.0
H2412 H 0.73925 0.15089 0.68006 0.0
H2413 H 0.76599 0.15968 0.72951 0.0
H2414 H 0.79804 0.1652 0.71956 0.0
H2415 H 0.7484 0.18008 0.72881 0.0
H2416 H 0.72503 0.11062 0.70897 0.0
H2417 H 0.71913 0.08168 0.6895 0.0
H2418 H 0.68224 0.09521 0.65652 0.0
H2419 H 0.68814 0.12442 0.67569 0.0
C2420 C 0.65607 0.1571 0.74593 0.0
C2421 C 0.64541 0.16168 0.73391 0.0
C2422 C 0.67206 0.15367 0.74201 0.0
C2423 C 0.67746 0.15462 0.72599 0.0
C2424 C 0.66598 0.15804 0.71386 0.0
C2425 C 0.65025 0.16173 0.71781 0.0
C2426 C 0.696 0.15374 0.72194 0.0
C2427 C 0.6937 0.13827 0.71025 0.0
C2428 C 0.71599 0.16863 0.729 0.0
C2429 C 0.71961 0.18555 0.74129 0.0
C2430 C 0.71309 0.19958 0.73767 0.0
C2431 C 0.71656 0.21546 0.74935 0.0
C2432 C 0.72676 0.2176 0.76462 0.0
C2433 C 0.73353 0.20388 0.76824 0.0
C2434 C 0.73001 0.18792 0.75663 0.0
C2435 C 0.76988 0.15591 0.68311 0.0
C2436 C 0.78692 0.16045 0.69405 0.0
C2437 C 0.75171 0.15334 0.68882 0.0
C2438 C 0.74991 0.15458 0.7056 0.0
C2439 C 0.76685 0.15865 0.71652 0.0
C2440 C 0.78518 0.16174 0.71082 0.0
C2441 C 0.73093 0.15293 0.71177 0.0
C2442 C 0.73312 0.16804 0.72383 0.0
C2443 C 0.71082 0.13742 0.70529 0.0
C2444 C 0.70716 0.11982 0.69373 0.0
C2445 C 0.71577 0.10751 0.69752 0.0
C2446 C 0.71241 0.09105 0.68654 0.0
C2447 C 0.70035 0.08664 0.67177 0.0
C2448 C 0.69158 0.09866 0.66796 0.0
C2449 C 0.69491 0.11516 0.67889 0.0
H2450 H 0.69777 0.07388 0.66329 0.0
H2451 H 0.72947 0.22993 0.77363 0.0
H2452 H 0.85837 0.48901 0.68326 0.0
H2453 H 0.86191 0.52316 0.68203 0.0
H2454 H 0.85237 0.52533 0.73271 0.0
H2455 H 0.8493 0.49129 0.73404 0.0
H2456 H 0.82431 0.52983 0.71034 0.0
H2457 H 0.89672 0.55873 0.72365 0.0
H2458 H 0.93075 0.56245 0.72086 0.0
H2459 H 0.92858 0.57842 0.67215 0.0
H2460 H 0.89438 0.57449 0.67455 0.0
H2461 H 0.83152 0.62877 0.7073 0.0
H2462 H 0.83765 0.60138 0.71623 0.0
H2463 H 0.85485 0.59354 0.66877 0.0
H2464 H 0.84829 0.62048 0.65982 0.0
H2465 H 0.88136 0.59391 0.69333 0.0
H2466 H 0.80977 0.56242 0.67764 0.0
H2467 H 0.77348 0.55329 0.67665 0.0
H2468 H 0.77146 0.5374 0.72569 0.0
H2469 H 0.80805 0.54732 0.72726 0.0
C2470 C 0.85765 0.4971 0.69423 0.0
C2471 C 0.85369 0.48772 0.70876 0.0
C2472 C 0.85968 0.51656 0.69353 0.0
C2473 C 0.85746 0.52677 0.70729 0.0
C2474 C 0.85426 0.51773 0.722 0.0
C2475 C 0.8526 0.4984 0.72277 0.0
C2476 C 0.85603 0.54557 0.70569 0.0
C2477 C 0.83693 0.54413 0.70711 0.0
C2478 C 0.8723 0.56375 0.70074 0.0
C2479 C 0.8929 0.56617 0.69925 0.0
C2480 C 0.90341 0.56286 0.71229 0.0
C2481 C 0.92275 0.56505 0.71079 0.0
C2482 C 0.93181 0.57063 0.69633 0.0
C2483 C 0.92155 0.57408 0.68334 0.0
C2484 C 0.90219 0.57191 0.68478 0.0
C2485 C 0.83688 0.62132 0.69893 0.0
C2486 C 0.83969 0.62671 0.68297 0.0
C2487 C 0.84025 0.60565 0.70397 0.0
C2488 C 0.84669 0.59542 0.69315 0.0
C2489 C 0.84999 0.60129 0.67733 0.0
C2490 C 0.84626 0.61663 0.67223 0.0
C2491 C 0.84955 0.57823 0.69802 0.0
C2492 C 0.86887 0.57989 0.69705 0.0
C2493 C 0.83329 0.56001 0.70304 0.0
C2494 C 0.81187 0.55603 0.70267 0.0
C2495 C 0.80181 0.55755 0.68838 0.0
C2496 C 0.78112 0.5521 0.68768 0.0
C2497 C 0.77016 0.54471 0.70107 0.0
C2498 C 0.77995 0.54306 0.7153 0.0
C2499 C 0.80073 0.54878 0.71615 0.0
H2500 H 0.75408 0.5403 0.70045 0.0
H2501 H 0.94679 0.57232 0.69519 0.0
H2502 H 0.43751 0.92536 0.24307 0.0
H2503 H 0.44992 0.94213 0.21838 0.0
H2504 H 0.43603 0.88376 0.19374 0.0
H2505 H 0.42468 0.86731 0.21866 0.0
H2506 H 0.46972 0.91083 0.18515 0.0
H2507 H 0.40492 0.90735 0.18795 0.0
H2508 H 0.37868 0.91253 0.20031 0.0
H2509 H 0.41938 0.97811 0.20496 0.0
H2510 H 0.44599 0.97331 0.19282 0.0
H2511 H 0.46869 0.94046 0.10434 0.0
H2512 H 0.45689 0.92429 0.12928 0.0
H2513 H 0.48884 0.98393 0.15695 0.0
H2514 H 0.50171 1.00024 0.13234 0.0
H2515 H 0.44593 0.95645 0.16346 0.0
H2516 H 0.51048 0.9578 0.15965 0.0
H2517 H 0.5345 0.95064 0.1456 0.0
H2518 H 0.49049 0.88579 0.14078 0.0
H2519 H 0.46607 0.89261 0.15459 0.0
C2520 C 0.43718 0.91619 0.23235 0.0
C2521 C 0.43017 0.89508 0.23273 0.0
C2522 C 0.44413 0.92573 0.21821 0.0
C2523 C 0.44359 0.91418 0.204 0.0
C2524 C 0.43667 0.89307 0.20447 0.0
C2525 C 0.43016 0.88366 0.21871 0.0
C2526 C 0.45036 0.92404 0.18869 0.0
C2527 C 0.46423 0.92056 0.18035 0.0
C2528 C 0.44351 0.937 0.18238 0.0
C2529 C 0.42752 0.93996 0.18963 0.0
C2530 C 0.40833 0.92287 0.19171 0.0
C2531 C 0.39338 0.92574 0.19867 0.0
C2532 C 0.39738 0.94563 0.20346 0.0
C2533 C 0.41632 0.96271 0.20126 0.0
C2534 C 0.43133 0.95992 0.19434 0.0
C2535 C 0.4735 0.9502 0.11572 0.0
C2536 C 0.48625 0.97175 0.1162 0.0
C2537 C 0.46656 0.9409 0.12995 0.0
C2538 C 0.472 0.95293 0.14493 0.0
C2539 C 0.48437 0.9744 0.14548 0.0
C2540 C 0.49159 0.98369 0.13132 0.0
C2541 C 0.4651 0.94312 0.1601 0.0
C2542 C 0.45127 0.94665 0.16835 0.0
C2543 C 0.47162 0.92986 0.16615 0.0
C2544 C 0.48637 0.92574 0.158 0.0
C2545 C 0.50586 0.94203 0.15547 0.0
C2546 C 0.51956 0.93803 0.14757 0.0
C2547 C 0.51401 0.91778 0.14226 0.0
C2548 C 0.49476 0.90148 0.14488 0.0
C2549 C 0.48099 0.9054 0.15275 0.0
H2550 H 0.52463 0.91471 0.13614 0.0
H2551 H 0.38579 0.94782 0.20884 0.0
H2552 H 0.14986 0.5793 0.24386 0.0
H2553 H 0.13438 0.57494 0.21607 0.0
H2554 H 0.07972 0.52038 0.22677 0.0
H2555 H 0.0953 0.52454 0.25453 0.0
H2556 H 0.09048 0.51324 0.19873 0.0
H2557 H 0.08128 0.56707 0.22305 0.0
H2558 H 0.09185 0.6005 0.23837 0.0
H2559 H 0.1327 0.63218 0.20285 0.0
H2560 H 0.12257 0.5989 0.18742 0.0
H2561 H 0.02359 0.50526 0.13048 0.0
H2562 H 0.04033 0.51018 0.15795 0.0
H2563 H 0.09722 0.55841 0.14358 0.0
H2564 H 0.08053 0.55352 0.11602 0.0
H2565 H 0.08595 0.56907 0.17301 0.0
H2566 H 0.09394 0.51437 0.14849 0.0
H2567 H 0.08229 0.48059 0.13331 0.0
H2568 H 0.04211 0.45019 0.16956 0.0
H2569 H 0.05331 0.48383 0.18486 0.0
C2570 C 0.13443 0.56654 0.24035 0.0
C2571 C 0.12376 0.5523 0.25139 0.0
C2572 C 0.12559 0.56405 0.22445 0.0
C2573 C 0.10578 0.54743 0.21933 0.0
C2574 C 0.09504 0.53329 0.2304 0.0
C2575 C 0.10394 0.53568 0.24626 0.0
C2576 C 0.09646 0.54447 0.20233 0.0
C2577 C 0.08924 0.52538 0.19321 0.0
C2578 C 0.09525 0.56043 0.19494 0.0
C2579 C 0.10132 0.58047 0.20417 0.0
C2580 C 0.09264 0.58115 0.21857 0.0
C2581 C 0.09853 0.60008 0.22726 0.0
C2582 C 0.11298 0.61845 0.22161 0.0
C2583 C 0.12153 0.61793 0.20723 0.0
C2584 C 0.11571 0.59904 0.19849 0.0
C2585 C 0.03968 0.51687 0.13318 0.0
C2586 C 0.05078 0.52899 0.12113 0.0
C2587 C 0.04923 0.5196 0.14884 0.0
C2588 C 0.07002 0.53461 0.15277 0.0
C2589 C 0.08117 0.54673 0.14077 0.0
C2590 C 0.07168 0.54383 0.12503 0.0
C2591 C 0.07994 0.53788 0.16953 0.0
C2592 C 0.08725 0.55699 0.17858 0.0
C2593 C 0.08107 0.5219 0.1769 0.0
C2594 C 0.07432 0.50164 0.16774 0.0
C2595 C 0.08248 0.5005 0.15316 0.0
C2596 C 0.07599 0.48137 0.14455 0.0
C2597 C 0.06143 0.46326 0.15045 0.0
C2598 C 0.05337 0.46423 0.16499 0.0
C2599 C 0.0598 0.48333 0.17365 0.0
H2600 H 0.05643 0.44847 0.14377 0.0
H2601 H 0.11752 0.63309 0.22836 0.0
H2602 H 0.43382 0.55931 0.22832 0.0
H2603 H 0.44057 0.54764 0.20249 0.0
H2604 H 0.49921 0.55928 0.22433 0.0
H2605 H 0.49222 0.56997 0.25046 0.0
H2606 H 0.49937 0.58026 0.19527 0.0
H2607 H 0.46641 0.51282 0.21486 0.0
H2608 H 0.43801 0.48317 0.22572 0.0
H2609 H 0.39746 0.47458 0.18356 0.0
H2610 H 0.42557 0.50439 0.17255 0.0
H2611 H 0.53539 0.55048 0.12964 0.0
H2612 H 0.52483 0.5532 0.15629 0.0
H2613 H 0.46149 0.52315 0.13582 0.0
H2614 H 0.47169 0.51857 0.10924 0.0
H2615 H 0.46246 0.51105 0.16419 0.0
H2616 H 0.49211 0.57693 0.1443 0.0
H2617 H 0.51819 0.60738 0.13248 0.0
H2618 H 0.56166 0.6207 0.17382 0.0
H2619 H 0.53592 0.59011 0.18578 0.0
C2620 C 0.44787 0.55878 0.22784 0.0
C2621 C 0.46255 0.5658 0.24153 0.0
C2622 C 0.45175 0.55223 0.213 0.0
C2623 C 0.47043 0.55275 0.21151 0.0
C2624 C 0.48475 0.55891 0.22524 0.0
C2625 C 0.48075 0.56513 0.24014 0.0
C2626 C 0.4758 0.54855 0.19537 0.0
C2627 C 0.49154 0.56507 0.18856 0.0
C2628 C 0.46492 0.52893 0.18637 0.0
C2629 C 0.44805 0.51098 0.19296 0.0
C2630 C 0.45139 0.50474 0.20798 0.0
C2631 C 0.43535 0.48787 0.21414 0.0
C2632 C 0.41593 0.47703 0.20536 0.0
C2633 C 0.41251 0.48301 0.19036 0.0
C2634 C 0.4285 0.49987 0.18415 0.0
C2635 C 0.51913 0.5439 0.13074 0.0
C2636 C 0.50447 0.53438 0.11707 0.0
C2637 C 0.51313 0.54581 0.14605 0.0
C2638 C 0.4924 0.53889 0.14806 0.0
C2639 C 0.47761 0.52881 0.1346 0.0
C2640 C 0.48355 0.52647 0.1193 0.0
C2641 C 0.48635 0.54275 0.1641 0.0
C2642 C 0.47039 0.52625 0.17087 0.0
C2643 C 0.49666 0.56256 0.17293 0.0
C2644 C 0.51214 0.58111 0.16587 0.0
C2645 C 0.50727 0.58628 0.15083 0.0
C2646 C 0.52199 0.60357 0.14411 0.0
C2647 C 0.54158 0.61594 0.15238 0.0
C2648 C 0.54648 0.61108 0.16742 0.0
C2649 C 0.53183 0.59377 0.17418 0.0
H2650 H 0.55296 0.62933 0.14716 0.0
H2651 H 0.40353 0.46398 0.21015 0.0
H2652 H 0.92783 0.44819 0.76197 0.0
H2653 H 0.9438 0.45983 0.79001 0.0
H2654 H 0.88647 0.45092 0.80538 0.0
H2655 H 0.87073 0.44006 0.77717 0.0
H2656 H 0.91749 0.48342 0.82269 0.0
H2657 H 0.9005 0.41369 0.80806 0.0
H2658 H 0.90041 0.38548 0.79125 0.0
H2659 H 0.96619 0.41565 0.80023 0.0
H2660 H 0.9667 0.44422 0.81689 0.0
H2661 H 0.93578 0.46805 0.90533 0.0
H2662 H 0.9222 0.46469 0.87702 0.0
H2663 H 0.981 0.47885 0.86142 0.0
H2664 H 0.99452 0.48178 0.88962 0.0
H2665 H 0.94938 0.44451 0.8444 0.0
H2666 H 0.96517 0.51378 0.86072 0.0
H2667 H 0.96366 0.54058 0.87819 0.0
H2668 H 0.89809 0.5094 0.86704 0.0
H2669 H 0.89916 0.48222 0.8497 0.0
C2670 C 0.91878 0.44905 0.77133 0.0
C2671 C 0.89805 0.44311 0.7675 0.0
C2672 C 0.92786 0.45561 0.78733 0.0
C2673 C 0.9162 0.45576 0.79988 0.0
C2674 C 0.89576 0.45085 0.79593 0.0
C2675 C 0.88677 0.44464 0.77984 0.0
C2676 C 0.9249 0.45964 0.81716 0.0
C2677 C 0.92429 0.47479 0.82748 0.0
C2678 C 0.93393 0.44849 0.82342 0.0
C2679 C 0.93365 0.43118 0.8136 0.0
C2680 C 0.91496 0.41436 0.80637 0.0
C2681 C 0.91483 0.39831 0.79687 0.0
C2682 C 0.93329 0.3988 0.79464 0.0
C2683 C 0.95191 0.41531 0.80195 0.0
C2684 C 0.95212 0.43143 0.81143 0.0
C2685 C 0.94582 0.47049 0.89586 0.0
C2686 C 0.96622 0.47516 0.89971 0.0
C2687 C 0.9381 0.46874 0.87971 0.0
C2688 C 0.95064 0.47166 0.86712 0.0
C2689 C 0.97108 0.47661 0.87096 0.0
C2690 C 0.97883 0.47843 0.88709 0.0
C2691 C 0.94219 0.46842 0.84989 0.0
C2692 C 0.94272 0.45326 0.83959 0.0
C2693 C 0.93286 0.47936 0.84377 0.0
C2694 C 0.93223 0.49586 0.85402 0.0
C2695 C 0.95041 0.51255 0.86208 0.0
C2696 C 0.94963 0.52783 0.87195 0.0
C2697 C 0.93079 0.52668 0.87375 0.0
C2698 C 0.91268 0.51027 0.86565 0.0
C2699 C 0.91336 0.49493 0.85578 0.0
H2700 H 0.93022 0.53852 0.88139 0.0
H2701 H 0.93316 0.38636 0.78728 0.0
H2702 H 0.61446 0.48478 0.79305 0.0
H2703 H 0.6014 0.48808 0.8187 0.0
H2704 H 0.53916 0.44949 0.79647 0.0
H2705 H 0.55213 0.44638 0.77068 0.0
H2706 H 0.54442 0.48391 0.81458 0.0
H2707 H 0.56085 0.43033 0.82128 0.0
H2708 H 0.58315 0.41498 0.82185 0.0
H2709 H 0.62446 0.46162 0.85956 0.0
H2710 H 0.60259 0.47746 0.85902 0.0
H2711 H 0.49299 0.46494 0.88531 0.0
H2712 H 0.5063 0.46082 0.86017 0.0
H2713 H 0.56805 0.49352 0.88431 0.0
H2714 H 0.55473 0.49668 0.90979 0.0
H2715 H 0.56349 0.46244 0.8652 0.0
H2716 H 0.54887 0.51678 0.85867 0.0
H2717 H 0.52791 0.53361 0.85839 0.0
H2718 H 0.48512 0.48784 0.82081 0.0
H2719 H 0.50568 0.47056 0.82102 0.0
C2720 C 0.59799 0.47714 0.79358 0.0
C2721 C 0.58432 0.46533 0.77982 0.0
C2722 C 0.59056 0.47889 0.80829 0.0
C2723 C 0.56931 0.46887 0.80955 0.0
C2724 C 0.55562 0.45729 0.79578 0.0
C2725 C 0.56304 0.45543 0.78109 0.0
C2726 C 0.56134 0.47058 0.82517 0.0
C2727 C 0.54836 0.47896 0.82561 0.0
C2728 C 0.56701 0.46472 0.83968 0.0
C2729 C 0.5802 0.45522 0.83997 0.0
C2730 C 0.5748 0.43744 0.82958 0.0
C2731 C 0.58734 0.42862 0.82991 0.0
C2732 C 0.60524 0.43736 0.84069 0.0
C2733 C 0.61061 0.4549 0.85118 0.0
C2734 C 0.59815 0.4638 0.85087 0.0
C2735 C 0.50937 0.47098 0.8854 0.0
C2736 C 0.52276 0.48122 0.89965 0.0
C2737 C 0.51701 0.46885 0.8709 0.0
C2738 C 0.53824 0.47722 0.87021 0.0
C2739 C 0.55162 0.48706 0.88448 0.0
C2740 C 0.54398 0.48903 0.89903 0.0
C2741 C 0.54648 0.47572 0.85463 0.0
C2742 C 0.55954 0.46741 0.85419 0.0
C2743 C 0.5411 0.48189 0.84016 0.0
C2744 C 0.52871 0.49226 0.83998 0.0
C2745 C 0.5349 0.51021 0.85043 0.0
C2746 C 0.52311 0.51985 0.85027 0.0
C2747 C 0.50517 0.51177 0.83962 0.0
C2748 C 0.49901 0.49406 0.82907 0.0
C2749 C 0.51073 0.48435 0.82919 0.0
H2750 H 0.49606 0.51926 0.83951 0.0
H2751 H 0.61492 0.4305 0.84094 0.0
H2752 H 0.52688 0.08819 0.77589 0.0
H2753 H 0.51956 0.07274 0.8017 0.0
H2754 H 0.57075 0.1283 0.82663 0.0
H2755 H 0.57823 0.14376 0.80084 0.0
H2756 H 0.54337 0.0655 0.82575 0.0
H2757 H 0.55204 0.13756 0.862 0.0
H2758 H 0.5498 0.16855 0.85724 0.0
H2759 H 0.50749 0.13616 0.8147 0.0
H2760 H 0.50923 0.10492 0.81936 0.0
H2761 H 0.54 0.05291 0.91058 0.0
H2762 H 0.5505 0.06825 0.88514 0.0
H2763 H 0.49026 0.06027 0.87356 0.0
H2764 H 0.47933 0.04423 0.89865 0.0
H2765 H 0.52206 0.099 0.86759 0.0
H2766 H 0.50081 0.02725 0.85579 0.0
H2767 H 0.50115 0.99521 0.86004 0.0
H2768 H 0.56513 0.02483 0.85253 0.0
H2769 H 0.56524 0.05717 0.84847 0.0
C2770 C 0.53675 0.09696 0.78685 0.0
C2771 C 0.55312 0.11716 0.78637 0.0
C2772 C 0.5326 0.08811 0.80155 0.0
C2773 C 0.54452 0.09944 0.81608 0.0
C2774 C 0.56133 0.11934 0.81556 0.0
C2775 C 0.56566 0.12809 0.80082 0.0
C2776 C 0.53855 0.09091 0.83186 0.0
C2777 C 0.53884 0.07289 0.83495 0.0
C2778 C 0.53235 0.10039 0.84375 0.0
C2779 C 0.53097 0.119 0.84093 0.0
C2780 C 0.54222 0.13705 0.85166 0.0
C2781 C 0.54103 0.15465 0.84898 0.0
C2782 C 0.52858 0.15435 0.83564 0.0
C2783 C 0.51721 0.13641 0.82499 0.0
C2784 C 0.51831 0.11876 0.82763 0.0
C2785 C 0.52888 0.05423 0.90258 0.0
C2786 C 0.50872 0.04712 0.90668 0.0
C2787 C 0.53498 0.06313 0.88808 0.0
C2788 C 0.52112 0.06526 0.87741 0.0
C2789 C 0.50122 0.05881 0.88165 0.0
C2790 C 0.49504 0.04973 0.89607 0.0
C2791 C 0.52716 0.07374 0.86161 0.0
C2792 C 0.52683 0.09174 0.85849 0.0
C2793 C 0.53315 0.06414 0.84964 0.0
C2794 C 0.53308 0.04469 0.85199 0.0
C2795 C 0.51499 0.02698 0.85518 0.0
C2796 C 0.5151 0.00876 0.85753 0.0
C2797 C 0.53316 0.008 0.8566 0.0
C2798 C 0.55115 0.02545 0.85327 0.0
C2799 C 0.55114 0.04373 0.85093 0.0
H2800 H 0.53321 0.99387 0.85842 0.0
H2801 H 0.52769 0.16799 0.83358 0.0
H2802 H 0.13011 0.24326 0.57281 0.0
H2803 H 0.1427 0.2597 0.54805 0.0
H2804 H 0.08024 0.23573 0.52719 0.0
H2805 H 0.06755 0.21903 0.55182 0.0
H2806 H 0.10416 0.2303 0.50561 0.0
H2807 H 0.10835 0.28529 0.54134 0.0
H2808 H 0.11869 0.30822 0.56681 0.0
H2809 H 0.18231 0.33067 0.56068 0.0
H2810 H 0.17233 0.30764 0.53527 0.0
H2811 H 0.12719 0.28965 0.43843 0.0
H2812 H 0.11367 0.27392 0.46311 0.0
H2813 H 0.17531 0.30342 0.4873 0.0
H2814 H 0.18882 0.3203 0.46305 0.0
H2815 H 0.15116 0.30581 0.50721 0.0
H2816 H 0.14771 0.25113 0.47183 0.0
H2817 H 0.138 0.22885 0.44605 0.0
H2818 H 0.0741 0.20565 0.45148 0.0
H2819 H 0.08343 0.22808 0.47715 0.0
C2820 C 0.11906 0.24149 0.56294 0.0
C2821 C 0.09783 0.22994 0.56432 0.0
C2822 C 0.12627 0.25096 0.54883 0.0
C2823 C 0.11241 0.24905 0.5358 0.0
C2824 C 0.09121 0.23744 0.5371 0.0
C2825 C 0.08399 0.22807 0.55124 0.0
C2826 C 0.12003 0.25915 0.52081 0.0
C2827 C 0.11424 0.24684 0.50591 0.0
C2828 C 0.13355 0.28066 0.52126 0.0
C2829 C 0.13958 0.29459 0.53649 0.0
C2830 C 0.12454 0.29499 0.54549 0.0
C2831 C 0.13034 0.30803 0.55991 0.0
C2832 C 0.15114 0.32086 0.56538 0.0
C2833 C 0.1662 0.32071 0.55643 0.0
C2834 C 0.16048 0.30768 0.54202 0.0
C2835 C 0.13788 0.29304 0.44905 0.0
C2836 C 0.15915 0.30626 0.44867 0.0
C2837 C 0.13013 0.28379 0.46312 0.0
C2838 C 0.14348 0.28718 0.47704 0.0
C2839 C 0.16468 0.30046 0.47673 0.0
C2840 C 0.17242 0.30992 0.46274 0.0
C2841 C 0.13541 0.27699 0.49195 0.0
C2842 C 0.14111 0.28926 0.50686 0.0
C2843 C 0.12195 0.25542 0.49151 0.0
C2844 C 0.11628 0.24142 0.47635 0.0
C2845 C 0.13158 0.24134 0.46749 0.0
C2846 C 0.12615 0.2287 0.45289 0.0
C2847 C 0.10545 0.21588 0.44711 0.0
C2848 C 0.09013 0.21561 0.45596 0.0
C2849 C 0.09548 0.22827 0.47054 0.0
H2850 H 0.10128 0.20615 0.43579 0.0
H2851 H 0.1556 0.33094 0.57654 0.0
H2852 H 0.78507 0.90511 0.58596 0.0
H2853 H 0.76995 0.90212 0.55828 0.0
H2854 H 0.78839 0.8584 0.54297 0.0
H2855 H 0.80446 0.86213 0.57035 0.0
H2856 H 0.79549 0.88414 0.52095 0.0
H2857 H 0.73805 0.84309 0.55013 0.0
H2858 H 0.71555 0.83572 0.57217 0.0
H2859 H 0.7024 0.88278 0.55915 0.0
H2860 H 0.72506 0.89062 0.53716 0.0
H2861 H 0.73128 0.84524 0.44598 0.0
H2862 H 0.74771 0.84891 0.47326 0.0
H2863 H 0.73051 0.89345 0.48904 0.0
H2864 H 0.71311 0.88905 0.46209 0.0
H2865 H 0.72288 0.86695 0.5107 0.0
H2866 H 0.78085 0.90747 0.48099 0.0
H2867 H 0.80263 0.91325 0.4586 0.0
H2868 H 0.81392 0.86521 0.47229 0.0
H2869 H 0.79203 0.859 0.49466 0.0
C2870 C 0.78608 0.89501 0.57667 0.0
C2871 C 0.79582 0.88372 0.58045 0.0
C2872 C 0.77724 0.89315 0.56088 0.0
C2873 C 0.77772 0.87977 0.54858 0.0
C2874 C 0.78771 0.86873 0.55226 0.0
C2875 C 0.79668 0.8707 0.568 0.0
C2876 C 0.76782 0.87722 0.53188 0.0
C2877 C 0.77954 0.88015 0.5187 0.0
C2878 C 0.74709 0.8723 0.52892 0.0
C2879 C 0.73342 0.86758 0.54211 0.0
C2880 C 0.73049 0.85197 0.55205 0.0
C2881 C 0.71769 0.84769 0.56452 0.0
C2882 C 0.7076 0.85881 0.56709 0.0
C2883 C 0.71025 0.8742 0.55716 0.0
C2884 C 0.72306 0.87856 0.54469 0.0
C2885 C 0.73085 0.85571 0.45527 0.0
C2886 C 0.72089 0.86689 0.45177 0.0
C2887 C 0.74047 0.85797 0.47083 0.0
C2888 C 0.74061 0.87168 0.48316 0.0
C2889 C 0.7307 0.88285 0.47971 0.0
C2890 C 0.72094 0.88048 0.46421 0.0
C2891 C 0.75058 0.87405 0.4998 0.0
C2892 C 0.73885 0.87101 0.51296 0.0
C2893 C 0.77124 0.87871 0.50272 0.0
C2894 C 0.78467 0.88266 0.48942 0.0
C2895 C 0.7879 0.89807 0.47918 0.0
C2896 C 0.80028 0.90143 0.46649 0.0
C2897 C 0.80962 0.88958 0.464 0.0
C2898 C 0.80667 0.87438 0.47422 0.0
C2899 C 0.7943 0.87095 0.48692 0.0
H2900 H 0.81918 0.89219 0.45417 0.0
H2901 H 0.69769 0.85547 0.57674 0.0
H2902 H 0.16061 0.90106 0.5862 0.0
H2903 H 0.16725 0.89208 0.55931 0.0
H2904 H 0.11068 0.88658 0.53845 0.0
H2905 H 0.10401 0.89577 0.56534 0.0
H2906 H 0.11828 0.85621 0.52469 0.0
H2907 H 0.15399 0.93014 0.53697 0.0
H2908 H 0.17724 0.96279 0.55387 0.0
H2909 H 0.22718 0.95094 0.55089 0.0
H2910 H 0.20413 0.91804 0.53417 0.0
H2911 H 0.14123 0.86686 0.44272 0.0
H2912 H 0.13154 0.86963 0.46985 0.0
H2913 H 0.19233 0.88615 0.49059 0.0
H2914 H 0.20264 0.88497 0.46346 0.0
H2915 H 0.18204 0.91016 0.50474 0.0
H2916 H 0.14743 0.83681 0.49224 0.0
H2917 H 0.12452 0.80349 0.47603 0.0
H2918 H 0.07329 0.81314 0.47987 0.0
H2919 H 0.09595 0.84664 0.49593 0.0
C2920 C 0.14949 0.89778 0.57592 0.0
C2921 C 0.1319 0.89936 0.5779 0.0
C2922 C 0.15328 0.8926 0.56056 0.0
C2923 C 0.13961 0.88897 0.54684 0.0
C2924 C 0.12144 0.88934 0.54887 0.0
C2925 C 0.11762 0.89454 0.56427 0.0
C2926 C 0.14507 0.88631 0.53029 0.0
C2927 C 0.1321 0.86806 0.52022 0.0
C2928 C 0.16333 0.9016 0.52462 0.0
C2929 C 0.17729 0.92154 0.53444 0.0
C2930 C 0.1699 0.93444 0.54 0.0
C2931 C 0.18304 0.95299 0.54955 0.0
C2932 C 0.20366 0.95891 0.55349 0.0
C2933 C 0.2112 0.94632 0.54784 0.0
C2934 C 0.1981 0.92772 0.53833 0.0
C2935 C 0.15266 0.87128 0.45301 0.0
C2936 C 0.1728 0.87574 0.45076 0.0
C2937 C 0.14696 0.87253 0.4686 0.0
C2938 C 0.16108 0.8778 0.48238 0.0
C2939 C 0.18109 0.88198 0.4802 0.0
C2940 C 0.1869 0.88105 0.46461 0.0
C2941 C 0.15537 0.87989 0.49901 0.0
C2942 C 0.16826 0.89816 0.50914 0.0
C2943 C 0.13712 0.86452 0.50474 0.0
C2944 C 0.12344 0.84433 0.49516 0.0
C2945 C 0.13131 0.83189 0.48953 0.0
C2946 C 0.11836 0.81296 0.48039 0.0
C2947 C 0.09748 0.80623 0.47689 0.0
C2948 C 0.08948 0.81838 0.48257 0.0
C2949 C 0.10236 0.83733 0.49171 0.0
H2950 H 0.08748 0.79157 0.46981 0.0
H2951 H 0.21381 0.97328 0.56088 0.0
H2952 H 0.53835 0.74092 0.11329 0.0
H2953 H 0.55269 0.75362 0.14153 0.0
H2954 H 0.58069 0.81627 0.12914 0.0
H2955 H 0.56635 0.80355 0.10066 0.0
H2956 H 0.60761 0.80808 0.14769 0.0
H2957 H 0.54079 0.79954 0.15012 0.0
H2958 H 0.50295 0.7814 0.14548 0.0
H2959 H 0.49895 0.73439 0.17469 0.0
H2960 H 0.53679 0.75209 0.17932 0.0
H2961 H 0.64216 0.84576 0.23038 0.0
H2962 H 0.62399 0.83993 0.20339 0.0
H2963 H 0.58765 0.77501 0.20883 0.0
H2964 H 0.60568 0.78077 0.23586 0.0
H2965 H 0.5646 0.78838 0.19371 0.0
H2966 H 0.6305 0.79395 0.18841 0.0
H2967 H 0.6683 0.81082 0.19268 0.0
H2968 H 0.67388 0.8621 0.16844 0.0
H2969 H 0.63607 0.84565 0.16423 0.0
C2970 C 0.54761 0.75741 0.11656 0.0
C2971 C 0.55138 0.77126 0.10477 0.0
C2972 C 0.55563 0.76464 0.13272 0.0
C2973 C 0.56761 0.78588 0.13745 0.0
C2974 C 0.57141 0.79981 0.12573 0.0
C2975 C 0.56318 0.79256 0.10952 0.0
C2976 C 0.57673 0.79328 0.15454 0.0
C2977 C 0.59821 0.80419 0.15776 0.0
C2978 C 0.56444 0.78775 0.16765 0.0
C2979 C 0.54166 0.77708 0.16497 0.0
C2980 C 0.53186 0.78525 0.15545 0.0
C2981 C 0.5104 0.77506 0.15284 0.0
C2982 C 0.49855 0.75673 0.15976 0.0
C2983 C 0.50815 0.74859 0.16934 0.0
C2984 C 0.5296 0.75871 0.17197 0.0
C2985 C 0.63021 0.83026 0.22585 0.0
C2986 C 0.62553 0.81367 0.23515 0.0
C2987 C 0.61983 0.82696 0.21044 0.0
C2988 C 0.60473 0.80697 0.20396 0.0
C2989 C 0.59928 0.79056 0.21357 0.0
C2990 C 0.60958 0.79387 0.22902 0.0
C2991 C 0.59548 0.80292 0.18686 0.0
C2992 C 0.57399 0.79258 0.18364 0.0
C2993 C 0.60775 0.80883 0.17372 0.0
C2994 C 0.63047 0.81869 0.17618 0.0
C2995 C 0.63979 0.8089 0.1841 0.0
C2996 C 0.66122 0.81837 0.1865 0.0
C2997 C 0.67349 0.83755 0.18088 0.0
C2998 C 0.66436 0.84727 0.17282 0.0
C2999 C 0.64293 0.83788 0.17042 0.0
H3000 H 0.69008 0.84486 0.18274 0.0
H3001 H 0.48194 0.74887 0.15773 0.0
H3002 H 0.27411 0.82533 0.12029 0.0
H3003 H 0.26126 0.82828 0.14599 0.0
H3004 H 0.20022 0.78027 0.12696 0.0
H3005 H 0.21274 0.77803 0.10083 0.0
H3006 H 0.19784 0.80929 0.1439 0.0
H3007 H 0.23201 0.77114 0.15339 0.0
H3008 H 0.26051 0.76385 0.15368 0.0
H3009 H 0.29842 0.81856 0.18622 0.0
H3010 H 0.27023 0.82634 0.18594 0.0
H3011 H 0.15972 0.79026 0.2218 0.0
H3012 H 0.17113 0.78548 0.19568 0.0
H3013 H 0.23054 0.83943 0.2096 0.0
H3014 H 0.21931 0.84437 0.23564 0.0
H3015 H 0.23265 0.80571 0.19538 0.0
H3016 H 0.19781 0.84373 0.18491 0.0
H3017 H 0.16857 0.84989 0.1847 0.0
H3018 H 0.13086 0.79335 0.15407 0.0
H3019 H 0.15981 0.7867 0.1543 0.0
C3020 C 0.25788 0.81562 0.12142 0.0
C3021 C 0.24449 0.8014 0.10842 0.0
C3022 C 0.25059 0.81712 0.13625 0.0
C3023 C 0.22983 0.80421 0.13856 0.0
C3024 C 0.21633 0.7903 0.12553 0.0
C3025 C 0.22357 0.78892 0.11063 0.0
C3026 C 0.22225 0.80523 0.15456 0.0
C3027 C 0.20528 0.80817 0.15511 0.0
C3028 C 0.23208 0.80408 0.16928 0.0
C3029 C 0.24906 0.79942 0.16952 0.0
C3030 C 0.24647 0.7817 0.16051 0.0
C3031 C 0.26257 0.77746 0.16069 0.0
C3032 C 0.28128 0.79076 0.16993 0.0
C3033 C 0.28392 0.80829 0.17905 0.0
C3034 C 0.26789 0.81261 0.1789 0.0
C3035 C 0.1753 0.80097 0.21939 0.0
C3036 C 0.18862 0.81766 0.23089 0.0
C3037 C 0.18173 0.7983 0.20441 0.0
C3038 C 0.20164 0.81217 0.20069 0.0
C3039 C 0.21511 0.82856 0.21224 0.0
C3040 C 0.20861 0.8314 0.2271 0.0
C3041 C 0.20841 0.80987 0.18465 0.0
C3042 C 0.2252 0.80669 0.18412 0.0
C3043 C 0.1983 0.8106 0.16996 0.0
C3044 C 0.1809 0.8146 0.16977 0.0
C3045 C 0.18323 0.83252 0.17825 0.0
C3046 C 0.16672 0.83612 0.17811 0.0
C3047 C 0.14785 0.82199 0.16942 0.0
C3048 C 0.14547 0.80426 0.16082 0.0
C3049 C 0.16193 0.80058 0.16094 0.0
H3050 H 0.13509 0.82481 0.16932 0.0
H3051 H 0.29372 0.78745 0.17006 0.0
H3052 H 0.20756 0.46736 0.13223 0.0
H3053 H 0.20454 0.4538 0.15857 0.0
H3054 H 0.23429 0.42027 0.14311 0.0
H3055 H 0.23712 0.43372 0.11642 0.0
H3056 H 0.1992 0.39603 0.15716 0.0
H3057 H 0.25957 0.46116 0.1711 0.0
H3058 H 0.28182 0.4989 0.17246 0.0
H3059 H 0.23947 0.50712 0.19992 0.0
H3060 H 0.21679 0.46942 0.19852 0.0
H3061 H 0.19629 0.36435 0.23712 0.0
H3062 H 0.20973 0.38011 0.21232 0.0
H3063 H 0.18262 0.4185 0.21877 0.0
H3064 H 0.16952 0.40313 0.24374 0.0
H3065 H 0.22136 0.44012 0.2096 0.0
H3066 H 0.15924 0.37533 0.19243 0.0
H3067 H 0.13658 0.3376 0.19075 0.0
H3068 H 0.18249 0.32897 0.16919 0.0
H3069 H 0.20554 0.36668 0.17095 0.0
C3070 C 0.21354 0.45715 0.13444 0.0
C3071 C 0.22244 0.45146 0.12222 0.0
C3072 C 0.21196 0.44954 0.14956 0.0
C3073 C 0.21933 0.43614 0.15289 0.0
C3074 C 0.22856 0.43066 0.14082 0.0
C3075 C 0.23027 0.43841 0.12563 0.0
C3076 C 0.21626 0.42715 0.1687 0.0
C3077 C 0.20447 0.40565 0.16865 0.0
C3078 C 0.22279 0.43971 0.18369 0.0
C3079 C 0.2364 0.46243 0.18461 0.0
C3080 C 0.25491 0.47101 0.17732 0.0
C3081 C 0.26762 0.4924 0.17812 0.0
C3082 C 0.26205 0.5054 0.18625 0.0
C3083 C 0.24377 0.49703 0.19362 0.0
C3084 C 0.23099 0.47564 0.19285 0.0
C3085 C 0.19342 0.37634 0.23337 0.0
C3086 C 0.18173 0.38241 0.24237 0.0
C3087 C 0.20098 0.38522 0.21912 0.0
C3088 C 0.19701 0.40034 0.21359 0.0
C3089 C 0.18584 0.40683 0.22278 0.0
C3090 C 0.17821 0.3979 0.23698 0.0
C3091 C 0.20394 0.40907 0.19801 0.0
C3092 C 0.21643 0.43051 0.19812 0.0
C3093 C 0.19805 0.39646 0.18308 0.0
C3094 C 0.18421 0.37381 0.18201 0.0
C3095 C 0.16457 0.36538 0.18746 0.0
C3096 C 0.15164 0.34401 0.18647 0.0
C3097 C 0.15812 0.3309 0.17992 0.0
C3098 C 0.17751 0.33915 0.1743 0.0
C3099 C 0.19051 0.36052 0.17528 0.0
H3100 H 0.14808 0.31435 0.17916 0.0
H3101 H 0.27191 0.52196 0.18685 0.0
H3102 H 0.73261 0.5489 0.88721 0.0
H3103 H 0.74533 0.5656 0.86273 0.0
H3104 H 0.8072 0.58287 0.88104 0.0
H3105 H 0.7947 0.56705 0.90598 0.0
H3106 H 0.80715 0.61408 0.86829 0.0
H3107 H 0.77838 0.54238 0.8508 0.0
H3108 H 0.75169 0.50559 0.84682 0.0
H3109 H 0.71233 0.52 0.81763 0.0
H3110 H 0.73869 0.55693 0.82162 0.0
H3111 H 0.85156 0.64027 0.79412 0.0
H3112 H 0.83823 0.62252 0.8181 0.0
H3113 H 0.77786 0.61161 0.80193 0.0
H3114 H 0.79115 0.62986 0.77807 0.0
H3115 H 0.77708 0.57712 0.81333 0.0
H3116 H 0.80628 0.64902 0.83113 0.0
H3117 H 0.83346 0.68563 0.83493 0.0
H3118 H 0.87263 0.67035 0.86342 0.0
H3119 H 0.84578 0.63358 0.85959 0.0
C3120 C 0.74897 0.55646 0.88616 0.0
C3121 C 0.76263 0.55667 0.89865 0.0
C3122 C 0.7562 0.56578 0.87202 0.0
C3123 C 0.77721 0.57526 0.86989 0.0
C3124 C 0.79091 0.57558 0.88235 0.0
C3125 C 0.78371 0.56637 0.89656 0.0
C3126 C 0.78493 0.58517 0.85482 0.0
C3127 C 0.80076 0.60587 0.85629 0.0
C3128 C 0.7763 0.57466 0.83911 0.0
C3129 C 0.76044 0.55245 0.83665 0.0
C3130 C 0.76397 0.53773 0.84364 0.0
C3131 C 0.74891 0.51684 0.84136 0.0
C3132 C 0.7303 0.51047 0.83201 0.0
C3133 C 0.72674 0.52496 0.82489 0.0
C3134 C 0.74174 0.54587 0.82714 0.0
C3135 C 0.83549 0.63432 0.79571 0.0
C3136 C 0.82251 0.63676 0.7842 0.0
C3137 C 0.82787 0.62406 0.8094 0.0
C3138 C 0.80711 0.61596 0.81191 0.0
C3139 C 0.79395 0.61778 0.80025 0.0
C3140 C 0.80158 0.62817 0.78657 0.0
C3141 C 0.79929 0.60592 0.82686 0.0
C3142 C 0.78344 0.58525 0.82535 0.0
C3143 C 0.80796 0.6164 0.84254 0.0
C3144 C 0.82409 0.63852 0.84493 0.0
C3145 C 0.82075 0.65344 0.83809 0.0
C3146 C 0.83609 0.67423 0.84027 0.0
C3147 C 0.85478 0.68031 0.84937 0.0
C3148 C 0.85816 0.66561 0.85635 0.0
C3149 C 0.84288 0.6448 0.85419 0.0
H3150 H 0.86664 0.69641 0.85105 0.0
H3151 H 0.71866 0.49429 0.83026 0.0
H3152 H 0.43915 0.19019 0.91252 0.0
H3153 H 0.42491 0.18756 0.88462 0.0
H3154 H 0.47615 0.24734 0.87847 0.0
H3155 H 0.49071 0.24997 0.9063 0.0
H3156 H 0.43936 0.24279 0.86613 0.0
H3157 H 0.47497 0.20492 0.86235 0.0
H3158 H 0.48394 0.17877 0.86957 0.0
H3159 H 0.42144 0.13079 0.85602 0.0
H3160 H 0.41203 0.15668 0.84892 0.0
H3161 H 0.41843 0.23459 0.7804 0.0
H3162 H 0.43581 0.23858 0.80746 0.0
H3163 H 0.38819 0.17768 0.81578 0.0
H3164 H 0.37091 0.17358 0.78874 0.0
H3165 H 0.42491 0.18379 0.82671 0.0
H3166 H 0.38875 0.22122 0.83172 0.0
H3167 H 0.37917 0.24702 0.82477 0.0
H3168 H 0.44192 0.29542 0.83634 0.0
H3169 H 0.45192 0.26984 0.84314 0.0
C3170 C 0.44747 0.20273 0.90521 0.0
C3171 C 0.46613 0.22025 0.91164 0.0
C3172 C 0.43929 0.20121 0.88927 0.0
C3173 C 0.4496 0.21714 0.87941 0.0
C3174 C 0.46795 0.23487 0.88588 0.0
C3175 C 0.47619 0.23638 0.90182 0.0
C3176 C 0.44125 0.21523 0.86231 0.0
C3177 C 0.43648 0.23007 0.85743 0.0
C3178 C 0.43712 0.19839 0.85106 0.0
C3179 C 0.44276 0.18277 0.85524 0.0
C3180 C 0.4631 0.18881 0.86103 0.0
C3181 C 0.46827 0.17403 0.86508 0.0
C3182 C 0.45326 0.15314 0.86329 0.0
C3183 C 0.43305 0.14698 0.85741 0.0
C3184 C 0.4278 0.1617 0.85336 0.0
C3185 C 0.4117 0.22209 0.78804 0.0
C3186 C 0.39327 0.20383 0.78252 0.0
C3187 C 0.42162 0.22437 0.80348 0.0
C3188 C 0.41315 0.20853 0.81375 0.0
C3189 C 0.39502 0.1901 0.80808 0.0
C3190 C 0.38516 0.18777 0.79263 0.0
C3191 C 0.42284 0.21127 0.83054 0.0
C3192 C 0.42787 0.19657 0.83537 0.0
C3193 C 0.42712 0.22819 0.84177 0.0
C3194 C 0.42112 0.2436 0.83777 0.0
C3195 C 0.40053 0.23734 0.83266 0.0
C3196 C 0.39502 0.25193 0.82877 0.0
C3197 C 0.40994 0.27284 0.83007 0.0
C3198 C 0.43039 0.27921 0.83531 0.0
C3199 C 0.43598 0.26468 0.8392 0.0
H3200 H 0.40564 0.28411 0.82705 0.0
H3201 H 0.45729 0.14172 0.86644 0.0
H3202 H 0.81445 0.22437 0.91958 0.0
H3203 H 0.8207 0.2147 0.8927 0.0
H3204 H 0.77663 0.22897 0.87032 0.0
H3205 H 0.76979 0.23782 0.89723 0.0
H3206 H 0.77451 0.19788 0.85298 0.0
H3207 H 0.82938 0.26412 0.87528 0.0
H3208 H 0.85684 0.28932 0.89587 0.0
H3209 H 0.88896 0.25568 0.89189 0.0
H3210 H 0.86148 0.23007 0.87147 0.0
H3211 H 0.81642 0.21912 0.77636 0.0
H3212 H 0.80491 0.22177 0.80293 0.0
H3213 H 0.84317 0.19997 0.82452 0.0
H3214 H 0.85503 0.19765 0.79808 0.0
H3215 H 0.84768 0.23425 0.84196 0.0
H3216 H 0.79153 0.16876 0.81745 0.0
H3217 H 0.764 0.146 0.79591 0.0
H3218 H 0.73424 0.18153 0.80287 0.0
H3219 H 0.76182 0.20479 0.82421 0.0
C3220 C 0.80583 0.22503 0.90891 0.0
C3221 C 0.79171 0.23191 0.91045 0.0
C3222 C 0.80949 0.21965 0.89355 0.0
C3223 C 0.79954 0.22162 0.87941 0.0
C3224 C 0.78457 0.22739 0.88099 0.0
C3225 C 0.78064 0.23241 0.89638 0.0
C3226 C 0.80571 0.21904 0.86308 0.0
C3227 C 0.79049 0.20597 0.85055 0.0
C3228 C 0.82658 0.22954 0.85983 0.0
C3229 C 0.84327 0.24506 0.87196 0.0
C3230 C 0.84223 0.26202 0.87887 0.0
C3231 C 0.8578 0.27638 0.89051 0.0
C3232 C 0.87461 0.27408 0.89522 0.0
C3233 C 0.87591 0.25743 0.88825 0.0
C3234 C 0.86034 0.24299 0.87664 0.0
C3235 C 0.82241 0.21493 0.78678 0.0
C3236 C 0.83663 0.20815 0.78509 0.0
C3237 C 0.81568 0.21629 0.80193 0.0
C3238 C 0.82304 0.2109 0.8157 0.0
C3239 C 0.83722 0.20413 0.81405 0.0
C3240 C 0.84387 0.20267 0.79891 0.0
C3241 C 0.81653 0.21294 0.83195 0.0
C3242 C 0.83171 0.22604 0.84444 0.0
C3243 C 0.79561 0.20281 0.83501 0.0
C3244 C 0.77886 0.18864 0.82233 0.0
C3245 C 0.77921 0.17183 0.8143 0.0
C3246 C 0.76359 0.15884 0.80212 0.0
C3247 C 0.74744 0.16238 0.79797 0.0
C3248 C 0.74681 0.17886 0.80604 0.0
C3249 C 0.76243 0.19195 0.81819 0.0
H3250 H 0.73537 0.15232 0.78853 0.0
H3251 H 0.88665 0.28521 0.90423 0.0
H3252 H 0.22954 0.13958 0.4359 0.0
H3253 H 0.24394 0.15198 0.46439 0.0
H3254 H 0.21481 0.08916 0.4765 0.0
H3255 H 0.20028 0.07681 0.44829 0.0
H3256 H 0.21162 0.11448 0.49961 0.0
H3257 H 0.26462 0.11412 0.46921 0.0
H3258 H 0.28784 0.12441 0.44756 0.0
H3259 H 0.31502 0.18802 0.46611 0.0
H3260 H 0.29173 0.17811 0.48776 0.0
H3261 H 0.26809 0.109 0.56779 0.0
H3262 H 0.25027 0.10662 0.54148 0.0
H3263 H 0.28977 0.17197 0.53944 0.0
H3264 H 0.30782 0.17442 0.56582 0.0
H3265 H 0.28752 0.15159 0.51177 0.0
H3266 H 0.23748 0.1516 0.54445 0.0
H3267 H 0.21391 0.14125 0.5659 0.0
H3268 H 0.18158 0.07887 0.54362 0.0
H3269 H 0.20477 0.08883 0.52194 0.0
C3270 C 0.22604 0.1285 0.44472 0.0
C3271 C 0.21403 0.10724 0.43987 0.0
C3272 C 0.23432 0.13557 0.46094 0.0
C3273 C 0.2306 0.12147 0.47253 0.0
C3274 C 0.21791 0.10031 0.46778 0.0
C3275 C 0.20977 0.09327 0.45163 0.0
C3276 C 0.24063 0.12837 0.48944 0.0
C3277 C 0.22822 0.12259 0.5023 0.0
C3278 C 0.26228 0.13946 0.49296 0.0
C3279 C 0.27627 0.1454 0.47996 0.0
C3280 C 0.27542 0.13031 0.46858 0.0
C3281 C 0.28862 0.13607 0.45633 0.0
C3282 C 0.30285 0.15686 0.45542 0.0
C3283 C 0.30395 0.17193 0.4668 0.0
C3284 C 0.29076 0.16625 0.47907 0.0
C3285 C 0.27279 0.12293 0.56187 0.0
C3286 C 0.2894 0.14189 0.56887 0.0
C3287 C 0.26252 0.12157 0.54684 0.0
C3288 C 0.26847 0.13917 0.53855 0.0
C3289 C 0.28489 0.15819 0.54561 0.0
C3290 C 0.29525 0.15955 0.56064 0.0
C3291 C 0.2585 0.13727 0.522 0.0
C3292 C 0.27093 0.14393 0.50919 0.0
C3293 C 0.23686 0.12703 0.51854 0.0
C3294 C 0.22294 0.12095 0.53161 0.0
C3295 C 0.22541 0.13565 0.54417 0.0
C3296 C 0.2121 0.12987 0.55635 0.0
C3297 C 0.19637 0.10941 0.55618 0.0
C3298 C 0.19379 0.09471 0.54375 0.0
C3299 C 0.20694 0.10043 0.53146 0.0
H3300 H 0.18613 0.10497 0.56566 0.0
H3301 H 0.31306 0.16129 0.44593 0.0
H3302 H 0.88407 0.11517 0.43993 0.0
H3303 H 0.87117 0.11757 0.46575 0.0
H3304 H 0.93097 0.16859 0.48406 0.0
H3305 H 0.94438 0.16531 0.45875 0.0
H3306 H 0.91707 0.14488 0.50653 0.0
H3307 H 0.88824 0.17434 0.47149 0.0
H3308 H 0.86899 0.17618 0.4471 0.0
H3309 H 0.81414 0.12279 0.45829 0.0
H3310 H 0.83314 0.12047 0.48264 0.0
H3311 H 0.88349 0.17793 0.57444 0.0
H3312 H 0.89607 0.17649 0.54826 0.0
H3313 H 0.84057 0.11876 0.53303 0.0
H3314 H 0.82774 0.12007 0.55921 0.0
H3315 H 0.85235 0.14659 0.50927 0.0
H3316 H 0.88303 0.1175 0.54422 0.0
H3317 H 0.90306 0.11737 0.56882 0.0
H3318 H 0.95547 0.1734 0.55807 0.0
H3319 H 0.93572 0.17383 0.53335 0.0
C3320 C 0.89458 0.12678 0.44948 0.0
C3321 C 0.9153 0.14007 0.44713 0.0
C3322 C 0.88707 0.12834 0.46421 0.0
C3323 C 0.89997 0.14351 0.47683 0.0
C3324 C 0.92064 0.15681 0.47452 0.0
C3325 C 0.92824 0.15507 0.4599 0.0
C3326 C 0.89211 0.14519 0.49259 0.0
C3327 C 0.90308 0.14557 0.50708 0.0
C3328 C 0.87366 0.14576 0.49343 0.0
C3329 C 0.86217 0.14712 0.47881 0.0
C3330 C 0.87211 0.1629 0.46868 0.0
C3331 C 0.86124 0.16404 0.45488 0.0
C3332 C 0.84037 0.14958 0.45113 0.0
C3333 C 0.83031 0.13397 0.4612 0.0
C3334 C 0.84112 0.13275 0.47501 0.0
C3335 C 0.87388 0.16491 0.56558 0.0
C3336 C 0.85469 0.14895 0.56912 0.0
C3337 C 0.88117 0.16409 0.5506 0.0
C3338 C 0.86936 0.1474 0.53877 0.0
C3339 C 0.84999 0.13172 0.54204 0.0
C3340 C 0.84277 0.13242 0.55708 0.0
C3341 C 0.87731 0.14624 0.52302 0.0
C3342 C 0.86636 0.14596 0.50861 0.0
C3343 C 0.89592 0.14607 0.52224 0.0
C3344 C 0.90786 0.14578 0.53702 0.0
C3345 C 0.89879 0.12985 0.54715 0.0
C3346 C 0.91011 0.12971 0.5611 0.0
C3347 C 0.93051 0.14541 0.56505 0.0
C3348 C 0.93967 0.16125 0.555 0.0
C3349 C 0.92844 0.16142 0.54099 0.0
H3350 H 0.93924 0.14529 0.57586 0.0
H3351 H 0.83198 0.15049 0.44043 0.0
H3352 H 0.90808 0.80377 0.46575 0.0
H3353 H 0.90191 0.78911 0.49183 0.0
H3354 H 0.84929 0.73333 0.46846 0.0
H3355 H 0.85514 0.74821 0.44247 0.0
H3356 H 0.83903 0.74497 0.49439 0.0
H3357 H 0.89609 0.73647 0.48292 0.0
H3358 H 0.93114 0.74726 0.47595 0.0
H3359 H 0.95666 0.78996 0.519 0.0
H3360 H 0.92174 0.77962 0.52613 0.0
H3361 H 0.82155 0.68152 0.55829 0.0
H3362 H 0.83127 0.69695 0.53286 0.0
H3363 H 0.87615 0.75481 0.55953 0.0
H3364 H 0.86662 0.73943 0.58515 0.0
H3365 H 0.89113 0.74313 0.53276 0.0
H3366 H 0.83326 0.75056 0.54404 0.0
H3367 H 0.79793 0.73856 0.55088 0.0
H3368 H 0.77372 0.69627 0.50757 0.0
H3369 H 0.80894 0.70781 0.50059 0.0
C3370 C 0.89546 0.78822 0.46614 0.0
C3371 C 0.88211 0.77711 0.45208 0.0
C3372 C 0.89192 0.77983 0.48106 0.0
C3373 C 0.87519 0.76001 0.48216 0.0
C3374 C 0.86225 0.74867 0.46799 0.0
C3375 C 0.86563 0.75714 0.45313 0.0
C3376 C 0.87036 0.75155 0.49817 0.0
C3377 C 0.85039 0.74431 0.50263 0.0
C3378 C 0.88528 0.75118 0.50922 0.0
C3379 C 0.90629 0.75742 0.50497 0.0
C3380 C 0.90917 0.74828 0.49083 0.0
C3381 C 0.92902 0.75429 0.48687 0.0
C3382 C 0.94612 0.76933 0.497 0.0
C3383 C 0.9434 0.77834 0.51115 0.0
C3384 C 0.92359 0.7724 0.51517 0.0
C3385 C 0.83365 0.69747 0.55881 0.0
C3386 C 0.84345 0.70914 0.57383 0.0
C3387 C 0.83907 0.70632 0.54423 0.0
C3388 C 0.8544 0.72704 0.5443 0.0
C3389 C 0.8643 0.73877 0.55921 0.0
C3390 C 0.85873 0.72998 0.57385 0.0
C3391 C 0.85982 0.7364 0.52874 0.0
C3392 C 0.87986 0.74383 0.52444 0.0
C3393 C 0.84495 0.73681 0.51774 0.0
C3394 C 0.82375 0.72993 0.52187 0.0
C3395 C 0.82041 0.73859 0.53604 0.0
C3396 C 0.8004 0.73189 0.53993 0.0
C3397 C 0.78359 0.71663 0.52969 0.0
C3398 C 0.78675 0.70807 0.5155 0.0
C3399 C 0.80673 0.7147 0.51156 0.0
H3400 H 0.76811 0.71146 0.53272 0.0
H3401 H 0.96147 0.77396 0.49391 0.0
loop_
_geom_bond_atom_site_label_1
_geom_bond_atom_site_label_2
_geom_bond_distance
_geom_bond_site_symmetry_2
_ccdc_geom_bond_type
H0 C1 0.949 . S
C1 H0 0.949 . S
C1 C2 1.395 . S
C1 C3 1.391 . S
C2 C1 1.395 . S
C2 C5 1.390 . S
C3 C1 1.391 . S
C3 C7 1.387 . S
C3 C8 1.491 . S
H4 C5 0.950 . S
C5 C2 1.390 . S
C5 H4 0.950 . S
C5 C6 1.378 . S
C6 C5 1.378 . S
C6 C7 1.409 . S
C7 C3 1.387 . S
C7 C6 1.409 . S
C7 H9 0.951 . S
C8 C3 1.491 . S
C8 C10 1.382 . S
C8 C12 1.404 . S
H9 C7 0.951 . S
C10 C8 1.382 . S
C10 C11 1.390 . S
C10 H15 0.949 . S
C11 C10 1.390 . S
C11 C16 1.399 . S
C12 C8 1.404 . S
C12 H13 0.950 . S
C12 C14 1.375 . S
H13 C12 0.950 . S
C14 C12 1.375 . S
C14 C16 1.382 . S
C14 H18 0.950 . S
H15 C10 0.949 . S
C16 C11 1.399 . S
C16 C14 1.382 . S
C16 H17 0.952 . S
H17 C16 0.952 . S
H18 C14 0.950 . S
H19 C20 0.949 . S
C20 H19 0.949 . S
C20 C21 1.395 . S
C20 C22 1.391 . S
C21 C20 1.395 . S
C21 C24 1.390 . S
C22 C20 1.391 . S
C22 C26 1.387 . S
C22 C27 1.491 . S
H23 C24 0.950 . S
C24 C21 1.390 . S
C24 H23 0.950 . S
C24 C25 1.378 . S
C25 C24 1.378 . S
C25 C26 1.409 . S
C26 C22 1.387 . S
C26 C25 1.409 . S
C26 H28 0.951 . S
C27 C22 1.491 . S
C27 C29 1.382 . S
C27 C31 1.404 . S
H28 C26 0.951 . S
C29 C27 1.382 . S
C29 C30 1.390 . S
C29 H34 0.949 . S
C30 C29 1.390 . S
C30 C35 1.399 . S
C31 C27 1.404 . S
C31 H32 0.950 . S
C31 C33 1.375 . S
H32 C31 0.950 . S
C33 C31 1.375 . S
C33 C35 1.382 . S
C33 H37 0.950 . S
H34 C29 0.949 . S
C35 C30 1.399 . S
C35 C33 1.382 . S
C35 H36 0.952 . S
H36 C35 0.952 . S
H37 C33 0.950 . S
H38 C39 0.949 . S
C39 H38 0.949 . S
C39 C40 1.395 . S
C39 C41 1.391 . S
C40 C39 1.395 . S
C40 C43 1.390 . S
C41 C39 1.391 . S
C41 C45 1.387 . S
C41 C46 1.491 . S
H42 C43 0.950 . S
C43 C40 1.390 . S
C43 H42 0.950 . S
C43 C44 1.378 . S
C44 C43 1.378 . S
C44 C45 1.409 . S
C45 C41 1.387 . S
C45 C44 1.409 . S
C45 H47 0.951 . S
C46 C41 1.491 . S
C46 C48 1.382 . S
C46 C50 1.404 . S
H47 C45 0.951 . S
C48 C46 1.382 . S
C48 C49 1.390 . S
C48 H53 0.949 . S
C49 C48 1.390 . S
C49 C54 1.399 . S
C50 C46 1.404 . S
C50 H51 0.950 . S
C50 C52 1.375 . S
H51 C50 0.950 . S
C52 C50 1.375 . S
C52 C54 1.382 . S
C52 H56 0.950 . S
H53 C48 0.949 . S
C54 C49 1.399 . S
C54 C52 1.382 . S
C54 H55 0.952 . S
H55 C54 0.952 . S
H56 C52 0.950 . S
H57 C58 0.949 . S
C58 H57 0.949 . S
C58 C59 1.395 . S
C58 C60 1.391 . S
C59 C58 1.395 . S
C59 C62 1.390 . S
C60 C58 1.391 . S
C60 C64 1.387 . S
C60 C65 1.491 . S
H61 C62 0.950 . S
C62 C59 1.390 . S
C62 H61 0.950 . S
C62 C63 1.378 . S
C63 C62 1.378 . S
C63 C64 1.409 . S
C64 C60 1.387 . S
C64 C63 1.409 . S
C64 H66 0.951 . S
C65 C60 1.491 . S
C65 C67 1.382 . S
C65 C69 1.404 . S
H66 C64 0.951 . S
C67 C65 1.382 . S
C67 C68 1.390 . S
C67 H72 0.949 . S
C68 C67 1.390 . S
C68 C73 1.399 . S
C69 C65 1.404 . S
C69 H70 0.950 . S
C69 C71 1.375 . S
H70 C69 0.950 . S
C71 C69 1.375 . S
C71 C73 1.382 . S
C71 H75 0.950 . S
H72 C67 0.949 . S
C73 C68 1.399 . S
C73 C71 1.382 . S
C73 H74 0.952 . S
H74 C73 0.952 . S
H75 C71 0.950 . S
H76 C77 0.949 . S
C77 H76 0.949 . S
C77 C78 1.395 . S
C77 C79 1.391 . S
C78 C77 1.395 . S
C78 C81 1.390 . S
C79 C77 1.391 . S
C79 C83 1.387 . S
C79 C84 1.491 . S
H80 C81 0.950 . S
C81 C78 1.390 . S
C81 H80 0.950 . S
C81 C82 1.378 . S
C82 C81 1.378 . S
C82 C83 1.409 . S
C83 C79 1.387 . S
C83 C82 1.409 . S
C83 H85 0.951 . S
C84 C79 1.491 . S
C84 C86 1.382 . S
C84 C88 1.404 . S
H85 C83 0.951 . S
C86 C84 1.382 . S
C86 C87 1.390 . S
C86 H91 0.949 . S
C87 C86 1.390 . S
C87 C92 1.399 . S
C88 C84 1.404 . S
C88 H89 0.950 . S
C88 C90 1.375 . S
H89 C88 0.950 . S
C90 C88 1.375 . S
C90 C92 1.382 . S
C90 H94 0.950 . S
H91 C86 0.949 . S
C92 C87 1.399 . S
C92 C90 1.382 . S
C92 H93 0.952 . S
H93 C92 0.952 . S
H94 C90 0.950 . S
H95 C96 0.949 . S
C96 H95 0.949 . S
C96 C97 1.395 . S
C96 C98 1.391 . S
C97 C96 1.395 . S
C97 C100 1.390 . S
C98 C96 1.391 . S
C98 C102 1.387 . S
C98 C103 1.491 . S
H99 C100 0.950 . S
C100 C97 1.390 . S
C100 H99 0.950 . S
C100 C101 1.378 . S
C101 C100 1.378 . S
C101 C102 1.409 . S
C102 C98 1.387 . S
C102 C101 1.409 . S
C102 H104 0.951 . S
C103 C98 1.491 . S
C103 C105 1.382 . S
C103 C107 1.404 . S
H104 C102 0.951 . S
C105 C103 1.382 . S
C105 C106 1.390 . S
C105 H110 0.949 . S
C106 C105 1.390 . S
C106 C111 1.399 . S
C107 C103 1.404 . S
C107 H108 0.950 . S
C107 C109 1.375 . S
H108 C107 0.950 . S
C109 C107 1.375 . S
C109 C111 1.382 . S
C109 H113 0.950 . S
H110 C105 0.949 . S
C111 C106 1.399 . S
C111 C109 1.382 . S
C111 H112 0.952 . S
H112 C111 0.952 . S
H113 C109 0.950 . S
H114 C115 0.949 . S
C115 H114 0.949 . S
C115 C116 1.395 . S
C115 C117 1.391 . S
C116 C115 1.395 . S
C116 C119 1.390 . S
C117 C115 1.391 . S
C117 C121 1.387 . S
C117 C122 1.491 . S
H118 C119 0.950 . S
C119 C116 1.390 . S
C119 H118 0.950 . S
C119 C120 1.378 . S
C120 C119 1.378 . S
C120 C121 1.409 . S
C121 C117 1.387 . S
C121 C120 1.409 . S
C121 H123 0.951 . S
C122 C117 1.491 . S
C122 C124 1.382 . S
C122 C126 1.404 . S
H123 C121 0.951 . S
C124 C122 1.382 . S
C124 C125 1.390 . S
C124 H129 0.949 . S
C125 C124 1.390 . S
C125 C130 1.399 . S
C126 C122 1.404 . S
C126 H127 0.950 . S
C126 C128 1.375 . S
H127 C126 0.950 . S
C128 C126 1.375 . S
C128 C130 1.382 . S
C128 H132 0.950 . S
H129 C124 0.949 . S
C130 C125 1.399 . S
C130 C128 1.382 . S
C130 H131 0.952 . S
H131 C130 0.952 . S
H132 C128 0.950 . S
H133 C134 0.949 . S
C134 H133 0.949 . S
C134 C135 1.395 . S
C134 C136 1.391 . S
C135 C134 1.395 . S
C135 C138 1.390 . S
C136 C134 1.391 . S
C136 C140 1.387 . S
C136 C141 1.491 . S
H137 C138 0.950 . S
C138 C135 1.390 . S
C138 H137 0.950 . S
C138 C139 1.378 . S
C139 C138 1.378 . S
C139 C140 1.409 . S
C140 C136 1.387 . S
C140 C139 1.409 . S
C140 H142 0.951 . S
C141 C136 1.491 . S
C141 C143 1.382 . S
C141 C145 1.404 . S
H142 C140 0.951 . S
C143 C141 1.382 . S
C143 C144 1.390 . S
C143 H148 0.949 . S
C144 C143 1.390 . S
C144 C149 1.399 . S
C145 C141 1.404 . S
C145 H146 0.950 . S
C145 C147 1.375 . S
H146 C145 0.950 . S
C147 C145 1.375 . S
C147 C149 1.382 . S
C147 H151 0.950 . S
H148 C143 0.949 . S
C149 C144 1.399 . S
C149 C147 1.382 . S
C149 H150 0.952 . S
H150 C149 0.952 . S
H151 C147 0.950 . S
H152 C153 0.949 . S
C153 H152 0.949 . S
C153 C154 1.395 . S
C153 C155 1.391 . S
C154 C153 1.395 . S
C154 C157 1.390 . S
C155 C153 1.391 . S
C155 C159 1.387 . S
C155 C160 1.491 . S
H156 C157 0.950 . S
C157 C154 1.390 . S
C157 H156 0.950 . S
C157 C158 1.378 . S
C158 C157 1.378 . S
C158 C159 1.409 . S
C159 C155 1.387 . S
C159 C158 1.409 . S
C159 H161 0.951 . S
C160 C155 1.491 . S
C160 C162 1.382 . S
C160 C164 1.404 . S
H161 C159 0.951 . S
C162 C160 1.382 . S
C162 C163 1.390 . S
C162 H167 0.949 . S
C163 C162 1.390 . S
C163 C168 1.399 . S
C164 C160 1.404 . S
C164 H165 0.950 . S
C164 C166 1.375 . S
H165 C164 0.950 . S
C166 C164 1.375 . S
C166 C168 1.382 . S
C166 H170 0.950 . S
H167 C162 0.949 . S
C168 C163 1.399 . S
C168 C166 1.382 . S
C168 H169 0.952 . S
H169 C168 0.952 . S
H170 C166 0.950 . S
H171 C172 0.949 . S
C172 H171 0.949 . S
C172 C173 1.395 . S
C172 C174 1.391 . S
C173 C172 1.395 . S
C173 C176 1.390 . S
C174 C172 1.391 . S
C174 C178 1.387 . S
C174 C179 1.491 . S
H175 C176 0.950 . S
C176 C173 1.390 . S
C176 H175 0.950 . S
C176 C177 1.378 . S
C177 C176 1.378 . S
C177 C178 1.409 . S
C178 C174 1.387 . S
C178 C177 1.409 . S
C178 H180 0.951 . S
C179 C174 1.491 . S
C179 C181 1.382 . S
C179 C183 1.404 . S
H180 C178 0.951 . S
C181 C179 1.382 . S
C181 C182 1.390 . S
C181 H186 0.949 . S
C182 C181 1.390 . S
C182 C187 1.399 . S
C183 C179 1.404 . S
C183 H184 0.950 . S
C183 C185 1.375 . S
H184 C183 0.950 . S
C185 C183 1.375 . S
C185 C187 1.382 . S
C185 H189 0.950 . S
H186 C181 0.949 . S
C187 C182 1.399 . S
C187 C185 1.382 . S
C187 H188 0.952 . S
H188 C187 0.952 . S
H189 C185 0.950 . S
H190 C191 0.949 . S
C191 H190 0.949 . S
C191 C192 1.395 . S
C191 C193 1.391 . S
C192 C191 1.395 . S
C192 C195 1.390 . S
C193 C191 1.391 . S
C193 C197 1.387 . S
C193 C198 1.491 . S
H194 C195 0.950 . S
C195 C192 1.390 . S
C195 H194 0.950 . S
C195 C196 1.378 . S
C196 C195 1.378 . S
C196 C197 1.409 . S
C197 C193 1.387 . S
C197 C196 1.409 . S
C197 H199 0.951 1_556 S
C198 C193 1.491 . S
C198 C200 1.382 . S
C198 C202 1.404 1_556 S
H199 C197 0.951 1_554 S
C200 C198 1.382 . S
C200 C201 1.376 1_556 S
C200 H205 0.949 . S
C201 C200 1.376 1_554 S
C201 C206 1.417 . S
C202 C198 1.404 1_554 S
C202 H203 0.950 . S
C202 C204 1.375 . S
H203 C202 0.950 . S
C204 C202 1.375 . S
C204 C206 1.382 . S
C204 H208 0.950 . S
H205 C200 0.949 . S
C206 C201 1.417 . S
C206 C204 1.382 . S
C206 H207 0.952 . S
H207 C206 0.952 . S
H208 C204 0.950 . S
H209 C210 0.949 . S
C210 H209 0.949 . S
C210 C211 1.395 . S
C210 C212 1.391 . S
C211 C210 1.395 . S
C211 C214 1.390 . S
C212 C210 1.391 . S
C212 C216 1.387 . S
C212 C217 1.491 . S
H213 C214 0.950 . S
C214 C211 1.390 . S
C214 H213 0.950 . S
C214 C215 1.378 . S
C215 C214 1.378 . S
C215 C216 1.409 . S
C216 C212 1.387 . S
C216 C215 1.409 . S
C216 H218 0.951 . S
C217 C212 1.491 . S
C217 C219 1.382 . S
C217 C221 1.404 . S
H218 C216 0.951 . S
C219 C217 1.382 . S
C219 C220 1.390 . S
C219 H224 0.949 . S
C220 C219 1.390 . S
C220 C225 1.399 . S
C221 C217 1.404 . S
C221 H222 0.950 . S
C221 C223 1.375 . S
H222 C221 0.950 . S
C223 C221 1.375 . S
C223 C225 1.382 . S
C223 H227 0.950 . S
H224 C219 0.949 . S
C225 C220 1.399 . S
C225 C223 1.382 . S
C225 H226 0.952 . S
H226 C225 0.952 . S
H227 C223 0.950 . S
H228 C229 0.949 . S
C229 H228 0.949 . S
C229 C230 1.395 . S
C229 C231 1.391 . S
C230 C229 1.395 . S
C230 C233 1.390 . S
C231 C229 1.391 . S
C231 C235 1.387 . S
C231 C236 1.491 . S
H232 C233 0.950 . S
C233 C230 1.390 . S
C233 H232 0.950 . S
C233 C234 1.378 . S
C234 C233 1.378 . S
C234 C235 1.409 . S
C235 C231 1.387 . S
C235 C234 1.409 . S
C235 H237 0.951 . S
C236 C231 1.491 . S
C236 C238 1.382 . S
C236 C240 1.404 . S
H237 C235 0.951 . S
C238 C236 1.382 . S
C238 C239 1.390 . S
C238 H243 0.949 . S
C239 C238 1.390 . S
C239 C244 1.399 . S
C240 C236 1.404 . S
C240 H241 0.950 . S
C240 C242 1.375 . S
H241 C240 0.950 . S
C242 C240 1.375 . S
C242 C244 1.382 . S
C242 H246 0.950 . S
H243 C238 0.949 . S
C244 C239 1.399 . S
C244 C242 1.382 . S
C244 H245 0.952 . S
H245 C244 0.952 . S
H246 C242 0.950 . S
H247 C248 0.949 . S
C248 H247 0.949 . S
C248 C249 1.395 . S
C248 C250 1.391 . S
C249 C248 1.395 . S
C249 C252 1.390 . S
C250 C248 1.391 . S
C250 C254 1.387 . S
C250 C255 1.491 . S
H251 C252 0.950 . S
C252 C249 1.390 . S
C252 H251 0.950 . S
C252 C253 1.378 . S
C253 C252 1.378 . S
C253 C254 1.409 . S
C254 C250 1.387 . S
C254 C253 1.409 . S
C254 H256 0.951 . S
C255 C250 1.491 . S
C255 C257 1.382 . S
C255 C259 1.404 . S
H256 C254 0.951 . S
C257 C255 1.382 . S
C257 C258 1.390 . S
C257 H262 0.949 . S
C258 C257 1.390 . S
C258 C263 1.399 . S
C259 C255 1.404 . S
C259 H260 0.950 . S
C259 C261 1.375 . S
H260 C259 0.950 . S
C261 C259 1.375 . S
C261 C263 1.382 . S
C261 H265 0.950 . S
H262 C257 0.949 . S
C263 C258 1.399 . S
C263 C261 1.382 . S
C263 H264 0.952 . S
H264 C263 0.952 . S
H265 C261 0.950 . S
H266 C267 0.949 . S
C267 H266 0.949 . S
C267 C268 1.395 . S
C267 C269 1.391 . S
C268 C267 1.395 . S
C268 C271 1.390 . S
C269 C267 1.391 . S
C269 C273 1.387 . S
C269 C274 1.491 . S
H270 C271 0.950 . S
C271 C268 1.390 . S
C271 H270 0.950 . S
C271 C272 1.378 . S
C272 C271 1.378 . S
C272 C273 1.409 . S
C273 C269 1.387 . S
C273 C272 1.409 . S
C273 H275 0.951 . S
C274 C269 1.491 . S
C274 C276 1.382 . S
C274 C278 1.404 . S
H275 C273 0.951 . S
C276 C274 1.382 . S
C276 C277 1.390 . S
C276 H281 0.949 . S
C277 C276 1.390 . S
C277 C282 1.399 . S
C278 C274 1.404 . S
C278 H279 0.950 . S
C278 C280 1.375 . S
H279 C278 0.950 . S
C280 C278 1.375 . S
C280 C282 1.382 . S
C280 H284 0.950 . S
H281 C276 0.949 . S
C282 C277 1.399 . S
C282 C280 1.382 . S
C282 H283 0.952 . S
H283 C282 0.952 . S
H284 C280 0.950 . S
H285 C286 0.949 . S
C286 H285 0.949 . S
C286 C287 1.395 . S
C286 C288 1.391 . S
C287 C286 1.395 . S
C287 C290 1.390 . S
C288 C286 1.391 . S
C288 C292 1.387 . S
C288 C293 1.491 . S
H289 C290 0.950 . S
C290 C287 1.390 . S
C290 H289 0.950 . S
C290 C291 1.378 . S
C291 C290 1.378 . S
C291 C292 1.409 . S
C292 C288 1.387 . S
C292 C291 1.409 . S
C292 H294 0.951 . S
C293 C288 1.491 . S
C293 C295 1.382 . S
C293 C297 1.404 . S
H294 C292 0.951 . S
C295 C293 1.382 . S
C295 C296 1.390 . S
C295 H300 0.949 . S
C296 C295 1.390 . S
C296 C301 1.399 . S
C297 C293 1.404 . S
C297 H298 0.950 . S
C297 C299 1.375 . S
H298 C297 0.950 . S
C299 C297 1.375 . S
C299 C301 1.382 . S
C299 H303 0.950 . S
H300 C295 0.949 . S
C301 C296 1.399 . S
C301 C299 1.382 . S
C301 H302 0.952 . S
H302 C301 0.952 . S
H303 C299 0.950 . S
H304 C305 0.949 . S
C305 H304 0.949 . S
C305 C306 1.395 . S
C305 C307 1.391 . S
C306 C305 1.395 . S
C306 C309 1.390 . S
C307 C305 1.391 . S
C307 C311 1.387 . S
C307 C312 1.491 . S
H308 C309 0.950 . S
C309 C306 1.390 . S
C309 H308 0.950 . S
C309 C310 1.378 . S
C310 C309 1.378 . S
C310 C311 1.409 . S
C311 C307 1.387 . S
C311 C310 1.409 . S
C311 H313 0.951 . S
C312 C307 1.491 . S
C312 C314 1.382 . S
C312 C316 1.404 . S
H313 C311 0.951 . S
C314 C312 1.382 . S
C314 C315 1.390 . S
C314 H319 0.949 . S
C315 C314 1.390 . S
C315 C320 1.399 . S
C316 C312 1.404 . S
C316 H317 0.950 . S
C316 C318 1.375 . S
H317 C316 0.950 . S
C318 C316 1.375 . S
C318 C320 1.382 . S
C318 H322 0.950 . S
H319 C314 0.949 . S
C320 C315 1.399 . S
C320 C318 1.382 . S
C320 H321 0.952 . S
H321 C320 0.952 . S
H322 C318 0.950 . S
H323 C324 0.949 . S
C324 H323 0.949 . S
C324 C325 1.395 . S
C324 C326 1.391 . S
C325 C324 1.395 . S
C325 C328 1.390 . S
C326 C324 1.391 . S
C326 C330 1.387 . S
C326 C331 1.491 . S
H327 C328 0.950 . S
C328 C325 1.390 . S
C328 H327 0.950 . S
C328 C329 1.378 . S
C329 C328 1.378 . S
C329 C330 1.409 . S
C330 C326 1.387 . S
C330 C329 1.409 . S
C330 H332 0.951 . S
C331 C326 1.491 . S
C331 C333 1.382 . S
C331 C335 1.404 . S
H332 C330 0.951 . S
C333 C331 1.382 . S
C333 C334 1.390 . S
C333 H338 0.949 . S
C334 C333 1.390 . S
C334 C339 1.399 . S
C335 C331 1.404 . S
C335 H336 0.950 . S
C335 C337 1.375 . S
H336 C335 0.950 . S
C337 C335 1.375 . S
C337 C339 1.382 . S
C337 H341 0.950 . S
H338 C333 0.949 . S
C339 C334 1.399 . S
C339 C337 1.382 . S
C339 H340 0.952 . S
H340 C339 0.952 . S
H341 C337 0.950 . S
C342 Eu343 2.835 1_565 S
C342 C344 1.500 . S
C342 O362 1.257 . S
C342 O363 1.260 1_565 S
Eu343 C342 2.835 1_545 S
Eu343 O362 2.473 1_545 S
Eu343 O363 2.480 . S
Eu343 O364 2.430 . S
Eu343 O365 2.733 . S
Eu343 O366 2.394 1_545 S
Eu343 O371 2.355 1_545 S
Eu343 O373 2.374 . S
C344 C342 1.500 . S
C344 C345 1.377 . S
C344 C349 1.377 . S
C345 C344 1.377 . S
C345 C346 1.395 . S
C345 H374 0.931 1_565 S
C346 C345 1.395 . S
C346 C347 1.383 . S
C346 H375 0.940 . S
C347 C346 1.383 . S
C347 C348 1.394 . S
C348 C347 1.394 . S
C348 C349 1.378 . S
C348 H376 0.931 . S
C349 C344 1.377 . S
C349 C348 1.378 . S
C349 H377 0.931 . S
C350 O364 1.259 . S
C350 O365 1.306 . S
C351 O366 1.251 . S
C351 O367 1.251 1_554 S
C352 Eu353 2.835 1_545 S
C352 C354 1.500 . S
C352 O368 1.257 . S
C352 O369 1.260 1_545 S
Eu353 C352 2.835 1_565 S
Eu353 O365 2.313 1_566 S
Eu353 O367 2.374 . S
Eu353 O368 2.473 1_565 S
Eu353 O369 2.480 . S
Eu353 O370 2.430 . S
Eu353 O371 2.670 1_556 S
Eu353 O372 2.394 1_565 S
C354 C352 1.500 . S
C354 C355 1.377 . S
C354 C359 1.377 . S
C355 C354 1.377 . S
C355 C356 1.395 . S
C355 H378 0.931 1_545 S
C356 C355 1.395 . S
C356 C357 1.383 . S
C356 H379 0.931 . S
C357 C356 1.383 . S
C357 C358 1.394 . S
C358 C357 1.394 . S
C358 C359 1.378 . S
C358 H380 0.931 . S
C359 C354 1.377 . S
C359 C358 1.378 . S
C359 H381 0.931 . S
C360 O370 1.259 1_554 S
C360 O371 1.270 . S
C361 O372 1.260 . S
C361 O373 1.237 1_556 S
O362 C342 1.257 . S
O362 Eu343 2.473 1_565 S
O363 C342 1.260 1_545 S
O363 Eu343 2.480 . S
O364 Eu343 2.430 . S
O364 C350 1.259 . S
O365 Eu343 2.733 . S
O365 C350 1.306 . S
O365 Eu353 2.313 1_544 S
O366 Eu343 2.394 1_565 S
O366 C351 1.251 . S
O367 C351 1.251 1_556 S
O367 Eu353 2.374 . S
O368 C352 1.257 . S
O368 Eu353 2.473 1_545 S
O369 C352 1.260 1_565 S
O369 Eu353 2.480 . S
O370 Eu353 2.430 . S
O370 C360 1.259 1_556 S
O371 Eu343 2.355 1_565 S
O371 Eu353 2.670 1_554 S
O371 C360 1.270 . S
O372 Eu353 2.394 1_545 S
O372 C361 1.260 . S
O373 Eu343 2.374 . S
O373 C361 1.237 1_554 S
H374 C345 0.931 1_545 S
H375 C346 0.940 . S
H376 C348 0.931 . S
H377 C349 0.931 . S
H378 C355 0.931 1_565 S
H379 C356 0.931 . S
H380 C358 0.931 . S
H381 C359 0.931 . S
C382 Eu383 2.835 1_455 S
C382 C384 1.500 . S
C382 O402 1.257 . S
C382 O403 1.260 1_455 S
Eu383 C382 2.835 1_655 S
Eu383 O402 2.473 1_655 S
Eu383 O403 2.480 . S
Eu383 O404 2.430 . S
Eu383 O405 2.670 1_554 S
Eu383 O406 2.394 1_655 S
Eu383 O411 2.355 1_655 S
Eu383 O413 2.374 . S
C384 C382 1.500 . S
C384 C385 1.377 . S
C384 C389 1.377 . S
C385 C384 1.377 . S
C385 C386 1.395 . S
C385 H414 0.931 1_455 S
C386 C385 1.395 . S
C386 C387 1.383 . S
C386 H415 0.931 . S
C387 C386 1.383 . S
C387 C388 1.394 . S
C388 C387 1.394 . S
C388 C389 1.378 . S
C388 H416 0.931 . S
C389 C384 1.377 . S
C389 C388 1.378 . S
C389 H417 0.931 . S
C390 O404 1.259 . S
C390 O405 1.270 1_554 S
C391 O406 1.251 . S
C391 O407 1.251 . S
C392 Eu393 2.835 1_655 S
C392 C394 1.500 . S
C392 O408 1.257 . S
C392 O409 1.260 1_655 S
Eu393 C392 2.835 1_455 S
Eu393 O405 2.355 1_455 S
Eu393 O407 2.374 1_556 S
Eu393 O408 2.473 1_455 S
Eu393 O409 2.480 . S
Eu393 O410 2.430 . S
Eu393 O411 2.670 1_556 S
Eu393 O412 2.394 1_455 S
C394 C392 1.500 . S
C394 C395 1.377 . S
C394 C399 1.377 . S
C395 C394 1.377 . S
C395 C396 1.395 . S
C395 H418 0.931 1_655 S
C396 C395 1.395 . S
C396 C397 1.383 . S
C396 H419 0.931 . S
C397 C396 1.383 . S
C397 C398 1.394 . S
C398 C397 1.394 . S
C398 C399 1.378 . S
C398 H420 0.931 . S
C399 C394 1.377 . S
C399 C398 1.378 . S
C399 H421 0.931 . S
C400 O410 1.259 1_554 S
C400 O411 1.270 . S
C401 O412 1.251 . S
C401 O413 1.251 1_556 S
O402 C382 1.257 . S
O402 Eu383 2.473 1_455 S
O403 C382 1.260 1_655 S
O403 Eu383 2.480 . S
O404 Eu383 2.430 . S
O404 C390 1.259 . S
O405 Eu383 2.670 1_556 S
O405 C390 1.270 1_556 S
O405 Eu393 2.355 1_655 S
O406 Eu383 2.394 1_455 S
O406 C391 1.251 . S
O407 C391 1.251 . S
O407 Eu393 2.374 1_554 S
O408 C392 1.257 . S
O408 Eu393 2.473 1_655 S
O409 C392 1.260 1_455 S
O409 Eu393 2.480 . S
O410 Eu393 2.430 . S
O410 C400 1.259 1_556 S
O411 Eu383 2.355 1_455 S
O411 Eu393 2.670 1_554 S
O411 C400 1.270 . S
O412 Eu393 2.394 1_655 S
O412 C401 1.251 . S
O413 Eu383 2.374 . S
O413 C401 1.251 1_554 S
H414 C385 0.931 1_655 S
H415 C386 0.931 . S
H416 C388 0.931 . S
H417 C389 0.931 . S
H418 C395 0.931 1_455 S
H419 C396 0.931 . S
H420 C398 0.931 . S
H421 C399 0.931 . S
C422 Eu423 2.835 . S
C422 C424 1.500 . S
C422 O442 1.257 . S
C422 O443 1.260 . S
Eu423 C422 2.835 . S
Eu423 O442 2.473 . S
Eu423 O443 2.480 . S
Eu423 O444 2.430 . S
Eu423 O445 2.670 1_556 S
Eu423 O446 2.394 . S
Eu423 O451 2.355 1_556 S
Eu423 O453 2.374 1_556 S
C424 C422 1.500 . S
C424 C425 1.377 . S
C424 C429 1.377 . S
C425 C424 1.377 . S
C425 C426 1.395 . S
C425 H454 0.931 . S
C426 C425 1.395 . S
C426 C427 1.383 . S
C426 H455 0.931 . S
C427 C426 1.383 . S
C427 C428 1.394 . S
C428 C427 1.394 . S
C428 C429 1.378 . S
C428 H456 0.931 . S
C429 C424 1.377 . S
C429 C428 1.378 . S
C429 H457 0.931 . S
C430 O444 1.259 1_554 S
C430 O445 1.270 . S
C431 O446 1.251 1_554 S
C431 O447 1.251 . S
C432 Eu433 2.835 . S
C432 C434 1.500 . S
C432 O448 1.257 . S
C432 O449 1.260 . S
Eu433 C432 2.835 . S
Eu433 O445 2.355 . S
Eu433 O447 2.374 . S
Eu433 O448 2.473 . S
Eu433 O449 2.480 . S
Eu433 O450 2.430 . S
Eu433 O451 2.670 . S
Eu433 O452 2.394 . S
C434 C432 1.500 . S
C434 C435 1.377 . S
C434 C439 1.377 . S
C435 C434 1.377 . S
C435 C436 1.395 . S
C435 H458 0.931 . S
C436 C435 1.395 . S
C436 C437 1.383 . S
C436 H459 0.931 . S
C437 C436 1.383 . S
C437 C438 1.394 . S
C438 C437 1.394 . S
C438 C439 1.378 . S
C438 H460 0.931 . S
C439 C434 1.377 . S
C439 C438 1.378 . S
C439 H461 0.931 . S
C440 O450 1.259 . S
C440 O451 1.270 . S
C441 O452 1.251 . S
C441 O453 1.251 . S
O442 C422 1.257 . S
O442 Eu423 2.473 . S
O443 C422 1.260 . S
O443 Eu423 2.480 . S
O444 Eu423 2.430 . S
O444 C430 1.259 1_556 S
O445 Eu423 2.670 1_554 S
O445 C430 1.270 . S
O445 Eu433 2.355 . S
O446 Eu423 2.394 . S
O446 C431 1.251 1_556 S
O447 C431 1.251 . S
O447 Eu433 2.374 . S
O448 C432 1.257 . S
O448 Eu433 2.473 . S
O449 C432 1.260 . S
O449 Eu433 2.480 . S
O450 Eu433 2.430 . S
O450 C440 1.259 . S
O451 Eu423 2.355 1_554 S
O451 Eu433 2.670 . S
O451 C440 1.270 . S
O452 Eu433 2.394 . S
O452 C441 1.251 . S
O453 Eu423 2.374 1_554 S
O453 C441 1.251 . S
H454 C425 0.931 . S
H455 C426 0.931 . S
H456 C428 0.931 . S
H457 C429 0.931 . S
H458 C435 0.931 . S
H459 C436 0.931 . S
H460 C438 0.931 . S
H461 C439 0.931 . S
C462 Eu463 2.835 . S
C462 C464 1.500 . S
C462 O482 1.257 . S
C462 O483 1.260 . S
Eu463 C462 2.835 . S
Eu463 O482 2.473 . S
Eu463 O483 2.480 . S
Eu463 O484 2.430 . S
Eu463 O485 2.670 . S
Eu463 O486 2.394 . S
Eu463 O491 2.355 . S
Eu463 O493 2.374 . S
C464 C462 1.500 . S
C464 C465 1.377 . S
C464 C469 1.377 . S
C465 C464 1.377 . S
C465 C466 1.395 . S
C465 H494 0.931 . S
C466 C465 1.395 . S
C466 C467 1.383 . S
C466 H495 0.931 . S
C467 C466 1.383 . S
C467 C468 1.394 . S
C468 C467 1.394 . S
C468 C469 1.378 . S
C468 H496 0.931 . S
C469 C464 1.377 . S
C469 C468 1.378 . S
C469 H497 0.931 . S
C470 O484 1.259 . S
C470 O485 1.270 . S
C471 O486 1.251 . S
C471 O487 1.251 . S
C472 Eu473 2.835 . S
C472 C474 1.500 . S
C472 O488 1.257 . S
C472 O489 1.260 . S
Eu473 C472 2.835 . S
Eu473 O485 2.355 . S
Eu473 O487 2.374 . S
Eu473 O488 2.473 . S
Eu473 O489 2.480 . S
Eu473 O490 2.430 . S
Eu473 O491 2.670 . S
Eu473 O492 2.394 . S
C474 C472 1.500 . S
C474 C475 1.377 . S
C474 C479 1.377 . S
C475 C474 1.377 . S
C475 C476 1.395 . S
C475 H498 0.931 . S
C476 C475 1.395 . S
C476 C477 1.383 . S
C476 H499 0.931 . S
C477 C476 1.383 . S
C477 C478 1.394 . S
C478 C477 1.394 . S
C478 C479 1.378 . S
C478 H500 0.931 . S
C479 C474 1.377 . S
C479 C478 1.378 . S
C479 H501 0.931 . S
C480 O490 1.259 . S
C480 O491 1.270 . S
C481 O492 1.251 . S
C481 O493 1.251 . S
O482 C462 1.257 . S
O482 Eu463 2.473 . S
O483 C462 1.260 . S
O483 Eu463 2.480 . S
O484 Eu463 2.430 . S
O484 C470 1.259 . S
O485 Eu463 2.670 . S
O485 C470 1.270 . S
O485 Eu473 2.355 . S
O486 Eu463 2.394 . S
O486 C471 1.251 . S
O487 C471 1.251 . S
O487 Eu473 2.374 . S
O488 C472 1.257 . S
O488 Eu473 2.473 . S
O489 C472 1.260 . S
O489 Eu473 2.480 . S
O490 Eu473 2.430 . S
O490 C480 1.259 . S
O491 Eu463 2.355 . S
O491 Eu473 2.670 . S
O491 C480 1.270 . S
O492 Eu473 2.394 . S
O492 C481 1.251 . S
O493 Eu463 2.374 . S
O493 C481 1.251 . S
H494 C465 0.931 . S
H495 C466 0.931 . S
H496 C468 0.931 . S
H497 C469 0.931 . S
H498 C475 0.931 . S
H499 C476 0.931 . S
H500 C478 0.931 . S
H501 C479 0.931 . S
C502 Eu503 2.835 . S
C502 C504 1.500 . S
C502 O522 1.257 . S
C502 O523 1.260 . S
Eu503 C502 2.835 . S
Eu503 O522 2.473 . S
Eu503 O523 2.480 . S
Eu503 O524 2.430 . S
Eu503 O525 2.670 . S
Eu503 O526 2.394 . S
Eu503 O531 2.355 . S
Eu503 O533 2.374 . S
C504 C502 1.500 . S
C504 C505 1.377 . S
C504 C509 1.377 . S
C505 C504 1.377 . S
C505 C506 1.395 . S
C505 H534 0.931 . S
C506 C505 1.395 . S
C506 C507 1.383 . S
C506 H535 0.931 . S
C507 C506 1.383 . S
C507 C508 1.394 . S
C508 C507 1.394 . S
C508 C509 1.378 . S
C508 H536 0.931 . S
C509 C504 1.377 . S
C509 C508 1.378 . S
C509 H537 0.931 . S
C510 O524 1.259 . S
C510 O525 1.270 . S
C511 O526 1.251 . S
C511 O527 1.251 . S
C512 Eu513 2.835 . S
C512 C514 1.500 . S
C512 O528 1.257 . S
C512 O529 1.260 . S
Eu513 C512 2.835 . S
Eu513 O525 2.355 . S
Eu513 O527 2.374 . S
Eu513 O528 2.473 . S
Eu513 O529 2.480 . S
Eu513 O530 2.430 . S
Eu513 O531 2.670 . S
Eu513 O532 2.394 . S
C514 C512 1.500 . S
C514 C515 1.377 . S
C514 C519 1.377 . S
C515 C514 1.377 . S
C515 C516 1.395 . S
C515 H538 0.931 . S
C516 C515 1.395 . S
C516 C517 1.383 . S
C516 H539 0.931 . S
C517 C516 1.383 . S
C517 C518 1.394 . S
C518 C517 1.394 . S
C518 C519 1.378 . S
C518 H540 0.931 . S
C519 C514 1.377 . S
C519 C518 1.378 . S
C519 H541 0.931 . S
C520 O530 1.259 . S
C520 O531 1.270 . S
C521 O532 1.251 . S
C521 O533 1.251 . S
O522 C502 1.257 . S
O522 Eu503 2.473 . S
O523 C502 1.260 . S
O523 Eu503 2.480 . S
O524 Eu503 2.430 . S
O524 C510 1.259 . S
O525 Eu503 2.670 . S
O525 C510 1.270 . S
O525 Eu513 2.355 . S
O526 Eu503 2.394 . S
O526 C511 1.251 . S
O527 C511 1.251 . S
O527 Eu513 2.374 . S
O528 C512 1.257 . S
O528 Eu513 2.473 . S
O529 C512 1.260 . S
O529 Eu513 2.480 . S
O530 Eu513 2.430 . S
O530 C520 1.259 . S
O531 Eu503 2.355 . S
O531 Eu513 2.670 . S
O531 C520 1.270 . S
O532 Eu513 2.394 . S
O532 C521 1.251 . S
O533 Eu503 2.374 . S
O533 C521 1.251 . S
H534 C505 0.931 . S
H535 C506 0.931 . S
H536 C508 0.931 . S
H537 C509 0.931 . S
H538 C515 0.931 . S
H539 C516 0.931 . S
H540 C518 0.931 . S
H541 C519 0.931 . S
C542 Eu543 2.835 . S
C542 C544 1.500 . S
C542 O562 1.257 . S
C542 O563 1.260 . S
Eu543 C542 2.835 . S
Eu543 O562 2.473 . S
Eu543 O563 2.480 . S
Eu543 O564 2.430 . S
Eu543 O565 2.670 . S
Eu543 O566 2.394 . S
Eu543 O571 2.355 . S
Eu543 O573 2.374 . S
C544 C542 1.500 . S
C544 C545 1.377 . S
C544 C549 1.377 . S
C545 C544 1.377 . S
C545 C546 1.395 . S
C545 H574 0.931 . S
C546 C545 1.395 . S
C546 C547 1.383 . S
C546 H575 0.931 . S
C547 C546 1.383 . S
C547 C548 1.394 . S
C548 C547 1.394 . S
C548 C549 1.378 . S
C548 H576 0.931 . S
C549 C544 1.377 . S
C549 C548 1.378 . S
C549 H577 0.931 . S
C550 O564 1.259 . S
C550 O565 1.270 . S
C551 O566 1.251 . S
C551 O567 1.251 . S
C552 Eu553 2.835 . S
C552 C554 1.500 . S
C552 O568 1.257 . S
C552 O569 1.260 . S
Eu553 C552 2.835 . S
Eu553 O565 2.355 . S
Eu553 O567 2.374 . S
Eu553 O568 2.473 . S
Eu553 O569 2.480 . S
Eu553 O570 2.430 . S
Eu553 O571 2.670 . S
Eu553 O572 2.394 . S
C554 C552 1.500 . S
C554 C555 1.377 . S
C554 C559 1.377 . S
C555 C554 1.377 . S
C555 C556 1.395 . S
C555 H578 0.931 . S
C556 C555 1.395 . S
C556 C557 1.383 . S
C556 H579 0.931 . S
C557 C556 1.383 . S
C557 C558 1.394 . S
C558 C557 1.394 . S
C558 C559 1.378 . S
C558 H580 0.931 . S
C559 C554 1.377 . S
C559 C558 1.378 . S
C559 H581 0.931 . S
C560 O570 1.259 . S
C560 O571 1.270 . S
C561 O572 1.251 . S
C561 O573 1.251 . S
O562 C542 1.257 . S
O562 Eu543 2.473 . S
O563 C542 1.260 . S
O563 Eu543 2.480 . S
O564 Eu543 2.430 . S
O564 C550 1.259 . S
O565 Eu543 2.670 . S
O565 C550 1.270 . S
O565 Eu553 2.355 . S
O566 Eu543 2.394 . S
O566 C551 1.251 . S
O567 C551 1.251 . S
O567 Eu553 2.374 . S
O568 C552 1.257 . S
O568 Eu553 2.473 . S
O569 C552 1.260 . S
O569 Eu553 2.480 . S
O570 Eu553 2.430 . S
O570 C560 1.259 . S
O571 Eu543 2.355 . S
O571 Eu553 2.670 . S
O571 C560 1.270 . S
O572 Eu553 2.394 . S
O572 C561 1.251 . S
O573 Eu543 2.374 . S
O573 C561 1.251 . S
H574 C545 0.931 . S
H575 C546 0.931 . S
H576 C548 0.931 . S
H577 C549 0.931 . S
H578 C555 0.931 . S
H579 C556 0.931 . S
H580 C558 0.931 . S
H581 C559 0.931 . S
C582 Eu583 2.835 . S
C582 C584 1.500 . S
C582 O602 1.257 . S
C582 O603 1.260 . S
Eu583 C582 2.835 . S
Eu583 O602 2.473 . S
Eu583 O603 2.480 . S
Eu583 O604 2.430 . S
Eu583 O605 2.670 . S
Eu583 O606 2.394 . S
Eu583 O611 2.355 . S
Eu583 O613 2.374 . S
C584 C582 1.500 . S
C584 C585 1.377 . S
C584 C589 1.377 . S
C585 C584 1.377 . S
C585 C586 1.395 . S
C585 H614 0.931 . S
C586 C585 1.395 . S
C586 C587 1.383 . S
C586 H615 0.931 . S
C587 C586 1.383 . S
C587 C588 1.394 . S
C588 C587 1.394 . S
C588 C589 1.378 . S
C588 H616 0.931 . S
C589 C584 1.377 . S
C589 C588 1.378 . S
C589 H617 0.931 . S
C590 O604 1.259 . S
C590 O605 1.270 . S
C591 O606 1.251 . S
C591 O607 1.251 . S
C592 Eu593 2.835 . S
C592 C594 1.500 . S
C592 O608 1.257 . S
C592 O609 1.260 . S
Eu593 C592 2.835 . S
Eu593 O605 2.355 . S
Eu593 O607 2.374 . S
Eu593 O608 2.473 . S
Eu593 O609 2.480 . S
Eu593 O610 2.430 . S
Eu593 O611 2.670 . S
Eu593 O612 2.394 . S
C594 C592 1.500 . S
C594 C595 1.377 . S
C594 C599 1.377 . S
C595 C594 1.377 . S
C595 C596 1.395 . S
C595 H618 0.931 . S
C596 C595 1.395 . S
C596 C597 1.383 . S
C596 H619 0.931 . S
C597 C596 1.383 . S
C597 C598 1.394 . S
C598 C597 1.394 . S
C598 C599 1.378 . S
C598 H620 0.931 . S
C599 C594 1.377 . S
C599 C598 1.378 . S
C599 H621 0.931 . S
C600 O610 1.259 . S
C600 O611 1.270 . S
C601 O612 1.251 . S
C601 O613 1.251 . S
O602 C582 1.257 . S
O602 Eu583 2.473 . S
O603 C582 1.260 . S
O603 Eu583 2.480 . S
O604 Eu583 2.430 . S
O604 C590 1.259 . S
O605 Eu583 2.670 . S
O605 C590 1.270 . S
O605 Eu593 2.355 . S
O606 Eu583 2.394 . S
O606 C591 1.251 . S
O607 C591 1.251 . S
O607 Eu593 2.374 . S
O608 C592 1.257 . S
O608 Eu593 2.473 . S
O609 C592 1.260 . S
O609 Eu593 2.480 . S
O610 Eu593 2.430 . S
O610 C600 1.259 . S
O611 Eu583 2.355 . S
O611 Eu593 2.670 . S
O611 C600 1.270 . S
O612 Eu593 2.394 . S
O612 C601 1.251 . S
O613 Eu583 2.374 . S
O613 C601 1.251 . S
H614 C585 0.931 . S
H615 C586 0.931 . S
H616 C588 0.931 . S
H617 C589 0.931 . S
H618 C595 0.931 . S
H619 C596 0.931 . S
H620 C598 0.931 . S
H621 C599 0.931 . S
C622 Eu623 2.835 . S
C622 C624 1.500 . S
C622 O642 1.257 . S
C622 O643 1.260 . S
Eu623 C622 2.835 . S
Eu623 O642 2.473 . S
Eu623 O643 2.480 . S
Eu623 O644 2.430 . S
Eu623 O645 2.670 . S
Eu623 O646 2.394 . S
Eu623 O651 2.355 . S
Eu623 O653 2.374 . S
C624 C622 1.500 . S
C624 C625 1.377 . S
C624 C629 1.377 . S
C625 C624 1.377 . S
C625 C626 1.395 . S
C625 H654 0.931 . S
C626 C625 1.395 . S
C626 C627 1.383 . S
C626 H655 0.931 . S
C627 C626 1.383 . S
C627 C628 1.394 . S
C628 C627 1.394 . S
C628 C629 1.378 . S
C628 H656 0.931 . S
C629 C624 1.377 . S
C629 C628 1.378 . S
C629 H657 0.931 . S
C630 O644 1.259 . S
C630 O645 1.270 . S
C631 O646 1.251 . S
C631 O647 1.251 . S
C632 Eu633 2.835 . S
C632 C634 1.500 . S
C632 O648 1.257 . S
C632 O649 1.260 . S
Eu633 C632 2.835 . S
Eu633 O645 2.355 . S
Eu633 O647 2.374 . S
Eu633 O648 2.473 . S
Eu633 O649 2.480 . S
Eu633 O650 2.430 . S
Eu633 O651 2.670 . S
Eu633 O652 2.394 . S
C634 C632 1.500 . S
C634 C635 1.377 . S
C634 C639 1.377 . S
C635 C634 1.377 . S
C635 C636 1.395 . S
C635 H658 0.931 . S
C636 C635 1.395 . S
C636 C637 1.383 . S
C636 H659 0.931 . S
C637 C636 1.383 . S
C637 C638 1.394 . S
C638 C637 1.394 . S
C638 C639 1.378 . S
C638 H660 0.931 . S
C639 C634 1.377 . S
C639 C638 1.378 . S
C639 H661 0.931 . S
C640 O650 1.259 . S
C640 O651 1.270 . S
C641 O652 1.251 . S
C641 O653 1.251 . S
O642 C622 1.257 . S
O642 Eu623 2.473 . S
O643 C622 1.260 . S
O643 Eu623 2.480 . S
O644 Eu623 2.430 . S
O644 C630 1.259 . S
O645 Eu623 2.670 . S
O645 C630 1.270 . S
O645 Eu633 2.355 . S
O646 Eu623 2.394 . S
O646 C631 1.251 . S
O647 C631 1.251 . S
O647 Eu633 2.374 . S
O648 C632 1.257 . S
O648 Eu633 2.473 . S
O649 C632 1.260 . S
O649 Eu633 2.480 . S
O650 Eu633 2.430 . S
O650 C640 1.259 . S
O651 Eu623 2.355 . S
O651 Eu633 2.670 . S
O651 C640 1.270 . S
O652 Eu633 2.394 . S
O652 C641 1.251 . S
O653 Eu623 2.374 . S
O653 C641 1.251 . S
H654 C625 0.931 . S
H655 C626 0.931 . S
H656 C628 0.931 . S
H657 C629 0.931 . S
H658 C635 0.931 . S
H659 C636 0.931 . S
H660 C638 0.931 . S
H661 C639 0.931 . S
C662 Eu663 2.835 . S
C662 C664 1.500 . S
C662 O682 1.257 . S
C662 O683 1.260 . S
Eu663 C662 2.835 . S
Eu663 O682 2.473 . S
Eu663 O683 2.480 . S
Eu663 O684 2.430 . S
Eu663 O685 2.670 . S
Eu663 O686 2.394 . S
Eu663 O691 2.355 . S
Eu663 O693 2.374 . S
C664 C662 1.500 . S
C664 C665 1.377 . S
C664 C669 1.377 . S
C665 C664 1.377 . S
C665 C666 1.395 . S
C665 H694 0.931 . S
C666 C665 1.395 . S
C666 C667 1.383 . S
C666 H695 0.931 . S
C667 C666 1.383 . S
C667 C668 1.394 . S
C668 C667 1.394 . S
C668 C669 1.378 . S
C668 H696 0.931 . S
C669 C664 1.377 . S
C669 C668 1.378 . S
C669 H697 0.931 . S
C670 O684 1.259 . S
C670 O685 1.270 . S
C671 O686 1.251 . S
C671 O687 1.251 . S
C672 Eu673 2.835 . S
C672 C674 1.500 . S
C672 O688 1.257 . S
C672 O689 1.260 . S
Eu673 C672 2.835 . S
Eu673 O685 2.355 . S
Eu673 O687 2.374 . S
Eu673 O688 2.473 . S
Eu673 O689 2.480 . S
Eu673 O690 2.430 . S
Eu673 O691 2.670 . S
Eu673 O692 2.394 . S
C674 C672 1.500 . S
C674 C675 1.377 . S
C674 C679 1.377 . S
C675 C674 1.377 . S
C675 C676 1.395 . S
C675 H698 0.931 . S
C676 C675 1.395 . S
C676 C677 1.383 . S
C676 H699 0.931 . S
C677 C676 1.383 . S
C677 C678 1.394 . S
C678 C677 1.394 . S
C678 C679 1.378 . S
C678 H700 0.931 . S
C679 C674 1.377 . S
C679 C678 1.378 . S
C679 H701 0.931 . S
C680 O690 1.259 . S
C680 O691 1.270 . S
C681 O692 1.251 . S
C681 O693 1.251 . S
O682 C662 1.257 . S
O682 Eu663 2.473 . S
O683 C662 1.260 . S
O683 Eu663 2.480 . S
O684 Eu663 2.430 . S
O684 C670 1.259 . S
O685 Eu663 2.670 . S
O685 C670 1.270 . S
O685 Eu673 2.355 . S
O686 Eu663 2.394 . S
O686 C671 1.251 . S
O687 C671 1.251 . S
O687 Eu673 2.374 . S
O688 C672 1.257 . S
O688 Eu673 2.473 . S
O689 C672 1.260 . S
O689 Eu673 2.480 . S
O690 Eu673 2.430 . S
O690 C680 1.259 . S
O691 Eu663 2.355 . S
O691 Eu673 2.670 . S
O691 C680 1.270 . S
O692 Eu673 2.394 . S
O692 C681 1.251 . S
O693 Eu663 2.374 . S
O693 C681 1.251 . S
H694 C665 0.931 . S
H695 C666 0.931 . S
H696 C668 0.931 . S
H697 C669 0.931 . S
H698 C675 0.931 . S
H699 C676 0.931 . S
H700 C678 0.931 . S
H701 C679 0.931 . S
H702 C720 0.951 . S
H703 C722 0.951 . S
H704 C724 0.950 . S
H705 C725 0.950 . S
H706 C727 0.950 . S
H707 C730 0.950 . S
H708 C731 0.950 . S
H709 C733 0.950 . S
H710 C734 0.950 . S
H711 C735 0.951 1_556 S
H712 C737 0.996 . S
H713 C739 0.950 . S
H714 C740 0.950 . S
H715 C742 0.950 . S
H716 C745 0.950 . S
H717 C746 0.950 . S
H718 C748 0.950 1_556 S
H719 C749 0.985 . S
C720 H702 0.951 . S
C720 C721 1.366 . S
C720 C722 1.388 . S
C721 C720 1.366 . S
C721 C725 1.385 . S
C722 H703 0.951 . S
C722 C720 1.388 . S
C722 C723 1.366 . S
C723 C722 1.366 . S
C723 C724 1.414 . S
C723 C726 1.499 . S
C724 H704 0.950 . S
C724 C723 1.414 . S
C724 C725 1.374 . S
C725 H705 0.950 . S
C725 C721 1.385 . S
C725 C724 1.374 . S
C726 C723 1.499 . S
C726 C727 1.373 . S
C726 C728 1.389 . S
C727 H706 0.950 . S
C727 C726 1.373 . S
C727 C743 1.377 . S
C728 C726 1.389 . S
C728 C729 1.524 . S
C728 C742 1.377 . S
C729 C728 1.524 . S
C729 C730 1.397 . S
C729 C734 1.363 . S
C730 H707 0.950 . S
C730 C729 1.397 . S
C730 C731 1.334 . S
C731 H708 0.950 . S
C731 C730 1.334 . S
C731 C732 1.287 . S
C732 C731 1.287 . S
C732 C733 1.524 . S
C732 H751 0.913 . S
C733 H709 0.950 . S
C733 C732 1.524 . S
C733 C734 1.415 . S
C734 H710 0.950 . S
C734 C729 1.363 . S
C734 C733 1.415 . S
C735 H711 0.951 1_554 S
C735 C736 1.366 . S
C735 C737 1.388 . S
C736 C735 1.366 . S
C736 C740 1.385 . S
C737 H712 0.996 . S
C737 C735 1.388 . S
C737 C738 1.366 . S
C738 C737 1.366 . S
C738 C739 1.414 . S
C738 C741 1.499 . S
C739 H713 0.950 . S
C739 C738 1.414 . S
C739 C740 1.374 . S
C740 H714 0.950 . S
C740 C736 1.385 . S
C740 C739 1.374 . S
C741 C738 1.499 . S
C741 C742 1.373 . S
C741 C743 1.389 . S
C742 H715 0.950 . S
C742 C728 1.377 . S
C742 C741 1.373 . S
C743 C727 1.377 . S
C743 C741 1.389 . S
C743 C744 1.524 . S
C744 C743 1.524 . S
C744 C745 1.397 . S
C744 C749 1.363 . S
C745 H716 0.950 . S
C745 C744 1.397 . S
C745 C746 1.334 . S
C746 H717 0.950 . S
C746 C745 1.334 . S
C746 C747 1.287 . S
C747 C746 1.287 . S
C747 C748 1.524 . S
C747 H750 0.999 . S
C748 H718 0.950 1_554 S
C748 C747 1.524 . S
C748 C749 1.415 . S
C749 H719 0.985 . S
C749 C744 1.363 . S
C749 C748 1.415 . S
H750 C747 0.999 . S
H751 C732 0.913 . S
H752 C770 0.951 . S
H753 C772 0.951 . S
H754 C774 0.950 . S
H755 C775 0.950 . S
H756 C777 0.950 . S
H757 C780 0.950 . S
H758 C781 0.950 . S
H759 C783 0.950 . S
H760 C784 0.950 . S
H761 C785 0.951 . S
H762 C787 0.951 . S
H763 C789 0.950 . S
H764 C790 0.950 . S
H765 C792 0.950 . S
H766 C795 0.950 . S
H767 C796 0.950 . S
H768 C798 0.950 1_556 S
H769 C799 0.950 . S
C770 H752 0.951 . S
C770 C771 1.366 . S
C770 C772 1.388 . S
C771 C770 1.366 . S
C771 C775 1.385 . S
C772 H753 0.951 . S
C772 C770 1.388 . S
C772 C773 1.366 . S
C773 C772 1.366 . S
C773 C774 1.414 . S
C773 C776 1.499 . S
C774 H754 0.950 . S
C774 C773 1.414 . S
C774 C775 1.374 . S
C775 H755 0.950 . S
C775 C771 1.385 . S
C775 C774 1.374 . S
C776 C773 1.499 . S
C776 C777 1.373 . S
C776 C778 1.389 . S
C777 H756 0.950 . S
C777 C776 1.373 . S
C777 C793 1.377 . S
C778 C776 1.389 . S
C778 C779 1.524 . S
C778 C792 1.377 . S
C779 C778 1.524 . S
C779 C780 1.397 . S
C779 C784 1.363 . S
C780 H757 0.950 . S
C780 C779 1.397 . S
C780 C781 1.334 . S
C781 H758 0.950 . S
C781 C780 1.334 . S
C781 C782 1.287 . S
C782 C781 1.287 . S
C782 C783 1.524 . S
C782 H801 0.913 . S
C783 H759 0.950 . S
C783 C782 1.524 . S
C783 C784 1.415 . S
C784 H760 0.950 . S
C784 C779 1.363 . S
C784 C783 1.415 . S
C785 H761 0.951 . S
C785 C786 1.366 . S
C785 C787 1.388 . S
C786 C785 1.366 . S
C786 C790 1.385 . S
C787 H762 0.951 . S
C787 C785 1.388 . S
C787 C788 1.366 . S
C788 C787 1.366 . S
C788 C789 1.414 . S
C788 C791 1.499 . S
C789 H763 0.950 . S
C789 C788 1.414 . S
C789 C790 1.374 . S
C790 H764 0.950 . S
C790 C786 1.385 . S
C790 C789 1.374 . S
C791 C788 1.499 . S
C791 C792 1.373 . S
C791 C793 1.389 . S
C792 H765 0.950 . S
C792 C778 1.377 . S
C792 C791 1.373 . S
C793 C777 1.377 . S
C793 C791 1.389 . S
C793 C794 1.524 . S
C794 C793 1.524 . S
C794 C795 1.397 . S
C794 C799 1.363 . S
C795 H766 0.950 . S
C795 C794 1.397 . S
C795 C796 1.334 . S
C796 H767 0.950 . S
C796 C795 1.334 . S
C796 C797 1.287 . S
C797 C796 1.287 . S
C797 C798 1.524 . S
C797 H800 0.999 . S
C798 H768 0.950 1_554 S
C798 C797 1.524 . S
C798 C799 1.415 . S
C799 H769 0.950 . S
C799 C794 1.363 . S
C799 C798 1.415 . S
H800 C797 0.999 . S
H801 C782 0.913 . S
H802 C820 0.951 . S
H803 C822 0.951 . S
H804 C824 0.950 . S
H805 C825 0.950 . S
H806 C827 0.950 . S
H807 C830 0.950 . S
H808 C831 0.950 . S
H809 C833 0.950 . S
H810 C834 0.950 . S
H811 C835 0.951 . S
H812 C837 0.951 . S
H813 C839 0.950 . S
H814 C840 0.950 . S
H815 C842 0.969 . S
H816 C845 0.950 . S
H817 C846 0.950 . S
H818 C848 0.950 . S
H819 C849 0.950 . S
C820 H802 0.951 . S
C820 C821 1.366 . S
C820 C822 1.388 . S
C821 C820 1.366 . S
C821 C825 1.385 . S
C822 H803 0.951 . S
C822 C820 1.388 . S
C822 C823 1.366 . S
C823 C822 1.366 . S
C823 C824 1.414 . S
C823 C826 1.499 . S
C824 H804 0.950 . S
C824 C823 1.414 . S
C824 C825 1.374 . S
C825 H805 0.950 . S
C825 C821 1.385 . S
C825 C824 1.374 . S
C826 C823 1.499 . S
C826 C827 1.373 . S
C826 C828 1.389 . S
C827 H806 0.950 . S
C827 C826 1.373 . S
C827 C843 1.377 . S
C828 C826 1.389 . S
C828 C829 1.524 1_554 S
C828 C842 1.377 . S
C829 C828 1.524 1_556 S
C829 C830 1.397 . S
C829 C834 1.363 . S
C830 H807 0.950 . S
C830 C829 1.397 . S
C830 C831 1.334 . S
C831 H808 0.950 . S
C831 C830 1.334 . S
C831 C832 1.287 . S
C832 C831 1.287 . S
C832 C833 1.524 . S
C832 H851 0.913 . S
C833 H809 0.950 . S
C833 C832 1.524 . S
C833 C834 1.415 . S
C834 H810 0.950 . S
C834 C829 1.363 . S
C834 C833 1.415 . S
C835 H811 0.951 . S
C835 C836 1.366 . S
C835 C837 1.388 . S
C836 C835 1.366 . S
C836 C840 1.385 . S
C837 H812 0.951 . S
C837 C835 1.388 . S
C837 C838 1.366 . S
C838 C837 1.366 . S
C838 C839 1.414 . S
C838 C841 1.499 . S
C839 H813 0.950 . S
C839 C838 1.414 . S
C839 C840 1.374 . S
C840 H814 0.950 . S
C840 C836 1.385 . S
C840 C839 1.374 . S
C841 C838 1.499 . S
C841 C842 1.373 . S
C841 C843 1.389 . S
C842 H815 0.969 . S
C842 C828 1.377 . S
C842 C841 1.373 . S
C843 C827 1.377 . S
C843 C841 1.389 . S
C843 C844 1.524 . S
C844 C843 1.524 . S
C844 C845 1.397 . S
C844 C849 1.363 . S
C845 H816 0.950 . S
C845 C844 1.397 . S
C845 C846 1.334 . S
C846 H817 0.950 . S
C846 C845 1.334 . S
C846 C847 1.287 . S
C847 C846 1.287 . S
C847 C848 1.524 . S
C847 H850 0.999 . S
C848 H818 0.950 . S
C848 C847 1.524 . S
C848 C849 1.415 . S
C849 H819 0.950 . S
C849 C844 1.363 . S
C849 C848 1.415 . S
H850 C847 0.999 . S
H851 C832 0.913 . S
H852 C870 0.951 . S
H853 C872 0.951 1_554 S
H854 C874 0.950 . S
H855 C875 0.950 . S
H856 C877 0.950 . S
H857 C880 0.997 . S
H858 C881 0.950 . S
H859 C883 0.950 . S
H860 C884 0.950 . S
H861 C885 0.951 . S
H862 C887 0.951 . S
H863 C889 0.950 . S
H864 C890 0.950 . S
H865 C892 0.950 1_554 S
H866 C895 0.950 . S
H867 C896 0.950 . S
H868 C898 0.950 . S
H869 C899 0.950 . S
C870 H852 0.951 . S
C870 C871 1.366 . S
C870 C872 1.388 . S
C871 C870 1.366 . S
C871 C875 1.385 . S
C872 H853 0.951 1_556 S
C872 C870 1.388 . S
C872 C873 1.366 . S
C873 C872 1.366 . S
C873 C874 1.414 . S
C873 C876 1.499 . S
C874 H854 0.950 . S
C874 C873 1.414 . S
C874 C875 1.374 . S
C875 H855 0.950 . S
C875 C871 1.385 . S
C875 C874 1.374 . S
C876 C873 1.499 . S
C876 C877 1.373 . S
C876 C878 1.389 . S
C877 H856 0.950 . S
C877 C876 1.373 . S
C877 C893 1.377 . S
C878 C876 1.389 . S
C878 C879 1.524 1_556 S
C878 C892 1.377 . S
C879 C878 1.524 1_554 S
C879 C880 1.381 1_554 S
C879 C884 1.363 . S
C880 H857 0.997 . S
C880 C879 1.381 1_556 S
C880 C881 1.305 1_556 S
C881 H858 0.950 . S
C881 C880 1.305 1_554 S
C881 C882 1.287 . S
C882 C881 1.287 . S
C882 C883 1.524 . S
C882 H901 0.913 . S
C883 H859 0.950 . S
C883 C882 1.524 . S
C883 C884 1.415 . S
C884 H860 0.950 . S
C884 C879 1.363 . S
C884 C883 1.415 . S
C885 H861 0.951 . S
C885 C886 1.366 . S
C885 C887 1.388 . S
C886 C885 1.366 . S
C886 C890 1.385 1_556 S
C887 H862 0.951 . S
C887 C885 1.388 . S
C887 C888 1.366 . S
C888 C887 1.366 . S
C888 C889 1.414 1_556 S
C888 C891 1.499 . S
C889 H863 0.950 . S
C889 C888 1.414 1_554 S
C889 C890 1.374 . S
C890 H864 0.950 . S
C890 C886 1.385 1_554 S
C890 C889 1.374 . S
C891 C888 1.499 . S
C891 C892 1.373 . S
C891 C893 1.389 . S
C892 H865 0.950 1_556 S
C892 C878 1.377 . S
C892 C891 1.373 . S
C893 C877 1.377 . S
C893 C891 1.389 . S
C893 C894 1.524 . S
C894 C893 1.524 . S
C894 C895 1.397 . S
C894 C899 1.363 . S
C895 H866 0.950 . S
C895 C894 1.397 . S
C895 C896 1.334 . S
C896 H867 0.950 . S
C896 C895 1.334 . S
C896 C897 1.287 . S
C897 C896 1.287 . S
C897 C898 1.524 . S
C897 H900 0.999 . S
C898 H868 0.950 . S
C898 C897 1.524 . S
C898 C899 1.415 . S
C899 H869 0.950 . S
C899 C894 1.363 . S
C899 C898 1.415 . S
H900 C897 0.999 . S
H901 C882 0.913 . S
H902 C920 0.951 . S
H903 C922 0.951 . S
H904 C924 0.950 . S
H905 C925 0.950 . S
H906 C927 0.950 . S
H907 C930 0.950 . S
H908 C931 0.950 . S
H909 C933 0.950 . S
H910 C934 0.950 . S
H911 C935 0.951 . S
H912 C937 0.951 . S
H913 C939 0.934 1_554 S
H914 C940 0.950 . S
H915 C942 0.950 . S
H916 C945 0.950 . S
H917 C946 0.950 . S
H918 C948 0.950 . S
H919 C949 0.950 . S
C920 H902 0.951 . S
C920 C921 1.366 . S
C920 C922 1.388 . S
C921 C920 1.366 . S
C921 C925 1.385 . S
C922 H903 0.951 . S
C922 C920 1.388 . S
C922 C923 1.366 . S
C923 C922 1.366 . S
C923 C924 1.414 . S
C923 C926 1.499 . S
C924 H904 0.950 . S
C924 C923 1.414 . S
C924 C925 1.374 . S
C925 H905 0.950 . S
C925 C921 1.385 . S
C925 C924 1.374 . S
C926 C923 1.499 . S
C926 C927 1.373 . S
C926 C928 1.389 . S
C927 H906 0.950 . S
C927 C926 1.373 . S
C927 C943 1.377 . S
C928 C926 1.389 . S
C928 C929 1.524 . S
C928 C942 1.377 . S
C929 C928 1.524 . S
C929 C930 1.397 . S
C929 C934 1.363 . S
C930 H907 0.950 . S
C930 C929 1.397 . S
C930 C931 1.334 . S
C931 H908 0.950 . S
C931 C930 1.334 . S
C931 C932 1.287 . S
C932 C931 1.287 . S
C932 C933 1.524 . S
C932 H951 0.913 . S
C933 H909 0.950 . S
C933 C932 1.524 . S
C933 C934 1.415 . S
C934 H910 0.950 . S
C934 C929 1.363 . S
C934 C933 1.415 . S
C935 H911 0.951 . S
C935 C936 1.366 . S
C935 C937 1.388 . S
C936 C935 1.366 . S
C936 C940 1.385 1_556 S
C937 H912 0.951 . S
C937 C935 1.388 . S
C937 C938 1.366 . S
C938 C937 1.366 . S
C938 C939 1.446 . S
C938 C941 1.499 . S
C939 H913 0.934 1_556 S
C939 C938 1.446 . S
C939 C940 1.359 1_556 S
C940 H914 0.950 . S
C940 C936 1.385 1_554 S
C940 C939 1.359 1_554 S
C941 C938 1.499 . S
C941 C942 1.373 . S
C941 C943 1.389 . S
C942 H915 0.950 . S
C942 C928 1.377 . S
C942 C941 1.373 . S
C943 C927 1.377 . S
C943 C941 1.389 . S
C943 C944 1.524 . S
C944 C943 1.524 . S
C944 C945 1.397 1_556 S
C944 C949 1.363 . S
C945 H916 0.950 . S
C945 C944 1.397 1_554 S
C945 C946 1.334 . S
C946 H917 0.950 . S
C946 C945 1.334 . S
C946 C947 1.287 1_554 S
C947 C946 1.287 1_556 S
C947 C948 1.524 . S
C947 H950 0.999 1_556 S
C948 H918 0.950 . S
C948 C947 1.524 . S
C948 C949 1.415 . S
C949 H919 0.950 . S
C949 C944 1.363 . S
C949 C948 1.415 . S
H950 C947 0.999 1_554 S
H951 C932 0.913 . S
H952 C970 0.951 . S
H953 C972 0.951 . S
H954 C974 0.950 . S
H955 C975 0.915 1_554 S
H956 C977 0.950 . S
H957 C980 0.950 . S
H958 C981 0.950 . S
H959 C983 0.950 . S
H960 C984 0.950 . S
H961 C985 0.951 . S
H962 C987 0.951 . S
H963 C989 0.950 . S
H964 C990 0.950 . S
H965 C992 0.950 . S
H966 C995 0.950 . S
H967 C996 0.950 . S
H968 C998 0.950 . S
H969 C999 0.950 . S
C970 H952 0.951 . S
C970 C971 1.366 . S
C970 C972 1.388 . S
C971 C970 1.366 . S
C971 C975 1.436 . S
C972 H953 0.951 . S
C972 C970 1.388 . S
C972 C973 1.366 . S
C973 C972 1.366 . S
C973 C974 1.414 1_556 S
C973 C976 1.499 . S
C974 H954 0.950 . S
C974 C973 1.414 1_554 S
C974 C975 1.363 1_554 S
C975 H955 0.915 1_556 S
C975 C971 1.436 . S
C975 C974 1.363 1_556 S
C976 C973 1.499 . S
C976 C977 1.373 . S
C976 C978 1.389 . S
C977 H956 0.950 . S
C977 C976 1.373 . S
C977 C993 1.377 . S
C978 C976 1.389 . S
C978 C979 1.524 . S
C978 C992 1.377 . S
C979 C978 1.524 . S
C979 C980 1.397 1_556 S
C979 C984 1.363 . S
C980 H957 0.950 . S
C980 C979 1.397 1_554 S
C980 C981 1.334 . S
C981 H958 0.950 . S
C981 C980 1.334 . S
C981 C982 1.307 . S
C982 C981 1.307 . S
C982 C983 1.494 1_554 S
C982 H1001 0.921 . S
C983 H959 0.950 . S
C983 C982 1.494 1_556 S
C983 C984 1.415 . S
C984 H960 0.950 . S
C984 C979 1.363 . S
C984 C983 1.415 . S
C985 H961 0.951 . S
C985 C986 1.366 . S
C985 C987 1.388 . S
C986 C985 1.366 . S
C986 C990 1.385 1_554 S
C987 H962 0.951 . S
C987 C985 1.388 . S
C987 C988 1.366 1_554 S
C988 C987 1.366 1_556 S
C988 C989 1.414 . S
C988 C991 1.499 . S
C989 H963 0.950 . S
C989 C988 1.414 . S
C989 C990 1.374 . S
C990 H964 0.950 . S
C990 C986 1.385 1_556 S
C990 C989 1.374 . S
C991 C988 1.499 . S
C991 C992 1.373 . S
C991 C993 1.389 . S
C992 H965 0.950 . S
C992 C978 1.377 . S
C992 C991 1.373 . S
C993 C977 1.377 . S
C993 C991 1.389 . S
C993 C994 1.524 . S
C994 C993 1.524 . S
C994 C995 1.397 . S
C994 C999 1.363 1_556 S
C995 H966 0.950 . S
C995 C994 1.397 . S
C995 C996 1.334 . S
C996 H967 0.950 . S
C996 C995 1.334 . S
C996 C997 1.287 . S
C997 C996 1.287 . S
C997 C998 1.524 1_556 S
C997 H1000 0.999 . S
C998 H968 0.950 . S
C998 C997 1.524 1_554 S
C998 C999 1.415 . S
C999 H969 0.950 . S
C999 C994 1.363 1_554 S
C999 C998 1.415 . S
H1000 C997 0.999 . S
H1001 C982 0.921 . S
H1002 C1020 0.951 . S
H1003 C1022 0.951 . S
H1004 C1024 0.950 . S
H1005 C1025 0.950 . S
H1006 C1027 0.950 . S
H1007 C1030 0.950 . S
H1008 C1031 0.950 . S
H1009 C1033 0.950 . S
H1010 C1034 0.950 . S
H1011 C1035 0.951 . S
H1012 C1037 0.951 . S
H1013 C1039 0.978 . S
H1014 C1040 0.950 . S
H1015 C1042 0.950 . S
H1016 C1045 0.950 . S
H1017 C1046 0.950 . S
H1018 C1048 0.985 . S
H1019 C1049 0.950 . S
C1020 H1002 0.951 . S
C1020 C1021 1.366 . S
C1020 C1022 1.388 . S
C1021 C1020 1.366 . S
C1021 C1025 1.385 . S
C1022 H1003 0.951 . S
C1022 C1020 1.388 . S
C1022 C1023 1.366 . S
C1023 C1022 1.366 . S
C1023 C1024 1.414 . S
C1023 C1026 1.499 . S
C1024 H1004 0.950 . S
C1024 C1023 1.414 . S
C1024 C1025 1.374 . S
C1025 H1005 0.950 . S
C1025 C1021 1.385 . S
C1025 C1024 1.374 . S
C1026 C1023 1.499 . S
C1026 C1027 1.373 . S
C1026 C1028 1.389 . S
C1027 H1006 0.950 . S
C1027 C1026 1.373 . S
C1027 C1043 1.377 . S
C1028 C1026 1.389 . S
C1028 C1029 1.524 . S
C1028 C1042 1.377 . S
C1029 C1028 1.524 . S
C1029 C1030 1.397 . S
C1029 C1034 1.363 . S
C1030 H1007 0.950 . S
C1030 C1029 1.397 . S
C1030 C1031 1.334 . S
C1031 H1008 0.950 . S
C1031 C1030 1.334 . S
C1031 C1032 1.287 . S
C1032 C1031 1.287 . S
C1032 C1033 1.524 . S
C1032 H1051 0.913 . S
C1033 H1009 0.950 . S
C1033 C1032 1.524 . S
C1033 C1034 1.415 . S
C1034 H1010 0.950 . S
C1034 C1029 1.363 . S
C1034 C1033 1.415 . S
C1035 H1011 0.951 . S
C1035 C1036 1.366 . S
C1035 C1037 1.388 . S
C1036 C1035 1.366 . S
C1036 C1040 1.385 1_556 S
C1037 H1012 0.951 . S
C1037 C1035 1.388 . S
C1037 C1038 1.366 . S
C1038 C1037 1.366 . S
C1038 C1039 1.375 1_556 S
C1038 C1041 1.499 . S
C1039 H1013 0.978 . S
C1039 C1038 1.375 1_554 S
C1039 C1040 1.390 . S
C1040 H1014 0.950 . S
C1040 C1036 1.385 1_554 S
C1040 C1039 1.390 . S
C1041 C1038 1.499 . S
C1041 C1042 1.373 . S
C1041 C1043 1.389 . S
C1042 H1015 0.950 . S
C1042 C1028 1.377 . S
C1042 C1041 1.373 . S
C1043 C1027 1.377 . S
C1043 C1041 1.389 . S
C1043 C1044 1.546 . S
C1044 C1043 1.546 . S
C1044 C1045 1.345 1_556 S
C1044 C1049 1.391 . S
C1045 H1016 0.950 . S
C1045 C1044 1.345 1_554 S
C1045 C1046 1.334 . S
C1046 H1017 0.950 . S
C1046 C1045 1.334 . S
C1046 C1047 1.287 . S
C1047 C1046 1.287 . S
C1047 C1048 1.457 1_554 S
C1047 H1050 0.999 . S
C1048 H1018 0.985 . S
C1048 C1047 1.457 1_556 S
C1048 C1049 1.445 . S
C1049 H1019 0.950 . S
C1049 C1044 1.391 . S
C1049 C1048 1.445 . S
H1050 C1047 0.999 . S
H1051 C1032 0.913 . S
H1052 C1070 0.951 . S
H1053 C1072 0.951 . S
H1054 C1074 0.950 . S
H1055 C1075 0.950 . S
H1056 C1077 0.950 . S
H1057 C1080 0.950 . S
H1058 C1081 0.950 . S
H1059 C1083 0.950 . S
H1060 C1084 0.950 . S
H1061 C1085 0.951 . S
H1062 C1087 0.951 . S
H1063 C1089 0.950 . S
H1064 C1090 0.950 . S
H1065 C1092 0.950 . S
H1066 C1095 0.950 . S
H1067 C1096 0.950 . S
H1068 C1098 0.950 . S
H1069 C1099 0.950 . S
C1070 H1052 0.951 . S
C1070 C1071 1.366 . S
C1070 C1072 1.388 . S
C1071 C1070 1.366 . S
C1071 C1075 1.385 . S
C1072 H1053 0.951 . S
C1072 C1070 1.388 . S
C1072 C1073 1.366 . S
C1073 C1072 1.366 . S
C1073 C1074 1.414 . S
C1073 C1076 1.499 . S
C1074 H1054 0.950 . S
C1074 C1073 1.414 . S
C1074 C1075 1.374 . S
C1075 H1055 0.950 . S
C1075 C1071 1.385 . S
C1075 C1074 1.374 . S
C1076 C1073 1.499 . S
C1076 C1077 1.373 . S
C1076 C1078 1.389 . S
C1077 H1056 0.950 . S
C1077 C1076 1.373 . S
C1077 C1093 1.377 . S
C1078 C1076 1.389 . S
C1078 C1079 1.524 . S
C1078 C1092 1.377 . S
C1079 C1078 1.524 . S
C1079 C1080 1.397 1_556 S
C1079 C1084 1.363 . S
C1080 H1057 0.950 . S
C1080 C1079 1.397 1_554 S
C1080 C1081 1.334 . S
C1081 H1058 0.950 . S
C1081 C1080 1.334 . S
C1081 C1082 1.287 . S
C1082 C1081 1.287 . S
C1082 C1083 1.524 . S
C1082 H1101 0.913 . S
C1083 H1059 0.950 . S
C1083 C1082 1.524 . S
C1083 C1084 1.415 1_554 S
C1084 H1060 0.950 . S
C1084 C1079 1.363 . S
C1084 C1083 1.415 1_556 S
C1085 H1061 0.951 . S
C1085 C1086 1.366 . S
C1085 C1087 1.388 . S
C1086 C1085 1.366 . S
C1086 C1090 1.385 . S
C1087 H1062 0.951 . S
C1087 C1085 1.388 . S
C1087 C1088 1.366 . S
C1088 C1087 1.366 . S
C1088 C1089 1.414 . S
C1088 C1091 1.499 . S
C1089 H1063 0.950 . S
C1089 C1088 1.414 . S
C1089 C1090 1.374 . S
C1090 H1064 0.950 . S
C1090 C1086 1.385 . S
C1090 C1089 1.374 . S
C1091 C1088 1.499 . S
C1091 C1092 1.373 . S
C1091 C1093 1.389 . S
C1092 H1065 0.950 . S
C1092 C1078 1.377 . S
C1092 C1091 1.373 . S
C1093 C1077 1.377 . S
C1093 C1091 1.389 . S
C1093 C1094 1.524 . S
C1094 C1093 1.524 . S
C1094 C1095 1.397 . S
C1094 C1099 1.363 . S
C1095 H1066 0.950 . S
C1095 C1094 1.397 . S
C1095 C1096 1.334 . S
C1096 H1067 0.950 . S
C1096 C1095 1.334 . S
C1096 C1097 1.287 . S
C1097 C1096 1.287 . S
C1097 C1098 1.524 . S
C1097 H1100 0.999 . S
C1098 H1068 0.950 . S
C1098 C1097 1.524 . S
C1098 C1099 1.415 . S
C1099 H1069 0.950 . S
C1099 C1094 1.363 . S
C1099 C1098 1.415 . S
H1100 C1097 0.999 . S
H1101 C1082 0.913 . S
H1102 C1120 0.951 . S
H1103 C1122 0.951 . S
H1104 C1124 0.950 . S
H1105 C1125 0.950 . S
H1106 C1127 0.950 . S
H1107 C1130 0.950 . S
H1108 C1131 0.950 . S
H1109 C1133 0.950 1_556 S
H1110 C1134 0.950 . S
H1111 C1135 0.951 . S
H1112 C1137 0.951 . S
H1113 C1139 0.950 . S
H1114 C1140 0.950 . S
H1115 C1142 0.950 . S
H1116 C1145 0.950 . S
H1117 C1146 0.950 . S
H1118 C1148 0.950 . S
H1119 C1149 0.950 . S
C1120 H1102 0.951 . S
C1120 C1121 1.328 1_556 S
C1120 C1122 1.388 . S
C1121 C1120 1.328 1_554 S
C1121 C1125 1.422 . S
C1122 H1103 0.951 . S
C1122 C1120 1.388 . S
C1122 C1123 1.366 1_556 S
C1123 C1122 1.366 1_554 S
C1123 C1124 1.414 . S
C1123 C1126 1.499 . S
C1124 H1104 0.950 . S
C1124 C1123 1.414 . S
C1124 C1125 1.374 . S
C1125 H1105 0.950 . S
C1125 C1121 1.422 . S
C1125 C1124 1.374 . S
C1126 C1123 1.499 . S
C1126 C1127 1.373 . S
C1126 C1128 1.389 . S
C1127 H1106 0.950 . S
C1127 C1126 1.373 . S
C1127 C1143 1.377 . S
C1128 C1126 1.389 . S
C1128 C1129 1.524 . S
C1128 C1142 1.377 . S
C1129 C1128 1.524 . S
C1129 C1130 1.397 . S
C1129 C1134 1.363 1_554 S
C1130 H1107 0.950 . S
C1130 C1129 1.397 . S
C1130 C1131 1.334 . S
C1131 H1108 0.950 . S
C1131 C1130 1.334 . S
C1131 C1132 1.287 . S
C1132 C1131 1.287 . S
C1132 C1133 1.524 . S
C1132 H1151 0.913 . S
C1133 H1109 0.950 1_554 S
C1133 C1132 1.524 . S
C1133 C1134 1.415 1_554 S
C1134 H1110 0.950 . S
C1134 C1129 1.363 1_556 S
C1134 C1133 1.415 1_556 S
C1135 H1111 0.951 . S
C1135 C1136 1.366 . S
C1135 C1137 1.388 . S
C1136 C1135 1.366 . S
C1136 C1140 1.385 1_554 S
C1137 H1112 0.951 . S
C1137 C1135 1.388 . S
C1137 C1138 1.366 . S
C1138 C1137 1.366 . S
C1138 C1139 1.414 1_554 S
C1138 C1141 1.499 . S
C1139 H1113 0.950 . S
C1139 C1138 1.414 1_556 S
C1139 C1140 1.374 . S
C1140 H1114 0.950 . S
C1140 C1136 1.385 1_556 S
C1140 C1139 1.374 . S
C1141 C1138 1.499 . S
C1141 C1142 1.373 . S
C1141 C1143 1.389 . S
C1142 H1115 0.950 . S
C1142 C1128 1.377 . S
C1142 C1141 1.373 . S
C1143 C1127 1.377 . S
C1143 C1141 1.389 . S
C1143 C1144 1.524 . S
C1144 C1143 1.524 . S
C1144 C1145 1.397 1_554 S
C1144 C1149 1.363 . S
C1145 H1116 0.950 . S
C1145 C1144 1.397 1_556 S
C1145 C1146 1.334 . S
C1146 H1117 0.950 . S
C1146 C1145 1.334 . S
C1146 C1147 1.287 . S
C1147 C1146 1.287 . S
C1147 C1148 1.524 1_556 S
C1147 H1150 0.999 . S
C1148 H1118 0.950 . S
C1148 C1147 1.524 1_554 S
C1148 C1149 1.415 . S
C1149 H1119 0.950 . S
C1149 C1144 1.363 . S
C1149 C1148 1.415 . S
H1150 C1147 0.999 . S
H1151 C1132 0.913 . S
H1152 C1170 0.951 . S
H1153 C1172 0.951 . S
H1154 C1174 0.950 . S
H1155 C1175 0.950 . S
H1156 C1177 0.950 . S
H1157 C1180 0.950 . S
H1158 C1181 0.950 . S
H1159 C1183 0.950 . S
H1160 C1184 0.950 . S
H1161 C1185 0.951 . S
H1162 C1187 0.951 . S
H1163 C1189 0.950 . S
H1164 C1190 0.950 . S
H1165 C1192 0.950 . S
H1166 C1195 0.950 . S
H1167 C1196 0.950 . S
H1168 C1198 0.950 . S
H1169 C1199 0.950 . S
C1170 H1152 0.951 . S
C1170 C1171 1.366 . S
C1170 C1172 1.388 . S
C1171 C1170 1.366 . S
C1171 C1175 1.385 . S
C1172 H1153 0.951 . S
C1172 C1170 1.388 . S
C1172 C1173 1.366 . S
C1173 C1172 1.366 . S
C1173 C1174 1.414 . S
C1173 C1176 1.499 . S
C1174 H1154 0.950 . S
C1174 C1173 1.414 . S
C1174 C1175 1.374 . S
C1175 H1155 0.950 . S
C1175 C1171 1.385 . S
C1175 C1174 1.374 . S
C1176 C1173 1.499 . S
C1176 C1177 1.373 . S
C1176 C1178 1.389 . S
C1177 H1156 0.950 . S
C1177 C1176 1.373 . S
C1177 C1193 1.377 . S
C1178 C1176 1.389 . S
C1178 C1179 1.524 . S
C1178 C1192 1.377 . S
C1179 C1178 1.524 . S
C1179 C1180 1.397 1_554 S
C1179 C1184 1.363 . S
C1180 H1157 0.950 . S
C1180 C1179 1.397 1_556 S
C1180 C1181 1.334 . S
C1181 H1158 0.950 . S
C1181 C1180 1.334 . S
C1181 C1182 1.287 . S
C1182 C1181 1.287 . S
C1182 C1183 1.524 . S
C1182 H1201 0.913 . S
C1183 H1159 0.950 . S
C1183 C1182 1.524 . S
C1183 C1184 1.415 1_556 S
C1184 H1160 0.950 . S
C1184 C1179 1.363 . S
C1184 C1183 1.415 1_554 S
C1185 H1161 0.951 . S
C1185 C1186 1.366 . S
C1185 C1187 1.388 . S
C1186 C1185 1.366 . S
C1186 C1190 1.385 . S
C1187 H1162 0.951 . S
C1187 C1185 1.388 . S
C1187 C1188 1.366 . S
C1188 C1187 1.366 . S
C1188 C1189 1.414 . S
C1188 C1191 1.499 . S
C1189 H1163 0.950 . S
C1189 C1188 1.414 . S
C1189 C1190 1.374 . S
C1190 H1164 0.950 . S
C1190 C1186 1.385 . S
C1190 C1189 1.374 . S
C1191 C1188 1.499 . S
C1191 C1192 1.373 . S
C1191 C1193 1.389 . S
C1192 H1165 0.950 . S
C1192 C1178 1.377 . S
C1192 C1191 1.373 . S
C1193 C1177 1.377 . S
C1193 C1191 1.389 . S
C1193 C1194 1.524 . S
C1194 C1193 1.524 . S
C1194 C1195 1.397 . S
C1194 C1199 1.363 . S
C1195 H1166 0.950 . S
C1195 C1194 1.397 . S
C1195 C1196 1.334 . S
C1196 H1167 0.950 . S
C1196 C1195 1.334 . S
C1196 C1197 1.287 . S
C1197 C1196 1.287 . S
C1197 C1198 1.524 . S
C1197 H1200 0.999 . S
C1198 H1168 0.950 . S
C1198 C1197 1.524 . S
C1198 C1199 1.415 . S
C1199 H1169 0.950 . S
C1199 C1194 1.363 . S
C1199 C1198 1.415 . S
H1200 C1197 0.999 . S
H1201 C1182 0.913 . S
H1202 C1220 0.951 . S
H1203 C1222 0.951 . S
H1204 C1224 0.950 . S
H1205 C1225 0.950 . S
H1206 C1227 0.950 . S
H1207 C1230 0.950 . S
H1208 C1231 0.950 . S
H1209 C1233 0.950 . S
H1210 C1234 0.950 . S
H1211 C1235 0.951 . S
H1212 C1237 0.951 . S
H1213 C1239 0.950 . S
H1214 C1240 0.950 . S
H1215 C1242 0.950 . S
H1216 C1245 0.950 . S
H1217 C1246 0.950 . S
H1218 C1248 0.950 . S
H1219 C1249 0.950 . S
C1220 H1202 0.951 . S
C1220 C1221 1.366 . S
C1220 C1222 1.388 . S
C1221 C1220 1.366 . S
C1221 C1225 1.385 . S
C1222 H1203 0.951 . S
C1222 C1220 1.388 . S
C1222 C1223 1.366 . S
C1223 C1222 1.366 . S
C1223 C1224 1.414 . S
C1223 C1226 1.499 . S
C1224 H1204 0.950 . S
C1224 C1223 1.414 . S
C1224 C1225 1.374 . S
C1225 H1205 0.950 . S
C1225 C1221 1.385 . S
C1225 C1224 1.374 . S
C1226 C1223 1.499 . S
C1226 C1227 1.373 . S
C1226 C1228 1.389 . S
C1227 H1206 0.950 . S
C1227 C1226 1.373 . S
C1227 C1243 1.377 . S
C1228 C1226 1.389 . S
C1228 C1229 1.524 . S
C1228 C1242 1.377 . S
C1229 C1228 1.524 . S
C1229 C1230 1.397 . S
C1229 C1234 1.363 . S
C1230 H1207 0.950 . S
C1230 C1229 1.397 . S
C1230 C1231 1.334 . S
C1231 H1208 0.950 . S
C1231 C1230 1.334 . S
C1231 C1232 1.287 . S
C1232 C1231 1.287 . S
C1232 C1233 1.524 1_554 S
C1232 H1251 0.913 1_554 S
C1233 H1209 0.950 . S
C1233 C1232 1.524 1_556 S
C1233 C1234 1.415 1_556 S
C1234 H1210 0.950 . S
C1234 C1229 1.363 . S
C1234 C1233 1.415 1_554 S
C1235 H1211 0.951 . S
C1235 C1236 1.366 . S
C1235 C1237 1.388 . S
C1236 C1235 1.366 . S
C1236 C1240 1.385 . S
C1237 H1212 0.951 . S
C1237 C1235 1.388 . S
C1237 C1238 1.366 . S
C1238 C1237 1.366 . S
C1238 C1239 1.414 . S
C1238 C1241 1.499 . S
C1239 H1213 0.950 . S
C1239 C1238 1.414 . S
C1239 C1240 1.374 . S
C1240 H1214 0.950 . S
C1240 C1236 1.385 . S
C1240 C1239 1.374 . S
C1241 C1238 1.499 . S
C1241 C1242 1.373 . S
C1241 C1243 1.389 . S
C1242 H1215 0.950 . S
C1242 C1228 1.377 . S
C1242 C1241 1.373 . S
C1243 C1227 1.377 . S
C1243 C1241 1.389 . S
C1243 C1244 1.524 . S
C1244 C1243 1.524 . S
C1244 C1245 1.397 . S
C1244 C1249 1.363 . S
C1245 H1216 0.950 . S
C1245 C1244 1.397 . S
C1245 C1246 1.334 . S
C1246 H1217 0.950 . S
C1246 C1245 1.334 . S
C1246 C1247 1.287 . S
C1247 C1246 1.287 . S
C1247 C1248 1.524 . S
C1247 H1250 0.999 . S
C1248 H1218 0.950 . S
C1248 C1247 1.524 . S
C1248 C1249 1.415 . S
C1249 H1219 0.950 . S
C1249 C1244 1.363 . S
C1249 C1248 1.415 . S
H1250 C1247 0.999 . S
H1251 C1232 0.913 1_556 S
H1252 C1270 0.951 . S
H1253 C1272 0.951 . S
H1254 C1274 0.950 . S
H1255 C1275 0.950 . S
H1256 C1277 0.950 . S
H1257 C1280 0.950 . S
H1258 C1281 0.950 . S
H1259 C1283 0.950 . S
H1260 C1284 0.917 1_554 S
H1261 C1285 0.951 . S
H1262 C1287 0.951 . S
H1263 C1289 0.950 . S
H1264 C1290 0.950 . S
H1265 C1292 0.950 1_556 S
H1266 C1295 0.950 . S
H1267 C1296 0.950 . S
H1268 C1298 0.938 1_545 S
H1269 C1299 0.950 . S
C1270 H1252 0.951 . S
C1270 C1271 1.366 . S
C1270 C1272 1.388 . S
C1271 C1270 1.366 . S
C1271 C1275 1.385 . S
C1272 H1253 0.951 . S
C1272 C1270 1.388 . S
C1272 C1273 1.366 . S
C1273 C1272 1.366 . S
C1273 C1274 1.414 . S
C1273 C1276 1.499 . S
C1274 H1254 0.950 . S
C1274 C1273 1.414 . S
C1274 C1275 1.374 . S
C1275 H1255 0.950 . S
C1275 C1271 1.385 . S
C1275 C1274 1.374 . S
C1276 C1273 1.499 . S
C1276 C1277 1.373 . S
C1276 C1278 1.389 . S
C1277 H1256 0.950 . S
C1277 C1276 1.373 . S
C1277 C1293 1.377 . S
C1278 C1276 1.389 . S
C1278 C1279 1.524 1_554 S
C1278 C1292 1.377 . S
C1279 C1278 1.524 1_556 S
C1279 C1280 1.397 . S
C1279 C1284 1.363 . S
C1280 H1257 0.950 . S
C1280 C1279 1.397 . S
C1280 C1281 1.334 . S
C1281 H1258 0.950 . S
C1281 C1280 1.334 . S
C1281 C1282 1.287 . S
C1282 C1281 1.287 . S
C1282 C1283 1.524 . S
C1282 H1301 0.913 . S
C1283 H1259 0.950 . S
C1283 C1282 1.524 . S
C1283 C1284 1.415 . S
C1284 H1260 0.917 1_556 S
C1284 C1279 1.363 . S
C1284 C1283 1.415 . S
C1285 H1261 0.951 . S
C1285 C1286 1.366 . S
C1285 C1287 1.388 . S
C1286 C1285 1.366 . S
C1286 C1290 1.385 . S
C1287 H1262 0.951 . S
C1287 C1285 1.388 . S
C1287 C1288 1.366 . S
C1288 C1287 1.366 . S
C1288 C1289 1.414 . S
C1288 C1291 1.499 . S
C1289 H1263 0.950 . S
C1289 C1288 1.414 . S
C1289 C1290 1.374 . S
C1290 H1264 0.950 . S
C1290 C1286 1.385 . S
C1290 C1289 1.374 . S
C1291 C1288 1.499 . S
C1291 C1292 1.373 . S
C1291 C1293 1.389 . S
C1292 H1265 0.950 1_554 S
C1292 C1278 1.377 . S
C1292 C1291 1.373 . S
C1293 C1277 1.377 . S
C1293 C1291 1.389 . S
C1293 C1294 1.524 . S
C1294 C1293 1.524 . S
C1294 C1295 1.397 . S
C1294 C1299 1.363 . S
C1295 H1266 0.950 . S
C1295 C1294 1.397 . S
C1295 C1296 1.334 . S
C1296 H1267 0.950 . S
C1296 C1295 1.334 . S
C1296 C1297 1.287 . S
C1297 C1296 1.287 . S
C1297 C1298 1.524 . S
C1297 H1300 0.999 1_565 S
C1298 H1268 0.938 1_565 S
C1298 C1297 1.524 . S
C1298 C1299 1.415 . S
C1299 H1269 0.950 . S
C1299 C1294 1.363 . S
C1299 C1298 1.415 . S
H1300 C1297 0.999 1_545 S
H1301 C1282 0.913 . S
H1302 C1320 0.951 . S
H1303 C1322 0.951 . S
H1304 C1324 0.950 . S
H1305 C1325 0.950 . S
H1306 C1327 0.950 . S
H1307 C1330 0.950 . S
H1308 C1331 0.950 . S
H1309 C1333 0.950 1_455 S
H1310 C1334 0.950 1_455 S
H1311 C1335 0.951 . S
H1312 C1337 0.951 . S
H1313 C1339 0.950 . S
H1314 C1340 0.950 . S
H1315 C1342 0.950 . S
H1316 C1345 0.950 . S
H1317 C1346 0.950 . S
H1318 C1348 0.950 . S
H1319 C1349 0.950 . S
C1320 H1302 0.951 . S
C1320 C1321 1.366 . S
C1320 C1322 1.388 . S
C1321 C1320 1.366 . S
C1321 C1325 1.385 . S
C1322 H1303 0.951 . S
C1322 C1320 1.388 . S
C1322 C1323 1.366 . S
C1323 C1322 1.366 . S
C1323 C1324 1.414 . S
C1323 C1326 1.499 . S
C1324 H1304 0.950 . S
C1324 C1323 1.414 . S
C1324 C1325 1.374 . S
C1325 H1305 0.950 . S
C1325 C1321 1.385 . S
C1325 C1324 1.374 . S
C1326 C1323 1.499 . S
C1326 C1327 1.373 . S
C1326 C1328 1.389 . S
C1327 H1306 0.950 . S
C1327 C1326 1.373 . S
C1327 C1343 1.377 . S
C1328 C1326 1.389 . S
C1328 C1329 1.524 . S
C1328 C1342 1.377 1_655 S
C1329 C1328 1.524 . S
C1329 C1330 1.397 . S
C1329 C1334 1.363 . S
C1330 H1307 0.950 . S
C1330 C1329 1.397 . S
C1330 C1331 1.334 . S
C1331 H1308 0.950 . S
C1331 C1330 1.334 . S
C1331 C1332 1.287 . S
C1332 C1331 1.287 . S
C1332 C1333 1.524 . S
C1332 H1351 0.913 . S
C1333 H1309 0.950 1_655 S
C1333 C1332 1.524 . S
C1333 C1334 1.415 . S
C1334 H1310 0.950 1_655 S
C1334 C1329 1.363 . S
C1334 C1333 1.415 . S
C1335 H1311 0.951 . S
C1335 C1336 1.366 . S
C1335 C1337 1.388 . S
C1336 C1335 1.366 . S
C1336 C1340 1.385 . S
C1337 H1312 0.951 . S
C1337 C1335 1.388 . S
C1337 C1338 1.366 . S
C1338 C1337 1.366 . S
C1338 C1339 1.414 . S
C1338 C1341 1.499 . S
C1339 H1313 0.950 . S
C1339 C1338 1.414 . S
C1339 C1340 1.374 . S
C1340 H1314 0.950 . S
C1340 C1336 1.385 . S
C1340 C1339 1.374 . S
C1341 C1338 1.499 . S
C1341 C1342 1.373 . S
C1341 C1343 1.389 1_455 S
C1342 H1315 0.950 . S
C1342 C1328 1.377 1_455 S
C1342 C1341 1.373 . S
C1343 C1327 1.377 . S
C1343 C1341 1.389 1_655 S
C1343 C1344 1.533 . S
C1344 C1343 1.533 . S
C1344 C1345 1.363 1_655 S
C1344 C1349 1.388 . S
C1345 H1316 0.950 . S
C1345 C1344 1.363 1_455 S
C1345 C1346 1.334 . S
C1346 H1317 0.950 . S
C1346 C1345 1.334 . S
C1346 C1347 1.287 . S
C1347 C1346 1.287 . S
C1347 C1348 1.524 1_455 S
C1347 H1350 0.999 . S
C1348 H1318 0.950 . S
C1348 C1347 1.524 1_655 S
C1348 C1349 1.415 . S
C1349 H1319 0.950 . S
C1349 C1344 1.388 . S
C1349 C1348 1.415 . S
H1350 C1347 0.999 . S
H1351 C1332 0.913 . S
H1352 C1370 0.951 . S
H1353 C1372 0.951 . S
H1354 C1374 0.950 . S
H1355 C1375 0.950 . S
H1356 C1377 0.950 . S
H1357 C1380 0.950 . S
H1358 C1381 0.950 . S
H1359 C1383 0.950 . S
H1360 C1384 0.950 . S
H1361 C1385 0.951 . S
H1362 C1387 0.951 . S
H1363 C1389 0.950 . S
H1364 C1390 0.950 . S
H1365 C1392 0.950 . S
H1366 C1395 0.950 . S
H1367 C1396 0.950 . S
H1368 C1398 0.950 . S
H1369 C1399 0.950 . S
C1370 H1352 0.951 . S
C1370 C1371 1.366 . S
C1370 C1372 1.388 . S
C1371 C1370 1.366 . S
C1371 C1375 1.385 . S
C1372 H1353 0.951 . S
C1372 C1370 1.388 . S
C1372 C1373 1.366 . S
C1373 C1372 1.366 . S
C1373 C1374 1.414 . S
C1373 C1376 1.499 . S
C1374 H1354 0.950 . S
C1374 C1373 1.414 . S
C1374 C1375 1.374 . S
C1375 H1355 0.950 . S
C1375 C1371 1.385 . S
C1375 C1374 1.374 . S
C1376 C1373 1.499 . S
C1376 C1377 1.373 . S
C1376 C1378 1.389 . S
C1377 H1356 0.950 . S
C1377 C1376 1.373 . S
C1377 C1393 1.377 . S
C1378 C1376 1.389 . S
C1378 C1379 1.524 . S
C1378 C1392 1.377 . S
C1379 C1378 1.524 . S
C1379 C1380 1.397 . S
C1379 C1384 1.363 . S
C1380 H1357 0.950 . S
C1380 C1379 1.397 . S
C1380 C1381 1.334 . S
C1381 H1358 0.950 . S
C1381 C1380 1.334 . S
C1381 C1382 1.287 . S
C1382 C1381 1.287 . S
C1382 C1383 1.524 . S
C1382 H1401 0.913 . S
C1383 H1359 0.950 . S
C1383 C1382 1.524 . S
C1383 C1384 1.415 . S
C1384 H1360 0.950 . S
C1384 C1379 1.363 . S
C1384 C1383 1.415 . S
C1385 H1361 0.951 . S
C1385 C1386 1.366 . S
C1385 C1387 1.388 . S
C1386 C1385 1.366 . S
C1386 C1390 1.385 . S
C1387 H1362 0.951 . S
C1387 C1385 1.388 . S
C1387 C1388 1.366 . S
C1388 C1387 1.366 . S
C1388 C1389 1.414 . S
C1388 C1391 1.499 . S
C1389 H1363 0.950 . S
C1389 C1388 1.414 . S
C1389 C1390 1.374 . S
C1390 H1364 0.950 . S
C1390 C1386 1.385 . S
C1390 C1389 1.374 . S
C1391 C1388 1.499 . S
C1391 C1392 1.373 . S
C1391 C1393 1.389 . S
C1392 H1365 0.950 . S
C1392 C1378 1.377 . S
C1392 C1391 1.373 . S
C1393 C1377 1.377 . S
C1393 C1391 1.389 . S
C1393 C1394 1.524 . S
C1394 C1393 1.524 . S
C1394 C1395 1.397 . S
C1394 C1399 1.363 . S
C1395 H1366 0.950 . S
C1395 C1394 1.397 . S
C1395 C1396 1.334 . S
C1396 H1367 0.950 . S
C1396 C1395 1.334 . S
C1396 C1397 1.287 . S
C1397 C1396 1.287 . S
C1397 C1398 1.524 . S
C1397 H1400 0.999 . S
C1398 H1368 0.950 . S
C1398 C1397 1.524 . S
C1398 C1399 1.415 . S
C1399 H1369 0.950 . S
C1399 C1394 1.363 . S
C1399 C1398 1.415 . S
H1400 C1397 0.999 . S
H1401 C1382 0.913 . S
H1402 C1420 0.951 . S
H1403 C1422 0.951 . S
H1404 C1424 0.950 . S
H1405 C1425 0.950 . S
H1406 C1427 0.950 . S
H1407 C1430 0.950 . S
H1408 C1431 0.950 . S
H1409 C1433 0.950 . S
H1410 C1434 0.950 . S
H1411 C1435 0.951 . S
H1412 C1437 0.951 . S
H1413 C1439 0.950 . S
H1414 C1440 0.950 . S
H1415 C1442 0.950 1_565 S
H1416 C1445 0.950 . S
H1417 C1446 0.950 1_565 S
H1418 C1448 0.950 . S
H1419 C1449 0.950 . S
C1420 H1402 0.951 . S
C1420 C1421 1.366 . S
C1420 C1422 1.388 . S
C1421 C1420 1.366 . S
C1421 C1425 1.385 . S
C1422 H1403 0.951 . S
C1422 C1420 1.388 . S
C1422 C1423 1.366 . S
C1423 C1422 1.366 . S
C1423 C1424 1.414 . S
C1423 C1426 1.499 . S
C1424 H1404 0.950 . S
C1424 C1423 1.414 . S
C1424 C1425 1.374 . S
C1425 H1405 0.950 . S
C1425 C1421 1.385 . S
C1425 C1424 1.374 . S
C1426 C1423 1.499 . S
C1426 C1427 1.373 . S
C1426 C1428 1.389 . S
C1427 H1406 0.950 . S
C1427 C1426 1.373 . S
C1427 C1443 1.377 . S
C1428 C1426 1.389 . S
C1428 C1429 1.524 . S
C1428 C1442 1.377 . S
C1429 C1428 1.524 . S
C1429 C1430 1.397 . S
C1429 C1434 1.363 . S
C1430 H1407 0.950 . S
C1430 C1429 1.397 . S
C1430 C1431 1.334 . S
C1431 H1408 0.950 . S
C1431 C1430 1.334 . S
C1431 C1432 1.287 . S
C1432 C1431 1.287 . S
C1432 C1433 1.524 . S
C1432 H1451 0.913 . S
C1433 H1409 0.950 . S
C1433 C1432 1.524 . S
C1433 C1434 1.415 . S
C1434 H1410 0.950 . S
C1434 C1429 1.363 . S
C1434 C1433 1.415 . S
C1435 H1411 0.951 . S
C1435 C1436 1.366 . S
C1435 C1437 1.388 . S
C1436 C1435 1.366 . S
C1436 C1440 1.385 . S
C1437 H1412 0.951 . S
C1437 C1435 1.388 . S
C1437 C1438 1.366 . S
C1438 C1437 1.366 . S
C1438 C1439 1.414 . S
C1438 C1441 1.480 1_565 S
C1439 H1413 0.950 . S
C1439 C1438 1.414 . S
C1439 C1440 1.374 . S
C1440 H1414 0.950 . S
C1440 C1436 1.385 . S
C1440 C1439 1.374 . S
C1441 C1438 1.480 1_545 S
C1441 C1442 1.385 . S
C1441 C1443 1.397 . S
C1442 H1415 0.950 1_545 S
C1442 C1428 1.377 . S
C1442 C1441 1.385 . S
C1443 C1427 1.377 . S
C1443 C1441 1.397 . S
C1443 C1444 1.524 . S
C1444 C1443 1.524 . S
C1444 C1445 1.397 . S
C1444 C1449 1.363 . S
C1445 H1416 0.950 . S
C1445 C1444 1.397 . S
C1445 C1446 1.334 . S
C1446 H1417 0.950 1_545 S
C1446 C1445 1.334 . S
C1446 C1447 1.287 . S
C1447 C1446 1.287 . S
C1447 C1448 1.524 . S
C1447 H1450 0.999 . S
C1448 H1418 0.950 . S
C1448 C1447 1.524 . S
C1448 C1449 1.415 . S
C1449 H1419 0.950 . S
C1449 C1444 1.363 . S
C1449 C1448 1.415 . S
H1450 C1447 0.999 . S
H1451 C1432 0.913 . S
H1452 C1470 0.951 . S
H1453 C1472 0.951 . S
H1454 C1474 0.950 . S
H1455 C1475 0.950 . S
H1456 C1477 0.950 . S
H1457 C1480 0.950 . S
H1458 C1481 0.950 . S
H1459 C1483 0.950 . S
H1460 C1484 0.950 . S
H1461 C1485 0.951 . S
H1462 C1487 0.951 . S
H1463 C1489 0.950 . S
H1464 C1490 0.950 . S
H1465 C1492 0.950 . S
H1466 C1495 0.950 . S
H1467 C1496 0.950 . S
H1468 C1498 0.950 . S
H1469 C1499 0.950 . S
C1470 H1452 0.951 . S
C1470 C1471 1.366 . S
C1470 C1472 1.388 . S
C1471 C1470 1.366 . S
C1471 C1475 1.385 . S
C1472 H1453 0.951 . S
C1472 C1470 1.388 . S
C1472 C1473 1.366 . S
C1473 C1472 1.366 . S
C1473 C1474 1.414 . S
C1473 C1476 1.499 . S
C1474 H1454 0.950 . S
C1474 C1473 1.414 . S
C1474 C1475 1.374 . S
C1475 H1455 0.950 . S
C1475 C1471 1.385 . S
C1475 C1474 1.374 . S
C1476 C1473 1.499 . S
C1476 C1477 1.373 . S
C1476 C1478 1.389 . S
C1477 H1456 0.950 . S
C1477 C1476 1.373 . S
C1477 C1493 1.377 . S
C1478 C1476 1.389 . S
C1478 C1479 1.524 . S
C1478 C1492 1.377 . S
C1479 C1478 1.524 . S
C1479 C1480 1.397 . S
C1479 C1484 1.363 . S
C1480 H1457 0.950 . S
C1480 C1479 1.397 . S
C1480 C1481 1.334 . S
C1481 H1458 0.950 . S
C1481 C1480 1.334 . S
C1481 C1482 1.287 . S
C1482 C1481 1.287 . S
C1482 C1483 1.524 . S
C1482 H1501 0.913 . S
C1483 H1459 0.950 . S
C1483 C1482 1.524 . S
C1483 C1484 1.415 . S
C1484 H1460 0.950 . S
C1484 C1479 1.363 . S
C1484 C1483 1.415 . S
C1485 H1461 0.951 . S
C1485 C1486 1.366 . S
C1485 C1487 1.388 . S
C1486 C1485 1.366 . S
C1486 C1490 1.385 . S
C1487 H1462 0.951 . S
C1487 C1485 1.388 . S
C1487 C1488 1.366 . S
C1488 C1487 1.366 . S
C1488 C1489 1.414 . S
C1488 C1491 1.499 . S
C1489 H1463 0.950 . S
C1489 C1488 1.414 . S
C1489 C1490 1.374 . S
C1490 H1464 0.950 . S
C1490 C1486 1.385 . S
C1490 C1489 1.374 . S
C1491 C1488 1.499 . S
C1491 C1492 1.373 . S
C1491 C1493 1.389 . S
C1492 H1465 0.950 . S
C1492 C1478 1.377 . S
C1492 C1491 1.373 . S
C1493 C1477 1.377 . S
C1493 C1491 1.389 . S
C1493 C1494 1.524 . S
C1494 C1493 1.524 . S
C1494 C1495 1.397 . S
C1494 C1499 1.363 . S
C1495 H1466 0.950 . S
C1495 C1494 1.397 . S
C1495 C1496 1.334 . S
C1496 H1467 0.950 . S
C1496 C1495 1.334 . S
C1496 C1497 1.287 . S
C1497 C1496 1.287 . S
C1497 C1498 1.524 . S
C1497 H1500 0.999 . S
C1498 H1468 0.950 . S
C1498 C1497 1.524 . S
C1498 C1499 1.415 . S
C1499 H1469 0.950 . S
C1499 C1494 1.363 . S
C1499 C1498 1.415 . S
H1500 C1497 0.999 . S
H1501 C1482 0.913 . S
H1502 C1520 0.951 . S
H1503 C1522 0.951 . S
H1504 C1524 0.950 . S
H1505 C1525 0.950 . S
H1506 C1527 0.950 . S
H1507 C1530 0.950 . S
H1508 C1531 0.950 . S
H1509 C1533 0.950 . S
H1510 C1534 0.950 . S
H1511 C1535 0.951 . S
H1512 C1537 0.951 . S
H1513 C1539 0.950 . S
H1514 C1540 0.950 . S
H1515 C1542 0.950 . S
H1516 C1545 0.950 . S
H1517 C1546 0.950 . S
H1518 C1548 0.950 . S
H1519 C1549 0.950 . S
C1520 H1502 0.951 . S
C1520 C1521 1.366 . S
C1520 C1522 1.388 . S
C1521 C1520 1.366 . S
C1521 C1525 1.385 . S
C1522 H1503 0.951 . S
C1522 C1520 1.388 . S
C1522 C1523 1.366 . S
C1523 C1522 1.366 . S
C1523 C1524 1.414 . S
C1523 C1526 1.499 . S
C1524 H1504 0.950 . S
C1524 C1523 1.414 . S
C1524 C1525 1.374 . S
C1525 H1505 0.950 . S
C1525 C1521 1.385 . S
C1525 C1524 1.374 . S
C1526 C1523 1.499 . S
C1526 C1527 1.373 . S
C1526 C1528 1.389 . S
C1527 H1506 0.950 . S
C1527 C1526 1.373 . S
C1527 C1543 1.377 . S
C1528 C1526 1.389 . S
C1528 C1529 1.524 . S
C1528 C1542 1.377 . S
C1529 C1528 1.524 . S
C1529 C1530 1.397 . S
C1529 C1534 1.363 . S
C1530 H1507 0.950 . S
C1530 C1529 1.397 . S
C1530 C1531 1.334 . S
C1531 H1508 0.950 . S
C1531 C1530 1.334 . S
C1531 C1532 1.287 . S
C1532 C1531 1.287 . S
C1532 C1533 1.524 . S
C1532 H1551 0.913 . S
C1533 H1509 0.950 . S
C1533 C1532 1.524 . S
C1533 C1534 1.415 . S
C1534 H1510 0.950 . S
C1534 C1529 1.363 . S
C1534 C1533 1.415 . S
C1535 H1511 0.951 . S
C1535 C1536 1.366 . S
C1535 C1537 1.388 . S
C1536 C1535 1.366 . S
C1536 C1540 1.385 . S
C1537 H1512 0.951 . S
C1537 C1535 1.388 . S
C1537 C1538 1.366 . S
C1538 C1537 1.366 . S
C1538 C1539 1.414 . S
C1538 C1541 1.499 . S
C1539 H1513 0.950 . S
C1539 C1538 1.414 . S
C1539 C1540 1.374 . S
C1540 H1514 0.950 . S
C1540 C1536 1.385 . S
C1540 C1539 1.374 . S
C1541 C1538 1.499 . S
C1541 C1542 1.373 . S
C1541 C1543 1.389 . S
C1542 H1515 0.950 . S
C1542 C1528 1.377 . S
C1542 C1541 1.373 . S
C1543 C1527 1.377 . S
C1543 C1541 1.389 . S
C1543 C1544 1.524 . S
C1544 C1543 1.524 . S
C1544 C1545 1.397 . S
C1544 C1549 1.363 . S
C1545 H1516 0.950 . S
C1545 C1544 1.397 . S
C1545 C1546 1.334 . S
C1546 H1517 0.950 . S
C1546 C1545 1.334 . S
C1546 C1547 1.287 . S
C1547 C1546 1.287 . S
C1547 C1548 1.524 . S
C1547 H1550 0.999 . S
C1548 H1518 0.950 . S
C1548 C1547 1.524 . S
C1548 C1549 1.415 . S
C1549 H1519 0.950 . S
C1549 C1544 1.363 . S
C1549 C1548 1.415 . S
H1550 C1547 0.999 . S
H1551 C1532 0.913 . S
H1552 C1570 0.951 . S
H1553 C1572 0.951 . S
H1554 C1574 0.950 . S
H1555 C1575 0.950 . S
H1556 C1577 0.950 . S
H1557 C1580 0.950 . S
H1558 C1581 0.950 . S
H1559 C1583 0.950 . S
H1560 C1584 0.950 . S
H1561 C1585 0.951 . S
H1562 C1587 0.951 . S
H1563 C1589 0.950 . S
H1564 C1590 0.950 . S
H1565 C1592 0.950 . S
H1566 C1595 0.950 . S
H1567 C1596 0.950 . S
H1568 C1598 0.950 . S
H1569 C1599 0.950 . S
C1570 H1552 0.951 . S
C1570 C1571 1.366 . S
C1570 C1572 1.388 . S
C1571 C1570 1.366 . S
C1571 C1575 1.385 . S
C1572 H1553 0.951 . S
C1572 C1570 1.388 . S
C1572 C1573 1.366 . S
C1573 C1572 1.366 . S
C1573 C1574 1.414 . S
C1573 C1576 1.499 . S
C1574 H1554 0.950 . S
C1574 C1573 1.414 . S
C1574 C1575 1.374 . S
C1575 H1555 0.950 . S
C1575 C1571 1.385 . S
C1575 C1574 1.374 . S
C1576 C1573 1.499 . S
C1576 C1577 1.373 . S
C1576 C1578 1.389 . S
C1577 H1556 0.950 . S
C1577 C1576 1.373 . S
C1577 C1593 1.377 . S
C1578 C1576 1.389 . S
C1578 C1579 1.524 . S
C1578 C1592 1.377 . S
C1579 C1578 1.524 . S
C1579 C1580 1.397 . S
C1579 C1584 1.363 . S
C1580 H1557 0.950 . S
C1580 C1579 1.397 . S
C1580 C1581 1.334 . S
C1581 H1558 0.950 . S
C1581 C1580 1.334 . S
C1581 C1582 1.287 . S
C1582 C1581 1.287 . S
C1582 C1583 1.524 . S
C1582 H1601 0.913 . S
C1583 H1559 0.950 . S
C1583 C1582 1.524 . S
C1583 C1584 1.415 . S
C1584 H1560 0.950 . S
C1584 C1579 1.363 . S
C1584 C1583 1.415 . S
C1585 H1561 0.951 . S
C1585 C1586 1.366 . S
C1585 C1587 1.388 . S
C1586 C1585 1.366 . S
C1586 C1590 1.385 . S
C1587 H1562 0.951 . S
C1587 C1585 1.388 . S
C1587 C1588 1.366 . S
C1588 C1587 1.366 . S
C1588 C1589 1.414 . S
C1588 C1591 1.499 . S
C1589 H1563 0.950 . S
C1589 C1588 1.414 . S
C1589 C1590 1.374 . S
C1590 H1564 0.950 . S
C1590 C1586 1.385 . S
C1590 C1589 1.374 . S
C1591 C1588 1.499 . S
C1591 C1592 1.373 . S
C1591 C1593 1.389 . S
C1592 H1565 0.950 . S
C1592 C1578 1.377 . S
C1592 C1591 1.373 . S
C1593 C1577 1.377 . S
C1593 C1591 1.389 . S
C1593 C1594 1.524 . S
C1594 C1593 1.524 . S
C1594 C1595 1.397 . S
C1594 C1599 1.363 . S
C1595 H1566 0.950 . S
C1595 C1594 1.397 . S
C1595 C1596 1.334 . S
C1596 H1567 0.950 . S
C1596 C1595 1.334 . S
C1596 C1597 1.287 . S
C1597 C1596 1.287 . S
C1597 C1598 1.524 . S
C1597 H1600 0.999 . S
C1598 H1568 0.950 . S
C1598 C1597 1.524 . S
C1598 C1599 1.415 . S
C1599 H1569 0.950 . S
C1599 C1594 1.363 . S
C1599 C1598 1.415 . S
H1600 C1597 0.999 . S
H1601 C1582 0.913 . S
H1602 C1620 0.951 . S
H1603 C1622 0.951 . S
H1604 C1624 0.950 . S
H1605 C1625 0.950 . S
H1606 C1627 0.950 . S
H1607 C1630 0.950 . S
H1608 C1631 0.950 . S
H1609 C1633 0.950 . S
H1610 C1634 0.950 . S
H1611 C1635 0.951 . S
H1612 C1637 0.951 . S
H1613 C1639 0.950 . S
H1614 C1640 0.950 . S
H1615 C1642 0.950 . S
H1616 C1645 0.950 . S
H1617 C1646 0.950 . S
H1618 C1648 0.950 . S
H1619 C1649 0.950 . S
C1620 H1602 0.951 . S
C1620 C1621 1.366 . S
C1620 C1622 1.388 . S
C1621 C1620 1.366 . S
C1621 C1625 1.385 . S
C1622 H1603 0.951 . S
C1622 C1620 1.388 . S
C1622 C1623 1.366 . S
C1623 C1622 1.366 . S
C1623 C1624 1.414 . S
C1623 C1626 1.499 . S
C1624 H1604 0.950 . S
C1624 C1623 1.414 . S
C1624 C1625 1.374 . S
C1625 H1605 0.950 . S
C1625 C1621 1.385 . S
C1625 C1624 1.374 . S
C1626 C1623 1.499 . S
C1626 C1627 1.373 . S
C1626 C1628 1.389 . S
C1627 H1606 0.950 . S
C1627 C1626 1.373 . S
C1627 C1643 1.377 . S
C1628 C1626 1.389 . S
C1628 C1629 1.524 . S
C1628 C1642 1.377 . S
C1629 C1628 1.524 . S
C1629 C1630 1.397 . S
C1629 C1634 1.363 . S
C1630 H1607 0.950 . S
C1630 C1629 1.397 . S
C1630 C1631 1.334 . S
C1631 H1608 0.950 . S
C1631 C1630 1.334 . S
C1631 C1632 1.287 . S
C1632 C1631 1.287 . S
C1632 C1633 1.524 . S
C1632 H1651 0.913 . S
C1633 H1609 0.950 . S
C1633 C1632 1.524 . S
C1633 C1634 1.415 . S
C1634 H1610 0.950 . S
C1634 C1629 1.363 . S
C1634 C1633 1.415 . S
C1635 H1611 0.951 . S
C1635 C1636 1.366 . S
C1635 C1637 1.388 . S
C1636 C1635 1.366 . S
C1636 C1640 1.385 . S
C1637 H1612 0.951 . S
C1637 C1635 1.388 . S
C1637 C1638 1.366 . S
C1638 C1637 1.366 . S
C1638 C1639 1.414 . S
C1638 C1641 1.499 . S
C1639 H1613 0.950 . S
C1639 C1638 1.414 . S
C1639 C1640 1.374 . S
C1640 H1614 0.950 . S
C1640 C1636 1.385 . S
C1640 C1639 1.374 . S
C1641 C1638 1.499 . S
C1641 C1642 1.373 . S
C1641 C1643 1.389 . S
C1642 H1615 0.950 . S
C1642 C1628 1.377 . S
C1642 C1641 1.373 . S
C1643 C1627 1.377 . S
C1643 C1641 1.389 . S
C1643 C1644 1.524 . S
C1644 C1643 1.524 . S
C1644 C1645 1.397 . S
C1644 C1649 1.363 . S
C1645 H1616 0.950 . S
C1645 C1644 1.397 . S
C1645 C1646 1.334 . S
C1646 H1617 0.950 . S
C1646 C1645 1.334 . S
C1646 C1647 1.287 . S
C1647 C1646 1.287 . S
C1647 C1648 1.524 . S
C1647 H1650 0.999 . S
C1648 H1618 0.950 . S
C1648 C1647 1.524 . S
C1648 C1649 1.415 . S
C1649 H1619 0.950 . S
C1649 C1644 1.363 . S
C1649 C1648 1.415 . S
H1650 C1647 0.999 . S
H1651 C1632 0.913 . S
H1652 C1670 0.951 . S
H1653 C1672 0.951 . S
H1654 C1674 0.950 . S
H1655 C1675 0.950 . S
H1656 C1677 0.950 . S
H1657 C1680 0.950 . S
H1658 C1681 0.950 . S
H1659 C1683 0.950 . S
H1660 C1684 0.950 . S
H1661 C1685 0.951 . S
H1662 C1687 0.951 . S
H1663 C1689 0.950 . S
H1664 C1690 0.950 . S
H1665 C1692 0.950 . S
H1666 C1695 0.950 . S
H1667 C1696 0.950 . S
H1668 C1698 0.950 . S
H1669 C1699 0.950 . S
C1670 H1652 0.951 . S
C1670 C1671 1.366 . S
C1670 C1672 1.388 . S
C1671 C1670 1.366 . S
C1671 C1675 1.385 . S
C1672 H1653 0.951 . S
C1672 C1670 1.388 . S
C1672 C1673 1.366 . S
C1673 C1672 1.366 . S
C1673 C1674 1.414 . S
C1673 C1676 1.499 . S
C1674 H1654 0.950 . S
C1674 C1673 1.414 . S
C1674 C1675 1.374 . S
C1675 H1655 0.950 . S
C1675 C1671 1.385 . S
C1675 C1674 1.374 . S
C1676 C1673 1.499 . S
C1676 C1677 1.373 . S
C1676 C1678 1.389 . S
C1677 H1656 0.950 . S
C1677 C1676 1.373 . S
C1677 C1693 1.377 . S
C1678 C1676 1.389 . S
C1678 C1679 1.524 . S
C1678 C1692 1.377 . S
C1679 C1678 1.524 . S
C1679 C1680 1.397 . S
C1679 C1684 1.363 . S
C1680 H1657 0.950 . S
C1680 C1679 1.397 . S
C1680 C1681 1.334 . S
C1681 H1658 0.950 . S
C1681 C1680 1.334 . S
C1681 C1682 1.287 . S
C1682 C1681 1.287 . S
C1682 C1683 1.524 . S
C1682 H1701 0.913 . S
C1683 H1659 0.950 . S
C1683 C1682 1.524 . S
C1683 C1684 1.415 . S
C1684 H1660 0.950 . S
C1684 C1679 1.363 . S
C1684 C1683 1.415 . S
C1685 H1661 0.951 . S
C1685 C1686 1.366 . S
C1685 C1687 1.388 . S
C1686 C1685 1.366 . S
C1686 C1690 1.385 . S
C1687 H1662 0.951 . S
C1687 C1685 1.388 . S
C1687 C1688 1.366 . S
C1688 C1687 1.366 . S
C1688 C1689 1.414 . S
C1688 C1691 1.499 . S
C1689 H1663 0.950 . S
C1689 C1688 1.414 . S
C1689 C1690 1.374 . S
C1690 H1664 0.950 . S
C1690 C1686 1.385 . S
C1690 C1689 1.374 . S
C1691 C1688 1.499 . S
C1691 C1692 1.373 . S
C1691 C1693 1.389 . S
C1692 H1665 0.950 . S
C1692 C1678 1.377 . S
C1692 C1691 1.373 . S
C1693 C1677 1.377 . S
C1693 C1691 1.389 . S
C1693 C1694 1.524 . S
C1694 C1693 1.524 . S
C1694 C1695 1.397 . S
C1694 C1699 1.363 . S
C1695 H1666 0.950 . S
C1695 C1694 1.397 . S
C1695 C1696 1.334 . S
C1696 H1667 0.950 . S
C1696 C1695 1.334 . S
C1696 C1697 1.287 . S
C1697 C1696 1.287 . S
C1697 C1698 1.524 . S
C1697 H1700 0.999 . S
C1698 H1668 0.950 . S
C1698 C1697 1.524 . S
C1698 C1699 1.415 . S
C1699 H1669 0.950 . S
C1699 C1694 1.363 . S
C1699 C1698 1.415 . S
H1700 C1697 0.999 . S
H1701 C1682 0.913 . S
H1702 C1720 0.951 . S
H1703 C1722 0.951 . S
H1704 C1724 0.950 . S
H1705 C1725 0.950 . S
H1706 C1727 0.950 . S
H1707 C1730 0.950 . S
H1708 C1731 0.950 . S
H1709 C1733 0.950 . S
H1710 C1734 0.950 . S
H1711 C1735 0.951 . S
H1712 C1737 0.951 . S
H1713 C1739 0.950 . S
H1714 C1740 0.950 . S
H1715 C1742 0.950 . S
H1716 C1745 0.950 . S
H1717 C1746 0.950 . S
H1718 C1748 0.950 . S
H1719 C1749 0.950 . S
C1720 H1702 0.951 . S
C1720 C1721 1.366 . S
C1720 C1722 1.388 . S
C1721 C1720 1.366 . S
C1721 C1725 1.385 . S
C1722 H1703 0.951 . S
C1722 C1720 1.388 . S
C1722 C1723 1.366 . S
C1723 C1722 1.366 . S
C1723 C1724 1.414 . S
C1723 C1726 1.499 . S
C1724 H1704 0.950 . S
C1724 C1723 1.414 . S
C1724 C1725 1.374 . S
C1725 H1705 0.950 . S
C1725 C1721 1.385 . S
C1725 C1724 1.374 . S
C1726 C1723 1.499 . S
C1726 C1727 1.373 . S
C1726 C1728 1.389 . S
C1727 H1706 0.950 . S
C1727 C1726 1.373 . S
C1727 C1743 1.377 . S
C1728 C1726 1.389 . S
C1728 C1729 1.524 . S
C1728 C1742 1.377 . S
C1729 C1728 1.524 . S
C1729 C1730 1.397 . S
C1729 C1734 1.363 . S
C1730 H1707 0.950 . S
C1730 C1729 1.397 . S
C1730 C1731 1.334 . S
C1731 H1708 0.950 . S
C1731 C1730 1.334 . S
C1731 C1732 1.287 . S
C1732 C1731 1.287 . S
C1732 C1733 1.524 . S
C1732 H1751 0.913 . S
C1733 H1709 0.950 . S
C1733 C1732 1.524 . S
C1733 C1734 1.415 . S
C1734 H1710 0.950 . S
C1734 C1729 1.363 . S
C1734 C1733 1.415 . S
C1735 H1711 0.951 . S
C1735 C1736 1.366 . S
C1735 C1737 1.388 . S
C1736 C1735 1.366 . S
C1736 C1740 1.385 . S
C1737 H1712 0.951 . S
C1737 C1735 1.388 . S
C1737 C1738 1.366 . S
C1738 C1737 1.366 . S
C1738 C1739 1.414 . S
C1738 C1741 1.499 . S
C1739 H1713 0.950 . S
C1739 C1738 1.414 . S
C1739 C1740 1.374 . S
C1740 H1714 0.950 . S
C1740 C1736 1.385 . S
C1740 C1739 1.374 . S
C1741 C1738 1.499 . S
C1741 C1742 1.373 . S
C1741 C1743 1.389 . S
C1742 H1715 0.950 . S
C1742 C1728 1.377 . S
C1742 C1741 1.373 . S
C1743 C1727 1.377 . S
C1743 C1741 1.389 . S
C1743 C1744 1.524 . S
C1744 C1743 1.524 . S
C1744 C1745 1.397 . S
C1744 C1749 1.363 . S
C1745 H1716 0.950 . S
C1745 C1744 1.397 . S
C1745 C1746 1.334 . S
C1746 H1717 0.950 . S
C1746 C1745 1.334 . S
C1746 C1747 1.287 . S
C1747 C1746 1.287 . S
C1747 C1748 1.524 . S
C1747 H1750 0.999 . S
C1748 H1718 0.950 . S
C1748 C1747 1.524 . S
C1748 C1749 1.415 . S
C1749 H1719 0.950 . S
C1749 C1744 1.363 . S
C1749 C1748 1.415 . S
H1750 C1747 0.999 . S
H1751 C1732 0.913 . S
H1752 C1770 0.951 . S
H1753 C1772 0.951 1_565 S
H1754 C1774 0.915 1_565 S
H1755 C1775 0.950 . S
H1756 C1777 0.950 . S
H1757 C1780 0.950 . S
H1758 C1781 0.950 1_545 S
H1759 C1783 0.950 . S
H1760 C1784 0.950 . S
H1761 C1785 0.951 . S
H1762 C1787 0.951 . S
H1763 C1789 0.950 . S
H1764 C1790 0.950 . S
H1765 C1792 0.950 . S
H1766 C1795 0.950 . S
H1767 C1796 0.950 . S
H1768 C1798 0.950 . S
H1769 C1799 0.950 . S
C1770 H1752 0.951 . S
C1770 C1771 1.366 . S
C1770 C1772 1.388 . S
C1771 C1770 1.366 . S
C1771 C1775 1.385 . S
C1772 H1753 0.951 1_545 S
C1772 C1770 1.388 . S
C1772 C1773 1.366 1_545 S
C1773 C1772 1.366 1_565 S
C1773 C1774 1.414 1_565 S
C1773 C1776 1.499 . S
C1774 H1754 0.915 1_545 S
C1774 C1773 1.414 1_545 S
C1774 C1775 1.410 . S
C1775 H1755 0.950 . S
C1775 C1771 1.385 . S
C1775 C1774 1.410 . S
C1776 C1773 1.499 . S
C1776 C1777 1.373 . S
C1776 C1778 1.389 . S
C1777 H1756 0.950 . S
C1777 C1776 1.373 . S
C1777 C1793 1.377 . S
C1778 C1776 1.389 . S
C1778 C1779 1.524 . S
C1778 C1792 1.377 . S
C1779 C1778 1.524 . S
C1779 C1780 1.397 . S
C1779 C1784 1.363 . S
C1780 H1757 0.950 . S
C1780 C1779 1.397 . S
C1780 C1781 1.334 . S
C1781 H1758 0.950 1_565 S
C1781 C1780 1.334 . S
C1781 C1782 1.287 . S
C1782 C1781 1.287 . S
C1782 C1783 1.524 . S
C1782 H1801 0.913 . S
C1783 H1759 0.950 . S
C1783 C1782 1.524 . S
C1783 C1784 1.415 . S
C1784 H1760 0.950 . S
C1784 C1779 1.363 . S
C1784 C1783 1.415 . S
C1785 H1761 0.951 . S
C1785 C1786 1.366 . S
C1785 C1787 1.388 . S
C1786 C1785 1.366 . S
C1786 C1790 1.385 . S
C1787 H1762 0.951 . S
C1787 C1785 1.388 . S
C1787 C1788 1.366 . S
C1788 C1787 1.366 . S
C1788 C1789 1.414 . S
C1788 C1791 1.499 . S
C1789 H1763 0.950 . S
C1789 C1788 1.414 . S
C1789 C1790 1.374 . S
C1790 H1764 0.950 . S
C1790 C1786 1.385 . S
C1790 C1789 1.374 . S
C1791 C1788 1.499 . S
C1791 C1792 1.373 . S
C1791 C1793 1.389 . S
C1792 H1765 0.950 . S
C1792 C1778 1.377 . S
C1792 C1791 1.373 . S
C1793 C1777 1.377 . S
C1793 C1791 1.389 . S
C1793 C1794 1.524 . S
C1794 C1793 1.524 . S
C1794 C1795 1.397 . S
C1794 C1799 1.363 . S
C1795 H1766 0.950 . S
C1795 C1794 1.397 . S
C1795 C1796 1.334 . S
C1796 H1767 0.950 . S
C1796 C1795 1.334 . S
C1796 C1797 1.287 . S
C1797 C1796 1.287 . S
C1797 C1798 1.524 . S
C1797 H1800 0.999 . S
C1798 H1768 0.950 . S
C1798 C1797 1.524 . S
C1798 C1799 1.415 . S
C1799 H1769 0.950 . S
C1799 C1794 1.363 . S
C1799 C1798 1.415 . S
H1800 C1797 0.999 . S
H1801 C1782 0.913 . S
H1802 C1820 0.951 . S
H1803 C1822 0.951 . S
H1804 C1824 0.950 . S
H1805 C1825 0.950 . S
H1806 C1827 0.950 . S
H1807 C1830 0.950 . S
H1808 C1831 0.950 . S
H1809 C1833 0.950 . S
H1810 C1834 0.950 . S
H1811 C1835 0.951 . S
H1812 C1837 0.951 . S
H1813 C1839 0.950 . S
H1814 C1840 0.950 . S
H1815 C1842 0.950 . S
H1816 C1845 0.950 . S
H1817 C1846 0.950 . S
H1818 C1848 0.950 . S
H1819 C1849 0.950 . S
C1820 H1802 0.951 . S
C1820 C1821 1.366 1_455 S
C1820 C1822 1.388 . S
C1821 C1820 1.366 1_655 S
C1821 C1825 1.385 . S
C1822 H1803 0.951 . S
C1822 C1820 1.388 . S
C1822 C1823 1.366 . S
C1823 C1822 1.366 . S
C1823 C1824 1.414 . S
C1823 C1826 1.499 . S
C1824 H1804 0.950 . S
C1824 C1823 1.414 . S
C1824 C1825 1.374 1_455 S
C1825 H1805 0.950 . S
C1825 C1821 1.385 . S
C1825 C1824 1.374 1_655 S
C1826 C1823 1.499 . S
C1826 C1827 1.373 . S
C1826 C1828 1.389 . S
C1827 H1806 0.950 . S
C1827 C1826 1.373 . S
C1827 C1843 1.377 . S
C1828 C1826 1.389 . S
C1828 C1829 1.524 . S
C1828 C1842 1.377 . S
C1829 C1828 1.524 . S
C1829 C1830 1.397 . S
C1829 C1834 1.363 . S
C1830 H1807 0.950 . S
C1830 C1829 1.397 . S
C1830 C1831 1.334 . S
C1831 H1808 0.950 . S
C1831 C1830 1.334 . S
C1831 C1832 1.287 . S
C1832 C1831 1.287 . S
C1832 C1833 1.524 . S
C1832 H1851 0.913 . S
C1833 H1809 0.950 . S
C1833 C1832 1.524 . S
C1833 C1834 1.415 . S
C1834 H1810 0.950 . S
C1834 C1829 1.363 . S
C1834 C1833 1.415 . S
C1835 H1811 0.951 . S
C1835 C1836 1.366 . S
C1835 C1837 1.388 . S
C1836 C1835 1.366 . S
C1836 C1840 1.385 . S
C1837 H1812 0.951 . S
C1837 C1835 1.388 . S
C1837 C1838 1.366 . S
C1838 C1837 1.366 . S
C1838 C1839 1.414 . S
C1838 C1841 1.499 . S
C1839 H1813 0.950 . S
C1839 C1838 1.414 . S
C1839 C1840 1.374 . S
C1840 H1814 0.950 . S
C1840 C1836 1.385 . S
C1840 C1839 1.374 . S
C1841 C1838 1.499 . S
C1841 C1842 1.373 . S
C1841 C1843 1.389 . S
C1842 H1815 0.950 . S
C1842 C1828 1.377 . S
C1842 C1841 1.373 . S
C1843 C1827 1.377 . S
C1843 C1841 1.389 . S
C1843 C1844 1.524 . S
C1844 C1843 1.524 . S
C1844 C1845 1.397 . S
C1844 C1849 1.363 . S
C1845 H1816 0.950 . S
C1845 C1844 1.397 . S
C1845 C1846 1.334 . S
C1846 H1817 0.950 . S
C1846 C1845 1.334 . S
C1846 C1847 1.287 . S
C1847 C1846 1.287 . S
C1847 C1848 1.524 . S
C1847 H1850 0.999 . S
C1848 H1818 0.950 . S
C1848 C1847 1.524 . S
C1848 C1849 1.415 . S
C1849 H1819 0.950 . S
C1849 C1844 1.363 . S
C1849 C1848 1.415 . S
H1850 C1847 0.999 . S
H1851 C1832 0.913 . S
H1852 C1870 0.951 . S
H1853 C1872 0.951 . S
H1854 C1874 0.950 . S
H1855 C1875 0.950 . S
H1856 C1877 0.950 . S
H1857 C1880 0.950 . S
H1858 C1881 0.950 . S
H1859 C1883 0.950 . S
H1860 C1884 0.950 . S
H1861 C1885 0.951 . S
H1862 C1887 0.951 . S
H1863 C1889 0.950 . S
H1864 C1890 0.950 . S
H1865 C1892 0.950 . S
H1866 C1895 0.950 . S
H1867 C1896 0.950 . S
H1868 C1898 0.950 . S
H1869 C1899 0.950 . S
C1870 H1852 0.951 . S
C1870 C1871 1.366 . S
C1870 C1872 1.388 . S
C1871 C1870 1.366 . S
C1871 C1875 1.385 . S
C1872 H1853 0.951 . S
C1872 C1870 1.388 . S
C1872 C1873 1.366 . S
C1873 C1872 1.366 . S
C1873 C1874 1.414 . S
C1873 C1876 1.499 . S
C1874 H1854 0.950 . S
C1874 C1873 1.414 . S
C1874 C1875 1.374 . S
C1875 H1855 0.950 . S
C1875 C1871 1.385 . S
C1875 C1874 1.374 . S
C1876 C1873 1.499 . S
C1876 C1877 1.373 . S
C1876 C1878 1.389 . S
C1877 H1856 0.950 . S
C1877 C1876 1.373 . S
C1877 C1893 1.377 . S
C1878 C1876 1.389 . S
C1878 C1879 1.524 . S
C1878 C1892 1.377 . S
C1879 C1878 1.524 . S
C1879 C1880 1.397 . S
C1879 C1884 1.363 . S
C1880 H1857 0.950 . S
C1880 C1879 1.397 . S
C1880 C1881 1.334 . S
C1881 H1858 0.950 . S
C1881 C1880 1.334 . S
C1881 C1882 1.287 . S
C1882 C1881 1.287 . S
C1882 C1883 1.524 . S
C1882 H1901 0.913 . S
C1883 H1859 0.950 . S
C1883 C1882 1.524 . S
C1883 C1884 1.415 . S
C1884 H1860 0.950 . S
C1884 C1879 1.363 . S
C1884 C1883 1.415 . S
C1885 H1861 0.951 . S
C1885 C1886 1.366 . S
C1885 C1887 1.388 . S
C1886 C1885 1.366 . S
C1886 C1890 1.385 . S
C1887 H1862 0.951 . S
C1887 C1885 1.388 . S
C1887 C1888 1.366 . S
C1888 C1887 1.366 . S
C1888 C1889 1.414 . S
C1888 C1891 1.499 . S
C1889 H1863 0.950 . S
C1889 C1888 1.414 . S
C1889 C1890 1.374 . S
C1890 H1864 0.950 . S
C1890 C1886 1.385 . S
C1890 C1889 1.374 . S
C1891 C1888 1.499 . S
C1891 C1892 1.373 . S
C1891 C1893 1.389 . S
C1892 H1865 0.950 . S
C1892 C1878 1.377 . S
C1892 C1891 1.373 . S
C1893 C1877 1.377 . S
C1893 C1891 1.389 . S
C1893 C1894 1.524 . S
C1894 C1893 1.524 . S
C1894 C1895 1.397 . S
C1894 C1899 1.363 . S
C1895 H1866 0.950 . S
C1895 C1894 1.397 . S
C1895 C1896 1.334 . S
C1896 H1867 0.950 . S
C1896 C1895 1.334 . S
C1896 C1897 1.287 . S
C1897 C1896 1.287 . S
C1897 C1898 1.524 . S
C1897 H1900 0.999 . S
C1898 H1868 0.950 . S
C1898 C1897 1.524 . S
C1898 C1899 1.415 . S
C1899 H1869 0.950 . S
C1899 C1894 1.363 . S
C1899 C1898 1.415 . S
H1900 C1897 0.999 . S
H1901 C1882 0.913 . S
H1902 C1920 0.951 . S
H1903 C1922 0.951 . S
H1904 C1924 0.950 . S
H1905 C1925 0.950 . S
H1906 C1927 0.950 . S
H1907 C1930 0.950 . S
H1908 C1931 0.950 . S
H1909 C1933 0.950 . S
H1910 C1934 0.950 . S
H1911 C1935 0.951 . S
H1912 C1937 0.951 . S
H1913 C1939 0.950 . S
H1914 C1940 0.950 . S
H1915 C1942 0.950 . S
H1916 C1945 0.950 . S
H1917 C1946 0.950 . S
H1918 C1948 0.950 . S
H1919 C1949 0.950 . S
C1920 H1902 0.951 . S
C1920 C1921 1.366 . S
C1920 C1922 1.388 . S
C1921 C1920 1.366 . S
C1921 C1925 1.385 . S
C1922 H1903 0.951 . S
C1922 C1920 1.388 . S
C1922 C1923 1.366 . S
C1923 C1922 1.366 . S
C1923 C1924 1.414 . S
C1923 C1926 1.499 . S
C1924 H1904 0.950 . S
C1924 C1923 1.414 . S
C1924 C1925 1.374 . S
C1925 H1905 0.950 . S
C1925 C1921 1.385 . S
C1925 C1924 1.374 . S
C1926 C1923 1.499 . S
C1926 C1927 1.373 . S
C1926 C1928 1.389 . S
C1927 H1906 0.950 . S
C1927 C1926 1.373 . S
C1927 C1943 1.377 . S
C1928 C1926 1.389 . S
C1928 C1929 1.524 . S
C1928 C1942 1.377 . S
C1929 C1928 1.524 . S
C1929 C1930 1.397 . S
C1929 C1934 1.363 . S
C1930 H1907 0.950 . S
C1930 C1929 1.397 . S
C1930 C1931 1.334 . S
C1931 H1908 0.950 . S
C1931 C1930 1.334 . S
C1931 C1932 1.287 . S
C1932 C1931 1.287 . S
C1932 C1933 1.524 . S
C1932 H1951 0.913 . S
C1933 H1909 0.950 . S
C1933 C1932 1.524 . S
C1933 C1934 1.415 . S
C1934 H1910 0.950 . S
C1934 C1929 1.363 . S
C1934 C1933 1.415 . S
C1935 H1911 0.951 . S
C1935 C1936 1.366 . S
C1935 C1937 1.388 . S
C1936 C1935 1.366 . S
C1936 C1940 1.385 . S
C1937 H1912 0.951 . S
C1937 C1935 1.388 . S
C1937 C1938 1.366 . S
C1938 C1937 1.366 . S
C1938 C1939 1.414 . S
C1938 C1941 1.499 . S
C1939 H1913 0.950 . S
C1939 C1938 1.414 . S
C1939 C1940 1.374 . S
C1940 H1914 0.950 . S
C1940 C1936 1.385 . S
C1940 C1939 1.374 . S
C1941 C1938 1.499 . S
C1941 C1942 1.373 . S
C1941 C1943 1.389 . S
C1942 H1915 0.950 . S
C1942 C1928 1.377 . S
C1942 C1941 1.373 . S
C1943 C1927 1.377 . S
C1943 C1941 1.389 . S
C1943 C1944 1.524 . S
C1944 C1943 1.524 . S
C1944 C1945 1.397 . S
C1944 C1949 1.363 . S
C1945 H1916 0.950 . S
C1945 C1944 1.397 . S
C1945 C1946 1.334 . S
C1946 H1917 0.950 . S
C1946 C1945 1.334 . S
C1946 C1947 1.287 . S
C1947 C1946 1.287 . S
C1947 C1948 1.524 . S
C1947 H1950 0.999 . S
C1948 H1918 0.950 . S
C1948 C1947 1.524 . S
C1948 C1949 1.415 . S
C1949 H1919 0.950 . S
C1949 C1944 1.363 . S
C1949 C1948 1.415 . S
H1950 C1947 0.999 . S
H1951 C1932 0.913 . S
H1952 C1970 0.951 . S
H1953 C1972 0.951 . S
H1954 C1974 0.950 . S
H1955 C1975 0.950 . S
H1956 C1977 0.950 . S
H1957 C1980 0.950 . S
H1958 C1981 0.950 . S
H1959 C1983 0.950 . S
H1960 C1984 0.950 . S
H1961 C1985 0.951 . S
H1962 C1987 0.951 . S
H1963 C1989 0.950 . S
H1964 C1990 0.950 . S
H1965 C1992 0.950 . S
H1966 C1995 0.950 . S
H1967 C1996 0.950 . S
H1968 C1998 0.950 . S
H1969 C1999 0.950 . S
C1970 H1952 0.951 . S
C1970 C1971 1.366 . S
C1970 C1972 1.388 . S
C1971 C1970 1.366 . S
C1971 C1975 1.385 . S
C1972 H1953 0.951 . S
C1972 C1970 1.388 . S
C1972 C1973 1.366 . S
C1973 C1972 1.366 . S
C1973 C1974 1.414 . S
C1973 C1976 1.499 . S
C1974 H1954 0.950 . S
C1974 C1973 1.414 . S
C1974 C1975 1.374 . S
C1975 H1955 0.950 . S
C1975 C1971 1.385 . S
C1975 C1974 1.374 . S
C1976 C1973 1.499 . S
C1976 C1977 1.373 . S
C1976 C1978 1.389 . S
C1977 H1956 0.950 . S
C1977 C1976 1.373 . S
C1977 C1993 1.377 . S
C1978 C1976 1.389 . S
C1978 C1979 1.524 . S
C1978 C1992 1.377 . S
C1979 C1978 1.524 . S
C1979 C1980 1.397 . S
C1979 C1984 1.363 . S
C1980 H1957 0.950 . S
C1980 C1979 1.397 . S
C1980 C1981 1.334 . S
C1981 H1958 0.950 . S
C1981 C1980 1.334 . S
C1981 C1982 1.287 . S
C1982 C1981 1.287 . S
C1982 C1983 1.524 . S
C1982 H2001 0.913 . S
C1983 H1959 0.950 . S
C1983 C1982 1.524 . S
C1983 C1984 1.415 . S
C1984 H1960 0.950 . S
C1984 C1979 1.363 . S
C1984 C1983 1.415 . S
C1985 H1961 0.951 . S
C1985 C1986 1.366 . S
C1985 C1987 1.388 . S
C1986 C1985 1.366 . S
C1986 C1990 1.385 . S
C1987 H1962 0.951 . S
C1987 C1985 1.388 . S
C1987 C1988 1.366 . S
C1988 C1987 1.366 . S
C1988 C1989 1.414 . S
C1988 C1991 1.499 . S
C1989 H1963 0.950 . S
C1989 C1988 1.414 . S
C1989 C1990 1.374 . S
C1990 H1964 0.950 . S
C1990 C1986 1.385 . S
C1990 C1989 1.374 . S
C1991 C1988 1.499 . S
C1991 C1992 1.373 . S
C1991 C1993 1.389 . S
C1992 H1965 0.950 . S
C1992 C1978 1.377 . S
C1992 C1991 1.373 . S
C1993 C1977 1.377 . S
C1993 C1991 1.389 . S
C1993 C1994 1.524 . S
C1994 C1993 1.524 . S
C1994 C1995 1.397 . S
C1994 C1999 1.363 . S
C1995 H1966 0.950 . S
C1995 C1994 1.397 . S
C1995 C1996 1.334 . S
C1996 H1967 0.950 . S
C1996 C1995 1.334 . S
C1996 C1997 1.287 . S
C1997 C1996 1.287 . S
C1997 C1998 1.524 . S
C1997 H2000 0.999 . S
C1998 H1968 0.950 . S
C1998 C1997 1.524 . S
C1998 C1999 1.415 . S
C1999 H1969 0.950 . S
C1999 C1994 1.363 . S
C1999 C1998 1.415 . S
H2000 C1997 0.999 . S
H2001 C1982 0.913 . S
H2002 C2020 0.951 . S
H2003 C2022 0.951 . S
H2004 C2024 0.950 . S
H2005 C2025 0.950 . S
H2006 C2027 0.950 . S
H2007 C2030 0.950 . S
H2008 C2031 0.950 . S
H2009 C2033 0.950 . S
H2010 C2034 0.950 . S
H2011 C2035 0.951 . S
H2012 C2037 0.951 . S
H2013 C2039 0.950 . S
H2014 C2040 0.950 . S
H2015 C2042 0.950 . S
H2016 C2045 0.950 . S
H2017 C2046 0.950 . S
H2018 C2048 0.950 . S
H2019 C2049 0.950 . S
C2020 H2002 0.951 . S
C2020 C2021 1.366 . S
C2020 C2022 1.388 . S
C2021 C2020 1.366 . S
C2021 C2025 1.385 . S
C2022 H2003 0.951 . S
C2022 C2020 1.388 . S
C2022 C2023 1.366 . S
C2023 C2022 1.366 . S
C2023 C2024 1.414 . S
C2023 C2026 1.499 . S
C2024 H2004 0.950 . S
C2024 C2023 1.414 . S
C2024 C2025 1.374 . S
C2025 H2005 0.950 . S
C2025 C2021 1.385 . S
C2025 C2024 1.374 . S
C2026 C2023 1.499 . S
C2026 C2027 1.373 . S
C2026 C2028 1.389 . S
C2027 H2006 0.950 . S
C2027 C2026 1.373 . S
C2027 C2043 1.377 . S
C2028 C2026 1.389 . S
C2028 C2029 1.524 . S
C2028 C2042 1.377 . S
C2029 C2028 1.524 . S
C2029 C2030 1.397 . S
C2029 C2034 1.363 . S
C2030 H2007 0.950 . S
C2030 C2029 1.397 . S
C2030 C2031 1.334 . S
C2031 H2008 0.950 . S
C2031 C2030 1.334 . S
C2031 C2032 1.287 . S
C2032 C2031 1.287 . S
C2032 C2033 1.524 . S
C2032 H2051 0.913 . S
C2033 H2009 0.950 . S
C2033 C2032 1.524 . S
C2033 C2034 1.415 . S
C2034 H2010 0.950 . S
C2034 C2029 1.363 . S
C2034 C2033 1.415 . S
C2035 H2011 0.951 . S
C2035 C2036 1.366 . S
C2035 C2037 1.388 . S
C2036 C2035 1.366 . S
C2036 C2040 1.385 . S
C2037 H2012 0.951 . S
C2037 C2035 1.388 . S
C2037 C2038 1.366 . S
C2038 C2037 1.366 . S
C2038 C2039 1.414 . S
C2038 C2041 1.499 . S
C2039 H2013 0.950 . S
C2039 C2038 1.414 . S
C2039 C2040 1.374 . S
C2040 H2014 0.950 . S
C2040 C2036 1.385 . S
C2040 C2039 1.374 . S
C2041 C2038 1.499 . S
C2041 C2042 1.373 . S
C2041 C2043 1.389 . S
C2042 H2015 0.950 . S
C2042 C2028 1.377 . S
C2042 C2041 1.373 . S
C2043 C2027 1.377 . S
C2043 C2041 1.389 . S
C2043 C2044 1.524 . S
C2044 C2043 1.524 . S
C2044 C2045 1.397 . S
C2044 C2049 1.363 . S
C2045 H2016 0.950 . S
C2045 C2044 1.397 . S
C2045 C2046 1.334 . S
C2046 H2017 0.950 . S
C2046 C2045 1.334 . S
C2046 C2047 1.287 . S
C2047 C2046 1.287 . S
C2047 C2048 1.524 . S
C2047 H2050 0.999 . S
C2048 H2018 0.950 . S
C2048 C2047 1.524 . S
C2048 C2049 1.415 . S
C2049 H2019 0.950 . S
C2049 C2044 1.363 . S
C2049 C2048 1.415 . S
H2050 C2047 0.999 . S
H2051 C2032 0.913 . S
H2052 C2070 0.951 . S
H2053 C2072 0.951 . S
H2054 C2074 0.950 . S
H2055 C2075 0.950 . S
H2056 C2077 0.950 . S
H2057 C2080 0.950 . S
H2058 C2081 0.950 . S
H2059 C2083 0.950 . S
H2060 C2084 0.950 . S
H2061 C2085 0.951 . S
H2062 C2087 0.951 . S
H2063 C2089 0.950 . S
H2064 C2090 0.950 . S
H2065 C2092 0.950 . S
H2066 C2095 0.950 . S
H2067 C2096 0.950 . S
H2068 C2098 0.950 . S
H2069 C2099 0.950 . S
C2070 H2052 0.951 . S
C2070 C2071 1.366 . S
C2070 C2072 1.388 . S
C2071 C2070 1.366 . S
C2071 C2075 1.385 . S
C2072 H2053 0.951 . S
C2072 C2070 1.388 . S
C2072 C2073 1.366 . S
C2073 C2072 1.366 . S
C2073 C2074 1.414 . S
C2073 C2076 1.499 . S
C2074 H2054 0.950 . S
C2074 C2073 1.414 . S
C2074 C2075 1.374 . S
C2075 H2055 0.950 . S
C2075 C2071 1.385 . S
C2075 C2074 1.374 . S
C2076 C2073 1.499 . S
C2076 C2077 1.373 . S
C2076 C2078 1.389 . S
C2077 H2056 0.950 . S
C2077 C2076 1.373 . S
C2077 C2093 1.377 1_565 S
C2078 C2076 1.389 . S
C2078 C2079 1.524 . S
C2078 C2092 1.377 . S
C2079 C2078 1.524 . S
C2079 C2080 1.397 . S
C2079 C2084 1.363 . S
C2080 H2057 0.950 . S
C2080 C2079 1.397 . S
C2080 C2081 1.334 . S
C2081 H2058 0.950 . S
C2081 C2080 1.334 . S
C2081 C2082 1.287 . S
C2082 C2081 1.287 . S
C2082 C2083 1.524 . S
C2082 H2101 0.913 . S
C2083 H2059 0.950 . S
C2083 C2082 1.524 . S
C2083 C2084 1.415 . S
C2084 H2060 0.950 . S
C2084 C2079 1.363 . S
C2084 C2083 1.415 . S
C2085 H2061 0.951 . S
C2085 C2086 1.366 . S
C2085 C2087 1.388 . S
C2086 C2085 1.366 . S
C2086 C2090 1.385 . S
C2087 H2062 0.951 . S
C2087 C2085 1.388 . S
C2087 C2088 1.366 . S
C2088 C2087 1.366 . S
C2088 C2089 1.414 . S
C2088 C2091 1.499 . S
C2089 H2063 0.950 . S
C2089 C2088 1.414 . S
C2089 C2090 1.374 . S
C2090 H2064 0.950 . S
C2090 C2086 1.385 . S
C2090 C2089 1.374 . S
C2091 C2088 1.499 . S
C2091 C2092 1.373 1_545 S
C2091 C2093 1.389 . S
C2092 H2065 0.950 . S
C2092 C2078 1.377 . S
C2092 C2091 1.373 1_565 S
C2093 C2077 1.377 1_545 S
C2093 C2091 1.389 . S
C2093 C2094 1.524 . S
C2094 C2093 1.524 . S
C2094 C2095 1.397 . S
C2094 C2099 1.363 . S
C2095 H2066 0.950 . S
C2095 C2094 1.397 . S
C2095 C2096 1.334 . S
C2096 H2067 0.950 . S
C2096 C2095 1.334 . S
C2096 C2097 1.287 . S
C2097 C2096 1.287 . S
C2097 C2098 1.524 . S
C2097 H2100 0.999 . S
C2098 H2068 0.950 . S
C2098 C2097 1.524 . S
C2098 C2099 1.415 . S
C2099 H2069 0.950 . S
C2099 C2094 1.363 . S
C2099 C2098 1.415 . S
H2100 C2097 0.999 . S
H2101 C2082 0.913 . S
H2102 C2120 0.951 . S
H2103 C2122 0.951 . S
H2104 C2124 0.950 . S
H2105 C2125 0.950 . S
H2106 C2127 0.950 . S
H2107 C2130 0.950 . S
H2108 C2131 0.950 . S
H2109 C2133 0.950 . S
H2110 C2134 0.950 . S
H2111 C2135 0.951 . S
H2112 C2137 0.951 . S
H2113 C2139 0.950 . S
H2114 C2140 0.950 . S
H2115 C2142 0.950 . S
H2116 C2145 0.950 . S
H2117 C2146 0.950 . S
H2118 C2148 0.950 . S
H2119 C2149 0.950 . S
C2120 H2102 0.951 . S
C2120 C2121 1.366 . S
C2120 C2122 1.388 . S
C2121 C2120 1.366 . S
C2121 C2125 1.385 . S
C2122 H2103 0.951 . S
C2122 C2120 1.388 . S
C2122 C2123 1.366 . S
C2123 C2122 1.366 . S
C2123 C2124 1.414 . S
C2123 C2126 1.499 . S
C2124 H2104 0.950 . S
C2124 C2123 1.414 . S
C2124 C2125 1.374 . S
C2125 H2105 0.950 . S
C2125 C2121 1.385 . S
C2125 C2124 1.374 . S
C2126 C2123 1.499 . S
C2126 C2127 1.373 . S
C2126 C2128 1.389 . S
C2127 H2106 0.950 . S
C2127 C2126 1.373 . S
C2127 C2143 1.377 1_455 S
C2128 C2126 1.389 . S
C2128 C2129 1.524 . S
C2128 C2142 1.377 . S
C2129 C2128 1.524 . S
C2129 C2130 1.397 . S
C2129 C2134 1.363 . S
C2130 H2107 0.950 . S
C2130 C2129 1.397 . S
C2130 C2131 1.334 . S
C2131 H2108 0.950 . S
C2131 C2130 1.334 . S
C2131 C2132 1.287 . S
C2132 C2131 1.287 . S
C2132 C2133 1.524 . S
C2132 H2151 0.913 . S
C2133 H2109 0.950 . S
C2133 C2132 1.524 . S
C2133 C2134 1.415 . S
C2134 H2110 0.950 . S
C2134 C2129 1.363 . S
C2134 C2133 1.415 . S
C2135 H2111 0.951 . S
C2135 C2136 1.366 . S
C2135 C2137 1.388 . S
C2136 C2135 1.366 . S
C2136 C2140 1.385 . S
C2137 H2112 0.951 . S
C2137 C2135 1.388 . S
C2137 C2138 1.366 . S
C2138 C2137 1.366 . S
C2138 C2139 1.414 . S
C2138 C2141 1.499 . S
C2139 H2113 0.950 . S
C2139 C2138 1.414 . S
C2139 C2140 1.374 . S
C2140 H2114 0.950 . S
C2140 C2136 1.385 . S
C2140 C2139 1.374 . S
C2141 C2138 1.499 . S
C2141 C2142 1.373 1_655 S
C2141 C2143 1.389 . S
C2142 H2115 0.950 . S
C2142 C2128 1.377 . S
C2142 C2141 1.373 1_455 S
C2143 C2127 1.377 1_655 S
C2143 C2141 1.389 . S
C2143 C2144 1.524 . S
C2144 C2143 1.524 . S
C2144 C2145 1.397 . S
C2144 C2149 1.363 . S
C2145 H2116 0.950 . S
C2145 C2144 1.397 . S
C2145 C2146 1.334 . S
C2146 H2117 0.950 . S
C2146 C2145 1.334 . S
C2146 C2147 1.287 . S
C2147 C2146 1.287 . S
C2147 C2148 1.524 . S
C2147 H2150 0.999 . S
C2148 H2118 0.950 . S
C2148 C2147 1.524 . S
C2148 C2149 1.415 . S
C2149 H2119 0.950 . S
C2149 C2144 1.363 . S
C2149 C2148 1.415 . S
H2150 C2147 0.999 . S
H2151 C2132 0.913 . S
H2152 C2170 0.951 . S
H2153 C2172 0.951 . S
H2154 C2174 0.950 . S
H2155 C2175 0.950 . S
H2156 C2177 0.950 . S
H2157 C2180 0.950 . S
H2158 C2181 0.950 . S
H2159 C2183 0.950 . S
H2160 C2184 0.950 . S
H2161 C2185 0.951 . S
H2162 C2187 0.951 . S
H2163 C2189 0.950 . S
H2164 C2190 0.950 . S
H2165 C2192 0.950 . S
H2166 C2195 0.950 . S
H2167 C2196 0.950 . S
H2168 C2198 0.950 . S
H2169 C2199 0.950 . S
C2170 H2152 0.951 . S
C2170 C2171 1.366 . S
C2170 C2172 1.388 . S
C2171 C2170 1.366 . S
C2171 C2175 1.385 . S
C2172 H2153 0.951 . S
C2172 C2170 1.388 . S
C2172 C2173 1.366 . S
C2173 C2172 1.366 . S
C2173 C2174 1.414 . S
C2173 C2176 1.499 . S
C2174 H2154 0.950 . S
C2174 C2173 1.414 . S
C2174 C2175 1.374 . S
C2175 H2155 0.950 . S
C2175 C2171 1.385 . S
C2175 C2174 1.374 . S
C2176 C2173 1.499 . S
C2176 C2177 1.373 . S
C2176 C2178 1.389 . S
C2177 H2156 0.950 . S
C2177 C2176 1.373 . S
C2177 C2193 1.377 . S
C2178 C2176 1.389 . S
C2178 C2179 1.524 . S
C2178 C2192 1.377 . S
C2179 C2178 1.524 . S
C2179 C2180 1.397 . S
C2179 C2184 1.363 . S
C2180 H2157 0.950 . S
C2180 C2179 1.397 . S
C2180 C2181 1.334 . S
C2181 H2158 0.950 . S
C2181 C2180 1.334 . S
C2181 C2182 1.287 . S
C2182 C2181 1.287 . S
C2182 C2183 1.524 . S
C2182 H2201 0.913 . S
C2183 H2159 0.950 . S
C2183 C2182 1.524 . S
C2183 C2184 1.415 . S
C2184 H2160 0.950 . S
C2184 C2179 1.363 . S
C2184 C2183 1.415 . S
C2185 H2161 0.951 . S
C2185 C2186 1.366 . S
C2185 C2187 1.388 . S
C2186 C2185 1.366 . S
C2186 C2190 1.385 . S
C2187 H2162 0.951 . S
C2187 C2185 1.388 . S
C2187 C2188 1.366 . S
C2188 C2187 1.366 . S
C2188 C2189 1.414 . S
C2188 C2191 1.499 . S
C2189 H2163 0.950 . S
C2189 C2188 1.414 . S
C2189 C2190 1.374 . S
C2190 H2164 0.950 . S
C2190 C2186 1.385 . S
C2190 C2189 1.374 . S
C2191 C2188 1.499 . S
C2191 C2192 1.373 . S
C2191 C2193 1.389 . S
C2192 H2165 0.950 . S
C2192 C2178 1.377 . S
C2192 C2191 1.373 . S
C2193 C2177 1.377 . S
C2193 C2191 1.389 . S
C2193 C2194 1.524 . S
C2194 C2193 1.524 . S
C2194 C2195 1.397 . S
C2194 C2199 1.363 . S
C2195 H2166 0.950 . S
C2195 C2194 1.397 . S
C2195 C2196 1.334 . S
C2196 H2167 0.950 . S
C2196 C2195 1.334 . S
C2196 C2197 1.287 . S
C2197 C2196 1.287 . S
C2197 C2198 1.524 . S
C2197 H2200 0.999 . S
C2198 H2168 0.950 . S
C2198 C2197 1.524 . S
C2198 C2199 1.415 . S
C2199 H2169 0.950 . S
C2199 C2194 1.363 . S
C2199 C2198 1.415 . S
H2200 C2197 0.999 . S
H2201 C2182 0.913 . S
H2202 C2220 0.951 . S
H2203 C2222 0.954 1_655 S
H2204 C2224 0.951 . S
H2205 C2225 0.950 . S
H2206 C2227 0.950 . S
H2207 C2230 0.950 . S
H2208 C2231 0.984 . S
H2209 C2233 0.950 . S
H2210 C2234 0.950 . S
H2211 C2235 0.951 . S
H2212 C2237 0.951 . S
H2213 C2239 0.950 . S
H2214 C2240 0.950 . S
H2215 C2242 0.950 . S
H2216 C2245 0.950 . S
H2217 C2246 0.950 . S
H2218 C2248 0.950 . S
H2219 C2249 0.950 . S
C2220 H2202 0.951 . S
C2220 C2221 1.366 . S
C2220 C2222 1.385 . S
C2221 C2220 1.366 . S
C2221 C2225 1.385 . S
C2222 H2203 0.954 1_455 S
C2222 C2220 1.385 . S
C2222 C2223 1.366 1_455 S
C2223 C2222 1.366 1_655 S
C2223 C2224 1.440 . S
C2223 C2226 1.499 . S
C2224 H2204 0.951 . S
C2224 C2223 1.440 . S
C2224 C2225 1.348 1_655 S
C2225 H2205 0.950 . S
C2225 C2221 1.385 . S
C2225 C2224 1.348 1_455 S
C2226 C2223 1.499 . S
C2226 C2227 1.373 . S
C2226 C2228 1.389 . S
C2227 H2206 0.950 . S
C2227 C2226 1.373 . S
C2227 C2243 1.377 . S
C2228 C2226 1.389 . S
C2228 C2229 1.524 . S
C2228 C2242 1.377 . S
C2229 C2228 1.524 . S
C2229 C2230 1.397 . S
C2229 C2234 1.363 . S
C2230 H2207 0.950 . S
C2230 C2229 1.397 . S
C2230 C2231 1.321 1_655 S
C2231 H2208 0.984 . S
C2231 C2230 1.321 1_455 S
C2231 C2232 1.266 1_455 S
C2232 C2231 1.266 1_655 S
C2232 C2233 1.524 . S
C2232 H2251 0.913 1_655 S
C2233 H2209 0.950 . S
C2233 C2232 1.524 . S
C2233 C2234 1.415 . S
C2234 H2210 0.950 . S
C2234 C2229 1.363 . S
C2234 C2233 1.415 . S
C2235 H2211 0.951 . S
C2235 C2236 1.366 . S
C2235 C2237 1.388 . S
C2236 C2235 1.366 . S
C2236 C2240 1.385 . S
C2237 H2212 0.951 . S
C2237 C2235 1.388 . S
C2237 C2238 1.366 . S
C2238 C2237 1.366 . S
C2238 C2239 1.414 . S
C2238 C2241 1.499 . S
C2239 H2213 0.950 . S
C2239 C2238 1.414 . S
C2239 C2240 1.374 . S
C2240 H2214 0.950 . S
C2240 C2236 1.385 . S
C2240 C2239 1.374 . S
C2241 C2238 1.499 . S
C2241 C2242 1.373 . S
C2241 C2243 1.389 . S
C2242 H2215 0.950 . S
C2242 C2228 1.377 . S
C2242 C2241 1.373 . S
C2243 C2227 1.377 . S
C2243 C2241 1.389 . S
C2243 C2244 1.524 . S
C2244 C2243 1.524 . S
C2244 C2245 1.397 . S
C2244 C2249 1.363 . S
C2245 H2216 0.950 . S
C2245 C2244 1.397 . S
C2245 C2246 1.334 . S
C2246 H2217 0.950 . S
C2246 C2245 1.334 . S
C2246 C2247 1.287 . S
C2247 C2246 1.287 . S
C2247 C2248 1.524 . S
C2247 H2250 0.999 . S
C2248 H2218 0.950 . S
C2248 C2247 1.524 . S
C2248 C2249 1.415 . S
C2249 H2219 0.950 . S
C2249 C2244 1.363 . S
C2249 C2248 1.415 . S
H2250 C2247 0.999 . S
H2251 C2232 0.913 1_455 S
H2252 C2270 0.951 . S
H2253 C2272 0.951 . S
H2254 C2274 0.950 . S
H2255 C2275 0.950 . S
H2256 C2277 0.950 . S
H2257 C2280 0.950 . S
H2258 C2281 0.950 . S
H2259 C2283 0.950 . S
H2260 C2284 0.950 . S
H2261 C2285 0.951 . S
H2262 C2287 0.951 . S
H2263 C2289 0.950 . S
H2264 C2290 0.950 . S
H2265 C2292 0.950 . S
H2266 C2295 0.950 . S
H2267 C2296 0.950 . S
H2268 C2298 0.950 . S
H2269 C2299 0.950 . S
C2270 H2252 0.951 . S
C2270 C2271 1.366 . S
C2270 C2272 1.388 . S
C2271 C2270 1.366 . S
C2271 C2275 1.385 . S
C2272 H2253 0.951 . S
C2272 C2270 1.388 . S
C2272 C2273 1.366 . S
C2273 C2272 1.366 . S
C2273 C2274 1.414 . S
C2273 C2276 1.499 . S
C2274 H2254 0.950 . S
C2274 C2273 1.414 . S
C2274 C2275 1.374 . S
C2275 H2255 0.950 . S
C2275 C2271 1.385 . S
C2275 C2274 1.374 . S
C2276 C2273 1.499 . S
C2276 C2277 1.373 . S
C2276 C2278 1.389 . S
C2277 H2256 0.950 . S
C2277 C2276 1.373 . S
C2277 C2293 1.377 . S
C2278 C2276 1.389 . S
C2278 C2279 1.524 . S
C2278 C2292 1.377 . S
C2279 C2278 1.524 . S
C2279 C2280 1.397 . S
C2279 C2284 1.363 . S
C2280 H2257 0.950 . S
C2280 C2279 1.397 . S
C2280 C2281 1.334 . S
C2281 H2258 0.950 . S
C2281 C2280 1.334 . S
C2281 C2282 1.287 . S
C2282 C2281 1.287 . S
C2282 C2283 1.524 . S
C2282 H2301 0.913 . S
C2283 H2259 0.950 . S
C2283 C2282 1.524 . S
C2283 C2284 1.415 . S
C2284 H2260 0.950 . S
C2284 C2279 1.363 . S
C2284 C2283 1.415 . S
C2285 H2261 0.951 . S
C2285 C2286 1.366 . S
C2285 C2287 1.388 . S
C2286 C2285 1.366 . S
C2286 C2290 1.385 . S
C2287 H2262 0.951 . S
C2287 C2285 1.388 . S
C2287 C2288 1.366 . S
C2288 C2287 1.366 . S
C2288 C2289 1.414 . S
C2288 C2291 1.499 . S
C2289 H2263 0.950 . S
C2289 C2288 1.414 . S
C2289 C2290 1.374 . S
C2290 H2264 0.950 . S
C2290 C2286 1.385 . S
C2290 C2289 1.374 . S
C2291 C2288 1.499 . S
C2291 C2292 1.373 . S
C2291 C2293 1.389 . S
C2292 H2265 0.950 . S
C2292 C2278 1.377 . S
C2292 C2291 1.373 . S
C2293 C2277 1.377 . S
C2293 C2291 1.389 . S
C2293 C2294 1.524 . S
C2294 C2293 1.524 . S
C2294 C2295 1.397 . S
C2294 C2299 1.363 . S
C2295 H2266 0.950 . S
C2295 C2294 1.397 . S
C2295 C2296 1.334 . S
C2296 H2267 0.950 . S
C2296 C2295 1.334 . S
C2296 C2297 1.287 . S
C2297 C2296 1.287 . S
C2297 C2298 1.524 . S
C2297 H2300 0.999 . S
C2298 H2268 0.950 . S
C2298 C2297 1.524 . S
C2298 C2299 1.415 . S
C2299 H2269 0.950 . S
C2299 C2294 1.363 . S
C2299 C2298 1.415 . S
H2300 C2297 0.999 . S
H2301 C2282 0.913 . S
H2302 C2320 0.951 . S
H2303 C2322 0.951 . S
H2304 C2324 0.950 . S
H2305 C2325 0.950 . S
H2306 C2327 0.950 . S
H2307 C2330 0.950 . S
H2308 C2331 0.950 . S
H2309 C2333 0.950 . S
H2310 C2334 0.950 . S
H2311 C2335 0.951 . S
H2312 C2337 0.951 . S
H2313 C2339 0.950 . S
H2314 C2340 0.950 . S
H2315 C2342 0.950 . S
H2316 C2345 0.950 . S
H2317 C2346 0.950 . S
H2318 C2348 0.950 . S
H2319 C2349 0.950 . S
C2320 H2302 0.951 . S
C2320 C2321 1.366 . S
C2320 C2322 1.388 1_565 S
C2321 C2320 1.366 . S
C2321 C2325 1.385 . S
C2322 H2303 0.951 . S
C2322 C2320 1.388 1_545 S
C2322 C2323 1.366 . S
C2323 C2322 1.366 . S
C2323 C2324 1.414 . S
C2323 C2326 1.499 . S
C2324 H2304 0.950 . S
C2324 C2323 1.414 . S
C2324 C2325 1.374 1_545 S
C2325 H2305 0.950 . S
C2325 C2321 1.385 . S
C2325 C2324 1.374 1_565 S
C2326 C2323 1.499 . S
C2326 C2327 1.373 . S
C2326 C2328 1.389 . S
C2327 H2306 0.950 . S
C2327 C2326 1.373 . S
C2327 C2343 1.377 . S
C2328 C2326 1.389 . S
C2328 C2329 1.524 . S
C2328 C2342 1.377 . S
C2329 C2328 1.524 . S
C2329 C2330 1.397 . S
C2329 C2334 1.363 . S
C2330 H2307 0.950 . S
C2330 C2329 1.397 . S
C2330 C2331 1.334 . S
C2331 H2308 0.950 . S
C2331 C2330 1.334 . S
C2331 C2332 1.287 . S
C2332 C2331 1.287 . S
C2332 C2333 1.524 . S
C2332 H2351 0.913 . S
C2333 H2309 0.950 . S
C2333 C2332 1.524 . S
C2333 C2334 1.415 . S
C2334 H2310 0.950 . S
C2334 C2329 1.363 . S
C2334 C2333 1.415 . S
C2335 H2311 0.951 . S
C2335 C2336 1.366 . S
C2335 C2337 1.388 . S
C2336 C2335 1.366 . S
C2336 C2340 1.385 . S
C2337 H2312 0.951 . S
C2337 C2335 1.388 . S
C2337 C2338 1.366 . S
C2338 C2337 1.366 . S
C2338 C2339 1.414 . S
C2338 C2341 1.499 . S
C2339 H2313 0.950 . S
C2339 C2338 1.414 . S
C2339 C2340 1.374 . S
C2340 H2314 0.950 . S
C2340 C2336 1.385 . S
C2340 C2339 1.374 . S
C2341 C2338 1.499 . S
C2341 C2342 1.373 . S
C2341 C2343 1.389 . S
C2342 H2315 0.950 . S
C2342 C2328 1.377 . S
C2342 C2341 1.373 . S
C2343 C2327 1.377 . S
C2343 C2341 1.389 . S
C2343 C2344 1.524 . S
C2344 C2343 1.524 . S
C2344 C2345 1.397 . S
C2344 C2349 1.363 . S
C2345 H2316 0.950 . S
C2345 C2344 1.397 . S
C2345 C2346 1.334 . S
C2346 H2317 0.950 . S
C2346 C2345 1.334 . S
C2346 C2347 1.287 . S
C2347 C2346 1.287 . S
C2347 C2348 1.524 . S
C2347 H2350 0.999 . S
C2348 H2318 0.950 . S
C2348 C2347 1.524 . S
C2348 C2349 1.415 . S
C2349 H2319 0.950 . S
C2349 C2344 1.363 . S
C2349 C2348 1.415 . S
H2350 C2347 0.999 . S
H2351 C2332 0.913 . S
H2352 C2370 0.951 . S
H2353 C2372 0.951 . S
H2354 C2374 0.950 . S
H2355 C2375 0.950 . S
H2356 C2377 0.950 . S
H2357 C2380 0.950 . S
H2358 C2381 0.950 . S
H2359 C2383 0.950 . S
H2360 C2384 0.950 . S
H2361 C2385 0.951 . S
H2362 C2387 0.951 . S
H2363 C2389 0.950 . S
H2364 C2390 0.950 . S
H2365 C2392 0.950 . S
H2366 C2395 0.950 . S
H2367 C2396 0.950 . S
H2368 C2398 0.950 . S
H2369 C2399 0.950 . S
C2370 H2352 0.951 . S
C2370 C2371 1.366 . S
C2370 C2372 1.388 . S
C2371 C2370 1.366 . S
C2371 C2375 1.385 . S
C2372 H2353 0.951 . S
C2372 C2370 1.388 . S
C2372 C2373 1.366 . S
C2373 C2372 1.366 . S
C2373 C2374 1.414 . S
C2373 C2376 1.499 . S
C2374 H2354 0.950 . S
C2374 C2373 1.414 . S
C2374 C2375 1.374 . S
C2375 H2355 0.950 . S
C2375 C2371 1.385 . S
C2375 C2374 1.374 . S
C2376 C2373 1.499 . S
C2376 C2377 1.373 . S
C2376 C2378 1.389 . S
C2377 H2356 0.950 . S
C2377 C2376 1.373 . S
C2377 C2393 1.377 . S
C2378 C2376 1.389 . S
C2378 C2379 1.524 . S
C2378 C2392 1.377 . S
C2379 C2378 1.524 . S
C2379 C2380 1.397 . S
C2379 C2384 1.363 . S
C2380 H2357 0.950 . S
C2380 C2379 1.397 . S
C2380 C2381 1.334 . S
C2381 H2358 0.950 . S
C2381 C2380 1.334 . S
C2381 C2382 1.287 . S
C2382 C2381 1.287 . S
C2382 C2383 1.524 . S
C2382 H2401 0.913 . S
C2383 H2359 0.950 . S
C2383 C2382 1.524 . S
C2383 C2384 1.415 . S
C2384 H2360 0.950 . S
C2384 C2379 1.363 . S
C2384 C2383 1.415 . S
C2385 H2361 0.951 . S
C2385 C2386 1.366 . S
C2385 C2387 1.388 . S
C2386 C2385 1.366 . S
C2386 C2390 1.385 . S
C2387 H2362 0.951 . S
C2387 C2385 1.388 . S
C2387 C2388 1.366 . S
C2388 C2387 1.366 . S
C2388 C2389 1.414 . S
C2388 C2391 1.499 . S
C2389 H2363 0.950 . S
C2389 C2388 1.414 . S
C2389 C2390 1.374 . S
C2390 H2364 0.950 . S
C2390 C2386 1.385 . S
C2390 C2389 1.374 . S
C2391 C2388 1.499 . S
C2391 C2392 1.373 . S
C2391 C2393 1.389 . S
C2392 H2365 0.950 . S
C2392 C2378 1.377 . S
C2392 C2391 1.373 . S
C2393 C2377 1.377 . S
C2393 C2391 1.389 . S
C2393 C2394 1.524 . S
C2394 C2393 1.524 . S
C2394 C2395 1.397 . S
C2394 C2399 1.363 . S
C2395 H2366 0.950 . S
C2395 C2394 1.397 . S
C2395 C2396 1.334 . S
C2396 H2367 0.950 . S
C2396 C2395 1.334 . S
C2396 C2397 1.287 . S
C2397 C2396 1.287 . S
C2397 C2398 1.524 . S
C2397 H2400 0.999 . S
C2398 H2368 0.950 . S
C2398 C2397 1.524 . S
C2398 C2399 1.415 . S
C2399 H2369 0.950 . S
C2399 C2394 1.363 . S
C2399 C2398 1.415 . S
H2400 C2397 0.999 . S
H2401 C2382 0.913 . S
H2402 C2420 0.951 . S
H2403 C2422 0.951 . S
H2404 C2424 0.950 . S
H2405 C2425 0.950 . S
H2406 C2427 0.950 . S
H2407 C2430 0.950 . S
H2408 C2431 0.950 . S
H2409 C2433 0.950 . S
H2410 C2434 0.950 . S
H2411 C2435 0.951 . S
H2412 C2437 0.951 . S
H2413 C2439 0.950 . S
H2414 C2440 0.950 . S
H2415 C2442 0.950 . S
H2416 C2445 0.950 . S
H2417 C2446 0.950 . S
H2418 C2448 0.950 . S
H2419 C2449 0.950 . S
C2420 H2402 0.951 . S
C2420 C2421 1.366 . S
C2420 C2422 1.388 . S
C2421 C2420 1.366 . S
C2421 C2425 1.385 . S
C2422 H2403 0.951 . S
C2422 C2420 1.388 . S
C2422 C2423 1.366 . S
C2423 C2422 1.366 . S
C2423 C2424 1.414 . S
C2423 C2426 1.499 . S
C2424 H2404 0.950 . S
C2424 C2423 1.414 . S
C2424 C2425 1.374 . S
C2425 H2405 0.950 . S
C2425 C2421 1.385 . S
C2425 C2424 1.374 . S
C2426 C2423 1.499 . S
C2426 C2427 1.373 . S
C2426 C2428 1.389 . S
C2427 H2406 0.950 . S
C2427 C2426 1.373 . S
C2427 C2443 1.377 . S
C2428 C2426 1.389 . S
C2428 C2429 1.524 . S
C2428 C2442 1.377 . S
C2429 C2428 1.524 . S
C2429 C2430 1.397 . S
C2429 C2434 1.363 . S
C2430 H2407 0.950 . S
C2430 C2429 1.397 . S
C2430 C2431 1.334 . S
C2431 H2408 0.950 . S
C2431 C2430 1.334 . S
C2431 C2432 1.287 . S
C2432 C2431 1.287 . S
C2432 C2433 1.524 . S
C2432 H2451 0.913 . S
C2433 H2409 0.950 . S
C2433 C2432 1.524 . S
C2433 C2434 1.415 . S
C2434 H2410 0.950 . S
C2434 C2429 1.363 . S
C2434 C2433 1.415 . S
C2435 H2411 0.951 . S
C2435 C2436 1.366 . S
C2435 C2437 1.388 . S
C2436 C2435 1.366 . S
C2436 C2440 1.385 . S
C2437 H2412 0.951 . S
C2437 C2435 1.388 . S
C2437 C2438 1.366 . S
C2438 C2437 1.366 . S
C2438 C2439 1.414 . S
C2438 C2441 1.499 . S
C2439 H2413 0.950 . S
C2439 C2438 1.414 . S
C2439 C2440 1.374 . S
C2440 H2414 0.950 . S
C2440 C2436 1.385 . S
C2440 C2439 1.374 . S
C2441 C2438 1.499 . S
C2441 C2442 1.373 . S
C2441 C2443 1.389 . S
C2442 H2415 0.950 . S
C2442 C2428 1.377 . S
C2442 C2441 1.373 . S
C2443 C2427 1.377 . S
C2443 C2441 1.389 . S
C2443 C2444 1.524 . S
C2444 C2443 1.524 . S
C2444 C2445 1.397 . S
C2444 C2449 1.363 . S
C2445 H2416 0.950 . S
C2445 C2444 1.397 . S
C2445 C2446 1.334 . S
C2446 H2417 0.950 . S
C2446 C2445 1.334 . S
C2446 C2447 1.287 . S
C2447 C2446 1.287 . S
C2447 C2448 1.524 . S
C2447 H2450 0.999 . S
C2448 H2418 0.950 . S
C2448 C2447 1.524 . S
C2448 C2449 1.415 . S
C2449 H2419 0.950 . S
C2449 C2444 1.363 . S
C2449 C2448 1.415 . S
H2450 C2447 0.999 . S
H2451 C2432 0.913 . S
H2452 C2470 0.951 . S
H2453 C2472 0.951 . S
H2454 C2474 0.950 . S
H2455 C2475 0.950 . S
H2456 C2477 0.950 . S
H2457 C2480 0.950 . S
H2458 C2481 0.950 . S
H2459 C2483 0.950 . S
H2460 C2484 0.950 . S
H2461 C2485 0.951 . S
H2462 C2487 0.951 . S
H2463 C2489 0.950 . S
H2464 C2490 0.950 . S
H2465 C2492 0.950 . S
H2466 C2495 0.950 . S
H2467 C2496 0.950 . S
H2468 C2498 0.950 . S
H2469 C2499 0.950 . S
C2470 H2452 0.951 . S
C2470 C2471 1.366 . S
C2470 C2472 1.388 . S
C2471 C2470 1.366 . S
C2471 C2475 1.385 . S
C2472 H2453 0.951 . S
C2472 C2470 1.388 . S
C2472 C2473 1.366 . S
C2473 C2472 1.366 . S
C2473 C2474 1.414 . S
C2473 C2476 1.499 . S
C2474 H2454 0.950 . S
C2474 C2473 1.414 . S
C2474 C2475 1.374 . S
C2475 H2455 0.950 . S
C2475 C2471 1.385 . S
C2475 C2474 1.374 . S
C2476 C2473 1.499 . S
C2476 C2477 1.373 . S
C2476 C2478 1.389 . S
C2477 H2456 0.950 . S
C2477 C2476 1.373 . S
C2477 C2493 1.377 . S
C2478 C2476 1.389 . S
C2478 C2479 1.524 . S
C2478 C2492 1.377 . S
C2479 C2478 1.524 . S
C2479 C2480 1.397 . S
C2479 C2484 1.363 . S
C2480 H2457 0.950 . S
C2480 C2479 1.397 . S
C2480 C2481 1.334 . S
C2481 H2458 0.950 . S
C2481 C2480 1.334 . S
C2481 C2482 1.287 . S
C2482 C2481 1.287 . S
C2482 C2483 1.524 . S
C2482 H2501 0.913 . S
C2483 H2459 0.950 . S
C2483 C2482 1.524 . S
C2483 C2484 1.415 . S
C2484 H2460 0.950 . S
C2484 C2479 1.363 . S
C2484 C2483 1.415 . S
C2485 H2461 0.951 . S
C2485 C2486 1.366 . S
C2485 C2487 1.388 . S
C2486 C2485 1.366 . S
C2486 C2490 1.385 . S
C2487 H2462 0.951 . S
C2487 C2485 1.388 . S
C2487 C2488 1.366 . S
C2488 C2487 1.366 . S
C2488 C2489 1.414 . S
C2488 C2491 1.499 . S
C2489 H2463 0.950 . S
C2489 C2488 1.414 . S
C2489 C2490 1.374 . S
C2490 H2464 0.950 . S
C2490 C2486 1.385 . S
C2490 C2489 1.374 . S
C2491 C2488 1.499 . S
C2491 C2492 1.373 . S
C2491 C2493 1.389 . S
C2492 H2465 0.950 . S
C2492 C2478 1.377 . S
C2492 C2491 1.373 . S
C2493 C2477 1.377 . S
C2493 C2491 1.389 . S
C2493 C2494 1.524 . S
C2494 C2493 1.524 . S
C2494 C2495 1.397 . S
C2494 C2499 1.363 . S
C2495 H2466 0.950 . S
C2495 C2494 1.397 . S
C2495 C2496 1.334 . S
C2496 H2467 0.950 . S
C2496 C2495 1.334 . S
C2496 C2497 1.287 . S
C2497 C2496 1.287 . S
C2497 C2498 1.524 . S
C2497 H2500 0.999 . S
C2498 H2468 0.950 . S
C2498 C2497 1.524 . S
C2498 C2499 1.415 . S
C2499 H2469 0.950 . S
C2499 C2494 1.363 . S
C2499 C2498 1.415 . S
H2500 C2497 0.999 . S
H2501 C2482 0.913 . S
H2502 C2520 0.951 . S
H2503 C2522 0.951 . S
H2504 C2524 0.950 . S
H2505 C2525 0.950 . S
H2506 C2527 0.950 . S
H2507 C2530 0.950 . S
H2508 C2531 0.950 . S
H2509 C2533 0.950 . S
H2510 C2534 0.950 . S
H2511 C2535 0.951 . S
H2512 C2537 0.951 . S
H2513 C2539 0.950 . S
H2514 C2540 0.950 . S
H2515 C2542 0.950 . S
H2516 C2545 0.950 . S
H2517 C2546 0.950 . S
H2518 C2548 0.950 . S
H2519 C2549 0.950 . S
C2520 H2502 0.951 . S
C2520 C2521 1.366 . S
C2520 C2522 1.388 . S
C2521 C2520 1.366 . S
C2521 C2525 1.385 . S
C2522 H2503 0.951 . S
C2522 C2520 1.388 . S
C2522 C2523 1.366 . S
C2523 C2522 1.366 . S
C2523 C2524 1.414 . S
C2523 C2526 1.499 . S
C2524 H2504 0.950 . S
C2524 C2523 1.414 . S
C2524 C2525 1.374 . S
C2525 H2505 0.950 . S
C2525 C2521 1.385 . S
C2525 C2524 1.374 . S
C2526 C2523 1.499 . S
C2526 C2527 1.373 . S
C2526 C2528 1.389 . S
C2527 H2506 0.950 . S
C2527 C2526 1.373 . S
C2527 C2543 1.377 . S
C2528 C2526 1.389 . S
C2528 C2529 1.524 . S
C2528 C2542 1.377 . S
C2529 C2528 1.524 . S
C2529 C2530 1.397 . S
C2529 C2534 1.363 . S
C2530 H2507 0.950 . S
C2530 C2529 1.397 . S
C2530 C2531 1.334 . S
C2531 H2508 0.950 . S
C2531 C2530 1.334 . S
C2531 C2532 1.287 . S
C2532 C2531 1.287 . S
C2532 C2533 1.524 . S
C2532 H2551 0.913 . S
C2533 H2509 0.950 . S
C2533 C2532 1.524 . S
C2533 C2534 1.415 . S
C2534 H2510 0.950 . S
C2534 C2529 1.363 . S
C2534 C2533 1.415 . S
C2535 H2511 0.951 . S
C2535 C2536 1.366 . S
C2535 C2537 1.388 . S
C2536 C2535 1.366 . S
C2536 C2540 1.385 . S
C2537 H2512 0.951 . S
C2537 C2535 1.388 . S
C2537 C2538 1.366 . S
C2538 C2537 1.366 . S
C2538 C2539 1.414 . S
C2538 C2541 1.499 . S
C2539 H2513 0.950 . S
C2539 C2538 1.414 . S
C2539 C2540 1.374 . S
C2540 H2514 0.950 . S
C2540 C2536 1.385 . S
C2540 C2539 1.374 . S
C2541 C2538 1.499 . S
C2541 C2542 1.373 . S
C2541 C2543 1.389 . S
C2542 H2515 0.950 . S
C2542 C2528 1.377 . S
C2542 C2541 1.373 . S
C2543 C2527 1.377 . S
C2543 C2541 1.389 . S
C2543 C2544 1.524 . S
C2544 C2543 1.524 . S
C2544 C2545 1.397 . S
C2544 C2549 1.363 . S
C2545 H2516 0.950 . S
C2545 C2544 1.397 . S
C2545 C2546 1.334 . S
C2546 H2517 0.950 . S
C2546 C2545 1.334 . S
C2546 C2547 1.287 . S
C2547 C2546 1.287 . S
C2547 C2548 1.524 . S
C2547 H2550 0.999 . S
C2548 H2518 0.950 . S
C2548 C2547 1.524 . S
C2548 C2549 1.415 . S
C2549 H2519 0.950 . S
C2549 C2544 1.363 . S
C2549 C2548 1.415 . S
H2550 C2547 0.999 . S
H2551 C2532 0.913 . S
H2552 C2570 0.951 . S
H2553 C2572 0.951 . S
H2554 C2574 0.950 . S
H2555 C2575 0.950 . S
H2556 C2577 0.950 . S
H2557 C2580 0.950 . S
H2558 C2581 0.950 . S
H2559 C2583 0.950 . S
H2560 C2584 0.950 . S
H2561 C2585 0.951 . S
H2562 C2587 0.951 . S
H2563 C2589 0.950 . S
H2564 C2590 0.950 . S
H2565 C2592 0.950 . S
H2566 C2595 0.950 . S
H2567 C2596 0.950 . S
H2568 C2598 0.950 . S
H2569 C2599 0.950 . S
C2570 H2552 0.951 . S
C2570 C2571 1.366 . S
C2570 C2572 1.388 . S
C2571 C2570 1.366 . S
C2571 C2575 1.385 . S
C2572 H2553 0.951 . S
C2572 C2570 1.388 . S
C2572 C2573 1.366 . S
C2573 C2572 1.366 . S
C2573 C2574 1.414 . S
C2573 C2576 1.499 . S
C2574 H2554 0.950 . S
C2574 C2573 1.414 . S
C2574 C2575 1.374 . S
C2575 H2555 0.950 . S
C2575 C2571 1.385 . S
C2575 C2574 1.374 . S
C2576 C2573 1.499 . S
C2576 C2577 1.373 . S
C2576 C2578 1.389 . S
C2577 H2556 0.950 . S
C2577 C2576 1.373 . S
C2577 C2593 1.377 . S
C2578 C2576 1.389 . S
C2578 C2579 1.524 . S
C2578 C2592 1.377 . S
C2579 C2578 1.524 . S
C2579 C2580 1.397 . S
C2579 C2584 1.363 . S
C2580 H2557 0.950 . S
C2580 C2579 1.397 . S
C2580 C2581 1.334 . S
C2581 H2558 0.950 . S
C2581 C2580 1.334 . S
C2581 C2582 1.287 . S
C2582 C2581 1.287 . S
C2582 C2583 1.524 . S
C2582 H2601 0.913 . S
C2583 H2559 0.950 . S
C2583 C2582 1.524 . S
C2583 C2584 1.415 . S
C2584 H2560 0.950 . S
C2584 C2579 1.363 . S
C2584 C2583 1.415 . S
C2585 H2561 0.951 . S
C2585 C2586 1.366 . S
C2585 C2587 1.388 . S
C2586 C2585 1.366 . S
C2586 C2590 1.385 . S
C2587 H2562 0.951 . S
C2587 C2585 1.388 . S
C2587 C2588 1.366 . S
C2588 C2587 1.366 . S
C2588 C2589 1.414 . S
C2588 C2591 1.499 . S
C2589 H2563 0.950 . S
C2589 C2588 1.414 . S
C2589 C2590 1.374 . S
C2590 H2564 0.950 . S
C2590 C2586 1.385 . S
C2590 C2589 1.374 . S
C2591 C2588 1.499 . S
C2591 C2592 1.373 . S
C2591 C2593 1.389 . S
C2592 H2565 0.950 . S
C2592 C2578 1.377 . S
C2592 C2591 1.373 . S
C2593 C2577 1.377 . S
C2593 C2591 1.389 . S
C2593 C2594 1.524 . S
C2594 C2593 1.524 . S
C2594 C2595 1.397 . S
C2594 C2599 1.363 . S
C2595 H2566 0.950 . S
C2595 C2594 1.397 . S
C2595 C2596 1.334 . S
C2596 H2567 0.950 . S
C2596 C2595 1.334 . S
C2596 C2597 1.287 . S
C2597 C2596 1.287 . S
C2597 C2598 1.524 . S
C2597 H2600 0.999 . S
C2598 H2568 0.950 . S
C2598 C2597 1.524 . S
C2598 C2599 1.415 . S
C2599 H2569 0.950 . S
C2599 C2594 1.363 . S
C2599 C2598 1.415 . S
H2600 C2597 0.999 . S
H2601 C2582 0.913 . S
H2602 C2620 0.951 . S
H2603 C2622 0.951 . S
H2604 C2624 0.950 . S
H2605 C2625 0.950 . S
H2606 C2627 0.950 . S
H2607 C2630 0.950 . S
H2608 C2631 0.950 . S
H2609 C2633 0.950 . S
H2610 C2634 0.950 . S
H2611 C2635 0.951 . S
H2612 C2637 0.951 . S
H2613 C2639 0.950 . S
H2614 C2640 0.950 . S
H2615 C2642 0.950 . S
H2616 C2645 0.950 . S
H2617 C2646 0.950 . S
H2618 C2648 0.950 . S
H2619 C2649 0.950 . S
C2620 H2602 0.951 . S
C2620 C2621 1.366 . S
C2620 C2622 1.388 . S
C2621 C2620 1.366 . S
C2621 C2625 1.385 . S
C2622 H2603 0.951 . S
C2622 C2620 1.388 . S
C2622 C2623 1.366 . S
C2623 C2622 1.366 . S
C2623 C2624 1.414 . S
C2623 C2626 1.499 . S
C2624 H2604 0.950 . S
C2624 C2623 1.414 . S
C2624 C2625 1.374 . S
C2625 H2605 0.950 . S
C2625 C2621 1.385 . S
C2625 C2624 1.374 . S
C2626 C2623 1.499 . S
C2626 C2627 1.373 . S
C2626 C2628 1.389 . S
C2627 H2606 0.950 . S
C2627 C2626 1.373 . S
C2627 C2643 1.377 . S
C2628 C2626 1.389 . S
C2628 C2629 1.524 . S
C2628 C2642 1.377 . S
C2629 C2628 1.524 . S
C2629 C2630 1.397 . S
C2629 C2634 1.363 . S
C2630 H2607 0.950 . S
C2630 C2629 1.397 . S
C2630 C2631 1.334 . S
C2631 H2608 0.950 . S
C2631 C2630 1.334 . S
C2631 C2632 1.287 . S
C2632 C2631 1.287 . S
C2632 C2633 1.524 . S
C2632 H2651 0.913 . S
C2633 H2609 0.950 . S
C2633 C2632 1.524 . S
C2633 C2634 1.415 . S
C2634 H2610 0.950 . S
C2634 C2629 1.363 . S
C2634 C2633 1.415 . S
C2635 H2611 0.951 . S
C2635 C2636 1.366 . S
C2635 C2637 1.388 . S
C2636 C2635 1.366 . S
C2636 C2640 1.385 . S
C2637 H2612 0.951 . S
C2637 C2635 1.388 . S
C2637 C2638 1.366 . S
C2638 C2637 1.366 . S
C2638 C2639 1.414 . S
C2638 C2641 1.499 . S
C2639 H2613 0.950 . S
C2639 C2638 1.414 . S
C2639 C2640 1.374 . S
C2640 H2614 0.950 . S
C2640 C2636 1.385 . S
C2640 C2639 1.374 . S
C2641 C2638 1.499 . S
C2641 C2642 1.373 . S
C2641 C2643 1.389 . S
C2642 H2615 0.950 . S
C2642 C2628 1.377 . S
C2642 C2641 1.373 . S
C2643 C2627 1.377 . S
C2643 C2641 1.389 . S
C2643 C2644 1.524 . S
C2644 C2643 1.524 . S
C2644 C2645 1.397 . S
C2644 C2649 1.363 . S
C2645 H2616 0.950 . S
C2645 C2644 1.397 . S
C2645 C2646 1.334 . S
C2646 H2617 0.950 . S
C2646 C2645 1.334 . S
C2646 C2647 1.287 . S
C2647 C2646 1.287 . S
C2647 C2648 1.524 . S
C2647 H2650 0.999 . S
C2648 H2618 0.950 . S
C2648 C2647 1.524 . S
C2648 C2649 1.415 . S
C2649 H2619 0.950 . S
C2649 C2644 1.363 . S
C2649 C2648 1.415 . S
H2650 C2647 0.999 . S
H2651 C2632 0.913 . S
H2652 C2670 0.951 . S
H2653 C2672 0.951 . S
H2654 C2674 0.950 . S
H2655 C2675 0.950 . S
H2656 C2677 0.950 . S
H2657 C2680 0.950 . S
H2658 C2681 0.950 . S
H2659 C2683 0.950 . S
H2660 C2684 0.950 1_455 S
H2661 C2685 0.951 . S
H2662 C2687 0.951 . S
H2663 C2689 0.950 . S
H2664 C2690 0.950 . S
H2665 C2692 0.950 . S
H2666 C2695 0.950 . S
H2667 C2696 0.950 . S
H2668 C2698 0.950 . S
H2669 C2699 0.950 . S
C2670 H2652 0.951 . S
C2670 C2671 1.366 . S
C2670 C2672 1.388 . S
C2671 C2670 1.366 . S
C2671 C2675 1.385 . S
C2672 H2653 0.951 . S
C2672 C2670 1.388 . S
C2672 C2673 1.366 . S
C2673 C2672 1.366 . S
C2673 C2674 1.414 . S
C2673 C2676 1.499 . S
C2674 H2654 0.950 . S
C2674 C2673 1.414 . S
C2674 C2675 1.374 . S
C2675 H2655 0.950 . S
C2675 C2671 1.385 . S
C2675 C2674 1.374 . S
C2676 C2673 1.499 . S
C2676 C2677 1.373 . S
C2676 C2678 1.389 . S
C2677 H2656 0.950 . S
C2677 C2676 1.373 . S
C2677 C2693 1.377 . S
C2678 C2676 1.389 . S
C2678 C2679 1.524 . S
C2678 C2692 1.377 . S
C2679 C2678 1.524 . S
C2679 C2680 1.397 . S
C2679 C2684 1.363 . S
C2680 H2657 0.950 . S
C2680 C2679 1.397 . S
C2680 C2681 1.334 . S
C2681 H2658 0.950 . S
C2681 C2680 1.334 . S
C2681 C2682 1.287 . S
C2682 C2681 1.287 . S
C2682 C2683 1.524 1_655 S
C2682 H2701 0.913 . S
C2683 H2659 0.950 . S
C2683 C2682 1.524 1_455 S
C2683 C2684 1.415 1_455 S
C2684 H2660 0.950 1_655 S
C2684 C2679 1.363 . S
C2684 C2683 1.415 1_655 S
C2685 H2661 0.951 . S
C2685 C2686 1.366 . S
C2685 C2687 1.388 . S
C2686 C2685 1.366 . S
C2686 C2690 1.385 . S
C2687 H2662 0.951 . S
C2687 C2685 1.388 . S
C2687 C2688 1.366 . S
C2688 C2687 1.366 . S
C2688 C2689 1.414 . S
C2688 C2691 1.499 . S
C2689 H2663 0.950 . S
C2689 C2688 1.414 . S
C2689 C2690 1.374 . S
C2690 H2664 0.950 . S
C2690 C2686 1.385 . S
C2690 C2689 1.374 . S
C2691 C2688 1.499 . S
C2691 C2692 1.373 . S
C2691 C2693 1.389 . S
C2692 H2665 0.950 . S
C2692 C2678 1.377 . S
C2692 C2691 1.373 . S
C2693 C2677 1.377 . S
C2693 C2691 1.389 . S
C2693 C2694 1.524 . S
C2694 C2693 1.524 . S
C2694 C2695 1.397 . S
C2694 C2699 1.363 . S
C2695 H2666 0.950 . S
C2695 C2694 1.397 . S
C2695 C2696 1.334 . S
C2696 H2667 0.950 . S
C2696 C2695 1.334 . S
C2696 C2697 1.287 . S
C2697 C2696 1.287 . S
C2697 C2698 1.524 . S
C2697 H2700 0.999 . S
C2698 H2668 0.950 . S
C2698 C2697 1.524 . S
C2698 C2699 1.415 . S
C2699 H2669 0.950 . S
C2699 C2694 1.363 . S
C2699 C2698 1.415 . S
H2700 C2697 0.999 . S
H2701 C2682 0.913 . S
H2702 C2720 0.951 . S
H2703 C2722 0.951 . S
H2704 C2724 0.950 . S
H2705 C2725 0.950 . S
H2706 C2727 0.950 . S
H2707 C2730 0.950 . S
H2708 C2731 0.950 . S
H2709 C2733 0.950 . S
H2710 C2734 0.950 . S
H2711 C2735 0.951 . S
H2712 C2737 0.951 . S
H2713 C2739 0.950 . S
H2714 C2740 0.950 . S
H2715 C2742 0.950 . S
H2716 C2745 0.950 . S
H2717 C2746 0.950 . S
H2718 C2748 0.950 . S
H2719 C2749 0.950 . S
C2720 H2702 0.951 . S
C2720 C2721 1.366 . S
C2720 C2722 1.388 . S
C2721 C2720 1.366 . S
C2721 C2725 1.385 . S
C2722 H2703 0.951 . S
C2722 C2720 1.388 . S
C2722 C2723 1.366 . S
C2723 C2722 1.366 . S
C2723 C2724 1.414 . S
C2723 C2726 1.499 . S
C2724 H2704 0.950 . S
C2724 C2723 1.414 . S
C2724 C2725 1.374 . S
C2725 H2705 0.950 . S
C2725 C2721 1.385 . S
C2725 C2724 1.374 . S
C2726 C2723 1.499 . S
C2726 C2727 1.373 . S
C2726 C2728 1.389 . S
C2727 H2706 0.950 . S
C2727 C2726 1.373 . S
C2727 C2743 1.377 . S
C2728 C2726 1.389 . S
C2728 C2729 1.524 . S
C2728 C2742 1.377 . S
C2729 C2728 1.524 . S
C2729 C2730 1.397 . S
C2729 C2734 1.363 . S
C2730 H2707 0.950 . S
C2730 C2729 1.397 . S
C2730 C2731 1.334 . S
C2731 H2708 0.950 . S
C2731 C2730 1.334 . S
C2731 C2732 1.287 . S
C2732 C2731 1.287 . S
C2732 C2733 1.524 . S
C2732 H2751 0.913 . S
C2733 H2709 0.950 . S
C2733 C2732 1.524 . S
C2733 C2734 1.415 . S
C2734 H2710 0.950 . S
C2734 C2729 1.363 . S
C2734 C2733 1.415 . S
C2735 H2711 0.951 . S
C2735 C2736 1.366 . S
C2735 C2737 1.388 . S
C2736 C2735 1.366 . S
C2736 C2740 1.385 . S
C2737 H2712 0.951 . S
C2737 C2735 1.388 . S
C2737 C2738 1.366 . S
C2738 C2737 1.366 . S
C2738 C2739 1.414 . S
C2738 C2741 1.499 . S
C2739 H2713 0.950 . S
C2739 C2738 1.414 . S
C2739 C2740 1.374 . S
C2740 H2714 0.950 . S
C2740 C2736 1.385 . S
C2740 C2739 1.374 . S
C2741 C2738 1.499 . S
C2741 C2742 1.373 . S
C2741 C2743 1.389 . S
C2742 H2715 0.950 . S
C2742 C2728 1.377 . S
C2742 C2741 1.373 . S
C2743 C2727 1.377 . S
C2743 C2741 1.389 . S
C2743 C2744 1.524 . S
C2744 C2743 1.524 . S
C2744 C2745 1.397 . S
C2744 C2749 1.363 . S
C2745 H2716 0.950 . S
C2745 C2744 1.397 . S
C2745 C2746 1.334 . S
C2746 H2717 0.950 . S
C2746 C2745 1.334 . S
C2746 C2747 1.287 . S
C2747 C2746 1.287 . S
C2747 C2748 1.524 . S
C2747 H2750 0.999 . S
C2748 H2718 0.950 . S
C2748 C2747 1.524 . S
C2748 C2749 1.415 . S
C2749 H2719 0.950 . S
C2749 C2744 1.363 . S
C2749 C2748 1.415 . S
H2750 C2747 0.999 . S
H2751 C2732 0.913 . S
H2752 C2770 0.951 . S
H2753 C2772 0.951 . S
H2754 C2774 0.950 . S
H2755 C2775 0.950 . S
H2756 C2777 0.950 . S
H2757 C2780 0.950 . S
H2758 C2781 0.950 . S
H2759 C2783 0.950 . S
H2760 C2784 0.950 . S
H2761 C2785 0.951 . S
H2762 C2787 0.951 . S
H2763 C2789 0.950 . S
H2764 C2790 0.950 . S
H2765 C2792 0.950 . S
H2766 C2795 0.950 . S
H2767 C2796 0.938 1_565 S
H2768 C2798 0.950 . S
H2769 C2799 0.950 . S
C2770 H2752 0.951 . S
C2770 C2771 1.366 . S
C2770 C2772 1.388 . S
C2771 C2770 1.366 . S
C2771 C2775 1.385 . S
C2772 H2753 0.951 . S
C2772 C2770 1.388 . S
C2772 C2773 1.366 . S
C2773 C2772 1.366 . S
C2773 C2774 1.414 . S
C2773 C2776 1.499 . S
C2774 H2754 0.950 . S
C2774 C2773 1.414 . S
C2774 C2775 1.374 . S
C2775 H2755 0.950 . S
C2775 C2771 1.385 . S
C2775 C2774 1.374 . S
C2776 C2773 1.499 . S
C2776 C2777 1.373 . S
C2776 C2778 1.389 . S
C2777 H2756 0.950 . S
C2777 C2776 1.373 . S
C2777 C2793 1.377 . S
C2778 C2776 1.389 . S
C2778 C2779 1.524 . S
C2778 C2792 1.377 . S
C2779 C2778 1.524 . S
C2779 C2780 1.397 . S
C2779 C2784 1.363 . S
C2780 H2757 0.950 . S
C2780 C2779 1.397 . S
C2780 C2781 1.334 . S
C2781 H2758 0.950 . S
C2781 C2780 1.334 . S
C2781 C2782 1.287 . S
C2782 C2781 1.287 . S
C2782 C2783 1.524 . S
C2782 H2801 0.913 . S
C2783 H2759 0.950 . S
C2783 C2782 1.524 . S
C2783 C2784 1.415 . S
C2784 H2760 0.950 . S
C2784 C2779 1.363 . S
C2784 C2783 1.415 . S
C2785 H2761 0.951 . S
C2785 C2786 1.366 . S
C2785 C2787 1.388 . S
C2786 C2785 1.366 . S
C2786 C2790 1.385 . S
C2787 H2762 0.951 . S
C2787 C2785 1.388 . S
C2787 C2788 1.366 . S
C2788 C2787 1.366 . S
C2788 C2789 1.414 . S
C2788 C2791 1.499 . S
C2789 H2763 0.950 . S
C2789 C2788 1.414 . S
C2789 C2790 1.374 . S
C2790 H2764 0.950 . S
C2790 C2786 1.385 . S
C2790 C2789 1.374 . S
C2791 C2788 1.499 . S
C2791 C2792 1.373 . S
C2791 C2793 1.389 . S
C2792 H2765 0.950 . S
C2792 C2778 1.377 . S
C2792 C2791 1.373 . S
C2793 C2777 1.377 . S
C2793 C2791 1.389 . S
C2793 C2794 1.524 . S
C2794 C2793 1.524 . S
C2794 C2795 1.397 . S
C2794 C2799 1.363 . S
C2795 H2766 0.950 . S
C2795 C2794 1.397 . S
C2795 C2796 1.360 . S
C2796 H2767 0.938 1_545 S
C2796 C2795 1.360 . S
C2796 C2797 1.304 . S
C2797 C2796 1.304 . S
C2797 C2798 1.549 . S
C2797 H2800 0.941 1_545 S
C2798 H2768 0.950 . S
C2798 C2797 1.549 . S
C2798 C2799 1.415 . S
C2799 H2769 0.950 . S
C2799 C2794 1.363 . S
C2799 C2798 1.415 . S
H2800 C2797 0.941 1_565 S
H2801 C2782 0.913 . S
H2802 C2820 0.951 . S
H2803 C2822 0.951 . S
H2804 C2824 0.950 . S
H2805 C2825 0.950 . S
H2806 C2827 0.950 . S
H2807 C2830 0.950 . S
H2808 C2831 0.950 . S
H2809 C2833 0.950 . S
H2810 C2834 0.950 . S
H2811 C2835 0.951 . S
H2812 C2837 0.951 . S
H2813 C2839 0.950 . S
H2814 C2840 0.950 . S
H2815 C2842 0.950 . S
H2816 C2845 0.950 . S
H2817 C2846 0.950 . S
H2818 C2848 0.950 . S
H2819 C2849 0.950 . S
C2820 H2802 0.951 . S
C2820 C2821 1.366 . S
C2820 C2822 1.388 . S
C2821 C2820 1.366 . S
C2821 C2825 1.385 . S
C2822 H2803 0.951 . S
C2822 C2820 1.388 . S
C2822 C2823 1.366 . S
C2823 C2822 1.366 . S
C2823 C2824 1.414 . S
C2823 C2826 1.499 . S
C2824 H2804 0.950 . S
C2824 C2823 1.414 . S
C2824 C2825 1.374 . S
C2825 H2805 0.950 . S
C2825 C2821 1.385 . S
C2825 C2824 1.374 . S
C2826 C2823 1.499 . S
C2826 C2827 1.373 . S
C2826 C2828 1.389 . S
C2827 H2806 0.950 . S
C2827 C2826 1.373 . S
C2827 C2843 1.377 . S
C2828 C2826 1.389 . S
C2828 C2829 1.524 . S
C2828 C2842 1.377 . S
C2829 C2828 1.524 . S
C2829 C2830 1.397 . S
C2829 C2834 1.363 . S
C2830 H2807 0.950 . S
C2830 C2829 1.397 . S
C2830 C2831 1.334 . S
C2831 H2808 0.950 . S
C2831 C2830 1.334 . S
C2831 C2832 1.287 . S
C2832 C2831 1.287 . S
C2832 C2833 1.524 . S
C2832 H2851 0.913 . S
C2833 H2809 0.950 . S
C2833 C2832 1.524 . S
C2833 C2834 1.415 . S
C2834 H2810 0.950 . S
C2834 C2829 1.363 . S
C2834 C2833 1.415 . S
C2835 H2811 0.951 . S
C2835 C2836 1.366 . S
C2835 C2837 1.388 . S
C2836 C2835 1.366 . S
C2836 C2840 1.385 . S
C2837 H2812 0.951 . S
C2837 C2835 1.388 . S
C2837 C2838 1.366 . S
C2838 C2837 1.366 . S
C2838 C2839 1.414 . S
C2838 C2841 1.499 . S
C2839 H2813 0.950 . S
C2839 C2838 1.414 . S
C2839 C2840 1.374 . S
C2840 H2814 0.950 . S
C2840 C2836 1.385 . S
C2840 C2839 1.374 . S
C2841 C2838 1.499 . S
C2841 C2842 1.373 . S
C2841 C2843 1.389 . S
C2842 H2815 0.950 . S
C2842 C2828 1.377 . S
C2842 C2841 1.373 . S
C2843 C2827 1.377 . S
C2843 C2841 1.389 . S
C2843 C2844 1.524 . S
C2844 C2843 1.524 . S
C2844 C2845 1.397 . S
C2844 C2849 1.363 . S
C2845 H2816 0.950 . S
C2845 C2844 1.397 . S
C2845 C2846 1.334 . S
C2846 H2817 0.950 . S
C2846 C2845 1.334 . S
C2846 C2847 1.287 . S
C2847 C2846 1.287 . S
C2847 C2848 1.524 . S
C2847 H2850 0.999 . S
C2848 H2818 0.950 . S
C2848 C2847 1.524 . S
C2848 C2849 1.415 . S
C2849 H2819 0.950 . S
C2849 C2844 1.363 . S
C2849 C2848 1.415 . S
H2850 C2847 0.999 . S
H2851 C2832 0.913 . S
H2852 C2870 0.951 . S
H2853 C2872 0.951 . S
H2854 C2874 0.950 . S
H2855 C2875 0.950 . S
H2856 C2877 0.950 . S
H2857 C2880 0.950 . S
H2858 C2881 0.950 . S
H2859 C2883 0.950 . S
H2860 C2884 0.950 . S
H2861 C2885 0.951 . S
H2862 C2887 0.951 . S
H2863 C2889 0.950 . S
H2864 C2890 0.950 . S
H2865 C2892 0.950 . S
H2866 C2895 0.950 . S
H2867 C2896 0.950 . S
H2868 C2898 0.950 . S
H2869 C2899 0.950 . S
C2870 H2852 0.951 . S
C2870 C2871 1.366 . S
C2870 C2872 1.388 . S
C2871 C2870 1.366 . S
C2871 C2875 1.385 . S
C2872 H2853 0.951 . S
C2872 C2870 1.388 . S
C2872 C2873 1.366 . S
C2873 C2872 1.366 . S
C2873 C2874 1.414 . S
C2873 C2876 1.499 . S
C2874 H2854 0.950 . S
C2874 C2873 1.414 . S
C2874 C2875 1.374 . S
C2875 H2855 0.950 . S
C2875 C2871 1.385 . S
C2875 C2874 1.374 . S
C2876 C2873 1.499 . S
C2876 C2877 1.373 . S
C2876 C2878 1.389 . S
C2877 H2856 0.950 . S
C2877 C2876 1.373 . S
C2877 C2893 1.377 . S
C2878 C2876 1.389 . S
C2878 C2879 1.524 . S
C2878 C2892 1.377 . S
C2879 C2878 1.524 . S
C2879 C2880 1.397 . S
C2879 C2884 1.363 . S
C2880 H2857 0.950 . S
C2880 C2879 1.397 . S
C2880 C2881 1.334 . S
C2881 H2858 0.950 . S
C2881 C2880 1.334 . S
C2881 C2882 1.287 . S
C2882 C2881 1.287 . S
C2882 C2883 1.524 . S
C2882 H2901 0.913 . S
C2883 H2859 0.950 . S
C2883 C2882 1.524 . S
C2883 C2884 1.415 . S
C2884 H2860 0.950 . S
C2884 C2879 1.363 . S
C2884 C2883 1.415 . S
C2885 H2861 0.951 . S
C2885 C2886 1.366 . S
C2885 C2887 1.388 . S
C2886 C2885 1.366 . S
C2886 C2890 1.385 . S
C2887 H2862 0.951 . S
C2887 C2885 1.388 . S
C2887 C2888 1.366 . S
C2888 C2887 1.366 . S
C2888 C2889 1.414 . S
C2888 C2891 1.499 . S
C2889 H2863 0.950 . S
C2889 C2888 1.414 . S
C2889 C2890 1.374 . S
C2890 H2864 0.950 . S
C2890 C2886 1.385 . S
C2890 C2889 1.374 . S
C2891 C2888 1.499 . S
C2891 C2892 1.373 . S
C2891 C2893 1.389 . S
C2892 H2865 0.950 . S
C2892 C2878 1.377 . S
C2892 C2891 1.373 . S
C2893 C2877 1.377 . S
C2893 C2891 1.389 . S
C2893 C2894 1.524 . S
C2894 C2893 1.524 . S
C2894 C2895 1.397 . S
C2894 C2899 1.363 . S
C2895 H2866 0.950 . S
C2895 C2894 1.397 . S
C2895 C2896 1.334 . S
C2896 H2867 0.950 . S
C2896 C2895 1.334 . S
C2896 C2897 1.287 . S
C2897 C2896 1.287 . S
C2897 C2898 1.524 . S
C2897 H2900 0.999 . S
C2898 H2868 0.950 . S
C2898 C2897 1.524 . S
C2898 C2899 1.415 . S
C2899 H2869 0.950 . S
C2899 C2894 1.363 . S
C2899 C2898 1.415 . S
H2900 C2897 0.999 . S
H2901 C2882 0.913 . S
H2902 C2920 0.951 . S
H2903 C2922 0.951 . S
H2904 C2924 0.950 . S
H2905 C2925 0.950 . S
H2906 C2927 0.950 . S
H2907 C2930 0.950 . S
H2908 C2931 0.950 . S
H2909 C2933 0.950 . S
H2910 C2934 0.950 . S
H2911 C2935 0.951 . S
H2912 C2937 0.951 . S
H2913 C2939 0.950 . S
H2914 C2940 0.950 . S
H2915 C2942 0.950 . S
H2916 C2945 0.950 . S
H2917 C2946 0.950 . S
H2918 C2948 0.950 . S
H2919 C2949 0.950 . S
C2920 H2902 0.951 . S
C2920 C2921 1.366 . S
C2920 C2922 1.388 . S
C2921 C2920 1.366 . S
C2921 C2925 1.385 . S
C2922 H2903 0.951 . S
C2922 C2920 1.388 . S
C2922 C2923 1.366 . S
C2923 C2922 1.366 . S
C2923 C2924 1.414 . S
C2923 C2926 1.499 . S
C2924 H2904 0.950 . S
C2924 C2923 1.414 . S
C2924 C2925 1.374 . S
C2925 H2905 0.950 . S
C2925 C2921 1.385 . S
C2925 C2924 1.374 . S
C2926 C2923 1.499 . S
C2926 C2927 1.373 . S
C2926 C2928 1.389 . S
C2927 H2906 0.950 . S
C2927 C2926 1.373 . S
C2927 C2943 1.377 . S
C2928 C2926 1.389 . S
C2928 C2929 1.524 . S
C2928 C2942 1.377 . S
C2929 C2928 1.524 . S
C2929 C2930 1.397 . S
C2929 C2934 1.363 . S
C2930 H2907 0.950 . S
C2930 C2929 1.397 . S
C2930 C2931 1.334 . S
C2931 H2908 0.950 . S
C2931 C2930 1.334 . S
C2931 C2932 1.287 . S
C2932 C2931 1.287 . S
C2932 C2933 1.524 . S
C2932 H2951 0.913 . S
C2933 H2909 0.950 . S
C2933 C2932 1.524 . S
C2933 C2934 1.415 . S
C2934 H2910 0.950 . S
C2934 C2929 1.363 . S
C2934 C2933 1.415 . S
C2935 H2911 0.951 . S
C2935 C2936 1.366 . S
C2935 C2937 1.388 . S
C2936 C2935 1.366 . S
C2936 C2940 1.385 . S
C2937 H2912 0.951 . S
C2937 C2935 1.388 . S
C2937 C2938 1.366 . S
C2938 C2937 1.366 . S
C2938 C2939 1.414 . S
C2938 C2941 1.499 . S
C2939 H2913 0.950 . S
C2939 C2938 1.414 . S
C2939 C2940 1.374 . S
C2940 H2914 0.950 . S
C2940 C2936 1.385 . S
C2940 C2939 1.374 . S
C2941 C2938 1.499 . S
C2941 C2942 1.373 . S
C2941 C2943 1.389 . S
C2942 H2915 0.950 . S
C2942 C2928 1.377 . S
C2942 C2941 1.373 . S
C2943 C2927 1.377 . S
C2943 C2941 1.389 . S
C2943 C2944 1.524 . S
C2944 C2943 1.524 . S
C2944 C2945 1.397 . S
C2944 C2949 1.363 . S
C2945 H2916 0.950 . S
C2945 C2944 1.397 . S
C2945 C2946 1.334 . S
C2946 H2917 0.950 . S
C2946 C2945 1.334 . S
C2946 C2947 1.287 . S
C2947 C2946 1.287 . S
C2947 C2948 1.524 . S
C2947 H2950 0.999 . S
C2948 H2918 0.950 . S
C2948 C2947 1.524 . S
C2948 C2949 1.415 . S
C2949 H2919 0.950 . S
C2949 C2944 1.363 . S
C2949 C2948 1.415 . S
H2950 C2947 0.999 . S
H2951 C2932 0.913 . S
H2952 C2970 0.951 . S
H2953 C2972 0.951 . S
H2954 C2974 0.950 . S
H2955 C2975 0.950 . S
H2956 C2977 0.950 . S
H2957 C2980 0.950 . S
H2958 C2981 0.950 . S
H2959 C2983 0.950 . S
H2960 C2984 0.950 . S
H2961 C2985 0.951 . S
H2962 C2987 0.951 . S
H2963 C2989 0.950 . S
H2964 C2990 0.950 . S
H2965 C2992 0.950 . S
H2966 C2995 0.950 . S
H2967 C2996 0.950 . S
H2968 C2998 0.950 . S
H2969 C2999 0.950 . S
C2970 H2952 0.951 . S
C2970 C2971 1.366 . S
C2970 C2972 1.388 . S
C2971 C2970 1.366 . S
C2971 C2975 1.385 . S
C2972 H2953 0.951 . S
C2972 C2970 1.388 . S
C2972 C2973 1.366 . S
C2973 C2972 1.366 . S
C2973 C2974 1.414 . S
C2973 C2976 1.499 . S
C2974 H2954 0.950 . S
C2974 C2973 1.414 . S
C2974 C2975 1.374 . S
C2975 H2955 0.950 . S
C2975 C2971 1.385 . S
C2975 C2974 1.374 . S
C2976 C2973 1.499 . S
C2976 C2977 1.373 . S
C2976 C2978 1.389 . S
C2977 H2956 0.950 . S
C2977 C2976 1.373 . S
C2977 C2993 1.377 . S
C2978 C2976 1.389 . S
C2978 C2979 1.524 . S
C2978 C2992 1.377 . S
C2979 C2978 1.524 . S
C2979 C2980 1.397 . S
C2979 C2984 1.363 . S
C2980 H2957 0.950 . S
C2980 C2979 1.397 . S
C2980 C2981 1.334 . S
C2981 H2958 0.950 . S
C2981 C2980 1.334 . S
C2981 C2982 1.287 . S
C2982 C2981 1.287 . S
C2982 C2983 1.524 . S
C2982 H3001 0.913 . S
C2983 H2959 0.950 . S
C2983 C2982 1.524 . S
C2983 C2984 1.415 . S
C2984 H2960 0.950 . S
C2984 C2979 1.363 . S
C2984 C2983 1.415 . S
C2985 H2961 0.951 . S
C2985 C2986 1.366 . S
C2985 C2987 1.388 . S
C2986 C2985 1.366 . S
C2986 C2990 1.385 . S
C2987 H2962 0.951 . S
C2987 C2985 1.388 . S
C2987 C2988 1.366 . S
C2988 C2987 1.366 . S
C2988 C2989 1.414 . S
C2988 C2991 1.499 . S
C2989 H2963 0.950 . S
C2989 C2988 1.414 . S
C2989 C2990 1.374 . S
C2990 H2964 0.950 . S
C2990 C2986 1.385 . S
C2990 C2989 1.374 . S
C2991 C2988 1.499 . S
C2991 C2992 1.373 . S
C2991 C2993 1.389 . S
C2992 H2965 0.950 . S
C2992 C2978 1.377 . S
C2992 C2991 1.373 . S
C2993 C2977 1.377 . S
C2993 C2991 1.389 . S
C2993 C2994 1.524 . S
C2994 C2993 1.524 . S
C2994 C2995 1.397 . S
C2994 C2999 1.363 . S
C2995 H2966 0.950 . S
C2995 C2994 1.397 . S
C2995 C2996 1.334 . S
C2996 H2967 0.950 . S
C2996 C2995 1.334 . S
C2996 C2997 1.287 . S
C2997 C2996 1.287 . S
C2997 C2998 1.524 . S
C2997 H3000 0.999 . S
C2998 H2968 0.950 . S
C2998 C2997 1.524 . S
C2998 C2999 1.415 . S
C2999 H2969 0.950 . S
C2999 C2994 1.363 . S
C2999 C2998 1.415 . S
H3000 C2997 0.999 . S
H3001 C2982 0.913 . S
H3002 C3020 0.951 . S
H3003 C3022 0.951 . S
H3004 C3024 0.950 . S
H3005 C3025 0.950 . S
H3006 C3027 0.950 . S
H3007 C3030 0.950 . S
H3008 C3031 0.950 . S
H3009 C3033 0.950 . S
H3010 C3034 0.950 . S
H3011 C3035 0.951 . S
H3012 C3037 0.951 . S
H3013 C3039 0.950 . S
H3014 C3040 0.950 . S
H3015 C3042 0.950 . S
H3016 C3045 0.950 . S
H3017 C3046 0.950 . S
H3018 C3048 0.950 . S
H3019 C3049 0.950 . S
C3020 H3002 0.951 . S
C3020 C3021 1.366 . S
C3020 C3022 1.388 . S
C3021 C3020 1.366 . S
C3021 C3025 1.385 . S
C3022 H3003 0.951 . S
C3022 C3020 1.388 . S
C3022 C3023 1.366 . S
C3023 C3022 1.366 . S
C3023 C3024 1.414 . S
C3023 C3026 1.499 . S
C3024 H3004 0.950 . S
C3024 C3023 1.414 . S
C3024 C3025 1.374 . S
C3025 H3005 0.950 . S
C3025 C3021 1.385 . S
C3025 C3024 1.374 . S
C3026 C3023 1.499 . S
C3026 C3027 1.373 . S
C3026 C3028 1.389 . S
C3027 H3006 0.950 . S
C3027 C3026 1.373 . S
C3027 C3043 1.377 . S
C3028 C3026 1.389 . S
C3028 C3029 1.524 . S
C3028 C3042 1.377 . S
C3029 C3028 1.524 . S
C3029 C3030 1.397 . S
C3029 C3034 1.363 . S
C3030 H3007 0.950 . S
C3030 C3029 1.397 . S
C3030 C3031 1.334 . S
C3031 H3008 0.950 . S
C3031 C3030 1.334 . S
C3031 C3032 1.287 . S
C3032 C3031 1.287 . S
C3032 C3033 1.524 . S
C3032 H3051 0.913 . S
C3033 H3009 0.950 . S
C3033 C3032 1.524 . S
C3033 C3034 1.415 . S
C3034 H3010 0.950 . S
C3034 C3029 1.363 . S
C3034 C3033 1.415 . S
C3035 H3011 0.951 . S
C3035 C3036 1.366 . S
C3035 C3037 1.388 . S
C3036 C3035 1.366 . S
C3036 C3040 1.385 . S
C3037 H3012 0.951 . S
C3037 C3035 1.388 . S
C3037 C3038 1.366 . S
C3038 C3037 1.366 . S
C3038 C3039 1.414 . S
C3038 C3041 1.499 . S
C3039 H3013 0.950 . S
C3039 C3038 1.414 . S
C3039 C3040 1.374 . S
C3040 H3014 0.950 . S
C3040 C3036 1.385 . S
C3040 C3039 1.374 . S
C3041 C3038 1.499 . S
C3041 C3042 1.373 . S
C3041 C3043 1.389 . S
C3042 H3015 0.950 . S
C3042 C3028 1.377 . S
C3042 C3041 1.373 . S
C3043 C3027 1.377 . S
C3043 C3041 1.389 . S
C3043 C3044 1.524 . S
C3044 C3043 1.524 . S
C3044 C3045 1.397 . S
C3044 C3049 1.363 . S
C3045 H3016 0.950 . S
C3045 C3044 1.397 . S
C3045 C3046 1.334 . S
C3046 H3017 0.950 . S
C3046 C3045 1.334 . S
C3046 C3047 1.287 . S
C3047 C3046 1.287 . S
C3047 C3048 1.524 . S
C3047 H3050 0.999 . S
C3048 H3018 0.950 . S
C3048 C3047 1.524 . S
C3048 C3049 1.415 . S
C3049 H3019 0.950 . S
C3049 C3044 1.363 . S
C3049 C3048 1.415 . S
H3050 C3047 0.999 . S
H3051 C3032 0.913 . S
H3052 C3070 0.951 . S
H3053 C3072 0.951 . S
H3054 C3074 0.950 . S
H3055 C3075 0.950 . S
H3056 C3077 0.950 . S
H3057 C3080 0.950 . S
H3058 C3081 0.950 . S
H3059 C3083 0.950 . S
H3060 C3084 0.950 . S
H3061 C3085 0.951 . S
H3062 C3087 0.951 . S
H3063 C3089 0.950 . S
H3064 C3090 0.950 . S
H3065 C3092 0.950 . S
H3066 C3095 0.950 . S
H3067 C3096 0.950 . S
H3068 C3098 0.950 . S
H3069 C3099 0.950 . S
C3070 H3052 0.951 . S
C3070 C3071 1.366 . S
C3070 C3072 1.388 . S
C3071 C3070 1.366 . S
C3071 C3075 1.385 . S
C3072 H3053 0.951 . S
C3072 C3070 1.388 . S
C3072 C3073 1.366 . S
C3073 C3072 1.366 . S
C3073 C3074 1.414 . S
C3073 C3076 1.499 . S
C3074 H3054 0.950 . S
C3074 C3073 1.414 . S
C3074 C3075 1.374 . S
C3075 H3055 0.950 . S
C3075 C3071 1.385 . S
C3075 C3074 1.374 . S
C3076 C3073 1.499 . S
C3076 C3077 1.373 . S
C3076 C3078 1.389 . S
C3077 H3056 0.950 . S
C3077 C3076 1.373 . S
C3077 C3093 1.377 . S
C3078 C3076 1.389 . S
C3078 C3079 1.524 . S
C3078 C3092 1.377 . S
C3079 C3078 1.524 . S
C3079 C3080 1.397 . S
C3079 C3084 1.363 . S
C3080 H3057 0.950 . S
C3080 C3079 1.397 . S
C3080 C3081 1.334 . S
C3081 H3058 0.950 . S
C3081 C3080 1.334 . S
C3081 C3082 1.287 . S
C3082 C3081 1.287 . S
C3082 C3083 1.524 . S
C3082 H3101 0.913 . S
C3083 H3059 0.950 . S
C3083 C3082 1.524 . S
C3083 C3084 1.415 . S
C3084 H3060 0.950 . S
C3084 C3079 1.363 . S
C3084 C3083 1.415 . S
C3085 H3061 0.951 . S
C3085 C3086 1.366 . S
C3085 C3087 1.388 . S
C3086 C3085 1.366 . S
C3086 C3090 1.385 . S
C3087 H3062 0.951 . S
C3087 C3085 1.388 . S
C3087 C3088 1.366 . S
C3088 C3087 1.366 . S
C3088 C3089 1.414 . S
C3088 C3091 1.499 . S
C3089 H3063 0.950 . S
C3089 C3088 1.414 . S
C3089 C3090 1.374 . S
C3090 H3064 0.950 . S
C3090 C3086 1.385 . S
C3090 C3089 1.374 . S
C3091 C3088 1.499 . S
C3091 C3092 1.373 . S
C3091 C3093 1.389 . S
C3092 H3065 0.950 . S
C3092 C3078 1.377 . S
C3092 C3091 1.373 . S
C3093 C3077 1.377 . S
C3093 C3091 1.389 . S
C3093 C3094 1.524 . S
C3094 C3093 1.524 . S
C3094 C3095 1.397 . S
C3094 C3099 1.363 . S
C3095 H3066 0.950 . S
C3095 C3094 1.397 . S
C3095 C3096 1.334 . S
C3096 H3067 0.950 . S
C3096 C3095 1.334 . S
C3096 C3097 1.287 . S
C3097 C3096 1.287 . S
C3097 C3098 1.524 . S
C3097 H3100 0.999 . S
C3098 H3068 0.950 . S
C3098 C3097 1.524 . S
C3098 C3099 1.415 . S
C3099 H3069 0.950 . S
C3099 C3094 1.363 . S
C3099 C3098 1.415 . S
H3100 C3097 0.999 . S
H3101 C3082 0.913 . S
H3102 C3120 0.951 . S
H3103 C3122 0.951 . S
H3104 C3124 0.950 . S
H3105 C3125 0.950 . S
H3106 C3127 0.950 . S
H3107 C3130 0.950 . S
H3108 C3131 0.950 . S
H3109 C3133 0.950 . S
H3110 C3134 0.950 . S
H3111 C3135 0.951 . S
H3112 C3137 0.951 . S
H3113 C3139 0.950 . S
H3114 C3140 0.950 . S
H3115 C3142 0.950 . S
H3116 C3145 0.950 . S
H3117 C3146 0.950 . S
H3118 C3148 0.950 . S
H3119 C3149 0.950 . S
C3120 H3102 0.951 . S
C3120 C3121 1.366 . S
C3120 C3122 1.388 . S
C3121 C3120 1.366 . S
C3121 C3125 1.385 . S
C3122 H3103 0.951 . S
C3122 C3120 1.388 . S
C3122 C3123 1.366 . S
C3123 C3122 1.366 . S
C3123 C3124 1.414 . S
C3123 C3126 1.499 . S
C3124 H3104 0.950 . S
C3124 C3123 1.414 . S
C3124 C3125 1.374 . S
C3125 H3105 0.950 . S
C3125 C3121 1.385 . S
C3125 C3124 1.374 . S
C3126 C3123 1.499 . S
C3126 C3127 1.373 . S
C3126 C3128 1.389 . S
C3127 H3106 0.950 . S
C3127 C3126 1.373 . S
C3127 C3143 1.377 . S
C3128 C3126 1.389 . S
C3128 C3129 1.524 . S
C3128 C3142 1.377 . S
C3129 C3128 1.524 . S
C3129 C3130 1.397 . S
C3129 C3134 1.363 . S
C3130 H3107 0.950 . S
C3130 C3129 1.397 . S
C3130 C3131 1.334 . S
C3131 H3108 0.950 . S
C3131 C3130 1.334 . S
C3131 C3132 1.287 . S
C3132 C3131 1.287 . S
C3132 C3133 1.524 . S
C3132 H3151 0.913 . S
C3133 H3109 0.950 . S
C3133 C3132 1.524 . S
C3133 C3134 1.415 . S
C3134 H3110 0.950 . S
C3134 C3129 1.363 . S
C3134 C3133 1.415 . S
C3135 H3111 0.951 . S
C3135 C3136 1.366 . S
C3135 C3137 1.388 . S
C3136 C3135 1.366 . S
C3136 C3140 1.385 . S
C3137 H3112 0.951 . S
C3137 C3135 1.388 . S
C3137 C3138 1.366 . S
C3138 C3137 1.366 . S
C3138 C3139 1.414 . S
C3138 C3141 1.499 . S
C3139 H3113 0.950 . S
C3139 C3138 1.414 . S
C3139 C3140 1.374 . S
C3140 H3114 0.950 . S
C3140 C3136 1.385 . S
C3140 C3139 1.374 . S
C3141 C3138 1.499 . S
C3141 C3142 1.373 . S
C3141 C3143 1.389 . S
C3142 H3115 0.950 . S
C3142 C3128 1.377 . S
C3142 C3141 1.373 . S
C3143 C3127 1.377 . S
C3143 C3141 1.389 . S
C3143 C3144 1.524 . S
C3144 C3143 1.524 . S
C3144 C3145 1.397 . S
C3144 C3149 1.363 . S
C3145 H3116 0.950 . S
C3145 C3144 1.397 . S
C3145 C3146 1.334 . S
C3146 H3117 0.950 . S
C3146 C3145 1.334 . S
C3146 C3147 1.287 . S
C3147 C3146 1.287 . S
C3147 C3148 1.524 . S
C3147 H3150 0.999 . S
C3148 H3118 0.950 . S
C3148 C3147 1.524 . S
C3148 C3149 1.415 . S
C3149 H3119 0.950 . S
C3149 C3144 1.363 . S
C3149 C3148 1.415 . S
H3150 C3147 0.999 . S
H3151 C3132 0.913 . S
H3152 C3170 0.951 . S
H3153 C3172 0.951 . S
H3154 C3174 0.950 . S
H3155 C3175 0.950 . S
H3156 C3177 0.950 . S
H3157 C3180 0.950 . S
H3158 C3181 0.950 . S
H3159 C3183 0.950 . S
H3160 C3184 0.950 . S
H3161 C3185 0.951 . S
H3162 C3187 0.951 . S
H3163 C3189 0.950 . S
H3164 C3190 0.950 . S
H3165 C3192 0.950 . S
H3166 C3195 0.950 . S
H3167 C3196 0.950 . S
H3168 C3198 0.950 . S
H3169 C3199 0.950 . S
C3170 H3152 0.951 . S
C3170 C3171 1.366 . S
C3170 C3172 1.388 . S
C3171 C3170 1.366 . S
C3171 C3175 1.385 . S
C3172 H3153 0.951 . S
C3172 C3170 1.388 . S
C3172 C3173 1.366 . S
C3173 C3172 1.366 . S
C3173 C3174 1.414 . S
C3173 C3176 1.499 . S
C3174 H3154 0.950 . S
C3174 C3173 1.414 . S
C3174 C3175 1.374 . S
C3175 H3155 0.950 . S
C3175 C3171 1.385 . S
C3175 C3174 1.374 . S
C3176 C3173 1.499 . S
C3176 C3177 1.373 . S
C3176 C3178 1.389 . S
C3177 H3156 0.950 . S
C3177 C3176 1.373 . S
C3177 C3193 1.377 . S
C3178 C3176 1.389 . S
C3178 C3179 1.524 . S
C3178 C3192 1.377 . S
C3179 C3178 1.524 . S
C3179 C3180 1.397 . S
C3179 C3184 1.363 . S
C3180 H3157 0.950 . S
C3180 C3179 1.397 . S
C3180 C3181 1.334 . S
C3181 H3158 0.950 . S
C3181 C3180 1.334 . S
C3181 C3182 1.287 . S
C3182 C3181 1.287 . S
C3182 C3183 1.524 . S
C3182 H3201 0.913 . S
C3183 H3159 0.950 . S
C3183 C3182 1.524 . S
C3183 C3184 1.415 . S
C3184 H3160 0.950 . S
C3184 C3179 1.363 . S
C3184 C3183 1.415 . S
C3185 H3161 0.951 . S
C3185 C3186 1.366 . S
C3185 C3187 1.388 . S
C3186 C3185 1.366 . S
C3186 C3190 1.385 . S
C3187 H3162 0.951 . S
C3187 C3185 1.388 . S
C3187 C3188 1.366 . S
C3188 C3187 1.366 . S
C3188 C3189 1.414 . S
C3188 C3191 1.499 . S
C3189 H3163 0.950 . S
C3189 C3188 1.414 . S
C3189 C3190 1.374 . S
C3190 H3164 0.950 . S
C3190 C3186 1.385 . S
C3190 C3189 1.374 . S
C3191 C3188 1.499 . S
C3191 C3192 1.373 . S
C3191 C3193 1.389 . S
C3192 H3165 0.950 . S
C3192 C3178 1.377 . S
C3192 C3191 1.373 . S
C3193 C3177 1.377 . S
C3193 C3191 1.389 . S
C3193 C3194 1.524 . S
C3194 C3193 1.524 . S
C3194 C3195 1.397 . S
C3194 C3199 1.363 . S
C3195 H3166 0.950 . S
C3195 C3194 1.397 . S
C3195 C3196 1.334 . S
C3196 H3167 0.950 . S
C3196 C3195 1.334 . S
C3196 C3197 1.287 . S
C3197 C3196 1.287 . S
C3197 C3198 1.524 . S
C3197 H3200 0.999 . S
C3198 H3168 0.950 . S
C3198 C3197 1.524 . S
C3198 C3199 1.415 . S
C3199 H3169 0.950 . S
C3199 C3194 1.363 . S
C3199 C3198 1.415 . S
H3200 C3197 0.999 . S
H3201 C3182 0.913 . S
H3202 C3220 0.951 . S
H3203 C3222 0.951 . S
H3204 C3224 0.950 . S
H3205 C3225 0.950 . S
H3206 C3227 0.950 . S
H3207 C3230 0.950 . S
H3208 C3231 0.950 . S
H3209 C3233 0.950 . S
H3210 C3234 0.950 . S
H3211 C3235 0.951 . S
H3212 C3237 0.951 . S
H3213 C3239 0.950 . S
H3214 C3240 0.950 . S
H3215 C3242 0.950 . S
H3216 C3245 0.950 . S
H3217 C3246 0.950 . S
H3218 C3248 0.950 . S
H3219 C3249 0.950 . S
C3220 H3202 0.951 . S
C3220 C3221 1.366 . S
C3220 C3222 1.388 . S
C3221 C3220 1.366 . S
C3221 C3225 1.385 . S
C3222 H3203 0.951 . S
C3222 C3220 1.388 . S
C3222 C3223 1.366 . S
C3223 C3222 1.366 . S
C3223 C3224 1.414 . S
C3223 C3226 1.499 . S
C3224 H3204 0.950 . S
C3224 C3223 1.414 . S
C3224 C3225 1.374 . S
C3225 H3205 0.950 . S
C3225 C3221 1.385 . S
C3225 C3224 1.374 . S
C3226 C3223 1.499 . S
C3226 C3227 1.373 . S
C3226 C3228 1.389 . S
C3227 H3206 0.950 . S
C3227 C3226 1.373 . S
C3227 C3243 1.377 . S
C3228 C3226 1.389 . S
C3228 C3229 1.524 . S
C3228 C3242 1.377 . S
C3229 C3228 1.524 . S
C3229 C3230 1.397 . S
C3229 C3234 1.363 . S
C3230 H3207 0.950 . S
C3230 C3229 1.397 . S
C3230 C3231 1.334 . S
C3231 H3208 0.950 . S
C3231 C3230 1.334 . S
C3231 C3232 1.287 . S
C3232 C3231 1.287 . S
C3232 C3233 1.524 . S
C3232 H3251 0.913 . S
C3233 H3209 0.950 . S
C3233 C3232 1.524 . S
C3233 C3234 1.415 . S
C3234 H3210 0.950 . S
C3234 C3229 1.363 . S
C3234 C3233 1.415 . S
C3235 H3211 0.951 . S
C3235 C3236 1.366 . S
C3235 C3237 1.388 . S
C3236 C3235 1.366 . S
C3236 C3240 1.385 . S
C3237 H3212 0.951 . S
C3237 C3235 1.388 . S
C3237 C3238 1.366 . S
C3238 C3237 1.366 . S
C3238 C3239 1.414 . S
C3238 C3241 1.499 . S
C3239 H3213 0.950 . S
C3239 C3238 1.414 . S
C3239 C3240 1.374 . S
C3240 H3214 0.950 . S
C3240 C3236 1.385 . S
C3240 C3239 1.374 . S
C3241 C3238 1.499 . S
C3241 C3242 1.373 . S
C3241 C3243 1.389 . S
C3242 H3215 0.950 . S
C3242 C3228 1.377 . S
C3242 C3241 1.373 . S
C3243 C3227 1.377 . S
C3243 C3241 1.389 . S
C3243 C3244 1.524 . S
C3244 C3243 1.524 . S
C3244 C3245 1.397 . S
C3244 C3249 1.363 . S
C3245 H3216 0.950 . S
C3245 C3244 1.397 . S
C3245 C3246 1.334 . S
C3246 H3217 0.950 . S
C3246 C3245 1.334 . S
C3246 C3247 1.287 . S
C3247 C3246 1.287 . S
C3247 C3248 1.524 . S
C3247 H3250 0.999 . S
C3248 H3218 0.950 . S
C3248 C3247 1.524 . S
C3248 C3249 1.415 . S
C3249 H3219 0.950 . S
C3249 C3244 1.363 . S
C3249 C3248 1.415 . S
H3250 C3247 0.999 . S
H3251 C3232 0.913 . S
H3252 C3270 0.951 . S
H3253 C3272 0.951 . S
H3254 C3274 0.950 . S
H3255 C3275 0.950 . S
H3256 C3277 0.950 . S
H3257 C3280 0.950 . S
H3258 C3281 0.950 . S
H3259 C3283 0.950 . S
H3260 C3284 0.950 . S
H3261 C3285 0.951 . S
H3262 C3287 0.951 . S
H3263 C3289 0.950 . S
H3264 C3290 0.950 . S
H3265 C3292 0.950 . S
H3266 C3295 0.950 . S
H3267 C3296 0.950 . S
H3268 C3298 0.950 . S
H3269 C3299 0.950 . S
C3270 H3252 0.951 . S
C3270 C3271 1.366 . S
C3270 C3272 1.388 . S
C3271 C3270 1.366 . S
C3271 C3275 1.385 . S
C3272 H3253 0.951 . S
C3272 C3270 1.388 . S
C3272 C3273 1.366 . S
C3273 C3272 1.366 . S
C3273 C3274 1.414 . S
C3273 C3276 1.499 . S
C3274 H3254 0.950 . S
C3274 C3273 1.414 . S
C3274 C3275 1.374 . S
C3275 H3255 0.950 . S
C3275 C3271 1.385 . S
C3275 C3274 1.374 . S
C3276 C3273 1.499 . S
C3276 C3277 1.373 . S
C3276 C3278 1.389 . S
C3277 H3256 0.950 . S
C3277 C3276 1.373 . S
C3277 C3293 1.377 . S
C3278 C3276 1.389 . S
C3278 C3279 1.524 . S
C3278 C3292 1.377 . S
C3279 C3278 1.524 . S
C3279 C3280 1.397 . S
C3279 C3284 1.363 . S
C3280 H3257 0.950 . S
C3280 C3279 1.397 . S
C3280 C3281 1.334 . S
C3281 H3258 0.950 . S
C3281 C3280 1.334 . S
C3281 C3282 1.287 . S
C3282 C3281 1.287 . S
C3282 C3283 1.524 . S
C3282 H3301 0.913 . S
C3283 H3259 0.950 . S
C3283 C3282 1.524 . S
C3283 C3284 1.415 . S
C3284 H3260 0.950 . S
C3284 C3279 1.363 . S
C3284 C3283 1.415 . S
C3285 H3261 0.951 . S
C3285 C3286 1.366 . S
C3285 C3287 1.388 . S
C3286 C3285 1.366 . S
C3286 C3290 1.385 . S
C3287 H3262 0.951 . S
C3287 C3285 1.388 . S
C3287 C3288 1.366 . S
C3288 C3287 1.366 . S
C3288 C3289 1.414 . S
C3288 C3291 1.499 . S
C3289 H3263 0.950 . S
C3289 C3288 1.414 . S
C3289 C3290 1.374 . S
C3290 H3264 0.950 . S
C3290 C3286 1.385 . S
C3290 C3289 1.374 . S
C3291 C3288 1.499 . S
C3291 C3292 1.373 . S
C3291 C3293 1.389 . S
C3292 H3265 0.950 . S
C3292 C3278 1.377 . S
C3292 C3291 1.373 . S
C3293 C3277 1.377 . S
C3293 C3291 1.389 . S
C3293 C3294 1.524 . S
C3294 C3293 1.524 . S
C3294 C3295 1.397 . S
C3294 C3299 1.363 . S
C3295 H3266 0.950 . S
C3295 C3294 1.397 . S
C3295 C3296 1.334 . S
C3296 H3267 0.950 . S
C3296 C3295 1.334 . S
C3296 C3297 1.287 . S
C3297 C3296 1.287 . S
C3297 C3298 1.524 . S
C3297 H3300 0.999 . S
C3298 H3268 0.950 . S
C3298 C3297 1.524 . S
C3298 C3299 1.415 . S
C3299 H3269 0.950 . S
C3299 C3294 1.363 . S
C3299 C3298 1.415 . S
H3300 C3297 0.999 . S
H3301 C3282 0.913 . S
H3302 C3320 0.951 . S
H3303 C3322 0.951 . S
H3304 C3324 0.950 . S
H3305 C3325 0.950 . S
H3306 C3327 0.950 . S
H3307 C3330 0.950 . S
H3308 C3331 0.950 . S
H3309 C3333 0.950 . S
H3310 C3334 0.950 . S
H3311 C3335 0.951 . S
H3312 C3337 0.951 . S
H3313 C3339 0.950 . S
H3314 C3340 0.950 . S
H3315 C3342 0.950 . S
H3316 C3345 0.950 . S
H3317 C3346 0.950 . S
H3318 C3348 0.950 . S
H3319 C3349 0.950 . S
C3320 H3302 0.951 . S
C3320 C3321 1.366 . S
C3320 C3322 1.388 . S
C3321 C3320 1.366 . S
C3321 C3325 1.385 . S
C3322 H3303 0.951 . S
C3322 C3320 1.388 . S
C3322 C3323 1.366 . S
C3323 C3322 1.366 . S
C3323 C3324 1.414 . S
C3323 C3326 1.499 . S
C3324 H3304 0.950 . S
C3324 C3323 1.414 . S
C3324 C3325 1.374 . S
C3325 H3305 0.950 . S
C3325 C3321 1.385 . S
C3325 C3324 1.374 . S
C3326 C3323 1.499 . S
C3326 C3327 1.373 . S
C3326 C3328 1.389 . S
C3327 H3306 0.950 . S
C3327 C3326 1.373 . S
C3327 C3343 1.377 . S
C3328 C3326 1.389 . S
C3328 C3329 1.524 . S
C3328 C3342 1.377 . S
C3329 C3328 1.524 . S
C3329 C3330 1.397 . S
C3329 C3334 1.363 . S
C3330 H3307 0.950 . S
C3330 C3329 1.397 . S
C3330 C3331 1.334 . S
C3331 H3308 0.950 . S
C3331 C3330 1.334 . S
C3331 C3332 1.287 . S
C3332 C3331 1.287 . S
C3332 C3333 1.524 . S
C3332 H3351 0.913 . S
C3333 H3309 0.950 . S
C3333 C3332 1.524 . S
C3333 C3334 1.415 . S
C3334 H3310 0.950 . S
C3334 C3329 1.363 . S
C3334 C3333 1.415 . S
C3335 H3311 0.951 . S
C3335 C3336 1.366 . S
C3335 C3337 1.388 . S
C3336 C3335 1.366 . S
C3336 C3340 1.385 . S
C3337 H3312 0.951 . S
C3337 C3335 1.388 . S
C3337 C3338 1.366 . S
C3338 C3337 1.366 . S
C3338 C3339 1.414 . S
C3338 C3341 1.499 . S
C3339 H3313 0.950 . S
C3339 C3338 1.414 . S
C3339 C3340 1.374 . S
C3340 H3314 0.950 . S
C3340 C3336 1.385 . S
C3340 C3339 1.374 . S
C3341 C3338 1.499 . S
C3341 C3342 1.373 . S
C3341 C3343 1.389 . S
C3342 H3315 0.950 . S
C3342 C3328 1.377 . S
C3342 C3341 1.373 . S
C3343 C3327 1.377 . S
C3343 C3341 1.389 . S
C3343 C3344 1.524 . S
C3344 C3343 1.524 . S
C3344 C3345 1.397 . S
C3344 C3349 1.363 . S
C3345 H3316 0.950 . S
C3345 C3344 1.397 . S
C3345 C3346 1.334 . S
C3346 H3317 0.950 . S
C3346 C3345 1.334 . S
C3346 C3347 1.287 . S
C3347 C3346 1.287 . S
C3347 C3348 1.524 . S
C3347 H3350 0.999 . S
C3348 H3318 0.950 . S
C3348 C3347 1.524 . S
C3348 C3349 1.415 . S
C3349 H3319 0.950 . S
C3349 C3344 1.363 . S
C3349 C3348 1.415 . S
H3350 C3347 0.999 . S
H3351 C3332 0.913 . S
H3352 C3370 0.951 . S
H3353 C3372 0.951 . S
H3354 C3374 0.950 . S
H3355 C3375 0.950 . S
H3356 C3377 0.950 . S
H3357 C3380 0.950 . S
H3358 C3381 0.950 . S
H3359 C3383 0.950 . S
H3360 C3384 0.950 . S
H3361 C3385 0.951 . S
H3362 C3387 0.951 . S
H3363 C3389 0.950 . S
H3364 C3390 0.950 . S
H3365 C3392 0.950 . S
H3366 C3395 0.950 . S
H3367 C3396 0.950 . S
H3368 C3398 0.950 . S
H3369 C3399 0.950 . S
C3370 H3352 0.951 . S
C3370 C3371 1.366 . S
C3370 C3372 1.388 . S
C3371 C3370 1.366 . S
C3371 C3375 1.385 . S
C3372 H3353 0.951 . S
C3372 C3370 1.388 . S
C3372 C3373 1.366 . S
C3373 C3372 1.366 . S
C3373 C3374 1.414 . S
C3373 C3376 1.499 . S
C3374 H3354 0.950 . S
C3374 C3373 1.414 . S
C3374 C3375 1.374 . S
C3375 H3355 0.950 . S
C3375 C3371 1.385 . S
C3375 C3374 1.374 . S
C3376 C3373 1.499 . S
C3376 C3377 1.373 . S
C3376 C3378 1.389 . S
C3377 H3356 0.950 . S
C3377 C3376 1.373 . S
C3377 C3393 1.377 . S
C3378 C3376 1.389 . S
C3378 C3379 1.524 . S
C3378 C3392 1.377 . S
C3379 C3378 1.524 . S
C3379 C3380 1.397 . S
C3379 C3384 1.363 . S
C3380 H3357 0.950 . S
C3380 C3379 1.397 . S
C3380 C3381 1.334 . S
C3381 H3358 0.950 . S
C3381 C3380 1.334 . S
C3381 C3382 1.287 . S
C3382 C3381 1.287 . S
C3382 C3383 1.524 . S
C3382 H3401 0.913 . S
C3383 H3359 0.950 . S
C3383 C3382 1.524 . S
C3383 C3384 1.415 . S
C3384 H3360 0.950 . S
C3384 C3379 1.363 . S
C3384 C3383 1.415 . S
C3385 H3361 0.951 . S
C3385 C3386 1.366 . S
C3385 C3387 1.388 . S
C3386 C3385 1.366 . S
C3386 C3390 1.385 . S
C3387 H3362 0.951 . S
C3387 C3385 1.388 . S
C3387 C3388 1.366 . S
C3388 C3387 1.366 . S
C3388 C3389 1.414 . S
C3388 C3391 1.499 . S
C3389 H3363 0.950 . S
C3389 C3388 1.414 . S
C3389 C3390 1.374 . S
C3390 H3364 0.950 . S
C3390 C3386 1.385 . S
C3390 C3389 1.374 . S
C3391 C3388 1.499 . S
C3391 C3392 1.373 . S
C3391 C3393 1.389 . S
C3392 H3365 0.950 . S
C3392 C3378 1.377 . S
C3392 C3391 1.373 . S
C3393 C3377 1.377 . S
C3393 C3391 1.389 . S
C3393 C3394 1.524 . S
C3394 C3393 1.524 . S
C3394 C3395 1.397 . S
C3394 C3399 1.363 . S
C3395 H3366 0.950 . S
C3395 C3394 1.397 . S
C3395 C3396 1.334 . S
C3396 H3367 0.950 . S
C3396 C3395 1.334 . S
C3396 C3397 1.287 . S
C3397 C3396 1.287 . S
C3397 C3398 1.524 . S
C3397 H3400 0.999 . S
C3398 H3368 0.950 . S
C3398 C3397 1.524 . S
C3398 C3399 1.415 . S
C3399 H3369 0.950 . S
C3399 C3394 1.363 . S
C3399 C3398 1.415 . S
H3400 C3397 0.999 . S
H3401 C3382 0.913 . S
C721 C253 1.744 . S
C736 C351 1.751 . S
C771 C272 1.884 . S
C786 C391 1.883 . S
C821 C234 1.624 . S
C836 C430 1.587 . S
C871 C215 1.468 . S
C886 C390 1.422 1_556 S
C936 C431 1.545 1_556 S
C921 C177 1.546 . S
C971 C196 1.357 . S
C986 C350 1.336 . S
C1036 C361 1.691 . S
C1021 C220 1.561 . S
C1086 C401 1.658 . S
C1071 C182 1.573 . S
C1121 C201 1.650 . S
C1136 C440 1.749 . S
C1171 C258 1.435 . S
C1186 C400 1.523 . S
C1221 C277 1.319 . S
C1236 C441 1.422 . S
C1286 C360 1.511 . S
C1271 C239 1.391 . S
C1336 C471 1.751 . S
C1321 C25 1.745 . S
C1371 C44 1.884 . S
C1386 C511 1.883 . S
C1421 C6 1.625 . S
C1436 C550 1.587 . S
C1471 C329 1.468 . S
C1486 C510 1.423 . S
C1521 C291 1.545 . S
C1536 C551 1.545 . S
C1571 C310 1.358 . S
C1586 C470 1.335 . S
C1621 C334 1.561 . S
C1636 C481 1.686 . S
C1671 C296 1.573 . S
C1686 C521 1.658 . S
C1736 C560 1.749 . S
C1721 C315 1.648 . S
C1771 C30 1.433 . S
C1786 C520 1.524 . S
C1836 C561 1.423 . S
C1821 C49 1.320 . S
C1871 C11 1.389 . S
C1886 C480 1.511 . S
C1936 C591 1.751 . S
C1921 C139 1.744 . S
C1971 C158 1.884 . S
C1986 C631 1.883 . S
C2036 C670 1.588 . S
C2021 C120 1.625 . S
C2086 C630 1.423 . S
C2071 C101 1.468 . S
C2136 C671 1.545 . S
C2121 C63 1.545 . S
C2171 C82 1.358 . S
C2186 C590 1.335 . S
C2221 C106 1.562 . S
C2236 C601 1.686 . S
C2271 C68 1.572 . S
C2286 C641 1.658 . S
C2336 C680 1.750 . S
C2321 C87 1.648 . S
C2371 C144 1.433 . S
C2386 C640 1.524 . S
C2421 C163 1.320 . S
C2436 C681 1.423 . S
C2471 C125 1.389 . S
C2486 C600 1.512 . S
C2521 C287 1.519 . S
C2536 C347 1.517 . S
C2586 C387 2.135 . S
C2571 C306 2.128 . S
C2621 C325 1.639 . S
C2636 C437 1.668 . S
C2671 C116 1.907 . S
C2686 C397 1.936 . S
C2721 C135 1.824 . S
C2736 C427 1.833 . S
C2786 C357 1.297 . S
C2771 C154 1.277 . S
C2821 C59 1.518 . S
C2836 C467 1.517 . S
C2871 C78 2.128 . S
C2886 C507 2.136 . S
C2921 C97 1.639 . S
C2936 C557 1.668 . S
C2971 C230 1.907 . S
C2986 C517 1.936 . S
C3036 C547 1.833 . S
C3021 C249 1.824 . S
C3071 C268 1.276 . S
C3086 C477 1.296 . S
C3121 C173 1.518 . S
C3136 C587 1.516 . S
C3171 C192 2.128 . S
C3186 C627 2.136 . S
C3236 C677 1.668 . S
C3221 C211 1.640 . S
C3271 C2 1.907 . S
C3286 C637 1.937 . S
C3321 C21 1.824 . S
C3336 C667 1.833 . S
C3371 C40 1.276 . S
C3386 C597 1.296 . S
