# Generated by pormake.
# Topology rtl, (3,6)-cn, num edge types: 1
# Building blocks:
#     Node 0, Type 0, BuildingBlock: VETTIZ_charged_linker_0, # of connection points: 3
#     Node 1, Type 0, BuildingBlock: VETTIZ_charged_linker_0, # of connection points: 3
#     Node 2, Type 0, BuildingBlock: VETTIZ_charged_linker_0, # of connection points: 3
#     Node 3, Type 0, BuildingBlock: VETTIZ_charged_linker_0, # of connection points: 3
#     Node 4, Type 1, BuildingBlock: CIFDUS_clean_sbu_1, # of connection points: 6
#     Node 5, Type 1, BuildingBlock: CIFDUS_clean_sbu_1, # of connection points: 6
#     Edge 6, Type (0, 1), BuildingBlock: UVAHIK_clean_linker_0, # of connection points: 2
#     Edge 7, Type (0, 1), BuildingBlock: UVAHIK_clean_linker_0, # of connection points: 2
#     Edge 8, Type (0, 1), BuildingBlock: UVAHIK_clean_linker_0, # of connection points: 2
#     Edge 9, Type (0, 1), BuildingBlock: UVAHIK_clean_linker_0, # of connection points: 2
#     Edge 10, Type (0, 1), BuildingBlock: UVAHIK_clean_linker_0, # of connection points: 2
#     Edge 11, Type (0, 1), BuildingBlock: UVAHIK_clean_linker_0, # of connection points: 2
#     Edge 12, Type (0, 1), BuildingBlock: UVAHIK_clean_linker_0, # of connection points: 2
#     Edge 13, Type (0, 1), BuildingBlock: UVAHIK_clean_linker_0, # of connection points: 2
#     Edge 14, Type (0, 1), BuildingBlock: UVAHIK_clean_linker_0, # of connection points: 2
#     Edge 15, Type (0, 1), BuildingBlock: UVAHIK_clean_linker_0, # of connection points: 2
#     Edge 16, Type (0, 1), BuildingBlock: UVAHIK_clean_linker_0, # of connection points: 2
#     Edge 17, Type (0, 1), BuildingBlock: UVAHIK_clean_linker_0, # of connection points: 2
# Relax obj value: 0.030
# Max RMSD: 0.064
# Mean RMSD: 0.050
data_MOF--net-rtl--node1-CIFDUS_clean_sbu_1--node2-VETTIZ_charged_linker_0--edge1-UVAHIK_clean_linker_0
_symmetry_space_group_name_H-M    P1
_symmetry_Int_Tables_number       1
_symmetry_cell_setting            triclinic
loop_
_symmetry_equiv_pos_as_xyz
'x, y, z'
_cell_length_a     45.822993
_cell_length_b     52.161302
_cell_length_c     36.647677
_cell_angle_alpha  90.087707
_cell_angle_beta   97.744864
_cell_angle_gamma 89.9952
loop_
_atom_site_label
_atom_site_type_symbol
_atom_site_fract_x
_atom_site_fract_y
_atom_site_fract_z
_atom_type_partial_charge
C0 C 0.20167 0.89027 0.95745 0.0
C1 C 0.18159 0.9108 0.95173 0.0
C2 C 0.17298 0.92339 0.98266 0.0
C3 C 0.20443 0.89556 0.02381 0.0
C4 C 0.21286 0.88308 0.9936 0.0
C5 C 0.23497 0.86216 0.00475 0.0
H6 H 0.31281 0.79209 0.1407 0.0
C7 C 0.22016 0.88366 0.05748 0.0
C8 C 0.23815 0.86404 0.04654 0.0
H9 H 0.31357 0.78531 0.02335 0.0
H10 H 0.27952 0.82081 0.01268 0.0
H11 H 0.3185 0.8521 0.14236 0.0
H12 H 0.24234 0.80341 0.13823 0.0
H13 H 0.23946 0.82758 0.17113 0.0
H14 H 0.27011 0.8057 0.17765 0.0
H15 H 0.30911 0.83635 0.18266 0.0
H16 H 0.29433 0.86744 0.16859 0.0
C17 C 0.26402 0.86896 0.9897 0.0
C18 C 0.22118 0.83633 0.99052 0.0
C19 C 0.20207 0.91615 0.18364 0.0
C20 C 0.21315 0.90885 0.21987 0.0
C21 C 0.23386 0.8887 0.22502 0.0
C22 C 0.24306 0.87591 0.19488 0.0
C23 C 0.23158 0.88329 0.15894 0.0
C24 C 0.21158 0.90321 0.15379 0.0
C25 C 0.20193 0.90856 0.11362 0.0
C26 C 0.2195 0.88862 0.09554 0.0
C27 C 0.23672 0.87381 0.12223 0.0
C28 C 0.21141 0.93625 0.1054 0.0
C29 C 0.16832 0.9036 0.10546 0.0
C30 C 0.30544 0.7982 0.11273 0.0
C31 C 0.31565 0.78581 0.0828 0.0
C32 C 0.30605 0.79463 0.04683 0.0
C33 C 0.28619 0.81516 0.0407 0.0
C34 C 0.27597 0.82725 0.07088 0.0
C35 C 0.28596 0.81894 0.10619 0.0
C36 C 0.27396 0.83486 0.13503 0.0
C37 C 0.25465 0.85374 0.11125 0.0
C38 C 0.25563 0.84905 0.07364 0.0
C39 C 0.30017 0.84833 0.1587 0.0
C40 C 0.25561 0.8171 0.157 0.0
H41 H 0.17672 0.92632 0.04072 0.0
H42 H 0.209 0.88037 0.93432 0.0
H43 H 0.1977 0.83528 0.99515 0.0
H44 H 0.2319 0.81958 0.00494 0.0
H45 H 0.22192 0.83411 0.96051 0.0
H46 H 0.26725 0.89009 0.98895 0.0
H47 H 0.26398 0.86157 0.96125 0.0
H48 H 0.28374 0.86172 0.00734 0.0
H49 H 0.18591 0.93132 0.17851 0.0
H50 H 0.24318 0.88287 0.25249 0.0
H51 H 0.25876 0.86072 0.20078 0.0
H52 H 0.23278 0.94119 0.12213 0.0
H53 H 0.19483 0.95045 0.11203 0.0
H54 H 0.21531 0.93893 0.07657 0.0
H55 H 0.16179 0.8872 0.12198 0.0
H56 H 0.16104 0.89811 0.07657 0.0
H57 H 0.15561 0.92064 0.11243 0.0
H58 H 0.15727 0.939 0.97913 0.0
C59 C 0.18422 0.9159 0.0185 0.0
C60 C 0.65281 0.68374 0.68113 0.0
C61 C 0.63218 0.66359 0.67779 0.0
C62 C 0.62001 0.65544 0.64225 0.0
C63 C 0.64833 0.68756 0.61451 0.0
C64 C 0.66054 0.69536 0.6493 0.0
C65 C 0.68198 0.71708 0.64805 0.0
H66 H 0.75013 0.80204 0.54825 0.0
C67 C 0.66062 0.7039 0.5873 0.0
C68 C 0.6804 0.72122 0.6068 0.0
H69 H 0.76063 0.79283 0.66653 0.0
H70 H 0.72557 0.75812 0.66029 0.0
H71 H 0.75082 0.74235 0.52979 0.0
H72 H 0.67838 0.79437 0.53485 0.0
H73 H 0.67023 0.77521 0.49525 0.0
H74 H 0.70188 0.79604 0.49947 0.0
H75 H 0.74055 0.76592 0.49478 0.0
H76 H 0.7234 0.73472 0.49316 0.0
C77 C 0.71283 0.70769 0.66545 0.0
C78 C 0.6702 0.74054 0.66758 0.0
C79 C 0.62708 0.69091 0.45049 0.0
C80 C 0.6346 0.70278 0.41858 0.0
C81 C 0.65536 0.72291 0.42249 0.0
C82 C 0.66831 0.7311 0.45749 0.0
C83 C 0.66059 0.71899 0.48909 0.0
C84 C 0.64032 0.69921 0.48522 0.0
C85 C 0.6351 0.68825 0.52172 0.0
C86 C 0.65549 0.70472 0.54819 0.0
C87 C 0.67032 0.72278 0.52898 0.0
C88 C 0.64483 0.65976 0.52299 0.0
C89 C 0.6023 0.69255 0.52613 0.0
C90 C 0.74459 0.79272 0.5728 0.0
C91 C 0.75814 0.80028 0.60797 0.0
C92 C 0.75072 0.78728 0.63915 0.0
C93 C 0.73025 0.76716 0.63546 0.0
C94 C 0.71699 0.75977 0.60018 0.0
C95 C 0.72428 0.77243 0.56956 0.0
C96 C 0.70849 0.76149 0.53424 0.0
C97 C 0.69037 0.74033 0.54874 0.0
C98 C 0.6954 0.73949 0.5874 0.0
C99 C 0.73185 0.75066 0.51146 0.0
C100 C 0.68878 0.7828 0.51456 0.0
H101 H 0.61771 0.66028 0.58453 0.0
H102 H 0.66288 0.69029 0.70796 0.0
H103 H 0.64578 0.74172 0.66149 0.0
H104 H 0.67821 0.75901 0.65814 0.0
H105 H 0.67602 0.73919 0.69793 0.0
H106 H 0.71581 0.68695 0.65978 0.0
H107 H 0.71597 0.7103 0.69581 0.0
H108 H 0.73098 0.71731 0.65385 0.0
H109 H 0.61159 0.67512 0.44853 0.0
H110 H 0.6614 0.73252 0.39842 0.0
H111 H 0.68387 0.74654 0.45857 0.0
H112 H 0.66415 0.65689 0.508 0.0
H113 H 0.62684 0.64713 0.50996 0.0
H114 H 0.65226 0.65291 0.55121 0.0
H115 H 0.59442 0.71135 0.5143 0.0
H116 H 0.59837 0.69337 0.55516 0.0
H117 H 0.58813 0.67739 0.51166 0.0
H118 H 0.60381 0.6402 0.63879 0.0
C119 C 0.62796 0.66728 0.6107 0.0
C120 C 0.80709 0.1523 0.1143 0.0
C121 C 0.8269 0.13156 0.11985 0.0
C122 C 0.83506 0.11878 0.08883 0.0
C123 C 0.80363 0.14676 0.04791 0.0
C124 C 0.79566 0.15945 0.07822 0.0
C125 C 0.77374 0.18054 0.06726 0.0
H126 H 0.69465 0.25007 0.93176 0.0
C127 C 0.78755 0.15855 0.01435 0.0
C128 C 0.76985 0.17832 0.02548 0.0
H129 H 0.6977 0.2593 0.04941 0.0
H130 H 0.73037 0.22289 0.05982 0.0
H131 H 0.76457 0.23756 0.93217 0.0
H132 H 0.68756 0.19034 0.93162 0.0
H133 H 0.71106 0.1737 0.90582 0.0
H134 H 0.69683 0.20469 0.89025 0.0
H135 H 0.73563 0.23559 0.89399 0.0
H136 H 0.76576 0.2132 0.89907 0.0
C137 C 0.7881 0.20631 0.08079 0.0
C138 C 0.74492 0.17422 0.08317 0.0
C139 C 0.80515 0.12646 0.8877 0.0
C140 C 0.79341 0.13354 0.85157 0.0
C141 C 0.77137 0.15263 0.84683 0.0
C142 C 0.76196 0.16497 0.87718 0.0
C143 C 0.77449 0.15819 0.91295 0.0
C144 C 0.79532 0.1389 0.91779 0.0
C145 C 0.80546 0.1337 0.95791 0.0
C146 C 0.78761 0.15331 0.97626 0.0
C147 C 0.76973 0.16775 0.94974 0.0
C148 C 0.83894 0.13929 0.96559 0.0
C149 C 0.79679 0.10582 0.96636 0.0
C150 C 0.70249 0.24431 0.95975 0.0
C151 C 0.69372 0.25769 0.98979 0.0
C152 C 0.70398 0.24923 0.02579 0.0
C153 C 0.72312 0.22818 0.03178 0.0
C154 C 0.73208 0.21525 1.00146 0.0
C155 C 0.72142 0.22318 0.96618 0.0
C156 C 0.73252 0.20674 0.93724 0.0
C157 C 0.75209 0.18797 0.9609 0.0
C158 C 0.75196 0.19313 0.99854 0.0
C159 C 0.75046 0.22403 0.91408 0.0
C160 C 0.70575 0.19322 0.91475 0.0
H161 H 0.83077 0.11569 0.03074 0.0
H162 H 0.80012 0.16237 0.13751 0.0
H163 H 0.74101 0.15317 0.08325 0.0
H164 H 0.72515 0.18223 0.06651 0.0
H165 H 0.74591 0.18116 0.11199 0.0
H166 H 0.81165 0.2068 0.07638 0.0
H167 H 0.78724 0.2091 0.11068 0.0
H168 H 0.77792 0.22302 0.06568 0.0
H169 H 0.82218 0.112 0.8926 0.0
H170 H 0.76132 0.15812 0.81953 0.0
H171 H 0.74539 0.17948 0.87154 0.0
H172 H 0.84462 0.15651 0.95011 0.0
H173 H 0.85193 0.12292 0.95693 0.0
H174 H 0.8466 0.14373 0.99475 0.0
H175 H 0.7761 0.10001 0.94883 0.0
H176 H 0.79197 0.10336 0.99489 0.0
H177 H 0.81424 0.09205 0.9611 0.0
H178 H 0.85056 0.103 0.09224 0.0
C179 C 0.82361 0.12624 0.05305 0.0
C180 C 0.36303 0.35512 0.42104 0.0
C181 C 0.38028 0.37759 0.42576 0.0
C182 C 0.38785 0.38732 0.46181 0.0
C183 C 0.36348 0.35159 0.48722 0.0
C184 C 0.35467 0.3427 0.45195 0.0
C185 C 0.33564 0.31914 0.45166 0.0
H186 H 0.27359 0.22692 0.54617 0.0
C187 C 0.3523 0.33367 0.51335 0.0
C188 C 0.33566 0.31476 0.49267 0.0
H189 H 0.2625 0.23933 0.42856 0.0
H190 H 0.29506 0.27592 0.43683 0.0
H191 H 0.34436 0.23957 0.56095 0.0
H192 H 0.26717 0.2857 0.56737 0.0
H193 H 0.29327 0.29343 0.60542 0.0
H194 H 0.27894 0.26124 0.60052 0.0
H195 H 0.3216 0.23553 0.59675 0.0
H196 H 0.35112 0.25866 0.60074 0.0
C197 C 0.35106 0.297 0.43358 0.0
C198 C 0.3045 0.32584 0.43182 0.0
C199 C 0.38252 0.34547 0.65104 0.0
C200 C 0.37675 0.33154 0.68215 0.0
C201 C 0.35911 0.30931 0.67684 0.0
C202 C 0.34742 0.30117 0.64133 0.0
C203 C 0.35331 0.31539 0.61057 0.0
C204 C 0.37067 0.3371 0.61577 0.0
C205 C 0.37458 0.34991 0.58001 0.0
C206 C 0.35683 0.33226 0.55243 0.0
C207 C 0.34438 0.31206 0.57045 0.0
C208 C 0.40783 0.34943 0.57615 0.0
C209 C 0.361 0.37715 0.57984 0.0
C210 C 0.2785 0.23739 0.52222 0.0
C211 C 0.26562 0.23019 0.48664 0.0
C212 C 0.27206 0.24459 0.45621 0.0
C213 C 0.29095 0.26583 0.46109 0.0
C214 C 0.30337 0.273 0.49683 0.0
C215 C 0.29699 0.25891 0.52669 0.0
C216 C 0.31122 0.27004 0.56271 0.0
C217 C 0.32697 0.2932 0.54954 0.0
C218 C 0.32252 0.29466 0.5109 0.0
C219 C 0.33313 0.24998 0.58164 0.0
C220 C 0.28656 0.27792 0.58554 0.0
H221 H 0.38654 0.38272 0.51898 0.0
H222 H 0.35659 0.34694 0.39401 0.0
H223 H 0.29978 0.3467 0.43354 0.0
H224 H 0.28675 0.31646 0.44462 0.0
H225 H 0.3022 0.32063 0.40217 0.0
H226 H 0.37502 0.2967 0.44397 0.0
H227 H 0.34862 0.29929 0.40319 0.0
H228 H 0.34271 0.2779 0.43989 0.0
H229 H 0.39554 0.36286 0.65404 0.0
H230 H 0.3545 0.29806 0.70022 0.0
H231 H 0.33419 0.28413 0.63921 0.0
H232 H 0.41763 0.33053 0.58489 0.0
H233 H 0.41996 0.3644 0.5937 0.0
H234 H 0.41232 0.35201 0.54759 0.0
H235 H 0.34256 0.37789 0.59672 0.0
H236 H 0.35101 0.38327 0.55205 0.0
H237 H 0.37763 0.39155 0.59126 0.0
H238 H 0.40012 0.40501 0.46659 0.0
C239 C 0.37973 0.37442 0.49241 0.0
O240 O 0.98065 0.03134 0.48475 0.0
Mn241 Mn 0.00422 0.02032 0.53536 0.0
O242 O 0.97043 0.99494 0.45226 0.0
Mn243 Mn 0.99114 0.97234 0.48554 0.0
O244 O 0.0277 0.00944 0.58598 0.0
O245 O 0.02127 0.05568 0.54173 0.0
Mn246 Mn 0.01596 0.06845 0.58473 0.0
O247 O 0.96759 0.03026 0.56183 0.0
O248 O 0.0358 0.04591 0.61897 0.0
O249 O 0.04056 0.01014 0.50861 0.0
O250 O 0.03125 0.97085 0.48426 0.0
O251 O 0.03658 0.09293 0.56214 0.0
O252 O 0.97572 0.07019 0.58401 0.0
C253 C 0.97325 0.96462 0.53572 0.0
C254 C 0.96871 0.01928 0.45581 0.0
C255 C 0.03849 0.02164 0.61533 0.0
C256 C 0.03597 0.07605 0.53617 0.0
C257 C 0.95902 0.05086 0.57663 0.0
C258 C 0.04838 0.98986 0.49225 0.0
O259 O 0.98739 0.98501 0.52909 0.0
O260 O 0.97134 0.94789 0.50944 0.0
O261 O 0.51984 0.55098 0.08105 0.0
Mn262 Mn 0.50454 0.5192 0.0483 0.0
O263 O 0.56562 0.54152 0.10812 0.0
Mn264 Mn 0.56151 0.50647 0.10166 0.0
O265 O 0.48965 0.48704 0.01604 0.0
O266 O 0.46486 0.53603 0.03992 0.0
Mn267 Mn 0.44737 0.52981 0.9951 0.0
O268 O 0.51576 0.53738 1.00159 0.0
O269 O 0.44274 0.49469 0.99231 0.0
O270 O 0.49307 0.50099 0.09499 0.0
O271 O 0.53584 0.4905 0.12996 0.0
O272 O 0.42244 0.55112 0.01702 0.0
O273 O 0.47284 0.54388 0.96465 0.0
C274 C 0.56549 0.48795 0.04993 0.0
C275 C 0.54428 0.55718 0.10075 0.0
C276 C 0.46471 0.47969 0.99881 0.0
C277 C 0.44344 0.55123 0.0444 0.0
C278 C 0.50094 0.54564 0.97156 0.0
C279 C 0.50768 0.49051 0.12357 0.0
O280 O 0.54417 0.50261 0.0563 0.0
O281 O 0.58637 0.48651 0.07733 0.0
C282 C 0.25177 0.1847 0.49857 0.0
C283 C 0.24472 0.20834 0.48135 0.0
C284 C 0.23149 0.16449 0.49478 0.0
C285 C 0.15902 0.14363 0.44242 0.0
H286 H 0.15415 0.10425 0.53095 0.0
C287 C 0.05374 0.10106 0.48662 0.0
C288 C 0.05591 0.07885 0.5083 0.0
C289 C 0.07837 0.11052 0.4723 0.0
C290 C 0.15555 0.1146 0.50564 0.0
H291 H 0.21106 0.22936 0.44648 0.0
H292 H 0.17522 0.19466 0.44104 0.0
H293 H 0.19452 0.13401 0.52929 0.0
H294 H 0.08467 0.04802 0.52998 0.0
H295 H 0.12783 0.06438 0.50474 0.0
H296 H 0.11859 0.12526 0.42 0.0
C297 C 0.1967 0.19121 0.45648 0.0
C298 C 0.17881 0.13178 0.50464 0.0
C299 C 0.21718 0.21125 0.45979 0.0
C300 C 0.08228 0.06486 0.51255 0.0
C301 C 0.10707 0.07444 0.49858 0.0
C302 C 0.13547 0.12667 0.44365 0.0
C303 C 0.20342 0.16758 0.47423 0.0
C304 C 0.18056 0.14703 0.47335 0.0
C305 C 0.10576 0.09815 0.48013 0.0
C306 C 0.13316 0.11236 0.47558 0.0
H307 H 0.27301 0.18185 0.51497 0.0
H308 H 0.23782 0.14649 0.50824 0.0
H309 H 0.15991 0.15454 0.41748 0.0
H310 H 0.03379 0.11247 0.48378 0.0
H311 H 0.07665 0.12889 0.45844 0.0
C312 C 0.36186 0.76272 0.07242 0.0
C313 C 0.33596 0.76358 0.08891 0.0
C314 C 0.38042 0.74132 0.077 0.0
C315 C 0.39397 0.67985 0.13048 0.0
H316 H 0.42914 0.65929 0.04457 0.0
C317 C 0.42088 0.57634 0.09047 0.0
C318 C 0.44494 0.57232 0.07119 0.0
C319 C 0.41492 0.60082 0.10329 0.0
C320 C 0.42004 0.66498 0.06915 0.0
H321 H 0.30921 0.74289 0.12337 0.0
H322 H 0.34067 0.70505 0.13005 0.0
H323 H 0.40337 0.69985 0.04423 0.0
H324 H 0.48262 0.59021 0.05197 0.0
H325 H 0.47243 0.63299 0.07461 0.0
H326 H 0.40917 0.64378 0.15412 0.0
C327 C 0.34742 0.72115 0.11457 0.0
C328 C 0.40518 0.68838 0.06901 0.0
C329 C 0.32918 0.74278 0.11054 0.0
C330 C 0.46441 0.59265 0.0677 0.0
C331 C 0.45829 0.61722 0.08013 0.0
C332 C 0.40848 0.65619 0.13034 0.0
C333 C 0.3732 0.71995 0.09755 0.0
C334 C 0.39145 0.69603 0.0994 0.0
C335 C 0.43259 0.62179 0.09626 0.0
C336 C 0.42131 0.64834 0.09944 0.0
H337 H 0.36782 0.77867 0.05602 0.0
H338 H 0.40035 0.74154 0.06418 0.0
H339 H 0.38432 0.68522 0.15476 0.0
H340 H 0.40514 0.56109 0.0926 0.0
H341 H 0.39485 0.60372 0.11536 0.0
C342 C 0.77567 0.84399 0.59174 0.0
C343 C 0.78038 0.82122 0.61218 0.0
C344 C 0.79703 0.86335 0.59501 0.0
C345 C 0.87647 0.87193 0.61666 0.0
H346 H 0.8578 0.94441 0.61784 0.0
C347 C 0.96542 0.94291 0.59333 0.0
C348 C 0.95608 0.96119 0.56631 0.0
C349 C 0.94488 0.93029 0.61191 0.0
C350 C 0.86344 0.92426 0.61744 0.0
H351 H 0.81114 0.80105 0.6523 0.0
H352 H 0.84847 0.83476 0.6578 0.0
H353 H 0.81927 0.91268 0.62288 0.0
H354 H 0.91871 0.98244 0.5397 0.0
H355 H 0.88273 0.96025 0.57114 0.0
H356 H 0.91993 0.883 0.60896 0.0
C357 C 0.8282 0.83766 0.63936 0.0
C358 C 0.84133 0.9061 0.62035 0.0
C359 C 0.80675 0.81842 0.63635 0.0
C360 C 0.92644 0.96869 0.56096 0.0
C361 C 0.90578 0.95577 0.57898 0.0
C362 C 0.89843 0.89 0.6133 0.0
C363 C 0.8237 0.86026 0.61851 0.0
C364 C 0.84751 0.87972 0.61928 0.0
C365 C 0.91451 0.9352 0.60288 0.0
C366 C 0.89217 0.91646 0.61287 0.0
H367 H 0.75547 0.84682 0.57314 0.0
H368 H 0.79304 0.88042 0.57829 0.0
H369 H 0.88189 0.85177 0.61529 0.0
H370 H 0.98818 0.93664 0.59755 0.0
H371 H 0.95261 0.91523 0.6311 0.0
C372 C 0.68101 0.29996 0.95894 0.0
C373 C 0.6747 0.28083 0.98372 0.0
C374 C 0.66433 0.3225 0.95488 0.0
C375 C 0.59393 0.35226 0.97058 0.0
H376 H 0.63988 0.41465 0.98505 0.0
C377 C 0.54894 0.44604 0.02405 0.0
C378 C 0.56412 0.46899 0.02012 0.0
C379 C 0.55734 0.42345 0.00761 0.0
C380 C 0.62641 0.39766 0.9798 0.0
H381 H 0.64519 0.2699 0.02251 0.0
H382 H 0.61589 0.30927 0.01521 0.0
H383 H 0.66463 0.37405 0.98007 0.0
H384 H 0.5977 0.48718 0.99309 0.0
H385 H 0.61089 0.44836 0.96189 0.0
H386 H 0.55563 0.37582 0.97041 0.0
C387 C 0.63378 0.3068 0.99899 0.0
C388 C 0.64079 0.37424 0.97725 0.0
C389 C 0.65073 0.28439 0.00345 0.0
C390 C 0.58543 0.46973 0.99612 0.0
C391 C 0.5934 0.44729 0.97895 0.0
C392 C 0.57942 0.3758 0.97251 0.0
C393 C 0.64071 0.32629 0.97512 0.0
C394 C 0.62482 0.35122 0.97352 0.0
C395 C 0.58098 0.42348 0.98665 0.0
C396 C 0.59551 0.39884 0.97813 0.0
H397 H 0.69943 0.29784 0.94351 0.0
H398 H 0.67013 0.33715 0.9362 0.0
H399 H 0.58102 0.33481 0.96725 0.0
H400 H 0.53284 0.44494 0.04312 0.0
H401 H 0.5471 0.40571 0.01441 0.0
C402 C 0.19743 0.94832 0.25209 0.0
C403 C 0.20279 0.92174 0.25215 0.0
C404 C 0.18696 0.96018 0.2821 0.0
C405 C 0.1786 0.95056 0.38071 0.0
H406 H 0.1124 0.99694 0.35969 0.0
C407 C 0.09195 0.96563 0.47755 0.0
C408 C 0.07677 0.98901 0.47747 0.0
C409 C 0.11398 0.96213 0.45516 0.0
C410 C 0.13132 0.98454 0.36624 0.0
H411 H 0.20107 0.88687 0.28398 0.0
H412 H 0.18302 0.90748 0.33613 0.0
H413 H 0.13757 0.98145 0.30955 0.0
H414 H 0.07359 0.02746 0.45521 0.0
H415 H 0.11268 0.0216 0.41649 0.0
H416 H 0.17171 0.95299 0.43727 0.0
C417 C 0.18739 0.91927 0.31318 0.0
C418 C 0.14572 0.97556 0.33739 0.0
C419 C 0.19774 0.90742 0.28318 0.0
C420 C 0.08545 0.00946 0.4565 0.0
C421 C 0.10746 0.00592 0.43383 0.0
C422 C 0.16424 0.95957 0.40956 0.0
C423 C 0.18171 0.94577 0.31297 0.0
C424 C 0.16898 0.95788 0.34413 0.0
C425 C 0.12116 0.98187 0.43184 0.0
C426 C 0.13987 0.97609 0.40256 0.0
H427 H 0.20149 0.96003 0.22892 0.0
H428 H 0.18308 0.98066 0.28119 0.0
H429 H 0.19685 0.93738 0.38695 0.0
H430 H 0.08547 0.94949 0.49322 0.0
H431 H 0.12377 0.94329 0.45416 0.0
C432 C 0.61704 0.66672 0.74109 0.0
C433 C 0.6227 0.65155 0.71108 0.0
C434 C 0.6066 0.65561 0.77154 0.0
C435 C 0.59891 0.59375 0.81917 0.0
H436 H 0.53408 0.62818 0.85671 0.0
C437 C 0.54785 0.55781 0.94692 0.0
C438 C 0.51688 0.55797 0.94349 0.0
C439 C 0.56256 0.56951 0.9202 0.0
C440 C 0.55213 0.61829 0.8465 0.0
H441 H 0.62282 0.61262 0.69023 0.0
H442 H 0.60421 0.59328 0.74313 0.0
H443 H 0.55678 0.64777 0.80721 0.0
H444 H 0.47722 0.57063 0.90903 0.0
H445 H 0.50276 0.59082 0.86276 0.0
H446 H 0.59368 0.56395 0.85801 0.0
C447 C 0.608 0.61377 0.7432 0.0
C448 C 0.56537 0.62966 0.81839 0.0
C449 C 0.61834 0.6249 0.71268 0.0
C450 C 0.50105 0.57011 0.91272 0.0
C451 C 0.51572 0.58188 0.88623 0.0
C452 C 0.58572 0.58242 0.84748 0.0
C453 C 0.60165 0.62903 0.7728 0.0
C454 C 0.58873 0.61743 0.8041 0.0
C455 C 0.54663 0.58179 0.88963 0.0
C456 C 0.56193 0.59442 0.86115 0.0
H457 H 0.61993 0.68732 0.74066 0.0
H458 H 0.60224 0.66788 0.79405 0.0
H459 H 0.61704 0.58395 0.80902 0.0
H460 H 0.56078 0.5486 0.97019 0.0
H461 H 0.5864 0.56924 0.92371 0.0
C462 C 0.84911 0.14038 0.18552 0.0
C463 C 0.83873 0.12278 0.15763 0.0
C464 C 0.8613 0.13177 0.22054 0.0
C465 C 0.90298 0.10617 0.28315 0.0
H466 H 0.86695 0.04848 0.32651 0.0
C467 C 0.95161 0.06082 0.42412 0.0
C468 C 0.95214 0.03382 0.42471 0.0
C469 C 0.93623 0.07401 0.39407 0.0
C470 C 0.87742 0.06451 0.31473 0.0
H471 H 0.83223 0.08239 0.14508 0.0
H472 H 0.85348 0.06743 0.20576 0.0
H473 H 0.8428 0.06717 0.26947 0.0
H474 H 0.93665 0.9997 0.39391 0.0
H475 H 0.91039 0.02248 0.34214 0.0
H476 H 0.93799 0.10305 0.32814 0.0
C477 C 0.85222 0.08788 0.20074 0.0
C478 C 0.86354 0.07524 0.28201 0.0
C479 C 0.8403 0.09645 0.16578 0.0
C480 C 0.9368 0.02046 0.39467 0.0
C481 C 0.92144 0.03356 0.36493 0.0
C482 C 0.91696 0.09536 0.31597 0.0
C483 C 0.86301 0.10539 0.22854 0.0
C484 C 0.87644 0.09584 0.26534 0.0
C485 C 0.92087 0.06049 0.36416 0.0
C486 C 0.90467 0.074 0.33169 0.0
H487 H 0.84836 0.16079 0.18004 0.0
H488 H 0.86926 0.14576 0.2414 0.0
H489 H 0.91359 0.12194 0.27094 0.0
H490 H 0.9632 0.07176 0.4467 0.0
H491 H 0.93614 0.09477 0.39443 0.0
C492 C 0.41712 0.35063 0.72759 0.0
C493 C 0.38844 0.34057 0.7199 0.0
C494 C 0.42745 0.36048 0.7625 0.0
C495 C 0.39971 0.38926 0.84258 0.0
H496 H 0.47997 0.38117 0.89044 0.0
C497 C 0.43522 0.44118 0.97776 0.0
C498 C 0.46194 0.45459 0.98002 0.0
C499 C 0.42856 0.42187 0.95155 0.0
C500 C 0.45752 0.3837 0.87739 0.0
H501 H 0.3484 0.33258 0.74332 0.0
H502 H 0.3665 0.3495 0.80422 0.0
H503 H 0.46365 0.35821 0.83299 0.0
H504 H 0.50354 0.4572 0.95845 0.0
H505 H 0.49178 0.4238 0.91203 0.0
H506 H 0.3936 0.41536 0.88569 0.0
C507 C 0.38094 0.34993 0.78314 0.0
C508 C 0.44817 0.37054 0.84446 0.0
C509 C 0.37065 0.34001 0.74829 0.0
C510 C 0.48295 0.44689 0.95764 0.0
C511 C 0.47608 0.42779 0.93088 0.0
C512 C 0.40904 0.40247 0.87522 0.0
C513 C 0.40931 0.36063 0.79054 0.0
C514 C 0.41917 0.37331 0.82656 0.0
C515 C 0.44817 0.41593 0.92633 0.0
C516 C 0.4381 0.40002 0.89307 0.0
H517 H 0.43155 0.35106 0.70649 0.0
H518 H 0.44933 0.36874 0.76716 0.0
H519 H 0.37742 0.39229 0.8292 0.0
H520 H 0.4187 0.44673 0.99482 0.0
H521 H 0.40727 0.41258 0.94974 0.0
C522 C 0.63871 0.69061 0.35301 0.0
C523 C 0.62126 0.69382 0.38143 0.0
C524 C 0.62649 0.68097 0.31866 0.0
C525 C 0.56344 0.64231 0.27504 0.0
H526 H 0.59193 0.66331 0.18472 0.0
C527 C 0.5237 0.59079 0.13878 0.0
C528 C 0.54695 0.58185 0.12083 0.0
C529 C 0.52869 0.60984 0.16593 0.0
C530 C 0.58368 0.65729 0.20969 0.0
H531 H 0.57698 0.69036 0.39549 0.0
H532 H 0.55556 0.67383 0.33551 0.0
H533 H 0.60872 0.68593 0.24212 0.0
H534 H 0.59304 0.58698 0.11531 0.0
H535 H 0.60172 0.62023 0.16224 0.0
H536 H 0.53892 0.61334 0.24284 0.0
C537 C 0.57886 0.67823 0.33996 0.0
C538 C 0.59342 0.67016 0.24266 0.0
C539 C 0.59113 0.68773 0.37437 0.0
C540 C 0.57467 0.59365 0.12853 0.0
C541 C 0.57961 0.61276 0.15542 0.0
C542 C 0.55361 0.62954 0.24208 0.0
C543 C 0.59644 0.67441 0.31175 0.0
C544 C 0.58393 0.66248 0.27595 0.0
C545 C 0.55701 0.62032 0.17554 0.0
C546 C 0.56408 0.6365 0.20913 0.0
H547 H 0.66207 0.69481 0.35766 0.0
H548 H 0.64087 0.6779 0.29792 0.0
H549 H 0.55592 0.63556 0.3001 0.0
H550 H 0.50232 0.58163 0.1341 0.0
H551 H 0.51073 0.61544 0.18066 0.0
C552 C 0.80798 0.13709 0.78803 0.0
C553 C 0.80479 0.12194 0.81896 0.0
C554 C 0.81966 0.12678 0.75794 0.0
C555 C 0.8385 0.06582 0.71333 0.0
H556 H 0.89272 0.11019 0.6708 0.0
C557 C 0.92327 0.03367 0.61618 0.0
C558 C 0.93038 0.05194 0.59066 0.0
C559 C 0.90235 0.03944 0.63968 0.0
C560 C 0.87723 0.09763 0.68181 0.0
H561 H 0.81077 0.08361 0.8417 0.0
H562 H 0.83218 0.06583 0.78959 0.0
H563 H 0.86847 0.12575 0.72119 0.0
H564 H 0.91908 0.08907 0.56658 0.0
H565 H 0.88182 0.09866 0.60615 0.0
H566 H 0.84826 0.0374 0.67413 0.0
C567 C 0.82517 0.08567 0.78849 0.0
C568 C 0.86329 0.1066 0.71086 0.0
C569 C 0.81325 0.09598 0.81863 0.0
C570 C 0.914 0.0747 0.58611 0.0
C571 C 0.89295 0.0803 0.60911 0.0
C572 C 0.85267 0.05675 0.68415 0.0
C573 C 0.82888 0.10105 0.75795 0.0
C574 C 0.84358 0.09094 0.72693 0.0
C575 C 0.88821 0.06348 0.63769 0.0
C576 C 0.87204 0.07267 0.66787 0.0
H577 H 0.80213 0.15721 0.7873 0.0
H578 H 0.82169 0.13913 0.73469 0.0
H579 H 0.82334 0.05327 0.72493 0.0
H580 H 0.93588 0.0161 0.62047 0.0
H581 H 0.89915 0.02602 0.66131 0.0
C582 C 0.41861 0.40288 0.3979 0.0
C583 C 0.39112 0.39042 0.39363 0.0
C584 C 0.42933 0.41429 0.36793 0.0
C585 C 0.45643 0.4235 0.29908 0.0
H586 H 0.40486 0.45251 0.21705 0.0
C587 C 0.50359 0.45611 0.16969 0.0
C588 C 0.49151 0.47782 0.15079 0.0
C589 C 0.48963 0.44483 0.19721 0.0
C590 C 0.41968 0.44479 0.23988 0.0
H591 H 0.35313 0.3809 0.35378 0.0
H592 H 0.3727 0.3992 0.30122 0.0
H593 H 0.38402 0.43585 0.26985 0.0
H594 H 0.45509 0.50459 0.14533 0.0
H595 H 0.43134 0.48578 0.1948 0.0
H596 H 0.49219 0.43376 0.27052 0.0
C597 C 0.38567 0.40082 0.32807 0.0
C598 C 0.40763 0.4348 0.27005 0.0
C599 C 0.37463 0.38985 0.35829 0.0
C600 C 0.4648 0.48777 0.15942 0.0
C601 C 0.45114 0.47685 0.18769 0.0
C602 C 0.46847 0.4339 0.26939 0.0
C603 C 0.41331 0.41306 0.3324 0.0
C604 C 0.42585 0.42395 0.30011 0.0
C605 C 0.4636 0.4554 0.20737 0.0
C606 C 0.45033 0.44454 0.23914 0.0
H607 H 0.43235 0.40347 0.42433 0.0
H608 H 0.45035 0.42402 0.37281 0.0
H609 H 0.4713 0.4149 0.32113 0.0
H610 H 0.52393 0.44779 0.16318 0.0
H611 H 0.49948 0.42786 0.21063 0.0
C612 C 0.16777 0.94586 0.90585 0.0
C613 C 0.16983 0.91953 0.91391 0.0
C614 C 0.15576 0.95437 0.8709 0.0
C615 C 0.10551 0.93546 0.78829 0.0
H616 H 0.14 0.99419 0.74546 0.0
C617 C 0.05631 0.98038 0.64722 0.0
C618 C 0.05501 0.00736 0.64672 0.0
C619 C 0.07182 0.96741 0.67738 0.0
C620 C 0.12996 0.97786 0.75709 0.0
H621 H 0.16104 0.88146 0.89131 0.0
H622 H 0.14001 0.89638 0.82995 0.0
H623 H 0.16459 0.97569 0.8024 0.0
H624 H 0.06917 0.04168 0.67784 0.0
H625 H 0.0957 0.01927 0.72983 0.0
H626 H 0.0705 0.93806 0.7432 0.0
C627 C 0.14763 0.91041 0.85089 0.0
C628 C 0.14409 0.96724 0.78976 0.0
C629 C 0.1599 0.90187 0.88591 0.0
C630 C 0.06964 0.02094 0.67701 0.0
C631 C 0.08514 0.00805 0.70686 0.0
C632 C 0.09129 0.94615 0.75551 0.0
C633 C 0.14537 0.9368 0.843 0.0
C634 C 0.13174 0.94627 0.80624 0.0
C635 C 0.08655 0.98114 0.7075 0.0
C636 C 0.10302 0.96786 0.73998 0.0
H637 H 0.17549 0.95997 0.92664 0.0
H638 H 0.15407 0.97482 0.86598 0.0
H639 H 0.0953 0.9194 0.80035 0.0
H640 H 0.04525 0.96928 0.62445 0.0
H641 H 0.07255 0.94667 0.67693 0.0
loop_
_geom_bond_atom_site_label_1
_geom_bond_atom_site_label_2
_geom_bond_distance
_geom_bond_site_symmetry_2
_ccdc_geom_bond_type
C0 C1 1.391 . S
C0 C4 1.391 . S
C0 H42 0.948 . S
C1 C0 1.391 . S
C1 C2 1.391 . S
C2 C1 1.391 . S
C2 H58 0.947 . S
C2 C59 1.392 1_556 S
C3 C4 1.391 1_554 S
C3 C7 1.397 . S
C3 C59 1.419 . S
C4 C0 1.391 . S
C4 C3 1.391 1_556 S
C4 C5 1.399 1_556 S
C5 C4 1.399 1_554 S
C5 C8 1.396 . S
C5 C17 1.453 1_554 S
C5 C18 1.684 1_554 S
H6 C30 0.948 . S
C7 C3 1.397 . S
C7 C8 1.394 . S
C7 C26 1.723 . S
C8 C5 1.396 . S
C8 C7 1.394 . S
C8 C38 1.723 . S
H9 C32 0.947 . S
H10 C33 0.948 . S
H11 C39 0.982 . S
H12 C40 0.979 . S
H13 C40 0.980 . S
H14 C40 0.983 . S
H15 C39 0.979 . S
H16 C39 0.977 . S
C17 C5 1.453 1_556 S
C17 H46 0.982 1_556 S
C17 H47 0.979 . S
C17 H48 0.977 1_556 S
C18 C5 1.684 1_556 S
C18 H43 0.979 . S
C18 H44 0.980 . S
C18 H45 0.983 . S
C19 C20 1.391 . S
C19 C24 1.391 . S
C19 H49 0.948 . S
C20 C19 1.391 . S
C20 C21 1.391 . S
C21 C20 1.391 . S
C21 C22 1.392 . S
C21 H50 0.947 . S
C22 C21 1.392 . S
C22 C23 1.419 . S
C22 H51 0.948 . S
C23 C22 1.419 . S
C23 C24 1.391 . S
C23 C27 1.397 . S
C24 C19 1.391 . S
C24 C23 1.391 . S
C24 C25 1.399 . S
C25 C24 1.399 . S
C25 C26 1.396 . S
C25 C28 1.453 . S
C25 C29 1.684 . S
C26 C7 1.723 . S
C26 C25 1.396 . S
C26 C27 1.394 . S
C27 C23 1.397 . S
C27 C26 1.394 . S
C27 C37 1.723 . S
C28 C25 1.453 . S
C28 H52 0.982 . S
C28 H53 0.979 . S
C28 H54 0.977 . S
C29 C25 1.684 . S
C29 H55 0.979 . S
C29 H56 0.980 . S
C29 H57 0.983 . S
C30 H6 0.948 . S
C30 C31 1.391 . S
C30 C35 1.391 . S
C31 C30 1.391 . S
C31 C32 1.391 . S
C32 H9 0.947 . S
C32 C31 1.391 . S
C32 C33 1.392 . S
C33 H10 0.948 . S
C33 C32 1.392 . S
C33 C34 1.419 . S
C34 C33 1.419 . S
C34 C35 1.391 . S
C34 C38 1.397 . S
C35 C30 1.391 . S
C35 C34 1.391 . S
C35 C36 1.399 . S
C36 C35 1.399 . S
C36 C37 1.396 . S
C36 C39 1.453 . S
C36 C40 1.684 . S
C37 C27 1.723 . S
C37 C36 1.396 . S
C37 C38 1.394 . S
C38 C8 1.723 . S
C38 C34 1.397 . S
C38 C37 1.394 . S
C39 H11 0.982 . S
C39 H15 0.979 . S
C39 H16 0.977 . S
C39 C36 1.453 . S
C40 H12 0.979 . S
C40 H13 0.980 . S
C40 H14 0.983 . S
C40 C36 1.684 . S
H41 C59 0.948 . S
H42 C0 0.948 . S
H43 C18 0.979 . S
H44 C18 0.980 . S
H45 C18 0.983 . S
H46 C17 0.982 1_554 S
H47 C17 0.979 . S
H48 C17 0.977 1_554 S
H49 C19 0.948 . S
H50 C21 0.947 . S
H51 C22 0.948 . S
H52 C28 0.982 . S
H53 C28 0.979 . S
H54 C28 0.977 . S
H55 C29 0.979 . S
H56 C29 0.980 . S
H57 C29 0.983 . S
H58 C2 0.947 . S
C59 C2 1.392 1_554 S
C59 C3 1.419 . S
C59 H41 0.948 . S
C60 C61 1.391 . S
C60 C64 1.391 . S
C60 H102 0.948 . S
C61 C60 1.391 . S
C61 C62 1.391 . S
C62 C61 1.391 . S
C62 H118 0.947 . S
C62 C119 1.392 . S
C63 C64 1.391 . S
C63 C67 1.397 . S
C63 C119 1.419 . S
C64 C60 1.391 . S
C64 C63 1.391 . S
C64 C65 1.399 . S
C65 C64 1.399 . S
C65 C68 1.396 . S
C65 C77 1.453 . S
C65 C78 1.684 . S
H66 C90 0.948 . S
C67 C63 1.397 . S
C67 C68 1.394 . S
C67 C86 1.723 . S
C68 C65 1.396 . S
C68 C67 1.394 . S
C68 C98 1.723 . S
H69 C92 0.947 . S
H70 C93 0.948 . S
H71 C99 0.982 . S
H72 C100 0.979 . S
H73 C100 0.980 . S
H74 C100 0.983 . S
H75 C99 0.979 . S
H76 C99 0.977 . S
C77 C65 1.453 . S
C77 H106 0.982 . S
C77 H107 0.979 . S
C77 H108 0.977 . S
C78 C65 1.684 . S
C78 H103 0.979 . S
C78 H104 0.980 . S
C78 H105 0.983 . S
C79 C80 1.391 . S
C79 C84 1.391 . S
C79 H109 0.948 . S
C80 C79 1.391 . S
C80 C81 1.391 . S
C81 C80 1.391 . S
C81 C82 1.392 . S
C81 H110 0.947 . S
C82 C81 1.392 . S
C82 C83 1.419 . S
C82 H111 0.948 . S
C83 C82 1.419 . S
C83 C84 1.391 . S
C83 C87 1.397 . S
C84 C79 1.391 . S
C84 C83 1.391 . S
C84 C85 1.399 . S
C85 C84 1.399 . S
C85 C86 1.396 . S
C85 C88 1.453 . S
C85 C89 1.684 . S
C86 C67 1.723 . S
C86 C85 1.396 . S
C86 C87 1.394 . S
C87 C83 1.397 . S
C87 C86 1.394 . S
C87 C97 1.723 . S
C88 C85 1.453 . S
C88 H112 0.982 . S
C88 H113 0.979 . S
C88 H114 0.977 . S
C89 C85 1.684 . S
C89 H115 0.979 . S
C89 H116 0.980 . S
C89 H117 0.983 . S
C90 H66 0.948 . S
C90 C91 1.391 . S
C90 C95 1.391 . S
C91 C90 1.391 . S
C91 C92 1.391 . S
C92 H69 0.947 . S
C92 C91 1.391 . S
C92 C93 1.392 . S
C93 H70 0.948 . S
C93 C92 1.392 . S
C93 C94 1.419 . S
C94 C93 1.419 . S
C94 C95 1.391 . S
C94 C98 1.397 . S
C95 C90 1.391 . S
C95 C94 1.391 . S
C95 C96 1.399 . S
C96 C95 1.399 . S
C96 C97 1.396 . S
C96 C99 1.453 . S
C96 C100 1.684 . S
C97 C87 1.723 . S
C97 C96 1.396 . S
C97 C98 1.394 . S
C98 C68 1.723 . S
C98 C94 1.397 . S
C98 C97 1.394 . S
C99 H71 0.982 . S
C99 H75 0.979 . S
C99 H76 0.977 . S
C99 C96 1.453 . S
C100 H72 0.979 . S
C100 H73 0.980 . S
C100 H74 0.983 . S
C100 C96 1.684 . S
H101 C119 0.948 . S
H102 C60 0.948 . S
H103 C78 0.979 . S
H104 C78 0.980 . S
H105 C78 0.983 . S
H106 C77 0.982 . S
H107 C77 0.979 . S
H108 C77 0.977 . S
H109 C79 0.948 . S
H110 C81 0.947 . S
H111 C82 0.948 . S
H112 C88 0.982 . S
H113 C88 0.979 . S
H114 C88 0.977 . S
H115 C89 0.979 . S
H116 C89 0.980 . S
H117 C89 0.983 . S
H118 C62 0.947 . S
C119 C62 1.392 . S
C119 C63 1.419 . S
C119 H101 0.948 . S
C120 C121 1.391 . S
C120 C124 1.391 . S
C120 H162 0.948 . S
C121 C120 1.391 . S
C121 C122 1.391 . S
C122 C121 1.391 . S
C122 H178 0.947 . S
C122 C179 1.392 . S
C123 C124 1.391 . S
C123 C127 1.397 . S
C123 C179 1.419 . S
C124 C120 1.391 . S
C124 C123 1.391 . S
C124 C125 1.399 . S
C125 C124 1.399 . S
C125 C128 1.396 . S
C125 C137 1.453 . S
C125 C138 1.684 . S
H126 C150 0.948 . S
C127 C123 1.397 . S
C127 C128 1.394 . S
C127 C146 1.723 1_554 S
C128 C125 1.396 . S
C128 C127 1.394 . S
C128 C158 1.723 . S
H129 C152 0.947 . S
H130 C153 0.948 . S
H131 C159 0.982 . S
H132 C160 0.979 . S
H133 C160 0.980 . S
H134 C160 0.983 . S
H135 C159 0.979 . S
H136 C159 0.977 . S
C137 C125 1.453 . S
C137 H166 0.982 . S
C137 H167 0.979 . S
C137 H168 0.977 . S
C138 C125 1.684 . S
C138 H163 0.979 . S
C138 H164 0.980 . S
C138 H165 0.983 . S
C139 C140 1.391 . S
C139 C144 1.391 . S
C139 H169 0.948 . S
C140 C139 1.391 . S
C140 C141 1.391 . S
C141 C140 1.391 . S
C141 C142 1.392 . S
C141 H170 0.947 . S
C142 C141 1.392 . S
C142 C143 1.419 . S
C142 H171 0.948 . S
C143 C142 1.419 . S
C143 C144 1.391 . S
C143 C147 1.397 . S
C144 C139 1.391 . S
C144 C143 1.391 . S
C144 C145 1.399 . S
C145 C144 1.399 . S
C145 C146 1.396 . S
C145 C148 1.453 . S
C145 C149 1.684 . S
C146 C127 1.723 1_556 S
C146 C145 1.396 . S
C146 C147 1.394 . S
C147 C143 1.397 . S
C147 C146 1.394 . S
C147 C157 1.723 . S
C148 C145 1.453 . S
C148 H172 0.982 . S
C148 H173 0.979 . S
C148 H174 0.977 1_556 S
C149 C145 1.684 . S
C149 H175 0.979 . S
C149 H176 0.980 1_556 S
C149 H177 0.983 . S
C150 H126 0.948 . S
C150 C151 1.394 1_556 S
C150 C155 1.391 . S
C151 C150 1.394 1_554 S
C151 C152 1.389 . S
C152 H129 0.947 . S
C152 C151 1.389 . S
C152 C153 1.392 . S
C153 H130 0.948 . S
C153 C152 1.392 . S
C153 C154 1.419 . S
C154 C153 1.419 . S
C154 C155 1.391 1_554 S
C154 C158 1.397 . S
C155 C150 1.391 . S
C155 C154 1.391 1_556 S
C155 C156 1.399 . S
C156 C155 1.399 . S
C156 C157 1.396 . S
C156 C159 1.453 . S
C156 C160 1.684 . S
C157 C147 1.723 . S
C157 C156 1.396 . S
C157 C158 1.394 1_556 S
C158 C128 1.723 . S
C158 C154 1.397 . S
C158 C157 1.394 1_554 S
C159 H131 0.982 . S
C159 H135 0.979 . S
C159 H136 0.977 . S
C159 C156 1.453 . S
C160 H132 0.979 . S
C160 H133 0.980 . S
C160 H134 0.983 . S
C160 C156 1.684 . S
H161 C179 0.948 . S
H162 C120 0.948 . S
H163 C138 0.979 . S
H164 C138 0.980 . S
H165 C138 0.983 . S
H166 C137 0.982 . S
H167 C137 0.979 . S
H168 C137 0.977 . S
H169 C139 0.948 . S
H170 C141 0.947 . S
H171 C142 0.948 . S
H172 C148 0.982 . S
H173 C148 0.979 . S
H174 C148 0.977 1_554 S
H175 C149 0.979 . S
H176 C149 0.980 1_554 S
H177 C149 0.983 . S
H178 C122 0.947 . S
C179 C122 1.392 . S
C179 C123 1.419 . S
C179 H161 0.948 . S
C180 C181 1.391 . S
C180 C184 1.391 . S
C180 H222 0.948 . S
C181 C180 1.391 . S
C181 C182 1.391 . S
C182 C181 1.391 . S
C182 H238 0.947 . S
C182 C239 1.392 . S
C183 C184 1.391 . S
C183 C187 1.397 . S
C183 C239 1.419 . S
C184 C180 1.391 . S
C184 C183 1.391 . S
C184 C185 1.399 . S
C185 C184 1.399 . S
C185 C188 1.396 . S
C185 C197 1.453 . S
C185 C198 1.684 . S
H186 C210 0.948 . S
C187 C183 1.397 . S
C187 C188 1.394 . S
C187 C206 1.723 . S
C188 C185 1.396 . S
C188 C187 1.394 . S
C188 C218 1.723 . S
H189 C212 0.947 . S
H190 C213 0.948 . S
H191 C219 0.982 . S
H192 C220 0.979 . S
H193 C220 0.980 . S
H194 C220 0.983 . S
H195 C219 0.979 . S
H196 C219 0.977 . S
C197 C185 1.453 . S
C197 H226 0.982 . S
C197 H227 0.979 . S
C197 H228 0.977 . S
C198 C185 1.684 . S
C198 H223 0.979 . S
C198 H224 0.980 . S
C198 H225 0.983 . S
C199 C200 1.391 . S
C199 C204 1.391 . S
C199 H229 0.948 . S
C200 C199 1.391 . S
C200 C201 1.391 . S
C201 C200 1.391 . S
C201 C202 1.392 . S
C201 H230 0.947 . S
C202 C201 1.392 . S
C202 C203 1.419 . S
C202 H231 0.948 . S
C203 C202 1.419 . S
C203 C204 1.391 . S
C203 C207 1.397 . S
C204 C199 1.391 . S
C204 C203 1.391 . S
C204 C205 1.399 . S
C205 C204 1.399 . S
C205 C206 1.396 . S
C205 C208 1.453 . S
C205 C209 1.684 . S
C206 C187 1.723 . S
C206 C205 1.396 . S
C206 C207 1.394 . S
C207 C203 1.397 . S
C207 C206 1.394 . S
C207 C217 1.723 . S
C208 C205 1.453 . S
C208 H232 0.982 . S
C208 H233 0.979 . S
C208 H234 0.977 . S
C209 C205 1.684 . S
C209 H235 0.979 . S
C209 H236 0.980 . S
C209 H237 0.983 . S
C210 H186 0.948 . S
C210 C211 1.391 . S
C210 C215 1.391 . S
C211 C210 1.391 . S
C211 C212 1.391 . S
C212 H189 0.947 . S
C212 C211 1.391 . S
C212 C213 1.392 . S
C213 H190 0.948 . S
C213 C212 1.392 . S
C213 C214 1.419 . S
C214 C213 1.419 . S
C214 C215 1.391 . S
C214 C218 1.397 . S
C215 C210 1.391 . S
C215 C214 1.391 . S
C215 C216 1.399 . S
C216 C215 1.399 . S
C216 C217 1.396 . S
C216 C219 1.453 . S
C216 C220 1.684 . S
C217 C207 1.723 . S
C217 C216 1.396 . S
C217 C218 1.394 . S
C218 C188 1.723 . S
C218 C214 1.397 . S
C218 C217 1.394 . S
C219 H191 0.982 . S
C219 H195 0.979 . S
C219 H196 0.977 . S
C219 C216 1.453 . S
C220 H192 0.979 . S
C220 H193 0.980 . S
C220 H194 0.983 . S
C220 C216 1.684 . S
H221 C239 0.948 . S
H222 C180 0.948 . S
H223 C198 0.979 . S
H224 C198 0.980 . S
H225 C198 0.983 . S
H226 C197 0.982 . S
H227 C197 0.979 . S
H228 C197 0.977 . S
H229 C199 0.948 . S
H230 C201 0.947 . S
H231 C202 0.948 . S
H232 C208 0.982 . S
H233 C208 0.979 . S
H234 C208 0.977 . S
H235 C209 0.979 . S
H236 C209 0.980 . S
H237 C209 0.983 . S
H238 C182 0.947 . S
C239 C182 1.392 . S
C239 C183 1.419 . S
C239 H221 0.948 . S
O240 Mn241 2.163 1_655 S
O240 C254 1.244 . S
Mn241 O240 2.163 1_455 S
Mn241 O244 2.160 1_545 S
Mn241 O245 2.221 . S
Mn241 O247 2.163 1_455 S
Mn241 O249 2.165 . S
Mn241 O259 2.221 1_445 S
O242 Mn243 2.087 1_545 S
O242 C254 1.256 . S
Mn243 O242 2.087 1_565 S
Mn243 O250 2.089 1_655 S
Mn243 O259 2.290 . S
Mn243 O260 2.251 . S
O244 Mn241 2.160 1_565 S
O244 C255 1.239 1_565 S
O245 Mn241 2.221 . S
O245 Mn246 2.290 . S
O245 C256 1.278 . S
Mn246 O245 2.290 . S
Mn246 O248 2.089 . S
Mn246 O251 2.251 . S
Mn246 O252 2.087 1_455 S
O247 Mn241 2.163 1_655 S
O247 C257 1.244 . S
O248 Mn246 2.089 . S
O248 C255 1.255 . S
O249 Mn241 2.165 . S
O249 C258 1.232 1_545 S
O250 Mn243 2.089 1_455 S
O250 C258 1.256 . S
O251 Mn246 2.251 . S
O251 C256 1.241 . S
O252 Mn246 2.087 1_655 S
O252 C257 1.256 . S
C253 O259 1.278 . S
C253 O260 1.241 . S
C254 O240 1.244 . S
C254 O242 1.256 . S
C255 O244 1.239 1_545 S
C255 O248 1.255 . S
C256 O245 1.278 . S
C256 O251 1.241 . S
C257 O247 1.244 . S
C257 O252 1.256 . S
C258 O249 1.232 1_565 S
C258 O250 1.256 . S
O259 Mn241 2.221 1_665 S
O259 Mn243 2.290 . S
O259 C253 1.278 . S
O260 Mn243 2.251 . S
O260 C253 1.241 . S
O261 Mn262 2.163 . S
O261 C275 1.244 . S
Mn262 O261 2.163 . S
Mn262 O265 2.160 1_554 S
Mn262 O266 2.221 . S
Mn262 O268 2.163 . S
Mn262 O270 2.160 . S
Mn262 O280 2.221 . S
O263 Mn264 2.087 . S
O263 C275 1.256 . S
Mn264 O263 2.087 . S
Mn264 O271 2.089 . S
Mn264 O280 2.290 . S
Mn264 O281 2.251 . S
O265 Mn262 2.160 1_556 S
O265 C276 1.239 . S
O266 Mn262 2.221 . S
O266 Mn267 2.290 1_554 S
O266 C277 1.278 . S
Mn267 O266 2.290 1_556 S
Mn267 O269 2.089 . S
Mn267 O272 2.251 1_556 S
Mn267 O273 2.087 . S
O268 Mn262 2.163 . S
O268 C278 1.244 1_554 S
O269 Mn267 2.089 . S
O269 C276 1.256 . S
O270 Mn262 2.160 . S
O270 C279 1.239 . S
O271 Mn264 2.089 . S
O271 C279 1.256 . S
O272 Mn267 2.251 1_554 S
O272 C277 1.241 . S
O273 Mn267 2.087 . S
O273 C278 1.256 . S
C274 O280 1.278 . S
C274 O281 1.241 . S
C275 O261 1.244 . S
C275 O263 1.256 . S
C276 O265 1.239 . S
C276 O269 1.256 . S
C277 O266 1.278 . S
C277 O272 1.241 . S
C278 O268 1.244 1_556 S
C278 O273 1.256 . S
C279 O270 1.239 . S
C279 O271 1.256 . S
O280 Mn262 2.221 . S
O280 Mn264 2.290 . S
O280 C274 1.278 . S
O281 Mn264 2.251 . S
O281 C274 1.241 . S
C282 C283 1.349 . S
C282 C284 1.327 . S
C282 H307 0.950 . S
C283 C282 1.349 . S
C283 C299 1.349 . S
C284 C282 1.327 . S
C284 C303 1.429 . S
C284 H308 0.950 . S
C285 C302 1.574 . S
C285 C304 1.368 . S
C285 H309 0.949 . S
H286 C290 0.949 . S
C287 C288 1.349 . S
C287 C289 1.327 . S
C287 H310 0.950 . S
C288 C287 1.349 . S
C288 C300 1.349 . S
C289 C287 1.327 . S
C289 C305 1.429 . S
C289 H311 0.950 . S
C290 H286 0.949 . S
C290 C298 1.574 . S
C290 C306 1.368 . S
H291 C299 0.950 . S
H292 C297 0.950 . S
H293 C298 0.949 . S
H294 C300 0.950 . S
H295 C301 0.950 . S
H296 C302 0.949 . S
C297 H292 0.950 . S
C297 C299 1.327 . S
C297 C303 1.429 . S
C298 C290 1.574 . S
C298 H293 0.949 . S
C298 C304 1.368 . S
C299 C283 1.349 . S
C299 H291 0.950 . S
C299 C297 1.327 . S
C300 C288 1.349 . S
C300 H294 0.950 . S
C300 C301 1.327 . S
C301 H295 0.950 . S
C301 C300 1.327 . S
C301 C305 1.429 . S
C302 C285 1.574 . S
C302 H296 0.949 . S
C302 C306 1.368 . S
C303 C284 1.429 . S
C303 C297 1.429 . S
C303 C304 1.523 . S
C304 C285 1.368 . S
C304 C298 1.368 . S
C304 C303 1.523 . S
C305 C289 1.429 . S
C305 C301 1.429 . S
C305 C306 1.523 . S
C306 C290 1.368 . S
C306 C302 1.368 . S
C306 C305 1.523 . S
H307 C282 0.950 . S
H308 C284 0.950 . S
H309 C285 0.949 . S
H310 C287 0.950 . S
H311 C289 0.950 . S
C312 C313 1.349 . S
C312 C314 1.327 . S
C312 H337 0.950 . S
C313 C312 1.349 . S
C313 C329 1.349 . S
C314 C312 1.327 . S
C314 C333 1.429 . S
C314 H338 0.950 . S
C315 C332 1.574 . S
C315 C334 1.368 . S
C315 H339 0.949 . S
H316 C320 0.949 . S
C317 C318 1.349 . S
C317 C319 1.327 . S
C317 H340 0.950 . S
C318 C317 1.349 . S
C318 C330 1.349 . S
C319 C317 1.327 . S
C319 C335 1.429 . S
C319 H341 0.950 . S
C320 H316 0.949 . S
C320 C328 1.574 . S
C320 C336 1.368 . S
H321 C329 0.950 . S
H322 C327 0.950 . S
H323 C328 0.949 . S
H324 C330 0.950 . S
H325 C331 0.950 . S
H326 C332 0.949 . S
C327 H322 0.950 . S
C327 C329 1.327 . S
C327 C333 1.429 . S
C328 C320 1.574 . S
C328 H323 0.949 . S
C328 C334 1.368 . S
C329 C313 1.349 . S
C329 H321 0.950 . S
C329 C327 1.327 . S
C330 C318 1.349 . S
C330 H324 0.950 . S
C330 C331 1.327 . S
C331 H325 0.950 . S
C331 C330 1.327 . S
C331 C335 1.429 . S
C332 C315 1.574 . S
C332 H326 0.949 . S
C332 C336 1.368 . S
C333 C314 1.429 . S
C333 C327 1.429 . S
C333 C334 1.523 . S
C334 C315 1.368 . S
C334 C328 1.368 . S
C334 C333 1.523 . S
C335 C319 1.429 . S
C335 C331 1.429 . S
C335 C336 1.523 . S
C336 C320 1.368 . S
C336 C332 1.368 . S
C336 C335 1.523 . S
H337 C312 0.950 . S
H338 C314 0.950 . S
H339 C315 0.949 . S
H340 C317 0.950 . S
H341 C319 0.950 . S
C342 C343 1.349 . S
C342 C344 1.327 . S
C342 H367 0.950 . S
C343 C342 1.349 . S
C343 C359 1.349 . S
C344 C342 1.327 . S
C344 C363 1.429 . S
C344 H368 0.950 . S
C345 C362 1.574 . S
C345 C364 1.368 . S
C345 H369 0.949 . S
H346 C350 0.949 . S
C347 C348 1.349 . S
C347 C349 1.327 . S
C347 H370 0.950 . S
C348 C347 1.349 . S
C348 C360 1.349 . S
C349 C347 1.327 . S
C349 C365 1.429 . S
C349 H371 0.950 . S
C350 H346 0.949 . S
C350 C358 1.574 . S
C350 C366 1.368 . S
H351 C359 0.950 . S
H352 C357 0.950 . S
H353 C358 0.949 . S
H354 C360 0.950 . S
H355 C361 0.950 . S
H356 C362 0.949 . S
C357 H352 0.950 . S
C357 C359 1.327 . S
C357 C363 1.429 . S
C358 C350 1.574 . S
C358 H353 0.949 . S
C358 C364 1.368 . S
C359 C343 1.349 . S
C359 H351 0.950 . S
C359 C357 1.327 . S
C360 C348 1.349 . S
C360 H354 0.950 . S
C360 C361 1.327 . S
C361 H355 0.950 . S
C361 C360 1.327 . S
C361 C365 1.429 . S
C362 C345 1.574 . S
C362 H356 0.949 . S
C362 C366 1.368 . S
C363 C344 1.429 . S
C363 C357 1.429 . S
C363 C364 1.523 . S
C364 C345 1.368 . S
C364 C358 1.368 . S
C364 C363 1.523 . S
C365 C349 1.429 . S
C365 C361 1.429 . S
C365 C366 1.523 . S
C366 C350 1.368 . S
C366 C362 1.368 . S
C366 C365 1.523 . S
H367 C342 0.950 . S
H368 C344 0.950 . S
H369 C345 0.949 . S
H370 C347 0.950 . S
H371 C349 0.950 . S
C372 C373 1.349 1_554 S
C372 C374 1.327 . S
C372 H397 0.950 . S
C373 C372 1.349 1_556 S
C373 C389 1.349 . S
C374 C372 1.327 . S
C374 C393 1.429 . S
C374 H398 0.950 . S
C375 C392 1.574 . S
C375 C394 1.368 1_556 S
C375 H399 0.949 . S
H376 C380 0.949 . S
C377 C378 1.349 1_556 S
C377 C379 1.327 . S
C377 H400 0.950 . S
C378 C377 1.349 1_554 S
C378 C390 1.349 . S
C379 C377 1.327 . S
C379 C395 1.429 1_556 S
C379 H401 0.950 . S
C380 H376 0.949 . S
C380 C388 1.574 . S
C380 C396 1.368 . S
H381 C389 0.950 . S
H382 C387 0.950 . S
H383 C388 0.949 . S
H384 C390 0.950 . S
H385 C391 0.950 . S
H386 C392 0.949 . S
C387 H382 0.950 . S
C387 C389 1.327 . S
C387 C393 1.429 1_556 S
C388 C380 1.574 . S
C388 H383 0.949 . S
C388 C394 1.368 . S
C389 C373 1.349 . S
C389 H381 0.950 . S
C389 C387 1.327 . S
C390 C378 1.349 . S
C390 H384 0.950 . S
C390 C391 1.327 . S
C391 H385 0.950 . S
C391 C390 1.327 . S
C391 C395 1.429 . S
C392 C375 1.574 . S
C392 H386 0.949 . S
C392 C396 1.368 1_556 S
C393 C374 1.429 . S
C393 C387 1.429 1_554 S
C393 C394 1.523 . S
C394 C375 1.368 1_554 S
C394 C388 1.368 . S
C394 C393 1.523 . S
C395 C379 1.429 1_554 S
C395 C391 1.429 . S
C395 C396 1.523 . S
C396 C380 1.368 . S
C396 C392 1.368 1_554 S
C396 C395 1.523 . S
H397 C372 0.950 . S
H398 C374 0.950 . S
H399 C375 0.949 . S
H400 C377 0.950 . S
H401 C379 0.950 . S
C402 C403 1.349 . S
C402 C404 1.327 . S
C402 H427 0.950 . S
C403 C402 1.349 . S
C403 C419 1.349 . S
C404 C402 1.327 . S
C404 C423 1.429 . S
C404 H428 0.950 . S
C405 C422 1.574 . S
C405 C424 1.368 . S
C405 H429 0.949 . S
H406 C410 0.949 . S
C407 C408 1.349 . S
C407 C409 1.327 . S
C407 H430 0.950 . S
C408 C407 1.349 . S
C408 C420 1.349 1_565 S
C409 C407 1.327 . S
C409 C425 1.429 . S
C409 H431 0.950 . S
C410 H406 0.949 . S
C410 C418 1.574 . S
C410 C426 1.368 . S
H411 C419 0.950 . S
H412 C417 0.950 . S
H413 C418 0.949 . S
H414 C420 0.950 . S
H415 C421 0.950 1_545 S
H416 C422 0.949 . S
C417 H412 0.950 . S
C417 C419 1.327 . S
C417 C423 1.429 . S
C418 C410 1.574 . S
C418 H413 0.949 . S
C418 C424 1.368 . S
C419 C403 1.349 . S
C419 H411 0.950 . S
C419 C417 1.327 . S
C420 C408 1.349 1_545 S
C420 H414 0.950 . S
C420 C421 1.327 1_545 S
C421 H415 0.950 1_565 S
C421 C420 1.327 1_565 S
C421 C425 1.429 . S
C422 C405 1.574 . S
C422 H416 0.949 . S
C422 C426 1.368 . S
C423 C404 1.429 . S
C423 C417 1.429 . S
C423 C424 1.523 . S
C424 C405 1.368 . S
C424 C418 1.368 . S
C424 C423 1.523 . S
C425 C409 1.429 . S
C425 C421 1.429 . S
C425 C426 1.523 . S
C426 C410 1.368 . S
C426 C422 1.368 . S
C426 C425 1.523 . S
H427 C402 0.950 . S
H428 C404 0.950 . S
H429 C405 0.949 . S
H430 C407 0.950 . S
H431 C409 0.950 . S
C432 C433 1.349 . S
C432 C434 1.327 . S
C432 H457 0.950 . S
C433 C432 1.349 . S
C433 C449 1.349 . S
C434 C432 1.327 . S
C434 C453 1.429 . S
C434 H458 0.950 . S
C435 C452 1.574 . S
C435 C454 1.368 . S
C435 H459 0.949 . S
H436 C440 0.949 . S
C437 C438 1.349 . S
C437 C439 1.327 . S
C437 H460 0.950 . S
C438 C437 1.349 . S
C438 C450 1.349 . S
C439 C437 1.327 . S
C439 C455 1.429 . S
C439 H461 0.950 . S
C440 H436 0.949 . S
C440 C448 1.574 . S
C440 C456 1.368 . S
H441 C449 0.950 . S
H442 C447 0.950 . S
H443 C448 0.949 . S
H444 C450 0.950 . S
H445 C451 0.950 . S
H446 C452 0.949 . S
C447 H442 0.950 . S
C447 C449 1.327 . S
C447 C453 1.429 . S
C448 C440 1.574 . S
C448 H443 0.949 . S
C448 C454 1.368 . S
C449 C433 1.349 . S
C449 H441 0.950 . S
C449 C447 1.327 . S
C450 C438 1.349 . S
C450 H444 0.950 . S
C450 C451 1.327 . S
C451 H445 0.950 . S
C451 C450 1.327 . S
C451 C455 1.429 . S
C452 C435 1.574 . S
C452 H446 0.949 . S
C452 C456 1.368 . S
C453 C434 1.429 . S
C453 C447 1.429 . S
C453 C454 1.523 . S
C454 C435 1.368 . S
C454 C448 1.368 . S
C454 C453 1.523 . S
C455 C439 1.429 . S
C455 C451 1.429 . S
C455 C456 1.523 . S
C456 C440 1.368 . S
C456 C452 1.368 . S
C456 C455 1.523 . S
H457 C432 0.950 . S
H458 C434 0.950 . S
H459 C435 0.949 . S
H460 C437 0.950 . S
H461 C439 0.950 . S
C462 C463 1.349 . S
C462 C464 1.327 . S
C462 H487 0.950 . S
C463 C462 1.349 . S
C463 C479 1.349 . S
C464 C462 1.327 . S
C464 C483 1.429 . S
C464 H488 0.950 . S
C465 C482 1.574 . S
C465 C484 1.368 . S
C465 H489 0.949 . S
H466 C470 0.949 . S
C467 C468 1.349 . S
C467 C469 1.327 . S
C467 H490 0.950 . S
C468 C467 1.349 . S
C468 C480 1.349 . S
C469 C467 1.327 . S
C469 C485 1.429 . S
C469 H491 0.950 . S
C470 H466 0.949 . S
C470 C478 1.574 . S
C470 C486 1.368 . S
H471 C479 0.950 . S
H472 C477 0.950 . S
H473 C478 0.949 . S
H474 C480 0.950 . S
H475 C481 0.950 . S
H476 C482 0.949 . S
C477 H472 0.950 . S
C477 C479 1.327 . S
C477 C483 1.429 . S
C478 C470 1.574 . S
C478 H473 0.949 . S
C478 C484 1.368 . S
C479 C463 1.349 . S
C479 H471 0.950 . S
C479 C477 1.327 . S
C480 C468 1.349 . S
C480 H474 0.950 . S
C480 C481 1.327 . S
C481 H475 0.950 . S
C481 C480 1.327 . S
C481 C485 1.429 . S
C482 C465 1.574 . S
C482 H476 0.949 . S
C482 C486 1.368 . S
C483 C464 1.429 . S
C483 C477 1.429 . S
C483 C484 1.523 . S
C484 C465 1.368 . S
C484 C478 1.368 . S
C484 C483 1.523 . S
C485 C469 1.429 . S
C485 C481 1.429 . S
C485 C486 1.523 . S
C486 C470 1.368 . S
C486 C482 1.368 . S
C486 C485 1.523 . S
H487 C462 0.950 . S
H488 C464 0.950 . S
H489 C465 0.949 . S
H490 C467 0.950 . S
H491 C469 0.950 . S
C492 C493 1.349 . S
C492 C494 1.327 . S
C492 H517 0.950 . S
C493 C492 1.349 . S
C493 C509 1.349 . S
C494 C492 1.327 . S
C494 C513 1.429 . S
C494 H518 0.950 . S
C495 C512 1.574 . S
C495 C514 1.368 . S
C495 H519 0.949 . S
H496 C500 0.949 . S
C497 C498 1.349 . S
C497 C499 1.327 . S
C497 H520 0.950 . S
C498 C497 1.349 . S
C498 C510 1.349 . S
C499 C497 1.327 . S
C499 C515 1.429 . S
C499 H521 0.950 . S
C500 H496 0.949 . S
C500 C508 1.574 . S
C500 C516 1.368 . S
H501 C509 0.950 . S
H502 C507 0.950 . S
H503 C508 0.949 . S
H504 C510 0.950 . S
H505 C511 0.950 . S
H506 C512 0.949 . S
C507 H502 0.950 . S
C507 C509 1.327 . S
C507 C513 1.429 . S
C508 C500 1.574 . S
C508 H503 0.949 . S
C508 C514 1.368 . S
C509 C493 1.349 . S
C509 H501 0.950 . S
C509 C507 1.327 . S
C510 C498 1.349 . S
C510 H504 0.950 . S
C510 C511 1.327 . S
C511 H505 0.950 . S
C511 C510 1.327 . S
C511 C515 1.429 . S
C512 C495 1.574 . S
C512 H506 0.949 . S
C512 C516 1.368 . S
C513 C494 1.429 . S
C513 C507 1.429 . S
C513 C514 1.523 . S
C514 C495 1.368 . S
C514 C508 1.368 . S
C514 C513 1.523 . S
C515 C499 1.429 . S
C515 C511 1.429 . S
C515 C516 1.523 . S
C516 C500 1.368 . S
C516 C512 1.368 . S
C516 C515 1.523 . S
H517 C492 0.950 . S
H518 C494 0.950 . S
H519 C495 0.949 . S
H520 C497 0.950 . S
H521 C499 0.950 . S
C522 C523 1.349 . S
C522 C524 1.327 . S
C522 H547 0.950 . S
C523 C522 1.349 . S
C523 C539 1.349 . S
C524 C522 1.327 . S
C524 C543 1.429 . S
C524 H548 0.950 . S
C525 C542 1.574 . S
C525 C544 1.368 . S
C525 H549 0.949 . S
H526 C530 0.949 . S
C527 C528 1.349 . S
C527 C529 1.327 . S
C527 H550 0.950 . S
C528 C527 1.349 . S
C528 C540 1.349 . S
C529 C527 1.327 . S
C529 C545 1.429 . S
C529 H551 0.950 . S
C530 H526 0.949 . S
C530 C538 1.574 . S
C530 C546 1.368 . S
H531 C539 0.950 . S
H532 C537 0.950 . S
H533 C538 0.949 . S
H534 C540 0.950 . S
H535 C541 0.950 . S
H536 C542 0.949 . S
C537 H532 0.950 . S
C537 C539 1.327 . S
C537 C543 1.429 . S
C538 C530 1.574 . S
C538 H533 0.949 . S
C538 C544 1.368 . S
C539 C523 1.349 . S
C539 H531 0.950 . S
C539 C537 1.327 . S
C540 C528 1.349 . S
C540 H534 0.950 . S
C540 C541 1.327 . S
C541 H535 0.950 . S
C541 C540 1.327 . S
C541 C545 1.429 . S
C542 C525 1.574 . S
C542 H536 0.949 . S
C542 C546 1.368 . S
C543 C524 1.429 . S
C543 C537 1.429 . S
C543 C544 1.523 . S
C544 C525 1.368 . S
C544 C538 1.368 . S
C544 C543 1.523 . S
C545 C529 1.429 . S
C545 C541 1.429 . S
C545 C546 1.523 . S
C546 C530 1.368 . S
C546 C542 1.368 . S
C546 C545 1.523 . S
H547 C522 0.950 . S
H548 C524 0.950 . S
H549 C525 0.949 . S
H550 C527 0.950 . S
H551 C529 0.950 . S
C552 C553 1.349 . S
C552 C554 1.327 . S
C552 H577 0.950 . S
C553 C552 1.349 . S
C553 C569 1.349 . S
C554 C552 1.327 . S
C554 C573 1.429 . S
C554 H578 0.950 . S
C555 C572 1.574 . S
C555 C574 1.368 . S
C555 H579 0.949 . S
H556 C560 0.949 . S
C557 C558 1.349 . S
C557 C559 1.327 . S
C557 H580 0.950 . S
C558 C557 1.349 . S
C558 C570 1.349 . S
C559 C557 1.327 . S
C559 C575 1.429 . S
C559 H581 0.950 . S
C560 H556 0.949 . S
C560 C568 1.574 . S
C560 C576 1.368 . S
H561 C569 0.950 . S
H562 C567 0.950 . S
H563 C568 0.949 . S
H564 C570 0.950 . S
H565 C571 0.950 . S
H566 C572 0.949 . S
C567 H562 0.950 . S
C567 C569 1.327 . S
C567 C573 1.429 . S
C568 C560 1.574 . S
C568 H563 0.949 . S
C568 C574 1.368 . S
C569 C553 1.349 . S
C569 H561 0.950 . S
C569 C567 1.327 . S
C570 C558 1.349 . S
C570 H564 0.950 . S
C570 C571 1.327 . S
C571 H565 0.950 . S
C571 C570 1.327 . S
C571 C575 1.429 . S
C572 C555 1.574 . S
C572 H566 0.949 . S
C572 C576 1.368 . S
C573 C554 1.429 . S
C573 C567 1.429 . S
C573 C574 1.523 . S
C574 C555 1.368 . S
C574 C568 1.368 . S
C574 C573 1.523 . S
C575 C559 1.429 . S
C575 C571 1.429 . S
C575 C576 1.523 . S
C576 C560 1.368 . S
C576 C572 1.368 . S
C576 C575 1.523 . S
H577 C552 0.950 . S
H578 C554 0.950 . S
H579 C555 0.949 . S
H580 C557 0.950 . S
H581 C559 0.950 . S
C582 C583 1.349 . S
C582 C584 1.327 . S
C582 H607 0.950 . S
C583 C582 1.349 . S
C583 C599 1.349 . S
C584 C582 1.327 . S
C584 C603 1.429 . S
C584 H608 0.950 . S
C585 C602 1.574 . S
C585 C604 1.368 . S
C585 H609 0.949 . S
H586 C590 0.949 . S
C587 C588 1.349 . S
C587 C589 1.327 . S
C587 H610 0.950 . S
C588 C587 1.349 . S
C588 C600 1.349 . S
C589 C587 1.327 . S
C589 C605 1.429 . S
C589 H611 0.950 . S
C590 H586 0.949 . S
C590 C598 1.574 . S
C590 C606 1.368 . S
H591 C599 0.950 . S
H592 C597 0.950 . S
H593 C598 0.949 . S
H594 C600 0.950 . S
H595 C601 0.950 . S
H596 C602 0.949 . S
C597 H592 0.950 . S
C597 C599 1.327 . S
C597 C603 1.429 . S
C598 C590 1.574 . S
C598 H593 0.949 . S
C598 C604 1.368 . S
C599 C583 1.349 . S
C599 H591 0.950 . S
C599 C597 1.327 . S
C600 C588 1.349 . S
C600 H594 0.950 . S
C600 C601 1.327 . S
C601 H595 0.950 . S
C601 C600 1.327 . S
C601 C605 1.429 . S
C602 C585 1.574 . S
C602 H596 0.949 . S
C602 C606 1.368 . S
C603 C584 1.429 . S
C603 C597 1.429 . S
C603 C604 1.523 . S
C604 C585 1.368 . S
C604 C598 1.368 . S
C604 C603 1.523 . S
C605 C589 1.429 . S
C605 C601 1.429 . S
C605 C606 1.523 . S
C606 C590 1.368 . S
C606 C602 1.368 . S
C606 C605 1.523 . S
H607 C582 0.950 . S
H608 C584 0.950 . S
H609 C585 0.949 . S
H610 C587 0.950 . S
H611 C589 0.950 . S
C612 C613 1.349 . S
C612 C614 1.327 . S
C612 H637 0.950 . S
C613 C612 1.349 . S
C613 C629 1.349 . S
C614 C612 1.327 . S
C614 C633 1.429 . S
C614 H638 0.950 . S
C615 C632 1.574 . S
C615 C634 1.368 . S
C615 H639 0.949 . S
H616 C620 0.949 1_545 S
C617 C618 1.349 . S
C617 C619 1.327 . S
C617 H640 0.950 . S
C618 C617 1.349 . S
C618 C630 1.349 1_565 S
C619 C617 1.327 . S
C619 C635 1.429 . S
C619 H641 0.950 . S
C620 H616 0.949 1_565 S
C620 C628 1.574 . S
C620 C636 1.368 . S
H621 C629 0.950 . S
H622 C627 0.950 . S
H623 C628 0.950 1_545 S
H624 C630 0.950 . S
H625 C631 0.950 . S
H626 C632 0.949 . S
C627 H622 0.950 . S
C627 C629 1.327 . S
C627 C633 1.429 . S
C628 C620 1.574 . S
C628 H623 0.950 1_565 S
C628 C634 1.368 . S
C629 C613 1.349 . S
C629 H621 0.950 . S
C629 C627 1.327 . S
C630 C618 1.349 1_545 S
C630 H624 0.950 . S
C630 C631 1.327 . S
C631 H625 0.950 . S
C631 C630 1.327 . S
C631 C635 1.429 1_545 S
C632 C615 1.574 . S
C632 H626 0.949 . S
C632 C636 1.368 . S
C633 C614 1.429 . S
C633 C627 1.429 . S
C633 C634 1.523 . S
C634 C615 1.368 . S
C634 C628 1.368 . S
C634 C633 1.523 . S
C635 C619 1.429 . S
C635 C631 1.429 1_565 S
C635 C636 1.523 . S
C636 C620 1.368 . S
C636 C632 1.368 . S
C636 C635 1.523 . S
H637 C612 0.950 . S
H638 C614 0.950 . S
H639 C615 0.949 . S
H640 C617 0.950 . S
H641 C619 0.950 . S
C288 C256 1.314 . S
C283 C211 1.502 . S
C313 C31 1.424 . S
C318 C277 1.315 . S
C343 C91 1.655 . S
C348 C253 1.481 . S
C373 C151 1.668 1_556 S
C378 C274 1.481 . S
C408 C258 1.622 . S
C403 C20 1.599 . S
C438 C278 1.563 . S
C433 C61 1.528 . S
C463 C121 1.557 . S
C468 C254 1.511 . S
C493 C200 1.620 . S
C498 C276 1.556 . S
C528 C275 1.511 . S
C523 C80 1.529 . S
C558 C257 1.563 . S
C553 C140 1.609 . S
C588 C279 1.622 . S
C583 C181 1.608 . S
C613 C1 1.560 . S
C618 C255 1.556 1_565 S
