# Generated by pormake.
# Topology llk, (3,12)-cn, num edge types: 1
# Building blocks:
#     Node 0, Type 0, BuildingBlock: BETDIP_clean_linker_0, # of connection points: 3
#     Node 1, Type 0, BuildingBlock: BETDIP_clean_linker_0, # of connection points: 3
#     Node 2, Type 0, BuildingBlock: BETDIP_clean_linker_0, # of connection points: 3
#     Node 3, Type 0, BuildingBlock: BETDIP_clean_linker_0, # of connection points: 3
#     Node 4, Type 0, BuildingBlock: BETDIP_clean_linker_0, # of connection points: 3
#     Node 5, Type 0, BuildingBlock: BETDIP_clean_linker_0, # of connection points: 3
#     Node 6, Type 0, BuildingBlock: BETDIP_clean_linker_0, # of connection points: 3
#     Node 7, Type 0, BuildingBlock: BETDIP_clean_linker_0, # of connection points: 3
#     Node 8, Type 0, BuildingBlock: BETDIP_clean_linker_0, # of connection points: 3
#     Node 9, Type 0, BuildingBlock: BETDIP_clean_linker_0, # of connection points: 3
#     Node 10, Type 0, BuildingBlock: BETDIP_clean_linker_0, # of connection points: 3
#     Node 11, Type 0, BuildingBlock: BETDIP_clean_linker_0, # of connection points: 3
#     Node 12, Type 0, BuildingBlock: BETDIP_clean_linker_0, # of connection points: 3
#     Node 13, Type 0, BuildingBlock: BETDIP_clean_linker_0, # of connection points: 3
#     Node 14, Type 0, BuildingBlock: BETDIP_clean_linker_0, # of connection points: 3
#     Node 15, Type 0, BuildingBlock: BETDIP_clean_linker_0, # of connection points: 3
#     Node 16, Type 0, BuildingBlock: BETDIP_clean_linker_0, # of connection points: 3
#     Node 17, Type 0, BuildingBlock: BETDIP_clean_linker_0, # of connection points: 3
#     Node 18, Type 0, BuildingBlock: BETDIP_clean_linker_0, # of connection points: 3
#     Node 19, Type 0, BuildingBlock: BETDIP_clean_linker_0, # of connection points: 3
#     Node 20, Type 0, BuildingBlock: BETDIP_clean_linker_0, # of connection points: 3
#     Node 21, Type 0, BuildingBlock: BETDIP_clean_linker_0, # of connection points: 3
#     Node 22, Type 0, BuildingBlock: BETDIP_clean_linker_0, # of connection points: 3
#     Node 23, Type 0, BuildingBlock: BETDIP_clean_linker_0, # of connection points: 3
#     Node 24, Type 1, BuildingBlock: QEWDON_clean_sbu_0, # of connection points: 12
#     Node 25, Type 1, BuildingBlock: QEWDON_clean_sbu_0, # of connection points: 12
#     Node 26, Type 1, BuildingBlock: QEWDON_clean_sbu_0, # of connection points: 12
#     Node 27, Type 1, BuildingBlock: QEWDON_clean_sbu_0, # of connection points: 12
#     Node 28, Type 1, BuildingBlock: QEWDON_clean_sbu_0, # of connection points: 12
#     Node 29, Type 1, BuildingBlock: QEWDON_clean_sbu_0, # of connection points: 12
#     Edge 30, Type (0, 1), BuildingBlock: KIFKEQ_clean_linker_1, # of connection points: 2
#     Edge 31, Type (0, 1), BuildingBlock: KIFKEQ_clean_linker_1, # of connection points: 2
#     Edge 32, Type (0, 1), BuildingBlock: KIFKEQ_clean_linker_1, # of connection points: 2
#     Edge 33, Type (0, 1), BuildingBlock: KIFKEQ_clean_linker_1, # of connection points: 2
#     Edge 34, Type (0, 1), BuildingBlock: KIFKEQ_clean_linker_1, # of connection points: 2
#     Edge 35, Type (0, 1), BuildingBlock: KIFKEQ_clean_linker_1, # of connection points: 2
#     Edge 36, Type (0, 1), BuildingBlock: KIFKEQ_clean_linker_1, # of connection points: 2
#     Edge 37, Type (0, 1), BuildingBlock: KIFKEQ_clean_linker_1, # of connection points: 2
#     Edge 38, Type (0, 1), BuildingBlock: KIFKEQ_clean_linker_1, # of connection points: 2
#     Edge 39, Type (0, 1), BuildingBlock: KIFKEQ_clean_linker_1, # of connection points: 2
#     Edge 40, Type (0, 1), BuildingBlock: KIFKEQ_clean_linker_1, # of connection points: 2
#     Edge 41, Type (0, 1), BuildingBlock: KIFKEQ_clean_linker_1, # of connection points: 2
#     Edge 42, Type (0, 1), BuildingBlock: KIFKEQ_clean_linker_1, # of connection points: 2
#     Edge 43, Type (0, 1), BuildingBlock: KIFKEQ_clean_linker_1, # of connection points: 2
#     Edge 44, Type (0, 1), BuildingBlock: KIFKEQ_clean_linker_1, # of connection points: 2
#     Edge 45, Type (0, 1), BuildingBlock: KIFKEQ_clean_linker_1, # of connection points: 2
#     Edge 46, Type (0, 1), BuildingBlock: KIFKEQ_clean_linker_1, # of connection points: 2
#     Edge 47, Type (0, 1), BuildingBlock: KIFKEQ_clean_linker_1, # of connection points: 2
#     Edge 48, Type (0, 1), BuildingBlock: KIFKEQ_clean_linker_1, # of connection points: 2
#     Edge 49, Type (0, 1), BuildingBlock: KIFKEQ_clean_linker_1, # of connection points: 2
#     Edge 50, Type (0, 1), BuildingBlock: KIFKEQ_clean_linker_1, # of connection points: 2
#     Edge 51, Type (0, 1), BuildingBlock: KIFKEQ_clean_linker_1, # of connection points: 2
#     Edge 52, Type (0, 1), BuildingBlock: KIFKEQ_clean_linker_1, # of connection points: 2
#     Edge 53, Type (0, 1), BuildingBlock: KIFKEQ_clean_linker_1, # of connection points: 2
#     Edge 54, Type (0, 1), BuildingBlock: KIFKEQ_clean_linker_1, # of connection points: 2
#     Edge 55, Type (0, 1), BuildingBlock: KIFKEQ_clean_linker_1, # of connection points: 2
#     Edge 56, Type (0, 1), BuildingBlock: KIFKEQ_clean_linker_1, # of connection points: 2
#     Edge 57, Type (0, 1), BuildingBlock: KIFKEQ_clean_linker_1, # of connection points: 2
#     Edge 58, Type (0, 1), BuildingBlock: KIFKEQ_clean_linker_1, # of connection points: 2
#     Edge 59, Type (0, 1), BuildingBlock: KIFKEQ_clean_linker_1, # of connection points: 2
#     Edge 60, Type (0, 1), BuildingBlock: KIFKEQ_clean_linker_1, # of connection points: 2
#     Edge 61, Type (0, 1), BuildingBlock: KIFKEQ_clean_linker_1, # of connection points: 2
#     Edge 62, Type (0, 1), BuildingBlock: KIFKEQ_clean_linker_1, # of connection points: 2
#     Edge 63, Type (0, 1), BuildingBlock: KIFKEQ_clean_linker_1, # of connection points: 2
#     Edge 64, Type (0, 1), BuildingBlock: KIFKEQ_clean_linker_1, # of connection points: 2
#     Edge 65, Type (0, 1), BuildingBlock: KIFKEQ_clean_linker_1, # of connection points: 2
#     Edge 66, Type (0, 1), BuildingBlock: KIFKEQ_clean_linker_1, # of connection points: 2
#     Edge 67, Type (0, 1), BuildingBlock: KIFKEQ_clean_linker_1, # of connection points: 2
#     Edge 68, Type (0, 1), BuildingBlock: KIFKEQ_clean_linker_1, # of connection points: 2
#     Edge 69, Type (0, 1), BuildingBlock: KIFKEQ_clean_linker_1, # of connection points: 2
#     Edge 70, Type (0, 1), BuildingBlock: KIFKEQ_clean_linker_1, # of connection points: 2
#     Edge 71, Type (0, 1), BuildingBlock: KIFKEQ_clean_linker_1, # of connection points: 2
#     Edge 72, Type (0, 1), BuildingBlock: KIFKEQ_clean_linker_1, # of connection points: 2
#     Edge 73, Type (0, 1), BuildingBlock: KIFKEQ_clean_linker_1, # of connection points: 2
#     Edge 74, Type (0, 1), BuildingBlock: KIFKEQ_clean_linker_1, # of connection points: 2
#     Edge 75, Type (0, 1), BuildingBlock: KIFKEQ_clean_linker_1, # of connection points: 2
#     Edge 76, Type (0, 1), BuildingBlock: KIFKEQ_clean_linker_1, # of connection points: 2
#     Edge 77, Type (0, 1), BuildingBlock: KIFKEQ_clean_linker_1, # of connection points: 2
#     Edge 78, Type (0, 1), BuildingBlock: KIFKEQ_clean_linker_1, # of connection points: 2
#     Edge 79, Type (0, 1), BuildingBlock: KIFKEQ_clean_linker_1, # of connection points: 2
#     Edge 80, Type (0, 1), BuildingBlock: KIFKEQ_clean_linker_1, # of connection points: 2
#     Edge 81, Type (0, 1), BuildingBlock: KIFKEQ_clean_linker_1, # of connection points: 2
#     Edge 82, Type (0, 1), BuildingBlock: KIFKEQ_clean_linker_1, # of connection points: 2
#     Edge 83, Type (0, 1), BuildingBlock: KIFKEQ_clean_linker_1, # of connection points: 2
#     Edge 84, Type (0, 1), BuildingBlock: KIFKEQ_clean_linker_1, # of connection points: 2
#     Edge 85, Type (0, 1), BuildingBlock: KIFKEQ_clean_linker_1, # of connection points: 2
#     Edge 86, Type (0, 1), BuildingBlock: KIFKEQ_clean_linker_1, # of connection points: 2
#     Edge 87, Type (0, 1), BuildingBlock: KIFKEQ_clean_linker_1, # of connection points: 2
#     Edge 88, Type (0, 1), BuildingBlock: KIFKEQ_clean_linker_1, # of connection points: 2
#     Edge 89, Type (0, 1), BuildingBlock: KIFKEQ_clean_linker_1, # of connection points: 2
#     Edge 90, Type (0, 1), BuildingBlock: KIFKEQ_clean_linker_1, # of connection points: 2
#     Edge 91, Type (0, 1), BuildingBlock: KIFKEQ_clean_linker_1, # of connection points: 2
#     Edge 92, Type (0, 1), BuildingBlock: KIFKEQ_clean_linker_1, # of connection points: 2
#     Edge 93, Type (0, 1), BuildingBlock: KIFKEQ_clean_linker_1, # of connection points: 2
#     Edge 94, Type (0, 1), BuildingBlock: KIFKEQ_clean_linker_1, # of connection points: 2
#     Edge 95, Type (0, 1), BuildingBlock: KIFKEQ_clean_linker_1, # of connection points: 2
#     Edge 96, Type (0, 1), BuildingBlock: KIFKEQ_clean_linker_1, # of connection points: 2
#     Edge 97, Type (0, 1), BuildingBlock: KIFKEQ_clean_linker_1, # of connection points: 2
#     Edge 98, Type (0, 1), BuildingBlock: KIFKEQ_clean_linker_1, # of connection points: 2
#     Edge 99, Type (0, 1), BuildingBlock: KIFKEQ_clean_linker_1, # of connection points: 2
#     Edge 100, Type (0, 1), BuildingBlock: KIFKEQ_clean_linker_1, # of connection points: 2
#     Edge 101, Type (0, 1), BuildingBlock: KIFKEQ_clean_linker_1, # of connection points: 2
# Relax obj value: 0.098
# Max RMSD: 0.183
# Mean RMSD: 0.146
data_MOF--net-llk--node1-QEWDON_clean_sbu_0--node2-BETDIP_clean_linker_0--edge1-KIFKEQ_clean_linker_1
_symmetry_space_group_name_H-M    P1
_symmetry_Int_Tables_number       1
_symmetry_cell_setting            triclinic
loop_
_symmetry_equiv_pos_as_xyz
'x, y, z'
_cell_length_a     46.768088
_cell_length_b     48.602351
_cell_length_c     48.4415
_cell_angle_alpha  89.885079
_cell_angle_beta   89.896754
_cell_angle_gamma 89.536508
loop_
_atom_site_label
_atom_site_type_symbol
_atom_site_fract_x
_atom_site_fract_y
_atom_site_fract_z
_atom_type_partial_charge
H0 H 0.06271 0.27221 0.23943 0.0
H1 H 0.05521 0.28272 0.32734 0.0
H2 H 0.0381 0.35087 0.27331 0.0
H3 H 0.09854 0.25067 0.32085 0.0
C4 C 0.08312 0.23689 0.31153 0.0
C5 C 0.05813 0.28525 0.25703 0.0
C6 C 0.04995 0.31296 0.25299 0.0
C7 C 0.06056 0.27437 0.28387 0.0
C8 C 0.05435 0.29124 0.30667 0.0
C9 C 0.04577 0.31867 0.30296 0.0
C10 C 0.04378 0.32937 0.27613 0.0
N11 N 0.0678 0.24614 0.28785 0.0
H12 H 0.79575 0.07174 0.23966 0.0
H13 H 0.70629 0.07323 0.22013 0.0
H14 H 0.73354 0.08733 0.30347 0.0
H15 H 0.74725 0.02068 0.20555 0.0
C16 C 0.74696 0.03768 0.19091 0.0
C17 C 0.77384 0.07524 0.24613 0.0
C18 C 0.76742 0.08074 0.27398 0.0
C19 C 0.75176 0.0724 0.22688 0.0
C20 C 0.72322 0.0759 0.23512 0.0
C21 C 0.7165 0.08205 0.26261 0.0
C22 C 0.73875 0.08453 0.28184 0.0
N23 N 0.75787 0.06329 0.19979 0.0
H24 H 0.01571 0.79677 0.25265 0.0
H25 H 0.03435 0.7143 0.28085 0.0
H26 H 0.01681 0.77784 0.33958 0.0
H27 H 0.06214 0.71532 0.24149 0.0
C28 C 0.04508 0.72214 0.22781 0.0
C29 C 0.01904 0.78218 0.26931 0.0
C30 C 0.0154 0.79056 0.29693 0.0
C31 C 0.02649 0.7547 0.26324 0.0
C32 C 0.03011 0.73582 0.28509 0.0
C33 C 0.02664 0.74407 0.31254 0.0
C34 C 0.01941 0.77141 0.31828 0.0
N35 N 0.02862 0.74575 0.23529 0.0
H36 H 0.21722 0.99855 0.23604 0.0
H37 H 0.29866 0.98513 0.27567 0.0
H38 H 0.22735 0.01594 0.32242 0.0
H39 H 0.24523 0.00302 0.198 0.0
C40 C 0.26519 0.9919 0.20111 0.0
C41 C 0.23067 0.99921 0.25417 0.0
C42 C 0.21909 0.0085 0.27928 0.0
C43 C 0.25963 0.99095 0.25287 0.0
C44 C 0.27637 0.99138 0.27681 0.0
C45 C 0.26486 1.00048 0.3019 0.0
C46 C 0.23626 0.00882 0.30298 0.0
N47 N 0.27322 0.98296 0.22792 0.0
H48 H 0.01863 0.7547 0.79396 0.0
H49 H 0.00228 0.73968 0.70807 0.0
H50 H 0.98034 0.67861 0.76866 0.0
H51 H 0.04873 0.76343 0.70891 0.0
C52 C 0.0382 0.78091 0.71871 0.0
C53 C 0.01035 0.74156 0.77784 0.0
C54 C -0.00065 0.71556 0.78447 0.0
C55 C 0.01129 0.75034 0.75027 0.0
C56 C 0.00102 0.73302 0.72938 0.0
C57 C 0.98989 0.70701 0.73567 0.0
C58 C 0.98874 0.69868 0.7634 0.0
N59 N 0.02265 0.77654 0.74356 0.0
H60 H 0.23842 0.98701 0.76841 0.0
H61 H 0.32736 0.98995 0.79051 0.0
H62 H 0.29844 0.02675 0.7149 0.0
H63 H 0.28975 0.93138 0.82088 0.0
C64 C 0.29457 0.95319 0.82033 0.0
C65 C 0.25993 0.99422 0.76447 0.0
C66 C 0.26593 0.00841 0.73992 0.0
C67 C 0.28186 0.98752 0.78305 0.0
C68 C 0.31004 0.9955 0.77694 0.0
C69 C 0.31623 0.0104 0.7528 0.0
C70 C 0.29386 0.01693 0.73452 0.0
N71 N 0.27502 0.97092 0.80635 0.0
H72 H 0.99058 0.23215 0.7515 0.0
H73 H 0.00604 0.31861 0.74096 0.0
H74 H -0.00527 0.2674 0.66987 0.0
H75 H 0.04381 0.29497 0.77971 0.0
C76 C 0.02328 0.29455 0.79027 0.0
C77 C 0.99293 0.2498 0.73801 0.0
C78 C 0.99145 0.24657 0.70913 0.0
C79 C -0.0014 0.27573 0.74947 0.0
C80 C 0.0021 0.29856 0.73205 0.0
C81 C 3e-05 0.29577 0.70335 0.0
C82 C -0.00526 0.26978 0.69211 0.0
N83 N 0.00078 0.27897 0.7785 0.0
H84 H 0.76724 0.07805 0.82085 0.0
H85 H 0.78659 0.06677 0.73508 0.0
H86 H 0.69893 0.06951 0.76184 0.0
H87 H 0.82013 0.02929 0.78823 0.0
C88 C 0.82682 0.0489 0.77967 0.0
C89 C 0.75981 0.0753 0.79987 0.0
C90 C 0.73034 0.07416 0.79413 0.0
C91 C 0.77993 0.07209 0.77866 0.0
C92 C 0.7708 0.06868 0.75137 0.0
C93 C 0.74156 0.06863 0.74501 0.0
C94 C 0.7215 0.07108 0.76654 0.0
N95 N 0.80951 0.07246 0.78465 0.0
H96 H 0.2017 0.26684 0.00401 0.0
H97 H 0.29316 0.26579 0.00762 0.0
H98 H 0.24726 0.34071 0.02496 0.0
H99 H 0.26253 0.24192 0.95199 0.0
C100 C 0.26564 0.23005 0.97079 0.0
C101 C 0.22145 0.27753 0.0082 0.0
C102 C 0.22103 0.30553 0.0157 0.0
C103 C 0.24748 0.26359 0.00452 0.0
C104 C 0.27321 0.27705 0.00987 0.0
C105 C 0.2734 0.30478 0.01775 0.0
C106 C 0.24719 0.31887 0.02058 0.0
N107 N 0.24794 0.2365 0.99378 0.0
H108 H 0.19199 0.78036 0.04742 0.0
H109 H 0.28268 0.76477 0.05098 0.0
H110 H 0.22392 0.69749 0.05578 0.0
H111 H 0.2697 0.807 0.08439 0.0
C112 C 0.26422 0.81704 0.06499 0.0
C113 C 0.20977 0.76608 0.04943 0.0
C114 C 0.20472 0.73776 0.05265 0.0
C115 C 0.23794 0.77596 0.04978 0.0
C116 C 0.26095 0.75722 0.05161 0.0
C117 C 0.25607 0.72886 0.05363 0.0
C118 C 0.22791 0.71943 0.05473 0.0
N119 N 0.24332 0.80463 0.04788 0.0
H120 H 0.81925 0.22173 0.98299 0.0
H121 H 0.81595 0.30998 0.98747 0.0
H122 H 0.73982 0.26297 0.00181 0.0
H123 H 0.85063 0.29399 0.94255 0.0
C124 C 0.86223 0.28787 0.96103 0.0
C125 C 0.80708 0.24051 0.98626 0.0
C126 C 0.77782 0.23929 0.9928 0.0
C127 C 0.8207 0.266 0.98383 0.0
C128 C 0.8051 0.29039 0.98847 0.0
C129 C 0.77598 0.28956 0.99547 0.0
C130 C 0.76252 0.26388 0.99741 0.0
N131 N 0.85043 0.26698 0.97803 0.0
H132 H 0.78367 0.80028 0.96279 0.0
H133 H 0.77482 0.71305 0.97486 0.0
H134 H 0.69999 0.76449 0.96752 0.0
H135 H 0.81651 0.74707 0.01384 0.0
C136 C 0.826 0.74252 0.99384 0.0
C137 C 0.77014 0.78241 0.96495 0.0
C138 C 0.74024 0.78534 0.9643 0.0
C139 C 0.78251 0.75629 0.96892 0.0
C140 C 0.76502 0.73315 0.97209 0.0
C141 C 0.73517 0.73584 0.97096 0.0
C142 C 0.72306 0.76203 0.96723 0.0
N143 N 0.81259 0.75301 0.96976 0.0
H144 H 0.52822 0.75715 0.70675 0.0
H145 H 0.52111 0.77064 0.79431 0.0
H146 H 0.51515 0.83905 0.73834 0.0
H147 H 0.56671 0.73249 0.78066 0.0
C148 C 0.54678 0.72176 0.77692 0.0
C149 C 0.52504 0.77102 0.72398 0.0
C150 C 0.52141 0.79944 0.71929 0.0
C151 C 0.52514 0.76063 0.75112 0.0
C152 C 0.52147 0.77872 0.77344 0.0
C153 C 0.51728 0.80696 0.76893 0.0
C154 C 0.51725 0.81707 0.74185 0.0
N155 N 0.52813 0.73195 0.75607 0.0
H156 H 0.33595 0.55743 0.75803 0.0
H157 H 0.24477 0.56077 0.74862 0.0
H158 H 0.28192 0.56442 0.82977 0.0
H159 H 0.28127 0.51295 0.71961 0.0
C160 C 0.28112 0.53239 0.70844 0.0
C161 C 0.31489 0.55951 0.76719 0.0
C162 C 0.31183 0.56159 0.79599 0.0
C163 C 0.29063 0.55911 0.75025 0.0
C164 C 0.2633 0.56104 0.76202 0.0
C165 C 0.25981 0.56334 0.7907 0.0
C166 C 0.28428 0.56382 0.80751 0.0
N167 N 0.29339 0.55564 0.72135 0.0
H168 H 0.48231 0.28672 0.75783 0.0
H169 H 0.47255 0.20325 0.78665 0.0
H170 H 0.47872 0.26911 0.84487 0.0
H171 H 0.44566 0.20131 0.74576 0.0
C172 C 0.46218 0.2099 0.73256 0.0
C173 C 0.47973 0.27214 0.77458 0.0
C174 C 0.48003 0.28135 0.80215 0.0
C175 C 0.47575 0.24401 0.7687 0.0
C176 C 0.47361 0.22512 0.79073 0.0
C177 C 0.47506 0.23409 0.81814 0.0
C178 C 0.47752 0.26219 0.82361 0.0
N179 N 0.47584 0.23468 0.7408 0.0
H180 H 0.68251 0.51023 0.76329 0.0
H181 H 0.76678 0.52906 0.79304 0.0
H182 H 0.69988 0.50914 0.85043 0.0
H183 H 0.75285 0.56564 0.7508 0.0
C184 C 0.75491 0.54581 0.74059 0.0
C185 C 0.69727 0.51286 0.78028 0.0
C186 C 0.68808 0.50863 0.80758 0.0
C187 C 0.7256 0.52093 0.77509 0.0
C188 C 0.74466 0.52405 0.79724 0.0
C189 C 0.73575 0.51938 0.8245 0.0
C190 C 0.70732 0.51201 0.8294 0.0
N191 N 0.73543 0.52457 0.74759 0.0
H192 H 0.49526 0.27507 0.29853 0.0
H193 H 0.508 0.25704 0.21242 0.0
H194 H 0.50643 0.19119 0.27174 0.0
H195 H 0.54466 0.2988 0.23278 0.0
C196 C 0.52391 0.30907 0.23197 0.0
C197 C 0.49836 0.26024 0.2821 0.0
C198 C 0.50041 0.23192 0.28829 0.0
C199 C 0.5015 0.26933 0.25462 0.0
C200 C 0.50594 0.24999 0.23357 0.0
C201 C 0.50739 0.22178 0.23948 0.0
C202 C 0.5046 0.21293 0.26688 0.0
N203 N 0.50119 0.29784 0.24789 0.0
H204 H 0.70473 0.49203 0.25676 0.0
H205 H 0.79367 0.50923 0.26886 0.0
H206 H 0.76099 0.49873 0.18658 0.0
H207 H 0.7658 0.46142 0.30333 0.0
C208 C 0.76058 0.48162 0.31165 0.0
C209 C 0.72578 0.49559 0.24814 0.0
C210 C 0.73016 0.49436 0.21941 0.0
C211 C 0.74887 0.50023 0.26588 0.0
C212 C 0.77617 0.50487 0.25494 0.0
C213 C 0.78068 0.50494 0.22631 0.0
C214 C 0.75763 0.4992 0.20872 0.0
N215 N 0.74486 0.50026 0.29486 0.0
H216 H 0.54215 0.74161 0.26859 0.0
H217 H 0.55552 0.82876 0.26105 0.0
H218 H 0.54921 0.77879 0.18825 0.0
H219 H 0.58698 0.81107 0.30311 0.0
C220 C 0.56604 0.80655 0.3117 0.0
C221 C 0.54524 0.75961 0.25573 0.0
C222 C 0.54644 0.75698 0.22683 0.0
C223 C 0.54918 0.78542 0.26813 0.0
C224 C 0.55308 0.8088 0.25146 0.0
C225 C 0.55296 0.8067 0.22257 0.0
C226 C 0.54994 0.78065 0.21054 0.0
N227 N 0.54801 0.78804 0.29732 0.0
H228 H 0.28778 0.59725 0.29027 0.0
H229 H 0.30922 0.57816 0.20607 0.0
H230 H 0.22186 0.57377 0.23314 0.0
H231 H 0.34613 0.55161 0.26495 0.0
C232 C 0.35018 0.56948 0.25204 0.0
C233 C 0.28107 0.59161 0.26966 0.0
C234 C 0.25207 0.58628 0.2642 0.0
C235 C 0.30165 0.58864 0.24869 0.0
C236 C 0.29325 0.58076 0.22212 0.0
C237 C 0.26451 0.57547 0.21643 0.0
C238 C 0.24405 0.5784 0.23746 0.0
N239 N 0.33104 0.59212 0.25459 0.0
H240 H 0.73117 0.77367 0.47451 0.0
H241 H 0.82097 0.79066 0.48269 0.0
H242 H 0.75962 0.85711 0.48213 0.0
H243 H 0.81495 0.75267 0.44274 0.0
C244 C 0.80725 0.74048 0.46003 0.0
C245 C 0.74838 0.78828 0.47677 0.0
C246 C 0.74225 0.81662 0.47834 0.0
C247 C 0.77697 0.77897 0.47738 0.0
C248 C 0.79914 0.79804 0.48086 0.0
C249 C 0.79312 0.82628 0.48329 0.0
C250 C 0.76462 0.8353 0.48133 0.0
N251 N 0.78343 0.75038 0.47556 0.0
H252 H 0.71748 0.26959 0.48688 0.0
H253 H 0.8068 0.25901 0.4681 0.0
H254 H 0.76063 0.19324 0.5064 0.0
H255 H 0.73516 0.31539 0.49471 0.0
C256 C 0.75251 0.31819 0.48006 0.0
C257 C 0.73672 0.25704 0.48731 0.0
C258 C 0.73575 0.22999 0.49784 0.0
C259 C 0.76254 0.26754 0.4768 0.0
C260 C 0.78699 0.25084 0.47624 0.0
C261 C 0.78653 0.22441 0.48761 0.0
C262 C 0.76099 0.21412 0.49847 0.0
N263 N 0.76517 0.29493 0.46712 0.0
H264 H 0.25473 0.72699 0.54838 0.0
H265 H 0.25332 0.81292 0.52731 0.0
H266 H 0.17442 0.76925 0.5355 0.0
H267 H 0.29495 0.78614 0.49631 0.0
C268 C 0.30324 0.7855 0.51726 0.0
C269 C 0.2427 0.74554 0.54364 0.0
C270 C 0.21255 0.74513 0.5432 0.0
C271 C 0.25742 0.76986 0.53728 0.0
C272 C 0.24193 0.79399 0.5313 0.0
C273 C 0.21198 0.79406 0.53122 0.0
C274 C 0.19754 0.76954 0.53695 0.0
N275 N 0.28779 0.77033 0.53745 0.0
H276 H 0.26475 0.29842 0.50664 0.0
H277 H 0.25665 0.21439 0.53248 0.0
H278 H 0.18169 0.26592 0.52542 0.0
H279 H 0.30301 0.24014 0.55798 0.0
C280 C 0.30997 0.23828 0.53662 0.0
C281 C 0.25133 0.28152 0.51313 0.0
C282 C 0.22172 0.28555 0.5167 0.0
C283 C 0.26387 0.25592 0.51918 0.0
C284 C 0.24667 0.23406 0.52794 0.0
C285 C 0.21685 0.23715 0.5299 0.0
C286 C 0.20468 0.26316 0.52455 0.0
N287 N 0.29374 0.2518 0.51583 0.0
Zn288 Zn 0.95237 1.00066 0.44112 0.0
Zn289 Zn 0.95513 0.06423 0.46235 0.0
O290 O 0.97798 0.02911 0.45874 0.0
H291 H -0.00518 0.0245 0.46929 0.0
C292 C 0.9353 0.97247 0.5288 0.0
O293 O 0.92917 0.99831 0.52313 0.0
Zn294 Zn 0.07578 0.05403 0.55807 0.0
Zn295 Zn 0.06847 0.98888 0.56409 0.0
O296 O 0.046 0.02449 0.56275 0.0
H297 H 0.02754 0.02629 0.57154 0.0
Zn298 Zn 0.97375 1.00093 0.56415 0.0
O299 O 0.9797 0.03331 0.53855 0.0
Zn300 Zn 0.97841 0.06653 0.56246 0.0
H301 H 0.9893 0.03214 0.52091 0.0
Zn302 Zn 0.04927 0.99318 0.45628 0.0
O303 O 0.04893 0.02577 0.482 0.0
H304 H 0.04048 0.02554 0.50021 0.0
Zn305 Zn 0.05417 0.05884 0.45813 0.0
C306 C 0.09627 0.96103 0.47614 0.0
O307 O 0.10859 0.9847 0.47095 0.0
O308 O 0.91568 0.01767 0.42552 0.0
O309 O 0.91668 0.06014 0.44262 0.0
O310 O 0.10744 0.99633 0.58118 0.0
O311 O 0.11338 0.04144 0.57633 0.0
O312 O 0.95787 0.01237 0.60229 0.0
O313 O 0.96028 0.05801 0.59972 0.0
C314 C 0.0019 0.09312 0.43886 0.0
O315 O 0.06045 0.00347 0.41649 0.0
O316 O 0.06917 0.0483 0.42009 0.0
O317 O 0.04973 0.95512 0.58287 0.0
C318 C 0.90462 0.04154 0.42823 0.0
O319 O 0.96906 0.96687 0.41985 0.0
C320 C 0.03599 0.09204 0.58138 0.0
O321 O 0.9549 0.96717 0.54616 0.0
C322 C 0.12198 0.01798 0.58515 0.0
O323 O 0.06965 0.95867 0.47168 0.0
C324 C 0.94816 0.09497 0.51783 0.0
O325 O 0.97488 0.09392 0.44088 0.0
O326 O 0.01499 0.0748 0.45285 0.0
C327 C 0.95367 0.03611 0.61276 0.0
O328 O 0.06269 0.0877 0.57908 0.0
O329 O 0.01952 0.07667 0.56757 0.0
C330 C 0.08551 0.0832 0.50377 0.0
O331 O 0.95554 0.09607 0.54309 0.0
O332 O 0.95594 0.07433 0.50336 0.0
C333 C 0.06879 0.0261 0.40601 0.0
O334 O 0.07949 0.08573 0.47825 0.0
O335 O 0.0768 0.06224 0.51698 0.0
C336 C 0.0473 0.95644 0.60899 0.0
O337 O 0.05445 0.97934 0.6215 0.0
C338 C 0.97679 0.96888 0.39473 0.0
O339 O 0.9757 0.99307 0.3826 0.0
Zn340 Zn 0.46078 0.07152 0.03884 0.0
Zn341 Zn 0.47539 0.06635 0.97438 0.0
O342 O 0.47259 0.04423 0.00905 0.0
H343 H 0.48154 0.02655 0.01237 0.0
C344 C 0.55175 0.08984 0.08514 0.0
O345 O 0.5317 0.08101 0.06847 0.0
Zn346 Zn 0.55379 0.9758 0.94959 0.0
Zn347 Zn 0.56254 0.97683 0.01506 0.0
O348 O 0.5415 0.99592 0.98357 0.0
H349 H 0.52654 0.00968 0.98486 0.0
Zn350 Zn 0.5908 0.06761 0.0425 0.0
O351 O 0.56105 0.0608 0.01324 0.0
Zn352 Zn 0.57979 0.06753 0.97681 0.0
H353 H 0.54304 0.05161 0.01611 0.0
Zn354 Zn 0.47399 0.96688 0.03599 0.0
O355 O 0.49573 0.95957 3e-05 0.0
H356 H 0.51256 0.94809 0.99794 0.0
Zn357 Zn 0.46491 0.96531 0.97216 0.0
C358 C 0.51814 0.94572 0.0753 0.0
O359 O 0.53573 0.94821 0.05431 0.0
O360 O 0.44515 0.10786 0.02281 0.0
O361 O 0.45301 0.1023 0.97793 0.0
O362 O 0.5899 0.94553 0.00323 0.0
O363 O 0.58499 0.94787 0.95776 0.0
O364 O 0.62827 0.08265 0.02671 0.0
O365 O 0.62042 0.08293 0.98144 0.0
C366 C 0.45246 0.02028 0.94324 0.0
O367 O 0.43131 0.95655 0.03332 0.0
O368 O 0.42707 0.95092 0.98808 0.0
O369 O 0.58115 1.00023 0.04536 0.0
C370 C 0.4426 0.11614 0.99798 0.0
O371 O 0.43331 0.05693 0.06877 0.0
C372 C 0.58138 0.02493 0.9311 0.0
O373 O 0.57783 0.08584 0.07886 0.0
C374 C 0.597 0.93773 0.97911 0.0
O375 O 0.49216 0.95299 0.0725 0.0
C376 C 0.52889 0.09299 0.95618 0.0
O377 O 0.45658 0.04609 0.94317 0.0
O378 O 0.46326 0.00605 0.96283 0.0
C379 C 0.63649 0.08778 0.00218 0.0
O380 O 0.57207 1.00202 0.92238 0.0
O381 O 0.57608 0.0318 0.9559 0.0
C382 C 0.49827 0.94235 0.92527 0.0
O383 O 0.55589 0.09557 0.95681 0.0
O384 O 0.51743 0.07261 0.96816 0.0
C385 C 0.41666 0.94952 0.0124 0.0
O386 O 0.47443 0.94387 0.93785 0.0
O387 O 0.51983 0.95519 0.93451 0.0
C388 C 0.60552 0.00986 0.03919 0.0
O389 O 0.61509 0.00686 0.01384 0.0
C390 C 0.42819 0.03162 0.07279 0.0
O391 O 0.44246 0.01298 0.05866 0.0
Zn392 Zn 0.95487 0.48466 0.96221 0.0
Zn393 Zn 0.95358 0.55072 0.96933 0.0
O394 O 0.97999 0.51868 0.96182 0.0
H395 H 0.00053 0.51834 0.96368 0.0
C396 C 0.98173 0.44112 0.03281 0.0
O397 O -0.00015 0.45472 0.01727 0.0
Zn398 Zn 0.08318 0.55387 0.05126 0.0
Zn399 Zn 0.09227 0.48768 0.06207 0.0
O400 O 0.06228 0.51801 0.0561 0.0
H401 H 0.0426 0.51475 0.05117 0.0
Zn402 Zn 0.98521 0.49006 0.06981 0.0
O403 O 0.98489 0.52143 0.04204 0.0
Zn404 Zn 0.98449 0.55486 0.06621 0.0
H405 H 0.99324 0.52024 0.02381 0.0
Zn406 Zn 0.06003 0.50032 0.94726 0.0
O407 O 0.05455 0.52922 0.97708 0.0
H408 H 0.04608 0.52563 0.99492 0.0
Zn409 Zn 0.05109 0.56431 0.95545 0.0
C410 C 0.07564 0.45296 0.98377 0.0
O411 O 0.06514 0.46846 0.0036 0.0
O412 O 0.9128 0.49491 0.95529 0.0
O413 O 0.91276 0.54045 0.95996 0.0
O414 O 0.13283 0.50343 0.06638 0.0
O415 O 0.12538 0.54817 0.05952 0.0
O416 O 0.96551 0.50146 0.10612 0.0
O417 O 0.96348 0.54704 0.1022 0.0
C418 C 0.99056 0.58749 0.94111 0.0
O419 O 0.08001 0.51649 0.91298 0.0
O420 O 0.07415 0.56141 0.91979 0.0
O421 O 0.08398 0.45448 0.08853 0.0
C422 C 0.8998 0.51804 0.95472 0.0
O423 O 0.96855 0.44894 0.94212 0.0
C424 C 0.04113 0.58302 0.08206 0.0
O425 O 0.97328 0.45163 0.05543 0.0
C426 C 0.14203 0.52801 0.06516 0.0
O427 O 0.07505 0.46174 0.95903 0.0
C428 C 0.95634 0.58442 0.02171 0.0
O429 O 0.96432 0.58294 0.94571 0.0
O430 O 0.00877 0.57045 0.95071 0.0
C431 C 0.95773 0.52491 0.1153 0.0
O432 O 0.06784 0.58226 0.07759 0.0
O433 O 0.02579 0.56457 0.0711 0.0
C434 C 0.07534 0.59248 0.00226 0.0
O435 O 0.96495 0.58614 0.04652 0.0
O436 O 0.95908 0.56157 0.00914 0.0
C437 C 0.08415 0.54135 0.90567 0.0
O438 O 0.06638 0.59567 0.97771 0.0
O439 O 0.07542 0.56836 0.01269 0.0
C440 C 0.06076 0.44119 0.0908 0.0
O441 O 0.03879 0.44823 0.0754 0.0
C442 C 0.98944 0.44885 0.9253 0.0
O443 O 0.00379 0.47168 0.92142 0.0
Zn444 Zn 0.47494 0.4712 0.98402 0.0
Zn445 Zn 0.47989 0.47102 0.05062 0.0
O446 O 0.48363 0.49516 0.017 0.0
H447 H 0.48087 0.51485 0.01609 0.0
C448 C 0.53586 0.43385 0.92499 0.0
O449 O 0.5202 0.45541 0.93163 0.0
Zn450 Zn 0.55673 0.56156 0.05839 0.0
Zn451 Zn 0.5398 0.55337 0.99491 0.0
O452 O 0.53103 0.53948 0.0342 0.0
H453 H 0.52593 0.52085 0.03892 0.0
Zn454 Zn 0.57415 0.44943 0.97331 0.0
O455 O 0.54998 0.45762 0.00734 0.0
Zn456 Zn 0.5773 0.46113 0.03941 0.0
H457 H 0.53027 0.46367 0.00688 0.0
Zn458 Zn 0.46943 0.58539 0.98982 0.0
O459 O 0.4982 0.5832 0.0215 0.0
H460 H 0.51629 0.59267 0.02149 0.0
Zn461 Zn 0.47534 0.57497 0.05567 0.0
C462 C 0.49478 0.59514 0.93347 0.0
O463 O 0.50403 0.56967 0.93581 0.0
O464 O 0.45124 0.43771 0.99599 0.0
O465 O 0.45336 0.43921 0.04192 0.0
O466 O 0.57147 0.58265 0.99251 0.0
O467 O 0.58383 0.58521 0.0366 0.0
O468 O 0.61502 0.43817 0.98427 0.0
O469 O 0.61672 0.44516 0.02968 0.0
C470 C 0.46173 0.5197 0.08254 0.0
O471 O 0.42955 0.59552 0.00485 0.0
O472 O 0.43486 0.58944 0.05013 0.0
O473 O 0.54043 0.52798 0.96043 0.0
C474 C 0.44421 0.42835 0.01964 0.0
O475 O 0.46096 0.49106 0.94821 0.0
C476 C 0.58688 0.51081 0.07379 0.0
O477 O 0.55785 0.42793 0.93934 0.0
C478 C 0.58732 0.59219 0.01148 0.0
O479 O 0.48046 0.60579 0.95314 0.0
C480 C 0.53488 0.44295 0.07739 0.0
O481 O 0.4624 0.49352 0.08133 0.0
O482 O 0.47456 0.53374 0.06407 0.0
C483 C 0.62839 0.43714 0.00716 0.0
O484 O 0.58086 0.53551 0.08017 0.0
O485 O 0.57816 0.50102 0.05097 0.0
C486 C 0.5164 0.59936 0.0971 0.0
O487 O 0.56147 0.44099 0.07226 0.0
O488 O 0.51936 0.45651 0.06048 0.0
C489 C 0.41972 0.59667 0.02938 0.0
O490 O 0.49142 0.59664 0.08718 0.0
O491 O 0.53793 0.58699 0.08658 0.0
C492 C 0.56229 0.51256 0.95774 0.0
O493 O 0.58024 0.51053 0.97851 0.0
C494 C 0.44218 0.50992 0.95096 0.0
O495 O 0.4336 0.51652 0.97595 0.0
Zn496 Zn 0.95644 0.49527 0.47478 0.0
Zn497 Zn 0.95781 0.55958 0.4695 0.0
O498 O 0.98396 0.52696 0.47011 0.0
H499 H 0.00307 0.52662 0.47765 0.0
C500 C 0.88468 0.47163 0.52378 0.0
O501 O 0.87561 0.4956 0.53291 0.0
Zn502 Zn 0.06374 0.56007 0.55395 0.0
Zn503 Zn 0.07667 0.49606 0.55032 0.0
O504 O 0.04437 0.52408 0.5502 0.0
H505 H 0.02634 0.52158 0.54087 0.0
Zn506 Zn 0.93481 0.48864 0.55453 0.0
O507 O 0.95822 0.51945 0.53876 0.0
Zn508 Zn 0.95741 0.55044 0.56613 0.0
H509 H 0.97257 0.51705 0.52459 0.0
Zn510 Zn 0.08173 0.50267 0.44551 0.0
O511 O 0.06903 0.52981 0.4748 0.0
H512 H 0.06084 0.52462 0.49236 0.0
Zn513 Zn 0.06298 0.56572 0.45483 0.0
C514 C 0.11328 0.46236 0.48027 0.0
O515 O 0.1117 0.48213 0.49869 0.0
O516 O 0.91542 0.50567 0.46294 0.0
O517 O 0.91961 0.54987 0.45163 0.0
O518 O 0.11492 0.51212 0.56359 0.0
O519 O 0.10312 0.55577 0.57185 0.0
O520 O 0.91643 0.49915 0.59131 0.0
O521 O 0.93524 0.5398 0.60156 0.0
C522 C 0.0044 0.59099 0.44527 0.0
O523 O 0.09954 0.52249 0.41247 0.0
O524 O 0.08484 0.56583 0.41774 0.0
O525 O 0.0666 0.45894 0.56854 0.0
C526 C 0.90508 0.5277 0.45253 0.0
O527 O 0.97025 0.45858 0.45753 0.0
C528 C 0.01169 0.58179 0.58065 0.0
O529 O 0.91015 0.46401 0.52917 0.0
C530 C 0.12116 0.53589 0.57272 0.0
O531 O 0.10169 0.46594 0.45681 0.0
C532 C 0.93468 0.58438 0.52325 0.0
O533 O 0.97753 0.59059 0.44953 0.0
O534 O 0.01986 0.57092 0.45328 0.0
C535 C 0.91883 0.51963 0.60746 0.0
O536 O 0.03837 0.58534 0.57668 0.0
O537 O -0.00067 0.5614 0.56956 0.0
C538 C 0.0808 0.59373 0.50385 0.0
O539 O 0.93448 0.58158 0.5493 0.0
O540 O 0.95116 0.56877 0.50936 0.0
C541 C 0.09892 0.54745 0.40441 0.0
O542 O 0.08035 0.59594 0.47774 0.0
O543 O 0.06806 0.57359 0.51499 0.0
C544 C 0.04079 0.45348 0.57445 0.0
O545 O 0.02051 0.47093 0.56729 0.0
C546 C -0.00352 0.45356 0.45263 0.0
O547 O 0.01582 0.47137 0.46047 0.0
Zn548 Zn 0.46051 0.99485 0.4653 0.0
Zn549 Zn 0.45317 0.0599 0.47183 0.0
O550 O 0.48235 0.0308 0.46184 0.0
H551 H 0.49785 0.0326 0.44878 0.0
C552 C 0.43229 0.943 0.56746 0.0
O553 O 0.42568 0.95723 0.58964 0.0
Zn554 Zn 0.58033 0.06008 0.54758 0.0
Zn555 Zn 0.58591 0.99411 0.56049 0.0
O556 O 0.55865 0.02458 0.54875 0.0
H557 H 0.54009 0.0216 0.54062 0.0
Zn558 Zn 0.47631 0.98477 0.56701 0.0
O559 O 0.48018 0.01895 0.54276 0.0
Zn560 Zn 0.48147 0.05141 0.56853 0.0
H561 H 0.48644 0.01885 0.52374 0.0
Zn562 Zn 0.55823 0.00533 0.44141 0.0
O563 O 0.55168 0.03456 0.47116 0.0
H564 H 0.54462 0.03071 0.4895 0.0
Zn565 Zn 0.54825 0.07114 0.45149 0.0
C566 C 0.59335 0.96251 0.47121 0.0
O567 O 0.5956 0.98166 0.49017 0.0
O568 O 0.41782 1.00152 0.45731 0.0
O569 O 0.41424 0.04718 0.45899 0.0
O570 O 0.6236 0.0103 0.57505 0.0
O571 O 0.62087 0.05435 0.56226 0.0
O572 O 0.47007 0.99443 0.60798 0.0
O573 O 0.47014 0.04019 0.60732 0.0
C574 C 0.48769 0.10076 0.44575 0.0
O575 O 0.56708 0.02242 0.4034 0.0
O576 O 0.56162 0.06716 0.41185 0.0
O577 O 0.56894 0.9605 0.58183 0.0
C578 C 0.40333 0.02364 0.45437 0.0
O579 O 0.47683 0.96104 0.44376 0.0
C580 C 0.53579 0.08549 0.58005 0.0
O581 O 0.45354 0.95056 0.55292 0.0
C582 C 0.63428 0.03434 0.57375 0.0
O583 O 0.57845 0.96745 0.44979 0.0
C584 C 0.44834 0.08387 0.52954 0.0
O585 O 0.46205 0.09576 0.45268 0.0
O586 O 0.5067 0.08314 0.45264 0.0
C587 C 0.46724 0.01748 0.62021 0.0
O588 O 0.56202 0.08743 0.57362 0.0
O589 O 0.52157 0.0663 0.56875 0.0
C590 C 0.58163 0.09632 0.4954 0.0
O591 O 0.45568 0.08165 0.55466 0.0
O592 O 0.45538 0.06478 0.5129 0.0
C593 C 0.5678 0.04744 0.39549 0.0
O594 O 0.57235 0.09936 0.47089 0.0
O595 O 0.57608 0.07416 0.5083 0.0
C596 C 0.57316 0.9356 0.57468 0.0
O597 O 0.5886 0.93039 0.5526 0.0
C598 C 0.49812 0.94613 0.45066 0.0
O599 O 0.51206 0.95178 0.47346 0.0
H600 H 0.22546 0.18376 0.51333 0.0
H601 H 0.16571 0.23536 0.55838 0.0
H602 H 0.19254 0.14561 0.51679 0.0
H603 H 0.13199 0.19723 0.56005 0.0
H604 H 0.13101 0.07754 0.53829 0.0
H605 H 0.16315 0.11427 0.55339 0.0
H606 H 0.1082 0.1746 0.51442 0.0
H607 H 0.07662 0.13795 0.49889 0.0
C608 C 0.20572 0.18691 0.52461 0.0
C609 C 0.19828 0.21292 0.53534 0.0
C610 C 0.18681 0.16495 0.52651 0.0
C611 C 0.15983 0.16858 0.53867 0.0
C612 C 0.15273 0.19404 0.55053 0.0
C613 C 0.17193 0.21591 0.54923 0.0
C614 C 0.12542 0.09874 0.53383 0.0
C615 C 0.1015 0.10509 0.51752 0.0
C616 C 0.14379 0.11965 0.5423 0.0
C617 C 0.13799 0.14715 0.53509 0.0
C618 C 0.11291 0.15358 0.52051 0.0
C619 C 0.09499 0.13267 0.5115 0.0
H620 H 0.81193 0.20422 0.53352 0.0
H621 H 0.82028 0.20744 0.44484 0.0
H622 H 0.85545 0.17608 0.53635 0.0
H623 H 0.86366 0.17853 0.44759 0.0
H624 H 0.90609 0.09096 0.47959 0.0
H625 H 0.87026 0.12575 0.46753 0.0
H626 H 0.91079 0.18298 0.52275 0.0
H627 H 0.94762 0.14859 0.53335 0.0
C628 C 0.82319 0.19886 0.51468 0.0
C629 C 0.81295 0.20779 0.48899 0.0
C630 C 0.84809 0.18301 0.51629 0.0
C631 C 0.86286 0.17544 0.49218 0.0
C632 C 0.85261 0.1843 0.46641 0.0
C633 C 0.82796 0.20073 0.46485 0.0
C634 C 0.90845 0.11145 0.48756 0.0
C635 C 0.93007 0.11726 0.50662 0.0
C636 C 0.88767 0.13125 0.48112 0.0
C637 C 0.88789 0.15693 0.49428 0.0
C638 C 0.91027 0.16326 0.51237 0.0
C639 C 0.93127 0.14362 0.51839 0.0
H640 H 0.84803 0.82686 0.46241 0.0
H641 H 0.79062 0.87137 0.51677 0.0
H642 H 0.88499 0.86137 0.47077 0.0
H643 H 0.8269 0.90614 0.52374 0.0
H644 H 0.88481 0.97775 0.50135 0.0
H645 H 0.85221 0.94115 0.4882 0.0
H646 H 0.91263 0.88024 0.51742 0.0
H647 H 0.94534 0.9169 0.53112 0.0
C648 C 0.84328 0.84384 0.47615 0.0
C649 C 0.81616 0.8465 0.4886 0.0
C650 C 0.86436 0.8636 0.48076 0.0
C651 C 0.85847 0.88648 0.49751 0.0
C652 C 0.83167 0.88891 0.51028 0.0
C653 C 0.81087 0.86904 0.50612 0.0
C654 C 0.89138 0.95658 0.50467 0.0
C655 C 0.91747 0.9502 0.51761 0.0
C656 C 0.8727 0.93569 0.49717 0.0
C657 C 0.87995 0.90804 0.50203 0.0
C658 C 0.9067 0.90148 0.51345 0.0
C659 C 0.92527 0.92243 0.52137 0.0
H660 H 0.22357 0.8322 0.49119 0.0
H661 H 0.16347 0.8135 0.55633 0.0
H662 H 0.19593 0.87333 0.47953 0.0
H663 H 0.13569 0.85453 0.54445 0.0
H664 H 0.07712 0.9101 0.49096 0.0
H665 H 0.10562 0.87046 0.50553 0.0
H666 H 0.18245 0.91876 0.49873 0.0
H667 H 0.15404 0.95836 0.48385 0.0
C668 C 0.20465 0.83704 0.50323 0.0
C669 C 0.19567 0.81955 0.52464 0.0
C670 C 0.18882 0.86059 0.49653 0.0
C671 C 0.16362 0.8671 0.51105 0.0
C672 C 0.1548 0.84981 0.53265 0.0
C673 C 0.17069 0.82631 0.53942 0.0
C674 C 0.10007 0.9123 0.49266 0.0
C675 C 0.11334 0.93733 0.48611 0.0
C676 C 0.11637 0.88964 0.50116 0.0
C677 C 0.14626 0.89151 0.50319 0.0
C678 C 0.15948 0.91663 0.49702 0.0
C679 C 0.14318 0.93934 0.48863 0.0
H680 H 0.48026 0.173 0.23036 0.0
H681 H 0.54703 0.22513 0.19841 0.0
H682 H 0.49041 0.13931 0.19405 0.0
H683 H 0.55677 0.19182 0.16196 0.0
H684 H 0.58852 0.11346 0.12149 0.0
H685 H 0.57695 0.14433 0.15943 0.0
H686 H 0.48694 0.13552 0.14213 0.0
H687 H 0.49844 0.10434 0.10405 0.0
C688 C 0.49708 0.17722 0.21557 0.0
C689 C 0.51289 0.20164 0.21717 0.0
C690 C 0.50272 0.15808 0.19472 0.0
C691 C 0.52446 0.16292 0.17531 0.0
C692 C 0.54012 0.18741 0.17686 0.0
C693 C 0.53436 0.2066 0.19753 0.0
C694 C 0.56622 0.11789 0.12584 0.0
C695 C 0.54439 0.10661 0.1096 0.0
C696 C 0.55964 0.1357 0.14749 0.0
C697 C 0.53108 0.14254 0.1535 0.0
C698 C 0.50914 0.13051 0.13797 0.0
C699 C 0.51574 0.11274 0.11614 0.0
H700 H 0.793 0.53792 0.18227 0.0
H701 H 0.83303 0.48663 0.24429 0.0
H702 H 0.83944 0.54606 0.16118 0.0
H703 H 0.87978 0.49559 0.22373 0.0
H704 H 0.94341 0.48271 0.14981 0.0
H705 H 0.90294 0.48111 0.18118 0.0
H706 H 0.88618 0.56743 0.1664 0.0
H707 H 0.92652 0.56897 0.13443 0.0
C708 C 0.81177 0.52852 0.1915 0.0
C709 C 0.80929 0.51131 0.21471 0.0
C710 C 0.83847 0.53355 0.17968 0.0
C711 C 0.86335 0.5215 0.19079 0.0
C712 C 0.86099 0.50501 0.21457 0.0
C713 C 0.83424 0.50001 0.22643 0.0
C714 C 0.93153 0.50154 0.15367 0.0
C715 C 0.93791 0.52584 0.13918 0.0
C716 C 0.90836 0.50064 0.17183 0.0
C717 C 0.89103 0.52403 0.17594 0.0
C718 C 0.89881 0.54892 0.16322 0.0
C719 C 0.92208 0.54985 0.14507 0.0
H720 H 0.52676 0.85657 0.2313 0.0
H721 H 0.58128 0.81338 0.17343 0.0
H722 H 0.52324 0.89517 0.19944 0.0
H723 H 0.57619 0.85114 0.14082 0.0
H724 H 0.57173 0.92663 0.08858 0.0
H725 H 0.58495 0.89758 0.12779 0.0
H726 H 0.49791 0.90202 0.15779 0.0
H727 H 0.48508 0.93164 0.11944 0.0
C728 C 0.53839 0.85545 0.21198 0.0
C729 C 0.554 0.83167 0.2048 0.0
C730 C 0.53605 0.87747 0.19352 0.0
C731 C 0.54901 0.87614 0.16733 0.0
C732 C 0.56601 0.85303 0.16082 0.0
C733 C 0.56859 0.83114 0.17939 0.0
C734 C 0.55558 0.92176 0.10384 0.0
C735 C 0.52728 0.93118 0.10071 0.0
C736 C 0.56311 0.90499 0.12623 0.0
C737 C 0.54246 0.8972 0.14586 0.0
C738 C 0.51452 0.90782 0.14336 0.0
C739 C 0.50707 0.92469 0.12115 0.0
H740 H 0.23324 0.53032 0.20481 0.0
H741 H 0.27598 0.59876 0.16622 0.0
H742 H 0.21331 0.51711 0.16051 0.0
H743 H 0.25605 0.58543 0.12137 0.0
H744 H 0.16647 0.57832 0.07348 0.0
H745 H 0.20552 0.58777 0.10497 0.0
H746 H 0.22239 0.50064 0.11303 0.0
H747 H 0.18297 0.49101 0.08185 0.0
C748 C 0.23868 0.54226 0.18666 0.0
C749 C 0.2557 0.56575 0.18888 0.0
C750 C 0.22762 0.53451 0.1612 0.0
C751 C 0.23317 0.55022 0.13741 0.0
C752 C 0.2514 0.57299 0.13938 0.0
C753 C 0.26279 0.58058 0.16494 0.0
C754 C 0.17908 0.56116 0.08117 0.0
C755 C 0.17096 0.53386 0.07591 0.0
C756 C 0.20163 0.56662 0.09916 0.0
C757 C 0.21647 0.54489 0.11204 0.0
C758 C 0.21082 0.51775 0.10387 0.0
C759 C 0.18826 0.51227 0.08593 0.0
H760 H 0.47808 0.84848 0.77386 0.0
H761 H 0.54833 0.80906 0.81659 0.0
H762 H 0.47387 0.88218 0.81093 0.0
H763 H 0.54368 0.84243 0.85407 0.0
H764 H 0.54738 0.92547 0.89913 0.0
H765 H 0.55162 0.8925 0.86127 0.0
H766 H 0.45976 0.88405 0.85982 0.0
H767 H 0.45541 0.91715 0.89723 0.0
C768 C 0.49255 0.847 0.79125 0.0
C769 C 0.51359 0.82623 0.79234 0.0
C770 C 0.49002 0.86616 0.81254 0.0
C771 C 0.50854 0.86501 0.83531 0.0
C772 C 0.52936 0.84402 0.83658 0.0
C773 C 0.53179 0.82474 0.81533 0.0
C774 C 0.5281 0.91674 0.89056 0.0
C775 C 0.50108 0.92385 0.90123 0.0
C776 C 0.53055 0.8977 0.86907 0.0
C777 C 0.50603 0.88559 0.85773 0.0
C778 C 0.47902 0.89317 0.86801 0.0
C779 C 0.47656 0.91205 0.88954 0.0
H780 H 0.21346 0.53283 0.77547 0.0
H781 H 0.24035 0.59397 0.83443 0.0
H782 H 0.16693 0.53061 0.79792 0.0
H783 H 0.19428 0.59073 0.85771 0.0
H784 H 0.10375 0.59128 0.88735 0.0
H785 H 0.14318 0.59929 0.85533 0.0
H786 H 0.15012 0.51181 0.84074 0.0
H787 H 0.11052 0.50385 0.87205 0.0
C788 C 0.20935 0.54608 0.79301 0.0
C789 C 0.23074 0.56349 0.80323 0.0
C790 C 0.18274 0.54457 0.80606 0.0
C791 C 0.17689 0.56034 0.82973 0.0
C792 C 0.19791 0.57849 0.83936 0.0
C793 C 0.2245 0.58006 0.82625 0.0
C794 C 0.11329 0.57381 0.87685 0.0
C795 C 0.10417 0.54688 0.88258 0.0
C796 C 0.13605 0.5784 0.85866 0.0
C797 C 0.1501 0.55618 0.84575 0.0
C798 C 0.13972 0.52945 0.85013 0.0
C799 C 0.11702 0.52487 0.86826 0.0
H800 H 0.51604 0.23239 0.85723 0.0
H801 H 0.44 0.19062 0.83031 0.0
H802 H 0.52247 0.19907 0.89385 0.0
H803 H 0.44555 0.15741 0.86817 0.0
H804 H 0.49313 0.08462 0.91311 0.0
H805 H 0.4746 0.11988 0.88174 0.0
H806 H 0.50663 0.18304 0.93616 0.0
H807 H 0.52688 0.14758 0.9661 0.0
C808 C 0.5003 0.21631 0.85963 0.0
C809 C 0.47745 0.21412 0.8411 0.0
C810 C 0.5038 0.19726 0.88083 0.0
C811 C 0.48428 0.17565 0.88439 0.0
C812 C 0.46109 0.17365 0.86598 0.0
C813 C 0.45784 0.19263 0.84437 0.0
C814 C 0.49552 0.1061 0.91851 0.0
C815 C 0.51163 0.11363 0.94161 0.0
C816 C 0.48486 0.12635 0.90063 0.0
C817 C 0.48979 0.1544 0.90597 0.0
C818 C 0.50337 0.16168 0.93081 0.0
C819 C 0.5147 0.14146 0.94816 0.0
H820 H 0.73966 0.48566 0.86962 0.0
H821 H 0.77818 0.55719 0.83214 0.0
H822 H 0.77413 0.48751 0.90702 0.0
H823 H 0.8138 0.55799 0.86871 0.0
H824 H 0.86665 0.47495 0.93887 0.0
H825 H 0.82378 0.47705 0.91097 0.0
H826 H 0.82301 0.56576 0.91711 0.0
H827 H 0.86668 0.56376 0.9445 0.0
C828 C 0.7553 0.50197 0.86948 0.0
C829 C 0.75621 0.52124 0.84781 0.0
C830 C 0.77526 0.50283 0.8908 0.0
C831 C 0.7968 0.52281 0.89083 0.0
C832 C 0.79727 0.54253 0.86954 0.0
C833 C 0.77714 0.5418 0.84831 0.0
C834 C 0.85709 0.49492 0.9348 0.0
C835 C 0.87041 0.5192 0.94354 0.0
C836 C 0.83234 0.49611 0.91886 0.0
C837 C 0.82019 0.52161 0.91145 0.0
C838 C 0.83223 0.54583 0.92198 0.0
C839 C 0.85711 0.54465 0.93789 0.0
H840 H 0.74042 0.69337 0.00793 0.0
H841 H 0.68702 0.72401 0.94179 0.0
H842 H 0.7066 0.65623 0.01618 0.0
H843 H 0.65264 0.68787 0.95088 0.0
H844 H 0.60562 0.60759 0.96003 0.0
H845 H 0.64393 0.63938 0.94862 0.0
H846 H 0.65925 0.65266 0.03552 0.0
H847 H 0.62162 0.62038 0.04694 0.0
C848 C 0.72164 0.69199 0.99497 0.0
C849 C 0.71625 0.71173 0.97437 0.0
C850 C 0.70209 0.67094 -9e-05 0.0
C851 C 0.67678 0.66924 0.98436 0.0
C852 C 0.672 0.6884 0.96309 0.0
C853 C 0.69155 0.70933 0.95809 0.0
C854 C 0.61721 0.61724 0.97669 0.0
C855 C 0.61047 0.61151 0.00439 0.0
C856 C 0.63913 0.63551 0.97015 0.0
C857 C 0.65468 0.64855 0.99116 0.0
C858 C 0.64806 0.64262 0.01884 0.0
C859 C 0.62627 0.62428 0.02537 0.0
H860 H 0.26407 0.68277 0.0854 0.0
H861 H 0.30173 0.72927 0.0187 0.0
H862 H 0.30105 0.64727 0.07998 0.0
H863 H 0.33894 0.69425 0.01374 0.0
H864 H 0.38201 0.61527 0.99047 0.0
H865 H 0.34129 0.64587 0.99767 0.0
H866 H 0.35376 0.64088 0.08585 0.0
H867 H 0.39446 0.60995 0.0788 0.0
C868 C 0.28038 0.68547 0.06974 0.0
C869 C 0.28004 0.70877 0.05246 0.0
C870 C 0.30156 0.66524 0.06672 0.0
C871 C 0.32264 0.66784 0.04622 0.0
C872 C 0.32265 0.69145 0.0294 0.0
C873 C 0.30161 0.71171 0.03251 0.0
C874 C 0.37584 0.62027 0.01145 0.0
C875 C 0.39181 0.61049 0.03404 0.0
C876 C 0.35263 0.63799 0.01554 0.0
C877 C 0.34479 0.64624 0.04228 0.0
C878 C 0.35939 0.63492 0.06499 0.0
C879 C 0.38271 0.6172 0.06092 0.0
H880 H 0.32183 0.29872 0.98645 0.0
H881 H 0.28745 0.34438 0.05565 0.0
H882 H 0.36606 0.32419 0.98965 0.0
H883 H 0.33126 0.37119 0.05768 0.0
H884 H 0.42108 0.40421 0.06582 0.0
H885 H 0.38211 0.37107 0.06753 0.0
H886 H 0.37964 0.36989 0.97835 0.0
H887 H 0.41878 0.40212 0.9766 0.0
C888 C 0.32377 0.31398 0.00258 0.0
C889 C 0.30097 0.31951 0.02078 0.0
C890 C 0.34906 0.32886 0.00417 0.0
C891 C 0.35213 0.34993 0.02373 0.0
C892 C 0.32971 0.35494 0.0425 0.0
C893 C 0.30443 0.33985 0.04107 0.0
C894 C 0.41248 0.39653 0.0466 0.0
C895 C 0.42297 0.40597 0.02108 0.0
C896 C 0.39002 0.3777 0.04759 0.0
C897 C 0.37764 0.36793 0.02309 0.0
C898 C 0.38888 0.37665 0.99764 0.0
C899 C 0.41129 0.39533 0.99664 0.0
H900 H 0.77943 0.33836 0.96715 0.0
H901 H 0.73511 0.29937 0.03489 0.0
H902 H 0.74991 0.37946 0.97304 0.0
H903 H 0.7046 0.33982 0.0398 0.0
H904 H 0.65903 0.41936 0.05228 0.0
H905 H 0.69992 0.38773 0.05206 0.0
H906 H 0.70121 0.39012 0.96288 0.0
H907 H 0.66121 0.42206 0.96309 0.0
C908 C 0.76362 0.33864 0.9835 0.0
C909 C 0.75943 0.3154 0.00033 0.0
C910 C 0.7465 0.36214 0.98672 0.0
C911 C 0.72469 0.36292 0.00675 0.0
C912 C 0.72134 0.34012 0.02434 0.0
C913 C 0.73854 0.31669 0.02121 0.0
C914 C 0.66854 0.41367 0.03267 0.0
C915 C 0.65653 0.42289 0.00769 0.0
C916 C 0.69182 0.39535 0.03254 0.0
C917 C 0.70358 0.386 0.00744 0.0
C918 C 0.69289 0.39693 0.98261 0.0
C919 C 0.66972 0.41517 0.98274 0.0
H920 H 0.96297 0.71892 0.68655 0.0
H921 H -0.00041 0.65146 0.73332 0.0
H922 H 0.95836 0.6887 0.64656 0.0
H923 H -0.00615 0.62134 0.69389 0.0
H924 H 0.97545 0.56877 0.62232 0.0
H925 H 0.95954 0.59926 0.65956 0.0
H926 H -0.00027 0.66781 0.61847 0.0
H927 H 0.01531 0.63731 0.5813 0.0
C928 C 0.96958 0.69761 0.6885 0.0
C929 C 0.98206 0.68778 0.71309 0.0
C930 C 0.9667 0.6803 0.66568 0.0
C931 C 0.97575 0.65273 0.66716 0.0
C932 C 0.98627 0.6424 0.69229 0.0
C933 C 0.98954 0.65975 0.71495 0.0
C934 C 0.97954 0.59058 0.62064 0.0
C935 C -0.00378 0.60085 0.59892 0.0
C936 C 0.97081 0.60794 0.64208 0.0
C937 C 0.9785 0.63584 0.64191 0.0
C938 C 0.99321 0.64647 0.61899 0.0
C939 C 0.00224 0.62905 0.59779 0.0
H940 H 0.36378 0.97772 0.76054 0.0
H941 H 0.33693 0.05604 0.7265 0.0
H942 H 0.41007 0.98261 0.73857 0.0
H943 H 0.38222 0.05975 0.70253 0.0
H944 H 0.46001 0.06202 0.65433 0.0
H945 H 0.43187 0.0635 0.69671 0.0
H946 H 0.42075 0.97533 0.69217 0.0
H947 H 0.44967 0.97376 0.65096 0.0
C948 C 0.36789 0.99633 0.74893 0.0
C949 C 0.34626 0.01616 0.74467 0.0
C950 C 0.39442 0.99895 0.73599 0.0
C951 C 0.39965 0.0211 0.71801 0.0
C952 C 0.3791 0.04232 0.71612 0.0
C953 C 0.35281 0.03997 0.7295 0.0
C954 C 0.45221 0.04288 0.66289 0.0
C955 C 0.45642 0.01785 0.64889 0.0
C956 C 0.43597 0.04374 0.68713 0.0
C957 C 0.42339 0.01966 0.69759 0.0
C958 C 0.43012 0.99435 0.685 0.0
C959 C 0.44658 0.99344 0.66104 0.0
H960 H 0.04188 0.33443 0.70673 0.0
H961 H 0.96889 0.31062 0.65803 0.0
H962 H 0.05099 0.37234 0.67487 0.0
H963 H 0.97845 0.34809 0.62573 0.0
H964 H 0.98825 0.43681 0.5924 0.0
H965 H 0.97768 0.39894 0.62383 0.0
H966 H 0.06743 0.37744 0.62665 0.0
H967 H 0.07812 0.41545 0.59555 0.0
C968 C 0.02767 0.33745 0.68934 0.0
C969 C 0.00468 0.3196 0.68484 0.0
C970 C 0.03308 0.35892 0.67093 0.0
C971 C 0.01554 0.36303 0.64772 0.0
C972 C 0.99223 0.34551 0.64352 0.0
C973 C 0.98689 0.32396 0.66187 0.0
C974 C 0.0057 0.42389 0.59957 0.0
C975 C 0.03404 0.42921 0.59159 0.0
C976 C -0.00038 0.40217 0.6175 0.0
C977 C 0.02176 0.3854 0.62786 0.0
C978 C 0.05 0.39033 0.61936 0.0
C979 C 0.05607 0.41197 0.60138 0.0
H980 H 0.76207 0.03337 0.70535 0.0
H981 H 0.6991 0.0974 0.71911 0.0
H982 H 0.74395 0.02703 0.65848 0.0
H983 H 0.68051 0.09057 0.67278 0.0
H984 H 0.66823 0.99755 0.60157 0.0
H985 H 0.70001 0.00784 0.63969 0.0
H986 H 0.69007 0.09478 0.62333 0.0
H987 H 0.65772 0.08457 0.58537 0.0
C988 C 0.74459 0.0463 0.69825 0.0
C989 C 0.73183 0.06572 0.716 0.0
C990 C 0.73413 0.04257 0.67148 0.0
C991 C 0.71082 0.05831 0.66185 0.0
C992 C 0.69876 0.07837 0.67933 0.0
C993 C 0.70912 0.08201 0.70606 0.0
C994 C 0.67339 0.01887 0.60554 0.0
C995 C 0.65983 0.04024 0.59078 0.0
C996 C 0.69176 0.02476 0.62741 0.0
C997 C 0.69704 0.05216 0.63495 0.0
C998 C 0.68585 0.07347 0.61841 0.0
C999 C 0.66749 0.06758 0.59648 0.0
H1000 H -0.00014 0.353 0.30892 0.0
H1001 H 0.07541 0.3238 0.35134 0.0
H1002 H 0.98854 0.38295 0.34777 0.0
H1003 H 0.06372 0.35344 0.39064 0.0
H1004 H 0.04996 0.43876 0.43457 0.0
H1005 H 0.06201 0.40377 0.40029 0.0
H1006 H 0.97331 0.38004 0.39641 0.0
H1007 H 0.96115 0.41511 0.43035 0.0
C1008 C 0.01401 0.35298 0.3266 0.0
C1009 C 0.03858 0.33618 0.32706 0.0
C1010 C 0.00737 0.36988 0.34898 0.0
C1011 C 0.02519 0.37045 0.3723 0.0
C1012 C 0.04968 0.35352 0.37288 0.0
C1013 C 0.05624 0.33644 0.35051 0.0
C1014 C 0.03309 0.42583 0.42669 0.0
C1015 C 0.00454 0.42996 0.43493 0.0
C1016 C 0.04003 0.40572 0.40713 0.0
C1017 C 0.01853 0.38943 0.39541 0.0
C1018 C 0.99024 0.39265 0.40471 0.0
C1019 C 0.98332 0.41265 0.42428 0.0
H1020 H 0.69182 0.11806 0.29873 0.0
H1021 H 0.67355 0.04665 0.24906 0.0
H1022 H 0.6474 0.11173 0.32379 0.0
H1023 H 0.62818 0.04108 0.27319 0.0
H1024 H 0.56916 0.09756 0.36954 0.0
H1025 H 0.59683 0.10949 0.32862 0.0
H1026 H 0.62089 0.02399 0.3187 0.0
H1027 H 0.59259 0.01201 0.35876 0.0
C1028 C 0.67784 0.10149 0.29263 0.0
C1029 C 0.68647 0.08249 0.27242 0.0
C1030 C 0.65213 0.09803 0.30676 0.0
C1031 C 0.63439 0.07557 0.30083 0.0
C1032 C 0.64165 0.05825 0.27862 0.0
C1033 C 0.66752 0.06162 0.2646 0.0
C1034 C 0.57979 0.08124 0.35819 0.0
C1035 C 0.57926 0.05393 0.36779 0.0
C1036 C 0.5957 0.0881 0.33477 0.0
C1037 C 0.61156 0.06782 0.32066 0.0
C1038 C 0.60884 0.04018 0.32886 0.0
C1039 C 0.59276 0.0333 0.35209 0.0
H1040 H 0.06918 0.70632 0.32213 0.0
H1041 H 0.98816 0.7358 0.35353 0.0
H1042 H 0.07076 0.67125 0.35843 0.0
H1043 H 0.98893 0.70043 0.38887 0.0
H1044 H -0.0026 0.64455 0.45844 0.0
H1045 H 0.00918 0.68412 0.42968 0.0
H1046 H 0.04809 0.62953 0.36966 0.0
H1047 H 0.03748 0.59035 0.39937 0.0
C1048 C 0.05177 0.70526 0.33687 0.0
C1049 C 0.02858 0.72371 0.33516 0.0
C1050 C 0.05261 0.68519 0.3576 0.0
C1051 C 0.03006 0.68301 0.37674 0.0
C1052 C 0.0071 0.70185 0.37507 0.0
C1053 C 0.00648 0.72206 0.35466 0.0
C1054 C 0.00928 0.64129 0.43948 0.0
C1055 C 0.01675 0.61466 0.43102 0.0
C1056 C 0.01576 0.66383 0.42284 0.0
C1057 C 0.02898 0.66002 0.39699 0.0
C1058 C 0.03812 0.63337 0.38948 0.0
C1059 C 0.03215 0.61087 0.40648 0.0
H1060 H 0.31597 0.02619 0.30602 0.0
H1061 H 0.25382 0.98116 0.35375 0.0
H1062 H 0.34424 0.03353 0.3477 0.0
H1063 H 0.28227 0.98841 0.39559 0.0
H1064 H 0.37026 0.97818 0.44651 0.0
H1065 H 0.33303 0.97306 0.4117 0.0
H1066 H 0.33719 0.05994 0.39371 0.0
H1067 H 0.37427 0.06527 0.42855 0.0
C1068 C 0.30855 0.01767 0.32541 0.0
C1069 C 0.28287 0.00303 0.32676 0.0
C1070 C 0.32446 0.02218 0.34928 0.0
C1071 C 0.31514 0.01186 0.37484 0.0
C1072 C 0.28976 0.9967 0.37612 0.0
C1073 C 0.2736 0.99253 0.35228 0.0
C1074 C 0.36262 0.99636 0.43574 0.0
C1075 C 0.37559 0.02203 0.43993 0.0
C1076 C 0.34132 0.9934 0.41584 0.0
C1077 C 0.33282 0.01601 0.3997 0.0
C1078 C 0.34383 0.04212 0.40563 0.0
C1079 C 0.36487 0.04517 0.42575 0.0
H1080 H 0.04164 0.19906 0.29878 0.0
H1081 H 0.10507 0.219 0.35999 0.0
H1082 H 0.0247 0.16146 0.3279 0.0
H1083 H 0.0878 0.18183 0.38946 0.0
H1084 H 0.05985 0.10118 0.42994 0.0
H1085 H 0.08194 0.13243 0.3966 0.0
H1086 H -0.0019 0.15958 0.37038 0.0
H1087 H 0.97629 0.12817 0.40278 0.0
C1088 C 0.05214 0.19524 0.31834 0.0
C1089 C 0.07454 0.21207 0.32724 0.0
C1090 C 0.04235 0.17379 0.33513 0.0
C1091 C 0.05467 0.16877 0.36121 0.0
C1092 C 0.07795 0.18489 0.36946 0.0
C1093 C 0.08775 0.2063 0.35265 0.0
C1094 C 0.0462 0.1136 0.4169 0.0
C1095 C 0.0163 0.11197 0.4191 0.0
C1096 C 0.05884 0.13165 0.39785 0.0
C1097 C 0.0418 0.14842 0.38059 0.0
C1098 C 0.01194 0.14664 0.38284 0.0
C1099 C -0.00058 0.12873 0.40176 0.0
H1100 H 0.81051 0.04276 0.27838 0.0
H1101 H 0.77401 0.11374 0.31931 0.0
H1102 H 0.842 0.03497 0.31757 0.0
H1103 H 0.80463 0.10515 0.3592 0.0
H1104 H 0.88576 0.09313 0.41389 0.0
H1105 H 0.85333 0.10475 0.37617 0.0
H1106 H 0.8359 0.01842 0.36419 0.0
H1107 H 0.86881 0.00676 0.40128 0.0
C1108 C 0.80955 0.057 0.29553 0.0
C1109 C 0.78968 0.07882 0.29575 0.0
C1110 C 0.82722 0.05222 0.31826 0.0
C1111 C 0.82535 0.06906 0.3418 0.0
C1112 C 0.80655 0.09174 0.34145 0.0
C1113 C 0.78893 0.09659 0.31865 0.0
C1114 C 0.87453 0.07667 0.40359 0.0
C1115 C 0.88015 0.04899 0.41034 0.0
C1116 C 0.85601 0.08334 0.3819 0.0
C1117 C 0.84262 0.06247 0.3667 0.0
C1118 C 0.84661 0.03495 0.37489 0.0
C1119 C 0.86521 0.02828 0.39639 0.0
H1120 H 0.04348 0.83861 0.28594 0.0
H1121 H 0.96885 0.80593 0.32637 0.0
H1122 H 0.03479 0.88333 0.30815 0.0
H1123 H 0.95986 0.85032 0.34817 0.0
H1124 H 0.97652 0.9155 0.41244 0.0
H1125 H 0.98494 0.87416 0.38532 0.0
H1126 H 0.00181 0.92389 0.31322 0.0
H1127 H 0.9937 0.96554 0.34053 0.0
C1128 C 0.02476 0.84131 0.29888 0.0
C1129 C 0.00687 0.81894 0.30457 0.0
C1130 C 0.01984 0.86679 0.3117 0.0
C1131 C -0.00302 0.87016 0.3304 0.0
C1132 C 0.97806 0.8482 0.33445 0.0
C1133 C 0.98299 0.82289 0.32175 0.0
C1134 C 0.98219 0.91772 0.39086 0.0
C1135 C 0.9842 0.94386 0.37864 0.0
C1136 C 0.98679 0.89398 0.37523 0.0
C1137 C 0.99356 0.89572 0.34698 0.0
C1138 C -0.00341 0.92186 0.33492 0.0
C1139 C 0.99187 0.9457 0.35058 0.0
H1140 H 0.17109 0.97942 0.26678 0.0
H1141 H 0.19954 0.05705 0.29917 0.0
H1142 H 0.12391 0.98728 0.28725 0.0
H1143 H 0.1536 0.06437 0.32091 0.0
H1144 H 0.07874 0.07027 0.3721 0.0
H1145 H 0.10525 0.0701 0.3287 0.0
H1146 H 0.1127 0.98139 0.33354 0.0
H1147 H 0.08503 0.98159 0.37562 0.0
C1148 C 0.16685 0.99863 0.27739 0.0
C1149 C 0.18896 0.01734 0.28208 0.0
C1150 C 0.14 0.00301 0.28948 0.0
C1151 C 0.13516 0.02592 0.30676 0.0
C1152 C 0.15624 0.04639 0.30798 0.0
C1153 C 0.18281 0.04216 0.29563 0.0
C1154 C 0.08554 0.05073 0.36346 0.0
C1155 C 0.08049 0.026 0.37765 0.0
C1156 C 0.10078 0.0506 0.33859 0.0
C1157 C 0.11183 0.02581 0.32777 0.0
C1158 C 0.10449 1.00095 0.34086 0.0
C1159 C 0.08883 1.00105 0.36537 0.0
H1160 H 0.06441 0.79237 0.67064 0.0
H1161 H 0.01061 0.82917 0.73319 0.0
H1162 H 0.06307 0.83507 0.64426 0.0
H1163 H 0.00875 0.87199 0.70649 0.0
H1164 H 0.04438 0.9517 0.66515 0.0
H1165 H 0.03993 0.90965 0.69222 0.0
H1166 H 0.03014 0.86285 0.61714 0.0
H1167 H 0.0352 0.90483 0.59 0.0
C1168 C 0.05228 0.80967 0.67871 0.0
C1169 C 0.03773 0.80753 0.70394 0.0
C1170 C 0.05124 0.83404 0.66347 0.0
C1171 C 0.03555 0.85687 0.67311 0.0
C1172 C 0.02114 0.85481 0.69857 0.0
C1173 C 0.02218 0.83032 0.71385 0.0
C1174 C 0.04093 0.93249 0.6544 0.0
C1175 C 0.04051 0.93158 0.62538 0.0
C1176 C 0.03825 0.90839 0.66996 0.0
C1177 C 0.03507 0.88284 0.65684 0.0
C1178 C 0.03317 0.88214 0.62786 0.0
C1179 C 0.03587 0.90623 0.61231 0.0
H1180 H 0.24455 0.96642 0.71061 0.0
H1181 H 0.24076 0.05465 0.71836 0.0
H1182 H 0.21343 0.96868 0.67059 0.0
H1183 H 0.20753 0.05721 0.67938 0.0
H1184 H 0.16441 0.05591 0.59529 0.0
H1185 H 0.20043 0.05382 0.63188 0.0
H1186 H 0.16739 0.97491 0.6577 0.0
H1187 H 0.13351 0.97616 0.62054 0.0
C1188 C 0.2363 0.98628 0.70404 0.0
C1189 C 0.24446 0.0103 0.71771 0.0
C1190 C 0.21836 0.98768 0.68111 0.0
C1191 C 0.20747 0.01314 0.67168 0.0
C1192 C 0.21568 0.03725 0.68564 0.0
C1193 C 0.23431 0.03584 0.70824 0.0
C1194 C 0.16544 0.0379 0.60847 0.0
C1195 C 0.14628 0.0161 0.60471 0.0
C1196 C 0.18581 0.03681 0.62972 0.0
C1197 C 0.18702 0.01417 0.64799 0.0
C1198 C 0.16793 0.99238 0.64382 0.0
C1199 C 0.14822 0.99316 0.62236 0.0
H1200 H 0.959 0.23132 0.66481 0.0
H1201 H 0.02094 0.19982 0.72308 0.0
H1202 H 0.96628 0.19088 0.63589 0.0
H1203 H 0.02733 0.15878 0.69478 0.0
H1204 H 0.06789 0.12188 0.61694 0.0
H1205 H 0.05202 0.15478 0.65117 0.0
H1206 H 0.96422 0.14133 0.62751 0.0
H1207 H 0.98036 0.10858 0.59231 0.0
C1208 C 0.97358 0.21535 0.67183 0.0
C1209 C 0.98982 0.21901 0.69596 0.0
C1210 C 0.97759 0.19206 0.65533 0.0
C1211 C -0.00214 0.17187 0.66269 0.0
C1212 C 0.01203 0.17429 0.6882 0.0
C1213 C 0.00809 0.19764 0.70464 0.0
C1214 C 0.04514 0.12578 0.61894 0.0
C1215 C 0.02538 0.1124 0.60185 0.0
C1216 C 0.036 0.14447 0.63892 0.0
C1217 C 0.00679 0.15041 0.64248 0.0
C1218 C 0.98689 0.13716 0.62535 0.0
C1219 C -0.00389 0.11832 0.60522 0.0
H1220 H 0.86467 0.00806 0.76881 0.0
H1221 H 0.8403 0.08994 0.74288 0.0
H1222 H 0.89955 0.00561 0.73138 0.0
H1223 H 0.87403 0.08713 0.70464 0.0
H1224 H 0.9486 0.08156 0.64593 0.0
H1225 H 0.92201 0.08563 0.68912 0.0
H1226 H 0.89849 0.99997 0.6833 0.0
H1227 H 0.92589 0.99568 0.64099 0.0
C1228 C 0.86695 0.02559 0.75514 0.0
C1229 C 0.84977 0.04909 0.75866 0.0
C1230 C 0.88673 0.02413 0.73354 0.0
C1231 C 0.88943 0.04603 0.71468 0.0
C1232 C 0.87286 0.06998 0.71889 0.0
C1233 C 0.85336 0.07156 0.74075 0.0
C1234 C 0.93798 0.06354 0.65408 0.0
C1235 C 0.93929 0.03832 0.63995 0.0
C1236 C 0.92259 0.06591 0.67877 0.0
C1237 C 0.90793 0.04318 0.68975 0.0
C1238 C 0.90986 0.01783 0.67585 0.0
C1239 C 0.92547 0.01539 0.65139 0.0
H1240 H 0.31712 0.96536 0.19979 0.0
H1241 H 0.26302 0.02091 0.15328 0.0
H1242 H 0.35599 0.97288 0.1671 0.0
H1243 H 0.30191 0.02822 0.12029 0.0
H1244 H 0.38872 0.06542 0.09683 0.0
H1245 H 0.34805 0.05259 0.12521 0.0
H1246 H 0.37235 0.96694 0.11832 0.0
H1247 H 0.41366 0.97986 0.09014 0.0
C1248 C 0.31339 0.97885 0.18232 0.0
C1249 C 0.28718 0.99289 0.17921 0.0
C1250 C 0.33562 0.98302 0.16352 0.0
C1251 C 0.3321 1.00139 0.14136 0.0
C1252 C 0.30536 0.01427 0.13746 0.0
C1253 C 0.28306 0.00996 0.15617 0.0
C1254 C 0.38553 0.04384 0.10141 0.0
C1255 C 0.40437 0.02362 0.09114 0.0
C1256 C 0.36201 0.03647 0.11742 0.0
C1257 C 0.3568 0.00874 0.12367 0.0
C1258 C 0.37585 0.98849 0.11381 0.0
C1259 C 0.39942 0.99587 0.09763 0.0
H1260 H 0.08968 0.30929 0.21147 0.0
H1261 H 0.00798 0.34603 0.23164 0.0
H1262 H 0.09137 0.33651 0.16894 0.0
H1263 H 0.00996 0.37372 0.18973 0.0
H1264 H 0.01348 0.41077 0.10417 0.0
H1265 H 0.00949 0.3752 0.13967 0.0
H1266 H 0.09884 0.38505 0.15945 0.0
H1267 H 0.10296 0.42012 0.12381 0.0
C1268 C 0.07183 0.32275 0.20654 0.0
C1269 C 0.04884 0.3257 0.22503 0.0
C1270 C 0.07293 0.3386 0.18235 0.0
C1271 C 0.05098 0.3576 0.17605 0.0
C1272 C 0.02718 0.35924 0.19377 0.0
C1273 C 0.02614 0.34351 0.21793 0.0
C1274 C 0.03233 0.40517 0.11594 0.0
C1275 C 0.05848 0.4185 0.11127 0.0
C1276 C 0.03002 0.38483 0.13636 0.0
C1277 C 0.05383 0.37724 0.1525 0.0
C1278 C 0.08015 0.39004 0.14721 0.0
C1279 C 0.08244 0.41039 0.1269 0.0
H1280 H 0.70945 0.99719 0.18091 0.0
H1281 H 0.73905 0.0748 0.14861 0.0
H1282 H 0.67374 0.99495 0.14434 0.0
H1283 H 0.70331 0.0724 0.11164 0.0
H1284 H 0.59473 0.0128 0.09455 0.0
H1285 H 0.6289 0.02271 0.13111 0.0
H1286 H 0.6936 0.04021 0.07002 0.0
H1287 H 0.65958 0.03005 0.03331 0.0
C1288 C 0.70837 0.01368 0.16585 0.0
C1289 C 0.72691 0.03614 0.16752 0.0
C1290 C 0.68779 0.01254 0.14513 0.0
C1291 C 0.68559 0.03368 0.12543 0.0
C1292 C 0.70457 0.05591 0.12667 0.0
C1293 C 0.72496 0.05725 0.14774 0.0
C1294 C 0.6161 0.01913 0.08886 0.0
C1295 C 0.62459 0.02021 0.06105 0.0
C1296 C 0.63565 0.02471 0.1098 0.0
C1297 C 0.66394 0.0318 0.10332 0.0
C1298 C 0.67191 0.03475 0.07554 0.0
C1299 C 0.65245 0.02883 0.05456 0.0
H1300 H 0.01591 0.73374 0.1796 0.0
H1301 H 0.05479 0.66768 0.22626 0.0
H1302 H 0.00556 0.70129 0.14191 0.0
H1303 H 0.04367 0.63538 0.18941 0.0
H1304 H 0.00612 0.57905 0.12703 0.0
H1305 H -0.00101 0.61476 0.16228 0.0
H1306 H 0.04397 0.67293 0.11105 0.0
H1307 H 0.05164 0.6372 0.07634 0.0
C1308 C 0.02172 0.71225 0.18197 0.0
C1309 C 0.0363 0.70314 0.20565 0.0
C1310 C 0.01576 0.69374 0.16053 0.0
C1311 C 0.02351 0.66579 0.16295 0.0
C1312 C 0.03701 0.65667 0.18719 0.0
C1313 C 0.04362 0.6752 0.20813 0.0
C1314 C 0.0134 0.59976 0.12291 0.0
C1315 C 0.02936 0.60549 0.09909 0.0
C1316 C 0.00951 0.6201 0.14309 0.0
C1317 C 0.02102 0.64655 0.13937 0.0
C1318 C 0.03464 0.65285 0.11433 0.0
C1319 C 0.03907 0.6324 0.09452 0.0
H1320 H 0.34009 0.9233 0.8371 0.0
H1321 H 0.30395 0.00519 0.84083 0.0
H1322 H 0.38129 0.93849 0.86383 0.0
H1323 H 0.34505 0.02046 0.86777 0.0
H1324 H 0.43383 0.04476 0.8957 0.0
H1325 H 0.39713 0.02847 0.86413 0.0
H1326 H 0.39073 0.95317 0.91109 0.0
H1327 H 0.42698 0.96954 0.94235 0.0
C1328 C 0.34103 0.94457 0.84369 0.0
C1329 C 0.31907 0.96312 0.83673 0.0
C1330 C 0.36456 0.95326 0.85899 0.0
C1331 C 0.36652 0.98071 0.86778 0.0
C1332 C 0.34442 0.9993 0.86086 0.0
C1333 C 0.32081 0.99054 0.84561 0.0
C1334 C 0.42491 0.02453 0.89909 0.0
C1335 C 0.43361 0.00835 0.92178 0.0
C1336 C 0.40373 0.01531 0.88106 0.0
C1337 C 0.39083 0.98962 0.88522 0.0
C1338 C 0.40041 0.97295 0.90709 0.0
C1339 C 0.42143 0.9823 0.92513 0.0
H1340 H 0.97244 0.30974 0.81494 0.0
H1341 H 0.06355 0.3226 0.81805 0.0
H1342 H 0.96532 0.3454 0.84974 0.0
H1343 H 0.05673 0.35746 0.85363 0.0
H1344 H 0.0315 0.44233 0.88659 0.0
H1345 H 0.03981 0.40316 0.85645 0.0
H1346 H 0.97092 0.35953 0.8964 0.0
H1347 H 0.96175 0.39939 0.92568 0.0
C1348 C 0.99099 0.3198 0.82349 0.0
C1349 C 0.01857 0.31352 0.81375 0.0
C1350 C 0.98696 0.34021 0.84356 0.0
C1351 C 0.01043 0.35459 0.85442 0.0
C1352 C 0.03808 0.34732 0.84537 0.0
C1353 C 0.04205 0.32716 0.82516 0.0
C1354 C 0.01822 0.42433 0.88908 0.0
C1355 C -0.00403 0.42403 0.90859 0.0
C1356 C 0.02312 0.4017 0.87189 0.0
C1357 C 0.00607 0.37803 0.87391 0.0
C1358 C 0.98424 0.37749 0.89394 0.0
C1359 C 0.97918 0.40025 0.91098 0.0
H1360 H 0.67737 0.09918 0.79503 0.0
H1361 H 0.73418 0.04892 0.84457 0.0
H1362 H 0.63989 0.09402 0.82981 0.0
H1363 H 0.69702 0.04427 0.87936 0.0
H1364 H 0.63136 0.04858 0.94492 0.0
H1365 H 0.66708 0.068 0.91385 0.0
H1366 H 0.61065 0.05414 0.84482 0.0
H1367 H 0.57455 0.03584 0.87633 0.0
C1368 C 0.68198 0.08723 0.81341 0.0
C1369 C 0.70877 0.07426 0.81684 0.0
C1370 C 0.66052 0.08438 0.83336 0.0
C1371 C 0.66544 0.0687 0.85731 0.0
C1372 C 0.69265 0.05685 0.86135 0.0
C1373 C 0.71401 0.05954 0.84136 0.0
C1374 C 0.62599 0.05127 0.92338 0.0
C1375 C 0.59989 0.04163 0.91314 0.0
C1376 C 0.64669 0.06172 0.90545 0.0
C1377 C 0.64178 0.06248 0.87684 0.0
C1378 C 0.61499 0.05416 0.86678 0.0
C1379 C 0.59434 0.04362 0.88476 0.0
H1380 H 0.04627 0.70781 0.81699 0.0
H1381 H 0.95479 0.69752 0.81517 0.0
H1382 H 0.04868 0.68154 0.86033 0.0
H1383 H 0.957 0.67152 0.85819 0.0
H1384 H 0.96303 0.63655 0.94117 0.0
H1385 H 0.96828 0.67384 0.90791 0.0
H1386 H 0.04008 0.63122 0.87091 0.0
H1387 H 0.03472 0.59386 0.9044 0.0
C1388 C 0.02665 0.70058 0.82634 0.0
C1389 C 0.00032 0.70468 0.81296 0.0
C1390 C 0.02804 0.68539 0.85092 0.0
C1391 C 0.00305 0.67447 0.86266 0.0
C1392 C 0.9766 0.67996 0.84992 0.0
C1393 C 0.97528 0.69476 0.82526 0.0
C1394 C 0.98039 0.63547 0.92635 0.0
C1395 C -0.00157 0.61223 0.92521 0.0
C1396 C 0.98334 0.65679 0.90728 0.0
C1397 C 0.00429 0.65527 0.88653 0.0
C1398 C 0.02385 0.63309 0.88679 0.0
C1399 C 0.02091 0.6117 0.90602 0.0
H1400 H 0.20437 0.34685 0.05097 0.0
H1401 H 0.17629 0.3015 0.97946 0.0
H1402 H 0.16473 0.37903 0.045 0.0
H1403 H 0.13569 0.33261 0.97456 0.0
H1404 H 0.10165 0.41777 0.94767 0.0
H1405 H 0.132 0.37855 0.95831 0.0
H1406 H 0.1145 0.38935 0.04531 0.0
H1407 H 0.08462 0.42941 0.03456 0.0
C1408 C 0.18944 0.34342 0.03428 0.0
C1409 C 0.1939 0.32183 0.01542 0.0
C1410 C 0.16644 0.3617 0.03107 0.0
C1411 C 0.14719 0.3587 0.00903 0.0
C1412 C 0.15044 0.3359 0.99142 0.0
C1413 C 0.17357 0.31777 0.99448 0.0
C1414 C 0.10395 0.41165 0.96907 0.0
C1415 C 0.09097 0.42696 0.9903 0.0
C1416 C 0.12122 0.38891 0.97519 0.0
C1417 C 0.12584 0.38074 0.00271 0.0
C1418 C 0.11176 0.3953 0.02391 0.0
C1419 C 0.0945 0.41817 0.01776 0.0
H1420 H 0.17874 0.70854 0.09309 0.0
H1421 H 0.16684 0.73881 0.01018 0.0
H1422 H 0.13916 0.67665 0.08695 0.0
H1423 H 0.12778 0.70649 0.00353 0.0
H1424 H 0.05827 0.64573 0.99567 0.0
H1425 H 0.08146 0.68677 0.01373 0.0
H1426 H 0.14001 0.6351 0.05982 0.0
H1427 H 0.11681 0.59451 0.0417 0.0
C1428 C 0.16687 0.70901 0.0739 0.0
C1429 C 0.17573 0.72598 0.05206 0.0
C1430 C 0.14446 0.69058 0.07025 0.0
C1431 C 0.13071 0.68856 0.04457 0.0
C1432 C 0.13777 0.70755 0.02365 0.0
C1433 C 0.1601 0.72615 0.02741 0.0
C1434 C 0.0757 0.64323 0.01019 0.0
C1435 C 0.08573 0.61681 0.01741 0.0
C1436 C 0.089 0.66673 0.02047 0.0
C1437 C 0.11271 0.66431 0.0381 0.0
C1438 C 0.1215 0.63786 0.04667 0.0
C1439 C 0.10817 0.61441 0.03636 0.0
H1440 H 0.28373 0.19935 0.01516 0.0
H1441 H 0.30955 0.22765 0.93446 0.0
H1442 H 0.3297 0.176 0.02072 0.0
H1443 H 0.35601 0.2051 0.94024 0.0
H1444 H 0.41876 0.13084 0.94846 0.0
H1445 H 0.37721 0.16046 0.94159 0.0
H1446 H 0.3795 0.18366 0.02764 0.0
H1447 H 0.42044 0.15327 0.03473 0.0
C1448 C 0.29932 0.20066 -0.00134 0.0
C1449 C 0.2931 0.21516 0.97432 0.0
C1450 C 0.32583 0.18755 0.00193 0.0
C1451 C 0.34674 0.18882 0.981 0.0
C1452 C 0.34038 0.20343 0.95666 0.0
C1453 C 0.3138 0.21637 0.95335 0.0
C1454 C 0.41083 0.14272 0.9658 0.0
C1455 C 0.42264 0.13929 0.99226 0.0
C1456 C 0.38693 0.15976 0.96185 0.0
C1457 C 0.37453 0.17397 0.98422 0.0
C1458 C 0.38793 0.17235 0.01014 0.0
C1459 C 0.41164 0.15515 0.01414 0.0
H1460 H 0.88956 0.28674 0.01129 0.0
H1461 H 0.88694 0.32962 0.93318 0.0
H1462 H 0.92337 0.3205 0.02891 0.0
H1463 H 0.92057 0.36347 0.95078 0.0
H1464 H 0.99343 0.41307 0.98492 0.0
H1465 H 0.96962 0.37191 0.9677 0.0
H1466 H 0.91788 0.36919 0.04155 0.0
H1467 H 0.942 0.40963 0.05908 0.0
C1468 C 0.89655 0.30313 0.99775 0.0
C1469 C 0.88552 0.30572 0.97091 0.0
C1470 C 0.9158 0.32253 0.00788 0.0
C1471 C 0.92449 0.34477 0.99131 0.0
C1472 C 0.91453 0.34647 0.96399 0.0
C1473 C 0.89517 0.32718 0.95395 0.0
C1474 C 0.97718 0.40351 0.99759 0.0
C1475 C 0.96937 0.41485 0.02323 0.0
C1476 C 0.96346 0.38005 0.98765 0.0
C1477 C 0.94166 0.36749 0.00311 0.0
C1478 C 0.93476 0.37818 0.02923 0.0
C1479 C 0.94846 0.40155 0.03918 0.0
H1480 H 0.70063 0.80085 0.9266 0.0
H1481 H 0.74657 0.82998 0.99777 0.0
H1482 H 0.66851 0.84038 0.9292 0.0
H1483 H 0.71465 0.8702 0.00022 0.0
H1484 H 0.62533 0.90875 0.01936 0.0
H1485 H 0.66444 0.87582 0.01344 0.0
H1486 H 0.66238 0.88938 0.92528 0.0
H1487 H 0.62284 0.9217 0.93106 0.0
C1488 C 0.70433 0.81628 0.94229 0.0
C1489 C 0.72598 0.81247 0.96198 0.0
C1490 C 0.68598 0.83896 0.94379 0.0
C1491 C 0.68882 0.85833 0.9651 0.0
C1492 C 0.71167 0.85541 0.9838 0.0
C1493 C 0.73018 0.83267 0.9822 0.0
C1494 C 0.63321 0.9047 -0.0013 0.0
C1495 C 0.62069 0.91762 0.97566 0.0
C1496 C 0.65587 0.88607 0.99535 0.0
C1497 C 0.66659 0.88001 0.96888 0.0
C1498 C 0.65441 0.89334 0.94591 0.0
C1499 C 0.63169 0.91185 0.94924 0.0
H1500 H 0.84564 0.71285 0.94908 0.0
H1501 H 0.85988 0.72691 0.0359 0.0
H1502 H 0.88202 0.67612 0.94955 0.0
H1503 H 0.89609 0.69064 0.03641 0.0
H1504 H 0.97134 0.6373 0.03029 0.0
H1505 H 0.94414 0.67846 0.01793 0.0
H1506 H 0.88462 0.62864 0.97231 0.0
H1507 H 0.9121 0.58735 0.98469 0.0
C1508 C 0.85694 0.70846 0.96809 0.0
C1509 C 0.8501 0.72271 0.9925 0.0
C1510 C 0.8776 0.68737 0.96839 0.0
C1511 C 0.89201 0.6806 0.99296 0.0
C1512 C 0.88574 0.69564 0.01703 0.0
C1513 C 0.86491 0.71632 0.01681 0.0
C1514 C 0.95284 0.63521 0.01704 0.0
C1515 C 0.94365 0.60911 0.00861 0.0
C1516 C 0.93725 0.65877 0.01002 0.0
C1517 C 0.91197 0.65672 0.99459 0.0
C1518 C 0.90409 0.63087 0.98414 0.0
C1519 C 0.91984 0.60721 0.99115 0.0
H1520 H 0.26362 0.84474 0.01498 0.0
H1521 H 0.30427 0.84259 0.09486 0.0
H1522 H 0.29593 0.8816 0.00048 0.0
H1523 H 0.33671 0.87863 0.08046 0.0
H1524 H 0.38729 0.91554 0.97754 0.0
H1525 H 0.34621 0.88706 0.98912 0.0
H1526 H 0.34085 0.92604 0.06909 0.0
H1527 H 0.3824 0.95365 0.05785 0.0
C1528 C 0.27923 0.85236 0.02951 0.0
C1529 C 0.28146 0.84089 0.05609 0.0
C1530 C 0.29785 0.87333 0.02117 0.0
C1531 C 0.3189 0.88324 0.03931 0.0
C1532 C 0.32046 0.87204 0.06607 0.0
C1533 C 0.30198 0.85119 0.07431 0.0
C1534 C 0.37698 0.9184 0.99738 0.0
C1535 C 0.38846 0.93651 0.017 0.0
C1536 C 0.35332 0.90211 0.004 0.0
C1537 C 0.34052 0.90381 0.03028 0.0
C1538 C 0.35064 0.9236 0.04896 0.0
C1539 C 0.37441 0.93959 0.04247 0.0
H1540 H 0.77805 0.19724 0.95521 0.0
H1541 H 0.74306 0.22151 0.03406 0.0
H1542 H 0.74876 0.15554 0.95613 0.0
H1543 H 0.71384 0.18026 0.03497 0.0
H1544 H 0.6778 0.09685 0.04076 0.0
H1545 H 0.71683 0.12952 0.03804 0.0
H1546 H 0.69584 0.14633 0.95288 0.0
H1547 H 0.6567 0.11336 0.95543 0.0
C1548 C 0.76447 0.1934 0.97292 0.0
C1549 C 0.76272 0.2126 0.99453 0.0
C1550 C 0.74758 0.16969 0.97335 0.0
C1551 C 0.72901 0.16459 0.99562 0.0
C1552 C 0.72817 0.18337 0.01767 0.0
C1553 C 0.74473 0.20712 0.01707 0.0
C1554 C 0.68175 0.10709 0.02125 0.0
C1555 C 0.66369 0.1029 0.99846 0.0
C1556 C 0.7041 0.1259 0.01976 0.0
C1557 C 0.70905 0.14091 0.99544 0.0
C1558 C 0.69256 0.13507 0.97192 0.0
C1559 C 0.67008 0.11621 0.97341 0.0
H1560 H 0.58141 0.69351 0.81153 0.0
H1561 H 0.49316 0.70068 0.78647 0.0
H1562 H 0.56796 0.66042 0.84727 0.0
H1563 H 0.47958 0.66782 0.82257 0.0
H1564 H 0.46901 0.64286 0.9163 0.0
H1565 H 0.48052 0.67057 0.87569 0.0
H1566 H 0.54658 0.61226 0.85315 0.0
H1567 H 0.5349 0.58427 0.89363 0.0
C1568 C 0.55918 0.68767 0.81345 0.0
C1569 C 0.53838 0.69955 0.79621 0.0
C1570 C 0.5515 0.6687 0.83384 0.0
C1571 C 0.52271 0.66158 0.83775 0.0
C1572 C 0.50191 0.67304 0.82009 0.0
C1573 C 0.5097 0.69169 0.79933 0.0
C1574 C 0.4859 0.63585 0.90262 0.0
C1575 C 0.50115 0.61144 0.9083 0.0
C1576 C 0.49232 0.65162 0.87925 0.0
C1577 C 0.51443 0.64357 0.86124 0.0
C1578 C 0.52951 0.61902 0.86674 0.0
C1579 C 0.52277 0.60299 0.88988 0.0
H1580 H 0.32766 0.59623 0.83729 0.0
H1581 H 0.35161 0.5204 0.79709 0.0
H1582 H 0.36404 0.58813 0.87249 0.0
H1583 H 0.38701 0.51133 0.83292 0.0
H1584 H 0.45642 0.50382 0.89626 0.0
H1585 H 0.42987 0.5207 0.85622 0.0
H1586 H 0.36834 0.55945 0.91074 0.0
H1587 H 0.39547 0.54374 0.95035 0.0
C1588 C 0.341 0.57795 0.8359 0.0
C1589 C 0.33683 0.55889 0.8146 0.0
C1590 C 0.36168 0.57312 0.85619 0.0
C1591 C 0.37824 0.54878 0.85599 0.0
C1592 C 0.37498 0.53043 0.83374 0.0
C1593 C 0.35462 0.53555 0.81318 0.0
C1594 C 0.43743 0.51629 0.8996 0.0
C1595 C 0.42792 0.52221 0.92651 0.0
C1596 C 0.42207 0.52585 0.87664 0.0
C1597 C 0.39672 0.54133 0.88006 0.0
C1598 C 0.38793 0.54802 0.90706 0.0
C1599 C 0.40341 0.53876 0.92993 0.0
H1600 H 0.44464 0.31492 0.83121 0.0
H1601 H 0.52763 0.31197 0.79247 0.0
H1602 H 0.45816 0.35625 0.85629 0.0
H1603 H 0.54134 0.35371 0.81737 0.0
H1604 H 0.5665 0.39122 0.9027 0.0
H1605 H 0.55199 0.35971 0.86648 0.0
H1606 H 0.47247 0.40455 0.85717 0.0
H1607 H 0.4869 0.43606 0.89381 0.0
C1608 C 0.4654 0.32387 0.82725 0.0
C1609 C 0.48506 0.3104 0.80985 0.0
C1610 C 0.47322 0.34753 0.84164 0.0
C1611 C 0.501 0.35813 0.83916 0.0
C1612 C 0.51991 0.34584 0.82005 0.0
C1613 C 0.51197 0.3222 0.80547 0.0
C1614 C 0.546 0.39455 0.89282 0.0
C1615 C 0.52772 0.416 0.90145 0.0
C1616 C 0.5378 0.37662 0.87178 0.0
C1617 C 0.51105 0.37956 0.85884 0.0
C1618 C 0.49313 0.40156 0.86684 0.0
C1619 C 0.50142 0.41964 0.88783 0.0
H1620 H 0.66804 0.45876 0.82285 0.0
H1621 H 0.64287 0.54347 0.81153 0.0
H1622 H 0.62747 0.4518 0.85385 0.0
H1623 H 0.60271 0.53696 0.84297 0.0
H1624 H 0.53764 0.52415 0.90751 0.0
H1625 H 0.55887 0.51616 0.86202 0.0
H1626 H 0.6281 0.47079 0.90026 0.0
H1627 H 0.60725 0.47893 0.94525 0.0
C1628 C 0.65287 0.47546 0.82586 0.0
C1629 C 0.65839 0.50161 0.81485 0.0
C1630 C 0.62986 0.47162 0.84388 0.0
C1631 C 0.61228 0.49399 0.85145 0.0
C1632 C 0.61573 0.51924 0.83757 0.0
C1633 C 0.63869 0.52302 0.81943 0.0
C1634 C 0.55696 0.5118 0.90609 0.0
C1635 C 0.57095 0.50244 0.93009 0.0
C1636 C 0.56913 0.50728 0.88001 0.0
C1637 C 0.59529 0.49301 0.87744 0.0
C1638 C 0.60778 0.48158 0.9013 0.0
C1639 C 0.59586 0.48638 0.92727 0.0
H1640 H 0.47412 0.33399 0.21234 0.0
H1641 H 0.56614 0.3361 0.20665 0.0
H1642 H 0.4708 0.37038 0.17687 0.0
H1643 H 0.56298 0.37183 0.17172 0.0
H1644 H 0.55678 0.4491 0.12802 0.0
H1645 H 0.54906 0.42029 0.16827 0.0
H1646 H 0.48265 0.37695 0.12489 0.0
H1647 H 0.48993 0.407 0.08444 0.0
C1648 C 0.49357 0.34247 0.20382 0.0
C1649 C 0.52044 0.33245 0.21243 0.0
C1650 C 0.49167 0.36311 0.18339 0.0
C1651 C 0.51662 0.37427 0.17164 0.0
C1652 C 0.54332 0.36422 0.18065 0.0
C1653 C 0.54516 0.34362 0.20064 0.0
C1654 C 0.53983 0.43412 0.12737 0.0
C1655 C 0.52402 0.4303 0.10312 0.0
C1656 C 0.53557 0.41737 0.15037 0.0
C1657 C 0.51575 0.39582 0.1496 0.0
C1658 C 0.49812 0.39336 0.12614 0.0
C1659 C 0.5022 0.41057 0.10301 0.0
H1660 H 0.67744 0.5186 0.2188 0.0
H1661 H 0.72899 0.45782 0.17661 0.0
H1662 H 0.64031 0.51377 0.1842 0.0
H1663 H 0.69133 0.45201 0.14228 0.0
H1664 H 0.63912 0.48686 0.06704 0.0
H1665 H 0.67239 0.47622 0.10439 0.0
H1666 H 0.60429 0.48821 0.16384 0.0
H1667 H 0.57191 0.50062 0.12646 0.0
C1668 C 0.68046 0.50366 0.20246 0.0
C1669 C 0.70616 0.48878 0.20026 0.0
C1670 C 0.65908 0.50069 0.18261 0.0
C1671 C 0.66267 0.48243 0.16024 0.0
C1672 C 0.68794 0.46658 0.15886 0.0
C1673 C 0.70949 0.46984 0.17856 0.0
C1674 C 0.63114 0.48608 0.08804 0.0
C1675 C 0.60307 0.49444 0.094 0.0
C1676 C 0.6502 0.48011 0.10956 0.0
C1677 C 0.6413 0.48211 0.13735 0.0
C1678 C 0.61223 0.4874 0.14285 0.0
C1679 C 0.59349 0.49402 0.12143 0.0
H1680 H 0.50607 0.71698 0.23504 0.0
H1681 H 0.58095 0.73622 0.18678 0.0
H1682 H 0.49909 0.67525 0.20747 0.0
H1683 H 0.57379 0.69527 0.15902 0.0
H1684 H 0.56667 0.61144 0.12316 0.0
H1685 H 0.57469 0.64568 0.15885 0.0
H1686 H 0.48443 0.66518 0.15988 0.0
H1687 H 0.47621 0.63044 0.12459 0.0
C1688 C 0.52126 0.71203 0.21886 0.0
C1689 C 0.54395 0.72989 0.21293 0.0
C1690 C 0.51714 0.68833 0.2029 0.0
C1691 C 0.53581 0.68194 0.18094 0.0
C1692 C 0.55917 0.69929 0.17593 0.0
C1693 C 0.56316 0.72292 0.1917 0.0
C1694 C 0.54844 0.62278 0.13117 0.0
C1695 C 0.52084 0.61841 0.12065 0.0
C1696 C 0.55308 0.64251 0.1516 0.0
C1697 C 0.53027 0.65843 0.16203 0.0
C1698 C 0.50247 0.65318 0.15247 0.0
C1699 C 0.4978 0.63339 0.13203 0.0
H1700 H 0.37077 0.52133 0.2326 0.0
H1701 H 0.36883 0.60838 0.21475 0.0
H1702 H 0.39702 0.51296 0.18975 0.0
H1703 H 0.39588 0.59997 0.17188 0.0
H1704 H 0.47725 0.55943 0.11947 0.0
H1705 H 0.44958 0.5758 0.15944 0.0
H1706 H 0.38073 0.52178 0.13689 0.0
H1707 H 0.40772 0.50674 0.09631 0.0
C1708 C 0.37622 0.53869 0.2196 0.0
C1709 C 0.36769 0.56544 0.22687 0.0
C1710 C 0.3911 0.53389 0.19508 0.0
C1711 C 0.39824 0.55582 0.17753 0.0
C1712 C 0.39057 0.58277 0.18514 0.0
C1713 C 0.37511 0.58753 0.20955 0.0
C1714 C 0.4556 0.55241 0.1222 0.0
C1715 C 0.44421 0.53265 0.10433 0.0
C1716 C 0.43997 0.56133 0.1453 0.0
C1717 C 0.41308 0.54999 0.15115 0.0
C1718 C 0.40144 0.53079 0.13282 0.0
C1719 C 0.41683 0.52224 0.10964 0.0
H1720 H 0.77955 0.49648 0.72625 0.0
H1721 H 0.78689 0.58413 0.71468 0.0
H1722 H 0.82242 0.48914 0.69856 0.0
H1723 H 0.82873 0.57699 0.68539 0.0
H1724 H 0.91463 0.55994 0.64742 0.0
H1725 H 0.87692 0.5652 0.68202 0.0
H1726 H 0.83882 0.4894 0.65405 0.0
H1727 H 0.87698 0.48343 0.62112 0.0
C1728 C 0.79008 0.51416 0.7173 0.0
C1729 C 0.77975 0.54087 0.72227 0.0
C1730 C 0.81471 0.51001 0.70134 0.0
C1731 C 0.82924 0.53244 0.68944 0.0
C1732 C 0.81866 0.55918 0.69451 0.0
C1733 C 0.7944 0.56331 0.71098 0.0
C1734 C 0.89852 0.54414 0.64915 0.0
C1735 C 0.89888 0.52134 0.63134 0.0
C1736 C 0.87662 0.54729 0.66877 0.0
C1737 C 0.85438 0.52792 0.67078 0.0
C1738 C 0.85558 0.50463 0.65365 0.0
C1739 C 0.87758 0.50128 0.63446 0.0
H1740 H 0.56617 0.7952 0.68336 0.0
H1741 H 0.48313 0.83306 0.69351 0.0
H1742 H 0.576 0.82584 0.64443 0.0
H1743 H 0.49247 0.86325 0.65426 0.0
H1744 H 0.53902 0.93935 0.62036 0.0
H1745 H 0.52333 0.90241 0.65049 0.0
H1746 H 0.56582 0.8429 0.59811 0.0
H1747 H 0.58207 0.88013 0.56808 0.0
C1748 C 0.54961 0.80934 0.67653 0.0
C1749 C 0.52399 0.81192 0.69147 0.0
C1750 C 0.55523 0.82699 0.65428 0.0
C1751 C 0.53525 0.84744 0.64656 0.0
C1752 C 0.50861 0.84824 0.66008 0.0
C1753 C 0.50311 0.83076 0.68235 0.0
C1754 C 0.54488 0.9184 0.6151 0.0
C1755 C 0.56198 0.91277 0.59188 0.0
C1756 C 0.53564 0.89711 0.63227 0.0
C1757 C 0.54321 0.86958 0.62671 0.0
C1758 C 0.5598 0.86387 0.60313 0.0
C1759 C 0.56901 0.88521 0.58587 0.0
H1760 H 0.25315 0.49146 0.68315 0.0
H1761 H 0.26663 0.57911 0.6789 0.0
H1762 H 0.21803 0.49487 0.64637 0.0
H1763 H 0.23169 0.58261 0.6414 0.0
H1764 H 0.13763 0.57771 0.60709 0.0
H1765 H 0.18016 0.5788 0.63621 0.0
H1766 H 0.21069 0.50363 0.59841 0.0
H1767 H 0.16789 0.50206 0.57007 0.0
C1768 C 0.24894 0.51141 0.67391 0.0
C1769 C 0.26254 0.53497 0.68388 0.0
C1770 C 0.22892 0.51339 0.65269 0.0
C1771 C 0.22201 0.53903 0.64081 0.0
C1772 C 0.23632 0.56259 0.65025 0.0
C1773 C 0.25646 0.56057 0.67159 0.0
C1774 C 0.15365 0.56166 0.60471 0.0
C1775 C 0.14906 0.53948 0.5867 0.0
C1776 C 0.17813 0.56235 0.62131 0.0
C1777 C 0.19861 0.541 0.62005 0.0
C1778 C 0.19499 0.52001 0.60047 0.0
C1779 C 0.17048 0.51918 0.58411 0.0
H1780 H 0.44449 0.15921 0.7184 0.0
H1781 H 0.501 0.22385 0.69191 0.0
H1782 H 0.46111 0.13022 0.68065 0.0
H1783 H 0.51696 0.19533 0.65322 0.0
H1784 H 0.56379 0.12533 0.60853 0.0
H1785 H 0.54527 0.15625 0.64358 0.0
H1786 H 0.46096 0.12216 0.63291 0.0
H1787 H 0.47995 0.09045 0.59872 0.0
C1788 C 0.46023 0.16735 0.70418 0.0
C1789 C 0.47152 0.19372 0.70817 0.0
C1790 C 0.46964 0.15079 0.68236 0.0
C1791 C 0.49046 0.16029 0.6637 0.0
C1792 C 0.50128 0.18705 0.66738 0.0
C1793 C 0.49201 0.20354 0.68945 0.0
C1794 C 0.54124 0.12439 0.61353 0.0
C1795 C 0.52338 0.1051 0.6006 0.0
C1796 C 0.53053 0.14241 0.63359 0.0
C1797 C 0.50152 0.14192 0.64125 0.0
C1798 C 0.48352 0.12298 0.62796 0.0
C1799 C 0.49436 0.10478 0.60804 0.0
H1800 H 0.79193 0.44976 0.34566 0.0
H1801 H 0.76255 0.53348 0.33475 0.0
H1802 H 0.82142 0.46392 0.38427 0.0
H1803 H 0.79187 0.54781 0.37397 0.0
H1804 H 0.88346 0.562 0.41255 0.0
H1805 H 0.84289 0.55292 0.38242 0.0
H1806 H 0.8226 0.48077 0.43069 0.0
H1807 H 0.86363 0.48935 0.46014 0.0
C1808 C 0.79137 0.47114 0.35195 0.0
C1809 C 0.77508 0.49048 0.33719 0.0
C1810 C 0.80812 0.47928 0.37423 0.0
C1811 C 0.80903 0.50705 0.38231 0.0
C1812 C 0.79183 0.52632 0.36813 0.0
C1813 C 0.77493 0.51809 0.34579 0.0
C1814 C 0.86993 0.54458 0.41711 0.0
C1815 C 0.8771 0.52609 0.43839 0.0
C1816 C 0.84658 0.5394 0.39987 0.0
C1817 C 0.82982 0.51577 0.40377 0.0
C1818 C 0.83551 0.49874 0.42664 0.0
C1819 C 0.85895 0.50375 0.44364 0.0
H1820 H 0.59733 0.84045 0.34352 0.0
H1821 H 0.51156 0.81005 0.33318 0.0
H1822 H 0.5805 0.87172 0.37958 0.0
H1823 H 0.49465 0.84131 0.36933 0.0
H1824 H 0.47293 0.92853 0.40308 0.0
H1825 H 0.48888 0.8919 0.37238 0.0
H1826 H 0.5598 0.87427 0.42674 0.0
H1827 H 0.54385 0.91112 0.45761 0.0
C1828 C 0.57494 0.84019 0.3493 0.0
C1829 C 0.55577 0.8229 0.33555 0.0
C1830 C 0.56532 0.858 0.37001 0.0
C1831 C 0.53621 0.8591 0.37723 0.0
C1832 C 0.51716 0.84114 0.36402 0.0
C1833 C 0.52686 0.82312 0.34345 0.0
C1834 C 0.49184 0.91678 0.40864 0.0
C1835 C 0.50727 0.92295 0.43271 0.0
C1836 C 0.50086 0.89561 0.3911 0.0
C1837 C 0.5256 0.88016 0.3971 0.0
C1838 C 0.54079 0.88598 0.42142 0.0
C1839 C 0.53163 0.90707 0.43911 0.0
H1840 H 0.25583 0.56157 0.31462 0.0
H1841 H 0.1987 0.6099 0.26371 0.0
H1842 H 0.21732 0.55462 0.34802 0.0
H1843 H 0.16006 0.60288 0.29722 0.0
H1844 H 0.10786 0.59903 0.382 0.0
H1845 H 0.1452 0.61196 0.34881 0.0
H1846 H 0.17129 0.52687 0.34229 0.0
H1847 H 0.13429 0.51384 0.37478 0.0
C1848 C 0.23525 0.57126 0.31091 0.0
C1849 C 0.23025 0.5862 0.28654 0.0
C1850 C 0.21312 0.56705 0.32986 0.0
C1851 C 0.18562 0.57795 0.32501 0.0
C1852 C 0.18104 0.59428 0.30147 0.0
C1853 C 0.2031 0.5982 0.2823 0.0
C1854 C 0.12128 0.58305 0.37314 0.0
C1855 C 0.11815 0.55541 0.38132 0.0
C1856 C 0.14269 0.59049 0.35423 0.0
C1857 C 0.16152 0.57047 0.34349 0.0
C1858 C 0.15753 0.54281 0.35073 0.0
C1859 C 0.13608 0.53536 0.36923 0.0
H1860 H 0.45365 0.21413 0.31588 0.0
H1861 H 0.54482 0.22304 0.32336 0.0
H1862 H 0.45291 0.18599 0.35761 0.0
H1863 H 0.54437 0.19538 0.36574 0.0
H1864 H 0.45378 0.14594 0.43952 0.0
H1865 H 0.45828 0.18286 0.40598 0.0
H1866 H 0.53856 0.14802 0.37809 0.0
H1867 H 0.53449 0.11168 0.41275 0.0
C1868 C 0.47337 0.21089 0.32717 0.0
C1869 C 0.49916 0.22116 0.31684 0.0
C1870 C 0.47306 0.19469 0.3511 0.0
C1871 C 0.49863 0.18825 0.3652 0.0
C1872 C 0.52433 0.1996 0.35535 0.0
C1873 C 0.52458 0.2158 0.33135 0.0
C1874 C 0.47266 0.14635 0.42653 0.0
C1875 C 0.49356 0.12543 0.42846 0.0
C1876 C 0.47514 0.16749 0.4071 0.0
C1877 C 0.49844 0.16823 0.38875 0.0
C1878 C 0.52029 0.14827 0.39185 0.0
C1879 C 0.51794 0.12723 0.41164 0.0
H1880 H 0.70543 0.82597 0.52076 0.0
H1881 H 0.71494 0.83545 0.43283 0.0
H1882 H 0.66411 0.85723 0.52012 0.0
H1883 H 0.67428 0.8672 0.43195 0.0
H1884 H 0.59499 0.91919 0.43499 0.0
H1885 H 0.62466 0.87779 0.43748 0.0
H1886 H 0.6601 0.90598 0.51465 0.0
H1887 H 0.62975 0.94679 0.5126 0.0
C1888 C 0.69792 0.83398 0.50116 0.0
C1889 C 0.7129 0.82799 0.47676 0.0
C1890 C 0.67458 0.85224 0.5008 0.0
C1891 C 0.666 0.86513 0.47604 0.0
C1892 C 0.67995 0.85754 0.45137 0.0
C1893 C 0.70321 0.83924 0.45177 0.0
C1894 C 0.60871 0.9163 0.45276 0.0
C1895 C 0.60986 0.93634 0.47364 0.0
C1896 C 0.62591 0.89261 0.45409 0.0
C1897 C 0.64493 0.88843 0.47622 0.0
C1898 C 0.64543 0.90814 0.4975 0.0
C1899 C 0.62813 0.93174 0.49622 0.0
H1900 H 0.68557 0.23072 0.46952 0.0
H1901 H 0.72451 0.19902 0.54388 0.0
H1902 H 0.64453 0.20135 0.47696 0.0
H1903 H 0.68297 0.1699 0.5519 0.0
H1904 H 0.63182 0.09193 0.52361 0.0
H1905 H 0.66586 0.12886 0.53136 0.0
H1906 H 0.60362 0.18811 0.50158 0.0
H1907 H 0.57027 0.15086 0.49286 0.0
C1908 C 0.68487 0.21816 0.48802 0.0
C1909 C 0.70836 0.21697 0.50594 0.0
C1910 C 0.66126 0.20126 0.49238 0.0
C1911 C 0.66045 0.18291 0.51495 0.0
C1912 C 0.68308 0.1833 0.53401 0.0
C1913 C 0.70681 0.20008 0.52951 0.0
C1914 C 0.62513 0.11296 0.51978 0.0
C1915 C 0.59857 0.1186 0.50759 0.0
C1916 C 0.64465 0.13423 0.52411 0.0
C1917 C 0.63777 0.16153 0.51652 0.0
C1918 C 0.61 0.1673 0.50691 0.0
C1919 C 0.59076 0.14603 0.50218 0.0
H1920 H 0.80652 0.71227 0.50922 0.0
H1921 H 0.84421 0.71178 0.42793 0.0
H1922 H 0.8365 0.67327 0.52241 0.0
H1923 H 0.87308 0.67163 0.4403 0.0
H1924 H 0.9449 0.62132 0.48171 0.0
H1925 H 0.91274 0.65756 0.46517 0.0
H1926 H 0.84619 0.62701 0.51906 0.0
H1927 H 0.87905 0.59204 0.53643 0.0
C1928 C 0.82077 0.70336 0.49396 0.0
C1929 C 0.823 0.71497 0.46752 0.0
C1930 C 0.83796 0.68082 0.50143 0.0
C1931 C 0.85745 0.66899 0.48247 0.0
C1932 C 0.8589 0.68031 0.45572 0.0
C1933 C 0.84212 0.70318 0.44848 0.0
C1934 C 0.92323 0.62216 0.48953 0.0
C1935 C 0.91442 0.60391 0.51024 0.0
C1936 C 0.90466 0.64296 0.48011 0.0
C1937 C 0.87669 0.64563 0.4909 0.0
C1938 C 0.86768 0.62633 0.51074 0.0
C1939 C 0.88641 0.60602 0.52052 0.0
H1940 H 0.32527 0.79658 0.56876 0.0
H1941 H 0.33129 0.81985 0.48294 0.0
H1942 H 0.35876 0.83296 0.58082 0.0
H1943 H 0.3643 0.85655 0.49493 0.0
H1944 H 0.43997 0.90792 0.52355 0.0
H1945 H 0.41161 0.86754 0.51189 0.0
H1946 H 0.35749 0.88265 0.58271 0.0
H1947 H 0.38601 0.92245 0.59463 0.0
C1948 C 0.33394 0.80931 0.55245 0.0
C1949 C 0.32563 0.80547 0.5249 0.0
C1950 C 0.35298 0.8303 0.55936 0.0
C1951 C 0.36409 0.84787 0.53887 0.0
C1952 C 0.35645 0.84329 0.51121 0.0
C1953 C 0.33743 0.82235 0.50434 0.0
C1954 C 0.42207 0.90255 0.53666 0.0
C1955 C 0.41528 0.91846 0.56001 0.0
C1956 C 0.40575 0.87945 0.52993 0.0
C1957 C 0.38231 0.87173 0.54643 0.0
C1958 C 0.37568 0.88764 0.56982 0.0
C1959 C 0.39193 0.91066 0.57652 0.0
H1960 H 0.22925 0.3211 0.47329 0.0
H1961 H 0.18323 0.31155 0.55001 0.0
H1962 H 0.20401 0.36468 0.46488 0.0
H1963 H 0.15779 0.35473 0.54148 0.0
H1964 H 0.13795 0.44657 0.52906 0.0
H1965 H 0.16604 0.40497 0.53824 0.0
H1966 H 0.15378 0.37877 0.45398 0.0
H1967 H 0.12584 0.42033 0.4447 0.0
C1968 C 0.21396 0.32846 0.48845 0.0
C1969 C 0.2081 0.31289 0.51222 0.0
C1970 C 0.19933 0.35323 0.48354 0.0
C1971 C 0.17881 0.36306 0.50247 0.0
C1972 C 0.17359 0.34783 0.5266 0.0
C1973 C 0.188 0.32301 0.53138 0.0
C1974 C 0.14122 0.43193 0.5125 0.0
C1975 C 0.12965 0.43679 0.48615 0.0
C1976 C 0.15726 0.40808 0.51778 0.0
C1977 C 0.16224 0.38866 0.49679 0.0
C1978 C 0.15067 0.39353 0.47046 0.0
C1979 C 0.13446 0.41725 0.46523 0.0
H1980 H 0.347 0.21637 0.57286 0.0
H1981 H 0.32584 0.21626 0.48618 0.0
H1982 H 0.38361 0.18153 0.56483 0.0
H1983 H 0.36288 0.18097 0.47796 0.0
H1984 H 0.40197 0.08949 0.49499 0.0
H1985 H 0.3708 0.13034 0.49153 0.0
H1986 H 0.43015 0.17595 0.54164 0.0
H1987 H 0.46055 0.1353 0.54556 0.0
C1988 C 0.35055 0.20914 0.55198 0.0
C1989 C 0.33378 0.21912 0.53018 0.0
C1990 C 0.37161 0.18925 0.5473 0.0
C1991 C 0.37634 0.17863 0.52068 0.0
C1992 C 0.35972 0.18879 0.49867 0.0
C1993 C 0.3387 0.20907 0.50335 0.0
C1994 C 0.40867 0.10854 0.50443 0.0
C1995 C 0.43337 0.10924 0.52084 0.0
C1996 C 0.39087 0.1319 0.5025 0.0
C1997 C 0.39774 0.15615 0.51687 0.0
C1998 C 0.42393 0.1574 0.53091 0.0
C1999 C 0.4414 0.13417 0.53304 0.0
H2000 H 0.79766 0.33308 0.44722 0.0
H2001 H 0.74333 0.36241 0.51324 0.0
H2002 H 0.82814 0.37311 0.45255 0.0
H2003 H 0.77411 0.40241 0.51889 0.0
H2004 H 0.82739 0.47912 0.51469 0.0
H2005 H 0.79315 0.44498 0.49884 0.0
H2006 H 0.86197 0.38609 0.48828 0.0
H2007 H 0.89617 0.42022 0.50365 0.0
C2008 C 0.79201 0.34826 0.46267 0.0
C2009 C 0.76829 0.34447 0.48011 0.0
C2010 C 0.80957 0.37116 0.46578 0.0
C2011 C 0.80379 0.39077 0.48637 0.0
C2012 C 0.77907 0.38779 0.50269 0.0
C2013 C 0.76148 0.36486 0.49955 0.0
C2014 C 0.83526 0.459 0.50861 0.0
C2015 C 0.86448 0.45227 0.51077 0.0
C2016 C 0.8156 0.43942 0.49965 0.0
C2017 C 0.82477 0.41274 0.49253 0.0
C2018 C 0.85418 0.40651 0.49336 0.0
C2019 C 0.8738 0.42605 0.50236 0.0
H2020 H 0.22441 0.69383 0.52231 0.0
H2021 H 0.16314 0.73803 0.57262 0.0
H2022 H 0.19218 0.65453 0.5207 0.0
H2023 H 0.13074 0.699 0.57042 0.0
H2024 H 0.07061 0.64806 0.51063 0.0
H2025 H 0.10411 0.6823 0.52792 0.0
H2026 H 0.16456 0.61761 0.54775 0.0
H2027 H 0.13072 0.58336 0.53047 0.0
C2028 C 0.20448 0.69488 0.5337 0.0
C2029 C 0.19615 0.71926 0.54718 0.0
C2030 C 0.18598 0.67237 0.53273 0.0
C2031 C 0.15877 0.67387 0.54512 0.0
C2032 C 0.15139 0.69743 0.56034 0.0
C2033 C 0.16994 0.71978 0.56152 0.0
C2034 C 0.09064 0.64119 0.51962 0.0
C2035 C 0.09793 0.61319 0.51988 0.0
C2036 C 0.10984 0.66072 0.52949 0.0
C2037 C 0.13697 0.65262 0.53921 0.0
C2038 C 0.14381 0.62441 0.5404 0.0
C2039 C 0.12436 0.60483 0.53089 0.0
loop_
_geom_bond_atom_site_label_1
_geom_bond_atom_site_label_2
_geom_bond_distance
_geom_bond_site_symmetry_2
_ccdc_geom_bond_type
H0 C5 0.930 . S
H1 C8 0.930 . S
H2 C10 0.930 . S
H3 C4 1.016 . S
C4 H3 1.016 . S
C4 N11 1.286 . S
C5 H0 0.930 . S
C5 C6 1.397 . S
C5 C7 1.361 . S
C6 C5 1.397 . S
C6 C10 1.390 . S
C7 C5 1.361 . S
C7 C8 1.393 . S
C7 N11 1.413 . S
C8 H1 0.930 . S
C8 C7 1.393 . S
C8 C9 1.399 . S
C9 C8 1.399 . S
C9 C10 1.381 . S
C10 H2 0.930 . S
C10 C6 1.390 . S
C10 C9 1.381 . S
N11 C4 1.286 . S
N11 C7 1.413 . S
H12 C17 0.930 . S
H13 C20 0.930 . S
H14 C22 0.930 . S
H15 C16 1.016 . S
C16 H15 1.016 . S
C16 N23 1.286 . S
C17 H12 0.930 . S
C17 C18 1.397 . S
C17 C19 1.361 . S
C18 C17 1.397 . S
C18 C22 1.390 . S
C19 C17 1.361 . S
C19 C20 1.393 . S
C19 N23 1.413 . S
C20 H13 0.930 . S
C20 C19 1.393 . S
C20 C21 1.399 . S
C21 C20 1.399 . S
C21 C22 1.381 . S
C22 H14 0.930 . S
C22 C18 1.390 . S
C22 C21 1.381 . S
N23 C16 1.286 . S
N23 C19 1.413 . S
H24 C29 0.930 . S
H25 C32 0.930 . S
H26 C34 0.930 . S
H27 C28 1.016 . S
C28 H27 1.016 . S
C28 N35 1.286 . S
C29 H24 0.930 . S
C29 C30 1.397 . S
C29 C31 1.361 . S
C30 C29 1.397 . S
C30 C34 1.390 . S
C31 C29 1.361 . S
C31 C32 1.393 . S
C31 N35 1.413 . S
C32 H25 0.930 . S
C32 C31 1.393 . S
C32 C33 1.399 . S
C33 C32 1.399 . S
C33 C34 1.381 . S
C34 H26 0.930 . S
C34 C30 1.390 . S
C34 C33 1.381 . S
N35 C28 1.286 . S
N35 C31 1.413 . S
H36 C41 0.930 . S
H37 C44 0.930 . S
H38 C46 0.930 . S
H39 C40 1.016 . S
C40 H39 1.016 . S
C40 N47 1.286 1_545 S
C41 H36 0.930 . S
C41 C42 1.397 1_565 S
C41 C43 1.361 . S
C42 C41 1.397 1_545 S
C42 C46 1.390 . S
C43 C41 1.361 . S
C43 C44 1.393 . S
C43 N47 1.413 . S
C44 H37 0.930 . S
C44 C43 1.393 . S
C44 C45 1.399 1_565 S
C45 C44 1.399 1_545 S
C45 C46 1.381 . S
C46 H38 0.930 . S
C46 C42 1.390 . S
C46 C45 1.381 . S
N47 C40 1.286 1_565 S
N47 C43 1.413 . S
H48 C53 0.930 . S
H49 C56 0.930 . S
H50 C58 0.930 . S
H51 C52 1.026 . S
C52 H51 1.026 . S
C52 N59 1.273 1_455 S
C53 H48 0.930 . S
C53 C54 1.400 . S
C53 C55 1.361 . S
C54 C53 1.400 . S
C54 C58 1.388 1_655 S
C55 C53 1.361 . S
C55 C56 1.393 . S
C55 N59 1.413 . S
C56 H49 0.930 . S
C56 C55 1.393 . S
C56 C57 1.400 . S
C57 C56 1.400 . S
C57 C58 1.380 1_655 S
C58 H50 0.930 . S
C58 C54 1.388 1_455 S
C58 C57 1.380 1_455 S
N59 C52 1.273 1_655 S
N59 C55 1.413 . S
H60 C65 0.930 . S
H61 C68 0.930 . S
H62 C70 0.930 . S
H63 C64 1.018 . S
C64 H63 1.018 . S
C64 N71 1.286 . S
C65 H60 0.930 . S
C65 C66 1.397 . S
C65 C67 1.361 . S
C66 C65 1.397 . S
C66 C70 1.390 . S
C67 C65 1.361 . S
C67 C68 1.393 . S
C67 N71 1.413 . S
C68 H61 0.930 . S
C68 C67 1.393 . S
C68 C69 1.399 . S
C69 C68 1.399 . S
C69 C70 1.381 . S
C70 H62 0.930 . S
C70 C66 1.390 . S
C70 C69 1.381 . S
N71 C64 1.286 . S
N71 C67 1.413 . S
H72 C77 0.930 . S
H73 C80 0.930 . S
H74 C82 0.930 . S
H75 C76 1.016 . S
C76 H75 1.016 . S
C76 N83 1.286 . S
C77 H72 0.930 . S
C77 C78 1.397 . S
C77 C79 1.361 . S
C78 C77 1.397 . S
C78 C82 1.390 . S
C79 C77 1.361 . S
C79 C80 1.393 . S
C79 N83 1.413 . S
C80 H73 0.930 . S
C80 C79 1.393 . S
C80 C81 1.399 . S
C81 C80 1.399 . S
C81 C82 1.381 . S
C82 H74 0.930 . S
C82 C78 1.390 . S
C82 C81 1.381 . S
N83 C76 1.286 . S
N83 C79 1.413 . S
H84 C89 0.930 . S
H85 C92 0.930 . S
H86 C94 0.930 . S
H87 C88 1.016 . S
C88 H87 1.016 . S
C88 N95 1.286 . S
C89 H84 0.930 . S
C89 C90 1.397 . S
C89 C91 1.361 . S
C90 C89 1.397 . S
C90 C94 1.390 . S
C91 C89 1.361 . S
C91 C92 1.393 . S
C91 N95 1.413 . S
C92 H85 0.930 . S
C92 C91 1.393 . S
C92 C93 1.399 . S
C93 C92 1.399 . S
C93 C94 1.381 . S
C94 H86 0.930 . S
C94 C90 1.390 . S
C94 C93 1.381 . S
N95 C88 1.286 . S
N95 C91 1.413 . S
H96 C101 0.930 . S
H97 C104 0.930 . S
H98 C106 0.930 . S
H99 C100 1.016 . S
C100 H99 1.016 . S
C100 N107 1.286 . S
C101 H96 0.930 . S
C101 C102 1.397 . S
C101 C103 1.361 . S
C102 C101 1.397 . S
C102 C106 1.390 . S
C103 C101 1.361 . S
C103 C104 1.393 . S
C103 N107 1.413 . S
C104 H97 0.930 . S
C104 C103 1.393 . S
C104 C105 1.399 . S
C105 C104 1.399 . S
C105 C106 1.381 . S
C106 H98 0.930 . S
C106 C102 1.390 . S
C106 C105 1.381 . S
N107 C100 1.286 . S
N107 C103 1.413 . S
H108 C113 0.930 . S
H109 C116 0.930 . S
H110 C118 0.930 . S
H111 C112 1.016 . S
C112 H111 1.016 . S
C112 N119 1.286 . S
C113 H108 0.930 . S
C113 C114 1.397 . S
C113 C115 1.361 . S
C114 C113 1.397 . S
C114 C118 1.390 . S
C115 C113 1.361 . S
C115 C116 1.393 . S
C115 N119 1.413 . S
C116 H109 0.930 . S
C116 C115 1.393 . S
C116 C117 1.399 . S
C117 C116 1.399 . S
C117 C118 1.381 . S
C118 H110 0.930 . S
C118 C114 1.390 . S
C118 C117 1.381 . S
N119 C112 1.286 . S
N119 C115 1.413 . S
H120 C125 0.930 . S
H121 C128 0.930 . S
H122 C130 0.931 . S
H123 C124 1.016 1_556 S
C124 H123 1.016 1_554 S
C124 N131 1.286 . S
C125 H120 0.930 . S
C125 C126 1.397 . S
C125 C127 1.361 . S
C126 C125 1.397 . S
C126 C130 1.390 1_554 S
C127 C125 1.361 . S
C127 C128 1.393 . S
C127 N131 1.413 . S
C128 H121 0.930 . S
C128 C127 1.393 . S
C128 C129 1.399 . S
C129 C128 1.399 . S
C129 C130 1.380 1_554 S
C130 H122 0.931 . S
C130 C126 1.390 1_556 S
C130 C129 1.380 1_556 S
N131 C124 1.286 . S
N131 C127 1.413 . S
H132 C137 0.937 . S
H133 C140 0.929 1_556 S
H134 C142 0.930 . S
H135 C136 1.016 . S
C136 H135 1.016 . S
C136 N143 1.286 1_554 S
C137 H132 0.937 . S
C137 C138 1.390 1_556 S
C137 C139 1.363 . S
C138 C137 1.390 1_554 S
C138 C142 1.390 . S
C139 C137 1.363 . S
C139 C140 1.390 1_556 S
C139 N143 1.413 . S
C140 H133 0.929 1_554 S
C140 C139 1.390 1_554 S
C140 C141 1.405 . S
C141 C140 1.405 . S
C141 C142 1.381 . S
C142 H134 0.930 . S
C142 C138 1.390 . S
C142 C141 1.381 . S
N143 C136 1.286 1_556 S
N143 C139 1.413 . S
H144 C149 0.930 . S
H145 C152 0.930 . S
H146 C154 0.930 . S
H147 C148 1.016 . S
C148 H147 1.016 . S
C148 N155 1.286 . S
C149 H144 0.930 . S
C149 C150 1.397 . S
C149 C151 1.361 . S
C150 C149 1.397 . S
C150 C154 1.390 . S
C151 C149 1.361 . S
C151 C152 1.393 . S
C151 N155 1.413 . S
C152 H145 0.930 . S
C152 C151 1.393 . S
C152 C153 1.399 . S
C153 C152 1.399 . S
C153 C154 1.381 . S
C154 H146 0.930 . S
C154 C150 1.390 . S
C154 C153 1.381 . S
N155 C148 1.286 . S
N155 C151 1.413 . S
H156 C161 0.930 . S
H157 C164 0.930 . S
H158 C166 0.930 . S
H159 C160 1.016 . S
C160 H159 1.016 . S
C160 N167 1.286 . S
C161 H156 0.930 . S
C161 C162 1.397 . S
C161 C163 1.361 . S
C162 C161 1.397 . S
C162 C166 1.390 . S
C163 C161 1.361 . S
C163 C164 1.393 . S
C163 N167 1.413 . S
C164 H157 0.930 . S
C164 C163 1.393 . S
C164 C165 1.399 . S
C165 C164 1.399 . S
C165 C166 1.381 . S
C166 H158 0.930 . S
C166 C162 1.390 . S
C166 C165 1.381 . S
N167 C160 1.286 . S
N167 C163 1.413 . S
H168 C173 0.930 . S
H169 C176 0.930 . S
H170 C178 0.930 . S
H171 C172 1.016 . S
C172 H171 1.016 . S
C172 N179 1.286 . S
C173 H168 0.930 . S
C173 C174 1.397 . S
C173 C175 1.361 . S
C174 C173 1.397 . S
C174 C178 1.390 . S
C175 C173 1.361 . S
C175 C176 1.393 . S
C175 N179 1.413 . S
C176 H169 0.930 . S
C176 C175 1.393 . S
C176 C177 1.399 . S
C177 C176 1.399 . S
C177 C178 1.381 . S
C178 H170 0.930 . S
C178 C174 1.390 . S
C178 C177 1.381 . S
N179 C172 1.286 . S
N179 C175 1.413 . S
H180 C185 0.930 . S
H181 C188 0.930 . S
H182 C190 0.930 . S
H183 C184 1.016 . S
C184 H183 1.016 . S
C184 N191 1.286 . S
C185 H180 0.930 . S
C185 C186 1.397 . S
C185 C187 1.361 . S
C186 C185 1.397 . S
C186 C190 1.390 . S
C187 C185 1.361 . S
C187 C188 1.393 . S
C187 N191 1.413 . S
C188 H181 0.930 . S
C188 C187 1.393 . S
C188 C189 1.399 . S
C189 C188 1.399 . S
C189 C190 1.381 . S
C190 H182 0.930 . S
C190 C186 1.390 . S
C190 C189 1.381 . S
N191 C184 1.286 . S
N191 C187 1.413 . S
H192 C197 0.930 . S
H193 C200 0.930 . S
H194 C202 0.930 . S
H195 C196 1.016 . S
C196 H195 1.016 . S
C196 N203 1.286 . S
C197 H192 0.930 . S
C197 C198 1.397 . S
C197 C199 1.361 . S
C198 C197 1.397 . S
C198 C202 1.390 . S
C199 C197 1.361 . S
C199 C200 1.393 . S
C199 N203 1.413 . S
C200 H193 0.930 . S
C200 C199 1.393 . S
C200 C201 1.399 . S
C201 C200 1.399 . S
C201 C202 1.381 . S
C202 H194 0.930 . S
C202 C198 1.390 . S
C202 C201 1.381 . S
N203 C196 1.286 . S
N203 C199 1.413 . S
H204 C209 0.930 . S
H205 C212 0.930 . S
H206 C214 0.930 . S
H207 C208 1.016 . S
C208 H207 1.016 . S
C208 N215 1.286 . S
C209 H204 0.930 . S
C209 C210 1.397 . S
C209 C211 1.361 . S
C210 C209 1.397 . S
C210 C214 1.390 . S
C211 C209 1.361 . S
C211 C212 1.393 . S
C211 N215 1.413 . S
C212 H205 0.930 . S
C212 C211 1.393 . S
C212 C213 1.399 . S
C213 C212 1.399 . S
C213 C214 1.381 . S
C214 H206 0.930 . S
C214 C210 1.390 . S
C214 C213 1.381 . S
N215 C208 1.286 . S
N215 C211 1.413 . S
H216 C221 0.930 . S
H217 C224 0.930 . S
H218 C226 0.930 . S
H219 C220 1.016 . S
C220 H219 1.016 . S
C220 N227 1.286 . S
C221 H216 0.930 . S
C221 C222 1.397 . S
C221 C223 1.361 . S
C222 C221 1.397 . S
C222 C226 1.390 . S
C223 C221 1.361 . S
C223 C224 1.393 . S
C223 N227 1.413 . S
C224 H217 0.930 . S
C224 C223 1.393 . S
C224 C225 1.399 . S
C225 C224 1.399 . S
C225 C226 1.381 . S
C226 H218 0.930 . S
C226 C222 1.390 . S
C226 C225 1.381 . S
N227 C220 1.286 . S
N227 C223 1.413 . S
H228 C233 0.930 . S
H229 C236 0.930 . S
H230 C238 0.930 . S
H231 C232 1.016 . S
C232 H231 1.016 . S
C232 N239 1.286 . S
C233 H228 0.930 . S
C233 C234 1.397 . S
C233 C235 1.361 . S
C234 C233 1.397 . S
C234 C238 1.390 . S
C235 C233 1.361 . S
C235 C236 1.393 . S
C235 N239 1.413 . S
C236 H229 0.930 . S
C236 C235 1.393 . S
C236 C237 1.399 . S
C237 C236 1.399 . S
C237 C238 1.381 . S
C238 H230 0.930 . S
C238 C234 1.390 . S
C238 C237 1.381 . S
N239 C232 1.286 . S
N239 C235 1.413 . S
H240 C245 0.930 . S
H241 C248 0.930 . S
H242 C250 0.930 . S
H243 C244 1.016 . S
C244 H243 1.016 . S
C244 N251 1.286 . S
C245 H240 0.930 . S
C245 C246 1.397 . S
C245 C247 1.361 . S
C246 C245 1.397 . S
C246 C250 1.390 . S
C247 C245 1.361 . S
C247 C248 1.393 . S
C247 N251 1.413 . S
C248 H241 0.930 . S
C248 C247 1.393 . S
C248 C249 1.399 . S
C249 C248 1.399 . S
C249 C250 1.381 . S
C250 H242 0.930 . S
C250 C246 1.390 . S
C250 C249 1.381 . S
N251 C244 1.286 . S
N251 C247 1.413 . S
H252 C257 0.930 . S
H253 C260 0.930 . S
H254 C262 0.930 . S
H255 C256 1.016 . S
C256 H255 1.016 . S
C256 N263 1.286 . S
C257 H252 0.930 . S
C257 C258 1.397 . S
C257 C259 1.361 . S
C258 C257 1.397 . S
C258 C262 1.390 . S
C259 C257 1.361 . S
C259 C260 1.393 . S
C259 N263 1.413 . S
C260 H253 0.930 . S
C260 C259 1.393 . S
C260 C261 1.399 . S
C261 C260 1.399 . S
C261 C262 1.381 . S
C262 H254 0.930 . S
C262 C258 1.390 . S
C262 C261 1.381 . S
N263 C256 1.286 . S
N263 C259 1.413 . S
H264 C269 0.930 . S
H265 C272 0.930 . S
H266 C274 0.930 . S
H267 C268 1.016 . S
C268 H267 1.016 . S
C268 N275 1.286 . S
C269 H264 0.930 . S
C269 C270 1.397 . S
C269 C271 1.361 . S
C270 C269 1.397 . S
C270 C274 1.390 . S
C271 C269 1.361 . S
C271 C272 1.393 . S
C271 N275 1.413 . S
C272 H265 0.930 . S
C272 C271 1.393 . S
C272 C273 1.399 . S
C273 C272 1.399 . S
C273 C274 1.381 . S
C274 H266 0.930 . S
C274 C270 1.390 . S
C274 C273 1.381 . S
N275 C268 1.286 . S
N275 C271 1.413 . S
H276 C281 0.930 . S
H277 C284 0.930 . S
H278 C286 0.930 . S
H279 C280 1.016 . S
C280 H279 1.016 . S
C280 N287 1.286 . S
C281 H276 0.930 . S
C281 C282 1.397 . S
C281 C283 1.361 . S
C282 C281 1.397 . S
C282 C286 1.390 . S
C283 C281 1.361 . S
C283 C284 1.393 . S
C283 N287 1.413 . S
C284 H277 0.930 . S
C284 C283 1.393 . S
C284 C285 1.399 . S
C285 C284 1.399 . S
C285 C286 1.381 . S
C286 H278 0.930 . S
C286 C282 1.390 . S
C286 C285 1.381 . S
N287 C280 1.286 . S
N287 C283 1.413 . S
Zn288 O290 1.933 1_565 S
Zn288 O308 1.984 1_565 S
Zn288 O319 1.955 . S
Zn289 O290 1.911 . S
Zn289 O309 1.970 . S
Zn289 O325 1.945 . S
Zn289 O332 1.981 . S
O290 Zn288 1.933 1_545 S
O290 Zn289 1.911 . S
O290 H291 0.841 1_655 S
H291 O290 0.841 1_455 S
C292 O293 1.246 . S
C292 O321 1.276 . S
O293 C292 1.246 . S
Zn294 O296 1.911 . S
Zn294 O311 1.970 . S
Zn294 O328 1.945 . S
Zn294 O335 1.981 . S
Zn295 O296 1.933 1_565 S
Zn295 O310 1.985 . S
Zn295 O317 1.955 . S
O296 Zn294 1.911 . S
O296 Zn295 1.933 1_545 S
O296 H297 0.841 . S
H297 O296 0.841 . S
Zn298 O299 1.933 1_565 S
Zn298 O312 1.984 1_565 S
Zn298 O321 1.955 . S
O299 Zn298 1.933 1_545 S
O299 Zn300 1.911 . S
O299 H301 0.841 . S
Zn300 O299 1.911 . S
Zn300 O313 1.970 . S
Zn300 O329 1.981 1_655 S
Zn300 O331 1.945 . S
H301 O299 0.841 . S
Zn302 O303 1.933 1_565 S
Zn302 O315 1.985 . S
Zn302 O323 1.955 . S
O303 Zn302 1.933 1_545 S
O303 H304 0.841 . S
O303 Zn305 1.911 . S
H304 O303 0.841 . S
Zn305 O303 1.911 . S
Zn305 O316 1.970 . S
Zn305 O326 1.981 . S
Zn305 O334 1.945 . S
C306 O307 1.246 . S
C306 O323 1.276 . S
O307 C306 1.246 . S
O308 Zn288 1.984 1_545 S
O308 C318 1.249 . S
O309 Zn289 1.970 . S
O309 C318 1.263 . S
O310 Zn295 1.985 . S
O310 C322 1.245 1_565 S
O311 Zn294 1.970 . S
O311 C322 1.263 . S
O312 Zn298 1.984 1_545 S
O312 C327 1.248 . S
O313 Zn300 1.970 . S
O313 C327 1.263 . S
C314 O325 1.262 1_455 S
C314 O326 1.245 . S
O315 Zn302 1.985 . S
O315 C333 1.245 1_565 S
O316 Zn305 1.970 . S
O316 C333 1.263 . S
O317 Zn295 1.955 . S
O317 C336 1.276 . S
C318 O308 1.249 . S
C318 O309 1.263 . S
O319 Zn288 1.955 . S
O319 C338 1.276 1_655 S
C320 O328 1.262 . S
C320 O329 1.245 . S
O321 C292 1.276 . S
O321 Zn298 1.955 . S
C322 O310 1.245 1_545 S
C322 O311 1.263 . S
O323 Zn302 1.955 . S
O323 C306 1.276 . S
C324 O331 1.262 . S
C324 O332 1.245 . S
O325 Zn289 1.945 . S
O325 C314 1.262 1_655 S
O326 Zn305 1.981 . S
O326 C314 1.245 . S
C327 O312 1.248 . S
C327 O313 1.263 . S
O328 Zn294 1.945 . S
O328 C320 1.262 . S
O329 Zn300 1.981 1_455 S
O329 C320 1.245 . S
C330 O334 1.262 . S
C330 O335 1.245 . S
O331 Zn300 1.945 . S
O331 C324 1.262 . S
O332 Zn289 1.981 . S
O332 C324 1.245 . S
C333 O315 1.245 1_545 S
C333 O316 1.263 . S
O334 Zn305 1.945 . S
O334 C330 1.262 . S
O335 Zn294 1.981 . S
O335 C330 1.245 . S
C336 O317 1.276 . S
C336 O337 1.248 . S
O337 C336 1.248 . S
C338 O319 1.276 1_455 S
C338 O339 1.246 . S
O339 C338 1.246 . S
Zn340 O342 1.933 . S
Zn340 O360 1.985 . S
Zn340 O371 1.955 . S
Zn341 O342 1.911 1_556 S
Zn341 O361 1.970 . S
Zn341 O377 1.945 . S
Zn341 O384 1.981 . S
O342 Zn340 1.933 . S
O342 Zn341 1.911 1_554 S
O342 H343 0.841 . S
H343 O342 0.841 . S
C344 O345 1.246 . S
C344 O373 1.276 . S
O345 C344 1.246 . S
Zn346 O348 1.911 1_556 S
Zn346 O363 1.970 . S
Zn346 O380 1.945 . S
Zn346 O387 1.981 . S
Zn347 O348 1.933 . S
Zn347 O362 1.985 . S
Zn347 O369 1.955 . S
O348 Zn346 1.911 1_554 S
O348 Zn347 1.933 . S
O348 H349 0.841 1_565 S
H349 O348 0.841 1_545 S
Zn350 O351 1.933 . S
Zn350 O364 1.985 . S
Zn350 O373 1.955 . S
O351 Zn350 1.933 . S
O351 Zn352 1.911 1_554 S
O351 H353 0.841 . S
Zn352 O351 1.911 1_556 S
Zn352 O365 1.970 . S
Zn352 O381 1.981 . S
Zn352 O383 1.945 . S
H353 O351 0.841 . S
Zn354 O355 1.933 . S
Zn354 O367 1.985 . S
Zn354 O375 1.955 . S
O355 Zn354 1.933 . S
O355 H356 0.841 . S
O355 Zn357 1.911 1_554 S
H356 O355 0.841 . S
Zn357 O355 1.911 1_556 S
Zn357 O368 1.970 . S
Zn357 O378 1.981 1_565 S
Zn357 O386 1.945 . S
C358 O359 1.246 . S
C358 O375 1.276 . S
O359 C358 1.246 . S
O360 Zn340 1.985 . S
O360 C370 1.245 . S
O361 Zn341 1.970 . S
O361 C370 1.263 1_556 S
O362 Zn347 1.985 . S
O362 C374 1.245 . S
O363 Zn346 1.970 . S
O363 C374 1.263 1_556 S
O364 Zn350 1.985 . S
O364 C379 1.245 . S
O365 Zn352 1.970 . S
O365 C379 1.263 1_556 S
C366 O377 1.262 . S
C366 O378 1.245 . S
O367 Zn354 1.985 . S
O367 C385 1.245 . S
O368 Zn357 1.970 . S
O368 C385 1.263 1_556 S
O369 Zn347 1.955 . S
O369 C388 1.276 1_565 S
C370 O360 1.245 . S
C370 O361 1.263 1_554 S
O371 Zn340 1.955 . S
O371 C390 1.276 . S
C372 O380 1.262 1_545 S
C372 O381 1.245 . S
O373 C344 1.276 . S
O373 Zn350 1.955 . S
C374 O362 1.245 . S
C374 O363 1.263 1_554 S
O375 Zn354 1.955 . S
O375 C358 1.276 . S
C376 O383 1.262 . S
C376 O384 1.245 . S
O377 Zn341 1.945 . S
O377 C366 1.262 . S
O378 Zn357 1.981 1_545 S
O378 C366 1.245 . S
C379 O364 1.245 . S
C379 O365 1.263 1_554 S
O380 Zn346 1.945 . S
O380 C372 1.262 1_565 S
O381 Zn352 1.981 . S
O381 C372 1.245 . S
C382 O386 1.262 . S
C382 O387 1.245 . S
O383 Zn352 1.945 . S
O383 C376 1.262 . S
O384 Zn341 1.981 . S
O384 C376 1.245 . S
C385 O367 1.245 . S
C385 O368 1.263 1_554 S
O386 Zn357 1.945 . S
O386 C382 1.262 . S
O387 Zn346 1.981 . S
O387 C382 1.245 . S
C388 O369 1.276 1_545 S
C388 O389 1.246 . S
O389 C388 1.246 . S
C390 O371 1.276 . S
C390 O391 1.246 . S
O391 C390 1.246 . S
Zn392 O394 1.933 1_655 S
Zn392 O412 1.985 . S
Zn392 O423 1.955 1_655 S
Zn393 O394 1.911 1_655 S
Zn393 O413 1.970 . S
Zn393 O429 1.945 . S
Zn393 O436 1.981 1_556 S
O394 Zn392 1.933 1_455 S
O394 Zn393 1.911 1_455 S
O394 H395 0.841 . S
H395 O394 0.841 . S
C396 O397 1.233 1_554 S
C396 O425 1.276 . S
O397 C396 1.233 1_556 S
Zn398 O400 1.911 . S
Zn398 O415 1.970 . S
Zn398 O432 1.945 . S
Zn398 O439 1.981 . S
Zn399 O400 1.933 . S
Zn399 O414 1.985 . S
Zn399 O421 1.955 . S
O400 Zn398 1.911 . S
O400 Zn399 1.933 . S
O400 H401 0.841 . S
H401 O400 0.841 . S
Zn402 O403 1.933 . S
Zn402 O416 1.985 . S
Zn402 O425 1.955 . S
O403 Zn402 1.933 . S
O403 Zn404 1.911 . S
O403 H405 0.841 . S
Zn404 O403 1.911 . S
Zn404 O417 1.970 . S
Zn404 O433 1.981 1_655 S
Zn404 O435 1.945 . S
H405 O403 0.841 . S
Zn406 O407 1.933 . S
Zn406 O419 1.985 . S
Zn406 O427 1.955 . S
O407 Zn406 1.933 . S
O407 H408 0.841 1_556 S
O407 Zn409 1.911 . S
H408 O407 0.841 1_554 S
Zn409 O407 1.911 . S
Zn409 O420 1.970 . S
Zn409 O430 1.981 . S
Zn409 O438 1.945 . S
C410 O411 1.246 . S
C410 O427 1.276 1_554 S
O411 C410 1.246 . S
O412 Zn392 1.985 . S
O412 C422 1.245 . S
O413 Zn393 1.970 . S
O413 C422 1.263 . S
O414 Zn399 1.985 . S
O414 C426 1.245 . S
O415 Zn398 1.970 . S
O415 C426 1.263 . S
O416 Zn402 1.985 . S
O416 C431 1.245 . S
O417 Zn404 1.970 . S
O417 C431 1.263 . S
C418 O429 1.262 1_455 S
C418 O430 1.245 . S
O419 Zn406 1.985 . S
O419 C437 1.245 . S
O420 Zn409 1.970 . S
O420 C437 1.263 . S
O421 Zn399 1.955 . S
O421 C440 1.276 . S
C422 O412 1.245 . S
C422 O413 1.263 . S
O423 Zn392 1.955 1_455 S
O423 C442 1.276 . S
C424 O432 1.262 . S
C424 O433 1.245 . S
O425 C396 1.276 . S
O425 Zn402 1.955 . S
C426 O414 1.245 . S
C426 O415 1.263 . S
O427 Zn406 1.955 . S
O427 C410 1.276 1_556 S
C428 O435 1.262 . S
C428 O436 1.245 . S
O429 Zn393 1.945 . S
O429 C418 1.262 1_655 S
O430 Zn409 1.981 . S
O430 C418 1.245 . S
C431 O416 1.245 . S
C431 O417 1.263 . S
O432 Zn398 1.945 . S
O432 C424 1.262 . S
O433 Zn404 1.981 1_455 S
O433 C424 1.245 . S
C434 O438 1.262 1_554 S
C434 O439 1.245 . S
O435 Zn404 1.945 . S
O435 C428 1.262 . S
O436 Zn393 1.981 1_554 S
O436 C428 1.245 . S
C437 O419 1.245 . S
C437 O420 1.263 . S
O438 Zn409 1.945 . S
O438 C434 1.262 1_556 S
O439 Zn398 1.981 . S
O439 C434 1.245 . S
C440 O421 1.276 . S
C440 O441 1.246 . S
O441 C440 1.246 . S
C442 O423 1.276 . S
C442 O443 1.246 . S
O443 C442 1.246 . S
Zn444 O446 1.933 1_556 S
Zn444 O464 1.985 . S
Zn444 O475 1.955 . S
Zn445 O446 1.911 . S
Zn445 O465 1.970 . S
Zn445 O481 1.945 . S
Zn445 O488 1.981 . S
O446 Zn444 1.933 1_554 S
O446 Zn445 1.911 . S
O446 H447 0.841 . S
H447 O446 0.841 . S
C448 O449 1.246 . S
C448 O477 1.276 . S
O449 C448 1.246 . S
Zn450 O452 1.911 . S
Zn450 O467 1.970 . S
Zn450 O484 1.945 . S
Zn450 O491 1.981 . S
Zn451 O452 1.933 1_556 S
Zn451 O466 1.985 . S
Zn451 O473 1.955 . S
O452 Zn450 1.911 . S
O452 Zn451 1.933 1_554 S
O452 H453 0.841 . S
H453 O452 0.841 . S
Zn454 O455 1.933 1_556 S
Zn454 O468 1.985 . S
Zn454 O477 1.955 . S
O455 Zn454 1.933 1_554 S
O455 Zn456 1.911 . S
O455 H457 0.841 . S
Zn456 O455 1.911 . S
Zn456 O469 1.970 . S
Zn456 O485 1.981 . S
Zn456 O487 1.945 . S
H457 O455 0.841 . S
Zn458 O459 1.933 1_556 S
Zn458 O471 1.985 . S
Zn458 O479 1.955 . S
O459 Zn458 1.933 1_554 S
O459 H460 0.841 . S
O459 Zn461 1.911 . S
H460 O459 0.841 . S
Zn461 O459 1.911 . S
Zn461 O472 1.970 . S
Zn461 O482 1.981 . S
Zn461 O490 1.945 . S
C462 O463 1.246 . S
C462 O479 1.276 . S
O463 C462 1.246 . S
O464 Zn444 1.985 . S
O464 C474 1.245 1_556 S
O465 Zn445 1.970 . S
O465 C474 1.263 . S
O466 Zn451 1.985 . S
O466 C478 1.245 1_556 S
O467 Zn450 1.970 . S
O467 C478 1.263 . S
O468 Zn454 1.985 . S
O468 C483 1.245 1_556 S
O469 Zn456 1.970 . S
O469 C483 1.263 . S
C470 O481 1.262 . S
C470 O482 1.245 . S
O471 Zn458 1.985 . S
O471 C489 1.245 1_556 S
O472 Zn461 1.970 . S
O472 C489 1.263 . S
O473 Zn451 1.955 . S
O473 C492 1.276 . S
C474 O464 1.245 1_554 S
C474 O465 1.263 . S
O475 Zn444 1.955 . S
O475 C494 1.276 . S
C476 O484 1.262 . S
C476 O485 1.245 . S
O477 C448 1.276 . S
O477 Zn454 1.955 . S
C478 O466 1.245 1_554 S
C478 O467 1.263 . S
O479 Zn458 1.955 . S
O479 C462 1.276 . S
C480 O487 1.262 . S
C480 O488 1.245 . S
O481 Zn445 1.945 . S
O481 C470 1.262 . S
O482 Zn461 1.981 . S
O482 C470 1.245 . S
C483 O468 1.245 1_554 S
C483 O469 1.263 . S
O484 Zn450 1.945 . S
O484 C476 1.262 . S
O485 Zn456 1.981 . S
O485 C476 1.245 . S
C486 O490 1.262 . S
C486 O491 1.245 . S
O487 Zn456 1.945 . S
O487 C480 1.262 . S
O488 Zn445 1.981 . S
O488 C480 1.245 . S
C489 O471 1.245 1_554 S
C489 O472 1.263 . S
O490 Zn461 1.945 . S
O490 C486 1.262 . S
O491 Zn450 1.981 . S
O491 C486 1.245 . S
C492 O473 1.276 . S
C492 O493 1.246 . S
O493 C492 1.246 . S
C494 O475 1.276 . S
C494 O495 1.246 . S
O495 C494 1.246 . S
Zn496 O498 1.933 . S
Zn496 O516 1.985 . S
Zn496 O527 1.964 . S
Zn497 O498 1.911 . S
Zn497 O517 1.970 . S
Zn497 O533 1.945 . S
Zn497 O540 1.981 . S
O498 Zn496 1.933 . S
O498 Zn497 1.911 . S
O498 H499 0.841 1_655 S
H499 O498 0.841 1_455 S
C500 O501 1.246 . S
C500 O529 1.276 . S
O501 C500 1.246 . S
Zn502 O504 1.911 . S
Zn502 O519 1.970 . S
Zn502 O536 1.945 . S
Zn502 O543 1.981 . S
Zn503 O504 1.933 . S
Zn503 O518 1.985 . S
Zn503 O525 1.955 . S
O504 Zn502 1.911 . S
O504 Zn503 1.933 . S
O504 H505 0.841 . S
H505 O504 0.841 . S
Zn506 O507 1.933 . S
Zn506 O520 1.985 . S
Zn506 O529 1.955 . S
O507 Zn506 1.933 . S
O507 Zn508 1.911 . S
O507 H509 0.841 . S
Zn508 O507 1.911 . S
Zn508 O521 1.970 . S
Zn508 O537 1.981 1_655 S
Zn508 O539 1.945 . S
H509 O507 0.841 . S
Zn510 O511 1.933 . S
Zn510 O523 1.985 . S
Zn510 O531 1.955 . S
O511 Zn510 1.933 . S
O511 H512 0.841 . S
O511 Zn513 1.911 . S
H512 O511 0.841 . S
Zn513 O511 1.911 . S
Zn513 O524 1.970 . S
Zn513 O534 1.981 . S
Zn513 O542 1.945 . S
C514 O515 1.246 . S
C514 O531 1.276 . S
O515 C514 1.246 . S
O516 Zn496 1.985 . S
O516 C526 1.245 . S
O517 Zn497 1.970 . S
O517 C526 1.263 . S
O518 Zn503 1.985 . S
O518 C530 1.245 . S
O519 Zn502 1.970 . S
O519 C530 1.263 . S
O520 Zn506 1.985 . S
O520 C535 1.245 . S
O521 Zn508 1.970 . S
O521 C535 1.263 . S
C522 O533 1.262 1_455 S
C522 O534 1.245 . S
O523 Zn510 1.985 . S
O523 C541 1.245 . S
O524 Zn513 1.970 . S
O524 C541 1.263 . S
O525 Zn503 1.955 . S
O525 C544 1.276 . S
C526 O516 1.245 . S
C526 O517 1.263 . S
O527 Zn496 1.964 . S
O527 C546 1.247 1_655 S
C528 O536 1.262 . S
C528 O537 1.245 . S
O529 C500 1.276 . S
O529 Zn506 1.955 . S
C530 O518 1.245 . S
C530 O519 1.263 . S
O531 Zn510 1.955 . S
O531 C514 1.276 . S
C532 O539 1.262 . S
C532 O540 1.245 . S
O533 Zn497 1.945 . S
O533 C522 1.262 1_655 S
O534 Zn513 1.981 . S
O534 C522 1.245 . S
C535 O520 1.245 . S
C535 O521 1.263 . S
O536 Zn502 1.945 . S
O536 C528 1.262 . S
O537 Zn508 1.981 1_455 S
O537 C528 1.245 . S
C538 O542 1.262 . S
C538 O543 1.245 . S
O539 Zn508 1.945 . S
O539 C532 1.262 . S
O540 Zn497 1.981 . S
O540 C532 1.245 . S
C541 O523 1.245 . S
C541 O524 1.263 . S
O542 Zn513 1.945 . S
O542 C538 1.262 . S
O543 Zn502 1.981 . S
O543 C538 1.245 . S
C544 O525 1.276 . S
C544 O545 1.246 . S
O545 C544 1.246 . S
C546 O527 1.247 1_455 S
C546 O547 1.246 . S
O547 C546 1.246 . S
Zn548 O550 1.933 1_565 S
Zn548 O568 1.985 . S
Zn548 O579 1.955 . S
Zn549 O550 1.911 . S
Zn549 O569 1.970 . S
Zn549 O585 1.945 . S
Zn549 O592 1.981 . S
O550 Zn548 1.933 1_545 S
O550 Zn549 1.911 . S
O550 H551 0.841 . S
H551 O550 0.841 . S
C552 O553 1.246 . S
C552 O581 1.276 . S
O553 C552 1.246 . S
Zn554 O556 1.911 . S
Zn554 O571 1.970 . S
Zn554 O588 1.945 . S
Zn554 O595 1.981 . S
Zn555 O556 1.933 1_565 S
Zn555 O570 1.985 1_565 S
Zn555 O577 1.955 . S
O556 Zn554 1.911 . S
O556 Zn555 1.933 1_545 S
O556 H557 0.841 . S
H557 O556 0.841 . S
Zn558 O559 1.933 1_565 S
Zn558 O572 1.985 . S
Zn558 O581 1.955 . S
O559 Zn558 1.933 1_545 S
O559 Zn560 1.911 . S
O559 H561 0.841 . S
Zn560 O559 1.911 . S
Zn560 O573 1.970 . S
Zn560 O589 1.981 . S
Zn560 O591 1.945 . S
H561 O559 0.841 . S
Zn562 O563 1.933 1_565 S
Zn562 O575 1.985 1_565 S
Zn562 O583 1.955 . S
O563 Zn562 1.933 1_545 S
O563 H564 0.841 . S
O563 Zn565 1.911 . S
H564 O563 0.841 . S
Zn565 O563 1.911 . S
Zn565 O576 1.970 . S
Zn565 O586 1.981 . S
Zn565 O594 1.945 . S
C566 O567 1.246 . S
C566 O583 1.276 . S
O567 C566 1.246 . S
O568 Zn548 1.985 . S
O568 C578 1.245 1_565 S
O569 Zn549 1.970 . S
O569 C578 1.263 . S
O570 Zn555 1.985 1_545 S
O570 C582 1.245 . S
O571 Zn554 1.970 . S
O571 C582 1.263 . S
O572 Zn558 1.985 . S
O572 C587 1.245 1_565 S
O573 Zn560 1.970 . S
O573 C587 1.263 . S
C574 O585 1.262 . S
C574 O586 1.245 . S
O575 Zn562 1.985 1_545 S
O575 C593 1.245 . S
O576 Zn565 1.970 . S
O576 C593 1.263 . S
O577 Zn555 1.955 . S
O577 C596 1.276 . S
C578 O568 1.245 1_545 S
C578 O569 1.263 . S
O579 Zn548 1.955 . S
O579 C598 1.276 . S
C580 O588 1.262 . S
C580 O589 1.245 . S
O581 C552 1.276 . S
O581 Zn558 1.955 . S
C582 O570 1.245 . S
C582 O571 1.263 . S
O583 Zn562 1.955 . S
O583 C566 1.276 . S
C584 O591 1.262 . S
C584 O592 1.245 . S
O585 Zn549 1.945 . S
O585 C574 1.262 . S
O586 Zn565 1.981 . S
O586 C574 1.245 . S
C587 O572 1.245 1_545 S
C587 O573 1.263 . S
O588 Zn554 1.945 . S
O588 C580 1.262 . S
O589 Zn560 1.981 . S
O589 C580 1.245 . S
C590 O594 1.262 . S
C590 O595 1.245 . S
O591 Zn560 1.945 . S
O591 C584 1.262 . S
O592 Zn549 1.981 . S
O592 C584 1.245 . S
C593 O575 1.245 . S
C593 O576 1.263 . S
O594 Zn565 1.945 . S
O594 C590 1.262 . S
O595 Zn554 1.981 . S
O595 C590 1.245 . S
C596 O577 1.276 . S
C596 O597 1.246 . S
O597 C596 1.246 . S
C598 O579 1.276 . S
C598 O599 1.246 . S
O599 C598 1.246 . S
H600 C608 0.950 . S
H601 C613 0.950 . S
H602 C610 0.950 . S
H603 C612 0.950 . S
H604 C614 0.950 . S
H605 C616 0.950 . S
H606 C618 0.950 . S
H607 C619 0.950 . S
C608 H600 0.950 . S
C608 C609 1.386 . S
C608 C610 1.391 . S
C609 C608 1.386 . S
C609 C613 1.393 . S
C610 H602 0.950 . S
C610 C608 1.391 . S
C610 C611 1.400 . S
C611 C610 1.400 . S
C611 C612 1.398 . S
C611 C617 1.491 . S
C612 H603 0.950 . S
C612 C611 1.398 . S
C612 C613 1.391 . S
C613 H601 0.950 . S
C613 C609 1.393 . S
C613 C612 1.391 . S
C614 H604 0.950 . S
C614 C615 1.386 . S
C614 C616 1.391 . S
C615 C614 1.386 . S
C615 C619 1.393 . S
C616 H605 0.950 . S
C616 C614 1.391 . S
C616 C617 1.400 . S
C617 C611 1.491 . S
C617 C616 1.400 . S
C617 C618 1.398 . S
C618 H606 0.950 . S
C618 C617 1.398 . S
C618 C619 1.391 . S
C619 H607 0.950 . S
C619 C615 1.393 . S
C619 C618 1.391 . S
H620 C628 0.950 . S
H621 C633 0.950 . S
H622 C630 0.950 . S
H623 C632 0.950 . S
H624 C634 0.950 . S
H625 C636 0.950 . S
H626 C638 0.950 . S
H627 C639 0.950 . S
C628 H620 0.950 . S
C628 C629 1.386 . S
C628 C630 1.391 . S
C629 C628 1.386 . S
C629 C633 1.393 . S
C630 H622 0.950 . S
C630 C628 1.391 . S
C630 C631 1.400 . S
C631 C630 1.400 . S
C631 C632 1.398 . S
C631 C637 1.491 . S
C632 H623 0.950 . S
C632 C631 1.398 . S
C632 C633 1.391 . S
C633 H621 0.950 . S
C633 C629 1.393 . S
C633 C632 1.391 . S
C634 H624 0.950 . S
C634 C635 1.386 . S
C634 C636 1.391 . S
C635 C634 1.386 . S
C635 C639 1.393 . S
C636 H625 0.950 . S
C636 C634 1.391 . S
C636 C637 1.400 . S
C637 C631 1.491 . S
C637 C636 1.400 . S
C637 C638 1.398 . S
C638 H626 0.950 . S
C638 C637 1.398 . S
C638 C639 1.391 . S
C639 H627 0.950 . S
C639 C635 1.393 . S
C639 C638 1.391 . S
H640 C648 0.950 . S
H641 C653 0.950 . S
H642 C650 0.950 . S
H643 C652 0.950 . S
H644 C654 0.950 . S
H645 C656 0.950 . S
H646 C658 0.950 . S
H647 C659 0.950 . S
C648 H640 0.950 . S
C648 C649 1.386 . S
C648 C650 1.391 . S
C649 C648 1.386 . S
C649 C653 1.393 . S
C650 H642 0.950 . S
C650 C648 1.391 . S
C650 C651 1.400 . S
C651 C650 1.400 . S
C651 C652 1.398 . S
C651 C657 1.491 . S
C652 H643 0.950 . S
C652 C651 1.398 . S
C652 C653 1.391 . S
C653 H641 0.950 . S
C653 C649 1.393 . S
C653 C652 1.391 . S
C654 H644 0.950 . S
C654 C655 1.386 . S
C654 C656 1.391 . S
C655 C654 1.386 . S
C655 C659 1.393 . S
C656 H645 0.950 . S
C656 C654 1.391 . S
C656 C657 1.400 . S
C657 C651 1.491 . S
C657 C656 1.400 . S
C657 C658 1.398 . S
C658 H646 0.950 . S
C658 C657 1.398 . S
C658 C659 1.391 . S
C659 H647 0.950 . S
C659 C655 1.393 . S
C659 C658 1.391 . S
H660 C668 0.950 . S
H661 C673 0.950 . S
H662 C670 0.950 . S
H663 C672 0.950 . S
H664 C674 0.950 . S
H665 C676 0.950 . S
H666 C678 0.950 . S
H667 C679 0.950 . S
C668 H660 0.950 . S
C668 C669 1.386 . S
C668 C670 1.391 . S
C669 C668 1.386 . S
C669 C673 1.393 . S
C670 H662 0.950 . S
C670 C668 1.391 . S
C670 C671 1.400 . S
C671 C670 1.400 . S
C671 C672 1.398 . S
C671 C677 1.491 . S
C672 H663 0.950 . S
C672 C671 1.398 . S
C672 C673 1.391 . S
C673 H661 0.950 . S
C673 C669 1.393 . S
C673 C672 1.391 . S
C674 H664 0.950 . S
C674 C675 1.386 . S
C674 C676 1.391 . S
C675 C674 1.386 . S
C675 C679 1.393 . S
C676 H665 0.950 . S
C676 C674 1.391 . S
C676 C677 1.400 . S
C677 C671 1.491 . S
C677 C676 1.400 . S
C677 C678 1.398 . S
C678 H666 0.950 . S
C678 C677 1.398 . S
C678 C679 1.391 . S
C679 H667 0.950 . S
C679 C675 1.393 . S
C679 C678 1.391 . S
H680 C688 0.950 . S
H681 C693 0.950 . S
H682 C690 0.950 . S
H683 C692 0.950 . S
H684 C694 0.950 . S
H685 C696 0.950 . S
H686 C698 0.950 . S
H687 C699 0.950 . S
C688 H680 0.950 . S
C688 C689 1.386 . S
C688 C690 1.391 . S
C689 C688 1.386 . S
C689 C693 1.393 . S
C690 H682 0.950 . S
C690 C688 1.391 . S
C690 C691 1.400 . S
C691 C690 1.400 . S
C691 C692 1.398 . S
C691 C697 1.491 . S
C692 H683 0.950 . S
C692 C691 1.398 . S
C692 C693 1.391 . S
C693 H681 0.950 . S
C693 C689 1.393 . S
C693 C692 1.391 . S
C694 H684 0.950 . S
C694 C695 1.386 . S
C694 C696 1.391 . S
C695 C694 1.386 . S
C695 C699 1.393 . S
C696 H685 0.950 . S
C696 C694 1.391 . S
C696 C697 1.400 . S
C697 C691 1.491 . S
C697 C696 1.400 . S
C697 C698 1.398 . S
C698 H686 0.950 . S
C698 C697 1.398 . S
C698 C699 1.391 . S
C699 H687 0.950 . S
C699 C695 1.393 . S
C699 C698 1.391 . S
H700 C708 0.950 . S
H701 C713 0.950 . S
H702 C710 0.950 . S
H703 C712 0.950 . S
H704 C714 0.950 . S
H705 C716 0.950 . S
H706 C718 0.950 . S
H707 C719 0.950 . S
C708 H700 0.950 . S
C708 C709 1.386 . S
C708 C710 1.391 . S
C709 C708 1.386 . S
C709 C713 1.393 . S
C710 H702 0.950 . S
C710 C708 1.391 . S
C710 C711 1.400 . S
C711 C710 1.400 . S
C711 C712 1.398 . S
C711 C717 1.491 . S
C712 H703 0.950 . S
C712 C711 1.398 . S
C712 C713 1.391 . S
C713 H701 0.950 . S
C713 C709 1.393 . S
C713 C712 1.391 . S
C714 H704 0.950 . S
C714 C715 1.386 . S
C714 C716 1.391 . S
C715 C714 1.386 . S
C715 C719 1.393 . S
C716 H705 0.950 . S
C716 C714 1.391 . S
C716 C717 1.400 . S
C717 C711 1.491 . S
C717 C716 1.400 . S
C717 C718 1.398 . S
C718 H706 0.950 . S
C718 C717 1.398 . S
C718 C719 1.391 . S
C719 H707 0.950 . S
C719 C715 1.393 . S
C719 C718 1.391 . S
H720 C728 0.950 . S
H721 C733 0.950 . S
H722 C730 0.950 . S
H723 C732 0.950 . S
H724 C734 0.950 . S
H725 C736 0.950 . S
H726 C738 0.950 . S
H727 C739 0.950 . S
C728 H720 0.950 . S
C728 C729 1.386 . S
C728 C730 1.391 . S
C729 C728 1.386 . S
C729 C733 1.393 . S
C730 H722 0.950 . S
C730 C728 1.391 . S
C730 C731 1.400 . S
C731 C730 1.400 . S
C731 C732 1.398 . S
C731 C737 1.491 . S
C732 H723 0.950 . S
C732 C731 1.398 . S
C732 C733 1.391 . S
C733 H721 0.950 . S
C733 C729 1.393 . S
C733 C732 1.391 . S
C734 H724 0.950 . S
C734 C735 1.386 . S
C734 C736 1.391 . S
C735 C734 1.386 . S
C735 C739 1.393 . S
C736 H725 0.950 . S
C736 C734 1.391 . S
C736 C737 1.400 . S
C737 C731 1.491 . S
C737 C736 1.400 . S
C737 C738 1.398 . S
C738 H726 0.950 . S
C738 C737 1.398 . S
C738 C739 1.391 . S
C739 H727 0.950 . S
C739 C735 1.393 . S
C739 C738 1.391 . S
H740 C748 0.950 . S
H741 C753 0.950 . S
H742 C750 0.950 . S
H743 C752 0.950 . S
H744 C754 0.950 . S
H745 C756 0.950 . S
H746 C758 0.950 . S
H747 C759 0.950 . S
C748 H740 0.950 . S
C748 C749 1.386 . S
C748 C750 1.391 . S
C749 C748 1.386 . S
C749 C753 1.393 . S
C750 H742 0.950 . S
C750 C748 1.391 . S
C750 C751 1.400 . S
C751 C750 1.400 . S
C751 C752 1.398 . S
C751 C757 1.491 . S
C752 H743 0.950 . S
C752 C751 1.398 . S
C752 C753 1.391 . S
C753 H741 0.950 . S
C753 C749 1.393 . S
C753 C752 1.391 . S
C754 H744 0.950 . S
C754 C755 1.386 . S
C754 C756 1.391 . S
C755 C754 1.386 . S
C755 C759 1.393 . S
C756 H745 0.950 . S
C756 C754 1.391 . S
C756 C757 1.400 . S
C757 C751 1.491 . S
C757 C756 1.400 . S
C757 C758 1.398 . S
C758 H746 0.950 . S
C758 C757 1.398 . S
C758 C759 1.391 . S
C759 H747 0.950 . S
C759 C755 1.393 . S
C759 C758 1.391 . S
H760 C768 0.950 . S
H761 C773 0.950 . S
H762 C770 0.950 . S
H763 C772 0.950 . S
H764 C774 0.950 . S
H765 C776 0.950 . S
H766 C778 0.950 . S
H767 C779 0.950 . S
C768 H760 0.950 . S
C768 C769 1.386 . S
C768 C770 1.391 . S
C769 C768 1.386 . S
C769 C773 1.393 . S
C770 H762 0.950 . S
C770 C768 1.391 . S
C770 C771 1.400 . S
C771 C770 1.400 . S
C771 C772 1.398 . S
C771 C777 1.491 . S
C772 H763 0.950 . S
C772 C771 1.398 . S
C772 C773 1.391 . S
C773 H761 0.950 . S
C773 C769 1.393 . S
C773 C772 1.391 . S
C774 H764 0.950 . S
C774 C775 1.386 . S
C774 C776 1.391 . S
C775 C774 1.386 . S
C775 C779 1.393 . S
C776 H765 0.950 . S
C776 C774 1.391 . S
C776 C777 1.400 . S
C777 C771 1.491 . S
C777 C776 1.400 . S
C777 C778 1.398 . S
C778 H766 0.950 . S
C778 C777 1.398 . S
C778 C779 1.391 . S
C779 H767 0.950 . S
C779 C775 1.393 . S
C779 C778 1.391 . S
H780 C788 0.950 . S
H781 C793 0.950 . S
H782 C790 0.950 . S
H783 C792 0.950 . S
H784 C794 0.950 . S
H785 C796 0.950 . S
H786 C798 0.950 . S
H787 C799 0.950 . S
C788 H780 0.950 . S
C788 C789 1.386 . S
C788 C790 1.391 . S
C789 C788 1.386 . S
C789 C793 1.393 . S
C790 H782 0.950 . S
C790 C788 1.391 . S
C790 C791 1.400 . S
C791 C790 1.400 . S
C791 C792 1.398 . S
C791 C797 1.491 . S
C792 H783 0.950 . S
C792 C791 1.398 . S
C792 C793 1.391 . S
C793 H781 0.950 . S
C793 C789 1.393 . S
C793 C792 1.391 . S
C794 H784 0.950 . S
C794 C795 1.386 . S
C794 C796 1.391 . S
C795 C794 1.386 . S
C795 C799 1.393 . S
C796 H785 0.950 . S
C796 C794 1.391 . S
C796 C797 1.400 . S
C797 C791 1.491 . S
C797 C796 1.400 . S
C797 C798 1.398 . S
C798 H786 0.950 . S
C798 C797 1.398 . S
C798 C799 1.391 . S
C799 H787 0.950 . S
C799 C795 1.393 . S
C799 C798 1.391 . S
H800 C808 0.950 . S
H801 C813 0.950 . S
H802 C810 0.950 . S
H803 C812 0.950 . S
H804 C814 0.950 . S
H805 C816 0.950 . S
H806 C818 0.950 . S
H807 C819 0.950 . S
C808 H800 0.950 . S
C808 C809 1.386 . S
C808 C810 1.391 . S
C809 C808 1.386 . S
C809 C813 1.393 . S
C810 H802 0.950 . S
C810 C808 1.391 . S
C810 C811 1.400 . S
C811 C810 1.400 . S
C811 C812 1.398 . S
C811 C817 1.491 . S
C812 H803 0.950 . S
C812 C811 1.398 . S
C812 C813 1.391 . S
C813 H801 0.950 . S
C813 C809 1.393 . S
C813 C812 1.391 . S
C814 H804 0.950 . S
C814 C815 1.386 . S
C814 C816 1.391 . S
C815 C814 1.386 . S
C815 C819 1.393 . S
C816 H805 0.950 . S
C816 C814 1.391 . S
C816 C817 1.400 . S
C817 C811 1.491 . S
C817 C816 1.400 . S
C817 C818 1.398 . S
C818 H806 0.950 . S
C818 C817 1.398 . S
C818 C819 1.391 . S
C819 H807 0.950 . S
C819 C815 1.393 . S
C819 C818 1.391 . S
H820 C828 0.950 . S
H821 C833 0.950 . S
H822 C830 0.950 . S
H823 C832 0.950 . S
H824 C834 0.950 . S
H825 C836 0.950 . S
H826 C838 0.950 . S
H827 C839 0.950 . S
C828 H820 0.950 . S
C828 C829 1.386 . S
C828 C830 1.391 . S
C829 C828 1.386 . S
C829 C833 1.393 . S
C830 H822 0.950 . S
C830 C828 1.391 . S
C830 C831 1.400 . S
C831 C830 1.400 . S
C831 C832 1.398 . S
C831 C837 1.491 . S
C832 H823 0.950 . S
C832 C831 1.398 . S
C832 C833 1.391 . S
C833 H821 0.950 . S
C833 C829 1.393 . S
C833 C832 1.391 . S
C834 H824 0.950 . S
C834 C835 1.386 . S
C834 C836 1.391 . S
C835 C834 1.386 . S
C835 C839 1.393 . S
C836 H825 0.950 . S
C836 C834 1.391 . S
C836 C837 1.400 . S
C837 C831 1.491 . S
C837 C836 1.400 . S
C837 C838 1.398 . S
C838 H826 0.950 . S
C838 C837 1.398 . S
C838 C839 1.391 . S
C839 H827 0.950 . S
C839 C835 1.393 . S
C839 C838 1.391 . S
H840 C848 0.950 . S
H841 C853 0.946 1_556 S
H842 C850 0.950 . S
H843 C852 0.950 1_556 S
H844 C854 0.950 . S
H845 C856 0.950 . S
H846 C858 0.950 . S
H847 C859 0.950 . S
C848 H840 0.950 . S
C848 C849 1.386 . S
C848 C850 1.391 . S
C849 C848 1.386 . S
C849 C853 1.397 . S
C850 H842 0.950 . S
C850 C848 1.391 . S
C850 C851 1.400 . S
C851 C850 1.400 . S
C851 C852 1.398 . S
C851 C857 1.491 . S
C852 H843 0.950 1_554 S
C852 C851 1.398 . S
C852 C853 1.391 . S
C853 H841 0.946 1_554 S
C853 C849 1.397 . S
C853 C852 1.391 . S
C854 H844 0.950 . S
C854 C855 1.386 . S
C854 C856 1.391 . S
C855 C854 1.386 . S
C855 C859 1.393 . S
C856 H845 0.950 . S
C856 C854 1.391 . S
C856 C857 1.400 . S
C857 C851 1.491 . S
C857 C856 1.400 . S
C857 C858 1.398 . S
C858 H846 0.950 . S
C858 C857 1.398 . S
C858 C859 1.391 . S
C859 H847 0.950 . S
C859 C855 1.393 . S
C859 C858 1.391 . S
H860 C868 0.950 . S
H861 C873 0.950 1_556 S
H862 C870 0.950 . S
H863 C872 0.950 1_556 S
H864 C874 0.950 1_556 S
H865 C876 0.950 1_556 S
H866 C878 0.950 . S
H867 C879 0.950 . S
C868 H860 0.950 . S
C868 C869 1.386 . S
C868 C870 1.391 . S
C869 C868 1.386 . S
C869 C873 1.393 . S
C870 H862 0.950 . S
C870 C868 1.391 . S
C870 C871 1.400 . S
C871 C870 1.400 . S
C871 C872 1.398 . S
C871 C877 1.491 . S
C872 H863 0.950 1_554 S
C872 C871 1.398 . S
C872 C873 1.391 . S
C873 H861 0.950 1_554 S
C873 C869 1.393 . S
C873 C872 1.391 . S
C874 H864 0.950 1_554 S
C874 C875 1.386 . S
C874 C876 1.391 . S
C875 C874 1.386 . S
C875 C879 1.393 . S
C876 H865 0.950 1_554 S
C876 C874 1.391 . S
C876 C877 1.400 . S
C877 C871 1.491 . S
C877 C876 1.400 . S
C877 C878 1.398 . S
C878 H866 0.950 . S
C878 C877 1.398 . S
C878 C879 1.391 . S
C879 H867 0.950 . S
C879 C875 1.393 . S
C879 C878 1.391 . S
H880 C888 0.950 . S
H881 C893 0.950 . S
H882 C890 0.950 . S
H883 C892 0.950 . S
H884 C894 0.950 . S
H885 C896 0.950 . S
H886 C898 0.950 . S
H887 C899 0.950 . S
C888 H880 0.950 . S
C888 C889 1.386 1_556 S
C888 C890 1.391 . S
C889 C888 1.386 1_554 S
C889 C893 1.393 . S
C890 H882 0.950 . S
C890 C888 1.391 . S
C890 C891 1.400 1_556 S
C891 C890 1.400 1_554 S
C891 C892 1.398 . S
C891 C897 1.491 . S
C892 H883 0.950 . S
C892 C891 1.398 . S
C892 C893 1.391 . S
C893 H881 0.950 . S
C893 C889 1.393 . S
C893 C892 1.391 . S
C894 H884 0.950 . S
C894 C895 1.386 . S
C894 C896 1.391 . S
C895 C894 1.386 . S
C895 C899 1.393 1_554 S
C896 H885 0.950 . S
C896 C894 1.391 . S
C896 C897 1.400 . S
C897 C891 1.491 . S
C897 C896 1.400 . S
C897 C898 1.398 1_554 S
C898 H886 0.950 . S
C898 C897 1.398 1_556 S
C898 C899 1.391 . S
C899 H887 0.950 . S
C899 C895 1.393 1_556 S
C899 C898 1.391 . S
H900 C908 0.948 1_556 S
H901 C913 0.950 . S
H902 C910 0.950 . S
H903 C912 0.950 . S
H904 C914 0.950 . S
H905 C916 0.950 . S
H906 C918 0.954 . S
H907 C919 0.950 . S
C908 H900 0.948 1_554 S
C908 C909 1.386 . S
C908 C910 1.391 . S
C909 C908 1.386 . S
C909 C913 1.393 . S
C910 H902 0.950 . S
C910 C908 1.391 . S
C910 C911 1.400 . S
C911 C910 1.400 . S
C911 C912 1.398 . S
C911 C917 1.491 . S
C912 H903 0.950 . S
C912 C911 1.398 . S
C912 C913 1.391 . S
C913 H901 0.950 . S
C913 C909 1.393 . S
C913 C912 1.391 . S
C914 H904 0.950 . S
C914 C915 1.386 . S
C914 C916 1.391 . S
C915 C914 1.386 . S
C915 C919 1.393 . S
C916 H905 0.950 . S
C916 C914 1.391 . S
C916 C917 1.400 . S
C917 C911 1.491 . S
C917 C916 1.400 . S
C917 C918 1.398 . S
C918 H906 0.954 . S
C918 C917 1.398 . S
C918 C919 1.391 . S
C919 H907 0.950 . S
C919 C915 1.393 . S
C919 C918 1.391 . S
H920 C928 0.950 . S
H921 C933 0.950 . S
H922 C930 0.950 . S
H923 C932 0.950 . S
H924 C934 0.950 . S
H925 C936 0.950 . S
H926 C938 0.950 . S
H927 C939 0.950 . S
C928 H920 0.950 . S
C928 C929 1.386 1_655 S
C928 C930 1.391 . S
C929 C928 1.386 1_455 S
C929 C933 1.393 . S
C930 H922 0.950 . S
C930 C928 1.391 . S
C930 C931 1.400 1_655 S
C931 C930 1.400 1_455 S
C931 C932 1.398 . S
C931 C937 1.491 . S
C932 H923 0.950 . S
C932 C931 1.398 . S
C932 C933 1.391 . S
C933 H921 0.950 . S
C933 C929 1.393 . S
C933 C932 1.391 . S
C934 H924 0.950 . S
C934 C935 1.386 . S
C934 C936 1.391 . S
C935 C934 1.386 . S
C935 C939 1.393 1_455 S
C936 H925 0.950 . S
C936 C934 1.391 . S
C936 C937 1.400 . S
C937 C931 1.491 . S
C937 C936 1.400 . S
C937 C938 1.398 1_455 S
C938 H926 0.950 . S
C938 C937 1.398 1_655 S
C938 C939 1.391 . S
C939 H927 0.950 . S
C939 C935 1.393 1_655 S
C939 C938 1.391 . S
H940 C948 0.953 . S
H941 C953 0.950 . S
H942 C950 0.950 1_565 S
H943 C952 0.950 . S
H944 C954 0.950 . S
H945 C956 0.950 . S
H946 C958 0.950 1_565 S
H947 C959 0.947 1_565 S
C948 H940 0.953 . S
C948 C949 1.383 1_565 S
C948 C950 1.391 1_565 S
C949 C948 1.383 1_545 S
C949 C953 1.393 . S
C950 H942 0.950 1_545 S
C950 C948 1.391 1_545 S
C950 C951 1.400 . S
C951 C950 1.400 . S
C951 C952 1.398 . S
C951 C957 1.491 . S
C952 H943 0.950 . S
C952 C951 1.398 . S
C952 C953 1.391 . S
C953 H941 0.950 . S
C953 C949 1.393 . S
C953 C952 1.391 . S
C954 H944 0.950 . S
C954 C955 1.386 . S
C954 C956 1.391 . S
C955 C954 1.386 . S
C955 C959 1.393 . S
C956 H945 0.950 . S
C956 C954 1.391 . S
C956 C957 1.400 . S
C957 C951 1.491 . S
C957 C956 1.400 . S
C957 C958 1.398 . S
C958 H946 0.950 1_545 S
C958 C957 1.398 . S
C958 C959 1.391 . S
C959 H947 0.947 1_545 S
C959 C955 1.393 . S
C959 C958 1.391 . S
H960 C968 0.950 . S
H961 C973 0.950 . S
H962 C970 0.950 . S
H963 C972 0.950 . S
H964 C974 0.950 . S
H965 C976 0.950 . S
H966 C978 0.950 . S
H967 C979 0.950 . S
C968 H960 0.950 . S
C968 C969 1.386 . S
C968 C970 1.391 . S
C969 C968 1.386 . S
C969 C973 1.393 1_455 S
C970 H962 0.950 . S
C970 C968 1.391 . S
C970 C971 1.400 . S
C971 C970 1.400 . S
C971 C972 1.398 1_455 S
C971 C977 1.491 . S
C972 H963 0.950 . S
C972 C971 1.398 1_655 S
C972 C973 1.391 . S
C973 H961 0.950 . S
C973 C969 1.393 1_655 S
C973 C972 1.391 . S
C974 H964 0.950 . S
C974 C975 1.386 1_655 S
C974 C976 1.391 . S
C975 C974 1.386 1_455 S
C975 C979 1.393 . S
C976 H965 0.950 . S
C976 C974 1.391 . S
C976 C977 1.400 1_655 S
C977 C971 1.491 . S
C977 C976 1.400 1_455 S
C977 C978 1.398 . S
C978 H966 0.950 . S
C978 C977 1.398 . S
C978 C979 1.391 . S
C979 H967 0.950 . S
C979 C975 1.393 . S
C979 C978 1.391 . S
H980 C988 0.950 . S
H981 C993 0.950 . S
H982 C990 0.950 . S
H983 C992 0.950 . S
H984 C994 0.950 . S
H985 C996 0.950 . S
H986 C998 0.950 . S
H987 C999 0.950 . S
C988 H980 0.950 . S
C988 C989 1.386 . S
C988 C990 1.391 . S
C989 C988 1.386 . S
C989 C993 1.393 . S
C990 H982 0.950 . S
C990 C988 1.391 . S
C990 C991 1.400 . S
C991 C990 1.400 . S
C991 C992 1.398 . S
C991 C997 1.491 . S
C992 H983 0.950 . S
C992 C991 1.398 . S
C992 C993 1.391 . S
C993 H981 0.950 . S
C993 C989 1.393 . S
C993 C992 1.391 . S
C994 H984 0.950 . S
C994 C995 1.386 . S
C994 C996 1.391 . S
C995 C994 1.386 . S
C995 C999 1.393 . S
C996 H985 0.950 . S
C996 C994 1.391 . S
C996 C997 1.400 . S
C997 C991 1.491 . S
C997 C996 1.400 . S
C997 C998 1.398 . S
C998 H986 0.950 . S
C998 C997 1.398 . S
C998 C999 1.391 . S
C999 H987 0.950 . S
C999 C995 1.393 . S
C999 C998 1.391 . S
H1000 C1008 0.950 1_655 S
H1001 C1013 0.950 . S
H1002 C1010 0.950 1_655 S
H1003 C1012 0.950 . S
H1004 C1014 0.950 . S
H1005 C1016 0.950 . S
H1006 C1018 0.950 1_655 S
H1007 C1019 0.950 1_655 S
C1008 H1000 0.950 1_455 S
C1008 C1009 1.386 . S
C1008 C1010 1.391 . S
C1009 C1008 1.386 . S
C1009 C1013 1.393 . S
C1010 H1002 0.950 1_455 S
C1010 C1008 1.391 . S
C1010 C1011 1.400 . S
C1011 C1010 1.400 . S
C1011 C1012 1.398 . S
C1011 C1017 1.491 . S
C1012 H1003 0.950 . S
C1012 C1011 1.398 . S
C1012 C1013 1.391 . S
C1013 H1001 0.950 . S
C1013 C1009 1.393 . S
C1013 C1012 1.391 . S
C1014 H1004 0.950 . S
C1014 C1015 1.386 . S
C1014 C1016 1.391 . S
C1015 C1014 1.386 . S
C1015 C1019 1.393 . S
C1016 H1005 0.950 . S
C1016 C1014 1.391 . S
C1016 C1017 1.400 . S
C1017 C1011 1.491 . S
C1017 C1016 1.400 . S
C1017 C1018 1.398 . S
C1018 H1006 0.950 1_455 S
C1018 C1017 1.398 . S
C1018 C1019 1.391 . S
C1019 H1007 0.950 1_455 S
C1019 C1015 1.393 . S
C1019 C1018 1.391 . S
H1020 C1028 0.950 . S
H1021 C1033 0.950 . S
H1022 C1030 0.950 . S
H1023 C1032 0.950 . S
H1024 C1034 0.950 . S
H1025 C1036 0.950 . S
H1026 C1038 0.950 . S
H1027 C1039 0.950 . S
C1028 H1020 0.950 . S
C1028 C1029 1.386 . S
C1028 C1030 1.391 . S
C1029 C1028 1.386 . S
C1029 C1033 1.393 . S
C1030 H1022 0.950 . S
C1030 C1028 1.391 . S
C1030 C1031 1.400 . S
C1031 C1030 1.400 . S
C1031 C1032 1.398 . S
C1031 C1037 1.491 . S
C1032 H1023 0.950 . S
C1032 C1031 1.398 . S
C1032 C1033 1.391 . S
C1033 H1021 0.950 . S
C1033 C1029 1.393 . S
C1033 C1032 1.391 . S
C1034 H1024 0.950 . S
C1034 C1035 1.386 . S
C1034 C1036 1.391 . S
C1035 C1034 1.386 . S
C1035 C1039 1.393 . S
C1036 H1025 0.950 . S
C1036 C1034 1.391 . S
C1036 C1037 1.400 . S
C1037 C1031 1.491 . S
C1037 C1036 1.400 . S
C1037 C1038 1.398 . S
C1038 H1026 0.950 . S
C1038 C1037 1.398 . S
C1038 C1039 1.391 . S
C1039 H1027 0.950 . S
C1039 C1035 1.393 . S
C1039 C1038 1.391 . S
H1040 C1048 0.950 . S
H1041 C1053 0.952 1_655 S
H1042 C1050 0.950 . S
H1043 C1052 0.926 1_655 S
H1044 C1054 0.950 1_655 S
H1045 C1056 0.950 1_655 S
H1046 C1058 0.950 . S
H1047 C1059 0.950 . S
C1048 H1040 0.950 . S
C1048 C1049 1.386 . S
C1048 C1050 1.391 . S
C1049 C1048 1.386 . S
C1049 C1053 1.390 . S
C1050 H1042 0.950 . S
C1050 C1048 1.391 . S
C1050 C1051 1.400 . S
C1051 C1050 1.400 . S
C1051 C1052 1.423 . S
C1051 C1057 1.491 . S
C1052 H1043 0.926 1_455 S
C1052 C1051 1.423 . S
C1052 C1053 1.390 . S
C1053 H1041 0.952 1_455 S
C1053 C1049 1.390 . S
C1053 C1052 1.390 . S
C1054 H1044 0.950 1_455 S
C1054 C1055 1.386 . S
C1054 C1056 1.391 . S
C1055 C1054 1.386 . S
C1055 C1059 1.393 . S
C1056 H1045 0.950 1_455 S
C1056 C1054 1.391 . S
C1056 C1057 1.400 . S
C1057 C1051 1.491 . S
C1057 C1056 1.400 . S
C1057 C1058 1.398 . S
C1058 H1046 0.950 . S
C1058 C1057 1.398 . S
C1058 C1059 1.391 . S
C1059 H1047 0.950 . S
C1059 C1055 1.393 . S
C1059 C1058 1.391 . S
H1060 C1068 0.950 . S
H1061 C1073 0.950 . S
H1062 C1070 0.950 . S
H1063 C1072 0.950 . S
H1064 C1074 0.950 . S
H1065 C1076 0.950 . S
H1066 C1078 0.950 . S
H1067 C1079 0.950 . S
C1068 H1060 0.950 . S
C1068 C1069 1.386 . S
C1068 C1070 1.391 . S
C1069 C1068 1.386 . S
C1069 C1073 1.393 1_545 S
C1070 H1062 0.950 . S
C1070 C1068 1.391 . S
C1070 C1071 1.400 . S
C1071 C1070 1.400 . S
C1071 C1072 1.398 1_545 S
C1071 C1077 1.491 . S
C1072 H1063 0.950 . S
C1072 C1071 1.398 1_565 S
C1072 C1073 1.391 . S
C1073 H1061 0.950 . S
C1073 C1069 1.393 1_565 S
C1073 C1072 1.391 . S
C1074 H1064 0.950 . S
C1074 C1075 1.386 1_565 S
C1074 C1076 1.391 . S
C1075 C1074 1.386 1_545 S
C1075 C1079 1.393 . S
C1076 H1065 0.950 . S
C1076 C1074 1.391 . S
C1076 C1077 1.400 1_565 S
C1077 C1071 1.491 . S
C1077 C1076 1.400 1_545 S
C1077 C1078 1.398 . S
C1078 H1066 0.950 . S
C1078 C1077 1.398 . S
C1078 C1079 1.391 . S
C1079 H1067 0.950 . S
C1079 C1075 1.393 . S
C1079 C1078 1.391 . S
H1080 C1088 0.950 . S
H1081 C1093 0.950 . S
H1082 C1090 0.950 . S
H1083 C1092 0.950 . S
H1084 C1094 0.950 . S
H1085 C1096 0.950 . S
H1086 C1098 0.950 . S
H1087 C1099 0.950 1_655 S
C1088 H1080 0.950 . S
C1088 C1089 1.386 . S
C1088 C1090 1.391 . S
C1089 C1088 1.386 . S
C1089 C1093 1.393 . S
C1090 H1082 0.950 . S
C1090 C1088 1.391 . S
C1090 C1091 1.400 . S
C1091 C1090 1.400 . S
C1091 C1092 1.398 . S
C1091 C1097 1.491 . S
C1092 H1083 0.950 . S
C1092 C1091 1.398 . S
C1092 C1093 1.391 . S
C1093 H1081 0.950 . S
C1093 C1089 1.393 . S
C1093 C1092 1.391 . S
C1094 H1084 0.950 . S
C1094 C1095 1.386 . S
C1094 C1096 1.391 . S
C1095 C1094 1.386 . S
C1095 C1099 1.393 . S
C1096 H1085 0.950 . S
C1096 C1094 1.391 . S
C1096 C1097 1.400 . S
C1097 C1091 1.491 . S
C1097 C1096 1.400 . S
C1097 C1098 1.398 . S
C1098 H1086 0.950 . S
C1098 C1097 1.398 . S
C1098 C1099 1.391 . S
C1099 H1087 0.950 1_455 S
C1099 C1095 1.393 . S
C1099 C1098 1.391 . S
H1100 C1108 0.950 . S
H1101 C1113 0.950 . S
H1102 C1110 0.950 1_565 S
H1103 C1112 0.950 . S
H1104 C1114 0.950 . S
H1105 C1116 0.950 . S
H1106 C1118 0.950 1_565 S
H1107 C1119 0.950 1_565 S
C1108 H1100 0.950 . S
C1108 C1109 1.386 . S
C1108 C1110 1.391 . S
C1109 C1108 1.386 . S
C1109 C1113 1.393 . S
C1110 H1102 0.950 1_545 S
C1110 C1108 1.391 . S
C1110 C1111 1.400 . S
C1111 C1110 1.400 . S
C1111 C1112 1.398 . S
C1111 C1117 1.491 . S
C1112 H1103 0.950 . S
C1112 C1111 1.398 . S
C1112 C1113 1.391 . S
C1113 H1101 0.950 . S
C1113 C1109 1.393 . S
C1113 C1112 1.391 . S
C1114 H1104 0.950 . S
C1114 C1115 1.386 . S
C1114 C1116 1.391 . S
C1115 C1114 1.386 . S
C1115 C1119 1.393 . S
C1116 H1105 0.950 . S
C1116 C1114 1.391 . S
C1116 C1117 1.400 . S
C1117 C1111 1.491 . S
C1117 C1116 1.400 . S
C1117 C1118 1.398 . S
C1118 H1106 0.950 1_545 S
C1118 C1117 1.398 . S
C1118 C1119 1.391 . S
C1119 H1107 0.950 1_545 S
C1119 C1115 1.393 . S
C1119 C1118 1.391 . S
H1120 C1128 0.950 . S
H1121 C1133 0.950 . S
H1122 C1130 0.950 . S
H1123 C1132 0.950 . S
H1124 C1134 0.950 . S
H1125 C1136 0.950 . S
H1126 C1138 0.950 . S
H1127 C1139 0.950 . S
C1128 H1120 0.950 . S
C1128 C1129 1.386 . S
C1128 C1130 1.391 . S
C1129 C1128 1.386 . S
C1129 C1133 1.393 . S
C1130 H1122 0.950 . S
C1130 C1128 1.391 . S
C1130 C1131 1.400 . S
C1131 C1130 1.400 . S
C1131 C1132 1.398 . S
C1131 C1137 1.491 . S
C1132 H1123 0.950 . S
C1132 C1131 1.398 . S
C1132 C1133 1.391 . S
C1133 H1121 0.950 . S
C1133 C1129 1.393 . S
C1133 C1132 1.391 . S
C1134 H1124 0.950 . S
C1134 C1135 1.386 . S
C1134 C1136 1.391 . S
C1135 C1134 1.386 . S
C1135 C1139 1.393 . S
C1136 H1125 0.950 . S
C1136 C1134 1.391 . S
C1136 C1137 1.400 . S
C1137 C1131 1.491 . S
C1137 C1136 1.400 . S
C1137 C1138 1.398 . S
C1138 H1126 0.950 . S
C1138 C1137 1.398 . S
C1138 C1139 1.391 . S
C1139 H1127 0.950 . S
C1139 C1135 1.393 . S
C1139 C1138 1.391 . S
H1140 C1148 0.950 . S
H1141 C1153 0.950 . S
H1142 C1150 0.961 . S
H1143 C1152 0.950 . S
H1144 C1154 0.950 . S
H1145 C1156 0.950 . S
H1146 C1158 0.950 1_565 S
H1147 C1159 0.950 1_565 S
C1148 H1140 0.950 . S
C1148 C1149 1.386 1_565 S
C1148 C1150 1.394 . S
C1149 C1148 1.386 1_545 S
C1149 C1153 1.393 . S
C1150 H1142 0.961 . S
C1150 C1148 1.394 . S
C1150 C1151 1.388 1_565 S
C1151 C1150 1.388 1_545 S
C1151 C1152 1.398 . S
C1151 C1157 1.491 . S
C1152 H1143 0.950 . S
C1152 C1151 1.398 . S
C1152 C1153 1.391 . S
C1153 H1141 0.950 . S
C1153 C1149 1.393 . S
C1153 C1152 1.391 . S
C1154 H1144 0.950 . S
C1154 C1155 1.386 . S
C1154 C1156 1.391 . S
C1155 C1154 1.386 . S
C1155 C1159 1.393 . S
C1156 H1145 0.950 . S
C1156 C1154 1.391 . S
C1156 C1157 1.400 . S
C1157 C1151 1.491 . S
C1157 C1156 1.400 . S
C1157 C1158 1.398 . S
C1158 H1146 0.950 1_545 S
C1158 C1157 1.398 . S
C1158 C1159 1.391 . S
C1159 H1147 0.950 1_545 S
C1159 C1155 1.393 . S
C1159 C1158 1.391 . S
H1160 C1168 0.950 . S
H1161 C1173 0.950 . S
H1162 C1170 0.950 . S
H1163 C1172 0.950 . S
H1164 C1174 0.950 . S
H1165 C1176 0.950 . S
H1166 C1178 0.950 . S
H1167 C1179 0.950 . S
C1168 H1160 0.950 . S
C1168 C1169 1.375 1_455 S
C1168 C1170 1.391 . S
C1169 C1168 1.375 1_655 S
C1169 C1173 1.404 . S
C1170 H1162 0.950 . S
C1170 C1168 1.391 . S
C1170 C1171 1.400 . S
C1171 C1170 1.400 . S
C1171 C1172 1.398 1_455 S
C1171 C1177 1.491 . S
C1172 H1163 0.950 . S
C1172 C1171 1.398 1_655 S
C1172 C1173 1.391 . S
C1173 H1161 0.950 . S
C1173 C1169 1.404 . S
C1173 C1172 1.391 . S
C1174 H1164 0.950 . S
C1174 C1175 1.386 1_655 S
C1174 C1176 1.391 . S
C1175 C1174 1.386 1_455 S
C1175 C1179 1.393 . S
C1176 H1165 0.950 . S
C1176 C1174 1.391 . S
C1176 C1177 1.400 1_655 S
C1177 C1171 1.491 . S
C1177 C1176 1.400 1_455 S
C1177 C1178 1.398 . S
C1178 H1166 0.950 . S
C1178 C1177 1.398 . S
C1178 C1179 1.391 . S
C1179 H1167 0.950 . S
C1179 C1175 1.393 . S
C1179 C1178 1.391 . S
H1180 C1188 0.950 . S
H1181 C1193 0.950 . S
H1182 C1190 0.950 . S
H1183 C1192 0.950 . S
H1184 C1194 0.950 . S
H1185 C1196 0.950 . S
H1186 C1198 0.950 . S
H1187 C1199 0.950 . S
C1188 H1180 0.950 . S
C1188 C1189 1.386 . S
C1188 C1190 1.391 . S
C1189 C1188 1.386 . S
C1189 C1193 1.393 . S
C1190 H1182 0.950 . S
C1190 C1188 1.391 . S
C1190 C1191 1.400 . S
C1191 C1190 1.400 . S
C1191 C1192 1.398 . S
C1191 C1197 1.491 . S
C1192 H1183 0.950 . S
C1192 C1191 1.398 . S
C1192 C1193 1.391 . S
C1193 H1181 0.950 . S
C1193 C1189 1.393 . S
C1193 C1192 1.391 . S
C1194 H1184 0.950 . S
C1194 C1195 1.386 . S
C1194 C1196 1.391 . S
C1195 C1194 1.386 . S
C1195 C1199 1.393 . S
C1196 H1185 0.950 . S
C1196 C1194 1.391 . S
C1196 C1197 1.400 . S
C1197 C1191 1.491 . S
C1197 C1196 1.400 . S
C1197 C1198 1.398 . S
C1198 H1186 0.950 . S
C1198 C1197 1.398 . S
C1198 C1199 1.391 . S
C1199 H1187 0.950 . S
C1199 C1195 1.393 . S
C1199 C1198 1.391 . S
H1200 C1208 0.950 . S
H1201 C1213 0.950 . S
H1202 C1210 0.950 . S
H1203 C1212 0.950 . S
H1204 C1214 0.950 . S
H1205 C1216 0.950 . S
H1206 C1218 0.950 . S
H1207 C1219 0.950 . S
C1208 H1200 0.950 . S
C1208 C1209 1.386 1_655 S
C1208 C1210 1.391 . S
C1209 C1208 1.386 1_455 S
C1209 C1213 1.393 . S
C1210 H1202 0.950 . S
C1210 C1208 1.391 . S
C1210 C1211 1.400 1_655 S
C1211 C1210 1.400 1_455 S
C1211 C1212 1.398 . S
C1211 C1217 1.491 . S
C1212 H1203 0.950 . S
C1212 C1211 1.398 . S
C1212 C1213 1.391 . S
C1213 H1201 0.950 . S
C1213 C1209 1.393 . S
C1213 C1212 1.391 . S
C1214 H1204 0.950 . S
C1214 C1215 1.386 . S
C1214 C1216 1.391 . S
C1215 C1214 1.386 . S
C1215 C1219 1.393 1_455 S
C1216 H1205 0.950 . S
C1216 C1214 1.391 . S
C1216 C1217 1.400 . S
C1217 C1211 1.491 . S
C1217 C1216 1.400 . S
C1217 C1218 1.398 1_455 S
C1218 H1206 0.950 . S
C1218 C1217 1.398 1_655 S
C1218 C1219 1.391 . S
C1219 H1207 0.950 . S
C1219 C1215 1.393 1_655 S
C1219 C1218 1.391 . S
H1220 C1228 0.950 1_565 S
H1221 C1233 0.950 . S
H1222 C1230 0.950 1_565 S
H1223 C1232 0.950 . S
H1224 C1234 0.950 . S
H1225 C1236 0.950 . S
H1226 C1238 0.950 1_565 S
H1227 C1239 0.950 1_565 S
C1228 H1220 0.950 1_545 S
C1228 C1229 1.386 . S
C1228 C1230 1.391 . S
C1229 C1228 1.386 . S
C1229 C1233 1.393 . S
C1230 H1222 0.950 1_545 S
C1230 C1228 1.391 . S
C1230 C1231 1.400 . S
C1231 C1230 1.400 . S
C1231 C1232 1.398 . S
C1231 C1237 1.491 . S
C1232 H1223 0.950 . S
C1232 C1231 1.398 . S
C1232 C1233 1.391 . S
C1233 H1221 0.950 . S
C1233 C1229 1.393 . S
C1233 C1232 1.391 . S
C1234 H1224 0.950 . S
C1234 C1235 1.386 . S
C1234 C1236 1.391 . S
C1235 C1234 1.386 . S
C1235 C1239 1.393 . S
C1236 H1225 0.950 . S
C1236 C1234 1.391 . S
C1236 C1237 1.400 . S
C1237 C1231 1.491 . S
C1237 C1236 1.400 . S
C1237 C1238 1.398 . S
C1238 H1226 0.950 1_545 S
C1238 C1237 1.398 . S
C1238 C1239 1.391 . S
C1239 H1227 0.950 1_545 S
C1239 C1235 1.393 . S
C1239 C1238 1.391 . S
H1240 C1248 0.950 . S
H1241 C1253 0.950 . S
H1242 C1250 0.950 . S
H1243 C1252 0.950 . S
H1244 C1254 0.950 . S
H1245 C1256 0.950 . S
H1246 C1258 0.950 . S
H1247 C1259 0.950 . S
C1248 H1240 0.950 . S
C1248 C1249 1.386 1_565 S
C1248 C1250 1.391 . S
C1249 C1248 1.386 1_545 S
C1249 C1253 1.393 . S
C1250 H1242 0.950 . S
C1250 C1248 1.391 . S
C1250 C1251 1.400 1_565 S
C1251 C1250 1.400 1_545 S
C1251 C1252 1.398 . S
C1251 C1257 1.491 . S
C1252 H1243 0.950 . S
C1252 C1251 1.398 . S
C1252 C1253 1.391 . S
C1253 H1241 0.950 . S
C1253 C1249 1.393 . S
C1253 C1252 1.391 . S
C1254 H1244 0.950 . S
C1254 C1255 1.386 . S
C1254 C1256 1.391 . S
C1255 C1254 1.386 . S
C1255 C1259 1.393 1_545 S
C1256 H1245 0.950 . S
C1256 C1254 1.391 . S
C1256 C1257 1.400 . S
C1257 C1251 1.491 . S
C1257 C1256 1.400 . S
C1257 C1258 1.398 1_545 S
C1258 H1246 0.950 . S
C1258 C1257 1.398 1_565 S
C1258 C1259 1.391 . S
C1259 H1247 0.950 . S
C1259 C1255 1.393 1_565 S
C1259 C1258 1.391 . S
H1260 C1268 0.950 . S
H1261 C1273 0.950 . S
H1262 C1270 0.950 . S
H1263 C1272 0.952 1_655 S
H1264 C1274 0.950 1_655 S
H1265 C1276 0.950 1_655 S
H1266 C1278 0.950 . S
H1267 C1279 0.950 . S
C1268 H1260 0.950 . S
C1268 C1269 1.386 . S
C1268 C1270 1.391 . S
C1269 C1268 1.386 . S
C1269 C1273 1.393 . S
C1270 H1262 0.950 . S
C1270 C1268 1.391 . S
C1270 C1271 1.400 . S
C1271 C1270 1.400 . S
C1271 C1272 1.398 . S
C1271 C1277 1.491 . S
C1272 H1263 0.952 1_455 S
C1272 C1271 1.398 . S
C1272 C1273 1.391 . S
C1273 H1261 0.950 . S
C1273 C1269 1.393 . S
C1273 C1272 1.391 . S
C1274 H1264 0.950 1_455 S
C1274 C1275 1.386 . S
C1274 C1276 1.391 . S
C1275 C1274 1.386 . S
C1275 C1279 1.393 . S
C1276 H1265 0.950 1_455 S
C1276 C1274 1.391 . S
C1276 C1277 1.400 . S
C1277 C1271 1.491 . S
C1277 C1276 1.400 . S
C1277 C1278 1.398 . S
C1278 H1266 0.950 . S
C1278 C1277 1.398 . S
C1278 C1279 1.391 . S
C1279 H1267 0.950 . S
C1279 C1275 1.393 . S
C1279 C1278 1.391 . S
H1280 C1288 0.950 . S
H1281 C1293 0.950 . S
H1282 C1290 0.950 . S
H1283 C1292 0.950 . S
H1284 C1294 0.950 . S
H1285 C1296 0.950 . S
H1286 C1298 0.950 . S
H1287 C1299 0.950 . S
C1288 H1280 0.950 . S
C1288 C1289 1.386 . S
C1288 C1290 1.391 . S
C1289 C1288 1.386 . S
C1289 C1293 1.393 . S
C1290 H1282 0.950 . S
C1290 C1288 1.391 . S
C1290 C1291 1.400 . S
C1291 C1290 1.400 . S
C1291 C1292 1.398 . S
C1291 C1297 1.491 . S
C1292 H1283 0.950 . S
C1292 C1291 1.398 . S
C1292 C1293 1.391 . S
C1293 H1281 0.950 . S
C1293 C1289 1.393 . S
C1293 C1292 1.391 . S
C1294 H1284 0.950 . S
C1294 C1295 1.386 . S
C1294 C1296 1.391 . S
C1295 C1294 1.386 . S
C1295 C1299 1.393 . S
C1296 H1285 0.950 . S
C1296 C1294 1.391 . S
C1296 C1297 1.400 . S
C1297 C1291 1.491 . S
C1297 C1296 1.400 . S
C1297 C1298 1.398 . S
C1298 H1286 0.950 . S
C1298 C1297 1.398 . S
C1298 C1299 1.391 . S
C1299 H1287 0.950 . S
C1299 C1295 1.393 . S
C1299 C1298 1.391 . S
H1300 C1308 0.950 . S
H1301 C1313 0.950 . S
H1302 C1310 0.950 . S
H1303 C1312 0.950 . S
H1304 C1314 0.950 . S
H1305 C1316 0.950 . S
H1306 C1318 0.950 . S
H1307 C1319 0.950 . S
C1308 H1300 0.950 . S
C1308 C1309 1.386 . S
C1308 C1310 1.391 . S
C1309 C1308 1.386 . S
C1309 C1313 1.393 . S
C1310 H1302 0.950 . S
C1310 C1308 1.391 . S
C1310 C1311 1.400 . S
C1311 C1310 1.400 . S
C1311 C1312 1.398 . S
C1311 C1317 1.491 . S
C1312 H1303 0.950 . S
C1312 C1311 1.398 . S
C1312 C1313 1.391 . S
C1313 H1301 0.950 . S
C1313 C1309 1.393 . S
C1313 C1312 1.391 . S
C1314 H1304 0.950 . S
C1314 C1315 1.386 . S
C1314 C1316 1.391 . S
C1315 C1314 1.386 . S
C1315 C1319 1.393 . S
C1316 H1305 0.950 . S
C1316 C1314 1.391 . S
C1316 C1317 1.400 . S
C1317 C1311 1.491 . S
C1317 C1316 1.400 . S
C1317 C1318 1.398 . S
C1318 H1306 0.950 . S
C1318 C1317 1.398 . S
C1318 C1319 1.391 . S
C1319 H1307 0.950 . S
C1319 C1315 1.393 . S
C1319 C1318 1.391 . S
H1320 C1328 0.950 . S
H1321 C1333 0.950 . S
H1322 C1330 0.950 . S
H1323 C1332 0.950 . S
H1324 C1334 0.950 . S
H1325 C1336 0.950 . S
H1326 C1338 0.950 . S
H1327 C1339 0.950 . S
C1328 H1320 0.950 . S
C1328 C1329 1.386 1_565 S
C1328 C1330 1.391 . S
C1329 C1328 1.386 1_545 S
C1329 C1333 1.393 . S
C1330 H1322 0.950 . S
C1330 C1328 1.391 . S
C1330 C1331 1.400 1_565 S
C1331 C1330 1.400 1_545 S
C1331 C1332 1.398 . S
C1331 C1337 1.491 . S
C1332 H1323 0.950 . S
C1332 C1331 1.398 . S
C1332 C1333 1.391 . S
C1333 H1321 0.950 . S
C1333 C1329 1.393 . S
C1333 C1332 1.391 . S
C1334 H1324 0.950 . S
C1334 C1335 1.386 . S
C1334 C1336 1.391 . S
C1335 C1334 1.386 . S
C1335 C1339 1.393 1_545 S
C1336 H1325 0.950 . S
C1336 C1334 1.391 . S
C1336 C1337 1.400 . S
C1337 C1331 1.491 . S
C1337 C1336 1.400 . S
C1337 C1338 1.398 1_545 S
C1338 H1326 0.950 . S
C1338 C1337 1.398 1_565 S
C1338 C1339 1.391 . S
C1339 H1327 0.950 . S
C1339 C1335 1.393 1_565 S
C1339 C1338 1.391 . S
H1340 C1348 0.950 1_655 S
H1341 C1353 0.950 . S
H1342 C1350 0.950 1_655 S
H1343 C1352 0.950 . S
H1344 C1354 0.950 . S
H1345 C1356 0.950 . S
H1346 C1358 0.950 1_655 S
H1347 C1359 0.950 1_655 S
C1348 H1340 0.950 1_455 S
C1348 C1349 1.386 . S
C1348 C1350 1.391 . S
C1349 C1348 1.386 . S
C1349 C1353 1.393 . S
C1350 H1342 0.950 1_455 S
C1350 C1348 1.391 . S
C1350 C1351 1.400 . S
C1351 C1350 1.400 . S
C1351 C1352 1.398 . S
C1351 C1357 1.491 . S
C1352 H1343 0.950 . S
C1352 C1351 1.398 . S
C1352 C1353 1.391 . S
C1353 H1341 0.950 . S
C1353 C1349 1.393 . S
C1353 C1352 1.391 . S
C1354 H1344 0.950 . S
C1354 C1355 1.386 . S
C1354 C1356 1.391 . S
C1355 C1354 1.386 . S
C1355 C1359 1.393 . S
C1356 H1345 0.950 . S
C1356 C1354 1.391 . S
C1356 C1357 1.400 . S
C1357 C1351 1.491 . S
C1357 C1356 1.400 . S
C1357 C1358 1.398 . S
C1358 H1346 0.950 1_455 S
C1358 C1357 1.398 . S
C1358 C1359 1.391 . S
C1359 H1347 0.950 1_455 S
C1359 C1355 1.393 . S
C1359 C1358 1.391 . S
H1360 C1368 0.950 . S
H1361 C1373 0.950 . S
H1362 C1370 0.950 . S
H1363 C1372 0.950 . S
H1364 C1374 0.950 . S
H1365 C1376 0.950 . S
H1366 C1378 0.950 . S
H1367 C1379 0.950 . S
C1368 H1360 0.950 . S
C1368 C1369 1.386 . S
C1368 C1370 1.391 . S
C1369 C1368 1.386 . S
C1369 C1373 1.393 . S
C1370 H1362 0.950 . S
C1370 C1368 1.391 . S
C1370 C1371 1.400 . S
C1371 C1370 1.400 . S
C1371 C1372 1.398 . S
C1371 C1377 1.491 . S
C1372 H1363 0.950 . S
C1372 C1371 1.398 . S
C1372 C1373 1.391 . S
C1373 H1361 0.950 . S
C1373 C1369 1.393 . S
C1373 C1372 1.391 . S
C1374 H1364 0.950 . S
C1374 C1375 1.386 . S
C1374 C1376 1.391 . S
C1375 C1374 1.386 . S
C1375 C1379 1.393 . S
C1376 H1365 0.950 . S
C1376 C1374 1.391 . S
C1376 C1377 1.400 . S
C1377 C1371 1.491 . S
C1377 C1376 1.400 . S
C1377 C1378 1.398 . S
C1378 H1366 0.950 . S
C1378 C1377 1.398 . S
C1378 C1379 1.391 . S
C1379 H1367 0.950 . S
C1379 C1375 1.393 . S
C1379 C1378 1.391 . S
H1380 C1388 0.950 . S
H1381 C1393 0.950 . S
H1382 C1390 0.950 . S
H1383 C1392 0.950 . S
H1384 C1394 0.950 1_655 S
H1385 C1396 0.948 1_655 S
H1386 C1398 0.950 . S
H1387 C1399 0.950 . S
C1388 H1380 0.950 . S
C1388 C1389 1.386 . S
C1388 C1390 1.391 . S
C1389 C1388 1.386 . S
C1389 C1393 1.393 1_455 S
C1390 H1382 0.950 . S
C1390 C1388 1.391 . S
C1390 C1391 1.400 . S
C1391 C1390 1.400 . S
C1391 C1392 1.398 1_455 S
C1391 C1397 1.491 . S
C1392 H1383 0.950 . S
C1392 C1391 1.398 1_655 S
C1392 C1393 1.391 . S
C1393 H1381 0.950 . S
C1393 C1389 1.393 1_655 S
C1393 C1392 1.391 . S
C1394 H1384 0.950 1_455 S
C1394 C1395 1.386 . S
C1394 C1396 1.392 . S
C1395 C1394 1.386 . S
C1395 C1399 1.393 . S
C1396 H1385 0.948 1_455 S
C1396 C1394 1.392 . S
C1396 C1397 1.402 . S
C1397 C1391 1.491 . S
C1397 C1396 1.402 . S
C1397 C1398 1.398 . S
C1398 H1386 0.950 . S
C1398 C1397 1.398 . S
C1398 C1399 1.391 . S
C1399 H1387 0.950 . S
C1399 C1395 1.393 . S
C1399 C1398 1.391 . S
H1400 C1408 0.950 . S
H1401 C1413 0.950 . S
H1402 C1410 0.950 . S
H1403 C1412 0.950 . S
H1404 C1414 0.950 . S
H1405 C1416 0.950 . S
H1406 C1418 0.950 . S
H1407 C1419 0.950 . S
C1408 H1400 0.950 . S
C1408 C1409 1.386 . S
C1408 C1410 1.391 . S
C1409 C1408 1.386 . S
C1409 C1413 1.393 . S
C1410 H1402 0.950 . S
C1410 C1408 1.391 . S
C1410 C1411 1.400 . S
C1411 C1410 1.400 . S
C1411 C1412 1.398 . S
C1411 C1417 1.491 . S
C1412 H1403 0.950 . S
C1412 C1411 1.398 . S
C1412 C1413 1.391 . S
C1413 H1401 0.950 . S
C1413 C1409 1.393 . S
C1413 C1412 1.391 . S
C1414 H1404 0.950 . S
C1414 C1415 1.386 . S
C1414 C1416 1.391 . S
C1415 C1414 1.386 . S
C1415 C1419 1.393 . S
C1416 H1405 0.950 . S
C1416 C1414 1.391 . S
C1416 C1417 1.400 . S
C1417 C1411 1.491 . S
C1417 C1416 1.400 . S
C1417 C1418 1.398 . S
C1418 H1406 0.950 . S
C1418 C1417 1.398 . S
C1418 C1419 1.391 . S
C1419 H1407 0.950 . S
C1419 C1415 1.393 . S
C1419 C1418 1.391 . S
H1420 C1428 0.950 . S
H1421 C1433 0.950 . S
H1422 C1430 0.950 . S
H1423 C1432 0.950 . S
H1424 C1434 0.950 . S
H1425 C1436 0.950 . S
H1426 C1438 0.950 . S
H1427 C1439 0.950 . S
C1428 H1420 0.950 . S
C1428 C1429 1.386 . S
C1428 C1430 1.391 . S
C1429 C1428 1.386 . S
C1429 C1433 1.393 . S
C1430 H1422 0.950 . S
C1430 C1428 1.391 . S
C1430 C1431 1.400 . S
C1431 C1430 1.400 . S
C1431 C1432 1.398 . S
C1431 C1437 1.491 . S
C1432 H1423 0.950 . S
C1432 C1431 1.398 . S
C1432 C1433 1.391 . S
C1433 H1421 0.950 . S
C1433 C1429 1.393 . S
C1433 C1432 1.391 . S
C1434 H1424 0.950 . S
C1434 C1435 1.386 . S
C1434 C1436 1.391 . S
C1435 C1434 1.386 . S
C1435 C1439 1.393 . S
C1436 H1425 0.950 . S
C1436 C1434 1.391 . S
C1436 C1437 1.400 . S
C1437 C1431 1.491 . S
C1437 C1436 1.400 . S
C1437 C1438 1.398 . S
C1438 H1426 0.950 . S
C1438 C1437 1.398 . S
C1438 C1439 1.391 . S
C1439 H1427 0.950 . S
C1439 C1435 1.393 . S
C1439 C1438 1.391 . S
H1440 C1448 0.950 . S
H1441 C1453 0.950 1_556 S
H1442 C1450 0.950 . S
H1443 C1452 0.950 1_556 S
H1444 C1454 0.950 . S
H1445 C1456 0.950 . S
H1446 C1458 0.950 . S
H1447 C1459 0.950 . S
C1448 H1440 0.950 . S
C1448 C1449 1.386 . S
C1448 C1450 1.391 . S
C1449 C1448 1.386 . S
C1449 C1453 1.393 . S
C1450 H1442 0.950 . S
C1450 C1448 1.391 . S
C1450 C1451 1.400 . S
C1451 C1450 1.400 . S
C1451 C1452 1.398 . S
C1451 C1457 1.491 . S
C1452 H1443 0.950 1_554 S
C1452 C1451 1.398 . S
C1452 C1453 1.391 . S
C1453 H1441 0.950 1_554 S
C1453 C1449 1.393 . S
C1453 C1452 1.391 . S
C1454 H1444 0.950 . S
C1454 C1455 1.386 1_556 S
C1454 C1456 1.391 . S
C1455 C1454 1.386 1_554 S
C1455 C1459 1.393 . S
C1456 H1445 0.950 . S
C1456 C1454 1.391 . S
C1456 C1457 1.400 1_556 S
C1457 C1451 1.491 . S
C1457 C1456 1.400 1_554 S
C1457 C1458 1.398 . S
C1458 H1446 0.950 . S
C1458 C1457 1.398 . S
C1458 C1459 1.391 . S
C1459 H1447 0.950 . S
C1459 C1455 1.393 . S
C1459 C1458 1.391 . S
H1460 C1468 0.950 . S
H1461 C1473 0.950 . S
H1462 C1470 0.950 . S
H1463 C1472 0.950 . S
H1464 C1474 0.950 . S
H1465 C1476 0.950 . S
H1466 C1478 0.950 . S
H1467 C1479 0.950 . S
C1468 H1460 0.950 . S
C1468 C1469 1.386 . S
C1468 C1470 1.391 . S
C1469 C1468 1.386 . S
C1469 C1473 1.393 1_554 S
C1470 H1462 0.950 . S
C1470 C1468 1.391 . S
C1470 C1471 1.400 . S
C1471 C1470 1.400 . S
C1471 C1472 1.398 1_554 S
C1471 C1477 1.491 . S
C1472 H1463 0.950 . S
C1472 C1471 1.398 1_556 S
C1472 C1473 1.391 . S
C1473 H1461 0.950 . S
C1473 C1469 1.393 1_556 S
C1473 C1472 1.391 . S
C1474 H1464 0.950 . S
C1474 C1475 1.386 1_556 S
C1474 C1476 1.391 . S
C1475 C1474 1.386 1_554 S
C1475 C1479 1.393 . S
C1476 H1465 0.950 . S
C1476 C1474 1.391 . S
C1476 C1477 1.400 1_556 S
C1477 C1471 1.491 . S
C1477 C1476 1.400 1_554 S
C1477 C1478 1.398 . S
C1478 H1466 0.950 . S
C1478 C1477 1.398 . S
C1478 C1479 1.391 . S
C1479 H1467 0.950 . S
C1479 C1475 1.393 . S
C1479 C1478 1.391 . S
H1480 C1488 0.950 . S
H1481 C1493 0.950 . S
H1482 C1490 0.950 . S
H1483 C1492 0.950 . S
H1484 C1494 0.950 . S
H1485 C1496 0.950 . S
H1486 C1498 0.950 . S
H1487 C1499 0.950 . S
C1488 H1480 0.950 . S
C1488 C1489 1.386 1_556 S
C1488 C1490 1.391 . S
C1489 C1488 1.386 1_554 S
C1489 C1493 1.393 . S
C1490 H1482 0.950 . S
C1490 C1488 1.391 . S
C1490 C1491 1.400 1_556 S
C1491 C1490 1.400 1_554 S
C1491 C1492 1.398 . S
C1491 C1497 1.491 . S
C1492 H1483 0.950 . S
C1492 C1491 1.398 . S
C1492 C1493 1.391 . S
C1493 H1481 0.950 . S
C1493 C1489 1.393 . S
C1493 C1492 1.391 . S
C1494 H1484 0.950 . S
C1494 C1495 1.386 . S
C1494 C1496 1.391 . S
C1495 C1494 1.386 . S
C1495 C1499 1.393 1_554 S
C1496 H1485 0.950 . S
C1496 C1494 1.391 . S
C1496 C1497 1.400 . S
C1497 C1491 1.491 . S
C1497 C1496 1.400 . S
C1497 C1498 1.398 1_554 S
C1498 H1486 0.950 . S
C1498 C1497 1.398 1_556 S
C1498 C1499 1.391 . S
C1499 H1487 0.950 . S
C1499 C1495 1.393 1_556 S
C1499 C1498 1.391 . S
H1500 C1508 0.950 . S
H1501 C1513 0.950 . S
H1502 C1510 0.950 . S
H1503 C1512 0.950 . S
H1504 C1514 0.950 . S
H1505 C1516 0.950 . S
H1506 C1518 0.950 . S
H1507 C1519 0.950 . S
C1508 H1500 0.950 . S
C1508 C1509 1.386 1_556 S
C1508 C1510 1.391 . S
C1509 C1508 1.386 1_554 S
C1509 C1513 1.393 . S
C1510 H1502 0.950 . S
C1510 C1508 1.391 . S
C1510 C1511 1.400 1_556 S
C1511 C1510 1.400 1_554 S
C1511 C1512 1.398 . S
C1511 C1517 1.491 . S
C1512 H1503 0.950 . S
C1512 C1511 1.398 . S
C1512 C1513 1.391 . S
C1513 H1501 0.950 . S
C1513 C1509 1.393 . S
C1513 C1512 1.391 . S
C1514 H1504 0.950 . S
C1514 C1515 1.386 . S
C1514 C1516 1.391 . S
C1515 C1514 1.386 . S
C1515 C1519 1.393 1_554 S
C1516 H1505 0.950 . S
C1516 C1514 1.391 . S
C1516 C1517 1.400 . S
C1517 C1511 1.491 . S
C1517 C1516 1.400 . S
C1517 C1518 1.398 1_554 S
C1518 H1506 0.950 . S
C1518 C1517 1.398 1_556 S
C1518 C1519 1.391 . S
C1519 H1507 0.950 . S
C1519 C1515 1.393 1_556 S
C1519 C1518 1.391 . S
H1520 C1528 0.950 . S
H1521 C1533 0.950 . S
H1522 C1530 0.950 . S
H1523 C1532 0.950 . S
H1524 C1534 0.950 1_556 S
H1525 C1536 0.951 . S
H1526 C1538 0.950 . S
H1527 C1539 0.950 . S
C1528 H1520 0.950 . S
C1528 C1529 1.386 . S
C1528 C1530 1.391 . S
C1529 C1528 1.386 . S
C1529 C1533 1.393 . S
C1530 H1522 0.950 . S
C1530 C1528 1.391 . S
C1530 C1531 1.400 . S
C1531 C1530 1.400 . S
C1531 C1532 1.398 . S
C1531 C1537 1.491 . S
C1532 H1523 0.950 . S
C1532 C1531 1.398 . S
C1532 C1533 1.391 . S
C1533 H1521 0.950 . S
C1533 C1529 1.393 . S
C1533 C1532 1.391 . S
C1534 H1524 0.950 1_554 S
C1534 C1535 1.386 . S
C1534 C1536 1.391 . S
C1535 C1534 1.386 . S
C1535 C1539 1.393 . S
C1536 H1525 0.951 . S
C1536 C1534 1.391 . S
C1536 C1537 1.400 . S
C1537 C1531 1.491 . S
C1537 C1536 1.400 . S
C1537 C1538 1.398 . S
C1538 H1526 0.950 . S
C1538 C1537 1.398 . S
C1538 C1539 1.391 . S
C1539 H1527 0.950 . S
C1539 C1535 1.393 . S
C1539 C1538 1.391 . S
H1540 C1548 0.950 . S
H1541 C1553 0.950 . S
H1542 C1550 0.950 . S
H1543 C1552 0.950 . S
H1544 C1554 0.950 . S
H1545 C1556 0.950 . S
H1546 C1558 0.950 . S
H1547 C1559 0.950 . S
C1548 H1540 0.950 . S
C1548 C1549 1.386 1_556 S
C1548 C1550 1.391 . S
C1549 C1548 1.386 1_554 S
C1549 C1553 1.393 . S
C1550 H1542 0.950 . S
C1550 C1548 1.391 . S
C1550 C1551 1.400 1_556 S
C1551 C1550 1.400 1_554 S
C1551 C1552 1.398 . S
C1551 C1557 1.491 . S
C1552 H1543 0.950 . S
C1552 C1551 1.398 . S
C1552 C1553 1.391 . S
C1553 H1541 0.950 . S
C1553 C1549 1.393 . S
C1553 C1552 1.391 . S
C1554 H1544 0.950 . S
C1554 C1555 1.386 . S
C1554 C1556 1.391 . S
C1555 C1554 1.386 . S
C1555 C1559 1.393 1_554 S
C1556 H1545 0.950 . S
C1556 C1554 1.391 . S
C1556 C1557 1.400 . S
C1557 C1551 1.491 . S
C1557 C1556 1.400 . S
C1557 C1558 1.398 1_554 S
C1558 H1546 0.950 . S
C1558 C1557 1.398 1_556 S
C1558 C1559 1.391 . S
C1559 H1547 0.950 . S
C1559 C1555 1.393 1_556 S
C1559 C1558 1.391 . S
H1560 C1568 0.950 . S
H1561 C1573 0.950 . S
H1562 C1570 0.950 . S
H1563 C1572 0.950 . S
H1564 C1574 0.950 . S
H1565 C1576 0.950 . S
H1566 C1578 0.950 . S
H1567 C1579 0.950 . S
C1568 H1560 0.950 . S
C1568 C1569 1.386 . S
C1568 C1570 1.391 . S
C1569 C1568 1.386 . S
C1569 C1573 1.393 . S
C1570 H1562 0.950 . S
C1570 C1568 1.391 . S
C1570 C1571 1.400 . S
C1571 C1570 1.400 . S
C1571 C1572 1.398 . S
C1571 C1577 1.491 . S
C1572 H1563 0.950 . S
C1572 C1571 1.398 . S
C1572 C1573 1.391 . S
C1573 H1561 0.950 . S
C1573 C1569 1.393 . S
C1573 C1572 1.391 . S
C1574 H1564 0.950 . S
C1574 C1575 1.386 . S
C1574 C1576 1.391 . S
C1575 C1574 1.386 . S
C1575 C1579 1.393 . S
C1576 H1565 0.950 . S
C1576 C1574 1.391 . S
C1576 C1577 1.400 . S
C1577 C1571 1.491 . S
C1577 C1576 1.400 . S
C1577 C1578 1.398 . S
C1578 H1566 0.950 . S
C1578 C1577 1.398 . S
C1578 C1579 1.391 . S
C1579 H1567 0.950 . S
C1579 C1575 1.393 . S
C1579 C1578 1.391 . S
H1580 C1588 0.950 . S
H1581 C1593 0.950 . S
H1582 C1590 0.950 . S
H1583 C1592 0.950 . S
H1584 C1594 0.950 . S
H1585 C1596 0.950 . S
H1586 C1598 0.950 . S
H1587 C1599 0.950 . S
C1588 H1580 0.950 . S
C1588 C1589 1.386 . S
C1588 C1590 1.391 . S
C1589 C1588 1.386 . S
C1589 C1593 1.393 . S
C1590 H1582 0.950 . S
C1590 C1588 1.391 . S
C1590 C1591 1.400 . S
C1591 C1590 1.400 . S
C1591 C1592 1.398 . S
C1591 C1597 1.491 . S
C1592 H1583 0.950 . S
C1592 C1591 1.398 . S
C1592 C1593 1.391 . S
C1593 H1581 0.950 . S
C1593 C1589 1.393 . S
C1593 C1592 1.391 . S
C1594 H1584 0.950 . S
C1594 C1595 1.386 . S
C1594 C1596 1.391 . S
C1595 C1594 1.386 . S
C1595 C1599 1.393 . S
C1596 H1585 0.950 . S
C1596 C1594 1.391 . S
C1596 C1597 1.400 . S
C1597 C1591 1.491 . S
C1597 C1596 1.400 . S
C1597 C1598 1.398 . S
C1598 H1586 0.950 . S
C1598 C1597 1.398 . S
C1598 C1599 1.391 . S
C1599 H1587 0.950 . S
C1599 C1595 1.393 . S
C1599 C1598 1.391 . S
H1600 C1608 0.950 . S
H1601 C1613 0.950 . S
H1602 C1610 0.950 . S
H1603 C1612 0.950 . S
H1604 C1614 0.950 . S
H1605 C1616 0.950 . S
H1606 C1618 0.950 . S
H1607 C1619 0.950 . S
C1608 H1600 0.950 . S
C1608 C1609 1.386 . S
C1608 C1610 1.391 . S
C1609 C1608 1.386 . S
C1609 C1613 1.393 . S
C1610 H1602 0.950 . S
C1610 C1608 1.391 . S
C1610 C1611 1.400 . S
C1611 C1610 1.400 . S
C1611 C1612 1.398 . S
C1611 C1617 1.491 . S
C1612 H1603 0.950 . S
C1612 C1611 1.398 . S
C1612 C1613 1.391 . S
C1613 H1601 0.950 . S
C1613 C1609 1.393 . S
C1613 C1612 1.391 . S
C1614 H1604 0.950 . S
C1614 C1615 1.386 . S
C1614 C1616 1.391 . S
C1615 C1614 1.386 . S
C1615 C1619 1.393 . S
C1616 H1605 0.950 . S
C1616 C1614 1.391 . S
C1616 C1617 1.400 . S
C1617 C1611 1.491 . S
C1617 C1616 1.400 . S
C1617 C1618 1.398 . S
C1618 H1606 0.950 . S
C1618 C1617 1.398 . S
C1618 C1619 1.391 . S
C1619 H1607 0.950 . S
C1619 C1615 1.393 . S
C1619 C1618 1.391 . S
H1620 C1628 0.950 . S
H1621 C1633 0.950 . S
H1622 C1630 0.950 . S
H1623 C1632 0.950 . S
H1624 C1634 0.950 . S
H1625 C1636 0.950 . S
H1626 C1638 0.950 . S
H1627 C1639 0.950 . S
C1628 H1620 0.950 . S
C1628 C1629 1.386 . S
C1628 C1630 1.391 . S
C1629 C1628 1.386 . S
C1629 C1633 1.393 . S
C1630 H1622 0.950 . S
C1630 C1628 1.391 . S
C1630 C1631 1.400 . S
C1631 C1630 1.400 . S
C1631 C1632 1.398 . S
C1631 C1637 1.491 . S
C1632 H1623 0.950 . S
C1632 C1631 1.398 . S
C1632 C1633 1.391 . S
C1633 H1621 0.950 . S
C1633 C1629 1.393 . S
C1633 C1632 1.391 . S
C1634 H1624 0.950 . S
C1634 C1635 1.386 . S
C1634 C1636 1.391 . S
C1635 C1634 1.386 . S
C1635 C1639 1.393 . S
C1636 H1625 0.950 . S
C1636 C1634 1.391 . S
C1636 C1637 1.400 . S
C1637 C1631 1.491 . S
C1637 C1636 1.400 . S
C1637 C1638 1.398 . S
C1638 H1626 0.950 . S
C1638 C1637 1.398 . S
C1638 C1639 1.391 . S
C1639 H1627 0.950 . S
C1639 C1635 1.393 . S
C1639 C1638 1.391 . S
H1640 C1648 0.950 . S
H1641 C1653 0.950 . S
H1642 C1650 0.950 . S
H1643 C1652 0.950 . S
H1644 C1654 0.950 . S
H1645 C1656 0.950 . S
H1646 C1658 0.950 . S
H1647 C1659 0.950 . S
C1648 H1640 0.950 . S
C1648 C1649 1.386 . S
C1648 C1650 1.391 . S
C1649 C1648 1.386 . S
C1649 C1653 1.393 . S
C1650 H1642 0.950 . S
C1650 C1648 1.391 . S
C1650 C1651 1.400 . S
C1651 C1650 1.400 . S
C1651 C1652 1.398 . S
C1651 C1657 1.491 . S
C1652 H1643 0.950 . S
C1652 C1651 1.398 . S
C1652 C1653 1.391 . S
C1653 H1641 0.950 . S
C1653 C1649 1.393 . S
C1653 C1652 1.391 . S
C1654 H1644 0.950 . S
C1654 C1655 1.386 . S
C1654 C1656 1.391 . S
C1655 C1654 1.386 . S
C1655 C1659 1.393 . S
C1656 H1645 0.950 . S
C1656 C1654 1.391 . S
C1656 C1657 1.400 . S
C1657 C1651 1.491 . S
C1657 C1656 1.400 . S
C1657 C1658 1.398 . S
C1658 H1646 0.950 . S
C1658 C1657 1.398 . S
C1658 C1659 1.391 . S
C1659 H1647 0.950 . S
C1659 C1655 1.393 . S
C1659 C1658 1.391 . S
H1660 C1668 0.950 . S
H1661 C1673 0.950 . S
H1662 C1670 0.950 . S
H1663 C1672 0.950 . S
H1664 C1674 0.950 . S
H1665 C1676 0.950 . S
H1666 C1678 0.950 . S
H1667 C1679 0.950 . S
C1668 H1660 0.950 . S
C1668 C1669 1.386 . S
C1668 C1670 1.391 . S
C1669 C1668 1.386 . S
C1669 C1673 1.393 . S
C1670 H1662 0.950 . S
C1670 C1668 1.391 . S
C1670 C1671 1.400 . S
C1671 C1670 1.400 . S
C1671 C1672 1.398 . S
C1671 C1677 1.491 . S
C1672 H1663 0.950 . S
C1672 C1671 1.398 . S
C1672 C1673 1.391 . S
C1673 H1661 0.950 . S
C1673 C1669 1.393 . S
C1673 C1672 1.391 . S
C1674 H1664 0.950 . S
C1674 C1675 1.386 . S
C1674 C1676 1.391 . S
C1675 C1674 1.386 . S
C1675 C1679 1.393 . S
C1676 H1665 0.950 . S
C1676 C1674 1.391 . S
C1676 C1677 1.400 . S
C1677 C1671 1.491 . S
C1677 C1676 1.400 . S
C1677 C1678 1.398 . S
C1678 H1666 0.950 . S
C1678 C1677 1.398 . S
C1678 C1679 1.391 . S
C1679 H1667 0.950 . S
C1679 C1675 1.393 . S
C1679 C1678 1.391 . S
H1680 C1688 0.950 . S
H1681 C1693 0.950 . S
H1682 C1690 0.950 . S
H1683 C1692 0.950 . S
H1684 C1694 0.950 . S
H1685 C1696 0.950 . S
H1686 C1698 0.950 . S
H1687 C1699 0.950 . S
C1688 H1680 0.950 . S
C1688 C1689 1.386 . S
C1688 C1690 1.391 . S
C1689 C1688 1.386 . S
C1689 C1693 1.393 . S
C1690 H1682 0.950 . S
C1690 C1688 1.391 . S
C1690 C1691 1.400 . S
C1691 C1690 1.400 . S
C1691 C1692 1.398 . S
C1691 C1697 1.491 . S
C1692 H1683 0.950 . S
C1692 C1691 1.398 . S
C1692 C1693 1.391 . S
C1693 H1681 0.950 . S
C1693 C1689 1.393 . S
C1693 C1692 1.391 . S
C1694 H1684 0.950 . S
C1694 C1695 1.386 . S
C1694 C1696 1.391 . S
C1695 C1694 1.386 . S
C1695 C1699 1.393 . S
C1696 H1685 0.950 . S
C1696 C1694 1.391 . S
C1696 C1697 1.400 . S
C1697 C1691 1.491 . S
C1697 C1696 1.400 . S
C1697 C1698 1.398 . S
C1698 H1686 0.950 . S
C1698 C1697 1.398 . S
C1698 C1699 1.391 . S
C1699 H1687 0.950 . S
C1699 C1695 1.393 . S
C1699 C1698 1.391 . S
H1700 C1708 0.950 . S
H1701 C1713 0.950 . S
H1702 C1710 0.950 . S
H1703 C1712 0.950 . S
H1704 C1714 0.950 . S
H1705 C1716 0.950 . S
H1706 C1718 0.950 . S
H1707 C1719 0.950 . S
C1708 H1700 0.950 . S
C1708 C1709 1.386 . S
C1708 C1710 1.391 . S
C1709 C1708 1.386 . S
C1709 C1713 1.393 . S
C1710 H1702 0.950 . S
C1710 C1708 1.391 . S
C1710 C1711 1.400 . S
C1711 C1710 1.400 . S
C1711 C1712 1.398 . S
C1711 C1717 1.491 . S
C1712 H1703 0.950 . S
C1712 C1711 1.398 . S
C1712 C1713 1.391 . S
C1713 H1701 0.950 . S
C1713 C1709 1.393 . S
C1713 C1712 1.391 . S
C1714 H1704 0.950 . S
C1714 C1715 1.386 . S
C1714 C1716 1.391 . S
C1715 C1714 1.386 . S
C1715 C1719 1.393 . S
C1716 H1705 0.950 . S
C1716 C1714 1.391 . S
C1716 C1717 1.400 . S
C1717 C1711 1.491 . S
C1717 C1716 1.400 . S
C1717 C1718 1.398 . S
C1718 H1706 0.950 . S
C1718 C1717 1.398 . S
C1718 C1719 1.391 . S
C1719 H1707 0.950 . S
C1719 C1715 1.393 . S
C1719 C1718 1.391 . S
H1720 C1728 0.950 . S
H1721 C1733 0.950 . S
H1722 C1730 0.950 . S
H1723 C1732 0.950 . S
H1724 C1734 0.950 . S
H1725 C1736 0.950 . S
H1726 C1738 0.950 . S
H1727 C1739 0.950 . S
C1728 H1720 0.950 . S
C1728 C1729 1.386 . S
C1728 C1730 1.391 . S
C1729 C1728 1.386 . S
C1729 C1733 1.393 . S
C1730 H1722 0.950 . S
C1730 C1728 1.391 . S
C1730 C1731 1.400 . S
C1731 C1730 1.400 . S
C1731 C1732 1.398 . S
C1731 C1737 1.491 . S
C1732 H1723 0.950 . S
C1732 C1731 1.398 . S
C1732 C1733 1.391 . S
C1733 H1721 0.950 . S
C1733 C1729 1.393 . S
C1733 C1732 1.391 . S
C1734 H1724 0.950 . S
C1734 C1735 1.386 . S
C1734 C1736 1.391 . S
C1735 C1734 1.386 . S
C1735 C1739 1.393 . S
C1736 H1725 0.950 . S
C1736 C1734 1.391 . S
C1736 C1737 1.400 . S
C1737 C1731 1.491 . S
C1737 C1736 1.400 . S
C1737 C1738 1.398 . S
C1738 H1726 0.950 . S
C1738 C1737 1.398 . S
C1738 C1739 1.391 . S
C1739 H1727 0.950 . S
C1739 C1735 1.393 . S
C1739 C1738 1.391 . S
H1740 C1748 0.950 . S
H1741 C1753 0.950 . S
H1742 C1750 0.950 . S
H1743 C1752 0.950 . S
H1744 C1754 0.950 . S
H1745 C1756 0.950 . S
H1746 C1758 0.950 . S
H1747 C1759 0.950 . S
C1748 H1740 0.950 . S
C1748 C1749 1.386 . S
C1748 C1750 1.391 . S
C1749 C1748 1.386 . S
C1749 C1753 1.393 . S
C1750 H1742 0.950 . S
C1750 C1748 1.391 . S
C1750 C1751 1.400 . S
C1751 C1750 1.400 . S
C1751 C1752 1.398 . S
C1751 C1757 1.491 . S
C1752 H1743 0.950 . S
C1752 C1751 1.398 . S
C1752 C1753 1.391 . S
C1753 H1741 0.950 . S
C1753 C1749 1.393 . S
C1753 C1752 1.391 . S
C1754 H1744 0.950 . S
C1754 C1755 1.386 . S
C1754 C1756 1.391 . S
C1755 C1754 1.386 . S
C1755 C1759 1.393 . S
C1756 H1745 0.950 . S
C1756 C1754 1.391 . S
C1756 C1757 1.400 . S
C1757 C1751 1.491 . S
C1757 C1756 1.400 . S
C1757 C1758 1.398 . S
C1758 H1746 0.950 . S
C1758 C1757 1.398 . S
C1758 C1759 1.391 . S
C1759 H1747 0.950 . S
C1759 C1755 1.393 . S
C1759 C1758 1.391 . S
H1760 C1768 0.950 . S
H1761 C1773 0.950 . S
H1762 C1770 0.950 . S
H1763 C1772 0.950 . S
H1764 C1774 0.950 . S
H1765 C1776 0.950 . S
H1766 C1778 0.950 . S
H1767 C1779 0.950 . S
C1768 H1760 0.950 . S
C1768 C1769 1.386 . S
C1768 C1770 1.391 . S
C1769 C1768 1.386 . S
C1769 C1773 1.393 . S
C1770 H1762 0.950 . S
C1770 C1768 1.391 . S
C1770 C1771 1.400 . S
C1771 C1770 1.400 . S
C1771 C1772 1.398 . S
C1771 C1777 1.491 . S
C1772 H1763 0.950 . S
C1772 C1771 1.398 . S
C1772 C1773 1.391 . S
C1773 H1761 0.950 . S
C1773 C1769 1.393 . S
C1773 C1772 1.391 . S
C1774 H1764 0.950 . S
C1774 C1775 1.386 . S
C1774 C1776 1.391 . S
C1775 C1774 1.386 . S
C1775 C1779 1.393 . S
C1776 H1765 0.950 . S
C1776 C1774 1.391 . S
C1776 C1777 1.400 . S
C1777 C1771 1.491 . S
C1777 C1776 1.400 . S
C1777 C1778 1.398 . S
C1778 H1766 0.950 . S
C1778 C1777 1.398 . S
C1778 C1779 1.391 . S
C1779 H1767 0.950 . S
C1779 C1775 1.393 . S
C1779 C1778 1.391 . S
H1780 C1788 0.950 . S
H1781 C1793 0.950 . S
H1782 C1790 0.950 . S
H1783 C1792 0.950 . S
H1784 C1794 0.950 . S
H1785 C1796 0.950 . S
H1786 C1798 0.950 . S
H1787 C1799 0.950 . S
C1788 H1780 0.950 . S
C1788 C1789 1.386 . S
C1788 C1790 1.391 . S
C1789 C1788 1.386 . S
C1789 C1793 1.393 . S
C1790 H1782 0.950 . S
C1790 C1788 1.391 . S
C1790 C1791 1.400 . S
C1791 C1790 1.400 . S
C1791 C1792 1.398 . S
C1791 C1797 1.491 . S
C1792 H1783 0.950 . S
C1792 C1791 1.398 . S
C1792 C1793 1.391 . S
C1793 H1781 0.950 . S
C1793 C1789 1.393 . S
C1793 C1792 1.391 . S
C1794 H1784 0.950 . S
C1794 C1795 1.386 . S
C1794 C1796 1.391 . S
C1795 C1794 1.386 . S
C1795 C1799 1.393 . S
C1796 H1785 0.950 . S
C1796 C1794 1.391 . S
C1796 C1797 1.400 . S
C1797 C1791 1.491 . S
C1797 C1796 1.400 . S
C1797 C1798 1.398 . S
C1798 H1786 0.950 . S
C1798 C1797 1.398 . S
C1798 C1799 1.391 . S
C1799 H1787 0.950 . S
C1799 C1795 1.393 . S
C1799 C1798 1.391 . S
H1800 C1808 0.950 . S
H1801 C1813 0.950 . S
H1802 C1810 0.950 . S
H1803 C1812 0.950 . S
H1804 C1814 0.950 . S
H1805 C1816 0.950 . S
H1806 C1818 0.950 . S
H1807 C1819 0.950 . S
C1808 H1800 0.950 . S
C1808 C1809 1.386 . S
C1808 C1810 1.391 . S
C1809 C1808 1.386 . S
C1809 C1813 1.393 . S
C1810 H1802 0.950 . S
C1810 C1808 1.391 . S
C1810 C1811 1.400 . S
C1811 C1810 1.400 . S
C1811 C1812 1.398 . S
C1811 C1817 1.491 . S
C1812 H1803 0.950 . S
C1812 C1811 1.398 . S
C1812 C1813 1.391 . S
C1813 H1801 0.950 . S
C1813 C1809 1.393 . S
C1813 C1812 1.391 . S
C1814 H1804 0.950 . S
C1814 C1815 1.386 . S
C1814 C1816 1.391 . S
C1815 C1814 1.386 . S
C1815 C1819 1.393 . S
C1816 H1805 0.950 . S
C1816 C1814 1.391 . S
C1816 C1817 1.400 . S
C1817 C1811 1.491 . S
C1817 C1816 1.400 . S
C1817 C1818 1.398 . S
C1818 H1806 0.950 . S
C1818 C1817 1.398 . S
C1818 C1819 1.391 . S
C1819 H1807 0.950 . S
C1819 C1815 1.393 . S
C1819 C1818 1.391 . S
H1820 C1828 0.950 . S
H1821 C1833 0.950 . S
H1822 C1830 0.950 . S
H1823 C1832 0.950 . S
H1824 C1834 0.950 . S
H1825 C1836 0.950 . S
H1826 C1838 0.950 . S
H1827 C1839 0.950 . S
C1828 H1820 0.950 . S
C1828 C1829 1.386 . S
C1828 C1830 1.391 . S
C1829 C1828 1.386 . S
C1829 C1833 1.393 . S
C1830 H1822 0.950 . S
C1830 C1828 1.391 . S
C1830 C1831 1.400 . S
C1831 C1830 1.400 . S
C1831 C1832 1.398 . S
C1831 C1837 1.491 . S
C1832 H1823 0.950 . S
C1832 C1831 1.398 . S
C1832 C1833 1.391 . S
C1833 H1821 0.950 . S
C1833 C1829 1.393 . S
C1833 C1832 1.391 . S
C1834 H1824 0.950 . S
C1834 C1835 1.386 . S
C1834 C1836 1.391 . S
C1835 C1834 1.386 . S
C1835 C1839 1.393 . S
C1836 H1825 0.950 . S
C1836 C1834 1.391 . S
C1836 C1837 1.400 . S
C1837 C1831 1.491 . S
C1837 C1836 1.400 . S
C1837 C1838 1.398 . S
C1838 H1826 0.950 . S
C1838 C1837 1.398 . S
C1838 C1839 1.391 . S
C1839 H1827 0.950 . S
C1839 C1835 1.393 . S
C1839 C1838 1.391 . S
H1840 C1848 0.950 . S
H1841 C1853 0.950 . S
H1842 C1850 0.950 . S
H1843 C1852 0.950 . S
H1844 C1854 0.950 . S
H1845 C1856 0.950 . S
H1846 C1858 0.950 . S
H1847 C1859 0.950 . S
C1848 H1840 0.950 . S
C1848 C1849 1.386 . S
C1848 C1850 1.391 . S
C1849 C1848 1.386 . S
C1849 C1853 1.393 . S
C1850 H1842 0.950 . S
C1850 C1848 1.391 . S
C1850 C1851 1.400 . S
C1851 C1850 1.400 . S
C1851 C1852 1.398 . S
C1851 C1857 1.491 . S
C1852 H1843 0.950 . S
C1852 C1851 1.398 . S
C1852 C1853 1.391 . S
C1853 H1841 0.950 . S
C1853 C1849 1.393 . S
C1853 C1852 1.391 . S
C1854 H1844 0.950 . S
C1854 C1855 1.386 . S
C1854 C1856 1.391 . S
C1855 C1854 1.386 . S
C1855 C1859 1.393 . S
C1856 H1845 0.950 . S
C1856 C1854 1.391 . S
C1856 C1857 1.400 . S
C1857 C1851 1.491 . S
C1857 C1856 1.400 . S
C1857 C1858 1.398 . S
C1858 H1846 0.950 . S
C1858 C1857 1.398 . S
C1858 C1859 1.391 . S
C1859 H1847 0.950 . S
C1859 C1855 1.393 . S
C1859 C1858 1.391 . S
H1860 C1868 0.950 . S
H1861 C1873 0.950 . S
H1862 C1870 0.950 . S
H1863 C1872 0.950 . S
H1864 C1874 0.950 . S
H1865 C1876 0.950 . S
H1866 C1878 0.950 . S
H1867 C1879 0.950 . S
C1868 H1860 0.950 . S
C1868 C1869 1.386 . S
C1868 C1870 1.391 . S
C1869 C1868 1.386 . S
C1869 C1873 1.393 . S
C1870 H1862 0.950 . S
C1870 C1868 1.391 . S
C1870 C1871 1.400 . S
C1871 C1870 1.400 . S
C1871 C1872 1.398 . S
C1871 C1877 1.491 . S
C1872 H1863 0.950 . S
C1872 C1871 1.398 . S
C1872 C1873 1.391 . S
C1873 H1861 0.950 . S
C1873 C1869 1.393 . S
C1873 C1872 1.391 . S
C1874 H1864 0.950 . S
C1874 C1875 1.386 . S
C1874 C1876 1.391 . S
C1875 C1874 1.386 . S
C1875 C1879 1.393 . S
C1876 H1865 0.950 . S
C1876 C1874 1.391 . S
C1876 C1877 1.400 . S
C1877 C1871 1.491 . S
C1877 C1876 1.400 . S
C1877 C1878 1.398 . S
C1878 H1866 0.950 . S
C1878 C1877 1.398 . S
C1878 C1879 1.391 . S
C1879 H1867 0.950 . S
C1879 C1875 1.393 . S
C1879 C1878 1.391 . S
H1880 C1888 0.950 . S
H1881 C1893 0.950 . S
H1882 C1890 0.950 . S
H1883 C1892 0.950 . S
H1884 C1894 0.950 . S
H1885 C1896 0.950 . S
H1886 C1898 0.950 . S
H1887 C1899 0.950 . S
C1888 H1880 0.950 . S
C1888 C1889 1.386 . S
C1888 C1890 1.391 . S
C1889 C1888 1.386 . S
C1889 C1893 1.393 . S
C1890 H1882 0.950 . S
C1890 C1888 1.391 . S
C1890 C1891 1.400 . S
C1891 C1890 1.400 . S
C1891 C1892 1.398 . S
C1891 C1897 1.491 . S
C1892 H1883 0.950 . S
C1892 C1891 1.398 . S
C1892 C1893 1.391 . S
C1893 H1881 0.950 . S
C1893 C1889 1.393 . S
C1893 C1892 1.391 . S
C1894 H1884 0.950 . S
C1894 C1895 1.386 . S
C1894 C1896 1.391 . S
C1895 C1894 1.386 . S
C1895 C1899 1.393 . S
C1896 H1885 0.950 . S
C1896 C1894 1.391 . S
C1896 C1897 1.400 . S
C1897 C1891 1.491 . S
C1897 C1896 1.400 . S
C1897 C1898 1.398 . S
C1898 H1886 0.950 . S
C1898 C1897 1.398 . S
C1898 C1899 1.391 . S
C1899 H1887 0.950 . S
C1899 C1895 1.393 . S
C1899 C1898 1.391 . S
H1900 C1908 0.950 . S
H1901 C1913 0.950 . S
H1902 C1910 0.950 . S
H1903 C1912 0.950 . S
H1904 C1914 0.950 . S
H1905 C1916 0.950 . S
H1906 C1918 0.950 . S
H1907 C1919 0.950 . S
C1908 H1900 0.950 . S
C1908 C1909 1.386 . S
C1908 C1910 1.391 . S
C1909 C1908 1.386 . S
C1909 C1913 1.393 . S
C1910 H1902 0.950 . S
C1910 C1908 1.391 . S
C1910 C1911 1.400 . S
C1911 C1910 1.400 . S
C1911 C1912 1.398 . S
C1911 C1917 1.491 . S
C1912 H1903 0.950 . S
C1912 C1911 1.398 . S
C1912 C1913 1.391 . S
C1913 H1901 0.950 . S
C1913 C1909 1.393 . S
C1913 C1912 1.391 . S
C1914 H1904 0.950 . S
C1914 C1915 1.386 . S
C1914 C1916 1.391 . S
C1915 C1914 1.386 . S
C1915 C1919 1.393 . S
C1916 H1905 0.950 . S
C1916 C1914 1.391 . S
C1916 C1917 1.400 . S
C1917 C1911 1.491 . S
C1917 C1916 1.400 . S
C1917 C1918 1.398 . S
C1918 H1906 0.950 . S
C1918 C1917 1.398 . S
C1918 C1919 1.391 . S
C1919 H1907 0.950 . S
C1919 C1915 1.393 . S
C1919 C1918 1.391 . S
H1920 C1928 0.950 . S
H1921 C1933 0.950 . S
H1922 C1930 0.950 . S
H1923 C1932 0.950 . S
H1924 C1934 0.950 . S
H1925 C1936 0.950 . S
H1926 C1938 0.950 . S
H1927 C1939 0.950 . S
C1928 H1920 0.950 . S
C1928 C1929 1.386 . S
C1928 C1930 1.391 . S
C1929 C1928 1.386 . S
C1929 C1933 1.393 . S
C1930 H1922 0.950 . S
C1930 C1928 1.391 . S
C1930 C1931 1.400 . S
C1931 C1930 1.400 . S
C1931 C1932 1.398 . S
C1931 C1937 1.491 . S
C1932 H1923 0.950 . S
C1932 C1931 1.398 . S
C1932 C1933 1.391 . S
C1933 H1921 0.950 . S
C1933 C1929 1.393 . S
C1933 C1932 1.391 . S
C1934 H1924 0.950 . S
C1934 C1935 1.386 . S
C1934 C1936 1.391 . S
C1935 C1934 1.386 . S
C1935 C1939 1.393 . S
C1936 H1925 0.950 . S
C1936 C1934 1.391 . S
C1936 C1937 1.400 . S
C1937 C1931 1.491 . S
C1937 C1936 1.400 . S
C1937 C1938 1.398 . S
C1938 H1926 0.950 . S
C1938 C1937 1.398 . S
C1938 C1939 1.391 . S
C1939 H1927 0.950 . S
C1939 C1935 1.393 . S
C1939 C1938 1.391 . S
H1940 C1948 0.950 . S
H1941 C1953 0.950 . S
H1942 C1950 0.950 . S
H1943 C1952 0.950 . S
H1944 C1954 0.950 . S
H1945 C1956 0.950 . S
H1946 C1958 0.950 . S
H1947 C1959 0.950 . S
C1948 H1940 0.950 . S
C1948 C1949 1.386 . S
C1948 C1950 1.391 . S
C1949 C1948 1.386 . S
C1949 C1953 1.393 . S
C1950 H1942 0.950 . S
C1950 C1948 1.391 . S
C1950 C1951 1.400 . S
C1951 C1950 1.400 . S
C1951 C1952 1.398 . S
C1951 C1957 1.491 . S
C1952 H1943 0.950 . S
C1952 C1951 1.398 . S
C1952 C1953 1.391 . S
C1953 H1941 0.950 . S
C1953 C1949 1.393 . S
C1953 C1952 1.391 . S
C1954 H1944 0.950 . S
C1954 C1955 1.386 . S
C1954 C1956 1.391 . S
C1955 C1954 1.386 . S
C1955 C1959 1.393 . S
C1956 H1945 0.950 . S
C1956 C1954 1.391 . S
C1956 C1957 1.400 . S
C1957 C1951 1.491 . S
C1957 C1956 1.400 . S
C1957 C1958 1.398 . S
C1958 H1946 0.950 . S
C1958 C1957 1.398 . S
C1958 C1959 1.391 . S
C1959 H1947 0.950 . S
C1959 C1955 1.393 . S
C1959 C1958 1.391 . S
H1960 C1968 0.950 . S
H1961 C1973 0.950 . S
H1962 C1970 0.950 . S
H1963 C1972 0.950 . S
H1964 C1974 0.950 . S
H1965 C1976 0.950 . S
H1966 C1978 0.950 . S
H1967 C1979 0.950 . S
C1968 H1960 0.950 . S
C1968 C1969 1.386 . S
C1968 C1970 1.391 . S
C1969 C1968 1.386 . S
C1969 C1973 1.393 . S
C1970 H1962 0.950 . S
C1970 C1968 1.391 . S
C1970 C1971 1.400 . S
C1971 C1970 1.400 . S
C1971 C1972 1.398 . S
C1971 C1977 1.491 . S
C1972 H1963 0.950 . S
C1972 C1971 1.398 . S
C1972 C1973 1.391 . S
C1973 H1961 0.950 . S
C1973 C1969 1.393 . S
C1973 C1972 1.391 . S
C1974 H1964 0.950 . S
C1974 C1975 1.386 . S
C1974 C1976 1.391 . S
C1975 C1974 1.386 . S
C1975 C1979 1.393 . S
C1976 H1965 0.950 . S
C1976 C1974 1.391 . S
C1976 C1977 1.400 . S
C1977 C1971 1.491 . S
C1977 C1976 1.400 . S
C1977 C1978 1.398 . S
C1978 H1966 0.950 . S
C1978 C1977 1.398 . S
C1978 C1979 1.391 . S
C1979 H1967 0.950 . S
C1979 C1975 1.393 . S
C1979 C1978 1.391 . S
H1980 C1988 0.950 . S
H1981 C1993 0.950 . S
H1982 C1990 0.950 . S
H1983 C1992 0.950 . S
H1984 C1994 0.950 . S
H1985 C1996 0.950 . S
H1986 C1998 0.950 . S
H1987 C1999 0.950 . S
C1988 H1980 0.950 . S
C1988 C1989 1.386 . S
C1988 C1990 1.391 . S
C1989 C1988 1.386 . S
C1989 C1993 1.393 . S
C1990 H1982 0.950 . S
C1990 C1988 1.391 . S
C1990 C1991 1.400 . S
C1991 C1990 1.400 . S
C1991 C1992 1.398 . S
C1991 C1997 1.491 . S
C1992 H1983 0.950 . S
C1992 C1991 1.398 . S
C1992 C1993 1.391 . S
C1993 H1981 0.950 . S
C1993 C1989 1.393 . S
C1993 C1992 1.391 . S
C1994 H1984 0.950 . S
C1994 C1995 1.386 . S
C1994 C1996 1.391 . S
C1995 C1994 1.386 . S
C1995 C1999 1.393 . S
C1996 H1985 0.950 . S
C1996 C1994 1.391 . S
C1996 C1997 1.400 . S
C1997 C1991 1.491 . S
C1997 C1996 1.400 . S
C1997 C1998 1.398 . S
C1998 H1986 0.950 . S
C1998 C1997 1.398 . S
C1998 C1999 1.391 . S
C1999 H1987 0.950 . S
C1999 C1995 1.393 . S
C1999 C1998 1.391 . S
H2000 C2008 0.950 . S
H2001 C2013 0.950 . S
H2002 C2010 0.950 . S
H2003 C2012 0.950 . S
H2004 C2014 0.950 . S
H2005 C2016 0.950 . S
H2006 C2018 0.950 . S
H2007 C2019 0.950 . S
C2008 H2000 0.950 . S
C2008 C2009 1.386 . S
C2008 C2010 1.391 . S
C2009 C2008 1.386 . S
C2009 C2013 1.393 . S
C2010 H2002 0.950 . S
C2010 C2008 1.391 . S
C2010 C2011 1.400 . S
C2011 C2010 1.400 . S
C2011 C2012 1.398 . S
C2011 C2017 1.491 . S
C2012 H2003 0.950 . S
C2012 C2011 1.398 . S
C2012 C2013 1.391 . S
C2013 H2001 0.950 . S
C2013 C2009 1.393 . S
C2013 C2012 1.391 . S
C2014 H2004 0.950 . S
C2014 C2015 1.386 . S
C2014 C2016 1.391 . S
C2015 C2014 1.386 . S
C2015 C2019 1.393 . S
C2016 H2005 0.950 . S
C2016 C2014 1.391 . S
C2016 C2017 1.400 . S
C2017 C2011 1.491 . S
C2017 C2016 1.400 . S
C2017 C2018 1.398 . S
C2018 H2006 0.950 . S
C2018 C2017 1.398 . S
C2018 C2019 1.391 . S
C2019 H2007 0.950 . S
C2019 C2015 1.393 . S
C2019 C2018 1.391 . S
H2020 C2028 0.950 . S
H2021 C2033 0.950 . S
H2022 C2030 0.950 . S
H2023 C2032 0.950 . S
H2024 C2034 0.950 . S
H2025 C2036 0.950 . S
H2026 C2038 0.950 . S
H2027 C2039 0.950 . S
C2028 H2020 0.950 . S
C2028 C2029 1.386 . S
C2028 C2030 1.391 . S
C2029 C2028 1.386 . S
C2029 C2033 1.393 . S
C2030 H2022 0.950 . S
C2030 C2028 1.391 . S
C2030 C2031 1.400 . S
C2031 C2030 1.400 . S
C2031 C2032 1.398 . S
C2031 C2037 1.491 . S
C2032 H2023 0.950 . S
C2032 C2031 1.398 . S
C2032 C2033 1.391 . S
C2033 H2021 0.950 . S
C2033 C2029 1.393 . S
C2033 C2032 1.391 . S
C2034 H2024 0.950 . S
C2034 C2035 1.386 . S
C2034 C2036 1.391 . S
C2035 C2034 1.386 . S
C2035 C2039 1.393 . S
C2036 H2025 0.950 . S
C2036 C2034 1.391 . S
C2036 C2037 1.400 . S
C2037 C2031 1.491 . S
C2037 C2036 1.400 . S
C2037 C2038 1.398 . S
C2038 H2026 0.950 . S
C2038 C2037 1.398 . S
C2038 C2039 1.391 . S
C2039 H2027 0.950 . S
C2039 C2035 1.393 . S
C2039 C2038 1.391 . S
C615 C330 1.442 . S
C609 C285 1.485 . S
C629 C261 1.381 . S
C635 C324 1.325 . S
C655 C292 1.431 . S
C649 C249 1.526 . S
C669 C273 1.669 . S
C675 C306 1.575 . S
C695 C344 1.974 . S
C689 C201 2.067 . S
C715 C431 1.456 . S
C709 C213 1.521 . S
C729 C225 2.118 . S
C735 C358 1.998 . S
C755 C426 1.072 . S
C749 C237 1.093 . S
C769 C153 2.021 . S
C775 C382 1.931 . S
C795 C437 1.501 . S
C789 C165 1.543 . S
C809 C177 1.981 . S
C815 C376 1.879 . S
C829 C189 1.288 . S
C835 C422 1.264 . S
C855 C478 1.241 . S
C849 C141 1.257 . S
C869 C117 1.490 . S
C875 C489 1.463 . S
C889 C105 1.193 . S
C895 C474 1.179 . S
C915 C483 1.642 . S
C909 C129 1.676 . S
C929 C57 1.650 1_455 S
C935 C528 1.558 . S
C949 C69 0.783 . S
C955 C587 0.788 . S
C969 C81 1.787 . S
C975 C544 1.677 . S
C989 C93 1.093 . S
C995 C582 1.064 . S
C1015 C546 1.582 . S
C1009 C9 1.699 . S
C1035 C593 0.735 . S
C1029 C21 0.745 . S
C1049 C33 1.530 . S
C1055 C522 1.453 . S
C1075 C578 1.144 . S
C1069 C45 1.180 . S
C1095 C314 1.441 . S
C1089 C4 1.408 . S
C1109 C18 1.377 . S
C1115 C318 1.383 . S
C1129 C30 1.743 . S
C1135 C338 1.692 . S
C1149 C42 1.235 . S
C1155 C333 1.238 . S
C1169 C52 1.437 1_655 S
C1175 C336 1.449 . S
C1195 C322 1.403 . S
C1189 C66 1.390 . S
C1209 C78 1.702 . S
C1215 C320 1.652 . S
C1235 C327 0.802 . S
C1229 C88 0.743 . S
C1255 C390 1.414 . S
C1249 C40 1.407 . S
C1269 C6 1.971 . S
C1275 C440 1.872 . S
C1295 C388 1.177 . S
C1289 C16 1.150 . S
C1315 C424 1.581 . S
C1309 C28 1.531 . S
C1329 C64 0.994 . S
C1335 C366 1.014 . S
C1355 C442 1.721 . S
C1349 C76 1.741 . S
C1375 C372 1.589 . S
C1369 C90 1.623 . S
C1395 C418 1.923 . S
C1389 C54 2.042 1_455 S
C1415 C410 1.519 . S
C1409 C102 1.540 . S
C1429 C114 1.357 . S
C1435 C434 1.332 . S
C1455 C370 1.029 . S
C1449 C100 0.986 . S
C1475 C396 1.233 . S
C1469 C124 1.186 . S
C1489 C138 1.289 . S
C1495 C374 1.304 . S
C1509 C136 1.235 . S
C1515 C428 1.279 . S
C1535 C385 1.253 . S
C1529 C112 1.145 . S
C1555 C379 1.615 . S
C1549 C126 1.600 . S
C1575 C462 1.754 . S
C1569 C148 1.667 . S
C1595 C494 1.523 . S
C1589 C162 1.513 . S
C1609 C174 1.996 . S
C1615 C448 1.951 . S
C1635 C492 1.394 . S
C1629 C186 1.432 . S
C1655 C480 1.707 . S
C1649 C196 1.660 . S
C1669 C210 1.546 . S
C1675 C476 1.551 . S
C1689 C222 2.027 . S
C1695 C486 2.022 . S
C1715 C470 0.944 . S
C1709 C232 0.869 . S
C1735 C535 1.310 . S
C1729 C184 1.242 . S
C1749 C150 1.692 . S
C1755 C596 1.648 . S
C1775 C530 1.109 . S
C1769 C160 1.015 . S
C1795 C580 1.460 . S
C1789 C172 1.364 . S
C1815 C526 0.965 . S
C1809 C208 0.884 . S
C1829 C220 1.441 . S
C1835 C598 1.504 . S
C1855 C541 1.484 . S
C1849 C234 1.477 . S
C1875 C574 1.656 . S
C1869 C198 1.729 . S
C1895 C566 1.657 . S
C1889 C246 1.698 . S
C1909 C258 1.793 . S
C1915 C590 1.728 . S
C1935 C532 1.212 . S
C1929 C244 1.201 . S
C1949 C268 1.568 . S
C1955 C552 1.587 . S
C1975 C514 1.593 . S
C1969 C282 1.641 . S
C1995 C584 1.407 . S
C1989 C280 1.328 . S
C2015 C500 1.248 . S
C2009 C256 1.257 . S
C2029 C270 1.573 . S
C2035 C538 1.522 . S
