# Generated by pormake.
# Topology anh, (6,3)-cn, num edge types: 1
# Building blocks:
#     Node 0, Type 0, BuildingBlock: PAMTOO_clean_sbu_0, # of connection points: 6
#     Node 1, Type 0, BuildingBlock: PAMTOO_clean_sbu_0, # of connection points: 6
#     Node 2, Type 0, BuildingBlock: PAMTOO_clean_sbu_0, # of connection points: 6
#     Node 3, Type 1, BuildingBlock: BETDIP_clean_linker_0, # of connection points: 3
#     Node 4, Type 1, BuildingBlock: BETDIP_clean_linker_0, # of connection points: 3
#     Node 5, Type 1, BuildingBlock: BETDIP_clean_linker_0, # of connection points: 3
#     Node 6, Type 1, BuildingBlock: BETDIP_clean_linker_0, # of connection points: 3
#     Node 7, Type 1, BuildingBlock: BETDIP_clean_linker_0, # of connection points: 3
#     Node 8, Type 1, BuildingBlock: BETDIP_clean_linker_0, # of connection points: 3
#     Edge 9, Type (0, 1), BuildingBlock: TEMPAE_clean_linker_10, # of connection points: 2
#     Edge 10, Type (0, 1), BuildingBlock: TEMPAE_clean_linker_10, # of connection points: 2
#     Edge 11, Type (0, 1), BuildingBlock: TEMPAE_clean_linker_10, # of connection points: 2
#     Edge 12, Type (0, 1), BuildingBlock: TEMPAE_clean_linker_10, # of connection points: 2
#     Edge 13, Type (0, 1), BuildingBlock: TEMPAE_clean_linker_10, # of connection points: 2
#     Edge 14, Type (0, 1), BuildingBlock: TEMPAE_clean_linker_10, # of connection points: 2
#     Edge 15, Type (0, 1), BuildingBlock: TEMPAE_clean_linker_10, # of connection points: 2
#     Edge 16, Type (0, 1), BuildingBlock: TEMPAE_clean_linker_10, # of connection points: 2
#     Edge 17, Type (0, 1), BuildingBlock: TEMPAE_clean_linker_10, # of connection points: 2
#     Edge 18, Type (0, 1), BuildingBlock: TEMPAE_clean_linker_10, # of connection points: 2
#     Edge 19, Type (0, 1), BuildingBlock: TEMPAE_clean_linker_10, # of connection points: 2
#     Edge 20, Type (0, 1), BuildingBlock: TEMPAE_clean_linker_10, # of connection points: 2
#     Edge 21, Type (0, 1), BuildingBlock: TEMPAE_clean_linker_10, # of connection points: 2
#     Edge 22, Type (0, 1), BuildingBlock: TEMPAE_clean_linker_10, # of connection points: 2
#     Edge 23, Type (0, 1), BuildingBlock: TEMPAE_clean_linker_10, # of connection points: 2
#     Edge 24, Type (0, 1), BuildingBlock: TEMPAE_clean_linker_10, # of connection points: 2
#     Edge 25, Type (0, 1), BuildingBlock: TEMPAE_clean_linker_10, # of connection points: 2
#     Edge 26, Type (0, 1), BuildingBlock: TEMPAE_clean_linker_10, # of connection points: 2
# Relax obj value: 0.157
# Max RMSD: 0.208
# Mean RMSD: 0.127
data_MOF--net-anh--node1-PAMTOO_clean_sbu_0--node2-BETDIP_clean_linker_0--edge1-TEMPAE_clean_linker_10
_symmetry_space_group_name_H-M    P1
_symmetry_Int_Tables_number       1
_symmetry_cell_setting            triclinic
loop_
_symmetry_equiv_pos_as_xyz
'x, y, z'
_cell_length_a     32.203586
_cell_length_b     30.281223
_cell_length_c     50.718641
_cell_angle_alpha  94.925139
_cell_angle_beta   95.6798
_cell_angle_gamma 104.12116
loop_
_atom_site_label
_atom_site_type_symbol
_atom_site_fract_x
_atom_site_fract_y
_atom_site_fract_z
_atom_type_partial_charge
Dy0 Dy 0.11601 0.55967 0.13415 0.0
Dy1 Dy 0.0905 0.45324 0.14349 0.0
C2 C 0.09215 0.48184 0.08557 0.0
O3 O 1.04284 0.5471 0.13798 0.0
O4 O 1.02368 0.46856 0.13507 0.0
O5 O 0.14526 0.61294 0.1109 0.0
O6 O 0.11854 0.63034 0.14677 0.0
O7 O 0.08062 0.49309 0.18001 0.0
O8 O 0.13479 0.55556 0.17742 0.0
O9 O 0.16561 0.47096 0.14979 0.0
O10 O 0.18006 0.53893 0.13152 0.0
O11 O 0.08957 0.39898 0.16875 0.0
O12 O 0.05961 0.38333 0.12768 0.0
C13 C 1.01218 0.50799 0.13633 0.0
O14 O 0.08509 0.52086 0.09464 0.0
O15 O 0.10594 0.45614 0.10198 0.0
C16 C 0.18212 0.68247 0.13712 0.0
C17 C 0.25979 0.75127 0.15281 0.0
C18 C 0.24294 0.73997 0.12574 0.0
C19 C 0.20441 0.70608 0.11801 0.0
C20 C 0.19895 0.6937 0.16421 0.0
C21 C 0.23726 0.72786 0.17195 0.0
C22 C 0.1421 0.64578 0.12839 0.0
C23 C 0.10854 0.53015 0.19148 0.0
C24 C 0.19392 0.50468 0.14088 0.0
C25 C 1.02389 0.3417 0.15908 0.0
C26 C 0.94292 0.29049 0.16981 0.0
C27 C 0.95176 0.33843 0.1705 0.0
C28 C 0.99193 0.36379 0.16529 0.0
C29 C 1.01558 0.29403 0.15881 0.0
C30 C 0.97546 0.26859 0.16429 0.0
C31 C 0.06423 0.368 0.15077 0.0
H32 H 0.25936 0.75767 0.11055 0.0
H33 H 0.1921 0.69809 0.09703 0.0
H34 H 0.18277 0.6759 0.17944 0.0
H35 H 0.24968 0.73541 0.19293 0.0
H36 H 0.92758 0.35633 0.17505 0.0
H37 H 0.9978 0.40061 0.16564 0.0
H38 H 1.03977 0.2764 0.15384 0.0
H39 H 0.96947 0.23168 0.16347 0.0
Dy40 Dy 0.52981 0.07178 0.50929 0.0
Dy41 Dy 0.63633 0.09997 0.52498 0.0
C42 C 0.57279 0.08518 0.57095 0.0
O43 O 0.54537 0.14822 0.51718 0.0
O44 O 0.61952 0.16647 0.51791 0.0
O45 O 0.46422 0.06576 0.51761 0.0
O46 O 0.47683 0.04099 0.4786 0.0
O47 O 0.62166 0.07868 0.48102 0.0
O48 O 0.55868 0.09991 0.47436 0.0
O49 O 0.61533 0.02649 0.53291 0.0
O50 O 0.55127 0.00638 0.50527 0.0
O51 O 0.69843 0.08966 0.5175 0.0
O52 O 0.69454 0.14281 0.54784 0.0
C53 C 0.58273 0.17839 0.51789 0.0
O54 O 0.53829 0.07033 0.55333 0.0
O55 O 0.61194 0.09956 0.56451 0.0
C56 C 0.41456 0.99938 0.4943 0.0
C57 C 0.35461 0.91352 0.49097 0.0
C58 C 0.38246 0.93125 0.51462 0.0
C59 C 0.41254 0.97378 0.51621 0.0
C60 C 0.38598 0.98214 0.47098 0.0
C61 C 0.35639 0.93954 0.46928 0.0
C62 C 0.44771 0.04259 0.4945 0.0
C63 C 0.59162 0.08878 0.46505 0.0
C64 C 0.58267 0.99503 0.51956 0.0
C65 C 0.75408 0.15901 0.52364 0.0
C66 C 0.81706 0.22768 0.50521 0.0
C67 C 0.78726 0.19448 0.48703 0.0
C68 C 0.75586 0.16059 0.49614 0.0
C69 C 0.78443 0.19152 0.54179 0.0
C70 C 0.81551 0.22567 0.53268 0.0
C71 C 0.71974 0.12545 0.53384 0.0
H72 H 0.38178 0.91166 0.53154 0.0
H73 H 0.43462 0.98619 0.53435 0.0
H74 H 0.38713 1.00129 0.45386 0.0
H75 H 0.33492 0.9268 0.45093 0.0
H76 H 0.78745 0.19553 0.46574 0.0
H77 H 0.7326 0.13622 0.48166 0.0
H78 H 0.78362 0.19096 0.56307 0.0
H79 H 0.8383 0.25061 0.54713 0.0
Dy80 Dy 0.60247 0.63415 0.84922 0.0
Dy81 Dy 0.49723 0.5999 0.83865 0.0
C82 C 0.55249 0.60916 0.79108 0.0
O83 O 0.58132 0.69728 0.84059 0.0
O84 O 0.51001 0.67644 0.84735 0.0
O85 O 0.66071 0.67104 0.83515 0.0
O86 O 0.66419 0.64032 0.87209 0.0
O87 O 0.51802 0.58907 0.88035 0.0
O88 O 0.57906 0.64762 0.88833 0.0
O89 O 0.52002 0.53581 0.83201 0.0
O90 O 0.58902 0.55879 0.85378 0.0
O91 O 0.43394 0.60231 0.84935 0.0
O92 O 0.44075 0.55269 0.81744 0.0
C93 C 0.54476 0.7078 0.84391 0.0
O94 O 0.58298 0.60074 0.80747 0.0
O95 O 0.51954 0.62088 0.80024 0.0
C96 C 0.71799 0.63782 0.84437 0.0
C97 C 0.78016 0.59482 0.82688 0.0
C98 C 0.79105 0.64239 0.83467 0.0
C99 C 0.76013 0.66371 0.84339 0.0
C100 C 0.70654 0.59075 0.83573 0.0
C101 C 0.73737 0.56939 0.82719 0.0
C102 C 0.68567 0.65985 0.85385 0.0
C103 C 0.5482 0.61779 0.8971 0.0
C104 C 0.55535 0.52621 0.84251 0.0
C105 C 0.37199 0.56902 0.81682 0.0
C106 C 0.28495 0.53908 0.79443 0.0
C107 C 0.29595 0.55994 0.82088 0.0
C108 C 0.33914 0.57461 0.832 0.0
C109 C 0.36127 0.55337 0.78948 0.0
C110 C 0.31803 0.5385 0.77838 0.0
C111 C 0.41427 0.56892 0.83093 0.0
H112 H 0.82359 0.66299 0.8344 0.0
H113 H 0.76922 0.70026 0.84963 0.0
H114 H 0.67391 0.57035 0.83607 0.0
H115 H 0.72798 0.53262 0.82181 0.0
H116 H 0.27122 0.56061 0.83381 0.0
H117 H 0.34655 0.58634 0.85313 0.0
H118 H 0.38592 0.5489 0.77719 0.0
H119 H 0.31042 0.52303 0.75785 0.0
H120 H 0.56128 0.01077 0.18723 0.0
H121 H 0.63453 0.0834 0.26026 0.0
H122 H 0.51897 0.97785 0.26276 0.0
H123 H 0.64101 0.14277 0.2326 0.0
C124 C 0.65252 0.1247 0.21654 0.0
C125 C 0.56562 0.01648 0.20882 0.0
C126 C 0.53631 0.98933 0.22348 0.0
C127 C 0.60045 0.05131 0.22198 0.0
C128 C 0.60655 0.05808 0.25 0.0
C129 C 0.57743 0.03182 0.26497 0.0
C130 C 0.5424 0.99748 0.25149 0.0
N131 N 0.62965 0.07877 0.20693 0.0
H132 H 0.57076 0.53898 0.51657 0.0
H133 H 0.56732 0.63031 0.58585 0.0
H134 H 0.57762 0.49424 0.59512 0.0
H135 H 0.51436 0.64429 0.5514 0.0
C136 C 0.54045 0.65605 0.53956 0.0
C137 C 0.57172 0.54558 0.53797 0.0
C138 C 0.57298 0.50995 0.55432 0.0
C139 C 0.5694 0.58928 0.54932 0.0
C140 C 0.56942 0.59717 0.57704 0.0
C141 C 0.57147 0.56278 0.5935 0.0
C142 C 0.57431 0.52002 0.58208 0.0
N143 N 0.56635 0.62525 0.53318 0.0
H144 H 0.96802 0.34686 0.81466 0.0
H145 H 1.03518 0.31155 0.88433 0.0
H146 H 0.97156 0.42079 0.89128 0.0
H147 H 1.01222 0.26603 0.79013 0.0
C148 C 1.02501 0.29421 0.80582 0.0
C149 C 0.97884 0.35284 0.83588 0.0
C150 C 0.96678 0.38668 0.85167 0.0
C151 C 1.00308 0.32523 0.84767 0.0
C152 C 1.01622 0.33259 0.87527 0.0
C153 C 1.00517 0.36741 0.89105 0.0
C154 C 0.98014 0.39386 0.87914 0.0
N155 N 1.01338 0.28926 0.83192 0.0
H156 H 0.10894 0.58775 0.46738 0.0
H157 H 0.06316 0.51206 0.38981 0.0
H158 H 0.15358 0.64393 0.39709 0.0
H159 H 1.00017 0.4951 0.41077 0.0
C160 C 1.01356 0.48558 0.42932 0.0
C161 C 0.10887 0.58485 0.44592 0.0
C162 C 0.13415 0.62051 0.43405 0.0
C163 C 0.08192 0.54637 0.43002 0.0
C164 C 0.08262 0.54237 0.40221 0.0
C165 C 0.10839 0.57751 0.39025 0.0
C166 C 0.13347 0.61674 0.40624 0.0
N167 N 0.05422 0.51227 0.44231 0.0
H168 H 0.55353 0.16187 0.84508 0.0
H169 H 0.55088 0.06792 0.77606 0.0
H170 H 0.55727 0.20893 0.76727 0.0
H171 H 0.49192 0.02725 0.79971 0.0
C172 C 0.51586 0.02819 0.8166 0.0
C173 C 0.55368 0.1553 0.82377 0.0
C174 C 0.55799 0.19192 0.80769 0.0
C175 C 0.54924 0.10993 0.8121 0.0
C176 C 0.55123 0.10204 0.78461 0.0
C177 C 0.55441 0.13741 0.76822 0.0
C178 C 0.55686 0.18184 0.77994 0.0
N179 N 0.54308 0.07201 0.82764 0.0
H180 H 0.56125 0.49369 0.15558 0.0
H181 H 0.63053 0.54476 0.09076 0.0
H182 H 0.49637 0.53909 0.08808 0.0
H183 H 0.66655 0.49104 0.09853 0.0
C184 C 0.67772 0.50109 0.1196 0.0
C185 C 0.56195 0.50764 0.13665 0.0
C186 C 0.52208 0.51563 0.12346 0.0
C187 C 0.60241 0.51663 0.12444 0.0
C188 C 0.60123 0.53514 0.09998 0.0
C189 C 0.56346 0.54277 0.08705 0.0
C190 C 0.52506 0.53324 0.09878 0.0
N191 N 0.64397 0.50879 0.13593 0.0
C192 C 0.27177 0.53706 0.12845 0.0
C193 C 0.24275 0.50451 0.1409 0.0
C194 C 0.31651 0.53739 0.1277 0.0
C195 C 0.33524 0.50475 0.13995 0.0
C196 C 0.3063 0.47215 0.15287 0.0
C197 C 0.26144 0.47221 0.15304 0.0
C198 C 0.34388 0.57293 0.11326 0.0
C199 C 0.32287 0.43667 0.16673 0.0
C200 C 0.43985 0.47821 0.11428 0.0
C201 C 0.47543 0.50559 0.13214 0.0
C202 C 0.39553 0.47698 0.1169 0.0
C203 C 0.38381 0.50367 0.13818 0.0
C204 C 0.41933 0.5303 0.15692 0.0
C205 C 0.46374 0.53132 0.15361 0.0
C206 C 0.36095 0.44819 0.09583 0.0
C207 C 0.41054 0.55937 0.18026 0.0
H208 H 0.25934 0.56258 0.11881 0.0
H209 H 0.24088 0.44661 0.16293 0.0
H210 H 0.37195 0.59382 0.12712 0.0
H211 H 0.35676 0.55579 0.09687 0.0
H212 H 0.32558 0.59617 0.10474 0.0
H213 H 0.29797 0.41515 0.17714 0.0
H214 H 0.33369 0.41404 0.15199 0.0
H215 H 0.3513 0.45369 0.18149 0.0
H216 H 0.44692 0.45883 0.09707 0.0
H217 H 0.48949 0.55413 0.16734 0.0
H218 H 0.34439 0.47071 0.08506 0.0
H219 H 0.33625 0.42448 0.10522 0.0
H220 H 0.37416 0.42776 0.0811 0.0
H221 H 0.39864 0.58814 0.17302 0.0
H222 H 0.43986 0.57377 0.19483 0.0
H223 H 0.38492 0.53892 0.19061 0.0
C224 C 0.85382 0.31084 0.50618 0.0
C225 C 0.84866 0.26527 0.49554 0.0
C226 C 0.88207 0.34704 0.49643 0.0
C227 C 0.90609 0.33737 0.47573 0.0
C228 C 0.90175 0.29131 0.46533 0.0
C229 C 0.87284 0.25581 0.47524 0.0
C230 C 0.88531 0.3957 0.50776 0.0
C231 C 0.9272 0.27959 0.44348 0.0
C232 C 0.9436 0.42948 0.43086 0.0
C233 C 0.98671 0.44799 0.4417 0.0
C234 C 0.91697 0.39372 0.44188 0.0
C235 C 0.93412 0.37554 0.46405 0.0
C236 C 0.97781 0.39391 0.475 0.0
C237 C 1.0036 0.4302 0.46377 0.0
C238 C 0.87042 0.37549 0.42983 0.0
C239 C 0.99734 0.37503 0.49843 0.0
H240 H 0.83481 0.31828 0.52168 0.0
H241 H 0.8692 0.22056 0.46717 0.0
H242 H 0.91938 0.41359 0.5151 0.0
H243 H 0.87427 0.41475 0.49187 0.0
H244 H 0.86559 0.39733 0.52443 0.0
H245 H 0.92195 0.242 0.43864 0.0
H246 H 0.91778 0.29414 0.42515 0.0
H247 H 0.96217 0.2951 0.44949 0.0
H248 H 0.93057 0.44328 0.41379 0.0
H249 H 1.03704 0.44423 0.47209 0.0
H250 H 0.84879 0.37863 0.44523 0.0
H251 H 0.864 0.33855 0.42259 0.0
H252 H 0.86193 0.39395 0.41292 0.0
H253 H 0.97946 0.37852 0.51577 0.0
H254 H 1.03192 0.39277 0.50441 0.0
H255 H 0.99445 0.33792 0.4934 0.0
C256 C 0.50899 0.77235 0.85267 0.0
C257 C 0.54268 0.7565 0.84289 0.0
C258 C 0.50638 0.81795 0.85111 0.0
C259 C 0.53768 0.84849 0.83899 0.0
C260 C 0.57206 0.83281 0.82942 0.0
C261 C 0.57435 0.78737 0.8317 0.0
C262 C 0.46952 0.83319 0.86197 0.0
C263 C 0.60565 0.86355 0.81581 0.0
C264 C 0.50224 0.94389 0.80573 0.0
C265 C 0.52247 0.98317 0.82345 0.0
C266 C 0.50716 0.90032 0.81053 0.0
C267 C 0.53232 0.89522 0.83406 0.0
C268 C 0.55253 0.93474 0.85231 0.0
C269 C 0.54776 0.97837 0.84667 0.0
C270 C 0.48569 0.85971 0.79017 0.0
C271 C 0.57897 0.93082 0.87785 0.0
H272 H 0.48453 0.74908 0.86156 0.0
H273 H 0.60048 0.77566 0.82397 0.0
H274 H 0.48197 0.86565 0.87543 0.0
H275 H 0.44775 0.83999 0.84532 0.0
H276 H 0.45034 0.80704 0.8731 0.0
H277 H 0.63161 0.84716 0.81074 0.0
H278 H 0.5901 0.87238 0.79717 0.0
H279 H 0.62049 0.89612 0.82877 0.0
H280 H 0.48277 0.94734 0.78769 0.0
H281 H 0.56332 0.00849 0.86053 0.0
H282 H 0.46269 0.83384 0.7994 0.0
H283 H 0.51027 0.84302 0.78307 0.0
H284 H 0.46791 0.86953 0.77264 0.0
H285 H 0.55907 0.90639 0.88958 0.0
H286 H 0.59156 0.96434 0.89034 0.0
H287 H 0.60663 0.91695 0.87326 0.0
C288 C 0.93038 0.46745 0.13702 0.0
C289 C 0.96329 0.50802 0.13614 0.0
C290 C 0.88538 0.46675 0.13694 0.0
C291 C 0.8705 0.50752 0.13575 0.0
C292 C 0.9036 0.54862 0.13505 0.0
C293 C 0.94847 0.54842 0.13538 0.0
C294 C 0.85336 0.42155 0.13791 0.0
C295 C 0.89149 0.59344 0.13356 0.0
C296 C 0.75082 0.49786 0.10464 0.0
C297 C 0.72721 0.50402 0.12633 0.0
C298 C 0.79585 0.49913 0.1075 0.0
C299 C 0.82086 0.50659 0.13302 0.0
C300 C 0.79758 0.51293 0.15529 0.0
C301 C 0.75192 0.51177 0.15181 0.0
C302 C 0.81684 0.49236 0.08268 0.0
C303 C 0.82108 0.52082 0.18312 0.0
H304 H 0.93976 0.43554 0.13779 0.0
H305 H 0.97215 0.58048 0.13477 0.0
H306 H 0.8335 0.42448 0.15433 0.0
H307 H 0.83107 0.41227 0.11902 0.0
H308 H 0.86932 0.39338 0.14085 0.0
H309 H 0.92016 0.62287 0.13432 0.0
H310 H 0.87009 0.59172 0.11476 0.0
H311 H 0.87315 0.59977 0.15028 0.0
H312 H 0.73364 0.4919 0.08466 0.0
H313 H 0.73572 0.51665 0.16914 0.0
H314 H 0.83022 0.46194 0.08326 0.0
H315 H 0.84418 0.52246 0.08178 0.0
H316 H 0.79394 0.48752 0.06416 0.0
H317 H 0.83511 0.49158 0.18689 0.0
H318 H 0.79962 0.52488 0.19851 0.0
H319 H 0.84827 0.55202 0.1852 0.0
C320 C 0.32277 0.83621 0.46607 0.0
C321 C 0.32426 0.86754 0.48833 0.0
C322 C 0.2917 0.79413 0.46165 0.0
C323 C 0.26103 0.78332 0.47982 0.0
C324 C 0.26358 0.81395 0.50301 0.0
C325 C 0.29543 0.85576 0.50707 0.0
C326 C 0.29054 0.76216 0.43686 0.0
C327 C 0.2314 0.80364 0.52276 0.0
C328 C 0.15701 0.70515 0.44457 0.0
C329 C 0.16183 0.66209 0.45016 0.0
C330 C 0.18755 0.74531 0.45587 0.0
C331 C 0.22413 0.74216 0.47283 0.0
C332 C 0.22765 0.69884 0.47993 0.0
C333 C 0.19619 0.65914 0.46854 0.0
C334 C 0.18221 0.79083 0.4481 0.0
C335 C 0.26619 0.69407 0.49788 0.0
H336 H 0.34558 0.84506 0.45182 0.0
H337 H 0.29661 0.88007 0.52429 0.0
H338 H 0.28964 0.72715 0.44211 0.0
H339 H 0.2608 0.75985 0.42317 0.0
H340 H 0.31885 0.77387 0.42603 0.0
H341 H 0.24106 0.82788 0.54133 0.0
H342 H 0.1994 0.80609 0.51361 0.0
H343 H 0.22756 0.76818 0.52803 0.0
H344 H 0.13018 0.70722 0.43042 0.0
H345 H 0.19989 0.62568 0.4727 0.0
H346 H 0.20649 0.80423 0.43475 0.0
H347 H 0.18781 0.8163 0.46599 0.0
H348 H 0.14958 0.78795 0.43753 0.0
H349 H 0.29472 0.69954 0.4868 0.0
H350 H 0.26078 0.65957 0.50487 0.0
H351 H 0.27401 0.72037 0.51548 0.0
C352 C 0.58784 0.46279 0.85734 0.0
C353 C 0.55723 0.4771 0.84074 0.0
C354 C 0.58947 0.41639 0.8556 0.0
C355 C 0.5605 0.38345 0.83637 0.0
C356 C 0.52955 0.3978 0.81962 0.0
C357 C 0.52802 0.44407 0.82218 0.0
C358 C 0.62245 0.40269 0.87422 0.0
C359 C 0.49862 0.36443 0.7984 0.0
C360 C 0.59102 0.27645 0.80801 0.0
C361 C 0.56311 0.24099 0.81873 0.0
C362 C 0.59148 0.32275 0.81426 0.0
C363 C 0.56412 0.33471 0.83232 0.0
C364 C 0.53804 0.29948 0.84471 0.0
C365 C 0.53765 0.25309 0.83768 0.0
C366 C 0.61967 0.35865 0.80034 0.0
C367 C 0.50915 0.31061 0.86457 0.0
H368 H 0.61037 0.4878 0.87189 0.0
H369 H 0.50435 0.45455 0.80912 0.0
H370 H 0.60649 0.37339 0.88448 0.0
H371 H 0.64616 0.3912 0.86267 0.0
H372 H 0.64018 0.43133 0.8895 0.0
H373 H 0.47598 0.38069 0.78728 0.0
H374 H 0.51699 0.35001 0.78399 0.0
H375 H 0.47955 0.33537 0.80756 0.0
H376 H 0.61172 0.26782 0.79386 0.0
H377 H 0.51597 0.22626 0.84615 0.0
H378 H 0.64037 0.38632 0.81513 0.0
H379 H 0.59908 0.3746 0.78734 0.0
H380 H 0.64071 0.34415 0.78787 0.0
H381 H 0.52732 0.3393 0.87966 0.0
H382 H 0.49526 0.28063 0.87498 0.0
H383 H 0.48225 0.32185 0.85413 0.0
C384 C 0.55062 0.91148 0.50282 0.0
C385 C 0.58076 0.94522 0.52052 0.0
C386 C 0.54705 0.86437 0.50408 0.0
C387 C 0.57382 0.8501 0.52376 0.0
C388 C 0.60492 0.88397 0.54133 0.0
C389 C 0.60819 0.93093 0.53941 0.0
C390 C 0.51367 0.82978 0.48475 0.0
C391 C 0.63373 0.8706 0.56288 0.0
C392 C 0.52782 0.73367 0.5473 0.0
C393 C 0.55033 0.70534 0.53471 0.0
C394 C 0.5356 0.78054 0.54413 0.0
C395 C 0.5664 0.80008 0.52754 0.0
C396 C 0.58921 0.77162 0.51456 0.0
C397 C 0.58117 0.72463 0.51845 0.0
C398 C 0.51076 0.80921 0.55867 0.0
C399 C 0.62184 0.79076 0.49641 0.0
H400 H 0.52939 0.92183 0.48799 0.0
H401 H 0.63157 0.95646 0.55323 0.0
H402 H 0.52862 0.80438 0.47499 0.0
H403 H 0.48816 0.81069 0.4957 0.0
H404 H 0.49822 0.84614 0.46909 0.0
H405 H 0.65818 0.9007 0.57379 0.0
H406 H 0.61382 0.85301 0.57741 0.0
H407 H 0.65063 0.8461 0.55417 0.0
H408 H 0.50405 0.7191 0.55999 0.0
H409 H 0.59868 0.70304 0.50861 0.0
H410 H 0.49119 0.82361 0.5441 0.0
H411 H 0.53348 0.83852 0.5714 0.0
H412 H 0.48886 0.78918 0.57144 0.0
H413 H 0.6061 0.80511 0.47992 0.0
H414 H 0.63683 0.76439 0.48773 0.0
H415 H 0.64768 0.81927 0.50758 0.0
C416 C 0.85335 0.58197 0.83766 0.0
C417 C 0.81378 0.57065 0.8212 0.0
C418 C 0.88156 0.55341 0.83666 0.0
C419 C 0.86964 0.51238 0.81898 0.0
C420 C 0.83197 0.50324 0.80042 0.0
C421 C 0.80445 0.53261 0.80171 0.0
C422 C 0.92186 0.56479 0.85652 0.0
C423 C 0.81857 0.46026 0.78094 0.0
C424 C 0.95187 0.44125 0.81985 0.0
C425 C 0.93909 0.41408 0.84008 0.0
C426 C 0.92841 0.47222 0.81161 0.0
C427 C 0.89147 0.47551 0.82389 0.0
C428 C 0.87715 0.44594 0.84315 0.0
C429 C 0.90128 0.41573 0.85106 0.0
C430 C 0.94454 0.50304 0.79097 0.0
C431 C 0.83758 0.44784 0.85649 0.0
H432 H 0.86091 0.61123 0.8528 0.0
H433 H 0.77444 0.52437 0.78841 0.0
H434 H 0.91686 0.54216 0.87264 0.0
H435 H 0.94969 0.55869 0.84685 0.0
H436 H 0.9301 0.60097 0.86572 0.0
H437 H 0.7941 0.46286 0.76449 0.0
H438 H 0.8468 0.45289 0.77228 0.0
H439 H 0.80434 0.43074 0.79157 0.0
H440 H 0.98127 0.43986 0.81144 0.0
H441 H 0.89131 0.39418 0.8665 0.0
H442 H 0.96078 0.53786 0.80101 0.0
H443 H 0.91739 0.50624 0.77662 0.0
H444 H 0.96804 0.49029 0.77977 0.0
H445 H 0.84323 0.48142 0.86874 0.0
H446 H 0.82921 0.42029 0.86963 0.0
H447 H 0.80946 0.44468 0.84129 0.0
C448 C 0.3043 0.8202 0.18284 0.0
C449 C 0.30091 0.78708 0.1611 0.0
C450 C 0.34317 0.85351 0.19136 0.0
C451 C 0.37976 0.85352 0.17797 0.0
C452 C 0.37643 0.82045 0.15583 0.0
C453 C 0.337 0.78776 0.14758 0.0
C454 C 0.34521 0.88843 0.21489 0.0
C455 C 0.41477 0.81898 0.1412 0.0
C456 C 0.47098 0.96291 0.18917 0.0
C457 C 0.49839 0.95325 0.20991 0.0
C458 C 0.43268 0.93042 0.17812 0.0
C459 C 0.42182 0.88711 0.18788 0.0
C460 C 0.45027 0.87662 0.20811 0.0
C461 C 0.48805 0.90986 0.21895 0.0
C462 C 0.40308 0.94304 0.15671 0.0
C463 C 0.44025 0.83069 0.21884 0.0
H464 H 0.27637 0.8202 0.19315 0.0
H465 H 0.33469 0.76198 0.13093 0.0
H466 H 0.36894 0.88453 0.23136 0.0
H467 H 0.35637 0.92359 0.20924 0.0
H468 H 0.31347 0.88494 0.22243 0.0
H469 H 0.4065 0.79215 0.12381 0.0
H470 H 0.42785 0.85268 0.13412 0.0
H471 H 0.44085 0.81211 0.15499 0.0
H472 H 0.47865 0.99654 0.18229 0.0
H473 H 0.50941 0.90209 0.23479 0.0
H474 H 0.3721 0.94392 0.1643 0.0
H475 H 0.39554 0.91678 0.1391 0.0
H476 H 0.41732 0.977 0.15021 0.0
H477 H 0.41066 0.82642 0.22887 0.0
H478 H 0.46699 0.82688 0.23336 0.0
H479 H 0.43381 0.8026 0.20225 0.0
C480 C 0.6168 0.26152 0.53405 0.0
C481 C 0.58327 0.22792 0.51871 0.0
C482 C 0.61574 0.308 0.53692 0.0
C483 C 0.58108 0.32173 0.52334 0.0
C484 C 0.54843 0.28817 0.50659 0.0
C485 C 0.54945 0.2417 0.50492 0.0
C486 C 0.65058 0.342 0.55563 0.0
C487 C 0.51172 0.30116 0.49093 0.0
C488 C 0.54894 0.42465 0.55592 0.0
C489 C 0.57159 0.46152 0.54355 0.0
C490 C 0.55185 0.37954 0.5495 0.0
C491 C 0.57639 0.36979 0.52913 0.0
C492 C 0.59694 0.4061 0.51514 0.0
C493 C 0.59473 0.45156 0.5227 0.0
C494 C 0.52975 0.34251 0.56531 0.0
C495 C 0.62204 0.39709 0.49258 0.0
H496 H 0.64296 0.25114 0.54485 0.0
H497 H 0.52368 0.21604 0.49274 0.0
H498 H 0.66539 0.37161 0.54528 0.0
H499 H 0.63616 0.35546 0.57259 0.0
H500 H 0.6764 0.32651 0.5637 0.0
H501 H 0.49278 0.27273 0.47588 0.0
H502 H 0.48967 0.31034 0.50468 0.0
H503 H 0.52419 0.33165 0.4806 0.0
H504 H 0.52948 0.43119 0.57134 0.0
H505 H 0.61219 0.47937 0.51281 0.0
H506 H 0.55384 0.3263 0.57492 0.0
H507 H 0.5058 0.31528 0.55187 0.0
H508 H 0.51292 0.35593 0.58106 0.0
H509 H 0.65179 0.38798 0.50058 0.0
H510 H 0.63139 0.42741 0.48154 0.0
H511 H 0.60272 0.36759 0.4784 0.0
C512 C 0.20433 0.52365 0.79215 0.0
C513 C 0.24086 0.5093 0.78605 0.0
C514 C 0.16403 0.49189 0.79069 0.0
C515 C 0.1607 0.44476 0.78363 0.0
C516 C 0.19661 0.43083 0.77521 0.0
C517 C 0.23615 0.46335 0.77633 0.0
C518 C 0.12604 0.50825 0.7989 0.0
C519 C 0.19471 0.3809 0.76785 0.0
C520 C 0.09082 0.35785 0.82056 0.0
C521 C 0.0577 0.335 0.80047 0.0
C522 C 0.12365 0.39468 0.81547 0.0
C523 C 0.12303 0.40944 0.7897 0.0
C524 C 0.08868 0.3876 0.76959 0.0
C525 C 0.05669 0.34997 0.77511 0.0
C526 C 0.16005 0.41644 0.83741 0.0
C527 C 0.0863 0.40321 0.74214 0.0
H528 H 0.20779 0.55925 0.79943 0.0
H529 H 0.26432 0.45189 0.77186 0.0
H530 H 0.09593 0.48993 0.78588 0.0
H531 H 0.12148 0.50095 0.81963 0.0
H532 H 0.13103 0.54572 0.79814 0.0
H533 H 0.22347 0.37638 0.75858 0.0
H534 H 0.19303 0.36303 0.78608 0.0
H535 H 0.1654 0.36395 0.75383 0.0
H536 H 0.09207 0.34581 0.84007 0.0
H537 H 1.03088 0.33225 0.75964 0.0
H538 H 0.16338 0.45385 0.84095 0.0
H539 H 0.19096 0.41157 0.83134 0.0
H540 H 0.15501 0.40164 0.8565 0.0
H541 H 0.09238 0.44108 0.74359 0.0
H542 H 0.05444 0.38752 0.73022 0.0
H543 H 0.11162 0.39361 0.73129 0.0
C544 C 0.89576 0.22918 0.19166 0.0
C545 C 0.89966 0.26354 0.17454 0.0
C546 C 0.85507 0.20479 0.19711 0.0
C547 C 0.81736 0.21468 0.18492 0.0
C548 C 0.82108 0.24852 0.16707 0.0
C549 C 0.86218 0.27269 0.16219 0.0
C550 C 0.85251 0.16942 0.21654 0.0
C551 C 0.78169 0.25978 0.15346 0.0
C552 C 0.70978 0.12772 0.1858 0.0
C553 C 0.6937 0.14757 0.20725 0.0
C554 C 0.74977 0.1495 0.17797 0.0
C555 C 0.77425 0.19169 0.19217 0.0
C556 C 0.75784 0.21186 0.21371 0.0
C557 C 0.71769 0.18967 0.22086 0.0
C558 C 0.76597 0.12727 0.15468 0.0
C559 C 0.78301 0.25659 0.22951 0.0
H560 H 0.92465 0.22226 0.2014 0.0
H561 H 0.86503 0.29877 0.14864 0.0
H562 H 0.8381 0.18023 0.23421 0.0
H563 H 0.83121 0.13606 0.20722 0.0
H564 H 0.88468 0.16435 0.22342 0.0
H565 H 0.79 0.28515 0.13901 0.0
H566 H 0.75912 0.22819 0.14278 0.0
H567 H 0.7643 0.27392 0.16859 0.0
H568 H 0.69126 0.09521 0.17516 0.0
H569 H 0.70529 0.20498 0.2375 0.0
H570 H 0.79675 0.11902 0.16143 0.0
H571 H 0.77273 0.1514 0.13945 0.0
H572 H 0.74247 0.09526 0.14518 0.0
H573 H 0.81468 0.25305 0.23855 0.0
H574 H 0.76564 0.26773 0.24568 0.0
H575 H 0.78954 0.28393 0.21613 0.0
C576 C 0.08056 0.41889 0.04842 0.0
C577 C 0.08283 0.46494 0.05679 0.0
C578 C 0.06985 0.40115 0.0215 0.0
C579 C 0.06172 0.43027 0.00235 0.0
C580 C 0.06499 0.47708 0.01052 0.0
C581 C 0.0752 0.49382 0.03772 0.0
C582 C 0.06601 0.35092 0.01365 0.0
C583 C 0.05704 0.50928 -0.00942 0.0
C584 C 0.06407 0.3925 0.92913 0.0
C585 C 1.01996 0.37776 0.91993 0.0
C586 C 0.07829 0.40953 0.95601 0.0
C587 C 1.04755 0.41109 0.974 0.0
C588 C 1.00296 0.3945 0.96489 0.0
C589 C 0.98971 0.37838 0.9379 0.0
C590 C 0.12606 0.42735 0.96496 0.0
C591 C 0.9692 0.39476 0.98352 0.0
H592 H 0.08617 0.39619 0.06302 0.0
H593 H 0.07712 0.52945 0.04403 0.0
H594 H 1.03237 0.33361 0.00496 0.0
H595 H 0.08713 0.34677 -0.00189 0.0
H596 H 0.07484 0.33324 0.03086 0.0
H597 H 0.0635 0.54523 -9e-05 0.0
H598 H 0.0778 0.50821 0.97445 0.0
H599 H 1.02303 0.49819 0.98114 0.0
H600 H 0.08734 0.39263 0.91505 0.0
H601 H 0.95557 0.36706 0.93063 0.0
H602 H 0.13576 0.40973 0.98193 0.0
H603 H 0.13359 0.46444 0.9721 0.0
H604 H 0.14578 0.42249 0.94869 0.0
H605 H 0.97545 0.37618 0.00081 0.0
H606 H 0.93599 0.37867 0.97351 0.0
H607 H 0.97087 0.43053 -0.00854 0.0
C608 C 0.55584 0.08319 0.41848 0.0
C609 C 0.59283 0.08404 0.43585 0.0
C610 C 0.55507 0.07538 0.39077 0.0
C611 C 0.59237 0.06883 0.38009 0.0
C612 C 0.6302 0.0708 0.39744 0.0
C613 C 0.62991 0.0781 0.42516 0.0
C614 C 0.51397 0.07317 0.37294 0.0
C615 C 0.67078 0.06466 0.38674 0.0
C616 C 0.57448 0.00494 0.31045 0.0
C617 C 0.58309 0.0411 0.2946 0.0
C618 C 0.57817 0.01344 0.33835 0.0
C619 C 0.59126 0.05919 0.35074 0.0
C620 C 0.60105 0.0958 0.33494 0.0
C621 C 0.59653 0.08635 0.30709 0.0
C622 C 0.56719 0.9735 0.35452 0.0
C623 C 0.61535 0.14503 0.34743 0.0
H624 H 0.52694 0.08747 0.42653 0.0
H625 H 0.65866 0.07891 0.43845 0.0
H626 H 0.5202 0.09892 0.35856 0.0
H627 H 0.50237 0.03894 0.36116 0.0
H628 H 0.48791 0.07946 0.3844 0.0
H629 H 0.69801 0.06908 0.40282 0.0
H630 H 0.66461 0.02993 0.37576 0.0
H631 H 0.68059 0.08974 0.37237 0.0
H632 H 0.56479 0.96987 0.30105 0.0
H633 H 0.60265 0.11459 0.29506 0.0
H634 H 0.53952 0.97601 0.36547 0.0
H635 H 0.59487 0.97444 0.36962 0.0
H636 H 0.55869 0.93994 0.34192 0.0
H637 H 0.58882 0.15415 0.35726 0.0
H638 H 0.62475 0.1693 0.33254 0.0
H639 H 0.64318 0.14961 0.36307 0.0
C640 C 0.5253 0.61644 0.74399 0.0
C641 C 0.55502 0.60378 0.76204 0.0
C642 C 0.52764 0.61124 0.71643 0.0
C643 C 0.56027 0.59265 0.70673 0.0
C644 C 0.59037 0.57989 0.72486 0.0
C645 C 0.58747 0.58575 0.75227 0.0
C646 C 0.49513 0.62546 0.69767 0.0
C647 C 0.62541 0.5596 0.71528 0.0
C648 C 0.54287 0.53681 0.63528 0.0
C649 C 0.56876 0.57076 0.62256 0.0
C650 C 0.53964 0.54362 0.66261 0.0
C651 C 0.56252 0.58559 0.67759 0.0
C652 C 0.58838 0.62021 0.66488 0.0
C653 C 0.59131 0.61233 0.63752 0.0
C654 C 0.51188 0.50579 0.67548 0.0
C655 C 0.61321 0.66543 0.68024 0.0
H656 H 0.50023 0.63054 0.75138 0.0
H657 H 0.61055 0.57576 0.76603 0.0
H658 H 0.51203 0.65119 0.68543 0.0
H659 H 0.47628 0.59542 0.68373 0.0
H660 H 0.47237 0.64028 0.70842 0.0
H661 H 0.64659 0.55195 0.732 0.0
H662 H 0.61074 0.5274 0.70193 0.0
H663 H 0.64567 0.58359 0.7035 0.0
H664 H 0.5247 0.50494 0.62376 0.0
H665 H 0.6117 0.63854 0.6279 0.0
H666 H 0.48657 0.51842 0.68478 0.0
H667 H 0.53184 0.49505 0.6916 0.0
H668 H 0.496 0.47527 0.66098 0.0
H669 H 0.59092 0.68204 0.69025 0.0
H670 H 0.63068 0.68936 0.66722 0.0
H671 H 0.63699 0.65957 0.69606 0.0
C672 C 0.59833 0.07867 0.61815 0.0
C673 C 0.56728 0.08772 0.59949 0.0
C674 C 0.59484 0.08382 0.64555 0.0
C675 C 0.56035 0.10002 0.65446 0.0
C676 C 0.52871 0.10886 0.63563 0.0
C677 C 0.53219 0.10184 0.6083 0.0
C678 C 0.62839 0.07253 0.66496 0.0
C679 C 0.49219 0.12745 0.64435 0.0
C680 C 0.53204 0.08574 0.72476 0.0
C681 C 0.5554 0.12793 0.73888 0.0
C682 C 0.53391 0.07588 0.69741 0.0
C683 C 0.5584 0.10958 0.68352 0.0
C684 C 0.58125 0.15255 0.6974 0.0
C685 C 0.58012 0.16087 0.72493 0.0
C686 C 0.50996 0.02923 0.68343 0.0
C687 C 0.60697 0.1898 0.68316 0.0
H688 H 0.6253 0.06743 0.61128 0.0
H689 H 0.50843 0.10931 0.59384 0.0
H690 H 0.64739 0.10419 0.67749 0.0
H691 H 0.61249 0.04871 0.67854 0.0
H692 H 0.65097 0.05664 0.65468 0.0
H693 H 0.46983 0.13171 0.62718 0.0
H694 H 0.47348 0.10429 0.6572 0.0
H695 H 0.50549 0.16124 0.65643 0.0
H696 H 0.51204 0.06026 0.73501 0.0
H697 H 0.5991 0.1932 0.73553 0.0
H698 H 0.53262 0.01286 0.67361 0.0
H699 H 0.48507 0.03275 0.66757 0.0
H700 H 0.49395 0.0061 0.69733 0.0
H701 H 0.63377 0.17834 0.67497 0.0
H702 H 0.62081 0.22222 0.69652 0.0
H703 H 0.58618 0.19688 0.66609 0.0
C704 C 0.51699 0.58031 0.93527 0.0
C705 C 0.54947 0.61312 0.92604 0.0
C706 C 0.51945 0.57219 0.96212 0.0
C707 C 0.55523 0.59755 0.98029 0.0
C708 C 0.5874 0.63184 0.97135 0.0
C709 C 0.58416 0.63922 0.94431 0.0
C710 C 0.48442 0.53535 0.97085 0.0
C711 C 0.62593 0.6597 -0.00983 0.0
C712 C 0.54339 0.59374 0.054 0.0
C713 C 0.56364 0.55916 0.0602 0.0
C714 C 0.5414 0.60755 0.02825 0.0
C715 C 0.55998 0.58616 0.00823 0.0
C716 C 0.58126 0.55195 0.01454 0.0
C717 C 0.58282 0.53888 0.04042 0.0
C718 C 0.5186 0.64428 0.02231 0.0
C719 C 0.60131 0.52814 -0.00627 0.0
H720 H 0.48994 0.56006 0.92139 0.0
H721 H 0.60939 0.66468 0.93741 0.0
H722 H 0.49822 0.50743 0.97758 0.0
H723 H 0.47098 0.5495 0.98803 0.0
H724 H 0.45763 0.52038 0.95459 0.0
H725 H 0.64647 0.68723 0.98057 0.0
H726 H 0.6152 0.6755 0.00796 0.0
H727 H 0.64587 0.63694 -0.0027 0.0
H728 H 0.52895 0.6099 0.0693 0.0
H729 H 0.59805 0.51176 0.04499 0.0
H730 H 0.48986 0.62965 0.00737 0.0
H731 H 0.54017 0.67213 0.01355 0.0
H732 H 0.50798 0.65931 0.04042 0.0
H733 H 0.57587 0.50881 0.97765 0.0
H734 H 0.6185 0.5039 0.00219 0.0
H735 H 0.62447 0.55376 0.98444 0.0
C736 C 0.07233 0.52681 0.23256 0.0
C737 C 0.10957 0.54257 0.22037 0.0
C738 C 0.07266 0.53545 0.26015 0.0
C739 C 0.11146 0.55964 0.27606 0.0
C740 C 0.14903 0.57644 0.26384 0.0
C741 C 0.14751 0.56813 0.236 0.0
C742 C 1.03165 0.51788 0.27232 0.0
C743 C 0.19112 0.60178 0.28024 0.0
C744 C 0.10258 0.6083 0.34624 0.0
C745 C 0.10964 0.57326 0.36107 0.0
C746 C 0.10364 0.60469 0.31856 0.0
C747 C 0.11278 0.56548 0.30557 0.0
C748 C 0.12081 0.53045 0.3206 0.0
C749 C 0.11871 0.53457 0.34817 0.0
C750 C 0.09398 0.64225 0.30313 0.0
C751 C 0.13127 0.48843 0.30753 0.0
H752 H 1.04276 0.50749 0.22047 0.0
H753 H 0.17635 0.5802 0.2266 0.0
H754 H 1.03595 0.49154 0.28551 0.0
H755 H 1.0242 0.54619 0.28482 0.0
H756 H 1.00356 0.50247 0.25697 0.0
H757 H 0.21692 0.6142 0.26764 0.0
H758 H 0.18665 0.63154 0.29294 0.0
H759 H 0.20204 0.57881 0.29377 0.0
H760 H 0.09539 0.63815 0.35628 0.0
H761 H 0.12471 0.50778 0.35975 0.0
H762 H 0.06457 0.62819 0.28862 0.0
H763 H 0.12085 0.65572 0.29155 0.0
H764 H 0.08884 0.67115 0.31634 0.0
H765 H 0.10329 0.46844 0.29327 0.0
H766 H 0.13936 0.46578 0.32227 0.0
H767 H 0.1589 0.49869 0.29598 0.0
loop_
_geom_bond_atom_site_label_1
_geom_bond_atom_site_label_2
_geom_bond_distance
_geom_bond_site_symmetry_2
_ccdc_geom_bond_type
Dy0 O3 2.307 1_455 S
Dy0 O5 2.395 . S
Dy0 O6 2.379 . S
Dy0 O8 2.339 . S
Dy0 O10 2.298 . S
Dy0 O14 2.275 . S
Dy0 C22 2.738 . S
Dy1 O4 2.298 1_455 S
Dy1 O7 2.275 . S
Dy1 O9 2.307 . S
Dy1 O11 2.395 1_455 S
Dy1 O12 2.379 1_455 S
Dy1 O15 2.339 . S
Dy1 C31 2.738 1_455 S
C2 O14 1.254 . S
C2 O15 1.257 . S
O3 Dy0 2.307 1_655 S
O3 C13 1.266 . S
O4 Dy1 2.298 1_655 S
O4 C13 1.236 . S
O5 Dy0 2.395 . S
O5 C22 1.255 . S
O6 Dy0 2.379 . S
O6 C22 1.249 . S
O7 Dy1 2.275 . S
O7 C23 1.254 . S
O8 Dy0 2.339 . S
O8 C23 1.257 . S
O9 Dy1 2.307 . S
O9 C24 1.266 . S
O10 Dy0 2.298 . S
O10 C24 1.236 . S
O11 Dy1 2.395 1_655 S
O11 C31 1.255 . S
O12 Dy1 2.379 1_655 S
O12 C31 1.249 . S
C13 O3 1.266 . S
C13 O4 1.236 . S
O14 Dy0 2.275 . S
O14 C2 1.254 . S
O15 Dy1 2.339 . S
O15 C2 1.257 . S
C16 C19 1.344 . S
C16 C20 1.328 . S
C16 C22 1.516 . S
C17 C18 1.304 . S
C17 C21 1.323 . S
C18 C17 1.304 . S
C18 C19 1.371 . S
C18 H32 0.930 . S
C19 C16 1.344 . S
C19 C18 1.371 . S
C19 H33 0.931 . S
C20 C16 1.328 . S
C20 C21 1.433 . S
C20 H34 0.931 . S
C21 C17 1.323 . S
C21 C20 1.433 . S
C21 H35 0.933 . S
C22 Dy0 2.738 . S
C22 O5 1.255 . S
C22 O6 1.249 . S
C22 C16 1.516 . S
C23 O7 1.254 . S
C23 O8 1.257 . S
C24 O9 1.266 . S
C24 O10 1.236 . S
C25 C28 1.344 . S
C25 C29 1.328 . S
C25 C31 1.516 . S
C26 C27 1.304 . S
C26 C30 1.323 . S
C27 C26 1.304 . S
C27 C28 1.371 . S
C27 H36 0.930 . S
C28 C25 1.344 . S
C28 C27 1.371 . S
C28 H37 0.931 . S
C29 C25 1.328 . S
C29 C30 1.433 . S
C29 H38 0.931 . S
C30 C26 1.323 . S
C30 C29 1.433 . S
C30 H39 0.933 . S
C31 Dy1 2.738 1_655 S
C31 O11 1.255 . S
C31 O12 1.249 . S
C31 C25 1.516 . S
H32 C18 0.930 . S
H33 C19 0.931 . S
H34 C20 0.931 . S
H35 C21 0.933 . S
H36 C27 0.930 . S
H37 C28 0.931 . S
H38 C29 0.931 . S
H39 C30 0.933 . S
Dy40 O43 2.307 . S
Dy40 O45 2.395 1_545 S
Dy40 O46 2.379 1_545 S
Dy40 O48 2.339 . S
Dy40 O50 2.298 1_545 S
Dy40 O54 2.275 . S
Dy40 C62 2.738 1_545 S
Dy41 O44 2.298 . S
Dy41 O47 2.275 . S
Dy41 O49 2.307 1_545 S
Dy41 O51 2.395 . S
Dy41 O52 2.379 . S
Dy41 O55 2.339 . S
Dy41 C71 2.738 . S
C42 O54 1.254 . S
C42 O55 1.257 . S
O43 Dy40 2.307 . S
O43 C53 1.266 . S
O44 Dy41 2.298 . S
O44 C53 1.236 . S
O45 Dy40 2.395 1_565 S
O45 C62 1.255 . S
O46 Dy40 2.379 1_565 S
O46 C62 1.249 . S
O47 Dy41 2.275 . S
O47 C63 1.254 . S
O48 Dy40 2.339 . S
O48 C63 1.257 . S
O49 Dy41 2.307 1_565 S
O49 C64 1.266 . S
O50 Dy40 2.298 1_565 S
O50 C64 1.236 . S
O51 Dy41 2.395 . S
O51 C71 1.255 . S
O52 Dy41 2.379 . S
O52 C71 1.249 . S
C53 O43 1.266 . S
C53 O44 1.236 . S
O54 Dy40 2.275 . S
O54 C42 1.254 . S
O55 Dy41 2.339 . S
O55 C42 1.257 . S
C56 C59 1.344 . S
C56 C60 1.328 . S
C56 C62 1.516 . S
C57 C58 1.304 . S
C57 C61 1.323 . S
C58 C57 1.304 . S
C58 C59 1.371 . S
C58 H72 0.930 . S
C59 C56 1.344 . S
C59 C58 1.371 . S
C59 H73 0.931 . S
C60 C56 1.328 . S
C60 C61 1.433 . S
C60 H74 0.931 . S
C61 C57 1.323 . S
C61 C60 1.433 . S
C61 H75 0.933 . S
C62 Dy40 2.738 1_565 S
C62 O45 1.255 . S
C62 O46 1.249 . S
C62 C56 1.516 . S
C63 O47 1.254 . S
C63 O48 1.257 . S
C64 O49 1.266 . S
C64 O50 1.236 . S
C65 C68 1.344 . S
C65 C69 1.328 . S
C65 C71 1.516 . S
C66 C67 1.304 . S
C66 C70 1.323 . S
C67 C66 1.304 . S
C67 C68 1.371 . S
C67 H76 0.930 . S
C68 C65 1.344 . S
C68 C67 1.371 . S
C68 H77 0.931 . S
C69 C65 1.328 . S
C69 C70 1.433 . S
C69 H78 0.931 . S
C70 C66 1.323 . S
C70 C69 1.433 . S
C70 H79 0.933 . S
C71 Dy41 2.738 . S
C71 O51 1.255 . S
C71 O52 1.249 . S
C71 C65 1.516 . S
H72 C58 0.930 . S
H73 C59 0.931 . S
H74 C60 0.931 . S
H75 C61 0.933 . S
H76 C67 0.930 . S
H77 C68 0.931 . S
H78 C69 0.931 . S
H79 C70 0.933 . S
Dy80 O83 2.307 . S
Dy80 O85 2.395 . S
Dy80 O86 2.379 . S
Dy80 O88 2.339 . S
Dy80 O90 2.298 . S
Dy80 O94 2.275 . S
Dy80 C102 2.738 . S
Dy81 O84 2.298 . S
Dy81 O87 2.275 . S
Dy81 O89 2.307 . S
Dy81 O91 2.395 . S
Dy81 O92 2.379 . S
Dy81 O95 2.339 . S
Dy81 C111 2.738 . S
C82 O94 1.254 . S
C82 O95 1.257 . S
O83 Dy80 2.307 . S
O83 C93 1.266 . S
O84 Dy81 2.298 . S
O84 C93 1.236 . S
O85 Dy80 2.395 . S
O85 C102 1.255 . S
O86 Dy80 2.379 . S
O86 C102 1.249 . S
O87 Dy81 2.275 . S
O87 C103 1.254 . S
O88 Dy80 2.339 . S
O88 C103 1.257 . S
O89 Dy81 2.307 . S
O89 C104 1.266 . S
O90 Dy80 2.298 . S
O90 C104 1.236 . S
O91 Dy81 2.395 . S
O91 C111 1.255 . S
O92 Dy81 2.379 . S
O92 C111 1.249 . S
C93 O83 1.266 . S
C93 O84 1.236 . S
O94 Dy80 2.275 . S
O94 C82 1.254 . S
O95 Dy81 2.339 . S
O95 C82 1.257 . S
C96 C99 1.344 . S
C96 C100 1.328 . S
C96 C102 1.516 . S
C97 C98 1.304 . S
C97 C101 1.323 . S
C98 C97 1.304 . S
C98 C99 1.371 . S
C98 H112 0.930 . S
C99 C96 1.344 . S
C99 C98 1.371 . S
C99 H113 0.931 . S
C100 C96 1.328 . S
C100 C101 1.433 . S
C100 H114 0.931 . S
C101 C97 1.323 . S
C101 C100 1.433 . S
C101 H115 0.933 . S
C102 Dy80 2.738 . S
C102 O85 1.255 . S
C102 O86 1.249 . S
C102 C96 1.516 . S
C103 O87 1.254 . S
C103 O88 1.257 . S
C104 O89 1.266 . S
C104 O90 1.236 . S
C105 C108 1.344 . S
C105 C109 1.328 . S
C105 C111 1.516 . S
C106 C107 1.304 . S
C106 C110 1.323 . S
C107 C106 1.304 . S
C107 C108 1.371 . S
C107 H116 0.930 . S
C108 C105 1.344 . S
C108 C107 1.371 . S
C108 H117 0.931 . S
C109 C105 1.328 . S
C109 C110 1.433 . S
C109 H118 0.931 . S
C110 C106 1.323 . S
C110 C109 1.433 . S
C110 H119 0.933 . S
C111 Dy81 2.738 . S
C111 O91 1.255 . S
C111 O92 1.249 . S
C111 C105 1.516 . S
H112 C98 0.930 . S
H113 C99 0.931 . S
H114 C100 0.931 . S
H115 C101 0.933 . S
H116 C107 0.930 . S
H117 C108 0.931 . S
H118 C109 0.931 . S
H119 C110 0.933 . S
H120 C125 0.930 . S
H121 C128 0.930 . S
H122 C130 0.930 . S
H123 C124 1.016 . S
C124 H123 1.016 . S
C124 N131 1.286 . S
C125 H120 0.930 . S
C125 C126 1.397 . S
C125 C127 1.361 . S
C126 C125 1.397 . S
C126 C130 1.390 . S
C127 C125 1.361 . S
C127 C128 1.393 . S
C127 N131 1.413 . S
C128 H121 0.930 . S
C128 C127 1.393 . S
C128 C129 1.399 . S
C129 C128 1.399 . S
C129 C130 1.381 . S
C130 H122 0.930 . S
C130 C126 1.390 . S
C130 C129 1.381 . S
N131 C124 1.286 . S
N131 C127 1.413 . S
H132 C137 0.930 . S
H133 C140 0.930 . S
H134 C142 0.930 . S
H135 C136 1.016 . S
C136 H135 1.016 . S
C136 N143 1.286 . S
C137 H132 0.930 . S
C137 C138 1.397 . S
C137 C139 1.361 . S
C138 C137 1.397 . S
C138 C142 1.390 . S
C139 C137 1.361 . S
C139 C140 1.393 . S
C139 N143 1.413 . S
C140 H133 0.930 . S
C140 C139 1.393 . S
C140 C141 1.399 . S
C141 C140 1.399 . S
C141 C142 1.381 . S
C142 H134 0.930 . S
C142 C138 1.390 . S
C142 C141 1.381 . S
N143 C136 1.286 . S
N143 C139 1.413 . S
H144 C149 0.930 1_655 S
H145 C152 0.930 . S
H146 C154 0.930 . S
H147 C148 1.016 . S
C148 H147 1.016 . S
C148 N155 1.286 . S
C149 H144 0.930 1_455 S
C149 C150 1.397 1_455 S
C149 C151 1.361 . S
C150 C149 1.397 1_655 S
C150 C154 1.390 . S
C151 C149 1.361 . S
C151 C152 1.393 . S
C151 N155 1.413 . S
C152 H145 0.930 . S
C152 C151 1.393 . S
C152 C153 1.399 . S
C153 C152 1.399 . S
C153 C154 1.381 1_455 S
C154 H146 0.930 . S
C154 C150 1.390 . S
C154 C153 1.381 1_655 S
N155 C148 1.286 . S
N155 C151 1.413 . S
H156 C161 0.930 . S
H157 C164 0.930 . S
H158 C166 0.930 . S
H159 C160 1.016 . S
C160 H159 1.016 . S
C160 N167 1.286 . S
C161 H156 0.930 . S
C161 C162 1.397 . S
C161 C163 1.361 . S
C162 C161 1.397 . S
C162 C166 1.390 . S
C163 C161 1.361 . S
C163 C164 1.393 1_455 S
C163 N167 1.413 1_455 S
C164 H157 0.930 . S
C164 C163 1.393 1_655 S
C164 C165 1.399 1_655 S
C165 C164 1.399 1_455 S
C165 C166 1.381 . S
C166 H158 0.930 . S
C166 C162 1.390 . S
C166 C165 1.381 . S
N167 C160 1.286 . S
N167 C163 1.413 1_655 S
H168 C173 0.930 . S
H169 C176 0.930 . S
H170 C178 0.930 . S
H171 C172 1.016 . S
C172 H171 1.016 . S
C172 N179 1.286 . S
C173 H168 0.930 . S
C173 C174 1.397 . S
C173 C175 1.361 1_545 S
C174 C173 1.397 . S
C174 C178 1.390 . S
C175 C173 1.361 1_565 S
C175 C176 1.393 . S
C175 N179 1.413 . S
C176 H169 0.930 . S
C176 C175 1.393 . S
C176 C177 1.399 1_565 S
C177 C176 1.399 1_545 S
C177 C178 1.381 . S
C178 H170 0.930 . S
C178 C174 1.390 . S
C178 C177 1.381 . S
N179 C172 1.286 . S
N179 C175 1.413 . S
H180 C185 0.930 . S
H181 C188 0.930 . S
H182 C190 0.930 . S
H183 C184 1.016 . S
C184 H183 1.016 . S
C184 N191 1.286 . S
C185 H180 0.930 . S
C185 C186 1.397 . S
C185 C187 1.361 . S
C186 C185 1.397 . S
C186 C190 1.390 . S
C187 C185 1.361 . S
C187 C188 1.393 . S
C187 N191 1.413 . S
C188 H181 0.930 . S
C188 C187 1.393 . S
C188 C189 1.399 . S
C189 C188 1.399 . S
C189 C190 1.381 . S
C190 H182 0.930 . S
C190 C186 1.390 . S
C190 C189 1.381 . S
N191 C184 1.286 . S
N191 C187 1.413 . S
C192 C193 1.391 . S
C192 C194 1.394 . S
C192 H208 0.931 . S
C193 C192 1.391 . S
C193 C197 1.376 . S
C194 C192 1.394 . S
C194 C195 1.369 . S
C194 C198 1.531 . S
C195 C194 1.369 . S
C195 C196 1.410 . S
C195 C203 1.503 . S
C196 C195 1.410 . S
C196 C197 1.392 . S
C196 C199 1.511 . S
C197 C193 1.376 . S
C197 C196 1.392 . S
C197 H209 0.929 . S
C198 C194 1.531 . S
C198 H210 0.960 . S
C198 H211 0.962 . S
C198 H212 0.960 . S
C199 C196 1.511 . S
C199 H213 0.961 . S
C199 H214 0.961 . S
C199 H215 0.961 . S
C200 C201 1.370 . S
C200 C202 1.363 . S
C200 H216 0.931 . S
C201 C200 1.370 . S
C201 C205 1.408 . S
C202 C200 1.363 . S
C202 C203 1.370 . S
C202 C206 1.524 . S
C203 C195 1.503 . S
C203 C202 1.370 . S
C203 C204 1.403 . S
C204 C203 1.403 . S
C204 C205 1.404 . S
C204 C207 1.539 . S
C205 C201 1.408 . S
C205 C204 1.404 . S
C205 H217 0.930 . S
C206 C202 1.524 . S
C206 H218 0.956 . S
C206 H219 0.961 . S
C206 H220 0.961 . S
C207 C204 1.539 . S
C207 H221 0.958 . S
C207 H222 0.961 . S
C207 H223 0.960 . S
H208 C192 0.931 . S
H209 C197 0.929 . S
H210 C198 0.960 . S
H211 C198 0.962 . S
H212 C198 0.960 . S
H213 C199 0.961 . S
H214 C199 0.961 . S
H215 C199 0.961 . S
H216 C200 0.931 . S
H217 C205 0.930 . S
H218 C206 0.956 . S
H219 C206 0.961 . S
H220 C206 0.961 . S
H221 C207 0.958 . S
H222 C207 0.961 . S
H223 C207 0.960 . S
C224 C225 1.391 . S
C224 C226 1.394 . S
C224 H240 0.931 . S
C225 C224 1.391 . S
C225 C229 1.376 . S
C226 C224 1.394 . S
C226 C227 1.369 . S
C226 C230 1.531 . S
C227 C226 1.369 . S
C227 C228 1.410 . S
C227 C235 1.503 . S
C228 C227 1.410 . S
C228 C229 1.392 . S
C228 C231 1.511 . S
C229 C225 1.376 . S
C229 C228 1.392 . S
C229 H241 0.929 . S
C230 C226 1.531 . S
C230 H242 0.960 . S
C230 H243 0.962 . S
C230 H244 0.960 . S
C231 C228 1.511 . S
C231 H245 0.961 . S
C231 H246 0.961 . S
C231 H247 0.961 . S
C232 C233 1.370 . S
C232 C234 1.363 . S
C232 H248 0.931 . S
C233 C232 1.370 . S
C233 C237 1.408 . S
C234 C232 1.363 . S
C234 C235 1.370 . S
C234 C238 1.524 . S
C235 C227 1.503 . S
C235 C234 1.370 . S
C235 C236 1.403 . S
C236 C235 1.403 . S
C236 C237 1.404 . S
C236 C239 1.539 . S
C237 C233 1.408 . S
C237 C236 1.404 . S
C237 H249 0.930 . S
C238 C234 1.524 . S
C238 H250 0.956 . S
C238 H251 0.961 . S
C238 H252 0.961 . S
C239 C236 1.539 . S
C239 H253 0.958 . S
C239 H254 0.961 . S
C239 H255 0.960 . S
H240 C224 0.931 . S
H241 C229 0.929 . S
H242 C230 0.960 . S
H243 C230 0.962 . S
H244 C230 0.960 . S
H245 C231 0.961 . S
H246 C231 0.961 . S
H247 C231 0.961 . S
H248 C232 0.931 . S
H249 C237 0.930 . S
H250 C238 0.956 . S
H251 C238 0.961 . S
H252 C238 0.961 . S
H253 C239 0.958 . S
H254 C239 0.961 . S
H255 C239 0.960 . S
C256 C257 1.391 . S
C256 C258 1.394 . S
C256 H272 0.931 . S
C257 C256 1.391 . S
C257 C261 1.376 . S
C258 C256 1.394 . S
C258 C259 1.369 . S
C258 C262 1.531 . S
C259 C258 1.369 . S
C259 C260 1.410 . S
C259 C267 1.503 . S
C260 C259 1.410 . S
C260 C261 1.392 . S
C260 C263 1.511 . S
C261 C257 1.376 . S
C261 C260 1.392 . S
C261 H273 0.929 . S
C262 C258 1.531 . S
C262 H274 0.960 . S
C262 H275 0.962 . S
C262 H276 0.960 . S
C263 C260 1.511 . S
C263 H277 0.961 . S
C263 H278 0.961 . S
C263 H279 0.961 . S
C264 C265 1.370 . S
C264 C266 1.363 . S
C264 H280 0.931 . S
C265 C264 1.370 . S
C265 C269 1.408 . S
C266 C264 1.363 . S
C266 C267 1.370 . S
C266 C270 1.524 . S
C267 C259 1.503 . S
C267 C266 1.370 . S
C267 C268 1.403 . S
C268 C267 1.403 . S
C268 C269 1.404 . S
C268 C271 1.539 . S
C269 C265 1.408 . S
C269 C268 1.404 . S
C269 H281 0.930 . S
C270 C266 1.524 . S
C270 H282 0.956 . S
C270 H283 0.961 . S
C270 H284 0.961 . S
C271 C268 1.539 . S
C271 H285 0.958 . S
C271 H286 0.961 . S
C271 H287 0.960 . S
H272 C256 0.931 . S
H273 C261 0.929 . S
H274 C262 0.960 . S
H275 C262 0.962 . S
H276 C262 0.960 . S
H277 C263 0.961 . S
H278 C263 0.961 . S
H279 C263 0.961 . S
H280 C264 0.931 . S
H281 C269 0.930 . S
H282 C270 0.956 . S
H283 C270 0.961 . S
H284 C270 0.961 . S
H285 C271 0.958 . S
H286 C271 0.961 . S
H287 C271 0.960 . S
C288 C289 1.391 . S
C288 C290 1.394 . S
C288 H304 0.931 . S
C289 C288 1.391 . S
C289 C293 1.376 . S
C290 C288 1.394 . S
C290 C291 1.369 . S
C290 C294 1.531 . S
C291 C290 1.369 . S
C291 C292 1.410 . S
C291 C299 1.503 . S
C292 C291 1.410 . S
C292 C293 1.392 . S
C292 C295 1.511 . S
C293 C289 1.376 . S
C293 C292 1.392 . S
C293 H305 0.929 . S
C294 C290 1.531 . S
C294 H306 0.960 . S
C294 H307 0.962 . S
C294 H308 0.960 . S
C295 C292 1.511 . S
C295 H309 0.961 . S
C295 H310 0.961 . S
C295 H311 0.961 . S
C296 C297 1.370 . S
C296 C298 1.363 . S
C296 H312 0.931 . S
C297 C296 1.370 . S
C297 C301 1.408 . S
C298 C296 1.363 . S
C298 C299 1.370 . S
C298 C302 1.524 . S
C299 C291 1.503 . S
C299 C298 1.370 . S
C299 C300 1.403 . S
C300 C299 1.403 . S
C300 C301 1.404 . S
C300 C303 1.539 . S
C301 C297 1.408 . S
C301 C300 1.404 . S
C301 H313 0.930 . S
C302 C298 1.524 . S
C302 H314 0.956 . S
C302 H315 0.961 . S
C302 H316 0.961 . S
C303 C300 1.539 . S
C303 H317 0.958 . S
C303 H318 0.961 . S
C303 H319 0.960 . S
H304 C288 0.931 . S
H305 C293 0.929 . S
H306 C294 0.960 . S
H307 C294 0.962 . S
H308 C294 0.960 . S
H309 C295 0.961 . S
H310 C295 0.961 . S
H311 C295 0.961 . S
H312 C296 0.931 . S
H313 C301 0.930 . S
H314 C302 0.956 . S
H315 C302 0.961 . S
H316 C302 0.961 . S
H317 C303 0.958 . S
H318 C303 0.961 . S
H319 C303 0.960 . S
C320 C321 1.391 . S
C320 C322 1.394 . S
C320 H336 0.931 . S
C321 C320 1.391 . S
C321 C325 1.376 . S
C322 C320 1.394 . S
C322 C323 1.369 . S
C322 C326 1.531 . S
C323 C322 1.369 . S
C323 C324 1.410 . S
C323 C331 1.503 . S
C324 C323 1.410 . S
C324 C325 1.392 . S
C324 C327 1.511 . S
C325 C321 1.376 . S
C325 C324 1.392 . S
C325 H337 0.929 . S
C326 C322 1.531 . S
C326 H338 0.960 . S
C326 H339 0.962 . S
C326 H340 0.960 . S
C327 C324 1.511 . S
C327 H341 0.961 . S
C327 H342 0.961 . S
C327 H343 0.961 . S
C328 C329 1.370 . S
C328 C330 1.363 . S
C328 H344 0.931 . S
C329 C328 1.370 . S
C329 C333 1.408 . S
C330 C328 1.363 . S
C330 C331 1.370 . S
C330 C334 1.524 . S
C331 C323 1.503 . S
C331 C330 1.370 . S
C331 C332 1.403 . S
C332 C331 1.403 . S
C332 C333 1.404 . S
C332 C335 1.539 . S
C333 C329 1.408 . S
C333 C332 1.404 . S
C333 H345 0.930 . S
C334 C330 1.524 . S
C334 H346 0.956 . S
C334 H347 0.961 . S
C334 H348 0.961 . S
C335 C332 1.539 . S
C335 H349 0.958 . S
C335 H350 0.961 . S
C335 H351 0.960 . S
H336 C320 0.931 . S
H337 C325 0.929 . S
H338 C326 0.960 . S
H339 C326 0.962 . S
H340 C326 0.960 . S
H341 C327 0.961 . S
H342 C327 0.961 . S
H343 C327 0.961 . S
H344 C328 0.931 . S
H345 C333 0.930 . S
H346 C334 0.956 . S
H347 C334 0.961 . S
H348 C334 0.961 . S
H349 C335 0.958 . S
H350 C335 0.961 . S
H351 C335 0.960 . S
C352 C353 1.391 . S
C352 C354 1.394 . S
C352 H368 0.931 . S
C353 C352 1.391 . S
C353 C357 1.376 . S
C354 C352 1.394 . S
C354 C355 1.369 . S
C354 C358 1.531 . S
C355 C354 1.369 . S
C355 C356 1.410 . S
C355 C363 1.503 . S
C356 C355 1.410 . S
C356 C357 1.392 . S
C356 C359 1.511 . S
C357 C353 1.376 . S
C357 C356 1.392 . S
C357 H369 0.929 . S
C358 C354 1.531 . S
C358 H370 0.960 . S
C358 H371 0.962 . S
C358 H372 0.960 . S
C359 C356 1.511 . S
C359 H373 0.961 . S
C359 H374 0.961 . S
C359 H375 0.961 . S
C360 C361 1.370 . S
C360 C362 1.363 . S
C360 H376 0.931 . S
C361 C360 1.370 . S
C361 C365 1.408 . S
C362 C360 1.363 . S
C362 C363 1.370 . S
C362 C366 1.524 . S
C363 C355 1.503 . S
C363 C362 1.370 . S
C363 C364 1.403 . S
C364 C363 1.403 . S
C364 C365 1.404 . S
C364 C367 1.539 . S
C365 C361 1.408 . S
C365 C364 1.404 . S
C365 H377 0.930 . S
C366 C362 1.524 . S
C366 H378 0.956 . S
C366 H379 0.961 . S
C366 H380 0.961 . S
C367 C364 1.539 . S
C367 H381 0.958 . S
C367 H382 0.961 . S
C367 H383 0.960 . S
H368 C352 0.931 . S
H369 C357 0.929 . S
H370 C358 0.960 . S
H371 C358 0.962 . S
H372 C358 0.960 . S
H373 C359 0.961 . S
H374 C359 0.961 . S
H375 C359 0.961 . S
H376 C360 0.931 . S
H377 C365 0.930 . S
H378 C366 0.956 . S
H379 C366 0.961 . S
H380 C366 0.961 . S
H381 C367 0.958 . S
H382 C367 0.961 . S
H383 C367 0.960 . S
C384 C385 1.391 . S
C384 C386 1.394 . S
C384 H400 0.931 . S
C385 C384 1.391 . S
C385 C389 1.376 . S
C386 C384 1.394 . S
C386 C387 1.369 . S
C386 C390 1.531 . S
C387 C386 1.369 . S
C387 C388 1.410 . S
C387 C395 1.503 . S
C388 C387 1.410 . S
C388 C389 1.392 . S
C388 C391 1.511 . S
C389 C385 1.376 . S
C389 C388 1.392 . S
C389 H401 0.929 . S
C390 C386 1.531 . S
C390 H402 0.960 . S
C390 H403 0.962 . S
C390 H404 0.960 . S
C391 C388 1.511 . S
C391 H405 0.961 . S
C391 H406 0.961 . S
C391 H407 0.961 . S
C392 C393 1.370 . S
C392 C394 1.363 . S
C392 H408 0.931 . S
C393 C392 1.370 . S
C393 C397 1.408 . S
C394 C392 1.363 . S
C394 C395 1.370 . S
C394 C398 1.524 . S
C395 C387 1.503 . S
C395 C394 1.370 . S
C395 C396 1.403 . S
C396 C395 1.403 . S
C396 C397 1.404 . S
C396 C399 1.539 . S
C397 C393 1.408 . S
C397 C396 1.404 . S
C397 H409 0.930 . S
C398 C394 1.524 . S
C398 H410 0.956 . S
C398 H411 0.961 . S
C398 H412 0.961 . S
C399 C396 1.539 . S
C399 H413 0.958 . S
C399 H414 0.961 . S
C399 H415 0.960 . S
H400 C384 0.931 . S
H401 C389 0.929 . S
H402 C390 0.960 . S
H403 C390 0.962 . S
H404 C390 0.960 . S
H405 C391 0.961 . S
H406 C391 0.961 . S
H407 C391 0.961 . S
H408 C392 0.931 . S
H409 C397 0.930 . S
H410 C398 0.956 . S
H411 C398 0.961 . S
H412 C398 0.961 . S
H413 C399 0.958 . S
H414 C399 0.961 . S
H415 C399 0.960 . S
C416 C417 1.391 . S
C416 C418 1.394 . S
C416 H432 0.931 . S
C417 C416 1.391 . S
C417 C421 1.376 . S
C418 C416 1.394 . S
C418 C419 1.369 . S
C418 C422 1.531 . S
C419 C418 1.369 . S
C419 C420 1.410 . S
C419 C427 1.503 . S
C420 C419 1.410 . S
C420 C421 1.392 . S
C420 C423 1.511 . S
C421 C417 1.376 . S
C421 C420 1.392 . S
C421 H433 0.929 . S
C422 C418 1.531 . S
C422 H434 0.960 . S
C422 H435 0.962 . S
C422 H436 0.960 . S
C423 C420 1.511 . S
C423 H437 0.961 . S
C423 H438 0.961 . S
C423 H439 0.961 . S
C424 C425 1.370 . S
C424 C426 1.363 . S
C424 H440 0.931 . S
C425 C424 1.370 . S
C425 C429 1.408 . S
C426 C424 1.363 . S
C426 C427 1.370 . S
C426 C430 1.524 . S
C427 C419 1.503 . S
C427 C426 1.370 . S
C427 C428 1.403 . S
C428 C427 1.403 . S
C428 C429 1.404 . S
C428 C431 1.539 . S
C429 C425 1.408 . S
C429 C428 1.404 . S
C429 H441 0.930 . S
C430 C426 1.524 . S
C430 H442 0.956 . S
C430 H443 0.961 . S
C430 H444 0.961 . S
C431 C428 1.539 . S
C431 H445 0.958 . S
C431 H446 0.961 . S
C431 H447 0.960 . S
H432 C416 0.931 . S
H433 C421 0.929 . S
H434 C422 0.960 . S
H435 C422 0.962 . S
H436 C422 0.960 . S
H437 C423 0.961 . S
H438 C423 0.961 . S
H439 C423 0.961 . S
H440 C424 0.931 . S
H441 C429 0.930 . S
H442 C430 0.956 . S
H443 C430 0.961 . S
H444 C430 0.961 . S
H445 C431 0.958 . S
H446 C431 0.961 . S
H447 C431 0.960 . S
C448 C449 1.391 . S
C448 C450 1.394 . S
C448 H464 0.931 . S
C449 C448 1.391 . S
C449 C453 1.376 . S
C450 C448 1.394 . S
C450 C451 1.369 . S
C450 C454 1.531 . S
C451 C450 1.369 . S
C451 C452 1.410 . S
C451 C459 1.503 . S
C452 C451 1.410 . S
C452 C453 1.392 . S
C452 C455 1.511 . S
C453 C449 1.376 . S
C453 C452 1.392 . S
C453 H465 0.929 . S
C454 C450 1.531 . S
C454 H466 0.960 . S
C454 H467 0.962 . S
C454 H468 0.960 . S
C455 C452 1.511 . S
C455 H469 0.961 . S
C455 H470 0.961 . S
C455 H471 0.961 . S
C456 C457 1.370 . S
C456 C458 1.363 1_545 S
C456 H472 0.931 . S
C457 C456 1.370 . S
C457 C461 1.408 1_545 S
C458 C456 1.363 1_565 S
C458 C459 1.370 . S
C458 C462 1.524 . S
C459 C451 1.503 . S
C459 C458 1.370 . S
C459 C460 1.403 . S
C460 C459 1.403 . S
C460 C461 1.404 . S
C460 C463 1.539 . S
C461 C457 1.408 1_565 S
C461 C460 1.404 . S
C461 H473 0.930 . S
C462 C458 1.524 . S
C462 H474 0.952 1_565 S
C462 H475 0.961 . S
C462 H476 0.961 1_565 S
C463 C460 1.539 . S
C463 H477 0.958 . S
C463 H478 0.961 . S
C463 H479 0.960 . S
H464 C448 0.931 . S
H465 C453 0.929 . S
H466 C454 0.960 . S
H467 C454 0.962 . S
H468 C454 0.960 . S
H469 C455 0.961 . S
H470 C455 0.961 . S
H471 C455 0.961 . S
H472 C456 0.931 . S
H473 C461 0.930 . S
H474 C462 0.952 1_545 S
H475 C462 0.961 . S
H476 C462 0.961 1_545 S
H477 C463 0.958 . S
H478 C463 0.961 . S
H479 C463 0.960 . S
C480 C481 1.391 . S
C480 C482 1.394 . S
C480 H496 0.931 . S
C481 C480 1.391 . S
C481 C485 1.376 . S
C482 C480 1.394 . S
C482 C483 1.369 . S
C482 C486 1.531 . S
C483 C482 1.369 . S
C483 C484 1.410 . S
C483 C491 1.503 . S
C484 C483 1.410 . S
C484 C485 1.392 . S
C484 C487 1.511 . S
C485 C481 1.376 . S
C485 C484 1.392 . S
C485 H497 0.929 . S
C486 C482 1.531 . S
C486 H498 0.960 . S
C486 H499 0.962 . S
C486 H500 0.960 . S
C487 C484 1.511 . S
C487 H501 0.961 . S
C487 H502 0.961 . S
C487 H503 0.961 . S
C488 C489 1.370 . S
C488 C490 1.363 . S
C488 H504 0.931 . S
C489 C488 1.370 . S
C489 C493 1.408 . S
C490 C488 1.363 . S
C490 C491 1.370 . S
C490 C494 1.524 . S
C491 C483 1.503 . S
C491 C490 1.370 . S
C491 C492 1.403 . S
C492 C491 1.403 . S
C492 C493 1.404 . S
C492 C495 1.539 . S
C493 C489 1.408 . S
C493 C492 1.404 . S
C493 H505 0.930 . S
C494 C490 1.524 . S
C494 H506 0.956 . S
C494 H507 0.961 . S
C494 H508 0.961 . S
C495 C492 1.539 . S
C495 H509 0.958 . S
C495 H510 0.961 . S
C495 H511 0.960 . S
H496 C480 0.931 . S
H497 C485 0.929 . S
H498 C486 0.960 . S
H499 C486 0.962 . S
H500 C486 0.960 . S
H501 C487 0.961 . S
H502 C487 0.961 . S
H503 C487 0.961 . S
H504 C488 0.931 . S
H505 C493 0.930 . S
H506 C494 0.956 . S
H507 C494 0.961 . S
H508 C494 0.961 . S
H509 C495 0.958 . S
H510 C495 0.961 . S
H511 C495 0.960 . S
C512 C513 1.391 . S
C512 C514 1.394 . S
C512 H528 0.931 . S
C513 C512 1.391 . S
C513 C517 1.376 . S
C514 C512 1.394 . S
C514 C515 1.369 . S
C514 C518 1.531 . S
C515 C514 1.369 . S
C515 C516 1.410 . S
C515 C523 1.503 . S
C516 C515 1.410 . S
C516 C517 1.392 . S
C516 C519 1.511 . S
C517 C513 1.376 . S
C517 C516 1.392 . S
C517 H529 0.929 . S
C518 C514 1.531 . S
C518 H530 0.960 . S
C518 H531 0.962 . S
C518 H532 0.960 . S
C519 C516 1.511 . S
C519 H533 0.961 . S
C519 H534 0.961 . S
C519 H535 0.961 . S
C520 C521 1.370 . S
C520 C522 1.363 . S
C520 H536 0.931 . S
C521 C520 1.370 . S
C521 C525 1.408 . S
C522 C520 1.363 . S
C522 C523 1.370 . S
C522 C526 1.524 . S
C523 C515 1.503 . S
C523 C522 1.370 . S
C523 C524 1.403 . S
C524 C523 1.403 . S
C524 C525 1.404 . S
C524 C527 1.539 . S
C525 C521 1.408 . S
C525 C524 1.404 . S
C525 H537 0.930 . S
C526 C522 1.524 . S
C526 H538 0.956 . S
C526 H539 0.961 . S
C526 H540 0.961 . S
C527 C524 1.539 . S
C527 H541 0.958 . S
C527 H542 0.961 . S
C527 H543 0.960 . S
H528 C512 0.931 . S
H529 C517 0.929 . S
H530 C518 0.960 . S
H531 C518 0.962 . S
H532 C518 0.960 . S
H533 C519 0.961 . S
H534 C519 0.961 . S
H535 C519 0.961 . S
H536 C520 0.931 . S
H537 C525 0.930 . S
H538 C526 0.956 . S
H539 C526 0.961 . S
H540 C526 0.961 . S
H541 C527 0.958 . S
H542 C527 0.961 . S
H543 C527 0.960 . S
C544 C545 1.391 . S
C544 C546 1.394 . S
C544 H560 0.931 . S
C545 C544 1.391 . S
C545 C549 1.376 . S
C546 C544 1.394 . S
C546 C547 1.369 . S
C546 C550 1.531 . S
C547 C546 1.369 . S
C547 C548 1.410 . S
C547 C555 1.503 . S
C548 C547 1.410 . S
C548 C549 1.392 . S
C548 C551 1.511 . S
C549 C545 1.376 . S
C549 C548 1.392 . S
C549 H561 0.929 . S
C550 C546 1.531 . S
C550 H562 0.960 . S
C550 H563 0.962 . S
C550 H564 0.960 . S
C551 C548 1.511 . S
C551 H565 0.961 . S
C551 H566 0.961 . S
C551 H567 0.961 . S
C552 C553 1.370 . S
C552 C554 1.363 . S
C552 H568 0.931 . S
C553 C552 1.370 . S
C553 C557 1.408 . S
C554 C552 1.363 . S
C554 C555 1.370 . S
C554 C558 1.524 . S
C555 C547 1.503 . S
C555 C554 1.370 . S
C555 C556 1.403 . S
C556 C555 1.403 . S
C556 C557 1.404 . S
C556 C559 1.539 . S
C557 C553 1.408 . S
C557 C556 1.404 . S
C557 H569 0.930 . S
C558 C554 1.524 . S
C558 H570 0.956 . S
C558 H571 0.961 . S
C558 H572 0.961 . S
C559 C556 1.539 . S
C559 H573 0.958 . S
C559 H574 0.961 . S
C559 H575 0.960 . S
H560 C544 0.931 . S
H561 C549 0.929 . S
H562 C550 0.960 . S
H563 C550 0.962 . S
H564 C550 0.960 . S
H565 C551 0.961 . S
H566 C551 0.961 . S
H567 C551 0.961 . S
H568 C552 0.931 . S
H569 C557 0.930 . S
H570 C558 0.956 . S
H571 C558 0.961 . S
H572 C558 0.961 . S
H573 C559 0.958 . S
H574 C559 0.961 . S
H575 C559 0.960 . S
C576 C577 1.391 . S
C576 C578 1.394 . S
C576 H592 0.931 . S
C577 C576 1.391 . S
C577 C581 1.394 . S
C578 C576 1.394 . S
C578 C579 1.369 . S
C578 C582 1.531 . S
C579 C578 1.369 . S
C579 C580 1.410 1_455 S
C579 C587 1.503 . S
C580 C579 1.410 1_655 S
C580 C581 1.394 1_655 S
C580 C583 1.511 . S
C581 C577 1.394 . S
C581 C580 1.394 1_455 S
C581 H593 0.910 1_455 S
C582 C578 1.531 . S
C582 H594 0.960 . S
C582 H595 0.962 . S
C582 H596 0.960 . S
C583 C580 1.511 . S
C583 H597 0.961 . S
C583 H598 0.961 . S
C583 H599 0.961 . S
C584 C585 1.370 . S
C584 C586 1.363 . S
C584 H600 0.931 . S
C585 C584 1.370 . S
C585 C589 1.412 . S
C586 C584 1.363 . S
C586 C587 1.370 1_556 S
C586 C590 1.524 1_556 S
C587 C579 1.503 . S
C587 C586 1.370 1_554 S
C587 C588 1.409 1_554 S
C588 C587 1.409 1_556 S
C588 C589 1.405 . S
C588 C591 1.528 1_456 S
C589 C585 1.412 . S
C589 C588 1.405 . S
C589 H601 0.927 1_455 S
C590 C586 1.524 1_554 S
C590 H602 0.956 . S
C590 H603 0.961 . S
C590 H604 0.961 . S
C591 C588 1.528 1_654 S
C591 H605 0.958 . S
C591 H606 0.961 1_554 S
C591 H607 0.960 . S
H592 C576 0.931 . S
H593 C581 0.910 1_655 S
H594 C582 0.960 . S
H595 C582 0.962 . S
H596 C582 0.960 . S
H597 C583 0.961 . S
H598 C583 0.961 . S
H599 C583 0.961 . S
H600 C584 0.931 . S
H601 C589 0.927 1_655 S
H602 C590 0.956 . S
H603 C590 0.961 . S
H604 C590 0.961 . S
H605 C591 0.958 . S
H606 C591 0.961 1_556 S
H607 C591 0.960 . S
C608 C609 1.391 . S
C608 C610 1.394 . S
C608 H624 0.931 . S
C609 C608 1.391 . S
C609 C613 1.376 . S
C610 C608 1.394 . S
C610 C611 1.369 . S
C610 C614 1.531 . S
C611 C610 1.369 . S
C611 C612 1.410 . S
C611 C619 1.503 . S
C612 C611 1.410 . S
C612 C613 1.392 . S
C612 C615 1.511 . S
C613 C609 1.376 . S
C613 C612 1.392 . S
C613 H625 0.929 . S
C614 C610 1.531 . S
C614 H626 0.960 . S
C614 H627 0.962 . S
C614 H628 0.960 . S
C615 C612 1.511 . S
C615 H629 0.961 1_545 S
C615 H630 0.961 . S
C615 H631 0.961 . S
C616 C617 1.370 . S
C616 C618 1.363 . S
C616 H632 0.931 . S
C617 C616 1.370 . S
C617 C621 1.408 . S
C618 C616 1.363 . S
C618 C619 1.370 . S
C618 C622 1.524 . S
C619 C611 1.503 . S
C619 C618 1.370 . S
C619 C620 1.403 . S
C620 C619 1.403 . S
C620 C621 1.404 . S
C620 C623 1.539 . S
C621 C617 1.408 . S
C621 C620 1.404 . S
C621 H633 0.930 . S
C622 C618 1.524 . S
C622 H634 0.956 . S
C622 H635 0.961 1_545 S
C622 H636 0.961 1_545 S
C623 C620 1.539 . S
C623 H637 0.958 . S
C623 H638 0.961 . S
C623 H639 0.960 . S
H624 C608 0.931 . S
H625 C613 0.929 . S
H626 C614 0.960 . S
H627 C614 0.962 . S
H628 C614 0.960 . S
H629 C615 0.961 1_565 S
H630 C615 0.961 . S
H631 C615 0.961 . S
H632 C616 0.931 . S
H633 C621 0.930 . S
H634 C622 0.956 . S
H635 C622 0.961 1_565 S
H636 C622 0.961 1_565 S
H637 C623 0.958 . S
H638 C623 0.961 . S
H639 C623 0.960 . S
C640 C641 1.391 . S
C640 C642 1.394 . S
C640 H656 0.931 . S
C641 C640 1.391 . S
C641 C645 1.376 . S
C642 C640 1.394 . S
C642 C643 1.369 . S
C642 C646 1.531 . S
C643 C642 1.369 . S
C643 C644 1.410 . S
C643 C651 1.503 . S
C644 C643 1.410 . S
C644 C645 1.392 . S
C644 C647 1.511 . S
C645 C641 1.376 . S
C645 C644 1.392 . S
C645 H657 0.929 . S
C646 C642 1.531 . S
C646 H658 0.960 . S
C646 H659 0.962 . S
C646 H660 0.960 . S
C647 C644 1.511 . S
C647 H661 0.961 . S
C647 H662 0.961 . S
C647 H663 0.961 . S
C648 C649 1.370 . S
C648 C650 1.363 . S
C648 H664 0.931 . S
C649 C648 1.370 . S
C649 C653 1.408 . S
C650 C648 1.363 . S
C650 C651 1.370 . S
C650 C654 1.524 . S
C651 C643 1.503 . S
C651 C650 1.370 . S
C651 C652 1.403 . S
C652 C651 1.403 . S
C652 C653 1.404 . S
C652 C655 1.539 . S
C653 C649 1.408 . S
C653 C652 1.404 . S
C653 H665 0.930 . S
C654 C650 1.524 . S
C654 H666 0.956 . S
C654 H667 0.961 . S
C654 H668 0.961 . S
C655 C652 1.539 . S
C655 H669 0.958 . S
C655 H670 0.961 . S
C655 H671 0.960 . S
H656 C640 0.931 . S
H657 C645 0.929 . S
H658 C646 0.960 . S
H659 C646 0.962 . S
H660 C646 0.960 . S
H661 C647 0.961 . S
H662 C647 0.961 . S
H663 C647 0.961 . S
H664 C648 0.931 . S
H665 C653 0.930 . S
H666 C654 0.956 . S
H667 C654 0.961 . S
H668 C654 0.961 . S
H669 C655 0.958 . S
H670 C655 0.961 . S
H671 C655 0.960 . S
C672 C673 1.391 . S
C672 C674 1.394 . S
C672 H688 0.931 . S
C673 C672 1.391 . S
C673 C677 1.376 . S
C674 C672 1.394 . S
C674 C675 1.369 . S
C674 C678 1.531 . S
C675 C674 1.369 . S
C675 C676 1.410 . S
C675 C683 1.503 . S
C676 C675 1.410 . S
C676 C677 1.392 . S
C676 C679 1.511 . S
C677 C673 1.376 . S
C677 C676 1.392 . S
C677 H689 0.929 . S
C678 C674 1.531 . S
C678 H690 0.960 . S
C678 H691 0.962 . S
C678 H692 0.960 . S
C679 C676 1.511 . S
C679 H693 0.961 . S
C679 H694 0.961 . S
C679 H695 0.961 . S
C680 C681 1.370 1_565 S
C680 C682 1.363 . S
C680 H696 0.931 . S
C681 C680 1.370 1_545 S
C681 C685 1.408 . S
C682 C680 1.363 . S
C682 C683 1.370 1_565 S
C682 C686 1.524 . S
C683 C675 1.503 . S
C683 C682 1.370 1_545 S
C683 C684 1.403 . S
C684 C683 1.403 . S
C684 C685 1.404 . S
C684 C687 1.539 . S
C685 C681 1.408 . S
C685 C684 1.404 . S
C685 H697 0.930 . S
C686 C682 1.524 . S
C686 H698 0.956 . S
C686 H699 0.961 . S
C686 H700 0.961 . S
C687 C684 1.539 . S
C687 H701 0.958 . S
C687 H702 0.961 . S
C687 H703 0.960 . S
H688 C672 0.931 . S
H689 C677 0.929 . S
H690 C678 0.960 . S
H691 C678 0.962 . S
H692 C678 0.960 . S
H693 C679 0.961 . S
H694 C679 0.961 . S
H695 C679 0.961 . S
H696 C680 0.931 . S
H697 C685 0.930 . S
H698 C686 0.956 . S
H699 C686 0.961 . S
H700 C686 0.961 . S
H701 C687 0.958 . S
H702 C687 0.961 . S
H703 C687 0.960 . S
C704 C705 1.391 . S
C704 C706 1.394 . S
C704 H720 0.931 . S
C705 C704 1.391 . S
C705 C709 1.376 . S
C706 C704 1.394 . S
C706 C707 1.369 . S
C706 C710 1.531 . S
C707 C706 1.369 . S
C707 C708 1.410 . S
C707 C715 1.503 1_556 S
C708 C707 1.410 . S
C708 C709 1.392 . S
C708 C711 1.511 . S
C709 C705 1.376 . S
C709 C708 1.392 . S
C709 H721 0.929 . S
C710 C706 1.531 . S
C710 H722 0.960 . S
C710 H723 0.962 . S
C710 H724 0.960 . S
C711 C708 1.511 . S
C711 H725 0.961 . S
C711 H726 0.961 . S
C711 H727 0.961 . S
C712 C713 1.370 . S
C712 C714 1.363 . S
C712 H728 0.931 . S
C713 C712 1.370 . S
C713 C717 1.408 . S
C714 C712 1.363 . S
C714 C715 1.370 . S
C714 C718 1.524 1_554 S
C715 C707 1.503 1_554 S
C715 C714 1.370 . S
C715 C716 1.403 . S
C716 C715 1.403 . S
C716 C717 1.404 . S
C716 C719 1.539 . S
C717 C713 1.408 . S
C717 C716 1.404 . S
C717 H729 0.930 . S
C718 C714 1.524 1_556 S
C718 H730 0.956 . S
C718 H731 0.961 . S
C718 H732 0.961 1_556 S
C719 C716 1.539 . S
C719 H733 0.958 . S
C719 H734 0.961 . S
C719 H735 0.960 1_554 S
H720 C704 0.931 . S
H721 C709 0.929 . S
H722 C710 0.960 . S
H723 C710 0.962 . S
H724 C710 0.960 . S
H725 C711 0.961 . S
H726 C711 0.961 . S
H727 C711 0.961 . S
H728 C712 0.931 . S
H729 C717 0.930 . S
H730 C718 0.956 . S
H731 C718 0.961 . S
H732 C718 0.961 1_554 S
H733 C719 0.958 . S
H734 C719 0.961 . S
H735 C719 0.960 1_556 S
C736 C737 1.391 1_655 S
C736 C738 1.394 . S
C736 H752 0.931 . S
C737 C736 1.391 1_455 S
C737 C741 1.376 . S
C738 C736 1.394 . S
C738 C739 1.369 1_655 S
C738 C742 1.531 . S
C739 C738 1.369 1_455 S
C739 C740 1.410 . S
C739 C747 1.503 . S
C740 C739 1.410 . S
C740 C741 1.392 . S
C740 C743 1.511 . S
C741 C737 1.376 . S
C741 C740 1.392 . S
C741 H753 0.929 . S
C742 C738 1.531 . S
C742 H754 0.960 . S
C742 H755 0.962 . S
C742 H756 0.960 . S
C743 C740 1.511 . S
C743 H757 0.961 . S
C743 H758 0.961 . S
C743 H759 0.961 . S
C744 C745 1.370 . S
C744 C746 1.363 . S
C744 H760 0.931 . S
C745 C744 1.370 . S
C745 C749 1.408 . S
C746 C744 1.363 . S
C746 C747 1.370 . S
C746 C750 1.524 . S
C747 C739 1.503 . S
C747 C746 1.370 . S
C747 C748 1.403 . S
C748 C747 1.403 . S
C748 C749 1.404 . S
C748 C751 1.539 1_455 S
C749 C745 1.408 . S
C749 C748 1.404 . S
C749 H761 0.930 1_455 S
C750 C746 1.524 . S
C750 H762 0.956 . S
C750 H763 0.961 . S
C750 H764 0.961 . S
C751 C748 1.539 1_655 S
C751 H765 0.958 . S
C751 H766 0.961 . S
C751 H767 0.960 1_655 S
H752 C736 0.931 . S
H753 C741 0.929 . S
H754 C742 0.960 . S
H755 C742 0.962 . S
H756 C742 0.960 . S
H757 C743 0.961 . S
H758 C743 0.961 . S
H759 C743 0.961 . S
H760 C744 0.931 . S
H761 C749 0.930 1_655 S
H762 C750 0.956 . S
H763 C750 0.961 . S
H764 C750 0.961 . S
H765 C751 0.958 . S
H766 C751 0.961 . S
H767 C751 0.960 1_455 S
C193 C24 3.231 . S
C201 C186 3.221 . S
C225 C66 1.213 . S
C233 C160 1.210 . S
C257 C93 1.852 . S
C265 C172 1.803 . S
C289 C13 2.838 . S
C297 C184 2.732 . S
C329 C162 1.101 . S
C321 C57 1.102 . S
C361 C174 1.820 . S
C353 C104 1.836 . S
C385 C64 1.979 . S
C393 C136 1.907 . S
C417 C97 0.737 . S
C425 C150 0.713 . S
C449 C17 1.151 . S
C457 C126 1.194 . S
C489 C138 1.705 . S
C481 C53 1.725 . S
C521 C148 0.288 . S
C513 C106 0.420 . S
C545 C26 1.192 . S
C553 C124 1.218 . S
C585 C153 1.208 . S
C577 C2 1.146 . S
C609 C63 1.502 . S
C617 C129 1.503 . S
C641 C82 1.463 . S
C649 C141 1.484 . S
C681 C177 1.454 . S
C673 C42 1.415 . S
C713 C189 1.810 . S
C705 C103 1.765 . S
C737 C23 1.532 . S
C745 C165 1.531 . S
