# Generated by pormake.
# Topology apo, (3,6)-cn, num edge types: 1
# Building blocks:
#     Node 0, Type 0, BuildingBlock: CUQRIR_clean_linker_1, # of connection points: 3
#     Node 1, Type 0, BuildingBlock: CUQRIR_clean_linker_1, # of connection points: 3
#     Node 2, Type 0, BuildingBlock: CUQRIR_clean_linker_1, # of connection points: 3
#     Node 3, Type 0, BuildingBlock: CUQRIR_clean_linker_1, # of connection points: 3
#     Node 4, Type 0, BuildingBlock: CUQRIR_clean_linker_1, # of connection points: 3
#     Node 5, Type 0, BuildingBlock: CUQRIR_clean_linker_1, # of connection points: 3
#     Node 6, Type 0, BuildingBlock: CUQRIR_clean_linker_1, # of connection points: 3
#     Node 7, Type 0, BuildingBlock: CUQRIR_clean_linker_1, # of connection points: 3
#     Node 8, Type 1, BuildingBlock: KUMBOL_clean_sbu_1, # of connection points: 6
#     Node 9, Type 1, BuildingBlock: KUMBOL_clean_sbu_1, # of connection points: 6
#     Node 10, Type 1, BuildingBlock: KUMBOL_clean_sbu_1, # of connection points: 6
#     Node 11, Type 1, BuildingBlock: KUMBOL_clean_sbu_1, # of connection points: 6
#     Edge 12, Type (0, 1), BuildingBlock: TEMPAE_clean_linker_10, # of connection points: 2
#     Edge 13, Type (0, 1), BuildingBlock: TEMPAE_clean_linker_10, # of connection points: 2
#     Edge 14, Type (0, 1), BuildingBlock: TEMPAE_clean_linker_10, # of connection points: 2
#     Edge 15, Type (0, 1), BuildingBlock: TEMPAE_clean_linker_10, # of connection points: 2
#     Edge 16, Type (0, 1), BuildingBlock: TEMPAE_clean_linker_10, # of connection points: 2
#     Edge 17, Type (0, 1), BuildingBlock: TEMPAE_clean_linker_10, # of connection points: 2
#     Edge 18, Type (0, 1), BuildingBlock: TEMPAE_clean_linker_10, # of connection points: 2
#     Edge 19, Type (0, 1), BuildingBlock: TEMPAE_clean_linker_10, # of connection points: 2
#     Edge 20, Type (0, 1), BuildingBlock: TEMPAE_clean_linker_10, # of connection points: 2
#     Edge 21, Type (0, 1), BuildingBlock: TEMPAE_clean_linker_10, # of connection points: 2
#     Edge 22, Type (0, 1), BuildingBlock: TEMPAE_clean_linker_10, # of connection points: 2
#     Edge 23, Type (0, 1), BuildingBlock: TEMPAE_clean_linker_10, # of connection points: 2
#     Edge 24, Type (0, 1), BuildingBlock: TEMPAE_clean_linker_10, # of connection points: 2
#     Edge 25, Type (0, 1), BuildingBlock: TEMPAE_clean_linker_10, # of connection points: 2
#     Edge 26, Type (0, 1), BuildingBlock: TEMPAE_clean_linker_10, # of connection points: 2
#     Edge 27, Type (0, 1), BuildingBlock: TEMPAE_clean_linker_10, # of connection points: 2
#     Edge 28, Type (0, 1), BuildingBlock: TEMPAE_clean_linker_10, # of connection points: 2
#     Edge 29, Type (0, 1), BuildingBlock: TEMPAE_clean_linker_10, # of connection points: 2
#     Edge 30, Type (0, 1), BuildingBlock: TEMPAE_clean_linker_10, # of connection points: 2
#     Edge 31, Type (0, 1), BuildingBlock: TEMPAE_clean_linker_10, # of connection points: 2
#     Edge 32, Type (0, 1), BuildingBlock: TEMPAE_clean_linker_10, # of connection points: 2
#     Edge 33, Type (0, 1), BuildingBlock: TEMPAE_clean_linker_10, # of connection points: 2
#     Edge 34, Type (0, 1), BuildingBlock: TEMPAE_clean_linker_10, # of connection points: 2
#     Edge 35, Type (0, 1), BuildingBlock: TEMPAE_clean_linker_10, # of connection points: 2
# Relax obj value: 0.045
# Max RMSD: 0.226
# Mean RMSD: 0.177
data_MOF--net-apo--node1-KUMBOL_clean_sbu_1--node2-CUQRIR_clean_linker_1--edge1-TEMPAE_clean_linker_10
_symmetry_space_group_name_H-M    P1
_symmetry_Int_Tables_number       1
_symmetry_cell_setting            triclinic
loop_
_symmetry_equiv_pos_as_xyz
'x, y, z'
_cell_length_a     26.210426
_cell_length_b     39.947049
_cell_length_c     47.973036
_cell_angle_alpha  90.057603
_cell_angle_beta   89.878103
_cell_angle_gamma 90.709277
loop_
_atom_site_label
_atom_site_type_symbol
_atom_site_fract_x
_atom_site_fract_y
_atom_site_fract_z
_atom_type_partial_charge
C0 C 0.26407 0.33272 0.42198 0.0
N1 N 0.29101 0.36183 0.42392 0.0
N2 N 0.24661 0.32818 0.39573 0.0
C3 C 0.25394 0.30897 0.44572 0.0
C4 C 0.26329 0.3556 0.38177 0.0
N5 N 0.28971 0.37636 0.39899 0.0
C6 C 0.25475 0.36175 0.35119 0.0
H7 H 0.28654 0.29167 0.44759 0.0
H8 H 0.21891 0.29376 0.44208 0.0
H9 H 0.25007 0.32285 0.46565 0.0
H10 H 0.22247 0.37918 0.34872 0.0
H11 H 0.24523 0.33828 0.33989 0.0
H12 H 0.28913 0.37354 0.34163 0.0
C13 C 0.23499 0.16831 0.92173 0.0
N14 N 0.20796 0.13936 0.92479 0.0
N15 N 0.25527 0.1703 0.89587 0.0
C16 C 0.24405 0.19389 0.94426 0.0
C17 C 0.24012 0.14165 0.88325 0.0
N18 N 0.21187 0.12259 0.90091 0.0
C19 C 0.2502 0.13326 0.85316 0.0
H20 H 0.21157 0.21143 0.94471 0.0
H21 H 0.27948 0.2086 0.94019 0.0
H22 H 0.24682 0.18167 0.96495 0.0
H23 H 0.26266 0.15564 0.84115 0.0
H24 H 0.21545 0.12229 0.84341 0.0
H25 H 0.28072 0.11431 0.85208 0.0
C26 C 0.75682 0.17294 0.61606 0.0
N27 N 0.78605 0.14556 0.61175 0.0
N28 N 0.75228 0.17945 0.64362 0.0
C29 C 0.73576 0.19493 0.59348 0.0
C30 C 0.77996 0.1554 0.65602 0.0
N31 N 0.80102 0.13506 0.63671 0.0
C32 C 0.78424 0.15064 0.68706 0.0
H33 H 0.76225 0.19621 0.57543 0.0
H34 H 0.72909 0.22065 0.60133 0.0
H35 H 0.69877 0.18429 0.58628 0.0
H36 H 0.75267 0.16303 0.69833 0.0
H37 H 0.82099 0.1617 0.6942 0.0
H38 H 0.78413 0.12363 0.69245 0.0
C39 C 0.74455 0.33228 0.11537 0.0
N40 N 0.71594 0.35991 0.11177 0.0
N41 N 0.7556 0.32809 0.14263 0.0
C42 C 0.76312 0.31017 0.09222 0.0
C43 C 0.73284 0.35398 0.15552 0.0
N44 N 0.70861 0.37329 0.13677 0.0
C45 C 0.73559 0.36103 0.18628 0.0
H46 H 0.77347 0.28507 0.10012 0.0
H47 H 0.79747 0.32194 0.08263 0.0
H48 H 0.73355 0.30757 0.0758 0.0
H49 H 0.76544 0.38044 0.19003 0.0
H50 H 0.74543 0.33823 0.19821 0.0
H51 H 0.69874 0.37093 0.19393 0.0
C52 C 0.73085 0.66857 0.61592 0.0
N53 N 0.70715 0.63875 0.61123 0.0
N54 N 0.74901 0.67013 0.64237 0.0
C55 C 0.73666 0.69599 0.59463 0.0
C56 C 0.73589 0.63998 0.65341 0.0
N57 N 0.7109 0.62086 0.63443 0.0
C58 C 0.74695 0.62925 0.68288 0.0
H59 H 0.77247 0.69209 0.58276 0.0
H60 H 0.73871 0.72091 0.60481 0.0
H61 H 0.70461 0.69572 0.57962 0.0
H62 H 0.71329 0.63466 0.69614 0.0
H63 H 0.78068 0.64276 0.6914 0.0
H64 H 0.75408 0.60203 0.68406 0.0
C65 C 0.75951 0.83629 0.11473 0.0
N66 N 0.78621 0.8653 0.11066 0.0
N67 N 0.7431 0.83395 0.14149 0.0
C68 C 0.74969 0.81011 0.0927 0.0
C69 C 0.76005 0.86267 0.15348 0.0
N70 N 0.78566 0.88188 0.13475 0.0
C71 C 0.75275 0.87187 0.18369 0.0
H72 H 0.74497 0.8219 0.07195 0.0
H73 H 0.71532 0.79476 0.0974 0.0
H74 H 0.78272 0.79305 0.09177 0.0
H75 H 0.73141 0.85243 0.19551 0.0
H76 H 0.73133 0.89557 0.18514 0.0
H77 H 0.79056 0.87625 0.19352 0.0
C78 C 0.25076 0.83328 0.42168 0.0
N79 N 0.22139 0.86092 0.42367 0.0
N80 N 0.26793 0.82939 0.39535 0.0
C81 C 0.26013 0.80896 0.44498 0.0
C82 C 0.2485 0.85552 0.38136 0.0
N83 N 0.21924 0.87451 0.39835 0.0
C84 C 0.2619 0.86375 0.35155 0.0
H85 H 0.29549 0.81659 0.45609 0.0
H86 H 0.26545 0.78327 0.43673 0.0
H87 H 0.22803 0.80885 0.4601 0.0
H88 H 0.23501 0.85049 0.33739 0.0
H89 H 0.30099 0.85517 0.34653 0.0
H90 H 0.25975 0.89107 0.34764 0.0
C91 C 0.26182 0.67594 0.91875 0.0
N92 N 0.28994 0.64794 0.92202 0.0
N93 N 0.24163 0.677 0.8929 0.0
C94 C 0.25301 0.70197 0.94087 0.0
C95 C 0.25784 0.64869 0.88053 0.0
N96 N 0.28664 0.63074 0.89832 0.0
C97 C 0.24682 0.63899 0.8508 0.0
H98 H 0.21682 0.71537 0.93721 0.0
H99 H 0.28476 0.72058 0.94028 0.0
H100 H 0.25198 0.69037 0.96188 0.0
H101 H 0.2818 0.62921 0.84073 0.0
H102 H 0.23233 0.66036 0.83853 0.0
H103 H 0.21758 0.61868 0.85062 0.0
C104 C 0.8398 0.06816 0.27502 0.0
C105 C 0.83629 0.01381 0.29723 0.0
C106 C 0.86026 0.04527 0.29334 0.0
C107 C 0.79356 0.00502 0.28103 0.0
C108 C 0.7954 0.06018 0.25974 0.0
C109 C 0.77317 0.02817 0.2623 0.0
N110 N 0.86277 0.0987 0.27273 0.0
C111 C 0.83991 0.12362 0.2581 0.0
C112 C 0.77402 0.08494 0.24293 0.0
C113 C 0.79582 0.11703 0.24257 0.0
Gd114 Gd 0.05704 0.1099 0.24062 0.0
Gd115 Gd 0.9392 0.1069 0.29771 0.0
N116 N 0.90188 0.05451 0.30849 0.0
C117 C 0.85509 0.99258 0.31786 0.0
C118 C 0.91756 0.0351 0.33013 0.0
C119 C 0.8951 0.00363 0.33483 0.0
H120 H 0.94771 0.04383 0.34375 0.0
H121 H 0.90849 0.98798 0.35161 0.0
H122 H 0.04123 0.18845 0.21916 0.0
H123 H 0.85518 0.14869 0.25862 0.0
H124 H 0.0878 0.24275 0.22085 0.0
H125 H 0.83778 0.9682 0.32153 0.0
H126 H 0.77519 0.98073 0.28338 0.0
H127 H 0.14548 0.05108 0.2521 0.0
H128 H 0.7398 0.07988 0.23093 0.0
H129 H 0.77845 0.13676 0.23056 0.0
H130 H 0.24689 0.21631 0.26459 0.0
H131 H 0.73944 0.02138 0.25045 0.0
H132 H 0.28237 0.10042 0.27952 0.0
H133 H 0.23434 0.04829 0.26884 0.0
N134 N 0.1421 0.10417 0.25515 0.0
C135 C 0.16894 0.13312 0.25901 0.0
C136 C 0.16567 0.07399 0.25736 0.0
C137 C 0.24314 0.10179 0.27259 0.0
C138 C 0.21617 0.07231 0.26657 0.0
C139 C 0.22006 0.13273 0.26812 0.0
H140 H 0.28636 0.16329 0.27837 0.0
N141 N 0.09845 0.16228 0.24121 0.0
C142 C 0.14668 0.16306 0.25148 0.0
C143 C 0.15275 0.22242 0.24218 0.0
C144 C 0.17485 0.19331 0.2527 0.0
C145 C 0.07815 0.18998 0.22903 0.0
C146 C 0.10456 0.22061 0.22981 0.0
O147 O 0.93354 0.0845 0.25426 0.0
O148 O 0.01125 0.06208 0.24361 0.0
O149 O 0.03535 0.1156 0.19723 0.0
O150 O 0.10872 0.09521 0.20737 0.0
O151 O 0.00596 0.07455 0.30978 0.0
O152 O 0.06289 0.06723 0.27214 0.0
O153 O 0.04682 0.15057 0.27255 0.0
O154 O 0.01789 0.12398 0.31191 0.0
O155 O 0.90789 0.10515 0.34013 0.0
O156 O 0.9026 0.15073 0.31514 0.0
O157 O 0.98098 0.13282 0.2305 0.0
O158 O 0.94892 0.15368 0.27173 0.0
C159 C 0.96126 0.06018 0.24407 0.0
C160 C 0.04539 0.06019 0.2975 0.0
C161 C 0.07262 0.07983 0.1641 0.0
C162 C 0.08155 0.069 0.11416 0.0
C163 C 0.0493 0.02549 0.14534 0.0
C164 C 0.05443 0.04708 0.16809 0.0
C165 C 0.06261 0.0363 0.11856 0.0
C166 C 0.08622 0.09069 0.13721 0.0
C167 C 0.07748 0.10324 0.18756 0.0
C168 C 0.22476 0.19327 0.26326 0.0
C169 C 0.24725 0.16306 0.2711 0.0
H170 H 0.17318 0.24616 0.24272 0.0
C171 C 0.04627 0.14702 0.29967 0.0
C172 C 0.9559 0.15564 0.24457 0.0
C173 C 0.86493 0.15272 0.36151 0.0
C174 C 0.84323 0.15913 0.41099 0.0
C175 C 0.80455 0.19489 0.37592 0.0
C176 C 0.83214 0.17905 0.35501 0.0
C177 C 0.80981 0.18501 0.4036 0.0
C178 C 0.87026 0.14261 0.38958 0.0
C179 C 0.89224 0.13578 0.33863 0.0
H180 H 0.03531 1.0002 0.14849 0.0
H181 H 0.04426 0.03828 0.18873 0.0
H182 H 0.05903 0.01883 0.10138 0.0
H183 H 0.1 0.11615 0.13424 0.0
H184 H 0.77878 0.21487 0.37065 0.0
H185 H 0.82715 0.18708 0.33363 0.0
H186 H 0.78717 0.19758 0.41926 0.0
H187 H 0.89601 0.12254 0.39475 0.0
C188 C 0.657 0.42699 0.78507 0.0
C189 C 0.65673 0.48515 0.7998 0.0
C190 C 0.6314 0.454 0.79665 0.0
C191 C 0.70751 0.48887 0.79081 0.0
C192 C 0.70821 0.43054 0.77638 0.0
C193 C 0.73318 0.46165 0.77917 0.0
N194 N 0.63168 0.39727 0.78217 0.0
C195 C 0.65609 0.36971 0.77231 0.0
C196 C 0.73292 0.40263 0.76528 0.0
C197 C 0.70683 0.37202 0.76344 0.0
Gd198 Gd 0.43828 0.39477 0.73779 0.0
Gd199 Gd 0.54758 0.39576 0.79864 0.0
N200 N 0.58186 0.44986 0.80475 0.0
C201 C 0.63019 0.5117 0.81186 0.0
C202 C 0.55666 0.47525 0.8176 0.0
C203 C 0.58007 0.50664 0.82097 0.0
H204 H 0.51916 0.47128 0.82605 0.0
H205 H 0.55963 0.52678 0.83093 0.0
H206 H 0.45281 0.3195 0.71013 0.0
H207 H 0.6372 0.34562 0.7721 0.0
H208 H 0.40395 0.26615 0.70579 0.0
H209 H 0.64823 0.53603 0.81455 0.0
H210 H 0.72738 0.51269 0.7929 0.0
H211 H 0.35161 0.45215 0.75906 0.0
H212 H 0.77231 0.40433 0.75847 0.0
H213 H 0.72597 0.3501 0.75553 0.0
H214 H 0.24688 0.28741 0.75418 0.0
H215 H 0.77246 0.46488 0.77251 0.0
H216 H 0.21705 0.39953 0.78504 0.0
H217 H 0.26603 0.45249 0.77997 0.0
N218 N 0.35484 0.399 0.75597 0.0
C219 C 0.32709 0.36999 0.75667 0.0
C220 C 0.33239 0.42859 0.76283 0.0
C221 C 0.25553 0.39907 0.77676 0.0
C222 C 0.28311 0.42899 0.77402 0.0
C223 C 0.27684 0.36919 0.76729 0.0
H224 H 0.21031 0.33786 0.77538 0.0
N225 N 0.39566 0.34316 0.73431 0.0
C226 C 0.34761 0.34143 0.74487 0.0
C227 C 0.33944 0.28413 0.72914 0.0
C228 C 0.31857 0.31157 0.74314 0.0
C229 C 0.41545 0.31709 0.71956 0.0
C230 C 0.38786 0.28703 0.71702 0.0
O231 O 0.56495 0.42055 0.75689 0.0
O232 O 0.48748 0.44081 0.74237 0.0
O233 O 0.45786 0.39011 0.69394 0.0
O234 O 0.38688 0.41293 0.70586 0.0
O235 O 0.47319 0.42081 0.8085 0.0
O236 O 0.43863 0.44013 0.76709 0.0
O237 O 0.44412 0.35095 0.76737 0.0
O238 O 0.46744 0.37743 0.80743 0.0
O239 O 0.56437 0.40387 0.84235 0.0
O240 O 0.57923 0.35559 0.82357 0.0
O241 O 0.51541 0.37184 0.72909 0.0
O242 O 0.54355 0.35001 0.77102 0.0
C243 C 0.53746 0.441 0.74177 0.0
C244 C 0.44435 0.44161 0.7945 0.0
C245 C 0.42171 0.42786 0.66204 0.0
C246 C 0.41302 0.43882 0.61216 0.0
C247 C 0.44416 0.48246 0.64354 0.0
C248 C 0.43931 0.46072 0.66621 0.0
C249 C 0.43126 0.47166 0.6167 0.0
C250 C 0.40863 0.41701 0.63511 0.0
C251 C 0.41641 0.4043 0.68534 0.0
C252 C 0.2695 0.31027 0.75491 0.0
C253 C 0.24875 0.33899 0.76705 0.0
H254 H 0.31823 0.26078 0.72725 0.0
C255 C 0.44532 0.35228 0.79463 0.0
C256 C 0.54113 0.34967 0.74357 0.0
C257 C 0.62948 0.37228 0.8627 0.0
C258 C 0.66964 0.37246 0.90853 0.0
C259 C 0.72109 0.36583 0.86672 0.0
C260 C 0.67742 0.36796 0.85023 0.0
C261 C 0.71726 0.36778 0.89572 0.0
C262 C 0.62586 0.37498 0.89187 0.0
C263 C 0.58264 0.37409 0.84597 0.0
H264 H 0.45769 0.50785 0.6468 0.0
H265 H 0.44924 0.46949 0.68689 0.0
H266 H 0.43463 0.48921 0.59959 0.0
H267 H 0.39534 0.39146 0.63203 0.0
H268 H 0.75797 0.36243 0.85701 0.0
H269 H 0.68119 0.36606 0.82788 0.0
H270 H 0.75152 0.36584 0.90819 0.0
H271 H 0.58891 0.37834 0.90164 0.0
C272 C 0.83121 0.85606 0.77994 0.0
C273 C 0.83898 0.79889 0.79612 0.0
C274 C 0.85921 0.83162 0.79341 0.0
C275 C 0.79075 0.79117 0.78496 0.0
C276 C 0.78274 0.84846 0.76879 0.0
C277 C 0.76271 0.81588 0.77135 0.0
N278 N 0.85171 0.88731 0.7775 0.0
C279 C 0.82491 0.91258 0.76559 0.0
C280 C 0.75568 0.87395 0.75558 0.0
C281 C 0.77673 0.90621 0.75416 0.0
Gd282 Gd 0.04703 0.8954 0.73986 0.0
Gd283 Gd 0.93196 0.89609 0.79746 0.0
N284 N 0.90541 0.84006 0.80452 0.0
C285 C 0.86723 0.77508 0.81058 0.0
C286 C 0.93099 0.81757 0.82055 0.0
C287 C 0.91312 0.78459 0.82316 0.0
H288 H 0.9644 0.82493 0.83214 0.0
H289 H 0.93421 0.76673 0.83539 0.0
H290 H 0.04336 0.97236 0.714 0.0
H291 H 0.8407 0.93765 0.7649 0.0
H292 H 0.09621 0.02428 0.71428 0.0
H293 H 0.85315 0.74962 0.81295 0.0
H294 H 0.77448 0.76624 0.78709 0.0
H295 H 0.12617 0.83423 0.76026 0.0
H296 H 0.71832 0.86908 0.74673 0.0
H297 H 0.75577 0.92621 0.74441 0.0
H298 H 0.2427 0.99529 0.76892 0.0
H299 H 0.72538 0.8096 0.76305 0.0
H300 H 0.26057 0.88002 0.79426 0.0
H301 H 0.20898 0.82922 0.78402 0.0
N302 N 0.12743 0.88746 0.76046 0.0
C303 C 0.15675 0.91543 0.76404 0.0
C304 C 0.14683 0.85666 0.76613 0.0
C305 C 0.22339 0.88243 0.7847 0.0
C306 C 0.19435 0.85369 0.77902 0.0
C307 C 0.20541 0.91373 0.77642 0.0
H308 H 0.27268 0.9422 0.78866 0.0
N309 N 0.09384 0.94576 0.74021 0.0
C310 C 0.13989 0.94541 0.75313 0.0
C311 C 0.15473 1.00316 0.74019 0.0
C312 C 0.17117 0.97433 0.75397 0.0
C313 C 0.07875 0.97315 0.72548 0.0
C314 C 0.10867 1.00239 0.72552 0.0
O315 O 0.91904 0.8774 0.75349 0.0
O316 O 0.99324 0.85076 0.74275 0.0
O317 O 0.03344 0.90034 0.69522 0.0
O318 O 0.09861 0.87326 0.70974 0.0
O319 O 0.00624 0.871 0.80941 0.0
O320 O 0.03763 0.85016 0.76786 0.0
O321 O 0.03958 0.93897 0.77038 0.0
O322 O 0.01068 0.91303 0.80978 0.0
O323 O 0.8987 0.88996 0.83889 0.0
O324 O 0.89844 0.93833 0.8189 0.0
O325 O 0.97423 0.9211 0.72839 0.0
O326 O 0.93729 0.94196 0.76891 0.0
C327 C 0.94323 0.85236 0.7421 0.0
C328 C 0.03466 0.84986 0.79524 0.0
C329 C 0.1081 0.90313 0.66763 0.0
C330 C 0.13238 0.91465 0.61929 0.0
C331 C 0.17672 0.94265 0.65739 0.0
C332 C 0.14657 0.92535 0.67662 0.0
C333 C 0.16969 0.93745 0.62893 0.0
C334 C 0.10138 0.89756 0.63887 0.0
C335 C 0.07549 0.88557 0.68819 0.0
C336 C 0.21841 0.9732 0.76767 0.0
C337 C 0.23543 0.94297 0.77895 0.0
H338 H 0.1778 0.02585 0.74023 0.0
C339 C 0.03558 0.93756 0.79768 0.0
C340 C 0.94749 0.94376 0.7418 0.0
C341 C 0.9066 0.93743 0.86845 0.0
C342 C 0.90603 0.93929 0.9198 0.0
C343 C 0.95038 0.98249 0.89293 0.0
C344 C 0.93656 0.96682 0.86811 0.0
C345 C 0.9351 0.96914 0.91845 0.0
C346 C 0.89163 0.92363 0.89443 0.0
C347 C 0.88981 0.92171 0.84187 0.0
H348 H 0.20619 0.95978 0.66458 0.0
H349 H 0.15388 0.92909 0.6985 0.0
H350 H 0.19459 0.95055 0.61444 0.0
H351 H 0.07231 0.88002 0.63177 0.0
H352 H 0.97261 0.00539 0.89245 0.0
H353 H 0.94898 0.97802 0.84865 0.0
H354 H 0.94552 0.98275 0.93715 0.0
H355 H 0.86914 0.90069 0.89477 0.0
C356 C 0.66058 0.65255 0.28212 0.0
C357 C 0.64679 0.70857 0.29979 0.0
C358 C 0.63026 0.67508 0.29639 0.0
C359 C 0.69352 0.71908 0.28814 0.0
C360 C 0.70799 0.66274 0.27092 0.0
C361 C 0.72421 0.69615 0.27394 0.0
N362 N 0.6435 0.62052 0.27915 0.0
C363 C 0.67303 0.59686 0.26678 0.0
C364 C 0.73782 0.63891 0.25725 0.0
C365 C 0.72044 0.60576 0.2554 0.0
Gd366 Gd 0.44933 0.60531 0.23993 0.0
Gd367 Gd 0.56327 0.60778 0.29794 0.0
N368 N 0.58552 0.66398 0.30771 0.0
C369 C 0.61648 0.73026 0.31541 0.0
C370 C 0.55826 0.6843 0.32496 0.0
C371 C 0.57245 0.71791 0.32844 0.0
H372 H 0.526 0.67469 0.33655 0.0
H373 H 0.54986 0.73412 0.34154 0.0
H374 H 0.45278 0.52732 0.21613 0.0
H375 H 0.65972 0.5712 0.2655 0.0
H376 H 0.40162 0.47479 0.21965 0.0
H377 H 0.62766 0.75623 0.31836 0.0
H378 H 0.70674 0.74474 0.29046 0.0
H379 H 0.36923 0.667 0.25979 0.0
H380 H 0.77453 0.64576 0.24837 0.0
H381 H 0.74356 0.58706 0.24524 0.0
H382 H 0.2585 0.50501 0.27685 0.0
H383 H 0.76066 0.70444 0.26559 0.0
H384 H 0.23918 0.62128 0.29878 0.0
H385 H 0.28831 0.67212 0.2855 0.0
N386 N 0.36944 0.61369 0.26144 0.0
C387 C 0.34114 0.58563 0.26662 0.0
C388 C 0.34956 0.64455 0.26662 0.0
C389 C 0.27548 0.61884 0.28816 0.0
C390 C 0.30311 0.64759 0.28074 0.0
C391 C 0.29362 0.58738 0.28035 0.0
H392 H 0.22853 0.55871 0.29559 0.0
N393 N 0.40298 0.55483 0.24229 0.0
C394 C 0.35791 0.55535 0.25622 0.0
C395 C 0.34434 0.49665 0.24613 0.0
C396 C 0.32786 0.52607 0.25908 0.0
C397 C 0.41788 0.52684 0.2282 0.0
C398 C 0.3891 0.4972 0.23019 0.0
O399 O 0.57711 0.62701 0.25414 0.0
O400 O 0.50174 0.65096 0.2408 0.0
O401 O 0.46004 0.59379 0.19623 0.0
O402 O 0.39779 0.62522 0.20859 0.0
O403 O 0.48723 0.63117 0.3083 0.0
O404 O 0.45717 0.65195 0.26659 0.0
O405 O 0.46042 0.56248 0.27058 0.0
O406 O 0.48437 0.59041 0.30979 0.0
O407 O 0.59472 0.61197 0.33995 0.0
O408 O 0.59385 0.56366 0.31828 0.0
O409 O 0.52448 0.58277 0.2285 0.0
O410 O 0.56209 0.56249 0.26881 0.0
C411 C 0.5519 0.65111 0.24205 0.0
C412 C 0.46111 0.65312 0.29391 0.0
C413 C 0.43359 0.63348 0.16376 0.0
C414 C 0.42631 0.64389 0.11391 0.0
C415 C 0.48133 0.67919 0.14249 0.0
C416 C 0.46797 0.66055 0.16607 0.0
C417 C 0.46086 0.67083 0.11648 0.0
C418 C 0.4125 0.62535 0.13766 0.0
C419 C 0.4224 0.61199 0.18784 0.0
C420 C 0.28185 0.52734 0.27407 0.0
C421 C 0.26484 0.55792 0.28478 0.0
H422 H 0.32228 0.47362 0.2478 0.0
C423 C 0.46199 0.5648 0.29784 0.0
C424 C 0.5525 0.5608 0.24171 0.0
C425 C 0.62878 0.56437 0.36547 0.0
C426 C 0.64656 0.56288 0.41555 0.0
C427 C 0.66897 0.51581 0.38601 0.0
C428 C 0.64971 0.53234 0.36279 0.0
C429 C 0.66709 0.5308 0.41224 0.0
C430 C 0.62802 0.57988 0.39197 0.0
C431 C 0.60493 0.58022 0.34095 0.0
H432 H 0.5079 0.7 0.14434 0.0
H433 H 0.4849 0.66694 0.18597 0.0
H434 H 0.47183 0.68543 0.09836 0.0
H435 H 0.38628 0.60426 0.13572 0.0
H436 H 0.68496 0.49111 0.38372 0.0
H437 H 0.65081 0.51987 0.34274 0.0
H438 H 0.68196 0.51738 0.43002 0.0
H439 H 0.6115 0.60445 0.39445 0.0
C440 C 0.15847 0.8964 0.36464 0.0
C441 C 0.18664 0.90109 0.3891 0.0
C442 C 0.13737 0.92338 0.35048 0.0
C443 C 0.13892 0.95562 0.36281 0.0
C444 C 0.16242 0.95986 0.38932 0.0
C445 C 0.18761 0.93269 0.40172 0.0
C446 C 0.115 0.91698 0.3219 0.0
C447 C 0.16259 0.99288 0.40458 0.0
C448 C 0.12318 0.03398 0.31829 0.0
C449 C 0.07055 0.03343 0.31352 0.0
C450 C 0.14638 0.00883 0.33424 0.0
C451 C 0.11545 0.98418 0.3477 0.0
C452 C 0.06187 0.98482 0.34397 0.0
C453 C 0.04089 0.00811 0.32568 0.0
C454 C 0.20382 0.00903 0.33641 0.0
C455 C 0.02554 0.96127 0.35895 0.0
H456 H 0.15601 0.87162 0.35549 0.0
H457 H 0.20909 0.93643 0.42076 0.0
H458 H 0.0736 0.91149 0.32396 0.0
H459 H 0.1202 0.93882 0.30786 0.0
H460 H 0.13268 0.8949 0.3118 0.0
H461 H 0.15649 0.98871 0.42725 0.0
H462 H 0.20061 0.00507 0.40219 0.0
H463 H 0.13296 0.01017 0.39692 0.0
H464 H 0.14623 0.05413 0.3098 0.0
H465 H 0.00106 0.00613 0.32066 0.0
H466 H 0.21923 0.98342 0.33861 0.0
H467 H 0.2154 0.02395 0.3549 0.0
H468 H 0.22169 0.02096 0.31784 0.0
H469 H 0.00567 0.94502 0.34352 0.0
H470 H 0.99564 0.97608 0.36957 0.0
H471 H 0.04411 0.94542 0.37482 0.0
C472 C 0.36396 0.60009 0.88592 0.0
C473 C 0.31156 0.60001 0.89142 0.0
C474 C 0.38639 0.57331 0.87153 0.0
C475 C 0.35533 0.54613 0.86239 0.0
C476 C 0.30289 0.54518 0.86949 0.0
C477 C 0.28174 0.57214 0.88402 0.0
C478 C 0.44263 0.57497 0.86478 0.0
C479 C 0.26843 0.51672 0.86024 0.0
C480 C 0.39921 0.49681 0.79879 0.0
C481 C 0.4184 0.46782 0.81116 0.0
C482 C 0.378 0.52238 0.8152 0.0
C483 C 0.37712 0.51918 0.84466 0.0
C484 C 0.39631 0.48997 0.85719 0.0
C485 C 0.41594 0.46453 0.84033 0.0
C486 C 0.35696 0.55297 0.80106 0.0
C487 C 0.39682 0.48576 0.88849 0.0
H488 H 0.38655 0.62207 0.89128 0.0
H489 H 0.24107 0.57259 0.8881 0.0
H490 H 0.46126 0.55115 0.87047 0.0
H491 H 0.44787 0.5785 0.84201 0.0
H492 H 0.46231 0.59591 0.8758 0.0
H493 H 0.22934 0.51873 0.86904 0.0
H494 H 0.26573 0.51662 0.83716 0.0
H495 H 0.28451 0.49235 0.86659 0.0
H496 H 0.40153 0.49981 0.77638 0.0
H497 H 0.43044 0.4422 0.85021 0.0
H498 H 0.37893 0.57554 0.80763 0.0
H499 H 0.31672 0.55671 0.80748 0.0
H500 H 0.35856 0.55105 0.77797 0.0
H501 H 0.4189 0.50657 0.8982 0.0
H502 H 0.41388 0.46168 0.89498 0.0
H503 H 0.35739 0.48689 0.89684 0.0
C504 C 0.63115 0.59156 0.64586 0.0
C505 C 0.68352 0.59034 0.64051 0.0
C506 C 0.60582 0.56484 0.6592 0.0
C507 C 0.63382 0.53635 0.66736 0.0
C508 C 0.68602 0.53404 0.65993 0.0
C509 C 0.71023 0.56113 0.64646 0.0
C510 C 0.55013 0.56832 0.66655 0.0
C511 C 0.7173 0.5042 0.6682 0.0
C512 C 0.58871 0.4927 0.73346 0.0
C513 C 0.56345 0.46453 0.72282 0.0
C514 C 0.61257 0.51592 0.71563 0.0
C515 C 0.61016 0.51103 0.68636 0.0
C516 C 0.58439 0.48248 0.67553 0.0
C517 C 0.5615 0.45943 0.69398 0.0
C518 C 0.63973 0.54592 0.72812 0.0
C519 C 0.58071 0.47646 0.64454 0.0
H520 H 0.61095 0.61444 0.64138 0.0
H521 H 0.75089 0.56057 0.64235 0.0
H522 H 0.52883 0.54486 0.66184 0.0
H523 H 0.54635 0.57307 0.68926 0.0
H524 H 0.53218 0.58929 0.65515 0.0
H525 H 0.75523 0.50426 0.65782 0.0
H526 H 0.72325 0.50449 0.6911 0.0
H527 H 0.69689 0.48053 0.66297 0.0
H528 H 0.58871 0.49699 0.7557 0.0
H529 H 0.54183 0.43746 0.68589 0.0
H530 H 0.62125 0.56927 0.72108 0.0
H531 H 0.67993 0.54692 0.72086 0.0
H532 H 0.63947 0.54541 0.75128 0.0
H533 H 0.5623 0.49806 0.6343 0.0
H534 H 0.5585 0.45337 0.6395 0.0
H535 H 0.61951 0.47428 0.63549 0.0
C536 C 0.8662 0.91178 0.14419 0.0
C537 C 0.81312 0.91226 0.14147 0.0
C538 C 0.89235 0.93777 0.15817 0.0
C539 C 0.86451 0.96467 0.16976 0.0
C540 C 0.81121 0.96629 0.16524 0.0
C541 C 0.78625 0.9401 0.15102 0.0
C542 C 0.9492 0.93518 0.16226 0.0
C543 C 0.77993 0.99434 0.17727 0.0
C544 C 0.91689 0.00582 0.23556 0.0
C545 C 0.93671 0.03593 0.22517 0.0
C546 C 0.893 0.98254 0.21775 0.0
C547 C 0.89005 0.9893 0.18875 0.0
C548 C 0.91067 0.01972 0.17821 0.0
C549 C 0.93326 0.04288 0.19666 0.0
C550 C 0.87073 0.95076 0.23 0.0
C551 C 0.90885 0.02779 0.14751 0.0
H552 H 0.88665 0.88995 0.13707 0.0
H553 H 0.74509 0.94015 0.14892 0.0
H554 H 0.96826 0.95949 0.15775 0.0
H555 H 0.95724 0.92888 0.18433 0.0
H556 H 0.96614 0.91561 0.14875 0.0
H557 H 0.73998 0.99372 0.16958 0.0
H558 H 0.77922 0.9923 0.20034 0.0
H559 H 0.79736 0.01898 0.17203 0.0
H560 H 0.92015 1.00051 0.25763 0.0
H561 H 0.94859 0.06639 0.1888 0.0
H562 H 0.88907 0.92867 0.22039 0.0
H563 H 0.82934 0.94902 0.2253 0.0
H564 H 0.87578 0.94948 0.25296 0.0
H565 H 0.92849 0.05187 0.14254 0.0
H566 H 0.8686 0.02923 0.14056 0.0
H567 H 0.92706 0.00754 0.13532 0.0
C568 C 0.87661 0.10717 0.65446 0.0
C569 C 0.82765 0.10487 0.64306 0.0
C570 C 0.89759 0.08018 0.66901 0.0
C571 C 0.8683 0.05044 0.67261 0.0
C572 C 0.81983 0.04743 0.65973 0.0
C573 C 0.80016 0.07475 0.64499 0.0
C574 C 0.94976 0.08425 0.68194 0.0
C575 C 0.78737 0.01621 0.66307 0.0
C576 C 0.93555 0.97167 0.69567 0.0
C577 C 0.92608 0.97116 0.72457 0.0
C578 C 0.917 0.9972 0.67862 0.0
C579 C 0.88772 0.02297 0.69055 0.0
C580 C 0.87754 0.02267 0.71962 0.0
C581 C 0.89699 0.99681 0.73633 0.0
C582 C 0.9291 0.99669 0.64781 0.0
C583 C 0.84625 0.04976 0.73306 0.0
H584 H 0.89702 0.1309 0.65342 0.0
H585 H 0.76169 0.07359 0.63676 0.0
H586 H 0.94603 0.08518 0.70496 0.0
H587 H 0.97394 0.06249 0.67676 0.0
H588 H 0.96955 0.10748 0.67483 0.0
H589 H 0.75249 0.01683 0.64997 0.0
H590 H 0.80953 0.99369 0.6575 0.0
H591 H 0.77565 0.01353 0.68521 0.0
H592 H 0.95794 0.95211 0.68613 0.0
H593 H 0.88947 0.99675 0.75855 0.0
H594 H 0.94996 0.01996 0.64188 0.0
H595 H 0.89324 0.9959 0.63558 0.0
H596 H 0.95261 0.97489 0.64179 0.0
H597 H 0.86504 0.0745 0.72982 0.0
H598 H 0.84104 0.0457 0.7558 0.0
H599 H 0.80812 0.0508 0.72311 0.0
C600 C 0.71236 0.43247 0.14899 0.0
C601 C 0.68315 0.40384 0.14312 0.0
C602 C 0.69111 0.45954 0.16335 0.0
C603 C 0.63956 0.45756 0.17214 0.0
C604 C 0.60911 0.4294 0.16468 0.0
C605 C 0.63146 0.40276 0.15022 0.0
C606 C 0.72469 0.48925 0.17063 0.0
C607 C 0.55394 0.42644 0.17353 0.0
C608 C 0.60117 0.50728 0.2364 0.0
C609 C 0.57652 0.5346 0.22436 0.0
C610 C 0.62199 0.48198 0.21961 0.0
C611 C 0.61817 0.48422 0.19018 0.0
C612 C 0.5939 0.51191 0.17796 0.0
C613 C 0.57342 0.53669 0.19515 0.0
C614 C 0.64764 0.45267 0.23334 0.0
C615 C 0.58933 0.5153 0.1467 0.0
H616 H 0.75268 0.4326 0.14392 0.0
H617 H 0.60965 0.38007 0.14613 0.0
H618 H 0.70569 0.51294 0.16495 0.0
H619 H 0.73125 0.48981 0.19347 0.0
H620 H 0.76229 0.48835 0.15994 0.0
H621 H 0.53441 0.40451 0.16385 0.0
H622 H 0.55177 0.42378 0.19653 0.0
H623 H 0.53298 0.44941 0.16789 0.0
H624 H 0.60365 0.50544 0.25889 0.0
H625 H 0.55481 0.55777 0.18549 0.0
H626 H 0.68767 0.4509 0.22596 0.0
H627 H 0.62785 0.42902 0.22738 0.0
H628 H 0.64771 0.45472 0.25644 0.0
H629 H 0.6278 0.51537 0.137 0.0
H630 H 0.56954 0.53856 0.1405 0.0
H631 H 0.56794 0.49353 0.13806 0.0
C632 C 0.28692 0.43242 0.37814 0.0
C633 C 0.31489 0.40713 0.39098 0.0
C634 C 0.31154 0.45966 0.36521 0.0
C635 C 0.3655 0.46175 0.36543 0.0
C636 C 0.39377 0.43732 0.38 0.0
C637 C 0.36801 0.41017 0.39259 0.0
C638 C 0.27992 0.48504 0.34988 0.0
C639 C 0.4513 0.43881 0.38091 0.0
C640 C 0.42837 0.50646 0.30425 0.0
C641 C 0.43876 0.53821 0.31541 0.0
C642 C 0.40471 0.48137 0.32032 0.0
C643 C 0.3922 0.48792 0.34854 0.0
C644 C 0.4039 0.51966 0.36019 0.0
C645 C 0.42689 0.54448 0.34345 0.0
C646 C 0.39242 0.448 0.30695 0.0
C647 C 0.39149 0.52754 0.39021 0.0
H648 H 0.24574 0.42998 0.37721 0.0
H649 H 0.38943 0.39039 0.40241 0.0
H650 H 0.29144 0.51086 0.35592 0.0
H651 H 0.28661 0.48257 0.32714 0.0
H652 H 0.23844 0.48168 0.35397 0.0
H653 H 0.46719 0.42021 0.39563 0.0
H654 H 0.46682 0.43374 0.3598 0.0
H655 H 0.46472 0.46418 0.38712 0.0
H656 H 0.43896 0.50113 0.28292 0.0
H657 H 0.43501 0.56896 0.35228 0.0
H658 H 0.3505 0.44375 0.30693 0.0
H659 H 0.40962 0.42744 0.31913 0.0
H660 H 0.40644 0.4465 0.28512 0.0
H661 H 0.34965 0.5258 0.39356 0.0
H662 H 0.40485 0.55297 0.39641 0.0
H663 H 0.40933 0.5089 0.40415 0.0
C664 C 0.2113 0.06479 0.88363 0.0
C665 C 0.1845 0.09255 0.89333 0.0
C666 C 0.18588 0.03818 0.87024 0.0
C667 C 0.13237 0.03958 0.86643 0.0
C668 C 0.10491 0.06692 0.87754 0.0
C669 C 0.13141 0.09306 0.891 0.0
C670 C 0.21668 0.00963 0.85866 0.0
C671 C 0.04811 0.06982 0.87352 0.0
C672 C 0.07721 0.99396 0.80355 0.0
C673 C 0.05929 0.96398 0.81534 0.0
C674 C 0.10116 0.01868 0.8199 0.0
C675 C 0.10596 0.01378 0.84901 0.0
C676 C 0.08637 0.98406 0.86126 0.0
C677 C 0.06374 0.95939 0.84426 0.0
C678 C 0.1221 0.04981 0.8059 0.0
C679 C 0.08972 0.9782 0.89228 0.0
H680 H 0.25251 0.06481 0.88538 0.0
H681 H 0.11113 0.11496 0.89813 0.0
H682 H 0.20006 0.98527 0.86538 0.0
H683 H 0.2155 0.01021 0.83554 0.0
H684 H 0.2572 0.01094 0.86537 0.0
H685 H 0.03133 0.089 0.88747 0.0
H686 H 0.04017 0.07693 0.85162 0.0
H687 H 0.02884 0.04549 0.8774 0.0
H688 H 0.07233 0.99824 0.7815 0.0
H689 H 0.04962 0.93643 0.85369 0.0
H690 H 0.1643 0.05042 0.80774 0.0
H691 H 0.10752 0.07256 0.81633 0.0
H692 H 0.11198 0.05092 0.78345 0.0
H693 H 0.1303 0.97606 0.89848 0.0
H694 H 0.06897 0.95509 0.89883 0.0
H695 H 0.07372 0.9998 0.90378 0.0
C696 C 0.19641 0.09657 0.96122 0.0
C697 C 0.18342 0.12756 0.9499 0.0
C698 C 0.17792 0.08664 0.9875 0.0
C699 C 0.14584 0.10835 1.00277 0.0
C700 C 0.1313 0.13924 0.99091 0.0
C701 C 0.14998 0.14832 0.9645 0.0
C702 C 0.19411 0.05343 0.99932 0.0
C703 C 0.0974 0.16319 1.00648 0.0
C704 C 0.06728 0.07167 0.06242 0.0
C705 C 0.09711 0.08015 0.08571 0.0
C706 C 0.08244 0.08091 0.03536 0.0
C707 C 0.12857 0.09912 0.03142 0.0
C708 C 0.1585 0.10823 0.05486 0.0
C709 C 0.14243 0.09864 0.08169 0.0
C710 C 0.04932 0.07095 1.01094 0.0
C711 C 0.20787 0.12773 0.05155 0.0
H712 H 0.22265 0.08074 0.94995 0.0
H713 H 0.13952 0.1721 0.95545 0.0
H714 H 0.21758 0.05767 0.01825 0.0
H715 H 0.16013 0.03845 1.00569 0.0
H716 H 0.21666 0.03863 0.98415 0.0
H717 H 0.08806 0.18561 0.99388 0.0
H718 H 0.06132 0.15042 1.01269 0.0
H719 H 0.11664 0.1716 0.02589 0.0
H720 H 0.03183 0.05786 0.06537 0.0
H721 H 0.16599 0.10501 0.09951 0.0
H722 H 0.07114 0.05481 0.99647 0.0
H723 H 0.03807 0.09352 0.9991 0.0
H724 H 0.01421 0.05722 1.01753 0.0
H725 H 0.23515 0.1131 0.03887 0.0
H726 H 0.22594 0.13373 0.07192 0.0
H727 H 0.20095 0.15148 0.04028 0.0
C728 C 0.34889 0.35554 0.4638 0.0
C729 C 0.31479 0.37515 0.44868 0.0
C730 C 0.36718 0.36602 0.48989 0.0
C731 C 0.35137 0.3971 0.50096 0.0
C732 C 0.31858 0.41767 0.48513 0.0
C733 C 0.30062 0.40638 0.45912 0.0
C734 C 0.40195 0.34328 0.50603 0.0
C735 C 0.30098 0.451 0.49613 0.0
C736 C 0.35308 0.40846 0.57973 0.0
C737 C 0.39781 0.42756 0.58369 0.0
C738 C 0.33764 0.39831 0.55296 0.0
C739 C 0.36761 0.40748 0.5295 0.0
C740 C 0.41302 0.42646 0.53336 0.0
C741 C 0.42757 0.43626 0.56037 0.0
C742 C 0.28902 0.37799 0.54975 0.0
C743 C 0.44621 0.43646 0.50891 0.0
H744 H 0.36014 0.33155 0.4554 0.0
H745 H 0.27394 0.42132 0.4474 0.0
H746 H 0.43722 0.35699 0.51219 0.0
H747 H 0.38266 0.33495 0.52547 0.0
H748 H 0.41274 0.32076 0.49386 0.0
H749 H 0.27832 0.46494 0.48052 0.0
H750 H 0.27716 0.44704 0.51501 0.0
H751 H 0.33428 0.46669 0.50236 0.0
H752 H 0.32953 0.40194 0.59756 0.0
H753 H 0.46257 0.45056 0.56327 0.0
H754 H 0.29713 0.35399 0.53905 0.0
H755 H 0.26163 0.39176 0.53657 0.0
H756 H 0.27055 0.37239 0.57011 0.0
H757 H 0.45886 0.41381 0.49755 0.0
H758 H 0.48047 0.45111 0.51541 0.0
H759 H 0.42393 0.45168 0.49404 0.0
C760 C 0.73578 0.38664 0.06725 0.0
C761 C 0.69952 0.37302 0.08551 0.0
C762 C 0.72461 0.39094 0.03892 0.0
C763 C 0.67606 0.38099 0.02868 0.0
C764 C 0.638 0.36962 0.04759 0.0
C765 C 0.65031 0.36575 0.07591 0.0
C766 C 0.76624 0.40336 0.0196 0.0
C767 C 0.58584 0.35873 0.0376 0.0
C768 C 0.64824 0.40245 0.95289 0.0
C769 C 0.66603 0.37377 0.9393 0.0
C770 C 0.64959 0.40493 0.98215 0.0
C771 C 0.66828 0.37782 0.99802 0.0
C772 C 0.68374 0.34818 0.98429 0.0
C773 C 0.68294 0.34668 0.9551 0.0
C774 C 0.63327 0.43701 0.99598 0.0
C775 C 0.70293 0.3184 1.0004 0.0
H776 H 0.77398 0.39175 0.0749 0.0
H777 H 0.62278 0.35472 0.09019 0.0
H778 H 0.78014 0.38223 1.00673 0.0
H779 H 0.75134 0.42258 1.00518 0.0
H780 H 0.79916 0.41421 0.0312 0.0
H781 H 0.55838 0.35581 0.05514 0.0
H782 H 0.57044 0.377 0.02249 0.0
H783 H 0.58881 0.33432 0.0267 0.0
H784 H 0.63522 0.4234 0.94056 0.0
H785 H 0.69616 0.3244 0.9445 0.0
H786 H 0.6671 0.44982 1.00515 0.0
H787 H 0.60627 0.43164 1.01329 0.0
H788 H 0.61494 0.45437 0.98107 0.0
H789 H 0.73945 0.32507 1.01079 0.0
H790 H 0.70933 0.29633 0.98678 0.0
H791 H 0.67526 0.31123 1.01695 0.0
C792 C 0.76394 0.12694 0.56448 0.0
C793 C 0.80107 0.13241 0.58497 0.0
C794 C 0.77729 0.12478 0.53621 0.0
C795 C 0.82937 0.12684 0.52833 0.0
C796 C 0.86734 0.1279 0.54935 0.0
C797 C 0.8527 0.13115 0.57751 0.0
C798 C 0.73528 0.12405 0.51472 0.0
C799 C 0.92331 0.12852 0.54202 0.0
C800 C 0.84961 0.11655 0.44994 0.0
C801 C 0.84874 0.15006 0.44107 0.0
C802 C 0.84713 0.10839 0.47854 0.0
C803 C 0.84267 0.13428 0.49862 0.0
C804 C 0.84509 0.16809 0.48979 0.0
C805 C 0.84889 0.17547 0.4613 0.0
C806 C 0.84669 0.07206 0.4871 0.0
C807 C 0.84029 0.19666 0.51028 0.0
H808 H 0.72406 0.12728 0.57046 0.0
H809 H 0.88147 0.13524 0.59337 0.0
H810 H 0.73444 0.14848 0.50372 0.0
H811 H 0.74245 0.10445 0.49888 0.0
H812 H 0.69717 0.11935 0.52422 0.0
H813 H 0.94724 0.12145 0.56013 0.0
H814 H 0.93128 0.11128 0.52443 0.0
H815 H 0.93475 0.15414 0.53541 0.0
H816 H 0.84985 0.09667 0.43456 0.0
H817 H 0.85001 0.20144 0.45476 0.0
H818 H 0.80695 0.06386 0.49162 0.0
H819 H 0.86939 0.06841 0.50634 0.0
H820 H 0.86203 0.05575 0.47038 0.0
H821 H 0.80232 0.19542 0.52055 0.0
H822 H 0.84463 0.22152 0.50012 0.0
H823 H 0.86953 0.19467 0.52683 0.0
C824 C 0.79674 0.90835 0.07407 0.0
C825 C 0.80865 0.8768 0.08476 0.0
C826 C 0.81344 0.91822 0.04735 0.0
C827 C 0.84186 0.8957 0.03072 0.0
C828 C 0.85487 0.86407 0.04176 0.0
C829 C 0.83902 0.85535 0.06882 0.0
C830 C 0.79995 0.95254 0.03676 0.0
C831 C 0.88435 0.83904 0.02471 0.0
C832 C 0.84258 0.91018 0.95193 0.0
C833 C 0.89049 0.9256 0.94775 0.0
C834 C 0.82665 0.8997 0.97867 0.0
C835 C 0.85879 0.9054 1.00199 0.0
C836 C 0.90738 0.9204 0.99788 0.0
C837 C 0.92292 0.92966 0.9709 0.0
C838 C 0.77509 0.88291 0.98203 0.0
C839 C 0.94267 0.92735 0.02212 0.0
H840 H 0.77306 0.92488 0.08631 0.0
H841 H 0.84929 0.83128 0.07734 0.0
H842 H 0.83498 0.96617 0.02999 0.0
H843 H 0.77474 0.95015 0.0183 0.0
H844 H 0.78021 0.96774 0.05281 0.0
H845 H 0.89046 0.81525 0.03614 0.0
H846 H 0.86349 0.83334 1.00513 0.0
H847 H 0.92206 0.84972 0.01875 0.0
H848 H 0.81687 0.90701 0.93446 0.0
H849 H 0.96066 0.94049 0.96806 0.0
H850 H 0.7501 0.8987 0.99514 0.0
H851 H 0.77919 0.85858 0.99289 0.0
H852 H 0.75593 0.87845 0.96171 0.0
H853 H 0.92329 0.94342 0.03767 0.0
H854 H 0.9787 0.94001 1.01555 0.0
H855 H 0.95231 0.90363 0.03275 0.0
C856 C 0.71996 0.60317 0.57032 0.0
C857 C 0.69011 0.62622 0.5847 0.0
C858 C 0.70832 0.59405 0.54276 0.0
C859 C 0.66541 0.60818 0.52943 0.0
C860 C 0.634 0.63059 0.5444 0.0
C861 C 0.64686 0.6394 0.57192 0.0
C862 C 0.74291 0.57012 0.52764 0.0
C863 C 0.58767 0.6459 0.53112 0.0
C864 C 0.67092 0.60748 0.45005 0.0
C865 C 0.6445 0.57769 0.44392 0.0
C866 C 0.67634 0.61853 0.47778 0.0
C867 C 0.65413 0.59954 0.49976 0.0
C868 C 0.6247 0.57059 0.49339 0.0
C869 C 0.62064 0.55987 0.46559 0.0
C870 C 0.70827 0.64942 0.48369 0.0
C871 C 0.59959 0.54998 0.51607 0.0
H872 H 0.75355 0.59333 0.58041 0.0
H873 H 0.62405 0.65729 0.5833 0.0
H874 H 0.72056 0.54831 0.51983 0.0
H875 H 0.76023 0.58276 0.50926 0.0
H876 H 0.77405 0.56086 0.54117 0.0
H877 H 0.56562 0.6613 0.54609 0.0
H878 H 0.59964 0.662 0.51339 0.0
H879 H 0.56224 0.62598 0.52263 0.0
H880 H 0.68962 0.62115 0.43331 0.0
H881 H 0.59992 0.53692 0.46081 0.0
H882 H 0.74358 0.64219 0.49477 0.0
H883 H 0.6873 0.66678 0.49752 0.0
H884 H 0.71922 0.66296 0.46432 0.0
H885 H 0.6293 0.53752 0.52866 0.0
H886 H 0.57347 0.53044 0.50751 0.0
H887 H 0.57767 0.56628 0.53036 0.0
C888 C 0.35216 0.66199 0.95833 0.0
C889 C 0.31777 0.63889 0.94668 0.0
C890 C 0.37072 0.65787 0.98545 0.0
C891 C 0.35544 0.62941 1.00112 0.0
C892 C 0.32384 0.60458 0.98857 0.0
C893 C 0.30503 0.60976 0.96144 0.0
C894 C 0.40398 0.68512 0.99795 0.0
C895 C 0.30759 0.57356 1.00432 0.0
C896 C 0.43509 0.61906 0.06648 0.0
C897 C 0.40502 0.63541 0.08629 0.0
C898 C 0.41774 0.61455 0.03901 0.0
C899 C 0.36977 0.62743 0.03115 0.0
C900 C 0.33832 0.64256 0.05158 0.0
C901 C 0.35629 0.6462 0.079 0.0
C902 C 0.4519 0.59763 0.01808 0.0
C903 C 0.28711 0.65689 0.0441 0.0
H904 H 0.36217 0.68432 0.94664 0.0
H905 H 0.27817 0.59204 0.95237 0.0
H906 H 0.38359 0.69705 1.01559 0.0
H907 H 0.43958 0.67439 1.00637 0.0
H908 H 0.4143 0.70484 0.98255 0.0
H909 H 0.28983 0.5545 0.99039 0.0
H910 H 0.34072 0.56228 1.01499 0.0
H911 H 0.27944 0.58034 0.0206 0.0
H912 H 0.47276 0.61065 0.07232 0.0
H913 H 0.33326 0.65888 0.09447 0.0
H914 H 0.46804 0.61661 1.00357 0.0
H915 H 0.42978 0.57929 1.00543 0.0
H916 H 0.48398 0.58451 0.02828 0.0
H917 H 0.29274 0.67876 0.03012 0.0
H918 H 0.26548 0.6651 0.06278 0.0
H919 H 0.26375 0.63812 0.03261 0.0
C920 C 0.23399 0.88146 0.47115 0.0
C921 C 0.20075 0.87417 0.44915 0.0
C922 C 0.2155 0.88881 0.49783 0.0
C923 C 0.16216 0.88928 0.50259 0.0
C924 C 0.12822 0.8834 0.48005 0.0
C925 C 0.14802 0.87574 0.45349 0.0
C926 C 0.2532 0.89482 0.52114 0.0
C927 C 0.0712 0.88396 0.48426 0.0
C928 C 0.13045 0.87479 0.57889 0.0
C929 C 0.12882 0.90774 0.58889 0.0
C930 C 0.13758 0.86824 0.55034 0.0
C931 C 0.14291 0.89531 0.53141 0.0
C932 C 0.13721 0.9285 0.54117 0.0
C933 C 0.13034 0.93431 0.56979 0.0
C934 C 0.14342 0.83247 0.54081 0.0
C935 C 0.14225 0.95805 0.52173 0.0
H936 H 0.27475 0.88013 0.46755 0.0
H937 H 0.12252 0.8697 0.43641 0.0
H938 H 0.24615 0.91938 0.53115 0.0
H939 H 0.24822 0.87529 0.53738 0.0
H940 H 0.29339 0.89442 0.51374 0.0
H941 H 0.05018 0.88225 0.46421 0.0
H942 H 0.05931 0.86258 0.49761 0.0
H943 H 0.05994 0.90721 0.4952 0.0
H944 H 0.12952 0.85418 0.59358 0.0
H945 H 0.12837 0.95982 0.57741 0.0
H946 H 0.18391 0.82798 0.53531 0.0
H947 H 0.12032 0.82763 0.52186 0.0
H948 H 0.1318 0.81426 0.55721 0.0
H949 H 0.18275 0.96118 0.51535 0.0
H950 H 0.12966 0.98167 0.53169 0.0
H951 H 0.11957 0.95377 0.50253 0.0
C952 C 0.16559 0.29747 0.39026 0.0
C953 C 0.21788 0.30029 0.3849 0.0
C954 C 0.13647 0.27132 0.37854 0.0
C955 C 0.16048 0.24765 0.36099 0.0
C956 C 0.21373 0.25016 0.35607 0.0
C957 C 0.24182 0.27654 0.36814 0.0
C958 C 0.07982 0.26965 0.38416 0.0
C959 C 0.24065 0.22588 0.33712 0.0
C960 C 0.09242 0.16556 0.34294 0.0
C961 C 0.07275 0.17288 0.31655 0.0
C962 C 0.12074 0.18978 0.35787 0.0
C963 C 0.12934 0.2219 0.34608 0.0
C964 C 0.10851 0.22951 0.3197 0.0
C965 C 0.08016 0.20503 0.30544 0.0
C966 C 0.14225 0.18088 0.38601 0.0
C967 C 0.11691 0.26332 0.30623 0.0
H968 H 0.14756 0.31617 0.40323 0.0
H969 H 0.28238 0.27916 0.36411 0.0
H970 H 0.05866 0.27412 0.36453 0.0
H971 H 0.06869 0.24433 0.39169 0.0
H972 H 0.06773 0.28846 0.39983 0.0
H973 H 0.28279 0.22902 0.3379 0.0
H974 H 0.23055 0.19969 0.34271 0.0
H975 H 0.22798 0.23 0.31539 0.0
H976 H 0.08674 0.14073 0.35158 0.0
H977 H 0.0637 0.21114 0.28545 0.0
H978 H 0.12898 0.19896 0.40195 0.0
H979 H 0.18452 0.18266 0.38537 0.0
H980 H 0.13099 0.15519 0.39265 0.0
H981 H 0.1051 0.28359 0.32058 0.0
H982 H 0.09547 0.26586 0.2864 0.0
H983 H 0.15812 0.26712 0.30175 0.0
C984 C 0.25892 0.22581 0.87432 0.0
C985 C 0.28399 0.1974 0.88387 0.0
C986 C 0.28603 0.25153 0.86071 0.0
C987 C 0.33949 0.24878 0.85716 0.0
C988 C 0.365 0.22027 0.86744 0.0
C989 C 0.33668 0.19468 0.88048 0.0
C990 C 0.25734 0.28109 0.84938 0.0
C991 C 0.42189 0.21643 0.86403 0.0
C992 C 0.40261 0.29615 0.79775 0.0
C993 C 0.42029 0.3253 0.81104 0.0
C994 C 0.37584 0.27124 0.81242 0.0
C995 C 0.36833 0.27489 0.84146 0.0
C996 C 0.38818 0.30349 0.85536 0.0
C997 C 0.41348 0.32857 0.83992 0.0
C998 C 0.35435 0.24155 0.7966 0.0
C999 C 0.38242 0.30764 0.88648 0.0
H1000 H 0.21792 0.22732 0.87692 0.0
H1001 H 0.35541 0.17235 0.88787 0.0
H1002 H 0.27342 0.30475 0.85795 0.0
H1003 H 0.26178 0.28218 0.82638 0.0
H1004 H 0.21599 0.27977 0.85446 0.0
H1005 H 0.4363 0.19393 0.87492 0.0
H1006 H 0.43154 0.21435 0.84157 0.0
H1007 H 0.44218 0.2389 0.87223 0.0
H1008 H 0.40955 0.29274 0.77575 0.0
H1009 H 0.42764 0.35079 0.85049 0.0
H1010 H 0.31231 0.24394 0.79507 0.0
H1011 H 0.36217 0.21778 0.80761 0.0
H1012 H 0.37021 0.23984 0.77516 0.0
H1013 H 0.3414 0.309 0.89204 0.0
H1014 H 0.40212 0.33055 0.89432 0.0
H1015 H 0.39818 0.28556 0.89737 0.0
C1016 C 0.66922 0.20457 0.6534 0.0
C1017 C 0.72217 0.20471 0.65683 0.0
C1018 C 0.63893 0.22813 0.66718 0.0
C1019 C 0.6625 0.2526 0.68442 0.0
C1020 C 0.71626 0.2531 0.68751 0.0
C1021 C 0.74547 0.22889 0.67379 0.0
C1022 C 0.58172 0.22651 0.66367 0.0
C1023 C 0.74284 0.27907 0.70539 0.0
C1024 C 0.58792 0.33107 0.70102 0.0
C1025 C 0.57104 0.32449 0.72823 0.0
C1026 C 0.61806 0.30799 0.68658 0.0
C1027 C 0.63084 0.27739 0.69951 0.0
C1028 C 0.61331 0.27044 0.72686 0.0
C1029 C 0.58384 0.29418 0.74097 0.0
C1030 C 0.63669 0.3165 0.6576 0.0
C1031 C 0.62563 0.2379 0.7412 0.0
H1032 H 0.65164 0.18552 0.64036 0.0
H1033 H 0.78657 0.22873 0.6762 0.0
H1034 H 0.56317 0.22249 0.68423 0.0
H1035 H 0.56769 0.2506 0.65537 0.0
H1036 H 0.56947 0.20605 0.64938 0.0
H1037 H 0.78501 0.27673 0.70476 0.0
H1038 H 0.73264 0.30458 0.69834 0.0
H1039 H 0.72993 0.27659 0.72734 0.0
H1040 H 0.57849 0.35461 0.69118 0.0
H1041 H 0.57059 0.28895 0.76196 0.0
H1042 H 0.62251 0.29751 0.64252 0.0
H1043 H 0.67899 0.31597 0.65695 0.0
H1044 H 0.624 0.34158 0.65067 0.0
H1045 H 0.61142 0.21648 0.72855 0.0
H1046 H 0.6085 0.23617 0.76237 0.0
H1047 H 0.66757 0.23529 0.74307 0.0
C1048 C 0.83751 0.31058 0.16163 0.0
C1049 C 0.78674 0.30314 0.15512 0.0
C1050 C 0.86758 0.28718 0.17557 0.0
C1051 C 0.84574 0.25594 0.18333 0.0
C1052 C 0.7943 0.24836 0.1765 0.0
C1053 C 0.76537 0.27218 0.16234 0.0
C1054 C 0.92233 0.29602 0.18235 0.0
C1055 C 0.76962 0.21542 0.18463 0.0
C1056 C 0.93063 0.18247 0.19969 0.0
C1057 C 0.93042 0.18261 0.22894 0.0
C1058 C 0.90406 0.20663 0.18456 0.0
C1059 C 0.87633 0.23135 0.19903 0.0
C1060 C 0.87678 0.2321 0.22851 0.0
C1061 C 0.90421 0.20789 0.24313 0.0
C1062 C 0.90485 0.20531 0.15309 0.0
C1063 C 0.84729 0.25801 0.24464 0.0
H1064 H 0.85323 0.33488 0.15601 0.0
H1065 H 0.72573 0.26705 0.15732 0.0
H1066 H 0.92768 0.29644 0.20528 0.0
H1067 H 0.94812 0.2767 0.17382 0.0
H1068 H 0.934 0.3208 0.17382 0.0
H1069 H 0.7295 0.21332 0.17735 0.0
H1070 H 0.79152 0.19433 0.17577 0.0
H1071 H 0.77012 0.21263 0.20764 0.0
H1072 H 0.95096 0.16317 0.1885 0.0
H1073 H 0.9041 0.20833 0.26572 0.0
H1074 H 0.91803 0.22973 0.14454 0.0
H1075 H 0.86568 0.20066 0.14513 0.0
H1076 H 0.93011 0.18537 0.14502 0.0
H1077 H 0.85974 0.28354 0.23833 0.0
H1078 H 0.85228 0.25547 0.26753 0.0
H1079 H 0.80604 0.25561 0.23975 0.0
C1080 C 0.75826 0.70864 0.68219 0.0
C1081 C 0.7749 0.69764 0.65603 0.0
C1082 C 0.78515 0.73356 0.69683 0.0
C1083 C 0.82814 0.74927 0.68432 0.0
C1084 C 0.84385 0.73924 0.65732 0.0
C1085 C 0.81767 0.71302 0.64376 0.0
C1086 C 0.76803 0.74259 0.72585 0.0
C1087 C 0.88846 0.75606 0.64285 0.0
C1088 C 0.86976 0.83424 0.71266 0.0
C1089 C 0.91373 0.82603 0.72757 0.0
C1090 C 0.8417 0.80957 0.6983 0.0
C1091 C 0.85719 0.77576 0.69963 0.0
C1092 C 0.90077 0.76727 0.71545 0.0
C1093 C 0.92906 0.79264 0.72886 0.0
C1094 C 0.79602 0.81981 0.68135 0.0
C1095 C 0.91723 0.73137 0.71843 0.0
H1096 H 0.72455 0.69722 0.69141 0.0
H1097 H 0.83087 0.70429 0.62365 0.0
H1098 H 0.80073 0.74138 0.74044 0.0
H1099 H 0.75387 0.76858 0.726 0.0
H1100 H 0.7371 0.72575 0.73362 0.0
H1101 H 0.89325 0.74714 0.62107 0.0
H1102 H 0.88322 0.78359 0.64257 0.0
H1103 H 0.92412 0.75112 0.65446 0.0
H1104 H 0.85792 0.86013 0.71175 0.0
H1105 H 0.9626 0.78628 0.74085 0.0
H1106 H 0.76092 0.8079 0.68988 0.0
H1107 H 0.80028 0.81103 0.65951 0.0
H1108 H 0.7908 0.84736 0.68125 0.0
H1109 H 0.88505 0.71582 0.72647 0.0
H1110 H 0.95021 0.7288 0.73275 0.0
H1111 H 0.92796 0.72114 0.69777 0.0
C1112 C 0.74098 0.78898 0.17644 0.0
C1113 C 0.71715 0.80631 0.15485 0.0
C1114 C 0.7152 0.76335 0.19094 0.0
C1115 C 0.66468 0.7544 0.18323 0.0
C1116 C 0.64099 0.77136 0.16087 0.0
C1117 C 0.6673 0.79748 0.14722 0.0
C1118 C 0.7414 0.74679 0.21514 0.0
C1119 C 0.58793 0.76185 0.15134 0.0
C1120 C 0.61409 0.66879 0.20565 0.0
C1121 C 0.58063 0.67737 0.22717 0.0
C1122 C 0.64127 0.69364 0.19092 0.0
C1123 C 0.6363 0.72767 0.19875 0.0
C1124 C 0.60368 0.73619 0.22122 0.0
C1125 C 0.57533 0.71093 0.23479 0.0
C1126 C 0.6748 0.68352 0.16681 0.0
C1127 C 0.59902 0.77192 0.23106 0.0
H1128 H 0.77952 0.79612 0.18229 0.0
H1129 H 0.64893 0.81126 0.13067 0.0
H1130 H 0.7221 0.7542 0.23475 0.0
H1131 H 0.7385 0.71915 0.21342 0.0
H1132 H 0.78233 0.75411 0.21663 0.0
H1133 H 0.57534 0.777 0.13327 0.0
H1134 H 0.58681 0.73502 0.14536 0.0
H1135 H 0.5603 0.76516 0.16865 0.0
H1136 H 0.61807 0.64267 0.19995 0.0
H1137 H 0.54993 0.71728 0.25182 0.0
H1138 H 0.71493 0.6911 0.17094 0.0
H1139 H 0.66269 0.69662 0.14759 0.0
H1140 H 0.67341 0.6561 0.16293 0.0
H1141 H 0.63731 0.78226 0.23631 0.0
H1142 H 0.57399 0.7741 0.24968 0.0
H1143 H 0.58329 0.7876 0.21414 0.0
C1144 C 0.27061 0.7827 0.36248 0.0
C1145 C 0.29425 0.8016 0.38344 0.0
C1146 C 0.29703 0.75753 0.34847 0.0
C1147 C 0.34844 0.75144 0.35558 0.0
C1148 C 0.3721 0.77 0.3773 0.0
C1149 C 0.34443 0.7949 0.39113 0.0
C1150 C 0.2703 0.73795 0.32572 0.0
C1151 C 0.42695 0.76422 0.3853 0.0
C1152 C 0.40666 0.6691 0.33393 0.0
C1153 C 0.43201 0.67823 0.30933 0.0
C1154 C 0.37884 0.69265 0.34911 0.0
C1155 C 0.37771 0.72621 0.33977 0.0
C1156 C 0.40374 0.73556 0.315 0.0
C1157 C 0.43014 0.71125 0.29982 0.0
C1158 C 0.35037 0.68158 0.37497 0.0
C1159 C 0.40392 0.77125 0.30465 0.0
H1160 H 0.23155 0.78814 0.35685 0.0
H1161 H 0.36231 0.80992 0.4073 0.0
H1162 H 0.28997 0.74219 0.30551 0.0
H1163 H 0.27194 0.71074 0.33022 0.0
H1164 H 0.22969 0.74509 0.32345 0.0
H1165 H 0.43921 0.78017 0.40311 0.0
H1166 H 0.4324 0.73759 0.39098 0.0
H1167 H 0.45222 0.76964 0.36723 0.0
H1168 H 0.40787 0.64334 0.34101 0.0
H1169 H 0.45024 0.71815 0.28086 0.0
H1170 H 0.30916 0.68697 0.37272 0.0
H1171 H 0.36439 0.69586 0.39332 0.0
H1172 H 0.35469 0.65442 0.37917 0.0
H1173 H 0.36433 0.77918 0.30026 0.0
H1174 H 0.42711 0.77451 0.28541 0.0
H1175 H 0.41936 0.78821 0.321 0.0
C1176 C 0.23605 0.72705 0.86378 0.0
C1177 C 0.21221 0.7031 0.8807 0.0
C1178 C 0.20746 0.75178 0.85048 0.0
C1179 C 0.15384 0.75224 0.85427 0.0
C1180 C 0.12983 0.72819 0.87177 0.0
C1181 C 0.1595 0.70379 0.88481 0.0
C1182 C 0.23441 0.77686 0.8319 0.0
C1183 C 0.07281 0.72787 0.87629 0.0
C1184 C 0.08258 0.83182 0.83736 0.0
C1185 C 0.06388 0.82461 0.81067 0.0
C1186 C 0.11216 0.80852 0.8518 0.0
C1187 C 0.12267 0.77723 0.8393 0.0
C1188 C 0.1033 0.76972 0.81245 0.0
C1189 C 0.07408 0.79354 0.79846 0.0
C1190 C 0.1326 0.81749 0.88027 0.0
C1191 C 0.11358 0.73658 0.79849 0.0
H1192 H 0.27699 0.72598 0.86074 0.0
H1193 H 0.14168 0.6849 0.89793 0.0
H1194 H 0.22218 0.77298 0.81 0.0
H1195 H 0.22392 0.80273 0.83784 0.0
H1196 H 0.27658 0.77463 0.83288 0.0
H1197 H 0.06036 0.7081 0.89118 0.0
H1198 H 0.06039 0.75251 0.88435 0.0
H1199 H 0.05304 0.72363 0.85614 0.0
H1200 H 0.07493 0.85597 0.84672 0.0
H1201 H 0.0592 0.78787 0.77789 0.0
H1202 H 0.17488 0.81648 0.88014 0.0
H1203 H 0.11877 0.79901 0.89588 0.0
H1204 H 0.12098 0.84289 0.88705 0.0
H1205 H 0.15529 0.73312 0.79608 0.0
H1206 H 0.09553 0.73463 0.77761 0.0
H1207 H 0.09895 0.71576 0.81168 0.0
loop_
_geom_bond_atom_site_label_1
_geom_bond_atom_site_label_2
_geom_bond_distance
_geom_bond_site_symmetry_2
_ccdc_geom_bond_type
C0 N1 1.317 . S
C0 N2 1.348 . S
C0 C3 1.485 . S
N1 C0 1.317 . S
N1 N5 1.370 . S
N2 C0 1.348 . S
N2 C4 1.346 . S
C3 C0 1.485 . S
C3 H7 0.960 . S
C3 H8 0.961 . S
C3 H9 0.960 . S
C4 N2 1.346 . S
C4 N5 1.307 . S
C4 C6 1.486 . S
N5 N1 1.370 . S
N5 C4 1.307 . S
C6 C4 1.486 . S
C6 H10 0.960 . S
C6 H11 0.960 . S
C6 H12 0.959 . S
H7 C3 0.960 . S
H8 C3 0.961 . S
H9 C3 0.960 . S
H10 C6 0.960 . S
H11 C6 0.960 . S
H12 C6 0.959 . S
C13 N14 1.317 . S
C13 N15 1.348 . S
C13 C16 1.485 . S
N14 C13 1.317 . S
N14 N18 1.370 . S
N15 C13 1.348 . S
N15 C17 1.346 . S
C16 C13 1.485 . S
C16 H20 0.960 . S
C16 H21 0.961 . S
C16 H22 0.960 . S
C17 N15 1.346 . S
C17 N18 1.307 . S
C17 C19 1.486 . S
N18 N14 1.370 . S
N18 C17 1.307 . S
C19 C17 1.486 . S
C19 H23 0.960 . S
C19 H24 0.960 . S
C19 H25 0.959 . S
H20 C16 0.960 . S
H21 C16 0.961 . S
H22 C16 0.960 . S
H23 C19 0.960 . S
H24 C19 0.960 . S
H25 C19 0.959 . S
C26 N27 1.317 . S
C26 N28 1.348 . S
C26 C29 1.485 . S
N27 C26 1.317 . S
N27 N31 1.370 . S
N28 C26 1.348 . S
N28 C30 1.346 . S
C29 C26 1.485 . S
C29 H33 0.960 . S
C29 H34 0.961 . S
C29 H35 0.960 . S
C30 N28 1.346 . S
C30 N31 1.307 . S
C30 C32 1.486 . S
N31 N27 1.370 . S
N31 C30 1.307 . S
C32 C30 1.486 . S
C32 H36 0.960 . S
C32 H37 0.960 . S
C32 H38 0.959 . S
H33 C29 0.960 . S
H34 C29 0.961 . S
H35 C29 0.960 . S
H36 C32 0.960 . S
H37 C32 0.960 . S
H38 C32 0.959 . S
C39 N40 1.317 . S
C39 N41 1.348 . S
C39 C42 1.485 . S
N40 C39 1.317 . S
N40 N44 1.370 . S
N41 C39 1.348 . S
N41 C43 1.346 . S
C42 C39 1.485 . S
C42 H46 0.960 . S
C42 H47 0.961 . S
C42 H48 0.960 . S
C43 N41 1.346 . S
C43 N44 1.307 . S
C43 C45 1.486 . S
N44 N40 1.370 . S
N44 C43 1.307 . S
C45 C43 1.486 . S
C45 H49 0.960 . S
C45 H50 0.960 . S
C45 H51 0.959 . S
H46 C42 0.960 . S
H47 C42 0.961 . S
H48 C42 0.960 . S
H49 C45 0.960 . S
H50 C45 0.960 . S
H51 C45 0.959 . S
C52 N53 1.317 . S
C52 N54 1.348 . S
C52 C55 1.485 . S
N53 C52 1.317 . S
N53 N57 1.370 . S
N54 C52 1.348 . S
N54 C56 1.346 . S
C55 C52 1.485 . S
C55 H59 0.960 . S
C55 H60 0.961 . S
C55 H61 0.960 . S
C56 N54 1.346 . S
C56 N57 1.307 . S
C56 C58 1.486 . S
N57 N53 1.370 . S
N57 C56 1.307 . S
C58 C56 1.486 . S
C58 H62 0.960 . S
C58 H63 0.960 . S
C58 H64 0.959 . S
H59 C55 0.960 . S
H60 C55 0.961 . S
H61 C55 0.960 . S
H62 C58 0.960 . S
H63 C58 0.960 . S
H64 C58 0.959 . S
C65 N66 1.317 . S
C65 N67 1.348 . S
C65 C68 1.485 . S
N66 C65 1.317 . S
N66 N70 1.370 . S
N67 C65 1.348 . S
N67 C69 1.346 . S
C68 C65 1.485 . S
C68 H72 0.960 . S
C68 H73 0.961 . S
C68 H74 0.960 . S
C69 N67 1.346 . S
C69 N70 1.307 . S
C69 C71 1.486 . S
N70 N66 1.370 . S
N70 C69 1.307 . S
C71 C69 1.486 . S
C71 H75 0.960 . S
C71 H76 0.960 . S
C71 H77 0.959 . S
H72 C68 0.960 . S
H73 C68 0.961 . S
H74 C68 0.960 . S
H75 C71 0.960 . S
H76 C71 0.960 . S
H77 C71 0.959 . S
C78 N79 1.317 . S
C78 N80 1.348 . S
C78 C81 1.485 . S
N79 C78 1.317 . S
N79 N83 1.370 . S
N80 C78 1.348 . S
N80 C82 1.346 . S
C81 C78 1.485 . S
C81 H85 0.960 . S
C81 H86 0.961 . S
C81 H87 0.960 . S
C82 N80 1.346 . S
C82 N83 1.307 . S
C82 C84 1.486 . S
N83 N79 1.370 . S
N83 C82 1.307 . S
C84 C82 1.486 . S
C84 H88 0.960 . S
C84 H89 0.960 . S
C84 H90 0.959 . S
H85 C81 0.960 . S
H86 C81 0.961 . S
H87 C81 0.960 . S
H88 C84 0.960 . S
H89 C84 0.960 . S
H90 C84 0.959 . S
C91 N92 1.317 . S
C91 N93 1.348 . S
C91 C94 1.485 . S
N92 C91 1.317 . S
N92 N96 1.370 . S
N93 C91 1.348 . S
N93 C95 1.346 . S
C94 C91 1.485 . S
C94 H98 0.960 . S
C94 H99 0.961 . S
C94 H100 0.960 . S
C95 N93 1.346 . S
C95 N96 1.307 . S
C95 C97 1.486 . S
N96 N92 1.370 . S
N96 C95 1.307 . S
C97 C95 1.486 . S
C97 H101 0.960 . S
C97 H102 0.960 . S
C97 H103 0.959 . S
H98 C94 0.960 . S
H99 C94 0.961 . S
H100 C94 0.960 . S
H101 C97 0.960 . S
H102 C97 0.960 . S
H103 C97 0.959 . S
C104 C106 1.422 . S
C104 C108 1.415 . S
C104 N110 1.369 . S
C105 C106 1.421 . S
C105 C107 1.417 . S
C105 C117 1.422 1_545 S
C106 C104 1.422 . S
C106 C105 1.421 . S
C106 N116 1.359 . S
C107 C105 1.417 . S
C107 C109 1.329 . S
C107 H126 0.930 1_545 S
C108 C104 1.415 . S
C108 C109 1.437 . S
C108 C112 1.413 . S
C109 C107 1.329 . S
C109 C108 1.437 . S
C109 H131 0.929 . S
N110 C104 1.369 . S
N110 C111 1.338 . S
N110 Gd115 2.622 . S
C111 N110 1.338 . S
C111 C113 1.378 . S
C111 H123 0.929 . S
C112 C108 1.413 . S
C112 C113 1.348 . S
C112 H128 0.931 . S
C113 C111 1.378 . S
C113 C112 1.348 . S
C113 H129 0.930 . S
Gd114 N134 2.622 . S
Gd114 N141 2.570 . S
Gd114 O148 2.353 1_455 S
Gd114 O149 2.468 . S
Gd114 O150 2.427 . S
Gd114 O152 2.388 . S
Gd114 O153 2.386 . S
Gd114 O157 2.307 1_455 S
Gd114 C167 2.805 . S
Gd115 N110 2.622 . S
Gd115 N116 2.570 . S
Gd115 O147 2.386 . S
Gd115 O151 2.307 1_655 S
Gd115 O154 2.353 1_655 S
Gd115 O155 2.468 . S
Gd115 O156 2.427 . S
Gd115 O158 2.388 . S
Gd115 C179 2.805 . S
N116 C106 1.359 . S
N116 Gd115 2.570 . S
N116 C118 1.343 . S
C117 C105 1.422 1_565 S
C117 C119 1.321 . S
C117 H125 0.931 . S
C118 N116 1.343 . S
C118 C119 1.390 1_545 S
C118 H120 0.931 . S
C119 C117 1.321 . S
C119 C118 1.390 1_565 S
C119 H121 0.930 . S
H120 C118 0.931 . S
H121 C119 0.930 . S
H122 C145 0.931 . S
H123 C111 0.929 . S
H124 C146 0.930 . S
H125 C117 0.931 . S
H126 C107 0.930 1_565 S
H127 C136 0.929 . S
H128 C112 0.931 . S
H129 C113 0.930 . S
H130 C168 0.930 . S
H131 C109 0.929 . S
H132 C137 0.931 . S
H133 C138 0.930 . S
N134 Gd114 2.622 . S
N134 C135 1.369 . S
N134 C136 1.338 . S
C135 N134 1.369 . S
C135 C139 1.415 . S
C135 C142 1.422 . S
C136 H127 0.929 . S
C136 N134 1.338 . S
C136 C138 1.378 . S
C137 H132 0.931 . S
C137 C138 1.348 . S
C137 C139 1.413 . S
C138 H133 0.930 . S
C138 C136 1.378 . S
C138 C137 1.348 . S
C139 C135 1.415 . S
C139 C137 1.413 . S
C139 C169 1.437 . S
H140 C169 0.929 . S
N141 Gd114 2.570 . S
N141 C142 1.359 . S
N141 C145 1.343 . S
C142 C135 1.422 . S
C142 N141 1.359 . S
C142 C144 1.421 . S
C143 C144 1.422 . S
C143 C146 1.321 . S
C143 H170 0.931 . S
C144 C142 1.421 . S
C144 C143 1.422 . S
C144 C168 1.417 . S
C145 H122 0.931 . S
C145 N141 1.343 . S
C145 C146 1.390 . S
C146 H124 0.930 . S
C146 C143 1.321 . S
C146 C145 1.390 . S
O147 Gd115 2.386 . S
O147 C159 1.265 . S
O148 Gd114 2.353 1_655 S
O148 C159 1.242 . S
O149 Gd114 2.468 . S
O149 C167 1.263 . S
O150 Gd114 2.427 . S
O150 C167 1.252 . S
O151 Gd115 2.307 1_455 S
O151 C160 1.261 . S
O152 Gd114 2.388 . S
O152 C160 1.252 . S
O153 Gd114 2.386 . S
O153 C171 1.265 . S
O154 Gd115 2.353 1_455 S
O154 C171 1.242 . S
O155 Gd115 2.468 . S
O155 C179 1.263 . S
O156 Gd115 2.427 . S
O156 C179 1.252 . S
O157 Gd114 2.307 1_655 S
O157 C172 1.261 . S
O158 Gd115 2.388 . S
O158 C172 1.252 . S
C159 O147 1.265 . S
C159 O148 1.242 . S
C160 O151 1.261 . S
C160 O152 1.252 . S
C161 C164 1.394 . S
C161 C166 1.370 . S
C161 C167 1.500 . S
C162 C165 1.383 . S
C162 C166 1.395 . S
C163 C164 1.396 . S
C163 C165 1.365 . S
C163 H180 0.929 . S
C164 C161 1.394 . S
C164 C163 1.396 . S
C164 H181 0.930 . S
C165 C162 1.383 . S
C165 C163 1.365 . S
C165 H182 0.931 . S
C166 C161 1.370 . S
C166 C162 1.395 . S
C166 H183 0.930 . S
C167 Gd114 2.805 . S
C167 O149 1.263 . S
C167 O150 1.252 . S
C167 C161 1.500 . S
C168 H130 0.930 . S
C168 C144 1.417 . S
C168 C169 1.329 . S
C169 C139 1.437 . S
C169 H140 0.929 . S
C169 C168 1.329 . S
H170 C143 0.931 . S
C171 O153 1.265 . S
C171 O154 1.242 . S
C172 O157 1.261 . S
C172 O158 1.252 . S
C173 C176 1.394 . S
C173 C178 1.370 . S
C173 C179 1.500 . S
C174 C177 1.383 . S
C174 C178 1.395 . S
C175 C176 1.396 . S
C175 C177 1.365 . S
C175 H184 0.929 . S
C176 C173 1.394 . S
C176 C175 1.396 . S
C176 H185 0.930 . S
C177 C174 1.383 . S
C177 C175 1.365 . S
C177 H186 0.931 . S
C178 C173 1.370 . S
C178 C174 1.395 . S
C178 H187 0.930 . S
C179 Gd115 2.805 . S
C179 O155 1.263 . S
C179 O156 1.252 . S
C179 C173 1.500 . S
H180 C163 0.929 . S
H181 C164 0.930 . S
H182 C165 0.931 . S
H183 C166 0.930 . S
H184 C175 0.929 . S
H185 C176 0.930 . S
H186 C177 0.931 . S
H187 C178 0.930 . S
C188 C190 1.422 . S
C188 C192 1.415 . S
C188 N194 1.369 . S
C189 C190 1.421 . S
C189 C191 1.417 . S
C189 C201 1.422 . S
C190 C188 1.422 . S
C190 C189 1.421 . S
C190 N200 1.359 . S
C191 C189 1.417 . S
C191 C193 1.329 . S
C191 H210 0.930 . S
C192 C188 1.415 . S
C192 C193 1.437 . S
C192 C196 1.413 . S
C193 C191 1.329 . S
C193 C192 1.437 . S
C193 H215 0.929 . S
N194 C188 1.369 . S
N194 C195 1.338 . S
N194 Gd199 2.622 . S
C195 N194 1.338 . S
C195 C197 1.378 . S
C195 H207 0.929 . S
C196 C192 1.413 . S
C196 C197 1.348 . S
C196 H212 0.931 . S
C197 C195 1.378 . S
C197 C196 1.348 . S
C197 H213 0.930 . S
Gd198 N218 2.622 . S
Gd198 N225 2.570 . S
Gd198 O232 2.353 . S
Gd198 O233 2.468 . S
Gd198 O234 2.427 . S
Gd198 O236 2.388 . S
Gd198 O237 2.386 . S
Gd198 O241 2.307 . S
Gd198 C251 2.805 . S
Gd199 N194 2.622 . S
Gd199 N200 2.570 . S
Gd199 O231 2.386 . S
Gd199 O235 2.307 . S
Gd199 O238 2.353 . S
Gd199 O239 2.468 . S
Gd199 O240 2.427 . S
Gd199 O242 2.388 . S
Gd199 C263 2.805 . S
N200 C190 1.359 . S
N200 Gd199 2.570 . S
N200 C202 1.343 . S
C201 C189 1.422 . S
C201 C203 1.321 . S
C201 H209 0.931 . S
C202 N200 1.343 . S
C202 C203 1.390 . S
C202 H204 0.931 . S
C203 C201 1.321 . S
C203 C202 1.390 . S
C203 H205 0.930 . S
H204 C202 0.931 . S
H205 C203 0.930 . S
H206 C229 0.931 . S
H207 C195 0.929 . S
H208 C230 0.930 . S
H209 C201 0.931 . S
H210 C191 0.930 . S
H211 C220 0.929 . S
H212 C196 0.931 . S
H213 C197 0.930 . S
H214 C252 0.930 . S
H215 C193 0.929 . S
H216 C221 0.931 . S
H217 C222 0.930 . S
N218 Gd198 2.622 . S
N218 C219 1.369 . S
N218 C220 1.338 . S
C219 N218 1.369 . S
C219 C223 1.415 . S
C219 C226 1.422 . S
C220 H211 0.929 . S
C220 N218 1.338 . S
C220 C222 1.378 . S
C221 H216 0.931 . S
C221 C222 1.348 . S
C221 C223 1.413 . S
C222 H217 0.930 . S
C222 C220 1.378 . S
C222 C221 1.348 . S
C223 C219 1.415 . S
C223 C221 1.413 . S
C223 C253 1.437 . S
H224 C253 0.929 . S
N225 Gd198 2.570 . S
N225 C226 1.359 . S
N225 C229 1.343 . S
C226 C219 1.422 . S
C226 N225 1.359 . S
C226 C228 1.421 . S
C227 C228 1.422 . S
C227 C230 1.321 . S
C227 H254 0.931 . S
C228 C226 1.421 . S
C228 C227 1.422 . S
C228 C252 1.417 . S
C229 H206 0.931 . S
C229 N225 1.343 . S
C229 C230 1.390 . S
C230 H208 0.930 . S
C230 C227 1.321 . S
C230 C229 1.390 . S
O231 Gd199 2.386 . S
O231 C243 1.265 . S
O232 Gd198 2.353 . S
O232 C243 1.242 . S
O233 Gd198 2.468 . S
O233 C251 1.263 . S
O234 Gd198 2.427 . S
O234 C251 1.252 . S
O235 Gd199 2.307 . S
O235 C244 1.261 . S
O236 Gd198 2.388 . S
O236 C244 1.252 . S
O237 Gd198 2.386 . S
O237 C255 1.265 . S
O238 Gd199 2.353 . S
O238 C255 1.242 . S
O239 Gd199 2.468 . S
O239 C263 1.263 . S
O240 Gd199 2.427 . S
O240 C263 1.252 . S
O241 Gd198 2.307 . S
O241 C256 1.261 . S
O242 Gd199 2.388 . S
O242 C256 1.252 . S
C243 O231 1.265 . S
C243 O232 1.242 . S
C244 O235 1.261 . S
C244 O236 1.252 . S
C245 C248 1.394 . S
C245 C250 1.370 . S
C245 C251 1.500 . S
C246 C249 1.383 . S
C246 C250 1.395 . S
C247 C248 1.396 . S
C247 C249 1.365 . S
C247 H264 0.929 . S
C248 C245 1.394 . S
C248 C247 1.396 . S
C248 H265 0.930 . S
C249 C246 1.383 . S
C249 C247 1.365 . S
C249 H266 0.931 . S
C250 C245 1.370 . S
C250 C246 1.395 . S
C250 H267 0.930 . S
C251 Gd198 2.805 . S
C251 O233 1.263 . S
C251 O234 1.252 . S
C251 C245 1.500 . S
C252 H214 0.930 . S
C252 C228 1.417 . S
C252 C253 1.329 . S
C253 C223 1.437 . S
C253 H224 0.929 . S
C253 C252 1.329 . S
H254 C227 0.931 . S
C255 O237 1.265 . S
C255 O238 1.242 . S
C256 O241 1.261 . S
C256 O242 1.252 . S
C257 C260 1.394 . S
C257 C262 1.370 . S
C257 C263 1.500 . S
C258 C261 1.383 . S
C258 C262 1.395 . S
C259 C260 1.396 . S
C259 C261 1.365 . S
C259 H268 0.929 . S
C260 C257 1.394 . S
C260 C259 1.396 . S
C260 H269 0.930 . S
C261 C258 1.383 . S
C261 C259 1.365 . S
C261 H270 0.931 . S
C262 C257 1.370 . S
C262 C258 1.395 . S
C262 H271 0.930 . S
C263 Gd199 2.805 . S
C263 O239 1.263 . S
C263 O240 1.252 . S
C263 C257 1.500 . S
H264 C247 0.929 . S
H265 C248 0.930 . S
H266 C249 0.931 . S
H267 C250 0.930 . S
H268 C259 0.929 . S
H269 C260 0.930 . S
H270 C261 0.931 . S
H271 C262 0.930 . S
C272 C274 1.422 . S
C272 C276 1.415 . S
C272 N278 1.369 . S
C273 C274 1.421 . S
C273 C275 1.417 . S
C273 C285 1.422 . S
C274 C272 1.422 . S
C274 C273 1.421 . S
C274 N284 1.359 . S
C275 C273 1.417 . S
C275 C277 1.329 . S
C275 H294 0.930 . S
C276 C272 1.415 . S
C276 C277 1.437 . S
C276 C280 1.413 . S
C277 C275 1.329 . S
C277 C276 1.437 . S
C277 H299 0.929 . S
N278 C272 1.369 . S
N278 C279 1.338 . S
N278 Gd283 2.622 . S
C279 N278 1.338 . S
C279 C281 1.378 . S
C279 H291 0.929 . S
C280 C276 1.413 . S
C280 C281 1.348 . S
C280 H296 0.931 . S
C281 C279 1.378 . S
C281 C280 1.348 . S
C281 H297 0.930 . S
Gd282 N302 2.622 . S
Gd282 N309 2.570 . S
Gd282 O316 2.353 . S
Gd282 O317 2.468 . S
Gd282 O318 2.427 . S
Gd282 O320 2.388 . S
Gd282 O321 2.386 . S
Gd282 O325 2.319 . S
Gd282 C335 2.805 . S
Gd283 N278 2.622 . S
Gd283 N284 2.570 . S
Gd283 O315 2.386 . S
Gd283 O319 2.307 1_655 S
Gd283 O322 2.353 1_655 S
Gd283 O323 2.468 . S
Gd283 O324 2.427 . S
Gd283 O326 2.388 . S
Gd283 C347 2.805 . S
N284 C274 1.359 . S
N284 Gd283 2.570 . S
N284 C286 1.343 . S
C285 C273 1.422 . S
C285 C287 1.321 . S
C285 H293 0.931 . S
C286 N284 1.343 . S
C286 C287 1.390 . S
C286 H288 0.931 . S
C287 C285 1.321 . S
C287 C286 1.390 . S
C287 H289 0.930 . S
H288 C286 0.931 . S
H289 C287 0.930 . S
H290 C313 0.931 . S
H291 C279 0.929 . S
H292 C314 0.930 . S
H293 C285 0.931 . S
H294 C275 0.930 . S
H295 C304 0.929 . S
H296 C280 0.931 . S
H297 C281 0.930 . S
H298 C336 0.930 1_545 S
H299 C277 0.929 . S
H300 C305 0.931 . S
H301 C306 0.930 . S
N302 Gd282 2.622 . S
N302 C303 1.369 . S
N302 C304 1.338 . S
C303 N302 1.369 . S
C303 C307 1.415 . S
C303 C310 1.422 . S
C304 H295 0.929 . S
C304 N302 1.338 . S
C304 C306 1.378 . S
C305 H300 0.931 . S
C305 C306 1.348 . S
C305 C307 1.413 . S
C306 H301 0.930 . S
C306 C304 1.378 . S
C306 C305 1.348 . S
C307 C303 1.415 . S
C307 C305 1.413 . S
C307 C337 1.437 . S
H308 C337 0.929 . S
N309 Gd282 2.570 . S
N309 C310 1.359 . S
N309 C313 1.343 . S
C310 C303 1.422 . S
C310 N309 1.359 . S
C310 C312 1.421 . S
C311 C312 1.422 1_545 S
C311 C314 1.321 . S
C311 H338 0.931 . S
C312 C310 1.421 . S
C312 C311 1.422 1_565 S
C312 C336 1.417 . S
C313 H290 0.931 . S
C313 N309 1.343 . S
C313 C314 1.390 1_565 S
C314 H292 0.930 . S
C314 C311 1.321 . S
C314 C313 1.390 1_545 S
O315 Gd283 2.386 . S
O315 C327 1.265 . S
O316 Gd282 2.353 . S
O316 C327 1.242 1_455 S
O317 Gd282 2.468 . S
O317 C335 1.263 . S
O318 Gd282 2.427 . S
O318 C335 1.252 . S
O319 Gd283 2.307 1_455 S
O319 C328 1.261 . S
O320 Gd282 2.388 . S
O320 C328 1.252 . S
O321 Gd282 2.386 . S
O321 C339 1.265 . S
O322 Gd283 2.353 1_455 S
O322 C339 1.242 . S
O323 Gd283 2.468 . S
O323 C347 1.263 . S
O324 Gd283 2.427 . S
O324 C347 1.252 . S
O325 Gd282 2.319 . S
O325 C340 1.247 1_455 S
O326 Gd283 2.388 . S
O326 C340 1.252 . S
C327 O315 1.265 . S
C327 O316 1.242 1_655 S
C328 O319 1.261 . S
C328 O320 1.252 . S
C329 C332 1.394 . S
C329 C334 1.370 . S
C329 C335 1.500 . S
C330 C333 1.383 . S
C330 C334 1.395 . S
C331 C332 1.396 . S
C331 C333 1.365 . S
C331 H348 0.929 . S
C332 C329 1.394 . S
C332 C331 1.396 . S
C332 H349 0.930 . S
C333 C330 1.383 . S
C333 C331 1.365 . S
C333 H350 0.931 . S
C334 C329 1.370 . S
C334 C330 1.395 . S
C334 H351 0.930 . S
C335 Gd282 2.805 . S
C335 O317 1.263 . S
C335 O318 1.252 . S
C335 C329 1.500 . S
C336 H298 0.930 1_565 S
C336 C312 1.417 . S
C336 C337 1.329 . S
C337 C307 1.437 . S
C337 H308 0.929 . S
C337 C336 1.329 . S
H338 C311 0.931 . S
C339 O321 1.265 . S
C339 O322 1.242 . S
C340 O325 1.247 1_655 S
C340 O326 1.252 . S
C341 C344 1.394 . S
C341 C346 1.370 . S
C341 C347 1.500 . S
C342 C345 1.383 . S
C342 C346 1.395 . S
C343 C344 1.396 . S
C343 C345 1.365 . S
C343 H352 0.929 . S
C344 C341 1.394 . S
C344 C343 1.396 . S
C344 H353 0.930 . S
C345 C342 1.383 . S
C345 C343 1.365 . S
C345 H354 0.931 . S
C346 C341 1.370 . S
C346 C342 1.395 . S
C346 H355 0.930 . S
C347 Gd283 2.805 . S
C347 O323 1.263 . S
C347 O324 1.252 . S
C347 C341 1.500 . S
H348 C331 0.929 . S
H349 C332 0.930 . S
H350 C333 0.931 . S
H351 C334 0.930 . S
H352 C343 0.929 . S
H353 C344 0.930 . S
H354 C345 0.931 . S
H355 C346 0.930 . S
C356 C358 1.422 . S
C356 C360 1.415 . S
C356 N362 1.369 . S
C357 C358 1.421 . S
C357 C359 1.417 . S
C357 C369 1.422 . S
C358 C356 1.422 . S
C358 C357 1.421 . S
C358 N368 1.359 . S
C359 C357 1.417 . S
C359 C361 1.329 . S
C359 H378 0.930 . S
C360 C356 1.415 . S
C360 C361 1.437 . S
C360 C364 1.413 . S
C361 C359 1.329 . S
C361 C360 1.437 . S
C361 H383 0.929 . S
N362 C356 1.369 . S
N362 C363 1.338 . S
N362 Gd367 2.622 . S
C363 N362 1.338 . S
C363 C365 1.378 . S
C363 H375 0.929 . S
C364 C360 1.413 . S
C364 C365 1.348 . S
C364 H380 0.931 . S
C365 C363 1.378 . S
C365 C364 1.348 . S
C365 H381 0.930 . S
Gd366 N386 2.622 . S
Gd366 N393 2.570 . S
Gd366 O400 2.353 . S
Gd366 O401 2.468 . S
Gd366 O402 2.427 . S
Gd366 O404 2.388 . S
Gd366 O405 2.386 . S
Gd366 O409 2.307 . S
Gd366 C419 2.805 . S
Gd367 N362 2.622 . S
Gd367 N368 2.570 . S
Gd367 O399 2.386 . S
Gd367 O403 2.307 . S
Gd367 O406 2.353 . S
Gd367 O407 2.468 . S
Gd367 O408 2.427 . S
Gd367 O410 2.388 . S
Gd367 C431 2.805 . S
N368 C358 1.359 . S
N368 Gd367 2.570 . S
N368 C370 1.343 . S
C369 C357 1.422 . S
C369 C371 1.321 . S
C369 H377 0.931 . S
C370 N368 1.343 . S
C370 C371 1.390 . S
C370 H372 0.931 . S
C371 C369 1.321 . S
C371 C370 1.390 . S
C371 H373 0.930 . S
H372 C370 0.931 . S
H373 C371 0.930 . S
H374 C397 0.931 . S
H375 C363 0.929 . S
H376 C398 0.930 . S
H377 C369 0.931 . S
H378 C359 0.930 . S
H379 C388 0.929 . S
H380 C364 0.931 . S
H381 C365 0.930 . S
H382 C420 0.930 . S
H383 C361 0.929 . S
H384 C389 0.931 . S
H385 C390 0.930 . S
N386 Gd366 2.622 . S
N386 C387 1.369 . S
N386 C388 1.338 . S
C387 N386 1.369 . S
C387 C391 1.415 . S
C387 C394 1.422 . S
C388 H379 0.929 . S
C388 N386 1.338 . S
C388 C390 1.378 . S
C389 H384 0.931 . S
C389 C390 1.348 . S
C389 C391 1.413 . S
C390 H385 0.930 . S
C390 C388 1.378 . S
C390 C389 1.348 . S
C391 C387 1.415 . S
C391 C389 1.413 . S
C391 C421 1.437 . S
H392 C421 0.929 . S
N393 Gd366 2.570 . S
N393 C394 1.359 . S
N393 C397 1.343 . S
C394 C387 1.422 . S
C394 N393 1.359 . S
C394 C396 1.421 . S
C395 C396 1.422 . S
C395 C398 1.321 . S
C395 H422 0.931 . S
C396 C394 1.421 . S
C396 C395 1.422 . S
C396 C420 1.417 . S
C397 H374 0.931 . S
C397 N393 1.343 . S
C397 C398 1.390 . S
C398 H376 0.930 . S
C398 C395 1.321 . S
C398 C397 1.390 . S
O399 Gd367 2.386 . S
O399 C411 1.265 . S
O400 Gd366 2.353 . S
O400 C411 1.242 . S
O401 Gd366 2.468 . S
O401 C419 1.263 . S
O402 Gd366 2.427 . S
O402 C419 1.252 . S
O403 Gd367 2.307 . S
O403 C412 1.261 . S
O404 Gd366 2.388 . S
O404 C412 1.252 . S
O405 Gd366 2.386 . S
O405 C423 1.265 . S
O406 Gd367 2.353 . S
O406 C423 1.242 . S
O407 Gd367 2.468 . S
O407 C431 1.263 . S
O408 Gd367 2.427 . S
O408 C431 1.252 . S
O409 Gd366 2.307 . S
O409 C424 1.261 . S
O410 Gd367 2.388 . S
O410 C424 1.252 . S
C411 O399 1.265 . S
C411 O400 1.242 . S
C412 O403 1.261 . S
C412 O404 1.252 . S
C413 C416 1.394 . S
C413 C418 1.370 . S
C413 C419 1.500 . S
C414 C417 1.383 . S
C414 C418 1.395 . S
C415 C416 1.396 . S
C415 C417 1.365 . S
C415 H432 0.929 . S
C416 C413 1.394 . S
C416 C415 1.396 . S
C416 H433 0.930 . S
C417 C414 1.383 . S
C417 C415 1.365 . S
C417 H434 0.931 . S
C418 C413 1.370 . S
C418 C414 1.395 . S
C418 H435 0.930 . S
C419 Gd366 2.805 . S
C419 O401 1.263 . S
C419 O402 1.252 . S
C419 C413 1.500 . S
C420 H382 0.930 . S
C420 C396 1.417 . S
C420 C421 1.329 . S
C421 C391 1.437 . S
C421 H392 0.929 . S
C421 C420 1.329 . S
H422 C395 0.931 . S
C423 O405 1.265 . S
C423 O406 1.242 . S
C424 O409 1.261 . S
C424 O410 1.252 . S
C425 C428 1.394 . S
C425 C430 1.370 . S
C425 C431 1.500 . S
C426 C429 1.383 . S
C426 C430 1.395 . S
C427 C428 1.396 . S
C427 C429 1.365 . S
C427 H436 0.929 . S
C428 C425 1.394 . S
C428 C427 1.396 . S
C428 H437 0.930 . S
C429 C426 1.383 . S
C429 C427 1.365 . S
C429 H438 0.931 . S
C430 C425 1.370 . S
C430 C426 1.395 . S
C430 H439 0.930 . S
C431 Gd367 2.805 . S
C431 O407 1.263 . S
C431 O408 1.252 . S
C431 C425 1.500 . S
H432 C415 0.929 . S
H433 C416 0.930 . S
H434 C417 0.931 . S
H435 C418 0.930 . S
H436 C427 0.929 . S
H437 C428 0.930 . S
H438 C429 0.931 . S
H439 C430 0.930 . S
C440 C441 1.391 . S
C440 C442 1.394 . S
C440 H456 0.931 . S
C441 C440 1.391 . S
C441 C445 1.376 . S
C442 C440 1.394 . S
C442 C443 1.369 . S
C442 C446 1.531 . S
C443 C442 1.369 . S
C443 C444 1.410 . S
C443 C451 1.503 . S
C444 C443 1.410 . S
C444 C445 1.392 . S
C444 C447 1.511 . S
C445 C441 1.376 . S
C445 C444 1.392 . S
C445 H457 0.929 . S
C446 C442 1.531 . S
C446 H458 0.960 . S
C446 H459 0.962 . S
C446 H460 0.960 . S
C447 C444 1.511 . S
C447 H461 0.961 . S
C447 H462 0.961 1_565 S
C447 H463 0.961 . S
C448 C449 1.370 . S
C448 C450 1.363 1_545 S
C448 H464 0.931 . S
C449 C448 1.370 . S
C449 C453 1.408 . S
C450 C448 1.363 1_565 S
C450 C451 1.370 . S
C450 C454 1.524 . S
C451 C443 1.503 . S
C451 C450 1.370 . S
C451 C452 1.403 . S
C452 C451 1.403 . S
C452 C453 1.404 1_565 S
C452 C455 1.539 . S
C453 C449 1.408 . S
C453 C452 1.404 1_545 S
C453 H465 0.930 . S
C454 C450 1.524 . S
C454 H466 0.956 . S
C454 H467 0.961 . S
C454 H468 0.961 1_565 S
C455 C452 1.539 . S
C455 H469 0.958 . S
C455 H470 0.958 1_455 S
C455 H471 0.960 . S
H456 C440 0.931 . S
H457 C445 0.929 . S
H458 C446 0.960 . S
H459 C446 0.962 . S
H460 C446 0.960 . S
H461 C447 0.961 . S
H462 C447 0.961 1_545 S
H463 C447 0.961 . S
H464 C448 0.931 . S
H465 C453 0.930 . S
H466 C454 0.956 . S
H467 C454 0.961 . S
H468 C454 0.961 1_545 S
H469 C455 0.958 . S
H470 C455 0.958 1_655 S
H471 C455 0.960 . S
C472 C473 1.391 . S
C472 C474 1.394 . S
C472 H488 0.931 . S
C473 C472 1.391 . S
C473 C477 1.376 . S
C474 C472 1.394 . S
C474 C475 1.369 . S
C474 C478 1.531 . S
C475 C474 1.369 . S
C475 C476 1.410 . S
C475 C483 1.503 . S
C476 C475 1.410 . S
C476 C477 1.392 . S
C476 C479 1.511 . S
C477 C473 1.376 . S
C477 C476 1.392 . S
C477 H489 0.929 . S
C478 C474 1.531 . S
C478 H490 0.960 . S
C478 H491 0.962 . S
C478 H492 0.960 . S
C479 C476 1.511 . S
C479 H493 0.961 . S
C479 H494 0.961 . S
C479 H495 0.961 . S
C480 C481 1.370 . S
C480 C482 1.363 . S
C480 H496 0.931 . S
C481 C480 1.370 . S
C481 C485 1.408 . S
C482 C480 1.363 . S
C482 C483 1.370 . S
C482 C486 1.524 . S
C483 C475 1.503 . S
C483 C482 1.370 . S
C483 C484 1.403 . S
C484 C483 1.403 . S
C484 C485 1.404 . S
C484 C487 1.539 . S
C485 C481 1.408 . S
C485 C484 1.404 . S
C485 H497 0.930 . S
C486 C482 1.524 . S
C486 H498 0.956 . S
C486 H499 0.961 . S
C486 H500 0.961 . S
C487 C484 1.539 . S
C487 H501 0.958 . S
C487 H502 0.961 . S
C487 H503 0.960 . S
H488 C472 0.931 . S
H489 C477 0.929 . S
H490 C478 0.960 . S
H491 C478 0.962 . S
H492 C478 0.960 . S
H493 C479 0.961 . S
H494 C479 0.961 . S
H495 C479 0.961 . S
H496 C480 0.931 . S
H497 C485 0.930 . S
H498 C486 0.956 . S
H499 C486 0.961 . S
H500 C486 0.961 . S
H501 C487 0.958 . S
H502 C487 0.961 . S
H503 C487 0.960 . S
C504 C505 1.391 . S
C504 C506 1.394 . S
C504 H520 0.931 . S
C505 C504 1.391 . S
C505 C509 1.376 . S
C506 C504 1.394 . S
C506 C507 1.369 . S
C506 C510 1.531 . S
C507 C506 1.369 . S
C507 C508 1.410 . S
C507 C515 1.503 . S
C508 C507 1.410 . S
C508 C509 1.392 . S
C508 C511 1.511 . S
C509 C505 1.376 . S
C509 C508 1.392 . S
C509 H521 0.929 . S
C510 C506 1.531 . S
C510 H522 0.960 . S
C510 H523 0.962 . S
C510 H524 0.960 . S
C511 C508 1.511 . S
C511 H525 0.961 . S
C511 H526 0.961 . S
C511 H527 0.961 . S
C512 C513 1.370 . S
C512 C514 1.363 . S
C512 H528 0.931 . S
C513 C512 1.370 . S
C513 C517 1.408 . S
C514 C512 1.363 . S
C514 C515 1.370 . S
C514 C518 1.524 . S
C515 C507 1.503 . S
C515 C514 1.370 . S
C515 C516 1.403 . S
C516 C515 1.403 . S
C516 C517 1.404 . S
C516 C519 1.539 . S
C517 C513 1.408 . S
C517 C516 1.404 . S
C517 H529 0.930 . S
C518 C514 1.524 . S
C518 H530 0.956 . S
C518 H531 0.961 . S
C518 H532 0.961 . S
C519 C516 1.539 . S
C519 H533 0.958 . S
C519 H534 0.961 . S
C519 H535 0.960 . S
H520 C504 0.931 . S
H521 C509 0.929 . S
H522 C510 0.960 . S
H523 C510 0.962 . S
H524 C510 0.960 . S
H525 C511 0.961 . S
H526 C511 0.961 . S
H527 C511 0.961 . S
H528 C512 0.931 . S
H529 C517 0.930 . S
H530 C518 0.956 . S
H531 C518 0.961 . S
H532 C518 0.961 . S
H533 C519 0.958 . S
H534 C519 0.961 . S
H535 C519 0.960 . S
C536 C537 1.391 . S
C536 C538 1.394 . S
C536 H552 0.931 . S
C537 C536 1.391 . S
C537 C541 1.376 . S
C538 C536 1.394 . S
C538 C539 1.369 . S
C538 C542 1.531 . S
C539 C538 1.369 . S
C539 C540 1.410 . S
C539 C547 1.503 . S
C540 C539 1.410 . S
C540 C541 1.392 . S
C540 C543 1.511 . S
C541 C537 1.376 . S
C541 C540 1.392 . S
C541 H553 0.929 . S
C542 C538 1.531 . S
C542 H554 0.960 . S
C542 H555 0.962 . S
C542 H556 0.960 . S
C543 C540 1.511 . S
C543 H557 0.961 . S
C543 H558 0.961 . S
C543 H559 0.961 . S
C544 C545 1.370 1_565 S
C544 C546 1.363 . S
C544 H560 0.931 . S
C545 C544 1.370 1_545 S
C545 C549 1.408 . S
C546 C544 1.363 . S
C546 C547 1.370 . S
C546 C550 1.524 . S
C547 C539 1.503 . S
C547 C546 1.370 . S
C547 C548 1.403 1_565 S
C548 C547 1.403 1_545 S
C548 C549 1.404 . S
C548 C551 1.539 . S
C549 C545 1.408 . S
C549 C548 1.404 . S
C549 H561 0.930 . S
C550 C546 1.524 . S
C550 H562 0.956 . S
C550 H563 0.961 . S
C550 H564 0.961 . S
C551 C548 1.539 . S
C551 H565 0.958 . S
C551 H566 0.961 . S
C551 H567 0.960 . S
H552 C536 0.931 . S
H553 C541 0.929 . S
H554 C542 0.960 . S
H555 C542 0.962 . S
H556 C542 0.960 . S
H557 C543 0.961 . S
H558 C543 0.961 . S
H559 C543 0.961 . S
H560 C544 0.931 . S
H561 C549 0.930 . S
H562 C550 0.956 . S
H563 C550 0.961 . S
H564 C550 0.961 . S
H565 C551 0.958 . S
H566 C551 0.961 . S
H567 C551 0.960 . S
C568 C569 1.391 . S
C568 C570 1.394 . S
C568 H584 0.931 . S
C569 C568 1.391 . S
C569 C573 1.376 . S
C570 C568 1.394 . S
C570 C571 1.369 . S
C570 C574 1.531 . S
C571 C570 1.369 . S
C571 C572 1.410 . S
C571 C579 1.503 . S
C572 C571 1.410 . S
C572 C573 1.392 . S
C572 C575 1.511 . S
C573 C569 1.376 . S
C573 C572 1.392 . S
C573 H585 0.929 . S
C574 C570 1.531 . S
C574 H586 0.960 . S
C574 H587 0.962 . S
C574 H588 0.960 . S
C575 C572 1.511 . S
C575 H589 0.961 . S
C575 H590 0.961 1_545 S
C575 H591 0.961 . S
C576 C577 1.370 . S
C576 C578 1.363 1_565 S
C576 H592 0.931 . S
C577 C576 1.370 . S
C577 C581 1.408 . S
C578 C576 1.363 1_545 S
C578 C579 1.370 . S
C578 C582 1.524 . S
C579 C571 1.503 . S
C579 C578 1.370 . S
C579 C580 1.403 . S
C580 C579 1.403 . S
C580 C581 1.404 1_545 S
C580 C583 1.539 . S
C581 C577 1.408 . S
C581 C580 1.404 1_565 S
C581 H593 0.930 . S
C582 C578 1.524 . S
C582 H594 0.956 . S
C582 H595 0.961 . S
C582 H596 0.961 1_545 S
C583 C580 1.539 . S
C583 H597 0.958 . S
C583 H598 0.961 . S
C583 H599 0.960 . S
H584 C568 0.931 . S
H585 C573 0.929 . S
H586 C574 0.960 . S
H587 C574 0.962 . S
H588 C574 0.960 . S
H589 C575 0.961 . S
H590 C575 0.961 1_565 S
H591 C575 0.961 . S
H592 C576 0.931 . S
H593 C581 0.930 . S
H594 C582 0.956 . S
H595 C582 0.961 . S
H596 C582 0.961 1_565 S
H597 C583 0.958 . S
H598 C583 0.961 . S
H599 C583 0.960 . S
C600 C601 1.391 . S
C600 C602 1.394 . S
C600 H616 0.931 . S
C601 C600 1.391 . S
C601 C605 1.376 . S
C602 C600 1.394 . S
C602 C603 1.369 . S
C602 C606 1.531 . S
C603 C602 1.369 . S
C603 C604 1.410 . S
C603 C611 1.503 . S
C604 C603 1.410 . S
C604 C605 1.392 . S
C604 C607 1.511 . S
C605 C601 1.376 . S
C605 C604 1.392 . S
C605 H617 0.929 . S
C606 C602 1.531 . S
C606 H618 0.960 . S
C606 H619 0.962 . S
C606 H620 0.960 . S
C607 C604 1.511 . S
C607 H621 0.961 . S
C607 H622 0.961 . S
C607 H623 0.961 . S
C608 C609 1.370 . S
C608 C610 1.363 . S
C608 H624 0.931 . S
C609 C608 1.370 . S
C609 C613 1.408 . S
C610 C608 1.363 . S
C610 C611 1.370 . S
C610 C614 1.524 . S
C611 C603 1.503 . S
C611 C610 1.370 . S
C611 C612 1.403 . S
C612 C611 1.403 . S
C612 C613 1.404 . S
C612 C615 1.539 . S
C613 C609 1.408 . S
C613 C612 1.404 . S
C613 H625 0.930 . S
C614 C610 1.524 . S
C614 H626 0.956 . S
C614 H627 0.961 . S
C614 H628 0.961 . S
C615 C612 1.539 . S
C615 H629 0.958 . S
C615 H630 0.961 . S
C615 H631 0.960 . S
H616 C600 0.931 . S
H617 C605 0.929 . S
H618 C606 0.960 . S
H619 C606 0.962 . S
H620 C606 0.960 . S
H621 C607 0.961 . S
H622 C607 0.961 . S
H623 C607 0.961 . S
H624 C608 0.931 . S
H625 C613 0.930 . S
H626 C614 0.956 . S
H627 C614 0.961 . S
H628 C614 0.961 . S
H629 C615 0.958 . S
H630 C615 0.961 . S
H631 C615 0.960 . S
C632 C633 1.391 . S
C632 C634 1.394 . S
C632 H648 0.931 . S
C633 C632 1.391 . S
C633 C637 1.376 . S
C634 C632 1.394 . S
C634 C635 1.369 . S
C634 C638 1.531 . S
C635 C634 1.369 . S
C635 C636 1.410 . S
C635 C643 1.503 . S
C636 C635 1.410 . S
C636 C637 1.392 . S
C636 C639 1.511 . S
C637 C633 1.376 . S
C637 C636 1.392 . S
C637 H649 0.929 . S
C638 C634 1.531 . S
C638 H650 0.960 . S
C638 H651 0.962 . S
C638 H652 0.960 . S
C639 C636 1.511 . S
C639 H653 0.961 . S
C639 H654 0.961 . S
C639 H655 0.961 . S
C640 C641 1.370 . S
C640 C642 1.363 . S
C640 H656 0.931 . S
C641 C640 1.370 . S
C641 C645 1.408 . S
C642 C640 1.363 . S
C642 C643 1.370 . S
C642 C646 1.524 . S
C643 C635 1.503 . S
C643 C642 1.370 . S
C643 C644 1.403 . S
C644 C643 1.403 . S
C644 C645 1.404 . S
C644 C647 1.539 . S
C645 C641 1.408 . S
C645 C644 1.404 . S
C645 H657 0.930 . S
C646 C642 1.524 . S
C646 H658 0.956 . S
C646 H659 0.961 . S
C646 H660 0.961 . S
C647 C644 1.539 . S
C647 H661 0.958 . S
C647 H662 0.961 . S
C647 H663 0.960 . S
H648 C632 0.931 . S
H649 C637 0.929 . S
H650 C638 0.960 . S
H651 C638 0.962 . S
H652 C638 0.960 . S
H653 C639 0.961 . S
H654 C639 0.961 . S
H655 C639 0.961 . S
H656 C640 0.931 . S
H657 C645 0.930 . S
H658 C646 0.956 . S
H659 C646 0.961 . S
H660 C646 0.961 . S
H661 C647 0.958 . S
H662 C647 0.961 . S
H663 C647 0.960 . S
C664 C665 1.391 . S
C664 C666 1.394 . S
C664 H680 0.931 . S
C665 C664 1.391 . S
C665 C669 1.376 . S
C666 C664 1.394 . S
C666 C667 1.369 . S
C666 C670 1.519 1_545 S
C667 C666 1.369 . S
C667 C668 1.410 . S
C667 C675 1.503 . S
C668 C667 1.410 . S
C668 C669 1.392 . S
C668 C671 1.511 . S
C669 C665 1.376 . S
C669 C668 1.392 . S
C669 H681 0.929 . S
C670 C666 1.519 1_565 S
C670 H682 0.966 . S
C670 H683 0.966 . S
C670 H684 0.962 . S
C671 C668 1.511 . S
C671 H685 0.961 . S
C671 H686 0.961 . S
C671 H687 0.961 . S
C672 C673 1.370 . S
C672 C674 1.363 1_565 S
C672 H688 0.931 . S
C673 C672 1.370 . S
C673 C677 1.408 . S
C674 C672 1.363 1_545 S
C674 C675 1.370 . S
C674 C678 1.524 . S
C675 C667 1.503 . S
C675 C674 1.370 . S
C675 C676 1.403 . S
C676 C675 1.403 . S
C676 C677 1.404 1_545 S
C676 C679 1.539 . S
C677 C673 1.408 . S
C677 C676 1.404 1_565 S
C677 H689 0.930 . S
C678 C674 1.524 . S
C678 H690 0.956 . S
C678 H691 0.961 . S
C678 H692 0.961 . S
C679 C676 1.539 . S
C679 H693 0.958 . S
C679 H694 0.961 . S
C679 H695 0.960 . S
H680 C664 0.931 . S
H681 C669 0.929 . S
H682 C670 0.966 . S
H683 C670 0.966 . S
H684 C670 0.962 . S
H685 C671 0.961 . S
H686 C671 0.961 . S
H687 C671 0.961 . S
H688 C672 0.931 . S
H689 C677 0.930 . S
H690 C678 0.956 . S
H691 C678 0.961 . S
H692 C678 0.961 . S
H693 C679 0.958 . S
H694 C679 0.961 . S
H695 C679 0.960 . S
C696 C697 1.391 . S
C696 C698 1.394 . S
C696 H712 0.931 . S
C697 C696 1.391 . S
C697 C701 1.376 . S
C698 C696 1.394 . S
C698 C699 1.369 . S
C698 C702 1.531 . S
C699 C698 1.369 . S
C699 C700 1.410 . S
C699 C707 1.503 1_556 S
C700 C699 1.410 . S
C700 C701 1.392 . S
C700 C703 1.511 1_556 S
C701 C697 1.376 . S
C701 C700 1.392 . S
C701 H713 0.929 . S
C702 C698 1.531 . S
C702 H714 0.960 . S
C702 H715 0.962 . S
C702 H716 0.960 . S
C703 C700 1.511 1_554 S
C703 H717 0.961 . S
C703 H718 0.961 . S
C703 H719 0.961 . S
C704 C705 1.370 . S
C704 C706 1.363 . S
C704 H720 0.931 . S
C705 C704 1.370 . S
C705 C709 1.408 . S
C706 C704 1.363 . S
C706 C707 1.370 . S
C706 C710 1.507 1_554 S
C707 C699 1.503 1_554 S
C707 C706 1.370 . S
C707 C708 1.403 . S
C708 C707 1.403 . S
C708 C709 1.404 . S
C708 C711 1.539 . S
C709 C705 1.408 . S
C709 C708 1.404 . S
C709 H721 0.930 . S
C710 C706 1.507 1_556 S
C710 H722 0.973 . S
C710 H723 0.969 . S
C710 H724 0.954 1_556 S
C711 C708 1.539 . S
C711 H725 0.958 . S
C711 H726 0.961 . S
C711 H727 0.960 . S
H712 C696 0.931 . S
H713 C701 0.929 . S
H714 C702 0.960 . S
H715 C702 0.962 . S
H716 C702 0.960 . S
H717 C703 0.961 . S
H718 C703 0.961 . S
H719 C703 0.961 . S
H720 C704 0.931 . S
H721 C709 0.930 . S
H722 C710 0.973 . S
H723 C710 0.969 . S
H724 C710 0.954 1_554 S
H725 C711 0.958 . S
H726 C711 0.961 . S
H727 C711 0.960 . S
C728 C729 1.391 . S
C728 C730 1.394 . S
C728 H744 0.931 . S
C729 C728 1.391 . S
C729 C733 1.376 . S
C730 C728 1.394 . S
C730 C731 1.369 . S
C730 C734 1.531 . S
C731 C730 1.369 . S
C731 C732 1.410 . S
C731 C739 1.503 . S
C732 C731 1.410 . S
C732 C733 1.392 . S
C732 C735 1.511 . S
C733 C729 1.376 . S
C733 C732 1.392 . S
C733 H745 0.929 . S
C734 C730 1.531 . S
C734 H746 0.960 . S
C734 H747 0.962 . S
C734 H748 0.960 . S
C735 C732 1.511 . S
C735 H749 0.961 . S
C735 H750 0.961 . S
C735 H751 0.961 . S
C736 C737 1.370 . S
C736 C738 1.363 . S
C736 H752 0.931 . S
C737 C736 1.370 . S
C737 C741 1.408 . S
C738 C736 1.363 . S
C738 C739 1.370 . S
C738 C742 1.524 . S
C739 C731 1.503 . S
C739 C738 1.370 . S
C739 C740 1.403 . S
C740 C739 1.403 . S
C740 C741 1.404 . S
C740 C743 1.539 . S
C741 C737 1.408 . S
C741 C740 1.404 . S
C741 H753 0.930 . S
C742 C738 1.524 . S
C742 H754 0.956 . S
C742 H755 0.961 . S
C742 H756 0.961 . S
C743 C740 1.539 . S
C743 H757 0.958 . S
C743 H758 0.961 . S
C743 H759 0.960 . S
H744 C728 0.931 . S
H745 C733 0.929 . S
H746 C734 0.960 . S
H747 C734 0.962 . S
H748 C734 0.960 . S
H749 C735 0.961 . S
H750 C735 0.961 . S
H751 C735 0.961 . S
H752 C736 0.931 . S
H753 C741 0.930 . S
H754 C742 0.956 . S
H755 C742 0.961 . S
H756 C742 0.961 . S
H757 C743 0.958 . S
H758 C743 0.961 . S
H759 C743 0.960 . S
C760 C761 1.391 . S
C760 C762 1.394 . S
C760 H776 0.931 . S
C761 C760 1.391 . S
C761 C765 1.376 . S
C762 C760 1.394 . S
C762 C763 1.369 . S
C762 C766 1.531 1_554 S
C763 C762 1.369 . S
C763 C764 1.410 . S
C763 C771 1.503 1_554 S
C764 C763 1.410 . S
C764 C765 1.392 . S
C764 C767 1.511 . S
C765 C761 1.376 . S
C765 C764 1.392 . S
C765 H777 0.929 . S
C766 C762 1.531 1_556 S
C766 H778 0.960 . S
C766 H779 0.962 . S
C766 H780 0.960 . S
C767 C764 1.511 . S
C767 H781 0.961 . S
C767 H782 0.961 . S
C767 H783 0.961 . S
C768 C769 1.370 . S
C768 C770 1.363 . S
C768 H784 0.931 . S
C769 C768 1.370 . S
C769 C773 1.408 . S
C770 C768 1.363 . S
C770 C771 1.370 . S
C770 C774 1.524 . S
C771 C763 1.503 1_556 S
C771 C770 1.370 . S
C771 C772 1.403 . S
C772 C771 1.403 . S
C772 C773 1.404 . S
C772 C775 1.539 . S
C773 C769 1.408 . S
C773 C772 1.404 . S
C773 H785 0.930 . S
C774 C770 1.524 . S
C774 H786 0.956 . S
C774 H787 0.961 1_556 S
C774 H788 0.961 . S
C775 C772 1.539 . S
C775 H789 0.958 . S
C775 H790 0.961 . S
C775 H791 0.960 . S
H776 C760 0.931 . S
H777 C765 0.929 . S
H778 C766 0.960 . S
H779 C766 0.962 . S
H780 C766 0.960 . S
H781 C767 0.961 . S
H782 C767 0.961 . S
H783 C767 0.961 . S
H784 C768 0.931 . S
H785 C773 0.930 . S
H786 C774 0.956 . S
H787 C774 0.961 1_554 S
H788 C774 0.961 . S
H789 C775 0.958 . S
H790 C775 0.961 . S
H791 C775 0.960 . S
C792 C793 1.391 . S
C792 C794 1.394 . S
C792 H808 0.931 . S
C793 C792 1.391 . S
C793 C797 1.376 . S
C794 C792 1.394 . S
C794 C795 1.369 . S
C794 C798 1.531 . S
C795 C794 1.369 . S
C795 C796 1.410 . S
C795 C803 1.503 . S
C796 C795 1.410 . S
C796 C797 1.392 . S
C796 C799 1.511 . S
C797 C793 1.376 . S
C797 C796 1.392 . S
C797 H809 0.929 . S
C798 C794 1.531 . S
C798 H810 0.960 . S
C798 H811 0.962 . S
C798 H812 0.960 . S
C799 C796 1.511 . S
C799 H813 0.961 . S
C799 H814 0.961 . S
C799 H815 0.961 . S
C800 C801 1.370 . S
C800 C802 1.363 . S
C800 H816 0.931 . S
C801 C800 1.370 . S
C801 C805 1.408 . S
C802 C800 1.363 . S
C802 C803 1.370 . S
C802 C806 1.524 . S
C803 C795 1.503 . S
C803 C802 1.370 . S
C803 C804 1.403 . S
C804 C803 1.403 . S
C804 C805 1.404 . S
C804 C807 1.539 . S
C805 C801 1.408 . S
C805 C804 1.404 . S
C805 H817 0.930 . S
C806 C802 1.524 . S
C806 H818 0.956 . S
C806 H819 0.961 . S
C806 H820 0.961 . S
C807 C804 1.539 . S
C807 H821 0.958 . S
C807 H822 0.961 . S
C807 H823 0.960 . S
H808 C792 0.931 . S
H809 C797 0.929 . S
H810 C798 0.960 . S
H811 C798 0.962 . S
H812 C798 0.960 . S
H813 C799 0.961 . S
H814 C799 0.961 . S
H815 C799 0.961 . S
H816 C800 0.931 . S
H817 C805 0.930 . S
H818 C806 0.956 . S
H819 C806 0.961 . S
H820 C806 0.961 . S
H821 C807 0.958 . S
H822 C807 0.961 . S
H823 C807 0.960 . S
C824 C825 1.391 . S
C824 C826 1.394 . S
C824 H840 0.931 . S
C825 C824 1.391 . S
C825 C829 1.376 . S
C826 C824 1.394 . S
C826 C827 1.369 . S
C826 C830 1.531 . S
C827 C826 1.369 . S
C827 C828 1.410 . S
C827 C835 1.503 1_554 S
C828 C827 1.410 . S
C828 C829 1.392 . S
C828 C831 1.511 1_554 S
C829 C825 1.376 . S
C829 C828 1.392 . S
C829 H841 0.929 . S
C830 C826 1.531 . S
C830 H842 0.960 . S
C830 H843 0.962 . S
C830 H844 0.960 . S
C831 C828 1.511 1_556 S
C831 H845 0.961 . S
C831 H846 0.961 . S
C831 H847 0.961 . S
C832 C833 1.370 . S
C832 C834 1.363 . S
C832 H848 0.931 . S
C833 C832 1.370 . S
C833 C837 1.408 . S
C834 C832 1.363 . S
C834 C835 1.370 . S
C834 C838 1.524 . S
C835 C827 1.503 1_556 S
C835 C834 1.370 . S
C835 C836 1.403 . S
C836 C835 1.403 . S
C836 C837 1.404 . S
C836 C839 1.539 . S
C837 C833 1.408 . S
C837 C836 1.404 . S
C837 H849 0.930 . S
C838 C834 1.524 . S
C838 H850 0.956 . S
C838 H851 0.961 . S
C838 H852 0.961 . S
C839 C836 1.539 . S
C839 H853 0.958 1_556 S
C839 H854 0.961 . S
C839 H855 0.960 1_556 S
H840 C824 0.931 . S
H841 C829 0.929 . S
H842 C830 0.960 . S
H843 C830 0.962 . S
H844 C830 0.960 . S
H845 C831 0.961 . S
H846 C831 0.961 . S
H847 C831 0.961 . S
H848 C832 0.931 . S
H849 C837 0.930 . S
H850 C838 0.956 . S
H851 C838 0.961 . S
H852 C838 0.961 . S
H853 C839 0.958 1_554 S
H854 C839 0.961 . S
H855 C839 0.960 1_554 S
C856 C857 1.391 . S
C856 C858 1.394 . S
C856 H872 0.931 . S
C857 C856 1.391 . S
C857 C861 1.376 . S
C858 C856 1.394 . S
C858 C859 1.369 . S
C858 C862 1.531 . S
C859 C858 1.369 . S
C859 C860 1.410 . S
C859 C867 1.503 . S
C860 C859 1.410 . S
C860 C861 1.392 . S
C860 C863 1.511 . S
C861 C857 1.376 . S
C861 C860 1.392 . S
C861 H873 0.929 . S
C862 C858 1.531 . S
C862 H874 0.960 . S
C862 H875 0.962 . S
C862 H876 0.960 . S
C863 C860 1.511 . S
C863 H877 0.961 . S
C863 H878 0.961 . S
C863 H879 0.961 . S
C864 C865 1.370 . S
C864 C866 1.363 . S
C864 H880 0.931 . S
C865 C864 1.370 . S
C865 C869 1.408 . S
C866 C864 1.363 . S
C866 C867 1.370 . S
C866 C870 1.524 . S
C867 C859 1.503 . S
C867 C866 1.370 . S
C867 C868 1.403 . S
C868 C867 1.403 . S
C868 C869 1.404 . S
C868 C871 1.539 . S
C869 C865 1.408 . S
C869 C868 1.404 . S
C869 H881 0.930 . S
C870 C866 1.524 . S
C870 H882 0.956 . S
C870 H883 0.961 . S
C870 H884 0.961 . S
C871 C868 1.539 . S
C871 H885 0.958 . S
C871 H886 0.961 . S
C871 H887 0.960 . S
H872 C856 0.931 . S
H873 C861 0.929 . S
H874 C862 0.960 . S
H875 C862 0.962 . S
H876 C862 0.960 . S
H877 C863 0.961 . S
H878 C863 0.961 . S
H879 C863 0.961 . S
H880 C864 0.931 . S
H881 C869 0.930 . S
H882 C870 0.956 . S
H883 C870 0.961 . S
H884 C870 0.961 . S
H885 C871 0.958 . S
H886 C871 0.961 . S
H887 C871 0.960 . S
C888 C889 1.391 . S
C888 C890 1.394 . S
C888 H904 0.931 . S
C889 C888 1.391 . S
C889 C893 1.376 . S
C890 C888 1.394 . S
C890 C891 1.369 . S
C890 C894 1.531 . S
C891 C890 1.369 . S
C891 C892 1.410 . S
C891 C899 1.503 1_556 S
C892 C891 1.410 . S
C892 C893 1.392 . S
C892 C895 1.511 . S
C893 C889 1.376 . S
C893 C892 1.392 . S
C893 H905 0.929 . S
C894 C890 1.531 . S
C894 H906 0.960 1_556 S
C894 H907 0.962 . S
C894 H908 0.960 . S
C895 C892 1.511 . S
C895 H909 0.961 . S
C895 H910 0.962 . S
C895 H911 0.961 . S
C896 C897 1.370 . S
C896 C898 1.363 . S
C896 H912 0.931 . S
C897 C896 1.370 . S
C897 C901 1.408 . S
C898 C896 1.363 . S
C898 C899 1.370 . S
C898 C902 1.524 1_554 S
C899 C891 1.503 1_554 S
C899 C898 1.370 . S
C899 C900 1.403 . S
C900 C899 1.403 . S
C900 C901 1.404 . S
C900 C903 1.539 . S
C901 C897 1.408 . S
C901 C900 1.404 . S
C901 H913 0.930 . S
C902 C898 1.524 1_556 S
C902 H914 0.956 . S
C902 H915 0.961 . S
C902 H916 0.961 . S
C903 C900 1.539 . S
C903 H917 0.958 . S
C903 H918 0.961 . S
C903 H919 0.960 . S
H904 C888 0.931 . S
H905 C893 0.929 . S
H906 C894 0.960 1_554 S
H907 C894 0.962 . S
H908 C894 0.960 . S
H909 C895 0.961 . S
H910 C895 0.962 . S
H911 C895 0.961 . S
H912 C896 0.931 . S
H913 C901 0.930 . S
H914 C902 0.956 . S
H915 C902 0.961 . S
H916 C902 0.961 . S
H917 C903 0.958 . S
H918 C903 0.961 . S
H919 C903 0.960 . S
C920 C921 1.391 . S
C920 C922 1.394 . S
C920 H936 0.931 . S
C921 C920 1.391 . S
C921 C925 1.376 . S
C922 C920 1.394 . S
C922 C923 1.369 . S
C922 C926 1.531 . S
C923 C922 1.369 . S
C923 C924 1.410 . S
C923 C931 1.503 . S
C924 C923 1.410 . S
C924 C925 1.392 . S
C924 C927 1.511 . S
C925 C921 1.376 . S
C925 C924 1.392 . S
C925 H937 0.929 . S
C926 C922 1.531 . S
C926 H938 0.960 . S
C926 H939 0.962 . S
C926 H940 0.960 . S
C927 C924 1.511 . S
C927 H941 0.961 . S
C927 H942 0.961 . S
C927 H943 0.961 . S
C928 C929 1.370 . S
C928 C930 1.363 . S
C928 H944 0.931 . S
C929 C928 1.370 . S
C929 C933 1.408 . S
C930 C928 1.363 . S
C930 C931 1.370 . S
C930 C934 1.524 . S
C931 C923 1.503 . S
C931 C930 1.370 . S
C931 C932 1.403 . S
C932 C931 1.403 . S
C932 C933 1.404 . S
C932 C935 1.539 . S
C933 C929 1.408 . S
C933 C932 1.404 . S
C933 H945 0.930 . S
C934 C930 1.524 . S
C934 H946 0.956 . S
C934 H947 0.961 . S
C934 H948 0.961 . S
C935 C932 1.539 . S
C935 H949 0.958 . S
C935 H950 0.961 . S
C935 H951 0.960 . S
H936 C920 0.931 . S
H937 C925 0.929 . S
H938 C926 0.960 . S
H939 C926 0.962 . S
H940 C926 0.960 . S
H941 C927 0.961 . S
H942 C927 0.961 . S
H943 C927 0.961 . S
H944 C928 0.931 . S
H945 C933 0.930 . S
H946 C934 0.956 . S
H947 C934 0.961 . S
H948 C934 0.961 . S
H949 C935 0.958 . S
H950 C935 0.961 . S
H951 C935 0.960 . S
C952 C953 1.391 . S
C952 C954 1.394 . S
C952 H968 0.931 . S
C953 C952 1.391 . S
C953 C957 1.376 . S
C954 C952 1.394 . S
C954 C955 1.369 . S
C954 C958 1.531 . S
C955 C954 1.369 . S
C955 C956 1.410 . S
C955 C963 1.503 . S
C956 C955 1.410 . S
C956 C957 1.392 . S
C956 C959 1.511 . S
C957 C953 1.376 . S
C957 C956 1.392 . S
C957 H969 0.929 . S
C958 C954 1.531 . S
C958 H970 0.960 . S
C958 H971 0.962 . S
C958 H972 0.960 . S
C959 C956 1.511 . S
C959 H973 0.961 . S
C959 H974 0.961 . S
C959 H975 0.961 . S
C960 C961 1.370 . S
C960 C962 1.363 . S
C960 H976 0.931 . S
C961 C960 1.370 . S
C961 C965 1.408 . S
C962 C960 1.363 . S
C962 C963 1.370 . S
C962 C966 1.524 . S
C963 C955 1.503 . S
C963 C962 1.370 . S
C963 C964 1.403 . S
C964 C963 1.403 . S
C964 C965 1.404 . S
C964 C967 1.539 . S
C965 C961 1.408 . S
C965 C964 1.404 . S
C965 H977 0.930 . S
C966 C962 1.524 . S
C966 H978 0.956 . S
C966 H979 0.961 . S
C966 H980 0.961 . S
C967 C964 1.539 . S
C967 H981 0.958 . S
C967 H982 0.961 . S
C967 H983 0.960 . S
H968 C952 0.931 . S
H969 C957 0.929 . S
H970 C958 0.960 . S
H971 C958 0.962 . S
H972 C958 0.960 . S
H973 C959 0.961 . S
H974 C959 0.961 . S
H975 C959 0.961 . S
H976 C960 0.931 . S
H977 C965 0.930 . S
H978 C966 0.956 . S
H979 C966 0.961 . S
H980 C966 0.961 . S
H981 C967 0.958 . S
H982 C967 0.961 . S
H983 C967 0.960 . S
C984 C985 1.391 . S
C984 C986 1.394 . S
C984 H1000 0.931 . S
C985 C984 1.391 . S
C985 C989 1.376 . S
C986 C984 1.394 . S
C986 C987 1.369 . S
C986 C990 1.531 . S
C987 C986 1.369 . S
C987 C988 1.410 . S
C987 C995 1.503 . S
C988 C987 1.410 . S
C988 C989 1.392 . S
C988 C991 1.511 . S
C989 C985 1.376 . S
C989 C988 1.392 . S
C989 H1001 0.929 . S
C990 C986 1.531 . S
C990 H1002 0.960 . S
C990 H1003 0.962 . S
C990 H1004 0.960 . S
C991 C988 1.511 . S
C991 H1005 0.961 . S
C991 H1006 0.961 . S
C991 H1007 0.961 . S
C992 C993 1.370 . S
C992 C994 1.363 . S
C992 H1008 0.931 . S
C993 C992 1.370 . S
C993 C997 1.408 . S
C994 C992 1.363 . S
C994 C995 1.370 . S
C994 C998 1.524 . S
C995 C987 1.503 . S
C995 C994 1.370 . S
C995 C996 1.403 . S
C996 C995 1.403 . S
C996 C997 1.404 . S
C996 C999 1.539 . S
C997 C993 1.408 . S
C997 C996 1.404 . S
C997 H1009 0.930 . S
C998 C994 1.524 . S
C998 H1010 0.956 . S
C998 H1011 0.961 . S
C998 H1012 0.961 . S
C999 C996 1.539 . S
C999 H1013 0.958 . S
C999 H1014 0.961 . S
C999 H1015 0.960 . S
H1000 C984 0.931 . S
H1001 C989 0.929 . S
H1002 C990 0.960 . S
H1003 C990 0.962 . S
H1004 C990 0.960 . S
H1005 C991 0.961 . S
H1006 C991 0.961 . S
H1007 C991 0.961 . S
H1008 C992 0.931 . S
H1009 C997 0.930 . S
H1010 C998 0.956 . S
H1011 C998 0.961 . S
H1012 C998 0.961 . S
H1013 C999 0.958 . S
H1014 C999 0.961 . S
H1015 C999 0.960 . S
C1016 C1017 1.391 . S
C1016 C1018 1.394 . S
C1016 H1032 0.931 . S
C1017 C1016 1.391 . S
C1017 C1021 1.376 . S
C1018 C1016 1.394 . S
C1018 C1019 1.369 . S
C1018 C1022 1.531 . S
C1019 C1018 1.369 . S
C1019 C1020 1.410 . S
C1019 C1027 1.503 . S
C1020 C1019 1.410 . S
C1020 C1021 1.392 . S
C1020 C1023 1.511 . S
C1021 C1017 1.376 . S
C1021 C1020 1.392 . S
C1021 H1033 0.929 . S
C1022 C1018 1.531 . S
C1022 H1034 0.960 . S
C1022 H1035 0.962 . S
C1022 H1036 0.960 . S
C1023 C1020 1.511 . S
C1023 H1037 0.961 . S
C1023 H1038 0.961 . S
C1023 H1039 0.961 . S
C1024 C1025 1.370 . S
C1024 C1026 1.363 . S
C1024 H1040 0.931 . S
C1025 C1024 1.370 . S
C1025 C1029 1.408 . S
C1026 C1024 1.363 . S
C1026 C1027 1.370 . S
C1026 C1030 1.524 . S
C1027 C1019 1.503 . S
C1027 C1026 1.370 . S
C1027 C1028 1.403 . S
C1028 C1027 1.403 . S
C1028 C1029 1.404 . S
C1028 C1031 1.539 . S
C1029 C1025 1.408 . S
C1029 C1028 1.404 . S
C1029 H1041 0.930 . S
C1030 C1026 1.524 . S
C1030 H1042 0.956 . S
C1030 H1043 0.961 . S
C1030 H1044 0.961 . S
C1031 C1028 1.539 . S
C1031 H1045 0.958 . S
C1031 H1046 0.961 . S
C1031 H1047 0.960 . S
H1032 C1016 0.931 . S
H1033 C1021 0.929 . S
H1034 C1022 0.960 . S
H1035 C1022 0.962 . S
H1036 C1022 0.960 . S
H1037 C1023 0.961 . S
H1038 C1023 0.961 . S
H1039 C1023 0.961 . S
H1040 C1024 0.931 . S
H1041 C1029 0.930 . S
H1042 C1030 0.956 . S
H1043 C1030 0.961 . S
H1044 C1030 0.961 . S
H1045 C1031 0.958 . S
H1046 C1031 0.961 . S
H1047 C1031 0.960 . S
C1048 C1049 1.391 . S
C1048 C1050 1.394 . S
C1048 H1064 0.931 . S
C1049 C1048 1.391 . S
C1049 C1053 1.376 . S
C1050 C1048 1.394 . S
C1050 C1051 1.369 . S
C1050 C1054 1.531 . S
C1051 C1050 1.369 . S
C1051 C1052 1.410 . S
C1051 C1059 1.503 . S
C1052 C1051 1.410 . S
C1052 C1053 1.392 . S
C1052 C1055 1.511 . S
C1053 C1049 1.376 . S
C1053 C1052 1.392 . S
C1053 H1065 0.929 . S
C1054 C1050 1.531 . S
C1054 H1066 0.960 . S
C1054 H1067 0.962 . S
C1054 H1068 0.960 . S
C1055 C1052 1.511 . S
C1055 H1069 0.961 . S
C1055 H1070 0.961 . S
C1055 H1071 0.961 . S
C1056 C1057 1.370 . S
C1056 C1058 1.363 . S
C1056 H1072 0.931 . S
C1057 C1056 1.370 . S
C1057 C1061 1.408 . S
C1058 C1056 1.363 . S
C1058 C1059 1.370 . S
C1058 C1062 1.524 . S
C1059 C1051 1.503 . S
C1059 C1058 1.370 . S
C1059 C1060 1.403 . S
C1060 C1059 1.403 . S
C1060 C1061 1.404 . S
C1060 C1063 1.539 . S
C1061 C1057 1.408 . S
C1061 C1060 1.404 . S
C1061 H1073 0.930 . S
C1062 C1058 1.524 . S
C1062 H1074 0.956 . S
C1062 H1075 0.961 . S
C1062 H1076 0.961 . S
C1063 C1060 1.539 . S
C1063 H1077 0.958 . S
C1063 H1078 0.961 . S
C1063 H1079 0.960 . S
H1064 C1048 0.931 . S
H1065 C1053 0.929 . S
H1066 C1054 0.960 . S
H1067 C1054 0.962 . S
H1068 C1054 0.960 . S
H1069 C1055 0.961 . S
H1070 C1055 0.961 . S
H1071 C1055 0.961 . S
H1072 C1056 0.931 . S
H1073 C1061 0.930 . S
H1074 C1062 0.956 . S
H1075 C1062 0.961 . S
H1076 C1062 0.961 . S
H1077 C1063 0.958 . S
H1078 C1063 0.961 . S
H1079 C1063 0.960 . S
C1080 C1081 1.391 . S
C1080 C1082 1.394 . S
C1080 H1096 0.931 . S
C1081 C1080 1.391 . S
C1081 C1085 1.376 . S
C1082 C1080 1.394 . S
C1082 C1083 1.369 . S
C1082 C1086 1.531 . S
C1083 C1082 1.369 . S
C1083 C1084 1.410 . S
C1083 C1091 1.503 . S
C1084 C1083 1.410 . S
C1084 C1085 1.392 . S
C1084 C1087 1.511 . S
C1085 C1081 1.376 . S
C1085 C1084 1.392 . S
C1085 H1097 0.929 . S
C1086 C1082 1.531 . S
C1086 H1098 0.960 . S
C1086 H1099 0.962 . S
C1086 H1100 0.960 . S
C1087 C1084 1.511 . S
C1087 H1101 0.961 . S
C1087 H1102 0.961 . S
C1087 H1103 0.961 . S
C1088 C1089 1.370 . S
C1088 C1090 1.363 . S
C1088 H1104 0.931 . S
C1089 C1088 1.370 . S
C1089 C1093 1.408 . S
C1090 C1088 1.363 . S
C1090 C1091 1.370 . S
C1090 C1094 1.524 . S
C1091 C1083 1.503 . S
C1091 C1090 1.370 . S
C1091 C1092 1.403 . S
C1092 C1091 1.403 . S
C1092 C1093 1.404 . S
C1092 C1095 1.539 . S
C1093 C1089 1.408 . S
C1093 C1092 1.404 . S
C1093 H1105 0.930 . S
C1094 C1090 1.524 . S
C1094 H1106 0.956 . S
C1094 H1107 0.961 . S
C1094 H1108 0.961 . S
C1095 C1092 1.539 . S
C1095 H1109 0.958 . S
C1095 H1110 0.961 1_655 S
C1095 H1111 0.960 . S
H1096 C1080 0.931 . S
H1097 C1085 0.929 . S
H1098 C1086 0.960 . S
H1099 C1086 0.962 . S
H1100 C1086 0.960 . S
H1101 C1087 0.961 . S
H1102 C1087 0.961 . S
H1103 C1087 0.961 . S
H1104 C1088 0.931 . S
H1105 C1093 0.930 . S
H1106 C1094 0.956 . S
H1107 C1094 0.961 . S
H1108 C1094 0.961 . S
H1109 C1095 0.958 . S
H1110 C1095 0.961 1_455 S
H1111 C1095 0.960 . S
C1112 C1113 1.391 . S
C1112 C1114 1.394 . S
C1112 H1128 0.931 . S
C1113 C1112 1.391 . S
C1113 C1117 1.376 . S
C1114 C1112 1.394 . S
C1114 C1115 1.369 . S
C1114 C1118 1.531 . S
C1115 C1114 1.369 . S
C1115 C1116 1.410 . S
C1115 C1123 1.503 . S
C1116 C1115 1.410 . S
C1116 C1117 1.392 . S
C1116 C1119 1.511 . S
C1117 C1113 1.376 . S
C1117 C1116 1.392 . S
C1117 H1129 0.929 . S
C1118 C1114 1.531 . S
C1118 H1130 0.960 . S
C1118 H1131 0.962 . S
C1118 H1132 0.960 . S
C1119 C1116 1.511 . S
C1119 H1133 0.961 . S
C1119 H1134 0.961 . S
C1119 H1135 0.961 . S
C1120 C1121 1.370 . S
C1120 C1122 1.363 . S
C1120 H1136 0.931 . S
C1121 C1120 1.370 . S
C1121 C1125 1.408 . S
C1122 C1120 1.363 . S
C1122 C1123 1.370 . S
C1122 C1126 1.524 . S
C1123 C1115 1.503 . S
C1123 C1122 1.370 . S
C1123 C1124 1.403 . S
C1124 C1123 1.403 . S
C1124 C1125 1.404 . S
C1124 C1127 1.539 . S
C1125 C1121 1.408 . S
C1125 C1124 1.404 . S
C1125 H1137 0.930 . S
C1126 C1122 1.524 . S
C1126 H1138 0.956 . S
C1126 H1139 0.961 . S
C1126 H1140 0.961 . S
C1127 C1124 1.539 . S
C1127 H1141 0.958 . S
C1127 H1142 0.961 . S
C1127 H1143 0.960 . S
H1128 C1112 0.931 . S
H1129 C1117 0.929 . S
H1130 C1118 0.960 . S
H1131 C1118 0.962 . S
H1132 C1118 0.960 . S
H1133 C1119 0.961 . S
H1134 C1119 0.961 . S
H1135 C1119 0.961 . S
H1136 C1120 0.931 . S
H1137 C1125 0.930 . S
H1138 C1126 0.956 . S
H1139 C1126 0.961 . S
H1140 C1126 0.961 . S
H1141 C1127 0.958 . S
H1142 C1127 0.961 . S
H1143 C1127 0.960 . S
C1144 C1145 1.391 . S
C1144 C1146 1.394 . S
C1144 H1160 0.931 . S
C1145 C1144 1.391 . S
C1145 C1149 1.376 . S
C1146 C1144 1.394 . S
C1146 C1147 1.369 . S
C1146 C1150 1.531 . S
C1147 C1146 1.369 . S
C1147 C1148 1.410 . S
C1147 C1155 1.503 . S
C1148 C1147 1.410 . S
C1148 C1149 1.392 . S
C1148 C1151 1.511 . S
C1149 C1145 1.376 . S
C1149 C1148 1.392 . S
C1149 H1161 0.929 . S
C1150 C1146 1.531 . S
C1150 H1162 0.960 . S
C1150 H1163 0.962 . S
C1150 H1164 0.960 . S
C1151 C1148 1.511 . S
C1151 H1165 0.961 . S
C1151 H1166 0.961 . S
C1151 H1167 0.961 . S
C1152 C1153 1.370 . S
C1152 C1154 1.363 . S
C1152 H1168 0.931 . S
C1153 C1152 1.370 . S
C1153 C1157 1.408 . S
C1154 C1152 1.363 . S
C1154 C1155 1.370 . S
C1154 C1158 1.524 . S
C1155 C1147 1.503 . S
C1155 C1154 1.370 . S
C1155 C1156 1.403 . S
C1156 C1155 1.403 . S
C1156 C1157 1.404 . S
C1156 C1159 1.539 . S
C1157 C1153 1.408 . S
C1157 C1156 1.404 . S
C1157 H1169 0.930 . S
C1158 C1154 1.524 . S
C1158 H1170 0.956 . S
C1158 H1171 0.961 . S
C1158 H1172 0.961 . S
C1159 C1156 1.539 . S
C1159 H1173 0.958 . S
C1159 H1174 0.961 . S
C1159 H1175 0.960 . S
H1160 C1144 0.931 . S
H1161 C1149 0.929 . S
H1162 C1150 0.960 . S
H1163 C1150 0.962 . S
H1164 C1150 0.960 . S
H1165 C1151 0.961 . S
H1166 C1151 0.961 . S
H1167 C1151 0.961 . S
H1168 C1152 0.931 . S
H1169 C1157 0.930 . S
H1170 C1158 0.956 . S
H1171 C1158 0.961 . S
H1172 C1158 0.961 . S
H1173 C1159 0.958 . S
H1174 C1159 0.961 . S
H1175 C1159 0.960 . S
C1176 C1177 1.391 . S
C1176 C1178 1.394 . S
C1176 H1192 0.931 . S
C1177 C1176 1.391 . S
C1177 C1181 1.376 . S
C1178 C1176 1.394 . S
C1178 C1179 1.369 . S
C1178 C1182 1.531 . S
C1179 C1178 1.369 . S
C1179 C1180 1.410 . S
C1179 C1187 1.503 . S
C1180 C1179 1.410 . S
C1180 C1181 1.392 . S
C1180 C1183 1.511 . S
C1181 C1177 1.376 . S
C1181 C1180 1.392 . S
C1181 H1193 0.929 . S
C1182 C1178 1.531 . S
C1182 H1194 0.960 . S
C1182 H1195 0.962 . S
C1182 H1196 0.960 . S
C1183 C1180 1.511 . S
C1183 H1197 0.961 . S
C1183 H1198 0.961 . S
C1183 H1199 0.961 . S
C1184 C1185 1.370 . S
C1184 C1186 1.363 . S
C1184 H1200 0.931 . S
C1185 C1184 1.370 . S
C1185 C1189 1.408 . S
C1186 C1184 1.363 . S
C1186 C1187 1.370 . S
C1186 C1190 1.524 . S
C1187 C1179 1.503 . S
C1187 C1186 1.370 . S
C1187 C1188 1.403 . S
C1188 C1187 1.403 . S
C1188 C1189 1.404 . S
C1188 C1191 1.539 . S
C1189 C1185 1.408 . S
C1189 C1188 1.404 . S
C1189 H1201 0.930 . S
C1190 C1186 1.524 . S
C1190 H1202 0.956 . S
C1190 H1203 0.961 . S
C1190 H1204 0.961 . S
C1191 C1188 1.539 . S
C1191 H1205 0.958 . S
C1191 H1206 0.961 . S
C1191 H1207 0.960 . S
H1192 C1176 0.931 . S
H1193 C1181 0.929 . S
H1194 C1182 0.960 . S
H1195 C1182 0.962 . S
H1196 C1182 0.960 . S
H1197 C1183 0.961 . S
H1198 C1183 0.961 . S
H1199 C1183 0.961 . S
H1200 C1184 0.931 . S
H1201 C1189 0.930 . S
H1202 C1190 0.956 . S
H1203 C1190 0.961 . S
H1204 C1190 0.961 . S
H1205 C1191 0.958 . S
H1206 C1191 0.961 . S
H1207 C1191 0.960 . S
C441 N83 1.641 . S
C449 C160 1.644 . S
C481 C244 1.647 . S
C473 N96 1.651 . S
C513 C243 1.648 . S
C505 N57 1.644 . S
C537 N70 1.642 . S
C545 C159 1.648 . S
C577 C340 1.631 . S
C569 N31 1.620 . S
C609 C424 1.647 . S
C601 N44 1.656 . S
C633 N5 1.646 . S
C641 C423 1.649 . S
C665 N18 1.642 . S
C673 C339 1.654 . S
C705 C162 1.430 . S
C697 N14 1.611 . S
C737 C246 1.469 . S
C729 N1 1.613 . S
C769 C258 1.378 . S
C761 N40 1.606 . S
C801 C174 1.387 . S
C793 N27 1.609 . S
C833 C342 1.470 . S
C825 N66 1.593 . S
C857 N53 1.609 . S
C865 C426 1.459 . S
C897 C414 1.371 . S
C889 N92 1.607 . S
C921 N79 1.619 . S
C929 C330 1.403 . S
C961 C171 1.547 . S
C953 N2 1.537 . S
C993 C255 1.546 . S
C985 N15 1.548 . S
C1017 N28 1.533 . S
C1025 C256 1.505 . S
C1057 C172 1.508 . S
C1049 N41 1.532 . S
C1089 C327 1.548 . S
C1081 N54 1.544 . S
C1113 N67 1.540 . S
C1121 C411 1.548 . S
C1145 N80 1.541 . S
C1153 C412 1.515 . S
C1177 N93 1.536 . S
C1185 C328 1.510 . S
