# Generated by pormake.
# Topology zzz, (3,6)-cn, num edge types: 1
# Building blocks:
#     Node 0, Type 0, BuildingBlock: PAMTOO_clean_linker_0, # of connection points: 3
#     Node 1, Type 0, BuildingBlock: PAMTOO_clean_linker_0, # of connection points: 3
#     Node 2, Type 0, BuildingBlock: PAMTOO_clean_linker_0, # of connection points: 3
#     Node 3, Type 0, BuildingBlock: PAMTOO_clean_linker_0, # of connection points: 3
#     Node 4, Type 0, BuildingBlock: PAMTOO_clean_linker_0, # of connection points: 3
#     Node 5, Type 0, BuildingBlock: PAMTOO_clean_linker_0, # of connection points: 3
#     Node 6, Type 0, BuildingBlock: PAMTOO_clean_linker_0, # of connection points: 3
#     Node 7, Type 0, BuildingBlock: PAMTOO_clean_linker_0, # of connection points: 3
#     Node 8, Type 1, BuildingBlock: CIFDUS_clean_sbu_1, # of connection points: 6
#     Node 9, Type 1, BuildingBlock: CIFDUS_clean_sbu_1, # of connection points: 6
#     Node 10, Type 1, BuildingBlock: CIFDUS_clean_sbu_1, # of connection points: 6
#     Node 11, Type 1, BuildingBlock: CIFDUS_clean_sbu_1, # of connection points: 6
#     Edge 12, Type (0, 1), BuildingBlock: UVAHIK_clean_linker_0, # of connection points: 2
#     Edge 13, Type (0, 1), BuildingBlock: UVAHIK_clean_linker_0, # of connection points: 2
#     Edge 14, Type (0, 1), BuildingBlock: UVAHIK_clean_linker_0, # of connection points: 2
#     Edge 15, Type (0, 1), BuildingBlock: UVAHIK_clean_linker_0, # of connection points: 2
#     Edge 16, Type (0, 1), BuildingBlock: UVAHIK_clean_linker_0, # of connection points: 2
#     Edge 17, Type (0, 1), BuildingBlock: UVAHIK_clean_linker_0, # of connection points: 2
#     Edge 18, Type (0, 1), BuildingBlock: UVAHIK_clean_linker_0, # of connection points: 2
#     Edge 19, Type (0, 1), BuildingBlock: UVAHIK_clean_linker_0, # of connection points: 2
#     Edge 20, Type (0, 1), BuildingBlock: UVAHIK_clean_linker_0, # of connection points: 2
#     Edge 21, Type (0, 1), BuildingBlock: UVAHIK_clean_linker_0, # of connection points: 2
#     Edge 22, Type (0, 1), BuildingBlock: UVAHIK_clean_linker_0, # of connection points: 2
#     Edge 23, Type (0, 1), BuildingBlock: UVAHIK_clean_linker_0, # of connection points: 2
#     Edge 24, Type (0, 1), BuildingBlock: UVAHIK_clean_linker_0, # of connection points: 2
#     Edge 25, Type (0, 1), BuildingBlock: UVAHIK_clean_linker_0, # of connection points: 2
#     Edge 26, Type (0, 1), BuildingBlock: UVAHIK_clean_linker_0, # of connection points: 2
#     Edge 27, Type (0, 1), BuildingBlock: UVAHIK_clean_linker_0, # of connection points: 2
#     Edge 28, Type (0, 1), BuildingBlock: UVAHIK_clean_linker_0, # of connection points: 2
#     Edge 29, Type (0, 1), BuildingBlock: UVAHIK_clean_linker_0, # of connection points: 2
#     Edge 30, Type (0, 1), BuildingBlock: UVAHIK_clean_linker_0, # of connection points: 2
#     Edge 31, Type (0, 1), BuildingBlock: UVAHIK_clean_linker_0, # of connection points: 2
#     Edge 32, Type (0, 1), BuildingBlock: UVAHIK_clean_linker_0, # of connection points: 2
#     Edge 33, Type (0, 1), BuildingBlock: UVAHIK_clean_linker_0, # of connection points: 2
#     Edge 34, Type (0, 1), BuildingBlock: UVAHIK_clean_linker_0, # of connection points: 2
#     Edge 35, Type (0, 1), BuildingBlock: UVAHIK_clean_linker_0, # of connection points: 2
# Relax obj value: 0.142
# Max RMSD: 0.188
# Mean RMSD: 0.105
data_MOF--net-zzz--node1-CIFDUS_clean_sbu_1--node2-PAMTOO_clean_linker_0--edge1-UVAHIK_clean_linker_0
_symmetry_space_group_name_H-M    P1
_symmetry_Int_Tables_number       1
_symmetry_cell_setting            triclinic
loop_
_symmetry_equiv_pos_as_xyz
'x, y, z'
_cell_length_a     63.501047
_cell_length_b     63.482002
_cell_length_c     20.567701
_cell_angle_alpha  89.990015
_cell_angle_beta   90.23117
_cell_angle_gamma 89.950098
loop_
_atom_site_label
_atom_site_type_symbol
_atom_site_fract_x
_atom_site_fract_y
_atom_site_fract_z
_atom_type_partial_charge
H0 H 0.82893 0.56385 0.2163 0.0
H1 H 0.77729 0.56388 0.08065 0.0
H2 H 0.76779 0.54305 0.27809 0.0
H3 H 0.73825 0.52075 0.17833 0.0
C4 C 0.74131 0.53203 0.1381 0.0
O5 O 0.7492 0.55053 0.16406 0.0
H6 H 0.75311 0.52456 0.10542 0.0
C7 C 0.81233 0.56137 0.206 0.0
C8 C 0.7994 0.55339 0.25497 0.0
C9 C 0.80467 0.56512 0.14324 0.0
C10 C 0.78341 0.56108 0.12915 0.0
C11 C 0.76995 0.55338 0.17781 0.0
C12 C 0.77805 0.54921 0.24073 0.0
H13 H 0.97981 0.82522 0.19684 0.0
H14 H 0.98014 0.76971 0.07823 0.0
H15 H 0.97799 0.76408 0.28739 0.0
H16 H 1.0006 0.72496 0.21875 0.0
C17 C 0.996 0.73052 0.16944 0.0
O18 O 0.97818 0.74299 0.1752 0.0
H19 H 0.00941 0.7398 0.1497 0.0
C20 C 0.97929 0.80816 0.19321 0.0
C21 C 0.9784 0.79601 0.24984 0.0
C22 C 0.98 0.79889 0.13181 0.0
C23 C 0.97967 0.77695 0.12589 0.0
C24 C 0.979 0.76427 0.18191 0.0
C25 C 0.97858 0.77382 0.2442 0.0
H26 H 0.7075 0.96547 0.21974 0.0
H27 H 0.75911 0.96444 0.08539 0.0
H28 H 0.76905 0.98511 0.28294 0.0
H29 H 0.79892 1.0067 0.18675 0.0
C30 C 0.79575 0.99584 0.14548 0.0
O31 O 0.78744 0.9773 0.16967 0.0
H32 H 0.78421 1.00375 0.11262 0.0
C33 C 0.72415 0.96761 0.20994 0.0
C34 C 0.73725 0.97536 0.2592 0.0
C35 C 0.73172 0.96369 0.14736 0.0
C36 C 0.75304 0.96737 0.13372 0.0
C37 C 0.76664 0.97482 0.18273 0.0
C38 C 0.75865 0.97913 0.24539 0.0
H39 H 0.56582 0.70734 0.20844 0.0
H40 H 0.56599 0.75985 0.07673 0.0
H41 H 0.54377 0.76784 0.27321 0.0
H42 H 0.52228 0.79892 0.17496 0.0
C43 C 0.53337 0.79529 0.1348 0.0
O44 O 0.5518 0.78726 0.16121 0.0
H45 H 0.52561 0.78338 0.103 0.0
C46 C 0.56316 0.72398 0.1993 0.0
C47 C 0.55469 0.73648 0.24865 0.0
C48 C 0.56721 0.73211 0.13742 0.0
C49 C 0.56295 0.75339 0.12454 0.0
C50 C 0.55474 0.76644 0.17357 0.0
C51 C 0.55029 0.75788 0.23557 0.0
H52 H 0.21038 0.46954 0.23106 0.0
H53 H 0.2617 0.47408 0.36702 0.0
H54 H 0.27003 0.49406 0.16839 0.0
H55 H 0.31161 0.47571 0.2277 0.0
C56 C 0.3053 0.47496 0.27798 0.0
O57 O 0.28878 0.48912 0.28333 0.0
H58 H 0.29969 0.45853 0.28596 0.0
C59 C 0.22682 0.47297 0.24103 0.0
C60 C 0.2392 0.48158 0.19164 0.0
C61 C 0.23461 0.47028 0.3042 0.0
C62 C 0.25553 0.47585 0.31812 0.0
C63 C 0.26855 0.48391 0.2689 0.0
C64 C 0.26023 0.4872 0.20578 0.0
H65 H 0.06814 0.20608 0.22504 0.0
H66 H 0.07 0.25764 0.3605 0.0
H67 H 0.04494 0.26692 0.16749 0.0
H68 H 0.03109 0.28013 0.34839 0.0
C69 C 0.03582 0.29193 0.31117 0.0
O70 O 0.05407 0.28549 0.28025 0.0
H71 H 0.023 0.29301 0.27429 0.0
C72 C 0.06588 0.22268 0.23567 0.0
C73 C 0.05653 0.23553 0.18858 0.0
C74 C 0.07058 0.23032 0.29787 0.0
C75 C 0.06669 0.25159 0.31227 0.0
C76 C 0.05779 0.26498 0.26513 0.0
C77 C 0.05243 0.25684 0.20326 0.0
H78 H 0.33124 0.06699 0.21889 0.0
H79 H 0.28143 0.06767 0.35998 0.0
H80 H 0.27064 0.04147 0.1694 0.0
H81 H 0.23023 0.06152 0.22285 0.0
C82 C 0.23664 0.06425 0.27247 0.0
O83 O 0.25322 0.05045 0.28333 0.0
H84 H 0.24239 0.08082 0.27492 0.0
C85 C 0.3149 0.06417 0.23157 0.0
C86 C 0.30182 0.05417 0.18644 0.0
C87 C 0.3079 0.06894 0.29431 0.0
C88 C 0.28701 0.0643 0.31137 0.0
C89 C 0.27333 0.05492 0.26591 0.0
C90 C 0.2809 0.04943 0.20366 0.0
H91 H 0.47133 0.32806 0.22873 0.0
H92 H 0.47227 0.27658 0.36423 0.0
H93 H 0.49703 0.26828 0.1709 0.0
H94 H 0.51177 0.25525 0.35292 0.0
C95 C 0.50731 0.2433 0.31574 0.0
O96 O 0.48904 0.24939 0.2838 0.0
H97 H 0.52023 0.24231 0.27952 0.0
C98 C 0.47453 0.31161 0.23928 0.0
C99 C 0.48412 0.29917 0.19172 0.0
C100 C 0.47033 0.30379 0.30146 0.0
C101 C 0.47536 0.2828 0.31615 0.0
C102 C 0.48477 0.26983 0.26904 0.0
C103 C 0.48949 0.27814 0.20693 0.0
O104 O 0.01956 0.04611 0.76425 0.0
Mn105 Mn 0.01681 0.01809 0.71025 0.0
O106 O 0.99308 0.06659 0.72592 0.0
Mn107 Mn 0.97997 0.04716 0.67083 0.0
O108 O 0.0136 0.99014 0.65621 0.0
O109 O 0.04854 0.01368 0.71476 0.0
Mn110 Mn 0.05333 0.9882 0.74552 0.0
O111 O 0.01119 1.00048 0.79448 0.0
O112 O 0.04154 0.96995 0.68425 0.0
O113 O 0.02228 0.03592 0.62568 0.0
O114 O 0.99094 0.04625 0.58812 0.0
O115 O 0.07946 0.99953 0.73057 0.0
O116 O 0.04176 0.98661 0.8275 0.0
C117 C 0.96532 0.02076 0.71718 0.0
C118 C 0.00932 0.06372 0.76206 0.0
C119 C 0.02454 0.97306 0.65208 0.0
C120 C 0.06881 0.01524 0.70744 0.0
C121 C 0.02222 0.98997 0.83568 0.0
C122 C 0.01082 0.04511 0.58245 0.0
O123 O 0.98532 0.02255 0.70644 0.0
O124 O 0.95416 0.03588 0.69271 0.0
O125 O 0.53638 1.00485 0.79897 0.0
Mn126 Mn 0.51987 0.01714 0.71968 0.0
O127 O 0.54908 0.03159 0.8579 0.0
Mn128 Mn 0.55002 0.04918 0.78598 0.0
O129 O 0.50331 0.02934 0.64039 0.0
O130 O 0.51436 0.98728 0.69246 0.0
Mn131 Mn 0.49008 0.98508 0.6518 0.0
O132 O 0.49132 0.01681 0.77098 0.0
O133 O 0.4915 1.0026 0.57983 0.0
O134 O 0.54832 0.01728 0.66829 0.0
O135 O 0.5691 0.04043 0.72236 0.0
O136 O 0.50102 0.95799 0.65946 0.0
O137 O 0.47071 0.99427 0.71391 0.0
C138 C 0.5246 0.0675 0.74534 0.0
C139 C 0.54602 0.01196 0.84933 0.0
C140 C 0.49409 0.02226 0.58923 0.0
C141 C 0.51559 0.96698 0.69366 0.0
C142 C 0.47357 1.0074 0.76053 0.0
C143 C 0.56597 0.02704 0.67667 0.0
O144 O 0.52549 0.04713 0.74658 0.0
O145 O 0.53926 0.0763 0.77971 0.0
O146 O 0.53061 0.5353 0.79754 0.0
Mn147 Mn 0.51913 0.51765 0.7197 0.0
O148 O 0.50331 0.54861 0.85246 0.0
Mn149 Mn 0.48601 0.54808 0.7796 0.0
O150 O 0.50758 0.50006 0.64183 0.0
O151 O 0.54927 0.51222 0.69504 0.0
Mn152 Mn 0.55212 0.48727 0.65916 0.0
O153 O 0.51952 0.48973 0.77473 0.0
O154 O 0.5348 0.48689 0.58631 0.0
O155 O 0.51878 0.54557 0.66459 0.0
O156 O 0.49456 0.56638 0.71353 0.0
O157 O 0.57894 0.49878 0.66589 0.0
O158 O 0.54353 0.46888 0.72496 0.0
C159 C 0.46875 0.52139 0.74233 0.0
C160 C 0.52303 0.54558 0.84582 0.0
C161 C 0.51509 0.48987 0.59327 0.0
C162 C 0.56957 0.51363 0.69772 0.0
C163 C 0.52981 0.47224 0.76937 0.0
C164 C 0.50841 0.56303 0.66952 0.0
O165 O 0.48902 0.52305 0.74438 0.0
O166 O 0.45927 0.53635 0.77333 0.0
O167 O 0.04716 0.51666 0.77771 0.0
Mn168 Mn 0.01917 0.51663 0.72264 0.0
O169 O 0.06758 0.54155 0.73048 0.0
Mn170 Mn 0.04911 0.55059 0.66522 0.0
O171 O 0.99119 0.51668 0.66763 0.0
O172 O 0.01398 0.48607 0.74446 0.0
Mn173 Mn 0.98909 0.48314 0.78064 0.0
O174 O 1.00159 0.52739 0.8013 0.0
O175 O 0.97048 0.49224 0.71576 0.0
O176 O 0.03687 0.50608 0.64402 0.0
O177 O 0.04971 0.53401 0.59102 0.0
O178 O 1.00039 0.45633 0.77356 0.0
O179 O 0.98872 0.49967 0.85495 0.0
C180 C 0.02232 0.56727 0.70381 0.0
C181 C 0.06449 0.52725 0.77344 0.0
C182 C 0.97371 0.50637 0.67242 0.0
C183 C 0.01529 0.46571 0.74209 0.0
C184 C 0.99154 0.51944 0.84938 0.0
C185 C 0.04701 0.5142 0.59635 0.0
O186 O 0.02422 0.54703 0.70047 0.0
O187 O 0.03712 0.57717 0.67346 0.0
C188 C 0.21287 0.041 0.34189 0.0
C189 C 0.21901 0.06119 0.32127 0.0
C190 C 0.19542 0.03838 0.38284 0.0
C191 C 0.15931 0.06788 0.49418 0.0
H192 H 0.12397 0.01872 0.471 0.0
C193 C 0.09727 0.04085 0.68352 0.0
C194 C 0.07953 0.02961 0.66201 0.0
C195 C 0.11249 0.04785 0.63926 0.0
C196 C 0.13341 0.03275 0.4777 0.0
H197 H 0.21103 0.09432 0.32521 0.0
H198 H 0.18057 0.08982 0.39568 0.0
H199 H 0.1541 0.02394 0.40043 0.0
H200 H 0.06389 0.01674 0.57765 0.0
H201 H 0.08967 0.02992 0.49962 0.0
H202 H 0.13834 0.07685 0.57083 0.0
C203 C 0.18957 0.07601 0.38226 0.0
C204 C 0.15102 0.03555 0.43775 0.0
C205 C 0.20704 0.07861 0.34164 0.0
C206 C 0.07684 0.02634 0.59514 0.0
C207 C 0.09199 0.03336 0.5507 0.0
C208 C 0.14163 0.06511 0.53406 0.0
C209 C 0.1834 0.05585 0.40339 0.0
C210 C 0.16437 0.05306 0.44565 0.0
C211 C 0.1105 0.04346 0.57234 0.0
C212 C 0.12847 0.04742 0.52676 0.0
H213 H 0.22146 0.02721 0.32594 0.0
H214 H 0.19138 0.02261 0.39844 0.0
H215 H 0.16923 0.08149 0.50236 0.0
H216 H 0.10018 0.0428 0.73512 0.0
H217 H 0.12656 0.05529 0.65825 0.0
C218 C 0.52334 0.21105 0.36753 0.0
C219 C 0.50505 0.22223 0.35029 0.0
C220 C 0.52221 0.19251 0.40426 0.0
C221 C 0.48672 0.16254 0.5159 0.0
H222 H 0.52947 0.11963 0.49338 0.0
C223 C 0.50441 0.09946 0.7127 0.0
C224 C 0.51374 0.08025 0.69503 0.0
C225 C 0.4997 0.1148 0.66572 0.0
C226 C 0.51709 0.13114 0.49999 0.0
H227 H 0.47109 0.22289 0.3604 0.0
H228 H 0.46895 0.19007 0.42233 0.0
H229 H 0.52827 0.14938 0.41989 0.0
H230 H 0.52584 0.06228 0.614 0.0
H231 H 0.51627 0.08816 0.53143 0.0
H232 H 0.47517 0.14391 0.59494 0.0
C233 C 0.48431 0.1957 0.40782 0.0
C234 C 0.51666 0.14859 0.4582 0.0
C235 C 0.48549 0.21444 0.37146 0.0
C236 C 0.51769 0.07645 0.62893 0.0
C237 C 0.51273 0.09167 0.58171 0.0
C238 C 0.48699 0.14492 0.5573 0.0
C239 C 0.50269 0.18446 0.42512 0.0
C240 C 0.50179 0.16486 0.46629 0.0
C241 C 0.50437 0.11144 0.59954 0.0
C242 C 0.50246 0.12911 0.55095 0.0
H243 H 0.53867 0.21693 0.35353 0.0
H244 H 0.53681 0.18484 0.41777 0.0
H245 H 0.47505 0.17466 0.52435 0.0
H246 H 0.50193 0.10315 0.76353 0.0
H247 H 0.49367 0.12981 0.68223 0.0
C248 C 0.34163 0.48883 0.30783 0.0
C249 C 0.32252 0.47967 0.32725 0.0
C250 C 0.35821 0.49152 0.35241 0.0
C251 C 0.37026 0.49352 0.52995 0.0
H252 H 0.42764 0.48353 0.47371 0.0
C253 C 0.43894 0.49771 0.71345 0.0
C254 C 0.45674 0.50909 0.69374 0.0
C255 C 0.42374 0.49129 0.66797 0.0
C256 C 0.41173 0.48651 0.49019 0.0
H257 H 0.30554 0.46675 0.40892 0.0
H258 H 0.3344 0.47132 0.48694 0.0
H259 H 0.39854 0.47906 0.39683 0.0
H260 H 0.47247 0.52291 0.61097 0.0
H261 H 0.4462 0.51148 0.53128 0.0
H262 H 0.38338 0.50116 0.62299 0.0
C263 C 0.33667 0.47655 0.43735 0.0
C264 C 0.395 0.48401 0.44596 0.0
C265 C 0.32011 0.47386 0.39269 0.0
C266 C 0.45937 0.51337 0.62724 0.0
C267 C 0.44415 0.50698 0.58163 0.0
C268 C 0.38696 0.496 0.57409 0.0
C269 C 0.35608 0.4852 0.41775 0.0
C270 C 0.37399 0.48758 0.46508 0.0
C271 C 0.42574 0.49647 0.60166 0.0
C272 C 0.40796 0.49261 0.55491 0.0
H273 H 0.34391 0.49357 0.25776 0.0
H274 H 0.3727 0.49862 0.33559 0.0
H275 H 0.35442 0.49677 0.54646 0.0
H276 H 0.43622 0.49474 0.76461 0.0
H277 H 0.40997 0.48297 0.68523 0.0
C278 C 0.0202 0.32495 0.359 0.0
C279 C 0.0383 0.31303 0.34541 0.0
C280 C 0.02141 0.34343 0.39597 0.0
C281 C 0.0559 0.37173 0.51522 0.0
H282 H 0.01515 0.4162 0.48586 0.0
C283 C 0.03604 0.434 0.71154 0.0
C284 C 0.02731 0.45347 0.69339 0.0
C285 C 0.04149 0.41897 0.66456 0.0
C286 C 0.02699 0.40424 0.49447 0.0
H287 H 0.07194 0.31096 0.36227 0.0
H288 H 0.0743 0.34369 0.42467 0.0
H289 H 0.01675 0.38673 0.41143 0.0
H290 H 0.01729 0.4723 0.61124 0.0
H291 H 0.02829 0.44699 0.52902 0.0
H292 H 0.06654 0.38962 0.59731 0.0
C293 C 0.05902 0.3387 0.40704 0.0
C294 C 0.02763 0.38697 0.45208 0.0
C295 C 0.05774 0.32002 0.37043 0.0
C296 C 0.02496 0.45792 0.62687 0.0
C297 C 0.0307 0.44302 0.57968 0.0
C298 C 0.05544 0.38918 0.55725 0.0
C299 C 0.04082 0.35067 0.42078 0.0
C300 C 0.04171 0.37013 0.46257 0.0
C301 C 0.03826 0.42293 0.59778 0.0
C302 C 0.04065 0.40553 0.54851 0.0
H303 H 1.00491 0.31967 0.34208 0.0
H304 H 1.0069 0.35167 0.40665 0.0
H305 H 0.06695 0.35918 0.52557 0.0
H306 H 0.03734 0.42983 0.76249 0.0
H307 H 0.04688 0.40371 0.68123 0.0
C308 C 0.83515 0.99982 0.12795 0.0
C309 C 0.81569 0.99163 0.10724 0.0
C310 C 0.85315 0.99779 0.08912 0.0
C311 C 0.86826 0.99022 0.91686 0.0
H312 H 0.92462 0.98423 0.98781 0.0
C313 C 0.93908 0.99347 0.74572 0.0
C314 C 0.95553 1.00675 0.76556 0.0
C315 C 0.92406 0.98642 0.79045 0.0
C316 C 0.90901 0.98598 0.96714 0.0
H317 H 0.79997 0.97424 0.03086 0.0
H318 H 0.8314 0.97036 0.96323 0.0
H319 H 0.89418 0.98216 0.06 0.0
H320 H 0.96964 0.02252 0.84804 0.0
H321 H 0.94353 0.01029 0.92638 0.0
H322 H 0.8829 0.99465 0.82455 0.0
C323 C 0.83277 0.97868 0.00901 0.0
C324 C 0.89151 0.98482 0.00863 0.0
C325 C 0.81477 0.98072 0.0479 0.0
C326 C 0.95747 0.01176 0.83182 0.0
C327 C 0.94236 1.00483 0.87664 0.0
C328 C 0.88569 0.9914 0.87553 0.0
C329 C 0.85216 0.98752 0.02847 0.0
C330 C 0.87087 0.98717 0.98417 0.0
C331 C 0.92485 0.99291 0.85594 0.0
C332 C 0.90637 0.98952 0.89999 0.0
H333 H 0.83633 1.00836 0.17339 0.0
H334 H 0.86766 1.00501 0.10561 0.0
H335 H 0.85273 0.99252 0.89614 0.0
H336 H 0.93693 0.98982 0.69466 0.0
H337 H 0.91112 0.97687 0.77281 0.0
C338 C 0.5306 0.83476 0.11469 0.0
C339 C 0.53769 0.81483 0.0944 0.0
C340 C 0.53264 0.85243 0.07416 0.0
C341 C 0.53826 0.86624 0.89965 0.0
H342 H 0.54765 0.9227 0.96551 0.0
C343 C 0.53856 0.93669 0.7237 0.0
C344 C 0.52704 0.95446 0.74311 0.0
C345 C 0.54414 0.92106 0.76877 0.0
C346 C 0.5449 0.90706 0.94627 0.0
H347 H 0.55331 0.798 0.01701 0.0
H348 H 0.5572 0.82881 0.94639 0.0
H349 H 0.54919 0.89266 0.03985 0.0
H350 H 0.51225 0.96979 0.82502 0.0
H351 H 0.52202 0.94268 0.90396 0.0
H352 H 0.53348 0.88051 0.8066 0.0
C353 C 0.54967 0.8308 0.99313 0.0
C354 C 0.54577 0.88978 0.98901 0.0
C355 C 0.54763 0.81314 0.03373 0.0
C356 C 0.52185 0.95667 0.80911 0.0
C357 C 0.52733 0.94097 0.85429 0.0
C358 C 0.53738 0.88346 0.85707 0.0
C359 C 0.54186 0.85066 0.01218 0.0
C360 C 0.54227 0.8691 0.96642 0.0
C361 C 0.5379 0.92255 0.83431 0.0
C362 C 0.54051 0.90417 0.87967 0.0
H363 H 0.52286 0.83656 0.16121 0.0
H364 H 0.52624 0.86732 0.09053 0.0
H365 H 0.53506 0.8507 0.88036 0.0
H366 H 0.54229 0.93434 0.67285 0.0
H367 H 0.55259 0.90734 0.75157 0.0
C368 C 0.70149 0.53104 0.12537 0.0
C369 C 0.7213 0.53608 0.09945 0.0
C370 C 0.68319 0.53275 0.08722 0.0
C371 C 0.66146 0.55546 0.93281 0.0
H372 H 0.62247 0.50871 0.94457 0.0
C373 C 0.60045 0.53529 0.7311 0.0
C374 C 0.58161 0.52517 0.74812 0.0
C375 C 0.61544 0.54056 0.77868 0.0
C376 C 0.63287 0.52217 0.9413 0.0
H377 H 0.73735 0.54792 0.01448 0.0
H378 H 0.7055 0.55083 0.94748 0.0
H379 H 0.65246 0.51037 0.018 0.0
H380 H 0.56381 0.51247 0.82855 0.0
H381 H 0.58934 0.52254 0.91199 0.0
H382 H 0.64198 0.56705 0.85513 0.0
C383 C 0.70399 0.54559 0.99733 0.0
C384 C 0.65021 0.52309 0.98359 0.0
C385 C 0.72229 0.54384 0.03555 0.0
C386 C 0.57773 0.5211 0.81413 0.0
C387 C 0.59268 0.52642 0.86183 0.0
C388 C 0.64405 0.55458 0.89051 0.0
C389 C 0.6842 0.53965 0.02217 0.0
C390 C 0.66494 0.5396 0.97956 0.0
C391 C 0.61212 0.53553 0.84459 0.0
C392 C 0.6296 0.53776 0.89354 0.0
H393 H 0.70021 0.52523 0.17471 0.0
H394 H 0.66825 0.52843 0.10861 0.0
H395 H 0.67224 0.5686 0.92875 0.0
H396 H 0.60418 0.53793 0.6804 0.0
H397 H 0.63025 0.54727 0.76302 0.0
C398 C 0.98424 0.71511 0.06104 0.0
C399 C 0.9922 0.71198 0.12417 0.0
C400 C 0.983 0.6983 0.01678 0.0
C401 C 0.98613 0.63933 0.00377 0.0
H402 H 1.00219 0.6515 0.82617 0.0
C403 C 0.01412 0.57569 0.81928 0.0
C404 C 0.00984 0.57878 0.75288 0.0
C405 C 1.00769 0.5906 0.86561 0.0
C406 C 0.99727 0.64778 0.87519 0.0
H407 H 1.00529 0.68875 0.18999 0.0
H408 H 1.00335 0.65955 0.1131 0.0
H409 H 0.99935 0.68007 0.90412 0.0
H410 H 0.99532 0.59972 0.683 0.0
H411 H 0.9835 0.62542 0.76361 0.0
H412 H 0.98462 0.60686 0.97471 0.0
C413 C 0.99753 0.67482 0.09792 0.0
C414 C 0.99564 0.66427 0.92018 0.0
C415 C 0.99872 0.69161 0.14212 0.0
C416 C 0.99831 0.59666 0.73403 0.0
C417 C 0.99185 0.61154 0.78023 0.0
C418 C 0.98781 0.62278 0.95867 0.0
C419 C 0.98991 0.67793 0.0342 0.0
C420 C 0.99026 0.66033 0.98539 0.0
C421 C 0.99713 0.60913 0.84643 0.0
C422 C 0.9936 0.62675 0.8938 0.0
H423 H 0.97936 0.73066 0.04547 0.0
H424 H 0.9768 0.70136 0.96858 0.0
H425 H 0.98162 0.63562 0.05317 0.0
H426 H 0.02376 0.56253 0.83494 0.0
H427 H 0.01228 0.58824 0.91585 0.0
C428 C 0.09141 0.19933 0.33629 0.0
C429 C 0.07609 0.21479 0.34879 0.0
C430 C 0.09157 0.18049 0.37147 0.0
C431 C 0.06518 0.15184 0.50782 0.0
H432 H 0.06452 0.10544 0.38484 0.0
C433 C 0.0117 0.08163 0.54089 0.0
C434 C 0.02087 0.06146 0.54197 0.0
C435 C 0.02311 0.09895 0.51939 0.0
C436 C 0.06506 0.11814 0.41997 0.0
H437 H 0.05045 0.22373 0.41199 0.0
H438 H 0.05056 0.19101 0.47316 0.0
H439 H 0.07826 0.13966 0.3515 0.0
H440 H 0.04802 0.04328 0.51364 0.0
H441 H 0.06837 0.07393 0.47543 0.0
H442 H 0.05056 0.13059 0.57462 0.0
C443 C 0.0626 0.19328 0.43674 0.0
C444 C 0.07302 0.13775 0.40118 0.0
C445 C 0.06255 0.21216 0.40181 0.0
C446 C 0.04103 0.05875 0.51555 0.0
C447 C 0.05251 0.0762 0.49329 0.0
C448 C 0.05704 0.13234 0.52626 0.0
C449 C 0.07633 0.17677 0.4195 0.0
C450 C 0.07243 0.15507 0.44413 0.0
C451 C 0.04386 0.09654 0.49771 0.0
C452 C 0.05619 0.11558 0.48172 0.0
H453 H 0.1021 0.20108 0.29574 0.0
H454 H 0.1027 0.16833 0.35808 0.0
H455 H 0.06489 0.16467 0.54253 0.0
H456 H 0.99621 0.08438 0.56109 0.0
H457 H 0.01591 0.11442 0.52173 0.0
C458 C 0.3383 0.09174 0.32534 0.0
C459 C 0.32378 0.076 0.34251 0.0
C460 C 0.35745 0.09351 0.35844 0.0
C461 C 0.40105 0.07659 0.38871 0.0
H462 H 0.41164 0.06625 0.57158 0.0
C463 C 0.47272 0.03119 0.49014 0.0
C464 C 0.48068 0.03694 0.55144 0.0
C465 C 0.45568 0.04212 0.46288 0.0
C466 C 0.40904 0.0695 0.52048 0.0
H467 H 0.31681 0.05139 0.41199 0.0
H468 H 0.35013 0.05465 0.4706 0.0
H469 H 0.37615 0.07533 0.53526 0.0
H470 H 0.47738 0.05927 0.63079 0.0
H471 H 0.44844 0.07866 0.58222 0.0
H472 H 0.43377 0.06991 0.37362 0.0
C473 C 0.34681 0.06557 0.43142 0.0
C474 C 0.38867 0.07454 0.49972 0.0
C475 C 0.32765 0.06376 0.39809 0.0
C476 C 0.4722 0.05476 0.58259 0.0
C477 C 0.45526 0.06567 0.55539 0.0
C478 C 0.42139 0.07138 0.40941 0.0
C479 C 0.36235 0.07967 0.40957 0.0
C480 C 0.38436 0.07769 0.43345 0.0
C481 C 0.44622 0.05889 0.49669 0.0
C482 C 0.42551 0.06734 0.47533 0.0
H483 H 0.33558 0.10148 0.28286 0.0
H484 H 0.36896 0.1048 0.34139 0.0
H485 H 0.3982 0.07866 0.33715 0.0
H486 H 0.47876 0.01743 0.46527 0.0
H487 H 0.44898 0.03644 0.41766 0.0
C488 C 0.44662 0.33295 0.33608 0.0
C489 C 0.46308 0.31894 0.35126 0.0
C490 C 0.44459 0.35194 0.36969 0.0
C491 C 0.46413 0.38365 0.50857 0.0
H492 H 0.46735 0.42858 0.38083 0.0
C493 C 0.5066 0.4678 0.49553 0.0
C494 C 0.50062 0.47615 0.55594 0.0
C495 C 0.49577 0.45061 0.46903 0.0
C496 C 0.46625 0.41624 0.41706 0.0
H497 H 0.4887 0.31253 0.41808 0.0
H498 H 0.48496 0.34556 0.47779 0.0
H499 H 0.45884 0.39282 0.34591 0.0
H500 H 0.47812 0.47334 0.63467 0.0
H501 H 0.45895 0.44401 0.58752 0.0
H502 H 0.47248 0.40692 0.57931 0.0
C503 C 0.4737 0.34197 0.43968 0.0
C504 C 0.46118 0.39581 0.39728 0.0
C505 C 0.47579 0.32299 0.40578 0.0
C506 C 0.48275 0.46785 0.58704 0.0
C507 C 0.47198 0.45071 0.56068 0.0
C508 C 0.46896 0.40414 0.52846 0.0
C509 C 0.45889 0.35714 0.41939 0.0
C510 C 0.46062 0.37919 0.4426 0.0
C511 C 0.47892 0.44135 0.50287 0.0
C512 C 0.47061 0.42053 0.48265 0.0
H513 H 0.43654 0.33009 0.29439 0.0
H514 H 0.43278 0.36317 0.35387 0.0
H515 H 0.46379 0.37117 0.54448 0.0
H516 H 0.52043 0.4737 0.47082 0.0
H517 H 0.50156 0.44363 0.4245 0.0
C518 C 0.20555 0.44729 0.3434 0.0
C519 C 0.21947 0.46408 0.35524 0.0
C520 C 0.1866 0.44588 0.3772 0.0
C521 C 0.1427 0.46306 0.40169 0.0
H522 H 0.13163 0.47536 0.58288 0.0
C523 C 0.06949 0.50693 0.49897 0.0
C524 C 0.06118 0.50032 0.55878 0.0
C525 C 0.08712 0.49682 0.47276 0.0
C526 C 0.13444 0.4716 0.53228 0.0
H527 H 0.22575 0.49105 0.41669 0.0
H528 H 0.19278 0.48832 0.47705 0.0
H529 H 0.16755 0.4672 0.54846 0.0
H530 H 0.06447 0.47741 0.63664 0.0
H531 H 0.09475 0.45965 0.59022 0.0
H532 H 0.10978 0.4685 0.38497 0.0
C533 C 0.19642 0.47637 0.44122 0.0
C534 C 0.15499 0.46706 0.51265 0.0
C535 C 0.21537 0.47787 0.40699 0.0
C536 C 0.06998 0.48255 0.58951 0.0
C537 C 0.08762 0.47256 0.56358 0.0
C538 C 0.1222 0.4679 0.42117 0.0
C539 C 0.18137 0.46109 0.42393 0.0
C540 C 0.15937 0.46305 0.447 0.0
C541 C 0.09687 0.48014 0.5064 0.0
C542 C 0.11794 0.47253 0.48647 0.0
H543 H 0.20846 0.43638 0.30392 0.0
H544 H 0.17542 0.43374 0.36377 0.0
H545 H 0.14566 0.46033 0.35055 0.0
H546 H 0.06319 0.52071 0.47461 0.0
H547 H 0.09401 0.50305 0.42867 0.0
C548 C 0.96382 0.82288 0.05081 0.0
C549 C 0.98198 0.81316 0.07591 0.0
C550 C 0.96528 0.8424 0.01955 0.0
C551 C 0.99471 0.88918 0.04284 0.0
H552 H 0.97661 0.90896 0.87346 0.0
C553 C 0.0231 0.96681 0.93343 0.0
C554 C 0.0114 0.97643 0.88354 0.0
C555 C 0.01564 0.94864 0.96377 0.0
C556 C 0.98125 0.90387 0.92167 0.0
H557 H 0.01587 0.81512 0.08442 0.0
H558 H 0.01846 0.84922 0.02966 0.0
H559 H 0.97196 0.87191 0.90235 0.0
H560 H 0.98179 0.97558 0.83081 0.0
H561 H 0.96812 0.94488 0.8868 0.0
H562 H 1.00367 0.92092 0.06335 0.0
C563 C 1.00318 0.84175 0.03372 0.0
C564 C 0.9788 0.88259 0.93767 0.0
C565 C 1.00175 0.82216 0.06409 0.0
C566 C 0.99103 0.96891 0.86995 0.0
C567 C 0.98342 0.95089 0.90094 0.0
C568 C 0.99681 0.91047 0.02746 0.0
C569 C 0.98487 0.85245 0.01422 0.0
C570 C 0.98607 0.87503 0.99765 0.0
C571 C 0.99616 0.93983 0.9454 0.0
C572 C 0.99066 0.91802 0.96599 0.0
H573 H 0.9484 0.81641 0.06101 0.0
H574 H 0.95097 0.85046 0.00495 0.0
H575 H 0.99999 0.8837 0.09008 0.0
H576 H 0.03886 0.97221 0.94501 0.0
H577 H 0.026 0.94063 0.9976 0.0
C578 C 0.71244 0.97106 0.04399 0.0
C579 C 0.71624 0.9576 0.09685 0.0
C580 C 0.69342 0.96975 0.00955 0.0
C581 C 0.63925 0.95743 0.04803 0.0
H582 H 0.62881 0.96977 0.86624 0.0
C583 C 0.56775 0.97937 0.85591 0.0
C584 C 0.55931 0.99719 0.88716 0.0
C585 C 0.58487 0.9686 0.88266 0.0
C586 C 0.63142 0.96597 0.91699 0.0
H587 H 0.70452 0.93073 0.1505 0.0
H588 H 0.67142 0.92832 0.09007 0.0
H589 H 0.66448 0.96102 0.90238 0.0
H590 H 0.56131 0.01672 0.97327 0.0
H591 H 0.59124 0.99779 0.02041 0.0
H592 H 0.60637 0.96335 0.06314 0.0
C593 C 0.68287 0.94009 0.0759 0.0
C594 C 0.65185 0.96113 0.93764 0.0
C595 C 0.70186 0.94134 0.11002 0.0
C596 C 0.56734 1.00296 0.94834 0.0
C597 C 0.58447 0.99211 0.97529 0.0
C598 C 0.61887 0.96253 0.02751 0.0
C599 C 0.67799 0.95499 0.0277 0.0
C600 C 0.65604 0.95717 0.00356 0.0
C601 C 0.59398 0.97544 0.94117 0.0
C602 C 0.61482 0.96722 0.962 0.0
H603 H 0.72318 0.98384 0.03335 0.0
H604 H 0.69008 0.98147 0.97263 0.0
H605 H 0.64203 0.95473 0.09935 0.0
H606 H 0.56246 0.97484 0.80785 0.0
H607 H 0.59177 0.95569 0.85563 0.0
C608 C 0.59079 0.7033 0.10005 0.0
C609 C 0.57405 0.71716 0.08661 0.0
C610 C 0.59267 0.68438 0.06604 0.0
C611 C 0.57609 0.64043 0.03998 0.0
H612 H 0.56406 0.62908 0.85852 0.0
C613 C 0.53126 0.56785 0.94321 0.0
C614 C 0.53742 0.55938 0.88315 0.0
C615 C 0.54185 0.58524 0.96931 0.0
C616 C 0.56778 0.63195 0.9092 0.0
H617 H 0.54767 0.72338 0.02258 0.0
H618 H 0.55113 0.69042 0.96206 0.0
H619 H 0.57235 0.66501 0.89291 0.0
H620 H 0.56013 0.56203 0.80489 0.0
H621 H 0.57876 0.5919 0.85113 0.0
H622 H 0.57048 0.60758 0.05679 0.0
C623 C 0.56274 0.6941 -0.00092 0.0
C624 C 0.57238 0.65253 0.92882 0.0
C625 C 0.5608 0.71304 0.0334 0.0
C626 C 0.5553 0.5677 0.85215 0.0
C627 C 0.56579 0.58511 0.87799 0.0
C628 C 0.57123 0.61992 0.02049 0.0
C629 C 0.57793 0.67909 0.01773 0.0
C630 C 0.57621 0.65703 0.9946 0.0
C631 C 0.55862 0.59458 0.93537 0.0
C632 C 0.56664 0.61555 0.95512 0.0
H633 H 0.60124 0.70622 0.14084 0.0
H634 H 0.60474 0.67326 0.0806 0.0
H635 H 0.57869 0.64346 0.09121 0.0
H636 H 0.51743 0.56191 0.96785 0.0
H637 H 0.53592 0.59231 0.01355 0.0
C638 C 0.83432 0.58768 0.10636 0.0
C639 C 0.82004 0.57133 0.09295 0.0
C640 C 0.85332 0.58899 0.07278 0.0
C641 C 0.89695 0.57152 0.04666 0.0
H642 H 0.90766 0.55986 0.86487 0.0
C643 C 0.96944 0.52702 0.94738 0.0
C644 C 0.97762 0.53348 0.88726 0.0
C645 C 0.95205 0.53739 0.97415 0.0
C646 C 0.90496 0.56344 0.91565 0.0
H647 H 0.81322 0.54503 0.02941 0.0
H648 H 0.84632 0.54753 0.96955 0.0
H649 H 0.87191 0.56838 0.89995 0.0
H650 H 0.97432 0.55635 0.80934 0.0
H651 H 0.94459 0.57467 0.85687 0.0
H652 H 0.92981 0.5656 0.06282 0.0
C653 C 0.84291 0.55925 0.0063 0.0
C654 C 0.88449 0.56818 0.93567 0.0
C655 C 0.8239 0.55788 0.04023 0.0
C656 C 0.96895 0.55135 0.85675 0.0
C657 C 0.95159 0.56164 0.8833 0.0
C658 C 0.91736 0.56651 0.02677 0.0
C659 C 0.85827 0.57408 0.02485 0.0
C660 C 0.88023 0.57194 0.00153 0.0
C661 C 0.94243 0.55422 0.9408 0.0
C662 C 0.9215 0.56209 0.96124 0.0
H663 H 0.83161 0.59831 0.14671 0.0
H664 H 0.86472 0.6008 0.08723 0.0
H665 H 0.89408 0.57405 0.09795 0.0
H666 H 0.97562 0.51317 0.9716 0.0
H667 H 0.94521 0.53127 0.01846 0.0
C668 C 0.02977 0.21519 0.12651 0.0
C669 C 0.04955 0.22505 0.12783 0.0
C670 C 0.0255 0.19911 0.08168 0.0
C671 C 0.0431 0.17324 0.92986 0.0
H672 H 0.01971 0.12286 0.00827 0.0
C673 C 0.01164 0.10261 0.78033 0.0
C674 C 0.01645 0.08206 0.80155 0.0
C675 C 0.01703 0.12018 0.81781 0.0
C676 C 0.02639 0.13673 0.98573 0.0
H677 H 0.08011 0.22635 0.08211 0.0
H678 H 0.07242 0.19884 0.00183 0.0
H679 H 0.02507 0.15442 0.07444 0.0
H680 H 0.03111 0.06399 0.87875 0.0
H681 H 0.04022 0.09487 0.94539 0.0
H682 H 0.04424 0.15557 0.84098 0.0
C683 C 0.06016 0.20354 0.0353 0.0
C684 C 0.02921 0.15492 0.02343 0.0
C685 C 0.06451 0.21946 0.08074 0.0
C686 C 0.02719 0.07958 0.861 0.0
C687 C 0.03228 0.09725 0.89926 0.0
C688 C 0.03999 0.15513 0.89191 0.0
C689 C 0.04091 0.19259 0.03696 0.0
C690 C 0.03753 0.17344 0.99596 0.0
C691 C 0.02715 0.11776 0.87815 0.0
C692 C 0.03156 0.13665 0.91935 0.0
H693 H 0.01819 0.21879 0.16346 0.0
H694 H 0.01042 0.19117 0.08377 0.0
H695 H 0.04957 0.1872 0.90722 0.0
H696 H 1.00354 0.10517 0.73453 0.0
H697 H 0.01269 0.13569 0.80026 0.0
C698 C 0.31897 0.06277 0.08119 0.0
C699 C 0.31167 0.0474 0.1247 0.0
C700 C 0.33456 0.0579 0.03562 0.0
C701 C 0.3655 0.01368 0.9622 0.0
H702 H 0.40835 0.05682 0.94526 0.0
C703 C 0.435 1.00428 0.78479 0.0
C704 C 0.45501 0.01203 0.80255 0.0
C705 C 0.41726 1.00851 0.82251 0.0
C706 C 0.39668 0.04449 0.94988 0.0
H707 H 0.31432 0.01474 0.15319 0.0
H708 H 0.34147 1.00607 0.07377 0.0
H709 H 0.37702 0.06382 0.00947 0.0
H710 H 0.47179 0.03044 0.87473 0.0
H711 H 0.44077 0.03752 0.94167 0.0
H712 H 0.38553 0.99407 0.90469 0.0
C713 C 0.33498 0.02185 0.07367 0.0
C714 C 0.37844 0.04864 0.98589 0.0
C715 C 0.31925 0.02672 0.11895 0.0
C716 C 0.45669 0.02421 0.85945 0.0
C717 C 0.43883 0.02837 0.89763 0.0
C718 C 0.38377 0.0095 0.92645 0.0
C719 C 0.34347 0.03759 0.03315 0.0
C720 C 0.36253 0.03332 0.99249 0.0
C721 C 0.41885 0.02052 0.87968 0.0
C722 C 0.39963 0.02486 0.91955 0.0
H723 H 0.31367 0.07894 0.08555 0.0
H724 H 0.34027 0.07033 0.00428 0.0
H725 H 0.35364 1.0015 0.96576 0.0
H726 H 0.43288 0.99503 0.74101 0.0
H727 H 0.40218 1.00258 0.80603 0.0
C728 C 0.51013 0.31296 0.1104 0.0
C729 C 0.48914 0.30961 0.12884 0.0
C730 C 0.51511 0.32847 0.06414 0.0
C731 C 0.49085 0.36707 0.94533 0.0
H732 H 0.54023 0.40019 0.98826 0.0
C733 C 0.50544 0.45119 0.84121 0.0
C734 C 0.52556 0.45453 0.81489 0.0
C735 C 0.50119 0.43298 0.87776 0.0
C736 C 0.52643 0.39105 0.97543 0.0
H737 H 0.45685 0.3187 0.10996 0.0
H738 H 0.46531 0.34565 0.03071 0.0
H739 H 0.53297 0.36801 0.04861 0.0
H740 H 0.55717 0.44173 0.80857 0.0
H741 H 0.54991 0.41045 0.87342 0.0
H742 H 0.48404 0.39071 0.87356 0.0
C743 C 0.4781 0.33637 0.05064 0.0
C744 C 0.52234 0.37241 0.00965 0.0
C745 C 0.47317 0.32082 0.09625 0.0
C746 C 0.54148 0.43965 0.82799 0.0
C747 C 0.53735 0.42172 0.86537 0.0
C748 C 0.49479 0.38589 0.91179 0.0
C749 C 0.49919 0.34107 0.0357 0.0
C750 C 0.50442 0.36011 0.99541 0.0
C751 C 0.51708 0.41795 0.88985 0.0
C752 C 0.5126 0.39815 0.92653 0.0
H753 H 0.52278 0.30473 0.13519 0.0
H754 H 0.53152 0.33117 0.05282 0.0
H755 H 0.47711 0.35798 0.93177 0.0
H756 H 0.4928 0.46225 0.83159 0.0
H757 H 0.48544 0.4306 0.89643 0.0
C758 C 0.21682 0.46975 0.09861 0.0
C759 C 0.22857 0.48588 0.12835 0.0
C760 C 0.20109 0.47443 0.05308 0.0
C761 C 0.16556 0.51882 0.00939 0.0
H762 H 0.14574 0.47989 0.87745 0.0
C763 C 0.09743 0.53842 0.83118 0.0
C764 C 0.08236 0.52268 0.81839 0.0
C765 C 0.11549 0.53402 0.86784 0.0
C766 C 0.15097 0.49082 0.91456 0.0
H767 H 0.23423 0.51946 0.12949 0.0
H768 H 0.20741 0.5277 0.0474 0.0
H769 H 0.1787 0.47273 0.93481 0.0
H770 H 0.07446 0.48994 0.83508 0.0
H771 H 0.10631 0.48214 0.89902 0.0
H772 H 0.13793 0.53704 0.98818 0.0
C773 C 0.20986 0.51139 0.06087 0.0
C774 C 0.16993 0.48676 0.94753 0.0
C775 C 0.22558 0.50667 0.10695 0.0
C776 C 0.08566 0.50245 0.84442 0.0
C777 C 0.104 0.49795 0.88045 0.0
C778 C 0.14675 0.52299 0.97591 0.0
C779 C 0.19672 0.49542 0.03549 0.0
C780 C 0.17747 0.50061 0.99593 0.0
C781 C 0.11921 0.51367 0.89216 0.0
C782 C 0.13911 0.50898 0.9284 0.0
H783 H 0.21867 0.45358 0.1146 0.0
H784 H 0.19139 0.46162 0.03538 0.0
H785 H 0.17041 0.52967 0.04719 0.0
H786 H 0.0954 0.55419 0.812 0.0
H787 H 0.1269 0.54646 0.8755 0.0
C788 C 0.9633 0.8243 0.31949 0.0
C789 C 0.97774 0.80765 0.31274 0.0
C790 C 0.96637 0.84002 0.36607 0.0
C791 C 0.01007 0.86333 0.46549 0.0
H792 H 0.96564 0.90195 0.51445 0.0
C793 C 0.03086 0.94532 0.56836 0.0
C794 C 0.01697 0.95541 0.61111 0.0
C795 C 0.02492 0.92682 0.53606 0.0
C796 C 0.97835 0.89131 0.50245 0.0
H797 H 1.00558 0.79329 0.35422 0.0
H798 H 0.01024 0.81989 0.43919 0.0
H799 H 0.95675 0.869 0.4626 0.0
H800 H 0.98603 0.95404 0.6543 0.0
H801 H 0.97591 0.92121 0.60109 0.0
H802 H 0.03157 0.88491 0.50932 0.0
C803 C 0.99703 0.82149 0.40616 0.0
C804 C 0.97322 0.87234 0.47121 0.0
C805 C 0.99413 0.80587 0.35837 0.0
C806 C 0.99688 0.94677 0.62049 0.0
C807 C 0.99113 0.92787 0.58969 0.0
C808 C 0.01516 0.88201 0.49832 0.0
C809 C 0.98379 0.83941 0.40869 0.0
C810 C 0.98901 0.85824 0.45045 0.0
C811 C 1.00515 0.91737 0.54741 0.0
C812 C 0.99946 0.89667 0.51591 0.0
H813 H 0.9505 0.82612 0.28489 0.0
H814 H 0.95578 0.85337 0.36502 0.0
H815 H 0.02288 0.85326 0.45024 0.0
H816 H 0.04647 0.95166 0.56039 0.0
H817 H 0.03604 0.91994 0.50249 0.0
C818 C 0.72579 1.00101 0.34497 0.0
C819 C 0.72726 0.98016 0.32276 0.0
C820 C 0.7108 1.00652 0.3921 0.0
C821 C 0.67022 0.98375 0.506 0.0
H822 H 0.64091 0.036 0.46885 0.0
C823 C 0.58648 1.00247 0.60419 0.0
C824 C 0.58409 0.02234 0.63344 0.0
C825 C 0.6048 0.9976 0.56922 0.0
C826 C 0.649 0.02141 0.48009 0.0
H827 H 0.71546 0.94849 0.33586 0.0
H828 H 0.68939 0.9579 0.41664 0.0
H829 H 0.67279 0.02727 0.40913 0.0
H830 H 0.59877 0.05289 0.64682 0.0
H831 H 0.63031 0.04456 0.58467 0.0
H832 H 0.64579 0.97766 0.57533 0.0
C833 C 0.69974 0.97015 0.39899 0.0
C834 C 0.66746 0.01646 0.44626 0.0
C835 C 0.71476 0.96468 0.35249 0.0
C836 C 0.6001 0.03741 0.62506 0.0
C837 C 0.61818 0.03268 0.58926 0.0
C838 C 0.65158 0.98859 0.53912 0.0
C839 C 0.69689 0.99129 0.41762 0.0
C840 C 0.67832 0.99746 0.45829 0.0
C841 C 0.62091 0.01263 0.56173 0.0
C842 C 0.64069 1.00742 0.5263 0.0
H843 H 0.73507 0.0133 0.32245 0.0
H844 H 0.70951 0.02288 0.40632 0.0
H845 H 0.67823 0.96918 0.51779 0.0
H846 H 0.57452 0.99047 0.61011 0.0
H847 H 0.60638 0.98206 0.54806 0.0
C848 C 0.52916 0.72294 0.33174 0.0
C849 C 0.55003 0.72586 0.31148 0.0
C850 C 0.52424 0.70733 0.37775 0.0
C851 C 0.54859 0.66773 0.49305 0.0
H852 H 0.49816 0.63586 0.45291 0.0
C853 C 0.53288 0.58382 0.59717 0.0
C854 C 0.51279 0.58075 0.62409 0.0
C855 C 0.5373 0.60201 0.56069 0.0
C856 C 0.51226 0.64465 0.465 0.0
H857 H 0.58224 0.71582 0.32671 0.0
H858 H 0.57388 0.68874 0.4057 0.0
H859 H 0.50566 0.66806 0.39297 0.0
H860 H 0.48141 0.59405 0.63153 0.0
H861 H 0.48897 0.62531 0.56699 0.0
H862 H 0.55541 0.64377 0.56375 0.0
C863 C 0.56115 0.69844 0.38737 0.0
C864 C 0.5165 0.6633 0.43099 0.0
C865 C 0.56602 0.71407 0.34195 0.0
C866 C 0.49708 0.5959 0.61166 0.0
C867 C 0.50137 0.61383 0.57444 0.0
C868 C 0.54448 0.64892 0.52644 0.0
C869 C 0.5401 0.69421 0.40416 0.0
C870 C 0.53479 0.67515 0.44423 0.0
C871 C 0.52161 0.61732 0.54932 0.0
C872 C 0.52628 0.6371 0.51274 0.0
H873 H 0.51649 0.7316 0.30852 0.0
H874 H 0.50789 0.70498 0.3905 0.0
H875 H 0.56265 0.67647 0.50575 0.0
H876 H 0.54538 0.57255 0.60622 0.0
H877 H 0.55301 0.60415 0.54152 0.0
C878 C 0.81367 0.52814 0.33794 0.0
C879 C 0.8096 0.54899 0.31872 0.0
C880 C 0.82952 0.52376 0.38394 0.0
C881 C 0.88008 0.54605 0.43509 0.0
H882 H 0.87899 0.50457 0.57303 0.0
C883 C 0.95271 0.53162 0.60283 0.0
C884 C 0.95583 0.51125 0.62787 0.0
C885 C 0.93437 0.5365 0.56736 0.0
C886 C 0.87976 0.51598 0.53402 0.0
H887 H 0.81776 0.58162 0.33584 0.0
H888 H 0.8451 0.57405 0.41635 0.0
H889 H 0.84686 0.51221 0.51189 0.0
H890 H 0.94261 0.47982 0.63255 0.0
H891 H 0.91142 0.48795 0.56864 0.0
H892 H 0.91299 0.54938 0.45498 0.0
C893 C 0.8363 0.56106 0.39563 0.0
C894 C 0.86121 0.52044 0.49929 0.0
C895 C 0.82042 0.56541 0.35028 0.0
C896 C 0.94062 0.49574 0.61452 0.0
C897 C 0.92253 0.5005 0.57831 0.0
C898 C 0.89868 0.54138 0.46909 0.0
C899 C 0.84169 0.54016 0.4109 0.0
C900 C 0.86113 0.53558 0.44952 0.0
C901 C 0.91885 0.52105 0.55517 0.0
C902 C 0.89887 0.52625 0.51913 0.0
H903 H 0.80589 0.51518 0.31344 0.0
H904 H 0.83329 0.50748 0.39467 0.0
H905 H 0.88067 0.55754 0.3962 0.0
H906 H 0.964 0.54399 0.61288 0.0
H907 H 0.93214 0.55258 0.55123 0.0
loop_
_geom_bond_atom_site_label_1
_geom_bond_atom_site_label_2
_geom_bond_distance
_geom_bond_site_symmetry_2
_ccdc_geom_bond_type
H0 C7 0.929 . S
H1 C10 0.930 . S
H2 C12 0.929 . S
H3 C4 0.969 . S
C4 H3 0.969 . S
C4 O5 1.550 . S
C4 H6 0.973 . S
O5 C4 1.550 . S
O5 C11 1.412 . S
H6 C4 0.973 . S
C7 H0 0.929 . S
C7 C8 1.400 . S
C7 C9 1.364 . S
C8 C7 1.400 . S
C8 C12 1.377 . S
C9 C7 1.364 . S
C9 C10 1.374 . S
C10 H1 0.930 . S
C10 C9 1.374 . S
C10 C11 1.383 . S
C11 O5 1.412 . S
C11 C10 1.383 . S
C11 C12 1.394 . S
C12 H2 0.929 . S
C12 C8 1.377 . S
C12 C11 1.394 . S
H13 C20 0.929 . S
H14 C23 0.930 . S
H15 C25 0.929 . S
H16 C17 0.969 . S
C17 H16 0.969 . S
C17 O18 1.550 . S
C17 H19 0.973 . S
O18 C17 1.550 . S
O18 C24 1.412 . S
H19 C17 0.973 . S
C20 H13 0.929 . S
C20 C21 1.400 . S
C20 C22 1.364 . S
C21 C20 1.400 . S
C21 C25 1.377 . S
C22 C20 1.364 . S
C22 C23 1.374 . S
C23 H14 0.930 . S
C23 C22 1.374 . S
C23 C24 1.383 . S
C24 O18 1.412 . S
C24 C23 1.383 . S
C24 C25 1.394 . S
C25 H15 0.929 . S
C25 C21 1.377 . S
C25 C24 1.394 . S
H26 C33 0.929 . S
H27 C36 0.930 . S
H28 C38 0.929 . S
H29 C30 0.969 . S
C30 H29 0.969 . S
C30 O31 1.550 . S
C30 H32 0.973 . S
O31 C30 1.550 . S
O31 C37 1.412 . S
H32 C30 0.973 . S
C33 H26 0.929 . S
C33 C34 1.400 . S
C33 C35 1.364 . S
C34 C33 1.400 . S
C34 C38 1.377 . S
C35 C33 1.364 . S
C35 C36 1.374 . S
C36 H27 0.930 . S
C36 C35 1.374 . S
C36 C37 1.383 . S
C37 O31 1.412 . S
C37 C36 1.383 . S
C37 C38 1.394 . S
C38 H28 0.929 . S
C38 C34 1.377 . S
C38 C37 1.394 . S
H39 C46 0.929 . S
H40 C49 0.930 . S
H41 C51 0.929 . S
H42 C43 0.969 . S
C43 H42 0.969 . S
C43 O44 1.550 . S
C43 H45 0.973 . S
O44 C43 1.550 . S
O44 C50 1.412 . S
H45 C43 0.973 . S
C46 H39 0.929 . S
C46 C47 1.400 . S
C46 C48 1.364 . S
C47 C46 1.400 . S
C47 C51 1.377 . S
C48 C46 1.364 . S
C48 C49 1.374 . S
C49 H40 0.930 . S
C49 C48 1.374 . S
C49 C50 1.383 . S
C50 O44 1.412 . S
C50 C49 1.383 . S
C50 C51 1.394 . S
C51 H41 0.929 . S
C51 C47 1.377 . S
C51 C50 1.394 . S
H52 C59 0.929 . S
H53 C62 0.930 . S
H54 C64 0.929 . S
H55 C56 0.969 . S
C56 H55 0.969 . S
C56 O57 1.550 . S
C56 H58 0.973 . S
O57 C56 1.550 . S
O57 C63 1.412 . S
H58 C56 0.973 . S
C59 H52 0.929 . S
C59 C60 1.400 . S
C59 C61 1.364 . S
C60 C59 1.400 . S
C60 C64 1.377 . S
C61 C59 1.364 . S
C61 C62 1.374 . S
C62 H53 0.930 . S
C62 C61 1.374 . S
C62 C63 1.383 . S
C63 O57 1.412 . S
C63 C62 1.383 . S
C63 C64 1.394 . S
C64 H54 0.929 . S
C64 C60 1.377 . S
C64 C63 1.394 . S
H65 C72 0.929 . S
H66 C75 0.930 . S
H67 C77 0.929 . S
H68 C69 0.969 . S
C69 H68 0.969 . S
C69 O70 1.550 . S
C69 H71 0.973 . S
O70 C69 1.550 . S
O70 C76 1.412 . S
H71 C69 0.973 . S
C72 H65 0.929 . S
C72 C73 1.400 . S
C72 C74 1.364 . S
C73 C72 1.400 . S
C73 C77 1.377 . S
C74 C72 1.364 . S
C74 C75 1.374 . S
C75 H66 0.930 . S
C75 C74 1.374 . S
C75 C76 1.383 . S
C76 O70 1.412 . S
C76 C75 1.383 . S
C76 C77 1.394 . S
C77 H67 0.929 . S
C77 C73 1.377 . S
C77 C76 1.394 . S
H78 C85 0.929 . S
H79 C88 0.930 . S
H80 C90 0.929 . S
H81 C82 0.969 . S
C82 H81 0.969 . S
C82 O83 1.550 . S
C82 H84 0.973 . S
O83 C82 1.550 . S
O83 C89 1.412 . S
H84 C82 0.973 . S
C85 H78 0.929 . S
C85 C86 1.400 . S
C85 C87 1.364 . S
C86 C85 1.400 . S
C86 C90 1.377 . S
C87 C85 1.364 . S
C87 C88 1.374 . S
C88 H79 0.930 . S
C88 C87 1.374 . S
C88 C89 1.383 . S
C89 O83 1.412 . S
C89 C88 1.383 . S
C89 C90 1.394 . S
C90 H80 0.929 . S
C90 C86 1.377 . S
C90 C89 1.394 . S
H91 C98 0.929 . S
H92 C101 0.930 . S
H93 C103 0.929 . S
H94 C95 0.969 . S
C95 H94 0.969 . S
C95 O96 1.550 . S
C95 H97 0.973 . S
O96 C95 1.550 . S
O96 C102 1.412 . S
H97 C95 0.973 . S
C98 H91 0.929 . S
C98 C99 1.400 . S
C98 C100 1.364 . S
C99 C98 1.400 . S
C99 C103 1.377 . S
C100 C98 1.364 . S
C100 C101 1.374 . S
C101 H92 0.930 . S
C101 C100 1.374 . S
C101 C102 1.383 . S
C102 O96 1.412 . S
C102 C101 1.383 . S
C102 C103 1.394 . S
C103 H93 0.929 . S
C103 C99 1.377 . S
C103 C102 1.394 . S
O104 Mn105 2.163 . S
O104 C118 1.244 . S
Mn105 O104 2.163 . S
Mn105 O108 2.160 1_445 S
Mn105 O109 2.221 . S
Mn105 O111 2.163 1_545 S
Mn105 O113 2.160 . S
Mn105 O123 2.221 1_455 S
O106 Mn107 2.099 . S
O106 C118 1.241 1_655 S
Mn107 O106 2.099 . S
Mn107 O114 2.089 . S
Mn107 O123 2.290 . S
Mn107 O124 2.251 . S
O108 Mn105 2.160 1_665 S
O108 C119 1.239 1_655 S
O109 Mn105 2.221 . S
O109 Mn110 2.290 1_545 S
O109 C120 1.278 . S
Mn110 O109 2.290 1_565 S
Mn110 O112 2.089 . S
Mn110 O115 2.251 . S
Mn110 O116 2.087 . S
O111 Mn105 2.163 1_565 S
O111 C121 1.244 . S
O112 Mn110 2.089 . S
O112 C119 1.256 . S
O113 Mn105 2.160 . S
O113 C122 1.239 . S
O114 Mn107 2.089 . S
O114 C122 1.256 1_655 S
O115 Mn110 2.251 . S
O115 C120 1.241 1_565 S
O116 Mn110 2.087 . S
O116 C121 1.256 . S
C117 O123 1.278 . S
C117 O124 1.241 . S
C118 O104 1.244 . S
C118 O106 1.241 1_455 S
C119 O108 1.239 1_455 S
C119 O112 1.256 . S
C120 O109 1.278 . S
C120 O115 1.241 1_545 S
C121 O111 1.244 . S
C121 O116 1.256 . S
C122 O113 1.239 . S
C122 O114 1.256 1_455 S
O123 Mn105 2.221 1_655 S
O123 Mn107 2.290 . S
O123 C117 1.278 . S
O124 Mn107 2.251 . S
O124 C117 1.241 . S
O125 Mn126 2.163 . S
O125 C139 1.244 . S
Mn126 O125 2.163 . S
Mn126 O129 2.160 . S
Mn126 O130 2.221 1_545 S
Mn126 O132 2.163 . S
Mn126 O134 2.160 1_545 S
Mn126 O144 2.221 . S
O127 Mn128 2.087 . S
O127 C139 1.256 . S
Mn128 O127 2.087 . S
Mn128 O135 2.089 . S
Mn128 O144 2.290 . S
Mn128 O145 2.251 . S
O129 Mn126 2.160 . S
O129 C140 1.239 . S
O130 Mn126 2.221 1_565 S
O130 Mn131 2.290 . S
O130 C141 1.278 . S
Mn131 O130 2.290 . S
Mn131 O133 2.089 . S
Mn131 O136 2.251 . S
Mn131 O137 2.087 . S
O132 Mn126 2.163 . S
O132 C142 1.244 . S
O133 Mn131 2.089 . S
O133 C140 1.256 1_565 S
O134 Mn126 2.160 1_565 S
O134 C143 1.244 . S
O135 Mn128 2.089 . S
O135 C143 1.234 1_545 S
O136 Mn131 2.251 . S
O136 C141 1.241 . S
O137 Mn131 2.087 . S
O137 C142 1.256 1_565 S
C138 O144 1.278 . S
C138 O145 1.241 . S
C139 O125 1.244 . S
C139 O127 1.256 . S
C140 O129 1.239 . S
C140 O133 1.256 1_545 S
C141 O130 1.278 . S
C141 O136 1.241 . S
C142 O132 1.244 . S
C142 O137 1.256 1_545 S
C143 O134 1.244 . S
C143 O135 1.234 1_565 S
O144 Mn126 2.221 . S
O144 Mn128 2.290 . S
O144 C138 1.278 . S
O145 Mn128 2.251 . S
O145 C138 1.241 . S
O146 Mn147 2.163 . S
O146 C160 1.244 . S
Mn147 O146 2.163 . S
Mn147 O150 2.160 . S
Mn147 O151 2.221 . S
Mn147 O153 2.163 . S
Mn147 O155 2.160 . S
Mn147 O165 2.221 . S
O148 Mn149 2.087 . S
O148 C160 1.256 . S
Mn149 O148 2.087 . S
Mn149 O156 2.089 . S
Mn149 O165 2.290 . S
Mn149 O166 2.251 . S
O150 Mn147 2.160 . S
O150 C161 1.239 . S
O151 Mn147 2.221 . S
O151 Mn152 2.290 . S
O151 C162 1.278 . S
Mn152 O151 2.290 . S
Mn152 O154 2.089 . S
Mn152 O157 2.251 . S
Mn152 O158 2.087 . S
O153 Mn147 2.163 . S
O153 C163 1.244 . S
O154 Mn152 2.089 . S
O154 C161 1.256 . S
O155 Mn147 2.160 . S
O155 C164 1.239 . S
O156 Mn149 2.089 . S
O156 C164 1.256 . S
O157 Mn152 2.251 . S
O157 C162 1.241 . S
O158 Mn152 2.087 . S
O158 C163 1.256 . S
C159 O165 1.278 . S
C159 O166 1.241 . S
C160 O146 1.244 . S
C160 O148 1.256 . S
C161 O150 1.239 . S
C161 O154 1.256 . S
C162 O151 1.278 . S
C162 O157 1.241 . S
C163 O153 1.244 . S
C163 O158 1.256 . S
C164 O155 1.239 . S
C164 O156 1.256 . S
O165 Mn147 2.221 . S
O165 Mn149 2.290 . S
O165 C159 1.278 . S
O166 Mn149 2.251 . S
O166 C159 1.241 . S
O167 Mn168 2.163 . S
O167 C181 1.244 . S
Mn168 O167 2.163 . S
Mn168 O171 2.160 1_455 S
Mn168 O172 2.221 . S
Mn168 O174 2.163 1_455 S
Mn168 O176 2.160 . S
Mn168 O186 2.221 . S
O169 Mn170 2.087 . S
O169 C181 1.256 . S
Mn170 O169 2.087 . S
Mn170 O177 2.089 . S
Mn170 O186 2.290 . S
Mn170 O187 2.251 . S
O171 Mn168 2.160 1_655 S
O171 C182 1.239 . S
O172 Mn168 2.221 . S
O172 Mn173 2.290 1_455 S
O172 C183 1.278 . S
Mn173 O172 2.290 1_655 S
Mn173 O175 2.089 . S
Mn173 O178 2.251 . S
Mn173 O179 2.087 . S
O174 Mn168 2.163 1_655 S
O174 C184 1.244 . S
O175 Mn173 2.089 . S
O175 C182 1.256 . S
O176 Mn168 2.160 . S
O176 C185 1.239 . S
O177 Mn170 2.089 . S
O177 C185 1.256 . S
O178 Mn173 2.251 . S
O178 C183 1.241 1_655 S
O179 Mn173 2.087 . S
O179 C184 1.256 . S
C180 O186 1.278 . S
C180 O187 1.241 . S
C181 O167 1.244 . S
C181 O169 1.256 . S
C182 O171 1.239 . S
C182 O175 1.256 . S
C183 O172 1.278 . S
C183 O178 1.241 1_455 S
C184 O174 1.244 . S
C184 O179 1.256 . S
C185 O176 1.239 . S
C185 O177 1.256 . S
O186 Mn168 2.221 . S
O186 Mn170 2.290 . S
O186 C180 1.278 . S
O187 Mn170 2.251 . S
O187 C180 1.241 . S
C188 C189 1.349 . S
C188 C190 1.327 . S
C188 H213 0.950 . S
C189 C188 1.349 . S
C189 C205 1.349 . S
C190 C188 1.327 . S
C190 C209 1.429 . S
C190 H214 0.950 . S
C191 C208 1.574 . S
C191 C210 1.368 . S
C191 H215 0.949 . S
H192 C196 0.949 1_565 S
C193 C194 1.349 . S
C193 C195 1.327 . S
C193 H216 0.950 . S
C194 C193 1.349 . S
C194 C206 1.339 1_545 S
C195 C193 1.327 . S
C195 C211 1.429 . S
C195 H217 0.950 . S
C196 H192 0.949 1_545 S
C196 C204 1.574 . S
C196 C212 1.368 . S
H197 C205 0.950 . S
H198 C203 0.950 . S
H199 C204 0.949 . S
H200 C206 0.961 . S
H201 C207 0.950 1_565 S
H202 C208 0.949 . S
C203 H198 0.950 . S
C203 C205 1.327 . S
C203 C209 1.429 . S
C204 C196 1.574 . S
C204 H199 0.949 . S
C204 C210 1.368 . S
C205 C189 1.349 . S
C205 H197 0.950 . S
C205 C203 1.327 . S
C206 C194 1.339 1_565 S
C206 H200 0.961 . S
C206 C207 1.325 1_565 S
C207 H201 0.950 1_545 S
C207 C206 1.325 1_545 S
C207 C211 1.429 . S
C208 C191 1.574 . S
C208 H202 0.949 . S
C208 C212 1.368 . S
C209 C190 1.429 . S
C209 C203 1.429 . S
C209 C210 1.523 . S
C210 C191 1.368 . S
C210 C204 1.368 . S
C210 C209 1.523 . S
C211 C195 1.429 . S
C211 C207 1.429 . S
C211 C212 1.523 . S
C212 C196 1.368 . S
C212 C208 1.368 . S
C212 C211 1.523 . S
H213 C188 0.950 . S
H214 C190 0.950 . S
H215 C191 0.949 . S
H216 C193 0.950 . S
H217 C195 0.950 . S
C218 C219 1.349 . S
C218 C220 1.327 . S
C218 H243 0.950 . S
C219 C218 1.349 . S
C219 C235 1.349 . S
C220 C218 1.327 . S
C220 C239 1.429 . S
C220 H244 0.950 . S
C221 C238 1.574 . S
C221 C240 1.368 . S
C221 H245 0.949 . S
H222 C226 0.949 . S
C223 C224 1.349 . S
C223 C225 1.327 . S
C223 H246 0.950 . S
C224 C223 1.349 . S
C224 C236 1.349 . S
C225 C223 1.327 . S
C225 C241 1.429 . S
C225 H247 0.950 . S
C226 H222 0.949 . S
C226 C234 1.574 . S
C226 C242 1.368 . S
H227 C235 0.950 . S
H228 C233 0.950 . S
H229 C234 0.949 . S
H230 C236 0.950 . S
H231 C237 0.950 . S
H232 C238 0.949 . S
C233 H228 0.950 . S
C233 C235 1.327 . S
C233 C239 1.429 . S
C234 C226 1.574 . S
C234 H229 0.949 . S
C234 C240 1.368 . S
C235 C219 1.349 . S
C235 H227 0.950 . S
C235 C233 1.327 . S
C236 C224 1.349 . S
C236 H230 0.950 . S
C236 C237 1.327 . S
C237 H231 0.950 . S
C237 C236 1.327 . S
C237 C241 1.429 . S
C238 C221 1.574 . S
C238 H232 0.949 . S
C238 C242 1.368 . S
C239 C220 1.429 . S
C239 C233 1.429 . S
C239 C240 1.523 . S
C240 C221 1.368 . S
C240 C234 1.368 . S
C240 C239 1.523 . S
C241 C225 1.429 . S
C241 C237 1.429 . S
C241 C242 1.523 . S
C242 C226 1.368 . S
C242 C238 1.368 . S
C242 C241 1.523 . S
H243 C218 0.950 . S
H244 C220 0.950 . S
H245 C221 0.949 . S
H246 C223 0.950 . S
H247 C225 0.950 . S
C248 C249 1.349 . S
C248 C250 1.327 . S
C248 H273 0.950 . S
C249 C248 1.349 . S
C249 C265 1.349 . S
C250 C248 1.327 . S
C250 C269 1.429 . S
C250 H274 0.950 . S
C251 C268 1.574 . S
C251 C270 1.368 . S
C251 H275 0.949 . S
H252 C256 0.949 . S
C253 C254 1.349 . S
C253 C255 1.327 . S
C253 H276 0.950 . S
C254 C253 1.349 . S
C254 C266 1.349 . S
C255 C253 1.327 . S
C255 C271 1.429 . S
C255 H277 0.950 . S
C256 H252 0.949 . S
C256 C264 1.574 . S
C256 C272 1.368 . S
H257 C265 0.950 . S
H258 C263 0.950 . S
H259 C264 0.949 . S
H260 C266 0.950 . S
H261 C267 0.950 . S
H262 C268 0.949 . S
C263 H258 0.950 . S
C263 C265 1.327 . S
C263 C269 1.429 . S
C264 C256 1.574 . S
C264 H259 0.949 . S
C264 C270 1.368 . S
C265 C249 1.349 . S
C265 H257 0.950 . S
C265 C263 1.327 . S
C266 C254 1.349 . S
C266 H260 0.950 . S
C266 C267 1.327 . S
C267 H261 0.950 . S
C267 C266 1.327 . S
C267 C271 1.429 . S
C268 C251 1.574 . S
C268 H262 0.949 . S
C268 C272 1.368 . S
C269 C250 1.429 . S
C269 C263 1.429 . S
C269 C270 1.523 . S
C270 C251 1.368 . S
C270 C264 1.368 . S
C270 C269 1.523 . S
C271 C255 1.429 . S
C271 C267 1.429 . S
C271 C272 1.523 . S
C272 C256 1.368 . S
C272 C268 1.368 . S
C272 C271 1.523 . S
H273 C248 0.950 . S
H274 C250 0.950 . S
H275 C251 0.949 . S
H276 C253 0.950 . S
H277 C255 0.950 . S
C278 C279 1.349 . S
C278 C280 1.327 . S
C278 H303 0.950 . S
C279 C278 1.349 . S
C279 C295 1.349 . S
C280 C278 1.327 . S
C280 C299 1.429 . S
C280 H304 0.950 . S
C281 C298 1.574 . S
C281 C300 1.368 . S
C281 H305 0.949 . S
H282 C286 0.949 . S
C283 C284 1.349 . S
C283 C285 1.327 . S
C283 H306 0.950 . S
C284 C283 1.349 . S
C284 C296 1.349 . S
C285 C283 1.327 . S
C285 C301 1.429 . S
C285 H307 0.950 . S
C286 H282 0.949 . S
C286 C294 1.574 . S
C286 C302 1.368 . S
H287 C295 0.950 . S
H288 C293 0.950 . S
H289 C294 0.949 . S
H290 C296 0.950 . S
H291 C297 0.950 . S
H292 C298 0.949 . S
C293 H288 0.950 . S
C293 C295 1.327 . S
C293 C299 1.429 . S
C294 C286 1.574 . S
C294 H289 0.949 . S
C294 C300 1.368 . S
C295 C279 1.349 . S
C295 H287 0.950 . S
C295 C293 1.327 . S
C296 C284 1.349 . S
C296 H290 0.950 . S
C296 C297 1.327 . S
C297 H291 0.950 . S
C297 C296 1.327 . S
C297 C301 1.429 . S
C298 C281 1.574 . S
C298 H292 0.949 . S
C298 C302 1.368 . S
C299 C280 1.429 . S
C299 C293 1.429 . S
C299 C300 1.523 . S
C300 C281 1.368 . S
C300 C294 1.368 . S
C300 C299 1.523 . S
C301 C285 1.429 . S
C301 C297 1.429 . S
C301 C302 1.523 . S
C302 C286 1.368 . S
C302 C298 1.368 . S
C302 C301 1.523 . S
H303 C278 0.950 . S
H304 C280 0.950 . S
H305 C281 0.949 . S
H306 C283 0.950 . S
H307 C285 0.950 . S
C308 C309 1.349 . S
C308 C310 1.327 . S
C308 H333 0.950 . S
C309 C308 1.349 . S
C309 C325 1.349 1_554 S
C310 C308 1.327 . S
C310 C329 1.429 1_554 S
C310 H334 0.950 . S
C311 C328 1.574 . S
C311 C330 1.368 . S
C311 H335 0.949 . S
H312 C316 0.949 . S
C313 C314 1.351 . S
C313 C315 1.327 1_545 S
C313 H336 0.950 . S
C314 C313 1.351 . S
C314 C326 1.342 1_545 S
C315 C313 1.327 1_565 S
C315 C331 1.429 . S
C315 H337 0.950 . S
C316 H312 0.949 . S
C316 C324 1.574 . S
C316 C332 1.368 . S
H317 C325 0.950 . S
H318 C323 0.950 . S
H319 C324 0.949 1_554 S
H320 C326 0.950 . S
H321 C327 0.950 . S
H322 C328 0.949 . S
C323 H318 0.950 . S
C323 C325 1.327 . S
C323 C329 1.429 . S
C324 C316 1.574 . S
C324 H319 0.949 1_556 S
C324 C330 1.368 . S
C325 C309 1.349 1_556 S
C325 H317 0.950 . S
C325 C323 1.327 . S
C326 C314 1.342 1_565 S
C326 H320 0.950 . S
C326 C327 1.327 . S
C327 H321 0.950 . S
C327 C326 1.327 . S
C327 C331 1.429 . S
C328 C311 1.574 . S
C328 H322 0.949 . S
C328 C332 1.368 . S
C329 C310 1.429 1_556 S
C329 C323 1.429 . S
C329 C330 1.523 . S
C330 C311 1.368 . S
C330 C324 1.368 . S
C330 C329 1.523 . S
C331 C315 1.429 . S
C331 C327 1.429 . S
C331 C332 1.523 . S
C332 C316 1.368 . S
C332 C328 1.368 . S
C332 C331 1.523 . S
H333 C308 0.950 . S
H334 C310 0.950 . S
H335 C311 0.949 . S
H336 C313 0.950 . S
H337 C315 0.950 . S
C338 C339 1.349 . S
C338 C340 1.327 . S
C338 H363 0.950 . S
C339 C338 1.349 . S
C339 C355 1.349 1_554 S
C340 C338 1.327 . S
C340 C359 1.429 1_554 S
C340 H364 0.950 . S
C341 C358 1.574 . S
C341 C360 1.368 . S
C341 H365 0.949 . S
H342 C346 0.949 . S
C343 C344 1.349 . S
C343 C345 1.327 . S
C343 H366 0.950 . S
C344 C343 1.349 . S
C344 C356 1.349 . S
C345 C343 1.327 . S
C345 C361 1.429 . S
C345 H367 0.950 . S
C346 H342 0.949 . S
C346 C354 1.574 . S
C346 C362 1.368 . S
H347 C355 0.950 . S
H348 C353 0.950 . S
H349 C354 0.949 1_554 S
H350 C356 0.950 . S
H351 C357 0.950 . S
H352 C358 0.949 . S
C353 H348 0.950 . S
C353 C355 1.327 . S
C353 C359 1.429 . S
C354 C346 1.574 . S
C354 H349 0.949 1_556 S
C354 C360 1.368 . S
C355 C339 1.349 1_556 S
C355 H347 0.950 . S
C355 C353 1.327 . S
C356 C344 1.349 . S
C356 H350 0.950 . S
C356 C357 1.327 . S
C357 H351 0.950 . S
C357 C356 1.327 . S
C357 C361 1.429 . S
C358 C341 1.574 . S
C358 H352 0.949 . S
C358 C362 1.368 . S
C359 C340 1.429 1_556 S
C359 C353 1.429 . S
C359 C360 1.523 . S
C360 C341 1.368 . S
C360 C354 1.368 . S
C360 C359 1.523 . S
C361 C345 1.429 . S
C361 C357 1.429 . S
C361 C362 1.523 . S
C362 C346 1.368 . S
C362 C358 1.368 . S
C362 C361 1.523 . S
H363 C338 0.950 . S
H364 C340 0.950 . S
H365 C341 0.949 . S
H366 C343 0.950 . S
H367 C345 0.950 . S
C368 C369 1.349 . S
C368 C370 1.327 . S
C368 H393 0.950 . S
C369 C368 1.349 . S
C369 C385 1.349 1_554 S
C370 C368 1.327 . S
C370 C389 1.429 1_554 S
C370 H394 0.950 . S
C371 C388 1.574 . S
C371 C390 1.368 . S
C371 H395 0.949 . S
H372 C376 0.949 . S
C373 C374 1.349 . S
C373 C375 1.327 . S
C373 H396 0.950 . S
C374 C373 1.349 . S
C374 C386 1.349 . S
C375 C373 1.327 . S
C375 C391 1.429 . S
C375 H397 0.950 . S
C376 H372 0.949 . S
C376 C384 1.574 . S
C376 C392 1.368 . S
H377 C385 0.950 . S
H378 C383 0.950 . S
H379 C384 0.949 1_554 S
H380 C386 0.950 . S
H381 C387 0.950 . S
H382 C388 0.949 . S
C383 H378 0.950 . S
C383 C385 1.327 . S
C383 C389 1.429 . S
C384 C376 1.574 . S
C384 H379 0.949 1_556 S
C384 C390 1.368 . S
C385 C369 1.349 1_556 S
C385 H377 0.950 . S
C385 C383 1.327 . S
C386 C374 1.349 . S
C386 H380 0.950 . S
C386 C387 1.327 . S
C387 H381 0.950 . S
C387 C386 1.327 . S
C387 C391 1.429 . S
C388 C371 1.574 . S
C388 H382 0.949 . S
C388 C392 1.368 . S
C389 C370 1.429 1_556 S
C389 C383 1.429 . S
C389 C390 1.523 . S
C390 C371 1.368 . S
C390 C384 1.368 . S
C390 C389 1.523 . S
C391 C375 1.429 . S
C391 C387 1.429 . S
C391 C392 1.523 . S
C392 C376 1.368 . S
C392 C388 1.368 . S
C392 C391 1.523 . S
H393 C368 0.950 . S
H394 C370 0.950 . S
H395 C371 0.949 . S
H396 C373 0.950 . S
H397 C375 0.950 . S
C398 C399 1.349 . S
C398 C400 1.327 1_554 S
C398 H423 0.971 1_554 S
C399 C398 1.349 . S
C399 C415 1.349 . S
C400 C398 1.327 1_556 S
C400 C419 1.429 . S
C400 H424 0.950 1_655 S
C401 C418 1.574 . S
C401 C420 1.368 . S
C401 H425 0.949 . S
H402 C406 0.949 . S
C403 C404 1.349 1_655 S
C403 C405 1.327 . S
C403 H426 0.950 . S
C404 C403 1.349 1_455 S
C404 C416 1.349 . S
C405 C403 1.327 . S
C405 C421 1.429 . S
C405 H427 0.950 . S
C406 H402 0.949 . S
C406 C414 1.574 . S
C406 C422 1.368 1_455 S
H407 C415 0.950 . S
H408 C413 0.950 . S
H409 C414 0.949 . S
H410 C416 0.950 . S
H411 C417 0.950 . S
H412 C418 0.949 . S
C413 H408 0.950 . S
C413 C415 1.327 . S
C413 C419 1.429 1_554 S
C414 C406 1.574 . S
C414 H409 0.949 . S
C414 C420 1.368 1_455 S
C415 C399 1.349 . S
C415 H407 0.950 . S
C415 C413 1.327 . S
C416 C404 1.349 . S
C416 H410 0.950 . S
C416 C417 1.327 . S
C417 H411 0.950 . S
C417 C416 1.327 . S
C417 C421 1.429 1_455 S
C418 C401 1.574 . S
C418 H412 0.949 . S
C418 C422 1.368 . S
C419 C400 1.429 . S
C419 C413 1.429 1_556 S
C419 C420 1.523 . S
C420 C401 1.368 . S
C420 C414 1.368 1_655 S
C420 C419 1.523 . S
C421 C405 1.429 . S
C421 C417 1.429 1_655 S
C421 C422 1.523 . S
C422 C406 1.368 1_655 S
C422 C418 1.368 . S
C422 C421 1.523 . S
H423 C398 0.971 1_556 S
H424 C400 0.950 1_455 S
H425 C401 0.949 . S
H426 C403 0.950 . S
H427 C405 0.950 . S
C428 C429 1.349 . S
C428 C430 1.327 . S
C428 H453 0.950 . S
C429 C428 1.349 . S
C429 C445 1.349 . S
C430 C428 1.327 . S
C430 C449 1.429 . S
C430 H454 0.950 . S
C431 C448 1.574 . S
C431 C450 1.368 . S
C431 H455 0.949 . S
H432 C436 0.949 . S
C433 C434 1.349 1_655 S
C433 C435 1.327 1_655 S
C433 H456 0.950 . S
C434 C433 1.349 1_455 S
C434 C446 1.349 . S
C435 C433 1.327 1_455 S
C435 C451 1.429 . S
C435 H457 0.950 1_455 S
C436 H432 0.949 . S
C436 C444 1.574 . S
C436 C452 1.368 . S
H437 C445 0.950 . S
H438 C443 0.950 . S
H439 C444 0.949 . S
H440 C446 0.950 . S
H441 C447 0.950 . S
H442 C448 0.949 . S
C443 H438 0.950 . S
C443 C445 1.327 . S
C443 C449 1.429 . S
C444 C436 1.574 . S
C444 H439 0.949 . S
C444 C450 1.368 . S
C445 C429 1.349 . S
C445 H437 0.950 . S
C445 C443 1.327 . S
C446 C434 1.349 . S
C446 H440 0.950 . S
C446 C447 1.327 . S
C447 H441 0.950 . S
C447 C446 1.327 . S
C447 C451 1.429 . S
C448 C431 1.574 . S
C448 H442 0.949 . S
C448 C452 1.368 . S
C449 C430 1.429 . S
C449 C443 1.429 . S
C449 C450 1.523 . S
C450 C431 1.368 . S
C450 C444 1.368 . S
C450 C449 1.523 . S
C451 C435 1.429 . S
C451 C447 1.429 . S
C451 C452 1.523 . S
C452 C436 1.368 . S
C452 C448 1.368 . S
C452 C451 1.523 . S
H453 C428 0.950 . S
H454 C430 0.950 . S
H455 C431 0.949 . S
H456 C433 0.950 . S
H457 C435 0.950 1_655 S
C458 C459 1.349 . S
C458 C460 1.327 . S
C458 H483 0.950 . S
C459 C458 1.349 . S
C459 C475 1.349 . S
C460 C458 1.327 . S
C460 C479 1.429 . S
C460 H484 0.950 . S
C461 C478 1.574 . S
C461 C480 1.368 . S
C461 H485 0.949 . S
H462 C466 0.949 . S
C463 C464 1.349 . S
C463 C465 1.327 . S
C463 H486 0.950 1_545 S
C464 C463 1.349 . S
C464 C476 1.349 . S
C465 C463 1.327 . S
C465 C481 1.429 . S
C465 H487 0.950 . S
C466 H462 0.949 . S
C466 C474 1.574 . S
C466 C482 1.368 . S
H467 C475 0.950 . S
H468 C473 0.950 . S
H469 C474 0.949 . S
H470 C476 0.950 . S
H471 C477 0.950 . S
H472 C478 0.949 . S
C473 H468 0.950 . S
C473 C475 1.327 . S
C473 C479 1.429 . S
C474 C466 1.574 . S
C474 H469 0.949 . S
C474 C480 1.368 . S
C475 C459 1.349 . S
C475 H467 0.950 . S
C475 C473 1.327 . S
C476 C464 1.349 . S
C476 H470 0.950 . S
C476 C477 1.327 . S
C477 H471 0.950 . S
C477 C476 1.327 . S
C477 C481 1.429 . S
C478 C461 1.574 . S
C478 H472 0.949 . S
C478 C482 1.368 . S
C479 C460 1.429 . S
C479 C473 1.429 . S
C479 C480 1.523 . S
C480 C461 1.368 . S
C480 C474 1.368 . S
C480 C479 1.523 . S
C481 C465 1.429 . S
C481 C477 1.429 . S
C481 C482 1.523 . S
C482 C466 1.368 . S
C482 C478 1.368 . S
C482 C481 1.523 . S
H483 C458 0.950 . S
H484 C460 0.950 . S
H485 C461 0.949 . S
H486 C463 0.950 1_565 S
H487 C465 0.950 . S
C488 C489 1.349 . S
C488 C490 1.327 . S
C488 H513 0.950 . S
C489 C488 1.349 . S
C489 C505 1.349 . S
C490 C488 1.327 . S
C490 C509 1.429 . S
C490 H514 0.950 . S
C491 C508 1.574 . S
C491 C510 1.368 . S
C491 H515 0.949 . S
H492 C496 0.949 . S
C493 C494 1.349 . S
C493 C495 1.327 . S
C493 H516 0.950 . S
C494 C493 1.349 . S
C494 C506 1.349 . S
C495 C493 1.327 . S
C495 C511 1.429 . S
C495 H517 0.950 . S
C496 H492 0.949 . S
C496 C504 1.574 . S
C496 C512 1.368 . S
H497 C505 0.950 . S
H498 C503 0.950 . S
H499 C504 0.949 . S
H500 C506 0.950 . S
H501 C507 0.950 . S
H502 C508 0.949 . S
C503 H498 0.950 . S
C503 C505 1.327 . S
C503 C509 1.429 . S
C504 C496 1.574 . S
C504 H499 0.949 . S
C504 C510 1.368 . S
C505 C489 1.349 . S
C505 H497 0.950 . S
C505 C503 1.327 . S
C506 C494 1.349 . S
C506 H500 0.950 . S
C506 C507 1.327 . S
C507 H501 0.950 . S
C507 C506 1.327 . S
C507 C511 1.429 . S
C508 C491 1.574 . S
C508 H502 0.949 . S
C508 C512 1.368 . S
C509 C490 1.429 . S
C509 C503 1.429 . S
C509 C510 1.523 . S
C510 C491 1.368 . S
C510 C504 1.368 . S
C510 C509 1.523 . S
C511 C495 1.429 . S
C511 C507 1.429 . S
C511 C512 1.523 . S
C512 C496 1.368 . S
C512 C508 1.368 . S
C512 C511 1.523 . S
H513 C488 0.950 . S
H514 C490 0.950 . S
H515 C491 0.949 . S
H516 C493 0.950 . S
H517 C495 0.950 . S
C518 C519 1.349 . S
C518 C520 1.327 . S
C518 H543 0.950 . S
C519 C518 1.349 . S
C519 C535 1.349 . S
C520 C518 1.327 . S
C520 C539 1.429 . S
C520 H544 0.950 . S
C521 C538 1.574 . S
C521 C540 1.368 . S
C521 H545 0.949 . S
H522 C526 0.949 . S
C523 C524 1.349 . S
C523 C525 1.327 . S
C523 H546 0.950 . S
C524 C523 1.349 . S
C524 C536 1.349 . S
C525 C523 1.327 . S
C525 C541 1.429 . S
C525 H547 0.950 . S
C526 H522 0.949 . S
C526 C534 1.574 . S
C526 C542 1.368 . S
H527 C535 0.950 . S
H528 C533 0.950 . S
H529 C534 0.949 . S
H530 C536 0.950 . S
H531 C537 0.950 . S
H532 C538 0.949 . S
C533 H528 0.950 . S
C533 C535 1.327 . S
C533 C539 1.429 . S
C534 C526 1.574 . S
C534 H529 0.949 . S
C534 C540 1.368 . S
C535 C519 1.349 . S
C535 H527 0.950 . S
C535 C533 1.327 . S
C536 C524 1.349 . S
C536 H530 0.950 . S
C536 C537 1.327 . S
C537 H531 0.950 . S
C537 C536 1.327 . S
C537 C541 1.429 . S
C538 C521 1.574 . S
C538 H532 0.949 . S
C538 C542 1.368 . S
C539 C520 1.429 . S
C539 C533 1.429 . S
C539 C540 1.523 . S
C540 C521 1.368 . S
C540 C534 1.368 . S
C540 C539 1.523 . S
C541 C525 1.429 . S
C541 C537 1.429 . S
C541 C542 1.523 . S
C542 C526 1.368 . S
C542 C538 1.368 . S
C542 C541 1.523 . S
H543 C518 0.950 . S
H544 C520 0.950 . S
H545 C521 0.949 . S
H546 C523 0.950 . S
H547 C525 0.950 . S
C548 C549 1.349 1_556 S
C548 C550 1.327 . S
C548 H573 0.950 . S
C549 C548 1.349 1_554 S
C549 C565 1.349 . S
C550 C548 1.327 . S
C550 C569 1.429 . S
C550 H574 0.950 . S
C551 C568 1.574 1_655 S
C551 C570 1.367 . S
C551 H575 0.950 1_656 S
H552 C556 0.949 . S
C553 C554 1.349 . S
C553 C555 1.327 . S
C553 H576 0.950 . S
C554 C553 1.349 . S
C554 C566 1.316 1_455 S
C555 C553 1.327 . S
C555 C571 1.429 . S
C555 H577 0.950 . S
C556 H552 0.949 . S
C556 C564 1.574 . S
C556 C572 1.368 . S
H557 C565 0.950 . S
H558 C563 0.950 . S
H559 C564 0.949 . S
H560 C566 0.972 . S
H561 C567 0.950 . S
H562 C568 0.949 . S
C563 H558 0.950 . S
C563 C565 1.327 . S
C563 C569 1.429 1_554 S
C564 C556 1.574 . S
C564 H559 0.949 . S
C564 C570 1.368 . S
C565 C549 1.349 . S
C565 H557 0.950 . S
C565 C563 1.327 . S
C566 C554 1.316 1_655 S
C566 H560 0.972 . S
C566 C567 1.342 . S
C567 H561 0.950 . S
C567 C566 1.342 . S
C567 C571 1.429 1_655 S
C568 C551 1.574 1_455 S
C568 H562 0.949 . S
C568 C572 1.368 1_455 S
C569 C550 1.429 . S
C569 C563 1.429 1_556 S
C569 C570 1.523 . S
C570 C551 1.367 . S
C570 C564 1.368 . S
C570 C569 1.523 . S
C571 C555 1.429 . S
C571 C567 1.429 1_455 S
C571 C572 1.523 1_455 S
C572 C556 1.368 . S
C572 C568 1.368 1_655 S
C572 C571 1.523 1_655 S
H573 C548 0.950 . S
H574 C550 0.950 . S
H575 C551 0.950 1_454 S
H576 C553 0.950 . S
H577 C555 0.950 . S
C578 C579 1.349 1_556 S
C578 C580 1.327 . S
C578 H603 0.950 . S
C579 C578 1.349 1_554 S
C579 C595 1.349 . S
C580 C578 1.327 . S
C580 C599 1.429 . S
C580 H604 0.950 . S
C581 C598 1.574 . S
C581 C600 1.368 . S
C581 H605 0.949 1_556 S
H582 C586 0.949 . S
C583 C584 1.349 1_565 S
C583 C585 1.327 . S
C583 H606 0.950 . S
C584 C583 1.349 1_545 S
C584 C596 1.349 . S
C585 C583 1.327 . S
C585 C601 1.445 . S
C585 H607 0.950 . S
C586 H582 0.949 . S
C586 C594 1.574 1_545 S
C586 C602 1.368 1_545 S
H587 C595 0.950 . S
H588 C593 0.950 . S
H589 C594 0.939 1_545 S
H590 C596 0.950 . S
H591 C597 0.950 . S
H592 C598 0.949 . S
C593 H588 0.950 . S
C593 C595 1.327 . S
C593 C599 1.429 1_554 S
C594 C586 1.574 1_565 S
C594 H589 0.939 1_565 S
C594 C600 1.368 . S
C595 C579 1.349 . S
C595 H587 0.950 . S
C595 C593 1.327 . S
C596 C584 1.349 . S
C596 H590 0.950 . S
C596 C597 1.327 . S
C597 H591 0.950 . S
C597 C596 1.327 . S
C597 C601 1.400 1_545 S
C598 C581 1.574 . S
C598 H592 0.949 . S
C598 C602 1.368 . S
C599 C580 1.429 . S
C599 C593 1.429 1_556 S
C599 C600 1.523 . S
C600 C581 1.368 . S
C600 C594 1.368 . S
C600 C599 1.523 . S
C601 C585 1.445 . S
C601 C597 1.400 1_565 S
C601 C602 1.536 . S
C602 C586 1.368 1_565 S
C602 C598 1.368 . S
C602 C601 1.536 . S
H603 C578 0.950 . S
H604 C580 0.950 . S
H605 C581 0.949 1_554 S
H606 C583 0.950 . S
H607 C585 0.950 . S
C608 C609 1.349 1_556 S
C608 C610 1.327 . S
C608 H633 0.950 . S
C609 C608 1.349 1_554 S
C609 C625 1.349 . S
C610 C608 1.327 . S
C610 C629 1.429 . S
C610 H634 0.950 . S
C611 C628 1.574 . S
C611 C630 1.368 . S
C611 H635 0.949 1_556 S
H612 C616 0.949 . S
C613 C614 1.349 . S
C613 C615 1.327 . S
C613 H636 0.950 . S
C614 C613 1.349 . S
C614 C626 1.349 . S
C615 C613 1.327 . S
C615 C631 1.429 . S
C615 H637 0.950 . S
C616 H612 0.949 . S
C616 C624 1.574 . S
C616 C632 1.368 . S
H617 C625 0.950 . S
H618 C623 0.950 . S
H619 C624 0.949 . S
H620 C626 0.950 . S
H621 C627 0.950 . S
H622 C628 0.949 . S
C623 H618 0.950 . S
C623 C625 1.327 . S
C623 C629 1.429 1_554 S
C624 C616 1.574 . S
C624 H619 0.949 . S
C624 C630 1.368 . S
C625 C609 1.349 . S
C625 H617 0.950 . S
C625 C623 1.327 . S
C626 C614 1.349 . S
C626 H620 0.950 . S
C626 C627 1.327 . S
C627 H621 0.950 . S
C627 C626 1.327 . S
C627 C631 1.429 . S
C628 C611 1.574 . S
C628 H622 0.949 . S
C628 C632 1.368 . S
C629 C610 1.429 . S
C629 C623 1.429 1_556 S
C629 C630 1.523 . S
C630 C611 1.368 . S
C630 C624 1.368 . S
C630 C629 1.523 . S
C631 C615 1.429 . S
C631 C627 1.429 . S
C631 C632 1.523 . S
C632 C616 1.368 . S
C632 C628 1.368 . S
C632 C631 1.523 . S
H633 C608 0.950 . S
H634 C610 0.950 . S
H635 C611 0.949 1_554 S
H636 C613 0.950 . S
H637 C615 0.950 . S
C638 C639 1.349 1_556 S
C638 C640 1.327 . S
C638 H663 0.950 . S
C639 C638 1.349 1_554 S
C639 C655 1.349 . S
C640 C638 1.327 . S
C640 C659 1.429 . S
C640 H664 0.950 . S
C641 C658 1.574 . S
C641 C660 1.368 . S
C641 H665 0.949 1_556 S
H642 C646 0.949 . S
C643 C644 1.349 . S
C643 C645 1.327 . S
C643 H666 0.950 . S
C644 C643 1.349 . S
C644 C656 1.349 . S
C645 C643 1.327 . S
C645 C661 1.429 . S
C645 H667 0.950 . S
C646 H642 0.949 . S
C646 C654 1.574 . S
C646 C662 1.368 . S
H647 C655 0.950 . S
H648 C653 0.950 . S
H649 C654 0.949 . S
H650 C656 0.950 . S
H651 C657 0.950 . S
H652 C658 0.949 . S
C653 H648 0.950 . S
C653 C655 1.327 . S
C653 C659 1.429 1_554 S
C654 C646 1.574 . S
C654 H649 0.949 . S
C654 C660 1.368 . S
C655 C639 1.349 . S
C655 H647 0.950 . S
C655 C653 1.327 . S
C656 C644 1.349 . S
C656 H650 0.950 . S
C656 C657 1.327 . S
C657 H651 0.950 . S
C657 C656 1.327 . S
C657 C661 1.429 . S
C658 C641 1.574 . S
C658 H652 0.949 . S
C658 C662 1.368 . S
C659 C640 1.429 . S
C659 C653 1.429 1_556 S
C659 C660 1.523 . S
C660 C641 1.368 . S
C660 C654 1.368 . S
C660 C659 1.523 . S
C661 C645 1.429 . S
C661 C657 1.429 . S
C661 C662 1.523 . S
C662 C646 1.368 . S
C662 C658 1.368 . S
C662 C661 1.523 . S
H663 C638 0.950 . S
H664 C640 0.950 . S
H665 C641 0.949 1_554 S
H666 C643 0.950 . S
H667 C645 0.950 . S
C668 C669 1.349 . S
C668 C670 1.327 . S
C668 H693 0.950 . S
C669 C668 1.349 . S
C669 C685 1.349 . S
C670 C668 1.327 . S
C670 C689 1.429 . S
C670 H694 0.950 . S
C671 C688 1.574 1_554 S
C671 C690 1.368 . S
C671 H695 0.949 . S
H672 C676 0.949 . S
C673 C674 1.349 . S
C673 C675 1.327 . S
C673 H696 0.950 . S
C674 C673 1.349 . S
C674 C686 1.349 . S
C675 C673 1.327 . S
C675 C691 1.429 . S
C675 H697 0.950 . S
C676 H672 0.949 . S
C676 C684 1.574 . S
C676 C692 1.368 1_554 S
H677 C685 0.950 . S
H678 C683 0.950 . S
H679 C684 0.949 . S
H680 C686 0.950 . S
H681 C687 0.950 1_554 S
H682 C688 0.949 . S
C683 H678 0.950 . S
C683 C685 1.327 . S
C683 C689 1.429 . S
C684 C676 1.574 . S
C684 H679 0.949 . S
C684 C690 1.368 . S
C685 C669 1.349 . S
C685 H677 0.950 . S
C685 C683 1.327 . S
C686 C674 1.349 . S
C686 H680 0.950 . S
C686 C687 1.327 . S
C687 H681 0.950 1_556 S
C687 C686 1.327 . S
C687 C691 1.429 . S
C688 C671 1.574 1_556 S
C688 H682 0.949 . S
C688 C692 1.368 . S
C689 C670 1.429 . S
C689 C683 1.429 . S
C689 C690 1.523 . S
C690 C671 1.368 . S
C690 C684 1.368 . S
C690 C689 1.523 . S
C691 C675 1.429 . S
C691 C687 1.429 . S
C691 C692 1.523 . S
C692 C676 1.368 1_556 S
C692 C688 1.368 . S
C692 C691 1.523 . S
H693 C668 0.950 . S
H694 C670 0.950 . S
H695 C671 0.949 . S
H696 C673 0.950 . S
H697 C675 0.950 . S
C698 C699 1.349 . S
C698 C700 1.327 . S
C698 H723 0.950 . S
C699 C698 1.349 . S
C699 C715 1.349 . S
C700 C698 1.327 . S
C700 C719 1.429 . S
C700 H724 0.950 . S
C701 C718 1.574 1_554 S
C701 C720 1.368 . S
C701 H725 0.949 . S
H702 C706 0.949 . S
C703 C704 1.349 . S
C703 C705 1.327 . S
C703 H726 0.905 1_545 S
C704 C703 1.349 . S
C704 C716 1.349 . S
C705 C703 1.327 . S
C705 C721 1.429 . S
C705 H727 0.950 . S
C706 H702 0.949 . S
C706 C714 1.574 . S
C706 C722 1.368 1_554 S
H707 C715 0.950 . S
H708 C713 0.950 . S
H709 C714 0.949 . S
H710 C716 0.950 . S
H711 C717 0.950 . S
H712 C718 0.949 . S
C713 H708 0.950 . S
C713 C715 1.327 . S
C713 C719 1.429 . S
C714 C706 1.574 . S
C714 H709 0.949 . S
C714 C720 1.368 . S
C715 C699 1.349 . S
C715 H707 0.950 . S
C715 C713 1.327 . S
C716 C704 1.349 . S
C716 H710 0.950 . S
C716 C717 1.327 . S
C717 H711 0.950 . S
C717 C716 1.327 . S
C717 C721 1.429 . S
C718 C701 1.574 1_556 S
C718 H712 0.949 . S
C718 C722 1.368 . S
C719 C700 1.429 . S
C719 C713 1.429 . S
C719 C720 1.523 . S
C720 C701 1.368 . S
C720 C714 1.368 . S
C720 C719 1.523 . S
C721 C705 1.429 . S
C721 C717 1.429 . S
C721 C722 1.523 . S
C722 C706 1.368 1_556 S
C722 C718 1.368 . S
C722 C721 1.523 . S
H723 C698 0.950 . S
H724 C700 0.950 . S
H725 C701 0.949 . S
H726 C703 0.905 1_565 S
H727 C705 0.950 . S
C728 C729 1.349 . S
C728 C730 1.327 . S
C728 H753 0.950 . S
C729 C728 1.349 . S
C729 C745 1.349 . S
C730 C728 1.327 . S
C730 C749 1.429 . S
C730 H754 0.950 . S
C731 C748 1.574 1_554 S
C731 C750 1.368 . S
C731 H755 0.949 . S
H732 C736 0.949 . S
C733 C734 1.349 . S
C733 C735 1.327 . S
C733 H756 0.950 . S
C734 C733 1.349 . S
C734 C746 1.349 . S
C735 C733 1.327 . S
C735 C751 1.429 . S
C735 H757 0.950 . S
C736 H732 0.949 . S
C736 C744 1.574 . S
C736 C752 1.368 1_554 S
H737 C745 0.950 . S
H738 C743 0.950 . S
H739 C744 0.949 . S
H740 C746 0.950 . S
H741 C747 0.950 1_554 S
H742 C748 0.949 . S
C743 H738 0.950 . S
C743 C745 1.327 . S
C743 C749 1.429 . S
C744 C736 1.574 . S
C744 H739 0.949 . S
C744 C750 1.368 . S
C745 C729 1.349 . S
C745 H737 0.950 . S
C745 C743 1.327 . S
C746 C734 1.349 . S
C746 H740 0.950 . S
C746 C747 1.327 . S
C747 H741 0.950 1_556 S
C747 C746 1.327 . S
C747 C751 1.429 . S
C748 C731 1.574 1_556 S
C748 H742 0.949 . S
C748 C752 1.368 . S
C749 C730 1.429 . S
C749 C743 1.429 . S
C749 C750 1.523 . S
C750 C731 1.368 . S
C750 C744 1.368 . S
C750 C749 1.523 . S
C751 C735 1.429 . S
C751 C747 1.429 . S
C751 C752 1.523 . S
C752 C736 1.368 1_556 S
C752 C748 1.368 . S
C752 C751 1.523 . S
H753 C728 0.950 . S
H754 C730 0.950 . S
H755 C731 0.949 . S
H756 C733 0.950 . S
H757 C735 0.950 . S
C758 C759 1.349 . S
C758 C760 1.327 . S
C758 H783 0.950 . S
C759 C758 1.349 . S
C759 C775 1.349 . S
C760 C758 1.327 . S
C760 C779 1.429 . S
C760 H784 0.950 . S
C761 C778 1.574 . S
C761 C780 1.368 . S
C761 H785 0.949 . S
H762 C766 0.949 . S
C763 C764 1.349 . S
C763 C765 1.327 . S
C763 H786 0.950 . S
C764 C763 1.349 . S
C764 C776 1.349 . S
C765 C763 1.327 . S
C765 C781 1.429 . S
C765 H787 0.950 . S
C766 H762 0.949 . S
C766 C774 1.574 . S
C766 C782 1.368 1_554 S
H767 C775 0.950 . S
H768 C773 0.950 . S
H769 C774 0.949 . S
H770 C776 0.950 . S
H771 C777 0.950 . S
H772 C778 0.949 1_556 S
C773 H768 0.950 . S
C773 C775 1.327 . S
C773 C779 1.429 . S
C774 C766 1.574 . S
C774 H769 0.949 . S
C774 C780 1.368 . S
C775 C759 1.349 . S
C775 H767 0.950 . S
C775 C773 1.327 . S
C776 C764 1.349 . S
C776 H770 0.950 . S
C776 C777 1.327 . S
C777 H771 0.950 . S
C777 C776 1.327 . S
C777 C781 1.429 . S
C778 C761 1.574 . S
C778 H772 0.949 1_554 S
C778 C782 1.368 1_554 S
C779 C760 1.429 . S
C779 C773 1.429 . S
C779 C780 1.523 . S
C780 C761 1.368 . S
C780 C774 1.368 . S
C780 C779 1.523 . S
C781 C765 1.429 . S
C781 C777 1.429 . S
C781 C782 1.523 . S
C782 C766 1.368 1_556 S
C782 C778 1.368 1_556 S
C782 C781 1.523 . S
H783 C758 0.950 . S
H784 C760 0.950 . S
H785 C761 0.949 . S
H786 C763 0.950 . S
H787 C765 0.950 . S
C788 C789 1.349 . S
C788 C790 1.327 . S
C788 H813 0.950 . S
C789 C788 1.349 . S
C789 C805 1.349 . S
C790 C788 1.327 . S
C790 C809 1.429 . S
C790 H814 0.950 . S
C791 C808 1.580 . S
C791 C810 1.368 . S
C791 H815 0.949 1_655 S
H792 C796 0.949 . S
C793 C794 1.349 1_455 S
C793 C795 1.327 . S
C793 H816 0.950 . S
C794 C793 1.349 1_655 S
C794 C806 1.349 . S
C795 C793 1.327 . S
C795 C811 1.429 1_455 S
C795 H817 0.950 . S
C796 H792 0.949 . S
C796 C804 1.574 . S
C796 C812 1.368 . S
H797 C805 0.950 . S
H798 C803 0.950 1_455 S
H799 C804 0.949 . S
H800 C806 0.950 . S
H801 C807 0.950 . S
H802 C808 0.917 1_455 S
C803 H798 0.950 1_655 S
C803 C805 1.327 . S
C803 C809 1.429 . S
C804 C796 1.574 . S
C804 H799 0.949 . S
C804 C810 1.368 . S
C805 C789 1.349 . S
C805 H797 0.950 . S
C805 C803 1.327 . S
C806 C794 1.349 . S
C806 H800 0.950 . S
C806 C807 1.327 . S
C807 H801 0.950 . S
C807 C806 1.327 . S
C807 C811 1.429 . S
C808 C791 1.580 . S
C808 H802 0.917 1_655 S
C808 C812 1.399 . S
C809 C790 1.429 . S
C809 C803 1.429 . S
C809 C810 1.523 . S
C810 C791 1.368 . S
C810 C804 1.368 . S
C810 C809 1.523 . S
C811 C795 1.429 1_655 S
C811 C807 1.429 . S
C811 C812 1.523 . S
C812 C796 1.368 . S
C812 C808 1.399 . S
C812 C811 1.523 . S
H813 C788 0.950 . S
H814 C790 0.950 . S
H815 C791 0.949 1_455 S
H816 C793 0.950 . S
H817 C795 0.950 . S
C818 C819 1.349 . S
C818 C820 1.327 . S
C818 H843 0.950 . S
C819 C818 1.349 . S
C819 C835 1.349 . S
C820 C818 1.327 . S
C820 C839 1.429 . S
C820 H844 0.950 . S
C821 C838 1.574 . S
C821 C840 1.368 . S
C821 H845 0.949 . S
H822 C826 0.949 1_545 S
C823 C824 1.349 . S
C823 C825 1.327 . S
C823 H846 0.950 . S
C824 C823 1.349 . S
C824 C836 1.349 1_565 S
C825 C823 1.327 . S
C825 C841 1.429 . S
C825 H847 0.950 . S
C826 H822 0.949 1_565 S
C826 C834 1.574 . S
C826 C842 1.368 . S
H827 C835 0.950 . S
H828 C833 0.950 . S
H829 C834 0.949 1_545 S
H830 C836 0.950 . S
H831 C837 0.950 . S
H832 C838 0.949 . S
C833 H828 0.950 . S
C833 C835 1.327 . S
C833 C839 1.429 . S
C834 C826 1.574 . S
C834 H829 0.949 1_565 S
C834 C840 1.368 . S
C835 C819 1.349 . S
C835 H827 0.950 . S
C835 C833 1.327 . S
C836 C824 1.349 1_545 S
C836 H830 0.950 . S
C836 C837 1.327 . S
C837 H831 0.950 . S
C837 C836 1.327 . S
C837 C841 1.429 1_545 S
C838 C821 1.574 . S
C838 H832 0.949 . S
C838 C842 1.368 . S
C839 C820 1.429 . S
C839 C833 1.429 . S
C839 C840 1.523 . S
C840 C821 1.368 . S
C840 C834 1.368 . S
C840 C839 1.523 . S
C841 C825 1.429 . S
C841 C837 1.429 1_565 S
C841 C842 1.523 . S
C842 C826 1.368 . S
C842 C838 1.368 . S
C842 C841 1.523 . S
H843 C818 0.950 . S
H844 C820 0.950 . S
H845 C821 0.949 . S
H846 C823 0.950 . S
H847 C825 0.950 . S
C848 C849 1.349 . S
C848 C850 1.327 . S
C848 H873 0.950 . S
C849 C848 1.349 . S
C849 C865 1.349 . S
C850 C848 1.327 . S
C850 C869 1.429 . S
C850 H874 0.950 . S
C851 C868 1.574 . S
C851 C870 1.368 . S
C851 H875 0.949 . S
H852 C856 0.949 . S
C853 C854 1.349 . S
C853 C855 1.327 . S
C853 H876 0.950 . S
C854 C853 1.349 . S
C854 C866 1.349 . S
C855 C853 1.327 . S
C855 C871 1.429 . S
C855 H877 0.950 . S
C856 H852 0.949 . S
C856 C864 1.574 . S
C856 C872 1.368 . S
H857 C865 0.950 . S
H858 C863 0.950 . S
H859 C864 0.949 . S
H860 C866 0.950 . S
H861 C867 0.950 . S
H862 C868 0.949 . S
C863 H858 0.950 . S
C863 C865 1.327 . S
C863 C869 1.429 . S
C864 C856 1.574 . S
C864 H859 0.949 . S
C864 C870 1.368 . S
C865 C849 1.349 . S
C865 H857 0.950 . S
C865 C863 1.327 . S
C866 C854 1.349 . S
C866 H860 0.950 . S
C866 C867 1.327 . S
C867 H861 0.950 . S
C867 C866 1.327 . S
C867 C871 1.429 . S
C868 C851 1.574 . S
C868 H862 0.949 . S
C868 C872 1.368 . S
C869 C850 1.429 . S
C869 C863 1.429 . S
C869 C870 1.523 . S
C870 C851 1.368 . S
C870 C864 1.368 . S
C870 C869 1.523 . S
C871 C855 1.429 . S
C871 C867 1.429 . S
C871 C872 1.523 . S
C872 C856 1.368 . S
C872 C868 1.368 . S
C872 C871 1.523 . S
H873 C848 0.950 . S
H874 C850 0.950 . S
H875 C851 0.949 . S
H876 C853 0.950 . S
H877 C855 0.950 . S
C878 C879 1.349 . S
C878 C880 1.327 . S
C878 H903 0.950 . S
C879 C878 1.349 . S
C879 C895 1.349 . S
C880 C878 1.327 . S
C880 C899 1.429 . S
C880 H904 0.950 . S
C881 C898 1.574 . S
C881 C900 1.368 . S
C881 H905 0.949 . S
H882 C886 0.949 . S
C883 C884 1.349 . S
C883 C885 1.327 . S
C883 H906 0.950 . S
C884 C883 1.349 . S
C884 C896 1.349 . S
C885 C883 1.327 . S
C885 C901 1.429 . S
C885 H907 0.950 . S
C886 H882 0.949 . S
C886 C894 1.574 . S
C886 C902 1.368 . S
H887 C895 0.950 . S
H888 C893 0.950 . S
H889 C894 0.949 . S
H890 C896 0.950 . S
H891 C897 0.950 . S
H892 C898 0.949 . S
C893 H888 0.950 . S
C893 C895 1.327 . S
C893 C899 1.429 . S
C894 C886 1.574 . S
C894 H889 0.949 . S
C894 C900 1.368 . S
C895 C879 1.349 . S
C895 H887 0.950 . S
C895 C893 1.327 . S
C896 C884 1.349 . S
C896 H890 0.950 . S
C896 C897 1.327 . S
C897 H891 0.950 . S
C897 C896 1.327 . S
C897 C901 1.429 . S
C898 C881 1.574 . S
C898 H892 0.949 . S
C898 C902 1.368 . S
C899 C880 1.429 . S
C899 C893 1.429 . S
C899 C900 1.523 . S
C900 C881 1.368 . S
C900 C894 1.368 . S
C900 C899 1.523 . S
C901 C885 1.429 . S
C901 C897 1.429 . S
C901 C902 1.523 . S
C902 C886 1.368 . S
C902 C898 1.368 . S
C902 C901 1.523 . S
H903 C878 0.950 . S
H904 C880 0.950 . S
H905 C881 0.949 . S
H906 C883 0.950 . S
H907 C885 0.950 . S
C189 C82 1.497 . S
C194 C120 1.406 . S
C224 C138 1.406 . S
C219 C95 1.497 . S
C254 C159 1.406 . S
C249 C56 1.498 . S
C284 C183 1.406 . S
C279 C69 1.498 . S
C314 C117 1.359 . S
C309 C30 1.390 . S
C339 C43 1.390 . S
C344 C141 1.335 . S
C369 C4 1.390 . S
C374 C162 1.336 . S
C399 C17 1.390 . S
C404 C180 1.335 . S
C434 C122 0.423 . S
C429 C74 0.441 . S
C464 C140 0.423 . S
C459 C87 0.442 . S
C494 C161 0.423 . S
C489 C100 0.442 . S
C519 C61 0.442 . S
C524 C185 0.424 . S
C549 C22 0.515 . S
C554 C121 0.486 . S
C584 C139 0.486 . S
C579 C35 0.515 . S
C614 C160 0.485 . S
C609 C48 0.514 . S
C639 C9 0.515 . S
C644 C184 0.486 . S
C669 C73 1.603 . S
C674 C118 1.564 . S
C699 C86 1.604 . S
C704 C142 1.564 . S
C734 C163 1.565 . S
C729 C99 1.604 . S
C764 C181 1.565 . S
C759 C60 1.604 . S
C789 C21 1.451 . S
C794 C119 1.414 1_655 S
C824 C143 1.426 . S
C819 C34 1.451 . S
C854 C164 1.413 . S
C849 C47 1.450 . S
C879 C8 1.450 . S
C884 C182 1.414 . S
