# Generated by pormake.
# Topology eea, (3,6)-cn, num edge types: 1
# Building blocks:
#     Node 0, Type 0, BuildingBlock: KAKCAD_clean_linker_0, # of connection points: 3
#     Node 1, Type 0, BuildingBlock: KAKCAD_clean_linker_0, # of connection points: 3
#     Node 2, Type 0, BuildingBlock: KAKCAD_clean_linker_0, # of connection points: 3
#     Node 3, Type 0, BuildingBlock: KAKCAD_clean_linker_0, # of connection points: 3
#     Node 4, Type 0, BuildingBlock: KAKCAD_clean_linker_0, # of connection points: 3
#     Node 5, Type 0, BuildingBlock: KAKCAD_clean_linker_0, # of connection points: 3
#     Node 6, Type 0, BuildingBlock: KAKCAD_clean_linker_0, # of connection points: 3
#     Node 7, Type 0, BuildingBlock: KAKCAD_clean_linker_0, # of connection points: 3
#     Node 8, Type 0, BuildingBlock: KAKCAD_clean_linker_0, # of connection points: 3
#     Node 9, Type 0, BuildingBlock: KAKCAD_clean_linker_0, # of connection points: 3
#     Node 10, Type 0, BuildingBlock: KAKCAD_clean_linker_0, # of connection points: 3
#     Node 11, Type 0, BuildingBlock: KAKCAD_clean_linker_0, # of connection points: 3
#     Node 12, Type 0, BuildingBlock: KAKCAD_clean_linker_0, # of connection points: 3
#     Node 13, Type 0, BuildingBlock: KAKCAD_clean_linker_0, # of connection points: 3
#     Node 14, Type 0, BuildingBlock: KAKCAD_clean_linker_0, # of connection points: 3
#     Node 15, Type 0, BuildingBlock: KAKCAD_clean_linker_0, # of connection points: 3
#     Node 16, Type 0, BuildingBlock: KAKCAD_clean_linker_0, # of connection points: 3
#     Node 17, Type 0, BuildingBlock: KAKCAD_clean_linker_0, # of connection points: 3
#     Node 18, Type 1, BuildingBlock: CUKXOW_clean_sbu_0, # of connection points: 6
#     Node 19, Type 1, BuildingBlock: CUKXOW_clean_sbu_0, # of connection points: 6
#     Node 20, Type 1, BuildingBlock: CUKXOW_clean_sbu_0, # of connection points: 6
#     Node 21, Type 1, BuildingBlock: CUKXOW_clean_sbu_0, # of connection points: 6
#     Node 22, Type 1, BuildingBlock: CUKXOW_clean_sbu_0, # of connection points: 6
#     Node 23, Type 1, BuildingBlock: CUKXOW_clean_sbu_0, # of connection points: 6
#     Node 24, Type 1, BuildingBlock: CUKXOW_clean_sbu_0, # of connection points: 6
#     Node 25, Type 1, BuildingBlock: CUKXOW_clean_sbu_0, # of connection points: 6
#     Node 26, Type 1, BuildingBlock: CUKXOW_clean_sbu_0, # of connection points: 6
#     Edge 27, Type (0, 1), BuildingBlock: ZUJKAS_clean_linker_0, # of connection points: 2
#     Edge 28, Type (0, 1), BuildingBlock: ZUJKAS_clean_linker_0, # of connection points: 2
#     Edge 29, Type (0, 1), BuildingBlock: ZUJKAS_clean_linker_0, # of connection points: 2
#     Edge 30, Type (0, 1), BuildingBlock: ZUJKAS_clean_linker_0, # of connection points: 2
#     Edge 31, Type (0, 1), BuildingBlock: ZUJKAS_clean_linker_0, # of connection points: 2
#     Edge 32, Type (0, 1), BuildingBlock: ZUJKAS_clean_linker_0, # of connection points: 2
#     Edge 33, Type (0, 1), BuildingBlock: ZUJKAS_clean_linker_0, # of connection points: 2
#     Edge 34, Type (0, 1), BuildingBlock: ZUJKAS_clean_linker_0, # of connection points: 2
#     Edge 35, Type (0, 1), BuildingBlock: ZUJKAS_clean_linker_0, # of connection points: 2
#     Edge 36, Type (0, 1), BuildingBlock: ZUJKAS_clean_linker_0, # of connection points: 2
#     Edge 37, Type (0, 1), BuildingBlock: ZUJKAS_clean_linker_0, # of connection points: 2
#     Edge 38, Type (0, 1), BuildingBlock: ZUJKAS_clean_linker_0, # of connection points: 2
#     Edge 39, Type (0, 1), BuildingBlock: ZUJKAS_clean_linker_0, # of connection points: 2
#     Edge 40, Type (0, 1), BuildingBlock: ZUJKAS_clean_linker_0, # of connection points: 2
#     Edge 41, Type (0, 1), BuildingBlock: ZUJKAS_clean_linker_0, # of connection points: 2
#     Edge 42, Type (0, 1), BuildingBlock: ZUJKAS_clean_linker_0, # of connection points: 2
#     Edge 43, Type (0, 1), BuildingBlock: ZUJKAS_clean_linker_0, # of connection points: 2
#     Edge 44, Type (0, 1), BuildingBlock: ZUJKAS_clean_linker_0, # of connection points: 2
#     Edge 45, Type (0, 1), BuildingBlock: ZUJKAS_clean_linker_0, # of connection points: 2
#     Edge 46, Type (0, 1), BuildingBlock: ZUJKAS_clean_linker_0, # of connection points: 2
#     Edge 47, Type (0, 1), BuildingBlock: ZUJKAS_clean_linker_0, # of connection points: 2
#     Edge 48, Type (0, 1), BuildingBlock: ZUJKAS_clean_linker_0, # of connection points: 2
#     Edge 49, Type (0, 1), BuildingBlock: ZUJKAS_clean_linker_0, # of connection points: 2
#     Edge 50, Type (0, 1), BuildingBlock: ZUJKAS_clean_linker_0, # of connection points: 2
#     Edge 51, Type (0, 1), BuildingBlock: ZUJKAS_clean_linker_0, # of connection points: 2
#     Edge 52, Type (0, 1), BuildingBlock: ZUJKAS_clean_linker_0, # of connection points: 2
#     Edge 53, Type (0, 1), BuildingBlock: ZUJKAS_clean_linker_0, # of connection points: 2
#     Edge 54, Type (0, 1), BuildingBlock: ZUJKAS_clean_linker_0, # of connection points: 2
#     Edge 55, Type (0, 1), BuildingBlock: ZUJKAS_clean_linker_0, # of connection points: 2
#     Edge 56, Type (0, 1), BuildingBlock: ZUJKAS_clean_linker_0, # of connection points: 2
#     Edge 57, Type (0, 1), BuildingBlock: ZUJKAS_clean_linker_0, # of connection points: 2
#     Edge 58, Type (0, 1), BuildingBlock: ZUJKAS_clean_linker_0, # of connection points: 2
#     Edge 59, Type (0, 1), BuildingBlock: ZUJKAS_clean_linker_0, # of connection points: 2
#     Edge 60, Type (0, 1), BuildingBlock: ZUJKAS_clean_linker_0, # of connection points: 2
#     Edge 61, Type (0, 1), BuildingBlock: ZUJKAS_clean_linker_0, # of connection points: 2
#     Edge 62, Type (0, 1), BuildingBlock: ZUJKAS_clean_linker_0, # of connection points: 2
#     Edge 63, Type (0, 1), BuildingBlock: ZUJKAS_clean_linker_0, # of connection points: 2
#     Edge 64, Type (0, 1), BuildingBlock: ZUJKAS_clean_linker_0, # of connection points: 2
#     Edge 65, Type (0, 1), BuildingBlock: ZUJKAS_clean_linker_0, # of connection points: 2
#     Edge 66, Type (0, 1), BuildingBlock: ZUJKAS_clean_linker_0, # of connection points: 2
#     Edge 67, Type (0, 1), BuildingBlock: ZUJKAS_clean_linker_0, # of connection points: 2
#     Edge 68, Type (0, 1), BuildingBlock: ZUJKAS_clean_linker_0, # of connection points: 2
#     Edge 69, Type (0, 1), BuildingBlock: ZUJKAS_clean_linker_0, # of connection points: 2
#     Edge 70, Type (0, 1), BuildingBlock: ZUJKAS_clean_linker_0, # of connection points: 2
#     Edge 71, Type (0, 1), BuildingBlock: ZUJKAS_clean_linker_0, # of connection points: 2
#     Edge 72, Type (0, 1), BuildingBlock: ZUJKAS_clean_linker_0, # of connection points: 2
#     Edge 73, Type (0, 1), BuildingBlock: ZUJKAS_clean_linker_0, # of connection points: 2
#     Edge 74, Type (0, 1), BuildingBlock: ZUJKAS_clean_linker_0, # of connection points: 2
#     Edge 75, Type (0, 1), BuildingBlock: ZUJKAS_clean_linker_0, # of connection points: 2
#     Edge 76, Type (0, 1), BuildingBlock: ZUJKAS_clean_linker_0, # of connection points: 2
#     Edge 77, Type (0, 1), BuildingBlock: ZUJKAS_clean_linker_0, # of connection points: 2
#     Edge 78, Type (0, 1), BuildingBlock: ZUJKAS_clean_linker_0, # of connection points: 2
#     Edge 79, Type (0, 1), BuildingBlock: ZUJKAS_clean_linker_0, # of connection points: 2
#     Edge 80, Type (0, 1), BuildingBlock: ZUJKAS_clean_linker_0, # of connection points: 2
# Relax obj value: 0.017
# Max RMSD: 0.127
# Mean RMSD: 0.052
data_MOF--net-eea--node1-CUKXOW_clean_sbu_0--node2-KAKCAD_clean_linker_0--edge1-ZUJKAS_clean_linker_0
_symmetry_space_group_name_H-M    P1
_symmetry_Int_Tables_number       1
_symmetry_cell_setting            triclinic
loop_
_symmetry_equiv_pos_as_xyz
'x, y, z'
_cell_length_a     83.064486
_cell_length_b     80.187974
_cell_length_c     91.901583
_cell_angle_alpha  93.210213
_cell_angle_beta   92.92288
_cell_angle_gamma 119.93135
loop_
_atom_site_label
_atom_site_type_symbol
_atom_site_fract_x
_atom_site_fract_y
_atom_site_fract_z
_atom_type_partial_charge
C0 C 0.27723 0.15593 0.48497 0.0
C1 C 0.29047 0.15093 0.48978 0.0
C2 C 0.27117 0.15337 0.47013 0.0
C3 C 0.27827 0.14583 0.45971 0.0
C4 C 0.29169 0.14106 0.46449 0.0
C5 C 0.29772 0.14358 0.47935 0.0
C6 C 0.27134 0.14256 0.44398 0.0
C7 C 0.26777 0.156 0.43751 0.0
C8 C 0.26028 0.15255 0.42288 0.0
C9 C 0.25665 0.13558 0.41461 0.0
C10 C 0.26011 0.12196 0.42087 0.0
C11 C 0.26752 0.12561 0.43554 0.0
C12 C 0.25511 0.10349 0.41229 0.0
C13 C 0.23821 0.09331 0.40334 0.0
C14 C 0.26695 0.09569 0.4132 0.0
C15 C 0.26192 0.07803 0.40543 0.0
C16 C 0.24491 0.06776 0.39662 0.0
C17 C 0.25536 0.16618 0.41642 0.0
C18 C 0.24619 0.17383 0.42446 0.0
C19 C 0.25912 0.17104 0.40204 0.0
C20 C 0.25357 0.18306 0.39575 0.0
C21 C 0.24407 0.1904 0.4037 0.0
C22 C 0.2406 0.18579 0.41817 0.0
C23 C 0.23319 0.07568 0.39559 0.0
H24 H 0.27153 0.16186 0.49267 0.0
H25 H 0.26065 0.15698 0.46686 0.0
H26 H 0.29757 0.13539 0.45674 0.0
H27 H 0.30781 0.13941 0.48269 0.0
H28 H 0.27092 0.16925 0.44384 0.0
H29 H 0.26957 0.11483 0.44059 0.0
H30 H 0.25075 0.13278 0.40335 0.0
H31 H 0.22866 0.09879 0.40254 0.0
H32 H 0.28013 0.10326 0.4199 0.0
H33 H 0.27118 0.07224 0.40656 0.0
H34 H 0.24292 0.1702 0.43552 0.0
H35 H 0.26631 0.16551 0.39562 0.0
H36 H 0.22009 0.06825 0.38877 0.0
H37 H 0.23352 0.19141 0.42464 0.0
H38 H 0.25634 0.18624 0.38455 0.0
C39 C 0.86865 0.16681 0.48699 0.0
C40 C 0.86396 0.15262 0.49683 0.0
C41 C 0.8717 0.16331 0.47259 0.0
C42 C 0.86975 0.14541 0.46773 0.0
C43 C 0.86497 0.1312 0.47756 0.0
C44 C 0.86225 0.13482 0.492 0.0
C45 C 0.87271 0.14146 0.45246 0.0
C46 C 0.88914 0.15432 0.44642 0.0
C47 C 0.89251 0.15006 0.43224 0.0
C48 C 0.87893 0.13299 0.42397 0.0
C49 C 0.86239 0.12003 0.42984 0.0
C50 C 0.85943 0.12438 0.44412 0.0
C51 C 0.84858 0.10156 0.4213 0.0
C52 C 0.84358 0.10104 0.40636 0.0
C53 C 0.84058 0.08421 0.42802 0.0
C54 C 0.82803 0.06671 0.41997 0.0
C55 C 0.82315 0.06613 0.405 0.0
C56 C 0.91065 0.16281 0.4264 0.0
C57 C 0.9191 0.18305 0.42855 0.0
C58 C 0.91991 0.15476 0.41896 0.0
C59 C 0.93724 0.16662 0.41386 0.0
C60 C 0.94577 0.18685 0.41609 0.0
C61 C 0.93646 0.19494 0.42342 0.0
C62 C 0.83094 0.08351 0.39831 0.0
H63 H 0.87012 0.18067 0.49048 0.0
H64 H 0.87533 0.17446 0.46518 0.0
H65 H 0.86352 0.11734 0.47411 0.0
H66 H 0.85851 0.1236 0.49935 0.0
H67 H 0.89966 0.16719 0.45305 0.0
H68 H 0.84667 0.11453 0.44875 0.0
H69 H 0.88142 0.12958 0.41303 0.0
H70 H 0.8494 0.1142 0.40091 0.0
H71 H 0.84428 0.08409 0.43948 0.0
H72 H 0.82209 0.05361 0.4255 0.0
H73 H 0.91227 0.18969 0.43416 0.0
H74 H 0.91393 0.13924 0.41729 0.0
H75 H 0.82752 0.08351 0.38677 0.0
H76 H 0.94272 0.21047 0.42541 0.0
H77 H 0.94391 0.15992 0.40808 0.0
C78 C 0.88463 0.72358 0.49784 0.0
C79 C 0.86668 0.70884 0.50031 0.0
C80 C 0.88809 0.73126 0.48431 0.0
C81 C 0.87367 0.7244 0.47297 0.0
C82 C 0.85583 0.70938 0.47532 0.0
C83 C 0.85239 0.70166 0.48882 0.0
C84 C 0.87704 0.73331 0.4589 0.0
C85 C 0.89325 0.7377 0.45205 0.0
C86 C 0.89665 0.7465 0.43888 0.0
C87 C 0.88367 0.75103 0.43263 0.0
C88 C 0.86743 0.74682 0.43938 0.0
C89 C 0.86418 0.73786 0.45246 0.0
C90 C 0.85409 0.75222 0.43298 0.0
C91 C 0.86061 0.77049 0.42785 0.0
C92 C 0.83477 0.73928 0.43214 0.0
C93 C 0.82223 0.74449 0.42628 0.0
C94 C 0.82873 0.76281 0.42119 0.0
C95 C 0.91383 0.75118 0.4317 0.0
C96 C 0.93118 0.75956 0.44001 0.0
C97 C 0.91305 0.74755 0.41647 0.0
C98 C 0.92928 0.75234 0.40967 0.0
C99 C 0.94667 0.7609 0.41796 0.0
C100 C 0.94742 0.76439 0.43321 0.0
C101 C 0.84807 0.77574 0.42205 0.0
H102 H 0.89589 0.72962 0.50651 0.0
H103 H 0.90193 0.74298 0.48288 0.0
H104 H 0.84452 0.70358 0.4667 0.0
H105 H 0.83849 0.69006 0.49025 0.0
H106 H 0.90306 0.73391 0.45683 0.0
H107 H 0.85191 0.73504 0.45791 0.0
H108 H 0.88627 0.75798 0.42255 0.0
H109 H 0.8754 0.78089 0.42857 0.0
H110 H 0.82936 0.72501 0.43586 0.0
H111 H 0.80744 0.73407 0.42557 0.0
H112 H 0.93226 0.76277 0.45174 0.0
H113 H 0.89985 0.74084 0.40981 0.0
H114 H 0.85356 0.79008 0.41848 0.0
H115 H 0.96062 0.77123 0.43989 0.0
H116 H 0.92817 0.74915 0.39794 0.0
C117 C 0.1382 0.2711 0.50374 0.0
C118 C 0.13317 0.2847 0.49982 0.0
C119 C 0.1353 0.26432 0.51756 0.0
C120 C 0.12727 0.27092 0.52781 0.0
C121 C 0.122 0.28433 0.52386 0.0
C122 C 0.12494 0.29117 0.51001 0.0
C123 C 0.12439 0.26373 0.54253 0.0
C124 C 0.13833 0.26177 0.55022 0.0
C125 C 0.13549 0.25413 0.56385 0.0
C126 C 0.11852 0.24864 0.56985 0.0
C127 C 0.10447 0.25063 0.56239 0.0
C128 C 0.10755 0.25826 0.54875 0.0
C129 C 0.08645 0.24435 0.56873 0.0
C130 C 0.07764 0.22692 0.57533 0.0
C131 C 0.078 0.25576 0.56831 0.0
C132 C 0.06118 0.24995 0.5745 0.0
C133 C 0.05244 0.2326 0.5812 0.0
C134 C 0.14999 0.25132 0.57161 0.0
C135 C 0.15996 0.24447 0.56377 0.0
C136 C 0.15364 0.25494 0.58692 0.0
C137 C 0.16668 0.25144 0.59423 0.0
C138 C 0.17644 0.24431 0.5864 0.0
C139 C 0.17306 0.24108 0.57106 0.0
C140 C 0.06083 0.22111 0.5815 0.0
H141 H 0.14421 0.26552 0.49605 0.0
H142 H 0.13917 0.2537 0.52017 0.0
H143 H 0.11592 0.2898 0.53158 0.0
H144 H 0.12109 0.30179 0.50739 0.0
H145 H 0.15151 0.26642 0.54563 0.0
H146 H 0.09657 0.25929 0.54272 0.0
H147 H 0.11613 0.2426 0.58032 0.0
H148 H 0.08368 0.21768 0.57566 0.0
H149 H 0.08451 0.26932 0.56338 0.0
H150 H 0.05496 0.25902 0.57395 0.0
H151 H 0.15737 0.24132 0.55199 0.0
H152 H 0.1464 0.26047 0.59328 0.0
H153 H 0.05455 0.20776 0.5867 0.0
H154 H 0.18052 0.23588 0.56466 0.0
H155 H 0.16881 0.25394 0.60605 0.0
C156 C 0.7022 0.82621 0.51885 0.0
C157 C 0.70889 0.83979 0.50844 0.0
C158 C 0.70911 0.83171 0.53357 0.0
C159 C 0.72283 0.85092 0.53822 0.0
C160 C 0.72947 0.86448 0.5278 0.0
C161 C 0.72258 0.85899 0.51311 0.0
C162 C 0.73035 0.85682 0.55382 0.0
C163 C 0.7347 0.845 0.5619 0.0
C164 C 0.7424 0.85075 0.57653 0.0
C165 C 0.7457 0.86859 0.58306 0.0
C166 C 0.7416 0.88069 0.57511 0.0
C167 C 0.73378 0.8746 0.56055 0.0
C168 C 0.7462 0.90004 0.58182 0.0
C169 C 0.74276 0.90258 0.59637 0.0
C170 C 0.75456 0.91624 0.57378 0.0
C171 C 0.75956 0.93458 0.58017 0.0
C172 C 0.75634 0.93718 0.59477 0.0
C173 C 0.74767 0.83846 0.58476 0.0
C174 C 0.73632 0.8182 0.58315 0.0
C175 C 0.76432 0.84686 0.59405 0.0
C176 C 0.76955 0.83531 0.60144 0.0
C177 C 0.75835 0.81508 0.59962 0.0
C178 C 0.74165 0.80665 0.59045 0.0
C179 C 0.74775 0.92094 0.60277 0.0
H180 H 0.69175 0.81127 0.5156 0.0
H181 H 0.7036 0.82094 0.54135 0.0
H182 H 0.74019 0.87934 0.53097 0.0
H183 H 0.72786 0.86988 0.50542 0.0
H184 H 0.73273 0.83162 0.55659 0.0
H185 H 0.7302 0.88367 0.55447 0.0
H186 H 0.75175 0.87323 0.59428 0.0
H187 H 0.73619 0.89035 0.60281 0.0
H188 H 0.75758 0.91482 0.5626 0.0
H189 H 0.76593 0.94674 0.57365 0.0
H190 H 0.72327 0.81126 0.57628 0.0
H191 H 0.77357 0.86238 0.59535 0.0
H192 H 0.74521 0.92248 0.61407 0.0
H193 H 0.73263 0.79109 0.58899 0.0
H194 H 0.78262 0.8422 0.60829 0.0
C195 C 0.12347 0.84203 0.51167 0.0
C196 C 0.14108 0.84495 0.50871 0.0
C197 C 0.12003 0.84564 0.52588 0.0
C198 C 0.13412 0.85228 0.53747 0.0
C199 C 0.15164 0.85486 0.53457 0.0
C200 C 0.15507 0.85119 0.52034 0.0
C201 C 0.13066 0.85711 0.55241 0.0
C202 C 0.11357 0.8452 0.55805 0.0
C203 C 0.10966 0.85027 0.57176 0.0
C204 C 0.12321 0.86744 0.57992 0.0
C205 C 0.14045 0.87945 0.57452 0.0
C206 C 0.14409 0.87413 0.56079 0.0
C207 C 0.15435 0.89798 0.58293 0.0
C208 C 0.14869 0.9103 0.58938 0.0
C209 C 0.17337 0.90368 0.5843 0.0
C210 C 0.18648 0.92138 0.59188 0.0
C211 C 0.18085 0.93383 0.5982 0.0
C212 C 0.09126 0.83792 0.57739 0.0
C213 C 0.07475 0.82951 0.56795 0.0
C214 C 0.09001 0.83466 0.59227 0.0
C215 C 0.07268 0.82338 0.5976 0.0
C216 C 0.05616 0.81503 0.58817 0.0
C217 C 0.05742 0.81818 0.57327 0.0
C218 C 0.16178 0.92802 0.59689 0.0
H219 H 0.11233 0.83702 0.50298 0.0
H220 H 0.10644 0.8437 0.52771 0.0
H221 H 0.16273 0.85978 0.54329 0.0
H222 H 0.16883 0.85371 0.51839 0.0
H223 H 0.10334 0.83183 0.55179 0.0
H224 H 0.15709 0.88369 0.55635 0.0
H225 H 0.12027 0.87162 0.59042 0.0
H226 H 0.13417 0.90645 0.58831 0.0
H227 H 0.17811 0.89438 0.57958 0.0
H228 H 0.20101 0.92526 0.59286 0.0
H229 H 0.07517 0.83191 0.55646 0.0
H230 H 0.10246 0.84075 0.59981 0.0
H231 H 0.15698 0.93738 0.60137 0.0
H232 H 0.04501 0.81179 0.56567 0.0
H233 H 0.07223 0.82145 0.60917 0.0
C234 C 0.94666 0.49694 0.81973 0.0
C235 C 0.96107 0.49367 0.82463 0.0
C236 C 0.94011 0.49327 0.80495 0.0
C237 C 0.9478 0.48623 0.79469 0.0
C238 C 0.96248 0.48334 0.79953 0.0
C239 C 0.96907 0.48705 0.81433 0.0
C240 C 0.93996 0.48124 0.77913 0.0
C241 C 0.93474 0.49315 0.7721 0.0
C242 C 0.92595 0.4878 0.75778 0.0
C243 C 0.92262 0.47038 0.75041 0.0
C244 C 0.92791 0.45838 0.75722 0.0
C245 C 0.93668 0.46397 0.77154 0.0
C246 C 0.92339 0.43949 0.74972 0.0
C247 C 0.90548 0.42697 0.74273 0.0
C248 C 0.93672 0.43358 0.74988 0.0
C249 C 0.93219 0.41546 0.74327 0.0
C250 C 0.91416 0.40276 0.73646 0.0
C251 C 0.91959 0.50003 0.75076 0.0
C252 C 0.91103 0.50835 0.75886 0.0
C253 C 0.92177 0.50327 0.73593 0.0
C254 C 0.91548 0.51454 0.72934 0.0
C255 C 0.90684 0.52278 0.73744 0.0
C256 C 0.90476 0.5196 0.75229 0.0
C257 C 0.9009 0.4088 0.73624 0.0
H258 H 0.94035 0.50225 0.82736 0.0
H259 H 0.92865 0.49546 0.80162 0.0
H260 H 0.96881 0.47809 0.79187 0.0
H261 H 0.98009 0.48425 0.81777 0.0
H262 H 0.93759 0.50669 0.77778 0.0
H263 H 0.94013 0.45438 0.77702 0.0
H264 H 0.9156 0.46597 0.73945 0.0
H265 H 0.89484 0.43103 0.74264 0.0
H266 H 0.95069 0.44303 0.75507 0.0
H267 H 0.94285 0.41144 0.74344 0.0
H268 H 0.90893 0.50595 0.77026 0.0
H269 H 0.92844 0.49719 0.72942 0.0
H270 H 0.88679 0.3993 0.73136 0.0
H271 H 0.89838 0.52593 0.75889 0.0
H272 H 0.91715 0.51657 0.71785 0.0
C273 C 0.53764 0.49899 0.82107 0.0
C274 C 0.52957 0.4839 0.83019 0.0
C275 C 0.54019 0.49524 0.80657 0.0
C276 C 0.53476 0.47634 0.8009 0.0
C277 C 0.52696 0.46133 0.81012 0.0
C278 C 0.52438 0.46506 0.82457 0.0
C279 C 0.53716 0.47214 0.78545 0.0
C280 C 0.55356 0.48452 0.7791 0.0
C281 C 0.55622 0.48 0.76475 0.0
C282 C 0.5422 0.46307 0.75667 0.0
C283 C 0.52569 0.45061 0.76279 0.0
C284 C 0.52326 0.45531 0.77714 0.0
C285 C 0.51139 0.43225 0.75442 0.0
C286 C 0.50626 0.4317 0.7395 0.0
C287 C 0.5032 0.41497 0.76123 0.0
C288 C 0.49041 0.3975 0.75327 0.0
C289 C 0.48549 0.39688 0.7383 0.0
C290 C 0.57394 0.49252 0.75835 0.0
C291 C 0.58178 0.51268 0.75947 0.0
C292 C 0.58312 0.48428 0.75104 0.0
C293 C 0.59972 0.49594 0.74488 0.0
C294 C 0.6075 0.51611 0.7458 0.0
C295 C 0.59834 0.52435 0.7532 0.0
C296 C 0.49338 0.4142 0.73153 0.0
H297 H 0.54162 0.51362 0.82505 0.0
H298 H 0.54608 0.50709 0.79972 0.0
H299 H 0.52302 0.44668 0.80621 0.0
H300 H 0.51846 0.45318 0.83139 0.0
H301 H 0.56458 0.49727 0.78551 0.0
H302 H 0.5104 0.44588 0.78182 0.0
H303 H 0.54428 0.45944 0.74565 0.0
H304 H 0.51222 0.44481 0.73399 0.0
H305 H 0.50699 0.41488 0.77267 0.0
H306 H 0.48438 0.38443 0.75884 0.0
H307 H 0.57491 0.51938 0.76494 0.0
H308 H 0.57757 0.46881 0.75024 0.0
H309 H 0.48993 0.41417 0.72 0.0
H310 H 0.60379 0.53981 0.75396 0.0
H311 H 0.60658 0.48912 0.73956 0.0
C312 C 0.54868 0.0523 0.82892 0.0
C313 C 0.53038 0.03857 0.83154 0.0
C314 C 0.55244 0.06015 0.81548 0.0
C315 C 0.538 0.05437 0.80429 0.0
C316 C 0.51981 0.04015 0.80673 0.0
C317 C 0.51603 0.03238 0.8202 0.0
C318 C 0.54176 0.06381 0.79041 0.0
C319 C 0.55828 0.06867 0.78384 0.0
C320 C 0.56233 0.07851 0.77115 0.0
C321 C 0.54954 0.0833 0.76493 0.0
C322 C 0.53292 0.07846 0.77128 0.0
C323 C 0.52915 0.06873 0.784 0.0
C324 C 0.51971 0.08403 0.76489 0.0
C325 C 0.5263 0.10262 0.76036 0.0
C326 C 0.50042 0.07087 0.76344 0.0
C327 C 0.48797 0.07616 0.75752 0.0
C328 C 0.49454 0.09476 0.75299 0.0
C329 C 0.58014 0.08426 0.7646 0.0
C330 C 0.59698 0.09216 0.77357 0.0
C331 C 0.58051 0.08231 0.74935 0.0
C332 C 0.59737 0.08832 0.74319 0.0
C333 C 0.61424 0.09641 0.75215 0.0
C334 C 0.61384 0.09817 0.76741 0.0
C335 C 0.51385 0.10794 0.7545 0.0
H336 H 0.56011 0.05718 0.83733 0.0
H337 H 0.56658 0.07119 0.81403 0.0
H338 H 0.50841 0.03516 0.79827 0.0
H339 H 0.50175 0.02195 0.82187 0.0
H340 H 0.56793 0.06461 0.78853 0.0
H341 H 0.51667 0.06564 0.78923 0.0
H342 H 0.55261 0.091 0.75519 0.0
H343 H 0.54107 0.11317 0.76157 0.0
H344 H 0.49497 0.05637 0.76669 0.0
H345 H 0.47322 0.06556 0.7563 0.0
H346 H 0.59719 0.09412 0.78535 0.0
H347 H 0.56774 0.07601 0.74217 0.0
H348 H 0.51936 0.12249 0.75135 0.0
H349 H 0.62661 0.1046 0.7746 0.0
H350 H 0.59717 0.08647 0.7314 0.0
C351 C 0.8115 0.61279 0.84088 0.0
C352 C 0.80819 0.6278 0.83764 0.0
C353 C 0.80658 0.60428 0.85398 0.0
C354 C 0.79824 0.61057 0.86417 0.0
C355 C 0.7948 0.6255 0.86092 0.0
C356 C 0.79973 0.63403 0.84778 0.0
C357 C 0.79315 0.60147 0.87811 0.0
C358 C 0.80531 0.59702 0.88588 0.0
C359 C 0.80041 0.58767 0.89875 0.0
C360 C 0.78314 0.58288 0.90391 0.0
C361 C 0.77083 0.58731 0.89634 0.0
C362 C 0.77598 0.59671 0.88349 0.0
C363 C 0.75242 0.58171 0.90168 0.0
C364 C 0.74125 0.56314 0.90614 0.0
C365 C 0.74592 0.59487 0.90241 0.0
C366 C 0.72869 0.58964 0.90769 0.0
C367 C 0.71755 0.57109 0.9122 0.0
C368 C 0.81325 0.58267 0.90664 0.0
C369 C 0.82247 0.57489 0.89882 0.0
C370 C 0.81642 0.58567 0.92197 0.0
C371 C 0.82866 0.58109 0.92933 0.0
C372 C 0.83796 0.5734 0.9215 0.0
C373 C 0.83467 0.5703 0.90617 0.0
C374 C 0.72397 0.55787 0.9113 0.0
H375 H 0.81763 0.60737 0.83317 0.0
H376 H 0.80907 0.59255 0.85602 0.0
H377 H 0.78856 0.63079 0.86863 0.0
H378 H 0.79716 0.64569 0.84565 0.0
H379 H 0.81879 0.6011 0.88201 0.0
H380 H 0.76631 0.59967 0.87739 0.0
H381 H 0.77919 0.57555 0.91379 0.0
H382 H 0.74583 0.55264 0.90555 0.0
H383 H 0.75429 0.60931 0.89911 0.0
H384 H 0.72403 0.60008 0.90818 0.0
H385 H 0.82007 0.5721 0.88701 0.0
H386 H 0.80969 0.59186 0.92828 0.0
H387 H 0.71577 0.54353 0.91482 0.0
H388 H 0.84134 0.56406 0.89983 0.0
H389 H 0.83106 0.58387 0.94113 0.0
C390 C 0.36651 0.15886 0.85267 0.0
C391 C 0.37327 0.1727 0.84245 0.0
C392 C 0.37326 0.16405 0.86744 0.0
C393 C 0.38689 0.18321 0.87233 0.0
C394 C 0.39354 0.19705 0.86212 0.0
C395 C 0.3868 0.19186 0.84737 0.0
C396 C 0.39449 0.18873 0.88794 0.0
C397 C 0.39892 0.17671 0.89567 0.0
C398 C 0.40709 0.18231 0.91017 0.0
C399 C 0.41062 0.20008 0.917 0.0
C400 C 0.40628 0.2123 0.90946 0.0
C401 C 0.39811 0.20644 0.89497 0.0
C402 C 0.41113 0.23156 0.9165 0.0
C403 C 0.40804 0.23384 0.93119 0.0
C404 C 0.41953 0.24796 0.90867 0.0
C405 C 0.42499 0.26626 0.91545 0.0
C406 C 0.42217 0.26859 0.9302 0.0
C407 C 0.41282 0.17007 0.9179 0.0
C408 C 0.40109 0.1499 0.91696 0.0
C409 C 0.43033 0.17847 0.92598 0.0
C410 C 0.43608 0.16695 0.93281 0.0
C411 C 0.42446 0.14677 0.93173 0.0
C412 C 0.40683 0.13837 0.92384 0.0
C413 C 0.41346 0.25215 0.93796 0.0
H414 H 0.35618 0.14394 0.84922 0.0
H415 H 0.36775 0.15307 0.87506 0.0
H416 H 0.4042 0.21188 0.86547 0.0
H417 H 0.39213 0.20295 0.83984 0.0
H418 H 0.39679 0.16335 0.89018 0.0
H419 H 0.39447 0.21568 0.88918 0.0
H420 H 0.4171 0.20458 0.92813 0.0
H421 H 0.40145 0.22145 0.93747 0.0
H422 H 0.42228 0.24674 0.89739 0.0
H423 H 0.43145 0.27861 0.90911 0.0
H424 H 0.38747 0.14302 0.9109 0.0
H425 H 0.43978 0.19395 0.92678 0.0
H426 H 0.4112 0.25348 0.94937 0.0
H427 H 0.39762 0.12285 0.92271 0.0
H428 H 0.44966 0.17388 0.93894 0.0
C429 C 0.78996 0.17517 0.84399 0.0
C430 C 0.80776 0.17893 0.84072 0.0
C431 C 0.78676 0.17893 0.85827 0.0
C432 C 0.80127 0.18652 0.86961 0.0
C433 C 0.81895 0.18985 0.86639 0.0
C434 C 0.82215 0.18611 0.85212 0.0
C435 C 0.79815 0.19167 0.88458 0.0
C436 C 0.78151 0.1796 0.89078 0.0
C437 C 0.77805 0.18492 0.90461 0.0
C438 C 0.79159 0.20254 0.91226 0.0
C439 C 0.80842 0.21462 0.90637 0.0
C440 C 0.81159 0.20908 0.89254 0.0
C441 C 0.82251 0.23324 0.91453 0.0
C442 C 0.81704 0.24555 0.92128 0.0
C443 C 0.84151 0.23885 0.91561 0.0
C444 C 0.85476 0.2564 0.92329 0.0
C445 C 0.84932 0.26879 0.93 0.0
C446 C 0.76021 0.17234 0.911 0.0
C447 C 0.74326 0.16231 0.90208 0.0
C448 C 0.75991 0.17062 0.92615 0.0
C449 C 0.7431 0.15956 0.93225 0.0
C450 C 0.72612 0.14966 0.92336 0.0
C451 C 0.72647 0.15103 0.90817 0.0
C452 C 0.83028 0.26313 0.92889 0.0
H453 H 0.77863 0.16987 0.83543 0.0
H454 H 0.77305 0.17645 0.86033 0.0
H455 H 0.83034 0.19538 0.87492 0.0
H456 H 0.83594 0.18885 0.85001 0.0
H457 H 0.77137 0.16591 0.88487 0.0
H458 H 0.82427 0.21871 0.88774 0.0
H459 H 0.78904 0.20699 0.92283 0.0
H460 H 0.80252 0.24175 0.92044 0.0
H461 H 0.8461 0.22954 0.91066 0.0
H462 H 0.86926 0.26016 0.9241 0.0
H463 H 0.74288 0.16343 0.8904 0.0
H464 H 0.77269 0.17784 0.93335 0.0
H465 H 0.82562 0.27247 0.93367 0.0
H466 H 0.71375 0.14338 0.90092 0.0
H467 H 0.74344 0.15909 0.94401 0.0
C468 C 0.61498 0.82899 0.15253 0.0
C469 C 0.62811 0.82376 0.15721 0.0
C470 C 0.608 0.82548 0.13785 0.0
C471 C 0.61401 0.81671 0.12748 0.0
C472 C 0.62741 0.81184 0.13209 0.0
C473 C 0.63438 0.81532 0.14678 0.0
C474 C 0.60576 0.81202 0.11203 0.0
C475 C 0.60206 0.82501 0.10498 0.0
C476 C 0.5931 0.82016 0.09072 0.0
C477 C 0.58818 0.80216 0.08341 0.0
C478 C 0.592 0.78909 0.09019 0.0
C479 C 0.60079 0.79414 0.1045 0.0
C480 C 0.58623 0.76986 0.08256 0.0
C481 C 0.56856 0.75886 0.07477 0.0
C482 C 0.5982 0.76221 0.08324 0.0
C483 C 0.59257 0.74391 0.07637 0.0
C484 C 0.57482 0.73283 0.06871 0.0
C485 C 0.58829 0.83357 0.08367 0.0
C486 C 0.58188 0.84404 0.09192 0.0
C487 C 0.58961 0.83565 0.0686 0.0
C488 C 0.58437 0.84768 0.06192 0.0
C489 C 0.57789 0.85803 0.07019 0.0
C490 C 0.57683 0.8562 0.08526 0.0
C491 C 0.56291 0.74055 0.06793 0.0
H492 H 0.61003 0.83573 0.16024 0.0
H493 H 0.59755 0.82923 0.13471 0.0
H494 H 0.63247 0.80524 0.12434 0.0
H495 H 0.64436 0.81097 0.15003 0.0
H496 H 0.60628 0.83901 0.11061 0.0
H497 H 0.60307 0.78379 0.10999 0.0
H498 H 0.58112 0.79817 0.07247 0.0
H499 H 0.55893 0.76426 0.07417 0.0
H500 H 0.61196 0.77041 0.08907 0.0
H501 H 0.602 0.73829 0.07729 0.0
H502 H 0.58034 0.84252 0.10348 0.0
H503 H 0.59478 0.82807 0.06196 0.0
H504 H 0.54922 0.73245 0.06198 0.0
H505 H 0.57165 0.86382 0.09186 0.0
H506 H 0.58552 0.84901 0.0503 0.0
C507 C 0.20404 0.83905 0.15214 0.0
C508 C 0.19653 0.8246 0.16183 0.0
C509 C 0.20616 0.8345 0.1377 0.0
C510 C 0.20067 0.81537 0.13264 0.0
C511 C 0.19304 0.80092 0.14232 0.0
C512 C 0.191 0.80548 0.15673 0.0
C513 C 0.20314 0.81042 0.11742 0.0
C514 C 0.21987 0.82203 0.1112 0.0
C515 C 0.22274 0.81674 0.09716 0.0
C516 C 0.20857 0.79969 0.08926 0.0
C517 C 0.19168 0.78795 0.09525 0.0
C518 C 0.18908 0.79354 0.1093 0.0
C519 C 0.17706 0.7695 0.0871 0.0
C520 C 0.17306 0.76822 0.07188 0.0
C521 C 0.16723 0.75288 0.09449 0.0
C522 C 0.1538 0.7354 0.08687 0.0
C523 C 0.14993 0.73408 0.07165 0.0
C524 C 0.24082 0.82862 0.09097 0.0
C525 C 0.24953 0.84888 0.09223 0.0
C526 C 0.24963 0.81975 0.08392 0.0
C527 C 0.26676 0.83089 0.07828 0.0
C528 C 0.27549 0.85117 0.07952 0.0
C529 C 0.26665 0.86004 0.08655 0.0
C530 C 0.15968 0.75067 0.06423 0.0
H531 H 0.20853 0.85393 0.15577 0.0
H532 H 0.21199 0.84591 0.13047 0.0
H533 H 0.18887 0.78609 0.13881 0.0
H534 H 0.18496 0.79397 0.16388 0.0
H535 H 0.23098 0.83479 0.11755 0.0
H536 H 0.17599 0.78478 0.11393 0.0
H537 H 0.21082 0.79543 0.0785 0.0
H538 H 0.18017 0.7808 0.06587 0.0
H539 H 0.1702 0.75322 0.10615 0.0
H540 H 0.14676 0.72279 0.09286 0.0
H541 H 0.24298 0.85611 0.09746 0.0
H542 H 0.24343 0.80418 0.083 0.0
H543 H 0.15686 0.75013 0.05252 0.0
H544 H 0.27285 0.8756 0.08749 0.0
H545 H 0.27332 0.8236 0.07316 0.0
C546 C 0.21339 0.38886 0.16287 0.0
C547 C 0.19517 0.37481 0.16538 0.0
C548 C 0.21719 0.39644 0.14933 0.0
C549 C 0.20288 0.39008 0.13794 0.0
C550 C 0.18472 0.37576 0.14037 0.0
C551 C 0.1809 0.36825 0.15393 0.0
C552 C 0.20679 0.39864 0.12371 0.0
C553 C 0.22341 0.40306 0.11745 0.0
C554 C 0.22733 0.41152 0.10416 0.0
C555 C 0.2144 0.41545 0.09705 0.0
C556 C 0.19779 0.41127 0.10316 0.0
C557 C 0.19409 0.40284 0.11648 0.0
C558 C 0.18454 0.41618 0.09584 0.0
C559 C 0.19117 0.43386 0.08968 0.0
C560 C 0.1652 0.40334 0.09506 0.0
C561 C 0.15277 0.40809 0.08828 0.0
C562 C 0.15942 0.42577 0.08211 0.0
C563 C 0.24513 0.41674 0.09786 0.0
C564 C 0.26211 0.42665 0.10671 0.0
C565 C 0.24533 0.41236 0.08287 0.0
C566 C 0.26218 0.41792 0.07683 0.0
C567 C 0.27918 0.42812 0.08564 0.0
C568 C 0.27898 0.43236 0.10065 0.0
C569 C 0.17875 0.43859 0.08288 0.0
H570 H 0.22476 0.39406 0.17138 0.0
H571 H 0.2313 0.40759 0.1479 0.0
H572 H 0.17342 0.37035 0.13178 0.0
H573 H 0.16667 0.35759 0.15553 0.0
H574 H 0.2332 0.39965 0.12279 0.0
H575 H 0.18158 0.40016 0.12148 0.0
H576 H 0.2174 0.422 0.08679 0.0
H577 H 0.20597 0.44423 0.09033 0.0
H578 H 0.15967 0.38951 0.09954 0.0
H579 H 0.13795 0.3978 0.08769 0.0
H580 H 0.26236 0.43034 0.11827 0.0
H581 H 0.23243 0.40461 0.07582 0.0
H582 H 0.1843 0.45246 0.07845 0.0
H583 H 0.29186 0.44005 0.10771 0.0
H584 H 0.26194 0.41458 0.06521 0.0
C585 C 0.47247 0.94155 0.17332 0.0
C586 C 0.46645 0.95425 0.16901 0.0
C587 C 0.47028 0.93548 0.18738 0.0
C588 C 0.46215 0.94207 0.19757 0.0
C589 C 0.45613 0.95479 0.19329 0.0
C590 C 0.45824 0.96079 0.17916 0.0
C591 C 0.45976 0.9354 0.2125 0.0
C592 C 0.47366 0.93313 0.21993 0.0
C593 C 0.47108 0.92562 0.23362 0.0
C594 C 0.45446 0.92074 0.24001 0.0
C595 C 0.44058 0.92327 0.2329 0.0
C596 C 0.44332 0.9306 0.21916 0.0
C597 C 0.42297 0.91773 0.23965 0.0
C598 C 0.4134 0.89995 0.24568 0.0
C599 C 0.41562 0.93016 0.24012 0.0
C600 C 0.39909 0.92498 0.24659 0.0
C601 C 0.3895 0.90716 0.25258 0.0
C602 C 0.48543 0.92224 0.24099 0.0
C603 C 0.49477 0.91493 0.2328 0.0
C604 C 0.48957 0.92581 0.25627 0.0
C605 C 0.5025 0.92184 0.2632 0.0
C606 C 0.51166 0.9143 0.25502 0.0
C607 C 0.50777 0.91108 0.23972 0.0
C608 C 0.3968 0.89469 0.25203 0.0
H609 H 0.47911 0.93644 0.16588 0.0
H610 H 0.47482 0.92545 0.19022 0.0
H611 H 0.44994 0.96026 0.2009 0.0
H612 H 0.45329 0.97044 0.17617 0.0
H613 H 0.48662 0.93736 0.21508 0.0
H614 H 0.4323 0.93186 0.21342 0.0
H615 H 0.4522 0.91475 0.2505 0.0
H616 H 0.41866 0.89001 0.24535 0.0
H617 H 0.42278 0.944 0.23562 0.0
H618 H 0.3937 0.9348 0.24676 0.0
H619 H 0.49179 0.91179 0.22104 0.0
H620 H 0.48281 0.93167 0.26289 0.0
H621 H 0.38978 0.88094 0.25667 0.0
H622 H 0.51477 0.90557 0.23304 0.0
H623 H 0.50502 0.92433 0.27501 0.0
C624 C 0.03287 0.49491 0.18832 0.0
C625 C 0.04043 0.50925 0.17855 0.0
C626 C 0.03916 0.49926 0.2032 0.0
C627 C 0.05306 0.51807 0.20863 0.0
C628 C 0.06052 0.53243 0.19887 0.0
C629 C 0.05429 0.52807 0.184 0.0
C630 C 0.06005 0.52269 0.22437 0.0
C631 C 0.06405 0.51012 0.23175 0.0
C632 C 0.0715 0.51478 0.24646 0.0
C633 C 0.07471 0.53216 0.25382 0.0
C634 C 0.07094 0.54497 0.24659 0.0
C635 C 0.0635 0.54005 0.23189 0.0
C636 C 0.07573 0.56394 0.25414 0.0
C637 C 0.07169 0.56544 0.26866 0.0
C638 C 0.08502 0.58084 0.24696 0.0
C639 C 0.09043 0.59886 0.25422 0.0
C640 C 0.08665 0.60041 0.26881 0.0
C641 C 0.0769 0.50202 0.25383 0.0
C642 C 0.06565 0.48179 0.25152 0.0
C643 C 0.09371 0.51001 0.26286 0.0
C644 C 0.09923 0.49808 0.2693 0.0
C645 C 0.08814 0.47788 0.26679 0.0
C646 C 0.07123 0.46985 0.2579 0.0
C647 C 0.07703 0.5835 0.27591 0.0
H648 H 0.02226 0.48024 0.18444 0.0
H649 H 0.03306 0.48792 0.21048 0.0
H650 H 0.07139 0.54701 0.20268 0.0
H651 H 0.06024 0.5395 0.17679 0.0
H652 H 0.06213 0.49709 0.22582 0.0
H653 H 0.06029 0.54975 0.22632 0.0
H654 H 0.08058 0.53596 0.26512 0.0
H655 H 0.06442 0.55265 0.27443 0.0
H656 H 0.0885 0.58019 0.23582 0.0
H657 H 0.09762 0.61161 0.24839 0.0
H658 H 0.0525 0.47517 0.2448 0.0
H659 H 0.10289 0.52552 0.26465 0.0
H660 H 0.074 0.58425 0.28717 0.0
H661 H 0.06228 0.45432 0.25593 0.0
H662 H 0.11247 0.50469 0.27591 0.0
C663 C 0.45797 0.50713 0.17856 0.0
C664 C 0.47594 0.51146 0.17531 0.0
C665 C 0.45475 0.51152 0.19267 0.0
C666 C 0.46941 0.5203 0.20389 0.0
C667 C 0.4873 0.52428 0.20071 0.0
C668 C 0.49053 0.51993 0.1866 0.0
C669 C 0.46614 0.52582 0.21872 0.0
C670 C 0.44969 0.51362 0.22508 0.0
C671 C 0.44614 0.51913 0.2388 0.0
C672 C 0.45943 0.53702 0.24623 0.0
C673 C 0.47602 0.54936 0.24012 0.0
C674 C 0.47924 0.54364 0.22637 0.0
C675 C 0.48975 0.56844 0.24796 0.0
C676 C 0.4837 0.5801 0.25497 0.0
C677 C 0.50899 0.57517 0.24843 0.0
C678 C 0.52188 0.59317 0.25573 0.0
C679 C 0.51583 0.60486 0.2627 0.0
C680 C 0.42838 0.5065 0.24524 0.0
C681 C 0.41138 0.49661 0.23637 0.0
C682 C 0.42819 0.50467 0.26038 0.0
C683 C 0.4114 0.49358 0.26652 0.0
C684 C 0.39443 0.48391 0.25766 0.0
C685 C 0.39461 0.4854 0.2425 0.0
C686 C 0.49658 0.59808 0.26226 0.0
H687 H 0.44635 0.50038 0.17019 0.0
H688 H 0.44083 0.50842 0.19468 0.0
H689 H 0.49887 0.53082 0.20914 0.0
H690 H 0.50458 0.52363 0.18446 0.0
H691 H 0.43973 0.49967 0.21942 0.0
H692 H 0.49169 0.55341 0.22137 0.0
H693 H 0.45679 0.54148 0.25676 0.0
H694 H 0.469 0.57545 0.25468 0.0
H695 H 0.51409 0.56646 0.24324 0.0
H696 H 0.53662 0.59804 0.25574 0.0
H697 H 0.41096 0.49793 0.22471 0.0
H698 H 0.44103 0.51177 0.26751 0.0
H699 H 0.49143 0.60662 0.26765 0.0
H700 H 0.38172 0.47828 0.23542 0.0
H701 H 0.41171 0.49245 0.27821 0.0
Tb702 Tb 0.52066 0.01645 0.99839 0.0
C703 C 0.51189 0.97676 0.00943 0.0
Tb704 Tb 0.47992 0.9875 0.00479 0.0
O705 O 0.53011 0.02012 0.02164 0.0
O706 O 0.50295 0.01323 0.01499 0.0
O707 O 0.52328 0.99141 0.00218 0.0
C708 C 0.44919 0.96519 0.01769 0.0
O709 O 0.49525 0.97363 0.01271 0.0
C710 C 0.48615 0.98834 0.9772 0.0
C711 C 0.48852 0.02704 0.99349 0.0
O712 O 0.45402 0.96006 0.00579 0.0
O713 O 0.46163 0.98286 0.02229 0.0
O714 O 0.46967 0.98226 0.9816 0.0
O715 O 0.49747 0.99107 0.98799 0.0
O716 O 0.47705 0.01236 0.00073 0.0
O717 O 0.50525 0.03023 0.99037 0.0
C718 C 0.55229 0.03867 0.98648 0.0
O719 O 0.54629 0.04423 0.99746 0.0
O720 O 0.54052 0.02066 0.98224 0.0
C721 C 0.51381 0.01537 0.02589 0.0
Tb722 Tb 0.98363 0.505 0.99945 0.0
C723 C 0.02499 0.54012 0.00877 0.0
Tb724 Tb 0.01568 0.49698 0.00465 0.0
O725 O 0.97266 0.49338 0.02004 0.0
O726 O 0.0011 0.50651 0.01761 0.0
O727 O 0.00783 0.53447 0.00294 0.0
C728 C 0.03763 0.48491 0.01641 0.0
O729 O 0.0304 0.52763 0.01208 0.0
C730 C 0.01057 0.5049 0.97813 0.0
C731 C 0.97443 0.46189 0.99485 0.0
O732 O 0.04003 0.4932 0.00434 0.0
O733 O 0.02288 0.48337 0.0218 0.0
O734 O 0.02663 0.50829 0.98396 0.0
O735 O 0.99828 0.49555 0.98651 0.0
O736 O 0.9915 0.4675 0.00085 0.0
O737 O 0.96905 0.47444 0.99163 0.0
C738 C 0.96115 0.51686 0.98837 0.0
O739 O 0.95919 0.50851 0.00037 0.0
O740 O 0.97578 0.51857 0.98263 0.0
C741 C 0.98877 0.49703 0.02592 0.0
Tb742 Tb 0.48017 0.49411 0.00561 0.0
C743 C 0.48914 0.46182 0.99478 0.0
Tb744 Tb 0.52183 0.50591 0.99912 0.0
O745 O 0.47125 0.48726 0.98211 0.0
O746 O 0.49885 0.50741 0.98954 0.0
O747 O 0.47779 0.4659 0.00191 0.0
C748 C 0.55154 0.51536 0.98444 0.0
O749 O 0.50593 0.47519 0.99148 0.0
C750 C 0.51442 0.49726 0.0263 0.0
C751 C 0.51306 0.53785 0.01128 0.0
O752 O 0.53473 0.50135 0.98033 0.0
O753 O 0.55166 0.52398 0.99689 0.0
O754 O 0.5307 0.5026 0.02164 0.0
O755 O 0.50424 0.49637 0.0155 0.0
O756 O 0.52393 0.53399 0.00327 0.0
O757 O 0.49649 0.52427 0.01482 0.0
C758 C 0.44945 0.48584 0.0185 0.0
O759 O 0.45642 0.49826 0.00883 0.0
O760 O 0.45973 0.4781 0.02083 0.0
C761 C 0.48803 0.49805 0.97832 0.0
Tb762 Tb 0.18837 0.3498 0.33114 0.0
C763 C 0.17928 0.30995 0.34273 0.0
Tb764 Tb 0.14771 0.32125 0.33788 0.0
O765 O 0.1976 0.35557 0.35454 0.0
O766 O 0.17039 0.34779 0.34734 0.0
O767 O 0.19122 0.32517 0.33621 0.0
C768 C 0.11715 0.30006 0.35143 0.0
O769 O 0.16212 0.30614 0.34495 0.0
C770 C 0.15401 0.31917 0.31037 0.0
C771 C 0.15651 0.35996 0.32546 0.0
O772 O 0.13416 0.30803 0.35732 0.0
O773 O 0.11735 0.30391 0.3379 0.0
O774 O 0.13743 0.31257 0.31466 0.0
O775 O 0.16541 0.32365 0.32146 0.0
O776 O 0.14661 0.34738 0.33477 0.0
O777 O 0.17214 0.36151 0.32099 0.0
C778 C 0.22034 0.37186 0.3195 0.0
O779 O 0.21238 0.37819 0.32828 0.0
O780 O 0.2103 0.35319 0.31729 0.0
C781 C 0.18121 0.3509 0.35852 0.0
Tb782 Tb 0.65404 0.84095 0.33135 0.0
C783 C 0.69616 0.87431 0.33983 0.0
Tb784 Tb 0.68592 0.83057 0.33801 0.0
O785 O 0.64154 0.82807 0.3513 0.0
O786 O 0.67 0.83992 0.34952 0.0
O787 O 0.67962 0.86927 0.33296 0.0
C788 C 0.70753 0.8206 0.35298 0.0
O789 O 0.70068 0.86154 0.34428 0.0
C790 C 0.68087 0.83402 0.30997 0.0
C791 C 0.64442 0.79756 0.32671 0.0
O792 O 0.713 0.83301 0.34321 0.0
O793 O 0.68985 0.8137 0.35423 0.0
O794 O 0.69329 0.82999 0.31517 0.0
O795 O 0.67288 0.83587 0.3206 0.0
O796 O 0.66066 0.80211 0.33388 0.0
O797 O 0.63975 0.81058 0.32324 0.0
C798 C 0.63243 0.85415 0.32087 0.0
O799 O 0.63601 0.8421 0.31376 0.0
O800 O 0.641 0.85877 0.33395 0.0
C801 C 0.65713 0.83049 0.3574 0.0
Tb802 Tb 0.14791 0.8297 0.33723 0.0
C803 C 0.15554 0.79469 0.33019 0.0
Tb804 Tb 0.18746 0.83817 0.33223 0.0
O805 O 0.14478 0.83886 0.3157 0.0
O806 O 0.1618 0.82703 0.3195 0.0
O807 O 0.14413 0.80043 0.33518 0.0
C808 C 0.21958 0.84959 0.32036 0.0
O809 O 0.17264 0.80705 0.32685 0.0
C810 C 0.17809 0.83242 0.35902 0.0
C811 C 0.17987 0.87305 0.33914 0.0
O812 O 0.20416 0.84644 0.31352 0.0
O813 O 0.21699 0.84635 0.33397 0.0
O814 O 0.19015 0.82852 0.35364 0.0
O815 O 0.17354 0.84084 0.34995 0.0
O816 O 0.19083 0.86723 0.33339 0.0
O817 O 0.16325 0.86071 0.34335 0.0
C818 C 0.11576 0.81794 0.3491 0.0
O819 O 0.11974 0.82557 0.33676 0.0
O820 O 0.12984 0.8169 0.35471 0.0
C821 C 0.15703 0.83523 0.31039 0.0
Tb822 Tb 0.85286 0.68264 0.66524 0.0
C823 C 0.84272 0.64315 0.6769 0.0
Tb824 Tb 0.8121 0.65498 0.6719 0.0
O825 O 0.8636 0.69125 0.68836 0.0
O826 O 0.83558 0.68053 0.68194 0.0
O827 O 0.85267 0.65566 0.66756 0.0
C828 C 0.77996 0.6327 0.68321 0.0
O829 O 0.82755 0.64231 0.68174 0.0
C830 C 0.8192 0.65453 0.64442 0.0
C831 C 0.82229 0.6955 0.66135 0.0
O832 O 0.78789 0.62656 0.67426 0.0
O833 O 0.79008 0.65133 0.68574 0.0
O834 O 0.80297 0.65041 0.64845 0.0
O835 O 0.82975 0.65674 0.65552 0.0
O836 O 0.81028 0.6805 0.66801 0.0
O837 O 0.83904 0.69852 0.6585 0.0
C838 C 0.88344 0.70316 0.65158 0.0
O839 O 0.86667 0.69867 0.64679 0.0
O840 O 0.88298 0.69618 0.66403 0.0
C841 C 0.84714 0.68468 0.69287 0.0
Tb842 Tb 0.31783 0.17142 0.66466 0.0
C843 C 0.35995 0.20511 0.67272 0.0
Tb844 Tb 0.35007 0.1615 0.67099 0.0
O845 O 0.30584 0.15884 0.68482 0.0
O846 O 0.33426 0.17083 0.68269 0.0
O847 O 0.34323 0.19987 0.66613 0.0
C848 C 0.37209 0.15184 0.68571 0.0
O849 O 0.36478 0.19251 0.67703 0.0
C850 C 0.34427 0.16435 0.64295 0.0
C851 C 0.30845 0.1281 0.66035 0.0
O852 O 0.37727 0.16408 0.67582 0.0
O853 O 0.35447 0.14495 0.68724 0.0
O854 O 0.35691 0.16058 0.64802 0.0
O855 O 0.33653 0.16636 0.6537 0.0
O856 O 0.32494 0.1329 0.66718 0.0
O857 O 0.30346 0.14091 0.65699 0.0
C858 C 0.29614 0.18445 0.65408 0.0
O859 O 0.30012 0.17277 0.64691 0.0
O860 O 0.30431 0.18877 0.66729 0.0
C861 C 0.32159 0.16146 0.69076 0.0
Tb862 Tb 0.81548 0.16344 0.67235 0.0
C863 C 0.82095 0.13076 0.65772 0.0
Tb864 Tb 0.85483 0.17404 0.6643 0.0
O865 O 0.80475 0.1568 0.64928 0.0
O866 O 0.83265 0.17737 0.6556 0.0
O867 O 0.81072 0.13462 0.66644 0.0
C868 C 0.88491 0.18075 0.65084 0.0
O869 O 0.83749 0.14434 0.65419 0.0
C870 C 0.84906 0.1691 0.69185 0.0
C871 C 0.84926 0.20698 0.67845 0.0
O872 O 0.87847 0.16956 0.6613 0.0
O873 O 0.87446 0.18813 0.64803 0.0
O874 O 0.86532 0.1805 0.68747 0.0
O875 O 0.83757 0.15995 0.68089 0.0
O876 O 0.85982 0.20289 0.67032 0.0
O877 O 0.83241 0.19361 0.68162 0.0
C878 C 0.78552 0.15643 0.68612 0.0
O879 O 0.79008 0.16504 0.67421 0.0
O880 O 0.79782 0.15181 0.69026 0.0
C881 C 0.82094 0.16811 0.64474 0.0
H882 H 0.28682 0.84389 0.05365 0.0
H883 H 0.31702 0.86307 0.04399 0.0
H884 H 0.33534 0.90477 0.0817 0.0
H885 H 0.30545 0.8853 0.09173 0.0
H886 H 0.33344 0.90064 0.03678 0.0
H887 H 0.37795 0.89347 0.08023 0.0
H888 H 0.35288 0.87829 0.07816 0.0
H889 H 0.36353 0.90247 0.08694 0.0
C890 C 0.29737 0.85699 0.06001 0.0
C891 C 0.29375 0.86299 0.07352 0.0
C892 C 0.31457 0.86799 0.05442 0.0
C893 C 0.32852 0.88517 0.06224 0.0
C894 C 0.32491 0.89135 0.07563 0.0
H895 H 0.43857 0.97422 0.04308 0.0
H896 H 0.4093 0.95464 0.0541 0.0
C897 C 0.30772 0.88033 0.08125 0.0
C898 C 0.34663 0.8969 0.05611 0.0
H899 H 0.39364 0.91575 0.06287 0.0
C900 C 0.34659 0.90387 0.04245 0.0
C901 C 0.36377 0.90111 0.06356 0.0
C902 C 0.3646 0.89332 0.07797 0.0
C903 C 0.36326 0.91516 0.0361 0.0
C904 C 0.38037 0.91936 0.04353 0.0
C905 C 0.38046 0.91249 0.05722 0.0
C906 C 0.39833 0.9308 0.03719 0.0
C907 C 0.36247 0.92278 0.02159 0.0
C908 C 0.40196 0.92367 0.02423 0.0
C909 C 0.41866 0.93476 0.01798 0.0
C910 C 0.43196 0.95314 0.02461 0.0
C911 C 0.42849 0.9601 0.03775 0.0
C912 C 0.41182 0.94895 0.04404 0.0
H913 H 0.34891 0.92205 0.01899 0.0
H914 H 0.37387 0.938 0.02155 0.0
H915 H 0.36426 0.91397 0.01278 0.0
H916 H 0.39183 0.90955 0.01892 0.0
H917 H 0.42106 0.92904 0.00788 0.0
H918 H 0.1268 0.42081 0.0917 0.0
H919 H 0.10539 0.42984 0.08013 0.0
H920 H 0.14117 0.45199 0.04526 0.0
H921 H 0.1624 0.44258 0.05655 0.0
H922 H 0.1141 0.46747 0.07367 0.0
H923 H 0.08917 0.416 0.02362 0.0
H924 H 0.10081 0.41315 0.03961 0.0
H925 H 0.11409 0.43037 0.02712 0.0
C926 C 0.12996 0.42734 0.08146 0.0
C927 C 0.14625 0.43092 0.07501 0.0
C928 C 0.11779 0.43259 0.07492 0.0
C929 C 0.12161 0.44135 0.06177 0.0
C930 C 0.13784 0.44496 0.0553 0.0
H931 H 0.06898 0.48764 0.00618 0.0
H932 H 0.08945 0.47722 0.01754 0.0
C933 C 0.15004 0.43976 0.06184 0.0
C934 C 0.10894 0.44735 0.05508 0.0
H935 H 0.08061 0.44017 0.02432 0.0
C936 C 0.10668 0.46144 0.06292 0.0
C937 C 0.09937 0.43947 0.04104 0.0
C938 C 0.10081 0.42379 0.03237 0.0
C939 C 0.09533 0.46818 0.05696 0.0
C940 C 0.08577 0.46032 0.04291 0.0
C941 C 0.088 0.44618 0.03509 0.0
C942 C 0.07337 0.46659 0.03612 0.0
C943 C 0.09406 0.48398 0.06561 0.0
C944 C 0.05746 0.46382 0.04272 0.0
C945 C 0.04581 0.46979 0.03629 0.0
C946 C 0.04983 0.47847 0.02308 0.0
C947 C 0.06561 0.48101 0.01638 0.0
C948 C 0.07728 0.47506 0.02284 0.0
H949 H 0.10582 0.49183 0.07427 0.0
H950 H 0.09398 0.49456 0.05835 0.0
H951 H 0.08088 0.4775 0.071 0.0
H952 H 0.054 0.45696 0.05282 0.0
H953 H 0.03366 0.46761 0.04163 0.0
H954 H 0.5949 0.72076 0.05298 0.0
H955 H 0.58465 0.68806 0.04204 0.0
H956 H 0.53061 0.66773 0.05801 0.0
H957 H 0.54073 0.70028 0.069 0.0
H958 H 0.57215 0.65446 0.05604 0.0
H959 H 0.51742 0.64737 0.01481 0.0
H960 H 0.53484 0.67034 0.02415 0.0
H961 H 0.51479 0.65417 0.0331 0.0
C962 C 0.58084 0.70931 0.05418 0.0
C963 C 0.56859 0.71313 0.06179 0.0
C964 C 0.57499 0.69068 0.04787 0.0
C965 C 0.55678 0.67556 0.04901 0.0
C966 C 0.54457 0.67929 0.05668 0.0
H967 H 0.49466 0.55218 0.02689 0.0
H968 H 0.50588 0.58581 0.03573 0.0
C969 C 0.55038 0.6979 0.06296 0.0
C970 C 0.55077 0.65571 0.0427 0.0
H971 H 0.51791 0.61853 0.01891 0.0
C972 C 0.56039 0.64665 0.04783 0.0
C973 C 0.53542 0.64558 0.03199 0.0
C974 C 0.52511 0.65491 0.02557 0.0
C975 C 0.55476 0.62751 0.04283 0.0
C976 C 0.53926 0.6173 0.03228 0.0
C977 C 0.52975 0.62642 0.02703 0.0
C978 C 0.53253 0.59702 0.02672 0.0
C979 C 0.56511 0.61816 0.04914 0.0
C980 C 0.54373 0.59227 0.01856 0.0
C981 C 0.53737 0.57307 0.01347 0.0
C982 C 0.51966 0.55826 0.01641 0.0
C983 C 0.50839 0.56316 0.02445 0.0
C984 C 0.51475 0.58238 0.0295 0.0
H985 H 0.57397 0.62643 0.05935 0.0
H986 H 0.55521 0.60316 0.05154 0.0
H987 H 0.57429 0.61751 0.04105 0.0
H988 H 0.55738 0.60344 0.01611 0.0
H989 H 0.54641 0.56986 0.00728 0.0
H990 H 0.88408 0.29438 0.92228 0.0
H991 H 0.90674 0.32593 0.9348 0.0
H992 H 0.86881 0.31809 0.96758 0.0
H993 H 0.84642 0.28615 0.95553 0.0
H994 H 0.90231 0.35679 0.93918 0.0
H995 H 0.91706 0.33629 0.99269 0.0
H996 H 0.90523 0.31889 0.97698 0.0
H997 H 0.89262 0.32686 0.98802 0.0
C998 C 0.88071 0.29915 0.93233 0.0
C999 C 0.86342 0.28768 0.9379 0.0
C1000 C 0.89363 0.31726 0.93942 0.0
C1001 C 0.88959 0.32426 0.95223 0.0
C1002 C 0.87241 0.31282 0.95788 0.0
H1003 H 0.93784 0.44446 0.98408 0.0
H1004 H 0.91756 0.41084 0.97429 0.0
C1005 C 0.85951 0.29467 0.95085 0.0
C1006 C 0.90278 0.34405 0.95911 0.0
H1007 H 0.92713 0.36977 0.99135 0.0
C1008 C 0.90784 0.35961 0.95056 0.0
C1009 C 0.91018 0.3477 0.9739 0.0
C1010 C 0.90616 0.33154 0.9834 0.0
C1011 C 0.91974 0.37874 0.95649 0.0
C1012 C 0.92641 0.38245 0.97146 0.0
C1013 C 0.92177 0.36689 0.97993 0.0
C1014 C 0.93827 0.40243 0.97846 0.0
C1015 C 0.92522 0.39478 0.94659 0.0
C1016 C 0.95638 0.40863 0.98467 0.0
C1017 C 0.96799 0.42784 0.99043 0.0
C1018 C 0.96167 0.44116 0.99007 0.0
C1019 C 0.94325 0.43466 0.98437 0.0
C1020 C 0.93165 0.41546 0.9787 0.0
H1021 H 0.92333 0.38934 0.93488 0.0
H1022 H 0.91626 0.40128 0.94801 0.0
H1023 H 0.93999 0.40633 0.9493 0.0
H1024 H 0.9617 0.39874 0.9847 0.0
H1025 H 0.98206 0.43232 0.99479 0.0
H1026 H 0.68432 0.53744 0.90579 0.0
H1027 H 0.65481 0.52793 0.91637 0.0
H1028 H 0.68062 0.58258 0.94283 0.0
H1029 H 0.71006 0.59225 0.93215 0.0
H1030 H 0.64775 0.52341 0.94467 0.0
H1031 H 0.63339 0.57946 0.92568 0.0
H1032 H 0.65076 0.57502 0.91829 0.0
H1033 H 0.65602 0.58957 0.9354 0.0
C1034 C 0.68365 0.54745 0.91381 0.0
C1035 C 0.69946 0.56561 0.91812 0.0
C1036 C 0.66679 0.54203 0.91981 0.0
C1037 C 0.66543 0.55467 0.93021 0.0
C1038 C 0.6812 0.57281 0.93452 0.0
H1039 H 0.58653 0.54626 0.99073 0.0
H1040 H 0.6137 0.55528 0.97682 0.0
C1041 C 0.69803 0.5783 0.92845 0.0
C1042 C 0.64784 0.54844 0.93717 0.0
H1043 H 0.61552 0.56145 0.94465 0.0
C1044 C 0.64059 0.53161 0.94452 0.0
C1045 C 0.63849 0.55914 0.93694 0.0
C1046 C 0.64495 0.57669 0.92853 0.0
C1047 C 0.62456 0.52552 0.95202 0.0
C1048 C 0.61555 0.53651 0.9521 0.0
C1049 C 0.62259 0.55315 0.94459 0.0
C1050 C 0.59903 0.53114 0.96024 0.0
C1051 C 0.61762 0.50768 0.96014 0.0
C1052 C 0.58184 0.5147 0.95539 0.0
C1053 C 0.56634 0.50955 0.96329 0.0
C1054 C 0.56786 0.52079 0.97612 0.0
C1055 C 0.58505 0.53732 0.98089 0.0
C1056 C 0.60051 0.54251 0.97296 0.0
H1057 H 0.62777 0.5025 0.96086 0.0
H1058 H 0.61476 0.5106 0.97139 0.0
H1059 H 0.60435 0.49593 0.95438 0.0
H1060 H 0.58042 0.50587 0.94551 0.0
H1061 H 0.55321 0.49676 0.95939 0.0
H1062 H 0.45891 0.15028 0.93171 0.0
H1063 H 0.46955 0.13007 0.94285 0.0
H1064 H 0.41528 0.09514 0.95802 0.0
H1065 H 0.4046 0.11559 0.94718 0.0
H1066 H 0.4463 0.10673 0.97946 0.0
H1067 H 0.45387 0.07421 0.92713 0.0
H1068 H 0.46555 0.10015 0.92896 0.0
H1069 H 0.44053 0.08636 0.92808 0.0
C1070 C 0.44927 0.13839 0.93752 0.0
C1071 C 0.4309 0.13451 0.93855 0.0
C1072 C 0.45532 0.12676 0.94374 0.0
C1073 C 0.44311 0.11098 0.95107 0.0
C1074 C 0.42485 0.10719 0.95231 0.0
H1075 H 0.45499 0.02504 0.99673 0.0
H1076 H 0.444 0.04565 0.98694 0.0
C1077 C 0.41875 0.11879 0.94604 0.0
C1078 C 0.44952 0.09859 0.95756 0.0
H1079 H 0.46572 0.068 0.9489 0.0
C1080 C 0.45046 0.09816 0.9728 0.0
C1081 C 0.45495 0.0875 0.9488 0.0
C1082 C 0.45355 0.08688 0.93232 0.0
C1083 C 0.45712 0.08724 0.97959 0.0
C1084 C 0.46261 0.07619 0.97084 0.0
C1085 C 0.46155 0.07654 0.95558 0.0
C1086 C 0.46949 0.06411 0.97724 0.0
C1087 C 0.45865 0.08801 0.99608 0.0
C1088 C 0.48736 0.06744 0.97481 0.0
C1089 C 0.49366 0.0556 0.98029 0.0
C1090 C 0.48216 0.04013 0.98827 0.0
C1091 C 0.46428 0.03689 0.99073 0.0
C1092 C 0.45799 0.04873 0.98521 0.0
H1093 H 0.45866 0.1009 0.00121 0.0
H1094 H 0.4465 0.07495 0.99954 0.0
H1095 H 0.47155 0.08827 0.00029 0.0
H1096 H 0.49641 0.07918 0.9686 0.0
H1097 H 0.50747 0.05849 0.97812 0.0
H1098 H 0.69195 0.14543 0.91494 0.0
H1099 H 0.66262 0.12668 0.92573 0.0
H1100 H 0.69028 0.11028 0.95808 0.0
H1101 H 0.71939 0.1278 0.94671 0.0
H1102 H 0.65814 0.08037 0.9482 0.0
H1103 H 0.64684 0.14156 0.96215 0.0
H1104 H 0.64886 0.13862 0.94297 0.0
H1105 H 0.66848 0.14501 0.95598 0.0
C1106 C 0.6918 0.13763 0.92422 0.0
C1107 C 0.70816 0.13825 0.92995 0.0
C1108 C 0.67504 0.12718 0.93055 0.0
C1109 C 0.67432 0.11746 0.94296 0.0
C1110 C 0.69053 0.11784 0.94861 0.0
H1111 H 0.58175 0.07323 0.99797 0.0
H1112 H 0.61168 0.09219 0.98768 0.0
C1113 C 0.70724 0.12805 0.94216 0.0
C1114 C 0.65657 0.10642 0.94979 0.0
H1115 H 0.62093 0.10995 0.96371 0.0
C1116 C 0.65007 0.08689 0.95168 0.0
C1117 C 0.64618 0.11498 0.95459 0.0
C1118 C 0.65305 0.13624 0.95397 0.0
C1119 C 0.63336 0.0756 0.95799 0.0
C1120 C 0.62247 0.08389 0.96204 0.0
C1121 C 0.62913 0.10351 0.96041 0.0
C1122 C 0.60423 0.07252 0.96814 0.0
C1123 C 0.62783 0.05505 0.96053 0.0
C1124 C 0.58996 0.05537 0.96046 0.0
C1125 C 0.57303 0.0444 0.96643 0.0
C1126 C 0.56991 0.05063 0.98002 0.0
C1127 C 0.58387 0.06812 0.98748 0.0
C1128 C 0.60094 0.07894 0.98161 0.0
H1129 H 0.64014 0.05305 0.96129 0.0
H1130 H 0.62072 0.05077 0.97071 0.0
H1131 H 0.61814 0.04517 0.95117 0.0
H1132 H 0.59191 0.05044 0.94983 0.0
H1133 H 0.56235 0.03108 0.96039 0.0
H1134 H 0.83367 0.55591 0.94692 0.0
H1135 H 0.85508 0.54757 0.9594 0.0
H1136 H 0.89272 0.57087 0.92581 0.0
H1137 H 0.87174 0.57985 0.91354 0.0
H1138 H 0.86697 0.52296 0.9483 0.0
H1139 H 0.92711 0.59676 0.96338 0.0
H1140 H 0.90407 0.59231 0.95767 0.0
H1141 H 0.91901 0.592 0.9443 0.0
C1142 C 0.84665 0.55955 0.94232 0.0
C1143 C 0.85103 0.56859 0.92925 0.0
C1144 C 0.8588 0.55467 0.94941 0.0
C1145 C 0.87559 0.55885 0.94364 0.0
C1146 C 0.88 0.56785 0.9306 0.0
H1147 H 0.96414 0.53443 0.96335 0.0
H1148 H 0.94296 0.54447 0.95279 0.0
C1149 C 0.86788 0.57274 0.92351 0.0
C1150 C 0.88814 0.55307 0.95088 0.0
H1151 H 0.93266 0.57062 0.96604 0.0
C1152 C 0.88128 0.53337 0.9523 0.0
C1153 C 0.90681 0.56672 0.95605 0.0
C1154 C 0.91467 0.58815 0.95542 0.0
C1155 C 0.89276 0.52689 0.95842 0.0
C1156 C 0.91148 0.54052 0.96343 0.0
C1157 C 0.9183 0.56023 0.96213 0.0
C1158 C 0.92427 0.53457 0.96993 0.0
C1159 C 0.88492 0.50548 0.95914 0.0
C1160 C 0.92085 0.52592 0.98314 0.0
C1161 C 0.93291 0.5202 0.98919 0.0
C1162 C 0.94859 0.52313 0.98212 0.0
C1163 C 0.95212 0.53199 0.96899 0.0
C1164 C 0.94007 0.53774 0.96297 0.0
H1165 H 0.87179 0.49675 0.9519 0.0
H1166 H 0.89517 0.50119 0.95598 0.0
H1167 H 0.88183 0.50191 0.97053 0.0
H1168 H 0.90888 0.52365 0.9888 0.0
H1169 H 0.92994 0.51347 0.99936 0.0
H1170 H 0.40399 0.27974 0.94906 0.0
H1171 H 0.41484 0.31222 0.96084 0.0
H1172 H 0.46587 0.334 0.93978 0.0
H1173 H 0.4552 0.30167 0.92803 0.0
H1174 H 0.44706 0.33653 0.97965 0.0
H1175 H 0.44655 0.36994 0.92851 0.0
H1176 H 0.43496 0.34409 0.92927 0.0
H1177 H 0.45976 0.35779 0.92819 0.0
C1178 C 0.41756 0.29144 0.947 0.0
C1179 C 0.42867 0.28817 0.9375 0.0
C1180 C 0.4237 0.30998 0.95369 0.0
C1181 C 0.441 0.32555 0.95097 0.0
C1182 C 0.45227 0.32226 0.94174 0.0
H1183 H 0.50678 0.44748 0.97824 0.0
H1184 H 0.49487 0.41403 0.96856 0.0
C1185 C 0.44614 0.30378 0.93502 0.0
C1186 C 0.44743 0.34525 0.95787 0.0
H1187 H 0.46152 0.39141 0.95003 0.0
C1188 C 0.4501 0.34852 0.9732 0.0
C1189 C 0.45133 0.36083 0.94941 0.0
C1190 C 0.44785 0.35801 0.93294 0.0
C1191 C 0.4571 0.36712 0.98029 0.0
C1192 C 0.4613 0.38273 0.9718 0.0
C1193 C 0.4584 0.3794 0.95649 0.0
C1194 C 0.46883 0.40272 0.97852 0.0
C1195 C 0.46043 0.37002 0.99676 0.0
C1196 C 0.45812 0.40742 0.98736 0.0
C1197 C 0.46487 0.42655 0.99293 0.0
C1198 C 0.48245 0.44135 0.98971 0.0
C1199 C 0.49322 0.43649 0.981 0.0
C1200 C 0.48644 0.41737 0.97542 0.0
H1201 H 0.46054 0.35758 0.0014 0.0
H1202 H 0.47388 0.38338 0.00036 0.0
H1203 H 0.4491 0.37158 0.00135 0.0
H1204 H 0.44435 0.39636 0.98967 0.0
H1205 H 0.45616 0.42975 0.99955 0.0
H1206 H 0.11545 0.70784 0.07922 0.0
H1207 H 0.09376 0.67575 0.06692 0.0
H1208 H 0.13156 0.68558 0.03366 0.0
H1209 H 0.15329 0.71778 0.04587 0.0
H1210 H 0.09434 0.66765 0.02233 0.0
H1211 H 0.10333 0.63064 0.06866 0.0
H1212 H 0.09591 0.6475 0.07379 0.0
H1213 H 0.11848 0.65609 0.06716 0.0
C1214 C 0.11913 0.70316 0.06929 0.0
C1215 C 0.13615 0.71525 0.06359 0.0
C1216 C 0.10675 0.68483 0.06228 0.0
C1217 C 0.11124 0.67816 0.04955 0.0
C1218 C 0.12788 0.69045 0.04352 0.0
H1219 H 0.06211 0.55765 0.01781 0.0
H1220 H 0.08319 0.59157 0.02637 0.0
C1221 C 0.14024 0.70884 0.05047 0.0
C1222 C 0.09887 0.65813 0.0428 0.0
H1223 H 0.07973 0.61092 0.04976 0.0
C1224 C 0.09115 0.65522 0.02829 0.0
C1225 C 0.095 0.64196 0.05053 0.0
C1226 C 0.10374 0.64413 0.06584 0.0
C1227 C 0.07941 0.63651 0.02138 0.0
C1228 C 0.07505 0.62036 0.0293 0.0
C1229 C 0.08297 0.62332 0.04374 0.0
C1230 C 0.0625 0.60018 0.02287 0.0
C1231 C 0.07208 0.63422 0.0056 0.0
C1232 C 0.04388 0.59375 0.01794 0.0
C1233 C 0.03178 0.57434 0.01293 0.0
C1234 C 0.03804 0.56095 0.01296 0.0
C1235 C 0.05678 0.56753 0.0177 0.0
C1236 C 0.06887 0.58693 0.02259 0.0
H1237 H 0.08072 0.64738 1e-05 0.0
H1238 H 0.07168 0.62166 0.99948 0.0
H1239 H 0.05767 0.63175 0.00514 0.0
H1240 H 0.03854 0.60362 0.01836 0.0
H1241 H 0.0174 0.56974 0.00945 0.0
H1242 H 0.28786 0.40722 0.06639 0.0
H1243 H 0.31734 0.41799 0.05545 0.0
H1244 H 0.34017 0.47433 0.07896 0.0
H1245 H 0.31081 0.46356 0.09007 0.0
H1246 H 0.33501 0.44693 0.03798 0.0
H1247 H 0.38009 0.46085 0.0891 0.0
H1248 H 0.35496 0.44775 0.08839 0.0
H1249 H 0.36757 0.47373 0.08941 0.0
C1250 C 0.29918 0.4219 0.06922 0.0
C1251 C 0.29709 0.43453 0.07914 0.0
C1252 C 0.31601 0.42801 0.063 0.0
C1253 C 0.33104 0.44686 0.06657 0.0
C1254 C 0.32892 0.45957 0.07634 0.0
H1255 H 0.42732 0.50185 0.01548 0.0
H1256 H 0.39868 0.4932 0.02728 0.0
C1257 C 0.31214 0.45342 0.08265 0.0
C1258 C 0.34874 0.45329 0.05976 0.0
H1259 H 0.39543 0.47128 0.06752 0.0
C1260 C 0.34823 0.45223 0.04443 0.0
C1261 C 0.36592 0.46 0.0682 0.0
C1262 C 0.36721 0.4605 0.08468 0.0
C1263 C 0.36445 0.45775 0.03729 0.0
C1264 C 0.3817 0.46494 0.04575 0.0
C1265 C 0.38221 0.46595 0.06107 0.0
C1266 C 0.39929 0.47073 0.03891 0.0
C1267 C 0.36285 0.45531 0.02078 0.0
C1268 C 0.40943 0.46143 0.04192 0.0
C1269 C 0.42584 0.46651 0.03535 0.0
C1270 C 0.43238 0.48096 0.02565 0.0
C1271 C 0.42244 0.49053 0.02282 0.0
C1272 C 0.40605 0.48552 0.02948 0.0
H1273 H 0.34829 0.44505 0.01617 0.0
H1274 H 0.36717 0.46949 0.01653 0.0
H1275 H 0.37204 0.45003 0.01678 0.0
H1276 H 0.4045 0.45006 0.04923 0.0
H1277 H 0.43332 0.45899 0.03778 0.0
H1278 H 0.55523 0.84913 0.04498 0.0
H1279 H 0.54423 0.86912 0.03388 0.0
H1280 H 0.57614 0.91491 0.06826 0.0
H1281 H 0.58684 0.8948 0.07956 0.0
H1282 H 0.54149 0.90864 0.06367 0.0
H1283 H 0.57149 0.91455 0.01043 0.0
H1284 H 0.55676 0.88998 0.01424 0.0
H1285 H 0.57802 0.90531 0.02571 0.0
C1286 C 0.56007 0.86356 0.05005 0.0
C1287 C 0.57192 0.87045 0.0631 0.0
C1288 C 0.55383 0.87499 0.04368 0.0
C1289 C 0.55961 0.89364 0.0501 0.0
C1290 C 0.57154 0.90058 0.06309 0.0
H1291 H 0.54718 0.9823 0.01015 0.0
H1292 H 0.55831 0.96187 0.02003 0.0
C1293 C 0.57761 0.88908 0.06955 0.0
C1294 C 0.55261 0.90563 0.04366 0.0
H1295 H 0.54957 0.92531 0.01237 0.0
C1296 C 0.54332 0.91236 0.05247 0.0
C1297 C 0.55521 0.91066 0.0291 0.0
C1298 C 0.56608 0.90492 0.01937 0.0
C1299 C 0.53644 0.92385 0.0471 0.0
C1300 C 0.53841 0.92826 0.03237 0.0
C1301 C 0.54786 0.92169 0.0236 0.0
C1302 C 0.53134 0.94022 0.026 0.0
C1303 C 0.52754 0.93153 0.05739 0.0
C1304 C 0.5124 0.93465 0.02581 0.0
C1305 C 0.506 0.94641 0.0203 0.0
C1306 C 0.51839 0.96378 0.01462 0.0
C1307 C 0.53724 0.969 0.0144 0.0
C1308 C 0.54364 0.95734 0.02006 0.0
H1309 H 0.53185 0.93148 0.06903 0.0
H1310 H 0.53122 0.9465 0.05536 0.0
H1311 H 0.51214 0.92219 0.05566 0.0
H1312 H 0.50256 0.92124 0.02999 0.0
H1313 H 0.49136 0.94188 0.02051 0.0
H1314 H 0.97603 0.1818 0.41754 0.0
H1315 H 0.00618 0.20168 0.408 0.0
H1316 H 0.9878 0.24005 0.3932 0.0
H1317 H 0.95752 0.22015 0.4026 0.0
H1318 H 0.01251 0.20963 0.37911 0.0
H1319 H 0.03872 0.27714 0.41569 0.0
H1320 H 0.01947 0.25427 0.41966 0.0
H1321 H 0.01586 0.26826 0.40663 0.0
C1322 C 0.97838 0.19445 0.41223 0.0
C1323 C 0.96435 0.19938 0.41081 0.0
C1324 C 0.99565 0.20585 0.40686 0.0
C1325 C 0.9993 0.22246 0.40006 0.0
C1326 C 0.98541 0.22752 0.39869 0.0
H1327 H 0.08119 0.28191 0.33959 0.0
H1328 H 0.05298 0.26288 0.35189 0.0
C1329 C 0.96811 0.21612 0.40406 0.0
C1330 C 0.0173 0.23392 0.39374 0.0
H1331 H 0.05563 0.27905 0.39506 0.0
C1332 C 0.02199 0.22478 0.38265 0.0
C1333 C 0.02974 0.25361 0.39851 0.0
C1334 C 0.02583 0.26389 0.41087 0.0
C1335 C 0.03859 0.23494 0.37593 0.0
C1336 C 0.05067 0.25482 0.38029 0.0
C1337 C 0.04624 0.26385 0.39165 0.0
C1338 C 0.06778 0.26654 0.37297 0.0
C1339 C 0.0431 0.22429 0.36427 0.0
C1340 C 0.08542 0.27526 0.38085 0.0
C1341 C 0.10155 0.28617 0.37384 0.0
C1342 C 0.10024 0.28862 0.3589 0.0
C1343 C 0.08258 0.28012 0.3511 0.0
C1344 C 0.06648 0.2692 0.35809 0.0
H1345 H 0.03511 0.2084 0.36491 0.0
H1346 H 0.03938 0.22725 0.35333 0.0
H1347 H 0.05823 0.22918 0.36521 0.0
H1348 H 0.08668 0.27346 0.39237 0.0
H1349 H 0.11503 0.29269 0.38011 0.0
H1350 H 0.79532 0.75533 0.43098 0.0
H1351 H 0.7736 0.76483 0.42081 0.0
H1352 H 0.81042 0.79291 0.38761 0.0
H1353 H 0.83205 0.78315 0.39747 0.0
H1354 H 0.79694 0.81552 0.40373 0.0
H1355 H 0.74038 0.74235 0.38089 0.0
H1356 H 0.74927 0.74479 0.39963 0.0
H1357 H 0.76408 0.74784 0.38525 0.0
C1358 C 0.7987 0.7633 0.4214 0.0
C1359 C 0.81543 0.76844 0.41502 0.0
C1360 C 0.78629 0.76876 0.41564 0.0
C1361 C 0.79038 0.77943 0.40342 0.0
C1362 C 0.80706 0.78468 0.39707 0.0
H1363 H 0.74345 0.83111 0.3491 0.0
H1364 H 0.76325 0.82147 0.36249 0.0
C1365 C 0.81943 0.77917 0.40277 0.0
C1366 C 0.77745 0.78544 0.39733 0.0
H1367 H 0.73489 0.76823 0.37849 0.0
C1368 C 0.78334 0.80521 0.39824 0.0
C1369 C 0.7597 0.77189 0.3903 0.0
C1370 C 0.75293 0.75052 0.38882 0.0
C1371 C 0.77195 0.81184 0.39222 0.0
C1372 C 0.75441 0.79835 0.38479 0.0
C1373 C 0.74835 0.77853 0.38417 0.0
C1374 C 0.74251 0.80454 0.377 0.0
C1375 C 0.77874 0.83322 0.39398 0.0
C1376 C 0.72413 0.79784 0.38047 0.0
C1377 C 0.71272 0.80315 0.3727 0.0
C1378 C 0.71954 0.81518 0.36133 0.0
C1379 C 0.73792 0.8219 0.35788 0.0
C1380 C 0.74927 0.81652 0.36559 0.0
H1381 H 0.78927 0.84061 0.40354 0.0
H1382 H 0.78544 0.8398 0.38407 0.0
H1383 H 0.76702 0.83595 0.39536 0.0
H1384 H 0.71863 0.78852 0.3892 0.0
H1385 H 0.6986 0.79784 0.37559 0.0
H1386 H 0.26649 0.05675 0.38183 0.0
H1387 H 0.25684 0.02492 0.36936 0.0
H1388 H 0.20084 0.00378 0.38137 0.0
H1389 H 0.21034 0.03538 0.39392 0.0
H1390 H 0.24171 0.98962 0.38152 0.0
H1391 H 0.19259 0.9876 0.33739 0.0
H1392 H 0.20944 0.00967 0.34816 0.0
H1393 H 0.18793 0.99316 0.35533 0.0
C1394 C 0.25212 0.04531 0.38183 0.0
C1395 C 0.23915 0.04863 0.38879 0.0
C1396 C 0.24662 0.02718 0.37463 0.0
C1397 C 0.22806 0.01213 0.37421 0.0
C1398 C 0.21512 0.01536 0.38123 0.0
H1399 H 0.16205 0.89059 0.35125 0.0
H1400 H 0.17494 0.92496 0.35844 0.0
C1401 C 0.22059 0.03343 0.38841 0.0
C1402 C 0.2223 0.9927 0.3671 0.0
H1403 H 0.19057 0.95742 0.34153 0.0
C1404 C 0.23072 0.98265 0.37264 0.0
C1405 C 0.20797 0.9837 0.35551 0.0
C1406 C 0.19907 0.99415 0.34864 0.0
C1407 C 0.22461 0.96349 0.36732 0.0
C1408 C 0.20989 0.9543 0.35603 0.0
C1409 C 0.20183 0.96452 0.35021 0.0
C1410 C 0.20195 0.9337 0.35072 0.0
C1411 C 0.23339 0.95296 0.37425 0.0
C1412 C 0.21276 0.92732 0.34367 0.0
C1413 C 0.20544 0.90764 0.33954 0.0
C1414 C 0.18717 0.89403 0.34237 0.0
C1415 C 0.1762 0.90062 0.34897 0.0
C1416 C 0.18352 0.92028 0.35307 0.0
H1417 H 0.24191 0.9608 0.38469 0.0
H1418 H 0.22253 0.93821 0.37644 0.0
H1419 H 0.24264 0.95149 0.36663 0.0
H1420 H 0.22692 0.93753 0.34153 0.0
H1421 H 0.21425 0.9031 0.3344 0.0
H1422 H 0.51502 0.63852 0.26228 0.0
H1423 H 0.53741 0.67019 0.27481 0.0
H1424 H 0.57 0.64664 0.29271 0.0
H1425 H 0.54755 0.61481 0.28031 0.0
H1426 H 0.54841 0.68035 0.3052 0.0
H1427 H 0.60819 0.69392 0.2732 0.0
H1428 H 0.58451 0.67541 0.26723 0.0
H1429 H 0.59753 0.6715 0.28149 0.0
C1430 C 0.52687 0.64002 0.26897 0.0
C1431 C 0.52951 0.62413 0.27028 0.0
C1432 C 0.53969 0.65815 0.27606 0.0
C1433 C 0.55546 0.66079 0.28454 0.0
C1434 C 0.5581 0.64497 0.28599 0.0
H1435 H 0.6485 0.76612 0.33062 0.0
H1436 H 0.62678 0.73234 0.32167 0.0
C1437 C 0.54527 0.62681 0.27889 0.0
C1438 C 0.56896 0.68012 0.29196 0.0
H1439 H 0.61381 0.71735 0.29253 0.0
C1440 C 0.56273 0.68844 0.30247 0.0
C1441 C 0.58764 0.69056 0.28841 0.0
C1442 C 0.59491 0.68252 0.27689 0.0
C1443 C 0.57467 0.70701 0.30948 0.0
C1444 C 0.59322 0.71763 0.30568 0.0
C1445 C 0.59957 0.70915 0.29541 0.0
C1446 C 0.60599 0.73793 0.3117 0.0
C1447 C 0.56735 0.71503 0.32096 0.0
C1448 C 0.60153 0.75225 0.30898 0.0
C1449 C 0.61387 0.77154 0.31406 0.0
C1450 C 0.63102 0.77694 0.32191 0.0
C1451 C 0.63541 0.7625 0.32466 0.0
C1452 C 0.62303 0.74319 0.31955 0.0
H1453 H 0.55508 0.70334 0.3256 0.0
H1454 H 0.57828 0.72378 0.33003 0.0
H1455 H 0.56289 0.72449 0.31591 0.0
H1456 H 0.58863 0.74857 0.30267 0.0
H1457 H 0.61003 0.78223 0.31164 0.0
H1458 H 0.35712 0.87235 0.24877 0.0
H1459 H 0.32818 0.86302 0.26018 0.0
H1460 H 0.3534 0.91979 0.28342 0.0
H1461 H 0.38229 0.92929 0.27187 0.0
H1462 H 0.32194 0.8613 0.28881 0.0
H1463 H 0.30511 0.91348 0.26511 0.0
H1464 H 0.32272 0.90885 0.2585 0.0
H1465 H 0.32787 0.92477 0.27481 0.0
C1466 C 0.35648 0.88283 0.25631 0.0
C1467 C 0.37192 0.90158 0.25939 0.0
C1468 C 0.33994 0.87751 0.26279 0.0
C1469 C 0.33854 0.8908 0.27247 0.0
C1470 C 0.35401 0.90946 0.27569 0.0
H1471 H 0.25362 0.85986 0.33393 0.0
H1472 H 0.28275 0.87002 0.32248 0.0
C1473 C 0.37051 0.91486 0.26912 0.0
C1474 C 0.32104 0.88491 0.27948 0.0
H1475 H 0.28696 0.89622 0.284 0.0
C1476 C 0.31425 0.86889 0.28772 0.0
C1477 C 0.31092 0.89469 0.27789 0.0
C1478 C 0.3169 0.91128 0.26848 0.0
C1479 C 0.29768 0.86248 0.29454 0.0
C1480 C 0.2879 0.87267 0.29337 0.0
C1481 C 0.2946 0.88857 0.28501 0.0
C1482 C 0.27043 0.86679 0.30041 0.0
C1483 C 0.2906 0.84459 0.30263 0.0
C1484 C 0.25401 0.86219 0.29187 0.0
C1485 C 0.23748 0.85667 0.2984 0.0
C1486 C 0.23711 0.85564 0.31359 0.0
C1487 C 0.25355 0.86041 0.32217 0.0
C1488 C 0.27013 0.86608 0.31564 0.0
H1489 H 0.29667 0.83559 0.29906 0.0
H1490 H 0.29467 0.84893 0.31451 0.0
H1491 H 0.27516 0.83561 0.30095 0.0
H1492 H 0.25394 0.86272 0.28011 0.0
H1493 H 0.22496 0.85308 0.29155 0.0
H1494 H 0.10341 0.48112 0.29461 0.0
H1495 H 0.11499 0.46105 0.30466 0.0
H1496 H 0.09898 0.42628 0.26327 0.0
H1497 H 0.08725 0.4462 0.25319 0.0
H1498 H 0.08899 0.40436 0.28649 0.0
H1499 H 0.16312 0.4626 0.2957 0.0
H1500 H 0.14748 0.46837 0.30452 0.0
H1501 H 0.14585 0.46512 0.28486 0.0
C1502 C 0.10245 0.46926 0.28764 0.0
C1503 C 0.09451 0.46529 0.27309 0.0
C1504 C 0.10911 0.45784 0.29338 0.0
C1505 C 0.10817 0.44241 0.28462 0.0
C1506 C 0.09991 0.43818 0.27019 0.0
H1507 H 0.16898 0.38272 0.30285 0.0
H1508 H 0.15693 0.40237 0.2928 0.0
C1509 C 0.09314 0.44951 0.26447 0.0
C1510 C 0.11563 0.43055 0.29053 0.0
H1511 H 0.15524 0.43304 0.30571 0.0
C1512 C 0.10349 0.41061 0.29066 0.0
C1513 C 0.13462 0.4387 0.29574 0.0
C1514 C 0.14858 0.45984 0.29509 0.0
C1515 C 0.10974 0.39862 0.29609 0.0
C1516 C 0.12856 0.40689 0.30182 0.0
C1517 C 0.14077 0.42678 0.30147 0.0
C1518 C 0.13591 0.39512 0.30807 0.0
C1519 C 0.09622 0.37716 0.29538 0.0
C1520 C 0.12828 0.38478 0.32013 0.0
C1521 C 0.13506 0.37346 0.32586 0.0
C1522 C 0.14979 0.37249 0.31975 0.0
C1523 C 0.15768 0.38321 0.30786 0.0
C1524 C 0.1508 0.39443 0.30208 0.0
H1525 H 0.08415 0.37258 0.28716 0.0
H1526 H 0.10317 0.36878 0.29261 0.0
H1527 H 0.09074 0.37345 0.30622 0.0
H1528 H 0.11708 0.38547 0.32514 0.0
H1529 H 0.12876 0.36551 0.33509 0.0
H1530 H 0.36542 0.4479 0.248 0.0
H1531 H 0.33578 0.42943 0.25881 0.0
H1532 H 0.35344 0.47576 0.29294 0.0
H1533 H 0.38307 0.49437 0.28219 0.0
H1534 H 0.33236 0.42007 0.29084 0.0
H1535 H 0.30023 0.46305 0.27307 0.0
H1536 H 0.31849 0.46228 0.2637 0.0
H1537 H 0.32401 0.47605 0.28112 0.0
C1538 C 0.36294 0.45419 0.25776 0.0
C1539 C 0.37655 0.47259 0.26425 0.0
C1540 C 0.34607 0.44361 0.26394 0.0
C1541 C 0.34245 0.45134 0.27658 0.0
C1542 C 0.35598 0.46965 0.28311 0.0
H1543 H 0.24481 0.41046 0.32578 0.0
H1544 H 0.27484 0.42988 0.31573 0.0
C1545 C 0.37292 0.48018 0.27702 0.0
C1546 C 0.32459 0.44012 0.28308 0.0
H1547 H 0.28315 0.43797 0.28784 0.0
C1548 C 0.32155 0.42392 0.29019 0.0
C1549 C 0.3107 0.44537 0.28229 0.0
C1550 C 0.31334 0.46257 0.27458 0.0
C1551 C 0.30493 0.41283 0.29668 0.0
C1552 C 0.2908 0.4178 0.29563 0.0
C1553 C 0.29396 0.43414 0.2886 0.0
C1554 C 0.27256 0.40611 0.30161 0.0
C1555 C 0.30287 0.39616 0.30486 0.0
C1556 C 0.26116 0.38642 0.29681 0.0
C1557 C 0.24415 0.37533 0.30263 0.0
C1558 C 0.23809 0.3838 0.31317 0.0
C1559 C 0.24922 0.4036 0.3177 0.0
C1560 C 0.26634 0.41467 0.31196 0.0
H1561 H 0.31666 0.39791 0.30842 0.0
H1562 H 0.29513 0.39471 0.31465 0.0
H1563 H 0.29502 0.38256 0.29754 0.0
H1564 H 0.26542 0.37962 0.28854 0.0
H1565 H 0.23571 0.36012 0.29884 0.0
H1566 H 0.53744 0.9343 0.27857 0.0
H1567 H 0.55895 0.92578 0.29072 0.0
H1568 H 0.53774 0.87508 0.2602 0.0
H1569 H 0.51581 0.88304 0.24827 0.0
H1570 H 0.5479 0.88705 0.30256 0.0
H1571 H 0.5968 0.90712 0.25903 0.0
H1572 H 0.58157 0.91695 0.26127 0.0
H1573 H 0.57232 0.89272 0.25308 0.0
C1574 C 0.53721 0.92123 0.27452 0.0
C1575 C 0.52493 0.9094 0.26239 0.0
C1576 C 0.54958 0.91647 0.28142 0.0
C1577 C 0.55001 0.89995 0.27623 0.0
C1578 C 0.53776 0.88806 0.26421 0.0
H1579 H 0.61162 0.84266 0.29469 0.0
H1580 H 0.59174 0.85451 0.28469 0.0
C1581 C 0.52532 0.8927 0.25737 0.0
C1582 C 0.56305 0.89484 0.28344 0.0
H1583 H 0.60104 0.89036 0.27787 0.0
C1584 C 0.55964 0.88791 0.29727 0.0
C1585 C 0.57823 0.89594 0.27641 0.0
C1586 C 0.58262 0.90371 0.26166 0.0
C1587 C 0.57072 0.88138 0.3041 0.0
C1588 C 0.58585 0.88231 0.29701 0.0
C1589 C 0.58943 0.88964 0.28328 0.0
C1590 C 0.59776 0.87512 0.30334 0.0
C1591 C 0.56564 0.87286 0.31854 0.0
C1592 C 0.60786 0.88287 0.3171 0.0
C1593 C 0.61907 0.87596 0.3229 0.0
C1594 C 0.62055 0.8614 0.31492 0.0
C1595 C 0.61067 0.85386 0.30108 0.0
C1596 C 0.59935 0.86064 0.29535 0.0
H1597 H 0.55103 0.86852 0.32052 0.0
H1598 H 0.56737 0.86003 0.31902 0.0
H1599 H 0.57496 0.88383 0.32754 0.0
H1600 H 0.60722 0.89438 0.32329 0.0
H1601 H 0.62671 0.88212 0.33355 0.0
H1602 H 0.06735 0.6113 0.28665 0.0
H1603 H 0.07786 0.64361 0.29869 0.0
H1604 H 0.13094 0.66514 0.28076 0.0
H1605 H 0.12057 0.63304 0.26871 0.0
H1606 H 0.10854 0.66777 0.31896 0.0
H1607 H 0.11322 0.70138 0.26708 0.0
H1608 H 0.10125 0.67552 0.26784 0.0
H1609 H 0.12625 0.68906 0.26795 0.0
C1610 C 0.0813 0.62291 0.28536 0.0
C1611 C 0.09306 0.6197 0.27659 0.0
C1612 C 0.08725 0.64134 0.29221 0.0
C1613 C 0.10503 0.65682 0.29037 0.0
C1614 C 0.11699 0.6535 0.28201 0.0
H1615 H 0.17348 0.77751 0.31778 0.0
H1616 H 0.16045 0.74344 0.30947 0.0
C1617 C 0.11104 0.63516 0.27513 0.0
C1618 C 0.11116 0.67654 0.29707 0.0
H1619 H 0.12752 0.72291 0.28873 0.0
C1620 C 0.11252 0.67982 0.31237 0.0
C1621 C 0.11621 0.69218 0.28842 0.0
C1622 C 0.114 0.68937 0.27191 0.0
C1623 C 0.11953 0.69853 0.31928 0.0
C1624 C 0.12514 0.7142 0.31062 0.0
C1625 C 0.12335 0.71084 0.29533 0.0
C1626 C 0.13334 0.73437 0.3171 0.0
C1627 C 0.12144 0.70153 0.33576 0.0
C1628 C 0.12243 0.74049 0.3243 0.0
C1629 C 0.12982 0.76003 0.32905 0.0
C1630 C 0.14823 0.77375 0.32662 0.0
C1631 C 0.15926 0.76739 0.31982 0.0
C1632 C 0.15184 0.74791 0.31505 0.0
H1633 H 0.11948 0.6885 0.34089 0.0
H1634 H 0.13537 0.71395 0.3398 0.0
H1635 H 0.11076 0.70493 0.33937 0.0
H1636 H 0.10803 0.73026 0.32581 0.0
H1637 H 0.12093 0.76441 0.33424 0.0
H1638 H 0.82283 0.03202 0.40592 0.0
H1639 H 0.80075 0.00079 0.39268 0.0
H1640 H 0.77194 0.02642 0.37156 0.0
H1641 H 0.79406 0.05783 0.3848 0.0
H1642 H 0.7625 0.98049 0.39439 0.0
H1643 H 0.77915 0.99662 0.33719 0.0
H1644 H 0.79445 0.012 0.35286 0.0
H1645 H 0.77381 0.01281 0.34733 0.0
C1646 C 0.8118 0.03103 0.39846 0.0
C1647 C 0.81015 0.04738 0.39645 0.0
C1648 C 0.79925 0.0132 0.39085 0.0
C1649 C 0.78483 0.01133 0.38103 0.0
C1650 C 0.7832 0.02763 0.37886 0.0
H1651 H 0.69198 0.90548 0.33473 0.0
H1652 H 0.71314 0.93937 0.34389 0.0
C1653 C 0.79582 0.04555 0.38645 0.0
C1654 C 0.77101 0.99202 0.37374 0.0
H1655 H 0.754 0.96559 0.34046 0.0
C1656 C 0.76063 0.97726 0.3826 0.0
C1657 C 0.7685 0.98788 0.35834 0.0
C1658 C 0.77964 0.00309 0.34833 0.0
C1659 C 0.74798 0.9584 0.37651 0.0
C1660 C 0.74582 0.95414 0.36116 0.0
C1661 C 0.75578 0.96896 0.35223 0.0
C1662 C 0.73387 0.93412 0.35438 0.0
C1663 C 0.73704 0.94312 0.38654 0.0
C1664 C 0.73885 0.92014 0.35691 0.0
C1665 C 0.72688 0.90084 0.35172 0.0
C1666 C 0.70966 0.89511 0.34386 0.0
C1667 C 0.70509 0.90934 0.34079 0.0
C1668 C 0.71714 0.92872 0.34599 0.0
H1669 H 0.73705 0.94957 0.39756 0.0
H1670 H 0.72237 0.93367 0.38184 0.0
H1671 H 0.74341 0.93392 0.38786 0.0
H1672 H 0.75184 0.92412 0.36323 0.0
H1673 H 0.73097 0.89036 0.35421 0.0
H1674 H 0.97619 0.75668 0.42726 0.0
H1675 H 0.00492 0.76629 0.41547 0.0
H1676 H 0.98499 0.78677 0.38039 0.0
H1677 H 0.95632 0.77747 0.39219 0.0
H1678 H -2e-05 0.76301 0.37122 0.0
H1679 H 0.04757 0.82245 0.41332 0.0
H1680 H 0.03292 0.79959 0.42025 0.0
H1681 H 0.02258 0.81221 0.41196 0.0
C1682 C 0.978 0.76342 0.41712 0.0
C1683 C 0.96399 0.76639 0.4107 0.0
C1684 C 0.9944 0.76887 0.41039 0.0
C1685 C 0.99714 0.77746 0.39717 0.0
C1686 C 0.98313 0.7802 0.39062 0.0
H1687 H 0.08545 0.81966 0.33848 0.0
H1688 H 0.05634 0.80949 0.34995 0.0
C1689 C 0.96672 0.77478 0.39734 0.0
C1690 C 0.01456 0.78339 0.39008 0.0
H1691 H 0.06166 0.81401 0.39475 0.0
C1692 C 0.01347 0.7742 0.37631 0.0
C1693 C 0.03209 0.79797 0.3968 0.0
C1694 C 0.03395 0.80878 0.41134 0.0
C1695 C 0.02956 0.77899 0.36918 0.0
C1696 C 0.04711 0.7936 0.37589 0.0
C1697 C 0.04818 0.80279 0.38965 0.0
C1698 C 0.06458 0.79959 0.36884 0.0
C1699 C 0.02769 0.76807 0.35468 0.0
C1700 C 0.079 0.79781 0.37583 0.0
C1701 C 0.09564 0.80373 0.36936 0.0
C1702 C 0.09815 0.8116 0.35583 0.0
C1703 C 0.08379 0.81351 0.34888 0.0
C1704 C 0.06714 0.80761 0.35537 0.0
H1705 H 0.01424 0.75417 0.35293 0.0
H1706 H 0.02818 0.77696 0.34571 0.0
H1707 H 0.03929 0.76502 0.35393 0.0
H1708 H 0.07733 0.79177 0.38628 0.0
H1709 H 0.10656 0.80219 0.37497 0.0
H1710 H 0.2104 0.18832 0.40553 0.0
H1711 H 0.19946 0.20827 0.39436 0.0
H1712 H 0.25164 0.23966 0.37523 0.0
H1713 H 0.26273 0.21979 0.38641 0.0
H1714 H 0.21519 0.24822 0.39843 0.0
H1715 H 0.21286 0.22386 0.34018 0.0
H1716 H 0.21469 0.21097 0.35508 0.0
H1717 H 0.23491 0.2325 0.35056 0.0
C1718 C 0.21959 0.19954 0.39901 0.0
C1719 C 0.23744 0.20248 0.39685 0.0
C1720 C 0.21328 0.21084 0.39257 0.0
C1721 C 0.22463 0.22523 0.3838 0.0
C1722 C 0.24249 0.22832 0.38169 0.0
H1723 H 0.21271 0.31171 0.33959 0.0
H1724 H 0.22352 0.291 0.34953 0.0
C1725 C 0.24882 0.21698 0.3881 0.0
C1726 C 0.21794 0.23739 0.37728 0.0
H1727 H 0.20781 0.25024 0.34475 0.0
C1728 C 0.2135 0.24861 0.38669 0.0
C1729 C 0.21579 0.23788 0.36197 0.0
C1730 C 0.21964 0.22554 0.35133 0.0
C1731 C 0.2072 0.26053 0.38121 0.0
C1732 C 0.20501 0.26098 0.3659 0.0
C1733 C 0.20951 0.24983 0.35648 0.0
C1734 C 0.19811 0.27301 0.35948 0.0
C1735 C 0.20328 0.27282 0.39185 0.0
C1736 C 0.1801 0.26947 0.36155 0.0
C1737 C 0.17385 0.28126 0.35589 0.0
C1738 C 0.18549 0.29676 0.34799 0.0
C1739 C 0.20338 0.29995 0.34564 0.0
C1740 C 0.2096 0.28812 0.3513 0.0
H1741 H 0.20993 0.27439 0.40303 0.0
H1742 H 0.20833 0.28744 0.38816 0.0
H1743 H 0.188 0.26591 0.3925 0.0
H1744 H 0.1709 0.25764 0.36761 0.0
H1745 H 0.15997 0.27834 0.35788 0.0
H1746 H 0.6367 0.55165 0.75662 0.0
H1747 H 0.66558 0.57174 0.74548 0.0
H1748 H 0.64752 0.52814 0.70909 0.0
H1749 H 0.61824 0.50844 0.71973 0.0
H1750 H 0.69277 0.56399 0.739 0.0
H1751 H 0.66253 0.576 0.68821 0.0
H1752 H 0.64913 0.56615 0.70355 0.0
H1753 H 0.65296 0.55089 0.69078 0.0
C1754 C 0.6387 0.54649 0.74611 0.0
C1755 C 0.62508 0.52845 0.73905 0.0
C1756 C 0.65529 0.55792 0.73982 0.0
C1757 C 0.65859 0.55158 0.72634 0.0
C1758 C 0.64511 0.53353 0.71933 0.0
H1759 H 0.75552 0.5942 0.67648 0.0
H1760 H 0.72601 0.57422 0.68715 0.0
C1761 C 0.62848 0.52215 0.72556 0.0
C1762 C 0.67639 0.56355 0.71987 0.0
H1763 H 0.69469 0.58528 0.68913 0.0
C1764 C 0.69318 0.56874 0.72814 0.0
C1765 C 0.67691 0.56976 0.70569 0.0
C1766 C 0.65943 0.56559 0.69659 0.0
C1767 C 0.71046 0.57973 0.7225 0.0
C1768 C 0.71091 0.58565 0.70828 0.0
C1769 C 0.69419 0.58053 0.7 0.0
C1770 C 0.7287 0.5976 0.70195 0.0
C1771 C 0.72816 0.58482 0.73168 0.0
C1772 C 0.73979 0.61729 0.70672 0.0
C1773 C 0.75649 0.62871 0.70059 0.0
C1774 C 0.76236 0.62055 0.68964 0.0
C1775 C 0.75128 0.6008 0.68491 0.0
C1776 C 0.73447 0.58941 0.69097 0.0
H1777 H 0.72534 0.577 0.74168 0.0
H1778 H 0.73724 0.58142 0.72518 0.0
H1779 H 0.73597 0.60059 0.73504 0.0
H1780 H 0.73545 0.62383 0.71513 0.0
H1781 H 0.76482 0.6439 0.70443 0.0
H1782 H 0.46043 0.08625 0.76181 0.0
H1783 H 0.43849 0.09501 0.7509 0.0
H1784 H 0.47714 0.12544 0.71934 0.0
H1785 H 0.49879 0.11611 0.72977 0.0
H1786 H 0.44305 0.13122 0.74768 0.0
H1787 H 0.42917 0.09002 0.69358 0.0
H1788 H 0.44057 0.0863 0.70928 0.0
H1789 H 0.45353 0.10631 0.69869 0.0
C1790 C 0.46415 0.09458 0.75242 0.0
C1791 C 0.48132 0.10037 0.7466 0.0
C1792 C 0.45166 0.09969 0.74628 0.0
C1793 C 0.45607 0.1106 0.73417 0.0
C1794 C 0.47331 0.11668 0.7285 0.0
H1795 H 0.40789 0.16242 0.68127 0.0
H1796 H 0.42782 0.15235 0.69397 0.0
C1797 C 0.48577 0.11154 0.73459 0.0
C1798 C 0.44279 0.11589 0.72758 0.0
H1799 H 0.4187 0.11279 0.69536 0.0
C1800 C 0.43757 0.12706 0.73628 0.0
C1801 C 0.43561 0.11034 0.71272 0.0
C1802 C 0.43985 0.09742 0.70305 0.0
C1803 C 0.42584 0.13339 0.73037 0.0
C1804 C 0.4191 0.12825 0.71542 0.0
C1805 C 0.42404 0.1168 0.7068 0.0
C1806 C 0.40722 0.13494 0.70837 0.0
C1807 C 0.42118 0.14597 0.73999 0.0
C1808 C 0.38906 0.12845 0.7123 0.0
C1809 C 0.37764 0.13412 0.70502 0.0
C1810 C 0.38424 0.14633 0.69373 0.0
C1811 C 0.40249 0.15299 0.68995 0.0
C1812 C 0.41385 0.14725 0.69716 0.0
H1813 H 0.43033 0.15168 0.75042 0.0
H1814 H 0.42249 0.15833 0.73421 0.0
H1815 H 0.40651 0.13735 0.74268 0.0
H1816 H 0.38363 0.11874 0.7208 0.0
H1817 H 0.36362 0.12884 0.70815 0.0
H1818 H 0.92481 0.378 0.74691 0.0
H1819 H 0.91576 0.3455 0.73653 0.0
H1820 H 0.88185 0.34993 0.70154 0.0
H1821 H 0.89164 0.38283 0.71136 0.0
H1822 H 0.88188 0.31412 0.73282 0.0
H1823 H 0.91028 0.33044 0.67892 0.0
H1824 H 0.91637 0.34903 0.69363 0.0
H1825 H 0.89483 0.33952 0.68221 0.0
C1826 C 0.91577 0.37227 0.73682 0.0
C1827 C 0.90904 0.38313 0.72995 0.0
C1828 C 0.91047 0.3536 0.73097 0.0
C1829 C 0.89834 0.34537 0.71814 0.0
C1830 C 0.89156 0.35612 0.71127 0.0
H1831 H 0.83017 0.22274 0.69112 0.0
H1832 H 0.84242 0.25626 0.70084 0.0
C1833 C 0.89696 0.37485 0.71703 0.0
C1834 C 0.89208 0.32521 0.71236 0.0
H1835 H 0.88867 0.29726 0.68163 0.0
C1836 C 0.88349 0.31045 0.72165 0.0
C1837 C 0.89443 0.32045 0.69786 0.0
C1838 C 0.90465 0.33572 0.68763 0.0
C1839 C 0.87683 0.29103 0.71677 0.0
C1840 C 0.87833 0.28618 0.70205 0.0
C1841 C 0.8873 0.30097 0.69285 0.0
C1842 C 0.87081 0.26586 0.696 0.0
C1843 C 0.86853 0.27598 0.7275 0.0
C1844 C 0.88255 0.26024 0.68958 0.0
C1845 C 0.87553 0.24115 0.68379 0.0
C1846 C 0.85661 0.22728 0.68434 0.0
C1847 C 0.84485 0.233 0.69065 0.0
C1848 C 0.85185 0.25214 0.69631 0.0
H1849 H 0.87352 0.28246 0.73899 0.0
H1850 H 0.85313 0.26927 0.72632 0.0
H1851 H 0.87203 0.26442 0.72548 0.0
H1852 H 0.89721 0.27061 0.68915 0.0
H1853 H 0.885 0.23724 0.67903 0.0
H1854 H 0.17776 0.95194 0.62323 0.0
H1855 H 0.1998 0.98446 0.63458 0.0
H1856 H 0.23789 0.99139 0.60216 0.0
H1857 H 0.21562 0.95926 0.59033 0.0
H1858 H 0.23616 0.00113 0.64657 0.0
H1859 H 0.23148 0.0381 0.59862 0.0
H1860 H 0.21539 0.0129 0.60027 0.0
H1861 H 0.23818 0.0204 0.59446 0.0
C1862 C 0.19075 0.96043 0.61842 0.0
C1863 C 0.19481 0.95304 0.60576 0.0
C1864 C 0.2034 0.97896 0.625 0.0
C1865 C 0.22033 0.99046 0.61906 0.0
C1866 C 0.22474 0.9829 0.60675 0.0
H1867 H 0.31486 0.0977 0.66046 0.0
H1868 H 0.29345 0.06405 0.65115 0.0
C1869 C 0.21207 0.96441 0.60011 0.0
C1870 C 0.2332 0.0105 0.6256 0.0
H1871 H 0.25452 0.0576 0.61794 0.0
C1872 C 0.24017 0.0135 0.64034 0.0
C1873 C 0.23817 0.02662 0.6175 0.0
C1874 C 0.23029 0.02442 0.60188 0.0
C1875 C 0.25216 0.03221 0.64715 0.0
C1876 C 0.25757 0.04828 0.63891 0.0
C1877 C 0.25046 0.04526 0.62421 0.0
C1878 C 0.27034 0.06843 0.64529 0.0
C1879 C 0.25857 0.03459 0.66318 0.0
C1880 C 0.26458 0.08215 0.6449 0.0
C1881 C 0.27684 0.10143 0.65004 0.0
C1882 C 0.29516 0.10742 0.6557 0.0
C1883 C 0.30082 0.09358 0.65629 0.0
C1884 C 0.28856 0.07429 0.65104 0.0
H1885 H 0.24925 0.02168 0.66876 0.0
H1886 H 0.27278 0.03653 0.66429 0.0
H1887 H 0.25913 0.04749 0.66886 0.0
H1888 H 0.25059 0.07795 0.64047 0.0
H1889 H 0.27197 0.11166 0.64944 0.0
H1890 H 0.02178 0.19631 0.57992 0.0
H1891 H 0.99298 0.18637 0.59168 0.0
H1892 H 0.01409 0.24526 0.60936 0.0
H1893 H 0.04318 0.25523 0.59804 0.0
H1894 H 0.99854 0.21841 0.62984 0.0
H1895 H 0.95105 0.19682 0.57892 0.0
H1896 H 0.96496 0.18543 0.57995 0.0
H1897 H 0.9761 0.21112 0.57906 0.0
C1898 C 0.02034 0.20713 0.58637 0.0
C1899 C 0.03475 0.22658 0.58801 0.0
C1900 C 0.0038 0.20146 0.59295 0.0
C1901 C 0.00133 0.21513 0.6012 0.0
C1902 C 0.0157 0.23451 0.60294 0.0
H1903 H 0.89999 0.20531 0.6299 0.0
H1904 H 0.92835 0.21307 0.61809 0.0
C1905 C 0.03224 0.2402 0.59637 0.0
C1906 C 0.98391 0.20922 0.6083 0.0
H1907 H 0.93692 0.18975 0.60122 0.0
C1908 C 0.98505 0.21214 0.6236 0.0
C1909 C 0.9664 0.20123 0.6001 0.0
C1910 C 0.96448 0.1986 0.58359 0.0
C1911 C 0.9691 0.20724 0.63096 0.0
C1912 C 0.95152 0.19887 0.62278 0.0
C1913 C 0.9504 0.196 0.60747 0.0
C1914 C 0.93421 0.19376 0.62983 0.0
C1915 C 0.97129 0.21153 0.64737 0.0
C1916 C 0.92798 0.18012 0.64019 0.0
C1917 C 0.91185 0.17578 0.64703 0.0
C1918 C 0.90166 0.18487 0.64347 0.0
C1919 C 0.90767 0.19817 0.63287 0.0
C1920 C 0.92382 0.20258 0.62611 0.0
H1921 H 0.98595 0.22223 0.65148 0.0
H1922 H 0.96216 0.21717 0.65086 0.0
H1923 H 0.96725 0.19801 0.65261 0.0
H1924 H 0.93558 0.17284 0.64298 0.0
H1925 H 0.90739 0.16535 0.65509 0.0
H1926 H 0.75825 0.78308 0.58775 0.0
H1927 H 0.76889 0.76337 0.59972 0.0
H1928 H 0.78252 0.79964 0.64014 0.0
H1929 H 0.77218 0.81963 0.62812 0.0
H1930 H 0.8101 0.79268 0.63431 0.0
H1931 H 0.74282 0.72366 0.62803 0.0
H1932 H 0.74971 0.73345 0.61086 0.0
H1933 H 0.74452 0.74642 0.6247 0.0
C1934 C 0.7633 0.7867 0.59923 0.0
C1935 C 0.76429 0.80282 0.60703 0.0
C1936 C 0.76933 0.7754 0.60607 0.0
C1937 C 0.77617 0.77981 0.6209 0.0
C1938 C 0.77721 0.79593 0.6287 0.0
H1939 H 0.79344 0.69958 0.67024 0.0
H1940 H 0.78303 0.7212 0.66157 0.0
C1941 C 0.77134 0.80735 0.62183 0.0
C1942 C 0.78283 0.76799 0.62811 0.0
H1943 H 0.76998 0.72171 0.6347 0.0
C1944 C 0.80129 0.77718 0.63451 0.0
C1945 C 0.77123 0.74783 0.62857 0.0
C1946 C 0.75092 0.73729 0.62281 0.0
C1947 C 0.80861 0.76667 0.64103 0.0
C1948 C 0.79731 0.74636 0.6408 0.0
C1949 C 0.77871 0.73726 0.63473 0.0
C1950 C 0.80445 0.73418 0.64667 0.0
C1951 C 0.8283 0.77749 0.64827 0.0
C1952 C 0.81998 0.73429 0.64119 0.0
C1953 C 0.8261 0.7221 0.64625 0.0
C1954 C 0.8166 0.70931 0.6567 0.0
C1955 C 0.80107 0.70924 0.66218 0.0
C1956 C 0.79509 0.72159 0.65723 0.0
H1957 H 0.83278 0.79284 0.65155 0.0
H1958 H 0.8297 0.77072 0.65811 0.0
H1959 H 0.83793 0.77731 0.64041 0.0
H1960 H 0.82712 0.74349 0.63275 0.0
H1961 H 0.83795 0.72233 0.64166 0.0
H1962 H 0.02349 0.81451 0.58074 0.0
H1963 H 0.99331 0.79544 0.59054 0.0
H1964 H 0.01687 0.77013 0.61848 0.0
H1965 H 0.04698 0.78874 0.60853 0.0
H1966 H 0.97127 0.75304 0.59139 0.0
H1967 H 0.99386 0.79439 0.64626 0.0
H1968 H 0.0063 0.80374 0.63038 0.0
H1969 H 0.00888 0.78602 0.63973 0.0
C1970 C 0.02222 0.80472 0.58884 0.0
C1971 C 0.03771 0.80323 0.5939 0.0
C1972 C 0.00499 0.79392 0.59446 0.0
C1973 C 0.00298 0.78159 0.60533 0.0
C1974 C 0.01827 0.77982 0.61025 0.0
H1975 H 0.91796 0.70876 0.65888 0.0
H1976 H 0.94631 0.72758 0.64673 0.0
C1977 C 0.03547 0.79053 0.60459 0.0
C1978 C 0.98493 0.77063 0.61162 0.0
H1979 H 0.96426 0.76586 0.64345 0.0
C1980 C 0.96963 0.75586 0.60274 0.0
C1981 C 0.98294 0.77445 0.62641 0.0
C1982 C 0.99879 0.79061 0.63627 0.0
C1983 C 0.95247 0.74432 0.60842 0.0
C1984 C 0.95054 0.74799 0.62329 0.0
C1985 C 0.96579 0.76302 0.63207 0.0
C1986 C 0.93306 0.73609 0.63017 0.0
C1987 C 0.9368 0.72791 0.59859 0.0
C1988 C 0.9162 0.73469 0.62494 0.0
C1989 C 0.89995 0.72382 0.63182 0.0
C1990 C 0.90039 0.71438 0.64412 0.0
C1991 C 0.91726 0.7159 0.6494 0.0
C1992 C 0.93345 0.72664 0.64248 0.0
H1993 H 0.94199 0.72394 0.58884 0.0
H1994 H 0.92916 0.71491 0.60458 0.0
H1995 H 0.92679 0.73239 0.59468 0.0
H1996 H 0.91566 0.74224 0.61568 0.0
H1997 H 0.88713 0.72304 0.62769 0.0
H1998 H 0.18149 0.21354 0.58022 0.0
H1999 H 0.2034 0.20613 0.5929 0.0
H2000 H 0.22299 0.25683 0.62313 0.0
H2001 H 0.20148 0.26479 0.61025 0.0
H2002 H 0.24558 0.23433 0.59899 0.0
H2003 H 0.2063 0.20771 0.64796 0.0
H2004 H 0.19494 0.20764 0.63064 0.0
H2005 H 0.20966 0.23 0.64161 0.0
C2006 C 0.1906 0.22329 0.58944 0.0
C2007 C 0.18975 0.23981 0.59418 0.0
C2008 C 0.20301 0.21894 0.59672 0.0
C2009 C 0.21466 0.23088 0.60896 0.0
C2010 C 0.21393 0.24737 0.61377 0.0
H2011 H 0.28951 0.21165 0.66701 0.0
H2012 H 0.27084 0.22464 0.65633 0.0
C2013 C 0.20158 0.25182 0.60643 0.0
C2014 C 0.2277 0.22606 0.61653 0.0
H2015 H 0.23394 0.20653 0.64684 0.0
C2016 C 0.24315 0.22835 0.60949 0.0
C2017 C 0.22448 0.21847 0.63026 0.0
C2018 C 0.20793 0.21568 0.63812 0.0
C2019 C 0.25545 0.223 0.61577 0.0
C2020 C 0.25183 0.21463 0.62925 0.0
C2021 C 0.23663 0.21285 0.63648 0.0
C2022 C 0.2632 0.20692 0.63572 0.0
C2023 C 0.27225 0.2265 0.60795 0.0
C2024 C 0.2648 0.19243 0.62777 0.0
C2025 C 0.27552 0.18513 0.63379 0.0
C2026 C 0.28458 0.19198 0.64795 0.0
C2027 C 0.28267 0.20617 0.65605 0.0
C2028 C 0.27204 0.21358 0.64997 0.0
H2029 H 0.27624 0.2383 0.60066 0.0
H2030 H 0.28443 0.23029 0.61583 0.0
H2031 H 0.26887 0.21317 0.60104 0.0
H2032 H 0.25768 0.18668 0.61692 0.0
H2033 H 0.27666 0.17408 0.62737 0.0
H2034 H 0.78878 0.97082 0.59222 0.0
H2035 H 0.79841 0.0032 0.60334 0.0
H2036 H 0.74707 0.98048 0.62406 0.0
H2037 H 0.73724 0.94799 0.61288 0.0
H2038 H 0.77994 0.02439 0.60009 0.0
H2039 H 0.78747 0.01115 0.65812 0.0
H2040 H 0.78602 0.99496 0.64298 0.0
H2041 H 0.76532 0.99459 0.64824 0.0
C2042 C 0.77947 0.97271 0.59907 0.0
C2043 C 0.76223 0.95682 0.60167 0.0
C2044 C 0.78504 0.9912 0.60547 0.0
C2045 C 0.77356 0.99418 0.61466 0.0
C2046 C 0.75631 0.97841 0.61724 0.0
H2047 H 0.78789 0.09861 0.66216 0.0
H2048 H 0.77569 0.06544 0.65145 0.0
C2049 C 0.75071 0.95987 0.61084 0.0
C2050 C 0.77954 0.01392 0.62122 0.0
H2051 H 0.79147 0.04173 0.65378 0.0
C2052 C 0.78248 0.0282 0.61183 0.0
C2053 C 0.78275 0.01879 0.63653 0.0
C2054 C 0.78039 0.00414 0.64709 0.0
C2055 C 0.78849 0.04726 0.61735 0.0
C2056 C 0.79198 0.05221 0.63265 0.0
C2057 C 0.78879 0.03787 0.64206 0.0
C2058 C 0.79937 0.07231 0.6391 0.0
C2059 C 0.79084 0.06188 0.60676 0.0
C2060 C 0.81685 0.08709 0.63586 0.0
C2061 C 0.82386 0.10605 0.64193 0.0
C2062 C 0.81358 0.11058 0.65147 0.0
C2063 C 0.79616 0.09566 0.65484 0.0
C2064 C 0.78916 0.07669 0.64875 0.0
H2065 H 0.78282 0.05478 0.59601 0.0
H2066 H 0.78627 0.07185 0.61121 0.0
H2067 H 0.8058 0.0706 0.60486 0.0
H2068 H 0.82513 0.08393 0.62868 0.0
H2069 H 0.83736 0.11712 0.63913 0.0
H2070 H 0.48515 0.36279 0.73929 0.0
H2071 H 0.46321 0.33159 0.72595 0.0
H2072 H 0.43442 0.35719 0.70474 0.0
H2073 H 0.45641 0.38858 0.71809 0.0
H2074 H 0.4249 0.31112 0.72739 0.0
H2075 H 0.44228 0.32786 0.6704 0.0
H2076 H 0.45736 0.34314 0.68619 0.0
H2077 H 0.43672 0.34387 0.68054 0.0
C2078 C 0.47414 0.36179 0.7318 0.0
C2079 C 0.47246 0.37813 0.72978 0.0
C2080 C 0.46168 0.34399 0.72413 0.0
C2081 C 0.44732 0.34213 0.71425 0.0
C2082 C 0.44564 0.3584 0.7121 0.0
H2083 H 0.35523 0.23596 0.66773 0.0
H2084 H 0.37608 0.26991 0.67689 0.0
C2085 C 0.45817 0.3763 0.71975 0.0
C2086 C 0.43364 0.32286 0.70684 0.0
H2087 H 0.41728 0.29665 0.67344 0.0
C2088 C 0.42321 0.30798 0.71559 0.0
C2089 C 0.43139 0.31885 0.69144 0.0
C2090 C 0.44261 0.3342 0.68155 0.0
C2091 C 0.41077 0.28913 0.70939 0.0
C2092 C 0.40887 0.28501 0.69405 0.0
C2093 C 0.41886 0.29994 0.68521 0.0
C2094 C 0.39716 0.26501 0.68718 0.0
C2095 C 0.3998 0.27369 0.7193 0.0
C2096 C 0.40245 0.25124 0.6896 0.0
C2097 C 0.39066 0.23191 0.68439 0.0
C2098 C 0.37331 0.22596 0.67666 0.0
C2099 C 0.36844 0.24 0.67369 0.0
C2100 C 0.38032 0.25941 0.6789 0.0
H2101 H 0.39971 0.27998 0.73036 0.0
H2102 H 0.38516 0.26425 0.71452 0.0
H2103 H 0.4062 0.26451 0.72055 0.0
H2104 H 0.41552 0.2554 0.69585 0.0
H2105 H 0.39496 0.22157 0.68681 0.0
H2106 H 0.64348 0.09175 0.76143 0.0
H2107 H 0.67314 0.10319 0.75066 0.0
H2108 H 0.65526 0.12765 0.71725 0.0
H2109 H 0.62561 0.1164 0.728 0.0
H2110 H 0.67037 0.10544 0.70649 0.0
H2111 H 0.71665 0.15909 0.75233 0.0
H2112 H 0.70158 0.13526 0.75756 0.0
H2113 H 0.69168 0.14902 0.75063 0.0
C2114 C 0.64594 0.09977 0.75189 0.0
C2115 C 0.63221 0.10322 0.74559 0.0
C2116 C 0.6629 0.1063 0.74576 0.0
C2117 C 0.66647 0.11651 0.7333 0.0
C2118 C 0.65277 0.11985 0.72691 0.0
H2119 H 0.75795 0.16373 0.67758 0.0
H2120 H 0.72908 0.15454 0.68915 0.0
C2121 C 0.63581 0.11332 0.73302 0.0
C2122 C 0.68429 0.12319 0.72664 0.0
H2123 H 0.73148 0.15234 0.73332 0.0
C2124 C 0.68373 0.11578 0.71231 0.0
C2125 C 0.70167 0.13664 0.7343 0.0
C2126 C 0.70301 0.14563 0.74951 0.0
C2127 C 0.70016 0.12118 0.70551 0.0
C2128 C 0.71754 0.13461 0.71317 0.0
C2129 C 0.71811 0.14205 0.7275 0.0
C2130 C 0.73532 0.14095 0.70654 0.0
C2131 C 0.6988 0.11212 0.69032 0.0
C2132 C 0.74862 0.13689 0.71277 0.0
C2133 C 0.76512 0.1422 0.70623 0.0
C2134 C 0.76859 0.15174 0.69341 0.0
C2135 C 0.75552 0.15627 0.68741 0.0
C2136 C 0.73901 0.15095 0.69395 0.0
H2137 H 0.68507 0.09879 0.68744 0.0
H2138 H 0.70049 0.12254 0.68225 0.0
H2139 H 0.70998 0.10848 0.68929 0.0
H2140 H 0.74606 0.12929 0.72254 0.0
H2141 H 0.77505 0.13864 0.71111 0.0
H2142 H 0.92383 0.5498 0.71799 0.0
H2143 H 0.91266 0.56976 0.70704 0.0
H2144 H 0.86329 0.54259 0.73021 0.0
H2145 H 0.87418 0.52243 0.74104 0.0
H2146 H 0.8782 0.55785 0.68975 0.0
H2147 H 0.88567 0.60111 0.74165 0.0
H2148 H 0.89683 0.58682 0.73966 0.0
H2149 H 0.87244 0.57538 0.74232 0.0
C2150 C 0.91051 0.54795 0.72065 0.0
C2151 C 0.89996 0.53462 0.73048 0.0
C2152 C 0.90421 0.55942 0.71444 0.0
C2153 C 0.88731 0.55784 0.71801 0.0
C2154 C 0.87656 0.5443 0.72757 0.0
H2155 H 0.82623 0.61575 0.69609 0.0
H2156 H 0.83682 0.59454 0.70532 0.0
C2157 C 0.88283 0.53282 0.73376 0.0
C2158 C 0.88085 0.5703 0.71172 0.0
H2159 H 0.87038 0.6054 0.72096 0.0
C2160 C 0.87656 0.56833 0.69653 0.0
C2161 C 0.87872 0.5839 0.72064 0.0
C2162 C 0.88379 0.58711 0.73696 0.0
C2163 C 0.86979 0.57933 0.69004 0.0
C2164 C 0.86762 0.59291 0.69897 0.0
C2165 C 0.872 0.59493 0.71415 0.0
C2166 C 0.86088 0.60526 0.69283 0.0
C2167 C 0.86459 0.57599 0.67373 0.0
C2168 C 0.87097 0.6184 0.6828 0.0
C2169 C 0.86492 0.63052 0.67744 0.0
C2170 C 0.84874 0.62981 0.68212 0.0
C2171 C 0.83869 0.61662 0.69219 0.0
C2172 C 0.84473 0.6045 0.69751 0.0
H2173 H 0.86229 0.56177 0.66916 0.0
H2174 H 0.85177 0.57668 0.67102 0.0
H2175 H 0.87611 0.5874 0.66827 0.0
H2176 H 0.8837 0.61953 0.6793 0.0
H2177 H 0.87309 0.6406 0.66979 0.0
H2178 H 0.46194 0.9329 0.14321 0.0
H2179 H 0.46871 0.94428 0.11896 0.0
H2180 H 0.4825 0.00138 0.13638 0.0
H2181 H 0.47669 0.99039 0.16084 0.0
H2182 H 0.45422 0.96043 0.10096 0.0
H2183 H 0.52926 0.01185 0.11741 0.0
H2184 H 0.51439 0.99393 0.12897 0.0
H2185 H 0.51373 0.01592 0.12796 0.0
C2186 C 0.46659 0.94793 0.14194 0.0
C2187 C 0.46904 0.96079 0.15404 0.0
C2188 C 0.47028 0.95437 0.12803 0.0
C2189 C 0.47644 0.97376 0.12592 0.0
C2190 C 0.47814 0.98645 0.13783 0.0
H2191 H 0.48548 0.01597 0.03905 0.0
H2192 H 0.47558 0.00601 0.06332 0.0
C2193 C 0.47458 0.98007 0.15178 0.0
C2194 C 0.48159 0.98071 0.11133 0.0
H2195 H 0.51806 0.01232 0.09338 0.0
C2196 C 0.46817 0.97179 0.09927 0.0
C2197 C 0.49987 0.99534 0.10916 0.0
C2198 C 0.51521 0.00471 0.12152 0.0
C2199 C 0.47254 0.97708 0.08507 0.0
C2200 C 0.49073 0.99201 0.08296 0.0
C2201 C 0.5041 0.00096 0.09503 0.0
C2202 C 0.49653 0.99809 0.06827 0.0
C2203 C 0.45777 0.96626 0.07247 0.0
C2204 C 0.51194 0.99754 0.06319 0.0
C2205 C 0.51773 0.00347 0.04947 0.0
C2206 C 0.50811 0.0099 0.04056 0.0
C2207 C 0.49286 0.01071 0.04567 0.0
C2208 C 0.48717 0.00496 0.05947 0.0
H2209 H 0.44674 0.95193 0.0753 0.0
H2210 H 0.45101 0.97476 0.06972 0.0
H2211 H 0.46389 0.96404 0.06259 0.0
H2212 H 0.51941 0.99236 0.0698 0.0
H2213 H 0.52951 0.00268 0.04572 0.0
H2214 H 0.00455 0.48749 0.16593 0.0
H2215 H 0.99391 0.48105 0.1398 0.0
H2216 H 0.05086 0.51478 0.12936 0.0
H2217 H 0.06163 0.52088 0.15538 0.0
H2218 H -0.00025 0.50915 0.12065 0.0
H2219 H 0.03055 0.46517 0.10184 0.0
H2220 H 0.02789 0.46918 0.12088 0.0
H2221 H 0.04699 0.48749 0.11227 0.0
C2222 C 0.01482 0.49325 0.15805 0.0
C2223 C 0.03394 0.50469 0.16272 0.0
C2224 C 0.00872 0.48963 0.14315 0.0
C2225 C 0.02162 0.49722 0.13265 0.0
C2226 C 0.0407 0.50849 0.13726 0.0
H2227 H 0.02276 0.51152 0.04107 0.0
H2228 H 0.02933 0.50958 0.06697 0.0
C2229 C 0.04681 0.51215 0.15214 0.0
C2230 C 0.01512 0.49446 0.11693 0.0
H2231 H 0.01981 0.47794 0.08326 0.0
C2232 C 0.00391 0.5021 0.11247 0.0
C2233 C 0.02064 0.48531 0.10632 0.0
C2234 C 0.03204 0.47615 0.11055 0.0
C2235 C 0.99867 0.50152 0.09761 0.0
C2236 C 0.0045 0.49271 0.08697 0.0
C2237 C 0.01536 0.48468 0.09145 0.0
C2238 C 0.0003 0.49263 0.0711 0.0
C2239 C 0.98761 0.51107 0.09341 0.0
C2240 C 0.98181 0.48336 0.06477 0.0
C2241 C 0.97802 0.48448 0.04996 0.0
C2242 C 0.99269 0.49474 0.04127 0.0
C2243 C 0.01119 0.50347 0.04752 0.0
C2244 C 0.01496 0.50238 0.0623 0.0
H2245 H 0.98792 0.52091 0.10257 0.0
H2246 H 0.99305 0.51949 0.08385 0.0
H2247 H 0.97285 0.49979 0.09034 0.0
H2248 H 0.97032 0.47545 0.07131 0.0
H2249 H 0.96365 0.47751 0.04536 0.0
H2250 H 0.49846 0.49752 0.1665 0.0
H2251 H 0.50516 0.49253 0.1415 0.0
H2252 H 0.4682 0.51156 0.12477 0.0
H2253 H 0.46165 0.51693 0.14968 0.0
H2254 H 0.46355 0.4765 0.10973 0.0
H2255 H 0.53727 0.53679 0.11602 0.0
H2256 H 0.53059 0.51968 0.12953 0.0
H2257 H 0.52053 0.53491 0.12857 0.0
C2258 C 0.49186 0.50079 0.15752 0.0
C2259 C 0.47956 0.50769 0.16012 0.0
C2260 C 0.49568 0.49789 0.14325 0.0
C2261 C 0.48731 0.50187 0.13133 0.0
C2262 C 0.47479 0.5084 0.13384 0.0
H2263 H 0.48759 0.50217 0.03803 0.0
H2264 H 0.48063 0.50121 0.06353 0.0
C2265 C 0.47099 0.51136 0.14809 0.0
C2266 C 0.49165 0.49939 0.1162 0.0
H2267 H 0.52633 0.51809 0.09327 0.0
C2268 C 0.47729 0.48552 0.10612 0.0
C2269 C 0.50961 0.51112 0.11159 0.0
C2270 C 0.52541 0.52658 0.12192 0.0
C2271 C 0.48038 0.48312 0.09147 0.0
C2272 C 0.49821 0.49523 0.08673 0.0
C2273 C 0.51268 0.50881 0.09692 0.0
C2274 C 0.50191 0.49482 0.07112 0.0
C2275 C 0.46453 0.46753 0.08124 0.0
C2276 C 0.51652 0.49209 0.06691 0.0
C2277 C 0.52052 0.49267 0.05227 0.0
C2278 C 0.5099 0.49591 0.04163 0.0
C2279 C 0.49543 0.49882 0.04588 0.0
C2280 C 0.49151 0.49835 0.06049 0.0
H2281 H 0.45419 0.45582 0.08733 0.0
H2282 H 0.45717 0.47389 0.07538 0.0
H2283 H 0.46967 0.46109 0.07301 0.0
H2284 H 0.52488 0.48959 0.07497 0.0
H2285 H 0.5319 0.49062 0.04926 0.0
H2286 H 0.99677 0.51034 0.83773 0.0
H2287 H 0.00649 0.51376 0.8639 0.0
H2288 H 0.94901 0.48704 0.87345 0.0
H2289 H 0.93915 0.48316 0.84739 0.0
H2290 H 0.99907 0.53311 0.88801 0.0
H2291 H 0.96886 0.45449 0.89262 0.0
H2292 H 0.97293 0.46473 0.87525 0.0
H2293 H 0.95293 0.46099 0.88439 0.0
C2294 C 0.98621 0.50509 0.8454 0.0
C2295 C 0.96719 0.49643 0.84048 0.0
C2296 C 0.99179 0.50717 0.86033 0.0
C2297 C 0.97844 0.50045 0.87055 0.0
C2298 C 0.9595 0.49209 0.8657 0.0
H2299 H 0.97651 0.49134 0.96338 0.0
H2300 H 0.9696 0.492 0.93731 0.0
C2301 C 0.95391 0.49006 0.85082 0.0
C2302 C 0.98419 0.502 0.8863 0.0
H2303 H 0.97931 0.47489 0.91484 0.0
C2304 C 0.99489 0.52042 0.8939 0.0
C2305 C 0.97871 0.48539 0.89388 0.0
C2306 C 0.96786 0.46527 0.88612 0.0
C2307 C -0.00022 0.52265 0.90904 0.0
C2308 C 0.99405 0.50601 0.91665 0.0
C2309 C 0.98359 0.48762 0.90898 0.0
C2310 C 0.99852 0.50721 0.93261 0.0
C2311 C 0.01055 0.54274 0.91683 0.0
C2312 C 0.01708 0.51566 0.93863 0.0
C2313 C 0.02107 0.5154 0.95356 0.0
C2314 C 0.00654 0.50656 0.96265 0.0
C2315 C 0.98799 0.49839 0.95665 0.0
C2316 C 0.98402 0.49869 0.94176 0.0
H2317 H 0.00996 0.55361 0.91019 0.0
H2318 H 0.00508 0.54331 0.92751 0.0
H2319 H 0.02539 0.54684 0.91897 0.0
H2320 H 0.02846 0.52198 0.93171 0.0
H2321 H 0.03548 0.52171 0.95792 0.0
H2322 H 0.49865 0.46232 0.84439 0.0
H2323 H 0.49351 0.46778 0.86972 0.0
H2324 H 0.54767 0.51942 0.87589 0.0
H2325 H 0.55314 0.5138 0.85056 0.0
H2326 H 0.53987 0.49419 0.89844 0.0
H2327 H 0.48253 0.50931 0.88659 0.0
H2328 H 0.4788 0.48734 0.87704 0.0
H2329 H 0.49789 0.51016 0.87307 0.0
C2330 C 0.50952 0.47481 0.85114 0.0
C2331 C 0.52631 0.48763 0.84547 0.0
C2332 C 0.50647 0.47801 0.86556 0.0
C2333 C 0.5201 0.49415 0.8746 0.0
C2334 C 0.53693 0.50696 0.86904 0.0
H2335 H 0.521 0.52393 0.96834 0.0
H2336 H 0.53017 0.52447 0.94335 0.0
C2337 C 0.53997 0.5038 0.85456 0.0
C2338 C 0.51688 0.49716 0.88998 0.0
H2339 H 0.48672 0.50246 0.91097 0.0
C2340 C 0.5284 0.49623 0.90123 0.0
C2341 C 0.50194 0.49988 0.89354 0.0
C2342 C 0.48968 0.50192 0.88194 0.0
C2343 C 0.52484 0.49706 0.91596 0.0
C2344 C 0.50953 0.49918 0.91948 0.0
C2345 C 0.49837 0.5007 0.90823 0.0
C2346 C 0.50427 0.49902 0.93467 0.0
C2347 C 0.53706 0.49491 0.92754 0.0
C2348 C 0.48654 0.48483 0.93801 0.0
C2349 C 0.48126 0.48458 0.95221 0.0
C2350 C 0.49363 0.49853 0.96333 0.0
C2351 C 0.51131 0.51286 0.95998 0.0
C2352 C 0.51658 0.51314 0.94574 0.0
H2353 H 0.54527 0.48882 0.92278 0.0
H2354 H 0.54703 0.50934 0.93324 0.0
H2355 H 0.52858 0.48544 0.9358 0.0
H2356 H 0.4768 0.47384 0.92962 0.0
H2357 H 0.46754 0.47339 0.95452 0.0
H2358 H 0.54496 0.05944 0.85816 0.0
H2359 H 0.53706 0.04835 0.88233 0.0
H2360 H 0.4974 0.99109 0.86255 0.0
H2361 H 0.50585 0.00184 0.83827 0.0
H2362 H 0.50285 0.03394 0.89276 0.0
H2363 H 0.52614 0.97997 0.89397 0.0
H2364 H 0.53302 0.99741 0.8806 0.0
H2365 H 0.51024 0.97616 0.87847 0.0
C2366 C 0.53488 0.04437 0.85892 0.0
C2367 C 0.52612 0.03151 0.84625 0.0
C2368 C 0.53026 0.0381 0.87276 0.0
C2369 C 0.5168 0.01886 0.87425 0.0
C2370 C 0.50808 0.00592 0.86167 0.0
H2371 H 0.46624 0.96507 0.95271 0.0
H2372 H 0.47286 0.97134 0.92715 0.0
C2373 C 0.51276 0.01215 0.84779 0.0
C2374 C 0.51128 0.01276 0.88897 0.0
H2375 H 0.50978 0.98196 0.91379 0.0
C2376 C 0.50437 0.02258 0.89735 0.0
C2377 C 0.51321 0.99787 0.89489 0.0
C2378 C 0.52121 0.98733 0.88659 0.0
C2379 C 0.49946 0.018 0.91155 0.0
C2380 C 0.50161 0.00331 0.91752 0.0
C2381 C 0.50814 0.99319 0.90909 0.0
C2382 C 0.49796 0.99898 0.9328 0.0
C2383 C 0.49205 0.02893 0.92013 0.0
C2384 C 0.50996 0.0124 0.9443 0.0
C2385 C 0.50624 0.0088 0.95878 0.0
C2386 C 0.4906 0.99169 0.96199 0.0
C2387 C 0.47854 0.97827 0.95047 0.0
C2388 C 0.48231 0.9818 0.93593 0.0
H2389 H 0.48773 0.03703 0.91301 0.0
H2390 H 0.47993 0.01889 0.92588 0.0
H2391 H 0.5031 0.03944 0.92853 0.0
H2392 H 0.52204 0.02581 0.94206 0.0
H2393 H 0.51514 0.0198 0.96736 0.0
H2394 H 0.11037 0.29154 0.48147 0.0
H2395 H 0.11614 0.30302 0.45705 0.0
H2396 H 0.16952 0.30609 0.46072 0.0
H2397 H 0.16405 0.29494 0.48512 0.0
H2398 H 0.14689 0.33797 0.44833 0.0
H2399 H 0.14266 0.27177 0.42202 0.0
H2400 H 0.13374 0.27238 0.43944 0.0
H2401 H 0.1583 0.28176 0.43842 0.0
C2402 C 0.12341 0.29482 0.47712 0.0
C2403 C 0.13668 0.29214 0.48518 0.0
C2404 C 0.12663 0.30128 0.46316 0.0
C2405 C 0.1431 0.30505 0.45702 0.0
C2406 C 0.15654 0.30283 0.46516 0.0
H2407 H 0.19989 0.34469 0.38065 0.0
H2408 H 0.18927 0.33411 0.40456 0.0
C2409 C 0.15336 0.29642 0.47909 0.0
C2410 C 0.14648 0.31146 0.44214 0.0
H2411 H 0.15578 0.29956 0.40864 0.0
C2412 C 0.14861 0.32952 0.43957 0.0
C2413 C 0.1486 0.3003 0.43076 0.0
C2414 C 0.14554 0.28039 0.43271 0.0
C2415 C 0.15374 0.33713 0.42606 0.0
C2416 C 0.15654 0.32625 0.41488 0.0
C2417 C 0.15376 0.30791 0.41731 0.0
C2418 C 0.16323 0.3339 0.40078 0.0
C2419 C 0.15687 0.35704 0.42405 0.0
C2420 C 0.15216 0.33744 0.39082 0.0
C2421 C 0.15827 0.34361 0.37718 0.0
C2422 C 0.1754 0.34605 0.37329 0.0
C2423 C 0.18663 0.34293 0.3834 0.0
C2424 C 0.18055 0.33681 0.39701 0.0
H2425 H 0.15758 0.36497 0.4346 0.0
H2426 H 0.16997 0.36571 0.41883 0.0
H2427 H 0.14516 0.35573 0.41674 0.0
H2428 H 0.13863 0.33501 0.39345 0.0
H2429 H 0.14943 0.34605 0.36956 0.0
H2430 H 0.72859 0.85072 0.48441 0.0
H2431 H 0.71635 0.84337 0.45869 0.0
H2432 H 0.6606 0.80812 0.47118 0.0
H2433 H 0.67265 0.81594 0.49702 0.0
H2434 H 0.69523 0.80783 0.4412 0.0
H2435 H 0.65653 0.84759 0.447 0.0
H2436 H 0.67392 0.85007 0.4609 0.0
H2437 H 0.65108 0.82893 0.45903 0.0
C2438 C 0.7137 0.84149 0.48171 0.0
C2439 C 0.70157 0.83412 0.49278 0.0
C2440 C 0.70676 0.83716 0.467 0.0
C2441 C 0.68755 0.82542 0.46306 0.0
C2442 C 0.67544 0.81745 0.47402 0.0
H2443 H 0.63086 0.80974 0.37584 0.0
H2444 H 0.63643 0.80475 0.40133 0.0
C2445 C 0.68238 0.82179 0.48876 0.0
C2446 C 0.6803 0.82226 0.44749 0.0
H2447 H 0.65506 0.8334 0.42357 0.0
C2448 C 0.6863 0.81325 0.43734 0.0
C2449 C 0.66861 0.82929 0.44251 0.0
C2450 C 0.66223 0.83965 0.45287 0.0
C2451 C 0.68122 0.81144 0.42228 0.0
C2452 C 0.6701 0.81913 0.41726 0.0
C2453 C 0.66353 0.82747 0.42746 0.0
C2454 C 0.66653 0.82033 0.40151 0.0
C2455 C 0.68793 0.80146 0.41188 0.0
C2456 C 0.68158 0.83078 0.39322 0.0
C2457 C 0.67842 0.83366 0.37877 0.0
C2458 C 0.66016 0.82621 0.37234 0.0
C2459 C 0.64506 0.81555 0.38055 0.0
C2460 C 0.64823 0.81268 0.39506 0.0
H2461 H 0.69061 0.79098 0.4174 0.0
H2462 H 0.67766 0.7937 0.40223 0.0
H2463 H 0.70126 0.8124 0.40796 0.0
H2464 H 0.69581 0.8373 0.39808 0.0
H2465 H 0.69033 0.8422 0.37278 0.0
H2466 H 0.16027 0.82757 0.4988 0.0
H2467 H 0.16742 0.82408 0.47361 0.0
H2468 H 0.13765 0.85225 0.45902 0.0
H2469 H 0.1308 0.85617 0.4841 0.0
H2470 H 0.14176 0.80538 0.44747 0.0
H2471 H 0.19002 0.88369 0.44417 0.0
H2472 H 0.18337 0.87337 0.46135 0.0
H2473 H 0.16778 0.87794 0.45027 0.0
C2474 C 0.15536 0.83313 0.49023 0.0
C2475 C 0.14501 0.8422 0.49345 0.0
C2476 C 0.15936 0.83102 0.47586 0.0
C2477 C 0.15324 0.83811 0.46453 0.0
C2478 C 0.14269 0.84689 0.46766 0.0
H2479 H 0.15869 0.84695 0.37239 0.0
H2480 H 0.15254 0.8467 0.3981 0.0
C2481 C 0.13864 0.84896 0.48198 0.0
C2482 C 0.15787 0.83647 0.44937 0.0
H2483 H 0.18017 0.86349 0.4218 0.0
C2484 C 0.15031 0.81804 0.44186 0.0
C2485 C 0.16906 0.85304 0.44216 0.0
C2486 C 0.17819 0.87314 0.44992 0.0
C2487 C 0.15306 0.81579 0.42708 0.0
C2488 C 0.16389 0.8324 0.41978 0.0
C2489 C 0.1718 0.85079 0.42742 0.0
C2490 C 0.16666 0.83121 0.40405 0.0
C2491 C 0.14383 0.79574 0.41924 0.0
C2492 C 0.17659 0.8225 0.39887 0.0
C2493 C 0.18004 0.82252 0.38411 0.0
C2494 C 0.17367 0.83134 0.37439 0.0
C2495 C 0.16361 0.83988 0.3796 0.0
C2496 C 0.16015 0.83982 0.39429 0.0
H2497 H 0.1329 0.78487 0.4255 0.0
H2498 H 0.13742 0.79539 0.40824 0.0
H2499 H 0.1545 0.79147 0.41774 0.0
H2500 H 0.18201 0.81607 0.40628 0.0
H2501 H 0.18791 0.81593 0.38036 0.0
H2502 H 0.66365 0.83647 0.16928 0.0
H2503 H 0.67423 0.84003 0.19523 0.0
H2504 H 0.61837 0.82118 0.20665 0.0
H2505 H 0.60762 0.81734 0.18078 0.0
H2506 H 0.64696 0.85481 0.22394 0.0
H2507 H 0.66216 0.79462 0.22034 0.0
H2508 H 0.67303 0.8125 0.20766 0.0
H2509 H 0.64808 0.79749 0.20618 0.0
C2510 C 0.65359 0.83294 0.17731 0.0
C2511 C 0.63477 0.82656 0.17295 0.0
C2512 C 0.65966 0.83501 0.19211 0.0
C2513 C 0.64702 0.83065 0.20281 0.0
C2514 C 0.62833 0.82461 0.19854 0.0
H2515 H 0.64789 0.82705 0.29652 0.0
H2516 H 0.64057 0.82796 0.27057 0.0
C2517 C 0.62224 0.82252 0.18376 0.0
C2518 C 0.6532 0.83231 0.21848 0.0
H2519 H 0.66975 0.81299 0.24318 0.0
C2520 C 0.65198 0.8457 0.22817 0.0
C2521 C 0.65974 0.82041 0.22391 0.0
C2522 C 0.66073 0.80532 0.21404 0.0
C2523 C 0.65723 0.84759 0.2432 0.0
C2524 C 0.66352 0.8355 0.24867 0.0
C2525 C 0.66495 0.82226 0.23894 0.0
C2526 C 0.66819 0.83591 0.26451 0.0
C2527 C 0.65621 0.86268 0.25304 0.0
C2528 C 0.68598 0.83962 0.26968 0.0
C2529 C 0.69014 0.83917 0.28454 0.0
C2530 C 0.67659 0.83508 0.29444 0.0
C2531 C 0.65878 0.83116 0.28924 0.0
C2532 C 0.65458 0.83154 0.27439 0.0
H2533 H 0.65636 0.87421 0.24678 0.0
H2534 H 0.643 0.85574 0.25839 0.0
H2535 H 0.668 0.86946 0.26173 0.0
H2536 H 0.69661 0.8428 0.26221 0.0
H2537 H 0.70393 0.84203 0.28829 0.0
H2538 H 0.18348 0.84802 0.17199 0.0
H2539 H 0.17877 0.85448 0.19736 0.0
H2540 H 0.19952 0.81781 0.21163 0.0
H2541 H 0.20466 0.81165 0.18644 0.0
H2542 H 0.1556 0.82655 0.21533 0.0
H2543 H 0.22873 0.86661 0.24012 0.0
H2544 H 0.22274 0.86333 0.22059 0.0
H2545 H 0.22274 0.84421 0.22995 0.0
C2546 C 0.18734 0.84161 0.18058 0.0
C2547 C 0.19443 0.82931 0.17722 0.0
C2548 C 0.18456 0.84524 0.19503 0.0
C2549 C 0.18903 0.83683 0.20638 0.0
C2550 C 0.1963 0.82473 0.20307 0.0
H2551 H 0.17407 0.81854 0.29621 0.0
H2552 H 0.18209 0.82106 0.2709 0.0
C2553 C 0.19902 0.82105 0.18865 0.0
C2554 C 0.18502 0.8396 0.22156 0.0
H2555 H 0.205 0.85376 0.25673 0.0
C2556 C 0.16641 0.83277 0.22438 0.0
C2557 C 0.19917 0.8477 0.23331 0.0
C2558 C 0.21949 0.85606 0.23086 0.0
C2559 C 0.16144 0.83297 0.23873 0.0
C2560 C 0.17553 0.84053 0.25053 0.0
C2561 C 0.19422 0.84793 0.24766 0.0
C2562 C 0.17108 0.83973 0.26596 0.0
C2563 C 0.14107 0.82425 0.2412 0.0
C2564 C 0.16241 0.84958 0.27163 0.0
C2565 C 0.15783 0.84818 0.28613 0.0
C2566 C 0.16203 0.83706 0.29518 0.0
C2567 C 0.17088 0.8274 0.28952 0.0
C2568 C 0.17543 0.82879 0.27507 0.0
H2569 H 0.1318 0.81544 0.2313 0.0
H2570 H 0.13756 0.81499 0.25042 0.0
H2571 H 0.13809 0.83602 0.24404 0.0
H2572 H 0.15921 0.85835 0.26485 0.0
H2573 H 0.15108 0.85581 0.29028 0.0
H2574 H 0.20913 0.39532 0.19222 0.0
H2575 H 0.20188 0.38342 0.21626 0.0
H2576 H 0.16362 0.32609 0.19584 0.0
H2577 H 0.17144 0.33768 0.17171 0.0
H2578 H 0.16811 0.3672 0.22748 0.0
H2579 H 0.19455 0.31576 0.22573 0.0
H2580 H 0.20021 0.33357 0.21276 0.0
H2581 H 0.17793 0.31163 0.21069 0.0
C2582 C 0.19946 0.38009 0.19282 0.0
C2583 C 0.19096 0.36743 0.18002 0.0
C2584 C 0.19521 0.37335 0.20658 0.0
C2585 C 0.1824 0.35383 0.20784 0.0
C2586 C 0.17382 0.34113 0.19512 0.0
H2587 H 0.13208 0.29834 0.28571 0.0
H2588 H 0.13835 0.30546 0.26024 0.0
C2589 C 0.17814 0.34785 0.18133 0.0
C2590 C 0.17752 0.34705 0.22251 0.0
H2591 H 0.17804 0.31579 0.24607 0.0
C2592 C 0.17028 0.35596 0.23153 0.0
C2593 C 0.18038 0.33237 0.22776 0.0
C2594 C 0.18885 0.32288 0.2188 0.0
C2595 C 0.16588 0.35062 0.24569 0.0
C2596 C 0.16877 0.33602 0.25091 0.0
C2597 C 0.17576 0.3269 0.2419 0.0
C2598 C 0.16545 0.33082 0.26603 0.0
C2599 C 0.15829 0.36066 0.25509 0.0
C2600 C 0.17868 0.34268 0.27756 0.0
C2601 C 0.17515 0.33861 0.29199 0.0
C2602 C 0.15843 0.32261 0.29513 0.0
C2603 C 0.14521 0.31066 0.28354 0.0
C2604 C 0.14876 0.31467 0.26905 0.0
H2605 H 0.15494 0.37021 0.24887 0.0
H2606 H 0.1455 0.34983 0.25974 0.0
H2607 H 0.16876 0.36957 0.26438 0.0
H2608 H 0.19153 0.35538 0.2754 0.0
H2609 H 0.18505 0.34854 0.30065 0.0
H2610 H 0.84004 0.63775 0.82431 0.0
H2611 H 0.84762 0.6502 0.80041 0.0
H2612 H 0.79579 0.65033 0.79534 0.0
H2613 H 0.78799 0.63769 0.8192 0.0
H2614 H 0.82614 0.63139 0.7739 0.0
H2615 H 0.83477 0.7044 0.78468 0.0
H2616 H 0.8353 0.6903 0.79917 0.0
H2617 H 0.81341 0.68493 0.78997 0.0
C2618 C 0.83026 0.64046 0.81812 0.0
C2619 C 0.81338 0.63666 0.82362 0.0
C2620 C 0.83467 0.64767 0.80452 0.0
C2621 C 0.82235 0.65136 0.7962 0.0
C2622 C 0.80564 0.64794 0.80174 0.0
H2623 H 0.81527 0.65693 0.70284 0.0
H2624 H 0.80913 0.64995 0.72813 0.0
C2625 C 0.80121 0.64071 0.81536 0.0
C2626 C 0.82645 0.65752 0.78131 0.0
H2627 H 0.83387 0.69366 0.75981 0.0
C2628 C 0.82791 0.64504 0.77083 0.0
C2629 C 0.82889 0.6754 0.7774 0.0
C2630 C 0.82819 0.68965 0.78841 0.0
C2631 C 0.83142 0.6498 0.75645 0.0
C2632 C 0.83332 0.66741 0.75243 0.0
C2633 C 0.83223 0.68009 0.76295 0.0
C2634 C 0.83639 0.67277 0.73729 0.0
C2635 C 0.83321 0.63603 0.74566 0.0
C2636 C 0.85352 0.6882 0.73411 0.0
C2637 C 0.85686 0.69232 0.71962 0.0
C2638 C 0.84299 0.68127 0.70816 0.0
C2639 C 0.82578 0.66613 0.71144 0.0
C2640 C 0.82245 0.66194 0.72588 0.0
H2641 H 0.83551 0.62535 0.75123 0.0
H2642 H 0.82018 0.62798 0.73824 0.0
H2643 H 0.84492 0.64403 0.73885 0.0
H2644 H 0.86447 0.69668 0.74279 0.0
H2645 H 0.87034 0.704 0.71735 0.0
H2646 H 0.39346 0.18435 0.81872 0.0
H2647 H 0.38175 0.1772 0.79287 0.0
H2648 H 0.32577 0.1411 0.8046 0.0
H2649 H 0.33727 0.1487 0.83055 0.0
H2650 H 0.36136 0.14169 0.77521 0.0
H2651 H 0.32156 0.18035 0.78021 0.0
H2652 H 0.33881 0.18304 0.79434 0.0
H2653 H 0.31609 0.16173 0.79228 0.0
C2654 C 0.37863 0.17499 0.81582 0.0
C2655 C 0.36627 0.1673 0.82672 0.0
C2656 C 0.372 0.17078 0.80104 0.0
C2657 C 0.35288 0.15884 0.79685 0.0
C2658 C 0.34055 0.15059 0.80763 0.0
H2659 H 0.29581 0.14104 0.7096 0.0
H2660 H 0.30192 0.13689 0.73519 0.0
C2661 C 0.34717 0.15481 0.82244 0.0
C2662 C 0.34592 0.15566 0.7812 0.0
H2663 H 0.32033 0.16593 0.75692 0.0
C2664 C 0.35227 0.14684 0.77119 0.0
C2665 C 0.33403 0.16236 0.77602 0.0
C2666 C 0.3273 0.17254 0.78622 0.0
C2667 C 0.34724 0.14479 0.7561 0.0
C2668 C 0.33583 0.15205 0.7509 0.0
C2669 C 0.32901 0.1603 0.76095 0.0
C2670 C 0.33199 0.15273 0.73507 0.0
C2671 C 0.35427 0.13494 0.74589 0.0
C2672 C 0.34683 0.16301 0.72656 0.0
C2673 C 0.34337 0.16538 0.71203 0.0
C2674 C 0.32499 0.15761 0.70576 0.0
C2675 C 0.3101 0.1471 0.71418 0.0
C2676 C 0.31358 0.14471 0.72876 0.0
H2677 H 0.3572 0.12473 0.75156 0.0
H2678 H 0.34407 0.1269 0.73625 0.0
H2679 H 0.36751 0.146 0.74193 0.0
H2680 H 0.36114 0.16981 0.7313 0.0
H2681 H 0.35512 0.17381 0.70585 0.0
H2682 H 0.83814 0.20264 0.82668 0.0
H2683 H 0.84395 0.19836 0.80132 0.0
H2684 H 0.79163 0.14455 0.79467 0.0
H2685 H 0.78571 0.1487 0.82008 0.0
H2686 H 0.84666 0.16838 0.78703 0.0
H2687 H 0.78797 0.17429 0.76109 0.0
H2688 H 0.79588 0.18128 0.78028 0.0
H2689 H 0.78149 0.15619 0.77376 0.0
C2690 C 0.82793 0.1898 0.81987 0.0
C2691 C 0.81144 0.17603 0.8254 0.0
C2692 C 0.83123 0.18743 0.80536 0.0
C2693 C 0.8181 0.17129 0.79606 0.0
C2694 C 0.80176 0.15733 0.80157 0.0
H2695 H 0.81896 0.1405 0.70333 0.0
H2696 H 0.811 0.13977 0.72874 0.0
C2697 C 0.79841 0.15972 0.81609 0.0
C2698 C 0.82173 0.1691 0.78064 0.0
H2699 H 0.80578 0.1673 0.74525 0.0
C2700 C 0.83771 0.16812 0.77789 0.0
C2701 C 0.80997 0.16867 0.76874 0.0
C2702 C 0.79294 0.17032 0.77105 0.0
C2703 C 0.84233 0.1668 0.76356 0.0
C2704 C 0.8308 0.16678 0.75169 0.0
C2705 C 0.81459 0.16733 0.7544 0.0
C2706 C 0.83572 0.16699 0.73641 0.0
C2707 C 0.85945 0.16533 0.76125 0.0
C2708 C 0.85214 0.1826 0.73231 0.0
C2709 C 0.85658 0.18311 0.71783 0.0
C2710 C 0.84458 0.16811 0.70718 0.0
C2711 C 0.82823 0.15242 0.71129 0.0
C2712 C 0.82375 0.15193 0.72579 0.0
H2713 H 0.8637 0.16015 0.77087 0.0
H2714 H 0.85703 0.15539 0.75141 0.0
H2715 H 0.8712 0.17983 0.75958 0.0
H2716 H 0.86139 0.19453 0.74029 0.0
H2717 H 0.86924 0.19541 0.71491 0.0
H2718 H 0.32566 0.16385 0.50279 0.0
H2719 H 0.3351 0.16649 0.52888 0.0
H2720 H 0.27843 0.14629 0.53874 0.0
H2721 H 0.26873 0.14287 0.5127 0.0
H2722 H 0.33237 0.18846 0.55212 0.0
H2723 H 0.29128 0.11021 0.55937 0.0
H2724 H 0.2954 0.11921 0.54156 0.0
H2725 H 0.2776 0.11972 0.55161 0.0
C2726 C 0.31516 0.15973 0.51049 0.0
C2727 C 0.29641 0.15304 0.50564 0.0
C2728 C 0.3206 0.16139 0.5254 0.0
C2729 C 0.30741 0.15631 0.53571 0.0
C2730 C 0.28877 0.14994 0.53094 0.0
H2731 H 0.31047 0.15562 0.62995 0.0
H2732 H 0.30209 0.15521 0.60394 0.0
C2733 C 0.2833 0.14823 0.51605 0.0
C2734 C 0.31316 0.15786 0.55148 0.0
H2735 H 0.30505 0.13164 0.58103 0.0
C2736 C 0.32649 0.17603 0.55843 0.0
C2737 C 0.30546 0.1416 0.55968 0.0
C2738 C 0.29177 0.12155 0.55266 0.0
C2739 C 0.33205 0.17845 0.57345 0.0
C2740 C 0.32421 0.16223 0.58165 0.0
C2741 C 0.31095 0.14405 0.5747 0.0
C2742 C 0.32964 0.16372 0.59746 0.0
C2743 C 0.34597 0.19838 0.58052 0.0
C2744 C 0.34784 0.16854 0.6024 0.0
C2745 C 0.35264 0.16897 0.61727 0.0
C2746 C 0.33934 0.16472 0.62741 0.0
C2747 C 0.32113 0.15981 0.62245 0.0
C2748 C 0.3163 0.15929 0.60758 0.0
H2749 H 0.34746 0.20986 0.57353 0.0
H2750 H 0.3418 0.20105 0.5913 0.0
H2751 H 0.35981 0.19954 0.58236 0.0
H2752 H 0.35823 0.1716 0.59472 0.0
H2753 H 0.36672 0.17255 0.62085 0.0
H2754 H 0.87908 0.14732 0.52193 0.0
H2755 H 0.87246 0.15172 0.54706 0.0
H2756 H 0.83417 0.16961 0.53113 0.0
H2757 H 0.84133 0.16591 0.50602 0.0
H2758 H 0.8542 0.19152 0.55513 0.0
H2759 H 0.82655 0.11484 0.56502 0.0
H2760 H 0.85011 0.12606 0.56021 0.0
H2761 H 0.83181 0.12322 0.54714 0.0
C2762 C 0.86927 0.15221 0.52383 0.0
C2763 C 0.86059 0.15614 0.51206 0.0
C2764 C 0.86541 0.15461 0.53816 0.0
C2765 C 0.85244 0.1605 0.54097 0.0
C2766 C 0.84414 0.16493 0.52924 0.0
H2767 H 0.79891 0.14262 0.6218 0.0
H2768 H 0.80628 0.14196 0.59643 0.0
C2769 C 0.84824 0.16284 0.51491 0.0
C2770 C 0.84745 0.16197 0.55609 0.0
H2771 H 0.83184 0.13655 0.58582 0.0
C2772 C 0.84921 0.17947 0.56183 0.0
C2773 C 0.84062 0.14614 0.56474 0.0
C2774 C 0.83696 0.12646 0.55892 0.0
C2775 C 0.84455 0.18165 0.57601 0.0
C2776 C 0.83854 0.1661 0.58489 0.0
C2777 C 0.83662 0.14855 0.57909 0.0
C2778 C 0.83379 0.16742 0.60013 0.0
C2779 C 0.84566 0.20044 0.58114 0.0
C2780 C 0.84669 0.18205 0.61067 0.0
C2781 C 0.84229 0.18268 0.6251 0.0
C2782 C 0.8252 0.16835 0.62936 0.0
C2783 C 0.81224 0.15383 0.61882 0.0
C2784 C 0.81648 0.15339 0.60434 0.0
H2785 H 0.84457 0.2081 0.57176 0.0
H2786 H 0.83445 0.19805 0.58828 0.0
H2787 H 0.85935 0.21006 0.58745 0.0
H2788 H 0.86028 0.19283 0.60781 0.0
H2789 H 0.85225 0.19436 0.63293 0.0
H2790 H 0.88846 0.7011 0.51904 0.0
H2791 H 0.88193 0.68977 0.54345 0.0
H2792 H 0.8295 0.68872 0.53904 0.0
H2793 H 0.83597 0.70025 0.51483 0.0
H2794 H 0.87511 0.70776 0.5679 0.0
H2795 H 0.81489 0.63465 0.55107 0.0
H2796 H 0.83102 0.64925 0.53842 0.0
H2797 H 0.81271 0.65363 0.54344 0.0
C2798 C 0.87556 0.69849 0.52329 0.0
C2799 C 0.86267 0.70145 0.51494 0.0
C2800 C 0.87182 0.69193 0.53719 0.0
C2801 C 0.8551 0.6881 0.54291 0.0
C2802 C 0.84228 0.69114 0.53466 0.0
H2803 H 0.80012 0.65834 0.6212 0.0
H2804 H 0.81027 0.6661 0.59671 0.0
C2805 C 0.846 0.69771 0.52081 0.0
C2806 C 0.85124 0.68166 0.55776 0.0
H2807 H 0.81898 0.64601 0.57633 0.0
C2808 C 0.86299 0.69416 0.56979 0.0
C2809 C 0.83545 0.66388 0.56012 0.0
C2810 C 0.82288 0.64948 0.54758 0.0
C2811 C 0.85883 0.68976 0.58419 0.0
C2812 C 0.84266 0.67226 0.58655 0.0
C2813 C 0.83129 0.65948 0.57449 0.0
C2814 C 0.83668 0.66735 0.60138 0.0
C2815 C 0.87134 0.70427 0.5967 0.0
C2816 C 0.84805 0.6652 0.61205 0.0
C2817 C 0.84229 0.66082 0.62606 0.0
C2818 C 0.82502 0.65841 0.62954 0.0
C2819 C 0.81349 0.66014 0.61877 0.0
C2820 C 0.81928 0.66458 0.60481 0.0
H2821 H 0.88059 0.71874 0.59299 0.0
H2822 H 0.86297 0.70577 0.60518 0.0
H2823 H 0.88033 0.69922 0.60184 0.0
H2824 H 0.86134 0.66685 0.60955 0.0
H2825 H 0.85134 0.65937 0.63416 0.0
loop_
_geom_bond_atom_site_label_1
_geom_bond_atom_site_label_2
_geom_bond_distance
_geom_bond_site_symmetry_2
_ccdc_geom_bond_type
C0 C1 1.386 . S
C0 C2 1.397 . S
C0 H24 0.931 . S
C1 C0 1.386 . S
C1 C5 1.397 . S
C2 C0 1.397 . S
C2 C3 1.384 . S
C2 H25 0.930 . S
C3 C2 1.384 . S
C3 C4 1.377 . S
C3 C6 1.481 . S
C4 C3 1.377 . S
C4 C5 1.389 . S
C4 H26 0.929 . S
C5 C1 1.397 . S
C5 C4 1.389 . S
C5 H27 0.931 . S
C6 C3 1.481 . S
C6 C7 1.387 . S
C6 C11 1.390 . S
C7 C6 1.387 . S
C7 C8 1.401 . S
C7 H28 0.930 . S
C8 C7 1.401 . S
C8 C9 1.376 . S
C8 C17 1.511 . S
C9 C8 1.376 . S
C9 C10 1.392 . S
C9 H30 0.931 . S
C10 C9 1.392 . S
C10 C11 1.361 . S
C10 C12 1.500 . S
C11 C6 1.390 . S
C11 C10 1.361 . S
C11 H29 0.931 . S
C12 C10 1.500 . S
C12 C13 1.371 . S
C12 C14 1.365 . S
C13 C12 1.371 . S
C13 C23 1.386 . S
C13 H31 0.931 . S
C14 C12 1.365 . S
C14 C15 1.409 . S
C14 H32 0.929 . S
C15 C14 1.409 . S
C15 C16 1.380 . S
C15 H33 0.930 . S
C16 C15 1.380 . S
C16 C23 1.357 . S
C17 C8 1.511 . S
C17 C18 1.341 . S
C17 C19 1.371 . S
C18 C17 1.341 . S
C18 C22 1.394 . S
C18 H34 0.930 . S
C19 C17 1.371 . S
C19 C20 1.392 . S
C19 H35 0.931 . S
C20 C19 1.392 . S
C20 C21 1.331 . S
C20 H38 0.932 . S
C21 C20 1.331 . S
C21 C22 1.336 . S
C22 C18 1.394 . S
C22 C21 1.336 . S
C22 H37 0.929 . S
C23 C13 1.386 . S
C23 C16 1.357 . S
C23 H36 0.928 . S
H24 C0 0.931 . S
H25 C2 0.930 . S
H26 C4 0.929 . S
H27 C5 0.931 . S
H28 C7 0.930 . S
H29 C11 0.931 . S
H30 C9 0.931 . S
H31 C13 0.931 . S
H32 C14 0.929 . S
H33 C15 0.930 . S
H34 C18 0.930 . S
H35 C19 0.931 . S
H36 C23 0.928 . S
H37 C22 0.929 . S
H38 C20 0.932 . S
C39 C40 1.386 . S
C39 C41 1.397 . S
C39 H63 0.931 . S
C40 C39 1.386 . S
C40 C44 1.397 . S
C41 C39 1.397 . S
C41 C42 1.384 . S
C41 H64 0.930 . S
C42 C41 1.384 . S
C42 C43 1.377 . S
C42 C45 1.481 . S
C43 C42 1.377 . S
C43 C44 1.389 . S
C43 H65 0.929 . S
C44 C40 1.397 . S
C44 C43 1.389 . S
C44 H66 0.931 . S
C45 C42 1.481 . S
C45 C46 1.387 . S
C45 C50 1.390 . S
C46 C45 1.387 . S
C46 C47 1.401 . S
C46 H67 0.930 . S
C47 C46 1.401 . S
C47 C48 1.376 . S
C47 C56 1.511 . S
C48 C47 1.376 . S
C48 C49 1.392 . S
C48 H69 0.931 . S
C49 C48 1.392 . S
C49 C50 1.361 . S
C49 C51 1.500 . S
C50 C45 1.390 . S
C50 C49 1.361 . S
C50 H68 0.931 . S
C51 C49 1.500 . S
C51 C52 1.371 . S
C51 C53 1.365 . S
C52 C51 1.371 . S
C52 C62 1.386 . S
C52 H70 0.931 . S
C53 C51 1.365 . S
C53 C54 1.409 . S
C53 H71 0.929 . S
C54 C53 1.409 . S
C54 C55 1.380 . S
C54 H72 0.930 . S
C55 C54 1.380 . S
C55 C62 1.357 . S
C56 C47 1.511 . S
C56 C57 1.341 . S
C56 C58 1.371 . S
C57 C56 1.341 . S
C57 C61 1.394 . S
C57 H73 0.930 . S
C58 C56 1.371 . S
C58 C59 1.392 . S
C58 H74 0.931 . S
C59 C58 1.392 . S
C59 C60 1.331 . S
C59 H77 0.932 . S
C60 C59 1.331 . S
C60 C61 1.336 . S
C61 C57 1.394 . S
C61 C60 1.336 . S
C61 H76 0.929 . S
C62 C52 1.386 . S
C62 C55 1.357 . S
C62 H75 0.928 . S
H63 C39 0.931 . S
H64 C41 0.930 . S
H65 C43 0.929 . S
H66 C44 0.931 . S
H67 C46 0.930 . S
H68 C50 0.931 . S
H69 C48 0.931 . S
H70 C52 0.931 . S
H71 C53 0.929 . S
H72 C54 0.930 . S
H73 C57 0.930 . S
H74 C58 0.931 . S
H75 C62 0.928 . S
H76 C61 0.929 . S
H77 C59 0.932 . S
C78 C79 1.386 . S
C78 C80 1.397 . S
C78 H102 0.931 . S
C79 C78 1.386 . S
C79 C83 1.397 . S
C80 C78 1.397 . S
C80 C81 1.384 . S
C80 H103 0.930 . S
C81 C80 1.384 . S
C81 C82 1.377 . S
C81 C84 1.481 . S
C82 C81 1.377 . S
C82 C83 1.389 . S
C82 H104 0.929 . S
C83 C79 1.397 . S
C83 C82 1.389 . S
C83 H105 0.931 . S
C84 C81 1.481 . S
C84 C85 1.387 . S
C84 C89 1.390 . S
C85 C84 1.387 . S
C85 C86 1.401 . S
C85 H106 0.930 . S
C86 C85 1.401 . S
C86 C87 1.376 . S
C86 C95 1.511 . S
C87 C86 1.376 . S
C87 C88 1.392 . S
C87 H108 0.931 . S
C88 C87 1.392 . S
C88 C89 1.361 . S
C88 C90 1.500 . S
C89 C84 1.390 . S
C89 C88 1.361 . S
C89 H107 0.931 . S
C90 C88 1.500 . S
C90 C91 1.371 . S
C90 C92 1.365 . S
C91 C90 1.371 . S
C91 C101 1.386 . S
C91 H109 0.931 . S
C92 C90 1.365 . S
C92 C93 1.409 . S
C92 H110 0.929 . S
C93 C92 1.409 . S
C93 C94 1.380 . S
C93 H111 0.930 . S
C94 C93 1.380 . S
C94 C101 1.357 . S
C95 C86 1.511 . S
C95 C96 1.341 . S
C95 C97 1.371 . S
C96 C95 1.341 . S
C96 C100 1.394 . S
C96 H112 0.930 . S
C97 C95 1.371 . S
C97 C98 1.392 . S
C97 H113 0.931 . S
C98 C97 1.392 . S
C98 C99 1.331 . S
C98 H116 0.932 . S
C99 C98 1.331 . S
C99 C100 1.336 . S
C100 C96 1.394 . S
C100 C99 1.336 . S
C100 H115 0.929 . S
C101 C91 1.386 . S
C101 C94 1.357 . S
C101 H114 0.928 . S
H102 C78 0.931 . S
H103 C80 0.930 . S
H104 C82 0.929 . S
H105 C83 0.931 . S
H106 C85 0.930 . S
H107 C89 0.931 . S
H108 C87 0.931 . S
H109 C91 0.931 . S
H110 C92 0.929 . S
H111 C93 0.930 . S
H112 C96 0.930 . S
H113 C97 0.931 . S
H114 C101 0.928 . S
H115 C100 0.929 . S
H116 C98 0.932 . S
C117 C118 1.386 . S
C117 C119 1.397 . S
C117 H141 0.931 . S
C118 C117 1.386 . S
C118 C122 1.397 . S
C119 C117 1.397 . S
C119 C120 1.384 . S
C119 H142 0.930 . S
C120 C119 1.384 . S
C120 C121 1.377 . S
C120 C123 1.481 . S
C121 C120 1.377 . S
C121 C122 1.389 . S
C121 H143 0.929 . S
C122 C118 1.397 . S
C122 C121 1.389 . S
C122 H144 0.931 . S
C123 C120 1.481 . S
C123 C124 1.387 . S
C123 C128 1.390 . S
C124 C123 1.387 . S
C124 C125 1.401 . S
C124 H145 0.930 . S
C125 C124 1.401 . S
C125 C126 1.376 . S
C125 C134 1.511 . S
C126 C125 1.376 . S
C126 C127 1.392 . S
C126 H147 0.931 . S
C127 C126 1.392 . S
C127 C128 1.361 . S
C127 C129 1.500 . S
C128 C123 1.390 . S
C128 C127 1.361 . S
C128 H146 0.931 . S
C129 C127 1.500 . S
C129 C130 1.371 . S
C129 C131 1.365 . S
C130 C129 1.371 . S
C130 C140 1.386 . S
C130 H148 0.931 . S
C131 C129 1.365 . S
C131 C132 1.409 . S
C131 H149 0.929 . S
C132 C131 1.409 . S
C132 C133 1.380 . S
C132 H150 0.930 . S
C133 C132 1.380 . S
C133 C140 1.357 . S
C134 C125 1.511 . S
C134 C135 1.341 . S
C134 C136 1.371 . S
C135 C134 1.341 . S
C135 C139 1.394 . S
C135 H151 0.930 . S
C136 C134 1.371 . S
C136 C137 1.392 . S
C136 H152 0.931 . S
C137 C136 1.392 . S
C137 C138 1.331 . S
C137 H155 0.932 . S
C138 C137 1.331 . S
C138 C139 1.336 . S
C139 C135 1.394 . S
C139 C138 1.336 . S
C139 H154 0.929 . S
C140 C130 1.386 . S
C140 C133 1.357 . S
C140 H153 0.928 . S
H141 C117 0.931 . S
H142 C119 0.930 . S
H143 C121 0.929 . S
H144 C122 0.931 . S
H145 C124 0.930 . S
H146 C128 0.931 . S
H147 C126 0.931 . S
H148 C130 0.931 . S
H149 C131 0.929 . S
H150 C132 0.930 . S
H151 C135 0.930 . S
H152 C136 0.931 . S
H153 C140 0.928 . S
H154 C139 0.929 . S
H155 C137 0.932 . S
C156 C157 1.386 . S
C156 C158 1.397 . S
C156 H180 0.931 . S
C157 C156 1.386 . S
C157 C161 1.397 . S
C158 C156 1.397 . S
C158 C159 1.384 . S
C158 H181 0.930 . S
C159 C158 1.384 . S
C159 C160 1.377 . S
C159 C162 1.481 . S
C160 C159 1.377 . S
C160 C161 1.389 . S
C160 H182 0.929 . S
C161 C157 1.397 . S
C161 C160 1.389 . S
C161 H183 0.931 . S
C162 C159 1.481 . S
C162 C163 1.387 . S
C162 C167 1.390 . S
C163 C162 1.387 . S
C163 C164 1.401 . S
C163 H184 0.930 . S
C164 C163 1.401 . S
C164 C165 1.376 . S
C164 C173 1.511 . S
C165 C164 1.376 . S
C165 C166 1.392 . S
C165 H186 0.931 . S
C166 C165 1.392 . S
C166 C167 1.361 . S
C166 C168 1.500 . S
C167 C162 1.390 . S
C167 C166 1.361 . S
C167 H185 0.931 . S
C168 C166 1.500 . S
C168 C169 1.371 . S
C168 C170 1.365 . S
C169 C168 1.371 . S
C169 C179 1.386 . S
C169 H187 0.931 . S
C170 C168 1.365 . S
C170 C171 1.409 . S
C170 H188 0.929 . S
C171 C170 1.409 . S
C171 C172 1.380 . S
C171 H189 0.930 . S
C172 C171 1.380 . S
C172 C179 1.357 . S
C173 C164 1.511 . S
C173 C174 1.341 . S
C173 C175 1.371 . S
C174 C173 1.341 . S
C174 C178 1.394 . S
C174 H190 0.930 . S
C175 C173 1.371 . S
C175 C176 1.392 . S
C175 H191 0.931 . S
C176 C175 1.392 . S
C176 C177 1.331 . S
C176 H194 0.932 . S
C177 C176 1.331 . S
C177 C178 1.336 . S
C178 C174 1.394 . S
C178 C177 1.336 . S
C178 H193 0.929 . S
C179 C169 1.386 . S
C179 C172 1.357 . S
C179 H192 0.928 . S
H180 C156 0.931 . S
H181 C158 0.930 . S
H182 C160 0.929 . S
H183 C161 0.931 . S
H184 C163 0.930 . S
H185 C167 0.931 . S
H186 C165 0.931 . S
H187 C169 0.931 . S
H188 C170 0.929 . S
H189 C171 0.930 . S
H190 C174 0.930 . S
H191 C175 0.931 . S
H192 C179 0.928 . S
H193 C178 0.929 . S
H194 C176 0.932 . S
C195 C196 1.386 . S
C195 C197 1.397 . S
C195 H219 0.931 . S
C196 C195 1.386 . S
C196 C200 1.397 . S
C197 C195 1.397 . S
C197 C198 1.384 . S
C197 H220 0.930 . S
C198 C197 1.384 . S
C198 C199 1.377 . S
C198 C201 1.481 . S
C199 C198 1.377 . S
C199 C200 1.389 . S
C199 H221 0.929 . S
C200 C196 1.397 . S
C200 C199 1.389 . S
C200 H222 0.931 . S
C201 C198 1.481 . S
C201 C202 1.387 . S
C201 C206 1.390 . S
C202 C201 1.387 . S
C202 C203 1.401 . S
C202 H223 0.930 . S
C203 C202 1.401 . S
C203 C204 1.376 . S
C203 C212 1.511 . S
C204 C203 1.376 . S
C204 C205 1.392 . S
C204 H225 0.931 . S
C205 C204 1.392 . S
C205 C206 1.361 . S
C205 C207 1.500 . S
C206 C201 1.390 . S
C206 C205 1.361 . S
C206 H224 0.931 . S
C207 C205 1.500 . S
C207 C208 1.371 . S
C207 C209 1.365 . S
C208 C207 1.371 . S
C208 C218 1.386 . S
C208 H226 0.931 . S
C209 C207 1.365 . S
C209 C210 1.409 . S
C209 H227 0.929 . S
C210 C209 1.409 . S
C210 C211 1.380 . S
C210 H228 0.930 . S
C211 C210 1.380 . S
C211 C218 1.357 . S
C212 C203 1.511 . S
C212 C213 1.341 . S
C212 C214 1.371 . S
C213 C212 1.341 . S
C213 C217 1.394 . S
C213 H229 0.930 . S
C214 C212 1.371 . S
C214 C215 1.392 . S
C214 H230 0.931 . S
C215 C214 1.392 . S
C215 C216 1.331 . S
C215 H233 0.932 . S
C216 C215 1.331 . S
C216 C217 1.336 . S
C217 C213 1.394 . S
C217 C216 1.336 . S
C217 H232 0.929 . S
C218 C208 1.386 . S
C218 C211 1.357 . S
C218 H231 0.928 . S
H219 C195 0.931 . S
H220 C197 0.930 . S
H221 C199 0.929 . S
H222 C200 0.931 . S
H223 C202 0.930 . S
H224 C206 0.931 . S
H225 C204 0.931 . S
H226 C208 0.931 . S
H227 C209 0.929 . S
H228 C210 0.930 . S
H229 C213 0.930 . S
H230 C214 0.931 . S
H231 C218 0.928 . S
H232 C217 0.929 . S
H233 C215 0.932 . S
C234 C235 1.386 . S
C234 C236 1.397 . S
C234 H258 0.931 . S
C235 C234 1.386 . S
C235 C239 1.397 . S
C236 C234 1.397 . S
C236 C237 1.384 . S
C236 H259 0.930 . S
C237 C236 1.384 . S
C237 C238 1.377 . S
C237 C240 1.481 . S
C238 C237 1.377 . S
C238 C239 1.389 . S
C238 H260 0.929 . S
C239 C235 1.397 . S
C239 C238 1.389 . S
C239 H261 0.931 . S
C240 C237 1.481 . S
C240 C241 1.387 . S
C240 C245 1.390 . S
C241 C240 1.387 . S
C241 C242 1.401 . S
C241 H262 0.930 . S
C242 C241 1.401 . S
C242 C243 1.376 . S
C242 C251 1.511 . S
C243 C242 1.376 . S
C243 C244 1.392 . S
C243 H264 0.931 . S
C244 C243 1.392 . S
C244 C245 1.361 . S
C244 C246 1.500 . S
C245 C240 1.390 . S
C245 C244 1.361 . S
C245 H263 0.931 . S
C246 C244 1.500 . S
C246 C247 1.371 . S
C246 C248 1.365 . S
C247 C246 1.371 . S
C247 C257 1.386 . S
C247 H265 0.931 . S
C248 C246 1.365 . S
C248 C249 1.409 . S
C248 H266 0.929 . S
C249 C248 1.409 . S
C249 C250 1.380 . S
C249 H267 0.930 . S
C250 C249 1.380 . S
C250 C257 1.357 . S
C251 C242 1.511 . S
C251 C252 1.341 . S
C251 C253 1.371 . S
C252 C251 1.341 . S
C252 C256 1.394 . S
C252 H268 0.930 . S
C253 C251 1.371 . S
C253 C254 1.392 . S
C253 H269 0.931 . S
C254 C253 1.392 . S
C254 C255 1.331 . S
C254 H272 0.932 . S
C255 C254 1.331 . S
C255 C256 1.336 . S
C256 C252 1.394 . S
C256 C255 1.336 . S
C256 H271 0.929 . S
C257 C247 1.386 . S
C257 C250 1.357 . S
C257 H270 0.928 . S
H258 C234 0.931 . S
H259 C236 0.930 . S
H260 C238 0.929 . S
H261 C239 0.931 . S
H262 C241 0.930 . S
H263 C245 0.931 . S
H264 C243 0.931 . S
H265 C247 0.931 . S
H266 C248 0.929 . S
H267 C249 0.930 . S
H268 C252 0.930 . S
H269 C253 0.931 . S
H270 C257 0.928 . S
H271 C256 0.929 . S
H272 C254 0.932 . S
C273 C274 1.386 . S
C273 C275 1.397 . S
C273 H297 0.931 . S
C274 C273 1.386 . S
C274 C278 1.397 . S
C275 C273 1.397 . S
C275 C276 1.384 . S
C275 H298 0.930 . S
C276 C275 1.384 . S
C276 C277 1.377 . S
C276 C279 1.481 . S
C277 C276 1.377 . S
C277 C278 1.389 . S
C277 H299 0.929 . S
C278 C274 1.397 . S
C278 C277 1.389 . S
C278 H300 0.931 . S
C279 C276 1.481 . S
C279 C280 1.387 . S
C279 C284 1.390 . S
C280 C279 1.387 . S
C280 C281 1.401 . S
C280 H301 0.930 . S
C281 C280 1.401 . S
C281 C282 1.376 . S
C281 C290 1.511 . S
C282 C281 1.376 . S
C282 C283 1.392 . S
C282 H303 0.931 . S
C283 C282 1.392 . S
C283 C284 1.361 . S
C283 C285 1.500 . S
C284 C279 1.390 . S
C284 C283 1.361 . S
C284 H302 0.931 . S
C285 C283 1.500 . S
C285 C286 1.371 . S
C285 C287 1.365 . S
C286 C285 1.371 . S
C286 C296 1.386 . S
C286 H304 0.931 . S
C287 C285 1.365 . S
C287 C288 1.409 . S
C287 H305 0.929 . S
C288 C287 1.409 . S
C288 C289 1.380 . S
C288 H306 0.930 . S
C289 C288 1.380 . S
C289 C296 1.357 . S
C290 C281 1.511 . S
C290 C291 1.341 . S
C290 C292 1.371 . S
C291 C290 1.341 . S
C291 C295 1.394 . S
C291 H307 0.930 . S
C292 C290 1.371 . S
C292 C293 1.392 . S
C292 H308 0.931 . S
C293 C292 1.392 . S
C293 C294 1.331 . S
C293 H311 0.932 . S
C294 C293 1.331 . S
C294 C295 1.336 . S
C295 C291 1.394 . S
C295 C294 1.336 . S
C295 H310 0.929 . S
C296 C286 1.386 . S
C296 C289 1.357 . S
C296 H309 0.928 . S
H297 C273 0.931 . S
H298 C275 0.930 . S
H299 C277 0.929 . S
H300 C278 0.931 . S
H301 C280 0.930 . S
H302 C284 0.931 . S
H303 C282 0.931 . S
H304 C286 0.931 . S
H305 C287 0.929 . S
H306 C288 0.930 . S
H307 C291 0.930 . S
H308 C292 0.931 . S
H309 C296 0.928 . S
H310 C295 0.929 . S
H311 C293 0.932 . S
C312 C313 1.386 . S
C312 C314 1.397 . S
C312 H336 0.931 . S
C313 C312 1.386 . S
C313 C317 1.397 . S
C314 C312 1.397 . S
C314 C315 1.384 . S
C314 H337 0.930 . S
C315 C314 1.384 . S
C315 C316 1.377 . S
C315 C318 1.481 . S
C316 C315 1.377 . S
C316 C317 1.389 . S
C316 H338 0.929 . S
C317 C313 1.397 . S
C317 C316 1.389 . S
C317 H339 0.931 . S
C318 C315 1.481 . S
C318 C319 1.387 . S
C318 C323 1.390 . S
C319 C318 1.387 . S
C319 C320 1.401 . S
C319 H340 0.930 . S
C320 C319 1.401 . S
C320 C321 1.376 . S
C320 C329 1.511 . S
C321 C320 1.376 . S
C321 C322 1.392 . S
C321 H342 0.931 . S
C322 C321 1.392 . S
C322 C323 1.361 . S
C322 C324 1.500 . S
C323 C318 1.390 . S
C323 C322 1.361 . S
C323 H341 0.931 . S
C324 C322 1.500 . S
C324 C325 1.371 . S
C324 C326 1.365 . S
C325 C324 1.371 . S
C325 C335 1.386 . S
C325 H343 0.931 . S
C326 C324 1.365 . S
C326 C327 1.409 . S
C326 H344 0.929 . S
C327 C326 1.409 . S
C327 C328 1.380 . S
C327 H345 0.930 . S
C328 C327 1.380 . S
C328 C335 1.357 . S
C329 C320 1.511 . S
C329 C330 1.341 . S
C329 C331 1.371 . S
C330 C329 1.341 . S
C330 C334 1.394 . S
C330 H346 0.930 . S
C331 C329 1.371 . S
C331 C332 1.392 . S
C331 H347 0.931 . S
C332 C331 1.392 . S
C332 C333 1.331 . S
C332 H350 0.932 . S
C333 C332 1.331 . S
C333 C334 1.336 . S
C334 C330 1.394 . S
C334 C333 1.336 . S
C334 H349 0.929 . S
C335 C325 1.386 . S
C335 C328 1.357 . S
C335 H348 0.928 . S
H336 C312 0.931 . S
H337 C314 0.930 . S
H338 C316 0.929 . S
H339 C317 0.931 . S
H340 C319 0.930 . S
H341 C323 0.931 . S
H342 C321 0.931 . S
H343 C325 0.931 . S
H344 C326 0.929 . S
H345 C327 0.930 . S
H346 C330 0.930 . S
H347 C331 0.931 . S
H348 C335 0.928 . S
H349 C334 0.929 . S
H350 C332 0.932 . S
C351 C352 1.386 . S
C351 C353 1.397 . S
C351 H375 0.931 . S
C352 C351 1.386 . S
C352 C356 1.397 . S
C353 C351 1.397 . S
C353 C354 1.384 . S
C353 H376 0.930 . S
C354 C353 1.384 . S
C354 C355 1.377 . S
C354 C357 1.481 . S
C355 C354 1.377 . S
C355 C356 1.389 . S
C355 H377 0.929 . S
C356 C352 1.397 . S
C356 C355 1.389 . S
C356 H378 0.931 . S
C357 C354 1.481 . S
C357 C358 1.387 . S
C357 C362 1.390 . S
C358 C357 1.387 . S
C358 C359 1.401 . S
C358 H379 0.930 . S
C359 C358 1.401 . S
C359 C360 1.376 . S
C359 C368 1.511 . S
C360 C359 1.376 . S
C360 C361 1.392 . S
C360 H381 0.931 . S
C361 C360 1.392 . S
C361 C362 1.361 . S
C361 C363 1.500 . S
C362 C357 1.390 . S
C362 C361 1.361 . S
C362 H380 0.931 . S
C363 C361 1.500 . S
C363 C364 1.371 . S
C363 C365 1.365 . S
C364 C363 1.371 . S
C364 C374 1.386 . S
C364 H382 0.931 . S
C365 C363 1.365 . S
C365 C366 1.409 . S
C365 H383 0.929 . S
C366 C365 1.409 . S
C366 C367 1.380 . S
C366 H384 0.930 . S
C367 C366 1.380 . S
C367 C374 1.357 . S
C368 C359 1.511 . S
C368 C369 1.341 . S
C368 C370 1.371 . S
C369 C368 1.341 . S
C369 C373 1.394 . S
C369 H385 0.930 . S
C370 C368 1.371 . S
C370 C371 1.392 . S
C370 H386 0.931 . S
C371 C370 1.392 . S
C371 C372 1.331 . S
C371 H389 0.932 . S
C372 C371 1.331 . S
C372 C373 1.336 . S
C373 C369 1.394 . S
C373 C372 1.336 . S
C373 H388 0.929 . S
C374 C364 1.386 . S
C374 C367 1.357 . S
C374 H387 0.928 . S
H375 C351 0.931 . S
H376 C353 0.930 . S
H377 C355 0.929 . S
H378 C356 0.931 . S
H379 C358 0.930 . S
H380 C362 0.931 . S
H381 C360 0.931 . S
H382 C364 0.931 . S
H383 C365 0.929 . S
H384 C366 0.930 . S
H385 C369 0.930 . S
H386 C370 0.931 . S
H387 C374 0.928 . S
H388 C373 0.929 . S
H389 C371 0.932 . S
C390 C391 1.386 . S
C390 C392 1.397 . S
C390 H414 0.931 . S
C391 C390 1.386 . S
C391 C395 1.397 . S
C392 C390 1.397 . S
C392 C393 1.384 . S
C392 H415 0.930 . S
C393 C392 1.384 . S
C393 C394 1.377 . S
C393 C396 1.481 . S
C394 C393 1.377 . S
C394 C395 1.389 . S
C394 H416 0.929 . S
C395 C391 1.397 . S
C395 C394 1.389 . S
C395 H417 0.931 . S
C396 C393 1.481 . S
C396 C397 1.387 . S
C396 C401 1.390 . S
C397 C396 1.387 . S
C397 C398 1.401 . S
C397 H418 0.930 . S
C398 C397 1.401 . S
C398 C399 1.376 . S
C398 C407 1.511 . S
C399 C398 1.376 . S
C399 C400 1.392 . S
C399 H420 0.931 . S
C400 C399 1.392 . S
C400 C401 1.361 . S
C400 C402 1.500 . S
C401 C396 1.390 . S
C401 C400 1.361 . S
C401 H419 0.931 . S
C402 C400 1.500 . S
C402 C403 1.371 . S
C402 C404 1.365 . S
C403 C402 1.371 . S
C403 C413 1.386 . S
C403 H421 0.931 . S
C404 C402 1.365 . S
C404 C405 1.409 . S
C404 H422 0.929 . S
C405 C404 1.409 . S
C405 C406 1.380 . S
C405 H423 0.930 . S
C406 C405 1.380 . S
C406 C413 1.357 . S
C407 C398 1.511 . S
C407 C408 1.341 . S
C407 C409 1.371 . S
C408 C407 1.341 . S
C408 C412 1.394 . S
C408 H424 0.930 . S
C409 C407 1.371 . S
C409 C410 1.392 . S
C409 H425 0.931 . S
C410 C409 1.392 . S
C410 C411 1.331 . S
C410 H428 0.932 . S
C411 C410 1.331 . S
C411 C412 1.336 . S
C412 C408 1.394 . S
C412 C411 1.336 . S
C412 H427 0.929 . S
C413 C403 1.386 . S
C413 C406 1.357 . S
C413 H426 0.928 . S
H414 C390 0.931 . S
H415 C392 0.930 . S
H416 C394 0.929 . S
H417 C395 0.931 . S
H418 C397 0.930 . S
H419 C401 0.931 . S
H420 C399 0.931 . S
H421 C403 0.931 . S
H422 C404 0.929 . S
H423 C405 0.930 . S
H424 C408 0.930 . S
H425 C409 0.931 . S
H426 C413 0.928 . S
H427 C412 0.929 . S
H428 C410 0.932 . S
C429 C430 1.386 . S
C429 C431 1.397 . S
C429 H453 0.931 . S
C430 C429 1.386 . S
C430 C434 1.397 . S
C431 C429 1.397 . S
C431 C432 1.384 . S
C431 H454 0.930 . S
C432 C431 1.384 . S
C432 C433 1.377 . S
C432 C435 1.481 . S
C433 C432 1.377 . S
C433 C434 1.389 . S
C433 H455 0.929 . S
C434 C430 1.397 . S
C434 C433 1.389 . S
C434 H456 0.931 . S
C435 C432 1.481 . S
C435 C436 1.387 . S
C435 C440 1.390 . S
C436 C435 1.387 . S
C436 C437 1.401 . S
C436 H457 0.930 . S
C437 C436 1.401 . S
C437 C438 1.376 . S
C437 C446 1.511 . S
C438 C437 1.376 . S
C438 C439 1.392 . S
C438 H459 0.931 . S
C439 C438 1.392 . S
C439 C440 1.361 . S
C439 C441 1.500 . S
C440 C435 1.390 . S
C440 C439 1.361 . S
C440 H458 0.931 . S
C441 C439 1.500 . S
C441 C442 1.371 . S
C441 C443 1.365 . S
C442 C441 1.371 . S
C442 C452 1.386 . S
C442 H460 0.931 . S
C443 C441 1.365 . S
C443 C444 1.409 . S
C443 H461 0.929 . S
C444 C443 1.409 . S
C444 C445 1.380 . S
C444 H462 0.930 . S
C445 C444 1.380 . S
C445 C452 1.357 . S
C446 C437 1.511 . S
C446 C447 1.341 . S
C446 C448 1.371 . S
C447 C446 1.341 . S
C447 C451 1.394 . S
C447 H463 0.930 . S
C448 C446 1.371 . S
C448 C449 1.392 . S
C448 H464 0.931 . S
C449 C448 1.392 . S
C449 C450 1.331 . S
C449 H467 0.932 . S
C450 C449 1.331 . S
C450 C451 1.336 . S
C451 C447 1.394 . S
C451 C450 1.336 . S
C451 H466 0.929 . S
C452 C442 1.386 . S
C452 C445 1.357 . S
C452 H465 0.928 . S
H453 C429 0.931 . S
H454 C431 0.930 . S
H455 C433 0.929 . S
H456 C434 0.931 . S
H457 C436 0.930 . S
H458 C440 0.931 . S
H459 C438 0.931 . S
H460 C442 0.931 . S
H461 C443 0.929 . S
H462 C444 0.930 . S
H463 C447 0.930 . S
H464 C448 0.931 . S
H465 C452 0.928 . S
H466 C451 0.929 . S
H467 C449 0.932 . S
C468 C469 1.386 . S
C468 C470 1.397 . S
C468 H492 0.931 . S
C469 C468 1.386 . S
C469 C473 1.397 . S
C470 C468 1.397 . S
C470 C471 1.384 . S
C470 H493 0.930 . S
C471 C470 1.384 . S
C471 C472 1.377 . S
C471 C474 1.481 . S
C472 C471 1.377 . S
C472 C473 1.389 . S
C472 H494 0.929 . S
C473 C469 1.397 . S
C473 C472 1.389 . S
C473 H495 0.931 . S
C474 C471 1.481 . S
C474 C475 1.387 . S
C474 C479 1.390 . S
C475 C474 1.387 . S
C475 C476 1.401 . S
C475 H496 0.930 . S
C476 C475 1.401 . S
C476 C477 1.376 . S
C476 C485 1.511 . S
C477 C476 1.376 . S
C477 C478 1.392 . S
C477 H498 0.931 . S
C478 C477 1.392 . S
C478 C479 1.361 . S
C478 C480 1.500 . S
C479 C474 1.390 . S
C479 C478 1.361 . S
C479 H497 0.931 . S
C480 C478 1.500 . S
C480 C481 1.371 . S
C480 C482 1.365 . S
C481 C480 1.371 . S
C481 C491 1.386 . S
C481 H499 0.931 . S
C482 C480 1.365 . S
C482 C483 1.409 . S
C482 H500 0.929 . S
C483 C482 1.409 . S
C483 C484 1.380 . S
C483 H501 0.930 . S
C484 C483 1.380 . S
C484 C491 1.357 . S
C485 C476 1.511 . S
C485 C486 1.341 . S
C485 C487 1.371 . S
C486 C485 1.341 . S
C486 C490 1.394 . S
C486 H502 0.930 . S
C487 C485 1.371 . S
C487 C488 1.392 . S
C487 H503 0.931 . S
C488 C487 1.392 . S
C488 C489 1.331 . S
C488 H506 0.932 . S
C489 C488 1.331 . S
C489 C490 1.336 . S
C490 C486 1.394 . S
C490 C489 1.336 . S
C490 H505 0.929 . S
C491 C481 1.386 . S
C491 C484 1.357 . S
C491 H504 0.928 . S
H492 C468 0.931 . S
H493 C470 0.930 . S
H494 C472 0.929 . S
H495 C473 0.931 . S
H496 C475 0.930 . S
H497 C479 0.931 . S
H498 C477 0.931 . S
H499 C481 0.931 . S
H500 C482 0.929 . S
H501 C483 0.930 . S
H502 C486 0.930 . S
H503 C487 0.931 . S
H504 C491 0.928 . S
H505 C490 0.929 . S
H506 C488 0.932 . S
C507 C508 1.386 . S
C507 C509 1.397 . S
C507 H531 0.931 . S
C508 C507 1.386 . S
C508 C512 1.397 . S
C509 C507 1.397 . S
C509 C510 1.384 . S
C509 H532 0.930 . S
C510 C509 1.384 . S
C510 C511 1.377 . S
C510 C513 1.481 . S
C511 C510 1.377 . S
C511 C512 1.389 . S
C511 H533 0.929 . S
C512 C508 1.397 . S
C512 C511 1.389 . S
C512 H534 0.931 . S
C513 C510 1.481 . S
C513 C514 1.387 . S
C513 C518 1.390 . S
C514 C513 1.387 . S
C514 C515 1.401 . S
C514 H535 0.930 . S
C515 C514 1.401 . S
C515 C516 1.376 . S
C515 C524 1.511 . S
C516 C515 1.376 . S
C516 C517 1.392 . S
C516 H537 0.931 . S
C517 C516 1.392 . S
C517 C518 1.361 . S
C517 C519 1.500 . S
C518 C513 1.390 . S
C518 C517 1.361 . S
C518 H536 0.931 . S
C519 C517 1.500 . S
C519 C520 1.371 . S
C519 C521 1.365 . S
C520 C519 1.371 . S
C520 C530 1.386 . S
C520 H538 0.931 . S
C521 C519 1.365 . S
C521 C522 1.409 . S
C521 H539 0.929 . S
C522 C521 1.409 . S
C522 C523 1.380 . S
C522 H540 0.930 . S
C523 C522 1.380 . S
C523 C530 1.357 . S
C524 C515 1.511 . S
C524 C525 1.341 . S
C524 C526 1.371 . S
C525 C524 1.341 . S
C525 C529 1.394 . S
C525 H541 0.930 . S
C526 C524 1.371 . S
C526 C527 1.392 . S
C526 H542 0.931 . S
C527 C526 1.392 . S
C527 C528 1.331 . S
C527 H545 0.932 . S
C528 C527 1.331 . S
C528 C529 1.336 . S
C529 C525 1.394 . S
C529 C528 1.336 . S
C529 H544 0.929 . S
C530 C520 1.386 . S
C530 C523 1.357 . S
C530 H543 0.928 . S
H531 C507 0.931 . S
H532 C509 0.930 . S
H533 C511 0.929 . S
H534 C512 0.931 . S
H535 C514 0.930 . S
H536 C518 0.931 . S
H537 C516 0.931 . S
H538 C520 0.931 . S
H539 C521 0.929 . S
H540 C522 0.930 . S
H541 C525 0.930 . S
H542 C526 0.931 . S
H543 C530 0.928 . S
H544 C529 0.929 . S
H545 C527 0.932 . S
C546 C547 1.386 . S
C546 C548 1.397 . S
C546 H570 0.931 . S
C547 C546 1.386 . S
C547 C551 1.397 . S
C548 C546 1.397 . S
C548 C549 1.384 . S
C548 H571 0.930 . S
C549 C548 1.384 . S
C549 C550 1.377 . S
C549 C552 1.481 . S
C550 C549 1.377 . S
C550 C551 1.389 . S
C550 H572 0.929 . S
C551 C547 1.397 . S
C551 C550 1.389 . S
C551 H573 0.931 . S
C552 C549 1.481 . S
C552 C553 1.387 . S
C552 C557 1.390 . S
C553 C552 1.387 . S
C553 C554 1.401 . S
C553 H574 0.930 . S
C554 C553 1.401 . S
C554 C555 1.376 . S
C554 C563 1.511 . S
C555 C554 1.376 . S
C555 C556 1.392 . S
C555 H576 0.931 . S
C556 C555 1.392 . S
C556 C557 1.361 . S
C556 C558 1.500 . S
C557 C552 1.390 . S
C557 C556 1.361 . S
C557 H575 0.931 . S
C558 C556 1.500 . S
C558 C559 1.371 . S
C558 C560 1.365 . S
C559 C558 1.371 . S
C559 C569 1.386 . S
C559 H577 0.931 . S
C560 C558 1.365 . S
C560 C561 1.409 . S
C560 H578 0.929 . S
C561 C560 1.409 . S
C561 C562 1.380 . S
C561 H579 0.930 . S
C562 C561 1.380 . S
C562 C569 1.357 . S
C563 C554 1.511 . S
C563 C564 1.341 . S
C563 C565 1.371 . S
C564 C563 1.341 . S
C564 C568 1.394 . S
C564 H580 0.930 . S
C565 C563 1.371 . S
C565 C566 1.392 . S
C565 H581 0.931 . S
C566 C565 1.392 . S
C566 C567 1.331 . S
C566 H584 0.932 . S
C567 C566 1.331 . S
C567 C568 1.336 . S
C568 C564 1.394 . S
C568 C567 1.336 . S
C568 H583 0.929 . S
C569 C559 1.386 . S
C569 C562 1.357 . S
C569 H582 0.928 . S
H570 C546 0.931 . S
H571 C548 0.930 . S
H572 C550 0.929 . S
H573 C551 0.931 . S
H574 C553 0.930 . S
H575 C557 0.931 . S
H576 C555 0.931 . S
H577 C559 0.931 . S
H578 C560 0.929 . S
H579 C561 0.930 . S
H580 C564 0.930 . S
H581 C565 0.931 . S
H582 C569 0.928 . S
H583 C568 0.929 . S
H584 C566 0.932 . S
C585 C586 1.386 . S
C585 C587 1.397 . S
C585 H609 0.931 . S
C586 C585 1.386 . S
C586 C590 1.397 . S
C587 C585 1.397 . S
C587 C588 1.384 . S
C587 H610 0.930 . S
C588 C587 1.384 . S
C588 C589 1.377 . S
C588 C591 1.481 . S
C589 C588 1.377 . S
C589 C590 1.389 . S
C589 H611 0.929 . S
C590 C586 1.397 . S
C590 C589 1.389 . S
C590 H612 0.931 . S
C591 C588 1.481 . S
C591 C592 1.387 . S
C591 C596 1.390 . S
C592 C591 1.387 . S
C592 C593 1.401 . S
C592 H613 0.930 . S
C593 C592 1.401 . S
C593 C594 1.376 . S
C593 C602 1.511 . S
C594 C593 1.376 . S
C594 C595 1.392 . S
C594 H615 0.931 . S
C595 C594 1.392 . S
C595 C596 1.361 . S
C595 C597 1.500 . S
C596 C591 1.390 . S
C596 C595 1.361 . S
C596 H614 0.931 . S
C597 C595 1.500 . S
C597 C598 1.371 . S
C597 C599 1.365 . S
C598 C597 1.371 . S
C598 C608 1.386 . S
C598 H616 0.931 . S
C599 C597 1.365 . S
C599 C600 1.409 . S
C599 H617 0.929 . S
C600 C599 1.409 . S
C600 C601 1.380 . S
C600 H618 0.930 . S
C601 C600 1.380 . S
C601 C608 1.357 . S
C602 C593 1.511 . S
C602 C603 1.341 . S
C602 C604 1.371 . S
C603 C602 1.341 . S
C603 C607 1.394 . S
C603 H619 0.930 . S
C604 C602 1.371 . S
C604 C605 1.392 . S
C604 H620 0.931 . S
C605 C604 1.392 . S
C605 C606 1.331 . S
C605 H623 0.932 . S
C606 C605 1.331 . S
C606 C607 1.336 . S
C607 C603 1.394 . S
C607 C606 1.336 . S
C607 H622 0.929 . S
C608 C598 1.386 . S
C608 C601 1.357 . S
C608 H621 0.928 . S
H609 C585 0.931 . S
H610 C587 0.930 . S
H611 C589 0.929 . S
H612 C590 0.931 . S
H613 C592 0.930 . S
H614 C596 0.931 . S
H615 C594 0.931 . S
H616 C598 0.931 . S
H617 C599 0.929 . S
H618 C600 0.930 . S
H619 C603 0.930 . S
H620 C604 0.931 . S
H621 C608 0.928 . S
H622 C607 0.929 . S
H623 C605 0.932 . S
C624 C625 1.386 . S
C624 C626 1.397 . S
C624 H648 0.931 . S
C625 C624 1.386 . S
C625 C629 1.397 . S
C626 C624 1.397 . S
C626 C627 1.384 . S
C626 H649 0.930 . S
C627 C626 1.384 . S
C627 C628 1.377 . S
C627 C630 1.481 . S
C628 C627 1.377 . S
C628 C629 1.389 . S
C628 H650 0.929 . S
C629 C625 1.397 . S
C629 C628 1.389 . S
C629 H651 0.931 . S
C630 C627 1.481 . S
C630 C631 1.387 . S
C630 C635 1.390 . S
C631 C630 1.387 . S
C631 C632 1.401 . S
C631 H652 0.930 . S
C632 C631 1.401 . S
C632 C633 1.376 . S
C632 C641 1.511 . S
C633 C632 1.376 . S
C633 C634 1.392 . S
C633 H654 0.931 . S
C634 C633 1.392 . S
C634 C635 1.361 . S
C634 C636 1.500 . S
C635 C630 1.390 . S
C635 C634 1.361 . S
C635 H653 0.931 . S
C636 C634 1.500 . S
C636 C637 1.371 . S
C636 C638 1.365 . S
C637 C636 1.371 . S
C637 C647 1.386 . S
C637 H655 0.931 . S
C638 C636 1.365 . S
C638 C639 1.409 . S
C638 H656 0.929 . S
C639 C638 1.409 . S
C639 C640 1.380 . S
C639 H657 0.930 . S
C640 C639 1.380 . S
C640 C647 1.357 . S
C641 C632 1.511 . S
C641 C642 1.341 . S
C641 C643 1.371 . S
C642 C641 1.341 . S
C642 C646 1.394 . S
C642 H658 0.930 . S
C643 C641 1.371 . S
C643 C644 1.392 . S
C643 H659 0.931 . S
C644 C643 1.392 . S
C644 C645 1.331 . S
C644 H662 0.932 . S
C645 C644 1.331 . S
C645 C646 1.336 . S
C646 C642 1.394 . S
C646 C645 1.336 . S
C646 H661 0.929 . S
C647 C637 1.386 . S
C647 C640 1.357 . S
C647 H660 0.928 . S
H648 C624 0.931 . S
H649 C626 0.930 . S
H650 C628 0.929 . S
H651 C629 0.931 . S
H652 C631 0.930 . S
H653 C635 0.931 . S
H654 C633 0.931 . S
H655 C637 0.931 . S
H656 C638 0.929 . S
H657 C639 0.930 . S
H658 C642 0.930 . S
H659 C643 0.931 . S
H660 C647 0.928 . S
H661 C646 0.929 . S
H662 C644 0.932 . S
C663 C664 1.386 . S
C663 C665 1.397 . S
C663 H687 0.931 . S
C664 C663 1.386 . S
C664 C668 1.397 . S
C665 C663 1.397 . S
C665 C666 1.384 . S
C665 H688 0.930 . S
C666 C665 1.384 . S
C666 C667 1.377 . S
C666 C669 1.481 . S
C667 C666 1.377 . S
C667 C668 1.389 . S
C667 H689 0.929 . S
C668 C664 1.397 . S
C668 C667 1.389 . S
C668 H690 0.931 . S
C669 C666 1.481 . S
C669 C670 1.387 . S
C669 C674 1.390 . S
C670 C669 1.387 . S
C670 C671 1.401 . S
C670 H691 0.930 . S
C671 C670 1.401 . S
C671 C672 1.376 . S
C671 C680 1.511 . S
C672 C671 1.376 . S
C672 C673 1.392 . S
C672 H693 0.931 . S
C673 C672 1.392 . S
C673 C674 1.361 . S
C673 C675 1.500 . S
C674 C669 1.390 . S
C674 C673 1.361 . S
C674 H692 0.931 . S
C675 C673 1.500 . S
C675 C676 1.371 . S
C675 C677 1.365 . S
C676 C675 1.371 . S
C676 C686 1.386 . S
C676 H694 0.931 . S
C677 C675 1.365 . S
C677 C678 1.409 . S
C677 H695 0.929 . S
C678 C677 1.409 . S
C678 C679 1.380 . S
C678 H696 0.930 . S
C679 C678 1.380 . S
C679 C686 1.357 . S
C680 C671 1.511 . S
C680 C681 1.341 . S
C680 C682 1.371 . S
C681 C680 1.341 . S
C681 C685 1.394 . S
C681 H697 0.930 . S
C682 C680 1.371 . S
C682 C683 1.392 . S
C682 H698 0.931 . S
C683 C682 1.392 . S
C683 C684 1.331 . S
C683 H701 0.932 . S
C684 C683 1.331 . S
C684 C685 1.336 . S
C685 C681 1.394 . S
C685 C684 1.336 . S
C685 H700 0.929 . S
C686 C676 1.386 . S
C686 C679 1.357 . S
C686 H699 0.928 . S
H687 C663 0.931 . S
H688 C665 0.930 . S
H689 C667 0.929 . S
H690 C668 0.931 . S
H691 C670 0.930 . S
H692 C674 0.931 . S
H693 C672 0.931 . S
H694 C676 0.931 . S
H695 C677 0.929 . S
H696 C678 0.930 . S
H697 C681 0.930 . S
H698 C682 0.931 . S
H699 C686 0.928 . S
H700 C685 0.929 . S
H701 C683 0.932 . S
Tb702 O705 2.453 . S
Tb702 O706 2.596 1_545 S
Tb702 O707 2.374 1_545 S
Tb702 O715 2.343 1_554 S
Tb702 O717 2.353 . S
Tb702 O719 2.427 1_554 S
Tb702 O720 2.513 1_554 S
C703 O707 1.251 . S
C703 O709 1.242 1_554 S
Tb704 O706 2.343 1_556 S
Tb704 O709 2.362 . S
Tb704 O712 2.427 1_556 S
Tb704 O713 2.513 1_556 S
Tb704 O714 2.453 . S
Tb704 O715 2.596 1_565 S
Tb704 O716 2.374 1_565 S
O705 Tb702 2.453 . S
O705 C721 1.245 . S
O706 Tb702 2.596 1_565 S
O706 Tb704 2.343 1_554 S
O706 C721 1.259 1_565 S
O707 Tb702 2.374 1_565 S
O707 C703 1.251 . S
C708 O712 1.275 . S
C708 O713 1.246 . S
O709 C703 1.242 1_556 S
O709 Tb704 2.362 . S
C710 O714 1.242 . S
C710 O715 1.260 1_565 S
C711 O716 1.250 . S
C711 O717 1.263 1_556 S
O712 Tb704 2.427 1_554 S
O712 C708 1.275 . S
O713 Tb704 2.513 1_554 S
O713 C708 1.246 . S
O714 Tb704 2.453 . S
O714 C710 1.242 . S
O715 Tb702 2.343 1_556 S
O715 Tb704 2.596 1_545 S
O715 C710 1.260 1_545 S
O716 Tb704 2.374 1_545 S
O716 C711 1.250 . S
O717 Tb702 2.353 . S
O717 C711 1.263 1_554 S
C718 O719 1.275 . S
C718 O720 1.246 . S
O719 Tb702 2.427 1_556 S
O719 C718 1.275 . S
O720 Tb702 2.513 1_556 S
O720 C718 1.246 . S
C721 O705 1.245 . S
C721 O706 1.259 1_545 S
Tb722 O725 2.453 . S
Tb722 O726 2.596 1_655 S
Tb722 O727 2.374 1_655 S
Tb722 O735 2.343 1_554 S
Tb722 O737 2.359 . S
Tb722 O739 2.427 1_554 S
Tb722 O740 2.513 1_554 S
C723 O727 1.251 . S
C723 O729 1.263 . S
Tb724 O726 2.343 1_556 S
Tb724 O729 2.353 1_556 S
Tb724 O732 2.427 1_556 S
Tb724 O733 2.513 1_556 S
Tb724 O734 2.453 . S
Tb724 O735 2.596 1_455 S
Tb724 O736 2.374 1_455 S
O725 Tb722 2.453 . S
O725 C741 1.245 1_655 S
O726 Tb722 2.596 1_455 S
O726 Tb724 2.343 1_554 S
O726 C741 1.259 . S
O727 Tb722 2.374 1_455 S
O727 C723 1.251 . S
C728 O732 1.275 . S
C728 O733 1.246 . S
O729 C723 1.263 . S
O729 Tb724 2.353 1_554 S
C730 O734 1.285 . S
C730 O735 1.244 1_455 S
C731 O736 1.250 . S
C731 O737 1.246 1_556 S
O732 Tb724 2.427 1_554 S
O732 C728 1.275 . S
O733 Tb724 2.513 1_554 S
O733 C728 1.246 . S
O734 Tb724 2.453 . S
O734 C730 1.285 . S
O735 Tb722 2.343 1_556 S
O735 Tb724 2.596 1_655 S
O735 C730 1.244 1_655 S
O736 Tb724 2.374 1_655 S
O736 C731 1.250 . S
O737 Tb722 2.359 . S
O737 C731 1.246 1_554 S
C738 O739 1.275 . S
C738 O740 1.246 . S
O739 Tb722 2.427 1_556 S
O739 C738 1.275 . S
O740 Tb722 2.513 1_556 S
O740 C738 1.246 . S
C741 O725 1.245 1_455 S
C741 O726 1.259 . S
Tb742 O745 2.453 . S
Tb742 O746 2.596 . S
Tb742 O747 2.374 . S
Tb742 O755 2.343 1_556 S
Tb742 O757 2.353 1_556 S
Tb742 O759 2.427 1_556 S
Tb742 O760 2.513 1_556 S
C743 O747 1.251 . S
C743 O749 1.263 1_556 S
Tb744 O746 2.343 1_554 S
Tb744 O749 2.353 . S
Tb744 O752 2.427 1_554 S
Tb744 O753 2.513 1_554 S
Tb744 O754 2.453 . S
Tb744 O755 2.596 . S
Tb744 O756 2.374 . S
O745 Tb742 2.453 . S
O745 C761 1.245 . S
O746 Tb742 2.596 . S
O746 Tb744 2.343 1_556 S
O746 C761 1.259 . S
O747 Tb742 2.374 . S
O747 C743 1.251 . S
C748 O752 1.275 . S
C748 O753 1.246 . S
O749 C743 1.263 1_554 S
O749 Tb744 2.353 . S
C750 O754 1.245 . S
C750 O755 1.259 . S
C751 O756 1.250 . S
C751 O757 1.263 . S
O752 Tb744 2.427 1_556 S
O752 C748 1.275 . S
O753 Tb744 2.513 1_556 S
O753 C748 1.246 . S
O754 Tb744 2.453 . S
O754 C750 1.245 . S
O755 Tb742 2.343 1_554 S
O755 Tb744 2.596 . S
O755 C750 1.259 . S
O756 Tb744 2.374 . S
O756 C751 1.250 . S
O757 Tb742 2.353 1_554 S
O757 C751 1.263 . S
C758 O759 1.275 . S
C758 O760 1.246 . S
O759 Tb742 2.427 1_554 S
O759 C758 1.275 . S
O760 Tb742 2.513 1_554 S
O760 C758 1.246 . S
C761 O745 1.245 . S
C761 O746 1.259 . S
Tb762 O765 2.453 . S
Tb762 O766 2.596 . S
Tb762 O767 2.374 . S
Tb762 O775 2.343 . S
Tb762 O777 2.353 . S
Tb762 O779 2.427 . S
Tb762 O780 2.513 . S
C763 O767 1.251 . S
C763 O769 1.263 . S
Tb764 O766 2.343 . S
Tb764 O769 2.353 . S
Tb764 O772 2.427 . S
Tb764 O773 2.513 . S
Tb764 O774 2.453 . S
Tb764 O775 2.596 . S
Tb764 O776 2.374 . S
O765 Tb762 2.453 . S
O765 C781 1.245 . S
O766 Tb762 2.596 . S
O766 Tb764 2.343 . S
O766 C781 1.259 . S
O767 Tb762 2.374 . S
O767 C763 1.251 . S
C768 O772 1.275 . S
C768 O773 1.246 . S
O769 C763 1.263 . S
O769 Tb764 2.353 . S
C770 O774 1.245 . S
C770 O775 1.259 . S
C771 O776 1.250 . S
C771 O777 1.263 . S
O772 Tb764 2.427 . S
O772 C768 1.275 . S
O773 Tb764 2.513 . S
O773 C768 1.246 . S
O774 Tb764 2.453 . S
O774 C770 1.245 . S
O775 Tb762 2.343 . S
O775 Tb764 2.596 . S
O775 C770 1.259 . S
O776 Tb764 2.374 . S
O776 C771 1.250 . S
O777 Tb762 2.353 . S
O777 C771 1.263 . S
C778 O779 1.275 . S
C778 O780 1.246 . S
O779 Tb762 2.427 . S
O779 C778 1.275 . S
O780 Tb762 2.513 . S
O780 C778 1.246 . S
C781 O765 1.245 . S
C781 O766 1.259 . S
Tb782 O785 2.453 . S
Tb782 O786 2.596 . S
Tb782 O787 2.374 . S
Tb782 O795 2.343 . S
Tb782 O797 2.353 . S
Tb782 O799 2.427 . S
Tb782 O800 2.513 . S
C783 O787 1.251 . S
C783 O789 1.263 . S
Tb784 O786 2.343 . S
Tb784 O789 2.353 . S
Tb784 O792 2.427 . S
Tb784 O793 2.513 . S
Tb784 O794 2.453 . S
Tb784 O795 2.596 . S
Tb784 O796 2.374 . S
O785 Tb782 2.453 . S
O785 C801 1.245 . S
O786 Tb782 2.596 . S
O786 Tb784 2.343 . S
O786 C801 1.259 . S
O787 Tb782 2.374 . S
O787 C783 1.251 . S
C788 O792 1.275 . S
C788 O793 1.246 . S
O789 C783 1.263 . S
O789 Tb784 2.353 . S
C790 O794 1.245 . S
C790 O795 1.259 . S
C791 O796 1.250 . S
C791 O797 1.263 . S
O792 Tb784 2.427 . S
O792 C788 1.275 . S
O793 Tb784 2.513 . S
O793 C788 1.246 . S
O794 Tb784 2.453 . S
O794 C790 1.245 . S
O795 Tb782 2.343 . S
O795 Tb784 2.596 . S
O795 C790 1.259 . S
O796 Tb784 2.374 . S
O796 C791 1.250 . S
O797 Tb782 2.353 . S
O797 C791 1.263 . S
C798 O799 1.275 . S
C798 O800 1.246 . S
O799 Tb782 2.427 . S
O799 C798 1.275 . S
O800 Tb782 2.513 . S
O800 C798 1.246 . S
C801 O785 1.245 . S
C801 O786 1.259 . S
Tb802 O805 2.453 . S
Tb802 O806 2.596 . S
Tb802 O807 2.374 . S
Tb802 O815 2.343 . S
Tb802 O817 2.353 . S
Tb802 O819 2.427 . S
Tb802 O820 2.513 . S
C803 O807 1.251 . S
C803 O809 1.263 . S
Tb804 O806 2.343 . S
Tb804 O809 2.353 . S
Tb804 O812 2.427 . S
Tb804 O813 2.513 . S
Tb804 O814 2.453 . S
Tb804 O815 2.596 . S
Tb804 O816 2.374 . S
O805 Tb802 2.453 . S
O805 C821 1.245 . S
O806 Tb802 2.596 . S
O806 Tb804 2.343 . S
O806 C821 1.259 . S
O807 Tb802 2.374 . S
O807 C803 1.251 . S
C808 O812 1.275 . S
C808 O813 1.246 . S
O809 C803 1.263 . S
O809 Tb804 2.353 . S
C810 O814 1.245 . S
C810 O815 1.259 . S
C811 O816 1.250 . S
C811 O817 1.263 . S
O812 Tb804 2.427 . S
O812 C808 1.275 . S
O813 Tb804 2.513 . S
O813 C808 1.246 . S
O814 Tb804 2.453 . S
O814 C810 1.245 . S
O815 Tb802 2.343 . S
O815 Tb804 2.596 . S
O815 C810 1.259 . S
O816 Tb804 2.374 . S
O816 C811 1.250 . S
O817 Tb802 2.353 . S
O817 C811 1.263 . S
C818 O819 1.275 . S
C818 O820 1.246 . S
O819 Tb802 2.427 . S
O819 C818 1.275 . S
O820 Tb802 2.513 . S
O820 C818 1.246 . S
C821 O805 1.245 . S
C821 O806 1.259 . S
Tb822 O825 2.453 . S
Tb822 O826 2.596 . S
Tb822 O827 2.374 . S
Tb822 O835 2.343 . S
Tb822 O837 2.353 . S
Tb822 O839 2.427 . S
Tb822 O840 2.513 . S
C823 O827 1.251 . S
C823 O829 1.263 . S
Tb824 O826 2.343 . S
Tb824 O829 2.353 . S
Tb824 O832 2.427 . S
Tb824 O833 2.513 . S
Tb824 O834 2.453 . S
Tb824 O835 2.596 . S
Tb824 O836 2.374 . S
O825 Tb822 2.453 . S
O825 C841 1.245 . S
O826 Tb822 2.596 . S
O826 Tb824 2.343 . S
O826 C841 1.259 . S
O827 Tb822 2.374 . S
O827 C823 1.251 . S
C828 O832 1.275 . S
C828 O833 1.246 . S
O829 C823 1.263 . S
O829 Tb824 2.353 . S
C830 O834 1.245 . S
C830 O835 1.259 . S
C831 O836 1.250 . S
C831 O837 1.263 . S
O832 Tb824 2.427 . S
O832 C828 1.275 . S
O833 Tb824 2.513 . S
O833 C828 1.246 . S
O834 Tb824 2.453 . S
O834 C830 1.245 . S
O835 Tb822 2.343 . S
O835 Tb824 2.596 . S
O835 C830 1.259 . S
O836 Tb824 2.374 . S
O836 C831 1.250 . S
O837 Tb822 2.353 . S
O837 C831 1.263 . S
C838 O839 1.275 . S
C838 O840 1.246 . S
O839 Tb822 2.427 . S
O839 C838 1.275 . S
O840 Tb822 2.513 . S
O840 C838 1.246 . S
C841 O825 1.245 . S
C841 O826 1.259 . S
Tb842 O845 2.453 . S
Tb842 O846 2.596 . S
Tb842 O847 2.374 . S
Tb842 O855 2.343 . S
Tb842 O857 2.353 . S
Tb842 O859 2.427 . S
Tb842 O860 2.513 . S
C843 O847 1.251 . S
C843 O849 1.263 . S
Tb844 O846 2.343 . S
Tb844 O849 2.353 . S
Tb844 O852 2.427 . S
Tb844 O853 2.513 . S
Tb844 O854 2.453 . S
Tb844 O855 2.596 . S
Tb844 O856 2.374 . S
O845 Tb842 2.453 . S
O845 C861 1.245 . S
O846 Tb842 2.596 . S
O846 Tb844 2.343 . S
O846 C861 1.259 . S
O847 Tb842 2.374 . S
O847 C843 1.251 . S
C848 O852 1.275 . S
C848 O853 1.246 . S
O849 C843 1.263 . S
O849 Tb844 2.353 . S
C850 O854 1.245 . S
C850 O855 1.259 . S
C851 O856 1.250 . S
C851 O857 1.263 . S
O852 Tb844 2.427 . S
O852 C848 1.275 . S
O853 Tb844 2.513 . S
O853 C848 1.246 . S
O854 Tb844 2.453 . S
O854 C850 1.245 . S
O855 Tb842 2.343 . S
O855 Tb844 2.596 . S
O855 C850 1.259 . S
O856 Tb844 2.374 . S
O856 C851 1.250 . S
O857 Tb842 2.353 . S
O857 C851 1.263 . S
C858 O859 1.275 . S
C858 O860 1.246 . S
O859 Tb842 2.427 . S
O859 C858 1.275 . S
O860 Tb842 2.513 . S
O860 C858 1.246 . S
C861 O845 1.245 . S
C861 O846 1.259 . S
Tb862 O865 2.453 . S
Tb862 O866 2.596 . S
Tb862 O867 2.374 . S
Tb862 O875 2.343 . S
Tb862 O877 2.353 . S
Tb862 O879 2.427 . S
Tb862 O880 2.513 . S
C863 O867 1.251 . S
C863 O869 1.263 . S
Tb864 O866 2.343 . S
Tb864 O869 2.353 . S
Tb864 O872 2.427 . S
Tb864 O873 2.513 . S
Tb864 O874 2.453 . S
Tb864 O875 2.596 . S
Tb864 O876 2.374 . S
O865 Tb862 2.453 . S
O865 C881 1.245 . S
O866 Tb862 2.596 . S
O866 Tb864 2.343 . S
O866 C881 1.259 . S
O867 Tb862 2.374 . S
O867 C863 1.251 . S
C868 O872 1.275 . S
C868 O873 1.246 . S
O869 C863 1.263 . S
O869 Tb864 2.353 . S
C870 O874 1.245 . S
C870 O875 1.259 . S
C871 O876 1.250 . S
C871 O877 1.263 . S
O872 Tb864 2.427 . S
O872 C868 1.275 . S
O873 Tb864 2.513 . S
O873 C868 1.246 . S
O874 Tb864 2.453 . S
O874 C870 1.245 . S
O875 Tb862 2.343 . S
O875 Tb864 2.596 . S
O875 C870 1.259 . S
O876 Tb864 2.374 . S
O876 C871 1.250 . S
O877 Tb862 2.353 . S
O877 C871 1.263 . S
C878 O879 1.275 . S
C878 O880 1.246 . S
O879 Tb862 2.427 . S
O879 C878 1.275 . S
O880 Tb862 2.513 . S
O880 C878 1.246 . S
C881 O865 1.245 . S
C881 O866 1.259 . S
H882 C890 0.929 . S
H883 C892 0.930 . S
H884 C894 0.930 . S
H885 C897 0.929 . S
H886 C900 0.930 . S
H887 C902 0.960 . S
H888 C902 0.960 . S
H889 C902 0.960 . S
C890 H882 0.929 . S
C890 C891 1.377 . S
C890 C892 1.384 . S
C891 C890 1.377 . S
C891 C897 1.390 . S
C892 H883 0.930 . S
C892 C890 1.384 . S
C892 C893 1.372 . S
C893 C892 1.372 . S
C893 C894 1.400 . S
C893 C898 1.490 . S
C894 H884 0.930 . S
C894 C893 1.400 . S
C894 C897 1.386 . S
H895 C911 0.930 . S
H896 C912 0.931 . S
C897 H885 0.929 . S
C897 C891 1.390 . S
C897 C894 1.386 . S
C898 C893 1.490 . S
C898 C900 1.395 . S
C898 C901 1.403 . S
H899 C905 0.930 . S
C900 H886 0.930 . S
C900 C898 1.395 . S
C900 C903 1.403 . S
C901 C898 1.403 . S
C901 C902 1.524 . S
C901 C905 1.400 . S
C902 H887 0.960 . S
C902 H888 0.960 . S
C902 H889 0.960 . S
C902 C901 1.524 . S
C903 C900 1.403 . S
C903 C904 1.392 . S
C903 C907 1.495 . S
C904 C903 1.392 . S
C904 C905 1.385 . S
C904 C906 1.478 . S
C905 H899 0.930 . S
C905 C901 1.400 . S
C905 C904 1.385 . S
C906 C904 1.478 . S
C906 C908 1.381 . S
C906 C912 1.383 . S
C907 C903 1.495 . S
C907 H913 0.959 . S
C907 H914 0.961 . S
C907 H915 0.960 . S
C908 C906 1.381 . S
C908 C909 1.394 . S
C908 H916 0.930 . S
C909 C908 1.394 . S
C909 C910 1.383 . S
C909 H917 0.929 . S
C910 C909 1.383 . S
C910 C911 1.377 . S
C911 H895 0.930 . S
C911 C910 1.377 . S
C911 C912 1.379 . S
C912 H896 0.931 . S
C912 C906 1.383 . S
C912 C911 1.379 . S
H913 C907 0.959 . S
H914 C907 0.961 . S
H915 C907 0.960 . S
H916 C908 0.930 . S
H917 C909 0.929 . S
H918 C926 0.929 . S
H919 C928 0.930 . S
H920 C930 0.930 . S
H921 C933 0.929 . S
H922 C936 0.930 . S
H923 C938 0.960 . S
H924 C938 0.960 . S
H925 C938 0.960 . S
C926 H918 0.929 . S
C926 C927 1.377 . S
C926 C928 1.384 . S
C927 C926 1.377 . S
C927 C933 1.390 . S
C928 H919 0.930 . S
C928 C926 1.384 . S
C928 C929 1.372 . S
C929 C928 1.372 . S
C929 C930 1.400 . S
C929 C934 1.490 . S
C930 H920 0.930 . S
C930 C929 1.400 . S
C930 C933 1.386 . S
H931 C947 0.930 . S
H932 C948 0.931 . S
C933 H921 0.929 . S
C933 C927 1.390 . S
C933 C930 1.386 . S
C934 C929 1.490 . S
C934 C936 1.395 . S
C934 C937 1.403 . S
H935 C941 0.930 . S
C936 H922 0.930 . S
C936 C934 1.395 . S
C936 C939 1.403 . S
C937 C934 1.403 . S
C937 C938 1.524 . S
C937 C941 1.400 . S
C938 H923 0.960 . S
C938 H924 0.960 . S
C938 H925 0.960 . S
C938 C937 1.524 . S
C939 C936 1.403 . S
C939 C940 1.392 . S
C939 C943 1.495 . S
C940 C939 1.392 . S
C940 C941 1.385 . S
C940 C942 1.478 . S
C941 H935 0.930 . S
C941 C937 1.400 . S
C941 C940 1.385 . S
C942 C940 1.478 . S
C942 C944 1.381 . S
C942 C948 1.383 . S
C943 C939 1.495 . S
C943 H949 0.959 . S
C943 H950 0.961 . S
C943 H951 0.960 . S
C944 C942 1.381 . S
C944 C945 1.394 . S
C944 H952 0.930 . S
C945 C944 1.394 . S
C945 C946 1.383 . S
C945 H953 0.929 . S
C946 C945 1.383 . S
C946 C947 1.377 . S
C947 H931 0.930 . S
C947 C946 1.377 . S
C947 C948 1.379 . S
C948 H932 0.931 . S
C948 C942 1.383 . S
C948 C947 1.379 . S
H949 C943 0.959 . S
H950 C943 0.961 . S
H951 C943 0.960 . S
H952 C944 0.930 . S
H953 C945 0.929 . S
H954 C962 0.929 . S
H955 C964 0.930 . S
H956 C966 0.930 . S
H957 C969 0.929 . S
H958 C972 0.930 . S
H959 C974 0.960 . S
H960 C974 0.960 . S
H961 C974 0.960 . S
C962 H954 0.929 . S
C962 C963 1.377 . S
C962 C964 1.384 . S
C963 C962 1.377 . S
C963 C969 1.390 . S
C964 H955 0.930 . S
C964 C962 1.384 . S
C964 C965 1.372 . S
C965 C964 1.372 . S
C965 C966 1.400 . S
C965 C970 1.490 . S
C966 H956 0.930 . S
C966 C965 1.400 . S
C966 C969 1.386 . S
H967 C983 0.930 . S
H968 C984 0.931 . S
C969 H957 0.929 . S
C969 C963 1.390 . S
C969 C966 1.386 . S
C970 C965 1.490 . S
C970 C972 1.395 . S
C970 C973 1.403 . S
H971 C977 0.930 . S
C972 H958 0.930 . S
C972 C970 1.395 . S
C972 C975 1.403 . S
C973 C970 1.403 . S
C973 C974 1.524 . S
C973 C977 1.400 . S
C974 H959 0.960 . S
C974 H960 0.960 . S
C974 H961 0.960 . S
C974 C973 1.524 . S
C975 C972 1.403 . S
C975 C976 1.392 . S
C975 C979 1.495 . S
C976 C975 1.392 . S
C976 C977 1.385 . S
C976 C978 1.478 . S
C977 H971 0.930 . S
C977 C973 1.400 . S
C977 C976 1.385 . S
C978 C976 1.478 . S
C978 C980 1.381 . S
C978 C984 1.383 . S
C979 C975 1.495 . S
C979 H985 0.959 . S
C979 H986 0.961 . S
C979 H987 0.960 . S
C980 C978 1.381 . S
C980 C981 1.394 . S
C980 H988 0.930 . S
C981 C980 1.394 . S
C981 C982 1.383 . S
C981 H989 0.929 . S
C982 C981 1.383 . S
C982 C983 1.377 . S
C983 H967 0.930 . S
C983 C982 1.377 . S
C983 C984 1.379 . S
C984 H968 0.931 . S
C984 C978 1.383 . S
C984 C983 1.379 . S
H985 C979 0.959 . S
H986 C979 0.961 . S
H987 C979 0.960 . S
H988 C980 0.930 . S
H989 C981 0.929 . S
H990 C998 0.929 . S
H991 C1000 0.930 . S
H992 C1002 0.930 . S
H993 C1005 0.929 . S
H994 C1008 0.930 . S
H995 C1010 0.960 . S
H996 C1010 0.960 . S
H997 C1010 0.960 . S
C998 H990 0.929 . S
C998 C999 1.377 . S
C998 C1000 1.384 . S
C999 C998 1.377 . S
C999 C1005 1.390 . S
C1000 H991 0.930 . S
C1000 C998 1.384 . S
C1000 C1001 1.372 . S
C1001 C1000 1.372 . S
C1001 C1002 1.400 . S
C1001 C1006 1.490 . S
C1002 H992 0.930 . S
C1002 C1001 1.400 . S
C1002 C1005 1.386 . S
H1003 C1019 0.930 1_554 S
H1004 C1020 0.931 . S
C1005 H993 0.929 . S
C1005 C999 1.390 . S
C1005 C1002 1.386 . S
C1006 C1001 1.490 . S
C1006 C1008 1.395 . S
C1006 C1009 1.403 . S
H1007 C1013 0.930 . S
C1008 H994 0.930 . S
C1008 C1006 1.395 . S
C1008 C1011 1.403 . S
C1009 C1006 1.403 . S
C1009 C1010 1.524 . S
C1009 C1013 1.400 . S
C1010 H995 0.960 . S
C1010 H996 0.960 . S
C1010 H997 0.960 . S
C1010 C1009 1.524 . S
C1011 C1008 1.403 . S
C1011 C1012 1.392 . S
C1011 C1015 1.495 . S
C1012 C1011 1.392 . S
C1012 C1013 1.385 . S
C1012 C1014 1.478 . S
C1013 H1007 0.930 . S
C1013 C1009 1.400 . S
C1013 C1012 1.385 . S
C1014 C1012 1.478 . S
C1014 C1016 1.381 . S
C1014 C1020 1.383 . S
C1015 C1011 1.495 . S
C1015 H1021 0.959 . S
C1015 H1022 0.961 . S
C1015 H1023 0.960 . S
C1016 C1014 1.381 . S
C1016 C1017 1.394 . S
C1016 H1024 0.930 . S
C1017 C1016 1.394 . S
C1017 C1018 1.383 . S
C1017 H1025 0.929 . S
C1018 C1017 1.383 . S
C1018 C1019 1.377 . S
C1019 H1003 0.930 1_556 S
C1019 C1018 1.377 . S
C1019 C1020 1.379 . S
C1020 H1004 0.931 . S
C1020 C1014 1.383 . S
C1020 C1019 1.379 . S
H1021 C1015 0.959 . S
H1022 C1015 0.961 . S
H1023 C1015 0.960 . S
H1024 C1016 0.930 . S
H1025 C1017 0.929 . S
H1026 C1034 0.929 . S
H1027 C1036 0.930 . S
H1028 C1038 0.930 . S
H1029 C1041 0.929 . S
H1030 C1044 0.930 . S
H1031 C1046 0.960 . S
H1032 C1046 0.960 . S
H1033 C1046 0.960 . S
C1034 H1026 0.929 . S
C1034 C1035 1.377 . S
C1034 C1036 1.384 . S
C1035 C1034 1.377 . S
C1035 C1041 1.390 . S
C1036 H1027 0.930 . S
C1036 C1034 1.384 . S
C1036 C1037 1.372 . S
C1037 C1036 1.372 . S
C1037 C1038 1.400 . S
C1037 C1042 1.490 . S
C1038 H1028 0.930 . S
C1038 C1037 1.400 . S
C1038 C1041 1.386 . S
H1039 C1055 0.930 . S
H1040 C1056 0.931 . S
C1041 H1029 0.929 . S
C1041 C1035 1.390 . S
C1041 C1038 1.386 . S
C1042 C1037 1.490 . S
C1042 C1044 1.395 . S
C1042 C1045 1.403 . S
H1043 C1049 0.930 . S
C1044 H1030 0.930 . S
C1044 C1042 1.395 . S
C1044 C1047 1.403 . S
C1045 C1042 1.403 . S
C1045 C1046 1.524 . S
C1045 C1049 1.400 . S
C1046 H1031 0.960 . S
C1046 H1032 0.960 . S
C1046 H1033 0.960 . S
C1046 C1045 1.524 . S
C1047 C1044 1.403 . S
C1047 C1048 1.392 . S
C1047 C1051 1.495 . S
C1048 C1047 1.392 . S
C1048 C1049 1.385 . S
C1048 C1050 1.478 . S
C1049 H1043 0.930 . S
C1049 C1045 1.400 . S
C1049 C1048 1.385 . S
C1050 C1048 1.478 . S
C1050 C1052 1.381 . S
C1050 C1056 1.383 . S
C1051 C1047 1.495 . S
C1051 H1057 0.959 . S
C1051 H1058 0.961 . S
C1051 H1059 0.960 . S
C1052 C1050 1.381 . S
C1052 C1053 1.394 . S
C1052 H1060 0.930 . S
C1053 C1052 1.394 . S
C1053 C1054 1.383 . S
C1053 H1061 0.929 . S
C1054 C1053 1.383 . S
C1054 C1055 1.377 . S
C1055 H1039 0.930 . S
C1055 C1054 1.377 . S
C1055 C1056 1.379 . S
C1056 H1040 0.931 . S
C1056 C1050 1.383 . S
C1056 C1055 1.379 . S
H1057 C1051 0.959 . S
H1058 C1051 0.961 . S
H1059 C1051 0.960 . S
H1060 C1052 0.930 . S
H1061 C1053 0.929 . S
H1062 C1070 0.929 . S
H1063 C1072 0.930 . S
H1064 C1074 0.930 . S
H1065 C1077 0.929 . S
H1066 C1080 0.930 . S
H1067 C1082 0.960 . S
H1068 C1082 0.960 . S
H1069 C1082 0.960 . S
C1070 H1062 0.929 . S
C1070 C1071 1.377 . S
C1070 C1072 1.384 . S
C1071 C1070 1.377 . S
C1071 C1077 1.390 . S
C1072 H1063 0.930 . S
C1072 C1070 1.384 . S
C1072 C1073 1.372 . S
C1073 C1072 1.372 . S
C1073 C1074 1.400 . S
C1073 C1078 1.490 . S
C1074 H1064 0.930 . S
C1074 C1073 1.400 . S
C1074 C1077 1.386 . S
H1075 C1091 0.930 . S
H1076 C1092 0.931 . S
C1077 H1065 0.929 . S
C1077 C1071 1.390 . S
C1077 C1074 1.386 . S
C1078 C1073 1.490 . S
C1078 C1080 1.395 . S
C1078 C1081 1.403 . S
H1079 C1085 0.930 . S
C1080 H1066 0.930 . S
C1080 C1078 1.395 . S
C1080 C1083 1.403 . S
C1081 C1078 1.403 . S
C1081 C1082 1.524 . S
C1081 C1085 1.400 . S
C1082 H1067 0.960 . S
C1082 H1068 0.960 . S
C1082 H1069 0.960 . S
C1082 C1081 1.524 . S
C1083 C1080 1.403 . S
C1083 C1084 1.392 . S
C1083 C1087 1.495 1_556 S
C1084 C1083 1.392 . S
C1084 C1085 1.385 . S
C1084 C1086 1.478 . S
C1085 H1079 0.930 . S
C1085 C1081 1.400 . S
C1085 C1084 1.385 . S
C1086 C1084 1.478 . S
C1086 C1088 1.381 . S
C1086 C1092 1.383 . S
C1087 C1083 1.495 1_554 S
C1087 H1093 0.959 . S
C1087 H1094 0.961 . S
C1087 H1095 0.960 . S
C1088 C1086 1.381 . S
C1088 C1089 1.394 . S
C1088 H1096 0.930 . S
C1089 C1088 1.394 . S
C1089 C1090 1.383 . S
C1089 H1097 0.929 1_556 S
C1090 C1089 1.383 . S
C1090 C1091 1.377 . S
C1091 H1075 0.930 . S
C1091 C1090 1.377 . S
C1091 C1092 1.379 . S
C1092 H1076 0.931 . S
C1092 C1086 1.383 . S
C1092 C1091 1.379 . S
H1093 C1087 0.959 . S
H1094 C1087 0.961 . S
H1095 C1087 0.960 . S
H1096 C1088 0.930 . S
H1097 C1089 0.929 1_554 S
H1098 C1106 0.929 . S
H1099 C1108 0.930 . S
H1100 C1110 0.930 . S
H1101 C1113 0.929 . S
H1102 C1116 0.930 . S
H1103 C1118 0.960 . S
H1104 C1118 0.960 . S
H1105 C1118 0.960 . S
C1106 H1098 0.929 . S
C1106 C1107 1.377 . S
C1106 C1108 1.384 . S
C1107 C1106 1.377 . S
C1107 C1113 1.390 . S
C1108 H1099 0.930 . S
C1108 C1106 1.384 . S
C1108 C1109 1.372 . S
C1109 C1108 1.372 . S
C1109 C1110 1.400 . S
C1109 C1114 1.490 . S
C1110 H1100 0.930 . S
C1110 C1109 1.400 . S
C1110 C1113 1.386 . S
H1111 C1127 0.930 . S
H1112 C1128 0.931 . S
C1113 H1101 0.929 . S
C1113 C1107 1.390 . S
C1113 C1110 1.386 . S
C1114 C1109 1.490 . S
C1114 C1116 1.395 . S
C1114 C1117 1.403 . S
H1115 C1121 0.930 . S
C1116 H1102 0.930 . S
C1116 C1114 1.395 . S
C1116 C1119 1.403 . S
C1117 C1114 1.403 . S
C1117 C1118 1.524 . S
C1117 C1121 1.400 . S
C1118 H1103 0.960 . S
C1118 H1104 0.960 . S
C1118 H1105 0.960 . S
C1118 C1117 1.524 . S
C1119 C1116 1.403 . S
C1119 C1120 1.392 . S
C1119 C1123 1.495 . S
C1120 C1119 1.392 . S
C1120 C1121 1.385 . S
C1120 C1122 1.478 . S
C1121 H1115 0.930 . S
C1121 C1117 1.400 . S
C1121 C1120 1.385 . S
C1122 C1120 1.478 . S
C1122 C1124 1.381 . S
C1122 C1128 1.383 . S
C1123 C1119 1.495 . S
C1123 H1129 0.959 . S
C1123 H1130 0.961 . S
C1123 H1131 0.960 . S
C1124 C1122 1.381 . S
C1124 C1125 1.394 . S
C1124 H1132 0.930 . S
C1125 C1124 1.394 . S
C1125 C1126 1.383 . S
C1125 H1133 0.929 . S
C1126 C1125 1.383 . S
C1126 C1127 1.377 . S
C1127 H1111 0.930 . S
C1127 C1126 1.377 . S
C1127 C1128 1.379 . S
C1128 H1112 0.931 . S
C1128 C1122 1.383 . S
C1128 C1127 1.379 . S
H1129 C1123 0.959 . S
H1130 C1123 0.961 . S
H1131 C1123 0.960 . S
H1132 C1124 0.930 . S
H1133 C1125 0.929 . S
H1134 C1142 0.929 . S
H1135 C1144 0.930 . S
H1136 C1146 0.930 . S
H1137 C1149 0.929 . S
H1138 C1152 0.930 . S
H1139 C1154 0.960 . S
H1140 C1154 0.960 . S
H1141 C1154 0.960 . S
C1142 H1134 0.929 . S
C1142 C1143 1.377 . S
C1142 C1144 1.384 . S
C1143 C1142 1.377 . S
C1143 C1149 1.390 . S
C1144 H1135 0.930 . S
C1144 C1142 1.384 . S
C1144 C1145 1.372 . S
C1145 C1144 1.372 . S
C1145 C1146 1.400 . S
C1145 C1150 1.490 . S
C1146 H1136 0.930 . S
C1146 C1145 1.400 . S
C1146 C1149 1.386 . S
H1147 C1163 0.930 . S
H1148 C1164 0.931 . S
C1149 H1137 0.929 . S
C1149 C1143 1.390 . S
C1149 C1146 1.386 . S
C1150 C1145 1.490 . S
C1150 C1152 1.395 . S
C1150 C1153 1.403 . S
H1151 C1157 0.930 . S
C1152 H1138 0.930 . S
C1152 C1150 1.395 . S
C1152 C1155 1.403 . S
C1153 C1150 1.403 . S
C1153 C1154 1.524 . S
C1153 C1157 1.400 . S
C1154 H1139 0.960 . S
C1154 H1140 0.960 . S
C1154 H1141 0.960 . S
C1154 C1153 1.524 . S
C1155 C1152 1.403 . S
C1155 C1156 1.392 . S
C1155 C1159 1.495 . S
C1156 C1155 1.392 . S
C1156 C1157 1.385 . S
C1156 C1158 1.478 . S
C1157 H1151 0.930 . S
C1157 C1153 1.400 . S
C1157 C1156 1.385 . S
C1158 C1156 1.478 . S
C1158 C1160 1.381 . S
C1158 C1164 1.383 . S
C1159 C1155 1.495 . S
C1159 H1165 0.959 . S
C1159 H1166 0.961 . S
C1159 H1167 0.960 . S
C1160 C1158 1.381 . S
C1160 C1161 1.394 . S
C1160 H1168 0.930 . S
C1161 C1160 1.394 . S
C1161 C1162 1.383 . S
C1161 H1169 0.929 . S
C1162 C1161 1.383 . S
C1162 C1163 1.377 . S
C1163 H1147 0.930 . S
C1163 C1162 1.377 . S
C1163 C1164 1.379 . S
C1164 H1148 0.931 . S
C1164 C1158 1.383 . S
C1164 C1163 1.379 . S
H1165 C1159 0.959 . S
H1166 C1159 0.961 . S
H1167 C1159 0.960 . S
H1168 C1160 0.930 . S
H1169 C1161 0.929 . S
H1170 C1178 0.929 . S
H1171 C1180 0.930 . S
H1172 C1182 0.930 . S
H1173 C1185 0.929 . S
H1174 C1188 0.930 . S
H1175 C1190 0.960 . S
H1176 C1190 0.960 . S
H1177 C1190 0.960 . S
C1178 H1170 0.929 . S
C1178 C1179 1.377 . S
C1178 C1180 1.384 . S
C1179 C1178 1.377 . S
C1179 C1185 1.390 . S
C1180 H1171 0.930 . S
C1180 C1178 1.384 . S
C1180 C1181 1.372 . S
C1181 C1180 1.372 . S
C1181 C1182 1.400 . S
C1181 C1186 1.490 . S
C1182 H1172 0.930 . S
C1182 C1181 1.400 . S
C1182 C1185 1.386 . S
H1183 C1199 0.930 . S
H1184 C1200 0.931 . S
C1185 H1173 0.929 . S
C1185 C1179 1.390 . S
C1185 C1182 1.386 . S
C1186 C1181 1.490 . S
C1186 C1188 1.395 . S
C1186 C1189 1.403 . S
H1187 C1193 0.930 . S
C1188 H1174 0.930 . S
C1188 C1186 1.395 . S
C1188 C1191 1.403 . S
C1189 C1186 1.403 . S
C1189 C1190 1.524 . S
C1189 C1193 1.400 . S
C1190 H1175 0.960 . S
C1190 H1176 0.960 . S
C1190 H1177 0.960 . S
C1190 C1189 1.524 . S
C1191 C1188 1.403 . S
C1191 C1192 1.392 . S
C1191 C1195 1.495 1_556 S
C1192 C1191 1.392 . S
C1192 C1193 1.385 . S
C1192 C1194 1.478 . S
C1193 H1187 0.930 . S
C1193 C1189 1.400 . S
C1193 C1192 1.385 . S
C1194 C1192 1.478 . S
C1194 C1196 1.381 . S
C1194 C1200 1.383 . S
C1195 C1191 1.495 1_554 S
C1195 H1201 0.959 . S
C1195 H1202 0.961 . S
C1195 H1203 0.960 . S
C1196 C1194 1.381 . S
C1196 C1197 1.394 . S
C1196 H1204 0.930 . S
C1197 C1196 1.394 . S
C1197 C1198 1.383 . S
C1197 H1205 0.917 1_556 S
C1198 C1197 1.383 . S
C1198 C1199 1.377 . S
C1199 H1183 0.930 . S
C1199 C1198 1.377 . S
C1199 C1200 1.379 . S
C1200 H1184 0.931 . S
C1200 C1194 1.383 . S
C1200 C1199 1.379 . S
H1201 C1195 0.959 . S
H1202 C1195 0.961 . S
H1203 C1195 0.960 . S
H1204 C1196 0.930 . S
H1205 C1197 0.917 1_554 S
H1206 C1214 0.929 . S
H1207 C1216 0.930 . S
H1208 C1218 0.930 . S
H1209 C1221 0.929 . S
H1210 C1224 0.930 . S
H1211 C1226 0.960 . S
H1212 C1226 0.960 . S
H1213 C1226 0.960 . S
C1214 H1206 0.929 . S
C1214 C1215 1.377 . S
C1214 C1216 1.384 . S
C1215 C1214 1.377 . S
C1215 C1221 1.390 . S
C1216 H1207 0.930 . S
C1216 C1214 1.384 . S
C1216 C1217 1.372 . S
C1217 C1216 1.372 . S
C1217 C1218 1.400 . S
C1217 C1222 1.490 . S
C1218 H1208 0.930 . S
C1218 C1217 1.400 . S
C1218 C1221 1.386 . S
H1219 C1235 0.930 . S
H1220 C1236 0.931 . S
C1221 H1209 0.929 . S
C1221 C1215 1.390 . S
C1221 C1218 1.386 . S
C1222 C1217 1.490 . S
C1222 C1224 1.395 . S
C1222 C1225 1.403 . S
H1223 C1229 0.930 . S
C1224 H1210 0.930 . S
C1224 C1222 1.395 . S
C1224 C1227 1.403 . S
C1225 C1222 1.403 . S
C1225 C1226 1.524 . S
C1225 C1229 1.400 . S
C1226 H1211 0.960 . S
C1226 H1212 0.960 . S
C1226 H1213 0.960 . S
C1226 C1225 1.524 . S
C1227 C1224 1.403 . S
C1227 C1228 1.392 . S
C1227 C1231 1.495 . S
C1228 C1227 1.392 . S
C1228 C1229 1.385 . S
C1228 C1230 1.478 . S
C1229 H1223 0.930 . S
C1229 C1225 1.400 . S
C1229 C1228 1.385 . S
C1230 C1228 1.478 . S
C1230 C1232 1.381 . S
C1230 C1236 1.383 . S
C1231 C1227 1.495 . S
C1231 H1237 0.959 . S
C1231 H1238 0.961 . S
C1231 H1239 0.960 . S
C1232 C1230 1.381 . S
C1232 C1233 1.394 . S
C1232 H1240 0.930 . S
C1233 C1232 1.394 . S
C1233 C1234 1.383 . S
C1233 H1241 0.929 . S
C1234 C1233 1.383 . S
C1234 C1235 1.377 . S
C1235 H1219 0.930 . S
C1235 C1234 1.377 . S
C1235 C1236 1.379 . S
C1236 H1220 0.931 . S
C1236 C1230 1.383 . S
C1236 C1235 1.379 . S
H1237 C1231 0.959 . S
H1238 C1231 0.961 . S
H1239 C1231 0.960 . S
H1240 C1232 0.930 . S
H1241 C1233 0.929 . S
H1242 C1250 0.929 . S
H1243 C1252 0.930 . S
H1244 C1254 0.930 . S
H1245 C1257 0.929 . S
H1246 C1260 0.930 . S
H1247 C1262 0.960 . S
H1248 C1262 0.960 . S
H1249 C1262 0.960 . S
C1250 H1242 0.929 . S
C1250 C1251 1.377 . S
C1250 C1252 1.384 . S
C1251 C1250 1.377 . S
C1251 C1257 1.390 . S
C1252 H1243 0.930 . S
C1252 C1250 1.384 . S
C1252 C1253 1.372 . S
C1253 C1252 1.372 . S
C1253 C1254 1.400 . S
C1253 C1258 1.490 . S
C1254 H1244 0.930 . S
C1254 C1253 1.400 . S
C1254 C1257 1.386 . S
H1255 C1271 0.930 . S
H1256 C1272 0.931 . S
C1257 H1245 0.929 . S
C1257 C1251 1.390 . S
C1257 C1254 1.386 . S
C1258 C1253 1.490 . S
C1258 C1260 1.395 . S
C1258 C1261 1.403 . S
H1259 C1265 0.930 . S
C1260 H1246 0.930 . S
C1260 C1258 1.395 . S
C1260 C1263 1.403 . S
C1261 C1258 1.403 . S
C1261 C1262 1.524 . S
C1261 C1265 1.400 . S
C1262 H1247 0.960 . S
C1262 H1248 0.960 . S
C1262 H1249 0.960 . S
C1262 C1261 1.524 . S
C1263 C1260 1.403 . S
C1263 C1264 1.392 . S
C1263 C1267 1.495 . S
C1264 C1263 1.392 . S
C1264 C1265 1.385 . S
C1264 C1266 1.478 . S
C1265 H1259 0.930 . S
C1265 C1261 1.400 . S
C1265 C1264 1.385 . S
C1266 C1264 1.478 . S
C1266 C1268 1.381 . S
C1266 C1272 1.383 . S
C1267 C1263 1.495 . S
C1267 H1273 0.959 . S
C1267 H1274 0.961 . S
C1267 H1275 0.960 . S
C1268 C1266 1.381 . S
C1268 C1269 1.394 . S
C1268 H1276 0.930 . S
C1269 C1268 1.394 . S
C1269 C1270 1.383 . S
C1269 H1277 0.929 . S
C1270 C1269 1.383 . S
C1270 C1271 1.377 . S
C1271 H1255 0.930 . S
C1271 C1270 1.377 . S
C1271 C1272 1.379 . S
C1272 H1256 0.931 . S
C1272 C1266 1.383 . S
C1272 C1271 1.379 . S
H1273 C1267 0.959 . S
H1274 C1267 0.961 . S
H1275 C1267 0.960 . S
H1276 C1268 0.930 . S
H1277 C1269 0.929 . S
H1278 C1286 0.929 . S
H1279 C1288 0.930 . S
H1280 C1290 0.930 . S
H1281 C1293 0.929 . S
H1282 C1296 0.930 . S
H1283 C1298 0.960 . S
H1284 C1298 0.960 . S
H1285 C1298 0.960 . S
C1286 H1278 0.929 . S
C1286 C1287 1.377 . S
C1286 C1288 1.384 . S
C1287 C1286 1.377 . S
C1287 C1293 1.390 . S
C1288 H1279 0.930 . S
C1288 C1286 1.384 . S
C1288 C1289 1.372 . S
C1289 C1288 1.372 . S
C1289 C1290 1.400 . S
C1289 C1294 1.490 . S
C1290 H1280 0.930 . S
C1290 C1289 1.400 . S
C1290 C1293 1.386 . S
H1291 C1307 0.930 . S
H1292 C1308 0.931 . S
C1293 H1281 0.929 . S
C1293 C1287 1.390 . S
C1293 C1290 1.386 . S
C1294 C1289 1.490 . S
C1294 C1296 1.395 . S
C1294 C1297 1.403 . S
H1295 C1301 0.930 . S
C1296 H1282 0.930 . S
C1296 C1294 1.395 . S
C1296 C1299 1.403 . S
C1297 C1294 1.403 . S
C1297 C1298 1.524 . S
C1297 C1301 1.400 . S
C1298 H1283 0.960 . S
C1298 H1284 0.960 . S
C1298 H1285 0.960 . S
C1298 C1297 1.524 . S
C1299 C1296 1.403 . S
C1299 C1300 1.392 . S
C1299 C1303 1.495 . S
C1300 C1299 1.392 . S
C1300 C1301 1.385 . S
C1300 C1302 1.478 . S
C1301 H1295 0.930 . S
C1301 C1297 1.400 . S
C1301 C1300 1.385 . S
C1302 C1300 1.478 . S
C1302 C1304 1.381 . S
C1302 C1308 1.383 . S
C1303 C1299 1.495 . S
C1303 H1309 0.959 . S
C1303 H1310 0.961 . S
C1303 H1311 0.960 . S
C1304 C1302 1.381 . S
C1304 C1305 1.394 . S
C1304 H1312 0.985 . S
C1305 C1304 1.394 . S
C1305 C1306 1.383 . S
C1305 H1313 0.929 1_554 S
C1306 C1305 1.383 . S
C1306 C1307 1.377 . S
C1307 H1291 0.930 . S
C1307 C1306 1.377 . S
C1307 C1308 1.379 . S
C1308 H1292 0.931 . S
C1308 C1302 1.383 . S
C1308 C1307 1.379 . S
H1309 C1303 0.959 . S
H1310 C1303 0.961 . S
H1311 C1303 0.960 . S
H1312 C1304 0.985 . S
H1313 C1305 0.929 1_556 S
H1314 C1322 0.929 . S
H1315 C1324 0.930 . S
H1316 C1326 0.930 . S
H1317 C1329 0.929 . S
H1318 C1332 0.930 . S
H1319 C1334 0.960 . S
H1320 C1334 0.960 . S
H1321 C1334 0.960 . S
C1322 H1314 0.929 . S
C1322 C1323 1.377 . S
C1322 C1324 1.384 . S
C1323 C1322 1.377 . S
C1323 C1329 1.390 . S
C1324 H1315 0.930 . S
C1324 C1322 1.384 . S
C1324 C1325 1.372 . S
C1325 C1324 1.372 . S
C1325 C1326 1.400 . S
C1325 C1330 1.490 1_655 S
C1326 H1316 0.930 . S
C1326 C1325 1.400 . S
C1326 C1329 1.386 . S
H1327 C1343 0.930 . S
H1328 C1344 0.931 . S
C1329 H1317 0.929 . S
C1329 C1323 1.390 . S
C1329 C1326 1.386 . S
C1330 C1325 1.490 1_455 S
C1330 C1332 1.395 . S
C1330 C1333 1.403 . S
H1331 C1337 0.930 . S
C1332 H1318 0.930 . S
C1332 C1330 1.395 . S
C1332 C1335 1.403 . S
C1333 C1330 1.403 . S
C1333 C1334 1.524 . S
C1333 C1337 1.400 . S
C1334 H1319 0.960 . S
C1334 H1320 0.960 . S
C1334 H1321 0.960 . S
C1334 C1333 1.524 . S
C1335 C1332 1.403 . S
C1335 C1336 1.392 . S
C1335 C1339 1.495 . S
C1336 C1335 1.392 . S
C1336 C1337 1.385 . S
C1336 C1338 1.478 . S
C1337 H1331 0.930 . S
C1337 C1333 1.400 . S
C1337 C1336 1.385 . S
C1338 C1336 1.478 . S
C1338 C1340 1.381 . S
C1338 C1344 1.383 . S
C1339 C1335 1.495 . S
C1339 H1345 0.959 . S
C1339 H1346 0.961 . S
C1339 H1347 0.960 . S
C1340 C1338 1.381 . S
C1340 C1341 1.394 . S
C1340 H1348 0.930 . S
C1341 C1340 1.394 . S
C1341 C1342 1.383 . S
C1341 H1349 0.929 . S
C1342 C1341 1.383 . S
C1342 C1343 1.377 . S
C1343 H1327 0.930 . S
C1343 C1342 1.377 . S
C1343 C1344 1.379 . S
C1344 H1328 0.931 . S
C1344 C1338 1.383 . S
C1344 C1343 1.379 . S
H1345 C1339 0.959 . S
H1346 C1339 0.961 . S
H1347 C1339 0.960 . S
H1348 C1340 0.930 . S
H1349 C1341 0.929 . S
H1350 C1358 0.929 . S
H1351 C1360 0.930 . S
H1352 C1362 0.930 . S
H1353 C1365 0.929 . S
H1354 C1368 0.930 . S
H1355 C1370 0.960 . S
H1356 C1370 0.960 . S
H1357 C1370 0.960 . S
C1358 H1350 0.929 . S
C1358 C1359 1.377 . S
C1358 C1360 1.384 . S
C1359 C1358 1.377 . S
C1359 C1365 1.390 . S
C1360 H1351 0.930 . S
C1360 C1358 1.384 . S
C1360 C1361 1.372 . S
C1361 C1360 1.372 . S
C1361 C1362 1.400 . S
C1361 C1366 1.490 . S
C1362 H1352 0.930 . S
C1362 C1361 1.400 . S
C1362 C1365 1.386 . S
H1363 C1379 0.930 . S
H1364 C1380 0.931 . S
C1365 H1353 0.929 . S
C1365 C1359 1.390 . S
C1365 C1362 1.386 . S
C1366 C1361 1.490 . S
C1366 C1368 1.395 . S
C1366 C1369 1.403 . S
H1367 C1373 0.930 . S
C1368 H1354 0.930 . S
C1368 C1366 1.395 . S
C1368 C1371 1.403 . S
C1369 C1366 1.403 . S
C1369 C1370 1.524 . S
C1369 C1373 1.400 . S
C1370 H1355 0.960 . S
C1370 H1356 0.960 . S
C1370 H1357 0.960 . S
C1370 C1369 1.524 . S
C1371 C1368 1.403 . S
C1371 C1372 1.392 . S
C1371 C1375 1.495 . S
C1372 C1371 1.392 . S
C1372 C1373 1.385 . S
C1372 C1374 1.478 . S
C1373 H1367 0.930 . S
C1373 C1369 1.400 . S
C1373 C1372 1.385 . S
C1374 C1372 1.478 . S
C1374 C1376 1.381 . S
C1374 C1380 1.383 . S
C1375 C1371 1.495 . S
C1375 H1381 0.959 . S
C1375 H1382 0.961 . S
C1375 H1383 0.960 . S
C1376 C1374 1.381 . S
C1376 C1377 1.394 . S
C1376 H1384 0.930 . S
C1377 C1376 1.394 . S
C1377 C1378 1.383 . S
C1377 H1385 0.929 . S
C1378 C1377 1.383 . S
C1378 C1379 1.377 . S
C1379 H1363 0.930 . S
C1379 C1378 1.377 . S
C1379 C1380 1.379 . S
C1380 H1364 0.931 . S
C1380 C1374 1.383 . S
C1380 C1379 1.379 . S
H1381 C1375 0.959 . S
H1382 C1375 0.961 . S
H1383 C1375 0.960 . S
H1384 C1376 0.930 . S
H1385 C1377 0.929 . S
H1386 C1394 0.929 . S
H1387 C1396 0.930 . S
H1388 C1398 0.930 . S
H1389 C1401 0.929 . S
H1390 C1404 0.930 . S
H1391 C1406 0.960 . S
H1392 C1406 0.960 1_545 S
H1393 C1406 0.960 1_545 S
C1394 H1386 0.929 . S
C1394 C1395 1.377 . S
C1394 C1396 1.384 . S
C1395 C1394 1.377 . S
C1395 C1401 1.390 . S
C1396 H1387 0.930 . S
C1396 C1394 1.384 . S
C1396 C1397 1.372 . S
C1397 C1396 1.372 . S
C1397 C1398 1.400 . S
C1397 C1402 1.490 1_545 S
C1398 H1388 0.930 . S
C1398 C1397 1.400 . S
C1398 C1401 1.386 . S
H1399 C1415 0.930 . S
H1400 C1416 0.931 . S
C1401 H1389 0.929 . S
C1401 C1395 1.390 . S
C1401 C1398 1.386 . S
C1402 C1397 1.490 1_565 S
C1402 C1404 1.395 . S
C1402 C1405 1.403 . S
H1403 C1409 0.930 . S
C1404 H1390 0.930 . S
C1404 C1402 1.395 . S
C1404 C1407 1.403 . S
C1405 C1402 1.403 . S
C1405 C1406 1.524 . S
C1405 C1409 1.400 . S
C1406 H1391 0.960 . S
C1406 H1392 0.960 1_565 S
C1406 H1393 0.960 1_565 S
C1406 C1405 1.524 . S
C1407 C1404 1.403 . S
C1407 C1408 1.392 . S
C1407 C1411 1.495 . S
C1408 C1407 1.392 . S
C1408 C1409 1.385 . S
C1408 C1410 1.478 . S
C1409 H1403 0.930 . S
C1409 C1405 1.400 . S
C1409 C1408 1.385 . S
C1410 C1408 1.478 . S
C1410 C1412 1.381 . S
C1410 C1416 1.383 . S
C1411 C1407 1.495 . S
C1411 H1417 0.959 . S
C1411 H1418 0.961 . S
C1411 H1419 0.960 . S
C1412 C1410 1.381 . S
C1412 C1413 1.394 . S
C1412 H1420 0.930 . S
C1413 C1412 1.394 . S
C1413 C1414 1.383 . S
C1413 H1421 0.929 . S
C1414 C1413 1.383 . S
C1414 C1415 1.377 . S
C1415 H1399 0.930 . S
C1415 C1414 1.377 . S
C1415 C1416 1.379 . S
C1416 H1400 0.931 . S
C1416 C1410 1.383 . S
C1416 C1415 1.379 . S
H1417 C1411 0.959 . S
H1418 C1411 0.961 . S
H1419 C1411 0.960 . S
H1420 C1412 0.930 . S
H1421 C1413 0.929 . S
H1422 C1430 0.929 . S
H1423 C1432 0.930 . S
H1424 C1434 0.930 . S
H1425 C1437 0.929 . S
H1426 C1440 0.930 . S
H1427 C1442 0.960 . S
H1428 C1442 0.960 . S
H1429 C1442 0.960 . S
C1430 H1422 0.929 . S
C1430 C1431 1.377 . S
C1430 C1432 1.384 . S
C1431 C1430 1.377 . S
C1431 C1437 1.390 . S
C1432 H1423 0.930 . S
C1432 C1430 1.384 . S
C1432 C1433 1.372 . S
C1433 C1432 1.372 . S
C1433 C1434 1.400 . S
C1433 C1438 1.490 . S
C1434 H1424 0.930 . S
C1434 C1433 1.400 . S
C1434 C1437 1.386 . S
H1435 C1451 0.930 . S
H1436 C1452 0.931 . S
C1437 H1425 0.929 . S
C1437 C1431 1.390 . S
C1437 C1434 1.386 . S
C1438 C1433 1.490 . S
C1438 C1440 1.395 . S
C1438 C1441 1.403 . S
H1439 C1445 0.930 . S
C1440 H1426 0.930 . S
C1440 C1438 1.395 . S
C1440 C1443 1.403 . S
C1441 C1438 1.403 . S
C1441 C1442 1.524 . S
C1441 C1445 1.400 . S
C1442 H1427 0.960 . S
C1442 H1428 0.960 . S
C1442 H1429 0.960 . S
C1442 C1441 1.524 . S
C1443 C1440 1.403 . S
C1443 C1444 1.392 . S
C1443 C1447 1.495 . S
C1444 C1443 1.392 . S
C1444 C1445 1.385 . S
C1444 C1446 1.478 . S
C1445 H1439 0.930 . S
C1445 C1441 1.400 . S
C1445 C1444 1.385 . S
C1446 C1444 1.478 . S
C1446 C1448 1.381 . S
C1446 C1452 1.383 . S
C1447 C1443 1.495 . S
C1447 H1453 0.959 . S
C1447 H1454 0.961 . S
C1447 H1455 0.960 . S
C1448 C1446 1.381 . S
C1448 C1449 1.394 . S
C1448 H1456 0.930 . S
C1449 C1448 1.394 . S
C1449 C1450 1.383 . S
C1449 H1457 0.929 . S
C1450 C1449 1.383 . S
C1450 C1451 1.377 . S
C1451 H1435 0.930 . S
C1451 C1450 1.377 . S
C1451 C1452 1.379 . S
C1452 H1436 0.931 . S
C1452 C1446 1.383 . S
C1452 C1451 1.379 . S
H1453 C1447 0.959 . S
H1454 C1447 0.961 . S
H1455 C1447 0.960 . S
H1456 C1448 0.930 . S
H1457 C1449 0.929 . S
H1458 C1466 0.929 . S
H1459 C1468 0.930 . S
H1460 C1470 0.930 . S
H1461 C1473 0.929 . S
H1462 C1476 0.930 . S
H1463 C1478 0.960 . S
H1464 C1478 0.960 . S
H1465 C1478 0.960 . S
C1466 H1458 0.929 . S
C1466 C1467 1.377 . S
C1466 C1468 1.384 . S
C1467 C1466 1.377 . S
C1467 C1473 1.390 . S
C1468 H1459 0.930 . S
C1468 C1466 1.384 . S
C1468 C1469 1.372 . S
C1469 C1468 1.372 . S
C1469 C1470 1.400 . S
C1469 C1474 1.490 . S
C1470 H1460 0.930 . S
C1470 C1469 1.400 . S
C1470 C1473 1.386 . S
H1471 C1487 0.930 . S
H1472 C1488 0.931 . S
C1473 H1461 0.929 . S
C1473 C1467 1.390 . S
C1473 C1470 1.386 . S
C1474 C1469 1.490 . S
C1474 C1476 1.395 . S
C1474 C1477 1.403 . S
H1475 C1481 0.930 . S
C1476 H1462 0.930 . S
C1476 C1474 1.395 . S
C1476 C1479 1.403 . S
C1477 C1474 1.403 . S
C1477 C1478 1.524 . S
C1477 C1481 1.400 . S
C1478 H1463 0.960 . S
C1478 H1464 0.960 . S
C1478 H1465 0.960 . S
C1478 C1477 1.524 . S
C1479 C1476 1.403 . S
C1479 C1480 1.392 . S
C1479 C1483 1.495 . S
C1480 C1479 1.392 . S
C1480 C1481 1.385 . S
C1480 C1482 1.478 . S
C1481 H1475 0.930 . S
C1481 C1477 1.400 . S
C1481 C1480 1.385 . S
C1482 C1480 1.478 . S
C1482 C1484 1.381 . S
C1482 C1488 1.383 . S
C1483 C1479 1.495 . S
C1483 H1489 0.959 . S
C1483 H1490 0.961 . S
C1483 H1491 0.960 . S
C1484 C1482 1.381 . S
C1484 C1485 1.394 . S
C1484 H1492 0.930 . S
C1485 C1484 1.394 . S
C1485 C1486 1.383 . S
C1485 H1493 0.929 . S
C1486 C1485 1.383 . S
C1486 C1487 1.377 . S
C1487 H1471 0.930 . S
C1487 C1486 1.377 . S
C1487 C1488 1.379 . S
C1488 H1472 0.931 . S
C1488 C1482 1.383 . S
C1488 C1487 1.379 . S
H1489 C1483 0.959 . S
H1490 C1483 0.961 . S
H1491 C1483 0.960 . S
H1492 C1484 0.930 . S
H1493 C1485 0.929 . S
H1494 C1502 0.929 . S
H1495 C1504 0.930 . S
H1496 C1506 0.930 . S
H1497 C1509 0.929 . S
H1498 C1512 0.930 . S
H1499 C1514 0.960 . S
H1500 C1514 0.960 . S
H1501 C1514 0.960 . S
C1502 H1494 0.929 . S
C1502 C1503 1.377 . S
C1502 C1504 1.384 . S
C1503 C1502 1.377 . S
C1503 C1509 1.390 . S
C1504 H1495 0.930 . S
C1504 C1502 1.384 . S
C1504 C1505 1.372 . S
C1505 C1504 1.372 . S
C1505 C1506 1.400 . S
C1505 C1510 1.490 . S
C1506 H1496 0.930 . S
C1506 C1505 1.400 . S
C1506 C1509 1.386 . S
H1507 C1523 0.930 . S
H1508 C1524 0.931 . S
C1509 H1497 0.929 . S
C1509 C1503 1.390 . S
C1509 C1506 1.386 . S
C1510 C1505 1.490 . S
C1510 C1512 1.395 . S
C1510 C1513 1.403 . S
H1511 C1517 0.930 . S
C1512 H1498 0.930 . S
C1512 C1510 1.395 . S
C1512 C1515 1.403 . S
C1513 C1510 1.403 . S
C1513 C1514 1.524 . S
C1513 C1517 1.400 . S
C1514 H1499 0.960 . S
C1514 H1500 0.960 . S
C1514 H1501 0.960 . S
C1514 C1513 1.524 . S
C1515 C1512 1.403 . S
C1515 C1516 1.392 . S
C1515 C1519 1.495 . S
C1516 C1515 1.392 . S
C1516 C1517 1.385 . S
C1516 C1518 1.478 . S
C1517 H1511 0.930 . S
C1517 C1513 1.400 . S
C1517 C1516 1.385 . S
C1518 C1516 1.478 . S
C1518 C1520 1.381 . S
C1518 C1524 1.383 . S
C1519 C1515 1.495 . S
C1519 H1525 0.959 . S
C1519 H1526 0.961 . S
C1519 H1527 0.960 . S
C1520 C1518 1.381 . S
C1520 C1521 1.394 . S
C1520 H1528 0.930 . S
C1521 C1520 1.394 . S
C1521 C1522 1.383 . S
C1521 H1529 0.929 . S
C1522 C1521 1.383 . S
C1522 C1523 1.377 . S
C1523 H1507 0.930 . S
C1523 C1522 1.377 . S
C1523 C1524 1.379 . S
C1524 H1508 0.931 . S
C1524 C1518 1.383 . S
C1524 C1523 1.379 . S
H1525 C1519 0.959 . S
H1526 C1519 0.961 . S
H1527 C1519 0.960 . S
H1528 C1520 0.930 . S
H1529 C1521 0.929 . S
H1530 C1538 0.929 . S
H1531 C1540 0.930 . S
H1532 C1542 0.930 . S
H1533 C1545 0.929 . S
H1534 C1548 0.930 . S
H1535 C1550 0.960 . S
H1536 C1550 0.960 . S
H1537 C1550 0.960 . S
C1538 H1530 0.929 . S
C1538 C1539 1.377 . S
C1538 C1540 1.384 . S
C1539 C1538 1.377 . S
C1539 C1545 1.390 . S
C1540 H1531 0.930 . S
C1540 C1538 1.384 . S
C1540 C1541 1.372 . S
C1541 C1540 1.372 . S
C1541 C1542 1.400 . S
C1541 C1546 1.490 . S
C1542 H1532 0.930 . S
C1542 C1541 1.400 . S
C1542 C1545 1.386 . S
H1543 C1559 0.930 . S
H1544 C1560 0.931 . S
C1545 H1533 0.929 . S
C1545 C1539 1.390 . S
C1545 C1542 1.386 . S
C1546 C1541 1.490 . S
C1546 C1548 1.395 . S
C1546 C1549 1.403 . S
H1547 C1553 0.930 . S
C1548 H1534 0.930 . S
C1548 C1546 1.395 . S
C1548 C1551 1.403 . S
C1549 C1546 1.403 . S
C1549 C1550 1.524 . S
C1549 C1553 1.400 . S
C1550 H1535 0.960 . S
C1550 H1536 0.960 . S
C1550 H1537 0.960 . S
C1550 C1549 1.524 . S
C1551 C1548 1.403 . S
C1551 C1552 1.392 . S
C1551 C1555 1.495 . S
C1552 C1551 1.392 . S
C1552 C1553 1.385 . S
C1552 C1554 1.478 . S
C1553 H1547 0.930 . S
C1553 C1549 1.400 . S
C1553 C1552 1.385 . S
C1554 C1552 1.478 . S
C1554 C1556 1.381 . S
C1554 C1560 1.383 . S
C1555 C1551 1.495 . S
C1555 H1561 0.959 . S
C1555 H1562 0.961 . S
C1555 H1563 0.960 . S
C1556 C1554 1.381 . S
C1556 C1557 1.394 . S
C1556 H1564 0.930 . S
C1557 C1556 1.394 . S
C1557 C1558 1.383 . S
C1557 H1565 0.929 . S
C1558 C1557 1.383 . S
C1558 C1559 1.377 . S
C1559 H1543 0.930 . S
C1559 C1558 1.377 . S
C1559 C1560 1.379 . S
C1560 H1544 0.931 . S
C1560 C1554 1.383 . S
C1560 C1559 1.379 . S
H1561 C1555 0.959 . S
H1562 C1555 0.961 . S
H1563 C1555 0.960 . S
H1564 C1556 0.930 . S
H1565 C1557 0.929 . S
H1566 C1574 0.929 . S
H1567 C1576 0.930 . S
H1568 C1578 0.930 . S
H1569 C1581 0.929 . S
H1570 C1584 0.930 . S
H1571 C1586 0.960 . S
H1572 C1586 0.960 . S
H1573 C1586 0.960 . S
C1574 H1566 0.929 . S
C1574 C1575 1.377 . S
C1574 C1576 1.384 . S
C1575 C1574 1.377 . S
C1575 C1581 1.390 . S
C1576 H1567 0.930 . S
C1576 C1574 1.384 . S
C1576 C1577 1.372 . S
C1577 C1576 1.372 . S
C1577 C1578 1.400 . S
C1577 C1582 1.490 . S
C1578 H1568 0.930 . S
C1578 C1577 1.400 . S
C1578 C1581 1.386 . S
H1579 C1595 0.930 . S
H1580 C1596 0.931 . S
C1581 H1569 0.929 . S
C1581 C1575 1.390 . S
C1581 C1578 1.386 . S
C1582 C1577 1.490 . S
C1582 C1584 1.395 . S
C1582 C1585 1.403 . S
H1583 C1589 0.930 . S
C1584 H1570 0.930 . S
C1584 C1582 1.395 . S
C1584 C1587 1.403 . S
C1585 C1582 1.403 . S
C1585 C1586 1.524 . S
C1585 C1589 1.400 . S
C1586 H1571 0.960 . S
C1586 H1572 0.960 . S
C1586 H1573 0.960 . S
C1586 C1585 1.524 . S
C1587 C1584 1.403 . S
C1587 C1588 1.392 . S
C1587 C1591 1.495 . S
C1588 C1587 1.392 . S
C1588 C1589 1.385 . S
C1588 C1590 1.478 . S
C1589 H1583 0.930 . S
C1589 C1585 1.400 . S
C1589 C1588 1.385 . S
C1590 C1588 1.478 . S
C1590 C1592 1.381 . S
C1590 C1596 1.383 . S
C1591 C1587 1.495 . S
C1591 H1597 0.959 . S
C1591 H1598 0.961 . S
C1591 H1599 0.960 . S
C1592 C1590 1.381 . S
C1592 C1593 1.394 . S
C1592 H1600 0.930 . S
C1593 C1592 1.394 . S
C1593 C1594 1.383 . S
C1593 H1601 0.929 . S
C1594 C1593 1.383 . S
C1594 C1595 1.377 . S
C1595 H1579 0.930 . S
C1595 C1594 1.377 . S
C1595 C1596 1.379 . S
C1596 H1580 0.931 . S
C1596 C1590 1.383 . S
C1596 C1595 1.379 . S
H1597 C1591 0.959 . S
H1598 C1591 0.961 . S
H1599 C1591 0.960 . S
H1600 C1592 0.930 . S
H1601 C1593 0.929 . S
H1602 C1610 0.929 . S
H1603 C1612 0.930 . S
H1604 C1614 0.930 . S
H1605 C1617 0.929 . S
H1606 C1620 0.930 . S
H1607 C1622 0.960 . S
H1608 C1622 0.960 . S
H1609 C1622 0.960 . S
C1610 H1602 0.929 . S
C1610 C1611 1.377 . S
C1610 C1612 1.384 . S
C1611 C1610 1.377 . S
C1611 C1617 1.390 . S
C1612 H1603 0.930 . S
C1612 C1610 1.384 . S
C1612 C1613 1.372 . S
C1613 C1612 1.372 . S
C1613 C1614 1.400 . S
C1613 C1618 1.490 . S
C1614 H1604 0.930 . S
C1614 C1613 1.400 . S
C1614 C1617 1.386 . S
H1615 C1631 0.930 . S
H1616 C1632 0.931 . S
C1617 H1605 0.929 . S
C1617 C1611 1.390 . S
C1617 C1614 1.386 . S
C1618 C1613 1.490 . S
C1618 C1620 1.395 . S
C1618 C1621 1.403 . S
H1619 C1625 0.930 . S
C1620 H1606 0.930 . S
C1620 C1618 1.395 . S
C1620 C1623 1.403 . S
C1621 C1618 1.403 . S
C1621 C1622 1.524 . S
C1621 C1625 1.400 . S
C1622 H1607 0.960 . S
C1622 H1608 0.960 . S
C1622 H1609 0.960 . S
C1622 C1621 1.524 . S
C1623 C1620 1.403 . S
C1623 C1624 1.392 . S
C1623 C1627 1.495 . S
C1624 C1623 1.392 . S
C1624 C1625 1.385 . S
C1624 C1626 1.478 . S
C1625 H1619 0.930 . S
C1625 C1621 1.400 . S
C1625 C1624 1.385 . S
C1626 C1624 1.478 . S
C1626 C1628 1.381 . S
C1626 C1632 1.383 . S
C1627 C1623 1.495 . S
C1627 H1633 0.959 . S
C1627 H1634 0.961 . S
C1627 H1635 0.960 . S
C1628 C1626 1.381 . S
C1628 C1629 1.394 . S
C1628 H1636 0.930 . S
C1629 C1628 1.394 . S
C1629 C1630 1.383 . S
C1629 H1637 0.929 . S
C1630 C1629 1.383 . S
C1630 C1631 1.377 . S
C1631 H1615 0.930 . S
C1631 C1630 1.377 . S
C1631 C1632 1.379 . S
C1632 H1616 0.931 . S
C1632 C1626 1.383 . S
C1632 C1631 1.379 . S
H1633 C1627 0.959 . S
H1634 C1627 0.961 . S
H1635 C1627 0.960 . S
H1636 C1628 0.930 . S
H1637 C1629 0.929 . S
H1638 C1646 0.929 . S
H1639 C1648 0.930 . S
H1640 C1650 0.930 . S
H1641 C1653 0.929 . S
H1642 C1656 0.930 . S
H1643 C1658 0.960 . S
H1644 C1658 0.954 . S
H1645 C1658 0.960 1_545 S
C1646 H1638 0.929 . S
C1646 C1647 1.377 . S
C1646 C1648 1.384 . S
C1647 C1646 1.377 . S
C1647 C1653 1.390 . S
C1648 H1639 0.930 . S
C1648 C1646 1.384 . S
C1648 C1649 1.372 . S
C1649 C1648 1.372 . S
C1649 C1650 1.400 . S
C1649 C1654 1.490 1_545 S
C1650 H1640 0.930 . S
C1650 C1649 1.400 . S
C1650 C1653 1.386 . S
H1651 C1667 0.930 . S
H1652 C1668 0.931 . S
C1653 H1641 0.929 . S
C1653 C1647 1.390 . S
C1653 C1650 1.386 . S
C1654 C1649 1.490 1_565 S
C1654 C1656 1.395 . S
C1654 C1657 1.403 . S
H1655 C1661 0.930 . S
C1656 H1642 0.930 . S
C1656 C1654 1.395 . S
C1656 C1659 1.403 . S
C1657 C1654 1.403 . S
C1657 C1658 1.524 . S
C1657 C1661 1.400 . S
C1658 H1643 0.960 . S
C1658 H1644 0.954 . S
C1658 H1645 0.960 1_565 S
C1658 C1657 1.524 . S
C1659 C1656 1.403 . S
C1659 C1660 1.392 . S
C1659 C1663 1.495 . S
C1660 C1659 1.392 . S
C1660 C1661 1.385 . S
C1660 C1662 1.478 . S
C1661 H1655 0.930 . S
C1661 C1657 1.400 . S
C1661 C1660 1.385 . S
C1662 C1660 1.478 . S
C1662 C1664 1.381 . S
C1662 C1668 1.383 . S
C1663 C1659 1.495 . S
C1663 H1669 0.959 . S
C1663 H1670 0.961 . S
C1663 H1671 0.960 . S
C1664 C1662 1.381 . S
C1664 C1665 1.394 . S
C1664 H1672 0.930 . S
C1665 C1664 1.394 . S
C1665 C1666 1.383 . S
C1665 H1673 0.929 . S
C1666 C1665 1.383 . S
C1666 C1667 1.377 . S
C1667 H1651 0.930 . S
C1667 C1666 1.377 . S
C1667 C1668 1.379 . S
C1668 H1652 0.931 . S
C1668 C1662 1.383 . S
C1668 C1667 1.379 . S
H1669 C1663 0.959 . S
H1670 C1663 0.961 . S
H1671 C1663 0.960 . S
H1672 C1664 0.930 . S
H1673 C1665 0.929 . S
H1674 C1682 0.929 . S
H1675 C1684 0.930 . S
H1676 C1686 0.930 . S
H1677 C1689 0.929 . S
H1678 C1692 0.930 . S
H1679 C1694 0.960 . S
H1680 C1694 0.960 . S
H1681 C1694 0.960 . S
C1682 H1674 0.929 . S
C1682 C1683 1.377 . S
C1682 C1684 1.384 . S
C1683 C1682 1.377 . S
C1683 C1689 1.390 . S
C1684 H1675 0.930 . S
C1684 C1682 1.384 . S
C1684 C1685 1.372 1_655 S
C1685 C1684 1.372 1_455 S
C1685 C1686 1.395 1_455 S
C1685 C1690 1.494 . S
C1686 H1676 0.930 . S
C1686 C1685 1.395 1_655 S
C1686 C1689 1.386 . S
H1687 C1703 0.930 . S
H1688 C1704 0.931 . S
C1689 H1677 0.929 . S
C1689 C1683 1.390 . S
C1689 C1686 1.386 . S
C1690 C1685 1.494 . S
C1690 C1692 1.395 . S
C1690 C1693 1.403 . S
H1691 C1697 0.930 . S
C1692 H1678 0.930 . S
C1692 C1690 1.395 . S
C1692 C1695 1.403 . S
C1693 C1690 1.403 . S
C1693 C1694 1.524 . S
C1693 C1697 1.400 . S
C1694 H1679 0.960 . S
C1694 H1680 0.960 . S
C1694 H1681 0.960 . S
C1694 C1693 1.524 . S
C1695 C1692 1.403 . S
C1695 C1696 1.392 . S
C1695 C1699 1.495 . S
C1696 C1695 1.392 . S
C1696 C1697 1.385 . S
C1696 C1698 1.478 . S
C1697 H1691 0.930 . S
C1697 C1693 1.400 . S
C1697 C1696 1.385 . S
C1698 C1696 1.478 . S
C1698 C1700 1.381 . S
C1698 C1704 1.383 . S
C1699 C1695 1.495 . S
C1699 H1705 0.959 . S
C1699 H1706 0.961 . S
C1699 H1707 0.960 . S
C1700 C1698 1.381 . S
C1700 C1701 1.394 . S
C1700 H1708 0.930 . S
C1701 C1700 1.394 . S
C1701 C1702 1.383 . S
C1701 H1709 0.929 . S
C1702 C1701 1.383 . S
C1702 C1703 1.377 . S
C1703 H1687 0.930 . S
C1703 C1702 1.377 . S
C1703 C1704 1.379 . S
C1704 H1688 0.931 . S
C1704 C1698 1.383 . S
C1704 C1703 1.379 . S
H1705 C1699 0.959 . S
H1706 C1699 0.961 . S
H1707 C1699 0.960 . S
H1708 C1700 0.930 . S
H1709 C1701 0.929 . S
H1710 C1718 0.929 . S
H1711 C1720 0.930 . S
H1712 C1722 0.930 . S
H1713 C1725 0.929 . S
H1714 C1728 0.930 . S
H1715 C1730 0.960 . S
H1716 C1730 0.960 . S
H1717 C1730 0.960 . S
C1718 H1710 0.929 . S
C1718 C1719 1.377 . S
C1718 C1720 1.384 . S
C1719 C1718 1.377 . S
C1719 C1725 1.390 . S
C1720 H1711 0.930 . S
C1720 C1718 1.384 . S
C1720 C1721 1.372 . S
C1721 C1720 1.372 . S
C1721 C1722 1.400 . S
C1721 C1726 1.490 . S
C1722 H1712 0.930 . S
C1722 C1721 1.400 . S
C1722 C1725 1.386 . S
H1723 C1739 0.930 . S
H1724 C1740 0.931 . S
C1725 H1713 0.929 . S
C1725 C1719 1.390 . S
C1725 C1722 1.386 . S
C1726 C1721 1.490 . S
C1726 C1728 1.395 . S
C1726 C1729 1.403 . S
H1727 C1733 0.930 . S
C1728 H1714 0.930 . S
C1728 C1726 1.395 . S
C1728 C1731 1.403 . S
C1729 C1726 1.403 . S
C1729 C1730 1.524 . S
C1729 C1733 1.400 . S
C1730 H1715 0.960 . S
C1730 H1716 0.960 . S
C1730 H1717 0.960 . S
C1730 C1729 1.524 . S
C1731 C1728 1.403 . S
C1731 C1732 1.392 . S
C1731 C1735 1.495 . S
C1732 C1731 1.392 . S
C1732 C1733 1.385 . S
C1732 C1734 1.478 . S
C1733 H1727 0.930 . S
C1733 C1729 1.400 . S
C1733 C1732 1.385 . S
C1734 C1732 1.478 . S
C1734 C1736 1.381 . S
C1734 C1740 1.383 . S
C1735 C1731 1.495 . S
C1735 H1741 0.959 . S
C1735 H1742 0.961 . S
C1735 H1743 0.960 . S
C1736 C1734 1.381 . S
C1736 C1737 1.394 . S
C1736 H1744 0.930 . S
C1737 C1736 1.394 . S
C1737 C1738 1.383 . S
C1737 H1745 0.929 . S
C1738 C1737 1.383 . S
C1738 C1739 1.377 . S
C1739 H1723 0.930 . S
C1739 C1738 1.377 . S
C1739 C1740 1.379 . S
C1740 H1724 0.931 . S
C1740 C1734 1.383 . S
C1740 C1739 1.379 . S
H1741 C1735 0.959 . S
H1742 C1735 0.961 . S
H1743 C1735 0.960 . S
H1744 C1736 0.930 . S
H1745 C1737 0.929 . S
H1746 C1754 0.929 . S
H1747 C1756 0.930 . S
H1748 C1758 0.930 . S
H1749 C1761 0.929 . S
H1750 C1764 0.930 . S
H1751 C1766 0.960 . S
H1752 C1766 0.960 . S
H1753 C1766 0.960 . S
C1754 H1746 0.929 . S
C1754 C1755 1.377 . S
C1754 C1756 1.384 . S
C1755 C1754 1.377 . S
C1755 C1761 1.390 . S
C1756 H1747 0.930 . S
C1756 C1754 1.384 . S
C1756 C1757 1.372 . S
C1757 C1756 1.372 . S
C1757 C1758 1.400 . S
C1757 C1762 1.490 . S
C1758 H1748 0.930 . S
C1758 C1757 1.400 . S
C1758 C1761 1.386 . S
H1759 C1775 0.930 . S
H1760 C1776 0.931 . S
C1761 H1749 0.929 . S
C1761 C1755 1.390 . S
C1761 C1758 1.386 . S
C1762 C1757 1.490 . S
C1762 C1764 1.395 . S
C1762 C1765 1.403 . S
H1763 C1769 0.930 . S
C1764 H1750 0.930 . S
C1764 C1762 1.395 . S
C1764 C1767 1.403 . S
C1765 C1762 1.403 . S
C1765 C1766 1.524 . S
C1765 C1769 1.400 . S
C1766 H1751 0.960 . S
C1766 H1752 0.960 . S
C1766 H1753 0.960 . S
C1766 C1765 1.524 . S
C1767 C1764 1.403 . S
C1767 C1768 1.392 . S
C1767 C1771 1.495 . S
C1768 C1767 1.392 . S
C1768 C1769 1.385 . S
C1768 C1770 1.478 . S
C1769 H1763 0.930 . S
C1769 C1765 1.400 . S
C1769 C1768 1.385 . S
C1770 C1768 1.478 . S
C1770 C1772 1.381 . S
C1770 C1776 1.383 . S
C1771 C1767 1.495 . S
C1771 H1777 0.959 . S
C1771 H1778 0.961 . S
C1771 H1779 0.960 . S
C1772 C1770 1.381 . S
C1772 C1773 1.394 . S
C1772 H1780 0.930 . S
C1773 C1772 1.394 . S
C1773 C1774 1.383 . S
C1773 H1781 0.929 . S
C1774 C1773 1.383 . S
C1774 C1775 1.377 . S
C1775 H1759 0.930 . S
C1775 C1774 1.377 . S
C1775 C1776 1.379 . S
C1776 H1760 0.931 . S
C1776 C1770 1.383 . S
C1776 C1775 1.379 . S
H1777 C1771 0.959 . S
H1778 C1771 0.961 . S
H1779 C1771 0.960 . S
H1780 C1772 0.930 . S
H1781 C1773 0.929 . S
H1782 C1790 0.929 . S
H1783 C1792 0.930 . S
H1784 C1794 0.930 . S
H1785 C1797 0.929 . S
H1786 C1800 0.930 . S
H1787 C1802 0.960 . S
H1788 C1802 0.960 . S
H1789 C1802 0.960 . S
C1790 H1782 0.929 . S
C1790 C1791 1.377 . S
C1790 C1792 1.384 . S
C1791 C1790 1.377 . S
C1791 C1797 1.390 . S
C1792 H1783 0.930 . S
C1792 C1790 1.384 . S
C1792 C1793 1.372 . S
C1793 C1792 1.372 . S
C1793 C1794 1.400 . S
C1793 C1798 1.490 . S
C1794 H1784 0.930 . S
C1794 C1793 1.400 . S
C1794 C1797 1.386 . S
H1795 C1811 0.930 . S
H1796 C1812 0.931 . S
C1797 H1785 0.929 . S
C1797 C1791 1.390 . S
C1797 C1794 1.386 . S
C1798 C1793 1.490 . S
C1798 C1800 1.395 . S
C1798 C1801 1.403 . S
H1799 C1805 0.930 . S
C1800 H1786 0.930 . S
C1800 C1798 1.395 . S
C1800 C1803 1.403 . S
C1801 C1798 1.403 . S
C1801 C1802 1.524 . S
C1801 C1805 1.400 . S
C1802 H1787 0.960 . S
C1802 H1788 0.960 . S
C1802 H1789 0.960 . S
C1802 C1801 1.524 . S
C1803 C1800 1.403 . S
C1803 C1804 1.392 . S
C1803 C1807 1.495 . S
C1804 C1803 1.392 . S
C1804 C1805 1.385 . S
C1804 C1806 1.478 . S
C1805 H1799 0.930 . S
C1805 C1801 1.400 . S
C1805 C1804 1.385 . S
C1806 C1804 1.478 . S
C1806 C1808 1.381 . S
C1806 C1812 1.383 . S
C1807 C1803 1.495 . S
C1807 H1813 0.959 . S
C1807 H1814 0.961 . S
C1807 H1815 0.960 . S
C1808 C1806 1.381 . S
C1808 C1809 1.394 . S
C1808 H1816 0.930 . S
C1809 C1808 1.394 . S
C1809 C1810 1.383 . S
C1809 H1817 0.929 . S
C1810 C1809 1.383 . S
C1810 C1811 1.377 . S
C1811 H1795 0.930 . S
C1811 C1810 1.377 . S
C1811 C1812 1.379 . S
C1812 H1796 0.931 . S
C1812 C1806 1.383 . S
C1812 C1811 1.379 . S
H1813 C1807 0.959 . S
H1814 C1807 0.961 . S
H1815 C1807 0.960 . S
H1816 C1808 0.930 . S
H1817 C1809 0.929 . S
H1818 C1826 0.929 . S
H1819 C1828 0.930 . S
H1820 C1830 0.930 . S
H1821 C1833 0.929 . S
H1822 C1836 0.930 . S
H1823 C1838 0.960 . S
H1824 C1838 0.960 . S
H1825 C1838 0.960 . S
C1826 H1818 0.929 . S
C1826 C1827 1.377 . S
C1826 C1828 1.384 . S
C1827 C1826 1.377 . S
C1827 C1833 1.390 . S
C1828 H1819 0.930 . S
C1828 C1826 1.384 . S
C1828 C1829 1.372 . S
C1829 C1828 1.372 . S
C1829 C1830 1.400 . S
C1829 C1834 1.490 . S
C1830 H1820 0.930 . S
C1830 C1829 1.400 . S
C1830 C1833 1.386 . S
H1831 C1847 0.930 . S
H1832 C1848 0.931 . S
C1833 H1821 0.929 . S
C1833 C1827 1.390 . S
C1833 C1830 1.386 . S
C1834 C1829 1.490 . S
C1834 C1836 1.395 . S
C1834 C1837 1.403 . S
H1835 C1841 0.930 . S
C1836 H1822 0.930 . S
C1836 C1834 1.395 . S
C1836 C1839 1.403 . S
C1837 C1834 1.403 . S
C1837 C1838 1.524 . S
C1837 C1841 1.400 . S
C1838 H1823 0.960 . S
C1838 H1824 0.960 . S
C1838 H1825 0.960 . S
C1838 C1837 1.524 . S
C1839 C1836 1.403 . S
C1839 C1840 1.392 . S
C1839 C1843 1.495 . S
C1840 C1839 1.392 . S
C1840 C1841 1.385 . S
C1840 C1842 1.478 . S
C1841 H1835 0.930 . S
C1841 C1837 1.400 . S
C1841 C1840 1.385 . S
C1842 C1840 1.478 . S
C1842 C1844 1.381 . S
C1842 C1848 1.383 . S
C1843 C1839 1.495 . S
C1843 H1849 0.959 . S
C1843 H1850 0.961 . S
C1843 H1851 0.960 . S
C1844 C1842 1.381 . S
C1844 C1845 1.394 . S
C1844 H1852 0.930 . S
C1845 C1844 1.394 . S
C1845 C1846 1.383 . S
C1845 H1853 0.929 . S
C1846 C1845 1.383 . S
C1846 C1847 1.377 . S
C1847 H1831 0.930 . S
C1847 C1846 1.377 . S
C1847 C1848 1.379 . S
C1848 H1832 0.931 . S
C1848 C1842 1.383 . S
C1848 C1847 1.379 . S
H1849 C1843 0.959 . S
H1850 C1843 0.961 . S
H1851 C1843 0.960 . S
H1852 C1844 0.930 . S
H1853 C1845 0.929 . S
H1854 C1862 0.929 . S
H1855 C1864 0.930 . S
H1856 C1866 0.930 . S
H1857 C1869 0.929 . S
H1858 C1872 0.930 . S
H1859 C1874 0.960 . S
H1860 C1874 0.960 . S
H1861 C1874 0.960 . S
C1862 H1854 0.929 . S
C1862 C1863 1.377 . S
C1862 C1864 1.384 . S
C1863 C1862 1.377 . S
C1863 C1869 1.390 . S
C1864 H1855 0.930 . S
C1864 C1862 1.384 . S
C1864 C1865 1.372 . S
C1865 C1864 1.372 . S
C1865 C1866 1.400 . S
C1865 C1870 1.490 1_565 S
C1866 H1856 0.930 . S
C1866 C1865 1.400 . S
C1866 C1869 1.386 . S
H1867 C1883 0.930 . S
H1868 C1884 0.931 . S
C1869 H1857 0.929 . S
C1869 C1863 1.390 . S
C1869 C1866 1.386 . S
C1870 C1865 1.490 1_545 S
C1870 C1872 1.395 . S
C1870 C1873 1.403 . S
H1871 C1877 0.930 . S
C1872 H1858 0.930 . S
C1872 C1870 1.395 . S
C1872 C1875 1.403 . S
C1873 C1870 1.403 . S
C1873 C1874 1.524 . S
C1873 C1877 1.400 . S
C1874 H1859 0.960 . S
C1874 H1860 0.960 . S
C1874 H1861 0.960 . S
C1874 C1873 1.524 . S
C1875 C1872 1.403 . S
C1875 C1876 1.392 . S
C1875 C1879 1.495 . S
C1876 C1875 1.392 . S
C1876 C1877 1.385 . S
C1876 C1878 1.478 . S
C1877 H1871 0.930 . S
C1877 C1873 1.400 . S
C1877 C1876 1.385 . S
C1878 C1876 1.478 . S
C1878 C1880 1.381 . S
C1878 C1884 1.383 . S
C1879 C1875 1.495 . S
C1879 H1885 0.959 . S
C1879 H1886 0.961 . S
C1879 H1887 0.960 . S
C1880 C1878 1.381 . S
C1880 C1881 1.394 . S
C1880 H1888 0.930 . S
C1881 C1880 1.394 . S
C1881 C1882 1.383 . S
C1881 H1889 0.929 . S
C1882 C1881 1.383 . S
C1882 C1883 1.377 . S
C1883 H1867 0.930 . S
C1883 C1882 1.377 . S
C1883 C1884 1.379 . S
C1884 H1868 0.931 . S
C1884 C1878 1.383 . S
C1884 C1883 1.379 . S
H1885 C1879 0.959 . S
H1886 C1879 0.961 . S
H1887 C1879 0.960 . S
H1888 C1880 0.930 . S
H1889 C1881 0.929 . S
H1890 C1898 0.929 . S
H1891 C1900 0.930 1_655 S
H1892 C1902 0.930 . S
H1893 C1905 0.929 . S
H1894 C1908 0.930 . S
H1895 C1910 0.960 . S
H1896 C1910 0.960 . S
H1897 C1910 0.960 . S
C1898 H1890 0.929 . S
C1898 C1899 1.377 . S
C1898 C1900 1.384 . S
C1899 C1898 1.377 . S
C1899 C1905 1.390 . S
C1900 H1891 0.930 1_455 S
C1900 C1898 1.384 . S
C1900 C1901 1.372 . S
C1901 C1900 1.372 . S
C1901 C1902 1.400 . S
C1901 C1906 1.490 1_455 S
C1902 H1892 0.930 . S
C1902 C1901 1.400 . S
C1902 C1905 1.386 . S
H1903 C1919 0.930 . S
H1904 C1920 0.931 . S
C1905 H1893 0.929 . S
C1905 C1899 1.390 . S
C1905 C1902 1.386 . S
C1906 C1901 1.490 1_655 S
C1906 C1908 1.395 . S
C1906 C1909 1.403 . S
H1907 C1913 0.930 . S
C1908 H1894 0.930 . S
C1908 C1906 1.395 . S
C1908 C1911 1.403 . S
C1909 C1906 1.403 . S
C1909 C1910 1.524 . S
C1909 C1913 1.400 . S
C1910 H1895 0.960 . S
C1910 H1896 0.960 . S
C1910 H1897 0.960 . S
C1910 C1909 1.524 . S
C1911 C1908 1.403 . S
C1911 C1912 1.392 . S
C1911 C1915 1.495 . S
C1912 C1911 1.392 . S
C1912 C1913 1.385 . S
C1912 C1914 1.478 . S
C1913 H1907 0.930 . S
C1913 C1909 1.400 . S
C1913 C1912 1.385 . S
C1914 C1912 1.478 . S
C1914 C1916 1.381 . S
C1914 C1920 1.383 . S
C1915 C1911 1.495 . S
C1915 H1921 0.959 . S
C1915 H1922 0.961 . S
C1915 H1923 0.960 . S
C1916 C1914 1.381 . S
C1916 C1917 1.394 . S
C1916 H1924 0.930 . S
C1917 C1916 1.394 . S
C1917 C1918 1.383 . S
C1917 H1925 0.929 . S
C1918 C1917 1.383 . S
C1918 C1919 1.377 . S
C1919 H1903 0.930 . S
C1919 C1918 1.377 . S
C1919 C1920 1.379 . S
C1920 H1904 0.931 . S
C1920 C1914 1.383 . S
C1920 C1919 1.379 . S
H1921 C1915 0.959 . S
H1922 C1915 0.961 . S
H1923 C1915 0.960 . S
H1924 C1916 0.930 . S
H1925 C1917 0.929 . S
H1926 C1934 0.929 . S
H1927 C1936 0.930 . S
H1928 C1938 0.930 . S
H1929 C1941 0.929 . S
H1930 C1944 0.930 . S
H1931 C1946 0.960 . S
H1932 C1946 0.960 . S
H1933 C1946 0.960 . S
C1934 H1926 0.929 . S
C1934 C1935 1.377 . S
C1934 C1936 1.384 . S
C1935 C1934 1.377 . S
C1935 C1941 1.390 . S
C1936 H1927 0.930 . S
C1936 C1934 1.384 . S
C1936 C1937 1.372 . S
C1937 C1936 1.372 . S
C1937 C1938 1.400 . S
C1937 C1942 1.490 . S
C1938 H1928 0.930 . S
C1938 C1937 1.400 . S
C1938 C1941 1.386 . S
H1939 C1955 0.930 . S
H1940 C1956 0.931 . S
C1941 H1929 0.929 . S
C1941 C1935 1.390 . S
C1941 C1938 1.386 . S
C1942 C1937 1.490 . S
C1942 C1944 1.395 . S
C1942 C1945 1.403 . S
H1943 C1949 0.930 . S
C1944 H1930 0.930 . S
C1944 C1942 1.395 . S
C1944 C1947 1.403 . S
C1945 C1942 1.403 . S
C1945 C1946 1.524 . S
C1945 C1949 1.400 . S
C1946 H1931 0.960 . S
C1946 H1932 0.960 . S
C1946 H1933 0.960 . S
C1946 C1945 1.524 . S
C1947 C1944 1.403 . S
C1947 C1948 1.392 . S
C1947 C1951 1.495 . S
C1948 C1947 1.392 . S
C1948 C1949 1.385 . S
C1948 C1950 1.478 . S
C1949 H1943 0.930 . S
C1949 C1945 1.400 . S
C1949 C1948 1.385 . S
C1950 C1948 1.478 . S
C1950 C1952 1.381 . S
C1950 C1956 1.383 . S
C1951 C1947 1.495 . S
C1951 H1957 0.959 . S
C1951 H1958 0.961 . S
C1951 H1959 0.960 . S
C1952 C1950 1.381 . S
C1952 C1953 1.394 . S
C1952 H1960 0.930 . S
C1953 C1952 1.394 . S
C1953 C1954 1.383 . S
C1953 H1961 0.929 . S
C1954 C1953 1.383 . S
C1954 C1955 1.377 . S
C1955 H1939 0.930 . S
C1955 C1954 1.377 . S
C1955 C1956 1.379 . S
C1956 H1940 0.931 . S
C1956 C1950 1.383 . S
C1956 C1955 1.379 . S
H1957 C1951 0.959 . S
H1958 C1951 0.961 . S
H1959 C1951 0.960 . S
H1960 C1952 0.930 . S
H1961 C1953 0.929 . S
H1962 C1970 0.929 . S
H1963 C1972 0.930 . S
H1964 C1974 0.930 . S
H1965 C1977 0.929 . S
H1966 C1980 0.930 . S
H1967 C1982 1.007 . S
H1968 C1982 0.970 1_455 S
H1969 C1982 0.897 1_455 S
C1970 H1962 0.929 . S
C1970 C1971 1.377 . S
C1970 C1972 1.384 . S
C1971 C1970 1.377 . S
C1971 C1977 1.390 . S
C1972 H1963 0.930 . S
C1972 C1970 1.384 . S
C1972 C1973 1.372 . S
C1973 C1972 1.372 . S
C1973 C1974 1.400 . S
C1973 C1978 1.490 1_455 S
C1974 H1964 0.930 . S
C1974 C1973 1.400 . S
C1974 C1977 1.386 . S
H1975 C1991 0.930 . S
H1976 C1992 0.931 . S
C1977 H1965 0.929 . S
C1977 C1971 1.390 . S
C1977 C1974 1.386 . S
C1978 C1973 1.490 1_655 S
C1978 C1980 1.395 . S
C1978 C1981 1.403 . S
H1979 C1985 0.930 . S
C1980 H1966 0.930 . S
C1980 C1978 1.395 . S
C1980 C1983 1.403 . S
C1981 C1978 1.403 . S
C1981 C1982 1.534 . S
C1981 C1985 1.400 . S
C1982 H1967 1.007 . S
C1982 H1968 0.970 1_655 S
C1982 H1969 0.897 1_655 S
C1982 C1981 1.534 . S
C1983 C1980 1.403 . S
C1983 C1984 1.392 . S
C1983 C1987 1.495 . S
C1984 C1983 1.392 . S
C1984 C1985 1.385 . S
C1984 C1986 1.478 . S
C1985 H1979 0.930 . S
C1985 C1981 1.400 . S
C1985 C1984 1.385 . S
C1986 C1984 1.478 . S
C1986 C1988 1.381 . S
C1986 C1992 1.383 . S
C1987 C1983 1.495 . S
C1987 H1993 0.959 . S
C1987 H1994 0.961 . S
C1987 H1995 0.960 . S
C1988 C1986 1.381 . S
C1988 C1989 1.394 . S
C1988 H1996 0.930 . S
C1989 C1988 1.394 . S
C1989 C1990 1.383 . S
C1989 H1997 0.929 . S
C1990 C1989 1.383 . S
C1990 C1991 1.377 . S
C1991 H1975 0.930 . S
C1991 C1990 1.377 . S
C1991 C1992 1.379 . S
C1992 H1976 0.931 . S
C1992 C1986 1.383 . S
C1992 C1991 1.379 . S
H1993 C1987 0.959 . S
H1994 C1987 0.961 . S
H1995 C1987 0.960 . S
H1996 C1988 0.930 . S
H1997 C1989 0.929 . S
H1998 C2006 0.929 . S
H1999 C2008 0.930 . S
H2000 C2010 0.930 . S
H2001 C2013 0.929 . S
H2002 C2016 0.930 . S
H2003 C2018 0.960 . S
H2004 C2018 0.960 . S
H2005 C2018 0.960 . S
C2006 H1998 0.929 . S
C2006 C2007 1.377 . S
C2006 C2008 1.384 . S
C2007 C2006 1.377 . S
C2007 C2013 1.390 . S
C2008 H1999 0.930 . S
C2008 C2006 1.384 . S
C2008 C2009 1.372 . S
C2009 C2008 1.372 . S
C2009 C2010 1.400 . S
C2009 C2014 1.490 . S
C2010 H2000 0.930 . S
C2010 C2009 1.400 . S
C2010 C2013 1.386 . S
H2011 C2027 0.930 . S
H2012 C2028 0.931 . S
C2013 H2001 0.929 . S
C2013 C2007 1.390 . S
C2013 C2010 1.386 . S
C2014 C2009 1.490 . S
C2014 C2016 1.395 . S
C2014 C2017 1.403 . S
H2015 C2021 0.930 . S
C2016 H2002 0.930 . S
C2016 C2014 1.395 . S
C2016 C2019 1.403 . S
C2017 C2014 1.403 . S
C2017 C2018 1.524 . S
C2017 C2021 1.400 . S
C2018 H2003 0.960 . S
C2018 H2004 0.960 . S
C2018 H2005 0.960 . S
C2018 C2017 1.524 . S
C2019 C2016 1.403 . S
C2019 C2020 1.392 . S
C2019 C2023 1.495 . S
C2020 C2019 1.392 . S
C2020 C2021 1.385 . S
C2020 C2022 1.478 . S
C2021 H2015 0.930 . S
C2021 C2017 1.400 . S
C2021 C2020 1.385 . S
C2022 C2020 1.478 . S
C2022 C2024 1.381 . S
C2022 C2028 1.383 . S
C2023 C2019 1.495 . S
C2023 H2029 0.959 . S
C2023 H2030 0.961 . S
C2023 H2031 0.960 . S
C2024 C2022 1.381 . S
C2024 C2025 1.394 . S
C2024 H2032 0.930 . S
C2025 C2024 1.394 . S
C2025 C2026 1.383 . S
C2025 H2033 0.929 . S
C2026 C2025 1.383 . S
C2026 C2027 1.377 . S
C2027 H2011 0.930 . S
C2027 C2026 1.377 . S
C2027 C2028 1.379 . S
C2028 H2012 0.931 . S
C2028 C2022 1.383 . S
C2028 C2027 1.379 . S
H2029 C2023 0.959 . S
H2030 C2023 0.961 . S
H2031 C2023 0.960 . S
H2032 C2024 0.930 . S
H2033 C2025 0.929 . S
H2034 C2042 0.929 . S
H2035 C2044 0.930 . S
H2036 C2046 0.930 . S
H2037 C2049 0.929 . S
H2038 C2052 0.930 . S
H2039 C2054 0.960 . S
H2040 C2054 0.960 1_565 S
H2041 C2054 0.960 1_565 S
C2042 H2034 0.929 . S
C2042 C2043 1.377 . S
C2042 C2044 1.384 . S
C2043 C2042 1.377 . S
C2043 C2049 1.390 . S
C2044 H2035 0.930 . S
C2044 C2042 1.384 . S
C2044 C2045 1.372 . S
C2045 C2044 1.372 . S
C2045 C2046 1.400 . S
C2045 C2050 1.490 1_565 S
C2046 H2036 0.930 . S
C2046 C2045 1.400 . S
C2046 C2049 1.386 . S
H2047 C2063 0.930 . S
H2048 C2064 0.931 . S
C2049 H2037 0.929 . S
C2049 C2043 1.390 . S
C2049 C2046 1.386 . S
C2050 C2045 1.490 1_545 S
C2050 C2052 1.395 . S
C2050 C2053 1.403 . S
H2051 C2057 0.930 . S
C2052 H2038 0.930 . S
C2052 C2050 1.395 . S
C2052 C2055 1.403 . S
C2053 C2050 1.403 . S
C2053 C2054 1.524 . S
C2053 C2057 1.400 . S
C2054 H2039 0.960 . S
C2054 H2040 0.960 1_545 S
C2054 H2041 0.960 1_545 S
C2054 C2053 1.524 . S
C2055 C2052 1.403 . S
C2055 C2056 1.392 . S
C2055 C2059 1.495 . S
C2056 C2055 1.392 . S
C2056 C2057 1.385 . S
C2056 C2058 1.478 . S
C2057 H2051 0.930 . S
C2057 C2053 1.400 . S
C2057 C2056 1.385 . S
C2058 C2056 1.478 . S
C2058 C2060 1.381 . S
C2058 C2064 1.383 . S
C2059 C2055 1.495 . S
C2059 H2065 0.959 . S
C2059 H2066 0.961 . S
C2059 H2067 0.960 . S
C2060 C2058 1.381 . S
C2060 C2061 1.394 . S
C2060 H2068 0.930 . S
C2061 C2060 1.394 . S
C2061 C2062 1.383 . S
C2061 H2069 0.929 . S
C2062 C2061 1.383 . S
C2062 C2063 1.377 . S
C2063 H2047 0.930 . S
C2063 C2062 1.377 . S
C2063 C2064 1.379 . S
C2064 H2048 0.931 . S
C2064 C2058 1.383 . S
C2064 C2063 1.379 . S
H2065 C2059 0.959 . S
H2066 C2059 0.961 . S
H2067 C2059 0.960 . S
H2068 C2060 0.930 . S
H2069 C2061 0.929 . S
H2070 C2078 0.929 . S
H2071 C2080 0.930 . S
H2072 C2082 0.930 . S
H2073 C2085 0.929 . S
H2074 C2088 0.930 . S
H2075 C2090 0.960 . S
H2076 C2090 0.960 . S
H2077 C2090 0.960 . S
C2078 H2070 0.929 . S
C2078 C2079 1.377 . S
C2078 C2080 1.384 . S
C2079 C2078 1.377 . S
C2079 C2085 1.390 . S
C2080 H2071 0.930 . S
C2080 C2078 1.384 . S
C2080 C2081 1.372 . S
C2081 C2080 1.372 . S
C2081 C2082 1.400 . S
C2081 C2086 1.490 . S
C2082 H2072 0.930 . S
C2082 C2081 1.400 . S
C2082 C2085 1.386 . S
H2083 C2099 0.930 . S
H2084 C2100 0.931 . S
C2085 H2073 0.929 . S
C2085 C2079 1.390 . S
C2085 C2082 1.386 . S
C2086 C2081 1.490 . S
C2086 C2088 1.395 . S
C2086 C2089 1.403 . S
H2087 C2093 0.930 . S
C2088 H2074 0.930 . S
C2088 C2086 1.395 . S
C2088 C2091 1.403 . S
C2089 C2086 1.403 . S
C2089 C2090 1.524 . S
C2089 C2093 1.400 . S
C2090 H2075 0.960 . S
C2090 H2076 0.960 . S
C2090 H2077 0.960 . S
C2090 C2089 1.524 . S
C2091 C2088 1.403 . S
C2091 C2092 1.392 . S
C2091 C2095 1.495 . S
C2092 C2091 1.392 . S
C2092 C2093 1.385 . S
C2092 C2094 1.478 . S
C2093 H2087 0.930 . S
C2093 C2089 1.400 . S
C2093 C2092 1.385 . S
C2094 C2092 1.478 . S
C2094 C2096 1.381 . S
C2094 C2100 1.383 . S
C2095 C2091 1.495 . S
C2095 H2101 0.959 . S
C2095 H2102 0.961 . S
C2095 H2103 0.960 . S
C2096 C2094 1.381 . S
C2096 C2097 1.394 . S
C2096 H2104 0.930 . S
C2097 C2096 1.394 . S
C2097 C2098 1.383 . S
C2097 H2105 0.929 . S
C2098 C2097 1.383 . S
C2098 C2099 1.377 . S
C2099 H2083 0.930 . S
C2099 C2098 1.377 . S
C2099 C2100 1.379 . S
C2100 H2084 0.931 . S
C2100 C2094 1.383 . S
C2100 C2099 1.379 . S
H2101 C2095 0.959 . S
H2102 C2095 0.961 . S
H2103 C2095 0.960 . S
H2104 C2096 0.930 . S
H2105 C2097 0.929 . S
H2106 C2114 0.929 . S
H2107 C2116 0.930 . S
H2108 C2118 0.930 . S
H2109 C2121 0.929 . S
H2110 C2124 0.930 . S
H2111 C2126 0.960 . S
H2112 C2126 0.960 . S
H2113 C2126 0.960 . S
C2114 H2106 0.929 . S
C2114 C2115 1.377 . S
C2114 C2116 1.384 . S
C2115 C2114 1.377 . S
C2115 C2121 1.390 . S
C2116 H2107 0.930 . S
C2116 C2114 1.384 . S
C2116 C2117 1.372 . S
C2117 C2116 1.372 . S
C2117 C2118 1.400 . S
C2117 C2122 1.490 . S
C2118 H2108 0.930 . S
C2118 C2117 1.400 . S
C2118 C2121 1.386 . S
H2119 C2135 0.930 . S
H2120 C2136 0.931 . S
C2121 H2109 0.929 . S
C2121 C2115 1.390 . S
C2121 C2118 1.386 . S
C2122 C2117 1.490 . S
C2122 C2124 1.395 . S
C2122 C2125 1.403 . S
H2123 C2129 0.930 . S
C2124 H2110 0.930 . S
C2124 C2122 1.395 . S
C2124 C2127 1.403 . S
C2125 C2122 1.403 . S
C2125 C2126 1.524 . S
C2125 C2129 1.400 . S
C2126 H2111 0.960 . S
C2126 H2112 0.960 . S
C2126 H2113 0.960 . S
C2126 C2125 1.524 . S
C2127 C2124 1.403 . S
C2127 C2128 1.392 . S
C2127 C2131 1.495 . S
C2128 C2127 1.392 . S
C2128 C2129 1.385 . S
C2128 C2130 1.478 . S
C2129 H2123 0.930 . S
C2129 C2125 1.400 . S
C2129 C2128 1.385 . S
C2130 C2128 1.478 . S
C2130 C2132 1.381 . S
C2130 C2136 1.383 . S
C2131 C2127 1.495 . S
C2131 H2137 0.959 . S
C2131 H2138 0.961 . S
C2131 H2139 0.960 . S
C2132 C2130 1.381 . S
C2132 C2133 1.394 . S
C2132 H2140 0.930 . S
C2133 C2132 1.394 . S
C2133 C2134 1.383 . S
C2133 H2141 0.929 . S
C2134 C2133 1.383 . S
C2134 C2135 1.377 . S
C2135 H2119 0.930 . S
C2135 C2134 1.377 . S
C2135 C2136 1.379 . S
C2136 H2120 0.931 . S
C2136 C2130 1.383 . S
C2136 C2135 1.379 . S
H2137 C2131 0.959 . S
H2138 C2131 0.961 . S
H2139 C2131 0.960 . S
H2140 C2132 0.930 . S
H2141 C2133 0.929 . S
H2142 C2150 0.929 . S
H2143 C2152 0.930 . S
H2144 C2154 0.930 . S
H2145 C2157 0.929 . S
H2146 C2160 0.930 . S
H2147 C2162 0.960 . S
H2148 C2162 0.960 . S
H2149 C2162 0.960 . S
C2150 H2142 0.929 . S
C2150 C2151 1.377 . S
C2150 C2152 1.384 . S
C2151 C2150 1.377 . S
C2151 C2157 1.390 . S
C2152 H2143 0.930 . S
C2152 C2150 1.384 . S
C2152 C2153 1.372 . S
C2153 C2152 1.372 . S
C2153 C2154 1.400 . S
C2153 C2158 1.490 . S
C2154 H2144 0.930 . S
C2154 C2153 1.400 . S
C2154 C2157 1.386 . S
H2155 C2171 0.930 . S
H2156 C2172 0.931 . S
C2157 H2145 0.929 . S
C2157 C2151 1.390 . S
C2157 C2154 1.386 . S
C2158 C2153 1.490 . S
C2158 C2160 1.395 . S
C2158 C2161 1.403 . S
H2159 C2165 0.930 . S
C2160 H2146 0.930 . S
C2160 C2158 1.395 . S
C2160 C2163 1.403 . S
C2161 C2158 1.403 . S
C2161 C2162 1.524 . S
C2161 C2165 1.400 . S
C2162 H2147 0.960 . S
C2162 H2148 0.960 . S
C2162 H2149 0.960 . S
C2162 C2161 1.524 . S
C2163 C2160 1.403 . S
C2163 C2164 1.392 . S
C2163 C2167 1.495 . S
C2164 C2163 1.392 . S
C2164 C2165 1.385 . S
C2164 C2166 1.478 . S
C2165 H2159 0.930 . S
C2165 C2161 1.400 . S
C2165 C2164 1.385 . S
C2166 C2164 1.478 . S
C2166 C2168 1.381 . S
C2166 C2172 1.383 . S
C2167 C2163 1.495 . S
C2167 H2173 0.959 . S
C2167 H2174 0.961 . S
C2167 H2175 0.960 . S
C2168 C2166 1.381 . S
C2168 C2169 1.394 . S
C2168 H2176 0.930 . S
C2169 C2168 1.394 . S
C2169 C2170 1.383 . S
C2169 H2177 0.929 . S
C2170 C2169 1.383 . S
C2170 C2171 1.377 . S
C2171 H2155 0.930 . S
C2171 C2170 1.377 . S
C2171 C2172 1.379 . S
C2172 H2156 0.931 . S
C2172 C2166 1.383 . S
C2172 C2171 1.379 . S
H2173 C2167 0.959 . S
H2174 C2167 0.961 . S
H2175 C2167 0.960 . S
H2176 C2168 0.930 . S
H2177 C2169 0.929 . S
H2178 C2186 0.929 . S
H2179 C2188 0.930 . S
H2180 C2190 0.930 . S
H2181 C2193 0.929 . S
H2182 C2196 0.930 . S
H2183 C2198 0.960 . S
H2184 C2198 0.960 1_565 S
H2185 C2198 0.960 . S
C2186 H2178 0.929 . S
C2186 C2187 1.377 . S
C2186 C2188 1.384 . S
C2187 C2186 1.377 . S
C2187 C2193 1.390 . S
C2188 H2179 0.930 . S
C2188 C2186 1.384 . S
C2188 C2189 1.372 . S
C2189 C2188 1.372 . S
C2189 C2190 1.400 . S
C2189 C2194 1.490 . S
C2190 H2180 0.930 . S
C2190 C2189 1.400 . S
C2190 C2193 1.386 . S
H2191 C2207 0.967 . S
H2192 C2208 0.926 1_545 S
C2193 H2181 0.929 . S
C2193 C2187 1.390 . S
C2193 C2190 1.386 . S
C2194 C2189 1.490 . S
C2194 C2196 1.395 . S
C2194 C2197 1.403 . S
H2195 C2201 0.930 1_545 S
C2196 H2182 0.930 . S
C2196 C2194 1.395 . S
C2196 C2199 1.403 . S
C2197 C2194 1.403 . S
C2197 C2198 1.524 1_565 S
C2197 C2201 1.400 . S
C2198 H2183 0.960 . S
C2198 H2184 0.960 1_545 S
C2198 H2185 0.960 . S
C2198 C2197 1.524 1_545 S
C2199 C2196 1.403 . S
C2199 C2200 1.392 . S
C2199 C2203 1.495 . S
C2200 C2199 1.392 . S
C2200 C2201 1.385 . S
C2200 C2202 1.478 . S
C2201 H2195 0.930 1_565 S
C2201 C2197 1.400 . S
C2201 C2200 1.385 . S
C2202 C2200 1.478 . S
C2202 C2204 1.381 . S
C2202 C2208 1.383 . S
C2203 C2199 1.495 . S
C2203 H2209 0.959 . S
C2203 H2210 0.961 . S
C2203 H2211 0.960 . S
C2204 C2202 1.381 . S
C2204 C2205 1.394 . S
C2204 H2212 0.930 . S
C2205 C2204 1.394 . S
C2205 C2206 1.383 . S
C2205 H2213 0.929 . S
C2206 C2205 1.383 . S
C2206 C2207 1.351 1_565 S
C2207 H2191 0.967 . S
C2207 C2206 1.351 1_545 S
C2207 C2208 1.369 1_545 S
C2208 H2192 0.926 1_565 S
C2208 C2202 1.383 . S
C2208 C2207 1.369 1_565 S
H2209 C2203 0.959 . S
H2210 C2203 0.961 . S
H2211 C2203 0.960 . S
H2212 C2204 0.930 . S
H2213 C2205 0.929 . S
H2214 C2222 0.929 . S
H2215 C2224 0.930 1_655 S
H2216 C2226 0.930 . S
H2217 C2229 0.929 . S
H2218 C2232 0.930 . S
H2219 C2234 0.960 . S
H2220 C2234 0.960 . S
H2221 C2234 0.960 . S
C2222 H2214 0.929 . S
C2222 C2223 1.377 . S
C2222 C2224 1.384 . S
C2223 C2222 1.377 . S
C2223 C2229 1.390 . S
C2224 H2215 0.930 1_455 S
C2224 C2222 1.384 . S
C2224 C2225 1.372 . S
C2225 C2224 1.372 . S
C2225 C2226 1.400 . S
C2225 C2230 1.490 . S
C2226 H2216 0.930 . S
C2226 C2225 1.400 . S
C2226 C2229 1.386 . S
H2227 C2243 0.930 . S
H2228 C2244 0.931 . S
C2229 H2217 0.929 . S
C2229 C2223 1.390 . S
C2229 C2226 1.386 . S
C2230 C2225 1.490 . S
C2230 C2232 1.395 . S
C2230 C2233 1.403 . S
H2231 C2237 0.930 . S
C2232 H2218 0.930 . S
C2232 C2230 1.395 . S
C2232 C2235 1.403 . S
C2233 C2230 1.403 . S
C2233 C2234 1.524 . S
C2233 C2237 1.400 . S
C2234 H2219 0.960 . S
C2234 H2220 0.960 . S
C2234 H2221 0.960 . S
C2234 C2233 1.524 . S
C2235 C2232 1.403 . S
C2235 C2236 1.392 . S
C2235 C2239 1.495 . S
C2236 C2235 1.392 . S
C2236 C2237 1.385 . S
C2236 C2238 1.478 . S
C2237 H2231 0.930 . S
C2237 C2233 1.400 . S
C2237 C2236 1.385 . S
C2238 C2236 1.478 . S
C2238 C2240 1.381 1_455 S
C2238 C2244 1.383 . S
C2239 C2235 1.495 . S
C2239 H2245 0.962 1_455 S
C2239 H2246 0.961 . S
C2239 H2247 0.960 1_455 S
C2240 C2238 1.381 1_655 S
C2240 C2241 1.394 . S
C2240 H2248 0.930 . S
C2241 C2240 1.394 . S
C2241 C2242 1.383 1_655 S
C2241 H2249 0.929 . S
C2242 C2241 1.383 1_455 S
C2242 C2243 1.377 . S
C2243 H2227 0.930 . S
C2243 C2242 1.377 . S
C2243 C2244 1.379 . S
C2244 H2228 0.931 . S
C2244 C2238 1.383 . S
C2244 C2243 1.379 . S
H2245 C2239 0.962 1_655 S
H2246 C2239 0.961 . S
H2247 C2239 0.960 1_655 S
H2248 C2240 0.930 . S
H2249 C2241 0.929 . S
H2250 C2258 0.929 . S
H2251 C2260 0.930 . S
H2252 C2262 0.930 . S
H2253 C2265 0.929 . S
H2254 C2268 0.930 . S
H2255 C2270 0.960 . S
H2256 C2270 0.960 . S
H2257 C2270 0.960 . S
C2258 H2250 0.929 . S
C2258 C2259 1.377 . S
C2258 C2260 1.384 . S
C2259 C2258 1.377 . S
C2259 C2265 1.390 . S
C2260 H2251 0.930 . S
C2260 C2258 1.384 . S
C2260 C2261 1.372 . S
C2261 C2260 1.372 . S
C2261 C2262 1.400 . S
C2261 C2266 1.490 . S
C2262 H2252 0.930 . S
C2262 C2261 1.400 . S
C2262 C2265 1.386 . S
H2263 C2279 0.930 . S
H2264 C2280 0.931 . S
C2265 H2253 0.929 . S
C2265 C2259 1.390 . S
C2265 C2262 1.386 . S
C2266 C2261 1.490 . S
C2266 C2268 1.395 . S
C2266 C2269 1.403 . S
H2267 C2273 0.930 . S
C2268 H2254 0.930 . S
C2268 C2266 1.395 . S
C2268 C2271 1.403 . S
C2269 C2266 1.403 . S
C2269 C2270 1.524 . S
C2269 C2273 1.400 . S
C2270 H2255 0.960 . S
C2270 H2256 0.960 . S
C2270 H2257 0.960 . S
C2270 C2269 1.524 . S
C2271 C2268 1.403 . S
C2271 C2272 1.392 . S
C2271 C2275 1.495 . S
C2272 C2271 1.392 . S
C2272 C2273 1.385 . S
C2272 C2274 1.478 . S
C2273 H2267 0.930 . S
C2273 C2269 1.400 . S
C2273 C2272 1.385 . S
C2274 C2272 1.478 . S
C2274 C2276 1.381 . S
C2274 C2280 1.383 . S
C2275 C2271 1.495 . S
C2275 H2281 0.959 . S
C2275 H2282 0.961 . S
C2275 H2283 0.960 . S
C2276 C2274 1.381 . S
C2276 C2277 1.394 . S
C2276 H2284 0.930 . S
C2277 C2276 1.394 . S
C2277 C2278 1.383 . S
C2277 H2285 0.929 . S
C2278 C2277 1.383 . S
C2278 C2279 1.377 . S
C2279 H2263 0.930 . S
C2279 C2278 1.377 . S
C2279 C2280 1.379 . S
C2280 H2264 0.931 . S
C2280 C2274 1.383 . S
C2280 C2279 1.379 . S
H2281 C2275 0.959 . S
H2282 C2275 0.961 . S
H2283 C2275 0.960 . S
H2284 C2276 0.930 . S
H2285 C2277 0.929 . S
H2286 C2294 0.929 . S
H2287 C2296 0.904 1_455 S
H2288 C2298 0.930 . S
H2289 C2301 0.929 . S
H2290 C2304 0.930 . S
H2291 C2306 0.960 . S
H2292 C2306 0.960 . S
H2293 C2306 0.960 . S
C2294 H2286 0.929 . S
C2294 C2295 1.377 . S
C2294 C2296 1.384 . S
C2295 C2294 1.377 . S
C2295 C2301 1.390 . S
C2296 H2287 0.904 1_655 S
C2296 C2294 1.384 . S
C2296 C2297 1.372 . S
C2297 C2296 1.372 . S
C2297 C2298 1.400 . S
C2297 C2302 1.490 . S
C2298 H2288 0.930 . S
C2298 C2297 1.400 . S
C2298 C2301 1.386 . S
H2299 C2315 0.930 . S
H2300 C2316 0.931 . S
C2301 H2289 0.929 . S
C2301 C2295 1.390 . S
C2301 C2298 1.386 . S
C2302 C2297 1.490 . S
C2302 C2304 1.395 . S
C2302 C2305 1.403 . S
H2303 C2309 0.930 . S
C2304 H2290 0.930 . S
C2304 C2302 1.395 . S
C2304 C2307 1.403 . S
C2305 C2302 1.403 . S
C2305 C2306 1.524 . S
C2305 C2309 1.400 . S
C2306 H2291 0.960 . S
C2306 H2292 0.960 . S
C2306 H2293 0.960 . S
C2306 C2305 1.524 . S
C2307 C2304 1.403 . S
C2307 C2308 1.392 . S
C2307 C2311 1.495 . S
C2308 C2307 1.392 . S
C2308 C2309 1.385 . S
C2308 C2310 1.478 . S
C2309 H2303 0.930 . S
C2309 C2305 1.400 . S
C2309 C2308 1.385 . S
C2310 C2308 1.478 . S
C2310 C2312 1.381 1_655 S
C2310 C2316 1.383 . S
C2311 C2307 1.495 . S
C2311 H2317 0.959 . S
C2311 H2318 0.961 . S
C2311 H2319 0.960 . S
C2312 C2310 1.381 1_455 S
C2312 C2313 1.394 . S
C2312 H2320 0.930 . S
C2313 C2312 1.394 . S
C2313 C2314 1.383 1_455 S
C2313 H2321 0.929 . S
C2314 C2313 1.383 1_655 S
C2314 C2315 1.377 . S
C2315 H2299 0.930 . S
C2315 C2314 1.377 . S
C2315 C2316 1.379 . S
C2316 H2300 0.931 . S
C2316 C2310 1.383 . S
C2316 C2315 1.379 . S
H2317 C2311 0.959 . S
H2318 C2311 0.961 . S
H2319 C2311 0.960 . S
H2320 C2312 0.930 . S
H2321 C2313 0.929 . S
H2322 C2330 0.929 . S
H2323 C2332 0.930 . S
H2324 C2334 0.930 . S
H2325 C2337 0.929 . S
H2326 C2340 0.930 . S
H2327 C2342 0.960 . S
H2328 C2342 0.960 . S
H2329 C2342 0.960 . S
C2330 H2322 0.929 . S
C2330 C2331 1.377 . S
C2330 C2332 1.384 . S
C2331 C2330 1.377 . S
C2331 C2337 1.390 . S
C2332 H2323 0.930 . S
C2332 C2330 1.384 . S
C2332 C2333 1.372 . S
C2333 C2332 1.372 . S
C2333 C2334 1.400 . S
C2333 C2338 1.490 . S
C2334 H2324 0.930 . S
C2334 C2333 1.400 . S
C2334 C2337 1.386 . S
H2335 C2351 0.930 . S
H2336 C2352 0.931 . S
C2337 H2325 0.929 . S
C2337 C2331 1.390 . S
C2337 C2334 1.386 . S
C2338 C2333 1.490 . S
C2338 C2340 1.395 . S
C2338 C2341 1.403 . S
H2339 C2345 0.930 . S
C2340 H2326 0.930 . S
C2340 C2338 1.395 . S
C2340 C2343 1.403 . S
C2341 C2338 1.403 . S
C2341 C2342 1.524 . S
C2341 C2345 1.400 . S
C2342 H2327 0.960 . S
C2342 H2328 0.960 . S
C2342 H2329 0.960 . S
C2342 C2341 1.524 . S
C2343 C2340 1.403 . S
C2343 C2344 1.392 . S
C2343 C2347 1.495 . S
C2344 C2343 1.392 . S
C2344 C2345 1.385 . S
C2344 C2346 1.478 . S
C2345 H2339 0.930 . S
C2345 C2341 1.400 . S
C2345 C2344 1.385 . S
C2346 C2344 1.478 . S
C2346 C2348 1.381 . S
C2346 C2352 1.383 . S
C2347 C2343 1.495 . S
C2347 H2353 0.959 . S
C2347 H2354 0.961 . S
C2347 H2355 0.960 . S
C2348 C2346 1.381 . S
C2348 C2349 1.394 . S
C2348 H2356 0.930 . S
C2349 C2348 1.394 . S
C2349 C2350 1.383 . S
C2349 H2357 0.929 . S
C2350 C2349 1.383 . S
C2350 C2351 1.377 . S
C2351 H2335 0.930 . S
C2351 C2350 1.377 . S
C2351 C2352 1.379 . S
C2352 H2336 0.931 . S
C2352 C2346 1.383 . S
C2352 C2351 1.379 . S
H2353 C2347 0.959 . S
H2354 C2347 0.961 . S
H2355 C2347 0.960 . S
H2356 C2348 0.930 . S
H2357 C2349 0.929 . S
H2358 C2366 0.929 . S
H2359 C2368 0.930 . S
H2360 C2370 0.930 . S
H2361 C2373 0.929 . S
H2362 C2376 0.930 . S
H2363 C2378 0.960 1_565 S
H2364 C2378 0.960 . S
H2365 C2378 0.960 1_565 S
C2366 H2358 0.929 . S
C2366 C2367 1.377 . S
C2366 C2368 1.384 . S
C2367 C2366 1.377 . S
C2367 C2373 1.390 . S
C2368 H2359 0.930 . S
C2368 C2366 1.384 . S
C2368 C2369 1.372 . S
C2369 C2368 1.372 . S
C2369 C2370 1.400 . S
C2369 C2374 1.490 . S
C2370 H2360 0.930 . S
C2370 C2369 1.400 . S
C2370 C2373 1.386 . S
H2371 C2387 0.930 . S
H2372 C2388 0.931 1_565 S
C2373 H2361 0.929 . S
C2373 C2367 1.390 . S
C2373 C2370 1.386 . S
C2374 C2369 1.490 . S
C2374 C2376 1.395 . S
C2374 C2377 1.403 . S
H2375 C2381 0.930 . S
C2376 H2362 0.930 . S
C2376 C2374 1.395 . S
C2376 C2379 1.403 . S
C2377 C2374 1.403 . S
C2377 C2378 1.524 . S
C2377 C2381 1.400 . S
C2378 H2363 0.960 1_545 S
C2378 H2364 0.960 . S
C2378 H2365 0.960 1_545 S
C2378 C2377 1.524 . S
C2379 C2376 1.403 . S
C2379 C2380 1.392 . S
C2379 C2383 1.495 . S
C2380 C2379 1.392 . S
C2380 C2381 1.385 . S
C2380 C2382 1.478 . S
C2381 H2375 0.930 . S
C2381 C2377 1.400 . S
C2381 C2380 1.385 . S
C2382 C2380 1.478 . S
C2382 C2384 1.381 . S
C2382 C2388 1.383 . S
C2383 C2379 1.495 . S
C2383 H2389 0.959 . S
C2383 H2390 0.961 . S
C2383 H2391 0.960 . S
C2384 C2382 1.381 . S
C2384 C2385 1.394 . S
C2384 H2392 0.930 . S
C2385 C2384 1.394 . S
C2385 C2386 1.383 . S
C2385 H2393 0.929 . S
C2386 C2385 1.383 . S
C2386 C2387 1.377 1_545 S
C2387 H2371 0.930 . S
C2387 C2386 1.377 1_565 S
C2387 C2388 1.379 1_565 S
C2388 H2372 0.931 1_545 S
C2388 C2382 1.383 . S
C2388 C2387 1.379 1_545 S
H2389 C2383 0.959 . S
H2390 C2383 0.961 . S
H2391 C2383 0.960 . S
H2392 C2384 0.930 . S
H2393 C2385 0.929 . S
H2394 C2402 0.929 . S
H2395 C2404 0.930 . S
H2396 C2406 0.930 . S
H2397 C2409 0.929 . S
H2398 C2412 0.930 . S
H2399 C2414 0.960 . S
H2400 C2414 0.960 . S
H2401 C2414 0.960 . S
C2402 H2394 0.929 . S
C2402 C2403 1.377 . S
C2402 C2404 1.384 . S
C2403 C2402 1.377 . S
C2403 C2409 1.390 . S
C2404 H2395 0.930 . S
C2404 C2402 1.384 . S
C2404 C2405 1.372 . S
C2405 C2404 1.372 . S
C2405 C2406 1.400 . S
C2405 C2410 1.490 . S
C2406 H2396 0.930 . S
C2406 C2405 1.400 . S
C2406 C2409 1.386 . S
H2407 C2423 0.930 . S
H2408 C2424 0.931 . S
C2409 H2397 0.929 . S
C2409 C2403 1.390 . S
C2409 C2406 1.386 . S
C2410 C2405 1.490 . S
C2410 C2412 1.395 . S
C2410 C2413 1.403 . S
H2411 C2417 0.930 . S
C2412 H2398 0.930 . S
C2412 C2410 1.395 . S
C2412 C2415 1.403 . S
C2413 C2410 1.403 . S
C2413 C2414 1.524 . S
C2413 C2417 1.400 . S
C2414 H2399 0.960 . S
C2414 H2400 0.960 . S
C2414 H2401 0.960 . S
C2414 C2413 1.524 . S
C2415 C2412 1.403 . S
C2415 C2416 1.392 . S
C2415 C2419 1.495 . S
C2416 C2415 1.392 . S
C2416 C2417 1.385 . S
C2416 C2418 1.478 . S
C2417 H2411 0.930 . S
C2417 C2413 1.400 . S
C2417 C2416 1.385 . S
C2418 C2416 1.478 . S
C2418 C2420 1.381 . S
C2418 C2424 1.383 . S
C2419 C2415 1.495 . S
C2419 H2425 0.959 . S
C2419 H2426 0.961 . S
C2419 H2427 0.960 . S
C2420 C2418 1.381 . S
C2420 C2421 1.394 . S
C2420 H2428 0.930 . S
C2421 C2420 1.394 . S
C2421 C2422 1.383 . S
C2421 H2429 0.929 . S
C2422 C2421 1.383 . S
C2422 C2423 1.377 . S
C2423 H2407 0.930 . S
C2423 C2422 1.377 . S
C2423 C2424 1.379 . S
C2424 H2408 0.931 . S
C2424 C2418 1.383 . S
C2424 C2423 1.379 . S
H2425 C2419 0.959 . S
H2426 C2419 0.961 . S
H2427 C2419 0.960 . S
H2428 C2420 0.930 . S
H2429 C2421 0.929 . S
H2430 C2438 0.929 . S
H2431 C2440 0.930 . S
H2432 C2442 0.930 . S
H2433 C2445 0.929 . S
H2434 C2448 0.930 . S
H2435 C2450 0.960 . S
H2436 C2450 0.960 . S
H2437 C2450 0.960 . S
C2438 H2430 0.929 . S
C2438 C2439 1.377 . S
C2438 C2440 1.384 . S
C2439 C2438 1.377 . S
C2439 C2445 1.390 . S
C2440 H2431 0.930 . S
C2440 C2438 1.384 . S
C2440 C2441 1.372 . S
C2441 C2440 1.372 . S
C2441 C2442 1.400 . S
C2441 C2446 1.490 . S
C2442 H2432 0.930 . S
C2442 C2441 1.400 . S
C2442 C2445 1.386 . S
H2443 C2459 0.930 . S
H2444 C2460 0.931 . S
C2445 H2433 0.929 . S
C2445 C2439 1.390 . S
C2445 C2442 1.386 . S
C2446 C2441 1.490 . S
C2446 C2448 1.395 . S
C2446 C2449 1.403 . S
H2447 C2453 0.930 . S
C2448 H2434 0.930 . S
C2448 C2446 1.395 . S
C2448 C2451 1.403 . S
C2449 C2446 1.403 . S
C2449 C2450 1.524 . S
C2449 C2453 1.400 . S
C2450 H2435 0.960 . S
C2450 H2436 0.960 . S
C2450 H2437 0.960 . S
C2450 C2449 1.524 . S
C2451 C2448 1.403 . S
C2451 C2452 1.392 . S
C2451 C2455 1.495 . S
C2452 C2451 1.392 . S
C2452 C2453 1.385 . S
C2452 C2454 1.478 . S
C2453 H2447 0.930 . S
C2453 C2449 1.400 . S
C2453 C2452 1.385 . S
C2454 C2452 1.478 . S
C2454 C2456 1.381 . S
C2454 C2460 1.383 . S
C2455 C2451 1.495 . S
C2455 H2461 0.959 . S
C2455 H2462 0.961 . S
C2455 H2463 0.960 . S
C2456 C2454 1.381 . S
C2456 C2457 1.394 . S
C2456 H2464 0.930 . S
C2457 C2456 1.394 . S
C2457 C2458 1.383 . S
C2457 H2465 0.929 . S
C2458 C2457 1.383 . S
C2458 C2459 1.377 . S
C2459 H2443 0.930 . S
C2459 C2458 1.377 . S
C2459 C2460 1.379 . S
C2460 H2444 0.931 . S
C2460 C2454 1.383 . S
C2460 C2459 1.379 . S
H2461 C2455 0.959 . S
H2462 C2455 0.961 . S
H2463 C2455 0.960 . S
H2464 C2456 0.930 . S
H2465 C2457 0.929 . S
H2466 C2474 0.929 . S
H2467 C2476 0.930 . S
H2468 C2478 0.930 . S
H2469 C2481 0.929 . S
H2470 C2484 0.930 . S
H2471 C2486 0.960 . S
H2472 C2486 0.960 . S
H2473 C2486 0.960 . S
C2474 H2466 0.929 . S
C2474 C2475 1.377 . S
C2474 C2476 1.384 . S
C2475 C2474 1.377 . S
C2475 C2481 1.390 . S
C2476 H2467 0.930 . S
C2476 C2474 1.384 . S
C2476 C2477 1.372 . S
C2477 C2476 1.372 . S
C2477 C2478 1.400 . S
C2477 C2482 1.490 . S
C2478 H2468 0.930 . S
C2478 C2477 1.400 . S
C2478 C2481 1.386 . S
H2479 C2495 0.930 . S
H2480 C2496 0.931 . S
C2481 H2469 0.929 . S
C2481 C2475 1.390 . S
C2481 C2478 1.386 . S
C2482 C2477 1.490 . S
C2482 C2484 1.395 . S
C2482 C2485 1.403 . S
H2483 C2489 0.930 . S
C2484 H2470 0.930 . S
C2484 C2482 1.395 . S
C2484 C2487 1.403 . S
C2485 C2482 1.403 . S
C2485 C2486 1.524 . S
C2485 C2489 1.400 . S
C2486 H2471 0.960 . S
C2486 H2472 0.960 . S
C2486 H2473 0.960 . S
C2486 C2485 1.524 . S
C2487 C2484 1.403 . S
C2487 C2488 1.392 . S
C2487 C2491 1.495 . S
C2488 C2487 1.392 . S
C2488 C2489 1.385 . S
C2488 C2490 1.478 . S
C2489 H2483 0.930 . S
C2489 C2485 1.400 . S
C2489 C2488 1.385 . S
C2490 C2488 1.478 . S
C2490 C2492 1.381 . S
C2490 C2496 1.383 . S
C2491 C2487 1.495 . S
C2491 H2497 0.959 . S
C2491 H2498 0.961 . S
C2491 H2499 0.960 . S
C2492 C2490 1.381 . S
C2492 C2493 1.394 . S
C2492 H2500 0.930 . S
C2493 C2492 1.394 . S
C2493 C2494 1.383 . S
C2493 H2501 0.929 . S
C2494 C2493 1.383 . S
C2494 C2495 1.377 . S
C2495 H2479 0.930 . S
C2495 C2494 1.377 . S
C2495 C2496 1.379 . S
C2496 H2480 0.931 . S
C2496 C2490 1.383 . S
C2496 C2495 1.379 . S
H2497 C2491 0.959 . S
H2498 C2491 0.961 . S
H2499 C2491 0.960 . S
H2500 C2492 0.930 . S
H2501 C2493 0.929 . S
H2502 C2510 0.929 . S
H2503 C2512 0.930 . S
H2504 C2514 0.930 . S
H2505 C2517 0.929 . S
H2506 C2520 0.930 . S
H2507 C2522 0.960 . S
H2508 C2522 0.960 . S
H2509 C2522 0.960 . S
C2510 H2502 0.929 . S
C2510 C2511 1.377 . S
C2510 C2512 1.384 . S
C2511 C2510 1.377 . S
C2511 C2517 1.390 . S
C2512 H2503 0.930 . S
C2512 C2510 1.384 . S
C2512 C2513 1.372 . S
C2513 C2512 1.372 . S
C2513 C2514 1.400 . S
C2513 C2518 1.490 . S
C2514 H2504 0.930 . S
C2514 C2513 1.400 . S
C2514 C2517 1.386 . S
H2515 C2531 0.930 . S
H2516 C2532 0.931 . S
C2517 H2505 0.929 . S
C2517 C2511 1.390 . S
C2517 C2514 1.386 . S
C2518 C2513 1.490 . S
C2518 C2520 1.395 . S
C2518 C2521 1.403 . S
H2519 C2525 0.930 . S
C2520 H2506 0.930 . S
C2520 C2518 1.395 . S
C2520 C2523 1.403 . S
C2521 C2518 1.403 . S
C2521 C2522 1.524 . S
C2521 C2525 1.400 . S
C2522 H2507 0.960 . S
C2522 H2508 0.960 . S
C2522 H2509 0.960 . S
C2522 C2521 1.524 . S
C2523 C2520 1.403 . S
C2523 C2524 1.392 . S
C2523 C2527 1.495 . S
C2524 C2523 1.392 . S
C2524 C2525 1.385 . S
C2524 C2526 1.478 . S
C2525 H2519 0.930 . S
C2525 C2521 1.400 . S
C2525 C2524 1.385 . S
C2526 C2524 1.478 . S
C2526 C2528 1.381 . S
C2526 C2532 1.383 . S
C2527 C2523 1.495 . S
C2527 H2533 0.959 . S
C2527 H2534 0.961 . S
C2527 H2535 0.960 . S
C2528 C2526 1.381 . S
C2528 C2529 1.394 . S
C2528 H2536 0.930 . S
C2529 C2528 1.394 . S
C2529 C2530 1.383 . S
C2529 H2537 0.929 . S
C2530 C2529 1.383 . S
C2530 C2531 1.377 . S
C2531 H2515 0.930 . S
C2531 C2530 1.377 . S
C2531 C2532 1.379 . S
C2532 H2516 0.931 . S
C2532 C2526 1.383 . S
C2532 C2531 1.379 . S
H2533 C2527 0.959 . S
H2534 C2527 0.961 . S
H2535 C2527 0.960 . S
H2536 C2528 0.930 . S
H2537 C2529 0.929 . S
H2538 C2546 0.929 . S
H2539 C2548 0.930 . S
H2540 C2550 0.930 . S
H2541 C2553 0.929 . S
H2542 C2556 0.930 . S
H2543 C2558 0.960 . S
H2544 C2558 0.960 . S
H2545 C2558 0.960 . S
C2546 H2538 0.929 . S
C2546 C2547 1.377 . S
C2546 C2548 1.384 . S
C2547 C2546 1.377 . S
C2547 C2553 1.390 . S
C2548 H2539 0.930 . S
C2548 C2546 1.384 . S
C2548 C2549 1.372 . S
C2549 C2548 1.372 . S
C2549 C2550 1.400 . S
C2549 C2554 1.490 . S
C2550 H2540 0.930 . S
C2550 C2549 1.400 . S
C2550 C2553 1.386 . S
H2551 C2567 0.930 . S
H2552 C2568 0.931 . S
C2553 H2541 0.929 . S
C2553 C2547 1.390 . S
C2553 C2550 1.386 . S
C2554 C2549 1.490 . S
C2554 C2556 1.395 . S
C2554 C2557 1.403 . S
H2555 C2561 0.930 . S
C2556 H2542 0.930 . S
C2556 C2554 1.395 . S
C2556 C2559 1.403 . S
C2557 C2554 1.403 . S
C2557 C2558 1.524 . S
C2557 C2561 1.400 . S
C2558 H2543 0.960 . S
C2558 H2544 0.960 . S
C2558 H2545 0.960 . S
C2558 C2557 1.524 . S
C2559 C2556 1.403 . S
C2559 C2560 1.392 . S
C2559 C2563 1.495 . S
C2560 C2559 1.392 . S
C2560 C2561 1.385 . S
C2560 C2562 1.478 . S
C2561 H2555 0.930 . S
C2561 C2557 1.400 . S
C2561 C2560 1.385 . S
C2562 C2560 1.478 . S
C2562 C2564 1.381 . S
C2562 C2568 1.383 . S
C2563 C2559 1.495 . S
C2563 H2569 0.959 . S
C2563 H2570 0.961 . S
C2563 H2571 0.960 . S
C2564 C2562 1.381 . S
C2564 C2565 1.394 . S
C2564 H2572 0.930 . S
C2565 C2564 1.394 . S
C2565 C2566 1.383 . S
C2565 H2573 0.929 . S
C2566 C2565 1.383 . S
C2566 C2567 1.377 . S
C2567 H2551 0.930 . S
C2567 C2566 1.377 . S
C2567 C2568 1.379 . S
C2568 H2552 0.931 . S
C2568 C2562 1.383 . S
C2568 C2567 1.379 . S
H2569 C2563 0.959 . S
H2570 C2563 0.961 . S
H2571 C2563 0.960 . S
H2572 C2564 0.930 . S
H2573 C2565 0.929 . S
H2574 C2582 0.929 . S
H2575 C2584 0.930 . S
H2576 C2586 0.930 . S
H2577 C2589 0.929 . S
H2578 C2592 0.930 . S
H2579 C2594 0.960 . S
H2580 C2594 0.960 . S
H2581 C2594 0.960 . S
C2582 H2574 0.929 . S
C2582 C2583 1.377 . S
C2582 C2584 1.384 . S
C2583 C2582 1.377 . S
C2583 C2589 1.390 . S
C2584 H2575 0.930 . S
C2584 C2582 1.384 . S
C2584 C2585 1.372 . S
C2585 C2584 1.372 . S
C2585 C2586 1.400 . S
C2585 C2590 1.490 . S
C2586 H2576 0.930 . S
C2586 C2585 1.400 . S
C2586 C2589 1.386 . S
H2587 C2603 0.930 . S
H2588 C2604 0.931 . S
C2589 H2577 0.929 . S
C2589 C2583 1.390 . S
C2589 C2586 1.386 . S
C2590 C2585 1.490 . S
C2590 C2592 1.395 . S
C2590 C2593 1.403 . S
H2591 C2597 0.930 . S
C2592 H2578 0.930 . S
C2592 C2590 1.395 . S
C2592 C2595 1.403 . S
C2593 C2590 1.403 . S
C2593 C2594 1.524 . S
C2593 C2597 1.400 . S
C2594 H2579 0.960 . S
C2594 H2580 0.960 . S
C2594 H2581 0.960 . S
C2594 C2593 1.524 . S
C2595 C2592 1.403 . S
C2595 C2596 1.392 . S
C2595 C2599 1.495 . S
C2596 C2595 1.392 . S
C2596 C2597 1.385 . S
C2596 C2598 1.478 . S
C2597 H2591 0.930 . S
C2597 C2593 1.400 . S
C2597 C2596 1.385 . S
C2598 C2596 1.478 . S
C2598 C2600 1.381 . S
C2598 C2604 1.383 . S
C2599 C2595 1.495 . S
C2599 H2605 0.959 . S
C2599 H2606 0.961 . S
C2599 H2607 0.960 . S
C2600 C2598 1.381 . S
C2600 C2601 1.394 . S
C2600 H2608 0.930 . S
C2601 C2600 1.394 . S
C2601 C2602 1.383 . S
C2601 H2609 0.929 . S
C2602 C2601 1.383 . S
C2602 C2603 1.377 . S
C2603 H2587 0.930 . S
C2603 C2602 1.377 . S
C2603 C2604 1.379 . S
C2604 H2588 0.931 . S
C2604 C2598 1.383 . S
C2604 C2603 1.379 . S
H2605 C2599 0.959 . S
H2606 C2599 0.961 . S
H2607 C2599 0.960 . S
H2608 C2600 0.930 . S
H2609 C2601 0.929 . S
H2610 C2618 0.929 . S
H2611 C2620 0.930 . S
H2612 C2622 0.930 . S
H2613 C2625 0.929 . S
H2614 C2628 0.930 . S
H2615 C2630 0.960 . S
H2616 C2630 0.960 . S
H2617 C2630 0.960 . S
C2618 H2610 0.929 . S
C2618 C2619 1.377 . S
C2618 C2620 1.384 . S
C2619 C2618 1.377 . S
C2619 C2625 1.390 . S
C2620 H2611 0.930 . S
C2620 C2618 1.384 . S
C2620 C2621 1.372 . S
C2621 C2620 1.372 . S
C2621 C2622 1.400 . S
C2621 C2626 1.490 . S
C2622 H2612 0.930 . S
C2622 C2621 1.400 . S
C2622 C2625 1.386 . S
H2623 C2639 0.930 . S
H2624 C2640 0.931 . S
C2625 H2613 0.929 . S
C2625 C2619 1.390 . S
C2625 C2622 1.386 . S
C2626 C2621 1.490 . S
C2626 C2628 1.395 . S
C2626 C2629 1.403 . S
H2627 C2633 0.930 . S
C2628 H2614 0.930 . S
C2628 C2626 1.395 . S
C2628 C2631 1.403 . S
C2629 C2626 1.403 . S
C2629 C2630 1.524 . S
C2629 C2633 1.400 . S
C2630 H2615 0.960 . S
C2630 H2616 0.960 . S
C2630 H2617 0.960 . S
C2630 C2629 1.524 . S
C2631 C2628 1.403 . S
C2631 C2632 1.392 . S
C2631 C2635 1.495 . S
C2632 C2631 1.392 . S
C2632 C2633 1.385 . S
C2632 C2634 1.478 . S
C2633 H2627 0.930 . S
C2633 C2629 1.400 . S
C2633 C2632 1.385 . S
C2634 C2632 1.478 . S
C2634 C2636 1.381 . S
C2634 C2640 1.383 . S
C2635 C2631 1.495 . S
C2635 H2641 0.959 . S
C2635 H2642 0.961 . S
C2635 H2643 0.960 . S
C2636 C2634 1.381 . S
C2636 C2637 1.394 . S
C2636 H2644 0.930 . S
C2637 C2636 1.394 . S
C2637 C2638 1.383 . S
C2637 H2645 0.929 . S
C2638 C2637 1.383 . S
C2638 C2639 1.377 . S
C2639 H2623 0.930 . S
C2639 C2638 1.377 . S
C2639 C2640 1.379 . S
C2640 H2624 0.931 . S
C2640 C2634 1.383 . S
C2640 C2639 1.379 . S
H2641 C2635 0.959 . S
H2642 C2635 0.961 . S
H2643 C2635 0.960 . S
H2644 C2636 0.930 . S
H2645 C2637 0.929 . S
H2646 C2654 0.929 . S
H2647 C2656 0.930 . S
H2648 C2658 0.930 . S
H2649 C2661 0.929 . S
H2650 C2664 0.930 . S
H2651 C2666 0.960 . S
H2652 C2666 0.960 . S
H2653 C2666 0.960 . S
C2654 H2646 0.929 . S
C2654 C2655 1.377 . S
C2654 C2656 1.384 . S
C2655 C2654 1.377 . S
C2655 C2661 1.390 . S
C2656 H2647 0.930 . S
C2656 C2654 1.384 . S
C2656 C2657 1.372 . S
C2657 C2656 1.372 . S
C2657 C2658 1.400 . S
C2657 C2662 1.490 . S
C2658 H2648 0.930 . S
C2658 C2657 1.400 . S
C2658 C2661 1.386 . S
H2659 C2675 0.930 . S
H2660 C2676 0.931 . S
C2661 H2649 0.929 . S
C2661 C2655 1.390 . S
C2661 C2658 1.386 . S
C2662 C2657 1.490 . S
C2662 C2664 1.395 . S
C2662 C2665 1.403 . S
H2663 C2669 0.930 . S
C2664 H2650 0.930 . S
C2664 C2662 1.395 . S
C2664 C2667 1.403 . S
C2665 C2662 1.403 . S
C2665 C2666 1.524 . S
C2665 C2669 1.400 . S
C2666 H2651 0.960 . S
C2666 H2652 0.960 . S
C2666 H2653 0.960 . S
C2666 C2665 1.524 . S
C2667 C2664 1.403 . S
C2667 C2668 1.392 . S
C2667 C2671 1.495 . S
C2668 C2667 1.392 . S
C2668 C2669 1.385 . S
C2668 C2670 1.478 . S
C2669 H2663 0.930 . S
C2669 C2665 1.400 . S
C2669 C2668 1.385 . S
C2670 C2668 1.478 . S
C2670 C2672 1.381 . S
C2670 C2676 1.383 . S
C2671 C2667 1.495 . S
C2671 H2677 0.959 . S
C2671 H2678 0.961 . S
C2671 H2679 0.960 . S
C2672 C2670 1.381 . S
C2672 C2673 1.394 . S
C2672 H2680 0.930 . S
C2673 C2672 1.394 . S
C2673 C2674 1.383 . S
C2673 H2681 0.929 . S
C2674 C2673 1.383 . S
C2674 C2675 1.377 . S
C2675 H2659 0.930 . S
C2675 C2674 1.377 . S
C2675 C2676 1.379 . S
C2676 H2660 0.931 . S
C2676 C2670 1.383 . S
C2676 C2675 1.379 . S
H2677 C2671 0.959 . S
H2678 C2671 0.961 . S
H2679 C2671 0.960 . S
H2680 C2672 0.930 . S
H2681 C2673 0.929 . S
H2682 C2690 0.929 . S
H2683 C2692 0.930 . S
H2684 C2694 0.930 . S
H2685 C2697 0.929 . S
H2686 C2700 0.930 . S
H2687 C2702 0.960 . S
H2688 C2702 0.960 . S
H2689 C2702 0.960 . S
C2690 H2682 0.929 . S
C2690 C2691 1.377 . S
C2690 C2692 1.384 . S
C2691 C2690 1.377 . S
C2691 C2697 1.390 . S
C2692 H2683 0.930 . S
C2692 C2690 1.384 . S
C2692 C2693 1.372 . S
C2693 C2692 1.372 . S
C2693 C2694 1.400 . S
C2693 C2698 1.490 . S
C2694 H2684 0.930 . S
C2694 C2693 1.400 . S
C2694 C2697 1.386 . S
H2695 C2711 0.930 . S
H2696 C2712 0.931 . S
C2697 H2685 0.929 . S
C2697 C2691 1.390 . S
C2697 C2694 1.386 . S
C2698 C2693 1.490 . S
C2698 C2700 1.395 . S
C2698 C2701 1.403 . S
H2699 C2705 0.930 . S
C2700 H2686 0.930 . S
C2700 C2698 1.395 . S
C2700 C2703 1.403 . S
C2701 C2698 1.403 . S
C2701 C2702 1.524 . S
C2701 C2705 1.400 . S
C2702 H2687 0.960 . S
C2702 H2688 0.960 . S
C2702 H2689 0.960 . S
C2702 C2701 1.524 . S
C2703 C2700 1.403 . S
C2703 C2704 1.392 . S
C2703 C2707 1.495 . S
C2704 C2703 1.392 . S
C2704 C2705 1.385 . S
C2704 C2706 1.478 . S
C2705 H2699 0.930 . S
C2705 C2701 1.400 . S
C2705 C2704 1.385 . S
C2706 C2704 1.478 . S
C2706 C2708 1.381 . S
C2706 C2712 1.383 . S
C2707 C2703 1.495 . S
C2707 H2713 0.959 . S
C2707 H2714 0.961 . S
C2707 H2715 0.960 . S
C2708 C2706 1.381 . S
C2708 C2709 1.394 . S
C2708 H2716 0.930 . S
C2709 C2708 1.394 . S
C2709 C2710 1.383 . S
C2709 H2717 0.929 . S
C2710 C2709 1.383 . S
C2710 C2711 1.377 . S
C2711 H2695 0.930 . S
C2711 C2710 1.377 . S
C2711 C2712 1.379 . S
C2712 H2696 0.931 . S
C2712 C2706 1.383 . S
C2712 C2711 1.379 . S
H2713 C2707 0.959 . S
H2714 C2707 0.961 . S
H2715 C2707 0.960 . S
H2716 C2708 0.930 . S
H2717 C2709 0.929 . S
H2718 C2726 0.929 . S
H2719 C2728 0.930 . S
H2720 C2730 0.930 . S
H2721 C2733 0.929 . S
H2722 C2736 0.930 . S
H2723 C2738 0.960 . S
H2724 C2738 0.960 . S
H2725 C2738 0.960 . S
C2726 H2718 0.929 . S
C2726 C2727 1.377 . S
C2726 C2728 1.384 . S
C2727 C2726 1.377 . S
C2727 C2733 1.390 . S
C2728 H2719 0.930 . S
C2728 C2726 1.384 . S
C2728 C2729 1.372 . S
C2729 C2728 1.372 . S
C2729 C2730 1.400 . S
C2729 C2734 1.490 . S
C2730 H2720 0.930 . S
C2730 C2729 1.400 . S
C2730 C2733 1.386 . S
H2731 C2747 0.930 . S
H2732 C2748 0.931 . S
C2733 H2721 0.929 . S
C2733 C2727 1.390 . S
C2733 C2730 1.386 . S
C2734 C2729 1.490 . S
C2734 C2736 1.395 . S
C2734 C2737 1.403 . S
H2735 C2741 0.930 . S
C2736 H2722 0.930 . S
C2736 C2734 1.395 . S
C2736 C2739 1.403 . S
C2737 C2734 1.403 . S
C2737 C2738 1.524 . S
C2737 C2741 1.400 . S
C2738 H2723 0.960 . S
C2738 H2724 0.960 . S
C2738 H2725 0.960 . S
C2738 C2737 1.524 . S
C2739 C2736 1.403 . S
C2739 C2740 1.392 . S
C2739 C2743 1.495 . S
C2740 C2739 1.392 . S
C2740 C2741 1.385 . S
C2740 C2742 1.478 . S
C2741 H2735 0.930 . S
C2741 C2737 1.400 . S
C2741 C2740 1.385 . S
C2742 C2740 1.478 . S
C2742 C2744 1.381 . S
C2742 C2748 1.383 . S
C2743 C2739 1.495 . S
C2743 H2749 0.959 . S
C2743 H2750 0.961 . S
C2743 H2751 0.960 . S
C2744 C2742 1.381 . S
C2744 C2745 1.394 . S
C2744 H2752 0.930 . S
C2745 C2744 1.394 . S
C2745 C2746 1.383 . S
C2745 H2753 0.929 . S
C2746 C2745 1.383 . S
C2746 C2747 1.377 . S
C2747 H2731 0.930 . S
C2747 C2746 1.377 . S
C2747 C2748 1.379 . S
C2748 H2732 0.931 . S
C2748 C2742 1.383 . S
C2748 C2747 1.379 . S
H2749 C2743 0.959 . S
H2750 C2743 0.961 . S
H2751 C2743 0.960 . S
H2752 C2744 0.930 . S
H2753 C2745 0.929 . S
H2754 C2762 0.929 . S
H2755 C2764 0.930 . S
H2756 C2766 0.930 . S
H2757 C2769 0.929 . S
H2758 C2772 0.930 . S
H2759 C2774 0.960 . S
H2760 C2774 0.960 . S
H2761 C2774 0.960 . S
C2762 H2754 0.929 . S
C2762 C2763 1.377 . S
C2762 C2764 1.384 . S
C2763 C2762 1.377 . S
C2763 C2769 1.390 . S
C2764 H2755 0.930 . S
C2764 C2762 1.384 . S
C2764 C2765 1.372 . S
C2765 C2764 1.372 . S
C2765 C2766 1.400 . S
C2765 C2770 1.490 . S
C2766 H2756 0.930 . S
C2766 C2765 1.400 . S
C2766 C2769 1.386 . S
H2767 C2783 0.930 . S
H2768 C2784 0.931 . S
C2769 H2757 0.929 . S
C2769 C2763 1.390 . S
C2769 C2766 1.386 . S
C2770 C2765 1.490 . S
C2770 C2772 1.395 . S
C2770 C2773 1.403 . S
H2771 C2777 0.930 . S
C2772 H2758 0.930 . S
C2772 C2770 1.395 . S
C2772 C2775 1.403 . S
C2773 C2770 1.403 . S
C2773 C2774 1.524 . S
C2773 C2777 1.400 . S
C2774 H2759 0.960 . S
C2774 H2760 0.960 . S
C2774 H2761 0.960 . S
C2774 C2773 1.524 . S
C2775 C2772 1.403 . S
C2775 C2776 1.392 . S
C2775 C2779 1.495 . S
C2776 C2775 1.392 . S
C2776 C2777 1.385 . S
C2776 C2778 1.478 . S
C2777 H2771 0.930 . S
C2777 C2773 1.400 . S
C2777 C2776 1.385 . S
C2778 C2776 1.478 . S
C2778 C2780 1.381 . S
C2778 C2784 1.383 . S
C2779 C2775 1.495 . S
C2779 H2785 0.959 . S
C2779 H2786 0.961 . S
C2779 H2787 0.960 . S
C2780 C2778 1.381 . S
C2780 C2781 1.394 . S
C2780 H2788 0.930 . S
C2781 C2780 1.394 . S
C2781 C2782 1.383 . S
C2781 H2789 0.929 . S
C2782 C2781 1.383 . S
C2782 C2783 1.377 . S
C2783 H2767 0.930 . S
C2783 C2782 1.377 . S
C2783 C2784 1.379 . S
C2784 H2768 0.931 . S
C2784 C2778 1.383 . S
C2784 C2783 1.379 . S
H2785 C2779 0.959 . S
H2786 C2779 0.961 . S
H2787 C2779 0.960 . S
H2788 C2780 0.930 . S
H2789 C2781 0.929 . S
H2790 C2798 0.929 . S
H2791 C2800 0.930 . S
H2792 C2802 0.930 . S
H2793 C2805 0.929 . S
H2794 C2808 0.930 . S
H2795 C2810 0.960 . S
H2796 C2810 0.960 . S
H2797 C2810 0.960 . S
C2798 H2790 0.929 . S
C2798 C2799 1.377 . S
C2798 C2800 1.384 . S
C2799 C2798 1.377 . S
C2799 C2805 1.390 . S
C2800 H2791 0.930 . S
C2800 C2798 1.384 . S
C2800 C2801 1.372 . S
C2801 C2800 1.372 . S
C2801 C2802 1.400 . S
C2801 C2806 1.490 . S
C2802 H2792 0.930 . S
C2802 C2801 1.400 . S
C2802 C2805 1.386 . S
H2803 C2819 0.930 . S
H2804 C2820 0.931 . S
C2805 H2793 0.929 . S
C2805 C2799 1.390 . S
C2805 C2802 1.386 . S
C2806 C2801 1.490 . S
C2806 C2808 1.395 . S
C2806 C2809 1.403 . S
H2807 C2813 0.930 . S
C2808 H2794 0.930 . S
C2808 C2806 1.395 . S
C2808 C2811 1.403 . S
C2809 C2806 1.403 . S
C2809 C2810 1.524 . S
C2809 C2813 1.400 . S
C2810 H2795 0.960 . S
C2810 H2796 0.960 . S
C2810 H2797 0.960 . S
C2810 C2809 1.524 . S
C2811 C2808 1.403 . S
C2811 C2812 1.392 . S
C2811 C2815 1.495 . S
C2812 C2811 1.392 . S
C2812 C2813 1.385 . S
C2812 C2814 1.478 . S
C2813 H2807 0.930 . S
C2813 C2809 1.400 . S
C2813 C2812 1.385 . S
C2814 C2812 1.478 . S
C2814 C2816 1.381 . S
C2814 C2820 1.383 . S
C2815 C2811 1.495 . S
C2815 H2821 0.959 . S
C2815 H2822 0.961 . S
C2815 H2823 0.960 . S
C2816 C2814 1.381 . S
C2816 C2817 1.394 . S
C2816 H2824 0.930 . S
C2817 C2816 1.394 . S
C2817 C2818 1.383 . S
C2817 H2825 0.929 . S
C2818 C2817 1.383 . S
C2818 C2819 1.377 . S
C2819 H2803 0.930 . S
C2819 C2818 1.377 . S
C2819 C2820 1.379 . S
C2820 H2804 0.931 . S
C2820 C2814 1.383 . S
C2820 C2819 1.379 . S
H2821 C2815 0.959 . S
H2822 C2815 0.961 . S
H2823 C2815 0.960 . S
H2824 C2816 0.930 . S
H2825 C2817 0.929 . S
C891 C528 1.533 . S
C910 C708 1.498 . S
C927 C562 1.557 . S
C946 C728 1.539 . S
C963 C484 1.567 . S
C982 C751 1.561 . S
C999 C445 1.446 . S
C1018 C731 1.450 . S
C1054 C748 1.413 . S
C1035 C367 1.430 . S
C1071 C411 1.407 . S
C1090 C711 1.389 . S
C1126 C718 1.529 . S
C1107 C450 1.542 . S
C1162 C738 1.515 . S
C1143 C372 1.538 . S
C1179 C406 1.563 . S
C1198 C743 1.548 . S
C1215 C523 1.440 . S
C1234 C723 1.424 . S
C1251 C567 1.410 . S
C1270 C758 1.374 . S
C1306 C703 1.432 . S
C1287 C489 1.425 . S
C1342 C768 1.504 . S
C1323 C60 1.533 . S
C1359 C94 1.557 . S
C1378 C788 1.531 . S
C1395 C16 1.567 . S
C1414 C811 1.565 . S
C1431 C679 1.443 . S
C1450 C791 1.440 . S
C1467 C601 1.430 . S
C1486 C808 1.412 . S
C1503 C645 1.408 . S
C1522 C771 1.386 . S
C1539 C684 1.544 . S
C1558 C778 1.512 . S
C1575 C606 1.538 . S
C1594 C798 1.490 . S
C1630 C803 1.543 . S
C1611 C640 1.561 . S
C1647 C55 1.441 . S
C1666 C783 1.446 . S
C1702 C818 1.375 . S
C1683 C99 1.408 . S
C1719 C21 1.421 . S
C1738 C763 1.433 . S
C1774 C828 1.528 . S
C1755 C294 1.536 . S
C1791 C328 1.558 . S
C1810 C848 1.542 . S
C1846 C871 1.571 . S
C1827 C250 1.566 . S
C1882 C851 1.423 . S
C1863 C211 1.443 . S
C1918 C868 1.408 . S
C1899 C133 1.430 . S
C1935 C177 1.410 . S
C1954 C831 1.414 . S
C1971 C216 1.542 . S
C1990 C838 1.532 . S
C2007 C138 1.535 . S
C2026 C858 1.526 . S
C2062 C863 1.571 . S
C2043 C172 1.562 . S
C2079 C289 1.440 . S
C2098 C843 1.443 . S
C2115 C333 1.409 . S
C2134 C878 1.374 . S
C2151 C255 1.425 . S
C2170 C823 1.413 . S
C2187 C586 1.227 . S
C2206 C721 1.227 1_565 S
C2242 C741 1.613 . S
C2223 C625 1.697 . S
C2259 C664 1.490 . S
C2278 C750 1.454 . S
C2295 C235 1.712 . S
C2314 C730 1.647 1_655 S
C2331 C274 1.470 . S
C2350 C761 1.451 . S
C2386 C710 1.208 1_545 S
C2367 C313 1.225 . S
C2403 C118 1.228 . S
C2422 C781 1.175 . S
C2439 C157 1.694 . S
C2458 C801 1.648 . S
C2475 C196 1.487 . S
C2494 C810 1.426 . S
C2511 C469 1.712 . S
C2530 C790 1.660 . S
C2566 C821 1.407 . S
C2547 C508 1.473 . S
C2583 C547 1.226 . S
C2602 C770 1.212 . S
C2619 C352 1.231 . S
C2638 C841 1.199 . S
C2655 C391 1.694 . S
C2674 C861 1.653 . S
C2710 C870 1.422 . S
C2691 C430 1.486 . S
C2727 C1 1.710 . S
C2746 C850 1.639 . S
C2763 C40 1.469 . S
C2782 C881 1.439 . S
C2799 C79 1.226 . S
C2818 C830 1.222 . S
