# Generated by pormake.
# Topology eea, (3,6)-cn, num edge types: 1
# Building blocks:
#     Node 0, Type 0, BuildingBlock: KAKCAD_clean_linker_0, # of connection points: 3
#     Node 1, Type 0, BuildingBlock: KAKCAD_clean_linker_0, # of connection points: 3
#     Node 2, Type 0, BuildingBlock: KAKCAD_clean_linker_0, # of connection points: 3
#     Node 3, Type 0, BuildingBlock: KAKCAD_clean_linker_0, # of connection points: 3
#     Node 4, Type 0, BuildingBlock: KAKCAD_clean_linker_0, # of connection points: 3
#     Node 5, Type 0, BuildingBlock: KAKCAD_clean_linker_0, # of connection points: 3
#     Node 6, Type 0, BuildingBlock: KAKCAD_clean_linker_0, # of connection points: 3
#     Node 7, Type 0, BuildingBlock: KAKCAD_clean_linker_0, # of connection points: 3
#     Node 8, Type 0, BuildingBlock: KAKCAD_clean_linker_0, # of connection points: 3
#     Node 9, Type 0, BuildingBlock: KAKCAD_clean_linker_0, # of connection points: 3
#     Node 10, Type 0, BuildingBlock: KAKCAD_clean_linker_0, # of connection points: 3
#     Node 11, Type 0, BuildingBlock: KAKCAD_clean_linker_0, # of connection points: 3
#     Node 12, Type 0, BuildingBlock: KAKCAD_clean_linker_0, # of connection points: 3
#     Node 13, Type 0, BuildingBlock: KAKCAD_clean_linker_0, # of connection points: 3
#     Node 14, Type 0, BuildingBlock: KAKCAD_clean_linker_0, # of connection points: 3
#     Node 15, Type 0, BuildingBlock: KAKCAD_clean_linker_0, # of connection points: 3
#     Node 16, Type 0, BuildingBlock: KAKCAD_clean_linker_0, # of connection points: 3
#     Node 17, Type 0, BuildingBlock: KAKCAD_clean_linker_0, # of connection points: 3
#     Node 18, Type 1, BuildingBlock: CUWYAW_clean_sbu_0, # of connection points: 6
#     Node 19, Type 1, BuildingBlock: CUWYAW_clean_sbu_0, # of connection points: 6
#     Node 20, Type 1, BuildingBlock: CUWYAW_clean_sbu_0, # of connection points: 6
#     Node 21, Type 1, BuildingBlock: CUWYAW_clean_sbu_0, # of connection points: 6
#     Node 22, Type 1, BuildingBlock: CUWYAW_clean_sbu_0, # of connection points: 6
#     Node 23, Type 1, BuildingBlock: CUWYAW_clean_sbu_0, # of connection points: 6
#     Node 24, Type 1, BuildingBlock: CUWYAW_clean_sbu_0, # of connection points: 6
#     Node 25, Type 1, BuildingBlock: CUWYAW_clean_sbu_0, # of connection points: 6
#     Node 26, Type 1, BuildingBlock: CUWYAW_clean_sbu_0, # of connection points: 6
#     Edge 27, Type (0, 1), BuildingBlock: XIVTED_clean_linker_0, # of connection points: 2
#     Edge 28, Type (0, 1), BuildingBlock: XIVTED_clean_linker_0, # of connection points: 2
#     Edge 29, Type (0, 1), BuildingBlock: XIVTED_clean_linker_0, # of connection points: 2
#     Edge 30, Type (0, 1), BuildingBlock: XIVTED_clean_linker_0, # of connection points: 2
#     Edge 31, Type (0, 1), BuildingBlock: XIVTED_clean_linker_0, # of connection points: 2
#     Edge 32, Type (0, 1), BuildingBlock: XIVTED_clean_linker_0, # of connection points: 2
#     Edge 33, Type (0, 1), BuildingBlock: XIVTED_clean_linker_0, # of connection points: 2
#     Edge 34, Type (0, 1), BuildingBlock: XIVTED_clean_linker_0, # of connection points: 2
#     Edge 35, Type (0, 1), BuildingBlock: XIVTED_clean_linker_0, # of connection points: 2
#     Edge 36, Type (0, 1), BuildingBlock: XIVTED_clean_linker_0, # of connection points: 2
#     Edge 37, Type (0, 1), BuildingBlock: XIVTED_clean_linker_0, # of connection points: 2
#     Edge 38, Type (0, 1), BuildingBlock: XIVTED_clean_linker_0, # of connection points: 2
#     Edge 39, Type (0, 1), BuildingBlock: XIVTED_clean_linker_0, # of connection points: 2
#     Edge 40, Type (0, 1), BuildingBlock: XIVTED_clean_linker_0, # of connection points: 2
#     Edge 41, Type (0, 1), BuildingBlock: XIVTED_clean_linker_0, # of connection points: 2
#     Edge 42, Type (0, 1), BuildingBlock: XIVTED_clean_linker_0, # of connection points: 2
#     Edge 43, Type (0, 1), BuildingBlock: XIVTED_clean_linker_0, # of connection points: 2
#     Edge 44, Type (0, 1), BuildingBlock: XIVTED_clean_linker_0, # of connection points: 2
#     Edge 45, Type (0, 1), BuildingBlock: XIVTED_clean_linker_0, # of connection points: 2
#     Edge 46, Type (0, 1), BuildingBlock: XIVTED_clean_linker_0, # of connection points: 2
#     Edge 47, Type (0, 1), BuildingBlock: XIVTED_clean_linker_0, # of connection points: 2
#     Edge 48, Type (0, 1), BuildingBlock: XIVTED_clean_linker_0, # of connection points: 2
#     Edge 49, Type (0, 1), BuildingBlock: XIVTED_clean_linker_0, # of connection points: 2
#     Edge 50, Type (0, 1), BuildingBlock: XIVTED_clean_linker_0, # of connection points: 2
#     Edge 51, Type (0, 1), BuildingBlock: XIVTED_clean_linker_0, # of connection points: 2
#     Edge 52, Type (0, 1), BuildingBlock: XIVTED_clean_linker_0, # of connection points: 2
#     Edge 53, Type (0, 1), BuildingBlock: XIVTED_clean_linker_0, # of connection points: 2
#     Edge 54, Type (0, 1), BuildingBlock: XIVTED_clean_linker_0, # of connection points: 2
#     Edge 55, Type (0, 1), BuildingBlock: XIVTED_clean_linker_0, # of connection points: 2
#     Edge 56, Type (0, 1), BuildingBlock: XIVTED_clean_linker_0, # of connection points: 2
#     Edge 57, Type (0, 1), BuildingBlock: XIVTED_clean_linker_0, # of connection points: 2
#     Edge 58, Type (0, 1), BuildingBlock: XIVTED_clean_linker_0, # of connection points: 2
#     Edge 59, Type (0, 1), BuildingBlock: XIVTED_clean_linker_0, # of connection points: 2
#     Edge 60, Type (0, 1), BuildingBlock: XIVTED_clean_linker_0, # of connection points: 2
#     Edge 61, Type (0, 1), BuildingBlock: XIVTED_clean_linker_0, # of connection points: 2
#     Edge 62, Type (0, 1), BuildingBlock: XIVTED_clean_linker_0, # of connection points: 2
#     Edge 63, Type (0, 1), BuildingBlock: XIVTED_clean_linker_0, # of connection points: 2
#     Edge 64, Type (0, 1), BuildingBlock: XIVTED_clean_linker_0, # of connection points: 2
#     Edge 65, Type (0, 1), BuildingBlock: XIVTED_clean_linker_0, # of connection points: 2
#     Edge 66, Type (0, 1), BuildingBlock: XIVTED_clean_linker_0, # of connection points: 2
#     Edge 67, Type (0, 1), BuildingBlock: XIVTED_clean_linker_0, # of connection points: 2
#     Edge 68, Type (0, 1), BuildingBlock: XIVTED_clean_linker_0, # of connection points: 2
#     Edge 69, Type (0, 1), BuildingBlock: XIVTED_clean_linker_0, # of connection points: 2
#     Edge 70, Type (0, 1), BuildingBlock: XIVTED_clean_linker_0, # of connection points: 2
#     Edge 71, Type (0, 1), BuildingBlock: XIVTED_clean_linker_0, # of connection points: 2
#     Edge 72, Type (0, 1), BuildingBlock: XIVTED_clean_linker_0, # of connection points: 2
#     Edge 73, Type (0, 1), BuildingBlock: XIVTED_clean_linker_0, # of connection points: 2
#     Edge 74, Type (0, 1), BuildingBlock: XIVTED_clean_linker_0, # of connection points: 2
#     Edge 75, Type (0, 1), BuildingBlock: XIVTED_clean_linker_0, # of connection points: 2
#     Edge 76, Type (0, 1), BuildingBlock: XIVTED_clean_linker_0, # of connection points: 2
#     Edge 77, Type (0, 1), BuildingBlock: XIVTED_clean_linker_0, # of connection points: 2
#     Edge 78, Type (0, 1), BuildingBlock: XIVTED_clean_linker_0, # of connection points: 2
#     Edge 79, Type (0, 1), BuildingBlock: XIVTED_clean_linker_0, # of connection points: 2
#     Edge 80, Type (0, 1), BuildingBlock: XIVTED_clean_linker_0, # of connection points: 2
# Relax obj value: 0.034
# Max RMSD: 0.134
# Mean RMSD: 0.074
data_MOF--net-eea--node1-CUWYAW_clean_sbu_0--node2-KAKCAD_clean_linker_0--edge1-XIVTED_clean_linker_0
_symmetry_space_group_name_H-M    P1
_symmetry_Int_Tables_number       1
_symmetry_cell_setting            triclinic
loop_
_symmetry_equiv_pos_as_xyz
'x, y, z'
_cell_length_a     63.016667
_cell_length_b     62.59786
_cell_length_c     91.243757
_cell_angle_alpha  93.782292
_cell_angle_beta   93.448678
_cell_angle_gamma 119.90626
loop_
_atom_site_label
_atom_site_type_symbol
_atom_site_fract_x
_atom_site_fract_y
_atom_site_fract_z
_atom_type_partial_charge
C0 C 0.28919 0.16581 0.46803 0.0
C1 C 0.30506 0.15742 0.47291 0.0
C2 C 0.28176 0.1634 0.45299 0.0
C3 C 0.29004 0.15254 0.44251 0.0
C4 C 0.30669 0.14508 0.44734 0.0
C5 C 0.31414 0.14751 0.46238 0.0
C6 C 0.28003 0.14747 0.42674 0.0
C7 C 0.27669 0.16508 0.41975 0.0
C8 C 0.26539 0.15955 0.40518 0.0
C9 C 0.25792 0.13626 0.39752 0.0
C10 C 0.26117 0.11844 0.4043 0.0
C11 C 0.27228 0.12426 0.41892 0.0
C12 C 0.25189 0.09336 0.39637 0.0
C13 C 0.22938 0.08144 0.38728 0.0
C14 C 0.26524 0.081 0.39798 0.0
C15 C 0.25622 0.05725 0.39074 0.0
C16 C 0.23373 0.04535 0.38163 0.0
C17 C 0.25979 0.17726 0.39821 0.0
C18 C 0.2516 0.19095 0.40655 0.0
C19 C 0.26091 0.17933 0.38297 0.0
C20 C 0.25283 0.19368 0.37612 0.0
C21 C 0.24393 0.20663 0.3844 0.0
C22 C 0.24391 0.20563 0.39972 0.0
C23 C 0.22051 0.05782 0.37993 0.0
H24 H 0.28165 0.17327 0.47587 0.0
H25 H 0.26868 0.16905 0.44962 0.0
H26 H 0.31369 0.13702 0.4395 0.0
H27 H 0.32674 0.14129 0.46578 0.0
H28 H 0.28288 0.18309 0.42571 0.0
H29 H 0.27388 0.11027 0.42447 0.0
H30 H 0.24901 0.13173 0.38634 0.0
H31 H 0.21838 0.09018 0.38597 0.0
H32 H 0.28274 0.08972 0.40478 0.0
H33 H 0.26677 0.04811 0.39247 0.0
H34 H 0.25013 0.18955 0.41825 0.0
H35 H 0.26764 0.16953 0.37627 0.0
H36 H 0.20331 0.04944 0.37284 0.0
H37 H 0.23694 0.21534 0.40631 0.0
H38 H 0.25331 0.19446 0.36431 0.0
C39 C 0.87795 0.16457 0.47287 0.0
C40 C 0.86691 0.14395 0.48092 0.0
C41 C 0.88141 0.16156 0.45802 0.0
C42 C 0.87388 0.13788 0.45092 0.0
C43 C 0.86294 0.11734 0.45901 0.0
C44 C 0.8594 0.12032 0.47377 0.0
C45 C 0.87748 0.13436 0.43517 0.0
C46 C 0.89947 0.1509 0.42959 0.0
C47 C 0.9035 0.14663 0.41497 0.0
C48 C 0.88524 0.12546 0.40595 0.0
C49 C 0.86313 0.1087 0.41131 0.0
C50 C 0.85928 0.11364 0.42585 0.0
C51 C 0.84461 0.08545 0.40203 0.0
C52 C 0.84024 0.08504 0.38666 0.0
C53 C 0.8317 0.06319 0.40845 0.0
C54 C 0.81498 0.04114 0.39976 0.0
C55 C 0.81103 0.04072 0.38442 0.0
C56 C 0.927 0.16385 0.40917 0.0
C57 C 0.93795 0.18969 0.41246 0.0
C58 C 0.93845 0.15455 0.40007 0.0
C59 C 0.95993 0.17064 0.39409 0.0
C60 C 0.97062 0.19643 0.39716 0.0
C61 C 0.95959 0.20581 0.40655 0.0
C62 C 0.82377 0.06286 0.37794 0.0
H63 H 0.88413 0.18306 0.47807 0.0
H64 H 0.88975 0.17775 0.45208 0.0
H65 H 0.85726 0.09888 0.45397 0.0
H66 H 0.85049 0.10397 0.47953 0.0
H67 H 0.91386 0.16657 0.4368 0.0
H68 H 0.84198 0.10128 0.42996 0.0
H69 H 0.88844 0.12185 0.39477 0.0
H70 H 0.84948 0.10186 0.38135 0.0
H71 H 0.83494 0.06258 0.42016 0.0
H72 H 0.80563 0.02424 0.40501 0.0
H73 H 0.92949 0.19747 0.41933 0.0
H74 H 0.93087 0.13477 0.39759 0.0
H75 H 0.82086 0.06302 0.36614 0.0
H76 H 0.96733 0.22562 0.40901 0.0
H77 H 0.96827 0.16287 0.3871 0.0
C78 C 0.88771 0.7331 0.48059 0.0
C79 C 0.86335 0.71786 0.48366 0.0
C80 C 0.89261 0.74128 0.46663 0.0
C81 C 0.87323 0.73418 0.45544 0.0
C82 C 0.84893 0.71814 0.45842 0.0
C83 C 0.84405 0.71021 0.47239 0.0
C84 C 0.87808 0.7442 0.44092 0.0
C85 C 0.89856 0.74719 0.43398 0.0
C86 C 0.90325 0.75703 0.42034 0.0
C87 C 0.88688 0.76344 0.41355 0.0
C88 C 0.86627 0.7605 0.42029 0.0
C89 C 0.86226 0.75118 0.43406 0.0
C90 C 0.84891 0.76721 0.41307 0.0
C91 C 0.85758 0.78816 0.40526 0.0
C92 C 0.82343 0.75269 0.41398 0.0
C93 C 0.80709 0.75906 0.40737 0.0
C94 C 0.8158 0.77987 0.39953 0.0
C95 C 0.92547 0.76109 0.4133 0.0
C96 C 0.94822 0.77048 0.42188 0.0
C97 C 0.92431 0.75641 0.39791 0.0
C98 C 0.94547 0.76156 0.39122 0.0
C99 C 0.96832 0.77134 0.39976 0.0
C100 C 0.96937 0.77548 0.4152 0.0
C101 C 0.84117 0.79431 0.39848 0.0
H102 H 0.90292 0.73938 0.48913 0.0
H103 H 0.91151 0.7538 0.46476 0.0
H104 H 0.83361 0.71183 0.44997 0.0
H105 H 0.82512 0.69811 0.47441 0.0
H106 H 0.91062 0.74146 0.43906 0.0
H107 H 0.84704 0.7499 0.43964 0.0
H108 H 0.89027 0.77086 0.403 0.0
H109 H 0.87708 0.80002 0.40454 0.0
H110 H 0.81602 0.73616 0.41964 0.0
H111 H 0.78756 0.74742 0.40816 0.0
H112 H 0.94984 0.77452 0.43375 0.0
H113 H 0.90703 0.74883 0.39098 0.0
H114 H 0.84835 0.8106 0.39259 0.0
H115 H 0.98656 0.78264 0.42215 0.0
H116 H 0.94398 0.75836 0.3793 0.0
C117 C 0.13696 0.26215 0.52268 0.0
C118 C 0.13178 0.28067 0.51914 0.0
C119 C 0.13096 0.25183 0.53596 0.0
C120 C 0.11986 0.25997 0.54611 0.0
C121 C 0.11407 0.27807 0.5424 0.0
C122 C 0.11989 0.28826 0.52899 0.0
C123 C 0.11519 0.25006 0.56068 0.0
C124 C 0.13261 0.24585 0.56826 0.0
C125 C 0.12835 0.23568 0.58175 0.0
C126 C 0.10663 0.23042 0.58794 0.0
C127 C 0.089 0.23472 0.58066 0.0
C128 C 0.09343 0.24449 0.56698 0.0
C129 C 0.06595 0.22877 0.58736 0.0
C130 C 0.05418 0.20774 0.59501 0.0
C131 C 0.05587 0.24434 0.5865 0.0
C132 C 0.03481 0.23922 0.59336 0.0
C133 C 0.0236 0.21861 0.60135 0.0
C134 C 0.14638 0.23001 0.58915 0.0
C135 C 0.15798 0.21996 0.58077 0.0
C136 C 0.15193 0.23429 0.60459 0.0
C137 C 0.16858 0.22854 0.61147 0.0
C138 C 0.1802 0.21851 0.60308 0.0
C139 C 0.17475 0.21439 0.58763 0.0
C140 C 0.03337 0.20284 0.60201 0.0
H141 H 0.14565 0.25559 0.51515 0.0
H142 H 0.1351 0.23748 0.53828 0.0
H143 H 0.10568 0.28486 0.55001 0.0
H144 H 0.11577 0.30258 0.52653 0.0
H145 H 0.14978 0.25084 0.56371 0.0
H146 H 0.07964 0.2471 0.56103 0.0
H147 H 0.10337 0.22279 0.59843 0.0
H148 H 0.061 0.19496 0.59558 0.0
H149 H 0.06458 0.26085 0.58086 0.0
H150 H 0.0277 0.25177 0.59277 0.0
H151 H 0.1539 0.21611 0.56887 0.0
H152 H 0.14353 0.24225 0.61137 0.0
H153 H 0.02482 0.18659 0.6079 0.0
H154 H 0.18358 0.20701 0.58079 0.0
H155 H 0.17211 0.23169 0.6234 0.0
C156 C 0.69467 0.82628 0.53555 0.0
C157 C 0.70589 0.84666 0.52734 0.0
C158 C 0.69978 0.82951 0.55094 0.0
C159 C 0.71606 0.85318 0.5584 0.0
C160 C 0.72687 0.87354 0.55016 0.0
C161 C 0.7218 0.87032 0.53485 0.0
C162 C 0.72301 0.85684 0.57459 0.0
C163 C 0.72877 0.84056 0.58134 0.0
C164 C 0.73904 0.84615 0.59612 0.0
C165 C 0.74327 0.86799 0.60424 0.0
C166 C 0.73707 0.88421 0.59782 0.0
C167 C 0.72646 0.87814 0.58306 0.0
C168 C 0.74342 0.9083 0.60613 0.0
C169 C 0.74209 0.91031 0.62147 0.0
C170 C 0.75201 0.92982 0.59885 0.0
C171 C 0.75924 0.95271 0.6067 0.0
C172 C 0.75847 0.95471 0.62203 0.0
C173 C 0.74731 0.83029 0.60277 0.0
C174 C 0.73113 0.80475 0.60272 0.0
C175 C 0.77161 0.84084 0.6093 0.0
C176 C 0.77959 0.82619 0.61581 0.0
C177 C 0.76333 0.80068 0.61618 0.0
C178 C 0.73901 0.79008 0.60946 0.0
C179 C 0.74976 0.93333 0.62935 0.0
H180 H 0.68238 0.8078 0.53005 0.0
H181 H 0.6911 0.81349 0.557 0.0
H182 H 0.73979 0.89197 0.5555 0.0
H183 H 0.73043 0.88647 0.52888 0.0
H184 H 0.72676 0.82437 0.57488 0.0
H185 H 0.7213 0.8903 0.57799 0.0
H186 H 0.75209 0.87263 0.61547 0.0
H187 H 0.73521 0.89412 0.62741 0.0
H188 H 0.75389 0.92922 0.58714 0.0
H189 H 0.7662 0.96901 0.60083 0.0
H190 H 0.71227 0.79626 0.59776 0.0
H191 H 0.78454 0.86044 0.60923 0.0
H192 H 0.7488 0.93441 0.64118 0.0
H193 H 0.72589 0.77058 0.60965 0.0
H194 H 0.79862 0.83493 0.62047 0.0
C195 C 0.11618 0.84557 0.52774 0.0
C196 C 0.13952 0.84958 0.52486 0.0
C197 C 0.11093 0.8478 0.54225 0.0
C198 C 0.12896 0.85432 0.55417 0.0
C199 C 0.15203 0.8577 0.55136 0.0
C200 C 0.15721 0.85521 0.53688 0.0
C201 C 0.12419 0.85886 0.56945 0.0
C202 C 0.1022 0.84206 0.57494 0.0
C203 C 0.09765 0.84671 0.58936 0.0
C204 C 0.11496 0.86867 0.5981 0.0
C205 C 0.13677 0.88579 0.59267 0.0
C206 C 0.14145 0.88058 0.57844 0.0
C207 C 0.15409 0.90962 0.60164 0.0
C208 C 0.14525 0.92407 0.60832 0.0
C209 C 0.17946 0.91828 0.60339 0.0
C210 C 0.19571 0.94096 0.61172 0.0
C211 C 0.18693 0.95561 0.61832 0.0
C212 C 0.07474 0.82899 0.59538 0.0
C213 C 0.05165 0.81985 0.58731 0.0
C214 C 0.07585 0.82207 0.6096 0.0
C215 C 0.0543 0.80684 0.61581 0.0
C216 C 0.03109 0.79837 0.608 0.0
C217 C 0.03003 0.80477 0.59358 0.0
C218 C 0.16147 0.94685 0.61649 0.0
H219 H 0.1022 0.84153 0.51878 0.0
H220 H 0.09305 0.84532 0.54411 0.0
H221 H 0.16615 0.8624 0.56037 0.0
H222 H 0.17517 0.85786 0.53513 0.0
H223 H 0.08889 0.82516 0.56813 0.0
H224 H 0.1581 0.89398 0.57411 0.0
H225 H 0.11131 0.8726 0.60912 0.0
H226 H 0.12579 0.91799 0.60696 0.0
H227 H 0.18671 0.90736 0.59844 0.0
H228 H 0.21511 0.94687 0.61308 0.0
H229 H 0.05031 0.82508 0.57635 0.0
H230 H 0.09344 0.82857 0.61597 0.0
H231 H 0.15404 0.95779 0.6211 0.0
H232 H 0.01251 0.79881 0.58729 0.0
H233 H 0.05587 0.80179 0.62678 0.0
C234 C 0.95852 0.50058 0.80136 0.0
C235 C 0.97607 0.49414 0.80605 0.0
C236 C 0.95069 0.49793 0.78637 0.0
C237 C 0.9601 0.48861 0.77574 0.0
C238 C 0.9782 0.48292 0.78033 0.0
C239 C 0.9862 0.48578 0.79532 0.0
C240 C 0.94983 0.48331 0.76004 0.0
C241 C 0.94591 0.50061 0.75313 0.0
C242 C 0.9343 0.49485 0.73862 0.0
C243 C 0.92699 0.47157 0.731 0.0
C244 C 0.93074 0.454 0.73775 0.0
C245 C 0.94233 0.46015 0.75226 0.0
C246 C 0.92135 0.4288 0.72996 0.0
C247 C 0.89855 0.4166 0.72116 0.0
C248 C 0.93474 0.41647 0.73152 0.0
C249 C 0.92543 0.39245 0.7246 0.0
C250 C 0.90259 0.38024 0.71584 0.0
C251 C 0.9283 0.51235 0.73171 0.0
C252 C 0.9202 0.52602 0.74015 0.0
C253 C 0.92917 0.51442 0.71647 0.0
C254 C 0.92107 0.52884 0.70973 0.0
C255 C 0.91234 0.54186 0.71813 0.0
C256 C 0.91246 0.54075 0.73344 0.0
C257 C 0.88939 0.39273 0.71411 0.0
H258 H 0.95003 0.50672 0.8093 0.0
H259 H 0.9365 0.50218 0.78315 0.0
H260 H 0.98596 0.47598 0.77233 0.0
H261 H 0.00012 0.48113 0.7985 0.0
H262 H 0.95189 0.51856 0.7591 0.0
H263 H 0.94444 0.44643 0.75782 0.0
H264 H 0.91778 0.46683 0.71988 0.0
H265 H 0.8875 0.4253 0.71987 0.0
H266 H 0.95247 0.42538 0.7381 0.0
H267 H 0.936 0.38334 0.72634 0.0
H268 H 0.91889 0.52461 0.75187 0.0
H269 H 0.93582 0.50462 0.70967 0.0
H270 H 0.87194 0.38413 0.70727 0.0
H271 H 0.9056 0.55047 0.74013 0.0
H272 H 0.92143 0.52968 0.69792 0.0
C273 C 0.54727 0.4976 0.80771 0.0
C274 C 0.53592 0.47691 0.81568 0.0
C275 C 0.55112 0.4947 0.79293 0.0
C276 C 0.54367 0.47105 0.7858 0.0
C277 C 0.53255 0.45045 0.79384 0.0
C278 C 0.52862 0.45333 0.80854 0.0
C279 C 0.54731 0.46758 0.77005 0.0
C280 C 0.56928 0.48414 0.76445 0.0
C281 C 0.5732 0.47998 0.74977 0.0
C282 C 0.55483 0.45891 0.74073 0.0
C283 C 0.53275 0.44214 0.74612 0.0
C284 C 0.52903 0.44695 0.7607 0.0
C285 C 0.5141 0.41903 0.73677 0.0
C286 C 0.50959 0.41885 0.72145 0.0
C287 C 0.5012 0.39666 0.74309 0.0
C288 C 0.48435 0.37474 0.73434 0.0
C289 C 0.48026 0.37455 0.71904 0.0
C290 C 0.59663 0.49725 0.7439 0.0
C291 C 0.60772 0.52307 0.74733 0.0
C292 C 0.60779 0.48799 0.73451 0.0
C293 C 0.62906 0.50412 0.72834 0.0
C294 C 0.63985 0.5299 0.73154 0.0
C295 C 0.62916 0.53923 0.74125 0.0
C296 C 0.49299 0.3968 0.71266 0.0
H297 H 0.55334 0.51607 0.8129 0.0
H298 H 0.55962 0.51093 0.78703 0.0
H299 H 0.52693 0.43201 0.78879 0.0
H300 H 0.51948 0.43692 0.81422 0.0
H301 H 0.58372 0.49976 0.77167 0.0
H302 H 0.51174 0.43459 0.76482 0.0
H303 H 0.55789 0.45541 0.7295 0.0
H304 H 0.51882 0.43576 0.71621 0.0
H305 H 0.50453 0.39587 0.75477 0.0
H306 H 0.47501 0.35775 0.7395 0.0
H307 H 0.59948 0.53083 0.75441 0.0
H308 H 0.60014 0.46822 0.73191 0.0
H309 H 0.48996 0.39715 0.70088 0.0
H310 H 0.637 0.55904 0.74382 0.0
H311 H 0.63715 0.49639 0.72111 0.0
C312 C 0.55297 0.06171 0.81333 0.0
C313 C 0.52846 0.04512 0.81558 0.0
C314 C 0.55869 0.07094 0.79968 0.0
C315 C 0.54001 0.06363 0.788 0.0
C316 C 0.51566 0.04617 0.7901 0.0
C317 C 0.50993 0.0371 0.80375 0.0
C318 C 0.54562 0.07523 0.77398 0.0
C319 C 0.56718 0.08023 0.7676 0.0
C320 C 0.57285 0.09205 0.75462 0.0
C321 C 0.55666 0.09891 0.74809 0.0
C322 C 0.53492 0.09371 0.7542 0.0
C323 C 0.52958 0.08197 0.76714 0.0
C324 C 0.51767 0.10046 0.74707 0.0
C325 C 0.52633 0.12425 0.74265 0.0
C326 C 0.49236 0.08305 0.74464 0.0
C327 C 0.47603 0.08924 0.73781 0.0
C328 C 0.48466 0.11305 0.73343 0.0
C329 C 0.59556 0.09719 0.74781 0.0
C330 C 0.6179 0.10553 0.75663 0.0
C331 C 0.59511 0.09414 0.73238 0.0
C332 C 0.61651 0.09967 0.7259 0.0
C333 C 0.63892 0.10818 0.73468 0.0
C334 C 0.63932 0.11091 0.75014 0.0
C335 C 0.50995 0.13054 0.73598 0.0
H336 H 0.56759 0.06835 0.82229 0.0
H337 H 0.5776 0.08454 0.79848 0.0
H338 H 0.50091 0.03972 0.78123 0.0
H339 H 0.49094 0.02398 0.80511 0.0
H340 H 0.57928 0.07445 0.77258 0.0
H341 H 0.51318 0.07874 0.77211 0.0
H342 H 0.56088 0.10823 0.73817 0.0
H343 H 0.54575 0.13806 0.7445 0.0
H344 H 0.48524 0.06453 0.74786 0.0
H345 H 0.45661 0.07546 0.73608 0.0
H346 H 0.61895 0.10829 0.76855 0.0
H347 H 0.57815 0.08741 0.72525 0.0
H348 H 0.5171 0.14897 0.73261 0.0
H349 H 0.65618 0.11714 0.75726 0.0
H350 H 0.61553 0.09764 0.71396 0.0
C351 C 0.79522 0.59011 0.85465 0.0
C352 C 0.79262 0.61038 0.85146 0.0
C353 C 0.79133 0.58168 0.86855 0.0
C354 C 0.78463 0.59326 0.87956 0.0
C355 C 0.78179 0.6134 0.87636 0.0
C356 C 0.78589 0.62199 0.86245 0.0
C357 C 0.78063 0.58415 0.8943 0.0
C358 C 0.79733 0.57846 0.90137 0.0
C359 C 0.79313 0.56842 0.91493 0.0
C360 C 0.77186 0.56412 0.92141 0.0
C361 C 0.75517 0.57005 0.91459 0.0
C362 C 0.75977 0.58026 0.9011 0.0
C363 C 0.73258 0.56487 0.9214 0.0
C364 C 0.71765 0.54161 0.92627 0.0
C365 C 0.7259 0.58312 0.92318 0.0
C366 C 0.70482 0.5783 0.92991 0.0
C367 C 0.68989 0.55501 0.93477 0.0
C368 C 0.81082 0.56226 0.92225 0.0
C369 C 0.82201 0.55174 0.91387 0.0
C370 C 0.81671 0.5669 0.93766 0.0
C371 C 0.83335 0.56114 0.94452 0.0
C372 C 0.84467 0.55076 0.93613 0.0
C373 C 0.83879 0.54615 0.92072 0.0
C374 C 0.69644 0.53668 0.93282 0.0
H375 H 0.80065 0.58096 0.84645 0.0
H376 H 0.7934 0.56595 0.87066 0.0
H377 H 0.77673 0.62272 0.88468 0.0
H378 H 0.78363 0.63757 0.86026 0.0
H379 H 0.81384 0.58221 0.89636 0.0
H380 H 0.74659 0.58424 0.89561 0.0
H381 H 0.76816 0.55601 0.93175 0.0
H382 H 0.72231 0.52716 0.92492 0.0
H383 H 0.73718 0.60124 0.91956 0.0
H384 H 0.70009 0.5927 0.93121 0.0
H385 H 0.81767 0.54763 0.90199 0.0
H386 H 0.80865 0.57524 0.94445 0.0
H387 H 0.68535 0.51864 0.93657 0.0
H388 H 0.84736 0.53845 0.91388 0.0
H389 H 0.83717 0.56464 0.95644 0.0
C390 C 0.36436 0.16133 0.87043 0.0
C391 C 0.37777 0.18055 0.86177 0.0
C392 C 0.36922 0.16531 0.88585 0.0
C393 C 0.38744 0.18864 0.89287 0.0
C394 C 0.40077 0.20779 0.88417 0.0
C395 C 0.39596 0.20381 0.86884 0.0
C396 C 0.39311 0.19313 0.90917 0.0
C397 C 0.39572 0.1759 0.91707 0.0
C398 C 0.40394 0.1815 0.93222 0.0
C399 C 0.40873 0.20412 0.93958 0.0
C400 C 0.40603 0.2214 0.93187 0.0
C401 C 0.39804 0.2157 0.91671 0.0
C402 C 0.41379 0.24626 0.93935 0.0
C403 C 0.40607 0.24892 0.95314 0.0
C404 C 0.43002 0.26757 0.93301 0.0
C405 C 0.43878 0.2911 0.94045 0.0
C406 C 0.43127 0.29378 0.9543 0.0
C407 C 0.41027 0.16512 0.94002 0.0
C408 C 0.39363 0.13954 0.9393 0.0
C409 C 0.4336 0.17515 0.94791 0.0
C410 C 0.44026 0.15996 0.95495 0.0
C411 C 0.42362 0.13435 0.95446 0.0
C412 C 0.40018 0.1243 0.94655 0.0
C413 C 0.41459 0.2725 0.9605 0.0
H414 H 0.35031 0.14316 0.8653 0.0
H415 H 0.35862 0.15023 0.89228 0.0
H416 H 0.4152 0.22586 0.88922 0.0
H417 H 0.40638 0.21912 0.86251 0.0
H418 H 0.39295 0.15888 0.91127 0.0
H419 H 0.396 0.22909 0.91074 0.0
H420 H 0.41559 0.20871 0.95121 0.0
H421 H 0.39354 0.23274 0.95824 0.0
H422 H 0.43645 0.26603 0.92247 0.0
H423 H 0.45147 0.30723 0.93538 0.0
H424 H 0.37551 0.13142 0.93327 0.0
H425 H 0.44696 0.19474 0.94836 0.0
H426 H 0.40863 0.2741 0.9712 0.0
H427 H 0.38681 0.10473 0.94605 0.0
H428 H 0.45871 0.16832 0.96054 0.0
C429 C 0.78154 0.17616 0.86057 0.0
C430 C 0.80481 0.17969 0.85795 0.0
C431 C 0.77584 0.17812 0.875 0.0
C432 C 0.79337 0.1839 0.88709 0.0
C433 C 0.81632 0.18671 0.88454 0.0
C434 C 0.82192 0.18447 0.87014 0.0
C435 C 0.78832 0.18845 0.90229 0.0
C436 C 0.76609 0.17184 0.90762 0.0
C437 C 0.76135 0.17655 0.92197 0.0
C438 C 0.77869 0.19841 0.93078 0.0
C439 C 0.80072 0.21538 0.9255 0.0
C440 C 0.80561 0.21008 0.91134 0.0
C441 C 0.81803 0.23918 0.93449 0.0
C442 C 0.80921 0.25374 0.94105 0.0
C443 C 0.84339 0.24775 0.93635 0.0
C444 C 0.85963 0.27046 0.94465 0.0
C445 C 0.85086 0.28522 0.95112 0.0
C446 C 0.73822 0.15904 0.92786 0.0
C447 C 0.71528 0.15034 0.91971 0.0
C448 C 0.73898 0.15199 0.94208 0.0
C449 C 0.71726 0.13714 0.94823 0.0
C450 C 0.69421 0.12919 0.94037 0.0
C451 C 0.69347 0.13564 0.92593 0.0
C452 C 0.82542 0.27653 0.94919 0.0
H453 H 0.76799 0.17278 0.85149 0.0
H454 H 0.75808 0.17609 0.87667 0.0
H455 H 0.83004 0.19084 0.89369 0.0
H456 H 0.83979 0.18669 0.86859 0.0
H457 H 0.75274 0.15504 0.90073 0.0
H458 H 0.82243 0.22334 0.90711 0.0
H459 H 0.77489 0.2024 0.94174 0.0
H460 H 0.78977 0.24774 0.93959 0.0
H461 H 0.85062 0.23676 0.93149 0.0
H462 H 0.87902 0.27633 0.94608 0.0
H463 H 0.71421 0.15567 0.90876 0.0
H464 H 0.75646 0.15815 0.94851 0.0
H465 H 0.81801 0.28756 0.9537 0.0
H466 H 0.67608 0.13006 0.9196 0.0
H467 H 0.71857 0.13202 0.95921 0.0
C468 C 0.62033 0.83542 0.13319 0.0
C469 C 0.63613 0.82739 0.13874 0.0
C470 C 0.61427 0.83334 0.11801 0.0
C471 C 0.62386 0.82317 0.10801 0.0
C472 C 0.64038 0.81595 0.11353 0.0
C473 C 0.64652 0.81812 0.12875 0.0
C474 C 0.61505 0.81843 0.09204 0.0
C475 C 0.61146 0.83589 0.08503 0.0
C476 C 0.59986 0.83018 0.07052 0.0
C477 C 0.59233 0.80683 0.06294 0.0
C478 C 0.5964 0.78948 0.06964 0.0
C479 C 0.60794 0.79544 0.08413 0.0
C480 C 0.58709 0.7645 0.06182 0.0
C481 C 0.56251 0.75046 0.05554 0.0
C482 C 0.60256 0.75449 0.06068 0.0
C483 C 0.59365 0.73088 0.05325 0.0
C484 C 0.56895 0.71664 0.04701 0.0
C485 C 0.59404 0.84777 0.0636 0.0
C486 C 0.58629 0.86176 0.07206 0.0
C487 C 0.59478 0.84967 0.04834 0.0
C488 C 0.58695 0.86431 0.0416 0.0
C489 C 0.57863 0.87769 0.05003 0.0
C490 C 0.57884 0.8767 0.06535 0.0
C491 C 0.55349 0.72674 0.04831 0.0
H492 H 0.61227 0.84291 0.14062 0.0
H493 H 0.60128 0.83883 0.11414 0.0
H494 H 0.64819 0.80822 0.10608 0.0
H495 H 0.65866 0.81167 0.13271 0.0
H496 H 0.61746 0.85384 0.091 0.0
H497 H 0.61002 0.78157 0.08953 0.0
H498 H 0.58271 0.80179 0.05191 0.0
H499 H 0.55013 0.75767 0.05647 0.0
H500 H 0.62164 0.76509 0.06537 0.0
H501 H 0.60624 0.72396 0.05226 0.0
H502 H 0.58506 0.86047 0.08378 0.0
H503 H 0.60112 0.8396 0.04153 0.0
H504 H 0.53425 0.71619 0.04397 0.0
H505 H 0.57227 0.88668 0.07205 0.0
H506 H 0.58719 0.86502 0.02978 0.0
C507 C 0.21151 0.82764 0.14004 0.0
C508 C 0.20031 0.80693 0.14801 0.0
C509 C 0.21502 0.82475 0.12519 0.0
C510 C 0.20736 0.80109 0.118 0.0
C511 C 0.19636 0.78047 0.12602 0.0
C512 C 0.19279 0.78334 0.14079 0.0
C513 C 0.2107 0.79765 0.10218 0.0
C514 C 0.23263 0.8141 0.09651 0.0
C515 C 0.23629 0.80995 0.08177 0.0
C516 C 0.21771 0.78901 0.07275 0.0
C517 C 0.19567 0.77234 0.07821 0.0
C518 C 0.1922 0.77714 0.09286 0.0
C519 C 0.17682 0.74932 0.06888 0.0
C520 C 0.17219 0.74925 0.05357 0.0
C521 C 0.16391 0.72692 0.07516 0.0
C522 C 0.14697 0.70506 0.0664 0.0
C523 C 0.14282 0.70496 0.05111 0.0
C524 C 0.25969 0.82707 0.07582 0.0
C525 C 0.27105 0.85291 0.07932 0.0
C526 C 0.27054 0.81767 0.06627 0.0
C527 C 0.29175 0.83367 0.06002 0.0
C528 C 0.3028 0.85946 0.06329 0.0
C529 C 0.29245 0.86894 0.07316 0.0
C530 C 0.15552 0.72725 0.04477 0.0
H531 H 0.21773 0.8461 0.1453 0.0
H532 H 0.22343 0.84099 0.1193 0.0
H533 H 0.19058 0.76203 0.12091 0.0
H534 H 0.18377 0.76692 0.14649 0.0
H535 H 0.24723 0.82962 0.10371 0.0
H536 H 0.17496 0.76484 0.09705 0.0
H537 H 0.22058 0.78551 0.06147 0.0
H538 H 0.18142 0.76618 0.04837 0.0
H539 H 0.16731 0.72606 0.08682 0.0
H540 H 0.13765 0.68804 0.07153 0.0
H541 H 0.26306 0.86078 0.08653 0.0
H542 H 0.26267 0.79787 0.06362 0.0
H543 H 0.15244 0.72767 0.03301 0.0
H544 H 0.30051 0.88876 0.07579 0.0
H545 H 0.29959 0.82584 0.05266 0.0
C546 C 0.22163 0.39987 0.14749 0.0
C547 C 0.19725 0.38368 0.15018 0.0
C548 C 0.2268 0.40858 0.13368 0.0
C549 C 0.2077 0.4011 0.12224 0.0
C550 C 0.18343 0.38408 0.12481 0.0
C551 C 0.17826 0.37558 0.13864 0.0
C552 C 0.21281 0.41194 0.10796 0.0
C553 C 0.2341 0.41652 0.10139 0.0
C554 C 0.2393 0.42758 0.08814 0.0
C555 C 0.22286 0.43403 0.08149 0.0
C556 C 0.20137 0.42922 0.08779 0.0
C557 C 0.19654 0.4183 0.10102 0.0
C558 C 0.1838 0.43546 0.08053 0.0
C559 C 0.19215 0.45888 0.07562 0.0
C560 C 0.15851 0.41792 0.07848 0.0
C561 C 0.14188 0.42362 0.07155 0.0
C562 C 0.15018 0.44707 0.06669 0.0
C563 C 0.2618 0.43239 0.08119 0.0
C564 C 0.28437 0.44125 0.08986 0.0
C565 C 0.26095 0.42853 0.06576 0.0
C566 C 0.28218 0.43378 0.05915 0.0
C567 C 0.30482 0.44283 0.06779 0.0
C568 C 0.30562 0.44636 0.08325 0.0
C569 C 0.17546 0.46469 0.06885 0.0
H570 H 0.2366 0.40653 0.15624 0.0
H571 H 0.24565 0.42187 0.13215 0.0
H572 H 0.16835 0.37747 0.11615 0.0
H573 H 0.15935 0.36277 0.14035 0.0
H574 H 0.24637 0.41099 0.10643 0.0
H575 H 0.18035 0.41542 0.10612 0.0
H576 H 0.2267 0.44274 0.07134 0.0
H577 H 0.21155 0.47278 0.07717 0.0
H578 H 0.15163 0.39967 0.08208 0.0
H579 H 0.12247 0.40976 0.07012 0.0
H580 H 0.28574 0.44463 0.10177 0.0
H581 H 0.24381 0.42139 0.05874 0.0
H582 H 0.18236 0.48285 0.0651 0.0
H583 H 0.32266 0.45301 0.09026 0.0
H584 H 0.28089 0.43112 0.04721 0.0
C585 C 0.45858 0.92303 0.18754 0.0
C586 C 0.45795 0.94455 0.18486 0.0
C587 C 0.45483 0.9145 0.20142 0.0
C588 C 0.45007 0.92714 0.21286 0.0
C589 C 0.44905 0.94846 0.21016 0.0
C590 C 0.45319 0.95723 0.1963 0.0
C591 C 0.44638 0.91803 0.22758 0.0
C592 C 0.46312 0.91218 0.2344 0.0
C593 C 0.45933 0.90236 0.24803 0.0
C594 C 0.4383 0.89821 0.25474 0.0
C595 C 0.4215 0.90419 0.24813 0.0
C596 C 0.42581 0.91438 0.23462 0.0
C597 C 0.3991 0.89906 0.25516 0.0
C598 C 0.38431 0.87582 0.2601 0.0
C599 C 0.3924 0.91729 0.25703 0.0
C600 C 0.37144 0.91246 0.26391 0.0
C601 C 0.35662 0.88918 0.26882 0.0
C602 C 0.47731 0.89645 0.25523 0.0
C603 C 0.48848 0.88598 0.24678 0.0
C604 C 0.48359 0.90141 0.27062 0.0
C605 C 0.50061 0.89604 0.27738 0.0
C606 C 0.51193 0.88575 0.26892 0.0
C607 C 0.50564 0.88078 0.25353 0.0
C608 C 0.36321 0.87089 0.26679 0.0
H609 H 0.46244 0.91303 0.17895 0.0
H610 H 0.45553 0.8979 0.20321 0.0
H611 H 0.44549 0.95855 0.21884 0.0
H612 H 0.45252 0.97382 0.19449 0.0
H613 H 0.47938 0.91573 0.22914 0.0
H614 H 0.41264 0.91854 0.2293 0.0
H615 H 0.43487 0.8902 0.26513 0.0
H616 H 0.38896 0.86138 0.25868 0.0
H617 H 0.40357 0.93539 0.25337 0.0
H618 H 0.36668 0.92683 0.26526 0.0
H619 H 0.48385 0.88162 0.23493 0.0
H620 H 0.47558 0.90973 0.27745 0.0
H621 H 0.35222 0.85286 0.27057 0.0
H622 H 0.51418 0.87314 0.24664 0.0
H623 H 0.50473 0.8998 0.28927 0.0
C624 C 0.03167 0.49617 0.20301 0.0
C625 C 0.04339 0.51595 0.19445 0.0
C626 C 0.03804 0.49972 0.2183 0.0
C627 C 0.05596 0.52319 0.22527 0.0
C628 C 0.06736 0.54301 0.21671 0.0
C629 C 0.0612 0.53941 0.20146 0.0
C630 C 0.06358 0.52707 0.24135 0.0
C631 C 0.06956 0.51085 0.24791 0.0
C632 C 0.07932 0.51587 0.2628 0.0
C633 C 0.08276 0.53727 0.27114 0.0
C634 C 0.07682 0.55371 0.26477 0.0
C635 C 0.06684 0.54817 0.2499 0.0
C636 C 0.08261 0.57744 0.27331 0.0
C637 C 0.08046 0.5788 0.28858 0.0
C638 C 0.09141 0.59928 0.26633 0.0
C639 C 0.09798 0.62181 0.27439 0.0
C640 C 0.09634 0.62316 0.28965 0.0
C641 C 0.08747 0.49968 0.26935 0.0
C642 C 0.07349 0.47375 0.26613 0.0
C643 C 0.10966 0.51018 0.27865 0.0
C644 C 0.11766 0.49516 0.28463 0.0
C645 C 0.10382 0.46924 0.28134 0.0
C646 C 0.0816 0.45869 0.27205 0.0
C647 C 0.08749 0.60148 0.29668 0.0
H648 H 0.01794 0.47787 0.19786 0.0
H649 H 0.02894 0.48416 0.22467 0.0
H650 H 0.08144 0.56124 0.22176 0.0
H651 H 0.07032 0.55506 0.19515 0.0
H652 H 0.06787 0.49503 0.24118 0.0
H653 H 0.06178 0.56042 0.24485 0.0
H654 H 0.09074 0.54145 0.28254 0.0
H655 H 0.07337 0.56235 0.29429 0.0
H656 H 0.09392 0.59919 0.2547 0.0
H657 H 0.10506 0.63837 0.26875 0.0
H658 H 0.05622 0.46507 0.25908 0.0
H659 H 0.12111 0.5301 0.28117 0.0
H660 H 0.08588 0.60208 0.30844 0.0
H661 H 0.07059 0.43881 0.26918 0.0
H662 H 0.13466 0.50392 0.29193 0.0
C663 C 0.44999 0.5059 0.19469 0.0
C664 C 0.47376 0.51094 0.19205 0.0
C665 C 0.44436 0.5082 0.20909 0.0
C666 C 0.46244 0.51584 0.22113 0.0
C667 C 0.48593 0.52014 0.21858 0.0
C668 C 0.49148 0.51755 0.20422 0.0
C669 C 0.45733 0.52079 0.23623 0.0
C670 C 0.43601 0.50344 0.24201 0.0
C671 C 0.43096 0.50849 0.25622 0.0
C672 C 0.44755 0.53129 0.26455 0.0
C673 C 0.46885 0.54898 0.25886 0.0
C674 C 0.4736 0.54345 0.24469 0.0
C675 C 0.4857 0.57352 0.26747 0.0
C676 C 0.47625 0.58574 0.27601 0.0
C677 C 0.51132 0.58518 0.26701 0.0
C678 C 0.52703 0.6086 0.27468 0.0
C679 C 0.51755 0.62086 0.28317 0.0
C680 C 0.40814 0.49039 0.26232 0.0
C681 C 0.38562 0.47713 0.25328 0.0
C682 C 0.40852 0.48693 0.27738 0.0
C683 C 0.38685 0.47126 0.28335 0.0
C684 C 0.36422 0.45835 0.27439 0.0
C685 C 0.36394 0.46124 0.25923 0.0
C686 C 0.49196 0.60899 0.28384 0.0
H687 H 0.43595 0.50107 0.18561 0.0
H688 H 0.42616 0.50497 0.21077 0.0
H689 H 0.50009 0.52574 0.22772 0.0
H690 H 0.50978 0.52098 0.20267 0.0
H691 H 0.4236 0.48585 0.23552 0.0
H692 H 0.48954 0.55717 0.23995 0.0
H693 H 0.4437 0.53541 0.27545 0.0
H694 H 0.45662 0.57756 0.27649 0.0
H695 H 0.51932 0.57622 0.26071 0.0
H696 H 0.54658 0.61723 0.27374 0.0
H697 H 0.38457 0.47947 0.24165 0.0
H698 H 0.42559 0.4965 0.28463 0.0
H699 H 0.48397 0.61759 0.29045 0.0
H700 H 0.34695 0.45131 0.25193 0.0
H701 H 0.38783 0.46977 0.2951 0.0
C702 C 0.53022 0.02688 0.04405 0.0
Eu703 Eu 0.51056 0.0147 0.01671 0.0
C704 C 0.522 0.01881 0.05849 0.0
C705 C 0.52679 0.03665 0.07029 0.0
C706 C 0.51875 0.02944 0.08401 0.0
C707 C 0.50589 0.00419 0.08625 0.0
C708 C 0.50111 0.98635 0.07435 0.0
C709 C 0.50895 0.99356 0.06058 0.0
C710 C 0.49236 0.03888 0.00183 0.0
C711 C 0.45264 0.97107 0.01494 0.0
C712 C 0.46193 0.97565 0.95963 0.0
Eu713 Eu 0.48177 0.98794 0.98694 0.0
C714 C 0.46956 0.98357 0.94503 0.0
C715 C 0.4697 0.96666 0.93419 0.0
C716 C 0.47683 0.9737 0.92029 0.0
C717 C 0.4837 0.99772 0.9169 0.0
C718 C 0.48357 0.01466 0.92774 0.0
C719 C 0.47666 0.00771 0.9417 0.0
C720 C 0.50043 0.96415 0.00189 0.0
C721 C 0.53984 0.03115 0.9887 0.0
O722 O 0.53226 0.01121 0.03486 0.0
O723 O 0.52025 0.03824 0.03756 0.0
O724 O 0.51364 0.04987 0.00967 0.0
O725 O 0.48115 0.01584 0.00269 0.0
O726 O 0.47437 0.98368 0.02289 0.0
O727 O 0.45006 0.97201 0.00058 0.0
O728 O 0.4597 0.99113 0.96888 0.0
O729 O 0.47225 0.96454 0.96606 0.0
O730 O 0.47908 0.95283 0.99411 0.0
O731 O 0.51127 0.98708 0.00086 0.0
O732 O 0.51809 0.0188 0.98074 0.0
O733 O 0.54231 0.03018 0.00307 0.0
H734 H 0.53663 0.0562 0.06885 0.0
H735 H 0.52238 0.04369 0.09281 0.0
H736 H 0.49159 0.96677 0.07568 0.0
H737 H 0.50482 0.97938 0.05161 0.0
H738 H 0.46421 0.94793 0.93648 0.0
H739 H 0.47652 0.96019 0.91208 0.0
H740 H 0.48901 0.03338 0.92547 0.0
H741 H 0.47688 0.02123 0.94984 0.0
C742 C 0.99064 0.5229 0.04143 0.0
Eu743 Eu 0.99017 0.50366 0.01514 0.0
C744 C 0.99498 0.51901 0.05674 0.0
C745 C 0.98418 0.52557 0.06782 0.0
C746 C 0.98809 0.52203 0.08247 0.0
C747 C 0.00295 0.51193 0.08626 0.0
C748 C 0.01358 0.50516 0.07507 0.0
C749 C 0.00952 0.50856 0.06041 0.0
C750 C 0.96044 0.45552 0.00414 0.0
C751 C 0.02954 0.48435 0.01473 0.0
C752 C 0.00151 0.46842 0.95961 0.0
Eu753 Eu 0.00231 0.48863 0.98565 0.0
C754 C -0.00019 0.47272 0.94409 0.0
C755 C 0.00831 0.49668 0.94003 0.0
C756 C 0.00735 0.50039 0.92512 0.0
C757 C 0.99776 0.48019 0.91405 0.0
C758 C 0.98881 0.45618 0.91826 0.0
C759 C 0.98989 0.45252 0.93314 0.0
C760 C 0.03182 0.53694 0.99649 0.0
C761 C 0.96292 0.50814 0.98612 0.0
O762 O 0.00973 0.53184 0.03387 0.0
O763 O 0.97068 0.50501 0.0338 0.0
O764 O 0.95285 0.4683 0.01159 0.0
O765 O 0.98332 0.46797 0.00382 0.0
O766 O 0.02274 0.49871 0.02181 0.0
O767 O 0.02023 0.47422 0.00104 0.0
O768 O 0.98174 0.46187 0.96634 0.0
O769 O 0.02178 0.4845 0.96784 0.0
O770 O 0.03947 0.5244 0.98885 0.0
O771 O 0.009 0.5242 0.99689 0.0
O772 O 0.97011 0.49421 0.97889 0.0
O773 O 0.97172 0.51775 -5e-05 0.0
H774 H 0.97283 0.53358 0.06515 0.0
H775 H 0.9799 0.52769 0.09087 0.0
H776 H 0.0249 0.49709 0.07765 0.0
H777 H 0.01779 0.50311 0.05196 0.0
H778 H 0.01594 0.51251 0.94838 0.0
H779 H 0.01456 0.51913 0.92227 0.0
H780 H 0.98082 0.44015 0.91005 0.0
H781 H 0.98308 0.43388 0.93611 0.0
C782 C 0.46221 0.47535 0.9612 0.0
Eu783 Eu 0.48346 0.49574 0.9877 0.0
C784 C 0.47045 0.47698 0.94636 0.0
C785 C 0.48966 0.49929 0.94246 0.0
C786 C 0.49779 0.50028 0.92846 0.0
C787 C 0.48708 0.47891 0.91823 0.0
C788 C 0.46792 0.45661 0.92221 0.0
C789 C 0.45964 0.45569 0.93615 0.0
C790 C 0.50172 0.54354 0.99863 0.0
C791 C 0.54276 0.51711 0.98831 0.0
C792 C 0.53803 0.53205 0.04362 0.0
Eu793 Eu 0.51599 0.51198 0.01721 0.0
C794 C 0.53156 0.52837 0.0588 0.0
C795 C 0.51277 0.50543 0.06222 0.0
C796 C 0.50674 0.50229 0.07673 0.0
C797 C 0.51926 0.5221 0.08803 0.0
C798 C 0.53788 0.54512 0.08444 0.0
C799 C 0.54399 0.54818 0.06996 0.0
C800 C 0.49771 0.46422 0.00617 0.0
C801 C 0.45646 0.49054 0.0166 0.0
O802 O 0.47029 0.46504 0.97029 0.0
O803 O 0.46282 0.49508 0.96751 0.0
O804 O 0.48006 0.53011 0.99134 0.0
O805 O 0.51309 0.53181 0.99892 0.0
O806 O 0.52051 0.50243 0.98126 0.0
O807 O 0.54587 0.52688 0.0021 0.0
O808 O 0.5266 0.5406 0.03561 0.0
O809 O 0.53963 0.51427 0.03634 0.0
O810 O 0.51948 0.47767 0.01329 0.0
O811 O 0.48638 0.47597 0.00606 0.0
O812 O 0.4787 0.50433 0.02389 0.0
O813 O 0.45331 0.48178 0.00258 0.0
H814 H 0.49853 0.51587 0.95027 0.0
H815 H 0.51278 0.51763 0.92575 0.0
H816 H 0.45921 0.43991 0.9145 0.0
H817 H 0.44491 0.43829 0.93901 0.0
H818 H 0.50282 0.48995 0.05369 0.0
H819 H 0.49249 0.48425 0.0791 0.0
H820 H 0.54756 0.56094 0.09277 0.0
H821 H 0.55835 0.56608 0.06746 0.0
C822 C 0.2005 0.35966 0.37772 0.0
Eu823 Eu 0.18005 0.34688 0.35049 0.0
C824 C 0.19263 0.35372 0.39245 0.0
C825 C 0.20742 0.3697 0.40494 0.0
C826 C 0.2004 0.36402 0.41906 0.0
C827 C 0.17836 0.3423 0.42087 0.0
C828 C 0.1634 0.32651 0.40827 0.0
C829 C 0.17055 0.33213 0.39418 0.0
C830 C 0.16345 0.3715 0.33474 0.0
C831 C 0.12125 0.30461 0.34839 0.0
C832 C 0.13174 0.30781 0.29316 0.0
Eu833 Eu 0.15114 0.31986 0.32053 0.0
C834 C 0.13927 0.31682 0.27878 0.0
C835 C 0.13787 0.3002 0.26715 0.0
C836 C 0.14519 0.30829 0.25346 0.0
C837 C 0.15381 0.33312 0.25111 0.0
C838 C 0.15518 0.34977 0.26275 0.0
C839 C 0.14812 0.34174 0.27651 0.0
C840 C 0.16878 0.29569 0.33605 0.0
C841 C 0.20945 0.36159 0.32246 0.0
O842 O 0.19966 0.34168 0.36907 0.0
O843 O 0.19225 0.37215 0.37081 0.0
O844 O 0.18465 0.38232 0.34267 0.0
O845 O 0.15164 0.34864 0.336 0.0
O846 O 0.14275 0.3175 0.35661 0.0
O847 O 0.1192 0.30462 0.33392 0.0
O848 O 0.12813 0.32205 0.30263 0.0
O849 O 0.14329 0.29768 0.29936 0.0
O850 O 0.14762 0.28452 0.32805 0.0
O851 O 0.17993 0.31855 0.33486 0.0
O852 O 0.18765 0.35075 0.31457 0.0
O853 O 0.2117 0.35976 0.33674 0.0
H854 H 0.2245 0.38649 0.40378 0.0
H855 H 0.21218 0.37664 0.42855 0.0
H856 H 0.14651 0.30948 0.40932 0.0
H857 H 0.15902 0.31946 0.38466 0.0
H858 H 0.13111 0.28092 0.26867 0.0
H859 H 0.14371 0.29502 0.24463 0.0
H860 H 0.16199 0.36907 0.26126 0.0
H861 H 0.14962 0.35504 0.28533 0.0
C862 C 0.65783 0.85772 0.37431 0.0
Eu863 Eu 0.65731 0.83882 0.34794 0.0
C864 C 0.66232 0.85381 0.38961 0.0
C865 C 0.65475 0.82997 0.39365 0.0
C866 C 0.65936 0.82677 0.40828 0.0
C867 C 0.6719 0.84738 0.41904 0.0
C868 C 0.67957 0.8712 0.41491 0.0
C869 C 0.67476 0.87436 0.40032 0.0
C870 C 0.62707 0.79134 0.33618 0.0
C871 C 0.69632 0.8187 0.34773 0.0
C872 C 0.66954 0.80502 0.29235 0.0
Eu873 Eu 0.67029 0.82442 0.31862 0.0
C874 C 0.66597 0.80888 0.27685 0.0
C875 C 0.68017 0.83209 0.2717 0.0
C876 C 0.67686 0.83507 0.25685 0.0
C877 C 0.65916 0.81498 0.24693 0.0
C878 C 0.6448 0.79188 0.25216 0.0
C879 C 0.64825 0.78885 0.26697 0.0
C880 C 0.70016 0.8723 0.33012 0.0
C881 C 0.63152 0.8448 0.31882 0.0
O882 O 0.67696 0.86684 0.36681 0.0
O883 O 0.63782 0.84005 0.36655 0.0
O884 O 0.61952 0.8044 0.34336 0.0
O885 O 0.65011 0.8032 0.33636 0.0
O886 O 0.68839 0.83182 0.35509 0.0
O887 O 0.68861 0.81013 0.33369 0.0
O888 O 0.65018 0.79667 0.29966 0.0
O889 O 0.68973 0.82207 0.30027 0.0
O890 O 0.70782 0.85968 0.32258 0.0
O891 O 0.67722 0.85989 0.33014 0.0
O892 O 0.63884 0.83098 0.3116 0.0
O893 O 0.63977 0.85385 0.33278 0.0
H894 H 0.64536 0.81386 0.38549 0.0
H895 H 0.65347 0.80824 0.41115 0.0
H896 H 0.68904 0.88739 0.423 0.0
H897 H 0.68079 0.89289 0.39739 0.0
H898 H 0.69388 0.84793 0.27911 0.0
H899 H 0.68799 0.85315 0.25315 0.0
H900 H 0.63119 0.77601 0.24473 0.0
H901 H 0.63716 0.77079 0.2707 0.0
C902 C 0.12659 0.8058 0.29333 0.0
Eu903 Eu 0.14764 0.82593 0.3199 0.0
C904 C 0.13487 0.80796 0.2785 0.0
C905 C 0.15427 0.83039 0.27488 0.0
C906 C 0.16253 0.83186 0.26089 0.0
C907 C 0.15176 0.81083 0.25039 0.0
C908 C 0.13238 0.78841 0.25409 0.0
C909 C 0.12398 0.78702 0.26802 0.0
C910 C 0.16549 0.87365 0.33072 0.0
C911 C 0.20697 0.84718 0.32072 0.0
C912 C 0.20182 0.86391 0.37582 0.0
Eu913 Eu 0.18 0.8427 0.34952 0.0
C914 C 0.19523 0.86125 0.39103 0.0
C915 C 0.176 0.83887 0.39477 0.0
C916 C 0.17002 0.83665 0.40932 0.0
C917 C 0.18304 0.85686 0.42035 0.0
C918 C 0.20207 0.87934 0.41642 0.0
C919 C 0.20812 0.88147 0.4019 0.0
C920 C 0.16162 0.79463 0.33901 0.0
C921 C 0.12035 0.82076 0.34866 0.0
O922 O 0.13511 0.79568 0.30228 0.0
O923 O 0.12673 0.82517 0.2998 0.0
O924 O 0.14369 0.85991 0.32367 0.0
O925 O 0.1771 0.86217 0.331 0.0
O926 O 0.18475 0.83267 0.3136 0.0
O927 O 0.21006 0.8569 0.33451 0.0
O928 O 0.19076 0.87229 0.36734 0.0
O929 O 0.20318 0.84558 0.36908 0.0
O930 O 0.18315 0.80804 0.34644 0.0
O931 O 0.15048 0.80655 0.33848 0.0
O932 O 0.14253 0.83499 0.35595 0.0
O933 O 0.1174 0.81162 0.33473 0.0
H934 H 0.1632 0.84669 0.28291 0.0
H935 H 0.17768 0.84928 0.2584 0.0
H936 H 0.12361 0.77197 0.24617 0.0
H937 H 0.1091 0.76953 0.27066 0.0
H938 H 0.1657 0.82309 0.38647 0.0
H939 H 0.15543 0.819 0.41195 0.0
H940 H 0.21215 0.89544 0.42452 0.0
H941 H 0.22285 0.89897 0.39915 0.0
C942 C 0.86559 0.69588 0.71124 0.0
Eu943 Eu 0.84685 0.68246 0.68373 0.0
C944 C 0.85746 0.68736 0.72566 0.0
C945 C 0.85504 0.70317 0.73619 0.0
C946 C 0.84684 0.69534 0.74979 0.0
C947 C 0.84107 0.67156 0.75319 0.0
C948 C 0.84368 0.65581 0.74264 0.0
C949 C 0.85172 0.66359 0.72901 0.0
C950 C 0.83003 0.70636 0.66742 0.0
C951 C 0.78888 0.63883 0.68168 0.0
C952 C 0.80028 0.64064 0.62657 0.0
Eu953 Eu 0.81906 0.65437 0.65405 0.0
C954 C 0.80793 0.64959 0.61222 0.0
C955 C 0.80531 0.63268 0.6004 0.0
C956 C 0.81285 0.64078 0.58674 0.0
C957 C 0.82294 0.66592 0.58465 0.0
C958 C 0.82559 0.68286 0.59651 0.0
C959 C 0.8183 0.67481 0.61022 0.0
C960 C 0.83678 0.63109 0.67038 0.0
C961 C 0.87692 0.69784 0.65602 0.0
O962 O 0.86964 0.68141 0.70225 0.0
O963 O 0.85421 0.70565 0.70443 0.0
O964 O 0.85093 0.71741 0.67566 0.0
O965 O 0.81835 0.68344 0.66869 0.0
O966 O 0.8104 0.65172 0.68984 0.0
O967 O 0.78679 0.63907 0.66724 0.0
O968 O 0.79545 0.65438 0.63564 0.0
O969 O 0.81276 0.63186 0.63323 0.0
O970 O 0.81572 0.61961 0.6623 0.0
O971 O 0.84787 0.65388 0.66892 0.0
O972 O 0.85532 0.68535 0.64793 0.0
O973 O 0.87908 0.6973 0.67045 0.0
H974 H 0.85931 0.72156 0.73385 0.0
H975 H 0.84472 0.70782 0.75755 0.0
H976 H 0.83981 0.63755 0.74498 0.0
H977 H 0.8534 0.65094 0.72112 0.0
H978 H 0.79744 0.61319 0.60174 0.0
H979 H 0.8104 0.6273 0.57774 0.0
H980 H 0.83355 0.70238 0.59522 0.0
H981 H 0.82082 0.6883 0.61924 0.0
C982 C 0.3288 0.19305 0.70927 0.0
Eu983 Eu 0.3271 0.1735 0.68286 0.0
C984 C 0.33304 0.18877 0.72453 0.0
C985 C 0.32288 0.16467 0.72873 0.0
C986 C 0.3274 0.16109 0.74329 0.0
C987 C 0.34241 0.18153 0.75381 0.0
C988 C 0.35264 0.20559 0.74952 0.0
C989 C 0.34793 0.20916 0.73502 0.0
C990 C 0.29713 0.12542 0.67188 0.0
C991 C 0.36612 0.1537 0.68207 0.0
C992 C 0.3382 0.13849 0.62713 0.0
Eu993 Eu 0.33883 0.15855 0.65319 0.0
C994 C 0.33565 0.14189 0.61152 0.0
C995 C 0.34584 0.13284 0.60137 0.0
C996 C 0.34349 0.13549 0.5864 0.0
C997 C 0.33079 0.1472 0.58131 0.0
C998 C 0.32088 0.15661 0.59159 0.0
C999 C 0.32331 0.15399 0.60661 0.0
C1000 C 0.36866 0.20672 0.66423 0.0
C1001 C 0.29969 0.17833 0.654 0.0
O1002 O 0.34782 0.2013 0.70168 0.0
O1003 O 0.30834 0.17609 0.70154 0.0
O1004 O 0.28976 0.13815 0.67959 0.0
O1005 O 0.31998 0.13784 0.67139 0.0
O1006 O 0.35935 0.16792 0.68935 0.0
O1007 O 0.35688 0.14395 0.66832 0.0
O1008 O 0.3186 0.13128 0.63414 0.0
O1009 O 0.35839 0.15554 0.63501 0.0
O1010 O 0.37619 0.19411 0.65657 0.0
O1011 O 0.34582 0.19411 0.66462 0.0
O1012 O 0.30673 0.16438 0.64663 0.0
O1013 O 0.30865 0.1878 0.66784 0.0
H1014 H 0.31154 0.14862 0.72076 0.0
H1015 H 0.31948 0.14236 0.74627 0.0
H1016 H 0.36406 0.22168 0.75744 0.0
H1017 H 0.35597 0.22787 0.73196 0.0
H1018 H 0.3556 0.12364 0.60502 0.0
H1019 H 0.35173 0.12845 0.57882 0.0
H1020 H 0.31082 0.16553 0.58801 0.0
H1021 H 0.31543 0.16121 0.61435 0.0
C1022 C 0.7951 0.14269 0.62663 0.0
Eu1023 Eu 0.81644 0.1611 0.65334 0.0
C1024 C 0.80317 0.14514 0.61175 0.0
C1025 C 0.82285 0.16751 0.60826 0.0
C1026 C 0.83096 0.16913 0.59423 0.0
C1027 C 0.81978 0.14831 0.58357 0.0
C1028 C 0.80009 0.12599 0.58712 0.0
C1029 C 0.79183 0.12445 0.60109 0.0
C1030 C 0.83507 0.20823 0.66553 0.0
C1031 C 0.8756 0.18094 0.65398 0.0
C1032 C 0.87002 0.19414 0.70951 0.0
Eu1033 Eu 0.8484 0.17499 0.68291 0.0
C1034 C 0.86265 0.19133 0.72455 0.0
C1035 C 0.84254 0.16922 0.7279 0.0
C1036 C 0.8358 0.16684 0.74229 0.0
C1037 C 0.84892 0.18664 0.75355 0.0
C1038 C 0.86885 0.20888 0.75001 0.0
C1039 C 0.87566 0.21116 0.73566 0.0
C1040 C 0.82916 0.12747 0.67104 0.0
C1041 C 0.78904 0.15443 0.68219 0.0
O1042 O 0.80304 0.13159 0.63517 0.0
O1043 O 0.79606 0.1622 0.63356 0.0
O1044 O 0.81329 0.19529 0.65832 0.0
O1045 O 0.84633 0.19636 0.66525 0.0
O1046 O 0.85343 0.16837 0.64652 0.0
O1047 O 0.87883 0.18871 0.66818 0.0
O1048 O 0.86081 0.20435 0.70111 0.0
O1049 O 0.86986 0.17511 0.70253 0.0
O1050 O 0.85064 0.14001 0.67863 0.0
O1051 O 0.81843 0.13982 0.67107 0.0
O1052 O 0.81121 0.16764 0.68964 0.0
O1053 O 0.78605 0.14638 0.66804 0.0
H1054 H 0.83212 0.18361 0.61643 0.0
H1055 H 0.84635 0.18646 0.59183 0.0
H1056 H 0.79102 0.10972 0.57907 0.0
H1057 H 0.77674 0.10701 0.60363 0.0
H1058 H 0.83212 0.15375 0.71941 0.0
H1059 H 0.82053 0.14938 0.74461 0.0
H1060 H 0.87905 0.22469 0.75829 0.0
H1061 H 0.89106 0.22846 0.73321 0.0
H1062 H 0.30992 0.85666 0.03418 0.0
H1063 H 0.44895 0.96894 0.04468 0.0
H1064 H 0.34544 0.90057 0.07605 0.0
H1065 H 0.40625 0.93713 0.00213 0.0
H1066 H 0.41241 0.94226 0.05661 0.0
H1067 H 0.34635 0.88411 0.02247 0.0
C1068 C 0.32546 0.87205 0.04091 0.0
C1069 C 0.32472 0.87632 0.05611 0.0
C1070 C 0.41106 0.94121 0.04467 0.0
C1071 C 0.36646 0.90786 0.04278 0.0
C1072 C 0.43191 0.95638 0.03783 0.0
C1073 C 0.43067 0.95529 0.02236 0.0
C1074 C 0.38887 0.92465 0.03597 0.0
C1075 C 0.40808 0.93866 0.01408 0.0
C1076 C 0.34618 0.8878 0.03421 0.0
C1077 C 0.34523 0.89674 0.06428 0.0
N1078 N 0.38812 0.92394 0.02099 0.0
N1079 N 0.36534 0.9117 0.05752 0.0
H1080 H 0.14699 0.48892 0.07182 0.0
H1081 H 0.04044 0.4486 0.00607 0.0
H1082 H 0.11325 0.41866 0.04465 0.0
H1083 H 0.05861 0.50702 0.04093 0.0
H1084 H 0.06975 0.43957 0.01882 0.0
H1085 H 0.11745 0.49817 0.05931 0.0
C1086 C 0.13341 0.4755 0.06318 0.0
C1087 C 0.1325 0.45299 0.05926 0.0
C1088 C 0.06728 0.45432 0.0237 0.0
C1089 C 0.09878 0.46341 0.04494 0.0
C1090 C 0.0506 0.45955 0.01641 0.0
C1091 C 0.04706 0.4786 0.02245 0.0
C1092 C 0.08074 0.4684 0.03705 0.0
C1093 C 0.0607 0.49211 0.0359 0.0
C1094 C 0.1165 0.48071 0.05613 0.0
C1095 C 0.11442 0.43613 0.0481 0.0
N1096 N 0.07705 0.48682 0.04272 0.0
N1097 N 0.09834 0.44174 0.04128 0.0
H1098 H 0.5347 0.69376 0.02261 0.0
H1099 H 0.54623 0.57276 0.01477 0.0
H1100 H 0.58096 0.68149 0.05374 0.0
H1101 H 0.48105 0.57287 0.99747 0.0
H1102 H 0.56289 0.61512 0.02641 0.0
H1103 H 0.5182 0.6517 0.01065 0.0
C1104 C 0.54133 0.68227 0.02701 0.0
C1105 C 0.55924 0.6913 0.0393 0.0
C1106 C 0.54493 0.60585 0.02009 0.0
C1107 C 0.54079 0.64331 0.02535 0.0
C1108 C 0.53541 0.58171 0.01345 0.0
C1109 C 0.51213 0.56928 0.0053 0.0
C1110 C 0.53125 0.61778 0.01832 0.0
C1111 C 0.49902 0.58182 0.00375 0.0
C1112 C 0.53196 0.65829 0.0201 0.0
C1113 C 0.5675 0.67561 0.04419 0.0
N1114 N 0.50881 0.60548 0.01017 0.0
N1115 N 0.55827 0.65242 0.03718 0.0
H1116 H 0.89768 0.31966 0.94566 0.0
H1117 H 0.9113 0.42518 0.00563 0.0
H1118 H 0.84345 0.30701 0.97595 0.0
H1119 H 0.97358 0.42773 0.98679 0.0
H1120 H 0.88501 0.383 0.99333 0.0
H1121 H 0.92495 0.36046 0.95925 0.0
C1122 C 0.89155 0.32528 0.95524 0.0
C1123 C 0.8681 0.30977 0.9596 0.0
C1124 C 0.90445 0.39277 0.99194 0.0
C1125 C 0.89912 0.35678 0.97499 0.0
C1126 C 0.91942 0.41682 0.99892 0.0
C1127 C 0.94457 0.42991 0.99714 0.0
C1128 C 0.91469 0.38191 0.98298 0.0
C1129 C 0.95422 0.41827 0.98836 0.0
C1130 C 0.90711 0.34866 0.96294 0.0
C1131 C 0.8611 0.31842 0.97196 0.0
N1132 N 0.93922 0.39496 0.9815 0.0
N1133 N 0.87646 0.34138 0.97915 0.0
H1134 H 0.64378 0.51424 0.92929 0.0
H1135 H 0.59075 0.55292 0.99686 0.0
H1136 H 0.68564 0.58397 0.95685 0.0
H1137 H 0.54433 0.49571 0.96156 0.0
H1138 H 0.62645 0.56281 0.98347 0.0
H1139 H 0.60769 0.50532 0.9421 0.0
C1140 C 0.64533 0.52765 0.93805 0.0
C1141 C 0.66769 0.54985 0.94205 0.0
C1142 C 0.60843 0.54815 0.97865 0.0
C1143 C 0.62659 0.53977 0.95676 0.0
C1144 C 0.58806 0.54241 0.98631 0.0
C1145 C 0.56452 0.52341 0.98034 0.0
C1146 C 0.60529 0.53461 0.96501 0.0
C1147 C 0.56212 0.51051 0.96659 0.0
C1148 C 0.62473 0.52262 0.9453 0.0
C1149 C 0.66868 0.56672 0.95337 0.0
N1150 N 0.58228 0.51625 0.95943 0.0
N1151 N 0.64846 0.56126 0.96041 0.0
H1152 H 0.41187 0.08641 0.94544 0.0
H1153 H 0.51193 0.0887 0.00308 0.0
H1154 H 0.45256 0.14579 0.98072 0.0
H1155 H 0.44781 0.01943 0.98509 0.0
H1156 H 0.49352 0.11097 0.99201 0.0
H1157 H 0.42716 0.06199 0.95731 0.0
C1158 C 0.42376 0.09426 0.95573 0.0
C1159 C 0.43114 0.1184 0.96197 0.0
C1160 C 0.48349 0.09089 0.99048 0.0
C1161 C 0.44912 0.09077 0.97531 0.0
C1162 C 0.49401 0.07818 0.99673 0.0
C1163 C 0.4814 0.05221 0.9949 0.0
C1164 C 0.46038 0.07754 0.98215 0.0
C1165 C 0.45822 0.03948 0.9866 0.0
C1166 C 0.43256 0.08033 0.96244 0.0
C1167 C 0.44687 0.12761 0.97524 0.0
N1168 N 0.44846 0.05229 0.9804 0.0
N1169 N 0.45554 0.11391 0.98136 0.0
H1170 H 0.68653 0.1355 0.9692 0.0
H1171 H 0.54375 0.03215 0.95893 0.0
H1172 H 0.64916 0.09074 0.92774 0.0
H1173 H 0.58659 0.06397 0.00143 0.0
H1174 H 0.58104 0.05619 0.94692 0.0
H1175 H 0.64896 0.11194 0.98081 0.0
C1176 C 0.67051 0.12058 0.96253 0.0
C1177 C 0.67118 0.11499 0.94746 0.0
C1178 C 0.58224 0.05787 0.95887 0.0
C1179 C 0.62777 0.08822 0.9607 0.0
C1180 C 0.56095 0.04423 0.96575 0.0
C1181 C 0.56205 0.04599 0.98123 0.0
C1182 C 0.60471 0.07357 0.96754 0.0
C1183 C 0.58487 0.06193 0.98948 0.0
C1184 C 0.64898 0.10722 0.96917 0.0
C1185 C 0.64952 0.09588 0.93935 0.0
N1186 N 0.60526 0.07512 0.98253 0.0
N1187 N 0.62869 0.08318 0.94607 0.0
H1188 H 0.87964 0.57728 0.95968 0.0
H1189 H 0.93605 0.4878 0.95903 0.0
H1190 H 0.85068 0.5108 0.92923 0.0
H1191 H 0.95053 0.54246 0.99554 0.0
H1192 H 0.90747 0.49827 0.9466 0.0
H1193 H 0.90843 0.56692 0.97172 0.0
C1194 C 0.87918 0.56041 0.95557 0.0
C1195 C 0.86256 0.54484 0.94344 0.0
C1196 C 0.9169 0.50792 0.95734 0.0
C1197 C 0.89589 0.53313 0.95705 0.0
C1198 C 0.93326 0.50201 0.96442 0.0
C1199 C 0.94567 0.51424 0.97836 0.0
C1200 C 0.91312 0.52634 0.96418 0.0
C1201 C 0.94131 0.53247 0.98483 0.0
C1202 C 0.89575 0.55459 0.96241 0.0
C1203 C 0.86332 0.52354 0.93842 0.0
N1204 N 0.92545 0.53801 0.97767 0.0
N1205 N 0.87972 0.51832 0.94524 0.0
H1206 H 0.47929 0.33088 0.9592 0.0
H1207 H 0.4501 0.43143 0.99541 0.0
H1208 H 0.40601 0.3133 0.96766 0.0
H1209 H 0.5223 0.43946 0.0007 0.0
H1210 H 0.43365 0.38945 0.98309 0.0
H1211 H 0.49559 0.37233 0.97224 0.0
C1212 C 0.46665 0.33582 0.96378 0.0
C1213 C 0.44129 0.31874 0.96235 0.0
C1214 C 0.45306 0.40036 0.98701 0.0
C1215 C 0.45973 0.366 0.97722 0.0
C1216 C 0.46246 0.42429 0.99399 0.0
C1217 C 0.48756 0.43879 0.99906 0.0
C1218 C 0.46898 0.39106 0.98493 0.0
C1219 C 0.50281 0.42876 0.99698 0.0
C1220 C 0.47595 0.35938 0.97129 0.0
C1221 C 0.42571 0.32592 0.96861 0.0
N1222 N 0.4933 0.40552 0.98997 0.0
N1223 N 0.43516 0.34911 0.9757 0.0
H1224 H 0.15116 0.68612 0.02565 0.0
H1225 H 0.01783 0.56446 0.0133 0.0
H1226 H 0.09596 0.67032 0.05557 0.0
H1227 H 0.08109 0.56781 0.99538 0.0
H1228 H 0.04433 0.60637 0.02587 0.0
H1229 H 0.12358 0.64581 0.01129 0.0
C1230 C 0.13312 0.67425 0.02908 0.0
C1231 C 0.12579 0.68143 0.04181 0.0
C1232 C 0.05239 0.59793 0.01917 0.0
C1233 C 0.09429 0.63553 0.0255 0.0
C1234 C 0.03731 0.57405 0.01201 0.0
C1235 C 0.04741 0.56261 0.00346 0.0
C1236 C 0.07765 0.6106 0.01755 0.0
C1237 C 0.07266 0.57596 0.00196 0.0
C1238 C 0.11751 0.65124 0.02096 0.0
C1239 C 0.10235 0.66533 0.04588 0.0
N1240 N 0.08697 0.59931 0.00894 0.0
N1241 N 0.08739 0.64313 0.03774 0.0
H1242 H 0.30956 0.41775 0.04354 0.0
H1243 H 0.45464 0.50839 0.0445 0.0
H1244 H 0.35188 0.4818 0.07572 0.0
H1245 H 0.40834 0.45672 0.00692 0.0
H1246 H 0.41804 0.49627 0.05743 0.0
H1247 H 0.34654 0.42918 0.03128 0.0
C1248 C 0.32658 0.43428 0.04801 0.0
C1249 C 0.32749 0.44892 0.06065 0.0
C1250 C 0.41593 0.48764 0.04634 0.0
C1251 C 0.37007 0.46189 0.04676 0.0
C1252 C 0.43681 0.49452 0.03896 0.0
C1253 C 0.43456 0.48362 0.02457 0.0
C1254 C 0.39269 0.46958 0.03935 0.0
C1255 C 0.41098 0.46571 0.01796 0.0
C1256 C 0.34773 0.44073 0.04103 0.0
C1257 C 0.35029 0.46979 0.06612 0.0
N1258 N 0.39098 0.45922 0.02541 0.0
N1259 N 0.37066 0.47566 0.05913 0.0
H1260 H 0.58983 0.92555 0.05733 0.0
H1261 H 0.48121 0.91444 0.00228 0.0
H1262 H 0.54371 0.86074 0.02643 0.0
H1263 H 0.54572 0.98505 0.01769 0.0
H1264 H 0.50082 0.89357 0.0139 0.0
H1265 H 0.57091 0.94714 0.04562 0.0
C1266 C 0.57577 0.91595 0.04806 0.0
C1267 C 0.56834 0.89144 0.04276 0.0
C1268 C 0.51064 0.91364 0.01474 0.0
C1269 C 0.54651 0.91571 0.02954 0.0
C1270 C 0.49945 0.92554 0.00818 0.0
C1271 C 0.51184 0.95147 0.00913 0.0
C1272 C 0.53422 0.92782 0.02248 0.0
C1273 C 0.53545 0.96501 0.01686 0.0
C1274 C 0.56507 0.92824 0.04138 0.0
C1275 C 0.55009 0.87974 0.03072 0.0
N1276 N 0.54587 0.95302 0.02333 0.0
N1277 N 0.53964 0.89193 0.02458 0.0
H1278 H 0.01224 0.23845 0.41016 0.0
H1279 H 0.07596 0.26901 0.33512 0.0
H1280 H 0.97953 0.19301 0.36843 0.0
H1281 H 0.11519 0.30557 0.37796 0.0
H1282 H 0.03921 0.24346 0.34702 0.0
H1283 H 0.04894 0.26571 0.3984 0.0
C1284 C 0.01275 0.2343 0.39852 0.0
C1285 C 0.99288 0.21338 0.39027 0.0
C1286 C 0.05586 0.25705 0.35383 0.0
C1287 C 0.03468 0.24439 0.37678 0.0
C1288 C 0.07686 0.27174 0.34704 0.0
C1289 C 0.09878 0.28941 0.35556 0.0
C1290 C 0.05664 0.26012 0.36927 0.0
C1291 C 0.09879 0.29202 0.37097 0.0
C1292 C 0.03372 0.24976 0.39184 0.0
C1293 C 0.99457 0.20874 0.37525 0.0
N1294 N 0.07803 0.27755 0.37734 0.0
N1295 N 0.01506 0.22413 0.36899 0.0
H1296 H 0.77848 0.78308 0.41136 0.0
H1297 H 0.72486 0.80255 0.33535 0.0
H1298 H 0.81346 0.79101 0.37126 0.0
H1299 H 0.70786 0.82191 0.37759 0.0
H1300 H 0.75421 0.79356 0.3481 0.0
H1301 H 0.74924 0.79282 0.39892 0.0
C1302 C 0.77995 0.78685 0.39993 0.0
C1303 C 0.79837 0.78628 0.3923 0.0
C1304 C 0.74409 0.79982 0.35458 0.0
C1305 C 0.76504 0.79723 0.37804 0.0
C1306 C 0.72723 0.80483 0.34731 0.0
C1307 C 0.71389 0.81299 0.35542 0.0
C1308 C 0.7474 0.80264 0.37007 0.0
C1309 C 0.71783 0.81575 0.37091 0.0
C1310 C 0.76338 0.79252 0.39288 0.0
C1311 C 0.79964 0.79148 0.37756 0.0
N1312 N 0.73416 0.81044 0.37775 0.0
N1313 N 0.78308 0.79658 0.37087 0.0
H1314 H 0.25956 0.02533 0.36922 0.0
H1315 H 0.14034 0.89799 0.33566 0.0
H1316 H 0.18561 0.00739 0.3765 0.0
H1317 H 0.21277 0.90677 0.34195 0.0
H1318 H 0.15696 0.94002 0.34801 0.0
H1319 H 0.24305 0.98355 0.35679 0.0
C1320 C 0.23989 0.01262 0.36831 0.0
C1321 C 0.22399 0.02 0.37396 0.0
C1322 C 0.1692 0.93273 0.34669 0.0
C1323 C 0.20497 0.97228 0.35944 0.0
C1324 C 0.15975 0.90884 0.3396 0.0
C1325 C 0.17525 0.89902 0.33782 0.0
C1326 C 0.19435 0.94692 0.35184 0.0
C1327 C 0.20023 0.91372 0.34314 0.0
C1328 C 0.23048 0.98881 0.36114 0.0
C1329 C 0.19858 0.00277 0.37212 0.0
N1330 N 0.20906 0.93701 0.34988 0.0
N1331 N 0.18987 0.97977 0.36499 0.0
H1332 H 0.56448 0.63986 0.297 0.0
H1333 H 0.57715 0.76698 0.33045 0.0
H1334 H 0.50875 0.65952 0.28757 0.0
H1335 H 0.64025 0.75876 0.32468 0.0
H1336 H 0.55045 0.72534 0.31753 0.0
H1337 H 0.59144 0.68143 0.30977 0.0
C1338 C 0.5579 0.65287 0.29751 0.0
C1339 C 0.53419 0.64602 0.29115 0.0
C1340 C 0.57014 0.73266 0.31909 0.0
C1341 C 0.56486 0.69348 0.30609 0.0
C1342 C 0.58534 0.75633 0.3265 0.0
C1343 C 0.61086 0.7662 0.32862 0.0
C1344 C 0.58054 0.71867 0.31396 0.0
C1345 C 0.62061 0.75175 0.32325 0.0
C1346 C 0.5733 0.67657 0.30488 0.0
C1347 C 0.52662 0.66366 0.29251 0.0
N1348 N 0.6054 0.72861 0.31621 0.0
N1349 N 0.54186 0.6865 0.29987 0.0
H1350 H 0.35234 0.91815 0.29089 0.0
H1351 H 0.20853 0.82604 0.29387 0.0
H1352 H 0.31056 0.8483 0.26343 0.0
H1353 H 0.25503 0.88285 0.32934 0.0
H1354 H 0.24477 0.8368 0.28088 0.0
H1355 H 0.3157 0.90844 0.30338 0.0
C1356 C 0.33539 0.90085 0.28743 0.0
C1357 C 0.33444 0.88395 0.27615 0.0
C1358 C 0.24702 0.84687 0.29152 0.0
C1359 C 0.29259 0.87274 0.29035 0.0
C1360 C 0.22635 0.84078 0.29894 0.0
C1361 C 0.22876 0.85349 0.31276 0.0
C1362 C 0.27025 0.86599 0.29787 0.0
C1363 C 0.25232 0.87245 0.31876 0.0
C1364 C 0.31457 0.89526 0.29461 0.0
C1365 C 0.31211 0.86171 0.27218 0.0
N1366 N 0.27215 0.87818 0.31125 0.0
N1367 N 0.29204 0.85677 0.27924 0.0
H1368 H 0.15121 0.47834 0.28537 0.0
H1369 H 0.11678 0.35369 0.32155 0.0
H1370 H 0.07659 0.42398 0.29173 0.0
H1371 H 0.18947 0.41846 0.32726 0.0
H1372 H 0.10192 0.37622 0.3071 0.0
H1373 H 0.1657 0.45355 0.29731 0.0
C1374 C 0.13784 0.46124 0.28931 0.0
C1375 C 0.11263 0.45344 0.2877 0.0
C1376 C 0.12112 0.38545 0.3115 0.0
C1377 C 0.12914 0.42472 0.30114 0.0
C1378 C 0.1296 0.37261 0.31969 0.0
C1379 C 0.15431 0.38437 0.32565 0.0
C1380 C 0.13758 0.41007 0.30917 0.0
C1381 C 0.17022 0.40884 0.32294 0.0
C1382 C 0.14615 0.44704 0.29605 0.0
C1383 C 0.09616 0.43069 0.29264 0.0
N1384 N 0.16158 0.42091 0.31489 0.0
N1385 N 0.10472 0.41717 0.29919 0.0
H1386 H 0.35704 0.42867 0.2967 0.0
H1387 H 0.21282 0.37783 0.29507 0.0
H1388 H 0.31826 0.45202 0.26715 0.0
H1389 H 0.25708 0.37701 0.33281 0.0
H1390 H 0.2502 0.4005 0.28287 0.0
H1391 H 0.31933 0.40499 0.30827 0.0
C1392 C 0.34067 0.42893 0.29265 0.0
C1393 C 0.341 0.44259 0.28096 0.0
C1394 C 0.25169 0.39537 0.29383 0.0
C1395 C 0.29757 0.41503 0.29403 0.0
C1396 C 0.23038 0.3824 0.30079 0.0
C1397 C 0.23185 0.37559 0.31501 0.0
C1398 C 0.27456 0.40126 0.30105 0.0
C1399 C 0.2551 0.38202 0.32189 0.0
C1400 C 0.31911 0.41529 0.29924 0.0
C1401 C 0.31892 0.44159 0.27599 0.0
N1402 N 0.27552 0.3944 0.31482 0.0
N1403 N 0.29812 0.42806 0.28254 0.0
H1404 H 0.54727 0.91296 0.2922 0.0
H1405 H 0.60507 0.82468 0.29163 0.0
H1406 H 0.51855 0.84616 0.26206 0.0
H1407 H 0.61909 0.87915 0.32815 0.0
H1408 H 0.57638 0.83495 0.27915 0.0
H1409 H 0.57665 0.90327 0.30415 0.0
C1410 C 0.547 0.89617 0.28813 0.0
C1411 C 0.53025 0.8803 0.27612 0.0
C1412 C 0.58575 0.84463 0.28989 0.0
C1413 C 0.56425 0.86936 0.28963 0.0
C1414 C 0.60219 0.83885 0.29701 0.0
C1415 C 0.61446 0.85104 0.31098 0.0
C1416 C 0.58175 0.86289 0.29674 0.0
C1417 C 0.60996 0.86919 0.31743 0.0
C1418 C 0.5639 0.89073 0.29492 0.0
C1419 C 0.53127 0.85912 0.27115 0.0
N1420 N 0.59402 0.8746 0.31024 0.0
N1421 N 0.54798 0.85428 0.27792 0.0
H1422 H 0.12863 0.64408 0.31468 0.0
H1423 H 0.11659 0.76503 0.32357 0.0
H1424 H 0.08287 0.65719 0.28383 0.0
H1425 H 0.18207 0.76509 0.34043 0.0
H1426 H 0.09957 0.72243 0.31226 0.0
H1427 H 0.14398 0.68553 0.32771 0.0
C1428 C 0.12165 0.65562 0.31077 0.0
C1429 C 0.10454 0.64736 0.29818 0.0
C1430 C 0.11766 0.73178 0.31843 0.0
C1431 C 0.12185 0.69443 0.31296 0.0
C1432 C 0.12739 0.75606 0.32486 0.0
C1433 C 0.15091 0.76864 0.33273 0.0
C1434 C 0.13135 0.71985 0.32013 0.0
C1435 C 0.16394 0.75604 0.33433 0.0
C1436 C 0.13051 0.67924 0.31812 0.0
C1437 C 0.0962 0.66301 0.29345 0.0
N1438 N 0.15396 0.73224 0.32809 0.0
N1439 N 0.10488 0.6858 0.30088 0.0
H1440 H 0.81973 0.02135 0.35931 0.0
H1441 H 0.68615 0.90013 0.34663 0.0
H1442 H 0.76408 0.00623 0.38881 0.0
H1443 H 0.74963 0.90275 0.32948 0.0
H1444 H 0.71269 0.94203 0.35919 0.0
H1445 H 0.79226 0.98084 0.34512 0.0
C1446 C 0.80162 0.00958 0.36268 0.0
C1447 C 0.79412 0.01702 0.37524 0.0
C1448 C 0.72079 0.93343 0.35267 0.0
C1449 C 0.76275 0.9709 0.35913 0.0
C1450 C 0.70569 0.90955 0.34552 0.0
C1451 C 0.71582 0.89792 0.33718 0.0
C1452 C 0.74612 0.94591 0.35125 0.0
C1453 C 0.74116 0.91105 0.3359 0.0
C1454 C 0.78607 0.98647 0.35467 0.0
C1455 C 0.77059 0.00104 0.37925 0.0
N1456 N 0.75549 0.93442 0.34286 0.0
N1457 N 0.7557 0.97874 0.3712 0.0
H1458 H 0.97352 0.74613 0.37572 0.0
H1459 H 0.11809 0.83907 0.37631 0.0
H1460 H 0.01496 0.81121 0.4073 0.0
H1461 H 0.07245 0.78611 0.33904 0.0
H1462 H 0.08136 0.82659 0.38915 0.0
H1463 H 0.01056 0.75805 0.36342 0.0
C1464 C 0.99035 0.76297 0.38006 0.0
C1465 C 0.991 0.77773 0.39255 0.0
C1466 C 0.07942 0.81776 0.37815 0.0
C1467 C 0.03364 0.79127 0.37861 0.0
C1468 C 0.10037 0.82484 0.37082 0.0
C1469 C 0.09835 0.81368 0.35655 0.0
C1470 C 0.05632 0.79922 0.37123 0.0
C1471 C 0.0749 0.79531 0.34999 0.0
C1472 C 0.01153 0.7697 0.37305 0.0
C1473 C 0.01357 0.79906 0.39783 0.0
N1474 N 0.05483 0.78862 0.3574 0.0
N1475 N 0.03397 0.80519 0.39083 0.0
H1476 H 0.20923 0.18906 0.36065 0.0
H1477 H 0.21396 0.31665 0.35186 0.0
H1478 H 0.25435 0.25429 0.39144 0.0
H1479 H 0.14936 0.24592 0.33681 0.0
H1480 H 0.2325 0.29518 0.36394 0.0
H1481 H 0.19066 0.21083 0.34892 0.0
C1482 C 0.21534 0.20805 0.36484 0.0
C1483 C 0.23335 0.22 0.37697 0.0
C1484 C 0.21421 0.28441 0.35807 0.0
C1485 C 0.21229 0.24489 0.36367 0.0
C1486 C 0.20359 0.29661 0.35123 0.0
C1487 C 0.17998 0.283 0.34351 0.0
C1488 C 0.20132 0.25841 0.35688 0.0
C1489 C 0.16756 0.25707 0.34273 0.0
C1490 C 0.20463 0.22036 0.35824 0.0
C1491 C 0.24044 0.24448 0.38213 0.0
N1492 N 0.17846 0.24556 0.34926 0.0
N1493 N 0.22999 0.25622 0.37538 0.0
H1494 H 0.68198 0.57149 0.74439 0.0
H1495 H 0.74282 0.60455 0.66857 0.0
H1496 H 0.64767 0.52698 0.70255 0.0
H1497 H 0.78411 0.63778 0.71137 0.0
H1498 H 0.70643 0.57871 0.68074 0.0
H1499 H 0.71828 0.59882 0.73234 0.0
C1500 C 0.68206 0.56756 0.73266 0.0
C1501 C 0.66186 0.54689 0.72446 0.0
C1502 C 0.72345 0.59166 0.68747 0.0
C1503 C 0.70318 0.57799 0.71063 0.0
C1504 C 0.74424 0.60649 0.68053 0.0
C1505 C 0.7666 0.62335 0.68895 0.0
C1506 C 0.7249 0.5938 0.70296 0.0
C1507 C 0.76729 0.62498 0.70442 0.0
C1508 C 0.7028 0.58305 0.72582 0.0
C1509 C 0.66298 0.54252 0.70932 0.0
N1510 N 0.74673 0.61042 0.71093 0.0
N1511 N 0.68325 0.55796 0.70289 0.0
H1512 H 0.48167 0.15489 0.73926 0.0
H1513 H 0.37696 0.11812 0.67289 0.0
H1514 H 0.4483 0.08583 0.7109 0.0
H1515 H 0.39477 0.17526 0.70852 0.0
H1516 H 0.4058 0.10831 0.68546 0.0
H1517 H 0.45273 0.16503 0.72687 0.0
C1518 C 0.4683 0.14193 0.73039 0.0
C1519 C 0.46732 0.11949 0.72609 0.0
C1520 C 0.40336 0.12296 0.69055 0.0
C1521 C 0.43427 0.13093 0.7119 0.0
C1522 C 0.38695 0.12864 0.68335 0.0
C1523 C 0.38344 0.14755 0.68967 0.0
C1524 C 0.41658 0.13644 0.70408 0.0
C1525 C 0.39685 0.16049 0.70328 0.0
C1526 C 0.45172 0.14764 0.72339 0.0
C1527 C 0.4495 0.10322 0.71463 0.0
N1528 N 0.41293 0.15476 0.71001 0.0
N1529 N 0.43376 0.10931 0.70789 0.0
H1530 H 0.85434 0.34248 0.71176 0.0
H1531 H 0.8826 0.2403 0.67694 0.0
H1532 H 0.92755 0.3591 0.7035 0.0
H1533 H 0.81087 0.2333 0.67115 0.0
H1534 H 0.8993 0.28225 0.68943 0.0
H1535 H 0.83792 0.3007 0.69945 0.0
C1536 C 0.86699 0.33748 0.70728 0.0
C1537 C 0.89242 0.35453 0.70862 0.0
C1538 C 0.87993 0.27154 0.68538 0.0
C1539 C 0.87367 0.3064 0.6948 0.0
C1540 C 0.87039 0.24764 0.6783 0.0
C1541 C 0.84537 0.23347 0.67299 0.0
C1542 C 0.86423 0.28115 0.68731 0.0
C1543 C 0.83031 0.24374 0.67504 0.0
C1544 C 0.85758 0.31354 0.70032 0.0
C1545 C 0.90788 0.3466 0.70292 0.0
N1546 N 0.83995 0.26695 0.6821 0.0
N1547 N 0.89827 0.3231 0.69629 0.0
H1548 H 0.23372 0.99015 0.61287 0.0
H1549 H 0.24793 0.09528 0.67336 0.0
H1550 H 0.17959 0.97723 0.64327 0.0
H1551 H 0.31003 0.09749 0.65447 0.0
H1552 H 0.22142 0.05321 0.66092 0.0
H1553 H 0.26109 0.03077 0.6266 0.0
C1554 C 0.22762 0.99566 0.6225 0.0
C1555 C 0.20418 0.98012 0.62686 0.0
C1556 C 0.24087 0.06289 0.65955 0.0
C1557 C 0.23532 0.02697 0.64242 0.0
C1558 C 0.25596 0.08687 0.66661 0.0
C1559 C 0.28112 0.09984 0.66485 0.0
C1560 C 0.251 0.05199 0.65053 0.0
C1561 C 0.29066 0.08814 0.65601 0.0
C1562 C 0.24325 0.01896 0.63029 0.0
C1563 C 0.19723 0.98867 0.63928 0.0
N1564 N 0.27555 0.06492 0.64908 0.0
N1565 N 0.21265 0.01155 0.64656 0.0
H1566 H 0.01676 0.20832 0.62984 0.0
H1567 H 0.87809 0.17936 0.62409 0.0
H1568 H 0.98156 0.21789 0.59083 0.0
H1569 H 0.92263 0.19648 0.66574 0.0
H1570 H 0.91431 0.18925 0.61119 0.0
H1571 H 0.9808 0.19967 0.64272 0.0
C1572 C 0.00139 0.20852 0.62399 0.0
C1573 C 0.00205 0.21376 0.60926 0.0
C1574 C 0.91614 0.19091 0.62315 0.0
C1575 C 0.9609 0.20383 0.62388 0.0
C1576 C 0.89547 0.18517 0.63053 0.0
C1577 C 0.89735 0.18709 0.64603 0.0
C1578 C 0.93874 0.19825 0.63132 0.0
C1579 C 0.92036 0.19483 0.65379 0.0
C1580 C 0.98097 0.20373 0.63136 0.0
C1581 C 0.98179 0.21406 0.60222 0.0
N1582 N 0.94012 0.19997 0.64635 0.0
N1583 N 0.96192 0.20898 0.60957 0.0
H1584 H 0.75064 0.75207 0.60835 0.0
H1585 H 0.85104 0.75611 0.66716 0.0
H1586 H 0.79532 0.81442 0.64131 0.0
H1587 H 0.7862 0.68694 0.64986 0.0
H1588 H 0.83407 0.77845 0.65464 0.0
H1589 H 0.76608 0.72818 0.62076 0.0
C1590 C 0.76352 0.76073 0.61822 0.0
C1591 C 0.77182 0.78546 0.62369 0.0
C1592 C 0.82356 0.75838 0.65357 0.0
C1593 C 0.7899 0.75837 0.63765 0.0
C1594 C 0.83325 0.74562 0.66066 0.0
C1595 C 0.81998 0.71966 0.6595 0.0
C1596 C 0.80057 0.74508 0.64509 0.0
C1597 C 0.79705 0.70697 0.65092 0.0
C1598 C 0.77239 0.74709 0.62523 0.0
C1599 C 0.78883 0.7957 0.63642 0.0
N1600 N 0.78806 0.71983 0.64396 0.0
N1601 N 0.79742 0.78219 0.64287 0.0
H1602 H 0.02328 0.80401 0.63689 0.0
H1603 H 0.88119 0.69884 0.6263 0.0
H1604 H 0.98649 0.75926 0.59535 0.0
H1605 H 0.92357 0.73081 0.66892 0.0
H1606 H 0.91849 0.72329 0.61443 0.0
H1607 H 0.98586 0.77961 0.64848 0.0
C1608 C 0.00743 0.78892 0.6302 0.0
C1609 C 0.0082 0.78361 0.6151 0.0
C1610 C 0.9196 0.72491 0.62638 0.0
C1611 C 0.96497 0.75587 0.62832 0.0
C1612 C 0.8983 0.71102 0.63318 0.0
C1613 C 0.89925 0.71273 0.64866 0.0
C1614 C 0.94195 0.74081 0.63511 0.0
C1615 C 0.92196 0.72881 0.65697 0.0
C1616 C 0.98599 0.77508 0.63683 0.0
C1617 C 0.98675 0.76422 0.60697 0.0
N1618 N 0.94238 0.74226 0.65009 0.0
N1619 N 0.96601 0.75106 0.61368 0.0
H1620 H 0.18629 0.17872 0.59577 0.0
H1621 H 0.28709 0.21223 0.66394 0.0
H1622 H 0.21454 0.24413 0.62706 0.0
H1623 H 0.2728 0.15857 0.62687 0.0
H1624 H 0.25822 0.22207 0.65148 0.0
H1625 H 0.21575 0.16917 0.60782 0.0
C1626 C 0.19877 0.19119 0.60511 0.0
C1627 C 0.1979 0.21232 0.61037 0.0
C1628 C 0.26143 0.20819 0.64605 0.0
C1629 C 0.23139 0.20117 0.62438 0.0
C1630 C 0.27788 0.20249 0.65317 0.0
C1631 C 0.28237 0.18452 0.64644 0.0
C1632 C 0.24919 0.1957 0.63213 0.0
C1633 C 0.26993 0.17258 0.63246 0.0
C1634 C 0.21551 0.18563 0.61202 0.0
C1635 C 0.21423 0.22745 0.62272 0.0
N1636 N 0.25381 0.17831 0.62578 0.0
N1637 N 0.23025 0.22155 0.62931 0.0
H1638 H 0.79158 0.97561 0.6467 0.0
H1639 H 0.784 0.09912 0.65541 0.0
H1640 H 0.7462 0.98962 0.61612 0.0
H1641 H 0.84821 0.09673 0.6721 0.0
H1642 H 0.76575 0.05637 0.64401 0.0
H1643 H 0.80831 0.01747 0.65943 0.0
C1644 C 0.78498 0.98744 0.64279 0.0
C1645 C 0.76756 0.97928 0.63036 0.0
C1646 C 0.78384 0.06523 0.65016 0.0
C1647 C 0.78648 0.0269 0.6448 0.0
C1648 C 0.79428 0.0896 0.65663 0.0
C1649 C 0.81777 0.10151 0.66451 0.0
C1650 C 0.79681 0.05255 0.65184 0.0
C1651 C 0.83011 0.08821 0.66601 0.0
C1652 C 0.79463 0.01131 0.64997 0.0
C1653 C 0.75975 0.99535 0.62561 0.0
N1654 N 0.81945 0.06435 0.65975 0.0
N1655 N 0.76921 0.0184 0.63288 0.0
H1656 H 0.48853 0.35556 0.69359 0.0
H1657 H 0.35494 0.23423 0.6813 0.0
H1658 H 0.4334 0.33997 0.72355 0.0
H1659 H 0.41796 0.23741 0.66312 0.0
H1660 H 0.38163 0.27603 0.69396 0.0
H1661 H 0.46085 0.31525 0.67926 0.0
C1662 C 0.47049 0.34373 0.69704 0.0
C1663 C 0.46321 0.35098 0.70977 0.0
C1664 C 0.3896 0.26758 0.68719 0.0
C1665 C 0.43159 0.30508 0.69349 0.0
C1666 C 0.37441 0.24376 0.67997 0.0
C1667 C 0.38438 0.23232 0.67131 0.0
C1668 C 0.41485 0.28018 0.68552 0.0
C1669 C 0.40963 0.24557 0.66979 0.0
C1670 C 0.45481 0.32073 0.68894 0.0
C1671 C 0.43976 0.33493 0.71387 0.0
N1672 N 0.42404 0.26887 0.67682 0.0
N1673 N 0.42475 0.31273 0.70573 0.0
H1674 H 0.68602 0.14665 0.74331 0.0
H1675 H 0.74097 0.12142 0.672 0.0
H1676 H 0.64401 0.08424 0.71001 0.0
H1677 H 0.7869 0.17106 0.71036 0.0
H1678 H 0.70483 0.10961 0.68517 0.0
H1679 H 0.72293 0.15749 0.731 0.0
C1680 C 0.68455 0.13507 0.7335 0.0
C1681 C 0.66176 0.11452 0.72768 0.0
C1682 C 0.72282 0.12305 0.69072 0.0
C1683 C 0.70391 0.12719 0.71337 0.0
C1684 C 0.74348 0.12989 0.68319 0.0
C1685 C 0.76703 0.1473 0.69007 0.0
C1686 C 0.72563 0.13383 0.70521 0.0
C1687 C 0.76911 0.15756 0.70461 0.0
C1688 C 0.70563 0.14138 0.72643 0.0
C1689 C 0.66101 0.1005 0.71477 0.0
N1690 N 0.74864 0.15074 0.71169 0.0
N1691 N 0.68172 0.10717 0.70803 0.0
H1692 H 0.87789 0.5248 0.69426 0.0
H1693 H 0.8815 0.65232 0.68689 0.0
H1694 H 0.92263 0.58941 0.72557 0.0
H1695 H 0.81795 0.58141 0.67075 0.0
H1696 H 0.90024 0.6309 0.69887 0.0
H1697 H 0.85932 0.54675 0.68281 0.0
C1698 C 0.88392 0.5437 0.69863 0.0
C1699 C 0.90181 0.5554 0.71083 0.0
C1700 C 0.88214 0.62008 0.69278 0.0
C1701 C 0.88071 0.58051 0.69784 0.0
C1702 C 0.87142 0.63226 0.68599 0.0
C1703 C 0.84807 0.61857 0.67796 0.0
C1704 C 0.86961 0.59407 0.69123 0.0
C1705 C 0.83596 0.59263 0.67689 0.0
C1706 C 0.8732 0.55611 0.69218 0.0
C1707 C 0.9088 0.57977 0.7162 0.0
N1708 N 0.84696 0.58118 0.68337 0.0
N1709 N 0.89832 0.59163 0.70961 0.0
H1710 H 0.43794 0.91842 0.15765 0.0
H1711 H 0.52995 0.0274 0.11373 0.0
H1712 H 0.48931 0.99186 0.1789 0.0
H1713 H 0.46333 0.96341 0.09244 0.0
H1714 H 0.51671 0.01397 0.1377 0.0
H1715 H 0.4484 0.93363 0.13357 0.0
C1716 C 0.45137 0.93777 0.15721 0.0
C1717 C 0.46285 0.95392 0.17024 0.0
C1718 C 0.50495 0.00296 0.12777 0.0
C1719 C 0.47501 0.97139 0.14281 0.0
C1720 C 0.51242 0.01067 0.11405 0.0
C1721 C 0.49779 0.99652 0.10096 0.0
C1722 C 0.48281 0.98078 0.12846 0.0
C1723 C 0.47549 0.9747 0.10217 0.0
C1724 C 0.45724 0.94646 0.14349 0.0
C1725 C 0.47995 0.97887 0.1691 0.0
N1726 N 0.46877 0.96744 0.11566 0.0
N1727 N 0.4857 0.9868 0.15561 0.0
H1728 H 0.07525 0.53198 0.17338 0.0
H1729 H 0.97034 0.49435 0.10703 0.0
H1730 H 0.99774 0.49185 0.17867 0.0
H1731 H 0.04703 0.52361 0.10111 0.0
H1732 H 0.97968 0.4927 0.13322 0.0
H1733 H 0.06506 0.52849 0.14677 0.0
C1734 C 0.05606 0.52239 0.1689 0.0
C1735 C 0.03729 0.51236 0.17822 0.0
C1736 C 0.99442 0.4993 0.12616 0.0
C1737 C 0.02546 0.50827 0.14777 0.0
C1738 C 0.98913 0.50037 0.11125 0.0
C1739 C 0.00796 0.50925 0.10191 0.0
C1740 C 0.01878 0.50738 0.1318 0.0
C1741 C 0.03192 0.51648 0.10789 0.0
C1742 C 0.05025 0.52029 0.15371 0.0
C1743 C 0.01275 0.49977 0.17184 0.0
N1744 N 0.03667 0.51557 0.12247 0.0
N1745 N 0.00752 0.49828 0.15701 0.0
H1746 H 0.44524 0.47914 0.16739 0.0
H1747 H 0.55054 0.54172 0.11372 0.0
H1748 H 0.5175 0.54213 0.18153 0.0
H1749 H 0.47354 0.49511 0.09771 0.0
H1750 H 0.53967 0.53778 0.13899 0.0
H1751 H 0.45626 0.48058 0.14207 0.0
C1752 C 0.4634 0.49328 0.16522 0.0
C1753 C 0.48043 0.51056 0.17669 0.0
C1754 C 0.52516 0.52839 0.12994 0.0
C1755 C 0.49324 0.512 0.14775 0.0
C1756 C 0.53133 0.53074 0.11548 0.0
C1757 C 0.51292 0.51892 0.1035 0.0
C1758 C 0.50042 0.51396 0.13251 0.0
C1759 C 0.4884 0.50438 0.10656 0.0
C1760 C 0.46969 0.494 0.15076 0.0
C1761 C 0.50385 0.52813 0.17317 0.0
N1762 N 0.48286 0.50235 0.12076 0.0
N1763 N 0.50953 0.52839 0.15904 0.0
H1764 H 0.98212 0.52823 0.82901 0.0
H1765 H 0.00733 0.45683 0.89112 0.0
H1766 H 0.98448 0.46093 0.8197 0.0
H1767 H 0.98709 0.51239 0.90072 0.0
H1768 H 0.00447 0.46188 0.86494 0.0
H1769 H 0.98939 0.52644 0.85541 0.0
C1770 C 0.9842 0.51311 0.83248 0.0
C1771 C 0.98255 0.49464 0.82206 0.0
C1772 C 0.0007 0.473 0.87278 0.0
C1773 C 0.99119 0.49269 0.85226 0.0
C1774 C 0.00218 0.47003 0.88773 0.0
C1775 C 0.99717 0.484 0.89816 0.0
C1776 C 0.99428 0.49017 0.86816 0.0
C1777 C 0.99126 0.50132 0.89311 0.0
C1778 C 0.98845 0.51216 0.84756 0.0
C1779 C 0.98591 0.47578 0.82725 0.0
N1780 N 0.98989 0.50385 0.87846 0.0
N1781 N 0.98998 0.47526 0.84196 0.0
H1782 H 0.5213 0.50781 0.82858 0.0
H1783 H 0.49764 0.44603 0.90409 0.0
H1784 H 0.53979 0.45215 0.83848 0.0
H1785 H 0.49689 0.51366 0.8989 0.0
H1786 H 0.51138 0.44699 0.87954 0.0
H1787 H 0.51127 0.50985 0.85394 0.0
C1788 C 0.52352 0.49621 0.8361 0.0
C1789 C 0.53123 0.47962 0.8313 0.0
C1790 C 0.50832 0.4617 0.88378 0.0
C1791 C 0.51932 0.48157 0.86026 0.0
C1792 C 0.50032 0.46106 0.89775 0.0
C1793 C 0.49602 0.47973 0.90349 0.0
C1794 C 0.51181 0.48102 0.87539 0.0
C1795 C 0.50013 0.49897 0.89489 0.0
C1796 C 0.51765 0.4973 0.85056 0.0
C1797 C 0.53341 0.46482 0.84153 0.0
N1798 N 0.50763 0.49903 0.88122 0.0
N1799 N 0.52733 0.46603 0.85547 0.0
H1800 H 0.55129 0.02925 0.83497 0.0
H1801 H 0.46834 0.02228 0.89945 0.0
H1802 H 0.49112 0.04356 0.82999 0.0
H1803 H 0.51443 0.98945 0.90048 0.0
H1804 H 0.47932 0.03363 0.87475 0.0
H1805 H 0.54069 0.01766 0.85979 0.0
C1806 C 0.53586 0.02994 0.83911 0.0
C1807 C 0.52199 0.03727 0.83042 0.0
C1808 C 0.48702 0.02392 0.88036 0.0
C1809 C 0.50988 0.02421 0.85872 0.0
C1810 C 0.48089 0.0176 0.89449 0.0
C1811 C 0.49051 0.00493 0.902 0.0
C1812 C 0.50308 0.01774 0.87373 0.0
C1813 C 0.50646 0.99903 0.895 0.0
C1814 C 0.52976 0.02324 0.85323 0.0
C1815 C 0.5021 0.03771 0.83626 0.0
N1816 N 0.51233 0.00557 0.88126 0.0
N1817 N 0.49672 0.03139 0.85006 0.0
H1818 H 0.17613 0.2977 0.50832 0.0
H1819 H 0.13293 0.32404 0.43093 0.0
H1820 H 0.10465 0.28997 0.49856 0.0
H1821 H 0.20809 0.34505 0.44487 0.0
H1822 H 0.12176 0.31098 0.45539 0.0
H1823 H 0.18786 0.31469 0.48489 0.0
C1824 C 0.1629 0.29959 0.50121 0.0
C1825 C 0.13932 0.29225 0.5053 0.0
C1826 C 0.14073 0.31863 0.45312 0.0
C1827 C 0.15261 0.31171 0.47845 0.0
C1828 C 0.14708 0.32595 0.43915 0.0
C1829 C 0.17147 0.33559 0.43586 0.0
C1830 C 0.15885 0.32072 0.46381 0.0
C1831 C 0.18912 0.33793 0.44696 0.0
C1832 C 0.16964 0.30942 0.48787 0.0
C1833 C 0.12303 0.29548 0.49581 0.0
N1834 N 0.18243 0.33039 0.4604 0.0
N1835 N 0.1299 0.30479 0.48274 0.0
H1836 H 0.73959 0.86823 0.50771 0.0
H1837 H 0.64048 0.81349 0.43628 0.0
H1838 H 0.66213 0.81792 0.50969 0.0
H1839 H 0.715 0.87411 0.43705 0.0
H1840 H 0.64898 0.81036 0.4624 0.0
H1841 H 0.73173 0.86604 0.48103 0.0
C1842 C 0.72089 0.85672 0.50252 0.0
C1843 C 0.70142 0.84355 0.51098 0.0
C1844 C 0.66347 0.82426 0.45682 0.0
C1845 C 0.69231 0.84076 0.48034 0.0
C1846 C 0.65868 0.82597 0.44192 0.0
C1847 C 0.67702 0.84422 0.43456 0.0
C1848 C 0.68683 0.8408 0.46433 0.0
C1849 C 0.70023 0.86003 0.44238 0.0
C1850 C 0.71643 0.8554 0.48727 0.0
C1851 C 0.67768 0.82837 0.50359 0.0
N1852 N 0.70445 0.85798 0.45684 0.0
N1853 N 0.67374 0.82753 0.48869 0.0
H1854 H 0.10984 0.81851 0.50027 0.0
H1855 H 0.21469 0.87688 0.44588 0.0
H1856 H 0.18344 0.87941 0.51405 0.0
H1857 H 0.13736 0.83153 0.43035 0.0
H1858 H 0.20421 0.87418 0.47124 0.0
H1859 H 0.12028 0.81929 0.47485 0.0
C1860 C 0.12816 0.83207 0.49799 0.0
C1861 C 0.14575 0.84894 0.5094 0.0
C1862 C 0.18954 0.86481 0.46228 0.0
C1863 C 0.15789 0.84963 0.48032 0.0
C1864 C 0.19548 0.86645 0.44776 0.0
C1865 C 0.17688 0.85459 0.43588 0.0
C1866 C 0.16481 0.85105 0.46502 0.0
C1867 C 0.15237 0.8408 0.43911 0.0
C1868 C 0.13412 0.83242 0.48347 0.0
C1869 C 0.16935 0.86576 0.50574 0.0
N1870 N 0.14704 0.83943 0.45336 0.0
N1871 N 0.1747 0.86566 0.49155 0.0
H1872 H 0.67972 0.84147 0.15543 0.0
H1873 H 0.61591 0.79821 0.22948 0.0
H1874 H 0.60228 0.81264 0.1587 0.0
H1875 H 0.6947 0.83854 0.22851 0.0
H1876 H 0.61062 0.80223 0.20326 0.0
H1877 H 0.68576 0.8395 0.18199 0.0
C1878 C 0.66402 0.83476 0.16175 0.0
C1879 C 0.64049 0.82728 0.15487 0.0
C1880 C 0.62908 0.81029 0.20878 0.0
C1881 C 0.64721 0.82495 0.18517 0.0
C1882 C 0.63209 0.80787 0.22372 0.0
C1883 C 0.65577 0.818 0.23115 0.0
C1884 C 0.64989 0.82275 0.20116 0.0
C1885 C 0.67612 0.83063 0.22321 0.0
C1886 C 0.66748 0.83375 0.17689 0.0
C1887 C 0.6208 0.81891 0.16358 0.0
N1888 N 0.67272 0.83254 0.20861 0.0
N1889 N 0.62459 0.81787 0.17824 0.0
H1890 H 0.20498 0.78225 0.17061 0.0
H1891 H 0.16219 0.84641 0.23158 0.0
H1892 H 0.18598 0.83778 0.16132 0.0
H1893 H 0.16217 0.77817 0.23583 0.0
H1894 H 0.17633 0.84739 0.20703 0.0
H1895 H 0.19477 0.78443 0.19581 0.0
C1896 C 0.19861 0.79489 0.17384 0.0
C1897 C 0.19605 0.80963 0.16372 0.0
C1898 C 0.17326 0.83224 0.21336 0.0
C1899 C 0.18467 0.81246 0.19272 0.0
C1900 C 0.16532 0.83173 0.22737 0.0
C1901 C 0.16087 0.8121 0.23569 0.0
C1902 C 0.17705 0.81312 0.20772 0.0
C1903 C 0.16505 0.79346 0.22969 0.0
C1904 C 0.19289 0.79618 0.18827 0.0
C1905 C 0.18838 0.82616 0.16873 0.0
N1906 N 0.17293 0.79445 0.21609 0.0
N1907 N 0.18286 0.82706 0.18286 0.0
H1908 H 0.22007 0.36688 0.16885 0.0
H1909 H 0.14102 0.36133 0.23531 0.0
H1910 H 0.16142 0.38362 0.16554 0.0
H1911 H 0.18274 0.32381 0.23362 0.0
H1912 H 0.15212 0.37407 0.21082 0.0
H1913 H 0.21021 0.35508 0.19373 0.0
C1914 C 0.20516 0.3681 0.17338 0.0
C1915 C 0.19145 0.37611 0.16513 0.0
C1916 C 0.15885 0.36305 0.2158 0.0
C1917 C 0.18021 0.36284 0.1935 0.0
C1918 C 0.15267 0.35593 0.22981 0.0
C1919 C 0.16096 0.34148 0.23646 0.0
C1920 C 0.17366 0.35589 0.20847 0.0
C1921 C 0.17578 0.33475 0.2288 0.0
C1922 C 0.19948 0.36128 0.18752 0.0
C1923 C 0.17224 0.37724 0.17147 0.0
N1924 N 0.18174 0.34208 0.21521 0.0
N1925 N 0.16725 0.37078 0.1853 0.0
H1926 H 0.77716 0.58308 0.82435 0.0
H1927 H 0.85699 0.69884 0.78047 0.0
H1928 H 0.81905 0.65844 0.84513 0.0
H1929 H 0.80565 0.62536 0.75906 0.0
H1930 H 0.8433 0.68454 0.80423 0.0
H1931 H 0.78753 0.59824 0.80031 0.0
C1932 C 0.78852 0.60284 0.82383 0.0
C1933 C 0.79739 0.61953 0.83675 0.0
C1934 C 0.83496 0.67158 0.79432 0.0
C1935 C 0.80933 0.63704 0.80928 0.0
C1936 C 0.84268 0.67975 0.78072 0.0
C1937 C 0.83254 0.66327 0.7677 0.0
C1938 C 0.81707 0.64669 0.79496 0.0
C1939 C 0.81434 0.63864 0.7688 0.0
C1940 C 0.79435 0.6115 0.81011 0.0
C1941 C 0.81172 0.64496 0.83543 0.0
N1942 N 0.80728 0.63109 0.78219 0.0
N1943 N 0.81741 0.65293 0.82195 0.0
H1944 H 0.41116 0.1969 0.84147 0.0
H1945 H 0.30959 0.15074 0.77173 0.0
H1946 H 0.33299 0.15561 0.84484 0.0
H1947 H 0.38658 0.20412 0.77095 0.0
H1948 H 0.31811 0.14701 0.79772 0.0
H1949 H 0.40267 0.19433 0.81479 0.0
C1950 C 0.39219 0.18725 0.83659 0.0
C1951 C 0.37275 0.17677 0.84543 0.0
C1952 C 0.33314 0.15944 0.79182 0.0
C1953 C 0.36289 0.17359 0.81484 0.0
C1954 C 0.32832 0.16148 0.777 0.0
C1955 C 0.34739 0.17793 0.76925 0.0
C1956 C 0.35723 0.1738 0.79887 0.0
C1957 C 0.37128 0.19153 0.7766 0.0
C1958 C 0.38735 0.18572 0.82134 0.0
C1959 C 0.34854 0.16392 0.83845 0.0
N1960 N 0.37551 0.1892 0.79101 0.0
N1961 N 0.34428 0.16286 0.82356 0.0
H1962 H 0.84958 0.20921 0.84798 0.0
H1963 H 0.8025 0.16244 0.76268 0.0
H1964 H 0.77565 0.15018 0.83277 0.0
H1965 H 0.87943 0.20516 0.77957 0.0
H1966 H 0.79171 0.1593 0.78805 0.0
H1967 H 0.86031 0.20961 0.82278 0.0
C1968 C 0.83563 0.1961 0.8394 0.0
C1969 C 0.81164 0.17955 0.84261 0.0
C1970 C 0.81094 0.16929 0.78617 0.0
C1971 C 0.82378 0.18038 0.81352 0.0
C1972 C 0.81715 0.17101 0.77168 0.0
C1973 C 0.84195 0.18418 0.76891 0.0
C1974 C 0.82963 0.18099 0.798 0.0
C1975 C 0.86006 0.19523 0.7811 0.0
C1976 C 0.84177 0.19647 0.82496 0.0
C1977 C 0.79427 0.1635 0.83086 0.0
N1978 N 0.85353 0.19347 0.79507 0.0
N1979 N 0.80065 0.16439 0.81684 0.0
H1980 H 0.31589 0.19375 0.49555 0.0
H1981 H 0.32029 0.11205 0.55825 0.0
H1982 H 0.30674 0.12086 0.48679 0.0
H1983 H 0.33379 0.18652 0.56782 0.0
H1984 H 0.31558 0.11539 0.53197 0.0
H1985 H 0.32271 0.19189 0.52203 0.0
C1986 C 0.31536 0.17739 0.49919 0.0
C1987 C 0.31077 0.15744 0.48893 0.0
C1988 C 0.31962 0.13105 0.53979 0.0
C1989 C 0.31858 0.1552 0.51916 0.0
C1990 C 0.32245 0.1292 0.55482 0.0
C1991 C 0.32758 0.14908 0.56528 0.0
C1992 C 0.32184 0.15292 0.5351 0.0
C1993 C 0.32961 0.17064 0.56016 0.0
C1994 C 0.31934 0.17638 0.51429 0.0
C1995 C 0.31056 0.13682 0.49426 0.0
N1996 N 0.32675 0.172 0.54542 0.0
N1997 N 0.31431 0.13621 0.50899 0.0
H1998 H 0.87213 0.11961 0.50351 0.0
H1999 H 0.83057 0.18422 0.56495 0.0
H2000 H 0.85267 0.17484 0.4943 0.0
H2001 H 0.82965 0.11545 0.5688 0.0
H2002 H 0.84444 0.18515 0.5403 0.0
H2003 H 0.86239 0.12201 0.5288 0.0
C2004 C 0.86575 0.13222 0.50678 0.0
C2005 C 0.8629 0.14679 0.49666 0.0
C2006 C 0.84123 0.1699 0.54657 0.0
C2007 C 0.85208 0.14991 0.52576 0.0
C2008 C 0.83345 0.16942 0.56063 0.0
C2009 C 0.82882 0.14964 0.56885 0.0
C2010 C 0.84469 0.15063 0.54081 0.0
C2011 C 0.83269 0.13086 0.56273 0.0
C2012 C 0.8603 0.13365 0.52126 0.0
C2013 C 0.85526 0.16333 0.50171 0.0
N2014 N 0.84042 0.13184 0.5491 0.0
N2015 N 0.85001 0.16436 0.51589 0.0
H2016 H 0.82921 0.72012 0.49964 0.0
H2017 H 0.84997 0.65461 0.56661 0.0
H2018 H 0.88513 0.6995 0.50189 0.0
H2019 H 0.81227 0.69614 0.56945 0.0
H2020 H 0.86058 0.66772 0.54207 0.0
H2021 H 0.82006 0.70808 0.52444 0.0
C2022 C 0.83948 0.71294 0.50536 0.0
C2023 C 0.85788 0.71069 0.49872 0.0
C2024 C 0.8501 0.67405 0.54811 0.0
C2025 C 0.84757 0.69695 0.52709 0.0
C2026 C 0.84394 0.66648 0.56205 0.0
C2027 C 0.83022 0.67431 0.57003 0.0
C2028 C 0.84217 0.68926 0.54205 0.0
C2029 C 0.82304 0.68986 0.5637 0.0
C2030 C 0.83438 0.70624 0.51953 0.0
C2031 C 0.87088 0.70162 0.50668 0.0
N2032 N 0.82896 0.69669 0.55004 0.0
N2033 N 0.86537 0.69491 0.52043 0.0
loop_
_geom_bond_atom_site_label_1
_geom_bond_atom_site_label_2
_geom_bond_distance
_geom_bond_site_symmetry_2
_ccdc_geom_bond_type
C0 C1 1.386 . S
C0 C2 1.397 . S
C0 H24 0.931 . S
C1 C0 1.386 . S
C1 C5 1.397 . S
C2 C0 1.397 . S
C2 C3 1.384 . S
C2 H25 0.930 . S
C3 C2 1.384 . S
C3 C4 1.377 . S
C3 C6 1.481 . S
C4 C3 1.377 . S
C4 C5 1.389 . S
C4 H26 0.929 . S
C5 C1 1.397 . S
C5 C4 1.389 . S
C5 H27 0.931 . S
C6 C3 1.481 . S
C6 C7 1.387 . S
C6 C11 1.390 . S
C7 C6 1.387 . S
C7 C8 1.401 . S
C7 H28 0.930 . S
C8 C7 1.401 . S
C8 C9 1.376 . S
C8 C17 1.511 . S
C9 C8 1.376 . S
C9 C10 1.392 . S
C9 H30 0.931 . S
C10 C9 1.392 . S
C10 C11 1.361 . S
C10 C12 1.500 . S
C11 C6 1.390 . S
C11 C10 1.361 . S
C11 H29 0.931 . S
C12 C10 1.500 . S
C12 C13 1.371 . S
C12 C14 1.365 . S
C13 C12 1.371 . S
C13 C23 1.386 . S
C13 H31 0.931 . S
C14 C12 1.365 . S
C14 C15 1.409 . S
C14 H32 0.929 . S
C15 C14 1.409 . S
C15 C16 1.380 . S
C15 H33 0.930 . S
C16 C15 1.380 . S
C16 C23 1.357 . S
C17 C8 1.511 . S
C17 C18 1.341 . S
C17 C19 1.371 . S
C18 C17 1.341 . S
C18 C22 1.394 . S
C18 H34 0.930 . S
C19 C17 1.371 . S
C19 C20 1.392 . S
C19 H35 0.931 . S
C20 C19 1.392 . S
C20 C21 1.331 . S
C20 H38 0.932 . S
C21 C20 1.331 . S
C21 C22 1.336 . S
C22 C18 1.394 . S
C22 C21 1.336 . S
C22 H37 0.929 . S
C23 C13 1.386 . S
C23 C16 1.357 . S
C23 H36 0.928 . S
H24 C0 0.931 . S
H25 C2 0.930 . S
H26 C4 0.929 . S
H27 C5 0.931 . S
H28 C7 0.930 . S
H29 C11 0.931 . S
H30 C9 0.931 . S
H31 C13 0.931 . S
H32 C14 0.929 . S
H33 C15 0.930 . S
H34 C18 0.930 . S
H35 C19 0.931 . S
H36 C23 0.928 . S
H37 C22 0.929 . S
H38 C20 0.932 . S
C39 C40 1.386 . S
C39 C41 1.397 . S
C39 H63 0.931 . S
C40 C39 1.386 . S
C40 C44 1.397 . S
C41 C39 1.397 . S
C41 C42 1.384 . S
C41 H64 0.930 . S
C42 C41 1.384 . S
C42 C43 1.377 . S
C42 C45 1.481 . S
C43 C42 1.377 . S
C43 C44 1.389 . S
C43 H65 0.929 . S
C44 C40 1.397 . S
C44 C43 1.389 . S
C44 H66 0.931 . S
C45 C42 1.481 . S
C45 C46 1.387 . S
C45 C50 1.390 . S
C46 C45 1.387 . S
C46 C47 1.401 . S
C46 H67 0.930 . S
C47 C46 1.401 . S
C47 C48 1.376 . S
C47 C56 1.511 . S
C48 C47 1.376 . S
C48 C49 1.392 . S
C48 H69 0.931 . S
C49 C48 1.392 . S
C49 C50 1.361 . S
C49 C51 1.500 . S
C50 C45 1.390 . S
C50 C49 1.361 . S
C50 H68 0.931 . S
C51 C49 1.500 . S
C51 C52 1.371 . S
C51 C53 1.365 . S
C52 C51 1.371 . S
C52 C62 1.386 . S
C52 H70 0.931 . S
C53 C51 1.365 . S
C53 C54 1.409 . S
C53 H71 0.929 . S
C54 C53 1.409 . S
C54 C55 1.380 . S
C54 H72 0.930 . S
C55 C54 1.380 . S
C55 C62 1.357 . S
C56 C47 1.511 . S
C56 C57 1.341 . S
C56 C58 1.371 . S
C57 C56 1.341 . S
C57 C61 1.394 . S
C57 H73 0.930 . S
C58 C56 1.371 . S
C58 C59 1.392 . S
C58 H74 0.931 . S
C59 C58 1.392 . S
C59 C60 1.331 . S
C59 H77 0.932 . S
C60 C59 1.331 . S
C60 C61 1.336 . S
C61 C57 1.394 . S
C61 C60 1.336 . S
C61 H76 0.929 . S
C62 C52 1.386 . S
C62 C55 1.357 . S
C62 H75 0.928 . S
H63 C39 0.931 . S
H64 C41 0.930 . S
H65 C43 0.929 . S
H66 C44 0.931 . S
H67 C46 0.930 . S
H68 C50 0.931 . S
H69 C48 0.931 . S
H70 C52 0.931 . S
H71 C53 0.929 . S
H72 C54 0.930 . S
H73 C57 0.930 . S
H74 C58 0.931 . S
H75 C62 0.928 . S
H76 C61 0.929 . S
H77 C59 0.932 . S
C78 C79 1.386 . S
C78 C80 1.397 . S
C78 H102 0.931 . S
C79 C78 1.386 . S
C79 C83 1.397 . S
C80 C78 1.397 . S
C80 C81 1.384 . S
C80 H103 0.930 . S
C81 C80 1.384 . S
C81 C82 1.377 . S
C81 C84 1.481 . S
C82 C81 1.377 . S
C82 C83 1.389 . S
C82 H104 0.929 . S
C83 C79 1.397 . S
C83 C82 1.389 . S
C83 H105 0.931 . S
C84 C81 1.481 . S
C84 C85 1.387 . S
C84 C89 1.390 . S
C85 C84 1.387 . S
C85 C86 1.401 . S
C85 H106 0.930 . S
C86 C85 1.401 . S
C86 C87 1.376 . S
C86 C95 1.511 . S
C87 C86 1.376 . S
C87 C88 1.392 . S
C87 H108 0.931 . S
C88 C87 1.392 . S
C88 C89 1.361 . S
C88 C90 1.500 . S
C89 C84 1.390 . S
C89 C88 1.361 . S
C89 H107 0.931 . S
C90 C88 1.500 . S
C90 C91 1.371 . S
C90 C92 1.365 . S
C91 C90 1.371 . S
C91 C101 1.386 . S
C91 H109 0.931 . S
C92 C90 1.365 . S
C92 C93 1.409 . S
C92 H110 0.929 . S
C93 C92 1.409 . S
C93 C94 1.380 . S
C93 H111 0.930 . S
C94 C93 1.380 . S
C94 C101 1.357 . S
C95 C86 1.511 . S
C95 C96 1.341 . S
C95 C97 1.371 . S
C96 C95 1.341 . S
C96 C100 1.394 . S
C96 H112 0.930 . S
C97 C95 1.371 . S
C97 C98 1.392 . S
C97 H113 0.931 . S
C98 C97 1.392 . S
C98 C99 1.331 . S
C98 H116 0.932 . S
C99 C98 1.331 . S
C99 C100 1.336 . S
C100 C96 1.394 . S
C100 C99 1.336 . S
C100 H115 0.929 . S
C101 C91 1.386 . S
C101 C94 1.357 . S
C101 H114 0.928 . S
H102 C78 0.931 . S
H103 C80 0.930 . S
H104 C82 0.929 . S
H105 C83 0.931 . S
H106 C85 0.930 . S
H107 C89 0.931 . S
H108 C87 0.931 . S
H109 C91 0.931 . S
H110 C92 0.929 . S
H111 C93 0.930 . S
H112 C96 0.930 . S
H113 C97 0.931 . S
H114 C101 0.928 . S
H115 C100 0.929 . S
H116 C98 0.932 . S
C117 C118 1.386 . S
C117 C119 1.397 . S
C117 H141 0.931 . S
C118 C117 1.386 . S
C118 C122 1.397 . S
C119 C117 1.397 . S
C119 C120 1.384 . S
C119 H142 0.930 . S
C120 C119 1.384 . S
C120 C121 1.377 . S
C120 C123 1.481 . S
C121 C120 1.377 . S
C121 C122 1.389 . S
C121 H143 0.929 . S
C122 C118 1.397 . S
C122 C121 1.389 . S
C122 H144 0.931 . S
C123 C120 1.481 . S
C123 C124 1.387 . S
C123 C128 1.390 . S
C124 C123 1.387 . S
C124 C125 1.401 . S
C124 H145 0.930 . S
C125 C124 1.401 . S
C125 C126 1.376 . S
C125 C134 1.511 . S
C126 C125 1.376 . S
C126 C127 1.392 . S
C126 H147 0.931 . S
C127 C126 1.392 . S
C127 C128 1.361 . S
C127 C129 1.500 . S
C128 C123 1.390 . S
C128 C127 1.361 . S
C128 H146 0.931 . S
C129 C127 1.500 . S
C129 C130 1.371 . S
C129 C131 1.365 . S
C130 C129 1.371 . S
C130 C140 1.386 . S
C130 H148 0.931 . S
C131 C129 1.365 . S
C131 C132 1.409 . S
C131 H149 0.929 . S
C132 C131 1.409 . S
C132 C133 1.380 . S
C132 H150 0.930 . S
C133 C132 1.380 . S
C133 C140 1.357 . S
C134 C125 1.511 . S
C134 C135 1.341 . S
C134 C136 1.371 . S
C135 C134 1.341 . S
C135 C139 1.394 . S
C135 H151 0.930 . S
C136 C134 1.371 . S
C136 C137 1.392 . S
C136 H152 0.931 . S
C137 C136 1.392 . S
C137 C138 1.331 . S
C137 H155 0.932 . S
C138 C137 1.331 . S
C138 C139 1.336 . S
C139 C135 1.394 . S
C139 C138 1.336 . S
C139 H154 0.929 . S
C140 C130 1.386 . S
C140 C133 1.357 . S
C140 H153 0.928 . S
H141 C117 0.931 . S
H142 C119 0.930 . S
H143 C121 0.929 . S
H144 C122 0.931 . S
H145 C124 0.930 . S
H146 C128 0.931 . S
H147 C126 0.931 . S
H148 C130 0.931 . S
H149 C131 0.929 . S
H150 C132 0.930 . S
H151 C135 0.930 . S
H152 C136 0.931 . S
H153 C140 0.928 . S
H154 C139 0.929 . S
H155 C137 0.932 . S
C156 C157 1.386 . S
C156 C158 1.397 . S
C156 H180 0.931 . S
C157 C156 1.386 . S
C157 C161 1.397 . S
C158 C156 1.397 . S
C158 C159 1.384 . S
C158 H181 0.930 . S
C159 C158 1.384 . S
C159 C160 1.377 . S
C159 C162 1.481 . S
C160 C159 1.377 . S
C160 C161 1.389 . S
C160 H182 0.929 . S
C161 C157 1.397 . S
C161 C160 1.389 . S
C161 H183 0.931 . S
C162 C159 1.481 . S
C162 C163 1.387 . S
C162 C167 1.390 . S
C163 C162 1.387 . S
C163 C164 1.401 . S
C163 H184 0.930 . S
C164 C163 1.401 . S
C164 C165 1.376 . S
C164 C173 1.511 . S
C165 C164 1.376 . S
C165 C166 1.392 . S
C165 H186 0.931 . S
C166 C165 1.392 . S
C166 C167 1.361 . S
C166 C168 1.500 . S
C167 C162 1.390 . S
C167 C166 1.361 . S
C167 H185 0.931 . S
C168 C166 1.500 . S
C168 C169 1.371 . S
C168 C170 1.365 . S
C169 C168 1.371 . S
C169 C179 1.386 . S
C169 H187 0.931 . S
C170 C168 1.365 . S
C170 C171 1.409 . S
C170 H188 0.929 . S
C171 C170 1.409 . S
C171 C172 1.380 . S
C171 H189 0.930 . S
C172 C171 1.380 . S
C172 C179 1.357 . S
C173 C164 1.511 . S
C173 C174 1.341 . S
C173 C175 1.371 . S
C174 C173 1.341 . S
C174 C178 1.394 . S
C174 H190 0.930 . S
C175 C173 1.371 . S
C175 C176 1.392 . S
C175 H191 0.931 . S
C176 C175 1.392 . S
C176 C177 1.331 . S
C176 H194 0.932 . S
C177 C176 1.331 . S
C177 C178 1.336 . S
C178 C174 1.394 . S
C178 C177 1.336 . S
C178 H193 0.929 . S
C179 C169 1.386 . S
C179 C172 1.357 . S
C179 H192 0.928 . S
H180 C156 0.931 . S
H181 C158 0.930 . S
H182 C160 0.929 . S
H183 C161 0.931 . S
H184 C163 0.930 . S
H185 C167 0.931 . S
H186 C165 0.931 . S
H187 C169 0.931 . S
H188 C170 0.929 . S
H189 C171 0.930 . S
H190 C174 0.930 . S
H191 C175 0.931 . S
H192 C179 0.928 . S
H193 C178 0.929 . S
H194 C176 0.932 . S
C195 C196 1.386 . S
C195 C197 1.397 . S
C195 H219 0.931 . S
C196 C195 1.386 . S
C196 C200 1.397 . S
C197 C195 1.397 . S
C197 C198 1.384 . S
C197 H220 0.930 . S
C198 C197 1.384 . S
C198 C199 1.377 . S
C198 C201 1.481 . S
C199 C198 1.377 . S
C199 C200 1.389 . S
C199 H221 0.929 . S
C200 C196 1.397 . S
C200 C199 1.389 . S
C200 H222 0.931 . S
C201 C198 1.481 . S
C201 C202 1.387 . S
C201 C206 1.390 . S
C202 C201 1.387 . S
C202 C203 1.401 . S
C202 H223 0.930 . S
C203 C202 1.401 . S
C203 C204 1.376 . S
C203 C212 1.511 . S
C204 C203 1.376 . S
C204 C205 1.392 . S
C204 H225 0.931 . S
C205 C204 1.392 . S
C205 C206 1.361 . S
C205 C207 1.500 . S
C206 C201 1.390 . S
C206 C205 1.361 . S
C206 H224 0.931 . S
C207 C205 1.500 . S
C207 C208 1.371 . S
C207 C209 1.365 . S
C208 C207 1.371 . S
C208 C218 1.386 . S
C208 H226 0.931 . S
C209 C207 1.365 . S
C209 C210 1.409 . S
C209 H227 0.929 . S
C210 C209 1.409 . S
C210 C211 1.380 . S
C210 H228 0.930 . S
C211 C210 1.380 . S
C211 C218 1.357 . S
C212 C203 1.511 . S
C212 C213 1.341 . S
C212 C214 1.371 . S
C213 C212 1.341 . S
C213 C217 1.394 . S
C213 H229 0.930 . S
C214 C212 1.371 . S
C214 C215 1.392 . S
C214 H230 0.931 . S
C215 C214 1.392 . S
C215 C216 1.331 . S
C215 H233 0.932 . S
C216 C215 1.331 . S
C216 C217 1.336 . S
C217 C213 1.394 . S
C217 C216 1.336 . S
C217 H232 0.929 . S
C218 C208 1.386 . S
C218 C211 1.357 . S
C218 H231 0.928 . S
H219 C195 0.931 . S
H220 C197 0.930 . S
H221 C199 0.929 . S
H222 C200 0.931 . S
H223 C202 0.930 . S
H224 C206 0.931 . S
H225 C204 0.931 . S
H226 C208 0.931 . S
H227 C209 0.929 . S
H228 C210 0.930 . S
H229 C213 0.930 . S
H230 C214 0.931 . S
H231 C218 0.928 . S
H232 C217 0.929 . S
H233 C215 0.932 . S
C234 C235 1.386 . S
C234 C236 1.397 . S
C234 H258 0.931 . S
C235 C234 1.386 . S
C235 C239 1.397 1_655 S
C236 C234 1.397 . S
C236 C237 1.384 . S
C236 H259 0.930 . S
C237 C236 1.384 . S
C237 C238 1.377 . S
C237 C240 1.481 . S
C238 C237 1.377 . S
C238 C239 1.389 1_655 S
C238 H260 0.929 1_655 S
C239 C235 1.397 1_455 S
C239 C238 1.389 1_455 S
C239 H261 0.931 . S
C240 C237 1.481 . S
C240 C241 1.387 . S
C240 C245 1.390 . S
C241 C240 1.387 . S
C241 C242 1.401 . S
C241 H262 0.930 . S
C242 C241 1.401 . S
C242 C243 1.376 . S
C242 C251 1.511 . S
C243 C242 1.376 . S
C243 C244 1.392 . S
C243 H264 0.931 . S
C244 C243 1.392 . S
C244 C245 1.361 . S
C244 C246 1.500 . S
C245 C240 1.390 . S
C245 C244 1.361 . S
C245 H263 0.931 . S
C246 C244 1.500 . S
C246 C247 1.371 . S
C246 C248 1.365 . S
C247 C246 1.371 . S
C247 C257 1.386 . S
C247 H265 0.931 . S
C248 C246 1.365 . S
C248 C249 1.409 . S
C248 H266 0.929 . S
C249 C248 1.409 . S
C249 C250 1.380 . S
C249 H267 0.930 . S
C250 C249 1.380 . S
C250 C257 1.357 . S
C251 C242 1.511 . S
C251 C252 1.341 . S
C251 C253 1.371 . S
C252 C251 1.341 . S
C252 C256 1.394 . S
C252 H268 0.930 . S
C253 C251 1.371 . S
C253 C254 1.392 . S
C253 H269 0.931 . S
C254 C253 1.392 . S
C254 C255 1.331 . S
C254 H272 0.932 . S
C255 C254 1.331 . S
C255 C256 1.336 . S
C256 C252 1.394 . S
C256 C255 1.336 . S
C256 H271 0.929 . S
C257 C247 1.386 . S
C257 C250 1.357 . S
C257 H270 0.928 . S
H258 C234 0.931 . S
H259 C236 0.930 . S
H260 C238 0.929 1_455 S
H261 C239 0.931 . S
H262 C241 0.930 . S
H263 C245 0.931 . S
H264 C243 0.931 . S
H265 C247 0.931 . S
H266 C248 0.929 . S
H267 C249 0.930 . S
H268 C252 0.930 . S
H269 C253 0.931 . S
H270 C257 0.928 . S
H271 C256 0.929 . S
H272 C254 0.932 . S
C273 C274 1.386 . S
C273 C275 1.397 . S
C273 H297 0.931 . S
C274 C273 1.386 . S
C274 C278 1.397 . S
C275 C273 1.397 . S
C275 C276 1.384 . S
C275 H298 0.930 . S
C276 C275 1.384 . S
C276 C277 1.377 . S
C276 C279 1.481 . S
C277 C276 1.377 . S
C277 C278 1.389 . S
C277 H299 0.929 . S
C278 C274 1.397 . S
C278 C277 1.389 . S
C278 H300 0.931 . S
C279 C276 1.481 . S
C279 C280 1.387 . S
C279 C284 1.390 . S
C280 C279 1.387 . S
C280 C281 1.401 . S
C280 H301 0.930 . S
C281 C280 1.401 . S
C281 C282 1.376 . S
C281 C290 1.511 . S
C282 C281 1.376 . S
C282 C283 1.392 . S
C282 H303 0.931 . S
C283 C282 1.392 . S
C283 C284 1.361 . S
C283 C285 1.500 . S
C284 C279 1.390 . S
C284 C283 1.361 . S
C284 H302 0.931 . S
C285 C283 1.500 . S
C285 C286 1.371 . S
C285 C287 1.365 . S
C286 C285 1.371 . S
C286 C296 1.386 . S
C286 H304 0.931 . S
C287 C285 1.365 . S
C287 C288 1.409 . S
C287 H305 0.929 . S
C288 C287 1.409 . S
C288 C289 1.380 . S
C288 H306 0.930 . S
C289 C288 1.380 . S
C289 C296 1.357 . S
C290 C281 1.511 . S
C290 C291 1.341 . S
C290 C292 1.371 . S
C291 C290 1.341 . S
C291 C295 1.394 . S
C291 H307 0.930 . S
C292 C290 1.371 . S
C292 C293 1.392 . S
C292 H308 0.931 . S
C293 C292 1.392 . S
C293 C294 1.331 . S
C293 H311 0.932 . S
C294 C293 1.331 . S
C294 C295 1.336 . S
C295 C291 1.394 . S
C295 C294 1.336 . S
C295 H310 0.929 . S
C296 C286 1.386 . S
C296 C289 1.357 . S
C296 H309 0.928 . S
H297 C273 0.931 . S
H298 C275 0.930 . S
H299 C277 0.929 . S
H300 C278 0.931 . S
H301 C280 0.930 . S
H302 C284 0.931 . S
H303 C282 0.931 . S
H304 C286 0.931 . S
H305 C287 0.929 . S
H306 C288 0.930 . S
H307 C291 0.930 . S
H308 C292 0.931 . S
H309 C296 0.928 . S
H310 C295 0.929 . S
H311 C293 0.932 . S
C312 C313 1.386 . S
C312 C314 1.397 . S
C312 H336 0.931 . S
C313 C312 1.386 . S
C313 C317 1.397 . S
C314 C312 1.397 . S
C314 C315 1.384 . S
C314 H337 0.930 . S
C315 C314 1.384 . S
C315 C316 1.377 . S
C315 C318 1.481 . S
C316 C315 1.377 . S
C316 C317 1.389 . S
C316 H338 0.929 . S
C317 C313 1.397 . S
C317 C316 1.389 . S
C317 H339 0.931 . S
C318 C315 1.481 . S
C318 C319 1.387 . S
C318 C323 1.390 . S
C319 C318 1.387 . S
C319 C320 1.401 . S
C319 H340 0.930 . S
C320 C319 1.401 . S
C320 C321 1.376 . S
C320 C329 1.511 . S
C321 C320 1.376 . S
C321 C322 1.392 . S
C321 H342 0.931 . S
C322 C321 1.392 . S
C322 C323 1.361 . S
C322 C324 1.500 . S
C323 C318 1.390 . S
C323 C322 1.361 . S
C323 H341 0.931 . S
C324 C322 1.500 . S
C324 C325 1.371 . S
C324 C326 1.365 . S
C325 C324 1.371 . S
C325 C335 1.386 . S
C325 H343 0.931 . S
C326 C324 1.365 . S
C326 C327 1.409 . S
C326 H344 0.929 . S
C327 C326 1.409 . S
C327 C328 1.380 . S
C327 H345 0.930 . S
C328 C327 1.380 . S
C328 C335 1.357 . S
C329 C320 1.511 . S
C329 C330 1.341 . S
C329 C331 1.371 . S
C330 C329 1.341 . S
C330 C334 1.394 . S
C330 H346 0.930 . S
C331 C329 1.371 . S
C331 C332 1.392 . S
C331 H347 0.931 . S
C332 C331 1.392 . S
C332 C333 1.331 . S
C332 H350 0.932 . S
C333 C332 1.331 . S
C333 C334 1.336 . S
C334 C330 1.394 . S
C334 C333 1.336 . S
C334 H349 0.929 . S
C335 C325 1.386 . S
C335 C328 1.357 . S
C335 H348 0.928 . S
H336 C312 0.931 . S
H337 C314 0.930 . S
H338 C316 0.929 . S
H339 C317 0.931 . S
H340 C319 0.930 . S
H341 C323 0.931 . S
H342 C321 0.931 . S
H343 C325 0.931 . S
H344 C326 0.929 . S
H345 C327 0.930 . S
H346 C330 0.930 . S
H347 C331 0.931 . S
H348 C335 0.928 . S
H349 C334 0.929 . S
H350 C332 0.932 . S
C351 C352 1.386 . S
C351 C353 1.397 . S
C351 H375 0.931 . S
C352 C351 1.386 . S
C352 C356 1.397 . S
C353 C351 1.397 . S
C353 C354 1.384 . S
C353 H376 0.930 . S
C354 C353 1.384 . S
C354 C355 1.377 . S
C354 C357 1.481 . S
C355 C354 1.377 . S
C355 C356 1.389 . S
C355 H377 0.929 . S
C356 C352 1.397 . S
C356 C355 1.389 . S
C356 H378 0.931 . S
C357 C354 1.481 . S
C357 C358 1.387 . S
C357 C362 1.390 . S
C358 C357 1.387 . S
C358 C359 1.401 . S
C358 H379 0.930 . S
C359 C358 1.401 . S
C359 C360 1.376 . S
C359 C368 1.511 . S
C360 C359 1.376 . S
C360 C361 1.392 . S
C360 H381 0.931 . S
C361 C360 1.392 . S
C361 C362 1.361 . S
C361 C363 1.500 . S
C362 C357 1.390 . S
C362 C361 1.361 . S
C362 H380 0.931 . S
C363 C361 1.500 . S
C363 C364 1.371 . S
C363 C365 1.365 . S
C364 C363 1.371 . S
C364 C374 1.386 . S
C364 H382 0.931 . S
C365 C363 1.365 . S
C365 C366 1.409 . S
C365 H383 0.929 . S
C366 C365 1.409 . S
C366 C367 1.380 . S
C366 H384 0.930 . S
C367 C366 1.380 . S
C367 C374 1.357 . S
C368 C359 1.511 . S
C368 C369 1.341 . S
C368 C370 1.371 . S
C369 C368 1.341 . S
C369 C373 1.394 . S
C369 H385 0.930 . S
C370 C368 1.371 . S
C370 C371 1.392 . S
C370 H386 0.931 . S
C371 C370 1.392 . S
C371 C372 1.331 . S
C371 H389 0.932 . S
C372 C371 1.331 . S
C372 C373 1.336 . S
C373 C369 1.394 . S
C373 C372 1.336 . S
C373 H388 0.929 . S
C374 C364 1.386 . S
C374 C367 1.357 . S
C374 H387 0.928 . S
H375 C351 0.931 . S
H376 C353 0.930 . S
H377 C355 0.929 . S
H378 C356 0.931 . S
H379 C358 0.930 . S
H380 C362 0.931 . S
H381 C360 0.931 . S
H382 C364 0.931 . S
H383 C365 0.929 . S
H384 C366 0.930 . S
H385 C369 0.930 . S
H386 C370 0.931 . S
H387 C374 0.928 . S
H388 C373 0.929 . S
H389 C371 0.932 . S
C390 C391 1.386 . S
C390 C392 1.397 . S
C390 H414 0.931 . S
C391 C390 1.386 . S
C391 C395 1.397 . S
C392 C390 1.397 . S
C392 C393 1.384 . S
C392 H415 0.930 . S
C393 C392 1.384 . S
C393 C394 1.377 . S
C393 C396 1.481 . S
C394 C393 1.377 . S
C394 C395 1.389 . S
C394 H416 0.929 . S
C395 C391 1.397 . S
C395 C394 1.389 . S
C395 H417 0.931 . S
C396 C393 1.481 . S
C396 C397 1.387 . S
C396 C401 1.390 . S
C397 C396 1.387 . S
C397 C398 1.401 . S
C397 H418 0.930 . S
C398 C397 1.401 . S
C398 C399 1.376 . S
C398 C407 1.511 . S
C399 C398 1.376 . S
C399 C400 1.392 . S
C399 H420 0.931 . S
C400 C399 1.392 . S
C400 C401 1.361 . S
C400 C402 1.500 . S
C401 C396 1.390 . S
C401 C400 1.361 . S
C401 H419 0.931 . S
C402 C400 1.500 . S
C402 C403 1.371 . S
C402 C404 1.365 . S
C403 C402 1.371 . S
C403 C413 1.386 . S
C403 H421 0.931 . S
C404 C402 1.365 . S
C404 C405 1.409 . S
C404 H422 0.929 . S
C405 C404 1.409 . S
C405 C406 1.380 . S
C405 H423 0.930 . S
C406 C405 1.380 . S
C406 C413 1.357 . S
C407 C398 1.511 . S
C407 C408 1.341 . S
C407 C409 1.371 . S
C408 C407 1.341 . S
C408 C412 1.394 . S
C408 H424 0.930 . S
C409 C407 1.371 . S
C409 C410 1.392 . S
C409 H425 0.931 . S
C410 C409 1.392 . S
C410 C411 1.331 . S
C410 H428 0.932 . S
C411 C410 1.331 . S
C411 C412 1.336 . S
C412 C408 1.394 . S
C412 C411 1.336 . S
C412 H427 0.929 . S
C413 C403 1.386 . S
C413 C406 1.357 . S
C413 H426 0.928 . S
H414 C390 0.931 . S
H415 C392 0.930 . S
H416 C394 0.929 . S
H417 C395 0.931 . S
H418 C397 0.930 . S
H419 C401 0.931 . S
H420 C399 0.931 . S
H421 C403 0.931 . S
H422 C404 0.929 . S
H423 C405 0.930 . S
H424 C408 0.930 . S
H425 C409 0.931 . S
H426 C413 0.928 . S
H427 C412 0.929 . S
H428 C410 0.932 . S
C429 C430 1.386 . S
C429 C431 1.397 . S
C429 H453 0.931 . S
C430 C429 1.386 . S
C430 C434 1.397 . S
C431 C429 1.397 . S
C431 C432 1.384 . S
C431 H454 0.930 . S
C432 C431 1.384 . S
C432 C433 1.377 . S
C432 C435 1.481 . S
C433 C432 1.377 . S
C433 C434 1.389 . S
C433 H455 0.929 . S
C434 C430 1.397 . S
C434 C433 1.389 . S
C434 H456 0.931 . S
C435 C432 1.481 . S
C435 C436 1.387 . S
C435 C440 1.390 . S
C436 C435 1.387 . S
C436 C437 1.401 . S
C436 H457 0.930 . S
C437 C436 1.401 . S
C437 C438 1.376 . S
C437 C446 1.511 . S
C438 C437 1.376 . S
C438 C439 1.392 . S
C438 H459 0.931 . S
C439 C438 1.392 . S
C439 C440 1.361 . S
C439 C441 1.500 . S
C440 C435 1.390 . S
C440 C439 1.361 . S
C440 H458 0.931 . S
C441 C439 1.500 . S
C441 C442 1.371 . S
C441 C443 1.365 . S
C442 C441 1.371 . S
C442 C452 1.386 . S
C442 H460 0.931 . S
C443 C441 1.365 . S
C443 C444 1.409 . S
C443 H461 0.929 . S
C444 C443 1.409 . S
C444 C445 1.380 . S
C444 H462 0.930 . S
C445 C444 1.380 . S
C445 C452 1.357 . S
C446 C437 1.511 . S
C446 C447 1.341 . S
C446 C448 1.371 . S
C447 C446 1.341 . S
C447 C451 1.394 . S
C447 H463 0.930 . S
C448 C446 1.371 . S
C448 C449 1.392 . S
C448 H464 0.931 . S
C449 C448 1.392 . S
C449 C450 1.331 . S
C449 H467 0.932 . S
C450 C449 1.331 . S
C450 C451 1.336 . S
C451 C447 1.394 . S
C451 C450 1.336 . S
C451 H466 0.929 . S
C452 C442 1.386 . S
C452 C445 1.357 . S
C452 H465 0.928 . S
H453 C429 0.931 . S
H454 C431 0.930 . S
H455 C433 0.929 . S
H456 C434 0.931 . S
H457 C436 0.930 . S
H458 C440 0.931 . S
H459 C438 0.931 . S
H460 C442 0.931 . S
H461 C443 0.929 . S
H462 C444 0.930 . S
H463 C447 0.930 . S
H464 C448 0.931 . S
H465 C452 0.928 . S
H466 C451 0.929 . S
H467 C449 0.932 . S
C468 C469 1.386 . S
C468 C470 1.397 . S
C468 H492 0.931 . S
C469 C468 1.386 . S
C469 C473 1.397 . S
C470 C468 1.397 . S
C470 C471 1.384 . S
C470 H493 0.930 . S
C471 C470 1.384 . S
C471 C472 1.377 . S
C471 C474 1.481 . S
C472 C471 1.377 . S
C472 C473 1.389 . S
C472 H494 0.929 . S
C473 C469 1.397 . S
C473 C472 1.389 . S
C473 H495 0.931 . S
C474 C471 1.481 . S
C474 C475 1.387 . S
C474 C479 1.390 . S
C475 C474 1.387 . S
C475 C476 1.401 . S
C475 H496 0.930 . S
C476 C475 1.401 . S
C476 C477 1.376 . S
C476 C485 1.511 . S
C477 C476 1.376 . S
C477 C478 1.392 . S
C477 H498 0.931 . S
C478 C477 1.392 . S
C478 C479 1.361 . S
C478 C480 1.500 . S
C479 C474 1.390 . S
C479 C478 1.361 . S
C479 H497 0.931 . S
C480 C478 1.500 . S
C480 C481 1.371 . S
C480 C482 1.365 . S
C481 C480 1.371 . S
C481 C491 1.386 . S
C481 H499 0.931 . S
C482 C480 1.365 . S
C482 C483 1.409 . S
C482 H500 0.929 . S
C483 C482 1.409 . S
C483 C484 1.380 . S
C483 H501 0.930 . S
C484 C483 1.380 . S
C484 C491 1.357 . S
C485 C476 1.511 . S
C485 C486 1.341 . S
C485 C487 1.371 . S
C486 C485 1.341 . S
C486 C490 1.394 . S
C486 H502 0.930 . S
C487 C485 1.371 . S
C487 C488 1.392 . S
C487 H503 0.931 . S
C488 C487 1.392 . S
C488 C489 1.331 . S
C488 H506 0.932 . S
C489 C488 1.331 . S
C489 C490 1.336 . S
C490 C486 1.394 . S
C490 C489 1.336 . S
C490 H505 0.929 . S
C491 C481 1.386 . S
C491 C484 1.357 . S
C491 H504 0.928 . S
H492 C468 0.931 . S
H493 C470 0.930 . S
H494 C472 0.929 . S
H495 C473 0.931 . S
H496 C475 0.930 . S
H497 C479 0.931 . S
H498 C477 0.931 . S
H499 C481 0.931 . S
H500 C482 0.929 . S
H501 C483 0.930 . S
H502 C486 0.930 . S
H503 C487 0.931 . S
H504 C491 0.928 . S
H505 C490 0.929 . S
H506 C488 0.932 . S
C507 C508 1.386 . S
C507 C509 1.397 . S
C507 H531 0.931 . S
C508 C507 1.386 . S
C508 C512 1.397 . S
C509 C507 1.397 . S
C509 C510 1.384 . S
C509 H532 0.930 . S
C510 C509 1.384 . S
C510 C511 1.377 . S
C510 C513 1.481 . S
C511 C510 1.377 . S
C511 C512 1.389 . S
C511 H533 0.929 . S
C512 C508 1.397 . S
C512 C511 1.389 . S
C512 H534 0.931 . S
C513 C510 1.481 . S
C513 C514 1.387 . S
C513 C518 1.390 . S
C514 C513 1.387 . S
C514 C515 1.401 . S
C514 H535 0.930 . S
C515 C514 1.401 . S
C515 C516 1.376 . S
C515 C524 1.511 . S
C516 C515 1.376 . S
C516 C517 1.392 . S
C516 H537 0.931 . S
C517 C516 1.392 . S
C517 C518 1.361 . S
C517 C519 1.500 . S
C518 C513 1.390 . S
C518 C517 1.361 . S
C518 H536 0.931 . S
C519 C517 1.500 . S
C519 C520 1.371 . S
C519 C521 1.365 . S
C520 C519 1.371 . S
C520 C530 1.386 . S
C520 H538 0.931 . S
C521 C519 1.365 . S
C521 C522 1.409 . S
C521 H539 0.929 . S
C522 C521 1.409 . S
C522 C523 1.380 . S
C522 H540 0.930 . S
C523 C522 1.380 . S
C523 C530 1.357 . S
C524 C515 1.511 . S
C524 C525 1.341 . S
C524 C526 1.371 . S
C525 C524 1.341 . S
C525 C529 1.394 . S
C525 H541 0.930 . S
C526 C524 1.371 . S
C526 C527 1.392 . S
C526 H542 0.931 . S
C527 C526 1.392 . S
C527 C528 1.331 . S
C527 H545 0.932 . S
C528 C527 1.331 . S
C528 C529 1.336 . S
C529 C525 1.394 . S
C529 C528 1.336 . S
C529 H544 0.929 . S
C530 C520 1.386 . S
C530 C523 1.357 . S
C530 H543 0.928 . S
H531 C507 0.931 . S
H532 C509 0.930 . S
H533 C511 0.929 . S
H534 C512 0.931 . S
H535 C514 0.930 . S
H536 C518 0.931 . S
H537 C516 0.931 . S
H538 C520 0.931 . S
H539 C521 0.929 . S
H540 C522 0.930 . S
H541 C525 0.930 . S
H542 C526 0.931 . S
H543 C530 0.928 . S
H544 C529 0.929 . S
H545 C527 0.932 . S
C546 C547 1.386 . S
C546 C548 1.397 . S
C546 H570 0.931 . S
C547 C546 1.386 . S
C547 C551 1.397 . S
C548 C546 1.397 . S
C548 C549 1.384 . S
C548 H571 0.930 . S
C549 C548 1.384 . S
C549 C550 1.377 . S
C549 C552 1.481 . S
C550 C549 1.377 . S
C550 C551 1.389 . S
C550 H572 0.929 . S
C551 C547 1.397 . S
C551 C550 1.389 . S
C551 H573 0.931 . S
C552 C549 1.481 . S
C552 C553 1.387 . S
C552 C557 1.390 . S
C553 C552 1.387 . S
C553 C554 1.401 . S
C553 H574 0.930 . S
C554 C553 1.401 . S
C554 C555 1.376 . S
C554 C563 1.511 . S
C555 C554 1.376 . S
C555 C556 1.392 . S
C555 H576 0.931 . S
C556 C555 1.392 . S
C556 C557 1.361 . S
C556 C558 1.500 . S
C557 C552 1.390 . S
C557 C556 1.361 . S
C557 H575 0.931 . S
C558 C556 1.500 . S
C558 C559 1.371 . S
C558 C560 1.365 . S
C559 C558 1.371 . S
C559 C569 1.386 . S
C559 H577 0.931 . S
C560 C558 1.365 . S
C560 C561 1.409 . S
C560 H578 0.929 . S
C561 C560 1.409 . S
C561 C562 1.380 . S
C561 H579 0.930 . S
C562 C561 1.380 . S
C562 C569 1.357 . S
C563 C554 1.511 . S
C563 C564 1.341 . S
C563 C565 1.371 . S
C564 C563 1.341 . S
C564 C568 1.394 . S
C564 H580 0.930 . S
C565 C563 1.371 . S
C565 C566 1.392 . S
C565 H581 0.931 . S
C566 C565 1.392 . S
C566 C567 1.331 . S
C566 H584 0.932 . S
C567 C566 1.331 . S
C567 C568 1.336 . S
C568 C564 1.394 . S
C568 C567 1.336 . S
C568 H583 0.929 . S
C569 C559 1.386 . S
C569 C562 1.357 . S
C569 H582 0.928 . S
H570 C546 0.931 . S
H571 C548 0.930 . S
H572 C550 0.929 . S
H573 C551 0.931 . S
H574 C553 0.930 . S
H575 C557 0.931 . S
H576 C555 0.931 . S
H577 C559 0.931 . S
H578 C560 0.929 . S
H579 C561 0.930 . S
H580 C564 0.930 . S
H581 C565 0.931 . S
H582 C569 0.928 . S
H583 C568 0.929 . S
H584 C566 0.932 . S
C585 C586 1.386 . S
C585 C587 1.397 . S
C585 H609 0.931 . S
C586 C585 1.386 . S
C586 C590 1.397 . S
C587 C585 1.397 . S
C587 C588 1.384 . S
C587 H610 0.930 . S
C588 C587 1.384 . S
C588 C589 1.377 . S
C588 C591 1.481 . S
C589 C588 1.377 . S
C589 C590 1.389 . S
C589 H611 0.929 . S
C590 C586 1.397 . S
C590 C589 1.389 . S
C590 H612 0.931 . S
C591 C588 1.481 . S
C591 C592 1.387 . S
C591 C596 1.390 . S
C592 C591 1.387 . S
C592 C593 1.401 . S
C592 H613 0.930 . S
C593 C592 1.401 . S
C593 C594 1.376 . S
C593 C602 1.511 . S
C594 C593 1.376 . S
C594 C595 1.392 . S
C594 H615 0.931 . S
C595 C594 1.392 . S
C595 C596 1.361 . S
C595 C597 1.500 . S
C596 C591 1.390 . S
C596 C595 1.361 . S
C596 H614 0.931 . S
C597 C595 1.500 . S
C597 C598 1.371 . S
C597 C599 1.365 . S
C598 C597 1.371 . S
C598 C608 1.386 . S
C598 H616 0.931 . S
C599 C597 1.365 . S
C599 C600 1.409 . S
C599 H617 0.929 . S
C600 C599 1.409 . S
C600 C601 1.380 . S
C600 H618 0.930 . S
C601 C600 1.380 . S
C601 C608 1.357 . S
C602 C593 1.511 . S
C602 C603 1.341 . S
C602 C604 1.371 . S
C603 C602 1.341 . S
C603 C607 1.394 . S
C603 H619 0.930 . S
C604 C602 1.371 . S
C604 C605 1.392 . S
C604 H620 0.931 . S
C605 C604 1.392 . S
C605 C606 1.331 . S
C605 H623 0.932 . S
C606 C605 1.331 . S
C606 C607 1.336 . S
C607 C603 1.394 . S
C607 C606 1.336 . S
C607 H622 0.929 . S
C608 C598 1.386 . S
C608 C601 1.357 . S
C608 H621 0.928 . S
H609 C585 0.931 . S
H610 C587 0.930 . S
H611 C589 0.929 . S
H612 C590 0.931 . S
H613 C592 0.930 . S
H614 C596 0.931 . S
H615 C594 0.931 . S
H616 C598 0.931 . S
H617 C599 0.929 . S
H618 C600 0.930 . S
H619 C603 0.930 . S
H620 C604 0.931 . S
H621 C608 0.928 . S
H622 C607 0.929 . S
H623 C605 0.932 . S
C624 C625 1.382 1_655 S
C624 C626 1.388 1_655 S
C624 H648 0.946 . S
C625 C624 1.382 1_455 S
C625 C629 1.397 . S
C626 C624 1.388 1_455 S
C626 C627 1.384 . S
C626 H649 0.926 1_455 S
C627 C626 1.384 . S
C627 C628 1.377 . S
C627 C630 1.481 . S
C628 C627 1.377 . S
C628 C629 1.389 . S
C628 H650 0.929 . S
C629 C625 1.397 . S
C629 C628 1.389 . S
C629 H651 0.931 . S
C630 C627 1.481 . S
C630 C631 1.387 . S
C630 C635 1.390 . S
C631 C630 1.387 . S
C631 C632 1.401 . S
C631 H652 0.930 . S
C632 C631 1.401 . S
C632 C633 1.376 . S
C632 C641 1.511 . S
C633 C632 1.376 . S
C633 C634 1.392 . S
C633 H654 0.931 . S
C634 C633 1.392 . S
C634 C635 1.361 . S
C634 C636 1.500 . S
C635 C630 1.390 . S
C635 C634 1.361 . S
C635 H653 0.931 . S
C636 C634 1.500 . S
C636 C637 1.371 . S
C636 C638 1.365 . S
C637 C636 1.371 . S
C637 C647 1.386 . S
C637 H655 0.931 . S
C638 C636 1.365 . S
C638 C639 1.409 . S
C638 H656 0.929 . S
C639 C638 1.409 . S
C639 C640 1.380 . S
C639 H657 0.930 . S
C640 C639 1.380 . S
C640 C647 1.357 . S
C641 C632 1.511 . S
C641 C642 1.341 . S
C641 C643 1.371 . S
C642 C641 1.341 . S
C642 C646 1.394 . S
C642 H658 0.930 . S
C643 C641 1.371 . S
C643 C644 1.392 . S
C643 H659 0.931 . S
C644 C643 1.392 . S
C644 C645 1.331 . S
C644 H662 0.932 . S
C645 C644 1.331 . S
C645 C646 1.336 . S
C646 C642 1.394 . S
C646 C645 1.336 . S
C646 H661 0.929 . S
C647 C637 1.386 . S
C647 C640 1.357 . S
C647 H660 0.928 . S
H648 C624 0.946 . S
H649 C626 0.926 1_655 S
H650 C628 0.929 . S
H651 C629 0.931 . S
H652 C631 0.930 . S
H653 C635 0.931 . S
H654 C633 0.931 . S
H655 C637 0.931 . S
H656 C638 0.929 . S
H657 C639 0.930 . S
H658 C642 0.930 . S
H659 C643 0.931 . S
H660 C647 0.928 . S
H661 C646 0.929 . S
H662 C644 0.932 . S
C663 C664 1.386 . S
C663 C665 1.397 . S
C663 H687 0.931 . S
C664 C663 1.386 . S
C664 C668 1.397 . S
C665 C663 1.397 . S
C665 C666 1.384 . S
C665 H688 0.930 . S
C666 C665 1.384 . S
C666 C667 1.377 . S
C666 C669 1.481 . S
C667 C666 1.377 . S
C667 C668 1.389 . S
C667 H689 0.929 . S
C668 C664 1.397 . S
C668 C667 1.389 . S
C668 H690 0.931 . S
C669 C666 1.481 . S
C669 C670 1.387 . S
C669 C674 1.390 . S
C670 C669 1.387 . S
C670 C671 1.401 . S
C670 H691 0.930 . S
C671 C670 1.401 . S
C671 C672 1.376 . S
C671 C680 1.511 . S
C672 C671 1.376 . S
C672 C673 1.392 . S
C672 H693 0.931 . S
C673 C672 1.392 . S
C673 C674 1.361 . S
C673 C675 1.500 . S
C674 C669 1.390 . S
C674 C673 1.361 . S
C674 H692 0.931 . S
C675 C673 1.500 . S
C675 C676 1.371 . S
C675 C677 1.365 . S
C676 C675 1.371 . S
C676 C686 1.386 . S
C676 H694 0.931 . S
C677 C675 1.365 . S
C677 C678 1.409 . S
C677 H695 0.929 . S
C678 C677 1.409 . S
C678 C679 1.380 . S
C678 H696 0.930 . S
C679 C678 1.380 . S
C679 C686 1.357 . S
C680 C671 1.511 . S
C680 C681 1.341 . S
C680 C682 1.371 . S
C681 C680 1.341 . S
C681 C685 1.394 . S
C681 H697 0.930 . S
C682 C680 1.371 . S
C682 C683 1.392 . S
C682 H698 0.931 . S
C683 C682 1.392 . S
C683 C684 1.331 . S
C683 H701 0.932 . S
C684 C683 1.331 . S
C684 C685 1.336 . S
C685 C681 1.394 . S
C685 C684 1.336 . S
C685 H700 0.929 . S
C686 C676 1.386 . S
C686 C679 1.357 . S
C686 H699 0.928 . S
H687 C663 0.931 . S
H688 C665 0.930 . S
H689 C667 0.929 . S
H690 C668 0.931 . S
H691 C670 0.930 . S
H692 C674 0.931 . S
H693 C672 0.931 . S
H694 C676 0.931 . S
H695 C677 0.929 . S
H696 C678 0.930 . S
H697 C681 0.930 . S
H698 C682 0.931 . S
H699 C686 0.928 . S
H700 C685 0.929 . S
H701 C683 0.932 . S
C702 Eu703 2.835 . S
C702 C704 1.500 . S
C702 O722 1.257 1_545 S
C702 O723 1.260 . S
Eu703 C702 2.835 . S
Eu703 O722 2.473 1_545 S
Eu703 O723 2.480 . S
Eu703 O724 2.430 . S
Eu703 O725 2.670 1_554 S
Eu703 O726 2.394 1_545 S
Eu703 O731 2.355 1_545 S
Eu703 O733 2.374 . S
C704 C702 1.500 . S
C704 C705 1.377 . S
C704 C709 1.377 1_545 S
C705 C704 1.377 . S
C705 C706 1.395 . S
C705 H734 0.931 . S
C706 C705 1.395 . S
C706 C707 1.383 1_545 S
C706 H735 0.931 . S
C707 C706 1.383 1_565 S
C707 C708 1.394 . S
C708 C707 1.394 . S
C708 C709 1.378 . S
C708 H736 0.931 . S
C709 C704 1.377 1_565 S
C709 C708 1.378 . S
C709 H737 0.931 . S
C710 O724 1.253 . S
C710 O725 1.272 1_554 S
C711 O726 1.251 . S
C711 O727 1.251 1_554 S
C712 Eu713 2.835 . S
C712 C714 1.500 . S
C712 O728 1.257 1_565 S
C712 O729 1.260 . S
Eu713 C712 2.835 . S
Eu713 O725 2.355 1_565 S
Eu713 O727 2.374 . S
Eu713 O728 2.473 1_565 S
Eu713 O729 2.480 . S
Eu713 O730 2.430 . S
Eu713 O731 2.670 1_556 S
Eu713 O732 2.394 1_565 S
C714 C712 1.500 . S
C714 C715 1.377 . S
C714 C719 1.377 1_565 S
C715 C714 1.377 . S
C715 C716 1.395 . S
C715 H738 0.931 . S
C716 C715 1.395 . S
C716 C717 1.383 1_565 S
C716 H739 0.931 . S
C717 C716 1.383 1_545 S
C717 C718 1.394 . S
C718 C717 1.394 . S
C718 C719 1.378 . S
C718 H740 0.931 . S
C719 C714 1.377 1_545 S
C719 C718 1.378 . S
C719 H741 0.931 . S
C720 O730 1.259 1_554 S
C720 O731 1.270 . S
C721 O732 1.251 . S
C721 O733 1.251 1_556 S
O722 C702 1.257 1_565 S
O722 Eu703 2.473 1_565 S
O723 C702 1.260 . S
O723 Eu703 2.480 . S
O724 Eu703 2.430 . S
O724 C710 1.253 . S
O725 Eu703 2.670 1_556 S
O725 C710 1.272 1_556 S
O725 Eu713 2.355 1_545 S
O726 Eu703 2.394 1_565 S
O726 C711 1.251 . S
O727 C711 1.251 1_556 S
O727 Eu713 2.374 . S
O728 C712 1.257 1_545 S
O728 Eu713 2.473 1_545 S
O729 C712 1.260 . S
O729 Eu713 2.480 . S
O730 Eu713 2.430 . S
O730 C720 1.259 1_556 S
O731 Eu703 2.355 1_565 S
O731 Eu713 2.670 1_554 S
O731 C720 1.270 . S
O732 Eu713 2.394 1_545 S
O732 C721 1.251 . S
O733 Eu703 2.374 . S
O733 C721 1.251 1_554 S
H734 C705 0.931 . S
H735 C706 0.931 . S
H736 C708 0.931 . S
H737 C709 0.931 . S
H738 C715 0.931 . S
H739 C716 0.931 . S
H740 C718 0.931 . S
H741 C719 0.931 . S
C742 Eu743 2.835 . S
C742 C744 1.500 1_655 S
C742 O762 1.257 1_655 S
C742 O763 1.260 . S
Eu743 C742 2.835 . S
Eu743 O762 2.473 1_655 S
Eu743 O763 2.480 . S
Eu743 O764 2.430 . S
Eu743 O765 2.670 1_554 S
Eu743 O766 2.394 1_655 S
Eu743 O771 2.355 1_655 S
Eu743 O773 2.374 . S
C744 C742 1.500 1_455 S
C744 C745 1.377 1_455 S
C744 C749 1.377 . S
C745 C744 1.377 1_655 S
C745 C746 1.395 . S
C745 H774 0.931 . S
C746 C745 1.395 . S
C746 C747 1.383 1_655 S
C746 H775 0.931 . S
C747 C746 1.383 1_455 S
C747 C748 1.394 . S
C748 C747 1.394 . S
C748 C749 1.378 . S
C748 H776 0.931 . S
C749 C744 1.377 . S
C749 C748 1.378 . S
C749 H777 0.931 . S
C750 O764 1.259 1_556 S
C750 O765 1.270 . S
C751 O766 1.251 . S
C751 O767 1.251 . S
C752 Eu753 2.835 . S
C752 C754 1.500 1_455 S
C752 O768 1.257 1_455 S
C752 O769 1.260 . S
Eu753 C752 2.835 . S
Eu753 O765 2.355 1_455 S
Eu753 O767 2.374 1_556 S
Eu753 O768 2.473 1_455 S
Eu753 O769 2.480 . S
Eu753 O770 2.430 . S
Eu753 O771 2.670 1_556 S
Eu753 O772 2.394 1_455 S
C754 C752 1.500 1_655 S
C754 C755 1.377 1_655 S
C754 C759 1.377 . S
C755 C754 1.377 1_455 S
C755 C756 1.395 . S
C755 H778 0.931 . S
C756 C755 1.395 . S
C756 C757 1.383 1_455 S
C756 H779 0.931 . S
C757 C756 1.383 1_655 S
C757 C758 1.394 . S
C758 C757 1.394 . S
C758 C759 1.378 . S
C758 H780 0.931 . S
C759 C754 1.377 . S
C759 C758 1.378 . S
C759 H781 0.931 . S
C760 O770 1.259 1_554 S
C760 O771 1.270 . S
C761 O772 1.251 . S
C761 O773 1.251 1_556 S
O762 C742 1.257 1_455 S
O762 Eu743 2.473 1_455 S
O763 C742 1.260 . S
O763 Eu743 2.480 . S
O764 Eu743 2.430 . S
O764 C750 1.259 1_554 S
O765 Eu743 2.670 1_556 S
O765 C750 1.270 . S
O765 Eu753 2.355 1_655 S
O766 Eu743 2.394 1_455 S
O766 C751 1.251 . S
O767 C751 1.251 . S
O767 Eu753 2.374 1_554 S
O768 C752 1.257 1_655 S
O768 Eu753 2.473 1_655 S
O769 C752 1.260 . S
O769 Eu753 2.480 . S
O770 Eu753 2.430 . S
O770 C760 1.259 1_556 S
O771 Eu743 2.355 1_455 S
O771 Eu753 2.670 1_554 S
O771 C760 1.270 . S
O772 Eu753 2.394 1_655 S
O772 C761 1.251 . S
O773 Eu743 2.374 . S
O773 C761 1.251 1_554 S
H774 C745 0.931 . S
H775 C746 0.931 . S
H776 C748 0.931 . S
H777 C749 0.931 . S
H778 C755 0.931 . S
H779 C756 0.931 . S
H780 C758 0.931 . S
H781 C759 0.931 . S
C782 Eu783 2.835 . S
C782 C784 1.500 . S
C782 O802 1.257 . S
C782 O803 1.260 . S
Eu783 C782 2.835 . S
Eu783 O802 2.473 . S
Eu783 O803 2.480 . S
Eu783 O804 2.430 . S
Eu783 O805 2.670 1_556 S
Eu783 O806 2.394 . S
Eu783 O811 2.355 . S
Eu783 O813 2.356 1_556 S
C784 C782 1.500 . S
C784 C785 1.377 . S
C784 C789 1.377 . S
C785 C784 1.377 . S
C785 C786 1.395 . S
C785 H814 0.931 . S
C786 C785 1.395 . S
C786 C787 1.383 . S
C786 H815 0.931 . S
C787 C786 1.383 . S
C787 C788 1.394 . S
C788 C787 1.394 . S
C788 C789 1.378 . S
C788 H816 0.931 . S
C789 C784 1.377 . S
C789 C788 1.378 . S
C789 H817 0.931 . S
C790 O804 1.259 1_554 S
C790 O805 1.270 . S
C791 O806 1.251 . S
C791 O807 1.251 1_556 S
C792 Eu793 2.835 . S
C792 C794 1.500 . S
C792 O808 1.257 . S
C792 O809 1.260 . S
Eu793 C792 2.835 . S
Eu793 O805 2.355 . S
Eu793 O807 2.374 . S
Eu793 O808 2.473 . S
Eu793 O809 2.480 . S
Eu793 O810 2.430 . S
Eu793 O811 2.670 1_554 S
Eu793 O812 2.394 . S
C794 C792 1.500 . S
C794 C795 1.377 . S
C794 C799 1.377 . S
C795 C794 1.377 . S
C795 C796 1.395 . S
C795 H818 0.931 . S
C796 C795 1.395 . S
C796 C797 1.383 . S
C796 H819 0.931 . S
C797 C796 1.383 . S
C797 C798 1.394 . S
C798 C797 1.394 . S
C798 C799 1.378 . S
C798 H820 0.931 . S
C799 C794 1.377 . S
C799 C798 1.378 . S
C799 H821 0.931 . S
C800 O810 1.259 1_556 S
C800 O811 1.270 . S
C801 O812 1.251 . S
C801 O813 1.275 . S
O802 C782 1.257 . S
O802 Eu783 2.473 . S
O803 C782 1.260 . S
O803 Eu783 2.480 . S
O804 Eu783 2.430 . S
O804 C790 1.259 1_556 S
O805 Eu783 2.670 1_554 S
O805 C790 1.270 . S
O805 Eu793 2.355 . S
O806 Eu783 2.394 . S
O806 C791 1.251 . S
O807 C791 1.251 1_554 S
O807 Eu793 2.374 . S
O808 C792 1.257 . S
O808 Eu793 2.473 . S
O809 C792 1.260 . S
O809 Eu793 2.480 . S
O810 Eu793 2.430 . S
O810 C800 1.259 1_554 S
O811 Eu783 2.355 . S
O811 Eu793 2.670 1_556 S
O811 C800 1.270 . S
O812 Eu793 2.394 . S
O812 C801 1.251 . S
O813 Eu783 2.356 1_554 S
O813 C801 1.275 . S
H814 C785 0.931 . S
H815 C786 0.931 . S
H816 C788 0.931 . S
H817 C789 0.931 . S
H818 C795 0.931 . S
H819 C796 0.931 . S
H820 C798 0.931 . S
H821 C799 0.931 . S
C822 Eu823 2.835 . S
C822 C824 1.500 . S
C822 O842 1.257 . S
C822 O843 1.260 . S
Eu823 C822 2.835 . S
Eu823 O842 2.473 . S
Eu823 O843 2.480 . S
Eu823 O844 2.430 . S
Eu823 O845 2.670 . S
Eu823 O846 2.394 . S
Eu823 O851 2.355 . S
Eu823 O853 2.374 . S
C824 C822 1.500 . S
C824 C825 1.377 . S
C824 C829 1.377 . S
C825 C824 1.377 . S
C825 C826 1.395 . S
C825 H854 0.931 . S
C826 C825 1.395 . S
C826 C827 1.383 . S
C826 H855 0.931 . S
C827 C826 1.383 . S
C827 C828 1.394 . S
C828 C827 1.394 . S
C828 C829 1.378 . S
C828 H856 0.931 . S
C829 C824 1.377 . S
C829 C828 1.378 . S
C829 H857 0.931 . S
C830 O844 1.259 . S
C830 O845 1.270 . S
C831 O846 1.251 . S
C831 O847 1.251 . S
C832 Eu833 2.835 . S
C832 C834 1.500 . S
C832 O848 1.257 . S
C832 O849 1.260 . S
Eu833 C832 2.835 . S
Eu833 O845 2.355 . S
Eu833 O847 2.374 . S
Eu833 O848 2.473 . S
Eu833 O849 2.480 . S
Eu833 O850 2.430 . S
Eu833 O851 2.670 . S
Eu833 O852 2.394 . S
C834 C832 1.500 . S
C834 C835 1.377 . S
C834 C839 1.377 . S
C835 C834 1.377 . S
C835 C836 1.395 . S
C835 H858 0.931 . S
C836 C835 1.395 . S
C836 C837 1.383 . S
C836 H859 0.931 . S
C837 C836 1.383 . S
C837 C838 1.394 . S
C838 C837 1.394 . S
C838 C839 1.378 . S
C838 H860 0.931 . S
C839 C834 1.377 . S
C839 C838 1.378 . S
C839 H861 0.931 . S
C840 O850 1.259 . S
C840 O851 1.270 . S
C841 O852 1.251 . S
C841 O853 1.251 . S
O842 C822 1.257 . S
O842 Eu823 2.473 . S
O843 C822 1.260 . S
O843 Eu823 2.480 . S
O844 Eu823 2.430 . S
O844 C830 1.259 . S
O845 Eu823 2.670 . S
O845 C830 1.270 . S
O845 Eu833 2.355 . S
O846 Eu823 2.394 . S
O846 C831 1.251 . S
O847 C831 1.251 . S
O847 Eu833 2.374 . S
O848 C832 1.257 . S
O848 Eu833 2.473 . S
O849 C832 1.260 . S
O849 Eu833 2.480 . S
O850 Eu833 2.430 . S
O850 C840 1.259 . S
O851 Eu823 2.355 . S
O851 Eu833 2.670 . S
O851 C840 1.270 . S
O852 Eu833 2.394 . S
O852 C841 1.251 . S
O853 Eu823 2.374 . S
O853 C841 1.251 . S
H854 C825 0.931 . S
H855 C826 0.931 . S
H856 C828 0.931 . S
H857 C829 0.931 . S
H858 C835 0.931 . S
H859 C836 0.931 . S
H860 C838 0.931 . S
H861 C839 0.931 . S
C862 Eu863 2.835 . S
C862 C864 1.500 . S
C862 O882 1.257 . S
C862 O883 1.260 . S
Eu863 C862 2.835 . S
Eu863 O882 2.473 . S
Eu863 O883 2.480 . S
Eu863 O884 2.430 . S
Eu863 O885 2.670 . S
Eu863 O886 2.394 . S
Eu863 O891 2.355 . S
Eu863 O893 2.374 . S
C864 C862 1.500 . S
C864 C865 1.377 . S
C864 C869 1.377 . S
C865 C864 1.377 . S
C865 C866 1.395 . S
C865 H894 0.931 . S
C866 C865 1.395 . S
C866 C867 1.383 . S
C866 H895 0.931 . S
C867 C866 1.383 . S
C867 C868 1.394 . S
C868 C867 1.394 . S
C868 C869 1.378 . S
C868 H896 0.931 . S
C869 C864 1.377 . S
C869 C868 1.378 . S
C869 H897 0.931 . S
C870 O884 1.259 . S
C870 O885 1.270 . S
C871 O886 1.251 . S
C871 O887 1.251 . S
C872 Eu873 2.835 . S
C872 C874 1.500 . S
C872 O888 1.257 . S
C872 O889 1.260 . S
Eu873 C872 2.835 . S
Eu873 O885 2.355 . S
Eu873 O887 2.374 . S
Eu873 O888 2.473 . S
Eu873 O889 2.480 . S
Eu873 O890 2.430 . S
Eu873 O891 2.670 . S
Eu873 O892 2.394 . S
C874 C872 1.500 . S
C874 C875 1.377 . S
C874 C879 1.377 . S
C875 C874 1.377 . S
C875 C876 1.395 . S
C875 H898 0.931 . S
C876 C875 1.395 . S
C876 C877 1.383 . S
C876 H899 0.931 . S
C877 C876 1.383 . S
C877 C878 1.394 . S
C878 C877 1.394 . S
C878 C879 1.378 . S
C878 H900 0.931 . S
C879 C874 1.377 . S
C879 C878 1.378 . S
C879 H901 0.931 . S
C880 O890 1.259 . S
C880 O891 1.270 . S
C881 O892 1.251 . S
C881 O893 1.251 . S
O882 C862 1.257 . S
O882 Eu863 2.473 . S
O883 C862 1.260 . S
O883 Eu863 2.480 . S
O884 Eu863 2.430 . S
O884 C870 1.259 . S
O885 Eu863 2.670 . S
O885 C870 1.270 . S
O885 Eu873 2.355 . S
O886 Eu863 2.394 . S
O886 C871 1.251 . S
O887 C871 1.251 . S
O887 Eu873 2.374 . S
O888 C872 1.257 . S
O888 Eu873 2.473 . S
O889 C872 1.260 . S
O889 Eu873 2.480 . S
O890 Eu873 2.430 . S
O890 C880 1.259 . S
O891 Eu863 2.355 . S
O891 Eu873 2.670 . S
O891 C880 1.270 . S
O892 Eu873 2.394 . S
O892 C881 1.251 . S
O893 Eu863 2.374 . S
O893 C881 1.251 . S
H894 C865 0.931 . S
H895 C866 0.931 . S
H896 C868 0.931 . S
H897 C869 0.931 . S
H898 C875 0.931 . S
H899 C876 0.931 . S
H900 C878 0.931 . S
H901 C879 0.931 . S
C902 Eu903 2.835 . S
C902 C904 1.500 . S
C902 O922 1.257 . S
C902 O923 1.260 . S
Eu903 C902 2.835 . S
Eu903 O922 2.473 . S
Eu903 O923 2.480 . S
Eu903 O924 2.430 . S
Eu903 O925 2.670 . S
Eu903 O926 2.394 . S
Eu903 O931 2.355 . S
Eu903 O933 2.374 . S
C904 C902 1.500 . S
C904 C905 1.377 . S
C904 C909 1.377 . S
C905 C904 1.377 . S
C905 C906 1.395 . S
C905 H934 0.931 . S
C906 C905 1.395 . S
C906 C907 1.383 . S
C906 H935 0.931 . S
C907 C906 1.383 . S
C907 C908 1.394 . S
C908 C907 1.394 . S
C908 C909 1.378 . S
C908 H936 0.931 . S
C909 C904 1.377 . S
C909 C908 1.378 . S
C909 H937 0.931 . S
C910 O924 1.259 . S
C910 O925 1.270 . S
C911 O926 1.251 . S
C911 O927 1.251 . S
C912 Eu913 2.835 . S
C912 C914 1.500 . S
C912 O928 1.257 . S
C912 O929 1.260 . S
Eu913 C912 2.835 . S
Eu913 O925 2.355 . S
Eu913 O927 2.374 . S
Eu913 O928 2.473 . S
Eu913 O929 2.480 . S
Eu913 O930 2.430 . S
Eu913 O931 2.670 . S
Eu913 O932 2.394 . S
C914 C912 1.500 . S
C914 C915 1.377 . S
C914 C919 1.377 . S
C915 C914 1.377 . S
C915 C916 1.395 . S
C915 H938 0.931 . S
C916 C915 1.395 . S
C916 C917 1.383 . S
C916 H939 0.931 . S
C917 C916 1.383 . S
C917 C918 1.394 . S
C918 C917 1.394 . S
C918 C919 1.378 . S
C918 H940 0.931 . S
C919 C914 1.377 . S
C919 C918 1.378 . S
C919 H941 0.931 . S
C920 O930 1.259 . S
C920 O931 1.270 . S
C921 O932 1.251 . S
C921 O933 1.251 . S
O922 C902 1.257 . S
O922 Eu903 2.473 . S
O923 C902 1.260 . S
O923 Eu903 2.480 . S
O924 Eu903 2.430 . S
O924 C910 1.259 . S
O925 Eu903 2.670 . S
O925 C910 1.270 . S
O925 Eu913 2.355 . S
O926 Eu903 2.394 . S
O926 C911 1.251 . S
O927 C911 1.251 . S
O927 Eu913 2.374 . S
O928 C912 1.257 . S
O928 Eu913 2.473 . S
O929 C912 1.260 . S
O929 Eu913 2.480 . S
O930 Eu913 2.430 . S
O930 C920 1.259 . S
O931 Eu903 2.355 . S
O931 Eu913 2.670 . S
O931 C920 1.270 . S
O932 Eu913 2.394 . S
O932 C921 1.251 . S
O933 Eu903 2.374 . S
O933 C921 1.251 . S
H934 C905 0.931 . S
H935 C906 0.931 . S
H936 C908 0.931 . S
H937 C909 0.931 . S
H938 C915 0.931 . S
H939 C916 0.931 . S
H940 C918 0.931 . S
H941 C919 0.931 . S
C942 Eu943 2.835 . S
C942 C944 1.500 . S
C942 O962 1.257 . S
C942 O963 1.260 . S
Eu943 C942 2.835 . S
Eu943 O962 2.473 . S
Eu943 O963 2.480 . S
Eu943 O964 2.430 . S
Eu943 O965 2.670 . S
Eu943 O966 2.394 . S
Eu943 O971 2.355 . S
Eu943 O973 2.374 . S
C944 C942 1.500 . S
C944 C945 1.377 . S
C944 C949 1.377 . S
C945 C944 1.377 . S
C945 C946 1.395 . S
C945 H974 0.931 . S
C946 C945 1.395 . S
C946 C947 1.383 . S
C946 H975 0.931 . S
C947 C946 1.383 . S
C947 C948 1.394 . S
C948 C947 1.394 . S
C948 C949 1.378 . S
C948 H976 0.931 . S
C949 C944 1.377 . S
C949 C948 1.378 . S
C949 H977 0.931 . S
C950 O964 1.259 . S
C950 O965 1.270 . S
C951 O966 1.251 . S
C951 O967 1.251 . S
C952 Eu953 2.835 . S
C952 C954 1.500 . S
C952 O968 1.257 . S
C952 O969 1.260 . S
Eu953 C952 2.835 . S
Eu953 O965 2.355 . S
Eu953 O967 2.374 . S
Eu953 O968 2.473 . S
Eu953 O969 2.480 . S
Eu953 O970 2.430 . S
Eu953 O971 2.670 . S
Eu953 O972 2.394 . S
C954 C952 1.500 . S
C954 C955 1.377 . S
C954 C959 1.377 . S
C955 C954 1.377 . S
C955 C956 1.395 . S
C955 H978 0.931 . S
C956 C955 1.395 . S
C956 C957 1.383 . S
C956 H979 0.931 . S
C957 C956 1.383 . S
C957 C958 1.394 . S
C958 C957 1.394 . S
C958 C959 1.378 . S
C958 H980 0.931 . S
C959 C954 1.377 . S
C959 C958 1.378 . S
C959 H981 0.931 . S
C960 O970 1.259 . S
C960 O971 1.270 . S
C961 O972 1.251 . S
C961 O973 1.251 . S
O962 C942 1.257 . S
O962 Eu943 2.473 . S
O963 C942 1.260 . S
O963 Eu943 2.480 . S
O964 Eu943 2.430 . S
O964 C950 1.259 . S
O965 Eu943 2.670 . S
O965 C950 1.270 . S
O965 Eu953 2.355 . S
O966 Eu943 2.394 . S
O966 C951 1.251 . S
O967 C951 1.251 . S
O967 Eu953 2.374 . S
O968 C952 1.257 . S
O968 Eu953 2.473 . S
O969 C952 1.260 . S
O969 Eu953 2.480 . S
O970 Eu953 2.430 . S
O970 C960 1.259 . S
O971 Eu943 2.355 . S
O971 Eu953 2.670 . S
O971 C960 1.270 . S
O972 Eu953 2.394 . S
O972 C961 1.251 . S
O973 Eu943 2.374 . S
O973 C961 1.251 . S
H974 C945 0.931 . S
H975 C946 0.931 . S
H976 C948 0.931 . S
H977 C949 0.931 . S
H978 C955 0.931 . S
H979 C956 0.931 . S
H980 C958 0.931 . S
H981 C959 0.931 . S
C982 Eu983 2.835 . S
C982 C984 1.500 . S
C982 O1002 1.257 . S
C982 O1003 1.260 . S
Eu983 C982 2.835 . S
Eu983 O1002 2.473 . S
Eu983 O1003 2.480 . S
Eu983 O1004 2.430 . S
Eu983 O1005 2.670 . S
Eu983 O1006 2.394 . S
Eu983 O1011 2.355 . S
Eu983 O1013 2.374 . S
C984 C982 1.500 . S
C984 C985 1.377 . S
C984 C989 1.377 . S
C985 C984 1.377 . S
C985 C986 1.395 . S
C985 H1014 0.931 . S
C986 C985 1.395 . S
C986 C987 1.383 . S
C986 H1015 0.931 . S
C987 C986 1.383 . S
C987 C988 1.394 . S
C988 C987 1.394 . S
C988 C989 1.378 . S
C988 H1016 0.931 . S
C989 C984 1.377 . S
C989 C988 1.378 . S
C989 H1017 0.931 . S
C990 O1004 1.259 . S
C990 O1005 1.270 . S
C991 O1006 1.251 . S
C991 O1007 1.251 . S
C992 Eu993 2.835 . S
C992 C994 1.500 . S
C992 O1008 1.257 . S
C992 O1009 1.260 . S
Eu993 C992 2.835 . S
Eu993 O1005 2.355 . S
Eu993 O1007 2.374 . S
Eu993 O1008 2.473 . S
Eu993 O1009 2.480 . S
Eu993 O1010 2.430 . S
Eu993 O1011 2.670 . S
Eu993 O1012 2.394 . S
C994 C992 1.500 . S
C994 C995 1.377 . S
C994 C999 1.377 . S
C995 C994 1.377 . S
C995 C996 1.395 . S
C995 H1018 0.931 . S
C996 C995 1.395 . S
C996 C997 1.383 . S
C996 H1019 0.931 . S
C997 C996 1.383 . S
C997 C998 1.394 . S
C998 C997 1.394 . S
C998 C999 1.378 . S
C998 H1020 0.931 . S
C999 C994 1.377 . S
C999 C998 1.378 . S
C999 H1021 0.931 . S
C1000 O1010 1.259 . S
C1000 O1011 1.270 . S
C1001 O1012 1.251 . S
C1001 O1013 1.251 . S
O1002 C982 1.257 . S
O1002 Eu983 2.473 . S
O1003 C982 1.260 . S
O1003 Eu983 2.480 . S
O1004 Eu983 2.430 . S
O1004 C990 1.259 . S
O1005 Eu983 2.670 . S
O1005 C990 1.270 . S
O1005 Eu993 2.355 . S
O1006 Eu983 2.394 . S
O1006 C991 1.251 . S
O1007 C991 1.251 . S
O1007 Eu993 2.374 . S
O1008 C992 1.257 . S
O1008 Eu993 2.473 . S
O1009 C992 1.260 . S
O1009 Eu993 2.480 . S
O1010 Eu993 2.430 . S
O1010 C1000 1.259 . S
O1011 Eu983 2.355 . S
O1011 Eu993 2.670 . S
O1011 C1000 1.270 . S
O1012 Eu993 2.394 . S
O1012 C1001 1.251 . S
O1013 Eu983 2.374 . S
O1013 C1001 1.251 . S
H1014 C985 0.931 . S
H1015 C986 0.931 . S
H1016 C988 0.931 . S
H1017 C989 0.931 . S
H1018 C995 0.931 . S
H1019 C996 0.931 . S
H1020 C998 0.931 . S
H1021 C999 0.931 . S
C1022 Eu1023 2.835 . S
C1022 C1024 1.500 . S
C1022 O1042 1.257 . S
C1022 O1043 1.260 . S
Eu1023 C1022 2.835 . S
Eu1023 O1042 2.473 . S
Eu1023 O1043 2.480 . S
Eu1023 O1044 2.430 . S
Eu1023 O1045 2.670 . S
Eu1023 O1046 2.394 . S
Eu1023 O1051 2.355 . S
Eu1023 O1053 2.374 . S
C1024 C1022 1.500 . S
C1024 C1025 1.377 . S
C1024 C1029 1.377 . S
C1025 C1024 1.377 . S
C1025 C1026 1.395 . S
C1025 H1054 0.931 . S
C1026 C1025 1.395 . S
C1026 C1027 1.383 . S
C1026 H1055 0.931 . S
C1027 C1026 1.383 . S
C1027 C1028 1.394 . S
C1028 C1027 1.394 . S
C1028 C1029 1.378 . S
C1028 H1056 0.931 . S
C1029 C1024 1.377 . S
C1029 C1028 1.378 . S
C1029 H1057 0.931 . S
C1030 O1044 1.259 . S
C1030 O1045 1.270 . S
C1031 O1046 1.251 . S
C1031 O1047 1.251 . S
C1032 Eu1033 2.835 . S
C1032 C1034 1.500 . S
C1032 O1048 1.257 . S
C1032 O1049 1.260 . S
Eu1033 C1032 2.835 . S
Eu1033 O1045 2.355 . S
Eu1033 O1047 2.374 . S
Eu1033 O1048 2.473 . S
Eu1033 O1049 2.480 . S
Eu1033 O1050 2.430 . S
Eu1033 O1051 2.670 . S
Eu1033 O1052 2.394 . S
C1034 C1032 1.500 . S
C1034 C1035 1.377 . S
C1034 C1039 1.377 . S
C1035 C1034 1.377 . S
C1035 C1036 1.395 . S
C1035 H1058 0.931 . S
C1036 C1035 1.395 . S
C1036 C1037 1.383 . S
C1036 H1059 0.931 . S
C1037 C1036 1.383 . S
C1037 C1038 1.394 . S
C1038 C1037 1.394 . S
C1038 C1039 1.378 . S
C1038 H1060 0.931 . S
C1039 C1034 1.377 . S
C1039 C1038 1.378 . S
C1039 H1061 0.931 . S
C1040 O1050 1.259 . S
C1040 O1051 1.270 . S
C1041 O1052 1.251 . S
C1041 O1053 1.251 . S
O1042 C1022 1.257 . S
O1042 Eu1023 2.473 . S
O1043 C1022 1.260 . S
O1043 Eu1023 2.480 . S
O1044 Eu1023 2.430 . S
O1044 C1030 1.259 . S
O1045 Eu1023 2.670 . S
O1045 C1030 1.270 . S
O1045 Eu1033 2.355 . S
O1046 Eu1023 2.394 . S
O1046 C1031 1.251 . S
O1047 C1031 1.251 . S
O1047 Eu1033 2.374 . S
O1048 C1032 1.257 . S
O1048 Eu1033 2.473 . S
O1049 C1032 1.260 . S
O1049 Eu1033 2.480 . S
O1050 Eu1033 2.430 . S
O1050 C1040 1.259 . S
O1051 Eu1023 2.355 . S
O1051 Eu1033 2.670 . S
O1051 C1040 1.270 . S
O1052 Eu1033 2.394 . S
O1052 C1041 1.251 . S
O1053 Eu1023 2.374 . S
O1053 C1041 1.251 . S
H1054 C1025 0.931 . S
H1055 C1026 0.931 . S
H1056 C1028 0.931 . S
H1057 C1029 0.931 . S
H1058 C1035 0.931 . S
H1059 C1036 0.931 . S
H1060 C1038 0.931 . S
H1061 C1039 0.931 . S
H1062 C1068 0.930 . S
H1063 C1072 0.930 . S
H1064 C1077 0.929 . S
H1065 C1075 0.929 1_556 S
H1066 C1070 0.929 . S
H1067 C1076 0.929 . S
C1068 H1062 0.930 . S
C1068 C1069 1.367 . S
C1068 C1076 1.378 . S
C1069 C1068 1.367 . S
C1069 C1077 1.433 . S
C1070 H1066 0.929 . S
C1070 C1072 1.378 . S
C1070 C1074 1.350 . S
C1071 C1074 1.463 . S
C1071 C1076 1.350 . S
C1071 N1079 1.427 . S
C1072 H1063 0.930 . S
C1072 C1070 1.378 . S
C1072 C1073 1.367 . S
C1073 C1072 1.367 . S
C1073 C1075 1.433 . S
C1074 C1070 1.350 . S
C1074 C1071 1.463 . S
C1074 N1078 1.427 . S
C1075 H1065 0.929 1_554 S
C1075 C1073 1.433 . S
C1075 N1078 1.384 . S
C1076 H1067 0.929 . S
C1076 C1068 1.378 . S
C1076 C1071 1.350 . S
C1077 H1064 0.929 . S
C1077 C1069 1.433 . S
C1077 N1079 1.384 . S
N1078 C1074 1.427 . S
N1078 C1075 1.384 . S
N1079 C1071 1.427 . S
N1079 C1077 1.384 . S
H1080 C1086 0.930 . S
H1081 C1090 0.930 . S
H1082 C1095 0.929 . S
H1083 C1093 0.929 . S
H1084 C1088 0.929 . S
H1085 C1094 0.929 . S
C1086 H1080 0.930 . S
C1086 C1087 1.367 . S
C1086 C1094 1.378 . S
C1087 C1086 1.367 . S
C1087 C1095 1.433 . S
C1088 H1084 0.929 . S
C1088 C1090 1.378 . S
C1088 C1092 1.350 . S
C1089 C1092 1.463 . S
C1089 C1094 1.350 . S
C1089 N1097 1.427 . S
C1090 H1081 0.930 . S
C1090 C1088 1.378 . S
C1090 C1091 1.367 . S
C1091 C1090 1.367 . S
C1091 C1093 1.433 . S
C1092 C1088 1.350 . S
C1092 C1089 1.463 . S
C1092 N1096 1.427 . S
C1093 H1083 0.929 . S
C1093 C1091 1.433 . S
C1093 N1096 1.384 . S
C1094 H1085 0.929 . S
C1094 C1086 1.378 . S
C1094 C1089 1.350 . S
C1095 H1082 0.929 . S
C1095 C1087 1.433 . S
C1095 N1097 1.384 . S
N1096 C1092 1.427 . S
N1096 C1093 1.384 . S
N1097 C1089 1.427 . S
N1097 C1095 1.384 . S
H1098 C1104 0.930 . S
H1099 C1108 0.930 . S
H1100 C1113 0.929 . S
H1101 C1111 0.929 1_556 S
H1102 C1106 0.929 . S
H1103 C1112 0.946 . S
C1104 H1098 0.930 . S
C1104 C1105 1.367 . S
C1104 C1112 1.378 . S
C1105 C1104 1.367 . S
C1105 C1113 1.433 . S
C1106 H1102 0.929 . S
C1106 C1108 1.378 . S
C1106 C1110 1.350 . S
C1107 C1110 1.463 . S
C1107 C1112 1.350 . S
C1107 N1115 1.427 . S
C1108 H1099 0.930 . S
C1108 C1106 1.378 . S
C1108 C1109 1.367 . S
C1109 C1108 1.367 . S
C1109 C1111 1.433 . S
C1110 C1106 1.350 . S
C1110 C1107 1.463 . S
C1110 N1114 1.427 . S
C1111 H1101 0.929 1_554 S
C1111 C1109 1.433 . S
C1111 N1114 1.384 . S
C1112 H1103 0.946 . S
C1112 C1104 1.378 . S
C1112 C1107 1.350 . S
C1113 H1100 0.929 . S
C1113 C1105 1.433 . S
C1113 N1115 1.384 . S
N1114 C1110 1.427 . S
N1114 C1111 1.384 . S
N1115 C1107 1.427 . S
N1115 C1113 1.384 . S
H1116 C1122 0.930 . S
H1117 C1126 0.942 . S
H1118 C1131 0.929 . S
H1119 C1129 0.929 . S
H1120 C1124 0.929 . S
H1121 C1130 0.929 . S
C1122 H1116 0.930 . S
C1122 C1123 1.367 . S
C1122 C1130 1.378 . S
C1123 C1122 1.367 . S
C1123 C1131 1.433 . S
C1124 H1120 0.929 . S
C1124 C1126 1.378 . S
C1124 C1128 1.350 . S
C1125 C1128 1.463 . S
C1125 C1130 1.350 . S
C1125 N1133 1.427 . S
C1126 H1117 0.942 . S
C1126 C1124 1.378 . S
C1126 C1127 1.367 . S
C1127 C1126 1.367 . S
C1127 C1129 1.433 . S
C1128 C1124 1.350 . S
C1128 C1125 1.463 . S
C1128 N1132 1.427 . S
C1129 H1119 0.929 . S
C1129 C1127 1.433 . S
C1129 N1132 1.384 . S
C1130 H1121 0.929 . S
C1130 C1122 1.378 . S
C1130 C1125 1.350 . S
C1131 H1118 0.929 . S
C1131 C1123 1.433 . S
C1131 N1133 1.384 . S
N1132 C1128 1.427 . S
N1132 C1129 1.384 . S
N1133 C1125 1.427 . S
N1133 C1131 1.384 . S
H1134 C1140 0.930 . S
H1135 C1144 0.991 . S
H1136 C1149 0.929 . S
H1137 C1147 0.929 . S
H1138 C1142 0.929 . S
H1139 C1148 0.929 . S
C1140 H1134 0.930 . S
C1140 C1141 1.367 . S
C1140 C1148 1.378 . S
C1141 C1140 1.367 . S
C1141 C1149 1.433 . S
C1142 H1138 0.929 . S
C1142 C1144 1.378 . S
C1142 C1146 1.350 . S
C1143 C1146 1.463 . S
C1143 C1148 1.350 . S
C1143 N1151 1.427 . S
C1144 H1135 0.991 . S
C1144 C1142 1.378 . S
C1144 C1145 1.367 . S
C1145 C1144 1.367 . S
C1145 C1147 1.433 . S
C1146 C1142 1.350 . S
C1146 C1143 1.463 . S
C1146 N1150 1.427 . S
C1147 H1137 0.929 . S
C1147 C1145 1.433 . S
C1147 N1150 1.384 . S
C1148 H1139 0.929 . S
C1148 C1140 1.378 . S
C1148 C1143 1.350 . S
C1149 H1136 0.929 . S
C1149 C1141 1.433 . S
C1149 N1151 1.384 . S
N1150 C1146 1.427 . S
N1150 C1147 1.384 . S
N1151 C1143 1.427 . S
N1151 C1149 1.384 . S
H1152 C1158 0.930 . S
H1153 C1162 0.930 . S
H1154 C1167 0.929 . S
H1155 C1165 0.929 . S
H1156 C1160 0.929 1_554 S
H1157 C1166 0.929 . S
C1158 H1152 0.930 . S
C1158 C1159 1.367 . S
C1158 C1166 1.378 . S
C1159 C1158 1.367 . S
C1159 C1167 1.433 . S
C1160 H1156 0.929 1_556 S
C1160 C1162 1.378 1_556 S
C1160 C1164 1.350 . S
C1161 C1164 1.463 . S
C1161 C1166 1.350 . S
C1161 N1169 1.427 . S
C1162 H1153 0.930 . S
C1162 C1160 1.378 1_554 S
C1162 C1163 1.367 1_554 S
C1163 C1162 1.367 1_556 S
C1163 C1165 1.433 . S
C1164 C1160 1.350 . S
C1164 C1161 1.463 . S
C1164 N1168 1.427 . S
C1165 H1155 0.929 . S
C1165 C1163 1.433 . S
C1165 N1168 1.384 . S
C1166 H1157 0.929 . S
C1166 C1158 1.378 . S
C1166 C1161 1.350 . S
C1167 H1154 0.929 . S
C1167 C1159 1.433 . S
C1167 N1169 1.384 . S
N1168 C1164 1.427 . S
N1168 C1165 1.384 . S
N1169 C1161 1.427 . S
N1169 C1167 1.384 . S
H1170 C1176 0.930 . S
H1171 C1180 0.930 . S
H1172 C1185 0.929 . S
H1173 C1183 0.940 . S
H1174 C1178 0.929 . S
H1175 C1184 0.929 . S
C1176 H1170 0.930 . S
C1176 C1177 1.367 . S
C1176 C1184 1.378 . S
C1177 C1176 1.367 . S
C1177 C1185 1.433 . S
C1178 H1174 0.929 . S
C1178 C1180 1.378 . S
C1178 C1182 1.350 . S
C1179 C1182 1.463 . S
C1179 C1184 1.350 . S
C1179 N1187 1.427 . S
C1180 H1171 0.930 . S
C1180 C1178 1.378 . S
C1180 C1181 1.367 . S
C1181 C1180 1.367 . S
C1181 C1183 1.433 . S
C1182 C1178 1.350 . S
C1182 C1179 1.463 . S
C1182 N1186 1.427 . S
C1183 H1173 0.940 . S
C1183 C1181 1.433 . S
C1183 N1186 1.384 . S
C1184 H1175 0.929 . S
C1184 C1176 1.378 . S
C1184 C1179 1.350 . S
C1185 H1172 0.929 . S
C1185 C1177 1.433 . S
C1185 N1187 1.384 . S
N1186 C1182 1.427 . S
N1186 C1183 1.384 . S
N1187 C1179 1.427 . S
N1187 C1185 1.384 . S
H1188 C1194 0.930 . S
H1189 C1198 0.930 . S
H1190 C1203 0.929 . S
H1191 C1201 0.929 1_554 S
H1192 C1196 0.929 . S
H1193 C1202 0.929 . S
C1194 H1188 0.930 . S
C1194 C1195 1.367 . S
C1194 C1202 1.378 . S
C1195 C1194 1.367 . S
C1195 C1203 1.433 . S
C1196 H1192 0.929 . S
C1196 C1198 1.378 . S
C1196 C1200 1.350 . S
C1197 C1200 1.463 . S
C1197 C1202 1.350 . S
C1197 N1205 1.427 . S
C1198 H1189 0.930 . S
C1198 C1196 1.378 . S
C1198 C1199 1.367 . S
C1199 C1198 1.367 . S
C1199 C1201 1.433 . S
C1200 C1196 1.350 . S
C1200 C1197 1.463 . S
C1200 N1204 1.427 . S
C1201 H1191 0.929 1_556 S
C1201 C1199 1.433 . S
C1201 N1204 1.384 . S
C1202 H1193 0.929 . S
C1202 C1194 1.378 . S
C1202 C1197 1.350 . S
C1203 H1190 0.929 . S
C1203 C1195 1.433 . S
C1203 N1205 1.384 . S
N1204 C1200 1.427 . S
N1204 C1201 1.384 . S
N1205 C1197 1.427 . S
N1205 C1203 1.384 . S
H1206 C1212 0.930 . S
H1207 C1216 0.930 . S
H1208 C1221 0.929 . S
H1209 C1219 0.929 . S
H1210 C1214 0.929 . S
H1211 C1220 0.929 . S
C1212 H1206 0.930 . S
C1212 C1213 1.367 . S
C1212 C1220 1.378 . S
C1213 C1212 1.367 . S
C1213 C1221 1.433 . S
C1214 H1210 0.929 . S
C1214 C1216 1.378 . S
C1214 C1218 1.350 . S
C1215 C1218 1.463 . S
C1215 C1220 1.350 . S
C1215 N1223 1.427 . S
C1216 H1207 0.930 . S
C1216 C1214 1.378 . S
C1216 C1217 1.367 . S
C1217 C1216 1.367 . S
C1217 C1219 1.433 . S
C1218 C1214 1.350 . S
C1218 C1215 1.463 . S
C1218 N1222 1.427 . S
C1219 H1209 0.929 . S
C1219 C1217 1.433 . S
C1219 N1222 1.384 . S
C1220 H1211 0.929 . S
C1220 C1212 1.378 . S
C1220 C1215 1.350 . S
C1221 H1208 0.929 . S
C1221 C1213 1.433 . S
C1221 N1223 1.384 . S
N1222 C1218 1.427 . S
N1222 C1219 1.384 . S
N1223 C1215 1.427 . S
N1223 C1221 1.384 . S
H1224 C1230 0.930 . S
H1225 C1234 0.930 . S
H1226 C1239 0.929 . S
H1227 C1237 0.929 1_556 S
H1228 C1232 0.929 . S
H1229 C1238 0.929 . S
C1230 H1224 0.930 . S
C1230 C1231 1.367 . S
C1230 C1238 1.378 . S
C1231 C1230 1.367 . S
C1231 C1239 1.433 . S
C1232 H1228 0.929 . S
C1232 C1234 1.378 . S
C1232 C1236 1.350 . S
C1233 C1236 1.463 . S
C1233 C1238 1.350 . S
C1233 N1241 1.427 . S
C1234 H1225 0.930 . S
C1234 C1232 1.378 . S
C1234 C1235 1.367 . S
C1235 C1234 1.367 . S
C1235 C1237 1.433 . S
C1236 C1232 1.350 . S
C1236 C1233 1.463 . S
C1236 N1240 1.427 . S
C1237 H1227 0.929 1_554 S
C1237 C1235 1.433 . S
C1237 N1240 1.384 . S
C1238 H1229 0.929 . S
C1238 C1230 1.378 . S
C1238 C1233 1.350 . S
C1239 H1226 0.929 . S
C1239 C1231 1.433 . S
C1239 N1241 1.384 . S
N1240 C1236 1.427 . S
N1240 C1237 1.384 . S
N1241 C1233 1.427 . S
N1241 C1239 1.384 . S
H1242 C1248 0.930 . S
H1243 C1252 0.930 . S
H1244 C1257 0.929 . S
H1245 C1255 0.993 . S
H1246 C1250 0.929 . S
H1247 C1256 0.929 . S
C1248 H1242 0.930 . S
C1248 C1249 1.367 . S
C1248 C1256 1.378 . S
C1249 C1248 1.367 . S
C1249 C1257 1.433 . S
C1250 H1246 0.929 . S
C1250 C1252 1.378 . S
C1250 C1254 1.350 . S
C1251 C1254 1.463 . S
C1251 C1256 1.350 . S
C1251 N1259 1.427 . S
C1252 H1243 0.930 . S
C1252 C1250 1.378 . S
C1252 C1253 1.367 . S
C1253 C1252 1.367 . S
C1253 C1255 1.433 . S
C1254 C1250 1.350 . S
C1254 C1251 1.463 . S
C1254 N1258 1.427 . S
C1255 H1245 0.993 . S
C1255 C1253 1.433 . S
C1255 N1258 1.384 . S
C1256 H1247 0.929 . S
C1256 C1248 1.378 . S
C1256 C1251 1.350 . S
C1257 H1244 0.929 . S
C1257 C1249 1.433 . S
C1257 N1259 1.384 . S
N1258 C1254 1.427 . S
N1258 C1255 1.384 . S
N1259 C1251 1.427 . S
N1259 C1257 1.384 . S
H1260 C1266 0.930 . S
H1261 C1270 0.915 1_556 S
H1262 C1275 0.929 . S
H1263 C1273 0.929 . S
H1264 C1268 0.929 1_556 S
H1265 C1274 0.929 . S
C1266 H1260 0.930 . S
C1266 C1267 1.367 . S
C1266 C1274 1.378 . S
C1267 C1266 1.367 . S
C1267 C1275 1.433 . S
C1268 H1264 0.929 1_554 S
C1268 C1270 1.382 . S
C1268 C1272 1.350 . S
C1269 C1272 1.463 . S
C1269 C1274 1.350 . S
C1269 N1277 1.427 . S
C1270 H1261 0.915 1_554 S
C1270 C1268 1.382 . S
C1270 C1271 1.379 . S
C1271 C1270 1.379 . S
C1271 C1273 1.433 . S
C1272 C1268 1.350 . S
C1272 C1269 1.463 . S
C1272 N1276 1.427 . S
C1273 H1263 0.929 . S
C1273 C1271 1.433 . S
C1273 N1276 1.384 . S
C1274 H1265 0.929 . S
C1274 C1266 1.378 . S
C1274 C1269 1.350 . S
C1275 H1262 0.929 . S
C1275 C1267 1.433 . S
C1275 N1277 1.384 . S
N1276 C1272 1.427 . S
N1276 C1273 1.384 . S
N1277 C1269 1.427 . S
N1277 C1275 1.384 . S
H1278 C1284 0.930 . S
H1279 C1288 0.930 . S
H1280 C1293 0.929 . S
H1281 C1291 0.929 . S
H1282 C1286 0.929 . S
H1283 C1292 0.929 . S
C1284 H1278 0.930 . S
C1284 C1285 1.367 . S
C1284 C1292 1.378 1_655 S
C1285 C1284 1.367 . S
C1285 C1293 1.433 . S
C1286 H1282 0.929 . S
C1286 C1288 1.378 . S
C1286 C1290 1.350 . S
C1287 C1290 1.463 . S
C1287 C1292 1.350 . S
C1287 N1295 1.427 . S
C1288 H1279 0.930 . S
C1288 C1286 1.378 . S
C1288 C1289 1.367 . S
C1289 C1288 1.367 . S
C1289 C1291 1.433 . S
C1290 C1286 1.350 . S
C1290 C1287 1.463 . S
C1290 N1294 1.427 . S
C1291 H1281 0.929 . S
C1291 C1289 1.433 . S
C1291 N1294 1.384 . S
C1292 H1283 0.929 . S
C1292 C1284 1.378 1_455 S
C1292 C1287 1.350 . S
C1293 H1280 0.929 . S
C1293 C1285 1.433 . S
C1293 N1295 1.384 1_655 S
N1294 C1290 1.427 . S
N1294 C1291 1.384 . S
N1295 C1287 1.427 . S
N1295 C1293 1.384 1_455 S
H1296 C1302 0.930 . S
H1297 C1306 0.930 . S
H1298 C1311 0.929 . S
H1299 C1309 0.929 . S
H1300 C1304 0.929 . S
H1301 C1310 0.929 . S
C1302 H1296 0.930 . S
C1302 C1303 1.367 . S
C1302 C1310 1.378 . S
C1303 C1302 1.367 . S
C1303 C1311 1.433 . S
C1304 H1300 0.929 . S
C1304 C1306 1.378 . S
C1304 C1308 1.350 . S
C1305 C1308 1.463 . S
C1305 C1310 1.350 . S
C1305 N1313 1.427 . S
C1306 H1297 0.930 . S
C1306 C1304 1.378 . S
C1306 C1307 1.367 . S
C1307 C1306 1.367 . S
C1307 C1309 1.433 . S
C1308 C1304 1.350 . S
C1308 C1305 1.463 . S
C1308 N1312 1.427 . S
C1309 H1299 0.929 . S
C1309 C1307 1.433 . S
C1309 N1312 1.384 . S
C1310 H1301 0.929 . S
C1310 C1302 1.378 . S
C1310 C1305 1.350 . S
C1311 H1298 0.929 . S
C1311 C1303 1.433 . S
C1311 N1313 1.384 . S
N1312 C1308 1.427 . S
N1312 C1309 1.384 . S
N1313 C1305 1.427 . S
N1313 C1311 1.384 . S
H1314 C1320 0.930 . S
H1315 C1324 0.930 . S
H1316 C1329 0.929 . S
H1317 C1327 0.929 . S
H1318 C1322 0.929 . S
H1319 C1328 0.929 1_565 S
C1320 H1314 0.930 . S
C1320 C1321 1.367 . S
C1320 C1328 1.378 . S
C1321 C1320 1.367 . S
C1321 C1329 1.433 . S
C1322 H1318 0.929 . S
C1322 C1324 1.378 . S
C1322 C1326 1.350 . S
C1323 C1326 1.463 . S
C1323 C1328 1.350 1_565 S
C1323 N1331 1.422 1_565 S
C1324 H1315 0.930 . S
C1324 C1322 1.378 . S
C1324 C1325 1.367 . S
C1325 C1324 1.367 . S
C1325 C1327 1.433 . S
C1326 C1322 1.350 . S
C1326 C1323 1.463 . S
C1326 N1330 1.427 . S
C1327 H1317 0.929 . S
C1327 C1325 1.433 . S
C1327 N1330 1.384 . S
C1328 H1319 0.929 1_545 S
C1328 C1320 1.378 . S
C1328 C1323 1.350 1_545 S
C1329 H1316 0.929 . S
C1329 C1321 1.433 . S
C1329 N1331 1.391 . S
N1330 C1326 1.427 . S
N1330 C1327 1.384 . S
N1331 C1323 1.422 1_545 S
N1331 C1329 1.391 . S
H1332 C1338 0.930 . S
H1333 C1342 0.930 . S
H1334 C1347 0.929 . S
H1335 C1345 0.929 . S
H1336 C1340 0.929 . S
H1337 C1346 0.929 . S
C1338 H1332 0.930 . S
C1338 C1339 1.367 . S
C1338 C1346 1.378 . S
C1339 C1338 1.367 . S
C1339 C1347 1.433 . S
C1340 H1336 0.929 . S
C1340 C1342 1.378 . S
C1340 C1344 1.350 . S
C1341 C1344 1.463 . S
C1341 C1346 1.350 . S
C1341 N1349 1.427 . S
C1342 H1333 0.930 . S
C1342 C1340 1.378 . S
C1342 C1343 1.367 . S
C1343 C1342 1.367 . S
C1343 C1345 1.433 . S
C1344 C1340 1.350 . S
C1344 C1341 1.463 . S
C1344 N1348 1.427 . S
C1345 H1335 0.929 . S
C1345 C1343 1.433 . S
C1345 N1348 1.384 . S
C1346 H1337 0.929 . S
C1346 C1338 1.378 . S
C1346 C1341 1.350 . S
C1347 H1334 0.929 . S
C1347 C1339 1.433 . S
C1347 N1349 1.384 . S
N1348 C1344 1.427 . S
N1348 C1345 1.384 . S
N1349 C1341 1.427 . S
N1349 C1347 1.384 . S
H1350 C1356 0.930 . S
H1351 C1360 0.930 . S
H1352 C1365 0.929 . S
H1353 C1363 0.929 . S
H1354 C1358 0.929 . S
H1355 C1364 0.929 . S
C1356 H1350 0.930 . S
C1356 C1357 1.367 . S
C1356 C1364 1.378 . S
C1357 C1356 1.367 . S
C1357 C1365 1.433 . S
C1358 H1354 0.929 . S
C1358 C1360 1.378 . S
C1358 C1362 1.350 . S
C1359 C1362 1.463 . S
C1359 C1364 1.350 . S
C1359 N1367 1.427 . S
C1360 H1351 0.930 . S
C1360 C1358 1.378 . S
C1360 C1361 1.367 . S
C1361 C1360 1.367 . S
C1361 C1363 1.433 . S
C1362 C1358 1.350 . S
C1362 C1359 1.463 . S
C1362 N1366 1.427 . S
C1363 H1353 0.929 . S
C1363 C1361 1.433 . S
C1363 N1366 1.384 . S
C1364 H1355 0.929 . S
C1364 C1356 1.378 . S
C1364 C1359 1.350 . S
C1365 H1352 0.929 . S
C1365 C1357 1.433 . S
C1365 N1367 1.384 . S
N1366 C1362 1.427 . S
N1366 C1363 1.384 . S
N1367 C1359 1.427 . S
N1367 C1365 1.384 . S
H1368 C1374 0.930 . S
H1369 C1378 0.930 . S
H1370 C1383 0.929 . S
H1371 C1381 0.929 . S
H1372 C1376 0.929 . S
H1373 C1382 0.929 . S
C1374 H1368 0.930 . S
C1374 C1375 1.367 . S
C1374 C1382 1.378 . S
C1375 C1374 1.367 . S
C1375 C1383 1.433 . S
C1376 H1372 0.929 . S
C1376 C1378 1.378 . S
C1376 C1380 1.350 . S
C1377 C1380 1.463 . S
C1377 C1382 1.350 . S
C1377 N1385 1.427 . S
C1378 H1369 0.930 . S
C1378 C1376 1.378 . S
C1378 C1379 1.367 . S
C1379 C1378 1.367 . S
C1379 C1381 1.433 . S
C1380 C1376 1.350 . S
C1380 C1377 1.463 . S
C1380 N1384 1.427 . S
C1381 H1371 0.929 . S
C1381 C1379 1.433 . S
C1381 N1384 1.384 . S
C1382 H1373 0.929 . S
C1382 C1374 1.378 . S
C1382 C1377 1.350 . S
C1383 H1370 0.929 . S
C1383 C1375 1.433 . S
C1383 N1385 1.384 . S
N1384 C1380 1.427 . S
N1384 C1381 1.384 . S
N1385 C1377 1.427 . S
N1385 C1383 1.384 . S
H1386 C1392 0.930 . S
H1387 C1396 0.930 . S
H1388 C1401 0.929 . S
H1389 C1399 0.929 . S
H1390 C1394 0.929 . S
H1391 C1400 0.929 . S
C1392 H1386 0.930 . S
C1392 C1393 1.367 . S
C1392 C1400 1.378 . S
C1393 C1392 1.367 . S
C1393 C1401 1.433 . S
C1394 H1390 0.929 . S
C1394 C1396 1.378 . S
C1394 C1398 1.350 . S
C1395 C1398 1.463 . S
C1395 C1400 1.350 . S
C1395 N1403 1.427 . S
C1396 H1387 0.930 . S
C1396 C1394 1.378 . S
C1396 C1397 1.367 . S
C1397 C1396 1.367 . S
C1397 C1399 1.433 . S
C1398 C1394 1.350 . S
C1398 C1395 1.463 . S
C1398 N1402 1.427 . S
C1399 H1389 0.929 . S
C1399 C1397 1.433 . S
C1399 N1402 1.384 . S
C1400 H1391 0.929 . S
C1400 C1392 1.378 . S
C1400 C1395 1.350 . S
C1401 H1388 0.929 . S
C1401 C1393 1.433 . S
C1401 N1403 1.384 . S
N1402 C1398 1.427 . S
N1402 C1399 1.384 . S
N1403 C1395 1.427 . S
N1403 C1401 1.384 . S
H1404 C1410 0.930 . S
H1405 C1414 0.930 . S
H1406 C1419 0.929 . S
H1407 C1417 0.929 . S
H1408 C1412 0.929 . S
H1409 C1418 0.929 . S
C1410 H1404 0.930 . S
C1410 C1411 1.367 . S
C1410 C1418 1.378 . S
C1411 C1410 1.367 . S
C1411 C1419 1.433 . S
C1412 H1408 0.929 . S
C1412 C1414 1.378 . S
C1412 C1416 1.350 . S
C1413 C1416 1.463 . S
C1413 C1418 1.350 . S
C1413 N1421 1.427 . S
C1414 H1405 0.930 . S
C1414 C1412 1.378 . S
C1414 C1415 1.367 . S
C1415 C1414 1.367 . S
C1415 C1417 1.433 . S
C1416 C1412 1.350 . S
C1416 C1413 1.463 . S
C1416 N1420 1.427 . S
C1417 H1407 0.929 . S
C1417 C1415 1.433 . S
C1417 N1420 1.384 . S
C1418 H1409 0.929 . S
C1418 C1410 1.378 . S
C1418 C1413 1.350 . S
C1419 H1406 0.929 . S
C1419 C1411 1.433 . S
C1419 N1421 1.384 . S
N1420 C1416 1.427 . S
N1420 C1417 1.384 . S
N1421 C1413 1.427 . S
N1421 C1419 1.384 . S
H1422 C1428 0.930 . S
H1423 C1432 0.930 . S
H1424 C1437 0.929 . S
H1425 C1435 0.929 . S
H1426 C1430 0.929 . S
H1427 C1436 0.929 . S
C1428 H1422 0.930 . S
C1428 C1429 1.367 . S
C1428 C1436 1.378 . S
C1429 C1428 1.367 . S
C1429 C1437 1.433 . S
C1430 H1426 0.929 . S
C1430 C1432 1.378 . S
C1430 C1434 1.350 . S
C1431 C1434 1.463 . S
C1431 C1436 1.350 . S
C1431 N1439 1.427 . S
C1432 H1423 0.930 . S
C1432 C1430 1.378 . S
C1432 C1433 1.367 . S
C1433 C1432 1.367 . S
C1433 C1435 1.433 . S
C1434 C1430 1.350 . S
C1434 C1431 1.463 . S
C1434 N1438 1.427 . S
C1435 H1425 0.929 . S
C1435 C1433 1.433 . S
C1435 N1438 1.384 . S
C1436 H1427 0.929 . S
C1436 C1428 1.378 . S
C1436 C1431 1.350 . S
C1437 H1424 0.929 . S
C1437 C1429 1.433 . S
C1437 N1439 1.384 . S
N1438 C1434 1.427 . S
N1438 C1435 1.384 . S
N1439 C1431 1.427 . S
N1439 C1437 1.384 . S
H1440 C1446 0.930 . S
H1441 C1450 0.930 . S
H1442 C1455 0.929 . S
H1443 C1453 0.929 . S
H1444 C1448 0.929 . S
H1445 C1454 0.929 . S
C1446 H1440 0.930 . S
C1446 C1447 1.367 . S
C1446 C1454 1.378 1_545 S
C1447 C1446 1.367 . S
C1447 C1455 1.433 . S
C1448 H1444 0.929 . S
C1448 C1450 1.378 . S
C1448 C1452 1.350 . S
C1449 C1452 1.463 . S
C1449 C1454 1.350 . S
C1449 N1457 1.427 . S
C1450 H1441 0.930 . S
C1450 C1448 1.378 . S
C1450 C1451 1.367 . S
C1451 C1450 1.367 . S
C1451 C1453 1.433 . S
C1452 C1448 1.350 . S
C1452 C1449 1.463 . S
C1452 N1456 1.427 . S
C1453 H1443 0.929 . S
C1453 C1451 1.433 . S
C1453 N1456 1.384 . S
C1454 H1445 0.929 . S
C1454 C1446 1.378 1_565 S
C1454 C1449 1.350 . S
C1455 H1442 0.929 . S
C1455 C1447 1.433 . S
C1455 N1457 1.384 1_545 S
N1456 C1452 1.427 . S
N1456 C1453 1.384 . S
N1457 C1449 1.427 . S
N1457 C1455 1.384 1_565 S
H1458 C1464 0.930 . S
H1459 C1468 0.930 . S
H1460 C1473 0.929 . S
H1461 C1471 0.929 . S
H1462 C1466 0.929 . S
H1463 C1472 0.929 . S
C1464 H1458 0.930 . S
C1464 C1465 1.367 . S
C1464 C1472 1.378 1_655 S
C1465 C1464 1.367 . S
C1465 C1473 1.433 1_655 S
C1466 H1462 0.929 . S
C1466 C1468 1.378 . S
C1466 C1470 1.350 . S
C1467 C1470 1.463 . S
C1467 C1472 1.350 . S
C1467 N1475 1.427 . S
C1468 H1459 0.930 . S
C1468 C1466 1.378 . S
C1468 C1469 1.367 . S
C1469 C1468 1.367 . S
C1469 C1471 1.433 . S
C1470 C1466 1.350 . S
C1470 C1467 1.463 . S
C1470 N1474 1.427 . S
C1471 H1461 0.929 . S
C1471 C1469 1.433 . S
C1471 N1474 1.384 . S
C1472 H1463 0.929 . S
C1472 C1464 1.378 1_455 S
C1472 C1467 1.350 . S
C1473 H1460 0.929 . S
C1473 C1465 1.433 1_455 S
C1473 N1475 1.384 . S
N1474 C1470 1.427 . S
N1474 C1471 1.384 . S
N1475 C1467 1.427 . S
N1475 C1473 1.384 . S
H1476 C1482 0.930 . S
H1477 C1486 0.930 . S
H1478 C1491 0.929 . S
H1479 C1489 0.929 . S
H1480 C1484 0.929 . S
H1481 C1490 0.929 . S
C1482 H1476 0.930 . S
C1482 C1483 1.367 . S
C1482 C1490 1.378 . S
C1483 C1482 1.367 . S
C1483 C1491 1.433 . S
C1484 H1480 0.929 . S
C1484 C1486 1.378 . S
C1484 C1488 1.350 . S
C1485 C1488 1.463 . S
C1485 C1490 1.350 . S
C1485 N1493 1.427 . S
C1486 H1477 0.930 . S
C1486 C1484 1.378 . S
C1486 C1487 1.367 . S
C1487 C1486 1.367 . S
C1487 C1489 1.433 . S
C1488 C1484 1.350 . S
C1488 C1485 1.463 . S
C1488 N1492 1.427 . S
C1489 H1479 0.929 . S
C1489 C1487 1.433 . S
C1489 N1492 1.384 . S
C1490 H1481 0.929 . S
C1490 C1482 1.378 . S
C1490 C1485 1.350 . S
C1491 H1478 0.929 . S
C1491 C1483 1.433 . S
C1491 N1493 1.384 . S
N1492 C1488 1.427 . S
N1492 C1489 1.384 . S
N1493 C1485 1.427 . S
N1493 C1491 1.384 . S
H1494 C1500 0.930 . S
H1495 C1504 0.930 . S
H1496 C1509 0.929 . S
H1497 C1507 0.929 . S
H1498 C1502 0.929 . S
H1499 C1508 0.929 . S
C1500 H1494 0.930 . S
C1500 C1501 1.367 . S
C1500 C1508 1.378 . S
C1501 C1500 1.367 . S
C1501 C1509 1.433 . S
C1502 H1498 0.929 . S
C1502 C1504 1.378 . S
C1502 C1506 1.350 . S
C1503 C1506 1.463 . S
C1503 C1508 1.350 . S
C1503 N1511 1.427 . S
C1504 H1495 0.930 . S
C1504 C1502 1.378 . S
C1504 C1505 1.367 . S
C1505 C1504 1.367 . S
C1505 C1507 1.433 . S
C1506 C1502 1.350 . S
C1506 C1503 1.463 . S
C1506 N1510 1.427 . S
C1507 H1497 0.929 . S
C1507 C1505 1.433 . S
C1507 N1510 1.384 . S
C1508 H1499 0.929 . S
C1508 C1500 1.378 . S
C1508 C1503 1.350 . S
C1509 H1496 0.929 . S
C1509 C1501 1.433 . S
C1509 N1511 1.384 . S
N1510 C1506 1.427 . S
N1510 C1507 1.384 . S
N1511 C1503 1.427 . S
N1511 C1509 1.384 . S
H1512 C1518 0.930 . S
H1513 C1522 0.930 . S
H1514 C1527 0.929 . S
H1515 C1525 0.929 . S
H1516 C1520 0.929 . S
H1517 C1526 0.929 . S
C1518 H1512 0.930 . S
C1518 C1519 1.367 . S
C1518 C1526 1.378 . S
C1519 C1518 1.367 . S
C1519 C1527 1.433 . S
C1520 H1516 0.929 . S
C1520 C1522 1.378 . S
C1520 C1524 1.350 . S
C1521 C1524 1.463 . S
C1521 C1526 1.350 . S
C1521 N1529 1.427 . S
C1522 H1513 0.930 . S
C1522 C1520 1.378 . S
C1522 C1523 1.367 . S
C1523 C1522 1.367 . S
C1523 C1525 1.433 . S
C1524 C1520 1.350 . S
C1524 C1521 1.463 . S
C1524 N1528 1.427 . S
C1525 H1515 0.929 . S
C1525 C1523 1.433 . S
C1525 N1528 1.384 . S
C1526 H1517 0.929 . S
C1526 C1518 1.378 . S
C1526 C1521 1.350 . S
C1527 H1514 0.929 . S
C1527 C1519 1.433 . S
C1527 N1529 1.384 . S
N1528 C1524 1.427 . S
N1528 C1525 1.384 . S
N1529 C1521 1.427 . S
N1529 C1527 1.384 . S
H1530 C1536 0.930 . S
H1531 C1540 0.930 . S
H1532 C1545 0.929 . S
H1533 C1543 0.929 . S
H1534 C1538 0.929 . S
H1535 C1544 0.929 . S
C1536 H1530 0.930 . S
C1536 C1537 1.367 . S
C1536 C1544 1.378 . S
C1537 C1536 1.367 . S
C1537 C1545 1.433 . S
C1538 H1534 0.929 . S
C1538 C1540 1.378 . S
C1538 C1542 1.350 . S
C1539 C1542 1.463 . S
C1539 C1544 1.350 . S
C1539 N1547 1.427 . S
C1540 H1531 0.930 . S
C1540 C1538 1.378 . S
C1540 C1541 1.367 . S
C1541 C1540 1.367 . S
C1541 C1543 1.433 . S
C1542 C1538 1.350 . S
C1542 C1539 1.463 . S
C1542 N1546 1.427 . S
C1543 H1533 0.929 . S
C1543 C1541 1.433 . S
C1543 N1546 1.384 . S
C1544 H1535 0.929 . S
C1544 C1536 1.378 . S
C1544 C1539 1.350 . S
C1545 H1532 0.929 . S
C1545 C1537 1.433 . S
C1545 N1547 1.384 . S
N1546 C1542 1.427 . S
N1546 C1543 1.384 . S
N1547 C1539 1.427 . S
N1547 C1545 1.384 . S
H1548 C1554 0.930 . S
H1549 C1558 0.930 . S
H1550 C1563 0.929 . S
H1551 C1561 0.929 . S
H1552 C1556 0.929 . S
H1553 C1562 0.929 . S
C1554 H1548 0.930 . S
C1554 C1555 1.367 . S
C1554 C1562 1.378 1_565 S
C1555 C1554 1.367 . S
C1555 C1563 1.433 . S
C1556 H1552 0.929 . S
C1556 C1558 1.378 . S
C1556 C1560 1.350 . S
C1557 C1560 1.463 . S
C1557 C1562 1.350 . S
C1557 N1565 1.427 . S
C1558 H1549 0.930 . S
C1558 C1556 1.378 . S
C1558 C1559 1.367 . S
C1559 C1558 1.367 . S
C1559 C1561 1.433 . S
C1560 C1556 1.350 . S
C1560 C1557 1.463 . S
C1560 N1564 1.427 . S
C1561 H1551 0.929 . S
C1561 C1559 1.433 . S
C1561 N1564 1.384 . S
C1562 H1553 0.929 . S
C1562 C1554 1.378 1_545 S
C1562 C1557 1.350 . S
C1563 H1550 0.929 . S
C1563 C1555 1.433 . S
C1563 N1565 1.384 1_565 S
N1564 C1560 1.427 . S
N1564 C1561 1.384 . S
N1565 C1557 1.427 . S
N1565 C1563 1.384 1_545 S
H1566 C1572 0.930 . S
H1567 C1576 0.930 . S
H1568 C1581 0.929 . S
H1569 C1579 0.929 . S
H1570 C1574 0.929 . S
H1571 C1580 0.929 . S
C1572 H1566 0.930 . S
C1572 C1573 1.367 . S
C1572 C1580 1.378 1_455 S
C1573 C1572 1.367 . S
C1573 C1581 1.433 1_455 S
C1574 H1570 0.929 . S
C1574 C1576 1.378 . S
C1574 C1578 1.350 . S
C1575 C1578 1.463 . S
C1575 C1580 1.350 . S
C1575 N1583 1.427 . S
C1576 H1567 0.930 . S
C1576 C1574 1.378 . S
C1576 C1577 1.367 . S
C1577 C1576 1.367 . S
C1577 C1579 1.433 . S
C1578 C1574 1.350 . S
C1578 C1575 1.463 . S
C1578 N1582 1.427 . S
C1579 H1569 0.929 . S
C1579 C1577 1.433 . S
C1579 N1582 1.384 . S
C1580 H1571 0.929 . S
C1580 C1572 1.378 1_655 S
C1580 C1575 1.350 . S
C1581 H1568 0.929 . S
C1581 C1573 1.433 1_655 S
C1581 N1583 1.384 . S
N1582 C1578 1.427 . S
N1582 C1579 1.384 . S
N1583 C1575 1.427 . S
N1583 C1581 1.384 . S
H1584 C1590 0.930 . S
H1585 C1594 0.930 . S
H1586 C1599 0.929 . S
H1587 C1597 0.929 . S
H1588 C1592 0.929 . S
H1589 C1598 0.929 . S
C1590 H1584 0.930 . S
C1590 C1591 1.367 . S
C1590 C1598 1.378 . S
C1591 C1590 1.367 . S
C1591 C1599 1.433 . S
C1592 H1588 0.929 . S
C1592 C1594 1.378 . S
C1592 C1596 1.350 . S
C1593 C1596 1.463 . S
C1593 C1598 1.350 . S
C1593 N1601 1.427 . S
C1594 H1585 0.930 . S
C1594 C1592 1.378 . S
C1594 C1595 1.367 . S
C1595 C1594 1.367 . S
C1595 C1597 1.433 . S
C1596 C1592 1.350 . S
C1596 C1593 1.463 . S
C1596 N1600 1.427 . S
C1597 H1587 0.929 . S
C1597 C1595 1.433 . S
C1597 N1600 1.384 . S
C1598 H1589 0.929 . S
C1598 C1590 1.378 . S
C1598 C1593 1.350 . S
C1599 H1586 0.929 . S
C1599 C1591 1.433 . S
C1599 N1601 1.384 . S
N1600 C1596 1.427 . S
N1600 C1597 1.384 . S
N1601 C1593 1.427 . S
N1601 C1599 1.384 . S
H1602 C1608 0.930 . S
H1603 C1612 0.930 . S
H1604 C1617 0.929 . S
H1605 C1615 0.929 . S
H1606 C1610 0.929 . S
H1607 C1616 0.929 . S
C1608 H1602 0.930 . S
C1608 C1609 1.367 . S
C1608 C1616 1.378 1_455 S
C1609 C1608 1.367 . S
C1609 C1617 1.433 . S
C1610 H1606 0.929 . S
C1610 C1612 1.378 . S
C1610 C1614 1.350 . S
C1611 C1614 1.463 . S
C1611 C1616 1.350 . S
C1611 N1619 1.427 . S
C1612 H1603 0.930 . S
C1612 C1610 1.378 . S
C1612 C1613 1.367 . S
C1613 C1612 1.367 . S
C1613 C1615 1.433 . S
C1614 C1610 1.350 . S
C1614 C1611 1.463 . S
C1614 N1618 1.427 . S
C1615 H1605 0.929 . S
C1615 C1613 1.433 . S
C1615 N1618 1.384 . S
C1616 H1607 0.929 . S
C1616 C1608 1.378 1_655 S
C1616 C1611 1.350 . S
C1617 H1604 0.929 . S
C1617 C1609 1.433 . S
C1617 N1619 1.384 1_455 S
N1618 C1614 1.427 . S
N1618 C1615 1.384 . S
N1619 C1611 1.427 . S
N1619 C1617 1.384 1_655 S
H1620 C1626 0.930 . S
H1621 C1630 0.930 . S
H1622 C1635 0.929 . S
H1623 C1633 0.929 . S
H1624 C1628 0.929 . S
H1625 C1634 0.929 . S
C1626 H1620 0.930 . S
C1626 C1627 1.367 . S
C1626 C1634 1.378 . S
C1627 C1626 1.367 . S
C1627 C1635 1.433 . S
C1628 H1624 0.929 . S
C1628 C1630 1.378 . S
C1628 C1632 1.350 . S
C1629 C1632 1.463 . S
C1629 C1634 1.350 . S
C1629 N1637 1.427 . S
C1630 H1621 0.930 . S
C1630 C1628 1.378 . S
C1630 C1631 1.367 . S
C1631 C1630 1.367 . S
C1631 C1633 1.433 . S
C1632 C1628 1.350 . S
C1632 C1629 1.463 . S
C1632 N1636 1.427 . S
C1633 H1623 0.929 . S
C1633 C1631 1.433 . S
C1633 N1636 1.384 . S
C1634 H1625 0.929 . S
C1634 C1626 1.378 . S
C1634 C1629 1.350 . S
C1635 H1622 0.929 . S
C1635 C1627 1.433 . S
C1635 N1637 1.384 . S
N1636 C1632 1.427 . S
N1636 C1633 1.384 . S
N1637 C1629 1.427 . S
N1637 C1635 1.384 . S
H1638 C1644 0.930 . S
H1639 C1648 0.930 . S
H1640 C1653 0.929 . S
H1641 C1651 0.929 . S
H1642 C1646 0.929 . S
H1643 C1652 0.929 1_545 S
C1644 H1638 0.930 . S
C1644 C1645 1.367 . S
C1644 C1652 1.378 . S
C1645 C1644 1.367 . S
C1645 C1653 1.433 . S
C1646 H1642 0.929 . S
C1646 C1648 1.378 . S
C1646 C1650 1.350 . S
C1647 C1650 1.463 . S
C1647 C1652 1.350 1_545 S
C1647 N1655 1.427 . S
C1648 H1639 0.930 . S
C1648 C1646 1.378 . S
C1648 C1649 1.367 . S
C1649 C1648 1.367 . S
C1649 C1651 1.433 . S
C1650 C1646 1.350 . S
C1650 C1647 1.463 . S
C1650 N1654 1.427 . S
C1651 H1641 0.929 . S
C1651 C1649 1.433 . S
C1651 N1654 1.384 . S
C1652 H1643 0.929 1_565 S
C1652 C1644 1.378 . S
C1652 C1647 1.350 1_565 S
C1653 H1640 0.929 . S
C1653 C1645 1.433 . S
C1653 N1655 1.384 1_565 S
N1654 C1650 1.427 . S
N1654 C1651 1.384 . S
N1655 C1647 1.427 . S
N1655 C1653 1.384 1_545 S
H1656 C1662 0.930 . S
H1657 C1666 0.930 . S
H1658 C1671 0.929 . S
H1659 C1669 0.929 . S
H1660 C1664 0.929 . S
H1661 C1670 0.929 . S
C1662 H1656 0.930 . S
C1662 C1663 1.367 . S
C1662 C1670 1.378 . S
C1663 C1662 1.367 . S
C1663 C1671 1.433 . S
C1664 H1660 0.929 . S
C1664 C1666 1.378 . S
C1664 C1668 1.350 . S
C1665 C1668 1.463 . S
C1665 C1670 1.350 . S
C1665 N1673 1.427 . S
C1666 H1657 0.930 . S
C1666 C1664 1.378 . S
C1666 C1667 1.367 . S
C1667 C1666 1.367 . S
C1667 C1669 1.433 . S
C1668 C1664 1.350 . S
C1668 C1665 1.463 . S
C1668 N1672 1.427 . S
C1669 H1659 0.929 . S
C1669 C1667 1.433 . S
C1669 N1672 1.384 . S
C1670 H1661 0.929 . S
C1670 C1662 1.378 . S
C1670 C1665 1.350 . S
C1671 H1658 0.929 . S
C1671 C1663 1.433 . S
C1671 N1673 1.384 . S
N1672 C1668 1.427 . S
N1672 C1669 1.384 . S
N1673 C1665 1.427 . S
N1673 C1671 1.384 . S
H1674 C1680 0.930 . S
H1675 C1684 0.930 . S
H1676 C1689 0.929 . S
H1677 C1687 0.929 . S
H1678 C1682 0.929 . S
H1679 C1688 0.929 . S
C1680 H1674 0.930 . S
C1680 C1681 1.367 . S
C1680 C1688 1.378 . S
C1681 C1680 1.367 . S
C1681 C1689 1.433 . S
C1682 H1678 0.929 . S
C1682 C1684 1.378 . S
C1682 C1686 1.350 . S
C1683 C1686 1.463 . S
C1683 C1688 1.350 . S
C1683 N1691 1.427 . S
C1684 H1675 0.930 . S
C1684 C1682 1.378 . S
C1684 C1685 1.367 . S
C1685 C1684 1.367 . S
C1685 C1687 1.433 . S
C1686 C1682 1.350 . S
C1686 C1683 1.463 . S
C1686 N1690 1.427 . S
C1687 H1677 0.929 . S
C1687 C1685 1.433 . S
C1687 N1690 1.384 . S
C1688 H1679 0.929 . S
C1688 C1680 1.378 . S
C1688 C1683 1.350 . S
C1689 H1676 0.929 . S
C1689 C1681 1.433 . S
C1689 N1691 1.384 . S
N1690 C1686 1.427 . S
N1690 C1687 1.384 . S
N1691 C1683 1.427 . S
N1691 C1689 1.384 . S
H1692 C1698 0.930 . S
H1693 C1702 0.930 . S
H1694 C1707 0.929 . S
H1695 C1705 0.929 . S
H1696 C1700 0.929 . S
H1697 C1706 0.929 . S
C1698 H1692 0.930 . S
C1698 C1699 1.367 . S
C1698 C1706 1.378 . S
C1699 C1698 1.367 . S
C1699 C1707 1.433 . S
C1700 H1696 0.929 . S
C1700 C1702 1.378 . S
C1700 C1704 1.350 . S
C1701 C1704 1.463 . S
C1701 C1706 1.350 . S
C1701 N1709 1.427 . S
C1702 H1693 0.930 . S
C1702 C1700 1.378 . S
C1702 C1703 1.367 . S
C1703 C1702 1.367 . S
C1703 C1705 1.433 . S
C1704 C1700 1.350 . S
C1704 C1701 1.463 . S
C1704 N1708 1.427 . S
C1705 H1695 0.929 . S
C1705 C1703 1.433 . S
C1705 N1708 1.384 . S
C1706 H1697 0.929 . S
C1706 C1698 1.378 . S
C1706 C1701 1.350 . S
C1707 H1694 0.929 . S
C1707 C1699 1.433 . S
C1707 N1709 1.384 . S
N1708 C1704 1.427 . S
N1708 C1705 1.384 . S
N1709 C1701 1.427 . S
N1709 C1707 1.384 . S
H1710 C1716 0.930 . S
H1711 C1720 0.930 . S
H1712 C1725 0.929 . S
H1713 C1723 0.929 . S
H1714 C1718 0.927 1_545 S
H1715 C1724 0.929 . S
C1716 H1710 0.930 . S
C1716 C1717 1.367 . S
C1716 C1724 1.378 . S
C1717 C1716 1.367 . S
C1717 C1725 1.433 . S
C1718 H1714 0.927 1_565 S
C1718 C1720 1.372 1_565 S
C1718 C1722 1.357 . S
C1719 C1722 1.463 . S
C1719 C1724 1.350 . S
C1719 N1727 1.427 . S
C1720 H1711 0.930 . S
C1720 C1718 1.372 1_545 S
C1720 C1721 1.367 1_545 S
C1721 C1720 1.367 1_565 S
C1721 C1723 1.433 . S
C1722 C1718 1.357 . S
C1722 C1719 1.463 . S
C1722 N1726 1.427 . S
C1723 H1713 0.929 . S
C1723 C1721 1.433 . S
C1723 N1726 1.384 . S
C1724 H1715 0.929 . S
C1724 C1716 1.378 . S
C1724 C1719 1.350 . S
C1725 H1712 0.929 . S
C1725 C1717 1.433 . S
C1725 N1727 1.384 . S
N1726 C1722 1.427 . S
N1726 C1723 1.384 . S
N1727 C1719 1.427 . S
N1727 C1725 1.384 . S
H1728 C1734 0.930 . S
H1729 C1738 0.930 . S
H1730 C1743 0.929 . S
H1731 C1741 0.929 . S
H1732 C1736 0.929 . S
H1733 C1742 0.929 . S
C1734 H1728 0.930 . S
C1734 C1735 1.367 . S
C1734 C1742 1.378 . S
C1735 C1734 1.367 . S
C1735 C1743 1.433 1_455 S
C1736 H1732 0.929 . S
C1736 C1738 1.378 . S
C1736 C1740 1.350 1_655 S
C1737 C1740 1.463 . S
C1737 C1742 1.350 . S
C1737 N1745 1.427 1_455 S
C1738 H1729 0.930 . S
C1738 C1736 1.378 . S
C1738 C1739 1.367 1_655 S
C1739 C1738 1.367 1_455 S
C1739 C1741 1.433 . S
C1740 C1736 1.350 1_455 S
C1740 C1737 1.463 . S
C1740 N1744 1.427 . S
C1741 H1731 0.929 . S
C1741 C1739 1.433 . S
C1741 N1744 1.384 . S
C1742 H1733 0.929 . S
C1742 C1734 1.378 . S
C1742 C1737 1.350 . S
C1743 H1730 0.929 . S
C1743 C1735 1.433 1_655 S
C1743 N1745 1.384 . S
N1744 C1740 1.427 . S
N1744 C1741 1.384 . S
N1745 C1737 1.427 1_655 S
N1745 C1743 1.384 . S
H1746 C1752 0.930 . S
H1747 C1756 0.930 . S
H1748 C1761 0.929 . S
H1749 C1759 0.929 . S
H1750 C1754 0.929 . S
H1751 C1760 0.929 . S
C1752 H1746 0.930 . S
C1752 C1753 1.367 . S
C1752 C1760 1.378 . S
C1753 C1752 1.367 . S
C1753 C1761 1.433 . S
C1754 H1750 0.929 . S
C1754 C1756 1.378 . S
C1754 C1758 1.350 . S
C1755 C1758 1.463 . S
C1755 C1760 1.350 . S
C1755 N1763 1.427 . S
C1756 H1747 0.930 . S
C1756 C1754 1.378 . S
C1756 C1757 1.367 . S
C1757 C1756 1.367 . S
C1757 C1759 1.433 . S
C1758 C1754 1.350 . S
C1758 C1755 1.463 . S
C1758 N1762 1.427 . S
C1759 H1749 0.929 . S
C1759 C1757 1.433 . S
C1759 N1762 1.384 . S
C1760 H1751 0.929 . S
C1760 C1752 1.378 . S
C1760 C1755 1.350 . S
C1761 H1748 0.929 . S
C1761 C1753 1.433 . S
C1761 N1763 1.384 . S
N1762 C1758 1.427 . S
N1762 C1759 1.384 . S
N1763 C1755 1.427 . S
N1763 C1761 1.384 . S
H1764 C1770 0.930 . S
H1765 C1774 0.930 . S
H1766 C1779 0.929 . S
H1767 C1777 0.929 . S
H1768 C1772 0.929 . S
H1769 C1778 0.929 . S
C1770 H1764 0.930 . S
C1770 C1771 1.367 . S
C1770 C1778 1.378 . S
C1771 C1770 1.367 . S
C1771 C1779 1.433 . S
C1772 H1768 0.929 . S
C1772 C1774 1.378 . S
C1772 C1776 1.350 . S
C1773 C1776 1.463 . S
C1773 C1778 1.350 . S
C1773 N1781 1.427 . S
C1774 H1765 0.930 . S
C1774 C1772 1.378 . S
C1774 C1775 1.367 . S
C1775 C1774 1.367 . S
C1775 C1777 1.433 . S
C1776 C1772 1.350 . S
C1776 C1773 1.463 . S
C1776 N1780 1.427 . S
C1777 H1767 0.929 . S
C1777 C1775 1.433 . S
C1777 N1780 1.384 . S
C1778 H1769 0.929 . S
C1778 C1770 1.378 . S
C1778 C1773 1.350 . S
C1779 H1766 0.929 . S
C1779 C1771 1.433 . S
C1779 N1781 1.384 . S
N1780 C1776 1.427 . S
N1780 C1777 1.384 . S
N1781 C1773 1.427 . S
N1781 C1779 1.384 . S
H1782 C1788 0.930 . S
H1783 C1792 0.930 . S
H1784 C1797 0.929 . S
H1785 C1795 0.929 . S
H1786 C1790 0.929 . S
H1787 C1796 0.929 . S
C1788 H1782 0.930 . S
C1788 C1789 1.367 . S
C1788 C1796 1.378 . S
C1789 C1788 1.367 . S
C1789 C1797 1.433 . S
C1790 H1786 0.929 . S
C1790 C1792 1.378 . S
C1790 C1794 1.350 . S
C1791 C1794 1.463 . S
C1791 C1796 1.350 . S
C1791 N1799 1.427 . S
C1792 H1783 0.930 . S
C1792 C1790 1.378 . S
C1792 C1793 1.367 . S
C1793 C1792 1.367 . S
C1793 C1795 1.433 . S
C1794 C1790 1.350 . S
C1794 C1791 1.463 . S
C1794 N1798 1.427 . S
C1795 H1785 0.929 . S
C1795 C1793 1.433 . S
C1795 N1798 1.384 . S
C1796 H1787 0.929 . S
C1796 C1788 1.378 . S
C1796 C1791 1.350 . S
C1797 H1784 0.929 . S
C1797 C1789 1.433 . S
C1797 N1799 1.384 . S
N1798 C1794 1.427 . S
N1798 C1795 1.384 . S
N1799 C1791 1.427 . S
N1799 C1797 1.384 . S
H1800 C1806 0.930 . S
H1801 C1810 0.930 . S
H1802 C1815 0.929 . S
H1803 C1813 0.929 1_565 S
H1804 C1808 0.929 . S
H1805 C1814 0.929 . S
C1806 H1800 0.930 . S
C1806 C1807 1.367 . S
C1806 C1814 1.378 . S
C1807 C1806 1.367 . S
C1807 C1815 1.433 . S
C1808 H1804 0.929 . S
C1808 C1810 1.378 . S
C1808 C1812 1.350 . S
C1809 C1812 1.463 . S
C1809 C1814 1.350 . S
C1809 N1817 1.427 . S
C1810 H1801 0.930 . S
C1810 C1808 1.378 . S
C1810 C1811 1.367 . S
C1811 C1810 1.367 . S
C1811 C1813 1.433 . S
C1812 C1808 1.350 . S
C1812 C1809 1.463 . S
C1812 N1816 1.427 . S
C1813 H1803 0.929 1_545 S
C1813 C1811 1.433 . S
C1813 N1816 1.384 . S
C1814 H1805 0.929 . S
C1814 C1806 1.378 . S
C1814 C1809 1.350 . S
C1815 H1802 0.929 . S
C1815 C1807 1.433 . S
C1815 N1817 1.384 . S
N1816 C1812 1.427 . S
N1816 C1813 1.384 . S
N1817 C1809 1.427 . S
N1817 C1815 1.384 . S
H1818 C1824 0.930 . S
H1819 C1828 0.930 . S
H1820 C1833 0.929 . S
H1821 C1831 0.929 . S
H1822 C1826 0.929 . S
H1823 C1832 0.929 . S
C1824 H1818 0.930 . S
C1824 C1825 1.367 . S
C1824 C1832 1.378 . S
C1825 C1824 1.367 . S
C1825 C1833 1.433 . S
C1826 H1822 0.929 . S
C1826 C1828 1.378 . S
C1826 C1830 1.350 . S
C1827 C1830 1.463 . S
C1827 C1832 1.350 . S
C1827 N1835 1.427 . S
C1828 H1819 0.930 . S
C1828 C1826 1.378 . S
C1828 C1829 1.367 . S
C1829 C1828 1.367 . S
C1829 C1831 1.433 . S
C1830 C1826 1.350 . S
C1830 C1827 1.463 . S
C1830 N1834 1.427 . S
C1831 H1821 0.929 . S
C1831 C1829 1.433 . S
C1831 N1834 1.384 . S
C1832 H1823 0.929 . S
C1832 C1824 1.378 . S
C1832 C1827 1.350 . S
C1833 H1820 0.929 . S
C1833 C1825 1.433 . S
C1833 N1835 1.384 . S
N1834 C1830 1.427 . S
N1834 C1831 1.384 . S
N1835 C1827 1.427 . S
N1835 C1833 1.384 . S
H1836 C1842 0.930 . S
H1837 C1846 0.930 . S
H1838 C1851 0.929 . S
H1839 C1849 0.929 . S
H1840 C1844 0.929 . S
H1841 C1850 0.929 . S
C1842 H1836 0.930 . S
C1842 C1843 1.367 . S
C1842 C1850 1.378 . S
C1843 C1842 1.367 . S
C1843 C1851 1.433 . S
C1844 H1840 0.929 . S
C1844 C1846 1.378 . S
C1844 C1848 1.350 . S
C1845 C1848 1.463 . S
C1845 C1850 1.350 . S
C1845 N1853 1.427 . S
C1846 H1837 0.930 . S
C1846 C1844 1.378 . S
C1846 C1847 1.367 . S
C1847 C1846 1.367 . S
C1847 C1849 1.433 . S
C1848 C1844 1.350 . S
C1848 C1845 1.463 . S
C1848 N1852 1.427 . S
C1849 H1839 0.929 . S
C1849 C1847 1.433 . S
C1849 N1852 1.384 . S
C1850 H1841 0.929 . S
C1850 C1842 1.378 . S
C1850 C1845 1.350 . S
C1851 H1838 0.929 . S
C1851 C1843 1.433 . S
C1851 N1853 1.384 . S
N1852 C1848 1.427 . S
N1852 C1849 1.384 . S
N1853 C1845 1.427 . S
N1853 C1851 1.384 . S
H1854 C1860 0.930 . S
H1855 C1864 0.930 . S
H1856 C1869 0.929 . S
H1857 C1867 0.929 . S
H1858 C1862 0.929 . S
H1859 C1868 0.929 . S
C1860 H1854 0.930 . S
C1860 C1861 1.367 . S
C1860 C1868 1.378 . S
C1861 C1860 1.367 . S
C1861 C1869 1.433 . S
C1862 H1858 0.929 . S
C1862 C1864 1.378 . S
C1862 C1866 1.350 . S
C1863 C1866 1.463 . S
C1863 C1868 1.350 . S
C1863 N1871 1.427 . S
C1864 H1855 0.930 . S
C1864 C1862 1.378 . S
C1864 C1865 1.367 . S
C1865 C1864 1.367 . S
C1865 C1867 1.433 . S
C1866 C1862 1.350 . S
C1866 C1863 1.463 . S
C1866 N1870 1.427 . S
C1867 H1857 0.929 . S
C1867 C1865 1.433 . S
C1867 N1870 1.384 . S
C1868 H1859 0.929 . S
C1868 C1860 1.378 . S
C1868 C1863 1.350 . S
C1869 H1856 0.929 . S
C1869 C1861 1.433 . S
C1869 N1871 1.384 . S
N1870 C1866 1.427 . S
N1870 C1867 1.384 . S
N1871 C1863 1.427 . S
N1871 C1869 1.384 . S
H1872 C1878 0.930 . S
H1873 C1882 0.930 . S
H1874 C1887 0.929 . S
H1875 C1885 0.929 . S
H1876 C1880 0.929 . S
H1877 C1886 0.929 . S
C1878 H1872 0.930 . S
C1878 C1879 1.367 . S
C1878 C1886 1.378 . S
C1879 C1878 1.367 . S
C1879 C1887 1.433 . S
C1880 H1876 0.929 . S
C1880 C1882 1.378 . S
C1880 C1884 1.350 . S
C1881 C1884 1.463 . S
C1881 C1886 1.350 . S
C1881 N1889 1.427 . S
C1882 H1873 0.930 . S
C1882 C1880 1.378 . S
C1882 C1883 1.367 . S
C1883 C1882 1.367 . S
C1883 C1885 1.433 . S
C1884 C1880 1.350 . S
C1884 C1881 1.463 . S
C1884 N1888 1.427 . S
C1885 H1875 0.929 . S
C1885 C1883 1.433 . S
C1885 N1888 1.384 . S
C1886 H1877 0.929 . S
C1886 C1878 1.378 . S
C1886 C1881 1.350 . S
C1887 H1874 0.929 . S
C1887 C1879 1.433 . S
C1887 N1889 1.384 . S
N1888 C1884 1.427 . S
N1888 C1885 1.384 . S
N1889 C1881 1.427 . S
N1889 C1887 1.384 . S
H1890 C1896 0.930 . S
H1891 C1900 0.930 . S
H1892 C1905 0.929 . S
H1893 C1903 0.929 . S
H1894 C1898 0.929 . S
H1895 C1904 0.929 . S
C1896 H1890 0.930 . S
C1896 C1897 1.367 . S
C1896 C1904 1.378 . S
C1897 C1896 1.367 . S
C1897 C1905 1.433 . S
C1898 H1894 0.929 . S
C1898 C1900 1.378 . S
C1898 C1902 1.350 . S
C1899 C1902 1.463 . S
C1899 C1904 1.350 . S
C1899 N1907 1.427 . S
C1900 H1891 0.930 . S
C1900 C1898 1.378 . S
C1900 C1901 1.367 . S
C1901 C1900 1.367 . S
C1901 C1903 1.433 . S
C1902 C1898 1.350 . S
C1902 C1899 1.463 . S
C1902 N1906 1.427 . S
C1903 H1893 0.929 . S
C1903 C1901 1.433 . S
C1903 N1906 1.384 . S
C1904 H1895 0.929 . S
C1904 C1896 1.378 . S
C1904 C1899 1.350 . S
C1905 H1892 0.929 . S
C1905 C1897 1.433 . S
C1905 N1907 1.384 . S
N1906 C1902 1.427 . S
N1906 C1903 1.384 . S
N1907 C1899 1.427 . S
N1907 C1905 1.384 . S
H1908 C1914 0.930 . S
H1909 C1918 0.930 . S
H1910 C1923 0.929 . S
H1911 C1921 0.929 . S
H1912 C1916 0.929 . S
H1913 C1922 0.929 . S
C1914 H1908 0.930 . S
C1914 C1915 1.367 . S
C1914 C1922 1.378 . S
C1915 C1914 1.367 . S
C1915 C1923 1.433 . S
C1916 H1912 0.929 . S
C1916 C1918 1.378 . S
C1916 C1920 1.350 . S
C1917 C1920 1.463 . S
C1917 C1922 1.350 . S
C1917 N1925 1.427 . S
C1918 H1909 0.930 . S
C1918 C1916 1.378 . S
C1918 C1919 1.367 . S
C1919 C1918 1.367 . S
C1919 C1921 1.433 . S
C1920 C1916 1.350 . S
C1920 C1917 1.463 . S
C1920 N1924 1.427 . S
C1921 H1911 0.929 . S
C1921 C1919 1.433 . S
C1921 N1924 1.384 . S
C1922 H1913 0.929 . S
C1922 C1914 1.378 . S
C1922 C1917 1.350 . S
C1923 H1910 0.929 . S
C1923 C1915 1.433 . S
C1923 N1925 1.384 . S
N1924 C1920 1.427 . S
N1924 C1921 1.384 . S
N1925 C1917 1.427 . S
N1925 C1923 1.384 . S
H1926 C1932 0.930 . S
H1927 C1936 0.930 . S
H1928 C1941 0.929 . S
H1929 C1939 0.929 . S
H1930 C1934 0.929 . S
H1931 C1940 0.929 . S
C1932 H1926 0.930 . S
C1932 C1933 1.367 . S
C1932 C1940 1.378 . S
C1933 C1932 1.367 . S
C1933 C1941 1.433 . S
C1934 H1930 0.929 . S
C1934 C1936 1.378 . S
C1934 C1938 1.350 . S
C1935 C1938 1.463 . S
C1935 C1940 1.350 . S
C1935 N1943 1.427 . S
C1936 H1927 0.930 . S
C1936 C1934 1.378 . S
C1936 C1937 1.367 . S
C1937 C1936 1.367 . S
C1937 C1939 1.433 . S
C1938 C1934 1.350 . S
C1938 C1935 1.463 . S
C1938 N1942 1.427 . S
C1939 H1929 0.929 . S
C1939 C1937 1.433 . S
C1939 N1942 1.384 . S
C1940 H1931 0.929 . S
C1940 C1932 1.378 . S
C1940 C1935 1.350 . S
C1941 H1928 0.929 . S
C1941 C1933 1.433 . S
C1941 N1943 1.384 . S
N1942 C1938 1.427 . S
N1942 C1939 1.384 . S
N1943 C1935 1.427 . S
N1943 C1941 1.384 . S
H1944 C1950 0.930 . S
H1945 C1954 0.930 . S
H1946 C1959 0.929 . S
H1947 C1957 0.929 . S
H1948 C1952 0.929 . S
H1949 C1958 0.929 . S
C1950 H1944 0.930 . S
C1950 C1951 1.367 . S
C1950 C1958 1.378 . S
C1951 C1950 1.367 . S
C1951 C1959 1.433 . S
C1952 H1948 0.929 . S
C1952 C1954 1.378 . S
C1952 C1956 1.350 . S
C1953 C1956 1.463 . S
C1953 C1958 1.350 . S
C1953 N1961 1.427 . S
C1954 H1945 0.930 . S
C1954 C1952 1.378 . S
C1954 C1955 1.367 . S
C1955 C1954 1.367 . S
C1955 C1957 1.433 . S
C1956 C1952 1.350 . S
C1956 C1953 1.463 . S
C1956 N1960 1.427 . S
C1957 H1947 0.929 . S
C1957 C1955 1.433 . S
C1957 N1960 1.384 . S
C1958 H1949 0.929 . S
C1958 C1950 1.378 . S
C1958 C1953 1.350 . S
C1959 H1946 0.929 . S
C1959 C1951 1.433 . S
C1959 N1961 1.384 . S
N1960 C1956 1.427 . S
N1960 C1957 1.384 . S
N1961 C1953 1.427 . S
N1961 C1959 1.384 . S
H1962 C1968 0.930 . S
H1963 C1972 0.930 . S
H1964 C1977 0.929 . S
H1965 C1975 0.929 . S
H1966 C1970 0.929 . S
H1967 C1976 0.929 . S
C1968 H1962 0.930 . S
C1968 C1969 1.367 . S
C1968 C1976 1.378 . S
C1969 C1968 1.367 . S
C1969 C1977 1.433 . S
C1970 H1966 0.929 . S
C1970 C1972 1.378 . S
C1970 C1974 1.350 . S
C1971 C1974 1.463 . S
C1971 C1976 1.350 . S
C1971 N1979 1.427 . S
C1972 H1963 0.930 . S
C1972 C1970 1.378 . S
C1972 C1973 1.367 . S
C1973 C1972 1.367 . S
C1973 C1975 1.433 . S
C1974 C1970 1.350 . S
C1974 C1971 1.463 . S
C1974 N1978 1.427 . S
C1975 H1965 0.929 . S
C1975 C1973 1.433 . S
C1975 N1978 1.384 . S
C1976 H1967 0.929 . S
C1976 C1968 1.378 . S
C1976 C1971 1.350 . S
C1977 H1964 0.929 . S
C1977 C1969 1.433 . S
C1977 N1979 1.384 . S
N1978 C1974 1.427 . S
N1978 C1975 1.384 . S
N1979 C1971 1.427 . S
N1979 C1977 1.384 . S
H1980 C1986 0.930 . S
H1981 C1990 0.930 . S
H1982 C1995 0.929 . S
H1983 C1993 0.929 . S
H1984 C1988 0.929 . S
H1985 C1994 0.929 . S
C1986 H1980 0.930 . S
C1986 C1987 1.367 . S
C1986 C1994 1.378 . S
C1987 C1986 1.367 . S
C1987 C1995 1.433 . S
C1988 H1984 0.929 . S
C1988 C1990 1.378 . S
C1988 C1992 1.350 . S
C1989 C1992 1.463 . S
C1989 C1994 1.350 . S
C1989 N1997 1.427 . S
C1990 H1981 0.930 . S
C1990 C1988 1.378 . S
C1990 C1991 1.367 . S
C1991 C1990 1.367 . S
C1991 C1993 1.433 . S
C1992 C1988 1.350 . S
C1992 C1989 1.463 . S
C1992 N1996 1.427 . S
C1993 H1983 0.929 . S
C1993 C1991 1.433 . S
C1993 N1996 1.384 . S
C1994 H1985 0.929 . S
C1994 C1986 1.378 . S
C1994 C1989 1.350 . S
C1995 H1982 0.929 . S
C1995 C1987 1.433 . S
C1995 N1997 1.384 . S
N1996 C1992 1.427 . S
N1996 C1993 1.384 . S
N1997 C1989 1.427 . S
N1997 C1995 1.384 . S
H1998 C2004 0.930 . S
H1999 C2008 0.930 . S
H2000 C2013 0.929 . S
H2001 C2011 0.929 . S
H2002 C2006 0.929 . S
H2003 C2012 0.929 . S
C2004 H1998 0.930 . S
C2004 C2005 1.367 . S
C2004 C2012 1.378 . S
C2005 C2004 1.367 . S
C2005 C2013 1.433 . S
C2006 H2002 0.929 . S
C2006 C2008 1.378 . S
C2006 C2010 1.350 . S
C2007 C2010 1.463 . S
C2007 C2012 1.350 . S
C2007 N2015 1.427 . S
C2008 H1999 0.930 . S
C2008 C2006 1.378 . S
C2008 C2009 1.367 . S
C2009 C2008 1.367 . S
C2009 C2011 1.433 . S
C2010 C2006 1.350 . S
C2010 C2007 1.463 . S
C2010 N2014 1.427 . S
C2011 H2001 0.929 . S
C2011 C2009 1.433 . S
C2011 N2014 1.384 . S
C2012 H2003 0.929 . S
C2012 C2004 1.378 . S
C2012 C2007 1.350 . S
C2013 H2000 0.929 . S
C2013 C2005 1.433 . S
C2013 N2015 1.384 . S
N2014 C2010 1.427 . S
N2014 C2011 1.384 . S
N2015 C2007 1.427 . S
N2015 C2013 1.384 . S
H2016 C2022 0.930 . S
H2017 C2026 0.930 . S
H2018 C2031 0.929 . S
H2019 C2029 0.929 . S
H2020 C2024 0.929 . S
H2021 C2030 0.929 . S
C2022 H2016 0.930 . S
C2022 C2023 1.367 . S
C2022 C2030 1.378 . S
C2023 C2022 1.367 . S
C2023 C2031 1.433 . S
C2024 H2020 0.929 . S
C2024 C2026 1.378 . S
C2024 C2028 1.350 . S
C2025 C2028 1.463 . S
C2025 C2030 1.350 . S
C2025 N2033 1.427 . S
C2026 H2017 0.930 . S
C2026 C2024 1.378 . S
C2026 C2027 1.367 . S
C2027 C2026 1.367 . S
C2027 C2029 1.433 . S
C2028 C2024 1.350 . S
C2028 C2025 1.463 . S
C2028 N2032 1.427 . S
C2029 H2019 0.929 . S
C2029 C2027 1.433 . S
C2029 N2032 1.384 . S
C2030 H2021 0.929 . S
C2030 C2022 1.378 . S
C2030 C2025 1.350 . S
C2031 H2018 0.929 . S
C2031 C2023 1.433 . S
C2031 N2033 1.384 . S
N2032 C2028 1.427 . S
N2032 C2029 1.384 . S
N2033 C2025 1.427 . S
N2033 C2031 1.384 . S
C1069 C528 1.658 . S
C1073 C711 1.634 . S
C1087 C562 1.798 . S
C1091 C751 1.771 . S
C1105 C484 1.747 . S
C1109 C790 1.754 . S
C1123 C445 1.576 . S
C1127 C750 1.561 . S
C1145 C791 1.468 . S
C1141 C367 1.487 . S
C1159 C411 1.423 . S
C1163 C710 1.438 1_556 S
C1181 C721 1.647 . S
C1177 C450 1.658 . S
C1199 C761 1.761 . S
C1195 C372 1.779 . S
C1213 C406 1.733 . S
C1217 C800 1.750 . S
C1231 C523 1.573 . S
C1235 C760 1.572 . S
C1249 C567 1.466 . S
C1253 C801 1.457 . S
C1271 C720 1.455 . S
C1267 C489 1.425 . S
C1289 C831 1.627 . S
C1285 C60 1.654 . S
C1303 C94 1.799 . S
C1307 C871 1.772 . S
C1321 C16 1.748 . S
C1325 C910 1.752 . S
C1339 C679 1.580 . S
C1343 C870 1.568 . S
C1357 C601 1.495 . S
C1361 C911 1.478 . S
C1375 C645 1.416 . S
C1379 C830 1.437 . S
C1393 C684 1.665 . S
C1397 C841 1.654 . S
C1411 C606 1.780 . S
C1415 C881 1.762 . S
C1433 C920 1.756 . S
C1429 C640 1.742 . S
C1447 C55 1.572 . S
C1451 C880 1.572 . S
C1469 C921 1.459 . S
C1465 C99 1.468 . S
C1483 C21 1.426 . S
C1487 C840 1.464 . S
C1505 C951 1.627 . S
C1501 C294 1.654 . S
C1519 C328 1.798 . S
C1523 C991 1.771 . S
C1541 C1030 1.745 . S
C1537 C250 1.736 . S
C1559 C990 1.562 . S
C1555 C211 1.569 . S
C1577 C1031 1.476 . S
C1573 C133 1.491 . S
C1591 C177 1.424 . S
C1595 C950 1.435 . S
C1609 C216 1.658 . S
C1613 C961 1.647 . S
C1627 C138 1.774 . S
C1631 C1001 1.754 . S
C1649 C1040 1.756 . S
C1645 C172 1.741 . S
C1663 C289 1.572 . S
C1667 C1000 1.572 . S
C1681 C333 1.462 . S
C1685 C1041 1.449 . S
C1699 C255 1.427 . S
C1703 C960 1.465 . S
C1717 C586 1.343 . S
C1721 C707 1.339 . S
C1739 C747 1.854 . S
C1735 C625 1.837 . S
C1753 C664 1.571 . S
C1757 C797 1.585 . S
C1771 C235 1.845 . S
C1775 C757 1.865 . S
C1789 C274 1.564 . S
C1793 C787 1.571 . S
C1811 C717 1.334 . S
C1807 C313 1.341 . S
C1825 C118 1.345 . S
C1829 C827 1.340 . S
C1843 C157 1.837 . S
C1847 C867 1.853 . S
C1861 C196 1.574 . S
C1865 C917 1.585 . S
C1879 C469 1.850 . S
C1883 C877 1.869 . S
C1901 C907 1.570 . S
C1897 C508 1.558 . S
C1915 C547 1.342 . S
C1919 C837 1.334 . S
C1933 C352 1.343 . S
C1937 C947 1.341 . S
C1951 C391 1.837 . S
C1955 C987 1.852 . S
C1973 C1037 1.585 . S
C1969 C430 1.570 . S
C1987 C1 1.843 . S
C1991 C997 1.864 . S
C2005 C40 1.558 . S
C2009 C1027 1.570 . S
C2023 C79 1.341 . S
C2027 C957 1.340 . S
