# Generated by pormake.
# Topology rtl, (3,6)-cn, num edge types: 1
# Building blocks:
#     Node 0, Type 0, BuildingBlock: ESEHIV_clean_linker_0, # of connection points: 3
#     Node 1, Type 0, BuildingBlock: ESEHIV_clean_linker_0, # of connection points: 3
#     Node 2, Type 0, BuildingBlock: ESEHIV_clean_linker_0, # of connection points: 3
#     Node 3, Type 0, BuildingBlock: ESEHIV_clean_linker_0, # of connection points: 3
#     Node 4, Type 1, BuildingBlock: KUMJIN_clean_sbu_1, # of connection points: 6
#     Node 5, Type 1, BuildingBlock: KUMJIN_clean_sbu_1, # of connection points: 6
#     Edge 6, Type (0, 1), BuildingBlock: EZIPEK_clean_linker_0, # of connection points: 2
#     Edge 7, Type (0, 1), BuildingBlock: EZIPEK_clean_linker_0, # of connection points: 2
#     Edge 8, Type (0, 1), BuildingBlock: EZIPEK_clean_linker_0, # of connection points: 2
#     Edge 9, Type (0, 1), BuildingBlock: EZIPEK_clean_linker_0, # of connection points: 2
#     Edge 10, Type (0, 1), BuildingBlock: EZIPEK_clean_linker_0, # of connection points: 2
#     Edge 11, Type (0, 1), BuildingBlock: EZIPEK_clean_linker_0, # of connection points: 2
#     Edge 12, Type (0, 1), BuildingBlock: EZIPEK_clean_linker_0, # of connection points: 2
#     Edge 13, Type (0, 1), BuildingBlock: EZIPEK_clean_linker_0, # of connection points: 2
#     Edge 14, Type (0, 1), BuildingBlock: EZIPEK_clean_linker_0, # of connection points: 2
#     Edge 15, Type (0, 1), BuildingBlock: EZIPEK_clean_linker_0, # of connection points: 2
#     Edge 16, Type (0, 1), BuildingBlock: EZIPEK_clean_linker_0, # of connection points: 2
#     Edge 17, Type (0, 1), BuildingBlock: EZIPEK_clean_linker_0, # of connection points: 2
# Relax obj value: 0.019
# Max RMSD: 0.147
# Mean RMSD: 0.088
data_MOF--net-rtl--node1-KUMJIN_clean_sbu_1--node2-ESEHIV_clean_linker_0--edge1-EZIPEK_clean_linker_0
_symmetry_space_group_name_H-M    P1
_symmetry_Int_Tables_number       1
_symmetry_cell_setting            triclinic
loop_
_symmetry_equiv_pos_as_xyz
'x, y, z'
_cell_length_a     22.186057
_cell_length_b     23.082641
_cell_length_c     21.075898
_cell_angle_alpha  72.433409
_cell_angle_beta   99.196394
_cell_angle_gamma 90.9523
loop_
_atom_site_label
_atom_site_type_symbol
_atom_site_fract_x
_atom_site_fract_y
_atom_site_fract_z
_atom_type_partial_charge
H0 H 0.1208 0.89396 1.00275 0.0
H1 H 0.25028 0.75529 0.1327 0.0
H2 H 0.24873 0.8149 0.9176 0.0
C3 C 0.15898 0.86273 0.00955 0.0
C4 C 0.18123 0.85702 0.95331 0.0
C5 C 0.18498 0.82741 0.07446 0.0
C6 C 0.23206 0.78446 0.08262 0.0
C7 C 0.25579 0.77967 0.02608 0.0
C8 C 0.23128 0.818 0.96174 0.0
H9 H 0.61015 0.63831 0.68669 0.0
H10 H 0.71911 0.76498 0.56382 0.0
H11 H 0.73644 0.74671 0.77592 0.0
C12 C 0.64288 0.6742 0.68145 0.0
C13 C 0.66719 0.69315 0.73751 0.0
C14 C 0.66378 0.69837 0.6199 0.0
C15 C 0.70484 0.74544 0.61254 0.0
C16 C 0.73318 0.76254 0.66845 0.0
C17 C 0.71433 0.73553 0.73162 0.0
H18 H 0.87097 0.09656 0.12971 0.0
H19 H 0.76168 0.19559 0.21577 0.0
H20 H 0.74342 0.23767 1.00022 0.0
C21 C 0.83479 0.1298 0.12341 0.0
C22 C 0.80759 0.16439 0.05829 0.0
C23 C 0.81788 0.14069 0.1803 0.0
C24 C 0.77327 0.18571 0.17194 0.0
C25 C 0.74663 0.22088 0.1072 0.0
C26 C 0.76336 0.20983 0.05036 0.0
H27 H 0.36564 0.43109 0.4514 0.0
H28 H 0.24124 0.31261 0.5625 0.0
H29 H 0.29041 0.28182 0.38575 0.0
C30 C 0.33635 0.39237 0.45787 0.0
C31 C 0.32936 0.36011 0.41033 0.0
C32 C 0.30441 0.37551 0.51285 0.0
C33 C 0.26618 0.32561 0.52033 0.0
C34 C 0.26209 0.29045 0.47602 0.0
C35 C 0.29373 0.30819 0.42084 0.0
Eu36 Eu 0.06241 0.94809 0.54243 0.0
C37 C 0.9126 0.19081 0.45494 0.0
N38 N 0.96508 0.17554 0.50029 0.0
C39 C 0.01047 0.26698 0.44177 0.0
C40 C 0.90829 0.24366 0.39894 0.0
C41 C 0.0128 0.21382 0.49611 0.0
C42 C 0.95835 0.28152 0.39239 0.0
C43 C 0.80849 0.16735 0.41764 0.0
C44 C 0.86337 0.15289 0.46425 0.0
C45 C 0.80466 0.21896 0.36072 0.0
C46 C 0.85442 0.257 0.35141 0.0
Eu47 Eu 0.9682 0.08091 0.58523 0.0
N48 N 0.86895 0.1023 0.51901 0.0
C49 C 0.75884 0.12983 0.42989 0.0
C50 C 0.81925 0.06789 0.53328 0.0
C51 C 0.76393 0.08058 0.48858 0.0
H52 H 0.05286 0.20363 0.53458 0.0
H53 H 0.72514 0.05239 0.49956 0.0
H54 H 0.99153 0.81282 0.58457 0.0
H55 H 0.30168 0.98947 0.62037 0.0
H56 H 0.82127 0.03077 0.57927 0.0
H57 H 0.71597 0.13934 0.39524 0.0
H58 H 0.20183 0.00691 0.54506 0.0
H59 H 0.04889 0.29667 0.438 0.0
H60 H 0.76312 0.23023 0.32401 0.0
H61 H 0.85067 0.29685 0.30754 0.0
H62 H 0.00275 0.71672 0.67754 0.0
H63 H 0.95682 0.32252 0.35008 0.0
H64 H 0.31836 0.90036 0.72302 0.0
N65 N 0.07249 0.84973 0.62324 0.0
C66 C 0.12518 0.83754 0.66853 0.0
C67 C 0.03715 0.75068 0.67626 0.0
C68 C 0.13443 0.78247 0.72179 0.0
C69 C 0.03029 0.80581 0.62424 0.0
C70 C 0.0889 0.73943 0.72609 0.0
N71 N 0.16179 0.93047 0.60637 0.0
C72 C 0.20852 0.96838 0.59009 0.0
C73 C 0.22765 0.8668 0.70381 0.0
C74 C 0.17141 0.87888 0.65955 0.0
C75 C 0.27445 0.90797 0.69026 0.0
C76 C 0.26522 0.95834 0.63239 0.0
H77 H 0.09423 0.69661 0.76625 0.0
H78 H 0.19677 0.72981 0.80955 0.0
H79 H 0.27835 0.80386 0.79418 0.0
O80 O 0.0983 0.96834 0.44764 0.0
O81 O 0.09391 0.97816 0.63457 0.0
O82 O 0.00416 0.99451 0.66712 0.0
O83 O 0.07918 0.87595 0.49933 0.0
O84 O 0.09123 0.04582 0.50316 0.0
O85 O 0.0707 0.09334 0.58047 0.0
O86 O 0.90628 0.11206 0.64058 0.0
O87 O 0.97727 0.0839 0.47964 0.0
O88 O 0.97073 0.98565 0.47834 0.0
O89 O 1.00154 0.13236 0.65478 0.0
O90 O 0.92133 0.99018 0.6067 0.0
O91 O 0.96958 0.91871 0.57167 0.0
C92 C 0.06049 0.97281 0.68157 0.0
C93 C 0.06362 0.90553 0.38083 0.0
C94 C 0.06856 0.88284 0.27617 0.0
C95 C 0.00525 0.89425 0.25709 0.0
C96 C 1.00023 0.91618 0.3614 0.0
C97 C 0.97131 0.91074 0.29968 0.0
C98 C 0.09762 0.88844 0.33828 0.0
C99 C 0.10254 0.08745 0.53433 0.0
C100 C 0.09463 0.91283 0.44483 0.0
C101 C 0.18928 0.77148 0.76792 0.0
C102 C 0.23577 0.8136 0.75904 0.0
C103 C 0.95592 0.04368 0.4502 0.0
C104 C 0.95247 0.10757 0.75095 0.0
C105 C 0.91916 0.10763 0.85594 0.0
C106 C 0.95935 0.05806 0.89136 0.0
C107 C 0.99164 0.05755 0.78778 0.0
C108 C 0.91538 0.13236 0.78534 0.0
C109 C 0.99526 0.03304 0.85729 0.0
C110 C 0.92481 0.93643 0.59699 0.0
C111 C 0.94982 0.13192 0.67692 0.0
H112 H 0.98226 0.89036 0.20924 0.0
H113 H 0.97308 0.92862 0.39379 0.0
H114 H 0.92249 0.91938 0.28482 0.0
H115 H 0.14656 0.87999 0.35304 0.0
H116 H 0.96265 0.0386 0.94552 0.0
H117 H 0.0195 0.03739 0.76265 0.0
H118 H 0.88425 0.17055 0.75779 0.0
H119 H 0.026 0.99454 0.88473 0.0
Eu120 Eu 0.44164 0.46373 0.01172 0.0
C121 C 0.71308 0.50797 0.14442 0.0
N122 N 0.66592 0.47631 0.17053 0.0
C123 C 0.73401 0.39103 0.23147 0.0
C124 C 0.77229 0.48106 0.15849 0.0
C125 C 0.67629 0.41985 0.21661 0.0
C126 C 0.782 0.42135 0.20137 0.0
C127 C 0.75154 0.60383 0.0819 0.0
C128 C 0.703 0.56866 0.10677 0.0
C129 C 0.8098 0.5763 0.09279 0.0
C130 C 0.82016 0.51506 0.13101 0.0
Eu131 Eu 0.56929 0.52846 0.13836 0.0
N132 N 0.64649 0.59429 0.09792 0.0
C133 C 0.74046 0.66603 0.04861 0.0
C134 C 0.63624 0.65556 0.06921 0.0
C135 C 0.68274 0.69215 0.04305 0.0
H136 H 0.63963 0.39645 0.24105 0.0
H137 H 0.67405 0.74039 0.01864 0.0
H138 H 0.31564 0.48311 0.07177 0.0
H139 H 0.52744 0.26105 0.96605 0.0
H140 H 0.59145 0.67562 0.0647 0.0
H141 H 0.77653 0.69455 0.02864 0.0
H142 H 0.5202 0.37042 0.95438 0.0
H143 H 0.74141 0.34557 0.26631 0.0
H144 H 0.84754 0.60241 0.07347 0.0
H145 H 0.86574 0.4949 0.14058 0.0
H146 H 0.23735 0.42016 0.12946 0.0
H147 H 0.82674 0.39901 0.21313 0.0
H148 H 0.45838 0.18974 0.03017 0.0
N149 N 0.3639 0.40749 0.06402 0.0
C150 C 0.36508 0.34685 0.07227 0.0
C151 C 0.27322 0.39894 0.11401 0.0
C152 C 0.32136 0.30922 0.1046 0.0
C153 C 0.31754 0.4344 0.08157 0.0
C154 C 0.27555 0.33596 0.12633 0.0
N155 N 0.45012 0.36067 0.01482 0.0
C156 C 0.49056 0.33961 0.98365 0.0
C157 C 0.41159 0.26004 0.05425 0.0
C158 C 0.4097 0.32271 0.04738 0.0
C159 C 0.45529 0.23764 0.02572 0.0
C160 C 0.49437 0.27775 0.9895 0.0
H161 H 0.24114 0.30858 0.15146 0.0
H162 H 0.29131 0.21674 0.13848 0.0
H163 H 0.37034 0.17364 0.09449 0.0
O164 O 0.41157 0.44784 0.91416 0.0
O165 O 0.4449 0.42151 0.12567 0.0
O166 O 0.47791 0.49846 0.17009 0.0
O167 O 0.36324 0.51561 0.9426 0.0
O168 O 0.54138 0.43914 0.02326 0.0
O169 O 0.56574 0.43127 0.13445 0.0
O170 O 0.57175 0.59882 0.18826 0.0
O171 O 0.58189 0.56413 0.02845 0.0
O172 O 0.50684 0.53081 0.95674 0.0
O173 O 0.58906 0.5053 0.24844 0.0
O174 O 0.49693 0.59767 0.07024 0.0
O175 O 0.41235 0.54321 0.04296 0.0
C176 C 0.44963 0.44743 0.174 0.0
C177 C 0.32509 0.50265 0.83279 0.0
C178 C 0.29428 0.48752 0.72245 0.0
C179 C 0.23853 0.51861 0.71571 0.0
C180 C 0.26973 0.53481 0.82429 0.0
C181 C 0.22689 0.54293 0.76585 0.0
C182 C 0.338 0.48088 0.78067 0.0
C183 C 0.57706 0.41772 0.08129 0.0
C184 C 0.3673 0.48852 0.89743 0.0
C185 C 0.32423 0.24651 0.11331 0.0
C186 C 0.36927 0.22198 0.08827 0.0
C187 C 0.55526 0.56251 0.96845 0.0
C188 C 0.63521 0.58055 0.29309 0.0
C189 C 0.66659 0.61621 0.39044 0.0
C190 C 0.72646 0.62141 0.37601 0.0
C191 C 0.69519 0.58584 0.27931 0.0
C192 C 0.62106 0.59537 0.349 0.0
C193 C 0.7406 0.60618 0.32071 0.0
C194 C 0.438 0.59293 0.05117 0.0
C195 C 0.5865 0.5615 0.24869 0.0
H196 H 0.20399 0.52397 0.67158 0.0
H197 H 0.25889 0.55241 0.86347 0.0
H198 H 0.18398 0.56712 0.75999 0.0
H199 H 0.38098 0.45673 0.78628 0.0
H200 H 0.76219 0.63706 0.40777 0.0
H201 H 0.70685 0.57456 0.2366 0.0
H202 H 0.57481 0.59116 0.36008 0.0
H203 H 0.78682 0.61024 0.30984 0.0
C204 C 0.18165 0.22333 0.43853 0.0
C205 C 0.22647 0.2337 0.48953 0.0
C206 C 0.19815 0.1395 0.56934 0.0
C207 C 0.15381 0.12972 0.51747 0.0
N208 N 0.13777 0.14335 0.39755 0.0
N209 N 0.29201 0.18862 0.59615 0.0
C210 C 0.15528 0.16573 0.45017 0.0
C211 C 0.2391 0.18797 0.55318 0.0
N212 N 0.16264 0.26823 0.37968 0.0
N213 N 0.2033 0.1006 0.63313 0.0
H214 H 0.32547 0.22026 0.58319 0.0
H215 H 0.30604 0.15392 0.64082 0.0
H216 H 0.18108 0.05955 0.64352 0.0
H217 H 0.22907 0.10931 0.67493 0.0
H218 H 0.12681 0.2624 0.34372 0.0
H219 H 0.17773 0.31258 0.37037 0.0
H220 H 0.14179 0.16794 0.34805 0.0
H221 H 0.12898 0.0976 0.40462 0.0
C222 C 0.29714 0.69555 0.98974 0.0
C223 C 0.30425 0.73301 0.03285 0.0
C224 C 0.39848 0.67528 0.09288 0.0
C225 C 0.39593 0.64517 0.04283 0.0
N226 N 0.35195 0.6452 0.93051 0.0
N227 N 0.37327 0.76867 0.11337 0.0
C228 C 0.34808 0.66106 0.98705 0.0
C229 C 0.35858 0.72623 0.08075 0.0
N230 N 0.24152 0.69005 0.95396 0.0
N231 N 0.43533 0.65329 0.15373 0.0
H232 H 0.34741 0.80876 0.10275 0.0
H233 H 0.41488 0.76706 0.14504 0.0
H234 H 0.45957 0.61206 0.16768 0.0
H235 H 0.43487 0.67171 0.19317 0.0
H236 H 0.23455 0.65935 0.92612 0.0
H237 H 0.20147 0.70999 0.95902 0.0
H238 H 0.31912 0.65922 0.88708 0.0
H239 H 0.39167 0.62519 0.92456 0.0
C240 C 0.79088 0.85691 0.681 0.0
C241 C 0.7861 0.80424 0.65923 0.0
C242 C 0.86392 0.8438 0.58904 0.0
C243 C 0.87643 0.89141 0.61871 0.0
N244 N 0.86261 0.92606 0.71413 0.0
N245 N 0.83901 0.73836 0.61435 0.0
C246 C 0.8432 0.89322 0.67107 0.0
C247 C 0.82976 0.79448 0.62078 0.0
N248 N 0.74532 0.87413 0.70864 0.0
N249 N 0.88032 0.84649 0.52852 0.0
H250 H 0.8177 0.69994 0.64063 0.0
H251 H 0.87311 0.72953 0.58933 0.0
H252 H 0.89913 0.88445 0.49839 0.0
H253 H 0.86792 0.81344 0.50471 0.0
H254 H 0.74565 0.91509 0.72005 0.0
H255 H 0.7046 0.85127 0.71308 0.0
H256 H 0.84088 0.92499 0.75485 0.0
H257 H 0.9047 0.94654 0.71593 0.0
C258 C 0.64408 0.25816 0.11598 0.0
C259 C 0.70319 0.27148 0.09955 0.0
C260 C 0.67844 0.38065 0.06696 0.0
C261 C 0.62113 0.36739 0.08889 0.0
N262 N 0.55173 0.29368 0.14116 0.0
N263 N 0.78141 0.34435 0.07156 0.0
C264 C 0.60495 0.30612 0.11596 0.0
C265 C 0.72174 0.33249 0.0782 0.0
N266 N 0.6243 0.19992 0.12861 0.0
N267 N 0.69141 0.43921 0.03493 0.0
H268 H 0.81463 0.31027 0.07989 0.0
H269 H 0.79922 0.38752 0.06364 0.0
H270 H 0.66213 0.47596 0.02886 0.0
H271 H 0.72929 0.45107 0.0108 0.0
H272 H 0.57935 0.1883 0.13349 0.0
H273 H 0.65152 0.16355 0.12849 0.0
H274 H 0.54103 0.25071 0.17003 0.0
H275 H 0.51899 0.32737 0.13473 0.0
C276 C 0.1765 0.8909 0.15018 0.0
C277 C 0.16217 0.83671 0.13328 0.0
C278 C 0.09674 0.80748 0.22039 0.0
C279 C 0.10419 0.86552 0.23027 0.0
N280 N 0.14551 0.96575 0.19916 0.0
N281 N 0.10416 0.74571 0.14693 0.0
C282 C 0.14299 0.90803 0.19413 0.0
C283 C 0.12143 0.79526 0.16731 0.0
N284 N 0.22268 0.9256 0.12465 0.0
N285 N 0.067 0.76375 0.26258 0.0
H286 H 0.12176 0.73485 0.10876 0.0
H287 H 0.06918 0.71781 0.16441 0.0
H288 H 0.04864 0.77112 0.30219 0.0
H289 H 0.06536 0.71872 0.26226 0.0
H290 H 0.2394 0.96235 0.14025 0.0
H291 H 0.24826 0.91418 0.09242 0.0
H292 H 0.16748 0.0007 0.16823 0.0
H293 H 0.12145 0.98032 0.2305 0.0
C294 C 0.60502 0.69454 0.82819 0.0
C295 C 0.64574 0.66337 0.80309 0.0
C296 C 0.62116 0.56645 0.88018 0.0
C297 C 0.58415 0.59742 0.90958 0.0
N298 N 0.54586 0.69219 0.91645 0.0
N299 N 0.70589 0.57286 0.81926 0.0
C300 C 0.57812 0.662 0.88545 0.0
C301 C 0.65803 0.60031 0.83376 0.0
N302 N 0.58975 0.75442 0.7954 0.0
N303 N 0.61938 0.50485 0.89391 0.0
H304 H 0.73522 0.59719 0.78743 0.0
H305 H 0.72056 0.528 0.84474 0.0
H306 H 0.59124 0.47827 0.92527 0.0
H307 H 0.64104 0.48095 0.86867 0.0
H308 H 0.5551 0.77802 0.80617 0.0
H309 H 0.60926 0.77978 0.75425 0.0
H310 H 0.54592 0.73917 0.90681 0.0
H311 H 0.52159 0.66986 0.95473 0.0
C312 C 0.83664 0.05845 0.29226 0.0
C313 C 0.85421 0.11325 0.24809 0.0
C314 C 0.94214 0.11723 0.33226 0.0
C315 C 0.92151 0.06586 0.37976 0.0
N316 N 0.84015 0.99685 0.40839 0.0
N317 N 0.91696 0.20134 0.2303 0.0
C318 C 0.86647 0.03852 0.36062 0.0
C319 C 0.9048 0.14467 0.26949 0.0
N320 N 0.79134 0.02565 0.269 0.0
N321 N 0.99902 0.13828 0.34541 0.0
H322 H 0.89292 0.22223 0.18214 0.0
H323 H 0.9478 0.22976 0.24785 0.0
H324 H 0.02897 0.11756 0.38909 0.0
H325 H 0.01887 0.17151 0.3101 0.0
H326 H 0.78092 0.98216 0.29683 0.0
H327 H 0.7676 0.03998 0.21971 0.0
H328 H 0.79719 0.97965 0.39839 0.0
H329 H 0.85794 0.98473 0.45958 0.0
C330 C 0.33124 0.37379 0.63349 0.0
C331 C 0.31182 0.4078 0.56507 0.0
C332 C 0.29941 0.49785 0.60084 0.0
C333 C 0.30545 0.46057 0.66904 0.0
N334 N 0.31633 0.35879 0.74806 0.0
N335 N 0.26902 0.50204 0.48417 0.0
C336 C 0.31895 0.39732 0.68507 0.0
C337 C 0.29408 0.47007 0.54859 0.0
N338 N 0.36205 0.31931 0.64919 0.0
N339 N 0.29988 0.55966 0.58598 0.0
H340 H 0.26198 0.48304 0.44471 0.0
H341 H 0.24991 0.5458 0.47142 0.0
H342 H 0.30611 0.58147 0.62319 0.0
H343 H 0.30093 0.58857 0.53746 0.0
H344 H 0.38122 0.29491 0.69837 0.0
H345 H 0.3747 0.30258 0.61226 0.0
H346 H 0.32051 0.31167 0.7597 0.0
H347 H 0.30331 0.37292 0.78654 0.0
C348 C 0.68276 0.61443 0.57175 0.0
C349 C 0.65099 0.66946 0.5652 0.0
C350 C 0.62147 0.68605 0.44378 0.0
C351 C 0.65304 0.6309 0.45072 0.0
N352 N 0.69719 0.53426 0.5228 0.0
N353 N 0.57799 0.74936 0.49974 0.0
C354 C 0.67794 0.59222 0.51541 0.0
C355 C 0.61599 0.70236 0.50262 0.0
N356 N 0.72115 0.58561 0.63005 0.0
N357 N 0.5998 0.72435 0.38101 0.0
H358 H 0.57339 0.76188 0.54242 0.0
H359 H 0.54716 0.77198 0.45696 0.0
H360 H 0.60265 0.71384 0.3368 0.0
H361 H 0.5826 0.76822 0.37247 0.0
H362 H 0.75096 0.54969 0.63451 0.0
H363 H 0.72721 0.6005 0.67249 0.0
H364 H 0.71033 0.50197 0.56962 0.0
H365 H 0.6941 0.51667 0.48226 0.0
C366 C 0.80164 0.11507 0.96639 0.0
C367 C 0.82988 0.1568 0.99836 0.0
C368 C 0.90455 0.17976 0.92056 0.0
C369 C 0.88161 0.1321 0.89506 0.0
N370 N 0.80861 0.05437 0.89137 0.0
N371 N 0.90793 0.22902 0.00786 0.0
C372 C 0.8296 0.10029 0.9167 0.0
C373 C 0.88082 0.18984 0.97536 0.0
N374 N 0.74802 0.08991 0.98354 0.0
N375 N 0.94923 0.21509 0.89236 0.0
H376 H 0.8906 0.23918 0.04659 0.0
H377 H 0.94935 0.24917 0.99928 0.0
H378 H 0.9683 0.208 0.85308 0.0
H379 H 0.96417 0.25427 0.90382 0.0
H380 H 0.72176 0.0636 0.95805 0.0
H381 H 0.72724 0.09885 0.0208 0.0
H382 H 0.77589 0.02417 0.91047 0.0
H383 H 0.82591 0.04489 0.85221 0.0
C384 C 0.40472 0.34513 0.33852 0.0
C385 C 0.35832 0.38137 0.34842 0.0
C386 C 0.36972 0.46015 0.24286 0.0
C387 C 0.41472 0.42278 0.23135 0.0
N388 N 0.46451 0.32366 0.26189 0.0
N389 N 0.2863 0.4664 0.30246 0.0
C390 C 0.42839 0.36322 0.27686 0.0
C391 C 0.33801 0.43707 0.29854 0.0
N392 N 0.42902 0.29511 0.38974 0.0
N393 N 0.35647 0.51766 0.20021 0.0
H394 H 0.26072 0.45001 0.34122 0.0
H395 H 0.26524 0.5037 0.26418 0.0
H396 H 0.37208 0.53385 0.15436 0.0
H397 H 0.33172 0.55018 0.21149 0.0
H398 H 0.46753 0.27064 0.38826 0.0
H399 H 0.41439 0.28124 0.4365 0.0
H400 H 0.46773 0.27713 0.28709 0.0
H401 H 0.48846 0.3369 0.22189 0.0
C402 C 0.10146 0.85701 0.85527 0.0
C403 C 0.14841 0.88782 0.8849 0.0
C404 C 0.13196 0.97668 0.78481 0.0
C405 C 0.08815 0.94456 0.75294 0.0
N406 N 0.02194 0.85972 0.76088 0.0
N407 N 0.21407 0.97299 0.87688 0.0
C408 C 0.07018 0.88621 0.78912 0.0
C409 C 0.16522 0.9466 0.84943 0.0
N410 N 0.08876 0.79879 0.88961 0.0
N411 N 0.13773 0.03755 0.75582 0.0
H412 H 0.23829 0.95313 0.92524 0.0
H413 H 0.23343 0.01235 0.85004 0.0
H414 H 0.11041 0.062 0.71098 0.0
H415 H 0.164 0.06519 0.77953 0.0
H416 H 0.06106 0.77045 0.86839 0.0
H417 H 0.10854 0.777 0.93937 0.0
H418 H 1.00161 0.8206 0.78649 0.0
H419 H 0.99961 0.87874 0.71178 0.0
loop_
_geom_bond_atom_site_label_1
_geom_bond_atom_site_label_2
_geom_bond_distance
_geom_bond_site_symmetry_2
_ccdc_geom_bond_type
H0 C3 0.931 1_556 S
H1 C6 0.928 . S
H2 C8 0.930 . S
C3 H0 0.931 1_554 S
C3 C4 1.413 1_554 S
C3 C5 1.360 . S
C4 C3 1.413 1_556 S
C4 C8 1.429 . S
C5 C3 1.360 . S
C5 C6 1.372 . S
C6 H1 0.928 . S
C6 C5 1.372 . S
C6 C7 1.404 . S
C7 C6 1.404 . S
C7 C8 1.391 1_554 S
C8 H2 0.930 . S
C8 C4 1.429 . S
C8 C7 1.391 1_556 S
H9 C12 0.931 . S
H10 C15 0.928 . S
H11 C17 0.930 . S
C12 H9 0.931 . S
C12 C13 1.413 . S
C12 C14 1.360 . S
C13 C12 1.413 . S
C13 C17 1.429 . S
C14 C12 1.360 . S
C14 C15 1.372 . S
C15 H10 0.928 . S
C15 C14 1.372 . S
C15 C16 1.404 . S
C16 C15 1.404 . S
C16 C17 1.391 . S
C17 H11 0.930 . S
C17 C13 1.429 . S
C17 C16 1.391 . S
H18 C21 0.931 . S
H19 C24 0.928 . S
H20 C26 0.930 . S
C21 H18 0.931 . S
C21 C22 1.413 . S
C21 C23 1.360 . S
C22 C21 1.413 . S
C22 C26 1.429 . S
C23 C21 1.360 . S
C23 C24 1.372 . S
C24 H19 0.928 . S
C24 C23 1.372 . S
C24 C25 1.404 . S
C25 C24 1.404 . S
C25 C26 1.391 . S
C26 H20 0.930 . S
C26 C22 1.429 . S
C26 C25 1.391 . S
H27 C30 0.931 . S
H28 C33 0.928 . S
H29 C35 0.930 . S
C30 H27 0.931 . S
C30 C31 1.413 . S
C30 C32 1.360 . S
C31 C30 1.413 . S
C31 C35 1.429 . S
C32 C30 1.360 . S
C32 C33 1.372 . S
C33 H28 0.928 . S
C33 C32 1.372 . S
C33 C34 1.404 . S
C34 C33 1.404 . S
C34 C35 1.391 . S
C35 H29 0.930 . S
C35 C31 1.429 . S
C35 C34 1.391 . S
Eu36 N65 2.600 . S
Eu36 N71 2.562 . S
Eu36 O80 2.462 . S
Eu36 O81 2.373 . S
Eu36 O83 2.432 . S
Eu36 O84 2.291 1_565 S
Eu36 O88 2.335 1_465 S
Eu36 O91 2.372 1_455 S
Eu36 C100 2.787 . S
C37 N38 1.365 . S
C37 C40 1.405 . S
C37 C44 1.448 . S
N38 C37 1.365 . S
N38 C41 1.319 . S
N38 Eu47 2.600 . S
C39 C41 1.397 . S
C39 C42 1.367 . S
C39 H59 0.931 1_655 S
C40 C37 1.405 . S
C40 C42 1.403 . S
C40 C46 1.439 . S
C41 N38 1.319 . S
C41 C39 1.397 . S
C41 H52 0.930 1_655 S
C42 C39 1.367 . S
C42 C40 1.403 . S
C42 H63 0.929 . S
C43 C44 1.430 . S
C43 C45 1.387 . S
C43 C49 1.404 . S
C44 C37 1.448 . S
C44 C43 1.430 . S
C44 N48 1.351 . S
C45 C43 1.387 . S
C45 C46 1.374 . S
C45 H60 0.931 . S
C46 C40 1.439 . S
C46 C45 1.374 . S
C46 H61 0.931 . S
Eu47 N38 2.600 . S
Eu47 N48 2.562 . S
Eu47 O82 2.335 1_655 S
Eu47 O85 2.372 1_655 S
Eu47 O86 2.462 . S
Eu47 O87 2.373 . S
Eu47 O89 2.432 . S
Eu47 O90 2.291 1_545 S
Eu47 C111 2.787 . S
N48 C44 1.351 . S
N48 Eu47 2.562 . S
N48 C50 1.325 . S
C49 C43 1.404 . S
C49 C51 1.366 . S
C49 H57 0.930 . S
C50 N48 1.325 . S
C50 C51 1.416 . S
C50 H56 0.929 . S
C51 C49 1.366 . S
C51 C50 1.416 . S
C51 H53 0.930 . S
H52 C41 0.930 1_455 S
H53 C51 0.930 . S
H54 C69 0.930 1_655 S
H55 C76 0.930 . S
H56 C50 0.929 . S
H57 C49 0.930 . S
H58 C72 0.929 . S
H59 C39 0.931 1_455 S
H60 C45 0.931 . S
H61 C46 0.931 . S
H62 C67 0.931 1_655 S
H63 C42 0.929 . S
H64 C75 0.930 . S
N65 Eu36 2.600 . S
N65 C66 1.365 . S
N65 C69 1.319 . S
C66 N65 1.365 . S
C66 C68 1.405 . S
C66 C74 1.448 . S
C67 H62 0.931 1_455 S
C67 C69 1.397 . S
C67 C70 1.367 . S
C68 C66 1.405 . S
C68 C70 1.403 . S
C68 C101 1.439 . S
C69 H54 0.930 1_455 S
C69 N65 1.319 . S
C69 C67 1.397 . S
C70 C67 1.367 . S
C70 C68 1.403 . S
C70 H77 0.929 . S
N71 Eu36 2.562 . S
N71 C72 1.325 . S
N71 C74 1.351 . S
C72 H58 0.929 . S
C72 N71 1.325 . S
C72 C76 1.416 . S
C73 C74 1.430 . S
C73 C75 1.404 . S
C73 C102 1.387 . S
C74 C66 1.448 . S
C74 N71 1.351 . S
C74 C73 1.430 . S
C75 H64 0.930 . S
C75 C73 1.404 . S
C75 C76 1.366 . S
C76 H55 0.930 . S
C76 C72 1.416 . S
C76 C75 1.366 . S
H77 C70 0.929 . S
H78 C101 0.931 . S
H79 C102 0.931 . S
O80 Eu36 2.462 . S
O80 C100 1.252 . S
O81 Eu36 2.373 . S
O81 C92 1.249 . S
O82 Eu47 2.335 1_455 S
O82 C92 1.264 1_545 S
O83 Eu36 2.432 . S
O83 C100 1.268 . S
O84 Eu36 2.291 1_545 S
O84 C99 1.255 . S
O85 Eu47 2.372 1_455 S
O85 C99 1.257 . S
O86 Eu47 2.462 . S
O86 C111 1.252 . S
O87 Eu47 2.373 . S
O87 C103 1.249 . S
O88 Eu36 2.335 1_645 S
O88 C103 1.264 . S
O89 Eu47 2.432 . S
O89 C111 1.268 . S
O90 Eu47 2.291 1_565 S
O90 C110 1.255 . S
O91 Eu36 2.372 1_655 S
O91 C110 1.257 . S
C92 O81 1.249 . S
C92 O82 1.264 1_565 S
C93 C96 1.382 . S
C93 C98 1.390 . S
C93 C100 1.506 . S
C94 C95 1.398 . S
C94 C98 1.392 . S
C95 C94 1.398 . S
C95 C97 1.372 . S
C95 H112 0.931 . S
C96 C93 1.382 . S
C96 C97 1.390 . S
C96 H113 0.931 . S
C97 C95 1.372 . S
C97 C96 1.390 . S
C97 H114 0.929 . S
C98 C93 1.390 . S
C98 C94 1.392 . S
C98 H115 0.930 . S
C99 O84 1.255 . S
C99 O85 1.257 . S
C100 Eu36 2.787 . S
C100 O80 1.252 . S
C100 O83 1.268 . S
C100 C93 1.506 . S
C101 C68 1.439 . S
C101 H78 0.931 . S
C101 C102 1.374 . S
C102 C73 1.387 . S
C102 H79 0.931 . S
C102 C101 1.374 . S
C103 O87 1.249 . S
C103 O88 1.264 . S
C104 C107 1.382 . S
C104 C108 1.390 . S
C104 C111 1.506 . S
C105 C106 1.398 . S
C105 C108 1.392 . S
C106 C105 1.398 . S
C106 C109 1.372 . S
C106 H116 0.931 . S
C107 C104 1.382 . S
C107 C109 1.390 . S
C107 H117 0.931 . S
C108 C104 1.390 . S
C108 C105 1.392 . S
C108 H118 0.930 . S
C109 C106 1.372 . S
C109 C107 1.390 . S
C109 H119 0.929 . S
C110 O90 1.255 . S
C110 O91 1.257 . S
C111 Eu47 2.787 . S
C111 O86 1.252 . S
C111 O89 1.268 . S
C111 C104 1.506 . S
H112 C95 0.931 . S
H113 C96 0.931 . S
H114 C97 0.929 . S
H115 C98 0.930 . S
H116 C106 0.931 . S
H117 C107 0.931 . S
H118 C108 0.930 . S
H119 C109 0.929 . S
Eu120 N149 2.600 . S
Eu120 N155 2.562 . S
Eu120 O164 2.462 1_554 S
Eu120 O165 2.373 . S
Eu120 O167 2.432 1_554 S
Eu120 O168 2.291 . S
Eu120 O172 2.335 1_554 S
Eu120 O175 2.372 . S
Eu120 C184 2.787 1_554 S
C121 N122 1.365 . S
C121 C124 1.405 . S
C121 C128 1.448 . S
N122 C121 1.365 . S
N122 C125 1.319 . S
N122 Eu131 2.600 . S
C123 C125 1.397 . S
C123 C126 1.367 . S
C123 H143 0.931 . S
C124 C121 1.405 . S
C124 C126 1.403 . S
C124 C130 1.439 . S
C125 N122 1.319 . S
C125 C123 1.397 . S
C125 H136 0.930 . S
C126 C123 1.367 . S
C126 C124 1.403 . S
C126 H147 0.929 . S
C127 C128 1.430 . S
C127 C129 1.387 . S
C127 C133 1.404 . S
C128 C121 1.448 . S
C128 C127 1.430 . S
C128 N132 1.351 . S
C129 C127 1.387 . S
C129 C130 1.374 . S
C129 H144 0.931 . S
C130 C124 1.439 . S
C130 C129 1.374 . S
C130 H145 0.931 . S
Eu131 N122 2.600 . S
Eu131 N132 2.562 . S
Eu131 O166 2.335 . S
Eu131 O169 2.372 . S
Eu131 O170 2.462 . S
Eu131 O171 2.373 . S
Eu131 O173 2.432 . S
Eu131 O174 2.291 . S
Eu131 C195 2.787 . S
N132 C128 1.351 . S
N132 Eu131 2.562 . S
N132 C134 1.325 . S
C133 C127 1.404 . S
C133 C135 1.366 . S
C133 H141 0.930 . S
C134 N132 1.325 . S
C134 C135 1.416 . S
C134 H140 0.929 . S
C135 C133 1.366 . S
C135 C134 1.416 . S
C135 H137 0.930 . S
H136 C125 0.930 . S
H137 C135 0.930 . S
H138 C153 0.930 . S
H139 C160 0.930 . S
H140 C134 0.929 . S
H141 C133 0.930 . S
H142 C156 0.929 . S
H143 C123 0.931 . S
H144 C129 0.931 . S
H145 C130 0.931 . S
H146 C151 0.931 . S
H147 C126 0.929 . S
H148 C159 0.930 . S
N149 Eu120 2.600 . S
N149 C150 1.365 . S
N149 C153 1.319 1_554 S
C150 N149 1.365 . S
C150 C152 1.405 . S
C150 C158 1.448 . S
C151 H146 0.931 . S
C151 C153 1.397 . S
C151 C154 1.367 1_556 S
C152 C150 1.405 . S
C152 C154 1.403 . S
C152 C185 1.439 . S
C153 H138 0.930 . S
C153 N149 1.319 1_556 S
C153 C151 1.397 . S
C154 C151 1.367 1_554 S
C154 C152 1.403 . S
C154 H161 0.929 . S
N155 Eu120 2.562 . S
N155 C156 1.325 . S
N155 C158 1.351 . S
C156 H142 0.929 . S
C156 N155 1.325 . S
C156 C160 1.416 . S
C157 C158 1.430 . S
C157 C159 1.404 . S
C157 C186 1.387 . S
C158 C150 1.448 . S
C158 N155 1.351 . S
C158 C157 1.430 . S
C159 H148 0.930 . S
C159 C157 1.404 . S
C159 C160 1.366 . S
C160 H139 0.930 . S
C160 C156 1.416 . S
C160 C159 1.366 . S
H161 C154 0.929 . S
H162 C185 0.931 . S
H163 C186 0.931 . S
O164 Eu120 2.462 1_556 S
O164 C184 1.252 . S
O165 Eu120 2.373 . S
O165 C176 1.249 . S
O166 Eu131 2.335 . S
O166 C176 1.264 . S
O167 Eu120 2.432 1_556 S
O167 C184 1.268 . S
O168 Eu120 2.291 . S
O168 C183 1.255 . S
O169 Eu131 2.372 . S
O169 C183 1.257 . S
O170 Eu131 2.462 . S
O170 C195 1.252 . S
O171 Eu131 2.373 . S
O171 C187 1.249 1_554 S
O172 Eu120 2.335 1_556 S
O172 C187 1.264 . S
O173 Eu131 2.432 . S
O173 C195 1.268 . S
O174 Eu131 2.291 . S
O174 C194 1.255 . S
O175 Eu120 2.372 . S
O175 C194 1.257 . S
C176 O165 1.249 . S
C176 O166 1.264 . S
C177 C180 1.382 . S
C177 C182 1.390 . S
C177 C184 1.506 . S
C178 C179 1.398 . S
C178 C182 1.392 . S
C179 C178 1.398 . S
C179 C181 1.372 . S
C179 H196 0.931 . S
C180 C177 1.382 . S
C180 C181 1.390 . S
C180 H197 0.931 . S
C181 C179 1.372 . S
C181 C180 1.390 . S
C181 H198 0.929 . S
C182 C177 1.390 . S
C182 C178 1.392 . S
C182 H199 0.930 . S
C183 O168 1.255 . S
C183 O169 1.257 . S
C184 Eu120 2.787 1_556 S
C184 O164 1.252 . S
C184 O167 1.268 . S
C184 C177 1.506 . S
C185 C152 1.439 . S
C185 H162 0.931 . S
C185 C186 1.374 . S
C186 C157 1.387 . S
C186 H163 0.931 . S
C186 C185 1.374 . S
C187 O171 1.249 1_556 S
C187 O172 1.264 . S
C188 C191 1.382 . S
C188 C192 1.390 . S
C188 C195 1.506 . S
C189 C190 1.398 . S
C189 C192 1.392 . S
C190 C189 1.398 . S
C190 C193 1.372 . S
C190 H200 0.931 . S
C191 C188 1.382 . S
C191 C193 1.390 . S
C191 H201 0.931 . S
C192 C188 1.390 . S
C192 C189 1.392 . S
C192 H202 0.930 . S
C193 C190 1.372 . S
C193 C191 1.390 . S
C193 H203 0.929 . S
C194 O174 1.255 . S
C194 O175 1.257 . S
C195 Eu131 2.787 . S
C195 O170 1.252 . S
C195 O173 1.268 . S
C195 C188 1.506 . S
H196 C179 0.931 . S
H197 C180 0.931 . S
H198 C181 0.929 . S
H199 C182 0.930 . S
H200 C190 0.931 . S
H201 C191 0.931 . S
H202 C192 0.930 . S
H203 C193 0.929 . S
C204 C205 1.363 . S
C204 C210 1.379 . S
C204 N212 1.356 . S
C205 C204 1.363 . S
C205 C211 1.363 . S
C206 C207 1.363 . S
C206 C211 1.379 . S
C206 N213 1.356 . S
C207 C206 1.363 . S
C207 C210 1.363 . S
N208 C210 1.356 . S
N208 H220 0.984 . S
N208 H221 0.985 . S
N209 C211 1.356 . S
N209 H214 0.984 . S
N209 H215 0.985 . S
C210 C204 1.379 . S
C210 C207 1.363 . S
C210 N208 1.356 . S
C211 C205 1.363 . S
C211 C206 1.379 . S
C211 N209 1.356 . S
N212 C204 1.356 . S
N212 H218 0.984 . S
N212 H219 0.984 . S
N213 C206 1.356 . S
N213 H216 0.984 . S
N213 H217 0.985 . S
H214 N209 0.984 . S
H215 N209 0.985 . S
H216 N213 0.984 . S
H217 N213 0.985 . S
H218 N212 0.984 . S
H219 N212 0.984 . S
H220 N208 0.984 . S
H221 N208 0.985 . S
C222 C223 1.363 1_556 S
C222 C228 1.379 . S
C222 N230 1.356 . S
C223 C222 1.363 1_554 S
C223 C229 1.363 . S
C224 C225 1.363 . S
C224 C229 1.379 . S
C224 N231 1.356 . S
C225 C224 1.363 . S
C225 C228 1.363 1_554 S
N226 C228 1.356 . S
N226 H238 0.984 . S
N226 H239 0.985 . S
N227 C229 1.356 . S
N227 H232 0.984 . S
N227 H233 0.985 . S
C228 C222 1.379 . S
C228 C225 1.363 1_556 S
C228 N226 1.356 . S
C229 C223 1.363 . S
C229 C224 1.379 . S
C229 N227 1.356 . S
N230 C222 1.356 . S
N230 H236 0.984 . S
N230 H237 0.984 . S
N231 C224 1.356 . S
N231 H234 0.984 . S
N231 H235 0.985 . S
H232 N227 0.984 . S
H233 N227 0.985 . S
H234 N231 0.984 . S
H235 N231 0.985 . S
H236 N230 0.984 . S
H237 N230 0.984 . S
H238 N226 0.984 . S
H239 N226 0.985 . S
C240 C241 1.363 . S
C240 C246 1.379 . S
C240 N248 1.356 . S
C241 C240 1.363 . S
C241 C247 1.363 . S
C242 C243 1.363 . S
C242 C247 1.379 . S
C242 N249 1.356 . S
C243 C242 1.363 . S
C243 C246 1.363 . S
N244 C246 1.356 . S
N244 H256 0.984 . S
N244 H257 0.985 . S
N245 C247 1.356 . S
N245 H250 0.984 . S
N245 H251 0.985 . S
C246 C240 1.379 . S
C246 C243 1.363 . S
C246 N244 1.356 . S
C247 C241 1.363 . S
C247 C242 1.379 . S
C247 N245 1.356 . S
N248 C240 1.356 . S
N248 H254 0.984 . S
N248 H255 0.984 . S
N249 C242 1.356 . S
N249 H252 0.984 . S
N249 H253 0.985 . S
H250 N245 0.984 . S
H251 N245 0.985 . S
H252 N249 0.984 . S
H253 N249 0.985 . S
H254 N248 0.984 . S
H255 N248 0.984 . S
H256 N244 0.984 . S
H257 N244 0.985 . S
C258 C259 1.363 . S
C258 C264 1.379 . S
C258 N266 1.356 . S
C259 C258 1.363 . S
C259 C265 1.363 . S
C260 C261 1.363 . S
C260 C265 1.379 . S
C260 N267 1.356 1_554 S
C261 C260 1.363 . S
C261 C264 1.363 . S
N262 C264 1.356 . S
N262 H274 0.984 . S
N262 H275 0.985 . S
N263 C265 1.356 . S
N263 H268 0.984 . S
N263 H269 0.985 1_554 S
C264 C258 1.379 . S
C264 C261 1.363 . S
C264 N262 1.356 . S
C265 C259 1.363 . S
C265 C260 1.379 . S
C265 N263 1.356 . S
N266 C258 1.356 . S
N266 H272 0.984 . S
N266 H273 0.984 . S
N267 C260 1.356 1_556 S
N267 H270 0.984 1_556 S
N267 H271 0.985 . S
H268 N263 0.984 . S
H269 N263 0.985 1_556 S
H270 N267 0.984 1_554 S
H271 N267 0.985 . S
H272 N266 0.984 . S
H273 N266 0.984 . S
H274 N262 0.984 . S
H275 N262 0.985 . S
C276 C277 1.363 . S
C276 C282 1.379 . S
C276 N284 1.356 . S
C277 C276 1.363 . S
C277 C283 1.363 . S
C278 C279 1.363 . S
C278 C283 1.379 . S
C278 N285 1.356 . S
C279 C278 1.363 . S
C279 C282 1.363 . S
N280 C282 1.356 1_545 S
N280 H292 0.984 . S
N280 H293 0.985 . S
N281 C283 1.356 . S
N281 H286 0.984 . S
N281 H287 0.985 . S
C282 C276 1.379 . S
C282 C279 1.363 . S
C282 N280 1.356 1_565 S
C283 C277 1.363 . S
C283 C278 1.379 . S
C283 N281 1.356 . S
N284 C276 1.356 . S
N284 H290 0.984 1_565 S
N284 H291 0.984 . S
N285 C278 1.356 . S
N285 H288 0.984 . S
N285 H289 0.985 . S
H286 N281 0.984 . S
H287 N281 0.985 . S
H288 N285 0.984 . S
H289 N285 0.985 . S
H290 N284 0.984 1_545 S
H291 N284 0.984 . S
H292 N280 0.984 . S
H293 N280 0.985 . S
C294 C295 1.363 . S
C294 C300 1.379 . S
C294 N302 1.356 . S
C295 C294 1.363 . S
C295 C301 1.363 . S
C296 C297 1.363 . S
C296 C301 1.379 . S
C296 N303 1.356 . S
C297 C296 1.363 . S
C297 C300 1.363 . S
N298 C300 1.356 . S
N298 H310 0.984 . S
N298 H311 0.985 . S
N299 C301 1.356 . S
N299 H304 0.984 . S
N299 H305 0.985 . S
C300 C294 1.379 . S
C300 C297 1.363 . S
C300 N298 1.356 . S
C301 C295 1.363 . S
C301 C296 1.379 . S
C301 N299 1.356 . S
N302 C294 1.356 . S
N302 H308 0.984 . S
N302 H309 0.984 . S
N303 C296 1.356 . S
N303 H306 0.984 . S
N303 H307 0.985 . S
H304 N299 0.984 . S
H305 N299 0.985 . S
H306 N303 0.984 . S
H307 N303 0.985 . S
H308 N302 0.984 . S
H309 N302 0.984 . S
H310 N298 0.984 . S
H311 N298 0.985 . S
C312 C313 1.363 . S
C312 C318 1.379 . S
C312 N320 1.356 . S
C313 C312 1.363 . S
C313 C319 1.363 . S
C314 C315 1.363 . S
C314 C319 1.379 . S
C314 N321 1.356 . S
C315 C314 1.363 . S
C315 C318 1.363 . S
N316 C318 1.356 1_565 S
N316 H328 0.984 . S
N316 H329 0.985 . S
N317 C319 1.356 . S
N317 H322 0.984 . S
N317 H323 0.985 . S
C318 C312 1.379 . S
C318 C315 1.363 . S
C318 N316 1.356 1_545 S
C319 C313 1.363 . S
C319 C314 1.379 . S
C319 N317 1.356 . S
N320 C312 1.356 . S
N320 H326 0.984 1_545 S
N320 H327 0.984 . S
N321 C314 1.356 . S
N321 H324 0.984 . S
N321 H325 0.985 . S
H322 N317 0.984 . S
H323 N317 0.985 . S
H324 N321 0.984 . S
H325 N321 0.985 . S
H326 N320 0.984 1_565 S
H327 N320 0.984 . S
H328 N316 0.984 . S
H329 N316 0.985 . S
C330 C331 1.363 . S
C330 C336 1.379 . S
C330 N338 1.356 . S
C331 C330 1.363 . S
C331 C337 1.363 . S
C332 C333 1.363 . S
C332 C337 1.379 . S
C332 N339 1.356 . S
C333 C332 1.363 . S
C333 C336 1.363 . S
N334 C336 1.356 . S
N334 H346 0.984 . S
N334 H347 0.985 . S
N335 C337 1.356 . S
N335 H340 0.984 . S
N335 H341 0.985 . S
C336 C330 1.379 . S
C336 C333 1.363 . S
C336 N334 1.356 . S
C337 C331 1.363 . S
C337 C332 1.379 . S
C337 N335 1.356 . S
N338 C330 1.356 . S
N338 H344 0.984 . S
N338 H345 0.984 . S
N339 C332 1.356 . S
N339 H342 0.984 . S
N339 H343 0.985 . S
H340 N335 0.984 . S
H341 N335 0.985 . S
H342 N339 0.984 . S
H343 N339 0.985 . S
H344 N338 0.984 . S
H345 N338 0.984 . S
H346 N334 0.984 . S
H347 N334 0.985 . S
C348 C349 1.363 . S
C348 C354 1.379 . S
C348 N356 1.356 . S
C349 C348 1.363 . S
C349 C355 1.363 . S
C350 C351 1.363 . S
C350 C355 1.379 . S
C350 N357 1.356 . S
C351 C350 1.363 . S
C351 C354 1.363 . S
N352 C354 1.356 . S
N352 H364 0.984 . S
N352 H365 0.985 . S
N353 C355 1.356 . S
N353 H358 0.984 . S
N353 H359 0.985 . S
C354 C348 1.379 . S
C354 C351 1.363 . S
C354 N352 1.356 . S
C355 C349 1.363 . S
C355 C350 1.379 . S
C355 N353 1.356 . S
N356 C348 1.356 . S
N356 H362 0.984 . S
N356 H363 0.984 . S
N357 C350 1.356 . S
N357 H360 0.984 . S
N357 H361 0.985 . S
H358 N353 0.984 . S
H359 N353 0.985 . S
H360 N357 0.984 . S
H361 N357 0.985 . S
H362 N356 0.984 . S
H363 N356 0.984 . S
H364 N352 0.984 . S
H365 N352 0.985 . S
C366 C367 1.363 . S
C366 C372 1.379 1_554 S
C366 N374 1.356 . S
C367 C366 1.363 . S
C367 C373 1.363 1_554 S
C368 C369 1.363 . S
C368 C373 1.379 . S
C368 N375 1.356 . S
C369 C368 1.363 . S
C369 C372 1.363 . S
N370 C372 1.356 1_565 S
N370 H382 0.984 . S
N370 H383 0.985 . S
N371 C373 1.356 . S
N371 H376 0.984 . S
N371 H377 0.985 . S
C372 C366 1.379 1_556 S
C372 C369 1.363 . S
C372 N370 1.356 1_545 S
C373 C367 1.363 1_556 S
C373 C368 1.379 . S
C373 N371 1.356 . S
N374 C366 1.356 . S
N374 H380 0.984 1_545 S
N374 H381 0.984 . S
N375 C368 1.356 . S
N375 H378 0.984 . S
N375 H379 0.985 . S
H376 N371 0.984 . S
H377 N371 0.985 . S
H378 N375 0.984 . S
H379 N375 0.985 . S
H380 N374 0.984 1_565 S
H381 N374 0.984 . S
H382 N370 0.984 . S
H383 N370 0.985 . S
C384 C385 1.363 . S
C384 C390 1.379 . S
C384 N392 1.356 . S
C385 C384 1.363 . S
C385 C391 1.363 . S
C386 C387 1.363 . S
C386 C391 1.379 . S
C386 N393 1.356 . S
C387 C386 1.363 . S
C387 C390 1.363 . S
N388 C390 1.356 . S
N388 H400 0.984 . S
N388 H401 0.985 . S
N389 C391 1.356 . S
N389 H394 0.984 . S
N389 H395 0.985 . S
C390 C384 1.379 . S
C390 C387 1.363 . S
C390 N388 1.356 . S
C391 C385 1.363 . S
C391 C386 1.379 . S
C391 N389 1.356 . S
N392 C384 1.356 . S
N392 H398 0.984 . S
N392 H399 0.984 . S
N393 C386 1.356 . S
N393 H396 0.984 . S
N393 H397 0.985 . S
H394 N389 0.984 . S
H395 N389 0.985 . S
H396 N393 0.984 . S
H397 N393 0.985 . S
H398 N392 0.984 . S
H399 N392 0.984 . S
H400 N388 0.984 . S
H401 N388 0.985 . S
C402 C403 1.363 . S
C402 C408 1.379 . S
C402 N410 1.356 . S
C403 C402 1.363 . S
C403 C409 1.363 . S
C404 C405 1.363 . S
C404 C409 1.379 . S
C404 N411 1.356 1_565 S
C405 C404 1.363 . S
C405 C408 1.363 . S
N406 C408 1.356 . S
N406 H418 0.984 . S
N406 H419 0.985 . S
N407 C409 1.356 . S
N407 H412 0.984 . S
N407 H413 0.985 1_565 S
C408 C402 1.379 . S
C408 C405 1.363 . S
C408 N406 1.356 . S
C409 C403 1.363 . S
C409 C404 1.379 . S
C409 N407 1.356 . S
N410 C402 1.356 . S
N410 H416 0.984 . S
N410 H417 0.984 . S
N411 C404 1.356 1_545 S
N411 H414 0.984 . S
N411 H415 0.985 . S
H412 N407 0.984 . S
H413 N407 0.985 1_545 S
H414 N411 0.984 . S
H415 N411 0.985 . S
H416 N410 0.984 . S
H417 N410 0.984 . S
H418 N406 0.984 . S
H419 N406 0.985 . S
C207 C99 1.557 . S
C205 C34 1.572 . S
C223 C7 1.548 . S
C225 C194 1.542 . S
C241 C16 1.570 . S
C243 C110 1.558 . S
C259 C25 1.546 . S
C261 C183 1.541 . S
C279 C94 1.357 . S
C277 C5 1.523 . S
C297 C187 1.569 . S
C295 C13 1.561 . S
C313 C23 1.547 . S
C315 C103 1.567 . S
C331 C32 1.514 . S
C333 C178 1.364 . S
C351 C189 1.363 . S
C349 C14 1.512 . S
C369 C105 1.356 . S
C367 C22 1.521 . S
C387 C176 1.567 . S
C385 C31 1.560 . S
C403 C4 1.543 . S
C405 C92 1.565 . S
