# Generated by pormake.
# Topology ctn, (3,4)-cn, num edge types: 1
# Building blocks:
#     Node 0, Type 0, BuildingBlock: CUQRIR_clean_linker_1, # of connection points: 3
#     Node 1, Type 0, BuildingBlock: CUQRIR_clean_linker_1, # of connection points: 3
#     Node 2, Type 0, BuildingBlock: CUQRIR_clean_linker_1, # of connection points: 3
#     Node 3, Type 0, BuildingBlock: CUQRIR_clean_linker_1, # of connection points: 3
#     Node 4, Type 0, BuildingBlock: CUQRIR_clean_linker_1, # of connection points: 3
#     Node 5, Type 0, BuildingBlock: CUQRIR_clean_linker_1, # of connection points: 3
#     Node 6, Type 0, BuildingBlock: CUQRIR_clean_linker_1, # of connection points: 3
#     Node 7, Type 0, BuildingBlock: CUQRIR_clean_linker_1, # of connection points: 3
#     Node 8, Type 0, BuildingBlock: CUQRIR_clean_linker_1, # of connection points: 3
#     Node 9, Type 0, BuildingBlock: CUQRIR_clean_linker_1, # of connection points: 3
#     Node 10, Type 0, BuildingBlock: CUQRIR_clean_linker_1, # of connection points: 3
#     Node 11, Type 0, BuildingBlock: CUQRIR_clean_linker_1, # of connection points: 3
#     Node 12, Type 0, BuildingBlock: CUQRIR_clean_linker_1, # of connection points: 3
#     Node 13, Type 0, BuildingBlock: CUQRIR_clean_linker_1, # of connection points: 3
#     Node 14, Type 0, BuildingBlock: CUQRIR_clean_linker_1, # of connection points: 3
#     Node 15, Type 0, BuildingBlock: CUQRIR_clean_linker_1, # of connection points: 3
#     Node 16, Type 1, BuildingBlock: TATPOV_clean_sbu_0, # of connection points: 4
#     Node 17, Type 1, BuildingBlock: TATPOV_clean_sbu_0, # of connection points: 4
#     Node 18, Type 1, BuildingBlock: TATPOV_clean_sbu_0, # of connection points: 4
#     Node 19, Type 1, BuildingBlock: TATPOV_clean_sbu_0, # of connection points: 4
#     Node 20, Type 1, BuildingBlock: TATPOV_clean_sbu_0, # of connection points: 4
#     Node 21, Type 1, BuildingBlock: TATPOV_clean_sbu_0, # of connection points: 4
#     Node 22, Type 1, BuildingBlock: TATPOV_clean_sbu_0, # of connection points: 4
#     Node 23, Type 1, BuildingBlock: TATPOV_clean_sbu_0, # of connection points: 4
#     Node 24, Type 1, BuildingBlock: TATPOV_clean_sbu_0, # of connection points: 4
#     Node 25, Type 1, BuildingBlock: TATPOV_clean_sbu_0, # of connection points: 4
#     Node 26, Type 1, BuildingBlock: TATPOV_clean_sbu_0, # of connection points: 4
#     Node 27, Type 1, BuildingBlock: TATPOV_clean_sbu_0, # of connection points: 4
#     Edge 28, Type (0, 1), BuildingBlock: TEMPAE_clean_linker_10, # of connection points: 2
#     Edge 29, Type (0, 1), BuildingBlock: TEMPAE_clean_linker_10, # of connection points: 2
#     Edge 30, Type (0, 1), BuildingBlock: TEMPAE_clean_linker_10, # of connection points: 2
#     Edge 31, Type (0, 1), BuildingBlock: TEMPAE_clean_linker_10, # of connection points: 2
#     Edge 32, Type (0, 1), BuildingBlock: TEMPAE_clean_linker_10, # of connection points: 2
#     Edge 33, Type (0, 1), BuildingBlock: TEMPAE_clean_linker_10, # of connection points: 2
#     Edge 34, Type (0, 1), BuildingBlock: TEMPAE_clean_linker_10, # of connection points: 2
#     Edge 35, Type (0, 1), BuildingBlock: TEMPAE_clean_linker_10, # of connection points: 2
#     Edge 36, Type (0, 1), BuildingBlock: TEMPAE_clean_linker_10, # of connection points: 2
#     Edge 37, Type (0, 1), BuildingBlock: TEMPAE_clean_linker_10, # of connection points: 2
#     Edge 38, Type (0, 1), BuildingBlock: TEMPAE_clean_linker_10, # of connection points: 2
#     Edge 39, Type (0, 1), BuildingBlock: TEMPAE_clean_linker_10, # of connection points: 2
#     Edge 40, Type (0, 1), BuildingBlock: TEMPAE_clean_linker_10, # of connection points: 2
#     Edge 41, Type (0, 1), BuildingBlock: TEMPAE_clean_linker_10, # of connection points: 2
#     Edge 42, Type (0, 1), BuildingBlock: TEMPAE_clean_linker_10, # of connection points: 2
#     Edge 43, Type (0, 1), BuildingBlock: TEMPAE_clean_linker_10, # of connection points: 2
#     Edge 44, Type (0, 1), BuildingBlock: TEMPAE_clean_linker_10, # of connection points: 2
#     Edge 45, Type (0, 1), BuildingBlock: TEMPAE_clean_linker_10, # of connection points: 2
#     Edge 46, Type (0, 1), BuildingBlock: TEMPAE_clean_linker_10, # of connection points: 2
#     Edge 47, Type (0, 1), BuildingBlock: TEMPAE_clean_linker_10, # of connection points: 2
#     Edge 48, Type (0, 1), BuildingBlock: TEMPAE_clean_linker_10, # of connection points: 2
#     Edge 49, Type (0, 1), BuildingBlock: TEMPAE_clean_linker_10, # of connection points: 2
#     Edge 50, Type (0, 1), BuildingBlock: TEMPAE_clean_linker_10, # of connection points: 2
#     Edge 51, Type (0, 1), BuildingBlock: TEMPAE_clean_linker_10, # of connection points: 2
#     Edge 52, Type (0, 1), BuildingBlock: TEMPAE_clean_linker_10, # of connection points: 2
#     Edge 53, Type (0, 1), BuildingBlock: TEMPAE_clean_linker_10, # of connection points: 2
#     Edge 54, Type (0, 1), BuildingBlock: TEMPAE_clean_linker_10, # of connection points: 2
#     Edge 55, Type (0, 1), BuildingBlock: TEMPAE_clean_linker_10, # of connection points: 2
#     Edge 56, Type (0, 1), BuildingBlock: TEMPAE_clean_linker_10, # of connection points: 2
#     Edge 57, Type (0, 1), BuildingBlock: TEMPAE_clean_linker_10, # of connection points: 2
#     Edge 58, Type (0, 1), BuildingBlock: TEMPAE_clean_linker_10, # of connection points: 2
#     Edge 59, Type (0, 1), BuildingBlock: TEMPAE_clean_linker_10, # of connection points: 2
#     Edge 60, Type (0, 1), BuildingBlock: TEMPAE_clean_linker_10, # of connection points: 2
#     Edge 61, Type (0, 1), BuildingBlock: TEMPAE_clean_linker_10, # of connection points: 2
#     Edge 62, Type (0, 1), BuildingBlock: TEMPAE_clean_linker_10, # of connection points: 2
#     Edge 63, Type (0, 1), BuildingBlock: TEMPAE_clean_linker_10, # of connection points: 2
#     Edge 64, Type (0, 1), BuildingBlock: TEMPAE_clean_linker_10, # of connection points: 2
#     Edge 65, Type (0, 1), BuildingBlock: TEMPAE_clean_linker_10, # of connection points: 2
#     Edge 66, Type (0, 1), BuildingBlock: TEMPAE_clean_linker_10, # of connection points: 2
#     Edge 67, Type (0, 1), BuildingBlock: TEMPAE_clean_linker_10, # of connection points: 2
#     Edge 68, Type (0, 1), BuildingBlock: TEMPAE_clean_linker_10, # of connection points: 2
#     Edge 69, Type (0, 1), BuildingBlock: TEMPAE_clean_linker_10, # of connection points: 2
#     Edge 70, Type (0, 1), BuildingBlock: TEMPAE_clean_linker_10, # of connection points: 2
#     Edge 71, Type (0, 1), BuildingBlock: TEMPAE_clean_linker_10, # of connection points: 2
#     Edge 72, Type (0, 1), BuildingBlock: TEMPAE_clean_linker_10, # of connection points: 2
#     Edge 73, Type (0, 1), BuildingBlock: TEMPAE_clean_linker_10, # of connection points: 2
#     Edge 74, Type (0, 1), BuildingBlock: TEMPAE_clean_linker_10, # of connection points: 2
#     Edge 75, Type (0, 1), BuildingBlock: TEMPAE_clean_linker_10, # of connection points: 2
# Relax obj value: 0.083
# Max RMSD: 0.208
# Mean RMSD: 0.129
data_MOF--net-ctn--node1-TATPOV_clean_sbu_0--node2-CUQRIR_clean_linker_1--edge1-TEMPAE_clean_linker_10
_symmetry_space_group_name_H-M    P1
_symmetry_Int_Tables_number       1
_symmetry_cell_setting            triclinic
loop_
_symmetry_equiv_pos_as_xyz
'x, y, z'
_cell_length_a     52.471173
_cell_length_b     48.990301
_cell_length_c     50.200911
_cell_angle_alpha  97.915826
_cell_angle_beta   90.154222
_cell_angle_gamma 93.972816
loop_
_atom_site_label
_atom_site_type_symbol
_atom_site_fract_x
_atom_site_fract_y
_atom_site_fract_z
_atom_type_partial_charge
C0 C 0.02739 0.0028 0.06372 0.0
N1 N 0.04166 0.01218 0.04391 0.0
N2 N 0.00874 0.01993 0.07135 0.0
C3 C 0.03287 0.97808 0.07702 0.0
C4 C 0.01222 0.04014 0.05559 0.0
N5 N 0.03241 0.03569 0.03917 0.0
C6 C 0.99483 0.06326 0.05494 0.0
H7 H 0.02333 0.95929 0.06527 0.0
H8 H 0.02551 0.98002 0.09785 0.0
H9 H 0.0537 0.97546 0.07753 0.0
H10 H 0.97548 0.05759 0.06218 0.0
H11 H 0.99316 0.06864 0.03427 0.0
H12 H 0.00301 0.08182 0.06818 0.0
C13 C 0.25613 0.72626 0.23843 0.0
N14 N 0.26771 0.71176 0.25555 0.0
N15 N 0.27309 0.74467 0.22917 0.0
C16 C 0.22857 0.72126 0.22955 0.0
C17 C 0.29553 0.74054 0.24086 0.0
N18 N 0.29235 0.72026 0.25669 0.0
C19 C 0.32054 0.75614 0.23655 0.0
H20 H 0.22366 0.69876 0.22413 0.0
H21 H 0.22432 0.73205 0.21222 0.0
H22 H 0.21624 0.72886 0.2465 0.0
H23 H 0.3175 0.77632 0.22984 0.0
H24 H 0.33128 0.74376 0.22077 0.0
H25 H 0.33225 0.75956 0.25531 0.0
C26 C 0.97769 0.4796 0.0845 0.0
N27 N 0.9899 0.45626 0.08559 0.0
N28 N 0.96039 0.47576 0.06406 0.0
C29 C 0.98225 0.50611 0.10342 0.0
C30 C 0.96243 0.4493 0.0528 0.0
N31 N 0.98022 0.43736 0.06599 0.0
C32 C 0.94801 0.43553 0.02805 0.0
H33 H 0.99354 0.50348 0.12147 0.0
H34 H 0.96371 0.51442 0.10966 0.0
H35 H 0.99289 0.52159 0.09272 0.0
H36 H 0.9406 0.45091 0.01628 0.0
H37 H 0.93167 0.42229 0.03423 0.0
H38 H 0.96052 0.42215 0.01508 0.0
C39 C 0.70171 0.72973 0.22378 0.0
N40 N 0.72142 0.74404 0.21334 0.0
N41 N 0.6956 0.74244 0.24842 0.0
C42 C 0.68949 0.70244 0.21077 0.0
C43 C 0.71238 0.76496 0.25259 0.0
N44 N 0.72828 0.76569 0.23147 0.0
C45 C 0.71167 0.78762 0.27609 0.0
H46 H 0.67399 0.70621 0.19693 0.0
H47 H 0.68111 0.69029 0.22609 0.0
H48 H 0.70367 0.69025 0.19888 0.0
H49 H 0.69194 0.7895 0.28367 0.0
H50 H 0.71906 0.80782 0.27056 0.0
H51 H 0.72388 0.78259 0.29257 0.0
C52 C 0.03836 0.98326 0.45859 0.0
N53 N 0.06013 0.98807 0.47352 0.0
N54 N 0.03831 1.00007 0.43938 0.0
C55 C 0.01634 0.9635 0.46406 0.0
C56 C 0.06071 0.01559 0.44335 0.0
N57 N 0.07393 0.00855 0.46441 0.0
C58 C 0.07059 0.03576 0.42509 0.0
H59 H 0.01991 0.94246 0.45414 0.0
H60 H 0.99805 0.9695 0.45626 0.0
H61 H 0.01458 0.96282 0.48596 0.0
H62 H 0.06582 0.05685 0.4337 0.0
H63 H 0.06166 0.03078 0.40478 0.0
H64 H 0.09164 0.03565 0.42317 0.0
C65 C 0.19114 0.7455 0.78352 0.0
N66 N 0.20779 0.73047 0.7947 0.0
N67 N 0.18574 0.73444 0.75782 0.0
C68 C 0.17924 0.77031 0.79809 0.0
C69 C 0.19963 0.71199 0.75374 0.0
N70 N 0.213 0.70943 0.77634 0.0
C71 C 0.19952 0.69233 0.72795 0.0
H72 H 0.16244 0.76314 0.80931 0.0
H73 H 0.17275 0.78382 0.78377 0.0
H74 H 0.19293 0.7824 0.81281 0.0
H75 H 0.19575 0.70305 0.71043 0.0
H76 H 0.18407 0.67581 0.72867 0.0
H77 H 0.21801 0.68264 0.72523 0.0
C78 C 0.9224 0.55053 0.44984 0.0
N79 N 0.94116 0.57121 0.45339 0.0
N80 N 0.9038 0.55521 0.46824 0.0
C81 C 0.92364 0.5243 0.43044 0.0
C82 C 0.91208 0.57923 0.48331 0.0
N83 N 0.93495 0.58877 0.47454 0.0
C84 C 0.89713 0.59405 0.50571 0.0
H85 H 0.91329 0.50658 0.43822 0.0
H86 H 0.9437 0.51931 0.42649 0.0
H87 H 0.91458 0.52712 0.4111 0.0
H88 H 0.90354 0.58843 0.52519 0.0
H89 H 0.87638 0.5881 0.50312 0.0
H90 H 0.90038 0.61678 0.50643 0.0
C91 C 0.81281 0.83215 0.84328 0.0
N92 N 0.83286 0.81691 0.83594 0.0
N93 N 0.81413 0.85554 0.83173 0.0
C94 C 0.79099 0.82335 0.86034 0.0
C95 C 0.83579 0.8541 0.81717 0.0
N96 N 0.84748 0.83082 0.82008 0.0
C97 C 0.84434 0.87411 0.7982 0.0
H98 H 0.77608 0.81123 0.8471 0.0
H99 H 0.78227 0.84148 0.87139 0.0
H100 H 0.79749 0.81022 0.87502 0.0
H101 H 0.86355 0.88377 0.80443 0.0
H102 H 0.83108 0.89073 0.7979 0.0
H103 H 0.84592 0.8628 0.7776 0.0
C104 C 0.31093 0.3298 0.34358 0.0
N105 N 0.33144 0.31533 0.33611 0.0
N106 N 0.31181 0.3536 0.33271 0.0
C107 C 0.28919 0.31993 0.36017 0.0
C108 C 0.33366 0.35321 0.31846 0.0
N109 N 0.3459 0.33016 0.32089 0.0
C110 C 0.34196 0.37409 0.30026 0.0
H111 H 0.27474 0.30748 0.34659 0.0
H112 H 0.2798 0.33754 0.37134 0.0
H113 H 0.29598 0.30682 0.37471 0.0
H114 H 0.36079 0.3843 0.30716 0.0
H115 H 0.32818 0.39023 0.30005 0.0
H116 H 0.34425 0.36343 0.2795 0.0
C117 C 0.47716 0.97955 0.58605 0.0
N118 N 0.49095 0.95726 0.58703 0.0
N119 N 0.4665 0.97873 0.56137 0.0
C120 C 0.47526 0.00304 0.6085 0.0
C121 C 0.47428 0.95529 0.54731 0.0
N122 N 0.48939 0.94238 0.56279 0.0
C123 C 0.46558 0.94384 0.51914 0.0
H124 H 0.4596 0.99764 0.62206 0.0
H125 H 0.47089 0.02225 0.60055 0.0
H126 H 0.49333 0.00684 0.62039 0.0
H127 H 0.4815 0.94696 0.50512 0.0
H128 H 0.44882 0.95406 0.51278 0.0
H129 H 0.46059 0.92131 0.5177 0.0
C130 C 0.2046 0.23094 0.72279 0.0
N131 N 0.22408 0.24536 0.71211 0.0
N132 N 0.19836 0.2439 0.74727 0.0
C133 C 0.19272 0.20334 0.71015 0.0
C134 C 0.2148 0.26671 0.7511 0.0
N135 N 0.23066 0.26736 0.72993 0.0
C136 C 0.21378 0.28967 0.77428 0.0
H137 H 0.17716 0.20664 0.69619 0.0
H138 H 0.18451 0.19135 0.72568 0.0
H139 H 0.20707 0.19122 0.69846 0.0
H140 H 0.22606 0.28512 0.79092 0.0
H141 H 0.19401 0.29138 0.78177 0.0
H142 H 0.22093 0.30983 0.76844 0.0
C143 C 0.75924 0.21477 0.72757 0.0
N144 N 0.77103 0.20384 0.74721 0.0
N145 N 0.77252 0.23798 0.72209 0.0
C146 C 0.73415 0.20338 0.71455 0.0
C147 C 0.79286 0.24079 0.73925 0.0
N148 N 0.79182 0.22014 0.75479 0.0
C149 C 0.81488 0.26213 0.73903 0.0
H150 H 0.7241 0.21976 0.70652 0.0
H151 H 0.72166 0.19396 0.72912 0.0
H152 H 0.73781 0.18704 0.69768 0.0
H153 H 0.81152 0.28012 0.75429 0.0
H154 H 0.81668 0.26936 0.71909 0.0
H155 H 0.8331 0.25374 0.74417 0.0
C156 C 0.52917 0.49543 0.56081 0.0
N157 N 0.54218 0.50595 0.54079 0.0
N158 N 0.51029 0.51164 0.56981 0.0
C159 C 0.53533 0.46964 0.57194 0.0
C160 C 0.51236 0.53257 0.55482 0.0
N161 N 0.53196 0.52937 0.53737 0.0
C162 C 0.49517 0.55611 0.5572 0.0
H163 H 0.52557 0.46783 0.59124 0.0
H164 H 0.55628 0.46943 0.57489 0.0
H165 H 0.52906 0.45139 0.5572 0.0
H166 H 0.50504 0.57437 0.5695 0.0
H167 H 0.47695 0.55089 0.56708 0.0
H168 H 0.49105 0.5618 0.53705 0.0
C169 C 0.53834 0.48298 0.95357 0.0
N170 N 0.55983 0.48793 0.96897 0.0
N171 N 0.53876 0.49952 0.9341 0.0
C172 C 0.51606 0.46345 0.95887 0.0
C173 C 0.56115 0.51502 0.93838 0.0
N174 N 0.57389 0.50825 0.95987 0.0
C175 C 0.57147 0.53493 0.92007 0.0
H176 H 0.49792 0.46982 0.95104 0.0
H177 H 0.51414 0.46254 0.98073 0.0
H178 H 0.51938 0.44243 0.94874 0.0
H179 H 0.56662 0.5561 0.9283 0.0
H180 H 0.56295 0.52972 0.89959 0.0
H181 H 0.59257 0.53477 0.91864 0.0
C182 C 0.6963 0.24236 0.26829 0.0
N183 N 0.71119 0.22739 0.28187 0.0
N184 N 0.69138 0.22936 0.24306 0.0
C185 C 0.68494 0.26862 0.28033 0.0
C186 C 0.70357 0.20576 0.24188 0.0
N187 N 0.71555 0.20445 0.2656 0.0
C188 C 0.70499 0.18495 0.21703 0.0
H189 H 0.66615 0.27069 0.27091 0.0
H190 H 0.69804 0.28647 0.27673 0.0
H191 H 0.6825 0.26935 0.30236 0.0
H192 H 0.72367 0.17556 0.21605 0.0
H193 H 0.70221 0.19467 0.19863 0.0
H194 H 0.68965 0.16829 0.2176 0.0
C195 C 0.42818 0.05391 0.95694 0.0
N196 N 0.44714 0.07439 0.96048 0.0
N197 N 0.40978 0.05864 0.97557 0.0
C198 C 0.42898 0.02783 0.93726 0.0
C199 C 0.41839 0.08247 0.99077 0.0
N200 N 0.44126 0.09185 0.98186 0.0
C201 C 0.40367 0.09735 0.01334 0.0
H202 H 0.41837 0.01017 0.94486 0.0
H203 H 0.44895 0.02252 0.93321 0.0
H204 H 0.41998 0.03105 0.91802 0.0
H205 H 0.38288 0.09163 0.01087 0.0
H206 H 0.4071 0.12006 0.01416 0.0
H207 H 0.41012 0.09154 0.03272 0.0
Zn208 Zn 0.27977 0.8471 0.01864 0.0
Zn209 Zn 0.23745 0.87166 0.02395 0.0
O210 O 0.24204 0.85651 0.06099 0.0
O211 O 0.28033 0.84079 0.0568 0.0
O212 O 0.20472 0.89249 0.02785 0.0
O213 O 0.29919 0.87999 0.00771 0.0
O214 O 0.26471 0.90257 0.0162 0.0
C215 C 0.26082 0.84571 0.07088 0.0
C216 C 0.24314 0.82078 0.98075 0.0
O217 O 0.23045 0.84103 0.99079 0.0
O218 O 0.26487 0.81771 0.99041 0.0
C219 C 0.19817 0.90653 0.00967 0.0
O220 O 0.21235 0.90664 0.98813 0.0
C221 C 0.28807 0.90221 0.00919 0.0
Zn222 Zn 0.09967 0.45322 0.30642 0.0
Zn223 Zn 0.12538 0.50119 0.29924 0.0
O224 O 0.09976 0.51394 0.32876 0.0
O225 O 0.07824 0.47497 0.33423 0.0
O226 O 0.1482 0.53572 0.29631 0.0
O227 O 0.1317 0.43699 0.31738 0.0
O228 O 0.15233 0.47547 0.30917 0.0
C229 C 0.08206 0.50092 0.34029 0.0
C230 C 0.0948 0.4671 0.25238 0.0
O231 O 0.108 0.48913 0.26203 0.0
O232 O 0.08941 0.44839 0.26697 0.0
C233 C 0.14986 0.54886 0.27618 0.0
O234 O 0.13499 0.54067 0.25508 0.0
C235 C 0.15251 0.45139 0.31602 0.0
Zn236 Zn 0.80211 0.59681 0.94063 0.0
Zn237 Zn 0.79705 0.63234 0.98621 0.0
O238 O 0.82599 0.60926 0.99625 0.0
O239 O 0.82932 0.5791 0.95985 0.0
O240 O 0.79187 0.65846 0.02037 0.0
O241 O 0.81263 0.629 0.92075 0.0
O242 O 0.80641 0.65794 0.95743 0.0
C243 C 0.83637 0.58856 0.98371 0.0
C244 C 0.7521 0.59151 0.96348 0.0
O245 O 0.76222 0.60991 0.98154 0.0
O246 O 0.76474 0.58299 0.94288 0.0
C247 C 0.78537 0.64764 0.04117 0.0
O248 O 0.78312 0.62057 0.03944 0.0
C249 C 0.81259 0.65353 0.93269 0.0
Zn250 Zn 0.82951 0.99573 0.31204 0.0
Zn251 Zn 0.85651 1.0002 0.26747 0.0
O252 O 0.83485 0.03456 0.2704 0.0
O253 O 0.81445 0.03176 0.30834 0.0
O254 O 0.87978 0.00272 0.23562 0.0
O255 O 0.8616 0.99579 0.33428 0.0
O256 O 0.88334 0.00133 0.29782 0.0
C257 C 0.81943 0.04434 0.28835 0.0
C258 C 0.81896 0.94952 0.27034 0.0
O259 O 0.83597 0.96237 0.25774 0.0
O260 O 0.81246 0.95978 0.29368 0.0
C261 C 0.87426 0.01053 0.21331 0.0
O262 O 0.85116 0.01812 0.2094 0.0
C263 C 0.88283 0.99906 0.32281 0.0
Zn264 Zn 0.30173 0.09503 0.44021 0.0
Zn265 Zn 0.29823 0.13083 0.48572 0.0
O266 O 0.32744 0.10772 0.495 0.0
O267 O 0.32811 0.07604 0.45937 0.0
O268 O 0.29383 0.15723 0.51986 0.0
O269 O 0.3131 0.12703 0.4202 0.0
O270 O 0.30702 0.15621 0.45673 0.0
C271 C 0.33644 0.08604 0.48265 0.0
C272 C 0.25223 0.09086 0.46393 0.0
O273 O 0.26315 0.10869 0.482 0.0
O274 O 0.26412 0.08248 0.44277 0.0
C275 C 0.2875 0.14674 0.5409 0.0
O276 O 0.28502 0.11969 0.53948 0.0
C277 C 0.31314 0.15162 0.432 0.0
Zn278 Zn 0.32921 0.49803 0.80986 0.0
Zn279 Zn 0.35481 0.50409 0.76492 0.0
O280 O 0.33267 0.53817 0.77027 0.0
O281 O 0.31334 0.53405 0.80854 0.0
O282 O 0.37555 0.50871 0.73157 0.0
O283 O 0.3622 0.49765 0.83041 0.0
O284 O 0.38314 0.50437 0.79372 0.0
C285 C 0.31765 0.54732 0.78891 0.0
C286 C 0.31806 0.45265 0.76768 0.0
O287 O 0.33461 0.46604 0.755 0.0
O288 O 0.31192 0.46236 0.79131 0.0
C289 C 0.39014 0.48994 0.72261 0.0
O290 O 0.39072 0.46798 0.73491 0.0
C291 C 0.38317 0.50126 0.81853 0.0
Zn292 Zn 0.77881 0.34014 0.51037 0.0
Zn293 Zn 0.73584 0.36352 0.51545 0.0
O294 O 0.7403 0.34782 0.55228 0.0
O295 O 0.77868 0.33233 0.54809 0.0
O296 O 0.70287 0.38398 0.51936 0.0
O297 O 0.79804 0.37385 0.50104 0.0
O298 O 0.76271 0.39514 0.50857 0.0
C299 C 0.75904 0.33685 0.56208 0.0
C300 C 0.74323 0.31411 0.47099 0.0
O301 O 0.7297 0.33342 0.48159 0.0
O302 O 0.76504 0.31162 0.48079 0.0
C303 C 0.69716 0.39957 0.50217 0.0
O304 O 0.71222 0.4013 0.48151 0.0
C305 C 0.7863 0.39566 0.50235 0.0
Zn306 Zn 0.60108 0.95461 0.81028 0.0
Zn307 Zn 0.62611 0.00229 0.8006 0.0
O308 O 0.60221 0.0159 0.83159 0.0
O309 O 0.58129 0.97719 0.83896 0.0
O310 O 0.64738 0.03685 0.79375 0.0
O311 O 0.63381 0.93868 0.81961 0.0
O312 O 0.65375 0.97673 0.80939 0.0
C313 C 0.58526 0.00319 0.84438 0.0
C314 C 0.59296 0.9669 0.75631 0.0
O315 O 0.60667 0.98896 0.7648 0.0
O316 O 0.58838 0.94866 0.7716 0.0
C317 C 0.66845 0.04399 0.80631 0.0
O318 O 0.67586 0.02928 0.82453 0.0
C319 C 0.65443 0.95291 0.81674 0.0
Zn320 Zn 0.99583 0.2659 0.87287 0.0
Zn321 Zn 0.99883 0.222 0.8957 0.0
O322 O 0.03149 0.2243 0.87173 0.0
O323 O 0.03053 0.26454 0.8572 0.0
O324 O 0.00328 0.18758 0.91419 0.0
O325 O 0.9909 0.28948 0.90778 0.0
O326 O 0.99786 0.25381 0.92834 0.0
C327 C 0.04178 0.24283 0.85881 0.0
C328 C 0.95448 0.2269 0.85595 0.0
O329 O 0.96396 0.21396 0.87372 0.0
O330 O 0.96559 0.24929 0.85083 0.0
C331 C 0.02523 0.17876 0.91758 0.0
O332 O 0.04547 0.19181 0.90867 0.0
C333 C 0.99369 0.27934 0.92936 0.0
Zn334 Zn 0.49549 0.76638 0.37906 0.0
Zn335 Zn 0.49759 0.72106 0.39915 0.0
O336 O 0.52984 0.72315 0.37458 0.0
O337 O 0.52927 0.76403 0.36134 0.0
O338 O 0.5014 0.68563 0.41627 0.0
O339 O 0.49255 0.78924 0.41447 0.0
O340 O 0.49808 0.75189 0.43306 0.0
C341 C 0.5401 0.74187 0.36186 0.0
C342 C 0.45211 0.7303 0.36228 0.0
O343 O 0.4622 0.71505 0.37764 0.0
O344 O 0.4636 0.75305 0.35874 0.0
C345 C 0.52334 0.67693 0.42 0.0
O346 O 0.54372 0.6907 0.41224 0.0
C347 C 0.495 0.77777 0.43528 0.0
Zn348 Zn 0.96002 0.82452 0.60503 0.0
Zn349 Zn 0.00382 0.81052 0.62468 0.0
O350 O 0.01563 0.84668 0.60991 0.0
O351 O 0.97969 0.85758 0.59277 0.0
O352 O 0.03576 0.79798 0.63976 0.0
O353 O 0.94423 0.82698 0.64198 0.0
O354 O 0.97962 0.81301 0.6575 0.0
C355 C 0.00347 0.8626 0.59718 0.0
C356 C 0.97504 0.77211 0.57926 0.0
O357 O 0.9943 0.77841 0.59491 0.0
O358 O 0.95693 0.78802 0.58005 0.0
C359 C 0.04906 0.81267 0.65827 0.0
O360 O 0.04217 0.83743 0.6676 0.0
C361 C 0.95679 0.82 0.66124 0.0
Zn362 Zn 0.46187 0.32911 0.10782 0.0
Zn363 Zn 0.50596 0.31728 0.1287 0.0
O364 O 0.51674 0.35284 0.11231 0.0
O365 O 0.48054 0.3622 0.09457 0.0
O366 O 0.53805 0.30778 0.14619 0.0
O367 O 0.44517 0.33213 0.14434 0.0
O368 O 0.4808 0.31961 0.16068 0.0
C369 C 0.50426 0.36788 0.09888 0.0
C370 C 0.47899 0.27647 0.08417 0.0
O371 O 0.49801 0.28376 0.09997 0.0
O372 O 0.46053 0.29183 0.08411 0.0
C373 C 0.55631 0.29704 0.13291 0.0
O374 O 0.55481 0.29283 0.10651 0.0
C375 C 0.4577 0.32581 0.16394 0.0
C376 C 0.23586 0.75468 0.8304 0.0
C377 C 0.21572 0.73511 0.82239 0.0
C378 C 0.23966 0.76548 0.85757 0.0
C379 C 0.22271 0.75654 0.87706 0.0
C380 C 0.2032 0.7355 0.86913 0.0
C381 C 0.19988 0.7251 0.84175 0.0
C382 C 0.2608 0.78774 0.86515 0.0
C383 C 0.18489 0.72524 0.88927 0.0
C384 C 0.24582 0.77716 0.94905 0.0
C385 C 0.23423 0.8021 0.95625 0.0
C386 C 0.24114 0.76126 0.92387 0.0
C387 C 0.22459 0.77057 0.90532 0.0
C388 C 0.21162 0.79483 0.91305 0.0
C389 C 0.21651 0.81028 0.93852 0.0
C390 C 0.25504 0.73533 0.91657 0.0
C391 C 0.19372 0.80536 0.89381 0.0
H392 H 0.24758 0.76272 0.81512 0.0
H393 H 0.18397 0.7104 0.83518 0.0
H394 H 0.25241 0.80753 0.8725 0.0
H395 H 0.27268 0.78239 0.88173 0.0
H396 H 0.27337 0.79093 0.84791 0.0
H397 H 0.17305 0.70647 0.88047 0.0
H398 H 0.19541 0.7205 0.90708 0.0
H399 H 0.17196 0.74163 0.89642 0.0
H400 H 0.25933 0.77051 0.96278 0.0
H401 H 0.20752 0.8295 0.94393 0.0
H402 H 0.26958 0.73879 0.90116 0.0
H403 H 0.24157 0.71798 0.90772 0.0
H404 H 0.26481 0.72916 0.93424 0.0
H405 H 0.20472 0.81197 0.87667 0.0
H406 H 0.18353 0.82315 0.90359 0.0
H407 H 0.17939 0.78866 0.88543 0.0
C408 C 0.98786 0.56929 0.4525 0.0
C409 C 0.96489 0.57179 0.43914 0.0
C410 C 0.00997 0.56267 0.43793 0.0
C411 C 0.00883 0.55834 0.40942 0.0
C412 C 0.98618 0.56338 0.39602 0.0
C413 C 0.96448 0.57007 0.4111 0.0
C414 C 0.03379 0.5579 0.45303 0.0
C415 C 0.98406 0.55913 0.36572 0.0
C416 C 0.06713 0.54493 0.3656 0.0
C417 C 0.0649 0.51597 0.35979 0.0
C418 C 0.04959 0.55914 0.38252 0.0
C419 C 0.02931 0.54405 0.39374 0.0
C420 C 0.02746 0.51482 0.3886 0.0
C421 C 0.04526 0.5012 0.37181 0.0
C422 C 0.05229 0.59029 0.38772 0.0
C423 C 0.00612 0.49786 0.40013 0.0
H424 H 0.98799 0.57049 0.47422 0.0
H425 H 0.94659 0.57211 0.40097 0.0
H426 H 0.0356 0.53536 0.45211 0.0
H427 H 0.05107 0.56673 0.44373 0.0
H428 H 0.03325 0.56708 0.47451 0.0
H429 H 0.96663 0.56766 0.35852 0.0
H430 H 1.00103 0.56897 0.35677 0.0
H431 H 0.98328 0.53669 0.35823 0.0
H432 H 0.08227 0.55655 0.35649 0.0
H433 H 0.04337 0.47884 0.36763 0.0
H434 H 0.05122 0.5976 0.40959 0.0
H435 H 0.03628 0.59877 0.37778 0.0
H436 H 0.07057 0.5988 0.38002 0.0
H437 H 0.00585 0.50307 0.42234 0.0
H438 H 0.00798 0.47529 0.39506 0.0
H439 H 0.98744 0.50277 0.39225 0.0
C440 C 0.85608 0.78657 0.86099 0.0
C441 C 0.8365 0.78999 0.84306 0.0
C442 C 0.85558 0.763 0.87421 0.0
C443 C 0.83481 0.74274 0.86951 0.0
C444 C 0.81612 0.74523 0.84974 0.0
C445 C 0.81737 0.76873 0.83658 0.0
C446 C 0.87627 0.76076 0.89456 0.0
C447 C 0.79359 0.72429 0.84408 0.0
C448 C 0.83389 0.67248 0.89385 0.0
C449 C 0.81967 0.67687 0.91755 0.0
C450 C 0.83993 0.69399 0.87859 0.0
C451 C 0.83109 0.72043 0.88688 0.0
C452 C 0.81711 0.72512 0.91103 0.0
C453 C 0.81181 0.70337 0.92622 0.0
C454 C 0.85534 0.68829 0.85333 0.0
C455 C 0.80699 0.75291 0.92037 0.0
H456 H 0.87074 0.8032 0.86601 0.0
H457 H 0.8023 0.7716 0.82264 0.0
H458 H 0.86855 0.76512 0.91514 0.0
H459 H 0.88284 0.73953 0.89216 0.0
H460 H 0.89296 0.77561 0.89275 0.0
H461 H 0.78199 0.72801 0.82655 0.0
H462 H 0.80011 0.70308 0.84019 0.0
H463 H 0.78113 0.72527 0.86198 0.0
H464 H 0.8403 0.65213 0.88716 0.0
H465 H 0.8008 0.70691 0.94446 0.0
H466 H 0.87169 0.70394 0.8535 0.0
H467 H 0.84329 0.68986 0.83549 0.0
H468 H 0.86278 0.66741 0.85097 0.0
H469 H 0.82289 0.76924 0.92259 0.0
H470 H 0.79696 0.75339 0.93987 0.0
H471 H 0.79349 0.7581 0.90508 0.0
C472 C 0.00738 0.02601 0.41799 0.0
C473 C 0.01863 0.00122 0.41964 0.0
C474 C 0.98649 0.0268 0.40064 0.0
C475 C 0.97666 0.00214 0.38475 0.0
C476 C 0.98866 0.97726 0.38566 0.0
C477 C 0.00958 0.97715 0.40308 0.0
C478 C 0.9743 0.05375 0.40016 0.0
C479 C 0.97878 0.95053 0.36907 0.0
C480 C 0.90629 0.99575 0.36557 0.0
C481 C 0.90695 1.00015 0.33854 0.0
C482 C 0.92884 0.99648 0.38079 0.0
C483 C 0.9527 0.00186 0.36877 0.0
C484 C 0.95356 0.0065 0.34156 0.0
C485 C 0.93068 0.00553 0.32673 0.0
C486 C 0.92712 0.9913 0.40974 0.0
C487 C 0.97866 0.01239 0.32811 0.0
H488 H 0.01442 0.04452 0.43099 0.0
H489 H 0.01859 0.95811 0.40432 0.0
H490 H 0.97218 0.05799 0.37915 0.0
H491 H 0.95487 0.05231 0.40874 0.0
H492 H 0.98558 0.07144 0.41187 0.0
H493 H 0.99132 0.93346 0.37073 0.0
H494 H 0.95938 0.94436 0.37585 0.0
H495 H 0.97713 0.95332 0.3476 0.0
H496 H 0.8881 0.99155 0.3749 0.0
H497 H 0.93139 0.00901 0.30588 0.0
H498 H 0.93612 0.00928 0.42317 0.0
H499 H 0.93775 0.97309 0.4126 0.0
H500 H 0.90707 0.98755 0.41612 0.0
H501 H 0.98917 0.03084 0.3394 0.0
H502 H 0.97605 0.01602 0.30694 0.0
H503 H 0.99082 0.99477 0.32834 0.0
C504 C 0.22067 0.23194 0.66319 0.0
C505 C 0.23583 0.238 0.68649 0.0
C506 C 0.2309 0.22018 0.63885 0.0
C507 C 0.25703 0.21459 0.63782 0.0
C508 C 0.27285 0.22257 0.66091 0.0
C509 C 0.26199 0.23417 0.68507 0.0
C510 C 0.21335 0.21211 0.61476 0.0
C511 C 0.30084 0.21728 0.66059 0.0
C512 C 0.27218 0.15225 0.5883 0.0
C513 C 0.28145 0.16444 0.56621 0.0
C514 C 0.2648 0.16841 0.6119 0.0
C515 C 0.26688 0.19758 0.61362 0.0
C516 C 0.27693 0.2101 0.59174 0.0
C517 C 0.28403 0.19338 0.56823 0.0
C518 C 0.25409 0.1542 0.63473 0.0
C519 C 0.27962 0.24112 0.59293 0.0
H520 H 0.20051 0.23541 0.66438 0.0
H521 H 0.27361 0.23888 0.70321 0.0
H522 H 0.22181 0.21977 0.59673 0.0
H523 H 0.21083 0.18925 0.61033 0.0
H524 H 0.19422 0.22029 0.61811 0.0
H525 H 0.31116 0.22819 0.67876 0.0
H526 H 0.30291 0.1948 0.65974 0.0
H527 H 0.31006 0.22393 0.64245 0.0
H528 H 0.27015 0.12993 0.587 0.0
H529 H 0.29128 0.20299 0.55132 0.0
H530 H 0.234 0.15933 0.63835 0.0
H531 H 0.26508 0.16168 0.65353 0.0
H532 H 0.25454 0.13138 0.63057 0.0
H533 H 0.26043 0.24937 0.59397 0.0
H534 H 0.28962 0.24767 0.57514 0.0
H535 H 0.29031 0.25061 0.61138 0.0
C536 C 0.46764 0.4979 0.58557 0.0
C537 C 0.49283 0.50829 0.5913 0.0
C538 C 0.45026 0.49487 0.60639 0.0
C539 C 0.45839 0.50254 0.63352 0.0
C540 C 0.48394 0.51313 0.63927 0.0
C541 C 0.50088 0.51584 0.61801 0.0
C542 C 0.42326 0.48342 0.59939 0.0
C543 C 0.49337 0.52158 0.66784 0.0
C544 C 0.40854 0.51754 0.68766 0.0
C545 C 0.40695 0.49301 0.69927 0.0
C546 C 0.42507 0.52088 0.66615 0.0
C547 C 0.4403 0.49913 0.6559 0.0
C548 C 0.43854 0.47421 0.66731 0.0
C549 C 0.42195 0.47148 0.68885 0.0
C550 C 0.42646 0.54779 0.65458 0.0
C551 C 0.45435 0.45048 0.6569 0.0
H552 H 0.46167 0.4922 0.56475 0.0
H553 H 0.52045 0.52395 0.62213 0.0
H554 H 0.41903 0.46431 0.6086 0.0
H555 H 0.40954 0.4985 0.60776 0.0
H556 H 0.41997 0.47858 0.57733 0.0
H557 H 0.5137 0.52972 0.66886 0.0
H558 H 0.48159 0.5377 0.67816 0.0
H559 H 0.49135 0.50362 0.67913 0.0
H560 H 0.39707 0.53431 0.69557 0.0
H561 H 0.42084 0.45241 0.6976 0.0
H562 H 0.42192 0.54389 0.63273 0.0
H563 H 0.44617 0.55765 0.65688 0.0
H564 H 0.41309 0.56252 0.66451 0.0
H565 H 0.45048 0.4441 0.63511 0.0
H566 H 0.45037 0.43227 0.66758 0.0
H567 H 0.47497 0.45714 0.65924 0.0
C568 C 0.76442 0.24153 0.67443 0.0
C569 C 0.76743 0.25426 0.70107 0.0
C570 C 0.76034 0.25705 0.6535 0.0
C571 C 0.7593 0.2861 0.65935 0.0
C572 C 0.76164 0.29897 0.68641 0.0
C573 C 0.76577 0.28286 0.70697 0.0
C574 C 0.75818 0.24246 0.62498 0.0
C575 C 0.7606 0.32981 0.69353 0.0
C576 C 0.78146 0.32382 0.60171 0.0
C577 C 0.75833 0.32797 0.58921 0.0
C578 C 0.78193 0.3115 0.62526 0.0
C579 C 0.75867 0.303 0.63681 0.0
C580 C 0.73518 0.30855 0.62525 0.0
C581 C 0.73528 0.32107 0.60155 0.0
C582 C 0.80743 0.30622 0.63691 0.0
C583 C 0.70999 0.3 0.63712 0.0
H584 H 0.76594 0.21943 0.66996 0.0
H585 H 0.76791 0.29256 0.72767 0.0
H586 H 0.74078 0.24811 0.61502 0.0
H587 H 0.77486 0.24911 0.61331 0.0
H588 H 0.75742 0.21963 0.62404 0.0
H589 H 0.76009 0.33624 0.71562 0.0
H590 H 0.77764 0.34046 0.68547 0.0
H591 H 0.74351 0.33688 0.68416 0.0
H592 H 0.79941 0.32944 0.59254 0.0
H593 H 0.71735 0.32421 0.59203 0.0
H594 H 0.80956 0.28364 0.63474 0.0
H595 H 0.80852 0.31413 0.6587 0.0
H596 H 0.82374 0.31604 0.6268 0.0
H597 H 0.70693 0.27714 0.63381 0.0
H598 H 0.69367 0.30878 0.62793 0.0
H599 H 0.71011 0.30665 0.65916 0.0
C600 C 0.49556 0.95318 0.635 0.0
C601 C 0.50621 0.95198 0.60939 0.0
C602 C 0.511 0.95345 0.65787 0.0
C603 C 0.53771 0.95184 0.65493 0.0
C604 C 0.54832 0.9486 0.62884 0.0
C605 C 0.5324 0.94888 0.60632 0.0
C606 C 0.49886 0.95695 0.68526 0.0
C607 C 0.5766 0.94617 0.6248 0.0
C608 C 0.57771 0.98543 0.71543 0.0
C609 C 0.58126 0.9628 0.72901 0.0
C610 C 0.56422 0.98201 0.69083 0.0
C611 C 0.55449 0.95526 0.67931 0.0
C612 C 0.55916 0.93218 0.69226 0.0
C613 C 0.57226 0.93626 0.71707 0.0
C614 C 0.5594 0.00719 0.67778 0.0
C615 C 0.5496 0.90328 0.68036 0.0
H616 H 0.4752 0.95512 0.63714 0.0
H617 H 0.54057 0.94808 0.58645 0.0
H618 H 0.504 0.94028 0.69672 0.0
H619 H 0.50623 0.97688 0.69687 0.0
H620 H 0.4777 0.95671 0.68398 0.0
H621 H 0.58129 0.94027 0.6033 0.0
H622 H 0.58707 0.96627 0.63214 0.0
H623 H 0.58364 0.93062 0.63662 0.0
H624 H 0.58456 0.00599 0.72454 0.0
H625 H 0.57519 0.91861 0.72731 0.0
H626 H 0.53858 0.00986 0.67731 0.0
H627 H 0.56596 0.00446 0.65665 0.0
H628 H 0.56924 0.02635 0.68861 0.0
H629 H 0.52843 0.90125 0.68097 0.0
H630 H 0.55715 0.88733 0.69138 0.0
H631 H 0.55513 0.89907 0.65895 0.0
C632 C 0.8236 0.19037 0.76962 0.0
C633 C 0.8111 0.21492 0.77366 0.0
C634 C 0.8454 0.18709 0.78497 0.0
C635 C 0.85489 0.20897 0.80473 0.0
C636 C 0.84107 0.23296 0.81014 0.0
C637 C 0.81937 0.23562 0.79452 0.0
C638 C 0.85933 0.1611 0.7786 0.0
C639 C 0.85028 0.25675 0.83108 0.0
C640 C 0.90975 0.20393 0.85384 0.0
C641 C 0.93006 0.2173 0.84149 0.0
C642 C 0.88524 0.19977 0.84162 0.0
C643 C 0.88113 0.20904 0.81647 0.0
C644 C 0.90206 0.22086 0.80326 0.0
C645 C 0.92611 0.22489 0.81592 0.0
C646 C 0.86349 0.18691 0.85628 0.0
C647 C 0.8988 0.23075 0.7763 0.0
H648 H 0.81722 0.17443 0.75337 0.0
H649 H 0.80945 0.25446 0.79772 0.0
H650 H 0.87667 0.16554 0.7669 0.0
H651 H 0.86563 0.15376 0.79733 0.0
H652 H 0.84724 0.14429 0.76657 0.0
H653 H 0.8358 0.27225 0.83521 0.0
H654 H 0.85512 0.24917 0.85016 0.0
H655 H 0.86792 0.26719 0.82396 0.0
H656 H 0.91263 0.19813 0.87365 0.0
H657 H 0.9418 0.23496 0.80611 0.0
H658 H 0.85194 0.17123 0.84236 0.0
H659 H 0.85067 0.2031 0.8643 0.0
H660 H 0.87036 0.17702 0.87333 0.0
H661 H 0.88936 0.21404 0.76168 0.0
H662 H 0.91731 0.23765 0.76784 0.0
H663 H 0.88634 0.2483 0.77847 0.0
C664 C 0.51549 0.91141 0.53393 0.0
C665 C 0.49839 0.91539 0.55517 0.0
C666 C 0.51802 0.885 0.51978 0.0
C667 C 0.5028 0.86214 0.52696 0.0
C668 C 0.48779 0.86571 0.55046 0.0
C669 C 0.48573 0.89245 0.56432 0.0
C670 C 0.53462 0.88224 0.49518 0.0
C671 C 0.4716 0.84194 0.55914 0.0
C672 C 0.47739 0.81665 0.46436 0.0
C673 C 0.49404 0.79533 0.46164 0.0
C674 C 0.47902 0.83739 0.48653 0.0
C675 C 0.49803 0.83708 0.50656 0.0
C676 C 0.5138 0.81453 0.50493 0.0
C677 C 0.51156 0.79374 0.48241 0.0
C678 C 0.46153 0.86075 0.48738 0.0
C679 C 0.53412 0.81327 0.52592 0.0
H680 H 0.52516 0.92934 0.52698 0.0
H681 H 0.47239 0.89574 0.5807 0.0
H682 H 0.5454 0.86344 0.49405 0.0
H683 H 0.52234 0.88022 0.47688 0.0
H684 H 0.54838 0.9005 0.49504 0.0
H685 H 0.46596 0.84642 0.58052 0.0
H686 H 0.45395 0.83817 0.54656 0.0
H687 H 0.48186 0.82271 0.55635 0.0
H688 H 0.46366 0.81774 0.44841 0.0
H689 H 0.52455 0.77733 0.48028 0.0
H690 H 0.47281 0.87991 0.48388 0.0
H691 H 0.4526 0.86476 0.50741 0.0
H692 H 0.4461 0.85636 0.47187 0.0
H693 H 0.5509 0.82723 0.5222 0.0
H694 H 0.54053 0.79204 0.52528 0.0
H695 H 0.52715 0.8203 0.5464 0.0
C696 C 0.18052 0.23688 0.7914 0.0
C697 C 0.17703 0.23722 0.76379 0.0
C698 C 0.1595 0.23406 0.80833 0.0
C699 C 0.13444 0.2313 0.79723 0.0
C700 C 0.13098 0.2299 0.76906 0.0
C701 C 0.15233 0.23308 0.75271 0.0
C702 C 0.16405 0.23578 0.83822 0.0
C703 C 0.10464 0.22684 0.75636 0.0
C704 C 0.07606 0.21333 0.83826 0.0
C705 C 0.06662 0.23943 0.84518 0.0
C706 C 0.09853 0.21026 0.82315 0.0
C707 C 0.11191 0.23388 0.81515 0.0
C708 C 0.10298 0.26034 0.82311 0.0
C709 C 0.08045 0.26275 0.83786 0.0
C710 C 0.10744 0.18172 0.81494 0.0
C711 C 0.11682 0.28614 0.81537 0.0
H712 H 0.19971 0.23981 0.79983 0.0
H713 H 0.14966 0.23363 0.73139 0.0
H714 H 0.15802 0.25581 0.84845 0.0
H715 H 0.15244 0.21916 0.84646 0.0
H716 H 0.18449 0.23422 0.84322 0.0
H717 H 0.10532 0.22254 0.73406 0.0
H718 H 0.09287 0.20989 0.7639 0.0
H719 H 0.09491 0.24617 0.76196 0.0
H720 H 0.06546 0.19523 0.84386 0.0
H721 H 0.07349 0.28305 0.84342 0.0
H722 H 0.12793 0.18122 0.82021 0.0
H723 H 0.10555 0.17624 0.79279 0.0
H724 H 0.09624 0.16578 0.82464 0.0
H725 H 0.13718 0.28738 0.82174 0.0
H726 H 0.10821 0.30527 0.82453 0.0
H727 H 0.11634 0.28539 0.79319 0.0
C728 C 0.54574 0.57537 0.52663 0.0
C729 C 0.5389 0.54745 0.51784 0.0
C730 C 0.54528 0.59522 0.50899 0.0
C731 C 0.53795 0.5869 0.48173 0.0
C732 C 0.53295 0.55835 0.4723 0.0
C733 C 0.53341 0.53894 0.49055 0.0
C734 C 0.55085 0.62531 0.52001 0.0
C735 C 0.52547 0.54848 0.44336 0.0
C736 C 0.50597 0.64102 0.4479 0.0
C737 C 0.52637 0.65245 0.43409 0.0
C738 C 0.50934 0.61921 0.46288 0.0
C739 C 0.53363 0.6083 0.46389 0.0
C740 C 0.55404 0.6191 0.44921 0.0
C741 C 0.55021 0.64108 0.43465 0.0
C742 C 0.48708 0.60842 0.47835 0.0
C743 C 0.58012 0.60792 0.44945 0.0
H744 H 0.54979 0.58181 0.54784 0.0
H745 H 0.52778 0.51737 0.48392 0.0
H746 H 0.56499 0.63521 0.50731 0.0
H747 H 0.53308 0.6363 0.51963 0.0
H748 H 0.55831 0.62814 0.54102 0.0
H749 H 0.52564 0.52568 0.43841 0.0
H750 H 0.50595 0.55451 0.43951 0.0
H751 H 0.53857 0.55835 0.42961 0.0
H752 H 0.4875 0.64961 0.44763 0.0
H753 H 0.56609 0.64957 0.4239 0.0
H754 H 0.49157 0.61223 0.50022 0.0
H755 H 0.48367 0.58576 0.47268 0.0
H756 H 0.46922 0.61833 0.47471 0.0
H757 H 0.58856 0.61252 0.47 0.0
H758 H 0.5934 0.61697 0.43529 0.0
H759 H 0.57854 0.58513 0.44405 0.0
C760 C 0.86423 0.79918 0.78314 0.0
C761 C 0.86857 0.82089 0.8042 0.0
C762 C 0.88171 0.79521 0.76199 0.0
C763 C 0.90378 0.81364 0.76191 0.0
C764 C 0.90942 0.83374 0.78464 0.0
C765 C 0.89177 0.83696 0.8056 0.0
C766 C 0.87521 0.7731 0.7385 0.0
C767 C 0.9326 0.8539 0.78553 0.0
C768 C 0.95323 0.80301 0.70633 0.0
C769 C 0.94429 0.81912 0.68767 0.0
C770 C 0.94025 0.80077 0.73057 0.0
C771 C 0.9181 0.81536 0.73645 0.0
C772 C 0.90938 0.8321 0.71791 0.0
C773 C 0.92242 0.83359 0.69375 0.0
C774 C 0.94993 0.78245 0.74963 0.0
C775 C 0.88612 0.84846 0.72354 0.0
H776 H 0.84616 0.78693 0.78204 0.0
H777 H 0.89497 0.85371 0.82201 0.0
H778 H 0.8677 0.78273 0.72161 0.0
H779 H 0.89247 0.76258 0.73133 0.0
H780 H 0.86047 0.7574 0.74378 0.0
H781 H 0.93658 0.86485 0.80616 0.0
H782 H 0.94974 0.84325 0.77824 0.0
H783 H 0.92928 0.86952 0.77209 0.0
H784 H 0.97 0.79159 0.70168 0.0
H785 H 0.91545 0.8462 0.67955 0.0
H786 H 0.93519 0.76558 0.75188 0.0
H787 H 0.95348 0.79441 0.76987 0.0
H788 H 0.96783 0.77313 0.74254 0.0
H789 H 0.86908 0.83427 0.72571 0.0
H790 H 0.88218 0.86096 0.70734 0.0
H791 H 0.88882 0.86256 0.74278 0.0
C792 C 0.06781 0.94532 0.491 0.0
C793 C 0.06599 0.97391 0.4958 0.0
C794 C 0.06314 0.9289 0.51148 0.0
C795 C 0.05673 0.94155 0.53746 0.0
C796 C 0.05827 0.9708 0.54318 0.0
C797 C 0.06271 0.98671 0.52212 0.0
C798 C 0.06188 0.89788 0.50432 0.0
C799 C 0.05234 0.98517 0.57075 0.0
C800 C 0.00369 0.90025 0.56835 0.0
C801 C 0.01715 0.8855 0.58516 0.0
C802 C 0.01633 0.91936 0.55373 0.0
C803 C 0.04322 0.92436 0.55615 0.0
C804 C 0.05682 0.91088 0.57435 0.0
C805 C 0.04366 0.89139 0.58848 0.0
C806 C 1.00092 0.93286 0.53435 0.0
C807 C 0.08536 0.91608 0.57804 0.0
H808 H 0.07022 0.93561 0.4705 0.0
H809 H 0.06113 0.00885 0.52567 0.0
H810 H 0.07123 0.88821 0.52013 0.0
H811 H 0.04157 0.88975 0.50286 0.0
H812 H 0.0711 0.89148 0.48477 0.0
H813 H 0.05984 0.00716 0.57355 0.0
H814 H 0.03133 0.9845 0.57338 0.0
H815 H 0.06054 0.97464 0.58666 0.0
H816 H 0.98323 0.89603 0.56565 0.0
H817 H 0.05425 0.88026 0.60155 0.0
H818 H 0.00591 0.92472 0.51343 0.0
H819 H 0.00544 0.95553 0.5372 0.0
H820 H 0.98001 0.92883 0.53674 0.0
H821 H 0.09504 0.90485 0.56067 0.0
H822 H 0.09217 0.90886 0.59667 0.0
H823 H 0.09121 0.93839 0.57882 0.0
C824 C 0.14112 0.7405 0.74737 0.0
C825 C 0.16688 0.7428 0.74049 0.0
C826 C 0.12256 0.75123 0.73244 0.0
C827 C 0.13012 0.76469 0.71021 0.0
C828 C 0.15617 0.76644 0.70282 0.0
C829 C 0.17432 0.75544 0.71817 0.0
C830 C 0.09499 0.74885 0.74092 0.0
C831 C 0.16493 0.78063 0.67927 0.0
C832 C 0.07744 0.77413 0.66109 0.0
C833 C 0.07107 0.80116 0.67028 0.0
C834 C 0.09712 0.76224 0.67341 0.0
C835 C 0.11078 0.77775 0.69541 0.0
C836 C 0.10497 0.8053 0.70428 0.0
C837 C 0.08517 0.81668 0.69161 0.0
C838 C 0.10278 0.7328 0.6634 0.0
C839 C 0.1192 0.8225 0.72767 0.0
H840 H 0.1357 0.73078 0.76484 0.0
H841 H 0.19441 0.75738 0.7133 0.0
H842 H 0.0883 0.76976 0.74704 0.0
H843 H 0.08277 0.73883 0.72377 0.0
H844 H 0.09221 0.73674 0.75796 0.0
H845 H 0.18561 0.77884 0.67528 0.0
H846 H 0.15389 0.77168 0.66088 0.0
H847 H 0.16131 0.80286 0.68328 0.0
H848 H 0.06671 0.76199 0.64455 0.0
H849 H 0.08045 0.8376 0.69877 0.0
H850 H 0.09834 0.71962 0.6793 0.0
H851 H 0.12339 0.73164 0.65888 0.0
H852 H 0.09151 0.72414 0.64504 0.0
H853 H 0.11567 0.81298 0.74625 0.0
H854 H 0.11332 0.84405 0.73115 0.0
H855 H 0.14007 0.82307 0.72409 0.0
C856 C 0.95516 0.61697 0.51398 0.0
C857 C 0.94976 0.61323 0.48638 0.0
C858 C 0.96345 0.643 0.52751 0.0
C859 C 0.96697 0.66563 0.51282 0.0
C860 C 0.9642 0.66119 0.48441 0.0
C861 C 0.95539 0.63493 0.47148 0.0
C862 C 0.96601 0.64671 0.55778 0.0
C863 C 0.96856 0.68459 0.46795 0.0
C864 C 0.94954 0.73386 0.55101 0.0
C865 C 0.97339 0.74579 0.56071 0.0
C866 C 0.94734 0.70808 0.53483 0.0
C867 C 0.96963 0.69416 0.52763 0.0
C868 C 0.99389 0.70663 0.53639 0.0
C869 C 0.99547 0.73217 0.55316 0.0
C870 C 0.92105 0.69527 0.5263 0.0
C871 C 0.01808 0.69274 0.52855 0.0
H872 H 0.95115 0.59984 0.52523 0.0
H873 H 0.95127 0.63181 0.45007 0.0
H874 H 0.98416 0.65864 0.56446 0.0
H875 H 0.95015 0.6586 0.56677 0.0
H876 H 0.96537 0.62662 0.56578 0.0
H877 H 0.97057 0.67689 0.44623 0.0
H878 H 0.9521 0.69772 0.47026 0.0
H879 H 0.98593 0.69783 0.47506 0.0
H880 H 0.93242 0.74425 0.55683 0.0
H881 H 0.014 0.74147 0.56037 0.0
H882 H 0.91745 0.67555 0.53466 0.0
H883 H 0.9198 0.69039 0.50408 0.0
H884 H 0.9057 0.70903 0.53317 0.0
H885 H 0.019 0.67404 0.53862 0.0
H886 H 0.03548 0.70659 0.53424 0.0
H887 H 0.01819 0.68589 0.50654 0.0
C888 C 0.74151 0.80684 0.21072 0.0
C889 C 0.74683 0.78789 0.22806 0.0
C890 C 0.7556 0.83253 0.21253 0.0
C891 C 0.77543 0.83911 0.23207 0.0
C892 C 0.78233 0.81879 0.24778 0.0
C893 C 0.76776 0.79346 0.24571 0.0
C894 C 0.7476 0.8535 0.19537 0.0
C895 C 0.80351 0.8247 0.26861 0.0
C896 C 0.81847 0.90578 0.23732 0.0
C897 C 0.80699 0.92219 0.25846 0.0
C898 C 0.80812 0.87886 0.22785 0.0
C899 C 0.78568 0.86832 0.23964 0.0
C900 C 0.7735 0.88527 0.26022 0.0
C901 C 0.78435 0.91184 0.26942 0.0
C902 C 0.82169 0.86137 0.20598 0.0
C903 C 0.74935 0.87503 0.27318 0.0
H904 H 0.72509 0.8024 0.19729 0.0
H905 H 0.7716 0.77864 0.25911 0.0
H906 H 0.73655 0.86899 0.20777 0.0
H907 H 0.76452 0.8647 0.1877 0.0
H908 H 0.73541 0.84374 0.17804 0.0
H909 H 0.80916 0.80555 0.27591 0.0
H910 H 0.82055 0.8351 0.26032 0.0
H911 H 0.797 0.83884 0.28607 0.0
H912 H 0.83599 0.91361 0.22877 0.0
H913 H 0.77517 0.92445 0.28556 0.0
H914 H 0.80801 0.85199 0.18986 0.0
H915 H 0.83005 0.84419 0.21446 0.0
H916 H 0.83727 0.87347 0.19694 0.0
H917 H 0.73456 0.8674 0.25759 0.0
H918 H 0.74143 0.89136 0.28775 0.0
H919 H 0.75334 0.85745 0.28396 0.0
C920 C 0.72114 0.15527 0.26716 0.0
C921 C 0.73091 0.18283 0.2718 0.0
C922 C 0.7366 0.13366 0.27027 0.0
C923 C 0.76243 0.13982 0.27855 0.0
C924 C 0.77216 0.16776 0.28414 0.0
C925 C 0.75624 0.18898 0.28063 0.0
C926 C 0.72537 0.10421 0.2643 0.0
C927 C 0.79948 0.17521 0.2933 0.0
C928 C 0.79331 0.08275 0.30813 0.0
C929 C 0.80663 0.07007 0.28607 0.0
C930 C 0.77963 0.10602 0.30622 0.0
C931 C 0.77902 0.11689 0.28157 0.0
C932 C 0.79298 0.10472 0.25941 0.0
C933 C 0.80672 0.08151 0.26195 0.0
C934 C 0.76522 0.11849 0.3304 0.0
C935 C 0.79272 0.1157 0.23276 0.0
H936 H 0.70141 0.15069 0.26067 0.0
H937 H 0.76376 0.21035 0.28399 0.0
H938 H 0.73626 0.09271 0.24803 0.0
H939 H 0.72697 0.09365 0.28235 0.0
H940 H 0.70495 0.10296 0.25804 0.0
H941 H 0.80379 0.19791 0.29779 0.0
H942 H 0.80349 0.16577 0.3116 0.0
H943 H 0.81264 0.16677 0.27748 0.0
H944 H 0.7933 0.07429 0.32698 0.0
H945 H 0.81695 0.07189 0.24483 0.0
H946 H 0.74439 0.11586 0.32604 0.0
H947 H 0.77041 0.14101 0.33484 0.0
H948 H 0.7691 0.10884 0.34862 0.0
H949 H 0.77304 0.11313 0.22422 0.0
H950 H 0.80566 0.10495 0.21797 0.0
H951 H 0.79854 0.13813 0.23562 0.0
C952 C 0.38603 0.03127 0.00599 0.0
C953 C 0.38837 0.04027 0.98079 0.0
C954 C 0.3668 0.01129 0.01075 0.0
C955 C 0.34964 0.99991 0.98966 0.0
C956 C 0.35119 0.00992 0.9645 0.0
C957 C 0.37062 0.03004 0.96037 0.0
C958 C 0.36587 1.00117 0.03784 0.0
C959 C 0.33328 0.99831 0.94152 0.0
C960 C 0.32718 0.92525 0.99185 0.0
C961 C 0.30271 0.92744 0.00284 0.0
C962 C 0.34221 0.94864 0.98676 0.0
C963 C 0.33265 0.97504 0.99286 0.0
C964 C 0.30771 0.97746 0.00328 0.0
C965 C 0.29296 0.95357 0.00812 0.0
C966 C 0.36866 0.94509 0.97551 0.0
C967 C 0.29693 0.00532 0.00996 0.0
H968 H 0.4 0.03906 0.02162 0.0
H969 H 0.37248 0.03727 0.94097 0.0
H970 H 0.34607 1.00071 0.04554 0.0
H971 H 0.37196 0.97974 0.03576 0.0
H972 H 0.37854 0.01431 0.05293 0.0
H973 H 0.3348 0.01074 0.92461 0.0
H974 H 0.33784 0.97688 0.9339 0.0
H975 H 0.31322 0.9974 0.94845 0.0
H976 H 0.33483 0.90516 0.98742 0.0
H977 H 0.27405 0.95542 0.01652 0.0
H978 H 0.3832 0.95549 0.99029 0.0
H979 H 0.3709 0.95495 0.95696 0.0
H980 H 0.37275 0.92302 0.97068 0.0
H981 H 0.30816 0.01774 0.0267 0.0
H982 H 0.27658 0.00356 0.01597 0.0
H983 H 0.29851 0.01683 0.99242 0.0
C984 C 0.27714 0.36879 0.30679 0.0
C985 C 0.29105 0.37085 0.33085 0.0
C986 C 0.25557 0.38383 0.30506 0.0
C987 C 0.24772 0.40117 0.32809 0.0
C988 C 0.26217 0.40378 0.35231 0.0
C989 C 0.28376 0.38853 0.35337 0.0
C990 C 0.24076 0.38052 0.27885 0.0
C991 C 0.25438 0.42199 0.37726 0.0
C992 C 0.20043 0.45372 0.31621 0.0
C993 C 0.17707 0.43963 0.32112 0.0
C994 C 0.22369 0.44178 0.31907 0.0
C995 C 0.22357 0.41519 0.32711 0.0
C996 C 0.20013 0.40125 0.33291 0.0
C997 C 0.17719 0.41361 0.32981 0.0
C998 C 0.24832 0.45724 0.31269 0.0
C999 C 0.19923 0.37291 0.34167 0.0
H1000 H 0.28294 0.35487 0.28954 0.0
H1001 H 0.29472 0.38989 0.3719 0.0
H1002 H 0.22136 0.37085 0.28159 0.0
H1003 H 0.23839 0.40102 0.27252 0.0
H1004 H 0.25027 0.3675 0.26246 0.0
H1005 H 0.26853 0.42305 0.39394 0.0
H1006 H 0.25207 0.44322 0.37274 0.0
H1007 H 0.23562 0.41392 0.38417 0.0
H1008 H 0.20054 0.47383 0.30951 0.0
H1009 H 0.15927 0.40261 0.3338 0.0
H1010 H 0.25727 0.44574 0.29495 0.0
H1011 H 0.26204 0.45875 0.32976 0.0
H1012 H 0.2453 0.4784 0.3083 0.0
H1013 H 0.20636 0.35787 0.32531 0.0
H1014 H 0.17961 0.36552 0.34683 0.0
H1015 H 0.2119 0.37314 0.35944 0.0
C1016 C 0.10404 0.04859 0.47844 0.0
C1017 C 0.09899 0.01989 0.47363 0.0
C1018 C 0.12918 0.06046 0.48055 0.0
C1019 C 0.14978 0.04311 0.47861 0.0
C1020 C 0.14464 0.01407 0.47651 0.0
C1021 C 0.11923 0.00276 0.47376 0.0
C1022 C 0.13364 0.09146 0.48246 0.0
C1023 C 0.166 0.99486 0.47522 0.0
C1024 C 0.21032 0.06869 0.44565 0.0
C1025 C 0.22592 0.07918 0.46792 0.0
C1026 C 0.18551 0.05706 0.44895 0.0
C1027 C 0.17629 0.05512 0.47519 0.0
C1028 C 0.19209 0.06534 0.49779 0.0
C1029 C 0.2166 0.07761 0.4939 0.0
C1030 C 0.16908 0.04707 0.42431 0.0
C1031 C 0.1832 0.06301 0.52601 0.0
H1032 H 0.08823 0.06173 0.47872 0.0
H1033 H 0.11529 0.98056 0.46997 0.0
H1034 H 0.14796 0.09952 0.49839 0.0
H1035 H 0.14136 0.09682 0.46313 0.0
H1036 H 0.11578 0.1021 0.48674 0.0
H1037 H 0.15899 0.97363 0.47835 0.0
H1038 H 0.17508 0.99377 0.45521 0.0
H1039 H 0.18096 0.00272 0.49058 0.0
H1040 H 0.21739 0.06994 0.42555 0.0
H1041 H 0.22872 0.08541 0.51118 0.0
H1042 H 0.15104 0.05772 0.42557 0.0
H1043 H 0.16386 0.02461 0.42328 0.0
H1044 H 0.17884 0.05077 0.40539 0.0
H1045 H 0.16575 0.07432 0.53025 0.0
H1046 H 0.19801 0.07137 0.54141 0.0
H1047 H 0.17809 0.04104 0.52803 0.0
C1048 C 0.75942 0.15413 0.7429 0.0
C1049 C 0.76172 0.17994 0.75884 0.0
C1050 C 0.74615 0.13147 0.7521 0.0
C1051 C 0.73452 0.13499 0.77767 0.0
C1052 C 0.73784 0.16085 0.79433 0.0
C1053 C 0.75161 0.18304 0.7847 0.0
C1054 C 0.74351 0.10417 0.73392 0.0
C1055 C 0.7256 0.16553 0.82159 0.0
C1056 C 0.67545 0.08726 0.78507 0.0
C1057 C 0.68508 0.06781 0.79975 0.0
C1058 C 0.69124 0.10956 0.77831 0.0
C1059 C 0.71739 0.11223 0.78603 0.0
C1060 C 0.72721 0.09272 0.80093 0.0
C1061 C 0.71089 0.07087 0.8078 0.0
C1062 C 0.67997 0.13017 0.76269 0.0
C1063 C 0.75505 0.09459 0.80912 0.0
H1064 H 0.76727 0.15207 0.72283 0.0
H1065 H 0.75327 0.20325 0.7967 0.0
H1066 H 0.74852 0.08718 0.74504 0.0
H1067 H 0.72336 0.0997 0.727 0.0
H1068 H 0.75585 0.10411 0.71596 0.0
H1069 H 0.73181 0.18602 0.83293 0.0
H1070 H 0.70452 0.16426 0.81906 0.0
H1071 H 0.73028 0.14923 0.83373 0.0
H1072 H 0.65551 0.08511 0.77891 0.0
H1073 H 0.71853 0.05583 0.81901 0.0
H1074 H 0.68937 0.12978 0.74289 0.0
H1075 H 0.68352 0.15137 0.77365 0.0
H1076 H 0.65906 0.12586 0.75926 0.0
H1077 H 0.76712 0.09291 0.79093 0.0
H1078 H 0.75958 0.07812 0.82117 0.0
H1079 H 0.76038 0.11497 0.82107 0.0
C1080 C 0.45583 0.01223 0.53167 0.0
C1081 C 0.44915 0.9972 0.55265 0.0
C1082 C 0.43834 0.02878 0.52159 0.0
C1083 C 0.41348 0.0298 0.53251 0.0
C1084 C 0.40694 0.01507 0.5542 0.0
C1085 C 0.425 0.99907 0.56416 0.0
C1086 C 0.44618 0.04449 0.49875 0.0
C1087 C 0.38056 0.01525 0.56611 0.0
C1088 C 0.37085 0.08575 0.51744 0.0
C1089 C 0.35626 0.07197 0.49555 0.0
C1090 C 0.38976 0.07241 0.52957 0.0
C1091 C 0.39377 0.04451 0.5199 0.0
C1092 C 0.3789 0.03044 0.49802 0.0
C1093 C 0.36051 0.0444 0.48597 0.0
C1094 C 0.40556 0.0882 0.55257 0.0
C1095 C 0.38227 1.00054 0.4874 0.0
H1096 H 0.47464 0.01062 0.52299 0.0
H1097 H 0.42004 0.98718 0.5803 0.0
H1098 H 0.43504 0.03581 0.48035 0.0
H1099 H 0.44193 0.06648 0.50366 0.0
H1100 H 0.46684 0.04351 0.49423 0.0
H1101 H 0.37902 0.004 0.58387 0.0
H1102 H 0.37542 0.03677 0.57223 0.0
H1103 H 0.36632 0.00542 0.55071 0.0
H1104 H 0.36773 0.10708 0.52487 0.0
H1105 H 0.34918 0.03352 0.46922 0.0
H1106 H 0.42612 0.08839 0.54742 0.0
H1107 H 0.40309 0.07782 0.57077 0.0
H1108 H 0.40028 0.10988 0.55749 0.0
H1109 H 0.40206 0.9982 0.48015 0.0
H1110 H 0.36878 0.99242 0.47063 0.0
H1111 H 0.37931 0.98763 0.50379 0.0
C1112 C 0.58878 0.50761 0.53531 0.0
C1113 C 0.56458 0.49494 0.52808 0.0
C1114 C 0.611 0.4935 0.5292 0.0
C1115 C 0.60885 0.46608 0.51548 0.0
C1116 C 0.58443 0.45399 0.50662 0.0
C1117 C 0.56262 0.46855 0.51313 0.0
C1118 C 0.63657 0.50726 0.53897 0.0
C1119 C 0.58114 0.42501 0.49173 0.0
C1120 C 0.66807 0.43269 0.48594 0.0
C1121 C 0.67441 0.41635 0.5056 0.0
C1122 C 0.64696 0.44906 0.48891 0.0
C1123 C 0.63173 0.44927 0.51216 0.0
C1124 C 0.63803 0.43289 0.53212 0.0
C1125 C 0.65921 0.41663 0.52858 0.0
C1126 C 0.64089 0.46604 0.46709 0.0
C1127 C 0.62234 0.43252 0.55725 0.0
H1128 H 0.59014 0.52783 0.54732 0.0
H1129 H 0.54379 0.45874 0.5079 0.0
H1130 H 0.6439 0.49674 0.55534 0.0
H1131 H 0.65068 0.50539 0.52252 0.0
H1132 H 0.63536 0.52948 0.54674 0.0
H1133 H 0.56135 0.4197 0.48388 0.0
H1134 H 0.59455 0.42245 0.47467 0.0
H1135 H 0.5857 0.41005 0.50545 0.0
H1136 H 0.67963 0.43271 0.46808 0.0
H1137 H 0.66392 0.40421 0.54394 0.0
H1138 H 0.64094 0.48818 0.4756 0.0
H1139 H 0.62144 0.45961 0.45878 0.0
H1140 H 0.65474 0.46389 0.45037 0.0
H1141 H 0.62198 0.45377 0.56819 0.0
H1142 H 0.62992 0.41905 0.57105 0.0
H1143 H 0.6023 0.42509 0.5518 0.0
C1144 C 0.70584 0.21995 0.32894 0.0
C1145 C 0.71836 0.23397 0.30975 0.0
C1146 C 0.70849 0.22996 0.35651 0.0
C1147 C 0.72417 0.25441 0.36482 0.0
C1148 C 0.73781 0.26777 0.34537 0.0
C1149 C 0.73456 0.25745 0.31803 0.0
C1150 C 0.69359 0.21518 0.37657 0.0
C1151 C 0.75508 0.29358 0.35334 0.0
C1152 C 0.71478 0.30205 0.43001 0.0
C1153 C 0.73523 0.29601 0.44573 0.0
C1154 C 0.71001 0.28754 0.40408 0.0
C1155 C 0.7261 0.2666 0.39368 0.0
C1156 C 0.74574 0.25931 0.4101 0.0
C1157 C 0.75 0.27401 0.43589 0.0
C1158 C 0.68863 0.29563 0.38725 0.0
C1159 C 0.76331 0.23714 0.39984 0.0
H1160 H 0.69296 0.20206 0.32221 0.0
H1161 H 0.74388 0.26829 0.3029 0.0
H1162 H 0.70634 0.21113 0.39303 0.0
H1163 H 0.67881 0.22849 0.38583 0.0
H1164 H 0.68401 0.19525 0.3671 0.0
H1165 H 0.76532 0.30057 0.33587 0.0
H1166 H 0.74365 0.3105 0.36271 0.0
H1167 H 0.76941 0.2899 0.36851 0.0
H1168 H 0.70323 0.31892 0.43743 0.0
H1169 H 0.76569 0.2689 0.44796 0.0
H1170 H 0.6767 0.27702 0.37829 0.0
H1171 H 0.69678 0.30576 0.37042 0.0
H1172 H 0.67618 0.31009 0.39914 0.0
H1173 H 0.75213 0.21808 0.39072 0.0
H1174 H 0.77583 0.2319 0.41601 0.0
H1175 H 0.7756 0.24434 0.38388 0.0
C1176 C 0.49388 0.07285 0.95877 0.0
C1177 C 0.47063 0.075 0.94579 0.0
C1178 C 0.51581 0.06636 0.94383 0.0
C1179 C 0.51418 0.06172 0.91535 0.0
C1180 C 0.49124 0.06646 0.90231 0.0
C1181 C 0.46975 0.07313 0.91775 0.0
C1182 C 0.53998 0.06201 0.95854 0.0
C1183 C 0.48857 0.06184 0.87205 0.0
C1184 C 0.57129 0.04756 0.86991 0.0
C1185 C 0.56893 0.01858 0.86453 0.0
C1186 C 0.55427 0.06205 0.88732 0.0
C1187 C 0.53437 0.04721 0.8994 0.0
C1188 C 0.5325 0.01796 0.89474 0.0
C1189 C 0.5498 0.00408 0.87752 0.0
C1190 C 0.55706 0.09321 0.89206 0.0
C1191 C 0.51155 0.00125 0.90715 0.0
H1192 H 0.4944 0.07424 0.9805 0.0
H1193 H 0.45166 0.07498 0.90792 0.0
H1194 H 0.54191 0.03953 0.95802 0.0
H1195 H 0.55701 0.07068 0.94869 0.0
H1196 H 0.53982 0.07163 0.97992 0.0
H1197 H 0.47092 0.07013 0.86508 0.0
H1198 H 0.50528 0.07167 0.86265 0.0
H1199 H 0.48784 0.03935 0.8648 0.0
H1200 H 0.58605 0.05898 0.86008 0.0
H1201 H 0.54783 0.98171 0.87369 0.0
H1202 H 0.55611 0.10088 0.91386 0.0
H1203 H 0.54105 0.10156 0.88201 0.0
H1204 H 0.57532 0.1015 0.88412 0.0
H1205 H 0.51186 0.00683 0.92933 0.0
H1206 H 0.51336 0.97865 0.90236 0.0
H1207 H 0.49264 0.00601 0.89972 0.0
C1208 C 0.31711 0.26668 0.33581 0.0
C1209 C 0.33575 0.28836 0.34272 0.0
C1210 C 0.31625 0.24301 0.34869 0.0
C1211 C 0.33489 0.24075 0.36858 0.0
C1212 C 0.35529 0.26141 0.37361 0.0
C1213 C 0.35537 0.28517 0.36069 0.0
C1214 C 0.29408 0.22166 0.3427 0.0
C1215 C 0.37595 0.25944 0.39407 0.0
C1216 C 0.31192 0.20129 0.42522 0.0
C1217 C 0.3201 0.1749 0.41673 0.0
C1218 C 0.31708 0.22302 0.40998 0.0
C1219 C 0.33128 0.21843 0.38596 0.0
C1220 C 0.34044 0.19211 0.37786 0.0
C1221 C 0.33449 0.17058 0.39315 0.0
C1222 C 0.30659 0.25066 0.41912 0.0
C1223 C 0.35612 0.18654 0.35277 0.0
H1224 H 0.30202 0.26937 0.32181 0.0
H1225 H 0.36967 0.3021 0.36604 0.0
H1226 H 0.30094 0.20059 0.33897 0.0
H1227 H 0.28137 0.22243 0.36039 0.0
H1228 H 0.28264 0.22515 0.32498 0.0
H1229 H 0.39251 0.27448 0.39232 0.0
H1230 H 0.36812 0.26375 0.4146 0.0
H1231 H 0.38274 0.2383 0.39174 0.0
H1232 H 0.30076 0.20477 0.44336 0.0
H1233 H 0.34113 0.15031 0.3866 0.0
H1234 H 0.29319 0.25566 0.40363 0.0
H1235 H 0.32231 0.26718 0.42153 0.0
H1236 H 0.29632 0.25104 0.43848 0.0
H1237 H 0.34419 0.18786 0.33479 0.0
H1238 H 0.36382 0.1658 0.3506 0.0
H1239 H 0.3723 0.20242 0.35305 0.0
C1240 C 0.50849 0.52585 0.91226 0.0
C1241 C 0.51931 0.50087 0.91416 0.0
C1242 C 0.4878 0.52692 0.89473 0.0
C1243 C 0.47773 0.50234 0.87887 0.0
C1244 C 0.48935 0.47727 0.87997 0.0
C1245 C 0.51007 0.47687 0.8976 0.0
C1246 C 0.47601 0.55407 0.8941 0.0
C1247 C 0.4792 0.45062 0.86344 0.0
C1248 C 0.4072 0.4972 0.86071 0.0
C1249 C 0.40755 0.50172 0.8337 0.0
C1250 C 0.42989 0.4974 0.87553 0.0
C1251 C 0.45364 0.50233 0.86314 0.0
C1252 C 0.45423 0.50699 0.83592 0.0
C1253 C 0.43116 0.50659 0.82148 0.0
C1254 C 0.42843 0.49224 0.90451 0.0
C1255 C 0.47922 0.51236 0.82208 0.0
H1256 H 0.51566 0.54431 0.92525 0.0
H1257 H 0.51874 0.45767 0.89902 0.0
H1258 H 0.47381 0.55816 0.87305 0.0
H1259 H 0.45664 0.55305 0.90288 0.0
H1260 H 0.4876 0.57167 0.90559 0.0
H1261 H 0.49167 0.43346 0.86492 0.0
H1262 H 0.45985 0.44457 0.87045 0.0
H1263 H 0.47734 0.45344 0.84199 0.0
H1264 H 0.3891 0.49338 0.87037 0.0
H1265 H 0.43165 0.51012 0.80064 0.0
H1266 H 0.43771 0.51015 0.91782 0.0
H1267 H 0.43893 0.47391 0.90724 0.0
H1268 H 0.40844 0.48874 0.91116 0.0
H1269 H 0.49003 0.53078 0.83309 0.0
H1270 H 0.47642 0.51581 0.80088 0.0
H1271 H 0.49118 0.49459 0.82232 0.0
C1272 C 0.75929 0.73281 0.18623 0.0
C1273 C 0.73317 0.73686 0.18768 0.0
C1274 C 0.77013 0.72152 0.16194 0.0
C1275 C 0.75435 0.71406 0.13875 0.0
C1276 C 0.72826 0.71983 0.13986 0.0
C1277 C 0.71804 0.73129 0.16432 0.0
C1278 C 0.79808 0.71603 0.16155 0.0
C1279 C 0.71074 0.7123 0.11567 0.0
C1280 C 0.78164 0.69394 0.06909 0.0
C1281 C 0.77901 0.66498 0.0666 0.0
C1282 C 0.77441 0.71031 0.09276 0.0
C1283 C 0.76417 0.6974 0.11433 0.0
C1284 C 0.76199 0.6682 0.11211 0.0
C1285 C 0.7695 0.65239 0.08836 0.0
C1286 C 0.77723 0.74138 0.09449 0.0
C1287 C 0.75106 0.65358 0.13458 0.0
H1288 H 0.77089 0.73713 0.20441 0.0
H1289 H 0.69792 0.73494 0.16554 0.0
H1290 H 0.80001 0.69348 0.16027 0.0
H1291 H 0.8074 0.72302 0.14362 0.0
H1292 H 0.8084 0.72653 0.1799 0.0
H1293 H 0.69165 0.72055 0.11914 0.0
H1294 H 0.7193 0.72027 0.09783 0.0
H1295 H 0.70812 0.68947 0.11084 0.0
H1296 H 0.78907 0.70385 0.05243 0.0
H1297 H 0.76742 0.63005 0.0867 0.0
H1298 H 0.78797 0.75049 0.11303 0.0
H1299 H 0.75808 0.74973 0.09574 0.0
H1300 H 0.78723 0.74823 0.07683 0.0
H1301 H 0.76203 0.66062 0.15349 0.0
H1302 H 0.75137 0.63077 0.13001 0.0
H1303 H 0.73102 0.65882 0.13825 0.0
C1304 C 0.9873 0.03992 0.11232 0.0
C1305 C 0.98988 0.01776 0.09193 0.0
C1306 C 0.96845 0.03861 0.13199 0.0
C1307 C 0.95186 0.01443 0.13131 0.0
C1308 C 0.95461 0.99184 0.11086 0.0
C1309 C 0.9736 0.99381 0.09137 0.0
C1310 C 0.96623 0.06314 0.15343 0.0
C1311 C 0.93739 0.96568 0.10947 0.0
C1312 C 0.91829 0.00218 0.19614 0.0
C1313 C 0.89391 0.01115 0.19207 0.0
C1314 C 0.93721 0.00287 0.17644 0.0
C1315 C 0.93171 0.01284 0.15205 0.0
C1316 C 0.90711 0.02178 0.14773 0.0
C1317 C 0.88851 0.02081 0.16776 0.0
C1318 C 0.96316 0.9931 0.18183 0.0
C1319 C 0.90052 0.03262 0.12201 0.0
H1320 H 1.00012 0.0583 0.11278 0.0
H1321 H 0.97556 0.97681 0.07542 0.0
H1322 H 0.94686 0.07078 0.1527 0.0
H1323 H 0.96881 0.05688 0.17362 0.0
H1324 H 0.98057 0.08039 0.15107 0.0
H1325 H 0.94224 0.94988 0.09254 0.0
H1326 H 0.9388 0.95677 0.12853 0.0
H1327 H 0.91721 0.97042 0.10704 0.0
H1328 H 0.92269 0.99462 0.21481 0.0
H1329 H 0.86976 0.02778 0.16439 0.0
H1330 H 0.97805 0.01027 0.18144 0.0
H1331 H 0.96779 0.97628 0.16581 0.0
H1332 H 0.96424 0.98542 0.20159 0.0
H1333 H 0.9134 0.05104 0.11963 0.0
H1334 H 0.88044 0.0384 0.12156 0.0
H1335 H 0.9035 0.01678 0.10447 0.0
C1336 C 0.2668 0.78987 0.21493 0.0
C1337 C 0.26901 0.76146 0.20844 0.0
C1338 C 0.26301 0.80644 0.19468 0.0
C1339 C 0.26155 0.79416 0.1674 0.0
C1340 C 0.26328 0.76524 0.16096 0.0
C1341 C 0.267 0.74926 0.18161 0.0
C1342 C 0.26124 0.83712 0.2024 0.0
C1343 C 0.26198 0.75127 0.13219 0.0
C1344 C 0.23713 0.82938 0.11004 0.0
C1345 C 0.26015 0.83711 0.0981 0.0
C1346 C 0.23715 0.81656 0.13354 0.0
C1347 C 0.26071 0.81157 0.14529 0.0
C1348 C 0.2839 0.82104 0.13424 0.0
C1349 C 0.28332 0.83362 0.11085 0.0
C1350 C 0.21202 0.80696 0.14488 0.0
C1351 C 0.30947 0.81641 0.14616 0.0
H1352 H 0.26824 0.79903 0.23585 0.0
H1353 H 0.26864 0.72719 0.1769 0.0
H1354 H 0.27807 0.84844 0.19467 0.0
H1355 H 0.24399 0.84391 0.19309 0.0
H1356 H 0.26051 0.84307 0.22454 0.0
H1357 H 0.26208 0.72844 0.13073 0.0
H1358 H 0.24444 0.75639 0.12211 0.0
H1359 H 0.27857 0.75897 0.12098 0.0
H1360 H 0.21918 0.83197 0.10028 0.0
H1361 H 0.30122 0.83988 0.10195 0.0
H1362 H 0.21179 0.81307 0.16699 0.0
H1363 H 0.20956 0.78407 0.14103 0.0
H1364 H 0.19554 0.81547 0.13571 0.0
H1365 H 0.31005 0.82371 0.16808 0.0
H1366 H 0.32561 0.82717 0.13663 0.0
H1367 H 0.31234 0.79397 0.14343 0.0
C1368 C 0.03328 0.45251 0.10277 0.0
C1369 C 0.00688 0.45153 0.10669 0.0
C1370 C 0.05023 0.45286 0.1246 0.0
C1371 C 0.04038 0.45294 0.15088 0.0
C1372 C 0.01358 0.45093 0.1546 0.0
C1373 C 0.99718 0.45 0.13237 0.0
C1374 C 0.07861 0.45433 0.11969 0.0
C1375 C 0.00222 0.45124 0.18224 0.0
C1376 C 0.07786 0.43709 0.21096 0.0
C1377 C 0.08422 0.46366 0.22465 0.0
C1378 C 0.06503 0.43329 0.18601 0.0
C1379 C 0.05778 0.45661 0.1748 0.0
C1380 C 0.06509 0.48351 0.18799 0.0
C1381 C 0.07851 0.48672 0.21263 0.0
C1382 C 0.05825 0.40431 0.17223 0.0
C1383 C 0.05742 0.50892 0.17689 0.0
H1384 H 0.04061 0.45417 0.08287 0.0
H1385 H 0.97668 0.44959 0.13513 0.0
H1386 H 0.08715 0.47513 0.12795 0.0
H1387 H 0.0879 0.43908 0.13018 0.0
H1388 H 0.08303 0.45041 0.09792 0.0
H1389 H 0.98101 0.44872 0.18154 0.0
H1390 H 0.00945 0.43445 0.19226 0.0
H1391 H 0.00813 0.47109 0.19489 0.0
H1392 H 0.08251 0.41918 0.22003 0.0
H1393 H 0.08332 0.50728 0.22316 0.0
H1394 H 0.06334 0.40248 0.15065 0.0
H1395 H 0.03733 0.39949 0.17325 0.0
H1396 H 0.0681 0.38864 0.18167 0.0
H1397 H 0.06339 0.5083 0.15566 0.0
H1398 H 0.06591 0.52831 0.18864 0.0
H1399 H 0.03631 0.50939 0.1772 0.0
C1400 C 0.30994 0.71494 0.30105 0.0
C1401 C 0.31174 0.71089 0.27301 0.0
C1402 C 0.33118 0.71211 0.3174 0.0
C1403 C 0.35467 0.70503 0.3053 0.0
C1404 C 0.35561 0.69818 0.27696 0.0
C1405 C 0.33413 0.70128 0.26117 0.0
C1406 C 0.32915 0.71945 0.34746 0.0
C1407 C 0.38003 0.69028 0.26308 0.0
C1408 C 0.41513 0.74313 0.33654 0.0
C1409 C 0.42671 0.7229 0.34878 0.0
C1410 C 0.39166 0.73752 0.32291 0.0
C1411 C 0.37907 0.71085 0.32119 0.0
C1412 C 0.39028 0.69028 0.33379 0.0
C1413 C 0.41399 0.69656 0.34754 0.0
C1414 C 0.38052 0.76024 0.30998 0.0
C1415 C 0.37745 0.6616 0.33234 0.0
H1416 H 0.29253 0.72231 0.3101 0.0
H1417 H 0.33526 0.69779 0.23942 0.0
H1418 H 0.33946 0.70508 0.35813 0.0
H1419 H 0.3381 0.74058 0.35361 0.0
H1420 H 0.30893 0.71903 0.35401 0.0
H1421 H 0.37651 0.68075 0.24188 0.0
H1422 H 0.39316 0.70904 0.26311 0.0
H1423 H 0.38982 0.67563 0.27389 0.0
H1424 H 0.42448 0.76368 0.3375 0.0
H1425 H 0.42271 0.68081 0.35692 0.0
H1426 H 0.36108 0.76379 0.31773 0.0
H1427 H 0.37874 0.75405 0.28791 0.0
H1428 H 0.39241 0.78008 0.31379 0.0
H1429 H 0.35736 0.66263 0.33901 0.0
H1430 H 0.38749 0.64861 0.34488 0.0
H1431 H 0.37697 0.65137 0.31119 0.0
C1432 C 0.01039 0.40601 0.0438 0.0
C1433 C 0.98804 0.40983 0.05852 0.0
C1434 C 0.01392 0.38074 0.02773 0.0
C1435 C 0.99443 0.359 0.02625 0.0
C1436 C 0.97328 0.36182 0.04366 0.0
C1437 C 0.9703 0.38732 0.05952 0.0
C1438 C 0.03692 0.37865 0.00979 0.0
C1439 C 0.95219 0.3392 0.04309 0.0
C1440 C 0.98085 0.32297 0.95546 0.0
C1441 C 0.99234 0.29793 0.95524 0.0
C1442 C 0.98099 0.34248 0.97859 0.0
C1443 C 0.99302 0.33704 0.00241 0.0
C1444 C 0.00397 0.31142 0.00274 0.0
C1445 C 0.00346 0.29206 0.97909 0.0
C1446 C 0.96867 0.36926 0.97724 0.0
C1447 C 0.01686 0.30482 0.02773 0.0
H1448 H 0.02381 0.42363 0.04268 0.0
H1449 H 0.95292 0.39053 0.07079 0.0
H1450 H 0.04444 0.35792 0.0086 0.0
H1451 H 0.03125 0.3817 0.98915 0.0
H1452 H 0.05243 0.39457 0.01701 0.0
H1453 H 0.94044 0.34192 0.06152 0.0
H1454 H 0.9395 0.33965 0.02546 0.0
H1455 H 0.96004 0.31858 0.04106 0.0
H1456 H 0.9719 0.32757 0.93726 0.0
H1457 H 0.01242 0.27278 0.97907 0.0
H1458 H 0.98315 0.38694 0.9815 0.0
H1459 H 0.95366 0.372 0.9927 0.0
H1460 H 0.95981 0.37005 0.95726 0.0
H1461 H 0.03491 0.318 0.03153 0.0
H1462 H 0.0214 0.28283 0.02586 0.0
H1463 H 0.0046 0.30946 0.04553 0.0
C1464 C 0.6495 0.73209 0.25391 0.0
C1465 C 0.67424 0.73574 0.2649 0.0
C1466 C 0.62816 0.72893 0.27029 0.0
C1467 C 0.63169 0.72985 0.2984 0.0
C1468 C 0.65678 0.7321 0.30938 0.0
C1469 C 0.67778 0.73491 0.29242 0.0
C1470 C 0.60179 0.72639 0.25771 0.0
C1471 C 0.66141 0.73332 0.33921 0.0
C1472 C 0.57844 0.76153 0.3401 0.0
C1473 C 0.56451 0.73825 0.34739 0.0
C1474 C 0.6007 0.759 0.32492 0.0
C1475 C 0.60925 0.73246 0.31647 0.0
C1476 C 0.59572 0.70885 0.3243 0.0
C1477 C 0.57353 0.71203 0.33986 0.0
C1478 C 0.61472 0.78479 0.31737 0.0
C1479 C 0.60422 0.68023 0.31554 0.0
H1480 H 0.6468 0.73302 0.23266 0.0
H1481 H 0.697 0.73745 0.30077 0.0
H1482 H 0.58984 0.70948 0.26509 0.0
H1483 H 0.59232 0.74585 0.26359 0.0
H1484 H 0.60237 0.72235 0.2354 0.0
H1485 H 0.68183 0.73146 0.34407 0.0
H1486 H 0.65559 0.7533 0.34975 0.0
H1487 H 0.64968 0.71665 0.34724 0.0
H1488 H 0.5718 0.78191 0.34611 0.0
H1489 H 0.56286 0.69396 0.34542 0.0
H1490 H 0.61415 0.78429 0.29522 0.0
H1491 H 0.6351 0.78573 0.3236 0.0
H1492 H 0.60633 0.80395 0.32678 0.0
H1493 H 0.60236 0.67522 0.29335 0.0
H1494 H 0.59277 0.66421 0.32489 0.0
H1495 H 0.62466 0.67929 0.3208 0.0
C1496 C 0.048 0.08049 0.02703 0.0
C1497 C 0.04049 0.05259 0.01902 0.0
C1498 C 0.048 0.09973 0.00873 0.0
C1499 C 0.04038 0.09077 0.98166 0.0
C1500 C 0.03485 0.06215 0.973 0.0
C1501 C 0.0349 0.04337 0.99188 0.0
C1502 C 0.05414 0.12992 0.01893 0.0
C1503 C 0.02702 0.05162 0.94429 0.0
C1504 C 0.00822 0.14409 0.94697 0.0
C1505 C 0.02842 0.15485 0.93241 0.0
C1506 C 0.01172 0.12277 0.9625 0.0
C1507 C 0.03594 0.11167 0.96333 0.0
C1508 C 0.05614 0.1218 0.94797 0.0
C1509 C 0.05219 0.14331 0.93284 0.0
C1510 C 0.98967 0.11267 0.9787 0.0
C1511 C 0.08214 0.11039 0.94803 0.0
H1512 H 0.05198 0.08749 0.04816 0.0
H1513 H 0.02869 0.02183 0.98589 0.0
H1514 H 0.06803 0.13926 0.00559 0.0
H1515 H 0.03649 0.14114 0.01881 0.0
H1516 H 0.06214 0.13315 0.03974 0.0
H1517 H 0.02709 0.02877 0.93988 0.0
H1518 H 0.00746 0.05759 0.94052 0.0
H1519 H 0.03996 0.06103 0.9301 0.0
H1520 H 0.98981 0.15282 0.9468 0.0
H1521 H 0.06791 0.15128 0.92152 0.0
H1522 H 0.99458 0.117 1.00046 0.0
H1523 H 0.986 0.08998 0.97361 0.0
H1524 H 0.97183 0.12266 0.97514 0.0
H1525 H 0.09093 0.11543 0.96839 0.0
H1526 H 0.09524 0.1189 0.93338 0.0
H1527 H 0.08032 0.08754 0.94319 0.0
C1528 C 0.3902 0.33817 0.30716 0.0
C1529 C 0.36744 0.32133 0.3051 0.0
C1530 C 0.40813 0.33611 0.2864 0.0
C1531 C 0.40324 0.31641 0.26323 0.0
C1532 C 0.38164 0.29722 0.26259 0.0
C1533 C 0.36385 0.30005 0.28353 0.0
C1534 C 0.43078 0.35704 0.28806 0.0
C1535 C 0.37595 0.27547 0.2386 0.0
C1536 C 0.42252 0.33812 0.19591 0.0
C1537 C 0.44485 0.3244 0.1901 0.0
C1538 C 0.40912 0.33587 0.21974 0.0
C1539 C 0.41794 0.31906 0.23817 0.0
C1540 C 0.44056 0.30524 0.23257 0.0
C1541 C 0.45389 0.30827 0.20869 0.0
C1542 C 0.38537 0.35144 0.22512 0.0
C1543 C 0.45036 0.28685 0.2515 0.0
H1544 H 0.39282 0.35459 0.32396 0.0
H1545 H 0.34609 0.28721 0.28193 0.0
H1546 H 0.44834 0.34713 0.28093 0.0
H1547 H 0.42721 0.37281 0.27485 0.0
H1548 H 0.4342 0.36774 0.30889 0.0
H1549 H 0.36148 0.25921 0.24326 0.0
H1550 H 0.36847 0.28529 0.22182 0.0
H1551 H 0.39359 0.26562 0.23155 0.0
H1552 H 0.41547 0.35072 0.18173 0.0
H1553 H 0.471 0.29738 0.20424 0.0
H1554 H 0.3874 0.3652 0.24462 0.0
H1555 H 0.36858 0.33669 0.22664 0.0
H1556 H 0.38143 0.36418 0.20911 0.0
H1557 H 0.45331 0.29854 0.27194 0.0
H1558 H 0.46862 0.27818 0.24466 0.0
H1559 H 0.43595 0.26951 0.25317 0.0
C1560 C 0.56231 0.48817 0.01785 0.0
C1561 C 0.56509 0.47437 0.99183 0.0
C1562 C 0.55793 0.47322 0.03963 0.0
C1563 C 0.55597 0.44392 0.03496 0.0
C1564 C 0.56174 0.43021 0.00919 0.0
C1565 C 0.56634 0.44568 0.98797 0.0
C1566 C 0.55266 0.4887 0.06691 0.0
C1567 C 0.56 0.39909 0.00314 0.0
C1568 C 0.54411 0.39619 0.08834 0.0
C1569 C 0.51755 0.39032 0.08585 0.0
C1570 C 0.55692 0.41495 0.07313 0.0
C1571 C 0.54289 0.42773 0.05473 0.0
C1572 C 0.51596 0.42285 0.05316 0.0
C1573 C 0.50368 0.40445 0.06882 0.0
C1574 C 0.58555 0.42004 0.07588 0.0
C1575 C 0.50011 0.43571 0.03366 0.0
H1576 H 0.56121 0.51039 0.02067 0.0
H1577 H 0.5684 0.4352 0.9677 0.0
H1578 H 0.53172 0.4884 0.07 0.0
H1579 H 0.56108 0.47876 0.08312 0.0
H1580 H 0.56037 0.51059 0.06878 0.0
H1581 H 0.56862 0.39179 0.98348 0.0
H1582 H 0.56967 0.38995 0.01911 0.0
H1583 H 0.53961 0.39126 0.00254 0.0
H1584 H 0.55504 0.38554 0.10154 0.0
H1585 H 0.48316 0.40026 0.06677 0.0
H1586 H 0.59142 0.44225 0.07593 0.0
H1587 H 0.59474 0.40831 0.05846 0.0
H1588 H 0.59287 0.41334 0.09456 0.0
H1589 H 0.50461 0.45837 0.03585 0.0
H1590 H 0.47927 0.43174 0.03656 0.0
H1591 H 0.50473 0.42707 0.01276 0.0
C1592 C 0.65344 0.22054 0.21359 0.0
C1593 C 0.67484 0.23767 0.22326 0.0
C1594 C 0.63541 0.22971 0.19679 0.0
C1595 C 0.63899 0.25667 0.18959 0.0
C1596 C 0.66123 0.27357 0.1984 0.0
C1597 C 0.6789 0.26383 0.2152 0.0
C1598 C 0.61195 0.21107 0.18784 0.0
C1599 C 0.66578 0.30237 0.19108 0.0
C1600 C 0.59784 0.2746 0.13288 0.0
C1601 C 0.5782 0.28785 0.14722 0.0
C1602 C 0.61799 0.26462 0.14636 0.0
C1603 C 0.61845 0.26797 0.17482 0.0
C1604 C 0.59892 0.28171 0.18939 0.0
C1605 C 0.57906 0.2915 0.17543 0.0
C1606 C 0.63857 0.25016 0.1302 0.0
C1607 C 0.59875 0.2857 0.21978 0.0
H1608 H 0.65034 0.20041 0.22015 0.0
H1609 H 0.69563 0.27688 0.22271 0.0
H1610 H 0.5948 0.22001 0.1974 0.0
H1611 H 0.6092 0.2095 0.16575 0.0
H1612 H 0.61312 0.18995 0.19326 0.0
H1613 H 0.68505 0.31185 0.19752 0.0
H1614 H 0.6637 0.30202 0.16904 0.0
H1615 H 0.65125 0.31571 0.20083 0.0
H1616 H 0.59734 0.27171 0.11108 0.0
H1617 H 0.56401 0.30174 0.1867 0.0
H1618 H 0.63859 0.22847 0.1343 0.0
H1619 H 0.65763 0.26037 0.13631 0.0
H1620 H 0.63592 0.25006 0.10822 0.0
H1621 H 0.59761 0.2653 0.22712 0.0
H1622 H 0.58244 0.29732 0.22808 0.0
H1623 H 0.61678 0.29701 0.22786 0.0
C1624 C 0.46168 0.12023 0.0211 0.0
C1625 C 0.45619 0.11631 0.99351 0.0
C1626 C 0.46991 0.14634 0.03447 0.0
C1627 C 0.4733 0.16887 0.01964 0.0
C1628 C 0.47056 0.16423 0.99124 0.0
C1629 C 0.46179 0.1379 0.97846 0.0
C1630 C 0.47242 0.15026 0.06476 0.0
C1631 C 0.47479 0.18751 0.97461 0.0
C1632 C 0.4544 0.23701 0.0567 0.0
C1633 C 0.478 0.24968 0.06639 0.0
C1634 C 0.45277 0.21098 0.04101 0.0
C1635 C 0.47538 0.1975 0.03426 0.0
C1636 C 0.49939 0.21062 0.04311 0.0
C1637 C 0.5004 0.23643 0.05941 0.0
C1638 C 0.42672 0.19749 0.03241 0.0
C1639 C 0.52392 0.19719 0.03575 0.0
H1640 H 0.45771 0.10318 0.03247 0.0
H1641 H 0.4576 0.13466 0.95706 0.0
H1642 H 0.4903 0.16271 0.07147 0.0
H1643 H 0.45623 0.1617 0.07363 0.0
H1644 H 0.47225 0.13025 0.07284 0.0
H1645 H 0.47703 0.17967 0.95296 0.0
H1646 H 0.45815 0.2004 0.97664 0.0
H1647 H 0.49198 0.20102 0.98178 0.0
H1648 H 0.43702 0.2471 0.0621 0.0
H1649 H 0.51874 0.24628 0.06664 0.0
H1650 H 0.42351 0.17778 0.04087 0.0
H1651 H 0.42562 0.19246 0.01019 0.0
H1652 H 0.41105 0.21086 0.03912 0.0
H1653 H 0.52497 0.17855 0.04587 0.0
H1654 H 0.54106 0.21136 0.04169 0.0
H1655 H 0.5244 0.19034 0.01375 0.0
C1656 C 0.26979 0.296 0.74363 0.0
C1657 C 0.2488 0.2898 0.72612 0.0
C1658 C 0.28386 0.3216 0.74541 0.0
C1659 C 0.27639 0.34156 0.72955 0.0
C1660 C 0.25654 0.33434 0.71012 0.0
C1661 C 0.24296 0.30839 0.70861 0.0
C1662 C 0.30509 0.32819 0.76612 0.0
C1663 C 0.24795 0.3549 0.69281 0.0
C1664 C 0.28395 0.41447 0.76663 0.0
C1665 C 0.30639 0.42526 0.75564 0.0
C1666 C 0.27356 0.3877 0.75748 0.0
C1667 C 0.28601 0.37101 0.73692 0.0
C1668 C 0.3082 0.38202 0.72503 0.0
C1669 C 0.31809 0.40913 0.73446 0.0
C1670 C 0.24967 0.37696 0.77053 0.0
C1671 C 0.32205 0.36483 0.70318 0.0
H1672 H 0.27403 0.28145 0.75718 0.0
H1673 H 0.2265 0.30346 0.6953 0.0
H1674 H 0.32186 0.33893 0.75768 0.0
H1675 H 0.29838 0.34226 0.78353 0.0
H1676 H 0.31123 0.3093 0.77354 0.0
H1677 H 0.2359 0.3447 0.67555 0.0
H1678 H 0.23658 0.37013 0.70512 0.0
H1679 H 0.26459 0.36646 0.68502 0.0
H1680 H 0.27462 0.42688 0.7828 0.0
H1681 H 0.33547 0.41731 0.7259 0.0
H1682 H 0.25411 0.35963 0.78146 0.0
H1683 H 0.23497 0.36884 0.75499 0.0
H1684 H 0.24141 0.39315 0.78499 0.0
H1685 H 0.33102 0.34806 0.71176 0.0
H1686 H 0.33721 0.3773 0.69392 0.0
H1687 H 0.30845 0.35488 0.68721 0.0
C1688 C 0.25437 0.69301 0.78815 0.0
C1689 C 0.2287 0.68734 0.78039 0.0
C1690 C 0.27035 0.67146 0.79014 0.0
C1691 C 0.26034 0.64365 0.78407 0.0
C1692 C 0.23424 0.63794 0.7767 0.0
C1693 C 0.21873 0.65987 0.77512 0.0
C1694 C 0.29797 0.67843 0.79837 0.0
C1695 C 0.22273 0.60864 0.77019 0.0
C1696 C 0.30398 0.58535 0.76418 0.0
C1697 C 0.30464 0.57317 0.78785 0.0
C1698 C 0.29017 0.60877 0.76283 0.0
C1699 C 0.27691 0.62039 0.78575 0.0
C1700 C 0.27825 0.60874 0.80993 0.0
C1701 C 0.29197 0.58527 0.81065 0.0
C1702 C 0.28909 0.62056 0.73665 0.0
C1703 C 0.26462 0.62063 0.83489 0.0
H1704 H 0.26203 0.7143 0.79196 0.0
H1705 H 0.19875 0.65564 0.76948 0.0
H1706 H 0.3025 0.6685 0.81622 0.0
H1707 H 0.31055 0.67016 0.7819 0.0
H1708 H 0.30256 0.70105 0.80321 0.0
H1709 H 0.20217 0.60776 0.76455 0.0
H1710 H 0.23314 0.59748 0.75332 0.0
H1711 H 0.22473 0.59749 0.78779 0.0
H1712 H 0.3137 0.57618 0.74649 0.0
H1713 H 0.29254 0.57622 0.82915 0.0
H1714 H 0.29507 0.64295 0.73993 0.0
H1715 H 0.26914 0.61839 0.72883 0.0
H1716 H 0.30149 0.61008 0.7211 0.0
H1717 H 0.27006 0.64305 0.83985 0.0
H1718 H 0.26897 0.61031 0.85257 0.0
H1719 H 0.24367 0.61832 0.83121 0.0
C1720 C 0.86521 0.52549 0.45331 0.0
C1721 C 0.88274 0.53648 0.47369 0.0
C1722 C 0.84631 0.50489 0.45764 0.0
C1723 C 0.84507 0.49519 0.48295 0.0
C1724 C 0.86194 0.50738 0.50401 0.0
C1725 C 0.88067 0.52779 0.49905 0.0
C1726 C 0.82871 0.49241 0.43468 0.0
C1727 C 0.86131 0.49763 0.53127 0.0
C1728 C 0.78974 0.44704 0.50136 0.0
C1729 C 0.80036 0.42135 0.49636 0.0
C1730 C 0.80379 0.47137 0.49653 0.0
C1731 C 0.82888 0.46982 0.48636 0.0
C1732 C 0.83936 0.44386 0.48062 0.0
C1733 C 0.82503 0.42004 0.48573 0.0
C1734 C 0.79207 0.49875 0.50288 0.0
C1735 C 0.86601 0.44125 0.46961 0.0
H1736 H 0.86687 0.53247 0.43378 0.0
H1737 H 0.89449 0.53615 0.51464 0.0
H1738 H 0.834 0.47117 0.42728 0.0
H1739 H 0.80865 0.49079 0.44154 0.0
H1740 H 0.82979 0.50467 0.41762 0.0
H1741 H 0.87351 0.51145 0.54631 0.0
H1742 H 0.84148 0.49643 0.53883 0.0
H1743 H 0.86821 0.47656 0.52953 0.0
H1744 H 0.77066 0.44821 0.50948 0.0
H1745 H 0.83335 0.40028 0.48152 0.0
H1746 H 0.79317 0.51004 0.48517 0.0
H1747 H 0.80299 0.51178 0.51949 0.0
H1748 H 0.77177 0.49629 0.50892 0.0
H1749 H 0.86796 0.45091 0.45092 0.0
H1750 H 0.87087 0.41939 0.46509 0.0
H1751 H 0.8802 0.45236 0.48439 0.0
C1752 C 0.78689 0.89153 0.85185 0.0
C1753 C 0.79375 0.87323 0.82959 0.0
C1754 C 0.7654 0.90692 0.85072 0.0
C1755 C 0.75061 0.90379 0.8267 0.0
C1756 C 0.75812 0.88596 0.80386 0.0
C1757 C 0.7796 0.87079 0.80565 0.0
C1758 C 0.75799 0.92567 0.87548 0.0
C1759 C 0.74292 0.88209 0.77786 0.0
C1760 C 0.67995 0.91554 0.82998 0.0
C1761 C 0.67928 0.94135 0.82095 0.0
C1762 C 0.70313 0.90347 0.83257 0.0
C1763 C 0.72624 0.91748 0.82593 0.0
C1764 C 0.72582 0.94383 0.81744 0.0
C1765 C 0.70233 0.95548 0.81508 0.0
C1766 C 0.7028 0.87537 0.84181 0.0
C1767 C 0.75009 0.95937 0.81018 0.0
H1768 H 0.79804 0.89318 0.87028 0.0
H1769 H 0.78506 0.85639 0.7886 0.0
H1770 H 0.75522 0.94663 0.87047 0.0
H1771 H 0.73955 0.91758 0.88309 0.0
H1772 H 0.77258 0.9274 0.89182 0.0
H1773 H 0.75237 0.86901 0.76147 0.0
H1774 H 0.7237 0.87221 0.78102 0.0
H1775 H 0.74014 0.90241 0.7713 0.0
H1776 H 0.66229 0.9045 0.83469 0.0
H1777 H 0.70202 0.97544 0.80812 0.0
H1778 H 0.71577 0.87611 0.85943 0.0
H1779 H 0.70989 0.86018 0.82555 0.0
H1780 H 0.68336 0.8678 0.84741 0.0
H1781 H 0.76422 0.96138 0.82694 0.0
H1782 H 0.74668 0.98034 0.8055 0.0
H1783 H 0.75876 0.94766 0.7924 0.0
C1784 C 0.61894 0.50267 0.9706 0.0
C1785 C 0.59875 0.51973 0.9696 0.0
C1786 C 0.64431 0.51403 0.97391 0.0
C1787 C 0.64947 0.54304 0.97567 0.0
C1788 C 0.62888 0.56035 0.97673 0.0
C1789 C 0.60376 0.54845 0.97411 0.0
C1790 C 0.66564 0.49487 0.97359 0.0
C1791 C 0.63337 0.59131 0.97824 0.0
C1792 C 0.7158 0.57813 0.99254 0.0
C1793 C 0.72581 0.57942 0.96681 0.0
C1794 C 0.69124 0.56568 0.99585 0.0
C1795 C 0.67609 0.55502 0.97289 0.0
C1796 C 0.68604 0.55661 0.94688 0.0
C1797 C 0.71089 0.56842 0.94417 0.0
C1798 C 0.6816 0.5637 0.02387 0.0
C1799 C 0.67031 0.54615 0.92184 0.0
H1800 H 0.61503 0.48045 0.96707 0.0
H1801 H 0.58798 0.56155 0.97374 0.0
H1802 H 0.67522 0.49344 0.95382 0.0
H1803 H 0.68023 0.50299 0.98926 0.0
H1804 H 0.65849 0.47374 0.9769 0.0
H1805 H 0.61541 0.60197 0.9817 0.0
H1806 H 0.6472 0.59964 0.99457 0.0
H1807 H 0.64172 0.59636 0.95908 0.0
H1808 H 0.72741 0.58632 0.01011 0.0
H1809 H 0.71851 0.56946 0.92425 0.0
H1810 H 0.67623 0.5418 0.02601 0.0
H1811 H 0.66415 0.57515 0.02747 0.0
H1812 H 0.69606 0.57212 0.03961 0.0
H1813 H 0.66509 0.52372 0.92106 0.0
H1814 H 0.68062 0.54954 0.90314 0.0
H1815 H 0.65225 0.55673 0.9223 0.0
C1816 C 0.26357 0.66181 0.25703 0.0
C1817 C 0.25612 0.68826 0.26634 0.0
C1818 C 0.24831 0.63823 0.26159 0.0
C1819 C 0.22508 0.64139 0.27568 0.0
C1820 C 0.21865 0.66811 0.28697 0.0
C1821 C 0.23435 0.69124 0.28219 0.0
C1822 C 0.25603 0.61012 0.24951 0.0
C1823 C 0.19419 0.67247 0.30222 0.0
C1824 C 0.1696 0.58859 0.25509 0.0
C1825 C 0.16906 0.5726 0.27622 0.0
C1826 C 0.18782 0.61091 0.25469 0.0
C1827 C 0.2061 0.61734 0.27585 0.0
C1828 C 0.20579 0.60122 0.29718 0.0
C1829 C 0.18722 0.57911 0.29717 0.0
C1830 C 0.18741 0.62772 0.23164 0.0
C1831 C 0.22504 0.60736 0.31999 0.0
H1832 H 0.28035 0.65971 0.24458 0.0
H1833 H 0.22882 0.71185 0.28939 0.0
H1834 H 0.25361 0.59524 0.26424 0.0
H1835 H 0.2435 0.60215 0.23192 0.0
H1836 H 0.27617 0.61084 0.24273 0.0
H1837 H 0.19358 0.69401 0.31247 0.0
H1838 H 0.17769 0.66795 0.28804 0.0
H1839 H 0.1918 0.65814 0.31746 0.0
H1840 H 0.15568 0.58375 0.23884 0.0
H1841 H 0.18706 0.56679 0.31353 0.0
H1842 H 0.20601 0.62728 0.22118 0.0
H1843 H 0.18463 0.64962 0.23942 0.0
H1844 H 0.17199 0.61999 0.21673 0.0
H1845 H 0.2447 0.60662 0.31197 0.0
H1846 H 0.22255 0.59252 0.3348 0.0
H1847 H 0.22327 0.62854 0.33059 0.0
C1848 C 0.95265 0.51956 0.04768 0.0
C1849 C 0.94317 0.49493 0.05636 0.0
C1850 C 0.93606 0.53715 0.03767 0.0
C1851 C 0.90945 0.52977 0.03638 0.0
C1852 C 0.89979 0.50535 0.04613 0.0
C1853 C 0.91683 0.48819 0.05597 0.0
C1854 C 0.9471 0.56295 0.02741 0.0
C1855 C 0.87157 0.49676 0.0452 0.0
C1856 C 0.86176 0.58213 0.02463 0.0
C1857 C 0.85615 0.5748 0.9971 0.0
C1858 C 0.87946 0.56804 0.03766 0.0
C1859 C 0.89188 0.54621 0.02279 0.0
C1860 C 0.88675 0.53919 0.9949 0.0
C1861 C 0.86895 0.55351 0.98243 0.0
C1862 C 0.88444 0.57607 0.06743 0.0
C1863 C 0.89968 0.5161 0.9783 0.0
H1864 H 0.97311 0.52446 0.0478 0.0
H1865 H 0.90971 0.4691 0.06286 0.0
H1866 H 0.94435 0.5608 0.00528 0.0
H1867 H 0.93698 0.58112 0.03629 0.0
H1868 H 0.96783 0.56703 0.03209 0.0
H1869 H 0.86702 0.47835 0.05545 0.0
H1870 H 0.8606 0.51396 0.0548 0.0
H1871 H 0.86495 0.49187 0.02395 0.0
H1872 H 0.85197 0.59854 0.03614 0.0
H1873 H 0.86488 0.54776 0.96114 0.0
H1874 H 0.90521 0.58064 0.07143 0.0
H1875 H 0.87819 0.55855 0.07828 0.0
H1876 H 0.87423 0.59439 0.07583 0.0
H1877 H 0.92074 0.51984 0.98028 0.0
H1878 H 0.89434 0.51394 0.95664 0.0
H1879 H 0.8944 0.49624 0.98582 0.0
C1880 C 0.08829 0.01383 0.03785 0.0
C1881 C 0.06416 1.00014 0.03241 0.0
C1882 C 0.11069 0.99984 0.03242 0.0
C1883 C 0.10881 0.97154 0.02118 0.0
C1884 C 0.0844 0.95823 0.01415 0.0
C1885 C 0.06241 0.97269 0.01994 0.0
C1886 C 0.13625 0.0149 0.04018 0.0
C1887 C 0.08139 0.92826 0.00188 0.0
C1888 C 0.16769 0.93729 0.99184 0.0
C1889 C 0.17528 0.92313 0.01274 0.0
C1890 C 0.1463 0.95326 0.99435 0.0
C1891 C 0.13208 0.95532 0.01838 0.0
C1892 C 0.13971 0.94121 0.03962 0.0
C1893 C 0.16113 0.92527 0.03653 0.0
C1894 C 0.13878 0.96777 0.97116 0.0
C1895 C 0.12516 0.94289 0.06563 0.0
H1896 H 0.08952 0.03494 0.04787 0.0
H1897 H 0.04365 0.96217 0.01595 0.0
H1898 H 0.14461 0.0062 0.05724 0.0
H1899 H 0.14973 0.01196 0.0232 0.0
H1900 H 0.13468 0.03739 0.04626 0.0
H1901 H 0.06139 0.92171 0.99536 0.0
H1902 H 0.09404 0.92449 0.98427 0.0
H1903 H 0.08719 0.91508 0.01681 0.0
H1904 H 0.17842 0.93584 0.97335 0.0
H1905 H 0.16682 0.91455 0.05284 0.0
H1906 H 0.13844 0.99028 0.97788 0.0
H1907 H 0.11921 0.96014 0.96402 0.0
H1908 H 0.15205 0.96452 0.95398 0.0
H1909 H 0.12459 0.96478 0.07479 0.0
H1910 H 0.1338 0.93121 0.08041 0.0
H1911 H 0.10511 0.93454 0.06161 0.0
loop_
_geom_bond_atom_site_label_1
_geom_bond_atom_site_label_2
_geom_bond_distance
_geom_bond_site_symmetry_2
_ccdc_geom_bond_type
C0 N1 1.308 1_565 S
C0 N2 1.337 1_565 S
C0 C3 1.503 . S
N1 C0 1.308 1_545 S
N1 N5 1.370 . S
N2 C0 1.337 1_545 S
N2 C4 1.346 . S
C3 C0 1.503 . S
C3 H7 0.960 . S
C3 H8 0.961 . S
C3 H9 0.960 . S
C4 N2 1.346 . S
C4 N5 1.307 . S
C4 C6 1.486 1_455 S
N5 N1 1.370 . S
N5 C4 1.307 . S
C6 C4 1.486 1_655 S
C6 H10 0.960 . S
C6 H11 0.960 . S
C6 H12 0.959 . S
H7 C3 0.960 . S
H8 C3 0.961 . S
H9 C3 0.960 . S
H10 C6 0.960 . S
H11 C6 0.960 . S
H12 C6 0.959 . S
C13 N14 1.317 . S
C13 N15 1.348 . S
C13 C16 1.485 . S
N14 C13 1.317 . S
N14 N18 1.370 . S
N15 C13 1.348 . S
N15 C17 1.346 . S
C16 C13 1.485 . S
C16 H20 0.960 . S
C16 H21 0.961 . S
C16 H22 0.960 . S
C17 N15 1.346 . S
C17 N18 1.307 . S
C17 C19 1.486 . S
N18 N14 1.370 . S
N18 C17 1.307 . S
C19 C17 1.486 . S
C19 H23 0.960 . S
C19 H24 0.960 . S
C19 H25 0.959 . S
H20 C16 0.960 . S
H21 C16 0.961 . S
H22 C16 0.960 . S
H23 C19 0.960 . S
H24 C19 0.960 . S
H25 C19 0.959 . S
C26 N27 1.317 . S
C26 N28 1.348 . S
C26 C29 1.485 . S
N27 C26 1.317 . S
N27 N31 1.370 . S
N28 C26 1.348 . S
N28 C30 1.346 . S
C29 C26 1.485 . S
C29 H33 0.960 . S
C29 H34 0.961 . S
C29 H35 0.960 . S
C30 N28 1.346 . S
C30 N31 1.307 . S
C30 C32 1.486 . S
N31 N27 1.370 . S
N31 C30 1.307 . S
C32 C30 1.486 . S
C32 H36 0.960 . S
C32 H37 0.960 . S
C32 H38 0.959 . S
H33 C29 0.960 . S
H34 C29 0.961 . S
H35 C29 0.960 . S
H36 C32 0.960 . S
H37 C32 0.960 . S
H38 C32 0.959 . S
C39 N40 1.317 . S
C39 N41 1.348 . S
C39 C42 1.485 . S
N40 C39 1.317 . S
N40 N44 1.370 . S
N41 C39 1.348 . S
N41 C43 1.346 . S
C42 C39 1.485 . S
C42 H46 0.960 . S
C42 H47 0.961 . S
C42 H48 0.960 . S
C43 N41 1.346 . S
C43 N44 1.307 . S
C43 C45 1.486 . S
N44 N40 1.370 . S
N44 C43 1.307 . S
C45 C43 1.486 . S
C45 H49 0.960 . S
C45 H50 0.960 . S
C45 H51 0.959 . S
H46 C42 0.960 . S
H47 C42 0.961 . S
H48 C42 0.960 . S
H49 C45 0.960 . S
H50 C45 0.960 . S
H51 C45 0.959 . S
C52 N53 1.317 . S
C52 N54 1.348 . S
C52 C55 1.485 . S
N53 C52 1.317 . S
N53 N57 1.370 . S
N54 C52 1.348 . S
N54 C56 1.346 . S
C55 C52 1.485 . S
C55 H59 0.960 . S
C55 H60 0.961 1_455 S
C55 H61 0.960 . S
C56 N54 1.346 . S
C56 N57 1.307 . S
C56 C58 1.486 1_565 S
N57 N53 1.370 . S
N57 C56 1.307 . S
C58 C56 1.486 1_545 S
C58 H62 0.960 . S
C58 H63 0.960 1_545 S
C58 H64 0.959 . S
H59 C55 0.960 . S
H60 C55 0.961 1_655 S
H61 C55 0.960 . S
H62 C58 0.960 . S
H63 C58 0.960 1_565 S
H64 C58 0.959 . S
C65 N66 1.317 . S
C65 N67 1.348 . S
C65 C68 1.485 . S
N66 C65 1.317 . S
N66 N70 1.370 . S
N67 C65 1.348 . S
N67 C69 1.346 . S
C68 C65 1.485 . S
C68 H72 0.960 . S
C68 H73 0.961 . S
C68 H74 0.960 . S
C69 N67 1.346 . S
C69 N70 1.307 . S
C69 C71 1.486 . S
N70 N66 1.370 . S
N70 C69 1.307 . S
C71 C69 1.486 . S
C71 H75 0.960 . S
C71 H76 0.960 . S
C71 H77 0.959 . S
H72 C68 0.960 . S
H73 C68 0.961 . S
H74 C68 0.960 . S
H75 C71 0.960 . S
H76 C71 0.960 . S
H77 C71 0.959 . S
C78 N79 1.317 . S
C78 N80 1.348 . S
C78 C81 1.485 . S
N79 C78 1.317 . S
N79 N83 1.370 . S
N80 C78 1.348 . S
N80 C82 1.346 . S
C81 C78 1.485 . S
C81 H85 0.960 . S
C81 H86 0.961 . S
C81 H87 0.960 . S
C82 N80 1.346 . S
C82 N83 1.307 . S
C82 C84 1.486 . S
N83 N79 1.370 . S
N83 C82 1.307 . S
C84 C82 1.486 . S
C84 H88 0.960 . S
C84 H89 0.960 . S
C84 H90 0.959 . S
H85 C81 0.960 . S
H86 C81 0.961 . S
H87 C81 0.960 . S
H88 C84 0.960 . S
H89 C84 0.960 . S
H90 C84 0.959 . S
C91 N92 1.317 . S
C91 N93 1.348 . S
C91 C94 1.485 . S
N92 C91 1.317 . S
N92 N96 1.370 . S
N93 C91 1.348 . S
N93 C95 1.346 . S
C94 C91 1.485 . S
C94 H98 0.960 . S
C94 H99 0.961 . S
C94 H100 0.960 . S
C95 N93 1.346 . S
C95 N96 1.307 . S
C95 C97 1.486 . S
N96 N92 1.370 . S
N96 C95 1.307 . S
C97 C95 1.486 . S
C97 H101 0.960 . S
C97 H102 0.960 . S
C97 H103 0.959 . S
H98 C94 0.960 . S
H99 C94 0.961 . S
H100 C94 0.960 . S
H101 C97 0.960 . S
H102 C97 0.960 . S
H103 C97 0.959 . S
C104 N105 1.317 . S
C104 N106 1.348 . S
C104 C107 1.485 . S
N105 C104 1.317 . S
N105 N109 1.370 . S
N106 C104 1.348 . S
N106 C108 1.346 . S
C107 C104 1.485 . S
C107 H111 0.960 . S
C107 H112 0.961 . S
C107 H113 0.960 . S
C108 N106 1.346 . S
C108 N109 1.307 . S
C108 C110 1.486 . S
N109 N105 1.370 . S
N109 C108 1.307 . S
C110 C108 1.486 . S
C110 H114 0.960 . S
C110 H115 0.960 . S
C110 H116 0.959 . S
H111 C107 0.960 . S
H112 C107 0.961 . S
H113 C107 0.960 . S
H114 C110 0.960 . S
H115 C110 0.960 . S
H116 C110 0.959 . S
C117 N118 1.317 . S
C117 N119 1.348 . S
C117 C120 1.485 1_565 S
N118 C117 1.317 . S
N118 N122 1.370 . S
N119 C117 1.348 . S
N119 C121 1.346 . S
C120 C117 1.485 1_545 S
C120 H124 0.960 . S
C120 H125 0.961 . S
C120 H126 0.960 . S
C121 N119 1.346 . S
C121 N122 1.307 . S
C121 C123 1.486 . S
N122 N118 1.370 . S
N122 C121 1.307 . S
C123 C121 1.486 . S
C123 H127 0.960 . S
C123 H128 0.960 . S
C123 H129 0.959 . S
H124 C120 0.960 . S
H125 C120 0.961 . S
H126 C120 0.960 . S
H127 C123 0.960 . S
H128 C123 0.960 . S
H129 C123 0.959 . S
C130 N131 1.317 . S
C130 N132 1.348 . S
C130 C133 1.485 . S
N131 C130 1.317 . S
N131 N135 1.370 . S
N132 C130 1.348 . S
N132 C134 1.346 . S
C133 C130 1.485 . S
C133 H137 0.960 . S
C133 H138 0.961 . S
C133 H139 0.960 . S
C134 N132 1.346 . S
C134 N135 1.307 . S
C134 C136 1.486 . S
N135 N131 1.370 . S
N135 C134 1.307 . S
C136 C134 1.486 . S
C136 H140 0.960 . S
C136 H141 0.960 . S
C136 H142 0.959 . S
H137 C133 0.960 . S
H138 C133 0.961 . S
H139 C133 0.960 . S
H140 C136 0.960 . S
H141 C136 0.960 . S
H142 C136 0.959 . S
C143 N144 1.317 . S
C143 N145 1.348 . S
C143 C146 1.485 . S
N144 C143 1.317 . S
N144 N148 1.370 . S
N145 C143 1.348 . S
N145 C147 1.346 . S
C146 C143 1.485 . S
C146 H150 0.960 . S
C146 H151 0.961 . S
C146 H152 0.960 . S
C147 N145 1.346 . S
C147 N148 1.307 . S
C147 C149 1.486 . S
N148 N144 1.370 . S
N148 C147 1.307 . S
C149 C147 1.486 . S
C149 H153 0.960 . S
C149 H154 0.960 . S
C149 H155 0.959 . S
H150 C146 0.960 . S
H151 C146 0.961 . S
H152 C146 0.960 . S
H153 C149 0.960 . S
H154 C149 0.960 . S
H155 C149 0.959 . S
C156 N157 1.317 . S
C156 N158 1.348 . S
C156 C159 1.485 . S
N157 C156 1.317 . S
N157 N161 1.370 . S
N158 C156 1.348 . S
N158 C160 1.346 . S
C159 C156 1.485 . S
C159 H163 0.960 . S
C159 H164 0.961 . S
C159 H165 0.960 . S
C160 N158 1.346 . S
C160 N161 1.307 . S
C160 C162 1.486 . S
N161 N157 1.370 . S
N161 C160 1.307 . S
C162 C160 1.486 . S
C162 H166 0.960 . S
C162 H167 0.960 . S
C162 H168 0.959 . S
H163 C159 0.960 . S
H164 C159 0.961 . S
H165 C159 0.960 . S
H166 C162 0.960 . S
H167 C162 0.960 . S
H168 C162 0.959 . S
C169 N170 1.317 . S
C169 N171 1.348 . S
C169 C172 1.485 . S
N170 C169 1.317 . S
N170 N174 1.370 . S
N171 C169 1.348 . S
N171 C173 1.346 . S
C172 C169 1.485 . S
C172 H176 0.960 . S
C172 H177 0.961 . S
C172 H178 0.960 . S
C173 N171 1.346 . S
C173 N174 1.307 . S
C173 C175 1.486 . S
N174 N170 1.370 . S
N174 C173 1.307 . S
C175 C173 1.486 . S
C175 H179 0.960 . S
C175 H180 0.960 . S
C175 H181 0.959 . S
H176 C172 0.960 . S
H177 C172 0.961 . S
H178 C172 0.960 . S
H179 C175 0.960 . S
H180 C175 0.960 . S
H181 C175 0.959 . S
C182 N183 1.317 . S
C182 N184 1.348 . S
C182 C185 1.485 . S
N183 C182 1.317 . S
N183 N187 1.370 . S
N184 C182 1.348 . S
N184 C186 1.346 . S
C185 C182 1.485 . S
C185 H189 0.960 . S
C185 H190 0.961 . S
C185 H191 0.960 . S
C186 N184 1.346 . S
C186 N187 1.307 . S
C186 C188 1.486 . S
N187 N183 1.370 . S
N187 C186 1.307 . S
C188 C186 1.486 . S
C188 H192 0.960 . S
C188 H193 0.960 . S
C188 H194 0.959 . S
H189 C185 0.960 . S
H190 C185 0.961 . S
H191 C185 0.960 . S
H192 C188 0.960 . S
H193 C188 0.960 . S
H194 C188 0.959 . S
C195 N196 1.317 . S
C195 N197 1.348 . S
C195 C198 1.485 . S
N196 C195 1.317 . S
N196 N200 1.370 . S
N197 C195 1.348 . S
N197 C199 1.346 . S
C198 C195 1.485 . S
C198 H202 0.960 . S
C198 H203 0.961 . S
C198 H204 0.960 . S
C199 N197 1.346 . S
C199 N200 1.307 . S
C199 C201 1.486 . S
N200 N196 1.370 . S
N200 C199 1.307 . S
C201 C199 1.486 . S
C201 H205 0.960 1_556 S
C201 H206 0.960 . S
C201 H207 0.960 . S
H202 C198 0.960 . S
H203 C198 0.961 . S
H204 C198 0.960 . S
H205 C201 0.960 1_554 S
H206 C201 0.960 . S
H207 C201 0.960 . S
Zn208 O211 2.031 . S
Zn208 O213 2.049 1_554 S
Zn208 O218 2.067 1_554 S
Zn209 O210 1.962 . S
Zn209 O212 1.986 . S
Zn209 O214 1.996 . S
Zn209 O217 1.943 1_554 S
O210 Zn209 1.962 . S
O210 C215 1.254 . S
O211 Zn208 2.031 . S
O211 C215 1.269 . S
O212 Zn209 1.986 . S
O212 C219 1.262 . S
O213 Zn208 2.049 1_556 S
O213 C221 1.260 . S
O214 Zn209 1.996 . S
O214 C221 1.257 1_554 S
C215 O210 1.254 . S
C215 O211 1.269 . S
C216 O217 1.249 . S
C216 O218 1.270 . S
O217 Zn209 1.943 1_556 S
O217 C216 1.249 . S
O218 Zn208 2.067 1_556 S
O218 C216 1.270 . S
C219 O212 1.262 . S
C219 O220 1.232 . S
O220 C219 1.232 . S
C221 O213 1.260 . S
C221 O214 1.257 1_556 S
Zn222 O225 2.031 . S
Zn222 O227 2.049 . S
Zn222 O232 2.067 . S
Zn223 O224 1.962 . S
Zn223 O226 1.986 . S
Zn223 O228 1.996 . S
Zn223 O231 1.943 . S
O224 Zn223 1.962 . S
O224 C229 1.254 . S
O225 Zn222 2.031 . S
O225 C229 1.269 . S
O226 Zn223 1.986 . S
O226 C233 1.262 . S
O227 Zn222 2.049 . S
O227 C235 1.260 . S
O228 Zn223 1.996 . S
O228 C235 1.257 . S
C229 O224 1.254 . S
C229 O225 1.269 . S
C230 O231 1.249 . S
C230 O232 1.270 . S
O231 Zn223 1.943 . S
O231 C230 1.249 . S
O232 Zn222 2.067 . S
O232 C230 1.270 . S
C233 O226 1.262 . S
C233 O234 1.232 . S
O234 C233 1.232 . S
C235 O227 1.260 . S
C235 O228 1.257 . S
Zn236 O239 2.031 . S
Zn236 O241 2.049 . S
Zn236 O246 2.067 . S
Zn237 O238 1.962 . S
Zn237 O240 1.986 . S
Zn237 O242 1.996 1_554 S
Zn237 O245 1.943 . S
O238 Zn237 1.962 . S
O238 C243 1.254 . S
O239 Zn236 2.031 . S
O239 C243 1.269 1_556 S
O240 Zn237 1.986 . S
O240 C247 1.262 . S
O241 Zn236 2.049 . S
O241 C249 1.260 . S
O242 Zn237 1.996 1_556 S
O242 C249 1.257 . S
C243 O238 1.254 . S
C243 O239 1.269 1_554 S
C244 O245 1.249 1_556 S
C244 O246 1.270 . S
O245 Zn237 1.943 . S
O245 C244 1.249 1_554 S
O246 Zn236 2.067 . S
O246 C244 1.270 . S
C247 O240 1.262 . S
C247 O248 1.232 . S
O248 C247 1.232 . S
C249 O241 1.260 . S
C249 O242 1.257 . S
Zn250 O253 2.031 . S
Zn250 O255 2.049 1_545 S
Zn250 O260 2.067 1_545 S
Zn251 O252 1.962 . S
Zn251 O254 1.986 . S
Zn251 O256 1.996 . S
Zn251 O259 1.943 1_545 S
O252 Zn251 1.962 . S
O252 C257 1.254 . S
O253 Zn250 2.031 . S
O253 C257 1.269 . S
O254 Zn251 1.986 . S
O254 C261 1.262 . S
O255 Zn250 2.049 1_565 S
O255 C263 1.260 . S
O256 Zn251 1.996 . S
O256 C263 1.257 1_545 S
C257 O252 1.254 . S
C257 O253 1.269 . S
C258 O259 1.249 . S
C258 O260 1.270 . S
O259 Zn251 1.943 1_565 S
O259 C258 1.249 . S
O260 Zn250 2.067 1_565 S
O260 C258 1.270 . S
C261 O254 1.262 . S
C261 O262 1.232 . S
O262 C261 1.232 . S
C263 O255 1.260 . S
C263 O256 1.257 1_565 S
Zn264 O267 2.031 . S
Zn264 O269 2.049 . S
Zn264 O274 2.067 . S
Zn265 O266 1.962 . S
Zn265 O268 1.986 . S
Zn265 O270 1.996 . S
Zn265 O273 1.943 . S
O266 Zn265 1.962 . S
O266 C271 1.254 . S
O267 Zn264 2.031 . S
O267 C271 1.269 . S
O268 Zn265 1.986 . S
O268 C275 1.262 . S
O269 Zn264 2.049 . S
O269 C277 1.260 . S
O270 Zn265 1.996 . S
O270 C277 1.257 . S
C271 O266 1.254 . S
C271 O267 1.269 . S
C272 O273 1.249 . S
C272 O274 1.270 . S
O273 Zn265 1.943 . S
O273 C272 1.249 . S
O274 Zn264 2.067 . S
O274 C272 1.270 . S
C275 O268 1.262 . S
C275 O276 1.232 . S
O276 C275 1.232 . S
C277 O269 1.260 . S
C277 O270 1.257 . S
Zn278 O281 2.031 . S
Zn278 O283 2.049 . S
Zn278 O288 2.067 . S
Zn279 O280 1.962 . S
Zn279 O282 1.986 . S
Zn279 O284 1.996 . S
Zn279 O287 1.943 . S
O280 Zn279 1.962 . S
O280 C285 1.254 . S
O281 Zn278 2.031 . S
O281 C285 1.269 . S
O282 Zn279 1.986 . S
O282 C289 1.262 . S
O283 Zn278 2.049 . S
O283 C291 1.260 . S
O284 Zn279 1.996 . S
O284 C291 1.257 . S
C285 O280 1.254 . S
C285 O281 1.269 . S
C286 O287 1.249 . S
C286 O288 1.270 . S
O287 Zn279 1.943 . S
O287 C286 1.249 . S
O288 Zn278 2.067 . S
O288 C286 1.270 . S
C289 O282 1.262 . S
C289 O290 1.232 . S
O290 C289 1.232 . S
C291 O283 1.260 . S
C291 O284 1.257 . S
Zn292 O295 2.031 . S
Zn292 O297 2.049 . S
Zn292 O302 2.067 . S
Zn293 O294 1.962 . S
Zn293 O296 1.986 . S
Zn293 O298 1.996 . S
Zn293 O301 1.943 . S
O294 Zn293 1.962 . S
O294 C299 1.254 . S
O295 Zn292 2.031 . S
O295 C299 1.269 . S
O296 Zn293 1.986 . S
O296 C303 1.262 . S
O297 Zn292 2.049 . S
O297 C305 1.260 . S
O298 Zn293 1.996 . S
O298 C305 1.257 . S
C299 O294 1.254 . S
C299 O295 1.269 . S
C300 O301 1.249 . S
C300 O302 1.270 . S
O301 Zn293 1.943 . S
O301 C300 1.249 . S
O302 Zn292 2.067 . S
O302 C300 1.270 . S
C303 O296 1.262 . S
C303 O304 1.232 . S
O304 C303 1.232 . S
C305 O297 1.260 . S
C305 O298 1.257 . S
Zn306 O309 2.031 1_565 S
Zn306 O311 2.049 . S
Zn306 O316 2.067 . S
Zn307 O308 1.962 . S
Zn307 O310 1.986 . S
Zn307 O312 1.996 1_545 S
Zn307 O315 1.943 . S
O308 Zn307 1.962 . S
O308 C313 1.254 . S
O309 Zn306 2.031 1_545 S
O309 C313 1.269 . S
O310 Zn307 1.986 . S
O310 C317 1.262 . S
O311 Zn306 2.049 . S
O311 C319 1.260 . S
O312 Zn307 1.996 1_565 S
O312 C319 1.257 . S
C313 O308 1.254 . S
C313 O309 1.269 . S
C314 O315 1.249 1_565 S
C314 O316 1.270 . S
O315 Zn307 1.943 . S
O315 C314 1.249 1_545 S
O316 Zn306 2.067 . S
O316 C314 1.270 . S
C317 O310 1.262 . S
C317 O318 1.232 . S
O318 C317 1.232 . S
C319 O311 1.260 . S
C319 O312 1.257 . S
Zn320 O323 2.031 . S
Zn320 O325 2.049 1_455 S
Zn320 O330 2.067 1_455 S
Zn321 O322 1.962 . S
Zn321 O324 1.986 . S
Zn321 O326 1.996 . S
Zn321 O329 1.943 1_455 S
O322 Zn321 1.962 . S
O322 C327 1.254 . S
O323 Zn320 2.031 . S
O323 C327 1.269 . S
O324 Zn321 1.986 . S
O324 C331 1.262 . S
O325 Zn320 2.049 1_655 S
O325 C333 1.260 . S
O326 Zn321 1.996 . S
O326 C333 1.257 1_455 S
C327 O322 1.254 . S
C327 O323 1.269 . S
C328 O329 1.249 . S
C328 O330 1.270 . S
O329 Zn321 1.943 1_655 S
O329 C328 1.249 . S
O330 Zn320 2.067 1_655 S
O330 C328 1.270 . S
C331 O324 1.262 . S
C331 O332 1.232 . S
O332 C331 1.232 . S
C333 O325 1.260 . S
C333 O326 1.257 1_655 S
Zn334 O337 2.031 . S
Zn334 O339 2.049 . S
Zn334 O344 2.067 . S
Zn335 O336 1.962 . S
Zn335 O338 1.986 . S
Zn335 O340 1.996 . S
Zn335 O343 1.943 . S
O336 Zn335 1.962 . S
O336 C341 1.254 . S
O337 Zn334 2.031 . S
O337 C341 1.269 . S
O338 Zn335 1.986 . S
O338 C345 1.262 . S
O339 Zn334 2.049 . S
O339 C347 1.260 . S
O340 Zn335 1.996 . S
O340 C347 1.257 . S
C341 O336 1.254 . S
C341 O337 1.269 . S
C342 O343 1.249 . S
C342 O344 1.270 . S
O343 Zn335 1.943 . S
O343 C342 1.249 . S
O344 Zn334 2.067 . S
O344 C342 1.270 . S
C345 O338 1.262 . S
C345 O346 1.232 . S
O346 C345 1.232 . S
C347 O339 1.260 . S
C347 O340 1.257 . S
Zn348 O351 2.031 1_655 S
Zn348 O353 2.049 . S
Zn348 O358 2.067 . S
Zn349 O350 1.962 . S
Zn349 O352 1.986 . S
Zn349 O354 1.996 1_455 S
Zn349 O357 1.943 . S
O350 Zn349 1.962 . S
O350 C355 1.254 . S
O351 Zn348 2.031 1_455 S
O351 C355 1.269 . S
O352 Zn349 1.986 . S
O352 C359 1.262 . S
O353 Zn348 2.049 . S
O353 C361 1.260 . S
O354 Zn349 1.996 1_655 S
O354 C361 1.257 . S
C355 O350 1.254 . S
C355 O351 1.269 . S
C356 O357 1.249 . S
C356 O358 1.270 1_455 S
O357 Zn349 1.943 . S
O357 C356 1.249 . S
O358 Zn348 2.067 . S
O358 C356 1.270 1_655 S
C359 O352 1.262 . S
C359 O360 1.232 . S
O360 C359 1.232 . S
C361 O353 1.260 . S
C361 O354 1.257 . S
Zn362 O365 2.031 . S
Zn362 O367 2.049 . S
Zn362 O372 2.067 . S
Zn363 O364 1.962 . S
Zn363 O366 1.986 . S
Zn363 O368 1.996 . S
Zn363 O371 1.943 . S
O364 Zn363 1.962 . S
O364 C369 1.254 . S
O365 Zn362 2.031 . S
O365 C369 1.269 . S
O366 Zn363 1.986 . S
O366 C373 1.262 . S
O367 Zn362 2.049 . S
O367 C375 1.260 . S
O368 Zn363 1.996 . S
O368 C375 1.257 . S
C369 O364 1.254 . S
C369 O365 1.269 . S
C370 O371 1.249 . S
C370 O372 1.270 . S
O371 Zn363 1.943 . S
O371 C370 1.249 . S
O372 Zn362 2.067 . S
O372 C370 1.270 . S
C373 O366 1.262 . S
C373 O374 1.232 . S
O374 C373 1.232 . S
C375 O367 1.260 . S
C375 O368 1.257 . S
C376 C377 1.391 . S
C376 C378 1.394 . S
C376 H392 0.931 . S
C377 C376 1.391 . S
C377 C381 1.376 . S
C378 C376 1.394 . S
C378 C379 1.369 . S
C378 C382 1.531 . S
C379 C378 1.369 . S
C379 C380 1.410 . S
C379 C387 1.503 . S
C380 C379 1.410 . S
C380 C381 1.392 . S
C380 C383 1.511 . S
C381 C377 1.376 . S
C381 C380 1.392 . S
C381 H393 0.929 . S
C382 C378 1.531 . S
C382 H394 0.960 . S
C382 H395 0.962 . S
C382 H396 0.960 . S
C383 C380 1.511 . S
C383 H397 0.961 . S
C383 H398 0.961 . S
C383 H399 0.961 . S
C384 C385 1.370 . S
C384 C386 1.363 . S
C384 H400 0.931 . S
C385 C384 1.370 . S
C385 C389 1.408 . S
C386 C384 1.363 . S
C386 C387 1.370 . S
C386 C390 1.524 . S
C387 C379 1.503 . S
C387 C386 1.370 . S
C387 C388 1.403 . S
C388 C387 1.403 . S
C388 C389 1.404 . S
C388 C391 1.539 . S
C389 C385 1.408 . S
C389 C388 1.404 . S
C389 H401 0.930 . S
C390 C386 1.524 . S
C390 H402 0.956 . S
C390 H403 0.961 . S
C390 H404 0.961 . S
C391 C388 1.539 . S
C391 H405 0.958 . S
C391 H406 0.961 . S
C391 H407 0.960 . S
H392 C376 0.931 . S
H393 C381 0.929 . S
H394 C382 0.960 . S
H395 C382 0.962 . S
H396 C382 0.960 . S
H397 C383 0.961 . S
H398 C383 0.961 . S
H399 C383 0.961 . S
H400 C384 0.931 . S
H401 C389 0.930 . S
H402 C390 0.956 . S
H403 C390 0.961 . S
H404 C390 0.961 . S
H405 C391 0.958 . S
H406 C391 0.961 . S
H407 C391 0.960 . S
C408 C409 1.391 . S
C408 C410 1.394 1_655 S
C408 H424 0.931 . S
C409 C408 1.391 . S
C409 C413 1.376 . S
C410 C408 1.394 1_455 S
C410 C411 1.369 . S
C410 C414 1.531 . S
C411 C410 1.369 . S
C411 C412 1.410 . S
C411 C419 1.503 . S
C412 C411 1.410 . S
C412 C413 1.392 1_455 S
C412 C415 1.511 . S
C413 C409 1.376 . S
C413 C412 1.392 1_655 S
C413 H425 0.929 . S
C414 C410 1.531 . S
C414 H426 0.960 . S
C414 H427 0.962 . S
C414 H428 0.960 1_455 S
C415 C412 1.511 . S
C415 H429 0.961 . S
C415 H430 0.961 . S
C415 H431 0.961 . S
C416 C417 1.370 . S
C416 C418 1.363 . S
C416 H432 0.931 . S
C417 C416 1.370 . S
C417 C421 1.408 . S
C418 C416 1.363 . S
C418 C419 1.370 . S
C418 C422 1.524 . S
C419 C411 1.503 . S
C419 C418 1.370 . S
C419 C420 1.403 . S
C420 C419 1.403 . S
C420 C421 1.404 . S
C420 C423 1.539 . S
C421 C417 1.408 . S
C421 C420 1.404 . S
C421 H433 0.930 . S
C422 C418 1.524 . S
C422 H434 0.956 . S
C422 H435 0.961 . S
C422 H436 0.961 . S
C423 C420 1.539 . S
C423 H437 0.958 . S
C423 H438 0.961 . S
C423 H439 0.960 . S
H424 C408 0.931 . S
H425 C413 0.929 . S
H426 C414 0.960 . S
H427 C414 0.962 . S
H428 C414 0.960 1_655 S
H429 C415 0.961 . S
H430 C415 0.961 . S
H431 C415 0.961 . S
H432 C416 0.931 . S
H433 C421 0.930 . S
H434 C422 0.956 . S
H435 C422 0.961 . S
H436 C422 0.961 . S
H437 C423 0.958 . S
H438 C423 0.961 . S
H439 C423 0.960 . S
C440 C441 1.391 . S
C440 C442 1.394 . S
C440 H456 0.931 . S
C441 C440 1.391 . S
C441 C445 1.376 . S
C442 C440 1.394 . S
C442 C443 1.369 . S
C442 C446 1.531 . S
C443 C442 1.369 . S
C443 C444 1.410 . S
C443 C451 1.503 . S
C444 C443 1.410 . S
C444 C445 1.392 . S
C444 C447 1.511 . S
C445 C441 1.376 . S
C445 C444 1.392 . S
C445 H457 0.929 . S
C446 C442 1.531 . S
C446 H458 0.960 . S
C446 H459 0.962 . S
C446 H460 0.960 . S
C447 C444 1.511 . S
C447 H461 0.961 . S
C447 H462 0.961 . S
C447 H463 0.961 . S
C448 C449 1.370 . S
C448 C450 1.363 . S
C448 H464 0.931 . S
C449 C448 1.370 . S
C449 C453 1.408 . S
C450 C448 1.363 . S
C450 C451 1.370 . S
C450 C454 1.524 . S
C451 C443 1.503 . S
C451 C450 1.370 . S
C451 C452 1.403 . S
C452 C451 1.403 . S
C452 C453 1.404 . S
C452 C455 1.539 . S
C453 C449 1.408 . S
C453 C452 1.404 . S
C453 H465 0.930 . S
C454 C450 1.524 . S
C454 H466 0.956 . S
C454 H467 0.961 . S
C454 H468 0.961 . S
C455 C452 1.539 . S
C455 H469 0.958 . S
C455 H470 0.961 . S
C455 H471 0.960 . S
H456 C440 0.931 . S
H457 C445 0.929 . S
H458 C446 0.960 . S
H459 C446 0.962 . S
H460 C446 0.960 . S
H461 C447 0.961 . S
H462 C447 0.961 . S
H463 C447 0.961 . S
H464 C448 0.931 . S
H465 C453 0.930 . S
H466 C454 0.956 . S
H467 C454 0.961 . S
H468 C454 0.961 . S
H469 C455 0.958 . S
H470 C455 0.961 . S
H471 C455 0.960 . S
C472 C473 1.391 . S
C472 C474 1.394 1_455 S
C472 H488 0.931 . S
C473 C472 1.391 . S
C473 C477 1.376 . S
C474 C472 1.394 1_655 S
C474 C475 1.369 . S
C474 C478 1.531 1_565 S
C475 C474 1.369 . S
C475 C476 1.410 1_655 S
C475 C483 1.503 . S
C476 C475 1.410 1_455 S
C476 C477 1.392 . S
C476 C479 1.511 . S
C477 C473 1.376 . S
C477 C476 1.392 . S
C477 H489 0.929 . S
C478 C474 1.531 1_545 S
C478 H490 0.960 . S
C478 H491 0.962 . S
C478 H492 0.960 . S
C479 C476 1.511 . S
C479 H493 0.961 . S
C479 H494 0.961 1_455 S
C479 H495 0.961 . S
C480 C481 1.370 . S
C480 C482 1.363 . S
C480 H496 0.931 . S
C481 C480 1.370 . S
C481 C485 1.408 1_565 S
C482 C480 1.363 . S
C482 C483 1.370 . S
C482 C486 1.524 . S
C483 C475 1.503 . S
C483 C482 1.370 . S
C483 C484 1.403 1_565 S
C484 C483 1.403 1_545 S
C484 C485 1.404 . S
C484 C487 1.539 . S
C485 C481 1.408 1_545 S
C485 C484 1.404 . S
C485 H497 0.930 . S
C486 C482 1.524 . S
C486 H498 0.956 . S
C486 H499 0.961 . S
C486 H500 0.961 . S
C487 C484 1.539 . S
C487 H501 0.958 . S
C487 H502 0.961 . S
C487 H503 0.926 1_655 S
H488 C472 0.931 . S
H489 C477 0.929 . S
H490 C478 0.960 . S
H491 C478 0.962 . S
H492 C478 0.960 . S
H493 C479 0.961 . S
H494 C479 0.961 1_655 S
H495 C479 0.961 . S
H496 C480 0.931 . S
H497 C485 0.930 . S
H498 C486 0.956 . S
H499 C486 0.961 . S
H500 C486 0.961 . S
H501 C487 0.958 . S
H502 C487 0.961 . S
H503 C487 0.926 1_455 S
C504 C505 1.391 . S
C504 C506 1.394 . S
C504 H520 0.931 . S
C505 C504 1.391 . S
C505 C509 1.376 . S
C506 C504 1.394 . S
C506 C507 1.369 . S
C506 C510 1.531 . S
C507 C506 1.369 . S
C507 C508 1.410 . S
C507 C515 1.503 . S
C508 C507 1.410 . S
C508 C509 1.392 . S
C508 C511 1.511 . S
C509 C505 1.376 . S
C509 C508 1.392 . S
C509 H521 0.929 . S
C510 C506 1.531 . S
C510 H522 0.960 . S
C510 H523 0.962 . S
C510 H524 0.960 . S
C511 C508 1.511 . S
C511 H525 0.961 . S
C511 H526 0.961 . S
C511 H527 0.961 . S
C512 C513 1.370 . S
C512 C514 1.363 . S
C512 H528 0.931 . S
C513 C512 1.370 . S
C513 C517 1.408 . S
C514 C512 1.363 . S
C514 C515 1.370 . S
C514 C518 1.524 . S
C515 C507 1.503 . S
C515 C514 1.370 . S
C515 C516 1.403 . S
C516 C515 1.403 . S
C516 C517 1.404 . S
C516 C519 1.539 . S
C517 C513 1.408 . S
C517 C516 1.404 . S
C517 H529 0.930 . S
C518 C514 1.524 . S
C518 H530 0.956 . S
C518 H531 0.961 . S
C518 H532 0.961 . S
C519 C516 1.539 . S
C519 H533 0.958 . S
C519 H534 0.961 . S
C519 H535 0.960 . S
H520 C504 0.931 . S
H521 C509 0.929 . S
H522 C510 0.960 . S
H523 C510 0.962 . S
H524 C510 0.960 . S
H525 C511 0.961 . S
H526 C511 0.961 . S
H527 C511 0.961 . S
H528 C512 0.931 . S
H529 C517 0.930 . S
H530 C518 0.956 . S
H531 C518 0.961 . S
H532 C518 0.961 . S
H533 C519 0.958 . S
H534 C519 0.961 . S
H535 C519 0.960 . S
C536 C537 1.391 . S
C536 C538 1.394 . S
C536 H552 0.931 . S
C537 C536 1.391 . S
C537 C541 1.376 . S
C538 C536 1.394 . S
C538 C539 1.369 . S
C538 C542 1.531 . S
C539 C538 1.369 . S
C539 C540 1.410 . S
C539 C547 1.503 . S
C540 C539 1.410 . S
C540 C541 1.392 . S
C540 C543 1.511 . S
C541 C537 1.376 . S
C541 C540 1.392 . S
C541 H553 0.929 . S
C542 C538 1.531 . S
C542 H554 0.960 . S
C542 H555 0.962 . S
C542 H556 0.960 . S
C543 C540 1.511 . S
C543 H557 0.961 . S
C543 H558 0.961 . S
C543 H559 0.961 . S
C544 C545 1.370 . S
C544 C546 1.363 . S
C544 H560 0.931 . S
C545 C544 1.370 . S
C545 C549 1.408 . S
C546 C544 1.363 . S
C546 C547 1.370 . S
C546 C550 1.524 . S
C547 C539 1.503 . S
C547 C546 1.370 . S
C547 C548 1.403 . S
C548 C547 1.403 . S
C548 C549 1.404 . S
C548 C551 1.539 . S
C549 C545 1.408 . S
C549 C548 1.404 . S
C549 H561 0.930 . S
C550 C546 1.524 . S
C550 H562 0.956 . S
C550 H563 0.961 . S
C550 H564 0.961 . S
C551 C548 1.539 . S
C551 H565 0.958 . S
C551 H566 0.961 . S
C551 H567 0.960 . S
H552 C536 0.931 . S
H553 C541 0.929 . S
H554 C542 0.960 . S
H555 C542 0.962 . S
H556 C542 0.960 . S
H557 C543 0.961 . S
H558 C543 0.961 . S
H559 C543 0.961 . S
H560 C544 0.931 . S
H561 C549 0.930 . S
H562 C550 0.956 . S
H563 C550 0.961 . S
H564 C550 0.961 . S
H565 C551 0.958 . S
H566 C551 0.961 . S
H567 C551 0.960 . S
C568 C569 1.391 . S
C568 C570 1.394 . S
C568 H584 0.931 . S
C569 C568 1.391 . S
C569 C573 1.376 . S
C570 C568 1.394 . S
C570 C571 1.369 . S
C570 C574 1.531 . S
C571 C570 1.369 . S
C571 C572 1.410 . S
C571 C579 1.503 . S
C572 C571 1.410 . S
C572 C573 1.392 . S
C572 C575 1.511 . S
C573 C569 1.376 . S
C573 C572 1.392 . S
C573 H585 0.929 . S
C574 C570 1.531 . S
C574 H586 0.960 . S
C574 H587 0.962 . S
C574 H588 0.960 . S
C575 C572 1.511 . S
C575 H589 0.961 . S
C575 H590 0.961 . S
C575 H591 0.961 . S
C576 C577 1.370 . S
C576 C578 1.363 . S
C576 H592 0.931 . S
C577 C576 1.370 . S
C577 C581 1.408 . S
C578 C576 1.363 . S
C578 C579 1.370 . S
C578 C582 1.524 . S
C579 C571 1.503 . S
C579 C578 1.370 . S
C579 C580 1.403 . S
C580 C579 1.403 . S
C580 C581 1.404 . S
C580 C583 1.539 . S
C581 C577 1.408 . S
C581 C580 1.404 . S
C581 H593 0.930 . S
C582 C578 1.524 . S
C582 H594 0.956 . S
C582 H595 0.961 . S
C582 H596 0.961 . S
C583 C580 1.539 . S
C583 H597 0.958 . S
C583 H598 0.961 . S
C583 H599 0.960 . S
H584 C568 0.931 . S
H585 C573 0.929 . S
H586 C574 0.960 . S
H587 C574 0.962 . S
H588 C574 0.960 . S
H589 C575 0.961 . S
H590 C575 0.961 . S
H591 C575 0.961 . S
H592 C576 0.931 . S
H593 C581 0.930 . S
H594 C582 0.956 . S
H595 C582 0.961 . S
H596 C582 0.961 . S
H597 C583 0.958 . S
H598 C583 0.961 . S
H599 C583 0.960 . S
C600 C601 1.391 . S
C600 C602 1.394 . S
C600 H616 0.931 1_565 S
C601 C600 1.391 . S
C601 C605 1.376 . S
C602 C600 1.394 . S
C602 C603 1.369 . S
C602 C606 1.531 1_565 S
C603 C602 1.369 . S
C603 C604 1.410 . S
C603 C611 1.503 . S
C604 C603 1.410 . S
C604 C605 1.392 . S
C604 C607 1.511 . S
C605 C601 1.376 . S
C605 C604 1.392 . S
C605 H617 0.929 . S
C606 C602 1.531 1_545 S
C606 H618 0.960 . S
C606 H619 0.962 . S
C606 H620 0.960 . S
C607 C604 1.511 . S
C607 H621 0.961 . S
C607 H622 0.961 . S
C607 H623 0.961 . S
C608 C609 1.366 1_545 S
C608 C610 1.362 1_545 S
C608 H624 0.936 . S
C609 C608 1.366 1_565 S
C609 C613 1.408 . S
C610 C608 1.362 1_565 S
C610 C611 1.370 . S
C610 C614 1.530 . S
C611 C603 1.503 . S
C611 C610 1.370 . S
C611 C612 1.403 . S
C612 C611 1.403 . S
C612 C613 1.404 . S
C612 C615 1.539 . S
C613 C609 1.408 . S
C613 C612 1.404 . S
C613 H625 0.930 . S
C614 C610 1.530 . S
C614 H626 0.943 1_565 S
C614 H627 0.973 . S
C614 H628 0.956 1_565 S
C615 C612 1.539 . S
C615 H629 0.958 . S
C615 H630 0.961 . S
C615 H631 0.960 . S
H616 C600 0.931 1_545 S
H617 C605 0.929 . S
H618 C606 0.960 . S
H619 C606 0.962 . S
H620 C606 0.960 . S
H621 C607 0.961 . S
H622 C607 0.961 . S
H623 C607 0.961 . S
H624 C608 0.936 . S
H625 C613 0.930 . S
H626 C614 0.943 1_545 S
H627 C614 0.973 . S
H628 C614 0.956 1_545 S
H629 C615 0.958 . S
H630 C615 0.961 . S
H631 C615 0.960 . S
C632 C633 1.391 . S
C632 C634 1.394 . S
C632 H648 0.931 . S
C633 C632 1.391 . S
C633 C637 1.376 . S
C634 C632 1.394 . S
C634 C635 1.369 . S
C634 C638 1.531 . S
C635 C634 1.369 . S
C635 C636 1.410 . S
C635 C643 1.503 . S
C636 C635 1.410 . S
C636 C637 1.392 . S
C636 C639 1.511 . S
C637 C633 1.376 . S
C637 C636 1.392 . S
C637 H649 0.929 . S
C638 C634 1.531 . S
C638 H650 0.960 . S
C638 H651 0.962 . S
C638 H652 0.960 . S
C639 C636 1.511 . S
C639 H653 0.961 . S
C639 H654 0.961 . S
C639 H655 0.961 . S
C640 C641 1.370 . S
C640 C642 1.363 . S
C640 H656 0.931 . S
C641 C640 1.370 . S
C641 C645 1.408 . S
C642 C640 1.363 . S
C642 C643 1.370 . S
C642 C646 1.524 . S
C643 C635 1.503 . S
C643 C642 1.370 . S
C643 C644 1.403 . S
C644 C643 1.403 . S
C644 C645 1.404 . S
C644 C647 1.539 . S
C645 C641 1.408 . S
C645 C644 1.404 . S
C645 H657 0.930 . S
C646 C642 1.524 . S
C646 H658 0.956 . S
C646 H659 0.961 . S
C646 H660 0.961 . S
C647 C644 1.539 . S
C647 H661 0.958 . S
C647 H662 0.961 . S
C647 H663 0.960 . S
H648 C632 0.931 . S
H649 C637 0.929 . S
H650 C638 0.960 . S
H651 C638 0.962 . S
H652 C638 0.960 . S
H653 C639 0.961 . S
H654 C639 0.961 . S
H655 C639 0.961 . S
H656 C640 0.931 . S
H657 C645 0.930 . S
H658 C646 0.956 . S
H659 C646 0.961 . S
H660 C646 0.961 . S
H661 C647 0.958 . S
H662 C647 0.961 . S
H663 C647 0.960 . S
C664 C665 1.391 . S
C664 C666 1.394 . S
C664 H680 0.931 . S
C665 C664 1.391 . S
C665 C669 1.376 . S
C666 C664 1.394 . S
C666 C667 1.369 . S
C666 C670 1.531 . S
C667 C666 1.369 . S
C667 C668 1.410 . S
C667 C675 1.503 . S
C668 C667 1.410 . S
C668 C669 1.392 . S
C668 C671 1.511 . S
C669 C665 1.376 . S
C669 C668 1.392 . S
C669 H681 0.929 . S
C670 C666 1.531 . S
C670 H682 0.960 . S
C670 H683 0.962 . S
C670 H684 0.960 . S
C671 C668 1.511 . S
C671 H685 0.961 . S
C671 H686 0.961 . S
C671 H687 0.961 . S
C672 C673 1.370 . S
C672 C674 1.363 . S
C672 H688 0.931 . S
C673 C672 1.370 . S
C673 C677 1.408 . S
C674 C672 1.363 . S
C674 C675 1.370 . S
C674 C678 1.524 . S
C675 C667 1.503 . S
C675 C674 1.370 . S
C675 C676 1.403 . S
C676 C675 1.403 . S
C676 C677 1.404 . S
C676 C679 1.539 . S
C677 C673 1.408 . S
C677 C676 1.404 . S
C677 H689 0.930 . S
C678 C674 1.524 . S
C678 H690 0.956 . S
C678 H691 0.961 . S
C678 H692 0.961 . S
C679 C676 1.539 . S
C679 H693 0.958 . S
C679 H694 0.961 . S
C679 H695 0.960 . S
H680 C664 0.931 . S
H681 C669 0.929 . S
H682 C670 0.960 . S
H683 C670 0.962 . S
H684 C670 0.960 . S
H685 C671 0.961 . S
H686 C671 0.961 . S
H687 C671 0.961 . S
H688 C672 0.931 . S
H689 C677 0.930 . S
H690 C678 0.956 . S
H691 C678 0.961 . S
H692 C678 0.961 . S
H693 C679 0.958 . S
H694 C679 0.961 . S
H695 C679 0.960 . S
C696 C697 1.391 . S
C696 C698 1.394 . S
C696 H712 0.931 . S
C697 C696 1.391 . S
C697 C701 1.376 . S
C698 C696 1.394 . S
C698 C699 1.369 . S
C698 C702 1.531 . S
C699 C698 1.369 . S
C699 C700 1.410 . S
C699 C707 1.503 . S
C700 C699 1.410 . S
C700 C701 1.392 . S
C700 C703 1.511 . S
C701 C697 1.376 . S
C701 C700 1.392 . S
C701 H713 0.929 . S
C702 C698 1.531 . S
C702 H714 0.960 . S
C702 H715 0.962 . S
C702 H716 0.960 . S
C703 C700 1.511 . S
C703 H717 0.961 . S
C703 H718 0.961 . S
C703 H719 0.961 . S
C704 C705 1.370 . S
C704 C706 1.363 . S
C704 H720 0.931 . S
C705 C704 1.370 . S
C705 C709 1.408 . S
C706 C704 1.363 . S
C706 C707 1.370 . S
C706 C710 1.524 . S
C707 C699 1.503 . S
C707 C706 1.370 . S
C707 C708 1.403 . S
C708 C707 1.403 . S
C708 C709 1.404 . S
C708 C711 1.539 . S
C709 C705 1.408 . S
C709 C708 1.404 . S
C709 H721 0.930 . S
C710 C706 1.524 . S
C710 H722 0.956 . S
C710 H723 0.961 . S
C710 H724 0.961 . S
C711 C708 1.539 . S
C711 H725 0.958 . S
C711 H726 0.961 . S
C711 H727 0.960 . S
H712 C696 0.931 . S
H713 C701 0.929 . S
H714 C702 0.960 . S
H715 C702 0.962 . S
H716 C702 0.960 . S
H717 C703 0.961 . S
H718 C703 0.961 . S
H719 C703 0.961 . S
H720 C704 0.931 . S
H721 C709 0.930 . S
H722 C710 0.956 . S
H723 C710 0.961 . S
H724 C710 0.961 . S
H725 C711 0.958 . S
H726 C711 0.961 . S
H727 C711 0.960 . S
C728 C729 1.391 . S
C728 C730 1.394 . S
C728 H744 0.931 . S
C729 C728 1.391 . S
C729 C733 1.376 . S
C730 C728 1.394 . S
C730 C731 1.369 . S
C730 C734 1.531 . S
C731 C730 1.369 . S
C731 C732 1.410 . S
C731 C739 1.503 . S
C732 C731 1.410 . S
C732 C733 1.392 . S
C732 C735 1.511 . S
C733 C729 1.376 . S
C733 C732 1.392 . S
C733 H745 0.929 . S
C734 C730 1.531 . S
C734 H746 0.960 . S
C734 H747 0.962 . S
C734 H748 0.960 . S
C735 C732 1.511 . S
C735 H749 0.961 . S
C735 H750 0.961 . S
C735 H751 0.961 . S
C736 C737 1.370 . S
C736 C738 1.363 . S
C736 H752 0.931 . S
C737 C736 1.370 . S
C737 C741 1.408 . S
C738 C736 1.363 . S
C738 C739 1.370 . S
C738 C742 1.524 . S
C739 C731 1.503 . S
C739 C738 1.370 . S
C739 C740 1.403 . S
C740 C739 1.403 . S
C740 C741 1.404 . S
C740 C743 1.539 . S
C741 C737 1.408 . S
C741 C740 1.404 . S
C741 H753 0.930 . S
C742 C738 1.524 . S
C742 H754 0.956 . S
C742 H755 0.961 . S
C742 H756 0.961 . S
C743 C740 1.539 . S
C743 H757 0.958 . S
C743 H758 0.961 . S
C743 H759 0.960 . S
H744 C728 0.931 . S
H745 C733 0.929 . S
H746 C734 0.960 . S
H747 C734 0.962 . S
H748 C734 0.960 . S
H749 C735 0.961 . S
H750 C735 0.961 . S
H751 C735 0.961 . S
H752 C736 0.931 . S
H753 C741 0.930 . S
H754 C742 0.956 . S
H755 C742 0.961 . S
H756 C742 0.961 . S
H757 C743 0.958 . S
H758 C743 0.961 . S
H759 C743 0.960 . S
C760 C761 1.391 . S
C760 C762 1.394 . S
C760 H776 0.931 . S
C761 C760 1.391 . S
C761 C765 1.376 . S
C762 C760 1.394 . S
C762 C763 1.369 . S
C762 C766 1.531 . S
C763 C762 1.369 . S
C763 C764 1.410 . S
C763 C771 1.503 . S
C764 C763 1.410 . S
C764 C765 1.392 . S
C764 C767 1.511 . S
C765 C761 1.376 . S
C765 C764 1.392 . S
C765 H777 0.929 . S
C766 C762 1.531 . S
C766 H778 0.960 . S
C766 H779 0.962 . S
C766 H780 0.960 . S
C767 C764 1.511 . S
C767 H781 0.961 . S
C767 H782 0.961 . S
C767 H783 0.961 . S
C768 C769 1.370 . S
C768 C770 1.363 . S
C768 H784 0.931 . S
C769 C768 1.370 . S
C769 C773 1.408 . S
C770 C768 1.363 . S
C770 C771 1.370 . S
C770 C774 1.524 . S
C771 C763 1.503 . S
C771 C770 1.370 . S
C771 C772 1.403 . S
C772 C771 1.403 . S
C772 C773 1.404 . S
C772 C775 1.539 . S
C773 C769 1.408 . S
C773 C772 1.404 . S
C773 H785 0.930 . S
C774 C770 1.524 . S
C774 H786 0.956 . S
C774 H787 0.961 . S
C774 H788 0.961 . S
C775 C772 1.539 . S
C775 H789 0.958 . S
C775 H790 0.961 . S
C775 H791 0.960 . S
H776 C760 0.931 . S
H777 C765 0.929 . S
H778 C766 0.960 . S
H779 C766 0.962 . S
H780 C766 0.960 . S
H781 C767 0.961 . S
H782 C767 0.961 . S
H783 C767 0.961 . S
H784 C768 0.931 . S
H785 C773 0.930 . S
H786 C774 0.956 . S
H787 C774 0.961 . S
H788 C774 0.961 . S
H789 C775 0.958 . S
H790 C775 0.961 . S
H791 C775 0.960 . S
C792 C793 1.391 . S
C792 C794 1.394 . S
C792 H808 0.931 . S
C793 C792 1.391 . S
C793 C797 1.376 . S
C794 C792 1.394 . S
C794 C795 1.369 . S
C794 C798 1.531 . S
C795 C794 1.369 . S
C795 C796 1.410 . S
C795 C803 1.503 . S
C796 C795 1.410 . S
C796 C797 1.392 . S
C796 C799 1.511 . S
C797 C793 1.376 . S
C797 C796 1.392 . S
C797 H809 0.929 . S
C798 C794 1.531 . S
C798 H810 0.960 . S
C798 H811 0.962 . S
C798 H812 0.960 . S
C799 C796 1.511 . S
C799 H813 0.961 1_455 S
C799 H814 0.961 . S
C799 H815 0.961 1_455 S
C800 C801 1.370 . S
C800 C802 1.363 . S
C800 H816 0.931 . S
C801 C800 1.370 . S
C801 C805 1.408 . S
C802 C800 1.363 . S
C802 C803 1.370 . S
C802 C806 1.524 . S
C803 C795 1.503 . S
C803 C802 1.370 . S
C803 C804 1.403 . S
C804 C803 1.403 . S
C804 C805 1.404 . S
C804 C807 1.539 . S
C805 C801 1.408 . S
C805 C804 1.404 . S
C805 H817 0.930 . S
C806 C802 1.524 . S
C806 H818 0.956 . S
C806 H819 0.961 . S
C806 H820 0.961 . S
C807 C804 1.539 . S
C807 H821 0.958 . S
C807 H822 0.961 . S
C807 H823 0.960 . S
H808 C792 0.931 . S
H809 C797 0.929 . S
H810 C798 0.960 . S
H811 C798 0.962 . S
H812 C798 0.960 . S
H813 C799 0.961 1_655 S
H814 C799 0.961 . S
H815 C799 0.961 1_655 S
H816 C800 0.931 . S
H817 C805 0.930 . S
H818 C806 0.956 . S
H819 C806 0.961 . S
H820 C806 0.961 . S
H821 C807 0.958 . S
H822 C807 0.961 . S
H823 C807 0.960 . S
C824 C825 1.391 . S
C824 C826 1.394 . S
C824 H840 0.931 . S
C825 C824 1.391 . S
C825 C829 1.376 . S
C826 C824 1.394 . S
C826 C827 1.369 . S
C826 C830 1.531 . S
C827 C826 1.369 . S
C827 C828 1.410 . S
C827 C835 1.503 . S
C828 C827 1.410 . S
C828 C829 1.392 . S
C828 C831 1.511 . S
C829 C825 1.376 . S
C829 C828 1.392 . S
C829 H841 0.929 . S
C830 C826 1.531 . S
C830 H842 0.960 . S
C830 H843 0.962 . S
C830 H844 0.960 . S
C831 C828 1.511 . S
C831 H845 0.961 . S
C831 H846 0.961 . S
C831 H847 0.961 . S
C832 C833 1.370 . S
C832 C834 1.363 . S
C832 H848 0.931 . S
C833 C832 1.370 . S
C833 C837 1.408 . S
C834 C832 1.363 . S
C834 C835 1.370 . S
C834 C838 1.524 . S
C835 C827 1.503 . S
C835 C834 1.370 . S
C835 C836 1.403 . S
C836 C835 1.403 . S
C836 C837 1.404 . S
C836 C839 1.539 . S
C837 C833 1.408 . S
C837 C836 1.404 . S
C837 H849 0.930 . S
C838 C834 1.524 . S
C838 H850 0.956 . S
C838 H851 0.961 . S
C838 H852 0.961 . S
C839 C836 1.539 . S
C839 H853 0.958 . S
C839 H854 0.961 . S
C839 H855 0.960 . S
H840 C824 0.931 . S
H841 C829 0.929 . S
H842 C830 0.960 . S
H843 C830 0.962 . S
H844 C830 0.960 . S
H845 C831 0.961 . S
H846 C831 0.961 . S
H847 C831 0.961 . S
H848 C832 0.931 . S
H849 C837 0.930 . S
H850 C838 0.956 . S
H851 C838 0.961 . S
H852 C838 0.961 . S
H853 C839 0.958 . S
H854 C839 0.961 . S
H855 C839 0.960 . S
C856 C857 1.391 . S
C856 C858 1.394 . S
C856 H872 0.931 . S
C857 C856 1.391 . S
C857 C861 1.376 . S
C858 C856 1.394 . S
C858 C859 1.369 . S
C858 C862 1.531 1_655 S
C859 C858 1.369 . S
C859 C860 1.410 . S
C859 C867 1.503 . S
C860 C859 1.410 . S
C860 C861 1.392 . S
C860 C863 1.511 . S
C861 C857 1.376 . S
C861 C860 1.392 . S
C861 H873 0.929 . S
C862 C858 1.531 1_455 S
C862 H874 0.960 . S
C862 H875 0.962 . S
C862 H876 0.960 . S
C863 C860 1.511 . S
C863 H877 0.961 . S
C863 H878 0.961 . S
C863 H879 0.961 . S
C864 C865 1.373 . S
C864 C866 1.363 1_455 S
C864 H880 0.931 . S
C865 C864 1.373 . S
C865 C869 1.402 1_455 S
C866 C864 1.363 1_655 S
C866 C867 1.370 . S
C866 C870 1.524 . S
C867 C859 1.503 . S
C867 C866 1.370 . S
C867 C868 1.403 . S
C868 C867 1.403 . S
C868 C869 1.404 . S
C868 C871 1.539 . S
C869 C865 1.402 1_655 S
C869 C868 1.404 . S
C869 H881 0.930 . S
C870 C866 1.524 . S
C870 H882 0.956 1_655 S
C870 H883 0.961 . S
C870 H884 0.961 1_655 S
C871 C868 1.539 . S
C871 H885 0.958 . S
C871 H886 0.961 . S
C871 H887 0.960 . S
H872 C856 0.931 . S
H873 C861 0.929 . S
H874 C862 0.960 . S
H875 C862 0.962 . S
H876 C862 0.960 . S
H877 C863 0.961 . S
H878 C863 0.961 . S
H879 C863 0.961 . S
H880 C864 0.931 . S
H881 C869 0.930 . S
H882 C870 0.956 1_455 S
H883 C870 0.961 . S
H884 C870 0.961 1_455 S
H885 C871 0.958 . S
H886 C871 0.961 . S
H887 C871 0.960 . S
C888 C889 1.391 . S
C888 C890 1.394 . S
C888 H904 0.931 . S
C889 C888 1.391 . S
C889 C893 1.376 . S
C890 C888 1.394 . S
C890 C891 1.369 . S
C890 C894 1.531 . S
C891 C890 1.369 . S
C891 C892 1.410 . S
C891 C899 1.503 . S
C892 C891 1.410 . S
C892 C893 1.392 . S
C892 C895 1.511 . S
C893 C889 1.376 . S
C893 C892 1.392 . S
C893 H905 0.929 . S
C894 C890 1.531 . S
C894 H906 0.960 . S
C894 H907 0.962 . S
C894 H908 0.960 . S
C895 C892 1.511 . S
C895 H909 0.961 . S
C895 H910 0.961 . S
C895 H911 0.961 . S
C896 C897 1.370 . S
C896 C898 1.363 . S
C896 H912 0.931 . S
C897 C896 1.370 . S
C897 C901 1.408 . S
C898 C896 1.363 . S
C898 C899 1.370 . S
C898 C902 1.524 . S
C899 C891 1.503 . S
C899 C898 1.370 . S
C899 C900 1.403 . S
C900 C899 1.403 . S
C900 C901 1.404 . S
C900 C903 1.539 . S
C901 C897 1.408 . S
C901 C900 1.404 . S
C901 H913 0.930 . S
C902 C898 1.524 . S
C902 H914 0.956 . S
C902 H915 0.961 . S
C902 H916 0.961 . S
C903 C900 1.539 . S
C903 H917 0.958 . S
C903 H918 0.961 . S
C903 H919 0.960 . S
H904 C888 0.931 . S
H905 C893 0.929 . S
H906 C894 0.960 . S
H907 C894 0.962 . S
H908 C894 0.960 . S
H909 C895 0.961 . S
H910 C895 0.961 . S
H911 C895 0.961 . S
H912 C896 0.931 . S
H913 C901 0.930 . S
H914 C902 0.956 . S
H915 C902 0.961 . S
H916 C902 0.961 . S
H917 C903 0.958 . S
H918 C903 0.961 . S
H919 C903 0.960 . S
C920 C921 1.391 . S
C920 C922 1.394 . S
C920 H936 0.931 . S
C921 C920 1.391 . S
C921 C925 1.376 . S
C922 C920 1.394 . S
C922 C923 1.369 . S
C922 C926 1.531 . S
C923 C922 1.369 . S
C923 C924 1.410 . S
C923 C931 1.503 . S
C924 C923 1.410 . S
C924 C925 1.392 . S
C924 C927 1.511 . S
C925 C921 1.376 . S
C925 C924 1.392 . S
C925 H937 0.929 . S
C926 C922 1.531 . S
C926 H938 0.960 . S
C926 H939 0.962 . S
C926 H940 0.960 . S
C927 C924 1.511 . S
C927 H941 0.961 . S
C927 H942 0.961 . S
C927 H943 0.961 . S
C928 C929 1.370 . S
C928 C930 1.363 . S
C928 H944 0.931 . S
C929 C928 1.370 . S
C929 C933 1.408 . S
C930 C928 1.363 . S
C930 C931 1.370 . S
C930 C934 1.524 . S
C931 C923 1.503 . S
C931 C930 1.370 . S
C931 C932 1.403 . S
C932 C931 1.403 . S
C932 C933 1.404 . S
C932 C935 1.539 . S
C933 C929 1.408 . S
C933 C932 1.404 . S
C933 H945 0.930 . S
C934 C930 1.524 . S
C934 H946 0.956 . S
C934 H947 0.961 . S
C934 H948 0.961 . S
C935 C932 1.539 . S
C935 H949 0.958 . S
C935 H950 0.961 . S
C935 H951 0.960 . S
H936 C920 0.931 . S
H937 C925 0.929 . S
H938 C926 0.960 . S
H939 C926 0.962 . S
H940 C926 0.960 . S
H941 C927 0.961 . S
H942 C927 0.961 . S
H943 C927 0.961 . S
H944 C928 0.931 . S
H945 C933 0.930 . S
H946 C934 0.956 . S
H947 C934 0.961 . S
H948 C934 0.961 . S
H949 C935 0.958 . S
H950 C935 0.961 . S
H951 C935 0.960 . S
C952 C953 1.391 . S
C952 C954 1.394 1_545 S
C952 H968 0.931 . S
C953 C952 1.391 . S
C953 C957 1.376 . S
C954 C952 1.394 1_565 S
C954 C955 1.369 . S
C954 C958 1.531 . S
C955 C954 1.369 . S
C955 C956 1.410 1_565 S
C955 C963 1.503 . S
C956 C955 1.410 1_545 S
C956 C957 1.392 . S
C956 C959 1.511 . S
C957 C953 1.376 . S
C957 C956 1.392 . S
C957 H969 0.929 . S
C958 C954 1.531 . S
C958 H970 0.977 . S
C958 H971 0.962 . S
C958 H972 0.960 . S
C959 C956 1.511 . S
C959 H973 0.961 . S
C959 H974 0.961 . S
C959 H975 0.961 . S
C960 C961 1.370 . S
C960 C962 1.363 . S
C960 H976 0.931 . S
C961 C960 1.370 . S
C961 C965 1.408 1_556 S
C962 C960 1.363 . S
C962 C963 1.370 . S
C962 C966 1.524 . S
C963 C955 1.503 . S
C963 C962 1.370 . S
C963 C964 1.403 1_556 S
C964 C963 1.403 1_554 S
C964 C965 1.404 . S
C964 C967 1.539 . S
C965 C961 1.408 1_554 S
C965 C964 1.404 . S
C965 H977 0.930 . S
C966 C962 1.524 . S
C966 H978 0.956 . S
C966 H979 0.961 . S
C966 H980 0.961 . S
C967 C964 1.539 . S
C967 H981 0.958 . S
C967 H982 0.961 1_565 S
C967 H983 0.960 1_565 S
H968 C952 0.931 . S
H969 C957 0.929 . S
H970 C958 0.977 . S
H971 C958 0.962 . S
H972 C958 0.960 . S
H973 C959 0.961 . S
H974 C959 0.961 . S
H975 C959 0.961 . S
H976 C960 0.931 . S
H977 C965 0.930 . S
H978 C966 0.956 . S
H979 C966 0.961 . S
H980 C966 0.961 . S
H981 C967 0.958 . S
H982 C967 0.961 1_545 S
H983 C967 0.960 1_545 S
C984 C985 1.391 . S
C984 C986 1.394 . S
C984 H1000 0.931 . S
C985 C984 1.391 . S
C985 C989 1.376 . S
C986 C984 1.394 . S
C986 C987 1.369 . S
C986 C990 1.531 . S
C987 C986 1.369 . S
C987 C988 1.410 . S
C987 C995 1.503 . S
C988 C987 1.410 . S
C988 C989 1.392 . S
C988 C991 1.511 . S
C989 C985 1.376 . S
C989 C988 1.392 . S
C989 H1001 0.929 . S
C990 C986 1.531 . S
C990 H1002 0.960 . S
C990 H1003 0.962 . S
C990 H1004 0.960 . S
C991 C988 1.511 . S
C991 H1005 0.961 . S
C991 H1006 0.961 . S
C991 H1007 0.961 . S
C992 C993 1.370 . S
C992 C994 1.363 . S
C992 H1008 0.931 . S
C993 C992 1.370 . S
C993 C997 1.408 . S
C994 C992 1.363 . S
C994 C995 1.370 . S
C994 C998 1.524 . S
C995 C987 1.503 . S
C995 C994 1.370 . S
C995 C996 1.403 . S
C996 C995 1.403 . S
C996 C997 1.404 . S
C996 C999 1.539 . S
C997 C993 1.408 . S
C997 C996 1.404 . S
C997 H1009 0.930 . S
C998 C994 1.524 . S
C998 H1010 0.956 . S
C998 H1011 0.961 . S
C998 H1012 0.961 . S
C999 C996 1.539 . S
C999 H1013 0.958 . S
C999 H1014 0.961 . S
C999 H1015 0.960 . S
H1000 C984 0.931 . S
H1001 C989 0.929 . S
H1002 C990 0.960 . S
H1003 C990 0.962 . S
H1004 C990 0.960 . S
H1005 C991 0.961 . S
H1006 C991 0.961 . S
H1007 C991 0.961 . S
H1008 C992 0.931 . S
H1009 C997 0.930 . S
H1010 C998 0.956 . S
H1011 C998 0.961 . S
H1012 C998 0.961 . S
H1013 C999 0.958 . S
H1014 C999 0.961 . S
H1015 C999 0.960 . S
C1016 C1017 1.391 1_545 S
C1016 C1018 1.394 . S
C1016 H1032 0.931 . S
C1017 C1016 1.391 1_565 S
C1017 C1021 1.376 . S
C1018 C1016 1.394 . S
C1018 C1019 1.369 . S
C1018 C1022 1.531 . S
C1019 C1018 1.369 . S
C1019 C1020 1.410 1_545 S
C1019 C1027 1.503 . S
C1020 C1019 1.410 1_565 S
C1020 C1021 1.392 . S
C1020 C1023 1.511 . S
C1021 C1017 1.376 . S
C1021 C1020 1.392 . S
C1021 H1033 0.929 . S
C1022 C1018 1.531 . S
C1022 H1034 0.960 . S
C1022 H1035 0.962 . S
C1022 H1036 0.960 . S
C1023 C1020 1.511 . S
C1023 H1037 0.961 . S
C1023 H1038 0.961 1_565 S
C1023 H1039 0.961 . S
C1024 C1025 1.370 . S
C1024 C1026 1.363 . S
C1024 H1040 0.931 . S
C1025 C1024 1.370 . S
C1025 C1029 1.408 . S
C1026 C1024 1.363 . S
C1026 C1027 1.370 . S
C1026 C1030 1.524 . S
C1027 C1019 1.503 . S
C1027 C1026 1.370 . S
C1027 C1028 1.403 . S
C1028 C1027 1.403 . S
C1028 C1029 1.404 . S
C1028 C1031 1.539 . S
C1029 C1025 1.408 . S
C1029 C1028 1.404 . S
C1029 H1041 0.930 . S
C1030 C1026 1.524 . S
C1030 H1042 0.956 . S
C1030 H1043 0.961 . S
C1030 H1044 0.961 . S
C1031 C1028 1.539 . S
C1031 H1045 0.958 . S
C1031 H1046 0.961 . S
C1031 H1047 0.972 . S
H1032 C1016 0.931 . S
H1033 C1021 0.929 . S
H1034 C1022 0.960 . S
H1035 C1022 0.962 . S
H1036 C1022 0.960 . S
H1037 C1023 0.961 . S
H1038 C1023 0.961 1_545 S
H1039 C1023 0.961 . S
H1040 C1024 0.931 . S
H1041 C1029 0.930 . S
H1042 C1030 0.956 . S
H1043 C1030 0.961 . S
H1044 C1030 0.961 . S
H1045 C1031 0.958 . S
H1046 C1031 0.961 . S
H1047 C1031 0.972 . S
C1048 C1049 1.391 . S
C1048 C1050 1.394 . S
C1048 H1064 0.931 . S
C1049 C1048 1.391 . S
C1049 C1053 1.376 . S
C1050 C1048 1.394 . S
C1050 C1051 1.369 . S
C1050 C1054 1.531 . S
C1051 C1050 1.369 . S
C1051 C1052 1.410 . S
C1051 C1059 1.503 . S
C1052 C1051 1.410 . S
C1052 C1053 1.392 . S
C1052 C1055 1.511 . S
C1053 C1049 1.376 . S
C1053 C1052 1.392 . S
C1053 H1065 0.929 . S
C1054 C1050 1.531 . S
C1054 H1066 0.960 . S
C1054 H1067 0.962 . S
C1054 H1068 0.960 . S
C1055 C1052 1.511 . S
C1055 H1069 0.961 . S
C1055 H1070 0.961 . S
C1055 H1071 0.961 . S
C1056 C1057 1.370 . S
C1056 C1058 1.363 . S
C1056 H1072 0.931 . S
C1057 C1056 1.370 . S
C1057 C1061 1.408 . S
C1058 C1056 1.363 . S
C1058 C1059 1.370 . S
C1058 C1062 1.524 . S
C1059 C1051 1.503 . S
C1059 C1058 1.370 . S
C1059 C1060 1.403 . S
C1060 C1059 1.403 . S
C1060 C1061 1.404 . S
C1060 C1063 1.539 . S
C1061 C1057 1.408 . S
C1061 C1060 1.404 . S
C1061 H1073 0.930 . S
C1062 C1058 1.524 . S
C1062 H1074 0.956 . S
C1062 H1075 0.961 . S
C1062 H1076 0.961 . S
C1063 C1060 1.539 . S
C1063 H1077 0.958 . S
C1063 H1078 0.961 . S
C1063 H1079 0.960 . S
H1064 C1048 0.931 . S
H1065 C1053 0.929 . S
H1066 C1054 0.960 . S
H1067 C1054 0.962 . S
H1068 C1054 0.960 . S
H1069 C1055 0.961 . S
H1070 C1055 0.961 . S
H1071 C1055 0.961 . S
H1072 C1056 0.931 . S
H1073 C1061 0.930 . S
H1074 C1062 0.956 . S
H1075 C1062 0.961 . S
H1076 C1062 0.961 . S
H1077 C1063 0.958 . S
H1078 C1063 0.961 . S
H1079 C1063 0.960 . S
C1080 C1081 1.391 1_545 S
C1080 C1082 1.394 . S
C1080 H1096 0.931 1_545 S
C1081 C1080 1.391 1_565 S
C1081 C1085 1.376 1_565 S
C1082 C1080 1.394 . S
C1082 C1083 1.369 . S
C1082 C1086 1.531 . S
C1083 C1082 1.369 . S
C1083 C1084 1.410 . S
C1083 C1091 1.503 . S
C1084 C1083 1.410 . S
C1084 C1085 1.392 . S
C1084 C1087 1.511 . S
C1085 C1081 1.376 1_545 S
C1085 C1084 1.392 . S
C1085 H1097 0.929 1_545 S
C1086 C1082 1.531 . S
C1086 H1098 0.960 . S
C1086 H1099 0.962 . S
C1086 H1100 0.960 . S
C1087 C1084 1.511 . S
C1087 H1101 0.961 . S
C1087 H1102 0.961 . S
C1087 H1103 0.961 . S
C1088 C1089 1.370 . S
C1088 C1090 1.363 . S
C1088 H1104 0.931 . S
C1089 C1088 1.370 . S
C1089 C1093 1.408 . S
C1090 C1088 1.363 . S
C1090 C1091 1.370 . S
C1090 C1094 1.524 . S
C1091 C1083 1.503 . S
C1091 C1090 1.370 . S
C1091 C1092 1.403 . S
C1092 C1091 1.403 . S
C1092 C1093 1.404 . S
C1092 C1095 1.539 . S
C1093 C1089 1.408 . S
C1093 C1092 1.404 . S
C1093 H1105 0.930 . S
C1094 C1090 1.524 . S
C1094 H1106 0.956 . S
C1094 H1107 0.961 . S
C1094 H1108 0.961 . S
C1095 C1092 1.539 . S
C1095 H1109 0.958 1_545 S
C1095 H1110 0.961 . S
C1095 H1111 0.960 1_545 S
H1096 C1080 0.931 1_565 S
H1097 C1085 0.929 1_565 S
H1098 C1086 0.960 . S
H1099 C1086 0.962 . S
H1100 C1086 0.960 . S
H1101 C1087 0.961 . S
H1102 C1087 0.961 . S
H1103 C1087 0.961 . S
H1104 C1088 0.931 . S
H1105 C1093 0.930 . S
H1106 C1094 0.956 . S
H1107 C1094 0.961 . S
H1108 C1094 0.961 . S
H1109 C1095 0.958 1_565 S
H1110 C1095 0.961 . S
H1111 C1095 0.960 1_565 S
C1112 C1113 1.391 . S
C1112 C1114 1.394 . S
C1112 H1128 0.931 . S
C1113 C1112 1.391 . S
C1113 C1117 1.376 . S
C1114 C1112 1.394 . S
C1114 C1115 1.369 . S
C1114 C1118 1.531 . S
C1115 C1114 1.369 . S
C1115 C1116 1.410 . S
C1115 C1123 1.503 . S
C1116 C1115 1.410 . S
C1116 C1117 1.392 . S
C1116 C1119 1.511 . S
C1117 C1113 1.376 . S
C1117 C1116 1.392 . S
C1117 H1129 0.929 . S
C1118 C1114 1.531 . S
C1118 H1130 0.960 . S
C1118 H1131 0.962 . S
C1118 H1132 0.960 . S
C1119 C1116 1.511 . S
C1119 H1133 0.961 . S
C1119 H1134 0.961 . S
C1119 H1135 0.961 . S
C1120 C1121 1.370 . S
C1120 C1122 1.363 . S
C1120 H1136 0.931 . S
C1121 C1120 1.370 . S
C1121 C1125 1.408 . S
C1122 C1120 1.363 . S
C1122 C1123 1.370 . S
C1122 C1126 1.524 . S
C1123 C1115 1.503 . S
C1123 C1122 1.370 . S
C1123 C1124 1.403 . S
C1124 C1123 1.403 . S
C1124 C1125 1.404 . S
C1124 C1127 1.539 . S
C1125 C1121 1.408 . S
C1125 C1124 1.404 . S
C1125 H1137 0.930 . S
C1126 C1122 1.524 . S
C1126 H1138 0.956 . S
C1126 H1139 0.961 . S
C1126 H1140 0.961 . S
C1127 C1124 1.539 . S
C1127 H1141 0.958 . S
C1127 H1142 0.961 . S
C1127 H1143 0.960 . S
H1128 C1112 0.931 . S
H1129 C1117 0.929 . S
H1130 C1118 0.960 . S
H1131 C1118 0.962 . S
H1132 C1118 0.960 . S
H1133 C1119 0.961 . S
H1134 C1119 0.961 . S
H1135 C1119 0.961 . S
H1136 C1120 0.931 . S
H1137 C1125 0.930 . S
H1138 C1126 0.956 . S
H1139 C1126 0.961 . S
H1140 C1126 0.961 . S
H1141 C1127 0.958 . S
H1142 C1127 0.961 . S
H1143 C1127 0.960 . S
C1144 C1145 1.391 . S
C1144 C1146 1.394 . S
C1144 H1160 0.931 . S
C1145 C1144 1.391 . S
C1145 C1149 1.376 . S
C1146 C1144 1.394 . S
C1146 C1147 1.369 . S
C1146 C1150 1.531 . S
C1147 C1146 1.369 . S
C1147 C1148 1.410 . S
C1147 C1155 1.503 . S
C1148 C1147 1.410 . S
C1148 C1149 1.392 . S
C1148 C1151 1.511 . S
C1149 C1145 1.376 . S
C1149 C1148 1.392 . S
C1149 H1161 0.929 . S
C1150 C1146 1.531 . S
C1150 H1162 0.960 . S
C1150 H1163 0.962 . S
C1150 H1164 0.960 . S
C1151 C1148 1.511 . S
C1151 H1165 0.961 . S
C1151 H1166 0.961 . S
C1151 H1167 0.961 . S
C1152 C1153 1.370 . S
C1152 C1154 1.363 . S
C1152 H1168 0.931 . S
C1153 C1152 1.370 . S
C1153 C1157 1.408 . S
C1154 C1152 1.363 . S
C1154 C1155 1.370 . S
C1154 C1158 1.524 . S
C1155 C1147 1.503 . S
C1155 C1154 1.370 . S
C1155 C1156 1.403 . S
C1156 C1155 1.403 . S
C1156 C1157 1.404 . S
C1156 C1159 1.539 . S
C1157 C1153 1.408 . S
C1157 C1156 1.404 . S
C1157 H1169 0.930 . S
C1158 C1154 1.524 . S
C1158 H1170 0.956 . S
C1158 H1171 0.961 . S
C1158 H1172 0.961 . S
C1159 C1156 1.539 . S
C1159 H1173 0.958 . S
C1159 H1174 0.961 . S
C1159 H1175 0.960 . S
H1160 C1144 0.931 . S
H1161 C1149 0.929 . S
H1162 C1150 0.960 . S
H1163 C1150 0.962 . S
H1164 C1150 0.960 . S
H1165 C1151 0.961 . S
H1166 C1151 0.961 . S
H1167 C1151 0.961 . S
H1168 C1152 0.931 . S
H1169 C1157 0.930 . S
H1170 C1158 0.956 . S
H1171 C1158 0.961 . S
H1172 C1158 0.961 . S
H1173 C1159 0.958 . S
H1174 C1159 0.961 . S
H1175 C1159 0.960 . S
C1176 C1177 1.391 . S
C1176 C1178 1.394 . S
C1176 H1192 0.931 . S
C1177 C1176 1.391 . S
C1177 C1181 1.376 . S
C1178 C1176 1.394 . S
C1178 C1179 1.369 . S
C1178 C1182 1.531 . S
C1179 C1178 1.369 . S
C1179 C1180 1.410 . S
C1179 C1187 1.503 . S
C1180 C1179 1.410 . S
C1180 C1181 1.392 . S
C1180 C1183 1.511 . S
C1181 C1177 1.376 . S
C1181 C1180 1.392 . S
C1181 H1193 0.929 . S
C1182 C1178 1.531 . S
C1182 H1194 0.960 . S
C1182 H1195 0.962 1_545 S
C1182 H1196 0.960 1_545 S
C1183 C1180 1.511 . S
C1183 H1197 0.961 . S
C1183 H1198 0.961 . S
C1183 H1199 0.961 . S
C1184 C1185 1.370 . S
C1184 C1186 1.363 . S
C1184 H1200 0.931 . S
C1185 C1184 1.370 . S
C1185 C1189 1.408 . S
C1186 C1184 1.363 . S
C1186 C1187 1.370 . S
C1186 C1190 1.524 . S
C1187 C1179 1.503 . S
C1187 C1186 1.370 . S
C1187 C1188 1.403 . S
C1188 C1187 1.403 . S
C1188 C1189 1.404 . S
C1188 C1191 1.539 . S
C1189 C1185 1.408 . S
C1189 C1188 1.404 . S
C1189 H1201 0.930 . S
C1190 C1186 1.524 . S
C1190 H1202 0.956 . S
C1190 H1203 0.961 . S
C1190 H1204 0.961 . S
C1191 C1188 1.539 . S
C1191 H1205 0.958 . S
C1191 H1206 0.961 . S
C1191 H1207 0.960 . S
H1192 C1176 0.931 . S
H1193 C1181 0.929 . S
H1194 C1182 0.960 . S
H1195 C1182 0.962 1_565 S
H1196 C1182 0.960 1_565 S
H1197 C1183 0.961 . S
H1198 C1183 0.961 . S
H1199 C1183 0.961 . S
H1200 C1184 0.931 . S
H1201 C1189 0.930 . S
H1202 C1190 0.956 . S
H1203 C1190 0.961 . S
H1204 C1190 0.961 . S
H1205 C1191 0.958 . S
H1206 C1191 0.961 . S
H1207 C1191 0.960 . S
C1208 C1209 1.391 . S
C1208 C1210 1.394 . S
C1208 H1224 0.931 . S
C1209 C1208 1.391 . S
C1209 C1213 1.376 . S
C1210 C1208 1.394 . S
C1210 C1211 1.369 . S
C1210 C1214 1.531 . S
C1211 C1210 1.369 . S
C1211 C1212 1.410 . S
C1211 C1219 1.503 . S
C1212 C1211 1.410 . S
C1212 C1213 1.392 . S
C1212 C1215 1.511 . S
C1213 C1209 1.376 . S
C1213 C1212 1.392 . S
C1213 H1225 0.929 . S
C1214 C1210 1.531 . S
C1214 H1226 0.960 . S
C1214 H1227 0.962 . S
C1214 H1228 0.960 . S
C1215 C1212 1.511 . S
C1215 H1229 0.961 . S
C1215 H1230 0.961 . S
C1215 H1231 0.961 . S
C1216 C1217 1.370 . S
C1216 C1218 1.363 . S
C1216 H1232 0.931 . S
C1217 C1216 1.370 . S
C1217 C1221 1.408 . S
C1218 C1216 1.363 . S
C1218 C1219 1.370 . S
C1218 C1222 1.524 . S
C1219 C1211 1.503 . S
C1219 C1218 1.370 . S
C1219 C1220 1.403 . S
C1220 C1219 1.403 . S
C1220 C1221 1.404 . S
C1220 C1223 1.539 . S
C1221 C1217 1.408 . S
C1221 C1220 1.404 . S
C1221 H1233 0.930 . S
C1222 C1218 1.524 . S
C1222 H1234 0.956 . S
C1222 H1235 0.961 . S
C1222 H1236 0.961 . S
C1223 C1220 1.539 . S
C1223 H1237 0.958 . S
C1223 H1238 0.961 . S
C1223 H1239 0.960 . S
H1224 C1208 0.931 . S
H1225 C1213 0.929 . S
H1226 C1214 0.960 . S
H1227 C1214 0.962 . S
H1228 C1214 0.960 . S
H1229 C1215 0.961 . S
H1230 C1215 0.961 . S
H1231 C1215 0.961 . S
H1232 C1216 0.931 . S
H1233 C1221 0.930 . S
H1234 C1222 0.956 . S
H1235 C1222 0.961 . S
H1236 C1222 0.961 . S
H1237 C1223 0.958 . S
H1238 C1223 0.961 . S
H1239 C1223 0.960 . S
C1240 C1241 1.391 . S
C1240 C1242 1.394 . S
C1240 H1256 0.931 . S
C1241 C1240 1.391 . S
C1241 C1245 1.376 . S
C1242 C1240 1.394 . S
C1242 C1243 1.369 . S
C1242 C1246 1.531 . S
C1243 C1242 1.369 . S
C1243 C1244 1.410 . S
C1243 C1251 1.503 . S
C1244 C1243 1.410 . S
C1244 C1245 1.392 . S
C1244 C1247 1.511 . S
C1245 C1241 1.376 . S
C1245 C1244 1.392 . S
C1245 H1257 0.929 . S
C1246 C1242 1.531 . S
C1246 H1258 0.960 . S
C1246 H1259 0.962 . S
C1246 H1260 0.960 . S
C1247 C1244 1.511 . S
C1247 H1261 0.961 . S
C1247 H1262 0.961 . S
C1247 H1263 0.961 . S
C1248 C1249 1.370 . S
C1248 C1250 1.363 . S
C1248 H1264 0.931 . S
C1249 C1248 1.370 . S
C1249 C1253 1.408 . S
C1250 C1248 1.363 . S
C1250 C1251 1.370 . S
C1250 C1254 1.524 . S
C1251 C1243 1.503 . S
C1251 C1250 1.370 . S
C1251 C1252 1.403 . S
C1252 C1251 1.403 . S
C1252 C1253 1.404 . S
C1252 C1255 1.539 . S
C1253 C1249 1.408 . S
C1253 C1252 1.404 . S
C1253 H1265 0.930 . S
C1254 C1250 1.524 . S
C1254 H1266 0.956 . S
C1254 H1267 0.961 . S
C1254 H1268 0.961 . S
C1255 C1252 1.539 . S
C1255 H1269 0.958 . S
C1255 H1270 0.961 . S
C1255 H1271 0.960 . S
H1256 C1240 0.931 . S
H1257 C1245 0.929 . S
H1258 C1246 0.960 . S
H1259 C1246 0.962 . S
H1260 C1246 0.960 . S
H1261 C1247 0.961 . S
H1262 C1247 0.961 . S
H1263 C1247 0.961 . S
H1264 C1248 0.931 . S
H1265 C1253 0.930 . S
H1266 C1254 0.956 . S
H1267 C1254 0.961 . S
H1268 C1254 0.961 . S
H1269 C1255 0.958 . S
H1270 C1255 0.961 . S
H1271 C1255 0.960 . S
C1272 C1273 1.391 . S
C1272 C1274 1.394 . S
C1272 H1288 0.931 . S
C1273 C1272 1.391 . S
C1273 C1277 1.376 . S
C1274 C1272 1.394 . S
C1274 C1275 1.369 . S
C1274 C1278 1.531 . S
C1275 C1274 1.369 . S
C1275 C1276 1.410 . S
C1275 C1283 1.503 . S
C1276 C1275 1.410 . S
C1276 C1277 1.392 . S
C1276 C1279 1.511 . S
C1277 C1273 1.376 . S
C1277 C1276 1.392 . S
C1277 H1289 0.929 . S
C1278 C1274 1.531 . S
C1278 H1290 0.960 . S
C1278 H1291 0.962 . S
C1278 H1292 0.960 . S
C1279 C1276 1.511 . S
C1279 H1293 0.961 . S
C1279 H1294 0.961 . S
C1279 H1295 0.961 . S
C1280 C1281 1.370 . S
C1280 C1282 1.363 . S
C1280 H1296 0.931 . S
C1281 C1280 1.370 . S
C1281 C1285 1.408 . S
C1282 C1280 1.363 . S
C1282 C1283 1.370 . S
C1282 C1286 1.524 . S
C1283 C1275 1.503 . S
C1283 C1282 1.370 . S
C1283 C1284 1.403 . S
C1284 C1283 1.403 . S
C1284 C1285 1.404 . S
C1284 C1287 1.539 . S
C1285 C1281 1.408 . S
C1285 C1284 1.404 . S
C1285 H1297 0.930 . S
C1286 C1282 1.524 . S
C1286 H1298 0.956 . S
C1286 H1299 0.961 . S
C1286 H1300 0.961 . S
C1287 C1284 1.539 . S
C1287 H1301 0.958 . S
C1287 H1302 0.961 . S
C1287 H1303 0.960 . S
H1288 C1272 0.931 . S
H1289 C1277 0.929 . S
H1290 C1278 0.960 . S
H1291 C1278 0.962 . S
H1292 C1278 0.960 . S
H1293 C1279 0.961 . S
H1294 C1279 0.961 . S
H1295 C1279 0.961 . S
H1296 C1280 0.931 . S
H1297 C1285 0.930 . S
H1298 C1286 0.956 . S
H1299 C1286 0.961 . S
H1300 C1286 0.961 . S
H1301 C1287 0.958 . S
H1302 C1287 0.961 . S
H1303 C1287 0.960 . S
C1304 C1305 1.391 . S
C1304 C1306 1.394 . S
C1304 H1320 0.931 . S
C1305 C1304 1.391 . S
C1305 C1309 1.376 1_545 S
C1306 C1304 1.394 . S
C1306 C1307 1.369 . S
C1306 C1310 1.531 . S
C1307 C1306 1.369 . S
C1307 C1308 1.410 1_545 S
C1307 C1315 1.503 . S
C1308 C1307 1.410 1_565 S
C1308 C1309 1.392 . S
C1308 C1311 1.511 . S
C1309 C1305 1.376 1_565 S
C1309 C1308 1.392 . S
C1309 H1321 0.929 . S
C1310 C1306 1.531 . S
C1310 H1322 0.960 . S
C1310 H1323 0.962 . S
C1310 H1324 0.960 . S
C1311 C1308 1.511 . S
C1311 H1325 0.961 . S
C1311 H1326 0.961 . S
C1311 H1327 0.961 . S
C1312 C1313 1.370 . S
C1312 C1314 1.363 . S
C1312 H1328 0.931 . S
C1313 C1312 1.370 . S
C1313 C1317 1.408 . S
C1314 C1312 1.363 . S
C1314 C1315 1.370 . S
C1314 C1318 1.524 . S
C1315 C1307 1.503 . S
C1315 C1314 1.370 . S
C1315 C1316 1.403 . S
C1316 C1315 1.403 . S
C1316 C1317 1.404 . S
C1316 C1319 1.539 . S
C1317 C1313 1.408 . S
C1317 C1316 1.404 . S
C1317 H1329 0.930 . S
C1318 C1314 1.524 . S
C1318 H1330 0.956 . S
C1318 H1331 0.961 1_545 S
C1318 H1332 0.961 1_545 S
C1319 C1316 1.539 . S
C1319 H1333 0.958 . S
C1319 H1334 0.961 . S
C1319 H1335 0.960 . S
H1320 C1304 0.931 . S
H1321 C1309 0.929 . S
H1322 C1310 0.960 . S
H1323 C1310 0.962 . S
H1324 C1310 0.960 . S
H1325 C1311 0.961 . S
H1326 C1311 0.961 . S
H1327 C1311 0.961 . S
H1328 C1312 0.931 . S
H1329 C1317 0.930 . S
H1330 C1318 0.956 . S
H1331 C1318 0.961 1_565 S
H1332 C1318 0.961 1_565 S
H1333 C1319 0.958 . S
H1334 C1319 0.961 . S
H1335 C1319 0.960 . S
C1336 C1337 1.391 . S
C1336 C1338 1.394 . S
C1336 H1352 0.931 . S
C1337 C1336 1.391 . S
C1337 C1341 1.376 . S
C1338 C1336 1.394 . S
C1338 C1339 1.369 . S
C1338 C1342 1.531 . S
C1339 C1338 1.369 . S
C1339 C1340 1.410 . S
C1339 C1347 1.503 . S
C1340 C1339 1.410 . S
C1340 C1341 1.392 . S
C1340 C1343 1.511 . S
C1341 C1337 1.376 . S
C1341 C1340 1.392 . S
C1341 H1353 0.929 . S
C1342 C1338 1.531 . S
C1342 H1354 0.960 . S
C1342 H1355 0.962 . S
C1342 H1356 0.960 . S
C1343 C1340 1.511 . S
C1343 H1357 0.961 . S
C1343 H1358 0.961 . S
C1343 H1359 0.961 . S
C1344 C1345 1.370 . S
C1344 C1346 1.363 . S
C1344 H1360 0.931 . S
C1345 C1344 1.370 . S
C1345 C1349 1.408 . S
C1346 C1344 1.363 . S
C1346 C1347 1.370 . S
C1346 C1350 1.524 . S
C1347 C1339 1.503 . S
C1347 C1346 1.370 . S
C1347 C1348 1.403 . S
C1348 C1347 1.403 . S
C1348 C1349 1.404 . S
C1348 C1351 1.539 . S
C1349 C1345 1.408 . S
C1349 C1348 1.404 . S
C1349 H1361 0.930 . S
C1350 C1346 1.524 . S
C1350 H1362 0.956 . S
C1350 H1363 0.961 . S
C1350 H1364 0.961 . S
C1351 C1348 1.539 . S
C1351 H1365 0.958 . S
C1351 H1366 0.961 . S
C1351 H1367 0.960 . S
H1352 C1336 0.931 . S
H1353 C1341 0.929 . S
H1354 C1342 0.960 . S
H1355 C1342 0.962 . S
H1356 C1342 0.960 . S
H1357 C1343 0.961 . S
H1358 C1343 0.961 . S
H1359 C1343 0.961 . S
H1360 C1344 0.931 . S
H1361 C1349 0.930 . S
H1362 C1350 0.956 . S
H1363 C1350 0.961 . S
H1364 C1350 0.961 . S
H1365 C1351 0.958 . S
H1366 C1351 0.961 . S
H1367 C1351 0.960 . S
C1368 C1369 1.391 1_455 S
C1368 C1370 1.394 . S
C1368 H1384 0.931 . S
C1369 C1368 1.391 1_655 S
C1369 C1373 1.376 . S
C1370 C1368 1.394 . S
C1370 C1371 1.369 . S
C1370 C1374 1.531 . S
C1371 C1370 1.369 . S
C1371 C1372 1.410 . S
C1371 C1379 1.503 . S
C1372 C1371 1.410 . S
C1372 C1373 1.392 1_455 S
C1372 C1375 1.514 . S
C1373 C1369 1.376 . S
C1373 C1372 1.392 1_655 S
C1373 H1385 0.929 . S
C1374 C1370 1.531 . S
C1374 H1386 0.960 . S
C1374 H1387 0.962 . S
C1374 H1388 0.960 . S
C1375 C1372 1.514 . S
C1375 H1389 0.951 1_455 S
C1375 H1390 0.981 . S
C1375 H1391 0.948 1_455 S
C1376 C1377 1.370 . S
C1376 C1378 1.363 . S
C1376 H1392 0.931 . S
C1377 C1376 1.370 . S
C1377 C1381 1.408 . S
C1378 C1376 1.363 . S
C1378 C1379 1.370 . S
C1378 C1382 1.524 . S
C1379 C1371 1.503 . S
C1379 C1378 1.370 . S
C1379 C1380 1.403 . S
C1380 C1379 1.403 . S
C1380 C1381 1.404 . S
C1380 C1383 1.539 . S
C1381 C1377 1.408 . S
C1381 C1380 1.404 . S
C1381 H1393 0.930 . S
C1382 C1378 1.524 . S
C1382 H1394 0.956 . S
C1382 H1395 0.961 . S
C1382 H1396 0.961 . S
C1383 C1380 1.539 . S
C1383 H1397 0.958 . S
C1383 H1398 0.961 . S
C1383 H1399 0.960 . S
H1384 C1368 0.931 . S
H1385 C1373 0.929 . S
H1386 C1374 0.960 . S
H1387 C1374 0.962 . S
H1388 C1374 0.960 . S
H1389 C1375 0.951 1_655 S
H1390 C1375 0.981 . S
H1391 C1375 0.948 1_655 S
H1392 C1376 0.931 . S
H1393 C1381 0.930 . S
H1394 C1382 0.956 . S
H1395 C1382 0.961 . S
H1396 C1382 0.961 . S
H1397 C1383 0.958 . S
H1398 C1383 0.961 . S
H1399 C1383 0.960 . S
C1400 C1401 1.391 . S
C1400 C1402 1.394 . S
C1400 H1416 0.931 . S
C1401 C1400 1.391 . S
C1401 C1405 1.376 . S
C1402 C1400 1.394 . S
C1402 C1403 1.369 . S
C1402 C1406 1.531 . S
C1403 C1402 1.369 . S
C1403 C1404 1.410 . S
C1403 C1411 1.503 . S
C1404 C1403 1.410 . S
C1404 C1405 1.392 . S
C1404 C1407 1.511 . S
C1405 C1401 1.376 . S
C1405 C1404 1.392 . S
C1405 H1417 0.929 . S
C1406 C1402 1.531 . S
C1406 H1418 0.960 . S
C1406 H1419 0.962 . S
C1406 H1420 0.960 . S
C1407 C1404 1.511 . S
C1407 H1421 0.961 . S
C1407 H1422 0.961 . S
C1407 H1423 0.961 . S
C1408 C1409 1.370 . S
C1408 C1410 1.363 . S
C1408 H1424 0.931 . S
C1409 C1408 1.370 . S
C1409 C1413 1.408 . S
C1410 C1408 1.363 . S
C1410 C1411 1.370 . S
C1410 C1414 1.524 . S
C1411 C1403 1.503 . S
C1411 C1410 1.370 . S
C1411 C1412 1.403 . S
C1412 C1411 1.403 . S
C1412 C1413 1.404 . S
C1412 C1415 1.539 . S
C1413 C1409 1.408 . S
C1413 C1412 1.404 . S
C1413 H1425 0.930 . S
C1414 C1410 1.524 . S
C1414 H1426 0.956 . S
C1414 H1427 0.961 . S
C1414 H1428 0.961 . S
C1415 C1412 1.539 . S
C1415 H1429 0.958 . S
C1415 H1430 0.961 . S
C1415 H1431 0.960 . S
H1416 C1400 0.931 . S
H1417 C1405 0.929 . S
H1418 C1406 0.960 . S
H1419 C1406 0.962 . S
H1420 C1406 0.960 . S
H1421 C1407 0.961 . S
H1422 C1407 0.961 . S
H1423 C1407 0.961 . S
H1424 C1408 0.931 . S
H1425 C1413 0.930 . S
H1426 C1414 0.956 . S
H1427 C1414 0.961 . S
H1428 C1414 0.961 . S
H1429 C1415 0.958 . S
H1430 C1415 0.961 . S
H1431 C1415 0.960 . S
C1432 C1433 1.391 . S
C1432 C1434 1.394 . S
C1432 H1448 0.931 1_655 S
C1433 C1432 1.391 . S
C1433 C1437 1.376 . S
C1434 C1432 1.394 . S
C1434 C1435 1.369 . S
C1434 C1438 1.531 1_655 S
C1435 C1434 1.369 . S
C1435 C1436 1.410 . S
C1435 C1443 1.503 1_554 S
C1436 C1435 1.410 . S
C1436 C1437 1.392 . S
C1436 C1439 1.511 . S
C1437 C1433 1.376 . S
C1437 C1436 1.392 . S
C1437 H1449 0.929 . S
C1438 C1434 1.531 1_455 S
C1438 H1450 0.960 . S
C1438 H1451 0.962 . S
C1438 H1452 0.960 . S
C1439 C1436 1.511 . S
C1439 H1453 0.961 1_554 S
C1439 H1454 0.961 1_554 S
C1439 H1455 0.961 . S
C1440 C1441 1.370 . S
C1440 C1442 1.363 . S
C1440 H1456 0.931 . S
C1441 C1440 1.370 . S
C1441 C1445 1.408 . S
C1442 C1440 1.363 . S
C1442 C1443 1.370 . S
C1442 C1446 1.524 . S
C1443 C1435 1.503 1_556 S
C1443 C1442 1.370 . S
C1443 C1444 1.403 1_556 S
C1444 C1443 1.403 1_554 S
C1444 C1445 1.404 1_554 S
C1444 C1447 1.539 . S
C1445 C1441 1.408 . S
C1445 C1444 1.404 1_556 S
C1445 H1457 0.930 . S
C1446 C1442 1.524 . S
C1446 H1458 0.956 1_655 S
C1446 H1459 0.961 . S
C1446 H1460 0.961 . S
C1447 C1444 1.539 . S
C1447 H1461 0.958 . S
C1447 H1462 0.961 . S
C1447 H1463 0.960 . S
H1448 C1432 0.931 1_455 S
H1449 C1437 0.929 . S
H1450 C1438 0.960 . S
H1451 C1438 0.962 . S
H1452 C1438 0.960 . S
H1453 C1439 0.961 1_556 S
H1454 C1439 0.961 1_556 S
H1455 C1439 0.961 . S
H1456 C1440 0.931 . S
H1457 C1445 0.930 . S
H1458 C1446 0.956 1_455 S
H1459 C1446 0.961 . S
H1460 C1446 0.961 . S
H1461 C1447 0.958 . S
H1462 C1447 0.961 . S
H1463 C1447 0.960 . S
C1464 C1465 1.391 . S
C1464 C1466 1.394 . S
C1464 H1480 0.931 . S
C1465 C1464 1.391 . S
C1465 C1469 1.376 . S
C1466 C1464 1.394 . S
C1466 C1467 1.369 . S
C1466 C1470 1.531 . S
C1467 C1466 1.369 . S
C1467 C1468 1.410 . S
C1467 C1475 1.503 . S
C1468 C1467 1.410 . S
C1468 C1469 1.392 . S
C1468 C1471 1.511 . S
C1469 C1465 1.376 . S
C1469 C1468 1.392 . S
C1469 H1481 0.929 . S
C1470 C1466 1.531 . S
C1470 H1482 0.960 . S
C1470 H1483 0.962 . S
C1470 H1484 0.960 . S
C1471 C1468 1.511 . S
C1471 H1485 0.961 . S
C1471 H1486 0.961 . S
C1471 H1487 0.961 . S
C1472 C1473 1.370 . S
C1472 C1474 1.363 . S
C1472 H1488 0.931 . S
C1473 C1472 1.370 . S
C1473 C1477 1.408 . S
C1474 C1472 1.363 . S
C1474 C1475 1.370 . S
C1474 C1478 1.524 . S
C1475 C1467 1.503 . S
C1475 C1474 1.370 . S
C1475 C1476 1.403 . S
C1476 C1475 1.403 . S
C1476 C1477 1.404 . S
C1476 C1479 1.539 . S
C1477 C1473 1.408 . S
C1477 C1476 1.404 . S
C1477 H1489 0.930 . S
C1478 C1474 1.524 . S
C1478 H1490 0.956 . S
C1478 H1491 0.961 . S
C1478 H1492 0.961 . S
C1479 C1476 1.539 . S
C1479 H1493 0.958 . S
C1479 H1494 0.961 . S
C1479 H1495 0.960 . S
H1480 C1464 0.931 . S
H1481 C1469 0.929 . S
H1482 C1470 0.960 . S
H1483 C1470 0.962 . S
H1484 C1470 0.960 . S
H1485 C1471 0.961 . S
H1486 C1471 0.961 . S
H1487 C1471 0.961 . S
H1488 C1472 0.931 . S
H1489 C1477 0.930 . S
H1490 C1478 0.956 . S
H1491 C1478 0.961 . S
H1492 C1478 0.961 . S
H1493 C1479 0.958 . S
H1494 C1479 0.961 . S
H1495 C1479 0.960 . S
C1496 C1497 1.391 . S
C1496 C1498 1.394 1_554 S
C1496 H1512 0.931 . S
C1497 C1496 1.391 . S
C1497 C1501 1.376 1_455 S
C1498 C1496 1.394 1_556 S
C1498 C1499 1.369 . S
C1498 C1502 1.531 . S
C1499 C1498 1.369 . S
C1499 C1500 1.410 1_456 S
C1499 C1507 1.503 . S
C1500 C1499 1.410 1_654 S
C1500 C1501 1.392 . S
C1500 C1503 1.511 . S
C1501 C1497 1.376 1_655 S
C1501 C1500 1.392 . S
C1501 H1513 0.929 . S
C1502 C1498 1.531 . S
C1502 H1514 0.960 . S
C1502 H1515 0.962 . S
C1502 H1516 0.960 . S
C1503 C1500 1.511 . S
C1503 H1517 0.961 . S
C1503 H1518 0.961 . S
C1503 H1519 0.961 1_554 S
C1504 C1505 1.370 . S
C1504 C1506 1.363 . S
C1504 H1520 0.931 . S
C1505 C1504 1.370 . S
C1505 C1509 1.394 1_455 S
C1506 C1504 1.363 . S
C1506 C1507 1.370 . S
C1506 C1510 1.524 1_556 S
C1507 C1499 1.503 . S
C1507 C1506 1.370 . S
C1507 C1508 1.421 . S
C1508 C1507 1.421 . S
C1508 C1509 1.396 1_455 S
C1508 C1511 1.524 1_455 S
C1509 C1505 1.394 1_655 S
C1509 C1508 1.396 1_655 S
C1509 H1521 0.951 . S
C1510 C1506 1.524 1_554 S
C1510 H1522 0.956 . S
C1510 H1523 0.961 . S
C1510 H1524 0.961 . S
C1511 C1508 1.524 1_655 S
C1511 H1525 0.960 . S
C1511 H1526 0.961 . S
C1511 H1527 0.960 . S
H1512 C1496 0.931 . S
H1513 C1501 0.929 . S
H1514 C1502 0.960 . S
H1515 C1502 0.962 . S
H1516 C1502 0.960 . S
H1517 C1503 0.961 . S
H1518 C1503 0.961 . S
H1519 C1503 0.961 1_556 S
H1520 C1504 0.931 . S
H1521 C1509 0.951 . S
H1522 C1510 0.956 . S
H1523 C1510 0.961 . S
H1524 C1510 0.961 . S
H1525 C1511 0.960 . S
H1526 C1511 0.961 . S
H1527 C1511 0.960 . S
C1528 C1529 1.391 . S
C1528 C1530 1.394 . S
C1528 H1544 0.931 . S
C1529 C1528 1.391 . S
C1529 C1533 1.376 . S
C1530 C1528 1.394 . S
C1530 C1531 1.369 . S
C1530 C1534 1.531 . S
C1531 C1530 1.369 . S
C1531 C1532 1.410 . S
C1531 C1539 1.503 . S
C1532 C1531 1.410 . S
C1532 C1533 1.392 . S
C1532 C1535 1.511 . S
C1533 C1529 1.376 . S
C1533 C1532 1.392 . S
C1533 H1545 0.929 . S
C1534 C1530 1.531 . S
C1534 H1546 0.960 . S
C1534 H1547 0.962 . S
C1534 H1548 0.960 . S
C1535 C1532 1.511 . S
C1535 H1549 0.961 . S
C1535 H1550 0.961 . S
C1535 H1551 0.961 . S
C1536 C1537 1.370 . S
C1536 C1538 1.363 . S
C1536 H1552 0.931 . S
C1537 C1536 1.370 . S
C1537 C1541 1.408 . S
C1538 C1536 1.363 . S
C1538 C1539 1.370 . S
C1538 C1542 1.524 . S
C1539 C1531 1.503 . S
C1539 C1538 1.370 . S
C1539 C1540 1.403 . S
C1540 C1539 1.403 . S
C1540 C1541 1.404 . S
C1540 C1543 1.539 . S
C1541 C1537 1.408 . S
C1541 C1540 1.404 . S
C1541 H1553 0.930 . S
C1542 C1538 1.524 . S
C1542 H1554 0.956 . S
C1542 H1555 0.961 . S
C1542 H1556 0.961 . S
C1543 C1540 1.539 . S
C1543 H1557 0.958 . S
C1543 H1558 0.961 . S
C1543 H1559 0.960 . S
H1544 C1528 0.931 . S
H1545 C1533 0.929 . S
H1546 C1534 0.960 . S
H1547 C1534 0.962 . S
H1548 C1534 0.960 . S
H1549 C1535 0.961 . S
H1550 C1535 0.961 . S
H1551 C1535 0.961 . S
H1552 C1536 0.931 . S
H1553 C1541 0.930 . S
H1554 C1542 0.956 . S
H1555 C1542 0.961 . S
H1556 C1542 0.961 . S
H1557 C1543 0.958 . S
H1558 C1543 0.961 . S
H1559 C1543 0.960 . S
C1560 C1561 1.391 1_554 S
C1560 C1562 1.394 . S
C1560 H1576 0.931 1_554 S
C1561 C1560 1.391 1_556 S
C1561 C1565 1.376 . S
C1562 C1560 1.394 . S
C1562 C1563 1.369 . S
C1562 C1566 1.531 . S
C1563 C1562 1.369 . S
C1563 C1564 1.410 . S
C1563 C1571 1.503 . S
C1564 C1563 1.410 . S
C1564 C1565 1.392 1_554 S
C1564 C1567 1.511 . S
C1565 C1561 1.376 . S
C1565 C1564 1.392 1_556 S
C1565 H1577 0.929 . S
C1566 C1562 1.531 . S
C1566 H1578 0.960 . S
C1566 H1579 0.962 . S
C1566 H1580 0.960 . S
C1567 C1564 1.511 . S
C1567 H1581 0.961 . S
C1567 H1582 0.961 . S
C1567 H1583 0.961 . S
C1568 C1569 1.370 . S
C1568 C1570 1.363 . S
C1568 H1584 0.931 . S
C1569 C1568 1.370 . S
C1569 C1573 1.408 . S
C1570 C1568 1.363 . S
C1570 C1571 1.370 . S
C1570 C1574 1.524 . S
C1571 C1563 1.503 . S
C1571 C1570 1.370 . S
C1571 C1572 1.403 . S
C1572 C1571 1.403 . S
C1572 C1573 1.404 . S
C1572 C1575 1.539 . S
C1573 C1569 1.408 . S
C1573 C1572 1.404 . S
C1573 H1585 0.930 . S
C1574 C1570 1.524 . S
C1574 H1586 0.956 . S
C1574 H1587 0.961 . S
C1574 H1588 0.961 . S
C1575 C1572 1.539 . S
C1575 H1589 0.958 . S
C1575 H1590 0.961 . S
C1575 H1591 0.960 1_554 S
H1576 C1560 0.931 1_556 S
H1577 C1565 0.929 . S
H1578 C1566 0.960 . S
H1579 C1566 0.962 . S
H1580 C1566 0.960 . S
H1581 C1567 0.961 . S
H1582 C1567 0.961 . S
H1583 C1567 0.961 . S
H1584 C1568 0.931 . S
H1585 C1573 0.930 . S
H1586 C1574 0.956 . S
H1587 C1574 0.961 . S
H1588 C1574 0.961 . S
H1589 C1575 0.958 . S
H1590 C1575 0.961 . S
H1591 C1575 0.960 1_556 S
C1592 C1593 1.391 . S
C1592 C1594 1.394 . S
C1592 H1608 0.931 . S
C1593 C1592 1.391 . S
C1593 C1597 1.376 . S
C1594 C1592 1.394 . S
C1594 C1595 1.369 . S
C1594 C1598 1.531 . S
C1595 C1594 1.369 . S
C1595 C1596 1.410 . S
C1595 C1603 1.503 . S
C1596 C1595 1.410 . S
C1596 C1597 1.392 . S
C1596 C1599 1.511 . S
C1597 C1593 1.376 . S
C1597 C1596 1.392 . S
C1597 H1609 0.929 . S
C1598 C1594 1.531 . S
C1598 H1610 0.960 . S
C1598 H1611 0.962 . S
C1598 H1612 0.960 . S
C1599 C1596 1.511 . S
C1599 H1613 0.961 . S
C1599 H1614 0.961 . S
C1599 H1615 0.961 . S
C1600 C1601 1.370 . S
C1600 C1602 1.363 . S
C1600 H1616 0.931 . S
C1601 C1600 1.370 . S
C1601 C1605 1.408 . S
C1602 C1600 1.363 . S
C1602 C1603 1.370 . S
C1602 C1606 1.524 . S
C1603 C1595 1.503 . S
C1603 C1602 1.370 . S
C1603 C1604 1.403 . S
C1604 C1603 1.403 . S
C1604 C1605 1.404 . S
C1604 C1607 1.539 . S
C1605 C1601 1.408 . S
C1605 C1604 1.404 . S
C1605 H1617 0.930 . S
C1606 C1602 1.524 . S
C1606 H1618 0.956 . S
C1606 H1619 0.961 . S
C1606 H1620 0.961 . S
C1607 C1604 1.539 . S
C1607 H1621 0.958 . S
C1607 H1622 0.961 . S
C1607 H1623 0.960 . S
H1608 C1592 0.931 . S
H1609 C1597 0.929 . S
H1610 C1598 0.960 . S
H1611 C1598 0.962 . S
H1612 C1598 0.960 . S
H1613 C1599 0.961 . S
H1614 C1599 0.961 . S
H1615 C1599 0.961 . S
H1616 C1600 0.931 . S
H1617 C1605 0.930 . S
H1618 C1606 0.956 . S
H1619 C1606 0.961 . S
H1620 C1606 0.961 . S
H1621 C1607 0.958 . S
H1622 C1607 0.961 . S
H1623 C1607 0.960 . S
C1624 C1625 1.391 . S
C1624 C1626 1.394 . S
C1624 H1640 0.931 . S
C1625 C1624 1.391 . S
C1625 C1629 1.376 . S
C1626 C1624 1.394 . S
C1626 C1627 1.369 1_556 S
C1626 C1630 1.531 . S
C1627 C1626 1.369 1_554 S
C1627 C1628 1.410 . S
C1627 C1635 1.503 . S
C1628 C1627 1.410 . S
C1628 C1629 1.392 1_554 S
C1628 C1631 1.511 . S
C1629 C1625 1.376 . S
C1629 C1628 1.392 1_556 S
C1629 H1641 0.929 . S
C1630 C1626 1.531 . S
C1630 H1642 0.960 1_556 S
C1630 H1643 0.962 1_556 S
C1630 H1644 0.960 . S
C1631 C1628 1.511 . S
C1631 H1645 0.961 . S
C1631 H1646 0.961 . S
C1631 H1647 0.961 . S
C1632 C1633 1.370 . S
C1632 C1634 1.363 . S
C1632 H1648 0.931 . S
C1633 C1632 1.370 . S
C1633 C1637 1.408 . S
C1634 C1632 1.363 . S
C1634 C1635 1.370 . S
C1634 C1638 1.524 . S
C1635 C1627 1.503 . S
C1635 C1634 1.370 . S
C1635 C1636 1.403 . S
C1636 C1635 1.403 . S
C1636 C1637 1.404 . S
C1636 C1639 1.539 . S
C1637 C1633 1.408 . S
C1637 C1636 1.404 . S
C1637 H1649 0.930 . S
C1638 C1634 1.524 . S
C1638 H1650 0.956 . S
C1638 H1651 0.961 . S
C1638 H1652 0.961 . S
C1639 C1636 1.539 . S
C1639 H1653 0.931 1_554 S
C1639 H1654 0.961 . S
C1639 H1655 0.960 . S
H1640 C1624 0.931 . S
H1641 C1629 0.929 . S
H1642 C1630 0.960 1_554 S
H1643 C1630 0.962 1_554 S
H1644 C1630 0.960 . S
H1645 C1631 0.961 . S
H1646 C1631 0.961 . S
H1647 C1631 0.961 . S
H1648 C1632 0.931 . S
H1649 C1637 0.930 . S
H1650 C1638 0.956 . S
H1651 C1638 0.961 . S
H1652 C1638 0.961 . S
H1653 C1639 0.931 1_556 S
H1654 C1639 0.961 . S
H1655 C1639 0.960 . S
C1656 C1657 1.391 . S
C1656 C1658 1.394 . S
C1656 H1672 0.931 . S
C1657 C1656 1.391 . S
C1657 C1661 1.376 . S
C1658 C1656 1.394 . S
C1658 C1659 1.369 . S
C1658 C1662 1.531 . S
C1659 C1658 1.369 . S
C1659 C1660 1.410 . S
C1659 C1667 1.503 . S
C1660 C1659 1.410 . S
C1660 C1661 1.392 . S
C1660 C1663 1.511 . S
C1661 C1657 1.376 . S
C1661 C1660 1.392 . S
C1661 H1673 0.929 . S
C1662 C1658 1.531 . S
C1662 H1674 0.960 . S
C1662 H1675 0.962 . S
C1662 H1676 0.960 . S
C1663 C1660 1.511 . S
C1663 H1677 0.961 . S
C1663 H1678 0.961 . S
C1663 H1679 0.961 . S
C1664 C1665 1.370 . S
C1664 C1666 1.363 . S
C1664 H1680 0.931 . S
C1665 C1664 1.370 . S
C1665 C1669 1.408 . S
C1666 C1664 1.363 . S
C1666 C1667 1.370 . S
C1666 C1670 1.524 . S
C1667 C1659 1.503 . S
C1667 C1666 1.370 . S
C1667 C1668 1.403 . S
C1668 C1667 1.403 . S
C1668 C1669 1.404 . S
C1668 C1671 1.539 . S
C1669 C1665 1.408 . S
C1669 C1668 1.404 . S
C1669 H1681 0.930 . S
C1670 C1666 1.524 . S
C1670 H1682 0.956 . S
C1670 H1683 0.961 . S
C1670 H1684 0.961 . S
C1671 C1668 1.539 . S
C1671 H1685 0.958 . S
C1671 H1686 0.961 . S
C1671 H1687 0.960 . S
H1672 C1656 0.931 . S
H1673 C1661 0.929 . S
H1674 C1662 0.960 . S
H1675 C1662 0.962 . S
H1676 C1662 0.960 . S
H1677 C1663 0.961 . S
H1678 C1663 0.961 . S
H1679 C1663 0.961 . S
H1680 C1664 0.931 . S
H1681 C1669 0.930 . S
H1682 C1670 0.956 . S
H1683 C1670 0.961 . S
H1684 C1670 0.961 . S
H1685 C1671 0.958 . S
H1686 C1671 0.961 . S
H1687 C1671 0.960 . S
C1688 C1689 1.391 . S
C1688 C1690 1.394 . S
C1688 H1704 0.931 . S
C1689 C1688 1.391 . S
C1689 C1693 1.376 . S
C1690 C1688 1.394 . S
C1690 C1691 1.369 . S
C1690 C1694 1.531 . S
C1691 C1690 1.369 . S
C1691 C1692 1.410 . S
C1691 C1699 1.503 . S
C1692 C1691 1.410 . S
C1692 C1693 1.392 . S
C1692 C1695 1.511 . S
C1693 C1689 1.376 . S
C1693 C1692 1.392 . S
C1693 H1705 0.929 . S
C1694 C1690 1.531 . S
C1694 H1706 0.960 . S
C1694 H1707 0.962 . S
C1694 H1708 0.960 . S
C1695 C1692 1.511 . S
C1695 H1709 0.961 . S
C1695 H1710 0.961 . S
C1695 H1711 0.961 . S
C1696 C1697 1.370 . S
C1696 C1698 1.363 . S
C1696 H1712 0.931 . S
C1697 C1696 1.370 . S
C1697 C1701 1.408 . S
C1698 C1696 1.363 . S
C1698 C1699 1.370 . S
C1698 C1702 1.524 . S
C1699 C1691 1.503 . S
C1699 C1698 1.370 . S
C1699 C1700 1.403 . S
C1700 C1699 1.403 . S
C1700 C1701 1.404 . S
C1700 C1703 1.539 . S
C1701 C1697 1.408 . S
C1701 C1700 1.404 . S
C1701 H1713 0.930 . S
C1702 C1698 1.524 . S
C1702 H1714 0.956 . S
C1702 H1715 0.961 . S
C1702 H1716 0.961 . S
C1703 C1700 1.539 . S
C1703 H1717 0.958 . S
C1703 H1718 0.961 . S
C1703 H1719 0.960 . S
H1704 C1688 0.931 . S
H1705 C1693 0.929 . S
H1706 C1694 0.960 . S
H1707 C1694 0.962 . S
H1708 C1694 0.960 . S
H1709 C1695 0.961 . S
H1710 C1695 0.961 . S
H1711 C1695 0.961 . S
H1712 C1696 0.931 . S
H1713 C1701 0.930 . S
H1714 C1702 0.956 . S
H1715 C1702 0.961 . S
H1716 C1702 0.961 . S
H1717 C1703 0.958 . S
H1718 C1703 0.961 . S
H1719 C1703 0.960 . S
C1720 C1721 1.391 . S
C1720 C1722 1.394 . S
C1720 H1736 0.931 . S
C1721 C1720 1.391 . S
C1721 C1725 1.376 . S
C1722 C1720 1.394 . S
C1722 C1723 1.369 . S
C1722 C1726 1.531 . S
C1723 C1722 1.369 . S
C1723 C1724 1.410 . S
C1723 C1731 1.503 . S
C1724 C1723 1.410 . S
C1724 C1725 1.392 . S
C1724 C1727 1.511 . S
C1725 C1721 1.376 . S
C1725 C1724 1.392 . S
C1725 H1737 0.929 . S
C1726 C1722 1.531 . S
C1726 H1738 0.960 . S
C1726 H1739 0.962 . S
C1726 H1740 0.960 . S
C1727 C1724 1.511 . S
C1727 H1741 0.961 . S
C1727 H1742 0.961 . S
C1727 H1743 0.961 . S
C1728 C1729 1.370 . S
C1728 C1730 1.363 . S
C1728 H1744 0.931 . S
C1729 C1728 1.370 . S
C1729 C1733 1.408 . S
C1730 C1728 1.363 . S
C1730 C1731 1.370 . S
C1730 C1734 1.524 . S
C1731 C1723 1.503 . S
C1731 C1730 1.370 . S
C1731 C1732 1.403 . S
C1732 C1731 1.403 . S
C1732 C1733 1.404 . S
C1732 C1735 1.539 . S
C1733 C1729 1.408 . S
C1733 C1732 1.404 . S
C1733 H1745 0.930 . S
C1734 C1730 1.524 . S
C1734 H1746 0.956 . S
C1734 H1747 0.961 . S
C1734 H1748 0.961 . S
C1735 C1732 1.539 . S
C1735 H1749 0.958 . S
C1735 H1750 0.961 . S
C1735 H1751 0.960 . S
H1736 C1720 0.931 . S
H1737 C1725 0.929 . S
H1738 C1726 0.960 . S
H1739 C1726 0.962 . S
H1740 C1726 0.960 . S
H1741 C1727 0.961 . S
H1742 C1727 0.961 . S
H1743 C1727 0.961 . S
H1744 C1728 0.931 . S
H1745 C1733 0.930 . S
H1746 C1734 0.956 . S
H1747 C1734 0.961 . S
H1748 C1734 0.961 . S
H1749 C1735 0.958 . S
H1750 C1735 0.961 . S
H1751 C1735 0.960 . S
C1752 C1753 1.391 . S
C1752 C1754 1.394 . S
C1752 H1768 0.931 . S
C1753 C1752 1.391 . S
C1753 C1757 1.376 . S
C1754 C1752 1.394 . S
C1754 C1755 1.369 . S
C1754 C1758 1.531 . S
C1755 C1754 1.369 . S
C1755 C1756 1.410 . S
C1755 C1763 1.503 . S
C1756 C1755 1.410 . S
C1756 C1757 1.392 . S
C1756 C1759 1.511 . S
C1757 C1753 1.376 . S
C1757 C1756 1.392 . S
C1757 H1769 0.929 . S
C1758 C1754 1.531 . S
C1758 H1770 0.960 . S
C1758 H1771 0.962 . S
C1758 H1772 0.960 . S
C1759 C1756 1.511 . S
C1759 H1773 0.961 . S
C1759 H1774 0.961 . S
C1759 H1775 0.961 . S
C1760 C1761 1.370 . S
C1760 C1762 1.363 . S
C1760 H1776 0.931 . S
C1761 C1760 1.370 . S
C1761 C1765 1.408 . S
C1762 C1760 1.363 . S
C1762 C1763 1.370 . S
C1762 C1766 1.524 . S
C1763 C1755 1.503 . S
C1763 C1762 1.370 . S
C1763 C1764 1.403 . S
C1764 C1763 1.403 . S
C1764 C1765 1.404 . S
C1764 C1767 1.539 . S
C1765 C1761 1.408 . S
C1765 C1764 1.404 . S
C1765 H1777 0.930 . S
C1766 C1762 1.524 . S
C1766 H1778 0.956 . S
C1766 H1779 0.961 . S
C1766 H1780 0.961 . S
C1767 C1764 1.539 . S
C1767 H1781 0.958 . S
C1767 H1782 0.961 . S
C1767 H1783 0.960 . S
H1768 C1752 0.931 . S
H1769 C1757 0.929 . S
H1770 C1758 0.960 . S
H1771 C1758 0.962 . S
H1772 C1758 0.960 . S
H1773 C1759 0.961 . S
H1774 C1759 0.961 . S
H1775 C1759 0.961 . S
H1776 C1760 0.931 . S
H1777 C1765 0.930 . S
H1778 C1766 0.956 . S
H1779 C1766 0.961 . S
H1780 C1766 0.961 . S
H1781 C1767 0.958 . S
H1782 C1767 0.961 . S
H1783 C1767 0.960 . S
C1784 C1785 1.391 . S
C1784 C1786 1.394 . S
C1784 H1800 0.931 . S
C1785 C1784 1.391 . S
C1785 C1789 1.376 . S
C1786 C1784 1.394 . S
C1786 C1787 1.369 . S
C1786 C1790 1.531 . S
C1787 C1786 1.369 . S
C1787 C1788 1.410 . S
C1787 C1795 1.503 . S
C1788 C1787 1.410 . S
C1788 C1789 1.392 . S
C1788 C1791 1.511 . S
C1789 C1785 1.376 . S
C1789 C1788 1.392 . S
C1789 H1801 0.929 . S
C1790 C1786 1.531 . S
C1790 H1802 0.960 . S
C1790 H1803 0.962 1_556 S
C1790 H1804 0.960 . S
C1791 C1788 1.511 . S
C1791 H1805 0.961 . S
C1791 H1806 0.961 . S
C1791 H1807 0.961 . S
C1792 C1793 1.370 1_554 S
C1792 C1794 1.363 . S
C1792 H1808 0.931 . S
C1793 C1792 1.370 1_556 S
C1793 C1797 1.408 . S
C1794 C1792 1.363 . S
C1794 C1795 1.370 1_554 S
C1794 C1798 1.524 . S
C1795 C1787 1.503 . S
C1795 C1794 1.370 1_556 S
C1795 C1796 1.403 . S
C1796 C1795 1.403 . S
C1796 C1797 1.404 . S
C1796 C1799 1.539 . S
C1797 C1793 1.408 . S
C1797 C1796 1.404 . S
C1797 H1809 0.930 . S
C1798 C1794 1.524 . S
C1798 H1810 0.956 . S
C1798 H1811 0.961 . S
C1798 H1812 0.961 . S
C1799 C1796 1.539 . S
C1799 H1813 0.958 . S
C1799 H1814 0.961 . S
C1799 H1815 0.960 . S
H1800 C1784 0.931 . S
H1801 C1789 0.929 . S
H1802 C1790 0.960 . S
H1803 C1790 0.962 1_554 S
H1804 C1790 0.960 . S
H1805 C1791 0.961 . S
H1806 C1791 0.961 . S
H1807 C1791 0.961 . S
H1808 C1792 0.931 . S
H1809 C1797 0.930 . S
H1810 C1798 0.956 . S
H1811 C1798 0.961 . S
H1812 C1798 0.961 . S
H1813 C1799 0.958 . S
H1814 C1799 0.961 . S
H1815 C1799 0.960 . S
C1816 C1817 1.391 . S
C1816 C1818 1.394 . S
C1816 H1832 0.931 . S
C1817 C1816 1.391 . S
C1817 C1821 1.376 . S
C1818 C1816 1.394 . S
C1818 C1819 1.369 . S
C1818 C1822 1.531 . S
C1819 C1818 1.369 . S
C1819 C1820 1.410 . S
C1819 C1827 1.503 . S
C1820 C1819 1.410 . S
C1820 C1821 1.392 . S
C1820 C1823 1.511 . S
C1821 C1817 1.376 . S
C1821 C1820 1.392 . S
C1821 H1833 0.929 . S
C1822 C1818 1.531 . S
C1822 H1834 0.960 . S
C1822 H1835 0.962 . S
C1822 H1836 0.960 . S
C1823 C1820 1.511 . S
C1823 H1837 0.961 . S
C1823 H1838 0.961 . S
C1823 H1839 0.961 . S
C1824 C1825 1.370 . S
C1824 C1826 1.363 . S
C1824 H1840 0.931 . S
C1825 C1824 1.370 . S
C1825 C1829 1.408 . S
C1826 C1824 1.363 . S
C1826 C1827 1.370 . S
C1826 C1830 1.524 . S
C1827 C1819 1.503 . S
C1827 C1826 1.370 . S
C1827 C1828 1.403 . S
C1828 C1827 1.403 . S
C1828 C1829 1.404 . S
C1828 C1831 1.539 . S
C1829 C1825 1.408 . S
C1829 C1828 1.404 . S
C1829 H1841 0.930 . S
C1830 C1826 1.524 . S
C1830 H1842 0.956 . S
C1830 H1843 0.961 . S
C1830 H1844 0.961 . S
C1831 C1828 1.539 . S
C1831 H1845 0.958 . S
C1831 H1846 0.961 . S
C1831 H1847 0.960 . S
H1832 C1816 0.931 . S
H1833 C1821 0.929 . S
H1834 C1822 0.960 . S
H1835 C1822 0.962 . S
H1836 C1822 0.960 . S
H1837 C1823 0.961 . S
H1838 C1823 0.961 . S
H1839 C1823 0.961 . S
H1840 C1824 0.931 . S
H1841 C1829 0.930 . S
H1842 C1830 0.956 . S
H1843 C1830 0.961 . S
H1844 C1830 0.961 . S
H1845 C1831 0.958 . S
H1846 C1831 0.961 . S
H1847 C1831 0.960 . S
C1848 C1849 1.391 . S
C1848 C1850 1.394 . S
C1848 H1864 0.931 . S
C1849 C1848 1.391 . S
C1849 C1853 1.376 . S
C1850 C1848 1.394 . S
C1850 C1851 1.369 . S
C1850 C1854 1.531 . S
C1851 C1850 1.369 . S
C1851 C1852 1.410 . S
C1851 C1859 1.503 . S
C1852 C1851 1.410 . S
C1852 C1853 1.392 . S
C1852 C1855 1.511 . S
C1853 C1849 1.376 . S
C1853 C1852 1.392 . S
C1853 H1865 0.929 . S
C1854 C1850 1.531 . S
C1854 H1866 0.960 . S
C1854 H1867 0.962 . S
C1854 H1868 0.960 . S
C1855 C1852 1.511 . S
C1855 H1869 0.961 . S
C1855 H1870 0.961 . S
C1855 H1871 0.961 . S
C1856 C1857 1.370 . S
C1856 C1858 1.363 . S
C1856 H1872 0.931 . S
C1857 C1856 1.370 . S
C1857 C1861 1.412 . S
C1858 C1856 1.363 . S
C1858 C1859 1.370 . S
C1858 C1862 1.524 . S
C1859 C1851 1.503 . S
C1859 C1858 1.370 . S
C1859 C1860 1.403 . S
C1860 C1859 1.403 . S
C1860 C1861 1.406 . S
C1860 C1863 1.539 1_554 S
C1861 C1857 1.412 . S
C1861 C1860 1.406 . S
C1861 H1873 0.924 1_554 S
C1862 C1858 1.524 . S
C1862 H1874 0.956 . S
C1862 H1875 0.961 . S
C1862 H1876 0.961 . S
C1863 C1860 1.539 1_556 S
C1863 H1877 0.958 . S
C1863 H1878 0.961 . S
C1863 H1879 0.960 . S
H1864 C1848 0.931 . S
H1865 C1853 0.929 . S
H1866 C1854 0.960 . S
H1867 C1854 0.962 . S
H1868 C1854 0.960 . S
H1869 C1855 0.961 . S
H1870 C1855 0.961 . S
H1871 C1855 0.961 . S
H1872 C1856 0.931 . S
H1873 C1861 0.924 1_556 S
H1874 C1862 0.956 . S
H1875 C1862 0.961 . S
H1876 C1862 0.961 . S
H1877 C1863 0.958 . S
H1878 C1863 0.961 . S
H1879 C1863 0.960 . S
C1880 C1881 1.391 1_545 S
C1880 C1882 1.394 1_545 S
C1880 H1896 0.931 . S
C1881 C1880 1.391 1_565 S
C1881 C1885 1.376 . S
C1882 C1880 1.394 1_565 S
C1882 C1883 1.369 . S
C1882 C1886 1.531 1_565 S
C1883 C1882 1.369 . S
C1883 C1884 1.410 . S
C1883 C1891 1.503 . S
C1884 C1883 1.410 . S
C1884 C1885 1.392 . S
C1884 C1887 1.511 . S
C1885 C1881 1.376 . S
C1885 C1884 1.392 . S
C1885 H1897 0.929 . S
C1886 C1882 1.531 1_545 S
C1886 H1898 0.960 . S
C1886 H1899 0.962 1_544 S
C1886 H1900 0.960 . S
C1887 C1884 1.511 . S
C1887 H1901 0.961 . S
C1887 H1902 0.961 . S
C1887 H1903 0.961 . S
C1888 C1889 1.370 . S
C1888 C1890 1.363 . S
C1888 H1904 0.931 1_554 S
C1889 C1888 1.370 . S
C1889 C1893 1.408 . S
C1890 C1888 1.363 . S
C1890 C1891 1.370 . S
C1890 C1894 1.524 1_554 S
C1891 C1883 1.503 . S
C1891 C1890 1.370 . S
C1891 C1892 1.403 . S
C1892 C1891 1.403 . S
C1892 C1893 1.404 . S
C1892 C1895 1.539 . S
C1893 C1889 1.408 . S
C1893 C1892 1.404 . S
C1893 H1905 0.930 . S
C1894 C1890 1.524 1_556 S
C1894 H1906 0.956 . S
C1894 H1907 0.961 1_556 S
C1894 H1908 0.961 . S
C1895 C1892 1.539 . S
C1895 H1909 0.958 1_565 S
C1895 H1910 0.961 . S
C1895 H1911 0.960 . S
H1896 C1880 0.931 . S
H1897 C1885 0.929 . S
H1898 C1886 0.960 . S
H1899 C1886 0.962 1_566 S
H1900 C1886 0.960 . S
H1901 C1887 0.961 . S
H1902 C1887 0.961 . S
H1903 C1887 0.961 . S
H1904 C1888 0.931 1_556 S
H1905 C1893 0.930 . S
H1906 C1894 0.956 . S
H1907 C1894 0.961 1_554 S
H1908 C1894 0.961 . S
H1909 C1895 0.958 1_545 S
H1910 C1895 0.961 . S
H1911 C1895 0.960 . S
C385 C216 1.283 . S
C377 N66 1.246 . S
C417 C229 1.549 . S
C409 N79 1.536 . S
C441 N92 1.824 . S
C449 C249 1.782 . S
C481 C263 1.301 . S
C473 N54 1.330 . S
C513 C275 1.528 . S
C505 N131 1.530 . S
C545 C289 1.162 . S
C537 N158 1.167 . S
C569 N145 1.533 . S
C577 C299 1.538 . S
C609 C314 1.771 . S
C601 N118 1.777 . S
C633 N148 1.889 . S
C641 C328 1.839 . S
C673 C347 1.400 . S
C665 N122 1.501 . S
C697 N132 1.240 . S
C705 C327 1.209 . S
C737 C345 1.436 . S
C729 N161 1.425 . S
C761 N96 1.922 . S
C769 C361 1.860 . S
C793 N53 1.668 . S
C801 C355 1.693 . S
C825 N67 1.109 . S
C833 C359 1.131 . S
C857 N83 1.387 . S
C865 C356 1.362 . S
C889 N44 1.394 . S
C897 C258 1.394 . S
C921 N187 1.442 . S
C929 C257 1.478 . S
C961 C221 1.123 . S
C953 N197 1.168 . S
C993 C235 1.341 . S
C985 N106 1.399 . S
C1017 N57 1.836 . S
C1025 C272 1.842 . S
C1057 C317 1.498 . S
C1049 N144 1.468 . S
C1089 C271 1.366 . S
C1081 N119 1.365 . S
C1121 C303 1.728 . S
C1113 N157 1.667 . S
C1153 C300 1.273 . S
C1145 N183 1.281 . S
C1177 N196 1.537 . S
C1185 C313 1.549 . S
C1209 N105 1.863 . S
C1217 C277 1.759 . S
C1249 C291 1.289 . S
C1241 N171 1.319 . S
C1273 N40 1.506 . S
C1281 C247 1.516 . S
C1313 C261 1.158 . S
C1305 N2 1.161 1_655 S
C1345 C215 1.532 . S
C1337 N15 1.545 . S
C1377 C230 1.780 . S
C1369 N27 1.757 . S
C1401 N18 1.903 . S
C1409 C342 1.854 . S
C1433 N31 1.512 . S
C1441 C333 1.430 . S
C1465 N41 1.226 . S
C1473 C341 1.229 . S
C1497 N5 1.422 . S
C1505 C331 1.442 . S
C1537 C375 1.877 . S
C1529 N109 1.937 . S
C1569 C369 1.694 . S
C1561 N170 1.666 . S
C1601 C373 1.131 . S
C1593 N184 1.109 . S
C1625 N200 1.386 . S
C1633 C370 1.362 . S
C1657 N135 1.415 . S
C1665 C286 1.413 . S
C1697 C285 1.473 . S
C1689 N70 1.466 . S
C1729 C305 1.121 . S
C1721 N80 1.192 . S
C1761 C319 1.343 . S
C1753 N93 1.412 . S
C1785 N174 1.811 . S
C1793 C244 1.832 . S
C1825 C233 1.501 . S
C1817 N14 1.490 . S
C1849 N28 1.354 . S
C1857 C243 1.364 . S
C1889 C219 1.730 . S
C1881 N1 1.673 1_565 S
