# Generated by pormake.
# Topology anh, (6,3)-cn, num edge types: 1
# Building blocks:
#     Node 0, Type 0, BuildingBlock: BETFEN_clean_sbu_0, # of connection points: 6
#     Node 1, Type 0, BuildingBlock: BETFEN_clean_sbu_0, # of connection points: 6
#     Node 2, Type 0, BuildingBlock: BETFEN_clean_sbu_0, # of connection points: 6
#     Node 3, Type 1, BuildingBlock: BELTOD_clean_linker_0, # of connection points: 3
#     Node 4, Type 1, BuildingBlock: BELTOD_clean_linker_0, # of connection points: 3
#     Node 5, Type 1, BuildingBlock: BELTOD_clean_linker_0, # of connection points: 3
#     Node 6, Type 1, BuildingBlock: BELTOD_clean_linker_0, # of connection points: 3
#     Node 7, Type 1, BuildingBlock: BELTOD_clean_linker_0, # of connection points: 3
#     Node 8, Type 1, BuildingBlock: BELTOD_clean_linker_0, # of connection points: 3
#     Edge 9, Type (0, 1), BuildingBlock: EZIPEK_clean_linker_0, # of connection points: 2
#     Edge 10, Type (0, 1), BuildingBlock: EZIPEK_clean_linker_0, # of connection points: 2
#     Edge 11, Type (0, 1), BuildingBlock: EZIPEK_clean_linker_0, # of connection points: 2
#     Edge 12, Type (0, 1), BuildingBlock: EZIPEK_clean_linker_0, # of connection points: 2
#     Edge 13, Type (0, 1), BuildingBlock: EZIPEK_clean_linker_0, # of connection points: 2
#     Edge 14, Type (0, 1), BuildingBlock: EZIPEK_clean_linker_0, # of connection points: 2
#     Edge 15, Type (0, 1), BuildingBlock: EZIPEK_clean_linker_0, # of connection points: 2
#     Edge 16, Type (0, 1), BuildingBlock: EZIPEK_clean_linker_0, # of connection points: 2
#     Edge 17, Type (0, 1), BuildingBlock: EZIPEK_clean_linker_0, # of connection points: 2
#     Edge 18, Type (0, 1), BuildingBlock: EZIPEK_clean_linker_0, # of connection points: 2
#     Edge 19, Type (0, 1), BuildingBlock: EZIPEK_clean_linker_0, # of connection points: 2
#     Edge 20, Type (0, 1), BuildingBlock: EZIPEK_clean_linker_0, # of connection points: 2
#     Edge 21, Type (0, 1), BuildingBlock: EZIPEK_clean_linker_0, # of connection points: 2
#     Edge 22, Type (0, 1), BuildingBlock: EZIPEK_clean_linker_0, # of connection points: 2
#     Edge 23, Type (0, 1), BuildingBlock: EZIPEK_clean_linker_0, # of connection points: 2
#     Edge 24, Type (0, 1), BuildingBlock: EZIPEK_clean_linker_0, # of connection points: 2
#     Edge 25, Type (0, 1), BuildingBlock: EZIPEK_clean_linker_0, # of connection points: 2
#     Edge 26, Type (0, 1), BuildingBlock: EZIPEK_clean_linker_0, # of connection points: 2
# Relax obj value: 0.221
# Max RMSD: 0.226
# Mean RMSD: 0.160
data_MOF--net-anh--node1-BETFEN_clean_sbu_0--node2-BELTOD_clean_linker_0--edge1-EZIPEK_clean_linker_0
_symmetry_space_group_name_H-M    P1
_symmetry_Int_Tables_number       1
_symmetry_cell_setting            triclinic
loop_
_symmetry_equiv_pos_as_xyz
'x, y, z'
_cell_length_a     25.734042
_cell_length_b     27.129876
_cell_length_c     47.245654
_cell_angle_alpha  90.029179
_cell_angle_beta   92.798829
_cell_angle_gamma 102.38914
loop_
_atom_site_label
_atom_site_type_symbol
_atom_site_fract_x
_atom_site_fract_y
_atom_site_fract_z
_atom_type_partial_charge
Pr0 Pr 0.03198 0.54236 0.13866 0.0
Pr1 Pr 0.05965 0.65469 0.13589 0.0
C2 C 1.01035 0.44457 0.15369 0.0
C3 C 0.962 0.40645 0.15912 0.0
C4 C 0.963 0.35505 0.15791 0.0
C5 C 0.91869 0.31873 0.16545 0.0
C6 C 0.87302 0.3335 0.17439 0.0
C7 C 0.87137 0.38483 0.17479 0.0
C8 C 0.91552 0.42112 0.16704 0.0
C9 C 1.02246 0.57798 0.08338 0.0
C10 C 0.9343 0.60087 0.13358 0.0
C11 C 0.1023 0.7536 0.1285 0.0
C12 C 0.15426 0.78551 0.13729 0.0
C13 C 0.18868 0.76686 0.15642 0.0
C14 C 0.23734 0.79737 0.16569 0.0
C15 C 0.2523 0.84695 0.15595 0.0
C16 C 0.21829 0.86555 0.13656 0.0
C17 C 0.16941 0.83491 0.12726 0.0
C18 C 0.0411 0.6176 0.19055 0.0
C19 C 0.15935 0.59414 0.13613 0.0
O20 O 1.02238 0.48205 0.17192 0.0
O21 O 1.01713 0.45884 0.12746 0.0
O22 O 0.05978 0.59522 0.10133 0.0
O23 O 0.98869 0.54058 0.09367 0.0
O24 O 0.96855 0.6372 0.12161 0.0
O25 O 0.95133 0.56499 0.14764 0.0
O26 O 0.10282 0.71908 0.10933 0.0
O27 O 0.07169 0.73663 0.14909 0.0
O28 O 0.06863 0.60128 0.17287 0.0
O29 O 1.02227 0.65478 0.18025 0.0
O30 O 0.12358 0.55132 0.13427 0.0
O31 O 0.14579 0.63803 0.13905 0.0
H32 H 0.99849 0.3431 0.15184 0.0
H33 H 0.92056 0.27922 0.16517 0.0
H34 H 0.83645 0.39678 0.18172 0.0
H35 H 0.91394 0.46068 0.16799 0.0
H36 H 0.17761 0.72889 0.16446 0.0
H37 H 0.26313 0.78254 0.18071 0.0
H38 H 0.22933 0.90384 0.12893 0.0
H39 H 0.14328 0.84986 0.11252 0.0
Pr40 Pr 0.60103 0.0899 0.515 0.0
Pr41 Pr 0.48425 0.06867 0.5188 0.0
C42 C 0.70106 0.1262 0.49932 0.0
C43 C 0.7351 0.17584 0.49322 0.0
C44 C 0.78501 0.19109 0.50764 0.0
C45 C 0.81908 0.2366 0.50096 0.0
C46 C 0.80386 0.26725 0.47956 0.0
C47 C 0.75345 0.2529 0.46566 0.0
C48 C 0.71915 0.20767 0.47253 0.0
C49 C 0.57053 0.07434 0.57025 0.0
C50 C 0.54145 0.19039 0.52107 0.0
C51 C 0.38202 1.02896 0.52929 0.0
C52 C 0.34591 0.98254 0.51845 0.0
C53 C 0.35575 0.96095 0.49275 0.0
C54 C 0.32349 0.91548 0.48297 0.0
C55 C 0.28112 0.8908 0.4988 0.0
C56 C 0.27102 0.9123 0.52446 0.0
C57 C 0.30332 0.95803 0.53424 0.0
C58 C 0.51612 0.07776 0.46302 0.0
C59 C 0.54539 0.9681 0.51722 0.0
O60 O 0.66097 0.10908 0.4813 0.0
O61 O 0.68957 0.11707 0.52573 0.0
O62 O 0.54984 0.10067 0.55263 0.0
O63 O 0.60856 1.05648 0.5598 0.0
O64 O 0.49758 0.15716 0.527 0.0
O65 O 0.58401 0.1737 0.51397 0.0
O66 O 0.42191 1.02228 0.54598 0.0
O67 O 0.39609 0.06426 0.51063 0.0
O68 O 0.53555 1.05421 0.48237 0.0
O69 O 0.47708 0.09583 0.47188 0.0
O70 O 0.5893 1.00071 0.51068 0.0
O71 O 0.5023 0.98528 0.52287 0.0
H72 H 0.79808 0.16728 0.52369 0.0
H73 H 0.85802 0.24712 0.51177 0.0
H74 H 0.74122 0.27616 0.44906 0.0
H75 H 0.68068 0.19722 0.46122 0.0
H76 H 0.38884 0.979 0.48041 0.0
H77 H 0.33196 0.89917 0.46323 0.0
H78 H 0.23852 0.89348 0.53694 0.0
H79 H 0.29551 0.97391 0.55423 0.0
Pr80 Pr 0.51007 0.5292 0.81712 0.0
Pr81 Pr 0.5388 0.6389 0.82141 0.0
C82 C 0.48105 0.42895 0.81103 0.0
C83 C 0.50439 0.39064 0.82569 0.0
C84 C 0.51462 0.34998 0.81031 0.0
C85 C 0.54479 0.31825 0.82297 0.0
C86 C 0.56522 0.32704 0.85105 0.0
C87 C 0.55376 0.36669 0.8668 0.0
C88 C 0.52335 0.3983 0.85419 0.0
C89 C 0.53577 0.5645 0.87303 0.0
C90 C 0.63701 0.58069 0.82282 0.0
C91 C 0.5512 0.73608 0.83646 0.0
C92 C 0.51998 0.76266 0.85367 0.0
C93 C 0.53503 0.81494 0.85664 0.0
C94 C 0.50179 0.8413 0.86967 0.0
C95 C 0.4521 0.81594 0.87934 0.0
C96 C 0.43953 0.76296 0.87862 0.0
C97 C 0.47336 0.73646 0.86584 0.0
C98 C 0.54664 0.60407 0.76607 0.0
C99 C 0.41017 0.58648 0.81841 0.0
O100 O 0.51227 0.45707 0.79354 0.0
O101 O 0.45586 0.45472 0.82684 0.0
O102 O 0.50661 0.5818 0.85527 0.0
O103 O 0.55271 0.52767 0.86203 0.0
O104 O 0.62126 0.6193 0.83377 0.0
O105 O 0.60211 0.54338 0.81035 0.0
O106 O 0.57548 0.70497 0.85015 0.0
O107 O 0.52799 0.71781 0.81227 0.0
O108 O 0.50868 0.58729 0.78181 0.0
O109 O 0.58084 0.64077 0.77843 0.0
O110 O 0.42348 0.54366 0.81228 0.0
O111 O 0.44652 0.62776 0.82413 0.0
H112 H 0.50094 0.34391 0.78828 0.0
H113 H 0.55342 0.28752 0.81064 0.0
H114 H 0.56924 0.3737 0.8885 0.0
H115 H 0.51619 0.42964 0.86648 0.0
H116 H 0.57131 0.83562 0.84779 0.0
H117 H 0.51357 0.88206 0.87032 0.0
H118 H 0.40307 0.74205 0.88705 0.0
H119 H 0.46216 0.69571 0.86455 0.0
P120 P 0.60958 1.02953 0.25472 0.0
H121 H 0.56255 0.92581 0.23689 0.0
H122 H 0.4784 0.88724 0.21144 0.0
H123 H 0.4419 1.03409 0.20047 0.0
H124 H 0.5264 0.07299 0.22597 0.0
H125 H 0.70214 1.04393 0.21999 0.0
H126 H 0.75886 0.11931 0.20055 0.0
H127 H 0.65741 0.21133 0.23306 0.0
H128 H 0.60098 0.1358 0.25314 0.0
H129 H 0.50923 1.00508 0.28438 0.0
H130 H 0.67153 0.08519 0.30235 0.0
O131 O 0.64755 0.98702 0.25874 0.0
H132 H 0.48809 1.01979 0.33316 0.0
H133 H 0.65012 0.0995 0.35146 0.0
C134 C 0.55114 1.00238 0.2329 0.0
C135 C 0.53708 0.94995 0.22858 0.0
C136 C 0.48908 0.92788 0.21415 0.0
C137 C 0.4543 0.95793 0.20407 0.0
C138 C 0.46858 1.01047 0.20799 0.0
C139 C 0.51675 1.03258 0.22241 0.0
C140 C 0.64795 0.08449 0.23839 0.0
C141 C 0.6919 0.08021 0.22291 0.0
C142 C 0.72413 0.12308 0.21174 0.0
C143 C 0.71237 0.17068 0.21557 0.0
C144 C 0.66702 0.17479 0.22999 0.0
C145 C 0.63502 0.13185 0.24142 0.0
C146 C 0.59188 1.04474 0.28958 0.0
C147 C 0.54016 1.0265 0.29858 0.0
C148 C 0.52802 1.03473 0.32644 0.0
C149 C 0.56753 1.06082 0.34576 0.0
C150 C 0.61911 0.07956 0.33674 0.0
C151 C 0.63121 0.07146 0.3088 0.0
P152 P 0.58089 0.58866 0.5479 0.0
H153 H 0.64812 0.52075 0.52833 0.0
H154 H 0.63546 0.42988 0.52231 0.0
H155 H 0.46817 0.41245 0.5351 0.0
H156 H 0.48067 0.50479 0.54119 0.0
H157 H 0.62288 0.66534 0.5052 0.0
H158 H 0.613 0.75241 0.49769 0.0
H159 H 0.48176 0.72796 0.55268 0.0
H160 H 0.49159 0.64091 0.56042 0.0
H161 H 0.65266 0.62057 0.598 0.0
H162 H 0.48549 0.55564 0.58124 0.0
O163 O 0.64685 0.60617 0.54559 0.0
H164 H 0.6385 0.62127 0.64873 0.0
H165 H 0.47158 0.55688 0.63227 0.0
C166 C 0.56549 0.52158 0.53525 0.0
C167 C 0.6081 0.49835 0.52937 0.0
C168 C 0.60105 0.44554 0.52609 0.0
C169 C 0.55098 0.41297 0.52855 0.0
C170 C 0.50757 0.43593 0.53331 0.0
C171 C 0.51471 0.48924 0.53666 0.0
C172 C 0.55819 0.64491 0.53352 0.0
C173 C 0.5907 0.67764 0.51509 0.0
C174 C 0.58544 0.72812 0.51095 0.0
C175 C 0.54702 0.74795 0.52483 0.0
C176 C 0.51205 0.71441 0.54172 0.0
C177 C 0.51753 0.66393 0.54599 0.0
C178 C 0.57024 0.5874 0.58557 0.0
C179 C 0.61296 0.60609 0.60505 0.0
C180 C 0.60499 0.60668 0.63409 0.0
C181 C 0.55409 0.58907 0.64416 0.0
C182 C 0.5112 0.57047 0.62482 0.0
C183 C 0.51928 0.5695 0.59573 0.0
P184 P 0.04 0.64192 0.86651 0.0
H185 H 0.12111 0.69442 0.82934 0.0
H186 H 0.20543 0.67618 0.81527 0.0
H187 H 0.16466 0.52946 0.85331 0.0
H188 H 0.07957 0.54752 0.86729 0.0
H189 H 0.97287 0.69118 0.82924 0.0
H190 H 0.87755 0.66892 0.81596 0.0
H191 H 0.86778 0.52161 0.85215 0.0
H192 H 0.96374 0.54387 0.86548 0.0
H193 H 0.12118 0.62325 0.90903 0.0
H194 H 0.9542 0.62744 0.90623 0.0
O195 O 0.05258 0.7049 0.86659 0.0
H196 H 0.11821 0.60592 0.95994 0.0
H197 H 0.95166 0.6104 0.95708 0.0
C198 C 0.0944 0.62265 0.84984 0.0
C199 C 0.12948 0.65779 0.83411 0.0
C200 C 0.17764 0.64744 0.82602 0.0
C201 C 0.19141 0.60168 0.83344 0.0
C202 C 0.15468 0.565 0.84739 0.0
C203 C 0.10618 0.57527 0.85532 0.0
C204 C 0.97531 0.61945 0.84877 0.0
C205 C 0.9508 0.65354 0.83364 0.0
C206 C 0.89632 0.64089 0.82604 0.0
C207 C 0.86553 0.5939 0.83338 0.0
C208 C 0.8909 0.55811 0.84634 0.0
C209 C 0.94561 0.57075 0.85386 0.0
C210 C 0.0373 0.62438 0.9034 0.0
C211 C 0.08359 0.6191 0.91906 0.0
C212 C 0.08209 0.60957 0.94815 0.0
C213 C 0.03455 0.60624 0.96206 0.0
C214 C 0.98847 0.61212 0.94656 0.0
C215 C 0.98995 0.62151 0.9175 0.0
P216 P 0.09998 0.5481 0.40464 0.0
H217 H 0.20147 0.61855 0.4027 0.0
H218 H 0.23919 0.6993 0.4268 0.0
H219 H 0.09309 0.6898 0.46949 0.0
H220 H 0.05508 0.60869 0.44525 0.0
H221 H 0.09105 0.4905 0.45662 0.0
H222 H 1.01758 0.42845 0.47578 0.0
H223 H 0.9112 0.46079 0.40838 0.0
H224 H 0.98462 0.52262 0.38905 0.0
H225 H 0.11388 0.49499 0.35268 0.0
H226 H 0.052 0.62442 0.37574 0.0
O227 O 0.14819 0.51554 0.40634 0.0
H228 H 0.09757 0.51181 0.30235 0.0
H229 H 0.03513 0.64085 0.32525 0.0
C230 C 0.12591 0.60738 0.42257 0.0
C231 C 0.17756 0.63371 0.4173 0.0
C232 C 0.19902 0.67969 0.43096 0.0
C233 C 0.16894 0.70018 0.44994 0.0
C234 C 0.11684 0.6743 0.45494 0.0
C235 C 0.09531 0.62813 0.4412 0.0
C236 C 0.0435 0.51042 0.42117 0.0
C237 C 0.05173 0.48492 0.44624 0.0
C238 C 1.00992 0.44972 0.45721 0.0
C239 C 0.95926 0.44006 0.44337 0.0
C240 C 0.95012 0.46795 0.41932 0.0
C241 C 0.99208 0.50302 0.40826 0.0
C242 C 0.08511 0.55909 0.36785 0.0
C243 C 0.09673 0.52693 0.34694 0.0
C244 C 0.08731 0.53635 0.31828 0.0
C245 C 0.06547 0.57764 0.31024 0.0
C246 C 0.05217 0.60889 0.33117 0.0
C247 C 0.06193 0.59962 0.35986 0.0
P248 P 0.59682 1.02825 0.78592 0.0
H249 H 0.664 1.04977 0.83802 0.0
H250 H 0.68507 0.12532 0.86887 0.0
H251 H 0.61123 0.20657 0.80571 0.0
H252 H 0.59201 0.13253 0.77486 0.0
H253 H 0.54082 0.92483 0.79407 0.0
H254 H 0.46599 0.8879 0.82223 0.0
H255 H 0.44208 1.03652 0.84227 0.0
H256 H 0.51759 0.07359 0.81388 0.0
H257 H 0.66842 1.06023 0.74088 0.0
H258 H 0.49844 1.02307 0.75014 0.0
O259 O 0.63815 0.98858 0.78882 0.0
H260 H 0.65348 0.07501 0.69016 0.0
H261 H 0.48369 1.03767 0.69938 0.0
C262 C 0.62689 0.08587 0.80413 0.0
C263 C 0.65437 0.08456 0.83044 0.0
C264 C 0.66601 0.12734 0.84808 0.0
C265 C 0.64876 0.17097 0.83971 0.0
C266 C 0.62483 0.17312 0.81252 0.0
C267 C 0.61398 0.13088 0.79484 0.0
C268 C 0.5364 1.00185 0.80304 0.0
C269 C 0.51957 0.94955 0.80446 0.0
C270 C 0.47671 0.92857 0.8206 0.0
C271 C 0.45019 0.95952 0.83589 0.0
C272 C 0.46362 1.01189 0.83205 0.0
C273 C 0.50665 1.03299 0.81571 0.0
C274 C 0.58461 1.03979 0.74906 0.0
C275 C 0.628 1.05536 0.732 0.0
C276 C 0.61955 0.06412 0.70324 0.0
C277 C 0.56756 1.05745 0.69127 0.0
C278 C 0.52403 1.0431 0.70844 0.0
C279 C 0.53253 1.03445 0.73728 0.0
P280 P 0.53204 0.53727 0.09146 0.0
H281 H 0.59168 0.52161 0.14351 0.0
H282 H 0.68752 0.54382 0.15612 0.0
H283 H 0.71151 0.6428 0.08443 0.0
H284 H 0.6158 0.62079 0.07176 0.0
H285 H 0.42824 0.47562 0.10196 0.0
H286 H 0.34418 0.49537 0.11469 0.0
H287 H 0.42052 0.65273 0.12351 0.0
H288 H 0.50595 0.63271 0.11103 0.0
H289 H 0.56606 0.48306 0.04502 0.0
H290 H 0.49537 0.61231 0.05474 0.0
O291 O 0.52814 0.47577 0.09683 0.0
H292 H 0.56435 0.49464 -0.00646 0.0
H293 H 0.49403 0.62391 0.00315 0.0
C294 C 0.59651 0.56892 0.10648 0.0
C295 C 0.61711 0.54961 0.13111 0.0
C296 C 0.67183 0.56216 0.13829 0.0
C297 C 0.70657 0.59459 0.12106 0.0
C298 C 0.68531 0.61777 0.09801 0.0
C299 C 0.63056 0.6051 0.09079 0.0
C300 C 0.47375 0.55255 0.10607 0.0
C301 C 0.42764 0.51426 0.10739 0.0
C302 C 0.37947 0.52548 0.11454 0.0
C303 C 0.37617 0.57538 0.12019 0.0
C304 C 0.42246 0.61387 0.1195 0.0
C305 C 0.47109 0.60247 0.11248 0.0
C306 C 0.52956 0.546 0.05366 0.0
C307 C 0.54977 0.51362 0.03611 0.0
C308 C 0.54904 0.52029 0.00681 0.0
C309 C 0.52876 0.55987 -0.00529 0.0
C310 C 0.50953 0.593 0.01223 0.0
C311 C 0.51007 0.58617 0.04159 0.0
C312 C 0.25359 0.60072 0.15565 0.0
C313 C 0.21611 0.59335 0.13214 0.0
C314 C 0.28687 0.5854 0.10046 0.0
C315 C 0.32283 0.58678 0.12434 0.0
N316 N 0.34067 0.59247 0.17488 0.0
N317 N 0.1954 0.57579 0.08229 0.0
C318 C 0.30643 0.59408 0.15202 0.0
C319 C 0.23234 0.58497 0.10456 0.0
N320 N 0.23858 0.61399 0.18144 0.0
N321 N 0.30537 0.58587 0.07378 0.0
H322 H 0.15572 0.57799 0.08397 0.0
H323 H 0.20313 0.56307 0.06247 0.0
H324 H 0.34511 0.58644 0.07 0.0
H325 H 0.28277 0.59017 0.05543 0.0
H326 H 0.2651 0.62541 0.19872 0.0
H327 H 0.19966 0.61671 0.18508 0.0
H328 H 0.3296 0.59175 0.19579 0.0
H329 H 0.37987 0.5888 0.17293 0.0
C330 C 0.88034 0.3054 0.45018 0.0
C331 C 0.8426 0.31212 0.46997 0.0
C332 C 0.88165 0.40304 0.47279 0.0
C333 C 0.91784 0.39653 0.4521 0.0
N334 N 0.94782 0.34376 0.41809 0.0
N335 N 0.80222 0.36682 0.4978 0.0
C336 C 0.91606 0.3483 0.43993 0.0
C337 C 0.84172 0.36089 0.48059 0.0
N338 N 0.88271 0.25775 0.44163 0.0
N339 N 0.88644 0.44929 0.4854 0.0
H340 H 0.77356 0.33654 0.50468 0.0
H341 H 0.79563 0.40172 0.50393 0.0
H342 H 0.91416 0.48113 0.47951 0.0
H343 H 0.86529 0.45576 0.50275 0.0
H344 H 0.91342 0.24957 0.4302 0.0
H345 H 0.85551 0.22544 0.44741 0.0
H346 H 0.9441 0.31106 0.40597 0.0
H347 H 0.97589 0.3739 0.41057 0.0
C348 C 0.43179 0.89143 0.90069 0.0
C349 C 0.41184 0.84621 0.88541 0.0
C350 C 0.3745 0.89252 0.84859 0.0
C351 C 0.4133 0.93543 0.85768 0.0
N352 N 0.45883 0.98298 0.89802 0.0
N353 N 0.33644 0.80356 0.85645 0.0
C354 C 0.43378 0.93776 0.88623 0.0
C355 C 0.3725 0.84681 0.86357 0.0
N356 N 0.45485 0.88871 0.92704 0.0
N357 N 0.34526 0.89486 0.824 0.0
H358 H 0.33456 0.77082 0.86826 0.0
H359 H 0.30614 0.80135 0.8408 0.0
H360 H 0.34818 0.92894 0.81326 0.0
H361 H 0.31923 0.864 0.81444 0.0
H362 H 0.47192 0.91986 0.93973 0.0
H363 H 0.45471 0.85364 0.93626 0.0
H364 H 0.47733 0.98719 0.91821 0.0
H365 H 0.4588 1.01687 0.88772 0.0
C366 C 0.84058 0.55708 0.11762 0.0
C367 C 0.87587 0.59948 0.13079 0.0
C368 C 0.79917 0.63776 0.1394 0.0
C369 C 0.76507 0.5973 0.12428 0.0
N370 N 0.75398 0.52289 0.09476 0.0
N371 N 0.88948 0.68159 0.15322 0.0
C372 C 0.786 0.5582 0.11227 0.0
C373 C 0.85535 0.6404 0.14125 0.0
N374 N 0.85869 0.51513 0.11046 0.0
N375 N 0.77749 0.67272 0.15276 0.0
H376 H 0.92996 0.68321 0.15735 0.0
H377 H 0.87836 0.71517 0.15805 0.0
H378 H 0.7368 0.67226 0.15129 0.0
H379 H 0.79886 0.70022 0.16672 0.0
H380 H 0.83358 0.48077 0.10469 0.0
H381 H 0.89845 0.51283 0.11221 0.0
H382 H 0.76826 0.49743 0.08238 0.0
H383 H 0.71353 0.52157 0.09059 0.0
C384 C 0.20603 0.84082 0.46801 0.0
C385 C 0.24831 0.84165 0.48855 0.0
C386 C 0.23085 0.74919 0.48756 0.0
C387 C 0.19294 0.74869 0.46467 0.0
N388 N 0.14734 0.79352 0.43103 0.0
N389 N 0.30515 0.79781 0.51614 0.0
C390 C 0.18095 0.79437 0.45445 0.0
C391 C 0.26169 0.79611 0.498 0.0
N392 N 0.18959 0.88443 0.46173 0.0
N393 N 0.2366 0.70473 0.49961 0.0
H394 H 0.328 0.83139 0.52477 0.0
H395 H 0.32088 0.76641 0.52113 0.0
H396 H 0.2147 0.66967 0.49241 0.0
H397 H 0.25953 0.70266 0.51817 0.0
H398 H 0.15553 0.88565 0.44916 0.0
H399 H 0.20768 0.9192 0.47098 0.0
H400 H 0.14177 0.82582 0.4205 0.0
H401 H 0.12754 0.76018 0.42082 0.0
C402 C 0.57597 0.24891 0.87605 0.0
C403 C 0.59976 0.29459 0.86307 0.0
C404 C 0.67726 0.26107 0.85241 0.0
C405 C 0.64807 0.21287 0.85957 0.0
N406 N 0.58335 0.16392 0.88909 0.0
N407 N 0.67866 0.35077 0.84798 0.0
C408 C 0.60245 0.20818 0.8757 0.0
C409 C 0.65308 0.30313 0.85483 0.0
N410 N 0.52655 0.24361 0.88652 0.0
N411 N 0.72555 0.26481 0.84091 0.0
H412 H 0.6607 0.38162 0.84974 0.0
H413 H 0.71809 0.36036 0.84236 0.0
H414 H 0.74293 0.2335 0.83958 0.0
H415 H 0.748 0.29786 0.83284 0.0
H416 H 0.50409 0.20965 0.89348 0.0
H417 H 0.50741 0.27376 0.88764 0.0
H418 H 0.55155 0.15842 0.90235 0.0
H419 H 0.60281 0.13398 0.88888 0.0
C420 C 0.50488 0.87393 0.5046 0.0
C421 C 0.54489 0.91119 0.51948 0.0
C422 C 0.58265 0.84054 0.53994 0.0
C423 C 0.54577 0.80421 0.52309 0.0
N424 N 0.47549 0.78741 0.4868 0.0
N425 N 0.62337 0.92823 0.55117 0.0
C426 C 0.50781 0.82135 0.50485 0.0
C427 C 0.58429 0.89381 0.53694 0.0
N428 N 0.46328 0.88835 0.4903 0.0
N429 N 0.61485 0.82386 0.55997 0.0
H430 H 0.62284 0.96632 0.5528 0.0
H431 H 0.65764 0.9195 0.56059 0.0
H432 H 0.61533 0.78579 0.56263 0.0
H433 H 0.63808 0.84693 0.57548 0.0
H434 H 0.42929 0.86307 0.48245 0.0
H435 H 0.46061 0.92576 0.48786 0.0
H436 H 0.45146 0.79756 0.47043 0.0
H437 H 0.47574 0.74901 0.48674 0.0
C438 C 0.72105 0.58215 0.85263 0.0
C439 C 0.69466 0.57898 0.82537 0.0
C440 C 0.77899 0.5753 0.80382 0.0
C441 C 0.80622 0.58524 0.83073 0.0
N442 N 0.80432 0.60557 0.88039 0.0
N443 N 0.69981 0.5787 0.77448 0.0
C444 C 0.77754 0.59053 0.85507 0.0
C445 C 0.72386 0.57671 0.80077 0.0
N446 N 0.69202 0.57525 0.8763 0.0
N447 N 0.80575 0.56397 0.78126 0.0
H448 H 0.66002 0.58081 0.77132 0.0
H449 H 0.72033 0.58263 0.75586 0.0
H450 H 0.84613 0.56307 0.78284 0.0
H451 H 0.7871 0.55126 0.76175 0.0
H452 H 0.7086 0.57195 0.89658 0.0
H453 H 0.65059 0.56742 0.87537 0.0
H454 H 0.78595 0.61595 0.89793 0.0
H455 H 0.84566 0.61186 0.88332 0.0
C456 C 0.30557 0.90174 0.1944 0.0
C457 C 0.30309 0.87962 0.16702 0.0
C458 C 0.39794 0.91644 0.16221 0.0
C459 C 0.4016 0.93362 0.19075 0.0
N460 N 0.36094 0.93816 0.23536 0.0
N461 N 0.34696 0.86121 0.1256 0.0
C462 C 0.35588 0.92534 0.20719 0.0
C463 C 0.34926 0.88593 0.15101 0.0
N464 N 0.25961 0.90087 0.20794 0.0
N465 N 0.44082 0.93009 0.14574 0.0
H466 H 0.31177 0.83935 0.11649 0.0
H467 H 0.3804 0.85946 0.11442 0.0
H468 H 0.47718 0.95205 0.1534 0.0
H469 H 0.43925 0.92324 0.124 0.0
H470 H 0.25809 0.92089 0.22658 0.0
H471 H 0.22205 0.88353 0.19928 0.0
H472 H 0.33042 0.92769 0.24926 0.0
H473 H 0.39695 0.9562 0.24546 0.0
C474 C 0.56076 0.28068 0.50007 0.0
C475 C 0.54363 0.24767 0.52308 0.0
C476 C 0.53345 0.32383 0.55043 0.0
C477 C 0.54535 0.3554 0.52643 0.0
N478 N 0.56001 0.36041 0.47657 0.0
N479 N 0.51026 0.23958 0.57019 0.0
C480 C 0.55618 0.33268 0.50082 0.0
C481 C 0.52847 0.26984 0.5481 0.0
N482 N 0.58257 0.26312 0.47738 0.0
N483 N 0.52999 0.34576 0.57613 0.0
H484 H 0.51169 0.20157 0.57122 0.0
H485 H 0.49144 0.25165 0.58708 0.0
H486 H 0.53378 0.38453 0.57886 0.0
H487 H 0.52799 0.3264 0.59519 0.0
H488 H 0.60204 0.28661 0.46198 0.0
H489 H 0.58565 0.22588 0.47494 0.0
H490 H 0.56155 0.34494 0.45652 0.0
H491 H 0.55607 0.39787 0.47606 0.0
C492 C 0.33742 0.59848 0.84937 0.0
C493 C 0.35333 0.58749 0.82211 0.0
C494 C 0.26117 0.57916 0.80298 0.0
C495 C 0.24669 0.59503 0.82957 0.0
N496 N 0.27259 0.62731 0.87696 0.0
N497 N 0.3325 0.5731 0.77213 0.0
C498 C 0.28528 0.60675 0.85247 0.0
C499 C 0.3157 0.57905 0.79867 0.0
N500 N 0.37148 0.599 0.87258 0.0
N501 N 0.22261 0.56354 0.78203 0.0
H502 H 0.37199 0.57275 0.76825 0.0
H503 H 0.30841 0.57227 0.75371 0.0
H504 H 0.18262 0.56401 0.78441 0.0
H505 H 0.22937 0.54663 0.76317 0.0
H506 H 0.36024 0.60127 0.89333 0.0
H507 H 0.40972 0.59229 0.87138 0.0
H508 H 0.30075 0.64254 0.89296 0.0
H509 H 0.23458 0.63297 0.88045 0.0
C510 C 0.78485 0.27246 0.16712 0.0
C511 C 0.82867 0.29525 0.1855 0.0
C512 C 0.79042 0.24269 0.22478 0.0
C513 C 0.74963 0.21629 0.20566 0.0
N514 N 0.70764 0.20376 0.15877 0.0
N515 N 0.87546 0.30194 0.23129 0.0
C516 C 0.7465 0.2308 0.17687 0.0
C517 C 0.83185 0.2806 0.21427 0.0
N518 N 0.77978 0.29113 0.14048 0.0
N519 N 0.78921 0.23167 0.25303 0.0
H520 H 0.90539 0.3315 0.22481 0.0
H521 H 0.88381 0.28883 0.25132 0.0
H522 H 0.76073 0.20285 0.26139 0.0
H523 H 0.81403 0.25308 0.26862 0.0
H524 H 0.74626 0.27987 0.12689 0.0
H525 H 0.8079 0.32071 0.13249 0.0
H526 H 0.7064 0.2083 0.1369 0.0
H527 H 0.67753 0.17462 0.16551 0.0
C528 C 0.03223 0.54475 0.03465 0.0
C529 C 1.02786 0.58579 0.05243 0.0
C530 C 0.03626 0.64164 0.01125 0.0
C531 C 0.03352 0.59924 0.99323 0.0
N532 N 1.02242 0.50933 0.98708 0.0
N533 N 1.02135 0.67271 0.05753 0.0
C534 C 1.02967 0.55043 0.00474 0.0
C535 C 1.02901 0.63419 0.04071 0.0
N536 N 0.04181 0.50124 0.04632 0.0
N537 N 0.04715 0.68918 0.00027 0.0
H538 H 1.01737 0.6692 0.07926 0.0
H539 H 1.01521 0.70699 0.04973 0.0
H540 H 0.0521 0.6961 0.97874 0.0
H541 H 0.05569 0.7219 0.01269 0.0
H542 H 0.05065 0.47205 0.03442 0.0
H543 H 0.04676 0.49641 0.0681 0.0
H544 H 1.01323 0.47229 -0.00578 0.0
H545 H 1.02136 0.5121 0.96505 0.0
C546 C 0.52897 1.02597 0.42083 0.0
C547 C 0.52685 0.07368 0.43252 0.0
C548 C 0.5469 0.1127 0.38623 0.0
C549 C 0.55517 0.06607 0.37584 0.0
N550 N 0.56331 0.98041 0.38461 0.0
N551 N 0.53772 0.16373 0.42701 0.0
C552 C 0.54906 1.02335 0.39358 0.0
C553 C 0.53668 0.11743 0.41536 0.0
N554 N 0.50834 0.98275 0.43488 0.0
N555 N 0.54717 0.15195 0.36805 0.0
H556 H 0.52777 0.16857 0.44775 0.0
H557 H 0.55149 0.19761 0.41672 0.0
H558 H 0.55522 0.15004 0.3467 0.0
H559 H 0.53552 0.18501 0.37351 0.0
H560 H 0.5044 0.94673 0.42624 0.0
H561 H 0.48883 0.98299 0.45365 0.0
H562 H 0.56507 0.95005 0.39786 0.0
H563 H 0.57815 0.9769 0.36472 0.0
C564 C 0.5541 0.55371 0.72213 0.0
C565 C 0.54246 0.5974 0.73471 0.0
C566 C 0.53554 0.63468 0.68765 0.0
C567 C 0.54618 0.59058 0.67511 0.0
N568 N 0.55591 0.50453 0.67935 0.0
N569 N 0.51053 0.67433 0.72947 0.0
C570 C 0.5523 0.54889 0.69206 0.0
C571 C 0.52972 0.63641 0.71744 0.0
N572 N 0.56911 0.51776 0.73893 0.0
N573 N 0.53241 0.67545 0.67115 0.0
H574 H 0.50515 0.67644 0.75114 0.0
H575 H 0.4954 0.70114 0.71783 0.0
H576 H 0.53432 0.67487 0.64914 0.0
H577 H 0.53124 0.71081 0.67931 0.0
H578 H 0.58454 0.48813 0.73132 0.0
H579 H 0.56938 0.51945 0.7609 0.0
H580 H 0.55459 0.47099 0.69024 0.0
H581 H 0.5561 0.5001 0.65741 0.0
C582 C 0.54715 1.02245 0.61316 0.0
C583 C 0.56047 0.07098 0.60085 0.0
C584 C 0.56469 0.11012 0.64794 0.0
C585 C 0.55936 1.0618 0.66024 0.0
N586 N 0.54975 0.97176 0.65514 0.0
N587 N 0.58834 0.16152 0.60672 0.0
C588 C 0.55125 1.01781 0.64302 0.0
C589 C 0.57019 0.11514 0.61821 0.0
N590 N 0.52951 0.98078 0.59627 0.0
N591 N 0.56458 0.15112 0.66474 0.0
H592 H 0.59438 0.167 0.58521 0.0
H593 H 0.60166 0.19431 0.61881 0.0
H594 H 0.56131 0.14857 0.68665 0.0
H595 H 0.5629 0.18654 0.65676 0.0
H596 H 0.51396 0.94497 0.60399 0.0
H597 H 0.52552 0.98292 0.57435 0.0
H598 H 0.55083 0.93932 0.6436 0.0
H599 H 0.55119 0.96643 0.677 0.0
C600 C 0.48729 0.53605 0.91683 0.0
C601 C 0.53053 0.56814 0.90396 0.0
C602 C 0.57103 0.5975 0.95067 0.0
C603 C 0.52748 0.56595 0.96351 0.0
N604 N 0.43932 0.51308 0.95952 0.0
N605 N 0.60701 0.63714 0.90776 0.0
C606 C 0.48401 0.53771 0.94676 0.0
C607 C 0.5704 0.60133 0.92064 0.0
N608 N 0.45032 0.5028 0.90053 0.0
N609 N 0.61375 0.62243 0.96716 0.0
H610 H 0.60754 0.64071 0.88582 0.0
H611 H 0.6339 0.66584 0.91864 0.0
H612 H 0.61484 0.62181 0.98925 0.0
H613 H 0.64947 0.64117 0.95905 0.0
H614 H 0.42175 0.47411 0.90881 0.0
H615 H 0.44993 0.50188 0.87846 0.0
H616 H 0.404 0.49629 0.94845 0.0
H617 H 0.43598 0.51284 0.98144 0.0
C618 C 1.00285 0.58064 0.23562 0.0
C619 C 0.04649 0.60933 0.22146 0.0
C620 C 0.10046 0.62188 0.26628 0.0
C621 C 0.05848 0.58922 0.27976 0.0
N622 N 0.97191 0.53327 0.27738 0.0
N623 N 0.13705 0.65743 0.22251 0.0
C624 C 1.01021 0.56745 0.26446 0.0
C625 C 0.09542 0.63 0.23658 0.0
N626 N 0.95402 0.56715 0.2217 0.0
N627 N 0.14458 0.64602 0.28208 0.0
H628 H 0.13357 0.66796 0.20139 0.0
H629 H 0.17575 0.66822 0.2312 0.0
H630 H 0.15035 0.63984 0.3037 0.0
H631 H 0.17415 0.6745 0.27444 0.0
H632 H 0.91927 0.55061 0.23149 0.0
H633 H 0.94715 0.57651 0.20065 0.0
H634 H 0.93856 0.51148 0.26662 0.0
H635 H 0.97518 0.524 0.29873 0.0
loop_
_geom_bond_atom_site_label_1
_geom_bond_atom_site_label_2
_geom_bond_distance
_geom_bond_site_symmetry_2
_ccdc_geom_bond_type
Pr0 C2 2.880 . S
Pr0 O20 2.562 . S
Pr0 O21 2.490 . S
Pr0 O22 2.695 1_655 S
Pr0 O23 2.512 . S
Pr0 O25 2.437 . S
Pr0 O28 2.436 . S
Pr0 O30 2.438 1_655 S
Pr1 C11 2.880 . S
Pr1 O22 2.436 . S
Pr1 O24 2.438 1_455 S
Pr1 O26 2.562 . S
Pr1 O27 2.490 . S
Pr1 O28 2.695 1_455 S
Pr1 O29 2.512 . S
Pr1 O31 2.437 . S
C2 Pr0 2.880 . S
C2 C3 1.491 . S
C2 O20 1.254 . S
C2 O21 1.225 . S
C3 C2 1.491 . S
C3 C4 1.392 . S
C3 C8 1.356 . S
C4 C3 1.392 . S
C4 C5 1.368 . S
C4 H32 0.929 . S
C5 C4 1.368 . S
C5 C6 1.386 . S
C5 H33 0.929 . S
C6 C5 1.386 . S
C6 C7 1.373 . S
C7 C6 1.373 . S
C7 C8 1.409 . S
C7 H34 0.931 . S
C8 C3 1.356 . S
C8 C7 1.409 . S
C8 H35 0.930 . S
C9 O22 1.270 . S
C9 O23 1.248 1_455 S
C10 O24 1.267 . S
C10 O25 1.278 . S
C11 Pr1 2.880 . S
C11 C12 1.491 . S
C11 O26 1.254 . S
C11 O27 1.225 . S
C12 C11 1.491 . S
C12 C13 1.392 . S
C12 C17 1.356 . S
C13 C12 1.392 . S
C13 C14 1.368 . S
C13 H36 0.929 . S
C14 C13 1.368 . S
C14 C15 1.386 . S
C14 H37 0.929 . S
C15 C14 1.386 . S
C15 C16 1.373 . S
C16 C15 1.373 . S
C16 C17 1.409 . S
C16 H38 0.931 . S
C17 C12 1.356 . S
C17 C16 1.409 . S
C17 H39 0.930 . S
C18 O28 1.270 1_455 S
C18 O29 1.248 . S
C19 O30 1.267 . S
C19 O31 1.278 . S
O20 Pr0 2.562 . S
O20 C2 1.254 . S
O21 Pr0 2.490 . S
O21 C2 1.225 . S
O22 Pr0 2.695 1_455 S
O22 Pr1 2.436 . S
O22 C9 1.270 . S
O23 Pr0 2.512 . S
O23 C9 1.248 1_655 S
O24 Pr1 2.438 1_655 S
O24 C10 1.267 . S
O25 Pr0 2.437 . S
O25 C10 1.278 . S
O26 Pr1 2.562 . S
O26 C11 1.254 . S
O27 Pr1 2.490 . S
O27 C11 1.225 . S
O28 Pr0 2.436 . S
O28 Pr1 2.695 1_655 S
O28 C18 1.270 1_655 S
O29 Pr1 2.512 . S
O29 C18 1.248 . S
O30 Pr0 2.438 1_455 S
O30 C19 1.267 . S
O31 Pr1 2.437 . S
O31 C19 1.278 . S
H32 C4 0.929 . S
H33 C5 0.929 . S
H34 C7 0.931 . S
H35 C8 0.930 . S
H36 C13 0.929 . S
H37 C14 0.929 . S
H38 C16 0.931 . S
H39 C17 0.930 . S
Pr40 C42 2.880 . S
Pr40 O60 2.562 . S
Pr40 O61 2.490 . S
Pr40 O62 2.695 1_545 S
Pr40 O63 2.512 . S
Pr40 O65 2.437 . S
Pr40 O68 2.436 . S
Pr40 O70 2.438 1_545 S
Pr41 C51 2.880 . S
Pr41 O62 2.436 . S
Pr41 O64 2.438 1_565 S
Pr41 O66 2.562 . S
Pr41 O67 2.490 . S
Pr41 O68 2.695 1_565 S
Pr41 O69 2.512 . S
Pr41 O71 2.437 . S
C42 Pr40 2.880 . S
C42 C43 1.491 . S
C42 O60 1.254 . S
C42 O61 1.225 . S
C43 C42 1.491 . S
C43 C44 1.392 . S
C43 C48 1.356 . S
C44 C43 1.392 . S
C44 C45 1.368 . S
C44 H72 0.929 . S
C45 C44 1.368 . S
C45 C46 1.386 . S
C45 H73 0.929 . S
C46 C45 1.386 . S
C46 C47 1.373 . S
C47 C46 1.373 . S
C47 C48 1.409 . S
C47 H74 0.931 . S
C48 C43 1.356 . S
C48 C47 1.409 . S
C48 H75 0.930 . S
C49 O62 1.270 1_545 S
C49 O63 1.248 . S
C50 O64 1.267 . S
C50 O65 1.278 . S
C51 Pr41 2.880 . S
C51 C52 1.491 . S
C51 O66 1.254 . S
C51 O67 1.225 . S
C52 C51 1.491 . S
C52 C53 1.392 . S
C52 C57 1.356 . S
C53 C52 1.392 . S
C53 C54 1.368 . S
C53 H76 0.929 . S
C54 C53 1.368 . S
C54 C55 1.386 . S
C54 H77 0.929 . S
C55 C54 1.386 . S
C55 C56 1.373 . S
C56 C55 1.373 . S
C56 C57 1.409 . S
C56 H78 0.931 . S
C57 C52 1.356 . S
C57 C56 1.409 . S
C57 H79 0.930 . S
C58 O68 1.270 . S
C58 O69 1.248 1_545 S
C59 O70 1.267 . S
C59 O71 1.278 . S
O60 Pr40 2.562 . S
O60 C42 1.254 . S
O61 Pr40 2.490 . S
O61 C42 1.225 . S
O62 Pr40 2.695 1_565 S
O62 Pr41 2.436 . S
O62 C49 1.270 1_565 S
O63 Pr40 2.512 . S
O63 C49 1.248 . S
O64 Pr41 2.438 1_545 S
O64 C50 1.267 . S
O65 Pr40 2.437 . S
O65 C50 1.278 . S
O66 Pr41 2.562 . S
O66 C51 1.254 . S
O67 Pr41 2.490 . S
O67 C51 1.225 . S
O68 Pr40 2.436 . S
O68 Pr41 2.695 1_545 S
O68 C58 1.270 . S
O69 Pr41 2.512 . S
O69 C58 1.248 1_565 S
O70 Pr40 2.438 1_565 S
O70 C59 1.267 . S
O71 Pr41 2.437 . S
O71 C59 1.278 . S
H72 C44 0.929 . S
H73 C45 0.929 . S
H74 C47 0.931 . S
H75 C48 0.930 . S
H76 C53 0.929 . S
H77 C54 0.929 . S
H78 C56 0.931 . S
H79 C57 0.930 . S
Pr80 C82 2.880 . S
Pr80 O100 2.562 . S
Pr80 O101 2.490 . S
Pr80 O102 2.695 . S
Pr80 O103 2.512 . S
Pr80 O105 2.437 . S
Pr80 O108 2.436 . S
Pr80 O110 2.438 . S
Pr81 C91 2.880 . S
Pr81 O102 2.436 . S
Pr81 O104 2.438 . S
Pr81 O106 2.562 . S
Pr81 O107 2.490 . S
Pr81 O108 2.695 . S
Pr81 O109 2.512 . S
Pr81 O111 2.437 . S
C82 Pr80 2.880 . S
C82 C83 1.491 . S
C82 O100 1.254 . S
C82 O101 1.225 . S
C83 C82 1.491 . S
C83 C84 1.392 . S
C83 C88 1.356 . S
C84 C83 1.392 . S
C84 C85 1.368 . S
C84 H112 0.929 . S
C85 C84 1.368 . S
C85 C86 1.386 . S
C85 H113 0.929 . S
C86 C85 1.386 . S
C86 C87 1.373 . S
C87 C86 1.373 . S
C87 C88 1.409 . S
C87 H114 0.931 . S
C88 C83 1.356 . S
C88 C87 1.409 . S
C88 H115 0.930 . S
C89 O102 1.270 . S
C89 O103 1.248 . S
C90 O104 1.267 . S
C90 O105 1.278 . S
C91 Pr81 2.880 . S
C91 C92 1.491 . S
C91 O106 1.254 . S
C91 O107 1.225 . S
C92 C91 1.491 . S
C92 C93 1.392 . S
C92 C97 1.356 . S
C93 C92 1.392 . S
C93 C94 1.368 . S
C93 H116 0.929 . S
C94 C93 1.368 . S
C94 C95 1.386 . S
C94 H117 0.929 . S
C95 C94 1.386 . S
C95 C96 1.373 . S
C96 C95 1.373 . S
C96 C97 1.409 . S
C96 H118 0.931 . S
C97 C92 1.356 . S
C97 C96 1.409 . S
C97 H119 0.930 . S
C98 O108 1.270 . S
C98 O109 1.248 . S
C99 O110 1.267 . S
C99 O111 1.278 . S
O100 Pr80 2.562 . S
O100 C82 1.254 . S
O101 Pr80 2.490 . S
O101 C82 1.225 . S
O102 Pr80 2.695 . S
O102 Pr81 2.436 . S
O102 C89 1.270 . S
O103 Pr80 2.512 . S
O103 C89 1.248 . S
O104 Pr81 2.438 . S
O104 C90 1.267 . S
O105 Pr80 2.437 . S
O105 C90 1.278 . S
O106 Pr81 2.562 . S
O106 C91 1.254 . S
O107 Pr81 2.490 . S
O107 C91 1.225 . S
O108 Pr80 2.436 . S
O108 Pr81 2.695 . S
O108 C98 1.270 . S
O109 Pr81 2.512 . S
O109 C98 1.248 . S
O110 Pr80 2.438 . S
O110 C99 1.267 . S
O111 Pr81 2.437 . S
O111 C99 1.278 . S
H112 C84 0.929 . S
H113 C85 0.929 . S
H114 C87 0.931 . S
H115 C88 0.930 . S
H116 C93 0.929 . S
H117 C94 0.929 . S
H118 C96 0.931 . S
H119 C97 0.930 . S
P120 O131 1.490 . S
P120 C134 1.812 . S
P120 C140 1.803 1_565 S
P120 C146 1.819 1_565 S
H121 C135 0.941 . S
H122 C136 0.939 . S
H123 C138 0.940 . S
H124 C139 0.940 . S
H125 C141 0.939 . S
H126 C142 0.942 . S
H127 C144 0.940 . S
H128 C145 0.939 . S
H129 C147 0.941 . S
H130 C151 0.939 . S
O131 P120 1.490 . S
H132 C148 0.939 . S
H133 C150 0.940 . S
C134 P120 1.812 . S
C134 C135 1.389 . S
C134 C139 1.391 . S
C135 H121 0.941 . S
C135 C134 1.389 . S
C135 C136 1.397 . S
C136 H122 0.939 . S
C136 C135 1.397 . S
C136 C137 1.378 . S
C137 C136 1.378 . S
C137 C138 1.378 . S
C138 H123 0.940 . S
C138 C137 1.378 . S
C138 C139 1.396 . S
C139 H124 0.940 . S
C139 C134 1.391 . S
C139 C138 1.396 . S
C140 P120 1.803 1_545 S
C140 C141 1.378 . S
C140 C145 1.400 . S
C141 H125 0.939 . S
C141 C140 1.378 . S
C141 C142 1.361 . S
C142 H126 0.942 . S
C142 C141 1.361 . S
C142 C143 1.369 . S
C143 C142 1.369 . S
C143 C144 1.404 . S
C144 H127 0.940 . S
C144 C143 1.404 . S
C144 C145 1.389 . S
C145 H128 0.939 . S
C145 C140 1.400 . S
C145 C144 1.389 . S
C146 P120 1.819 1_545 S
C146 C147 1.391 1_545 S
C146 C151 1.391 . S
C147 H129 0.941 . S
C147 C146 1.391 1_565 S
C147 C148 1.396 . S
C148 H132 0.939 . S
C148 C147 1.396 . S
C148 C149 1.397 1_565 S
C149 C148 1.397 1_545 S
C149 C150 1.385 . S
C150 H133 0.940 . S
C150 C149 1.385 . S
C150 C151 1.388 . S
C151 H130 0.939 . S
C151 C146 1.391 . S
C151 C150 1.388 . S
P152 O163 1.490 . S
P152 C166 1.812 . S
P152 C172 1.803 . S
P152 C178 1.819 . S
H153 C167 0.941 . S
H154 C168 0.939 . S
H155 C170 0.940 . S
H156 C171 0.940 . S
H157 C173 0.939 . S
H158 C174 0.942 . S
H159 C176 0.940 . S
H160 C177 0.939 . S
H161 C179 0.941 . S
H162 C183 0.939 . S
O163 P152 1.490 . S
H164 C180 0.939 . S
H165 C182 0.940 . S
C166 P152 1.812 . S
C166 C167 1.389 . S
C166 C171 1.391 . S
C167 H153 0.941 . S
C167 C166 1.389 . S
C167 C168 1.397 . S
C168 H154 0.939 . S
C168 C167 1.397 . S
C168 C169 1.378 . S
C169 C168 1.378 . S
C169 C170 1.378 . S
C170 H155 0.940 . S
C170 C169 1.378 . S
C170 C171 1.396 . S
C171 H156 0.940 . S
C171 C166 1.391 . S
C171 C170 1.396 . S
C172 P152 1.803 . S
C172 C173 1.378 . S
C172 C177 1.400 . S
C173 H157 0.939 . S
C173 C172 1.378 . S
C173 C174 1.361 . S
C174 H158 0.942 . S
C174 C173 1.361 . S
C174 C175 1.369 . S
C175 C174 1.369 . S
C175 C176 1.404 . S
C176 H159 0.940 . S
C176 C175 1.404 . S
C176 C177 1.389 . S
C177 H160 0.939 . S
C177 C172 1.400 . S
C177 C176 1.389 . S
C178 P152 1.819 . S
C178 C179 1.391 . S
C178 C183 1.391 . S
C179 H161 0.941 . S
C179 C178 1.391 . S
C179 C180 1.396 . S
C180 H164 0.939 . S
C180 C179 1.396 . S
C180 C181 1.397 . S
C181 C180 1.397 . S
C181 C182 1.385 . S
C182 H165 0.940 . S
C182 C181 1.385 . S
C182 C183 1.388 . S
C183 H162 0.939 . S
C183 C178 1.391 . S
C183 C182 1.388 . S
P184 O195 1.490 . S
P184 C198 1.812 . S
P184 C204 1.803 1_455 S
P184 C210 1.819 . S
H185 C199 0.941 . S
H186 C200 0.939 . S
H187 C202 0.940 . S
H188 C203 0.940 . S
H189 C205 0.939 . S
H190 C206 0.942 . S
H191 C208 0.940 . S
H192 C209 0.939 . S
H193 C211 0.941 . S
H194 C215 0.939 . S
O195 P184 1.490 . S
H196 C212 0.939 . S
H197 C214 0.940 . S
C198 P184 1.812 . S
C198 C199 1.389 . S
C198 C203 1.391 . S
C199 H185 0.941 . S
C199 C198 1.389 . S
C199 C200 1.397 . S
C200 H186 0.939 . S
C200 C199 1.397 . S
C200 C201 1.378 . S
C201 C200 1.378 . S
C201 C202 1.378 . S
C202 H187 0.940 . S
C202 C201 1.378 . S
C202 C203 1.396 . S
C203 H188 0.940 . S
C203 C198 1.391 . S
C203 C202 1.396 . S
C204 P184 1.803 1_655 S
C204 C205 1.378 . S
C204 C209 1.400 . S
C205 H189 0.939 . S
C205 C204 1.378 . S
C205 C206 1.361 . S
C206 H190 0.942 . S
C206 C205 1.361 . S
C206 C207 1.369 . S
C207 C206 1.369 . S
C207 C208 1.404 . S
C208 H191 0.940 . S
C208 C207 1.404 . S
C208 C209 1.389 . S
C209 H192 0.939 . S
C209 C204 1.400 . S
C209 C208 1.389 . S
C210 P184 1.819 . S
C210 C211 1.391 . S
C210 C215 1.391 1_455 S
C211 H193 0.941 . S
C211 C210 1.391 . S
C211 C212 1.396 . S
C212 H196 0.939 . S
C212 C211 1.396 . S
C212 C213 1.397 . S
C213 C212 1.397 . S
C213 C214 1.385 1_455 S
C214 H197 0.940 . S
C214 C213 1.385 1_655 S
C214 C215 1.388 . S
C215 H194 0.939 . S
C215 C210 1.391 1_655 S
C215 C214 1.388 . S
P216 O227 1.490 . S
P216 C230 1.812 . S
P216 C236 1.803 1_455 S
P216 C242 1.819 . S
H217 C231 0.941 . S
H218 C232 0.939 . S
H219 C234 0.940 . S
H220 C235 0.940 . S
H221 C237 0.940 1_455 S
H222 C238 0.942 . S
H223 C240 0.940 . S
H224 C241 0.939 . S
H225 C243 0.941 . S
H226 C247 0.939 . S
O227 P216 1.490 . S
H228 C244 0.939 . S
H229 C246 0.940 . S
C230 P216 1.812 . S
C230 C231 1.389 . S
C230 C235 1.391 . S
C231 H217 0.941 . S
C231 C230 1.389 . S
C231 C232 1.397 . S
C232 H218 0.939 . S
C232 C231 1.397 . S
C232 C233 1.378 . S
C233 C232 1.378 . S
C233 C234 1.378 . S
C234 H219 0.940 . S
C234 C233 1.378 . S
C234 C235 1.396 . S
C235 H220 0.940 . S
C235 C230 1.391 . S
C235 C234 1.396 . S
C236 P216 1.803 1_655 S
C236 C237 1.378 . S
C236 C241 1.400 . S
C237 H221 0.940 1_655 S
C237 C236 1.378 . S
C237 C238 1.361 . S
C238 H222 0.942 . S
C238 C237 1.361 . S
C238 C239 1.369 . S
C239 C238 1.369 . S
C239 C240 1.404 . S
C240 H223 0.940 . S
C240 C239 1.404 . S
C240 C241 1.389 . S
C241 H224 0.939 . S
C241 C236 1.400 . S
C241 C240 1.389 . S
C242 P216 1.819 . S
C242 C243 1.391 . S
C242 C247 1.391 1_455 S
C243 H225 0.941 . S
C243 C242 1.391 . S
C243 C244 1.396 . S
C244 H228 0.939 . S
C244 C243 1.396 . S
C244 C245 1.397 . S
C245 C244 1.397 . S
C245 C246 1.385 1_455 S
C246 H229 0.940 . S
C246 C245 1.385 1_655 S
C246 C247 1.388 . S
C247 H226 0.939 . S
C247 C242 1.391 1_655 S
C247 C246 1.388 . S
P248 O259 1.490 . S
P248 C262 1.812 . S
P248 C268 1.803 1_545 S
P248 C274 1.819 . S
H249 C263 0.941 . S
H250 C264 0.939 . S
H251 C266 0.940 . S
H252 C267 0.940 . S
H253 C269 0.939 . S
H254 C270 0.942 . S
H255 C272 0.940 . S
H256 C273 0.939 . S
H257 C275 0.941 . S
H258 C279 0.939 . S
O259 P248 1.490 . S
H260 C276 0.939 . S
H261 C278 0.940 . S
C262 P248 1.812 . S
C262 C263 1.389 . S
C262 C267 1.391 . S
C263 H249 0.941 . S
C263 C262 1.389 . S
C263 C264 1.397 . S
C264 H250 0.939 . S
C264 C263 1.397 . S
C264 C265 1.378 . S
C265 C264 1.378 . S
C265 C266 1.378 . S
C266 H251 0.940 . S
C266 C265 1.378 . S
C266 C267 1.396 . S
C267 H252 0.940 . S
C267 C262 1.391 . S
C267 C266 1.396 . S
C268 P248 1.803 1_565 S
C268 C269 1.378 . S
C268 C273 1.400 . S
C269 H253 0.939 . S
C269 C268 1.378 . S
C269 C270 1.361 . S
C270 H254 0.942 . S
C270 C269 1.361 . S
C270 C271 1.369 . S
C271 C270 1.369 . S
C271 C272 1.404 . S
C272 H255 0.940 . S
C272 C271 1.404 . S
C272 C273 1.389 . S
C273 H256 0.939 . S
C273 C268 1.400 . S
C273 C272 1.389 . S
C274 P248 1.819 . S
C274 C275 1.391 . S
C274 C279 1.391 1_545 S
C275 H257 0.941 . S
C275 C274 1.391 . S
C275 C276 1.396 . S
C276 H260 0.939 . S
C276 C275 1.396 . S
C276 C277 1.397 . S
C277 C276 1.397 . S
C277 C278 1.385 1_545 S
C278 H261 0.940 . S
C278 C277 1.385 1_565 S
C278 C279 1.388 . S
C279 H258 0.939 . S
C279 C274 1.391 1_565 S
C279 C278 1.388 . S
P280 O291 1.490 . S
P280 C294 1.812 . S
P280 C300 1.803 . S
P280 C306 1.819 . S
H281 C295 0.941 . S
H282 C296 0.939 . S
H283 C298 0.940 . S
H284 C299 0.940 . S
H285 C301 0.939 . S
H286 C302 0.942 . S
H287 C304 0.940 . S
H288 C305 0.939 . S
H289 C307 0.941 . S
H290 C311 0.939 . S
O291 P280 1.490 . S
H292 C308 0.939 . S
H293 C310 0.940 . S
C294 P280 1.812 . S
C294 C295 1.389 . S
C294 C299 1.391 . S
C295 H281 0.941 . S
C295 C294 1.389 . S
C295 C296 1.397 . S
C296 H282 0.939 . S
C296 C295 1.397 . S
C296 C297 1.378 . S
C297 C296 1.378 . S
C297 C298 1.378 . S
C298 H283 0.940 . S
C298 C297 1.378 . S
C298 C299 1.396 . S
C299 H284 0.940 . S
C299 C294 1.391 . S
C299 C298 1.396 . S
C300 P280 1.803 . S
C300 C301 1.378 . S
C300 C305 1.400 . S
C301 H285 0.939 . S
C301 C300 1.378 . S
C301 C302 1.361 . S
C302 H286 0.942 . S
C302 C301 1.361 . S
C302 C303 1.369 . S
C303 C302 1.369 . S
C303 C304 1.404 . S
C304 H287 0.940 . S
C304 C303 1.404 . S
C304 C305 1.389 . S
C305 H288 0.939 . S
C305 C300 1.400 . S
C305 C304 1.389 . S
C306 P280 1.819 . S
C306 C307 1.391 . S
C306 C311 1.391 . S
C307 H289 0.941 . S
C307 C306 1.391 . S
C307 C308 1.396 . S
C308 H292 0.939 . S
C308 C307 1.396 . S
C308 C309 1.397 . S
C309 C308 1.397 . S
C309 C310 1.385 . S
C310 H293 0.940 . S
C310 C309 1.385 . S
C310 C311 1.388 . S
C311 H290 0.939 . S
C311 C306 1.391 . S
C311 C310 1.388 . S
C312 C313 1.363 . S
C312 C318 1.379 . S
C312 N320 1.356 . S
C313 C312 1.363 . S
C313 C319 1.363 . S
C314 C315 1.363 . S
C314 C319 1.379 . S
C314 N321 1.356 . S
C315 C314 1.363 . S
C315 C318 1.363 . S
N316 C318 1.356 . S
N316 H328 0.984 . S
N316 H329 0.985 . S
N317 C319 1.356 . S
N317 H322 0.984 . S
N317 H323 0.985 . S
C318 C312 1.379 . S
C318 C315 1.363 . S
C318 N316 1.356 . S
C319 C313 1.363 . S
C319 C314 1.379 . S
C319 N317 1.356 . S
N320 C312 1.356 . S
N320 H326 0.984 . S
N320 H327 0.984 . S
N321 C314 1.356 . S
N321 H324 0.984 . S
N321 H325 0.985 . S
H322 N317 0.984 . S
H323 N317 0.985 . S
H324 N321 0.984 . S
H325 N321 0.985 . S
H326 N320 0.984 . S
H327 N320 0.984 . S
H328 N316 0.984 . S
H329 N316 0.985 . S
C330 C331 1.363 . S
C330 C336 1.379 . S
C330 N338 1.356 . S
C331 C330 1.363 . S
C331 C337 1.363 . S
C332 C333 1.363 . S
C332 C337 1.379 . S
C332 N339 1.356 . S
C333 C332 1.363 . S
C333 C336 1.363 . S
N334 C336 1.356 . S
N334 H346 0.984 . S
N334 H347 0.985 . S
N335 C337 1.356 . S
N335 H340 0.984 . S
N335 H341 0.985 . S
C336 C330 1.379 . S
C336 C333 1.363 . S
C336 N334 1.356 . S
C337 C331 1.363 . S
C337 C332 1.379 . S
C337 N335 1.356 . S
N338 C330 1.356 . S
N338 H344 0.984 . S
N338 H345 0.984 . S
N339 C332 1.356 . S
N339 H342 0.984 . S
N339 H343 0.985 . S
H340 N335 0.984 . S
H341 N335 0.985 . S
H342 N339 0.984 . S
H343 N339 0.985 . S
H344 N338 0.984 . S
H345 N338 0.984 . S
H346 N334 0.984 . S
H347 N334 0.985 . S
C348 C349 1.363 . S
C348 C354 1.379 . S
C348 N356 1.356 . S
C349 C348 1.363 . S
C349 C355 1.363 . S
C350 C351 1.363 . S
C350 C355 1.379 . S
C350 N357 1.356 . S
C351 C350 1.363 . S
C351 C354 1.363 . S
N352 C354 1.356 . S
N352 H364 0.984 . S
N352 H365 0.985 . S
N353 C355 1.356 . S
N353 H358 0.984 . S
N353 H359 0.985 . S
C354 C348 1.379 . S
C354 C351 1.363 . S
C354 N352 1.356 . S
C355 C349 1.363 . S
C355 C350 1.379 . S
C355 N353 1.356 . S
N356 C348 1.356 . S
N356 H362 0.984 . S
N356 H363 0.984 . S
N357 C350 1.356 . S
N357 H360 0.984 . S
N357 H361 0.985 . S
H358 N353 0.984 . S
H359 N353 0.985 . S
H360 N357 0.984 . S
H361 N357 0.985 . S
H362 N356 0.984 . S
H363 N356 0.984 . S
H364 N352 0.984 . S
H365 N352 0.985 . S
C366 C367 1.363 . S
C366 C372 1.379 . S
C366 N374 1.356 . S
C367 C366 1.363 . S
C367 C373 1.363 . S
C368 C369 1.363 . S
C368 C373 1.379 . S
C368 N375 1.356 . S
C369 C368 1.363 . S
C369 C372 1.363 . S
N370 C372 1.356 . S
N370 H382 0.984 . S
N370 H383 0.985 . S
N371 C373 1.356 . S
N371 H376 0.984 . S
N371 H377 0.985 . S
C372 C366 1.379 . S
C372 C369 1.363 . S
C372 N370 1.356 . S
C373 C367 1.363 . S
C373 C368 1.379 . S
C373 N371 1.356 . S
N374 C366 1.356 . S
N374 H380 0.984 . S
N374 H381 0.984 . S
N375 C368 1.356 . S
N375 H378 0.984 . S
N375 H379 0.985 . S
H376 N371 0.984 . S
H377 N371 0.985 . S
H378 N375 0.984 . S
H379 N375 0.985 . S
H380 N374 0.984 . S
H381 N374 0.984 . S
H382 N370 0.984 . S
H383 N370 0.985 . S
C384 C385 1.363 . S
C384 C390 1.379 . S
C384 N392 1.356 . S
C385 C384 1.363 . S
C385 C391 1.363 . S
C386 C387 1.363 . S
C386 C391 1.379 . S
C386 N393 1.356 . S
C387 C386 1.363 . S
C387 C390 1.363 . S
N388 C390 1.356 . S
N388 H400 0.984 . S
N388 H401 0.985 . S
N389 C391 1.356 . S
N389 H394 0.984 . S
N389 H395 0.985 . S
C390 C384 1.379 . S
C390 C387 1.363 . S
C390 N388 1.356 . S
C391 C385 1.363 . S
C391 C386 1.379 . S
C391 N389 1.356 . S
N392 C384 1.356 . S
N392 H398 0.984 . S
N392 H399 0.984 . S
N393 C386 1.356 . S
N393 H396 0.984 . S
N393 H397 0.985 . S
H394 N389 0.984 . S
H395 N389 0.985 . S
H396 N393 0.984 . S
H397 N393 0.985 . S
H398 N392 0.984 . S
H399 N392 0.984 . S
H400 N388 0.984 . S
H401 N388 0.985 . S
C402 C403 1.363 . S
C402 C408 1.379 . S
C402 N410 1.356 . S
C403 C402 1.363 . S
C403 C409 1.363 . S
C404 C405 1.363 . S
C404 C409 1.379 . S
C404 N411 1.356 . S
C405 C404 1.363 . S
C405 C408 1.363 . S
N406 C408 1.356 . S
N406 H418 0.984 . S
N406 H419 0.985 . S
N407 C409 1.356 . S
N407 H412 0.984 . S
N407 H413 0.985 . S
C408 C402 1.379 . S
C408 C405 1.363 . S
C408 N406 1.356 . S
C409 C403 1.363 . S
C409 C404 1.379 . S
C409 N407 1.356 . S
N410 C402 1.356 . S
N410 H416 0.984 . S
N410 H417 0.984 . S
N411 C404 1.356 . S
N411 H414 0.984 . S
N411 H415 0.985 . S
H412 N407 0.984 . S
H413 N407 0.985 . S
H414 N411 0.984 . S
H415 N411 0.985 . S
H416 N410 0.984 . S
H417 N410 0.984 . S
H418 N406 0.984 . S
H419 N406 0.985 . S
C420 C421 1.363 . S
C420 C426 1.379 . S
C420 N428 1.356 . S
C421 C420 1.363 . S
C421 C427 1.363 . S
C422 C423 1.363 . S
C422 C427 1.379 . S
C422 N429 1.356 . S
C423 C422 1.363 . S
C423 C426 1.363 . S
N424 C426 1.356 . S
N424 H436 0.984 . S
N424 H437 0.985 . S
N425 C427 1.356 . S
N425 H430 0.984 . S
N425 H431 0.985 . S
C426 C420 1.379 . S
C426 C423 1.363 . S
C426 N424 1.356 . S
C427 C421 1.363 . S
C427 C422 1.379 . S
C427 N425 1.356 . S
N428 C420 1.356 . S
N428 H434 0.984 . S
N428 H435 0.984 . S
N429 C422 1.356 . S
N429 H432 0.984 . S
N429 H433 0.985 . S
H430 N425 0.984 . S
H431 N425 0.985 . S
H432 N429 0.984 . S
H433 N429 0.985 . S
H434 N428 0.984 . S
H435 N428 0.984 . S
H436 N424 0.984 . S
H437 N424 0.985 . S
C438 C439 1.363 . S
C438 C444 1.379 . S
C438 N446 1.356 . S
C439 C438 1.363 . S
C439 C445 1.363 . S
C440 C441 1.363 . S
C440 C445 1.379 . S
C440 N447 1.356 . S
C441 C440 1.363 . S
C441 C444 1.363 . S
N442 C444 1.356 . S
N442 H454 0.984 . S
N442 H455 0.985 . S
N443 C445 1.356 . S
N443 H448 0.984 . S
N443 H449 0.985 . S
C444 C438 1.379 . S
C444 C441 1.363 . S
C444 N442 1.356 . S
C445 C439 1.363 . S
C445 C440 1.379 . S
C445 N443 1.356 . S
N446 C438 1.356 . S
N446 H452 0.984 . S
N446 H453 0.984 . S
N447 C440 1.356 . S
N447 H450 0.984 . S
N447 H451 0.985 . S
H448 N443 0.984 . S
H449 N443 0.985 . S
H450 N447 0.984 . S
H451 N447 0.985 . S
H452 N446 0.984 . S
H453 N446 0.984 . S
H454 N442 0.984 . S
H455 N442 0.985 . S
C456 C457 1.363 . S
C456 C462 1.379 . S
C456 N464 1.356 . S
C457 C456 1.363 . S
C457 C463 1.363 . S
C458 C459 1.363 . S
C458 C463 1.379 . S
C458 N465 1.356 . S
C459 C458 1.363 . S
C459 C462 1.363 . S
N460 C462 1.356 . S
N460 H472 0.984 . S
N460 H473 0.985 . S
N461 C463 1.356 . S
N461 H466 0.984 . S
N461 H467 0.985 . S
C462 C456 1.379 . S
C462 C459 1.363 . S
C462 N460 1.356 . S
C463 C457 1.363 . S
C463 C458 1.379 . S
C463 N461 1.356 . S
N464 C456 1.356 . S
N464 H470 0.984 . S
N464 H471 0.984 . S
N465 C458 1.356 . S
N465 H468 0.984 . S
N465 H469 0.985 . S
H466 N461 0.984 . S
H467 N461 0.985 . S
H468 N465 0.984 . S
H469 N465 0.985 . S
H470 N464 0.984 . S
H471 N464 0.984 . S
H472 N460 0.984 . S
H473 N460 0.985 . S
C474 C475 1.363 . S
C474 C480 1.379 . S
C474 N482 1.356 . S
C475 C474 1.363 . S
C475 C481 1.363 . S
C476 C477 1.363 . S
C476 C481 1.379 . S
C476 N483 1.356 . S
C477 C476 1.363 . S
C477 C480 1.363 . S
N478 C480 1.356 . S
N478 H490 0.984 . S
N478 H491 0.985 . S
N479 C481 1.356 . S
N479 H484 0.984 . S
N479 H485 0.985 . S
C480 C474 1.379 . S
C480 C477 1.363 . S
C480 N478 1.356 . S
C481 C475 1.363 . S
C481 C476 1.379 . S
C481 N479 1.356 . S
N482 C474 1.356 . S
N482 H488 0.984 . S
N482 H489 0.984 . S
N483 C476 1.356 . S
N483 H486 0.984 . S
N483 H487 0.985 . S
H484 N479 0.984 . S
H485 N479 0.985 . S
H486 N483 0.984 . S
H487 N483 0.985 . S
H488 N482 0.984 . S
H489 N482 0.984 . S
H490 N478 0.984 . S
H491 N478 0.985 . S
C492 C493 1.363 . S
C492 C498 1.379 . S
C492 N500 1.356 . S
C493 C492 1.363 . S
C493 C499 1.363 . S
C494 C495 1.363 . S
C494 C499 1.379 . S
C494 N501 1.356 . S
C495 C494 1.363 . S
C495 C498 1.363 . S
N496 C498 1.356 . S
N496 H508 0.984 . S
N496 H509 0.985 . S
N497 C499 1.356 . S
N497 H502 0.984 . S
N497 H503 0.985 . S
C498 C492 1.379 . S
C498 C495 1.363 . S
C498 N496 1.356 . S
C499 C493 1.363 . S
C499 C494 1.379 . S
C499 N497 1.356 . S
N500 C492 1.356 . S
N500 H506 0.984 . S
N500 H507 0.984 . S
N501 C494 1.356 . S
N501 H504 0.984 . S
N501 H505 0.985 . S
H502 N497 0.984 . S
H503 N497 0.985 . S
H504 N501 0.984 . S
H505 N501 0.985 . S
H506 N500 0.984 . S
H507 N500 0.984 . S
H508 N496 0.984 . S
H509 N496 0.985 . S
C510 C511 1.363 . S
C510 C516 1.379 . S
C510 N518 1.356 . S
C511 C510 1.363 . S
C511 C517 1.363 . S
C512 C513 1.363 . S
C512 C517 1.379 . S
C512 N519 1.356 . S
C513 C512 1.363 . S
C513 C516 1.363 . S
N514 C516 1.356 . S
N514 H526 0.984 . S
N514 H527 0.985 . S
N515 C517 1.356 . S
N515 H520 0.984 . S
N515 H521 0.985 . S
C516 C510 1.379 . S
C516 C513 1.363 . S
C516 N514 1.356 . S
C517 C511 1.363 . S
C517 C512 1.379 . S
C517 N515 1.356 . S
N518 C510 1.356 . S
N518 H524 0.984 . S
N518 H525 0.984 . S
N519 C512 1.356 . S
N519 H522 0.984 . S
N519 H523 0.985 . S
H520 N515 0.984 . S
H521 N515 0.985 . S
H522 N519 0.984 . S
H523 N519 0.985 . S
H524 N518 0.984 . S
H525 N518 0.984 . S
H526 N514 0.984 . S
H527 N514 0.985 . S
C528 C529 1.363 . S
C528 C534 1.379 . S
C528 N536 1.356 . S
C529 C528 1.363 . S
C529 C535 1.363 . S
C530 C531 1.363 . S
C530 C535 1.379 . S
C530 N537 1.356 . S
C531 C530 1.363 . S
C531 C534 1.363 . S
N532 C534 1.356 . S
N532 H544 0.984 . S
N532 H545 0.985 1_554 S
N533 C535 1.356 1_655 S
N533 H538 0.984 . S
N533 H539 0.985 . S
C534 C528 1.379 . S
C534 C531 1.363 . S
C534 N532 1.356 . S
C535 C529 1.363 . S
C535 C530 1.379 . S
C535 N533 1.356 1_455 S
N536 C528 1.356 . S
N536 H542 0.984 . S
N536 H543 0.984 . S
N537 C530 1.356 . S
N537 H540 0.984 1_554 S
N537 H541 0.985 1_455 S
H538 N533 0.984 . S
H539 N533 0.985 . S
H540 N537 0.984 1_556 S
H541 N537 0.985 1_655 S
H542 N536 0.984 . S
H543 N536 0.984 . S
H544 N532 0.984 . S
H545 N532 0.985 1_556 S
C546 C547 1.363 1_565 S
C546 C552 1.379 . S
C546 N554 1.356 . S
C547 C546 1.363 1_545 S
C547 C553 1.363 . S
C548 C549 1.363 . S
C548 C553 1.379 . S
C548 N555 1.356 . S
C549 C548 1.363 . S
C549 C552 1.363 1_545 S
N550 C552 1.356 . S
N550 H562 0.984 . S
N550 H563 0.985 . S
N551 C553 1.356 . S
N551 H556 0.984 . S
N551 H557 0.985 . S
C552 C546 1.379 . S
C552 C549 1.363 1_565 S
C552 N550 1.356 . S
C553 C547 1.363 . S
C553 C548 1.379 . S
C553 N551 1.356 . S
N554 C546 1.356 . S
N554 H560 0.984 . S
N554 H561 0.984 . S
N555 C548 1.356 . S
N555 H558 0.984 . S
N555 H559 0.985 . S
H556 N551 0.984 . S
H557 N551 0.985 . S
H558 N555 0.984 . S
H559 N555 0.985 . S
H560 N554 0.984 . S
H561 N554 0.984 . S
H562 N550 0.984 . S
H563 N550 0.985 . S
C564 C565 1.363 . S
C564 C570 1.379 . S
C564 N572 1.356 . S
C565 C564 1.363 . S
C565 C571 1.363 . S
C566 C567 1.363 . S
C566 C571 1.379 . S
C566 N573 1.356 . S
C567 C566 1.363 . S
C567 C570 1.363 . S
N568 C570 1.356 . S
N568 H580 0.984 . S
N568 H581 0.985 . S
N569 C571 1.356 . S
N569 H574 0.984 . S
N569 H575 0.985 . S
C570 C564 1.379 . S
C570 C567 1.363 . S
C570 N568 1.356 . S
C571 C565 1.363 . S
C571 C566 1.379 . S
C571 N569 1.356 . S
N572 C564 1.356 . S
N572 H578 0.984 . S
N572 H579 0.984 . S
N573 C566 1.356 . S
N573 H576 0.984 . S
N573 H577 0.985 . S
H574 N569 0.984 . S
H575 N569 0.985 . S
H576 N573 0.984 . S
H577 N573 0.985 . S
H578 N572 0.984 . S
H579 N572 0.984 . S
H580 N568 0.984 . S
H581 N568 0.985 . S
C582 C583 1.363 1_565 S
C582 C588 1.379 . S
C582 N590 1.356 . S
C583 C582 1.363 1_545 S
C583 C589 1.363 . S
C584 C585 1.363 . S
C584 C589 1.379 . S
C584 N591 1.356 . S
C585 C584 1.363 . S
C585 C588 1.363 1_545 S
N586 C588 1.356 . S
N586 H598 0.984 . S
N586 H599 0.985 . S
N587 C589 1.356 . S
N587 H592 0.984 . S
N587 H593 0.985 . S
C588 C582 1.379 . S
C588 C585 1.363 1_565 S
C588 N586 1.356 . S
C589 C583 1.363 . S
C589 C584 1.379 . S
C589 N587 1.356 . S
N590 C582 1.356 . S
N590 H596 0.984 . S
N590 H597 0.984 . S
N591 C584 1.356 . S
N591 H594 0.984 . S
N591 H595 0.985 . S
H592 N587 0.984 . S
H593 N587 0.985 . S
H594 N591 0.984 . S
H595 N591 0.985 . S
H596 N590 0.984 . S
H597 N590 0.984 . S
H598 N586 0.984 . S
H599 N586 0.985 . S
C600 C601 1.363 . S
C600 C606 1.379 . S
C600 N608 1.356 . S
C601 C600 1.363 . S
C601 C607 1.363 . S
C602 C603 1.363 . S
C602 C607 1.379 . S
C602 N609 1.356 . S
C603 C602 1.363 . S
C603 C606 1.363 . S
N604 C606 1.356 . S
N604 H616 0.984 . S
N604 H617 0.985 1_556 S
N605 C607 1.356 . S
N605 H610 0.984 . S
N605 H611 0.985 . S
C606 C600 1.379 . S
C606 C603 1.363 . S
C606 N604 1.356 . S
C607 C601 1.363 . S
C607 C602 1.379 . S
C607 N605 1.356 . S
N608 C600 1.356 . S
N608 H614 0.984 . S
N608 H615 0.984 . S
N609 C602 1.356 . S
N609 H612 0.984 1_556 S
N609 H613 0.985 . S
H610 N605 0.984 . S
H611 N605 0.985 . S
H612 N609 0.984 1_554 S
H613 N609 0.985 . S
H614 N608 0.984 . S
H615 N608 0.984 . S
H616 N604 0.984 . S
H617 N604 0.985 1_554 S
C618 C619 1.363 1_655 S
C618 C624 1.379 . S
C618 N626 1.356 . S
C619 C618 1.363 1_455 S
C619 C625 1.363 . S
C620 C621 1.363 1_455 S
C620 C625 1.379 . S
C620 N627 1.356 . S
C621 C620 1.363 1_655 S
C621 C624 1.363 . S
N622 C624 1.356 . S
N622 H634 0.984 . S
N622 H635 0.985 . S
N623 C625 1.356 . S
N623 H628 0.984 . S
N623 H629 0.985 . S
C624 C618 1.379 . S
C624 C621 1.363 . S
C624 N622 1.356 . S
C625 C619 1.363 . S
C625 C620 1.379 . S
C625 N623 1.356 . S
N626 C618 1.356 . S
N626 H632 0.984 . S
N626 H633 0.984 . S
N627 C620 1.356 . S
N627 H630 0.984 . S
N627 H631 0.985 . S
H628 N623 0.984 . S
H629 N623 0.985 . S
H630 N627 0.984 . S
H631 N627 0.985 . S
H632 N626 0.984 . S
H633 N626 0.984 . S
H634 N622 0.984 . S
H635 N622 0.985 . S
C313 C19 1.953 . S
C315 C303 1.879 . S
C331 C46 1.388 . S
C333 C239 1.381 . S
C349 C95 0.737 . S
C351 C271 0.724 . S
C367 C10 2.061 . S
C369 C297 1.976 . S
C387 C233 1.387 . S
C385 C55 1.357 . S
C405 C265 0.910 . S
C403 C86 0.914 . S
C421 C59 3.138 . S
C423 C175 3.059 . S
C439 C90 2.077 . S
C441 C207 2.040 . S
C457 C15 1.361 . S
C459 C137 1.396 . S
C477 C169 3.020 . S
C475 C50 3.061 . S
C495 C201 1.930 . S
C493 C99 1.971 . S
C511 C6 1.311 . S
C513 C143 1.346 . S
C531 C213 1.345 1_554 S
C529 C9 1.325 . S
C547 C58 1.447 . S
C549 C149 1.476 . S
C565 C98 1.722 . S
C567 C181 1.766 . S
C585 C277 1.007 . S
C583 C49 1.046 . S
C603 C309 1.315 1_556 S
C601 C89 1.312 . S
C619 C18 1.433 . S
C621 C245 1.439 1_655 S
