# Generated by pormake.
# Topology hwx, (6,3)-cn, num edge types: 1
# Building blocks:
#     Node 0, Type 0, BuildingBlock: OJICUG_clean_sbu_0, # of connection points: 6
#     Node 1, Type 0, BuildingBlock: OJICUG_clean_sbu_0, # of connection points: 6
#     Node 2, Type 0, BuildingBlock: OJICUG_clean_sbu_0, # of connection points: 6
#     Node 3, Type 0, BuildingBlock: OJICUG_clean_sbu_0, # of connection points: 6
#     Node 4, Type 1, BuildingBlock: BETDAH_clean_linker_0, # of connection points: 3
#     Node 5, Type 1, BuildingBlock: BETDAH_clean_linker_0, # of connection points: 3
#     Node 6, Type 1, BuildingBlock: BETDAH_clean_linker_0, # of connection points: 3
#     Node 7, Type 1, BuildingBlock: BETDAH_clean_linker_0, # of connection points: 3
#     Node 8, Type 1, BuildingBlock: BETDAH_clean_linker_0, # of connection points: 3
#     Node 9, Type 1, BuildingBlock: BETDAH_clean_linker_0, # of connection points: 3
#     Node 10, Type 1, BuildingBlock: BETDAH_clean_linker_0, # of connection points: 3
#     Node 11, Type 1, BuildingBlock: BETDAH_clean_linker_0, # of connection points: 3
#     Edge 12, Type (0, 1), BuildingBlock: CIFDUS_clean_linker_0, # of connection points: 2
#     Edge 13, Type (0, 1), BuildingBlock: CIFDUS_clean_linker_0, # of connection points: 2
#     Edge 14, Type (0, 1), BuildingBlock: CIFDUS_clean_linker_0, # of connection points: 2
#     Edge 15, Type (0, 1), BuildingBlock: CIFDUS_clean_linker_0, # of connection points: 2
#     Edge 16, Type (0, 1), BuildingBlock: CIFDUS_clean_linker_0, # of connection points: 2
#     Edge 17, Type (0, 1), BuildingBlock: CIFDUS_clean_linker_0, # of connection points: 2
#     Edge 18, Type (0, 1), BuildingBlock: CIFDUS_clean_linker_0, # of connection points: 2
#     Edge 19, Type (0, 1), BuildingBlock: CIFDUS_clean_linker_0, # of connection points: 2
#     Edge 20, Type (0, 1), BuildingBlock: CIFDUS_clean_linker_0, # of connection points: 2
#     Edge 21, Type (0, 1), BuildingBlock: CIFDUS_clean_linker_0, # of connection points: 2
#     Edge 22, Type (0, 1), BuildingBlock: CIFDUS_clean_linker_0, # of connection points: 2
#     Edge 23, Type (0, 1), BuildingBlock: CIFDUS_clean_linker_0, # of connection points: 2
#     Edge 24, Type (0, 1), BuildingBlock: CIFDUS_clean_linker_0, # of connection points: 2
#     Edge 25, Type (0, 1), BuildingBlock: CIFDUS_clean_linker_0, # of connection points: 2
#     Edge 26, Type (0, 1), BuildingBlock: CIFDUS_clean_linker_0, # of connection points: 2
#     Edge 27, Type (0, 1), BuildingBlock: CIFDUS_clean_linker_0, # of connection points: 2
#     Edge 28, Type (0, 1), BuildingBlock: CIFDUS_clean_linker_0, # of connection points: 2
#     Edge 29, Type (0, 1), BuildingBlock: CIFDUS_clean_linker_0, # of connection points: 2
#     Edge 30, Type (0, 1), BuildingBlock: CIFDUS_clean_linker_0, # of connection points: 2
#     Edge 31, Type (0, 1), BuildingBlock: CIFDUS_clean_linker_0, # of connection points: 2
#     Edge 32, Type (0, 1), BuildingBlock: CIFDUS_clean_linker_0, # of connection points: 2
#     Edge 33, Type (0, 1), BuildingBlock: CIFDUS_clean_linker_0, # of connection points: 2
#     Edge 34, Type (0, 1), BuildingBlock: CIFDUS_clean_linker_0, # of connection points: 2
#     Edge 35, Type (0, 1), BuildingBlock: CIFDUS_clean_linker_0, # of connection points: 2
# Relax obj value: 0.008
# Max RMSD: 0.042
# Mean RMSD: 0.040
data_MOF--net-hwx--node1-OJICUG_clean_sbu_0--node2-BETDAH_clean_linker_0--edge1-CIFDUS_clean_linker_0
_symmetry_space_group_name_H-M    P1
_symmetry_Int_Tables_number       1
_symmetry_cell_setting            triclinic
loop_
_symmetry_equiv_pos_as_xyz
'x, y, z'
_cell_length_a     46.548748
_cell_length_b     46.333794
_cell_length_c     17.777894
_cell_angle_alpha  91.909067
_cell_angle_beta   91.96748
_cell_angle_gamma 90.031655
loop_
_atom_site_label
_atom_site_type_symbol
_atom_site_fract_x
_atom_site_fract_y
_atom_site_fract_z
_atom_type_partial_charge
Sc0 Sc 0.23828 0.23487 0.08736 0.0
Sc1 Sc 0.18965 0.18264 0.01019 0.0
Sc2 Sc 0.22199 0.23237 0.89286 0.0
O3 O 0.21669 0.21657 0.99677 0.0
C4 C 0.22253 0.29074 0.99442 0.0
C5 C 0.17571 0.22391 0.15104 0.0
C6 C 0.15511 0.21918 0.88657 0.0
C7 C 0.24096 0.16846 0.12792 0.0
C8 C 0.28612 0.23423 0.96169 0.0
C9 C 0.21901 0.16383 0.85881 0.0
O10 O 0.22778 0.27826 0.05598 0.0
O11 O 0.16801 0.20508 0.1005 0.0
O12 O 0.17634 0.23481 0.87039 0.0
O13 O 0.25133 0.19387 0.1303 0.0
O14 O 0.26835 0.2318 0.9057 0.0
O15 O 0.20865 0.15722 0.92115 0.0
O16 O 0.27822 0.23613 0.02953 0.0
O17 O 0.21841 0.16161 0.08906 0.0
O18 O 0.22339 0.1897 0.84015 0.0
O19 O 0.20054 0.2355 0.15428 0.0
O20 O 0.22066 0.27702 0.93134 0.0
O21 O 0.15718 0.19866 0.93225 0.0
Sc22 Sc 0.26958 0.72756 0.40362 0.0
Sc23 Sc 0.32388 0.68405 0.48558 0.0
Sc24 Sc 0.27797 0.72517 0.60016 0.0
O25 O 0.29047 0.71226 0.49641 0.0
C26 C 0.27493 0.78412 0.51223 0.0
C27 C 0.33612 0.72924 0.36065 0.0
C28 C 0.34569 0.72139 0.63 0.0
C29 C 0.28145 0.66296 0.34902 0.0
C30 C 0.21721 0.71957 0.5112 0.0
C31 C 0.28704 0.6569 0.6131 0.0
O32 O 0.27203 0.77183 0.44718 0.0
O33 O 0.34556 0.7121 0.41037 0.0
O34 O 0.32133 0.73232 0.6434 0.0
O35 O 0.26519 0.68503 0.34982 0.0
O36 O 0.23304 0.71999 0.57084 0.0
O37 O 0.30431 0.65385 0.55932 0.0
O38 O 0.22715 0.72232 0.4462 0.0
O39 O 0.30363 0.66089 0.39194 0.0
O40 O 0.27705 0.68119 0.63517 0.0
O41 O 0.30954 0.7349 0.35074 0.0
O42 O 0.27717 0.77003 0.57238 0.0
O43 O 0.34948 0.70283 0.57735 0.0
Sc44 Sc 0.76152 0.77303 0.96345 0.0
Sc45 Sc 0.81478 0.81547 0.06225 0.0
Sc46 Sc 0.76573 0.77453 0.16133 0.0
O47 O 0.7807 0.7877 0.06221 0.0
C48 C 0.7071 0.78243 0.0664 0.0
C49 C 0.77325 0.83946 0.93168 0.0
C50 C 0.77911 0.84117 0.19882 0.0
C51 C 0.8279 0.77324 0.9225 0.0
C52 C 0.76298 0.71603 0.06018 0.0
C53 C 0.8339 0.77382 0.19372 0.0
O54 O 0.71851 0.77965 0.00262 0.0
O55 O 0.79395 0.84229 0.98001 0.0
O56 O 0.76548 0.81792 0.20897 0.0
O57 O 0.80204 0.76488 0.91119 0.0
O58 O 0.76406 0.72994 0.12315 0.0
O59 O 0.83975 0.79159 0.1435 0.0
O60 O 0.7621 0.72849 0.99734 0.0
O61 O 0.83553 0.79104 0.9753 0.0
O62 O 0.80833 0.76617 0.20653 0.0
O63 O 0.75922 0.81604 0.92013 0.0
O64 O 0.72155 0.78112 0.12804 0.0
O65 O 0.79807 0.84346 0.14964 0.0
Sc66 Sc 0.72834 0.26246 0.5984 0.0
Sc67 Sc 0.69296 0.31698 0.49754 0.0
Sc68 Sc 0.72957 0.26116 0.40127 0.0
O69 O 0.71704 0.28029 0.499 0.0
C70 C 0.78588 0.25581 0.50918 0.0
C71 C 0.73387 0.3304 0.64013 0.0
C72 C 0.73744 0.32792 0.3681 0.0
C73 C 0.663 0.27977 0.62123 0.0
C74 C 0.71574 0.20577 0.49379 0.0
C75 C 0.66534 0.28056 0.3591 0.0
O76 O 0.77334 0.26078 0.57086 0.0
O77 O 0.71955 0.33898 0.58303 0.0
O78 O 0.74437 0.30147 0.35951 0.0
O79 O 0.68402 0.26262 0.63213 0.0
O80 O 0.71596 0.21875 0.43194 0.0
O81 O 0.66327 0.29898 0.41309 0.0
O82 O 0.72135 0.21859 0.55694 0.0
O83 O 0.66437 0.30142 0.57941 0.0
O84 O 0.68816 0.26645 0.3463 0.0
O85 O 0.73714 0.3038 0.65373 0.0
O86 O 0.77247 0.25382 0.44562 0.0
O87 O 0.71865 0.33653 0.41403 0.0
H88 H 0.26322 0.57352 0.96547 0.0
H89 H 0.19933 0.52194 0.06723 0.0
H90 H 0.22124 0.50437 0.83699 0.0
C91 C 0.24869 0.55515 0.9626 0.0
C92 C 0.24459 0.53943 0.89444 0.0
C93 C 0.23235 0.54919 0.02496 0.0
C94 C 0.21232 0.52654 0.0196 0.0
C95 C 0.20922 0.50955 0.95305 0.0
C96 C 0.22502 0.51629 0.88989 0.0
N97 N 0.18842 0.48724 0.94864 0.0
C98 C 0.19604 0.45841 0.93931 0.0
H99 H 0.91828 0.75467 0.55266 0.0
H100 H 0.00213 0.75471 0.45759 0.0
H101 H 0.99383 0.75943 0.69774 0.0
C102 C 0.94149 0.75404 0.56006 0.0
C103 C 0.95383 0.75621 0.63297 0.0
C104 C 0.95857 0.75328 0.49633 0.0
C105 C 0.98872 0.75454 0.50618 0.0
C106 C 0.00127 0.75672 0.57941 0.0
C107 C 0.9838 0.75757 0.64185 0.0
N108 N 0.0312 0.76023 0.59337 0.0
C109 C 0.05263 0.75025 0.54694 0.0
H110 H 0.75556 0.41734 0.01244 0.0
H111 H 0.78498 0.4929 0.9035 0.0
H112 H 0.78909 0.48956 0.14545 0.0
C113 C 0.76449 0.439 0.01596 0.0
C114 C 0.77137 0.45175 0.08672 0.0
C115 C 0.76945 0.45342 0.94957 0.0
C116 C 0.78031 0.48177 0.95433 0.0
C117 C 0.78722 0.49487 0.02526 0.0
C118 C 0.78278 0.47978 0.09113 0.0
N119 N 0.80269 0.52117 0.03085 0.0
C120 C 0.79055 0.54766 0.01413 0.0
H121 H 0.08058 0.24218 0.52293 0.0
H122 H 0.00193 0.27771 0.60546 0.0
H123 H 0.01489 0.27105 0.36692 0.0
C124 C 0.05936 0.25107 0.51177 0.0
C125 C 0.04976 0.25522 0.43735 0.0
C126 C 0.04235 0.25921 0.57239 0.0
C127 C 0.01488 0.27078 0.55871 0.0
C128 C 0.00483 0.27461 0.48413 0.0
C129 C 0.02243 0.26713 0.42404 0.0
N130 N 0.9781 0.28798 0.46779 0.0
C131 C 0.95294 0.28185 0.50398 0.0
H132 H 0.73899 0.92058 0.56241 0.0
H133 H 0.6945 0.98814 0.44588 0.0
H134 H 0.68759 0.98165 0.68542 0.0
C135 C 0.72605 0.94006 0.56371 0.0
C136 C 0.71487 0.94996 0.63195 0.0
C137 C 0.71846 0.95334 0.49621 0.0
C138 C 0.70084 0.97794 0.49784 0.0
C139 C 0.6904 0.98865 0.56652 0.0
C140 C 0.69677 0.97414 0.63308 0.0
N141 N 0.67146 0.01249 0.56818 0.0
C142 C 0.68124 0.04048 0.55982 0.0
H143 H 0.57931 0.22628 0.9446 0.0
H144 H 0.52011 0.27701 0.07409 0.0
H145 H 0.49998 0.25506 0.84242 0.0
C146 C 0.55857 0.23664 0.94987 0.0
C147 C 0.54076 0.23914 0.88538 0.0
C148 C 0.55239 0.25165 0.01718 0.0
C149 C 0.52536 0.26484 0.02333 0.0
C150 C 0.50561 0.26422 0.96182 0.0
C151 C 0.5137 0.25221 0.8921 0.0
N152 N 0.4799 0.28024 0.967 0.0
C153 C 0.45318 0.26697 0.96758 0.0
H154 H 0.2573 0.08179 0.48349 0.0
H155 H 0.2881 0.00965 0.60996 0.0
H156 H 0.29456 0.00868 0.36915 0.0
C157 C 0.2664 0.06029 0.48573 0.0
C158 C 0.27468 0.04656 0.41856 0.0
C159 C 0.27051 0.04716 0.55535 0.0
C160 C 0.28387 0.01993 0.55689 0.0
C161 C 0.29224 0.00594 0.48981 0.0
C162 C 0.28732 0.01912 0.42055 0.0
N163 N 0.3092 0.98069 0.49338 0.0
C164 C 0.29771 0.95316 0.48237 0.0
H165 H 0.42388 0.75845 0.00369 0.0
H166 H 0.48635 0.81206 0.90313 0.0
H167 H 0.48726 0.80397 0.14377 0.0
C168 C 0.44288 0.77205 0.0093 0.0
C169 C 0.45446 0.77939 0.08114 0.0
C170 C 0.45418 0.7837 0.94503 0.0
C171 C 0.47794 0.8023 0.95239 0.0
C172 C 0.49034 0.80895 0.024 0.0
C173 C 0.47851 0.79762 0.08839 0.0
N174 N 0.51306 0.82912 0.03202 0.0
C175 C 0.54127 0.82062 0.02248 0.0
H176 H 0.11813 0.21194 0.1537 0.0
H177 H 0.187 0.25589 0.28026 0.0
H178 H 0.15399 0.26993 0.37802 0.0
H179 H 0.10595 0.26925 0.42913 0.0
H180 H 0.03663 0.22579 0.3044 0.0
H181 H 0.06934 0.21242 0.20388 0.0
C182 C 0.12594 0.22457 0.20267 0.0
C183 C 0.15512 0.23268 0.2095 0.0
C184 C 0.10675 0.23277 0.25894 0.0
C185 C 0.16473 0.24929 0.27318 0.0
C186 C 0.14585 0.25735 0.32935 0.0
C187 C 0.09804 0.25671 0.38009 0.0
C188 C 0.06902 0.24826 0.37447 0.0
C189 C 0.11691 0.24909 0.323 0.0
C190 C 0.05889 0.23261 0.30985 0.0
C191 C 0.07761 0.22485 0.25265 0.0
H192 H 0.31659 0.61347 0.68135 0.0
H193 H 0.2313 0.6434 0.62318 0.0
H194 H 0.21028 0.60468 0.69328 0.0
H195 H 0.21617 0.567 0.78552 0.0
H196 H 0.30103 0.54068 0.85789 0.0
H197 H 0.32235 0.57252 0.76717 0.0
C198 C 0.29345 0.611 0.68307 0.0
C199 C 0.27543 0.63113 0.64769 0.0
C200 C 0.2815 0.5893 0.72615 0.0
C201 C 0.24548 0.62814 0.65064 0.0
C202 C 0.23347 0.60603 0.69059 0.0
C203 C 0.23928 0.5675 0.77915 0.0
C204 C 0.25707 0.55127 0.82679 0.0
C205 C 0.25125 0.58706 0.73043 0.0
C206 C 0.28702 0.55268 0.82041 0.0
C207 C 0.29915 0.57113 0.76932 0.0
H208 H 0.88893 0.79425 0.2127 0.0
H209 H 0.83222 0.72708 0.28249 0.0
H210 H 0.86882 0.71115 0.37292 0.0
H211 H 0.91404 0.72018 0.44344 0.0
H212 H 0.96944 0.78949 0.38202 0.0
H213 H 0.9369 0.79989 0.27514 0.0
C214 C 0.88473 0.77586 0.24689 0.0
C215 C 0.85761 0.76225 0.24168 0.0
C216 C 0.90574 0.7671 0.30015 0.0
C217 C 0.85265 0.73833 0.28619 0.0
C218 C 0.87363 0.7291 0.33781 0.0
C219 C 0.91925 0.73721 0.40567 0.0
C220 C 0.94385 0.75429 0.42107 0.0
C221 C 0.89982 0.7439 0.34693 0.0
C222 C 0.95067 0.77597 0.3712 0.0
C223 C 0.93185 0.78217 0.31073 0.0
H224 H 0.72204 0.38832 0.65443 0.0
H225 H 0.77507 0.32108 0.74872 0.0
H226 H 0.79349 0.35472 0.84659 0.0
H227 H 0.79131 0.40153 0.91255 0.0
H228 H 0.73715 0.46877 0.82493 0.0
H229 H 0.723 0.43717 0.71603 0.0
C230 C 0.73788 0.38113 0.69587 0.0
C231 C 0.7468 0.35203 0.69469 0.0
C232 C 0.7482 0.4006 0.75311 0.0
C233 C 0.76743 0.34316 0.74876 0.0
C234 C 0.77809 0.36242 0.80475 0.0
C235 C 0.77666 0.40937 0.86901 0.0
C236 C 0.76497 0.43721 0.87685 0.0
C237 C 0.76811 0.39091 0.80849 0.0
C238 C 0.7464 0.44738 0.81982 0.0
C239 C 0.73814 0.42922 0.75811 0.0
H240 H 0.66689 0.27489 0.20925 0.0
H241 H 0.60852 0.27636 0.39211 0.0
H242 H 0.56789 0.26664 0.30287 0.0
H243 H 0.54952 0.25671 0.17186 0.0
H244 H 0.60882 0.2617 0.99059 0.0
H245 H 0.64842 0.26933 0.0802 0.0
C246 C 0.64525 0.27302 0.22945 0.0
C247 C 0.64057 0.27595 0.30662 0.0
C248 C 0.62219 0.26824 0.17813 0.0
C249 C 0.61247 0.27412 0.33249 0.0
C250 C 0.58933 0.2685 0.28162 0.0
C251 C 0.57105 0.25961 0.15198 0.0
C252 C 0.57607 0.25735 0.07431 0.0
C253 C 0.59397 0.2654 0.20409 0.0
C254 C 0.60422 0.26169 0.04987 0.0
C255 C 0.62702 0.26655 0.10109 0.0
H256 H 0.25992 0.12188 0.85799 0.0
H257 H 0.18714 0.15489 0.73176 0.0
H258 H 0.19439 0.11875 0.63078 0.0
H259 H 0.22302 0.08016 0.57528 0.0
H260 H 0.29933 0.05031 0.69344 0.0
H261 H 0.28858 0.08189 0.80183 0.0
C262 C 0.24562 0.12082 0.80849 0.0
C263 C 0.22308 0.1408 0.80157 0.0
C264 C 0.25048 0.10051 0.74961 0.0
C265 C 0.20467 0.13964 0.7375 0.0
C266 C 0.20879 0.11902 0.68004 0.0
C267 C 0.23746 0.08059 0.62451 0.0
C268 C 0.26219 0.06313 0.62546 0.0
C269 C 0.23192 0.09973 0.68489 0.0
C270 C 0.28004 0.06335 0.691 0.0
C271 C 0.27408 0.08167 0.75279 0.0
H272 H 0.39449 0.72083 0.35004 0.0
H273 H 0.32324 0.77002 0.25861 0.0
H274 H 0.35441 0.79144 0.16965 0.0
H275 H 0.40064 0.79401 0.11102 0.0
H276 H 0.47265 0.74555 0.19749 0.0
H277 H 0.44267 0.72645 0.296 0.0
C278 C 0.38586 0.73638 0.31103 0.0
C279 C 0.35637 0.74336 0.31066 0.0
C280 C 0.40402 0.7488 0.25911 0.0
C281 C 0.34567 0.76379 0.25994 0.0
C282 C 0.3635 0.77621 0.20887 0.0
C283 C 0.40979 0.77949 0.15211 0.0
C284 C 0.43852 0.77091 0.14723 0.0
C285 C 0.39248 0.7685 0.20708 0.0
C286 C 0.45046 0.75238 0.20072 0.0
C287 C 0.43329 0.74137 0.25646 0.0
H288 H 0.72057 0.85569 0.87762 0.0
H289 H 0.81045 0.87845 0.87873 0.0
H290 H 0.80004 0.91658 0.79013 0.0
H291 H 0.76583 0.94078 0.7043 0.0
H292 H 0.67573 0.91992 0.70747 0.0
H293 H 0.68556 0.88402 0.80327 0.0
C294 C 0.73778 0.86919 0.8588 0.0
C295 C 0.76625 0.8641 0.88379 0.0
C296 C 0.73157 0.89143 0.80889 0.0
C297 C 0.78836 0.88198 0.86013 0.0
C298 C 0.78245 0.90373 0.80935 0.0
C299 C 0.74838 0.92876 0.72743 0.0
C300 C 0.72016 0.93283 0.69951 0.0
C301 C 0.75422 0.90831 0.7824 0.0
C302 C 0.69758 0.91721 0.7291 0.0
C303 C 0.70323 0.89655 0.78322 0.0
H304 H 0.88248 0.79326 0.91427 0.0
H305 H 0.82278 0.73135 0.81006 0.0
H306 H 0.85771 0.71876 0.71495 0.0
H307 H 0.90386 0.72771 0.65681 0.0
H308 H 0.96173 0.79216 0.75708 0.0
H309 H 0.92907 0.80076 0.85948 0.0
C310 C 0.87711 0.77677 0.87132 0.0
C311 C 0.8499 0.76345 0.86911 0.0
C312 C 0.89701 0.77004 0.8161 0.0
C313 C 0.84345 0.74212 0.81288 0.0
C314 C 0.86342 0.73492 0.75843 0.0
C315 C 0.90932 0.74366 0.70104 0.0
C316 C 0.93519 0.75933 0.69892 0.0
C317 C 0.89002 0.74917 0.75865 0.0
C318 C 0.94219 0.77949 0.75758 0.0
C319 C 0.92337 0.78465 0.81588 0.0
H320 H 0.72781 0.3862 0.36528 0.0
H321 H 0.77664 0.31766 0.25951 0.0
H322 H 0.79387 0.35106 0.16845 0.0
H323 H 0.79147 0.39826 0.1111 0.0
H324 H 0.74229 0.4669 0.21327 0.0
H325 H 0.72926 0.43509 0.31449 0.0
C326 C 0.74246 0.37859 0.32286 0.0
C327 C 0.75049 0.34924 0.31883 0.0
C328 C 0.7522 0.39792 0.26993 0.0
C329 C 0.76978 0.33997 0.2638 0.0
C330 C 0.77968 0.35907 0.2115 0.0
C331 C 0.77817 0.40631 0.15614 0.0
C332 C 0.76752 0.43466 0.15457 0.0
C333 C 0.77046 0.38784 0.2129 0.0
C334 C 0.75071 0.44511 0.21357 0.0
C335 C 0.7431 0.42686 0.27095 0.0
H336 H 0.13259 0.26941 0.83693 0.0
H337 H 0.11623 0.17785 0.84071 0.0
H338 H 0.07576 0.18286 0.7509 0.0
H339 H 0.05017 0.21221 0.65658 0.0
H340 H 0.06597 0.30372 0.6543 0.0
H341 H 0.10108 0.30006 0.75931 0.0
C342 C 0.11978 0.25069 0.81911 0.0
C343 C 0.12761 0.22326 0.84431 0.0
C344 C 0.09647 0.25375 0.76772 0.0
C345 C 0.11064 0.19919 0.82188 0.0
C346 C 0.08758 0.20201 0.77024 0.0
C347 C 0.06054 0.23142 0.68133 0.0
C348 C 0.05555 0.2582 0.64872 0.0
C349 C 0.08095 0.22902 0.74083 0.0
C350 C 0.06931 0.283 0.67972 0.0
C351 C 0.08961 0.28083 0.73898 0.0
H352 H 0.22995 0.64643 0.28138 0.0
H353 H 0.32039 0.62558 0.29197 0.0
H354 H 0.31272 0.58717 0.19697 0.0
H355 H 0.28108 0.56113 0.10557 0.0
H356 H 0.19051 0.58012 0.0951 0.0
H357 H 0.19727 0.61719 0.19606 0.0
C358 C 0.24789 0.6334 0.2629 0.0
C359 C 0.27571 0.63904 0.29333 0.0
C360 C 0.24331 0.6109 0.20858 0.0
C361 C 0.29874 0.62172 0.26963 0.0
C362 C 0.29442 0.59973 0.21515 0.0
C363 C 0.26282 0.57318 0.12628 0.0
C364 C 0.23542 0.56812 0.09328 0.0
C365 C 0.26691 0.59435 0.18371 0.0
C366 C 0.21179 0.58361 0.1204 0.0
C367 C 0.2157 0.60494 0.17752 0.0
H368 H 0.35884 0.77467 0.68926 0.0
H369 H 0.38822 0.68642 0.68123 0.0
H370 H 0.42717 0.69867 0.77252 0.0
H371 H 0.44976 0.73357 0.86399 0.0
H372 H 0.42192 0.82218 0.86843 0.0
H373 H 0.38585 0.81103 0.76792 0.0
C374 C 0.37397 0.75826 0.70721 0.0
C375 C 0.37051 0.72964 0.6798 0.0
C376 C 0.39663 0.76559 0.75851 0.0
C377 C 0.39046 0.70858 0.70204 0.0
C378 C 0.41269 0.71555 0.7542 0.0
C379 C 0.43633 0.7505 0.84106 0.0
C380 C 0.4384 0.77861 0.8726 0.0
C381 C 0.41563 0.74385 0.78389 0.0
C382 C 0.42081 0.80049 0.84375 0.0
C383 C 0.40002 0.79403 0.78711 0.0
H384 H 0.72706 0.86393 0.2268 0.0
H385 H 0.81753 0.87488 0.27942 0.0
H386 H 0.80703 0.91359 0.37176 0.0
H387 H 0.77154 0.9406 0.44651 0.0
H388 H 0.68128 0.93138 0.38884 0.0
H389 H 0.69213 0.89624 0.28797 0.0
C390 C 0.7444 0.8751 0.25804 0.0
C391 C 0.77293 0.86647 0.24773 0.0
C392 C 0.73821 0.89767 0.30958 0.0
C393 C 0.79539 0.88123 0.2871 0.0
C394 C 0.78939 0.90328 0.33981 0.0
C395 C 0.75441 0.93143 0.41028 0.0
C396 C 0.7257 0.93842 0.42465 0.0
C397 C 0.76084 0.91123 0.35269 0.0
C398 C 0.70354 0.92647 0.37797 0.0
C399 C 0.70972 0.90615 0.32099 0.0
H400 H 0.64323 0.22919 0.67559 0.0
H401 H 0.62015 0.31847 0.64588 0.0
H402 H 0.57534 0.31111 0.70914 0.0
H403 H 0.54632 0.28154 0.78835 0.0
H404 H 0.56976 0.19302 0.82422 0.0
H405 H 0.61002 0.19742 0.7402 0.0
C406 C 0.62835 0.24699 0.68283 0.0
C407 C 0.6354 0.27449 0.65752 0.0
C408 C 0.6024 0.24262 0.71923 0.0
C409 C 0.61551 0.29715 0.66562 0.0
C410 C 0.58976 0.29296 0.70152 0.0
C411 C 0.55939 0.2628 0.77491 0.0
C412 C 0.55515 0.23702 0.81242 0.0
C413 C 0.58333 0.26601 0.73016 0.0
C414 C 0.57255 0.21303 0.79547 0.0
C415 C 0.5959 0.21574 0.74869 0.0
H416 H 0.22751 0.11106 0.13554 0.0
H417 H 0.28512 0.1767 0.23158 0.0
H418 H 0.30322 0.14314 0.32414 0.0
H419 H 0.29883 0.09721 0.38713 0.0
H420 H 0.24133 0.03144 0.29413 0.0
H421 H 0.22739 0.06275 0.19022 0.0
C422 C 0.24427 0.11795 0.17609 0.0
C423 C 0.25452 0.14662 0.1771 0.0
C424 C 0.25458 0.09851 0.22983 0.0
C425 C 0.27655 0.15494 0.22961 0.0
C426 C 0.28694 0.13575 0.28282 0.0
C427 C 0.28372 0.08958 0.34303 0.0
C428 C 0.27097 0.06227 0.34791 0.0
C429 C 0.27556 0.10781 0.28473 0.0
C430 C 0.25147 0.05239 0.29087 0.0
C431 C 0.24334 0.07039 0.23206 0.0
H432 H 0.2151 0.32605 0.8751 0.0
H433 H 0.22096 0.32734 0.1183 0.0
H434 H 0.21413 0.37951 0.12215 0.0
H435 H 0.20562 0.42493 0.05679 0.0
H436 H 0.1996 0.42397 0.81453 0.0
H437 H 0.20749 0.37154 0.80973 0.0
C438 C 0.2149 0.33768 0.92903 0.0
C439 C 0.21849 0.3226 0.99629 0.0
C440 C 0.211 0.36779 0.93096 0.0
C441 C 0.21825 0.33822 0.06554 0.0
C442 C 0.21434 0.36813 0.0679 0.0
C443 C 0.20625 0.41312 0.00311 0.0
C444 C 0.2022 0.42791 0.93607 0.0
C445 C 0.21063 0.38311 0.00107 0.0
C446 C 0.20284 0.41276 0.86666 0.0
C447 C 0.20726 0.38287 0.86403 0.0
H448 H 0.17493 0.73946 0.41647 0.0
H449 H 0.189 0.69533 0.62464 0.0
H450 H 0.13773 0.69752 0.64801 0.0
H451 H 0.09005 0.71696 0.61721 0.0
H452 H 0.07584 0.76412 0.4148 0.0
H453 H 0.12589 0.75547 0.38019 0.0
C454 C 0.16666 0.72986 0.46619 0.0
C455 C 0.18577 0.71751 0.51914 0.0
C456 C 0.13718 0.73187 0.48031 0.0
C457 C 0.17479 0.70529 0.58353 0.0
C458 C 0.14548 0.7065 0.59692 0.0
C459 C 0.09785 0.72467 0.56462 0.0
C460 C 0.07966 0.74085 0.51804 0.0
C461 C 0.12666 0.72045 0.54688 0.0
C462 C 0.0897 0.75131 0.45075 0.0
C463 C 0.11827 0.74654 0.43145 0.0
H464 H 0.77019 0.67764 0.94145 0.0
H465 H 0.7579 0.68202 0.18141 0.0
H466 H 0.76298 0.62988 0.18653 0.0
H467 H 0.77423 0.58321 0.12513 0.0
H468 H 0.788 0.57818 0.8869 0.0
H469 H 0.77876 0.63022 0.87847 0.0
C470 C 0.76833 0.66719 0.99474 0.0
C471 C 0.76387 0.68394 0.06099 0.0
C472 C 0.77157 0.63701 0.99762 0.0
C473 C 0.76155 0.66987 0.12951 0.0
C474 C 0.76443 0.63996 0.13263 0.0
C475 C 0.7747 0.59355 0.07128 0.0
C476 C 0.7815 0.57723 0.00661 0.0
C477 C 0.7699 0.62339 0.06739 0.0
C478 C 0.7825 0.59056 0.93715 0.0
C479 C 0.77738 0.62026 0.93251 0.0
H480 H 0.82549 0.28216 0.60592 0.0
H481 H 0.81735 0.2243 0.41098 0.0
H482 H 0.86927 0.22485 0.39786 0.0
H483 H 0.91638 0.2456 0.43322 0.0
H484 H 0.92519 0.30562 0.62259 0.0
H485 H 0.87381 0.30033 0.64727 0.0
C486 C 0.8352 0.26927 0.56155 0.0
C487 C 0.81758 0.25336 0.50921 0.0
C488 C 0.86516 0.27027 0.55308 0.0
C489 C 0.83041 0.23695 0.45153 0.0
C490 C 0.8601 0.23724 0.44393 0.0
C491 C 0.90704 0.25702 0.48075 0.0
C492 C 0.92417 0.27578 0.52644 0.0
C493 C 0.87758 0.25439 0.49306 0.0
C494 C 0.91215 0.29088 0.58727 0.0
C495 C 0.88284 0.28795 0.601 0.0
H496 H 0.71967 0.1693 0.61079 0.0
H497 H 0.69605 0.17154 0.37399 0.0
H498 H 0.68396 0.12022 0.3728 0.0
H499 H 0.67915 0.07458 0.43995 0.0
H500 H 0.70297 0.07268 0.67597 0.0
H501 H 0.71604 0.12393 0.67664 0.0
C502 C 0.71187 0.15865 0.55879 0.0
C503 C 0.7087 0.17444 0.49266 0.0
C504 C 0.70505 0.12911 0.55839 0.0
C505 C 0.69873 0.16004 0.42581 0.0
C506 C 0.69178 0.13064 0.42503 0.0
C507 C 0.6874 0.0855 0.49116 0.0
C508 C 0.69026 0.07023 0.55781 0.0
C509 C 0.69476 0.11497 0.49101 0.0
C510 C 0.70077 0.08426 0.62411 0.0
C511 C 0.70815 0.1135 0.62449 0.0
H512 H 0.33071 0.23191 0.06441 0.0
H513 H 0.3118 0.24219 0.82729 0.0
H514 H 0.36259 0.25124 0.80687 0.0
H515 H 0.41203 0.26007 0.85838 0.0
H516 H 0.4304 0.25024 0.09522 0.0
H517 H 0.38022 0.23707 0.11388 0.0
C518 C 0.33764 0.23592 0.00807 0.0
C519 C 0.3173 0.23667 0.94769 0.0
C520 C 0.36683 0.24129 0.99678 0.0
C521 C 0.32688 0.24156 0.87496 0.0
C522 C 0.35595 0.24684 0.86321 0.0
C523 C 0.40496 0.25459 0.91367 0.0
C524 C 0.42451 0.25598 0.97549 0.0
C525 C 0.37604 0.24731 0.92391 0.0
C526 C 0.41547 0.24911 0.04705 0.0
C527 C 0.38685 0.24171 0.05768 0.0
H528 H 0.27297 0.82282 0.39875 0.0
H529 H 0.28124 0.81782 0.64087 0.0
H530 H 0.28714 0.86995 0.65275 0.0
H531 H 0.29257 0.91696 0.59465 0.0
H532 H 0.28522 0.92251 0.35356 0.0
H533 H 0.27611 0.87031 0.34088 0.0
C534 C 0.27586 0.8331 0.45418 0.0
C535 C 0.27679 0.81618 0.51869 0.0
C536 C 0.27941 0.86327 0.46083 0.0
C537 C 0.28052 0.83008 0.59003 0.0
C538 C 0.28391 0.85999 0.59706 0.0
C539 C 0.28856 0.90667 0.53955 0.0
C540 C 0.28933 0.9232 0.4751 0.0
C541 C 0.28373 0.87675 0.53292 0.0
C542 C 0.28447 0.90995 0.4038 0.0
C543 C 0.27941 0.88018 0.39665 0.0
H544 H 0.66887 0.79126 0.94911 0.0
H545 H 0.6747 0.78639 0.19154 0.0
H546 H 0.6237 0.79712 0.19865 0.0
H547 H 0.57741 0.80903 0.1368 0.0
H548 H 0.5711 0.81449 0.89555 0.0
H549 H 0.62227 0.80231 0.88694 0.0
C550 C 0.659 0.7924 0.0035 0.0
C551 C 0.67577 0.78803 0.06962 0.0
C552 C 0.62955 0.79873 0.00741 0.0
C553 C 0.66248 0.78969 0.1396 0.0
C554 C 0.63325 0.79584 0.14387 0.0
C555 C 0.58736 0.80739 0.0825 0.0
C556 C 0.57097 0.81252 0.01687 0.0
C557 C 0.61663 0.80056 0.0783 0.0
C558 C 0.58366 0.81051 0.94661 0.0
C559 C 0.6128 0.8036 0.94181 0.0
loop_
_geom_bond_atom_site_label_1
_geom_bond_atom_site_label_2
_geom_bond_distance
_geom_bond_site_symmetry_2
_ccdc_geom_bond_type
Sc0 O3 2.025 . S
Sc0 O10 2.105 . S
Sc0 O13 2.105 . S
Sc0 O16 2.105 . S
Sc0 O19 2.105 . S
Sc1 O3 2.025 . S
Sc1 O11 2.105 . S
Sc1 O15 2.105 1_554 S
Sc1 O17 2.105 . S
Sc1 O21 2.105 1_554 S
Sc2 O3 2.025 1_556 S
Sc2 O12 2.105 . S
Sc2 O14 2.105 . S
Sc2 O18 2.105 . S
Sc2 O20 2.105 . S
O3 Sc0 2.025 . S
O3 Sc1 2.025 . S
O3 Sc2 2.025 1_554 S
C4 O10 1.268 . S
C4 O20 1.268 1_554 S
C5 O11 1.268 . S
C5 O19 1.268 . S
C6 O12 1.268 . S
C6 O21 1.268 . S
C7 O13 1.268 . S
C7 O17 1.268 . S
C8 O14 1.268 1_554 S
C8 O16 1.268 . S
C9 O15 1.268 . S
C9 O18 1.268 . S
O10 Sc0 2.105 . S
O10 C4 1.268 . S
O11 Sc1 2.105 . S
O11 C5 1.268 . S
O12 Sc2 2.105 . S
O12 C6 1.268 . S
O13 Sc0 2.105 . S
O13 C7 1.268 . S
O14 Sc2 2.105 . S
O14 C8 1.268 1_556 S
O15 Sc1 2.105 1_556 S
O15 C9 1.268 . S
O16 Sc0 2.105 . S
O16 C8 1.268 . S
O17 Sc1 2.105 . S
O17 C7 1.268 . S
O18 Sc2 2.105 . S
O18 C9 1.268 . S
O19 Sc0 2.105 . S
O19 C5 1.268 . S
O20 Sc2 2.105 . S
O20 C4 1.268 1_556 S
O21 Sc1 2.105 1_556 S
O21 C6 1.268 . S
Sc22 O25 2.025 . S
Sc22 O32 2.105 . S
Sc22 O35 2.105 . S
Sc22 O38 2.105 . S
Sc22 O41 2.105 . S
Sc23 O25 2.025 . S
Sc23 O33 2.105 . S
Sc23 O37 2.105 . S
Sc23 O39 2.105 . S
Sc23 O43 2.105 . S
Sc24 O25 2.025 . S
Sc24 O34 2.105 . S
Sc24 O36 2.105 . S
Sc24 O40 2.105 . S
Sc24 O42 2.105 . S
O25 Sc22 2.025 . S
O25 Sc23 2.025 . S
O25 Sc24 2.025 . S
C26 O32 1.268 . S
C26 O42 1.268 . S
C27 O33 1.268 . S
C27 O41 1.268 . S
C28 O34 1.268 . S
C28 O43 1.268 . S
C29 O35 1.268 . S
C29 O39 1.268 . S
C30 O36 1.268 . S
C30 O38 1.268 . S
C31 O37 1.268 . S
C31 O40 1.268 . S
O32 Sc22 2.105 . S
O32 C26 1.268 . S
O33 Sc23 2.105 . S
O33 C27 1.268 . S
O34 Sc24 2.105 . S
O34 C28 1.268 . S
O35 Sc22 2.105 . S
O35 C29 1.268 . S
O36 Sc24 2.105 . S
O36 C30 1.268 . S
O37 Sc23 2.105 . S
O37 C31 1.268 . S
O38 Sc22 2.105 . S
O38 C30 1.268 . S
O39 Sc23 2.105 . S
O39 C29 1.268 . S
O40 Sc24 2.105 . S
O40 C31 1.268 . S
O41 Sc22 2.105 . S
O41 C27 1.268 . S
O42 Sc24 2.105 . S
O42 C26 1.268 . S
O43 Sc23 2.105 . S
O43 C28 1.268 . S
Sc44 O47 2.025 1_556 S
Sc44 O54 2.105 . S
Sc44 O57 2.105 . S
Sc44 O60 2.105 . S
Sc44 O63 2.105 . S
Sc45 O47 2.025 . S
Sc45 O55 2.105 1_554 S
Sc45 O59 2.105 . S
Sc45 O61 2.105 1_554 S
Sc45 O65 2.105 . S
Sc46 O47 2.025 . S
Sc46 O56 2.105 . S
Sc46 O58 2.105 . S
Sc46 O62 2.105 . S
Sc46 O64 2.105 . S
O47 Sc44 2.025 1_554 S
O47 Sc45 2.025 . S
O47 Sc46 2.025 . S
C48 O54 1.268 1_554 S
C48 O64 1.268 . S
C49 O55 1.268 . S
C49 O63 1.268 . S
C50 O56 1.268 . S
C50 O65 1.268 . S
C51 O57 1.268 . S
C51 O61 1.268 . S
C52 O58 1.268 . S
C52 O60 1.268 1_554 S
C53 O59 1.268 . S
C53 O62 1.268 . S
O54 Sc44 2.105 . S
O54 C48 1.268 1_556 S
O55 Sc45 2.105 1_556 S
O55 C49 1.268 . S
O56 Sc46 2.105 . S
O56 C50 1.268 . S
O57 Sc44 2.105 . S
O57 C51 1.268 . S
O58 Sc46 2.105 . S
O58 C52 1.268 . S
O59 Sc45 2.105 . S
O59 C53 1.268 . S
O60 Sc44 2.105 . S
O60 C52 1.268 1_556 S
O61 Sc45 2.105 1_556 S
O61 C51 1.268 . S
O62 Sc46 2.105 . S
O62 C53 1.268 . S
O63 Sc44 2.105 . S
O63 C49 1.268 . S
O64 Sc46 2.105 . S
O64 C48 1.268 . S
O65 Sc45 2.105 . S
O65 C50 1.268 . S
Sc66 O69 2.025 . S
Sc66 O76 2.105 . S
Sc66 O79 2.105 . S
Sc66 O82 2.105 . S
Sc66 O85 2.105 . S
Sc67 O69 2.025 . S
Sc67 O77 2.105 . S
Sc67 O81 2.105 . S
Sc67 O83 2.105 . S
Sc67 O87 2.105 . S
Sc68 O69 2.025 . S
Sc68 O78 2.105 . S
Sc68 O80 2.105 . S
Sc68 O84 2.105 . S
Sc68 O86 2.105 . S
O69 Sc66 2.025 . S
O69 Sc67 2.025 . S
O69 Sc68 2.025 . S
C70 O76 1.268 . S
C70 O86 1.268 . S
C71 O77 1.268 . S
C71 O85 1.268 . S
C72 O78 1.268 . S
C72 O87 1.268 . S
C73 O79 1.268 . S
C73 O83 1.268 . S
C74 O80 1.268 . S
C74 O82 1.268 . S
C75 O81 1.268 . S
C75 O84 1.268 . S
O76 Sc66 2.105 . S
O76 C70 1.268 . S
O77 Sc67 2.105 . S
O77 C71 1.268 . S
O78 Sc68 2.105 . S
O78 C72 1.268 . S
O79 Sc66 2.105 . S
O79 C73 1.268 . S
O80 Sc68 2.105 . S
O80 C74 1.268 . S
O81 Sc67 2.105 . S
O81 C75 1.268 . S
O82 Sc66 2.105 . S
O82 C74 1.268 . S
O83 Sc67 2.105 . S
O83 C73 1.268 . S
O84 Sc68 2.105 . S
O84 C75 1.268 . S
O85 Sc66 2.105 . S
O85 C71 1.268 . S
O86 Sc68 2.105 . S
O86 C70 1.268 . S
O87 Sc67 2.105 . S
O87 C72 1.268 . S
H88 C91 0.929 . S
H89 C94 0.929 . S
H90 C96 0.930 . S
C91 H88 0.929 . S
C91 C92 1.398 1_554 S
C91 C93 1.396 . S
C92 C91 1.398 1_556 S
C92 C96 1.407 . S
C93 C91 1.396 . S
C93 C94 1.394 . S
C94 H89 0.929 . S
C94 C93 1.394 . S
C94 C95 1.382 1_554 S
C95 C94 1.382 1_556 S
C95 C96 1.392 . S
C95 N97 1.420 . S
C96 H90 0.930 . S
C96 C92 1.407 . S
C96 C95 1.392 . S
N97 C95 1.420 . S
N97 C98 1.244 1_556 S
C98 N97 1.244 1_554 S
H99 C102 0.929 . S
H100 C105 0.929 . S
H101 C107 0.930 . S
C102 H99 0.929 . S
C102 C103 1.398 . S
C102 C104 1.396 . S
C103 C102 1.398 . S
C103 C107 1.407 . S
C104 C102 1.396 . S
C104 C105 1.394 . S
C105 H100 0.929 . S
C105 C104 1.394 . S
C105 C106 1.380 . S
C106 C105 1.380 . S
C106 C107 1.389 . S
C106 N108 1.424 1_655 S
C107 H101 0.930 . S
C107 C103 1.407 . S
C107 C106 1.389 . S
N108 C106 1.424 1_455 S
N108 C109 1.244 . S
C109 N108 1.244 . S
H110 C113 0.929 . S
H111 C116 0.929 . S
H112 C118 0.930 . S
C113 H110 0.929 . S
C113 C114 1.398 . S
C113 C115 1.396 1_554 S
C114 C113 1.398 . S
C114 C118 1.407 . S
C115 C113 1.396 1_556 S
C115 C116 1.394 . S
C116 H111 0.929 . S
C116 C115 1.394 . S
C116 C117 1.382 1_556 S
C117 C116 1.382 1_554 S
C117 C118 1.392 . S
C117 N119 1.420 . S
C118 H112 0.930 . S
C118 C114 1.407 . S
C118 C117 1.392 . S
N119 C117 1.420 . S
N119 C120 1.244 . S
C120 N119 1.244 . S
H121 C124 0.929 . S
H122 C127 0.929 . S
H123 C129 0.930 . S
C124 H121 0.929 . S
C124 C125 1.398 . S
C124 C126 1.396 . S
C125 C124 1.398 . S
C125 C129 1.407 . S
C126 C124 1.396 . S
C126 C127 1.394 . S
C127 H122 0.929 . S
C127 C126 1.394 . S
C127 C128 1.382 . S
C128 C127 1.382 . S
C128 C129 1.392 . S
C128 N130 1.420 1_455 S
C129 H123 0.930 . S
C129 C125 1.407 . S
C129 C128 1.392 . S
N130 C128 1.420 1_655 S
N130 C131 1.244 . S
C131 N130 1.244 . S
H132 C135 0.929 . S
H133 C138 0.929 . S
H134 C140 0.930 . S
C135 H132 0.929 . S
C135 C136 1.398 . S
C135 C137 1.396 . S
C136 C135 1.398 . S
C136 C140 1.407 . S
C137 C135 1.396 . S
C137 C138 1.394 . S
C138 H133 0.929 . S
C138 C137 1.394 . S
C138 C139 1.382 . S
C139 C138 1.382 . S
C139 C140 1.392 . S
C139 N141 1.420 1_565 S
C140 H134 0.930 . S
C140 C136 1.407 . S
C140 C139 1.392 . S
N141 C139 1.420 1_545 S
N141 C142 1.244 . S
C142 N141 1.244 . S
H143 C146 0.929 . S
H144 C149 0.929 . S
H145 C151 0.930 . S
C146 H143 0.929 . S
C146 C147 1.398 1_554 S
C146 C148 1.396 . S
C147 C146 1.398 1_556 S
C147 C151 1.407 . S
C148 C146 1.396 . S
C148 C149 1.394 . S
C149 H144 0.929 . S
C149 C148 1.394 . S
C149 C150 1.382 1_554 S
C150 C149 1.382 1_556 S
C150 C151 1.392 . S
C150 N152 1.420 . S
C151 H145 0.930 . S
C151 C147 1.407 . S
C151 C150 1.392 . S
N152 C150 1.420 . S
N152 C153 1.244 1_556 S
C153 N152 1.244 1_554 S
H154 C157 0.929 . S
H155 C160 0.929 . S
H156 C162 0.930 . S
C157 H154 0.929 . S
C157 C158 1.398 . S
C157 C159 1.396 . S
C158 C157 1.398 . S
C158 C162 1.407 . S
C159 C157 1.396 . S
C159 C160 1.394 . S
C160 H155 0.929 . S
C160 C159 1.394 . S
C160 C161 1.385 . S
C161 C160 1.385 . S
C161 C162 1.396 . S
C161 N163 1.413 1_545 S
C162 H156 0.930 . S
C162 C158 1.407 . S
C162 C161 1.396 . S
N163 C161 1.413 1_565 S
N163 C164 1.244 . S
C164 N163 1.244 . S
H165 C168 0.929 . S
H166 C171 0.929 . S
H167 C173 0.930 . S
C168 H165 0.929 . S
C168 C169 1.398 . S
C168 C170 1.396 1_554 S
C169 C168 1.398 . S
C169 C173 1.407 . S
C170 C168 1.396 1_556 S
C170 C171 1.394 . S
C171 H166 0.929 . S
C171 C170 1.394 . S
C171 C172 1.382 1_556 S
C172 C171 1.382 1_554 S
C172 C173 1.392 . S
C172 N174 1.420 . S
C173 H167 0.930 . S
C173 C169 1.407 . S
C173 C172 1.392 . S
N174 C172 1.420 . S
N174 C175 1.244 . S
C175 N174 1.244 . S
H176 C182 0.930 . S
H177 C185 0.930 . S
H178 C186 0.930 . S
H179 C187 0.930 . S
H180 C190 0.930 . S
H181 C191 0.930 . S
C182 H176 0.930 . S
C182 C183 1.355 . S
C182 C184 1.415 . S
C183 C182 1.355 . S
C183 C185 1.419 . S
C184 C182 1.415 . S
C184 C189 1.425 . S
C184 C191 1.409 . S
C185 H177 0.930 . S
C185 C183 1.419 . S
C185 C186 1.362 . S
C186 H178 0.930 . S
C186 C185 1.362 . S
C186 C189 1.409 . S
C187 H179 0.930 . S
C187 C188 1.355 . S
C187 C189 1.415 . S
C188 C187 1.355 . S
C188 C190 1.419 . S
C189 C184 1.425 . S
C189 C186 1.409 . S
C189 C187 1.415 . S
C190 H180 0.930 . S
C190 C188 1.419 . S
C190 C191 1.362 . S
C191 H181 0.930 . S
C191 C184 1.409 . S
C191 C190 1.362 . S
H192 C198 0.930 . S
H193 C201 0.930 . S
H194 C202 0.930 . S
H195 C203 0.930 . S
H196 C206 0.930 . S
H197 C207 0.930 . S
C198 H192 0.930 . S
C198 C199 1.355 . S
C198 C200 1.415 . S
C199 C198 1.355 . S
C199 C201 1.419 . S
C200 C198 1.415 . S
C200 C205 1.425 . S
C200 C207 1.409 . S
C201 H193 0.930 . S
C201 C199 1.419 . S
C201 C202 1.362 . S
C202 H194 0.930 . S
C202 C201 1.362 . S
C202 C205 1.409 . S
C203 H195 0.930 . S
C203 C204 1.355 . S
C203 C205 1.415 . S
C204 C203 1.355 . S
C204 C206 1.419 . S
C205 C200 1.425 . S
C205 C202 1.409 . S
C205 C203 1.415 . S
C206 H196 0.930 . S
C206 C204 1.419 . S
C206 C207 1.362 . S
C207 H197 0.930 . S
C207 C200 1.409 . S
C207 C206 1.362 . S
H208 C214 0.930 . S
H209 C217 0.930 . S
H210 C218 0.930 . S
H211 C219 0.930 . S
H212 C222 0.930 . S
H213 C223 0.930 . S
C214 H208 0.930 . S
C214 C215 1.355 . S
C214 C216 1.415 . S
C215 C214 1.355 . S
C215 C217 1.419 . S
C216 C214 1.415 . S
C216 C221 1.425 . S
C216 C223 1.409 . S
C217 H209 0.930 . S
C217 C215 1.419 . S
C217 C218 1.362 . S
C218 H210 0.930 . S
C218 C217 1.362 . S
C218 C221 1.409 . S
C219 H211 0.930 . S
C219 C220 1.355 . S
C219 C221 1.415 . S
C220 C219 1.355 . S
C220 C222 1.419 . S
C221 C216 1.425 . S
C221 C218 1.409 . S
C221 C219 1.415 . S
C222 H212 0.930 . S
C222 C220 1.419 . S
C222 C223 1.362 . S
C223 H213 0.930 . S
C223 C216 1.409 . S
C223 C222 1.362 . S
H224 C230 0.930 . S
H225 C233 0.930 . S
H226 C234 0.930 . S
H227 C235 0.930 . S
H228 C238 0.930 . S
H229 C239 0.930 . S
C230 H224 0.930 . S
C230 C231 1.355 . S
C230 C232 1.415 . S
C231 C230 1.355 . S
C231 C233 1.419 . S
C232 C230 1.415 . S
C232 C237 1.425 . S
C232 C239 1.409 . S
C233 H225 0.930 . S
C233 C231 1.419 . S
C233 C234 1.362 . S
C234 H226 0.930 . S
C234 C233 1.362 . S
C234 C237 1.409 . S
C235 H227 0.930 . S
C235 C236 1.355 . S
C235 C237 1.415 . S
C236 C235 1.355 . S
C236 C238 1.419 . S
C237 C232 1.425 . S
C237 C234 1.409 . S
C237 C235 1.415 . S
C238 H228 0.930 . S
C238 C236 1.419 . S
C238 C239 1.362 . S
C239 H229 0.930 . S
C239 C232 1.409 . S
C239 C238 1.362 . S
H240 C246 0.930 . S
H241 C249 0.930 . S
H242 C250 0.930 . S
H243 C251 0.930 . S
H244 C254 0.930 . S
H245 C255 0.930 . S
C246 H240 0.930 . S
C246 C247 1.355 . S
C246 C248 1.415 . S
C247 C246 1.355 . S
C247 C249 1.419 . S
C248 C246 1.415 . S
C248 C253 1.425 . S
C248 C255 1.409 . S
C249 H241 0.930 . S
C249 C247 1.419 . S
C249 C250 1.362 . S
C250 H242 0.930 . S
C250 C249 1.362 . S
C250 C253 1.409 . S
C251 H243 0.930 . S
C251 C252 1.355 . S
C251 C253 1.415 . S
C252 C251 1.355 . S
C252 C254 1.419 . S
C253 C248 1.425 . S
C253 C250 1.409 . S
C253 C251 1.415 . S
C254 H244 0.930 . S
C254 C252 1.419 . S
C254 C255 1.362 . S
C255 H245 0.930 . S
C255 C248 1.409 . S
C255 C254 1.362 . S
H256 C262 0.930 . S
H257 C265 0.930 . S
H258 C266 0.930 . S
H259 C267 0.930 . S
H260 C270 0.930 . S
H261 C271 0.930 . S
C262 H256 0.930 . S
C262 C263 1.355 . S
C262 C264 1.415 . S
C263 C262 1.355 . S
C263 C265 1.419 . S
C264 C262 1.415 . S
C264 C269 1.425 . S
C264 C271 1.409 . S
C265 H257 0.930 . S
C265 C263 1.419 . S
C265 C266 1.362 . S
C266 H258 0.930 . S
C266 C265 1.362 . S
C266 C269 1.409 . S
C267 H259 0.930 . S
C267 C268 1.355 . S
C267 C269 1.415 . S
C268 C267 1.355 . S
C268 C270 1.419 . S
C269 C264 1.425 . S
C269 C266 1.409 . S
C269 C267 1.415 . S
C270 H260 0.930 . S
C270 C268 1.419 . S
C270 C271 1.362 . S
C271 H261 0.930 . S
C271 C264 1.409 . S
C271 C270 1.362 . S
H272 C278 0.930 . S
H273 C281 0.930 . S
H274 C282 0.930 . S
H275 C283 0.930 . S
H276 C286 0.930 . S
H277 C287 0.930 . S
C278 H272 0.930 . S
C278 C279 1.355 . S
C278 C280 1.415 . S
C279 C278 1.355 . S
C279 C281 1.419 . S
C280 C278 1.415 . S
C280 C285 1.425 . S
C280 C287 1.409 . S
C281 H273 0.930 . S
C281 C279 1.419 . S
C281 C282 1.362 . S
C282 H274 0.930 . S
C282 C281 1.362 . S
C282 C285 1.409 . S
C283 H275 0.930 . S
C283 C284 1.355 . S
C283 C285 1.415 . S
C284 C283 1.355 . S
C284 C286 1.419 . S
C285 C280 1.425 . S
C285 C282 1.409 . S
C285 C283 1.415 . S
C286 H276 0.930 . S
C286 C284 1.419 . S
C286 C287 1.362 . S
C287 H277 0.930 . S
C287 C280 1.409 . S
C287 C286 1.362 . S
H288 C294 0.930 . S
H289 C297 0.930 . S
H290 C298 0.930 . S
H291 C299 0.930 . S
H292 C302 0.930 . S
H293 C303 0.930 . S
C294 H288 0.930 . S
C294 C295 1.355 . S
C294 C296 1.415 . S
C295 C294 1.355 . S
C295 C297 1.419 . S
C296 C294 1.415 . S
C296 C301 1.425 . S
C296 C303 1.409 . S
C297 H289 0.930 . S
C297 C295 1.419 . S
C297 C298 1.362 . S
C298 H290 0.930 . S
C298 C297 1.362 . S
C298 C301 1.409 . S
C299 H291 0.930 . S
C299 C300 1.355 . S
C299 C301 1.415 . S
C300 C299 1.355 . S
C300 C302 1.419 . S
C301 C296 1.425 . S
C301 C298 1.409 . S
C301 C299 1.415 . S
C302 H292 0.930 . S
C302 C300 1.419 . S
C302 C303 1.362 . S
C303 H293 0.930 . S
C303 C296 1.409 . S
C303 C302 1.362 . S
H304 C310 0.930 . S
H305 C313 0.930 . S
H306 C314 0.930 . S
H307 C315 0.930 . S
H308 C318 0.930 . S
H309 C319 0.930 . S
C310 H304 0.930 . S
C310 C311 1.355 . S
C310 C312 1.415 . S
C311 C310 1.355 . S
C311 C313 1.419 . S
C312 C310 1.415 . S
C312 C317 1.425 . S
C312 C319 1.409 . S
C313 H305 0.930 . S
C313 C311 1.419 . S
C313 C314 1.362 . S
C314 H306 0.930 . S
C314 C313 1.362 . S
C314 C317 1.409 . S
C315 H307 0.930 . S
C315 C316 1.355 . S
C315 C317 1.415 . S
C316 C315 1.355 . S
C316 C318 1.419 . S
C317 C312 1.425 . S
C317 C314 1.409 . S
C317 C315 1.415 . S
C318 H308 0.930 . S
C318 C316 1.419 . S
C318 C319 1.362 . S
C319 H309 0.930 . S
C319 C312 1.409 . S
C319 C318 1.362 . S
H320 C326 0.930 . S
H321 C329 0.930 . S
H322 C330 0.930 . S
H323 C331 0.930 . S
H324 C334 0.930 . S
H325 C335 0.930 . S
C326 H320 0.930 . S
C326 C327 1.355 . S
C326 C328 1.415 . S
C327 C326 1.355 . S
C327 C329 1.419 . S
C328 C326 1.415 . S
C328 C333 1.425 . S
C328 C335 1.409 . S
C329 H321 0.930 . S
C329 C327 1.419 . S
C329 C330 1.362 . S
C330 H322 0.930 . S
C330 C329 1.362 . S
C330 C333 1.409 . S
C331 H323 0.930 . S
C331 C332 1.355 . S
C331 C333 1.415 . S
C332 C331 1.355 . S
C332 C334 1.419 . S
C333 C328 1.425 . S
C333 C330 1.409 . S
C333 C331 1.415 . S
C334 H324 0.930 . S
C334 C332 1.419 . S
C334 C335 1.362 . S
C335 H325 0.930 . S
C335 C328 1.409 . S
C335 C334 1.362 . S
H336 C342 0.930 . S
H337 C345 0.930 . S
H338 C346 0.930 . S
H339 C347 0.930 . S
H340 C350 0.930 . S
H341 C351 0.930 . S
C342 H336 0.930 . S
C342 C343 1.355 . S
C342 C344 1.415 . S
C343 C342 1.355 . S
C343 C345 1.419 . S
C344 C342 1.415 . S
C344 C349 1.425 . S
C344 C351 1.409 . S
C345 H337 0.930 . S
C345 C343 1.419 . S
C345 C346 1.362 . S
C346 H338 0.930 . S
C346 C345 1.362 . S
C346 C349 1.409 . S
C347 H339 0.930 . S
C347 C348 1.355 . S
C347 C349 1.415 . S
C348 C347 1.355 . S
C348 C350 1.419 . S
C349 C344 1.425 . S
C349 C346 1.409 . S
C349 C347 1.415 . S
C350 H340 0.930 . S
C350 C348 1.419 . S
C350 C351 1.362 . S
C351 H341 0.930 . S
C351 C344 1.409 . S
C351 C350 1.362 . S
H352 C358 0.930 . S
H353 C361 0.930 . S
H354 C362 0.930 . S
H355 C363 0.930 . S
H356 C366 0.930 . S
H357 C367 0.930 . S
C358 H352 0.930 . S
C358 C359 1.355 . S
C358 C360 1.415 . S
C359 C358 1.355 . S
C359 C361 1.419 . S
C360 C358 1.415 . S
C360 C365 1.425 . S
C360 C367 1.409 . S
C361 H353 0.930 . S
C361 C359 1.419 . S
C361 C362 1.362 . S
C362 H354 0.930 . S
C362 C361 1.362 . S
C362 C365 1.409 . S
C363 H355 0.930 . S
C363 C364 1.355 . S
C363 C365 1.415 . S
C364 C363 1.355 . S
C364 C366 1.419 . S
C365 C360 1.425 . S
C365 C362 1.409 . S
C365 C363 1.415 . S
C366 H356 0.930 . S
C366 C364 1.419 . S
C366 C367 1.362 . S
C367 H357 0.930 . S
C367 C360 1.409 . S
C367 C366 1.362 . S
H368 C374 0.930 . S
H369 C377 0.930 . S
H370 C378 0.930 . S
H371 C379 0.930 . S
H372 C382 0.930 . S
H373 C383 0.930 . S
C374 H368 0.930 . S
C374 C375 1.355 . S
C374 C376 1.415 . S
C375 C374 1.355 . S
C375 C377 1.419 . S
C376 C374 1.415 . S
C376 C381 1.425 . S
C376 C383 1.409 . S
C377 H369 0.930 . S
C377 C375 1.419 . S
C377 C378 1.362 . S
C378 H370 0.930 . S
C378 C377 1.362 . S
C378 C381 1.409 . S
C379 H371 0.930 . S
C379 C380 1.355 . S
C379 C381 1.415 . S
C380 C379 1.355 . S
C380 C382 1.419 . S
C381 C376 1.425 . S
C381 C378 1.409 . S
C381 C379 1.415 . S
C382 H372 0.930 . S
C382 C380 1.419 . S
C382 C383 1.362 . S
C383 H373 0.930 . S
C383 C376 1.409 . S
C383 C382 1.362 . S
H384 C390 0.930 . S
H385 C393 0.930 . S
H386 C394 0.930 . S
H387 C395 0.930 . S
H388 C398 0.930 . S
H389 C399 0.930 . S
C390 H384 0.930 . S
C390 C391 1.355 . S
C390 C392 1.415 . S
C391 C390 1.355 . S
C391 C393 1.419 . S
C392 C390 1.415 . S
C392 C397 1.425 . S
C392 C399 1.409 . S
C393 H385 0.930 . S
C393 C391 1.419 . S
C393 C394 1.362 . S
C394 H386 0.930 . S
C394 C393 1.362 . S
C394 C397 1.409 . S
C395 H387 0.930 . S
C395 C396 1.355 . S
C395 C397 1.415 . S
C396 C395 1.355 . S
C396 C398 1.419 . S
C397 C392 1.425 . S
C397 C394 1.409 . S
C397 C395 1.415 . S
C398 H388 0.930 . S
C398 C396 1.419 . S
C398 C399 1.362 . S
C399 H389 0.930 . S
C399 C392 1.409 . S
C399 C398 1.362 . S
H400 C406 0.930 . S
H401 C409 0.930 . S
H402 C410 0.930 . S
H403 C411 0.930 . S
H404 C414 0.930 . S
H405 C415 0.930 . S
C406 H400 0.930 . S
C406 C407 1.355 . S
C406 C408 1.415 . S
C407 C406 1.355 . S
C407 C409 1.419 . S
C408 C406 1.415 . S
C408 C413 1.425 . S
C408 C415 1.409 . S
C409 H401 0.930 . S
C409 C407 1.419 . S
C409 C410 1.362 . S
C410 H402 0.930 . S
C410 C409 1.362 . S
C410 C413 1.409 . S
C411 H403 0.930 . S
C411 C412 1.355 . S
C411 C413 1.415 . S
C412 C411 1.355 . S
C412 C414 1.419 . S
C413 C408 1.425 . S
C413 C410 1.409 . S
C413 C411 1.415 . S
C414 H404 0.930 . S
C414 C412 1.419 . S
C414 C415 1.362 . S
C415 H405 0.930 . S
C415 C408 1.409 . S
C415 C414 1.362 . S
H416 C422 0.930 . S
H417 C425 0.930 . S
H418 C426 0.930 . S
H419 C427 0.930 . S
H420 C430 0.930 . S
H421 C431 0.930 . S
C422 H416 0.930 . S
C422 C423 1.355 . S
C422 C424 1.415 . S
C423 C422 1.355 . S
C423 C425 1.419 . S
C424 C422 1.415 . S
C424 C429 1.425 . S
C424 C431 1.409 . S
C425 H417 0.930 . S
C425 C423 1.419 . S
C425 C426 1.362 . S
C426 H418 0.930 . S
C426 C425 1.362 . S
C426 C429 1.409 . S
C427 H419 0.930 . S
C427 C428 1.355 . S
C427 C429 1.415 . S
C428 C427 1.355 . S
C428 C430 1.419 . S
C429 C424 1.425 . S
C429 C426 1.409 . S
C429 C427 1.415 . S
C430 H420 0.930 . S
C430 C428 1.419 . S
C430 C431 1.362 . S
C431 H421 0.930 . S
C431 C424 1.409 . S
C431 C430 1.362 . S
H432 C438 0.930 . S
H433 C441 0.930 . S
H434 C442 0.930 . S
H435 C443 0.930 . S
H436 C446 0.930 . S
H437 C447 0.930 . S
C438 H432 0.930 . S
C438 C439 1.355 1_556 S
C438 C440 1.415 . S
C439 C438 1.355 1_554 S
C439 C441 1.419 . S
C440 C438 1.415 . S
C440 C445 1.425 1_556 S
C440 C447 1.409 . S
C441 H433 0.930 . S
C441 C439 1.419 . S
C441 C442 1.362 . S
C442 H434 0.930 . S
C442 C441 1.362 . S
C442 C445 1.409 . S
C443 H435 0.930 . S
C443 C444 1.355 . S
C443 C445 1.415 . S
C444 C443 1.355 . S
C444 C446 1.419 1_554 S
C445 C440 1.425 1_554 S
C445 C442 1.409 . S
C445 C443 1.415 . S
C446 H436 0.930 . S
C446 C444 1.419 1_556 S
C446 C447 1.362 . S
C447 H437 0.930 . S
C447 C440 1.409 . S
C447 C446 1.362 . S
H448 C454 0.930 . S
H449 C457 0.930 . S
H450 C458 0.930 . S
H451 C459 0.930 . S
H452 C462 0.930 . S
H453 C463 0.930 . S
C454 H448 0.930 . S
C454 C455 1.355 . S
C454 C456 1.415 . S
C455 C454 1.355 . S
C455 C457 1.419 . S
C456 C454 1.415 . S
C456 C461 1.425 . S
C456 C463 1.409 . S
C457 H449 0.930 . S
C457 C455 1.419 . S
C457 C458 1.362 . S
C458 H450 0.930 . S
C458 C457 1.362 . S
C458 C461 1.409 . S
C459 H451 0.930 . S
C459 C460 1.355 . S
C459 C461 1.415 . S
C460 C459 1.355 . S
C460 C462 1.419 . S
C461 C456 1.425 . S
C461 C458 1.409 . S
C461 C459 1.415 . S
C462 H452 0.930 . S
C462 C460 1.419 . S
C462 C463 1.362 . S
C463 H453 0.930 . S
C463 C456 1.409 . S
C463 C462 1.362 . S
H464 C470 0.930 . S
H465 C473 0.930 . S
H466 C474 0.930 . S
H467 C475 0.930 . S
H468 C478 0.930 . S
H469 C479 0.930 . S
C470 H464 0.930 . S
C470 C471 1.355 1_556 S
C470 C472 1.415 . S
C471 C470 1.355 1_554 S
C471 C473 1.419 . S
C472 C470 1.415 . S
C472 C477 1.425 1_556 S
C472 C479 1.409 . S
C473 H465 0.930 . S
C473 C471 1.419 . S
C473 C474 1.362 . S
C474 H466 0.930 . S
C474 C473 1.362 . S
C474 C477 1.409 . S
C475 H467 0.930 . S
C475 C476 1.355 . S
C475 C477 1.415 . S
C476 C475 1.355 . S
C476 C478 1.419 1_554 S
C477 C472 1.425 1_554 S
C477 C474 1.409 . S
C477 C475 1.415 . S
C478 H468 0.930 . S
C478 C476 1.419 1_556 S
C478 C479 1.362 . S
C479 H469 0.930 . S
C479 C472 1.409 . S
C479 C478 1.362 . S
H480 C486 0.930 . S
H481 C489 0.930 . S
H482 C490 0.930 . S
H483 C491 0.930 . S
H484 C494 0.930 . S
H485 C495 0.930 . S
C486 H480 0.930 . S
C486 C487 1.355 . S
C486 C488 1.415 . S
C487 C486 1.355 . S
C487 C489 1.419 . S
C488 C486 1.415 . S
C488 C493 1.425 . S
C488 C495 1.409 . S
C489 H481 0.930 . S
C489 C487 1.419 . S
C489 C490 1.362 . S
C490 H482 0.930 . S
C490 C489 1.362 . S
C490 C493 1.409 . S
C491 H483 0.930 . S
C491 C492 1.355 . S
C491 C493 1.415 . S
C492 C491 1.355 . S
C492 C494 1.419 . S
C493 C488 1.425 . S
C493 C490 1.409 . S
C493 C491 1.415 . S
C494 H484 0.930 . S
C494 C492 1.419 . S
C494 C495 1.362 . S
C495 H485 0.930 . S
C495 C488 1.409 . S
C495 C494 1.362 . S
H496 C502 0.930 . S
H497 C505 0.930 . S
H498 C506 0.930 . S
H499 C507 0.930 . S
H500 C510 0.930 . S
H501 C511 0.930 . S
C502 H496 0.930 . S
C502 C503 1.355 . S
C502 C504 1.415 . S
C503 C502 1.355 . S
C503 C505 1.419 . S
C504 C502 1.415 . S
C504 C509 1.425 . S
C504 C511 1.409 . S
C505 H497 0.930 . S
C505 C503 1.419 . S
C505 C506 1.362 . S
C506 H498 0.930 . S
C506 C505 1.362 . S
C506 C509 1.409 . S
C507 H499 0.930 . S
C507 C508 1.355 . S
C507 C509 1.415 . S
C508 C507 1.355 . S
C508 C510 1.419 . S
C509 C504 1.425 . S
C509 C506 1.409 . S
C509 C507 1.415 . S
C510 H500 0.930 . S
C510 C508 1.419 . S
C510 C511 1.362 . S
C511 H501 0.930 . S
C511 C504 1.409 . S
C511 C510 1.362 . S
H512 C518 0.930 . S
H513 C521 0.930 . S
H514 C522 0.930 . S
H515 C523 0.930 . S
H516 C526 0.930 . S
H517 C527 0.930 . S
C518 H512 0.930 . S
C518 C519 1.355 . S
C518 C520 1.415 . S
C519 C518 1.355 . S
C519 C521 1.419 1_554 S
C520 C518 1.415 . S
C520 C525 1.425 1_554 S
C520 C527 1.409 . S
C521 H513 0.930 . S
C521 C519 1.419 1_556 S
C521 C522 1.362 . S
C522 H514 0.930 . S
C522 C521 1.362 . S
C522 C525 1.409 . S
C523 H515 0.930 . S
C523 C524 1.355 1_556 S
C523 C525 1.415 . S
C524 C523 1.355 1_554 S
C524 C526 1.419 . S
C525 C520 1.425 1_556 S
C525 C522 1.409 . S
C525 C523 1.415 . S
C526 H516 0.930 . S
C526 C524 1.419 . S
C526 C527 1.362 . S
C527 H517 0.930 . S
C527 C520 1.409 . S
C527 C526 1.362 . S
H528 C534 0.930 . S
H529 C537 0.930 . S
H530 C538 0.930 . S
H531 C539 0.930 . S
H532 C542 0.930 . S
H533 C543 0.930 . S
C534 H528 0.930 . S
C534 C535 1.355 . S
C534 C536 1.415 . S
C535 C534 1.355 . S
C535 C537 1.419 . S
C536 C534 1.415 . S
C536 C541 1.425 . S
C536 C543 1.409 . S
C537 H529 0.930 . S
C537 C535 1.419 . S
C537 C538 1.362 . S
C538 H530 0.930 . S
C538 C537 1.362 . S
C538 C541 1.409 . S
C539 H531 0.930 . S
C539 C540 1.355 . S
C539 C541 1.415 . S
C540 C539 1.355 . S
C540 C542 1.419 . S
C541 C536 1.425 . S
C541 C538 1.409 . S
C541 C539 1.415 . S
C542 H532 0.930 . S
C542 C540 1.419 . S
C542 C543 1.362 . S
C543 H533 0.930 . S
C543 C536 1.409 . S
C543 C542 1.362 . S
H544 C550 0.930 . S
H545 C553 0.930 . S
H546 C554 0.930 . S
H547 C555 0.930 . S
H548 C558 0.930 . S
H549 C559 0.930 . S
C550 H544 0.930 . S
C550 C551 1.355 1_556 S
C550 C552 1.415 . S
C551 C550 1.355 1_554 S
C551 C553 1.419 . S
C552 C550 1.415 . S
C552 C557 1.425 1_556 S
C552 C559 1.409 . S
C553 H545 0.930 . S
C553 C551 1.419 . S
C553 C554 1.362 . S
C554 H546 0.930 . S
C554 C553 1.362 . S
C554 C557 1.409 . S
C555 H547 0.930 . S
C555 C556 1.355 . S
C555 C557 1.415 . S
C556 C555 1.355 . S
C556 C558 1.419 1_554 S
C557 C552 1.425 1_554 S
C557 C554 1.409 . S
C557 C555 1.415 . S
C558 H548 0.930 . S
C558 C556 1.419 1_556 S
C558 C559 1.362 . S
C559 H549 0.930 . S
C559 C552 1.409 . S
C559 C558 1.362 . S
C183 C5 1.466 . S
C188 C125 1.440 . S
C199 C31 1.480 . S
C204 C92 1.453 . S
C220 C104 1.437 . S
C215 C53 1.505 . S
C231 C71 1.484 . S
C236 C115 1.439 . S
C252 C148 1.433 . S
C247 C75 1.480 . S
C268 C159 1.494 . S
C263 C9 1.467 . S
C284 C169 1.483 . S
C279 C27 1.443 . S
C300 C136 1.470 . S
C295 C49 1.426 . S
C311 C51 1.431 . S
C316 C103 1.459 . S
C327 C72 1.457 . S
C332 C114 1.462 . S
C343 C6 1.471 . S
C348 C126 1.482 . S
C364 C93 1.477 . S
C359 C29 1.447 . S
C375 C28 1.490 . S
C380 C170 1.430 . S
C396 C137 1.479 . S
C391 C50 1.472 . S
C412 C147 1.452 . S
C407 C73 1.475 . S
C423 C7 1.449 . S
C428 C158 1.444 . S
C444 C98 1.517 . S
C439 C4 1.483 . S
C460 C109 1.502 . S
C455 C30 1.489 . S
C471 C52 1.485 . S
C476 C120 1.506 . S
C487 C70 1.495 . S
C492 C131 1.495 . S
C508 C142 1.502 . S
C503 C74 1.509 . S
C519 C8 1.491 . S
C524 C153 1.502 . S
C535 C26 1.516 . S
C540 C164 1.500 . S
C551 C48 1.484 . S
C556 C175 1.506 . S
