# Generated by pormake.
# Topology pyr, (3,6)-cn, num edge types: 1
# Building blocks:
#     Node 0, Type 0, BuildingBlock: VETTIZ_charged_linker_0, # of connection points: 3
#     Node 1, Type 0, BuildingBlock: VETTIZ_charged_linker_0, # of connection points: 3
#     Node 2, Type 0, BuildingBlock: VETTIZ_charged_linker_0, # of connection points: 3
#     Node 3, Type 0, BuildingBlock: VETTIZ_charged_linker_0, # of connection points: 3
#     Node 4, Type 0, BuildingBlock: VETTIZ_charged_linker_0, # of connection points: 3
#     Node 5, Type 0, BuildingBlock: VETTIZ_charged_linker_0, # of connection points: 3
#     Node 6, Type 0, BuildingBlock: VETTIZ_charged_linker_0, # of connection points: 3
#     Node 7, Type 0, BuildingBlock: VETTIZ_charged_linker_0, # of connection points: 3
#     Node 8, Type 1, BuildingBlock: LEVNOQ01_clean_sbu_1, # of connection points: 6
#     Node 9, Type 1, BuildingBlock: LEVNOQ01_clean_sbu_1, # of connection points: 6
#     Node 10, Type 1, BuildingBlock: LEVNOQ01_clean_sbu_1, # of connection points: 6
#     Node 11, Type 1, BuildingBlock: LEVNOQ01_clean_sbu_1, # of connection points: 6
#     Edge 12, Type (0, 1), None
#     Edge 13, Type (0, 1), None
#     Edge 14, Type (0, 1), None
#     Edge 15, Type (0, 1), None
#     Edge 16, Type (0, 1), None
#     Edge 17, Type (0, 1), None
#     Edge 18, Type (0, 1), None
#     Edge 19, Type (0, 1), None
#     Edge 20, Type (0, 1), None
#     Edge 21, Type (0, 1), None
#     Edge 22, Type (0, 1), None
#     Edge 23, Type (0, 1), None
#     Edge 24, Type (0, 1), None
#     Edge 25, Type (0, 1), None
#     Edge 26, Type (0, 1), None
#     Edge 27, Type (0, 1), None
#     Edge 28, Type (0, 1), None
#     Edge 29, Type (0, 1), None
#     Edge 30, Type (0, 1), None
#     Edge 31, Type (0, 1), None
#     Edge 32, Type (0, 1), None
#     Edge 33, Type (0, 1), None
#     Edge 34, Type (0, 1), None
#     Edge 35, Type (0, 1), None
# Relax obj value: 0.035
# Max RMSD: 0.110
# Mean RMSD: 0.048
data_MOF--net-pry--node1-LEVNOQ01_clean_sbu_1--node2-VETTIZ_charged_linker_0--edge1-none
_symmetry_space_group_name_H-M    P1
_symmetry_Int_Tables_number       1
_symmetry_cell_setting            triclinic
loop_
_symmetry_equiv_pos_as_xyz
'x, y, z'
_cell_length_a     24.9681
_cell_length_b     24.05964
_cell_length_c     23.853696
_cell_angle_alpha  91.567772
_cell_angle_beta   90.864086
_cell_angle_gamma 92.494368
loop_
_atom_site_label
_atom_site_type_symbol
_atom_site_fract_x
_atom_site_fract_y
_atom_site_fract_z
_atom_type_partial_charge
C0 C 0.12204 0.04616 0.29851 0.0
C1 C 0.08393 0.06575 0.33623 0.0
C2 C 0.05533 0.11286 0.32254 0.0
C3 C 0.09956 0.11707 0.2327 0.0
C4 C 0.12957 0.07269 0.24748 0.0
C5 C 0.16891 0.05752 0.20297 0.0
H6 H 0.3039 0.13732 0.97543 0.0
C7 C 0.11565 0.13366 0.1759 0.0
C8 C 0.15666 0.09936 0.15842 0.0
H9 H 0.33326 -0.00144 0.08126 0.0
H10 H 0.24846 0.01025 0.12656 0.0
H11 H 0.26557 0.21827 0.06083 0.0
H12 H 0.16963 0.10015 0.95914 0.0
H13 H 0.13396 0.16132 0.96449 0.0
H14 H 0.19856 0.16295 0.93134 0.0
H15 H 0.25459 0.22625 0.98695 0.0
H16 H 0.2085 0.25188 0.03776 0.0
C17 C 0.22593 0.06738 0.22877 0.0
C18 C 0.15569 -0.00314 0.18202 0.0
C19 C 0.02205 0.28945 0.08119 0.0
C20 C 0.03268 0.31993 0.03277 0.0
C21 C 0.07469 0.30436 0.99782 0.0
C22 C 0.10579 0.25908 0.01123 0.0
C23 C 0.09564 0.23028 0.06095 0.0
C24 C 0.05435 0.24584 0.09496 0.0
C25 C 0.05236 0.21467 0.14875 0.0
C26 C 0.09751 0.17541 0.14015 0.0
C27 C 0.12262 0.18466 0.08875 0.0
C28 C 0.06429 0.25676 0.19841 0.0
C29 C -0.00272 0.18293 0.15152 0.0
C30 C 0.29125 0.10859 0.00734 0.0
C31 C 0.32559 0.06795 0.02585 0.0
C32 C 0.30759 0.03051 0.06663 0.0
C33 C 0.25888 0.03804 0.09365 0.0
C34 C 0.22815 0.08331 0.07951 0.0
C35 C 0.24254 0.11524 0.0344 0.0
C36 C 0.20354 0.15978 0.02367 0.0
C37 C 0.166 0.15208 0.07249 0.0
C38 C 0.18136 0.10809 0.10588 0.0
C39 C 0.23432 0.21722 0.02702 0.0
C40 C 0.17497 0.14594 0.96658 0.0
H41 H 0.03832 0.17278 0.26197 0.0
H42 H 0.14461 0.01 0.30791 0.0
H43 H 0.11207 0.98601 0.18507 0.0
H44 H 0.16475 0.99021 0.13715 0.0
H45 H 0.17757 0.96671 0.2072 0.0
H46 H 0.22926 0.10785 0.25257 0.0
H47 H 0.23517 0.03407 0.25832 0.0
H48 H 0.25774 0.0697 0.19741 0.0
H49 H 0.99131 0.30153 0.11012 0.0
H50 H 0.08404 0.32785 0.96084 0.0
H51 H 0.13769 0.24949 0.98342 0.0
H52 H 0.08654 0.29497 0.18466 0.0
H53 H 0.0267 0.27006 0.21806 0.0
H54 H 0.09062 0.23991 0.231 0.0
H55 H 0.98711 0.16134 0.11065 0.0
H56 H -0.00362 0.15026 0.18311 0.0
H57 H 0.96504 0.21201 0.16099 0.0
H58 H 0.02525 0.12827 0.35056 0.0
C59 C 0.06261 0.1383 0.2708 0.0
C60 C 0.21545 0.92584 0.54018 0.0
C61 C 0.19851 0.98116 0.54851 0.0
C62 C 0.23778 0.02473 0.5573 0.0
C63 C 0.30448 0.95804 0.56994 0.0
C64 C 0.27044 0.91569 0.54968 0.0
C65 C 0.30177 0.86294 0.54176 0.0
H66 H 0.52398 0.72653 0.62845 0.0
C67 C 0.35422 0.93601 0.58879 0.0
C68 C 0.35655 0.88092 0.56905 0.0
H69 H 0.40094 0.6625 0.51231 0.0
H70 H 0.3603 0.75281 0.51316 0.0
H71 H 0.53974 0.85402 0.57075 0.0
H72 H 0.48249 0.77278 0.70712 0.0
H73 H 0.44782 0.8338 0.72298 0.0
H74 H 0.5203 0.83452 0.72352 0.0
H75 H 0.57059 0.82676 0.63228 0.0
H76 H 0.54957 0.89746 0.63152 0.0
C77 C 0.30632 0.85111 0.47817 0.0
C78 C 0.27345 0.81493 0.57272 0.0
C79 C 0.41246 -0.00481 0.78468 0.0
C80 C 0.45712 0.98208 0.81723 0.0
C81 C 0.5018 0.95954 0.79095 0.0
C82 C 0.49905 0.94359 0.734 0.0
C83 C 0.45111 0.94973 0.70408 0.0
C84 C 0.41119 0.98027 0.72741 0.0
C85 C 0.36752 0.99044 0.68544 0.0
C86 C 0.38616 0.95559 0.63502 0.0
C87 C 0.43229 0.92767 0.64881 0.0
C88 C 0.36726 0.0536 0.67518 0.0
C89 C 0.31309 0.96813 0.70777 0.0
C90 C 0.48902 0.73238 0.60214 0.0
C91 C 0.46597 0.6877 0.57006 0.0
C92 C 0.42017 0.69671 0.53655 0.0
C93 C 0.39624 0.74887 0.53758 0.0
C94 C 0.41845 0.79247 0.57224 0.0
C95 C 0.46475 0.78386 0.60297 0.0
C96 C 0.48329 0.83394 0.63805 0.0
C97 C 0.44063 0.87465 0.62322 0.0
C98 C 0.40216 0.85022 0.58469 0.0
C99 C 0.53897 0.85421 0.61739 0.0
C100 C 0.48345 0.8184 0.70105 0.0
H101 H 0.32096 0.04672 0.57287 0.0
H102 H 0.18679 0.8919 0.52997 0.0
H103 H 0.26781 0.82707 0.61749 0.0
H104 H 0.29671 0.77697 0.57177 0.0
H105 H 0.23339 0.80423 0.55349 0.0
H106 H 0.31668 0.89013 0.456 0.0
H107 H 0.2677 0.83344 0.46028 0.0
H108 H 0.33829 0.82254 0.46798 0.0
H109 H 0.37867 0.01443 0.80399 0.0
H110 H 0.53721 0.9505 0.81529 0.0
H111 H 0.53337 0.92574 0.71533 0.0
H112 H 0.37771 0.07849 0.71407 0.0
H113 H 0.32686 0.06664 0.66282 0.0
H114 H 0.39666 0.06582 0.64273 0.0
H115 H 0.31419 0.92287 0.71578 0.0
H116 H 0.27989 0.97447 0.67762 0.0
H117 H 0.30291 0.99022 0.74741 0.0
H118 H 0.22657 0.06775 0.5598 0.0
C119 C 0.29111 0.01323 0.56717 0.0
C120 C 0.63844 0.1615 0.92787 0.0
C121 C 0.58727 0.13721 0.91786 0.0
C122 C 0.56494 0.137 0.86329 0.0
C123 C 0.63603 0.20176 0.83598 0.0
C124 C 0.66148 0.19495 0.88698 0.0
C125 C 0.70771 0.23597 0.89697 0.0
H126 H 0.82507 0.48354 0.84263 0.0
C127 C 0.66264 0.24981 0.80879 0.0
C128 C 0.70565 0.26896 0.84365 0.0
H129 H 0.84871 0.37681 0.98331 0.0
H130 H 0.79465 0.30467 0.93805 0.0
H131 H 0.67595 0.44284 0.79262 0.0
H132 H 0.82984 0.37674 0.74691 0.0
H133 H 0.78099 0.39212 0.69592 0.0
H134 H 0.81627 0.44824 0.73458 0.0
H135 H 0.731 0.48781 0.81484 0.0
H136 H 0.7195 0.47651 0.74266 0.0
C137 C 0.69606 0.27201 0.95058 0.0
C138 C 0.75945 0.2029 0.90052 0.0
C139 C 0.55605 0.36991 0.68356 0.0
C140 C 0.56958 0.42211 0.66169 0.0
C141 C 0.62364 0.43768 0.65308 0.0
C142 C 0.66401 0.40533 0.67456 0.0
C143 C 0.64934 0.35891 0.70594 0.0
C144 C 0.59703 0.3381 0.70475 0.0
C145 C 0.59076 0.28502 0.73661 0.0
C146 C 0.64644 0.28273 0.76352 0.0
C147 C 0.67941 0.32844 0.74751 0.0
C148 C 0.54637 0.29216 0.78068 0.0
C149 C 0.57885 0.23592 0.69417 0.0
C150 C 0.81657 0.44539 0.86455 0.0
C151 C 0.83997 0.43683 0.91743 0.0
C152 C 0.83028 0.38541 0.94322 0.0
C153 C 0.7988 0.34312 0.9168 0.0
C154 C 0.77402 0.35276 0.86519 0.0
C155 C 0.78309 0.40293 0.83952 0.0
C156 C 0.75454 0.40414 0.7835 0.0
C157 C 0.72313 0.34789 0.78274 0.0
C158 C 0.73557 0.31825 0.83069 0.0
C159 C 0.7182 0.45508 0.78313 0.0
C160 C 0.79752 0.40569 0.73752 0.0
H161 H 0.56972 0.17066 0.78174 0.0
H162 H 0.65593 0.16234 0.96979 0.0
H163 H 0.75808 0.16764 0.86926 0.0
H164 H 0.79587 0.22829 0.89054 0.0
H165 H 0.76444 0.18524 0.94274 0.0
H166 H 0.65348 0.26779 0.96349 0.0
H167 H 0.72101 0.26026 0.98696 0.0
H168 H 0.70199 0.31718 0.94418 0.0
H169 H 0.51439 0.3569 0.68856 0.0
H170 H 0.6346 0.47721 0.63479 0.0
H171 H 0.70499 0.41896 0.66918 0.0
H172 H 0.55428 0.33116 0.80616 0.0
H173 H 0.50638 0.2942 0.76006 0.0
H174 H 0.5432 0.25806 0.81029 0.0
H175 H 0.58962 0.24701 0.65064 0.0
H176 H 0.60291 0.19954 0.70358 0.0
H177 H 0.53566 0.22268 0.69347 0.0
H178 H 0.52528 0.11824 0.85489 0.0
C179 C 0.58996 0.16852 0.82155 0.0
C180 C 0.99302 0.77593 0.43454 0.0
C181 C 0.97552 0.81707 0.47122 0.0
C182 C 0.93766 0.80325 0.51222 0.0
C183 C 0.92384 0.71198 0.4674 0.0
C184 C 0.96466 0.72515 0.43092 0.0
C185 C 0.96432 0.6875 0.38017 0.0
H186 H 0.86005 0.46998 0.22831 0.0
C187 C 0.89586 0.66056 0.44501 0.0
C188 C 0.91998 0.64598 0.39439 0.0
H189 H 0.98053 0.59433 0.1832 0.0
H190 H 0.97611 0.63754 0.27383 0.0
H191 H 0.89863 0.45461 0.35279 0.0
H192 H 0.77633 0.56736 0.30214 0.0
H193 H 0.75331 0.51318 0.34654 0.0
H194 H 0.77573 0.49569 0.27848 0.0
H195 H 0.83281 0.4288 0.33078 0.0
H196 H 0.84626 0.45568 0.40128 0.0
C197 C 0.01945 0.6605 0.37706 0.0
C198 C 0.94929 0.7225 0.32843 0.0
C199 C 0.71719 0.59427 0.52169 0.0
C200 C 0.68354 0.54765 0.50774 0.0
C201 C 0.70428 0.50276 0.47703 0.0
C202 C 0.75506 0.50773 0.45325 0.0
C203 C 0.78501 0.55792 0.46067 0.0
C204 C 0.76871 0.59767 0.49899 0.0
C205 C 0.80973 0.64493 0.50677 0.0
C206 C 0.85028 0.6292 0.46287 0.0
C207 C 0.83399 0.57948 0.43379 0.0
C208 C 0.83343 0.64315 0.56704 0.0
C209 C 0.78277 0.69994 0.49325 0.0
C210 C 0.88304 0.50845 0.23749 0.0
C211 C 0.91948 0.53016 0.19827 0.0
C212 C 0.95064 0.57854 0.21195 0.0
C213 C 0.94819 0.60339 0.2651 0.0
C214 C 0.91183 0.58178 0.30415 0.0
C215 C 0.87874 0.53605 0.28985 0.0
C216 C 0.84182 0.52032 0.33714 0.0
C217 C 0.85774 0.56542 0.3815 0.0
C218 C 0.89957 0.59988 0.3617 0.0
C219 C 0.85506 0.46161 0.35655 0.0
C220 C 0.78356 0.5243 0.31533 0.0
H221 H 0.88097 0.74235 0.54076 0.0
H222 H 0.02173 0.7863 0.40233 0.0
H223 H 0.93012 0.76184 0.34065 0.0
H224 H 0.91879 0.70094 0.30045 0.0
H225 H 0.98525 0.73415 0.30377 0.0
H226 H 0.03339 0.64882 0.4195 0.0
H227 H 0.05026 0.68983 0.35997 0.0
H228 H 0.01821 0.62143 0.35152 0.0
H229 H 0.70228 0.62892 0.54585 0.0
H230 H 0.67925 0.46608 0.46648 0.0
H231 H 0.76801 0.47373 0.4276 0.0
H232 H 0.83399 0.59969 0.58179 0.0
H233 H 0.8094 0.6673 0.59715 0.0
H234 H 0.87574 0.65869 0.56979 0.0
H235 H 0.75601 0.69409 0.45564 0.0
H236 H 0.81159 0.734 0.48306 0.0
H237 H 0.7581 0.71418 0.52879 0.0
H238 H 0.92388 0.83497 0.54102 0.0
C239 C 0.91218 0.74995 0.51112 0.0
C240 C 0.9091 0.71133 0.99298 0.0
C241 C 0.96059 0.69223 0.98263 0.0
C242 C -0.00326 0.72607 0.95183 0.0
C243 C 0.92687 0.78844 0.93081 0.0
C244 C 0.89363 0.76052 0.96758 0.0
C245 C 0.84176 0.78939 0.97491 0.0
H246 H 0.66483 0.96942 0.87691 0.0
C247 C 0.89672 0.83213 0.90414 0.0
C248 C 0.84725 0.83412 0.93092 0.0
H249 H 0.65774 0.87869 0.03048 0.0
H250 H 0.74517 0.84288 0.01268 0.0
H251 H 0.71254 0.87802 0.80175 0.0
H252 H 0.79385 0.01296 0.89546 0.0
H253 H 0.81988 0.01003 0.82721 0.0
H254 H 0.75004 0.02268 0.83647 0.0
H255 H 0.71606 0.94746 0.77613 0.0
H256 H 0.76807 0.89926 0.76219 0.0
C257 C 0.79451 0.74734 0.96099 0.0
C258 C 0.84099 0.81466 0.03553 0.0
C259 C 0.96816 0.92262 0.7277 0.0
C260 C 0.94554 0.95847 0.6893 0.0
C261 C 0.89224 0.97371 0.69602 0.0
C262 C 0.86226 0.95496 0.74166 0.0
C263 C 0.88587 0.92044 0.78089 0.0
C264 C 0.93742 0.90348 0.77263 0.0
C265 C 0.95529 0.86516 0.81752 0.0
C266 C 0.90635 0.86302 0.85489 0.0
C267 C 0.8662 0.89607 0.83349 0.0
C268 C 0.96505 0.80819 0.78868 0.0
C269 C 0.00533 0.89228 0.84841 0.0
C270 C 0.68287 0.94263 0.907 0.0
C271 C 0.65535 0.92689 0.95526 0.0
C272 C 0.67913 0.89169 0.99353 0.0
C273 C 0.72956 0.87083 0.98302 0.0
C274 C 0.75637 0.88578 0.934 0.0
C275 C 0.73378 0.92233 0.8977 0.0
C276 C 0.76951 0.93535 0.84911 0.0
C277 C 0.81748 0.9011 0.86281 0.0
C278 C 0.80879 0.87124 0.91189 0.0
C279 C 0.74024 0.91444 0.79421 0.0
C280 C 0.78409 -0.00141 0.85161 0.0
H281 H 0.00868 0.79603 0.90081 0.0
H282 H 0.88115 0.68766 0.01827 0.0
H283 H 0.88101 0.81486 0.05674 0.0
H284 H 0.8302 0.85892 0.03609 0.0
H285 H 0.81261 0.79082 0.06221 0.0
H286 H 0.80066 0.7258 0.91989 0.0
H287 H 0.79098 0.71528 0.99352 0.0
H288 H 0.7557 0.76739 0.9579 0.0
H289 H 0.00947 0.91119 0.72382 0.0
H290 H 0.87465 0.00227 0.66738 0.0
H291 H 0.82228 0.96911 0.74534 0.0
H292 H 0.92978 0.7941 0.76209 0.0
H293 H 0.00056 0.81126 0.76122 0.0
H294 H 0.97149 0.7748 0.81829 0.0
H295 H 0.00658 0.93841 0.84562 0.0
H296 H 0.0053 0.88461 0.89396 0.0
H297 H 0.04297 0.8773 0.83024 0.0
H298 H 0.0374 0.71393 0.94465 0.0
C299 C 0.98003 0.77358 0.92559 0.0
C300 C 0.82118 0.0911 0.45949 0.0
C301 C 0.84563 0.0463 0.43172 0.0
C302 C 0.81611 0.01556 0.38962 0.0
C303 C 0.74111 0.07483 0.40041 0.0
C304 C 0.7687 0.10474 0.44288 0.0
C305 C 0.73639 0.15264 0.4644 0.0
H306 H 0.5072 0.29748 0.44023 0.0
C307 C 0.68846 0.09901 0.39156 0.0
C308 C 0.6843 0.14401 0.42996 0.0
H309 H 0.65021 0.34639 0.53561 0.0
H310 H 0.68788 0.25671 0.51442 0.0
H311 H 0.5047 0.15666 0.46971 0.0
H312 H 0.55366 0.2708 0.34567 0.0
H313 H 0.55264 0.20791 0.30748 0.0
H314 H 0.49153 0.23152 0.33767 0.0
H315 H 0.4617 0.19178 0.4226 0.0
H316 H 0.48782 0.12502 0.40393 0.0
C317 C 0.7269 0.14574 0.52765 0.0
C318 C 0.76709 0.20765 0.45039 0.0
C319 C 0.57554 0.04357 0.21796 0.0
C320 C 0.52706 0.06392 0.19802 0.0
C321 C 0.49474 0.09352 0.23519 0.0
C322 C 0.51277 0.10785 0.28957 0.0
C323 C 0.56429 0.0937 0.3066 0.0
C324 C 0.59345 0.05912 0.2727 0.0
C325 C 0.6466 0.04711 0.29966 0.0
C326 C 0.64642 0.08511 0.35205 0.0
C327 C 0.59838 0.11284 0.35508 0.0
C328 C 0.64544 0.98459 0.31435 0.0
C329 C 0.69179 0.06477 0.25913 0.0
C330 C 0.54563 0.28785 0.45842 0.0
C331 C 0.57534 0.32821 0.49035 0.0
C332 C 0.62637 0.31535 0.51133 0.0
C333 C 0.64854 0.26379 0.4981 0.0
C334 C 0.62024 0.2256 0.46165 0.0
C335 C 0.5692 0.23779 0.44335 0.0
C336 C 0.54706 0.19647 0.39989 0.0
C337 C 0.59335 0.15793 0.39406 0.0
C338 C 0.63613 0.17423 0.43095 0.0
C339 C 0.49742 0.16589 0.42484 0.0
C340 C 0.53526 0.22785 0.34496 0.0
H341 H 0.74464 0.00412 0.34178 0.0
H342 H 0.84279 0.11571 0.49185 0.0
H343 H 0.78741 0.20376 0.40935 0.0
H344 H 0.74047 0.24268 0.44568 0.0
H345 H 0.79832 0.21908 0.48284 0.0
H346 H 0.71246 0.1024 0.53596 0.0
H347 H 0.76463 0.1545 0.55222 0.0
H348 H 0.69608 0.17316 0.54394 0.0
H349 H 0.6009 0.02049 0.19014 0.0
H350 H 0.45686 0.10882 0.22082 0.0
H351 H 0.4873 0.13242 0.31498 0.0
H352 H 0.60392 0.96578 0.31427 0.0
H353 H 0.66855 0.95993 0.28383 0.0
H354 H 0.66134 0.97821 0.35725 0.0
H355 H 0.68463 0.10654 0.24235 0.0
H356 H 0.73182 0.06825 0.27933 0.0
H357 H 0.69349 0.0348 0.22301 0.0
H358 H 0.83325 0.98048 0.36805 0.0
C359 C 0.76428 0.02915 0.37436 0.0
C360 C 0.46329 0.58758 0.31446 0.0
C361 C 0.44888 0.5396 0.3436 0.0
C362 C 0.39633 0.51651 0.33912 0.0
C363 C 0.37511 0.58579 0.2712 0.0
C364 C 0.42568 0.61049 0.27926 0.0
C365 C 0.43436 0.66212 0.24598 0.0
H366 H 0.35715 0.81164 0.02755 0.0
C367 C 0.34754 0.61714 0.22809 0.0
C368 C 0.38152 0.66269 0.21408 0.0
H369 H 0.49825 0.84152 0.13254 0.0
H370 H 0.46633 0.76989 0.19558 0.0
H371 H 0.27344 0.79804 0.13206 0.0
H372 H 0.35701 0.68798 0.0232 0.0
H373 H 0.29433 0.65464 0.03305 0.0
H374 H 0.29793 0.72171 0.00112 0.0
H375 H 0.25235 0.78269 0.06092 0.0
H376 H 0.22871 0.74089 0.11807 0.0
C377 C 0.44231 0.71278 0.2873 0.0
C378 C 0.48218 0.65335 0.20656 0.0
C379 C 0.17423 0.53638 0.1384 0.0
C380 C 0.14253 0.55403 0.09366 0.0
C381 C 0.15795 0.60315 0.06611 0.0
C382 C 0.20377 0.63457 0.08303 0.0
C383 C 0.23514 0.61658 0.12761 0.0
C384 C 0.22036 0.56837 0.15464 0.0
C385 C 0.25903 0.55622 0.20123 0.0
C386 C 0.2992 0.60529 0.19737 0.0
C387 C 0.28494 0.64004 0.15396 0.0
C388 C 0.22877 0.55705 0.2575 0.0
C389 C 0.2841 0.50005 0.18637 0.0
C390 C 0.38055 0.80341 0.06483 0.0
C391 C 0.43014 0.83129 0.07537 0.0
C392 C 0.45972 0.82023 0.12412 0.0
C393 C 0.44137 0.77842 0.1601 0.0
C394 C 0.39323 0.74787 0.14667 0.0
C395 C 0.36276 0.76232 0.10098 0.0
C396 C 0.31262 0.7263 0.09292 0.0
C397 C 0.31842 0.68666 0.14061 0.0
C398 C 0.36596 0.69878 0.17138 0.0
C399 C 0.26399 0.76358 0.10091 0.0
C400 C 0.31496 0.69619 0.03456 0.0
H401 H 0.31983 0.51968 0.29963 0.0
H402 H 0.50314 0.60704 0.31924 0.0
H403 H 0.47832 0.61157 0.18534 0.0
H404 H 0.48484 0.68351 0.17272 0.0
H405 H 0.52076 0.65603 0.2305 0.0
H406 H 0.42193 0.70514 0.32772 0.0
H407 H 0.48548 0.72206 0.29698 0.0
H408 H 0.42425 0.75055 0.27128 0.0
H409 H 0.1631 0.49915 0.16075 0.0
H410 H 0.13419 0.61794 0.03163 0.0
H411 H 0.21301 0.67153 0.06039 0.0
H412 H 0.19421 0.58468 0.2559 0.0
H413 H 0.21292 0.51477 0.26784 0.0
H414 H 0.25417 0.57422 0.29282 0.0
H415 H 0.29678 0.49891 0.14184 0.0
H416 H 0.32032 0.49237 0.21132 0.0
H417 H 0.25464 0.46477 0.19199 0.0
H418 H 0.38461 0.48014 0.36258 0.0
C419 C 0.35917 0.53938 0.30262 0.0
C420 C 0.01121 0.23962 0.57039 0.0
C421 C 0.03869 0.20049 0.53931 0.0
C422 C 0.07941 0.21861 0.50302 0.0
C423 C 0.07827 0.31049 0.54654 0.0
C424 C 0.03381 0.29338 0.57661 0.0
C425 C 0.02421 0.3311 0.62597 0.0
H426 H 0.10889 0.54204 0.79884 0.0
C427 C 0.09951 0.3637 0.5721 0.0
C428 C 0.06714 0.37628 0.61793 0.0
H429 H 0.98322 0.4168 0.823 0.0
H430 H 0.99373 0.38154 0.72891 0.0
H431 H 0.07214 0.56361 0.66844 0.0
H432 H 0.209 0.46213 0.70584 0.0
H433 H 0.21743 0.53638 0.69732 0.0
H434 H 0.19135 0.51078 0.75965 0.0
H435 H 0.13173 0.59385 0.7023 0.0
H436 H 0.13083 0.57275 0.62909 0.0
C437 C 0.96727 0.35339 0.61986 0.0
C438 C 0.03402 0.29796 0.6804 0.0
C439 C 0.28989 0.43827 0.53931 0.0
C440 C 0.31688 0.48685 0.5613 0.0
C441 C 0.28684 0.53075 0.58267 0.0
C442 C 0.23191 0.52328 0.59039 0.0
C443 C 0.20748 0.4712 0.57803 0.0
C444 C 0.23416 0.43188 0.54737 0.0
C445 C 0.19693 0.38289 0.53065 0.0
C446 C 0.14647 0.39731 0.56254 0.0
C447 C 0.15479 0.44789 0.59288 0.0
C448 C 0.18766 0.38291 0.46632 0.0
C449 C 0.22159 0.32928 0.5519 0.0
C450 C 0.08625 0.50474 0.78456 0.0
C451 C 0.04744 0.47982 0.81885 0.0
C452 C 0.01548 0.43426 0.79811 0.0
C453 C 0.02148 0.41415 0.74329 0.0
C454 C 0.06193 0.43774 0.70992 0.0
C455 C 0.09394 0.482 0.7307 0.0
C456 C 0.13319 0.50313 0.68802 0.0
C457 C 0.12293 0.46003 0.64024 0.0
C458 C 0.08017 0.42324 0.6532 0.0
C459 C 0.11655 0.56161 0.67106 0.0
C460 C 0.19077 0.50291 0.71357 0.0
H461 H 0.13278 0.28534 0.48069 0.0
H462 H 0.98054 0.22586 0.59929 0.0
H463 H 0.05592 0.25933 0.67234 0.0
H464 H 0.06024 0.32126 0.71149 0.0
H465 H 0.99566 0.28531 0.7004 0.0
H466 H 0.95904 0.3648 0.57576 0.0
H467 H 0.93632 0.32135 0.63149 0.0
H468 H 0.96198 0.39172 0.64544 0.0
H469 H 0.31193 0.40492 0.52061 0.0
H470 H 0.30658 0.56973 0.59695 0.0
H471 H 0.21063 0.55723 0.60771 0.0
H472 H 0.19296 0.42556 0.44976 0.0
H473 H 0.21628 0.3562 0.44423 0.0
H474 H 0.14618 0.36913 0.45398 0.0
H475 H 0.23409 0.33483 0.59674 0.0
H476 H 0.1935 0.29272 0.54951 0.0
H477 H 0.2575 0.31902 0.52738 0.0
H478 H 0.10096 0.18855 0.47851 0.0
C479 C 0.0988 0.27432 0.5057 0.0
O480 O 0.00995 0.02805 0.66841 0.0
Mg481 Mg 0.06051 0.06355 0.6096 0.0
O482 O 0.97856 0.97581 0.59705 0.0
Mg483 Mg 0.01263 0.00994 0.51084 0.0
O484 O 0.0298 0.10061 0.53936 0.0
O485 O 0.0647 0.14705 0.61518 0.0
O486 O 0.04235 0.05261 0.42551 0.0
O487 O 0.92363 0.03511 0.49191 0.0
Mg488 Mg -0.00303 0.96319 0.4218 0.0
O489 O 0.995 0.91441 0.48993 0.0
O490 O 0.06923 0.98013 0.37999 0.0
O491 O 0.92662 0.00687 0.40388 0.0
O492 O 0.97947 0.88382 0.40116 0.0
C493 C 0.14223 -0.00385 0.55774 0.0
C494 C 0.98008 0.98816 0.64955 0.0
C495 C 0.04348 0.14697 0.56551 0.0
C496 C 0.06807 0.03213 0.38465 0.0
C497 C 0.90171 0.03045 0.4432 0.0
C498 C 0.98422 0.87427 0.45381 0.0
O499 O 0.13473 0.02964 0.59831 0.0
O500 O 0.10387 0.98281 0.52311 0.0
O501 O 0.40423 0.12202 0.01178 0.0
Mg502 Mg 0.48507 0.13648 0.0365 0.0
O503 O 0.41199 0.03085 0.01638 0.0
Mg504 Mg 0.5008 0.00537 0.0084 0.0
O505 O 0.53034 0.09074 0.98471 0.0
O506 O 0.5375 0.1827 0.98751 0.0
O507 O 0.58664 0.97589 1.00023 0.0
O508 O 0.49247 0.00144 0.90881 0.0
Mg509 Mg 0.48128 0.9162 0.95571 0.0
O510 O 0.46762 0.91686 0.03958 0.0
O511 O 0.56379 0.91424 0.93293 0.0
O512 O 0.42275 0.94546 0.89954 0.0
O513 O 0.45529 0.84168 0.98145 0.0
C514 C 0.51513 0.0663 0.13749 0.0
C515 C 0.38312 0.07323 0.01351 0.0
C516 C 0.55124 0.13602 0.96548 0.0
C517 C 0.59954 0.94092 0.96232 0.0
C518 C 0.45382 0.98136 0.87848 0.0
C519 C 0.45314 0.86469 0.03074 0.0
O520 O 0.50416 0.11367 0.11917 0.0
O521 O 0.51664 0.02308 0.10505 0.0
O522 O 0.48676 0.61738 0.63238 0.0
Mg523 Mg 0.46411 0.53584 0.65841 0.0
O524 O 0.48368 0.59376 0.54134 0.0
Mg525 Mg 0.50134 0.49825 0.52742 0.0
O526 O 0.51225 0.48585 0.61707 0.0
O527 O 0.51082 0.48298 0.70833 0.0
O528 O 0.51843 0.40369 0.51378 0.0
O529 O 0.59614 0.51619 0.53227 0.0
Mg530 Mg 0.56221 0.50016 0.43601 0.0
O531 O 0.48266 0.51236 0.43227 0.0
O532 O 0.58679 0.41906 0.45783 0.0
O533 O 0.60594 0.57277 0.46413 0.0
O534 O 0.53556 0.50649 0.35672 0.0
C535 C 0.37503 0.49063 0.57221 0.0
C536 C 0.48245 0.63051 0.58122 0.0
C537 C 0.52964 0.46461 0.66182 0.0
C538 C 0.55982 0.38666 0.48876 0.0
C539 C 0.62524 0.55222 0.5074 0.0
C540 C 0.48963 0.5154 0.37855 0.0
O541 O 0.38949 0.51016 0.62058 0.0
O542 O 0.40855 0.48028 0.53347 0.0
O543 O 0.9615 0.37794 0.0504 0.0
Mg544 Mg 0.99203 0.45307 0.08953 0.0
O545 O 0.02935 0.41583 0.00965 0.0
Mg546 Mg 0.98541 0.5038 0.00988 0.0
O547 O 0.94511 0.51688 0.10232 0.0
O548 O 0.95833 0.44968 0.16471 0.0
O549 O 0.94265 0.59573 0.00818 0.0
O550 O 0.91094 0.45819 0.98081 0.0
Mg551 Mg 0.97936 0.54568 0.93738 0.0
O552 O 0.02624 0.48606 0.91668 0.0
O553 O 0.01811 0.61868 0.97333 0.0
O554 O 0.89581 0.52083 0.91913 0.0
O555 O 0.00648 0.55563 0.85973 0.0
C556 C 0.0917 0.52439 0.07732 0.0
C557 C 0.00435 0.37172 0.02471 0.0
C558 C 0.93766 0.49572 0.15165 0.0
C559 C 0.97562 0.63455 0.9941 0.0
C560 C 0.88177 0.47559 0.94198 0.0
C561 C 0.02917 0.50969 0.86827 0.0
O562 O 0.07602 0.47978 0.10069 0.0
O563 O 0.06163 0.54592 0.04138 0.0
loop_
_geom_bond_atom_site_label_1
_geom_bond_atom_site_label_2
_geom_bond_distance
_geom_bond_site_symmetry_2
_ccdc_geom_bond_type
C0 C1 1.391 . S
C0 C4 1.391 . S
C0 H42 0.958 . S
C1 C0 1.391 . S
C1 C2 1.391 . S
C2 C1 1.391 . S
C2 H58 0.947 1_455 S
C2 C59 1.392 . S
C3 C4 1.391 . S
C3 C7 1.397 . S
C3 C59 1.419 . S
C4 C0 1.391 . S
C4 C3 1.391 . S
C4 C5 1.399 . S
C5 C4 1.399 . S
C5 C8 1.396 . S
C5 C17 1.453 . S
C5 C18 1.684 1_545 S
H6 C30 0.948 1_556 S
C7 C3 1.397 . S
C7 C8 1.394 . S
C7 C26 1.723 . S
C8 C5 1.396 . S
C8 C7 1.394 . S
C8 C38 1.723 . S
H9 C32 0.947 1_565 S
H10 C33 0.948 . S
H11 C39 0.982 . S
H12 C40 0.979 . S
H13 C40 0.980 . S
H14 C40 0.983 . S
H15 C39 0.979 . S
H16 C39 0.977 . S
C17 C5 1.453 . S
C17 H46 0.982 . S
C17 H47 0.979 . S
C17 H48 0.977 . S
C18 C5 1.684 1_565 S
C18 H43 0.979 . S
C18 H44 0.980 . S
C18 H45 0.983 . S
C19 C20 1.391 . S
C19 C24 1.391 . S
C19 H49 0.948 . S
C20 C19 1.391 . S
C20 C21 1.392 1_554 S
C21 C20 1.392 1_556 S
C21 C22 1.392 1_556 S
C21 H50 0.946 . S
C22 C21 1.392 1_554 S
C22 C23 1.419 . S
C22 H51 0.948 1_554 S
C23 C22 1.419 . S
C23 C24 1.391 . S
C23 C27 1.397 . S
C24 C19 1.391 . S
C24 C23 1.391 . S
C24 C25 1.399 . S
C25 C24 1.399 . S
C25 C26 1.396 . S
C25 C28 1.453 . S
C25 C29 1.684 1_455 S
C26 C7 1.723 . S
C26 C25 1.396 . S
C26 C27 1.394 . S
C27 C23 1.397 . S
C27 C26 1.394 . S
C27 C37 1.723 . S
C28 C25 1.453 . S
C28 H52 0.982 . S
C28 H53 0.979 . S
C28 H54 0.977 . S
C29 C25 1.684 1_655 S
C29 H55 0.979 . S
C29 H56 0.980 . S
C29 H57 0.983 . S
C30 H6 0.948 1_554 S
C30 C31 1.391 . S
C30 C35 1.391 . S
C31 C30 1.391 . S
C31 C32 1.391 . S
C32 H9 0.947 1_545 S
C32 C31 1.391 . S
C32 C33 1.392 . S
C33 H10 0.948 . S
C33 C32 1.392 . S
C33 C34 1.419 . S
C34 C33 1.419 . S
C34 C35 1.391 . S
C34 C38 1.397 . S
C35 C30 1.391 . S
C35 C34 1.391 . S
C35 C36 1.399 . S
C36 C35 1.399 . S
C36 C37 1.396 . S
C36 C39 1.453 . S
C36 C40 1.684 1_554 S
C37 C27 1.723 . S
C37 C36 1.396 . S
C37 C38 1.394 . S
C38 C8 1.723 . S
C38 C34 1.397 . S
C38 C37 1.394 . S
C39 H11 0.982 . S
C39 H15 0.979 . S
C39 H16 0.977 . S
C39 C36 1.453 . S
C40 H12 0.979 . S
C40 H13 0.980 . S
C40 H14 0.983 . S
C40 C36 1.684 1_556 S
H41 C59 0.948 . S
H42 C0 0.958 . S
H43 C18 0.979 . S
H44 C18 0.980 . S
H45 C18 0.983 . S
H46 C17 0.982 . S
H47 C17 0.979 . S
H48 C17 0.977 . S
H49 C19 0.948 . S
H50 C21 0.946 . S
H51 C22 0.948 1_556 S
H52 C28 0.982 . S
H53 C28 0.979 . S
H54 C28 0.977 . S
H55 C29 0.979 . S
H56 C29 0.980 . S
H57 C29 0.983 . S
H58 C2 0.947 1_655 S
C59 C2 1.392 . S
C59 C3 1.419 . S
C59 H41 0.948 . S
C60 C61 1.391 . S
C60 C64 1.391 . S
C60 H102 0.948 . S
C61 C60 1.391 . S
C61 C62 1.391 . S
C62 C61 1.391 . S
C62 H118 0.947 1_565 S
C62 C119 1.392 . S
C63 C64 1.391 . S
C63 C67 1.397 . S
C63 C119 1.419 . S
C64 C60 1.391 . S
C64 C63 1.391 . S
C64 C65 1.399 . S
C65 C64 1.399 . S
C65 C68 1.396 . S
C65 C77 1.453 . S
C65 C78 1.684 . S
H66 C90 0.948 . S
C67 C63 1.397 . S
C67 C68 1.394 . S
C67 C86 1.723 . S
C68 C65 1.396 . S
C68 C67 1.394 . S
C68 C98 1.723 . S
H69 C92 0.947 . S
H70 C93 0.948 . S
H71 C99 0.982 . S
H72 C100 0.979 . S
H73 C100 0.980 . S
H74 C100 0.983 . S
H75 C99 0.979 . S
H76 C99 0.977 . S
C77 C65 1.453 . S
C77 H106 0.982 . S
C77 H107 0.979 . S
C77 H108 0.977 . S
C78 C65 1.684 . S
C78 H103 0.979 . S
C78 H104 0.980 . S
C78 H105 0.983 . S
C79 C80 1.391 . S
C79 C84 1.391 . S
C79 H109 0.948 1_565 S
C80 C79 1.391 . S
C80 C81 1.391 . S
C81 C80 1.391 . S
C81 C82 1.392 . S
C81 H110 0.947 . S
C82 C81 1.392 . S
C82 C83 1.419 . S
C82 H111 0.948 . S
C83 C82 1.419 . S
C83 C84 1.391 . S
C83 C87 1.397 . S
C84 C79 1.391 . S
C84 C83 1.391 . S
C84 C85 1.399 . S
C85 C84 1.399 . S
C85 C86 1.396 . S
C85 C88 1.453 1_565 S
C85 C89 1.684 . S
C86 C67 1.723 . S
C86 C85 1.396 . S
C86 C87 1.394 . S
C87 C83 1.397 . S
C87 C86 1.394 . S
C87 C97 1.723 . S
C88 C85 1.453 1_545 S
C88 H112 0.982 . S
C88 H113 0.979 . S
C88 H114 0.977 . S
C89 C85 1.684 . S
C89 H115 0.979 . S
C89 H116 0.980 . S
C89 H117 0.983 1_565 S
C90 H66 0.948 . S
C90 C91 1.391 . S
C90 C95 1.391 . S
C91 C90 1.391 . S
C91 C92 1.391 . S
C92 H69 0.947 . S
C92 C91 1.391 . S
C92 C93 1.392 . S
C93 H70 0.948 . S
C93 C92 1.392 . S
C93 C94 1.419 . S
C94 C93 1.419 . S
C94 C95 1.391 . S
C94 C98 1.397 . S
C95 C90 1.391 . S
C95 C94 1.391 . S
C95 C96 1.399 . S
C96 C95 1.399 . S
C96 C97 1.396 . S
C96 C99 1.453 . S
C96 C100 1.684 . S
C97 C87 1.723 . S
C97 C96 1.396 . S
C97 C98 1.394 . S
C98 C68 1.723 . S
C98 C94 1.397 . S
C98 C97 1.394 . S
C99 H71 0.982 . S
C99 H75 0.979 . S
C99 H76 0.977 . S
C99 C96 1.453 . S
C100 H72 0.979 . S
C100 H73 0.980 . S
C100 H74 0.983 . S
C100 C96 1.684 . S
H101 C119 0.948 . S
H102 C60 0.948 . S
H103 C78 0.979 . S
H104 C78 0.980 . S
H105 C78 0.983 . S
H106 C77 0.982 . S
H107 C77 0.979 . S
H108 C77 0.977 . S
H109 C79 0.948 1_545 S
H110 C81 0.947 . S
H111 C82 0.948 . S
H112 C88 0.982 . S
H113 C88 0.979 . S
H114 C88 0.977 . S
H115 C89 0.979 . S
H116 C89 0.980 . S
H117 C89 0.983 1_545 S
H118 C62 0.947 1_545 S
C119 C62 1.392 . S
C119 C63 1.419 . S
C119 H101 0.948 . S
C120 C121 1.391 . S
C120 C124 1.391 . S
C120 H162 0.948 . S
C121 C120 1.391 . S
C121 C122 1.391 . S
C122 C121 1.391 . S
C122 H178 0.947 . S
C122 C179 1.392 . S
C123 C124 1.391 . S
C123 C127 1.397 . S
C123 C179 1.419 . S
C124 C120 1.391 . S
C124 C123 1.391 . S
C124 C125 1.399 . S
C125 C124 1.399 . S
C125 C128 1.396 . S
C125 C137 1.453 1_556 S
C125 C138 1.684 . S
H126 C150 0.948 . S
C127 C123 1.397 . S
C127 C128 1.394 . S
C127 C146 1.723 . S
C128 C125 1.396 . S
C128 C127 1.394 . S
C128 C158 1.723 . S
H129 C152 0.947 1_554 S
H130 C153 0.948 . S
H131 C159 0.982 . S
H132 C160 0.979 . S
H133 C160 0.980 . S
H134 C160 0.983 . S
H135 C159 0.979 . S
H136 C159 0.977 . S
C137 C125 1.453 1_554 S
C137 H166 0.982 . S
C137 H167 0.979 . S
C137 H168 0.977 . S
C138 C125 1.684 . S
C138 H163 0.979 . S
C138 H164 0.980 . S
C138 H165 0.983 . S
C139 C140 1.391 . S
C139 C144 1.391 . S
C139 H169 0.948 . S
C140 C139 1.391 . S
C140 C141 1.391 . S
C141 C140 1.391 . S
C141 C142 1.392 . S
C141 H170 0.947 . S
C142 C141 1.392 . S
C142 C143 1.419 . S
C142 H171 0.948 . S
C143 C142 1.419 . S
C143 C144 1.391 . S
C143 C147 1.397 . S
C144 C139 1.391 . S
C144 C143 1.391 . S
C144 C145 1.399 . S
C145 C144 1.399 . S
C145 C146 1.396 . S
C145 C148 1.453 . S
C145 C149 1.684 . S
C146 C127 1.723 . S
C146 C145 1.396 . S
C146 C147 1.394 . S
C147 C143 1.397 . S
C147 C146 1.394 . S
C147 C157 1.723 . S
C148 C145 1.453 . S
C148 H172 0.982 . S
C148 H173 0.979 . S
C148 H174 0.977 . S
C149 C145 1.684 . S
C149 H175 0.979 . S
C149 H176 0.980 . S
C149 H177 0.983 . S
C150 H126 0.948 . S
C150 C151 1.391 . S
C150 C155 1.391 . S
C151 C150 1.391 . S
C151 C152 1.391 . S
C152 H129 0.947 1_556 S
C152 C151 1.391 . S
C152 C153 1.392 . S
C153 H130 0.948 . S
C153 C152 1.392 . S
C153 C154 1.419 . S
C154 C153 1.419 . S
C154 C155 1.391 . S
C154 C158 1.397 . S
C155 C150 1.391 . S
C155 C154 1.391 . S
C155 C156 1.399 . S
C156 C155 1.399 . S
C156 C157 1.396 . S
C156 C159 1.453 . S
C156 C160 1.684 . S
C157 C147 1.723 . S
C157 C156 1.396 . S
C157 C158 1.394 . S
C158 C128 1.723 . S
C158 C154 1.397 . S
C158 C157 1.394 . S
C159 H131 0.982 . S
C159 H135 0.979 . S
C159 H136 0.977 . S
C159 C156 1.453 . S
C160 H132 0.979 . S
C160 H133 0.980 . S
C160 H134 0.983 . S
C160 C156 1.684 . S
H161 C179 0.948 . S
H162 C120 0.948 . S
H163 C138 0.979 . S
H164 C138 0.980 . S
H165 C138 0.983 . S
H166 C137 0.982 . S
H167 C137 0.979 . S
H168 C137 0.977 . S
H169 C139 0.948 . S
H170 C141 0.947 . S
H171 C142 0.948 . S
H172 C148 0.982 . S
H173 C148 0.979 . S
H174 C148 0.977 . S
H175 C149 0.979 . S
H176 C149 0.980 . S
H177 C149 0.983 . S
H178 C122 0.947 . S
C179 C122 1.392 . S
C179 C123 1.419 . S
C179 H161 0.948 . S
C180 C181 1.391 . S
C180 C184 1.391 . S
C180 H222 0.948 1_655 S
C181 C180 1.391 . S
C181 C182 1.391 . S
C182 C181 1.391 . S
C182 H238 0.947 . S
C182 C239 1.392 . S
C183 C184 1.391 . S
C183 C187 1.397 . S
C183 C239 1.419 . S
C184 C180 1.391 . S
C184 C183 1.391 . S
C184 C185 1.399 . S
C185 C184 1.399 . S
C185 C188 1.396 . S
C185 C197 1.453 1_655 S
C185 C198 1.684 . S
H186 C210 0.948 . S
C187 C183 1.397 . S
C187 C188 1.394 . S
C187 C206 1.723 . S
C188 C185 1.396 . S
C188 C187 1.394 . S
C188 C218 1.723 . S
H189 C212 0.947 1_455 S
H190 C213 0.948 . S
H191 C219 0.982 . S
H192 C220 0.979 . S
H193 C220 0.980 . S
H194 C220 0.983 . S
H195 C219 0.979 . S
H196 C219 0.977 . S
C197 C185 1.453 1_455 S
C197 H226 0.982 . S
C197 H227 0.979 . S
C197 H228 0.977 . S
C198 C185 1.684 . S
C198 H223 0.979 . S
C198 H224 0.980 . S
C198 H225 0.983 1_655 S
C199 C200 1.391 . S
C199 C204 1.391 . S
C199 H229 0.948 . S
C200 C199 1.391 . S
C200 C201 1.391 . S
C201 C200 1.391 . S
C201 C202 1.392 . S
C201 H230 0.947 . S
C202 C201 1.392 . S
C202 C203 1.419 . S
C202 H231 0.948 . S
C203 C202 1.419 . S
C203 C204 1.391 . S
C203 C207 1.397 . S
C204 C199 1.391 . S
C204 C203 1.391 . S
C204 C205 1.399 . S
C205 C204 1.399 . S
C205 C206 1.396 . S
C205 C208 1.453 . S
C205 C209 1.684 . S
C206 C187 1.723 . S
C206 C205 1.396 . S
C206 C207 1.394 . S
C207 C203 1.397 . S
C207 C206 1.394 . S
C207 C217 1.723 . S
C208 C205 1.453 . S
C208 H232 0.982 . S
C208 H233 0.979 . S
C208 H234 0.977 . S
C209 C205 1.684 . S
C209 H235 0.979 . S
C209 H236 0.980 . S
C209 H237 0.983 . S
C210 H186 0.948 . S
C210 C211 1.391 . S
C210 C215 1.391 . S
C211 C210 1.391 . S
C211 C212 1.391 . S
C212 H189 0.947 1_655 S
C212 C211 1.391 . S
C212 C213 1.392 . S
C213 H190 0.948 . S
C213 C212 1.392 . S
C213 C214 1.419 . S
C214 C213 1.419 . S
C214 C215 1.391 . S
C214 C218 1.397 . S
C215 C210 1.391 . S
C215 C214 1.391 . S
C215 C216 1.399 . S
C216 C215 1.399 . S
C216 C217 1.396 . S
C216 C219 1.453 . S
C216 C220 1.684 . S
C217 C207 1.723 . S
C217 C216 1.396 . S
C217 C218 1.394 . S
C218 C188 1.723 . S
C218 C214 1.397 . S
C218 C217 1.394 . S
C219 H191 0.982 . S
C219 H195 0.979 . S
C219 H196 0.977 . S
C219 C216 1.453 . S
C220 H192 0.979 . S
C220 H193 0.980 . S
C220 H194 0.983 . S
C220 C216 1.684 . S
H221 C239 0.948 . S
H222 C180 0.948 1_455 S
H223 C198 0.979 . S
H224 C198 0.980 . S
H225 C198 0.983 1_455 S
H226 C197 0.982 . S
H227 C197 0.979 . S
H228 C197 0.977 . S
H229 C199 0.948 . S
H230 C201 0.947 . S
H231 C202 0.948 . S
H232 C208 0.982 . S
H233 C208 0.979 . S
H234 C208 0.977 . S
H235 C209 0.979 . S
H236 C209 0.980 . S
H237 C209 0.983 . S
H238 C182 0.947 . S
C239 C182 1.392 . S
C239 C183 1.419 . S
C239 H221 0.948 . S
C240 C241 1.391 . S
C240 C244 1.391 . S
C240 H282 0.948 1_556 S
C241 C240 1.391 . S
C241 C242 1.391 . S
C242 C241 1.391 . S
C242 H298 0.947 1_655 S
C242 C299 1.392 . S
C243 C244 1.391 . S
C243 C247 1.397 . S
C243 C299 1.419 . S
C244 C240 1.391 . S
C244 C243 1.391 . S
C244 C245 1.399 . S
C245 C244 1.399 . S
C245 C248 1.396 . S
C245 C257 1.453 . S
C245 C258 1.684 1_556 S
H246 C270 0.948 1_545 S
C247 C243 1.397 . S
C247 C248 1.394 . S
C247 C266 1.723 . S
C248 C245 1.396 . S
C248 C247 1.394 . S
C248 C278 1.723 . S
H249 C272 0.947 . S
H250 C273 0.948 1_554 S
H251 C279 0.982 . S
H252 C280 0.979 . S
H253 C280 0.980 . S
H254 C280 0.983 . S
H255 C279 0.979 . S
H256 C279 0.977 . S
C257 C245 1.453 . S
C257 H286 0.982 . S
C257 H287 0.979 1_556 S
C257 H288 0.977 . S
C258 C245 1.684 1_554 S
C258 H283 0.979 . S
C258 H284 0.980 . S
C258 H285 0.983 . S
C259 C260 1.391 . S
C259 C264 1.391 . S
C259 H289 0.948 1_655 S
C260 C259 1.391 . S
C260 C261 1.391 1_565 S
C261 C260 1.391 1_545 S
C261 C262 1.392 1_545 S
C261 H290 0.947 . S
C262 C261 1.392 1_565 S
C262 C263 1.419 . S
C262 H291 0.948 1_565 S
C263 C262 1.419 . S
C263 C264 1.391 . S
C263 C267 1.397 . S
C264 C259 1.391 . S
C264 C263 1.391 . S
C264 C265 1.399 . S
C265 C264 1.399 . S
C265 C266 1.396 . S
C265 C268 1.453 . S
C265 C269 1.684 1_655 S
C266 C247 1.723 . S
C266 C265 1.396 . S
C266 C267 1.394 . S
C267 C263 1.397 . S
C267 C266 1.394 . S
C267 C277 1.723 . S
C268 C265 1.453 . S
C268 H292 0.982 . S
C268 H293 0.979 . S
C268 H294 0.977 . S
C269 C265 1.684 1_455 S
C269 H295 0.979 . S
C269 H296 0.980 . S
C269 H297 0.983 . S
C270 H246 0.948 1_565 S
C270 C271 1.391 . S
C270 C275 1.391 . S
C271 C270 1.391 . S
C271 C272 1.391 1_556 S
C272 H249 0.947 . S
C272 C271 1.391 1_554 S
C272 C273 1.392 1_554 S
C273 H250 0.948 1_556 S
C273 C272 1.392 1_556 S
C273 C274 1.419 . S
C274 C273 1.419 . S
C274 C275 1.391 . S
C274 C278 1.397 . S
C275 C270 1.391 . S
C275 C274 1.391 . S
C275 C276 1.399 . S
C276 C275 1.399 . S
C276 C277 1.396 . S
C276 C279 1.453 . S
C276 C280 1.684 1_565 S
C277 C267 1.723 . S
C277 C276 1.396 . S
C277 C278 1.394 . S
C278 C248 1.723 . S
C278 C274 1.397 . S
C278 C277 1.394 . S
C279 H251 0.982 . S
C279 H255 0.979 . S
C279 H256 0.977 . S
C279 C276 1.453 . S
C280 H252 0.979 . S
C280 H253 0.980 . S
C280 H254 0.983 . S
C280 C276 1.684 1_545 S
H281 C299 0.940 1_455 S
H282 C240 0.948 1_554 S
H283 C258 0.979 . S
H284 C258 0.980 . S
H285 C258 0.983 . S
H286 C257 0.982 . S
H287 C257 0.979 1_554 S
H288 C257 0.977 . S
H289 C259 0.948 1_455 S
H290 C261 0.947 . S
H291 C262 0.948 1_545 S
H292 C268 0.982 . S
H293 C268 0.979 . S
H294 C268 0.977 . S
H295 C269 0.979 . S
H296 C269 0.980 . S
H297 C269 0.983 . S
H298 C242 0.947 1_455 S
C299 C242 1.392 . S
C299 C243 1.419 . S
C299 H281 0.940 1_655 S
C300 C301 1.391 . S
C300 C304 1.391 . S
C300 H342 0.948 . S
C301 C300 1.391 . S
C301 C302 1.391 . S
C302 C301 1.391 . S
C302 H358 0.947 1_545 S
C302 C359 1.392 . S
C303 C304 1.391 . S
C303 C307 1.397 . S
C303 C359 1.419 . S
C304 C300 1.391 . S
C304 C303 1.391 . S
C304 C305 1.399 . S
C305 C304 1.399 . S
C305 C308 1.396 . S
C305 C317 1.453 . S
C305 C318 1.684 . S
H306 C330 0.948 . S
C307 C303 1.397 . S
C307 C308 1.394 . S
C307 C326 1.723 . S
C308 C305 1.396 . S
C308 C307 1.394 . S
C308 C338 1.723 . S
H309 C332 0.947 . S
H310 C333 0.948 . S
H311 C339 0.982 . S
H312 C340 0.979 . S
H313 C340 0.980 . S
H314 C340 0.983 . S
H315 C339 0.979 . S
H316 C339 0.977 . S
C317 C305 1.453 . S
C317 H346 0.982 . S
C317 H347 0.979 . S
C317 H348 0.977 . S
C318 C305 1.684 . S
C318 H343 0.979 . S
C318 H344 0.980 . S
C318 H345 0.983 . S
C319 C320 1.391 . S
C319 C324 1.391 . S
C319 H349 0.948 . S
C320 C319 1.391 . S
C320 C321 1.391 . S
C321 C320 1.391 . S
C321 C322 1.392 . S
C321 H350 0.947 . S
C322 C321 1.392 . S
C322 C323 1.419 . S
C322 H351 0.948 . S
C323 C322 1.419 . S
C323 C324 1.391 . S
C323 C327 1.397 . S
C324 C319 1.391 . S
C324 C323 1.391 . S
C324 C325 1.399 . S
C325 C324 1.399 . S
C325 C326 1.396 . S
C325 C328 1.453 . S
C325 C329 1.684 . S
C326 C307 1.723 . S
C326 C325 1.396 . S
C326 C327 1.394 . S
C327 C323 1.397 . S
C327 C326 1.394 . S
C327 C337 1.723 . S
C328 C325 1.453 . S
C328 H352 0.982 1_545 S
C328 H353 0.979 1_545 S
C328 H354 0.977 1_545 S
C329 C325 1.684 . S
C329 H355 0.979 . S
C329 H356 0.980 . S
C329 H357 0.983 . S
C330 H306 0.948 . S
C330 C331 1.391 . S
C330 C335 1.391 . S
C331 C330 1.391 . S
C331 C332 1.391 . S
C332 H309 0.947 . S
C332 C331 1.391 . S
C332 C333 1.392 . S
C333 H310 0.948 . S
C333 C332 1.392 . S
C333 C334 1.419 . S
C334 C333 1.419 . S
C334 C335 1.391 . S
C334 C338 1.397 . S
C335 C330 1.391 . S
C335 C334 1.391 . S
C335 C336 1.399 . S
C336 C335 1.399 . S
C336 C337 1.396 . S
C336 C339 1.453 . S
C336 C340 1.684 . S
C337 C327 1.723 . S
C337 C336 1.396 . S
C337 C338 1.394 . S
C338 C308 1.723 . S
C338 C334 1.397 . S
C338 C337 1.394 . S
C339 H311 0.982 . S
C339 H315 0.979 . S
C339 H316 0.977 . S
C339 C336 1.453 . S
C340 H312 0.979 . S
C340 H313 0.980 . S
C340 H314 0.983 . S
C340 C336 1.684 . S
H341 C359 0.948 . S
H342 C300 0.948 . S
H343 C318 0.979 . S
H344 C318 0.980 . S
H345 C318 0.983 . S
H346 C317 0.982 . S
H347 C317 0.979 . S
H348 C317 0.977 . S
H349 C319 0.948 . S
H350 C321 0.947 . S
H351 C322 0.948 . S
H352 C328 0.982 1_565 S
H353 C328 0.979 1_565 S
H354 C328 0.977 1_565 S
H355 C329 0.979 . S
H356 C329 0.980 . S
H357 C329 0.983 . S
H358 C302 0.947 1_565 S
C359 C302 1.392 . S
C359 C303 1.419 . S
C359 H341 0.948 . S
C360 C361 1.391 . S
C360 C364 1.391 . S
C360 H402 0.948 . S
C361 C360 1.391 . S
C361 C362 1.391 . S
C362 C361 1.391 . S
C362 H418 0.947 . S
C362 C419 1.392 . S
C363 C364 1.391 . S
C363 C367 1.397 . S
C363 C419 1.419 . S
C364 C360 1.391 . S
C364 C363 1.391 . S
C364 C365 1.399 . S
C365 C364 1.399 . S
C365 C368 1.396 . S
C365 C377 1.453 . S
C365 C378 1.684 . S
H366 C390 0.948 . S
C367 C363 1.397 . S
C367 C368 1.394 . S
C367 C386 1.723 . S
C368 C365 1.396 . S
C368 C367 1.394 . S
C368 C398 1.723 . S
H369 C392 0.947 . S
H370 C393 0.948 . S
H371 C399 0.982 . S
H372 C400 0.979 . S
H373 C400 0.980 . S
H374 C400 0.983 . S
H375 C399 0.979 . S
H376 C399 0.977 . S
C377 C365 1.453 . S
C377 H406 0.982 . S
C377 H407 0.979 . S
C377 H408 0.977 . S
C378 C365 1.684 . S
C378 H403 0.979 . S
C378 H404 0.980 . S
C378 H405 0.983 . S
C379 C380 1.391 . S
C379 C384 1.391 . S
C379 H409 0.948 . S
C380 C379 1.391 . S
C380 C381 1.391 . S
C381 C380 1.391 . S
C381 C382 1.392 . S
C381 H410 0.947 1_554 S
C382 C381 1.392 . S
C382 C383 1.419 . S
C382 H411 0.948 . S
C383 C382 1.419 . S
C383 C384 1.391 . S
C383 C387 1.397 . S
C384 C379 1.391 . S
C384 C383 1.391 . S
C384 C385 1.399 . S
C385 C384 1.399 . S
C385 C386 1.396 . S
C385 C388 1.453 . S
C385 C389 1.684 . S
C386 C367 1.723 . S
C386 C385 1.396 . S
C386 C387 1.394 . S
C387 C383 1.397 . S
C387 C386 1.394 . S
C387 C397 1.723 . S
C388 C385 1.453 . S
C388 H412 0.982 . S
C388 H413 0.979 . S
C388 H414 0.977 . S
C389 C385 1.684 . S
C389 H415 0.979 . S
C389 H416 0.980 . S
C389 H417 0.983 . S
C390 H366 0.948 . S
C390 C391 1.391 . S
C390 C395 1.391 . S
C391 C390 1.391 . S
C391 C392 1.391 . S
C392 H369 0.947 . S
C392 C391 1.391 . S
C392 C393 1.392 . S
C393 H370 0.948 . S
C393 C392 1.392 . S
C393 C394 1.419 . S
C394 C393 1.419 . S
C394 C395 1.391 . S
C394 C398 1.397 . S
C395 C390 1.391 . S
C395 C394 1.391 . S
C395 C396 1.399 . S
C396 C395 1.399 . S
C396 C397 1.396 . S
C396 C399 1.453 . S
C396 C400 1.684 1_554 S
C397 C387 1.723 . S
C397 C396 1.396 . S
C397 C398 1.394 . S
C398 C368 1.723 . S
C398 C394 1.397 . S
C398 C397 1.394 . S
C399 H371 0.982 . S
C399 H375 0.979 . S
C399 H376 0.977 . S
C399 C396 1.453 . S
C400 H372 0.979 . S
C400 H373 0.980 . S
C400 H374 0.983 . S
C400 C396 1.684 1_556 S
H401 C419 0.948 . S
H402 C360 0.948 . S
H403 C378 0.979 . S
H404 C378 0.980 . S
H405 C378 0.983 . S
H406 C377 0.982 . S
H407 C377 0.979 . S
H408 C377 0.977 . S
H409 C379 0.948 . S
H410 C381 0.947 1_556 S
H411 C382 0.948 . S
H412 C388 0.982 . S
H413 C388 0.979 . S
H414 C388 0.977 . S
H415 C389 0.979 . S
H416 C389 0.980 . S
H417 C389 0.983 . S
H418 C362 0.947 . S
C419 C362 1.392 . S
C419 C363 1.419 . S
C419 H401 0.948 . S
C420 C421 1.391 . S
C420 C424 1.391 . S
C420 H462 0.948 1_455 S
C421 C420 1.391 . S
C421 C422 1.391 . S
C422 C421 1.391 . S
C422 H478 0.947 . S
C422 C479 1.392 . S
C423 C424 1.391 . S
C423 C427 1.397 . S
C423 C479 1.419 . S
C424 C420 1.391 . S
C424 C423 1.391 . S
C424 C425 1.399 . S
C425 C424 1.399 . S
C425 C428 1.396 . S
C425 C437 1.453 1_455 S
C425 C438 1.684 . S
H426 C450 0.948 . S
C427 C423 1.397 . S
C427 C428 1.394 . S
C427 C446 1.723 . S
C428 C425 1.396 . S
C428 C427 1.394 . S
C428 C458 1.723 . S
H429 C452 0.931 1_655 S
H430 C453 0.948 . S
H431 C459 0.982 . S
H432 C460 0.979 . S
H433 C460 0.980 . S
H434 C460 0.983 . S
H435 C459 0.979 . S
H436 C459 0.977 . S
C437 C425 1.453 1_655 S
C437 H466 0.982 . S
C437 H467 0.979 . S
C437 H468 0.977 . S
C438 C425 1.684 . S
C438 H463 0.979 . S
C438 H464 0.980 . S
C438 H465 0.983 1_455 S
C439 C440 1.391 . S
C439 C444 1.391 . S
C439 H469 0.948 . S
C440 C439 1.391 . S
C440 C441 1.391 . S
C441 C440 1.391 . S
C441 C442 1.392 . S
C441 H470 0.947 . S
C442 C441 1.392 . S
C442 C443 1.419 . S
C442 H471 0.948 . S
C443 C442 1.419 . S
C443 C444 1.391 . S
C443 C447 1.397 . S
C444 C439 1.391 . S
C444 C443 1.391 . S
C444 C445 1.399 . S
C445 C444 1.399 . S
C445 C446 1.396 . S
C445 C448 1.453 . S
C445 C449 1.684 . S
C446 C427 1.723 . S
C446 C445 1.396 . S
C446 C447 1.394 . S
C447 C443 1.397 . S
C447 C446 1.394 . S
C447 C457 1.723 . S
C448 C445 1.453 . S
C448 H472 0.982 . S
C448 H473 0.979 . S
C448 H474 0.977 . S
C449 C445 1.684 . S
C449 H475 0.979 . S
C449 H476 0.980 . S
C449 H477 0.983 . S
C450 H426 0.948 . S
C450 C451 1.391 . S
C450 C455 1.391 . S
C451 C450 1.391 . S
C451 C452 1.399 . S
C452 H429 0.931 1_455 S
C452 C451 1.399 . S
C452 C453 1.400 . S
C453 H430 0.948 . S
C453 C452 1.400 . S
C453 C454 1.419 . S
C454 C453 1.419 . S
C454 C455 1.391 . S
C454 C458 1.397 . S
C455 C450 1.391 . S
C455 C454 1.391 . S
C455 C456 1.399 . S
C456 C455 1.399 . S
C456 C457 1.396 . S
C456 C459 1.453 . S
C456 C460 1.684 . S
C457 C447 1.723 . S
C457 C456 1.396 . S
C457 C458 1.394 . S
C458 C428 1.723 . S
C458 C454 1.397 . S
C458 C457 1.394 . S
C459 H431 0.982 . S
C459 H435 0.979 . S
C459 H436 0.977 . S
C459 C456 1.453 . S
C460 H432 0.979 . S
C460 H433 0.980 . S
C460 H434 0.983 . S
C460 C456 1.684 . S
H461 C479 0.948 . S
H462 C420 0.948 1_655 S
H463 C438 0.979 . S
H464 C438 0.980 . S
H465 C438 0.983 1_655 S
H466 C437 0.982 . S
H467 C437 0.979 . S
H468 C437 0.977 . S
H469 C439 0.948 . S
H470 C441 0.947 . S
H471 C442 0.948 . S
H472 C448 0.982 . S
H473 C448 0.979 . S
H474 C448 0.977 . S
H475 C449 0.979 . S
H476 C449 0.980 . S
H477 C449 0.983 . S
H478 C422 0.947 . S
C479 C422 1.392 . S
C479 C423 1.419 . S
C479 H461 0.948 . S
O480 Mg481 1.990 . S
O480 C494 1.253 1_445 S
Mg481 O480 1.990 . S
Mg481 O484 2.180 . S
Mg481 O485 2.117 . S
Mg481 O499 2.030 1_545 S
O482 Mg483 2.072 1_665 S
O482 C494 1.260 . S
Mg483 O482 2.072 1_445 S
Mg483 O484 2.099 . S
Mg483 O486 2.079 . S
Mg483 O487 2.072 1_455 S
Mg483 O489 2.099 1_445 S
Mg483 O500 2.079 1_545 S
O484 Mg481 2.180 . S
O484 Mg483 2.099 . S
O484 C495 1.279 . S
O485 Mg481 2.117 . S
O485 C495 1.250 . S
O486 Mg483 2.079 . S
O486 C496 1.264 . S
O487 Mg483 2.072 1_655 S
O487 C497 1.260 . S
Mg488 O489 2.180 . S
Mg488 O490 2.030 1_565 S
Mg488 O491 1.990 1_565 S
Mg488 O492 2.117 . S
O489 Mg483 2.099 1_665 S
O489 Mg488 2.180 . S
O489 C498 1.279 . S
O490 Mg488 2.030 1_545 S
O490 C496 1.248 1_655 S
O491 Mg488 1.990 1_545 S
O491 C497 1.253 . S
O492 Mg488 2.117 . S
O492 C498 1.250 . S
C493 O499 1.248 . S
C493 O500 1.264 . S
C494 O480 1.253 1_665 S
C494 O482 1.260 . S
C495 O484 1.279 . S
C495 O485 1.250 . S
C496 O486 1.264 . S
C496 O490 1.248 1_455 S
C497 O487 1.260 . S
C497 O491 1.253 . S
C498 O489 1.279 . S
C498 O492 1.250 . S
O499 Mg481 2.030 1_565 S
O499 C493 1.248 . S
O500 Mg483 2.079 1_565 S
O500 C493 1.264 . S
O501 Mg502 1.990 . S
O501 C515 1.253 . S
Mg502 O501 1.990 . S
Mg502 O505 2.180 1_554 S
Mg502 O506 2.117 1_554 S
Mg502 O520 2.030 . S
O503 Mg504 2.072 . S
O503 C515 1.260 . S
Mg504 O503 2.072 . S
Mg504 O505 2.099 1_554 S
Mg504 O507 2.079 1_544 S
Mg504 O508 2.072 1_554 S
Mg504 O510 2.099 1_545 S
Mg504 O521 2.079 . S
O505 Mg502 2.180 1_556 S
O505 Mg504 2.099 1_556 S
O505 C516 1.279 . S
O506 Mg502 2.117 1_556 S
O506 C516 1.250 . S
O507 Mg504 2.079 1_566 S
O507 C517 1.264 . S
O508 Mg504 2.072 1_556 S
O508 C518 1.260 1_545 S
Mg509 O510 2.180 1_556 S
Mg509 O511 2.030 . S
Mg509 O512 1.990 . S
Mg509 O513 2.117 1_556 S
O510 Mg504 2.099 1_565 S
O510 Mg509 2.180 1_554 S
O510 C519 1.279 . S
O511 Mg509 2.030 . S
O511 C517 1.248 . S
O512 Mg509 1.990 . S
O512 C518 1.253 . S
O513 Mg509 2.117 1_554 S
O513 C519 1.250 . S
C514 O520 1.248 . S
C514 O521 1.264 . S
C515 O501 1.253 . S
C515 O503 1.260 . S
C516 O505 1.279 . S
C516 O506 1.250 . S
C517 O507 1.264 . S
C517 O511 1.248 . S
C518 O508 1.260 1_565 S
C518 O512 1.253 . S
C519 O510 1.279 . S
C519 O513 1.250 . S
O520 Mg502 2.030 . S
O520 C514 1.248 . S
O521 Mg504 2.079 . S
O521 C514 1.264 . S
O522 Mg523 1.990 . S
O522 C536 1.253 . S
Mg523 O522 1.990 . S
Mg523 O526 2.180 . S
Mg523 O527 2.117 . S
Mg523 O541 2.030 . S
O524 Mg525 2.072 . S
O524 C536 1.260 . S
Mg525 O524 2.072 . S
Mg525 O526 2.099 . S
Mg525 O528 2.079 . S
Mg525 O529 2.072 . S
Mg525 O531 2.099 . S
Mg525 O542 2.079 . S
O526 Mg523 2.180 . S
O526 Mg525 2.099 . S
O526 C537 1.279 . S
O527 Mg523 2.117 . S
O527 C537 1.250 . S
O528 Mg525 2.079 . S
O528 C538 1.264 . S
O529 Mg525 2.072 . S
O529 C539 1.260 . S
Mg530 O531 2.180 . S
Mg530 O532 2.030 . S
Mg530 O533 1.990 . S
Mg530 O534 2.117 . S
O531 Mg525 2.099 . S
O531 Mg530 2.180 . S
O531 C540 1.279 . S
O532 Mg530 2.030 . S
O532 C538 1.248 . S
O533 Mg530 1.990 . S
O533 C539 1.253 . S
O534 Mg530 2.117 . S
O534 C540 1.250 . S
C535 O541 1.248 . S
C535 O542 1.264 . S
C536 O522 1.253 . S
C536 O524 1.260 . S
C537 O526 1.279 . S
C537 O527 1.250 . S
C538 O528 1.264 . S
C538 O532 1.248 . S
C539 O529 1.260 . S
C539 O533 1.253 . S
C540 O531 1.279 . S
C540 O534 1.250 . S
O541 Mg523 2.030 . S
O541 C535 1.248 . S
O542 Mg525 2.079 . S
O542 C535 1.264 . S
O543 Mg544 1.990 . S
O543 C557 1.253 . S
Mg544 O543 1.990 . S
Mg544 O547 2.180 1_455 S
Mg544 O548 2.117 1_455 S
Mg544 O562 2.030 . S
O545 Mg546 2.072 . S
O545 C557 1.260 . S
Mg546 O545 2.072 . S
Mg546 O547 2.099 1_455 S
Mg546 O549 2.079 1_454 S
Mg546 O550 2.072 1_454 S
Mg546 O552 2.099 1_554 S
Mg546 O563 2.079 . S
O547 Mg544 2.180 1_655 S
O547 Mg546 2.099 1_655 S
O547 C558 1.279 . S
O548 Mg544 2.117 1_655 S
O548 C558 1.250 . S
O549 Mg546 2.079 1_656 S
O549 C559 1.264 . S
O550 Mg546 2.072 1_656 S
O550 C560 1.271 . S
Mg551 O552 2.180 1_655 S
Mg551 O553 2.030 . S
Mg551 O554 1.990 . S
Mg551 O555 2.105 1_655 S
O552 Mg546 2.099 1_556 S
O552 Mg551 2.180 1_455 S
O552 C561 1.279 . S
O553 Mg551 2.030 . S
O553 C559 1.248 . S
O554 Mg551 1.990 . S
O554 C560 1.253 . S
O555 Mg551 2.105 1_455 S
O555 C561 1.262 . S
C556 O562 1.248 . S
C556 O563 1.264 . S
C557 O543 1.253 . S
C557 O545 1.260 . S
C558 O547 1.279 . S
C558 O548 1.250 . S
C559 O549 1.264 . S
C559 O553 1.248 . S
C560 O550 1.271 . S
C560 O554 1.253 . S
C561 O552 1.279 . S
C561 O555 1.262 . S
O562 Mg544 2.030 . S
O562 C556 1.248 . S
O563 Mg546 2.079 . S
O563 C556 1.264 . S
C1 C496 1.506 . S
C80 C518 1.459 . S
C537 C140 1.043 . S
C211 C558 1.587 . S
C515 C31 2.104 . S
C493 C61 1.876 . S
C560 C151 1.311 . S
C539 C200 1.819 . S
C20 C557 2.035 . S
C516 C121 1.227 . S
C181 C498 2.080 . S
C91 C536 1.908 . S
C494 C260 1.618 . S
C320 C514 1.267 . S
C361 C540 1.185 . S
C451 C561 1.525 . S
C271 C517 2.055 . S
C497 C301 1.886 . S
C556 C380 1.268 . S
C535 C440 1.765 . S
C241 C559 1.802 . S
C519 C391 1.378 . S
C495 C421 1.902 . S
C331 C538 1.877 . S
