# Generated by pormake.
# Topology wbl, (4,4)-cn, num edge types: 1
# Building blocks:
#     Node 0, Type 0, BuildingBlock: MIFKUJ_clean_linker_1, # of connection points: 4
#     Node 1, Type 0, BuildingBlock: MIFKUJ_clean_linker_1, # of connection points: 4
#     Node 2, Type 0, BuildingBlock: MIFKUJ_clean_linker_1, # of connection points: 4
#     Node 3, Type 0, BuildingBlock: MIFKUJ_clean_linker_1, # of connection points: 4
#     Node 4, Type 0, BuildingBlock: MIFKUJ_clean_linker_1, # of connection points: 4
#     Node 5, Type 0, BuildingBlock: MIFKUJ_clean_linker_1, # of connection points: 4
#     Node 6, Type 0, BuildingBlock: MIFKUJ_clean_linker_1, # of connection points: 4
#     Node 7, Type 0, BuildingBlock: MIFKUJ_clean_linker_1, # of connection points: 4
#     Node 8, Type 1, BuildingBlock: CEKHIL_clean_sbu_0, # of connection points: 4
#     Node 9, Type 1, BuildingBlock: CEKHIL_clean_sbu_0, # of connection points: 4
#     Node 10, Type 1, BuildingBlock: CEKHIL_clean_sbu_0, # of connection points: 4
#     Node 11, Type 1, BuildingBlock: CEKHIL_clean_sbu_0, # of connection points: 4
#     Node 12, Type 1, BuildingBlock: CEKHIL_clean_sbu_0, # of connection points: 4
#     Node 13, Type 1, BuildingBlock: CEKHIL_clean_sbu_0, # of connection points: 4
#     Node 14, Type 1, BuildingBlock: CEKHIL_clean_sbu_0, # of connection points: 4
#     Node 15, Type 1, BuildingBlock: CEKHIL_clean_sbu_0, # of connection points: 4
#     Edge 16, Type (0, 1), BuildingBlock: MIFKUJ_clean_linker_0, # of connection points: 2
#     Edge 17, Type (0, 1), BuildingBlock: MIFKUJ_clean_linker_0, # of connection points: 2
#     Edge 18, Type (0, 1), BuildingBlock: MIFKUJ_clean_linker_0, # of connection points: 2
#     Edge 19, Type (0, 1), BuildingBlock: MIFKUJ_clean_linker_0, # of connection points: 2
#     Edge 20, Type (0, 1), BuildingBlock: MIFKUJ_clean_linker_0, # of connection points: 2
#     Edge 21, Type (0, 1), BuildingBlock: MIFKUJ_clean_linker_0, # of connection points: 2
#     Edge 22, Type (0, 1), BuildingBlock: MIFKUJ_clean_linker_0, # of connection points: 2
#     Edge 23, Type (0, 1), BuildingBlock: MIFKUJ_clean_linker_0, # of connection points: 2
#     Edge 24, Type (0, 1), BuildingBlock: MIFKUJ_clean_linker_0, # of connection points: 2
#     Edge 25, Type (0, 1), BuildingBlock: MIFKUJ_clean_linker_0, # of connection points: 2
#     Edge 26, Type (0, 1), BuildingBlock: MIFKUJ_clean_linker_0, # of connection points: 2
#     Edge 27, Type (0, 1), BuildingBlock: MIFKUJ_clean_linker_0, # of connection points: 2
#     Edge 28, Type (0, 1), BuildingBlock: MIFKUJ_clean_linker_0, # of connection points: 2
#     Edge 29, Type (0, 1), BuildingBlock: MIFKUJ_clean_linker_0, # of connection points: 2
#     Edge 30, Type (0, 1), BuildingBlock: MIFKUJ_clean_linker_0, # of connection points: 2
#     Edge 31, Type (0, 1), BuildingBlock: MIFKUJ_clean_linker_0, # of connection points: 2
#     Edge 32, Type (0, 1), BuildingBlock: MIFKUJ_clean_linker_0, # of connection points: 2
#     Edge 33, Type (0, 1), BuildingBlock: MIFKUJ_clean_linker_0, # of connection points: 2
#     Edge 34, Type (0, 1), BuildingBlock: MIFKUJ_clean_linker_0, # of connection points: 2
#     Edge 35, Type (0, 1), BuildingBlock: MIFKUJ_clean_linker_0, # of connection points: 2
#     Edge 36, Type (0, 1), BuildingBlock: MIFKUJ_clean_linker_0, # of connection points: 2
#     Edge 37, Type (0, 1), BuildingBlock: MIFKUJ_clean_linker_0, # of connection points: 2
#     Edge 38, Type (0, 1), BuildingBlock: MIFKUJ_clean_linker_0, # of connection points: 2
#     Edge 39, Type (0, 1), BuildingBlock: MIFKUJ_clean_linker_0, # of connection points: 2
#     Edge 40, Type (0, 1), BuildingBlock: MIFKUJ_clean_linker_0, # of connection points: 2
#     Edge 41, Type (0, 1), BuildingBlock: MIFKUJ_clean_linker_0, # of connection points: 2
#     Edge 42, Type (0, 1), BuildingBlock: MIFKUJ_clean_linker_0, # of connection points: 2
#     Edge 43, Type (0, 1), BuildingBlock: MIFKUJ_clean_linker_0, # of connection points: 2
#     Edge 44, Type (0, 1), BuildingBlock: MIFKUJ_clean_linker_0, # of connection points: 2
#     Edge 45, Type (0, 1), BuildingBlock: MIFKUJ_clean_linker_0, # of connection points: 2
#     Edge 46, Type (0, 1), BuildingBlock: MIFKUJ_clean_linker_0, # of connection points: 2
#     Edge 47, Type (0, 1), BuildingBlock: MIFKUJ_clean_linker_0, # of connection points: 2
# Relax obj value: 0.159
# Max RMSD: 0.158
# Mean RMSD: 0.137
data_MOF--net-wbl--node1-CEKHIL_clean_sbu_0--node2-MIFKUJ_clean_linker_1--edge1-MIFKUJ_clean_linker_0
_symmetry_space_group_name_H-M    P1
_symmetry_Int_Tables_number       1
_symmetry_cell_setting            triclinic
loop_
_symmetry_equiv_pos_as_xyz
'x, y, z'
_cell_length_a     57.098169
_cell_length_b     57.375978
_cell_length_c     93.689507
_cell_angle_alpha  90.338313
_cell_angle_beta   90.09812
_cell_angle_gamma 89.994211
loop_
_atom_site_label
_atom_site_type_symbol
_atom_site_fract_x
_atom_site_fract_y
_atom_site_fract_z
_atom_type_partial_charge
H0 H 0.0064 0.06376 0.34705 0.0
H1 H 0.97934 0.08622 0.36188 0.0
H2 H 0.92093 0.04927 0.34305 0.0
H3 H 0.94818 0.02681 0.32816 0.0
H4 H 0.0118 0.01708 0.34853 0.0
H5 H 0.99006 0.07296 0.31294 0.0
H6 H 0.95956 0.09445 0.30033 0.0
H7 H 0.93577 0.03025 0.28074 0.0
H8 H 0.96552 0.00872 0.29398 0.0
H9 H 0.01905 0.96081 0.2972 0.0
H10 H 0.04765 0.93254 0.2878 0.0
H11 H 0.10335 0.97025 0.30889 0.0
H12 H 0.07507 0.99873 0.31781 0.0
H13 H 0.01188 0.00806 0.2958 0.0
H14 H 0.02918 0.95238 0.33286 0.0
H15 H 0.05443 0.92927 0.34842 0.0
H16 H 0.08608 0.99262 0.3646 0.0
H17 H 0.06036 0.01556 0.34925 0.0
C18 C 0.97933 0.0436 0.33652 0.0
C19 C 0.98775 0.06066 0.346 0.0
C20 C 0.97228 0.07344 0.35448 0.0
C21 C 0.94803 0.06933 0.35372 0.0
C22 C 0.93951 0.05294 0.34378 0.0
C23 C 0.95505 0.04008 0.33529 0.0
C24 C 0.99613 0.02835 0.32881 0.0
C25 C 0.01201 0.01543 0.33698 0.0
C26 C 0.99601 0.02568 0.31377 0.0
C27 C 0.9797 0.03916 0.30466 0.0
C28 C 0.97828 0.06353 0.30591 0.0
C29 C 0.96099 0.07584 0.29856 0.0
C30 C 0.94501 0.06403 0.28966 0.0
C31 C 0.94747 0.03981 0.28775 0.0
C32 C 0.96462 0.02749 0.2952 0.0
C33 C 0.04489 0.98162 0.30842 0.0
C34 C 0.03747 0.96318 0.29957 0.0
C35 C 0.05373 0.94702 0.29429 0.0
C36 C 0.07753 0.94903 0.29791 0.0
C37 C 0.085 0.96806 0.30623 0.0
C38 C 0.06888 0.98434 0.31128 0.0
C39 C 0.02764 0.99708 0.31556 0.0
C40 C 0.01169 0.00991 0.30733 0.0
C41 C 0.02754 -0.00031 0.33058 0.0
C42 C 0.04294 0.98565 0.33992 0.0
C43 C 0.04164 0.96123 0.33974 0.0
C44 C 0.05619 0.94806 0.34856 0.0
C45 C 0.07231 0.95909 0.35775 0.0
C46 C 0.07364 0.98358 0.35781 0.0
C47 C 0.059 0.99673 0.34904 0.0
H48 H -0.00035 0.46716 0.54736 0.0
H49 H 0.97758 0.43615 0.53556 0.0
H50 H 0.91476 0.45888 0.55735 0.0
H51 H 0.93655 0.49094 0.5681 0.0
H52 H 0.99923 0.5131 0.54804 0.0
H53 H 0.98993 0.45324 0.58463 0.0
H54 H 0.96675 0.42538 0.59853 0.0
H55 H 0.92102 0.48119 0.61207 0.0
H56 H 0.94449 0.50904 0.59838 0.0
H57 H 0.99769 0.56548 0.60102 0.0
H58 H 0.02319 0.58998 0.61587 0.0
H59 H 0.08398 0.55813 0.59649 0.0
H60 H 0.05843 0.53345 0.58186 0.0
H61 H 0.9954 0.51734 0.60095 0.0
H62 H 0.00808 0.5777 0.56684 0.0
H63 H 0.03356 0.60565 0.55496 0.0
H64 H 0.07342 0.5489 0.53663 0.0
H65 H 0.04792 0.52088 0.5488 0.0
C66 C 0.96989 0.48106 0.55888 0.0
C67 C 0.98103 0.46571 0.54936 0.0
C68 C 0.96841 0.44777 0.54277 0.0
C69 C 0.94442 0.44464 0.54569 0.0
C70 C 0.93313 0.46072 0.55475 0.0
C71 C 0.94568 0.47891 0.5611 0.0
C72 C 0.98381 0.4985 0.56701 0.0
C73 C 0.99852 0.51387 0.55961 0.0
C74 C 0.98269 0.49989 0.58208 0.0
C75 C 0.96885 0.48313 0.59052 0.0
C76 C 0.97492 0.45943 0.59061 0.0
C77 C 0.96172 0.44359 0.59852 0.0
C78 C 0.94208 0.4512 0.60625 0.0
C79 C 0.93595 0.4749 0.60605 0.0
C80 C 0.9494 0.4908 0.59836 0.0
C81 C 0.02617 0.5477 0.59034 0.0
C82 C 0.01651 0.56393 0.59991 0.0
C83 C 0.03108 0.57807 0.60827 0.0
C84 C 0.05557 0.57599 0.60731 0.0
C85 C 0.06518 0.56004 0.5975 0.0
C86 C 0.05061 0.54602 0.58909 0.0
C87 C 0.01079 0.53185 0.582 0.0
C88 C 0.99593 0.5167 0.58938 0.0
C89 C 0.01188 0.53061 0.56694 0.0
C90 C 0.02622 0.54727 0.55874 0.0
C91 C 0.02222 0.57128 0.5602 0.0
C92 C 0.03671 0.58721 0.55334 0.0
C93 C 0.05548 0.57944 0.54487 0.0
C94 C 0.0592 0.55535 0.5432 0.0
C95 C 0.04456 0.53937 0.55002 0.0
H96 H 0.49549 0.56396 0.84603 0.0
H97 H 0.46733 0.58645 0.86028 0.0
H98 H 0.41261 0.53814 0.84837 0.0
H99 H 0.44079 0.51593 0.83391 0.0
H100 H 0.50467 0.51381 0.85057 0.0
H101 H 0.48159 0.56835 0.81408 0.0
H102 H 0.45038 0.58959 0.80184 0.0
H103 H 0.42206 0.52439 0.78624 0.0
H104 H 0.45307 0.50321 0.79877 0.0
H105 H 0.51366 0.45492 0.80155 0.0
H106 H 0.54428 0.42986 0.79142 0.0
H107 H 0.59683 0.47914 0.80564 0.0
H108 H 0.56629 0.5034 0.81616 0.0
H109 H 0.50235 0.5046 0.79784 0.0
H110 H 0.52734 0.45003 0.833 0.0
H111 H 0.55433 0.42828 0.84822 0.0
H112 H 0.57771 0.4928 0.86748 0.0
H113 H 0.55099 0.51455 0.85205 0.0
C114 C 0.47016 0.53836 0.83896 0.0
C115 C 0.47737 0.55842 0.84636 0.0
C116 C 0.46128 0.57129 0.85439 0.0
C117 C 0.43785 0.564 0.85536 0.0
C118 C 0.43059 0.54407 0.84777 0.0
C119 C 0.44661 0.53144 0.83953 0.0
C120 C 0.48749 0.52403 0.83115 0.0
C121 C 0.50444 0.51204 0.83904 0.0
C122 C 0.48665 0.5213 0.81616 0.0
C123 C 0.46939 0.53422 0.80748 0.0
C124 C 0.46873 0.55867 0.80794 0.0
C125 C 0.45103 0.57079 0.80084 0.0
C126 C 0.43371 0.55863 0.79317 0.0
C127 C 0.43503 0.53418 0.79223 0.0
C128 C 0.45278 0.52208 0.79929 0.0
C129 C 0.53782 0.48083 0.80969 0.0
C130 C 0.5318 0.46033 0.80232 0.0
C131 C 0.54931 0.44608 0.79654 0.0
C132 C 0.57307 0.45229 0.79791 0.0
C133 C 0.57881 0.47345 0.80474 0.0
C134 C 0.56137 0.48749 0.81063 0.0
C135 C 0.51982 0.49459 0.81728 0.0
C136 C 0.5027 0.50642 0.80938 0.0
C137 C 0.52051 0.49717 0.83231 0.0
C138 C 0.53731 0.48396 0.84127 0.0
C139 C 0.53859 0.45955 0.8403 0.0
C140 C 0.554 0.44712 0.849 0.0
C141 C 0.56812 0.45886 0.85901 0.0
C142 C 0.56688 0.4833 0.85993 0.0
C143 C 0.55163 0.49572 0.85114 0.0
H144 H 0.5017 0.96365 0.04409 0.0
H145 H 0.47863 0.9343 0.03149 0.0
H146 H 0.4185 0.95189 0.05742 0.0
H147 H 0.4413 0.98234 0.06929 0.0
H148 H 0.50103 0.00867 0.04768 0.0
H149 H 0.48903 0.9422 0.0781 0.0
H150 H 0.46792 0.91353 0.09257 0.0
H151 H 0.4406 0.9691 0.11892 0.0
H152 H 0.4607 0.99778 0.10412 0.0
H153 H 0.50466 0.05191 0.10311 0.0
H154 H 0.53011 0.07666 0.11773 0.0
H155 H 0.59034 0.05188 0.09424 0.0
H156 H 0.5648 0.02666 0.0799 0.0
H157 H 0.50488 0.0045 0.10052 0.0
H158 H 0.515 0.07043 0.07031 0.0
H159 H 0.5413 0.09917 0.05977 0.0
H160 H 0.57362 0.04507 0.03436 0.0
H161 H 0.54771 0.01606 0.04532 0.0
C162 C 0.4734 0.97487 0.05786 0.0
C163 C 0.48341 0.96152 0.04686 0.0
C164 C 0.47024 0.94453 0.03978 0.0
C165 C 0.44681 0.94034 0.04363 0.0
C166 C 0.43645 0.95463 0.05412 0.0
C167 C 0.44956 0.97189 0.06106 0.0
C168 C 0.48829 0.99097 0.06639 0.0
C169 C 0.50193 0.0076 0.05923 0.0
C170 C 0.48932 0.98985 0.08151 0.0
C171 C 0.47624 0.97222 0.0899 0.0
C172 C 0.47811 0.94827 0.08679 0.0
C173 C 0.46616 0.9319 0.09507 0.0
C174 C 0.45275 0.93922 0.10681 0.0
C175 C 0.45095 0.96309 0.10994 0.0
C176 C 0.46246 0.97944 0.10151 0.0
C177 C 0.53282 0.0375 0.09041 0.0
C178 C 0.52334 0.05185 0.1011 0.0
C179 C 0.53788 0.0662 0.10932 0.0
C180 C 0.56223 0.06636 0.10707 0.0
C181 C 0.57167 0.05208 0.09626 0.0
C182 C 0.5571 0.03774 0.08803 0.0
C183 C 0.51726 0.02213 0.08183 0.0
C184 C 0.50368 0.00559 0.08898 0.0
C185 C 0.51624 0.0233 0.06677 0.0
C186 C 0.52975 0.04104 0.05883 0.0
C187 C 0.52771 0.06472 0.06246 0.0
C188 C 0.54272 0.0811 0.05646 0.0
C189 C 0.55965 0.07418 0.04645 0.0
C190 C 0.56072 0.05074 0.0421 0.0
C191 C 0.54591 0.03424 0.04831 0.0
H192 H 0.99761 0.56861 0.90609 0.0
H193 H 0.0246 0.59259 0.89206 0.0
H194 H 0.08119 0.54554 0.90225 0.0
H195 H 0.05416 0.52173 0.91632 0.0
H196 H 0.98862 0.51801 0.90199 0.0
H197 H 0.01619 0.57363 0.93791 0.0
H198 H 0.04959 0.59442 0.94833 0.0
H199 H 0.07962 0.52874 0.96135 0.0
H200 H 0.04638 0.50806 0.95067 0.0
H201 H 0.987 0.4632 0.95379 0.0
H202 H 0.95865 0.43944 0.96699 0.0
H203 H 0.90217 0.48083 0.94975 0.0
H204 H 0.93043 0.50457 0.93685 0.0
H205 H 0.99707 0.51022 0.95452 0.0
H206 H 0.97245 0.45409 0.92076 0.0
H207 H 0.9475 0.42937 0.90582 0.0
H208 H 0.91684 0.49071 0.88688 0.0
H209 H 0.94154 0.51542 0.9021 0.0
C210 C 0.02396 0.54348 0.9122 0.0
C211 C 0.01585 0.56354 0.9053 0.0
C212 C 0.03128 0.57728 0.89742 0.0
C213 C 0.05495 0.57091 0.89614 0.0
C214 C 0.063 0.55076 0.90304 0.0
C215 C 0.04764 0.53721 0.91107 0.0
C216 C 0.00769 0.52908 0.92066 0.0
C217 C 0.99009 0.51663 0.91351 0.0
C218 C 0.01039 0.5266 0.93556 0.0
C219 C 0.02897 0.53932 0.94341 0.0
C220 C 0.02988 0.56376 0.94314 0.0
C221 C 0.04889 0.57561 0.94916 0.0
C222 C 0.0673 0.56318 0.95555 0.0
C223 C 0.06584 0.53875 0.95632 0.0
C224 C 0.04679 0.52693 0.95034 0.0
C225 C 0.96076 0.48552 0.9443 0.0
C226 C 0.96851 0.46721 0.95299 0.0
C227 C 0.95234 0.45359 0.96043 0.0
C228 C 0.92824 0.45834 0.95942 0.0
C229 C 0.92064 0.47695 0.95089 0.0
C230 C 0.93674 0.4904 0.94342 0.0
C231 C 0.97756 0.49941 0.93589 0.0
C232 C 0.99531 0.51176 0.94303 0.0
C233 C 0.97524 0.50146 0.9209 0.0
C234 C 0.95879 0.48661 0.91259 0.0
C235 C 0.96002 0.46224 0.91361 0.0
C236 C 0.94587 0.44812 0.905 0.0
C237 C 0.93022 0.4581 0.89518 0.0
C238 C 0.9285 0.48252 0.89448 0.0
C239 C 0.94275 0.49665 0.90306 0.0
H240 H 0.50848 0.5488 0.20347 0.0
H241 H 0.48533 0.57764 0.21642 0.0
H242 H 0.42305 0.554 0.19429 0.0
H243 H 0.44599 0.52392 0.1824 0.0
H244 H 0.51063 0.5035 0.20125 0.0
H245 H 0.4906 0.56559 0.16857 0.0
H246 H 0.46417 0.59143 0.15551 0.0
H247 H 0.43247 0.53145 0.13506 0.0
H248 H 0.45801 0.50583 0.14865 0.0
H249 H 0.50261 0.45019 0.15124 0.0
H250 H 0.52412 0.42211 0.13664 0.0
H251 H 0.58911 0.45642 0.14793 0.0
H252 H 0.56738 0.48372 0.16308 0.0
H253 H 0.50357 0.50088 0.14844 0.0
H254 H 0.51436 0.44058 0.18353 0.0
H255 H 0.53907 0.41104 0.19465 0.0
H256 H 0.58734 0.46469 0.20841 0.0
H257 H 0.56243 0.4943 0.19708 0.0
C258 C 0.47913 0.53458 0.19165 0.0
C259 C 0.48975 0.54954 0.20163 0.0
C260 C 0.47649 0.56626 0.20889 0.0
C261 C 0.45232 0.56864 0.2062 0.0
C262 C 0.44154 0.55277 0.19674 0.0
C263 C 0.45474 0.53572 0.18973 0.0
C264 C 0.49365 0.51854 0.18285 0.0
C265 C 0.5093 0.5033 0.1897 0.0
C266 C 0.49173 0.5178 0.16774 0.0
C267 C 0.47613 0.53375 0.1597 0.0
C268 C 0.47775 0.55804 0.16139 0.0
C269 C 0.46274 0.5728 0.15384 0.0
C270 C 0.44605 0.56354 0.1443 0.0
C271 C 0.44472 0.53921 0.14254 0.0
C272 C 0.45955 0.5245 0.15017 0.0
C273 C 0.53342 0.46901 0.15816 0.0
C274 C 0.52151 0.45155 0.15058 0.0
C275 C 0.53387 0.43559 0.14218 0.0
C276 C 0.55841 0.43705 0.14096 0.0
C277 C 0.5703 0.45451 0.14874 0.0
C278 C 0.55791 0.47027 0.15731 0.0
C279 C 0.52012 0.48603 0.16688 0.0
C280 C 0.50494 0.50146 0.15999 0.0
C281 C 0.52231 0.48691 0.18187 0.0
C282 C 0.53664 0.46954 0.1895 0.0
C283 C 0.53018 0.44598 0.18903 0.0
C284 C 0.54426 0.42916 0.19543 0.0
C285 C 0.56511 0.43559 0.20242 0.0
C286 C 0.57144 0.45927 0.20301 0.0
C287 C 0.55719 0.47616 0.19667 0.0
H288 H 0.50574 0.94418 0.40681 0.0
H289 H 0.47988 0.9209 0.39164 0.0
H290 H 0.42342 0.96947 0.39985 0.0
H291 H 0.44925 0.99183 0.4157 0.0
H292 H 0.51177 0.99733 0.40129 0.0
H293 H 0.48874 0.93901 0.43623 0.0
H294 H 0.45717 0.91766 0.44794 0.0
H295 H 0.43144 0.98222 0.46605 0.0
H296 H 0.46243 0.00354 0.4538 0.0
H297 H 0.51939 0.04923 0.45457 0.0
H298 H 0.54904 0.07298 0.46692 0.0
H299 H 0.60366 0.0344 0.44536 0.0
H300 H 0.57415 0.01061 0.43335 0.0
H301 H 0.51037 0.00207 0.45421 0.0
H302 H 0.5298 0.06077 0.42137 0.0
H303 H 0.55345 0.08666 0.40667 0.0
H304 H 0.58064 0.02703 0.38367 0.0
H305 H 0.55761 0.00115 0.39881 0.0
C306 C 0.47937 0.9697 0.41227 0.0
C307 C 0.48769 0.94956 0.40547 0.0
C308 C 0.47288 0.93639 0.39673 0.0
C309 C 0.44959 0.94348 0.39429 0.0
C310 C 0.44113 0.96331 0.40155 0.0
C311 C 0.45589 0.97625 0.41053 0.0
C312 C 0.49571 0.98459 0.42047 0.0
C313 C 0.51178 0.99812 0.41287 0.0
C314 C 0.4949 0.98626 0.43551 0.0
C315 C 0.47758 0.97291 0.44389 0.0
C316 C 0.47626 0.94854 0.44271 0.0
C317 C 0.45838 0.93633 0.44955 0.0
C318 C 0.44164 0.94829 0.45779 0.0
C319 C 0.4438 0.97256 0.45955 0.0
C320 C 0.4616 0.98475 0.45265 0.0
C321 C 0.54461 0.02827 0.443 0.0
C322 C 0.53778 0.04581 0.45264 0.0
C323 C 0.55468 0.05946 0.45958 0.0
C324 C 0.57865 0.05552 0.45712 0.0
C325 C 0.58535 0.03768 0.44762 0.0
C326 C 0.56851 0.02417 0.44066 0.0
C327 C 0.52694 0.01446 0.43504 0.0
C328 C 0.51056 0.0012 0.44264 0.0
C329 C 0.52712 0.01338 0.41994 0.0
C330 C 0.5421 0.02899 0.41129 0.0
C331 C 0.54117 0.05324 0.41333 0.0
C332 C 0.55451 0.06804 0.40482 0.0
C333 C 0.56891 0.05892 0.39398 0.0
C334 C 0.56998 0.03461 0.39204 0.0
C335 C 0.55666 0.0198 0.4006 0.0
H336 H 0.99933 0.05013 0.70598 0.0
H337 H 0.97468 0.07795 0.71875 0.0
H338 H 0.91644 0.06005 0.69122 0.0
H339 H 0.94083 0.03114 0.67912 0.0
H340 H -0.00016 0.00506 0.70144 0.0
H341 H 0.98836 0.07332 0.67161 0.0
H342 H 0.96794 0.10194 0.65667 0.0
H343 H 0.94158 0.04613 0.63006 0.0
H344 H 0.96137 0.01763 0.64512 0.0
H345 H 0.00705 0.96785 0.64406 0.0
H346 H 0.03273 0.94307 0.62985 0.0
H347 H 0.09068 0.9604 0.65776 0.0
H348 H 0.06522 0.98658 0.67124 0.0
H349 H 0.00658 0.01268 0.64888 0.0
H350 H 0.01283 0.94505 0.67831 0.0
H351 H 0.03807 0.91485 0.68828 0.0
H352 H 0.0736 0.96676 0.71393 0.0
H353 H 0.04832 0.9971 0.70376 0.0
C354 C 0.9721 0.03893 0.69138 0.0
C355 C 0.98113 0.05188 0.70287 0.0
C356 C 0.96706 0.06797 0.71007 0.0
C357 C 0.94368 0.07161 0.70584 0.0
C358 C 0.93432 0.0577 0.69481 0.0
C359 C 0.94834 0.04135 0.68774 0.0
C360 C 0.98787 0.02374 0.68287 0.0
C361 C 0.0014 0.0069 0.68996 0.0
C362 C 0.98967 0.02575 0.66784 0.0
C363 C 0.97634 0.04329 0.65951 0.0
C364 C 0.97781 0.06723 0.66273 0.0
C365 C 0.96618 0.08355 0.65421 0.0
C366 C 0.95336 0.07618 0.6422 0.0
C367 C 0.95157 0.05225 0.63918 0.0
C368 C 0.96288 0.03598 0.64777 0.0
C369 C 0.0341 0.97893 0.65881 0.0
C370 C 0.02534 0.96645 0.64705 0.0
C371 C 0.04001 0.95196 0.63906 0.0
C372 C 0.0638 0.94943 0.64273 0.0
C373 C 0.07254 0.96201 0.65453 0.0
C374 C 0.05792 0.97682 0.66237 0.0
C375 C 0.0182 0.99398 0.66739 0.0
C376 C 0.00483 0.01084 0.66034 0.0
C377 C 0.01624 0.99181 0.68238 0.0
C378 C 0.02898 0.97332 0.69014 0.0
C379 C 0.02591 0.9499 0.68617 0.0
C380 C 0.04043 0.93272 0.69179 0.0
C381 C 0.05808 0.93859 0.70164 0.0
C382 C 0.06018 0.96183 0.7063 0.0
C383 C 0.04572 0.97911 0.70056 0.0
Co384 Co 0.32051 0.67849 0.00565 0.0
O385 O 0.29928 0.65292 0.00306 0.0
O386 O 0.29135 0.6897 0.99765 0.0
C387 C 0.33209 0.66943 0.02793 0.0
O388 O 0.33802 0.70935 0.00725 0.0
Co389 Co 0.37368 0.66815 0.00968 0.0
O390 O 0.37555 0.70221 0.01324 0.0
C391 C 0.35095 0.65966 0.98204 0.0
C392 C 0.2846 0.66805 0.99803 0.0
C393 C 0.35871 0.71626 0.0108 0.0
O394 O 0.33352 0.67238 0.98595 0.0
O395 O 0.36746 0.65364 0.99051 0.0
O396 O 0.31257 0.68064 0.02598 0.0
O397 O 0.34235 0.66217 0.01649 0.0
Co398 Co 0.32439 0.82951 0.24439 0.0
O399 O 0.30307 0.85515 0.24639 0.0
O400 O 0.29493 0.81865 0.25213 0.0
C401 C 0.33654 0.83854 0.2222 0.0
O402 O 0.34163 0.79834 0.24311 0.0
Co403 Co 0.37783 0.83839 0.24028 0.0
O404 O 0.37847 0.80477 0.23559 0.0
C405 C 0.35667 0.84361 0.26891 0.0
C406 C 0.28805 0.84022 0.25126 0.0
C407 C 0.36175 0.79104 0.23874 0.0
O408 O 0.33691 0.83573 0.2643 0.0
O409 O 0.37433 0.84728 0.26083 0.0
O410 O 0.31709 0.82715 0.22396 0.0
O411 O 0.34661 0.84567 0.23375 0.0
Co412 Co 0.17889 0.82265 0.49575 0.0
O413 O 0.15324 0.80161 0.49841 0.0
O414 O 0.19045 0.7931 0.50269 0.0
C415 C 0.16766 0.83525 0.47408 0.0
O416 O 0.21011 0.8396 0.49362 0.0
Co417 Co 0.17019 0.87596 0.49266 0.0
O418 O 0.20285 0.87581 0.4857 0.0
C419 C 0.16869 0.85438 0.52116 0.0
C420 C 0.16867 0.78642 0.50248 0.0
C421 C 0.21697 0.85926 0.48851 0.0
O422 O 0.17494 0.83457 0.51593 0.0
O423 O 0.16487 0.87255 0.51365 0.0
O424 O 0.17906 0.81575 0.47528 0.0
O425 O 0.16172 0.84518 0.48593 0.0
Co426 Co 0.17382 0.69259 0.75789 0.0
O427 O 0.14818 0.71366 0.75518 0.0
O428 O 0.18514 0.7215 0.74987 0.0
C429 C 0.16366 0.68175 0.7801 0.0
O430 O 0.20502 0.67546 0.75986 0.0
Co431 Co 0.16471 0.63969 0.7626 0.0
O432 O 0.1977 0.64006 0.76899 0.0
C433 C 0.16171 0.65918 0.73354 0.0
C434 C 0.16343 0.72839 0.75037 0.0
C435 C 0.21188 0.65613 0.76543 0.0
O436 O 0.16861 0.67924 0.73811 0.0
O437 O 0.15799 0.64174 0.74168 0.0
O438 O 0.17515 0.70101 0.77815 0.0
O439 O 0.15704 0.67098 0.76866 0.0
Co440 Co 0.83451 0.19109 0.49509 0.0
O441 O 0.85951 0.21322 0.49676 0.0
O442 O 0.82259 0.22026 0.50264 0.0
C443 C 0.84393 0.17858 0.47298 0.0
O444 O 0.80392 0.17282 0.49428 0.0
Co445 Co 0.84545 0.13827 0.4916 0.0
O446 O 0.81137 0.13565 0.48798 0.0
C447 C 0.85346 0.16184 0.51926 0.0
C448 C 0.84406 0.22772 0.50172 0.0
C449 C 0.79712 0.15219 0.4907 0.0
O450 O 0.8417 0.17966 0.515 0.0
O451 O 0.85864 0.14468 0.51106 0.0
O452 O 0.83149 0.19739 0.4746 0.0
O453 O 0.85155 0.16928 0.48458 0.0
Co454 Co 0.82041 0.33319 0.74457 0.0
O455 O 0.79981 0.35917 0.74773 0.0
O456 O 0.79121 0.32228 0.75247 0.0
C457 C 0.8315 0.34317 0.72236 0.0
O458 O 0.83666 0.3017 0.74231 0.0
Co459 Co 0.87378 0.34059 0.73966 0.0
O460 O 0.87352 0.30711 0.73461 0.0
C461 C 0.85401 0.34585 0.76863 0.0
C462 C 0.7848 0.34403 0.75239 0.0
C463 C 0.85639 0.29385 0.7377 0.0
O464 O 0.83407 0.33802 0.76431 0.0
O465 O 0.87133 0.34954 0.76028 0.0
O466 O 0.81184 0.33227 0.72434 0.0
O467 O 0.84256 0.3494 0.73378 0.0
Co468 Co 0.67746 0.3162 0.99424 0.0
O469 O 0.65399 0.29236 0.99366 0.0
O470 O 0.69105 0.28684 -8e-05 0.0
C471 C 0.66848 0.33209 0.97298 0.0
O472 O 0.70673 0.33622 0.99539 0.0
Co473 Co 0.66323 0.36855 0.99455 0.0
O474 O 0.69734 0.37391 0.99217 0.0
C475 C 0.65566 0.33968 0.01994 0.0
C476 C 0.67029 0.27812 0.99779 0.0
C477 C 0.71243 0.35773 0.99373 0.0
O478 O 0.66902 0.3237 0.01473 0.0
O479 O 0.6491 0.35758 0.01291 0.0
O480 O 0.68168 0.31364 0.97353 0.0
O481 O 0.65966 0.3388 0.98498 0.0
Co482 Co 0.68117 0.18909 0.256 0.0
O483 O 0.65548 0.21022 0.25327 0.0
O484 O 0.69224 0.21737 0.24715 0.0
C485 C 0.67224 0.1796 0.2786 0.0
O486 O 0.71249 0.17214 0.25769 0.0
Co487 Co 0.67243 0.13646 0.26208 0.0
O488 O 0.70643 0.13594 0.26597 0.0
C489 C 0.66757 0.1543 0.23271 0.0
C490 C 0.67066 0.22453 0.24788 0.0
C491 C 0.72006 0.15241 0.26234 0.0
O492 O 0.67489 0.17456 0.23665 0.0
O493 O 0.66422 0.13739 0.24132 0.0
O494 O 0.68356 0.19875 0.27603 0.0
O495 O 0.66496 0.1681 0.26759 0.0
H496 H 0.10797 0.9252 0.31462 0.0
H497 H 0.14052 0.90051 0.30683 0.0
H498 H 0.1191 0.90907 0.26298 0.0
H499 H 0.08603 0.93333 0.27082 0.0
H500 H 0.13772 0.86562 0.26743 0.0
H501 H 0.15859 0.94561 0.27721 0.0
H502 H 0.16048 0.98116 0.2921 0.0
H503 H 0.20056 0.94449 0.32363 0.0
H504 H 0.19858 0.9086 0.30902 0.0
H505 H 0.26915 0.88331 0.24821 0.0
H506 H 0.23072 0.89682 0.25579 0.0
H507 H 0.21479 0.82835 0.27193 0.0
H508 H 0.25341 0.81448 0.26407 0.0
H509 H 0.21404 0.90002 0.28173 0.0
H510 H 0.15391 0.82125 0.27003 0.0
H511 H 0.15126 0.78789 0.25336 0.0
H512 H 0.19013 0.82604 0.22202 0.0
H513 H 0.19273 0.85972 0.23842 0.0
C514 C 0.11 0.92143 0.30334 0.0
C515 C 0.09482 0.9314 0.29327 0.0
C516 C 0.12853 0.90731 0.29891 0.0
C517 C 0.13249 0.90335 0.28431 0.0
C518 C 0.11637 0.91195 0.27429 0.0
C519 C 0.09758 0.92585 0.27876 0.0
C520 C 0.15484 0.8928 0.27948 0.0
C521 C 0.15443 0.87301 0.2706 0.0
C522 C 0.17663 0.90271 0.28343 0.0
C523 C 0.17826 0.92439 0.29209 0.0
C524 C 0.1677 0.94511 0.28736 0.0
C525 C 0.16879 0.96531 0.29574 0.0
C526 C 0.18059 0.96507 0.30882 0.0
C527 C 0.1914 0.94464 0.31351 0.0
C528 C 0.19031 0.92437 0.30518 0.0
C529 C 0.25749 0.87103 0.25331 0.0
C530 C 0.26436 0.84783 0.2556 0.0
C531 C 0.2355 0.87881 0.25766 0.0
C532 C 0.21985 0.86362 0.26442 0.0
C533 C 0.2265 0.84032 0.2666 0.0
C534 C 0.24858 0.83245 0.26217 0.0
C535 C 0.19708 0.87276 0.26963 0.0
C536 C 0.19739 0.89237 0.27864 0.0
C537 C 0.17531 0.86295 0.26552 0.0
C538 C 0.17376 0.84287 0.25553 0.0
C539 C 0.16185 0.82252 0.25957 0.0
C540 C 0.16035 0.80356 0.25017 0.0
C541 C 0.1706 0.80481 0.23666 0.0
C542 C 0.18229 0.82506 0.23251 0.0
C543 C 0.18381 0.84407 0.24186 0.0
H544 H 0.16943 0.79011 0.2294 0.0
H545 H 0.1814 0.98072 0.3153 0.0
H546 H 0.04318 0.61895 0.53075 0.0
H547 H 0.06902 0.6492 0.52162 0.0
H548 H 0.12935 0.60909 0.53442 0.0
H549 H 0.10341 0.57886 0.54397 0.0
H550 H 0.1326 0.65414 0.54311 0.0
H551 H 0.11727 0.61498 0.49929 0.0
H552 H 0.09331 0.59581 0.48072 0.0
H553 H 0.05604 0.65971 0.47363 0.0
H554 H 0.07953 0.6792 0.4923 0.0
H555 H 0.19641 0.7498 0.51092 0.0
H556 H 0.1836 0.70998 0.51648 0.0
H557 H 0.11196 0.72972 0.50821 0.0
H558 H 0.12449 0.76911 0.50259 0.0
H559 H 0.12321 0.68901 0.49512 0.0
H560 H 0.13275 0.725 0.54204 0.0
H561 H 0.15522 0.74424 0.5613 0.0
H562 H 0.20268 0.68622 0.56262 0.0
H563 H 0.18061 0.66676 0.54325 0.0
C564 C 0.06195 0.61651 0.53157 0.0
C565 C 0.07128 0.5966 0.53811 0.0
C566 C 0.0767 0.63369 0.52622 0.0
C567 C 0.10112 0.63126 0.52719 0.0
C568 C 0.11056 0.61121 0.53349 0.0
C569 C 0.09575 0.59393 0.53884 0.0
C570 C 0.11643 0.65052 0.52241 0.0
C571 C 0.13104 0.66144 0.53249 0.0
C572 C 0.11421 0.66012 0.5086 0.0
C573 C 0.10014 0.64853 0.49725 0.0
C574 C 0.10388 0.62492 0.49383 0.0
C575 C 0.09039 0.614 0.48327 0.0
C576 C 0.07316 0.62653 0.47601 0.0
C577 C 0.06941 0.65003 0.47926 0.0
C578 C 0.08284 0.66103 0.48981 0.0
C579 C 0.17794 0.7456 0.51034 0.0
C580 C 0.16145 0.76256 0.50631 0.0
C581 C 0.17067 0.72289 0.51352 0.0
C582 C 0.14684 0.71693 0.51273 0.0
C583 C 0.13045 0.73391 0.50878 0.0
C584 C 0.13765 0.75647 0.50563 0.0
C585 C 0.13848 0.69314 0.51601 0.0
C586 C 0.12525 0.68134 0.50561 0.0
C587 C 0.14191 0.6828 0.52952 0.0
C588 C 0.15524 0.69458 0.54107 0.0
C589 C 0.14811 0.71646 0.54635 0.0
C590 C 0.16074 0.72738 0.5573 0.0
C591 C 0.18042 0.7165 0.56314 0.0
C592 C 0.18747 0.69465 0.55806 0.0
C593 C 0.17491 0.68367 0.5471 0.0
H594 H 0.19016 0.72497 0.57162 0.0
H595 H 0.06272 0.61804 0.46784 0.0
H596 H 0.38782 0.54666 0.79508 0.0
H597 H 0.35398 0.56791 0.78618 0.0
H598 H 0.39948 0.62068 0.76885 0.0
H599 H 0.43369 0.5994 0.77794 0.0
H600 H 0.3632 0.64023 0.78241 0.0
H601 H 0.37136 0.58286 0.74634 0.0
H602 H 0.37762 0.54369 0.73608 0.0
H603 H 0.31437 0.51952 0.75579 0.0
H604 H 0.30788 0.55843 0.76635 0.0
H605 H 0.24941 0.6808 0.7547 0.0
H606 H 0.29095 0.66947 0.75562 0.0
H607 H 0.2728 0.60916 0.78052 0.0
H608 H 0.23181 0.62016 0.77976 0.0
H609 H 0.29977 0.59888 0.75636 0.0
H610 H 0.29754 0.65526 0.79603 0.0
H611 H 0.29192 0.69474 0.80601 0.0
H612 H 0.34477 0.72137 0.77793 0.0
H613 H 0.35048 0.68206 0.76765 0.0
C614 C 0.39069 0.56256 0.78916 0.0
C615 C 0.41341 0.57122 0.78706 0.0
C616 C 0.37132 0.57473 0.78408 0.0
C617 C 0.37422 0.59567 0.7766 0.0
C618 C 0.39688 0.60448 0.77452 0.0
C619 C 0.41635 0.59234 0.77971 0.0
C620 C 0.35326 0.60848 0.77155 0.0
C621 C 0.34955 0.6314 0.7764 0.0
C622 C 0.33551 0.59705 0.76362 0.0
C623 C 0.33917 0.5736 0.75717 0.0
C624 C 0.35884 0.56917 0.74855 0.0
C625 C 0.36242 0.547 0.74267 0.0
C626 C 0.34641 0.52913 0.74528 0.0
C627 C 0.32675 0.53339 0.75376 0.0
C628 C 0.32308 0.55552 0.75967 0.0
C629 C 0.25435 0.66529 0.76051 0.0
C630 C 0.23723 0.65125 0.76702 0.0
C631 C 0.27805 0.65885 0.76099 0.0
C632 C 0.28482 0.63836 0.76801 0.0
C633 C 0.26787 0.62489 0.77491 0.0
C634 C 0.2444 0.63127 0.77447 0.0
C635 C 0.3093 0.62997 0.76795 0.0
C636 C 0.31371 0.6079 0.76202 0.0
C637 C 0.32768 0.64228 0.77474 0.0
C638 C 0.3242 0.66582 0.78095 0.0
C639 C 0.30779 0.66958 0.79189 0.0
C640 C 0.30463 0.69191 0.79762 0.0
C641 C 0.31791 0.71057 0.79257 0.0
C642 C 0.33445 0.70692 0.78181 0.0
C643 C 0.33766 0.68462 0.77603 0.0
H644 H 0.31544 0.72784 0.79702 0.0
H645 H 0.34923 0.51198 0.74073 0.0
H646 H 0.46403 0.89713 0.03727 0.0
H647 H 0.44293 0.86347 0.02804 0.0
H648 H 0.37883 0.90318 0.02744 0.0
H649 H 0.40006 0.93752 0.03631 0.0
H650 H 0.37441 0.85954 0.04052 0.0
H651 H 0.40165 0.88971 0.99657 0.0
H652 H 0.43009 0.9065 0.97975 0.0
H653 H 0.4723 0.84476 0.98254 0.0
H654 H 0.44431 0.82771 -0.00044 0.0
H655 H 0.32729 0.75271 0.01074 0.0
H656 H 0.33614 0.79442 0.01313 0.0
H657 H 0.40985 0.77856 0.01582 0.0
H658 H 0.40133 0.73723 0.01341 0.0
H659 H 0.40118 0.81508 0.99799 0.0
H660 H 0.37851 0.78938 0.04546 0.0
H661 H 0.35125 0.77265 0.06303 0.0
H662 H 0.30104 0.82623 0.05377 0.0
H663 H 0.32793 0.8431 0.03599 0.0
C664 C 0.44557 0.89902 0.03486 0.0
C665 C 0.43383 0.92019 0.03742 0.0
C666 C 0.43349 0.87966 0.02965 0.0
C667 C 0.40938 0.88092 0.02691 0.0
C668 C 0.39747 0.90192 0.02946 0.0
C669 C 0.40963 0.92146 0.03458 0.0
C670 C 0.3968 0.85976 0.02204 0.0
C671 C 0.37976 0.85008 0.03101 0.0
C672 C 0.40401 0.84737 0.00971 0.0
C673 C 0.42089 0.85747 -0.0006 0.0
C674 C 0.41707 0.87976 0.99368 0.0
C675 C 0.43311 0.88932 0.98409 0.0
C676 C 0.453 0.87672 0.98009 0.0
C677 C 0.45688 0.8545 0.98565 0.0
C678 C 0.4409 0.84486 0.99525 0.0
C679 C 0.34538 0.75814 0.01178 0.0
C680 C 0.36359 0.74158 0.01195 0.0
C681 C 0.35039 0.78196 0.01316 0.0
C682 C 0.37365 0.78954 0.01467 0.0
C683 C 0.39179 0.77309 0.0146 0.0
C684 C 0.38684 0.7494 0.01331 0.0
C685 C 0.37952 0.81448 0.01677 0.0
C686 C 0.3953 0.82485 0.00726 0.0
C687 C 0.37121 0.82746 0.02862 0.0
C688 C 0.35507 0.81729 0.03926 0.0
C689 C 0.36156 0.79746 0.04707 0.0
C690 C 0.3462 0.78798 0.05709 0.0
C691 C 0.32439 0.79831 0.05948 0.0
C692 C 0.31792 0.8182 0.05188 0.0
C693 C 0.33321 0.82773 0.04184 0.0
H694 H 0.31253 0.79096 0.06724 0.0
H695 H 0.4654 0.88415 0.97267 0.0
H696 H 0.0698 0.60348 0.97139 0.0
H697 H 0.10522 0.62399 0.97935 0.0
H698 H 0.14795 0.57143 0.95903 0.0
H699 H 0.11277 0.55088 0.95115 0.0
H700 H 0.16348 0.58117 0.9853 0.0
H701 H 0.13848 0.62592 0.94403 0.0
H702 H 0.11008 0.64939 0.9304 0.0
H703 H 0.10725 0.69952 0.96457 0.0
H704 H 0.13543 0.67618 0.97847 0.0
H705 H 0.27491 0.62861 0.98339 0.0
H706 H 0.23657 0.61384 0.97624 0.0
H707 H 0.20373 0.67483 0.99457 0.0
H708 H 0.24254 0.69042 0.00088 0.0
H709 H 0.18081 0.66288 0.97185 0.0
H710 H 0.20701 0.62041 0.01266 0.0
H711 H 0.23472 0.59727 0.027 0.0
H712 H 0.23395 0.54313 0.99517 0.0
H713 H 0.20647 0.56607 0.98055 0.0
C714 C 0.08678 0.59638 0.96859 0.0
C715 C 0.08854 0.57552 0.96071 0.0
C716 C 0.10697 0.60812 0.97313 0.0
C717 C 0.12923 0.59933 0.96968 0.0
C718 C 0.13096 0.57847 0.96186 0.0
C719 C 0.11085 0.56669 0.95741 0.0
C720 C 0.15088 0.61152 0.97429 0.0
C721 C 0.16736 0.59897 0.98226 0.0
C722 C 0.15554 0.63504 0.97079 0.0
C723 C 0.13888 0.6492 0.96233 0.0
C724 C 0.13169 0.64188 0.94866 0.0
C725 C 0.11565 0.65516 0.94089 0.0
C726 C 0.10682 0.6759 0.94663 0.0
C727 C 0.11408 0.68344 0.96014 0.0
C728 C 0.1301 0.67021 0.96796 0.0
C729 C 0.2595 0.63895 0.98576 0.0
C730 C 0.26152 0.66048 0.99281 0.0
C731 C 0.23758 0.63044 0.98177 0.0
C732 C 0.21714 0.64281 0.98532 0.0
C733 C 0.21921 0.66485 0.99185 0.0
C734 C 0.24132 0.67374 0.99546 0.0
C735 C 0.19378 0.63227 0.98252 0.0
C736 C 0.1769 0.64514 0.975 0.0
C737 C 0.18858 0.60907 0.98657 0.0
C738 C 0.20478 0.59503 0.99548 0.0
C739 C 0.21282 0.60361 0.0087 0.0
C740 C 0.22848 0.59053 0.01687 0.0
C741 C 0.23611 0.56876 0.01199 0.0
C742 C 0.22803 0.55999 0.99894 0.0
C743 C 0.21238 0.57301 0.99071 0.0
H744 H 0.24827 0.55868 0.01833 0.0
H745 H 0.09439 0.68616 0.9406 0.0
H746 H 0.4677 0.61305 0.21158 0.0
H747 H 0.4455 0.64594 0.22084 0.0
H748 H 0.38359 0.60324 0.22333 0.0
H749 H 0.40601 0.56953 0.21478 0.0
H750 H 0.37888 0.64838 0.2084 0.0
H751 H 0.4029 0.61707 0.25294 0.0
H752 H 0.43035 0.6 0.27031 0.0
H753 H 0.47245 0.66195 0.26908 0.0
H754 H 0.44546 0.67927 0.25152 0.0
H755 H 0.32987 0.75494 0.2382 0.0
H756 H 0.33843 0.71309 0.23572 0.0
H757 H 0.41235 0.72831 0.23437 0.0
H758 H 0.40413 0.76968 0.23676 0.0
H759 H 0.402 0.69163 0.25222 0.0
H760 H 0.38383 0.71842 0.20429 0.0
H761 H 0.35849 0.73574 0.18584 0.0
H762 H 0.30689 0.68259 0.19288 0.0
H763 H 0.33186 0.66512 0.21152 0.0
C764 C 0.44956 0.61028 0.21444 0.0
C765 C 0.43879 0.58842 0.21249 0.0
C766 C 0.43683 0.62925 0.21962 0.0
C767 C 0.41298 0.62694 0.22281 0.0
C768 C 0.40202 0.60529 0.22091 0.0
C769 C 0.41487 0.58611 0.21593 0.0
C770 C 0.39969 0.64768 0.22758 0.0
C771 C 0.38337 0.65756 0.21818 0.0
C772 C 0.40588 0.65971 0.24024 0.0
C773 C 0.42219 0.64942 0.25084 0.0
C774 C 0.41811 0.62699 0.25628 0.0
C775 C 0.43358 0.61728 0.26618 0.0
C776 C 0.45315 0.62987 0.27079 0.0
C777 C 0.45728 0.65222 0.26551 0.0
C778 C 0.44188 0.66201 0.25559 0.0
C779 C 0.34793 0.74931 0.23744 0.0
C780 C 0.3663 0.76567 0.23762 0.0
C781 C 0.35277 0.72544 0.236 0.0
C782 C 0.37603 0.71766 0.23487 0.0
C783 C 0.3943 0.73394 0.2353 0.0
C784 C 0.38951 0.75764 0.23658 0.0
C785 C 0.38183 0.69272 0.2328 0.0
C786 C 0.39685 0.6821 0.24269 0.0
C787 C 0.37458 0.68011 0.22054 0.0
C788 C 0.35952 0.69069 0.20943 0.0
C789 C 0.36697 0.71058 0.20201 0.0
C790 C 0.35271 0.72038 0.19149 0.0
C791 C 0.33105 0.71033 0.18823 0.0
C792 C 0.32364 0.6904 0.19545 0.0
C793 C 0.33784 0.68054 0.20598 0.0
H794 H 0.32004 0.71793 0.18007 0.0
H795 H 0.4651 0.62232 0.27845 0.0
H796 H 0.39629 0.96277 0.45785 0.0
H797 H 0.36213 0.9423 0.46686 0.0
H798 H 0.40579 0.88471 0.47968 0.0
H799 H 0.44042 0.90536 0.47073 0.0
H800 H 0.36608 0.87019 0.46559 0.0
H801 H 0.38358 0.91887 0.50515 0.0
H802 H 0.39442 0.95512 0.51777 0.0
H803 H 0.33121 0.98781 0.50315 0.0
H804 H 0.32013 0.95188 0.49025 0.0
H805 H 0.25432 0.83102 0.49553 0.0
H806 H 0.29616 0.84049 0.49353 0.0
H807 H 0.27847 0.9069 0.47508 0.0
H808 H 0.2371 0.89776 0.47692 0.0
H809 H 0.3099 0.9103 0.49775 0.0
H810 H 0.29766 0.86366 0.45445 0.0
H811 H 0.2873 0.82747 0.44157 0.0
H812 H 0.34122 0.79054 0.46408 0.0
H813 H 0.35169 0.82649 0.47722 0.0
C814 C 0.39877 0.94595 0.46283 0.0
C815 C 0.42112 0.93583 0.46374 0.0
C816 C 0.3792 0.93422 0.46793 0.0
C817 C 0.38149 0.91216 0.47415 0.0
C818 C 0.4037 0.90179 0.47498 0.0
C819 C 0.42341 0.91358 0.46984 0.0
C820 C 0.36029 0.89997 0.47928 0.0
C821 C 0.35403 0.87863 0.47292 0.0
C822 C 0.34461 0.911 0.48884 0.0
C823 C 0.35106 0.93265 0.49669 0.0
C824 C 0.37204 0.93382 0.50455 0.0
C825 C 0.37822 0.95432 0.51176 0.0
C826 C 0.36352 0.97376 0.51125 0.0
C827 C 0.34257 0.97273 0.50354 0.0
C828 C 0.33631 0.95228 0.4963 0.0
C829 C 0.25938 0.84756 0.49095 0.0
C830 C 0.24231 0.8637 0.4865 0.0
C831 C 0.28325 0.85292 0.48983 0.0
C832 C 0.29031 0.87446 0.48427 0.0
C833 C 0.27334 0.89028 0.47954 0.0
C834 C 0.24965 0.88496 0.48059 0.0
C835 C 0.31526 0.88124 0.48349 0.0
C836 C 0.32224 0.90153 0.49075 0.0
C837 C 0.33157 0.86919 0.47484 0.0
C838 C 0.32524 0.84765 0.46695 0.0
C839 C 0.30715 0.84776 0.45675 0.0
C840 C 0.3013 0.82732 0.44938 0.0
C841 C 0.31354 0.8067 0.45204 0.0
C842 C 0.33171 0.80651 0.46205 0.0
C843 C 0.33762 0.82691 0.46946 0.0
H844 H 0.30899 0.79089 0.44632 0.0
H845 H 0.36834 0.98962 0.51684 0.0
H846 H 0.08141 0.90672 0.68548 0.0
H847 H 0.10483 0.8738 0.69379 0.0
H848 H 0.09519 0.89644 0.73737 0.0
H849 H 0.07183 0.92964 0.72908 0.0
H850 H 0.13965 0.87759 0.73268 0.0
H851 H 0.05875 0.85757 0.7242 0.0
H852 H 0.02257 0.85547 0.70984 0.0
H853 H 0.05798 0.81375 0.67838 0.0
H854 H 0.0945 0.81592 0.69247 0.0
H855 H 0.12055 0.74792 0.75369 0.0
H856 H 0.10738 0.78607 0.74586 0.0
H857 H 0.17596 0.80022 0.72868 0.0
H858 H 0.18952 0.7619 0.73683 0.0
H859 H 0.10368 0.80156 0.71981 0.0
H860 H 0.18391 0.86074 0.72948 0.0
H861 H 0.21817 0.86353 0.74549 0.0
H862 H 0.18065 0.82672 0.77802 0.0
H863 H 0.14608 0.82397 0.76228 0.0
C864 C 0.08447 0.90478 0.69683 0.0
C865 C 0.07445 0.92041 0.70668 0.0
C866 C 0.09795 0.88609 0.70154 0.0
C867 C 0.10142 0.88253 0.7162 0.0
C868 C 0.0927 0.89892 0.72602 0.0
C869 C 0.07931 0.91779 0.72129 0.0
C870 C 0.11175 0.8604 0.72126 0.0
C871 C 0.13191 0.86093 0.72984 0.0
C872 C 0.10141 0.83873 0.7177 0.0
C873 C 0.07939 0.8371 0.70932 0.0
C874 C 0.05885 0.84808 0.71418 0.0
C875 C 0.03829 0.84687 0.70609 0.0
C876 C 0.03799 0.83453 0.69318 0.0
C877 C 0.05825 0.82333 0.68837 0.0
C878 C 0.07888 0.82453 0.6964 0.0
C879 C 0.13292 0.75913 0.7483 0.0
C880 C 0.15606 0.75186 0.74581 0.0
C881 C 0.12534 0.78095 0.74382 0.0
C882 C 0.14066 0.79602 0.7367 0.0
C883 C 0.16391 0.78897 0.7343 0.0
C884 C 0.1716 0.76706 0.73889 0.0
C885 C 0.13166 0.81857 0.73133 0.0
C886 C 0.11167 0.81814 0.72259 0.0
C887 C 0.14194 0.84025 0.73502 0.0
C888 C 0.16253 0.84191 0.74463 0.0
C889 C 0.18297 0.85329 0.74006 0.0
C890 C 0.20244 0.85486 0.74909 0.0
C891 C 0.20162 0.84523 0.76275 0.0
C892 C 0.1813 0.83408 0.76742 0.0
C893 C 0.16178 0.83247 0.75844 0.0
H894 H 0.21671 0.84646 0.76972 0.0
H895 H 0.02206 0.83362 0.68693 0.0
H896 H 0.61522 0.44318 0.81055 0.0
H897 H 0.64771 0.42042 0.80094 0.0
H898 H 0.60616 0.40205 0.76413 0.0
H899 H 0.57371 0.42581 0.7733 0.0
H900 H 0.64082 0.36477 0.78449 0.0
H901 H 0.63468 0.4312 0.75113 0.0
H902 H 0.62892 0.47319 0.74675 0.0
H903 H 0.68676 0.48932 0.77445 0.0
H904 H 0.6926 0.44742 0.77915 0.0
H905 H 0.74324 0.32142 0.74854 0.0
H906 H 0.7041 0.33593 0.75461 0.0
H907 H 0.73521 0.39723 0.77381 0.0
H908 H 0.77398 0.38353 0.76677 0.0
H909 H 0.70151 0.41074 0.75936 0.0
H910 H 0.70961 0.34754 0.79306 0.0
H911 H 0.71595 0.30681 0.80044 0.0
H912 H 0.65632 0.2851 0.77574 0.0
H913 H 0.64978 0.32567 0.76809 0.0
C914 C 0.61295 0.43449 0.80035 0.0
C915 C 0.59197 0.43671 0.79257 0.0
C916 C 0.63144 0.42126 0.79499 0.0
C917 C 0.62923 0.40969 0.78186 0.0
C918 C 0.60805 0.41087 0.77432 0.0
C919 C 0.58956 0.4244 0.7796 0.0
C920 C 0.64991 0.39807 0.77569 0.0
C921 C 0.65398 0.37454 0.77871 0.0
C922 C 0.66717 0.41115 0.76858 0.0
C923 C 0.66391 0.43626 0.76559 0.0
C924 C 0.64602 0.44373 0.75637 0.0
C925 C 0.64277 0.4675 0.75381 0.0
C926 C 0.65742 0.48392 0.76034 0.0
C927 C 0.6754 0.47659 0.76941 0.0
C928 C 0.6787 0.45285 0.77201 0.0
C929 C 0.74158 0.3379 0.75415 0.0
C930 C 0.76147 0.35144 0.75719 0.0
C931 C 0.71925 0.34615 0.75769 0.0
C932 C 0.71658 0.36763 0.76482 0.0
C933 C 0.73667 0.38072 0.76821 0.0
C934 C 0.75884 0.37286 0.76426 0.0
C935 C 0.69303 0.37718 0.76833 0.0
C936 C 0.68837 0.40054 0.76487 0.0
C937 C 0.67545 0.36393 0.77526 0.0
C938 C 0.67938 0.33958 0.77988 0.0
C939 C 0.69796 0.33404 0.78912 0.0
C940 C 0.70157 0.311 0.79337 0.0
C941 C 0.6866 0.29337 0.78853 0.0
C942 C 0.66793 0.29876 0.77946 0.0
C943 C 0.66426 0.32178 0.77518 0.0
H944 H 0.68942 0.27554 0.79183 0.0
H945 H 0.65488 0.50231 0.75835 0.0
H946 H 0.57023 0.08395 0.0187 0.0
H947 H 0.59592 0.11499 0.00998 0.0
H948 H 0.6134 0.13357 0.05345 0.0
H949 H 0.58714 0.10315 0.06212 0.0
H950 H 0.60186 0.17051 0.03983 0.0
H951 H 0.65346 0.10651 0.02978 0.0
H952 H 0.66466 0.06832 0.01969 0.0
H953 H 0.65043 0.09319 0.97741 0.0
H954 H 0.63883 0.13143 0.98726 0.0
H955 H 0.69825 0.24506 0.01029 0.0
H956 H 0.68651 0.20563 0.01749 0.0
H957 H 0.61853 0.21627 0.99852 0.0
H958 H 0.62995 0.2554 0.99135 0.0
H959 H 0.66158 0.16376 0.00156 0.0
H960 H 0.58308 0.20942 0.02603 0.0
H961 H 0.57286 0.2491 0.03427 0.0
H962 H 0.64362 0.25994 0.04839 0.0
H963 H 0.65415 0.22022 0.04041 0.0
C964 C 0.57982 0.09453 0.02633 0.0
C965 C 0.57662 0.09141 0.04105 0.0
C966 C 0.5946 0.11214 0.02137 0.0
C967 C 0.60677 0.12652 0.03106 0.0
C968 C 0.60415 0.12277 0.04577 0.0
C969 C 0.58914 0.10545 0.05071 0.0
C970 C 0.62059 0.14674 0.02599 0.0
C971 C 0.61515 0.16882 0.03163 0.0
C972 C 0.63795 0.14474 0.01524 0.0
C973 C 0.64514 0.12181 0.00928 0.0
C974 C 0.65258 0.1038 0.01834 0.0
C975 C 0.65902 0.08214 0.01266 0.0
C976 C 0.65822 0.07832 0.99792 0.0
C977 C 0.65104 0.09617 0.98883 0.0
C978 C 0.64457 0.11785 0.99445 0.0
C979 C 0.681 0.23877 0.0074 0.0
C980 C 0.66487 0.25341 0.00047 0.0
C981 C 0.67441 0.21623 0.01141 0.0
C982 C 0.65168 0.20821 0.00853 0.0
C983 C 0.63616 0.22224 0.0008 0.0
C984 C 0.64267 0.24465 0.99682 0.0
C985 C 0.6426 0.18702 0.01541 0.0
C986 C 0.6487 0.16503 0.01002 0.0
C987 C 0.62607 0.18891 0.02654 0.0
C988 C 0.6194 0.21194 0.03256 0.0
C989 C 0.59636 0.22018 0.03106 0.0
C990 C 0.59055 0.24269 0.03563 0.0
C991 C 0.60763 0.25708 0.04173 0.0
C992 C 0.63045 0.24882 0.04357 0.0
C993 C 0.63634 0.22631 0.03904 0.0
H994 H 0.60319 0.27464 0.04503 0.0
H995 H 0.6632 0.06154 0.99355 0.0
H996 H 0.89995 0.04884 0.28753 0.0
H997 H 0.86617 0.0697 0.2783 0.0
H998 H 0.90979 0.12895 0.26875 0.0
H999 H 0.9441 0.10787 0.27781 0.0
H1000 H 0.86934 0.14128 0.28297 0.0
H1001 H 0.88877 0.09806 0.24146 0.0
H1002 H 0.90046 0.06364 0.22731 0.0
H1003 H 0.83716 0.02854 0.23933 0.0
H1004 H 0.82523 0.06259 0.25374 0.0
H1005 H 0.75644 0.18241 0.25615 0.0
H1006 H 0.79856 0.17359 0.2567 0.0
H1007 H 0.78326 0.10368 0.27055 0.0
H1008 H 0.74167 0.11212 0.27005 0.0
H1009 H 0.81464 0.10477 0.24825 0.0
H1010 H 0.80106 0.14449 0.29395 0.0
H1011 H 0.78969 0.17834 0.30874 0.0
H1012 H 0.8424 0.21999 0.28849 0.0
H1013 H 0.85387 0.18642 0.27345 0.0
C1014 C 0.90257 0.06608 0.28317 0.0
C1015 C 0.92482 0.07657 0.28328 0.0
C1016 C 0.88318 0.07804 0.27794 0.0
C1017 C 0.88554 0.10074 0.27265 0.0
C1018 C 0.90766 0.11138 0.27273 0.0
C1019 C 0.92719 0.09935 0.27794 0.0
C1020 C 0.86441 0.11337 0.26776 0.0
C1021 C 0.85763 0.13369 0.27508 0.0
C1022 C 0.84916 0.10344 0.25748 0.0
C1023 C 0.85613 0.08291 0.24872 0.0
C1024 C 0.87739 0.08296 0.24116 0.0
C1025 C 0.88406 0.06351 0.23308 0.0
C1026 C 0.86957 0.04391 0.23243 0.0
C1027 C 0.84835 0.04374 0.23984 0.0
C1028 C 0.84161 0.06314 0.24794 0.0
C1029 C 0.76209 0.16518 0.25934 0.0
C1030 C 0.74561 0.14798 0.26302 0.0
C1031 C 0.78613 0.1602 0.25964 0.0
C1032 C 0.79395 0.13795 0.26359 0.0
C1033 C 0.77756 0.1209 0.26734 0.0
C1034 C 0.75373 0.12584 0.26711 0.0
C1035 C 0.81913 0.13186 0.26401 0.0
C1036 C 0.82668 0.1128 0.25578 0.0
C1037 C 0.83503 0.14295 0.27343 0.0
C1038 C 0.82809 0.16307 0.28245 0.0
C1039 C 0.81006 0.16093 0.29256 0.0
C1040 C 0.80364 0.18005 0.30101 0.0
C1041 C 0.81525 0.20133 0.29952 0.0
C1042 C 0.83337 0.20352 0.2896 0.0
C1043 C 0.83984 0.18445 0.28112 0.0
H1044 H 0.81026 0.21611 0.30607 0.0
H1045 H 0.87477 0.02887 0.22617 0.0
H1046 H 0.89838 0.44201 0.53689 0.0
H1047 H 0.87707 0.40737 0.52875 0.0
H1048 H 0.93995 0.36636 0.53271 0.0
H1049 H 0.96111 0.40035 0.54156 0.0
H1050 H 0.9142 0.3612 0.50595 0.0
H1051 H 0.90337 0.36084 0.55745 0.0
H1052 H 0.89082 0.37839 0.58029 0.0
H1053 H 0.82064 0.3849 0.56425 0.0
H1054 H 0.83288 0.36765 0.54123 0.0
H1055 H 0.88824 0.24358 0.5059 0.0
H1056 H 0.90064 0.28276 0.51241 0.0
H1057 H 0.82851 0.30509 0.51393 0.0
H1058 H 0.81583 0.26533 0.50773 0.0
H1059 H 0.85329 0.32364 0.53577 0.0
H1060 H 0.86247 0.31935 0.48543 0.0
H1061 H 0.87461 0.30227 0.46239 0.0
H1062 H 0.9467 0.30588 0.47534 0.0
H1063 H 0.93498 0.32267 0.49854 0.0
C1064 C 0.90767 0.4256 0.53619 0.0
C1065 C 0.93155 0.42408 0.5399 0.0
C1066 C 0.89546 0.40588 0.53144 0.0
C1067 C 0.90699 0.38441 0.53015 0.0
C1068 C 0.93084 0.38287 0.53356 0.0
C1069 C 0.94294 0.40242 0.53851 0.0
C1070 C 0.89434 0.3633 0.5254 0.0
C1071 C 0.90092 0.3529 0.51246 0.0
C1072 C 0.87648 0.35305 0.53371 0.0
C1073 C 0.86909 0.36323 0.54757 0.0
C1074 C 0.88531 0.36621 0.55875 0.0
C1075 C 0.87825 0.37606 0.57173 0.0
C1076 C 0.85496 0.38283 0.5737 0.0
C1077 C 0.83868 0.37969 0.5627 0.0
C1078 C 0.84566 0.36987 0.54969 0.0
C1079 C 0.87495 0.25678 0.5076 0.0
C1080 C 0.85106 0.25146 0.50614 0.0
C1081 C 0.88208 0.27922 0.51128 0.0
C1082 C 0.86553 0.297 0.51332 0.0
C1083 C 0.84157 0.29166 0.51228 0.0
C1084 C 0.83437 0.269 0.50873 0.0
C1085 C 0.87366 0.32105 0.51646 0.0
C1086 C 0.86622 0.33208 0.52908 0.0
C1087 C 0.89062 0.33205 0.50778 0.0
C1088 C 0.89781 0.32217 0.49376 0.0
C1089 C 0.8809 0.31638 0.4834 0.0
C1090 C 0.88771 0.30676 0.47031 0.0
C1091 C 0.91141 0.30297 0.46741 0.0
C1092 C 0.92835 0.30883 0.47759 0.0
C1093 C 0.92163 0.31844 0.49071 0.0
H1094 H 0.91664 0.2955 0.45727 0.0
H1095 H 0.84953 0.39045 0.58376 0.0
H1096 H 0.61904 0.04063 0.46956 0.0
H1097 H 0.65094 0.06432 0.479 0.0
H1098 H 0.61138 0.1268 0.47043 0.0
H1099 H 0.57945 0.10302 0.46052 0.0
H1100 H 0.65495 0.13057 0.46056 0.0
H1101 H 0.62182 0.11072 0.5049 0.0
H1102 H 0.60405 0.08572 0.52324 0.0
H1103 H 0.66715 0.04519 0.5255 0.0
H1104 H 0.68521 0.06972 0.50702 0.0
H1105 H 0.76038 0.18321 0.48969 0.0
H1106 H 0.71851 0.17397 0.48753 0.0
H1107 H 0.73482 0.10058 0.48767 0.0
H1108 H 0.77633 0.1095 0.48977 0.0
H1109 H 0.69724 0.11227 0.50542 0.0
H1110 H 0.72527 0.12767 0.45693 0.0
H1111 H 0.74234 0.15265 0.4383 0.0
H1112 H 0.68738 0.20276 0.44456 0.0
H1113 H 0.67016 0.17818 0.46336 0.0
C1114 C 0.61705 0.05941 0.46975 0.0
C1115 C 0.59682 0.06998 0.46422 0.0
C1116 C 0.6352 0.07295 0.4753 0.0
C1117 C 0.63345 0.09735 0.4756 0.0
C1118 C 0.61302 0.108 0.4704 0.0
C1119 C 0.59477 0.0944 0.46482 0.0
C1120 C 0.65388 0.11142 0.48029 0.0
C1121 C 0.66385 0.12707 0.47056 0.0
C1122 C 0.66554 0.10686 0.49332 0.0
C1123 C 0.65485 0.09206 0.50452 0.0
C1124 C 0.63187 0.0964 0.50924 0.0
C1125 C 0.62175 0.08231 0.51968 0.0
C1126 C 0.63446 0.06387 0.52553 0.0
C1127 C 0.65734 0.0595 0.52097 0.0
C1128 C 0.66754 0.07353 0.51053 0.0
C1129 C 0.755 0.16511 0.48935 0.0
C1130 C 0.77172 0.14709 0.48984 0.0
C1131 C 0.73111 0.15989 0.48809 0.0
C1132 C 0.72363 0.1366 0.48744 0.0
C1133 C 0.74024 0.11867 0.48823 0.0
C1134 C 0.764 0.12383 0.48933 0.0
C1135 C 0.69868 0.13042 0.4854 0.0
C1136 C 0.6879 0.1163 0.49565 0.0
C1137 C 0.6862 0.13652 0.47292 0.0
C1138 C 0.69663 0.15127 0.46167 0.0
C1139 C 0.71697 0.14413 0.45442 0.0
C1140 C 0.72664 0.15818 0.44381 0.0
C1141 C 0.716 0.17932 0.44028 0.0
C1142 C 0.69564 0.18642 0.44733 0.0
C1143 C 0.68592 0.17243 0.45796 0.0
H1144 H 0.72351 0.19017 0.43206 0.0
H1145 H 0.62659 0.05298 0.5336 0.0
H1146 H 0.95917 0.115 0.71317 0.0
H1147 H 0.93662 0.14753 0.72254 0.0
H1148 H 0.8739 0.10569 0.72155 0.0
H1149 H 0.89662 0.07247 0.71246 0.0
H1150 H 0.8681 0.14942 0.70921 0.0
H1151 H 0.89483 0.11942 0.75317 0.0
H1152 H 0.92292 0.10277 0.77032 0.0
H1153 H 0.96441 0.16508 0.76841 0.0
H1154 H 0.93678 0.18199 0.75108 0.0
H1155 H 0.8234 0.25882 0.73856 0.0
H1156 H 0.83041 0.21665 0.73656 0.0
H1157 H 0.90447 0.22942 0.73218 0.0
H1158 H 0.89778 0.27111 0.73408 0.0
H1159 H 0.89406 0.19444 0.75176 0.0
H1160 H 0.87224 0.21881 0.70347 0.0
H1161 H 0.84494 0.2352 0.68573 0.0
H1162 H 0.79407 0.18286 0.69609 0.0
H1163 H 0.821 0.16635 0.71403 0.0
C1164 C 0.94071 0.11239 0.71526 0.0
C1165 C 0.92979 0.09097 0.71219 0.0
C1166 C 0.9278 0.1311 0.72056 0.0
C1167 C 0.90366 0.12891 0.72292 0.0
C1168 C 0.89255 0.10765 0.71986 0.0
C1169 C 0.90555 0.08876 0.71462 0.0
C1170 C 0.89026 0.14952 0.72785 0.0
C1171 C 0.87324 0.15897 0.71874 0.0
C1172 C 0.89704 0.16195 0.74027 0.0
C1173 C 0.91371 0.15196 0.75078 0.0
C1174 C 0.91001 0.12953 0.75633 0.0
C1175 C 0.92585 0.12005 0.7661 0.0
C1176 C 0.94544 0.13285 0.77045 0.0
C1177 C 0.94922 0.15519 0.76505 0.0
C1178 C 0.93344 0.16475 0.75527 0.0
C1179 C 0.84116 0.2526 0.73719 0.0
C1180 C 0.86001 0.26836 0.73644 0.0
C1181 C 0.84511 0.22854 0.73605 0.0
C1182 C 0.86797 0.21999 0.73427 0.0
C1183 C 0.88672 0.23568 0.73364 0.0
C1184 C 0.88281 0.25956 0.73463 0.0
C1185 C 0.87289 0.19479 0.73273 0.0
C1186 C 0.8883 0.1845 0.74251 0.0
C1187 C 0.86461 0.18161 0.72096 0.0
C1188 C 0.84847 0.19157 0.71022 0.0
C1189 C 0.85514 0.21095 0.70206 0.0
C1190 C 0.83976 0.22023 0.69195 0.0
C1191 C 0.81774 0.21014 0.68982 0.0
C1192 C 0.8111 0.1907 0.69778 0.0
C1193 C 0.82641 0.18138 0.70791 0.0
H1194 H 0.80587 0.21733 0.68199 0.0
H1195 H 0.95769 0.12548 0.77801 0.0
H1196 H 0.89038 0.47311 0.97461 0.0
H1197 H 0.85889 0.44939 0.98433 0.0
H1198 H 0.89509 0.3869 0.97107 0.0
H1199 H 0.92652 0.41074 0.96091 0.0
H1200 H 0.85091 0.3862 0.96231 0.0
H1201 H 0.88828 0.39907 0.0066 0.0
H1202 H 0.9082 0.42103 0.02578 0.0
H1203 H 0.84649 0.46248 0.03226 0.0
H1204 H 0.82628 0.44102 0.01298 0.0
H1205 H 0.75008 0.32845 0.99075 0.0
H1206 H 0.7914 0.33934 0.9887 0.0
H1207 H 0.77291 0.41177 0.9939 0.0
H1208 H 0.73169 0.40115 0.99594 0.0
H1209 H 0.81311 0.39884 0.00938 0.0
H1210 H 0.78011 0.39053 0.96149 0.0
H1211 H 0.76055 0.36851 0.94218 0.0
H1212 H 0.81546 0.31738 0.94296 0.0
H1213 H 0.83518 0.33897 0.96243 0.0
C1214 C 0.89174 0.45431 0.97388 0.0
C1215 C 0.9108 0.44377 0.96692 0.0
C1216 C 0.87386 0.44074 0.97958 0.0
C1217 C 0.87474 0.41634 0.97856 0.0
C1218 C 0.89414 0.4057 0.97204 0.0
C1219 C 0.91212 0.41931 0.96632 0.0
C1220 C 0.85421 0.40241 0.98304 0.0
C1221 C 0.843 0.38843 0.97275 0.0
C1222 C 0.84377 0.40548 0.99662 0.0
C1223 C 0.85578 0.41846 0.00828 0.0
C1224 C 0.87899 0.41297 0.01205 0.0
C1225 C 0.89033 0.42532 0.02295 0.0
C1226 C 0.87863 0.44315 0.03022 0.0
C1227 C 0.85553 0.44865 0.02662 0.0
C1228 C 0.8441 0.43636 0.01572 0.0
C1229 C 0.75482 0.34668 0.99161 0.0
C1230 C 0.73756 0.36396 0.9934 0.0
C1231 C 0.77843 0.35284 0.99042 0.0
C1232 C 0.78512 0.37634 0.9911 0.0
C1233 C 0.76806 0.39352 0.9934 0.0
C1234 C 0.74449 0.38742 0.99446 0.0
C1235 C 0.80962 0.38344 0.98848 0.0
C1236 C 0.82146 0.39611 -0.00089 0.0
C1237 C 0.82074 0.37906 0.97526 0.0
C1238 C 0.80894 0.36618 0.96353 0.0
C1239 C 0.7879 0.37449 0.95762 0.0
C1240 C 0.7768 0.36211 0.94664 0.0
C1241 C 0.78671 0.34152 0.94138 0.0
C1242 C 0.80778 0.3333 0.94707 0.0
C1243 C 0.81892 0.3456 0.95808 0.0
H1244 H 0.7781 0.33196 0.93287 0.0
H1245 H 0.88744 0.45269 0.03866 0.0
H1246 H 0.5515 0.39915 0.21893 0.0
H1247 H 0.5756 0.36716 0.22771 0.0
H1248 H 0.63694 0.39876 0.20921 0.0
H1249 H 0.61268 0.43077 0.20011 0.0
H1250 H 0.63363 0.35254 0.20255 0.0
H1251 H 0.6313 0.39844 0.24482 0.0
H1252 H 0.61348 0.42235 0.26386 0.0
H1253 H 0.57187 0.36399 0.27702 0.0
H1254 H 0.58917 0.33981 0.25791 0.0
H1255 H 0.69785 0.25837 0.2356 0.0
H1256 H 0.68566 0.29777 0.22869 0.0
H1257 H 0.61541 0.28306 0.24292 0.0
H1258 H 0.62738 0.24397 0.24986 0.0
H1259 H 0.63109 0.32519 0.25266 0.0
H1260 H 0.62897 0.28189 0.20793 0.0
H1261 H 0.6462 0.25804 0.18863 0.0
H1262 H 0.69637 0.31196 0.18019 0.0
H1263 H 0.67962 0.336 0.19959 0.0
C1264 C 0.57014 0.39935 0.21678 0.0
C1265 C 0.58021 0.4174 0.20881 0.0
C1266 C 0.58393 0.38117 0.22191 0.0
C1267 C 0.6081 0.3807 0.21922 0.0
C1268 C 0.61833 0.39887 0.21144 0.0
C1269 C 0.60451 0.41719 0.20635 0.0
C1270 C 0.62217 0.36043 0.22394 0.0
C1271 C 0.63358 0.34683 0.21357 0.0
C1272 C 0.62187 0.35289 0.23829 0.0
C1273 C 0.61147 0.36733 0.24987 0.0
C1274 C 0.61823 0.39074 0.2517 0.0
C1275 C 0.60824 0.40434 0.26252 0.0
C1276 C 0.59153 0.3947 0.27163 0.0
C1277 C 0.58482 0.37143 0.26995 0.0
C1278 C 0.59474 0.35776 0.25914 0.0
C1279 C 0.6798 0.26355 0.2372 0.0
C1280 C 0.66356 0.24807 0.24325 0.0
C1281 C 0.67288 0.28603 0.23325 0.0
C1282 C 0.64963 0.29329 0.23529 0.0
C1283 C 0.63346 0.27783 0.24132 0.0
C1284 C 0.64032 0.25544 0.24521 0.0
C1285 C 0.64177 0.31693 0.23118 0.0
C1286 C 0.63158 0.33117 0.2417 0.0
C1287 C 0.64321 0.32505 0.21698 0.0
C1288 C 0.65325 0.3106 0.20533 0.0
C1289 C 0.64381 0.28857 0.20205 0.0
C1290 C 0.65346 0.27504 0.19108 0.0
C1291 C 0.67242 0.28345 0.18323 0.0
C1292 C 0.68172 0.30544 0.18631 0.0
C1293 C 0.67216 0.31903 0.19728 0.0
H1294 H 0.67986 0.27295 0.17473 0.0
H1295 H 0.58382 0.40526 0.28 0.0
H1296 H 0.09441 0.91738 0.35247 0.0
H1297 H 0.11666 0.89361 0.36938 0.0
H1298 H 0.106 0.94567 0.40212 0.0
H1299 H 0.08338 0.96919 0.38549 0.0
H1300 H 0.15127 0.9289 0.40188 0.0
H1301 H 0.07177 0.89874 0.40081 0.0
H1302 H 0.03692 0.88177 0.38915 0.0
H1303 H 0.07764 0.82298 0.37523 0.0
H1304 H 0.11284 0.8398 0.38666 0.0
H1305 H 0.15108 0.87889 0.46942 0.0
H1306 H 0.14175 0.89689 0.44663 0.0
H1307 H 0.16321 0.83437 0.42445 0.0
H1308 H 0.17286 0.81613 0.44741 0.0
H1309 H 0.11928 0.85186 0.41574 0.0
H1310 H 0.19707 0.8791 0.42145 0.0
H1311 H 0.23076 0.89591 0.43437 0.0
H1312 H 0.19319 0.96009 0.44017 0.0
H1313 H 0.15908 0.94353 0.42752 0.0
C1314 C 0.09675 0.92372 0.36328 0.0
C1315 C 0.08703 0.94516 0.36764 0.0
C1316 C 0.10958 0.91019 0.37289 0.0
C1317 C 0.1129 0.91788 0.387 0.0
C1318 C 0.10378 0.93952 0.39125 0.0
C1319 C 0.0909 0.95298 0.3817 0.0
C1320 C 0.12477 0.90304 0.39766 0.0
C1321 C 0.14433 0.91204 0.40492 0.0
C1322 C 0.1161 0.88075 0.40129 0.0
C1323 C 0.09498 0.87067 0.39441 0.0
C1324 C 0.07334 0.8823 0.39515 0.0
C1325 C 0.05352 0.8727 0.38861 0.0
C1326 C 0.05509 0.85136 0.38141 0.0
C1327 C 0.07647 0.83955 0.38078 0.0
C1328 C 0.09636 0.8491 0.38728 0.0
C1329 C 0.15399 0.86897 0.45971 0.0
C1330 C 0.16272 0.84611 0.46018 0.0
C1331 C 0.14875 0.87933 0.44669 0.0
C1332 C 0.15204 0.86702 0.43388 0.0
C1333 C 0.1607 0.84415 0.43426 0.0
C1334 C 0.16621 0.83381 0.44734 0.0
C1335 C 0.14531 0.87806 0.42025 0.0
C1336 C 0.12669 0.86839 0.41245 0.0
C1337 C 0.15482 0.89976 0.41614 0.0
C1338 C 0.17544 0.91001 0.42358 0.0
C1339 C 0.19591 0.89675 0.42556 0.0
C1340 C 0.2151 0.90624 0.43283 0.0
C1341 C 0.2141 0.92904 0.43811 0.0
C1342 C 0.19394 0.94242 0.43608 0.0
C1343 C 0.17467 0.933 0.42883 0.0
H1344 H 0.22897 0.93635 0.44375 0.0
H1345 H 0.03972 0.84393 0.37636 0.0
H1346 H 0.05333 0.62214 0.61509 0.0
H1347 H 0.07582 0.64168 0.63408 0.0
H1348 H 0.11436 0.57824 0.64143 0.0
H1349 H 0.09209 0.55868 0.62259 0.0
H1350 H 0.08966 0.59735 0.6655 0.0
H1351 H 0.14256 0.62042 0.62789 0.0
H1352 H 0.15288 0.63932 0.60519 0.0
H1353 H 0.12954 0.70529 0.62172 0.0
H1354 H 0.11874 0.68669 0.64447 0.0
H1355 H 0.1693 0.62001 0.71803 0.0
H1356 H 0.15564 0.61156 0.69389 0.0
H1357 H 0.1292 0.68172 0.69027 0.0
H1358 H 0.14368 0.69057 0.71446 0.0
H1359 H 0.14557 0.66355 0.66395 0.0
H1360 H 0.09263 0.64216 0.70102 0.0
H1361 H 0.08115 0.62451 0.72389 0.0
H1362 H 0.10168 0.55703 0.70829 0.0
H1363 H 0.11363 0.57435 0.68538 0.0
C1364 C 0.06684 0.61251 0.62064 0.0
C1365 C 0.07091 0.58888 0.61741 0.0
C1366 C 0.07975 0.62372 0.63138 0.0
C1367 C 0.09673 0.61136 0.63909 0.0
C1368 C 0.1014 0.58806 0.63552 0.0
C1369 C 0.08872 0.57695 0.62472 0.0
C1370 C 0.10771 0.62161 0.65197 0.0
C1371 C 0.10206 0.61167 0.66513 0.0
C1372 C 0.12309 0.64093 0.65149 0.0
C1373 C 0.12956 0.6521 0.63782 0.0
C1374 C 0.13938 0.63891 0.62663 0.0
C1375 C 0.14538 0.64958 0.61377 0.0
C1376 C 0.1418 0.67348 0.61199 0.0
C1377 C 0.13227 0.68677 0.6231 0.0
C1378 C 0.12622 0.67617 0.63598 0.0
C1379 C 0.16102 0.6338 0.71199 0.0
C1380 C 0.15715 0.6558 0.71817 0.0
C1381 C 0.15327 0.62897 0.6982 0.0
C1382 C 0.14092 0.64585 0.69045 0.0
C1383 C 0.13861 0.66844 0.69612 0.0
C1384 C 0.1468 0.67344 0.70992 0.0
C1385 C 0.12806 0.6387 0.67739 0.0
C1386 C 0.13309 0.64931 0.66428 0.0
C1387 C 0.11173 0.62016 0.67785 0.0
C1388 C 0.10418 0.60958 0.69152 0.0
C1389 C 0.09482 0.62358 0.70249 0.0
C1390 C 0.08822 0.61363 0.71546 0.0
C1391 C 0.09072 0.58967 0.71755 0.0
C1392 C 0.09976 0.57559 0.70666 0.0
C1393 C 0.10643 0.58546 0.69367 0.0
H1394 H 0.08562 0.582 0.7276 0.0
H1395 H 0.14646 0.68171 0.60203 0.0
H1396 H 0.41164 0.54475 0.87633 0.0
H1397 H 0.38891 0.56493 0.89461 0.0
H1398 H 0.40437 0.63088 0.87471 0.0
H1399 H 0.42818 0.6106 0.85677 0.0
H1400 H 0.41188 0.6356 0.90085 0.0
H1401 H 0.34662 0.60589 0.87588 0.0
H1402 H 0.32173 0.57741 0.86318 0.0
H1403 H 0.31605 0.53665 0.9013 0.0
H1404 H 0.34119 0.56467 0.91419 0.0
H1405 H 0.33987 0.68382 0.95785 0.0
H1406 H 0.34678 0.67128 0.93302 0.0
H1407 H 0.37158 0.60477 0.94799 0.0
H1408 H 0.36562 0.61745 0.97269 0.0
H1409 H 0.33719 0.6073 0.92146 0.0
H1410 H 0.41203 0.63479 0.94288 0.0
H1411 H 0.43533 0.66523 0.95503 0.0
H1412 H 0.41901 0.71346 0.92157 0.0
H1413 H 0.39532 0.68334 0.90934 0.0
C1414 C 0.40977 0.56351 0.87571 0.0
C1415 C 0.4216 0.57615 0.86517 0.0
C1416 C 0.39663 0.57507 0.88611 0.0
C1417 C 0.39452 0.59949 0.88597 0.0
C1418 C 0.40567 0.61206 0.87508 0.0
C1419 C 0.41923 0.6005 0.86483 0.0
C1420 C 0.38285 0.61184 0.89803 0.0
C1421 C 0.39521 0.62974 0.90505 0.0
C1422 C 0.36108 0.60436 0.90367 0.0
C1423 C 0.34592 0.58737 0.89599 0.0
C1424 C 0.34021 0.59077 0.88153 0.0
C1425 C 0.32603 0.57471 0.8743 0.0
C1426 C 0.31734 0.55522 0.88142 0.0
C1427 C 0.32279 0.55176 0.8958 0.0
C1428 C 0.33697 0.56776 0.90308 0.0
C1429 C 0.34649 0.66643 0.95577 0.0
C1430 C 0.35242 0.65163 0.96711 0.0
C1431 C 0.35037 0.65931 0.94165 0.0
C1432 C 0.35958 0.6371 0.93876 0.0
C1433 C 0.36432 0.62191 0.95005 0.0
C1434 C 0.36107 0.62922 0.96412 0.0
C1435 C 0.36661 0.63026 0.92418 0.0
C1436 C 0.35345 0.61343 0.91684 0.0
C1437 C 0.38733 0.639 0.91804 0.0
C1438 C 0.4017 0.65697 0.92532 0.0
C1439 C 0.41324 0.65196 0.9382 0.0
C1440 C 0.42655 0.66913 0.94508 0.0
C1441 C 0.42859 0.69129 0.9391 0.0
C1442 C 0.41737 0.69631 0.92621 0.0
C1443 C 0.40401 0.6792 0.9193 0.0
H1444 H 0.4389 0.70456 0.94444 0.0
H1445 H 0.30636 0.54281 0.8758 0.0
H1446 H 0.42085 0.9057 0.09944 0.0
H1447 H 0.39952 0.87966 0.11571 0.0
H1448 H 0.43793 0.90833 0.15141 0.0
H1449 H 0.4588 0.93454 0.1353 0.0
H1450 H 0.43283 0.85794 0.15142 0.0
H1451 H 0.38749 0.92981 0.14532 0.0
H1452 H 0.36609 0.95843 0.13071 0.0
H1453 H 0.32003 0.90449 0.11558 0.0
H1454 H 0.34141 0.87548 0.12996 0.0
H1455 H 0.37837 0.85898 0.21687 0.0
H1456 H 0.39621 0.86677 0.19388 0.0
H1457 H 0.33734 0.8349 0.17244 0.0
H1458 H 0.31907 0.82708 0.1957 0.0
H1459 H 0.34935 0.87678 0.16066 0.0
H1460 H 0.38854 0.807 0.17178 0.0
H1461 H 0.40931 0.77859 0.18684 0.0
H1462 H 0.46643 0.82655 0.19214 0.0
H1463 H 0.44584 0.85543 0.17732 0.0
C1464 C 0.42484 0.90615 0.11075 0.0
C1465 C 0.44128 0.92211 0.11621 0.0
C1466 C 0.4127 0.89135 0.11999 0.0
C1467 C 0.41721 0.89212 0.13473 0.0
C1468 C 0.43431 0.90742 0.14006 0.0
C1469 C 0.44609 0.92244 0.1309 0.0
C1470 C 0.40314 0.87839 0.1449 0.0
C1471 C 0.41455 0.86189 0.15343 0.0
C1472 C 0.37909 0.88301 0.14712 0.0
C1473 C 0.36623 0.90045 0.13854 0.0
C1474 C 0.37294 0.92402 0.13877 0.0
C1475 C 0.36079 0.94032 0.13055 0.0
C1476 C 0.34176 0.93327 0.12218 0.0
C1477 C 0.33481 0.90992 0.12204 0.0
C1478 C 0.34693 0.89354 0.13022 0.0
C1479 C 0.36921 0.85342 0.20731 0.0
C1480 C 0.34732 0.84236 0.2081 0.0
C1481 C 0.37953 0.85777 0.19415 0.0
C1482 C 0.3683 0.85107 0.18145 0.0
C1483 C 0.34637 0.84004 0.18214 0.0
C1484 C 0.33599 0.83557 0.1954 0.0
C1485 C 0.37929 0.85696 0.16762 0.0
C1486 C 0.36738 0.87207 0.15839 0.0
C1487 C 0.40284 0.85088 0.16469 0.0
C1488 C 0.41558 0.83344 0.17344 0.0
C1489 C 0.40548 0.81155 0.17621 0.0
C1490 C 0.41722 0.79536 0.18471 0.0
C1491 C 0.43917 0.80077 0.19045 0.0
C1492 C 0.44943 0.82237 0.18768 0.0
C1493 C 0.43775 0.83866 0.1792 0.0
H1494 H 0.44823 0.78821 0.19703 0.0
H1495 H 0.33237 0.94591 0.11583 0.0
H1496 H 0.08396 0.55473 0.87537 0.0
H1497 H 0.1081 0.57744 0.85911 0.0
H1498 H 0.08645 0.64087 0.88033 0.0
H1499 H 0.06154 0.61808 0.89634 0.0
H1500 H 0.08324 0.64685 0.85348 0.0
H1501 H 0.14415 0.61865 0.88289 0.0
H1502 H 0.16732 0.59017 0.89655 0.0
H1503 H 0.18357 0.55305 0.85789 0.0
H1504 H 0.1602 0.58109 0.84401 0.0
H1505 H 0.16139 0.70578 0.80534 0.0
H1506 H 0.14857 0.69066 0.82855 0.0
H1507 H 0.14175 0.62191 0.81018 0.0
H1508 H 0.15384 0.63691 0.78699 0.0
H1509 H 0.16381 0.62482 0.83891 0.0
H1510 H 0.09555 0.65044 0.81125 0.0
H1511 H 0.07299 0.68007 0.79812 0.0
H1512 H 0.07257 0.72427 0.83527 0.0
H1513 H 0.09546 0.69499 0.84856 0.0
C1514 C 0.08465 0.57349 0.87669 0.0
C1515 C 0.07094 0.58468 0.88709 0.0
C1516 C 0.09856 0.58648 0.86745 0.0
C1517 C 0.09947 0.6109 0.86863 0.0
C1518 C 0.0861 0.62207 0.87923 0.0
C1519 C 0.07188 0.60908 0.88835 0.0
C1520 C 0.11285 0.62468 0.85802 0.0
C1521 C 0.10109 0.64238 0.8506 0.0
C1522 C 0.13612 0.61887 0.85413 0.0
C1523 C 0.15029 0.60194 0.86241 0.0
C1524 C 0.15253 0.60433 0.87731 0.0
C1525 C 0.16572 0.58827 0.88509 0.0
C1526 C 0.17688 0.5698 0.8781 0.0
C1527 C 0.17491 0.56737 0.86329 0.0
C1528 C 0.16172 0.58337 0.85546 0.0
C1529 C 0.15744 0.68739 0.80634 0.0
C1530 C 0.15843 0.67252 0.79438 0.0
C1531 C 0.15016 0.67882 0.81956 0.0
C1532 C 0.14426 0.65521 0.82101 0.0
C1533 C 0.14636 0.64016 0.80925 0.0
C1534 C 0.15312 0.64879 0.79601 0.0
C1535 C 0.13391 0.64632 0.83434 0.0
C1536 C 0.14622 0.62957 0.84218 0.0
C1537 C 0.11131 0.6532 0.83878 0.0
C1538 C 0.09747 0.6707 0.83082 0.0
C1539 C 0.09084 0.66657 0.81657 0.0
C1540 C 0.07795 0.68328 0.80911 0.0
C1541 C 0.07142 0.70408 0.81584 0.0
C1542 C 0.07769 0.70817 0.83006 0.0
C1543 C 0.09062 0.69154 0.83756 0.0
H1544 H 0.06143 0.71698 0.81005 0.0
H1545 H 0.18709 0.55738 0.88414 0.0
H1546 H 0.45727 0.60517 0.13174 0.0
H1547 H 0.43312 0.62811 0.11547 0.0
H1548 H 0.37618 0.5796 0.12075 0.0
H1549 H 0.39986 0.55695 0.13739 0.0
H1550 H 0.38898 0.58578 0.09261 0.0
H1551 H 0.36924 0.6324 0.13312 0.0
H1552 H 0.37651 0.65622 0.15466 0.0
H1553 H 0.41432 0.70608 0.12965 0.0
H1554 H 0.40757 0.68239 0.10798 0.0
H1555 H 0.309 0.66812 0.05349 0.0
H1556 H 0.32496 0.65501 0.0765 0.0
H1557 H 0.39321 0.64763 0.05739 0.0
H1558 H 0.37739 0.66001 0.03444 0.0
H1559 H 0.36934 0.6701 0.09411 0.0
H1560 H 0.40456 0.60168 0.06026 0.0
H1561 H 0.39557 0.57856 0.03859 0.0
H1562 H 0.32396 0.57206 0.05198 0.0
H1563 H 0.33256 0.59549 0.07359 0.0
C1564 C 0.4394 0.5997 0.12977 0.0
C1565 C 0.43061 0.57903 0.13575 0.0
C1566 C 0.42563 0.61284 0.12044 0.0
C1567 C 0.4029 0.60551 0.11691 0.0
C1568 C 0.39373 0.58547 0.12331 0.0
C1569 C 0.40737 0.57246 0.13273 0.0
C1570 C 0.38974 0.61722 0.10537 0.0
C1571 C 0.3845 0.60416 0.09308 0.0
C1572 C 0.38389 0.6412 0.10592 0.0
C1573 C 0.38806 0.6555 0.11893 0.0
C1574 C 0.3793 0.64833 0.13223 0.0
C1575 C 0.38328 0.66184 0.14446 0.0
C1576 C 0.39591 0.68263 0.14353 0.0
C1577 C 0.40455 0.68997 0.13036 0.0
C1578 C 0.40062 0.67652 0.11809 0.0
C1579 C 0.32748 0.66408 0.0543 0.0
C1580 C 0.34192 0.66476 0.04218 0.0
C1581 C 0.33656 0.6567 0.06743 0.0
C1582 C 0.36018 0.65026 0.06855 0.0
C1583 C 0.37488 0.65238 0.05666 0.0
C1584 C 0.3658 0.65937 0.04356 0.0
C1585 C 0.36911 0.63864 0.08148 0.0
C1586 C 0.37363 0.65168 0.09388 0.0
C1587 C 0.37426 0.61462 0.08119 0.0
C1588 C 0.36919 0.60016 0.06846 0.0
C1589 C 0.38695 0.59519 0.05856 0.0
C1590 C 0.3819 0.58217 0.04628 0.0
C1591 C 0.35921 0.57382 0.04392 0.0
C1592 C 0.34151 0.57855 0.05381 0.0
C1593 C 0.34644 0.59177 0.06604 0.0
H1594 H 0.35534 0.5637 0.03442 0.0
H1595 H 0.39897 0.69307 0.15302 0.0
H1596 H 0.40191 0.93496 0.39455 0.0
H1597 H 0.37817 0.91775 0.37537 0.0
H1598 H 0.44062 0.90671 0.35037 0.0
H1599 H 0.46407 0.92497 0.36888 0.0
H1600 H 0.40829 0.92649 0.33485 0.0
H1601 H 0.4105 0.86196 0.36865 0.0
H1602 H 0.40262 0.84371 0.39193 0.0
H1603 H 0.32912 0.85734 0.38696 0.0
H1604 H 0.33661 0.87592 0.36371 0.0
H1605 H 0.397 0.84261 0.28409 0.0
H1606 H 0.40393 0.85822 0.30792 0.0
H1607 H 0.33038 0.87362 0.31236 0.0
H1608 H 0.32314 0.85766 0.28827 0.0
H1609 H 0.35794 0.85637 0.3391 0.0
H1610 H 0.35634 0.91645 0.30338 0.0
H1611 H 0.36549 0.93255 0.27968 0.0
H1612 H 0.43906 0.92638 0.28843 0.0
H1613 H 0.43035 0.90989 0.31209 0.0
C1614 C 0.41056 0.92895 0.38494 0.0
C1615 C 0.43499 0.93135 0.38333 0.0
C1616 C 0.39697 0.91889 0.37405 0.0
C1617 C 0.40761 0.91085 0.36144 0.0
C1618 C 0.43198 0.91281 0.35999 0.0
C1619 C 0.44546 0.92302 0.37072 0.0
C1620 C 0.39376 0.90129 0.34932 0.0
C1621 C 0.39724 0.9112 0.33584 0.0
C1622 C 0.3786 0.88185 0.35063 0.0
C1623 C 0.37414 0.87057 0.36454 0.0
C1624 C 0.39268 0.86122 0.37258 0.0
C1625 C 0.38828 0.85079 0.38576 0.0
C1626 C 0.3654 0.84944 0.39095 0.0
C1627 C 0.34684 0.85844 0.38294 0.0
C1628 C 0.35115 0.86891 0.36976 0.0
C1629 C 0.38217 0.84892 0.29019 0.0
C1630 C 0.35959 0.84931 0.28422 0.0
C1631 C 0.38615 0.8577 0.30385 0.0
C1632 C 0.36772 0.86729 0.31179 0.0
C1633 C 0.3448 0.86623 0.30636 0.0
C1634 C 0.34073 0.85719 0.29262 0.0
C1635 C 0.3735 0.88104 0.32472 0.0
C1636 C 0.36848 0.87203 0.33826 0.0
C1637 C 0.38735 0.90135 0.32355 0.0
C1638 C 0.39267 0.91186 0.30948 0.0
C1639 C 0.37447 0.91843 0.30022 0.0
C1640 C 0.37957 0.92763 0.28679 0.0
C1641 C 0.40284 0.93047 0.28255 0.0
C1642 C 0.42105 0.92419 0.29174 0.0
C1643 C 0.41604 0.91495 0.30516 0.0
H1644 H 0.40676 0.93757 0.27214 0.0
H1645 H 0.36203 0.84137 0.40115 0.0
H1646 H 0.10987 0.95724 0.63581 0.0
H1647 H 0.1341 0.9352 0.61917 0.0
H1648 H 0.07743 0.8868 0.61204 0.0
H1649 H 0.05356 0.90777 0.62948 0.0
H1650 H 0.11871 0.86456 0.61039 0.0
H1651 H 0.08499 0.93486 0.59059 0.0
H1652 H 0.07731 0.97715 0.58973 0.0
H1653 H 0.15114 0.99062 0.587 0.0
H1654 H 0.15926 0.9484 0.58803 0.0
H1655 H 0.13666 0.83202 0.53748 0.0
H1656 H 0.12492 0.84286 0.56177 0.0
H1657 H 0.18156 0.89271 0.56375 0.0
H1658 H 0.1922 0.88285 0.53916 0.0
H1659 H 0.14391 0.91336 0.5697 0.0
H1660 H 0.17713 0.84155 0.58594 0.0
H1661 H 0.18365 0.79906 0.58588 0.0
H1662 H 0.11075 0.78762 0.59451 0.0
H1663 H 0.1037 0.83002 0.59442 0.0
C1664 C 0.10271 0.94152 0.63108 0.0
C1665 C 0.07952 0.93458 0.63383 0.0
C1666 C 0.11657 0.92903 0.62144 0.0
C1667 C 0.10737 0.90969 0.61409 0.0
C1668 C 0.08483 0.9018 0.61749 0.0
C1669 C 0.07107 0.91405 0.62731 0.0
C1670 C 0.12014 0.89928 0.60183 0.0
C1671 C 0.12423 0.87514 0.60145 0.0
C1672 C 0.12763 0.91316 0.59028 0.0
C1673 C 0.12273 0.93852 0.58954 0.0
C1674 C 0.09958 0.94686 0.58989 0.0
C1675 C 0.09515 0.97081 0.58936 0.0
C1676 C 0.11373 0.98656 0.58835 0.0
C1677 C 0.13677 0.9784 0.58781 0.0
C1678 C 0.1413 0.95447 0.58836 0.0
C1679 C 0.14692 0.84479 0.54332 0.0
C1680 C 0.16525 0.85667 0.5366 0.0
C1681 C 0.14032 0.85092 0.55722 0.0
C1682 C 0.1524 0.86858 0.56468 0.0
C1683 C 0.17189 0.87913 0.55822 0.0
C1684 C 0.17804 0.87346 0.54423 0.0
C1685 C 0.14283 0.87848 0.57816 0.0
C1686 C 0.13902 0.90264 0.57872 0.0
C1687 C 0.1356 0.86453 0.58978 0.0
C1688 C 0.13987 0.839 0.59008 0.0
C1689 C 0.16246 0.82998 0.58775 0.0
C1690 C 0.16625 0.8059 0.58774 0.0
C1691 C 0.14762 0.79065 0.59015 0.0
C1692 C 0.12517 0.79945 0.59263 0.0
C1693 C 0.12127 0.82351 0.59264 0.0
H1694 H 0.15058 0.77201 0.59012 0.0
H1695 H 0.11027 0.00509 0.58794 0.0
H1696 H 0.57234 0.46506 0.8877 0.0
H1697 H 0.59614 0.44272 0.90435 0.0
H1698 H 0.62182 0.40023 0.86958 0.0
H1699 H 0.59756 0.42244 0.85281 0.0
H1700 H 0.61053 0.37373 0.89146 0.0
H1701 H 0.65746 0.4413 0.88587 0.0
H1702 H 0.66613 0.48332 0.88451 0.0
H1703 H 0.64458 0.49236 0.92808 0.0
H1704 H 0.63545 0.45046 0.92965 0.0
H1705 H 0.68252 0.32094 0.94576 0.0
H1706 H 0.67254 0.34168 0.92369 0.0
H1707 H 0.63361 0.39236 0.94822 0.0
H1708 H 0.64359 0.37204 0.97013 0.0
H1709 H 0.6601 0.41294 0.92792 0.0
H1710 H 0.60651 0.34664 0.93127 0.0
H1711 H 0.59749 0.30464 0.93243 0.0
H1712 H 0.63282 0.2934 0.89256 0.0
H1713 H 0.64228 0.33532 0.89126 0.0
C1714 C 0.5833 0.45117 0.88356 0.0
C1715 C 0.58326 0.44562 0.86895 0.0
C1716 C 0.59694 0.43843 0.89309 0.0
C1717 C 0.61116 0.42009 0.88818 0.0
C1718 C 0.61109 0.41439 0.87358 0.0
C1719 C 0.59723 0.42705 0.86404 0.0
C1720 C 0.62524 0.40644 0.89852 0.0
C1721 C 0.62183 0.38224 0.89922 0.0
C1722 C 0.63995 0.41751 0.90868 0.0
C1723 C 0.64568 0.44272 0.90785 0.0
C1724 C 0.65445 0.45226 0.89514 0.0
C1725 C 0.65946 0.47607 0.89433 0.0
C1726 C 0.65589 0.4905 0.90619 0.0
C1727 C 0.64735 0.48115 0.9189 0.0
C1728 C 0.6423 0.45737 0.91976 0.0
C1729 C 0.67198 0.33661 0.94641 0.0
C1730 C 0.66374 0.34482 0.95965 0.0
C1731 C 0.66626 0.34838 0.93382 0.0
C1732 C 0.65221 0.36847 0.93433 0.0
C1733 C 0.64453 0.37694 0.94758 0.0
C1734 C 0.65017 0.36523 0.9601 0.0
C1735 C 0.64455 0.38051 0.92118 0.0
C1736 C 0.64926 0.4044 0.91993 0.0
C1737 C 0.63116 0.36915 0.91049 0.0
C1738 C 0.62535 0.34403 0.91126 0.0
C1739 C 0.6125 0.33517 0.92281 0.0
C1740 C 0.60728 0.3114 0.92348 0.0
C1741 C 0.61465 0.29635 0.9126 0.0
C1742 C 0.62718 0.30507 0.90099 0.0
C1743 C 0.63246 0.32883 0.90028 0.0
H1744 H 0.6106 0.27795 0.91314 0.0
H1745 H 0.65976 0.50893 0.90554 0.0
H1746 H 0.60335 0.05251 0.11921 0.0
H1747 H 0.62572 0.07266 0.13777 0.0
H1748 H 0.57831 0.13102 0.13566 0.0
H1749 H 0.55596 0.1111 0.11683 0.0
H1750 H 0.62754 0.14337 0.14106 0.0
H1751 H 0.56571 0.09394 0.15871 0.0
H1752 H 0.54346 0.0572 0.16018 0.0
H1753 H 0.60518 0.02143 0.17446 0.0
H1754 H 0.6279 0.05791 0.17284 0.0
H1755 H 0.64624 0.18334 0.21359 0.0
H1756 H 0.63222 0.17283 0.18961 0.0
H1757 H 0.66434 0.10504 0.19368 0.0
H1758 H 0.67716 0.11506 0.21777 0.0
H1759 H 0.62172 0.09976 0.18649 0.0
H1760 H 0.68385 0.14948 0.16966 0.0
H1761 H 0.70614 0.18621 0.16819 0.0
H1762 H 0.64498 0.22159 0.15271 0.0
H1763 H 0.62225 0.18512 0.15424 0.0
C1764 C 0.59805 0.06991 0.12237 0.0
C1765 C 0.57772 0.0801 0.11668 0.0
C1766 C 0.61084 0.08138 0.133 0.0
C1767 C 0.60351 0.10321 0.13815 0.0
C1768 C 0.58422 0.11419 0.13181 0.0
C1769 C 0.57135 0.10268 0.12118 0.0
C1770 C 0.61396 0.11282 0.15139 0.0
C1771 C 0.6262 0.13402 0.15105 0.0
C1772 C 0.61225 0.10047 0.16435 0.0
C1773 C 0.59855 0.07859 0.16552 0.0
C1774 C 0.57457 0.0782 0.16206 0.0
C1775 C 0.56187 0.05743 0.16293 0.0
C1776 C 0.57291 0.03698 0.16738 0.0
C1777 C 0.59666 0.03727 0.171 0.0
C1778 C 0.60946 0.05799 0.17011 0.0
C1779 C 0.65061 0.16638 0.20919 0.0
C1780 C 0.66251 0.14988 0.21751 0.0
C1781 C 0.6427 0.16041 0.19548 0.0
C1782 C 0.6472 0.1381 0.1898 0.0
C1783 C 0.66044 0.12226 0.19785 0.0
C1784 C 0.66779 0.12799 0.2116 0.0
C1785 C 0.63619 0.13009 0.17624 0.0
C1786 C 0.62342 0.10919 0.17654 0.0
C1787 C 0.63756 0.14276 0.16332 0.0
C1788 C 0.65129 0.16461 0.16219 0.0
C1789 C 0.67512 0.16513 0.16602 0.0
C1790 C 0.68784 0.18589 0.16516 0.0
C1791 C 0.67696 0.20624 0.1604 0.0
C1792 C 0.65337 0.20583 0.15641 0.0
C1793 C 0.64057 0.1851 0.15725 0.0
H1794 H 0.68682 0.22231 0.15976 0.0
H1795 H 0.56305 0.02092 0.16805 0.0
H1796 H 0.90503 0.08949 0.34876 0.0
H1797 H 0.87894 0.10783 0.36645 0.0
H1798 H 0.9291 0.09294 0.39965 0.0
H1799 H 0.95485 0.07451 0.38224 0.0
H1800 H 0.88352 0.08085 0.40686 0.0
H1801 H 0.92548 0.14668 0.38505 0.0
H1802 H 0.93567 0.17132 0.36448 0.0
H1803 H 0.86285 0.18613 0.35744 0.0
H1804 H 0.85223 0.16135 0.37789 0.0
H1805 H 0.87872 0.14823 0.46711 0.0
H1806 H 0.88826 0.13008 0.44438 0.0
H1807 H 0.83087 0.16638 0.42432 0.0
H1808 H 0.82177 0.1856 0.44724 0.0
H1809 H 0.86794 0.16594 0.40716 0.0
H1810 H 0.82634 0.1077 0.43188 0.0
H1811 H 0.81508 0.08347 0.4524 0.0
H1812 H 0.88383 0.05319 0.45329 0.0
H1813 H 0.89565 0.0775 0.43293 0.0
C1814 C 0.91038 0.09011 0.35985 0.0
C1815 C 0.93207 0.08077 0.3641 0.0
C1816 C 0.89554 0.10064 0.3699 0.0
C1817 C 0.90215 0.10177 0.38434 0.0
C1818 C 0.92366 0.09223 0.38857 0.0
C1819 C 0.93847 0.08191 0.37858 0.0
C1820 C 0.88712 0.11292 0.39529 0.0
C1821 C 0.88002 0.09943 0.40694 0.0
C1822 C 0.88158 0.13695 0.39504 0.0
C1823 C 0.88806 0.15197 0.38287 0.0
C1824 C 0.91164 0.15507 0.37904 0.0
C1825 C 0.9175 0.16908 0.36742 0.0
C1826 C 0.89991 0.18023 0.35963 0.0
C1827 C 0.87644 0.17745 0.36347 0.0
C1828 C 0.8705 0.16344 0.37508 0.0
C1829 C 0.86806 0.15237 0.45789 0.0
C1830 C 0.84936 0.16814 0.45895 0.0
C1831 C 0.87345 0.14186 0.44489 0.0
C1832 C 0.85986 0.14632 0.43271 0.0
C1833 C 0.84143 0.1625 0.43362 0.0
C1834 C 0.83624 0.17342 0.44668 0.0
C1835 C 0.86557 0.13406 0.41914 0.0
C1836 C 0.87077 0.14724 0.40697 0.0
C1837 C 0.86905 0.10961 0.4188 0.0
C1838 C 0.86188 0.09447 0.43086 0.0
C1839 C 0.83908 0.09592 0.43647 0.0
C1840 C 0.83261 0.08218 0.44809 0.0
C1841 C 0.84873 0.0668 0.45414 0.0
C1842 C 0.87135 0.06508 0.44857 0.0
C1843 C 0.87793 0.07881 0.43697 0.0
H1844 H 0.84369 0.0562 0.46315 0.0
H1845 H 0.90448 0.19106 0.35063 0.0
H1846 H 0.95884 0.42197 0.62652 0.0
H1847 H 0.93634 0.39753 0.64273 0.0
H1848 H 0.87232 0.41836 0.62174 0.0
H1849 H 0.8949 0.44374 0.60591 0.0
H1850 H 0.866 0.42164 0.64833 0.0
H1851 H 0.89557 0.3608 0.61942 0.0
H1852 H 0.9246 0.33782 0.60592 0.0
H1853 H 0.96184 0.3231 0.64469 0.0
H1854 H 0.93324 0.3463 0.65842 0.0
H1855 H 0.80747 0.34488 0.69713 0.0
H1856 H 0.82272 0.35713 0.67382 0.0
H1857 H 0.89169 0.36461 0.6921 0.0
H1858 H 0.87657 0.35299 0.71536 0.0
H1859 H 0.8894 0.34231 0.66359 0.0
H1860 H 0.86181 0.4105 0.69065 0.0
H1861 H 0.83132 0.43278 0.70343 0.0
H1862 H 0.78775 0.43132 0.66603 0.0
H1863 H 0.81789 0.40874 0.6531 0.0
C1864 C 0.94 0.42102 0.62525 0.0
C1865 C 0.92854 0.43469 0.61502 0.0
C1866 C 0.92713 0.40692 0.63445 0.0
C1867 C 0.90259 0.40574 0.63335 0.0
C1868 C 0.89121 0.41893 0.62281 0.0
C1869 C 0.90407 0.43339 0.61378 0.0
C1870 C 0.88886 0.39245 0.64404 0.0
C1871 C 0.87078 0.40405 0.65136 0.0
C1872 C 0.89503 0.3695 0.64814 0.0
C1873 C 0.91229 0.35542 0.63995 0.0
C1874 C 0.91003 0.3528 0.62507 0.0
C1875 C 0.92641 0.33971 0.61737 0.0
C1876 C 0.94507 0.32903 0.62444 0.0
C1877 C 0.94737 0.33138 0.63923 0.0
C1878 C 0.93105 0.34447 0.64698 0.0
C1879 C 0.82593 0.34886 0.6961 0.0
C1880 C 0.84083 0.34818 0.70804 0.0
C1881 C 0.83459 0.35581 0.68282 0.0
C1882 C 0.8583 0.36174 0.6813 0.0
C1883 C 0.87337 0.35998 0.69307 0.0
C1884 C 0.86467 0.35349 0.70636 0.0
C1885 C 0.86723 0.37181 0.66789 0.0
C1886 C 0.88436 0.35963 0.66018 0.0
C1887 C 0.85994 0.39402 0.66323 0.0
C1888 C 0.84193 0.40769 0.67099 0.0
C1889 C 0.84563 0.41475 0.68521 0.0
C1890 C 0.82844 0.42747 0.69246 0.0
C1891 C 0.80757 0.43339 0.68556 0.0
C1892 C 0.80389 0.42667 0.67137 0.0
C1893 C 0.82102 0.41392 0.66408 0.0
H1894 H 0.79429 0.44324 0.6912 0.0
H1895 H 0.95774 0.31891 0.61846 0.0
H1896 H 0.61361 0.05387 0.38377 0.0
H1897 H 0.63374 0.07852 0.36648 0.0
H1898 H 0.57403 0.12457 0.36529 0.0
H1899 H 0.55349 0.09958 0.38215 0.0
H1900 H 0.5875 0.11383 0.33924 0.0
H1901 H 0.62538 0.14099 0.38149 0.0
H1902 H 0.64699 0.13816 0.40422 0.0
H1903 H 0.70523 0.10687 0.38242 0.0
H1904 H 0.68383 0.10919 0.35957 0.0
H1905 H 0.64406 0.20081 0.29787 0.0
H1906 H 0.62925 0.18398 0.32019 0.0
H1907 H 0.67355 0.1239 0.31398 0.0
H1908 H 0.68762 0.14025 0.29144 0.0
H1909 H 0.66822 0.14483 0.34467 0.0
H1910 H 0.62706 0.11365 0.30312 0.0
H1911 H 0.60538 0.11774 0.28049 0.0
H1912 H 0.55265 0.15827 0.30185 0.0
H1913 H 0.57432 0.1548 0.32457 0.0
C1914 C 0.60478 0.06925 0.37982 0.0
C1915 C 0.58193 0.07473 0.38432 0.0
C1916 C 0.61641 0.08347 0.37007 0.0
C1917 C 0.60548 0.10352 0.36469 0.0
C1918 C 0.58284 0.10924 0.36934 0.0
C1919 C 0.57119 0.09502 0.37907 0.0
C1920 C 0.61698 0.11764 0.3535 0.0
C1921 C 0.60498 0.12094 0.34058 0.0
C1922 C 0.63997 0.12659 0.3551 0.0
C1923 C 0.6529 0.12507 0.36883 0.0
C1924 C 0.64271 0.13331 0.38156 0.0
C1925 C 0.65494 0.13184 0.39446 0.0
C1926 C 0.67744 0.12229 0.39477 0.0
C1927 C 0.68778 0.11424 0.38216 0.0
C1928 C 0.67562 0.11565 0.36923 0.0
C1929 C 0.65099 0.18429 0.3015 0.0
C1930 C 0.66691 0.17174 0.29307 0.0
C1931 C 0.64257 0.17473 0.31419 0.0
C1932 C 0.65039 0.15276 0.31867 0.0
C1933 C 0.66748 0.14094 0.31071 0.0
C1934 C 0.67541 0.15022 0.29784 0.0
C1935 C 0.63867 0.14082 0.3306 0.0
C1936 C 0.65064 0.13788 0.34353 0.0
C1937 C 0.6156 0.13228 0.32909 0.0
C1938 C 0.60249 0.13428 0.31548 0.0
C1939 C 0.611 0.12368 0.30295 0.0
C1940 C 0.59869 0.12584 0.29012 0.0
C1941 C 0.5777 0.13834 0.28972 0.0
C1942 C 0.56895 0.14865 0.30217 0.0
C1943 C 0.58125 0.14661 0.31502 0.0
H1944 H 0.56817 0.13996 0.27978 0.0
H1945 H 0.68689 0.12119 0.40477 0.0
H1946 H 0.9243 0.11306 0.64832 0.0
H1947 H 0.90542 0.13943 0.63109 0.0
H1948 H 0.9406 0.10378 0.59657 0.0
H1949 H 0.95923 0.07762 0.61359 0.0
H1950 H 0.94129 0.1522 0.59382 0.0
H1951 H 0.88592 0.0892 0.60515 0.0
H1952 H 0.86083 0.06735 0.6218 0.0
H1953 H 0.82403 0.13028 0.63263 0.0
H1954 H 0.84913 0.15253 0.61615 0.0
H1955 H 0.88728 0.13354 0.52987 0.0
H1956 H 0.90175 0.13135 0.55419 0.0
H1957 H 0.85372 0.18541 0.56717 0.0
H1958 H 0.83901 0.188 0.54248 0.0
H1959 H 0.856 0.14266 0.58535 0.0
H1960 H 0.90482 0.20243 0.56775 0.0
H1961 H 0.92938 0.22252 0.55005 0.0
H1962 H 0.97846 0.16584 0.55069 0.0
H1963 H 0.95401 0.14521 0.56822 0.0
C1964 C 0.92811 0.11113 0.63705 0.0
C1965 C 0.943 0.09323 0.63222 0.0
C1966 C 0.91734 0.12611 0.62726 0.0
C1967 C 0.92162 0.1235 0.61257 0.0
C1968 C 0.93713 0.10615 0.60786 0.0
C1969 C 0.94761 0.0911 0.61756 0.0
C1970 C 0.90917 0.13761 0.60177 0.0
C1971 C 0.9226 0.15042 0.59205 0.0
C1972 C 0.88465 0.13594 0.59976 0.0
C1973 C 0.86957 0.12255 0.60959 0.0
C1974 C 0.8726 0.09839 0.61117 0.0
C1975 C 0.85836 0.08593 0.62056 0.0
C1976 C 0.84091 0.09743 0.62831 0.0
C1977 C 0.8376 0.1214 0.62665 0.0
C1978 C 0.85182 0.13394 0.6173 0.0
C1979 C 0.87967 0.14503 0.53782 0.0
C1980 C 0.86193 0.16094 0.5342 0.0
C1981 C 0.88808 0.1438 0.55173 0.0
C1982 C 0.87894 0.15834 0.56241 0.0
C1983 C 0.86103 0.17413 0.559 0.0
C1984 C 0.85273 0.1756 0.54493 0.0
C1985 C 0.88837 0.1562 0.57705 0.0
C1986 C 0.87447 0.1455 0.58746 0.0
C1987 C 0.91248 0.15982 0.57971 0.0
C1988 C 0.92753 0.17226 0.56931 0.0
C1989 C 0.92079 0.19419 0.56407 0.0
C1990 C 0.9347 0.20568 0.55406 0.0
C1991 C 0.95547 0.19547 0.54925 0.0
C1992 C 0.96239 0.17375 0.55445 0.0
C1993 C 0.94853 0.16217 0.56445 0.0
H1994 H 0.96621 0.20438 0.5415 0.0
H1995 H 0.8299 0.08776 0.63557 0.0
H1996 H 0.94761 0.42173 0.87976 0.0
H1997 H 0.92833 0.40011 0.86055 0.0
H1998 H 0.86489 0.43927 0.86748 0.0
H1999 H 0.88415 0.46114 0.88686 0.0
H2000 H 0.86097 0.38604 0.86063 0.0
H2001 H 0.89091 0.45945 0.84351 0.0
H2002 H 0.92089 0.49016 0.84135 0.0
H2003 H 0.96852 0.44088 0.82257 0.0
H2004 H 0.93894 0.40978 0.82486 0.0
H2005 H 0.82091 0.36018 0.78806 0.0
H2006 H 0.82835 0.37652 0.81196 0.0
H2007 H 0.90196 0.36127 0.80728 0.0
H2008 H 0.89476 0.34554 0.7835 0.0
H2009 H 0.89543 0.40564 0.81362 0.0
H2010 H 0.86652 0.33197 0.83098 0.0
H2011 H 0.83758 0.30041 0.83372 0.0
H2012 H 0.78856 0.34882 0.85198 0.0
H2013 H 0.81711 0.38075 0.84917 0.0
C2014 C 0.92937 0.42537 0.87747 0.0
C2015 C 0.91741 0.44319 0.88479 0.0
C2016 C 0.91841 0.41302 0.86648 0.0
C2017 C 0.89524 0.41814 0.86264 0.0
C2018 C 0.88275 0.43502 0.87038 0.0
C2019 C 0.89382 0.44761 0.88133 0.0
C2020 C 0.88545 0.40779 0.84943 0.0
C2021 C 0.86812 0.39052 0.85029 0.0
C2022 C 0.89506 0.41354 0.83603 0.0
C2023 C 0.91279 0.43225 0.83449 0.0
C2024 C 0.90785 0.45512 0.83904 0.0
C2025 C 0.92476 0.47261 0.83777 0.0
C2026 C 0.94662 0.46746 0.83185 0.0
C2027 C 0.95159 0.44484 0.82716 0.0
C2028 C 0.93476 0.42728 0.82844 0.0
C2029 C 0.83857 0.35989 0.7923 0.0
C2030 C 0.85731 0.35189 0.78386 0.0
C2031 C 0.8428 0.3692 0.80594 0.0
C2032 C 0.86575 0.37028 0.81136 0.0
C2033 C 0.88415 0.36087 0.80326 0.0
C2034 C 0.88001 0.35187 0.78966 0.0
C2035 C 0.87135 0.38317 0.82471 0.0
C2036 C 0.88794 0.40117 0.82389 0.0
C2037 C 0.86103 0.37796 0.83806 0.0
C2038 C 0.84384 0.3588 0.8397 0.0
C2039 C 0.84948 0.33593 0.83545 0.0
C2040 C 0.83317 0.31797 0.83704 0.0
C2041 C 0.81122 0.32263 0.84297 0.0
C2042 C 0.80555 0.34525 0.84736 0.0
C2043 C 0.8218 0.36328 0.84578 0.0
H2044 H 0.79862 0.30869 0.8442 0.0
H2045 H 0.95968 0.48102 0.83087 0.0
H2046 H 0.60225 0.41768 0.14458 0.0
H2047 H 0.62376 0.39282 0.12776 0.0
H2048 H 0.56524 0.39473 0.09866 0.0
H2049 H 0.54407 0.42023 0.11497 0.0
H2050 H 0.58451 0.34953 0.10238 0.0
H2051 H 0.60925 0.42958 0.09315 0.0
H2052 H 0.62694 0.46728 0.09991 0.0
H2053 H 0.69096 0.43264 0.1112 0.0
H2054 H 0.67349 0.39466 0.10468 0.0
H2055 H 0.61207 0.34675 0.03016 0.0
H2056 H 0.60069 0.35243 0.05505 0.0
H2057 H 0.67136 0.33732 0.06849 0.0
H2058 H 0.68268 0.33088 0.04341 0.0
H2059 H 0.65401 0.38141 0.07749 0.0
H2060 H 0.6325 0.30266 0.08181 0.0
H2061 H 0.61539 0.26457 0.07538 0.0
H2062 H 0.54694 0.29541 0.07352 0.0
H2063 H 0.56363 0.33371 0.07996 0.0
C2064 C 0.59399 0.41295 0.13456 0.0
C2065 C 0.57134 0.42101 0.13118 0.0
C2066 C 0.60626 0.39859 0.12503 0.0
C2067 C 0.59602 0.39188 0.11202 0.0
C2068 C 0.57333 0.39949 0.10874 0.0
C2069 C 0.5612 0.41402 0.11814 0.0
C2070 C 0.60908 0.37792 0.10133 0.0
C2071 C 0.59977 0.3564 0.09695 0.0
C2072 C 0.62953 0.38649 0.09468 0.0
C2073 C 0.63996 0.40928 0.09864 0.0
C2074 C 0.62701 0.42998 0.09722 0.0
C2075 C 0.63702 0.4514 0.10097 0.0
C2076 C 0.66003 0.45234 0.10604 0.0
C2077 C 0.67311 0.43187 0.10732 0.0
C2078 C 0.66317 0.4104 0.1036 0.0
C2079 C 0.62499 0.34394 0.03846 0.0
C2080 C 0.6482 0.3384 0.03495 0.0
C2081 C 0.61848 0.3471 0.05267 0.0
C2082 C 0.63518 0.34523 0.06361 0.0
C2083 C 0.6582 0.33867 0.06019 0.0
C2084 C 0.66461 0.33492 0.04592 0.0
C2085 C 0.62887 0.35343 0.07813 0.0
C2086 C 0.63931 0.37401 0.08322 0.0
C2087 C 0.60956 0.34393 0.08549 0.0
C2088 C 0.59935 0.32109 0.08132 0.0
C2089 C 0.61382 0.30136 0.07994 0.0
C2090 C 0.60418 0.27971 0.07637 0.0
C2091 C 0.58009 0.27757 0.07404 0.0
C2092 C 0.56559 0.29708 0.07534 0.0
C2093 C 0.57512 0.31875 0.07902 0.0
H2094 H 0.57269 0.26081 0.0712 0.0
H2095 H 0.66776 0.46894 0.10893 0.0
loop_
_geom_bond_atom_site_label_1
_geom_bond_atom_site_label_2
_geom_bond_distance
_geom_bond_site_symmetry_2
_ccdc_geom_bond_type
H0 C19 0.949 . S
H1 C20 0.950 . S
H2 C22 0.950 . S
H3 C23 0.950 . S
H4 C25 0.950 . S
H5 C28 0.950 . S
H6 C29 0.950 . S
H7 C31 0.951 . S
H8 C32 0.949 . S
H9 C34 0.949 . S
H10 C35 0.950 . S
H11 C37 0.950 . S
H12 C38 0.950 . S
H13 C40 0.950 1_565 S
H14 C43 0.950 . S
H15 C44 0.950 . S
H16 C46 0.951 . S
H17 C47 0.949 1_545 S
C18 C19 1.376 . S
C18 C23 1.386 . S
C18 C24 1.483 . S
C19 H0 0.949 . S
C19 C18 1.376 . S
C19 C20 1.397 . S
C20 H1 0.950 . S
C20 C19 1.397 . S
C20 C21 1.391 . S
C21 C20 1.391 . S
C21 C22 1.405 . S
C22 H2 0.950 . S
C22 C21 1.405 . S
C22 C23 1.367 . S
C23 H3 0.950 . S
C23 C18 1.386 . S
C23 C22 1.367 . S
C24 C18 1.483 . S
C24 C25 1.382 1_655 S
C24 C26 1.403 . S
C25 H4 0.950 . S
C25 C24 1.382 1_455 S
C25 C41 1.411 1_545 S
C26 C24 1.403 . S
C26 C27 1.489 . S
C26 C40 1.411 1_655 S
C27 C26 1.489 . S
C27 C28 1.383 . S
C27 C32 1.382 . S
C28 H5 0.950 . S
C28 C27 1.383 . S
C28 C29 1.395 . S
C29 H6 0.950 . S
C29 C28 1.395 . S
C29 C30 1.288 . S
C30 C29 1.288 . S
C30 C31 1.392 . S
C31 H7 0.951 . S
C31 C30 1.392 . S
C31 C32 1.392 . S
C32 H8 0.949 . S
C32 C27 1.382 . S
C32 C31 1.392 . S
C33 C34 1.376 . S
C33 C38 1.386 . S
C33 C39 1.483 . S
C34 H9 0.949 . S
C34 C33 1.376 . S
C34 C35 1.397 . S
C35 H10 0.950 . S
C35 C34 1.397 . S
C35 C36 1.391 . S
C36 C35 1.391 . S
C36 C37 1.405 . S
C37 H11 0.950 . S
C37 C36 1.405 . S
C37 C38 1.367 . S
C38 H12 0.950 . S
C38 C33 1.386 . S
C38 C37 1.367 . S
C39 C33 1.483 . S
C39 C40 1.382 1_565 S
C39 C41 1.403 . S
C40 H13 0.950 1_545 S
C40 C26 1.411 1_455 S
C40 C39 1.382 1_545 S
C41 C25 1.411 1_565 S
C41 C39 1.403 . S
C41 C42 1.489 . S
C42 C41 1.489 . S
C42 C43 1.383 . S
C42 C47 1.382 . S
C43 H14 0.950 . S
C43 C42 1.383 . S
C43 C44 1.395 . S
C44 H15 0.950 . S
C44 C43 1.395 . S
C44 C45 1.288 . S
C45 C44 1.288 . S
C45 C46 1.392 . S
C46 H16 0.951 . S
C46 C45 1.392 . S
C46 C47 1.392 . S
C47 H17 0.949 1_565 S
C47 C42 1.382 . S
C47 C46 1.392 . S
H48 C67 0.949 1_455 S
H49 C68 0.950 . S
H50 C70 0.950 . S
H51 C71 0.950 . S
H52 C73 0.950 . S
H53 C76 0.950 . S
H54 C77 0.950 . S
H55 C79 0.951 . S
H56 C80 0.949 . S
H57 C82 0.949 . S
H58 C83 0.950 . S
H59 C85 0.950 . S
H60 C86 0.950 . S
H61 C88 0.950 1_655 S
H62 C91 0.950 . S
H63 C92 0.950 . S
H64 C94 0.951 . S
H65 C95 0.949 . S
C66 C67 1.376 . S
C66 C71 1.386 . S
C66 C72 1.483 . S
C67 H48 0.949 1_655 S
C67 C66 1.376 . S
C67 C68 1.397 . S
C68 H49 0.950 . S
C68 C67 1.397 . S
C68 C69 1.391 . S
C69 C68 1.391 . S
C69 C70 1.405 . S
C70 H50 0.950 . S
C70 C69 1.405 . S
C70 C71 1.367 . S
C71 H51 0.950 . S
C71 C66 1.386 . S
C71 C70 1.367 . S
C72 C66 1.483 . S
C72 C73 1.382 1_655 S
C72 C74 1.403 . S
C73 H52 0.950 . S
C73 C72 1.382 1_455 S
C73 C89 1.411 . S
C74 C72 1.403 . S
C74 C75 1.489 . S
C74 C88 1.411 1_655 S
C75 C74 1.489 . S
C75 C76 1.383 . S
C75 C80 1.382 . S
C76 H53 0.950 . S
C76 C75 1.383 . S
C76 C77 1.395 . S
C77 H54 0.950 . S
C77 C76 1.395 . S
C77 C78 1.288 . S
C78 C77 1.288 . S
C78 C79 1.392 . S
C79 H55 0.951 . S
C79 C78 1.392 . S
C79 C80 1.392 . S
C80 H56 0.949 . S
C80 C75 1.382 . S
C80 C79 1.392 . S
C81 C82 1.376 . S
C81 C86 1.386 . S
C81 C87 1.483 . S
C82 H57 0.949 . S
C82 C81 1.376 . S
C82 C83 1.397 . S
C83 H58 0.950 . S
C83 C82 1.397 . S
C83 C84 1.391 . S
C84 C83 1.391 . S
C84 C85 1.405 . S
C85 H59 0.950 . S
C85 C84 1.405 . S
C85 C86 1.367 . S
C86 H60 0.950 . S
C86 C81 1.386 . S
C86 C85 1.367 . S
C87 C81 1.483 . S
C87 C88 1.382 . S
C87 C89 1.403 . S
C88 H61 0.950 1_455 S
C88 C74 1.411 1_455 S
C88 C87 1.382 . S
C89 C73 1.411 . S
C89 C87 1.403 . S
C89 C90 1.489 . S
C90 C89 1.489 . S
C90 C91 1.383 . S
C90 C95 1.382 . S
C91 H62 0.950 . S
C91 C90 1.383 . S
C91 C92 1.395 . S
C92 H63 0.950 . S
C92 C91 1.395 . S
C92 C93 1.288 . S
C93 C92 1.288 . S
C93 C94 1.392 . S
C94 H64 0.951 . S
C94 C93 1.392 . S
C94 C95 1.392 . S
C95 H65 0.949 . S
C95 C90 1.382 . S
C95 C94 1.392 . S
H96 C115 0.949 . S
H97 C116 0.950 . S
H98 C118 0.950 . S
H99 C119 0.950 . S
H100 C121 0.950 . S
H101 C124 0.950 . S
H102 C125 0.950 . S
H103 C127 0.951 . S
H104 C128 0.949 . S
H105 C130 0.949 . S
H106 C131 0.950 . S
H107 C133 0.950 . S
H108 C134 0.950 . S
H109 C136 0.950 . S
H110 C139 0.950 . S
H111 C140 0.950 . S
H112 C142 0.951 . S
H113 C143 0.949 . S
C114 C115 1.376 . S
C114 C119 1.386 . S
C114 C120 1.483 . S
C115 H96 0.949 . S
C115 C114 1.376 . S
C115 C116 1.397 . S
C116 H97 0.950 . S
C116 C115 1.397 . S
C116 C117 1.391 . S
C117 C116 1.391 . S
C117 C118 1.405 . S
C118 H98 0.950 . S
C118 C117 1.405 . S
C118 C119 1.367 . S
C119 H99 0.950 . S
C119 C114 1.386 . S
C119 C118 1.367 . S
C120 C114 1.483 . S
C120 C121 1.382 . S
C120 C122 1.403 . S
C121 H100 0.950 . S
C121 C120 1.382 . S
C121 C137 1.411 . S
C122 C120 1.403 . S
C122 C123 1.489 . S
C122 C136 1.411 . S
C123 C122 1.489 . S
C123 C124 1.383 . S
C123 C128 1.382 . S
C124 H101 0.950 . S
C124 C123 1.383 . S
C124 C125 1.395 . S
C125 H102 0.950 . S
C125 C124 1.395 . S
C125 C126 1.288 . S
C126 C125 1.288 . S
C126 C127 1.392 . S
C127 H103 0.951 . S
C127 C126 1.392 . S
C127 C128 1.392 . S
C128 H104 0.949 . S
C128 C123 1.382 . S
C128 C127 1.392 . S
C129 C130 1.376 . S
C129 C134 1.386 . S
C129 C135 1.483 . S
C130 H105 0.949 . S
C130 C129 1.376 . S
C130 C131 1.397 . S
C131 H106 0.950 . S
C131 C130 1.397 . S
C131 C132 1.391 . S
C132 C131 1.391 . S
C132 C133 1.405 . S
C133 H107 0.950 . S
C133 C132 1.405 . S
C133 C134 1.367 . S
C134 H108 0.950 . S
C134 C129 1.386 . S
C134 C133 1.367 . S
C135 C129 1.483 . S
C135 C136 1.382 . S
C135 C137 1.403 . S
C136 H109 0.950 . S
C136 C122 1.411 . S
C136 C135 1.382 . S
C137 C121 1.411 . S
C137 C135 1.403 . S
C137 C138 1.489 . S
C138 C137 1.489 . S
C138 C139 1.383 . S
C138 C143 1.382 . S
C139 H110 0.950 . S
C139 C138 1.383 . S
C139 C140 1.395 . S
C140 H111 0.950 . S
C140 C139 1.395 . S
C140 C141 1.288 . S
C141 C140 1.288 . S
C141 C142 1.392 . S
C142 H112 0.951 . S
C142 C141 1.392 . S
C142 C143 1.392 . S
C143 H113 0.949 . S
C143 C138 1.382 . S
C143 C142 1.392 . S
H144 C163 0.949 . S
H145 C164 0.950 . S
H146 C166 0.950 . S
H147 C167 0.950 . S
H148 C169 0.950 . S
H149 C172 0.950 . S
H150 C173 0.950 . S
H151 C175 0.951 . S
H152 C176 0.949 . S
H153 C178 0.949 . S
H154 C179 0.950 . S
H155 C181 0.950 . S
H156 C182 0.950 . S
H157 C184 0.950 . S
H158 C187 0.950 . S
H159 C188 0.950 . S
H160 C190 0.951 . S
H161 C191 0.949 . S
C162 C163 1.376 . S
C162 C167 1.386 . S
C162 C168 1.483 . S
C163 H144 0.949 . S
C163 C162 1.376 . S
C163 C164 1.397 . S
C164 H145 0.950 . S
C164 C163 1.397 . S
C164 C165 1.391 . S
C165 C164 1.391 . S
C165 C166 1.405 . S
C166 H146 0.950 . S
C166 C165 1.405 . S
C166 C167 1.367 . S
C167 H147 0.950 . S
C167 C162 1.386 . S
C167 C166 1.367 . S
C168 C162 1.483 . S
C168 C169 1.382 . S
C168 C170 1.403 . S
C169 H148 0.950 . S
C169 C168 1.382 . S
C169 C185 1.411 1_565 S
C170 C168 1.403 . S
C170 C171 1.489 . S
C170 C184 1.411 1_565 S
C171 C170 1.489 . S
C171 C172 1.383 . S
C171 C176 1.382 . S
C172 H149 0.950 . S
C172 C171 1.383 . S
C172 C173 1.395 . S
C173 H150 0.950 . S
C173 C172 1.395 . S
C173 C174 1.288 . S
C174 C173 1.288 . S
C174 C175 1.392 . S
C175 H151 0.951 . S
C175 C174 1.392 . S
C175 C176 1.392 . S
C176 H152 0.949 . S
C176 C171 1.382 . S
C176 C175 1.392 . S
C177 C178 1.376 . S
C177 C182 1.386 . S
C177 C183 1.483 . S
C178 H153 0.949 . S
C178 C177 1.376 . S
C178 C179 1.397 . S
C179 H154 0.950 . S
C179 C178 1.397 . S
C179 C180 1.391 . S
C180 C179 1.391 . S
C180 C181 1.405 . S
C181 H155 0.950 . S
C181 C180 1.405 . S
C181 C182 1.367 . S
C182 H156 0.950 . S
C182 C177 1.386 . S
C182 C181 1.367 . S
C183 C177 1.483 . S
C183 C184 1.382 . S
C183 C185 1.403 . S
C184 H157 0.950 . S
C184 C170 1.411 1_545 S
C184 C183 1.382 . S
C185 C169 1.411 1_545 S
C185 C183 1.403 . S
C185 C186 1.489 . S
C186 C185 1.489 . S
C186 C187 1.383 . S
C186 C191 1.382 . S
C187 H158 0.950 . S
C187 C186 1.383 . S
C187 C188 1.395 . S
C188 H159 0.950 . S
C188 C187 1.395 . S
C188 C189 1.288 . S
C189 C188 1.288 . S
C189 C190 1.392 . S
C190 H160 0.951 . S
C190 C189 1.392 . S
C190 C191 1.392 . S
C191 H161 0.949 . S
C191 C186 1.382 . S
C191 C190 1.392 . S
H192 C211 0.949 . S
H193 C212 0.950 . S
H194 C214 0.950 . S
H195 C215 0.950 . S
H196 C217 0.950 . S
H197 C220 0.950 . S
H198 C221 0.950 . S
H199 C223 0.951 . S
H200 C224 0.949 . S
H201 C226 0.949 . S
H202 C227 0.950 . S
H203 C229 0.950 . S
H204 C230 0.950 . S
H205 C232 0.950 . S
H206 C235 0.950 . S
H207 C236 0.950 . S
H208 C238 0.951 . S
H209 C239 0.949 . S
C210 C211 1.376 . S
C210 C215 1.386 . S
C210 C216 1.483 . S
C211 H192 0.949 . S
C211 C210 1.376 . S
C211 C212 1.397 . S
C212 H193 0.950 . S
C212 C211 1.397 . S
C212 C213 1.391 . S
C213 C212 1.391 . S
C213 C214 1.405 . S
C214 H194 0.950 . S
C214 C213 1.405 . S
C214 C215 1.367 . S
C215 H195 0.950 . S
C215 C210 1.386 . S
C215 C214 1.367 . S
C216 C210 1.483 . S
C216 C217 1.382 1_455 S
C216 C218 1.403 . S
C217 H196 0.950 . S
C217 C216 1.382 1_655 S
C217 C233 1.411 . S
C218 C216 1.403 . S
C218 C219 1.489 . S
C218 C232 1.411 . S
C219 C218 1.489 . S
C219 C220 1.383 . S
C219 C224 1.382 . S
C220 H197 0.950 . S
C220 C219 1.383 . S
C220 C221 1.395 . S
C221 H198 0.950 . S
C221 C220 1.395 . S
C221 C222 1.288 . S
C222 C221 1.288 . S
C222 C223 1.392 . S
C223 H199 0.951 . S
C223 C222 1.392 . S
C223 C224 1.392 . S
C224 H200 0.949 . S
C224 C219 1.382 . S
C224 C223 1.392 . S
C225 C226 1.376 . S
C225 C230 1.386 . S
C225 C231 1.483 . S
C226 H201 0.949 . S
C226 C225 1.376 . S
C226 C227 1.397 . S
C227 H202 0.950 . S
C227 C226 1.397 . S
C227 C228 1.391 . S
C228 C227 1.391 . S
C228 C229 1.405 . S
C229 H203 0.950 . S
C229 C228 1.405 . S
C229 C230 1.367 . S
C230 H204 0.950 . S
C230 C225 1.386 . S
C230 C229 1.367 . S
C231 C225 1.483 . S
C231 C232 1.382 1_655 S
C231 C233 1.403 . S
C232 H205 0.950 . S
C232 C218 1.411 . S
C232 C231 1.382 1_455 S
C233 C217 1.411 . S
C233 C231 1.403 . S
C233 C234 1.489 . S
C234 C233 1.489 . S
C234 C235 1.383 . S
C234 C239 1.382 . S
C235 H206 0.950 . S
C235 C234 1.383 . S
C235 C236 1.395 . S
C236 H207 0.950 . S
C236 C235 1.395 . S
C236 C237 1.288 . S
C237 C236 1.288 . S
C237 C238 1.392 . S
C238 H208 0.951 . S
C238 C237 1.392 . S
C238 C239 1.392 . S
C239 H209 0.949 . S
C239 C234 1.382 . S
C239 C238 1.392 . S
H240 C259 0.949 . S
H241 C260 0.950 . S
H242 C262 0.950 . S
H243 C263 0.950 . S
H244 C265 0.950 . S
H245 C268 0.950 . S
H246 C269 0.950 . S
H247 C271 0.951 . S
H248 C272 0.949 . S
H249 C274 0.949 . S
H250 C275 0.950 . S
H251 C277 0.950 . S
H252 C278 0.950 . S
H253 C280 0.950 . S
H254 C283 0.950 . S
H255 C284 0.950 . S
H256 C286 0.951 . S
H257 C287 0.949 . S
C258 C259 1.376 . S
C258 C263 1.386 . S
C258 C264 1.483 . S
C259 H240 0.949 . S
C259 C258 1.376 . S
C259 C260 1.397 . S
C260 H241 0.950 . S
C260 C259 1.397 . S
C260 C261 1.391 . S
C261 C260 1.391 . S
C261 C262 1.405 . S
C262 H242 0.950 . S
C262 C261 1.405 . S
C262 C263 1.367 . S
C263 H243 0.950 . S
C263 C258 1.386 . S
C263 C262 1.367 . S
C264 C258 1.483 . S
C264 C265 1.382 . S
C264 C266 1.403 . S
C265 H244 0.950 . S
C265 C264 1.382 . S
C265 C281 1.411 . S
C266 C264 1.403 . S
C266 C267 1.489 . S
C266 C280 1.411 . S
C267 C266 1.489 . S
C267 C268 1.383 . S
C267 C272 1.382 . S
C268 H245 0.950 . S
C268 C267 1.383 . S
C268 C269 1.395 . S
C269 H246 0.950 . S
C269 C268 1.395 . S
C269 C270 1.288 . S
C270 C269 1.288 . S
C270 C271 1.392 . S
C271 H247 0.951 . S
C271 C270 1.392 . S
C271 C272 1.392 . S
C272 H248 0.949 . S
C272 C267 1.382 . S
C272 C271 1.392 . S
C273 C274 1.376 . S
C273 C278 1.386 . S
C273 C279 1.483 . S
C274 H249 0.949 . S
C274 C273 1.376 . S
C274 C275 1.397 . S
C275 H250 0.950 . S
C275 C274 1.397 . S
C275 C276 1.391 . S
C276 C275 1.391 . S
C276 C277 1.405 . S
C277 H251 0.950 . S
C277 C276 1.405 . S
C277 C278 1.367 . S
C278 H252 0.950 . S
C278 C273 1.386 . S
C278 C277 1.367 . S
C279 C273 1.483 . S
C279 C280 1.382 . S
C279 C281 1.403 . S
C280 H253 0.950 . S
C280 C266 1.411 . S
C280 C279 1.382 . S
C281 C265 1.411 . S
C281 C279 1.403 . S
C281 C282 1.489 . S
C282 C281 1.489 . S
C282 C283 1.383 . S
C282 C287 1.382 . S
C283 H254 0.950 . S
C283 C282 1.383 . S
C283 C284 1.395 . S
C284 H255 0.950 . S
C284 C283 1.395 . S
C284 C285 1.288 . S
C285 C284 1.288 . S
C285 C286 1.392 . S
C286 H256 0.951 . S
C286 C285 1.392 . S
C286 C287 1.392 . S
C287 H257 0.949 . S
C287 C282 1.382 . S
C287 C286 1.392 . S
H288 C307 0.949 . S
H289 C308 0.950 . S
H290 C310 0.950 . S
H291 C311 0.950 . S
H292 C313 0.946 1_565 S
H293 C316 0.950 . S
H294 C317 0.950 . S
H295 C319 0.951 . S
H296 C320 0.949 1_545 S
H297 C322 0.949 . S
H298 C323 0.950 . S
H299 C325 0.950 . S
H300 C326 0.950 . S
H301 C328 0.950 . S
H302 C331 0.950 . S
H303 C332 0.950 . S
H304 C334 0.951 . S
H305 C335 0.944 . S
C306 C307 1.376 . S
C306 C311 1.386 . S
C306 C312 1.483 . S
C307 H288 0.949 . S
C307 C306 1.376 . S
C307 C308 1.397 . S
C308 H289 0.950 . S
C308 C307 1.397 . S
C308 C309 1.391 . S
C309 C308 1.391 . S
C309 C310 1.405 . S
C310 H290 0.950 . S
C310 C309 1.405 . S
C310 C311 1.367 . S
C311 H291 0.950 . S
C311 C306 1.386 . S
C311 C310 1.367 . S
C312 C306 1.483 . S
C312 C313 1.367 1_565 S
C312 C314 1.403 . S
C313 H292 0.946 1_545 S
C313 C312 1.367 1_545 S
C313 C329 1.431 . S
C314 C312 1.403 . S
C314 C315 1.489 . S
C314 C328 1.411 1_565 S
C315 C314 1.489 . S
C315 C316 1.383 . S
C315 C320 1.382 . S
C316 H293 0.950 . S
C316 C315 1.383 . S
C316 C317 1.395 . S
C317 H294 0.950 . S
C317 C316 1.395 . S
C317 C318 1.288 . S
C318 C317 1.288 . S
C318 C319 1.392 . S
C319 H295 0.951 . S
C319 C318 1.392 . S
C319 C320 1.392 . S
C320 H296 0.949 1_565 S
C320 C315 1.382 . S
C320 C319 1.392 . S
C321 C322 1.376 . S
C321 C326 1.386 . S
C321 C327 1.483 . S
C322 H297 0.949 . S
C322 C321 1.376 . S
C322 C323 1.397 . S
C323 H298 0.950 . S
C323 C322 1.397 . S
C323 C324 1.391 . S
C324 C323 1.391 . S
C324 C325 1.405 . S
C325 H299 0.950 . S
C325 C324 1.405 . S
C325 C326 1.367 . S
C326 H300 0.950 . S
C326 C321 1.386 . S
C326 C325 1.367 . S
C327 C321 1.483 . S
C327 C328 1.382 . S
C327 C329 1.403 . S
C328 H301 0.950 . S
C328 C314 1.411 1_545 S
C328 C327 1.382 . S
C329 C313 1.431 . S
C329 C327 1.403 . S
C329 C330 1.489 . S
C330 C329 1.489 . S
C330 C331 1.383 . S
C330 C335 1.382 . S
C331 H302 0.950 . S
C331 C330 1.383 . S
C331 C332 1.395 . S
C332 H303 0.950 . S
C332 C331 1.395 . S
C332 C333 1.288 . S
C333 C332 1.288 . S
C333 C334 1.392 . S
C334 H304 0.951 . S
C334 C333 1.392 . S
C334 C335 1.392 . S
C335 H305 0.944 . S
C335 C330 1.382 . S
C335 C334 1.392 . S
H336 C355 0.949 1_455 S
H337 C356 0.950 . S
H338 C358 0.950 . S
H339 C359 0.950 . S
H340 C361 0.950 . S
H341 C364 0.950 . S
H342 C365 0.950 . S
H343 C367 0.951 . S
H344 C368 0.949 . S
H345 C370 0.949 . S
H346 C371 0.950 . S
H347 C373 0.950 . S
H348 C374 0.950 . S
H349 C376 0.950 . S
H350 C379 0.950 . S
H351 C380 0.950 . S
H352 C382 0.951 . S
H353 C383 0.949 1_545 S
C354 C355 1.376 . S
C354 C359 1.386 . S
C354 C360 1.483 . S
C355 H336 0.949 1_655 S
C355 C354 1.376 . S
C355 C356 1.397 . S
C356 H337 0.950 . S
C356 C355 1.397 . S
C356 C357 1.391 . S
C357 C356 1.391 . S
C357 C358 1.405 . S
C358 H338 0.950 . S
C358 C357 1.405 . S
C358 C359 1.367 . S
C359 H339 0.950 . S
C359 C354 1.386 . S
C359 C358 1.367 . S
C360 C354 1.483 . S
C360 C361 1.382 1_655 S
C360 C362 1.403 . S
C361 H340 0.950 . S
C361 C360 1.382 1_455 S
C361 C377 1.411 1_545 S
C362 C360 1.403 . S
C362 C363 1.489 . S
C362 C376 1.411 1_655 S
C363 C362 1.489 . S
C363 C364 1.383 . S
C363 C368 1.382 . S
C364 H341 0.950 . S
C364 C363 1.383 . S
C364 C365 1.395 . S
C365 H342 0.950 . S
C365 C364 1.395 . S
C365 C366 1.288 . S
C366 C365 1.288 . S
C366 C367 1.392 . S
C367 H343 0.951 . S
C367 C366 1.392 . S
C367 C368 1.392 . S
C368 H344 0.949 . S
C368 C363 1.382 . S
C368 C367 1.392 . S
C369 C370 1.376 . S
C369 C374 1.386 . S
C369 C375 1.483 . S
C370 H345 0.949 . S
C370 C369 1.376 . S
C370 C371 1.397 . S
C371 H346 0.950 . S
C371 C370 1.397 . S
C371 C372 1.391 . S
C372 C371 1.391 . S
C372 C373 1.405 . S
C373 H347 0.950 . S
C373 C372 1.405 . S
C373 C374 1.367 . S
C374 H348 0.950 . S
C374 C369 1.386 . S
C374 C373 1.367 . S
C375 C369 1.483 . S
C375 C376 1.382 1_565 S
C375 C377 1.403 . S
C376 H349 0.950 . S
C376 C362 1.411 1_455 S
C376 C375 1.382 1_545 S
C377 C361 1.411 1_565 S
C377 C375 1.403 . S
C377 C378 1.489 . S
C378 C377 1.489 . S
C378 C379 1.383 . S
C378 C383 1.382 . S
C379 H350 0.950 . S
C379 C378 1.383 . S
C379 C380 1.395 . S
C380 H351 0.950 . S
C380 C379 1.395 . S
C380 C381 1.288 . S
C381 C380 1.288 . S
C381 C382 1.392 . S
C382 H352 0.951 . S
C382 C381 1.392 . S
C382 C383 1.392 . S
C383 H353 0.949 1_565 S
C383 C378 1.382 . S
C383 C382 1.392 . S
Co384 O385 2.208 1_554 S
Co384 O386 2.085 1_554 S
Co384 O388 2.004 . S
Co384 O394 2.021 1_554 S
Co384 O396 2.137 . S
Co384 O397 2.244 . S
O385 Co384 2.208 1_556 S
O385 C392 1.252 . S
O386 Co384 2.085 1_556 S
O386 C392 1.265 . S
C387 O396 1.247 . S
C387 O397 1.272 . S
O388 Co384 2.004 . S
O388 C393 1.259 . S
Co389 O390 2.061 . S
Co389 O395 2.052 1_554 S
Co389 O397 2.135 . S
O390 Co389 2.061 . S
O390 C393 1.235 . S
C391 O394 1.238 . S
C391 O395 1.241 . S
C392 O385 1.252 . S
C392 O386 1.265 . S
C393 O388 1.259 . S
C393 O390 1.235 . S
O394 Co384 2.021 1_556 S
O394 C391 1.238 . S
O395 Co389 2.052 1_556 S
O395 C391 1.241 . S
O396 Co384 2.137 . S
O396 C387 1.247 . S
O397 Co384 2.244 . S
O397 C387 1.272 . S
O397 Co389 2.135 . S
Co398 O399 2.216 . S
Co398 O400 2.091 . S
Co398 O402 2.004 . S
Co398 O408 2.021 . S
Co398 O410 2.137 . S
Co398 O411 2.244 . S
O399 Co398 2.216 . S
O399 C406 1.247 . S
O400 Co398 2.091 . S
O400 C406 1.261 . S
C401 O410 1.247 . S
C401 O411 1.272 . S
O402 Co398 2.004 . S
O402 C407 1.259 . S
Co403 O404 2.061 . S
Co403 O409 2.052 . S
Co403 O411 2.135 . S
O404 Co403 2.061 . S
O404 C407 1.235 . S
C405 O408 1.238 . S
C405 O409 1.241 . S
C406 O399 1.247 . S
C406 O400 1.261 . S
C407 O402 1.259 . S
C407 O404 1.235 . S
O408 Co398 2.021 . S
O408 C405 1.238 . S
O409 Co403 2.052 . S
O409 C405 1.241 . S
O410 Co398 2.137 . S
O410 C401 1.247 . S
O411 Co398 2.244 . S
O411 C401 1.272 . S
O411 Co403 2.135 . S
Co412 O413 2.216 . S
Co412 O414 2.091 . S
Co412 O416 2.004 . S
Co412 O422 2.021 . S
Co412 O424 2.137 . S
Co412 O425 2.244 . S
O413 Co412 2.216 . S
O413 C420 1.247 . S
O414 Co412 2.091 . S
O414 C420 1.261 . S
C415 O424 1.247 . S
C415 O425 1.272 . S
O416 Co412 2.004 . S
O416 C421 1.259 . S
Co417 O418 2.061 . S
Co417 O423 2.052 . S
Co417 O425 2.135 . S
O418 Co417 2.061 . S
O418 C421 1.235 . S
C419 O422 1.238 . S
C419 O423 1.241 . S
C420 O413 1.247 . S
C420 O414 1.261 . S
C421 O416 1.259 . S
C421 O418 1.235 . S
O422 Co412 2.021 . S
O422 C419 1.238 . S
O423 Co417 2.052 . S
O423 C419 1.241 . S
O424 Co412 2.137 . S
O424 C415 1.247 . S
O425 Co412 2.244 . S
O425 C415 1.272 . S
O425 Co417 2.135 . S
Co426 O427 2.216 . S
Co426 O428 2.091 . S
Co426 O430 2.004 . S
Co426 O436 2.021 . S
Co426 O438 2.137 . S
Co426 O439 2.244 . S
O427 Co426 2.216 . S
O427 C434 1.247 . S
O428 Co426 2.091 . S
O428 C434 1.261 . S
C429 O438 1.247 . S
C429 O439 1.272 . S
O430 Co426 2.004 . S
O430 C435 1.259 . S
Co431 O432 2.061 . S
Co431 O437 2.052 . S
Co431 O439 2.135 . S
O432 Co431 2.061 . S
O432 C435 1.235 . S
C433 O436 1.238 . S
C433 O437 1.241 . S
C434 O427 1.247 . S
C434 O428 1.261 . S
C435 O430 1.259 . S
C435 O432 1.235 . S
O436 Co426 2.021 . S
O436 C433 1.238 . S
O437 Co431 2.052 . S
O437 C433 1.241 . S
O438 Co426 2.137 . S
O438 C429 1.247 . S
O439 Co426 2.244 . S
O439 C429 1.272 . S
O439 Co431 2.135 . S
Co440 O441 2.216 . S
Co440 O442 2.091 . S
Co440 O444 2.004 . S
Co440 O450 2.021 . S
Co440 O452 2.137 . S
Co440 O453 2.244 . S
O441 Co440 2.216 . S
O441 C448 1.247 . S
O442 Co440 2.091 . S
O442 C448 1.261 . S
C443 O452 1.247 . S
C443 O453 1.272 . S
O444 Co440 2.004 . S
O444 C449 1.259 . S
Co445 O446 2.061 . S
Co445 O451 2.052 . S
Co445 O453 2.135 . S
O446 Co445 2.061 . S
O446 C449 1.235 . S
C447 O450 1.238 . S
C447 O451 1.241 . S
C448 O441 1.247 . S
C448 O442 1.261 . S
C449 O444 1.259 . S
C449 O446 1.235 . S
O450 Co440 2.021 . S
O450 C447 1.238 . S
O451 Co445 2.052 . S
O451 C447 1.241 . S
O452 Co440 2.137 . S
O452 C443 1.247 . S
O453 Co440 2.244 . S
O453 C443 1.272 . S
O453 Co445 2.135 . S
Co454 O455 2.216 . S
Co454 O456 2.091 . S
Co454 O458 2.004 . S
Co454 O464 2.021 . S
Co454 O466 2.137 . S
Co454 O467 2.244 . S
O455 Co454 2.216 . S
O455 C462 1.247 . S
O456 Co454 2.091 . S
O456 C462 1.261 . S
C457 O466 1.247 . S
C457 O467 1.272 . S
O458 Co454 2.004 . S
O458 C463 1.259 . S
Co459 O460 2.061 . S
Co459 O465 2.052 . S
Co459 O467 2.135 . S
O460 Co459 2.061 . S
O460 C463 1.235 . S
C461 O464 1.238 . S
C461 O465 1.241 . S
C462 O455 1.247 . S
C462 O456 1.261 . S
C463 O458 1.259 . S
C463 O460 1.235 . S
O464 Co454 2.021 . S
O464 C461 1.238 . S
O465 Co459 2.052 . S
O465 C461 1.241 . S
O466 Co454 2.137 . S
O466 C457 1.247 . S
O467 Co454 2.244 . S
O467 C457 1.272 . S
O467 Co459 2.135 . S
Co468 O469 2.216 1_556 S
Co468 O470 2.091 1_556 S
Co468 O472 2.004 . S
Co468 O478 2.021 1_556 S
Co468 O480 2.137 . S
Co468 O481 2.244 . S
O469 Co468 2.216 1_554 S
O469 C476 1.247 . S
O470 Co468 2.091 1_554 S
O470 C476 1.261 . S
C471 O480 1.247 . S
C471 O481 1.272 . S
O472 Co468 2.004 . S
O472 C477 1.259 . S
Co473 O474 2.061 . S
Co473 O479 2.052 1_556 S
Co473 O481 2.135 . S
O474 Co473 2.061 . S
O474 C477 1.235 . S
C475 O478 1.238 . S
C475 O479 1.241 . S
C476 O469 1.247 . S
C476 O470 1.261 . S
C477 O472 1.259 . S
C477 O474 1.235 . S
O478 Co468 2.021 1_554 S
O478 C475 1.238 . S
O479 Co473 2.052 1_554 S
O479 C475 1.241 . S
O480 Co468 2.137 . S
O480 C471 1.247 . S
O481 Co468 2.244 . S
O481 C471 1.272 . S
O481 Co473 2.135 . S
Co482 O483 2.216 . S
Co482 O484 2.091 . S
Co482 O486 2.004 . S
Co482 O492 2.021 . S
Co482 O494 2.137 . S
Co482 O495 2.244 . S
O483 Co482 2.216 . S
O483 C490 1.247 . S
O484 Co482 2.091 . S
O484 C490 1.261 . S
C485 O494 1.247 . S
C485 O495 1.272 . S
O486 Co482 2.004 . S
O486 C491 1.259 . S
Co487 O488 2.061 . S
Co487 O493 2.052 . S
Co487 O495 2.135 . S
O488 Co487 2.061 . S
O488 C491 1.235 . S
C489 O492 1.238 . S
C489 O493 1.241 . S
C490 O483 1.247 . S
C490 O484 1.261 . S
C491 O486 1.259 . S
C491 O488 1.235 . S
O492 Co482 2.021 . S
O492 C489 1.238 . S
O493 Co487 2.052 . S
O493 C489 1.241 . S
O494 Co482 2.137 . S
O494 C485 1.247 . S
O495 Co482 2.244 . S
O495 C485 1.272 . S
O495 Co487 2.135 . S
H496 C514 0.951 . S
H497 C516 0.951 . S
H498 C518 0.950 . S
H499 C519 0.950 . S
H500 C521 0.950 . S
H501 C524 0.950 . S
H502 C525 0.950 . S
H503 C527 0.950 . S
H504 C528 0.950 . S
H505 C529 0.951 . S
H506 C531 0.951 . S
H507 C533 0.950 . S
H508 C534 0.950 . S
H509 C536 0.950 . S
H510 C539 0.950 . S
H511 C540 0.950 . S
H512 C542 0.950 . S
H513 C543 0.950 . S
C514 H496 0.951 . S
C514 C515 1.366 . S
C514 C516 1.388 . S
C515 C514 1.366 . S
C515 C519 1.385 . S
C516 H497 0.951 . S
C516 C514 1.388 . S
C516 C517 1.366 . S
C517 C516 1.366 . S
C517 C518 1.414 . S
C517 C520 1.499 . S
C518 H498 0.950 . S
C518 C517 1.414 . S
C518 C519 1.374 . S
C519 H499 0.950 . S
C519 C515 1.385 . S
C519 C518 1.374 . S
C520 C517 1.499 . S
C520 C521 1.373 . S
C520 C522 1.389 . S
C521 H500 0.950 . S
C521 C520 1.373 . S
C521 C537 1.377 . S
C522 C520 1.389 . S
C522 C523 1.524 . S
C522 C536 1.377 . S
C523 C522 1.524 . S
C523 C524 1.397 . S
C523 C528 1.363 . S
C524 H501 0.950 . S
C524 C523 1.397 . S
C524 C525 1.334 . S
C525 H502 0.950 . S
C525 C524 1.334 . S
C525 C526 1.287 . S
C526 C525 1.287 . S
C526 C527 1.524 . S
C526 H545 0.913 . S
C527 H503 0.950 . S
C527 C526 1.524 . S
C527 C528 1.415 . S
C528 H504 0.950 . S
C528 C523 1.363 . S
C528 C527 1.415 . S
C529 H505 0.951 . S
C529 C530 1.366 . S
C529 C531 1.388 . S
C530 C529 1.366 . S
C530 C534 1.385 . S
C531 H506 0.951 . S
C531 C529 1.388 . S
C531 C532 1.366 . S
C532 C531 1.366 . S
C532 C533 1.414 . S
C532 C535 1.499 . S
C533 H507 0.950 . S
C533 C532 1.414 . S
C533 C534 1.374 . S
C534 H508 0.950 . S
C534 C530 1.385 . S
C534 C533 1.374 . S
C535 C532 1.499 . S
C535 C536 1.373 . S
C535 C537 1.389 . S
C536 H509 0.950 . S
C536 C522 1.377 . S
C536 C535 1.373 . S
C537 C521 1.377 . S
C537 C535 1.389 . S
C537 C538 1.524 . S
C538 C537 1.524 . S
C538 C539 1.397 . S
C538 C543 1.363 . S
C539 H510 0.950 . S
C539 C538 1.397 . S
C539 C540 1.334 . S
C540 H511 0.950 . S
C540 C539 1.334 . S
C540 C541 1.287 . S
C541 C540 1.287 . S
C541 C542 1.524 . S
C541 H544 0.999 . S
C542 H512 0.950 . S
C542 C541 1.524 . S
C542 C543 1.415 . S
C543 H513 0.950 . S
C543 C538 1.363 . S
C543 C542 1.415 . S
H544 C541 0.999 . S
H545 C526 0.913 . S
H546 C564 0.951 . S
H547 C566 0.951 . S
H548 C568 0.950 . S
H549 C569 0.950 . S
H550 C571 0.950 . S
H551 C574 0.950 . S
H552 C575 0.950 . S
H553 C577 0.950 . S
H554 C578 0.950 . S
H555 C579 0.951 . S
H556 C581 0.951 . S
H557 C583 0.950 . S
H558 C584 0.950 . S
H559 C586 0.950 . S
H560 C589 0.950 . S
H561 C590 0.950 . S
H562 C592 0.950 . S
H563 C593 0.950 . S
C564 H546 0.951 . S
C564 C565 1.366 . S
C564 C566 1.388 . S
C565 C564 1.366 . S
C565 C569 1.385 . S
C566 H547 0.951 . S
C566 C564 1.388 . S
C566 C567 1.366 . S
C567 C566 1.366 . S
C567 C568 1.414 . S
C567 C570 1.499 . S
C568 H548 0.950 . S
C568 C567 1.414 . S
C568 C569 1.374 . S
C569 H549 0.950 . S
C569 C565 1.385 . S
C569 C568 1.374 . S
C570 C567 1.499 . S
C570 C571 1.373 . S
C570 C572 1.389 . S
C571 H550 0.950 . S
C571 C570 1.373 . S
C571 C587 1.377 . S
C572 C570 1.389 . S
C572 C573 1.524 . S
C572 C586 1.377 . S
C573 C572 1.524 . S
C573 C574 1.397 . S
C573 C578 1.363 . S
C574 H551 0.950 . S
C574 C573 1.397 . S
C574 C575 1.334 . S
C575 H552 0.950 . S
C575 C574 1.334 . S
C575 C576 1.287 . S
C576 C575 1.287 . S
C576 C577 1.524 . S
C576 H595 0.913 . S
C577 H553 0.950 . S
C577 C576 1.524 . S
C577 C578 1.415 . S
C578 H554 0.950 . S
C578 C573 1.363 . S
C578 C577 1.415 . S
C579 H555 0.951 . S
C579 C580 1.366 . S
C579 C581 1.388 . S
C580 C579 1.366 . S
C580 C584 1.385 . S
C581 H556 0.951 . S
C581 C579 1.388 . S
C581 C582 1.366 . S
C582 C581 1.366 . S
C582 C583 1.414 . S
C582 C585 1.499 . S
C583 H557 0.950 . S
C583 C582 1.414 . S
C583 C584 1.374 . S
C584 H558 0.950 . S
C584 C580 1.385 . S
C584 C583 1.374 . S
C585 C582 1.499 . S
C585 C586 1.373 . S
C585 C587 1.389 . S
C586 H559 0.950 . S
C586 C572 1.377 . S
C586 C585 1.373 . S
C587 C571 1.377 . S
C587 C585 1.389 . S
C587 C588 1.524 . S
C588 C587 1.524 . S
C588 C589 1.397 . S
C588 C593 1.363 . S
C589 H560 0.950 . S
C589 C588 1.397 . S
C589 C590 1.334 . S
C590 H561 0.950 . S
C590 C589 1.334 . S
C590 C591 1.287 . S
C591 C590 1.287 . S
C591 C592 1.524 . S
C591 H594 0.999 . S
C592 H562 0.950 . S
C592 C591 1.524 . S
C592 C593 1.415 . S
C593 H563 0.950 . S
C593 C588 1.363 . S
C593 C592 1.415 . S
H594 C591 0.999 . S
H595 C576 0.913 . S
H596 C614 0.951 . S
H597 C616 0.951 . S
H598 C618 0.950 . S
H599 C619 0.950 . S
H600 C621 0.950 . S
H601 C624 0.950 . S
H602 C625 0.950 . S
H603 C627 0.950 . S
H604 C628 0.950 . S
H605 C629 0.951 . S
H606 C631 0.951 . S
H607 C633 0.950 . S
H608 C634 0.950 . S
H609 C636 0.950 . S
H610 C639 0.950 . S
H611 C640 0.950 . S
H612 C642 0.950 . S
H613 C643 0.950 . S
C614 H596 0.951 . S
C614 C615 1.366 . S
C614 C616 1.388 . S
C615 C614 1.366 . S
C615 C619 1.385 . S
C616 H597 0.951 . S
C616 C614 1.388 . S
C616 C617 1.366 . S
C617 C616 1.366 . S
C617 C618 1.414 . S
C617 C620 1.499 . S
C618 H598 0.950 . S
C618 C617 1.414 . S
C618 C619 1.374 . S
C619 H599 0.950 . S
C619 C615 1.385 . S
C619 C618 1.374 . S
C620 C617 1.499 . S
C620 C621 1.373 . S
C620 C622 1.389 . S
C621 H600 0.950 . S
C621 C620 1.373 . S
C621 C637 1.377 . S
C622 C620 1.389 . S
C622 C623 1.524 . S
C622 C636 1.377 . S
C623 C622 1.524 . S
C623 C624 1.397 . S
C623 C628 1.363 . S
C624 H601 0.950 . S
C624 C623 1.397 . S
C624 C625 1.334 . S
C625 H602 0.950 . S
C625 C624 1.334 . S
C625 C626 1.287 . S
C626 C625 1.287 . S
C626 C627 1.524 . S
C626 H645 0.913 . S
C627 H603 0.950 . S
C627 C626 1.524 . S
C627 C628 1.415 . S
C628 H604 0.950 . S
C628 C623 1.363 . S
C628 C627 1.415 . S
C629 H605 0.951 . S
C629 C630 1.366 . S
C629 C631 1.388 . S
C630 C629 1.366 . S
C630 C634 1.385 . S
C631 H606 0.951 . S
C631 C629 1.388 . S
C631 C632 1.366 . S
C632 C631 1.366 . S
C632 C633 1.414 . S
C632 C635 1.499 . S
C633 H607 0.950 . S
C633 C632 1.414 . S
C633 C634 1.374 . S
C634 H608 0.950 . S
C634 C630 1.385 . S
C634 C633 1.374 . S
C635 C632 1.499 . S
C635 C636 1.373 . S
C635 C637 1.389 . S
C636 H609 0.950 . S
C636 C622 1.377 . S
C636 C635 1.373 . S
C637 C621 1.377 . S
C637 C635 1.389 . S
C637 C638 1.524 . S
C638 C637 1.524 . S
C638 C639 1.397 . S
C638 C643 1.363 . S
C639 H610 0.950 . S
C639 C638 1.397 . S
C639 C640 1.334 . S
C640 H611 0.950 . S
C640 C639 1.334 . S
C640 C641 1.287 . S
C641 C640 1.287 . S
C641 C642 1.524 . S
C641 H644 0.999 . S
C642 H612 0.950 . S
C642 C641 1.524 . S
C642 C643 1.415 . S
C643 H613 0.950 . S
C643 C638 1.363 . S
C643 C642 1.415 . S
H644 C641 0.999 . S
H645 C626 0.913 . S
H646 C664 0.951 . S
H647 C666 0.951 . S
H648 C668 0.950 . S
H649 C669 0.950 . S
H650 C671 0.950 . S
H651 C674 0.951 . S
H652 C675 0.950 . S
H653 C677 0.950 . S
H654 C678 0.950 . S
H655 C679 0.951 . S
H656 C681 0.951 . S
H657 C683 0.950 . S
H658 C684 0.950 . S
H659 C686 0.950 . S
H660 C689 0.950 . S
H661 C690 0.950 . S
H662 C692 0.950 . S
H663 C693 0.950 . S
C664 H646 0.951 . S
C664 C665 1.366 . S
C664 C666 1.388 . S
C665 C664 1.366 . S
C665 C669 1.385 . S
C666 H647 0.951 . S
C666 C664 1.388 . S
C666 C667 1.366 . S
C667 C666 1.366 . S
C667 C668 1.414 . S
C667 C670 1.499 . S
C668 H648 0.950 . S
C668 C667 1.414 . S
C668 C669 1.374 . S
C669 H649 0.950 . S
C669 C665 1.385 . S
C669 C668 1.374 . S
C670 C667 1.499 . S
C670 C671 1.373 . S
C670 C672 1.389 . S
C671 H650 0.950 . S
C671 C670 1.373 . S
C671 C687 1.377 . S
C672 C670 1.389 . S
C672 C673 1.551 . S
C672 C686 1.377 . S
C673 C672 1.551 . S
C673 C674 1.385 1_554 S
C673 C678 1.348 1_554 S
C674 H651 0.951 . S
C674 C673 1.385 1_556 S
C674 C675 1.334 . S
C675 H652 0.950 . S
C675 C674 1.334 . S
C675 C676 1.287 . S
C676 C675 1.287 . S
C676 C677 1.524 . S
C676 H695 0.913 . S
C677 H653 0.950 . S
C677 C676 1.524 . S
C677 C678 1.415 . S
C678 H654 0.950 . S
C678 C673 1.348 1_556 S
C678 C677 1.415 . S
C679 H655 0.951 . S
C679 C680 1.366 . S
C679 C681 1.388 . S
C680 C679 1.366 . S
C680 C684 1.385 . S
C681 H656 0.951 . S
C681 C679 1.388 . S
C681 C682 1.366 . S
C682 C681 1.366 . S
C682 C683 1.414 . S
C682 C685 1.499 . S
C683 H657 0.950 . S
C683 C682 1.414 . S
C683 C684 1.374 . S
C684 H658 0.950 . S
C684 C680 1.385 . S
C684 C683 1.374 . S
C685 C682 1.499 . S
C685 C686 1.373 . S
C685 C687 1.389 . S
C686 H659 0.950 . S
C686 C672 1.377 . S
C686 C685 1.373 . S
C687 C671 1.377 . S
C687 C685 1.389 . S
C687 C688 1.524 . S
C688 C687 1.524 . S
C688 C689 1.397 . S
C688 C693 1.363 . S
C689 H660 0.950 . S
C689 C688 1.397 . S
C689 C690 1.334 . S
C690 H661 0.950 . S
C690 C689 1.334 . S
C690 C691 1.287 . S
C691 C690 1.287 . S
C691 C692 1.524 . S
C691 H694 0.999 . S
C692 H662 0.950 . S
C692 C691 1.524 . S
C692 C693 1.415 . S
C693 H663 0.950 . S
C693 C688 1.363 . S
C693 C692 1.415 . S
H694 C691 0.999 . S
H695 C676 0.913 . S
H696 C714 0.951 . S
H697 C716 0.951 . S
H698 C718 0.950 . S
H699 C719 0.950 . S
H700 C721 0.950 . S
H701 C724 0.950 . S
H702 C725 0.950 . S
H703 C727 0.950 . S
H704 C728 0.950 . S
H705 C729 0.951 . S
H706 C731 0.951 . S
H707 C733 0.963 . S
H708 C734 0.950 . S
H709 C736 0.950 . S
H710 C739 0.950 1_554 S
H711 C740 0.963 . S
H712 C742 0.950 . S
H713 C743 0.950 . S
C714 H696 0.951 . S
C714 C715 1.366 . S
C714 C716 1.388 . S
C715 C714 1.366 . S
C715 C719 1.385 . S
C716 H697 0.951 . S
C716 C714 1.388 . S
C716 C717 1.366 . S
C717 C716 1.366 . S
C717 C718 1.414 . S
C717 C720 1.499 . S
C718 H698 0.950 . S
C718 C717 1.414 . S
C718 C719 1.374 . S
C719 H699 0.950 . S
C719 C715 1.385 . S
C719 C718 1.374 . S
C720 C717 1.499 . S
C720 C721 1.373 . S
C720 C722 1.389 . S
C721 H700 0.950 . S
C721 C720 1.373 . S
C721 C737 1.377 . S
C722 C720 1.389 . S
C722 C723 1.524 . S
C722 C736 1.377 . S
C723 C722 1.524 . S
C723 C724 1.397 . S
C723 C728 1.363 . S
C724 H701 0.950 . S
C724 C723 1.397 . S
C724 C725 1.334 . S
C725 H702 0.950 . S
C725 C724 1.334 . S
C725 C726 1.287 . S
C726 C725 1.287 . S
C726 C727 1.524 . S
C726 H745 0.913 . S
C727 H703 0.950 . S
C727 C726 1.524 . S
C727 C728 1.415 . S
C728 H704 0.950 . S
C728 C723 1.363 . S
C728 C727 1.415 . S
C729 H705 0.951 . S
C729 C730 1.366 . S
C729 C731 1.388 . S
C730 C729 1.366 . S
C730 C734 1.385 1_556 S
C731 H706 0.951 . S
C731 C729 1.388 . S
C731 C732 1.366 . S
C732 C731 1.366 . S
C732 C733 1.397 1_556 S
C732 C735 1.499 . S
C733 H707 0.963 . S
C733 C732 1.397 1_554 S
C733 C734 1.378 . S
C734 H708 0.950 . S
C734 C730 1.385 1_554 S
C734 C733 1.378 . S
C735 C732 1.499 . S
C735 C736 1.373 . S
C735 C737 1.389 . S
C736 H709 0.950 . S
C736 C722 1.377 . S
C736 C735 1.373 . S
C737 C721 1.377 . S
C737 C735 1.389 . S
C737 C738 1.524 . S
C738 C737 1.524 . S
C738 C739 1.397 . S
C738 C743 1.363 . S
C739 H710 0.950 1_556 S
C739 C738 1.397 . S
C739 C740 1.331 1_556 S
C740 H711 0.963 . S
C740 C739 1.331 1_554 S
C740 C741 1.276 1_554 S
C741 C740 1.276 1_556 S
C741 C742 1.524 . S
C741 H744 0.999 . S
C742 H712 0.950 . S
C742 C741 1.524 . S
C742 C743 1.415 . S
C743 H713 0.950 . S
C743 C738 1.363 . S
C743 C742 1.415 . S
H744 C741 0.999 . S
H745 C726 0.913 . S
H746 C764 0.951 . S
H747 C766 0.951 . S
H748 C768 0.950 . S
H749 C769 0.950 . S
H750 C771 0.950 . S
H751 C774 0.950 . S
H752 C775 0.950 . S
H753 C777 0.950 . S
H754 C778 0.950 . S
H755 C779 0.951 . S
H756 C781 0.951 . S
H757 C783 0.950 . S
H758 C784 0.950 . S
H759 C786 0.950 . S
H760 C789 0.950 . S
H761 C790 0.950 . S
H762 C792 0.950 . S
H763 C793 0.950 . S
C764 H746 0.951 . S
C764 C765 1.366 . S
C764 C766 1.388 . S
C765 C764 1.366 . S
C765 C769 1.385 . S
C766 H747 0.951 . S
C766 C764 1.388 . S
C766 C767 1.366 . S
C767 C766 1.366 . S
C767 C768 1.414 . S
C767 C770 1.499 . S
C768 H748 0.950 . S
C768 C767 1.414 . S
C768 C769 1.374 . S
C769 H749 0.950 . S
C769 C765 1.385 . S
C769 C768 1.374 . S
C770 C767 1.499 . S
C770 C771 1.373 . S
C770 C772 1.389 . S
C771 H750 0.950 . S
C771 C770 1.373 . S
C771 C787 1.377 . S
C772 C770 1.389 . S
C772 C773 1.524 . S
C772 C786 1.377 . S
C773 C772 1.524 . S
C773 C774 1.397 . S
C773 C778 1.363 . S
C774 H751 0.950 . S
C774 C773 1.397 . S
C774 C775 1.334 . S
C775 H752 0.950 . S
C775 C774 1.334 . S
C775 C776 1.287 . S
C776 C775 1.287 . S
C776 C777 1.524 . S
C776 H795 0.913 . S
C777 H753 0.950 . S
C777 C776 1.524 . S
C777 C778 1.415 . S
C778 H754 0.950 . S
C778 C773 1.363 . S
C778 C777 1.415 . S
C779 H755 0.951 . S
C779 C780 1.366 . S
C779 C781 1.388 . S
C780 C779 1.366 . S
C780 C784 1.385 . S
C781 H756 0.951 . S
C781 C779 1.388 . S
C781 C782 1.366 . S
C782 C781 1.366 . S
C782 C783 1.414 . S
C782 C785 1.499 . S
C783 H757 0.950 . S
C783 C782 1.414 . S
C783 C784 1.374 . S
C784 H758 0.950 . S
C784 C780 1.385 . S
C784 C783 1.374 . S
C785 C782 1.499 . S
C785 C786 1.373 . S
C785 C787 1.389 . S
C786 H759 0.950 . S
C786 C772 1.377 . S
C786 C785 1.373 . S
C787 C771 1.377 . S
C787 C785 1.389 . S
C787 C788 1.524 . S
C788 C787 1.524 . S
C788 C789 1.397 . S
C788 C793 1.363 . S
C789 H760 0.950 . S
C789 C788 1.397 . S
C789 C790 1.334 . S
C790 H761 0.950 . S
C790 C789 1.334 . S
C790 C791 1.287 . S
C791 C790 1.287 . S
C791 C792 1.524 . S
C791 H794 0.999 . S
C792 H762 0.950 . S
C792 C791 1.524 . S
C792 C793 1.415 . S
C793 H763 0.950 . S
C793 C788 1.363 . S
C793 C792 1.415 . S
H794 C791 0.999 . S
H795 C776 0.913 . S
H796 C814 0.951 . S
H797 C816 0.951 . S
H798 C818 0.950 . S
H799 C819 0.950 . S
H800 C821 0.950 . S
H801 C824 0.950 . S
H802 C825 0.950 . S
H803 C827 0.950 . S
H804 C828 0.950 . S
H805 C829 0.951 . S
H806 C831 0.951 . S
H807 C833 0.950 . S
H808 C834 0.950 . S
H809 C836 0.950 . S
H810 C839 0.950 . S
H811 C840 0.950 . S
H812 C842 0.950 . S
H813 C843 0.950 . S
C814 H796 0.951 . S
C814 C815 1.366 . S
C814 C816 1.388 . S
C815 C814 1.366 . S
C815 C819 1.385 . S
C816 H797 0.951 . S
C816 C814 1.388 . S
C816 C817 1.366 . S
C817 C816 1.366 . S
C817 C818 1.414 . S
C817 C820 1.499 . S
C818 H798 0.950 . S
C818 C817 1.414 . S
C818 C819 1.374 . S
C819 H799 0.950 . S
C819 C815 1.385 . S
C819 C818 1.374 . S
C820 C817 1.499 . S
C820 C821 1.373 . S
C820 C822 1.389 . S
C821 H800 0.950 . S
C821 C820 1.373 . S
C821 C837 1.377 . S
C822 C820 1.389 . S
C822 C823 1.524 . S
C822 C836 1.377 . S
C823 C822 1.524 . S
C823 C824 1.397 . S
C823 C828 1.363 . S
C824 H801 0.950 . S
C824 C823 1.397 . S
C824 C825 1.334 . S
C825 H802 0.950 . S
C825 C824 1.334 . S
C825 C826 1.287 . S
C826 C825 1.287 . S
C826 C827 1.524 . S
C826 H845 0.913 . S
C827 H803 0.950 . S
C827 C826 1.524 . S
C827 C828 1.415 . S
C828 H804 0.950 . S
C828 C823 1.363 . S
C828 C827 1.415 . S
C829 H805 0.951 . S
C829 C830 1.366 . S
C829 C831 1.388 . S
C830 C829 1.366 . S
C830 C834 1.385 . S
C831 H806 0.951 . S
C831 C829 1.388 . S
C831 C832 1.366 . S
C832 C831 1.366 . S
C832 C833 1.414 . S
C832 C835 1.499 . S
C833 H807 0.950 . S
C833 C832 1.414 . S
C833 C834 1.374 . S
C834 H808 0.950 . S
C834 C830 1.385 . S
C834 C833 1.374 . S
C835 C832 1.499 . S
C835 C836 1.373 . S
C835 C837 1.389 . S
C836 H809 0.950 . S
C836 C822 1.377 . S
C836 C835 1.373 . S
C837 C821 1.377 . S
C837 C835 1.389 . S
C837 C838 1.524 . S
C838 C837 1.524 . S
C838 C839 1.397 . S
C838 C843 1.363 . S
C839 H810 0.950 . S
C839 C838 1.397 . S
C839 C840 1.334 . S
C840 H811 0.950 . S
C840 C839 1.334 . S
C840 C841 1.287 . S
C841 C840 1.287 . S
C841 C842 1.524 . S
C841 H844 0.999 . S
C842 H812 0.950 . S
C842 C841 1.524 . S
C842 C843 1.415 . S
C843 H813 0.950 . S
C843 C838 1.363 . S
C843 C842 1.415 . S
H844 C841 0.999 . S
H845 C826 0.913 . S
H846 C864 0.951 . S
H847 C866 0.951 . S
H848 C868 0.950 . S
H849 C869 0.950 . S
H850 C871 0.950 . S
H851 C874 0.950 . S
H852 C875 0.950 . S
H853 C877 0.950 . S
H854 C878 0.950 . S
H855 C879 0.951 . S
H856 C881 0.951 . S
H857 C883 0.950 . S
H858 C884 0.950 . S
H859 C886 0.950 . S
H860 C889 0.950 . S
H861 C890 0.950 . S
H862 C892 0.950 . S
H863 C893 0.950 . S
C864 H846 0.951 . S
C864 C865 1.366 . S
C864 C866 1.388 . S
C865 C864 1.366 . S
C865 C869 1.385 . S
C866 H847 0.951 . S
C866 C864 1.388 . S
C866 C867 1.366 . S
C867 C866 1.366 . S
C867 C868 1.414 . S
C867 C870 1.499 . S
C868 H848 0.950 . S
C868 C867 1.414 . S
C868 C869 1.374 . S
C869 H849 0.950 . S
C869 C865 1.385 . S
C869 C868 1.374 . S
C870 C867 1.499 . S
C870 C871 1.373 . S
C870 C872 1.389 . S
C871 H850 0.950 . S
C871 C870 1.373 . S
C871 C887 1.377 . S
C872 C870 1.389 . S
C872 C873 1.524 . S
C872 C886 1.377 . S
C873 C872 1.524 . S
C873 C874 1.397 . S
C873 C878 1.363 . S
C874 H851 0.950 . S
C874 C873 1.397 . S
C874 C875 1.334 . S
C875 H852 0.950 . S
C875 C874 1.334 . S
C875 C876 1.287 . S
C876 C875 1.287 . S
C876 C877 1.524 . S
C876 H895 0.913 . S
C877 H853 0.950 . S
C877 C876 1.524 . S
C877 C878 1.415 . S
C878 H854 0.950 . S
C878 C873 1.363 . S
C878 C877 1.415 . S
C879 H855 0.951 . S
C879 C880 1.366 . S
C879 C881 1.388 . S
C880 C879 1.366 . S
C880 C884 1.385 . S
C881 H856 0.951 . S
C881 C879 1.388 . S
C881 C882 1.366 . S
C882 C881 1.366 . S
C882 C883 1.414 . S
C882 C885 1.499 . S
C883 H857 0.950 . S
C883 C882 1.414 . S
C883 C884 1.374 . S
C884 H858 0.950 . S
C884 C880 1.385 . S
C884 C883 1.374 . S
C885 C882 1.499 . S
C885 C886 1.373 . S
C885 C887 1.389 . S
C886 H859 0.950 . S
C886 C872 1.377 . S
C886 C885 1.373 . S
C887 C871 1.377 . S
C887 C885 1.389 . S
C887 C888 1.524 . S
C888 C887 1.524 . S
C888 C889 1.397 . S
C888 C893 1.363 . S
C889 H860 0.950 . S
C889 C888 1.397 . S
C889 C890 1.334 . S
C890 H861 0.950 . S
C890 C889 1.334 . S
C890 C891 1.287 . S
C891 C890 1.287 . S
C891 C892 1.524 . S
C891 H894 0.999 . S
C892 H862 0.950 . S
C892 C891 1.524 . S
C892 C893 1.415 . S
C893 H863 0.950 . S
C893 C888 1.363 . S
C893 C892 1.415 . S
H894 C891 0.999 . S
H895 C876 0.913 . S
H896 C914 0.951 . S
H897 C916 0.951 . S
H898 C918 0.950 . S
H899 C919 0.950 . S
H900 C921 0.950 . S
H901 C924 0.950 . S
H902 C925 0.950 . S
H903 C927 0.950 . S
H904 C928 0.950 . S
H905 C929 0.951 . S
H906 C931 0.951 . S
H907 C933 0.950 . S
H908 C934 0.950 . S
H909 C936 0.950 . S
H910 C939 0.950 . S
H911 C940 0.950 . S
H912 C942 0.950 . S
H913 C943 0.950 . S
C914 H896 0.951 . S
C914 C915 1.366 . S
C914 C916 1.388 . S
C915 C914 1.366 . S
C915 C919 1.385 . S
C916 H897 0.951 . S
C916 C914 1.388 . S
C916 C917 1.366 . S
C917 C916 1.366 . S
C917 C918 1.414 . S
C917 C920 1.499 . S
C918 H898 0.950 . S
C918 C917 1.414 . S
C918 C919 1.374 . S
C919 H899 0.950 . S
C919 C915 1.385 . S
C919 C918 1.374 . S
C920 C917 1.499 . S
C920 C921 1.373 . S
C920 C922 1.389 . S
C921 H900 0.950 . S
C921 C920 1.373 . S
C921 C937 1.377 . S
C922 C920 1.389 . S
C922 C923 1.524 . S
C922 C936 1.377 . S
C923 C922 1.524 . S
C923 C924 1.397 . S
C923 C928 1.363 . S
C924 H901 0.950 . S
C924 C923 1.397 . S
C924 C925 1.334 . S
C925 H902 0.950 . S
C925 C924 1.334 . S
C925 C926 1.287 . S
C926 C925 1.287 . S
C926 C927 1.524 . S
C926 H945 0.913 . S
C927 H903 0.950 . S
C927 C926 1.524 . S
C927 C928 1.415 . S
C928 H904 0.950 . S
C928 C923 1.363 . S
C928 C927 1.415 . S
C929 H905 0.951 . S
C929 C930 1.366 . S
C929 C931 1.388 . S
C930 C929 1.366 . S
C930 C934 1.385 . S
C931 H906 0.951 . S
C931 C929 1.388 . S
C931 C932 1.366 . S
C932 C931 1.366 . S
C932 C933 1.414 . S
C932 C935 1.499 . S
C933 H907 0.950 . S
C933 C932 1.414 . S
C933 C934 1.374 . S
C934 H908 0.950 . S
C934 C930 1.385 . S
C934 C933 1.374 . S
C935 C932 1.499 . S
C935 C936 1.373 . S
C935 C937 1.389 . S
C936 H909 0.950 . S
C936 C922 1.377 . S
C936 C935 1.373 . S
C937 C921 1.377 . S
C937 C935 1.389 . S
C937 C938 1.524 . S
C938 C937 1.524 . S
C938 C939 1.397 . S
C938 C943 1.363 . S
C939 H910 0.950 . S
C939 C938 1.397 . S
C939 C940 1.334 . S
C940 H911 0.950 . S
C940 C939 1.334 . S
C940 C941 1.287 . S
C941 C940 1.287 . S
C941 C942 1.524 . S
C941 H944 0.999 . S
C942 H912 0.950 . S
C942 C941 1.524 . S
C942 C943 1.415 . S
C943 H913 0.950 . S
C943 C938 1.363 . S
C943 C942 1.415 . S
H944 C941 0.999 . S
H945 C926 0.913 . S
H946 C964 0.951 . S
H947 C966 0.951 . S
H948 C968 0.950 . S
H949 C969 0.950 . S
H950 C971 0.950 . S
H951 C974 0.950 . S
H952 C975 0.950 . S
H953 C977 0.950 . S
H954 C978 0.950 . S
H955 C979 0.951 . S
H956 C981 0.951 . S
H957 C983 0.928 1_556 S
H958 C984 0.950 . S
H959 C986 0.950 . S
H960 C989 0.950 . S
H961 C990 0.950 . S
H962 C992 0.950 . S
H963 C993 0.950 . S
C964 H946 0.951 . S
C964 C965 1.366 . S
C964 C966 1.388 . S
C965 C964 1.366 . S
C965 C969 1.385 . S
C966 H947 0.951 . S
C966 C964 1.388 . S
C966 C967 1.366 . S
C967 C966 1.366 . S
C967 C968 1.414 . S
C967 C970 1.499 . S
C968 H948 0.950 . S
C968 C967 1.414 . S
C968 C969 1.374 . S
C969 H949 0.950 . S
C969 C965 1.385 . S
C969 C968 1.374 . S
C970 C967 1.499 . S
C970 C971 1.373 . S
C970 C972 1.389 . S
C971 H950 0.950 . S
C971 C970 1.373 . S
C971 C987 1.377 . S
C972 C970 1.389 . S
C972 C973 1.524 . S
C972 C986 1.377 . S
C973 C972 1.524 . S
C973 C974 1.397 . S
C973 C978 1.363 1_554 S
C974 H951 0.950 . S
C974 C973 1.397 . S
C974 C975 1.334 . S
C975 H952 0.950 . S
C975 C974 1.334 . S
C975 C976 1.287 1_554 S
C976 C975 1.287 1_556 S
C976 C977 1.524 . S
C976 H995 0.913 . S
C977 H953 0.950 . S
C977 C976 1.524 . S
C977 C978 1.415 . S
C978 H954 0.950 . S
C978 C973 1.363 1_556 S
C978 C977 1.415 . S
C979 H955 0.951 . S
C979 C980 1.366 . S
C979 C981 1.388 . S
C980 C979 1.366 . S
C980 C984 1.385 1_554 S
C981 H956 0.951 . S
C981 C979 1.388 . S
C981 C982 1.366 . S
C982 C981 1.366 . S
C982 C983 1.443 . S
C982 C985 1.499 . S
C983 H957 0.928 1_554 S
C983 C982 1.443 . S
C983 C984 1.367 1_554 S
C984 H958 0.950 . S
C984 C980 1.385 1_556 S
C984 C983 1.367 1_556 S
C985 C982 1.499 . S
C985 C986 1.373 . S
C985 C987 1.389 . S
C986 H959 0.950 . S
C986 C972 1.377 . S
C986 C985 1.373 . S
C987 C971 1.377 . S
C987 C985 1.389 . S
C987 C988 1.524 . S
C988 C987 1.524 . S
C988 C989 1.397 . S
C988 C993 1.363 . S
C989 H960 0.950 . S
C989 C988 1.397 . S
C989 C990 1.334 . S
C990 H961 0.950 . S
C990 C989 1.334 . S
C990 C991 1.287 . S
C991 C990 1.287 . S
C991 C992 1.524 . S
C991 H994 0.999 . S
C992 H962 0.950 . S
C992 C991 1.524 . S
C992 C993 1.415 . S
C993 H963 0.950 . S
C993 C988 1.363 . S
C993 C992 1.415 . S
H994 C991 0.999 . S
H995 C976 0.913 . S
H996 C1014 0.951 . S
H997 C1016 0.951 . S
H998 C1018 0.950 . S
H999 C1019 0.950 . S
H1000 C1021 0.950 . S
H1001 C1024 0.950 . S
H1002 C1025 0.950 . S
H1003 C1027 0.950 . S
H1004 C1028 0.950 . S
H1005 C1029 0.951 . S
H1006 C1031 0.951 . S
H1007 C1033 0.950 . S
H1008 C1034 0.950 . S
H1009 C1036 0.950 . S
H1010 C1039 0.950 . S
H1011 C1040 0.950 . S
H1012 C1042 0.950 . S
H1013 C1043 0.950 . S
C1014 H996 0.951 . S
C1014 C1015 1.366 . S
C1014 C1016 1.388 . S
C1015 C1014 1.366 . S
C1015 C1019 1.385 . S
C1016 H997 0.951 . S
C1016 C1014 1.388 . S
C1016 C1017 1.366 . S
C1017 C1016 1.366 . S
C1017 C1018 1.414 . S
C1017 C1020 1.499 . S
C1018 H998 0.950 . S
C1018 C1017 1.414 . S
C1018 C1019 1.374 . S
C1019 H999 0.950 . S
C1019 C1015 1.385 . S
C1019 C1018 1.374 . S
C1020 C1017 1.499 . S
C1020 C1021 1.373 . S
C1020 C1022 1.389 . S
C1021 H1000 0.950 . S
C1021 C1020 1.373 . S
C1021 C1037 1.377 . S
C1022 C1020 1.389 . S
C1022 C1023 1.524 . S
C1022 C1036 1.377 . S
C1023 C1022 1.524 . S
C1023 C1024 1.397 . S
C1023 C1028 1.363 . S
C1024 H1001 0.950 . S
C1024 C1023 1.397 . S
C1024 C1025 1.334 . S
C1025 H1002 0.950 . S
C1025 C1024 1.334 . S
C1025 C1026 1.287 . S
C1026 C1025 1.287 . S
C1026 C1027 1.524 . S
C1026 H1045 0.913 . S
C1027 H1003 0.950 . S
C1027 C1026 1.524 . S
C1027 C1028 1.415 . S
C1028 H1004 0.950 . S
C1028 C1023 1.363 . S
C1028 C1027 1.415 . S
C1029 H1005 0.951 . S
C1029 C1030 1.366 . S
C1029 C1031 1.388 . S
C1030 C1029 1.366 . S
C1030 C1034 1.385 . S
C1031 H1006 0.951 . S
C1031 C1029 1.388 . S
C1031 C1032 1.366 . S
C1032 C1031 1.366 . S
C1032 C1033 1.414 . S
C1032 C1035 1.499 . S
C1033 H1007 0.950 . S
C1033 C1032 1.414 . S
C1033 C1034 1.374 . S
C1034 H1008 0.950 . S
C1034 C1030 1.385 . S
C1034 C1033 1.374 . S
C1035 C1032 1.499 . S
C1035 C1036 1.373 . S
C1035 C1037 1.389 . S
C1036 H1009 0.950 . S
C1036 C1022 1.377 . S
C1036 C1035 1.373 . S
C1037 C1021 1.377 . S
C1037 C1035 1.389 . S
C1037 C1038 1.524 . S
C1038 C1037 1.524 . S
C1038 C1039 1.397 . S
C1038 C1043 1.363 . S
C1039 H1010 0.950 . S
C1039 C1038 1.397 . S
C1039 C1040 1.334 . S
C1040 H1011 0.950 . S
C1040 C1039 1.334 . S
C1040 C1041 1.287 . S
C1041 C1040 1.287 . S
C1041 C1042 1.524 . S
C1041 H1044 0.999 . S
C1042 H1012 0.950 . S
C1042 C1041 1.524 . S
C1042 C1043 1.415 . S
C1043 H1013 0.950 . S
C1043 C1038 1.363 . S
C1043 C1042 1.415 . S
H1044 C1041 0.999 . S
H1045 C1026 0.913 . S
H1046 C1064 0.951 . S
H1047 C1066 0.951 . S
H1048 C1068 0.950 . S
H1049 C1069 0.950 . S
H1050 C1071 0.950 . S
H1051 C1074 0.950 . S
H1052 C1075 0.950 . S
H1053 C1077 0.950 . S
H1054 C1078 0.950 . S
H1055 C1079 0.951 . S
H1056 C1081 0.951 . S
H1057 C1083 0.950 . S
H1058 C1084 0.950 . S
H1059 C1086 0.950 . S
H1060 C1089 0.950 . S
H1061 C1090 0.950 . S
H1062 C1092 0.950 . S
H1063 C1093 0.950 . S
C1064 H1046 0.951 . S
C1064 C1065 1.366 . S
C1064 C1066 1.388 . S
C1065 C1064 1.366 . S
C1065 C1069 1.385 . S
C1066 H1047 0.951 . S
C1066 C1064 1.388 . S
C1066 C1067 1.366 . S
C1067 C1066 1.366 . S
C1067 C1068 1.414 . S
C1067 C1070 1.499 . S
C1068 H1048 0.950 . S
C1068 C1067 1.414 . S
C1068 C1069 1.374 . S
C1069 H1049 0.950 . S
C1069 C1065 1.385 . S
C1069 C1068 1.374 . S
C1070 C1067 1.499 . S
C1070 C1071 1.373 . S
C1070 C1072 1.389 . S
C1071 H1050 0.950 . S
C1071 C1070 1.373 . S
C1071 C1087 1.377 . S
C1072 C1070 1.389 . S
C1072 C1073 1.524 . S
C1072 C1086 1.377 . S
C1073 C1072 1.524 . S
C1073 C1074 1.397 . S
C1073 C1078 1.363 . S
C1074 H1051 0.950 . S
C1074 C1073 1.397 . S
C1074 C1075 1.334 . S
C1075 H1052 0.950 . S
C1075 C1074 1.334 . S
C1075 C1076 1.287 . S
C1076 C1075 1.287 . S
C1076 C1077 1.524 . S
C1076 H1095 0.913 . S
C1077 H1053 0.950 . S
C1077 C1076 1.524 . S
C1077 C1078 1.415 . S
C1078 H1054 0.950 . S
C1078 C1073 1.363 . S
C1078 C1077 1.415 . S
C1079 H1055 0.951 . S
C1079 C1080 1.366 . S
C1079 C1081 1.388 . S
C1080 C1079 1.366 . S
C1080 C1084 1.385 . S
C1081 H1056 0.951 . S
C1081 C1079 1.388 . S
C1081 C1082 1.366 . S
C1082 C1081 1.366 . S
C1082 C1083 1.414 . S
C1082 C1085 1.499 . S
C1083 H1057 0.950 . S
C1083 C1082 1.414 . S
C1083 C1084 1.374 . S
C1084 H1058 0.950 . S
C1084 C1080 1.385 . S
C1084 C1083 1.374 . S
C1085 C1082 1.499 . S
C1085 C1086 1.373 . S
C1085 C1087 1.389 . S
C1086 H1059 0.950 . S
C1086 C1072 1.377 . S
C1086 C1085 1.373 . S
C1087 C1071 1.377 . S
C1087 C1085 1.389 . S
C1087 C1088 1.524 . S
C1088 C1087 1.524 . S
C1088 C1089 1.397 . S
C1088 C1093 1.363 . S
C1089 H1060 0.950 . S
C1089 C1088 1.397 . S
C1089 C1090 1.334 . S
C1090 H1061 0.950 . S
C1090 C1089 1.334 . S
C1090 C1091 1.287 . S
C1091 C1090 1.287 . S
C1091 C1092 1.524 . S
C1091 H1094 0.999 . S
C1092 H1062 0.950 . S
C1092 C1091 1.524 . S
C1092 C1093 1.415 . S
C1093 H1063 0.950 . S
C1093 C1088 1.363 . S
C1093 C1092 1.415 . S
H1094 C1091 0.999 . S
H1095 C1076 0.913 . S
H1096 C1114 0.951 . S
H1097 C1116 0.951 . S
H1098 C1118 0.950 . S
H1099 C1119 0.950 . S
H1100 C1121 0.950 . S
H1101 C1124 0.950 . S
H1102 C1125 0.950 . S
H1103 C1127 0.950 . S
H1104 C1128 0.950 . S
H1105 C1129 0.951 . S
H1106 C1131 0.951 . S
H1107 C1133 0.950 . S
H1108 C1134 0.950 . S
H1109 C1136 0.950 . S
H1110 C1139 0.950 . S
H1111 C1140 0.950 . S
H1112 C1142 0.950 . S
H1113 C1143 0.950 . S
C1114 H1096 0.951 . S
C1114 C1115 1.366 . S
C1114 C1116 1.388 . S
C1115 C1114 1.366 . S
C1115 C1119 1.385 . S
C1116 H1097 0.951 . S
C1116 C1114 1.388 . S
C1116 C1117 1.366 . S
C1117 C1116 1.366 . S
C1117 C1118 1.414 . S
C1117 C1120 1.499 . S
C1118 H1098 0.950 . S
C1118 C1117 1.414 . S
C1118 C1119 1.374 . S
C1119 H1099 0.950 . S
C1119 C1115 1.385 . S
C1119 C1118 1.374 . S
C1120 C1117 1.499 . S
C1120 C1121 1.373 . S
C1120 C1122 1.389 . S
C1121 H1100 0.950 . S
C1121 C1120 1.373 . S
C1121 C1137 1.377 . S
C1122 C1120 1.389 . S
C1122 C1123 1.524 . S
C1122 C1136 1.377 . S
C1123 C1122 1.524 . S
C1123 C1124 1.397 . S
C1123 C1128 1.363 . S
C1124 H1101 0.950 . S
C1124 C1123 1.397 . S
C1124 C1125 1.334 . S
C1125 H1102 0.950 . S
C1125 C1124 1.334 . S
C1125 C1126 1.287 . S
C1126 C1125 1.287 . S
C1126 C1127 1.524 . S
C1126 H1145 0.913 . S
C1127 H1103 0.950 . S
C1127 C1126 1.524 . S
C1127 C1128 1.415 . S
C1128 H1104 0.950 . S
C1128 C1123 1.363 . S
C1128 C1127 1.415 . S
C1129 H1105 0.951 . S
C1129 C1130 1.366 . S
C1129 C1131 1.388 . S
C1130 C1129 1.366 . S
C1130 C1134 1.385 . S
C1131 H1106 0.951 . S
C1131 C1129 1.388 . S
C1131 C1132 1.366 . S
C1132 C1131 1.366 . S
C1132 C1133 1.414 . S
C1132 C1135 1.499 . S
C1133 H1107 0.950 . S
C1133 C1132 1.414 . S
C1133 C1134 1.374 . S
C1134 H1108 0.950 . S
C1134 C1130 1.385 . S
C1134 C1133 1.374 . S
C1135 C1132 1.499 . S
C1135 C1136 1.373 . S
C1135 C1137 1.389 . S
C1136 H1109 0.950 . S
C1136 C1122 1.377 . S
C1136 C1135 1.373 . S
C1137 C1121 1.377 . S
C1137 C1135 1.389 . S
C1137 C1138 1.524 . S
C1138 C1137 1.524 . S
C1138 C1139 1.397 . S
C1138 C1143 1.363 . S
C1139 H1110 0.950 . S
C1139 C1138 1.397 . S
C1139 C1140 1.334 . S
C1140 H1111 0.950 . S
C1140 C1139 1.334 . S
C1140 C1141 1.287 . S
C1141 C1140 1.287 . S
C1141 C1142 1.524 . S
C1141 H1144 0.999 . S
C1142 H1112 0.950 . S
C1142 C1141 1.524 . S
C1142 C1143 1.415 . S
C1143 H1113 0.950 . S
C1143 C1138 1.363 . S
C1143 C1142 1.415 . S
H1144 C1141 0.999 . S
H1145 C1126 0.913 . S
H1146 C1164 0.951 . S
H1147 C1166 0.951 . S
H1148 C1168 0.950 . S
H1149 C1169 0.950 . S
H1150 C1171 0.950 . S
H1151 C1174 0.950 . S
H1152 C1175 0.950 . S
H1153 C1177 0.950 . S
H1154 C1178 0.950 . S
H1155 C1179 0.951 . S
H1156 C1181 0.951 . S
H1157 C1183 0.950 . S
H1158 C1184 0.950 . S
H1159 C1186 0.950 . S
H1160 C1189 0.950 . S
H1161 C1190 0.950 . S
H1162 C1192 0.950 . S
H1163 C1193 0.950 . S
C1164 H1146 0.951 . S
C1164 C1165 1.366 . S
C1164 C1166 1.388 . S
C1165 C1164 1.366 . S
C1165 C1169 1.385 . S
C1166 H1147 0.951 . S
C1166 C1164 1.388 . S
C1166 C1167 1.366 . S
C1167 C1166 1.366 . S
C1167 C1168 1.414 . S
C1167 C1170 1.499 . S
C1168 H1148 0.950 . S
C1168 C1167 1.414 . S
C1168 C1169 1.374 . S
C1169 H1149 0.950 . S
C1169 C1165 1.385 . S
C1169 C1168 1.374 . S
C1170 C1167 1.499 . S
C1170 C1171 1.373 . S
C1170 C1172 1.389 . S
C1171 H1150 0.950 . S
C1171 C1170 1.373 . S
C1171 C1187 1.377 . S
C1172 C1170 1.389 . S
C1172 C1173 1.524 . S
C1172 C1186 1.377 . S
C1173 C1172 1.524 . S
C1173 C1174 1.397 . S
C1173 C1178 1.363 . S
C1174 H1151 0.950 . S
C1174 C1173 1.397 . S
C1174 C1175 1.334 . S
C1175 H1152 0.950 . S
C1175 C1174 1.334 . S
C1175 C1176 1.287 . S
C1176 C1175 1.287 . S
C1176 C1177 1.524 . S
C1176 H1195 0.913 . S
C1177 H1153 0.950 . S
C1177 C1176 1.524 . S
C1177 C1178 1.415 . S
C1178 H1154 0.950 . S
C1178 C1173 1.363 . S
C1178 C1177 1.415 . S
C1179 H1155 0.951 . S
C1179 C1180 1.366 . S
C1179 C1181 1.388 . S
C1180 C1179 1.366 . S
C1180 C1184 1.385 . S
C1181 H1156 0.951 . S
C1181 C1179 1.388 . S
C1181 C1182 1.366 . S
C1182 C1181 1.366 . S
C1182 C1183 1.414 . S
C1182 C1185 1.499 . S
C1183 H1157 0.950 . S
C1183 C1182 1.414 . S
C1183 C1184 1.374 . S
C1184 H1158 0.950 . S
C1184 C1180 1.385 . S
C1184 C1183 1.374 . S
C1185 C1182 1.499 . S
C1185 C1186 1.373 . S
C1185 C1187 1.389 . S
C1186 H1159 0.950 . S
C1186 C1172 1.377 . S
C1186 C1185 1.373 . S
C1187 C1171 1.377 . S
C1187 C1185 1.389 . S
C1187 C1188 1.524 . S
C1188 C1187 1.524 . S
C1188 C1189 1.397 . S
C1188 C1193 1.363 . S
C1189 H1160 0.950 . S
C1189 C1188 1.397 . S
C1189 C1190 1.334 . S
C1190 H1161 0.950 . S
C1190 C1189 1.334 . S
C1190 C1191 1.287 . S
C1191 C1190 1.287 . S
C1191 C1192 1.524 . S
C1191 H1194 0.999 . S
C1192 H1162 0.950 . S
C1192 C1191 1.524 . S
C1192 C1193 1.415 . S
C1193 H1163 0.950 . S
C1193 C1188 1.363 . S
C1193 C1192 1.415 . S
H1194 C1191 0.999 . S
H1195 C1176 0.913 . S
H1196 C1214 0.951 . S
H1197 C1216 0.951 . S
H1198 C1218 0.950 . S
H1199 C1219 0.950 . S
H1200 C1221 0.950 . S
H1201 C1224 0.950 . S
H1202 C1225 0.950 . S
H1203 C1227 0.950 . S
H1204 C1228 0.950 . S
H1205 C1229 0.951 . S
H1206 C1231 0.951 . S
H1207 C1233 0.950 . S
H1208 C1234 0.950 . S
H1209 C1236 0.950 1_554 S
H1210 C1239 0.950 . S
H1211 C1240 0.950 . S
H1212 C1242 0.950 . S
H1213 C1243 0.950 . S
C1214 H1196 0.951 . S
C1214 C1215 1.366 . S
C1214 C1216 1.388 . S
C1215 C1214 1.366 . S
C1215 C1219 1.385 . S
C1216 H1197 0.951 . S
C1216 C1214 1.388 . S
C1216 C1217 1.366 . S
C1217 C1216 1.366 . S
C1217 C1218 1.414 . S
C1217 C1220 1.499 . S
C1218 H1198 0.950 . S
C1218 C1217 1.414 . S
C1218 C1219 1.374 . S
C1219 H1199 0.950 . S
C1219 C1215 1.385 . S
C1219 C1218 1.374 . S
C1220 C1217 1.499 . S
C1220 C1221 1.373 . S
C1220 C1222 1.389 . S
C1221 H1200 0.950 . S
C1221 C1220 1.373 . S
C1221 C1237 1.377 . S
C1222 C1220 1.389 . S
C1222 C1223 1.524 1_556 S
C1222 C1236 1.377 . S
C1223 C1222 1.524 1_554 S
C1223 C1224 1.397 . S
C1223 C1228 1.363 . S
C1224 H1201 0.950 . S
C1224 C1223 1.397 . S
C1224 C1225 1.334 . S
C1225 H1202 0.950 . S
C1225 C1224 1.334 . S
C1225 C1226 1.287 . S
C1226 C1225 1.287 . S
C1226 C1227 1.524 . S
C1226 H1245 0.913 . S
C1227 H1203 0.950 . S
C1227 C1226 1.524 . S
C1227 C1228 1.415 . S
C1228 H1204 0.950 . S
C1228 C1223 1.363 . S
C1228 C1227 1.415 . S
C1229 H1205 0.951 . S
C1229 C1230 1.366 . S
C1229 C1231 1.388 . S
C1230 C1229 1.366 . S
C1230 C1234 1.385 . S
C1231 H1206 0.951 . S
C1231 C1229 1.388 . S
C1231 C1232 1.366 . S
C1232 C1231 1.366 . S
C1232 C1233 1.414 . S
C1232 C1235 1.499 . S
C1233 H1207 0.950 . S
C1233 C1232 1.414 . S
C1233 C1234 1.374 . S
C1234 H1208 0.950 . S
C1234 C1230 1.385 . S
C1234 C1233 1.374 . S
C1235 C1232 1.499 . S
C1235 C1236 1.373 . S
C1235 C1237 1.389 . S
C1236 H1209 0.950 1_556 S
C1236 C1222 1.377 . S
C1236 C1235 1.373 . S
C1237 C1221 1.377 . S
C1237 C1235 1.389 . S
C1237 C1238 1.524 . S
C1238 C1237 1.524 . S
C1238 C1239 1.397 . S
C1238 C1243 1.363 . S
C1239 H1210 0.950 . S
C1239 C1238 1.397 . S
C1239 C1240 1.334 . S
C1240 H1211 0.950 . S
C1240 C1239 1.334 . S
C1240 C1241 1.287 . S
C1241 C1240 1.287 . S
C1241 C1242 1.524 . S
C1241 H1244 0.999 . S
C1242 H1212 0.950 . S
C1242 C1241 1.524 . S
C1242 C1243 1.415 . S
C1243 H1213 0.950 . S
C1243 C1238 1.363 . S
C1243 C1242 1.415 . S
H1244 C1241 0.999 . S
H1245 C1226 0.913 . S
H1246 C1264 0.951 . S
H1247 C1266 0.951 . S
H1248 C1268 0.950 . S
H1249 C1269 0.950 . S
H1250 C1271 0.950 . S
H1251 C1274 0.950 . S
H1252 C1275 0.950 . S
H1253 C1277 0.950 . S
H1254 C1278 0.950 . S
H1255 C1279 0.951 . S
H1256 C1281 0.951 . S
H1257 C1283 0.950 . S
H1258 C1284 0.950 . S
H1259 C1286 0.950 . S
H1260 C1289 0.950 . S
H1261 C1290 0.950 . S
H1262 C1292 0.950 . S
H1263 C1293 0.950 . S
C1264 H1246 0.951 . S
C1264 C1265 1.366 . S
C1264 C1266 1.388 . S
C1265 C1264 1.366 . S
C1265 C1269 1.385 . S
C1266 H1247 0.951 . S
C1266 C1264 1.388 . S
C1266 C1267 1.366 . S
C1267 C1266 1.366 . S
C1267 C1268 1.414 . S
C1267 C1270 1.499 . S
C1268 H1248 0.950 . S
C1268 C1267 1.414 . S
C1268 C1269 1.374 . S
C1269 H1249 0.950 . S
C1269 C1265 1.385 . S
C1269 C1268 1.374 . S
C1270 C1267 1.499 . S
C1270 C1271 1.373 . S
C1270 C1272 1.389 . S
C1271 H1250 0.950 . S
C1271 C1270 1.373 . S
C1271 C1287 1.377 . S
C1272 C1270 1.389 . S
C1272 C1273 1.524 . S
C1272 C1286 1.377 . S
C1273 C1272 1.524 . S
C1273 C1274 1.397 . S
C1273 C1278 1.363 . S
C1274 H1251 0.950 . S
C1274 C1273 1.397 . S
C1274 C1275 1.334 . S
C1275 H1252 0.950 . S
C1275 C1274 1.334 . S
C1275 C1276 1.287 . S
C1276 C1275 1.287 . S
C1276 C1277 1.524 . S
C1276 H1295 0.913 . S
C1277 H1253 0.950 . S
C1277 C1276 1.524 . S
C1277 C1278 1.415 . S
C1278 H1254 0.950 . S
C1278 C1273 1.363 . S
C1278 C1277 1.415 . S
C1279 H1255 0.951 . S
C1279 C1280 1.366 . S
C1279 C1281 1.388 . S
C1280 C1279 1.366 . S
C1280 C1284 1.385 . S
C1281 H1256 0.951 . S
C1281 C1279 1.388 . S
C1281 C1282 1.366 . S
C1282 C1281 1.366 . S
C1282 C1283 1.414 . S
C1282 C1285 1.499 . S
C1283 H1257 0.950 . S
C1283 C1282 1.414 . S
C1283 C1284 1.374 . S
C1284 H1258 0.950 . S
C1284 C1280 1.385 . S
C1284 C1283 1.374 . S
C1285 C1282 1.499 . S
C1285 C1286 1.373 . S
C1285 C1287 1.389 . S
C1286 H1259 0.950 . S
C1286 C1272 1.377 . S
C1286 C1285 1.373 . S
C1287 C1271 1.377 . S
C1287 C1285 1.389 . S
C1287 C1288 1.524 . S
C1288 C1287 1.524 . S
C1288 C1289 1.397 . S
C1288 C1293 1.363 . S
C1289 H1260 0.950 . S
C1289 C1288 1.397 . S
C1289 C1290 1.334 . S
C1290 H1261 0.950 . S
C1290 C1289 1.334 . S
C1290 C1291 1.287 . S
C1291 C1290 1.287 . S
C1291 C1292 1.524 . S
C1291 H1294 0.999 . S
C1292 H1262 0.950 . S
C1292 C1291 1.524 . S
C1292 C1293 1.415 . S
C1293 H1263 0.950 . S
C1293 C1288 1.363 . S
C1293 C1292 1.415 . S
H1294 C1291 0.999 . S
H1295 C1276 0.913 . S
H1296 C1314 0.951 . S
H1297 C1316 0.951 . S
H1298 C1318 0.950 . S
H1299 C1319 0.950 . S
H1300 C1321 0.950 . S
H1301 C1324 0.950 . S
H1302 C1325 0.950 . S
H1303 C1327 0.950 . S
H1304 C1328 0.950 . S
H1305 C1329 0.951 . S
H1306 C1331 0.951 . S
H1307 C1333 0.950 . S
H1308 C1334 0.950 . S
H1309 C1336 0.950 . S
H1310 C1339 0.950 . S
H1311 C1340 0.950 . S
H1312 C1342 0.950 . S
H1313 C1343 0.950 . S
C1314 H1296 0.951 . S
C1314 C1315 1.366 . S
C1314 C1316 1.388 . S
C1315 C1314 1.366 . S
C1315 C1319 1.385 . S
C1316 H1297 0.951 . S
C1316 C1314 1.388 . S
C1316 C1317 1.366 . S
C1317 C1316 1.366 . S
C1317 C1318 1.414 . S
C1317 C1320 1.499 . S
C1318 H1298 0.950 . S
C1318 C1317 1.414 . S
C1318 C1319 1.374 . S
C1319 H1299 0.950 . S
C1319 C1315 1.385 . S
C1319 C1318 1.374 . S
C1320 C1317 1.499 . S
C1320 C1321 1.373 . S
C1320 C1322 1.389 . S
C1321 H1300 0.950 . S
C1321 C1320 1.373 . S
C1321 C1337 1.377 . S
C1322 C1320 1.389 . S
C1322 C1323 1.524 . S
C1322 C1336 1.377 . S
C1323 C1322 1.524 . S
C1323 C1324 1.397 . S
C1323 C1328 1.363 . S
C1324 H1301 0.950 . S
C1324 C1323 1.397 . S
C1324 C1325 1.334 . S
C1325 H1302 0.950 . S
C1325 C1324 1.334 . S
C1325 C1326 1.287 . S
C1326 C1325 1.287 . S
C1326 C1327 1.524 . S
C1326 H1345 0.913 . S
C1327 H1303 0.950 . S
C1327 C1326 1.524 . S
C1327 C1328 1.415 . S
C1328 H1304 0.950 . S
C1328 C1323 1.363 . S
C1328 C1327 1.415 . S
C1329 H1305 0.951 . S
C1329 C1330 1.366 . S
C1329 C1331 1.388 . S
C1330 C1329 1.366 . S
C1330 C1334 1.385 . S
C1331 H1306 0.951 . S
C1331 C1329 1.388 . S
C1331 C1332 1.366 . S
C1332 C1331 1.366 . S
C1332 C1333 1.414 . S
C1332 C1335 1.499 . S
C1333 H1307 0.950 . S
C1333 C1332 1.414 . S
C1333 C1334 1.374 . S
C1334 H1308 0.950 . S
C1334 C1330 1.385 . S
C1334 C1333 1.374 . S
C1335 C1332 1.499 . S
C1335 C1336 1.373 . S
C1335 C1337 1.389 . S
C1336 H1309 0.950 . S
C1336 C1322 1.377 . S
C1336 C1335 1.373 . S
C1337 C1321 1.377 . S
C1337 C1335 1.389 . S
C1337 C1338 1.524 . S
C1338 C1337 1.524 . S
C1338 C1339 1.397 . S
C1338 C1343 1.363 . S
C1339 H1310 0.950 . S
C1339 C1338 1.397 . S
C1339 C1340 1.334 . S
C1340 H1311 0.950 . S
C1340 C1339 1.334 . S
C1340 C1341 1.287 . S
C1341 C1340 1.287 . S
C1341 C1342 1.524 . S
C1341 H1344 0.999 . S
C1342 H1312 0.950 . S
C1342 C1341 1.524 . S
C1342 C1343 1.415 . S
C1343 H1313 0.950 . S
C1343 C1338 1.363 . S
C1343 C1342 1.415 . S
H1344 C1341 0.999 . S
H1345 C1326 0.913 . S
H1346 C1364 0.951 . S
H1347 C1366 0.951 . S
H1348 C1368 0.950 . S
H1349 C1369 0.950 . S
H1350 C1371 0.950 . S
H1351 C1374 0.950 . S
H1352 C1375 0.950 . S
H1353 C1377 0.950 . S
H1354 C1378 0.950 . S
H1355 C1379 0.951 . S
H1356 C1381 0.951 . S
H1357 C1383 0.950 . S
H1358 C1384 0.950 . S
H1359 C1386 0.950 . S
H1360 C1389 0.950 . S
H1361 C1390 0.950 . S
H1362 C1392 0.950 . S
H1363 C1393 0.950 . S
C1364 H1346 0.951 . S
C1364 C1365 1.366 . S
C1364 C1366 1.388 . S
C1365 C1364 1.366 . S
C1365 C1369 1.385 . S
C1366 H1347 0.951 . S
C1366 C1364 1.388 . S
C1366 C1367 1.366 . S
C1367 C1366 1.366 . S
C1367 C1368 1.414 . S
C1367 C1370 1.499 . S
C1368 H1348 0.950 . S
C1368 C1367 1.414 . S
C1368 C1369 1.374 . S
C1369 H1349 0.950 . S
C1369 C1365 1.385 . S
C1369 C1368 1.374 . S
C1370 C1367 1.499 . S
C1370 C1371 1.373 . S
C1370 C1372 1.389 . S
C1371 H1350 0.950 . S
C1371 C1370 1.373 . S
C1371 C1387 1.377 . S
C1372 C1370 1.389 . S
C1372 C1373 1.524 . S
C1372 C1386 1.377 . S
C1373 C1372 1.524 . S
C1373 C1374 1.397 . S
C1373 C1378 1.363 . S
C1374 H1351 0.950 . S
C1374 C1373 1.397 . S
C1374 C1375 1.334 . S
C1375 H1352 0.950 . S
C1375 C1374 1.334 . S
C1375 C1376 1.287 . S
C1376 C1375 1.287 . S
C1376 C1377 1.524 . S
C1376 H1395 0.913 . S
C1377 H1353 0.950 . S
C1377 C1376 1.524 . S
C1377 C1378 1.415 . S
C1378 H1354 0.950 . S
C1378 C1373 1.363 . S
C1378 C1377 1.415 . S
C1379 H1355 0.951 . S
C1379 C1380 1.366 . S
C1379 C1381 1.388 . S
C1380 C1379 1.366 . S
C1380 C1384 1.385 . S
C1381 H1356 0.951 . S
C1381 C1379 1.388 . S
C1381 C1382 1.366 . S
C1382 C1381 1.366 . S
C1382 C1383 1.414 . S
C1382 C1385 1.499 . S
C1383 H1357 0.950 . S
C1383 C1382 1.414 . S
C1383 C1384 1.374 . S
C1384 H1358 0.950 . S
C1384 C1380 1.385 . S
C1384 C1383 1.374 . S
C1385 C1382 1.499 . S
C1385 C1386 1.373 . S
C1385 C1387 1.389 . S
C1386 H1359 0.950 . S
C1386 C1372 1.377 . S
C1386 C1385 1.373 . S
C1387 C1371 1.377 . S
C1387 C1385 1.389 . S
C1387 C1388 1.524 . S
C1388 C1387 1.524 . S
C1388 C1389 1.397 . S
C1388 C1393 1.363 . S
C1389 H1360 0.950 . S
C1389 C1388 1.397 . S
C1389 C1390 1.334 . S
C1390 H1361 0.950 . S
C1390 C1389 1.334 . S
C1390 C1391 1.287 . S
C1391 C1390 1.287 . S
C1391 C1392 1.524 . S
C1391 H1394 0.999 . S
C1392 H1362 0.950 . S
C1392 C1391 1.524 . S
C1392 C1393 1.415 . S
C1393 H1363 0.950 . S
C1393 C1388 1.363 . S
C1393 C1392 1.415 . S
H1394 C1391 0.999 . S
H1395 C1376 0.913 . S
H1396 C1414 0.951 . S
H1397 C1416 0.951 . S
H1398 C1418 0.950 . S
H1399 C1419 0.950 . S
H1400 C1421 0.950 . S
H1401 C1424 0.950 . S
H1402 C1425 0.950 . S
H1403 C1427 0.950 . S
H1404 C1428 0.950 . S
H1405 C1429 0.951 . S
H1406 C1431 0.951 . S
H1407 C1433 0.950 . S
H1408 C1434 0.950 . S
H1409 C1436 0.950 . S
H1410 C1439 0.950 . S
H1411 C1440 0.950 . S
H1412 C1442 0.950 . S
H1413 C1443 0.950 . S
C1414 H1396 0.951 . S
C1414 C1415 1.366 . S
C1414 C1416 1.388 . S
C1415 C1414 1.366 . S
C1415 C1419 1.385 . S
C1416 H1397 0.951 . S
C1416 C1414 1.388 . S
C1416 C1417 1.366 . S
C1417 C1416 1.366 . S
C1417 C1418 1.414 . S
C1417 C1420 1.499 . S
C1418 H1398 0.950 . S
C1418 C1417 1.414 . S
C1418 C1419 1.374 . S
C1419 H1399 0.950 . S
C1419 C1415 1.385 . S
C1419 C1418 1.374 . S
C1420 C1417 1.499 . S
C1420 C1421 1.373 . S
C1420 C1422 1.389 . S
C1421 H1400 0.950 . S
C1421 C1420 1.373 . S
C1421 C1437 1.377 . S
C1422 C1420 1.389 . S
C1422 C1423 1.524 . S
C1422 C1436 1.377 . S
C1423 C1422 1.524 . S
C1423 C1424 1.397 . S
C1423 C1428 1.363 . S
C1424 H1401 0.950 . S
C1424 C1423 1.397 . S
C1424 C1425 1.334 . S
C1425 H1402 0.950 . S
C1425 C1424 1.334 . S
C1425 C1426 1.287 . S
C1426 C1425 1.287 . S
C1426 C1427 1.524 . S
C1426 H1445 0.913 . S
C1427 H1403 0.950 . S
C1427 C1426 1.524 . S
C1427 C1428 1.415 . S
C1428 H1404 0.950 . S
C1428 C1423 1.363 . S
C1428 C1427 1.415 . S
C1429 H1405 0.951 . S
C1429 C1430 1.366 . S
C1429 C1431 1.388 . S
C1430 C1429 1.366 . S
C1430 C1434 1.385 . S
C1431 H1406 0.951 . S
C1431 C1429 1.388 . S
C1431 C1432 1.366 . S
C1432 C1431 1.366 . S
C1432 C1433 1.414 . S
C1432 C1435 1.499 . S
C1433 H1407 0.950 . S
C1433 C1432 1.414 . S
C1433 C1434 1.374 . S
C1434 H1408 0.950 . S
C1434 C1430 1.385 . S
C1434 C1433 1.374 . S
C1435 C1432 1.499 . S
C1435 C1436 1.373 . S
C1435 C1437 1.389 . S
C1436 H1409 0.950 . S
C1436 C1422 1.377 . S
C1436 C1435 1.373 . S
C1437 C1421 1.377 . S
C1437 C1435 1.389 . S
C1437 C1438 1.524 . S
C1438 C1437 1.524 . S
C1438 C1439 1.397 . S
C1438 C1443 1.363 . S
C1439 H1410 0.950 . S
C1439 C1438 1.397 . S
C1439 C1440 1.334 . S
C1440 H1411 0.950 . S
C1440 C1439 1.334 . S
C1440 C1441 1.287 . S
C1441 C1440 1.287 . S
C1441 C1442 1.524 . S
C1441 H1444 0.999 . S
C1442 H1412 0.950 . S
C1442 C1441 1.524 . S
C1442 C1443 1.415 . S
C1443 H1413 0.950 . S
C1443 C1438 1.363 . S
C1443 C1442 1.415 . S
H1444 C1441 0.999 . S
H1445 C1426 0.913 . S
H1446 C1464 0.951 . S
H1447 C1466 0.951 . S
H1448 C1468 0.950 . S
H1449 C1469 0.950 . S
H1450 C1471 0.950 . S
H1451 C1474 0.950 . S
H1452 C1475 0.950 . S
H1453 C1477 0.950 . S
H1454 C1478 0.950 . S
H1455 C1479 0.951 . S
H1456 C1481 0.951 . S
H1457 C1483 0.950 . S
H1458 C1484 0.950 . S
H1459 C1486 0.950 . S
H1460 C1489 0.950 . S
H1461 C1490 0.950 . S
H1462 C1492 0.950 . S
H1463 C1493 0.950 . S
C1464 H1446 0.951 . S
C1464 C1465 1.366 . S
C1464 C1466 1.388 . S
C1465 C1464 1.366 . S
C1465 C1469 1.385 . S
C1466 H1447 0.951 . S
C1466 C1464 1.388 . S
C1466 C1467 1.366 . S
C1467 C1466 1.366 . S
C1467 C1468 1.414 . S
C1467 C1470 1.499 . S
C1468 H1448 0.950 . S
C1468 C1467 1.414 . S
C1468 C1469 1.374 . S
C1469 H1449 0.950 . S
C1469 C1465 1.385 . S
C1469 C1468 1.374 . S
C1470 C1467 1.499 . S
C1470 C1471 1.373 . S
C1470 C1472 1.389 . S
C1471 H1450 0.950 . S
C1471 C1470 1.373 . S
C1471 C1487 1.377 . S
C1472 C1470 1.389 . S
C1472 C1473 1.524 . S
C1472 C1486 1.377 . S
C1473 C1472 1.524 . S
C1473 C1474 1.397 . S
C1473 C1478 1.363 . S
C1474 H1451 0.950 . S
C1474 C1473 1.397 . S
C1474 C1475 1.334 . S
C1475 H1452 0.950 . S
C1475 C1474 1.334 . S
C1475 C1476 1.287 . S
C1476 C1475 1.287 . S
C1476 C1477 1.524 . S
C1476 H1495 0.913 . S
C1477 H1453 0.950 . S
C1477 C1476 1.524 . S
C1477 C1478 1.415 . S
C1478 H1454 0.950 . S
C1478 C1473 1.363 . S
C1478 C1477 1.415 . S
C1479 H1455 0.951 . S
C1479 C1480 1.366 . S
C1479 C1481 1.388 . S
C1480 C1479 1.366 . S
C1480 C1484 1.385 . S
C1481 H1456 0.951 . S
C1481 C1479 1.388 . S
C1481 C1482 1.366 . S
C1482 C1481 1.366 . S
C1482 C1483 1.414 . S
C1482 C1485 1.499 . S
C1483 H1457 0.950 . S
C1483 C1482 1.414 . S
C1483 C1484 1.374 . S
C1484 H1458 0.950 . S
C1484 C1480 1.385 . S
C1484 C1483 1.374 . S
C1485 C1482 1.499 . S
C1485 C1486 1.373 . S
C1485 C1487 1.389 . S
C1486 H1459 0.950 . S
C1486 C1472 1.377 . S
C1486 C1485 1.373 . S
C1487 C1471 1.377 . S
C1487 C1485 1.389 . S
C1487 C1488 1.524 . S
C1488 C1487 1.524 . S
C1488 C1489 1.397 . S
C1488 C1493 1.363 . S
C1489 H1460 0.950 . S
C1489 C1488 1.397 . S
C1489 C1490 1.334 . S
C1490 H1461 0.950 . S
C1490 C1489 1.334 . S
C1490 C1491 1.287 . S
C1491 C1490 1.287 . S
C1491 C1492 1.524 . S
C1491 H1494 0.999 . S
C1492 H1462 0.950 . S
C1492 C1491 1.524 . S
C1492 C1493 1.415 . S
C1493 H1463 0.950 . S
C1493 C1488 1.363 . S
C1493 C1492 1.415 . S
H1494 C1491 0.999 . S
H1495 C1476 0.913 . S
H1496 C1514 0.951 . S
H1497 C1516 0.951 . S
H1498 C1518 0.950 . S
H1499 C1519 0.950 . S
H1500 C1521 0.950 . S
H1501 C1524 0.950 . S
H1502 C1525 0.950 . S
H1503 C1527 0.950 . S
H1504 C1528 0.950 . S
H1505 C1529 0.951 . S
H1506 C1531 0.951 . S
H1507 C1533 0.950 . S
H1508 C1534 0.950 . S
H1509 C1536 0.950 . S
H1510 C1539 0.950 . S
H1511 C1540 0.950 . S
H1512 C1542 0.950 . S
H1513 C1543 0.950 . S
C1514 H1496 0.951 . S
C1514 C1515 1.366 . S
C1514 C1516 1.388 . S
C1515 C1514 1.366 . S
C1515 C1519 1.385 . S
C1516 H1497 0.951 . S
C1516 C1514 1.388 . S
C1516 C1517 1.366 . S
C1517 C1516 1.366 . S
C1517 C1518 1.414 . S
C1517 C1520 1.499 . S
C1518 H1498 0.950 . S
C1518 C1517 1.414 . S
C1518 C1519 1.374 . S
C1519 H1499 0.950 . S
C1519 C1515 1.385 . S
C1519 C1518 1.374 . S
C1520 C1517 1.499 . S
C1520 C1521 1.373 . S
C1520 C1522 1.389 . S
C1521 H1500 0.950 . S
C1521 C1520 1.373 . S
C1521 C1537 1.377 . S
C1522 C1520 1.389 . S
C1522 C1523 1.524 . S
C1522 C1536 1.377 . S
C1523 C1522 1.524 . S
C1523 C1524 1.397 . S
C1523 C1528 1.363 . S
C1524 H1501 0.950 . S
C1524 C1523 1.397 . S
C1524 C1525 1.334 . S
C1525 H1502 0.950 . S
C1525 C1524 1.334 . S
C1525 C1526 1.287 . S
C1526 C1525 1.287 . S
C1526 C1527 1.524 . S
C1526 H1545 0.913 . S
C1527 H1503 0.950 . S
C1527 C1526 1.524 . S
C1527 C1528 1.415 . S
C1528 H1504 0.950 . S
C1528 C1523 1.363 . S
C1528 C1527 1.415 . S
C1529 H1505 0.951 . S
C1529 C1530 1.366 . S
C1529 C1531 1.388 . S
C1530 C1529 1.366 . S
C1530 C1534 1.385 . S
C1531 H1506 0.951 . S
C1531 C1529 1.388 . S
C1531 C1532 1.366 . S
C1532 C1531 1.366 . S
C1532 C1533 1.414 . S
C1532 C1535 1.499 . S
C1533 H1507 0.950 . S
C1533 C1532 1.414 . S
C1533 C1534 1.374 . S
C1534 H1508 0.950 . S
C1534 C1530 1.385 . S
C1534 C1533 1.374 . S
C1535 C1532 1.499 . S
C1535 C1536 1.373 . S
C1535 C1537 1.389 . S
C1536 H1509 0.950 . S
C1536 C1522 1.377 . S
C1536 C1535 1.373 . S
C1537 C1521 1.377 . S
C1537 C1535 1.389 . S
C1537 C1538 1.524 . S
C1538 C1537 1.524 . S
C1538 C1539 1.397 . S
C1538 C1543 1.363 . S
C1539 H1510 0.950 . S
C1539 C1538 1.397 . S
C1539 C1540 1.334 . S
C1540 H1511 0.950 . S
C1540 C1539 1.334 . S
C1540 C1541 1.287 . S
C1541 C1540 1.287 . S
C1541 C1542 1.524 . S
C1541 H1544 0.999 . S
C1542 H1512 0.950 . S
C1542 C1541 1.524 . S
C1542 C1543 1.415 . S
C1543 H1513 0.950 . S
C1543 C1538 1.363 . S
C1543 C1542 1.415 . S
H1544 C1541 0.999 . S
H1545 C1526 0.913 . S
H1546 C1564 0.951 . S
H1547 C1566 0.951 . S
H1548 C1568 0.950 . S
H1549 C1569 0.950 . S
H1550 C1571 0.950 . S
H1551 C1574 0.950 . S
H1552 C1575 0.950 . S
H1553 C1577 0.950 . S
H1554 C1578 0.950 . S
H1555 C1579 0.951 . S
H1556 C1581 0.951 . S
H1557 C1583 0.950 . S
H1558 C1584 0.950 . S
H1559 C1586 0.950 . S
H1560 C1589 0.950 . S
H1561 C1590 0.950 . S
H1562 C1592 0.950 . S
H1563 C1593 0.950 . S
C1564 H1546 0.951 . S
C1564 C1565 1.366 . S
C1564 C1566 1.388 . S
C1565 C1564 1.366 . S
C1565 C1569 1.385 . S
C1566 H1547 0.951 . S
C1566 C1564 1.388 . S
C1566 C1567 1.366 . S
C1567 C1566 1.366 . S
C1567 C1568 1.414 . S
C1567 C1570 1.499 . S
C1568 H1548 0.950 . S
C1568 C1567 1.414 . S
C1568 C1569 1.374 . S
C1569 H1549 0.950 . S
C1569 C1565 1.385 . S
C1569 C1568 1.374 . S
C1570 C1567 1.499 . S
C1570 C1571 1.373 . S
C1570 C1572 1.389 . S
C1571 H1550 0.950 . S
C1571 C1570 1.373 . S
C1571 C1587 1.377 . S
C1572 C1570 1.389 . S
C1572 C1573 1.524 . S
C1572 C1586 1.377 . S
C1573 C1572 1.524 . S
C1573 C1574 1.397 . S
C1573 C1578 1.363 . S
C1574 H1551 0.950 . S
C1574 C1573 1.397 . S
C1574 C1575 1.334 . S
C1575 H1552 0.950 . S
C1575 C1574 1.334 . S
C1575 C1576 1.287 . S
C1576 C1575 1.287 . S
C1576 C1577 1.524 . S
C1576 H1595 0.913 . S
C1577 H1553 0.950 . S
C1577 C1576 1.524 . S
C1577 C1578 1.415 . S
C1578 H1554 0.950 . S
C1578 C1573 1.363 . S
C1578 C1577 1.415 . S
C1579 H1555 0.951 . S
C1579 C1580 1.366 . S
C1579 C1581 1.388 . S
C1580 C1579 1.366 . S
C1580 C1584 1.385 . S
C1581 H1556 0.951 . S
C1581 C1579 1.388 . S
C1581 C1582 1.366 . S
C1582 C1581 1.366 . S
C1582 C1583 1.414 . S
C1582 C1585 1.499 . S
C1583 H1557 0.950 . S
C1583 C1582 1.414 . S
C1583 C1584 1.374 . S
C1584 H1558 0.950 . S
C1584 C1580 1.385 . S
C1584 C1583 1.374 . S
C1585 C1582 1.499 . S
C1585 C1586 1.373 . S
C1585 C1587 1.389 . S
C1586 H1559 0.950 . S
C1586 C1572 1.377 . S
C1586 C1585 1.373 . S
C1587 C1571 1.377 . S
C1587 C1585 1.389 . S
C1587 C1588 1.524 . S
C1588 C1587 1.524 . S
C1588 C1589 1.397 . S
C1588 C1593 1.363 . S
C1589 H1560 0.950 . S
C1589 C1588 1.397 . S
C1589 C1590 1.334 . S
C1590 H1561 0.950 . S
C1590 C1589 1.334 . S
C1590 C1591 1.287 . S
C1591 C1590 1.287 . S
C1591 C1592 1.524 . S
C1591 H1594 0.999 . S
C1592 H1562 0.950 . S
C1592 C1591 1.524 . S
C1592 C1593 1.415 . S
C1593 H1563 0.950 . S
C1593 C1588 1.363 . S
C1593 C1592 1.415 . S
H1594 C1591 0.999 . S
H1595 C1576 0.913 . S
H1596 C1614 0.951 . S
H1597 C1616 0.951 . S
H1598 C1618 0.950 . S
H1599 C1619 0.950 . S
H1600 C1621 0.950 . S
H1601 C1624 0.950 . S
H1602 C1625 0.950 . S
H1603 C1627 0.950 . S
H1604 C1628 0.950 . S
H1605 C1629 0.951 . S
H1606 C1631 0.951 . S
H1607 C1633 0.950 . S
H1608 C1634 0.950 . S
H1609 C1636 0.950 . S
H1610 C1639 0.950 . S
H1611 C1640 0.950 . S
H1612 C1642 0.950 . S
H1613 C1643 0.950 . S
C1614 H1596 0.951 . S
C1614 C1615 1.366 . S
C1614 C1616 1.388 . S
C1615 C1614 1.366 . S
C1615 C1619 1.385 . S
C1616 H1597 0.951 . S
C1616 C1614 1.388 . S
C1616 C1617 1.366 . S
C1617 C1616 1.366 . S
C1617 C1618 1.414 . S
C1617 C1620 1.499 . S
C1618 H1598 0.950 . S
C1618 C1617 1.414 . S
C1618 C1619 1.374 . S
C1619 H1599 0.950 . S
C1619 C1615 1.385 . S
C1619 C1618 1.374 . S
C1620 C1617 1.499 . S
C1620 C1621 1.373 . S
C1620 C1622 1.389 . S
C1621 H1600 0.950 . S
C1621 C1620 1.373 . S
C1621 C1637 1.377 . S
C1622 C1620 1.389 . S
C1622 C1623 1.524 . S
C1622 C1636 1.377 . S
C1623 C1622 1.524 . S
C1623 C1624 1.397 . S
C1623 C1628 1.363 . S
C1624 H1601 0.950 . S
C1624 C1623 1.397 . S
C1624 C1625 1.334 . S
C1625 H1602 0.950 . S
C1625 C1624 1.334 . S
C1625 C1626 1.287 . S
C1626 C1625 1.287 . S
C1626 C1627 1.524 . S
C1626 H1645 0.913 . S
C1627 H1603 0.950 . S
C1627 C1626 1.524 . S
C1627 C1628 1.415 . S
C1628 H1604 0.950 . S
C1628 C1623 1.363 . S
C1628 C1627 1.415 . S
C1629 H1605 0.951 . S
C1629 C1630 1.366 . S
C1629 C1631 1.388 . S
C1630 C1629 1.366 . S
C1630 C1634 1.385 . S
C1631 H1606 0.951 . S
C1631 C1629 1.388 . S
C1631 C1632 1.366 . S
C1632 C1631 1.366 . S
C1632 C1633 1.414 . S
C1632 C1635 1.499 . S
C1633 H1607 0.950 . S
C1633 C1632 1.414 . S
C1633 C1634 1.374 . S
C1634 H1608 0.950 . S
C1634 C1630 1.385 . S
C1634 C1633 1.374 . S
C1635 C1632 1.499 . S
C1635 C1636 1.373 . S
C1635 C1637 1.389 . S
C1636 H1609 0.950 . S
C1636 C1622 1.377 . S
C1636 C1635 1.373 . S
C1637 C1621 1.377 . S
C1637 C1635 1.389 . S
C1637 C1638 1.524 . S
C1638 C1637 1.524 . S
C1638 C1639 1.397 . S
C1638 C1643 1.363 . S
C1639 H1610 0.950 . S
C1639 C1638 1.397 . S
C1639 C1640 1.334 . S
C1640 H1611 0.950 . S
C1640 C1639 1.334 . S
C1640 C1641 1.287 . S
C1641 C1640 1.287 . S
C1641 C1642 1.524 . S
C1641 H1644 0.999 . S
C1642 H1612 0.950 . S
C1642 C1641 1.524 . S
C1642 C1643 1.415 . S
C1643 H1613 0.950 . S
C1643 C1638 1.363 . S
C1643 C1642 1.415 . S
H1644 C1641 0.999 . S
H1645 C1626 0.913 . S
H1646 C1664 0.951 . S
H1647 C1666 0.951 . S
H1648 C1668 0.950 . S
H1649 C1669 0.950 . S
H1650 C1671 0.950 . S
H1651 C1674 0.950 . S
H1652 C1675 0.950 . S
H1653 C1677 0.950 . S
H1654 C1678 0.950 . S
H1655 C1679 0.951 . S
H1656 C1681 0.951 . S
H1657 C1683 0.950 . S
H1658 C1684 0.950 . S
H1659 C1686 0.950 . S
H1660 C1689 0.950 . S
H1661 C1690 0.950 . S
H1662 C1692 0.950 . S
H1663 C1693 0.950 . S
C1664 H1646 0.951 . S
C1664 C1665 1.366 . S
C1664 C1666 1.388 . S
C1665 C1664 1.366 . S
C1665 C1669 1.385 . S
C1666 H1647 0.951 . S
C1666 C1664 1.388 . S
C1666 C1667 1.366 . S
C1667 C1666 1.366 . S
C1667 C1668 1.414 . S
C1667 C1670 1.499 . S
C1668 H1648 0.950 . S
C1668 C1667 1.414 . S
C1668 C1669 1.374 . S
C1669 H1649 0.950 . S
C1669 C1665 1.385 . S
C1669 C1668 1.374 . S
C1670 C1667 1.499 . S
C1670 C1671 1.373 . S
C1670 C1672 1.389 . S
C1671 H1650 0.950 . S
C1671 C1670 1.373 . S
C1671 C1687 1.377 . S
C1672 C1670 1.389 . S
C1672 C1673 1.524 . S
C1672 C1686 1.377 . S
C1673 C1672 1.524 . S
C1673 C1674 1.397 . S
C1673 C1678 1.363 . S
C1674 H1651 0.950 . S
C1674 C1673 1.397 . S
C1674 C1675 1.334 . S
C1675 H1652 0.950 . S
C1675 C1674 1.334 . S
C1675 C1676 1.287 . S
C1676 C1675 1.287 . S
C1676 C1677 1.524 . S
C1676 H1695 0.913 1_565 S
C1677 H1653 0.950 . S
C1677 C1676 1.524 . S
C1677 C1678 1.415 . S
C1678 H1654 0.950 . S
C1678 C1673 1.363 . S
C1678 C1677 1.415 . S
C1679 H1655 0.951 . S
C1679 C1680 1.366 . S
C1679 C1681 1.388 . S
C1680 C1679 1.366 . S
C1680 C1684 1.385 . S
C1681 H1656 0.951 . S
C1681 C1679 1.388 . S
C1681 C1682 1.366 . S
C1682 C1681 1.366 . S
C1682 C1683 1.414 . S
C1682 C1685 1.499 . S
C1683 H1657 0.950 . S
C1683 C1682 1.414 . S
C1683 C1684 1.374 . S
C1684 H1658 0.950 . S
C1684 C1680 1.385 . S
C1684 C1683 1.374 . S
C1685 C1682 1.499 . S
C1685 C1686 1.373 . S
C1685 C1687 1.389 . S
C1686 H1659 0.950 . S
C1686 C1672 1.377 . S
C1686 C1685 1.373 . S
C1687 C1671 1.377 . S
C1687 C1685 1.389 . S
C1687 C1688 1.524 . S
C1688 C1687 1.524 . S
C1688 C1689 1.397 . S
C1688 C1693 1.363 . S
C1689 H1660 0.950 . S
C1689 C1688 1.397 . S
C1689 C1690 1.334 . S
C1690 H1661 0.950 . S
C1690 C1689 1.334 . S
C1690 C1691 1.287 . S
C1691 C1690 1.287 . S
C1691 C1692 1.524 . S
C1691 H1694 0.999 . S
C1692 H1662 0.950 . S
C1692 C1691 1.524 . S
C1692 C1693 1.415 . S
C1693 H1663 0.950 . S
C1693 C1688 1.363 . S
C1693 C1692 1.415 . S
H1694 C1691 0.999 . S
H1695 C1676 0.913 1_545 S
H1696 C1714 0.951 . S
H1697 C1716 0.951 . S
H1698 C1718 0.950 . S
H1699 C1719 0.950 . S
H1700 C1721 0.950 . S
H1701 C1724 0.950 . S
H1702 C1725 0.950 . S
H1703 C1727 0.950 . S
H1704 C1728 0.950 . S
H1705 C1729 0.951 . S
H1706 C1731 0.951 . S
H1707 C1733 0.950 . S
H1708 C1734 0.950 . S
H1709 C1736 0.950 . S
H1710 C1739 0.950 . S
H1711 C1740 0.950 . S
H1712 C1742 0.950 . S
H1713 C1743 0.950 . S
C1714 H1696 0.951 . S
C1714 C1715 1.366 . S
C1714 C1716 1.388 . S
C1715 C1714 1.366 . S
C1715 C1719 1.385 . S
C1716 H1697 0.951 . S
C1716 C1714 1.388 . S
C1716 C1717 1.366 . S
C1717 C1716 1.366 . S
C1717 C1718 1.414 . S
C1717 C1720 1.499 . S
C1718 H1698 0.950 . S
C1718 C1717 1.414 . S
C1718 C1719 1.374 . S
C1719 H1699 0.950 . S
C1719 C1715 1.385 . S
C1719 C1718 1.374 . S
C1720 C1717 1.499 . S
C1720 C1721 1.373 . S
C1720 C1722 1.389 . S
C1721 H1700 0.950 . S
C1721 C1720 1.373 . S
C1721 C1737 1.377 . S
C1722 C1720 1.389 . S
C1722 C1723 1.524 . S
C1722 C1736 1.377 . S
C1723 C1722 1.524 . S
C1723 C1724 1.397 . S
C1723 C1728 1.363 . S
C1724 H1701 0.950 . S
C1724 C1723 1.397 . S
C1724 C1725 1.334 . S
C1725 H1702 0.950 . S
C1725 C1724 1.334 . S
C1725 C1726 1.287 . S
C1726 C1725 1.287 . S
C1726 C1727 1.524 . S
C1726 H1745 0.913 . S
C1727 H1703 0.950 . S
C1727 C1726 1.524 . S
C1727 C1728 1.415 . S
C1728 H1704 0.950 . S
C1728 C1723 1.363 . S
C1728 C1727 1.415 . S
C1729 H1705 0.951 . S
C1729 C1730 1.366 . S
C1729 C1731 1.388 . S
C1730 C1729 1.366 . S
C1730 C1734 1.385 . S
C1731 H1706 0.951 . S
C1731 C1729 1.388 . S
C1731 C1732 1.366 . S
C1732 C1731 1.366 . S
C1732 C1733 1.414 . S
C1732 C1735 1.499 . S
C1733 H1707 0.950 . S
C1733 C1732 1.414 . S
C1733 C1734 1.374 . S
C1734 H1708 0.950 . S
C1734 C1730 1.385 . S
C1734 C1733 1.374 . S
C1735 C1732 1.499 . S
C1735 C1736 1.373 . S
C1735 C1737 1.389 . S
C1736 H1709 0.950 . S
C1736 C1722 1.377 . S
C1736 C1735 1.373 . S
C1737 C1721 1.377 . S
C1737 C1735 1.389 . S
C1737 C1738 1.524 . S
C1738 C1737 1.524 . S
C1738 C1739 1.397 . S
C1738 C1743 1.363 . S
C1739 H1710 0.950 . S
C1739 C1738 1.397 . S
C1739 C1740 1.334 . S
C1740 H1711 0.950 . S
C1740 C1739 1.334 . S
C1740 C1741 1.287 . S
C1741 C1740 1.287 . S
C1741 C1742 1.524 . S
C1741 H1744 0.999 . S
C1742 H1712 0.950 . S
C1742 C1741 1.524 . S
C1742 C1743 1.415 . S
C1743 H1713 0.950 . S
C1743 C1738 1.363 . S
C1743 C1742 1.415 . S
H1744 C1741 0.999 . S
H1745 C1726 0.913 . S
H1746 C1764 0.951 . S
H1747 C1766 0.951 . S
H1748 C1768 0.950 . S
H1749 C1769 0.950 . S
H1750 C1771 0.950 . S
H1751 C1774 0.950 . S
H1752 C1775 0.950 . S
H1753 C1777 0.950 . S
H1754 C1778 0.950 . S
H1755 C1779 0.951 . S
H1756 C1781 0.951 . S
H1757 C1783 0.950 . S
H1758 C1784 0.950 . S
H1759 C1786 0.950 . S
H1760 C1789 0.950 . S
H1761 C1790 0.950 . S
H1762 C1792 0.950 . S
H1763 C1793 0.950 . S
C1764 H1746 0.951 . S
C1764 C1765 1.366 . S
C1764 C1766 1.388 . S
C1765 C1764 1.366 . S
C1765 C1769 1.385 . S
C1766 H1747 0.951 . S
C1766 C1764 1.388 . S
C1766 C1767 1.366 . S
C1767 C1766 1.366 . S
C1767 C1768 1.414 . S
C1767 C1770 1.499 . S
C1768 H1748 0.950 . S
C1768 C1767 1.414 . S
C1768 C1769 1.374 . S
C1769 H1749 0.950 . S
C1769 C1765 1.385 . S
C1769 C1768 1.374 . S
C1770 C1767 1.499 . S
C1770 C1771 1.373 . S
C1770 C1772 1.389 . S
C1771 H1750 0.950 . S
C1771 C1770 1.373 . S
C1771 C1787 1.377 . S
C1772 C1770 1.389 . S
C1772 C1773 1.524 . S
C1772 C1786 1.377 . S
C1773 C1772 1.524 . S
C1773 C1774 1.397 . S
C1773 C1778 1.363 . S
C1774 H1751 0.950 . S
C1774 C1773 1.397 . S
C1774 C1775 1.334 . S
C1775 H1752 0.950 . S
C1775 C1774 1.334 . S
C1775 C1776 1.287 . S
C1776 C1775 1.287 . S
C1776 C1777 1.524 . S
C1776 H1795 0.913 . S
C1777 H1753 0.950 . S
C1777 C1776 1.524 . S
C1777 C1778 1.415 . S
C1778 H1754 0.950 . S
C1778 C1773 1.363 . S
C1778 C1777 1.415 . S
C1779 H1755 0.951 . S
C1779 C1780 1.366 . S
C1779 C1781 1.388 . S
C1780 C1779 1.366 . S
C1780 C1784 1.385 . S
C1781 H1756 0.951 . S
C1781 C1779 1.388 . S
C1781 C1782 1.366 . S
C1782 C1781 1.366 . S
C1782 C1783 1.414 . S
C1782 C1785 1.499 . S
C1783 H1757 0.950 . S
C1783 C1782 1.414 . S
C1783 C1784 1.374 . S
C1784 H1758 0.950 . S
C1784 C1780 1.385 . S
C1784 C1783 1.374 . S
C1785 C1782 1.499 . S
C1785 C1786 1.373 . S
C1785 C1787 1.389 . S
C1786 H1759 0.950 . S
C1786 C1772 1.377 . S
C1786 C1785 1.373 . S
C1787 C1771 1.377 . S
C1787 C1785 1.389 . S
C1787 C1788 1.524 . S
C1788 C1787 1.524 . S
C1788 C1789 1.397 . S
C1788 C1793 1.363 . S
C1789 H1760 0.950 . S
C1789 C1788 1.397 . S
C1789 C1790 1.334 . S
C1790 H1761 0.950 . S
C1790 C1789 1.334 . S
C1790 C1791 1.287 . S
C1791 C1790 1.287 . S
C1791 C1792 1.524 . S
C1791 H1794 0.999 . S
C1792 H1762 0.950 . S
C1792 C1791 1.524 . S
C1792 C1793 1.415 . S
C1793 H1763 0.950 . S
C1793 C1788 1.363 . S
C1793 C1792 1.415 . S
H1794 C1791 0.999 . S
H1795 C1776 0.913 . S
H1796 C1814 0.951 . S
H1797 C1816 0.951 . S
H1798 C1818 0.950 . S
H1799 C1819 0.950 . S
H1800 C1821 0.950 . S
H1801 C1824 0.950 . S
H1802 C1825 0.950 . S
H1803 C1827 0.950 . S
H1804 C1828 0.950 . S
H1805 C1829 0.951 . S
H1806 C1831 0.951 . S
H1807 C1833 0.950 . S
H1808 C1834 0.950 . S
H1809 C1836 0.950 . S
H1810 C1839 0.950 . S
H1811 C1840 0.950 . S
H1812 C1842 0.950 . S
H1813 C1843 0.950 . S
C1814 H1796 0.951 . S
C1814 C1815 1.366 . S
C1814 C1816 1.388 . S
C1815 C1814 1.366 . S
C1815 C1819 1.385 . S
C1816 H1797 0.951 . S
C1816 C1814 1.388 . S
C1816 C1817 1.366 . S
C1817 C1816 1.366 . S
C1817 C1818 1.414 . S
C1817 C1820 1.499 . S
C1818 H1798 0.950 . S
C1818 C1817 1.414 . S
C1818 C1819 1.374 . S
C1819 H1799 0.950 . S
C1819 C1815 1.385 . S
C1819 C1818 1.374 . S
C1820 C1817 1.499 . S
C1820 C1821 1.373 . S
C1820 C1822 1.389 . S
C1821 H1800 0.950 . S
C1821 C1820 1.373 . S
C1821 C1837 1.377 . S
C1822 C1820 1.389 . S
C1822 C1823 1.524 . S
C1822 C1836 1.377 . S
C1823 C1822 1.524 . S
C1823 C1824 1.397 . S
C1823 C1828 1.363 . S
C1824 H1801 0.950 . S
C1824 C1823 1.397 . S
C1824 C1825 1.334 . S
C1825 H1802 0.950 . S
C1825 C1824 1.334 . S
C1825 C1826 1.287 . S
C1826 C1825 1.287 . S
C1826 C1827 1.524 . S
C1826 H1845 0.913 . S
C1827 H1803 0.950 . S
C1827 C1826 1.524 . S
C1827 C1828 1.415 . S
C1828 H1804 0.950 . S
C1828 C1823 1.363 . S
C1828 C1827 1.415 . S
C1829 H1805 0.951 . S
C1829 C1830 1.366 . S
C1829 C1831 1.388 . S
C1830 C1829 1.366 . S
C1830 C1834 1.385 . S
C1831 H1806 0.951 . S
C1831 C1829 1.388 . S
C1831 C1832 1.366 . S
C1832 C1831 1.366 . S
C1832 C1833 1.414 . S
C1832 C1835 1.499 . S
C1833 H1807 0.950 . S
C1833 C1832 1.414 . S
C1833 C1834 1.374 . S
C1834 H1808 0.950 . S
C1834 C1830 1.385 . S
C1834 C1833 1.374 . S
C1835 C1832 1.499 . S
C1835 C1836 1.373 . S
C1835 C1837 1.389 . S
C1836 H1809 0.950 . S
C1836 C1822 1.377 . S
C1836 C1835 1.373 . S
C1837 C1821 1.377 . S
C1837 C1835 1.389 . S
C1837 C1838 1.524 . S
C1838 C1837 1.524 . S
C1838 C1839 1.397 . S
C1838 C1843 1.363 . S
C1839 H1810 0.950 . S
C1839 C1838 1.397 . S
C1839 C1840 1.334 . S
C1840 H1811 0.950 . S
C1840 C1839 1.334 . S
C1840 C1841 1.287 . S
C1841 C1840 1.287 . S
C1841 C1842 1.524 . S
C1841 H1844 0.999 . S
C1842 H1812 0.950 . S
C1842 C1841 1.524 . S
C1842 C1843 1.415 . S
C1843 H1813 0.950 . S
C1843 C1838 1.363 . S
C1843 C1842 1.415 . S
H1844 C1841 0.999 . S
H1845 C1826 0.913 . S
H1846 C1864 0.951 . S
H1847 C1866 0.951 . S
H1848 C1868 0.950 . S
H1849 C1869 0.950 . S
H1850 C1871 0.950 . S
H1851 C1874 0.950 . S
H1852 C1875 0.950 . S
H1853 C1877 0.950 . S
H1854 C1878 0.950 . S
H1855 C1879 0.951 . S
H1856 C1881 0.951 . S
H1857 C1883 0.950 . S
H1858 C1884 0.950 . S
H1859 C1886 0.950 . S
H1860 C1889 0.950 . S
H1861 C1890 0.950 . S
H1862 C1892 0.950 . S
H1863 C1893 0.950 . S
C1864 H1846 0.951 . S
C1864 C1865 1.366 . S
C1864 C1866 1.388 . S
C1865 C1864 1.366 . S
C1865 C1869 1.385 . S
C1866 H1847 0.951 . S
C1866 C1864 1.388 . S
C1866 C1867 1.366 . S
C1867 C1866 1.366 . S
C1867 C1868 1.414 . S
C1867 C1870 1.499 . S
C1868 H1848 0.950 . S
C1868 C1867 1.414 . S
C1868 C1869 1.374 . S
C1869 H1849 0.950 . S
C1869 C1865 1.385 . S
C1869 C1868 1.374 . S
C1870 C1867 1.499 . S
C1870 C1871 1.373 . S
C1870 C1872 1.389 . S
C1871 H1850 0.950 . S
C1871 C1870 1.373 . S
C1871 C1887 1.377 . S
C1872 C1870 1.389 . S
C1872 C1873 1.524 . S
C1872 C1886 1.377 . S
C1873 C1872 1.524 . S
C1873 C1874 1.397 . S
C1873 C1878 1.363 . S
C1874 H1851 0.950 . S
C1874 C1873 1.397 . S
C1874 C1875 1.334 . S
C1875 H1852 0.950 . S
C1875 C1874 1.334 . S
C1875 C1876 1.287 . S
C1876 C1875 1.287 . S
C1876 C1877 1.524 . S
C1876 H1895 0.913 . S
C1877 H1853 0.950 . S
C1877 C1876 1.524 . S
C1877 C1878 1.415 . S
C1878 H1854 0.950 . S
C1878 C1873 1.363 . S
C1878 C1877 1.415 . S
C1879 H1855 0.951 . S
C1879 C1880 1.366 . S
C1879 C1881 1.388 . S
C1880 C1879 1.366 . S
C1880 C1884 1.385 . S
C1881 H1856 0.951 . S
C1881 C1879 1.388 . S
C1881 C1882 1.366 . S
C1882 C1881 1.366 . S
C1882 C1883 1.414 . S
C1882 C1885 1.499 . S
C1883 H1857 0.950 . S
C1883 C1882 1.414 . S
C1883 C1884 1.374 . S
C1884 H1858 0.950 . S
C1884 C1880 1.385 . S
C1884 C1883 1.374 . S
C1885 C1882 1.499 . S
C1885 C1886 1.373 . S
C1885 C1887 1.389 . S
C1886 H1859 0.950 . S
C1886 C1872 1.377 . S
C1886 C1885 1.373 . S
C1887 C1871 1.377 . S
C1887 C1885 1.389 . S
C1887 C1888 1.524 . S
C1888 C1887 1.524 . S
C1888 C1889 1.397 . S
C1888 C1893 1.363 . S
C1889 H1860 0.950 . S
C1889 C1888 1.397 . S
C1889 C1890 1.334 . S
C1890 H1861 0.950 . S
C1890 C1889 1.334 . S
C1890 C1891 1.287 . S
C1891 C1890 1.287 . S
C1891 C1892 1.524 . S
C1891 H1894 0.999 . S
C1892 H1862 0.950 . S
C1892 C1891 1.524 . S
C1892 C1893 1.415 . S
C1893 H1863 0.950 . S
C1893 C1888 1.363 . S
C1893 C1892 1.415 . S
H1894 C1891 0.999 . S
H1895 C1876 0.913 . S
H1896 C1914 0.951 . S
H1897 C1916 0.951 . S
H1898 C1918 0.950 . S
H1899 C1919 0.950 . S
H1900 C1921 0.950 . S
H1901 C1924 0.950 . S
H1902 C1925 0.950 . S
H1903 C1927 0.950 . S
H1904 C1928 0.950 . S
H1905 C1929 0.951 . S
H1906 C1931 0.951 . S
H1907 C1933 0.950 . S
H1908 C1934 0.950 . S
H1909 C1936 0.950 . S
H1910 C1939 0.950 . S
H1911 C1940 0.950 . S
H1912 C1942 0.950 . S
H1913 C1943 0.950 . S
C1914 H1896 0.951 . S
C1914 C1915 1.366 . S
C1914 C1916 1.388 . S
C1915 C1914 1.366 . S
C1915 C1919 1.385 . S
C1916 H1897 0.951 . S
C1916 C1914 1.388 . S
C1916 C1917 1.366 . S
C1917 C1916 1.366 . S
C1917 C1918 1.414 . S
C1917 C1920 1.499 . S
C1918 H1898 0.950 . S
C1918 C1917 1.414 . S
C1918 C1919 1.374 . S
C1919 H1899 0.950 . S
C1919 C1915 1.385 . S
C1919 C1918 1.374 . S
C1920 C1917 1.499 . S
C1920 C1921 1.373 . S
C1920 C1922 1.389 . S
C1921 H1900 0.950 . S
C1921 C1920 1.373 . S
C1921 C1937 1.377 . S
C1922 C1920 1.389 . S
C1922 C1923 1.524 . S
C1922 C1936 1.377 . S
C1923 C1922 1.524 . S
C1923 C1924 1.397 . S
C1923 C1928 1.363 . S
C1924 H1901 0.950 . S
C1924 C1923 1.397 . S
C1924 C1925 1.334 . S
C1925 H1902 0.950 . S
C1925 C1924 1.334 . S
C1925 C1926 1.287 . S
C1926 C1925 1.287 . S
C1926 C1927 1.524 . S
C1926 H1945 0.913 . S
C1927 H1903 0.950 . S
C1927 C1926 1.524 . S
C1927 C1928 1.415 . S
C1928 H1904 0.950 . S
C1928 C1923 1.363 . S
C1928 C1927 1.415 . S
C1929 H1905 0.951 . S
C1929 C1930 1.366 . S
C1929 C1931 1.388 . S
C1930 C1929 1.366 . S
C1930 C1934 1.385 . S
C1931 H1906 0.951 . S
C1931 C1929 1.388 . S
C1931 C1932 1.366 . S
C1932 C1931 1.366 . S
C1932 C1933 1.414 . S
C1932 C1935 1.499 . S
C1933 H1907 0.950 . S
C1933 C1932 1.414 . S
C1933 C1934 1.374 . S
C1934 H1908 0.950 . S
C1934 C1930 1.385 . S
C1934 C1933 1.374 . S
C1935 C1932 1.499 . S
C1935 C1936 1.373 . S
C1935 C1937 1.389 . S
C1936 H1909 0.950 . S
C1936 C1922 1.377 . S
C1936 C1935 1.373 . S
C1937 C1921 1.377 . S
C1937 C1935 1.389 . S
C1937 C1938 1.524 . S
C1938 C1937 1.524 . S
C1938 C1939 1.397 . S
C1938 C1943 1.363 . S
C1939 H1910 0.950 . S
C1939 C1938 1.397 . S
C1939 C1940 1.334 . S
C1940 H1911 0.950 . S
C1940 C1939 1.334 . S
C1940 C1941 1.287 . S
C1941 C1940 1.287 . S
C1941 C1942 1.524 . S
C1941 H1944 0.999 . S
C1942 H1912 0.950 . S
C1942 C1941 1.524 . S
C1942 C1943 1.415 . S
C1943 H1913 0.950 . S
C1943 C1938 1.363 . S
C1943 C1942 1.415 . S
H1944 C1941 0.999 . S
H1945 C1926 0.913 . S
H1946 C1964 0.951 . S
H1947 C1966 0.951 . S
H1948 C1968 0.950 . S
H1949 C1969 0.950 . S
H1950 C1971 0.950 . S
H1951 C1974 0.950 . S
H1952 C1975 0.950 . S
H1953 C1977 0.950 . S
H1954 C1978 0.950 . S
H1955 C1979 0.951 . S
H1956 C1981 0.951 . S
H1957 C1983 0.950 . S
H1958 C1984 0.950 . S
H1959 C1986 0.950 . S
H1960 C1989 0.950 . S
H1961 C1990 0.950 . S
H1962 C1992 0.950 . S
H1963 C1993 0.950 . S
C1964 H1946 0.951 . S
C1964 C1965 1.366 . S
C1964 C1966 1.388 . S
C1965 C1964 1.366 . S
C1965 C1969 1.385 . S
C1966 H1947 0.951 . S
C1966 C1964 1.388 . S
C1966 C1967 1.366 . S
C1967 C1966 1.366 . S
C1967 C1968 1.414 . S
C1967 C1970 1.499 . S
C1968 H1948 0.950 . S
C1968 C1967 1.414 . S
C1968 C1969 1.374 . S
C1969 H1949 0.950 . S
C1969 C1965 1.385 . S
C1969 C1968 1.374 . S
C1970 C1967 1.499 . S
C1970 C1971 1.373 . S
C1970 C1972 1.389 . S
C1971 H1950 0.950 . S
C1971 C1970 1.373 . S
C1971 C1987 1.377 . S
C1972 C1970 1.389 . S
C1972 C1973 1.524 . S
C1972 C1986 1.377 . S
C1973 C1972 1.524 . S
C1973 C1974 1.397 . S
C1973 C1978 1.363 . S
C1974 H1951 0.950 . S
C1974 C1973 1.397 . S
C1974 C1975 1.334 . S
C1975 H1952 0.950 . S
C1975 C1974 1.334 . S
C1975 C1976 1.287 . S
C1976 C1975 1.287 . S
C1976 C1977 1.524 . S
C1976 H1995 0.913 . S
C1977 H1953 0.950 . S
C1977 C1976 1.524 . S
C1977 C1978 1.415 . S
C1978 H1954 0.950 . S
C1978 C1973 1.363 . S
C1978 C1977 1.415 . S
C1979 H1955 0.951 . S
C1979 C1980 1.366 . S
C1979 C1981 1.388 . S
C1980 C1979 1.366 . S
C1980 C1984 1.385 . S
C1981 H1956 0.951 . S
C1981 C1979 1.388 . S
C1981 C1982 1.366 . S
C1982 C1981 1.366 . S
C1982 C1983 1.414 . S
C1982 C1985 1.499 . S
C1983 H1957 0.950 . S
C1983 C1982 1.414 . S
C1983 C1984 1.374 . S
C1984 H1958 0.950 . S
C1984 C1980 1.385 . S
C1984 C1983 1.374 . S
C1985 C1982 1.499 . S
C1985 C1986 1.373 . S
C1985 C1987 1.389 . S
C1986 H1959 0.950 . S
C1986 C1972 1.377 . S
C1986 C1985 1.373 . S
C1987 C1971 1.377 . S
C1987 C1985 1.389 . S
C1987 C1988 1.524 . S
C1988 C1987 1.524 . S
C1988 C1989 1.397 . S
C1988 C1993 1.363 . S
C1989 H1960 0.950 . S
C1989 C1988 1.397 . S
C1989 C1990 1.334 . S
C1990 H1961 0.950 . S
C1990 C1989 1.334 . S
C1990 C1991 1.287 . S
C1991 C1990 1.287 . S
C1991 C1992 1.524 . S
C1991 H1994 0.999 . S
C1992 H1962 0.950 . S
C1992 C1991 1.524 . S
C1992 C1993 1.415 . S
C1993 H1963 0.950 . S
C1993 C1988 1.363 . S
C1993 C1992 1.415 . S
H1994 C1991 0.999 . S
H1995 C1976 0.913 . S
H1996 C2014 0.951 . S
H1997 C2016 0.951 . S
H1998 C2018 0.950 . S
H1999 C2019 0.950 . S
H2000 C2021 0.950 . S
H2001 C2024 0.950 . S
H2002 C2025 0.950 . S
H2003 C2027 0.950 . S
H2004 C2028 0.950 . S
H2005 C2029 0.951 . S
H2006 C2031 0.951 . S
H2007 C2033 0.950 . S
H2008 C2034 0.950 . S
H2009 C2036 0.950 . S
H2010 C2039 0.950 . S
H2011 C2040 0.950 . S
H2012 C2042 0.950 . S
H2013 C2043 0.950 . S
C2014 H1996 0.951 . S
C2014 C2015 1.366 . S
C2014 C2016 1.388 . S
C2015 C2014 1.366 . S
C2015 C2019 1.385 . S
C2016 H1997 0.951 . S
C2016 C2014 1.388 . S
C2016 C2017 1.366 . S
C2017 C2016 1.366 . S
C2017 C2018 1.414 . S
C2017 C2020 1.499 . S
C2018 H1998 0.950 . S
C2018 C2017 1.414 . S
C2018 C2019 1.374 . S
C2019 H1999 0.950 . S
C2019 C2015 1.385 . S
C2019 C2018 1.374 . S
C2020 C2017 1.499 . S
C2020 C2021 1.373 . S
C2020 C2022 1.389 . S
C2021 H2000 0.950 . S
C2021 C2020 1.373 . S
C2021 C2037 1.377 . S
C2022 C2020 1.389 . S
C2022 C2023 1.524 . S
C2022 C2036 1.377 . S
C2023 C2022 1.524 . S
C2023 C2024 1.397 . S
C2023 C2028 1.363 . S
C2024 H2001 0.950 . S
C2024 C2023 1.397 . S
C2024 C2025 1.334 . S
C2025 H2002 0.950 . S
C2025 C2024 1.334 . S
C2025 C2026 1.287 . S
C2026 C2025 1.287 . S
C2026 C2027 1.524 . S
C2026 H2045 0.913 . S
C2027 H2003 0.950 . S
C2027 C2026 1.524 . S
C2027 C2028 1.415 . S
C2028 H2004 0.950 . S
C2028 C2023 1.363 . S
C2028 C2027 1.415 . S
C2029 H2005 0.951 . S
C2029 C2030 1.366 . S
C2029 C2031 1.388 . S
C2030 C2029 1.366 . S
C2030 C2034 1.385 . S
C2031 H2006 0.951 . S
C2031 C2029 1.388 . S
C2031 C2032 1.366 . S
C2032 C2031 1.366 . S
C2032 C2033 1.414 . S
C2032 C2035 1.499 . S
C2033 H2007 0.950 . S
C2033 C2032 1.414 . S
C2033 C2034 1.374 . S
C2034 H2008 0.950 . S
C2034 C2030 1.385 . S
C2034 C2033 1.374 . S
C2035 C2032 1.499 . S
C2035 C2036 1.373 . S
C2035 C2037 1.389 . S
C2036 H2009 0.950 . S
C2036 C2022 1.377 . S
C2036 C2035 1.373 . S
C2037 C2021 1.377 . S
C2037 C2035 1.389 . S
C2037 C2038 1.524 . S
C2038 C2037 1.524 . S
C2038 C2039 1.397 . S
C2038 C2043 1.363 . S
C2039 H2010 0.950 . S
C2039 C2038 1.397 . S
C2039 C2040 1.334 . S
C2040 H2011 0.950 . S
C2040 C2039 1.334 . S
C2040 C2041 1.287 . S
C2041 C2040 1.287 . S
C2041 C2042 1.524 . S
C2041 H2044 0.999 . S
C2042 H2012 0.950 . S
C2042 C2041 1.524 . S
C2042 C2043 1.415 . S
C2043 H2013 0.950 . S
C2043 C2038 1.363 . S
C2043 C2042 1.415 . S
H2044 C2041 0.999 . S
H2045 C2026 0.913 . S
H2046 C2064 0.951 . S
H2047 C2066 0.951 . S
H2048 C2068 0.950 . S
H2049 C2069 0.950 . S
H2050 C2071 0.950 . S
H2051 C2074 0.950 . S
H2052 C2075 0.950 . S
H2053 C2077 0.950 . S
H2054 C2078 0.950 . S
H2055 C2079 0.951 . S
H2056 C2081 0.951 . S
H2057 C2083 0.950 . S
H2058 C2084 0.950 . S
H2059 C2086 0.950 . S
H2060 C2089 0.950 . S
H2061 C2090 0.950 . S
H2062 C2092 0.950 . S
H2063 C2093 0.950 . S
C2064 H2046 0.951 . S
C2064 C2065 1.366 . S
C2064 C2066 1.388 . S
C2065 C2064 1.366 . S
C2065 C2069 1.385 . S
C2066 H2047 0.951 . S
C2066 C2064 1.388 . S
C2066 C2067 1.366 . S
C2067 C2066 1.366 . S
C2067 C2068 1.414 . S
C2067 C2070 1.499 . S
C2068 H2048 0.950 . S
C2068 C2067 1.414 . S
C2068 C2069 1.374 . S
C2069 H2049 0.950 . S
C2069 C2065 1.385 . S
C2069 C2068 1.374 . S
C2070 C2067 1.499 . S
C2070 C2071 1.373 . S
C2070 C2072 1.389 . S
C2071 H2050 0.950 . S
C2071 C2070 1.373 . S
C2071 C2087 1.377 . S
C2072 C2070 1.389 . S
C2072 C2073 1.524 . S
C2072 C2086 1.377 . S
C2073 C2072 1.524 . S
C2073 C2074 1.397 . S
C2073 C2078 1.363 . S
C2074 H2051 0.950 . S
C2074 C2073 1.397 . S
C2074 C2075 1.334 . S
C2075 H2052 0.950 . S
C2075 C2074 1.334 . S
C2075 C2076 1.287 . S
C2076 C2075 1.287 . S
C2076 C2077 1.524 . S
C2076 H2095 0.913 . S
C2077 H2053 0.950 . S
C2077 C2076 1.524 . S
C2077 C2078 1.415 . S
C2078 H2054 0.950 . S
C2078 C2073 1.363 . S
C2078 C2077 1.415 . S
C2079 H2055 0.951 . S
C2079 C2080 1.366 . S
C2079 C2081 1.388 . S
C2080 C2079 1.366 . S
C2080 C2084 1.385 . S
C2081 H2056 0.951 . S
C2081 C2079 1.388 . S
C2081 C2082 1.366 . S
C2082 C2081 1.366 . S
C2082 C2083 1.414 . S
C2082 C2085 1.499 . S
C2083 H2057 0.950 . S
C2083 C2082 1.414 . S
C2083 C2084 1.374 . S
C2084 H2058 0.950 . S
C2084 C2080 1.385 . S
C2084 C2083 1.374 . S
C2085 C2082 1.499 . S
C2085 C2086 1.373 . S
C2085 C2087 1.389 . S
C2086 H2059 0.950 . S
C2086 C2072 1.377 . S
C2086 C2085 1.373 . S
C2087 C2071 1.377 . S
C2087 C2085 1.389 . S
C2087 C2088 1.524 . S
C2088 C2087 1.524 . S
C2088 C2089 1.397 . S
C2088 C2093 1.363 . S
C2089 H2060 0.950 . S
C2089 C2088 1.397 . S
C2089 C2090 1.334 . S
C2090 H2061 0.950 . S
C2090 C2089 1.334 . S
C2090 C2091 1.287 . S
C2091 C2090 1.287 . S
C2091 C2092 1.524 . S
C2091 H2094 0.999 . S
C2092 H2062 0.950 . S
C2092 C2091 1.524 . S
C2092 C2093 1.415 . S
C2093 H2063 0.950 . S
C2093 C2088 1.363 . S
C2093 C2092 1.415 . S
H2094 C2091 0.999 . S
H2095 C2076 0.913 . S
C530 C406 1.242 . S
C515 C36 1.216 . S
C580 C420 1.248 . S
C565 C93 1.234 . S
C630 C435 1.231 . S
C615 C126 1.239 . S
C665 C165 1.210 . S
C680 C393 1.211 . S
C715 C222 1.198 . S
C730 C392 1.223 . S
C765 C261 1.200 . S
C780 C407 1.200 . S
C830 C421 1.253 . S
C815 C318 1.255 . S
C880 C434 1.258 . S
C865 C381 1.245 . S
C915 C132 1.199 . S
C930 C462 1.225 . S
C980 C476 1.273 . S
C965 C189 1.253 . S
C1015 C30 1.209 . S
C1030 C491 1.205 . S
C1080 C448 1.204 . S
C1065 C69 1.177 . S
C1115 C324 1.227 . S
C1130 C449 1.223 . S
C1165 C357 1.229 . S
C1180 C463 1.227 . S
C1230 C477 1.231 . S
C1215 C228 1.239 . S
C1265 C285 1.258 . S
C1280 C490 1.273 . S
C1330 C415 1.738 . S
C1315 C45 1.731 . S
C1380 C433 1.690 . S
C1365 C84 1.735 . S
C1415 C117 1.728 . S
C1430 C391 1.693 . S
C1465 C174 1.717 . S
C1480 C401 1.750 . S
C1515 C213 1.724 . S
C1530 C429 1.728 . S
C1580 C387 1.735 . S
C1565 C270 1.705 . S
C1630 C405 1.682 . S
C1615 C309 1.721 . S
C1680 C419 1.684 . S
C1665 C372 1.732 . S
C1730 C471 1.728 . S
C1715 C141 1.728 . S
C1780 C489 1.677 . S
C1765 C180 1.725 . S
C1815 C21 1.721 . S
C1830 C443 1.727 . S
C1880 C457 1.725 . S
C1865 C78 1.697 . S
C1930 C485 1.749 . S
C1915 C333 1.742 . S
C1965 C366 1.712 . S
C1980 C447 1.700 . S
C2030 C461 1.693 . S
C2015 C237 1.732 . S
C2080 C475 1.692 . S
C2065 C276 1.733 . S
