# Generated by pormake.
# Topology nom, (4,4)-cn, num edge types: 1
# Building blocks:
#     Node 0, Type 0, BuildingBlock: MUDLON_clean_linker_0, # of connection points: 4
#     Node 1, Type 0, BuildingBlock: MUDLON_clean_linker_0, # of connection points: 4
#     Node 2, Type 0, BuildingBlock: MUDLON_clean_linker_0, # of connection points: 4
#     Node 3, Type 0, BuildingBlock: MUDLON_clean_linker_0, # of connection points: 4
#     Node 4, Type 0, BuildingBlock: MUDLON_clean_linker_0, # of connection points: 4
#     Node 5, Type 0, BuildingBlock: MUDLON_clean_linker_0, # of connection points: 4
#     Node 6, Type 1, BuildingBlock: AZAVOO_clean_sbu_0, # of connection points: 4
#     Node 7, Type 1, BuildingBlock: AZAVOO_clean_sbu_0, # of connection points: 4
#     Node 8, Type 1, BuildingBlock: AZAVOO_clean_sbu_0, # of connection points: 4
#     Node 9, Type 1, BuildingBlock: AZAVOO_clean_sbu_0, # of connection points: 4
#     Node 10, Type 1, BuildingBlock: AZAVOO_clean_sbu_0, # of connection points: 4
#     Node 11, Type 1, BuildingBlock: AZAVOO_clean_sbu_0, # of connection points: 4
#     Edge 12, Type (0, 1), BuildingBlock: OJICUG_clean_linker_0, # of connection points: 2
#     Edge 13, Type (0, 1), BuildingBlock: OJICUG_clean_linker_0, # of connection points: 2
#     Edge 14, Type (0, 1), BuildingBlock: OJICUG_clean_linker_0, # of connection points: 2
#     Edge 15, Type (0, 1), BuildingBlock: OJICUG_clean_linker_0, # of connection points: 2
#     Edge 16, Type (0, 1), BuildingBlock: OJICUG_clean_linker_0, # of connection points: 2
#     Edge 17, Type (0, 1), BuildingBlock: OJICUG_clean_linker_0, # of connection points: 2
#     Edge 18, Type (0, 1), BuildingBlock: OJICUG_clean_linker_0, # of connection points: 2
#     Edge 19, Type (0, 1), BuildingBlock: OJICUG_clean_linker_0, # of connection points: 2
#     Edge 20, Type (0, 1), BuildingBlock: OJICUG_clean_linker_0, # of connection points: 2
#     Edge 21, Type (0, 1), BuildingBlock: OJICUG_clean_linker_0, # of connection points: 2
#     Edge 22, Type (0, 1), BuildingBlock: OJICUG_clean_linker_0, # of connection points: 2
#     Edge 23, Type (0, 1), BuildingBlock: OJICUG_clean_linker_0, # of connection points: 2
#     Edge 24, Type (0, 1), BuildingBlock: OJICUG_clean_linker_0, # of connection points: 2
#     Edge 25, Type (0, 1), BuildingBlock: OJICUG_clean_linker_0, # of connection points: 2
#     Edge 26, Type (0, 1), BuildingBlock: OJICUG_clean_linker_0, # of connection points: 2
#     Edge 27, Type (0, 1), BuildingBlock: OJICUG_clean_linker_0, # of connection points: 2
#     Edge 28, Type (0, 1), BuildingBlock: OJICUG_clean_linker_0, # of connection points: 2
#     Edge 29, Type (0, 1), BuildingBlock: OJICUG_clean_linker_0, # of connection points: 2
#     Edge 30, Type (0, 1), BuildingBlock: OJICUG_clean_linker_0, # of connection points: 2
#     Edge 31, Type (0, 1), BuildingBlock: OJICUG_clean_linker_0, # of connection points: 2
#     Edge 32, Type (0, 1), BuildingBlock: OJICUG_clean_linker_0, # of connection points: 2
#     Edge 33, Type (0, 1), BuildingBlock: OJICUG_clean_linker_0, # of connection points: 2
#     Edge 34, Type (0, 1), BuildingBlock: OJICUG_clean_linker_0, # of connection points: 2
#     Edge 35, Type (0, 1), BuildingBlock: OJICUG_clean_linker_0, # of connection points: 2
# Relax obj value: 0.037
# Max RMSD: 0.158
# Mean RMSD: 0.121
data_MOF--net-nom--node1-AZAVOO_clean_sbu_0--node2-MUDLON_clean_linker_0--edge1-OJICUG_clean_linker_0
_symmetry_space_group_name_H-M    P1
_symmetry_Int_Tables_number       1
_symmetry_cell_setting            triclinic
loop_
_symmetry_equiv_pos_as_xyz
'x, y, z'
_cell_length_a     48.345803
_cell_length_b     49.327768
_cell_length_c     46.766083
_cell_angle_alpha  91.647257
_cell_angle_beta   90.935944
_cell_angle_gamma 120.3505
loop_
_atom_site_label
_atom_site_type_symbol
_atom_site_fract_x
_atom_site_fract_y
_atom_site_fract_z
_atom_type_partial_charge
H0 H 0.16238 0.53972 0.32788 0.0
N1 N 0.11152 0.53683 0.35131 0.0
H2 H 0.20209 0.58143 0.29896 0.0
H3 H 0.1089 0.58789 0.33304 0.0
H4 H 0.14843 0.62963 0.3043 0.0
H5 H 0.11906 0.58663 0.38507 0.0
H6 H 0.14403 0.60167 0.43307 0.0
H7 H 0.12703 0.50348 0.3844 0.0
H8 H 0.15266 0.51861 0.43228 0.0
H9 H 0.08027 0.48352 0.32039 0.0
H10 H 0.06691 0.55379 0.36435 0.0
H11 H 0.024 0.45561 0.30401 0.0
H12 H 0.01094 0.52682 0.34723 0.0
H13 H 0.84757 0.36081 0.25559 0.0
H14 H 0.82589 0.35323 0.20637 0.0
H15 H 0.86917 0.45376 0.20074 0.0
H16 H 0.89147 0.46118 0.24967 0.0
H17 H 0.86556 0.46153 0.29086 0.0
H18 H 0.81924 0.45845 0.31318 0.0
H19 H 0.79557 0.36843 0.34641 0.0
H20 H 0.84053 0.37061 0.32128 0.0
H21 H 0.93221 0.4279 0.25603 0.0
H22 H 0.98814 0.45961 0.27148 0.0
H23 H 0.96021 0.47987 0.35291 0.0
N24 N 0.8798 0.41446 0.28654 0.0
H25 H 0.9045 0.44936 0.33737 0.0
C26 C 0.13266 0.56051 0.33243 0.0
C27 C 0.15909 0.55914 0.32249 0.0
C28 C 0.1818 0.58306 0.30624 0.0
C29 C 0.17842 0.60885 0.29955 0.0
C30 C 0.1515 0.6099 0.30896 0.0
C31 C 0.12888 0.58602 0.32541 0.0
C32 C 0.12101 0.54371 0.3812 0.0
C33 C 0.12553 0.57122 0.39546 0.0
C34 C 0.14023 0.58003 0.42282 0.0
C35 C 0.15067 0.56153 0.43642 0.0
C36 C 0.14468 0.53328 0.42259 0.0
C37 C 0.13002 0.52454 0.39526 0.0
C38 C 0.07781 0.5206 0.34355 0.0
C39 C 0.0651 0.49289 0.32646 0.0
C40 C 0.03305 0.47722 0.31686 0.0
C41 C 0.01293 0.48914 0.32399 0.0
C42 C 0.02564 0.51684 0.34147 0.0
C43 C 0.05777 0.53241 0.35123 0.0
C44 C 0.87093 0.4114 0.2564 0.0
C45 C 0.85283 0.38118 0.24352 0.0
C46 C 0.84044 0.37693 0.21548 0.0
C47 C 0.84561 0.40291 0.19985 0.0
C48 C 0.86442 0.4333 0.21247 0.0
C49 C 0.8772 0.43756 0.2404 0.0
C50 C 0.8558 0.4157 0.3036 0.0
C51 C 0.85025 0.44102 0.30271 0.0
C52 C 0.82391 0.43943 0.3161 0.0
C53 C 0.80302 0.41289 0.3314 0.0
C54 C 0.81033 0.38878 0.3341 0.0
C55 C 0.83621 0.39006 0.32003 0.0
C56 C 0.91322 0.43696 0.29462 0.0
C57 C 0.93784 0.43997 0.27686 0.0
C58 C 0.97006 0.45776 0.28595 0.0
C59 C 0.97878 0.47237 0.31348 0.0
C60 C 0.95447 0.46954 0.33133 0.0
C61 C 0.92224 0.45193 0.32221 0.0
H62 H 0.49329 0.85504 0.46135 0.0
N63 N 0.48473 0.90136 0.44481 0.0
H64 H 0.45869 0.81162 0.49153 0.0
H65 H 0.43322 0.89543 0.47384 0.0
H66 H 0.39859 0.85222 0.50392 0.0
H67 H 0.4231 0.87504 0.42247 0.0
H68 H 0.40462 0.85143 0.37494 0.0
H69 H 0.52093 0.90792 0.40039 0.0
H70 H 0.50304 0.88726 0.35137 0.0
H71 H 0.54127 0.93823 0.47075 0.0
H72 H 0.45681 0.93745 0.43885 0.0
H73 H 0.56495 0.99335 0.48658 0.0
H74 H 0.4798 0.99252 0.45541 0.0
H75 H 0.64803 0.16328 0.53432 0.0
H76 H 0.65515 0.18576 0.58315 0.0
H77 H 0.55247 0.14369 0.58811 0.0
H78 H 0.54558 0.12089 0.53938 0.0
H79 H 0.54541 0.1431 0.49545 0.0
H80 H 0.54628 0.18248 0.4643 0.0
H81 H 0.64058 0.20561 0.43741 0.0
H82 H 0.63937 0.16603 0.46864 0.0
H83 H 0.58989 0.08285 0.53398 0.0
H84 H 0.56034 0.02687 0.52146 0.0
H85 H 0.52234 0.04461 0.44463 0.0
N86 N 0.59363 0.13001 0.50366 0.0
H87 H 0.55074 0.10016 0.45737 0.0
C88 C 0.46598 0.87845 0.46537 0.0
C89 C 0.47296 0.85478 0.47102 0.0
C90 C 0.45319 0.83006 0.48822 0.0
C91 C 0.42584 0.82847 0.4999 0.0
C92 C 0.41932 0.85269 0.49491 0.0
C93 C 0.43929 0.87756 0.47792 0.0
C94 C 0.47351 0.89248 0.41535 0.0
C95 C 0.44078 0.87774 0.40722 0.0
C96 C 0.4302 0.8645 0.37959 0.0
C97 C 0.45214 0.86668 0.359 0.0
C98 C 0.48514 0.88383 0.36669 0.0
C99 C 0.49558 0.89619 0.39462 0.0
C100 C 0.49747 0.93384 0.45366 0.0
C101 C 0.52781 0.95003 0.46737 0.0
C102 C 0.54111 0.98144 0.47663 0.0
C103 C 0.52418 0.99739 0.47254 0.0
C104 C 0.4936 0.98105 0.45874 0.0
C105 C 0.48034 0.94953 0.44937 0.0
C106 C 0.59643 0.14065 0.53322 0.0
C107 C 0.6271 0.15866 0.54613 0.0
C108 C 0.63108 0.1714 0.57398 0.0
C109 C 0.60437 0.16659 0.58938 0.0
C110 C 0.57351 0.14809 0.57659 0.0
C111 C 0.56953 0.13505 0.54879 0.0
C112 C 0.5925 0.15178 0.48438 0.0
C113 C 0.56629 0.15673 0.48295 0.0
C114 C 0.56684 0.17926 0.46514 0.0
C115 C 0.59353 0.19722 0.44843 0.0
C116 C 0.61949 0.19191 0.44972 0.0
C117 C 0.61893 0.16943 0.46757 0.0
C118 C 0.57226 0.09649 0.49744 0.0
C119 C 0.57447 0.0748 0.51485 0.0
C120 C 0.55786 0.04266 0.50743 0.0
C121 C 0.53902 0.03116 0.48194 0.0
C122 C 0.53618 0.05253 0.46467 0.0
C123 C 0.55267 0.08471 0.47215 0.0
H124 H 0.49866 0.66802 0.63618 0.0
N125 N 0.50606 0.61982 0.64818 0.0
H126 H 0.45285 0.66624 0.61162 0.0
H127 H 0.45875 0.56905 0.61574 0.0
H128 H 0.41385 0.56742 0.59028 0.0
H129 H 0.44816 0.5812 0.67195 0.0
H130 H 0.43341 0.58575 0.72027 0.0
H131 H 0.54518 0.65558 0.69152 0.0
H132 H 0.5313 0.6588 0.74108 0.0
H133 H 0.56086 0.63919 0.62205 0.0
H134 H 0.48224 0.55734 0.65757 0.0
H135 H 0.58617 0.60833 0.60921 0.0
H136 H 0.50713 0.52642 0.64456 0.0
H137 H 0.6526 0.52244 0.56115 0.0
H138 H 0.65417 0.50425 0.51225 0.0
H139 H 0.5616 0.42118 0.5223 0.0
H140 H 0.56065 0.43915 0.57118 0.0
H141 H 0.65454 0.48406 0.61933 0.0
H142 H 0.64943 0.44226 0.64977 0.0
H143 H 0.54784 0.40713 0.65479 0.0
H144 H 0.55294 0.44855 0.62435 0.0
H145 H 0.63535 0.549 0.62529 0.0
H146 H 0.61049 0.58057 0.63685 0.0
H147 H 0.52088 0.50751 0.59801 0.0
N148 N 0.60813 0.49258 0.59919 0.0
H149 H 0.54582 0.47643 0.58621 0.0
C150 C 0.48237 0.61886 0.62819 0.0
C151 C 0.48061 0.64618 0.62556 0.0
C152 C 0.45441 0.6451 0.61136 0.0
C153 C 0.42937 0.61655 0.59921 0.0
C154 C 0.43237 0.58966 0.59988 0.0
C155 C 0.45842 0.59069 0.61436 0.0
C156 C 0.49771 0.6188 0.67783 0.0
C157 C 0.46653 0.5982 0.68683 0.0
C158 C 0.45821 0.60055 0.71484 0.0
C159 C 0.48102 0.62296 0.73481 0.0
C160 C 0.5128 0.64188 0.72622 0.0
C161 C 0.52092 0.63994 0.69797 0.0
C162 C 0.51973 0.60065 0.64058 0.0
C163 C 0.54907 0.61457 0.62695 0.0
C164 C 0.56349 0.597 0.61977 0.0
C165 C 0.54852 0.56502 0.62586 0.0
C166 C 0.519 0.55097 0.63939 0.0
C167 C 0.50483 0.56866 0.64692 0.0
C168 C 0.60665 0.48232 0.56977 0.0
C169 C 0.63256 0.50049 0.55259 0.0
C170 C 0.63333 0.49009 0.52469 0.0
C171 C 0.60805 0.46118 0.51345 0.0
C172 C 0.58166 0.44332 0.53048 0.0
C173 C 0.58094 0.45375 0.55838 0.0
C174 C 0.60438 0.46976 0.61967 0.0
C175 C 0.63129 0.46758 0.62736 0.0
C176 C 0.62827 0.44362 0.6445 0.0
C177 C 0.59819 0.42142 0.65444 0.0
C178 C 0.57133 0.4241 0.64755 0.0
C179 C 0.5743 0.4479 0.63012 0.0
C180 C 0.59257 0.51039 0.60509 0.0
C181 C 0.61039 0.53994 0.61921 0.0
C182 C 0.59623 0.55791 0.62568 0.0
C183 C 0.56377 0.54637 0.61837 0.0
C184 C 0.54588 0.51678 0.60411 0.0
C185 C 0.56018 0.49902 0.59731 0.0
H186 H 0.16632 0.65308 0.82056 0.0
N187 N 0.11528 0.60562 0.79418 0.0
H188 H 0.21195 0.65213 0.8423 0.0
H189 H 0.11621 0.55215 0.8086 0.0
H190 H 0.16023 0.55067 0.83205 0.0
H191 H 0.1075 0.55804 0.75723 0.0
H192 H 0.12753 0.56385 0.70911 0.0
H193 H 0.14099 0.65723 0.76451 0.0
H194 H 0.16286 0.66377 0.71685 0.0
H195 H 0.08409 0.63449 0.80982 0.0
H196 H 0.07019 0.5422 0.7914 0.0
H197 H 0.02673 0.61112 0.81718 0.0
H198 H 0.0142 0.51861 0.80134 0.0
H199 H 0.8397 0.51432 0.86077 0.0
H200 H 0.8237 0.49999 0.90994 0.0
H201 H 0.89133 0.4675 0.91777 0.0
H202 H 0.90668 0.48131 0.86849 0.0
H203 H 0.86683 0.44329 0.83308 0.0
H204 H 0.82416 0.39796 0.80697 0.0
H205 H 0.8024 0.45912 0.75908 0.0
H206 H 0.84385 0.50445 0.78744 0.0
H207 H 0.92772 0.55843 0.85396 0.0
H208 H 0.98494 0.58279 0.84672 0.0
H209 H 0.96616 0.50989 0.78269 0.0
N210 N 0.88027 0.50433 0.83081 0.0
H211 H 0.90977 0.48439 0.79155 0.0
C212 C 0.13758 0.60288 0.813 0.0
C213 C 0.16457 0.63061 0.82374 0.0
C214 C 0.19064 0.62994 0.83628 0.0
C215 C 0.19009 0.60129 0.83866 0.0
C216 C 0.1619 0.57326 0.82998 0.0
C217 C 0.13616 0.57404 0.81688 0.0
C218 C 0.12264 0.6073 0.76441 0.0
C219 C 0.11853 0.58099 0.74828 0.0
C220 C 0.1304 0.58444 0.72079 0.0
C221 C 0.14718 0.61434 0.70914 0.0
C222 C 0.14973 0.64032 0.72486 0.0
C223 C 0.13746 0.63673 0.75219 0.0
C224 C 0.08188 0.59034 0.80078 0.0
C225 C 0.06883 0.60915 0.80814 0.0
C226 C 0.03603 0.59566 0.81248 0.0
C227 C 0.01556 0.56282 0.80998 0.0
C228 C 0.0289 0.54398 0.803 0.0
C229 C 0.06151 0.55758 0.79795 0.0
C230 C 0.87415 0.4988 0.86088 0.0
C231 C 0.85137 0.50457 0.87331 0.0
C232 C 0.84249 0.49658 0.90146 0.0
C233 C 0.85626 0.48257 0.91776 0.0
C234 C 0.88008 0.47798 0.90568 0.0
C235 C 0.88894 0.48596 0.87753 0.0
C236 C 0.85786 0.47734 0.8129 0.0
C237 C 0.85277 0.44704 0.81719 0.0
C238 C 0.82856 0.42099 0.80167 0.0
C239 C 0.80931 0.42456 0.78093 0.0
C240 C 0.81602 0.4552 0.77537 0.0
C241 C 0.83987 0.48123 0.79137 0.0
C242 C 0.91396 0.51894 0.8242 0.0
C243 C 0.93598 0.5475 0.83856 0.0
C244 C 0.96879 0.56164 0.83413 0.0
C245 C 0.98048 0.54819 0.81434 0.0
C246 C 0.95833 0.52044 0.79887 0.0
C247 C 0.9256 0.50583 0.80385 0.0
H248 H 0.51727 0.15068 0.00492 0.0
N249 N 0.51666 0.12362 0.95486 0.0
H250 H 0.56399 0.1908 0.03291 0.0
H251 H 0.5795 0.14194 0.94515 0.0
H252 H 0.6261 0.18354 0.97138 0.0
H253 H 0.5374 0.10093 0.91044 0.0
H254 H 0.5465 0.119 0.86207 0.0
H255 H 0.5014 0.16294 0.93152 0.0
H256 H 0.5112 0.18176 0.88276 0.0
H257 H 0.45732 0.09149 0.97254 0.0
H258 H 0.53939 0.08281 0.95368 0.0
H259 H 0.42703 0.03619 0.98328 0.0
H260 H 0.50832 0.0267 0.95996 0.0
H261 H 0.33449 0.85655 0.02054 0.0
H262 H 0.32762 0.83909 0.0697 0.0
H263 H 0.42852 0.90294 0.08846 0.0
H264 H 0.43547 0.91924 0.03971 0.0
H265 H 0.43236 0.87531 0.0043 0.0
H266 H 0.43629 0.83539 0.97546 0.0
H267 H 0.35783 0.82321 0.92036 0.0
H268 H 0.35439 0.86357 0.94917 0.0
H269 H 0.36752 0.93178 0.97849 0.0
H270 H 0.39873 0.98673 0.96667 0.0
H271 H 0.48608 0.98585 0.9872 0.0
N272 N 0.38893 0.89488 0.99585 0.0
H273 H 0.45461 0.93022 0.99472 0.0
C274 C 0.54477 0.14398 0.97257 0.0
C275 C 0.54106 0.15738 0.99794 0.0
C276 C 0.56784 0.18051 0.01373 0.0
C277 C 0.59901 0.19121 0.00409 0.0
C278 C 0.60265 0.17604 0.97967 0.0
C279 C 0.57583 0.15238 0.96428 0.0
C280 C 0.51864 0.13065 0.92495 0.0
C281 C 0.53079 0.11797 0.90474 0.0
C282 C 0.53621 0.12847 0.8769 0.0
C283 C 0.52975 0.1519 0.86864 0.0
C284 C 0.51607 0.16338 0.88836 0.0
C285 C 0.51064 0.15284 0.91625 0.0
C286 C 0.5001 0.09097 0.96146 0.0
C287 C 0.46847 0.07729 0.97009 0.0
C288 C 0.45106 0.04542 0.97574 0.0
C289 C 0.46457 0.02611 0.97185 0.0
C290 C 0.49674 0.0403 0.96358 0.0
C291 C 0.51455 0.07251 0.95925 0.0
C292 C 0.38533 0.88903 0.02603 0.0
C293 C 0.35495 0.86716 0.03546 0.0
C294 C 0.35106 0.85742 0.06361 0.0
C295 C 0.37762 0.86952 0.08291 0.0
C296 C 0.40769 0.89288 0.07397 0.0
C297 C 0.41161 0.90237 0.04582 0.0
C298 C 0.39293 0.87237 0.97882 0.0
C299 C 0.41615 0.86425 0.98592 0.0
C300 C 0.41824 0.84125 0.96952 0.0
C301 C 0.39733 0.8261 0.94566 0.0
C302 C 0.37454 0.8347 0.93839 0.0
C303 C 0.37242 0.8576 0.95485 0.0
C304 C 0.40855 0.92713 0.98832 0.0
C305 C 0.39345 0.9436 0.98005 0.0
C306 C 0.41152 0.97528 0.97375 0.0
C307 C 0.4453 0.99162 0.97663 0.0
C308 C 0.46033 0.97459 0.98433 0.0
C309 C 0.44221 0.94257 0.98929 0.0
H310 H 0.51514 0.37394 0.1426 0.0
N311 N 0.50981 0.4242 0.15205 0.0
H312 H 0.56123 0.37194 0.12499 0.0
H313 H 0.56291 0.47325 0.12814 0.0
H314 H 0.60817 0.47117 0.10899 0.0
H315 H 0.56267 0.46133 0.1866 0.0
H316 H 0.57056 0.45174 0.23568 0.0
H317 H 0.46426 0.38618 0.18652 0.0
H318 H 0.47101 0.37774 0.23683 0.0
H319 H 0.4572 0.40569 0.12008 0.0
H320 H 0.53581 0.48751 0.16299 0.0
H321 H 0.43296 0.43664 0.10655 0.0
H322 H 0.51301 0.51933 0.14808 0.0
H323 H 0.34807 0.5276 0.07087 0.0
H324 H 0.34423 0.54218 0.02183 0.0
H325 H 0.44759 0.5954 0.01971 0.0
H326 H 0.45124 0.58014 0.06839 0.0
H327 H 0.44796 0.60629 0.10955 0.0
H328 H 0.44667 0.64565 0.14064 0.0
H329 H 0.35912 0.57338 0.17645 0.0
H330 H 0.35929 0.5345 0.14294 0.0
H331 H 0.40463 0.50103 0.06892 0.0
H332 H 0.43496 0.47507 0.07788 0.0
H333 H 0.47083 0.52786 0.15856 0.0
N334 N 0.40098 0.54427 0.10242 0.0
H335 H 0.44254 0.55536 0.14882 0.0
C336 C 0.53515 0.4235 0.13663 0.0
C337 C 0.53518 0.39511 0.13479 0.0
C338 C 0.56163 0.39407 0.12467 0.0
C339 C 0.5887 0.42146 0.11563 0.0
C340 C 0.58812 0.44973 0.11632 0.0
C341 C 0.5618 0.45084 0.12693 0.0
C342 C 0.51306 0.42373 0.18268 0.0
C343 C 0.54243 0.44332 0.1975 0.0
C344 C 0.54675 0.43797 0.2259 0.0
C345 C 0.52158 0.41343 0.24034 0.0
C346 C 0.49126 0.39614 0.22623 0.0
C347 C 0.4872 0.40108 0.19757 0.0
C348 C 0.4983 0.44424 0.14222 0.0
C349 C 0.46956 0.43057 0.12595 0.0
C350 C 0.45591 0.44844 0.11809 0.0
C351 C 0.47103 0.48068 0.12607 0.0
C352 C 0.50039 0.49454 0.14187 0.0
C353 C 0.51372 0.47644 0.15015 0.0
C354 C 0.39979 0.55294 0.07334 0.0
C355 C 0.36983 0.5423 0.05972 0.0
C356 C 0.36771 0.55056 0.03178 0.0
C357 C 0.39563 0.57 0.01708 0.0
C358 C 0.42571 0.58069 0.03071 0.0
C359 C 0.42781 0.57205 0.05851 0.0
C360 C 0.40298 0.56754 0.12317 0.0
C361 C 0.42828 0.59892 0.1238 0.0
C362 C 0.42782 0.62143 0.14222 0.0
C363 C 0.40255 0.61302 0.16109 0.0
C364 C 0.3785 0.58109 0.16174 0.0
C365 C 0.37861 0.55872 0.14277 0.0
C366 C 0.42165 0.53122 0.10746 0.0
C367 C 0.41977 0.50784 0.08818 0.0
C368 C 0.43681 0.49253 0.09358 0.0
C369 C 0.45539 0.49921 0.11902 0.0
C370 C 0.4574 0.52252 0.13841 0.0
C371 C 0.44084 0.53832 0.13276 0.0
Mg372 Mg 0.60247 0.35414 0.35755 0.0
O373 O 0.60621 0.38625 0.39576 0.0
O374 O 0.62828 0.43526 0.38058 0.0
Mg375 Mg 0.63804 0.43458 0.33309 0.0
C376 C 0.61637 0.41553 0.40029 0.0
C377 C 0.60199 0.2954 0.37767 0.0
O378 O 0.6139 0.29886 0.35209 0.0
O379 O 0.65611 0.37341 0.36037 0.0
O380 O 0.67661 0.42158 0.34351 0.0
O381 O 0.55397 0.34578 0.3446 0.0
O382 O 0.59984 0.38487 0.33013 0.0
C383 C 0.67994 0.39942 0.35328 0.0
C384 C 0.56907 0.37112 0.33039 0.0
O385 O 0.59404 0.3149 0.38696 0.0
Mg386 Mg 0.28116 0.66297 0.58496 0.0
O387 O 0.2464 0.63246 0.54789 0.0
O388 O 0.21973 0.58313 0.56241 0.0
Mg389 Mg 0.23614 0.58223 0.60838 0.0
C390 C 0.22548 0.60335 0.5435 0.0
C391 C 0.33972 0.72014 0.56309 0.0
O392 O 0.35078 0.71248 0.58542 0.0
O393 O 0.31368 0.64303 0.57627 0.0
O394 O 0.28682 0.59541 0.59434 0.0
O395 O 0.2436 0.67142 0.6033 0.0
O396 O 0.25083 0.63213 0.61424 0.0
C397 C 0.31169 0.61722 0.58291 0.0
C398 C 0.23468 0.64616 0.6173 0.0
O399 O 0.31006 0.70352 0.55605 0.0
Mg400 Mg 0.61362 0.27744 0.7436 0.0
O401 O 0.61369 0.2464 0.70619 0.0
O402 O 0.63876 0.22167 0.72147 0.0
Mg403 Mg 0.65162 0.23458 0.76927 0.0
C404 C 0.62429 0.22767 0.70176 0.0
C405 C 0.59129 0.3222 0.72189 0.0
O406 O 0.58232 0.31977 0.74852 0.0
O407 O 0.66691 0.31146 0.74088 0.0
O408 O 0.68942 0.28589 0.75993 0.0
O409 O 0.56638 0.23896 0.75733 0.0
O410 O 0.61339 0.2466 0.77265 0.0
C411 C 0.69157 0.31052 0.74945 0.0
C412 C 0.58256 0.23021 0.77306 0.0
O413 O 0.60357 0.30624 0.71288 0.0
Mg414 Mg 0.39077 0.66252 0.86122 0.0
O415 O 0.39331 0.63477 0.89866 0.0
O416 O 0.37158 0.58475 0.8826 0.0
Mg417 Mg 0.36015 0.5817 0.83442 0.0
C418 C 0.38422 0.60598 0.90272 0.0
C419 C 0.39618 0.7247 0.87924 0.0
O420 O 0.39149 0.72273 0.85132 0.0
O421 O 0.3367 0.63887 0.86462 0.0
O422 O 0.31914 0.59147 0.84352 0.0
O423 O 0.43968 0.67508 0.84733 0.0
O424 O 0.39499 0.63227 0.83237 0.0
C425 C 0.31392 0.61221 0.85508 0.0
C426 C 0.42575 0.64912 0.83184 0.0
O427 O 0.39777 0.70272 0.89125 0.0
Mg428 Mg 0.73387 0.38702 0.04248 0.0
O429 O 0.76523 0.39052 0.08173 0.0
O430 O 0.79543 0.37075 0.06676 0.0
Mg431 Mg 0.78688 0.35898 0.01851 0.0
C432 C 0.78631 0.38264 0.08648 0.0
C433 C 0.7006 0.4177 0.07825 0.0
O434 O 0.72764 0.44398 0.07463 0.0
O435 O 0.70454 0.33403 0.04441 0.0
O436 O 0.73582 0.31745 0.0255 0.0
O437 O 0.76968 0.43537 0.02976 0.0
O438 O 0.76926 0.39221 0.01527 0.0
C439 C 0.70909 0.31195 0.03551 0.0
C440 C 0.78238 0.42229 0.01469 0.0
O441 O 0.69762 0.39174 0.06938 0.0
Mg442 Mg 0.34358 0.74601 0.20826 0.0
O443 O 0.37614 0.77919 0.24506 0.0
O444 O 0.42612 0.80552 0.22935 0.0
Mg445 Mg 0.42431 0.79292 0.18162 0.0
C446 C 0.40601 0.79899 0.24906 0.0
C447 C 0.27619 0.70572 0.23301 0.0
O448 O 0.26837 0.71385 0.20903 0.0
O449 O 0.36524 0.71455 0.21098 0.0
O450 O 0.41278 0.74282 0.19109 0.0
O451 O 0.33218 0.78219 0.19415 0.0
O452 O 0.37264 0.77747 0.17889 0.0
C453 C 0.39135 0.71752 0.20188 0.0
C454 C 0.35702 0.79224 0.17839 0.0
O455 O 0.30561 0.71618 0.23935 0.0
C456 C 0.23595 0.64684 0.29028 0.0
C457 C 0.20332 0.63481 0.28331 0.0
H458 H 0.2845 0.67889 0.28014 0.0
C459 C 0.19478 0.64741 0.26054 0.0
H460 H 0.24322 0.63791 0.30802 0.0
C461 C 0.21845 0.67096 0.24452 0.0
C462 C 0.2511 0.68248 0.25111 0.0
H463 H 0.1698 0.63849 0.25465 0.0
H464 H 0.21115 0.67975 0.2267 0.0
C465 C 0.25958 0.67047 0.27442 0.0
C466 C 0.58414 0.24208 0.44002 0.0
C467 C 0.59459 0.22172 0.42997 0.0
H468 H 0.57836 0.2814 0.43148 0.0
C469 C 0.60675 0.22538 0.40238 0.0
H470 H 0.57497 0.24008 0.4613 0.0
C471 C 0.6088 0.24908 0.38534 0.0
C472 C 0.59879 0.26973 0.39552 0.0
H473 H 0.61459 0.20981 0.39387 0.0
H474 H 0.61846 0.25131 0.36424 0.0
C475 C 0.58626 0.26587 0.42299 0.0
C476 C 0.36926 0.58806 0.59655 0.0
C477 C 0.39869 0.61411 0.58943 0.0
H478 H 0.31871 0.56831 0.59959 0.0
C479 C 0.39844 0.63917 0.57606 0.0
H480 H 0.36843 0.56843 0.60712 0.0
C481 C 0.36975 0.63928 0.57203 0.0
C482 C 0.34068 0.61426 0.58123 0.0
H483 H 0.42059 0.65933 0.56976 0.0
H484 H 0.37068 0.65971 0.56306 0.0
C485 C 0.34062 0.58808 0.5924 0.0
C486 C 0.75225 0.39677 0.76156 0.0
C487 C 0.78066 0.39629 0.76739 0.0
H488 H 0.70213 0.37024 0.75068 0.0
C489 C 0.78022 0.36769 0.76296 0.0
H490 H 0.75125 0.41804 0.76496 0.0
C491 C 0.75157 0.33989 0.75548 0.0
C492 C 0.72288 0.3402 0.75156 0.0
H493 H 0.80175 0.36644 0.76629 0.0
H494 H 0.75168 0.318 0.7538 0.0
C495 C 0.72383 0.36915 0.75346 0.0
C496 C 0.40222 0.77776 0.94229 0.0
C497 C 0.39873 0.80095 0.92865 0.0
H498 H 0.40407 0.7354 0.93744 0.0
C499 C 0.39558 0.79942 0.89864 0.0
H500 H 0.40437 0.77812 0.96541 0.0
C501 C 0.39529 0.77493 0.88265 0.0
C502 C 0.3981 0.75137 0.89629 0.0
H503 H 0.39331 0.81718 0.88748 0.0
H504 H 0.39251 0.77434 0.85957 0.0
C505 C 0.40187 0.75319 0.92628 0.0
C506 C 0.61438 0.39378 0.09159 0.0
C507 C 0.61762 0.42058 0.10628 0.0
H508 H 0.63787 0.37168 0.07177 0.0
C509 C 0.64872 0.44625 0.11236 0.0
H510 H 0.59094 0.37378 0.086 0.0
C511 C 0.67577 0.44526 0.10361 0.0
C512 C 0.67235 0.4184 0.08903 0.0
H513 H 0.6523 0.46705 0.12414 0.0
H514 H 0.69934 0.46548 0.10836 0.0
C515 C 0.64138 0.3926 0.08333 0.0
C516 C 0.4157 0.78947 0.53734 0.0
C517 C 0.40367 0.80108 0.51645 0.0
H518 H 0.40494 0.75491 0.56848 0.0
C519 C 0.37036 0.78587 0.51096 0.0
H520 H 0.44124 0.80084 0.54213 0.0
C521 C 0.34951 0.75941 0.52592 0.0
C522 C 0.36156 0.74785 0.54687 0.0
H523 H 0.36045 0.79411 0.49472 0.0
H524 H 0.32397 0.74811 0.52114 0.0
C525 C 0.39487 0.76322 0.55247 0.0
C526 C 0.5778 0.38699 0.6965 0.0
C527 C 0.59481 0.39494 0.67112 0.0
H528 H 0.56334 0.35766 0.7326 0.0
C529 C 0.60897 0.37762 0.66175 0.0
H530 H 0.56669 0.40004 0.70418 0.0
C531 C 0.60684 0.35327 0.67778 0.0
C532 C 0.59075 0.34593 0.70368 0.0
H533 H 0.6218 0.38297 0.64201 0.0
H534 H 0.61849 0.34073 0.67016 0.0
C535 C 0.57594 0.3628 0.71275 0.0
C536 C 0.22708 0.57985 0.83254 0.0
C537 C 0.21996 0.60107 0.84668 0.0
H538 H 0.26192 0.5664 0.82444 0.0
C539 C 0.24304 0.62386 0.86619 0.0
H540 H 0.21031 0.56228 0.81699 0.0
C541 C 0.27316 0.62665 0.86999 0.0
C542 C 0.28072 0.60644 0.85465 0.0
H543 H 0.23823 0.64018 0.87794 0.0
H544 H 0.29083 0.64526 0.88429 0.0
C545 C 0.25694 0.58235 0.83666 0.0
C546 C 0.65818 0.22457 0.01721 0.0
C547 C 0.62706 0.22024 0.01726 0.0
H548 H 0.70865 0.25692 0.02311 0.0
C549 C 0.62334 0.24535 0.02727 0.0
H550 H 0.66202 0.20561 0.01038 0.0
C551 C 0.64998 0.27447 0.03523 0.0
C552 C 0.68117 0.27951 0.03294 0.0
H553 H 0.59998 0.24333 0.02734 0.0
H554 H 0.64608 0.29357 0.04144 0.0
C555 C 0.68495 0.25395 0.02476 0.0
C556 C 0.36951 0.63444 0.18229 0.0
C557 C 0.39983 0.63786 0.17772 0.0
H558 H 0.34314 0.6568 0.19437 0.0
C559 C 0.42735 0.66661 0.18632 0.0
H560 H 0.34765 0.61297 0.1758 0.0
C561 C 0.42466 0.69216 0.19625 0.0
C562 C 0.39439 0.68926 0.19862 0.0
H563 H 0.45112 0.66993 0.18419 0.0
H564 H 0.44631 0.71459 0.20082 0.0
C565 C 0.36685 0.65974 0.19293 0.0
C566 C 0.74445 0.37921 0.34156 0.0
C567 C 0.77235 0.40916 0.34197 0.0
H568 H 0.69357 0.3527 0.34548 0.0
C569 C 0.76977 0.43557 0.34986 0.0
H570 H 0.74504 0.35826 0.3352 0.0
C571 C 0.73983 0.43235 0.35482 0.0
C572 C 0.71196 0.40259 0.35288 0.0
H573 H 0.7907 0.45892 0.35134 0.0
H574 H 0.7384 0.45325 0.35945 0.0
C575 C 0.71471 0.37596 0.3473 0.0
C576 C 0.19313 0.60411 0.46913 0.0
C577 C 0.16925 0.57239 0.46417 0.0
H578 H 0.22974 0.63874 0.49778 0.0
C579 C 0.16413 0.55099 0.48549 0.0
H580 H 0.19807 0.62113 0.45296 0.0
C581 C 0.18248 0.56101 0.5111 0.0
C582 C 0.20646 0.59272 0.51604 0.0
H583 H 0.14574 0.52646 0.48249 0.0
H584 H 0.17774 0.54383 0.52705 0.0
C585 C 0.21151 0.61416 0.49474 0.0
C586 C 0.59258 0.1975 0.62572 0.0
C587 C 0.60889 0.18158 0.6184 0.0
H588 H 0.58489 0.22482 0.65756 0.0
C589 C 0.63024 0.18087 0.6387 0.0
H590 H 0.57625 0.19873 0.6104 0.0
C591 C 0.63517 0.19572 0.66576 0.0
C592 C 0.61911 0.21194 0.67303 0.0
H593 H 0.64299 0.1686 0.63371 0.0
H594 H 0.65175 0.19465 0.6809 0.0
C595 C 0.59776 0.21266 0.65267 0.0
C596 C 0.4448 0.60392 0.7769 0.0
C597 C 0.47078 0.62852 0.76329 0.0
H598 H 0.41012 0.5911 0.80939 0.0
C599 C 0.48464 0.65921 0.77561 0.0
H600 H 0.43409 0.57983 0.76874 0.0
C601 C 0.47148 0.66541 0.79955 0.0
C602 C 0.44377 0.64123 0.81134 0.0
H603 H 0.50439 0.67894 0.76578 0.0
H604 H 0.48162 0.68955 0.80745 0.0
C605 C 0.43118 0.61028 0.80042 0.0
C606 C 0.83418 0.4862 0.9651 0.0
C607 C 0.84323 0.46981 0.94595 0.0
H608 H 0.80834 0.48419 0.00247 0.0
C609 C 0.83647 0.43945 0.95244 0.0
H610 H 0.83955 0.50983 0.96093 0.0
C611 C 0.81879 0.42485 0.97627 0.0
C612 C 0.80749 0.44028 0.99413 0.0
H613 H 0.84291 0.42608 0.93806 0.0
H614 H 0.8123 0.40075 0.97961 0.0
C615 C 0.81653 0.47159 0.98903 0.0
C616 C 0.39808 0.84726 0.1192 0.0
C617 C 0.37487 0.85484 0.11072 0.0
H618 H 0.41083 0.82193 0.14744 0.0
C619 C 0.34773 0.84523 0.12734 0.0
H620 H 0.41909 0.85396 0.10672 0.0
C621 C 0.34297 0.82668 0.1509 0.0
C622 C 0.36513 0.81724 0.158 0.0
H623 H 0.32964 0.85105 0.1215 0.0
H624 H 0.32107 0.81825 0.16246 0.0
C625 C 0.39325 0.82867 0.14255 0.0
C626 C 0.51348 0.37103 0.2736 0.0
C627 C 0.52837 0.40327 0.26803 0.0
H628 H 0.51446 0.3357 0.29845 0.0
C629 C 0.55304 0.42503 0.28706 0.0
H630 H 0.49463 0.35339 0.25946 0.0
C631 C 0.56502 0.41463 0.30887 0.0
C632 C 0.55186 0.38238 0.31266 0.0
H633 H 0.56434 0.45006 0.2842 0.0
H634 H 0.5854 0.43178 0.322 0.0
C635 C 0.52492 0.36074 0.29593 0.0
C636 C 0.45823 0.83858 0.31562 0.0
C637 C 0.4406 0.84996 0.33027 0.0
H638 H 0.46129 0.81396 0.27836 0.0
C639 C 0.4113 0.8441 0.31762 0.0
H640 H 0.4804 0.84166 0.32471 0.0
C641 C 0.39972 0.82687 0.29159 0.0
C642 C 0.41762 0.81597 0.27709 0.0
H643 H 0.39725 0.85298 0.32758 0.0
H644 H 0.37711 0.82272 0.28244 0.0
C645 C 0.44712 0.82227 0.28914 0.0
C646 C 0.59999 0.41751 0.47914 0.0
C647 C 0.60964 0.44935 0.48434 0.0
H648 H 0.59465 0.38186 0.44867 0.0
C649 C 0.62138 0.46989 0.46168 0.0
H650 H 0.59128 0.40117 0.49625 0.0
C651 C 0.62356 0.45891 0.43445 0.0
C652 C 0.61403 0.42708 0.42923 0.0
H653 H 0.62864 0.49447 0.46491 0.0
H654 H 0.63268 0.47543 0.41749 0.0
C655 C 0.60214 0.40649 0.45189 0.0
C656 C 0.16927 0.64223 0.66344 0.0
C657 C 0.16535 0.61915 0.68261 0.0
H658 H 0.19419 0.66882 0.62748 0.0
C659 C 0.18183 0.60281 0.6779 0.0
H660 H 0.15655 0.65491 0.66617 0.0
C661 C 0.20297 0.61049 0.65562 0.0
C662 C 0.20839 0.63485 0.63759 0.0
H663 H 0.17991 0.58527 0.69241 0.0
H664 H 0.21631 0.59836 0.65356 0.0
C665 C 0.19068 0.65008 0.64118 0.0
C666 C 0.57181 0.17587 0.83224 0.0
C667 C 0.54078 0.16703 0.84092 0.0
H668 H 0.60922 0.20248 0.80375 0.0
C669 C 0.52203 0.17562 0.82451 0.0
H670 H 0.58698 0.16988 0.84457 0.0
C671 C 0.53482 0.19432 0.8009 0.0
C672 C 0.56669 0.20502 0.79355 0.0
H673 H 0.4979 0.16883 0.83054 0.0
H674 H 0.52037 0.20187 0.78949 0.0
C675 C 0.58464 0.19472 0.80886 0.0
C676 C 0.3729 0.55641 0.96677 0.0
C677 C 0.39331 0.57917 0.98763 0.0
H678 H 0.3543 0.54695 0.92354 0.0
C679 C 0.41117 0.61077 0.98029 0.0
H680 H 0.35905 0.53185 0.97183 0.0
C681 C 0.40826 0.61952 0.95272 0.0
C682 C 0.3878 0.59676 0.93181 0.0
H683 H 0.42693 0.6288 0.99604 0.0
H684 H 0.4221 0.64411 0.94779 0.0
C685 C 0.37034 0.56507 0.9391 0.0
C686 C 0.83258 0.37758 0.15045 0.0
C687 C 0.83077 0.39814 0.17072 0.0
H688 H 0.82018 0.35672 0.10804 0.0
C689 C 0.81404 0.4135 0.16319 0.0
H690 H 0.84544 0.36555 0.15561 0.0
C691 C 0.7992 0.4082 0.136 0.0
C692 C 0.80121 0.38778 0.11563 0.0
H693 H 0.812 0.42923 0.17851 0.0
H694 H 0.78644 0.42033 0.13087 0.0
C695 C 0.81818 0.37263 0.12317 0.0
loop_
_geom_bond_atom_site_label_1
_geom_bond_atom_site_label_2
_geom_bond_distance
_geom_bond_site_symmetry_2
_ccdc_geom_bond_type
H0 C27 0.929 . S
N1 C26 1.433 . S
N1 C32 1.435 . S
N1 C38 1.423 . S
H2 C28 0.930 . S
H3 C31 0.931 . S
H4 C30 0.929 . S
H5 C33 0.930 . S
H6 C34 0.932 . S
H7 C37 0.929 . S
H8 C36 0.931 . S
H9 C39 0.929 . S
H10 C43 0.932 . S
H11 C40 0.931 . S
H12 C42 0.929 . S
H13 C45 0.929 . S
H14 C46 0.930 . S
H15 C48 0.929 . S
H16 C49 0.931 . S
H17 C51 0.930 . S
H18 C52 0.932 . S
H19 C54 0.931 . S
H20 C55 0.929 . S
H21 C57 0.929 . S
H22 C58 0.931 . S
H23 C60 0.929 . S
N24 C44 1.433 . S
N24 C50 1.435 . S
N24 C56 1.423 . S
H25 C61 0.932 . S
C26 N1 1.433 . S
C26 C27 1.363 . S
C26 C31 1.370 . S
C27 H0 0.929 . S
C27 C26 1.363 . S
C27 C28 1.385 . S
C28 H2 0.930 . S
C28 C27 1.385 . S
C28 C29 1.357 . S
C29 C28 1.357 . S
C29 C30 1.406 . S
C30 H4 0.929 . S
C30 C29 1.406 . S
C30 C31 1.391 . S
C31 H3 0.931 . S
C31 C26 1.370 . S
C31 C30 1.391 . S
C32 N1 1.435 . S
C32 C33 1.358 . S
C32 C37 1.371 . S
C33 H5 0.930 . S
C33 C32 1.358 . S
C33 C34 1.405 . S
C34 H6 0.932 . S
C34 C33 1.405 . S
C34 C35 1.383 . S
C35 C34 1.383 . S
C35 C36 1.393 . S
C36 H8 0.931 . S
C36 C35 1.393 . S
C36 C37 1.382 . S
C37 H7 0.929 . S
C37 C32 1.371 . S
C37 C36 1.382 . S
C38 N1 1.423 . S
C38 C39 1.362 . S
C38 C43 1.388 . S
C39 H9 0.929 . S
C39 C38 1.362 . S
C39 C40 1.376 . S
C40 H11 0.931 . S
C40 C39 1.376 . S
C40 C41 1.396 . S
C41 C40 1.396 . S
C41 C42 1.348 . S
C41 C59 1.472 1_455 S
C42 H12 0.929 . S
C42 C41 1.348 . S
C42 C43 1.443 . S
C43 H10 0.932 . S
C43 C38 1.388 . S
C43 C42 1.443 . S
C44 N24 1.433 . S
C44 C45 1.363 . S
C44 C49 1.370 . S
C45 H13 0.929 . S
C45 C44 1.363 . S
C45 C46 1.385 . S
C46 H14 0.930 . S
C46 C45 1.385 . S
C46 C47 1.357 . S
C47 C46 1.357 . S
C47 C48 1.406 . S
C48 H15 0.929 . S
C48 C47 1.406 . S
C48 C49 1.391 . S
C49 H16 0.931 . S
C49 C44 1.370 . S
C49 C48 1.391 . S
C50 N24 1.435 . S
C50 C51 1.358 . S
C50 C55 1.371 . S
C51 H17 0.930 . S
C51 C50 1.358 . S
C51 C52 1.405 . S
C52 H18 0.932 . S
C52 C51 1.405 . S
C52 C53 1.383 . S
C53 C52 1.383 . S
C53 C54 1.393 . S
C54 H19 0.931 . S
C54 C53 1.393 . S
C54 C55 1.382 . S
C55 H20 0.929 . S
C55 C50 1.371 . S
C55 C54 1.382 . S
C56 N24 1.423 . S
C56 C57 1.362 . S
C56 C61 1.388 . S
C57 H21 0.929 . S
C57 C56 1.362 . S
C57 C58 1.376 . S
C58 H22 0.931 . S
C58 C57 1.376 . S
C58 C59 1.396 . S
C59 C41 1.472 1_655 S
C59 C58 1.396 . S
C59 C60 1.348 . S
C60 H23 0.929 . S
C60 C59 1.348 . S
C60 C61 1.443 . S
C61 H25 0.932 . S
C61 C56 1.388 . S
C61 C60 1.443 . S
H62 C89 0.929 . S
N63 C88 1.433 . S
N63 C94 1.435 . S
N63 C100 1.423 . S
H64 C90 0.930 . S
H65 C93 0.931 . S
H66 C92 0.929 . S
H67 C95 0.930 . S
H68 C96 0.932 . S
H69 C99 0.929 . S
H70 C98 0.931 . S
H71 C101 0.929 . S
H72 C105 0.932 . S
H73 C102 0.931 . S
H74 C104 0.929 1_545 S
H75 C107 0.929 . S
H76 C108 0.930 . S
H77 C110 0.929 . S
H78 C111 0.931 . S
H79 C113 0.930 . S
H80 C114 0.932 . S
H81 C116 0.931 . S
H82 C117 0.929 . S
H83 C119 0.929 . S
H84 C120 0.931 . S
H85 C122 0.929 . S
N86 C106 1.433 . S
N86 C112 1.435 . S
N86 C118 1.423 . S
H87 C123 0.932 . S
C88 N63 1.433 . S
C88 C89 1.363 . S
C88 C93 1.370 . S
C89 H62 0.929 . S
C89 C88 1.363 . S
C89 C90 1.385 . S
C90 H64 0.930 . S
C90 C89 1.385 . S
C90 C91 1.357 . S
C91 C90 1.357 . S
C91 C92 1.406 . S
C92 H66 0.929 . S
C92 C91 1.406 . S
C92 C93 1.391 . S
C93 H65 0.931 . S
C93 C88 1.370 . S
C93 C92 1.391 . S
C94 N63 1.435 . S
C94 C95 1.358 . S
C94 C99 1.371 . S
C95 H67 0.930 . S
C95 C94 1.358 . S
C95 C96 1.405 . S
C96 H68 0.932 . S
C96 C95 1.405 . S
C96 C97 1.383 . S
C97 C96 1.383 . S
C97 C98 1.393 . S
C98 H70 0.931 . S
C98 C97 1.393 . S
C98 C99 1.382 . S
C99 H69 0.929 . S
C99 C94 1.371 . S
C99 C98 1.382 . S
C100 N63 1.423 . S
C100 C101 1.362 . S
C100 C105 1.388 . S
C101 H71 0.929 . S
C101 C100 1.362 . S
C101 C102 1.376 . S
C102 H73 0.931 . S
C102 C101 1.376 . S
C102 C103 1.396 1_565 S
C103 C102 1.396 1_545 S
C103 C104 1.348 1_545 S
C103 C121 1.472 . S
C104 H74 0.929 1_565 S
C104 C103 1.348 1_565 S
C104 C105 1.443 . S
C105 H72 0.932 . S
C105 C100 1.388 . S
C105 C104 1.443 . S
C106 N86 1.433 . S
C106 C107 1.363 . S
C106 C111 1.370 . S
C107 H75 0.929 . S
C107 C106 1.363 . S
C107 C108 1.385 . S
C108 H76 0.930 . S
C108 C107 1.385 . S
C108 C109 1.357 . S
C109 C108 1.357 . S
C109 C110 1.406 . S
C110 H77 0.929 . S
C110 C109 1.406 . S
C110 C111 1.391 . S
C111 H78 0.931 . S
C111 C106 1.370 . S
C111 C110 1.391 . S
C112 N86 1.435 . S
C112 C113 1.358 . S
C112 C117 1.371 . S
C113 H79 0.930 . S
C113 C112 1.358 . S
C113 C114 1.405 . S
C114 H80 0.932 . S
C114 C113 1.405 . S
C114 C115 1.383 . S
C115 C114 1.383 . S
C115 C116 1.393 . S
C116 H81 0.931 . S
C116 C115 1.393 . S
C116 C117 1.382 . S
C117 H82 0.929 . S
C117 C112 1.371 . S
C117 C116 1.382 . S
C118 N86 1.423 . S
C118 C119 1.362 . S
C118 C123 1.388 . S
C119 H83 0.929 . S
C119 C118 1.362 . S
C119 C120 1.376 . S
C120 H84 0.931 . S
C120 C119 1.376 . S
C120 C121 1.396 . S
C121 C103 1.472 . S
C121 C120 1.396 . S
C121 C122 1.348 . S
C122 H85 0.929 . S
C122 C121 1.348 . S
C122 C123 1.443 . S
C123 H87 0.932 . S
C123 C118 1.388 . S
C123 C122 1.443 . S
H124 C151 0.929 . S
N125 C150 1.433 . S
N125 C156 1.435 . S
N125 C162 1.423 . S
H126 C152 0.930 . S
H127 C155 0.931 . S
H128 C154 0.929 . S
H129 C157 0.930 . S
H130 C158 0.932 . S
H131 C161 0.929 . S
H132 C160 0.931 . S
H133 C163 0.929 . S
H134 C167 0.932 . S
H135 C164 0.931 . S
H136 C166 0.929 . S
H137 C169 0.929 . S
H138 C170 0.930 . S
H139 C172 0.929 . S
H140 C173 0.931 . S
H141 C175 0.930 . S
H142 C176 0.932 . S
H143 C178 0.931 . S
H144 C179 0.929 . S
H145 C181 0.929 . S
H146 C182 0.931 . S
H147 C184 0.929 . S
N148 C168 1.433 . S
N148 C174 1.435 . S
N148 C180 1.423 . S
H149 C185 0.932 . S
C150 N125 1.433 . S
C150 C151 1.363 . S
C150 C155 1.370 . S
C151 H124 0.929 . S
C151 C150 1.363 . S
C151 C152 1.385 . S
C152 H126 0.930 . S
C152 C151 1.385 . S
C152 C153 1.357 . S
C153 C152 1.357 . S
C153 C154 1.406 . S
C154 H128 0.929 . S
C154 C153 1.406 . S
C154 C155 1.391 . S
C155 H127 0.931 . S
C155 C150 1.370 . S
C155 C154 1.391 . S
C156 N125 1.435 . S
C156 C157 1.358 . S
C156 C161 1.371 . S
C157 H129 0.930 . S
C157 C156 1.358 . S
C157 C158 1.405 . S
C158 H130 0.932 . S
C158 C157 1.405 . S
C158 C159 1.383 . S
C159 C158 1.383 . S
C159 C160 1.393 . S
C160 H132 0.931 . S
C160 C159 1.393 . S
C160 C161 1.382 . S
C161 H131 0.929 . S
C161 C156 1.371 . S
C161 C160 1.382 . S
C162 N125 1.423 . S
C162 C163 1.362 . S
C162 C167 1.388 . S
C163 H133 0.929 . S
C163 C162 1.362 . S
C163 C164 1.376 . S
C164 H135 0.931 . S
C164 C163 1.376 . S
C164 C165 1.396 . S
C165 C164 1.396 . S
C165 C166 1.348 . S
C165 C183 1.472 . S
C166 H136 0.929 . S
C166 C165 1.348 . S
C166 C167 1.443 . S
C167 H134 0.932 . S
C167 C162 1.388 . S
C167 C166 1.443 . S
C168 N148 1.433 . S
C168 C169 1.363 . S
C168 C173 1.370 . S
C169 H137 0.929 . S
C169 C168 1.363 . S
C169 C170 1.385 . S
C170 H138 0.930 . S
C170 C169 1.385 . S
C170 C171 1.357 . S
C171 C170 1.357 . S
C171 C172 1.406 . S
C172 H139 0.929 . S
C172 C171 1.406 . S
C172 C173 1.391 . S
C173 H140 0.931 . S
C173 C168 1.370 . S
C173 C172 1.391 . S
C174 N148 1.435 . S
C174 C175 1.358 . S
C174 C179 1.371 . S
C175 H141 0.930 . S
C175 C174 1.358 . S
C175 C176 1.405 . S
C176 H142 0.932 . S
C176 C175 1.405 . S
C176 C177 1.383 . S
C177 C176 1.383 . S
C177 C178 1.393 . S
C178 H143 0.931 . S
C178 C177 1.393 . S
C178 C179 1.382 . S
C179 H144 0.929 . S
C179 C174 1.371 . S
C179 C178 1.382 . S
C180 N148 1.423 . S
C180 C181 1.362 . S
C180 C185 1.388 . S
C181 H145 0.929 . S
C181 C180 1.362 . S
C181 C182 1.376 . S
C182 H146 0.931 . S
C182 C181 1.376 . S
C182 C183 1.396 . S
C183 C165 1.472 . S
C183 C182 1.396 . S
C183 C184 1.348 . S
C184 H147 0.929 . S
C184 C183 1.348 . S
C184 C185 1.443 . S
C185 H149 0.932 . S
C185 C180 1.388 . S
C185 C184 1.443 . S
H186 C213 0.929 . S
N187 C212 1.433 . S
N187 C218 1.435 . S
N187 C224 1.423 . S
H188 C214 0.930 . S
H189 C217 0.931 . S
H190 C216 0.929 . S
H191 C219 0.930 . S
H192 C220 0.932 . S
H193 C223 0.929 . S
H194 C222 0.931 . S
H195 C225 0.929 . S
H196 C229 0.932 . S
H197 C226 0.931 . S
H198 C228 0.929 . S
H199 C231 0.929 . S
H200 C232 0.930 . S
H201 C234 0.929 . S
H202 C235 0.931 . S
H203 C237 0.930 . S
H204 C238 0.932 . S
H205 C240 0.931 . S
H206 C241 0.929 . S
H207 C243 0.929 . S
H208 C244 0.931 . S
H209 C246 0.929 . S
N210 C230 1.433 . S
N210 C236 1.435 . S
N210 C242 1.423 . S
H211 C247 0.932 . S
C212 N187 1.433 . S
C212 C213 1.363 . S
C212 C217 1.370 . S
C213 H186 0.929 . S
C213 C212 1.363 . S
C213 C214 1.385 . S
C214 H188 0.930 . S
C214 C213 1.385 . S
C214 C215 1.357 . S
C215 C214 1.357 . S
C215 C216 1.406 . S
C216 H190 0.929 . S
C216 C215 1.406 . S
C216 C217 1.391 . S
C217 H189 0.931 . S
C217 C212 1.370 . S
C217 C216 1.391 . S
C218 N187 1.435 . S
C218 C219 1.358 . S
C218 C223 1.371 . S
C219 H191 0.930 . S
C219 C218 1.358 . S
C219 C220 1.405 . S
C220 H192 0.932 . S
C220 C219 1.405 . S
C220 C221 1.383 . S
C221 C220 1.383 . S
C221 C222 1.393 . S
C222 H194 0.931 . S
C222 C221 1.393 . S
C222 C223 1.382 . S
C223 H193 0.929 . S
C223 C218 1.371 . S
C223 C222 1.382 . S
C224 N187 1.423 . S
C224 C225 1.362 . S
C224 C229 1.388 . S
C225 H195 0.929 . S
C225 C224 1.362 . S
C225 C226 1.376 . S
C226 H197 0.931 . S
C226 C225 1.376 . S
C226 C227 1.396 . S
C227 C226 1.396 . S
C227 C228 1.348 . S
C227 C245 1.472 1_455 S
C228 H198 0.929 . S
C228 C227 1.348 . S
C228 C229 1.443 . S
C229 H196 0.932 . S
C229 C224 1.388 . S
C229 C228 1.443 . S
C230 N210 1.433 . S
C230 C231 1.363 . S
C230 C235 1.370 . S
C231 H199 0.929 . S
C231 C230 1.363 . S
C231 C232 1.385 . S
C232 H200 0.930 . S
C232 C231 1.385 . S
C232 C233 1.357 . S
C233 C232 1.357 . S
C233 C234 1.406 . S
C234 H201 0.929 . S
C234 C233 1.406 . S
C234 C235 1.391 . S
C235 H202 0.931 . S
C235 C230 1.370 . S
C235 C234 1.391 . S
C236 N210 1.435 . S
C236 C237 1.358 . S
C236 C241 1.371 . S
C237 H203 0.930 . S
C237 C236 1.358 . S
C237 C238 1.405 . S
C238 H204 0.932 . S
C238 C237 1.405 . S
C238 C239 1.383 . S
C239 C238 1.383 . S
C239 C240 1.393 . S
C240 H205 0.931 . S
C240 C239 1.393 . S
C240 C241 1.382 . S
C241 H206 0.929 . S
C241 C236 1.371 . S
C241 C240 1.382 . S
C242 N210 1.423 . S
C242 C243 1.362 . S
C242 C247 1.388 . S
C243 H207 0.929 . S
C243 C242 1.362 . S
C243 C244 1.376 . S
C244 H208 0.931 . S
C244 C243 1.376 . S
C244 C245 1.396 . S
C245 C227 1.472 1_655 S
C245 C244 1.396 . S
C245 C246 1.348 . S
C246 H209 0.929 . S
C246 C245 1.348 . S
C246 C247 1.443 . S
C247 H211 0.932 . S
C247 C242 1.388 . S
C247 C246 1.443 . S
H248 C275 0.929 . S
N249 C274 1.433 . S
N249 C280 1.435 . S
N249 C286 1.423 . S
H250 C276 0.930 . S
H251 C279 0.931 . S
H252 C278 0.929 . S
H253 C281 0.930 . S
H254 C282 0.932 . S
H255 C285 0.929 . S
H256 C284 0.931 . S
H257 C287 0.929 . S
H258 C291 0.932 . S
H259 C288 0.931 . S
H260 C290 0.929 . S
H261 C293 0.929 . S
H262 C294 0.930 . S
H263 C296 0.929 . S
H264 C297 0.931 . S
H265 C299 0.930 1_554 S
H266 C300 0.932 . S
H267 C302 0.931 . S
H268 C303 0.929 . S
H269 C305 0.929 . S
H270 C306 0.908 1_544 S
H271 C308 0.929 . S
N272 C292 1.433 . S
N272 C298 1.435 1_554 S
N272 C304 1.423 1_554 S
H273 C309 0.932 . S
C274 N249 1.433 . S
C274 C275 1.363 . S
C274 C279 1.370 . S
C275 H248 0.929 . S
C275 C274 1.363 . S
C275 C276 1.385 . S
C276 H250 0.930 . S
C276 C275 1.385 . S
C276 C277 1.357 1_556 S
C277 C276 1.357 1_554 S
C277 C278 1.406 . S
C278 H252 0.929 . S
C278 C277 1.406 . S
C278 C279 1.391 1_554 S
C279 H251 0.931 . S
C279 C274 1.370 . S
C279 C278 1.391 1_556 S
C280 N249 1.435 . S
C280 C281 1.358 . S
C280 C285 1.371 . S
C281 H253 0.930 . S
C281 C280 1.358 . S
C281 C282 1.405 . S
C282 H254 0.932 . S
C282 C281 1.405 . S
C282 C283 1.383 . S
C283 C282 1.383 . S
C283 C284 1.393 . S
C284 H256 0.931 . S
C284 C283 1.393 . S
C284 C285 1.382 . S
C285 H255 0.929 . S
C285 C280 1.371 . S
C285 C284 1.382 . S
C286 N249 1.423 . S
C286 C287 1.362 . S
C286 C291 1.388 . S
C287 H257 0.929 . S
C287 C286 1.362 . S
C287 C288 1.376 . S
C288 H259 0.931 . S
C288 C287 1.376 . S
C288 C289 1.396 . S
C289 C288 1.396 . S
C289 C290 1.348 . S
C289 C307 1.472 1_545 S
C290 H260 0.929 . S
C290 C289 1.348 . S
C290 C291 1.443 . S
C291 H258 0.932 . S
C291 C286 1.388 . S
C291 C290 1.443 . S
C292 N272 1.433 . S
C292 C293 1.363 . S
C292 C297 1.370 . S
C293 H261 0.929 . S
C293 C292 1.363 . S
C293 C294 1.385 . S
C294 H262 0.930 . S
C294 C293 1.385 . S
C294 C295 1.357 . S
C295 C294 1.357 . S
C295 C296 1.406 . S
C296 H263 0.929 . S
C296 C295 1.406 . S
C296 C297 1.391 . S
C297 H264 0.931 . S
C297 C292 1.370 . S
C297 C296 1.391 . S
C298 N272 1.435 1_556 S
C298 C299 1.358 . S
C298 C303 1.371 . S
C299 H265 0.930 1_556 S
C299 C298 1.358 . S
C299 C300 1.405 . S
C300 H266 0.932 . S
C300 C299 1.405 . S
C300 C301 1.383 . S
C301 C300 1.383 . S
C301 C302 1.393 . S
C302 H267 0.931 . S
C302 C301 1.393 . S
C302 C303 1.382 . S
C303 H268 0.929 . S
C303 C298 1.371 . S
C303 C302 1.382 . S
C304 N272 1.423 1_556 S
C304 C305 1.362 1_556 S
C304 C309 1.388 . S
C305 H269 0.929 . S
C305 C304 1.362 1_554 S
C305 C306 1.376 1_554 S
C306 H270 0.908 1_566 S
C306 C305 1.376 1_556 S
C306 C307 1.396 . S
C307 C289 1.472 1_565 S
C307 C306 1.396 . S
C307 C308 1.348 . S
C308 H271 0.929 . S
C308 C307 1.348 . S
C308 C309 1.443 . S
C309 H273 0.932 . S
C309 C304 1.388 . S
C309 C308 1.443 . S
H310 C337 0.929 . S
N311 C336 1.433 . S
N311 C342 1.435 . S
N311 C348 1.423 . S
H312 C338 0.930 . S
H313 C341 0.931 . S
H314 C340 0.929 . S
H315 C343 0.930 . S
H316 C344 0.932 . S
H317 C347 0.929 . S
H318 C346 0.931 . S
H319 C349 0.929 . S
H320 C353 0.932 . S
H321 C350 0.931 . S
H322 C352 0.929 . S
H323 C355 0.929 . S
H324 C356 0.930 . S
H325 C358 0.929 . S
H326 C359 0.931 . S
H327 C361 0.930 . S
H328 C362 0.932 . S
H329 C364 0.931 . S
H330 C365 0.929 . S
H331 C367 0.929 . S
H332 C368 0.931 . S
H333 C370 0.929 . S
N334 C354 1.433 . S
N334 C360 1.435 . S
N334 C366 1.423 . S
H335 C371 0.932 . S
C336 N311 1.433 . S
C336 C337 1.363 . S
C336 C341 1.370 . S
C337 H310 0.929 . S
C337 C336 1.363 . S
C337 C338 1.385 . S
C338 H312 0.930 . S
C338 C337 1.385 . S
C338 C339 1.357 . S
C339 C338 1.357 . S
C339 C340 1.406 . S
C340 H314 0.929 . S
C340 C339 1.406 . S
C340 C341 1.391 . S
C341 H313 0.931 . S
C341 C336 1.370 . S
C341 C340 1.391 . S
C342 N311 1.435 . S
C342 C343 1.358 . S
C342 C347 1.371 . S
C343 H315 0.930 . S
C343 C342 1.358 . S
C343 C344 1.405 . S
C344 H316 0.932 . S
C344 C343 1.405 . S
C344 C345 1.383 . S
C345 C344 1.383 . S
C345 C346 1.393 . S
C346 H318 0.931 . S
C346 C345 1.393 . S
C346 C347 1.382 . S
C347 H317 0.929 . S
C347 C342 1.371 . S
C347 C346 1.382 . S
C348 N311 1.423 . S
C348 C349 1.362 . S
C348 C353 1.388 . S
C349 H319 0.929 . S
C349 C348 1.362 . S
C349 C350 1.376 . S
C350 H321 0.931 . S
C350 C349 1.376 . S
C350 C351 1.396 . S
C351 C350 1.396 . S
C351 C352 1.348 . S
C351 C369 1.472 . S
C352 H322 0.929 . S
C352 C351 1.348 . S
C352 C353 1.443 . S
C353 H320 0.932 . S
C353 C348 1.388 . S
C353 C352 1.443 . S
C354 N334 1.433 . S
C354 C355 1.363 . S
C354 C359 1.370 . S
C355 H323 0.929 . S
C355 C354 1.363 . S
C355 C356 1.385 . S
C356 H324 0.930 . S
C356 C355 1.385 . S
C356 C357 1.357 . S
C357 C356 1.357 . S
C357 C358 1.406 . S
C358 H325 0.929 . S
C358 C357 1.406 . S
C358 C359 1.391 . S
C359 H326 0.931 . S
C359 C354 1.370 . S
C359 C358 1.391 . S
C360 N334 1.435 . S
C360 C361 1.358 . S
C360 C365 1.371 . S
C361 H327 0.930 . S
C361 C360 1.358 . S
C361 C362 1.405 . S
C362 H328 0.932 . S
C362 C361 1.405 . S
C362 C363 1.383 . S
C363 C362 1.383 . S
C363 C364 1.393 . S
C364 H329 0.931 . S
C364 C363 1.393 . S
C364 C365 1.382 . S
C365 H330 0.929 . S
C365 C360 1.371 . S
C365 C364 1.382 . S
C366 N334 1.423 . S
C366 C367 1.362 . S
C366 C371 1.388 . S
C367 H331 0.929 . S
C367 C366 1.362 . S
C367 C368 1.376 . S
C368 H332 0.931 . S
C368 C367 1.376 . S
C368 C369 1.396 . S
C369 C351 1.472 . S
C369 C368 1.396 . S
C369 C370 1.348 . S
C370 H333 0.929 . S
C370 C369 1.348 . S
C370 C371 1.443 . S
C371 H335 0.932 . S
C371 C366 1.388 . S
C371 C370 1.443 . S
Mg372 O373 2.028 . S
Mg372 O379 1.986 . S
Mg372 O381 2.114 . S
Mg372 O382 2.251 . S
Mg372 O385 2.010 . S
O373 Mg372 2.028 . S
O373 C376 1.250 . S
O374 Mg375 2.028 . S
O374 C376 1.248 . S
Mg375 O374 2.028 . S
Mg375 O380 2.032 . S
Mg375 O382 2.079 . S
C376 O373 1.250 . S
C376 O374 1.248 . S
C377 O378 1.264 . S
C377 O385 1.249 . S
O378 C377 1.264 . S
O379 Mg372 1.986 . S
O379 C383 1.246 . S
O380 Mg375 2.032 . S
O380 C383 1.259 . S
O381 Mg372 2.114 . S
O381 C384 1.252 . S
O382 Mg372 2.251 . S
O382 Mg375 2.079 . S
O382 C384 1.273 . S
C383 O379 1.246 . S
C383 O380 1.259 . S
C384 O381 1.252 . S
C384 O382 1.273 . S
O385 Mg372 2.010 . S
O385 C377 1.249 . S
Mg386 O387 2.028 . S
Mg386 O393 1.986 . S
Mg386 O395 2.114 . S
Mg386 O396 2.251 . S
Mg386 O399 2.010 . S
O387 Mg386 2.028 . S
O387 C390 1.250 . S
O388 Mg389 2.028 . S
O388 C390 1.248 . S
Mg389 O388 2.028 . S
Mg389 O394 2.032 . S
Mg389 O396 2.079 . S
C390 O387 1.250 . S
C390 O388 1.248 . S
C391 O392 1.264 . S
C391 O399 1.249 . S
O392 C391 1.264 . S
O393 Mg386 1.986 . S
O393 C397 1.246 . S
O394 Mg389 2.032 . S
O394 C397 1.259 . S
O395 Mg386 2.114 . S
O395 C398 1.252 . S
O396 Mg386 2.251 . S
O396 Mg389 2.079 . S
O396 C398 1.273 . S
C397 O393 1.246 . S
C397 O394 1.259 . S
C398 O395 1.252 . S
C398 O396 1.273 . S
O399 Mg386 2.010 . S
O399 C391 1.249 . S
Mg400 O401 2.028 . S
Mg400 O407 1.986 . S
Mg400 O409 2.114 . S
Mg400 O410 2.251 . S
Mg400 O413 2.010 . S
O401 Mg400 2.028 . S
O401 C404 1.250 . S
O402 Mg403 2.028 . S
O402 C404 1.248 . S
Mg403 O402 2.028 . S
Mg403 O408 2.032 . S
Mg403 O410 2.079 . S
C404 O401 1.250 . S
C404 O402 1.248 . S
C405 O406 1.264 . S
C405 O413 1.249 . S
O406 C405 1.264 . S
O407 Mg400 1.986 . S
O407 C411 1.246 . S
O408 Mg403 2.032 . S
O408 C411 1.259 . S
O409 Mg400 2.114 . S
O409 C412 1.252 . S
O410 Mg400 2.251 . S
O410 Mg403 2.079 . S
O410 C412 1.273 . S
C411 O407 1.246 . S
C411 O408 1.259 . S
C412 O409 1.252 . S
C412 O410 1.273 . S
O413 Mg400 2.010 . S
O413 C405 1.249 . S
Mg414 O415 2.028 . S
Mg414 O421 1.986 . S
Mg414 O423 2.114 . S
Mg414 O424 2.251 . S
Mg414 O427 2.010 . S
O415 Mg414 2.028 . S
O415 C418 1.250 . S
O416 Mg417 2.028 . S
O416 C418 1.248 . S
Mg417 O416 2.028 . S
Mg417 O422 2.032 . S
Mg417 O424 2.079 . S
C418 O415 1.250 . S
C418 O416 1.248 . S
C419 O420 1.264 . S
C419 O427 1.249 . S
O420 C419 1.264 . S
O421 Mg414 1.986 . S
O421 C425 1.246 . S
O422 Mg417 2.032 . S
O422 C425 1.259 . S
O423 Mg414 2.114 . S
O423 C426 1.252 . S
O424 Mg414 2.251 . S
O424 Mg417 2.079 . S
O424 C426 1.273 . S
C425 O421 1.246 . S
C425 O422 1.259 . S
C426 O423 1.252 . S
C426 O424 1.273 . S
O427 Mg414 2.010 . S
O427 C419 1.249 . S
Mg428 O429 2.028 . S
Mg428 O435 1.986 . S
Mg428 O437 2.114 . S
Mg428 O438 2.251 . S
Mg428 O441 2.010 . S
O429 Mg428 2.028 . S
O429 C432 1.250 . S
O430 Mg431 2.028 . S
O430 C432 1.248 . S
Mg431 O430 2.028 . S
Mg431 O436 2.032 . S
Mg431 O438 2.079 . S
C432 O429 1.250 . S
C432 O430 1.248 . S
C433 O434 1.264 . S
C433 O441 1.249 . S
O434 C433 1.264 . S
O435 Mg428 1.986 . S
O435 C439 1.246 . S
O436 Mg431 2.032 . S
O436 C439 1.259 . S
O437 Mg428 2.114 . S
O437 C440 1.252 . S
O438 Mg428 2.251 . S
O438 Mg431 2.079 . S
O438 C440 1.273 . S
C439 O435 1.246 . S
C439 O436 1.259 . S
C440 O437 1.252 . S
C440 O438 1.273 . S
O441 Mg428 2.010 . S
O441 C433 1.249 . S
Mg442 O443 2.028 . S
Mg442 O449 1.986 . S
Mg442 O451 2.114 . S
Mg442 O452 2.251 . S
Mg442 O455 2.010 . S
O443 Mg442 2.028 . S
O443 C446 1.250 . S
O444 Mg445 2.028 . S
O444 C446 1.248 . S
Mg445 O444 2.028 . S
Mg445 O450 2.032 . S
Mg445 O452 2.079 . S
C446 O443 1.250 . S
C446 O444 1.248 . S
C447 O448 1.264 . S
C447 O455 1.249 . S
O448 C447 1.264 . S
O449 Mg442 1.986 . S
O449 C453 1.246 . S
O450 Mg445 2.032 . S
O450 C453 1.259 . S
O451 Mg442 2.114 . S
O451 C454 1.252 . S
O452 Mg442 2.251 . S
O452 Mg445 2.079 . S
O452 C454 1.273 . S
C453 O449 1.246 . S
C453 O450 1.259 . S
C454 O451 1.252 . S
C454 O452 1.273 . S
O455 Mg442 2.010 . S
O455 C447 1.249 . S
C456 C457 1.387 . S
C456 H460 0.950 . S
C456 C465 1.390 . S
C457 C456 1.387 . S
C457 C459 1.387 . S
H458 C465 0.950 . S
C459 C457 1.387 . S
C459 C461 1.390 . S
C459 H463 0.950 . S
H460 C456 0.950 . S
C461 C459 1.390 . S
C461 C462 1.387 . S
C461 H464 0.950 . S
C462 C461 1.387 . S
C462 C465 1.387 . S
H463 C459 0.950 . S
H464 C461 0.950 . S
C465 C456 1.390 . S
C465 H458 0.950 . S
C465 C462 1.387 . S
C466 C467 1.387 . S
C466 H470 0.950 . S
C466 C475 1.390 . S
C467 C466 1.387 . S
C467 C469 1.387 . S
H468 C475 0.950 . S
C469 C467 1.387 . S
C469 C471 1.390 . S
C469 H473 0.950 . S
H470 C466 0.950 . S
C471 C469 1.390 . S
C471 C472 1.387 . S
C471 H474 0.950 . S
C472 C471 1.387 . S
C472 C475 1.387 . S
H473 C469 0.950 . S
H474 C471 0.950 . S
C475 C466 1.390 . S
C475 H468 0.950 . S
C475 C472 1.387 . S
C476 C477 1.387 . S
C476 H480 0.950 . S
C476 C485 1.390 . S
C477 C476 1.387 . S
C477 C479 1.387 . S
H478 C485 0.950 . S
C479 C477 1.387 . S
C479 C481 1.390 . S
C479 H483 0.950 . S
H480 C476 0.950 . S
C481 C479 1.390 . S
C481 C482 1.387 . S
C481 H484 0.950 . S
C482 C481 1.387 . S
C482 C485 1.387 . S
H483 C479 0.950 . S
H484 C481 0.950 . S
C485 C476 1.390 . S
C485 H478 0.950 . S
C485 C482 1.387 . S
C486 C487 1.387 . S
C486 H490 0.950 . S
C486 C495 1.390 . S
C487 C486 1.387 . S
C487 C489 1.387 . S
H488 C495 0.950 . S
C489 C487 1.387 . S
C489 C491 1.390 . S
C489 H493 0.950 . S
H490 C486 0.950 . S
C491 C489 1.390 . S
C491 C492 1.387 . S
C491 H494 0.950 . S
C492 C491 1.387 . S
C492 C495 1.387 . S
H493 C489 0.950 . S
H494 C491 0.950 . S
C495 C486 1.390 . S
C495 H488 0.950 . S
C495 C492 1.387 . S
C496 C497 1.387 . S
C496 H500 0.950 . S
C496 C505 1.390 . S
C497 C496 1.387 . S
C497 C499 1.387 . S
H498 C505 0.950 . S
C499 C497 1.387 . S
C499 C501 1.390 . S
C499 H503 0.950 . S
H500 C496 0.950 . S
C501 C499 1.390 . S
C501 C502 1.387 . S
C501 H504 0.950 . S
C502 C501 1.387 . S
C502 C505 1.387 . S
H503 C499 0.950 . S
H504 C501 0.950 . S
C505 C496 1.390 . S
C505 H498 0.950 . S
C505 C502 1.387 . S
C506 C507 1.387 . S
C506 H510 0.950 . S
C506 C515 1.390 . S
C507 C506 1.387 . S
C507 C509 1.387 . S
H508 C515 0.950 . S
C509 C507 1.387 . S
C509 C511 1.390 . S
C509 H513 0.950 . S
H510 C506 0.950 . S
C511 C509 1.390 . S
C511 C512 1.387 . S
C511 H514 0.950 . S
C512 C511 1.387 . S
C512 C515 1.387 . S
H513 C509 0.950 . S
H514 C511 0.950 . S
C515 C506 1.390 . S
C515 H508 0.950 . S
C515 C512 1.387 . S
C516 C517 1.387 . S
C516 H520 0.950 . S
C516 C525 1.390 . S
C517 C516 1.387 . S
C517 C519 1.387 . S
H518 C525 0.950 . S
C519 C517 1.387 . S
C519 C521 1.390 . S
C519 H523 0.950 . S
H520 C516 0.950 . S
C521 C519 1.390 . S
C521 C522 1.387 . S
C521 H524 0.950 . S
C522 C521 1.387 . S
C522 C525 1.387 . S
H523 C519 0.950 . S
H524 C521 0.950 . S
C525 C516 1.390 . S
C525 H518 0.950 . S
C525 C522 1.387 . S
C526 C527 1.387 . S
C526 H530 0.950 . S
C526 C535 1.390 . S
C527 C526 1.387 . S
C527 C529 1.387 . S
H528 C535 0.950 . S
C529 C527 1.387 . S
C529 C531 1.390 . S
C529 H533 0.950 . S
H530 C526 0.950 . S
C531 C529 1.390 . S
C531 C532 1.387 . S
C531 H534 0.950 . S
C532 C531 1.387 . S
C532 C535 1.387 . S
H533 C529 0.950 . S
H534 C531 0.950 . S
C535 C526 1.390 . S
C535 H528 0.950 . S
C535 C532 1.387 . S
C536 C537 1.387 . S
C536 H540 0.950 . S
C536 C545 1.390 . S
C537 C536 1.387 . S
C537 C539 1.387 . S
H538 C545 0.950 . S
C539 C537 1.387 . S
C539 C541 1.390 . S
C539 H543 0.950 . S
H540 C536 0.950 . S
C541 C539 1.390 . S
C541 C542 1.387 . S
C541 H544 0.950 . S
C542 C541 1.387 . S
C542 C545 1.387 . S
H543 C539 0.950 . S
H544 C541 0.950 . S
C545 C536 1.390 . S
C545 H538 0.950 . S
C545 C542 1.387 . S
C546 C547 1.387 . S
C546 H550 0.950 . S
C546 C555 1.390 . S
C547 C546 1.387 . S
C547 C549 1.387 . S
H548 C555 0.950 . S
C549 C547 1.387 . S
C549 C551 1.390 . S
C549 H553 0.950 1_554 S
H550 C546 0.950 . S
C551 C549 1.390 . S
C551 C552 1.387 . S
C551 H554 0.950 . S
C552 C551 1.387 . S
C552 C555 1.387 . S
H553 C549 0.950 1_556 S
H554 C551 0.950 . S
C555 C546 1.390 . S
C555 H548 0.950 . S
C555 C552 1.387 . S
C556 C557 1.387 . S
C556 H560 0.950 . S
C556 C565 1.390 . S
C557 C556 1.387 . S
C557 C559 1.387 . S
H558 C565 0.950 . S
C559 C557 1.387 . S
C559 C561 1.390 . S
C559 H563 0.950 . S
H560 C556 0.950 . S
C561 C559 1.390 . S
C561 C562 1.387 . S
C561 H564 0.950 . S
C562 C561 1.387 . S
C562 C565 1.387 . S
H563 C559 0.950 . S
H564 C561 0.950 . S
C565 C556 1.390 . S
C565 H558 0.950 . S
C565 C562 1.387 . S
C566 C567 1.387 . S
C566 H570 0.950 . S
C566 C575 1.390 . S
C567 C566 1.387 . S
C567 C569 1.387 . S
H568 C575 0.950 . S
C569 C567 1.387 . S
C569 C571 1.390 . S
C569 H573 0.950 . S
H570 C566 0.950 . S
C571 C569 1.390 . S
C571 C572 1.387 . S
C571 H574 0.950 . S
C572 C571 1.387 . S
C572 C575 1.387 . S
H573 C569 0.950 . S
H574 C571 0.950 . S
C575 C566 1.390 . S
C575 H568 0.950 . S
C575 C572 1.387 . S
C576 C577 1.387 . S
C576 H580 0.950 . S
C576 C585 1.390 . S
C577 C576 1.387 . S
C577 C579 1.387 . S
H578 C585 0.950 . S
C579 C577 1.387 . S
C579 C581 1.390 . S
C579 H583 0.950 . S
H580 C576 0.950 . S
C581 C579 1.390 . S
C581 C582 1.387 . S
C581 H584 0.950 . S
C582 C581 1.387 . S
C582 C585 1.387 . S
H583 C579 0.950 . S
H584 C581 0.950 . S
C585 C576 1.390 . S
C585 H578 0.950 . S
C585 C582 1.387 . S
C586 C587 1.387 . S
C586 H590 0.950 . S
C586 C595 1.390 . S
C587 C586 1.387 . S
C587 C589 1.387 . S
H588 C595 0.950 . S
C589 C587 1.387 . S
C589 C591 1.390 . S
C589 H593 0.950 . S
H590 C586 0.950 . S
C591 C589 1.390 . S
C591 C592 1.387 . S
C591 H594 0.950 . S
C592 C591 1.387 . S
C592 C595 1.387 . S
H593 C589 0.950 . S
H594 C591 0.950 . S
C595 C586 1.390 . S
C595 H588 0.950 . S
C595 C592 1.387 . S
C596 C597 1.387 . S
C596 H600 0.950 . S
C596 C605 1.390 . S
C597 C596 1.387 . S
C597 C599 1.387 . S
H598 C605 0.950 . S
C599 C597 1.387 . S
C599 C601 1.390 . S
C599 H603 0.950 . S
H600 C596 0.950 . S
C601 C599 1.390 . S
C601 C602 1.387 . S
C601 H604 0.950 . S
C602 C601 1.387 . S
C602 C605 1.387 . S
H603 C599 0.950 . S
H604 C601 0.950 . S
C605 C596 1.390 . S
C605 H598 0.950 . S
C605 C602 1.387 . S
C606 C607 1.387 . S
C606 H610 0.950 . S
C606 C615 1.390 . S
C607 C606 1.387 . S
C607 C609 1.387 . S
H608 C615 0.950 . S
C609 C607 1.387 . S
C609 C611 1.390 . S
C609 H613 0.950 . S
H610 C606 0.950 . S
C611 C609 1.390 . S
C611 C612 1.387 . S
C611 H614 0.950 . S
C612 C611 1.387 . S
C612 C615 1.387 . S
H613 C609 0.950 . S
H614 C611 0.950 . S
C615 C606 1.390 . S
C615 H608 0.950 . S
C615 C612 1.387 . S
C616 C617 1.387 . S
C616 H620 0.950 . S
C616 C625 1.390 . S
C617 C616 1.387 . S
C617 C619 1.387 . S
H618 C625 0.950 . S
C619 C617 1.387 . S
C619 C621 1.390 . S
C619 H623 0.950 . S
H620 C616 0.950 . S
C621 C619 1.390 . S
C621 C622 1.387 . S
C621 H624 0.950 . S
C622 C621 1.387 . S
C622 C625 1.387 . S
H623 C619 0.950 . S
H624 C621 0.950 . S
C625 C616 1.390 . S
C625 H618 0.950 . S
C625 C622 1.387 . S
C626 C627 1.387 . S
C626 H630 0.950 . S
C626 C635 1.390 . S
C627 C626 1.387 . S
C627 C629 1.387 . S
H628 C635 0.950 . S
C629 C627 1.387 . S
C629 C631 1.390 . S
C629 H633 0.950 . S
H630 C626 0.950 . S
C631 C629 1.390 . S
C631 C632 1.387 . S
C631 H634 0.950 . S
C632 C631 1.387 . S
C632 C635 1.387 . S
H633 C629 0.950 . S
H634 C631 0.950 . S
C635 C626 1.390 . S
C635 H628 0.950 . S
C635 C632 1.387 . S
C636 C637 1.387 . S
C636 H640 0.950 . S
C636 C645 1.390 . S
C637 C636 1.387 . S
C637 C639 1.387 . S
H638 C645 0.950 . S
C639 C637 1.387 . S
C639 C641 1.390 . S
C639 H643 0.950 . S
H640 C636 0.950 . S
C641 C639 1.390 . S
C641 C642 1.387 . S
C641 H644 0.950 . S
C642 C641 1.387 . S
C642 C645 1.387 . S
H643 C639 0.950 . S
H644 C641 0.950 . S
C645 C636 1.390 . S
C645 H638 0.950 . S
C645 C642 1.387 . S
C646 C647 1.387 . S
C646 H650 0.950 . S
C646 C655 1.390 . S
C647 C646 1.387 . S
C647 C649 1.387 . S
H648 C655 0.950 . S
C649 C647 1.387 . S
C649 C651 1.390 . S
C649 H653 0.950 . S
H650 C646 0.950 . S
C651 C649 1.390 . S
C651 C652 1.387 . S
C651 H654 0.950 . S
C652 C651 1.387 . S
C652 C655 1.387 . S
H653 C649 0.950 . S
H654 C651 0.950 . S
C655 C646 1.390 . S
C655 H648 0.950 . S
C655 C652 1.387 . S
C656 C657 1.387 . S
C656 H660 0.950 . S
C656 C665 1.390 . S
C657 C656 1.387 . S
C657 C659 1.387 . S
H658 C665 0.950 . S
C659 C657 1.387 . S
C659 C661 1.390 . S
C659 H663 0.950 . S
H660 C656 0.950 . S
C661 C659 1.390 . S
C661 C662 1.387 . S
C661 H664 0.950 . S
C662 C661 1.387 . S
C662 C665 1.387 . S
H663 C659 0.950 . S
H664 C661 0.950 . S
C665 C656 1.390 . S
C665 H658 0.950 . S
C665 C662 1.387 . S
C666 C667 1.387 . S
C666 H670 0.950 . S
C666 C675 1.390 . S
C667 C666 1.387 . S
C667 C669 1.387 . S
H668 C675 0.950 . S
C669 C667 1.387 . S
C669 C671 1.390 . S
C669 H673 0.950 . S
H670 C666 0.950 . S
C671 C669 1.390 . S
C671 C672 1.387 . S
C671 H674 0.950 . S
C672 C671 1.387 . S
C672 C675 1.387 . S
H673 C669 0.950 . S
H674 C671 0.950 . S
C675 C666 1.390 . S
C675 H668 0.950 . S
C675 C672 1.387 . S
C676 C677 1.387 . S
C676 H680 0.950 . S
C676 C685 1.390 . S
C677 C676 1.387 . S
C677 C679 1.387 . S
H678 C685 0.950 . S
C679 C677 1.387 . S
C679 C681 1.390 . S
C679 H683 0.950 1_556 S
H680 C676 0.950 . S
C681 C679 1.390 . S
C681 C682 1.387 . S
C681 H684 0.950 . S
C682 C681 1.387 . S
C682 C685 1.387 . S
H683 C679 0.950 1_554 S
H684 C681 0.950 . S
C685 C676 1.390 . S
C685 H678 0.950 . S
C685 C682 1.387 . S
C686 C687 1.387 . S
C686 H690 0.950 . S
C686 C695 1.390 . S
C687 C686 1.387 . S
C687 C689 1.387 . S
H688 C695 0.950 . S
C689 C687 1.387 . S
C689 C691 1.390 . S
C689 H693 0.950 . S
H690 C686 0.950 . S
C691 C689 1.390 . S
C691 C692 1.387 . S
C691 H694 0.950 . S
C692 C691 1.387 . S
C692 C695 1.387 . S
H693 C689 0.950 . S
H694 C691 0.950 . S
C695 C686 1.390 . S
C695 H688 0.950 . S
C695 C692 1.387 . S
C462 C447 1.380 . S
C457 C29 1.587 . S
C467 C115 1.624 . S
C472 C377 1.377 . S
C477 C153 1.530 . S
C482 C397 1.642 . S
C487 C239 1.518 . S
C492 C411 1.525 . S
C502 C419 1.321 . S
C497 C301 1.578 . S
C507 C339 1.764 . S
C512 C433 1.529 . S
C517 C91 1.572 . S
C522 C391 1.384 . S
C527 C177 1.566 . S
C532 C405 1.330 . S
C537 C215 1.497 . S
C542 C425 1.590 . S
C552 C439 1.902 . S
C547 C277 1.761 . S
C562 C453 1.606 . S
C557 C363 1.573 . S
C572 C383 1.574 . S
C567 C53 1.562 . S
C577 C35 1.521 . S
C582 C390 1.545 . S
C587 C109 1.351 . S
C592 C404 1.448 . S
C602 C426 1.440 . S
C597 C159 1.427 . S
C607 C233 1.564 . S
C612 C440 1.729 1_556 S
C622 C454 1.550 . S
C617 C295 1.349 . S
C632 C384 1.329 . S
C627 C345 1.314 . S
C642 C446 1.420 . S
C637 C97 1.425 . S
C647 C171 1.334 . S
C652 C376 1.446 . S
C662 C398 1.551 . S
C657 C221 1.515 . S
C667 C283 1.374 . S
C672 C412 1.382 . S
C677 C357 1.414 1_556 S
C682 C418 1.548 . S
C687 C47 1.597 . S
C692 C432 1.711 . S
