# Generated by pormake.
# Topology zzz, (3,6)-cn, num edge types: 1
# Building blocks:
#     Node 0, Type 0, BuildingBlock: VETTIZ_charged_linker_0, # of connection points: 3
#     Node 1, Type 0, BuildingBlock: VETTIZ_charged_linker_0, # of connection points: 3
#     Node 2, Type 0, BuildingBlock: VETTIZ_charged_linker_0, # of connection points: 3
#     Node 3, Type 0, BuildingBlock: VETTIZ_charged_linker_0, # of connection points: 3
#     Node 4, Type 0, BuildingBlock: VETTIZ_charged_linker_0, # of connection points: 3
#     Node 5, Type 0, BuildingBlock: VETTIZ_charged_linker_0, # of connection points: 3
#     Node 6, Type 0, BuildingBlock: VETTIZ_charged_linker_0, # of connection points: 3
#     Node 7, Type 0, BuildingBlock: VETTIZ_charged_linker_0, # of connection points: 3
#     Node 8, Type 1, BuildingBlock: KUMBUR_clean_sbu_1, # of connection points: 6
#     Node 9, Type 1, BuildingBlock: KUMBUR_clean_sbu_1, # of connection points: 6
#     Node 10, Type 1, BuildingBlock: KUMBUR_clean_sbu_1, # of connection points: 6
#     Node 11, Type 1, BuildingBlock: KUMBUR_clean_sbu_1, # of connection points: 6
#     Edge 12, Type (0, 1), BuildingBlock: EZIPEK_clean_linker_0, # of connection points: 2
#     Edge 13, Type (0, 1), BuildingBlock: EZIPEK_clean_linker_0, # of connection points: 2
#     Edge 14, Type (0, 1), BuildingBlock: EZIPEK_clean_linker_0, # of connection points: 2
#     Edge 15, Type (0, 1), BuildingBlock: EZIPEK_clean_linker_0, # of connection points: 2
#     Edge 16, Type (0, 1), BuildingBlock: EZIPEK_clean_linker_0, # of connection points: 2
#     Edge 17, Type (0, 1), BuildingBlock: EZIPEK_clean_linker_0, # of connection points: 2
#     Edge 18, Type (0, 1), BuildingBlock: EZIPEK_clean_linker_0, # of connection points: 2
#     Edge 19, Type (0, 1), BuildingBlock: EZIPEK_clean_linker_0, # of connection points: 2
#     Edge 20, Type (0, 1), BuildingBlock: EZIPEK_clean_linker_0, # of connection points: 2
#     Edge 21, Type (0, 1), BuildingBlock: EZIPEK_clean_linker_0, # of connection points: 2
#     Edge 22, Type (0, 1), BuildingBlock: EZIPEK_clean_linker_0, # of connection points: 2
#     Edge 23, Type (0, 1), BuildingBlock: EZIPEK_clean_linker_0, # of connection points: 2
#     Edge 24, Type (0, 1), BuildingBlock: EZIPEK_clean_linker_0, # of connection points: 2
#     Edge 25, Type (0, 1), BuildingBlock: EZIPEK_clean_linker_0, # of connection points: 2
#     Edge 26, Type (0, 1), BuildingBlock: EZIPEK_clean_linker_0, # of connection points: 2
#     Edge 27, Type (0, 1), BuildingBlock: EZIPEK_clean_linker_0, # of connection points: 2
#     Edge 28, Type (0, 1), BuildingBlock: EZIPEK_clean_linker_0, # of connection points: 2
#     Edge 29, Type (0, 1), BuildingBlock: EZIPEK_clean_linker_0, # of connection points: 2
#     Edge 30, Type (0, 1), BuildingBlock: EZIPEK_clean_linker_0, # of connection points: 2
#     Edge 31, Type (0, 1), BuildingBlock: EZIPEK_clean_linker_0, # of connection points: 2
#     Edge 32, Type (0, 1), BuildingBlock: EZIPEK_clean_linker_0, # of connection points: 2
#     Edge 33, Type (0, 1), BuildingBlock: EZIPEK_clean_linker_0, # of connection points: 2
#     Edge 34, Type (0, 1), BuildingBlock: EZIPEK_clean_linker_0, # of connection points: 2
#     Edge 35, Type (0, 1), BuildingBlock: EZIPEK_clean_linker_0, # of connection points: 2
# Relax obj value: 0.362
# Max RMSD: 0.208
# Mean RMSD: 0.187
data_MOF--net-zzz--node1-KUMBUR_clean_sbu_1--node2-VETTIZ_charged_linker_0--edge1-EZIPEK_clean_linker_0
_symmetry_space_group_name_H-M    P1
_symmetry_Int_Tables_number       1
_symmetry_cell_setting            triclinic
loop_
_symmetry_equiv_pos_as_xyz
'x, y, z'
_cell_length_a     43.70418
_cell_length_b     43.925886
_cell_length_c     16.593472
_cell_angle_alpha  90.093466
_cell_angle_beta   89.812107
_cell_angle_gamma 90.580055
loop_
_atom_site_label
_atom_site_type_symbol
_atom_site_fract_x
_atom_site_fract_y
_atom_site_fract_z
_atom_type_partial_charge
C0 C 0.82081 0.52974 0.35972 0.0
C1 C 0.85081 0.54335 0.37538 0.0
C2 C 0.85971 0.56773 0.3251 0.0
C3 C 0.8151 0.56095 0.23997 0.0
C4 C 0.80275 0.53968 0.29117 0.0
C5 C 0.76944 0.53217 0.26083 0.0
H6 H 0.6679 0.56197 0.93174 0.0
C7 C 0.79444 0.56655 0.17234 0.0
C8 C 0.76582 0.55205 0.18321 0.0
H9 H 0.64168 0.50541 0.132 0.0
H10 H 0.69245 0.51551 0.19661 0.0
H11 H 0.69711 0.61514 0.03751 0.0
H12 H 0.71747 0.54473 0.88673 0.0
H13 H 0.75613 0.55118 0.91012 0.0
H14 H 0.73369 0.57983 0.85887 0.0
H15 H 0.69815 0.61255 0.92948 0.0
H16 H 0.73032 0.62724 0.98606 0.0
C17 C 0.74596 0.54132 0.32522 0.0
C18 C 0.76658 0.49819 0.24021 0.0
C19 C 0.83662 0.57231 0.89477 0.0
C20 C 0.82262 0.58021 0.82121 0.0
C21 C 0.79809 0.60065 0.82218 0.0
C22 C 0.78412 0.60808 0.89578 0.0
C23 C 0.79475 0.59424 0.96651 0.0
C24 C 0.82263 0.58034 0.96704 0.0
C25 C 0.83215 0.57173 0.05075 0.0
C26 C 0.80273 0.57906 0.09746 0.0
C27 C 0.77982 0.58761 0.04396 0.0
C28 C 0.86023 0.59145 0.07358 0.0
C29 C 0.8397 0.53745 0.05487 0.0
C30 C 0.67237 0.55161 0.98973 0.0
C31 C 0.65014 0.5327 0.02449 0.0
C32 C 0.65808 0.51996 0.1013 0.0
C33 C 0.68743 0.52582 0.13916 0.0
C34 C 0.70941 0.54498 0.10115 0.0
C35 C 0.70073 0.55732 0.02751 0.0
C36 C 0.72473 0.57697 0.99104 0.0
C37 C 0.74986 0.57532 0.05397 0.0
C38 C 0.74209 0.55633 0.12086 0.0
C39 C 0.712 0.60972 0.98495 0.0
C40 C 0.73365 0.5627 0.90783 0.0
H41 H 0.84813 0.59745 0.22822 0.0
H42 H 0.81187 0.51226 0.39942 0.0
H43 H 0.78384 0.49183 0.19395 0.0
H44 H 0.74349 0.49282 0.21603 0.0
H45 H 0.77036 0.48408 0.29473 0.0
H46 H 0.74847 0.56589 0.34019 0.0
H47 H 0.74931 0.52794 0.38125 0.0
H48 H 0.72229 0.53723 0.30343 0.0
H49 H 0.85678 0.55822 0.89592 0.0
H50 H 0.7885 0.60899 0.76642 0.0
H51 H 0.76425 0.62226 0.89492 0.0
H52 H 0.87646 0.59347 0.02205 0.0
H53 H 0.87362 0.5809 0.12257 0.0
H54 H 0.85327 0.61482 0.0911 0.0
H55 H 0.82 0.5234 0.03365 0.0
H56 H 0.84511 0.53057 0.1175 0.0
H57 H 0.86001 0.53203 0.01726 0.0
H58 H 0.88089 0.58001 0.33663 0.0
C59 C 0.84171 0.57705 0.26021 0.0
C60 C 0.93662 0.80751 0.8656 0.0
C61 C 0.91623 0.83217 0.86788 0.0
C62 C 0.90294 0.8396 0.94341 0.0
C63 C 0.93956 0.80763 1.0109 0.0
C64 C 0.94845 0.79623 0.9373 0.0
C65 C 0.9745 0.77448 0.94353 0.0
H66 H 0.99024 0.65509 0.13029 0.0
C67 C 0.95967 0.79461 0.07285 0.0
C68 C 0.97925 0.77407 0.03451 0.0
H69 H 0.02896 0.67918 0.89759 0.0
H70 H 0.03072 0.7321 0.93857 0.0
H71 H 0.0409 0.72107 0.23454 0.0
H72 H 0.95981 0.68828 0.23517 0.0
H73 H 0.94422 0.71792 0.1729 0.0
H74 H 0.95557 0.72621 0.275 0.0
H75 H 0.01783 0.68917 0.2677 0.0
H76 H 0.01233 0.72615 0.31202 0.0
C77 C 1.00254 0.78878 0.90017 0.0
C78 C 0.96419 0.74346 0.90685 0.0
C79 C 0.97587 0.85199 0.33327 0.0
C80 C 0.99644 0.84943 0.39821 0.0
C81 C 0.01332 0.82171 0.40175 0.0
C82 C 1.00981 0.7979 0.34262 0.0
C83 C 0.98878 0.8011 0.27886 0.0
C84 C 0.97263 0.82829 0.27523 0.0
C85 C 0.95351 0.82992 0.20023 0.0
C86 C 0.96332 0.80112 0.15588 0.0
C87 C 0.982 0.78227 0.20336 0.0
C88 C 0.9626 0.85928 0.15379 0.0
C89 C 0.9192 0.82869 0.22443 0.0
C90 C 0.9991 0.67177 0.08813 0.0
C91 C 1.0077 0.6626 1.00715 0.0
C92 C 0.02079 0.68512 0.95727 0.0
C93 C 0.02141 0.71578 0.98025 0.0
C94 C 1.00818 0.72466 0.05333 0.0
C95 C 1.0011 0.70358 0.11117 0.0
C96 C 0.99378 0.72126 0.19042 0.0
C97 C 0.99577 0.75556 0.16527 0.0
C98 C 0.9984 0.75496 0.08046 0.0
C99 C 0.01765 0.71401 0.25502 0.0
C100 C 0.96142 0.7129 0.22016 0.0
H101 H 0.90532 0.83532 0.07114 0.0
H102 H 0.94655 0.79953 0.80973 0.0
H103 H 0.95523 0.72777 0.95399 0.0
H104 H 0.98291 0.73235 0.87311 0.0
H105 H 0.94567 0.74602 0.86172 0.0
H106 H 1.00418 0.81361 0.91299 0.0
H107 H 1.00088 0.78564 0.83385 0.0
H108 H 0.02439 0.77925 0.92102 0.0
H109 H 0.96271 0.87259 0.32712 0.0
H110 H 0.02968 0.81866 0.44982 0.0
H111 H 0.0238 0.77782 0.34631 0.0
H112 H 0.98763 0.85978 0.14148 0.0
H113 H 0.95678 0.87995 0.18902 0.0
H114 H 0.9509 0.86145 0.09549 0.0
H115 H 0.91582 0.82104 0.28776 0.0
H116 H 0.90614 0.81208 0.1873 0.0
H117 H 0.90843 0.8514 0.21896 0.0
H118 H 0.88571 0.857 0.94804 0.0
C119 C 0.91459 0.82738 0.01509 0.0
C120 C 0.85964 0.01223 0.10043 0.0
C121 C 0.88266 0.99413 0.05981 0.0
C122 C 0.88269 0.96258 0.0763 0.0
C123 C 0.83459 0.96631 0.14653 0.0
C124 C 0.83595 0.9973 0.14721 0.0
C125 C 0.80788 1.00874 0.19672 0.0
H126 H 0.66321 0.95935 0.35095 0.0
C127 C 0.80415 0.95602 0.17008 0.0
C128 C 0.78911 0.9789 0.21412 0.0
H129 H 0.71651 0.02895 0.46959 0.0
H130 H 0.75928 0.02032 0.37356 0.0
H131 H 0.67382 0.97582 0.18349 0.0
H132 H 0.71723 0.91158 0.33221 0.0
H133 H 0.71131 0.89458 0.23676 0.0
H134 H 0.67922 0.90982 0.29126 0.0
H135 H 0.6655 0.93638 0.17046 0.0
H136 H 0.69454 0.95528 0.11067 0.0
C137 C 0.78907 0.03099 0.14617 0.0
C138 C 0.81927 0.02391 0.27459 0.0
C139 C 0.75435 0.90253 0.93741 0.0
C140 C 0.72327 0.89697 0.92085 0.0
C141 C 0.70347 0.89252 0.98829 0.0
C142 C 0.71277 0.90047 0.06621 0.0
C143 C 0.7422 0.9124 0.07766 0.0
C144 C 0.76321 0.91078 0.01565 0.0
C145 C 0.79378 0.92365 0.03912 0.0
C146 C 0.78666 0.93495 0.12496 0.0
C147 C 0.75586 0.9301 0.14442 0.0
C148 C 0.80202 0.95012 0.98067 0.0
C149 C 0.81757 0.8978 0.03552 0.0
C150 C 0.68373 0.97323 0.35628 0.0
C151 C 0.68578 0.99498 0.41851 0.0
C152 C 0.71364 0.0122 0.42225 0.0
C153 C 0.73834 1.00754 0.36612 0.0
C154 C 0.73545 0.9858 0.30359 0.0
C155 C 0.70829 0.96892 0.3012 0.0
C156 C 0.70892 0.9451 0.23633 0.0
C157 C 0.74155 0.94828 0.20472 0.0
C158 C 0.75751 0.9731 0.24042 0.0
C159 C 0.68452 0.95334 0.17194 0.0
C160 C 0.70372 0.91351 0.27575 0.0
H161 H 0.8595 0.92461 0.13191 0.0
H162 H 0.85961 0.03672 0.09358 0.0
H163 H 0.83673 0.04172 0.26057 0.0
H164 H 0.8298 1.00686 0.31511 0.0
H165 H 0.80033 0.03518 0.30691 0.0
H166 H 0.78166 0.02004 0.0889 0.0
H167 H 0.80282 0.05166 0.1313 0.0
H168 H 0.76831 0.03811 0.17985 0.0
H169 H 0.7711 0.90346 0.88972 0.0
H170 H 0.67977 0.88585 0.98119 0.0
H171 H 0.69621 0.89872 0.11381 0.0
H172 H 0.78467 0.96841 0.98442 0.0
H173 H 0.80333 0.94215 0.9173 0.0
H174 H 0.82466 0.96035 0.99298 0.0
H175 H 0.81152 0.88038 0.98938 0.0
H176 H 0.81927 0.88594 0.09442 0.0
H177 H 0.84047 0.90635 0.01709 0.0
H178 H 0.90022 0.94813 0.05091 0.0
C179 C 0.85916 0.94881 0.12079 0.0
C180 C 0.53355 0.68458 0.3669 0.0
C181 C 0.54472 0.65388 0.37773 0.0
C182 C 0.56573 0.6432 0.32013 0.0
C183 C 0.55991 0.68853 0.23809 0.0
C184 C 0.54213 0.7019 0.2963 0.0
C185 C 0.53603 0.73544 0.27128 0.0
H186 H 0.53606 0.83314 0.93348 0.0
C187 C 0.56293 0.70891 0.16796 0.0
C188 C 0.55069 0.73791 0.18596 0.0
H189 H 0.52573 0.8679 0.17415 0.0
H190 H 0.53203 0.81549 0.22885 0.0
H191 H 0.59658 0.80781 0.99383 0.0
H192 H 0.51161 0.78112 0.91421 0.0
H193 H 0.52491 0.74368 0.92229 0.0
H194 H 0.54294 0.77043 0.85354 0.0
H195 H 0.58457 0.80166 0.8918 0.0
H196 H 0.6052 0.77318 0.94837 0.0
C197 C 0.55216 0.75686 0.33123 0.0
C198 C 0.50153 0.7415 0.26819 0.0
C199 C 0.55644 0.66186 0.89637 0.0
C200 C 0.54905 0.6779 0.82557 0.0
C201 C 0.56321 0.70619 0.8111 0.0
C202 C 0.57867 0.721 0.87308 0.0
C203 C 0.57684 0.7086 0.95066 0.0
C204 C 0.57003 0.67816 0.96025 0.0
C205 C 0.57123 0.66933 0.04819 0.0
C206 C 0.57102 0.70099 0.08795 0.0
C207 C 0.57292 0.7236 0.02933 0.0
C208 C 0.60182 0.65254 0.06272 0.0
C209 C 0.54274 0.64968 0.07015 0.0
C210 C 0.53423 0.82993 0.99812 0.0
C211 C 0.52982 0.85517 0.04774 0.0
C212 C 0.52868 0.84914 0.13257 0.0
C213 C 0.53262 0.8188 0.16455 0.0
C214 C 0.53931 0.7942 0.11207 0.0
C215 C 0.54099 0.80128 0.03063 0.0
C216 C 0.55588 0.77731 0.98224 0.0
C217 C 0.56116 0.75298 0.0452 0.0
C218 C 0.55043 0.76137 0.12285 0.0
C219 C 0.58702 0.79053 0.95148 0.0
C220 C 0.53295 0.76752 0.91461 0.0
H221 H 0.59103 0.65172 0.2133 0.0
H222 H 0.5184 0.6946 0.41081 0.0
H223 H 0.49014 0.72557 0.22536 0.0
H224 H 0.49721 0.76516 0.24798 0.0
H225 H 0.49098 0.73835 0.32867 0.0
H226 H 0.5771 0.75215 0.33299 0.0
H227 H 0.54269 0.75364 0.39291 0.0
H228 H 0.54921 0.78096 0.31421 0.0
H229 H 0.54712 0.63926 0.90574 0.0
H230 H 0.55916 0.71854 0.75575 0.0
H231 H 0.58778 0.74314 0.86037 0.0
H232 H 0.61441 0.64776 1.00581 0.0
H233 H 0.59797 0.63018 0.09239 0.0
H234 H 0.61776 0.6663 0.10042 0.0
H235 H 0.52136 0.66167 0.05396 0.0
H236 H 0.54138 0.64406 0.13466 0.0
H237 H 0.54323 0.62749 0.03809 0.0
H238 H 0.57576 0.62088 0.32698 0.0
C239 C 0.574 0.66061 0.25288 0.0
C240 C 0.34818 0.47809 0.27685 0.0
C241 C 0.37312 0.49526 0.31366 0.0
C242 C 0.37606 0.52617 0.29105 0.0
C243 C 0.32721 0.52468 0.22369 0.0
C244 C 0.32575 0.49368 0.22814 0.0
C245 C 0.29692 0.48318 0.17957 0.0
H246 H 0.1537 0.53391 0.03654 0.0
C247 C 0.29781 0.5366 0.19677 0.0
C248 C 0.28106 0.51367 0.15605 0.0
H249 H 0.20964 0.47923 0.88033 0.0
H250 H 0.25197 0.48171 0.98071 0.0
H251 H 0.17678 0.51018 0.21319 0.0
H252 H 0.20227 0.58078 0.04746 0.0
H253 H 0.20437 0.59748 0.14309 0.0
H254 H 0.16837 0.5821 0.10869 0.0
H255 H 0.1562 0.54516 0.20703 0.0
H256 H 0.1883 0.54075 0.27432 0.0
C257 C 0.2758 0.46361 0.23311 0.0
C258 C 0.30677 0.46549 0.10416 0.0
C259 C 0.25966 0.61397 0.39817 0.0
C260 C 0.22985 0.62055 0.42258 0.0
C261 C 0.20517 0.61296 0.37201 0.0
C262 C 0.20988 0.59639 0.30141 0.0
C263 C 0.23954 0.5867 0.28202 0.0
C264 C 0.26393 0.59592 0.32938 0.0
C265 C 0.29288 0.57972 0.30791 0.0
C266 C 0.28202 0.56042 0.23606 0.0
C267 C 0.25061 0.56393 0.22356 0.0
C268 C 0.30171 0.55993 0.38162 0.0
C269 C 0.31793 0.60354 0.28584 0.0
C270 C 0.17442 0.52142 0.02383 0.0
C271 C 0.17717 0.50584 0.94995 0.0
C272 C 0.20579 0.49091 0.93689 0.0
C273 C 0.2303 0.49204 0.99511 0.0
C274 C 0.22684 0.50851 0.06791 0.0
C275 C 0.19932 0.52377 0.07817 0.0
C276 C 0.20115 0.54655 0.14517 0.0
C277 C 0.23455 0.54452 0.16944 0.0
C278 C 0.24957 0.52008 0.13138 0.0
C279 C 0.17941 0.53541 0.2135 0.0
C280 C 0.19347 0.57842 0.11017 0.0
H281 H 0.35707 0.56401 0.22773 0.0
H282 H 0.3461 0.45383 0.28672 0.0
H283 H 0.32113 0.48012 0.06423 0.0
H284 H 0.28646 0.45756 0.06978 0.0
H285 H 0.32031 0.44524 0.12129 0.0
H286 H 0.28758 0.44253 0.25226 0.0
H287 H 0.25471 0.45702 0.19987 0.0
H288 H 0.26901 0.47649 0.28794 0.0
H289 H 0.27881 0.61989 0.43662 0.0
H290 H 0.18193 0.61827 0.38981 0.0
H291 H 0.18995 0.59052 0.26713 0.0
H292 H 0.28308 0.54337 0.39625 0.0
H293 H 0.30597 0.57428 0.43565 0.0
H294 H 0.32283 0.54696 0.37267 0.0
H295 H 0.32127 0.60503 0.21954 0.0
H296 H 0.34009 0.59818 0.31473 0.0
H297 H 0.31222 0.62682 0.30715 0.0
H298 H 0.39535 0.53971 0.31184 0.0
C299 C 0.35381 0.54057 0.24465 0.0
C300 C 0.05086 0.23281 0.49473 0.0
C301 C 0.02875 0.21131 0.51706 0.0
C302 C 0.0104 0.19742 0.45712 0.0
C303 C 0.0369 0.22581 0.35406 0.0
C304 C 0.05351 0.24076 0.41308 0.0
C305 C 0.07061 0.26774 0.38012 0.0
H306 H 0.02085 0.37975 0.20849 0.0
C307 C 0.04291 0.24056 0.27632 0.0
C308 C 0.0612 0.2663 0.29087 0.0
H309 H 0.09485 0.3727 0.38182 0.0
H310 H 0.10788 0.32383 0.32568 0.0
H311 H 0.06758 0.32931 0.04923 0.0
H312 H 0.99244 0.3054 0.21062 0.0
H313 H 0.98878 0.29816 0.10411 0.0
H314 H 0.98802 0.33669 0.14149 0.0
H315 H 0.03316 0.35157 0.04745 0.0
H316 H 0.03276 0.31321 1.00871 0.0
C317 C 0.10515 0.26192 0.39036 0.0
C318 C 0.05954 0.29658 0.42624 0.0
C319 C 0.02265 0.18213 0.01942 0.0
C320 C 0.03012 0.18685 0.93761 0.0
C321 C 0.03969 0.2171 0.91672 0.0
C322 C 0.04178 0.24127 0.97561 0.0
C323 C 0.03409 0.23568 0.05717 0.0
C324 C 0.02543 0.206 0.07715 0.0
C325 C 0.02117 0.20243 0.16659 0.0
C326 C 0.03297 0.23318 0.19737 0.0
C327 C 0.03744 0.25432 0.13477 0.0
C328 C 0.0411 0.1757 0.19607 0.0
C329 C 0.98649 0.19766 0.18406 0.0
C330 C 0.03942 0.3675 0.23612 0.0
C331 C 0.05552 0.38052 0.30489 0.0
C332 C 0.08108 0.36408 0.3325 0.0
C333 C 0.08846 0.33546 0.30146 0.0
C334 C 0.0688 0.32121 0.24696 0.0
C335 C 0.04722 0.33746 0.20671 0.0
C336 C 0.03358 0.31625 0.14024 0.0
C337 C 0.04883 0.28475 0.15601 0.0
C338 C 0.06481 0.2886 0.22957 0.0
C339 C 0.04229 0.32829 0.05639 0.0
C340 C 0.99862 0.31401 0.14966 0.0
H341 H 0.99981 0.1935 0.33327 0.0
H342 H 0.06471 0.2441 0.54008 0.0
H343 H 0.04139 0.30859 0.39248 0.0
H344 H 0.07876 0.31231 0.4403 0.0
H345 H 0.04942 0.29155 0.4862 0.0
H346 H 0.11109 0.23865 0.36925 0.0
H347 H 0.11185 0.26397 0.45471 0.0
H348 H 0.11932 0.27791 0.35463 0.0
H349 H 0.01537 0.15966 0.0387 0.0
H350 H 0.04591 0.22198 0.85485 0.0
H351 H 0.04998 0.26355 0.95757 0.0
H352 H 0.03303 0.15373 0.17022 0.0
H353 H 0.0406 0.17301 0.26211 0.0
H354 H 0.06538 0.17929 0.17786 0.0
H355 H 0.97769 0.21492 0.22704 0.0
H356 H 0.98166 0.17461 0.20882 0.0
H357 H 0.97217 0.19992 0.12911 0.0
H358 H 0.99283 0.18095 0.47306 0.0
C359 C 0.01449 0.20448 0.37597 0.0
C360 C 0.32509 0.02958 0.98244 0.0
C361 C 0.35206 0.04606 0.95396 0.0
C362 C 0.35526 0.07661 0.97918 0.0
C363 C 0.31289 0.07116 0.0724 0.0
C364 C 0.30487 0.04348 0.04101 0.0
C365 C 0.27388 0.0336 0.08109 0.0
H366 H 0.18062 0.06239 0.42513 0.0
C367 C 0.29441 0.07776 0.1438 0.0
C368 C 0.26853 0.05835 0.14752 0.0
H369 H 0.1447 0.01651 0.21621 0.0
H370 H 0.19427 0.02481 0.14479 0.0
H371 H 0.23698 0.03998 0.44297 0.0
H372 H 0.20469 0.1168 0.32862 0.0
H373 H 0.24015 0.12875 0.36768 0.0
H374 H 0.21219 0.11122 0.43384 0.0
H375 H 0.24796 0.07552 0.48402 0.0
H376 H 0.27334 0.05472 0.41789 0.0
C377 C 0.27661 1.00188 0.11885 0.0
C378 C 0.24862 0.03416 0.01703 0.0
C379 C 0.35727 0.09565 0.38729 0.0
C380 C 0.34807 0.093 0.46824 0.0
C381 C 0.31933 0.10412 0.49102 0.0
C382 C 0.2977 0.11051 0.43137 0.0
C383 C 0.30508 0.1044 0.3503 0.0
C384 C 0.33518 0.10057 0.32853 0.0
C385 C 0.33903 0.09513 0.23968 0.0
C386 C 0.30537 0.09215 0.21421 0.0
C387 C 0.28606 0.09514 0.281 0.0
C388 C 0.35706 0.06525 0.22577 0.0
C389 C 0.35595 0.12301 0.20334 0.0
C390 C 0.18297 0.05371 0.36425 0.0
C391 C 0.15824 0.03857 0.32824 0.0
C392 C 0.16317 0.02804 0.2475 0.0
C393 C 0.19191 0.03278 0.20586 0.0
C394 C 0.21626 0.04866 0.24403 0.0
C395 C 0.21046 0.05915 0.32171 0.0
C396 C 0.23568 0.07843 0.35391 0.0
C397 C 0.25737 0.0797 0.2824 0.0
C398 C 0.24764 0.06107 0.21696 0.0
C399 C 0.24929 0.06159 0.42833 0.0
C400 C 0.22265 0.11047 0.37277 0.0
H401 H 0.33786 0.11299 0.05218 0.0
H402 H 0.3204 1.00674 0.96101 0.0
H403 H 0.24591 0.05754 0.99273 0.0
H404 H 0.22643 0.02654 0.04234 0.0
H405 H 0.25441 0.01873 0.96617 0.0
H406 H 0.29538 1.00168 0.1639 0.0
H407 H 0.2816 0.98456 0.07186 0.0
H408 H 0.25492 0.99536 0.14977 0.0
H409 H 0.38014 0.08928 0.36929 0.0
H410 H 0.31256 0.1046 0.55384 0.0
H411 H 0.27539 0.1173 0.45075 0.0
H412 H 0.38071 0.06709 0.24947 0.0
H413 H 0.35984 0.05971 0.16129 0.0
H414 H 0.34531 0.0457 0.25559 0.0
H415 H 0.37211 0.13346 0.24732 0.0
H416 H 0.33959 0.14088 0.18481 0.0
H417 H 0.37047 0.11657 0.15132 0.0
H418 H 0.37389 0.09059 0.9562 0.0
C419 C 0.33545 0.0893 0.03628 0.0
C420 C 0.50074 0.31406 0.02298 0.0
C421 C 0.49697 0.34677 0.01887 0.0
C422 C 0.48966 0.36168 0.09158 0.0
C423 C 0.48515 0.31396 0.16461 0.0
C424 C 0.4957 0.29811 0.09827 0.0
C425 C 0.49956 0.264 0.12166 0.0
H426 H 0.52243 0.18216 0.47589 0.0
C427 C 0.47789 0.29246 0.23066 0.0
C428 C 0.48738 0.2626 0.20935 0.0
H429 H 0.49488 0.13088 0.26725 0.0
H430 H 0.48864 0.17897 0.19056 0.0
H431 H 0.53724 0.24954 0.47345 0.0
H432 H 0.49353 0.21616 0.53599 0.0
H433 H 0.45795 0.21303 0.48212 0.0
H434 H 0.47148 0.24881 0.52469 0.0
H435 H 0.51111 0.28017 0.45444 0.0
H436 H 0.53335 0.26458 0.37312 0.0
C437 C 0.53345 0.25523 0.11827 0.0
C438 C 0.48029 0.24345 0.0662 0.0
C439 C 0.4288 0.32645 0.49587 0.0
C440 C 0.41908 0.30775 0.56132 0.0
C441 C 0.40945 0.27763 0.54389 0.0
C442 C 0.41877 0.26398 0.47177 0.0
C443 C 0.43667 0.28137 0.41909 0.0
C444 C 0.43711 0.31235 0.42354 0.0
C445 C 0.45142 0.32606 0.3484 0.0
C446 C 0.46154 0.29721 0.30383 0.0
C447 C 0.45515 0.27215 0.35163 0.0
C448 C 0.47904 0.34634 0.37355 0.0
C449 C 0.42583 0.34316 0.30355 0.0
C450 C 0.51586 0.18094 0.41319 0.0
C451 C 0.50972 0.15217 0.37912 0.0
C452 C 0.50074 0.15223 0.29631 0.0
C453 C 0.4974 0.18001 0.25141 0.0
C454 C 0.50155 0.20864 0.28929 0.0
C455 C 0.50793 0.20791 0.37206 0.0
C456 C 0.49479 0.23539 0.41301 0.0
C457 C 0.47401 0.24681 0.3461 0.0
C458 C 0.48559 0.23845 0.2708 0.0
C459 C 0.52065 0.25877 0.42934 0.0
C460 C 0.47824 0.22776 0.49291 0.0
H461 H 0.47775 0.35913 0.21439 0.0
H462 H 0.50705 0.30142 0.96957 0.0
H463 H 0.45581 0.25006 0.06865 0.0
H464 H 0.482 0.21927 0.08499 0.0
H465 H 0.48833 0.24537 1.00279 0.0
H466 H 0.54721 0.27007 0.15896 0.0
H467 H 0.54254 0.25776 0.05598 0.0
H468 H 0.5364 0.2312 0.13738 0.0
H469 H 0.4344 0.35031 0.5041 0.0
H470 H 0.39868 0.2636 0.58949 0.0
H471 H 0.41439 0.24006 0.46092 0.0
H472 H 0.49035 0.33715 0.42822 0.0
H473 H 0.47174 0.36992 0.38751 0.0
H474 H 0.49729 0.34709 0.3273 0.0
H475 H 0.40434 0.32936 0.30292 0.0
H476 H 0.43109 0.34769 0.23973 0.0
H477 H 0.42077 0.3651 0.33398 0.0
H478 H 0.48775 0.38626 0.09301 0.0
C479 C 0.48353 0.34577 0.16267 0.0
Tb480 Tb 0.98239 0.02832 0.60029 0.0
C481 C 0.11507 0.03309 0.75666 0.0
N482 N 0.10062 0.01238 0.7093 0.0
C483 C 0.14614 1.00801 0.62826 0.0
C484 C 0.1452 0.04308 0.74034 0.0
C485 C 0.11639 0.99852 0.64815 0.0
C486 C 0.16045 0.03079 0.67377 0.0
C487 C 0.1144 0.06279 0.87933 0.0
C488 C 0.10014 0.04268 0.82465 0.0
C489 C 0.1439 0.07406 0.86197 0.0
C490 C 0.1593 0.06421 0.79242 0.0
Tb491 Tb 0.05013 1.00142 0.73962 0.0
N492 N 0.07166 0.03139 0.8382 0.0
C493 C 0.09876 0.07042 0.95016 0.0
C494 C 0.05707 0.03718 0.90964 0.0
C495 C 0.07015 0.05718 0.96593 0.0
H496 H 0.10602 0.98022 0.61388 0.0
H497 H 0.05813 0.06239 0.02131 0.0
H498 H 0.91959 0.98874 0.63728 0.0
H499 H 0.03531 0.05141 0.30797 0.0
H500 H 0.0349 0.02714 0.92209 0.0
H501 H 0.10885 0.08589 0.99375 0.0
H502 H 0.01911 0.0642 0.44565 0.0
H503 H 0.15806 0.99758 0.57823 0.0
H504 H 0.15523 0.08981 0.90268 0.0
H505 H 0.18233 0.07244 0.78061 0.0
H506 H 0.88854 0.94866 0.57058 0.0
H507 H 0.18358 0.03791 0.65876 0.0
H508 H 0.018 1.00321 0.24498 0.0
N509 N 0.95336 0.99017 0.54457 0.0
C510 C 0.9612 0.98088 0.46932 0.0
C511 C 0.90912 0.95729 0.54183 0.0
C512 C 0.94454 0.95769 0.42963 0.0
C513 C 0.92677 0.97991 0.57949 0.0
C514 C 0.91846 0.94559 0.46744 0.0
N515 N 0.99688 0.02128 0.46697 0.0
C516 C 0.01276 0.04219 0.42123 0.0
C517 C 0.99176 0.98899 0.34944 0.0
C518 C 0.98439 0.99647 0.42997 0.0
C519 C 0.01172 1.00816 0.30683 0.0
C520 C 0.0215 0.03537 0.34212 0.0
H521 H 0.90488 0.92792 0.43865 0.0
H522 H 0.94147 0.93019 0.32129 0.0
H523 H 0.98299 0.95761 0.25091 0.0
O524 O 0.96032 0.05693 0.51687 0.0
O525 O 0.98657 0.97794 0.62185 0.0
O526 O 0.03752 0.97202 0.63464 0.0
O527 O 0.93979 0.04712 0.62933 0.0
O528 O 0.03052 0.04496 0.57533 0.0
O529 O 0.05589 1.00247 0.60798 0.0
O530 O 0.03573 0.9702 0.82466 0.0
O531 O 0.04311 0.05102 0.75449 0.0
O532 O 0.99932 0.06533 0.68529 0.0
O533 O 0.08027 0.96583 0.77341 0.0
O534 O 1.00471 1.00778 0.80442 0.0
O535 O 0.96353 0.01439 0.71865 0.0
C536 C 0.01081 0.96041 0.61324 0.0
C537 C 0.92969 0.09468 0.57259 0.0
C538 C 0.95084 0.14373 0.60833 0.0
C539 C 0.93157 0.15755 0.55147 0.0
C540 C 0.91062 0.10829 0.51564 0.0
C541 C 0.91064 0.13993 0.50763 0.0
C542 C 0.94652 0.11297 0.62582 0.0
C543 C 0.05437 0.02698 0.56375 0.0
C544 C 0.93739 0.06252 0.56378 0.0
C545 C 0.95356 0.94842 0.35217 0.0
C546 C 0.97727 0.96397 0.31221 0.0
C547 C 0.02212 0.07138 0.73694 0.0
C548 C 0.05111 0.9206 0.79681 0.0
C549 C 0.01075 0.88259 0.77729 0.0
C550 C 0.03226 0.85946 0.78862 0.0
C551 C 0.07237 0.89737 0.80824 0.0
C552 C 0.02086 0.91287 0.776 0.0
C553 C 0.06305 0.86686 0.80222 0.0
C554 C 0.97461 0.01069 0.79195 0.0
C555 C 0.05898 0.95254 0.81565 0.0
H556 H 0.93396 0.18153 0.53743 0.0
H557 H 0.89709 0.09447 0.47469 0.0
H558 H 0.89636 0.15052 0.4627 0.0
H559 H 0.96053 0.1027 0.67127 0.0
H560 H 0.02515 0.83581 0.78862 0.0
H561 H 0.09586 0.90278 0.82381 0.0
H562 H 1.00413 0.93054 0.76676 0.0
H563 H 0.07945 0.84893 0.81157 0.0
Tb564 Tb 0.54224 0.03483 0.79574 0.0
C565 C 0.49623 0.9105 0.73807 0.0
N566 N 0.51726 0.92556 0.69227 0.0
C567 C 0.5497 0.88185 0.69342 0.0
C568 C 0.50216 0.8812 0.76838 0.0
C569 C 0.54288 0.91105 0.66545 0.0
C570 C 0.52965 0.86719 0.74691 0.0
C571 C 0.4448 0.90797 0.79214 0.0
C572 C 0.46807 0.92395 0.75034 0.0
C573 C 0.45137 0.87985 0.82821 0.0
C574 C 0.48004 0.86649 0.81641 0.0
Tb575 Tb 0.50486 0.9739 0.65485 0.0
N576 N 0.46255 0.9511 0.71389 0.0
C577 C 0.41523 0.91983 0.79235 0.0
C578 C 0.43293 0.96071 0.7062 0.0
C579 C 0.4091 0.94579 0.74707 0.0
H580 H 0.55833 0.92223 0.62385 0.0
H581 H 0.38599 0.95429 0.74329 0.0
H582 H 0.51374 0.02979 0.98024 0.0
H583 H 0.59313 0.13446 0.65642 0.0
H584 H 0.42738 0.98017 0.66958 0.0
H585 H 0.39669 0.90824 0.82358 0.0
H586 H 0.58846 0.07971 0.68827 0.0
H587 H 0.5705 0.87077 0.6742 0.0
H588 H 0.43398 0.8676 0.86213 0.0
H589 H 0.48439 0.84425 0.84181 0.0
H590 H 0.48588 0.0627 0.07599 0.0
H591 H 0.53508 0.84467 0.76891 0.0
H592 H 0.56062 0.17177 0.72786 0.0
N593 N 0.52093 0.0648 0.8942 0.0
C594 C 0.51935 0.09498 0.8795 0.0
C595 C 0.49487 0.07208 0.02036 0.0
C596 C 0.50444 0.11499 0.93279 0.0
C597 C 0.51041 0.05338 0.96573 0.0
C598 C 0.49131 0.10298 1.00304 0.0
N599 N 0.55212 0.08563 0.7724 0.0
C600 C 0.57385 0.0957 0.71888 0.0
C601 C 0.53809 0.13748 0.80125 0.0
C602 C 0.53578 0.10594 0.81552 0.0
C603 C 0.5582 0.14772 0.74112 0.0
C604 C 0.57665 0.12674 0.70091 0.0
H605 H 0.47965 0.11752 0.04581 0.0
H606 H 0.49298 0.16219 0.9556 0.0
H607 H 0.52251 0.18196 0.83962 0.0
O608 O 0.57638 1.00344 0.81872 0.0
O609 O 0.53122 0.054 0.67632 0.0
O610 O 0.49916 0.02111 0.60533 0.0
O611 O 0.57767 0.04773 0.87576 0.0
O612 O 0.56907 0.02604 0.68258 0.0
O613 O 0.55465 0.97933 0.62879 0.0
O614 O 0.47959 0.94415 0.58076 0.0
O615 O 0.53319 0.96102 0.76094 0.0
O616 O 0.52111 0.99468 0.8571 0.0
O617 O 0.51462 0.97229 0.53034 0.0
O618 O 0.47223 1.00816 0.70553 0.0
O619 O 0.49324 0.024 0.82568 0.0
C620 C 0.51363 0.04774 0.61382 0.0
C621 C 0.62545 0.02253 0.85206 0.0
C622 C 0.67028 0.99071 0.83188 0.0
C623 C 0.68839 0.01284 0.87095 0.0
C624 C 0.64385 0.04452 0.8904 0.0
C625 C 0.67536 0.04003 0.89754 0.0
C626 C 0.63945 0.99706 0.81687 0.0
C627 C 0.57429 1.00245 0.63424 0.0
C628 C 0.59192 0.0221 0.86422 0.0
C629 C 0.50462 0.14638 0.91609 0.0
C630 C 0.52144 0.15763 0.85013 0.0
C631 C 0.52619 0.96614 0.83738 0.0
C632 C 0.46859 0.96737 0.45997 0.0
C633 C 0.42553 1.00103 0.44229 0.0
C634 C 0.42244 0.99105 0.36235 0.0
C635 C 0.46568 0.95736 0.38017 0.0
C636 C 0.44854 0.98921 0.49027 0.0
C637 C 0.44259 0.96928 0.33138 0.0
C638 C 0.46893 0.01833 0.78036 0.0
C639 C 0.49127 0.95481 0.51484 0.0
H640 H 0.71225 1.0086 0.88373 0.0
H641 H 0.63374 0.06437 0.91819 0.0
H642 H 0.68937 0.05679 0.92844 0.0
H643 H 0.62558 0.97983 0.7875 0.0
H644 H 0.40471 1.0002 0.32418 0.0
H645 H 0.48097 0.94034 0.35604 0.0
H646 H 0.45062 0.99704 0.5518 0.0
H647 H 0.44026 0.96161 0.26967 0.0
Tb648 Tb 0.54269 0.47886 0.61618 0.0
C649 C 0.4387 0.51005 0.89618 0.0
N650 N 0.44045 0.49684 0.82236 0.0
C651 C 0.39796 0.46407 0.85541 0.0
C652 C 0.41714 0.50003 0.95399 0.0
C653 C 0.41977 0.47487 0.80021 0.0
C654 C 0.3968 0.4765 0.93297 0.0
C655 C 0.45489 0.55074 0.98525 0.0
C656 C 0.45713 0.53507 0.91122 0.0
C657 C 0.43488 0.53973 0.04527 0.0
C658 C 0.41592 0.51447 0.02954 0.0
Tb659 Tb 0.47492 0.51729 0.73356 0.0
N660 N 0.4751 0.54566 0.85028 0.0
C661 C 0.47164 0.57778 0.99512 0.0
C662 C 0.48981 0.57319 0.85795 0.0
C663 C 0.48879 0.58928 0.9307 0.0
H664 H 0.42034 0.46551 0.74013 0.0
H665 H 0.50086 0.61076 0.9367 0.0
H666 H 0.59958 0.46122 0.74568 0.0
H667 H 0.56152 0.52167 0.31594 0.0
H668 H 0.50277 0.58267 0.8083 0.0
H669 H 0.47055 0.59055 0.05096 0.0
H670 H 0.5385 0.48764 0.41936 0.0
H671 H 0.38199 0.44627 0.83801 0.0
H672 H 0.43304 0.55126 0.10285 0.0
H673 H 0.3998 0.50689 0.07524 0.0
H674 H 0.64864 0.48418 0.78816 0.0
H675 H 0.37981 0.46821 0.9755 0.0
H676 H 0.60503 0.55563 0.35222 0.0
N677 N 0.59206 0.49331 0.65181 0.0
C678 C 0.60545 0.51495 0.60529 0.0
C679 C 0.63653 0.49342 0.73706 0.0
C680 C 0.63389 0.52828 0.62526 0.0
C681 C 0.60854 0.48056 0.71303 0.0
C682 C 0.64885 0.51805 0.69434 0.0
N683 N 0.5673 0.50384 0.51319 0.0
C684 C 0.55727 0.50263 0.43533 0.0
C685 C 0.60687 0.53965 0.47553 0.0
C686 C 0.59246 0.52039 0.53207 0.0
C687 C 0.59477 0.54101 0.39761 0.0
C688 C 0.5703 0.52179 0.37685 0.0
H689 H 0.67072 0.5277 0.71225 0.0
H690 H 0.66879 0.56077 0.58753 0.0
H691 H 0.64488 0.57092 0.45583 0.0
O692 O 0.52415 0.43968 0.56338 0.0
O693 O 0.52548 0.5226 0.56575 0.0
O694 O 0.50763 0.54991 0.67384 0.0
O695 O 0.57278 0.44536 0.57128 0.0
O696 O 0.50047 0.48627 0.54522 0.0
O697 O 0.46435 0.48117 0.64186 0.0
O698 O 0.45232 0.53291 0.63095 0.0
O699 O 0.48243 0.47006 0.78154 0.0
O700 O 0.52677 0.45172 0.72313 0.0
O701 O 0.43498 0.54349 0.74722 0.0
O702 O 0.52135 0.52952 0.78234 0.0
O703 O 0.55048 0.48848 0.74674 0.0
C704 C 0.51819 0.54891 0.59881 0.0
C705 C 0.55138 0.39595 0.59484 0.0
C706 C 0.52071 0.35467 0.65283 0.0
C707 C 0.54573 0.34659 0.701 0.0
C708 C 0.57664 0.38661 0.64036 0.0
C709 C 0.57395 0.36146 0.69154 0.0
C710 C 0.52448 0.37816 0.59636 0.0
C711 C 0.47145 0.48204 0.56391 0.0
C712 C 0.55042 0.42633 0.55672 0.0
C713 C 0.64724 0.54976 0.5727 0.0
C714 C 0.63368 0.55548 0.49766 0.0
C715 C 0.50465 0.44948 0.7783 0.0
C716 C 0.42822 0.57959 0.64614 0.0
C717 C 0.44614 0.63177 0.65578 0.0
C718 C 0.42035 0.64162 0.61347 0.0
C719 C 0.40261 0.58915 0.60265 0.0
C720 C 0.45019 0.60084 0.66998 0.0
C721 C 0.39888 0.62016 0.58568 0.0
C722 C 0.54593 0.51253 0.79293 0.0
C723 C 0.43188 0.54789 0.67044 0.0
H724 H 0.54343 0.32882 0.74583 0.0
H725 H 0.59789 0.3995 0.63951 0.0
H726 H 0.59324 0.35476 0.72791 0.0
H727 H 0.50517 0.38457 0.55932 0.0
H728 H 0.41671 0.66565 0.60314 0.0
H729 H 0.38544 0.57282 0.58304 0.0
H730 H 0.46995 0.59349 0.70338 0.0
H731 H 0.37898 0.62761 0.55281 0.0
Tb732 Tb 0.03157 0.55268 0.58831 0.0
C733 C 0.0388 0.45188 0.83804 0.0
N734 N 0.03152 0.45265 0.7584 0.0
C735 C 0.06122 0.40782 0.73499 0.0
C736 C 0.05932 0.43016 0.86815 0.0
C737 C 0.04113 0.43011 0.70763 0.0
C738 C 0.07079 0.40816 0.81525 0.0
C739 C 0.03078 0.47135 0.97307 0.0
C740 C 0.02451 0.47216 0.88969 0.0
C741 C 0.05277 0.45112 1.0026 0.0
C742 C 0.0669 0.43045 0.95031 0.0
Tb743 Tb 0.99688 0.48847 0.72107 0.0
N744 N 1.00259 0.49071 0.85925 0.0
C745 C 0.01369 0.48974 0.02485 0.0
C746 C 0.98388 0.50636 0.91108 0.0
C747 C 0.98969 0.50678 0.9939 0.0
H748 H 0.03347 0.42931 0.64596 0.0
H749 H 0.97534 0.5199 0.03397 0.0
H750 H 1.00739 0.6165 0.68435 0.0
H751 H 0.02479 0.521 0.27375 0.0
H752 H 0.96412 0.51839 0.88937 0.0
H753 H 0.01785 0.48981 0.0892 0.0
H754 H 0.04573 0.51929 0.41075 0.0
H755 H 0.0693 0.39039 0.69418 0.0
H756 H 0.0581 0.45042 0.06631 0.0
H757 H 0.08297 0.41422 0.9744 0.0
H758 H 0.97275 0.65828 0.65595 0.0
H759 H 0.08643 0.39092 0.83617 0.0
H760 H 0.9849 0.55831 0.2396 0.0
N761 N 0.99912 0.59315 0.57322 0.0
C762 C 0.98663 0.59571 0.49812 0.0
C763 C 0.97601 0.64052 0.61153 0.0
C764 C 0.96699 0.61994 0.47883 0.0
C765 C 0.99528 0.61611 0.62811 0.0
C766 C 0.96139 0.64219 0.53719 0.0
N767 N 0.01579 0.55317 0.45721 0.0
C768 C 0.02739 0.53477 0.39832 0.0
C769 C 0.98332 0.57753 0.35981 0.0
C770 C 0.99522 0.57514 0.43843 0.0
C771 C 0.99351 0.55722 0.3007 0.0
C772 C 0.01596 0.53606 0.3198 0.0
H773 H 0.94655 0.66121 0.52461 0.0
H774 H 0.93878 0.63993 0.38604 0.0
H775 H 0.95272 0.60254 0.28225 0.0
O776 O 0.07878 0.5553 0.55918 0.0
O777 O 0.9874 0.53027 0.54675 0.0
O778 O 0.9632 0.52022 0.66488 0.0
O779 O 0.04983 0.59375 0.54412 0.0
O780 O 0.04628 0.50631 0.55011 0.0
O781 O 1.0069 0.4749 0.59321 0.0
O782 O 0.96925 0.45447 0.66739 0.0
O783 O 0.04831 0.49307 0.72024 0.0
O784 O 0.05762 0.54341 0.70044 0.0
O785 O 0.96729 0.46212 0.79371 0.0
O786 O 0.9858 0.53518 0.76766 0.0
O787 O 0.02282 0.56727 0.7155 0.0
C788 C 0.96142 0.5259 0.58662 0.0
C789 C 0.09651 0.60346 0.60611 0.0
C790 C 0.14439 0.62886 0.64036 0.0
C791 C 0.13145 0.64014 0.71149 0.0
C792 C 0.0836 0.61536 0.67728 0.0
C793 C 0.10097 0.63344 0.72963 0.0
C794 C 0.12699 0.61039 0.58801 0.0
C795 C 0.03004 0.48074 0.54315 0.0
C796 C 0.07774 0.58475 0.55063 0.0
C797 C 0.95428 0.62175 0.40135 0.0
C798 C 0.96228 0.60049 0.34216 0.0
C799 C 0.06598 0.51734 0.73259 0.0
C800 C 0.9217 0.44723 0.73355 0.0
C801 C 0.87641 0.47883 0.72993 0.0
C802 C 0.8606 0.45691 0.77628 0.0
C803 C 0.90574 0.42543 0.77918 0.0
C804 C 0.90601 0.47232 0.70323 0.0
C805 C 0.87495 0.42989 0.79843 0.0
C806 C 1.00319 0.56006 0.77347 0.0
C807 C 0.95529 0.44745 0.73394 0.0
H808 H 0.14485 0.65413 0.75231 0.0
H809 H 0.06006 0.61074 0.69273 0.0
H810 H 0.09075 0.64222 0.78434 0.0
H811 H 0.13719 0.60162 0.53308 0.0
H812 H 0.83761 0.46115 0.7978 0.0
H813 H 0.91745 0.40583 0.80327 0.0
H814 H 0.91797 0.48896 0.66773 0.0
H815 H 0.86279 0.4133 0.83492 0.0
C816 C 0.11417 1.00715 0.39641 0.0
C817 C 0.12798 0.03578 0.377 0.0
C818 C 0.093 0.05943 0.47847 0.0
C819 C 0.07784 0.03116 0.49405 0.0
N820 N 0.06869 0.98036 0.44354 0.0
N821 N 0.12279 0.09031 0.38468 0.0
C822 C 0.08692 1.00572 0.44575 0.0
C823 C 0.11488 0.06221 0.41347 0.0
N824 N 0.12769 0.98091 0.37134 0.0
N825 N 0.08795 0.08353 0.52832 0.0
H826 H 0.13752 0.09327 0.33562 0.0
H827 H 0.11211 0.11023 0.40338 0.0
H828 H 0.07293 0.08225 0.57689 0.0
H829 H 0.1008 0.10363 0.52591 0.0
H830 H 0.12055 0.95946 0.39108 0.0
H831 H 0.14768 0.98067 0.33701 0.0
H832 H 0.07244 0.96231 0.40403 0.0
H833 H 0.04771 0.9792 0.47333 0.0
C834 C 0.49385 0.12536 0.51202 0.0
C835 C 0.50879 0.12371 0.43513 0.0
C836 C 0.52195 0.07002 0.46987 0.0
C837 C 0.51032 0.0732 0.55026 0.0
N838 N 0.48887 0.10702 0.6497 0.0
N839 N 0.54255 0.0949 0.34987 0.0
C840 C 0.49786 0.102 0.57194 0.0
C841 C 0.52406 0.09599 0.41626 0.0
N842 N 0.47352 0.14821 0.52566 0.0
N843 N 0.53158 0.04218 0.44433 0.0
H844 H 0.54591 0.11345 0.3117 0.0
H845 H 0.557 0.07677 0.33734 0.0
H846 H 0.53286 0.02351 0.48254 0.0
H847 H 0.53661 0.03728 0.38432 0.0
H848 H 0.46135 0.15106 0.57911 0.0
H849 H 0.46557 0.16181 0.47902 0.0
H850 H 0.4835 0.12851 0.67191 0.0
H851 H 0.48869 0.09014 0.6937 0.0
C852 C 0.42918 0.48786 0.35264 0.0
C853 C 0.39783 0.48339 0.37262 0.0
C854 C 0.41605 0.46901 0.51012 0.0
C855 C 0.44637 0.48093 0.49576 0.0
N856 N 0.47764 0.50816 0.39587 0.0
N857 N 0.36169 0.47209 0.47843 0.0
C858 C 0.45192 0.49176 0.41468 0.0
C859 C 0.39138 0.47457 0.45372 0.0
N860 N 0.43738 0.4891 0.27323 0.0
N861 N 0.41082 0.45059 0.57485 0.0
H862 H 0.34333 0.47534 0.4395 0.0
H863 H 0.35557 0.46894 0.53865 0.0
H864 H 0.42848 0.44252 0.61067 0.0
H865 H 0.38987 0.43972 0.58524 0.0
H866 H 0.46013 0.48943 0.25406 0.0
H867 H 0.42146 0.48621 0.22697 0.0
H868 H 0.48092 0.51854 0.34001 0.0
H869 H 0.49352 0.51573 0.43743 0.0
C870 C 0.07146 0.43026 0.37938 0.0
C871 C 0.04749 0.4101 0.35246 0.0
C872 C 0.01245 0.44361 0.42981 0.0
C873 C 0.03678 0.45791 0.47335 0.0
N874 N 0.09169 0.46096 0.48925 0.0
N875 N 0.99377 0.39712 0.36781 0.0
C876 C 0.06696 0.45026 0.44763 0.0
C877 C 0.01755 0.41669 0.38198 0.0
N878 N 0.09845 0.43119 0.3379 0.0
N879 N 0.98483 0.45741 0.42716 0.0
H880 H 0.99627 0.37649 0.33773 0.0
H881 H 0.97221 0.40025 0.39356 0.0
H882 H 0.98214 0.47934 0.45004 0.0
H883 H 0.96692 0.44939 0.39125 0.0
H884 H 0.11574 0.44703 0.35027 0.0
H885 H 0.10184 0.4186 0.28526 0.0
H886 H 0.11389 0.45369 0.47745 0.0
H887 H 0.08981 0.47459 0.5403 0.0
C888 C 0.89821 0.01673 0.92078 0.0
C889 C 0.90663 1.00549 0.99788 0.0
C890 C 0.95805 0.99528 0.93985 0.0
C891 C 0.95124 0.00981 0.86474 0.0
N892 N 0.91503 0.0444 0.80322 0.0
N893 N 0.94863 0.99261 0.08426 0.0
C894 C 0.92134 0.02339 0.86076 0.0
C895 C 0.93803 0.99815 1.0085 0.0
N896 N 0.86804 0.02037 0.90271 0.0
N897 N 0.98157 0.97544 0.94405 0.0
H898 H 0.93469 0.99458 0.1352 0.0
H899 H 0.97176 0.98938 0.09653 0.0
H900 H 0.9904 0.96612 0.89182 0.0
H901 H 0.98711 0.96344 0.99605 0.0
H902 H 0.86054 0.0252 0.84456 0.0
H903 H 0.85046 0.01606 0.94382 0.0
H904 H 0.89452 0.05629 0.80135 0.0
H905 H 0.93185 0.05369 0.76669 0.0
C906 C 0.50743 0.90859 0.01318 0.0
C907 C 0.53117 0.88689 1.00692 0.0
C908 C 0.55384 0.91879 0.89633 0.0
C909 C 0.53 0.9408 0.9028 0.0
N910 N 0.49321 0.96117 0.99812 0.0
N911 N 0.58147 0.87655 0.95699 0.0
C912 C 0.50951 0.93711 0.97025 0.0
C913 C 0.55563 0.89368 0.95239 0.0
N914 N 0.48193 0.90178 0.0575 0.0
N915 N 0.57603 0.92266 0.83925 0.0
H916 H 0.58548 0.86172 1.00474 0.0
H917 H 0.59974 0.87801 0.91751 0.0
H918 H 0.57991 0.94325 0.80997 0.0
H919 H 0.59054 0.90542 0.82044 0.0
H920 H 0.46243 0.91526 0.05679 0.0
H921 H 0.4793 0.88138 0.0889 0.0
H922 H 0.48057 0.96039 0.0515 0.0
H923 H 0.49491 0.98276 0.97361 0.0
C924 C 0.60838 0.49799 0.95642 0.0
C925 C 0.6198 0.5275 0.97689 0.0
C926 C 0.58165 0.54848 0.87892 0.0
C927 C 0.56912 0.51898 0.86242 0.0
N928 N 0.56355 0.46877 0.91801 0.0
N929 N 0.60876 0.58116 0.97373 0.0
C930 C 0.58058 0.49464 0.91052 0.0
C931 C 0.60378 0.55277 0.94286 0.0
N932 N 0.62441 0.47275 0.97738 0.0
N933 N 0.57351 0.57258 0.83223 0.0
H934 H 0.62332 0.58514 0.0224 0.0
H935 H 0.59565 0.59981 0.95736 0.0
H936 H 0.55749 0.57086 0.78627 0.0
H937 H 0.58452 0.59371 0.83502 0.0
H938 H 0.61839 0.45102 0.95712 0.0
H939 H 0.6452 0.47383 1.00777 0.0
H940 H 0.5693 0.45112 0.95695 0.0
H941 H 0.54154 0.46745 0.89477 0.0
C942 C 0.97723 0.62869 0.91014 0.0
C943 C 1.00171 0.63144 0.96628 0.0
C944 C 0.02157 0.58237 0.91121 0.0
C945 C 1.00018 0.58248 0.84606 0.0
N946 N 0.95737 0.60713 0.78582 0.0
N947 N 0.04837 0.61063 0.01704 0.0
C948 C 0.97774 0.60587 0.84728 0.0
C949 C 0.02396 0.60793 0.96638 0.0
N950 N 0.95313 0.64809 0.91728 0.0
N951 N 0.03928 0.55737 0.92196 0.0
H952 H 0.05007 0.62806 0.05968 0.0
H953 H 0.06747 0.59669 0.01382 0.0
H954 H 0.03894 0.5391 0.88189 0.0
H955 H 0.0527 0.55391 0.97282 0.0
H956 H 0.933 0.64587 0.88434 0.0
H957 H 0.95215 0.66476 0.96209 0.0
H958 H 0.94366 0.62588 0.77453 0.0
H959 H 0.95598 0.58994 0.74296 0.0
C960 C 0.99831 0.21224 0.64053 0.0
C961 C 0.02479 0.20166 0.60164 0.0
C962 C 1.00874 0.1498 0.61328 0.0
C963 C 0.97885 0.16017 0.63576 0.0
N964 N 0.95012 0.19856 0.70569 0.0
N965 N 0.0627 0.16337 0.60483 0.0
C966 C 0.9756 0.19055 0.66353 0.0
C967 C 0.03287 0.17137 0.613 0.0
N968 N 0.99365 0.24278 0.64522 0.0
N969 N 0.01352 0.12206 0.57851 0.0
H970 H 0.07977 0.17995 0.59704 0.0
H971 H 0.0701 0.14107 0.61199 0.0
H972 H 0.99669 0.10587 0.56725 0.0
H973 H 0.03426 0.11644 0.5517 0.0
H974 H 0.97333 0.2524 0.6654 0.0
H975 H 0.01058 0.25818 0.62634 0.0
H976 H 0.94699 0.22017 0.73007 0.0
H977 H 0.93342 0.18243 0.72139 0.0
C978 C 0.39691 0.07672 0.52026 0.0
C979 C 0.36534 0.0712 0.5183 0.0
C980 C 0.37523 0.01674 0.5019 0.0
C981 C 0.40534 0.02449 0.47688 0.0
N982 N 0.4449 0.06269 0.45994 0.0
N983 N 0.32407 0.03484 0.53129 0.0
C984 C 0.41664 0.05453 0.48789 0.0
C985 C 0.35446 0.04063 0.51941 0.0
N986 N 0.40734 0.10441 0.54493 0.0
N987 N 0.36672 0.98684 0.50864 0.0
H988 H 0.30916 0.05151 0.55178 0.0
H989 H 0.31371 0.01375 0.5212 0.0
H990 H 0.38162 0.96907 0.49566 0.0
H991 H 0.34588 0.97962 0.53279 0.0
H992 H 0.43047 0.10867 0.55418 0.0
H993 H 0.39229 0.12125 0.56453 0.0
H994 H 0.45159 0.08539 0.45448 0.0
H995 H 0.46009 0.04725 0.43437 0.0
C996 C 0.45602 0.29609 0.66578 0.0
C997 C 0.43164 0.31488 0.64282 0.0
C998 C 0.46338 0.35884 0.67597 0.0
C999 C 0.48984 0.34028 0.66379 0.0
N1000 N 0.50987 0.28925 0.64408 0.0
N1001 N 0.40806 0.363 0.65874 0.0
C1002 C 0.48598 0.30813 0.66001 0.0
C1003 C 0.43381 0.34586 0.66321 0.0
N1004 N 0.4506 0.26679 0.68848 0.0
N1005 N 0.4666 0.38866 0.69703 0.0
H1006 H 0.3868 0.35273 0.64751 0.0
H1007 H 0.40777 0.38661 0.66378 0.0
H1008 H 0.48795 0.39886 0.70307 0.0
H1009 H 0.44846 0.40262 0.71303 0.0
H1010 H 0.46794 0.2525 0.70831 0.0
H1011 H 0.42834 0.25852 0.69653 0.0
H1012 H 0.50693 0.26586 0.63594 0.0
H1013 H 0.53186 0.29703 0.63047 0.0
C1014 C 0.22081 0.60878 0.56716 0.0
C1015 C 0.22289 0.63103 0.50515 0.0
C1016 C 0.18281 0.66072 0.56851 0.0
C1017 C 0.1764 0.63556 0.61869 0.0
N1018 N 0.19464 0.59193 0.68934 0.0
N1019 N 0.21278 0.68239 0.46206 0.0
C1020 C 0.19772 0.6119 0.6268 0.0
C1021 C 0.20701 0.65873 0.51279 0.0
N1022 N 0.23867 0.58346 0.56412 0.0
N1023 N 0.16456 0.6857 0.57009 0.0
H1024 H 0.23026 0.68207 0.41898 0.0
H1025 H 0.23026 0.68207 0.41898 0.0
H1026 H 0.14649 0.68783 0.61091 0.0
H1027 H 0.16817 0.70427 0.53188 0.0
H1028 H 0.23574 0.56464 0.60139 0.0
H1029 H 0.2566 0.5811 0.52331 0.0
H1030 H 0.21019 0.57487 0.70238 0.0
H1031 H 0.17734 0.59427 0.73234 0.0
C1032 C 0.92602 0.88419 0.82934 0.0
C1033 C 0.9176 0.85531 0.80114 0.0
C1034 C 0.96407 0.85521 0.71936 0.0
C1035 C 0.97723 0.87587 0.77653 0.0
N1036 N 0.96869 0.90759 0.89545 0.0
N1037 N 0.91787 0.82688 0.67895 0.0
C1038 C 0.95755 0.8907 0.83292 0.0
C1039 C 0.93271 0.84626 0.72988 0.0
N1040 N 0.90467 0.90321 0.86053 0.0
N1041 N 0.9815 0.84366 0.65845 0.0
H1042 H 0.89546 0.81977 0.69153 0.0
H1043 H 0.92687 0.8193 0.62445 0.0
H1044 H 1.00379 0.85127 0.64716 0.0
H1045 H 0.97389 0.8269 0.61873 0.0
H1046 H 0.91026 0.92504 0.88111 0.0
H1047 H 0.88141 0.89753 0.85841 0.0
H1048 H 0.95438 0.91638 0.94008 0.0
H1049 H 0.99193 0.90953 0.9084 0.0
C1050 C 0.72542 0.92558 0.79003 0.0
C1051 C 0.71039 0.90335 0.83803 0.0
C1052 C 0.66559 0.93334 0.8465 0.0
C1053 C 0.6822 0.95934 0.81796 0.0
N1054 N 0.72474 0.9775 0.7372 0.0
N1055 N 0.66175 0.87845 0.83494 0.0
C1056 C 0.7112 0.95461 0.78029 0.0
C1057 C 0.6786 0.90454 0.83457 0.0
N1058 N 0.75191 0.91801 0.75197 0.0
N1059 N 0.64104 0.93581 0.89681 0.0
H1060 H 0.67231 0.85722 0.83325 0.0
H1061 H 0.63803 0.87879 0.82961 0.0
H1062 H 0.63301 0.95636 0.91935 0.0
H1063 H 0.63189 0.9168 0.92584 0.0
H1064 H 0.76415 0.93251 0.71397 0.0
H1065 H 0.76042 0.89592 0.75621 0.0
H1066 H 0.74663 0.97626 0.71269 0.0
H1067 H 0.71346 0.99781 0.72507 0.0
C1068 C 0.49251 0.66768 0.82087 0.0
C1069 C 0.52105 0.66982 0.77944 0.0
C1070 C 0.49395 0.6628 0.65183 0.0
C1071 C 0.46794 0.65281 0.69515 0.0
N1072 N 0.44152 0.64597 0.8216 0.0
N1073 N 0.54894 0.67061 0.65377 0.0
C1074 C 0.46684 0.65561 0.77997 0.0
C1075 C 0.52173 0.66817 0.69404 0.0
N1076 N 0.48936 0.67886 0.89737 0.0
N1077 N 0.49198 0.66682 0.57069 0.0
H1078 H 0.57003 0.67114 0.68296 0.0
H1079 H 0.55085 0.67062 0.59145 0.0
H1080 H 0.4719 0.66239 0.53872 0.0
H1081 H 0.50894 0.67778 0.53743 0.0
H1082 H 0.46837 0.67994 0.92716 0.0
H1083 H 0.50673 0.69059 0.92734 0.0
H1084 H 0.44114 0.64358 0.88409 0.0
H1085 H 0.42142 0.63891 0.79299 0.0
C1086 C 0.81627 0.53928 0.71785 0.0
C1087 C 0.83322 0.56463 0.74698 0.0
C1088 C 0.88012 0.5367 0.74032 0.0
C1089 C 0.86336 0.50983 0.71844 0.0
N1090 N 0.81839 0.48991 0.65206 0.0
N1091 N 0.88022 0.59196 0.74113 0.0
C1092 C 0.83235 0.51267 0.69466 0.0
C1093 C 0.86496 0.56492 0.73704 0.0
N1094 N 0.78509 0.53966 0.71863 0.0
N1095 N 0.90817 0.53537 0.7761 0.0
H1096 H 0.8685 0.61255 0.74475 0.0
H1097 H 0.90369 0.59359 0.73314 0.0
H1098 H 0.91854 0.51523 0.7933 0.0
H1099 H 0.91919 0.55458 0.79937 0.0
H1100 H 0.77162 0.52036 0.70803 0.0
H1101 H 0.77285 0.55927 0.73177 0.0
H1102 H 0.79636 0.49174 0.62881 0.0
H1103 H 0.83022 0.47061 0.63324 0.0
C1104 C 0.05494 0.14535 0.84524 0.0
C1105 C 0.02822 0.15958 0.87723 0.0
C1106 C 0.99819 0.1154 0.82267 0.0
C1107 C 0.02413 0.10273 0.7824 0.0
N1108 N 0.07757 0.10984 0.74957 0.0
N1109 N 0.97322 0.15996 0.87911 0.0
C1110 C 0.05257 0.11901 0.79225 0.0
C1111 C 0.99957 0.14517 0.85993 0.0
N1112 N 0.083 0.15606 0.86841 0.0
N1113 N 0.97276 0.0977 0.83305 0.0
H1114 H 0.97321 0.1815 0.90569 0.0
H1115 H 0.9517 0.15219 0.86099 0.0
H1116 H 0.97255 0.07489 0.8166 0.0
H1117 H 0.95399 0.10422 0.86765 0.0
H1118 H 0.10332 0.14466 0.85664 0.0
H1119 H 0.08578 0.17508 0.90544 0.0
H1120 H 0.09799 0.12222 0.7469 0.0
H1121 H 0.07707 0.09132 0.71049 0.0
C1122 C 0.39967 0.01224 0.93052 0.0
C1123 C 0.37821 0.03354 0.90018 0.0
C1124 C 0.41514 0.04389 0.78677 0.0
C1125 C 0.43645 0.02239 0.81739 0.0
N1126 N 0.44176 0.97843 0.90161 0.0
N1127 N 0.3632 0.06413 0.78735 0.0
C1128 C 0.42657 1.00447 0.88454 0.0
C1129 C 0.38537 0.04761 0.82445 0.0
N1130 N 0.39536 1.0002 1.00554 0.0
N1131 N 0.4236 0.06159 0.72282 0.0
H1132 H 0.34143 0.06673 0.81238 0.0
H1133 H 0.36524 0.07261 0.729 0.0
H1134 H 0.44407 0.05854 0.69162 0.0
H1135 H 0.41126 0.08039 0.70384 0.0
H1136 H 0.412 0.98752 0.03487 0.0
H1137 H 0.37616 1.00472 0.04083 0.0
H1138 H 0.43359 0.96226 0.94247 0.0
H1139 H 0.46051 0.97142 0.86775 0.0
C1140 C 0.52689 0.37403 0.90183 0.0
C1141 C 0.49894 0.36764 0.94351 0.0
C1142 C 0.47956 0.41668 0.89253 0.0
C1143 C 0.50489 0.42191 0.84002 0.0
N1144 N 0.55838 0.40891 0.82223 0.0
N1145 N 0.44555 0.37996 0.95457 0.0
C1146 C 0.53007 0.40101 0.8507 0.0
C1147 C 0.47426 0.38768 0.92894 0.0
N1148 N 0.55058 0.35432 0.91141 0.0
N1149 N 0.46417 0.44081 0.92285 0.0
H1150 H 0.44061 0.35888 0.98084 0.0
H1151 H 0.42662 0.39345 0.942 0.0
H1152 H 0.47359 0.46261 0.9192 0.0
H1153 H 0.44711 0.43838 0.96657 0.0
H1154 H 0.57055 0.35465 0.87727 0.0
H1155 H 0.54949 0.3359 0.95071 0.0
H1156 H 0.57837 0.39739 0.83542 0.0
H1157 H 0.56331 0.42931 0.79405 0.0
C1158 C 0.13647 0.48292 0.84927 0.0
C1159 C 0.15103 0.50855 0.88636 0.0
C1160 C 0.11021 0.54061 0.8246 0.0
C1161 C 0.0965 0.51511 0.78267 0.0
N1162 N 0.10819 0.46481 0.73296 0.0
N1163 N 0.15646 0.5631 0.88165 0.0
C1164 C 0.11292 0.48704 0.789 0.0
C1165 C 0.13924 0.5377 0.86545 0.0
N1166 N 0.14438 0.45429 0.87226 0.0
N1167 N 0.09558 0.56784 0.82916 0.0
H1168 H 0.17835 0.56203 0.90626 0.0
H1169 H 0.1507 0.58477 0.86162 0.0
H1170 H 0.07464 0.57226 0.8031 0.0
H1171 H 0.10272 0.58538 0.8673 0.0
H1172 H 0.13268 0.4349 0.85238 0.0
H1173 H 0.16064 0.45018 0.91664 0.0
H1174 H 0.1214 0.4452 0.73017 0.0
H1175 H 0.09426 0.46791 0.68295 0.0
C1176 C 0.0292 0.89211 0.46593 0.0
C1177 C 1.00072 0.87619 0.45926 0.0
C1178 C 0.98023 0.91204 0.56451 0.0
C1179 C 1.00843 0.92897 0.56769 0.0
N1180 N 0.06314 0.92181 0.55039 0.0
N1181 N 0.94829 0.87228 0.503 0.0
C1182 C 0.0339 0.91532 0.52665 0.0
C1183 C 0.97603 0.88672 0.50873 0.0
N1184 N 0.05189 0.88616 0.41154 0.0
N1185 N 0.95851 0.91783 0.62175 0.0
H1186 H 0.94511 0.85208 0.47095 0.0
H1187 H 0.92812 0.88065 0.52751 0.0
H1188 H 0.96214 0.93296 0.66923 0.0
H1189 H 0.93826 0.90548 0.62856 0.0
H1190 H 0.07163 0.89956 0.40657 0.0
H1191 H 0.04961 0.87 0.36581 0.0
H1192 H 0.08218 0.9109 0.52648 0.0
H1193 H 0.06845 0.93357 0.60286 0.0
C1194 C 0.63748 0.02286 0.47136 0.0
C1195 C 0.65882 0.99868 0.47892 0.0
C1196 C 0.62509 0.9769 0.58745 0.0
C1197 C 0.60418 1.0018 0.58236 0.0
N1198 N 0.59509 0.0517 0.52674 0.0
N1199 N 0.67532 0.95573 0.55611 0.0
C1200 C 0.61195 0.02574 0.52682 0.0
C1201 C 0.65314 0.97659 0.54036 0.0
N1202 N 0.64075 0.04261 0.40832 0.0
N1203 N 0.61831 0.95321 0.63782 0.0
H1204 H 0.69573 0.9548 0.52345 0.0
H1205 H 0.6749 0.94123 0.60567 0.0
H1206 H 0.60012 0.95357 0.67838 0.0
H1207 H 0.62986 0.9326 0.63726 0.0
H1208 H 0.62413 0.05823 0.39189 0.0
H1209 H 0.65915 0.04182 0.36823 0.0
H1210 H 0.6016 0.07144 0.49625 0.0
H1211 H 0.57557 0.05442 0.56161 0.0
C1212 C 0.50705 0.61502 0.44086 0.0
C1213 C 0.53546 0.63121 0.44518 0.0
C1214 C 0.55126 0.59531 0.55481 0.0
C1215 C 0.52339 0.57832 0.54841 0.0
N1216 N 0.47401 0.57345 0.48593 0.0
N1217 N 0.5861 0.63412 0.50138 0.0
C1218 C 0.50114 0.58878 0.49164 0.0
C1219 C 0.55783 0.62054 0.50119 0.0
N1220 N 0.48638 0.6235 0.38355 0.0
N1221 N 0.57152 0.5876 0.61365 0.0
H1222 H 0.59094 0.65403 0.46935 0.0
H1223 H 0.60504 0.62526 0.53066 0.0
H1224 H 0.5684 0.56855 0.6502 0.0
H1225 H 0.59046 0.60079 0.62961 0.0
H1226 H 0.4667 0.6113 0.36876 0.0
H1227 H 0.48939 0.64268 0.34742 0.0
H1228 H 0.45467 0.58142 0.45681 0.0
H1229 H 0.47069 0.55233 0.51206 0.0
C1230 C 0.88298 0.55744 0.50117 0.0
C1231 C 0.87398 0.53502 0.4431 0.0
C1232 C 0.91705 0.50357 0.49535 0.0
C1233 C 0.92974 0.52824 0.54165 0.0
N1234 N 0.92251 0.57948 0.58698 0.0
N1235 N 0.88557 0.48678 0.38234 0.0
C1236 C 0.91177 0.55526 0.54426 0.0
C1237 C 0.89179 0.50803 0.44021 0.0
N1238 N 0.86343 0.58082 0.51647 0.0
N1239 N 0.92781 0.47504 0.50733 0.0
H1240 H 0.86719 0.48865 0.3428 0.0
H1241 H 0.89989 0.46847 0.37037 0.0
H1242 H 0.94553 0.47091 0.54708 0.0
H1243 H 0.91735 0.45554 0.48386 0.0
H1244 H 0.8665 0.5965 0.56292 0.0
H1245 H 0.84234 0.58259 0.48759 0.0
H1246 H 0.91297 0.60107 0.58487 0.0
H1247 H 0.94232 0.57815 0.62097 0.0
loop_
_geom_bond_atom_site_label_1
_geom_bond_atom_site_label_2
_geom_bond_distance
_geom_bond_site_symmetry_2
_ccdc_geom_bond_type
C0 C1 1.391 . S
C0 C4 1.391 . S
C0 H42 0.948 . S
C1 C0 1.391 . S
C1 C2 1.391 . S
C2 C1 1.391 . S
C2 H58 0.947 . S
C2 C59 1.392 . S
C3 C4 1.391 . S
C3 C7 1.397 . S
C3 C59 1.419 . S
C4 C0 1.391 . S
C4 C3 1.391 . S
C4 C5 1.399 . S
C5 C4 1.399 . S
C5 C8 1.396 . S
C5 C17 1.453 . S
C5 C18 1.684 . S
H6 C30 0.948 . S
C7 C3 1.397 . S
C7 C8 1.394 . S
C7 C26 1.723 . S
C8 C5 1.396 . S
C8 C7 1.394 . S
C8 C38 1.723 . S
H9 C32 0.947 . S
H10 C33 0.948 . S
H11 C39 0.982 . S
H12 C40 0.979 . S
H13 C40 0.980 . S
H14 C40 0.983 . S
H15 C39 0.979 . S
H16 C39 0.977 . S
C17 C5 1.453 . S
C17 H46 0.982 . S
C17 H47 0.979 . S
C17 H48 0.977 . S
C18 C5 1.684 . S
C18 H43 0.979 . S
C18 H44 0.980 . S
C18 H45 0.983 . S
C19 C20 1.391 . S
C19 C24 1.391 . S
C19 H49 0.948 . S
C20 C19 1.391 . S
C20 C21 1.391 . S
C21 C20 1.391 . S
C21 C22 1.392 . S
C21 H50 0.947 1_554 S
C22 C21 1.392 . S
C22 C23 1.419 . S
C22 H51 0.948 . S
C23 C22 1.419 . S
C23 C24 1.391 . S
C23 C27 1.397 . S
C24 C19 1.391 . S
C24 C23 1.391 . S
C24 C25 1.399 . S
C25 C24 1.399 . S
C25 C26 1.396 . S
C25 C28 1.453 . S
C25 C29 1.684 . S
C26 C7 1.723 . S
C26 C25 1.396 . S
C26 C27 1.394 . S
C27 C23 1.397 . S
C27 C26 1.394 . S
C27 C37 1.723 . S
C28 C25 1.453 . S
C28 H52 0.982 . S
C28 H53 0.979 . S
C28 H54 0.977 . S
C29 C25 1.684 . S
C29 H55 0.979 . S
C29 H56 0.980 . S
C29 H57 0.983 . S
C30 H6 0.948 . S
C30 C31 1.391 . S
C30 C35 1.391 . S
C31 C30 1.391 . S
C31 C32 1.391 . S
C32 H9 0.947 . S
C32 C31 1.391 . S
C32 C33 1.392 . S
C33 H10 0.948 . S
C33 C32 1.392 . S
C33 C34 1.419 . S
C34 C33 1.419 . S
C34 C35 1.391 . S
C34 C38 1.397 . S
C35 C30 1.391 . S
C35 C34 1.391 . S
C35 C36 1.399 . S
C36 C35 1.399 . S
C36 C37 1.396 . S
C36 C39 1.453 . S
C36 C40 1.684 . S
C37 C27 1.723 . S
C37 C36 1.396 . S
C37 C38 1.394 . S
C38 C8 1.723 . S
C38 C34 1.397 . S
C38 C37 1.394 . S
C39 H11 0.982 . S
C39 H15 0.979 . S
C39 H16 0.977 . S
C39 C36 1.453 . S
C40 H12 0.979 . S
C40 H13 0.980 . S
C40 H14 0.983 . S
C40 C36 1.684 . S
H41 C59 0.948 . S
H42 C0 0.948 . S
H43 C18 0.979 . S
H44 C18 0.980 . S
H45 C18 0.983 . S
H46 C17 0.982 . S
H47 C17 0.979 . S
H48 C17 0.977 . S
H49 C19 0.948 . S
H50 C21 0.947 1_556 S
H51 C22 0.948 . S
H52 C28 0.982 . S
H53 C28 0.979 . S
H54 C28 0.977 . S
H55 C29 0.979 . S
H56 C29 0.980 . S
H57 C29 0.983 . S
H58 C2 0.947 . S
C59 C2 1.392 . S
C59 C3 1.419 . S
C59 H41 0.948 . S
C60 C61 1.391 . S
C60 C64 1.391 . S
C60 H102 0.948 . S
C61 C60 1.391 . S
C61 C62 1.391 . S
C62 C61 1.391 . S
C62 H118 0.947 . S
C62 C119 1.392 . S
C63 C64 1.391 . S
C63 C67 1.397 . S
C63 C119 1.419 . S
C64 C60 1.391 . S
C64 C63 1.391 . S
C64 C65 1.399 . S
C65 C64 1.399 . S
C65 C68 1.396 . S
C65 C77 1.453 . S
C65 C78 1.684 . S
H66 C90 0.948 . S
C67 C63 1.397 . S
C67 C68 1.394 . S
C67 C86 1.723 . S
C68 C65 1.396 . S
C68 C67 1.394 . S
C68 C98 1.723 . S
H69 C92 0.947 . S
H70 C93 0.948 . S
H71 C99 0.982 1_455 S
H72 C100 0.979 . S
H73 C100 0.980 . S
H74 C100 0.983 . S
H75 C99 0.979 . S
H76 C99 0.977 . S
C77 C65 1.453 . S
C77 H106 0.982 1_655 S
C77 H107 0.979 . S
C77 H108 0.977 . S
C78 C65 1.684 . S
C78 H103 0.979 . S
C78 H104 0.980 . S
C78 H105 0.983 . S
C79 C80 1.391 . S
C79 C84 1.391 . S
C79 H109 0.948 . S
C80 C79 1.391 . S
C80 C81 1.391 . S
C81 C80 1.391 . S
C81 C82 1.392 . S
C81 H110 0.947 . S
C82 C81 1.392 . S
C82 C83 1.419 . S
C82 H111 0.948 . S
C83 C82 1.419 . S
C83 C84 1.391 . S
C83 C87 1.397 . S
C84 C79 1.391 . S
C84 C83 1.391 . S
C84 C85 1.399 . S
C85 C84 1.399 . S
C85 C86 1.396 . S
C85 C88 1.453 . S
C85 C89 1.684 . S
C86 C67 1.723 . S
C86 C85 1.396 . S
C86 C87 1.394 . S
C87 C83 1.397 . S
C87 C86 1.394 . S
C87 C97 1.723 . S
C88 C85 1.453 . S
C88 H112 0.982 1_655 S
C88 H113 0.979 . S
C88 H114 0.977 . S
C89 C85 1.684 . S
C89 H115 0.979 . S
C89 H116 0.980 . S
C89 H117 0.983 . S
C90 H66 0.948 . S
C90 C91 1.391 . S
C90 C95 1.391 . S
C91 C90 1.391 . S
C91 C92 1.391 . S
C92 H69 0.947 . S
C92 C91 1.391 . S
C92 C93 1.392 . S
C93 H70 0.948 . S
C93 C92 1.392 . S
C93 C94 1.419 . S
C94 C93 1.419 . S
C94 C95 1.391 . S
C94 C98 1.397 . S
C95 C90 1.391 . S
C95 C94 1.391 . S
C95 C96 1.399 . S
C96 C95 1.399 . S
C96 C97 1.396 . S
C96 C99 1.453 . S
C96 C100 1.684 . S
C97 C87 1.723 . S
C97 C96 1.396 . S
C97 C98 1.394 . S
C98 C68 1.723 . S
C98 C94 1.397 . S
C98 C97 1.394 . S
C99 H71 0.982 1_655 S
C99 H75 0.979 . S
C99 H76 0.977 . S
C99 C96 1.453 . S
C100 H72 0.979 . S
C100 H73 0.980 . S
C100 H74 0.983 . S
C100 C96 1.684 . S
H101 C119 0.948 . S
H102 C60 0.948 . S
H103 C78 0.979 . S
H104 C78 0.980 . S
H105 C78 0.983 . S
H106 C77 0.982 1_455 S
H107 C77 0.979 . S
H108 C77 0.977 . S
H109 C79 0.948 . S
H110 C81 0.947 . S
H111 C82 0.948 . S
H112 C88 0.982 1_455 S
H113 C88 0.979 . S
H114 C88 0.977 . S
H115 C89 0.979 . S
H116 C89 0.980 . S
H117 C89 0.983 . S
H118 C62 0.947 . S
C119 C62 1.392 . S
C119 C63 1.419 . S
C119 H101 0.948 . S
C120 C121 1.391 . S
C120 C124 1.391 . S
C120 H162 0.948 . S
C121 C120 1.391 . S
C121 C122 1.391 . S
C122 C121 1.391 . S
C122 H178 0.947 . S
C122 C179 1.392 . S
C123 C124 1.391 . S
C123 C127 1.397 . S
C123 C179 1.419 . S
C124 C120 1.391 . S
C124 C123 1.391 . S
C124 C125 1.399 . S
C125 C124 1.399 . S
C125 C128 1.396 . S
C125 C137 1.453 . S
C125 C138 1.684 . S
H126 C150 0.948 . S
C127 C123 1.397 . S
C127 C128 1.394 . S
C127 C146 1.723 . S
C128 C125 1.396 . S
C128 C127 1.394 . S
C128 C158 1.723 . S
H129 C152 0.947 . S
H130 C153 0.948 . S
H131 C159 0.982 1_545 S
H132 C160 0.979 . S
H133 C160 0.980 . S
H134 C160 0.983 . S
H135 C159 0.979 . S
H136 C159 0.977 . S
C137 C125 1.453 . S
C137 H166 0.982 1_565 S
C137 H167 0.979 . S
C137 H168 0.977 . S
C138 C125 1.684 . S
C138 H163 0.979 . S
C138 H164 0.980 . S
C138 H165 0.983 . S
C139 C140 1.391 . S
C139 C144 1.391 . S
C139 H169 0.948 . S
C140 C139 1.391 . S
C140 C141 1.391 . S
C141 C140 1.391 . S
C141 C142 1.392 . S
C141 H170 0.947 . S
C142 C141 1.392 . S
C142 C143 1.419 . S
C142 H171 0.948 . S
C143 C142 1.419 . S
C143 C144 1.391 . S
C143 C147 1.397 . S
C144 C139 1.391 . S
C144 C143 1.391 . S
C144 C145 1.399 . S
C145 C144 1.399 . S
C145 C146 1.396 . S
C145 C148 1.453 . S
C145 C149 1.684 . S
C146 C127 1.723 . S
C146 C145 1.396 . S
C146 C147 1.394 . S
C147 C143 1.397 . S
C147 C146 1.394 . S
C147 C157 1.723 . S
C148 C145 1.453 . S
C148 H172 0.982 1_565 S
C148 H173 0.979 . S
C148 H174 0.977 . S
C149 C145 1.684 . S
C149 H175 0.979 . S
C149 H176 0.980 . S
C149 H177 0.983 . S
C150 H126 0.948 . S
C150 C151 1.391 . S
C150 C155 1.391 . S
C151 C150 1.391 . S
C151 C152 1.391 . S
C152 H129 0.947 . S
C152 C151 1.391 . S
C152 C153 1.392 . S
C153 H130 0.948 . S
C153 C152 1.392 . S
C153 C154 1.419 . S
C154 C153 1.419 . S
C154 C155 1.391 . S
C154 C158 1.397 . S
C155 C150 1.391 . S
C155 C154 1.391 . S
C155 C156 1.399 . S
C156 C155 1.399 . S
C156 C157 1.396 . S
C156 C159 1.453 . S
C156 C160 1.684 . S
C157 C147 1.723 . S
C157 C156 1.396 . S
C157 C158 1.394 . S
C158 C128 1.723 . S
C158 C154 1.397 . S
C158 C157 1.394 . S
C159 H131 0.982 1_565 S
C159 H135 0.979 . S
C159 H136 0.977 . S
C159 C156 1.453 . S
C160 H132 0.979 . S
C160 H133 0.980 . S
C160 H134 0.983 . S
C160 C156 1.684 . S
H161 C179 0.948 . S
H162 C120 0.948 . S
H163 C138 0.979 . S
H164 C138 0.980 . S
H165 C138 0.983 . S
H166 C137 0.982 1_545 S
H167 C137 0.979 . S
H168 C137 0.977 . S
H169 C139 0.948 . S
H170 C141 0.947 . S
H171 C142 0.948 . S
H172 C148 0.982 1_545 S
H173 C148 0.979 . S
H174 C148 0.977 . S
H175 C149 0.979 . S
H176 C149 0.980 . S
H177 C149 0.983 . S
H178 C122 0.947 . S
C179 C122 1.392 . S
C179 C123 1.419 . S
C179 H161 0.948 . S
C180 C181 1.391 . S
C180 C184 1.391 . S
C180 H222 0.948 . S
C181 C180 1.391 . S
C181 C182 1.391 . S
C182 C181 1.391 . S
C182 H238 0.947 . S
C182 C239 1.392 . S
C183 C184 1.391 . S
C183 C187 1.397 . S
C183 C239 1.419 . S
C184 C180 1.391 . S
C184 C183 1.391 . S
C184 C185 1.399 . S
C185 C184 1.399 . S
C185 C188 1.396 . S
C185 C197 1.453 . S
C185 C198 1.684 . S
H186 C210 0.948 . S
C187 C183 1.397 . S
C187 C188 1.394 . S
C187 C206 1.723 . S
C188 C185 1.396 . S
C188 C187 1.394 . S
C188 C218 1.723 . S
H189 C212 0.947 . S
H190 C213 0.948 . S
H191 C219 0.982 . S
H192 C220 0.979 . S
H193 C220 0.980 . S
H194 C220 0.983 . S
H195 C219 0.979 . S
H196 C219 0.977 . S
C197 C185 1.453 . S
C197 H226 0.982 . S
C197 H227 0.979 . S
C197 H228 0.977 . S
C198 C185 1.684 . S
C198 H223 0.979 . S
C198 H224 0.980 . S
C198 H225 0.983 . S
C199 C200 1.391 . S
C199 C204 1.391 . S
C199 H229 0.948 . S
C200 C199 1.391 . S
C200 C201 1.391 . S
C201 C200 1.391 . S
C201 C202 1.392 . S
C201 H230 0.947 1_554 S
C202 C201 1.392 . S
C202 C203 1.419 . S
C202 H231 0.948 . S
C203 C202 1.419 . S
C203 C204 1.391 . S
C203 C207 1.397 . S
C204 C199 1.391 . S
C204 C203 1.391 . S
C204 C205 1.399 . S
C205 C204 1.399 . S
C205 C206 1.396 . S
C205 C208 1.453 . S
C205 C209 1.684 . S
C206 C187 1.723 . S
C206 C205 1.396 . S
C206 C207 1.394 . S
C207 C203 1.397 . S
C207 C206 1.394 . S
C207 C217 1.723 . S
C208 C205 1.453 . S
C208 H232 0.982 . S
C208 H233 0.979 . S
C208 H234 0.977 . S
C209 C205 1.684 . S
C209 H235 0.979 . S
C209 H236 0.980 . S
C209 H237 0.983 . S
C210 H186 0.948 . S
C210 C211 1.391 . S
C210 C215 1.391 . S
C211 C210 1.391 . S
C211 C212 1.391 . S
C212 H189 0.947 . S
C212 C211 1.391 . S
C212 C213 1.392 . S
C213 H190 0.948 . S
C213 C212 1.392 . S
C213 C214 1.419 . S
C214 C213 1.419 . S
C214 C215 1.391 . S
C214 C218 1.397 . S
C215 C210 1.391 . S
C215 C214 1.391 . S
C215 C216 1.399 . S
C216 C215 1.399 . S
C216 C217 1.396 . S
C216 C219 1.453 . S
C216 C220 1.684 . S
C217 C207 1.723 . S
C217 C216 1.396 . S
C217 C218 1.394 . S
C218 C188 1.723 . S
C218 C214 1.397 . S
C218 C217 1.394 . S
C219 H191 0.982 . S
C219 H195 0.979 . S
C219 H196 0.977 . S
C219 C216 1.453 . S
C220 H192 0.979 . S
C220 H193 0.980 . S
C220 H194 0.983 . S
C220 C216 1.684 . S
H221 C239 0.948 . S
H222 C180 0.948 . S
H223 C198 0.979 . S
H224 C198 0.980 . S
H225 C198 0.983 . S
H226 C197 0.982 . S
H227 C197 0.979 . S
H228 C197 0.977 . S
H229 C199 0.948 . S
H230 C201 0.947 1_556 S
H231 C202 0.948 . S
H232 C208 0.982 . S
H233 C208 0.979 . S
H234 C208 0.977 . S
H235 C209 0.979 . S
H236 C209 0.980 . S
H237 C209 0.983 . S
H238 C182 0.947 . S
C239 C182 1.392 . S
C239 C183 1.419 . S
C239 H221 0.948 . S
C240 C241 1.391 . S
C240 C244 1.391 . S
C240 H282 0.948 . S
C241 C240 1.391 . S
C241 C242 1.391 . S
C242 C241 1.391 . S
C242 H298 0.947 . S
C242 C299 1.392 . S
C243 C244 1.391 . S
C243 C247 1.397 . S
C243 C299 1.419 . S
C244 C240 1.391 . S
C244 C243 1.391 . S
C244 C245 1.399 1_554 S
C245 C244 1.399 1_556 S
C245 C248 1.396 . S
C245 C257 1.453 . S
C245 C258 1.684 . S
H246 C270 0.948 . S
C247 C243 1.397 . S
C247 C248 1.394 1_554 S
C247 C266 1.723 . S
C248 C245 1.396 . S
C248 C247 1.394 1_556 S
C248 C278 1.723 . S
H249 C272 0.947 . S
H250 C273 0.948 . S
H251 C279 0.982 . S
H252 C280 0.979 . S
H253 C280 0.980 . S
H254 C280 0.983 . S
H255 C279 0.979 . S
H256 C279 0.983 . S
C257 C245 1.453 . S
C257 H286 0.982 . S
C257 H287 0.979 . S
C257 H288 0.977 . S
C258 C245 1.684 . S
C258 H283 0.979 . S
C258 H284 0.980 . S
C258 H285 0.983 . S
C259 C260 1.391 . S
C259 C264 1.391 . S
C259 H289 0.948 . S
C260 C259 1.391 . S
C260 C261 1.391 . S
C261 C260 1.391 . S
C261 C262 1.392 . S
C261 H290 0.947 . S
C262 C261 1.392 . S
C262 C263 1.419 . S
C262 H291 0.948 . S
C263 C262 1.419 . S
C263 C264 1.391 . S
C263 C267 1.397 . S
C264 C259 1.391 . S
C264 C263 1.391 . S
C264 C265 1.399 . S
C265 C264 1.399 . S
C265 C266 1.396 . S
C265 C268 1.453 . S
C265 C269 1.684 . S
C266 C247 1.723 . S
C266 C265 1.396 . S
C266 C267 1.394 . S
C267 C263 1.397 . S
C267 C266 1.394 . S
C267 C277 1.723 1_554 S
C268 C265 1.453 . S
C268 H292 0.982 . S
C268 H293 0.979 . S
C268 H294 0.977 . S
C269 C265 1.684 . S
C269 H295 0.979 . S
C269 H296 0.980 . S
C269 H297 0.983 . S
C270 H246 0.948 . S
C270 C271 1.391 . S
C270 C275 1.391 . S
C271 C270 1.391 . S
C271 C272 1.391 . S
C272 H249 0.947 . S
C272 C271 1.391 . S
C272 C273 1.392 . S
C273 H250 0.948 . S
C273 C272 1.392 . S
C273 C274 1.419 . S
C274 C273 1.419 . S
C274 C275 1.391 . S
C274 C278 1.397 . S
C275 C270 1.391 . S
C275 C274 1.391 . S
C275 C276 1.399 . S
C276 C275 1.399 . S
C276 C277 1.396 . S
C276 C279 1.453 . S
C276 C280 1.684 . S
C277 C267 1.723 1_556 S
C277 C276 1.396 . S
C277 C278 1.394 . S
C278 C248 1.723 . S
C278 C274 1.397 . S
C278 C277 1.394 . S
C279 H251 0.982 . S
C279 H255 0.979 . S
C279 H256 0.983 . S
C279 C276 1.453 . S
C280 H252 0.979 . S
C280 H253 0.980 . S
C280 H254 0.983 . S
C280 C276 1.684 . S
H281 C299 0.948 . S
H282 C240 0.948 . S
H283 C258 0.979 . S
H284 C258 0.980 . S
H285 C258 0.983 . S
H286 C257 0.982 . S
H287 C257 0.979 . S
H288 C257 0.977 . S
H289 C259 0.948 . S
H290 C261 0.947 . S
H291 C262 0.948 . S
H292 C268 0.982 . S
H293 C268 0.979 . S
H294 C268 0.977 . S
H295 C269 0.979 . S
H296 C269 0.980 . S
H297 C269 0.983 . S
H298 C242 0.947 . S
C299 C242 1.392 . S
C299 C243 1.419 . S
C299 H281 0.948 . S
C300 C301 1.391 . S
C300 C304 1.391 . S
C300 H342 0.948 . S
C301 C300 1.391 . S
C301 C302 1.391 . S
C302 C301 1.391 . S
C302 H358 0.947 . S
C302 C359 1.392 . S
C303 C304 1.391 . S
C303 C307 1.397 . S
C303 C359 1.419 . S
C304 C300 1.391 . S
C304 C303 1.391 . S
C304 C305 1.399 . S
C305 C304 1.399 . S
C305 C308 1.396 . S
C305 C317 1.453 . S
C305 C318 1.684 . S
H306 C330 0.948 . S
C307 C303 1.397 . S
C307 C308 1.394 . S
C307 C326 1.723 1_554 S
C308 C305 1.396 . S
C308 C307 1.394 . S
C308 C338 1.723 . S
H309 C332 0.947 . S
H310 C333 0.948 . S
H311 C339 0.982 . S
H312 C340 0.979 1_655 S
H313 C340 0.980 . S
H314 C340 0.983 . S
H315 C339 0.979 . S
H316 C339 0.977 . S
C317 C305 1.453 . S
C317 H346 0.982 . S
C317 H347 0.979 . S
C317 H348 0.977 . S
C318 C305 1.684 . S
C318 H343 0.979 1_455 S
C318 H344 0.980 . S
C318 H345 0.983 . S
C319 C320 1.391 . S
C319 C324 1.391 . S
C319 H349 0.948 . S
C320 C319 1.391 . S
C320 C321 1.391 . S
C321 C320 1.391 . S
C321 C322 1.392 . S
C321 H350 0.947 . S
C322 C321 1.392 . S
C322 C323 1.419 . S
C322 H351 0.948 . S
C323 C322 1.419 . S
C323 C324 1.391 . S
C323 C327 1.397 . S
C324 C319 1.391 . S
C324 C323 1.391 . S
C324 C325 1.399 . S
C325 C324 1.399 . S
C325 C326 1.396 . S
C325 C328 1.453 . S
C325 C329 1.684 . S
C326 C307 1.723 1_556 S
C326 C325 1.396 . S
C326 C327 1.394 . S
C327 C323 1.397 . S
C327 C326 1.394 . S
C327 C337 1.723 . S
C328 C325 1.453 . S
C328 H352 0.982 . S
C328 H353 0.979 . S
C328 H354 0.966 1_556 S
C329 C325 1.684 . S
C329 H355 0.979 1_455 S
C329 H356 0.980 . S
C329 H357 0.983 . S
C330 H306 0.948 . S
C330 C331 1.391 . S
C330 C335 1.391 . S
C331 C330 1.391 . S
C331 C332 1.391 . S
C332 H309 0.947 . S
C332 C331 1.391 . S
C332 C333 1.392 . S
C333 H310 0.948 . S
C333 C332 1.392 . S
C333 C334 1.419 . S
C334 C333 1.419 . S
C334 C335 1.391 . S
C334 C338 1.397 . S
C335 C330 1.391 . S
C335 C334 1.391 . S
C335 C336 1.399 1_554 S
C336 C335 1.399 1_556 S
C336 C337 1.396 . S
C336 C339 1.453 . S
C336 C340 1.684 . S
C337 C327 1.723 . S
C337 C336 1.396 . S
C337 C338 1.394 1_556 S
C338 C308 1.723 . S
C338 C334 1.397 . S
C338 C337 1.394 1_554 S
C339 H311 0.982 . S
C339 H315 0.979 . S
C339 H316 0.977 . S
C339 C336 1.453 . S
C340 H312 0.979 1_455 S
C340 H313 0.980 . S
C340 H314 0.983 . S
C340 C336 1.684 . S
H341 C359 0.948 . S
H342 C300 0.948 . S
H343 C318 0.979 1_655 S
H344 C318 0.980 . S
H345 C318 0.983 . S
H346 C317 0.982 . S
H347 C317 0.979 . S
H348 C317 0.977 . S
H349 C319 0.948 . S
H350 C321 0.947 . S
H351 C322 0.948 . S
H352 C328 0.982 . S
H353 C328 0.979 . S
H354 C328 0.966 1_554 S
H355 C329 0.979 1_655 S
H356 C329 0.980 . S
H357 C329 0.983 . S
H358 C302 0.947 . S
C359 C302 1.392 . S
C359 C303 1.419 . S
C359 H341 0.948 . S
C360 C361 1.391 . S
C360 C364 1.391 . S
C360 H402 0.948 . S
C361 C360 1.391 . S
C361 C362 1.391 . S
C362 C361 1.391 . S
C362 H418 0.947 . S
C362 C419 1.392 . S
C363 C364 1.391 . S
C363 C367 1.397 . S
C363 C419 1.419 . S
C364 C360 1.391 . S
C364 C363 1.391 . S
C364 C365 1.399 . S
C365 C364 1.399 . S
C365 C368 1.396 . S
C365 C377 1.453 . S
C365 C378 1.684 . S
H366 C390 0.948 . S
C367 C363 1.397 . S
C367 C368 1.394 . S
C367 C386 1.723 1_556 S
C368 C365 1.396 . S
C368 C367 1.394 . S
C368 C398 1.723 1_556 S
H369 C392 0.947 1_556 S
H370 C393 0.953 . S
H371 C399 1.010 . S
H372 C400 0.979 . S
H373 C400 0.980 . S
H374 C400 0.983 . S
H375 C399 0.979 . S
H376 C399 0.977 . S
C377 C365 1.453 . S
C377 H406 1.011 . S
C377 H407 0.979 . S
C377 H408 0.977 . S
C378 C365 1.684 . S
C378 H403 0.979 . S
C378 H404 0.980 . S
C378 H405 0.983 . S
C379 C380 1.391 . S
C379 C384 1.391 . S
C379 H409 0.948 . S
C380 C379 1.391 . S
C380 C381 1.391 . S
C381 C380 1.391 . S
C381 C382 1.392 . S
C381 H410 0.947 . S
C382 C381 1.392 . S
C382 C383 1.419 . S
C382 H411 0.948 . S
C383 C382 1.419 . S
C383 C384 1.391 . S
C383 C387 1.397 . S
C384 C379 1.391 . S
C384 C383 1.391 . S
C384 C385 1.399 . S
C385 C384 1.399 . S
C385 C386 1.396 . S
C385 C388 1.453 . S
C385 C389 1.684 . S
C386 C367 1.723 1_554 S
C386 C385 1.396 . S
C386 C387 1.394 . S
C387 C383 1.397 . S
C387 C386 1.394 . S
C387 C397 1.723 . S
C388 C385 1.453 . S
C388 H412 1.010 . S
C388 H413 0.979 . S
C388 H414 0.977 1_554 S
C389 C385 1.684 . S
C389 H415 0.979 . S
C389 H416 0.980 1_554 S
C389 H417 0.983 . S
C390 H366 0.948 . S
C390 C391 1.391 . S
C390 C395 1.391 . S
C391 C390 1.391 . S
C391 C392 1.391 . S
C392 H369 0.947 1_554 S
C392 C391 1.391 . S
C392 C393 1.390 1_554 S
C393 H370 0.953 . S
C393 C392 1.390 1_556 S
C393 C394 1.415 1_556 S
C394 C393 1.415 1_554 S
C394 C395 1.391 . S
C394 C398 1.397 . S
C395 C390 1.391 . S
C395 C394 1.391 . S
C395 C396 1.399 . S
C396 C395 1.399 . S
C396 C397 1.396 . S
C396 C399 1.453 . S
C396 C400 1.684 . S
C397 C387 1.723 . S
C397 C396 1.396 . S
C397 C398 1.394 . S
C398 C368 1.723 1_554 S
C398 C394 1.397 . S
C398 C397 1.394 . S
C399 H371 1.010 . S
C399 H375 0.979 . S
C399 H376 0.977 . S
C399 C396 1.453 . S
C400 H372 0.979 . S
C400 H373 0.980 . S
C400 H374 0.983 . S
C400 C396 1.684 . S
H401 C419 0.948 . S
H402 C360 0.948 . S
H403 C378 0.979 . S
H404 C378 0.980 . S
H405 C378 0.983 . S
H406 C377 1.011 . S
H407 C377 0.979 . S
H408 C377 0.977 . S
H409 C379 0.948 . S
H410 C381 0.947 . S
H411 C382 0.948 . S
H412 C388 1.010 . S
H413 C388 0.979 . S
H414 C388 0.977 1_556 S
H415 C389 0.979 . S
H416 C389 0.980 1_556 S
H417 C389 0.983 . S
H418 C362 0.947 . S
C419 C362 1.392 . S
C419 C363 1.419 . S
C419 H401 0.948 . S
C420 C421 1.391 . S
C420 C424 1.391 . S
C420 H462 0.948 . S
C421 C420 1.391 . S
C421 C422 1.391 . S
C422 C421 1.391 . S
C422 H478 0.947 . S
C422 C479 1.392 . S
C423 C424 1.391 . S
C423 C427 1.397 . S
C423 C479 1.419 . S
C424 C420 1.391 . S
C424 C423 1.391 . S
C424 C425 1.399 . S
C425 C424 1.399 . S
C425 C428 1.396 . S
C425 C437 1.453 . S
C425 C438 1.684 . S
H426 C450 0.948 . S
C427 C423 1.397 . S
C427 C428 1.394 . S
C427 C446 1.723 1_556 S
C428 C425 1.396 . S
C428 C427 1.394 . S
C428 C458 1.723 1_556 S
H429 C452 0.947 1_556 S
H430 C453 0.948 . S
H431 C459 0.982 . S
H432 C460 0.979 . S
H433 C460 0.980 . S
H434 C460 0.983 . S
H435 C459 0.979 . S
H436 C459 0.977 . S
C437 C425 1.453 . S
C437 H466 0.982 . S
C437 H467 0.979 . S
C437 H468 0.977 . S
C438 C425 1.684 . S
C438 H463 0.979 . S
C438 H464 0.980 . S
C438 H465 0.983 . S
C439 C440 1.391 . S
C439 C444 1.391 . S
C439 H469 0.948 . S
C440 C439 1.391 . S
C440 C441 1.391 . S
C441 C440 1.391 . S
C441 C442 1.392 . S
C441 H470 0.947 . S
C442 C441 1.392 . S
C442 C443 1.419 . S
C442 H471 0.948 . S
C443 C442 1.419 . S
C443 C444 1.391 . S
C443 C447 1.397 . S
C444 C439 1.391 . S
C444 C443 1.391 . S
C444 C445 1.399 . S
C445 C444 1.399 . S
C445 C446 1.396 . S
C445 C448 1.453 . S
C445 C449 1.684 . S
C446 C427 1.723 1_554 S
C446 C445 1.396 . S
C446 C447 1.394 . S
C447 C443 1.397 . S
C447 C446 1.394 . S
C447 C457 1.723 . S
C448 C445 1.453 . S
C448 H472 0.982 . S
C448 H473 0.979 . S
C448 H474 0.977 1_554 S
C449 C445 1.684 . S
C449 H475 0.979 . S
C449 H476 0.980 1_554 S
C449 H477 0.983 . S
C450 H426 0.948 . S
C450 C451 1.391 . S
C450 C455 1.391 . S
C451 C450 1.391 . S
C451 C452 1.391 . S
C452 H429 0.947 1_554 S
C452 C451 1.391 . S
C452 C453 1.392 1_554 S
C453 H430 0.948 . S
C453 C452 1.392 1_556 S
C453 C454 1.419 1_556 S
C454 C453 1.419 1_554 S
C454 C455 1.391 . S
C454 C458 1.397 . S
C455 C450 1.391 . S
C455 C454 1.391 . S
C455 C456 1.399 . S
C456 C455 1.399 . S
C456 C457 1.396 . S
C456 C459 1.453 . S
C456 C460 1.684 . S
C457 C447 1.723 . S
C457 C456 1.396 . S
C457 C458 1.394 . S
C458 C428 1.723 1_554 S
C458 C454 1.397 . S
C458 C457 1.394 . S
C459 H431 0.982 . S
C459 H435 0.979 . S
C459 H436 0.977 . S
C459 C456 1.453 . S
C460 H432 0.979 . S
C460 H433 0.980 . S
C460 H434 0.983 . S
C460 C456 1.684 . S
H461 C479 0.948 . S
H462 C420 0.948 . S
H463 C438 0.979 . S
H464 C438 0.980 . S
H465 C438 0.983 . S
H466 C437 0.982 . S
H467 C437 0.979 . S
H468 C437 0.977 . S
H469 C439 0.948 . S
H470 C441 0.947 . S
H471 C442 0.948 . S
H472 C448 0.982 . S
H473 C448 0.979 . S
H474 C448 0.977 1_556 S
H475 C449 0.979 . S
H476 C449 0.980 1_556 S
H477 C449 0.983 . S
H478 C422 0.947 . S
C479 C422 1.392 . S
C479 C423 1.419 . S
C479 H461 0.948 . S
Tb480 N509 2.617 . S
Tb480 N515 2.572 . S
Tb480 O524 2.465 . S
Tb480 O525 2.387 1_545 S
Tb480 O527 2.428 . S
Tb480 O528 2.308 1_655 S
Tb480 O532 2.349 1_655 S
Tb480 O535 2.393 . S
Tb480 C544 2.802 . S
C481 N482 1.379 . S
C481 C484 1.416 . S
C481 C488 1.424 . S
N482 C481 1.379 . S
N482 C485 1.334 1_545 S
N482 Tb491 2.617 1_545 S
C483 C485 1.390 1_545 S
C483 C486 1.339 . S
C483 H503 0.930 . S
C484 C481 1.416 . S
C484 C486 1.416 . S
C484 C490 1.448 . S
C485 N482 1.334 1_565 S
C485 C483 1.390 1_565 S
C485 H496 0.930 . S
C486 C483 1.339 . S
C486 C484 1.416 . S
C486 H507 0.930 . S
C487 C488 1.413 . S
C487 C489 1.427 1_556 S
C487 C493 1.416 1_556 S
C488 C481 1.424 . S
C488 C487 1.413 . S
C488 N492 1.361 . S
C489 C487 1.427 1_554 S
C489 C490 1.328 1_554 S
C489 H504 0.929 . S
C490 C484 1.448 . S
C490 C489 1.328 1_556 S
C490 H505 0.930 . S
Tb491 N482 2.617 1_565 S
Tb491 N492 2.572 1_565 S
Tb491 O526 2.349 . S
Tb491 O529 2.393 . S
Tb491 O530 2.465 . S
Tb491 O531 2.387 1_565 S
Tb491 O533 2.428 . S
Tb491 O534 2.306 1_465 S
Tb491 C555 2.802 . S
N492 C488 1.361 . S
N492 Tb491 2.572 1_545 S
N492 C494 1.340 . S
C493 C487 1.416 1_554 S
C493 C495 1.332 . S
C493 H501 0.931 . S
C494 N492 1.340 . S
C494 C495 1.407 1_556 S
C494 H500 0.930 . S
C495 C493 1.332 . S
C495 C494 1.407 1_554 S
C495 H497 0.929 . S
H496 C485 0.930 . S
H497 C495 0.929 . S
H498 C513 0.930 . S
H499 C520 0.929 1_455 S
H500 C494 0.930 . S
H501 C493 0.931 . S
H502 C516 0.930 1_455 S
H503 C483 0.930 . S
H504 C489 0.929 . S
H505 C490 0.930 . S
H506 C511 0.930 . S
H507 C486 0.930 . S
H508 C519 0.931 . S
N509 Tb480 2.617 . S
N509 C510 1.366 1_545 S
N509 C513 1.334 . S
C510 N509 1.366 1_565 S
C510 C512 1.426 . S
C510 C518 1.427 . S
C511 H506 0.930 . S
C511 C513 1.390 . S
C511 C514 1.339 1_545 S
C512 C510 1.426 . S
C512 C514 1.416 . S
C512 C545 1.448 . S
C513 H498 0.930 . S
C513 N509 1.334 . S
C513 C511 1.390 . S
C514 C511 1.339 1_565 S
C514 C512 1.416 . S
C514 H521 0.930 . S
N515 Tb480 2.572 . S
N515 C516 1.340 . S
N515 C518 1.361 1_545 S
C516 H502 0.930 1_655 S
C516 N515 1.340 . S
C516 C520 1.407 1_545 S
C517 C518 1.413 . S
C517 C519 1.416 . S
C517 C546 1.427 . S
C518 C510 1.427 . S
C518 N515 1.361 1_565 S
C518 C517 1.413 . S
C519 H508 0.931 . S
C519 C517 1.416 . S
C519 C520 1.332 . S
C520 H499 0.929 1_655 S
C520 C516 1.407 1_565 S
C520 C519 1.332 . S
H521 C514 0.930 . S
H522 C545 0.930 . S
H523 C546 0.929 . S
O524 Tb480 2.465 . S
O524 C544 1.264 . S
O525 Tb480 2.387 1_565 S
O525 C536 1.264 . S
O526 Tb491 2.349 . S
O526 C536 1.243 1_455 S
O527 Tb480 2.428 . S
O527 C544 1.256 . S
O528 Tb480 2.308 1_455 S
O528 C543 1.266 . S
O529 Tb491 2.393 . S
O529 C543 1.248 1_565 S
O530 Tb491 2.465 . S
O530 C555 1.264 . S
O531 Tb491 2.387 1_545 S
O531 C547 1.264 . S
O532 Tb480 2.349 1_455 S
O532 C547 1.243 . S
O533 Tb491 2.428 . S
O533 C555 1.256 . S
O534 Tb491 2.306 1_645 S
O534 C554 1.267 . S
O535 Tb480 2.393 . S
O535 C554 1.248 . S
C536 O525 1.264 . S
C536 O526 1.243 1_655 S
C537 C540 1.399 . S
C537 C542 1.383 . S
C537 C544 1.496 . S
C538 C539 1.399 . S
C538 C542 1.389 . S
C539 C538 1.399 . S
C539 C541 1.380 . S
C539 H556 0.929 . S
C540 C537 1.399 . S
C540 C541 1.392 . S
C540 H557 0.929 . S
C541 C539 1.380 . S
C541 C540 1.392 . S
C541 H558 0.929 . S
C542 C537 1.383 . S
C542 C538 1.389 . S
C542 H559 0.931 1_655 S
C543 O528 1.266 . S
C543 O529 1.248 1_545 S
C544 Tb480 2.802 . S
C544 O524 1.264 . S
C544 O527 1.256 . S
C544 C537 1.496 . S
C545 C512 1.448 . S
C545 H522 0.930 . S
C545 C546 1.328 . S
C546 C517 1.427 . S
C546 H523 0.929 . S
C546 C545 1.328 . S
C547 O531 1.264 . S
C547 O532 1.243 . S
C548 C551 1.399 . S
C548 C552 1.383 . S
C548 C555 1.496 . S
C549 C550 1.399 . S
C549 C552 1.389 . S
C550 C549 1.399 . S
C550 C553 1.380 . S
C550 H560 0.929 . S
C551 C548 1.399 . S
C551 C553 1.392 . S
C551 H561 0.929 . S
C552 C548 1.383 . S
C552 C549 1.389 . S
C552 H562 0.931 . S
C553 C550 1.380 . S
C553 C551 1.392 . S
C553 H563 0.929 . S
C554 O534 1.267 . S
C554 O535 1.248 . S
C555 Tb491 2.802 . S
C555 O530 1.264 . S
C555 O533 1.256 . S
C555 C548 1.496 . S
H556 C539 0.929 . S
H557 C540 0.929 . S
H558 C541 0.929 . S
H559 C542 0.931 1_455 S
H560 C550 0.929 . S
H561 C551 0.929 . S
H562 C552 0.931 . S
H563 C553 0.929 . S
Tb564 N593 2.617 . S
Tb564 N599 2.572 . S
Tb564 O608 2.465 . S
Tb564 O609 2.387 . S
Tb564 O611 2.428 . S
Tb564 O612 2.308 . S
Tb564 O616 2.349 1_545 S
Tb564 O619 2.393 . S
Tb564 C628 2.802 . S
C565 N566 1.379 . S
C565 C568 1.416 . S
C565 C572 1.424 . S
N566 C565 1.379 . S
N566 C569 1.334 . S
N566 Tb575 2.617 . S
C567 C569 1.390 . S
C567 C570 1.339 . S
C567 H587 0.930 . S
C568 C565 1.416 . S
C568 C570 1.416 . S
C568 C574 1.448 . S
C569 N566 1.334 . S
C569 C567 1.390 . S
C569 H580 0.930 . S
C570 C567 1.339 . S
C570 C568 1.416 . S
C570 H591 0.930 . S
C571 C572 1.413 . S
C571 C573 1.427 . S
C571 C577 1.416 . S
C572 C565 1.424 . S
C572 C571 1.413 . S
C572 N576 1.361 . S
C573 C571 1.427 . S
C573 C574 1.328 . S
C573 H588 0.929 . S
C574 C568 1.448 . S
C574 C573 1.328 . S
C574 H589 0.930 . S
Tb575 N566 2.617 . S
Tb575 N576 2.572 . S
Tb575 O610 2.349 1_565 S
Tb575 O613 2.393 . S
Tb575 O614 2.465 . S
Tb575 O615 2.387 . S
Tb575 O617 2.428 . S
Tb575 O618 2.308 1_565 S
Tb575 C639 2.802 . S
N576 C572 1.361 . S
N576 Tb575 2.572 . S
N576 C578 1.340 . S
C577 C571 1.416 . S
C577 C579 1.332 . S
C577 H585 0.931 . S
C578 N576 1.340 . S
C578 C579 1.407 . S
C578 H584 0.930 . S
C579 C577 1.332 . S
C579 C578 1.407 . S
C579 H581 0.929 . S
H580 C569 0.930 . S
H581 C579 0.929 . S
H582 C597 0.930 . S
H583 C604 0.929 . S
H584 C578 0.930 . S
H585 C577 0.931 . S
H586 C600 0.930 . S
H587 C567 0.930 . S
H588 C573 0.929 . S
H589 C574 0.930 . S
H590 C595 0.930 . S
H591 C570 0.930 . S
H592 C603 0.931 . S
N593 Tb564 2.617 . S
N593 C594 1.379 . S
N593 C597 1.334 . S
C594 N593 1.379 . S
C594 C596 1.416 . S
C594 C602 1.424 . S
C595 H590 0.930 . S
C595 C597 1.390 . S
C595 C598 1.339 . S
C596 C594 1.416 . S
C596 C598 1.416 . S
C596 C629 1.448 . S
C597 H582 0.930 . S
C597 N593 1.334 . S
C597 C595 1.390 . S
C598 C595 1.339 . S
C598 C596 1.416 . S
C598 H605 0.930 . S
N599 Tb564 2.572 . S
N599 C600 1.340 . S
N599 C602 1.361 . S
C600 H586 0.930 . S
C600 N599 1.340 . S
C600 C604 1.407 . S
C601 C602 1.413 . S
C601 C603 1.416 . S
C601 C630 1.427 . S
C602 C594 1.424 . S
C602 N599 1.361 . S
C602 C601 1.413 . S
C603 H592 0.931 . S
C603 C601 1.416 . S
C603 C604 1.332 . S
C604 H583 0.929 . S
C604 C600 1.407 . S
C604 C603 1.332 . S
H605 C598 0.930 . S
H606 C629 0.930 . S
H607 C630 0.929 . S
O608 Tb564 2.465 . S
O608 C628 1.264 . S
O609 Tb564 2.387 . S
O609 C620 1.264 . S
O610 Tb575 2.349 1_545 S
O610 C620 1.243 . S
O611 Tb564 2.428 . S
O611 C628 1.256 . S
O612 Tb564 2.308 . S
O612 C627 1.266 1_545 S
O613 Tb575 2.393 . S
O613 C627 1.248 . S
O614 Tb575 2.465 . S
O614 C639 1.264 . S
O615 Tb575 2.387 . S
O615 C631 1.264 . S
O616 Tb564 2.349 1_565 S
O616 C631 1.243 . S
O617 Tb575 2.428 . S
O617 C639 1.256 . S
O618 Tb575 2.308 1_545 S
O618 C638 1.266 . S
O619 Tb564 2.393 . S
O619 C638 1.248 . S
C620 O609 1.264 . S
C620 O610 1.243 . S
C621 C624 1.399 1_556 S
C621 C626 1.383 . S
C621 C628 1.496 . S
C622 C623 1.399 1_556 S
C622 C626 1.389 . S
C623 C622 1.399 1_554 S
C623 C625 1.380 . S
C623 H640 0.929 . S
C624 C621 1.399 1_554 S
C624 C625 1.392 . S
C624 H641 0.929 . S
C625 C623 1.380 . S
C625 C624 1.392 . S
C625 H642 0.929 . S
C626 C621 1.383 . S
C626 C622 1.389 . S
C626 H643 0.931 . S
C627 O612 1.266 1_565 S
C627 O613 1.248 . S
C628 Tb564 2.802 . S
C628 O608 1.264 . S
C628 O611 1.256 . S
C628 C621 1.496 . S
C629 C596 1.448 . S
C629 H606 0.930 . S
C629 C630 1.328 . S
C630 C601 1.427 . S
C630 H607 0.929 . S
C630 C629 1.328 . S
C631 O615 1.264 . S
C631 O616 1.243 . S
C632 C635 1.399 . S
C632 C636 1.383 . S
C632 C639 1.496 . S
C633 C634 1.399 . S
C633 C636 1.389 . S
C634 C633 1.399 . S
C634 C637 1.380 . S
C634 H644 0.929 . S
C635 C632 1.399 . S
C635 C637 1.392 . S
C635 H645 0.929 . S
C636 C632 1.383 . S
C636 C633 1.389 . S
C636 H646 0.931 . S
C637 C634 1.380 . S
C637 C635 1.392 . S
C637 H647 0.929 . S
C638 O618 1.266 . S
C638 O619 1.248 . S
C639 Tb575 2.802 . S
C639 O614 1.264 . S
C639 O617 1.256 . S
C639 C632 1.496 . S
H640 C623 0.929 . S
H641 C624 0.929 . S
H642 C625 0.929 . S
H643 C626 0.931 . S
H644 C634 0.929 . S
H645 C635 0.929 . S
H646 C636 0.931 . S
H647 C637 0.929 . S
Tb648 N677 2.617 . S
Tb648 N683 2.572 . S
Tb648 O692 2.465 . S
Tb648 O693 2.387 . S
Tb648 O695 2.428 . S
Tb648 O696 2.308 . S
Tb648 O700 2.349 . S
Tb648 O703 2.393 . S
Tb648 C712 2.802 . S
C649 N650 1.379 . S
C649 C652 1.416 . S
C649 C656 1.424 . S
N650 C649 1.379 . S
N650 C653 1.334 . S
N650 Tb659 2.617 . S
C651 C653 1.390 . S
C651 C654 1.339 . S
C651 H671 0.930 . S
C652 C649 1.416 . S
C652 C654 1.416 . S
C652 C658 1.448 . S
C653 N650 1.334 . S
C653 C651 1.390 . S
C653 H664 0.930 . S
C654 C651 1.339 . S
C654 C652 1.416 . S
C654 H675 0.930 . S
C655 C656 1.413 . S
C655 C657 1.427 1_556 S
C655 C661 1.416 1_556 S
C656 C649 1.424 . S
C656 C655 1.413 . S
C656 N660 1.361 . S
C657 C655 1.427 1_554 S
C657 C658 1.328 1_554 S
C657 H672 0.929 . S
C658 C652 1.448 . S
C658 C657 1.328 1_556 S
C658 H673 0.930 . S
Tb659 N650 2.617 . S
Tb659 N660 2.572 . S
Tb659 O694 2.349 . S
Tb659 O697 2.393 . S
Tb659 O698 2.465 . S
Tb659 O699 2.387 . S
Tb659 O701 2.428 . S
Tb659 O702 2.308 . S
Tb659 C723 2.802 . S
N660 C656 1.361 . S
N660 Tb659 2.572 . S
N660 C662 1.340 . S
C661 C655 1.416 1_554 S
C661 C663 1.332 . S
C661 H669 0.931 . S
C662 N660 1.340 . S
C662 C663 1.407 1_556 S
C662 H668 0.930 . S
C663 C661 1.332 . S
C663 C662 1.407 1_554 S
C663 H665 0.929 . S
H664 C653 0.930 . S
H665 C663 0.929 . S
H666 C681 0.930 . S
H667 C688 0.929 . S
H668 C662 0.930 . S
H669 C661 0.931 . S
H670 C684 0.930 . S
H671 C651 0.930 . S
H672 C657 0.929 . S
H673 C658 0.930 . S
H674 C679 0.930 . S
H675 C654 0.930 . S
H676 C687 0.931 . S
N677 Tb648 2.617 . S
N677 C678 1.379 . S
N677 C681 1.334 . S
C678 N677 1.379 . S
C678 C680 1.416 . S
C678 C686 1.424 . S
C679 H674 0.930 . S
C679 C681 1.390 . S
C679 C682 1.339 . S
C680 C678 1.416 . S
C680 C682 1.416 . S
C680 C713 1.448 . S
C681 H666 0.930 . S
C681 N677 1.334 . S
C681 C679 1.390 . S
C682 C679 1.339 . S
C682 C680 1.416 . S
C682 H689 0.930 . S
N683 Tb648 2.572 . S
N683 C684 1.340 . S
N683 C686 1.361 . S
C684 H670 0.930 . S
C684 N683 1.340 . S
C684 C688 1.407 . S
C685 C686 1.413 . S
C685 C687 1.416 . S
C685 C714 1.427 . S
C686 C678 1.424 . S
C686 N683 1.361 . S
C686 C685 1.413 . S
C687 H676 0.931 . S
C687 C685 1.416 . S
C687 C688 1.332 . S
C688 H667 0.929 . S
C688 C684 1.407 . S
C688 C687 1.332 . S
H689 C682 0.930 . S
H690 C713 0.930 . S
H691 C714 0.929 . S
O692 Tb648 2.465 . S
O692 C712 1.264 . S
O693 Tb648 2.387 . S
O693 C704 1.264 . S
O694 Tb659 2.349 . S
O694 C704 1.243 . S
O695 Tb648 2.428 . S
O695 C712 1.256 . S
O696 Tb648 2.308 . S
O696 C711 1.266 . S
O697 Tb659 2.393 . S
O697 C711 1.248 . S
O698 Tb659 2.465 . S
O698 C723 1.264 . S
O699 Tb659 2.387 . S
O699 C715 1.264 . S
O700 Tb648 2.349 . S
O700 C715 1.243 . S
O701 Tb659 2.428 . S
O701 C723 1.256 . S
O702 Tb659 2.308 . S
O702 C722 1.266 . S
O703 Tb648 2.393 . S
O703 C722 1.248 . S
C704 O693 1.264 . S
C704 O694 1.243 . S
C705 C708 1.399 . S
C705 C710 1.383 . S
C705 C712 1.496 . S
C706 C707 1.399 . S
C706 C710 1.389 . S
C707 C706 1.399 . S
C707 C709 1.380 . S
C707 H724 0.929 . S
C708 C705 1.399 . S
C708 C709 1.392 . S
C708 H725 0.929 . S
C709 C707 1.380 . S
C709 C708 1.392 . S
C709 H726 0.929 . S
C710 C705 1.383 . S
C710 C706 1.389 . S
C710 H727 0.931 . S
C711 O696 1.266 . S
C711 O697 1.248 . S
C712 Tb648 2.802 . S
C712 O692 1.264 . S
C712 O695 1.256 . S
C712 C705 1.496 . S
C713 C680 1.448 . S
C713 H690 0.930 . S
C713 C714 1.328 . S
C714 C685 1.427 . S
C714 H691 0.929 . S
C714 C713 1.328 . S
C715 O699 1.264 . S
C715 O700 1.243 . S
C716 C719 1.399 . S
C716 C720 1.383 . S
C716 C723 1.496 . S
C717 C718 1.399 . S
C717 C720 1.389 . S
C718 C717 1.399 . S
C718 C721 1.380 . S
C718 H728 0.929 . S
C719 C716 1.399 . S
C719 C721 1.392 . S
C719 H729 0.929 . S
C720 C716 1.383 . S
C720 C717 1.389 . S
C720 H730 0.931 . S
C721 C718 1.380 . S
C721 C719 1.392 . S
C721 H731 0.929 . S
C722 O702 1.266 . S
C722 O703 1.248 . S
C723 Tb659 2.802 . S
C723 O698 1.264 . S
C723 O701 1.256 . S
C723 C716 1.496 . S
H724 C707 0.929 . S
H725 C708 0.929 . S
H726 C709 0.929 . S
H727 C710 0.931 . S
H728 C718 0.929 . S
H729 C719 0.929 . S
H730 C720 0.931 . S
H731 C721 0.929 . S
Tb732 N761 2.617 . S
Tb732 N767 2.572 . S
Tb732 O776 2.465 . S
Tb732 O777 2.387 1_455 S
Tb732 O779 2.428 . S
Tb732 O780 2.308 . S
Tb732 O784 2.349 . S
Tb732 O787 2.393 . S
Tb732 C796 2.802 . S
C733 N734 1.379 1_455 S
C733 C736 1.416 . S
C733 C740 1.424 . S
N734 C733 1.379 1_655 S
N734 C737 1.334 . S
N734 Tb743 2.617 . S
C735 C737 1.390 1_455 S
C735 C738 1.339 . S
C735 H755 0.930 . S
C736 C733 1.416 . S
C736 C738 1.416 . S
C736 C742 1.448 . S
C737 N734 1.334 . S
C737 C735 1.390 1_655 S
C737 H748 0.930 . S
C738 C735 1.339 . S
C738 C736 1.416 . S
C738 H759 0.930 . S
C739 C740 1.413 . S
C739 C741 1.427 1_556 S
C739 C745 1.416 1_556 S
C740 C733 1.424 . S
C740 C739 1.413 . S
C740 N744 1.361 . S
C741 C739 1.427 1_554 S
C741 C742 1.328 1_554 S
C741 H756 0.929 . S
C742 C736 1.448 . S
C742 C741 1.328 1_556 S
C742 H757 0.930 . S
Tb743 N734 2.617 . S
Tb743 N744 2.572 1_655 S
Tb743 O778 2.349 . S
Tb743 O781 2.393 . S
Tb743 O782 2.465 . S
Tb743 O783 2.387 1_655 S
Tb743 O785 2.428 . S
Tb743 O786 2.308 . S
Tb743 C807 2.802 . S
N744 C740 1.361 . S
N744 Tb743 2.572 1_455 S
N744 C746 1.340 . S
C745 C739 1.416 1_554 S
C745 C747 1.332 . S
C745 H753 0.931 . S
C746 N744 1.340 . S
C746 C747 1.407 1_556 S
C746 H752 0.927 1_455 S
C747 C745 1.332 . S
C747 C746 1.407 1_554 S
C747 H749 0.929 . S
H748 C737 0.930 . S
H749 C747 0.929 . S
H750 C765 0.930 . S
H751 C772 0.929 . S
H752 C746 0.927 1_655 S
H753 C745 0.931 . S
H754 C768 0.930 . S
H755 C735 0.930 . S
H756 C741 0.929 . S
H757 C742 0.930 . S
H758 C763 0.930 . S
H759 C738 0.930 . S
H760 C771 0.931 . S
N761 Tb732 2.617 . S
N761 C762 1.365 1_455 S
N761 C765 1.334 . S
C762 N761 1.365 1_655 S
C762 C764 1.427 . S
C762 C770 1.427 . S
C763 H758 0.930 . S
C763 C765 1.390 . S
C763 C766 1.339 1_455 S
C764 C762 1.427 . S
C764 C766 1.416 . S
C764 C797 1.448 . S
C765 H750 0.930 . S
C765 N761 1.334 . S
C765 C763 1.390 . S
C766 C763 1.339 1_655 S
C766 C764 1.416 . S
C766 H773 0.930 . S
N767 Tb732 2.572 . S
N767 C768 1.340 . S
N767 C770 1.361 1_455 S
C768 H754 0.930 . S
C768 N767 1.340 . S
C768 C772 1.407 1_455 S
C769 C770 1.413 . S
C769 C771 1.416 . S
C769 C798 1.427 . S
C770 C762 1.427 . S
C770 N767 1.361 1_655 S
C770 C769 1.413 . S
C771 H760 0.931 . S
C771 C769 1.416 . S
C771 C772 1.332 . S
C772 H751 0.929 . S
C772 C768 1.407 1_655 S
C772 C771 1.332 . S
H773 C766 0.930 . S
H774 C797 0.930 . S
H775 C798 0.929 . S
O776 Tb732 2.465 . S
O776 C796 1.264 . S
O777 Tb732 2.387 1_655 S
O777 C788 1.264 . S
O778 Tb743 2.349 . S
O778 C788 1.243 . S
O779 Tb732 2.428 . S
O779 C796 1.256 . S
O780 Tb732 2.308 . S
O780 C795 1.266 . S
O781 Tb743 2.393 . S
O781 C795 1.248 1_655 S
O782 Tb743 2.465 . S
O782 C807 1.264 . S
O783 Tb743 2.387 1_455 S
O783 C799 1.264 . S
O784 Tb732 2.349 . S
O784 C799 1.243 . S
O785 Tb743 2.428 . S
O785 C807 1.256 . S
O786 Tb743 2.308 . S
O786 C806 1.266 1_655 S
O787 Tb732 2.393 . S
O787 C806 1.248 . S
C788 O777 1.264 . S
C788 O778 1.243 . S
C789 C792 1.399 . S
C789 C794 1.383 . S
C789 C796 1.496 . S
C790 C791 1.399 . S
C790 C794 1.389 . S
C791 C790 1.399 . S
C791 C793 1.380 . S
C791 H808 0.929 . S
C792 C789 1.399 . S
C792 C793 1.392 . S
C792 H809 0.929 . S
C793 C791 1.380 . S
C793 C792 1.392 . S
C793 H810 0.929 . S
C794 C789 1.383 . S
C794 C790 1.389 . S
C794 H811 0.931 . S
C795 O780 1.266 . S
C795 O781 1.248 1_455 S
C796 Tb732 2.802 . S
C796 O776 1.264 . S
C796 O779 1.256 . S
C796 C789 1.496 . S
C797 C764 1.448 . S
C797 H774 0.930 . S
C797 C798 1.328 . S
C798 C769 1.427 . S
C798 H775 0.929 . S
C798 C797 1.328 . S
C799 O783 1.264 . S
C799 O784 1.243 . S
C800 C803 1.399 . S
C800 C804 1.383 . S
C800 C807 1.496 . S
C801 C802 1.399 . S
C801 C804 1.389 . S
C802 C801 1.399 . S
C802 C805 1.380 . S
C802 H812 0.929 . S
C803 C800 1.399 . S
C803 C805 1.392 . S
C803 H813 0.929 . S
C804 C800 1.383 . S
C804 C801 1.389 . S
C804 H814 0.931 . S
C805 C802 1.380 . S
C805 C803 1.392 . S
C805 H815 0.929 . S
C806 O786 1.266 1_455 S
C806 O787 1.248 . S
C807 Tb743 2.802 . S
C807 O782 1.264 . S
C807 O785 1.256 . S
C807 C800 1.496 . S
H808 C791 0.929 . S
H809 C792 0.929 . S
H810 C793 0.929 . S
H811 C794 0.931 . S
H812 C802 0.929 . S
H813 C803 0.929 . S
H814 C804 0.931 . S
H815 C805 0.929 . S
C816 C817 1.363 . S
C816 C822 1.379 . S
C816 N824 1.356 1_545 S
C817 C816 1.363 . S
C817 C823 1.363 . S
C818 C819 1.363 . S
C818 C823 1.379 . S
C818 N825 1.356 . S
C819 C818 1.363 . S
C819 C822 1.363 . S
N820 C822 1.356 1_565 S
N820 H832 0.984 . S
N820 H833 0.985 . S
N821 C823 1.356 . S
N821 H826 0.984 . S
N821 H827 0.985 . S
C822 C816 1.379 . S
C822 C819 1.363 . S
C822 N820 1.356 1_545 S
C823 C817 1.363 . S
C823 C818 1.379 . S
C823 N821 1.356 . S
N824 C816 1.356 1_565 S
N824 H830 0.984 . S
N824 H831 0.984 1_565 S
N825 C818 1.356 . S
N825 H828 0.984 . S
N825 H829 0.985 . S
H826 N821 0.984 . S
H827 N821 0.985 . S
H828 N825 0.984 . S
H829 N825 0.985 . S
H830 N824 0.984 . S
H831 N824 0.984 1_545 S
H832 N820 0.984 . S
H833 N820 0.985 . S
C834 C835 1.363 . S
C834 C840 1.379 . S
C834 N842 1.356 . S
C835 C834 1.363 . S
C835 C841 1.363 . S
C836 C837 1.363 . S
C836 C841 1.379 . S
C836 N843 1.356 . S
C837 C836 1.363 . S
C837 C840 1.363 . S
N838 C840 1.356 . S
N838 H850 0.984 . S
N838 H851 0.985 . S
N839 C841 1.356 . S
N839 H844 0.984 . S
N839 H845 0.985 . S
C840 C834 1.379 . S
C840 C837 1.363 . S
C840 N838 1.356 . S
C841 C835 1.363 . S
C841 C836 1.379 . S
C841 N839 1.356 . S
N842 C834 1.356 . S
N842 H848 0.984 . S
N842 H849 0.984 . S
N843 C836 1.356 . S
N843 H846 0.984 . S
N843 H847 0.985 . S
H844 N839 0.984 . S
H845 N839 0.985 . S
H846 N843 0.984 . S
H847 N843 0.985 . S
H848 N842 0.984 . S
H849 N842 0.984 . S
H850 N838 0.984 . S
H851 N838 0.985 . S
C852 C853 1.363 . S
C852 C858 1.379 . S
C852 N860 1.356 . S
C853 C852 1.363 . S
C853 C859 1.363 . S
C854 C855 1.363 . S
C854 C859 1.379 . S
C854 N861 1.356 . S
C855 C854 1.363 . S
C855 C858 1.363 . S
N856 C858 1.356 . S
N856 H868 0.984 . S
N856 H869 0.985 . S
N857 C859 1.356 . S
N857 H862 0.984 . S
N857 H863 0.985 . S
C858 C852 1.379 . S
C858 C855 1.363 . S
C858 N856 1.356 . S
C859 C853 1.363 . S
C859 C854 1.379 . S
C859 N857 1.356 . S
N860 C852 1.356 . S
N860 H866 0.984 . S
N860 H867 0.984 . S
N861 C854 1.356 . S
N861 H864 0.984 . S
N861 H865 0.985 . S
H862 N857 0.984 . S
H863 N857 0.985 . S
H864 N861 0.984 . S
H865 N861 0.985 . S
H866 N860 0.984 . S
H867 N860 0.984 . S
H868 N856 0.984 . S
H869 N856 0.985 . S
C870 C871 1.363 . S
C870 C876 1.379 . S
C870 N878 1.356 . S
C871 C870 1.363 . S
C871 C877 1.363 . S
C872 C873 1.363 1_655 S
C872 C877 1.379 1_655 S
C872 N879 1.356 . S
C873 C872 1.363 1_455 S
C873 C876 1.363 . S
N874 C876 1.356 . S
N874 H886 0.984 . S
N874 H887 0.985 . S
N875 C877 1.356 1_655 S
N875 H880 0.984 . S
N875 H881 0.985 . S
C876 C870 1.379 . S
C876 C873 1.363 . S
C876 N874 1.356 . S
C877 C871 1.363 . S
C877 C872 1.379 1_455 S
C877 N875 1.356 1_455 S
N878 C870 1.356 . S
N878 H884 0.984 . S
N878 H885 0.984 . S
N879 C872 1.356 . S
N879 H882 0.984 . S
N879 H883 0.985 . S
H880 N875 0.984 . S
H881 N875 0.985 . S
H882 N879 0.984 . S
H883 N879 0.985 . S
H884 N878 0.984 . S
H885 N878 0.984 . S
H886 N874 0.984 . S
H887 N874 0.985 . S
C888 C889 1.363 1_545 S
C888 C894 1.379 1_554 S
C888 N896 1.356 . S
C889 C888 1.363 1_565 S
C889 C895 1.363 . S
C890 C891 1.363 . S
C890 C895 1.379 1_556 S
C890 N897 1.356 . S
C891 C890 1.363 . S
C891 C894 1.363 1_565 S
N892 C894 1.356 . S
N892 H904 0.984 . S
N892 H905 0.985 . S
N893 C895 1.356 . S
N893 H898 0.984 . S
N893 H899 0.985 . S
C894 C888 1.379 1_556 S
C894 C891 1.363 1_545 S
C894 N892 1.356 . S
C895 C889 1.363 . S
C895 C890 1.379 1_554 S
C895 N893 1.356 . S
N896 C888 1.356 . S
N896 H902 0.984 . S
N896 H903 0.984 . S
N897 C890 1.356 . S
N897 H900 0.984 . S
N897 H901 0.985 . S
H898 N893 0.984 . S
H899 N893 0.985 . S
H900 N897 0.984 . S
H901 N897 0.985 . S
H902 N896 0.984 . S
H903 N896 0.984 . S
H904 N892 0.984 . S
H905 N892 0.985 . S
C906 C907 1.363 . S
C906 C912 1.379 1_554 S
C906 N914 1.356 . S
C907 C906 1.363 . S
C907 C913 1.363 . S
C908 C909 1.363 . S
C908 C913 1.379 1_556 S
C908 N915 1.356 . S
C909 C908 1.363 . S
C909 C912 1.363 . S
N910 C912 1.356 . S
N910 H922 0.984 1_565 S
N910 H923 0.985 . S
N911 C913 1.356 . S
N911 H916 0.984 . S
N911 H917 0.985 . S
C912 C906 1.379 1_556 S
C912 C909 1.363 . S
C912 N910 1.356 . S
C913 C907 1.363 . S
C913 C908 1.379 1_554 S
C913 N911 1.356 . S
N914 C906 1.356 . S
N914 H920 0.984 . S
N914 H921 0.984 . S
N915 C908 1.356 . S
N915 H918 0.984 . S
N915 H919 0.985 . S
H916 N911 0.984 . S
H917 N911 0.985 . S
H918 N915 0.984 . S
H919 N915 0.985 . S
H920 N914 0.984 . S
H921 N914 0.984 . S
H922 N910 0.984 1_545 S
H923 N910 0.985 . S
C924 C925 1.363 . S
C924 C930 1.379 1_554 S
C924 N932 1.356 . S
C925 C924 1.363 . S
C925 C931 1.363 . S
C926 C927 1.363 . S
C926 C931 1.379 1_556 S
C926 N933 1.356 . S
C927 C926 1.363 . S
C927 C930 1.363 . S
N928 C930 1.356 . S
N928 H940 0.984 . S
N928 H941 0.985 . S
N929 C931 1.356 . S
N929 H934 0.984 . S
N929 H935 0.985 . S
C930 C924 1.379 1_556 S
C930 C927 1.363 . S
C930 N928 1.356 . S
C931 C925 1.363 . S
C931 C926 1.379 1_554 S
C931 N929 1.356 . S
N932 C924 1.356 . S
N932 H938 0.984 . S
N932 H939 0.984 . S
N933 C926 1.356 . S
N933 H936 0.984 . S
N933 H937 0.985 . S
H934 N929 0.984 . S
H935 N929 0.985 . S
H936 N933 0.984 . S
H937 N933 0.985 . S
H938 N932 0.984 . S
H939 N932 0.984 . S
H940 N928 0.984 . S
H941 N928 0.985 . S
C942 C943 1.363 . S
C942 C948 1.379 1_554 S
C942 N950 1.356 . S
C943 C942 1.363 . S
C943 C949 1.363 . S
C944 C945 1.363 1_455 S
C944 C949 1.379 1_456 S
C944 N951 1.356 . S
C945 C944 1.363 1_655 S
C945 C948 1.363 . S
N946 C948 1.356 . S
N946 H958 0.984 . S
N946 H959 0.985 . S
N947 C949 1.356 1_455 S
N947 H952 0.984 1_455 S
N947 H953 0.985 . S
C948 C942 1.379 1_556 S
C948 C945 1.363 . S
C948 N946 1.356 . S
C949 C943 1.363 . S
C949 C944 1.379 1_654 S
C949 N947 1.356 1_655 S
N950 C942 1.356 . S
N950 H956 0.984 . S
N950 H957 0.984 . S
N951 C944 1.356 . S
N951 H954 0.984 . S
N951 H955 0.985 . S
H952 N947 0.984 1_655 S
H953 N947 0.985 . S
H954 N951 0.984 . S
H955 N951 0.985 . S
H956 N950 0.984 . S
H957 N950 0.984 . S
H958 N946 0.984 . S
H959 N946 0.985 . S
C960 C961 1.363 . S
C960 C966 1.379 . S
C960 N968 1.356 . S
C961 C960 1.363 . S
C961 C967 1.363 . S
C962 C963 1.358 1_455 S
C962 C967 1.392 . S
C962 N969 1.345 1_455 S
C963 C962 1.358 1_655 S
C963 C966 1.363 1_655 S
N964 C966 1.356 1_655 S
N964 H976 0.992 . S
N964 H977 0.985 . S
N965 C967 1.356 . S
N965 H970 0.984 . S
N965 H971 0.985 . S
C966 C960 1.379 . S
C966 C963 1.363 1_455 S
C966 N964 1.356 1_455 S
C967 C961 1.363 . S
C967 C962 1.392 . S
C967 N965 1.356 . S
N968 C960 1.356 . S
N968 H974 0.984 . S
N968 H975 0.984 . S
N969 C962 1.345 1_655 S
N969 H972 0.984 . S
N969 H973 0.985 . S
H970 N965 0.984 . S
H971 N965 0.985 . S
H972 N969 0.984 . S
H973 N969 0.985 . S
H974 N968 0.984 . S
H975 N968 0.984 . S
H976 N964 0.992 . S
H977 N964 0.985 . S
C978 C979 1.363 . S
C978 C984 1.379 . S
C978 N986 1.356 . S
C979 C978 1.363 . S
C979 C985 1.363 . S
C980 C981 1.363 . S
C980 C985 1.379 1_565 S
C980 N987 1.356 . S
C981 C980 1.363 . S
C981 C984 1.363 1_565 S
N982 C984 1.356 . S
N982 H994 0.984 . S
N982 H995 0.985 1_545 S
N983 C985 1.356 . S
N983 H988 0.984 . S
N983 H989 0.985 . S
C984 C978 1.379 . S
C984 C981 1.363 1_545 S
C984 N982 1.356 . S
C985 C979 1.363 . S
C985 C980 1.379 1_545 S
C985 N983 1.356 . S
N986 C978 1.356 . S
N986 H992 0.984 . S
N986 H993 0.984 . S
N987 C980 1.356 . S
N987 H990 0.984 . S
N987 H991 0.985 . S
H988 N983 0.984 . S
H989 N983 0.985 . S
H990 N987 0.984 . S
H991 N987 0.985 . S
H992 N986 0.984 . S
H993 N986 0.984 . S
H994 N982 0.984 . S
H995 N982 0.985 1_565 S
C996 C997 1.363 . S
C996 C1002 1.379 . S
C996 N1004 1.356 . S
C997 C996 1.363 . S
C997 C1003 1.363 . S
C998 C999 1.363 . S
C998 C1003 1.379 . S
C998 N1005 1.356 . S
C999 C998 1.363 . S
C999 C1002 1.363 . S
N1000 C1002 1.356 . S
N1000 H1012 0.984 . S
N1000 H1013 0.985 . S
N1001 C1003 1.356 . S
N1001 H1006 0.984 . S
N1001 H1007 0.985 . S
C1002 C996 1.379 . S
C1002 C999 1.363 . S
C1002 N1000 1.356 . S
C1003 C997 1.363 . S
C1003 C998 1.379 . S
C1003 N1001 1.356 . S
N1004 C996 1.356 . S
N1004 H1010 0.984 . S
N1004 H1011 0.984 . S
N1005 C998 1.356 . S
N1005 H1008 0.984 . S
N1005 H1009 0.985 . S
H1006 N1001 0.984 . S
H1007 N1001 0.985 . S
H1008 N1005 0.984 . S
H1009 N1005 0.985 . S
H1010 N1004 0.984 . S
H1011 N1004 0.984 . S
H1012 N1000 0.984 . S
H1013 N1000 0.985 . S
C1014 C1015 1.363 . S
C1014 C1020 1.379 . S
C1014 N1022 1.356 . S
C1015 C1014 1.363 . S
C1015 C1021 1.363 . S
C1016 C1017 1.363 . S
C1016 C1021 1.379 . S
C1016 N1023 1.356 . S
C1017 C1016 1.363 . S
C1017 C1020 1.363 . S
N1018 C1020 1.356 . S
N1018 H1030 0.984 . S
N1018 H1031 0.985 . S
N1019 C1021 1.356 . S
N1019 H1024 0.984 . S
N1019 H1025 0.985 . S
C1020 C1014 1.379 . S
C1020 C1017 1.363 . S
C1020 N1018 1.356 . S
C1021 C1015 1.363 . S
C1021 C1016 1.379 . S
C1021 N1019 1.356 . S
N1022 C1014 1.356 . S
N1022 H1028 0.984 . S
N1022 H1029 0.984 . S
N1023 C1016 1.356 . S
N1023 H1026 0.984 . S
N1023 H1027 0.985 . S
H1024 N1019 0.984 . S
H1025 N1019 0.985 . S
H1026 N1023 0.984 . S
H1027 N1023 0.985 . S
H1028 N1022 0.984 . S
H1029 N1022 0.984 . S
H1030 N1018 0.984 . S
H1031 N1018 0.985 . S
C1032 C1033 1.363 . S
C1032 C1038 1.379 . S
C1032 N1040 1.356 . S
C1033 C1032 1.363 . S
C1033 C1039 1.363 1_554 S
C1034 C1035 1.363 . S
C1034 C1039 1.379 1_455 S
C1034 N1041 1.356 . S
C1035 C1034 1.363 . S
C1035 C1038 1.363 1_456 S
N1036 C1038 1.351 1_455 S
N1036 H1048 0.965 1_455 S
N1036 H1049 1.010 . S
N1037 C1039 1.356 . S
N1037 H1042 0.984 . S
N1037 H1043 0.985 1_655 S
C1038 C1032 1.379 . S
C1038 C1035 1.363 1_654 S
C1038 N1036 1.351 1_655 S
C1039 C1033 1.363 1_556 S
C1039 C1034 1.379 1_655 S
C1039 N1037 1.356 . S
N1040 C1032 1.356 . S
N1040 H1046 0.984 . S
N1040 H1047 0.984 . S
N1041 C1034 1.356 . S
N1041 H1044 0.984 . S
N1041 H1045 0.985 . S
H1042 N1037 0.984 . S
H1043 N1037 0.985 1_455 S
H1044 N1041 0.984 . S
H1045 N1041 0.985 . S
H1046 N1040 0.984 . S
H1047 N1040 0.984 . S
H1048 N1036 0.965 1_655 S
H1049 N1036 1.010 . S
C1050 C1051 1.363 1_556 S
C1050 C1056 1.379 1_565 S
C1050 N1058 1.356 . S
C1051 C1050 1.363 1_554 S
C1051 C1057 1.363 . S
C1052 C1053 1.363 1_554 S
C1052 C1057 1.379 1_545 S
C1052 N1059 1.356 . S
C1053 C1052 1.363 1_556 S
C1053 C1056 1.363 . S
N1054 C1056 1.356 . S
N1054 H1066 0.984 . S
N1054 H1067 0.985 . S
N1055 C1057 1.356 . S
N1055 H1060 0.984 . S
N1055 H1061 0.985 . S
C1056 C1050 1.379 1_545 S
C1056 C1053 1.363 . S
C1056 N1054 1.356 . S
C1057 C1051 1.363 . S
C1057 C1052 1.379 1_565 S
C1057 N1055 1.356 . S
N1058 C1050 1.356 . S
N1058 H1064 0.984 . S
N1058 H1065 0.984 . S
N1059 C1052 1.356 . S
N1059 H1062 0.984 . S
N1059 H1063 0.985 . S
H1060 N1055 0.984 . S
H1061 N1055 0.985 . S
H1062 N1059 0.984 . S
H1063 N1059 0.985 . S
H1064 N1058 0.984 . S
H1065 N1058 0.984 . S
H1066 N1054 0.984 . S
H1067 N1054 0.985 . S
C1068 C1069 1.363 . S
C1068 C1074 1.379 . S
C1068 N1076 1.356 . S
C1069 C1068 1.363 . S
C1069 C1075 1.363 1_554 S
C1070 C1071 1.363 . S
C1070 C1075 1.379 . S
C1070 N1077 1.356 . S
C1071 C1070 1.363 . S
C1071 C1074 1.363 1_556 S
N1072 C1074 1.356 . S
N1072 H1084 0.984 . S
N1072 H1085 0.985 . S
N1073 C1075 1.356 . S
N1073 H1078 0.984 . S
N1073 H1079 0.985 . S
C1074 C1068 1.379 . S
C1074 C1071 1.363 1_554 S
C1074 N1072 1.356 . S
C1075 C1069 1.363 1_556 S
C1075 C1070 1.379 . S
C1075 N1073 1.356 . S
N1076 C1068 1.356 . S
N1076 H1082 0.984 . S
N1076 H1083 0.984 . S
N1077 C1070 1.356 . S
N1077 H1080 0.984 . S
N1077 H1081 0.985 . S
H1078 N1073 0.984 . S
H1079 N1073 0.985 . S
H1080 N1077 0.984 . S
H1081 N1077 0.985 . S
H1082 N1076 0.984 . S
H1083 N1076 0.984 . S
H1084 N1072 0.984 . S
H1085 N1072 0.985 . S
C1086 C1087 1.363 1_556 S
C1086 C1092 1.379 . S
C1086 N1094 1.356 . S
C1087 C1086 1.363 1_554 S
C1087 C1093 1.363 . S
C1088 C1089 1.363 1_554 S
C1088 C1093 1.379 . S
C1088 N1095 1.356 . S
C1089 C1088 1.363 1_556 S
C1089 C1092 1.363 . S
N1090 C1092 1.356 . S
N1090 H1102 0.984 . S
N1090 H1103 0.985 . S
N1091 C1093 1.356 . S
N1091 H1096 0.984 . S
N1091 H1097 0.985 . S
C1092 C1086 1.379 . S
C1092 C1089 1.363 . S
C1092 N1090 1.356 . S
C1093 C1087 1.363 . S
C1093 C1088 1.379 . S
C1093 N1091 1.356 . S
N1094 C1086 1.356 . S
N1094 H1100 0.984 . S
N1094 H1101 0.984 1_556 S
N1095 C1088 1.356 . S
N1095 H1098 0.984 . S
N1095 H1099 0.985 . S
H1096 N1091 0.984 . S
H1097 N1091 0.985 . S
H1098 N1095 0.984 . S
H1099 N1095 0.985 . S
H1100 N1094 0.984 . S
H1101 N1094 0.984 1_554 S
H1102 N1090 0.984 . S
H1103 N1090 0.985 . S
C1104 C1105 1.363 . S
C1104 C1110 1.379 . S
C1104 N1112 1.356 . S
C1105 C1104 1.363 . S
C1105 C1111 1.363 . S
C1106 C1107 1.363 . S
C1106 C1111 1.379 . S
C1106 N1113 1.350 1_455 S
C1107 C1106 1.363 . S
C1107 C1110 1.363 . S
N1108 C1110 1.356 . S
N1108 H1120 0.984 . S
N1108 H1121 0.985 . S
N1109 C1111 1.356 . S
N1109 H1114 0.984 . S
N1109 H1115 0.985 1_455 S
C1110 C1104 1.379 . S
C1110 C1107 1.363 . S
C1110 N1108 1.356 . S
C1111 C1105 1.363 . S
C1111 C1106 1.379 . S
C1111 N1109 1.356 . S
N1112 C1104 1.356 . S
N1112 H1118 0.984 . S
N1112 H1119 0.984 . S
N1113 C1106 1.350 1_655 S
N1113 H1116 0.983 1_655 S
N1113 H1117 0.992 . S
H1114 N1109 0.984 . S
H1115 N1109 0.985 1_655 S
H1116 N1113 0.983 1_455 S
H1117 N1113 0.992 . S
H1118 N1112 0.984 . S
H1119 N1112 0.984 . S
H1120 N1108 0.984 . S
H1121 N1108 0.985 . S
C1122 C1123 1.363 . S
C1122 C1128 1.379 . S
C1122 N1130 1.356 1_545 S
C1123 C1122 1.363 . S
C1123 C1129 1.363 . S
C1124 C1125 1.363 . S
C1124 C1129 1.379 . S
C1124 N1131 1.356 . S
C1125 C1124 1.363 . S
C1125 C1128 1.363 . S
N1126 C1128 1.356 1_565 S
N1126 H1138 0.984 . S
N1126 H1139 0.985 . S
N1127 C1129 1.356 . S
N1127 H1132 0.984 . S
N1127 H1133 0.985 . S
C1128 C1122 1.379 . S
C1128 C1125 1.363 . S
C1128 N1126 1.356 1_545 S
C1129 C1123 1.363 . S
C1129 C1124 1.379 . S
C1129 N1127 1.356 . S
N1130 C1122 1.356 1_565 S
N1130 H1136 0.984 . S
N1130 H1137 0.984 . S
N1131 C1124 1.356 . S
N1131 H1134 0.984 . S
N1131 H1135 0.985 . S
H1132 N1127 0.984 . S
H1133 N1127 0.985 . S
H1134 N1131 0.984 . S
H1135 N1131 0.985 . S
H1136 N1130 0.984 . S
H1137 N1130 0.984 . S
H1138 N1126 0.984 . S
H1139 N1126 0.985 . S
C1140 C1141 1.363 . S
C1140 C1146 1.379 . S
C1140 N1148 1.356 . S
C1141 C1140 1.363 . S
C1141 C1147 1.363 . S
C1142 C1143 1.363 . S
C1142 C1147 1.379 . S
C1142 N1149 1.356 . S
C1143 C1142 1.363 . S
C1143 C1146 1.363 . S
N1144 C1146 1.356 . S
N1144 H1156 0.984 . S
N1144 H1157 0.985 . S
N1145 C1147 1.356 . S
N1145 H1150 0.984 . S
N1145 H1151 0.985 . S
C1146 C1140 1.379 . S
C1146 C1143 1.363 . S
C1146 N1144 1.356 . S
C1147 C1141 1.363 . S
C1147 C1142 1.379 . S
C1147 N1145 1.356 . S
N1148 C1140 1.356 . S
N1148 H1154 0.984 . S
N1148 H1155 0.984 . S
N1149 C1142 1.356 . S
N1149 H1152 0.984 . S
N1149 H1153 0.985 . S
H1150 N1145 0.984 . S
H1151 N1145 0.985 . S
H1152 N1149 0.984 . S
H1153 N1149 0.985 . S
H1154 N1148 0.984 . S
H1155 N1148 0.984 . S
H1156 N1144 0.984 . S
H1157 N1144 0.985 . S
C1158 C1159 1.363 . S
C1158 C1164 1.379 . S
C1158 N1166 1.356 . S
C1159 C1158 1.363 . S
C1159 C1165 1.363 . S
C1160 C1161 1.363 . S
C1160 C1165 1.379 . S
C1160 N1167 1.356 . S
C1161 C1160 1.363 . S
C1161 C1164 1.363 . S
N1162 C1164 1.356 . S
N1162 H1174 0.984 . S
N1162 H1175 0.985 . S
N1163 C1165 1.356 . S
N1163 H1168 0.984 . S
N1163 H1169 0.985 . S
C1164 C1158 1.379 . S
C1164 C1161 1.363 . S
C1164 N1162 1.356 . S
C1165 C1159 1.363 . S
C1165 C1160 1.379 . S
C1165 N1163 1.356 . S
N1166 C1158 1.356 . S
N1166 H1172 0.984 . S
N1166 H1173 0.984 . S
N1167 C1160 1.356 . S
N1167 H1170 0.984 . S
N1167 H1171 0.985 . S
H1168 N1163 0.984 . S
H1169 N1163 0.985 . S
H1170 N1167 0.984 . S
H1171 N1167 0.985 . S
H1172 N1166 0.984 . S
H1173 N1166 0.984 . S
H1174 N1162 0.984 . S
H1175 N1162 0.985 . S
C1176 C1177 1.363 1_455 S
C1176 C1182 1.379 . S
C1176 N1184 1.356 . S
C1177 C1176 1.363 1_655 S
C1177 C1183 1.363 . S
C1178 C1179 1.363 . S
C1178 C1183 1.379 . S
C1178 N1185 1.356 . S
C1179 C1178 1.363 . S
C1179 C1182 1.363 1_655 S
N1180 C1182 1.356 . S
N1180 H1192 0.984 . S
N1180 H1193 0.985 . S
N1181 C1183 1.356 . S
N1181 H1186 0.984 . S
N1181 H1187 0.985 . S
C1182 C1176 1.379 . S
C1182 C1179 1.363 1_455 S
C1182 N1180 1.356 . S
C1183 C1177 1.363 . S
C1183 C1178 1.379 . S
C1183 N1181 1.356 . S
N1184 C1176 1.356 . S
N1184 H1190 0.984 . S
N1184 H1191 0.984 . S
N1185 C1178 1.356 . S
N1185 H1188 0.984 . S
N1185 H1189 0.985 . S
H1186 N1181 0.984 . S
H1187 N1181 0.985 . S
H1188 N1185 0.984 . S
H1189 N1185 0.985 . S
H1190 N1184 0.984 . S
H1191 N1184 0.984 . S
H1192 N1180 0.984 . S
H1193 N1180 0.985 . S
C1194 C1195 1.363 1_545 S
C1194 C1200 1.379 . S
C1194 N1202 1.356 . S
C1195 C1194 1.363 1_565 S
C1195 C1201 1.363 . S
C1196 C1197 1.363 . S
C1196 C1201 1.379 . S
C1196 N1203 1.356 . S
C1197 C1196 1.363 . S
C1197 C1200 1.363 1_565 S
N1198 C1200 1.356 . S
N1198 H1210 0.984 . S
N1198 H1211 0.985 . S
N1199 C1201 1.356 . S
N1199 H1204 0.984 . S
N1199 H1205 0.985 . S
C1200 C1194 1.379 . S
C1200 C1197 1.363 1_545 S
C1200 N1198 1.356 . S
C1201 C1195 1.363 . S
C1201 C1196 1.379 . S
C1201 N1199 1.356 . S
N1202 C1194 1.356 . S
N1202 H1208 0.984 . S
N1202 H1209 0.984 . S
N1203 C1196 1.356 . S
N1203 H1206 0.984 . S
N1203 H1207 0.985 . S
H1204 N1199 0.984 . S
H1205 N1199 0.985 . S
H1206 N1203 0.984 . S
H1207 N1203 0.985 . S
H1208 N1202 0.984 . S
H1209 N1202 0.984 . S
H1210 N1198 0.984 . S
H1211 N1198 0.985 . S
C1212 C1213 1.363 . S
C1212 C1218 1.379 . S
C1212 N1220 1.356 . S
C1213 C1212 1.363 . S
C1213 C1219 1.363 . S
C1214 C1215 1.363 . S
C1214 C1219 1.379 . S
C1214 N1221 1.356 . S
C1215 C1214 1.363 . S
C1215 C1218 1.363 . S
N1216 C1218 1.356 . S
N1216 H1228 0.984 . S
N1216 H1229 0.985 . S
N1217 C1219 1.356 . S
N1217 H1222 0.984 . S
N1217 H1223 0.985 . S
C1218 C1212 1.379 . S
C1218 C1215 1.363 . S
C1218 N1216 1.356 . S
C1219 C1213 1.363 . S
C1219 C1214 1.379 . S
C1219 N1217 1.356 . S
N1220 C1212 1.356 . S
N1220 H1226 0.984 . S
N1220 H1227 0.984 . S
N1221 C1214 1.356 . S
N1221 H1224 0.984 . S
N1221 H1225 0.985 . S
H1222 N1217 0.984 . S
H1223 N1217 0.985 . S
H1224 N1221 0.984 . S
H1225 N1221 0.985 . S
H1226 N1220 0.984 . S
H1227 N1220 0.984 . S
H1228 N1216 0.984 . S
H1229 N1216 0.985 . S
C1230 C1231 1.363 . S
C1230 C1236 1.379 . S
C1230 N1238 1.356 . S
C1231 C1230 1.363 . S
C1231 C1237 1.363 . S
C1232 C1233 1.363 . S
C1232 C1237 1.379 . S
C1232 N1239 1.356 . S
C1233 C1232 1.363 . S
C1233 C1236 1.363 . S
N1234 C1236 1.356 . S
N1234 H1246 0.984 . S
N1234 H1247 0.985 . S
N1235 C1237 1.356 . S
N1235 H1240 0.984 . S
N1235 H1241 0.985 . S
C1236 C1230 1.379 . S
C1236 C1233 1.363 . S
C1236 N1234 1.356 . S
C1237 C1231 1.363 . S
C1237 C1232 1.379 . S
C1237 N1235 1.356 . S
N1238 C1230 1.356 . S
N1238 H1244 0.984 . S
N1238 H1245 0.984 . S
N1239 C1232 1.356 . S
N1239 H1242 0.984 . S
N1239 H1243 0.985 . S
H1240 N1235 0.984 . S
H1241 N1235 0.985 . S
H1242 N1239 0.984 . S
H1243 N1239 0.985 . S
H1244 N1238 0.984 . S
H1245 N1238 0.984 . S
H1246 N1234 0.984 . S
H1247 N1234 0.985 . S
C817 C391 2.749 . S
C819 C543 2.844 . S
C837 C620 2.835 . S
C835 C451 2.759 . S
C855 C711 2.850 . S
C853 C241 2.352 . S
C873 C795 2.827 . S
C871 C331 2.333 . S
C891 C554 2.844 1_565 S
C889 C121 2.387 . S
C907 C211 2.724 . S
C909 C631 2.836 . S
C925 C31 2.721 . S
C927 C722 2.850 . S
C943 C91 2.371 . S
C945 C806 2.827 1_655 S
C963 C538 0.771 . S
C961 C301 0.760 . S
C981 C633 0.761 . S
C979 C380 0.761 . S
C999 C706 0.791 . S
C997 C440 0.787 . S
C1015 C260 0.756 . S
C1017 C790 0.763 . S
C1033 C61 0.765 . S
C1035 C549 0.771 . S
C1053 C622 0.761 . S
C1051 C140 0.759 . S
C1071 C717 0.791 . S
C1069 C200 0.776 . S
C1087 C20 0.758 . S
C1089 C801 0.763 . S
C1105 C320 3.067 . S
C1107 C547 3.302 . S
C1123 C361 2.679 . S
C1125 C638 3.406 . S
C1143 C715 3.323 . S
C1141 C421 2.694 . S
C1161 C799 3.324 . S
C1159 C271 3.089 . S
C1177 C80 3.086 . S
C1179 C536 3.302 . S
C1197 C627 3.406 . S
C1195 C151 3.090 . S
C1215 C704 3.323 . S
C1213 C181 2.670 . S
C1231 C1 2.675 . S
C1233 C788 3.323 . S
