# Generated by pormake.
# Topology pth, (4,4)-cn, num edge types: 1
# Building blocks:
#     Node 0, Type 0, BuildingBlock: KUFVIS_clean_sbu_0, # of connection points: 4
#     Node 1, Type 0, BuildingBlock: KUFVIS_clean_sbu_0, # of connection points: 4
#     Node 2, Type 0, BuildingBlock: KUFVIS_clean_sbu_0, # of connection points: 4
#     Node 3, Type 1, BuildingBlock: NAWXER_clean_linker_0, # of connection points: 4
#     Node 4, Type 1, BuildingBlock: NAWXER_clean_linker_0, # of connection points: 4
#     Node 5, Type 1, BuildingBlock: NAWXER_clean_linker_0, # of connection points: 4
#     Edge 6, Type (0, 1), BuildingBlock: FUNLAD_clean_linker_1, # of connection points: 2
#     Edge 7, Type (0, 1), BuildingBlock: FUNLAD_clean_linker_1, # of connection points: 2
#     Edge 8, Type (0, 1), BuildingBlock: FUNLAD_clean_linker_1, # of connection points: 2
#     Edge 9, Type (0, 1), BuildingBlock: FUNLAD_clean_linker_1, # of connection points: 2
#     Edge 10, Type (0, 1), BuildingBlock: FUNLAD_clean_linker_1, # of connection points: 2
#     Edge 11, Type (0, 1), BuildingBlock: FUNLAD_clean_linker_1, # of connection points: 2
#     Edge 12, Type (0, 1), BuildingBlock: FUNLAD_clean_linker_1, # of connection points: 2
#     Edge 13, Type (0, 1), BuildingBlock: FUNLAD_clean_linker_1, # of connection points: 2
#     Edge 14, Type (0, 1), BuildingBlock: FUNLAD_clean_linker_1, # of connection points: 2
#     Edge 15, Type (0, 1), BuildingBlock: FUNLAD_clean_linker_1, # of connection points: 2
#     Edge 16, Type (0, 1), BuildingBlock: FUNLAD_clean_linker_1, # of connection points: 2
#     Edge 17, Type (0, 1), BuildingBlock: FUNLAD_clean_linker_1, # of connection points: 2
# Relax obj value: 0.011
# Max RMSD: 0.077
# Mean RMSD: 0.050
data_MOF--net-pth--node1-KUFVIS_clean_sbu_0--node2-NAWXER_clean_linker_0--edge1-FUNLAD_clean_linker_1
_symmetry_space_group_name_H-M    P1
_symmetry_Int_Tables_number       1
_symmetry_cell_setting            triclinic
loop_
_symmetry_equiv_pos_as_xyz
'x, y, z'
_cell_length_a     29.456965
_cell_length_b     29.454219
_cell_length_c     67.962244
_cell_angle_alpha  90.293518
_cell_angle_beta   91.786288
_cell_angle_gamma 119.98282
loop_
_atom_site_label
_atom_site_type_symbol
_atom_site_fract_x
_atom_site_fract_y
_atom_site_fract_z
_atom_type_partial_charge
Mn0 Mn 0.02975 0.07292 0.05329 0.0
Mn1 Mn 0.95937 0.11582 0.02761 0.0
C2 C 0.97252 0.02106 0.02768 0.0
C3 C 0.03717 0.02795 0.08027 0.0
C4 C 0.07568 0.15737 0.02246 0.0
O5 O 0.03589 0.13258 0.07076 0.0
O6 O 0.97982 0.1509 0.05404 0.0
C7 C 0.86478 0.07353 0.05139 0.0
N8 N 0.88707 0.07693 0.0338 0.0
C9 C 0.80249 0.02693 0.01721 0.0
C10 C 0.77858 0.02292 0.03514 0.0
C11 C 0.80988 0.04602 0.05233 0.0
C12 C 0.85738 0.0539 0.01727 0.0
H13 H 0.88872 0.09195 0.06456 0.0
C14 C 0.01037 0.15698 0.06886 0.0
O15 O 0.07845 0.06201 0.0713 0.0
O16 O 0.99231 0.0214 0.07401 0.0
N17 N 0.93654 0.08507 1.00175 0.0
C18 C 0.96569 0.09327 0.98558 0.0
C19 C 0.94033 0.07149 0.96727 0.0
C20 C 0.8853 0.04267 0.96567 0.0
C21 C 0.85611 0.03622 0.98239 0.0
C22 C 0.88355 0.05821 1.0003 0.0
H23 H 0.00796 0.11609 0.98663 0.0
O24 O 0.01048 0.01409 0.03403 0.0
O25 O 0.96878 0.05795 0.03677 0.0
O26 O 0.08091 0.12607 0.034 0.0
O27 O 0.03288 0.1579 0.01981 0.0
C28 C 0.80085 0.00946 0.98193 0.0
C29 C 0.77406 1.00497 0.99931 0.0
H30 H 0.73625 1.0021 0.03589 0.0
H31 H 0.79172 0.04306 0.06622 0.0
H32 H 0.96314 0.07719 0.95439 0.0
H33 H 0.86588 0.02619 0.95151 0.0
H34 H 0.77856 0.99209 0.96829 0.0
H35 H 0.73158 0.98399 0.9988 0.0
Mn36 Mn 0.038 0.08171 0.38266 0.0
Mn37 Mn 0.09594 0.19188 0.41134 0.0
C38 C 0.09234 0.08842 0.40923 0.0
C39 C 0.03873 0.03443 0.35512 0.0
C40 C 0.98102 0.10878 0.4133 0.0
O41 O 0.03007 0.13512 0.3659 0.0
O42 O 0.07735 0.20804 0.38498 0.0
C43 C 0.19359 0.25221 0.38978 0.0
N44 N 0.16934 0.23052 0.40677 0.0
C45 C 0.25215 0.26006 0.42415 0.0
C46 C 0.27803 0.28313 0.40688 0.0
C47 C 0.24861 0.27914 0.38962 0.0
C48 C 0.19727 0.23426 0.42348 0.0
H49 H 0.17109 0.2488 0.37643 0.0
C50 C 0.0511 0.18452 0.36915 0.0
O51 O 0.99512 0.02342 0.36322 0.0
O52 O 0.08139 0.07401 0.36248 0.0
N53 N 0.11636 0.18194 0.43726 0.0
C54 C 0.08536 0.15508 0.45236 0.0
C55 C 0.1087 0.15448 0.47061 0.0
C56 C 0.16359 0.18108 0.47312 0.0
C57 C 0.19467 0.20879 0.45742 0.0
C58 C 0.1692 0.20916 0.43972 0.0
H59 H 0.04316 0.13421 0.45051 0.0
O60 O 0.05856 0.0428 0.40168 0.0
O61 O 0.09353 0.12855 0.40088 0.0
O62 O 0.98159 0.07604 0.40109 0.0
O63 O 0.02078 0.15383 0.41746 0.0
C64 C 0.2499 0.23511 0.4585 0.0
C65 C 0.27862 0.26073 0.44188 0.0
H66 H 0.32045 0.30353 0.40665 0.0
H67 H 0.26829 0.29655 0.3762 0.0
H68 H 0.08442 0.13314 0.48268 0.0
H69 H 0.18142 0.1796 0.48711 0.0
H70 H 0.27067 0.23531 0.47197 0.0
H71 H 0.32105 0.2803 0.44283 0.0
Mn72 Mn 0.04465 0.05359 0.71912 0.0
Mn73 Mn 0.98074 0.10427 0.74326 0.0
C74 C 0.08516 0.10755 0.74647 0.0
C75 C 0.09607 0.05906 0.6929 0.0
C76 C 0.95712 0.99188 0.74746 0.0
O77 O 0.98388 0.03965 0.70029 0.0
O78 O 0.95129 0.0843 0.71576 0.0
C79 C 0.01638 0.20095 0.72048 0.0
N80 N 0.01286 0.17741 0.73801 0.0
C81 C 0.05727 0.26074 0.75535 0.0
C82 C 0.06122 0.28589 0.73749 0.0
C83 C 0.04086 0.25585 0.71997 0.0
C84 C 0.03306 0.20598 0.75489 0.0
H85 H 1.00059 0.17801 0.70698 0.0
C86 C 0.95294 0.058 0.70099 0.0
O87 O 0.06647 0.01466 0.70121 0.0
O88 O 0.09544 0.09996 0.69966 0.0
N89 N 1.00462 0.12593 0.76998 0.0
C90 C 0.99551 0.09558 0.7861 0.0
C91 C 0.01398 0.11962 0.80478 0.0
C92 C 0.04041 0.17454 0.80677 0.0
C93 C 0.04744 0.20489 0.79009 0.0
C94 C 0.02844 0.17874 0.77184 0.0
H95 H 0.97489 0.05342 0.78468 0.0
O96 O 0.10268 0.07835 0.73959 0.0
O97 O 0.04584 0.10607 0.73658 0.0
O98 O 0.99386 0.99523 0.73693 0.0
O99 O 0.9472 0.02921 0.74985 0.0
C100 C 0.07184 0.25999 0.79091 0.0
C101 C 0.0764 0.28786 0.77357 0.0
H102 H 0.07988 0.32821 0.73706 0.0
H103 H 0.04385 0.27497 0.70613 0.0
H104 H 0.0077 0.09587 0.81761 0.0
H105 H 0.05449 0.19296 0.82121 0.0
H106 H 0.08699 0.28132 0.80481 0.0
H107 H 0.09507 0.33021 0.7744 0.0
C108 C 0.98778 0.40786 0.24391 0.0
C109 C 0.01774 0.41555 0.2614 0.0
C110 C 0.99318 0.4506 0.23319 0.0
C111 C 0.02941 0.50211 0.23956 0.0
C112 C 0.05339 0.46735 0.26792 0.0
C113 C 0.05873 0.51006 0.25719 0.0
C114 C 0.03691 0.54781 0.22799 0.0
C115 C 0.09197 0.45814 0.19159 0.0
C116 C 0.06364 0.4378 0.17362 0.0
C117 C 0.08662 0.49535 0.2026 0.0
C118 C 0.05227 0.51266 0.19599 0.0
C119 C 0.03074 0.45677 0.16668 0.0
C120 C 0.02521 0.49375 0.17776 0.0
C121 C 0.04569 0.55176 0.20756 0.0
C122 C 0.09976 0.77355 0.19112 0.0
C123 C 0.07091 0.76622 0.17337 0.0
C124 C 0.09183 0.7306 0.2023 0.0
C125 C 0.05487 0.67932 0.19593 0.0
C126 C 0.03474 0.71469 0.1668 0.0
C127 C 0.02703 0.67176 0.17794 0.0
C128 C 0.04663 0.63338 0.20749 0.0
C129 C 0.98836 0.72071 0.24344 0.0
C130 C 0.01614 0.74155 0.26146 0.0
C131 C 0.99522 0.68435 0.23252 0.0
C132 C 0.03033 0.66819 0.23932 0.0
C133 C 0.05023 0.72415 0.26853 0.0
C134 C 0.05707 0.68778 0.25757 0.0
C135 C 0.03774 0.6294 0.22791 0.0
H136 H 0.96003 0.36857 0.23849 0.0
H137 H 0.96919 0.44338 0.21986 0.0
H138 H 0.07829 0.47545 0.281 0.0
H139 H 0.08686 0.54943 0.2624 0.0
H140 H 0.11833 0.44514 0.19717 0.0
H141 H 0.10953 0.5107 0.21625 0.0
H142 H 0.00956 0.44392 0.15263 0.0
H143 H 0.99934 0.50732 0.17214 0.0
H144 H 0.12847 0.81267 0.19638 0.0
H145 H 0.11496 0.73747 0.21584 0.0
H146 H 0.01307 0.70716 0.15288 0.0
H147 H 0.99903 0.63252 0.17255 0.0
H148 H 0.96119 0.73259 0.23776 0.0
H149 H 0.97268 0.66854 0.21881 0.0
H150 H 0.07106 0.73758 0.28263 0.0
H151 H 0.08358 0.67514 0.26332 0.0
N152 N 0.03366 0.58697 0.23738 0.0
N153 N 0.04984 0.59422 0.19811 0.0
C154 C 0.69873 0.10759 0.51853 0.0
C155 C 0.6827 0.07831 0.50078 0.0
C156 C 0.66146 0.10478 0.53152 0.0
C157 C 0.6075 0.07075 0.5274 0.0
C158 C 0.62911 0.04547 0.49636 0.0
C159 C 0.59195 0.04119 0.50963 0.0
C160 C 0.56646 0.0691 0.54018 0.0
C161 C 0.66955 0.0406 0.58417 0.0
C162 C 0.69219 0.07887 0.59947 0.0
C163 C 0.631 0.03942 0.57119 0.0
C164 C 0.61471 0.07657 0.5732 0.0
C165 C 0.67579 0.11595 0.60127 0.0
C166 C 0.63747 0.11474 0.58836 0.0
C167 C 0.57069 0.0735 0.561 0.0
C168 C 0.35597 0.02989 0.58389 0.0
C169 C 0.37209 0.06271 0.60081 0.0
C170 C 0.39307 0.03216 0.57094 0.0
C171 C 0.44678 0.06842 0.57433 0.0
C172 C 0.42565 0.09802 0.6044 0.0
C173 C 0.46253 0.10114 0.59125 0.0
C174 C 0.48758 0.0697 0.56163 0.0
C175 C 0.3814 0.09729 0.52009 0.0
C176 C 0.35684 0.05879 0.50494 0.0
C177 C 0.42235 0.0995 0.53187 0.0
C178 C 0.43908 0.06297 0.52896 0.0
C179 C 0.37411 0.02266 0.50207 0.0
C180 C 0.41492 0.02491 0.51384 0.0
C181 C 0.4833 0.06542 0.54085 0.0
H182 H 0.73997 0.13434 0.52194 0.0
H183 H 0.67511 0.1306 0.54437 0.0
H184 H 0.616 0.02307 0.48261 0.0
H185 H 0.55078 0.01527 0.50581 0.0
H186 H 0.68003 0.01053 0.58245 0.0
H187 H 0.61295 0.00869 0.55994 0.0
H188 H 0.69221 0.14571 0.61293 0.0
H189 H 0.62515 0.14346 0.59034 0.0
H190 H 0.31502 1.00109 0.58107 0.0
H191 H 0.37975 1.00453 0.55861 0.0
H192 H 0.43902 0.12332 0.61745 0.0
H193 H 0.50363 0.12891 0.59445 0.0
H194 H 0.3696 0.12591 0.523 0.0
H195 H 0.44124 0.13006 0.54315 0.0
H196 H 0.35621 0.99266 0.49054 0.0
H197 H 0.42747 0.99662 0.51118 0.0
N198 N 0.52268 0.06499 0.53106 0.0
N199 N 0.53126 0.07385 0.57074 0.0
C200 C 0.38665 0.38294 0.85528 0.0
C201 C 0.36909 0.39985 0.83895 0.0
C202 C 0.42601 0.41965 0.86827 0.0
C203 C 0.44689 0.47377 0.86553 0.0
C204 C 0.39005 0.45358 0.83614 0.0
C205 C 0.42797 0.49009 0.84939 0.0
C206 C 0.4922 0.51434 0.87763 0.0
C207 C 0.37277 0.41837 0.92268 0.0
C208 C 0.39058 0.39437 0.93638 0.0
C209 C 0.40781 0.45669 0.91017 0.0
C210 C 0.46109 0.47118 0.91087 0.0
C211 C 0.44388 0.409 0.93697 0.0
C212 C 0.47882 0.44731 0.9245 0.0
C213 C 0.49928 0.51296 0.8983 0.0
C214 C 0.67116 0.73327 0.91718 0.0
C215 C 0.7003 0.72504 0.93204 0.0
C216 C 0.63219 0.69128 0.90593 0.0
C217 C 0.62179 0.63993 0.90911 0.0
C218 C 0.68909 0.67334 0.9355 0.0
C219 C 0.6501 0.63127 0.92416 0.0
C220 C 0.57948 0.59513 0.89753 0.0
C221 C 0.70128 0.69175 0.85377 0.0
C222 C 0.68357 0.71299 0.83889 0.0
C223 C 0.66568 0.65387 0.86625 0.0
C224 C 0.61189 0.63703 0.86429 0.0
C225 C 0.62979 0.69602 0.83703 0.0
C226 C 0.59429 0.65815 0.84946 0.0
C227 C 0.57323 0.59559 0.87687 0.0
H228 H 0.37183 0.34153 0.85743 0.0
H229 H 0.44127 0.40555 0.87993 0.0
H230 H 0.37729 0.46738 0.82354 0.0
H231 H 0.44351 0.53141 0.84672 0.0
H232 H 0.33188 0.40752 0.92138 0.0
H233 H 0.39331 0.4752 0.90003 0.0
H234 H 0.45874 0.39113 0.94727 0.0
H235 H 0.51982 0.45815 0.92543 0.0
H236 H 0.67819 0.77241 0.91436 0.0
H237 H 0.60967 0.69897 0.89492 0.0
H238 H 0.70936 0.66472 0.94711 0.0
H239 H 0.64206 0.59187 0.92714 0.0
H240 H 0.74245 0.70446 0.85604 0.0
H241 H 0.68018 0.63743 0.87732 0.0
H242 H 0.61503 0.71181 0.82578 0.0
H243 H 0.55298 0.64556 0.84756 0.0
N244 N 0.52973 0.55557 0.86787 0.0
N245 N 0.54267 0.55348 0.90738 0.0
H246 H 0.98859 0.21032 0.08292 0.0
C247 C 0.0146 0.19415 0.08443 0.0
H248 H 0.07695 0.1962 0.10157 0.0
H249 H 0.12551 0.42636 0.13004 0.0
H250 H 0.19735 0.44937 0.10843 0.0
H251 H 0.20363 0.38112 0.08953 0.0
H252 H 0.13762 0.28925 0.09205 0.0
C253 C 0.0489 0.20977 0.09991 0.0
C254 C 0.05089 0.24913 0.11431 0.0
C255 C 0.09085 0.30231 0.11337 0.0
C256 C 0.08777 0.34155 0.12462 0.0
C257 C 0.12656 0.39471 0.12237 0.0
C258 C 0.16793 0.40854 0.10988 0.0
C259 C 0.17142 0.37013 0.09921 0.0
C260 C 0.1333 0.31759 0.10079 0.0
H261 H 0.1032 0.39247 0.16694 0.0
C262 C 0.07059 0.39806 0.16245 0.0
H263 H 1.00301 0.36926 0.1435 0.0
H264 H 0.97223 0.15 0.12158 0.0
H265 H 0.90171 0.12593 0.1441 0.0
H266 H 0.89655 0.19354 0.16391 0.0
H267 H 0.96176 0.28555 0.16133 0.0
C268 C 0.03816 0.36786 0.14753 0.0
C269 C 0.04534 0.32714 0.13725 0.0
C270 C 1.0071 0.27348 0.13904 0.0
C271 C 0.00996 0.23448 0.1276 0.0
C272 C 0.97135 0.18121 0.12971 0.0
C273 C 0.93087 0.16686 0.14266 0.0
C274 C 0.92797 0.20492 0.15381 0.0
C275 C 0.96556 0.25763 0.15212 0.0
H276 H 0.9065 0.05036 0.42601 0.0
C277 C 0.93308 0.09211 0.42441 0.0
H278 H 0.95041 0.16873 0.43174 0.0
H279 H 0.70645 0.00669 0.46254 0.0
H280 H 0.68253 0.97141 0.42914 0.0
H281 H 0.74831 1.00327 0.40348 0.0
H282 H 0.83873 0.06879 0.4113 0.0
C283 C 0.92343 0.12708 0.43341 0.0
C284 C 0.88135 0.1117 0.44792 0.0
C285 C 0.82778 0.07669 0.44262 0.0
C286 C 0.78884 0.06194 0.45696 0.0
C287 C 0.73679 0.02232 0.45187 0.0
C288 C 0.72263 1.00126 0.4328 0.0
C289 C 0.75973 0.01894 0.41839 0.0
C290 C 0.8117 0.05623 0.42315 0.0
H291 H 0.7156 0.09499 0.47123 0.0
C292 C 0.72127 0.08471 0.48608 0.0
H293 H 0.76614 0.0656 0.50528 0.0
H294 H 0.98066 0.17545 0.46384 0.0
H295 H 1.00349 0.21498 0.49654 0.0
H296 H 0.93492 0.19822 0.52001 0.0
H297 H 0.84326 0.14086 0.51107 0.0
C298 C 0.76147 0.07664 0.49044 0.0
C299 C 0.80255 0.08655 0.47597 0.0
C300 C 0.85605 0.12187 0.48121 0.0
C301 C 0.89549 0.13339 0.46736 0.0
C302 C 0.94879 0.16669 0.47342 0.0
C303 C 0.96259 0.18952 0.49223 0.0
C304 C 0.92401 0.17996 0.50546 0.0
C305 C 0.87139 0.14666 0.50011 0.0
H306 H 0.93261 0.91028 0.75569 0.0
C307 C 0.92553 0.94272 0.75808 0.0
H308 H 0.8844 0.97103 0.77437 0.0
H309 H 0.72455 0.72023 0.78771 0.0
H310 H 0.70194 0.71514 0.7528 0.0
H311 H 0.75171 0.79077 0.73161 0.0
H312 H 0.82479 0.87169 0.74512 0.0
C313 C 0.89031 0.93819 0.77121 0.0
C314 C 0.86218 0.89106 0.78345 0.0
C315 C 0.81914 0.84437 0.77533 0.0
C316 C 0.78942 0.8013 0.78767 0.0
C317 C 0.74746 0.75463 0.77912 0.0
C318 C 0.73425 0.75108 0.75908 0.0
C319 C 0.76235 0.79363 0.74714 0.0
C320 C 0.80431 0.83983 0.75508 0.0
H321 H 0.70509 0.7764 0.81757 0.0
C322 C 0.7196 0.75365 0.82531 0.0
H323 H 0.78436 0.74109 0.82867 0.0
H324 H 0.94476 0.9733 0.80335 0.0
H325 H 0.96706 0.9786 0.83827 0.0
H326 H 0.91421 0.90476 0.85982 0.0
H327 H 0.83882 0.82519 0.84656 0.0
C328 C 0.76804 0.76289 0.82155 0.0
C329 C 0.802 0.80558 0.80818 0.0
C330 C 0.84616 0.85157 0.81614 0.0
C331 C 0.87626 0.89435 0.80377 0.0
C332 C 0.92008 0.93994 0.81213 0.0
C333 C 0.93344 0.94342 0.83214 0.0
C334 C 0.90372 0.90183 0.84427 0.0
C335 C 0.86055 0.85636 0.83646 0.0
H336 H 1.00356 0.97098 0.10388 0.0
C337 C 0.03929 0.99482 0.09606 0.0
H338 H 0.11561 0.00912 0.09093 0.0
H339 H 0.05365 0.88102 0.17582 0.0
H340 H 0.06843 0.9631 0.1901 0.0
H341 H 0.08806 0.03844 0.16915 0.0
H342 H 0.09241 0.03186 0.13369 0.0
C343 C 0.08077 0.98827 0.0995 0.0
C344 C 0.07609 0.94561 0.11251 0.0
C345 C 0.07528 0.95049 0.13324 0.0
C346 C 0.0656 0.9075 0.14538 0.0
C347 C 0.06253 0.91282 0.16594 0.0
C348 C 0.07063 0.95967 0.17434 0.0
C349 C 0.08154 1.00205 0.16254 0.0
C350 C 0.08376 0.99771 0.14221 0.0
H351 H 0.11892 0.84848 0.16402 0.0
C352 C 0.08112 0.81291 0.16175 0.0
H353 H 1.00709 0.77924 0.14666 0.0
H354 H 0.07686 0.92378 0.07336 0.0
H355 H 0.06426 0.8425 0.05905 0.0
H356 H 0.04948 0.76869 0.08008 0.0
H357 H 0.04699 0.77559 0.11555 0.0
C358 C 0.04551 0.81373 0.14907 0.0
C359 C 0.05809 0.86008 0.13677 0.0
C360 C 0.06025 0.85575 0.11606 0.0
C361 C 0.06932 0.89852 0.10394 0.0
C362 C 0.07044 0.89269 0.08328 0.0
C363 C 0.06326 0.84623 0.07486 0.0
C364 C 0.0549 0.80466 0.0867 0.0
C365 C 0.05343 0.80914 0.10705 0.0
H366 H 0.17035 0.13022 0.42407 0.0
C367 C 0.13319 0.09398 0.42365 0.0
H368 H 0.09096 0.01777 0.43479 0.0
H369 H 0.34727 0.1144 0.45884 0.0
H370 H 0.36049 0.11784 0.42373 0.0
H371 H 0.28653 0.09263 0.39983 0.0
H372 H 0.19934 0.06505 0.4109 0.0
C373 C 0.12792 0.05461 0.43501 0.0
C374 C 0.17091 0.06202 0.4492 0.0
C375 C 0.22107 0.07514 0.44242 0.0
C376 C 0.26304 0.08664 0.45617 0.0
C377 C 0.31349 0.10302 0.44904 0.0
C378 C 0.32172 0.10548 0.42891 0.0
C379 C 0.28015 0.09154 0.41546 0.0
C380 C 0.23033 0.07631 0.42204 0.0
H381 H 0.29551 0.02155 0.48121 0.0
C382 C 0.31371 0.05465 0.49161 0.0
H383 H 0.31234 0.12291 0.50107 0.0
H384 H 0.07943 0.03638 0.46722 0.0
H385 H 0.06592 0.03034 0.50231 0.0
H386 H 0.13812 0.04761 0.52606 0.0
H387 H 0.22438 0.07109 0.51484 0.0
C388 C 0.29672 0.08944 0.491 0.0
C389 C 0.25409 0.08191 0.47664 0.0
C390 C 0.2039 0.06812 0.48341 0.0
C391 C 0.16219 0.05789 0.46969 0.0
C392 C 0.11246 0.04419 0.47693 0.0
C393 C 0.10415 0.04066 0.49706 0.0
C394 C 0.14482 0.05045 0.51043 0.0
C395 C 0.19415 0.06392 0.50378 0.0
H396 H 0.09482 0.13566 0.77742 0.0
C397 C 0.1129 0.1432 0.76334 0.0
H398 H 0.18202 0.18916 0.74811 0.0
H399 H 0.25741 0.37936 0.80955 0.0
H400 H 0.23102 0.41246 0.78148 0.0
H401 H 0.1882 0.35652 0.75187 0.0
H402 H 0.16919 0.26638 0.75059 0.0
C403 C 0.16294 0.18133 0.76213 0.0
C404 C 0.1925 0.21589 0.77942 0.0
C405 C 0.20483 0.26892 0.77966 0.0
C406 C 0.23232 0.3021 0.79625 0.0
C407 C 0.23991 0.35354 0.7968 0.0
C408 C 0.22438 0.37285 0.78087 0.0
C409 C 0.2002 0.34135 0.76422 0.0
C410 C 0.18969 0.2897 0.76365 0.0
H411 H 0.3417 0.37243 0.80839 0.0
C412 C 0.33236 0.36262 0.82369 0.0
H413 H 0.27696 0.31029 0.84318 0.0
H414 H 0.17641 0.1164 0.78342 0.0
H415 H 0.20496 0.08397 0.81102 0.0
H416 H 0.25534 0.14224 0.83929 0.0
H417 H 0.27729 0.23315 0.84015 0.0
C418 C 0.28695 0.31979 0.82792 0.0
C419 C 0.251 0.28328 0.81195 0.0
C420 C 0.23784 0.22988 0.81183 0.0
C421 C 0.20854 0.19615 0.79556 0.0
C422 C 0.19744 0.14347 0.79556 0.0
C423 C 0.21394 0.12439 0.81127 0.0
C424 C 0.24234 0.1572 0.82717 0.0
C425 C 0.25455 0.20939 0.82748 0.0
H426 H 0.91968 0.02655 0.67112 0.0
C427 C 0.91833 0.0494 0.68348 0.0
H428 H 0.88644 0.09479 0.69398 0.0
H429 H 0.83466 0.14888 0.60955 0.0
H430 H 0.91211 0.2313 0.61919 0.0
H431 H 0.96444 0.23854 0.64933 0.0
H432 H 0.93989 0.16331 0.66991 0.0
C433 C 0.88672 0.07005 0.68212 0.0
C434 C 0.85546 0.06472 0.66373 0.0
C435 C 0.86986 0.10929 0.65204 0.0
C436 C 0.83912 0.10539 0.63487 0.0
C437 C 0.85558 0.15008 0.62308 0.0
C438 C 0.90023 0.19754 0.62836 0.0
C439 C 0.92973 0.20159 0.64531 0.0
C440 C 0.91507 0.1581 0.65703 0.0
H441 H 0.73841 0.10519 0.6276 0.0
C442 C 0.73081 0.0805 0.61454 0.0
H443 H 0.75138 0.02897 0.6006 0.0
H444 H 0.81637 0.97176 0.68298 0.0
H445 H 0.73971 0.88914 0.67303 0.0
H446 H 0.68678 0.88228 0.64313 0.0
H447 H 0.71011 0.9581 0.62303 0.0
C448 C 0.75724 0.05435 0.61317 0.0
C449 C 0.79319 0.05721 0.6297 0.0
C450 C 0.77982 0.01219 0.641 0.0
C451 C 0.81074 0.016 0.65813 0.0
C452 C 0.7951 0.9709 0.6696 0.0
C453 C 0.75096 0.92324 0.66412 0.0
C454 C 0.72112 0.91939 0.64729 0.0
C455 C 0.73502 0.96324 0.63587 0.0
H456 H 0.89981 0.94573 0.02752 0.0
C457 C 0.92675 0.976 0.01795 0.0
H458 H 0.95331 0.99608 0.98953 0.0
H459 H 0.86162 0.78727 0.94261 0.0
H460 H 0.95495 0.82875 0.93771 0.0
H461 H 0.01745 0.90849 0.95674 0.0
H462 H 0.98722 0.94769 0.98044 0.0
C463 C 0.92311 0.96682 0.99845 0.0
C464 C 0.88445 0.91506 0.98877 0.0
C465 C 0.90324 0.89127 0.97544 0.0
C466 C 0.86748 0.844 0.96499 0.0
C467 C 0.88713 0.8225 0.95121 0.0
C468 C 0.94065 0.84591 0.94823 0.0
C469 C 0.9758 0.89087 0.95889 0.0
C470 C 0.95765 0.91332 0.97237 0.0
H471 H 0.73989 0.80793 0.94228 0.0
C472 C 0.73997 0.77126 0.94401 0.0
H473 H 0.77977 0.73652 0.95833 0.0
H474 H 0.8317 0.9493 0.01206 0.0
H475 H 0.74031 0.90195 0.01951 0.0
H476 H 0.68092 0.81511 1.00422 0.0
H477 H 0.71321 0.77581 0.98125 0.0
C478 C 0.77568 0.77092 0.95678 0.0
C479 C 0.81316 0.81921 0.96837 0.0
C480 C 0.79457 0.84069 0.98259 0.0
C481 C 0.82968 0.88946 0.99229 0.0
C482 C 0.80838 0.91134 1.00514 0.0
C483 C 0.75543 0.88467 0.00939 0.0
C484 C 0.72197 0.83594 1.00074 0.0
C485 C 0.74103 0.81406 0.98745 0.0
H486 H 0.07952 0.01319 0.33348 0.0
C487 C 0.04137 1.00116 0.33939 0.0
H488 H 0.96245 0.94084 0.34036 0.0
H489 H 0.05644 0.88236 0.2612 0.0
H490 H 0.06193 0.96008 0.24682 0.0
H491 H 0.04089 0.01796 0.26607 0.0
H492 H 0.01483 0.99882 0.29993 0.0
C493 C 1.00015 0.9545 0.33378 0.0
C494 C 1.00718 0.91687 0.32123 0.0
C495 C 0.02076 0.92771 0.30126 0.0
C496 C 0.03125 0.89336 0.28995 0.0
C497 C 0.04675 0.90631 0.27031 0.0
C498 C 0.05024 0.95092 0.26189 0.0
C499 C 0.03853 0.98359 0.27274 0.0
C500 C 0.0239 0.97231 0.2922 0.0
H501 H 0.97193 0.78179 0.2687 0.0
C502 C 1.00684 0.77962 0.27268 0.0
H503 H 0.07519 0.81208 0.29146 0.0
H504 H 0.98049 0.88334 0.35889 0.0
H505 H 0.97197 0.80402 0.37283 0.0
H506 H 0.98791 0.74346 0.35294 0.0
H507 H 0.01274 0.76201 0.31896 0.0
C508 C 0.03955 0.81217 0.28707 0.0
C509 C 0.02677 0.84748 0.29846 0.0
C510 C 0.01173 0.83587 0.31823 0.0
C511 C 1.0019 0.87052 0.32962 0.0
C512 C 0.98783 0.85822 0.34945 0.0
C513 C 0.98288 0.81281 0.35767 0.0
C514 C 0.99191 0.77874 0.34648 0.0
C515 C 1.00621 0.78993 0.327 0.0
H516 H 0.14383 0.09823 0.66748 0.0
C517 C 0.12978 0.06386 0.67657 0.0
H518 H 0.13238 0.99512 0.68264 0.0
H519 H 0.20871 0.95913 0.60219 0.0
H520 H 0.12373 0.88086 0.60439 0.0
H521 H 0.06384 0.87296 0.6304 0.0
H522 H 0.08891 0.94296 0.65458 0.0
C523 C 0.14635 0.02945 0.67353 0.0
C524 C 0.18226 0.03574 0.65738 0.0
C525 C 0.1664 0.995 0.64299 0.0
C526 C 0.20037 1.00016 0.62762 0.0
C527 C 0.1842 0.95792 0.61393 0.0
C528 C 0.13548 0.91261 0.61503 0.0
C529 C 0.1018 0.90813 0.62969 0.0
C530 C 0.11682 0.94866 0.64353 0.0
H531 H 0.34802 0.06575 0.63098 0.0
C532 C 0.33452 0.05888 0.6156 0.0
H533 H 0.2724 0.04441 0.59551 0.0
H534 H 0.23059 0.1174 0.68452 0.0
H535 H 0.31181 0.19885 0.68065 0.0
H536 H 0.3633 0.21367 0.65102 0.0
H537 H 0.33486 0.14606 0.62554 0.0
C538 C 0.28621 0.05046 0.61082 0.0
C539 C 0.2496 0.04671 0.6263 0.0
C540 C 0.26431 0.08853 0.64014 0.0
C541 C 0.23208 0.08192 0.65628 0.0
C542 C 0.25119 0.12179 0.67115 0.0
C543 C 0.29819 0.1686 0.66925 0.0
C544 C 0.32735 0.1768 0.65264 0.0
C545 C 0.31082 0.1374 0.63821 0.0
H546 H 0.11522 0.22425 1.00293 0.0
C547 C 0.12044 0.19551 0.01118 0.0
H548 H 0.17156 0.16582 0.01717 0.0
H549 H 0.27808 0.26096 0.93511 0.0
H550 H 0.23195 0.16787 0.92717 0.0
H551 H 0.17446 0.10369 0.95108 0.0
H552 H 0.16257 0.13234 0.98309 0.0
C553 C 0.16583 0.19547 0.00991 0.0
C554 C 0.20711 0.23348 0.99694 0.0
C555 C 0.21513 0.21608 0.97857 0.0
C556 C 0.24901 0.25312 0.9649 0.0
C557 C 0.25402 0.23465 0.94627 0.0
C558 C 0.22747 0.18126 0.94146 0.0
C559 C 0.19504 0.14512 0.95491 0.0
C560 C 0.18859 0.1621 0.97323 0.0
H561 H 0.3685 0.32873 0.95684 0.0
C562 C 0.35504 0.35353 0.95007 0.0
H563 H 0.2953 0.37355 0.95001 0.0
H564 H 0.20598 0.27917 0.03189 0.0
H565 H 0.25387 0.37216 0.04034 0.0
H566 H 0.31247 0.43651 0.0167 0.0
H567 H 0.32362 0.40831 0.98449 0.0
C568 C 0.30843 0.34708 0.95519 0.0
C569 C 0.27572 0.30752 0.96983 0.0
C570 C 0.26945 0.32465 0.98857 0.0
C571 C 0.23538 0.28761 1.00216 0.0
C572 C 0.23053 0.30577 0.02088 0.0
C573 C 0.25804 0.35899 0.02596 0.0
C574 C 0.29105 0.39521 0.01265 0.0
C575 C 0.29695 0.37849 0.99418 0.0
H576 H 0.06658 0.26013 0.35754 0.0
C577 C 0.04705 0.21832 0.35405 0.0
H578 H 1.00096 0.15956 0.33251 0.0
H579 H 0.92843 0.31496 0.29594 0.0
H580 H 0.84665 0.24611 0.30835 0.0
H581 H 0.84407 0.17331 0.32703 0.0
H582 H 0.92336 0.16895 0.33346 0.0
C583 C 0.0222 0.20112 0.33637 0.0
C584 C 0.02194 0.23945 0.32213 0.0
C585 C 0.97508 0.24064 0.31801 0.0
C586 C 0.97653 0.28248 0.30709 0.0
C587 C 0.92948 0.28378 0.3039 0.0
C588 C 0.88229 0.24458 0.31099 0.0
C589 C 0.88084 0.2036 0.32153 0.0
C590 C 0.92661 0.20156 0.32511 0.0
H591 H 0.99307 0.33127 0.26388 0.0
C592 C 0.01198 0.36868 0.2719 0.0
H593 H 0.04667 0.4059 0.29948 0.0
H594 H 0.11674 0.24332 0.3241 0.0
H595 H 0.19817 0.3108 0.31093 0.0
H596 H 0.20117 0.38441 0.29269 0.0
H597 H 0.12269 0.39079 0.28739 0.0
C598 C 0.0282 0.36984 0.29073 0.0
C599 C 0.02479 0.32269 0.30013 0.0
C600 C 0.07103 0.31973 0.30323 0.0
C601 C 0.0695 0.27779 0.31403 0.0
C602 C 0.11606 0.27517 0.31649 0.0
C603 C 0.16296 0.31342 0.30888 0.0
C604 C 0.16463 0.35482 0.29859 0.0
C605 C 0.11933 0.3581 0.29571 0.0
loop_
_geom_bond_atom_site_label_1
_geom_bond_atom_site_label_2
_geom_bond_distance
_geom_bond_site_symmetry_2
_ccdc_geom_bond_type
Mn0 O5 2.095 . S
Mn0 O15 2.162 . S
Mn0 O16 2.297 1_545 S
Mn0 O24 2.385 1_545 S
Mn0 O25 2.209 1_455 S
Mn0 O26 2.094 . S
Mn1 O6 2.122 . S
Mn1 N8 2.257 . S
Mn1 N17 2.282 1_554 S
Mn1 O25 2.215 . S
Mn1 O27 2.117 1_655 S
C2 O24 1.234 1_645 S
C2 O25 1.283 . S
C3 O15 1.281 1_565 S
C3 O16 1.236 . S
C4 O26 1.240 . S
C4 O27 1.264 . S
O5 Mn0 2.095 . S
O5 C14 1.250 . S
O6 Mn1 2.122 . S
O6 C14 1.260 1_655 S
C7 N8 1.326 . S
C7 C11 1.460 . S
C7 H13 0.929 . S
N8 Mn1 2.257 . S
N8 C7 1.326 . S
N8 C12 1.362 . S
C9 C10 1.258 1_556 S
C9 C12 1.431 1_556 S
C9 C29 1.449 . S
C10 C9 1.258 1_554 S
C10 C11 1.477 . S
C10 H30 0.931 . S
C11 C7 1.460 . S
C11 C10 1.477 . S
C11 H31 0.930 . S
C12 N8 1.362 . S
C12 C9 1.431 1_554 S
C12 C22 1.476 1_554 S
H13 C7 0.929 . S
C14 O5 1.250 . S
C14 O6 1.260 1_455 S
O15 Mn0 2.162 . S
O15 C3 1.281 1_545 S
O16 Mn0 2.297 1_565 S
O16 C3 1.236 . S
N17 Mn1 2.282 1_556 S
N17 C18 1.328 . S
N17 C22 1.318 . S
C18 N17 1.328 . S
C18 C19 1.457 . S
C18 H23 0.929 1_655 S
C19 C18 1.457 . S
C19 C20 1.291 . S
C19 H32 0.931 . S
C20 C19 1.291 . S
C20 C21 1.373 . S
C20 H33 0.929 . S
C21 C20 1.373 . S
C21 C22 1.396 . S
C21 C28 1.403 . S
C22 C12 1.476 1_556 S
C22 N17 1.318 . S
C22 C21 1.396 . S
H23 C18 0.929 1_455 S
O24 Mn0 2.385 1_565 S
O24 C2 1.234 1_465 S
O25 Mn0 2.209 1_655 S
O25 Mn1 2.215 . S
O25 C2 1.283 . S
O26 Mn0 2.094 . S
O26 C4 1.240 . S
O27 Mn1 2.117 1_455 S
O27 C4 1.264 . S
C28 C21 1.403 . S
C28 C29 1.399 . S
C28 H34 0.929 . S
C29 C9 1.449 . S
C29 C28 1.399 . S
C29 H35 0.930 . S
H30 C10 0.931 . S
H31 C11 0.930 . S
H32 C19 0.931 . S
H33 C20 0.929 . S
H34 C28 0.929 . S
H35 C29 0.930 . S
Mn36 O41 2.095 . S
Mn36 O51 2.162 1_545 S
Mn36 O52 2.297 1_655 S
Mn36 O60 2.385 1_655 S
Mn36 O61 2.209 1_655 S
Mn36 O62 2.094 . S
Mn37 O42 2.121 . S
Mn37 N44 2.257 . S
Mn37 N53 2.282 . S
Mn37 O61 2.215 . S
Mn37 O63 2.117 1_455 S
C38 O60 1.234 . S
C38 O61 1.283 . S
C39 O51 1.281 1_455 S
C39 O52 1.236 1_565 S
C40 O62 1.240 . S
C40 O63 1.264 . S
O41 Mn36 2.095 . S
O41 C50 1.250 1_655 S
O42 Mn37 2.121 . S
O42 C50 1.258 . S
C43 N44 1.326 . S
C43 C47 1.460 . S
C43 H49 0.929 . S
N44 Mn37 2.257 . S
N44 C43 1.326 . S
N44 C48 1.362 . S
C45 C46 1.258 . S
C45 C48 1.431 . S
C45 C65 1.449 . S
C46 C45 1.258 . S
C46 C47 1.477 . S
C46 H66 0.931 . S
C47 C43 1.460 . S
C47 C46 1.477 . S
C47 H67 0.930 . S
C48 N44 1.362 . S
C48 C45 1.431 . S
C48 C58 1.476 . S
H49 C43 0.929 . S
C50 O41 1.250 1_455 S
C50 O42 1.258 . S
O51 Mn36 2.162 1_565 S
O51 C39 1.281 1_655 S
O52 Mn36 2.297 1_455 S
O52 C39 1.236 1_545 S
N53 Mn37 2.282 . S
N53 C54 1.328 . S
N53 C58 1.318 . S
C54 N53 1.328 . S
C54 C55 1.457 . S
C54 H59 0.929 . S
C55 C54 1.457 . S
C55 C56 1.291 . S
C55 H68 0.931 . S
C56 C55 1.291 . S
C56 C57 1.373 . S
C56 H69 0.929 . S
C57 C56 1.373 . S
C57 C58 1.396 . S
C57 C64 1.403 . S
C58 C48 1.476 . S
C58 N53 1.318 . S
C58 C57 1.396 . S
H59 C54 0.929 . S
O60 Mn36 2.385 1_455 S
O60 C38 1.234 . S
O61 Mn36 2.209 1_455 S
O61 Mn37 2.215 . S
O61 C38 1.283 . S
O62 Mn36 2.094 . S
O62 C40 1.240 . S
O63 Mn37 2.117 1_655 S
O63 C40 1.264 . S
C64 C57 1.403 . S
C64 C65 1.399 . S
C64 H70 0.929 . S
C65 C45 1.449 . S
C65 C64 1.399 . S
C65 H71 0.930 . S
H66 C46 0.931 . S
H67 C47 0.930 . S
H68 C55 0.931 . S
H69 C56 0.929 . S
H70 C64 0.929 . S
H71 C65 0.930 . S
Mn72 O77 2.095 1_455 S
Mn72 O87 2.162 . S
Mn72 O88 2.297 . S
Mn72 O96 2.385 . S
Mn72 O97 2.209 . S
Mn72 O98 2.094 1_445 S
Mn73 O78 2.121 . S
Mn73 N80 2.257 . S
Mn73 N89 2.282 1_655 S
Mn73 O97 2.215 1_655 S
Mn73 O99 2.117 . S
C74 O96 1.234 . S
C74 O97 1.283 . S
C75 O87 1.281 . S
C75 O88 1.236 . S
C76 O98 1.240 . S
C76 O99 1.264 1_565 S
O77 Mn72 2.095 1_655 S
O77 C86 1.250 . S
O78 Mn73 2.121 . S
O78 C86 1.258 . S
C79 N80 1.326 . S
C79 C83 1.460 1_655 S
C79 H85 0.929 . S
N80 Mn73 2.257 . S
N80 C79 1.326 . S
N80 C84 1.362 1_655 S
C81 C82 1.258 . S
C81 C84 1.431 . S
C81 C101 1.449 . S
C82 C81 1.258 . S
C82 C83 1.477 . S
C82 H102 0.931 . S
C83 C79 1.460 1_455 S
C83 C82 1.477 . S
C83 H103 0.930 1_455 S
C84 N80 1.362 1_455 S
C84 C81 1.431 . S
C84 C94 1.476 . S
H85 C79 0.929 . S
C86 O77 1.250 . S
C86 O78 1.258 . S
O87 Mn72 2.162 . S
O87 C75 1.281 . S
O88 Mn72 2.297 . S
O88 C75 1.236 . S
N89 Mn73 2.282 1_455 S
N89 C90 1.328 . S
N89 C94 1.318 . S
C90 N89 1.328 . S
C90 C91 1.457 . S
C90 H95 0.929 1_455 S
C91 C90 1.457 . S
C91 C92 1.291 . S
C91 H104 0.931 . S
C92 C91 1.291 . S
C92 C93 1.373 . S
C92 H105 0.929 . S
C93 C92 1.373 . S
C93 C94 1.396 . S
C93 C100 1.403 . S
C94 C84 1.476 . S
C94 N89 1.318 . S
C94 C93 1.396 . S
H95 C90 0.929 1_655 S
O96 Mn72 2.385 . S
O96 C74 1.234 . S
O97 Mn72 2.209 . S
O97 Mn73 2.215 1_455 S
O97 C74 1.283 . S
O98 Mn72 2.094 1_665 S
O98 C76 1.240 . S
O99 Mn73 2.117 . S
O99 C76 1.264 1_545 S
C100 C93 1.403 . S
C100 C101 1.399 . S
C100 H106 0.929 . S
C101 C81 1.449 . S
C101 C100 1.399 . S
C101 H107 0.930 . S
H102 C82 0.931 . S
H103 C83 0.930 1_655 S
H104 C91 0.931 . S
H105 C92 0.929 . S
H106 C100 0.929 . S
H107 C101 0.930 . S
C108 C109 1.384 1_655 S
C108 C110 1.384 . S
C108 H136 0.931 . S
C109 C108 1.384 1_455 S
C109 C112 1.382 . S
C110 C108 1.384 . S
C110 C111 1.381 1_655 S
C110 H137 0.930 . S
C111 C110 1.381 1_455 S
C111 C113 1.381 . S
C111 C114 1.487 . S
C112 C109 1.382 . S
C112 C113 1.387 . S
C112 H138 0.930 . S
C113 C111 1.381 . S
C113 C112 1.387 . S
C113 H139 0.931 . S
C114 C111 1.487 . S
C114 C121 1.399 . S
C114 N152 1.343 . S
C115 C116 1.384 . S
C115 C117 1.384 . S
C115 H140 0.931 . S
C116 C115 1.384 . S
C116 C119 1.382 1_455 S
C117 C115 1.384 . S
C117 C118 1.381 . S
C117 H141 0.930 . S
C118 C117 1.381 . S
C118 C120 1.381 1_455 S
C118 C121 1.487 . S
C119 C116 1.382 1_655 S
C119 C120 1.387 . S
C119 H142 0.930 . S
C120 C118 1.381 1_655 S
C120 C119 1.387 . S
C120 H143 0.931 . S
C121 C114 1.399 . S
C121 C118 1.487 . S
C121 N153 1.343 . S
C122 C123 1.384 . S
C122 C124 1.384 . S
C122 H144 0.931 . S
C123 C122 1.384 . S
C123 C126 1.382 1_455 S
C124 C122 1.384 . S
C124 C125 1.381 . S
C124 H145 0.930 . S
C125 C124 1.381 . S
C125 C127 1.381 1_455 S
C125 C128 1.487 . S
C126 C123 1.382 1_655 S
C126 C127 1.387 . S
C126 H146 0.930 . S
C127 C125 1.381 1_655 S
C127 C126 1.387 . S
C127 H147 0.931 . S
C128 C125 1.487 . S
C128 C135 1.399 . S
C128 N153 1.343 . S
C129 C130 1.384 1_655 S
C129 C131 1.384 . S
C129 H148 0.931 . S
C130 C129 1.384 1_455 S
C130 C133 1.382 . S
C131 C129 1.384 . S
C131 C132 1.381 1_655 S
C131 H149 0.930 . S
C132 C131 1.381 1_455 S
C132 C134 1.381 . S
C132 C135 1.487 . S
C133 C130 1.382 . S
C133 C134 1.387 . S
C133 H150 0.930 . S
C134 C132 1.381 . S
C134 C133 1.387 . S
C134 H151 0.931 . S
C135 C128 1.399 . S
C135 C132 1.487 . S
C135 N152 1.343 . S
H136 C108 0.931 . S
H137 C110 0.930 . S
H138 C112 0.930 . S
H139 C113 0.931 . S
H140 C115 0.931 . S
H141 C117 0.930 . S
H142 C119 0.930 . S
H143 C120 0.931 . S
H144 C122 0.931 . S
H145 C124 0.930 . S
H146 C126 0.930 . S
H147 C127 0.931 . S
H148 C129 0.931 . S
H149 C131 0.930 . S
H150 C133 0.930 . S
H151 C134 0.931 . S
N152 C114 1.343 . S
N152 C135 1.343 . S
N153 C121 1.343 . S
N153 C128 1.343 . S
C154 C155 1.384 . S
C154 C156 1.384 . S
C154 H182 0.931 . S
C155 C154 1.384 . S
C155 C158 1.382 . S
C156 C154 1.384 . S
C156 C157 1.381 . S
C156 H183 0.930 . S
C157 C156 1.381 . S
C157 C159 1.381 . S
C157 C160 1.487 . S
C158 C155 1.382 . S
C158 C159 1.387 . S
C158 H184 0.930 . S
C159 C157 1.381 . S
C159 C158 1.387 . S
C159 H185 0.931 . S
C160 C157 1.487 . S
C160 C167 1.399 . S
C160 N198 1.343 . S
C161 C162 1.384 . S
C161 C163 1.384 . S
C161 H186 0.931 . S
C162 C161 1.384 . S
C162 C165 1.382 . S
C163 C161 1.384 . S
C163 C164 1.381 . S
C163 H187 0.930 . S
C164 C163 1.381 . S
C164 C166 1.381 . S
C164 C167 1.487 . S
C165 C162 1.382 . S
C165 C166 1.387 . S
C165 H188 0.930 . S
C166 C164 1.381 . S
C166 C165 1.387 . S
C166 H189 0.931 . S
C167 C160 1.399 . S
C167 C164 1.487 . S
C167 N199 1.343 . S
C168 C169 1.384 . S
C168 C170 1.384 . S
C168 H190 0.931 . S
C169 C168 1.384 . S
C169 C172 1.382 . S
C170 C168 1.384 . S
C170 C171 1.381 . S
C170 H191 0.930 . S
C171 C170 1.381 . S
C171 C173 1.381 . S
C171 C174 1.487 . S
C172 C169 1.382 . S
C172 C173 1.387 . S
C172 H192 0.930 . S
C173 C171 1.381 . S
C173 C172 1.387 . S
C173 H193 0.931 . S
C174 C171 1.487 . S
C174 C181 1.399 . S
C174 N199 1.343 . S
C175 C176 1.384 . S
C175 C177 1.384 . S
C175 H194 0.931 . S
C176 C175 1.384 . S
C176 C179 1.382 . S
C177 C175 1.384 . S
C177 C178 1.381 . S
C177 H195 0.930 . S
C178 C177 1.381 . S
C178 C180 1.381 . S
C178 C181 1.487 . S
C179 C176 1.382 . S
C179 C180 1.387 . S
C179 H196 0.930 . S
C180 C178 1.381 . S
C180 C179 1.387 . S
C180 H197 0.931 . S
C181 C174 1.399 . S
C181 C178 1.487 . S
C181 N198 1.343 . S
H182 C154 0.931 . S
H183 C156 0.930 . S
H184 C158 0.930 . S
H185 C159 0.931 . S
H186 C161 0.931 . S
H187 C163 0.930 . S
H188 C165 0.930 . S
H189 C166 0.931 . S
H190 C168 0.931 . S
H191 C170 0.930 . S
H192 C172 0.930 . S
H193 C173 0.931 . S
H194 C175 0.931 . S
H195 C177 0.930 . S
H196 C179 0.930 . S
H197 C180 0.931 . S
N198 C160 1.343 . S
N198 C181 1.343 . S
N199 C167 1.343 . S
N199 C174 1.343 . S
C200 C201 1.384 . S
C200 C202 1.384 . S
C200 H228 0.931 . S
C201 C200 1.384 . S
C201 C204 1.382 . S
C202 C200 1.384 . S
C202 C203 1.381 . S
C202 H229 0.930 . S
C203 C202 1.381 . S
C203 C205 1.381 . S
C203 C206 1.487 . S
C204 C201 1.382 . S
C204 C205 1.387 . S
C204 H230 0.930 . S
C205 C203 1.381 . S
C205 C204 1.387 . S
C205 H231 0.931 . S
C206 C203 1.487 . S
C206 C213 1.399 . S
C206 N244 1.343 . S
C207 C208 1.384 . S
C207 C209 1.384 . S
C207 H232 0.931 . S
C208 C207 1.384 . S
C208 C211 1.382 . S
C209 C207 1.384 . S
C209 C210 1.381 . S
C209 H233 0.930 . S
C210 C209 1.381 . S
C210 C212 1.381 . S
C210 C213 1.487 . S
C211 C208 1.382 . S
C211 C212 1.387 . S
C211 H234 0.930 . S
C212 C210 1.381 . S
C212 C211 1.387 . S
C212 H235 0.931 . S
C213 C206 1.399 . S
C213 C210 1.487 . S
C213 N245 1.343 . S
C214 C215 1.384 . S
C214 C216 1.384 . S
C214 H236 0.931 . S
C215 C214 1.384 . S
C215 C218 1.382 . S
C216 C214 1.384 . S
C216 C217 1.381 . S
C216 H237 0.930 . S
C217 C216 1.381 . S
C217 C219 1.381 . S
C217 C220 1.487 . S
C218 C215 1.382 . S
C218 C219 1.387 . S
C218 H238 0.930 . S
C219 C217 1.381 . S
C219 C218 1.387 . S
C219 H239 0.931 . S
C220 C217 1.487 . S
C220 C227 1.399 . S
C220 N245 1.343 . S
C221 C222 1.384 . S
C221 C223 1.384 . S
C221 H240 0.931 . S
C222 C221 1.384 . S
C222 C225 1.382 . S
C223 C221 1.384 . S
C223 C224 1.381 . S
C223 H241 0.930 . S
C224 C223 1.381 . S
C224 C226 1.381 . S
C224 C227 1.487 . S
C225 C222 1.382 . S
C225 C226 1.387 . S
C225 H242 0.930 . S
C226 C224 1.381 . S
C226 C225 1.387 . S
C226 H243 0.931 . S
C227 C220 1.399 . S
C227 C224 1.487 . S
C227 N244 1.343 . S
H228 C200 0.931 . S
H229 C202 0.930 . S
H230 C204 0.930 . S
H231 C205 0.931 . S
H232 C207 0.931 . S
H233 C209 0.930 . S
H234 C211 0.930 . S
H235 C212 0.931 . S
H236 C214 0.931 . S
H237 C216 0.930 . S
H238 C218 0.930 . S
H239 C219 0.931 . S
H240 C221 0.931 . S
H241 C223 0.930 . S
H242 C225 0.930 . S
H243 C226 0.931 . S
N244 C206 1.343 . S
N244 C227 1.343 . S
N245 C213 1.343 . S
N245 C220 1.343 . S
H246 C247 0.951 1_655 S
C247 H246 0.951 1_455 S
C247 C253 1.265 . S
H248 C253 0.950 . S
H249 C257 0.949 . S
H250 C258 0.950 . S
H251 C259 0.951 . S
H252 C260 0.951 . S
C253 C247 1.265 . S
C253 H248 0.950 . S
C253 C254 1.478 . S
C254 C253 1.478 . S
C254 C255 1.397 . S
C254 C271 1.394 1_455 S
C255 C254 1.397 . S
C255 C256 1.438 . S
C255 C260 1.429 . S
C256 C255 1.438 . S
C256 C257 1.428 . S
C256 C269 1.394 . S
C257 H249 0.949 . S
C257 C256 1.428 . S
C257 C258 1.345 . S
C258 H250 0.950 . S
C258 C257 1.345 . S
C258 C259 1.424 . S
C259 H251 0.951 . S
C259 C258 1.424 . S
C259 C260 1.347 . S
C260 H252 0.951 . S
C260 C255 1.429 . S
C260 C259 1.347 . S
H261 C262 0.951 . S
C262 H261 0.951 . S
C262 C268 1.265 . S
H263 C268 0.950 1_655 S
H264 C272 0.949 . S
H265 C273 0.950 . S
H266 C274 0.951 . S
H267 C275 0.951 . S
C268 C262 1.265 . S
C268 H263 0.950 1_455 S
C268 C269 1.478 . S
C269 C256 1.394 . S
C269 C268 1.478 . S
C269 C270 1.397 1_455 S
C270 C269 1.397 1_655 S
C270 C271 1.438 . S
C270 C275 1.429 . S
C271 C254 1.394 1_655 S
C271 C270 1.438 . S
C271 C272 1.428 . S
C272 H264 0.949 . S
C272 C271 1.428 . S
C272 C273 1.345 . S
C273 H265 0.950 . S
C273 C272 1.345 . S
C273 C274 1.424 . S
C274 H266 0.951 . S
C274 C273 1.424 . S
C274 C275 1.347 . S
C275 H267 0.951 . S
C275 C270 1.429 . S
C275 C274 1.347 . S
H276 C277 0.951 . S
C277 H276 0.951 . S
C277 C283 1.265 . S
H278 C283 0.950 . S
H279 C287 0.949 . S
H280 C288 0.950 . S
H281 C289 0.951 . S
H282 C290 0.951 . S
C283 C277 1.265 . S
C283 H278 0.950 . S
C283 C284 1.478 . S
C284 C283 1.478 . S
C284 C285 1.397 . S
C284 C301 1.394 . S
C285 C284 1.397 . S
C285 C286 1.438 . S
C285 C290 1.429 1_545 S
C286 C285 1.438 . S
C286 C287 1.428 1_545 S
C286 C299 1.394 . S
C287 H279 0.949 . S
C287 C286 1.428 1_565 S
C287 C288 1.345 . S
C288 H280 0.950 . S
C288 C287 1.345 . S
C288 C289 1.424 . S
C289 H281 0.951 . S
C289 C288 1.424 . S
C289 C290 1.347 . S
C290 H282 0.951 . S
C290 C285 1.429 1_565 S
C290 C289 1.347 . S
H291 C292 0.951 . S
C292 H291 0.951 . S
C292 C298 1.265 . S
H293 C298 0.950 . S
H294 C302 0.949 . S
H295 C303 0.950 . S
H296 C304 0.951 . S
H297 C305 0.951 . S
C298 C292 1.265 . S
C298 H293 0.950 . S
C298 C299 1.478 . S
C299 C286 1.394 . S
C299 C298 1.478 . S
C299 C300 1.397 . S
C300 C299 1.397 . S
C300 C301 1.438 . S
C300 C305 1.429 . S
C301 C284 1.394 . S
C301 C300 1.438 . S
C301 C302 1.428 . S
C302 H294 0.949 . S
C302 C301 1.428 . S
C302 C303 1.345 . S
C303 H295 0.950 . S
C303 C302 1.345 . S
C303 C304 1.424 . S
C304 H296 0.951 . S
C304 C303 1.424 . S
C304 C305 1.347 . S
C305 H297 0.951 . S
C305 C300 1.429 . S
C305 C304 1.347 . S
H306 C307 0.951 . S
C307 H306 0.951 . S
C307 C313 1.265 . S
H308 C313 0.950 . S
H309 C317 0.949 . S
H310 C318 0.950 . S
H311 C319 0.951 . S
H312 C320 0.951 . S
C313 C307 1.265 . S
C313 H308 0.950 . S
C313 C314 1.478 . S
C314 C313 1.478 . S
C314 C315 1.397 . S
C314 C331 1.394 . S
C315 C314 1.397 . S
C315 C316 1.438 . S
C315 C320 1.429 . S
C316 C315 1.438 . S
C316 C317 1.428 . S
C316 C329 1.394 . S
C317 H309 0.949 . S
C317 C316 1.428 . S
C317 C318 1.345 . S
C318 H310 0.950 . S
C318 C317 1.345 . S
C318 C319 1.424 . S
C319 H311 0.951 . S
C319 C318 1.424 . S
C319 C320 1.347 . S
C320 H312 0.951 . S
C320 C315 1.429 . S
C320 C319 1.347 . S
H321 C322 0.951 . S
C322 H321 0.951 . S
C322 C328 1.265 . S
H323 C328 0.950 . S
H324 C332 0.949 . S
H325 C333 0.950 . S
H326 C334 0.951 . S
H327 C335 0.951 . S
C328 C322 1.265 . S
C328 H323 0.950 . S
C328 C329 1.478 . S
C329 C316 1.394 . S
C329 C328 1.478 . S
C329 C330 1.397 . S
C330 C329 1.397 . S
C330 C331 1.438 . S
C330 C335 1.429 . S
C331 C314 1.394 . S
C331 C330 1.438 . S
C331 C332 1.428 . S
C332 H324 0.949 . S
C332 C331 1.428 . S
C332 C333 1.345 . S
C333 H325 0.950 . S
C333 C332 1.345 . S
C333 C334 1.424 . S
C334 H326 0.951 . S
C334 C333 1.424 . S
C334 C335 1.347 . S
C335 H327 0.951 . S
C335 C330 1.429 . S
C335 C334 1.347 . S
H336 C337 0.951 . S
C337 H336 0.951 . S
C337 C343 1.265 . S
H338 C343 0.950 . S
H339 C347 0.949 . S
H340 C348 0.950 . S
H341 C349 0.951 . S
H342 C350 0.951 . S
C343 C337 1.265 . S
C343 H338 0.950 . S
C343 C344 1.478 . S
C344 C343 1.478 . S
C344 C345 1.397 . S
C344 C361 1.394 . S
C345 C344 1.397 . S
C345 C346 1.438 . S
C345 C350 1.429 . S
C346 C345 1.438 . S
C346 C347 1.428 . S
C346 C359 1.394 . S
C347 H339 0.949 . S
C347 C346 1.428 . S
C347 C348 1.345 . S
C348 H340 0.950 . S
C348 C347 1.345 . S
C348 C349 1.424 . S
C349 H341 0.951 . S
C349 C348 1.424 . S
C349 C350 1.347 . S
C350 H342 0.951 . S
C350 C345 1.429 . S
C350 C349 1.347 . S
H351 C352 0.951 . S
C352 H351 0.951 . S
C352 C358 1.265 . S
H353 C358 0.950 1_655 S
H354 C362 0.949 . S
H355 C363 0.950 . S
H356 C364 0.951 . S
H357 C365 0.951 . S
C358 C352 1.265 . S
C358 H353 0.950 1_455 S
C358 C359 1.478 . S
C359 C346 1.394 . S
C359 C358 1.478 . S
C359 C360 1.405 . S
C360 C359 1.405 . S
C360 C361 1.435 . S
C360 C365 1.424 1_455 S
C361 C344 1.394 . S
C361 C360 1.435 . S
C361 C362 1.428 1_455 S
C362 H354 0.949 . S
C362 C361 1.428 1_655 S
C362 C363 1.345 . S
C363 H355 0.950 . S
C363 C362 1.345 . S
C363 C364 1.424 . S
C364 H356 0.951 . S
C364 C363 1.424 . S
C364 C365 1.347 . S
C365 H357 0.951 . S
C365 C360 1.424 1_655 S
C365 C364 1.347 . S
H366 C367 0.951 . S
C367 H366 0.951 . S
C367 C373 1.265 . S
H368 C373 0.950 . S
H369 C377 0.949 . S
H370 C378 0.950 . S
H371 C379 0.951 . S
H372 C380 0.951 . S
C373 C367 1.265 . S
C373 H368 0.950 . S
C373 C374 1.478 . S
C374 C373 1.478 . S
C374 C375 1.397 . S
C374 C391 1.394 . S
C375 C374 1.397 . S
C375 C376 1.438 . S
C375 C380 1.429 . S
C376 C375 1.438 . S
C376 C377 1.428 . S
C376 C389 1.394 . S
C377 H369 0.949 . S
C377 C376 1.428 . S
C377 C378 1.345 . S
C378 H370 0.950 . S
C378 C377 1.345 . S
C378 C379 1.424 . S
C379 H371 0.951 . S
C379 C378 1.424 . S
C379 C380 1.347 . S
C380 H372 0.951 . S
C380 C375 1.429 . S
C380 C379 1.347 . S
H381 C382 0.951 . S
C382 H381 0.951 . S
C382 C388 1.265 . S
H383 C388 0.950 . S
H384 C392 0.949 . S
H385 C393 0.950 1_565 S
H386 C394 0.951 . S
H387 C395 0.951 . S
C388 C382 1.265 . S
C388 H383 0.950 . S
C388 C389 1.478 . S
C389 C376 1.394 . S
C389 C388 1.478 . S
C389 C390 1.397 . S
C390 C389 1.397 . S
C390 C391 1.438 . S
C390 C395 1.429 . S
C391 C374 1.394 . S
C391 C390 1.438 . S
C391 C392 1.428 . S
C392 H384 0.949 . S
C392 C391 1.428 . S
C392 C393 1.345 . S
C393 H385 0.950 1_545 S
C393 C392 1.345 . S
C393 C394 1.424 . S
C394 H386 0.951 . S
C394 C393 1.424 . S
C394 C395 1.347 . S
C395 H387 0.951 . S
C395 C390 1.429 . S
C395 C394 1.347 . S
H396 C397 0.951 . S
C397 H396 0.951 . S
C397 C403 1.265 . S
H398 C403 0.950 . S
H399 C407 0.949 . S
H400 C408 0.950 . S
H401 C409 0.951 . S
H402 C410 0.951 . S
C403 C397 1.265 . S
C403 H398 0.950 . S
C403 C404 1.478 . S
C404 C403 1.478 . S
C404 C405 1.397 . S
C404 C421 1.394 . S
C405 C404 1.397 . S
C405 C406 1.438 . S
C405 C410 1.429 . S
C406 C405 1.438 . S
C406 C407 1.428 . S
C406 C419 1.394 . S
C407 H399 0.949 . S
C407 C406 1.428 . S
C407 C408 1.345 . S
C408 H400 0.950 . S
C408 C407 1.345 . S
C408 C409 1.424 . S
C409 H401 0.951 . S
C409 C408 1.424 . S
C409 C410 1.347 . S
C410 H402 0.951 . S
C410 C405 1.429 . S
C410 C409 1.347 . S
H411 C412 0.951 . S
C412 H411 0.951 . S
C412 C418 1.265 . S
H413 C418 0.950 . S
H414 C422 0.949 . S
H415 C423 0.950 . S
H416 C424 0.951 . S
H417 C425 0.951 . S
C418 C412 1.265 . S
C418 H413 0.950 . S
C418 C419 1.478 . S
C419 C406 1.394 . S
C419 C418 1.478 . S
C419 C420 1.397 . S
C420 C419 1.397 . S
C420 C421 1.438 . S
C420 C425 1.429 . S
C421 C404 1.394 . S
C421 C420 1.438 . S
C421 C422 1.428 . S
C422 H414 0.949 . S
C422 C421 1.428 . S
C422 C423 1.345 . S
C423 H415 0.950 . S
C423 C422 1.345 . S
C423 C424 1.424 . S
C424 H416 0.951 . S
C424 C423 1.424 . S
C424 C425 1.347 . S
C425 H417 0.951 . S
C425 C420 1.429 . S
C425 C424 1.347 . S
H426 C427 0.951 . S
C427 H426 0.951 . S
C427 C433 1.265 . S
H428 C433 0.950 . S
H429 C437 0.949 . S
H430 C438 0.950 . S
H431 C439 0.951 . S
H432 C440 0.951 . S
C433 C427 1.265 . S
C433 H428 0.950 . S
C433 C434 1.478 . S
C434 C433 1.478 . S
C434 C435 1.397 . S
C434 C451 1.394 . S
C435 C434 1.397 . S
C435 C436 1.438 . S
C435 C440 1.429 . S
C436 C435 1.438 . S
C436 C437 1.428 . S
C436 C449 1.394 . S
C437 H429 0.949 . S
C437 C436 1.428 . S
C437 C438 1.345 . S
C438 H430 0.950 . S
C438 C437 1.345 . S
C438 C439 1.424 . S
C439 H431 0.951 . S
C439 C438 1.424 . S
C439 C440 1.347 . S
C440 H432 0.951 . S
C440 C435 1.429 . S
C440 C439 1.347 . S
H441 C442 0.951 . S
C442 H441 0.951 . S
C442 C448 1.265 . S
H443 C448 0.950 . S
H444 C452 0.949 . S
H445 C453 0.950 . S
H446 C454 0.951 . S
H447 C455 0.951 . S
C448 C442 1.265 . S
C448 H443 0.950 . S
C448 C449 1.478 . S
C449 C436 1.394 . S
C449 C448 1.478 . S
C449 C450 1.397 . S
C450 C449 1.397 . S
C450 C451 1.438 . S
C450 C455 1.429 1_545 S
C451 C434 1.394 . S
C451 C450 1.438 . S
C451 C452 1.428 1_545 S
C452 H444 0.949 . S
C452 C451 1.428 1_565 S
C452 C453 1.345 . S
C453 H445 0.950 . S
C453 C452 1.345 . S
C453 C454 1.424 . S
C454 H446 0.951 . S
C454 C453 1.424 . S
C454 C455 1.347 . S
C455 H447 0.951 . S
C455 C450 1.429 1_565 S
C455 C454 1.347 . S
H456 C457 0.951 . S
C457 H456 0.951 . S
C457 C463 1.265 1_554 S
H458 C463 0.950 . S
H459 C467 0.949 . S
H460 C468 0.950 . S
H461 C469 0.951 . S
H462 C470 0.951 . S
C463 C457 1.265 1_556 S
C463 H458 0.950 . S
C463 C464 1.478 . S
C464 C463 1.478 . S
C464 C465 1.397 . S
C464 C481 1.394 . S
C465 C464 1.397 . S
C465 C466 1.438 . S
C465 C470 1.429 . S
C466 C465 1.438 . S
C466 C467 1.428 . S
C466 C479 1.394 . S
C467 H459 0.949 . S
C467 C466 1.428 . S
C467 C468 1.345 . S
C468 H460 0.950 . S
C468 C467 1.345 . S
C468 C469 1.424 . S
C469 H461 0.951 . S
C469 C468 1.424 . S
C469 C470 1.347 . S
C470 H462 0.951 . S
C470 C465 1.429 . S
C470 C469 1.347 . S
H471 C472 0.951 . S
C472 H471 0.951 . S
C472 C478 1.265 . S
H473 C478 0.950 . S
H474 C482 0.949 . S
H475 C483 0.950 1_545 S
H476 C484 0.951 . S
H477 C485 0.951 . S
C478 C472 1.265 . S
C478 H473 0.950 . S
C478 C479 1.478 . S
C479 C466 1.394 . S
C479 C478 1.478 . S
C479 C480 1.397 . S
C480 C479 1.397 . S
C480 C481 1.438 . S
C480 C485 1.429 . S
C481 C464 1.394 . S
C481 C480 1.438 . S
C481 C482 1.428 . S
C482 H474 0.949 . S
C482 C481 1.428 . S
C482 C483 1.345 . S
C483 H475 0.950 1_565 S
C483 C482 1.345 . S
C483 C484 1.424 . S
C484 H476 0.951 . S
C484 C483 1.424 . S
C484 C485 1.347 . S
C485 H477 0.951 . S
C485 C480 1.429 . S
C485 C484 1.347 . S
H486 C487 0.951 . S
C487 H486 0.951 . S
C487 C493 1.265 1_455 S
H488 C493 0.950 . S
H489 C497 0.949 . S
H490 C498 0.950 . S
H491 C499 0.951 . S
H492 C500 0.951 . S
C493 C487 1.265 1_655 S
C493 H488 0.950 . S
C493 C494 1.478 1_655 S
C494 C493 1.478 1_455 S
C494 C495 1.397 . S
C494 C511 1.394 1_455 S
C495 C494 1.397 . S
C495 C496 1.438 . S
C495 C500 1.429 . S
C496 C495 1.438 . S
C496 C497 1.428 . S
C496 C509 1.394 . S
C497 H489 0.949 . S
C497 C496 1.428 . S
C497 C498 1.345 . S
C498 H490 0.950 . S
C498 C497 1.345 . S
C498 C499 1.424 . S
C499 H491 0.951 . S
C499 C498 1.424 . S
C499 C500 1.347 . S
C500 H492 0.951 . S
C500 C495 1.429 . S
C500 C499 1.347 . S
H501 C502 0.951 1_655 S
C502 H501 0.951 1_455 S
C502 C508 1.265 . S
H503 C508 0.950 . S
H504 C512 0.949 . S
H505 C513 0.950 . S
H506 C514 0.951 . S
H507 C515 0.951 . S
C508 C502 1.265 . S
C508 H503 0.950 . S
C508 C509 1.478 . S
C509 C496 1.394 . S
C509 C508 1.478 . S
C509 C510 1.397 1_455 S
C510 C509 1.397 1_655 S
C510 C511 1.438 . S
C510 C515 1.429 . S
C511 C494 1.394 1_655 S
C511 C510 1.438 . S
C511 C512 1.428 . S
C512 H504 0.949 . S
C512 C511 1.428 . S
C512 C513 1.345 . S
C513 H505 0.950 . S
C513 C512 1.345 . S
C513 C514 1.424 . S
C514 H506 0.951 . S
C514 C513 1.424 . S
C514 C515 1.347 . S
C515 H507 0.951 . S
C515 C510 1.429 . S
C515 C514 1.347 . S
H516 C517 0.951 . S
C517 H516 0.951 . S
C517 C523 1.265 . S
H518 C523 0.950 . S
H519 C527 0.949 . S
H520 C528 0.950 . S
H521 C529 0.951 . S
H522 C530 0.951 . S
C523 C517 1.265 . S
C523 H518 0.950 . S
C523 C524 1.478 . S
C524 C523 1.478 . S
C524 C525 1.397 . S
C524 C541 1.394 . S
C525 C524 1.397 . S
C525 C526 1.438 . S
C525 C530 1.429 1_545 S
C526 C525 1.438 . S
C526 C527 1.428 1_545 S
C526 C539 1.394 . S
C527 H519 0.949 . S
C527 C526 1.428 1_565 S
C527 C528 1.345 . S
C528 H520 0.950 . S
C528 C527 1.345 . S
C528 C529 1.424 . S
C529 H521 0.951 . S
C529 C528 1.424 . S
C529 C530 1.347 . S
C530 H522 0.951 . S
C530 C525 1.429 1_565 S
C530 C529 1.347 . S
H531 C532 0.951 . S
C532 H531 0.951 . S
C532 C538 1.265 . S
H533 C538 0.950 . S
H534 C542 0.949 . S
H535 C543 0.950 . S
H536 C544 0.951 . S
H537 C545 0.951 . S
C538 C532 1.265 . S
C538 H533 0.950 . S
C538 C539 1.478 . S
C539 C526 1.394 . S
C539 C538 1.478 . S
C539 C540 1.397 . S
C540 C539 1.397 . S
C540 C541 1.438 . S
C540 C545 1.429 . S
C541 C524 1.394 . S
C541 C540 1.438 . S
C541 C542 1.428 . S
C542 H534 0.949 . S
C542 C541 1.428 . S
C542 C543 1.345 . S
C543 H535 0.950 . S
C543 C542 1.345 . S
C543 C544 1.424 . S
C544 H536 0.951 . S
C544 C543 1.424 . S
C544 C545 1.347 . S
C545 H537 0.951 . S
C545 C540 1.429 . S
C545 C544 1.347 . S
H546 C547 0.951 . S
C547 H546 0.951 . S
C547 C553 1.269 . S
H548 C553 0.951 . S
H549 C557 0.949 . S
H550 C558 0.950 . S
H551 C559 0.951 . S
H552 C560 0.951 . S
C553 C547 1.269 . S
C553 H548 0.951 . S
C553 C554 1.473 1_554 S
C554 C553 1.473 1_556 S
C554 C555 1.397 . S
C554 C571 1.394 . S
C555 C554 1.397 . S
C555 C556 1.438 . S
C555 C560 1.429 . S
C556 C555 1.438 . S
C556 C557 1.428 . S
C556 C569 1.394 . S
C557 H549 0.949 . S
C557 C556 1.428 . S
C557 C558 1.345 . S
C558 H550 0.950 . S
C558 C557 1.345 . S
C558 C559 1.424 . S
C559 H551 0.951 . S
C559 C558 1.424 . S
C559 C560 1.347 . S
C560 H552 0.951 . S
C560 C555 1.429 . S
C560 C559 1.347 . S
H561 C562 0.951 . S
C562 H561 0.951 . S
C562 C568 1.265 . S
H563 C568 0.950 . S
H564 C572 0.949 . S
H565 C573 0.950 . S
H566 C574 0.951 . S
H567 C575 0.951 . S
C568 C562 1.265 . S
C568 H563 0.950 . S
C568 C569 1.478 . S
C569 C556 1.394 . S
C569 C568 1.478 . S
C569 C570 1.397 . S
C570 C569 1.397 . S
C570 C571 1.438 . S
C570 C575 1.429 . S
C571 C554 1.394 . S
C571 C570 1.438 . S
C571 C572 1.428 1_556 S
C572 H564 0.949 . S
C572 C571 1.428 1_554 S
C572 C573 1.345 . S
C573 H565 0.950 . S
C573 C572 1.345 . S
C573 C574 1.424 . S
C574 H566 0.951 . S
C574 C573 1.424 . S
C574 C575 1.347 1_554 S
C575 H567 0.951 . S
C575 C570 1.429 . S
C575 C574 1.347 1_556 S
H576 C577 0.951 . S
C577 H576 0.951 . S
C577 C583 1.265 . S
H578 C583 0.950 1_655 S
H579 C587 0.949 . S
H580 C588 0.950 . S
H581 C589 0.951 . S
H582 C590 0.951 . S
C583 C577 1.265 . S
C583 H578 0.950 1_455 S
C583 C584 1.478 . S
C584 C583 1.478 . S
C584 C585 1.397 1_455 S
C584 C601 1.394 . S
C585 C584 1.397 1_655 S
C585 C586 1.438 . S
C585 C590 1.429 . S
C586 C585 1.438 . S
C586 C587 1.428 . S
C586 C599 1.394 1_655 S
C587 H579 0.949 . S
C587 C586 1.428 . S
C587 C588 1.345 . S
C588 H580 0.950 . S
C588 C587 1.345 . S
C588 C589 1.424 . S
C589 H581 0.951 . S
C589 C588 1.424 . S
C589 C590 1.347 . S
C590 H582 0.951 . S
C590 C585 1.429 . S
C590 C589 1.347 . S
H591 C592 0.951 1_655 S
C592 H591 0.951 1_455 S
C592 C598 1.265 . S
H593 C598 0.950 . S
H594 C602 0.949 . S
H595 C603 0.950 . S
H596 C604 0.951 . S
H597 C605 0.951 . S
C598 C592 1.265 . S
C598 H593 0.950 . S
C598 C599 1.478 . S
C599 C586 1.394 1_455 S
C599 C598 1.478 . S
C599 C600 1.397 . S
C600 C599 1.397 . S
C600 C601 1.438 . S
C600 C605 1.429 . S
C601 C584 1.394 . S
C601 C600 1.438 . S
C601 C602 1.428 . S
C602 H594 0.949 . S
C602 C601 1.428 . S
C602 C603 1.345 . S
C603 H595 0.950 . S
C603 C602 1.345 . S
C603 C604 1.424 . S
C604 H596 0.951 . S
C604 C603 1.424 . S
C604 C605 1.347 . S
C605 H597 0.951 . S
C605 C600 1.429 . S
C605 C604 1.347 . S
C262 C116 1.473 . S
C247 C14 1.400 . S
C277 C40 1.468 . S
C292 C155 1.493 . S
C307 C76 1.478 . S
C322 C222 1.476 . S
C337 C3 1.448 . S
C352 C123 1.456 . S
C382 C176 1.485 . S
C367 C38 1.486 . S
C397 C74 1.452 . S
C412 C201 1.470 . S
C442 C162 1.447 . S
C427 C86 1.444 . S
C457 C2 1.472 1_565 S
C472 C215 1.462 . S
C502 C130 1.452 . S
C487 C39 1.453 . S
C532 C169 1.458 . S
C517 C75 1.451 . S
C562 C208 1.463 . S
C547 C4 1.434 . S
C577 C50 1.387 . S
C592 C109 1.471 . S
