# Generated by pormake.
# Topology zzz, (3,6)-cn, num edge types: 1
# Building blocks:
#     Node 0, Type 0, BuildingBlock: PAMTOO_clean_linker_0, # of connection points: 3
#     Node 1, Type 0, BuildingBlock: PAMTOO_clean_linker_0, # of connection points: 3
#     Node 2, Type 0, BuildingBlock: PAMTOO_clean_linker_0, # of connection points: 3
#     Node 3, Type 0, BuildingBlock: PAMTOO_clean_linker_0, # of connection points: 3
#     Node 4, Type 0, BuildingBlock: PAMTOO_clean_linker_0, # of connection points: 3
#     Node 5, Type 0, BuildingBlock: PAMTOO_clean_linker_0, # of connection points: 3
#     Node 6, Type 0, BuildingBlock: PAMTOO_clean_linker_0, # of connection points: 3
#     Node 7, Type 0, BuildingBlock: PAMTOO_clean_linker_0, # of connection points: 3
#     Node 8, Type 1, BuildingBlock: BETDEL_clean_sbu_0, # of connection points: 6
#     Node 9, Type 1, BuildingBlock: BETDEL_clean_sbu_0, # of connection points: 6
#     Node 10, Type 1, BuildingBlock: BETDEL_clean_sbu_0, # of connection points: 6
#     Node 11, Type 1, BuildingBlock: BETDEL_clean_sbu_0, # of connection points: 6
#     Edge 12, Type (0, 1), BuildingBlock: EZIPEK_clean_linker_0, # of connection points: 2
#     Edge 13, Type (0, 1), BuildingBlock: EZIPEK_clean_linker_0, # of connection points: 2
#     Edge 14, Type (0, 1), BuildingBlock: EZIPEK_clean_linker_0, # of connection points: 2
#     Edge 15, Type (0, 1), BuildingBlock: EZIPEK_clean_linker_0, # of connection points: 2
#     Edge 16, Type (0, 1), BuildingBlock: EZIPEK_clean_linker_0, # of connection points: 2
#     Edge 17, Type (0, 1), BuildingBlock: EZIPEK_clean_linker_0, # of connection points: 2
#     Edge 18, Type (0, 1), BuildingBlock: EZIPEK_clean_linker_0, # of connection points: 2
#     Edge 19, Type (0, 1), BuildingBlock: EZIPEK_clean_linker_0, # of connection points: 2
#     Edge 20, Type (0, 1), BuildingBlock: EZIPEK_clean_linker_0, # of connection points: 2
#     Edge 21, Type (0, 1), BuildingBlock: EZIPEK_clean_linker_0, # of connection points: 2
#     Edge 22, Type (0, 1), BuildingBlock: EZIPEK_clean_linker_0, # of connection points: 2
#     Edge 23, Type (0, 1), BuildingBlock: EZIPEK_clean_linker_0, # of connection points: 2
#     Edge 24, Type (0, 1), BuildingBlock: EZIPEK_clean_linker_0, # of connection points: 2
#     Edge 25, Type (0, 1), BuildingBlock: EZIPEK_clean_linker_0, # of connection points: 2
#     Edge 26, Type (0, 1), BuildingBlock: EZIPEK_clean_linker_0, # of connection points: 2
#     Edge 27, Type (0, 1), BuildingBlock: EZIPEK_clean_linker_0, # of connection points: 2
#     Edge 28, Type (0, 1), BuildingBlock: EZIPEK_clean_linker_0, # of connection points: 2
#     Edge 29, Type (0, 1), BuildingBlock: EZIPEK_clean_linker_0, # of connection points: 2
#     Edge 30, Type (0, 1), BuildingBlock: EZIPEK_clean_linker_0, # of connection points: 2
#     Edge 31, Type (0, 1), BuildingBlock: EZIPEK_clean_linker_0, # of connection points: 2
#     Edge 32, Type (0, 1), BuildingBlock: EZIPEK_clean_linker_0, # of connection points: 2
#     Edge 33, Type (0, 1), BuildingBlock: EZIPEK_clean_linker_0, # of connection points: 2
#     Edge 34, Type (0, 1), BuildingBlock: EZIPEK_clean_linker_0, # of connection points: 2
#     Edge 35, Type (0, 1), BuildingBlock: EZIPEK_clean_linker_0, # of connection points: 2
# Relax obj value: 0.167
# Max RMSD: 0.182
# Mean RMSD: 0.119
data_MOF--net-zzz--node1-BETDEL_clean_sbu_0--node2-PAMTOO_clean_linker_0--edge1-EZIPEK_clean_linker_0
_symmetry_space_group_name_H-M    P1
_symmetry_Int_Tables_number       1
_symmetry_cell_setting            triclinic
loop_
_symmetry_equiv_pos_as_xyz
'x, y, z'
_cell_length_a     35.653408
_cell_length_b     36.740151
_cell_length_c     10.789756
_cell_angle_alpha  91.538994
_cell_angle_beta   88.405449
_cell_angle_gamma 95.243553
loop_
_atom_site_label
_atom_site_type_symbol
_atom_site_fract_x
_atom_site_fract_y
_atom_site_fract_z
_atom_type_partial_charge
H0 H 0.84863 0.48705 0.13045 0.0
H1 H 0.74854 0.49442 0.92453 0.0
H2 H 0.76939 0.5627 0.25129 0.0
H3 H 0.67445 0.55118 0.16702 0.0
C4 C 0.68543 0.53322 0.0928 0.0
O5 O 0.72246 0.54599 0.0633 0.0
H6 H 0.68386 0.50662 0.13964 0.0
C7 C 0.82149 0.49787 0.12147 0.0
C8 C 0.81172 0.52534 0.20408 0.0
C9 C 0.79941 0.48682 0.02013 0.0
C10 C 0.76515 0.50191 0.0052 0.0
C11 C 0.7535 0.52873 0.08939 0.0
C12 C 0.77714 0.54081 0.18932 0.0
H13 H 0.04515 0.85185 0.18195 0.0
H14 H 0.02953 0.76658 0.90616 0.0
H15 H 0.98062 0.75114 0.27361 0.0
H16 H 0.03378 0.68356 0.11597 0.0
C17 C 0.02098 0.69111 0.02898 0.0
O18 O 0.99584 0.71721 0.05654 0.0
H19 H 0.04511 0.70351 0.97208 0.0
C20 C 0.03543 0.82366 0.15797 0.0
C21 C 1.01141 0.80396 0.2405 0.0
C22 C 0.03953 0.8116 0.03566 0.0
C23 C 0.02633 0.77576 0.00164 0.0
C24 C 1.00777 0.7524 0.09037 0.0
C25 C 0.9987 0.76723 0.20946 0.0
H26 H 0.67385 0.04696 0.08567 0.0
H27 H 0.78797 0.06038 0.94978 0.0
H28 H 0.75829 0.99087 0.26065 0.0
H29 H 0.80847 0.99485 0.91229 0.0
C30 C 0.82518 0.99107 -0.00405 0.0
O31 O 0.81335 0.0129 0.0944 0.0
H32 H 0.81788 0.96204 0.01923 0.0
C33 C 0.703 0.04101 0.09274 0.0
C34 C 0.71273 0.01887 0.18782 0.0
C35 C 0.72978 0.05588 0.00702 0.0
C36 C 0.7673 0.04859 0.01585 0.0
C37 C 0.77761 0.02353 0.10194 0.0
C38 C 0.75031 1.00903 0.19056 0.0
H39 H 0.5238 0.65861 0.08169 0.0
H40 H 0.48821 0.75434 0.91964 0.0
H41 H 0.56857 0.76482 0.21288 0.0
H42 H 0.50932 0.83363 0.12732 0.0
C43 C 0.51511 0.8262 0.02896 0.0
O44 O 0.54103 0.80004 0.0231 0.0
H45 H 0.48739 0.81425 -0.00489 0.0
C46 C 0.52613 0.68819 0.07428 0.0
C47 C 0.54712 0.70931 0.16108 0.0
C48 C 0.50249 0.70402 -0.00521 0.0
C49 C 0.50626 0.74203 0.98219 0.0
C50 C 0.53264 0.76416 0.05263 0.0
C51 C 0.55127 0.74788 0.14909 0.0
H52 H 0.17155 0.50474 0.0979 0.0
H53 H 0.28483 0.53698 0.20601 0.0
H54 H 0.26444 0.46822 0.88106 0.0
H55 H 0.34542 0.45248 0.00263 0.0
C56 C 0.33609 0.46812 0.08561 0.0
O57 O 0.31689 0.49596 0.04051 0.0
H58 H 0.3163 0.44936 0.14114 0.0
C59 C 0.20161 0.50229 0.08558 0.0
C60 C 0.21442 0.48462 0.9793 0.0
C61 C 0.22658 0.52387 0.15978 0.0
C62 C 0.26533 0.52074 0.14702 0.0
C63 C 0.27902 0.49793 0.05295 0.0
C64 C 0.25365 0.48153 0.96358 0.0
H65 H 1.01237 0.16589 -0.00547 0.0
H66 H 0.9888 0.26202 0.20572 0.0
H67 H 0.05874 0.27138 0.87201 0.0
H68 H 0.07818 0.33943 0.05403 0.0
C69 C 0.05639 0.32838 0.12187 0.0
O70 O 0.02747 0.30862 0.05846 0.0
H71 H 0.07235 0.31019 0.17704 0.0
C72 C 1.01542 0.1955 0.00648 0.0
C73 C 0.0373 0.2163 0.92099 0.0
C74 C 0.99855 0.21139 0.10956 0.0
C75 C 1.00234 0.24957 0.1264 0.0
C76 C 0.02443 0.27155 0.04184 0.0
C77 C 0.04198 0.25475 0.93814 0.0
H78 H 0.36091 1.00056 0.07693 0.0
H79 H 0.24548 0.98465 0.20381 0.0
H80 H 0.27411 0.04064 0.86279 0.0
H81 H 0.18044 0.05369 0.98664 0.0
C82 C 0.19832 0.04589 0.0625 0.0
O83 O 0.21814 0.01714 0.01913 0.0
H84 H 0.21757 0.07098 0.07758 0.0
C85 C 0.33145 1.00459 0.06457 0.0
C86 C 0.32121 0.0223 0.95959 0.0
C87 C 0.30455 0.99067 0.15171 0.0
C88 C 0.26651 0.99573 0.13721 0.0
C89 C 0.25544 0.01467 0.03519 0.0
C90 C 0.28279 0.02755 0.94465 0.0
H91 H 0.54466 0.36175 0.02125 0.0
H92 H 0.55933 0.25924 0.18802 0.0
H93 H 0.48185 0.2637 0.8895 0.0
H94 H 0.45634 0.195 0.06669 0.0
C95 C 0.47985 0.2052 0.12737 0.0
O96 O 0.50956 0.22043 0.05378 0.0
H97 H 0.46689 0.22639 0.18537 0.0
C98 C 0.53807 0.33233 0.02546 0.0
C99 C 0.51203 0.31538 0.94388 0.0
C100 C 0.55531 0.31272 0.11343 0.0
C101 C 0.54599 0.27485 0.12086 0.0
C102 C 0.51864 0.25708 0.04314 0.0
C103 C 0.50197 0.27737 0.95255 0.0
Dy104 Dy 0.04358 0.99913 0.67083 0.0
C105 C 0.97625 0.07321 0.31059 0.0
C106 C 0.06389 0.95309 0.84728 0.0
Dy107 Dy 0.99986 0.02496 0.47497 0.0
O108 O 0.08055 0.9583 0.74031 0.0
O109 O 0.03826 0.97589 0.86026 0.0
O110 O 0.09789 0.02456 0.59081 0.0
O111 O 0.0553 1.0038 0.47025 0.0
C112 C 0.08794 0.02076 0.47573 0.0
C113 C 0.95665 1.00257 0.67337 0.0
O114 O 0.99842 0.9668 0.402 0.0
O115 O 1.01288 0.94743 0.59418 0.0
O116 O 0.96142 0.0662 0.41882 0.0
O117 O 1.0015 0.05045 0.28631 0.0
O118 O 0.94644 0.9977 0.55891 0.0
O119 O 0.98853 0.0209 0.67565 0.0
O120 O 0.04608 0.05688 0.74453 0.0
O121 O 0.0327 0.07592 0.55165 0.0
C122 C 1.00284 0.93996 0.47882 0.0
C123 C 0.04264 0.08362 0.66707 0.0
Dy124 Dy 0.49108 0.99371 0.48363 0.0
C125 C 0.60835 0.07753 0.75297 0.0
C126 C 0.42549 0.95895 0.39915 0.0
Dy127 Dy 0.54318 0.04341 0.66716 0.0
O128 O 0.45121 0.97681 0.33113 0.0
O129 O 0.43703 0.95818 0.51182 0.0
O130 O 0.53726 0.99239 0.33573 0.0
O131 O 0.55132 1.00191 0.52107 0.0
C132 C 0.56446 1.00295 0.41063 0.0
C133 C 0.46902 0.04501 0.73228 0.0
O134 O 0.53246 0.08376 0.52206 0.0
O135 O 0.48227 0.05076 0.42433 0.0
O136 O 0.59716 0.0787 0.6399 0.0
O137 O 0.58325 0.05849 0.82022 0.0
O138 O 0.49607 0.06244 0.79538 0.0
O139 O 0.48452 0.02936 0.64182 0.0
O140 O 0.50371 0.95142 0.62071 0.0
O141 O 0.54656 0.98703 0.74494 0.0
C142 C 0.50487 0.08123 0.44128 0.0
C143 C 0.52667 0.95546 0.71663 0.0
Dy144 Dy 0.49398 0.52918 0.64599 0.0
C145 C 0.57448 0.447 0.31901 0.0
C146 C 0.45573 0.57533 0.79666 0.0
Dy147 Dy 0.54397 0.49841 0.47287 0.0
O148 O 0.44415 0.56062 0.69323 0.0
O149 O 0.48799 0.56362 0.82026 0.0
O150 O 0.44502 0.49523 0.56439 0.0
O151 O 0.4881 0.51759 0.44461 0.0
C152 C 0.45665 0.49818 0.44986 0.0
C153 C 0.58133 0.52748 0.67283 0.0
O154 O 0.54885 0.55285 0.38251 0.0
O155 O 0.52493 0.57951 0.55945 0.0
O156 O 0.59012 0.46287 0.41517 0.0
O157 O 0.54317 0.46139 0.30266 0.0
O158 O 0.59392 0.5299 0.55892 0.0
O159 O 0.54934 0.50911 0.67472 0.0
O160 O 0.49365 0.47595 0.74442 0.0
O161 O 0.51296 0.44928 0.5633 0.0
C162 C 0.54121 0.58243 0.44759 0.0
C163 C 0.50062 0.44623 0.67924 0.0
Dy164 Dy 0.98983 0.48155 0.66319 0.0
C165 C 0.09751 0.56081 0.33993 0.0
C166 C 0.93393 0.45392 0.8218 0.0
Dy167 Dy 0.03872 0.53172 0.48593 0.0
O168 O 0.93978 0.44287 0.70882 0.0
O169 O 0.96208 0.47715 0.85324 0.0
O170 O 0.97789 0.44147 0.50625 0.0
O171 O 0.02973 0.47199 0.5075 0.0
C172 C 1.00912 0.44885 0.44436 0.0
C173 C 1.01418 0.57316 0.67792 0.0
O174 O 0.98266 0.52874 0.39058 0.0
O175 O 0.9505 0.51729 0.57539 0.0
O176 O 0.08008 0.57815 0.42619 0.0
O177 O 0.0807 0.52801 0.32731 0.0
O178 O 0.03399 0.58611 0.58416 0.0
O179 O 1.00759 0.53907 0.65982 0.0
O180 O 0.04486 0.47513 0.75411 0.0
O181 O 0.08128 0.51017 0.6102 0.0
C182 C 0.95055 0.52576 0.45713 0.0
C183 C 0.07801 0.48959 0.7102 0.0
C184 C 0.17618 0.0556 0.28875 0.0
C185 C 0.17235 0.03546 0.17491 0.0
C186 C 0.1166 1.00026 0.26702 0.0
C187 C 0.11615 0.02563 0.36933 0.0
N188 N 0.14242 0.08326 0.45821 0.0
N189 N 0.13484 0.99058 0.05195 0.0
C190 C 0.14509 0.05496 0.37468 0.0
C191 C 0.14131 1.00842 0.16287 0.0
N192 N 0.20971 0.07439 0.31794 0.0
N193 N 0.09548 0.96733 0.271 0.0
H194 H 0.15223 0.99464 0.97345 0.0
H195 H 0.11034 0.97369 0.03605 0.0
H196 H 0.07969 0.95837 0.34852 0.0
H197 H 0.09758 0.94676 0.20339 0.0
H198 H 0.21427 0.08733 0.40411 0.0
H199 H 0.23427 0.07259 0.26429 0.0
H200 H 0.16142 0.10659 0.45832 0.0
H201 H 0.1189 0.08555 0.51647 0.0
C202 C 0.49866 0.17968 0.33466 0.0
C203 C 0.49152 0.17379 0.20597 0.0
C204 C 0.49865 0.10808 0.23146 0.0
C205 C 0.50017 0.11345 0.36164 0.0
N206 N 0.4968 0.15413 0.53977 0.0
N207 N 0.48627 0.13189 0.02973 0.0
C208 C 0.49919 0.14923 0.41392 0.0
C209 C 0.49226 0.13778 0.15347 0.0
N210 N 0.50603 0.21442 0.38131 0.0
N211 N 0.50532 0.07434 0.18502 0.0
H212 H 0.48607 0.15298 0.96711 0.0
H213 H 0.47994 0.10611 0.98949 0.0
H214 H 0.50792 0.06744 0.09103 0.0
H215 H 0.50792 0.06744 0.09103 0.0
H216 H 0.51544 0.22035 0.47077 0.0
H217 H 0.50683 0.23737 0.32681 0.0
H218 H 0.49135 0.17881 0.58325 0.0
H219 H 0.4967 0.13271 0.60099 0.0
C220 C 0.39316 0.45079 0.20255 0.0
C221 C 0.37115 0.47931 0.16588 0.0
C222 C 0.40534 0.52047 0.3187 0.0
C223 C 0.4293 0.49297 0.34558 0.0
N224 N 0.45028 0.43402 0.29456 0.0
N225 N 0.36739 0.54514 0.16512 0.0
C226 C 0.42463 0.45893 0.28089 0.0
C227 C 0.38022 0.51531 0.21709 0.0
N228 N 0.3831 0.41519 0.16798 0.0
N229 N 0.40616 0.55157 0.39108 0.0
H230 H 0.35719 0.54476 0.07588 0.0
H231 H 0.37346 0.57176 0.199 0.0
H232 H 0.42448 0.55659 0.46419 0.0
H233 H 0.38639 0.57064 0.38593 0.0
H234 H 0.39475 0.3932 0.20636 0.0
H235 H 0.36115 0.40684 0.10907 0.0
H236 H 0.45126 0.41052 0.23868 0.0
H237 H 0.47263 0.43854 0.35474 0.0
C238 C 0.03489 0.35469 0.33264 0.0
C239 C 0.04178 0.35958 0.2032 0.0
C240 C 0.02679 0.42403 0.23094 0.0
C241 C 0.02399 0.41974 0.36139 0.0
N242 N 0.03122 0.38253 0.53822 0.0
N243 N 0.04279 0.39905 0.02715 0.0
C244 C 0.02981 0.38552 0.41241 0.0
C245 C 0.03721 0.39435 0.15181 0.0
N246 N 0.03138 0.32031 0.37959 0.0
N247 N 0.01817 0.45616 0.18249 0.0
H248 H 0.04565 0.37747 0.96397 0.0
H249 H 0.04538 0.42443 0.98569 0.0
H250 H 1.01213 0.47868 0.23793 0.0
H251 H 1.0152 0.46021 0.08835 0.0
H252 H 0.02218 0.31471 0.47011 0.0
H253 H 0.03349 0.29671 0.3255 0.0
H254 H 0.04007 0.35981 0.58087 0.0
H255 H 0.02691 0.40409 0.60022 0.0
C256 C 0.89004 0.96971 0.9418 0.0
C257 C 0.86698 0.99916 0.95503 0.0
C258 C 0.90857 0.03394 0.8049 0.0
C259 C 0.9282 1.0025 0.77856 0.0
N260 N 0.93659 0.93964 0.8182 0.0
N261 N 0.86587 0.06436 0.94291 0.0
C262 C 0.91904 0.97034 0.84746 0.0
C263 C 0.87968 0.03289 0.89959 0.0
N264 N 0.88549 0.94207 0.02453 0.0
N265 N 0.91602 0.06425 0.73449 0.0
H266 H 0.84845 0.06514 0.02152 0.0
H267 H 0.87591 0.09031 0.91384 0.0
H268 H 0.93704 0.06622 0.66553 0.0
H269 H 0.89962 0.0863 0.7375 0.0
H270 H 0.90315 0.92106 0.02719 0.0
H271 H 0.86696 0.94289 0.10096 0.0
H272 H 0.92739 0.91395 0.85151 0.0
H273 H 0.95884 0.93936 0.75369 0.0
C274 C 0.53127 0.89534 0.00242 0.0
C275 C 0.52721 0.85956 0.94772 0.0
C276 C 0.53418 0.88801 0.74212 0.0
C277 C 0.52963 0.92296 0.79713 0.0
N278 N 0.51695 0.95802 0.98449 0.0
N279 N 0.52342 0.82241 0.75888 0.0
C280 C 0.52659 0.92623 0.92876 0.0
C281 C 0.52853 0.85608 0.81558 0.0
N282 N 0.54058 0.90019 0.12396 0.0
N283 N 0.54532 0.88529 0.62034 0.0
H284 H 0.52164 0.79818 0.80677 0.0
H285 H 0.51892 0.81868 0.66418 0.0
H286 H 0.55134 0.90809 0.56548 0.0
H287 H 0.55272 0.86104 0.5781 0.0
H288 H 0.54627 0.92598 0.16535 0.0
H289 H 0.54784 0.87887 0.17778 0.0
H290 H 0.51076 0.96034 0.07923 0.0
H291 H 0.51091 0.9807 0.93535 0.0
C292 C 0.65436 0.49991 0.90159 0.0
C293 C 0.6602 0.53212 0.9781 0.0
C294 C 0.61226 0.56013 0.85904 0.0
C295 C 0.60811 0.52887 0.77891 0.0
N296 N 0.63277 0.47292 0.70629 0.0
N297 N 0.65223 0.59665 0.00213 0.0
C298 C 0.63133 0.49992 0.79526 0.0
C299 C 0.64134 0.56335 0.94868 0.0
N300 N 0.67021 0.46879 0.93015 0.0
N301 N 0.58826 0.58684 0.85027 0.0
H302 H 0.67459 0.60092 0.06258 0.0
H303 H 0.64204 0.62086 0.97541 0.0
H304 H 0.56749 0.58592 0.78375 0.0
H305 H 0.58697 0.60826 0.91509 0.0
H306 H 0.66206 0.44331 0.88982 0.0
H307 H 0.6899 0.46745 -0.0013 0.0
H308 H 0.65236 0.45354 0.7049 0.0
H309 H 0.61689 0.47197 0.62692 0.0
C310 C 1.00737 0.62169 -0.00489 0.0
C311 C 1.00381 0.65768 0.95302 0.0
C312 C 0.98695 0.63029 0.74874 0.0
C313 C 1.00104 0.59718 0.78162 0.0
N314 N 0.02339 0.56031 0.94025 0.0
N315 N 0.9876 0.69541 0.78519 0.0
C316 C 1.01016 0.59223 0.90675 0.0
C317 C 0.99203 0.66164 0.82919 0.0
N318 N 1.00745 0.61555 0.11927 0.0
N319 N 0.96861 0.63157 0.63969 0.0
H320 H 0.98829 0.7189 0.84091 0.0
H321 H 0.98462 0.70033 0.69149 0.0
H322 H 0.9638 0.60855 0.58145 0.0
H323 H 0.95466 0.65385 0.61438 0.0
H324 H 1.00769 0.5896 0.15563 0.0
H325 H 1.00219 0.63575 0.18563 0.0
H326 H 0.0351 0.55683 0.02607 0.0
H327 H 0.02437 0.53789 0.87948 0.0
C328 C 1.00845 0.17372 0.28477 0.0
C329 C 0.98218 0.18547 0.2035 0.0
C330 C 0.94723 0.12473 0.21068 0.0
C331 C 0.97882 0.1111 0.26505 0.0
N332 N 0.04301 0.1234 0.33664 0.0
N333 N 0.92456 0.17381 0.09441 0.0
C334 C 1.01035 0.13579 0.29847 0.0
C335 C 0.95032 0.1616 0.17075 0.0
N336 N 0.03306 0.19885 0.34241 0.0
N337 N 0.91482 0.10243 0.19522 0.0
H338 H 0.92609 0.20113 0.06866 0.0
H339 H 0.90298 0.15691 0.05395 0.0
H340 H 0.91245 0.07482 0.21729 0.0
H341 H 0.88978 0.11186 0.16727 0.0
H342 H 0.05115 0.19206 0.41068 0.0
H343 H 0.03197 0.22686 0.33181 0.0
H344 H 0.06743 0.14055 0.35231 0.0
H345 H 0.04768 0.09595 0.33829 0.0
C346 C 0.32937 0.99217 0.36126 0.0
C347 C 0.31848 0.97084 0.25603 0.0
C348 C 0.3687 0.9312 0.28903 0.0
C349 C 0.38527 0.95846 0.37062 0.0
N350 N 0.38164 0.01572 0.48583 0.0
N351 N 0.3216 0.91613 0.13207 0.0
C352 C 0.36516 0.98862 0.41072 0.0
C353 C 0.33557 0.93826 0.22677 0.0
N354 N 0.30647 0.0173 0.40783 0.0
N355 N 0.38538 0.89948 0.26898 0.0
H356 H 0.29674 0.92101 0.08885 0.0
H357 H 0.3346 0.89388 0.09529 0.0
H358 H 0.40981 0.89428 0.31401 0.0
H359 H 0.37381 0.8775 0.21551 0.0
H360 H 0.31142 0.032 0.49058 0.0
H361 H 0.28041 0.02038 0.36972 0.0
H362 H 0.3698 0.04008 0.50695 0.0
H363 H 0.40861 0.01539 0.51986 0.0
C364 C 0.60654 0.36038 0.16326 0.0
C365 C 0.57739 0.33491 0.2076 0.0
C366 C 0.55259 0.38134 0.33993 0.0
C367 C 0.57887 0.40814 0.28732 0.0
N368 N 0.63831 0.42205 0.18002 0.0
N369 N 0.53835 0.31709 0.3832 0.0
C370 C 0.60888 0.39726 0.2103 0.0
C371 C 0.55621 0.34404 0.31333 0.0
N372 N 0.62826 0.34932 0.06625 0.0
N373 N 0.52323 0.39239 0.40953 0.0
H374 H 0.54324 0.28988 0.36683 0.0
H375 H 0.5232 0.32201 0.46489 0.0
H376 H 0.50078 0.37489 0.44318 0.0
H377 H 0.50078 0.37489 0.44318 0.0
H378 H 0.64824 0.36647 0.01829 0.0
H379 H 0.64824 0.36647 0.01829 0.0
H380 H 0.6627 0.41496 0.13374 0.0
H381 H 0.63941 0.44931 0.21064 0.0
C382 C 0.19855 0.54499 0.35698 0.0
C383 C 0.21002 0.55294 0.23439 0.0
C384 C 0.15243 0.58214 0.20086 0.0
C385 C 0.13839 0.56843 0.31546 0.0
N386 N 0.15404 0.55502 0.52401 0.0
N387 N 0.20755 0.59295 0.0638 0.0
C388 C 0.16355 0.55606 0.40125 0.0
C389 C 0.19049 0.57747 0.16651 0.0
N390 N 0.21941 0.52418 0.42621 0.0
N391 N 0.12909 0.59771 0.12388 0.0
H392 H 0.23524 0.58831 0.03836 0.0
H393 H 0.19562 0.61203 0.01117 0.0
H394 H 0.10135 0.60185 0.15018 0.0
H395 H 0.13687 0.60571 0.03433 0.0
H396 H 0.21005 0.51325 0.51089 0.0
H397 H 0.24578 0.51696 0.39525 0.0
H398 H 0.17286 0.54888 0.5904 0.0
H399 H 0.1295 0.56506 0.55971 0.0
C400 C 1.01679 0.86391 0.9405 0.0
C401 C 0.04656 0.84128 0.94583 0.0
C402 C 0.09106 0.89359 0.89112 0.0
C403 C 0.06133 0.91691 0.90684 0.0
N404 N 1.00042 0.92344 0.00577 0.0
N405 N 0.11268 0.8341 0.93172 0.0
C406 C 0.02532 0.90199 0.94846 0.0
C407 C 0.08402 0.85591 0.92091 0.0
N408 N 0.98035 0.84891 0.94185 0.0
N409 N 0.126 0.90755 0.85156 0.0
H410 H 0.10749 0.80619 0.94824 0.0
H411 H 0.14106 0.84378 0.92876 0.0
H412 H 0.13327 0.93555 0.84368 0.0
H413 H 0.14744 0.89133 0.82487 0.0
H414 H 0.95759 0.86456 0.93462 0.0
H415 H 0.97354 0.82067 0.93838 0.0
H416 H 0.97477 0.91269 0.04447 0.0
H417 H 1.00796 0.95047 0.03316 0.0
C418 C 0.7082 0.05511 0.79315 0.0
C419 C 0.71591 0.07586 0.90271 0.0
C420 C 0.66137 0.10994 0.87006 0.0
C421 C 0.64829 0.082 0.78488 0.0
N422 N 0.65899 0.02714 0.66404 0.0
N423 N 0.70635 0.12848 0.0309 0.0
C424 C 0.67207 0.05498 0.74266 0.0
C425 C 0.69515 0.10603 0.93347 0.0
N426 N 0.73454 0.03412 0.74217 0.0
N427 N 0.64084 0.13914 0.89243 0.0
H428 H 0.73157 0.12566 0.07527 0.0
H429 H 0.69086 0.14896 0.06848 0.0
H430 H 0.61591 0.142 0.84652 0.0
H431 H 0.64958 0.16148 0.94915 0.0
H432 H 0.73142 0.02047 0.65667 0.0
H433 H 0.76128 0.03393 0.77835 0.0
H434 H 0.67382 1.00462 0.64169 0.0
H435 H 0.63202 0.02479 0.62853 0.0
C436 C 0.45178 0.6538 0.01934 0.0
C437 C 0.47177 0.67929 0.93919 0.0
C438 C 0.44918 0.64062 0.76635 0.0
C439 C 0.44466 0.61064 0.84626 0.0
N440 N 0.43882 0.58911 0.05473 0.0
N441 N 0.4886 0.69601 0.72756 0.0
C442 C 0.44394 0.61742 0.97525 0.0
C443 C 0.46927 0.67325 0.80949 0.0
N444 N 0.44333 0.66383 0.13855 0.0
N445 N 0.43519 0.63785 0.65027 0.0
H446 H 0.50503 0.71963 0.75404 0.0
H447 H 0.49044 0.68938 0.63325 0.0
H448 H 0.41903 0.61449 0.61887 0.0
H449 H 0.43534 0.66059 0.59438 0.0
H450 H 0.42722 0.64653 0.19851 0.0
H451 H 0.44929 0.69072 0.171 0.0
H452 H 0.44251 0.59249 0.15005 0.0
H453 H 0.43261 0.56219 0.02295 0.0
C454 C 0.83852 0.49013 0.83457 0.0
C455 C 0.81862 0.4669 0.91947 0.0
C456 C 0.87165 0.4287 0.91487 0.0
C457 C 0.89472 0.45835 0.86308 0.0
N458 N 0.89934 0.52075 0.78919 0.0
N459 N 0.81264 0.41024 0.02507 0.0
C460 C 0.87798 0.48999 0.82599 0.0
C461 C 0.83373 0.43414 0.95108 0.0
N462 N 0.8201 0.51404 0.76973 0.0
N463 N 0.88608 0.39609 0.93185 0.0
H464 H 0.78472 0.4143 0.04945 0.0
H465 H 0.82295 0.38771 0.06447 0.0
H466 H 0.9142 0.39207 0.91118 0.0
H467 H 0.86974 0.37267 0.95994 0.0
H468 H 0.83333 0.53036 0.70084 0.0
H469 H 0.79086 0.51393 0.77439 0.0
H470 H 0.88781 0.54504 0.77063 0.0
H471 H 0.92853 0.52393 0.79198 0.0
C472 C 0.08053 0.17067 0.8442 0.0
C473 C 0.0533 0.19483 0.81598 0.0
C474 C 0.02304 0.1488 0.67526 0.0
C475 C 0.04875 0.12315 0.7087 0.0
N476 N 0.10926 0.11452 0.79312 0.0
N477 N 1.00992 0.21255 0.6694 0.0
C478 C 0.08 0.13568 0.78272 0.0
C479 C 0.02912 0.18589 0.71685 0.0
N480 N 0.10505 0.18042 0.93672 0.0
N481 N 0.99069 0.13743 0.61516 0.0
H482 H 1.01377 0.23958 0.70235 0.0
H483 H 0.99376 0.20865 0.59031 0.0
H484 H 0.98243 0.11021 0.59455 0.0
H485 H 0.9697 0.1545 0.5986 0.0
H486 H 0.1225 0.16258 0.97437 0.0
H487 H 0.10648 0.20646 0.9787 0.0
H488 H 0.13409 0.12343 0.83767 0.0
H489 H 0.11024 0.08935 0.7468 0.0
C490 C 0.36897 1.002 0.80724 0.0
C491 C 0.35216 0.03161 0.86557 0.0
C492 C 0.40883 0.07184 0.80861 0.0
C493 C 0.42801 0.04073 0.77199 0.0
N494 N 0.4274 0.97503 0.77152 0.0
N495 N 0.35679 0.09513 0.92773 0.0
C496 C 0.40823 1.00545 0.77881 0.0
C497 C 0.37211 0.06684 0.86639 0.0
N498 N 0.34762 0.96987 0.78487 0.0
N499 N 0.42543 0.10613 0.7874 0.0
H500 H 0.32953 0.09255 0.96621 0.0
H501 H 0.3717 0.12035 0.94565 0.0
H502 H 0.45213 0.11078 0.74626 0.0
H503 H 0.41156 0.12972 0.80121 0.0
H504 H 0.35776 0.94818 0.73378 0.0
H505 H 0.31878 0.9667 0.80639 0.0
H506 H 0.41475 0.94878 0.78705 0.0
H507 H 0.45661 0.97662 0.76598 0.0
C508 C 0.526 0.35013 0.75369 0.0
C509 C 0.49912 0.33953 0.84723 0.0
C510 C 0.46762 0.39533 0.81153 0.0
C511 C 0.49895 0.40911 0.73645 0.0
N512 N 0.56249 0.40112 0.6611 0.0
N513 N 0.44434 0.35218 0.96946 0.0
C514 C 0.52917 0.38669 0.71264 0.0
C515 C 0.46955 0.362 0.87617 0.0
N516 N 0.55019 0.32571 0.71037 0.0
N517 N 0.43589 0.41353 0.81936 0.0
H518 H 0.44432 0.32726 0.01381 0.0
H519 H 0.4248 0.36924 0.00577 0.0
H520 H 0.43319 0.43729 0.77094 0.0
H521 H 0.4111 0.40331 0.86454 0.0
H522 H 0.56913 0.33094 0.63631 0.0
H523 H 0.54839 0.29886 0.7409 0.0
H524 H 0.58647 0.38695 0.65257 0.0
H525 H 0.56775 0.42857 0.64041 0.0
C526 C 0.16081 0.44896 0.86647 0.0
C527 C 0.18635 0.48079 0.87772 0.0
C528 C 0.13824 0.5174 0.80088 0.0
C529 C 0.11382 0.48546 0.7768 0.0
N530 N 0.10485 0.41949 0.76938 0.0
N531 N 0.20267 0.54335 0.82333 0.0
C532 C 0.12595 0.45071 0.8044 0.0
C533 C 0.17621 0.51414 0.83129 0.0
N534 N 0.16929 0.41748 0.91908 0.0
N535 N 0.12458 0.55098 0.80242 0.0
H536 H 0.23082 0.54143 0.84426 0.0
H537 H 0.19749 0.56816 0.78562 0.0
H538 H 0.09628 0.55445 0.78874 0.0
H539 H 0.14048 0.57495 0.82926 0.0
H540 H 0.15011 0.39447 0.92752 0.0
H541 H 0.19524 0.41532 0.95955 0.0
H542 H 0.11393 0.3935 0.77673 0.0
H543 H 0.07942 0.41979 0.7246 0.0
C544 C 0.02181 0.83895 0.43586 0.0
C545 C 0.99618 0.82697 0.34328 0.0
C546 C 0.96738 0.8855 0.36851 0.0
C547 C 0.99898 0.9004 0.43673 0.0
N548 N 0.05973 0.89088 0.52093 0.0
N549 N 0.94236 0.83775 0.22516 0.0
C550 C 0.02676 0.87681 0.46933 0.0
C551 C 0.96761 0.84966 0.31341 0.0
N552 N 0.04344 0.81431 0.48395 0.0
N553 N 0.93697 0.90516 0.35808 0.0
H554 H 0.94098 0.81114 0.18812 0.0
H555 H 0.92418 0.85451 0.1855 0.0
H556 H 0.93546 0.9309 0.4 0.0
H557 H 0.9119 0.89457 0.31816 0.0
H558 H 0.06094 0.82039 0.55893 0.0
H559 H 0.04047 0.78678 0.45578 0.0
H560 H 0.08193 0.87523 0.53733 0.0
H561 H 0.06708 0.91878 0.53323 0.0
C562 C 0.65943 0.97539 0.27559 0.0
C563 C 0.682 1.00927 0.28301 0.0
C564 C 0.62806 0.0383 0.37257 0.0
C565 C 0.60565 1.00438 0.37336 0.0
N566 N 0.60278 0.93885 0.34553 0.0
N567 N 0.69095 0.06916 0.37815 0.0
C568 C 0.62236 0.97224 0.33205 0.0
C569 C 0.66741 0.03906 0.34787 0.0
N570 N 0.6725 0.94692 0.20878 0.0
N571 N 0.61147 0.07022 0.38158 0.0
H572 H 0.71991 0.07032 0.35904 0.0
H573 H 0.68216 0.09078 0.43287 0.0
H574 H 0.58239 0.07061 0.38169 0.0
H575 H 0.62636 0.09579 0.37163 0.0
H576 H 0.65583 0.92297 0.18671 0.0
H577 H 0.69976 0.94818 0.17044 0.0
H578 H 0.61457 0.91426 0.3278 0.0
H579 H 0.57545 0.93581 0.38304 0.0
C580 C 0.52323 0.67863 0.34974 0.0
C581 C 0.55525 0.68876 0.27402 0.0
C582 C 0.58284 0.63313 0.33843 0.0
C583 C 0.54738 0.61972 0.39174 0.0
N584 N 0.4811 0.62753 0.41616 0.0
N585 N 0.61634 0.67606 0.19602 0.0
C586 C 0.51696 0.64215 0.39098 0.0
C587 C 0.58566 0.66634 0.27018 0.0
N588 N 0.49712 0.70309 0.37207 0.0
N589 N 0.61366 0.61437 0.35334 0.0
H590 H 0.61912 0.70083 0.14984 0.0
H591 H 0.63796 0.65934 0.17739 0.0
H592 H 0.6125 0.59042 0.40357 0.0
H593 H 0.64081 0.62408 0.32492 0.0
H594 H 0.47323 0.69768 0.42869 0.0
H595 H 0.50128 0.72989 0.3413 0.0
H596 H 0.45752 0.64117 0.3986 0.0
H597 H 0.47457 0.60034 0.43923 0.0
C598 C 0.84434 0.51293 0.39554 0.0
C599 C 0.84091 0.5371 0.29805 0.0
C600 C 0.90764 0.56026 0.32381 0.0
C601 C 0.91286 0.53057 0.40182 0.0
N602 N 0.88541 0.47405 0.49137 0.0
N603 N 0.86978 0.58371 0.1652 0.0
C604 C 0.88082 0.506 0.43413 0.0
C605 C 0.87264 0.56119 0.26236 0.0
N606 N 0.81257 0.49488 0.44558 0.0
N607 N 0.93546 0.58808 0.31089 0.0
H608 H 0.84419 0.5861 0.12274 0.0
H609 H 0.89292 0.59847 0.12371 0.0
H610 H 0.96086 0.58893 0.3568 0.0
H611 H 0.93182 0.61195 0.26443 0.0
H612 H 0.81269 0.47871 0.52341 0.0
H613 H 0.78576 0.49941 0.41615 0.0
H614 H 0.86344 0.45399 0.50847 0.0
H615 H 0.91172 0.46522 0.50674 0.0
loop_
_geom_bond_atom_site_label_1
_geom_bond_atom_site_label_2
_geom_bond_distance
_geom_bond_site_symmetry_2
_ccdc_geom_bond_type
H0 C7 0.929 . S
H1 C10 0.930 1_556 S
H2 C12 0.929 . S
H3 C4 0.969 1_556 S
C4 H3 0.969 1_554 S
C4 O5 1.550 . S
C4 H6 0.973 1_554 S
O5 C4 1.550 . S
O5 C11 1.412 . S
H6 C4 0.973 1_556 S
C7 H0 0.929 . S
C7 C8 1.400 . S
C7 C9 1.364 . S
C8 C7 1.400 . S
C8 C12 1.377 . S
C9 C7 1.364 . S
C9 C10 1.374 . S
C10 H1 0.930 1_554 S
C10 C9 1.374 . S
C10 C11 1.383 . S
C11 O5 1.412 . S
C11 C10 1.383 . S
C11 C12 1.394 . S
C12 H2 0.929 . S
C12 C8 1.377 . S
C12 C11 1.394 . S
H13 C20 0.928 1_655 S
H14 C23 0.931 . S
H15 C25 0.930 1_655 S
H16 C17 0.969 . S
C17 H16 0.969 . S
C17 O18 1.550 1_456 S
C17 H19 0.973 1_455 S
O18 C17 1.550 1_654 S
O18 C24 1.407 1_655 S
H19 C17 0.973 1_655 S
C20 H13 0.928 1_455 S
C20 C21 1.398 . S
C20 C22 1.364 . S
C21 C20 1.398 . S
C21 C25 1.378 . S
C22 C20 1.364 . S
C22 C23 1.375 1_454 S
C23 H14 0.931 . S
C23 C22 1.375 1_656 S
C23 C24 1.379 1_656 S
C24 O18 1.407 1_455 S
C24 C23 1.379 1_454 S
C24 C25 1.394 . S
C25 H15 0.930 1_455 S
C25 C21 1.378 . S
C25 C24 1.394 . S
H26 C33 0.929 . S
H27 C36 0.930 . S
H28 C38 0.929 . S
H29 C30 0.969 . S
C30 H29 0.969 . S
C30 O31 1.550 1_556 S
C30 H32 0.973 . S
O31 C30 1.550 1_554 S
O31 C37 1.412 . S
H32 C30 0.973 . S
C33 H26 0.929 . S
C33 C34 1.400 . S
C33 C35 1.364 1_554 S
C34 C33 1.400 . S
C34 C38 1.377 . S
C35 C33 1.364 1_556 S
C35 C36 1.374 . S
C36 H27 0.930 . S
C36 C35 1.374 . S
C36 C37 1.383 1_556 S
C37 O31 1.412 . S
C37 C36 1.383 1_554 S
C37 C38 1.394 . S
C38 H28 0.929 . S
C38 C34 1.377 . S
C38 C37 1.394 . S
H39 C46 0.929 . S
H40 C49 0.930 1_556 S
H41 C51 0.929 . S
H42 C43 0.969 . S
C43 H42 0.969 . S
C43 O44 1.550 . S
C43 H45 0.973 1_554 S
O44 C43 1.550 . S
O44 C50 1.412 . S
H45 C43 0.973 1_556 S
C46 H39 0.929 . S
C46 C47 1.400 . S
C46 C48 1.364 . S
C47 C46 1.400 . S
C47 C51 1.377 . S
C48 C46 1.364 . S
C48 C49 1.374 . S
C49 H40 0.930 1_554 S
C49 C48 1.374 . S
C49 C50 1.383 . S
C50 O44 1.412 . S
C50 C49 1.383 . S
C50 C51 1.394 . S
C51 H41 0.929 . S
C51 C47 1.377 . S
C51 C50 1.394 . S
H52 C59 0.929 . S
H53 C62 0.930 . S
H54 C64 0.929 . S
H55 C56 0.969 . S
C56 H55 0.969 . S
C56 O57 1.550 . S
C56 H58 0.973 . S
O57 C56 1.550 . S
O57 C63 1.412 . S
H58 C56 0.973 . S
C59 H52 0.929 . S
C59 C60 1.400 1_554 S
C59 C61 1.364 . S
C60 C59 1.400 1_556 S
C60 C64 1.377 . S
C61 C59 1.364 . S
C61 C62 1.374 . S
C62 H53 0.930 . S
C62 C61 1.374 . S
C62 C63 1.383 . S
C63 O57 1.412 . S
C63 C62 1.383 . S
C63 C64 1.394 1_554 S
C64 H54 0.929 . S
C64 C60 1.377 . S
C64 C63 1.394 1_556 S
H65 C72 0.929 1_655 S
H66 C75 0.931 . S
H67 C77 0.927 1_655 S
H68 C69 0.969 . S
C69 H68 0.969 . S
C69 O70 1.550 1_455 S
C69 H71 0.973 1_455 S
O70 C69 1.550 1_655 S
O70 C76 1.412 1_655 S
H71 C69 0.973 1_655 S
C72 H65 0.929 1_455 S
C72 C73 1.401 1_554 S
C72 C74 1.364 . S
C73 C72 1.401 1_556 S
C73 C77 1.376 . S
C74 C72 1.364 . S
C74 C75 1.373 1_455 S
C75 H66 0.931 . S
C75 C74 1.373 1_655 S
C75 C76 1.383 1_655 S
C76 O70 1.412 1_455 S
C76 C75 1.383 1_455 S
C76 C77 1.395 1_554 S
C77 H67 0.927 1_455 S
C77 C73 1.376 . S
C77 C76 1.395 1_556 S
H78 C85 0.929 . S
H79 C88 0.930 . S
H80 C90 0.929 . S
H81 C82 0.969 . S
C82 H81 0.969 . S
C82 O83 1.550 . S
C82 H84 0.973 . S
O83 C82 1.550 . S
O83 C89 1.412 . S
H84 C82 0.973 . S
C85 H78 0.929 . S
C85 C86 1.400 1_554 S
C85 C87 1.364 . S
C86 C85 1.400 1_556 S
C86 C90 1.377 . S
C87 C85 1.364 . S
C87 C88 1.374 . S
C88 H79 0.930 . S
C88 C87 1.374 . S
C88 C89 1.383 . S
C89 O83 1.412 . S
C89 C88 1.383 . S
C89 C90 1.394 1_554 S
C90 H80 0.929 . S
C90 C86 1.377 . S
C90 C89 1.394 1_556 S
H91 C98 0.929 . S
H92 C101 0.930 . S
H93 C103 0.929 . S
H94 C95 0.969 . S
C95 H94 0.969 . S
C95 O96 1.550 1_554 S
C95 H97 0.973 . S
O96 C95 1.550 1_556 S
O96 C102 1.412 . S
H97 C95 0.973 . S
C98 H91 0.929 . S
C98 C99 1.400 . S
C98 C100 1.364 1_556 S
C99 C98 1.400 . S
C99 C103 1.377 . S
C100 C98 1.364 1_554 S
C100 C101 1.374 . S
C101 H92 0.930 . S
C101 C100 1.374 . S
C101 C102 1.383 1_554 S
C102 O96 1.412 . S
C102 C101 1.383 1_556 S
C102 C103 1.394 . S
C103 H93 0.929 . S
C103 C99 1.377 . S
C103 C102 1.394 . S
Dy104 O108 2.398 . S
Dy104 O109 2.491 1_455 S
Dy104 O110 2.403 . S
Dy104 O111 2.664 1_565 S
Dy104 O115 2.326 . S
Dy104 O119 2.310 1_455 S
Dy104 O120 2.351 1_565 S
C105 O116 1.185 . S
C105 O117 1.355 1_655 S
C106 O108 1.185 . S
C106 O109 1.355 1_455 S
Dy107 O111 2.310 1_655 S
Dy107 O114 2.351 1_545 S
Dy107 O116 2.398 . S
Dy107 O117 2.491 1_655 S
Dy107 O118 2.403 . S
Dy107 O119 2.664 1_545 S
Dy107 O121 2.326 . S
O108 Dy104 2.398 . S
O108 C106 1.185 . S
O109 Dy104 2.491 1_655 S
O109 C106 1.355 1_655 S
O110 Dy104 2.403 . S
O110 C112 1.254 1_565 S
O111 Dy104 2.664 1_545 S
O111 Dy107 2.310 1_455 S
O111 C112 1.268 . S
C112 O110 1.254 1_545 S
C112 O111 1.268 . S
C113 O118 1.254 1_565 S
C113 O119 1.268 . S
O114 Dy107 2.351 1_565 S
O114 C122 1.249 . S
O115 Dy104 2.326 . S
O115 C122 1.267 1_455 S
O116 C105 1.185 . S
O116 Dy107 2.398 . S
O117 C105 1.355 1_455 S
O117 Dy107 2.491 1_455 S
O118 Dy107 2.403 . S
O118 C113 1.254 1_545 S
O119 Dy104 2.310 1_655 S
O119 Dy107 2.664 1_565 S
O119 C113 1.268 . S
O120 Dy104 2.351 1_545 S
O120 C123 1.249 . S
O121 Dy107 2.326 . S
O121 C123 1.267 1_655 S
C122 O114 1.249 . S
C122 O115 1.267 1_655 S
C123 O120 1.249 . S
C123 O121 1.267 1_455 S
Dy124 O128 2.398 . S
Dy124 O129 2.491 1_565 S
Dy124 O130 2.403 . S
Dy124 O131 2.664 . S
Dy124 O135 2.326 1_565 S
Dy124 O139 2.310 1_565 S
Dy124 O140 2.351 . S
C125 O136 1.185 . S
C125 O137 1.355 1_545 S
C126 O128 1.182 . S
C126 O129 1.356 1_565 S
Dy127 O131 2.310 1_545 S
Dy127 O134 2.351 . S
Dy127 O136 2.398 . S
Dy127 O137 2.491 1_545 S
Dy127 O138 2.403 . S
Dy127 O139 2.664 . S
Dy127 O141 2.326 1_545 S
O128 Dy124 2.398 . S
O128 C126 1.182 . S
O129 Dy124 2.491 1_545 S
O129 C126 1.356 1_545 S
O130 Dy124 2.403 . S
O130 C132 1.254 . S
O131 Dy124 2.664 . S
O131 Dy127 2.310 1_565 S
O131 C132 1.268 . S
C132 O130 1.254 . S
C132 O131 1.268 . S
C133 O138 1.254 . S
C133 O139 1.268 . S
O134 Dy127 2.351 . S
O134 C142 1.249 . S
O135 Dy124 2.326 1_545 S
O135 C142 1.267 . S
O136 C125 1.185 . S
O136 Dy127 2.398 . S
O137 C125 1.355 1_565 S
O137 Dy127 2.491 1_565 S
O138 Dy127 2.403 . S
O138 C133 1.254 . S
O139 Dy124 2.310 1_545 S
O139 Dy127 2.664 . S
O139 C133 1.268 . S
O140 Dy124 2.351 . S
O140 C143 1.249 . S
O141 Dy127 2.326 1_565 S
O141 C143 1.267 . S
C142 O134 1.249 . S
C142 O135 1.267 . S
C143 O140 1.249 . S
C143 O141 1.267 . S
Dy144 O148 2.398 . S
Dy144 O149 2.491 . S
Dy144 O150 2.403 . S
Dy144 O151 2.664 . S
Dy144 O155 2.326 . S
Dy144 O159 2.310 . S
Dy144 O160 2.351 . S
C145 O156 1.185 . S
C145 O157 1.355 . S
C146 O148 1.185 . S
C146 O149 1.355 . S
Dy147 O151 2.310 . S
Dy147 O154 2.351 . S
Dy147 O156 2.398 . S
Dy147 O157 2.491 . S
Dy147 O158 2.403 . S
Dy147 O159 2.664 . S
Dy147 O161 2.326 . S
O148 Dy144 2.398 . S
O148 C146 1.185 . S
O149 Dy144 2.491 . S
O149 C146 1.355 . S
O150 Dy144 2.403 . S
O150 C152 1.254 . S
O151 Dy144 2.664 . S
O151 Dy147 2.310 . S
O151 C152 1.268 . S
C152 O150 1.254 . S
C152 O151 1.268 . S
C153 O158 1.254 . S
C153 O159 1.268 . S
O154 Dy147 2.351 . S
O154 C162 1.249 . S
O155 Dy144 2.326 . S
O155 C162 1.267 . S
O156 C145 1.185 . S
O156 Dy147 2.398 . S
O157 C145 1.355 . S
O157 Dy147 2.491 . S
O158 Dy147 2.403 . S
O158 C153 1.254 . S
O159 Dy144 2.310 . S
O159 Dy147 2.664 . S
O159 C153 1.268 . S
O160 Dy144 2.351 . S
O160 C163 1.249 . S
O161 Dy147 2.326 . S
O161 C163 1.267 . S
C162 O154 1.249 . S
C162 O155 1.267 . S
C163 O160 1.249 . S
C163 O161 1.267 . S
Dy164 O168 2.398 . S
Dy164 O169 2.491 . S
Dy164 O170 2.403 . S
Dy164 O171 2.664 1_655 S
Dy164 O175 2.326 . S
Dy164 O179 2.310 . S
Dy164 O180 2.351 1_655 S
C165 O176 1.185 . S
C165 O177 1.355 . S
C166 O168 1.185 . S
C166 O169 1.355 . S
Dy167 O171 2.310 . S
Dy167 O174 2.351 1_455 S
Dy167 O176 2.398 . S
Dy167 O177 2.491 . S
Dy167 O178 2.403 . S
Dy167 O179 2.664 1_455 S
Dy167 O181 2.326 . S
O168 Dy164 2.398 . S
O168 C166 1.185 . S
O169 Dy164 2.491 . S
O169 C166 1.355 . S
O170 Dy164 2.403 . S
O170 C172 1.254 . S
O171 Dy164 2.664 1_455 S
O171 Dy167 2.310 . S
O171 C172 1.268 1_455 S
C172 O170 1.254 . S
C172 O171 1.268 1_655 S
C173 O178 1.254 . S
C173 O179 1.268 1_455 S
O174 Dy167 2.351 1_655 S
O174 C182 1.249 . S
O175 Dy164 2.326 . S
O175 C182 1.267 . S
O176 C165 1.185 . S
O176 Dy167 2.398 . S
O177 C165 1.355 . S
O177 Dy167 2.491 . S
O178 Dy167 2.403 . S
O178 C173 1.254 . S
O179 Dy164 2.310 . S
O179 Dy167 2.664 1_655 S
O179 C173 1.268 1_655 S
O180 Dy164 2.351 1_455 S
O180 C183 1.249 . S
O181 Dy167 2.326 . S
O181 C183 1.267 . S
C182 O174 1.249 . S
C182 O175 1.267 . S
C183 O180 1.249 . S
C183 O181 1.267 . S
C184 C185 1.363 . S
C184 C190 1.379 . S
C184 N192 1.356 . S
C185 C184 1.363 . S
C185 C191 1.363 . S
C186 C187 1.363 . S
C186 C191 1.379 . S
C186 N193 1.356 1_545 S
C187 C186 1.363 . S
C187 C190 1.363 . S
N188 C190 1.356 . S
N188 H200 0.984 . S
N188 H201 0.985 . S
N189 C191 1.356 . S
N189 H194 0.984 . S
N189 H195 0.978 1_545 S
C190 C184 1.379 . S
C190 C187 1.363 . S
C190 N188 1.356 . S
C191 C185 1.363 . S
C191 C186 1.379 . S
C191 N189 1.356 . S
N192 C184 1.356 . S
N192 H198 0.984 . S
N192 H199 0.984 . S
N193 C186 1.356 1_565 S
N193 H196 0.984 . S
N193 H197 0.985 . S
H194 N189 0.984 . S
H195 N189 0.978 1_565 S
H196 N193 0.984 . S
H197 N193 0.985 . S
H198 N192 0.984 . S
H199 N192 0.984 . S
H200 N188 0.984 . S
H201 N188 0.985 . S
C202 C203 1.363 . S
C202 C208 1.379 . S
C202 N210 1.356 . S
C203 C202 1.363 . S
C203 C209 1.363 . S
C204 C205 1.363 . S
C204 C209 1.379 . S
C204 N211 1.356 . S
C205 C204 1.363 . S
C205 C208 1.363 . S
N206 C208 1.356 . S
N206 H218 0.984 . S
N206 H219 0.985 . S
N207 C209 1.356 . S
N207 H212 0.984 . S
N207 H213 0.985 . S
C208 C202 1.379 . S
C208 C205 1.363 . S
C208 N206 1.356 . S
C209 C203 1.363 . S
C209 C204 1.379 . S
C209 N207 1.356 . S
N210 C202 1.356 . S
N210 H216 0.984 . S
N210 H217 0.984 . S
N211 C204 1.356 . S
N211 H214 0.984 . S
N211 H215 0.985 . S
H212 N207 0.984 . S
H213 N207 0.985 . S
H214 N211 0.984 . S
H215 N211 0.985 . S
H216 N210 0.984 . S
H217 N210 0.984 . S
H218 N206 0.984 . S
H219 N206 0.985 . S
C220 C221 1.363 . S
C220 C226 1.379 . S
C220 N228 1.356 . S
C221 C220 1.363 . S
C221 C227 1.363 . S
C222 C223 1.363 . S
C222 C227 1.379 . S
C222 N229 1.356 . S
C223 C222 1.363 . S
C223 C226 1.363 . S
N224 C226 1.356 . S
N224 H236 0.984 . S
N224 H237 0.985 . S
N225 C227 1.356 . S
N225 H230 0.984 . S
N225 H231 0.985 . S
C226 C220 1.379 . S
C226 C223 1.363 . S
C226 N224 1.356 . S
C227 C221 1.363 . S
C227 C222 1.379 . S
C227 N225 1.356 . S
N228 C220 1.356 . S
N228 H234 0.984 . S
N228 H235 0.984 . S
N229 C222 1.356 . S
N229 H232 0.984 . S
N229 H233 0.985 . S
H230 N225 0.984 . S
H231 N225 0.985 . S
H232 N229 0.984 . S
H233 N229 0.985 . S
H234 N228 0.984 . S
H235 N228 0.984 . S
H236 N224 0.984 . S
H237 N224 0.985 . S
C238 C239 1.363 . S
C238 C244 1.379 . S
C238 N246 1.356 . S
C239 C238 1.363 . S
C239 C245 1.363 1_655 S
C240 C241 1.363 1_455 S
C240 C245 1.379 . S
C240 N247 1.356 . S
C241 C240 1.363 1_655 S
C241 C244 1.363 . S
N242 C244 1.356 . S
N242 H254 0.984 . S
N242 H255 0.985 . S
N243 C245 1.356 . S
N243 H248 0.984 . S
N243 H249 0.985 . S
C244 C238 1.379 . S
C244 C241 1.363 . S
C244 N242 1.356 . S
C245 C239 1.363 1_455 S
C245 C240 1.379 . S
C245 N243 1.356 . S
N246 C238 1.356 . S
N246 H252 0.984 . S
N246 H253 0.984 . S
N247 C240 1.356 . S
N247 H250 0.984 . S
N247 H251 0.985 . S
H248 N243 0.984 . S
H249 N243 0.985 . S
H250 N247 0.984 . S
H251 N247 0.985 . S
H252 N246 0.984 . S
H253 N246 0.984 . S
H254 N242 0.984 . S
H255 N242 0.985 . S
C256 C257 1.363 . S
C256 C262 1.379 . S
C256 N264 1.356 . S
C257 C256 1.363 . S
C257 C263 1.363 . S
C258 C259 1.363 1_545 S
C258 C263 1.379 1_545 S
C258 N265 1.356 . S
C259 C258 1.363 1_565 S
C259 C262 1.363 . S
N260 C262 1.356 . S
N260 H272 0.984 . S
N260 H273 0.985 . S
N261 C263 1.356 1_545 S
N261 H266 0.984 . S
N261 H267 0.985 . S
C262 C256 1.379 . S
C262 C259 1.363 . S
C262 N260 1.356 . S
C263 C257 1.363 . S
C263 C258 1.379 1_565 S
C263 N261 1.356 1_565 S
N264 C256 1.356 . S
N264 H270 0.984 . S
N264 H271 0.984 . S
N265 C258 1.356 . S
N265 H268 0.984 . S
N265 H269 0.985 . S
H266 N261 0.984 . S
H267 N261 0.985 . S
H268 N265 0.984 . S
H269 N265 0.985 . S
H270 N264 0.984 . S
H271 N264 0.984 . S
H272 N260 0.984 . S
H273 N260 0.985 . S
C274 C275 1.363 1_554 S
C274 C280 1.379 1_554 S
C274 N282 1.356 . S
C275 C274 1.363 1_556 S
C275 C281 1.363 . S
C276 C277 1.363 . S
C276 C281 1.379 . S
C276 N283 1.356 . S
C277 C276 1.363 . S
C277 C280 1.363 . S
N278 C280 1.356 . S
N278 H290 0.984 . S
N278 H291 0.985 . S
N279 C281 1.356 . S
N279 H284 0.984 . S
N279 H285 0.985 . S
C280 C274 1.379 1_556 S
C280 C277 1.363 . S
C280 N278 1.356 . S
C281 C275 1.363 . S
C281 C276 1.379 . S
C281 N279 1.356 . S
N282 C274 1.356 . S
N282 H288 0.984 . S
N282 H289 0.984 . S
N283 C276 1.356 . S
N283 H286 0.984 . S
N283 H287 0.985 . S
H284 N279 0.984 . S
H285 N279 0.985 . S
H286 N283 0.984 . S
H287 N283 0.985 . S
H288 N282 0.984 . S
H289 N282 0.984 . S
H290 N278 0.984 . S
H291 N278 0.985 . S
C292 C293 1.363 . S
C292 C298 1.379 . S
C292 N300 1.356 . S
C293 C292 1.363 . S
C293 C299 1.363 . S
C294 C295 1.363 . S
C294 C299 1.379 . S
C294 N301 1.356 . S
C295 C294 1.363 . S
C295 C298 1.363 . S
N296 C298 1.356 . S
N296 H308 0.984 . S
N296 H309 0.985 . S
N297 C299 1.356 1_554 S
N297 H302 0.984 . S
N297 H303 0.985 . S
C298 C292 1.379 . S
C298 C295 1.363 . S
C298 N296 1.356 . S
C299 C293 1.363 . S
C299 C294 1.379 . S
C299 N297 1.356 1_556 S
N300 C292 1.356 . S
N300 H306 0.984 . S
N300 H307 0.984 . S
N301 C294 1.356 . S
N301 H304 0.984 . S
N301 H305 0.985 . S
H302 N297 0.984 . S
H303 N297 0.985 . S
H304 N301 0.984 . S
H305 N301 0.985 . S
H306 N300 0.984 . S
H307 N300 0.984 . S
H308 N296 0.984 . S
H309 N296 0.985 . S
C310 C311 1.364 . S
C310 C316 1.379 . S
C310 N318 1.356 1_556 S
C311 C310 1.364 . S
C311 C317 1.362 1_455 S
C312 C313 1.363 1_655 S
C312 C317 1.379 . S
C312 N319 1.356 . S
C313 C312 1.363 1_455 S
C313 C316 1.363 . S
N314 C316 1.356 . S
N314 H326 0.984 . S
N314 H327 0.985 . S
N315 C317 1.356 . S
N315 H320 0.984 . S
N315 H321 0.985 . S
C316 C310 1.379 . S
C316 C313 1.363 . S
C316 N314 1.356 . S
C317 C311 1.362 1_655 S
C317 C312 1.379 . S
C317 N315 1.356 . S
N318 C310 1.356 1_554 S
N318 H324 0.984 . S
N318 H325 0.984 . S
N319 C312 1.356 . S
N319 H322 0.984 . S
N319 H323 0.985 . S
H320 N315 0.984 . S
H321 N315 0.985 . S
H322 N319 0.984 . S
H323 N319 0.985 . S
H324 N318 0.984 . S
H325 N318 0.984 . S
H326 N314 0.984 . S
H327 N314 0.985 . S
C328 C329 1.365 . S
C328 C334 1.382 . S
C328 N336 1.352 1_655 S
C329 C328 1.365 . S
C329 C335 1.363 . S
C330 C331 1.363 . S
C330 C335 1.379 . S
C330 N337 1.356 . S
C331 C330 1.363 . S
C331 C334 1.363 . S
N332 C334 1.356 . S
N332 H344 0.984 . S
N332 H345 0.985 . S
N333 C335 1.356 . S
N333 H338 0.984 . S
N333 H339 0.985 1_554 S
C334 C328 1.382 . S
C334 C331 1.363 . S
C334 N332 1.356 . S
C335 C329 1.363 . S
C335 C330 1.379 . S
C335 N333 1.356 . S
N336 C328 1.352 1_455 S
N336 H342 0.984 . S
N336 H343 0.984 . S
N337 C330 1.356 . S
N337 H340 0.984 . S
N337 H341 0.985 . S
H338 N333 0.984 . S
H339 N333 0.985 1_556 S
H340 N337 0.984 . S
H341 N337 0.985 . S
H342 N336 0.984 . S
H343 N336 0.984 . S
H344 N332 0.984 . S
H345 N332 0.985 . S
C346 C347 1.363 . S
C346 C352 1.379 . S
C346 N354 1.356 . S
C347 C346 1.363 . S
C347 C353 1.363 . S
C348 C349 1.366 . S
C348 C353 1.389 . S
C348 N355 1.342 1_545 S
C349 C348 1.366 . S
C349 C352 1.363 . S
N350 C352 1.356 . S
N350 H362 0.984 . S
N350 H363 0.985 . S
N351 C353 1.356 . S
N351 H356 0.984 . S
N351 H357 0.985 1_544 S
C352 C346 1.379 . S
C352 C349 1.363 . S
C352 N350 1.356 . S
C353 C347 1.363 . S
C353 C348 1.389 . S
C353 N351 1.356 . S
N354 C346 1.356 . S
N354 H360 0.984 . S
N354 H361 0.984 . S
N355 C348 1.342 1_565 S
N355 H358 0.984 . S
N355 H359 0.985 . S
H356 N351 0.984 . S
H357 N351 0.985 1_566 S
H358 N355 0.984 . S
H359 N355 0.985 . S
H360 N354 0.984 . S
H361 N354 0.984 . S
H362 N350 0.984 . S
H363 N350 0.985 . S
C364 C365 1.363 . S
C364 C370 1.379 . S
C364 N372 1.356 1_554 S
C365 C364 1.363 . S
C365 C371 1.363 . S
C366 C367 1.363 . S
C366 C371 1.379 . S
C366 N373 1.356 . S
C367 C366 1.363 . S
C367 C370 1.363 . S
N368 C370 1.356 . S
N368 H380 0.984 . S
N368 H381 0.985 . S
N369 C371 1.356 . S
N369 H374 0.984 . S
N369 H375 0.985 . S
C370 C364 1.379 . S
C370 C367 1.363 . S
C370 N368 1.356 . S
C371 C365 1.363 . S
C371 C366 1.379 . S
C371 N369 1.356 . S
N372 C364 1.356 1_556 S
N372 H378 0.984 . S
N372 H379 0.984 . S
N373 C366 1.356 . S
N373 H376 0.984 . S
N373 H377 0.985 . S
H374 N369 0.984 . S
H375 N369 0.985 . S
H376 N373 0.984 . S
H377 N373 0.985 . S
H378 N372 0.984 . S
H379 N372 0.984 . S
H380 N368 0.984 . S
H381 N368 0.985 . S
C382 C383 1.363 . S
C382 C388 1.379 . S
C382 N390 1.356 . S
C383 C382 1.363 . S
C383 C389 1.363 . S
C384 C385 1.363 . S
C384 C389 1.379 . S
C384 N391 1.356 . S
C385 C384 1.363 . S
C385 C388 1.363 . S
N386 C388 1.356 . S
N386 H398 0.984 . S
N386 H399 0.985 . S
N387 C389 1.356 . S
N387 H392 0.984 . S
N387 H393 0.985 1_554 S
C388 C382 1.379 . S
C388 C385 1.363 . S
C388 N386 1.356 . S
C389 C383 1.363 . S
C389 C384 1.379 . S
C389 N387 1.356 . S
N390 C382 1.356 . S
N390 H396 0.984 . S
N390 H397 0.984 . S
N391 C384 1.356 . S
N391 H394 0.984 . S
N391 H395 0.985 . S
H392 N387 0.984 . S
H393 N387 0.985 1_556 S
H394 N391 0.984 . S
H395 N391 0.985 . S
H396 N390 0.984 . S
H397 N390 0.984 . S
H398 N386 0.984 . S
H399 N386 0.985 . S
C400 C401 1.363 1_655 S
C400 C406 1.380 . S
C400 N408 1.356 1_556 S
C401 C400 1.363 1_455 S
C401 C407 1.363 . S
C402 C403 1.363 . S
C402 C407 1.379 . S
C402 N409 1.356 . S
C403 C402 1.363 . S
C403 C406 1.356 1_455 S
N404 C406 1.360 . S
N404 H416 0.984 1_556 S
N404 H417 0.985 1_655 S
N405 C407 1.356 . S
N405 H410 0.984 . S
N405 H411 0.985 . S
C406 C400 1.380 . S
C406 C403 1.356 1_655 S
C406 N404 1.360 . S
C407 C401 1.363 . S
C407 C402 1.379 . S
C407 N405 1.356 . S
N408 C400 1.356 1_554 S
N408 H414 0.984 . S
N408 H415 0.984 . S
N409 C402 1.356 . S
N409 H412 0.984 . S
N409 H413 0.985 . S
H410 N405 0.984 . S
H411 N405 0.985 . S
H412 N409 0.984 . S
H413 N409 0.985 . S
H414 N408 0.984 . S
H415 N408 0.984 . S
H416 N404 0.984 1_554 S
H417 N404 0.985 1_455 S
C418 C419 1.363 . S
C418 C424 1.379 . S
C418 N426 1.356 . S
C419 C418 1.363 . S
C419 C425 1.363 1_556 S
C420 C421 1.363 1_554 S
C420 C425 1.379 . S
C420 N427 1.356 1_565 S
C421 C420 1.363 1_556 S
C421 C424 1.363 . S
N422 C424 1.356 . S
N422 H434 0.984 . S
N422 H435 0.975 1_565 S
N423 C425 1.356 . S
N423 H428 0.984 . S
N423 H429 0.985 . S
C424 C418 1.379 . S
C424 C421 1.363 . S
C424 N422 1.356 . S
C425 C419 1.363 1_554 S
C425 C420 1.379 . S
C425 N423 1.356 . S
N426 C418 1.356 . S
N426 H432 0.984 . S
N426 H433 0.984 . S
N427 C420 1.356 1_545 S
N427 H430 0.984 . S
N427 H431 0.985 . S
H428 N423 0.984 . S
H429 N423 0.985 . S
H430 N427 0.984 . S
H431 N427 0.985 . S
H432 N426 0.984 . S
H433 N426 0.984 . S
H434 N422 0.984 . S
H435 N422 0.975 1_545 S
C436 C437 1.363 1_554 S
C436 C442 1.379 1_554 S
C436 N444 1.356 . S
C437 C436 1.363 1_556 S
C437 C443 1.363 . S
C438 C439 1.363 . S
C438 C443 1.379 . S
C438 N445 1.356 . S
C439 C438 1.363 . S
C439 C442 1.363 . S
N440 C442 1.356 . S
N440 H452 0.984 1_556 S
N440 H453 0.985 . S
N441 C443 1.356 . S
N441 H446 0.984 . S
N441 H447 0.985 . S
C442 C436 1.379 1_556 S
C442 C439 1.363 . S
C442 N440 1.356 . S
C443 C437 1.363 . S
C443 C438 1.379 . S
C443 N441 1.356 . S
N444 C436 1.356 . S
N444 H450 0.984 . S
N444 H451 0.984 . S
N445 C438 1.356 . S
N445 H448 0.984 . S
N445 H449 0.985 . S
H446 N441 0.984 . S
H447 N441 0.985 . S
H448 N445 0.984 . S
H449 N445 0.985 . S
H450 N444 0.984 . S
H451 N444 0.984 . S
H452 N440 0.984 1_554 S
H453 N440 0.985 . S
C454 C455 1.363 . S
C454 C460 1.379 . S
C454 N462 1.356 . S
C455 C454 1.363 . S
C455 C461 1.363 1_556 S
C456 C457 1.363 . S
C456 C461 1.379 1_556 S
C456 N463 1.356 . S
C457 C456 1.363 . S
C457 C460 1.363 . S
N458 C460 1.356 . S
N458 H470 0.984 . S
N458 H471 0.985 . S
N459 C461 1.356 . S
N459 H464 0.984 . S
N459 H465 0.985 . S
C460 C454 1.379 . S
C460 C457 1.363 . S
C460 N458 1.356 . S
C461 C455 1.363 1_554 S
C461 C456 1.379 1_554 S
C461 N459 1.356 . S
N462 C454 1.356 . S
N462 H468 0.984 . S
N462 H469 0.984 . S
N463 C456 1.356 . S
N463 H466 0.984 . S
N463 H467 0.985 1_556 S
H464 N459 0.984 . S
H465 N459 0.985 . S
H466 N463 0.984 . S
H467 N463 0.985 1_554 S
H468 N462 0.984 . S
H469 N462 0.984 . S
H470 N458 0.984 . S
H471 N458 0.985 . S
C472 C473 1.363 . S
C472 C478 1.379 . S
C472 N480 1.356 . S
C473 C472 1.363 . S
C473 C479 1.363 1_455 S
C474 C475 1.363 1_655 S
C474 C479 1.379 . S
C474 N481 1.356 . S
C475 C474 1.363 1_455 S
C475 C478 1.363 . S
N476 C478 1.356 . S
N476 H488 0.984 . S
N476 H489 0.985 . S
N477 C479 1.356 . S
N477 H482 0.984 . S
N477 H483 0.985 . S
C478 C472 1.379 . S
C478 C475 1.363 . S
C478 N476 1.356 . S
C479 C473 1.363 1_655 S
C479 C474 1.379 . S
C479 N477 1.356 . S
N480 C472 1.356 . S
N480 H486 0.984 1_556 S
N480 H487 0.984 . S
N481 C474 1.356 . S
N481 H484 0.984 . S
N481 H485 0.985 . S
H482 N477 0.984 . S
H483 N477 0.985 . S
H484 N481 0.984 . S
H485 N481 0.985 . S
H486 N480 0.984 1_554 S
H487 N480 0.984 . S
H488 N476 0.984 . S
H489 N476 0.985 . S
C490 C491 1.363 . S
C490 C496 1.379 . S
C490 N498 1.356 . S
C491 C490 1.363 . S
C491 C497 1.363 . S
C492 C493 1.363 . S
C492 C497 1.379 . S
C492 N499 1.356 . S
C493 C492 1.363 . S
C493 C496 1.363 . S
N494 C496 1.356 . S
N494 H506 0.984 . S
N494 H507 0.985 . S
N495 C497 1.356 1_554 S
N495 H500 0.984 . S
N495 H501 0.985 . S
C496 C490 1.379 . S
C496 C493 1.363 . S
C496 N494 1.356 . S
C497 C491 1.363 . S
C497 C492 1.379 . S
C497 N495 1.356 1_556 S
N498 C490 1.356 . S
N498 H504 0.984 . S
N498 H505 0.984 . S
N499 C492 1.356 . S
N499 H502 0.984 . S
N499 H503 0.985 1_556 S
H500 N495 0.984 . S
H501 N495 0.985 . S
H502 N499 0.984 . S
H503 N499 0.985 1_554 S
H504 N498 0.984 . S
H505 N498 0.984 . S
H506 N494 0.984 . S
H507 N494 0.985 . S
C508 C509 1.363 . S
C508 C514 1.379 . S
C508 N516 1.356 . S
C509 C508 1.363 . S
C509 C515 1.363 . S
C510 C511 1.363 . S
C510 C515 1.379 . S
C510 N517 1.356 . S
C511 C510 1.363 . S
C511 C514 1.363 . S
N512 C514 1.356 . S
N512 H524 0.984 . S
N512 H525 0.985 . S
N513 C515 1.356 . S
N513 H518 0.984 . S
N513 H519 0.985 1_556 S
C514 C508 1.379 . S
C514 C511 1.363 . S
C514 N512 1.356 . S
C515 C509 1.363 . S
C515 C510 1.379 . S
C515 N513 1.356 . S
N516 C508 1.356 . S
N516 H522 0.984 . S
N516 H523 0.984 . S
N517 C510 1.356 . S
N517 H520 0.984 . S
N517 H521 0.985 . S
H518 N513 0.984 . S
H519 N513 0.985 1_554 S
H520 N517 0.984 . S
H521 N517 0.985 . S
H522 N516 0.984 . S
H523 N516 0.984 . S
H524 N512 0.984 . S
H525 N512 0.985 . S
C526 C527 1.363 . S
C526 C532 1.379 . S
C526 N534 1.356 . S
C527 C526 1.363 . S
C527 C533 1.363 . S
C528 C529 1.363 . S
C528 C533 1.379 . S
C528 N535 1.356 . S
C529 C528 1.363 . S
C529 C532 1.363 . S
N530 C532 1.356 . S
N530 H542 0.984 . S
N530 H543 0.985 . S
N531 C533 1.357 . S
N531 H536 0.984 . S
N531 H537 0.983 1_556 S
C532 C526 1.379 . S
C532 C529 1.363 . S
C532 N530 1.356 . S
C533 C527 1.363 . S
C533 C528 1.379 . S
C533 N531 1.357 . S
N534 C526 1.356 . S
N534 H540 0.984 . S
N534 H541 0.984 . S
N535 C528 1.356 . S
N535 H538 0.984 . S
N535 H539 0.985 1_556 S
H536 N531 0.984 . S
H537 N531 0.983 1_554 S
H538 N535 0.984 . S
H539 N535 0.985 1_554 S
H540 N534 0.984 . S
H541 N534 0.984 . S
H542 N530 0.984 . S
H543 N530 0.985 . S
C544 C545 1.363 1_455 S
C544 C550 1.379 . S
C544 N552 1.356 . S
C545 C544 1.363 1_655 S
C545 C551 1.363 . S
C546 C547 1.363 . S
C546 C551 1.379 . S
C546 N553 1.356 . S
C547 C546 1.363 . S
C547 C550 1.363 1_655 S
N548 C550 1.356 . S
N548 H560 0.984 . S
N548 H561 0.985 . S
N549 C551 1.356 . S
N549 H554 0.984 . S
N549 H555 0.985 . S
C550 C544 1.379 . S
C550 C547 1.363 1_455 S
C550 N548 1.356 . S
C551 C545 1.363 . S
C551 C546 1.379 . S
C551 N549 1.356 . S
N552 C544 1.356 . S
N552 H558 0.984 . S
N552 H559 0.984 . S
N553 C546 1.356 . S
N553 H556 0.984 . S
N553 H557 0.985 . S
H554 N549 0.984 . S
H555 N549 0.985 . S
H556 N553 0.984 . S
H557 N553 0.985 . S
H558 N552 0.984 . S
H559 N552 0.984 . S
H560 N548 0.984 . S
H561 N548 0.985 . S
C562 C563 1.363 . S
C562 C568 1.379 . S
C562 N570 1.356 . S
C563 C562 1.363 . S
C563 C569 1.363 . S
C564 C565 1.363 . S
C564 C569 1.379 . S
C564 N571 1.356 1_565 S
C565 C564 1.363 . S
C565 C568 1.363 . S
N566 C568 1.356 . S
N566 H578 0.984 . S
N566 H579 0.985 . S
N567 C569 1.360 . S
N567 H572 0.993 . S
N567 H573 0.973 1_565 S
C568 C562 1.379 . S
C568 C565 1.363 . S
C568 N566 1.356 . S
C569 C563 1.363 . S
C569 C564 1.379 . S
C569 N567 1.360 . S
N570 C562 1.356 . S
N570 H576 0.984 . S
N570 H577 0.984 . S
N571 C564 1.356 1_545 S
N571 H574 0.984 . S
N571 H575 0.985 . S
H572 N567 0.993 . S
H573 N567 0.973 1_545 S
H574 N571 0.984 . S
H575 N571 0.985 . S
H576 N570 0.984 . S
H577 N570 0.984 . S
H578 N566 0.984 . S
H579 N566 0.985 . S
C580 C581 1.363 . S
C580 C586 1.379 . S
C580 N588 1.356 . S
C581 C580 1.363 . S
C581 C587 1.363 . S
C582 C583 1.363 . S
C582 C587 1.379 . S
C582 N589 1.356 . S
C583 C582 1.363 . S
C583 C586 1.363 . S
N584 C586 1.356 . S
N584 H596 0.984 . S
N584 H597 0.985 . S
N585 C587 1.356 . S
N585 H590 0.984 . S
N585 H591 0.985 . S
C586 C580 1.379 . S
C586 C583 1.363 . S
C586 N584 1.356 . S
C587 C581 1.363 . S
C587 C582 1.379 . S
C587 N585 1.356 . S
N588 C580 1.356 . S
N588 H594 0.984 . S
N588 H595 0.984 . S
N589 C582 1.356 . S
N589 H592 0.984 . S
N589 H593 0.985 . S
H590 N585 0.984 . S
H591 N585 0.985 . S
H592 N589 0.984 . S
H593 N589 0.985 . S
H594 N588 0.984 . S
H595 N588 0.984 . S
H596 N584 0.984 . S
H597 N584 0.985 . S
C598 C599 1.363 . S
C598 C604 1.379 . S
C598 N606 1.356 . S
C599 C598 1.363 . S
C599 C605 1.363 . S
C600 C601 1.363 . S
C600 C605 1.379 . S
C600 N607 1.356 . S
C601 C600 1.363 . S
C601 C604 1.363 . S
N602 C604 1.356 . S
N602 H614 0.984 . S
N602 H615 0.985 . S
N603 C605 1.356 . S
N603 H608 0.984 . S
N603 H609 0.985 . S
C604 C598 1.379 . S
C604 C601 1.363 . S
C604 N602 1.356 . S
C605 C599 1.363 . S
C605 C600 1.379 . S
C605 N603 1.356 . S
N606 C598 1.356 . S
N606 H612 0.984 . S
N606 H613 0.984 . S
N607 C600 1.356 . S
N607 H610 0.984 . S
N607 H611 0.985 . S
H608 N603 0.984 . S
H609 N603 0.985 . S
H610 N607 0.984 . S
H611 N607 0.985 . S
H612 N606 0.984 . S
H613 N606 0.984 . S
H614 N602 0.984 . S
H615 N602 0.985 . S
C185 C82 1.560 . S
C187 C112 1.736 . S
C205 C142 1.800 . S
C203 C95 1.613 . S
C223 C152 1.657 . S
C221 C56 1.410 . S
C241 C172 1.534 . S
C239 C69 1.330 1_655 S
C259 C113 1.739 . S
C257 C30 1.504 . S
C275 C43 1.560 1_556 S
C277 C143 1.800 . S
C293 C4 1.406 1_556 S
C295 C153 1.656 . S
C311 C17 1.328 . S
C313 C173 1.535 . S
C331 C105 1.037 . S
C329 C74 1.021 1_655 S
C349 C126 0.913 1_545 S
C347 C87 0.878 . S
C367 C145 1.173 . S
C365 C100 1.154 . S
C383 C61 0.950 . S
C385 C165 0.957 . S
C401 C22 1.019 1_556 S
C403 C106 1.037 . S
C421 C125 0.911 1_565 S
C419 C35 0.876 . S
C439 C146 1.173 . S
C437 C48 1.151 1_556 S
C455 C9 0.949 1_556 S
C457 C166 0.963 . S
C473 C73 1.549 . S
C475 C123 1.669 . S
C491 C86 1.479 . S
C493 C133 1.647 . S
C511 C163 1.844 . S
C509 C99 1.688 . S
C529 C183 1.825 . S
C527 C60 1.684 . S
C545 C21 1.548 1_655 S
C547 C122 1.670 . S
C565 C132 1.647 . S
C563 C34 1.474 . S
C583 C162 1.844 . S
C581 C47 1.686 . S
C599 C8 1.689 . S
C601 C182 1.828 . S
