# Generated by pormake.
# Topology rtl, (3,6)-cn, num edge types: 1
# Building blocks:
#     Node 0, Type 0, BuildingBlock: MIDCAF_clean_linker_0, # of connection points: 3
#     Node 1, Type 0, BuildingBlock: MIDCAF_clean_linker_0, # of connection points: 3
#     Node 2, Type 0, BuildingBlock: MIDCAF_clean_linker_0, # of connection points: 3
#     Node 3, Type 0, BuildingBlock: MIDCAF_clean_linker_0, # of connection points: 3
#     Node 4, Type 1, BuildingBlock: FUNLAD_clean_sbu_0, # of connection points: 6
#     Node 5, Type 1, BuildingBlock: FUNLAD_clean_sbu_0, # of connection points: 6
#     Edge 6, Type (0, 1), BuildingBlock: CIFDUS_clean_linker_0, # of connection points: 2
#     Edge 7, Type (0, 1), BuildingBlock: CIFDUS_clean_linker_0, # of connection points: 2
#     Edge 8, Type (0, 1), BuildingBlock: CIFDUS_clean_linker_0, # of connection points: 2
#     Edge 9, Type (0, 1), BuildingBlock: CIFDUS_clean_linker_0, # of connection points: 2
#     Edge 10, Type (0, 1), BuildingBlock: CIFDUS_clean_linker_0, # of connection points: 2
#     Edge 11, Type (0, 1), BuildingBlock: CIFDUS_clean_linker_0, # of connection points: 2
#     Edge 12, Type (0, 1), BuildingBlock: CIFDUS_clean_linker_0, # of connection points: 2
#     Edge 13, Type (0, 1), BuildingBlock: CIFDUS_clean_linker_0, # of connection points: 2
#     Edge 14, Type (0, 1), BuildingBlock: CIFDUS_clean_linker_0, # of connection points: 2
#     Edge 15, Type (0, 1), BuildingBlock: CIFDUS_clean_linker_0, # of connection points: 2
#     Edge 16, Type (0, 1), BuildingBlock: CIFDUS_clean_linker_0, # of connection points: 2
#     Edge 17, Type (0, 1), BuildingBlock: CIFDUS_clean_linker_0, # of connection points: 2
# Relax obj value: 0.027
# Max RMSD: 0.100
# Mean RMSD: 0.084
data_MOF--net-rtl--node1-FUNLAD_clean_sbu_0--node2-MIDCAF_clean_linker_0--edge1-CIFDUS_clean_linker_0
_symmetry_space_group_name_H-M    P1
_symmetry_Int_Tables_number       1
_symmetry_cell_setting            triclinic
loop_
_symmetry_equiv_pos_as_xyz
'x, y, z'
_cell_length_a     44.513857
_cell_length_b     35.863797
_cell_length_c     25.3584
_cell_angle_alpha  89.613417
_cell_angle_beta   90.576748
_cell_angle_gamma 89.366705
loop_
_atom_site_label
_atom_site_type_symbol
_atom_site_fract_x
_atom_site_fract_y
_atom_site_fract_z
_atom_type_partial_charge
C0 C 0.05176 0.79445 0.16638 0.0
C1 C 0.06948 0.81865 0.19702 0.0
C2 C 0.10006 0.82243 0.18401 0.0
C3 C 0.11221 0.80351 0.14106 0.0
H4 H 0.17693 0.70736 0.0925 0.0
H5 H 0.22508 0.67432 0.08779 0.0
H6 H 0.22318 0.68519 0.91813 0.0
H7 H 0.17539 0.71839 0.92249 0.0
H8 H 0.12646 0.76742 0.86715 0.0
H9 H 0.1055 0.79744 0.78824 0.0
H10 H 0.02565 0.8275 0.87406 0.0
H11 H 0.0464 0.79744 0.95308 0.0
H12 H 0.04925 0.75952 0.09811 0.0
H13 H 0.02845 0.78964 0.17565 0.0
H14 H 0.11451 0.84123 0.20538 0.0
H15 H 0.13551 0.80795 0.13098 0.0
N16 N 0.13184 0.74757 0.05741 0.0
N17 N 0.1287 0.74673 0.96499 0.0
N18 N 0.09087 0.77611 0.0135 0.0
C19 C 0.14339 0.73682 0.01032 0.0
C20 C 0.10246 0.76635 0.9662 0.0
C21 C 0.10542 0.76686 0.05906 0.0
C22 C 0.17225 0.71579 0.00792 0.0
C23 C 0.18672 0.70268 0.05415 0.0
C24 C 0.21422 0.68352 0.05149 0.0
C25 C 0.22795 0.67729 0.00261 0.0
C26 C 0.21334 0.68998 0.95643 0.0
C27 C 0.18582 0.70889 0.95901 0.0
C28 C 0.08824 0.78029 0.91668 0.0
C29 C 0.10424 0.77991 0.86913 0.0
C30 C 0.09234 0.79729 0.82395 0.0
C31 C 0.06408 0.81505 0.82519 0.0
C32 C 0.04743 0.81386 0.87191 0.0
C33 C 0.05943 0.7968 0.91725 0.0
C34 C 0.09393 0.78132 0.10914 0.0
C35 C 0.06372 0.77664 0.12231 0.0
C36 C 0.55821 0.69083 0.37016 0.0
C37 C 0.57876 0.68188 0.33007 0.0
C38 C 0.6093 0.68993 0.33825 0.0
C39 C 0.61903 0.70641 0.38483 0.0
H40 H 0.67851 0.78498 0.43323 0.0
H41 H 0.7274 0.81409 0.42997 0.0
H42 H 0.73132 0.81604 0.60014 0.0
H43 H 0.682 0.78706 0.60384 0.0
H44 H 0.63397 0.74265 0.66672 0.0
H45 H 0.61931 0.71277 0.7488 0.0
H46 H 0.54586 0.6592 0.66797 0.0
H47 H 0.56022 0.68924 0.58568 0.0
H48 H 0.55197 0.71266 0.44802 0.0
H49 H 0.53444 0.68576 0.36511 0.0
H50 H 0.62605 0.6826 0.30936 0.0
H51 H 0.64279 0.71173 0.38988 0.0
N52 N 0.63502 0.75096 0.47485 0.0
N53 N 0.63516 0.75305 0.56698 0.0
N54 N 0.59738 0.7205 0.52192 0.0
C55 C 0.64768 0.76289 0.52039 0.0
C56 C 0.60994 0.73198 0.56814 0.0
C57 C 0.6099 0.73001 0.47515 0.0
C58 C 0.67634 0.78337 0.51887 0.0
C59 C 0.68959 0.79173 0.47012 0.0
C60 C 0.71773 0.80822 0.46813 0.0
C61 C 0.73328 0.81689 0.51477 0.0
C62 C 0.71974 0.80972 0.56356 0.0
C63 C 0.69153 0.79305 0.56562 0.0
C64 C 0.59852 0.71801 0.61925 0.0
C65 C 0.61441 0.72495 0.66637 0.0
C66 C 0.60614 0.70771 0.71347 0.0
C67 C 0.58167 0.68336 0.71465 0.0
C68 C 0.56475 0.67799 0.6683 0.0
C69 C 0.57311 0.69508 0.62106 0.0
C70 C 0.59865 0.71443 0.42518 0.0
C71 C 0.56815 0.70649 0.41757 0.0
C72 C 0.94867 0.17505 0.8648 0.0
C73 C 0.94404 0.19274 0.81592 0.0
C74 C 0.92962 0.22774 0.8139 0.0
C75 C 0.91902 0.24419 0.86024 0.0
H76 H 0.84674 0.3082 0.91477 0.0
H77 H 0.79927 0.34237 0.91049 0.0
H78 H 0.79437 0.3402 0.08044 0.0
H79 H 0.84212 0.30637 0.08509 0.0
H80 H 0.90466 0.26956 0.15162 0.0
H81 H 0.92165 0.2397 0.23452 0.0
H82 H 0.9528 0.1441 0.14754 0.0
H83 H 0.93664 0.17366 0.06532 0.0
H84 H 0.94226 0.17686 0.94791 0.0
H85 H 0.95984 0.14807 0.86717 0.0
H86 H 0.92577 0.24174 0.77641 0.0
H87 H 0.90737 0.27082 0.85764 0.0
N88 N 0.88801 0.26722 0.95707 0.0
N89 N 0.88599 0.26622 0.04971 0.0
N90 N 0.92108 0.22889 0.00569 0.0
C91 C 0.87534 0.27951 0.00254 0.0
C92 C 0.90896 0.24093 0.05143 0.0
C93 C 0.91098 0.24198 0.95844 0.0
C94 C 0.84823 0.30408 0.0003 0.0
C95 C 0.83581 0.31529 0.95139 0.0
C96 C 0.80846 0.33475 0.94883 0.0
C97 C 0.79287 0.34362 0.99508 0.0
C98 C 0.8059 0.33396 0.04409 0.0
C99 C 0.83325 0.31439 0.04669 0.0
C100 C 0.91933 0.22401 0.10192 0.0
C101 C 0.91524 0.24224 0.15032 0.0
C102 C 0.92502 0.22533 0.19757 0.0
C103 C 0.93837 0.18966 0.19707 0.0
C104 C 0.94243 0.17156 0.14882 0.0
C105 C 0.93327 0.18863 0.10178 0.0
C106 C 0.92328 0.22615 0.90926 0.0
C107 C 0.93865 0.19167 0.91099 0.0
C108 C 0.44564 0.33335 0.6587 0.0
C109 C 0.42983 0.32844 0.70586 0.0
C110 C 0.40586 0.30336 0.70701 0.0
C111 C 0.39701 0.28475 0.66138 0.0
H112 H 0.3305 0.22038 0.60614 0.0
H113 H 0.28175 0.19054 0.60844 0.0
H114 H 0.28009 0.18611 0.43828 0.0
H115 H 0.32911 0.2155 0.43565 0.0
H116 H 0.37604 0.26087 0.37197 0.0
H117 H 0.39155 0.28944 0.28937 0.0
H118 H 0.46435 0.344 0.37076 0.0
H119 H 0.44926 0.31517 0.45326 0.0
H120 H 0.44878 0.32023 0.57682 0.0
H121 H 0.46412 0.35268 0.65661 0.0
H122 H 0.39357 0.29862 0.74306 0.0
H123 H 0.37791 0.26638 0.66351 0.0
N124 N 0.37508 0.25352 0.56462 0.0
N125 N 0.3746 0.25117 0.47236 0.0
N126 N 0.41206 0.28448 0.51669 0.0
C127 C 0.3623 0.24137 0.51917 0.0
C128 C 0.39958 0.27257 0.47076 0.0
C129 C 0.40001 0.27495 0.56382 0.0
C130 C 0.33375 0.22058 0.52066 0.0
C131 C 0.31994 0.21285 0.56912 0.0
C132 C 0.29187 0.19596 0.57052 0.0
C133 C 0.277 0.1863 0.52355 0.0
C134 C 0.29111 0.19302 0.47515 0.0
C135 C 0.31918 0.21 0.4737 0.0
C136 C 0.41117 0.28604 0.41954 0.0
C137 C 0.39563 0.27852 0.37227 0.0
C138 C 0.4044 0.29501 0.3249 0.0
C139 C 0.42898 0.31921 0.32368 0.0
C140 C 0.44544 0.32525 0.37035 0.0
C141 C 0.43663 0.30887 0.41776 0.0
C142 C 0.41185 0.29099 0.61344 0.0
C143 C 0.43673 0.31485 0.61292 0.0
C144 C 0.0245 0.95307 0.43472 0.0
N145 N 0.06645 0.04367 0.5066 0.0
C146 C 0.09151 0.02161 0.50625 0.0
C147 C 0.11989 0.0374 0.50318 0.0
C148 C 0.12256 0.0763 0.50073 0.0
C149 C 0.09636 0.09849 0.50163 0.0
C150 C 0.06834 0.08148 0.50443 0.0
Zn151 Zn 0.0258 0.01839 0.50933 0.0
C152 C 0.98227 0.04916 0.43059 0.0
N153 N 0.94262 0.96181 0.51319 0.0
C154 C 0.94107 0.92399 0.51577 0.0
C155 C 0.91746 0.98361 0.51525 0.0
C156 C 0.88933 0.9675 0.5208 0.0
C157 C 0.88706 0.92858 0.52409 0.0
C158 C 0.91334 0.90668 0.52114 0.0
Zn159 Zn 0.98309 0.98718 0.50968 0.0
O160 O 0.04082 0.97905 0.45254 0.0
C161 C 0.02628 0.95602 0.58822 0.0
O162 O 0.99779 0.94974 0.45105 0.0
H163 H 0.91922 0.01362 0.51309 0.0
H164 H 0.08952 0.99161 0.50828 0.0
H165 H 0.96141 0.90726 0.51435 0.0
O166 O 0.04203 0.98263 0.57069 0.0
O167 O 0.00013 0.95112 0.56925 0.0
H168 H 0.0481 0.09844 0.5046 0.0
O169 O 0.96886 0.02472 0.56856 0.0
O170 O 0.01037 0.05703 0.56647 0.0
O171 O 0.96651 0.02322 0.44991 0.0
O172 O 0.00884 0.05398 0.44794 0.0
C173 C 0.98441 0.05173 0.58532 0.0
H174 H 0.13956 0.01935 0.50336 0.0
H175 H 0.09751 0.12861 0.49942 0.0
H176 H 0.86955 0.98531 0.52214 0.0
H177 H 0.91252 0.87656 0.52393 0.0
C178 C 0.49367 0.45337 0.93974 0.0
N179 N 0.57455 0.47359 0.02116 0.0
C180 C 0.58007 0.4363 0.01778 0.0
C181 C 0.60954 0.42255 0.01788 0.0
C182 C 0.63364 0.44736 0.02177 0.0
C183 C 0.62731 0.48571 0.02547 0.0
C184 C 0.59747 0.4983 0.0249 0.0
Zn185 Zn 0.53087 0.49229 0.02078 0.0
C186 C 0.5207 0.55573 0.94788 0.0
N187 N 0.43935 0.52994 0.02088 0.0
C188 C 0.4156 0.50638 0.01913 0.0
C189 C 0.43514 0.56751 0.02323 0.0
C190 C 0.40624 0.58282 0.02363 0.0
C191 C 0.38126 0.55932 0.02171 0.0
C192 C 0.38617 0.52057 0.01966 0.0
Zn193 Zn 0.48276 0.51046 0.02087 0.0
O194 O 0.52013 0.45506 0.95884 0.0
C195 C 0.49287 0.44695 0.09346 0.0
O196 O 0.47309 0.4742 0.95827 0.0
H197 H 0.45428 0.58577 0.02502 0.0
H198 H 0.56156 0.4171 0.01514 0.0
H199 H 0.41946 0.47659 0.01727 0.0
O200 O 0.51969 0.45107 0.07774 0.0
O201 O 0.47218 0.46824 0.07527 0.0
H202 H 0.59261 0.52784 0.02737 0.0
O203 O 0.4929 0.5459 0.08456 0.0
O204 O 0.54071 0.53003 0.08214 0.0
O205 O 0.49421 0.55255 0.96546 0.0
O206 O 0.54122 0.53357 0.96446 0.0
C207 C 0.51949 0.54891 0.10233 0.0
H208 H 0.61339 0.39273 0.01565 0.0
H209 H 0.64524 0.5058 0.02805 0.0
H210 H 0.40351 0.6128 0.02613 0.0
H211 H 0.36751 0.50149 0.0178 0.0
H212 H 0.25601 0.12803 0.46659 0.0
H213 H 0.22971 0.20826 0.58395 0.0
H214 H 0.17949 0.18165 0.58675 0.0
H215 H 0.14317 0.13531 0.55629 0.0
H216 H 0.16932 0.05539 0.43844 0.0
H217 H 0.21945 0.0823 0.43514 0.0
C218 C 0.23919 0.13986 0.49243 0.0
C219 C 0.24657 0.16999 0.52506 0.0
C220 C 0.21037 0.1245 0.49375 0.0
C221 C 0.2247 0.18472 0.55894 0.0
C222 C 0.19593 0.16969 0.56034 0.0
C223 C 0.15977 0.12407 0.52951 0.0
C224 C 0.15259 0.09346 0.49767 0.0
C225 C 0.18854 0.13957 0.52796 0.0
C226 C 0.17444 0.07875 0.46372 0.0
C227 C 0.20305 0.09418 0.46168 0.0
H228 H 0.24721 0.61441 0.05451 0.0
H229 H 0.27576 0.69849 0.94386 0.0
H230 H 0.32513 0.66862 0.9386 0.0
H231 H 0.36048 0.6194 0.96634 0.0
H232 H 0.33274 0.53551 0.07781 0.0
H233 H 0.28269 0.56426 0.08144 0.0
C234 C 0.26432 0.62625 0.02949 0.0
C235 C 0.25782 0.65862 -0.00037 0.0
C236 C 0.29274 0.6089 0.02662 0.0
C237 C 0.28007 0.67337 0.9668 0.0
C238 C 0.30836 0.65642 0.96394 0.0
C239 C 0.34353 0.60751 0.99166 0.0
C240 C 0.35039 0.57551 0.02201 0.0
C241 C 0.31497 0.62429 0.9938 0.0
C242 C 0.32797 0.55998 0.05376 0.0
C243 C 0.29942 0.57655 0.05612 0.0
H244 H 0.75531 0.87512 0.5705 0.0
H245 H 0.7795 0.79402 0.45295 0.0
H246 H 0.82941 0.82105 0.44611 0.0
H247 H 0.86573 0.86852 0.47206 0.0
H248 H 0.84184 0.94956 0.58983 0.0
H249 H 0.79222 0.92175 0.59814 0.0
C250 C 0.77165 0.86319 0.54382 0.0
C251 C 0.76376 0.83277 0.51215 0.0
C252 C 0.80026 0.87891 0.53998 0.0
C253 C 0.78497 0.81779 0.47723 0.0
C254 C 0.81353 0.8331 0.47346 0.0
C255 C 0.84977 0.8798 0.49996 0.0
C256 C 0.85737 0.91101 0.53022 0.0
C257 C 0.82134 0.86377 0.50443 0.0
C258 C 0.83633 0.92576 0.56565 0.0
C259 C 0.80804 0.9098 0.5706 0.0
H260 H 0.76997 0.40003 0.05503 0.0
H261 H 0.74704 0.32543 0.92837 0.0
H262 H 0.69624 0.35152 0.92459 0.0
H263 H 0.65786 0.39438 0.95848 0.0
H264 H 0.68016 0.46863 0.08576 0.0
H265 H 0.73161 0.44394 0.08798 0.0
C266 C 0.75381 0.38945 0.02672 0.0
C267 C 0.76236 0.36086 0.99199 0.0
C268 C 0.7245 0.40449 0.02487 0.0
C269 C 0.74123 0.34777 0.95508 0.0
C270 C 0.71209 0.36249 0.9531 0.0
C271 C 0.67394 0.40501 0.9869 0.0
C272 C 0.66514 0.43315 0.02207 0.0
C273 C 0.70342 0.39067 0.98801 0.0
C274 C 0.68641 0.44715 0.05799 0.0
C275 C 0.71579 0.43291 0.05946 0.0
H276 H 0.09657 0.84436 0.28753 0.0
H277 H 0.01129 0.84526 0.20414 0.0
H278 H 0.98947 0.88375 0.27241 0.0
H279 H 0.99495 0.92045 0.35354 0.0
H280 H 0.08183 0.92703 0.42938 0.0
H281 H 0.10282 0.88346 0.36534 0.0
C282 C 0.07334 0.8533 0.28343 0.0
C283 C 0.05583 0.84133 0.2402 0.0
C284 C 0.06118 0.87727 0.32143 0.0
C285 C 0.02543 0.85281 0.23722 0.0
C286 C 0.01288 0.87541 0.27606 0.0
C287 C 0.01844 0.91215 0.35602 0.0
C288 C 0.03684 0.92668 0.39603 0.0
C289 C 0.03059 0.88812 0.31804 0.0
C290 C 0.06731 0.91622 0.39865 0.0
C291 C 0.07928 0.89127 0.36218 0.0
H292 H 0.5272 0.67071 0.75898 0.0
H293 H 0.62184 0.6464 0.77809 0.0
H294 H 0.61148 0.60625 0.85364 0.0
H295 H 0.57541 0.57528 0.91105 0.0
H296 H 0.48063 0.59925 0.89226 0.0
H297 H 0.49118 0.64222 0.81984 0.0
C298 C 0.54551 0.65666 0.77983 0.0
C299 C 0.57521 0.66146 0.76293 0.0
C300 C 0.53938 0.63342 0.8231 0.0
C301 C 0.5988 0.64349 0.79067 0.0
C302 C 0.59289 0.62031 0.83365 0.0
C303 C 0.55705 0.59003 0.89131 0.0
C304 C 0.52728 0.5838 0.90675 0.0
C305 C 0.56325 0.61468 0.84974 0.0
C306 C 0.50378 0.60344 0.88108 0.0
C307 C 0.50977 0.62797 0.83957 0.0
H308 H 0.91924 0.12313 0.23185 0.0
H309 H 0.97839 0.2131 0.27175 0.0
H310 H 0.99755 0.17757 0.34836 0.0
H311 H -0.0011 0.11929 0.40131 0.0
H312 H 0.9376 0.03096 0.36239 0.0
H313 H 0.91785 0.06736 0.28804 0.0
C314 C 0.93616 0.13497 0.2577 0.0
C315 C 0.9476 0.17039 0.24638 0.0
C316 C 0.94679 0.11457 0.30149 0.0
C317 C 0.96927 0.18583 0.2801 0.0
C318 C 0.9803 0.16546 0.32358 0.0
C319 C 0.9812 0.10813 0.37653 0.0
C320 C 0.96991 0.07237 0.38702 0.0
C321 C 0.96951 0.12954 0.33422 0.0
C322 C 0.94667 0.0584 0.35513 0.0
C323 C 0.93538 0.07916 0.31254 0.0
H324 H 0.4851 0.343 0.74737 0.0
H325 H 0.39058 0.36528 0.76901 0.0
H326 H 0.40199 0.4053 0.84383 0.0
H327 H 0.43872 0.43542 0.9013 0.0
H328 H 0.53338 0.41327 0.88053 0.0
H329 H 0.522 0.37192 0.80695 0.0
C330 C 0.46706 0.35669 0.7685 0.0
C331 C 0.43707 0.35119 0.75276 0.0
C332 C 0.47378 0.37978 0.81141 0.0
C333 C 0.41384 0.36871 0.7808 0.0
C334 C 0.42034 0.39179 0.82334 0.0
C335 C 0.45689 0.42157 0.88071 0.0
C336 C 0.48684 0.42761 0.89614 0.0
C337 C 0.45021 0.39773 0.83873 0.0
C338 C 0.5101 0.40914 0.86937 0.0
C339 C 0.50364 0.38552 0.82726 0.0
H340 H 0.53359 0.63133 0.31824 0.0
H341 H 0.60163 0.68936 0.23023 0.0
H342 H 0.59008 0.65237 0.1528 0.0
H343 H 0.5619 0.60171 0.11061 0.0
H344 H 0.48983 0.54956 0.19473 0.0
H345 H 0.50126 0.58676 0.27295 0.0
C346 C 0.54549 0.63671 0.28196 0.0
C347 C 0.56897 0.6627 0.28092 0.0
C348 C 0.53807 0.61626 0.23681 0.0
C349 C 0.58417 0.6687 0.23317 0.0
C350 C 0.57744 0.64776 0.18852 0.0
C351 C 0.54871 0.59878 0.14614 0.0
C352 C 0.52539 0.5729 0.14768 0.0
C353 C 0.55479 0.62103 0.19016 0.0
C354 C 0.50796 0.56945 0.19317 0.0
C355 C 0.51451 0.5906 0.23775 0.0
H356 H 0.92432 0.12648 0.78256 0.0
H357 H 0.98387 0.21563 0.74139 0.0
H358 H 0.00188 0.17995 0.66533 0.0
H359 H 0.00196 0.12178 0.61312 0.0
H360 H 0.9402 0.03436 0.65363 0.0
H361 H 0.92173 0.07091 0.72731 0.0
C362 C 0.94111 0.13808 0.75659 0.0
C363 C 0.953 0.17329 0.76735 0.0
C364 C 0.95101 0.11765 0.71311 0.0
C365 C 0.97446 0.18848 0.73348 0.0
C366 C 0.98481 0.16804 0.6903 0.0
C367 C 0.98442 0.11087 0.63805 0.0
C368 C 0.97265 0.0753 0.62817 0.0
C369 C 0.9735 0.13234 0.68012 0.0
C370 C 0.94965 0.06165 0.66035 0.0
C371 C 0.93908 0.08249 0.7026 0.0
H372 H 0.48411 0.33202 0.28192 0.0
H373 H 0.38958 0.35449 0.25683 0.0
H374 H 0.40097 0.39431 0.18146 0.0
H375 H 0.43777 0.42597 0.12646 0.0
H376 H 0.53246 0.40443 0.15175 0.0
H377 H 0.52099 0.36115 0.22338 0.0
C378 C 0.46603 0.34558 0.25981 0.0
C379 C 0.43607 0.3404 0.27504 0.0
C380 C 0.47275 0.3688 0.21682 0.0
C381 C 0.41282 0.35768 0.24559 0.0
C382 C 0.41932 0.3807 0.20273 0.0
C383 C 0.45593 0.41168 0.14744 0.0
C384 C 0.48592 0.4187 0.13411 0.0
C385 C 0.4492 0.38693 0.18856 0.0
C386 C 0.50916 0.39964 0.16133 0.0
C387 C 0.50263 0.37493 0.20237 0.0
H388 H 0.09486 0.86502 0.76694 0.0
H389 H 0.00784 0.81442 0.78096 0.0
H390 H 0.98859 0.85309 0.70796 0.0
H391 H 0.99627 0.90231 0.64179 0.0
H392 H 0.08315 0.95388 0.62949 0.0
H393 H 0.10275 0.91355 0.70001 0.0
C394 C 0.0718 0.86211 0.75349 0.0
C395 C 0.05281 0.83682 0.77906 0.0
C396 C 0.06085 0.88469 0.71204 0.0
C397 C 0.02282 0.83384 0.76198 0.0
C398 C 0.01184 0.85588 0.72025 0.0
C399 C 0.01952 0.90466 0.65439 0.0
C400 C 0.03819 0.93114 0.63043 0.0
C401 C 0.0306 0.88161 0.69529 0.0
C402 C 0.06825 0.93386 0.64737 0.0
C403 C 0.0795 0.91077 0.68766 0.0
loop_
_geom_bond_atom_site_label_1
_geom_bond_atom_site_label_2
_geom_bond_distance
_geom_bond_site_symmetry_2
_ccdc_geom_bond_type
C0 C1 1.384 . S
C0 H13 0.947 . S
C0 C35 1.382 . S
C1 C0 1.384 . S
C1 C2 1.378 . S
C2 C1 1.378 . S
C2 C3 1.378 . S
C2 H14 0.952 . S
C3 C2 1.378 . S
C3 H15 0.950 . S
C3 C34 1.383 . S
H4 C23 0.947 . S
H5 C24 0.946 . S
H6 C26 0.953 . S
H7 C27 0.945 . S
H8 C29 0.952 . S
H9 C30 0.949 . S
H10 C32 0.950 . S
H11 C33 0.948 . S
H12 C35 0.951 . S
H13 C0 0.947 . S
H14 C2 0.952 . S
H15 C3 0.950 . S
N16 C19 1.382 . S
N16 C21 1.363 . S
N17 C19 1.371 1_556 S
N17 C20 1.372 . S
N18 C20 1.361 1_554 S
N18 C21 1.377 . S
C19 N16 1.382 . S
C19 N17 1.371 1_554 S
C19 C22 1.480 . S
C20 N17 1.372 . S
C20 N18 1.361 1_556 S
C20 C28 1.457 . S
C21 N16 1.363 . S
C21 N18 1.377 . S
C21 C34 1.479 . S
C22 C19 1.480 . S
C22 C23 1.383 . S
C22 C27 1.385 1_554 S
C23 H4 0.947 . S
C23 C22 1.383 . S
C23 C24 1.388 . S
C24 H5 0.946 . S
C24 C23 1.388 . S
C24 C25 1.384 . S
C25 C24 1.384 . S
C25 C26 1.377 1_554 S
C26 H6 0.953 . S
C26 C25 1.377 1_556 S
C26 C27 1.369 . S
C27 H7 0.945 . S
C27 C22 1.385 1_556 S
C27 C26 1.369 . S
C28 C20 1.457 . S
C28 C29 1.372 . S
C28 C33 1.364 . S
C29 H8 0.952 . S
C29 C28 1.372 . S
C29 C30 1.389 . S
C30 H9 0.949 . S
C30 C29 1.389 . S
C30 C31 1.387 . S
C31 C30 1.387 . S
C31 C32 1.372 . S
C32 H10 0.950 . S
C32 C31 1.372 . S
C32 C33 1.379 . S
C33 H11 0.948 . S
C33 C28 1.364 . S
C33 C32 1.379 . S
C34 C3 1.383 . S
C34 C21 1.479 . S
C34 C35 1.398 . S
C35 C0 1.382 . S
C35 H12 0.951 . S
C35 C34 1.398 . S
C36 C37 1.384 . S
C36 H49 0.947 . S
C36 C71 1.382 . S
C37 C36 1.384 . S
C37 C38 1.378 . S
C38 C37 1.378 . S
C38 C39 1.378 . S
C38 H50 0.952 . S
C39 C38 1.378 . S
C39 H51 0.950 . S
C39 C70 1.383 . S
H40 C59 0.947 . S
H41 C60 0.946 . S
H42 C62 0.953 . S
H43 C63 0.945 . S
H44 C65 0.952 . S
H45 C66 0.949 . S
H46 C68 0.950 . S
H47 C69 0.948 . S
H48 C71 0.951 . S
H49 C36 0.947 . S
H50 C38 0.952 . S
H51 C39 0.950 . S
N52 C55 1.382 . S
N52 C57 1.363 . S
N53 C55 1.371 . S
N53 C56 1.372 . S
N54 C56 1.361 . S
N54 C57 1.377 . S
C55 N52 1.382 . S
C55 N53 1.371 . S
C55 C58 1.480 . S
C56 N53 1.372 . S
C56 N54 1.361 . S
C56 C64 1.457 . S
C57 N52 1.363 . S
C57 N54 1.377 . S
C57 C70 1.479 . S
C58 C55 1.480 . S
C58 C59 1.383 . S
C58 C63 1.385 . S
C59 H40 0.947 . S
C59 C58 1.383 . S
C59 C60 1.388 . S
C60 H41 0.946 . S
C60 C59 1.388 . S
C60 C61 1.384 . S
C61 C60 1.384 . S
C61 C62 1.377 . S
C62 H42 0.953 . S
C62 C61 1.377 . S
C62 C63 1.369 . S
C63 H43 0.945 . S
C63 C58 1.385 . S
C63 C62 1.369 . S
C64 C56 1.457 . S
C64 C65 1.372 . S
C64 C69 1.364 . S
C65 H44 0.952 . S
C65 C64 1.372 . S
C65 C66 1.389 . S
C66 H45 0.949 . S
C66 C65 1.389 . S
C66 C67 1.387 . S
C67 C66 1.387 . S
C67 C68 1.372 . S
C68 H46 0.950 . S
C68 C67 1.372 . S
C68 C69 1.379 . S
C69 H47 0.948 . S
C69 C64 1.364 . S
C69 C68 1.379 . S
C70 C39 1.383 . S
C70 C57 1.479 . S
C70 C71 1.398 . S
C71 C36 1.382 . S
C71 H48 0.951 . S
C71 C70 1.398 . S
C72 C73 1.384 . S
C72 H85 0.947 . S
C72 C107 1.382 . S
C73 C72 1.384 . S
C73 C74 1.378 . S
C74 C73 1.378 . S
C74 C75 1.378 . S
C74 H86 0.952 . S
C75 C74 1.378 . S
C75 H87 0.950 . S
C75 C106 1.383 . S
H76 C95 0.947 . S
H77 C96 0.946 . S
H78 C98 0.953 . S
H79 C99 0.945 . S
H80 C101 0.952 . S
H81 C102 0.949 . S
H82 C104 0.950 . S
H83 C105 0.948 . S
H84 C107 0.951 . S
H85 C72 0.947 . S
H86 C74 0.952 . S
H87 C75 0.950 . S
N88 C91 1.382 1_556 S
N88 C93 1.363 . S
N89 C91 1.371 . S
N89 C92 1.372 . S
N90 C92 1.361 . S
N90 C93 1.377 1_554 S
C91 N88 1.382 1_554 S
C91 N89 1.371 . S
C91 C94 1.480 . S
C92 N89 1.372 . S
C92 N90 1.361 . S
C92 C100 1.457 . S
C93 N88 1.363 . S
C93 N90 1.377 1_556 S
C93 C106 1.479 . S
C94 C91 1.480 . S
C94 C95 1.383 1_554 S
C94 C99 1.385 . S
C95 H76 0.947 . S
C95 C94 1.383 1_556 S
C95 C96 1.388 . S
C96 H77 0.946 . S
C96 C95 1.388 . S
C96 C97 1.384 1_556 S
C97 C96 1.384 1_554 S
C97 C98 1.377 . S
C98 H78 0.953 . S
C98 C97 1.377 . S
C98 C99 1.369 . S
C99 H79 0.945 . S
C99 C94 1.385 . S
C99 C98 1.369 . S
C100 C92 1.457 . S
C100 C101 1.372 . S
C100 C105 1.364 . S
C101 H80 0.952 . S
C101 C100 1.372 . S
C101 C102 1.389 . S
C102 H81 0.949 . S
C102 C101 1.389 . S
C102 C103 1.387 . S
C103 C102 1.387 . S
C103 C104 1.372 . S
C104 H82 0.950 . S
C104 C103 1.372 . S
C104 C105 1.379 . S
C105 H83 0.948 . S
C105 C100 1.364 . S
C105 C104 1.379 . S
C106 C75 1.383 . S
C106 C93 1.479 . S
C106 C107 1.398 . S
C107 C72 1.382 . S
C107 H84 0.951 . S
C107 C106 1.398 . S
C108 C109 1.384 . S
C108 H121 0.947 . S
C108 C143 1.382 . S
C109 C108 1.384 . S
C109 C110 1.378 . S
C110 C109 1.378 . S
C110 C111 1.378 . S
C110 H122 0.952 . S
C111 C110 1.378 . S
C111 H123 0.950 . S
C111 C142 1.383 . S
H112 C131 0.947 . S
H113 C132 0.946 . S
H114 C134 0.953 . S
H115 C135 0.945 . S
H116 C137 0.952 . S
H117 C138 0.949 . S
H118 C140 0.950 . S
H119 C141 0.948 . S
H120 C143 0.951 . S
H121 C108 0.947 . S
H122 C110 0.952 . S
H123 C111 0.950 . S
N124 C127 1.382 . S
N124 C129 1.363 . S
N125 C127 1.371 . S
N125 C128 1.372 . S
N126 C128 1.361 . S
N126 C129 1.377 . S
C127 N124 1.382 . S
C127 N125 1.371 . S
C127 C130 1.480 . S
C128 N125 1.372 . S
C128 N126 1.361 . S
C128 C136 1.457 . S
C129 N124 1.363 . S
C129 N126 1.377 . S
C129 C142 1.479 . S
C130 C127 1.480 . S
C130 C131 1.383 . S
C130 C135 1.385 . S
C131 H112 0.947 . S
C131 C130 1.383 . S
C131 C132 1.388 . S
C132 H113 0.946 . S
C132 C131 1.388 . S
C132 C133 1.384 . S
C133 C132 1.384 . S
C133 C134 1.377 . S
C134 H114 0.953 . S
C134 C133 1.377 . S
C134 C135 1.369 . S
C135 H115 0.945 . S
C135 C130 1.385 . S
C135 C134 1.369 . S
C136 C128 1.457 . S
C136 C137 1.372 . S
C136 C141 1.364 . S
C137 H116 0.952 . S
C137 C136 1.372 . S
C137 C138 1.389 . S
C138 H117 0.949 . S
C138 C137 1.389 . S
C138 C139 1.387 . S
C139 C138 1.387 . S
C139 C140 1.372 . S
C140 H118 0.950 . S
C140 C139 1.372 . S
C140 C141 1.379 . S
C141 H119 0.948 . S
C141 C136 1.364 . S
C141 C140 1.379 . S
C142 C111 1.383 . S
C142 C129 1.479 . S
C142 C143 1.398 . S
C143 C108 1.382 . S
C143 H120 0.951 . S
C143 C142 1.398 . S
C144 O160 1.251 . S
C144 O162 1.229 1_455 S
N145 C146 1.333 . S
N145 C150 1.307 . S
N145 Zn151 2.020 . S
C146 N145 1.333 . S
C146 C147 1.379 . S
C146 H164 0.952 . S
C147 C146 1.379 . S
C147 C148 1.390 . S
C147 H174 0.949 . S
C148 C147 1.390 . S
C148 C149 1.357 . S
C149 C148 1.357 . S
C149 C150 1.370 . S
C149 H175 0.950 . S
C150 N145 1.307 . S
C150 C149 1.370 . S
C150 H168 0.948 . S
Zn151 N145 2.020 . S
Zn151 O160 2.039 1_545 S
Zn151 O166 2.034 1_545 S
Zn151 O170 2.025 . S
Zn151 O172 2.024 . S
C152 O171 1.246 . S
C152 O172 1.249 1_655 S
N153 C154 1.307 . S
N153 C155 1.333 . S
N153 Zn159 2.020 . S
C154 N153 1.307 . S
C154 C158 1.370 . S
C154 H165 0.948 . S
C155 N153 1.333 . S
C155 C156 1.379 . S
C155 H163 0.951 . S
C156 C155 1.379 . S
C156 C157 1.390 . S
C156 H176 0.949 . S
C157 C156 1.390 . S
C157 C158 1.357 . S
C158 C154 1.370 . S
C158 C157 1.357 . S
C158 H177 0.950 . S
Zn159 N153 2.020 . S
Zn159 O162 2.039 . S
Zn159 O167 2.024 . S
Zn159 O169 2.039 1_565 S
Zn159 O171 2.034 1_565 S
O160 C144 1.251 . S
O160 Zn151 2.039 1_565 S
C161 O166 1.246 . S
C161 O167 1.249 1_455 S
O162 C144 1.229 1_655 S
O162 Zn159 2.039 . S
H163 C155 0.951 . S
H164 C146 0.952 . S
H165 C154 0.948 . S
O166 Zn151 2.034 1_565 S
O166 C161 1.246 . S
O167 Zn159 2.024 . S
O167 C161 1.249 1_655 S
H168 C150 0.948 . S
O169 Zn159 2.039 1_545 S
O169 C173 1.251 . S
O170 Zn151 2.025 . S
O170 C173 1.254 1_455 S
O171 C152 1.246 . S
O171 Zn159 2.034 1_545 S
O172 Zn151 2.024 . S
O172 C152 1.249 1_455 S
C173 O169 1.251 . S
C173 O170 1.254 1_655 S
H174 C147 0.949 . S
H175 C149 0.950 . S
H176 C156 0.949 . S
H177 C158 0.950 . S
C178 O194 1.251 . S
C178 O196 1.254 . S
N179 C180 1.333 . S
N179 C184 1.307 . S
N179 Zn185 2.020 . S
C180 N179 1.333 . S
C180 C181 1.379 . S
C180 H198 0.952 1_554 S
C181 C180 1.379 . S
C181 C182 1.390 . S
C181 H208 0.949 1_554 S
C182 C181 1.390 . S
C182 C183 1.357 . S
C183 C182 1.357 . S
C183 C184 1.370 . S
C183 H209 0.950 . S
C184 N179 1.307 . S
C184 C183 1.370 . S
C184 H202 0.948 . S
Zn185 N179 2.020 . S
Zn185 O194 2.039 1_554 S
Zn185 O200 2.034 . S
Zn185 O204 2.025 . S
Zn185 O206 2.024 1_554 S
C186 O205 1.246 . S
C186 O206 1.249 . S
N187 C188 1.307 . S
N187 C189 1.333 . S
N187 Zn193 2.020 . S
C188 N187 1.307 . S
C188 C192 1.370 . S
C188 H199 0.948 1_554 S
C189 N187 1.333 . S
C189 C190 1.379 . S
C189 H197 0.952 . S
C190 C189 1.379 . S
C190 C191 1.390 . S
C190 H210 0.949 . S
C191 C190 1.390 . S
C191 C192 1.357 . S
C192 C188 1.370 . S
C192 C191 1.357 . S
C192 H211 0.950 1_554 S
Zn193 N187 2.020 . S
Zn193 O196 2.025 1_554 S
Zn193 O201 2.024 . S
Zn193 O203 2.039 . S
Zn193 O205 2.034 1_554 S
O194 C178 1.251 . S
O194 Zn185 2.039 1_556 S
C195 O200 1.246 . S
C195 O201 1.249 . S
O196 C178 1.254 . S
O196 Zn193 2.025 1_556 S
H197 C189 0.952 . S
H198 C180 0.952 1_556 S
H199 C188 0.948 1_556 S
O200 Zn185 2.034 . S
O200 C195 1.246 . S
O201 Zn193 2.024 . S
O201 C195 1.249 . S
H202 C184 0.948 . S
O203 Zn193 2.039 . S
O203 C207 1.251 . S
O204 Zn185 2.025 . S
O204 C207 1.254 . S
O205 C186 1.246 . S
O205 Zn193 2.034 1_556 S
O206 Zn185 2.024 1_556 S
O206 C186 1.249 . S
C207 O203 1.251 . S
C207 O204 1.254 . S
H208 C181 0.949 1_556 S
H209 C183 0.950 . S
H210 C190 0.949 . S
H211 C192 0.950 1_556 S
H212 C218 0.930 . S
H213 C221 0.930 . S
H214 C222 0.930 . S
H215 C223 0.930 . S
H216 C226 0.930 . S
H217 C227 0.930 . S
C218 H212 0.930 . S
C218 C219 1.355 . S
C218 C220 1.415 . S
C219 C218 1.355 . S
C219 C221 1.419 . S
C220 C218 1.415 . S
C220 C225 1.425 . S
C220 C227 1.409 . S
C221 H213 0.930 . S
C221 C219 1.419 . S
C221 C222 1.362 . S
C222 H214 0.930 . S
C222 C221 1.362 . S
C222 C225 1.409 . S
C223 H215 0.930 . S
C223 C224 1.355 . S
C223 C225 1.415 . S
C224 C223 1.355 . S
C224 C226 1.419 . S
C225 C220 1.425 . S
C225 C222 1.409 . S
C225 C223 1.415 . S
C226 H216 0.930 . S
C226 C224 1.419 . S
C226 C227 1.362 . S
C227 H217 0.930 . S
C227 C220 1.409 . S
C227 C226 1.362 . S
H228 C234 0.930 . S
H229 C237 0.930 . S
H230 C238 0.930 . S
H231 C239 0.930 . S
H232 C242 0.930 . S
H233 C243 0.930 . S
C234 H228 0.930 . S
C234 C235 1.355 . S
C234 C236 1.415 . S
C235 C234 1.355 . S
C235 C237 1.419 1_554 S
C236 C234 1.415 . S
C236 C241 1.425 1_554 S
C236 C243 1.409 . S
C237 H229 0.930 . S
C237 C235 1.419 1_556 S
C237 C238 1.362 . S
C238 H230 0.930 . S
C238 C237 1.362 . S
C238 C241 1.409 . S
C239 H231 0.930 . S
C239 C240 1.355 1_556 S
C239 C241 1.415 . S
C240 C239 1.355 1_554 S
C240 C242 1.419 . S
C241 C236 1.425 1_556 S
C241 C238 1.409 . S
C241 C239 1.415 . S
C242 H232 0.930 . S
C242 C240 1.419 . S
C242 C243 1.362 . S
C243 H233 0.930 . S
C243 C236 1.409 . S
C243 C242 1.362 . S
H244 C250 0.930 . S
H245 C253 0.930 . S
H246 C254 0.930 . S
H247 C255 0.930 . S
H248 C258 0.930 . S
H249 C259 0.930 . S
C250 H244 0.930 . S
C250 C251 1.355 . S
C250 C252 1.415 . S
C251 C250 1.355 . S
C251 C253 1.419 . S
C252 C250 1.415 . S
C252 C257 1.425 . S
C252 C259 1.409 . S
C253 H245 0.930 . S
C253 C251 1.419 . S
C253 C254 1.362 . S
C254 H246 0.930 . S
C254 C253 1.362 . S
C254 C257 1.409 . S
C255 H247 0.930 . S
C255 C256 1.355 . S
C255 C257 1.415 . S
C256 C255 1.355 . S
C256 C258 1.419 . S
C257 C252 1.425 . S
C257 C254 1.409 . S
C257 C255 1.415 . S
C258 H248 0.930 . S
C258 C256 1.419 . S
C258 C259 1.362 . S
C259 H249 0.930 . S
C259 C252 1.409 . S
C259 C258 1.362 . S
H260 C266 0.930 . S
H261 C269 0.930 . S
H262 C270 0.930 . S
H263 C271 0.930 . S
H264 C274 0.930 . S
H265 C275 0.930 . S
C266 H260 0.930 . S
C266 C267 1.355 . S
C266 C268 1.415 . S
C267 C266 1.355 . S
C267 C269 1.419 1_554 S
C268 C266 1.415 . S
C268 C273 1.425 1_554 S
C268 C275 1.409 . S
C269 H261 0.930 . S
C269 C267 1.419 1_556 S
C269 C270 1.362 . S
C270 H262 0.930 . S
C270 C269 1.362 . S
C270 C273 1.409 . S
C271 H263 0.930 . S
C271 C272 1.355 1_556 S
C271 C273 1.415 . S
C272 C271 1.355 1_554 S
C272 C274 1.419 . S
C273 C268 1.425 1_556 S
C273 C270 1.409 . S
C273 C271 1.415 . S
C274 H264 0.930 . S
C274 C272 1.419 . S
C274 C275 1.362 . S
C275 H265 0.930 . S
C275 C268 1.409 . S
C275 C274 1.362 . S
H276 C282 0.930 . S
H277 C285 0.930 . S
H278 C286 0.930 . S
H279 C287 0.930 . S
H280 C290 0.930 . S
H281 C291 0.930 . S
C282 H276 0.930 . S
C282 C283 1.355 . S
C282 C284 1.415 . S
C283 C282 1.355 . S
C283 C285 1.419 . S
C284 C282 1.415 . S
C284 C289 1.425 . S
C284 C291 1.409 . S
C285 H277 0.930 . S
C285 C283 1.419 . S
C285 C286 1.362 . S
C286 H278 0.930 . S
C286 C285 1.362 . S
C286 C289 1.409 . S
C287 H279 0.930 . S
C287 C288 1.355 . S
C287 C289 1.415 . S
C288 C287 1.355 . S
C288 C290 1.419 . S
C289 C284 1.425 . S
C289 C286 1.409 . S
C289 C287 1.415 . S
C290 H280 0.930 . S
C290 C288 1.419 . S
C290 C291 1.362 . S
C291 H281 0.930 . S
C291 C284 1.409 . S
C291 C290 1.362 . S
H292 C298 0.930 . S
H293 C301 0.930 . S
H294 C302 0.930 . S
H295 C303 0.930 . S
H296 C306 0.930 . S
H297 C307 0.930 . S
C298 H292 0.930 . S
C298 C299 1.355 . S
C298 C300 1.415 . S
C299 C298 1.355 . S
C299 C301 1.419 . S
C300 C298 1.415 . S
C300 C305 1.425 . S
C300 C307 1.409 . S
C301 H293 0.930 . S
C301 C299 1.419 . S
C301 C302 1.362 . S
C302 H294 0.930 . S
C302 C301 1.362 . S
C302 C305 1.409 . S
C303 H295 0.930 . S
C303 C304 1.355 . S
C303 C305 1.415 . S
C304 C303 1.355 . S
C304 C306 1.419 . S
C305 C300 1.425 . S
C305 C302 1.409 . S
C305 C303 1.415 . S
C306 H296 0.930 . S
C306 C304 1.419 . S
C306 C307 1.362 . S
C307 H297 0.930 . S
C307 C300 1.409 . S
C307 C306 1.362 . S
H308 C314 0.930 . S
H309 C317 0.930 . S
H310 C318 0.930 . S
H311 C319 0.930 . S
H312 C322 0.930 . S
H313 C323 0.930 . S
C314 H308 0.930 . S
C314 C315 1.355 . S
C314 C316 1.415 . S
C315 C314 1.355 . S
C315 C317 1.419 . S
C316 C314 1.415 . S
C316 C321 1.425 . S
C316 C323 1.409 . S
C317 H309 0.930 . S
C317 C315 1.419 . S
C317 C318 1.362 . S
C318 H310 0.930 . S
C318 C317 1.362 . S
C318 C321 1.409 . S
C319 H311 0.930 . S
C319 C320 1.355 . S
C319 C321 1.415 . S
C320 C319 1.355 . S
C320 C322 1.419 . S
C321 C316 1.425 . S
C321 C318 1.409 . S
C321 C319 1.415 . S
C322 H312 0.930 . S
C322 C320 1.419 . S
C322 C323 1.362 . S
C323 H313 0.930 . S
C323 C316 1.409 . S
C323 C322 1.362 . S
H324 C330 0.930 . S
H325 C333 0.930 . S
H326 C334 0.930 . S
H327 C335 0.930 . S
H328 C338 0.930 . S
H329 C339 0.930 . S
C330 H324 0.930 . S
C330 C331 1.355 . S
C330 C332 1.415 . S
C331 C330 1.355 . S
C331 C333 1.419 . S
C332 C330 1.415 . S
C332 C337 1.425 . S
C332 C339 1.409 . S
C333 H325 0.930 . S
C333 C331 1.419 . S
C333 C334 1.362 . S
C334 H326 0.930 . S
C334 C333 1.362 . S
C334 C337 1.409 . S
C335 H327 0.930 . S
C335 C336 1.355 . S
C335 C337 1.415 . S
C336 C335 1.355 . S
C336 C338 1.419 . S
C337 C332 1.425 . S
C337 C334 1.409 . S
C337 C335 1.415 . S
C338 H328 0.930 . S
C338 C336 1.419 . S
C338 C339 1.362 . S
C339 H329 0.930 . S
C339 C332 1.409 . S
C339 C338 1.362 . S
H340 C346 0.930 . S
H341 C349 0.930 . S
H342 C350 0.930 . S
H343 C351 0.930 . S
H344 C354 0.930 . S
H345 C355 0.930 . S
C346 H340 0.930 . S
C346 C347 1.355 . S
C346 C348 1.415 . S
C347 C346 1.355 . S
C347 C349 1.419 . S
C348 C346 1.415 . S
C348 C353 1.425 . S
C348 C355 1.409 . S
C349 H341 0.930 . S
C349 C347 1.419 . S
C349 C350 1.362 . S
C350 H342 0.930 . S
C350 C349 1.362 . S
C350 C353 1.409 . S
C351 H343 0.930 . S
C351 C352 1.355 . S
C351 C353 1.415 . S
C352 C351 1.355 . S
C352 C354 1.419 . S
C353 C348 1.425 . S
C353 C350 1.409 . S
C353 C351 1.415 . S
C354 H344 0.930 . S
C354 C352 1.419 . S
C354 C355 1.362 . S
C355 H345 0.930 . S
C355 C348 1.409 . S
C355 C354 1.362 . S
H356 C362 0.930 . S
H357 C365 0.930 . S
H358 C366 0.930 . S
H359 C367 0.930 . S
H360 C370 0.930 . S
H361 C371 0.930 . S
C362 H356 0.930 . S
C362 C363 1.355 . S
C362 C364 1.415 . S
C363 C362 1.355 . S
C363 C365 1.419 . S
C364 C362 1.415 . S
C364 C369 1.425 . S
C364 C371 1.409 . S
C365 H357 0.930 . S
C365 C363 1.419 . S
C365 C366 1.362 . S
C366 H358 0.930 . S
C366 C365 1.362 . S
C366 C369 1.409 . S
C367 H359 0.930 . S
C367 C368 1.355 . S
C367 C369 1.415 . S
C368 C367 1.355 . S
C368 C370 1.419 . S
C369 C364 1.425 . S
C369 C366 1.409 . S
C369 C367 1.415 . S
C370 H360 0.930 . S
C370 C368 1.419 . S
C370 C371 1.362 . S
C371 H361 0.930 . S
C371 C364 1.409 . S
C371 C370 1.362 . S
H372 C378 0.930 . S
H373 C381 0.930 . S
H374 C382 0.930 . S
H375 C383 0.930 . S
H376 C386 0.930 . S
H377 C387 0.930 . S
C378 H372 0.930 . S
C378 C379 1.355 . S
C378 C380 1.415 . S
C379 C378 1.355 . S
C379 C381 1.419 . S
C380 C378 1.415 . S
C380 C385 1.425 . S
C380 C387 1.409 . S
C381 H373 0.930 . S
C381 C379 1.419 . S
C381 C382 1.362 . S
C382 H374 0.930 . S
C382 C381 1.362 . S
C382 C385 1.409 . S
C383 H375 0.930 . S
C383 C384 1.355 . S
C383 C385 1.415 . S
C384 C383 1.355 . S
C384 C386 1.419 . S
C385 C380 1.425 . S
C385 C382 1.409 . S
C385 C383 1.415 . S
C386 H376 0.930 . S
C386 C384 1.419 . S
C386 C387 1.362 . S
C387 H377 0.930 . S
C387 C380 1.409 . S
C387 C386 1.362 . S
H388 C394 0.930 . S
H389 C397 0.930 . S
H390 C398 0.930 1_655 S
H391 C399 0.930 1_655 S
H392 C402 0.930 . S
H393 C403 0.930 . S
C394 H388 0.930 . S
C394 C395 1.355 . S
C394 C396 1.415 . S
C395 C394 1.355 . S
C395 C397 1.419 . S
C396 C394 1.415 . S
C396 C401 1.425 . S
C396 C403 1.409 . S
C397 H389 0.930 . S
C397 C395 1.419 . S
C397 C398 1.362 . S
C398 H390 0.930 1_455 S
C398 C397 1.362 . S
C398 C401 1.409 . S
C399 H391 0.930 1_455 S
C399 C400 1.355 . S
C399 C401 1.415 . S
C400 C399 1.355 . S
C400 C402 1.419 . S
C401 C396 1.425 . S
C401 C398 1.409 . S
C401 C399 1.415 . S
C402 H392 0.930 . S
C402 C400 1.419 . S
C402 C403 1.362 . S
C403 H393 0.930 . S
C403 C396 1.409 . S
C403 C402 1.362 . S
C224 C148 1.647 . S
C219 C133 1.626 . S
C235 C25 1.508 . S
C240 C191 1.565 . S
C251 C61 1.580 . S
C256 C157 1.653 . S
C267 C97 1.563 . S
C272 C182 1.557 . S
C288 C144 1.646 . S
C283 C1 1.591 . S
C304 C186 1.733 . S
C299 C67 1.625 . S
C315 C103 1.638 . S
C320 C152 1.642 . S
C331 C109 1.721 . S
C336 C178 1.741 . S
C352 C207 1.733 . S
C347 C37 1.654 . S
C368 C173 1.657 . S
C363 C73 1.651 . S
C384 C195 1.743 . S
C379 C139 1.716 . S
C395 C31 1.577 . S
C400 C161 1.634 . S
