# Generated by pormake.
# Topology zzz, (3,6)-cn, num edge types: 1
# Building blocks:
#     Node 0, Type 0, BuildingBlock: QEWDON_clean_linker_0, # of connection points: 3
#     Node 1, Type 0, BuildingBlock: QEWDON_clean_linker_0, # of connection points: 3
#     Node 2, Type 0, BuildingBlock: QEWDON_clean_linker_0, # of connection points: 3
#     Node 3, Type 0, BuildingBlock: QEWDON_clean_linker_0, # of connection points: 3
#     Node 4, Type 0, BuildingBlock: QEWDON_clean_linker_0, # of connection points: 3
#     Node 5, Type 0, BuildingBlock: QEWDON_clean_linker_0, # of connection points: 3
#     Node 6, Type 0, BuildingBlock: QEWDON_clean_linker_0, # of connection points: 3
#     Node 7, Type 0, BuildingBlock: QEWDON_clean_linker_0, # of connection points: 3
#     Node 8, Type 1, BuildingBlock: KUMJIN_clean_sbu_0, # of connection points: 6
#     Node 9, Type 1, BuildingBlock: KUMJIN_clean_sbu_0, # of connection points: 6
#     Node 10, Type 1, BuildingBlock: KUMJIN_clean_sbu_0, # of connection points: 6
#     Node 11, Type 1, BuildingBlock: KUMJIN_clean_sbu_0, # of connection points: 6
#     Edge 12, Type (0, 1), BuildingBlock: OJICUG_clean_linker_0, # of connection points: 2
#     Edge 13, Type (0, 1), BuildingBlock: OJICUG_clean_linker_0, # of connection points: 2
#     Edge 14, Type (0, 1), BuildingBlock: OJICUG_clean_linker_0, # of connection points: 2
#     Edge 15, Type (0, 1), BuildingBlock: OJICUG_clean_linker_0, # of connection points: 2
#     Edge 16, Type (0, 1), BuildingBlock: OJICUG_clean_linker_0, # of connection points: 2
#     Edge 17, Type (0, 1), BuildingBlock: OJICUG_clean_linker_0, # of connection points: 2
#     Edge 18, Type (0, 1), BuildingBlock: OJICUG_clean_linker_0, # of connection points: 2
#     Edge 19, Type (0, 1), BuildingBlock: OJICUG_clean_linker_0, # of connection points: 2
#     Edge 20, Type (0, 1), BuildingBlock: OJICUG_clean_linker_0, # of connection points: 2
#     Edge 21, Type (0, 1), BuildingBlock: OJICUG_clean_linker_0, # of connection points: 2
#     Edge 22, Type (0, 1), BuildingBlock: OJICUG_clean_linker_0, # of connection points: 2
#     Edge 23, Type (0, 1), BuildingBlock: OJICUG_clean_linker_0, # of connection points: 2
#     Edge 24, Type (0, 1), BuildingBlock: OJICUG_clean_linker_0, # of connection points: 2
#     Edge 25, Type (0, 1), BuildingBlock: OJICUG_clean_linker_0, # of connection points: 2
#     Edge 26, Type (0, 1), BuildingBlock: OJICUG_clean_linker_0, # of connection points: 2
#     Edge 27, Type (0, 1), BuildingBlock: OJICUG_clean_linker_0, # of connection points: 2
#     Edge 28, Type (0, 1), BuildingBlock: OJICUG_clean_linker_0, # of connection points: 2
#     Edge 29, Type (0, 1), BuildingBlock: OJICUG_clean_linker_0, # of connection points: 2
#     Edge 30, Type (0, 1), BuildingBlock: OJICUG_clean_linker_0, # of connection points: 2
#     Edge 31, Type (0, 1), BuildingBlock: OJICUG_clean_linker_0, # of connection points: 2
#     Edge 32, Type (0, 1), BuildingBlock: OJICUG_clean_linker_0, # of connection points: 2
#     Edge 33, Type (0, 1), BuildingBlock: OJICUG_clean_linker_0, # of connection points: 2
#     Edge 34, Type (0, 1), BuildingBlock: OJICUG_clean_linker_0, # of connection points: 2
#     Edge 35, Type (0, 1), BuildingBlock: OJICUG_clean_linker_0, # of connection points: 2
# Relax obj value: 0.156
# Max RMSD: 0.166
# Mean RMSD: 0.078
data_MOF--net-zzz--node1-KUMJIN_clean_sbu_0--node2-QEWDON_clean_linker_0--edge1-OJICUG_clean_linker_0
_symmetry_space_group_name_H-M    P1
_symmetry_Int_Tables_number       1
_symmetry_cell_setting            triclinic
loop_
_symmetry_equiv_pos_as_xyz
'x, y, z'
_cell_length_a     40.364872
_cell_length_b     40.287281
_cell_length_c     10.834132
_cell_angle_alpha  91.704747
_cell_angle_beta   89.878142
_cell_angle_gamma 89.745169
loop_
_atom_site_label
_atom_site_type_symbol
_atom_site_fract_x
_atom_site_fract_y
_atom_site_fract_z
_atom_type_partial_charge
H0 H 0.74926 0.49024 0.19233 0.0
C1 C 0.76838 0.50011 0.25238 0.0
C2 C 0.79726 0.48117 0.26444 0.0
C3 C 0.76434 0.53091 0.31602 0.0
H4 H 0.84532 0.47748 0.34811 0.0
C5 C 0.82273 0.49211 0.34315 0.0
C6 C 0.82118 0.5224 0.40856 0.0
C7 C 0.79186 0.54226 0.39314 0.0
C8 C 0.7312 0.54983 0.30304 0.0
H9 H 0.79082 0.56612 0.4412 0.0
C10 C 0.70691 0.54315 0.20646 0.0
C11 C 0.67586 0.56072 0.20209 0.0
C12 C 0.7226 0.57413 0.39364 0.0
H13 H 0.73856 0.5796 0.47139 0.0
C14 C 0.69266 0.59145 0.38906 0.0
H15 H 0.71185 0.52495 0.13353 0.0
C16 C 0.66983 0.58506 0.29509 0.0
H17 H 0.64663 0.59868 0.29791 0.0
H18 H 0.68679 0.60981 0.46089 0.0
H19 H 0.05738 0.77516 0.10175 0.0
C20 C 0.05372 0.79323 0.1766 0.0
C21 C 0.071 0.82288 0.17204 0.0
C22 C 0.03004 0.78805 0.26871 0.0
H23 H 0.07742 0.87179 0.2426 0.0
C24 C 0.06543 0.84845 0.25964 0.0
C25 C 0.04377 0.84539 0.36053 0.0
C26 C 0.02523 0.81457 0.36249 0.0
C27 C 1.00806 0.75716 0.25014 0.0
H28 H 1.00719 0.81131 0.43497 0.0
C29 C 1.01874 0.72666 0.18589 0.0
C30 C 0.99559 0.70148 0.14519 0.0
C31 C 0.97426 0.76019 0.27845 0.0
H32 H 0.96466 0.78242 0.32459 0.0
C33 C 0.95174 0.73581 0.24021 0.0
H34 H 0.04466 0.72296 0.16379 0.0
C35 C 0.96203 0.7074 0.17335 0.0
H36 H 0.94334 0.68955 0.14534 0.0
H37 H 0.92568 0.73923 0.26108 0.0
H38 H 0.78769 0.06934 0.14036 0.0
C39 C 0.76897 0.06247 0.20615 0.0
C40 C 0.73692 0.07357 0.18591 0.0
C41 C 0.77695 0.04434 0.31097 0.0
H42 H 0.68708 0.07662 0.24899 0.0
C43 C 0.71171 0.06769 0.27054 0.0
C44 C 0.7177 0.0528 0.38383 0.0
C45 C 0.75068 0.03992 0.40205 0.0
C46 C 0.81327 0.03325 0.325 0.0
H47 H 0.75569 0.02737 0.48678 0.0
C48 C 0.83683 0.03122 0.22338 0.0
C49 C 0.87118 0.02337 0.24114 0.0
C50 C 0.82549 0.02654 0.44286 0.0
H51 H 0.80976 0.02845 0.52359 0.0
C52 C 0.85867 1.01831 0.46061 0.0
H53 H 0.82879 0.03508 0.12991 0.0
C54 C 0.88111 1.01678 0.36231 0.0
H55 H 0.90667 1.01107 0.38261 0.0
H56 H 0.86724 1.01382 0.55302 0.0
H57 H 0.50087 0.81365 0.18746 0.0
C58 C 0.50753 0.79551 0.25436 0.0
C59 C 0.48595 0.7688 0.26665 0.0
C60 C 0.53775 0.79744 0.31925 0.0
H61 H 0.4779 0.72151 0.34867 0.0
C62 C 0.49408 0.74291 0.34454 0.0
C63 C 0.52418 0.74212 0.40695 0.0
C64 C 0.54602 0.7697 0.39563 0.0
C65 C 0.56074 0.82705 0.29747 0.0
H66 H 0.56902 0.76895 0.44601 0.0
C67 C 0.55051 0.85624 0.23294 0.0
C68 C 0.57304 0.88212 0.20394 0.0
C69 C 0.59399 0.82595 0.33643 0.0
H70 H 0.60392 0.80499 0.38396 0.0
C71 C 0.61589 0.85165 0.31206 0.0
H72 H 0.52509 0.85961 0.20568 0.0
C73 C 0.60582 0.87903 0.24581 0.0
H74 H 0.62429 0.89741 0.22481 0.0
H75 H 0.64136 0.84992 0.34248 0.0
H76 H 0.2896 0.47464 0.2662 0.0
C77 C 0.26983 0.48444 0.21081 0.0
C78 C 0.23811 0.47046 0.22135 0.0
C79 C 0.27579 0.5117 0.13582 0.0
H80 H 0.18923 0.46855 0.13985 0.0
C81 C 0.21309 0.48063 0.13956 0.0
C82 C 0.21628 0.50864 0.06699 0.0
C83 C 0.24811 0.52419 0.06516 0.0
C84 C 0.31085 0.52642 0.1326 0.0
H85 H 0.25078 0.54631 0.01201 0.0
C86 C 0.3358 0.52273 0.22815 0.0
C87 C 0.36879 0.53584 0.21568 0.0
C88 C 0.32024 0.54327 0.02684 0.0
H89 H 0.30353 0.54578 0.94978 0.0
C90 C 0.35182 0.55616 0.0146 0.0
H91 H 0.32971 0.51042 0.31243 0.0
C92 C 0.37565 0.55242 0.10606 0.0
H93 H 0.40018 0.5617 0.08786 0.0
H94 H 0.35807 0.5683 0.93026 0.0
H95 H 0.983 0.28792 0.26999 0.0
C96 C 0.9897 0.27084 0.1951 0.0
C97 C 0.96926 0.24337 0.17373 0.0
C98 C 0.01964 0.27467 0.13075 0.0
H99 H 0.96051 0.19929 0.065 0.0
C100 C 0.97752 0.21959 0.08178 0.0
C101 C 1.00837 0.2191 0.02184 0.0
C102 C 0.02919 0.24776 0.04412 0.0
C103 C 0.04174 0.30441 0.17033 0.0
H104 H 0.05273 0.24845 0.9967 0.0
C105 C 0.02969 0.3342 0.23609 0.0
C106 C 0.0518 0.35894 0.28777 0.0
C107 C 0.07614 0.30182 0.15263 0.0
H108 H 0.0871 0.28034 0.10624 0.0
C109 C 0.09761 0.32617 0.19896 0.0
H110 H 1.00341 0.33806 0.24967 0.0
C111 C 0.08583 0.35381 0.26647 0.0
H112 H 0.1038 0.37176 0.30006 0.0
H113 H 0.12401 0.32329 0.18403 0.0
H114 H 0.27639 1.00177 0.25268 0.0
C115 C 0.29578 1.01009 0.19209 0.0
C116 C 0.32786 1.00071 0.21939 0.0
C117 C 0.2886 0.0286 0.08765 0.0
H118 H 0.37884 1.00204 0.17185 0.0
C119 C 0.35413 1.00868 0.14206 0.0
C120 C 0.34923 0.02309 0.02682 0.0
C121 C 0.31585 0.03433 1.00174 0.0
C122 C 0.2521 0.03862 0.06994 0.0
H123 H 0.31128 0.04679 0.91643 0.0
C124 C 0.22816 0.03999 0.17024 0.0
C125 C 0.19355 0.04583 0.15059 0.0
C126 C 0.24009 0.04467 0.95118 0.0
H127 H 0.25639 0.04356 0.87184 0.0
C128 C 0.20648 0.05111 0.93131 0.0
H129 H 0.23612 0.03705 0.26439 0.0
C130 C 0.18361 0.05137 0.02845 0.0
H131 H 0.15776 0.05536 0.00654 0.0
H132 H 0.19785 0.05528 0.83845 0.0
H133 H 0.57003 0.28161 0.20907 0.0
C134 C 0.55818 0.29961 0.15123 0.0
C135 C 0.57192 0.33147 0.14459 0.0
C136 C 0.52993 0.29092 0.08053 0.0
H137 H 0.56787 0.37998 0.06902 0.0
C138 C 0.55737 0.35518 0.07035 0.0
C139 C 0.52873 0.34867 1.00342 0.0
C140 C 0.51495 0.31626 0.00738 0.0
C141 C 0.51796 0.2551 0.07603 0.0
H142 H 0.49268 0.31104 0.95506 0.0
C143 C 0.52083 0.23287 0.17715 0.0
C144 C 0.51104 0.19872 0.16476 0.0
C145 C 0.50536 0.24217 0.96386 0.0
H146 H 0.50364 0.25738 0.88343 0.0
C147 C 0.4961 0.20904 0.95072 0.0
H148 H 0.5301 0.24217 0.2651 0.0
C149 C 0.49909 0.18764 0.04863 0.0
H150 H 0.4926 0.16193 0.03115 0.0
H151 H 0.48714 0.19964 0.8624 0.0
Eu152 Eu 0.06007 0.02413 0.81209 0.0
C153 C 0.96594 0.97188 0.49799 0.0
C154 C 0.99464 0.94647 0.32144 0.0
C155 C 0.94539 0.92044 0.40031 0.0
C156 C 0.99172 0.97261 0.41197 0.0
C157 C 0.94251 0.94568 0.49138 0.0
C158 C 0.97135 0.92083 0.31576 0.0
C159 C 0.91261 0.97197 0.65936 0.0
N160 N 0.96305 0.99679 0.58571 0.0
C161 C 0.93518 0.99803 0.65906 0.0
C162 C 0.91641 0.94552 0.57584 0.0
Eu163 Eu 1.00396 0.04021 0.57718 0.0
N164 N 1.01428 0.99786 0.41785 0.0
C165 C 0.03951 0.99787 0.33238 0.0
C166 C 0.02134 0.94617 0.23983 0.0
C167 C 0.04398 0.97182 0.24624 0.0
H168 H 0.92839 1.01991 0.71218 0.0
H169 H 0.06441 0.97224 0.1815 0.0
H170 H 0.97344 0.90085 0.24689 0.0
H171 H 0.89127 0.97318 0.72007 0.0
H172 H 0.05601 1.0182 0.32238 0.0
H173 H 1.0023 0.05457 0.25901 0.0
H174 H 0.02461 0.92633 0.17102 0.0
H175 H 0.12421 0.06687 0.67284 0.0
H176 H 0.02013 1.0181 0.09075 0.0
H177 H 0.15201 0.11967 0.69272 0.0
H178 H 0.92765 0.90034 0.39475 0.0
H179 H 0.02701 0.11053 0.28713 0.0
H180 H 0.06813 0.15186 0.2179 0.0
H181 H 0.89828 0.92575 0.57397 0.0
H182 H 0.10871 0.16933 0.06431 0.0
N183 N 0.04858 0.05477 1.00032 0.0
C184 C 0.02898 0.04321 0.0925 0.0
C185 C 0.03364 0.09494 0.20763 0.0
C186 C 0.0571 0.10522 0.12232 0.0
C187 C 0.01963 0.06368 0.1924 0.0
C188 C 0.06393 0.08454 0.01717 0.0
H189 H 0.1395 0.15791 0.86865 0.0
N190 N 0.09131 0.07512 0.82621 0.0
C191 C 0.13297 0.11343 0.75849 0.0
C192 C 0.08616 0.09477 0.92892 0.0
C193 C 0.11585 0.08352 0.74507 0.0
C194 C 0.12612 0.13473 0.85841 0.0
C195 C 0.10294 0.12537 0.94625 0.0
O196 O 0.11313 1.0175 0.83333 0.0
O197 O 0.0399 1.00039 0.63565 0.0
O198 O 0.97709 0.0443 0.7675 0.0
O199 O 1.00846 1.01036 0.88809 0.0
O200 O 0.04022 0.97123 0.78965 0.0
O201 O 0.08006 0.98947 0.94581 0.0
O202 O 0.95548 0.04388 0.49043 0.0
O203 O 0.0235 0.06341 0.75484 0.0
O204 O 0.08844 0.02333 0.62547 0.0
O205 O 0.05471 0.05163 0.49146 0.0
O206 O 0.02284 0.0935 0.60382 0.0
O207 O 0.99042 0.08245 0.46297 0.0
C208 C 0.03309 0.97117 0.67324 0.0
C209 C 0.13065 0.96372 0.87603 0.0
C210 C 0.13807 0.90368 0.86689 0.0
C211 C 0.11864 0.93183 0.89618 0.0
C212 C 0.16969 0.90746 0.8158 0.0
C213 C 0.16237 0.96721 0.82377 0.0
C214 C 0.18161 0.9392 0.79311 0.0
C215 C 0.98007 0.0259 0.86694 0.0
C216 C 0.11059 0.99342 0.90924 0.0
C217 C 0.09626 0.14574 0.05061 0.0
C218 C 0.07327 0.13576 0.13815 0.0
C219 C 0.02911 0.09311 0.72071 0.0
C220 C 0.93372 0.09814 0.48436 0.0
C221 C 0.93613 0.13035 0.44077 0.0
C222 C 0.91155 0.15417 0.46909 0.0
C223 C 0.88404 0.14568 0.54008 0.0
C224 C 0.90619 0.08996 0.55751 0.0
C225 C 0.8815 0.11358 0.58457 0.0
C226 C 0.08421 0.0394 0.52111 0.0
C227 C 0.95974 0.07344 0.45132 0.0
H228 H 0.09461 0.92881 0.93934 0.0
H229 H 0.18523 0.88598 0.79553 0.0
H230 H 0.17233 0.99158 0.80703 0.0
H231 H 0.20605 0.94216 0.75369 0.0
H232 H 0.95712 0.13694 0.38381 0.0
H233 H 0.86482 0.16381 0.56137 0.0
H234 H 0.90358 0.06538 0.59365 0.0
H235 H 0.86035 0.10696 0.64014 0.0
Eu236 Eu 0.53695 0.07401 0.8232 0.0
C237 C 0.59754 0.97567 0.49339 0.0
C238 C 0.62268 1.00784 0.33222 0.0
C239 C 0.64925 0.95709 0.39541 0.0
C240 C 0.59688 1.00332 0.41939 0.0
C241 C 0.62342 0.95193 0.47919 0.0
C242 C 0.64885 0.98492 0.322 0.0
C243 C 0.59454 0.9169 0.619 0.0
N244 N 0.57215 0.9708 0.57364 0.0
C245 C 0.56939 0.94068 0.62896 0.0
C246 C 0.62207 0.92286 0.54596 0.0
Eu247 Eu 0.52998 1.01292 0.58475 0.0
N248 N 0.57109 0.02532 0.43002 0.0
C249 C 0.56904 0.05048 0.34745 0.0
C250 C 0.62152 0.03516 0.25648 0.0
C251 C 0.59451 0.05642 0.26383 0.0
H252 H 0.54712 0.9339 0.6769 0.0
H253 H 0.59267 0.07694 0.20199 0.0
H254 H 0.66877 0.98832 0.2564 0.0
H255 H 0.59221 0.89355 0.66514 0.0
H256 H 0.54752 0.06565 0.33806 0.0
H257 H 0.51006 1.01389 0.25795 0.0
H258 H 0.64078 0.03939 0.18902 0.0
H259 H 0.49051 0.13475 0.68288 0.0
H260 H 0.54484 0.03328 0.09634 0.0
H261 H 0.43787 0.16271 0.70917 0.0
H262 H 0.66928 0.93924 0.38447 0.0
H263 H 0.45225 0.03468 0.28078 0.0
H264 H 0.4093 0.0748 0.21444 0.0
H265 H 0.64134 0.90412 0.53688 0.0
H266 H 0.39126 0.11739 0.0718 0.0
N267 N 0.50611 0.058 1.00028 0.0
C268 C 0.51903 0.03972 0.09312 0.0
C269 C 0.46721 0.04171 0.20273 0.0
C270 C 0.4556 0.06463 0.11883 0.0
C271 C 0.49941 0.02975 0.19051 0.0
C272 C 0.47579 0.07239 0.01661 0.0
H273 H 0.4015 0.14989 0.88424 0.0
N274 N 0.48426 0.10187 0.83317 0.0
C275 C 0.44491 0.14352 0.77198 0.0
C276 C 0.46514 0.09569 0.93365 0.0
C277 C 0.47485 0.12646 0.75537 0.0
C278 C 0.42465 0.1365 0.8715 0.0
C279 C 0.43469 0.11263 0.95445 0.0
O280 O 0.53969 0.12549 0.88936 0.0
O281 O 0.56882 0.03964 0.69924 0.0
O282 O 0.53325 0.98493 0.76375 0.0
O283 O 0.55702 0.02399 0.89518 0.0
O284 O 0.58291 0.08884 0.71731 0.0
O285 O 0.5699 0.08836 0.97495 0.0
O286 O 0.52387 0.96905 0.46349 0.0
O287 O 0.4978 0.0464 0.71191 0.0
O288 O 0.53698 0.10282 0.64628 0.0
O289 O 0.51537 0.06385 0.50698 0.0
O290 O 0.48901 0.99541 0.70995 0.0
O291 O 0.48602 1.00665 0.46921 0.0
C292 C 0.59118 0.06044 0.66841 0.0
C293 C 0.59356 0.14154 0.94329 0.0
C294 C 0.65335 0.14764 0.9213 0.0
C295 C 0.62553 0.12811 0.94595 0.0
C296 C 0.64898 0.18121 0.89418 0.0
C297 C 0.5895 0.1752 0.91576 0.0
C298 C 0.61708 0.19484 0.8909 0.0
C299 C 0.54748 0.99297 0.86956 0.0
C300 C 0.56452 0.12009 0.9622 0.0
C301 C 0.41479 0.10491 0.05586 0.0
C302 C 0.42498 0.08059 0.13672 0.0
C303 C 0.47814 0.02389 0.7513 0.0
C304 C 0.46867 0.95054 0.47134 0.0
C305 C 0.43514 0.95886 0.46865 0.0
C306 C 0.41085 0.93627 0.50437 0.0
C307 C 0.4203 0.90463 0.54197 0.0
C308 C 0.47803 0.91879 0.51028 0.0
C309 C 0.4539 0.89607 0.54572 0.0
C310 C 0.52445 0.0948 0.53723 0.0
C311 C 0.49328 0.97589 0.43937 0.0
H312 H 0.62894 0.10246 0.9709 0.0
H313 H 0.67017 0.19688 0.87772 0.0
H314 H 0.56504 0.18625 0.91243 0.0
H315 H 0.61373 0.22075 0.87012 0.0
H316 H 0.42781 0.9829 0.43481 0.0
H317 H 0.40178 0.88653 0.56596 0.0
H318 H 0.50385 0.91149 0.51359 0.0
H319 H 0.46126 0.87164 0.57473 0.0
Eu320 Eu 0.55347 0.52973 0.60173 0.0
C321 C 0.41968 0.52242 0.80944 0.0
C322 C 0.38615 0.54973 0.65783 0.0
C323 C 0.36397 0.50257 0.76457 0.0
C324 C 0.41663 0.54581 0.71965 0.0
C325 C 0.39288 0.50134 0.83616 0.0
C326 C 0.36047 0.527 0.67624 0.0
C327 C 0.42159 0.48554 0.0206 0.0
N328 N 0.44704 0.52343 0.88167 0.0
C329 C 0.44696 0.50756 0.99212 0.0
C330 C 0.3948 0.48172 0.94037 0.0
Eu331 Eu 0.49142 0.5583 0.81742 0.0
N332 N 0.44194 0.56743 0.70404 0.0
C333 C 0.4369 0.5956 0.63915 0.0
C334 C 0.38169 0.57749 0.58518 0.0
C335 C 0.40684 0.601 0.57876 0.0
H336 H 0.46749 0.51083 0.05534 0.0
H337 H 0.40325 0.62315 0.52615 0.0
H338 H 0.33722 0.52913 0.6272 0.0
H339 H 0.42247 0.47198 0.10528 0.0
H340 H 0.45575 0.61427 0.63367 0.0
H341 H 0.61552 0.40901 0.65548 0.0
H342 H 0.35855 0.58159 0.53734 0.0
H343 H 0.58781 0.60714 0.64305 0.0
H344 H 0.57278 0.44758 0.5804 0.0
H345 H 0.63906 0.63209 0.71475 0.0
H346 H 0.34331 0.48633 0.78275 0.0
H347 H 0.66483 0.43107 0.76256 0.0
H348 H 0.6984 0.48019 0.82798 0.0
H349 H 0.37471 0.46534 0.96424 0.0
H350 H 0.70564 0.54063 0.83709 0.0
N351 N 0.59436 0.49049 0.66597 0.0
C352 C 0.59316 0.45727 0.63466 0.0
C353 C 0.64548 0.44796 0.73449 0.0
C354 C 0.64898 0.48227 0.7508 0.0
C355 C 0.61768 0.43543 0.67399 0.0
C356 C 0.62283 0.50329 0.71388 0.0
H357 H 0.6843 0.59697 0.7915 0.0
N358 N 0.60186 0.55725 0.67977 0.0
C359 C 0.63596 0.60544 0.71715 0.0
C360 C 0.62699 0.53745 0.71834 0.0
C361 C 0.60639 0.59089 0.67704 0.0
C362 C 0.66145 0.58557 0.75997 0.0
C363 C 0.65726 0.55121 0.76092 0.0
O364 O 0.55644 0.50165 0.42689 0.0
O365 O 0.49946 0.54638 0.61497 0.0
O366 O 0.49505 0.50155 0.83517 0.0
O367 O 0.53872 0.48429 0.71004 0.0
O368 O 0.50858 0.50275 0.51725 0.0
O369 O 0.58736 0.54447 0.45425 0.0
O370 O 0.46658 0.57545 0.98774 0.0
O371 O 0.54678 0.55282 0.79131 0.0
O372 O 0.54077 0.58323 0.54544 0.0
O373 O 0.50944 0.60356 0.71189 0.0
O374 O 0.52876 0.54056 0.96103 0.0
O375 O 0.49447 0.6101 0.8843 0.0
C376 C 0.48542 0.52329 0.551 0.0
C377 C 0.61245 0.49497 0.3703 0.0
C378 C 0.63421 0.43846 0.3401 0.0
C379 C 0.60783 0.46132 0.33678 0.0
C380 C 0.66615 0.44985 0.36782 0.0
C381 C 0.64454 0.50572 0.40184 0.0
C382 C 0.67123 0.48341 0.39836 0.0
C383 C 0.51505 0.47807 0.79007 0.0
C384 C 0.58303 0.51677 0.39139 0.0
C385 C 0.68254 0.53038 0.8026 0.0
C386 C 0.67836 0.496 0.79802 0.0
C387 C 0.55551 0.54179 0.89579 0.0
C388 C 0.44332 0.62881 0.96399 0.0
C389 C 0.44701 0.66268 0.99029 0.0
C390 C 0.41985 0.68451 0.98137 0.0
C391 C 0.38883 0.67231 0.94535 0.0
C392 C 0.41219 0.61697 0.92606 0.0
C393 C 0.38517 0.63856 0.9163 0.0
C394 C 0.52601 0.60822 0.60786 0.0
C395 C 0.47238 0.60652 0.96977 0.0
H396 H 0.5832 0.45244 0.31389 0.0
H397 H 0.68687 0.4327 0.36947 0.0
H398 H 0.64887 0.53107 0.43308 0.0
H399 H 0.69577 0.49197 0.42323 0.0
H400 H 0.47092 0.67199 0.02073 0.0
H401 H 0.3676 0.68877 0.94074 0.0
H402 H 0.40886 0.59106 0.90367 0.0
H403 H 0.3613 0.62906 0.88721 0.0
Eu404 Eu 0.03271 0.55466 0.60855 0.0
C405 C 0.04725 0.43153 0.89761 0.0
C406 C 0.02529 0.38914 0.75812 0.0
C407 C 0.07029 0.37559 0.89654 0.0
C408 C 0.02615 0.42244 0.80249 0.0
C409 C 0.06884 0.40792 0.9484 0.0
C410 C 0.04837 0.36614 0.802 0.0
C411 C 0.08056 0.44744 0.11415 0.0
N412 N 0.04374 0.46229 0.95023 0.0
C413 C 0.058 0.46948 0.06271 0.0
C414 C 0.08682 0.41691 0.05436 0.0
Eu415 Eu 1.00831 0.50018 0.84697 0.0
N416 N 1.00395 0.44519 0.76307 0.0
C417 C 0.9778 0.43526 0.69124 0.0
C418 C 1.00017 0.37957 0.67595 0.0
C419 C 0.97584 0.40254 0.64489 0.0
H420 H 0.05298 0.49305 0.10961 0.0
H421 H 0.95564 0.39513 0.58476 0.0
H422 H 0.04849 0.34063 0.76726 0.0
H423 H 0.09302 0.45398 0.19982 0.0
H424 H 0.95872 0.4526 0.66648 0.0
H425 H 0.07339 0.66881 0.84811 0.0
H426 H 0.9986 0.35425 0.63989 0.0
H427 H 0.99498 0.54972 0.32922 0.0
H428 H 0.07484 0.60916 0.79158 0.0
H429 H 0.95924 0.58456 0.20158 0.0
H430 H 0.08698 0.35723 0.93341 0.0
H431 H 0.03169 0.70544 0.75435 0.0
H432 H 0.98619 0.71247 0.59937 0.0
H433 H 0.1044 0.3999 0.09378 0.0
H434 H 0.95401 0.68899 0.42581 0.0
N435 N 0.03357 0.61154 0.66996 0.0
C436 C 0.05652 0.62476 0.74965 0.0
C437 C 0.03224 0.67923 0.7289 0.0
C438 C 1.01064 0.66602 0.6395 0.0
C439 C 0.05587 0.65866 0.78176 0.0
C440 C 1.01245 0.63173 0.60934 0.0
H441 H 0.94498 0.64168 0.27265 0.0
N442 N 1.00007 0.58647 0.47366 0.0
C443 C 0.96878 0.59432 0.28854 0.0
C444 C 0.99512 0.6188 0.5085 0.0
C445 C 0.98898 0.57461 0.36148 0.0
C446 C 0.96087 0.62663 0.32886 0.0
C447 C 0.97488 0.6396 0.43804 0.0
O448 O 0.06604 0.53407 0.46581 0.0
O449 O 0.03157 0.49994 0.6569 0.0
O450 O 0.06419 0.50749 0.87307 0.0
O451 O 0.07757 0.55011 0.74286 0.0
O452 O 1.01422 0.51208 0.48423 0.0
O453 O 0.07014 0.58542 0.52273 0.0
O454 O 0.95532 0.49657 0.88572 0.0
O455 O 1.01108 0.55426 0.8009 0.0
O456 O 0.97578 0.55532 0.59598 0.0
O457 O 0.96322 0.51065 0.71848 0.0
O458 O 0.01979 0.54364 0.98176 0.0
O459 O 0.99041 0.48686 0.02977 0.0
C460 C 0.02035 0.4875 0.5546 0.0
C461 C 0.11991 0.55729 0.47496 0.0
C462 C 0.16965 0.52295 0.49751 0.0
C463 C 0.13501 0.52589 0.48491 0.0
C464 C 0.18866 0.55237 0.50191 0.0
C465 C 0.13954 0.58592 0.47912 0.0
C466 C 0.17365 0.58341 0.49369 0.0
C467 C 0.08565 0.52919 0.83096 0.0
C468 C 0.08376 0.56081 0.46128 0.0
C469 C 0.97043 0.67296 0.47579 0.0
C470 C 0.98855 0.68626 0.57548 0.0
C471 C 1.01842 0.56772 0.90606 0.0
C472 C 0.94359 0.45169 0.01154 0.0
C473 C 0.90902 0.45043 0.01203 0.0
C474 C 0.89229 0.42013 0.02501 0.0
C475 C 0.91079 0.3907 0.03398 0.0
C476 C 0.96176 0.42208 0.0226 0.0
C477 C 0.9454 0.39174 0.03207 0.0
C478 C 0.95416 0.53372 0.63887 0.0
C479 C 0.95991 0.48388 0.99328 0.0
H480 H 0.11972 0.5039 0.48341 0.0
H481 H 0.2154 0.55176 0.50689 0.0
H482 H 0.12847 0.61031 0.47118 0.0
H483 H 0.18866 0.60563 0.49613 0.0
H484 H 0.8952 0.47352 0.00769 0.0
H485 H 0.89851 0.36717 0.04603 0.0
H486 H 0.98849 0.42228 0.02455 0.0
H487 H 0.95961 0.36907 0.04055 0.0
C488 C 0.1682 0.02338 0.3515 0.0
C489 C 0.16715 0.0457 0.25316 0.0
H490 H 0.14361 1.00356 0.51056 0.0
C491 C 0.13896 0.06676 0.24893 0.0
H492 H 0.18897 1.00649 0.35932 0.0
C493 C 0.11285 0.06495 0.33575 0.0
C494 C 0.11328 0.04195 0.43107 0.0
H495 H 0.13694 0.085 0.17794 0.0
H496 H 0.09222 0.08192 0.32879 0.0
C497 C 0.14184 0.02155 0.43851 0.0
C498 C 0.53838 0.17509 0.35855 0.0
C499 C 0.51336 0.17367 0.26775 0.0
H500 H 0.5615 0.15181 0.51326 0.0
C501 C 0.49129 0.14637 0.27139 0.0
H502 H 0.55611 0.19517 0.36004 0.0
C503 C 0.49498 0.12102 0.35725 0.0
C504 C 0.52033 0.12214 0.44571 0.0
H505 H 0.47078 0.14434 0.20756 0.0
H506 H 0.47754 0.1007 0.3556 0.0
C507 C 0.54164 0.14992 0.44639 0.0
C508 C 0.42185 0.55775 0.32117 0.0
C509 C 0.39709 0.53283 0.31052 0.0
H510 H 0.46811 0.57424 0.40036 0.0
C511 C 0.40194 0.5046 0.38327 0.0
H512 H 0.41964 0.58036 0.27037 0.0
C513 C 0.4302 0.50151 0.46115 0.0
C514 C 0.45442 0.5268 0.4718 0.0
H515 H 0.38434 0.48443 0.37784 0.0
H516 H 0.433 0.4793 0.51407 0.0
C517 C 0.4499 0.55456 0.39799 0.0
C518 C 1.0139 0.41015 0.33255 0.0
C519 C 0.0413 0.39024 0.36409 0.0
H520 H 0.98628 0.45562 0.36559 0.0
C521 C 0.06101 0.40248 0.46414 0.0
H522 H 0.99824 0.40252 0.256 0.0
C523 C 0.05421 0.43318 0.52729 0.0
C524 C 0.027 0.45308 0.49512 0.0
H525 H 0.08225 0.38834 0.49391 0.0
H526 H 0.07066 0.44153 0.60057 0.0
C527 C 1.00717 0.44098 0.39561 0.0
C528 C 0.89774 0.04571 0.04257 0.0
C529 C 0.8975 0.02259 0.13815 0.0
H530 H 0.92331 0.06537 0.88577 0.0
C531 C 0.9246 1.00003 0.14024 0.0
H532 H 0.87796 0.06383 0.03692 0.0
C533 C 0.95083 1.00097 0.05337 0.0
C534 C 0.95145 0.02453 0.95967 0.0
H535 H 0.92571 0.98131 0.20976 0.0
H536 H 0.97072 0.983 0.05992 0.0
C537 C 0.92415 0.04672 0.95567 0.0
C538 C 0.54114 0.90859 0.02701 0.0
C539 C 0.56371 0.91164 0.12575 0.0
H540 H 0.51803 0.9313 0.8722 0.0
C541 C 0.57949 0.94276 0.1427 0.0
H542 H 0.52841 0.88537 0.0089 0.0
C543 C 0.57433 0.96902 0.06142 0.0
C544 C 0.55261 0.96556 0.96063 0.0
H545 H 0.59636 0.94678 0.21856 0.0
H546 H 0.58793 0.99186 0.0764 0.0
C547 C 0.5356 0.93504 0.94664 0.0
C548 C 0.63539 0.52259 0.07971 0.0
C549 C 0.64842 0.55451 0.10655 0.0
H550 H 0.59604 0.49353 0.99521 0.0
C551 C 0.63135 0.58165 0.05532 0.0
H552 H 0.64708 0.50099 0.11807 0.0
C553 C 0.60233 0.57732 0.9837 0.0
C554 C 0.58897 0.54563 0.95888 0.0
H555 H 0.64007 0.6067 0.07334 0.0
H556 H 0.58976 0.59908 0.95023 0.0
C557 C 0.60587 0.51832 0.0093 0.0
C558 C 0.03025 0.64772 0.10995 0.0
C559 C 1.0045 0.66903 0.07304 0.0
H560 H 0.05437 0.59989 0.08822 0.0
C561 C 0.98429 0.65689 0.97428 0.0
H562 H 0.04599 0.65518 0.18659 0.0
C563 C 0.9892 0.62502 0.91683 0.0
C564 C 1.01466 0.60361 0.95512 0.0
H565 H 0.96406 0.67202 0.94182 0.0
H566 H 0.97252 0.61684 0.84406 0.0
C567 C 0.0349 0.61565 0.05345 0.0
C568 C 0.91515 0.21792 0.23073 0.0
C569 C 0.94461 0.23385 0.26763 0.0
H570 H 0.88083 0.17916 0.26999 0.0
C571 C 0.9556 0.23075 0.38985 0.0
H572 H 0.90597 0.22023 0.13745 0.0
C573 C 0.94118 0.20741 0.46529 0.0
C574 C 0.91538 0.18743 0.41982 0.0
H575 H 0.97822 0.24264 0.42121 0.0
H576 H 0.95282 0.2021 0.55264 0.0
C577 C 0.90072 0.19451 0.30644 0.0
C578 C 0.34459 0.99454 0.4368 0.0
C579 C 0.33467 0.97973 0.32449 0.0
H580 H 0.37633 0.99008 0.59311 0.0
C581 C 0.34035 0.94576 0.3013 0.0
H582 H 0.34025 0.02076 0.45575 0.0
C583 C 0.36093 0.92823 0.37945 0.0
C584 C 0.3762 0.94497 0.47915 0.0
H585 H 0.33263 0.93407 0.21473 0.0
H586 H 0.36914 0.90359 0.35006 0.0
C587 C 0.36495 0.97689 0.51561 0.0
C588 C 0.58819 0.35772 0.33981 0.0
C589 C 0.59853 0.34382 0.22611 0.0
H590 H 0.59035 0.40009 0.46133 0.0
C591 C 0.62735 0.35615 0.17043 0.0
H592 H 0.56585 0.34892 0.38366 0.0
C593 C 0.64175 0.38561 0.21588 0.0
C594 C 0.62737 0.40276 0.31713 0.0
H595 H 0.63551 0.346 0.08169 0.0
H596 H 0.66143 0.39686 0.1636 0.0
C597 C 0.60198 0.38746 0.38335 0.0
C598 C 0.24139 0.46754 0.4474 0.0
C599 C 0.22836 0.45329 0.33765 0.0
H600 H 0.23107 0.50354 0.5917 0.0
C601 C 0.19517 0.44299 0.34669 0.0
H602 H 0.26781 0.47066 0.45954 0.0
C603 C 0.17342 0.46383 0.41404 0.0
C604 C 0.18665 0.48989 0.48858 0.0
H605 H 0.1848 0.42643 0.27638 0.0
H606 H 0.14732 0.46229 0.39264 0.0
C607 C 0.22027 0.48709 0.52206 0.0
C608 C 0.0773 0.84008 0.95687 0.0
C609 C 0.09229 0.83004 0.06627 0.0
H610 H 0.08118 0.87183 0.80256 0.0
C611 C 0.12593 0.83659 0.08699 0.0
H612 H 0.05124 0.83544 0.94036 0.0
C613 C 0.14313 0.85705 0.00778 0.0
C614 C 0.12651 0.87141 0.90904 0.0
H615 H 0.13769 0.82918 0.17175 0.0
H616 H 0.16783 0.8651 0.0333 0.0
C617 C 0.09437 0.86086 0.8784 0.0
C618 C 0.71403 0.08086 0.97731 0.0
C619 C 0.72923 0.09484 0.08241 0.0
H620 H 0.67835 0.08826 0.83506 0.0
C621 C 0.72743 0.12922 0.10573 0.0
H622 H 0.71518 0.05431 0.95855 0.0
C623 C 0.70604 0.14855 0.03677 0.0
C624 C 0.68635 0.13339 0.94487 0.0
H625 H 0.73903 0.14024 0.18715 0.0
H626 H 0.70149 0.17402 0.06728 0.0
C627 C 0.69297 0.10028 0.90722 0.0
C628 C 0.4672 0.75984 0.05217 0.0
C629 C 0.45881 0.76319 0.1778 0.0
H630 H 0.45981 0.7311 0.8856 0.0
C631 C 0.42874 0.75001 0.21908 0.0
H632 H 0.49011 0.77003 0.01773 0.0
C633 C 0.41134 0.72774 0.1429 0.0
C634 C 0.4241 0.7189 0.02603 0.0
H635 H 0.4216 0.75279 0.31532 0.0
H636 H 0.39128 0.71372 0.18234 0.0
C637 C 0.44988 0.73752 0.97628 0.0
C638 C 0.81012 0.45966 0.05515 0.0
C639 C 0.80469 0.45275 0.1797 0.0
H640 H 0.84334 0.45301 0.90236 0.0
C641 C 0.81937 0.4243 0.22839 0.0
H642 H 0.79857 0.48108 0.0146 0.0
C643 C 0.84547 0.4086 0.16504 0.0
C644 C 0.85637 0.42114 0.05249 0.0
H645 H 0.81493 0.41813 0.32367 0.0
H646 H 0.86024 0.39066 0.21349 0.0
C647 C 0.83601 0.44375 0.99122 0.0
C648 C 0.03569 0.18589 0.83536 0.0
C649 C 1.01726 0.18682 0.94666 0.0
H650 H 0.05389 0.1564 0.67844 0.0
C651 C 1.00426 0.15573 0.98303 0.0
H652 H 0.04614 0.20859 0.80156 0.0
C653 C 1.00772 0.12614 0.91048 0.0
C654 C 0.02613 0.12512 0.80037 0.0
H655 H 0.99104 0.15383 0.06947 0.0
H656 H 0.99611 0.10374 0.94209 0.0
C657 C 0.03988 0.15572 0.76367 0.0
C658 C 0.40445 0.99837 0.95023 0.0
C659 C 0.37994 0.02355 0.94003 0.0
H660 H 0.45329 0.98023 0.90841 0.0
C661 C 0.38737 0.04861 0.85491 0.0
H662 H 0.39995 0.97691 1.00545 0.0
C663 C 0.41871 0.04936 0.7916 0.0
C664 C 0.44426 0.02603 0.81541 0.0
H665 H 0.36949 0.06815 0.83965 0.0
H666 H 0.42315 0.06864 0.72618 0.0
C667 C 0.43561 0.99996 0.89234 0.0
C668 C 0.52422 0.3832 0.81318 0.0
C669 C 0.51478 0.37776 0.9361 0.0
H670 H 0.53071 0.41835 0.66976 0.0
C671 C 0.50227 0.40519 0.00583 0.0
H672 H 0.53503 0.3631 0.75778 0.0
C673 C 0.501 0.43722 0.95702 0.0
C674 C 0.51215 0.44312 0.83637 0.0
H675 H 0.49605 0.40237 0.10228 0.0
H676 H 0.49348 0.45769 0.01741 0.0
C677 C 0.52265 0.41527 0.76387 0.0
C678 C 0.1815 0.52844 0.87994 0.0
C679 C 0.18433 0.52132 0.00659 0.0
H680 H 0.1487 0.53799 0.72713 0.0
C681 C 0.15436 0.52155 0.07515 0.0
H682 H 0.20351 0.52876 0.8227 0.0
C683 C 0.12314 0.52546 0.01884 0.0
C684 C 0.11994 0.53013 0.89114 0.0
H685 H 0.15488 0.51724 0.1734 0.0
H686 H 0.10127 0.52452 0.07627 0.0
C687 C 0.14985 0.53323 0.82403 0.0
C688 C 1.01397 0.8825 0.53281 0.0
C689 C 0.04123 0.8759 0.45295 0.0
H690 H 0.99036 0.91641 0.66587 0.0
C691 C 0.06659 0.90061 0.45753 0.0
H692 H 0.99401 0.86475 0.53749 0.0
C693 C 0.06325 0.93122 0.52394 0.0
C694 C 0.03534 0.9385 0.5972 0.0
H695 H 0.08984 0.89679 0.40975 0.0
H696 H 0.08315 0.94912 0.51976 0.0
C697 C 1.0116 0.9127 0.60578 0.0
C698 C 0.67816 0.02773 0.55101 0.0
C699 C 0.68866 0.05428 0.47728 0.0
H700 H 0.6398 1.00814 0.6702 0.0
C701 C 0.6679 0.08275 0.48042 0.0
H702 H 0.69324 1.00551 0.55496 0.0
C703 C 0.63692 0.08346 0.53997 0.0
C704 C 0.6248 0.05618 0.60402 0.0
H705 H 0.67509 0.10475 0.43212 0.0
H706 H 0.62198 0.10576 0.53389 0.0
C707 C 0.64692 0.02889 0.61493 0.0
C708 C 0.51298 0.70272 0.5796 0.0
C709 C 0.53158 0.71047 0.47406 0.0
H710 H 0.49659 0.66553 0.70366 0.0
C711 C 0.54941 0.68425 0.41504 0.0
H712 H 0.49791 0.72177 0.62509 0.0
C713 C 0.54811 0.65141 0.45854 0.0
C714 C 0.52871 0.64351 0.56235 0.0
H715 H 0.56296 0.68878 0.33085 0.0
H716 H 0.5617 0.63203 0.40864 0.0
C717 C 0.51179 0.67006 0.62346 0.0
C718 C 0.87391 0.5565 0.45762 0.0
C719 C 0.85167 0.53094 0.48757 0.0
H720 H 0.92253 0.57793 0.48138 0.0
C721 C 0.8631 0.50796 0.57456 0.0
H722 H 0.86688 0.57425 0.38918 0.0
C723 C 0.89541 0.50953 0.62536 0.0
C724 C 0.91828 0.53412 0.59158 0.0
H725 H 0.84738 0.48744 0.599 0.0
H726 H 0.90279 0.49052 0.68848 0.0
C727 C 0.90639 0.55816 0.5091 0.0
loop_
_geom_bond_atom_site_label_1
_geom_bond_atom_site_label_2
_geom_bond_distance
_geom_bond_site_symmetry_2
_ccdc_geom_bond_type
H0 C1 0.949 . S
C1 H0 0.949 . S
C1 C2 1.395 . S
C1 C3 1.391 . S
C2 C1 1.395 . S
C2 C5 1.390 . S
C3 C1 1.391 . S
C3 C7 1.387 . S
C3 C8 1.491 . S
H4 C5 0.950 . S
C5 C2 1.390 . S
C5 H4 0.950 . S
C5 C6 1.378 . S
C6 C5 1.378 . S
C6 C7 1.409 . S
C7 C3 1.387 . S
C7 C6 1.409 . S
C7 H9 0.951 . S
C8 C3 1.491 . S
C8 C10 1.382 . S
C8 C12 1.404 . S
H9 C7 0.951 . S
C10 C8 1.382 . S
C10 C11 1.390 . S
C10 H15 0.949 . S
C11 C10 1.390 . S
C11 C16 1.399 . S
C12 C8 1.404 . S
C12 H13 0.950 . S
C12 C14 1.375 . S
H13 C12 0.950 . S
C14 C12 1.375 . S
C14 C16 1.382 . S
C14 H18 0.950 . S
H15 C10 0.949 . S
C16 C11 1.399 . S
C16 C14 1.382 . S
C16 H17 0.952 . S
H17 C16 0.952 . S
H18 C14 0.950 . S
H19 C20 0.949 . S
C20 H19 0.949 . S
C20 C21 1.395 . S
C20 C22 1.391 . S
C21 C20 1.395 . S
C21 C24 1.390 . S
C22 C20 1.391 . S
C22 C26 1.387 . S
C22 C27 1.491 . S
H23 C24 0.950 . S
C24 C21 1.390 . S
C24 H23 0.950 . S
C24 C25 1.378 . S
C25 C24 1.378 . S
C25 C26 1.409 . S
C26 C22 1.387 . S
C26 C25 1.409 . S
C26 H28 0.951 . S
C27 C22 1.491 . S
C27 C29 1.382 . S
C27 C31 1.404 . S
H28 C26 0.951 . S
C29 C27 1.382 . S
C29 C30 1.390 . S
C29 H34 0.949 . S
C30 C29 1.390 . S
C30 C35 1.399 . S
C31 C27 1.404 . S
C31 H32 0.950 . S
C31 C33 1.375 . S
H32 C31 0.950 . S
C33 C31 1.375 . S
C33 C35 1.382 . S
C33 H37 0.950 . S
H34 C29 0.949 . S
C35 C30 1.399 . S
C35 C33 1.382 . S
C35 H36 0.952 . S
H36 C35 0.952 . S
H37 C33 0.950 . S
H38 C39 0.949 . S
C39 H38 0.949 . S
C39 C40 1.395 . S
C39 C41 1.391 . S
C40 C39 1.395 . S
C40 C43 1.390 . S
C41 C39 1.391 . S
C41 C45 1.387 . S
C41 C46 1.491 . S
H42 C43 0.950 . S
C43 C40 1.390 . S
C43 H42 0.950 . S
C43 C44 1.378 . S
C44 C43 1.378 . S
C44 C45 1.409 . S
C45 C41 1.387 . S
C45 C44 1.409 . S
C45 H47 0.951 . S
C46 C41 1.491 . S
C46 C48 1.382 . S
C46 C50 1.404 . S
H47 C45 0.951 . S
C48 C46 1.382 . S
C48 C49 1.390 . S
C48 H53 0.949 . S
C49 C48 1.390 . S
C49 C54 1.399 . S
C50 C46 1.404 . S
C50 H51 0.950 . S
C50 C52 1.375 . S
H51 C50 0.950 . S
C52 C50 1.375 . S
C52 C54 1.382 . S
C52 H56 0.950 . S
H53 C48 0.949 . S
C54 C49 1.399 . S
C54 C52 1.382 . S
C54 H55 0.952 . S
H55 C54 0.952 . S
H56 C52 0.950 . S
H57 C58 0.949 . S
C58 H57 0.949 . S
C58 C59 1.395 . S
C58 C60 1.391 . S
C59 C58 1.395 . S
C59 C62 1.390 . S
C60 C58 1.391 . S
C60 C64 1.387 . S
C60 C65 1.491 . S
H61 C62 0.950 . S
C62 C59 1.390 . S
C62 H61 0.950 . S
C62 C63 1.378 . S
C63 C62 1.378 . S
C63 C64 1.409 . S
C64 C60 1.387 . S
C64 C63 1.409 . S
C64 H66 0.951 . S
C65 C60 1.491 . S
C65 C67 1.382 . S
C65 C69 1.404 . S
H66 C64 0.951 . S
C67 C65 1.382 . S
C67 C68 1.390 . S
C67 H72 0.949 . S
C68 C67 1.390 . S
C68 C73 1.399 . S
C69 C65 1.404 . S
C69 H70 0.950 . S
C69 C71 1.375 . S
H70 C69 0.950 . S
C71 C69 1.375 . S
C71 C73 1.382 . S
C71 H75 0.950 . S
H72 C67 0.949 . S
C73 C68 1.399 . S
C73 C71 1.382 . S
C73 H74 0.952 . S
H74 C73 0.952 . S
H75 C71 0.950 . S
H76 C77 0.949 . S
C77 H76 0.949 . S
C77 C78 1.395 . S
C77 C79 1.391 1_554 S
C78 C77 1.395 . S
C78 C81 1.390 1_554 S
C79 C77 1.391 1_556 S
C79 C83 1.387 . S
C79 C84 1.491 . S
H80 C81 0.950 . S
C81 C78 1.390 1_556 S
C81 H80 0.950 . S
C81 C82 1.378 . S
C82 C81 1.378 . S
C82 C83 1.409 . S
C83 C79 1.387 . S
C83 C82 1.409 . S
C83 H85 0.951 . S
C84 C79 1.491 . S
C84 C86 1.382 1_556 S
C84 C88 1.404 . S
H85 C83 0.951 . S
C86 C84 1.382 1_554 S
C86 C87 1.390 . S
C86 H91 0.949 . S
C87 C86 1.390 . S
C87 C92 1.399 1_554 S
C88 C84 1.404 . S
C88 H89 0.950 . S
C88 C90 1.375 . S
H89 C88 0.950 . S
C90 C88 1.375 . S
C90 C92 1.382 . S
C90 H94 0.950 . S
H91 C86 0.949 . S
C92 C87 1.399 1_556 S
C92 C90 1.382 . S
C92 H93 0.952 . S
H93 C92 0.952 . S
H94 C90 0.950 . S
H95 C96 0.949 . S
C96 H95 0.949 . S
C96 C97 1.395 . S
C96 C98 1.391 1_554 S
C97 C96 1.395 . S
C97 C100 1.390 1_554 S
C98 C96 1.391 1_556 S
C98 C102 1.387 . S
C98 C103 1.491 . S
H99 C100 0.950 . S
C100 C97 1.390 1_556 S
C100 H99 0.950 . S
C100 C101 1.378 . S
C101 C100 1.378 . S
C101 C102 1.409 . S
C102 C98 1.387 . S
C102 C101 1.409 . S
C102 H104 0.951 . S
C103 C98 1.491 . S
C103 C105 1.382 1_556 S
C103 C107 1.404 . S
H104 C102 0.951 . S
C105 C103 1.382 1_554 S
C105 C106 1.390 . S
C105 H110 0.949 . S
C106 C105 1.390 . S
C106 C111 1.399 1_554 S
C107 C103 1.404 . S
C107 H108 0.950 . S
C107 C109 1.375 . S
H108 C107 0.950 . S
C109 C107 1.375 . S
C109 C111 1.382 . S
C109 H113 0.950 1_455 S
H110 C105 0.949 . S
C111 C106 1.399 1_556 S
C111 C109 1.382 . S
C111 H112 0.952 . S
H112 C111 0.952 . S
H113 C109 0.950 1_655 S
H114 C115 0.949 . S
C115 H114 0.949 . S
C115 C116 1.395 . S
C115 C117 1.391 1_554 S
C116 C115 1.395 . S
C116 C119 1.390 1_554 S
C117 C115 1.391 1_556 S
C117 C121 1.387 . S
C117 C122 1.491 . S
H118 C119 0.950 . S
C119 C116 1.390 1_556 S
C119 H118 0.950 . S
C119 C120 1.378 . S
C120 C119 1.378 . S
C120 C121 1.409 . S
C121 C117 1.387 . S
C121 C120 1.409 . S
C121 H123 0.951 . S
C122 C117 1.491 . S
C122 C124 1.382 1_556 S
C122 C126 1.404 . S
H123 C121 0.951 . S
C124 C122 1.382 1_554 S
C124 C125 1.390 . S
C124 H129 0.949 . S
C125 C124 1.390 . S
C125 C130 1.399 1_554 S
C126 C122 1.404 . S
C126 H127 0.950 . S
C126 C128 1.375 . S
H127 C126 0.950 . S
C128 C126 1.375 . S
C128 C130 1.382 . S
C128 H132 0.950 1_545 S
H129 C124 0.949 . S
C130 C125 1.399 1_556 S
C130 C128 1.382 . S
C130 H131 0.952 . S
H131 C130 0.952 . S
H132 C128 0.950 1_565 S
H133 C134 0.949 . S
C134 H133 0.949 . S
C134 C135 1.395 . S
C134 C136 1.391 1_554 S
C135 C134 1.395 . S
C135 C138 1.390 1_554 S
C136 C134 1.391 1_556 S
C136 C140 1.387 . S
C136 C141 1.491 . S
H137 C138 0.950 . S
C138 C135 1.390 1_556 S
C138 H137 0.950 . S
C138 C139 1.378 . S
C139 C138 1.378 . S
C139 C140 1.409 . S
C140 C136 1.387 . S
C140 C139 1.409 . S
C140 H142 0.951 . S
C141 C136 1.491 . S
C141 C143 1.382 1_556 S
C141 C145 1.404 . S
H142 C140 0.951 . S
C143 C141 1.382 1_554 S
C143 C144 1.390 . S
C143 H148 0.949 . S
C144 C143 1.390 . S
C144 C149 1.399 1_554 S
C145 C141 1.404 . S
C145 H146 0.950 . S
C145 C147 1.375 . S
H146 C145 0.950 . S
C147 C145 1.375 . S
C147 C149 1.382 . S
C147 H151 0.950 . S
H148 C143 0.949 . S
C149 C144 1.399 1_556 S
C149 C147 1.382 . S
C149 H150 0.952 . S
H150 C149 0.952 . S
H151 C147 0.950 . S
Eu152 N183 2.657 1_566 S
Eu152 N190 2.609 1_565 S
Eu152 O196 2.558 . S
Eu152 O197 2.612 1_455 S
Eu152 O199 2.345 1_455 S
Eu152 O200 2.563 . S
Eu152 O201 2.419 1_556 S
Eu152 O203 2.380 1_565 S
Eu152 O204 2.432 . S
Eu152 C216 2.848 . S
C153 C156 1.430 1_545 S
C153 C157 1.412 1_545 S
C153 N160 1.376 . S
C154 C156 1.420 . S
C154 C158 1.423 . S
C154 C166 1.392 . S
C155 C157 1.420 . S
C155 C158 1.351 . S
C155 H178 0.931 . S
C156 C153 1.430 1_565 S
C156 C154 1.420 . S
C156 N164 1.362 . S
C157 C153 1.412 1_565 S
C157 C155 1.420 . S
C157 C162 1.395 1_565 S
C158 C154 1.423 . S
C158 C155 1.351 . S
C158 H170 0.930 . S
C159 C161 1.400 . S
C159 C162 1.386 . S
C159 H171 0.930 . S
N160 C153 1.376 . S
N160 C161 1.321 . S
N160 Eu163 2.609 . S
C161 C159 1.400 . S
C161 N160 1.321 . S
C161 H168 0.930 . S
C162 C157 1.395 1_545 S
C162 C159 1.386 . S
C162 H181 0.930 . S
Eu163 N160 2.609 . S
Eu163 N164 2.657 1_545 S
Eu163 O197 2.380 1_545 S
Eu163 O198 2.432 . S
Eu163 O202 2.558 . S
Eu163 O203 2.612 1_655 S
Eu163 O205 2.339 1_655 S
Eu163 O206 2.563 1_655 S
Eu163 O207 2.419 . S
Eu163 C227 2.848 . S
N164 C156 1.362 . S
N164 Eu163 2.657 1_565 S
N164 C165 1.334 1_655 S
C165 N164 1.334 1_455 S
C165 C167 1.413 . S
C165 H172 0.929 . S
C166 C154 1.392 . S
C166 C167 1.367 1_655 S
C166 H174 0.930 . S
C167 C165 1.413 . S
C167 C166 1.367 1_455 S
C167 H169 0.930 . S
H168 C161 0.930 . S
H169 C167 0.930 . S
H170 C158 0.930 . S
H171 C159 0.930 . S
H172 C165 0.929 . S
H173 C187 0.930 1_655 S
H174 C166 0.930 . S
H175 C193 0.930 . S
H176 C184 0.929 1_655 S
H177 C191 0.930 . S
H178 C155 0.931 . S
H179 C185 0.930 . S
H180 C218 0.930 . S
H181 C162 0.930 . S
H182 C217 0.931 . S
N183 Eu152 2.657 1_544 S
N183 C184 1.334 . S
N183 C188 1.362 . S
C184 H176 0.929 1_455 S
C184 N183 1.334 . S
C184 C187 1.413 . S
C185 H179 0.930 . S
C185 C186 1.392 . S
C185 C187 1.367 . S
C186 C185 1.392 . S
C186 C188 1.420 . S
C186 C218 1.423 . S
C187 H173 0.930 1_455 S
C187 C184 1.413 . S
C187 C185 1.367 . S
C188 N183 1.362 . S
C188 C186 1.420 . S
C188 C192 1.429 . S
H189 C194 0.930 . S
N190 Eu152 2.609 1_545 S
N190 C192 1.377 1_556 S
N190 C193 1.321 1_545 S
C191 H177 0.930 . S
C191 C193 1.400 . S
C191 C194 1.386 1_566 S
C192 C188 1.429 . S
C192 N190 1.377 1_554 S
C192 C195 1.411 . S
C193 H175 0.930 . S
C193 N190 1.321 1_565 S
C193 C191 1.400 . S
C194 H189 0.930 . S
C194 C191 1.386 1_544 S
C194 C195 1.395 . S
C195 C192 1.411 . S
C195 C194 1.395 . S
C195 C217 1.420 . S
O196 Eu152 2.558 . S
O196 C216 1.257 . S
O197 Eu152 2.612 1_655 S
O197 Eu163 2.380 1_565 S
O197 C208 1.276 . S
O198 Eu163 2.432 . S
O198 C215 1.264 . S
O199 Eu152 2.345 1_655 S
O199 C215 1.245 1_565 S
O200 Eu152 2.563 . S
O200 C208 1.235 1_455 S
O201 Eu152 2.419 1_554 S
O201 C216 1.249 1_554 S
O202 Eu163 2.558 . S
O202 C227 1.257 . S
O203 Eu152 2.380 1_545 S
O203 Eu163 2.612 1_455 S
O203 C219 1.276 . S
O204 Eu152 2.432 . S
O204 C226 1.264 1_565 S
O205 Eu163 2.339 1_455 S
O205 C226 1.254 . S
O206 Eu163 2.563 1_455 S
O206 C219 1.235 . S
O207 Eu163 2.419 . S
O207 C227 1.249 . S
C208 O197 1.276 . S
C208 O200 1.235 1_655 S
C209 C211 1.393 . S
C209 C213 1.395 . S
C209 C216 1.492 1_554 S
C210 C211 1.392 . S
C210 C212 1.386 . S
C211 C209 1.393 . S
C211 C210 1.392 . S
C211 H228 0.930 . S
C212 C210 1.386 . S
C212 C214 1.395 . S
C212 H229 0.930 . S
C213 C209 1.395 . S
C213 C214 1.379 . S
C213 H230 0.930 . S
C214 C212 1.395 . S
C214 C213 1.379 . S
C214 H231 0.930 . S
C215 O198 1.264 . S
C215 O199 1.245 1_545 S
C216 Eu152 2.848 . S
C216 O196 1.257 . S
C216 O201 1.249 1_556 S
C216 C209 1.492 1_556 S
C217 H182 0.931 . S
C217 C195 1.420 . S
C217 C218 1.351 . S
C218 H180 0.930 . S
C218 C186 1.423 . S
C218 C217 1.351 . S
C219 O203 1.276 . S
C219 O206 1.235 . S
C220 C221 1.393 . S
C220 C224 1.395 . S
C220 C227 1.492 . S
C221 C220 1.393 . S
C221 C222 1.392 . S
C221 H232 0.930 1_655 S
C222 C221 1.392 . S
C222 C223 1.386 . S
C223 C222 1.386 . S
C223 C225 1.395 . S
C223 H233 0.930 . S
C224 C220 1.395 . S
C224 C225 1.379 . S
C224 H234 0.930 . S
C225 C223 1.395 . S
C225 C224 1.379 . S
C225 H235 0.930 . S
C226 O204 1.264 1_545 S
C226 O205 1.254 . S
C227 Eu163 2.848 . S
C227 O202 1.257 . S
C227 O207 1.249 . S
C227 C220 1.492 . S
H228 C211 0.930 . S
H229 C212 0.930 . S
H230 C213 0.930 . S
H231 C214 0.930 . S
H232 C221 0.930 1_455 S
H233 C223 0.930 . S
H234 C224 0.930 . S
H235 C225 0.930 . S
Eu236 N267 2.657 1_556 S
Eu236 N274 2.609 . S
Eu236 O280 2.558 . S
Eu236 O281 2.612 1_545 S
Eu236 O283 2.339 1_545 S
Eu236 O284 2.563 . S
Eu236 O285 2.419 1_556 S
Eu236 O287 2.380 . S
Eu236 O288 2.432 . S
Eu236 C300 2.848 . S
C237 C240 1.429 . S
C237 C241 1.411 . S
C237 N244 1.377 . S
C238 C240 1.420 . S
C238 C242 1.423 . S
C238 C250 1.392 . S
C239 C241 1.420 . S
C239 C242 1.351 . S
C239 H262 0.931 . S
C240 C237 1.429 . S
C240 C238 1.420 . S
C240 N248 1.362 . S
C241 C237 1.411 . S
C241 C239 1.420 . S
C241 C246 1.395 . S
C242 C238 1.423 . S
C242 C239 1.351 . S
C242 H254 0.930 . S
C243 C245 1.400 . S
C243 C246 1.386 . S
C243 H255 0.930 . S
N244 C237 1.377 . S
N244 C245 1.321 . S
N244 Eu247 2.609 . S
C245 C243 1.400 . S
C245 N244 1.321 . S
C245 H252 0.930 . S
C246 C241 1.395 . S
C246 C243 1.386 . S
C246 H265 0.930 . S
Eu247 N244 2.609 . S
Eu247 N248 2.657 . S
Eu247 O281 2.380 . S
Eu247 O282 2.432 . S
Eu247 O286 2.558 . S
Eu247 O287 2.612 1_565 S
Eu247 O289 2.339 1_565 S
Eu247 O290 2.563 1_565 S
Eu247 O291 2.419 . S
Eu247 C311 2.848 . S
N248 C240 1.362 . S
N248 Eu247 2.657 . S
N248 C249 1.334 1_565 S
C249 N248 1.334 1_545 S
C249 C251 1.413 . S
C249 H256 0.929 . S
C250 C238 1.392 . S
C250 C251 1.367 1_565 S
C250 H258 0.930 . S
C251 C249 1.413 . S
C251 C250 1.367 1_545 S
C251 H253 0.930 . S
H252 C245 0.930 . S
H253 C251 0.930 . S
H254 C242 0.930 . S
H255 C243 0.930 . S
H256 C249 0.929 . S
H257 C271 0.930 1_565 S
H258 C250 0.930 . S
H259 C277 0.930 . S
H260 C268 0.929 1_565 S
H261 C275 0.930 . S
H262 C239 0.931 . S
H263 C269 0.930 . S
H264 C302 0.930 . S
H265 C246 0.930 . S
H266 C301 0.931 . S
N267 Eu236 2.657 1_554 S
N267 C268 1.334 . S
N267 C272 1.362 . S
C268 H260 0.929 1_545 S
C268 N267 1.334 . S
C268 C271 1.413 . S
C269 H263 0.930 . S
C269 C270 1.392 . S
C269 C271 1.367 . S
C270 C269 1.392 . S
C270 C272 1.420 . S
C270 C302 1.423 . S
C271 H257 0.930 1_545 S
C271 C268 1.413 . S
C271 C269 1.367 . S
C272 N267 1.362 . S
C272 C270 1.420 . S
C272 C276 1.429 . S
H273 C278 0.930 . S
N274 Eu236 2.609 . S
N274 C276 1.377 1_556 S
N274 C277 1.321 . S
C275 H261 0.930 . S
C275 C277 1.400 . S
C275 C278 1.386 1_556 S
C276 C272 1.429 . S
C276 N274 1.377 1_554 S
C276 C279 1.411 . S
C277 H259 0.930 . S
C277 N274 1.321 . S
C277 C275 1.400 . S
C278 H273 0.930 . S
C278 C275 1.386 1_554 S
C278 C279 1.395 . S
C279 C276 1.411 . S
C279 C278 1.395 . S
C279 C301 1.420 . S
O280 Eu236 2.558 . S
O280 C300 1.257 . S
O281 Eu236 2.612 1_565 S
O281 Eu247 2.380 . S
O281 C292 1.276 . S
O282 Eu247 2.432 . S
O282 C299 1.264 . S
O283 Eu236 2.339 1_565 S
O283 C299 1.254 . S
O284 Eu236 2.563 . S
O284 C292 1.235 1_545 S
O285 Eu236 2.419 1_554 S
O285 C300 1.249 1_554 S
O286 Eu247 2.558 . S
O286 C311 1.257 . S
O287 Eu236 2.380 . S
O287 Eu247 2.612 1_545 S
O287 C303 1.276 . S
O288 Eu236 2.432 . S
O288 C310 1.264 . S
O289 Eu247 2.339 1_545 S
O289 C310 1.254 . S
O290 Eu247 2.563 1_545 S
O290 C303 1.235 . S
O291 Eu247 2.419 . S
O291 C311 1.249 . S
C292 O281 1.276 . S
C292 O284 1.235 1_565 S
C293 C295 1.393 . S
C293 C297 1.395 . S
C293 C300 1.492 1_554 S
C294 C295 1.392 . S
C294 C296 1.386 . S
C295 C293 1.393 . S
C295 C294 1.392 . S
C295 H312 0.930 . S
C296 C294 1.386 . S
C296 C298 1.395 . S
C296 H313 0.930 . S
C297 C293 1.395 . S
C297 C298 1.379 . S
C297 H314 0.930 . S
C298 C296 1.395 . S
C298 C297 1.379 . S
C298 H315 0.930 . S
C299 O282 1.264 . S
C299 O283 1.254 . S
C300 Eu236 2.848 . S
C300 O280 1.257 . S
C300 O285 1.249 1_556 S
C300 C293 1.492 1_556 S
C301 H266 0.931 . S
C301 C279 1.420 . S
C301 C302 1.351 . S
C302 H264 0.930 . S
C302 C270 1.423 . S
C302 C301 1.351 . S
C303 O287 1.276 . S
C303 O290 1.235 . S
C304 C305 1.393 . S
C304 C308 1.395 . S
C304 C311 1.492 . S
C305 C304 1.393 . S
C305 C306 1.392 . S
C305 H316 0.930 1_565 S
C306 C305 1.392 . S
C306 C307 1.386 . S
C307 C306 1.386 . S
C307 C309 1.395 . S
C307 H317 0.930 . S
C308 C304 1.395 . S
C308 C309 1.379 . S
C308 H318 0.930 . S
C309 C307 1.395 . S
C309 C308 1.379 . S
C309 H319 0.930 . S
C310 O288 1.264 . S
C310 O289 1.254 . S
C311 Eu247 2.848 . S
C311 O286 1.257 . S
C311 O291 1.249 . S
C311 C304 1.492 . S
H312 C295 0.930 . S
H313 C296 0.930 . S
H314 C297 0.930 . S
H315 C298 0.930 . S
H316 C305 0.930 1_545 S
H317 C307 0.930 . S
H318 C308 0.930 . S
H319 C309 0.930 . S
Eu320 N351 2.657 . S
Eu320 N358 2.609 . S
Eu320 O364 2.558 . S
Eu320 O365 2.612 . S
Eu320 O367 2.339 . S
Eu320 O368 2.563 . S
Eu320 O369 2.419 . S
Eu320 O371 2.380 . S
Eu320 O372 2.432 . S
Eu320 C384 2.848 . S
C321 C324 1.429 . S
C321 C325 1.411 . S
C321 N328 1.377 . S
C322 C324 1.420 . S
C322 C326 1.423 . S
C322 C334 1.392 . S
C323 C325 1.420 . S
C323 C326 1.351 . S
C323 H346 0.931 . S
C324 C321 1.429 . S
C324 C322 1.420 . S
C324 N332 1.362 . S
C325 C321 1.411 . S
C325 C323 1.420 . S
C325 C330 1.395 1_556 S
C326 C322 1.423 . S
C326 C323 1.351 . S
C326 H338 0.930 . S
C327 C329 1.400 . S
C327 C330 1.386 . S
C327 H339 0.930 . S
N328 C321 1.377 . S
N328 C329 1.321 1_556 S
N328 Eu331 2.609 . S
C329 C327 1.400 . S
C329 N328 1.321 1_554 S
C329 H336 0.930 . S
C330 C325 1.395 1_554 S
C330 C327 1.386 . S
C330 H349 0.930 . S
Eu331 N328 2.609 . S
Eu331 N332 2.657 . S
Eu331 O365 2.380 . S
Eu331 O366 2.432 . S
Eu331 O370 2.558 1_556 S
Eu331 O371 2.612 . S
Eu331 O373 2.339 . S
Eu331 O374 2.563 . S
Eu331 O375 2.419 . S
Eu331 C395 2.848 1_556 S
N332 C324 1.362 . S
N332 Eu331 2.657 . S
N332 C333 1.334 . S
C333 N332 1.334 . S
C333 C335 1.413 . S
C333 H340 0.929 . S
C334 C322 1.392 . S
C334 C335 1.367 . S
C334 H342 0.930 . S
C335 C333 1.413 . S
C335 C334 1.367 . S
C335 H337 0.930 . S
H336 C329 0.930 . S
H337 C335 0.930 . S
H338 C326 0.930 . S
H339 C327 0.930 . S
H340 C333 0.929 . S
H341 C355 0.930 . S
H342 C334 0.930 . S
H343 C361 0.930 . S
H344 C352 0.929 . S
H345 C359 0.930 . S
H346 C323 0.931 . S
H347 C353 0.930 . S
H348 C386 0.930 . S
H349 C330 0.930 . S
H350 C385 0.931 . S
N351 Eu320 2.657 . S
N351 C352 1.334 . S
N351 C356 1.362 . S
C352 H344 0.929 . S
C352 N351 1.334 . S
C352 C355 1.413 . S
C353 H347 0.930 . S
C353 C354 1.392 . S
C353 C355 1.367 . S
C354 C353 1.392 . S
C354 C356 1.420 . S
C354 C386 1.423 . S
C355 H341 0.930 . S
C355 C352 1.413 . S
C355 C353 1.367 . S
C356 N351 1.362 . S
C356 C354 1.420 . S
C356 C360 1.429 . S
H357 C362 0.930 . S
N358 Eu320 2.609 . S
N358 C360 1.377 . S
N358 C361 1.321 . S
C359 H345 0.930 . S
C359 C361 1.400 . S
C359 C362 1.386 . S
C360 C356 1.429 . S
C360 N358 1.377 . S
C360 C363 1.411 . S
C361 H343 0.930 . S
C361 N358 1.321 . S
C361 C359 1.400 . S
C362 H357 0.930 . S
C362 C359 1.386 . S
C362 C363 1.395 . S
C363 C360 1.411 . S
C363 C362 1.395 . S
C363 C385 1.420 . S
O364 Eu320 2.558 . S
O364 C384 1.257 . S
O365 Eu320 2.612 . S
O365 Eu331 2.380 . S
O365 C376 1.276 . S
O366 Eu331 2.432 . S
O366 C383 1.264 . S
O367 Eu320 2.339 . S
O367 C383 1.254 . S
O368 Eu320 2.563 . S
O368 C376 1.235 . S
O369 Eu320 2.419 . S
O369 C384 1.249 . S
O370 Eu331 2.558 1_554 S
O370 C395 1.257 . S
O371 Eu320 2.380 . S
O371 Eu331 2.612 . S
O371 C387 1.276 . S
O372 Eu320 2.432 . S
O372 C394 1.264 . S
O373 Eu331 2.339 . S
O373 C394 1.254 . S
O374 Eu331 2.563 . S
O374 C387 1.235 . S
O375 Eu331 2.419 . S
O375 C395 1.249 1_556 S
C376 O365 1.276 . S
C376 O368 1.235 . S
C377 C379 1.393 . S
C377 C381 1.395 . S
C377 C384 1.492 . S
C378 C379 1.392 . S
C378 C380 1.386 . S
C379 C377 1.393 . S
C379 C378 1.392 . S
C379 H396 0.930 . S
C380 C378 1.386 . S
C380 C382 1.395 . S
C380 H397 0.930 . S
C381 C377 1.395 . S
C381 C382 1.379 . S
C381 H398 0.930 . S
C382 C380 1.395 . S
C382 C381 1.379 . S
C382 H399 0.930 1_554 S
C383 O366 1.264 . S
C383 O367 1.254 . S
C384 Eu320 2.848 . S
C384 O364 1.257 . S
C384 O369 1.249 . S
C384 C377 1.492 . S
C385 H350 0.931 . S
C385 C363 1.420 . S
C385 C386 1.351 . S
C386 H348 0.930 . S
C386 C354 1.423 . S
C386 C385 1.351 . S
C387 O371 1.276 . S
C387 O374 1.235 . S
C388 C389 1.393 . S
C388 C392 1.395 . S
C388 C395 1.492 . S
C389 C388 1.393 . S
C389 C390 1.392 . S
C389 H400 0.930 . S
C390 C389 1.392 . S
C390 C391 1.386 . S
C391 C390 1.386 . S
C391 C393 1.395 . S
C391 H401 0.930 . S
C392 C388 1.395 . S
C392 C393 1.379 . S
C392 H402 0.930 . S
C393 C391 1.395 . S
C393 C392 1.379 . S
C393 H403 0.930 . S
C394 O372 1.264 . S
C394 O373 1.254 . S
C395 Eu331 2.848 1_554 S
C395 O370 1.257 . S
C395 O375 1.249 1_554 S
C395 C388 1.492 . S
H396 C379 0.930 . S
H397 C380 0.930 . S
H398 C381 0.930 . S
H399 C382 0.930 1_556 S
H400 C389 0.930 . S
H401 C391 0.930 . S
H402 C392 0.930 . S
H403 C393 0.930 . S
Eu404 N435 2.657 . S
Eu404 N442 2.609 . S
Eu404 O448 2.558 . S
Eu404 O449 2.612 . S
Eu404 O451 2.339 . S
Eu404 O452 2.563 . S
Eu404 O453 2.419 . S
Eu404 O455 2.380 . S
Eu404 O456 2.432 1_455 S
Eu404 C468 2.848 . S
C405 C408 1.429 . S
C405 C409 1.411 . S
C405 N412 1.369 1_655 S
C406 C408 1.420 . S
C406 C410 1.423 . S
C406 C418 1.392 . S
C407 C409 1.420 . S
C407 C410 1.351 . S
C407 H430 0.931 . S
C408 C405 1.429 . S
C408 C406 1.420 . S
C408 N416 1.362 . S
C409 C405 1.411 . S
C409 C407 1.420 . S
C409 C414 1.395 1_656 S
C410 C406 1.423 . S
C410 C407 1.351 . S
C410 H422 0.930 . S
C411 C413 1.400 . S
C411 C414 1.386 . S
C411 H423 0.930 . S
N412 C405 1.369 1_455 S
N412 C413 1.332 1_556 S
N412 Eu415 2.605 1_455 S
C413 C411 1.400 . S
C413 N412 1.332 1_554 S
C413 H420 0.930 . S
C414 C409 1.395 1_454 S
C414 C411 1.386 . S
C414 H433 0.930 . S
Eu415 N412 2.605 1_655 S
Eu415 N416 2.657 . S
Eu415 O449 2.380 1_655 S
Eu415 O450 2.432 1_655 S
Eu415 O454 2.558 1_556 S
Eu415 O455 2.612 1_655 S
Eu415 O457 2.339 . S
Eu415 O458 2.563 . S
Eu415 O459 2.419 . S
Eu415 C479 2.848 1_556 S
N416 C408 1.362 . S
N416 Eu415 2.657 . S
N416 C417 1.334 . S
C417 N416 1.334 . S
C417 C419 1.413 . S
C417 H424 0.929 . S
C418 C406 1.392 . S
C418 C419 1.367 . S
C418 H426 0.930 . S
C419 C417 1.413 . S
C419 C418 1.367 . S
C419 H421 0.930 . S
H420 C413 0.930 . S
H421 C419 0.930 . S
H422 C410 0.930 . S
H423 C411 0.930 . S
H424 C417 0.929 . S
H425 C439 0.930 . S
H426 C418 0.930 . S
H427 C445 0.930 . S
H428 C436 0.929 . S
H429 C443 0.930 . S
H430 C407 0.931 . S
H431 C437 0.930 . S
H432 C470 0.930 . S
H433 C414 0.930 . S
H434 C469 0.931 . S
N435 Eu404 2.657 . S
N435 C436 1.334 . S
N435 C440 1.362 . S
C436 H428 0.929 . S
C436 N435 1.334 . S
C436 C439 1.413 . S
C437 H431 0.930 . S
C437 C438 1.392 . S
C437 C439 1.367 . S
C438 C437 1.392 . S
C438 C440 1.420 . S
C438 C470 1.423 . S
C439 H425 0.930 . S
C439 C436 1.413 . S
C439 C437 1.367 . S
C440 N435 1.362 . S
C440 C438 1.420 . S
C440 C444 1.429 . S
H441 C446 0.930 . S
N442 Eu404 2.609 . S
N442 C444 1.377 . S
N442 C445 1.321 1_455 S
C443 H429 0.930 . S
C443 C445 1.400 . S
C443 C446 1.386 1_655 S
C444 C440 1.429 . S
C444 N442 1.377 . S
C444 C447 1.411 . S
C445 H427 0.930 . S
C445 N442 1.321 1_655 S
C445 C443 1.400 . S
C446 H441 0.930 . S
C446 C443 1.386 1_455 S
C446 C447 1.395 . S
C447 C444 1.411 . S
C447 C446 1.395 . S
C447 C469 1.420 . S
O448 Eu404 2.558 . S
O448 C468 1.257 . S
O449 Eu404 2.612 . S
O449 Eu415 2.380 1_455 S
O449 C460 1.276 . S
O450 Eu415 2.432 1_455 S
O450 C467 1.264 . S
O451 Eu404 2.339 . S
O451 C467 1.254 . S
O452 Eu404 2.563 . S
O452 C460 1.235 . S
O453 Eu404 2.419 . S
O453 C468 1.249 . S
O454 Eu415 2.558 1_554 S
O454 C479 1.257 . S
O455 Eu404 2.380 . S
O455 Eu415 2.612 1_455 S
O455 C471 1.276 1_455 S
O456 Eu404 2.432 1_655 S
O456 C478 1.264 . S
O457 Eu415 2.339 . S
O457 C478 1.254 . S
O458 Eu415 2.563 . S
O458 C471 1.235 . S
O459 Eu415 2.419 . S
O459 C479 1.249 1_556 S
C460 O449 1.276 . S
C460 O452 1.235 . S
C461 C463 1.393 . S
C461 C465 1.395 . S
C461 C468 1.492 . S
C462 C463 1.392 . S
C462 C464 1.386 . S
C463 C461 1.393 . S
C463 C462 1.392 . S
C463 H480 0.930 . S
C464 C462 1.386 . S
C464 C466 1.395 . S
C464 H481 0.930 . S
C465 C461 1.395 . S
C465 C466 1.379 . S
C465 H482 0.930 . S
C466 C464 1.395 . S
C466 C465 1.379 . S
C466 H483 0.930 1_554 S
C467 O450 1.264 . S
C467 O451 1.254 . S
C468 Eu404 2.848 . S
C468 O448 1.257 . S
C468 O453 1.249 . S
C468 C461 1.492 . S
C469 H434 0.931 . S
C469 C447 1.420 . S
C469 C470 1.351 . S
C470 H432 0.930 . S
C470 C438 1.423 . S
C470 C469 1.351 . S
C471 O455 1.276 1_655 S
C471 O458 1.235 . S
C472 C473 1.393 . S
C472 C476 1.395 . S
C472 C479 1.492 . S
C473 C472 1.393 . S
C473 C474 1.392 . S
C473 H484 0.930 . S
C474 C473 1.392 . S
C474 C475 1.386 . S
C475 C474 1.386 . S
C475 C477 1.395 . S
C475 H485 0.930 . S
C476 C472 1.395 . S
C476 C477 1.379 . S
C476 H486 0.930 . S
C477 C475 1.395 . S
C477 C476 1.379 . S
C477 H487 0.930 . S
C478 O456 1.264 . S
C478 O457 1.254 . S
C479 Eu415 2.848 1_554 S
C479 O454 1.257 . S
C479 O459 1.249 1_554 S
C479 C472 1.492 . S
H480 C463 0.930 . S
H481 C464 0.930 . S
H482 C465 0.930 . S
H483 C466 0.930 1_556 S
H484 C473 0.930 . S
H485 C475 0.930 . S
H486 C476 0.930 . S
H487 C477 0.930 . S
C488 C489 1.387 . S
C488 H492 0.950 1_545 S
C488 C497 1.390 . S
C489 C488 1.387 . S
C489 C491 1.387 . S
H490 C497 0.950 1_565 S
C491 C489 1.387 . S
C491 C493 1.390 . S
C491 H495 0.950 . S
H492 C488 0.950 1_565 S
C493 C491 1.390 . S
C493 C494 1.387 . S
C493 H496 0.950 . S
C494 C493 1.387 . S
C494 C497 1.387 . S
H495 C491 0.950 . S
H496 C493 0.950 . S
C497 C488 1.390 . S
C497 H490 0.950 1_545 S
C497 C494 1.387 . S
C498 C499 1.387 . S
C498 H502 0.950 . S
C498 C507 1.390 . S
C499 C498 1.387 . S
C499 C501 1.387 . S
H500 C507 0.950 . S
C501 C499 1.387 . S
C501 C503 1.390 . S
C501 H505 0.950 . S
H502 C498 0.950 . S
C503 C501 1.390 . S
C503 C504 1.387 . S
C503 H506 0.950 . S
C504 C503 1.387 . S
C504 C507 1.387 . S
H505 C501 0.950 . S
H506 C503 0.950 . S
C507 C498 1.390 . S
C507 H500 0.950 . S
C507 C504 1.387 . S
C508 C509 1.387 . S
C508 H512 0.950 . S
C508 C517 1.390 . S
C509 C508 1.387 . S
C509 C511 1.387 . S
H510 C517 0.950 . S
C511 C509 1.387 . S
C511 C513 1.390 . S
C511 H515 0.950 . S
H512 C508 0.950 . S
C513 C511 1.390 . S
C513 C514 1.387 . S
C513 H516 0.950 . S
C514 C513 1.387 . S
C514 C517 1.387 . S
H515 C511 0.950 . S
H516 C513 0.950 . S
C517 C508 1.390 . S
C517 H510 0.950 . S
C517 C514 1.387 . S
C518 C519 1.387 . S
C518 H522 0.950 . S
C518 C527 1.390 . S
C519 C518 1.387 . S
C519 C521 1.387 . S
H520 C527 0.950 1_655 S
C521 C519 1.387 . S
C521 C523 1.390 . S
C521 H525 0.950 . S
H522 C518 0.950 . S
C523 C521 1.390 . S
C523 C524 1.387 . S
C523 H526 0.950 . S
C524 C523 1.387 . S
C524 C527 1.387 . S
H525 C521 0.950 . S
H526 C523 0.950 . S
C527 C518 1.390 . S
C527 H520 0.950 1_455 S
C527 C524 1.387 . S
C528 C529 1.387 1_545 S
C528 H532 0.950 . S
C528 C537 1.390 . S
C529 C528 1.387 1_565 S
C529 C531 1.387 . S
H530 C537 0.950 . S
C531 C529 1.387 . S
C531 C533 1.390 1_554 S
C531 H535 0.950 . S
H532 C528 0.950 . S
C533 C531 1.390 1_556 S
C533 C534 1.387 . S
C533 H536 0.950 . S
C534 C533 1.387 . S
C534 C537 1.387 1_566 S
H535 C531 0.950 . S
H536 C533 0.950 . S
C537 C528 1.390 . S
C537 H530 0.950 . S
C537 C534 1.387 1_544 S
C538 C539 1.387 . S
C538 H542 0.950 . S
C538 C547 1.390 1_554 S
C539 C538 1.387 . S
C539 C541 1.387 . S
H540 C547 0.950 . S
C541 C539 1.387 . S
C541 C543 1.390 . S
C541 H545 0.950 . S
H542 C538 0.950 . S
C543 C541 1.390 . S
C543 C544 1.387 1_554 S
C543 H546 0.950 . S
C544 C543 1.387 1_556 S
C544 C547 1.387 . S
H545 C541 0.950 . S
H546 C543 0.950 . S
C547 C538 1.390 1_556 S
C547 H540 0.950 . S
C547 C544 1.387 . S
C548 C549 1.387 . S
C548 H552 0.950 . S
C548 C557 1.390 . S
C549 C548 1.387 . S
C549 C551 1.387 . S
H550 C557 0.950 . S
C551 C549 1.387 . S
C551 C553 1.390 1_554 S
C551 H555 0.950 . S
H552 C548 0.950 . S
C553 C551 1.390 1_556 S
C553 C554 1.387 . S
C553 H556 0.950 . S
C554 C553 1.387 . S
C554 C557 1.387 1_556 S
H555 C551 0.950 . S
H556 C553 0.950 . S
C557 C548 1.390 . S
C557 H550 0.950 . S
C557 C554 1.387 1_554 S
C558 C559 1.387 . S
C558 H562 0.950 . S
C558 C567 1.390 1_554 S
C559 C558 1.387 . S
C559 C561 1.387 . S
H560 C567 0.950 . S
C561 C559 1.387 . S
C561 C563 1.390 . S
C561 H565 0.950 . S
H562 C558 0.950 . S
C563 C561 1.390 . S
C563 C564 1.387 1_554 S
C563 H566 0.950 . S
C564 C563 1.387 1_556 S
C564 C567 1.387 . S
H565 C561 0.950 . S
H566 C563 0.950 . S
C567 C558 1.390 1_556 S
C567 H560 0.950 . S
C567 C564 1.387 . S
C568 C569 1.387 . S
C568 H572 0.950 1_554 S
C568 C577 1.390 . S
C569 C568 1.387 . S
C569 C571 1.387 . S
H570 C577 0.950 . S
C571 C569 1.387 . S
C571 C573 1.390 . S
C571 H575 0.950 . S
H572 C568 0.950 1_556 S
C573 C571 1.390 . S
C573 C574 1.387 . S
C573 H576 0.950 . S
C574 C573 1.387 . S
C574 C577 1.387 . S
H575 C571 0.950 . S
H576 C573 0.950 . S
C577 C568 1.390 . S
C577 H570 0.950 . S
C577 C574 1.387 . S
C578 C579 1.387 . S
C578 H582 0.950 1_554 S
C578 C587 1.390 . S
C579 C578 1.387 . S
C579 C581 1.387 . S
H580 C587 0.950 . S
C581 C579 1.387 . S
C581 C583 1.390 . S
C581 H585 0.950 . S
H582 C578 0.950 1_556 S
C583 C581 1.390 . S
C583 C584 1.387 . S
C583 H586 0.950 . S
C584 C583 1.387 . S
C584 C587 1.387 . S
H585 C581 0.950 . S
H586 C583 0.950 . S
C587 C578 1.390 . S
C587 H580 0.950 . S
C587 C584 1.387 . S
C588 C589 1.387 . S
C588 H592 0.950 1_554 S
C588 C597 1.390 . S
C589 C588 1.387 . S
C589 C591 1.387 . S
H590 C597 0.950 . S
C591 C589 1.387 . S
C591 C593 1.390 . S
C591 H595 0.950 . S
H592 C588 0.950 1_556 S
C593 C591 1.390 . S
C593 C594 1.387 . S
C593 H596 0.950 . S
C594 C593 1.387 . S
C594 C597 1.387 . S
H595 C591 0.950 . S
H596 C593 0.950 . S
C597 C588 1.390 . S
C597 H590 0.950 . S
C597 C594 1.387 . S
C598 C599 1.387 . S
C598 H602 0.950 1_554 S
C598 C607 1.390 . S
C599 C598 1.387 . S
C599 C601 1.387 . S
H600 C607 0.950 . S
C601 C599 1.387 . S
C601 C603 1.390 . S
C601 H605 0.950 . S
H602 C598 0.950 1_556 S
C603 C601 1.390 . S
C603 C604 1.387 . S
C603 H606 0.950 . S
C604 C603 1.387 . S
C604 C607 1.387 . S
H605 C601 0.950 . S
H606 C603 0.950 . S
C607 C598 1.390 . S
C607 H600 0.950 . S
C607 C604 1.387 . S
C608 C609 1.387 . S
C608 H612 0.950 . S
C608 C617 1.390 . S
C609 C608 1.387 . S
C609 C611 1.387 . S
H610 C617 0.950 . S
C611 C609 1.387 . S
C611 C613 1.390 1_655 S
C611 H615 0.950 . S
H612 C608 0.950 . S
C613 C611 1.390 1_455 S
C613 C614 1.387 . S
C613 H616 0.950 . S
C614 C613 1.387 . S
C614 C617 1.387 1_455 S
H615 C611 0.950 . S
H616 C613 0.950 . S
C617 C608 1.390 . S
C617 H610 0.950 . S
C617 C614 1.387 1_655 S
C618 C619 1.387 . S
C618 H622 0.950 . S
C618 C627 1.390 . S
C619 C618 1.387 . S
C619 C621 1.387 1_565 S
H620 C627 0.950 . S
C621 C619 1.387 1_545 S
C621 C623 1.390 . S
C621 H625 0.950 . S
H622 C618 0.950 . S
C623 C621 1.390 . S
C623 C624 1.387 . S
C623 H626 0.950 . S
C624 C623 1.387 . S
C624 C627 1.387 1_545 S
H625 C621 0.950 . S
H626 C623 0.950 . S
C627 C618 1.390 . S
C627 H620 0.950 . S
C627 C624 1.387 1_565 S
C628 C629 1.387 . S
C628 H632 0.950 . S
C628 C637 1.390 . S
C629 C628 1.387 . S
C629 C631 1.387 . S
H630 C637 0.950 . S
C631 C629 1.387 . S
C631 C633 1.390 . S
C631 H635 0.950 . S
H632 C628 0.950 . S
C633 C631 1.390 . S
C633 C634 1.387 . S
C633 H636 0.950 . S
C634 C633 1.387 . S
C634 C637 1.387 . S
H635 C631 0.950 . S
H636 C633 0.950 . S
C637 C628 1.390 . S
C637 H630 0.950 . S
C637 C634 1.387 . S
C638 C639 1.387 . S
C638 H642 0.950 . S
C638 C647 1.390 . S
C639 C638 1.387 . S
C639 C641 1.387 . S
H640 C647 0.950 . S
C641 C639 1.387 . S
C641 C643 1.390 . S
C641 H645 0.950 . S
H642 C638 0.950 . S
C643 C641 1.390 . S
C643 C644 1.387 . S
C643 H646 0.950 . S
C644 C643 1.387 . S
C644 C647 1.387 . S
H645 C641 0.950 . S
H646 C643 0.950 . S
C647 C638 1.390 . S
C647 H640 0.950 . S
C647 C644 1.387 . S
C648 C649 1.387 . S
C648 H652 0.950 . S
C648 C657 1.390 . S
C649 C648 1.387 . S
C649 C651 1.387 . S
H650 C657 0.950 . S
C651 C649 1.387 . S
C651 C653 1.390 . S
C651 H655 0.950 . S
H652 C648 0.950 . S
C653 C651 1.390 . S
C653 C654 1.387 . S
C653 H656 0.950 . S
C654 C653 1.387 . S
C654 C657 1.387 . S
H655 C651 0.950 . S
H656 C653 0.950 . S
C657 C648 1.390 . S
C657 H650 0.950 . S
C657 C654 1.387 . S
C658 C659 1.387 . S
C658 H662 0.950 . S
C658 C667 1.390 . S
C659 C658 1.387 . S
C659 C661 1.387 . S
H660 C667 0.950 . S
C661 C659 1.387 . S
C661 C663 1.390 . S
C661 H665 0.950 . S
H662 C658 0.950 . S
C663 C661 1.390 . S
C663 C664 1.387 . S
C663 H666 0.950 . S
C664 C663 1.387 . S
C664 C667 1.387 . S
H665 C661 0.950 . S
H666 C663 0.950 . S
C667 C658 1.390 . S
C667 H660 0.950 . S
C667 C664 1.387 . S
C668 C669 1.387 . S
C668 H672 0.950 . S
C668 C677 1.390 . S
C669 C668 1.387 . S
C669 C671 1.387 . S
H670 C677 0.950 . S
C671 C669 1.387 . S
C671 C673 1.390 . S
C671 H675 0.950 . S
H672 C668 0.950 . S
C673 C671 1.390 . S
C673 C674 1.387 . S
C673 H676 0.950 . S
C674 C673 1.387 . S
C674 C677 1.387 . S
H675 C671 0.950 . S
H676 C673 0.950 . S
C677 C668 1.390 . S
C677 H670 0.950 . S
C677 C674 1.387 . S
C678 C679 1.387 . S
C678 H682 0.950 . S
C678 C687 1.390 . S
C679 C678 1.387 . S
C679 C681 1.387 . S
H680 C687 0.950 . S
C681 C679 1.387 . S
C681 C683 1.390 . S
C681 H685 0.950 . S
H682 C678 0.950 . S
C683 C681 1.390 . S
C683 C684 1.387 . S
C683 H686 0.950 . S
C684 C683 1.387 . S
C684 C687 1.387 . S
H685 C681 0.950 . S
H686 C683 0.950 . S
C687 C678 1.390 . S
C687 H680 0.950 . S
C687 C684 1.387 . S
C688 C689 1.387 . S
C688 H692 0.950 . S
C688 C697 1.390 . S
C689 C688 1.387 . S
C689 C691 1.387 . S
H690 C697 0.950 . S
C691 C689 1.387 . S
C691 C693 1.390 . S
C691 H695 0.950 . S
H692 C688 0.950 . S
C693 C691 1.390 . S
C693 C694 1.387 . S
C693 H696 0.950 . S
C694 C693 1.387 . S
C694 C697 1.387 . S
H695 C691 0.950 . S
H696 C693 0.950 . S
C697 C688 1.390 . S
C697 H690 0.950 . S
C697 C694 1.387 . S
C698 C699 1.387 . S
C698 H702 0.950 . S
C698 C707 1.390 . S
C699 C698 1.387 . S
C699 C701 1.387 . S
H700 C707 0.950 . S
C701 C699 1.387 . S
C701 C703 1.390 . S
C701 H705 0.950 . S
H702 C698 0.950 . S
C703 C701 1.390 . S
C703 C704 1.387 . S
C703 H706 0.950 . S
C704 C703 1.387 . S
C704 C707 1.387 . S
H705 C701 0.950 . S
H706 C703 0.950 . S
C707 C698 1.390 . S
C707 H700 0.950 . S
C707 C704 1.387 . S
C708 C709 1.387 . S
C708 H712 0.950 . S
C708 C717 1.390 . S
C709 C708 1.387 . S
C709 C711 1.387 . S
H710 C717 0.950 . S
C711 C709 1.387 . S
C711 C713 1.390 . S
C711 H715 0.950 . S
H712 C708 0.950 . S
C713 C711 1.390 . S
C713 C714 1.387 . S
C713 H716 0.950 . S
C714 C713 1.387 . S
C714 C717 1.387 . S
H715 C711 0.950 . S
H716 C713 0.950 . S
C717 C708 1.390 . S
C717 H710 0.950 . S
C717 C714 1.387 . S
C718 C719 1.387 . S
C718 H722 0.950 . S
C718 C727 1.390 . S
C719 C718 1.387 . S
C719 C721 1.387 . S
H720 C727 0.950 . S
C721 C719 1.387 . S
C721 C723 1.390 . S
C721 H725 0.950 . S
H722 C718 0.950 . S
C723 C721 1.390 . S
C723 C724 1.387 . S
C723 H726 0.950 . S
C724 C723 1.387 . S
C724 C727 1.387 . S
H725 C721 0.950 . S
H726 C723 0.950 . S
C727 C718 1.390 . S
C727 H720 0.950 . S
C727 C724 1.387 . S
C489 C125 2.080 . S
C494 C226 2.070 . S
C504 C310 2.083 . S
C499 C144 2.076 . S
C514 C376 1.995 . S
C509 C87 2.138 . S
C524 C460 1.985 . S
C519 C106 2.139 . S
C534 C215 2.068 1_565 S
C529 C49 2.168 . S
C539 C68 2.179 . S
C544 C299 2.080 . S
C549 C11 2.251 . S
C554 C387 1.992 . S
C559 C30 2.240 . S
C564 C471 1.984 . S
C574 C222 0.954 1_455 S
C569 C97 0.891 . S
C584 C306 0.916 1_545 S
C579 C116 0.864 . S
C594 C378 0.909 . S
C589 C135 0.849 . S
C599 C78 0.878 . S
C604 C462 0.943 . S
C609 C21 0.894 . S
C614 C210 0.953 . S
C624 C294 0.915 . S
C619 C40 0.873 . S
C634 C390 0.908 . S
C629 C59 0.853 . S
C639 C2 0.882 . S
C644 C474 0.942 . S
C649 C101 2.114 . S
C654 C219 2.198 . S
C659 C120 2.090 . S
C664 C303 2.176 . S
C674 C383 2.285 . S
C669 C139 2.019 . S
C684 C467 2.310 . S
C679 C82 2.040 . S
C689 C25 2.118 . S
C694 C208 2.198 . S
C704 C292 2.176 . S
C699 C44 2.094 . S
C714 C394 2.285 . S
C709 C63 2.023 . S
C719 C6 2.045 . S
C724 C478 2.310 . S
