# Generated by pormake.
# Topology pyr, (3,6)-cn, num edge types: 1
# Building blocks:
#     Node 0, Type 0, BuildingBlock: ESEHIV_clean_linker_0, # of connection points: 3
#     Node 1, Type 0, BuildingBlock: ESEHIV_clean_linker_0, # of connection points: 3
#     Node 2, Type 0, BuildingBlock: ESEHIV_clean_linker_0, # of connection points: 3
#     Node 3, Type 0, BuildingBlock: ESEHIV_clean_linker_0, # of connection points: 3
#     Node 4, Type 0, BuildingBlock: ESEHIV_clean_linker_0, # of connection points: 3
#     Node 5, Type 0, BuildingBlock: ESEHIV_clean_linker_0, # of connection points: 3
#     Node 6, Type 0, BuildingBlock: ESEHIV_clean_linker_0, # of connection points: 3
#     Node 7, Type 0, BuildingBlock: ESEHIV_clean_linker_0, # of connection points: 3
#     Node 8, Type 1, BuildingBlock: MIDCAF_clean_sbu_0, # of connection points: 6
#     Node 9, Type 1, BuildingBlock: MIDCAF_clean_sbu_0, # of connection points: 6
#     Node 10, Type 1, BuildingBlock: MIDCAF_clean_sbu_0, # of connection points: 6
#     Node 11, Type 1, BuildingBlock: MIDCAF_clean_sbu_0, # of connection points: 6
#     Edge 12, Type (0, 1), BuildingBlock: EZIPEK_clean_linker_0, # of connection points: 2
#     Edge 13, Type (0, 1), BuildingBlock: EZIPEK_clean_linker_0, # of connection points: 2
#     Edge 14, Type (0, 1), BuildingBlock: EZIPEK_clean_linker_0, # of connection points: 2
#     Edge 15, Type (0, 1), BuildingBlock: EZIPEK_clean_linker_0, # of connection points: 2
#     Edge 16, Type (0, 1), BuildingBlock: EZIPEK_clean_linker_0, # of connection points: 2
#     Edge 17, Type (0, 1), BuildingBlock: EZIPEK_clean_linker_0, # of connection points: 2
#     Edge 18, Type (0, 1), BuildingBlock: EZIPEK_clean_linker_0, # of connection points: 2
#     Edge 19, Type (0, 1), BuildingBlock: EZIPEK_clean_linker_0, # of connection points: 2
#     Edge 20, Type (0, 1), BuildingBlock: EZIPEK_clean_linker_0, # of connection points: 2
#     Edge 21, Type (0, 1), BuildingBlock: EZIPEK_clean_linker_0, # of connection points: 2
#     Edge 22, Type (0, 1), BuildingBlock: EZIPEK_clean_linker_0, # of connection points: 2
#     Edge 23, Type (0, 1), BuildingBlock: EZIPEK_clean_linker_0, # of connection points: 2
#     Edge 24, Type (0, 1), BuildingBlock: EZIPEK_clean_linker_0, # of connection points: 2
#     Edge 25, Type (0, 1), BuildingBlock: EZIPEK_clean_linker_0, # of connection points: 2
#     Edge 26, Type (0, 1), BuildingBlock: EZIPEK_clean_linker_0, # of connection points: 2
#     Edge 27, Type (0, 1), BuildingBlock: EZIPEK_clean_linker_0, # of connection points: 2
#     Edge 28, Type (0, 1), BuildingBlock: EZIPEK_clean_linker_0, # of connection points: 2
#     Edge 29, Type (0, 1), BuildingBlock: EZIPEK_clean_linker_0, # of connection points: 2
#     Edge 30, Type (0, 1), BuildingBlock: EZIPEK_clean_linker_0, # of connection points: 2
#     Edge 31, Type (0, 1), BuildingBlock: EZIPEK_clean_linker_0, # of connection points: 2
#     Edge 32, Type (0, 1), BuildingBlock: EZIPEK_clean_linker_0, # of connection points: 2
#     Edge 33, Type (0, 1), BuildingBlock: EZIPEK_clean_linker_0, # of connection points: 2
#     Edge 34, Type (0, 1), BuildingBlock: EZIPEK_clean_linker_0, # of connection points: 2
#     Edge 35, Type (0, 1), BuildingBlock: EZIPEK_clean_linker_0, # of connection points: 2
# Relax obj value: 0.019
# Max RMSD: 0.063
# Mean RMSD: 0.024
data_MOF--net-pry--node1-MIDCAF_clean_sbu_0--node2-ESEHIV_clean_linker_0--edge1-EZIPEK_clean_linker_0
_symmetry_space_group_name_H-M    P1
_symmetry_Int_Tables_number       1
_symmetry_cell_setting            triclinic
loop_
_symmetry_equiv_pos_as_xyz
'x, y, z'
_cell_length_a     24.223557
_cell_length_b     24.21778
_cell_length_c     24.086208
_cell_angle_alpha  89.997053
_cell_angle_beta   90.505076
_cell_angle_gamma 90.494675
loop_
_atom_site_label
_atom_site_type_symbol
_atom_site_fract_x
_atom_site_fract_y
_atom_site_fract_z
_atom_type_partial_charge
H0 H 0.13316 0.28485 0.26827 0.0
H1 H 0.25976 0.16262 0.28313 0.0
H2 H 0.27456 0.29168 0.1616 0.0
C3 C 0.17382 0.2702 0.25732 0.0
C4 C 0.20297 0.29575 0.2141 0.0
C5 C 0.19401 0.22187 0.28184 0.0
C6 C 0.24535 0.20134 0.26586 0.0
C7 C 0.27426 0.22582 0.22198 0.0
C8 C 0.25386 0.27416 0.19733 0.0
H9 H 0.26603 0.89129 0.79062 0.0
H10 H 0.37779 0.75431 0.79383 0.0
H11 H 0.26319 0.77297 0.65792 0.0
C12 C 0.2794 0.85216 0.77371 0.0
C13 C 0.25831 0.83421 0.72246 0.0
C14 C 0.32219 0.82313 0.79987 0.0
C15 C 0.34227 0.77462 0.77559 0.0
C16 C 0.32114 0.75652 0.72418 0.0
C17 C 0.2779 0.78548 0.69872 0.0
H18 H 0.78134 0.21789 0.86108 0.0
H19 H 0.75974 0.37534 0.78041 0.0
H20 H 0.64127 0.24582 0.75479 0.0
C21 C 0.75971 0.24438 0.83205 0.0
C22 C 0.70755 0.2277 0.81221 0.0
C23 C 0.77809 0.29903 0.82363 0.0
C24 C 0.74794 0.33252 0.78652 0.0
C25 C 0.70128 0.31201 0.75814 0.0
C26 C 0.6809 0.25931 0.77138 0.0
H27 H 0.75032 0.74774 0.39648 0.0
H28 H 0.87977 0.76395 0.27691 0.0
H29 H 0.74603 0.64889 0.24809 0.0
C30 C 0.76699 0.73766 0.35611 0.0
C31 C 0.74117 0.69709 0.32324 0.0
C32 C 0.81649 0.76228 0.33927 0.0
C33 C 0.83994 0.74697 0.28853 0.0
C34 C 0.81511 0.70556 0.2556 0.0
C35 C 0.76457 0.68209 0.27223 0.0
H36 H 0.78546 0.93026 0.78884 0.0
H37 H 0.90167 0.79813 0.80864 0.0
H38 H 0.80243 0.84724 0.94419 0.0
C39 C 0.80867 0.9016 0.81416 0.0
C40 C 0.79122 0.89351 0.86864 0.0
C41 C 0.85572 0.87448 0.79338 0.0
C42 C 0.87449 0.82876 0.82495 0.0
C43 C 0.85646 0.82002 0.87953 0.0
C44 C 0.81613 0.85369 0.9019 0.0
H45 H 0.59132 0.21694 0.3737 0.0
H46 H 0.73237 0.13368 0.30796 0.0
H47 H 0.74092 0.21047 0.46971 0.0
C48 C 0.63363 0.20325 0.37835 0.0
C49 C 0.66455 0.21884 0.42507 0.0
C50 C 0.65727 0.17056 0.33725 0.0
C51 C 0.7134 0.15641 0.34142 0.0
C52 C 0.74392 0.16885 0.39011 0.0
C53 C 0.71826 0.19934 0.43227 0.0
H54 H 0.32393 0.66901 0.07048 0.0
H55 H 0.35702 0.55268 0.20119 0.0
H56 H 0.4637 0.69383 0.17917 0.0
C57 C 0.35048 0.65438 0.10376 0.0
C58 C 0.39615 0.68612 0.12056 0.0
C59 C 0.33686 0.60579 0.1323 0.0
C60 C 0.3691 0.58891 0.17762 0.0
C61 C 0.41494 0.62063 0.19453 0.0
C62 C 0.42929 0.6684 0.165 0.0
H63 H 0.05066 0.32182 0.65596 0.0
H64 H 0.19637 0.36334 0.56339 0.0
H65 H 0.14403 0.46872 0.69601 0.0
C66 C 0.08402 0.35042 0.64672 0.0
C67 C 0.09218 0.39741 0.67992 0.0
C68 C 0.12162 0.33816 0.60453 0.0
C69 C 0.16615 0.37396 0.59451 0.0
C70 C 0.1742 0.42103 0.62752 0.0
C71 C 0.13662 0.43326 0.66936 0.0
Zn72 Zn 0.98984 0.05343 0.58439 0.0
Zn73 Zn 0.0779 0.9458 0.45076 0.0
Zn74 Zn 0.02423 0.00434 0.513 0.0
C75 C 0.08306 0.0555 0.40937 0.0
C76 C 0.96521 0.90775 0.45145 0.0
O77 O 0.9501 0.9631 0.54667 0.0
O78 O 0.97859 0.98711 0.6302 0.0
C79 C 0.06431 0.12258 0.54549 0.0
O80 O 0.04705 0.06281 0.44776 0.0
O81 O 0.10566 0.00902 0.40333 0.0
O82 O 0.01028 0.90224 0.42582 0.0
O83 O 0.96178 0.94393 0.49 0.0
O84 O 0.05399 0.10499 0.59376 0.0
O85 O 0.04616 0.09453 0.5036 0.0
O86 O 0.99247 0.07711 0.47047 0.0
O87 O 0.92603 0.07703 0.53192 0.0
C88 C 0.94226 0.08841 0.48338 0.0
O89 O 0.08647 0.98378 0.57052 0.0
O90 O 0.12316 0.91978 0.51771 0.0
C91 C 0.94813 0.95708 0.59961 0.0
C92 C 0.12032 0.9445 0.56397 0.0
Zn93 Zn 0.44449 0.08469 0.97317 0.0
Zn94 Zn 0.57072 0.95914 0.10165 0.0
Zn95 Zn 0.5092 0.02214 0.03865 0.0
C96 C 0.62644 0.98168 0.00354 0.0
C97 C 0.4789 0.89805 0.07702 0.0
O98 O 0.47064 0.08266 0.0938 0.0
O99 O 0.40822 0.11965 0.03747 0.0
C100 C 0.5529 0.1005 0.93937 0.0
O101 O 0.58854 0.01813 0.99853 0.0
O102 O 0.62574 0.94728 0.04283 0.0
O103 O 0.51613 0.8995 0.11394 0.0
O104 O 0.47289 0.93834 0.04268 0.0
O105 O 0.50605 0.12252 0.93435 0.0
O106 O 0.56066 0.06088 0.97409 0.0
O107 O 0.4485 0.96644 -0.00067 0.0
O108 O 0.40949 0.02011 0.93596 0.0
C109 C 0.4164 0.97289 0.95699 0.0
O110 O 0.51794 0.06326 0.12053 0.0
O111 O 0.5857 0.01514 0.15895 0.0
C112 C 0.42908 0.11445 0.08541 0.0
C113 C 0.55445 0.0565 0.15916 0.0
Zn114 Zn 0.5768 0.58475 0.5865 0.0
Zn115 Zn 0.44483 0.43978 0.4687 0.0
Zn116 Zn 0.50553 0.51414 0.52926 0.0
C117 C 0.53834 0.38726 0.51117 0.0
C118 C 0.47653 0.52534 0.3986 0.0
O119 O 0.45281 0.56127 0.58424 0.0
O120 O 0.51155 0.62449 0.61684 0.0
C121 C 0.6 0.47655 0.61838 0.0
O122 O 0.54291 0.43279 0.53833 0.0
O123 O 0.49971 0.3801 0.47635 0.0
O124 O 0.44423 0.48422 0.39963 0.0
O125 O 0.50479 0.53951 0.44187 0.0
O126 O 0.61233 0.52548 0.63209 0.0
O127 O 0.56426 0.46667 0.57966 0.0
O128 O 0.54695 0.56748 0.46865 0.0
O129 O 0.61244 0.61148 0.51644 0.0
C130 C 0.58924 0.59992 0.47065 0.0
O131 O 0.42176 0.51749 0.56193 0.0
O132 O 0.38186 0.44559 0.52021 0.0
C133 C 0.46306 0.60499 0.6129 0.0
C134 C 0.38029 0.4847 0.55482 0.0
Zn135 Zn 0.07198 0.58102 0.9415 0.0
Zn136 Zn 0.94629 0.46292 0.07377 0.0
Zn137 Zn 0.00675 0.52022 0.00699 0.0
C138 C 0.05507 0.44023 0.10097 0.0
C139 C 0.92141 0.4263 0.96746 0.0
O140 O 0.96999 0.60232 0.00191 0.0
O141 O 0.02038 0.64374 0.93738 0.0
C142 C 0.13542 0.55068 0.03133 0.0
O143 O 0.0622 0.481 0.06749 0.0
O144 O 0.00749 0.42008 0.10844 0.0
O145 O 0.90069 0.42744 0.01536 0.0
O146 O 0.96461 0.45566 0.95684 0.0
O147 O 0.13726 0.58392 0.99108 0.0
O148 O 0.09168 0.52168 0.04076 0.0
O149 O 0.00412 0.48252 0.92405 0.0
O150 O 0.07006 0.52777 0.87927 0.0
C151 C 0.03428 0.48963 0.88083 0.0
O152 O 0.94973 0.57798 0.04982 0.0
O153 O 0.91509 0.52468 0.1157 0.0
C154 C 0.97908 0.64318 0.96893 0.0
C155 C 0.92045 0.57172 0.09387 0.0
C156 C 0.11372 0.1562 0.29358 0.0
C157 C 0.15831 0.18694 0.31752 0.0
C158 C 0.1514 0.13289 0.40285 0.0
C159 C 0.10575 0.1036 0.37961 0.0
N160 N 0.03489 0.09587 0.30942 0.0
N161 N 0.20987 0.21451 0.3989 0.0
C162 C 0.08391 0.11829 0.32715 0.0
C163 C 0.17387 0.17855 0.37363 0.0
N164 N 0.10204 0.16039 0.2381 0.0
N165 N 0.17483 0.11562 0.45162 0.0
H166 H 0.22677 0.24852 0.37829 0.0
H167 H 0.21859 0.21378 0.44133 0.0
H168 H 0.15946 0.08241 0.4745 0.0
H169 H 0.21173 0.13171 0.46745 0.0
H170 H 0.07437 0.13424 0.21746 0.0
H171 H 0.12302 0.18695 0.21144 0.0
H172 H 0.01404 0.10923 0.27395 0.0
H173 H 0.01263 0.06732 0.33296 0.0
C174 C 0.33327 0.85114 0.89989 0.0
C175 C 0.3538 0.85113 0.84488 0.0
C176 C 0.42589 0.91746 0.87158 0.0
C177 C 0.39947 0.92471 0.92329 0.0
N178 N 0.33031 0.89808 0.98927 0.0
N179 N 0.41845 0.88548 0.77687 0.0
C180 C 0.35432 0.89068 0.93873 0.0
C181 C 0.4005 0.88379 0.83057 0.0
N182 N 0.29366 0.81348 0.91446 0.0
N183 N 0.47542 0.94309 0.86174 0.0
H184 H 0.40226 0.86056 0.74539 0.0
H185 H 0.44711 0.91421 0.76239 0.0
H186 H 0.49462 0.96944 0.89035 0.0
H187 H 0.49993 0.93454 0.82756 0.0
H188 H 0.27962 0.8081 0.95481 0.0
H189 H 0.27778 0.78442 0.88643 0.0
H190 H 0.29404 0.87845 0.0015 0.0
H191 H 0.34587 0.92604 0.01854 0.0
C192 C 0.69989 0.36752 0.67033 0.0
C193 C 0.67175 0.34867 0.71831 0.0
C194 C 0.59206 0.40529 0.69262 0.0
C195 C 0.6237 0.43022 0.65008 0.0
N196 N 0.70997 0.44006 0.6018 0.0
N197 N 0.59369 0.35617 0.77983 0.0
C198 C 0.67826 0.41267 0.6397 0.0
C199 C 0.6182 0.36876 0.73048 0.0
N200 N 0.74669 0.34148 0.65348 0.0
N201 N 0.53717 0.41703 0.6974 0.0
H202 H 0.6116 0.33078 0.80959 0.0
H203 H 0.55775 0.3749 0.79354 0.0
H204 H 0.51695 0.4455 0.67209 0.0
H205 H 0.51071 0.39524 0.72349 0.0
H206 H 0.76602 0.34991 0.61592 0.0
H207 H 0.76309 0.30756 0.67441 0.0
H208 H 0.75194 0.43281 0.59671 0.0
H209 H 0.69533 0.47311 0.57831 0.0
C210 C 0.89621 0.65083 0.22253 0.0
C211 C 0.84678 0.6796 0.20973 0.0
C212 C 0.85183 0.647 0.11318 0.0
C213 C 0.9015 0.61945 0.12664 0.0
N214 N 0.98004 0.61061 0.18752 0.0
N215 N 0.78426 0.71542 0.14039 0.0
C216 C 0.92689 0.6273 0.17904 0.0
C217 C 0.82678 0.68119 0.15403 0.0
N218 N 0.91153 0.64157 0.27645 0.0
N219 N 0.82757 0.63847 0.0625 0.0
H220 H 0.76545 0.74086 0.16949 0.0
H221 H 0.77081 0.72197 0.09977 0.0
H222 H 0.84611 0.61481 0.03176 0.0
H223 H 0.78837 0.65256 0.05194 0.0
H224 H 0.94427 0.61619 0.28775 0.0
H225 H 0.88792 0.65367 0.31008 0.0
H226 H 0.00251 0.6197 0.22353 0.0
H227 H 0.00328 0.59282 0.15605 0.0
C228 C 0.30343 0.14378 0.16653 0.0
C229 C 0.31807 0.19395 0.19382 0.0
C230 C 0.41242 0.18693 0.15812 0.0
C231 C 0.39734 0.13646 0.13225 0.0
N232 N 0.33553 0.05838 0.12657 0.0
N233 N 0.38864 0.25769 0.22526 0.0
C234 C 0.34521 0.11199 0.14188 0.0
C235 C 0.37347 0.21376 0.19283 0.0
N236 N 0.24925 0.12833 0.16041 0.0
N237 N 0.46295 0.20995 0.14775 0.0
H238 H 0.36083 0.27801 0.25087 0.0
H239 H 0.4293 0.27123 0.2301 0.0
H240 H 0.49255 0.18993 0.12402 0.0
H241 H 0.47457 0.24949 0.16046 0.0
H242 H 0.23643 0.09518 0.13579 0.0
H243 H 0.21643 0.15167 0.17481 0.0
H244 H 0.29985 0.03666 0.13724 0.0
H245 H 0.36578 0.03399 0.1084 0.0
C246 C 0.16396 0.86155 0.69007 0.0
C247 C 0.22177 0.87031 0.68908 0.0
C248 C 0.21213 0.93475 0.61102 0.0
C249 C 0.15444 0.92469 0.61093 0.0
N250 N 0.07368 0.88723 0.65535 0.0
N251 N 0.30051 0.92294 0.65765 0.0
C252 C 0.1298 0.89116 0.6524 0.0
C253 C 0.24573 0.90958 0.65243 0.0
N254 N 0.14215 0.82293 0.72527 0.0
N255 N 0.23473 0.96728 0.57055 0.0
H256 H 0.32644 0.90487 0.68708 0.0
H257 H 0.31969 0.95476 0.63592 0.0
H258 H 0.21085 0.98901 0.54179 0.0
H259 H 0.27693 0.97118 0.56373 0.0
H260 H 0.1013 0.80932 0.72361 0.0
H261 H 0.16583 0.80227 0.75498 0.0
H262 H 0.05306 0.87038 0.68907 0.0
H263 H 0.04747 0.9043 0.62569 0.0
C264 C 0.85949 0.36475 0.8344 0.0
C265 C 0.82397 0.32412 0.8581 0.0
C266 C 0.87454 0.33732 0.9453 0.0
C267 C 0.89617 0.38814 0.926 0.0
N268 N 0.89644 0.45562 0.8517 0.0
N269 N 0.79063 0.28525 0.94561 0.0
C270 C 0.88611 0.40338 0.87004 0.0
C271 C 0.82985 0.31306 0.91614 0.0
N272 N 0.86775 0.3669 0.77852 0.0
N273 N 0.89496 0.31321 0.9923 0.0
H274 H 0.7521 0.27471 0.92967 0.0
H275 H 0.7934 0.28025 0.98858 0.0
H276 H 0.92952 0.3289 0.01341 0.0
H277 H 0.88143 0.27446 0.00576 0.0
H278 H 0.89569 0.3946 0.7607 0.0
H279 H 0.85154 0.33702 0.75157 0.0
H280 H 0.88518 0.46846 0.81185 0.0
H281 H 0.90965 0.48734 0.8779 0.0
C282 C 0.7012 0.61108 0.36642 0.0
C283 C 0.6938 0.66602 0.3471 0.0
C284 C 0.60682 0.67212 0.39813 0.0
C285 C 0.61597 0.61836 0.41893 0.0
N286 N 0.65842 0.52997 0.40693 0.0
N287 N 0.63317 0.74283 0.33149 0.0
C288 C 0.65853 0.5855 0.39725 0.0
C289 C 0.6441 0.69448 0.35846 0.0
N290 N 0.75046 0.58486 0.35965 0.0
N291 N 0.56371 0.70214 0.41781 0.0
H292 H 0.65986 0.7595 0.30197 0.0
H293 H 0.59597 0.76375 0.33465 0.0
H294 H 0.5345 0.68528 0.44473 0.0
H295 H 0.5579 0.74379 0.40909 0.0
H296 H 0.75982 0.54744 0.37873 0.0
H297 H 0.78396 0.60222 0.339 0.0
H298 H 0.68582 0.50294 0.38819 0.0
H299 H 0.62673 0.51045 0.42863 0.0
C300 C 0.15175 0.32326 0.12748 0.0
C301 C 0.17452 0.33818 0.18005 0.0
C302 C 0.12537 0.42627 0.17679 0.0
C303 C 0.10298 0.41097 0.12446 0.0
N304 N 0.10714 0.35409 0.04271 0.0
N305 N 0.19376 0.40805 0.24881 0.0
C306 C 0.12062 0.36258 0.09731 0.0
C307 C 0.16493 0.39131 0.20271 0.0
N308 N 0.1563 0.27043 0.10804 0.0
N309 N 0.10707 0.47285 0.20252 0.0
H310 H 0.19232 0.44797 0.26474 0.0
H311 H 0.22295 0.38308 0.2684 0.0
H312 H 0.07906 0.49968 0.18376 0.0
H313 H 0.11728 0.48343 0.24323 0.0
H314 H 0.13488 0.25584 0.07327 0.0
H315 H 0.17755 0.23947 0.129 0.0
H316 H 0.1234 0.3222 0.01906 0.0
H317 H 0.08404 0.38222 0.01955 0.0
C318 C 0.6456 0.21553 0.89369 0.0
C319 C 0.67332 0.19133 0.84794 0.0
C320 C 0.62698 0.10282 0.86632 0.0
C321 C 0.60026 0.12746 0.91218 0.0
N322 N 0.59726 0.20051 0.97978 0.0
N323 N 0.69937 0.11024 0.79711 0.0
C324 C 0.61392 0.18167 0.92911 0.0
C325 C 0.66706 0.13418 0.83639 0.0
N326 N 0.64733 0.27138 0.90214 0.0
N327 N 0.61232 0.05062 0.85015 0.0
H328 H 0.72815 0.13276 0.77414 0.0
H329 H 0.70064 0.06784 0.7902 0.0
H330 H 0.58377 0.02669 0.8719 0.0
H331 H 0.62622 0.03205 0.81397 0.0
H332 H 0.6218 0.29154 0.93004 0.0
H333 H 0.67139 0.29848 0.8789 0.0
H334 H 0.61112 0.23764 0.99702 0.0
H335 H 0.57422 0.17641 0.0072 0.0
C336 C 0.89365 0.77497 0.40792 0.0
C337 C 0.84815 0.79766 0.37873 0.0
C338 C 0.86632 0.88692 0.42311 0.0
C339 C 0.91945 0.86813 0.43902 0.0
N340 N 0.98028 0.7916 0.45641 0.0
N341 N 0.78864 0.8748 0.36006 0.0
C342 C 0.93189 0.81108 0.43471 0.0
C343 C 0.83317 0.85334 0.38745 0.0
N344 N 0.89891 0.71895 0.41163 0.0
N345 N 0.84653 0.93539 0.44331 0.0
H346 H 0.76299 0.85123 0.33416 0.0
H347 H 0.77935 0.91669 0.36032 0.0
H348 H 0.86872 0.96064 0.47051 0.0
H349 H 0.80541 0.94685 0.43861 0.0
H350 H 0.92876 0.69947 0.43581 0.0
H351 H 0.86946 0.69171 0.39523 0.0
H352 H 0.99548 0.75238 0.44822 0.0
H353 H 0.006 0.8155 0.48198 0.0
C354 C 0.3829 0.73186 0.64521 0.0
C355 C 0.3516 0.7146 0.69185 0.0
C356 C 0.38775 0.62072 0.68254 0.0
C357 C 0.41767 0.63825 0.63531 0.0
N358 N 0.42997 0.7043 0.56166 0.0
N359 N 0.31467 0.64082 0.74786 0.0
C360 C 0.41051 0.69184 0.61334 0.0
C361 C 0.35087 0.65827 0.70825 0.0
N362 N 0.38925 0.78674 0.63321 0.0
N363 N 0.3965 0.56937 0.70418 0.0
H364 H 0.28745 0.66755 0.76744 0.0
H365 H 0.30843 0.59945 0.75799 0.0
H366 H 0.42273 0.54092 0.68576 0.0
H367 H 0.38038 0.55609 0.74186 0.0
H368 H 0.41664 0.80148 0.60346 0.0
H369 H 0.3715 0.81813 0.65635 0.0
H370 H 0.42124 0.74119 0.54124 0.0
H371 H 0.44978 0.67537 0.53681 0.0
C372 C 0.86558 0.94593 0.71622 0.0
C373 C 0.88084 0.89359 0.73848 0.0
C374 C 0.92397 0.87255 0.64868 0.0
C375 C 0.90608 0.92354 0.62781 0.0
N376 N 0.84359 -0.00117 0.63405 0.0
N377 N 0.95583 0.82855 0.73175 0.0
C378 C 0.86945 0.9554 0.65871 0.0
C379 C 0.91753 0.8608 0.70618 0.0
N380 N 0.85775 0.98987 0.7507 0.0
N381 N 0.95121 0.83774 0.61417 0.0
H382 H 0.96869 0.8373 0.77228 0.0
H383 H 0.98298 0.80309 0.71062 0.0
H384 H 0.95741 0.84785 0.57249 0.0
H385 H 0.96254 0.79786 0.62554 0.0
H386 H 0.851 0.02986 0.73622 0.0
H387 H 0.86618 0.98757 0.79318 0.0
H388 H 0.81429 0.02249 0.65454 0.0
H389 H 0.84829 0.00701 0.59173 0.0
C390 C 0.62584 0.1714 0.23744 0.0
C391 C 0.62195 0.14858 0.29151 0.0
C392 C 0.55215 0.08236 0.25813 0.0
C393 C 0.56422 0.09794 0.20309 0.0
N394 N 0.61087 0.15771 0.13855 0.0
N395 N 0.58268 0.08107 0.35408 0.0
C396 C 0.59971 0.14346 0.19222 0.0
C397 C 0.58465 0.10429 0.30236 0.0
N398 N 0.65428 0.21971 0.22961 0.0
N399 N 0.50992 0.04589 0.26752 0.0
H400 H 0.6062 0.09541 0.38764 0.0
H401 H 0.5608 0.045 0.36294 0.0
H402 H 0.48569 0.02986 0.23514 0.0
H403 H 0.49554 0.03597 0.30693 0.0
H404 H 0.65448 0.24123 0.1922 0.0
H405 H 0.67413 0.24075 0.26202 0.0
H406 H 0.6415 0.18589 0.12735 0.0
H407 H 0.59063 0.13938 0.10479 0.0
C408 C 0.48144 0.56171 0.2477 0.0
C409 C 0.44382 0.60626 0.24693 0.0
C410 C 0.44243 0.60822 0.34853 0.0
C411 C 0.47611 0.56067 0.34893 0.0
N412 N 0.54015 0.50149 0.30303 0.0
N413 N 0.39873 0.68071 0.29488 0.0
C414 C 0.49995 0.54063 0.29962 0.0
C415 C 0.4282 0.63282 0.2969 0.0
N416 N 0.49749 0.53843 0.19878 0.0
N417 N 0.42095 0.62729 0.39721 0.0
H418 H 0.38482 0.69841 0.25798 0.0
H419 H 0.39111 0.70529 0.32934 0.0
H420 H 0.43216 0.61162 0.43598 0.0
H421 H 0.3904 0.6571 0.39956 0.0
H422 H 0.51995 0.50213 0.19612 0.0
H423 H 0.48658 0.55481 0.16017 0.0
H424 H 0.56249 0.48749 0.26922 0.0
H425 H 0.55435 0.48628 0.34108 0.0
C426 C 0.07177 0.37987 0.78033 0.0
C427 C 0.0586 0.40743 0.72993 0.0
C428 C 0.01041 0.47933 0.78071 0.0
C429 C 0.02787 0.45452 0.83113 0.0
N430 N 0.05809 0.37339 0.8799 0.0
N431 N 0.00132 0.47148 0.68043 0.0
C432 C 0.05211 0.40162 0.83116 0.0
C433 C 0.02256 0.45302 0.72969 0.0
N434 N 0.10664 0.33579 0.78002 0.0
N435 N 0.98494 0.52946 0.78184 0.0
H436 H 0.01012 0.45229 0.64274 0.0
H437 H 0.97153 0.50208 0.67736 0.0
H438 H 0.97334 0.54833 0.81888 0.0
H439 H 0.97687 0.55303 0.74661 0.0
H440 H 0.12344 0.3184 0.81583 0.0
H441 H 0.12129 0.31809 0.74364 0.0
H442 H 0.07118 0.33262 0.88216 0.0
H443 H 0.04495 0.38913 0.91777 0.0
C444 C 0.75619 0.97593 0.91931 0.0
C445 C 0.7451 0.92551 0.89104 0.0
C446 C 0.64948 0.9263 0.92137 0.0
C447 C 0.66326 0.9709 0.95702 0.0
N448 N 0.72406 0.04451 0.98547 0.0
N449 N 0.68196 0.85425 0.86018 0.0
C450 C 0.71474 -0.00156 0.95382 0.0
C451 C 0.69151 0.90179 0.88959 0.0
N452 N 0.8067 0.00094 0.914 0.0
N453 N 0.59612 0.9075 0.91862 0.0
H454 H 0.71143 0.83663 0.83447 0.0
H455 H 0.64579 0.83093 0.86241 0.0
H456 H 0.56471 0.9247 0.94218 0.0
H457 H 0.58177 0.87806 0.89044 0.0
H458 H 0.81725 0.03904 0.93109 0.0
H459 H 0.8381 0.98434 0.89004 0.0
H460 H 0.76174 0.06516 0.98871 0.0
H461 H 0.69311 0.0624 0.00921 0.0
C462 C 0.84126 0.18979 0.42141 0.0
C463 C 0.80265 0.15121 0.39865 0.0
C464 C 0.87423 0.08068 0.40609 0.0
C465 C 0.90371 0.11469 0.44387 0.0
N466 N 0.91414 0.20278 0.48947 0.0
N467 N 0.78279 0.05556 0.37451 0.0
C468 C 0.88736 0.16995 0.45169 0.0
C469 C 0.81953 0.09553 0.39091 0.0
N470 N 0.83396 0.24506 0.41382 0.0
N471 N 0.89748 0.03343 0.38676 0.0
H472 H 0.74048 0.06178 0.3711 0.0
H473 H 0.79356 0.01435 0.37016 0.0
H474 H 0.9373 0.02159 0.3982 0.0
H475 H 0.8794 0.00953 0.35541 0.0
H476 H 0.86286 0.27459 0.42681 0.0
H477 H 0.80234 0.26032 0.38864 0.0
H478 H 0.90021 0.24193 0.50025 0.0
H479 H 0.94794 0.18915 0.51266 0.0
C480 C 0.28354 0.53644 0.07637 0.0
C481 C 0.28439 0.57719 0.11853 0.0
C482 C 0.18349 0.58041 0.11783 0.0
C483 C 0.18354 0.54805 0.06891 0.0
N484 N 0.22971 0.48798 0.00542 0.0
N485 N 0.23712 0.63439 0.18437 0.0
C486 C 0.23246 0.52292 0.04996 0.0
C487 C 0.23474 0.59707 0.14174 0.0
N488 N 0.33174 0.5118 0.06141 0.0
N489 N 0.13442 0.59622 0.14019 0.0
H490 H 0.27399 0.64564 0.2042 0.0
H491 H 0.20321 0.65561 0.19933 0.0
H492 H 0.09644 0.58556 0.12241 0.0
H493 H 0.13073 0.61612 0.17821 0.0
H494 H 0.33437 0.4797 0.03292 0.0
H495 H 0.36946 0.5214 0.08049 0.0
H496 H 0.26389 0.47168 0.98563 0.0
H497 H 0.19215 0.4755 0.98767 0.0
C498 C 0.23068 0.49483 0.58151 0.0
C499 C 0.22621 0.453 0.62243 0.0
C500 C 0.3264 0.45211 0.63517 0.0
C501 C 0.33091 0.48851 0.58951 0.0
N502 N 0.29115 0.55756 0.53075 0.0
N503 N 0.26652 0.40313 0.69918 0.0
C504 C 0.28399 0.51476 0.56697 0.0
C505 C 0.27313 0.43591 0.65345 0.0
N506 N 0.18421 0.5131 0.55497 0.0
N507 N 0.37323 0.43028 0.65806 0.0
H508 H 0.22799 0.3894 0.71266 0.0
H509 H 0.29847 0.39259 0.72619 0.0
H510 H 0.4126 0.44346 0.64641 0.0
H511 H 0.37355 0.3986 0.68721 0.0
H512 H 0.18457 0.53955 0.52095 0.0
H513 H 0.14465 0.50039 0.56649 0.0
H514 H 0.25908 0.58106 0.51455 0.0
H515 H 0.33042 0.5723 0.52047 0.0
C516 C 0.85879 0.72098 0.9083 0.0
C517 C 0.88051 0.77522 0.91346 0.0
C518 C 0.95356 0.74177 0.97536 0.0
C519 C 0.93806 0.68706 0.96152 0.0
N520 N 0.8766 0.62294 0.91467 0.0
N521 N 0.94731 0.83905 0.95239 0.0
C522 C 0.89006 0.67606 0.929 0.0
C523 C 0.92708 0.78634 0.94796 0.0
N524 N 0.8085 0.71262 0.88336 0.0
N525 N 0.99376 0.75056 0.0146 0.0
H526 H 0.92803 0.87289 0.93403 0.0
H527 H 0.98464 0.84907 0.97176 0.0
H528 H 0.01304 0.71802 0.03533 0.0
H529 H 0.00437 0.78935 0.03015 0.0
H530 H 0.78786 0.67473 0.88318 0.0
H531 H 0.78509 0.74478 0.86691 0.0
H532 H 0.84658 0.61273 0.88514 0.0
H533 H 0.89742 0.5887 0.93026 0.0
C534 C 0.38211 0.78806 0.12527 0.0
C535 C 0.405 0.74201 0.09744 0.0
C536 C 0.46236 0.80305 0.04085 0.0
C537 C 0.44406 0.84816 0.07308 0.0
N538 N 0.37673 0.88806 0.13302 0.0
N539 N 0.45475 0.70488 0.02017 0.0
C540 C 0.40024 0.84202 0.11087 0.0
C541 C 0.44091 0.74938 0.0519 0.0
N542 N 0.34519 0.77973 0.16715 0.0
N543 N 0.50217 0.81159 0.00185 0.0
H544 H 0.43971 0.66517 0.02808 0.0
H545 H 0.47784 0.70743 0.98405 0.0
H546 H 0.51632 0.85103 0.99152 0.0
H547 H 0.52193 0.78024 0.98047 0.0
H548 H 0.33158 0.8107 0.19348 0.0
H549 H 0.32912 0.74087 0.17693 0.0
H550 H 0.34188 0.88738 0.15794 0.0
H551 H 0.38972 0.92787 0.12239 0.0
C552 C 0.08184 0.27564 0.53095 0.0
C553 C 0.11864 0.28378 0.57642 0.0
C554 C 0.13888 0.18504 0.57823 0.0
C555 C 0.09462 0.17599 0.54058 0.0
N556 N 0.04273 0.21202 0.46306 0.0
N557 N 0.18538 0.24784 0.64187 0.0
C558 C 0.07195 0.22109 0.51091 0.0
C559 C 0.14935 0.23909 0.59862 0.0
N560 N 0.0543 0.31975 0.50912 0.0
N561 N 0.17067 0.14129 0.59398 0.0
H562 H 0.19478 0.28694 0.65759 0.0
H563 H 0.20407 0.2163 0.66431 0.0
H564 H 0.16365 0.10159 0.57833 0.0
H565 H 0.20656 0.14483 0.6178 0.0
H566 H 0.02177 0.3162 0.48081 0.0
H567 H 0.06253 0.36034 0.52142 0.0
H568 H 0.02886 0.24331 0.43699 0.0
H569 H 0.03716 0.17293 0.44614 0.0
C570 C 0.60194 0.24772 0.5018 0.0
C571 C 0.64282 0.26163 0.46237 0.0
C572 C 0.63204 0.35938 0.48364 0.0
C573 C 0.58292 0.34623 0.51232 0.0
N574 N 0.52409 0.27942 0.55614 0.0
N575 N 0.69558 0.33079 0.41293 0.0
C576 C 0.56944 0.29062 0.52466 0.0
C577 C 0.65867 0.31741 0.45355 0.0
N578 N 0.59391 0.19372 0.51622 0.0
N579 N 0.65209 0.41219 0.48321 0.0
H580 H 0.7152 0.30152 0.38855 0.0
H581 H 0.70325 0.37113 0.39993 0.0
H582 H 0.63296 0.44454 0.50349 0.0
H583 H 0.69085 0.42272 0.46787 0.0
H584 H 0.56726 0.18081 0.54737 0.0
H585 H 0.61733 0.1619 0.49947 0.0
H586 H 0.50792 0.23997 0.56226 0.0
H587 H 0.50193 0.31077 0.57541 0.0
loop_
_geom_bond_atom_site_label_1
_geom_bond_atom_site_label_2
_geom_bond_distance
_geom_bond_site_symmetry_2
_ccdc_geom_bond_type
H0 C3 0.931 . S
H1 C6 0.928 . S
H2 C8 0.930 . S
C3 H0 0.931 . S
C3 C4 1.413 . S
C3 C5 1.360 . S
C4 C3 1.413 . S
C4 C8 1.429 . S
C5 C3 1.360 . S
C5 C6 1.372 . S
C6 H1 0.928 . S
C6 C5 1.372 . S
C6 C7 1.404 . S
C7 C6 1.404 . S
C7 C8 1.391 . S
C8 H2 0.930 . S
C8 C4 1.429 . S
C8 C7 1.391 . S
H9 C12 0.931 . S
H10 C15 0.928 . S
H11 C17 0.930 . S
C12 H9 0.931 . S
C12 C13 1.413 . S
C12 C14 1.360 . S
C13 C12 1.413 . S
C13 C17 1.429 . S
C14 C12 1.360 . S
C14 C15 1.372 . S
C15 H10 0.928 . S
C15 C14 1.372 . S
C15 C16 1.404 . S
C16 C15 1.404 . S
C16 C17 1.391 . S
C17 H11 0.930 . S
C17 C13 1.429 . S
C17 C16 1.391 . S
H18 C21 0.931 . S
H19 C24 0.928 . S
H20 C26 0.930 . S
C21 H18 0.931 . S
C21 C22 1.413 . S
C21 C23 1.360 . S
C22 C21 1.413 . S
C22 C26 1.429 . S
C23 C21 1.360 . S
C23 C24 1.372 . S
C24 H19 0.928 . S
C24 C23 1.372 . S
C24 C25 1.404 . S
C25 C24 1.404 . S
C25 C26 1.391 . S
C26 H20 0.930 . S
C26 C22 1.429 . S
C26 C25 1.391 . S
H27 C30 0.931 . S
H28 C33 0.928 . S
H29 C35 0.930 . S
C30 H27 0.931 . S
C30 C31 1.413 . S
C30 C32 1.360 . S
C31 C30 1.413 . S
C31 C35 1.429 . S
C32 C30 1.360 . S
C32 C33 1.372 . S
C33 H28 0.928 . S
C33 C32 1.372 . S
C33 C34 1.404 . S
C34 C33 1.404 . S
C34 C35 1.391 . S
C35 H29 0.930 . S
C35 C31 1.429 . S
C35 C34 1.391 . S
H36 C39 0.931 1_545 S
H37 C42 0.928 1_455 S
H38 C44 0.930 1_554 S
C39 H36 0.931 1_565 S
C39 C40 1.413 . S
C39 C41 1.360 . S
C40 C39 1.413 . S
C40 C44 1.429 . S
C41 C39 1.360 . S
C41 C42 1.372 . S
C42 H37 0.928 1_655 S
C42 C41 1.372 . S
C42 C43 1.404 . S
C43 C42 1.404 . S
C43 C44 1.391 . S
C44 H38 0.930 1_556 S
C44 C40 1.429 . S
C44 C43 1.391 . S
H45 C48 0.931 . S
H46 C51 0.928 . S
H47 C53 0.930 . S
C48 H45 0.931 . S
C48 C49 1.413 . S
C48 C50 1.360 . S
C49 C48 1.413 . S
C49 C53 1.429 . S
C50 C48 1.360 . S
C50 C51 1.372 . S
C51 H46 0.928 . S
C51 C50 1.372 . S
C51 C52 1.404 . S
C52 C51 1.404 . S
C52 C53 1.391 . S
C53 H47 0.930 . S
C53 C49 1.429 . S
C53 C52 1.391 . S
H54 C57 0.931 . S
H55 C60 0.928 . S
H56 C62 0.930 . S
C57 H54 0.931 . S
C57 C58 1.413 . S
C57 C59 1.360 . S
C58 C57 1.413 . S
C58 C62 1.429 . S
C59 C57 1.360 . S
C59 C60 1.372 . S
C60 H55 0.928 . S
C60 C59 1.372 . S
C60 C61 1.404 . S
C61 C60 1.404 . S
C61 C62 1.391 . S
C62 H56 0.930 . S
C62 C58 1.429 . S
C62 C61 1.391 . S
H63 C66 0.931 . S
H64 C69 0.928 . S
H65 C71 0.930 . S
C66 H63 0.931 . S
C66 C67 1.413 . S
C66 C68 1.360 . S
C67 C66 1.413 . S
C67 C71 1.429 . S
C68 C66 1.360 . S
C68 C69 1.372 . S
C69 H64 0.928 . S
C69 C68 1.372 . S
C69 C70 1.404 . S
C70 C69 1.404 . S
C70 C71 1.391 . S
C71 H65 0.930 . S
C71 C67 1.429 . S
C71 C70 1.391 . S
Zn72 O78 1.920 . S
Zn72 O84 1.898 . S
Zn72 O87 1.905 . S
Zn73 O81 1.905 1_565 S
Zn73 O82 1.898 . S
Zn73 O90 1.920 . S
Zn74 O77 2.080 1_455 S
Zn74 O80 2.114 . S
Zn74 O83 2.120 1_445 S
Zn74 O85 2.120 . S
Zn74 O86 2.114 1_455 S
Zn74 O89 2.080 . S
C75 O80 1.166 . S
C75 O81 1.182 . S
C76 O82 1.167 1_655 S
C76 O83 1.299 . S
O77 Zn74 2.080 1_655 S
O77 C91 1.305 . S
O78 Zn72 1.920 . S
O78 C91 1.234 . S
C79 O84 1.167 1_455 S
C79 O85 1.299 . S
O80 Zn74 2.114 . S
O80 C75 1.166 . S
O81 Zn73 1.905 1_545 S
O81 C75 1.182 . S
O82 Zn73 1.898 . S
O82 C76 1.167 1_455 S
O83 Zn74 2.120 1_665 S
O83 C76 1.299 . S
O84 Zn72 1.898 . S
O84 C79 1.167 1_655 S
O85 Zn74 2.120 . S
O85 C79 1.299 . S
O86 Zn74 2.114 1_655 S
O86 C88 1.166 . S
O87 Zn72 1.905 . S
O87 C88 1.182 . S
C88 O86 1.166 . S
C88 O87 1.182 . S
O89 Zn74 2.080 . S
O89 C92 1.305 1_545 S
O90 Zn73 1.920 . S
O90 C92 1.234 . S
C91 O77 1.305 . S
C91 O78 1.234 . S
C92 O89 1.305 1_565 S
C92 O90 1.234 . S
Zn93 O99 1.920 1_556 S
Zn93 O105 1.898 . S
Zn93 O108 1.905 . S
Zn94 O102 1.905 . S
Zn94 O103 1.898 . S
Zn94 O111 1.920 . S
Zn95 O98 2.080 . S
Zn95 O101 2.114 1_545 S
Zn95 O104 2.120 1_545 S
Zn95 O106 2.120 . S
Zn95 O107 2.114 1_544 S
Zn95 O110 2.080 . S
C96 O101 1.166 . S
C96 O102 1.182 . S
C97 O103 1.167 . S
C97 O104 1.299 . S
O98 Zn95 2.080 . S
O98 C112 1.305 . S
O99 Zn93 1.920 1_554 S
O99 C112 1.234 . S
C100 O105 1.167 . S
C100 O106 1.299 1_556 S
O101 Zn95 2.114 1_565 S
O101 C96 1.166 . S
O102 Zn94 1.905 . S
O102 C96 1.182 . S
O103 Zn94 1.898 . S
O103 C97 1.167 . S
O104 Zn95 2.120 1_565 S
O104 C97 1.299 . S
O105 Zn93 1.898 . S
O105 C100 1.167 . S
O106 Zn95 2.120 . S
O106 C100 1.299 1_554 S
O107 Zn95 2.114 1_566 S
O107 C109 1.166 . S
O108 Zn93 1.905 . S
O108 C109 1.182 1_545 S
C109 O107 1.166 . S
C109 O108 1.182 1_565 S
O110 Zn95 2.080 . S
O110 C113 1.305 . S
O111 Zn94 1.920 . S
O111 C113 1.234 1_565 S
C112 O98 1.305 . S
C112 O99 1.234 . S
C113 O110 1.305 . S
C113 O111 1.234 1_545 S
Zn114 O120 1.920 . S
Zn114 O126 1.898 . S
Zn114 O129 1.905 . S
Zn115 O123 1.905 . S
Zn115 O124 1.898 . S
Zn115 O132 1.920 . S
Zn116 O119 2.080 . S
Zn116 O122 2.114 . S
Zn116 O125 2.120 . S
Zn116 O127 2.120 . S
Zn116 O128 2.114 . S
Zn116 O131 2.080 . S
C117 O122 1.166 . S
C117 O123 1.182 . S
C118 O124 1.167 . S
C118 O125 1.299 . S
O119 Zn116 2.080 . S
O119 C133 1.305 . S
O120 Zn114 1.920 . S
O120 C133 1.234 . S
C121 O126 1.167 . S
C121 O127 1.299 . S
O122 Zn116 2.114 . S
O122 C117 1.166 . S
O123 Zn115 1.905 . S
O123 C117 1.182 . S
O124 Zn115 1.898 . S
O124 C118 1.167 . S
O125 Zn116 2.120 . S
O125 C118 1.299 . S
O126 Zn114 1.898 . S
O126 C121 1.167 . S
O127 Zn116 2.120 . S
O127 C121 1.299 . S
O128 Zn116 2.114 . S
O128 C130 1.166 . S
O129 Zn114 1.905 . S
O129 C130 1.182 . S
C130 O128 1.166 . S
C130 O129 1.182 . S
O131 Zn116 2.080 . S
O131 C134 1.305 . S
O132 Zn115 1.920 . S
O132 C134 1.234 . S
C133 O119 1.305 . S
C133 O120 1.234 . S
C134 O131 1.305 . S
C134 O132 1.234 . S
Zn135 O141 1.920 . S
Zn135 O147 1.898 . S
Zn135 O150 1.905 . S
Zn136 O144 1.905 1_655 S
Zn136 O145 1.898 . S
Zn136 O153 1.920 . S
Zn137 O140 2.080 1_554 S
Zn137 O143 2.114 . S
Zn137 O146 2.120 1_454 S
Zn137 O148 2.120 . S
Zn137 O149 2.114 1_554 S
Zn137 O152 2.080 . S
C138 O143 1.166 . S
C138 O144 1.182 . S
C139 O145 1.167 1_556 S
C139 O146 1.299 . S
O140 Zn137 2.080 1_556 S
O140 C154 1.305 . S
O141 Zn135 1.920 . S
O141 C154 1.234 . S
C142 O147 1.167 1_554 S
C142 O148 1.299 . S
O143 Zn137 2.114 . S
O143 C138 1.166 . S
O144 Zn136 1.905 1_455 S
O144 C138 1.182 . S
O145 Zn136 1.898 . S
O145 C139 1.167 1_554 S
O146 Zn137 2.120 1_656 S
O146 C139 1.299 . S
O147 Zn135 1.898 . S
O147 C142 1.167 1_556 S
O148 Zn137 2.120 . S
O148 C142 1.299 . S
O149 Zn137 2.114 1_556 S
O149 C151 1.166 . S
O150 Zn135 1.905 . S
O150 C151 1.182 . S
C151 O149 1.166 . S
C151 O150 1.182 . S
O152 Zn137 2.080 . S
O152 C155 1.305 1_455 S
O153 Zn136 1.920 . S
O153 C155 1.234 . S
C154 O140 1.305 . S
C154 O141 1.234 . S
C155 O152 1.305 1_655 S
C155 O153 1.234 . S
C156 C157 1.363 . S
C156 C162 1.379 . S
C156 N164 1.356 . S
C157 C156 1.363 . S
C157 C163 1.363 . S
C158 C159 1.363 . S
C158 C163 1.379 . S
C158 N165 1.356 . S
C159 C158 1.363 . S
C159 C162 1.363 . S
N160 C162 1.356 . S
N160 H172 0.984 1_545 S
N160 H173 0.985 . S
N161 C163 1.356 . S
N161 H166 0.984 . S
N161 H167 0.985 . S
C162 C156 1.379 . S
C162 C159 1.363 . S
C162 N160 1.356 . S
C163 C157 1.363 . S
C163 C158 1.379 . S
C163 N161 1.356 . S
N164 C156 1.356 . S
N164 H170 0.984 . S
N164 H171 0.984 . S
N165 C158 1.356 . S
N165 H168 0.984 . S
N165 H169 0.985 . S
H166 N161 0.984 . S
H167 N161 0.985 . S
H168 N165 0.984 . S
H169 N165 0.985 . S
H170 N164 0.984 . S
H171 N164 0.984 . S
H172 N160 0.984 1_565 S
H173 N160 0.985 . S
C174 C175 1.363 . S
C174 C180 1.379 . S
C174 N182 1.356 . S
C175 C174 1.363 . S
C175 C181 1.363 . S
C176 C177 1.363 . S
C176 C181 1.379 . S
C176 N183 1.356 1_565 S
C177 C176 1.363 . S
C177 C180 1.363 . S
N178 C180 1.356 . S
N178 H190 0.984 . S
N178 H191 0.985 . S
N179 C181 1.356 . S
N179 H184 0.984 . S
N179 H185 0.985 . S
C180 C174 1.379 . S
C180 C177 1.363 . S
C180 N178 1.356 . S
C181 C175 1.363 . S
C181 C176 1.379 . S
C181 N179 1.356 . S
N182 C174 1.356 . S
N182 H188 0.984 . S
N182 H189 0.984 . S
N183 C176 1.356 1_545 S
N183 H186 0.984 . S
N183 H187 0.985 . S
H184 N179 0.984 . S
H185 N179 0.985 . S
H186 N183 0.984 . S
H187 N183 0.985 . S
H188 N182 0.984 . S
H189 N182 0.984 . S
H190 N178 0.984 . S
H191 N178 0.985 . S
C192 C193 1.363 . S
C192 C198 1.379 . S
C192 N200 1.356 . S
C193 C192 1.363 . S
C193 C199 1.363 . S
C194 C195 1.363 . S
C194 C199 1.379 . S
C194 N201 1.356 . S
C195 C194 1.363 . S
C195 C198 1.363 . S
N196 C198 1.356 . S
N196 H208 0.984 . S
N196 H209 0.985 . S
N197 C199 1.356 . S
N197 H202 0.984 . S
N197 H203 0.985 . S
C198 C192 1.379 . S
C198 C195 1.363 . S
C198 N196 1.356 . S
C199 C193 1.363 . S
C199 C194 1.379 . S
C199 N197 1.356 . S
N200 C192 1.356 . S
N200 H206 0.984 . S
N200 H207 0.984 . S
N201 C194 1.356 . S
N201 H204 0.984 . S
N201 H205 0.985 . S
H202 N197 0.984 . S
H203 N197 0.985 . S
H204 N201 0.984 . S
H205 N201 0.985 . S
H206 N200 0.984 . S
H207 N200 0.984 . S
H208 N196 0.984 . S
H209 N196 0.985 . S
C210 C211 1.363 . S
C210 C216 1.379 . S
C210 N218 1.356 . S
C211 C210 1.363 . S
C211 C217 1.363 . S
C212 C213 1.363 . S
C212 C217 1.379 . S
C212 N219 1.356 . S
C213 C212 1.363 . S
C213 C216 1.363 . S
N214 C216 1.351 1_455 S
N214 H226 0.988 . S
N214 H227 0.986 . S
N215 C217 1.356 . S
N215 H220 0.984 . S
N215 H221 0.985 . S
C216 C210 1.379 . S
C216 C213 1.363 . S
C216 N214 1.351 1_655 S
C217 C211 1.363 . S
C217 C212 1.379 . S
C217 N215 1.356 . S
N218 C210 1.356 . S
N218 H224 0.984 . S
N218 H225 0.984 . S
N219 C212 1.356 . S
N219 H222 0.984 . S
N219 H223 0.985 . S
H220 N215 0.984 . S
H221 N215 0.985 . S
H222 N219 0.984 . S
H223 N219 0.985 . S
H224 N218 0.984 . S
H225 N218 0.984 . S
H226 N214 0.988 . S
H227 N214 0.986 . S
C228 C229 1.363 . S
C228 C234 1.379 . S
C228 N236 1.356 . S
C229 C228 1.363 . S
C229 C235 1.363 . S
C230 C231 1.363 . S
C230 C235 1.379 . S
C230 N237 1.356 . S
C231 C230 1.363 . S
C231 C234 1.363 . S
N232 C234 1.356 . S
N232 H244 0.984 1_554 S
N232 H245 0.985 . S
N233 C235 1.356 . S
N233 H238 0.984 . S
N233 H239 0.985 . S
C234 C228 1.379 . S
C234 C231 1.363 . S
C234 N232 1.356 . S
C235 C229 1.363 . S
C235 C230 1.379 . S
C235 N233 1.356 . S
N236 C228 1.356 . S
N236 H242 0.984 . S
N236 H243 0.984 . S
N237 C230 1.356 . S
N237 H240 0.984 . S
N237 H241 0.985 . S
H238 N233 0.984 . S
H239 N233 0.985 . S
H240 N237 0.984 . S
H241 N237 0.985 . S
H242 N236 0.984 . S
H243 N236 0.984 . S
H244 N232 0.984 1_556 S
H245 N232 0.985 . S
C246 C247 1.363 . S
C246 C252 1.379 . S
C246 N254 1.356 . S
C247 C246 1.363 . S
C247 C253 1.363 . S
C248 C249 1.363 . S
C248 C253 1.379 . S
C248 N255 1.356 . S
C249 C248 1.363 . S
C249 C252 1.363 . S
N250 C252 1.356 . S
N250 H262 0.984 . S
N250 H263 0.985 . S
N251 C253 1.356 . S
N251 H256 0.984 . S
N251 H257 0.985 . S
C252 C246 1.379 . S
C252 C249 1.363 . S
C252 N250 1.356 . S
C253 C247 1.363 . S
C253 C248 1.379 . S
C253 N251 1.356 . S
N254 C246 1.356 . S
N254 H260 0.984 . S
N254 H261 0.984 . S
N255 C248 1.356 . S
N255 H258 0.984 . S
N255 H259 0.985 . S
H256 N251 0.984 . S
H257 N251 0.985 . S
H258 N255 0.984 . S
H259 N255 0.985 . S
H260 N254 0.984 . S
H261 N254 0.984 . S
H262 N250 0.984 . S
H263 N250 0.985 . S
C264 C265 1.363 . S
C264 C270 1.379 . S
C264 N272 1.356 . S
C265 C264 1.363 . S
C265 C271 1.363 . S
C266 C267 1.363 . S
C266 C271 1.379 . S
C266 N273 1.356 1_556 S
C267 C266 1.363 . S
C267 C270 1.363 . S
N268 C270 1.356 . S
N268 H280 0.984 . S
N268 H281 0.985 . S
N269 C271 1.356 . S
N269 H274 0.984 . S
N269 H275 0.985 . S
C270 C264 1.379 . S
C270 C267 1.363 . S
C270 N268 1.356 . S
C271 C265 1.363 . S
C271 C266 1.379 . S
C271 N269 1.356 . S
N272 C264 1.356 . S
N272 H278 0.984 . S
N272 H279 0.984 . S
N273 C266 1.356 1_554 S
N273 H276 0.984 . S
N273 H277 0.985 . S
H274 N269 0.984 . S
H275 N269 0.985 . S
H276 N273 0.984 . S
H277 N273 0.985 . S
H278 N272 0.984 . S
H279 N272 0.984 . S
H280 N268 0.984 . S
H281 N268 0.985 . S
C282 C283 1.363 . S
C282 C288 1.379 . S
C282 N290 1.356 . S
C283 C282 1.363 . S
C283 C289 1.363 . S
C284 C285 1.363 . S
C284 C289 1.379 . S
C284 N291 1.356 . S
C285 C284 1.363 . S
C285 C288 1.363 . S
N286 C288 1.356 . S
N286 H298 0.984 . S
N286 H299 0.985 . S
N287 C289 1.356 . S
N287 H292 0.984 . S
N287 H293 0.985 . S
C288 C282 1.379 . S
C288 C285 1.363 . S
C288 N286 1.356 . S
C289 C283 1.363 . S
C289 C284 1.379 . S
C289 N287 1.356 . S
N290 C282 1.356 . S
N290 H296 0.984 . S
N290 H297 0.984 . S
N291 C284 1.356 . S
N291 H294 0.984 . S
N291 H295 0.985 . S
H292 N287 0.984 . S
H293 N287 0.985 . S
H294 N291 0.984 . S
H295 N291 0.985 . S
H296 N290 0.984 . S
H297 N290 0.984 . S
H298 N286 0.984 . S
H299 N286 0.985 . S
C300 C301 1.363 . S
C300 C306 1.379 . S
C300 N308 1.356 . S
C301 C300 1.363 . S
C301 C307 1.363 . S
C302 C303 1.363 . S
C302 C307 1.379 . S
C302 N309 1.356 . S
C303 C302 1.363 . S
C303 C306 1.363 . S
N304 C306 1.356 . S
N304 H316 0.984 . S
N304 H317 0.985 . S
N305 C307 1.356 . S
N305 H310 0.984 . S
N305 H311 0.985 . S
C306 C300 1.379 . S
C306 C303 1.363 . S
C306 N304 1.356 . S
C307 C301 1.363 . S
C307 C302 1.379 . S
C307 N305 1.356 . S
N308 C300 1.356 . S
N308 H314 0.984 . S
N308 H315 0.984 . S
N309 C302 1.356 . S
N309 H312 0.984 . S
N309 H313 0.985 1_455 S
H310 N305 0.984 . S
H311 N305 0.985 . S
H312 N309 0.984 . S
H313 N309 0.985 1_655 S
H314 N308 0.984 . S
H315 N308 0.984 . S
H316 N304 0.984 . S
H317 N304 0.985 . S
C318 C319 1.363 . S
C318 C324 1.379 . S
C318 N326 1.356 . S
C319 C318 1.363 . S
C319 C325 1.363 . S
C320 C321 1.363 . S
C320 C325 1.379 . S
C320 N327 1.356 . S
C321 C320 1.363 . S
C321 C324 1.363 . S
N322 C324 1.356 1_554 S
N322 H334 0.984 . S
N322 H335 0.985 . S
N323 C325 1.356 . S
N323 H328 0.984 . S
N323 H329 0.985 . S
C324 C318 1.379 . S
C324 C321 1.363 . S
C324 N322 1.356 1_556 S
C325 C319 1.363 . S
C325 C320 1.379 . S
C325 N323 1.356 . S
N326 C318 1.356 . S
N326 H332 0.984 . S
N326 H333 0.984 . S
N327 C320 1.356 . S
N327 H330 0.984 . S
N327 H331 0.985 . S
H328 N323 0.984 . S
H329 N323 0.985 . S
H330 N327 0.984 . S
H331 N327 0.985 . S
H332 N326 0.984 . S
H333 N326 0.984 . S
H334 N322 0.984 . S
H335 N322 0.985 . S
C336 C337 1.363 . S
C336 C342 1.379 . S
C336 N344 1.356 . S
C337 C336 1.363 . S
C337 C343 1.363 . S
C338 C339 1.363 . S
C338 C343 1.379 . S
C338 N345 1.356 . S
C339 C338 1.363 . S
C339 C342 1.363 . S
N340 C342 1.356 1_455 S
N340 H352 0.984 . S
N340 H353 0.985 . S
N341 C343 1.356 . S
N341 H346 0.984 . S
N341 H347 0.985 . S
C342 C336 1.379 . S
C342 C339 1.363 . S
C342 N340 1.356 1_655 S
C343 C337 1.363 . S
C343 C338 1.379 . S
C343 N341 1.356 . S
N344 C336 1.356 . S
N344 H350 0.984 . S
N344 H351 0.984 . S
N345 C338 1.356 . S
N345 H348 0.984 . S
N345 H349 0.985 . S
H346 N341 0.984 . S
H347 N341 0.985 . S
H348 N345 0.984 . S
H349 N345 0.985 . S
H350 N344 0.984 . S
H351 N344 0.984 . S
H352 N340 0.984 . S
H353 N340 0.985 . S
C354 C355 1.363 . S
C354 C360 1.379 . S
C354 N362 1.356 . S
C355 C354 1.363 . S
C355 C361 1.363 . S
C356 C357 1.363 . S
C356 C361 1.379 . S
C356 N363 1.356 . S
C357 C356 1.363 . S
C357 C360 1.363 . S
N358 C360 1.356 . S
N358 H370 0.984 . S
N358 H371 0.985 . S
N359 C361 1.356 . S
N359 H364 0.984 . S
N359 H365 0.985 . S
C360 C354 1.379 . S
C360 C357 1.363 . S
C360 N358 1.356 . S
C361 C355 1.363 . S
C361 C356 1.379 . S
C361 N359 1.356 . S
N362 C354 1.356 . S
N362 H368 0.984 . S
N362 H369 0.984 . S
N363 C356 1.356 . S
N363 H366 0.984 . S
N363 H367 0.985 . S
H364 N359 0.984 . S
H365 N359 0.985 . S
H366 N363 0.984 . S
H367 N363 0.985 . S
H368 N362 0.984 . S
H369 N362 0.984 . S
H370 N358 0.984 . S
H371 N358 0.985 . S
C372 C373 1.363 1_545 S
C372 C378 1.379 . S
C372 N380 1.356 . S
C373 C372 1.363 1_565 S
C373 C379 1.363 . S
C374 C375 1.370 1_455 S
C374 C379 1.379 1_455 S
C374 N381 1.356 . S
C375 C374 1.370 1_655 S
C375 C378 1.358 1_565 S
N376 C378 1.356 . S
N376 H388 0.984 . S
N376 H389 0.985 . S
N377 C379 1.356 1_455 S
N377 H382 0.984 . S
N377 H383 0.985 . S
C378 C372 1.379 . S
C378 C375 1.358 1_545 S
C378 N376 1.356 . S
C379 C373 1.363 . S
C379 C374 1.379 1_655 S
C379 N377 1.356 1_655 S
N380 C372 1.356 . S
N380 H386 0.984 . S
N380 H387 0.984 . S
N381 C374 1.356 . S
N381 H384 0.984 . S
N381 H385 0.985 . S
H382 N377 0.984 . S
H383 N377 0.985 . S
H384 N381 0.984 . S
H385 N381 0.985 . S
H386 N380 0.984 . S
H387 N380 0.984 . S
H388 N376 0.984 . S
H389 N376 0.985 . S
C390 C391 1.363 . S
C390 C396 1.379 . S
C390 N398 1.356 . S
C391 C390 1.363 . S
C391 C397 1.363 . S
C392 C393 1.363 . S
C392 C397 1.379 . S
C392 N399 1.356 1_545 S
C393 C392 1.363 . S
C393 C396 1.363 . S
N394 C396 1.356 . S
N394 H406 0.984 . S
N394 H407 0.985 . S
N395 C397 1.356 . S
N395 H400 0.984 . S
N395 H401 0.985 1_545 S
C396 C390 1.379 . S
C396 C393 1.363 . S
C396 N394 1.356 . S
C397 C391 1.363 . S
C397 C392 1.379 . S
C397 N395 1.356 . S
N398 C390 1.356 . S
N398 H404 0.984 . S
N398 H405 0.984 . S
N399 C392 1.356 1_565 S
N399 H402 0.984 . S
N399 H403 0.985 . S
H400 N395 0.984 . S
H401 N395 0.985 1_565 S
H402 N399 0.984 . S
H403 N399 0.985 . S
H404 N398 0.984 . S
H405 N398 0.984 . S
H406 N394 0.984 . S
H407 N394 0.985 . S
C408 C409 1.363 . S
C408 C414 1.379 . S
C408 N416 1.356 . S
C409 C408 1.363 . S
C409 C415 1.363 . S
C410 C411 1.363 . S
C410 C415 1.379 . S
C410 N417 1.356 . S
C411 C410 1.363 . S
C411 C414 1.363 . S
N412 C414 1.356 . S
N412 H424 0.984 . S
N412 H425 0.985 . S
N413 C415 1.356 . S
N413 H418 0.984 . S
N413 H419 0.985 . S
C414 C408 1.379 . S
C414 C411 1.363 . S
C414 N412 1.356 . S
C415 C409 1.363 . S
C415 C410 1.379 . S
C415 N413 1.356 . S
N416 C408 1.356 . S
N416 H422 0.984 . S
N416 H423 0.984 . S
N417 C410 1.356 . S
N417 H420 0.984 . S
N417 H421 0.985 . S
H418 N413 0.984 . S
H419 N413 0.985 . S
H420 N417 0.984 . S
H421 N417 0.985 . S
H422 N416 0.984 . S
H423 N416 0.984 . S
H424 N412 0.984 . S
H425 N412 0.985 . S
C426 C427 1.363 . S
C426 C432 1.379 . S
C426 N434 1.356 . S
C427 C426 1.363 . S
C427 C433 1.363 . S
C428 C429 1.363 . S
C428 C433 1.379 . S
C428 N435 1.356 . S
C429 C428 1.363 . S
C429 C432 1.363 . S
N430 C432 1.357 1_655 S
N430 H442 0.983 . S
N430 H443 0.985 1_655 S
N431 C433 1.356 . S
N431 H436 0.984 . S
N431 H437 0.985 . S
C432 C426 1.379 . S
C432 C429 1.363 . S
C432 N430 1.357 1_455 S
C433 C427 1.363 . S
C433 C428 1.379 . S
C433 N431 1.356 . S
N434 C426 1.356 . S
N434 H440 0.984 1_455 S
N434 H441 0.984 . S
N435 C428 1.356 . S
N435 H438 0.984 . S
N435 H439 0.985 . S
H436 N431 0.984 . S
H437 N431 0.985 . S
H438 N435 0.984 . S
H439 N435 0.985 . S
H440 N434 0.984 1_655 S
H441 N434 0.984 . S
H442 N430 0.983 . S
H443 N430 0.985 1_455 S
C444 C445 1.363 1_545 S
C444 C450 1.376 1_556 S
C444 N452 1.356 . S
C445 C444 1.363 1_565 S
C445 C451 1.363 . S
C446 C447 1.363 . S
C446 C451 1.379 . S
C446 N453 1.356 . S
C447 C446 1.363 . S
C447 C450 1.362 1_566 S
N448 C450 1.360 . S
N448 H460 0.984 . S
N448 H461 0.985 . S
N449 C451 1.356 . S
N449 H454 0.984 . S
N449 H455 0.985 . S
C450 C444 1.376 1_554 S
C450 C447 1.362 1_544 S
C450 N448 1.360 . S
C451 C445 1.363 . S
C451 C446 1.379 . S
C451 N449 1.356 . S
N452 C444 1.356 . S
N452 H458 0.988 . S
N452 H459 0.984 . S
N453 C446 1.356 . S
N453 H456 0.984 . S
N453 H457 0.985 . S
H454 N449 0.984 . S
H455 N449 0.985 . S
H456 N453 0.984 . S
H457 N453 0.985 . S
H458 N452 0.988 . S
H459 N452 0.984 . S
H460 N448 0.984 . S
H461 N448 0.985 . S
C462 C463 1.363 . S
C462 C468 1.379 . S
C462 N470 1.356 . S
C463 C462 1.363 . S
C463 C469 1.363 . S
C464 C465 1.363 . S
C464 C469 1.379 . S
C464 N471 1.356 1_545 S
C465 C464 1.363 . S
C465 C468 1.363 . S
N466 C468 1.356 . S
N466 H478 0.984 . S
N466 H479 0.985 . S
N467 C469 1.356 . S
N467 H472 0.984 . S
N467 H473 0.985 1_545 S
C468 C462 1.379 . S
C468 C465 1.363 . S
C468 N466 1.356 . S
C469 C463 1.363 . S
C469 C464 1.379 . S
C469 N467 1.356 . S
N470 C462 1.356 . S
N470 H476 0.984 . S
N470 H477 0.984 . S
N471 C464 1.356 1_565 S
N471 H474 0.984 . S
N471 H475 0.985 . S
H472 N467 0.984 . S
H473 N467 0.985 1_565 S
H474 N471 0.984 . S
H475 N471 0.985 . S
H476 N470 0.984 . S
H477 N470 0.984 . S
H478 N466 0.984 . S
H479 N466 0.985 . S
C480 C481 1.363 . S
C480 C486 1.379 . S
C480 N488 1.356 . S
C481 C480 1.363 . S
C481 C487 1.363 . S
C482 C483 1.363 . S
C482 C487 1.379 . S
C482 N489 1.356 . S
C483 C482 1.363 . S
C483 C486 1.363 . S
N484 C486 1.356 . S
N484 H496 0.984 1_554 S
N484 H497 0.985 . S
N485 C487 1.356 . S
N485 H490 0.984 . S
N485 H491 0.985 . S
C486 C480 1.379 . S
C486 C483 1.363 . S
C486 N484 1.356 . S
C487 C481 1.363 . S
C487 C482 1.379 . S
C487 N485 1.356 . S
N488 C480 1.356 . S
N488 H494 0.984 . S
N488 H495 0.984 . S
N489 C482 1.356 . S
N489 H492 0.984 . S
N489 H493 0.985 . S
H490 N485 0.984 . S
H491 N485 0.985 . S
H492 N489 0.984 . S
H493 N489 0.985 . S
H494 N488 0.984 . S
H495 N488 0.984 . S
H496 N484 0.984 1_556 S
H497 N484 0.985 . S
C498 C499 1.363 . S
C498 C504 1.379 . S
C498 N506 1.356 . S
C499 C498 1.363 . S
C499 C505 1.363 . S
C500 C501 1.363 . S
C500 C505 1.379 . S
C500 N507 1.356 . S
C501 C500 1.363 . S
C501 C504 1.363 . S
N502 C504 1.356 . S
N502 H514 0.984 . S
N502 H515 0.985 . S
N503 C505 1.356 . S
N503 H508 0.984 . S
N503 H509 0.985 . S
C504 C498 1.379 . S
C504 C501 1.363 . S
C504 N502 1.356 . S
C505 C499 1.363 . S
C505 C500 1.379 . S
C505 N503 1.356 . S
N506 C498 1.356 . S
N506 H512 0.984 . S
N506 H513 0.984 . S
N507 C500 1.356 . S
N507 H510 0.984 . S
N507 H511 0.985 . S
H508 N503 0.984 . S
H509 N503 0.985 . S
H510 N507 0.984 . S
H511 N507 0.985 . S
H512 N506 0.984 . S
H513 N506 0.984 . S
H514 N502 0.984 . S
H515 N502 0.985 . S
C516 C517 1.363 . S
C516 C522 1.379 . S
C516 N524 1.356 . S
C517 C516 1.363 . S
C517 C523 1.363 1_656 S
C518 C519 1.363 1_454 S
C518 C523 1.379 . S
C518 N525 1.356 . S
C519 C518 1.363 1_656 S
C519 C522 1.363 . S
N520 C522 1.356 . S
N520 H532 0.984 . S
N520 H533 0.985 . S
N521 C523 1.356 . S
N521 H526 0.984 . S
N521 H527 0.985 . S
C522 C516 1.379 . S
C522 C519 1.363 . S
C522 N520 1.356 . S
C523 C517 1.363 1_454 S
C523 C518 1.379 . S
C523 N521 1.356 . S
N524 C516 1.356 . S
N524 H530 0.984 . S
N524 H531 0.984 . S
N525 C518 1.356 . S
N525 H528 0.984 . S
N525 H529 0.985 . S
H526 N521 0.984 . S
H527 N521 0.985 . S
H528 N525 0.984 . S
H529 N525 0.985 . S
H530 N524 0.984 . S
H531 N524 0.984 . S
H532 N520 0.984 . S
H533 N520 0.985 . S
C534 C535 1.363 . S
C534 C540 1.379 . S
C534 N542 1.356 . S
C535 C534 1.363 . S
C535 C541 1.363 . S
C536 C537 1.363 . S
C536 C541 1.379 . S
C536 N543 1.356 . S
C537 C536 1.363 . S
C537 C540 1.363 . S
N538 C540 1.356 . S
N538 H550 0.984 . S
N538 H551 0.985 . S
N539 C541 1.356 . S
N539 H544 0.984 . S
N539 H545 0.985 1_554 S
C540 C534 1.379 . S
C540 C537 1.363 . S
C540 N538 1.356 . S
C541 C535 1.363 . S
C541 C536 1.379 . S
C541 N539 1.356 . S
N542 C534 1.356 . S
N542 H548 0.984 . S
N542 H549 0.984 . S
N543 C536 1.356 . S
N543 H546 0.984 . S
N543 H547 0.985 1_554 S
H544 N539 0.984 . S
H545 N539 0.985 1_556 S
H546 N543 0.984 . S
H547 N543 0.985 1_556 S
H548 N542 0.984 . S
H549 N542 0.984 . S
H550 N538 0.984 . S
H551 N538 0.985 . S
C552 C553 1.363 . S
C552 C558 1.379 . S
C552 N560 1.356 . S
C553 C552 1.363 . S
C553 C559 1.363 . S
C554 C555 1.363 . S
C554 C559 1.379 . S
C554 N561 1.356 . S
C555 C554 1.363 . S
C555 C558 1.363 . S
N556 C558 1.356 1_655 S
N556 H568 0.984 . S
N556 H569 0.985 . S
N557 C559 1.356 . S
N557 H562 0.984 . S
N557 H563 0.985 . S
C558 C552 1.379 . S
C558 C555 1.363 . S
C558 N556 1.356 1_455 S
C559 C553 1.363 . S
C559 C554 1.379 . S
C559 N557 1.356 . S
N560 C552 1.356 . S
N560 H566 0.984 1_455 S
N560 H567 0.984 . S
N561 C554 1.356 . S
N561 H564 0.984 . S
N561 H565 0.985 . S
H562 N557 0.984 . S
H563 N557 0.985 . S
H564 N561 0.984 . S
H565 N561 0.985 . S
H566 N560 0.984 1_655 S
H567 N560 0.984 . S
H568 N556 0.984 . S
H569 N556 0.985 . S
C570 C571 1.363 . S
C570 C576 1.379 . S
C570 N578 1.356 . S
C571 C570 1.363 . S
C571 C577 1.363 . S
C572 C573 1.363 . S
C572 C577 1.379 . S
C572 N579 1.356 . S
C573 C572 1.363 . S
C573 C576 1.363 . S
N574 C576 1.356 . S
N574 H586 0.984 . S
N574 H587 0.985 . S
N575 C577 1.356 . S
N575 H580 0.984 . S
N575 H581 0.985 . S
C576 C570 1.379 . S
C576 C573 1.363 . S
C576 N574 1.356 . S
C577 C571 1.363 . S
C577 C572 1.379 . S
C577 N575 1.356 . S
N578 C570 1.356 . S
N578 H584 0.984 . S
N578 H585 0.984 . S
N579 C572 1.356 . S
N579 H582 0.984 . S
N579 H583 0.985 . S
H580 N575 0.984 . S
H581 N575 0.985 . S
H582 N579 0.984 . S
H583 N579 0.985 . S
H584 N578 0.984 . S
H585 N578 0.984 . S
H586 N574 0.984 . S
H587 N574 0.985 . S
C157 C5 1.541 . S
C159 C75 1.440 . S
C175 C14 1.515 . S
C177 C109 1.414 . S
C195 C121 1.398 . S
C193 C25 1.496 . S
C211 C34 1.502 . S
C213 C155 1.405 . S
C231 C112 1.416 . S
C229 C7 1.517 . S
C249 C92 1.419 . S
C247 C13 1.522 . S
C267 C139 1.395 . S
C265 C23 1.494 . S
C285 C130 1.412 . S
C283 C31 1.510 . S
C301 C4 1.529 . S
C303 C138 1.426 . S
C321 C100 1.400 . S
C319 C22 1.500 . S
C337 C32 1.515 . S
C339 C76 1.406 . S
C355 C16 1.509 . S
C357 C133 1.409 . S
C375 C91 1.453 1_565 S
C373 C41 1.540 . S
C391 C50 1.552 . S
C393 C113 1.462 . S
C409 C61 1.536 . S
C411 C118 1.450 . S
C427 C67 1.558 . S
C429 C151 1.481 . S
C445 C40 1.557 . S
C447 C96 1.478 1_556 S
C465 C88 1.474 . S
C463 C52 1.559 . S
C483 C142 1.459 . S
C481 C59 1.547 . S
C501 C134 1.453 . S
C499 C70 1.531 . S
C517 C43 1.537 . S
C519 C154 1.457 1_655 S
C537 C97 1.463 . S
C535 C58 1.549 . S
C555 C79 1.443 . S
C553 C68 1.531 . S
C571 C49 1.556 . S
C573 C117 1.475 . S
