# Generated by pormake.
# Topology ctn, (3,4)-cn, num edge types: 1
# Building blocks:
#     Node 0, Type 0, BuildingBlock: KAKCAD_clean_linker_0, # of connection points: 3
#     Node 1, Type 0, BuildingBlock: KAKCAD_clean_linker_0, # of connection points: 3
#     Node 2, Type 0, BuildingBlock: KAKCAD_clean_linker_0, # of connection points: 3
#     Node 3, Type 0, BuildingBlock: KAKCAD_clean_linker_0, # of connection points: 3
#     Node 4, Type 0, BuildingBlock: KAKCAD_clean_linker_0, # of connection points: 3
#     Node 5, Type 0, BuildingBlock: KAKCAD_clean_linker_0, # of connection points: 3
#     Node 6, Type 0, BuildingBlock: KAKCAD_clean_linker_0, # of connection points: 3
#     Node 7, Type 0, BuildingBlock: KAKCAD_clean_linker_0, # of connection points: 3
#     Node 8, Type 0, BuildingBlock: KAKCAD_clean_linker_0, # of connection points: 3
#     Node 9, Type 0, BuildingBlock: KAKCAD_clean_linker_0, # of connection points: 3
#     Node 10, Type 0, BuildingBlock: KAKCAD_clean_linker_0, # of connection points: 3
#     Node 11, Type 0, BuildingBlock: KAKCAD_clean_linker_0, # of connection points: 3
#     Node 12, Type 0, BuildingBlock: KAKCAD_clean_linker_0, # of connection points: 3
#     Node 13, Type 0, BuildingBlock: KAKCAD_clean_linker_0, # of connection points: 3
#     Node 14, Type 0, BuildingBlock: KAKCAD_clean_linker_0, # of connection points: 3
#     Node 15, Type 0, BuildingBlock: KAKCAD_clean_linker_0, # of connection points: 3
#     Node 16, Type 1, BuildingBlock: TATPOV_clean_sbu_0, # of connection points: 4
#     Node 17, Type 1, BuildingBlock: TATPOV_clean_sbu_0, # of connection points: 4
#     Node 18, Type 1, BuildingBlock: TATPOV_clean_sbu_0, # of connection points: 4
#     Node 19, Type 1, BuildingBlock: TATPOV_clean_sbu_0, # of connection points: 4
#     Node 20, Type 1, BuildingBlock: TATPOV_clean_sbu_0, # of connection points: 4
#     Node 21, Type 1, BuildingBlock: TATPOV_clean_sbu_0, # of connection points: 4
#     Node 22, Type 1, BuildingBlock: TATPOV_clean_sbu_0, # of connection points: 4
#     Node 23, Type 1, BuildingBlock: TATPOV_clean_sbu_0, # of connection points: 4
#     Node 24, Type 1, BuildingBlock: TATPOV_clean_sbu_0, # of connection points: 4
#     Node 25, Type 1, BuildingBlock: TATPOV_clean_sbu_0, # of connection points: 4
#     Node 26, Type 1, BuildingBlock: TATPOV_clean_sbu_0, # of connection points: 4
#     Node 27, Type 1, BuildingBlock: TATPOV_clean_sbu_0, # of connection points: 4
#     Edge 28, Type (0, 1), BuildingBlock: EZIPEK_clean_linker_0, # of connection points: 2
#     Edge 29, Type (0, 1), BuildingBlock: EZIPEK_clean_linker_0, # of connection points: 2
#     Edge 30, Type (0, 1), BuildingBlock: EZIPEK_clean_linker_0, # of connection points: 2
#     Edge 31, Type (0, 1), BuildingBlock: EZIPEK_clean_linker_0, # of connection points: 2
#     Edge 32, Type (0, 1), BuildingBlock: EZIPEK_clean_linker_0, # of connection points: 2
#     Edge 33, Type (0, 1), BuildingBlock: EZIPEK_clean_linker_0, # of connection points: 2
#     Edge 34, Type (0, 1), BuildingBlock: EZIPEK_clean_linker_0, # of connection points: 2
#     Edge 35, Type (0, 1), BuildingBlock: EZIPEK_clean_linker_0, # of connection points: 2
#     Edge 36, Type (0, 1), BuildingBlock: EZIPEK_clean_linker_0, # of connection points: 2
#     Edge 37, Type (0, 1), BuildingBlock: EZIPEK_clean_linker_0, # of connection points: 2
#     Edge 38, Type (0, 1), BuildingBlock: EZIPEK_clean_linker_0, # of connection points: 2
#     Edge 39, Type (0, 1), BuildingBlock: EZIPEK_clean_linker_0, # of connection points: 2
#     Edge 40, Type (0, 1), BuildingBlock: EZIPEK_clean_linker_0, # of connection points: 2
#     Edge 41, Type (0, 1), BuildingBlock: EZIPEK_clean_linker_0, # of connection points: 2
#     Edge 42, Type (0, 1), BuildingBlock: EZIPEK_clean_linker_0, # of connection points: 2
#     Edge 43, Type (0, 1), BuildingBlock: EZIPEK_clean_linker_0, # of connection points: 2
#     Edge 44, Type (0, 1), BuildingBlock: EZIPEK_clean_linker_0, # of connection points: 2
#     Edge 45, Type (0, 1), BuildingBlock: EZIPEK_clean_linker_0, # of connection points: 2
#     Edge 46, Type (0, 1), BuildingBlock: EZIPEK_clean_linker_0, # of connection points: 2
#     Edge 47, Type (0, 1), BuildingBlock: EZIPEK_clean_linker_0, # of connection points: 2
#     Edge 48, Type (0, 1), BuildingBlock: EZIPEK_clean_linker_0, # of connection points: 2
#     Edge 49, Type (0, 1), BuildingBlock: EZIPEK_clean_linker_0, # of connection points: 2
#     Edge 50, Type (0, 1), BuildingBlock: EZIPEK_clean_linker_0, # of connection points: 2
#     Edge 51, Type (0, 1), BuildingBlock: EZIPEK_clean_linker_0, # of connection points: 2
#     Edge 52, Type (0, 1), BuildingBlock: EZIPEK_clean_linker_0, # of connection points: 2
#     Edge 53, Type (0, 1), BuildingBlock: EZIPEK_clean_linker_0, # of connection points: 2
#     Edge 54, Type (0, 1), BuildingBlock: EZIPEK_clean_linker_0, # of connection points: 2
#     Edge 55, Type (0, 1), BuildingBlock: EZIPEK_clean_linker_0, # of connection points: 2
#     Edge 56, Type (0, 1), BuildingBlock: EZIPEK_clean_linker_0, # of connection points: 2
#     Edge 57, Type (0, 1), BuildingBlock: EZIPEK_clean_linker_0, # of connection points: 2
#     Edge 58, Type (0, 1), BuildingBlock: EZIPEK_clean_linker_0, # of connection points: 2
#     Edge 59, Type (0, 1), BuildingBlock: EZIPEK_clean_linker_0, # of connection points: 2
#     Edge 60, Type (0, 1), BuildingBlock: EZIPEK_clean_linker_0, # of connection points: 2
#     Edge 61, Type (0, 1), BuildingBlock: EZIPEK_clean_linker_0, # of connection points: 2
#     Edge 62, Type (0, 1), BuildingBlock: EZIPEK_clean_linker_0, # of connection points: 2
#     Edge 63, Type (0, 1), BuildingBlock: EZIPEK_clean_linker_0, # of connection points: 2
#     Edge 64, Type (0, 1), BuildingBlock: EZIPEK_clean_linker_0, # of connection points: 2
#     Edge 65, Type (0, 1), BuildingBlock: EZIPEK_clean_linker_0, # of connection points: 2
#     Edge 66, Type (0, 1), BuildingBlock: EZIPEK_clean_linker_0, # of connection points: 2
#     Edge 67, Type (0, 1), BuildingBlock: EZIPEK_clean_linker_0, # of connection points: 2
#     Edge 68, Type (0, 1), BuildingBlock: EZIPEK_clean_linker_0, # of connection points: 2
#     Edge 69, Type (0, 1), BuildingBlock: EZIPEK_clean_linker_0, # of connection points: 2
#     Edge 70, Type (0, 1), BuildingBlock: EZIPEK_clean_linker_0, # of connection points: 2
#     Edge 71, Type (0, 1), BuildingBlock: EZIPEK_clean_linker_0, # of connection points: 2
#     Edge 72, Type (0, 1), BuildingBlock: EZIPEK_clean_linker_0, # of connection points: 2
#     Edge 73, Type (0, 1), BuildingBlock: EZIPEK_clean_linker_0, # of connection points: 2
#     Edge 74, Type (0, 1), BuildingBlock: EZIPEK_clean_linker_0, # of connection points: 2
#     Edge 75, Type (0, 1), BuildingBlock: EZIPEK_clean_linker_0, # of connection points: 2
# Relax obj value: 0.003
# Max RMSD: 0.046
# Mean RMSD: 0.020
data_MOF--net-ctn--node1-TATPOV_clean_sbu_0--node2-KAKCAD_clean_linker_0--edge1-EZIPEK_clean_linker_0
_symmetry_space_group_name_H-M    P1
_symmetry_Int_Tables_number       1
_symmetry_cell_setting            triclinic
loop_
_symmetry_equiv_pos_as_xyz
'x, y, z'
_cell_length_a     52.568897
_cell_length_b     52.536606
_cell_length_c     52.445951
_cell_angle_alpha  91.302435
_cell_angle_beta   91.559082
_cell_angle_gamma 91.426147
loop_
_atom_site_label
_atom_site_type_symbol
_atom_site_fract_x
_atom_site_fract_y
_atom_site_fract_z
_atom_type_partial_charge
C0 C 0.02478 0.08911 0.94596 0.0
C1 C 0.01892 0.11362 0.95479 0.0
C2 C 0.02736 0.06925 0.9631 0.0
C3 C 0.02406 0.07354 0.98938 0.0
C4 C 0.01827 0.09822 0.9981 0.0
C5 C 0.01574 0.11806 0.98096 0.0
C6 C 0.02641 0.05234 0.00763 0.0
C7 C 0.04585 0.03459 0.00527 0.0
C8 C 0.04817 0.01447 0.02239 0.0
C9 C 0.0307 0.01237 0.04216 0.0
C10 C 0.01118 0.02999 0.04496 0.0
C11 C 0.00917 0.04982 0.02751 0.0
C12 C 0.99289 0.02778 0.06609 0.0
C13 C 0.98312 0.00383 0.07316 0.0
C14 C 0.98501 0.04968 0.07937 0.0
C15 C 0.96779 0.0477 0.09913 0.0
C16 C 0.95815 0.02379 0.10608 0.0
C17 C 0.0689 0.99577 0.0197 0.0
C18 C 0.07601 0.98693 0.99541 0.0
C19 C 0.08175 0.98654 0.04138 0.0
C20 C 0.10102 0.96884 0.03885 0.0
C21 C 0.10796 0.9601 0.0146 0.0
C22 C 0.09539 0.96934 0.9929 0.0
C23 C 0.96594 0.00186 0.093 0.0
H24 H 0.02724 0.08537 0.92579 0.0
H25 H 0.03153 0.05043 0.95571 0.0
H26 H 0.01594 0.10226 0.01823 0.0
H27 H 0.01129 0.1369 0.98808 0.0
H28 H 0.05961 0.03685 0.99043 0.0
H29 H 0.99374 0.06301 0.02903 0.0
H30 H 0.03231 0.99699 0.05546 0.0
H31 H 0.98848 0.98661 0.06316 0.0
H32 H 0.9924 0.06838 0.07471 0.0
H33 H 0.96204 0.06481 0.10909 0.0
H34 H 0.06634 0.99333 0.97831 0.0
H35 H 0.07713 0.9932 0.06035 0.0
H36 H 0.95865 0.98325 0.09811 0.0
H37 H 0.10048 0.96277 0.97403 0.0
H38 H 0.11059 0.96198 0.05581 0.0
C39 C 0.34746 0.75082 0.27311 0.0
C40 C 0.36043 0.72853 0.27871 0.0
C41 C 0.32386 0.74942 0.26015 0.0
C42 C 0.31278 0.72568 0.25269 0.0
C43 C 0.32584 0.70337 0.25852 0.0
C44 C 0.3495 0.70479 0.27138 0.0
C45 C 0.2878 0.72411 0.23867 0.0
C46 C 0.28258 0.74048 0.21845 0.0
C47 C 0.25938 0.73836 0.20444 0.0
C48 C 0.24122 0.71976 0.21113 0.0
C49 C 0.24602 0.70336 0.23139 0.0
C50 C 0.26933 0.70576 0.2451 0.0
C51 C 0.22709 0.68312 0.23763 0.0
C52 C 0.20087 0.68802 0.23731 0.0
C53 C 0.23514 0.65855 0.24356 0.0
C54 C 0.21741 0.63934 0.24898 0.0
C55 C 0.19135 0.64431 0.24848 0.0
C56 C 0.25457 0.75452 0.18194 0.0
C57 C 0.27405 0.75943 0.16471 0.0
C58 C 0.23024 0.76421 0.17686 0.0
C59 C 0.22541 0.77799 0.1548 0.0
C60 C 0.24484 0.78236 0.13754 0.0
C61 C 0.26922 0.77326 0.14275 0.0
C62 C 0.18313 0.66874 0.24269 0.0
H63 H 0.3557 0.76929 0.27869 0.0
H64 H 0.31417 0.76691 0.25617 0.0
H65 H 0.31795 0.68481 0.25276 0.0
H66 H 0.35936 0.68743 0.27551 0.0
H67 H 0.29679 0.75462 0.21335 0.0
H68 H 0.27303 0.69348 0.26103 0.0
H69 H 0.22372 0.71732 0.19985 0.0
H70 H 0.19409 0.7068 0.23309 0.0
H71 H 0.25512 0.65401 0.24357 0.0
H72 H 0.22399 0.62051 0.25335 0.0
H73 H 0.29287 0.75194 0.16777 0.0
H74 H 0.2149 0.76103 0.18988 0.0
H75 H 0.16302 0.67282 0.24231 0.0
H76 H 0.28438 0.7764 0.1295 0.0
H77 H 0.20649 0.78496 0.15102 0.0
C78 C 0.02044 0.47931 0.14059 0.0
C79 C 0.0449 0.46935 0.14232 0.0
C80 C 0.0061 0.47696 0.11787 0.0
C81 C 0.01617 0.46529 0.09602 0.0
C82 C 0.04114 0.45614 0.09764 0.0
C83 C 0.05522 0.45786 0.12066 0.0
C84 C 0.00029 0.46201 0.07207 0.0
C85 C 0.98173 0.47992 0.06584 0.0
C86 C 0.96522 0.47602 0.04457 0.0
C87 C 0.96776 0.45429 0.02893 0.0
C88 C 0.98656 0.43663 0.03434 0.0
C89 C 0.00272 0.44047 0.05587 0.0
C90 C 0.98903 0.41413 0.0173 0.0
C91 C 0.9682 0.39724 0.01276 0.0
C92 C 0.01155 0.4105 0.00406 0.0
C93 C 0.01279 0.39095 0.98563 0.0
C94 C 0.99169 0.3745 0.98057 0.0
C95 C 0.94468 0.49412 0.03915 0.0
C96 C 0.92928 0.5029 0.05886 0.0
C97 C 0.93957 0.50179 0.01406 0.0
C98 C 0.91909 0.5174 0.00869 0.0
C99 C 0.90338 0.52547 0.0283 0.0
C100 C 0.9087 0.51841 0.05345 0.0
C101 C 0.96963 0.37737 0.99475 0.0
H102 H 0.01211 0.48815 0.15715 0.0
H103 H 0.98682 0.48372 0.11779 0.0
H104 H 0.04984 0.44753 0.08121 0.0
H105 H 0.0741 0.45009 0.12164 0.0
H106 H 0.98011 0.4971 0.07742 0.0
H107 H 0.01649 0.42613 0.06034 0.0
H108 H 0.95498 0.45098 0.01254 0.0
H109 H 0.95068 0.39972 0.02285 0.0
H110 H 0.02776 0.42343 0.00723 0.0
H111 H 0.02995 0.38903 0.97485 0.0
H112 H 0.93262 0.49708 0.07833 0.0
H113 H 0.95128 0.49553 0.99855 0.0
H114 H 0.9532 0.3648 0.99115 0.0
H115 H 0.8966 0.52444 0.06873 0.0
H116 H 0.91513 0.52272 0.98917 0.0
C117 C 0.72172 0.70094 0.13936 0.0
C118 C 0.74688 0.69395 0.13517 0.0
C119 C 0.71633 0.71773 0.15944 0.0
C120 C 0.73606 0.72798 0.17547 0.0
C121 C 0.7612 0.72064 0.1714 0.0
C122 C 0.76654 0.70367 0.15148 0.0
C123 C 0.73059 0.74689 0.19589 0.0
C124 C 0.71023 0.74281 0.21223 0.0
C125 C 0.70505 0.76073 0.23155 0.0
C126 C 0.72026 0.78306 0.23423 0.0
C127 C 0.7403 0.78774 0.21762 0.0
C128 C 0.74549 0.76939 0.1987 0.0
C129 C 0.75516 0.8122 0.21936 0.0
C130 C 0.76089 0.82551 0.19714 0.0
C131 C 0.76326 0.82268 0.24321 0.0
C132 C 0.77662 0.84603 0.24481 0.0
C133 C 0.78199 0.85933 0.22263 0.0
C134 C 0.68305 0.75678 0.24824 0.0
C135 C 0.6588 0.75076 0.23751 0.0
C136 C 0.68591 0.76008 0.27485 0.0
C137 C 0.66479 0.75796 0.29038 0.0
C138 C 0.64041 0.75307 0.27948 0.0
C139 C 0.63763 0.74909 0.25299 0.0
C140 C 0.77416 0.84891 0.19877 0.0
H141 H 0.70634 0.69363 0.12687 0.0
H142 H 0.69682 0.72323 0.16202 0.0
H143 H 0.77673 0.72805 0.18362 0.0
H144 H 0.78605 0.6984 0.14852 0.0
H145 H 0.69863 0.72549 0.21019 0.0
H146 H 0.76098 0.77278 0.18588 0.0
H147 H 0.71576 0.7973 0.24858 0.0
H148 H 0.75462 0.81811 0.17851 0.0
H149 H 0.75936 0.81278 0.26063 0.0
H150 H 0.78258 0.85388 0.26337 0.0
H151 H 0.65608 0.74826 0.21705 0.0
H152 H 0.70445 0.76452 0.28357 0.0
H153 H 0.77809 0.85904 0.18149 0.0
H154 H 0.61896 0.74533 0.24425 0.0
H155 H 0.66728 0.761 0.3108 0.0
C156 C 0.96808 0.98153 0.39006 0.0
C157 C 0.97715 0.9868 0.36583 0.0
C158 C 0.98509 0.97874 0.41064 0.0
C159 C 0.01152 0.98099 0.40731 0.0
C160 C 0.0205 0.98634 0.3829 0.0
C161 C 0.00342 0.98931 0.36232 0.0
C162 C 0.02952 0.97771 0.42929 0.0
C163 C 0.02471 0.95888 0.44727 0.0
C164 C 0.04117 0.95594 0.46851 0.0
C165 C 0.06289 0.97195 0.47148 0.0
C166 C 0.06825 0.99059 0.45348 0.0
C167 C 0.05145 0.99342 0.43252 0.0
C168 C 0.09172 0.00672 0.45634 0.0
C169 C 0.09906 0.01783 0.48015 0.0
C170 C 0.10737 0.01044 0.43535 0.0
C171 C 0.13017 0.02451 0.43826 0.0
C172 C 0.13757 0.03522 0.46211 0.0
C173 C 0.03572 0.93596 0.48735 0.0
C174 C 0.0106 0.9311 0.49486 0.0
C175 C 0.0554 0.92125 0.49758 0.0
C176 C 0.04999 0.90185 0.51458 0.0
C177 C 0.02483 0.89681 0.52148 0.0
C178 C 0.00521 0.91163 0.51171 0.0
C179 C 0.12181 0.03207 0.48299 0.0
H180 H 0.94781 0.97972 0.39304 0.0
H181 H 0.97749 0.97508 0.42923 0.0
H182 H 0.04072 0.9879 0.3796 0.0
H183 H 0.01064 0.99337 0.34366 0.0
H184 H 0.00838 0.94605 0.44442 0.0
H185 H 0.0552 0.00828 0.41902 0.0
H186 H 0.07576 0.9698 0.48773 0.0
H187 H 0.08723 0.01546 0.49656 0.0
H188 H 0.10229 0.0019 0.41686 0.0
H189 H 0.14225 0.02677 0.422 0.0
H190 H 0.99507 0.94233 0.48771 0.0
H191 H 0.07489 0.92431 0.49197 0.0
H192 H 0.12734 0.04028 0.50151 0.0
H193 H 0.9857 0.90796 0.51697 0.0
H194 H 0.06529 0.89044 0.52194 0.0
C195 C 0.13405 0.7133 0.69704 0.0
C196 C 0.1293 0.73854 0.69057 0.0
C197 C 0.15447 0.7079 0.71352 0.0
C198 C 0.17027 0.72771 0.72396 0.0
C199 C 0.16569 0.75291 0.71701 0.0
C200 C 0.14542 0.75827 0.70039 0.0
C201 C 0.19096 0.7223 0.7427 0.0
C202 C 0.20751 0.70216 0.73839 0.0
C203 C 0.22722 0.69727 0.75606 0.0
C204 C 0.23006 0.71247 0.7784 0.0
C205 C 0.21325 0.73228 0.78336 0.0
C206 C 0.19391 0.73717 0.76525 0.0
C207 C 0.21546 0.74741 0.8077 0.0
C208 C 0.22086 0.73541 0.83088 0.0
C209 C 0.21198 0.77391 0.80801 0.0
C210 C 0.21417 0.78808 0.83091 0.0
C211 C 0.21995 0.77601 0.85385 0.0
C212 C 0.24441 0.67577 0.75172 0.0
C213 C 0.23431 0.65116 0.74639 0.0
C214 C 0.27095 0.67948 0.75407 0.0
C215 C 0.28707 0.65882 0.75178 0.0
C216 C 0.27685 0.63407 0.74767 0.0
C217 C 0.2504 0.63044 0.74457 0.0
C218 C 0.22311 0.7496 0.85373 0.0
H219 H 0.12168 0.69788 0.68968 0.0
H220 H 0.15745 0.68833 0.7187 0.0
H221 H 0.17773 0.7685 0.72454 0.0
H222 H 0.142 0.77785 0.69555 0.0
H223 H 0.20539 0.69059 0.72104 0.0
H224 H 0.18054 0.75207 0.76908 0.0
H225 H 0.24522 0.7086 0.79208 0.0
H226 H 0.2232 0.71501 0.83141 0.0
H227 H 0.20802 0.78378 0.79049 0.0
H228 H 0.2118 0.80849 0.83069 0.0
H229 H 0.21391 0.64781 0.74461 0.0
H230 H 0.27919 0.69832 0.75797 0.0
H231 H 0.22758 0.74001 0.87131 0.0
H232 H 0.24218 0.61148 0.7414 0.0
H233 H 0.30745 0.66197 0.75412 0.0
C234 C 0.95265 0.6386 0.50998 0.0
C235 C 0.94405 0.63998 0.53534 0.0
C236 C 0.95672 0.61525 0.49772 0.0
C237 C 0.95363 0.59249 0.51077 0.0
C238 C 0.94861 0.59371 0.53684 0.0
C239 C 0.94472 0.61711 0.54911 0.0
C240 C 0.95468 0.56757 0.49708 0.0
C241 C 0.97364 0.56283 0.47935 0.0
C242 C 0.97368 0.53965 0.46547 0.0
C243 C 0.95436 0.52128 0.46929 0.0
C244 C 0.93512 0.52582 0.48678 0.0
C245 C 0.93566 0.5489 0.50081 0.0
C246 C 0.91388 0.50698 0.48957 0.0
C247 C 0.91851 0.48072 0.48955 0.0
C248 C 0.8887 0.51514 0.49178 0.0
C249 C 0.86863 0.49744 0.49386 0.0
C250 C 0.8734 0.47134 0.49359 0.0
C251 C 0.99323 0.53488 0.44619 0.0
C252 C -0.00037 0.55369 0.42862 0.0
C253 C 0.00481 0.51108 0.44451 0.0
C254 C 0.02197 0.50598 0.42531 0.0
C255 C 0.02773 0.52454 0.40744 0.0
C256 C 0.0167 0.5485 0.40932 0.0
C257 C 0.8984 0.46304 0.49149 0.0
H258 H 0.9565 0.65543 0.49917 0.0
H259 H 0.96167 0.61503 0.4778 0.0
H260 H 0.94775 0.5765 0.54782 0.0
H261 H 0.94265 0.61667 0.56946 0.0
H262 H 0.98851 0.57708 0.47654 0.0
H263 H 0.92089 0.55262 0.51433 0.0
H264 H 0.95372 0.50383 0.45783 0.0
H265 H 0.93768 0.47383 0.48817 0.0
H266 H 0.88441 0.53518 0.49142 0.0
H267 H 0.84937 0.50407 0.49535 0.0
H268 H 0.99082 0.5721 0.4293 0.0
H269 H 0.00042 0.49634 0.45794 0.0
H270 H 0.9023 0.44289 0.49132 0.0
H271 H 0.02091 0.56295 0.39552 0.0
H272 H 0.03035 0.48737 0.42403 0.0
C273 C 0.83367 0.74639 0.88977 0.0
C274 C 0.80844 0.74015 0.89563 0.0
C275 C 0.83923 0.76802 0.8757 0.0
C276 C 0.81957 0.78357 0.86686 0.0
C277 C 0.79433 0.77742 0.87332 0.0
C278 C 0.78888 0.75609 0.88778 0.0
C279 C 0.82501 0.80515 0.84971 0.0
C280 C 0.84342 0.80292 0.83085 0.0
C281 C 0.8467 0.82195 0.81274 0.0
C282 C 0.83139 0.84346 0.81366 0.0
C283 C 0.81266 0.84584 0.83204 0.0
C284 C 0.81015 0.82702 0.85044 0.0
C285 C 0.79351 0.86598 0.82972 0.0
C286 C 0.80064 0.89104 0.82347 0.0
C287 C 0.7675 0.85944 0.83127 0.0
C288 C 0.74903 0.87721 0.82572 0.0
C289 C 0.75619 0.90182 0.8186 0.0
C290 C 0.86423 0.81813 0.79135 0.0
C291 C 0.88851 0.80804 0.79554 0.0
C292 C 0.8563 0.82369 0.76629 0.0
C293 C 0.87216 0.81913 0.74591 0.0
C294 C 0.89617 0.80884 0.75014 0.0
C295 C 0.9044 0.80345 0.77506 0.0
C296 C 0.78207 0.9089 0.81802 0.0
H297 H 0.84902 0.73431 0.8958 0.0
H298 H 0.85889 0.77236 0.8715 0.0
H299 H 0.77858 0.78851 0.86648 0.0
H300 H 0.76929 0.75151 0.89211 0.0
H301 H 0.85414 0.78565 0.82919 0.0
H302 H 0.79598 0.82915 0.86491 0.0
H303 H 0.83321 0.85778 0.79923 0.0
H304 H 0.82054 0.89662 0.82226 0.0
H305 H 0.76135 0.84022 0.83558 0.0
H306 H 0.7291 0.87151 0.82617 0.0
H307 H 0.89517 0.8037 0.81464 0.0
H308 H 0.83755 0.83098 0.76232 0.0
H309 H 0.7878 0.92791 0.81255 0.0
H310 H 0.92295 0.7955 0.77855 0.0
H311 H 0.86555 0.82325 0.72673 0.0
C312 C 0.33543 0.25183 0.38704 0.0
C313 C 0.31055 0.24589 0.39433 0.0
C314 C 0.34031 0.27316 0.37233 0.0
C315 C 0.32031 0.28868 0.36426 0.0
C316 C 0.29552 0.28301 0.37238 0.0
C317 C 0.29075 0.26198 0.38747 0.0
C318 C 0.32486 0.30948 0.34598 0.0
C319 C 0.34189 0.30613 0.32604 0.0
C320 C 0.3445 0.32442 0.30708 0.0
C321 C 0.3297 0.3463 0.30817 0.0
C322 C 0.3122 0.34975 0.32762 0.0
C323 C 0.31048 0.33166 0.34684 0.0
C324 C 0.29346 0.37032 0.32595 0.0
C325 C 0.30075 0.39507 0.31882 0.0
C326 C 0.26753 0.36455 0.32943 0.0
C327 C 0.24924 0.38279 0.32504 0.0
C328 C 0.25648 0.40713 0.31719 0.0
C329 C 0.3609 0.31938 0.28497 0.0
C330 C 0.38457 0.30777 0.28839 0.0
C331 C 0.35237 0.3249 0.26008 0.0
C332 C 0.36695 0.31861 0.23912 0.0
C333 C 0.39019 0.30654 0.24265 0.0
C334 C 0.39905 0.3013 0.26737 0.0
C335 C 0.28234 0.41342 0.31456 0.0
H336 H 0.35096 0.23965 0.3923 0.0
H337 H 0.3597 0.27719 0.36689 0.0
H338 H 0.27952 0.29416 0.36624 0.0
H339 H 0.27143 0.25763 0.39295 0.0
H340 H 0.35205 0.28851 0.32435 0.0
H341 H 0.29732 0.33459 0.36211 0.0
H342 H 0.33096 0.36012 0.29321 0.0
H343 H 0.32059 0.40006 0.31611 0.0
H344 H 0.26124 0.34558 0.33447 0.0
H345 H 0.2293 0.37769 0.32707 0.0
H346 H 0.3918 0.3035 0.30731 0.0
H347 H 0.33404 0.33335 0.25667 0.0
H348 H 0.28815 0.43221 0.3085 0.0
H349 H 0.41702 0.292 0.27032 0.0
H350 H 0.35985 0.32262 0.22008 0.0
C351 C 0.52269 0.9765 0.63327 0.0
C352 C 0.54703 0.96622 0.63445 0.0
C353 C 0.508 0.9747 0.61074 0.0
C354 C 0.5176 0.96322 0.58857 0.0
C355 C 0.54251 0.95388 0.5896 0.0
C356 C 0.55695 0.95508 0.61241 0.0
C357 C 0.5012 0.96013 0.56496 0.0
C358 C 0.48263 0.97816 0.55919 0.0
C359 C 0.46557 0.97436 0.53832 0.0
C360 C 0.4676 0.95259 0.5226 0.0
C361 C 0.48641 0.9348 0.52755 0.0
C362 C 0.50308 0.93856 0.54871 0.0
C363 C 0.48846 0.91223 0.5105 0.0
C364 C 0.46739 0.89563 0.50599 0.0
C365 C 0.51107 0.90795 0.49762 0.0
C366 C 0.51224 0.88798 0.47965 0.0
C367 C 0.49097 0.87173 0.47471 0.0
C368 C 0.44512 0.9927 0.5334 0.0
C369 C 0.43049 0.00188 0.55355 0.0
C370 C 0.4395 0.00045 0.50843 0.0
C371 C 0.41936 0.01667 0.50366 0.0
C372 C 0.4045 0.02527 0.52373 0.0
C373 C 0.41025 0.018 0.54872 0.0
C374 C 0.46874 0.87533 0.48845 0.0
H375 H 0.51468 0.98507 0.65014 0.0
H376 H 0.48879 0.98161 0.61109 0.0
H377 H 0.55084 0.94542 0.57288 0.0
H378 H 0.57574 0.94707 0.61297 0.0
H379 H 0.48142 0.99535 0.57084 0.0
H380 H 0.51685 0.92412 0.55288 0.0
H381 H 0.45443 0.94937 0.50651 0.0
H382 H 0.44982 0.89857 0.51585 0.0
H383 H 0.52749 0.92061 0.50078 0.0
H384 H 0.52954 0.88549 0.46921 0.0
H385 H 0.43422 0.99601 0.57293 0.0
H386 H 0.45061 0.99389 0.4926 0.0
H387 H 0.45218 0.86292 0.48495 0.0
H388 H 0.39881 0.02444 0.56437 0.0
H389 H 0.41506 0.02215 0.48425 0.0
C390 C 0.21073 0.2012 0.63761 0.0
C391 C 0.23568 0.19609 0.6306 0.0
C392 C 0.20636 0.21806 0.65794 0.0
C393 C 0.2269 0.23 0.67168 0.0
C394 C 0.25189 0.22439 0.66481 0.0
C395 C 0.25622 0.20764 0.64442 0.0
C396 C 0.22235 0.24864 0.69273 0.0
C397 C 0.2027 0.24438 0.70991 0.0
C398 C 0.19836 0.26201 0.72973 0.0
C399 C 0.21394 0.28407 0.73239 0.0
C400 C 0.23341 0.28893 0.71516 0.0
C401 C 0.23746 0.27106 0.69543 0.0
C402 C 0.24917 0.31287 0.71741 0.0
C403 C 0.23801 0.33614 0.72388 0.0
C404 C 0.27549 0.31268 0.71304 0.0
C405 C 0.29029 0.33514 0.71542 0.0
C406 C 0.27909 0.35814 0.72238 0.0
C407 C 0.17684 0.25803 0.74702 0.0
C408 C 0.15225 0.25246 0.73689 0.0
C409 C 0.18042 0.26108 0.77359 0.0
C410 C 0.15968 0.25927 0.78966 0.0
C411 C 0.13498 0.2549 0.77935 0.0
C412 C 0.13148 0.25107 0.75291 0.0
C413 C 0.25285 0.35854 0.7264 0.0
H414 H 0.19467 0.19245 0.62707 0.0
H415 H 0.1869 0.22218 0.6625 0.0
H416 H 0.26813 0.23293 0.67523 0.0
H417 H 0.2756 0.20382 0.63927 0.0
H418 H 0.19097 0.22714 0.70814 0.0
H419 H 0.25191 0.275 0.68161 0.0
H420 H 0.2106 0.29766 0.74773 0.0
H421 H 0.21775 0.33709 0.72689 0.0
H422 H 0.28476 0.29509 0.70828 0.0
H423 H 0.31056 0.33452 0.71235 0.0
H424 H 0.14896 0.25018 0.71647 0.0
H425 H 0.19922 0.26517 0.78188 0.0
H426 H 0.24392 0.37617 0.73174 0.0
H427 H 0.11255 0.2477 0.74463 0.0
H428 H 0.16272 0.26219 0.81004 0.0
C429 C 0.84224 0.2526 0.78034 0.0
C430 C 0.85609 0.23083 0.78581 0.0
C431 C 0.81876 0.25038 0.7672 0.0
C432 C 0.8087 0.2263 0.75941 0.0
C433 C 0.82252 0.20449 0.76533 0.0
C434 C 0.84605 0.20675 0.77839 0.0
C435 C 0.78427 0.22391 0.74446 0.0
C436 C 0.77922 0.24035 0.72425 0.0
C437 C 0.757 0.23706 0.70891 0.0
C438 C 0.7395 0.21741 0.71419 0.0
C439 C 0.74396 0.20106 0.73458 0.0
C440 C 0.7664 0.20449 0.74962 0.0
C441 C 0.72561 0.17991 0.73963 0.0
C442 C 0.69919 0.18361 0.73792 0.0
C443 C 0.73443 0.15568 0.74581 0.0
C444 C 0.71726 0.13562 0.75007 0.0
C445 C 0.691 0.1394 0.74816 0.0
C446 C 0.75294 0.25313 0.68637 0.0
C447 C 0.75559 0.27978 0.68852 0.0
C448 C 0.74748 0.24172 0.66228 0.0
C449 C 0.74567 0.2566 0.6406 0.0
C450 C 0.74898 0.28315 0.64268 0.0
C451 C 0.75334 0.29471 0.66687 0.0
C452 C 0.68201 0.16349 0.74214 0.0
H453 H 0.84977 0.27134 0.78598 0.0
H454 H 0.80847 0.26749 0.76314 0.0
H455 H 0.81546 0.1857 0.75932 0.0
H456 H 0.8566 0.18978 0.7824 0.0
H457 H 0.79316 0.25497 0.71965 0.0
H458 H 0.76989 0.19215 0.76555 0.0
H459 H 0.72257 0.21461 0.70208 0.0
H460 H 0.69179 0.2021 0.73349 0.0
H461 H 0.75462 0.15207 0.74691 0.0
H462 H 0.72443 0.11707 0.75464 0.0
H463 H 0.75963 0.28901 0.70692 0.0
H464 H 0.74552 0.2212 0.66008 0.0
H465 H 0.66175 0.16667 0.74069 0.0
H466 H 0.75589 0.3152 0.66881 0.0
H467 H 0.74236 0.24736 0.62209 0.0
C468 C 0.5291 0.58827 0.44906 0.0
C469 C 0.52438 0.61306 0.45788 0.0
C470 C 0.53081 0.56833 0.46623 0.0
C471 C 0.52764 0.57282 0.4925 0.0
C472 C 0.5228 0.59774 0.50119 0.0
C473 C 0.52127 0.61769 0.48403 0.0
C474 C 0.52938 0.55162 0.51078 0.0
C475 C 0.54883 0.53382 0.50891 0.0
C476 C 0.55075 0.51381 0.5262 0.0
C477 C 0.53274 0.51174 0.54547 0.0
C478 C 0.51312 0.52933 0.54769 0.0
C479 C 0.51165 0.5492 0.53022 0.0
C480 C 0.49421 0.527 0.56826 0.0
C481 C 0.48438 0.50297 0.57501 0.0
C482 C 0.48592 0.5488 0.58141 0.0
C483 C 0.46829 0.54662 0.6008 0.0
C484 C 0.45867 0.52262 0.60749 0.0
C485 C 0.57168 0.49524 0.5243 0.0
C486 C 0.57944 0.48611 0.50035 0.0
C487 C 0.58411 0.48649 0.54643 0.0
C488 C 0.60366 0.469 0.54467 0.0
C489 C 0.61128 0.45999 0.52075 0.0
C490 C 0.59908 0.4687 0.49861 0.0
C491 C 0.46681 0.50081 0.59447 0.0
H492 H 0.53153 0.5844 0.42891 0.0
H493 H 0.53431 0.54933 0.45891 0.0
H494 H 0.52054 0.60187 0.52132 0.0
H495 H 0.51769 0.63675 0.49113 0.0
H496 H 0.56294 0.53601 0.49439 0.0
H497 H 0.49627 0.5625 0.53135 0.0
H498 H 0.53404 0.4964 0.55886 0.0
H499 H 0.49004 0.48582 0.56507 0.0
H500 H 0.49332 0.56755 0.57698 0.0
H501 H 0.46227 0.56365 0.61073 0.0
H502 H 0.57011 0.49217 0.48293 0.0
H503 H 0.57896 0.49339 0.56516 0.0
H504 H 0.45953 0.48213 0.59937 0.0
H505 H 0.6047 0.46191 0.47998 0.0
H506 H 0.61294 0.46255 0.56196 0.0
C507 C 0.46718 0.47518 0.88999 0.0
C508 C 0.47622 0.48166 0.86605 0.0
C509 C 0.48423 0.47101 0.91025 0.0
C510 C 0.51066 0.47303 0.90686 0.0
C511 C 0.5196 0.47962 0.88274 0.0
C512 C 0.50249 0.48401 0.86253 0.0
C513 C 0.52878 0.46824 0.92841 0.0
C514 C 0.5238 0.44855 0.94545 0.0
C515 C 0.54056 0.4441 0.96613 0.0
C516 C 0.56259 0.45959 0.96961 0.0
C517 C 0.56795 0.47924 0.95272 0.0
C518 C 0.55097 0.48345 0.93221 0.0
C519 C 0.59147 0.49519 0.95633 0.0
C520 C 0.59881 0.50512 0.98063 0.0
C521 C 0.60691 0.50031 0.93549 0.0
C522 C 0.62942 0.51479 0.93894 0.0
C523 C 0.63671 0.52452 0.96322 0.0
C524 C 0.53491 0.42337 0.98412 0.0
C525 C 0.53913 0.42723 0.01057 0.0
C526 C 0.52473 0.39974 0.97504 0.0
C527 C 0.51833 0.38068 0.99202 0.0
C528 C 0.52211 0.38483 0.01835 0.0
C529 C 0.53285 0.40808 0.02753 0.0
C530 C 0.62123 0.5198 0.98403 0.0
H531 H 0.44691 0.47348 0.893 0.0
H532 H 0.47665 0.46647 0.92864 0.0
H533 H 0.53981 0.48104 0.87937 0.0
H534 H 0.5097 0.48899 0.84409 0.0
H535 H 0.50676 0.4367 0.94267 0.0
H536 H 0.55477 0.49905 0.91957 0.0
H537 H 0.57597 0.45595 0.98511 0.0
H538 H 0.58713 0.50165 0.99696 0.0
H539 H 0.60182 0.4927 0.91661 0.0
H540 H 0.64126 0.51827 0.92274 0.0
H541 H 0.5467 0.44527 0.01821 0.0
H542 H 0.52167 0.39597 0.95478 0.0
H543 H 0.62667 0.52725 0.00288 0.0
H544 H 0.53585 0.41155 0.04785 0.0
H545 H 0.51014 0.36277 0.98465 0.0
C546 C 0.63686 0.21758 0.20552 0.0
C547 C 0.6328 0.24263 0.19792 0.0
C548 C 0.65729 0.21228 0.222 0.0
C549 C 0.67376 0.23201 0.23138 0.0
C550 C 0.66976 0.25704 0.22354 0.0
C551 C 0.64954 0.26228 0.2068 0.0
C552 C 0.69472 0.22664 0.24977 0.0
C553 C 0.71101 0.20635 0.24525 0.0
C554 C 0.73098 0.20136 0.2626 0.0
C555 C 0.73431 0.21663 0.28484 0.0
C556 C 0.71773 0.23661 0.29002 0.0
C557 C 0.69816 0.24162 0.27218 0.0
C558 C 0.72036 0.25177 0.31432 0.0
C559 C 0.72616 0.23978 0.33743 0.0
C560 C 0.71679 0.27825 0.3147 0.0
C561 C 0.71924 0.29241 0.33758 0.0
C562 C 0.72542 0.28037 0.36044 0.0
C563 C 0.74789 0.17968 0.25795 0.0
C564 C 0.73746 0.15524 0.25241 0.0
C565 C 0.77449 0.18309 0.25993 0.0
C566 C 0.79034 0.1623 0.25693 0.0
C567 C 0.77982 0.13772 0.25247 0.0
C568 C 0.75329 0.1344 0.24987 0.0
C569 C 0.7287 0.25397 0.36025 0.0
H570 H 0.62406 0.20221 0.19886 0.0
H571 H 0.65985 0.19286 0.2279 0.0
H572 H 0.68233 0.27254 0.23032 0.0
H573 H 0.6467 0.2817 0.20105 0.0
H574 H 0.70847 0.19472 0.22798 0.0
H575 H 0.68497 0.25665 0.27611 0.0
H576 H 0.74965 0.21269 0.29829 0.0
H577 H 0.72855 0.21938 0.33792 0.0
H578 H 0.71255 0.28812 0.29725 0.0
H579 H 0.71678 0.31282 0.33742 0.0
H580 H 0.71702 0.15211 0.25091 0.0
H581 H 0.78297 0.2018 0.26396 0.0
H582 H 0.73347 0.2444 0.37776 0.0
H583 H 0.74484 0.11557 0.24646 0.0
H584 H 0.81078 0.16522 0.2589 0.0
C585 C 0.46748 0.12191 0.01473 0.0
C586 C 0.46593 0.12087 0.04133 0.0
C587 C 0.46574 0.0996 -0.00021 0.0
C588 C 0.46217 0.0759 0.01121 0.0
C589 C 0.46085 0.07484 0.0379 0.0
C590 C 0.46296 0.09719 0.0529 0.0
C591 C 0.45919 0.0525 0.99506 0.0
C592 C 0.47611 0.04795 0.9753 0.0
C593 C 0.47266 0.02656 0.95894 0.0
C594 C 0.45177 0.00991 0.96223 0.0
C595 C 0.43471 0.01426 0.98188 0.0
C596 C 0.43873 0.03533 0.99852 0.0
C597 C 0.41223 0.99717 0.98437 0.0
C598 C 0.39553 0.99242 0.96335 0.0
C599 C 0.40762 0.98512 0.00748 0.0
C600 C 0.3871 0.96786 0.00926 0.0
C601 C 0.37067 0.96283 0.98809 0.0
C602 C 0.49072 0.0217 0.93828 0.0
C603 C 0.49875 0.04155 0.92258 0.0
C604 C 0.49992 0.99711 0.93403 0.0
C605 C 0.51673 0.99243 0.91441 0.0
C606 C 0.52443 0.01222 0.89866 0.0
C607 C 0.51541 0.0368 0.90282 0.0
C608 C 0.37475 0.97558 0.96528 0.0
H609 H 0.46977 0.14005 0.00552 0.0
H610 H 0.46658 0.10095 0.97925 0.0
H611 H 0.45828 0.05675 0.04712 0.0
H612 H 0.46185 0.0961 0.07344 0.0
H613 H 0.49219 0.06091 0.97289 0.0
H614 H 0.4253 0.03898 0.01341 0.0
H615 H 0.44863 0.99362 0.94935 0.0
H616 H 0.39862 0.00171 0.94543 0.0
H617 H 0.42031 0.98851 0.0239 0.0
H618 H 0.38425 0.95812 0.02698 0.0
H619 H 0.49177 0.06062 0.92529 0.0
H620 H 0.49426 0.98154 0.946 0.0
H621 H 0.36222 0.97195 0.94878 0.0
H622 H 0.52116 0.05221 0.89068 0.0
H623 H 0.52356 0.97335 0.91134 0.0
Zn624 Zn 0.27551 0.83165 0.99524 0.0
Zn625 Zn 0.23664 0.86476 0.99552 0.0
O626 O 0.23399 0.84583 0.02966 0.0
O627 O 0.26414 0.81736 0.02833 0.0
O628 O 0.20788 0.88984 0.99633 0.0
O629 O 0.30031 0.86154 0.99568 0.0
O630 O 0.2685 0.8881 0.9934 0.0
C631 C 0.24598 0.8276 0.03969 0.0
C632 C 0.24164 0.82565 0.95144 0.0
O633 O 0.22956 0.84343 0.96234 0.0
O634 O 0.26185 0.81735 0.96151 0.0
C635 C 0.18713 0.88533 0.00753 0.0
O636 O 0.18357 0.8634 0.01862 0.0
C637 C 0.29231 0.884 0.9941 0.0
Zn638 Zn 0.11052 0.45433 0.29088 0.0
Zn639 Zn 0.12852 0.50236 0.28277 0.0
O640 O 0.106 0.50798 0.31341 0.0
O641 O 0.08942 0.46953 0.31903 0.0
O642 O 0.14333 0.53699 0.27601 0.0
O643 O 0.14637 0.44331 0.29843 0.0
O644 O 0.16061 0.48196 0.28982 0.0
C645 C 0.09135 0.49296 0.32524 0.0
C646 C 0.09736 0.47266 0.24108 0.0
O647 O 0.10833 0.49307 0.24976 0.0
O648 O 0.0967 0.45289 0.25445 0.0
C649 C 0.12983 0.5557 0.26987 0.0
O650 O 0.10492 0.55304 0.26824 0.0
C651 C 0.16464 0.45915 0.29617 0.0
Zn652 Zn 0.7827 0.59113 0.94962 0.0
Zn653 Zn 0.77253 0.61655 0.99431 0.0
O654 O 0.80394 0.5961 0.00388 0.0
O655 O 0.81117 0.57389 0.96865 0.0
O656 O 0.76462 0.63635 0.02633 0.0
O657 O 0.78972 0.62512 0.93348 0.0
O658 O 0.77927 0.64491 0.96907 0.0
C659 C 0.81674 0.57982 0.99169 0.0
C660 C 0.73282 0.57993 0.96865 0.0
O661 O 0.74026 0.59471 0.98709 0.0
O662 O 0.74699 0.57572 0.94995 0.0
C663 C 0.76958 0.62866 0.04868 0.0
O664 O 0.78021 0.60653 0.05175 0.0
C665 C 0.78642 0.64556 0.94609 0.0
Zn666 Zn 0.84164 0.99656 0.28146 0.0
Zn667 Zn 0.87002 0.00134 0.23892 0.0
O668 O 0.85032 0.035 0.24049 0.0
O669 O 0.82664 0.03059 0.27431 0.0
O670 O 0.89221 0.00414 0.20803 0.0
O671 O 0.8741 0.99487 0.30275 0.0
O672 O 0.89665 0.99812 0.26799 0.0
C673 C 0.83374 0.04352 0.25558 0.0
C674 C 0.83186 0.95631 0.24435 0.0
O675 O 0.84838 0.96845 0.23166 0.0
O676 O 0.82543 0.96444 0.26608 0.0
C677 C 0.88701 0.01727 0.18858 0.0
O678 O 0.86575 0.02986 0.18748 0.0
C679 C 0.89537 0.99583 0.29204 0.0
Zn680 Zn 0.28581 0.09657 0.44781 0.0
Zn681 Zn 0.27673 0.12169 0.49295 0.0
O682 O 0.30735 0.10002 0.50224 0.0
O683 O 0.31393 0.07842 0.46646 0.0
O684 O 0.26962 0.14113 0.52536 0.0
O685 O 0.29326 0.13063 0.43202 0.0
O686 O 0.284 0.15025 0.46809 0.0
C687 C 0.31966 0.08365 0.48962 0.0
C688 C 0.23578 0.08668 0.46682 0.0
O689 O 0.24374 0.10111 0.48531 0.0
O690 O 0.24978 0.08202 0.44809 0.0
C691 C 0.25685 0.13158 0.54317 0.0
O692 O 0.24823 0.10792 0.54101 0.0
C693 C 0.29064 0.151 0.44495 0.0
Zn694 Zn 0.34115 0.4951 0.78196 0.0
Zn695 Zn 0.36931 0.49885 0.73931 0.0
O696 O 0.34916 0.53228 0.74013 0.0
O697 O 0.32521 0.52843 0.77381 0.0
O698 O 0.39163 0.50156 0.70848 0.0
O699 O 0.37348 0.49461 0.80351 0.0
O700 O 0.3959 0.49598 0.76855 0.0
C701 C 0.33227 0.54094 0.75479 0.0
C702 C 0.332 0.45355 0.74591 0.0
O703 O 0.34808 0.4656 0.73261 0.0
O704 O 0.32596 0.46208 0.76763 0.0
C705 C 0.38657 0.51475 0.68904 0.0
O706 O 0.3653 0.52732 0.68782 0.0
C707 C 0.3947 0.4947 0.79271 0.0
Zn708 Zn 0.78381 0.33822 0.49979 0.0
Zn709 Zn 0.74278 0.36878 0.50243 0.0
O710 O 0.74232 0.34944 0.53641 0.0
O711 O 0.77473 0.32371 0.53357 0.0
O712 O 0.71278 0.39229 0.50396 0.0
O713 O 0.80672 0.3695 0.49893 0.0
O714 O 0.77317 0.39396 0.50035 0.0
C715 C 0.75615 0.33215 0.54576 0.0
C716 C 0.74851 0.33042 0.45756 0.0
O717 O 0.73605 0.34753 0.46907 0.0
O718 O 0.76946 0.323 0.4668 0.0
C719 C 0.69246 0.3872 0.51567 0.0
O720 O 0.68999 0.36543 0.52729 0.0
C721 C 0.79714 0.39135 0.49925 0.0
Zn722 Zn 0.61116 0.94663 0.78266 0.0
Zn723 Zn 0.62899 0.99508 0.77649 0.0
O724 O 0.60534 -0.00031 0.80635 0.0
O725 O 0.5888 0.96092 0.81023 0.0
O726 O 0.64383 0.03 0.77107 0.0
O727 O 0.64676 0.93581 0.79157 0.0
O728 O 0.66095 0.97486 0.78462 0.0
C729 C 0.59033 0.98419 0.81715 0.0
C730 C 0.59937 0.96613 0.73313 0.0
O731 O 0.60986 0.98641 0.74269 0.0
O732 O 0.59865 0.94592 0.74585 0.0
C733 C 0.63044 0.04877 0.76485 0.0
O734 O 0.60562 0.04596 0.76215 0.0
C735 C 0.66494 0.95195 0.79065 0.0
Zn736 Zn 0.99542 0.29047 0.84137 0.0
Zn737 Zn -0.00046 0.24932 0.87132 0.0
O738 O 0.03288 0.24963 0.85117 0.0
O739 O 0.02874 0.28213 0.8256 0.0
O740 O 0.00303 0.21897 0.89404 0.0
O741 O 0.99526 0.31296 0.87316 0.0
O742 O 0.9967 0.27908 0.89717 0.0
C743 C 0.04141 0.2636 0.83359 0.0
C744 C 0.95408 0.25403 0.8336 0.0
O745 O 0.9663 0.24159 0.85034 0.0
O746 O 0.96247 0.2754 0.82638 0.0
C747 C 0.00737 0.19686 0.88511 0.0
O748 O 0.00951 0.19324 0.86041 0.0
C749 C 0.99556 0.30313 0.89499 0.0
Zn750 Zn 0.49872 0.78609 0.33738 0.0
Zn751 Zn 0.50219 0.74484 0.36753 0.0
O752 O 0.53627 0.74582 0.34842 0.0
O753 O 0.53255 0.77822 0.32264 0.0
O754 O 0.5046 0.71436 0.39059 0.0
O755 O 0.49737 0.80848 0.36907 0.0
O756 O 0.49827 0.77464 0.39319 0.0
C757 C 0.5452 0.75989 0.33109 0.0
C758 C 0.45781 0.74956 0.32834 0.0
O759 O 0.4696 0.73716 0.34542 0.0
O760 O 0.46635 0.77096 0.32136 0.0
C761 C 0.51889 0.69559 0.38653 0.0
O762 O 0.53305 0.69509 0.36629 0.0
C763 C 0.49703 0.79869 0.39091 0.0
Zn764 Zn 0.94149 0.78966 0.60057 0.0
Zn765 Zn 0.9868 0.77209 0.61982 0.0
O766 O 0.99773 0.80196 0.59768 0.0
O767 O 0.96153 0.81666 0.58237 0.0
O768 O 0.01933 0.75996 0.63617 0.0
O769 O 0.93003 0.79601 0.63654 0.0
O770 O 0.96654 0.78161 0.65131 0.0
C771 C 0.98559 0.81772 0.58421 0.0
C772 C 0.95188 0.73749 0.586 0.0
O773 O 0.97235 0.74116 0.59927 0.0
O774 O 0.9358 0.75491 0.58374 0.0
C775 C 0.04156 0.765 0.62842 0.0
O776 O 0.04449 0.77809 0.60763 0.0
C777 C 0.94469 0.79064 0.65507 0.0
Zn778 Zn 0.44461 0.26971 0.09679 0.0
Zn779 Zn 0.4901 0.26432 0.12291 0.0
O780 O 0.498 0.29337 0.09873 0.0
O781 O 0.46155 0.29832 0.0777 0.0
O782 O 0.52282 0.25917 0.14266 0.0
O783 O 0.42833 0.27715 0.1307 0.0
O784 O 0.46553 0.27387 0.15082 0.0
C785 C 0.48471 0.30466 0.08198 0.0
C786 C 0.46592 0.22014 0.09048 0.0
O787 O 0.48327 0.22943 0.10561 0.0
O788 O 0.44728 0.23343 0.08362 0.0
C789 C 0.54471 0.26317 0.13362 0.0
O790 O 0.54672 0.27141 0.11029 0.0
C791 C 0.44183 0.27817 0.15108 0.0
C792 C 0.24697 0.80541 0.88227 0.0
C793 C 0.22394 0.79111 0.87798 0.0
C794 C 0.21107 0.80111 0.92167 0.0
C795 C 0.23378 0.816 0.92561 0.0
N796 N 0.26996 0.83773 0.90798 0.0
N797 N 0.1818 0.77946 0.89128 0.0
C798 C 0.25068 0.81982 0.90533 0.0
C799 C 0.20523 0.79028 0.89699 0.0
N800 N 0.26581 0.80431 0.86483 0.0
N801 N 0.19575 0.79634 0.94174 0.0
H802 H 0.177 0.77129 0.87342 0.0
H803 H 0.16648 0.78045 0.90341 0.0
H804 H 0.19926 0.80423 0.95996 0.0
H805 H 0.18052 0.78326 0.94082 0.0
H806 H 0.2841 0.81189 0.86829 0.0
H807 H 0.2639 0.79403 0.84761 0.0
H808 H 0.28134 0.84324 0.89302 0.0
H809 H 0.27296 0.84899 0.92449 0.0
C810 C 0.03284 0.50857 0.3626 0.0
C811 C 0.04417 0.51821 0.38582 0.0
C812 C 0.08674 0.51165 0.36928 0.0
C813 C 0.07537 0.50301 0.3457 0.0
N814 N 0.03823 0.49808 0.31785 0.0
N815 N 0.08132 0.53304 0.41024 0.0
C816 C 0.04857 0.50286 0.34176 0.0
C817 C 0.07099 0.52106 0.38883 0.0
N818 N 0.00709 0.50421 0.36072 0.0
N819 N 0.11243 0.50979 0.37336 0.0
H820 H 0.07032 0.53967 0.42514 0.0
H821 H 0.10053 0.53816 0.41245 0.0
H822 H 0.12458 0.50315 0.35944 0.0
H823 H 0.12154 0.51305 0.39105 0.0
H824 H 0.99803 0.49436 0.34544 0.0
H825 H 0.99479 0.50886 0.37529 0.0
H826 H 0.01907 0.50034 0.31313 0.0
H827 H 0.04919 0.49402 0.30205 0.0
C828 C 0.78791 0.69649 0.89599 0.0
C829 C 0.80229 0.71624 0.90899 0.0
C830 C 0.80781 0.68899 0.9459 0.0
C831 C 0.79116 0.67034 0.93391 0.0
N832 N 0.76045 0.65931 0.9001 0.0
N833 N 0.82134 0.7334 0.9483 0.0
C834 C 0.77976 0.67494 0.90967 0.0
C835 C 0.81086 0.71314 0.93458 0.0
N836 N 0.78284 0.69777 0.87035 0.0
N837 N 0.82176 0.6833 0.96731 0.0
H838 H 0.8236 0.75149 0.94075 0.0
H839 H 0.8255 0.73283 0.96781 0.0
H840 H 0.82098 0.66553 0.97573 0.0
H841 H 0.83604 0.69537 0.97521 0.0
H842 H 0.77469 0.68265 0.85954 0.0
H843 H 0.78905 0.71291 0.85938 0.0
H844 H 0.74984 0.6633 0.88366 0.0
H845 H 0.75315 0.64389 0.91 0.0
C846 C 0.95081 0.9682 0.32915 0.0
C847 C 0.95878 0.98985 0.34425 0.0
C848 C 0.92891 0.01636 0.32069 0.0
C849 C 0.91884 0.99414 0.3079 0.0
N850 N 0.91894 0.9488 0.29993 0.0
N851 N 0.95548 0.03437 0.35549 0.0
C852 C 0.92963 0.97003 0.3119 0.0
C853 C 0.94801 0.01398 0.34016 0.0
N854 N 0.96363 0.94598 0.33131 0.0
N855 N 0.92037 0.03971 0.31393 0.0
H856 H 0.97016 0.03357 0.36921 0.0
H857 H 0.94636 0.05172 0.35564 0.0
H858 H 0.90623 0.042 0.29987 0.0
H859 H 0.92853 0.0569 0.32068 0.0
H860 H 0.96054 0.93022 0.31914 0.0
H861 H 0.97884 0.94384 0.34421 0.0
H862 H 0.92384 0.93028 0.30419 0.0
H863 H 0.90399 0.9496 0.28648 0.0
C864 C 0.23521 0.18774 0.58327 0.0
C865 C 0.24038 0.17913 0.60828 0.0
C866 C 0.25788 0.1399 0.5906 0.0
C867 C 0.25067 0.14755 0.5657 0.0
N868 N 0.22731 0.17607 0.53882 0.0
N869 N 0.25218 0.14521 0.63611 0.0
C870 C 0.23788 0.17075 0.56215 0.0
C871 C 0.25039 0.15464 0.61206 0.0
N872 N 0.22858 0.21242 0.57961 0.0
N873 N 0.27288 0.11925 0.59375 0.0
H874 H 0.24685 0.15547 0.65229 0.0
H875 H 0.25678 0.12645 0.63979 0.0
H876 H 0.2792 0.10822 0.57851 0.0
H877 H 0.28099 0.11442 0.61126 0.0
H878 H 0.22736 0.22049 0.56167 0.0
H879 H 0.2265 0.22555 0.59458 0.0
H880 H 0.21552 0.19142 0.5358 0.0
H881 H 0.22814 0.16377 0.52299 0.0
C882 C 0.41424 0.51407 0.62253 0.0
C883 C 0.44019 0.52033 0.62839 0.0
C884 C 0.43043 0.52528 0.67367 0.0
C885 C 0.40503 0.51658 0.66815 0.0
N886 N 0.37399 0.49809 0.63795 0.0
N887 N 0.47405 0.52733 0.65991 0.0
C888 C 0.39723 0.50974 0.64272 0.0
C889 C 0.44861 0.5246 0.6541 0.0
N890 N 0.40565 0.513 0.59768 0.0
N891 N 0.43696 0.53536 0.69729 0.0
H892 H 0.48797 0.52691 0.64612 0.0
H893 H 0.48149 0.5277 0.67854 0.0
H894 H 0.4241 0.53693 0.71199 0.0
H895 H 0.45444 0.54446 0.70156 0.0
H896 H 0.38644 0.5113 0.59235 0.0
H897 H 0.41751 0.51603 0.58236 0.0
H898 H 0.36837 0.49024 0.6202 0.0
H899 H 0.3612 0.49405 0.65225 0.0
C900 C 0.72734 0.30045 0.60352 0.0
C901 C 0.74963 0.2985 0.6192 0.0
C902 C 0.77328 0.32488 0.58965 0.0
C903 C 0.75236 0.32312 0.57199 0.0
N904 N 0.70988 0.3073 0.56102 0.0
N905 N 0.79506 0.30565 0.62517 0.0
C906 C 0.72933 0.31063 0.57869 0.0
C907 C 0.77293 0.31002 0.61184 0.0
N908 N 0.70426 0.29292 0.61253 0.0
N909 N 0.7933 0.34122 0.58545 0.0
H910 H 0.79595 0.2943 0.64119 0.0
H911 H 0.81291 0.31133 0.61889 0.0
H912 H 0.79386 0.35303 0.56972 0.0
H913 H 0.80792 0.34509 0.5989 0.0
H914 H 0.68704 0.29613 0.603 0.0
H915 H 0.70218 0.28558 0.6307 0.0
H916 H 0.69379 0.29587 0.56392 0.0
H917 H 0.71063 0.31437 0.54264 0.0
C918 C 0.55055 0.95226 0.67972 0.0
C919 C 0.56125 0.96573 0.65931 0.0
C920 C 0.59874 0.97696 0.68644 0.0
C921 C 0.58637 0.96642 0.70768 0.0
N922 N 0.54721 0.95033 0.72537 0.0
N923 N 0.59346 0.99508 0.64463 0.0
C924 C 0.56134 0.9558 0.70459 0.0
C925 C 0.5848 0.9793 0.66302 0.0
N926 N 0.53049 0.93555 0.67531 0.0
N927 N 0.624 0.98374 0.68819 0.0
H928 H 0.58358 0.99766 0.62741 0.0
H929 H 0.60918 0.00739 0.64749 0.0
H930 H 0.6352 0.98138 0.70463 0.0
H931 H 0.63443 0.98922 0.67253 0.0
H932 H 0.52363 0.92354 0.68926 0.0
H933 H 0.52253 0.93168 0.65716 0.0
H934 H 0.52804 0.94477 0.72392 0.0
H935 H 0.55357 0.95427 0.74408 0.0
C936 C 0.88358 0.23622 0.82554 0.0
C937 C 0.8816 0.23349 0.79859 0.0
C938 C 0.928 0.23775 0.79595 0.0
C939 C 0.9296 0.24396 0.8224 0.0
N940 N 0.90907 0.25106 0.86243 0.0
N941 N 0.90131 0.23316 0.75759 0.0
C942 C 0.90748 0.24341 0.83733 0.0
C943 C 0.90368 0.23445 0.78363 0.0
N944 N 0.86263 0.23174 0.83982 0.0
N945 N 0.94982 0.23449 0.78277 0.0
H946 H 0.88388 0.23011 0.74787 0.0
H947 H 0.91631 0.23677 0.74553 0.0
H948 H 0.96792 0.23654 0.79137 0.0
H949 H 0.95007 0.22752 0.76405 0.0
H950 H 0.86331 0.2308 0.85963 0.0
H951 H 0.84477 0.22686 0.83172 0.0
H952 H 0.89326 0.25404 0.87355 0.0
H953 H 0.92623 0.25615 0.87185 0.0
C954 C 0.47545 0.85372 0.43211 0.0
C955 C 0.49156 0.85185 0.4541 0.0
C956 C 0.51196 0.81501 0.43461 0.0
C957 C 0.49429 0.8156 0.41366 0.0
N958 N 0.4548 0.83123 0.39623 0.0
N959 N 0.52113 0.82731 0.47879 0.0
C960 C 0.47467 0.83366 0.41355 0.0
C961 C 0.50859 0.8314 0.45615 0.0
N962 N 0.46174 0.87514 0.42825 0.0
N963 N 0.53272 0.79991 0.43349 0.0
H964 H 0.51884 0.83872 0.49506 0.0
H965 H 0.53182 0.81121 0.48208 0.0
H966 H 0.53642 0.78817 0.41781 0.0
H967 H 0.54754 0.80084 0.4471 0.0
H968 H 0.45179 0.87845 0.41124 0.0
H969 H 0.46235 0.89076 0.44089 0.0
H970 H 0.4388 0.84253 0.39693 0.0
H971 H 0.45293 0.81614 0.38299 0.0
C972 C 0.09703 0.23389 0.79927 0.0
C973 C 0.11247 0.25605 0.7959 0.0
C974 C 0.08459 0.28047 0.82335 0.0
C975 C 0.06697 0.25958 0.82311 0.0
N976 N 0.05514 0.21682 0.80866 0.0
N977 N 0.11877 0.3016 0.8016 0.0
C978 C 0.07292 0.23623 0.81073 0.0
C979 C 0.10579 0.27966 0.80724 0.0
N980 N 0.10557 0.21059 0.79183 0.0
N981 N 0.08136 0.30091 0.83943 0.0
H982 H 0.13406 0.30213 0.78936 0.0
H983 H 0.11285 0.31962 0.80715 0.0
H984 H 0.06644 0.30181 0.85212 0.0
H985 H 0.09493 0.31558 0.84216 0.0
H986 H 0.09632 0.1935 0.79604 0.0
H987 H 0.1232 0.20824 0.78353 0.0
H988 H 0.05741 0.2005 0.79739 0.0
H989 H 0.0372 0.21781 0.81655 0.0
C990 C 0.49918 0.63998 0.42782 0.0
C991 C 0.52289 0.6343 0.43968 0.0
C992 C 0.54336 0.67027 0.41848 0.0
C993 C 0.52014 0.67462 0.40498 0.0
N994 N 0.47691 0.66154 0.39377 0.0
N995 N 0.56826 0.6416 0.44415 0.0
C996 C 0.49824 0.65898 0.40891 0.0
C997 C 0.5452 0.64874 0.43436 0.0
N998 N 0.47748 0.62747 0.43497 0.0
N999 N 0.56329 0.68736 0.41702 0.0
H1000 H 0.57027 0.62643 0.45649 0.0
H1001 H 0.58557 0.64944 0.43863 0.0
H1002 H 0.56259 0.70352 0.40585 0.0
H1003 H 0.57972 0.68683 0.42851 0.0
H1004 H 0.45926 0.6327 0.42928 0.0
H1005 H 0.47754 0.61292 0.44818 0.0
H1006 H 0.46131 0.64893 0.39371 0.0
H1007 H 0.47553 0.67512 0.37962 0.0
C1008 C 0.91153 0.77831 0.71687 0.0
C1009 C 0.91222 0.80319 0.72804 0.0
C1010 C 0.93666 0.81937 0.69248 0.0
C1011 C 0.93591 0.79452 0.6813 0.0
N1012 N 0.92752 0.74942 0.68463 0.0
N1013 N 0.92946 0.84609 0.72987 0.0
C1014 C 0.92501 0.77365 0.69418 0.0
C1015 C 0.92613 0.82333 0.71689 0.0
N1016 N 0.89697 0.7595 0.72729 0.0
N1017 N 0.94686 0.83923 0.6794 0.0
H1018 H 0.92186 0.84953 0.74776 0.0
H1019 H 0.94136 0.86085 0.72402 0.0
H1020 H 0.95586 0.83677 0.66206 0.0
H1021 H 0.94536 0.85825 0.68498 0.0
H1022 H 0.89312 0.74184 0.71845 0.0
H1023 H 0.88733 0.76201 0.74425 0.0
H1024 H 0.92235 0.73316 0.69441 0.0
H1025 H 0.93664 0.7454 0.66764 0.0
C1026 C 0.01725 0.87966 0.56496 0.0
C1027 C 0.01856 0.87535 0.53823 0.0
C1028 C 0.00115 0.83199 0.54223 0.0
C1029 C -0.00049 0.83642 0.56892 0.0
N1030 N 0.01011 0.86189 0.60664 0.0
N1031 N 0.01672 0.84654 0.50177 0.0
C1032 C 0.00902 0.85945 0.58061 0.0
C1033 C 0.01212 0.85116 0.52698 0.0
N1034 N 0.02299 0.90337 0.57516 0.0
N1035 N 0.99156 0.80967 0.53146 0.0
H1036 H 0.02423 0.86035 0.48992 0.0
H1037 H 0.01492 0.82865 0.49291 0.0
H1038 H 0.98481 0.79458 0.5422 0.0
H1039 H 0.98918 0.80638 0.51189 0.0
H1040 H 0.01968 0.90876 0.59397 0.0
H1041 H 0.02997 0.91831 0.56436 0.0
H1042 H 0.01902 0.87716 0.61656 0.0
H1043 H 0.00364 0.84762 0.61856 0.0
C1044 C 0.10592 0.7386 0.64801 0.0
C1045 C 0.10663 0.74462 0.67454 0.0
C1046 C 0.0661 0.76625 0.67011 0.0
C1047 C 0.06407 0.75802 0.64414 0.0
N1048 N 0.07984 0.73249 0.60943 0.0
N1049 N 0.08506 0.75948 0.71187 0.0
C1050 C 0.0834 0.74314 0.63332 0.0
C1051 C 0.086 0.75705 0.68591 0.0
N1052 N 0.127 0.72928 0.63671 0.0
N1053 N 0.04981 0.78387 0.67943 0.0
H1054 H 0.09918 0.75277 0.72417 0.0
H1055 H 0.06916 0.76593 0.72126 0.0
H1056 H 0.03553 0.79194 0.66831 0.0
H1057 H 0.05213 0.79247 0.69747 0.0
H1058 H 0.12855 0.72716 0.61702 0.0
H1059 H 0.14381 0.72567 0.64686 0.0
H1060 H 0.09207 0.7193 0.60163 0.0
H1061 H 0.06343 0.735 0.59824 0.0
C1062 C 0.93268 0.66798 0.57419 0.0
C1063 C 0.93738 0.66536 0.54778 0.0
C1064 C 0.94442 0.71141 0.54589 0.0
C1065 C 0.94648 0.71271 0.57292 0.0
N1066 N 0.94079 0.69232 0.61334 0.0
N1067 N 0.92566 0.68775 0.50988 0.0
C1068 C 0.94012 0.69101 0.5873 0.0
C1069 C 0.93687 0.68803 0.53365 0.0
N1070 N 0.91693 0.65084 0.58545 0.0
N1071 N 0.9505 0.73212 0.53178 0.0
H1072 H 0.91638 0.6714 0.50221 0.0
H1073 H 0.92262 0.7042 0.4996 0.0
H1074 H 0.95649 0.74963 0.53994 0.0
H1075 H 0.95161 0.73115 0.51196 0.0
H1076 H 0.91094 0.65299 0.60414 0.0
H1077 H 0.90688 0.63675 0.57469 0.0
H1078 H 0.93877 0.67622 0.62445 0.0
H1079 H 0.94485 0.70915 0.62376 0.0
C1080 C 0.82222 0.88594 0.22704 0.0
C1081 C 0.79528 0.88458 0.22461 0.0
C1082 C 0.79367 0.9311 0.22828 0.0
C1083 C 0.82014 0.93212 0.23428 0.0
N1084 N 0.85973 0.91073 0.24118 0.0
N1085 N 0.75483 0.90527 0.22421 0.0
C1086 C 0.83456 0.90964 0.23381 0.0
C1087 C 0.78084 0.90704 0.22534 0.0
N1088 N 0.83594 0.86458 0.2227 0.0
N1089 N 0.78098 0.95324 0.22496 0.0
H1090 H 0.74476 0.88803 0.2214 0.0
H1091 H 0.74315 0.92061 0.22767 0.0
H1092 H 0.78998 0.97115 0.2268 0.0
H1093 H 0.76222 0.95392 0.21817 0.0
H1094 H 0.85568 0.86476 0.22157 0.0
H1095 H 0.82742 0.84685 0.21811 0.0
H1096 H 0.87053 0.89469 0.24426 0.0
H1097 H 0.86956 0.92775 0.24588 0.0
C1098 C 0.80926 0.10784 0.27471 0.0
C1099 C 0.79634 0.11513 0.25201 0.0
C1100 C 0.80959 0.07595 0.23028 0.0
C1101 C 0.82346 0.06936 0.25268 0.0
N1102 N 0.84263 0.08269 0.29326 0.0
N1103 N 0.78923 0.10937 0.20662 0.0
C1104 C 0.82525 0.08652 0.27396 0.0
C1105 C 0.79814 0.1002 0.22925 0.0
N1106 N 0.80522 0.12033 0.29735 0.0
N1107 N 0.80613 0.05863 0.21058 0.0
H1108 H 0.78095 0.12715 0.20521 0.0
H1109 H 0.79222 0.10049 0.18903 0.0
H1110 H 0.81401 0.04063 0.21062 0.0
H1111 H 0.7938 0.06135 0.19505 0.0
H1112 H 0.81201 0.11395 0.31486 0.0
H1113 H 0.7931 0.13564 0.29906 0.0
H1114 H 0.84644 0.09591 0.30807 0.0
H1115 H 0.85521 0.06763 0.29298 0.0
C1116 C 0.32916 0.94695 0.00557 0.0
C1117 C 0.34995 0.94317 0.98931 0.0
C1118 C 0.32993 0.90334 0.97297 0.0
C1119 C 0.31108 0.90527 0.99173 0.0
N1120 N 0.2951 0.9271 0.02883 0.0
N1121 N 0.37267 0.91514 0.96128 0.0
C1122 C 0.3112 0.92665 0.0088 0.0
C1123 C 0.35106 0.92063 0.97402 0.0
N1124 N 0.32619 0.97008 0.01741 0.0
N1125 N 0.32721 0.8856 0.95354 0.0
H1126 H 0.38896 0.92691 0.96209 0.0
H1127 H 0.37533 0.89769 0.95201 0.0
H1128 H 0.31141 0.87326 0.9514 0.0
H1129 H 0.33919 0.88507 0.93804 0.0
H1130 H 0.31 0.97469 0.02739 0.0
H1131 H 0.3388 0.98548 0.01526 0.0
H1132 H 0.2963 0.94097 0.04335 0.0
H1133 H 0.28208 0.91238 0.0323 0.0
C1134 C 0.2258 0.44067 0.3297 0.0
C1135 C 0.23639 0.42523 0.31037 0.0
C1136 C 0.20203 0.43583 0.2803 0.0
C1137 C 0.1909 0.45044 0.29992 0.0
N1138 N 0.19417 0.47162 0.34112 0.0
N1139 N 0.23845 0.4123 0.26613 0.0
C1140 C 0.20356 0.45455 0.32392 0.0
C1141 C 0.22576 0.42429 0.28521 0.0
N1142 N 0.23646 0.44112 0.35379 0.0
N1143 N 0.18938 0.43232 0.25729 0.0
H1144 H 0.25568 0.4033 0.26924 0.0
H1145 H 0.23308 0.41286 0.24691 0.0
H1146 H 0.17264 0.44163 0.25261 0.0
H1147 H 0.19473 0.41944 0.24317 0.0
H1148 H 0.22815 0.4495 0.36957 0.0
H1149 H 0.25337 0.43203 0.35828 0.0
H1150 H 0.2036 0.47729 0.35808 0.0
H1151 H 0.17763 0.48167 0.33754 0.0
C1152 C 0.16417 0.07544 0.46076 0.0
C1153 C 0.16244 0.04894 0.46531 0.0
C1154 C 0.20872 0.04746 0.47187 0.0
C1155 C 0.21042 0.07405 0.46769 0.0
N1156 N 0.19024 0.1143 0.46192 0.0
N1157 N 0.18176 0.01023 0.47897 0.0
C1158 C 0.18824 0.08836 0.4634 0.0
C1159 C 0.18437 0.03509 0.47201 0.0
N1160 N 0.14288 0.08798 0.45311 0.0
N1161 N 0.23046 0.03401 0.47533 0.0
H1162 H 0.16429 0.00035 0.47863 0.0
H1163 H 0.19647 -0.00025 0.48674 0.0
H1164 H 0.24854 0.04262 0.47711 0.0
H1165 H 0.23091 0.01423 0.47529 0.0
H1166 H 0.14315 0.10655 0.44663 0.0
H1167 H 0.12482 0.0793 0.45184 0.0
H1168 H 0.1747 0.12619 0.46159 0.0
H1169 H 0.20764 0.1243 0.46262 0.0
C1170 C 0.66693 0.11135 0.77758 0.0
C1171 C 0.67298 0.11783 0.75231 0.0
C1172 C 0.64677 0.08173 0.73529 0.0
C1173 C 0.64314 0.07365 0.7606 0.0
N1174 N 0.65016 0.07958 0.80598 0.0
N1175 N 0.67046 0.10889 0.70702 0.0
C1176 C 0.65325 0.08821 0.78181 0.0
C1177 C 0.66317 0.10308 0.73109 0.0
N1178 N 0.67389 0.12763 0.79741 0.0
N1179 N 0.63459 0.06889 0.71532 0.0
H1180 H 0.68195 0.12473 0.70315 0.0
H1181 H 0.6665 0.09728 0.69099 0.0
H1182 H 0.62328 0.05255 0.71758 0.0
H1183 H 0.63418 0.07531 0.69669 0.0
H1184 H 0.66793 0.12544 0.81601 0.0
H1185 H 0.68416 0.14461 0.79495 0.0
H1186 H 0.65961 0.0875 0.82207 0.0
H1187 H 0.639 0.06352 0.80991 0.0
C1188 C 0.38507 0.06769 0.51652 0.0
C1189 C 0.38203 0.04088 0.51818 0.0
C1190 C 0.33666 0.04357 0.50695 0.0
C1191 C 0.34047 0.06978 0.50205 0.0
N1192 N 0.36807 0.10702 0.50063 0.0
N1193 N 0.35575 0.00265 0.51375 0.0
C1194 C 0.36455 0.08203 0.50671 0.0
C1195 C 0.35798 0.02864 0.51326 0.0
N1196 N 0.40752 0.07936 0.52452 0.0
N1197 N 0.31253 0.03315 0.50605 0.0
H1198 H 0.37074 0.99109 0.51909 0.0
H1199 H 0.33954 0.99236 0.50736 0.0
H1200 H 0.2965 0.04367 0.50158 0.0
H1201 H 0.30808 0.0148 0.51188 0.0
H1202 H 0.41018 0.09902 0.52627 0.0
H1203 H 0.42305 0.0693 0.53136 0.0
H1204 H 0.38579 0.11631 0.50072 0.0
H1205 H 0.35333 0.11825 0.49394 0.0
C1206 C 0.65763 0.44948 0.52491 0.0
C1207 C 0.63215 0.44142 0.51896 0.0
C1208 C 0.64673 0.39865 0.50794 0.0
C1209 C 0.67176 0.40596 0.51656 0.0
N1210 N 0.70002 0.4371 0.53785 0.0
N1211 N 0.6017 0.40731 0.50894 0.0
C1212 C 0.67699 0.43108 0.52624 0.0
C1213 C 0.62648 0.41569 0.51162 0.0
N1214 N 0.66347 0.47482 0.52863 0.0
N1215 N 0.64246 0.37586 0.49524 0.0
H1216 H 0.58632 0.41917 0.51151 0.0
H1217 H 0.59638 0.38817 0.50638 0.0
H1218 H 0.65687 0.36311 0.49155 0.0
H1219 H 0.62516 0.3707 0.48618 0.0
H1220 H 0.68208 0.48208 0.53028 0.0
H1221 H 0.64984 0.48889 0.52774 0.0
H1222 H 0.7039 0.45428 0.54766 0.0
H1223 H 0.71451 0.42404 0.53993 0.0
C1224 C 0.71152 0.29421 0.40403 0.0
C1225 C 0.72969 0.29549 0.38452 0.0
C1226 C 0.75636 0.32488 0.41118 0.0
C1227 C 0.74015 0.3206 0.43192 0.0
N1228 N 0.70315 0.29988 0.44907 0.0
N1229 N 0.77093 0.30959 0.37038 0.0
C1230 C 0.71776 0.30512 0.42858 0.0
C1231 C 0.75246 0.31032 0.38824 0.0
N1232 N 0.68819 0.28289 0.39891 0.0
N1233 N 0.77515 0.34335 0.41325 0.0
H1234 H 0.76893 0.29914 0.35327 0.0
H1235 H 0.7891 0.31764 0.37342 0.0
H1236 H 0.77824 0.35474 0.42966 0.0
H1237 H 0.78592 0.34914 0.39795 0.0
H1238 H 0.6732 0.28353 0.41146 0.0
H1239 H 0.68309 0.27468 0.38114 0.0
H1240 H 0.68827 0.28641 0.44852 0.0
H1241 H 0.70698 0.30778 0.46723 0.0
C1242 C 0.53076 -0.00108 0.85318 0.0
C1243 C 0.54146 0.00688 0.87726 0.0
C1244 C 0.58448 0.00047 0.86182 0.0
C1245 C 0.57378 0.99341 0.83748 0.0
N1246 N 0.53759 0.99054 0.80824 0.0
N1247 N 0.57804 0.01932 0.90377 0.0
C1248 C 0.54713 0.99396 0.83265 0.0
C1249 C 0.56823 0.00897 0.88134 0.0
N1250 N 0.50496 0.9955 0.85015 0.0
N1251 N 0.61 0.99793 0.86659 0.0
H1252 H 0.56668 0.02508 0.91874 0.0
H1253 H 0.59725 0.02394 0.90693 0.0
H1254 H 0.62253 0.99199 0.8527 0.0
H1255 H 0.61856 -6e-05 0.88467 0.0
H1256 H 0.49617 0.98682 0.83407 0.0
H1257 H 0.49227 -0.00014 0.86446 0.0
H1258 H 0.51866 0.99334 0.80297 0.0
H1259 H 0.54906 0.98699 0.7927 0.0
C1260 C 0.31478 0.21858 0.43293 0.0
C1261 C 0.30495 0.22194 0.40781 0.0
C1262 C 0.28244 0.1807 0.40915 0.0
C1263 C 0.29498 0.17584 0.43278 0.0
N1264 N 0.32695 0.18843 0.46495 0.0
N1265 N 0.2837 0.20384 0.36991 0.0
C1266 C 0.31216 0.19434 0.44418 0.0
C1267 C 0.28996 0.20233 0.3953 0.0
N1268 N 0.32605 0.23867 0.44628 0.0
N1269 N 0.26264 0.16523 0.40037 0.0
H1270 H 0.2894 0.21903 0.35878 0.0
H1271 H 0.27503 0.18881 0.35935 0.0
H1272 H 0.25578 0.14974 0.41046 0.0
H1273 H 0.25128 0.16943 0.3845 0.0
H1274 H 0.3312 0.23794 0.46557 0.0
H1275 H 0.32805 0.2568 0.43875 0.0
H1276 H 0.34161 0.20035 0.47234 0.0
H1277 H 0.32636 0.17061 0.4733 0.0
C1278 C 0.44668 0.51017 0.8424 0.0
C1279 C 0.45784 0.48598 0.84474 0.0
C1280 C 0.42925 0.46809 0.81086 0.0
C1281 C 0.41812 0.49228 0.80853 0.0
N1282 N 0.41889 0.53735 0.81792 0.0
N1283 N 0.46348 0.44322 0.82861 0.0
C1284 C 0.4277 0.51367 0.82304 0.0
C1285 C 0.45035 0.46536 0.82803 0.0
N1286 N 0.45374 0.52952 0.85921 0.0
N1287 N 0.41882 0.44751 0.79754 0.0
H1288 H 0.47852 0.44028 0.8415 0.0
H1289 H 0.46081 0.42843 0.81519 0.0
H1290 H 0.40381 0.44892 0.78426 0.0
H1291 H 0.42395 0.4288 0.80062 0.0
H1292 H 0.44432 0.54666 0.8606 0.0
H1293 H 0.46839 0.52798 0.87287 0.0
H1294 H 0.42667 0.55414 0.82604 0.0
H1295 H 0.40493 0.54043 0.80387 0.0
C1296 C 0.74533 0.65091 0.11308 0.0
C1297 C 0.75279 0.67705 0.11314 0.0
C1298 C 0.77403 0.67049 0.07261 0.0
C1299 C 0.76412 0.64509 0.07112 0.0
N1300 N 0.73632 0.61251 0.08771 0.0
N1301 N 0.77 0.71292 0.09072 0.0
C1302 C 0.74871 0.63561 0.09079 0.0
C1303 C 0.76594 0.68721 0.09225 0.0
N1304 N 0.73565 0.64053 0.13455 0.0
N1305 N 0.79204 0.67836 0.05599 0.0
H1306 H 0.76413 0.72589 0.10458 0.0
H1307 H 0.77704 0.72157 0.07458 0.0
H1308 H 0.79921 0.66648 0.04185 0.0
H1309 H 0.8018 0.69584 0.05788 0.0
H1310 H 0.73244 0.62104 0.13651 0.0
H1311 H 0.73298 0.65112 0.15128 0.0
H1312 H 0.72274 0.60589 0.10022 0.0
H1313 H 0.73771 0.60097 0.07139 0.0
C1314 C 0.91387 0.01572 0.12172 0.0
C1315 C 0.93993 0.02176 0.12723 0.0
C1316 C 0.93075 0.02727 0.1726 0.0
C1317 C 0.90522 0.01878 0.16744 0.0
N1318 N 0.8737 0.00025 0.13775 0.0
N1319 N 0.9742 0.02874 0.1583 0.0
C1320 C 0.89707 0.01175 0.14216 0.0
C1321 C 0.94868 0.0262 0.15281 0.0
N1322 N 0.90498 0.01451 0.09697 0.0
N1323 N 0.93765 0.0375 0.19606 0.0
H1324 H 0.98794 0.02803 0.14434 0.0
H1325 H 0.98186 0.02923 0.17684 0.0
H1326 H 0.92497 0.03934 0.2109 0.0
H1327 H 0.95525 0.04645 0.20005 0.0
H1328 H 0.8857 0.01297 0.09189 0.0
H1329 H 0.91668 0.01727 0.08147 0.0
H1330 H 0.86783 0.99226 0.12014 0.0
H1331 H 0.86105 0.99645 0.15224 0.0
C1332 C 0.24582 0.82192 0.11174 0.0
C1333 C 0.23975 0.79557 0.11329 0.0
C1334 C 0.22955 0.7934 0.0674 0.0
C1335 C 0.23965 0.81847 0.06527 0.0
N1336 N 0.25786 0.85697 0.08484 0.0
N1337 N 0.22596 0.75572 0.09308 0.0
C1338 C 0.24747 0.83306 0.08735 0.0
C1339 C 0.23126 0.78122 0.09129 0.0
N1340 N 0.25002 0.83618 0.13365 0.0
N1341 N 0.21814 0.78142 0.04651 0.0
H1342 H 0.2262 0.74632 0.11039 0.0
H1343 H 0.22266 0.74353 0.07735 0.0
H1344 H 0.2165 0.79011 0.02886 0.0
H1345 H 0.20831 0.76401 0.04714 0.0
H1346 H 0.25215 0.85593 0.13406 0.0
H1347 H 0.24925 0.8284 0.15175 0.0
H1348 H 0.26681 0.86739 0.09979 0.0
H1349 H 0.25881 0.86598 0.06737 0.0
C1350 C 0.04834 0.45711 0.1882 0.0
C1351 C 0.05899 0.46986 0.16731 0.0
C1352 C 0.0965 0.48198 0.19403 0.0
C1353 C 0.0842 0.47219 0.21566 0.0
N1354 N 0.04513 0.45668 0.23396 0.0
N1355 N 0.09101 0.49893 0.15175 0.0
C1356 C 0.05917 0.46148 0.21296 0.0
C1357 C 0.08247 0.48363 0.17059 0.0
N1358 N 0.02831 0.44024 0.18438 0.0
N1359 N 0.12181 0.48865 0.19542 0.0
H1360 H 0.08103 0.50108 0.13451 0.0
H1361 H 0.1067 0.51134 0.15425 0.0
H1362 H 0.13314 0.48666 0.21183 0.0
H1363 H 0.13213 0.49359 0.1795 0.0
H1364 H 0.02149 0.42873 0.19875 0.0
H1365 H 0.02034 0.43574 0.16636 0.0
H1366 H 0.02597 0.45106 0.23273 0.0
H1367 H 0.05156 0.46121 0.25253 0.0
C1368 C 0.40815 0.7307 0.27744 0.0
C1369 C 0.38576 0.73027 0.29195 0.0
C1370 C 0.41105 0.73946 0.3312 0.0
C1371 C 0.43348 0.73964 0.31671 0.0
N1372 N 0.45431 0.72987 0.27751 0.0
N1373 N 0.36594 0.72872 0.33277 0.0
C1374 C 0.43228 0.73349 0.29024 0.0
C1375 C 0.38726 0.73282 0.31893 0.0
N1376 N 0.40626 0.72939 0.25138 0.0
N1377 N 0.41228 0.74704 0.35634 0.0
H1378 H 0.34814 0.72426 0.32432 0.0
H1379 H 0.36621 0.72766 0.35258 0.0
H1380 H 0.42935 0.75173 0.36613 0.0
H1381 H 0.39631 0.75034 0.36712 0.0
H1382 H 0.42157 0.73262 0.2396 0.0
H1383 H 0.38896 0.72664 0.24135 0.0
H1384 H 0.45483 0.72298 0.25877 0.0
H1385 H 0.47226 0.73156 0.2865 0.0
C1386 C 0.00923 0.33489 0.96035 0.0
C1387 C 0.99211 0.35533 0.95929 0.0
C1388 C 0.97424 0.33816 0.91871 0.0
C1389 C 0.99373 0.31998 0.91793 0.0
N1390 N 0.0327 0.30392 0.93627 0.0
N1391 N 0.96184 0.37935 0.93473 0.0
C1392 C 0.012 0.31898 0.93835 0.0
C1393 C 0.97555 0.35779 0.93771 0.0
N1394 N 0.0224 0.3303 0.98252 0.0
N1395 N 0.95394 0.33619 0.90186 0.0
H1396 H 0.96282 0.39467 0.94775 0.0
H1397 H 0.95152 0.38311 0.91805 0.0
H1398 H 0.95164 0.3214 0.88832 0.0
H1399 H 0.93804 0.34756 0.90322 0.0
H1400 H 0.03318 0.31414 0.98512 0.0
H1401 H 0.0206 0.34136 -0.00088 0.0
H1402 H 0.04789 0.30456 0.94947 0.0
H1403 H 0.03598 0.29257 0.92019 0.0
C1404 C 0.60228 0.73128 0.29831 0.0
C1405 C 0.61746 0.75372 0.29547 0.0
C1406 C 0.58849 0.77743 0.32235 0.0
C1407 C 0.57118 0.75627 0.32149 0.0
N1408 N 0.56037 0.71348 0.30642 0.0
N1409 N 0.62287 0.79932 0.30162 0.0
C1410 C 0.57782 0.73314 0.30912 0.0
C1411 C 0.61012 0.77711 0.3068 0.0
N1412 N 0.6114 0.70819 0.29099 0.0
N1413 N 0.58451 0.79767 0.33846 0.0
H1414 H 0.63843 0.80022 0.28974 0.0
H1415 H 0.61652 0.81718 0.30717 0.0
H1416 H 0.56921 0.79822 0.35073 0.0
H1417 H 0.59779 0.81254 0.34166 0.0
H1418 H 0.60229 0.69092 0.29485 0.0
H1419 H 0.62931 0.70618 0.2832 0.0
H1420 H 0.56319 0.6973 0.2951 0.0
H1421 H 0.5422 0.71412 0.31383 0.0
C1422 C 0.99121 0.14265 0.92942 0.0
C1423 C 0.01596 0.13471 0.93657 0.0
C1424 C 0.03491 0.16603 0.90817 0.0
C1425 C 0.01029 0.1753 0.90259 0.0
N1426 N 0.96514 0.17462 0.90962 0.0
N1427 N 0.06153 0.14072 0.93579 0.0
C1428 C 0.98846 0.16427 0.91378 0.0
C1429 C 0.03788 0.14686 0.92669 0.0
N1430 N 0.97034 0.12894 0.93686 0.0
N1431 N 0.05545 0.17549 0.89563 0.0
H1432 H 0.06446 0.12667 0.94922 0.0
H1433 H 0.07815 0.15076 0.93158 0.0
H1434 H 0.05426 0.1904 0.88289 0.0
H1435 H 0.07338 0.16755 0.89654 0.0
H1436 H 0.9519 0.13194 0.93007 0.0
H1437 H 0.97161 0.11308 0.94839 0.0
H1438 H 0.949 0.16949 0.91957 0.0
H1439 H 0.96214 0.1896 0.89726 0.0
C1440 C 0.39897 0.27464 0.20799 0.0
C1441 C 0.40475 0.29856 0.22019 0.0
C1442 C 0.43493 0.30914 0.18702 0.0
C1443 C 0.42989 0.28482 0.1754 0.0
N1444 N 0.41086 0.24268 0.17667 0.0
N1445 N 0.43069 0.33699 0.22414 0.0
C1446 C 0.41295 0.26705 0.18641 0.0
C1447 C 0.42356 0.31532 0.21058 0.0
N1448 N 0.37971 0.25947 0.21672 0.0
N1449 N 0.44965 0.32673 0.17492 0.0
H1450 H 0.4222 0.34249 0.24108 0.0
H1451 H 0.44621 0.3486 0.2197 0.0
H1452 H 0.45846 0.32285 0.15773 0.0
H1453 H 0.45171 0.34572 0.18085 0.0
H1454 H 0.37247 0.2433 0.20694 0.0
H1455 H 0.36977 0.26387 0.23312 0.0
H1456 H 0.40095 0.22801 0.18538 0.0
H1457 H 0.42081 0.2365 0.16083 0.0
C1458 C 0.49179 0.36863 0.05075 0.0
C1459 C 0.5139 0.36502 0.03631 0.0
C1460 C 0.51722 0.32159 0.05194 0.0
C1461 C 0.49603 0.3258 0.06758 0.0
N1462 N 0.46718 0.35524 0.08664 0.0
N1463 N 0.55079 0.34041 0.02713 0.0
C1464 C 0.48451 0.34993 0.06842 0.0
C1465 C 0.52762 0.3422 0.03817 0.0
N1466 N 0.47711 0.38939 0.04685 0.0
N1467 N 0.52658 0.29766 0.04914 0.0
H1468 H 0.55896 0.35518 0.01691 0.0
H1469 H 0.56289 0.32529 0.03004 0.0
H1470 H 0.51929 0.28192 0.05854 0.0
H1471 H 0.54013 0.29294 0.03583 0.0
H1472 H 0.45929 0.39148 0.05473 0.0
H1473 H 0.48165 0.40353 0.03398 0.0
H1474 H 0.46008 0.37334 0.0898 0.0
H1475 H 0.46184 0.34221 0.10036 0.0
C1476 C 0.60951 0.23943 0.1554 0.0
C1477 C 0.61056 0.24839 0.18114 0.0
C1478 C 0.5704 0.2702 0.17427 0.0
C1479 C 0.56779 0.25864 0.14958 0.0
N1480 N 0.58266 0.22824 0.11844 0.0
N1481 N 0.58967 0.26828 0.21657 0.0
C1482 C 0.58679 0.24221 0.14054 0.0
C1483 C 0.59034 0.26267 0.19102 0.0
N1484 N 0.63042 0.22885 0.14493 0.0
N1485 N 0.55449 0.28912 0.1814 0.0
H1486 H 0.6037 0.26277 0.22961 0.0
H1487 H 0.57401 0.27627 0.22516 0.0
H1488 H 0.54018 0.29588 0.16937 0.0
H1489 H 0.55719 0.29994 0.1982 0.0
H1490 H 0.6316 0.22443 0.12554 0.0
H1491 H 0.6475 0.22669 0.15516 0.0
H1492 H 0.59472 0.214 0.11242 0.0
H1493 H 0.56594 0.22901 0.10735 0.0
C1494 C 0.44474 0.15359 0.06868 0.0
C1495 C 0.46694 0.14489 0.05679 0.0
C1496 C 0.48906 0.18547 0.06746 0.0
C1497 C 0.46732 0.19359 0.08064 0.0
N1498 N 0.42736 0.18266 0.09972 0.0
N1499 N 0.51202 0.14976 0.05041 0.0
C1500 C 0.44603 0.17678 0.08309 0.0
C1501 C 0.48972 0.15995 0.05802 0.0
N1502 N 0.4221 0.14041 0.06524 0.0
N1503 N 0.50839 0.20239 0.06255 0.0
H1504 H 0.51318 0.13102 0.04359 0.0
H1505 H 0.52967 0.15901 0.05322 0.0
H1506 H 0.50845 0.2215 0.06833 0.0
H1507 H 0.52331 0.19807 0.05065 0.0
H1508 H 0.40481 0.14745 0.07113 0.0
H1509 H 0.42016 0.12346 0.05455 0.0
H1510 H 0.41265 0.16996 0.10408 0.0
H1511 H 0.42806 0.19914 0.11123 0.0
C1512 C 0.29322 0.40182 0.70901 0.0
C1513 C 0.29494 0.38175 0.7266 0.0
C1514 C 0.32608 0.40702 0.75262 0.0
C1515 C 0.32141 0.42835 0.73723 0.0
N1516 N 0.29907 0.44702 0.70179 0.0
N1517 N 0.31065 0.36613 0.76687 0.0
C1518 C 0.30479 0.42599 0.71549 0.0
C1519 C 0.31089 0.38449 0.7488 0.0
N1520 N 0.28084 0.39763 0.68598 0.0
N1521 N 0.34549 0.40816 0.77055 0.0
H1522 H 0.2997 0.34934 0.76495 0.0
H1523 H 0.31963 0.36847 0.78475 0.0
H1524 H 0.35735 0.42424 0.77352 0.0
H1525 H 0.35147 0.39241 0.78061 0.0
H1526 H 0.28107 0.41064 0.67131 0.0
H1527 H 0.27217 0.38015 0.6807 0.0
H1528 H 0.28486 0.44711 0.68758 0.0
H1529 H 0.30732 0.46497 0.70582 0.0
C1530 C 0.30612 0.60521 0.77149 0.0
C1531 C 0.29361 0.61165 0.74829 0.0
C1532 C 0.30792 0.57211 0.72807 0.0
C1533 C 0.32148 0.56643 0.75095 0.0
N1534 N 0.33958 0.58125 0.79152 0.0
N1535 N 0.28754 0.60445 0.70294 0.0
C1536 C 0.32251 0.5842 0.77173 0.0
C1537 C 0.29611 0.59611 0.72604 0.0
N1538 N 0.30133 0.6182 0.79366 0.0
N1539 N 0.30508 0.55416 0.70886 0.0
H1540 H 0.279 0.62202 0.7008 0.0
H1541 H 0.29105 0.59512 0.68571 0.0
H1542 H 0.31318 0.53628 0.70964 0.0
H1543 H 0.29301 0.55623 0.693 0.0
H1544 H 0.30785 0.61243 0.81151 0.0
H1545 H 0.28886 0.63329 0.79466 0.0
H1546 H 0.34283 0.59495 0.806 0.0
H1547 H 0.35246 0.56646 0.79196 0.0
C1548 C 0.84425 0.44422 0.51931 0.0
C1549 C 0.8521 0.45249 0.49511 0.0
C1550 C 0.82238 0.42186 0.47357 0.0
C1551 C 0.81424 0.4139 0.49775 0.0
N1552 N 0.81369 0.4198 0.5434 0.0
N1553 N 0.84614 0.45282 0.44939 0.0
C1554 C 0.824 0.42588 0.52058 0.0
C1555 C 0.84035 0.44242 0.47226 0.0
N1556 N 0.85677 0.45333 0.54097 0.0
N1557 N 0.81344 0.40921 0.45192 0.0
H1558 H 0.85966 0.46751 0.44767 0.0
H1559 H 0.83637 0.44826 0.43231 0.0
H1560 H 0.79938 0.39486 0.4521 0.0
H1561 H 0.82081 0.41189 0.43394 0.0
H1562 H 0.85404 0.44604 0.559 0.0
H1563 H 0.87117 0.46734 0.54079 0.0
H1564 H 0.8181 0.42954 0.56051 0.0
H1565 H 0.79915 0.40609 0.54497 0.0
C1566 C 0.7273 0.91801 0.78444 0.0
C1567 C 0.73617 0.91936 0.81023 0.0
C1568 C 0.70197 0.9482 0.82107 0.0
C1569 C 0.69105 0.94369 0.7963 0.0
N1570 N 0.69273 0.92512 0.75399 0.0
N1571 N 0.73291 0.9355 0.85331 0.0
C1572 C 0.70374 0.92907 0.77774 0.0
C1573 C 0.72399 0.93474 0.82856 0.0
N1574 N 0.74152 0.90612 0.76647 0.0
N1575 N 0.69113 0.96521 0.83736 0.0
H1576 H 0.7496 0.92669 0.85911 0.0
H1577 H 0.72334 0.94383 0.86834 0.0
H1578 H 0.67465 0.9749 0.83259 0.0
H1579 H 0.69933 0.97119 0.85482 0.0
H1580 H 0.73746 0.90642 0.74695 0.0
H1581 H 0.75869 0.8975 0.77088 0.0
H1582 H 0.69924 0.9122 0.74049 0.0
H1583 H 0.67619 0.93411 0.74804 0.0
C1584 C 0.66163 0.56581 0.96254 0.0
C1585 C 0.661 0.53923 0.96681 0.0
C1586 C 0.70733 0.53966 0.97363 0.0
C1587 C 0.70795 0.5663 0.96957 0.0
N1588 N 0.68613 0.60567 0.96388 0.0
N1589 N 0.6819 0.50123 0.98009 0.0
C1590 C 0.68518 0.5797 0.96528 0.0
C1591 C 0.68349 0.52627 0.9735 0.0
N1592 N 0.6398 0.57754 0.95508 0.0
N1593 N 0.72964 0.52716 0.97722 0.0
H1594 H 0.66487 0.4906 0.97944 0.0
H1595 H 0.69702 0.49127 0.98781 0.0
H1596 H 0.74733 0.53652 0.97924 0.0
H1597 H 0.73095 0.50743 0.97712 0.0
H1598 H 0.63925 0.59615 0.94877 0.0
H1599 H 0.62206 0.56817 0.95387 0.0
H1600 H 0.67012 0.61692 0.96353 0.0
H1601 H 0.70313 0.61636 0.96464 0.0
C1602 C 0.1676 0.61794 0.27957 0.0
C1603 C 0.17276 0.62358 0.25389 0.0
C1604 C 0.14514 0.58771 0.23883 0.0
C1605 C 0.14248 0.58034 0.2645 0.0
N1606 N 0.15132 0.58736 0.30948 0.0
N1607 N 0.16797 0.61373 0.20888 0.0
C1608 C 0.15364 0.59525 0.28495 0.0
C1609 C 0.16171 0.6086 0.23342 0.0
N1610 N 0.17575 0.63454 0.29872 0.0
N1611 N 0.13191 0.57463 0.21968 0.0
H1612 H 0.17948 0.62929 0.20415 0.0
H1613 H 0.16309 0.60187 0.19326 0.0
H1614 H 0.12042 0.55861 0.22282 0.0
H1615 H 0.13083 0.58057 0.20089 0.0
H1616 H 0.17056 0.63299 0.31763 0.0
H1617 H 0.18626 0.65119 0.29539 0.0
H1618 H 0.1615 0.5955 0.32503 0.0
H1619 H 0.13999 0.57168 0.31425 0.0
C1620 C 0.88228 0.5669 0.02025 0.0
C1621 C 0.88038 0.54003 0.02203 0.0
C1622 C 0.83517 0.54062 0.00954 0.0
C1623 C 0.83795 0.56692 0.00454 0.0
N1624 N 0.864 0.60529 0.00352 0.0
N1625 N 0.8559 0.50068 0.01707 0.0
C1626 C 0.86139 0.58024 0.00975 0.0
C1627 C 0.85699 0.52671 0.01651 0.0
N1628 N 0.904 0.57958 0.02879 0.0
N1629 N 0.81151 0.52914 0.00818 0.0
H1630 H 0.87126 0.48982 0.02287 0.0
H1631 H 0.84031 0.48968 0.01026 0.0
H1632 H 0.79509 0.5389 0.00327 0.0
H1633 H 0.80773 0.51068 0.01407 0.0
H1634 H 0.90575 0.59933 0.03046 0.0
H1635 H 0.91979 0.57027 0.03616 0.0
H1636 H 0.88133 0.61533 0.00404 0.0
H1637 H 0.84898 0.61578 0.99623 0.0
C1638 C 0.15409 0.94849 0.01791 0.0
C1639 C 0.1284 0.94115 0.012 0.0
C1640 C 0.14194 0.89834 -0.00032 0.0
C1641 C 0.16712 0.90481 0.00846 0.0
N1642 N 0.19617 0.93481 0.03037 0.0
N1643 N 0.09716 0.90792 0.00131 0.0
C1644 C 0.17299 0.9296 0.0187 0.0
C1645 C 0.12211 0.91573 0.00399 0.0
N1646 N 0.16055 0.97363 0.02215 0.0
N1647 N 0.1371 0.87603 0.9863 0.0
H1648 H 0.08206 0.92001 0.00441 0.0
H1649 H 0.09144 0.88895 0.99825 0.0
H1650 H 0.15122 0.86311 0.98209 0.0
H1651 H 0.11967 0.87155 0.97716 0.0
H1652 H 0.17932 0.98041 0.02383 0.0
H1653 H 0.14726 0.98804 0.02162 0.0
H1654 H 0.20047 0.95169 0.04056 0.0
H1655 H 0.21034 0.92137 0.03209 0.0
loop_
_geom_bond_atom_site_label_1
_geom_bond_atom_site_label_2
_geom_bond_distance
_geom_bond_site_symmetry_2
_ccdc_geom_bond_type
C0 C1 1.386 . S
C0 C2 1.397 . S
C0 H24 0.931 . S
C1 C0 1.386 . S
C1 C5 1.397 1_556 S
C2 C0 1.397 . S
C2 C3 1.384 1_556 S
C2 H25 0.930 . S
C3 C2 1.384 1_554 S
C3 C4 1.377 . S
C3 C6 1.481 . S
C4 C3 1.377 . S
C4 C5 1.389 . S
C4 H26 0.929 . S
C5 C1 1.397 1_554 S
C5 C4 1.389 . S
C5 H27 0.931 . S
C6 C3 1.481 . S
C6 C7 1.387 . S
C6 C11 1.390 . S
C7 C6 1.387 . S
C7 C8 1.401 . S
C7 H28 0.930 . S
C8 C7 1.401 . S
C8 C9 1.376 . S
C8 C17 1.511 . S
C9 C8 1.376 . S
C9 C10 1.392 . S
C9 H30 0.931 . S
C10 C9 1.392 . S
C10 C11 1.361 . S
C10 C12 1.500 . S
C11 C6 1.390 . S
C11 C10 1.361 . S
C11 H29 0.931 . S
C12 C10 1.500 . S
C12 C13 1.371 . S
C12 C14 1.365 1_455 S
C13 C12 1.371 . S
C13 C23 1.386 1_455 S
C13 H31 0.931 1_545 S
C14 C12 1.365 1_655 S
C14 C15 1.409 . S
C14 H32 0.929 1_655 S
C15 C14 1.409 . S
C15 C16 1.380 . S
C15 H33 0.930 . S
C16 C15 1.380 . S
C16 C23 1.357 . S
C17 C8 1.511 . S
C17 C18 1.341 . S
C17 C19 1.371 1_545 S
C18 C17 1.341 . S
C18 C22 1.394 1_545 S
C18 H34 0.930 1_554 S
C19 C17 1.371 1_565 S
C19 C20 1.392 . S
C19 H35 0.931 . S
C20 C19 1.392 . S
C20 C21 1.331 . S
C20 H38 0.932 . S
C21 C20 1.331 . S
C21 C22 1.336 . S
C22 C18 1.394 1_565 S
C22 C21 1.336 . S
C22 H37 0.929 1_554 S
C23 C13 1.386 1_655 S
C23 C16 1.357 . S
C23 H36 0.928 1_545 S
H24 C0 0.931 . S
H25 C2 0.930 . S
H26 C4 0.929 . S
H27 C5 0.931 . S
H28 C7 0.930 . S
H29 C11 0.931 . S
H30 C9 0.931 . S
H31 C13 0.931 1_565 S
H32 C14 0.929 1_455 S
H33 C15 0.930 . S
H34 C18 0.930 1_556 S
H35 C19 0.931 . S
H36 C23 0.928 1_565 S
H37 C22 0.929 1_556 S
H38 C20 0.932 . S
C39 C40 1.386 . S
C39 C41 1.397 . S
C39 H63 0.931 . S
C40 C39 1.386 . S
C40 C44 1.397 . S
C41 C39 1.397 . S
C41 C42 1.384 . S
C41 H64 0.930 . S
C42 C41 1.384 . S
C42 C43 1.377 . S
C42 C45 1.481 . S
C43 C42 1.377 . S
C43 C44 1.389 . S
C43 H65 0.929 . S
C44 C40 1.397 . S
C44 C43 1.389 . S
C44 H66 0.931 . S
C45 C42 1.481 . S
C45 C46 1.387 . S
C45 C50 1.390 . S
C46 C45 1.387 . S
C46 C47 1.401 . S
C46 H67 0.930 . S
C47 C46 1.401 . S
C47 C48 1.376 . S
C47 C56 1.511 . S
C48 C47 1.376 . S
C48 C49 1.392 . S
C48 H69 0.931 . S
C49 C48 1.392 . S
C49 C50 1.361 . S
C49 C51 1.500 . S
C50 C45 1.390 . S
C50 C49 1.361 . S
C50 H68 0.931 . S
C51 C49 1.500 . S
C51 C52 1.371 . S
C51 C53 1.365 . S
C52 C51 1.371 . S
C52 C62 1.386 . S
C52 H70 0.931 . S
C53 C51 1.365 . S
C53 C54 1.409 . S
C53 H71 0.929 . S
C54 C53 1.409 . S
C54 C55 1.380 . S
C54 H72 0.930 . S
C55 C54 1.380 . S
C55 C62 1.357 . S
C56 C47 1.511 . S
C56 C57 1.341 . S
C56 C58 1.371 . S
C57 C56 1.341 . S
C57 C61 1.394 . S
C57 H73 0.930 . S
C58 C56 1.371 . S
C58 C59 1.392 . S
C58 H74 0.931 . S
C59 C58 1.392 . S
C59 C60 1.331 . S
C59 H77 0.932 . S
C60 C59 1.331 . S
C60 C61 1.336 . S
C61 C57 1.394 . S
C61 C60 1.336 . S
C61 H76 0.929 . S
C62 C52 1.386 . S
C62 C55 1.357 . S
C62 H75 0.928 . S
H63 C39 0.931 . S
H64 C41 0.930 . S
H65 C43 0.929 . S
H66 C44 0.931 . S
H67 C46 0.930 . S
H68 C50 0.931 . S
H69 C48 0.931 . S
H70 C52 0.931 . S
H71 C53 0.929 . S
H72 C54 0.930 . S
H73 C57 0.930 . S
H74 C58 0.931 . S
H75 C62 0.928 . S
H76 C61 0.929 . S
H77 C59 0.932 . S
C78 C79 1.386 1_655 S
C78 C80 1.397 . S
C78 H102 0.931 . S
C79 C78 1.386 1_455 S
C79 C83 1.397 . S
C80 C78 1.397 . S
C80 C81 1.384 . S
C80 H103 0.930 . S
C81 C80 1.384 . S
C81 C82 1.377 1_655 S
C81 C84 1.481 . S
C82 C81 1.377 1_455 S
C82 C83 1.389 . S
C82 H104 0.929 . S
C83 C79 1.397 . S
C83 C82 1.389 . S
C83 H105 0.931 . S
C84 C81 1.481 . S
C84 C85 1.387 . S
C84 C89 1.390 . S
C85 C84 1.387 . S
C85 C86 1.401 . S
C85 H106 0.930 . S
C86 C85 1.401 . S
C86 C87 1.376 . S
C86 C95 1.511 . S
C87 C86 1.376 . S
C87 C88 1.392 . S
C87 H108 0.931 . S
C88 C87 1.392 . S
C88 C89 1.361 . S
C88 C90 1.500 . S
C89 C84 1.390 . S
C89 C88 1.361 . S
C89 H107 0.931 . S
C90 C88 1.500 . S
C90 C91 1.371 . S
C90 C92 1.365 . S
C91 C90 1.371 . S
C91 C101 1.386 1_554 S
C91 H109 0.931 . S
C92 C90 1.365 . S
C92 C93 1.419 . S
C92 H110 0.929 . S
C93 C92 1.419 . S
C93 C94 1.373 1_554 S
C93 H111 0.928 1_654 S
C94 C93 1.373 1_556 S
C94 C101 1.357 . S
C95 C86 1.511 . S
C95 C96 1.341 . S
C95 C97 1.371 . S
C96 C95 1.341 . S
C96 C100 1.394 . S
C96 H112 0.930 . S
C97 C95 1.371 . S
C97 C98 1.392 . S
C97 H113 0.931 . S
C98 C97 1.392 . S
C98 C99 1.331 . S
C98 H116 0.932 . S
C99 C98 1.331 . S
C99 C100 1.336 . S
C100 C96 1.394 . S
C100 C99 1.336 . S
C100 H115 0.929 . S
C101 C91 1.386 1_556 S
C101 C94 1.357 . S
C101 H114 0.928 . S
H102 C78 0.931 . S
H103 C80 0.930 . S
H104 C82 0.929 . S
H105 C83 0.931 . S
H106 C85 0.930 . S
H107 C89 0.931 . S
H108 C87 0.931 . S
H109 C91 0.931 . S
H110 C92 0.929 . S
H111 C93 0.928 1_456 S
H112 C96 0.930 . S
H113 C97 0.931 . S
H114 C101 0.928 . S
H115 C100 0.929 . S
H116 C98 0.932 . S
C117 C118 1.386 . S
C117 C119 1.397 . S
C117 H141 0.931 . S
C118 C117 1.386 . S
C118 C122 1.397 . S
C119 C117 1.397 . S
C119 C120 1.384 . S
C119 H142 0.930 . S
C120 C119 1.384 . S
C120 C121 1.377 . S
C120 C123 1.481 . S
C121 C120 1.377 . S
C121 C122 1.389 . S
C121 H143 0.929 . S
C122 C118 1.397 . S
C122 C121 1.389 . S
C122 H144 0.931 . S
C123 C120 1.481 . S
C123 C124 1.387 . S
C123 C128 1.390 . S
C124 C123 1.387 . S
C124 C125 1.401 . S
C124 H145 0.930 . S
C125 C124 1.401 . S
C125 C126 1.376 . S
C125 C134 1.511 . S
C126 C125 1.376 . S
C126 C127 1.392 . S
C126 H147 0.931 . S
C127 C126 1.392 . S
C127 C128 1.361 . S
C127 C129 1.500 . S
C128 C123 1.390 . S
C128 C127 1.361 . S
C128 H146 0.931 . S
C129 C127 1.500 . S
C129 C130 1.371 . S
C129 C131 1.365 . S
C130 C129 1.371 . S
C130 C140 1.386 . S
C130 H148 0.931 . S
C131 C129 1.365 . S
C131 C132 1.409 . S
C131 H149 0.929 . S
C132 C131 1.409 . S
C132 C133 1.380 . S
C132 H150 0.930 . S
C133 C132 1.380 . S
C133 C140 1.357 . S
C134 C125 1.511 . S
C134 C135 1.341 . S
C134 C136 1.371 . S
C135 C134 1.341 . S
C135 C139 1.394 . S
C135 H151 0.930 . S
C136 C134 1.371 . S
C136 C137 1.392 . S
C136 H152 0.931 . S
C137 C136 1.392 . S
C137 C138 1.331 . S
C137 H155 0.932 . S
C138 C137 1.331 . S
C138 C139 1.336 . S
C139 C135 1.394 . S
C139 C138 1.336 . S
C139 H154 0.929 . S
C140 C130 1.386 . S
C140 C133 1.357 . S
C140 H153 0.928 . S
H141 C117 0.931 . S
H142 C119 0.930 . S
H143 C121 0.929 . S
H144 C122 0.931 . S
H145 C124 0.930 . S
H146 C128 0.931 . S
H147 C126 0.931 . S
H148 C130 0.931 . S
H149 C131 0.929 . S
H150 C132 0.930 . S
H151 C135 0.930 . S
H152 C136 0.931 . S
H153 C140 0.928 . S
H154 C139 0.929 . S
H155 C137 0.932 . S
C156 C157 1.386 . S
C156 C158 1.397 . S
C156 H180 0.931 . S
C157 C156 1.386 . S
C157 C161 1.397 1_655 S
C158 C156 1.397 . S
C158 C159 1.384 1_655 S
C158 H181 0.930 . S
C159 C158 1.384 1_455 S
C159 C160 1.377 . S
C159 C162 1.481 . S
C160 C159 1.377 . S
C160 C161 1.389 . S
C160 H182 0.929 . S
C161 C157 1.397 1_455 S
C161 C160 1.389 . S
C161 H183 0.931 . S
C162 C159 1.481 . S
C162 C163 1.387 . S
C162 C167 1.390 . S
C163 C162 1.387 . S
C163 C164 1.401 . S
C163 H184 0.930 . S
C164 C163 1.401 . S
C164 C165 1.376 . S
C164 C173 1.511 . S
C165 C164 1.376 . S
C165 C166 1.392 . S
C165 H186 0.931 . S
C166 C165 1.392 . S
C166 C167 1.361 . S
C166 C168 1.500 . S
C167 C162 1.390 . S
C167 C166 1.361 . S
C167 H185 0.931 . S
C168 C166 1.500 . S
C168 C169 1.371 . S
C168 C170 1.365 . S
C169 C168 1.371 . S
C169 C179 1.386 1_565 S
C169 H187 0.931 . S
C170 C168 1.365 . S
C170 C171 1.409 1_565 S
C170 H188 0.929 . S
C171 C170 1.409 1_545 S
C171 C172 1.380 . S
C171 H189 0.930 . S
C172 C171 1.380 . S
C172 C179 1.357 . S
C173 C164 1.511 . S
C173 C174 1.341 . S
C173 C175 1.371 . S
C174 C173 1.341 . S
C174 C178 1.394 . S
C174 H190 0.930 . S
C175 C173 1.371 . S
C175 C176 1.392 . S
C175 H191 0.931 . S
C176 C175 1.392 . S
C176 C177 1.331 . S
C176 H194 0.932 . S
C177 C176 1.331 . S
C177 C178 1.336 . S
C178 C174 1.394 . S
C178 C177 1.336 . S
C178 H193 0.929 . S
C179 C169 1.386 1_545 S
C179 C172 1.357 . S
C179 H192 0.928 . S
H180 C156 0.931 . S
H181 C158 0.930 . S
H182 C160 0.929 . S
H183 C161 0.931 . S
H184 C163 0.930 . S
H185 C167 0.931 . S
H186 C165 0.931 . S
H187 C169 0.931 . S
H188 C170 0.929 . S
H189 C171 0.930 . S
H190 C174 0.930 . S
H191 C175 0.931 . S
H192 C179 0.928 . S
H193 C178 0.929 . S
H194 C176 0.932 . S
C195 C196 1.386 . S
C195 C197 1.397 . S
C195 H219 0.931 . S
C196 C195 1.386 . S
C196 C200 1.397 . S
C197 C195 1.397 . S
C197 C198 1.384 . S
C197 H220 0.930 . S
C198 C197 1.384 . S
C198 C199 1.377 . S
C198 C201 1.481 . S
C199 C198 1.377 . S
C199 C200 1.389 . S
C199 H221 0.929 . S
C200 C196 1.397 . S
C200 C199 1.389 . S
C200 H222 0.931 . S
C201 C198 1.481 . S
C201 C202 1.387 . S
C201 C206 1.390 . S
C202 C201 1.387 . S
C202 C203 1.401 . S
C202 H223 0.930 . S
C203 C202 1.401 . S
C203 C204 1.376 . S
C203 C212 1.511 . S
C204 C203 1.376 . S
C204 C205 1.392 . S
C204 H225 0.931 . S
C205 C204 1.392 . S
C205 C206 1.361 . S
C205 C207 1.500 . S
C206 C201 1.390 . S
C206 C205 1.361 . S
C206 H224 0.931 . S
C207 C205 1.500 . S
C207 C208 1.371 . S
C207 C209 1.365 . S
C208 C207 1.371 . S
C208 C218 1.386 . S
C208 H226 0.931 . S
C209 C207 1.365 . S
C209 C210 1.409 . S
C209 H227 0.929 . S
C210 C209 1.409 . S
C210 C211 1.380 . S
C210 H228 0.930 . S
C211 C210 1.380 . S
C211 C218 1.357 . S
C212 C203 1.511 . S
C212 C213 1.341 . S
C212 C214 1.371 . S
C213 C212 1.341 . S
C213 C217 1.394 . S
C213 H229 0.930 . S
C214 C212 1.371 . S
C214 C215 1.392 . S
C214 H230 0.931 . S
C215 C214 1.392 . S
C215 C216 1.331 . S
C215 H233 0.932 . S
C216 C215 1.331 . S
C216 C217 1.336 . S
C217 C213 1.394 . S
C217 C216 1.336 . S
C217 H232 0.929 . S
C218 C208 1.386 . S
C218 C211 1.357 . S
C218 H231 0.928 . S
H219 C195 0.931 . S
H220 C197 0.930 . S
H221 C199 0.929 . S
H222 C200 0.931 . S
H223 C202 0.930 . S
H224 C206 0.931 . S
H225 C204 0.931 . S
H226 C208 0.931 . S
H227 C209 0.929 . S
H228 C210 0.930 . S
H229 C213 0.930 . S
H230 C214 0.931 . S
H231 C218 0.928 . S
H232 C217 0.929 . S
H233 C215 0.932 . S
C234 C235 1.386 . S
C234 C236 1.397 . S
C234 H258 0.931 . S
C235 C234 1.386 . S
C235 C239 1.397 . S
C236 C234 1.397 . S
C236 C237 1.384 . S
C236 H259 0.930 . S
C237 C236 1.384 . S
C237 C238 1.377 . S
C237 C240 1.481 . S
C238 C237 1.377 . S
C238 C239 1.389 . S
C238 H260 0.929 . S
C239 C235 1.397 . S
C239 C238 1.389 . S
C239 H261 0.931 . S
C240 C237 1.481 . S
C240 C241 1.387 . S
C240 C245 1.390 . S
C241 C240 1.387 . S
C241 C242 1.401 . S
C241 H262 0.930 . S
C242 C241 1.401 . S
C242 C243 1.376 . S
C242 C251 1.511 . S
C243 C242 1.376 . S
C243 C244 1.392 . S
C243 H264 0.931 . S
C244 C243 1.392 . S
C244 C245 1.361 . S
C244 C246 1.500 . S
C245 C240 1.390 . S
C245 C244 1.361 . S
C245 H263 0.931 . S
C246 C244 1.500 . S
C246 C247 1.371 . S
C246 C248 1.365 . S
C247 C246 1.371 . S
C247 C257 1.386 . S
C247 H265 0.931 . S
C248 C246 1.365 . S
C248 C249 1.409 . S
C248 H266 0.929 . S
C249 C248 1.409 . S
C249 C250 1.380 . S
C249 H267 0.930 . S
C250 C249 1.380 . S
C250 C257 1.357 . S
C251 C242 1.511 . S
C251 C252 1.341 1_655 S
C251 C253 1.371 . S
C252 C251 1.341 1_455 S
C252 C256 1.394 . S
C252 H268 0.930 . S
C253 C251 1.371 . S
C253 C254 1.392 1_655 S
C253 H269 0.931 . S
C254 C253 1.392 1_455 S
C254 C255 1.331 . S
C254 H272 0.932 . S
C255 C254 1.331 . S
C255 C256 1.336 . S
C256 C252 1.394 . S
C256 C255 1.336 . S
C256 H271 0.929 . S
C257 C247 1.386 . S
C257 C250 1.357 . S
C257 H270 0.928 . S
H258 C234 0.931 . S
H259 C236 0.930 . S
H260 C238 0.929 . S
H261 C239 0.931 . S
H262 C241 0.930 . S
H263 C245 0.931 . S
H264 C243 0.931 . S
H265 C247 0.931 . S
H266 C248 0.929 . S
H267 C249 0.930 . S
H268 C252 0.930 . S
H269 C253 0.931 . S
H270 C257 0.928 . S
H271 C256 0.929 . S
H272 C254 0.932 . S
C273 C274 1.386 . S
C273 C275 1.397 . S
C273 H297 0.931 . S
C274 C273 1.386 . S
C274 C278 1.397 . S
C275 C273 1.397 . S
C275 C276 1.384 . S
C275 H298 0.930 . S
C276 C275 1.384 . S
C276 C277 1.377 . S
C276 C279 1.481 . S
C277 C276 1.377 . S
C277 C278 1.389 . S
C277 H299 0.929 . S
C278 C274 1.397 . S
C278 C277 1.389 . S
C278 H300 0.931 . S
C279 C276 1.481 . S
C279 C280 1.387 . S
C279 C284 1.390 . S
C280 C279 1.387 . S
C280 C281 1.401 . S
C280 H301 0.930 . S
C281 C280 1.401 . S
C281 C282 1.376 . S
C281 C290 1.511 . S
C282 C281 1.376 . S
C282 C283 1.392 . S
C282 H303 0.931 . S
C283 C282 1.392 . S
C283 C284 1.361 . S
C283 C285 1.500 . S
C284 C279 1.390 . S
C284 C283 1.361 . S
C284 H302 0.931 . S
C285 C283 1.500 . S
C285 C286 1.371 . S
C285 C287 1.365 . S
C286 C285 1.371 . S
C286 C296 1.386 . S
C286 H304 0.931 . S
C287 C285 1.365 . S
C287 C288 1.409 . S
C287 H305 0.929 . S
C288 C287 1.409 . S
C288 C289 1.380 . S
C288 H306 0.930 . S
C289 C288 1.380 . S
C289 C296 1.357 . S
C290 C281 1.511 . S
C290 C291 1.341 . S
C290 C292 1.371 . S
C291 C290 1.341 . S
C291 C295 1.394 . S
C291 H307 0.930 . S
C292 C290 1.371 . S
C292 C293 1.392 . S
C292 H308 0.931 . S
C293 C292 1.392 . S
C293 C294 1.331 . S
C293 H311 0.932 . S
C294 C293 1.331 . S
C294 C295 1.336 . S
C295 C291 1.394 . S
C295 C294 1.336 . S
C295 H310 0.929 . S
C296 C286 1.386 . S
C296 C289 1.357 . S
C296 H309 0.928 . S
H297 C273 0.931 . S
H298 C275 0.930 . S
H299 C277 0.929 . S
H300 C278 0.931 . S
H301 C280 0.930 . S
H302 C284 0.931 . S
H303 C282 0.931 . S
H304 C286 0.931 . S
H305 C287 0.929 . S
H306 C288 0.930 . S
H307 C291 0.930 . S
H308 C292 0.931 . S
H309 C296 0.928 . S
H310 C295 0.929 . S
H311 C293 0.932 . S
C312 C313 1.386 . S
C312 C314 1.397 . S
C312 H336 0.931 . S
C313 C312 1.386 . S
C313 C317 1.397 . S
C314 C312 1.397 . S
C314 C315 1.384 . S
C314 H337 0.930 . S
C315 C314 1.384 . S
C315 C316 1.377 . S
C315 C318 1.481 . S
C316 C315 1.377 . S
C316 C317 1.389 . S
C316 H338 0.929 . S
C317 C313 1.397 . S
C317 C316 1.389 . S
C317 H339 0.931 . S
C318 C315 1.481 . S
C318 C319 1.387 . S
C318 C323 1.390 . S
C319 C318 1.387 . S
C319 C320 1.401 . S
C319 H340 0.930 . S
C320 C319 1.401 . S
C320 C321 1.376 . S
C320 C329 1.511 . S
C321 C320 1.376 . S
C321 C322 1.392 . S
C321 H342 0.931 . S
C322 C321 1.392 . S
C322 C323 1.361 . S
C322 C324 1.500 . S
C323 C318 1.390 . S
C323 C322 1.361 . S
C323 H341 0.931 . S
C324 C322 1.500 . S
C324 C325 1.371 . S
C324 C326 1.365 . S
C325 C324 1.371 . S
C325 C335 1.386 . S
C325 H343 0.931 . S
C326 C324 1.365 . S
C326 C327 1.409 . S
C326 H344 0.929 . S
C327 C326 1.409 . S
C327 C328 1.380 . S
C327 H345 0.930 . S
C328 C327 1.380 . S
C328 C335 1.357 . S
C329 C320 1.511 . S
C329 C330 1.341 . S
C329 C331 1.371 . S
C330 C329 1.341 . S
C330 C334 1.394 . S
C330 H346 0.930 . S
C331 C329 1.371 . S
C331 C332 1.392 . S
C331 H347 0.931 . S
C332 C331 1.392 . S
C332 C333 1.331 . S
C332 H350 0.932 . S
C333 C332 1.331 . S
C333 C334 1.336 . S
C334 C330 1.394 . S
C334 C333 1.336 . S
C334 H349 0.929 . S
C335 C325 1.386 . S
C335 C328 1.357 . S
C335 H348 0.928 . S
H336 C312 0.931 . S
H337 C314 0.930 . S
H338 C316 0.929 . S
H339 C317 0.931 . S
H340 C319 0.930 . S
H341 C323 0.931 . S
H342 C321 0.931 . S
H343 C325 0.931 . S
H344 C326 0.929 . S
H345 C327 0.930 . S
H346 C330 0.930 . S
H347 C331 0.931 . S
H348 C335 0.928 . S
H349 C334 0.929 . S
H350 C332 0.932 . S
C351 C352 1.386 . S
C351 C353 1.397 . S
C351 H375 0.931 . S
C352 C351 1.386 . S
C352 C356 1.397 . S
C353 C351 1.397 . S
C353 C354 1.384 . S
C353 H376 0.930 . S
C354 C353 1.384 . S
C354 C355 1.377 . S
C354 C357 1.481 . S
C355 C354 1.377 . S
C355 C356 1.389 . S
C355 H377 0.929 . S
C356 C352 1.397 . S
C356 C355 1.389 . S
C356 H378 0.931 . S
C357 C354 1.481 . S
C357 C358 1.387 . S
C357 C362 1.390 . S
C358 C357 1.387 . S
C358 C359 1.401 . S
C358 H379 0.930 . S
C359 C358 1.401 . S
C359 C360 1.376 . S
C359 C368 1.511 . S
C360 C359 1.376 . S
C360 C361 1.392 . S
C360 H381 0.931 . S
C361 C360 1.392 . S
C361 C362 1.361 . S
C361 C363 1.500 . S
C362 C357 1.390 . S
C362 C361 1.361 . S
C362 H380 0.931 . S
C363 C361 1.500 . S
C363 C364 1.371 . S
C363 C365 1.365 . S
C364 C363 1.371 . S
C364 C374 1.386 . S
C364 H382 0.931 . S
C365 C363 1.365 . S
C365 C366 1.409 . S
C365 H383 0.929 . S
C366 C365 1.409 . S
C366 C367 1.380 . S
C366 H384 0.930 . S
C367 C366 1.380 . S
C367 C374 1.357 . S
C368 C359 1.511 . S
C368 C369 1.341 1_565 S
C368 C370 1.371 . S
C369 C368 1.341 1_545 S
C369 C373 1.394 . S
C369 H385 0.930 . S
C370 C368 1.371 . S
C370 C371 1.392 1_565 S
C370 H386 0.931 . S
C371 C370 1.392 1_545 S
C371 C372 1.331 . S
C371 H389 0.932 . S
C372 C371 1.331 . S
C372 C373 1.336 . S
C373 C369 1.394 . S
C373 C372 1.336 . S
C373 H388 0.929 . S
C374 C364 1.386 . S
C374 C367 1.357 . S
C374 H387 0.928 . S
H375 C351 0.931 . S
H376 C353 0.930 . S
H377 C355 0.929 . S
H378 C356 0.931 . S
H379 C358 0.930 . S
H380 C362 0.931 . S
H381 C360 0.931 . S
H382 C364 0.931 . S
H383 C365 0.929 . S
H384 C366 0.930 . S
H385 C369 0.930 . S
H386 C370 0.931 . S
H387 C374 0.928 . S
H388 C373 0.929 . S
H389 C371 0.932 . S
C390 C391 1.386 . S
C390 C392 1.397 . S
C390 H414 0.931 . S
C391 C390 1.386 . S
C391 C395 1.397 . S
C392 C390 1.397 . S
C392 C393 1.384 . S
C392 H415 0.930 . S
C393 C392 1.384 . S
C393 C394 1.377 . S
C393 C396 1.481 . S
C394 C393 1.377 . S
C394 C395 1.389 . S
C394 H416 0.929 . S
C395 C391 1.397 . S
C395 C394 1.389 . S
C395 H417 0.931 . S
C396 C393 1.481 . S
C396 C397 1.387 . S
C396 C401 1.390 . S
C397 C396 1.387 . S
C397 C398 1.401 . S
C397 H418 0.930 . S
C398 C397 1.401 . S
C398 C399 1.376 . S
C398 C407 1.511 . S
C399 C398 1.376 . S
C399 C400 1.392 . S
C399 H420 0.931 . S
C400 C399 1.392 . S
C400 C401 1.361 . S
C400 C402 1.500 . S
C401 C396 1.390 . S
C401 C400 1.361 . S
C401 H419 0.931 . S
C402 C400 1.500 . S
C402 C403 1.371 . S
C402 C404 1.365 . S
C403 C402 1.371 . S
C403 C413 1.386 . S
C403 H421 0.931 . S
C404 C402 1.365 . S
C404 C405 1.409 . S
C404 H422 0.929 . S
C405 C404 1.409 . S
C405 C406 1.380 . S
C405 H423 0.930 . S
C406 C405 1.380 . S
C406 C413 1.357 . S
C407 C398 1.511 . S
C407 C408 1.341 . S
C407 C409 1.371 . S
C408 C407 1.341 . S
C408 C412 1.394 . S
C408 H424 0.930 . S
C409 C407 1.371 . S
C409 C410 1.392 . S
C409 H425 0.931 . S
C410 C409 1.392 . S
C410 C411 1.331 . S
C410 H428 0.932 . S
C411 C410 1.331 . S
C411 C412 1.336 . S
C412 C408 1.394 . S
C412 C411 1.336 . S
C412 H427 0.929 . S
C413 C403 1.386 . S
C413 C406 1.357 . S
C413 H426 0.928 . S
H414 C390 0.931 . S
H415 C392 0.930 . S
H416 C394 0.929 . S
H417 C395 0.931 . S
H418 C397 0.930 . S
H419 C401 0.931 . S
H420 C399 0.931 . S
H421 C403 0.931 . S
H422 C404 0.929 . S
H423 C405 0.930 . S
H424 C408 0.930 . S
H425 C409 0.931 . S
H426 C413 0.928 . S
H427 C412 0.929 . S
H428 C410 0.932 . S
C429 C430 1.386 . S
C429 C431 1.397 . S
C429 H453 0.931 . S
C430 C429 1.386 . S
C430 C434 1.397 . S
C431 C429 1.397 . S
C431 C432 1.384 . S
C431 H454 0.930 . S
C432 C431 1.384 . S
C432 C433 1.377 . S
C432 C435 1.481 . S
C433 C432 1.377 . S
C433 C434 1.389 . S
C433 H455 0.929 . S
C434 C430 1.397 . S
C434 C433 1.389 . S
C434 H456 0.931 . S
C435 C432 1.481 . S
C435 C436 1.387 . S
C435 C440 1.390 . S
C436 C435 1.387 . S
C436 C437 1.401 . S
C436 H457 0.930 . S
C437 C436 1.401 . S
C437 C438 1.376 . S
C437 C446 1.511 . S
C438 C437 1.376 . S
C438 C439 1.392 . S
C438 H459 0.931 . S
C439 C438 1.392 . S
C439 C440 1.361 . S
C439 C441 1.500 . S
C440 C435 1.390 . S
C440 C439 1.361 . S
C440 H458 0.931 . S
C441 C439 1.500 . S
C441 C442 1.371 . S
C441 C443 1.365 . S
C442 C441 1.371 . S
C442 C452 1.386 . S
C442 H460 0.931 . S
C443 C441 1.365 . S
C443 C444 1.409 . S
C443 H461 0.929 . S
C444 C443 1.409 . S
C444 C445 1.380 . S
C444 H462 0.930 . S
C445 C444 1.380 . S
C445 C452 1.357 . S
C446 C437 1.511 . S
C446 C447 1.341 . S
C446 C448 1.371 . S
C447 C446 1.341 . S
C447 C451 1.394 . S
C447 H463 0.930 . S
C448 C446 1.371 . S
C448 C449 1.392 . S
C448 H464 0.931 . S
C449 C448 1.392 . S
C449 C450 1.331 . S
C449 H467 0.932 . S
C450 C449 1.331 . S
C450 C451 1.336 . S
C451 C447 1.394 . S
C451 C450 1.336 . S
C451 H466 0.929 . S
C452 C442 1.386 . S
C452 C445 1.357 . S
C452 H465 0.928 . S
H453 C429 0.931 . S
H454 C431 0.930 . S
H455 C433 0.929 . S
H456 C434 0.931 . S
H457 C436 0.930 . S
H458 C440 0.931 . S
H459 C438 0.931 . S
H460 C442 0.931 . S
H461 C443 0.929 . S
H462 C444 0.930 . S
H463 C447 0.930 . S
H464 C448 0.931 . S
H465 C452 0.928 . S
H466 C451 0.929 . S
H467 C449 0.932 . S
C468 C469 1.386 . S
C468 C470 1.397 . S
C468 H492 0.931 . S
C469 C468 1.386 . S
C469 C473 1.397 . S
C470 C468 1.397 . S
C470 C471 1.384 . S
C470 H493 0.930 . S
C471 C470 1.384 . S
C471 C472 1.377 . S
C471 C474 1.481 . S
C472 C471 1.377 . S
C472 C473 1.389 . S
C472 H494 0.929 . S
C473 C469 1.397 . S
C473 C472 1.389 . S
C473 H495 0.931 . S
C474 C471 1.481 . S
C474 C475 1.387 . S
C474 C479 1.390 . S
C475 C474 1.387 . S
C475 C476 1.401 . S
C475 H496 0.930 . S
C476 C475 1.401 . S
C476 C477 1.376 . S
C476 C485 1.511 . S
C477 C476 1.376 . S
C477 C478 1.392 . S
C477 H498 0.931 . S
C478 C477 1.392 . S
C478 C479 1.361 . S
C478 C480 1.500 . S
C479 C474 1.390 . S
C479 C478 1.361 . S
C479 H497 0.931 . S
C480 C478 1.500 . S
C480 C481 1.371 . S
C480 C482 1.365 . S
C481 C480 1.371 . S
C481 C491 1.386 . S
C481 H499 0.931 . S
C482 C480 1.365 . S
C482 C483 1.409 . S
C482 H500 0.929 . S
C483 C482 1.409 . S
C483 C484 1.380 . S
C483 H501 0.930 . S
C484 C483 1.380 . S
C484 C491 1.357 . S
C485 C476 1.511 . S
C485 C486 1.341 . S
C485 C487 1.371 . S
C486 C485 1.341 . S
C486 C490 1.394 . S
C486 H502 0.930 . S
C487 C485 1.371 . S
C487 C488 1.392 . S
C487 H503 0.931 . S
C488 C487 1.392 . S
C488 C489 1.331 . S
C488 H506 0.932 . S
C489 C488 1.331 . S
C489 C490 1.336 . S
C490 C486 1.394 . S
C490 C489 1.336 . S
C490 H505 0.929 . S
C491 C481 1.386 . S
C491 C484 1.357 . S
C491 H504 0.928 . S
H492 C468 0.931 . S
H493 C470 0.930 . S
H494 C472 0.929 . S
H495 C473 0.931 . S
H496 C475 0.930 . S
H497 C479 0.931 . S
H498 C477 0.931 . S
H499 C481 0.931 . S
H500 C482 0.929 . S
H501 C483 0.930 . S
H502 C486 0.930 . S
H503 C487 0.931 . S
H504 C491 0.928 . S
H505 C490 0.929 . S
H506 C488 0.932 . S
C507 C508 1.386 . S
C507 C509 1.397 . S
C507 H531 0.931 . S
C508 C507 1.386 . S
C508 C512 1.397 . S
C509 C507 1.397 . S
C509 C510 1.384 . S
C509 H532 0.930 . S
C510 C509 1.384 . S
C510 C511 1.377 . S
C510 C513 1.481 . S
C511 C510 1.377 . S
C511 C512 1.389 . S
C511 H533 0.929 . S
C512 C508 1.397 . S
C512 C511 1.389 . S
C512 H534 0.931 . S
C513 C510 1.481 . S
C513 C514 1.387 . S
C513 C518 1.390 . S
C514 C513 1.387 . S
C514 C515 1.401 . S
C514 H535 0.930 . S
C515 C514 1.401 . S
C515 C516 1.376 . S
C515 C524 1.511 . S
C516 C515 1.376 . S
C516 C517 1.392 . S
C516 H537 0.931 . S
C517 C516 1.392 . S
C517 C518 1.361 . S
C517 C519 1.500 . S
C518 C513 1.390 . S
C518 C517 1.361 . S
C518 H536 0.931 . S
C519 C517 1.500 . S
C519 C520 1.371 . S
C519 C521 1.365 . S
C520 C519 1.371 . S
C520 C530 1.386 . S
C520 H538 0.931 1_556 S
C521 C519 1.365 . S
C521 C522 1.409 . S
C521 H539 0.929 . S
C522 C521 1.409 . S
C522 C523 1.380 . S
C522 H540 0.930 . S
C523 C522 1.380 . S
C523 C530 1.357 . S
C524 C515 1.511 . S
C524 C525 1.341 . S
C524 C526 1.371 1_556 S
C525 C524 1.341 . S
C525 C529 1.394 1_556 S
C525 H541 0.930 . S
C526 C524 1.371 1_554 S
C526 C527 1.392 . S
C526 H542 0.931 . S
C527 C526 1.392 . S
C527 C528 1.331 . S
C527 H545 0.932 . S
C528 C527 1.331 . S
C528 C529 1.336 . S
C529 C525 1.394 1_554 S
C529 C528 1.336 . S
C529 H544 0.929 . S
C530 C520 1.386 . S
C530 C523 1.357 . S
C530 H543 0.928 1_556 S
H531 C507 0.931 . S
H532 C509 0.930 . S
H533 C511 0.929 . S
H534 C512 0.931 . S
H535 C514 0.930 . S
H536 C518 0.931 . S
H537 C516 0.931 . S
H538 C520 0.931 1_554 S
H539 C521 0.929 . S
H540 C522 0.930 . S
H541 C525 0.930 . S
H542 C526 0.931 . S
H543 C530 0.928 1_554 S
H544 C529 0.929 . S
H545 C527 0.932 . S
C546 C547 1.386 . S
C546 C548 1.397 . S
C546 H570 0.931 . S
C547 C546 1.386 . S
C547 C551 1.397 . S
C548 C546 1.397 . S
C548 C549 1.384 . S
C548 H571 0.930 . S
C549 C548 1.384 . S
C549 C550 1.377 . S
C549 C552 1.481 . S
C550 C549 1.377 . S
C550 C551 1.389 . S
C550 H572 0.929 . S
C551 C547 1.397 . S
C551 C550 1.389 . S
C551 H573 0.931 . S
C552 C549 1.481 . S
C552 C553 1.387 . S
C552 C557 1.390 . S
C553 C552 1.387 . S
C553 C554 1.401 . S
C553 H574 0.930 . S
C554 C553 1.401 . S
C554 C555 1.376 . S
C554 C563 1.511 . S
C555 C554 1.376 . S
C555 C556 1.392 . S
C555 H576 0.931 . S
C556 C555 1.392 . S
C556 C557 1.361 . S
C556 C558 1.500 . S
C557 C552 1.390 . S
C557 C556 1.361 . S
C557 H575 0.931 . S
C558 C556 1.500 . S
C558 C559 1.371 . S
C558 C560 1.365 . S
C559 C558 1.371 . S
C559 C569 1.386 . S
C559 H577 0.931 . S
C560 C558 1.365 . S
C560 C561 1.409 . S
C560 H578 0.929 . S
C561 C560 1.409 . S
C561 C562 1.380 . S
C561 H579 0.930 . S
C562 C561 1.380 . S
C562 C569 1.357 . S
C563 C554 1.511 . S
C563 C564 1.341 . S
C563 C565 1.371 . S
C564 C563 1.341 . S
C564 C568 1.394 . S
C564 H580 0.930 . S
C565 C563 1.371 . S
C565 C566 1.392 . S
C565 H581 0.931 . S
C566 C565 1.392 . S
C566 C567 1.331 . S
C566 H584 0.932 . S
C567 C566 1.331 . S
C567 C568 1.336 . S
C568 C564 1.394 . S
C568 C567 1.336 . S
C568 H583 0.929 . S
C569 C559 1.386 . S
C569 C562 1.357 . S
C569 H582 0.928 . S
H570 C546 0.931 . S
H571 C548 0.930 . S
H572 C550 0.929 . S
H573 C551 0.931 . S
H574 C553 0.930 . S
H575 C557 0.931 . S
H576 C555 0.931 . S
H577 C559 0.931 . S
H578 C560 0.929 . S
H579 C561 0.930 . S
H580 C564 0.930 . S
H581 C565 0.931 . S
H582 C569 0.928 . S
H583 C568 0.929 . S
H584 C566 0.932 . S
C585 C586 1.386 1_556 S
C585 C587 1.397 . S
C585 H609 0.931 . S
C586 C585 1.386 1_554 S
C586 C590 1.397 . S
C587 C585 1.397 . S
C587 C588 1.384 . S
C587 H610 0.930 . S
C588 C587 1.384 . S
C588 C589 1.377 1_556 S
C588 C591 1.481 . S
C589 C588 1.377 1_554 S
C589 C590 1.389 . S
C589 H611 0.929 . S
C590 C586 1.397 . S
C590 C589 1.389 . S
C590 H612 0.931 . S
C591 C588 1.481 . S
C591 C592 1.387 . S
C591 C596 1.390 . S
C592 C591 1.387 . S
C592 C593 1.401 . S
C592 H613 0.930 . S
C593 C592 1.401 . S
C593 C594 1.376 . S
C593 C602 1.511 . S
C594 C593 1.376 . S
C594 C595 1.392 . S
C594 H615 0.931 . S
C595 C594 1.392 . S
C595 C596 1.361 . S
C595 C597 1.500 . S
C596 C591 1.390 . S
C596 C595 1.361 . S
C596 H614 0.931 . S
C597 C595 1.500 . S
C597 C598 1.371 . S
C597 C599 1.365 . S
C598 C597 1.371 . S
C598 C608 1.386 1_545 S
C598 H616 0.931 . S
C599 C597 1.365 . S
C599 C600 1.398 1_545 S
C599 H617 0.929 . S
C600 C599 1.398 1_565 S
C600 C601 1.389 . S
C600 H618 0.932 1_556 S
C601 C600 1.389 . S
C601 C608 1.357 . S
C602 C593 1.511 . S
C602 C603 1.341 . S
C602 C604 1.371 . S
C603 C602 1.341 . S
C603 C607 1.394 . S
C603 H619 0.930 . S
C604 C602 1.371 . S
C604 C605 1.392 . S
C604 H620 0.931 . S
C605 C604 1.392 . S
C605 C606 1.331 . S
C605 H623 0.932 . S
C606 C605 1.331 . S
C606 C607 1.336 . S
C607 C603 1.394 . S
C607 C606 1.336 . S
C607 H622 0.929 . S
C608 C598 1.386 1_565 S
C608 C601 1.357 . S
C608 H621 0.928 . S
H609 C585 0.931 . S
H610 C587 0.930 . S
H611 C589 0.929 . S
H612 C590 0.931 . S
H613 C592 0.930 . S
H614 C596 0.931 . S
H615 C594 0.931 . S
H616 C598 0.931 . S
H617 C599 0.929 . S
H618 C600 0.932 1_554 S
H619 C603 0.930 . S
H620 C604 0.931 . S
H621 C608 0.928 . S
H622 C607 0.929 . S
H623 C605 0.932 . S
Zn624 O627 2.031 1_556 S
Zn624 O629 2.050 . S
Zn624 O634 2.068 . S
Zn625 O626 1.962 . S
Zn625 O628 1.986 . S
Zn625 O630 1.996 . S
Zn625 O633 1.943 1_554 S
O626 Zn625 1.962 . S
O626 C631 1.254 . S
O627 Zn624 2.031 1_554 S
O627 C631 1.269 . S
O628 Zn625 1.986 . S
O628 C635 1.262 . S
O629 Zn624 2.050 . S
O629 C637 1.260 . S
O630 Zn625 1.996 . S
O630 C637 1.257 1_554 S
C631 O626 1.254 . S
C631 O627 1.269 . S
C632 O633 1.249 . S
C632 O634 1.270 . S
O633 Zn625 1.943 1_556 S
O633 C632 1.249 . S
O634 Zn624 2.068 . S
O634 C632 1.270 . S
C635 O628 1.262 . S
C635 O636 1.232 . S
O636 C635 1.232 . S
C637 O629 1.260 . S
C637 O630 1.257 1_556 S
Zn638 O641 2.031 . S
Zn638 O643 2.049 . S
Zn638 O648 2.067 . S
Zn639 O640 1.962 . S
Zn639 O642 1.986 . S
Zn639 O644 1.996 . S
Zn639 O647 1.943 . S
O640 Zn639 1.962 . S
O640 C645 1.254 . S
O641 Zn638 2.031 . S
O641 C645 1.269 . S
O642 Zn639 1.986 . S
O642 C649 1.262 . S
O643 Zn638 2.049 . S
O643 C651 1.260 . S
O644 Zn639 1.996 . S
O644 C651 1.257 . S
C645 O640 1.254 . S
C645 O641 1.269 . S
C646 O647 1.249 . S
C646 O648 1.270 . S
O647 Zn639 1.943 . S
O647 C646 1.249 . S
O648 Zn638 2.067 . S
O648 C646 1.270 . S
C649 O642 1.262 . S
C649 O650 1.232 . S
O650 C649 1.232 . S
C651 O643 1.260 . S
C651 O644 1.257 . S
Zn652 O655 2.031 . S
Zn652 O657 2.049 . S
Zn652 O662 2.067 . S
Zn653 O654 1.962 . S
Zn653 O656 1.986 . S
Zn653 O658 1.996 1_554 S
Zn653 O661 1.943 . S
O654 Zn653 1.962 . S
O654 C659 1.254 . S
O655 Zn652 2.031 . S
O655 C659 1.269 1_556 S
O656 Zn653 1.986 . S
O656 C663 1.262 . S
O657 Zn652 2.049 . S
O657 C665 1.260 . S
O658 Zn653 1.996 1_556 S
O658 C665 1.257 . S
C659 O654 1.254 . S
C659 O655 1.269 1_554 S
C660 O661 1.249 1_556 S
C660 O662 1.270 . S
O661 Zn653 1.943 . S
O661 C660 1.249 1_554 S
O662 Zn652 2.067 . S
O662 C660 1.270 . S
C663 O656 1.262 . S
C663 O664 1.232 . S
O664 C663 1.232 . S
C665 O657 1.260 . S
C665 O658 1.257 . S
Zn666 O669 2.034 . S
Zn666 O671 2.048 1_545 S
Zn666 O676 2.064 1_545 S
Zn667 O668 1.962 . S
Zn667 O670 1.986 . S
Zn667 O672 1.996 . S
Zn667 O675 1.943 1_545 S
O668 Zn667 1.962 . S
O668 C673 1.254 . S
O669 Zn666 2.034 . S
O669 C673 1.269 . S
O670 Zn667 1.986 . S
O670 C677 1.262 . S
O671 Zn666 2.048 1_565 S
O671 C679 1.260 . S
O672 Zn667 1.996 . S
O672 C679 1.257 1_545 S
C673 O668 1.254 . S
C673 O669 1.269 . S
C674 O675 1.249 . S
C674 O676 1.270 . S
O675 Zn667 1.943 1_565 S
O675 C674 1.249 . S
O676 Zn666 2.064 1_565 S
O676 C674 1.270 . S
C677 O670 1.262 . S
C677 O678 1.232 . S
O678 C677 1.232 . S
C679 O671 1.260 . S
C679 O672 1.257 1_565 S
Zn680 O683 2.031 . S
Zn680 O685 2.049 . S
Zn680 O690 2.067 . S
Zn681 O682 1.962 . S
Zn681 O684 1.986 . S
Zn681 O686 1.996 . S
Zn681 O689 1.943 . S
O682 Zn681 1.962 . S
O682 C687 1.254 . S
O683 Zn680 2.031 . S
O683 C687 1.269 . S
O684 Zn681 1.986 . S
O684 C691 1.262 . S
O685 Zn680 2.049 . S
O685 C693 1.260 . S
O686 Zn681 1.996 . S
O686 C693 1.257 . S
C687 O682 1.254 . S
C687 O683 1.269 . S
C688 O689 1.249 . S
C688 O690 1.270 . S
O689 Zn681 1.943 . S
O689 C688 1.249 . S
O690 Zn680 2.067 . S
O690 C688 1.270 . S
C691 O684 1.262 . S
C691 O692 1.232 . S
O692 C691 1.232 . S
C693 O685 1.260 . S
C693 O686 1.257 . S
Zn694 O697 2.031 . S
Zn694 O699 2.049 . S
Zn694 O704 2.067 . S
Zn695 O696 1.962 . S
Zn695 O698 1.986 . S
Zn695 O700 1.996 . S
Zn695 O703 1.943 . S
O696 Zn695 1.962 . S
O696 C701 1.254 . S
O697 Zn694 2.031 . S
O697 C701 1.269 . S
O698 Zn695 1.986 . S
O698 C705 1.262 . S
O699 Zn694 2.049 . S
O699 C707 1.260 . S
O700 Zn695 1.996 . S
O700 C707 1.257 . S
C701 O696 1.254 . S
C701 O697 1.269 . S
C702 O703 1.249 . S
C702 O704 1.270 . S
O703 Zn695 1.943 . S
O703 C702 1.249 . S
O704 Zn694 2.067 . S
O704 C702 1.270 . S
C705 O698 1.262 . S
C705 O706 1.232 . S
O706 C705 1.232 . S
C707 O699 1.260 . S
C707 O700 1.257 . S
Zn708 O711 2.031 . S
Zn708 O713 2.049 . S
Zn708 O718 2.067 . S
Zn709 O710 1.962 . S
Zn709 O712 1.986 . S
Zn709 O714 1.996 . S
Zn709 O717 1.943 . S
O710 Zn709 1.962 . S
O710 C715 1.254 . S
O711 Zn708 2.031 . S
O711 C715 1.269 . S
O712 Zn709 1.986 . S
O712 C719 1.262 . S
O713 Zn708 2.049 . S
O713 C721 1.260 . S
O714 Zn709 1.996 . S
O714 C721 1.257 . S
C715 O710 1.254 . S
C715 O711 1.269 . S
C716 O717 1.249 . S
C716 O718 1.270 . S
O717 Zn709 1.943 . S
O717 C716 1.249 . S
O718 Zn708 2.067 . S
O718 C716 1.270 . S
C719 O712 1.262 . S
C719 O720 1.232 . S
O720 C719 1.232 . S
C721 O713 1.260 . S
C721 O714 1.257 . S
Zn722 O725 2.031 . S
Zn722 O727 2.049 . S
Zn722 O732 2.067 . S
Zn723 O724 1.962 . S
Zn723 O726 1.986 . S
Zn723 O728 1.996 1_545 S
Zn723 O731 1.943 . S
O724 Zn723 1.962 . S
O724 C729 1.254 . S
O725 Zn722 2.031 . S
O725 C729 1.269 1_565 S
O726 Zn723 1.986 . S
O726 C733 1.262 . S
O727 Zn722 2.049 . S
O727 C735 1.260 . S
O728 Zn723 1.996 1_565 S
O728 C735 1.257 . S
C729 O724 1.254 . S
C729 O725 1.269 1_545 S
C730 O731 1.249 1_565 S
C730 O732 1.270 . S
O731 Zn723 1.943 . S
O731 C730 1.249 1_545 S
O732 Zn722 2.067 . S
O732 C730 1.270 . S
C733 O726 1.262 . S
C733 O734 1.232 . S
O734 C733 1.232 . S
C735 O727 1.260 . S
C735 O728 1.257 . S
Zn736 O739 2.016 1_655 S
Zn736 O741 2.061 . S
Zn736 O746 2.089 . S
Zn737 O738 1.962 . S
Zn737 O740 1.986 . S
Zn737 O742 1.996 . S
Zn737 O745 1.943 1_455 S
O738 Zn737 1.962 . S
O738 C743 1.254 . S
O739 Zn736 2.016 1_455 S
O739 C743 1.269 . S
O740 Zn737 1.986 . S
O740 C747 1.262 . S
O741 Zn736 2.061 . S
O741 C749 1.260 . S
O742 Zn737 1.996 . S
O742 C749 1.257 1_455 S
C743 O738 1.254 . S
C743 O739 1.269 . S
C744 O745 1.249 . S
C744 O746 1.270 . S
O745 Zn737 1.943 1_655 S
O745 C744 1.249 . S
O746 Zn736 2.089 . S
O746 C744 1.270 . S
C747 O740 1.262 . S
C747 O748 1.232 . S
O748 C747 1.232 . S
C749 O741 1.260 . S
C749 O742 1.257 1_655 S
Zn750 O753 2.031 . S
Zn750 O755 2.049 . S
Zn750 O760 2.067 . S
Zn751 O752 1.962 . S
Zn751 O754 1.986 . S
Zn751 O756 1.996 . S
Zn751 O759 1.943 . S
O752 Zn751 1.962 . S
O752 C757 1.254 . S
O753 Zn750 2.031 . S
O753 C757 1.269 . S
O754 Zn751 1.986 . S
O754 C761 1.262 . S
O755 Zn750 2.049 . S
O755 C763 1.260 . S
O756 Zn751 1.996 . S
O756 C763 1.257 . S
C757 O752 1.254 . S
C757 O753 1.269 . S
C758 O759 1.249 . S
C758 O760 1.270 . S
O759 Zn751 1.943 . S
O759 C758 1.249 . S
O760 Zn750 2.067 . S
O760 C758 1.270 . S
C761 O754 1.262 . S
C761 O762 1.232 . S
O762 C761 1.232 . S
C763 O755 1.260 . S
C763 O756 1.257 . S
Zn764 O767 2.031 . S
Zn764 O769 2.049 . S
Zn764 O774 2.067 . S
Zn765 O766 1.962 . S
Zn765 O768 1.986 . S
Zn765 O770 1.996 1_455 S
Zn765 O773 1.943 . S
O766 Zn765 1.962 . S
O766 C771 1.254 . S
O767 Zn764 2.031 . S
O767 C771 1.269 1_655 S
O768 Zn765 1.986 . S
O768 C775 1.262 . S
O769 Zn764 2.049 . S
O769 C777 1.260 . S
O770 Zn765 1.996 1_655 S
O770 C777 1.257 . S
C771 O766 1.254 . S
C771 O767 1.269 1_455 S
C772 O773 1.249 1_655 S
C772 O774 1.270 . S
O773 Zn765 1.943 . S
O773 C772 1.249 1_455 S
O774 Zn764 2.067 . S
O774 C772 1.270 . S
C775 O768 1.262 . S
C775 O776 1.232 . S
O776 C775 1.232 . S
C777 O769 1.260 . S
C777 O770 1.257 . S
Zn778 O781 2.031 . S
Zn778 O783 2.049 . S
Zn778 O788 2.067 . S
Zn779 O780 1.962 . S
Zn779 O782 1.986 . S
Zn779 O784 1.996 . S
Zn779 O787 1.943 . S
O780 Zn779 1.962 . S
O780 C785 1.254 . S
O781 Zn778 2.031 . S
O781 C785 1.269 . S
O782 Zn779 1.986 . S
O782 C789 1.262 . S
O783 Zn778 2.049 . S
O783 C791 1.260 . S
O784 Zn779 1.996 . S
O784 C791 1.257 . S
C785 O780 1.254 . S
C785 O781 1.269 . S
C786 O787 1.249 . S
C786 O788 1.270 . S
O787 Zn779 1.943 . S
O787 C786 1.249 . S
O788 Zn778 2.067 . S
O788 C786 1.270 . S
C789 O782 1.262 . S
C789 O790 1.232 . S
O790 C789 1.232 . S
C791 O783 1.260 . S
C791 O784 1.257 . S
C792 C793 1.363 . S
C792 C798 1.379 . S
C792 N800 1.356 . S
C793 C792 1.363 . S
C793 C799 1.363 . S
C794 C795 1.363 . S
C794 C799 1.379 . S
C794 N801 1.356 . S
C795 C794 1.363 . S
C795 C798 1.363 . S
N796 C798 1.356 . S
N796 H808 0.984 . S
N796 H809 0.985 . S
N797 C799 1.356 . S
N797 H802 0.984 . S
N797 H803 0.985 . S
C798 C792 1.379 . S
C798 C795 1.363 . S
C798 N796 1.356 . S
C799 C793 1.363 . S
C799 C794 1.379 . S
C799 N797 1.356 . S
N800 C792 1.356 . S
N800 H806 0.984 . S
N800 H807 0.984 . S
N801 C794 1.356 . S
N801 H804 0.984 . S
N801 H805 0.985 . S
H802 N797 0.984 . S
H803 N797 0.985 . S
H804 N801 0.984 . S
H805 N801 0.985 . S
H806 N800 0.984 . S
H807 N800 0.984 . S
H808 N796 0.984 . S
H809 N796 0.985 . S
C810 C811 1.363 . S
C810 C816 1.379 . S
C810 N818 1.356 . S
C811 C810 1.363 . S
C811 C817 1.363 . S
C812 C813 1.363 . S
C812 C817 1.379 . S
C812 N819 1.356 . S
C813 C812 1.363 . S
C813 C816 1.363 . S
N814 C816 1.356 . S
N814 H826 0.984 . S
N814 H827 0.985 . S
N815 C817 1.356 . S
N815 H820 0.984 . S
N815 H821 0.985 . S
C816 C810 1.379 . S
C816 C813 1.363 . S
C816 N814 1.356 . S
C817 C811 1.363 . S
C817 C812 1.379 . S
C817 N815 1.356 . S
N818 C810 1.356 . S
N818 H824 0.984 . S
N818 H825 0.984 . S
N819 C812 1.356 . S
N819 H822 0.984 . S
N819 H823 0.985 . S
H820 N815 0.984 . S
H821 N815 0.985 . S
H822 N819 0.984 . S
H823 N819 0.985 . S
H824 N818 0.984 . S
H825 N818 0.984 . S
H826 N814 0.984 . S
H827 N814 0.985 . S
C828 C829 1.363 . S
C828 C834 1.379 . S
C828 N836 1.356 . S
C829 C828 1.363 . S
C829 C835 1.363 . S
C830 C831 1.363 . S
C830 C835 1.379 . S
C830 N837 1.356 . S
C831 C830 1.363 . S
C831 C834 1.363 . S
N832 C834 1.356 . S
N832 H844 0.984 . S
N832 H845 0.985 . S
N833 C835 1.356 . S
N833 H838 0.984 . S
N833 H839 0.985 . S
C834 C828 1.379 . S
C834 C831 1.363 . S
C834 N832 1.356 . S
C835 C829 1.363 . S
C835 C830 1.379 . S
C835 N833 1.356 . S
N836 C828 1.356 . S
N836 H842 0.984 . S
N836 H843 0.984 . S
N837 C830 1.356 . S
N837 H840 0.984 . S
N837 H841 0.985 . S
H838 N833 0.984 . S
H839 N833 0.985 . S
H840 N837 0.984 . S
H841 N837 0.985 . S
H842 N836 0.984 . S
H843 N836 0.984 . S
H844 N832 0.984 . S
H845 N832 0.985 . S
C846 C847 1.363 . S
C846 C852 1.379 . S
C846 N854 1.356 . S
C847 C846 1.363 . S
C847 C853 1.363 . S
C848 C849 1.363 . S
C848 C853 1.379 . S
C848 N855 1.356 1_565 S
C849 C848 1.363 . S
C849 C852 1.363 . S
N850 C852 1.356 . S
N850 H862 0.984 . S
N850 H863 0.985 . S
N851 C853 1.366 . S
N851 H856 1.001 . S
N851 H857 0.959 1_565 S
C852 C846 1.379 . S
C852 C849 1.363 . S
C852 N850 1.356 . S
C853 C847 1.363 . S
C853 C848 1.379 . S
C853 N851 1.366 . S
N854 C846 1.356 . S
N854 H860 0.984 . S
N854 H861 0.984 . S
N855 C848 1.356 1_545 S
N855 H858 0.984 . S
N855 H859 0.985 . S
H856 N851 1.001 . S
H857 N851 0.959 1_545 S
H858 N855 0.984 . S
H859 N855 0.985 . S
H860 N854 0.984 . S
H861 N854 0.984 . S
H862 N850 0.984 . S
H863 N850 0.985 . S
C864 C865 1.363 . S
C864 C870 1.379 . S
C864 N872 1.356 . S
C865 C864 1.363 . S
C865 C871 1.363 . S
C866 C867 1.363 . S
C866 C871 1.379 . S
C866 N873 1.356 . S
C867 C866 1.363 . S
C867 C870 1.363 . S
N868 C870 1.356 . S
N868 H880 0.984 . S
N868 H881 0.985 . S
N869 C871 1.356 . S
N869 H874 0.984 . S
N869 H875 0.985 . S
C870 C864 1.379 . S
C870 C867 1.363 . S
C870 N868 1.356 . S
C871 C865 1.363 . S
C871 C866 1.379 . S
C871 N869 1.356 . S
N872 C864 1.356 . S
N872 H878 0.984 . S
N872 H879 0.984 . S
N873 C866 1.356 . S
N873 H876 0.984 . S
N873 H877 0.985 . S
H874 N869 0.984 . S
H875 N869 0.985 . S
H876 N873 0.984 . S
H877 N873 0.985 . S
H878 N872 0.984 . S
H879 N872 0.984 . S
H880 N868 0.984 . S
H881 N868 0.985 . S
C882 C883 1.363 . S
C882 C888 1.379 . S
C882 N890 1.356 . S
C883 C882 1.363 . S
C883 C889 1.363 . S
C884 C885 1.363 . S
C884 C889 1.379 . S
C884 N891 1.356 . S
C885 C884 1.363 . S
C885 C888 1.363 . S
N886 C888 1.356 . S
N886 H898 0.984 . S
N886 H899 0.985 . S
N887 C889 1.356 . S
N887 H892 0.984 . S
N887 H893 0.985 . S
C888 C882 1.379 . S
C888 C885 1.363 . S
C888 N886 1.356 . S
C889 C883 1.363 . S
C889 C884 1.379 . S
C889 N887 1.356 . S
N890 C882 1.356 . S
N890 H896 0.984 . S
N890 H897 0.984 . S
N891 C884 1.356 . S
N891 H894 0.984 . S
N891 H895 0.985 . S
H892 N887 0.984 . S
H893 N887 0.985 . S
H894 N891 0.984 . S
H895 N891 0.985 . S
H896 N890 0.984 . S
H897 N890 0.984 . S
H898 N886 0.984 . S
H899 N886 0.985 . S
C900 C901 1.363 . S
C900 C906 1.379 . S
C900 N908 1.356 . S
C901 C900 1.363 . S
C901 C907 1.363 . S
C902 C903 1.363 . S
C902 C907 1.379 . S
C902 N909 1.356 . S
C903 C902 1.363 . S
C903 C906 1.363 . S
N904 C906 1.356 . S
N904 H916 0.984 . S
N904 H917 0.985 . S
N905 C907 1.356 . S
N905 H910 0.984 . S
N905 H911 0.985 . S
C906 C900 1.379 . S
C906 C903 1.363 . S
C906 N904 1.356 . S
C907 C901 1.363 . S
C907 C902 1.379 . S
C907 N905 1.356 . S
N908 C900 1.356 . S
N908 H914 0.984 . S
N908 H915 0.984 . S
N909 C902 1.356 . S
N909 H912 0.984 . S
N909 H913 0.985 . S
H910 N905 0.984 . S
H911 N905 0.985 . S
H912 N909 0.984 . S
H913 N909 0.985 . S
H914 N908 0.984 . S
H915 N908 0.984 . S
H916 N904 0.984 . S
H917 N904 0.985 . S
C918 C919 1.363 . S
C918 C924 1.379 . S
C918 N926 1.356 . S
C919 C918 1.363 . S
C919 C925 1.350 1_565 S
C920 C921 1.363 1_545 S
C920 C925 1.381 . S
C920 N927 1.356 . S
C921 C920 1.363 1_565 S
C921 C924 1.363 . S
N922 C924 1.356 . S
N922 H934 0.984 . S
N922 H935 0.985 . S
N923 C925 1.364 . S
N923 H928 0.984 . S
N923 H929 0.985 . S
C924 C918 1.379 . S
C924 C921 1.363 . S
C924 N922 1.356 . S
C925 C919 1.350 1_545 S
C925 C920 1.381 . S
C925 N923 1.364 . S
N926 C918 1.356 . S
N926 H932 0.984 . S
N926 H933 0.984 . S
N927 C920 1.356 . S
N927 H930 0.984 . S
N927 H931 0.985 . S
H928 N923 0.984 . S
H929 N923 0.985 . S
H930 N927 0.984 . S
H931 N927 0.985 . S
H932 N926 0.984 . S
H933 N926 0.984 . S
H934 N922 0.984 . S
H935 N922 0.985 . S
C936 C937 1.363 . S
C936 C942 1.379 . S
C936 N944 1.356 . S
C937 C936 1.363 . S
C937 C943 1.363 . S
C938 C939 1.363 . S
C938 C943 1.379 . S
C938 N945 1.356 . S
C939 C938 1.363 . S
C939 C942 1.363 . S
N940 C942 1.356 . S
N940 H952 0.984 . S
N940 H953 0.985 . S
N941 C943 1.356 . S
N941 H946 0.984 . S
N941 H947 0.985 . S
C942 C936 1.379 . S
C942 C939 1.363 . S
C942 N940 1.356 . S
C943 C937 1.363 . S
C943 C938 1.379 . S
C943 N941 1.356 . S
N944 C936 1.356 . S
N944 H950 0.984 . S
N944 H951 0.984 . S
N945 C938 1.356 . S
N945 H948 0.984 . S
N945 H949 0.985 . S
H946 N941 0.984 . S
H947 N941 0.985 . S
H948 N945 0.984 . S
H949 N945 0.985 . S
H950 N944 0.984 . S
H951 N944 0.984 . S
H952 N940 0.984 . S
H953 N940 0.985 . S
C954 C955 1.363 . S
C954 C960 1.379 . S
C954 N962 1.356 . S
C955 C954 1.363 . S
C955 C961 1.363 . S
C956 C957 1.363 . S
C956 C961 1.379 . S
C956 N963 1.356 . S
C957 C956 1.363 . S
C957 C960 1.363 . S
N958 C960 1.356 . S
N958 H970 0.984 . S
N958 H971 0.985 . S
N959 C961 1.356 . S
N959 H964 0.984 . S
N959 H965 0.985 . S
C960 C954 1.379 . S
C960 C957 1.363 . S
C960 N958 1.356 . S
C961 C955 1.363 . S
C961 C956 1.379 . S
C961 N959 1.356 . S
N962 C954 1.356 . S
N962 H968 0.984 . S
N962 H969 0.984 . S
N963 C956 1.356 . S
N963 H966 0.984 . S
N963 H967 0.985 . S
H964 N959 0.984 . S
H965 N959 0.985 . S
H966 N963 0.984 . S
H967 N963 0.985 . S
H968 N962 0.984 . S
H969 N962 0.984 . S
H970 N958 0.984 . S
H971 N958 0.985 . S
C972 C973 1.363 . S
C972 C978 1.379 . S
C972 N980 1.356 . S
C973 C972 1.363 . S
C973 C979 1.363 . S
C974 C975 1.363 . S
C974 C979 1.379 . S
C974 N981 1.356 . S
C975 C974 1.363 . S
C975 C978 1.363 . S
N976 C978 1.356 . S
N976 H988 0.984 . S
N976 H989 0.985 . S
N977 C979 1.356 . S
N977 H982 0.984 . S
N977 H983 0.985 . S
C978 C972 1.379 . S
C978 C975 1.363 . S
C978 N976 1.356 . S
C979 C973 1.363 . S
C979 C974 1.379 . S
C979 N977 1.356 . S
N980 C972 1.356 . S
N980 H986 0.984 . S
N980 H987 0.984 . S
N981 C974 1.356 . S
N981 H984 0.984 . S
N981 H985 0.985 . S
H982 N977 0.984 . S
H983 N977 0.985 . S
H984 N981 0.984 . S
H985 N981 0.985 . S
H986 N980 0.984 . S
H987 N980 0.984 . S
H988 N976 0.984 . S
H989 N976 0.985 . S
C990 C991 1.363 . S
C990 C996 1.379 . S
C990 N998 1.356 . S
C991 C990 1.363 . S
C991 C997 1.363 . S
C992 C993 1.363 . S
C992 C997 1.379 . S
C992 N999 1.356 . S
C993 C992 1.363 . S
C993 C996 1.363 . S
N994 C996 1.356 . S
N994 H1006 0.984 . S
N994 H1007 0.985 . S
N995 C997 1.356 . S
N995 H1000 0.984 . S
N995 H1001 0.985 . S
C996 C990 1.379 . S
C996 C993 1.363 . S
C996 N994 1.356 . S
C997 C991 1.363 . S
C997 C992 1.379 . S
C997 N995 1.356 . S
N998 C990 1.356 . S
N998 H1004 0.984 . S
N998 H1005 0.984 . S
N999 C992 1.356 . S
N999 H1002 0.984 . S
N999 H1003 0.985 . S
H1000 N995 0.984 . S
H1001 N995 0.985 . S
H1002 N999 0.984 . S
H1003 N999 0.985 . S
H1004 N998 0.984 . S
H1005 N998 0.984 . S
H1006 N994 0.984 . S
H1007 N994 0.985 . S
C1008 C1009 1.363 . S
C1008 C1014 1.379 . S
C1008 N1016 1.356 . S
C1009 C1008 1.363 . S
C1009 C1015 1.363 . S
C1010 C1011 1.363 . S
C1010 C1015 1.379 . S
C1010 N1017 1.356 . S
C1011 C1010 1.363 . S
C1011 C1014 1.363 . S
N1012 C1014 1.356 . S
N1012 H1024 0.984 . S
N1012 H1025 0.985 . S
N1013 C1015 1.356 . S
N1013 H1018 0.984 . S
N1013 H1019 0.985 . S
C1014 C1008 1.379 . S
C1014 C1011 1.363 . S
C1014 N1012 1.356 . S
C1015 C1009 1.363 . S
C1015 C1010 1.379 . S
C1015 N1013 1.356 . S
N1016 C1008 1.356 . S
N1016 H1022 0.984 . S
N1016 H1023 0.984 . S
N1017 C1010 1.356 . S
N1017 H1020 0.984 . S
N1017 H1021 0.985 . S
H1018 N1013 0.984 . S
H1019 N1013 0.985 . S
H1020 N1017 0.984 . S
H1021 N1017 0.985 . S
H1022 N1016 0.984 . S
H1023 N1016 0.984 . S
H1024 N1012 0.984 . S
H1025 N1012 0.985 . S
C1026 C1027 1.363 . S
C1026 C1032 1.379 . S
C1026 N1034 1.356 . S
C1027 C1026 1.363 . S
C1027 C1033 1.363 . S
C1028 C1029 1.363 . S
C1028 C1033 1.379 . S
C1028 N1035 1.337 1_455 S
C1029 C1028 1.363 . S
C1029 C1032 1.363 . S
N1030 C1032 1.356 . S
N1030 H1042 0.984 . S
N1030 H1043 0.985 . S
N1031 C1033 1.356 . S
N1031 H1036 0.984 . S
N1031 H1037 0.985 . S
C1032 C1026 1.379 . S
C1032 C1029 1.363 . S
C1032 N1030 1.356 . S
C1033 C1027 1.363 . S
C1033 C1028 1.379 . S
C1033 N1031 1.356 . S
N1034 C1026 1.356 . S
N1034 H1040 0.984 . S
N1034 H1041 0.984 . S
N1035 C1028 1.337 1_655 S
N1035 H1038 0.988 . S
N1035 H1039 1.001 . S
H1036 N1031 0.984 . S
H1037 N1031 0.985 . S
H1038 N1035 0.988 . S
H1039 N1035 1.001 . S
H1040 N1034 0.984 . S
H1041 N1034 0.984 . S
H1042 N1030 0.984 . S
H1043 N1030 0.985 . S
C1044 C1045 1.363 . S
C1044 C1050 1.379 . S
C1044 N1052 1.356 . S
C1045 C1044 1.363 . S
C1045 C1051 1.363 . S
C1046 C1047 1.363 . S
C1046 C1051 1.379 . S
C1046 N1053 1.356 . S
C1047 C1046 1.363 . S
C1047 C1050 1.363 . S
N1048 C1050 1.356 . S
N1048 H1060 0.984 . S
N1048 H1061 0.985 . S
N1049 C1051 1.356 . S
N1049 H1054 0.984 . S
N1049 H1055 0.985 . S
C1050 C1044 1.379 . S
C1050 C1047 1.363 . S
C1050 N1048 1.356 . S
C1051 C1045 1.363 . S
C1051 C1046 1.379 . S
C1051 N1049 1.356 . S
N1052 C1044 1.356 . S
N1052 H1058 0.984 . S
N1052 H1059 0.984 . S
N1053 C1046 1.356 . S
N1053 H1056 0.984 . S
N1053 H1057 0.985 . S
H1054 N1049 0.984 . S
H1055 N1049 0.985 . S
H1056 N1053 0.984 . S
H1057 N1053 0.985 . S
H1058 N1052 0.984 . S
H1059 N1052 0.984 . S
H1060 N1048 0.984 . S
H1061 N1048 0.985 . S
C1062 C1063 1.363 . S
C1062 C1068 1.379 . S
C1062 N1070 1.356 . S
C1063 C1062 1.363 . S
C1063 C1069 1.363 . S
C1064 C1065 1.363 . S
C1064 C1069 1.379 . S
C1064 N1071 1.361 . S
C1065 C1064 1.363 . S
C1065 C1068 1.363 . S
N1066 C1068 1.356 . S
N1066 H1078 0.984 . S
N1066 H1079 0.985 . S
N1067 C1069 1.356 . S
N1067 H1072 0.984 . S
N1067 H1073 0.985 . S
C1068 C1062 1.379 . S
C1068 C1065 1.363 . S
C1068 N1066 1.356 . S
C1069 C1063 1.363 . S
C1069 C1064 1.379 . S
C1069 N1067 1.356 . S
N1070 C1062 1.356 . S
N1070 H1076 0.984 . S
N1070 H1077 0.984 . S
N1071 C1064 1.361 . S
N1071 H1074 0.983 1_655 S
N1071 H1075 0.982 1_655 S
H1072 N1067 0.984 . S
H1073 N1067 0.985 . S
H1074 N1071 0.983 1_455 S
H1075 N1071 0.982 1_455 S
H1076 N1070 0.984 . S
H1077 N1070 0.984 . S
H1078 N1066 0.984 . S
H1079 N1066 0.985 . S
C1080 C1081 1.363 . S
C1080 C1086 1.379 . S
C1080 N1088 1.356 . S
C1081 C1080 1.363 . S
C1081 C1087 1.363 . S
C1082 C1083 1.363 . S
C1082 C1087 1.379 . S
C1082 N1089 1.356 . S
C1083 C1082 1.363 . S
C1083 C1086 1.363 . S
N1084 C1086 1.356 . S
N1084 H1096 0.984 . S
N1084 H1097 0.985 . S
N1085 C1087 1.356 . S
N1085 H1090 0.984 . S
N1085 H1091 0.985 . S
C1086 C1080 1.379 . S
C1086 C1083 1.363 . S
C1086 N1084 1.356 . S
C1087 C1081 1.363 . S
C1087 C1082 1.379 . S
C1087 N1085 1.356 . S
N1088 C1080 1.356 . S
N1088 H1094 0.984 . S
N1088 H1095 0.984 . S
N1089 C1082 1.356 . S
N1089 H1092 0.984 . S
N1089 H1093 0.985 . S
H1090 N1085 0.984 . S
H1091 N1085 0.985 . S
H1092 N1089 0.984 . S
H1093 N1089 0.985 . S
H1094 N1088 0.984 . S
H1095 N1088 0.984 . S
H1096 N1084 0.984 . S
H1097 N1084 0.985 . S
C1098 C1099 1.363 . S
C1098 C1104 1.379 . S
C1098 N1106 1.356 . S
C1099 C1098 1.363 . S
C1099 C1105 1.363 . S
C1100 C1101 1.363 . S
C1100 C1105 1.379 . S
C1100 N1107 1.356 . S
C1101 C1100 1.363 . S
C1101 C1104 1.363 . S
N1102 C1104 1.356 . S
N1102 H1114 0.984 . S
N1102 H1115 0.985 . S
N1103 C1105 1.356 . S
N1103 H1108 0.984 . S
N1103 H1109 0.985 . S
C1104 C1098 1.379 . S
C1104 C1101 1.363 . S
C1104 N1102 1.356 . S
C1105 C1099 1.363 . S
C1105 C1100 1.379 . S
C1105 N1103 1.356 . S
N1106 C1098 1.356 . S
N1106 H1112 0.984 . S
N1106 H1113 0.984 . S
N1107 C1100 1.356 . S
N1107 H1110 0.984 . S
N1107 H1111 0.985 . S
H1108 N1103 0.984 . S
H1109 N1103 0.985 . S
H1110 N1107 0.984 . S
H1111 N1107 0.985 . S
H1112 N1106 0.984 . S
H1113 N1106 0.984 . S
H1114 N1102 0.984 . S
H1115 N1102 0.985 . S
C1116 C1117 1.363 . S
C1116 C1122 1.379 . S
C1116 N1124 1.356 . S
C1117 C1116 1.363 . S
C1117 C1123 1.363 . S
C1118 C1119 1.363 . S
C1118 C1123 1.379 . S
C1118 N1125 1.356 . S
C1119 C1118 1.363 . S
C1119 C1122 1.363 . S
N1120 C1122 1.356 1_554 S
N1120 H1132 0.984 . S
N1120 H1133 0.985 . S
N1121 C1123 1.356 . S
N1121 H1126 0.984 . S
N1121 H1127 0.985 . S
C1122 C1116 1.379 . S
C1122 C1119 1.363 . S
C1122 N1120 1.356 1_556 S
C1123 C1117 1.363 . S
C1123 C1118 1.379 . S
C1123 N1121 1.356 . S
N1124 C1116 1.356 . S
N1124 H1130 0.984 1_566 S
N1124 H1131 0.984 1_565 S
N1125 C1118 1.356 . S
N1125 H1128 0.984 . S
N1125 H1129 0.985 . S
H1126 N1121 0.984 . S
H1127 N1121 0.985 . S
H1128 N1125 0.984 . S
H1129 N1125 0.985 . S
H1130 N1124 0.984 1_544 S
H1131 N1124 0.984 1_545 S
H1132 N1120 0.984 . S
H1133 N1120 0.985 . S
C1134 C1135 1.363 . S
C1134 C1140 1.379 . S
C1134 N1142 1.356 . S
C1135 C1134 1.363 . S
C1135 C1141 1.363 . S
C1136 C1137 1.363 . S
C1136 C1141 1.379 . S
C1136 N1143 1.356 . S
C1137 C1136 1.363 . S
C1137 C1140 1.363 . S
N1138 C1140 1.356 . S
N1138 H1150 0.984 . S
N1138 H1151 0.985 . S
N1139 C1141 1.356 . S
N1139 H1144 0.984 . S
N1139 H1145 0.985 . S
C1140 C1134 1.379 . S
C1140 C1137 1.363 . S
C1140 N1138 1.356 . S
C1141 C1135 1.363 . S
C1141 C1136 1.379 . S
C1141 N1139 1.356 . S
N1142 C1134 1.356 . S
N1142 H1148 0.984 . S
N1142 H1149 0.984 . S
N1143 C1136 1.356 . S
N1143 H1146 0.984 . S
N1143 H1147 0.985 . S
H1144 N1139 0.984 . S
H1145 N1139 0.985 . S
H1146 N1143 0.984 . S
H1147 N1143 0.985 . S
H1148 N1142 0.984 . S
H1149 N1142 0.984 . S
H1150 N1138 0.984 . S
H1151 N1138 0.985 . S
C1152 C1153 1.363 . S
C1152 C1158 1.379 . S
C1152 N1160 1.356 . S
C1153 C1152 1.363 . S
C1153 C1159 1.363 . S
C1154 C1155 1.363 . S
C1154 C1159 1.379 . S
C1154 N1161 1.356 . S
C1155 C1154 1.363 . S
C1155 C1158 1.363 . S
N1156 C1158 1.356 . S
N1156 H1168 0.984 . S
N1156 H1169 0.985 . S
N1157 C1159 1.356 . S
N1157 H1162 0.984 . S
N1157 H1163 0.985 . S
C1158 C1152 1.379 . S
C1158 C1155 1.363 . S
C1158 N1156 1.356 . S
C1159 C1153 1.363 . S
C1159 C1154 1.379 . S
C1159 N1157 1.356 . S
N1160 C1152 1.356 . S
N1160 H1166 0.984 . S
N1160 H1167 0.984 . S
N1161 C1154 1.356 . S
N1161 H1164 0.984 . S
N1161 H1165 0.985 . S
H1162 N1157 0.984 . S
H1163 N1157 0.985 . S
H1164 N1161 0.984 . S
H1165 N1161 0.985 . S
H1166 N1160 0.984 . S
H1167 N1160 0.984 . S
H1168 N1156 0.984 . S
H1169 N1156 0.985 . S
C1170 C1171 1.363 . S
C1170 C1176 1.379 . S
C1170 N1178 1.356 . S
C1171 C1170 1.363 . S
C1171 C1177 1.363 . S
C1172 C1173 1.363 . S
C1172 C1177 1.379 . S
C1172 N1179 1.356 . S
C1173 C1172 1.363 . S
C1173 C1176 1.363 . S
N1174 C1176 1.356 . S
N1174 H1186 0.984 . S
N1174 H1187 0.985 . S
N1175 C1177 1.356 . S
N1175 H1180 0.984 . S
N1175 H1181 0.985 . S
C1176 C1170 1.379 . S
C1176 C1173 1.363 . S
C1176 N1174 1.356 . S
C1177 C1171 1.363 . S
C1177 C1172 1.379 . S
C1177 N1175 1.356 . S
N1178 C1170 1.356 . S
N1178 H1184 0.984 . S
N1178 H1185 0.984 . S
N1179 C1172 1.356 . S
N1179 H1182 0.984 . S
N1179 H1183 0.985 . S
H1180 N1175 0.984 . S
H1181 N1175 0.985 . S
H1182 N1179 0.984 . S
H1183 N1179 0.985 . S
H1184 N1178 0.984 . S
H1185 N1178 0.984 . S
H1186 N1174 0.984 . S
H1187 N1174 0.985 . S
C1188 C1189 1.363 . S
C1188 C1194 1.379 . S
C1188 N1196 1.356 . S
C1189 C1188 1.363 . S
C1189 C1195 1.363 . S
C1190 C1191 1.363 . S
C1190 C1195 1.379 . S
C1190 N1197 1.356 . S
C1191 C1190 1.363 . S
C1191 C1194 1.363 . S
N1192 C1194 1.356 . S
N1192 H1204 0.984 . S
N1192 H1205 0.985 . S
N1193 C1195 1.356 . S
N1193 H1198 0.984 . S
N1193 H1199 0.985 . S
C1194 C1188 1.379 . S
C1194 C1191 1.363 . S
C1194 N1192 1.356 . S
C1195 C1189 1.363 . S
C1195 C1190 1.379 . S
C1195 N1193 1.356 . S
N1196 C1188 1.356 . S
N1196 H1202 0.984 . S
N1196 H1203 0.984 . S
N1197 C1190 1.356 . S
N1197 H1200 0.984 . S
N1197 H1201 0.985 . S
H1198 N1193 0.984 . S
H1199 N1193 0.985 . S
H1200 N1197 0.984 . S
H1201 N1197 0.985 . S
H1202 N1196 0.984 . S
H1203 N1196 0.984 . S
H1204 N1192 0.984 . S
H1205 N1192 0.985 . S
C1206 C1207 1.363 . S
C1206 C1212 1.379 . S
C1206 N1214 1.356 . S
C1207 C1206 1.363 . S
C1207 C1213 1.363 . S
C1208 C1209 1.363 . S
C1208 C1213 1.379 . S
C1208 N1215 1.356 . S
C1209 C1208 1.363 . S
C1209 C1212 1.363 . S
N1210 C1212 1.356 . S
N1210 H1222 0.984 . S
N1210 H1223 0.985 . S
N1211 C1213 1.356 . S
N1211 H1216 0.984 . S
N1211 H1217 0.985 . S
C1212 C1206 1.379 . S
C1212 C1209 1.363 . S
C1212 N1210 1.356 . S
C1213 C1207 1.363 . S
C1213 C1208 1.379 . S
C1213 N1211 1.356 . S
N1214 C1206 1.356 . S
N1214 H1220 0.984 . S
N1214 H1221 0.984 . S
N1215 C1208 1.356 . S
N1215 H1218 0.984 . S
N1215 H1219 0.985 . S
H1216 N1211 0.984 . S
H1217 N1211 0.985 . S
H1218 N1215 0.984 . S
H1219 N1215 0.985 . S
H1220 N1214 0.984 . S
H1221 N1214 0.984 . S
H1222 N1210 0.984 . S
H1223 N1210 0.985 . S
C1224 C1225 1.363 . S
C1224 C1230 1.379 . S
C1224 N1232 1.356 . S
C1225 C1224 1.363 . S
C1225 C1231 1.363 . S
C1226 C1227 1.363 . S
C1226 C1231 1.379 . S
C1226 N1233 1.356 . S
C1227 C1226 1.363 . S
C1227 C1230 1.363 . S
N1228 C1230 1.356 . S
N1228 H1240 0.984 . S
N1228 H1241 0.985 . S
N1229 C1231 1.356 . S
N1229 H1234 0.984 . S
N1229 H1235 0.985 . S
C1230 C1224 1.379 . S
C1230 C1227 1.363 . S
C1230 N1228 1.356 . S
C1231 C1225 1.363 . S
C1231 C1226 1.379 . S
C1231 N1229 1.356 . S
N1232 C1224 1.356 . S
N1232 H1238 0.984 . S
N1232 H1239 0.984 . S
N1233 C1226 1.356 . S
N1233 H1236 0.984 . S
N1233 H1237 0.985 . S
H1234 N1229 0.984 . S
H1235 N1229 0.985 . S
H1236 N1233 0.984 . S
H1237 N1233 0.985 . S
H1238 N1232 0.984 . S
H1239 N1232 0.984 . S
H1240 N1228 0.984 . S
H1241 N1228 0.985 . S
C1242 C1243 1.363 . S
C1242 C1248 1.379 . S
C1242 N1250 1.356 . S
C1243 C1242 1.363 . S
C1243 C1249 1.363 . S
C1244 C1245 1.363 . S
C1244 C1249 1.379 . S
C1244 N1251 1.356 1_545 S
C1245 C1244 1.363 . S
C1245 C1248 1.363 . S
N1246 C1248 1.356 . S
N1246 H1258 0.984 . S
N1246 H1259 0.985 . S
N1247 C1249 1.356 . S
N1247 H1252 0.984 . S
N1247 H1253 0.985 1_545 S
C1248 C1242 1.379 . S
C1248 C1245 1.363 . S
C1248 N1246 1.356 . S
C1249 C1243 1.363 . S
C1249 C1244 1.379 . S
C1249 N1247 1.356 . S
N1250 C1242 1.356 . S
N1250 H1256 0.984 . S
N1250 H1257 0.984 . S
N1251 C1244 1.356 1_565 S
N1251 H1254 0.984 . S
N1251 H1255 0.985 . S
H1252 N1247 0.984 . S
H1253 N1247 0.985 1_565 S
H1254 N1251 0.984 . S
H1255 N1251 0.985 . S
H1256 N1250 0.984 . S
H1257 N1250 0.984 . S
H1258 N1246 0.984 . S
H1259 N1246 0.985 . S
C1260 C1261 1.363 . S
C1260 C1266 1.379 . S
C1260 N1268 1.356 . S
C1261 C1260 1.363 . S
C1261 C1267 1.363 . S
C1262 C1263 1.363 . S
C1262 C1267 1.379 . S
C1262 N1269 1.356 . S
C1263 C1262 1.363 . S
C1263 C1266 1.363 . S
N1264 C1266 1.356 . S
N1264 H1276 0.984 . S
N1264 H1277 0.985 . S
N1265 C1267 1.356 . S
N1265 H1270 0.984 . S
N1265 H1271 0.985 . S
C1266 C1260 1.379 . S
C1266 C1263 1.363 . S
C1266 N1264 1.356 . S
C1267 C1261 1.363 . S
C1267 C1262 1.379 . S
C1267 N1265 1.356 . S
N1268 C1260 1.356 . S
N1268 H1274 0.984 . S
N1268 H1275 0.984 . S
N1269 C1262 1.356 . S
N1269 H1272 0.984 . S
N1269 H1273 0.985 . S
H1270 N1265 0.984 . S
H1271 N1265 0.985 . S
H1272 N1269 0.984 . S
H1273 N1269 0.985 . S
H1274 N1268 0.984 . S
H1275 N1268 0.984 . S
H1276 N1264 0.984 . S
H1277 N1264 0.985 . S
C1278 C1279 1.363 . S
C1278 C1284 1.379 . S
C1278 N1286 1.356 . S
C1279 C1278 1.363 . S
C1279 C1285 1.363 . S
C1280 C1281 1.363 . S
C1280 C1285 1.379 . S
C1280 N1287 1.356 . S
C1281 C1280 1.363 . S
C1281 C1284 1.363 . S
N1282 C1284 1.356 . S
N1282 H1294 0.984 . S
N1282 H1295 0.985 . S
N1283 C1285 1.356 . S
N1283 H1288 0.984 . S
N1283 H1289 0.985 . S
C1284 C1278 1.379 . S
C1284 C1281 1.363 . S
C1284 N1282 1.356 . S
C1285 C1279 1.363 . S
C1285 C1280 1.379 . S
C1285 N1283 1.356 . S
N1286 C1278 1.356 . S
N1286 H1292 0.984 . S
N1286 H1293 0.984 . S
N1287 C1280 1.356 . S
N1287 H1290 0.984 . S
N1287 H1291 0.985 . S
H1288 N1283 0.984 . S
H1289 N1283 0.985 . S
H1290 N1287 0.984 . S
H1291 N1287 0.985 . S
H1292 N1286 0.984 . S
H1293 N1286 0.984 . S
H1294 N1282 0.984 . S
H1295 N1282 0.985 . S
C1296 C1297 1.363 . S
C1296 C1302 1.379 . S
C1296 N1304 1.356 . S
C1297 C1296 1.363 . S
C1297 C1303 1.363 . S
C1298 C1299 1.363 . S
C1298 C1303 1.379 . S
C1298 N1305 1.356 . S
C1299 C1298 1.363 . S
C1299 C1302 1.363 . S
N1300 C1302 1.356 . S
N1300 H1312 0.984 . S
N1300 H1313 0.985 . S
N1301 C1303 1.356 . S
N1301 H1306 0.984 . S
N1301 H1307 0.985 . S
C1302 C1296 1.379 . S
C1302 C1299 1.363 . S
C1302 N1300 1.356 . S
C1303 C1297 1.363 . S
C1303 C1298 1.379 . S
C1303 N1301 1.356 . S
N1304 C1296 1.356 . S
N1304 H1310 0.984 . S
N1304 H1311 0.984 . S
N1305 C1298 1.356 . S
N1305 H1308 0.984 . S
N1305 H1309 0.985 . S
H1306 N1301 0.984 . S
H1307 N1301 0.985 . S
H1308 N1305 0.984 . S
H1309 N1305 0.985 . S
H1310 N1304 0.984 . S
H1311 N1304 0.984 . S
H1312 N1300 0.984 . S
H1313 N1300 0.985 . S
C1314 C1315 1.363 . S
C1314 C1320 1.381 . S
C1314 N1322 1.356 1_545 S
C1315 C1314 1.363 . S
C1315 C1321 1.363 . S
C1316 C1317 1.363 . S
C1316 C1321 1.379 . S
C1316 N1323 1.356 . S
C1317 C1316 1.363 . S
C1317 C1320 1.375 . S
N1318 C1320 1.344 1_565 S
N1318 H1330 0.984 . S
N1318 H1331 0.985 . S
N1319 C1321 1.356 . S
N1319 H1324 0.984 . S
N1319 H1325 0.985 . S
C1320 C1314 1.381 . S
C1320 C1317 1.375 . S
C1320 N1318 1.344 1_545 S
C1321 C1315 1.363 . S
C1321 C1316 1.379 . S
C1321 N1319 1.356 . S
N1322 C1314 1.356 1_565 S
N1322 H1328 0.984 . S
N1322 H1329 0.984 . S
N1323 C1316 1.356 . S
N1323 H1326 0.984 . S
N1323 H1327 0.985 . S
H1324 N1319 0.984 . S
H1325 N1319 0.985 . S
H1326 N1323 0.984 . S
H1327 N1323 0.985 . S
H1328 N1322 0.984 . S
H1329 N1322 0.984 . S
H1330 N1318 0.984 . S
H1331 N1318 0.985 . S
C1332 C1333 1.363 . S
C1332 C1338 1.379 . S
C1332 N1340 1.356 . S
C1333 C1332 1.363 . S
C1333 C1339 1.363 . S
C1334 C1335 1.363 . S
C1334 C1339 1.379 . S
C1334 N1341 1.356 . S
C1335 C1334 1.363 . S
C1335 C1338 1.363 . S
N1336 C1338 1.356 . S
N1336 H1348 0.984 . S
N1336 H1349 0.985 . S
N1337 C1339 1.356 . S
N1337 H1342 0.984 . S
N1337 H1343 0.985 . S
C1338 C1332 1.379 . S
C1338 C1335 1.363 . S
C1338 N1336 1.356 . S
C1339 C1333 1.363 . S
C1339 C1334 1.379 . S
C1339 N1337 1.356 . S
N1340 C1332 1.356 . S
N1340 H1346 0.984 . S
N1340 H1347 0.984 . S
N1341 C1334 1.356 . S
N1341 H1344 0.984 . S
N1341 H1345 0.985 . S
H1342 N1337 0.984 . S
H1343 N1337 0.985 . S
H1344 N1341 0.984 . S
H1345 N1341 0.985 . S
H1346 N1340 0.984 . S
H1347 N1340 0.984 . S
H1348 N1336 0.984 . S
H1349 N1336 0.985 . S
C1350 C1351 1.363 . S
C1350 C1356 1.379 . S
C1350 N1358 1.356 . S
C1351 C1350 1.363 . S
C1351 C1357 1.363 . S
C1352 C1353 1.363 . S
C1352 C1357 1.379 . S
C1352 N1359 1.356 . S
C1353 C1352 1.363 . S
C1353 C1356 1.363 . S
N1354 C1356 1.356 . S
N1354 H1366 0.984 . S
N1354 H1367 0.985 . S
N1355 C1357 1.356 . S
N1355 H1360 0.984 . S
N1355 H1361 0.985 . S
C1356 C1350 1.379 . S
C1356 C1353 1.363 . S
C1356 N1354 1.356 . S
C1357 C1351 1.363 . S
C1357 C1352 1.379 . S
C1357 N1355 1.356 . S
N1358 C1350 1.356 . S
N1358 H1364 0.984 . S
N1358 H1365 0.986 1_455 S
N1359 C1352 1.356 . S
N1359 H1362 0.984 . S
N1359 H1363 0.985 . S
H1360 N1355 0.984 . S
H1361 N1355 0.985 . S
H1362 N1359 0.984 . S
H1363 N1359 0.985 . S
H1364 N1358 0.984 . S
H1365 N1358 0.986 1_655 S
H1366 N1354 0.984 . S
H1367 N1354 0.985 . S
C1368 C1369 1.363 . S
C1368 C1374 1.379 . S
C1368 N1376 1.356 . S
C1369 C1368 1.363 . S
C1369 C1375 1.363 . S
C1370 C1371 1.363 . S
C1370 C1375 1.379 . S
C1370 N1377 1.356 . S
C1371 C1370 1.363 . S
C1371 C1374 1.363 . S
N1372 C1374 1.356 . S
N1372 H1384 0.984 . S
N1372 H1385 0.985 . S
N1373 C1375 1.356 . S
N1373 H1378 0.984 . S
N1373 H1379 0.985 . S
C1374 C1368 1.379 . S
C1374 C1371 1.363 . S
C1374 N1372 1.356 . S
C1375 C1369 1.363 . S
C1375 C1370 1.379 . S
C1375 N1373 1.356 . S
N1376 C1368 1.356 . S
N1376 H1382 0.984 . S
N1376 H1383 0.984 . S
N1377 C1370 1.356 . S
N1377 H1380 0.984 . S
N1377 H1381 0.985 . S
H1378 N1373 0.984 . S
H1379 N1373 0.985 . S
H1380 N1377 0.984 . S
H1381 N1377 0.985 . S
H1382 N1376 0.984 . S
H1383 N1376 0.984 . S
H1384 N1372 0.984 . S
H1385 N1372 0.985 . S
C1386 C1387 1.363 . S
C1386 C1392 1.379 . S
C1386 N1394 1.352 1_655 S
C1387 C1386 1.363 . S
C1387 C1393 1.363 . S
C1388 C1389 1.363 . S
C1388 C1393 1.379 . S
C1388 N1395 1.356 . S
C1389 C1388 1.363 . S
C1389 C1392 1.363 . S
N1390 C1392 1.356 1_455 S
N1390 H1402 0.984 . S
N1390 H1403 0.985 . S
N1391 C1393 1.356 . S
N1391 H1396 0.984 . S
N1391 H1397 0.985 . S
C1392 C1386 1.379 . S
C1392 C1389 1.363 . S
C1392 N1390 1.356 1_655 S
C1393 C1387 1.363 . S
C1393 C1388 1.379 . S
C1393 N1391 1.356 . S
N1394 C1386 1.352 1_455 S
N1394 H1400 0.996 1_556 S
N1394 H1401 0.977 1_456 S
N1395 C1388 1.356 . S
N1395 H1398 0.984 . S
N1395 H1399 0.985 . S
H1396 N1391 0.984 . S
H1397 N1391 0.985 . S
H1398 N1395 0.984 . S
H1399 N1395 0.985 . S
H1400 N1394 0.996 1_554 S
H1401 N1394 0.977 1_654 S
H1402 N1390 0.984 . S
H1403 N1390 0.985 . S
C1404 C1405 1.363 . S
C1404 C1410 1.379 . S
C1404 N1412 1.356 . S
C1405 C1404 1.363 . S
C1405 C1411 1.363 . S
C1406 C1407 1.363 . S
C1406 C1411 1.379 . S
C1406 N1413 1.356 . S
C1407 C1406 1.363 . S
C1407 C1410 1.363 . S
N1408 C1410 1.356 . S
N1408 H1420 0.984 . S
N1408 H1421 0.985 . S
N1409 C1411 1.356 . S
N1409 H1414 0.984 . S
N1409 H1415 0.985 . S
C1410 C1404 1.379 . S
C1410 C1407 1.363 . S
C1410 N1408 1.356 . S
C1411 C1405 1.363 . S
C1411 C1406 1.379 . S
C1411 N1409 1.356 . S
N1412 C1404 1.356 . S
N1412 H1418 0.984 . S
N1412 H1419 0.984 . S
N1413 C1406 1.356 . S
N1413 H1416 0.984 . S
N1413 H1417 0.985 . S
H1414 N1409 0.984 . S
H1415 N1409 0.985 . S
H1416 N1413 0.984 . S
H1417 N1413 0.985 . S
H1418 N1412 0.984 . S
H1419 N1412 0.984 . S
H1420 N1408 0.984 . S
H1421 N1408 0.985 . S
C1422 C1423 1.334 1_655 S
C1422 C1428 1.382 . S
C1422 N1430 1.376 . S
C1423 C1422 1.334 1_455 S
C1423 C1429 1.363 . S
C1424 C1425 1.363 . S
C1424 C1429 1.379 . S
C1424 N1431 1.356 . S
C1425 C1424 1.363 . S
C1425 C1428 1.363 1_455 S
N1426 C1428 1.356 . S
N1426 H1438 0.984 . S
N1426 H1439 0.985 . S
N1427 C1429 1.356 . S
N1427 H1432 0.984 . S
N1427 H1433 0.985 . S
C1428 C1422 1.382 . S
C1428 C1425 1.363 1_655 S
C1428 N1426 1.356 . S
C1429 C1423 1.363 . S
C1429 C1424 1.379 . S
C1429 N1427 1.356 . S
N1430 C1422 1.376 . S
N1430 H1436 0.984 . S
N1430 H1437 0.984 . S
N1431 C1424 1.356 . S
N1431 H1434 0.984 . S
N1431 H1435 0.985 . S
H1432 N1427 0.984 . S
H1433 N1427 0.985 . S
H1434 N1431 0.984 . S
H1435 N1431 0.985 . S
H1436 N1430 0.984 . S
H1437 N1430 0.984 . S
H1438 N1426 0.984 . S
H1439 N1426 0.985 . S
C1440 C1441 1.363 . S
C1440 C1446 1.379 . S
C1440 N1448 1.356 . S
C1441 C1440 1.363 . S
C1441 C1447 1.363 . S
C1442 C1443 1.363 . S
C1442 C1447 1.379 . S
C1442 N1449 1.356 . S
C1443 C1442 1.363 . S
C1443 C1446 1.363 . S
N1444 C1446 1.356 . S
N1444 H1456 0.984 . S
N1444 H1457 0.985 . S
N1445 C1447 1.356 . S
N1445 H1450 0.984 . S
N1445 H1451 0.985 . S
C1446 C1440 1.379 . S
C1446 C1443 1.363 . S
C1446 N1444 1.356 . S
C1447 C1441 1.363 . S
C1447 C1442 1.379 . S
C1447 N1445 1.356 . S
N1448 C1440 1.356 . S
N1448 H1454 0.984 . S
N1448 H1455 0.984 . S
N1449 C1442 1.356 . S
N1449 H1452 0.984 . S
N1449 H1453 0.985 . S
H1450 N1445 0.984 . S
H1451 N1445 0.985 . S
H1452 N1449 0.984 . S
H1453 N1449 0.985 . S
H1454 N1448 0.984 . S
H1455 N1448 0.984 . S
H1456 N1444 0.984 . S
H1457 N1444 0.985 . S
C1458 C1459 1.363 . S
C1458 C1464 1.379 . S
C1458 N1466 1.356 . S
C1459 C1458 1.363 . S
C1459 C1465 1.363 . S
C1460 C1461 1.363 . S
C1460 C1465 1.379 . S
C1460 N1467 1.356 . S
C1461 C1460 1.363 . S
C1461 C1464 1.363 . S
N1462 C1464 1.356 . S
N1462 H1474 0.984 . S
N1462 H1475 0.985 . S
N1463 C1465 1.356 . S
N1463 H1468 0.984 . S
N1463 H1469 0.985 . S
C1464 C1458 1.379 . S
C1464 C1461 1.363 . S
C1464 N1462 1.356 . S
C1465 C1459 1.363 . S
C1465 C1460 1.379 . S
C1465 N1463 1.356 . S
N1466 C1458 1.356 . S
N1466 H1472 0.984 . S
N1466 H1473 0.984 . S
N1467 C1460 1.356 . S
N1467 H1470 0.984 . S
N1467 H1471 0.985 . S
H1468 N1463 0.984 . S
H1469 N1463 0.985 . S
H1470 N1467 0.984 . S
H1471 N1467 0.985 . S
H1472 N1466 0.984 . S
H1473 N1466 0.984 . S
H1474 N1462 0.984 . S
H1475 N1462 0.985 . S
C1476 C1477 1.363 . S
C1476 C1482 1.379 . S
C1476 N1484 1.356 . S
C1477 C1476 1.363 . S
C1477 C1483 1.363 . S
C1478 C1479 1.363 . S
C1478 C1483 1.379 . S
C1478 N1485 1.356 . S
C1479 C1478 1.363 . S
C1479 C1482 1.363 . S
N1480 C1482 1.356 . S
N1480 H1492 0.984 . S
N1480 H1493 0.985 . S
N1481 C1483 1.356 . S
N1481 H1486 0.984 . S
N1481 H1487 0.985 . S
C1482 C1476 1.379 . S
C1482 C1479 1.363 . S
C1482 N1480 1.356 . S
C1483 C1477 1.363 . S
C1483 C1478 1.379 . S
C1483 N1481 1.356 . S
N1484 C1476 1.356 . S
N1484 H1490 0.984 . S
N1484 H1491 0.984 . S
N1485 C1478 1.356 . S
N1485 H1488 0.984 . S
N1485 H1489 0.985 . S
H1486 N1481 0.984 . S
H1487 N1481 0.985 . S
H1488 N1485 0.984 . S
H1489 N1485 0.985 . S
H1490 N1484 0.984 . S
H1491 N1484 0.984 . S
H1492 N1480 0.984 . S
H1493 N1480 0.985 . S
C1494 C1495 1.363 . S
C1494 C1500 1.379 . S
C1494 N1502 1.356 . S
C1495 C1494 1.363 . S
C1495 C1501 1.363 . S
C1496 C1497 1.363 . S
C1496 C1501 1.379 . S
C1496 N1503 1.356 . S
C1497 C1496 1.363 . S
C1497 C1500 1.363 . S
N1498 C1500 1.356 . S
N1498 H1510 0.984 . S
N1498 H1511 0.985 . S
N1499 C1501 1.356 . S
N1499 H1504 0.984 . S
N1499 H1505 0.985 . S
C1500 C1494 1.379 . S
C1500 C1497 1.363 . S
C1500 N1498 1.356 . S
C1501 C1495 1.363 . S
C1501 C1496 1.379 . S
C1501 N1499 1.356 . S
N1502 C1494 1.356 . S
N1502 H1508 0.984 . S
N1502 H1509 0.984 . S
N1503 C1496 1.356 . S
N1503 H1506 0.984 . S
N1503 H1507 0.985 . S
H1504 N1499 0.984 . S
H1505 N1499 0.985 . S
H1506 N1503 0.984 . S
H1507 N1503 0.985 . S
H1508 N1502 0.984 . S
H1509 N1502 0.984 . S
H1510 N1498 0.984 . S
H1511 N1498 0.985 . S
C1512 C1513 1.363 . S
C1512 C1518 1.379 . S
C1512 N1520 1.356 . S
C1513 C1512 1.363 . S
C1513 C1519 1.363 . S
C1514 C1515 1.363 . S
C1514 C1519 1.379 . S
C1514 N1521 1.356 . S
C1515 C1514 1.363 . S
C1515 C1518 1.363 . S
N1516 C1518 1.356 . S
N1516 H1528 0.984 . S
N1516 H1529 0.985 . S
N1517 C1519 1.356 . S
N1517 H1522 0.984 . S
N1517 H1523 0.985 . S
C1518 C1512 1.379 . S
C1518 C1515 1.363 . S
C1518 N1516 1.356 . S
C1519 C1513 1.363 . S
C1519 C1514 1.379 . S
C1519 N1517 1.356 . S
N1520 C1512 1.356 . S
N1520 H1526 0.984 . S
N1520 H1527 0.984 . S
N1521 C1514 1.356 . S
N1521 H1524 0.984 . S
N1521 H1525 0.985 . S
H1522 N1517 0.984 . S
H1523 N1517 0.985 . S
H1524 N1521 0.984 . S
H1525 N1521 0.985 . S
H1526 N1520 0.984 . S
H1527 N1520 0.984 . S
H1528 N1516 0.984 . S
H1529 N1516 0.985 . S
C1530 C1531 1.363 . S
C1530 C1536 1.379 . S
C1530 N1538 1.356 . S
C1531 C1530 1.363 . S
C1531 C1537 1.363 . S
C1532 C1533 1.363 . S
C1532 C1537 1.379 . S
C1532 N1539 1.356 . S
C1533 C1532 1.363 . S
C1533 C1536 1.363 . S
N1534 C1536 1.356 . S
N1534 H1546 0.984 . S
N1534 H1547 0.985 . S
N1535 C1537 1.356 . S
N1535 H1540 0.984 . S
N1535 H1541 0.985 . S
C1536 C1530 1.379 . S
C1536 C1533 1.363 . S
C1536 N1534 1.356 . S
C1537 C1531 1.363 . S
C1537 C1532 1.379 . S
C1537 N1535 1.356 . S
N1538 C1530 1.356 . S
N1538 H1544 0.984 . S
N1538 H1545 0.984 . S
N1539 C1532 1.356 . S
N1539 H1542 0.984 . S
N1539 H1543 0.985 . S
H1540 N1535 0.984 . S
H1541 N1535 0.985 . S
H1542 N1539 0.984 . S
H1543 N1539 0.985 . S
H1544 N1538 0.984 . S
H1545 N1538 0.984 . S
H1546 N1534 0.984 . S
H1547 N1534 0.985 . S
C1548 C1549 1.363 . S
C1548 C1554 1.379 . S
C1548 N1556 1.356 . S
C1549 C1548 1.363 . S
C1549 C1555 1.363 . S
C1550 C1551 1.363 . S
C1550 C1555 1.379 . S
C1550 N1557 1.356 . S
C1551 C1550 1.363 . S
C1551 C1554 1.363 . S
N1552 C1554 1.356 . S
N1552 H1564 0.984 . S
N1552 H1565 0.985 . S
N1553 C1555 1.356 . S
N1553 H1558 0.984 . S
N1553 H1559 0.985 . S
C1554 C1548 1.379 . S
C1554 C1551 1.363 . S
C1554 N1552 1.356 . S
C1555 C1549 1.363 . S
C1555 C1550 1.379 . S
C1555 N1553 1.356 . S
N1556 C1548 1.356 . S
N1556 H1562 0.984 . S
N1556 H1563 0.984 . S
N1557 C1550 1.356 . S
N1557 H1560 0.984 . S
N1557 H1561 0.985 . S
H1558 N1553 0.984 . S
H1559 N1553 0.985 . S
H1560 N1557 0.984 . S
H1561 N1557 0.985 . S
H1562 N1556 0.984 . S
H1563 N1556 0.984 . S
H1564 N1552 0.984 . S
H1565 N1552 0.985 . S
C1566 C1567 1.363 . S
C1566 C1572 1.379 . S
C1566 N1574 1.356 . S
C1567 C1566 1.363 . S
C1567 C1573 1.363 . S
C1568 C1569 1.363 . S
C1568 C1573 1.379 . S
C1568 N1575 1.356 . S
C1569 C1568 1.363 . S
C1569 C1572 1.363 . S
N1570 C1572 1.356 . S
N1570 H1582 0.984 . S
N1570 H1583 0.985 . S
N1571 C1573 1.356 . S
N1571 H1576 0.984 . S
N1571 H1577 0.985 . S
C1572 C1566 1.379 . S
C1572 C1569 1.363 . S
C1572 N1570 1.356 . S
C1573 C1567 1.363 . S
C1573 C1568 1.379 . S
C1573 N1571 1.356 . S
N1574 C1566 1.356 . S
N1574 H1580 0.984 . S
N1574 H1581 0.984 . S
N1575 C1568 1.356 . S
N1575 H1578 0.984 . S
N1575 H1579 0.985 . S
H1576 N1571 0.984 . S
H1577 N1571 0.985 . S
H1578 N1575 0.984 . S
H1579 N1575 0.985 . S
H1580 N1574 0.984 . S
H1581 N1574 0.984 . S
H1582 N1570 0.984 . S
H1583 N1570 0.985 . S
C1584 C1585 1.363 1_554 S
C1584 C1590 1.379 . S
C1584 N1592 1.356 . S
C1585 C1584 1.363 1_556 S
C1585 C1591 1.363 . S
C1586 C1587 1.363 . S
C1586 C1591 1.379 . S
C1586 N1593 1.356 . S
C1587 C1586 1.363 . S
C1587 C1590 1.363 1_556 S
N1588 C1590 1.356 . S
N1588 H1600 0.984 . S
N1588 H1601 0.985 . S
N1589 C1591 1.356 . S
N1589 H1594 0.984 . S
N1589 H1595 0.985 . S
C1590 C1584 1.379 . S
C1590 C1587 1.363 1_554 S
C1590 N1588 1.356 . S
C1591 C1585 1.363 . S
C1591 C1586 1.379 . S
C1591 N1589 1.356 . S
N1592 C1584 1.356 . S
N1592 H1598 0.984 . S
N1592 H1599 0.984 . S
N1593 C1586 1.356 . S
N1593 H1596 0.984 . S
N1593 H1597 0.985 . S
H1594 N1589 0.984 . S
H1595 N1589 0.985 . S
H1596 N1593 0.984 . S
H1597 N1593 0.985 . S
H1598 N1592 0.984 . S
H1599 N1592 0.984 . S
H1600 N1588 0.984 . S
H1601 N1588 0.985 . S
C1602 C1603 1.363 . S
C1602 C1608 1.379 . S
C1602 N1610 1.356 . S
C1603 C1602 1.363 . S
C1603 C1609 1.363 . S
C1604 C1605 1.363 . S
C1604 C1609 1.379 . S
C1604 N1611 1.356 . S
C1605 C1604 1.363 . S
C1605 C1608 1.363 . S
N1606 C1608 1.356 . S
N1606 H1618 0.984 . S
N1606 H1619 0.985 . S
N1607 C1609 1.356 . S
N1607 H1612 0.984 . S
N1607 H1613 0.985 . S
C1608 C1602 1.379 . S
C1608 C1605 1.363 . S
C1608 N1606 1.356 . S
C1609 C1603 1.363 . S
C1609 C1604 1.379 . S
C1609 N1607 1.356 . S
N1610 C1602 1.356 . S
N1610 H1616 0.984 . S
N1610 H1617 0.984 . S
N1611 C1604 1.356 . S
N1611 H1614 0.984 . S
N1611 H1615 0.985 . S
H1612 N1607 0.984 . S
H1613 N1607 0.985 . S
H1614 N1611 0.984 . S
H1615 N1611 0.985 . S
H1616 N1610 0.984 . S
H1617 N1610 0.984 . S
H1618 N1606 0.984 . S
H1619 N1606 0.985 . S
C1620 C1621 1.363 . S
C1620 C1626 1.379 . S
C1620 N1628 1.356 . S
C1621 C1620 1.363 . S
C1621 C1627 1.363 . S
C1622 C1623 1.363 . S
C1622 C1627 1.379 . S
C1622 N1629 1.356 . S
C1623 C1622 1.363 . S
C1623 C1626 1.363 . S
N1624 C1626 1.356 1_556 S
N1624 H1636 0.984 . S
N1624 H1637 0.985 . S
N1625 C1627 1.356 . S
N1625 H1630 0.984 . S
N1625 H1631 0.985 . S
C1626 C1620 1.379 . S
C1626 C1623 1.363 . S
C1626 N1624 1.356 1_554 S
C1627 C1621 1.363 . S
C1627 C1622 1.379 . S
C1627 N1625 1.356 . S
N1628 C1620 1.356 . S
N1628 H1634 0.965 1_554 S
N1628 H1635 0.984 . S
N1629 C1622 1.356 . S
N1629 H1632 0.984 . S
N1629 H1633 0.985 . S
H1630 N1625 0.984 . S
H1631 N1625 0.985 . S
H1632 N1629 0.984 . S
H1633 N1629 0.985 . S
H1634 N1628 0.965 1_556 S
H1635 N1628 0.984 . S
H1636 N1624 0.984 . S
H1637 N1624 0.985 . S
C1638 C1639 1.363 . S
C1638 C1644 1.379 . S
C1638 N1646 1.356 . S
C1639 C1638 1.363 . S
C1639 C1645 1.363 . S
C1640 C1641 1.363 . S
C1640 C1645 1.379 . S
C1640 N1647 1.356 1_554 S
C1641 C1640 1.363 . S
C1641 C1644 1.363 . S
N1642 C1644 1.356 . S
N1642 H1654 0.984 . S
N1642 H1655 0.985 . S
N1643 C1645 1.356 . S
N1643 H1648 0.984 . S
N1643 H1649 0.985 1_554 S
C1644 C1638 1.379 . S
C1644 C1641 1.363 . S
C1644 N1642 1.356 . S
C1645 C1639 1.363 . S
C1645 C1640 1.379 . S
C1645 N1643 1.356 . S
N1646 C1638 1.356 . S
N1646 H1652 0.984 1_565 S
N1646 H1653 0.984 . S
N1647 C1640 1.356 1_556 S
N1647 H1650 0.984 1_556 S
N1647 H1651 0.984 . S
H1648 N1643 0.984 . S
H1649 N1643 0.985 1_556 S
H1650 N1647 0.984 1_554 S
H1651 N1647 0.984 . S
H1652 N1646 0.984 1_545 S
H1653 N1646 0.984 . S
H1654 N1642 0.984 . S
H1655 N1642 0.985 . S
C795 C632 1.483 . S
C793 C211 1.509 . S
C813 C645 1.488 . S
C811 C255 1.492 . S
C829 C274 1.641 . S
C831 C665 1.522 . S
C849 C679 1.401 . S
C847 C157 1.460 . S
C867 C691 1.516 . S
C865 C391 1.521 . S
C885 C705 1.441 . S
C883 C484 1.443 . S
C901 C450 1.486 . S
C903 C715 1.476 . S
C921 C730 1.517 . S
C919 C352 1.550 . S
C937 C430 1.511 . S
C939 C744 1.486 . S
C957 C763 1.405 . S
C955 C367 1.465 . S
C973 C411 1.507 . S
C975 C743 1.496 . S
C993 C761 1.441 . S
C991 C469 1.442 . S
C1009 C294 1.634 . S
C1011 C777 1.518 . S
C1027 C177 1.495 . S
C1029 C771 1.494 . S
C1045 C196 1.512 . S
C1047 C775 1.507 . S
C1063 C235 1.542 . S
C1065 C772 1.509 . S
C1081 C133 1.517 . S
C1083 C674 1.491 . S
C1099 C567 1.488 . S
C1101 C673 1.476 . S
C1119 C637 1.392 . S
C1117 C601 1.452 . S
C1137 C651 1.521 . S
C1135 C328 1.644 . S
C1153 C172 1.544 . S
C1155 C688 1.511 . S
C1173 C733 1.510 . S
C1171 C445 1.513 . S
C1191 C687 1.506 . S
C1189 C372 1.511 . S
C1209 C719 1.434 . S
C1207 C489 1.436 . S
C1227 C716 1.483 . S
C1225 C562 1.509 . S
C1243 C606 1.492 . S
C1245 C729 1.488 . S
C1261 C313 1.641 . S
C1263 C693 1.522 . S
C1281 C707 1.401 . S
C1279 C508 1.460 . S
C1297 C118 1.520 . S
C1299 C663 1.516 . S
C1317 C677 1.441 . S
C1315 C16 1.443 . S
C1335 C631 1.476 . S
C1333 C60 1.486 . S
C1353 C646 1.517 . S
C1351 C79 1.550 . S
C1369 C40 1.511 . S
C1371 C758 1.486 . S
C1387 C94 1.465 . S
C1389 C749 1.405 . S
C1405 C138 1.507 . S
C1407 C757 1.495 . S
C1423 C1 1.442 . S
C1425 C747 1.441 . S
C1443 C791 1.518 . S
C1441 C333 1.634 . S
C1461 C785 1.494 . S
C1459 C528 1.495 . S
C1479 C789 1.507 . S
C1477 C547 1.512 . S
C1495 C586 1.542 . S
C1497 C786 1.509 . S
C1513 C406 1.517 . S
C1515 C702 1.491 . S
C1533 C701 1.476 . S
C1531 C216 1.488 . S
C1551 C721 1.392 . S
C1549 C250 1.452 . S
C1569 C735 1.521 . S
C1567 C289 1.644 . S
C1585 C523 1.544 . S
C1587 C660 1.511 . S
C1605 C649 1.510 . S
C1603 C55 1.513 . S
C1621 C99 1.511 . S
C1623 C659 1.506 . S
C1641 C635 1.434 . S
C1639 C21 1.436 . S
