# Generated by pormake.
# Topology zzz, (3,6)-cn, num edge types: 1
# Building blocks:
#     Node 0, Type 0, BuildingBlock: KAKCAD_clean_linker_0, # of connection points: 3
#     Node 1, Type 0, BuildingBlock: KAKCAD_clean_linker_0, # of connection points: 3
#     Node 2, Type 0, BuildingBlock: KAKCAD_clean_linker_0, # of connection points: 3
#     Node 3, Type 0, BuildingBlock: KAKCAD_clean_linker_0, # of connection points: 3
#     Node 4, Type 0, BuildingBlock: KAKCAD_clean_linker_0, # of connection points: 3
#     Node 5, Type 0, BuildingBlock: KAKCAD_clean_linker_0, # of connection points: 3
#     Node 6, Type 0, BuildingBlock: KAKCAD_clean_linker_0, # of connection points: 3
#     Node 7, Type 0, BuildingBlock: KAKCAD_clean_linker_0, # of connection points: 3
#     Node 8, Type 1, BuildingBlock: CUWYAW_clean_sbu_0, # of connection points: 6
#     Node 9, Type 1, BuildingBlock: CUWYAW_clean_sbu_0, # of connection points: 6
#     Node 10, Type 1, BuildingBlock: CUWYAW_clean_sbu_0, # of connection points: 6
#     Node 11, Type 1, BuildingBlock: CUWYAW_clean_sbu_0, # of connection points: 6
#     Edge 12, Type (0, 1), BuildingBlock: MIFKUJ_clean_linker_0, # of connection points: 2
#     Edge 13, Type (0, 1), BuildingBlock: MIFKUJ_clean_linker_0, # of connection points: 2
#     Edge 14, Type (0, 1), BuildingBlock: MIFKUJ_clean_linker_0, # of connection points: 2
#     Edge 15, Type (0, 1), BuildingBlock: MIFKUJ_clean_linker_0, # of connection points: 2
#     Edge 16, Type (0, 1), BuildingBlock: MIFKUJ_clean_linker_0, # of connection points: 2
#     Edge 17, Type (0, 1), BuildingBlock: MIFKUJ_clean_linker_0, # of connection points: 2
#     Edge 18, Type (0, 1), BuildingBlock: MIFKUJ_clean_linker_0, # of connection points: 2
#     Edge 19, Type (0, 1), BuildingBlock: MIFKUJ_clean_linker_0, # of connection points: 2
#     Edge 20, Type (0, 1), BuildingBlock: MIFKUJ_clean_linker_0, # of connection points: 2
#     Edge 21, Type (0, 1), BuildingBlock: MIFKUJ_clean_linker_0, # of connection points: 2
#     Edge 22, Type (0, 1), BuildingBlock: MIFKUJ_clean_linker_0, # of connection points: 2
#     Edge 23, Type (0, 1), BuildingBlock: MIFKUJ_clean_linker_0, # of connection points: 2
#     Edge 24, Type (0, 1), BuildingBlock: MIFKUJ_clean_linker_0, # of connection points: 2
#     Edge 25, Type (0, 1), BuildingBlock: MIFKUJ_clean_linker_0, # of connection points: 2
#     Edge 26, Type (0, 1), BuildingBlock: MIFKUJ_clean_linker_0, # of connection points: 2
#     Edge 27, Type (0, 1), BuildingBlock: MIFKUJ_clean_linker_0, # of connection points: 2
#     Edge 28, Type (0, 1), BuildingBlock: MIFKUJ_clean_linker_0, # of connection points: 2
#     Edge 29, Type (0, 1), BuildingBlock: MIFKUJ_clean_linker_0, # of connection points: 2
#     Edge 30, Type (0, 1), BuildingBlock: MIFKUJ_clean_linker_0, # of connection points: 2
#     Edge 31, Type (0, 1), BuildingBlock: MIFKUJ_clean_linker_0, # of connection points: 2
#     Edge 32, Type (0, 1), BuildingBlock: MIFKUJ_clean_linker_0, # of connection points: 2
#     Edge 33, Type (0, 1), BuildingBlock: MIFKUJ_clean_linker_0, # of connection points: 2
#     Edge 34, Type (0, 1), BuildingBlock: MIFKUJ_clean_linker_0, # of connection points: 2
#     Edge 35, Type (0, 1), BuildingBlock: MIFKUJ_clean_linker_0, # of connection points: 2
# Relax obj value: 0.390
# Max RMSD: 0.252
# Mean RMSD: 0.228
data_MOF--net-zzz--node1-CUWYAW_clean_sbu_0--node2-KAKCAD_clean_linker_0--edge1-MIFKUJ_clean_linker_0
_symmetry_space_group_name_H-M    P1
_symmetry_Int_Tables_number       1
_symmetry_cell_setting            triclinic
loop_
_symmetry_equiv_pos_as_xyz
'x, y, z'
_cell_length_a     74.018495
_cell_length_b     74.03524
_cell_length_c     23.779982
_cell_angle_alpha  89.893419
_cell_angle_beta   89.879598
_cell_angle_gamma 89.982371
loop_
_atom_site_label
_atom_site_type_symbol
_atom_site_fract_x
_atom_site_fract_y
_atom_site_fract_z
_atom_type_partial_charge
C0 C 0.76273 0.49967 0.02837 0.0
C1 C 0.77147 0.48286 0.02321 0.0
C2 C 0.75491 0.5048 0.07928 0.0
C3 C 0.75594 0.4934 0.12627 0.0
C4 C 0.7641 0.47642 0.12119 0.0
C5 C 0.77158 0.47108 0.06987 0.0
C6 C 0.74874 0.49955 0.18065 0.0
C7 C 0.73051 0.50392 0.18537 0.0
C8 C 0.72352 0.51118 0.23516 0.0
C9 C 0.73517 0.51428 0.28127 0.0
C10 C 0.75377 0.50993 0.27663 0.0
C11 C 0.76026 0.50235 0.2263 0.0
C12 C 0.76715 0.51385 0.32172 0.0
C13 C 0.78245 0.5243 0.3087 0.0
C14 C 0.7664 0.50507 0.3741 0.0
C15 C 0.78113 0.50599 0.41138 0.0
C16 C 0.79684 0.51581 0.39715 0.0
C17 C 0.70413 0.51611 0.23415 0.0
C18 C 0.6992 0.53341 0.21541 0.0
C19 C 0.69127 0.50218 0.23185 0.0
C20 C 0.67446 0.50504 0.20644 0.0
C21 C 0.67015 0.5219 0.18244 0.0
C22 C 0.68236 0.5363 0.18994 0.0
C23 C 0.79704 0.52529 0.34579 0.0
H24 H 0.76263 0.50928 0.99402 0.0
H25 H 0.74865 0.51799 0.0826 0.0
H26 H 0.76476 0.46737 0.15697 0.0
H27 H 0.77782 0.45788 0.06723 0.0
H28 H 0.72171 0.50193 0.14943 0.0
H29 H 0.77449 0.49911 0.22198 0.0
H30 H 0.72996 0.52032 0.31945 0.0
H31 H 0.78345 0.5311 0.26841 0.0
H32 H 0.75486 0.49676 0.38493 0.0
H33 H 0.78036 0.49868 0.4508 0.0
H34 H 0.70901 0.54427 0.21545 0.0
H35 H 0.69493 0.48861 0.24456 0.0
H36 H 0.80888 0.5328 0.3327 0.0
H37 H 0.6794 0.54955 0.17294 0.0
H38 H 0.66554 0.49357 0.20126 0.0
C39 C 0.99148 0.75234 0.01118 0.0
C40 C 0.00708 0.76248 0.99939 0.0
C41 C 0.9881 0.74619 0.06583 0.0
C42 C 1.00011 0.75037 0.10962 0.0
C43 C 0.01584 0.76018 0.09764 0.0
C44 C 0.01936 0.76604 0.04307 0.0
C45 C 0.99677 0.74391 0.16745 0.0
C46 C 0.99343 0.72566 0.17688 0.0
C47 C 0.99203 0.71874 0.23152 0.0
C48 C 0.99361 0.73055 0.27808 0.0
C49 C 0.99666 0.74927 0.26896 0.0
C50 C 0.99817 0.75563 0.21327 0.0
C51 C 0.9986 0.76273 0.31555 0.0
C52 C 0.9857 0.76421 0.35892 0.0
C53 C 0.01215 0.77604 0.31182 0.0
C54 C 0.01197 0.79113 0.34704 0.0
C55 C 0.99843 0.79327 0.38788 0.0
C56 C 0.99062 0.6988 0.23568 0.0
C57 C 0.97506 0.69043 0.21408 0.0
C58 C 0.00662 0.68867 0.23917 0.0
C59 C 0.00759 0.67135 0.21549 0.0
C60 C 0.99258 0.66381 0.18768 0.0
C61 C 0.97601 0.67313 0.1904 0.0
C62 C 0.98566 0.77932 0.39496 0.0
H63 H 0.98178 0.74943 0.9784 0.0
H64 H 0.97594 0.7385 0.07418 0.0
H65 H 0.02544 0.7633 0.13055 0.0
H66 H 0.0314 0.774 0.03565 0.0
H67 H 0.99282 0.71654 0.14123 0.0
H68 H 1.00041 0.76989 0.20523 0.0
H69 H 0.99283 0.72524 0.32048 0.0
H70 H 0.97504 0.75426 0.36285 0.0
H71 H 0.02251 0.7752 0.27966 0.0
H72 H 0.02218 0.80145 0.34122 0.0
H73 H 0.96267 0.69808 0.20961 0.0
H74 H 0.0189 0.6949 0.25448 0.0
H75 H 0.97508 0.78059 0.42625 0.0
H76 H 0.96416 0.66789 0.16942 0.0
H77 H 0.02048 0.66442 0.21538 0.0
C78 C 0.75797 0.03786 0.04052 0.0
C79 C 0.74583 0.05229 0.04663 0.0
C80 C 0.76603 0.03008 0.08757 0.0
C81 C 0.76227 0.03666 0.14182 0.0
C82 C 0.75119 0.05198 0.1475 0.0
C83 C 0.74303 0.05972 0.1003 0.0
C84 C 0.76867 0.02653 0.19194 0.0
C85 C 0.78568 0.01837 0.19149 0.0
C86 C 0.79099 0.00652 0.23431 0.0
C87 C 0.77919 1.00316 0.27999 0.0
C88 C 0.76221 0.01198 0.28231 0.0
C89 C 0.75716 0.0235 0.2379 0.0
C90 C 0.74887 0.00908 0.32859 0.0
C91 C 0.74174 0.99186 0.34001 0.0
C92 C 0.74093 0.02414 0.35476 0.0
C93 C 0.72558 0.02224 0.38864 0.0
C94 C 0.7176 1.0052 0.39717 0.0
C95 C 0.80874 0.9976 0.22663 0.0
C96 C 0.81034 0.98441 0.18454 0.0
C97 C 0.82442 0.00632 0.24551 0.0
C98 C 0.84112 1.00306 0.21931 0.0
C99 C 0.84242 0.99123 0.17302 0.0
C100 C 0.82696 0.98126 0.15801 0.0
C101 C 0.72625 0.98994 0.37398 0.0
H102 H 0.76043 0.03194 0.99959 0.0
H103 H 0.77436 0.01821 0.08151 0.0
H104 H 0.74827 0.05755 0.18861 0.0
H105 H 0.73359 0.07074 0.10634 0.0
H106 H 0.79482 0.02089 0.15661 0.0
H107 H 0.74376 0.02944 0.23798 0.0
H108 H 0.78315 0.99391 0.31308 0.0
H109 H 0.74743 0.98004 0.31986 0.0
H110 H 0.74616 0.03758 0.34688 0.0
H111 H 0.71964 0.03425 0.40688 0.0
H112 H 0.79837 0.97787 0.16816 0.0
H113 H 0.82349 0.01683 0.27701 0.0
H114 H 0.7205 0.9766 0.37949 0.0
H115 H 0.82721 0.97215 0.12248 0.0
H116 H 0.85276 0.01069 0.23314 0.0
C117 C 0.5097 0.73109 0.40099 0.0
C118 C 0.52193 0.71657 0.39523 0.0
C119 C 0.51077 0.74626 0.36523 0.0
C120 C 0.52406 0.7472 0.32298 0.0
C121 C 0.53689 0.73323 0.31964 0.0
C122 C 0.53589 0.71821 0.35526 0.0
C123 C 0.52318 0.76093 0.27694 0.0
C124 C 0.52307 0.77981 0.28692 0.0
C125 C 0.52294 0.79194 0.24091 0.0
C126 C 0.5225 0.78519 0.18604 0.0
C127 C 0.52181 0.76667 0.17553 0.0
C128 C 0.52236 0.75463 0.22112 0.0
C129 C 0.51983 0.76011 0.11687 0.0
C130 C 0.50849 0.76929 0.07887 0.0
C131 C 0.52891 0.74454 0.09864 0.0
C132 C 0.52614 0.73789 0.04448 0.0
C133 C 0.51426 0.74668 0.00718 0.0
C134 C 0.52269 0.81188 0.24586 0.0
C135 C 0.50593 0.82073 0.24365 0.0
C136 C 0.53825 0.82148 0.2297 0.0
C137 C 0.53684 0.83872 0.20562 0.0
C138 C 0.5198 0.84671 0.19705 0.0
C139 C 0.50449 0.83798 0.21961 0.0
C140 C 0.50583 0.76271 0.02459 0.0
H141 H 0.49875 0.73034 0.43115 0.0
H142 H 0.50059 0.75672 0.36846 0.0
H143 H 0.54737 0.73361 0.28776 0.0
H144 H 0.54585 0.7076 0.35041 0.0
H145 H 0.52341 0.78494 0.32952 0.0
H146 H 0.52162 0.74023 0.21337 0.0
H147 H 0.52253 0.79461 0.15101 0.0
H148 H 0.50113 0.78125 0.09161 0.0
H149 H 0.53795 0.73731 0.1265 0.0
H150 H 0.53267 0.72533 0.03297 0.0
H151 H 0.49368 0.81351 0.25462 0.0
H152 H 0.55128 0.8148 0.22955 0.0
H153 H 0.4967 0.76988 0.99688 0.0
H154 H 0.49119 0.84387 0.21482 0.0
H155 H 0.54894 0.84493 0.18871 0.0
C156 C 0.2499 0.44947 0.29391 0.0
C157 C 0.23476 0.43962 0.27578 0.0
C158 C 0.2629 0.45524 0.25526 0.0
C159 C 0.2612 0.45091 0.19796 0.0
C160 C 0.24762 0.43875 0.18167 0.0
C161 C 0.23442 0.43328 0.22005 0.0
C162 C 0.27121 0.46154 0.15492 0.0
C163 C 0.28898 0.46723 0.16426 0.0
C164 C 0.29721 0.48007 0.12899 0.0
C165 C 0.28748 0.48715 0.08273 0.0
C166 C 0.26988 0.48075 0.0713 0.0
C167 C 0.26198 0.46811 0.10772 0.0
C168 C 0.25854 0.48726 0.02385 0.0
C169 C 0.24986 0.50409 0.02702 0.0
C170 C 0.25258 0.47474 0.98363 0.0
C171 C 0.23754 0.47843 0.94988 0.0
C172 C 0.22794 0.49475 0.95562 0.0
C173 C 0.31553 0.48641 0.14499 0.0
C174 C 0.31786 0.50363 0.16847 0.0
C175 C 0.32969 0.47383 0.14924 0.0
C176 C 0.34541 0.47796 0.17925 0.0
C177 C 0.34726 0.49473 0.20641 0.0
C178 C 0.33355 0.50774 0.19901 0.0
C179 C 0.23474 0.50782 0.9932 0.0
H180 H 0.25089 0.45409 0.33698 0.0
H181 H 0.27327 0.46445 0.26961 0.0
H182 H 0.24628 0.43467 0.13815 0.0
H183 H 0.22309 0.42556 0.20438 0.0
H184 H 0.29626 0.46218 0.20057 0.0
H185 H 0.24805 0.46419 0.10064 0.0
H186 H 0.29356 0.4973 0.05582 0.0
H187 H 0.25393 0.51383 0.05848 0.0
H188 H 0.25877 0.46149 0.98124 0.0
H189 H 0.23273 0.46791 0.92213 0.0
H190 H 0.30702 0.51345 0.16669 0.0
H191 H 0.32808 0.46034 0.13235 0.0
H192 H 0.22794 0.52066 0.99824 0.0
H193 H 0.33462 0.52086 0.21877 0.0
H194 H 0.35555 0.46755 0.18434 0.0
C195 C 0.05715 0.24999 0.30654 0.0
C196 C 0.071 0.23723 0.29833 0.0
C197 C 0.05132 0.26087 0.2624 0.0
C198 C 0.05906 0.25919 0.20876 0.0
C199 C 0.0737 0.24739 0.20113 0.0
C200 C 0.07975 0.23662 0.2457 0.0
C201 C 0.05032 0.26828 0.16045 0.0
C202 C 0.0446 0.28619 0.16531 0.0
C203 C 0.03326 0.29402 0.12497 0.0
C204 C 0.02764 0.28365 0.07821 0.0
C205 C 0.03401 0.26573 0.07172 0.0
C206 C 0.0454 0.25831 0.11289 0.0
C207 C 0.02822 0.25363 0.02526 0.0
C208 C 0.0113 0.24507 0.02765 0.0
C209 C 0.04106 0.2474 0.98624 0.0
C210 C 0.03738 0.23245 0.95195 0.0
C211 C 0.02086 0.22314 0.9566 0.0
C212 C 0.02695 0.31266 0.13662 0.0
C213 C 0.0115 0.31523 0.16999 0.0
C214 C 0.03909 0.32709 0.13003 0.0
C215 C 0.03647 0.34334 0.15913 0.0
C216 C 0.02174 0.34548 0.1962 0.0
C217 C 0.00888 0.33146 0.19932 0.0
C218 C 0.00768 0.22996 0.99382 0.0
H219 H 0.04974 0.25068 0.34577 0.0
H220 H 0.03983 0.26967 0.26938 0.0
H221 H 0.08002 0.24602 0.16022 0.0
H222 H 0.09064 0.22717 0.23808 0.0
H223 H 0.04842 0.29394 0.20211 0.0
H224 H 0.04951 0.24428 0.10951 0.0
H225 H 0.01849 0.28941 0.04754 0.0
H226 H 1.00133 0.24933 0.05827 0.0
H227 H 0.05436 0.25348 0.98455 0.0
H228 H 0.04792 0.22752 0.92433 0.0
H229 H 1.00224 0.30413 0.1772 0.0
H230 H 0.05134 0.3253 0.10564 0.0
H231 H 0.99476 0.22323 0.9982 0.0
H232 H 0.99746 0.33245 0.22767 0.0
H233 H 0.04648 0.3539 0.15468 0.0
C234 C 0.25745 0.04411 0.29312 0.0
C235 C 0.26615 0.06105 0.29486 0.0
C236 C 0.24658 0.03941 0.24782 0.0
C237 C 0.2444 0.05135 0.2027 0.0
C238 C 0.2518 0.06873 0.20572 0.0
C239 C 0.26229 0.07368 0.25204 0.0
C240 C 0.23621 0.04463 0.15048 0.0
C241 C 0.21881 0.03753 0.15145 0.0
C242 C 0.21184 0.02834 0.10493 0.0
C243 C 0.22272 0.02604 0.05634 0.0
C244 C 0.2404 0.03347 0.05473 0.0
C245 C 0.2468 0.04285 0.10212 0.0
C246 C 0.25327 0.03088 0.00681 0.0
C247 C 0.25775 0.01353 0.9871 0.0
C248 C 0.2637 0.04563 0.98818 0.0
C249 C 0.27908 0.043 0.95491 0.0
C250 C 0.28439 0.02556 0.93858 0.0
C251 C 0.19328 0.02109 0.11147 0.0
C252 C 0.19062 0.00621 0.14727 0.0
C253 C 0.17853 0.03239 0.09966 0.0
C254 C 0.16189 0.02977 0.12689 0.0
C255 C 0.1597 0.0159 0.16705 0.0
C256 C 0.17404 1.00362 0.17467 0.0
C257 C 0.27315 0.0109 0.95307 0.0
H258 H 0.26011 0.03375 0.32412 0.0
H259 H 0.241 0.02589 0.24604 0.0
H260 H 0.25003 0.07819 0.17136 0.0
H261 H 0.26818 0.08706 0.25248 0.0
H262 H 0.21076 0.0388 0.18945 0.0
H263 H 0.26058 0.04784 0.10283 0.0
H264 H 0.21756 0.0186 0.02065 0.0
H265 H 0.25012 1.00188 1.00112 0.0
H266 H 0.26056 0.05919 1.00219 0.0
H267 H 0.28723 0.05461 0.94364 0.0
H268 H 0.20192 0.99762 0.15841 0.0
H269 H 0.18034 0.04422 0.07335 0.0
H270 H 0.27687 0.9973 0.94107 0.0
H271 H 0.17304 0.99285 0.20541 0.0
H272 H 0.15108 0.03929 0.11889 0.0
C273 C 0.48788 0.27263 0.94959 0.0
C274 C 0.50164 0.28553 0.95774 0.0
C275 C 0.48667 0.25727 0.98443 0.0
C276 C 0.49928 0.25441 0.02766 0.0
C277 C 0.51373 0.26659 0.03303 0.0
C278 C 0.51493 0.28189 0.99847 0.0
C279 C 0.49499 0.24213 0.07551 0.0
C280 C 0.4971 0.22311 0.07358 0.0
C281 C 0.49309 0.21258 0.12187 0.0
C282 C 0.48704 0.22113 0.17096 0.0
C283 C 0.48541 0.23988 0.17357 0.0
C284 C 0.48924 0.25025 0.12574 0.0
C285 C 0.48126 0.2487 0.22776 0.0
C286 C 0.46677 0.24282 0.26144 0.0
C287 C 0.49232 0.26276 0.2469 0.0
C288 C 0.48891 0.27092 0.2985 0.0
C289 C 0.4743 0.26528 0.33202 0.0
C290 C 0.49645 0.19287 0.12632 0.0
C291 C 0.48166 0.18112 0.13258 0.0
C292 C 0.5136 0.18688 0.14328 0.0
C293 C 0.51565 0.17014 0.17033 0.0
C294 C 0.50059 0.159 0.18089 0.0
C295 C 0.48372 0.16431 0.15916 0.0
C296 C 0.4632 0.25117 0.31303 0.0
H297 H 0.47736 0.275 0.91889 0.0
H298 H 0.47515 0.24835 0.98025 0.0
H299 H 0.52347 0.26488 0.06657 0.0
H300 H 0.5259 0.29131 0.00538 0.0
H301 H 0.50207 0.21668 0.03571 0.0
H302 H 0.48789 0.26483 0.12774 0.0
H303 H 0.48454 0.21314 0.2085 0.0
H304 H 0.45807 0.23196 0.24746 0.0
H305 H 0.50372 0.26737 0.22209 0.0
H306 H 0.49747 0.28202 0.31148 0.0
H307 H 0.46821 0.18562 0.1214 0.0
H308 H 0.52514 0.19584 0.14035 0.0
H309 H 0.45179 0.24668 0.33796 0.0
H310 H 0.4718 0.15618 0.16681 0.0
H311 H 0.52888 0.16639 0.18586 0.0
C312 C 0.98074 0.02953 0.53495 0.0
Eu313 Eu 0.99104 0.01428 0.62725 0.0
C314 C 0.98717 0.04702 0.51408 0.0
C315 C 0.97531 0.05927 0.48833 0.0
C316 C 0.98041 0.07738 0.48145 0.0
C317 C 0.9973 0.08335 0.50105 0.0
C318 C 0.00937 0.07082 0.52433 0.0
C319 C 1.00428 0.05291 0.53108 0.0
C320 C 0.96997 1.00383 0.71683 0.0
C321 C 0.00737 0.04376 0.716 0.0
C322 C 0.03044 0.98872 0.81702 0.0
Eu323 Eu 0.01562 1.00071 0.72598 0.0
C324 C 0.03248 0.9696 0.83341 0.0
C325 C 0.04932 0.961 0.82776 0.0
C326 C 0.05044 0.94216 0.8286 0.0
C327 C 0.03473 0.93173 0.83494 0.0
C328 C 0.01818 0.94034 0.84505 0.0
C329 C 0.01705 0.95908 0.84455 0.0
C330 C 0.0321 1.00487 0.62477 0.0
C331 C 0.99885 0.97123 0.64129 0.0
O332 O 0.99271 0.0164 0.53584 0.0
O333 O 0.97165 0.03083 0.58203 0.0
O334 O 0.96349 0.00943 0.66936 0.0
O335 O 0.98685 1.00358 0.71231 0.0
O336 O 0.99962 0.0409 0.66668 0.0
O337 O 0.01371 0.03045 0.74751 0.0
O338 O 0.01384 0.99481 0.81533 0.0
O339 O 0.03993 0.9938 0.77321 0.0
O340 O 0.03548 0.99177 0.65941 0.0
O341 O 0.02055 0.01557 0.64563 0.0
O342 O 1.00397 0.97437 0.69382 0.0
O343 O 0.99518 0.9846 0.6057 0.0
H344 H 0.96185 0.05507 0.47627 0.0
H345 H 0.9709 0.08683 0.4632 0.0
H346 H 0.02261 0.07496 0.53877 0.0
H347 H 0.01332 0.04384 0.55275 0.0
H348 H 0.06141 0.9688 0.81922 0.0
H349 H 0.0634 0.93576 0.82127 0.0
H350 H 1.00596 0.93255 0.8516 0.0
H351 H 1.00386 0.9652 0.84962 0.0
C352 C 0.48187 0.97684 0.53579 0.0
Eu353 Eu 0.49562 0.98725 0.63027 0.0
C354 C 0.46711 0.98495 0.50373 0.0
C355 C 0.45672 0.97445 0.46703 0.0
C356 C 0.44082 0.98152 0.44407 0.0
C357 C 0.43542 0.99922 0.45711 0.0
C358 C 0.44618 0.00985 0.4924 0.0
C359 C 0.46173 1.00266 0.51623 0.0
C360 C 0.5039 0.9676 0.72479 0.0
C361 C 0.46589 1.00539 0.71687 0.0
C362 C 0.52201 0.02348 0.83121 0.0
Eu363 Eu 0.50851 0.01289 0.73647 0.0
C364 C 0.54063 0.02864 0.84489 0.0
C365 C 0.54404 0.0442 0.87664 0.0
C366 C 0.56175 0.05038 0.8835 0.0
C367 C 0.57626 0.04106 0.85858 0.0
C368 C 0.57276 0.0253 0.82766 0.0
C369 C 0.55515 0.01915 0.82094 0.0
C370 C 0.50201 0.0325 0.64036 0.0
C371 C 0.53839 0.9979 0.64428 0.0
O372 O 0.4968 0.98636 0.53876 0.0
O373 O 0.47684 0.97026 0.58451 0.0
O374 O 0.49864 0.96036 0.67794 0.0
O375 O 0.50466 0.98434 0.71687 0.0
O376 O 0.46952 0.99926 0.66547 0.0
O377 O 0.47869 0.0095 0.7537 0.0
O378 O 0.51945 0.00645 0.81879 0.0
O379 O 0.51366 0.03445 0.79672 0.0
O380 O 0.50747 0.03955 0.68736 0.0
O381 O 0.50002 0.01582 0.64879 0.0
O382 O 0.53514 1.00571 0.69375 0.0
O383 O 0.52555 0.99066 0.61226 0.0
H384 H 0.46047 0.9606 0.4581 0.0
H385 H 0.43255 0.9731 0.41726 0.0
H386 H 0.44202 0.02337 0.50403 0.0
H387 H 0.46905 0.01064 0.54667 0.0
H388 H 0.53298 0.05179 0.89492 0.0
H389 H 0.56409 0.06246 0.90802 0.0
H390 H 0.58361 0.01798 0.80718 0.0
H391 H 0.55288 0.00722 0.79562 0.0
C392 C 0.53068 0.47935 0.55803 0.0
Eu393 Eu 0.52083 0.49747 0.64549 0.0
C394 C 0.52151 0.46302 0.53829 0.0
C395 C 0.53091 0.44934 0.51016 0.0
C396 C 0.52261 0.4326 0.50096 0.0
C397 C 0.5049 0.42934 0.52049 0.0
C398 C 0.49541 0.4434 0.54677 0.0
C399 C 0.50361 0.46001 0.55546 0.0
C400 C 0.53999 0.50858 0.7361 0.0
C401 C 0.50342 0.46776 0.73452 0.0
C402 C 0.48915 0.52604 0.84321 0.0
Eu403 Eu 0.49799 0.51026 0.75067 0.0
C404 C 0.48021 0.54358 0.84778 0.0
C405 C 0.47324 0.55149 0.79868 0.0
C406 C 0.46897 0.56978 0.79755 0.0
C407 C 0.47143 0.58035 0.84568 0.0
C408 C 0.47707 0.57215 0.89608 0.0
C409 C 0.48161 0.55381 0.89698 0.0
C410 C 0.47604 0.50613 0.65868 0.0
C411 C 0.51131 0.5397 0.65471 0.0
O412 O 0.52112 0.49421 0.55451 0.0
O413 O 0.5386 0.47752 0.60692 0.0
O414 O 0.54532 0.51103 0.68444 0.0
O415 O 0.52557 0.49952 0.73706 0.0
O416 O 0.50885 0.47146 0.6825 0.0
O417 O 0.50017 0.48066 0.77165 0.0
O418 O 0.50543 0.52709 0.82153 0.0
O419 O 0.47938 0.51305 0.82119 0.0
O420 O 0.47017 0.51084 0.70793 0.0
O421 O 0.49274 0.50357 0.66269 0.0
O422 O 0.5062 0.53663 0.70744 0.0
O423 O 0.51608 0.52647 0.6203 0.0
H424 H 0.54481 0.45136 0.49721 0.0
H425 H 0.5302 0.42212 0.47972 0.0
H426 H 0.48194 0.44135 0.56349 0.0
H427 H 0.49622 0.4702 0.57853 0.0
H428 H 0.47231 0.54383 0.76004 0.0
H429 H 0.4647 0.57588 0.75831 0.0
H430 H 0.47923 0.58018 0.93349 0.0
H431 H 0.48724 0.54795 0.93486 0.0
C432 C 0.02622 0.52712 0.53267 0.0
Eu433 Eu 0.01739 0.51837 0.63478 0.0
C434 C 0.03865 0.51756 0.49514 0.0
C435 C 0.04381 0.52479 0.44304 0.0
C436 C 0.05641 0.51561 0.40955 0.0
C437 C 0.06366 0.49901 0.42762 0.0
C438 C 0.05804 0.4917 0.47923 0.0
C439 C 0.04585 0.50101 0.51294 0.0
C440 C 0.01236 0.5376 0.7302 0.0
C441 C 0.04711 0.50307 0.722 0.0
C442 C 0.9899 0.48705 0.83577 0.0
Eu443 Eu 1.0049 0.4955 0.74122 0.0
C444 C 0.97026 0.48673 0.84705 0.0
C445 C 0.96044 0.47081 0.83697 0.0
C446 C 0.94174 0.47143 0.83053 0.0
C447 C 0.93248 0.48791 0.8349 0.0
C448 C 0.94205 0.50351 0.85022 0.0
C449 C 0.96078 0.50292 0.85644 0.0
C450 C 0.0144 0.47335 0.65319 0.0
C451 C 0.97427 0.50914 0.65185 0.0
O452 O 0.01152 0.51815 0.54517 0.0
O453 O 0.03376 0.53439 0.57695 0.0
O454 O 0.02372 0.54215 0.69093 0.0
O455 O 1.00294 0.5243 0.7144 0.0
O456 O 0.04346 0.50581 0.66795 0.0
O457 O 0.03416 0.50136 0.76014 0.0
O458 O 0.99712 0.50296 0.82663 0.0
O459 O 0.99558 0.47493 0.7998 0.0
O460 O 0.00932 0.46733 0.702 0.0
O461 O 0.01477 0.49023 0.65629 0.0
O462 O 0.97797 0.4996 0.69764 0.0
O463 O 0.98686 0.51797 0.62289 0.0
H464 H 0.03841 0.53762 0.42893 0.0
H465 H 0.06071 0.52157 0.3701 0.0
H466 H 0.06375 0.47918 0.49487 0.0
H467 H 0.04233 0.49546 0.55367 0.0
H468 H 0.9673 0.45806 0.83034 0.0
H469 H 0.93458 0.45909 0.82051 0.0
H470 H 0.93518 0.51636 0.85452 0.0
H471 H 0.96789 0.51538 0.86513 0.0
H472 H 0.14171 0.98627 0.21049 0.0
H473 H 0.11795 0.98593 0.28198 0.0
H474 H 0.1171 0.04417 0.28223 0.0
H475 H 0.14139 0.04464 0.21282 0.0
H476 H 0.11747 0.03258 0.3857 0.0
H477 H 0.08218 0.01803 0.22391 0.0
H478 H 0.074 1.0013 0.13811 0.0
H479 H 0.06886 0.95242 0.23425 0.0
H480 H 0.07725 0.96881 0.32055 0.0
H481 H 0.04237 0.03671 0.57393 0.0
H482 H 0.06089 0.04032 0.48885 0.0
H483 H 0.06533 0.98237 0.47516 0.0
H484 H 0.04604 0.97883 0.55801 0.0
H485 H 0.06158 0.9959 0.37437 0.0
H486 H 0.09853 0.01034 0.53506 0.0
H487 H 0.1073 0.02707 0.62031 0.0
H488 H 0.10995 0.07632 0.52501 0.0
H489 H 0.10067 0.05999 0.43952 0.0
C490 C 0.13646 0.99903 0.22552 0.0
C491 C 0.14357 0.01548 0.2054 0.0
C492 C 0.12269 0.99882 0.26618 0.0
C493 C 0.11551 0.01503 0.28746 0.0
C494 C 0.12231 0.03145 0.26659 0.0
C495 C 0.13611 0.03168 0.22616 0.0
C496 C 0.10165 0.01492 0.33346 0.0
C497 C 0.10509 0.02481 0.3827 0.0
C498 C 0.08561 1.00452 0.33043 0.0
C499 C 0.0805 0.99463 0.27863 0.0
C500 C 0.07944 1.00369 0.2267 0.0
C501 C 0.07474 0.99427 0.17798 0.0
C502 C 0.07095 0.9758 0.1807 0.0
C503 C 0.07181 0.96672 0.23219 0.0
C504 C 0.07652 0.97607 0.28104 0.0
C505 C 0.04672 0.02479 0.5514 0.0
C506 C 0.04233 0.0075 0.57166 0.0
C507 C 0.05765 0.02684 0.50341 0.0
C508 C 0.06474 0.01161 0.4755 0.0
C509 C 0.06006 0.99435 0.49549 0.0
C510 C 0.04908 0.99233 0.54307 0.0
C511 C 0.07749 0.01342 0.42682 0.0
C512 C 0.07387 1.00382 0.37711 0.0
C513 C 0.09337 0.02411 0.42939 0.0
C514 C 0.09868 0.03397 0.48103 0.0
C515 C 0.10076 0.02478 0.53242 0.0
C516 C 0.10582 0.03419 0.5808 0.0
C517 C 0.10908 0.05277 0.57816 0.0
C518 C 0.10732 0.06196 0.52709 0.0
C519 C 0.10211 0.05264 0.47869 0.0
H520 H 0.11304 0.06003 0.61562 0.0
H521 H 0.06732 0.96853 0.14293 0.0
H522 H 0.4853 0.12516 0.17076 0.0
H523 H 0.48573 0.10045 0.23958 0.0
H524 H 0.51859 0.13286 0.34996 0.0
H525 H 0.51859 0.15725 0.28095 0.0
H526 H 0.53018 0.10052 0.35653 0.0
H527 H 0.4707 0.12676 0.36442 0.0
H528 H 0.4411 0.13643 0.32766 0.0
H529 H 0.42898 0.08177 0.28093 0.0
H530 H 0.45864 0.07182 0.31669 0.0
H531 H 0.50324 0.06877 0.62797 0.0
H532 H 0.50316 0.08649 0.5412 0.0
H533 H 0.49783 0.03771 0.44419 0.0
H534 H 0.49899 0.01978 0.53137 0.0
H535 H 0.47234 0.07421 0.42351 0.0
H536 H 0.53269 0.04855 0.424 0.0
H537 H 0.56138 0.04047 0.47023 0.0
H538 H 0.57079 0.09627 0.50944 0.0
H539 H 0.54196 0.10463 0.46437 0.0
C540 C 0.49273 0.12694 0.20954 0.0
C541 C 0.50196 0.14321 0.22009 0.0
C542 C 0.4929 0.11282 0.24911 0.0
C543 C 0.50196 0.11477 0.30078 0.0
C544 C 0.51153 0.13086 0.31061 0.0
C545 C 0.51157 0.14484 0.27085 0.0
C546 C 0.50125 0.1004 0.34535 0.0
C547 C 0.51747 0.09484 0.37092 0.0
C548 C 0.48477 0.09261 0.36428 0.0
C549 C 0.46699 0.09859 0.34251 0.0
C550 C 0.46179 0.11684 0.34584 0.0
C551 C 0.44499 0.12236 0.32526 0.0
C552 C 0.4332 0.10974 0.30177 0.0
C553 C 0.43816 0.09154 0.29897 0.0
C554 C 0.45496 0.08595 0.31937 0.0
C555 C 0.50197 0.06175 0.58825 0.0
C556 C 0.50073 0.04279 0.5867 0.0
C557 C 0.5019 0.07194 0.53868 0.0
C558 C 0.50039 0.06345 0.48626 0.0
C559 C 0.49883 0.04454 0.48429 0.0
C560 C 0.49929 0.03429 0.53413 0.0
C561 C 0.50116 0.07458 0.4341 0.0
C562 C 0.485 0.07966 0.4078 0.0
C563 C 0.51761 0.08212 0.41496 0.0
C564 C 0.53508 0.07718 0.44133 0.0
C565 C 0.54079 0.05907 0.44298 0.0
C566 C 0.55709 0.05444 0.46887 0.0
C567 C 0.56788 0.06784 0.49288 0.0
C568 C 0.56241 0.0859 0.49089 0.0
C569 C 0.54609 0.09059 0.46514 0.0
H570 H 0.5805 0.06423 0.5129 0.0
H571 H 0.42019 0.11404 0.28591 0.0
H572 H 0.38317 0.48567 0.19417 0.0
H573 H 0.40731 0.48835 0.264 0.0
H574 H 0.36979 0.5128 0.38023 0.0
H575 H 0.34577 0.51038 0.31052 0.0
H576 H 0.40038 0.52961 0.38736 0.0
H577 H 0.38324 0.46681 0.38535 0.0
H578 H 0.37832 0.43656 0.34496 0.0
H579 H 0.43434 0.43346 0.29869 0.0
H580 H 0.43953 0.46383 0.338 0.0
H581 H 0.43985 0.51113 0.65181 0.0
H582 H 0.42069 0.51022 0.56826 0.0
H583 H 0.46712 0.49765 0.46581 0.0
H584 H 0.48652 0.49922 0.54949 0.0
H585 H 0.43524 0.47544 0.44512 0.0
H586 H 0.45252 0.53749 0.45487 0.0
H587 H 0.45727 0.56687 0.50117 0.0
H588 H 0.40052 0.57057 0.53719 0.0
H589 H 0.39546 0.54105 0.49188 0.0
C590 C 0.38009 0.49169 0.23453 0.0
C591 C 0.36248 0.49781 0.24657 0.0
C592 C 0.39391 0.49315 0.2746 0.0
C593 C 0.39039 0.50051 0.32803 0.0
C594 C 0.37295 0.50708 0.33946 0.0
C595 C 0.35919 0.50576 0.29933 0.0
C596 C 0.40467 0.50121 0.37249 0.0
C597 C 0.40787 0.51769 0.40012 0.0
C598 C 0.41492 0.48582 0.38856 0.0
C599 C 0.41172 0.46771 0.36393 0.0
C600 C 0.39447 0.45977 0.36599 0.0
C601 C 0.39164 0.44258 0.3434 0.0
C602 C 0.406 0.43311 0.31911 0.0
C603 C 0.42322 0.44082 0.31738 0.0
C604 C 0.42611 0.45802 0.33977 0.0
C605 C 0.44602 0.50814 0.61154 0.0
C606 C 0.4647 0.50498 0.60739 0.0
C607 C 0.43504 0.50766 0.56378 0.0
C608 C 0.44245 0.50389 0.51072 0.0
C609 C 0.46109 0.5005 0.50638 0.0
C610 C 0.47215 0.50127 0.55424 0.0
C611 C 0.43058 0.50368 0.46019 0.0
C612 C 0.42786 0.48734 0.43165 0.0
C613 C 0.42069 0.51913 0.44347 0.0
C614 C 0.42363 0.53697 0.47036 0.0
C615 C 0.44107 0.54449 0.47306 0.0
C616 C 0.44382 0.56118 0.49906 0.0
C617 C 0.42921 0.57056 0.52221 0.0
C618 C 0.41182 0.56328 0.51927 0.0
C619 C 0.409 0.54658 0.49338 0.0
H620 H 0.43137 0.58348 0.54232 0.0
H621 H 0.4038 0.41979 0.3018 0.0
H622 H 0.99164 0.36431 0.23215 0.0
H623 H 0.99017 0.38833 0.30263 0.0
H624 H 0.04808 0.38635 0.32085 0.0
H625 H 0.04966 0.36233 0.25104 0.0
H626 H 0.99811 0.38795 0.40909 0.0
H627 H 0.06456 0.42769 0.36087 0.0
H628 H 0.08287 0.43662 0.27863 0.0
H629 H 0.03654 0.43128 0.17176 0.0
H630 H 0.01786 0.42261 0.25336 0.0
H631 H 0.02248 0.4376 0.64885 0.0
H632 H 0.02389 0.41809 0.56593 0.0
H633 H 0.01223 0.46386 0.45946 0.0
H634 H 0.01076 0.48333 0.54268 0.0
H635 H 0.03668 0.44275 0.40954 0.0
H636 H 0.97915 0.4339 0.49458 0.0
H637 H 0.95764 0.4276 0.57145 0.0
H638 H 0.98087 0.37494 0.59402 0.0
H639 H 1.00271 0.38103 0.51776 0.0
C640 C 1.00409 0.36901 0.25093 0.0
C641 C 0.02078 0.36132 0.2354 0.0
C642 C 1.00323 0.38281 0.29127 0.0
C643 C 0.01902 0.38935 0.31704 0.0
C644 C 0.0357 0.38188 0.301 0.0
C645 C 0.03658 0.36811 0.26072 0.0
C646 C 0.018 0.40319 0.36283 0.0
C647 C 0.00655 0.39992 0.40896 0.0
C648 C 0.02868 0.4191 0.3626 0.0
C649 C 0.03986 0.42428 0.31323 0.0
C650 C 0.05826 0.42846 0.31986 0.0
C651 C 0.06871 0.43349 0.27334 0.0
C652 C 0.06089 0.43446 0.22 0.0
C653 C 0.04259 0.43045 0.21306 0.0
C654 C 0.03208 0.42545 0.25942 0.0
C655 C 0.02041 0.44353 0.60767 0.0
C656 C 0.01679 0.46207 0.60216 0.0
C657 C 0.02114 0.43235 0.56026 0.0
C658 C 0.01796 0.4394 0.50621 0.0
C659 C 0.0148 0.45805 0.50051 0.0
C660 C 0.01409 0.46923 0.54808 0.0
C661 C 0.01722 0.42716 0.45627 0.0
C662 C 0.02829 0.43074 0.40949 0.0
C663 C 1.00583 0.41176 0.45511 0.0
C664 C 0.99266 0.40799 0.50078 0.0
C665 C 0.97975 0.42103 0.51619 0.0
C666 C 0.96749 0.41749 0.55962 0.0
C667 C 0.96791 0.4009 0.58769 0.0
C668 C 0.98057 0.38779 0.57228 0.0
C669 C 0.99289 0.39127 0.52892 0.0
H670 H 0.95841 0.39818 0.6213 0.0
H671 H 0.06898 0.43835 0.18403 0.0
H672 H 0.85729 0.96262 0.11408 0.0
H673 H 0.88116 0.96376 0.04309 0.0
H674 H 0.88924 0.02035 0.0776 0.0
H675 H 0.86476 0.01961 0.14595 0.0
H676 H 0.88768 0.01652 0.97158 0.0
H677 H 0.92068 0.9863 0.1154 0.0
H678 H 0.92687 0.9631 0.18733 0.0
H679 H 0.92569 0.92183 0.06075 0.0
H680 H 0.91924 0.94477 0.98812 0.0
H681 H 0.98089 1.00085 0.82709 0.0
H682 H 0.96166 0.99731 0.91057 0.0
H683 H 0.91465 0.99456 0.80406 0.0
H684 H 0.93381 0.99826 0.72105 0.0
H685 H 0.93805 0.97278 0.9514 0.0
H686 H 0.88023 0.01732 0.86229 0.0
H687 H 0.87635 0.04276 0.79622 0.0
H688 H 0.9311 0.05941 0.82542 0.0
H689 H 0.93521 0.03424 0.89224 0.0
C690 C 0.86415 0.97533 0.10679 0.0
C691 C 0.8589 0.99102 0.13609 0.0
C692 C 0.878 0.97591 0.06644 0.0
C693 C 0.88717 0.99214 0.05482 0.0
C694 C 0.88242 0.00764 0.08548 0.0
C695 C 0.86849 0.00712 0.12538 0.0
C696 C 0.90079 0.99333 0.00828 0.0
C697 C 0.89869 0.00693 0.96746 0.0
C698 C 0.91544 0.98109 1.00288 0.0
C699 C 0.91931 0.96725 0.0464 0.0
C700 C 0.92159 0.97226 0.10296 0.0
C701 C 0.92518 0.95916 0.14384 0.0
C702 C 0.92663 0.941 0.12864 0.0
C703 C 0.92454 0.9359 0.07247 0.0
C704 C 0.92094 0.94895 0.03142 0.0
C705 C 0.96654 0.99912 0.82151 0.0
C706 C 0.95891 0.99979 0.76749 0.0
C707 C 0.9555 0.99715 0.86929 0.0
C708 C 0.93662 0.99592 0.86386 0.0
C709 C 0.92912 0.99581 0.80963 0.0
C710 C 0.94011 0.99786 0.76211 0.0
C711 C 0.92462 0.99569 0.91451 0.0
C712 C 0.92703 0.98232 0.95585 0.0
C713 C 0.9105 0.00843 0.92136 0.0
C714 C 0.90806 0.02378 0.88185 0.0
C715 C 0.89141 0.02646 0.85479 0.0
C716 C 0.88917 0.04082 0.81718 0.0
C717 C 0.90349 0.05266 0.8065 0.0
C718 C 0.92004 0.0502 0.83357 0.0
C719 C 0.92233 0.03587 0.87128 0.0
H720 H 0.90174 0.06376 0.77732 0.0
H721 H 0.92941 0.93087 0.16035 0.0
H722 H 0.49397 0.85146 0.11638 0.0
H723 H 0.49272 0.87441 0.043 0.0
H724 H 0.5402 0.89992 0.11096 0.0
H725 H 0.54142 0.87701 0.18578 0.0
H726 H 0.51345 0.9251 0.07187 0.0
H727 H 0.54605 0.8736 1.0047 0.0
H728 H 0.55118 0.84119 0.98711 0.0
H729 H 0.50377 0.83927 0.88355 0.0
H730 H 0.49819 0.87162 0.90129 0.0
H731 H 0.52802 0.97393 0.811 0.0
H732 H 0.53197 0.95595 0.89717 0.0
H733 H 0.48999 0.91966 0.84216 0.0
H734 H 0.48605 0.93761 0.75687 0.0
H735 H 0.51755 0.90096 0.87775 0.0
H736 H 0.48372 0.95176 0.94936 0.0
H737 H 0.47814 0.9841 0.96708 0.0
H738 H 0.52743 0.98748 0.06142 0.0
H739 H 0.53342 0.95519 0.04358 0.0
C740 C 0.5039 0.86219 0.11697 0.0
C741 C 0.51779 0.86232 0.15738 0.0
C742 C 0.50326 0.87525 0.07445 0.0
C743 C 0.51649 0.88879 0.07095 0.0
C744 C 0.52987 0.88957 0.11268 0.0
C745 C 0.5306 0.8764 0.15526 0.0
C746 C 0.51686 0.90122 0.02146 0.0
C747 C 0.51463 0.91989 0.02942 0.0
C748 C 0.51821 0.89443 0.96597 0.0
C749 C 0.52162 0.87501 0.95473 0.0
C750 C 0.53664 0.86624 0.97852 0.0
C751 C 0.53964 0.84788 0.96848 0.0
C752 C 0.52779 0.83817 0.93433 0.0
C753 C 0.51293 0.8468 0.91004 0.0
C754 C 0.50985 0.86516 0.92004 0.0
C755 C 0.51929 0.96247 0.81834 0.0
C756 C 0.50637 0.95748 0.77806 0.0
C757 C 0.52167 0.95205 0.86729 0.0
C758 C 0.51112 0.93649 0.87677 0.0
C759 C 0.4983 0.93155 0.83614 0.0
C760 C 0.49602 0.94186 0.78738 0.0
C761 C 0.51361 0.92488 0.92776 0.0
C762 C 0.51648 0.90629 0.9201 0.0
C763 C 0.5128 0.93178 0.98333 0.0
C764 C 0.50911 0.95112 0.99461 0.0
C765 C 0.49343 0.95943 0.97355 0.0
C766 C 0.49018 0.97775 0.98366 0.0
C767 C 0.50245 0.98785 0.01521 0.0
C768 C 0.51796 0.97964 0.0369 0.0
C769 C 0.52128 0.96133 0.02683 0.0
H770 H 0.49992 1.00203 0.02297 0.0
H771 H 0.53013 0.82395 0.92661 0.0
H772 H 0.63608 0.50715 0.1935 0.0
H773 H 0.61186 0.50684 0.12355 0.0
H774 H 0.64417 0.53995 0.01305 0.0
H775 H 0.66842 0.54025 0.08232 0.0
H776 H 0.60945 0.55021 0.0081 0.0
H777 H 0.64197 0.49405 0.9967 0.0
H778 H 0.65481 0.46562 0.03315 0.0
H779 H 0.60178 0.44748 0.08017 0.0
H780 H 0.58865 0.47594 0.0447 0.0
H781 H 0.57129 0.52803 0.74138 0.0
H782 H 0.59098 0.53235 0.82303 0.0
H783 H 0.55413 0.50137 0.92555 0.0
H784 H 0.53435 0.49709 0.84404 0.0
H785 H 0.58933 0.49035 0.93877 0.0
H786 H 0.5566 0.54587 0.94315 0.0
H787 H 0.544 0.57412 0.90465 0.0
H788 H 0.59753 0.59334 0.86866 0.0
H789 H 0.61045 0.56506 0.90618 0.0
C790 C 0.638 0.51448 0.15449 0.0
C791 C 0.65431 0.52368 0.14374 0.0
C792 C 0.62412 0.51428 0.11445 0.0
C793 C 0.62625 0.52314 0.06248 0.0
C794 C 0.64214 0.53302 0.05273 0.0
C795 C 0.65601 0.53325 0.09272 0.0
C796 C 0.61241 0.52141 0.01713 0.0
C797 C 0.60517 0.53712 0.99267 0.0
C798 C 0.60649 0.50434 0.99746 0.0
C799 C 0.61435 0.48721 0.01865 0.0
C800 C 0.63306 0.48406 0.01523 0.0
C801 C 0.6404 0.46794 0.03564 0.0
C802 C 0.62913 0.45478 0.05912 0.0
C803 C 0.6105 0.4577 0.06208 0.0
C804 C 0.6031 0.47383 0.04182 0.0
C805 C 0.56731 0.52228 0.78145 0.0
C806 C 0.55129 0.51221 0.78628 0.0
C807 C 0.57855 0.5248 0.82815 0.0
C808 C 0.57402 0.51724 0.88061 0.0
C809 C 0.55792 0.50732 0.88558 0.0
C810 C 0.5466 0.50494 0.83901 0.0
C811 C 0.58644 0.51914 0.92961 0.0
C812 C 0.59347 0.50345 0.95458 0.0
C813 C 0.59219 0.53621 0.94952 0.0
C814 C 0.58449 0.55327 0.92706 0.0
C815 C 0.56569 0.55605 0.9266 0.0
C816 C 0.55849 0.57208 0.90503 0.0
C817 C 0.56996 0.5855 0.88415 0.0
C818 C 0.58866 0.58292 0.88483 0.0
C819 C 0.59593 0.5669 0.9063 0.0
H820 H 0.56436 0.59792 0.86765 0.0
H821 H 0.63483 0.4423 0.07488 0.0
H822 H 0.96887 0.63561 0.16835 0.0
H823 H 0.97107 0.61227 0.0956 0.0
H824 H 0.02323 0.63287 0.0463 0.0
H825 H 0.02095 0.65639 0.11743 0.0
H826 H 1.00192 0.62872 0.95675 0.0
H827 H 0.01847 0.59242 0.11693 0.0
H828 H 0.0143 0.57905 0.21111 0.0
H829 H 0.96573 0.55291 0.15572 0.0
H830 H 0.96949 0.56633 0.06134 0.0
H831 H 0.03503 0.56251 0.77429 0.0
H832 H 0.03033 0.58173 0.85633 0.0
H833 H 0.97855 0.55665 0.88557 0.0
H834 H 0.9833 0.53724 0.80282 0.0
H835 H 0.99668 0.56252 0.98503 0.0
H836 H 0.98048 0.59767 0.82461 0.0
H837 H 0.98429 0.61096 0.73019 0.0
H838 H 0.03139 0.63954 0.78615 0.0
H839 H 0.02801 0.62622 0.88076 0.0
C840 C 0.98089 0.63508 0.14236 0.0
C841 C 0.99475 0.64793 0.14921 0.0
C842 C 0.98218 0.62163 0.10092 0.0
C843 C 0.99735 0.62072 0.06532 0.0
C844 C 0.01138 0.63323 0.0731 0.0
C845 C 0.01014 0.6466 0.11447 0.0
C846 C 0.99831 0.60752 0.01785 0.0
C847 C 1.00099 0.61424 0.96318 0.0
C848 C 0.99643 0.58862 0.02559 0.0
C849 C 0.99415 0.58055 0.08227 0.0
C850 C 0.00682 0.58395 0.12497 0.0
C851 C 1.00455 0.57634 0.17836 0.0
C852 C 0.98973 0.56518 0.18945 0.0
C853 C 0.97718 0.56158 0.1471 0.0
C854 C 0.97939 0.56917 0.09364 0.0
C855 C 0.02266 0.56102 0.79827 0.0
C856 C 0.00953 0.54835 0.78212 0.0
C857 C 0.01996 0.57205 0.8452 0.0
C858 C 1.00396 0.57088 0.87689 0.0
C859 C 0.991 0.55785 0.86187 0.0
C860 C 0.99373 0.54673 0.81471 0.0
C861 C 1.00073 0.58375 0.92429 0.0
C862 C 0.99754 0.57701 0.97871 0.0
C863 C 1.00204 0.60268 0.91644 0.0
C864 C 1.00407 0.61082 0.85967 0.0
C865 C 0.99172 0.60669 0.81669 0.0
C866 C 0.99379 0.61424 0.76315 0.0
C867 C 0.00809 0.62606 0.75215 0.0
C868 C 0.02033 0.63038 0.79472 0.0
C869 C 0.01833 0.62284 0.84834 0.0
H870 H 0.00967 0.6319 0.71066 0.0
H871 H 0.988 0.5593 0.2308 0.0
H872 H 0.0779 0.20143 0.27907 0.0
H873 H 0.07071 0.17685 0.34265 0.0
H874 H 0.06117 0.21483 0.47651 0.0
H875 H 0.06946 0.2397 0.41395 0.0
H876 H 0.0757 0.16299 0.46183 0.0
H877 H 0.01632 0.2084 0.49914 0.0
H878 H 1.00277 0.23643 0.46157 0.0
H879 H 0.01958 0.22185 0.29475 0.0
H880 H 0.0329 0.19362 0.33131 0.0
H881 H 0.0122 0.1036 0.58424 0.0
H882 H 0.02665 0.13314 0.57422 0.0
H883 H 0.0089 0.13588 0.4017 0.0
H884 H 0.9945 0.10626 0.41146 0.0
H885 H 0.00888 0.16968 0.45628 0.0
H886 H 0.04867 0.11716 0.42846 0.0
H887 H 0.06127 0.08846 0.46404 0.0
H888 H 0.08357 0.11615 0.60639 0.0
H889 H 0.07089 0.14497 0.57196 0.0
C890 C 0.07539 0.20465 0.32277 0.0
C891 C 0.07361 0.22267 0.34076 0.0
C892 C 0.07124 0.19046 0.35921 0.0
C893 C 0.06503 0.19412 0.41368 0.0
C894 C 0.0658 0.21182 0.4343 0.0
C895 C 0.07031 0.22601 0.39819 0.0
C896 C 0.05346 0.18059 0.44153 0.0
C897 C 0.06113 0.16458 0.46193 0.0
C898 C 0.03445 0.1826 0.44073 0.0
C899 C 0.02573 0.19906 0.41801 0.0
C900 C 0.017 0.21116 0.45443 0.0
C901 C 0.00937 0.22706 0.43332 0.0
C902 C 0.01036 0.23094 0.37583 0.0
C903 C 0.01884 0.21884 0.33926 0.0
C904 C 0.02641 0.20289 0.36014 0.0
C905 C 0.01116 0.11066 0.54446 0.0
C906 C 1.00263 0.10254 0.49814 0.0
C907 C 0.01931 0.12753 0.53894 0.0
C908 C 0.01907 0.13647 0.48699 0.0
C909 C 0.0092 0.12912 0.44215 0.0
C910 C 1.00101 0.11223 0.44768 0.0
C911 C 0.03107 0.15202 0.47657 0.0
C912 C 0.02346 0.16834 0.4586 0.0
C913 C 0.05011 0.15021 0.47936 0.0
C914 C 0.05876 0.13316 0.49788 0.0
C915 C 0.0563 0.11711 0.46728 0.0
C916 C 0.06342 0.10083 0.48728 0.0
C917 C 0.07315 0.10048 0.53755 0.0
C918 C 0.076 0.11645 0.56752 0.0
C919 C 0.06887 0.13276 0.54776 0.0
H920 H 0.07843 0.08784 0.55338 0.0
H921 H 1.00453 0.2433 0.35962 0.0
H922 H 0.29685 0.08153 0.27814 0.0
H923 H 0.32566 0.07639 0.32259 0.0
H924 H 0.30065 0.04016 0.44157 0.0
H925 H 0.27115 0.04697 0.40186 0.0
H926 H 0.33135 0.05055 0.4827 0.0
H927 H 0.3122 0.02539 0.30962 0.0
H928 H 0.30012 0.02549 0.21308 0.0
H929 H 0.34638 0.05539 0.15595 0.0
H930 H 0.35855 0.0558 0.25252 0.0
H931 H 0.40248 0.98422 0.47526 0.0
H932 H 0.37294 0.99823 0.45781 0.0
H933 H 0.39935 0.04425 0.38238 0.0
H934 H 0.4289 0.03042 0.40055 0.0
H935 H 0.3681 0.02832 0.32206 0.0
H936 H 0.38722 0.04814 0.5091 0.0
H937 H 0.39691 0.04162 0.60608 0.0
H938 H 0.34726 0.01333 0.63736 0.0
H939 H 0.33745 0.01929 0.53996 0.0
C940 C 0.29703 0.07329 0.31571 0.0
C941 C 0.28162 0.06378 0.33409 0.0
C942 C 0.31374 0.07019 0.3408 0.0
C943 C 0.31541 0.057 0.38287 0.0
C944 C 0.29975 0.04993 0.40772 0.0
C945 C 0.28289 0.05361 0.38415 0.0
C946 C 0.33307 0.04814 0.39252 0.0
C947 C 0.33937 0.0457 0.44763 0.0
C948 C 0.34329 0.04124 0.34678 0.0
C949 C 0.33619 0.0408 0.28841 0.0
C950 C 0.31975 0.03208 0.27653 0.0
C951 C 0.31288 0.03205 0.22182 0.0
C952 C 0.32246 0.04047 0.17842 0.0
C953 C 0.33895 0.04891 0.18965 0.0
C954 C 0.34584 0.04906 0.24437 0.0
C955 C 0.40189 0.99716 0.45399 0.0
C956 C 0.41781 0.00628 0.43887 0.0
C957 C 0.38511 1.00519 0.44459 0.0
C958 C 0.38412 0.02231 0.41951 0.0
C959 C 0.39996 0.03106 0.40209 0.0
C960 C 0.41674 0.02317 0.41225 0.0
C961 C 0.36656 0.03129 0.41186 0.0
C962 C 0.36018 0.03348 0.35699 0.0
C963 C 0.35595 0.0371 0.45796 0.0
C964 C 0.36167 0.03403 0.51701 0.0
C965 C 0.37842 0.04042 0.53648 0.0
C966 C 0.38393 0.03683 0.59159 0.0
C967 C 0.37271 0.02705 0.62788 0.0
C968 C 0.35593 0.02089 0.60918 0.0
C969 C 0.3504 0.02437 0.55402 0.0
H970 H 0.37696 0.02423 0.67048 0.0
H971 H 0.31713 0.04043 0.13607 0.0
H972 H 0.49751 0.27522 0.415 0.0
H973 H 0.49293 0.29991 0.48073 0.0
H974 H 0.43682 0.30303 0.43244 0.0
H975 H 0.44158 0.27861 0.36495 0.0
H976 H 0.45335 0.33226 0.40474 0.0
H977 H 0.44963 0.29988 0.57395 0.0
H978 H 0.45632 0.27738 0.64748 0.0
H979 H 0.50889 0.30056 0.67116 0.0
H980 H 0.50273 0.32298 0.59695 0.0
H981 H 0.46938 0.42091 0.50059 0.0
H982 H 0.45556 0.39106 0.49964 0.0
H983 H 0.50771 0.3667 0.52849 0.0
H984 H 0.52143 0.39656 0.53408 0.0
H985 H 0.48239 0.34886 0.58504 0.0
H986 H 0.48895 0.37205 0.39237 0.0
H987 H 0.48326 0.39452 0.31767 0.0
H988 H 0.42604 0.38758 0.33881 0.0
H989 H 0.43143 0.36513 0.41392 0.0
C990 C 0.48405 0.28075 0.41989 0.0
C991 C 0.47003 0.2754 0.38391 0.0
C992 C 0.48135 0.29473 0.45813 0.0
C993 C 0.46454 0.30348 0.46125 0.0
C994 C 0.44991 0.29651 0.4306 0.0
C995 C 0.45264 0.28254 0.39207 0.0
C996 C 0.46386 0.32216 0.48343 0.0
C997 C 0.45911 0.33583 0.44516 0.0
C998 C 0.47166 0.32691 0.53566 0.0
C999 C 0.47569 0.31315 0.5796 0.0
C1000 C 0.4627 0.3001 0.59437 0.0
C1001 C 0.46639 0.28736 0.63628 0.0
C1002 C 0.48302 0.28755 0.66398 0.0
C1003 C 0.49601 0.30046 0.64972 0.0
C1004 C 0.49241 0.3132 0.60775 0.0
C1005 C 0.4779 0.40924 0.50772 0.0
C1006 C 0.49659 0.41115 0.51685 0.0
C1007 C 0.46996 0.39217 0.50683 0.0
C1008 C 0.48063 0.37666 0.51329 0.0
C1009 C 0.49921 0.37851 0.52341 0.0
C1010 C 0.50711 0.39559 0.52543 0.0
C1011 C 0.47292 0.35844 0.50488 0.0
C1012 C 0.47604 0.34508 0.5457 0.0
C1013 C 0.46381 0.35383 0.45474 0.0
C1014 C 0.46058 0.36709 0.40905 0.0
C1015 C 0.47516 0.37538 0.38117 0.0
C1016 C 0.47199 0.38809 0.33877 0.0
C1017 C 0.4543 0.39251 0.32361 0.0
C1018 C 0.43974 0.38416 0.35066 0.0
C1019 C 0.44284 0.37143 0.39308 0.0
H1020 H 0.45187 0.40236 0.29081 0.0
H1021 H 0.48583 0.27771 0.69651 0.0
H1022 H 0.22176 0.46657 0.34247 0.0
H1023 H 0.19121 0.47005 0.37652 0.0
H1024 H 0.17797 0.41659 0.31783 0.0
H1025 H 0.20903 0.41272 0.28419 0.0
H1026 H 0.15664 0.44169 0.27159 0.0
H1027 H 0.1746 0.42726 0.45748 0.0
H1028 H 0.19283 0.42789 0.54406 0.0
H1029 H 0.18095 0.48424 0.56529 0.0
H1030 H 0.16298 0.48408 0.47824 0.0
H1031 H 0.06702 0.46343 0.39897 0.0
H1032 H 0.09508 0.44805 0.37157 0.0
H1033 H 0.12249 0.49935 0.36416 0.0
H1034 H 0.0946 0.5148 0.39135 0.0
H1035 H 0.13408 0.46904 0.44841 0.0
H1036 H 0.12114 0.48447 0.25516 0.0
H1037 H 0.1041 0.48458 0.1663 0.0
H1038 H 0.1074 0.42675 0.15867 0.0
H1039 H 0.12412 0.42625 0.24833 0.0
C1040 C 0.21274 0.45512 0.33899 0.0
C1041 C 0.21791 0.43939 0.30995 0.0
C1042 C 0.19513 0.4572 0.35847 0.0
C1043 C 0.18228 0.44361 0.34963 0.0
C1044 C 0.18769 0.42728 0.32486 0.0
C1045 C 0.20542 0.42512 0.30553 0.0
C1046 C 0.16292 0.44782 0.35804 0.0
C1047 C 0.15154 0.44718 0.31081 0.0
C1048 C 0.15644 0.45542 0.40878 0.0
C1049 C 0.16748 0.45566 0.46096 0.0
C1050 C 0.17601 0.43984 0.48024 0.0
C1051 C 0.18629 0.44011 0.52949 0.0
C1052 C 0.18808 0.4561 0.56009 0.0
C1053 C 0.17958 0.47186 0.54151 0.0
C1054 C 0.16933 0.47168 0.49222 0.0
C1055 C 0.07891 0.47144 0.38963 0.0
C1056 C 0.07873 0.49027 0.39731 0.0
C1057 C 0.09484 0.46266 0.37386 0.0
C1058 C 0.1107 0.47263 0.36576 0.0
C1059 C 0.11026 0.49152 0.36986 0.0
C1060 C 0.09433 0.50031 0.385 0.0
C1061 C 0.12825 0.46338 0.36166 0.0
C1062 C 0.13914 0.46309 0.4098 0.0
C1063 C 0.1343 0.45505 0.31177 0.0
C1064 C 0.12354 0.4553 0.2592 0.0
C1065 C 0.1179 0.47174 0.23527 0.0
C1066 C 0.10839 0.47188 0.18453 0.0
C1067 C 0.10463 0.45568 0.15694 0.0
C1068 C 0.11032 0.43929 0.18011 0.0
C1069 C 0.11978 0.43907 0.23095 0.0
H1070 H 0.09733 0.45583 0.11754 0.0
H1071 H 0.19601 0.45627 0.59826 0.0
H1072 H 0.03828 0.76612 0.93827 0.0
H1073 H 0.04437 0.79089 0.87305 0.0
H1074 H 0.98774 0.80431 0.87094 0.0
H1075 H 0.98158 0.78005 0.93742 0.0
H1076 H 0.02552 0.81428 0.76724 0.0
H1077 H 0.98897 0.83366 0.95283 0.0
H1078 H 0.98133 0.82395 0.04951 0.0
H1079 H 0.03615 0.80689 0.07538 0.0
H1080 H 0.04396 0.81624 0.97849 0.0
H1081 H 0.01246 0.91071 0.7722 0.0
H1082 H 0.01081 0.87772 0.77165 0.0
H1083 H 0.05652 0.87517 0.88375 0.0
H1084 H 0.05815 0.90823 0.88476 0.0
H1085 H 0.02609 0.85841 0.92446 0.0
H1086 H 0.06083 0.85982 0.75561 0.0
H1087 H 0.06817 0.8701 0.65966 0.0
H1088 H 0.01898 0.84683 0.59843 0.0
H1089 H 0.01099 0.83685 0.6942 0.0
C1090 C 0.02701 0.77385 0.92195 0.0
C1091 C 0.00956 0.77161 0.94444 0.0
C1092 C 0.03049 0.78781 0.88396 0.0
C1093 C 0.01652 0.7995 0.86798 0.0
C1094 C 0.99866 0.79532 0.88273 0.0
C1095 C 0.99517 0.78146 0.92109 0.0
C1096 C 0.0211 0.81844 0.85579 0.0
C1097 C 0.02558 0.82404 0.80117 0.0
C1098 C 0.02151 0.83094 0.90051 0.0
C1099 C 0.01701 0.82561 0.95883 0.0
C1100 C 0.99936 0.82787 0.97934 0.0
C1101 C 0.99499 0.82236 0.03397 0.0
C1102 C 0.00824 0.81477 0.06853 0.0
C1103 C 0.0259 0.81273 0.04854 0.0
C1104 C 0.03029 0.81807 0.99375 0.0
C1105 C 0.02229 0.90306 0.79611 0.0
C1106 C 0.03527 0.91191 0.82924 0.0
C1107 C 0.02145 0.88427 0.79524 0.0
C1108 C 0.03358 0.8741 0.82754 0.0
C1109 C 0.04712 0.88288 0.8584 0.0
C1110 C 0.04804 0.90169 0.85896 0.0
C1111 C 0.03049 0.85461 0.83557 0.0
C1112 C 0.02618 0.84882 0.89 0.0
C1113 C 0.03031 0.84215 0.79042 0.0
C1114 C 0.03522 0.84774 0.73236 0.0
C1115 C 0.05146 0.85704 0.7218 0.0
C1116 C 0.05572 0.86284 0.66739 0.0
C1117 C 0.04395 0.85924 0.62299 0.0
C1118 C 0.02797 0.84973 0.63288 0.0
C1119 C 0.02358 0.84398 0.68724 0.0
H1120 H 0.04725 0.86378 0.58092 0.0
H1121 H 1.00484 0.81048 0.11077 0.0
H1122 H 0.73591 0.08627 0.01112 0.0
H1123 H 0.71072 0.09354 0.94796 0.0
H1124 H 0.7028 0.03664 0.91683 0.0
H1125 H 0.72802 0.02949 0.97747 0.0
H1126 H 0.69225 0.05391 0.82937 0.0
H1127 H 0.68291 0.06003 0.03301 0.0
H1128 H 0.68917 0.07373 0.12549 0.0
H1129 H 0.67598 0.12614 0.05961 0.0
H1130 H 0.66986 0.11273 0.96651 0.0
H1131 H 0.60649 0.02118 0.87873 0.0
H1132 H 0.63762 0.0317 0.88287 0.0
H1133 H 0.61983 0.08648 0.85524 0.0
H1134 H 0.58841 0.07596 0.85012 0.0
H1135 H 0.64408 0.08173 0.94602 0.0
H1136 H 0.64143 0.0665 0.74982 0.0
H1137 H 0.63215 0.04627 0.67272 0.0
H1138 H 0.66619 1.00431 0.73825 0.0
H1139 H 0.67548 0.02412 0.81611 0.0
C1140 C 0.72908 0.07543 0.98927 0.0
C1141 C 0.73377 0.05733 0.99964 0.0
C1142 C 0.71473 0.07957 0.95324 0.0
C1143 C 0.70459 0.06561 0.92868 0.0
C1144 C 0.71038 0.04768 0.93509 0.0
C1145 C 0.72485 0.04358 0.97004 0.0
C1146 C 0.68637 0.06887 0.90489 0.0
C1147 C 0.68175 0.06027 0.8543 0.0
C1148 C 0.67265 0.0774 0.93699 0.0
C1149 C 0.67618 0.08545 0.99282 0.0
C1150 C 0.68143 0.07449 0.03829 0.0
C1151 C 0.68496 0.08219 0.09075 0.0
C1152 C 0.68303 0.10081 0.09837 0.0
C1153 C 0.67752 0.11174 0.05358 0.0
C1154 C 0.67404 0.1041 1.00096 0.0
C1155 C 0.60918 0.03544 0.87284 0.0
C1156 C 0.59503 0.04773 0.8637 0.0
C1157 C 0.62697 0.04142 0.87506 0.0
C1158 C 0.631 0.05979 0.86798 0.0
C1159 C 0.61694 0.07222 0.86007 0.0
C1160 C 0.59904 0.06621 0.85768 0.0
C1161 C 0.64995 0.0658 0.87264 0.0
C1162 C 0.65466 0.07623 0.9194 0.0
C1163 C 0.66363 0.05829 0.83828 0.0
C1164 C 0.65915 0.04684 0.78893 0.0
C1165 C 0.64698 0.05297 0.74771 0.0
C1166 C 0.64166 0.04155 0.70399 0.0
C1167 C 0.64847 0.02398 0.70095 0.0
C1168 C 0.66088 0.01791 0.74085 0.0
C1169 C 0.66623 0.02925 0.78466 0.0
H1170 H 0.64416 0.01504 0.66768 0.0
H1171 H 0.68575 0.10675 0.13902 0.0
H1172 H 0.4804 0.74487 0.96173 0.0
H1173 H 0.4698 0.72187 0.89715 0.0
H1174 H 0.52452 0.70405 0.87021 0.0
H1175 H 0.53548 0.72757 0.93331 0.0
H1176 H 0.48498 0.69735 0.78032 0.0
H1177 H 0.52126 0.67385 0.96291 0.0
H1178 H 0.53099 0.68329 0.05778 0.0
H1179 H 0.47914 0.70763 0.08681 0.0
H1180 H 0.46911 0.69815 0.9923 0.0
H1181 H 0.4904 0.60118 0.77347 0.0
H1182 H 0.49337 0.634 0.77477 0.0
H1183 H 0.45405 0.63685 0.90897 0.0
H1184 H 0.45168 0.60381 0.9091 0.0
H1185 H 0.48304 0.65319 0.93782 0.0
H1186 H 0.44658 0.65434 0.77163 0.0
H1187 H 0.43798 0.6447 0.67619 0.0
H1188 H 0.48841 0.66433 0.61143 0.0
H1189 H 0.49742 0.67406 0.70647 0.0
C1190 C 0.49037 0.73687 0.93957 0.0
C1191 C 0.50877 0.73763 0.95423 0.0
C1192 C 0.48422 0.72376 0.90216 0.0
C1193 C 0.49637 0.71119 0.87967 0.0
C1194 C 0.51497 0.71372 0.88719 0.0
C1195 C 0.52117 0.72693 0.92419 0.0
C1196 C 0.48976 0.69282 0.86844 0.0
C1197 C 0.48446 0.68759 0.81435 0.0
C1198 C 0.48888 0.68035 0.91328 0.0
C1199 C 0.49448 0.68532 0.97091 0.0
C1200 C 0.51192 0.68107 0.98986 0.0
C1201 C 0.51749 0.68644 0.04345 0.0
C1202 C 0.50568 0.69602 0.07835 0.0
C1203 C 0.48825 0.70017 0.05982 0.0
C1204 C 0.48261 0.69477 0.00634 0.0
C1205 C 0.48205 0.60891 0.80213 0.0
C1206 C 0.47079 0.60014 0.84115 0.0
C1207 C 0.48368 0.62765 0.80266 0.0
C1208 C 0.47379 0.63792 0.84154 0.0
C1209 C 0.46178 0.62917 0.87853 0.0
C1210 C 0.46042 0.61038 0.87871 0.0
C1211 C 0.47792 0.6573 0.84928 0.0
C1212 C 0.48306 0.6628 0.90329 0.0
C1213 C 0.47843 0.66986 0.80412 0.0
C1214 C 0.47274 0.66479 0.7464 0.0
C1215 C 0.45588 0.65657 0.73708 0.0
C1216 C 0.45093 0.65112 0.683 0.0
C1217 C 0.46269 0.65388 0.63777 0.0
C1218 C 0.47935 0.66224 0.64648 0.0
C1219 C 0.48435 0.66779 0.70043 0.0
H1220 H 0.45889 0.64956 0.59596 0.0
H1221 H 0.51005 0.70028 0.11965 0.0
H1222 H 0.76408 0.49179 0.91265 0.0
H1223 H 0.78518 0.49043 0.83321 0.0
H1224 H 0.82395 0.46298 0.93817 0.0
H1225 H 0.80365 0.46494 0.0174 0.0
H1226 H 0.81692 0.50771 0.83424 0.0
H1227 H 0.84947 0.43587 0.87115 0.0
H1228 H 0.83871 0.40456 0.88139 0.0
H1229 H 0.78914 0.41848 0.79853 0.0
H1230 H 0.79968 0.44984 0.7869 0.0
H1231 H 0.90639 0.50513 0.89517 0.0
H1232 H 0.8739 0.50443 0.87928 0.0
H1233 H 0.88195 0.47215 0.73029 0.0
H1234 H 0.91466 0.47281 0.74619 0.0
H1235 H 0.85852 0.45663 0.79641 0.0
H1236 H 0.86424 0.51297 0.71943 0.0
H1237 H 0.87366 0.54428 0.70149 0.0
H1238 H 0.84596 0.56162 0.85072 0.0
H1239 H 0.83646 0.53037 0.86993 0.0
C1240 C 0.77702 0.48525 0.91858 0.0
C1241 C 0.7822 0.47867 0.97188 0.0
C1242 C 0.78895 0.48433 0.87294 0.0
C1243 C 0.80604 0.47646 0.87961 0.0
C1244 C 0.81066 0.46874 0.93155 0.0
C1245 C 0.79893 0.46987 0.97714 0.0
C1246 C 0.82047 0.47888 0.83716 0.0
C1247 C 0.82596 0.49659 0.82486 0.0
C1248 C 0.83165 0.46424 0.82169 0.0
C1249 C 0.82542 0.44526 0.82798 0.0
C1250 C 0.83636 0.43225 0.8545 0.0
C1251 C 0.83026 0.41448 0.86074 0.0
C1252 C 0.81326 0.40953 0.8406 0.0
C1253 C 0.8023 0.42234 0.81416 0.0
C1254 C 0.80832 0.44012 0.80781 0.0
C1255 C 0.90127 0.49821 0.85841 0.0
C1256 C 0.91297 0.48881 0.82242 0.0
C1257 C 0.88271 0.4979 0.84907 0.0
C1258 C 0.87552 0.48834 0.80331 0.0
C1259 C 0.88724 0.47958 0.76582 0.0
C1260 C 0.90585 0.47985 0.77524 0.0
C1261 C 0.85578 0.48558 0.80029 0.0
C1262 C 0.84933 0.4678 0.80367 0.0
C1263 C 0.84361 0.50019 0.80626 0.0
C1264 C 0.84941 0.51918 0.79571 0.0
C1265 C 0.86009 0.52341 0.74844 0.0
C1266 C 0.86549 0.54119 0.73808 0.0
C1267 C 0.86036 0.55496 0.77484 0.0
C1268 C 0.84984 0.55095 0.82209 0.0
C1269 C 0.84438 0.53318 0.83259 0.0
H1270 H 0.86456 0.56872 0.76681 0.0
H1271 H 0.80856 0.39577 0.84552 0.0
H1272 H 0.00642 0.19178 0.99845 0.0
H1273 H 1.00418 0.16235 0.95243 0.0
H1274 H 0.02723 0.18484 0.80118 0.0
H1275 H 0.02945 0.21446 0.84703 0.0
H1276 H 0.99803 0.16109 0.77979 0.0
H1277 H 0.05357 0.16123 0.88307 0.0
H1278 H 0.07277 0.16535 0.96666 0.0
H1279 H 0.04266 0.12453 0.05464 0.0
H1280 H 0.02309 0.12036 0.97181 0.0
H1281 H 0.01339 0.07464 0.65484 0.0
H1282 H 0.01662 0.10555 0.69007 0.0
H1283 H 0.00712 0.08645 0.85923 0.0
H1284 H 1.00534 0.05547 0.82442 0.0
H1285 H 0.03089 0.10979 0.86664 0.0
H1286 H 0.97427 0.11031 0.7653 0.0
H1287 H 0.95496 0.10611 0.68194 0.0
H1288 H 0.98601 0.14562 0.59139 0.0
H1289 H 1.00578 0.14975 0.67376 0.0
C1290 C 0.01074 0.19059 0.95508 0.0
C1291 C 0.01811 0.20557 0.92653 0.0
C1292 C 0.00958 0.17368 0.92891 0.0
C1293 C 0.01568 0.17127 0.8734 0.0
C1294 C 0.02247 0.18631 0.84403 0.0
C1295 C 0.02382 0.20322 0.87043 0.0
C1296 C 0.01559 0.15291 0.84714 0.0
C1297 C 1.00536 0.14989 0.79836 0.0
C1298 C 0.02495 0.1382 0.87163 0.0
C1299 C 0.03675 0.14061 0.92141 0.0
C1300 C 0.05094 0.15323 0.92039 0.0
C1301 C 0.06191 0.15556 0.96761 0.0
C1302 C 0.05891 0.14524 0.01598 0.0
C1303 C 0.04496 0.13253 0.01717 0.0
C1304 C 0.03393 0.13017 0.97009 0.0
C1305 C 0.01202 0.07709 0.69954 0.0
C1306 C 0.00907 0.06262 0.73685 0.0
C1307 C 0.0137 0.09483 0.71972 0.0
C1308 C 0.01169 0.09865 0.77747 0.0
C1309 C 0.00876 0.08409 0.81457 0.0
C1310 C 0.00768 0.06631 0.79463 0.0
C1311 C 0.01284 0.11763 0.79983 0.0
C1312 C 0.02343 0.12086 0.84788 0.0
C1313 C 1.00367 0.13248 0.77479 0.0
C1314 C 0.9916 0.13022 0.72556 0.0
C1315 C 0.97704 0.11803 0.7275 0.0
C1316 C 0.96604 0.11564 0.68039 0.0
C1317 C 0.96931 0.12553 0.63132 0.0
C1318 C 0.98353 0.13792 0.62937 0.0
C1319 C 0.99466 0.14028 0.67623 0.0
H1320 H 0.96079 0.12364 0.59485 0.0
H1321 H 0.06742 0.14705 0.05249 0.0
H1322 H 0.29259 0.00603 0.84307 0.0
H1323 H 0.32223 1.00268 0.79753 0.0
H1324 H 0.34646 0.03488 0.92837 0.0
H1325 H 0.31689 0.03885 0.97206 0.0
H1326 H 0.36049 0.04494 0.83734 0.0
H1327 H 0.34993 0.98581 0.91583 0.0
H1328 H 0.33342 0.95726 0.93072 0.0
H1329 H 0.33671 0.94568 0.75411 0.0
H1330 H 0.35306 0.97429 0.73809 0.0
H1331 H 0.45278 0.02 0.81482 0.0
H1332 H 0.42137 0.02337 0.84434 0.0
H1333 H 0.40356 0.99954 0.6888 0.0
H1334 H 0.43507 0.99607 0.65868 0.0
H1335 H 0.38544 0.98549 0.78124 0.0
H1336 H 0.40064 0.04392 0.70943 0.0
H1337 H 0.41809 0.07206 0.70028 0.0
H1338 H 0.40749 0.08459 0.87345 0.0
H1339 H 0.39011 0.05638 0.8838 0.0
C1340 C 0.30428 0.01234 0.86201 0.0
C1341 C 0.30235 0.02279 0.91099 0.0
C1342 C 0.32129 0.01036 0.83612 0.0
C1343 C 0.33684 0.01836 0.85955 0.0
C1344 C 0.33482 0.02864 0.90885 0.0
C1345 C 0.31785 0.0309 0.93398 0.0
C1346 C 0.35521 0.01636 0.8331 0.0
C1347 C 0.36596 0.03187 0.82582 0.0
C1348 C 0.36239 0.99943 0.81618 0.0
C1349 C 0.35252 0.98228 0.82569 0.0
C1350 C 0.34701 0.97724 0.88012 0.0
C1351 C 0.3377 0.96104 0.88877 0.0
C1352 C 0.33397 0.94969 0.84336 0.0
C1353 C 0.33958 0.9545 0.78922 0.0
C1354 C 0.34887 0.9707 0.78033 0.0
C1355 C 0.44225 0.01549 0.7866 0.0
C1356 C 0.4466 0.00777 0.73419 0.0
C1357 C 0.42422 0.01749 0.80359 0.0
C1358 C 0.41 0.01184 0.76873 0.0
C1359 C 0.41424 1.00402 0.71651 0.0
C1360 C 0.43232 1.00211 0.69926 0.0
C1361 C 0.39079 0.01398 0.78735 0.0
C1362 C 0.37989 0.99853 0.79272 0.0
C1363 C 0.38359 0.03093 0.80355 0.0
C1364 C 0.39409 0.04793 0.7974 0.0
C1365 C 0.40207 0.0526 0.74563 0.0
C1366 C 0.41196 0.06859 0.74023 0.0
C1367 C 0.41392 0.08011 0.78628 0.0
C1368 C 0.40597 0.07566 0.8378 0.0
C1369 C 0.39607 0.05967 0.84342 0.0
H1370 H 0.42158 0.09248 0.78202 0.0
H1371 H 0.32677 0.93715 0.85015 0.0
H1372 H 0.4942 0.29309 0.84597 0.0
H1373 H 0.49288 0.32289 0.80016 0.0
H1374 H 0.50655 0.34833 0.95734 0.0
H1375 H 0.50774 0.31885 1.00311 0.0
H1376 H 0.47798 0.36508 0.90555 0.0
H1377 H 0.53757 0.34307 0.8521 0.0
H1378 H 0.5586 0.32168 0.80697 0.0
H1379 H 0.53255 0.33022 0.64798 0.0
H1380 H 0.51108 0.35136 0.6924 0.0
H1381 H 0.50243 0.45423 0.84166 0.0
H1382 H 0.50079 0.42277 0.87146 0.0
H1383 H 0.49819 0.40589 0.69805 0.0
H1384 H 0.50079 0.43745 0.668 0.0
H1385 H 0.5181 0.3833 0.74814 0.0
H1386 H 0.45996 0.40561 0.7928 0.0
H1387 H 0.43701 0.4262 0.83209 0.0
H1388 H 0.45683 0.41599 0.99872 0.0
H1389 H 0.48007 0.39552 0.96037 0.0
C1390 C 0.49694 0.30504 0.87071 0.0
C1391 C 0.50125 0.30347 0.92823 0.0
C1392 C 0.49626 0.32208 0.8444 0.0
C1393 C 0.49971 0.33795 0.87515 0.0
C1394 C 0.50387 0.33637 0.93254 0.0
C1395 C 0.50471 0.31942 0.95861 0.0
C1396 C 0.49881 0.3563 0.84863 0.0
C1397 C 0.48686 0.36911 0.87142 0.0
C1398 C 0.50976 0.36142 0.80232 0.0
C1399 C 0.52259 0.34864 0.77573 0.0
C1400 C 0.5362 0.34024 0.80764 0.0
C1401 C 0.5482 0.32817 0.78217 0.0
C1402 C 0.54685 0.32453 0.72469 0.0
C1403 C 0.53352 0.333 0.69253 0.0
C1404 C 0.52142 0.34501 0.71784 0.0
C1405 C 0.50137 0.44386 0.80974 0.0
C1406 C 0.50157 0.44848 0.75234 0.0
C1407 C 0.50033 0.42577 0.82691 0.0
C1408 C 0.49891 0.41173 0.78729 0.0
C1409 C 0.49918 0.41632 0.72978 0.0
C1410 C 0.50059 0.43444 0.71255 0.0
C1411 C 0.4976 0.39236 0.80618 0.0
C1412 C 0.50905 0.37932 0.78189 0.0
C1413 C 0.48583 0.38686 0.85024 0.0
C1414 C 0.47185 0.39913 0.87362 0.0
C1415 C 0.4595 0.40785 0.83779 0.0
C1416 C 0.44643 0.41949 0.8599 0.0
C1417 C 0.44549 0.42243 0.91785 0.0
C1418 C 0.45759 0.4137 0.95383 0.0
C1419 C 0.4707 0.40206 0.93193 0.0
H1420 H 0.43536 0.43145 0.93489 0.0
H1421 H 0.55618 0.3152 0.70503 0.0
H1422 H 0.19713 0.51096 0.99641 0.0
H1423 H 0.1674 0.51264 0.95266 0.0
H1424 H 0.18796 0.485 0.80649 0.0
H1425 H 0.21801 0.48398 0.84895 0.0
H1426 H 0.1655 0.51056 0.77421 0.0
H1427 H 0.16289 0.46313 0.91173 0.0
H1428 H 0.16544 0.44901 0.00541 0.0
H1429 H 0.12615 0.48611 0.07112 0.0
H1430 H 0.12356 0.50063 0.97806 0.0
H1431 H 0.07726 0.49161 0.664 0.0
H1432 H 0.10837 0.48961 0.6989 0.0
H1433 H 0.09119 0.51202 0.85778 0.0
H1434 H 0.06012 0.51287 0.82428 0.0
H1435 H 0.1127 0.4873 0.88044 0.0
H1436 H 0.11664 0.53603 0.74401 0.0
H1437 H 0.11366 0.54966 0.64969 0.0
H1438 H 0.15004 0.51002 0.582 0.0
H1439 H 0.15309 0.49607 0.67581 0.0
C1440 C 0.19551 0.50555 0.95446 0.0
C1441 C 0.21012 0.49726 0.92651 0.0
C1442 C 0.17834 0.50629 0.92973 0.0
C1443 C 0.17521 0.49859 0.87662 0.0
C1444 C 0.18989 0.49091 0.84767 0.0
C1445 C 0.2071 0.49023 0.87228 0.0
C1446 C 0.15663 0.49832 0.85169 0.0
C1447 C 0.15398 0.50531 0.79728 0.0
C1448 C 0.14144 0.49168 0.88173 0.0
C1449 C 0.14317 0.48309 0.93797 0.0
C1450 C 0.15492 0.46839 0.94627 0.0
C1451 C 0.15634 0.46029 0.99926 0.0
C1452 C 0.14598 0.46668 0.04423 0.0
C1453 C 0.13418 0.48118 0.03629 0.0
C1454 C 0.13273 0.48935 0.98342 0.0
C1455 C 0.08019 0.49611 0.70633 0.0
C1456 C 0.0662 0.50234 0.74141 0.0
C1457 C 0.09804 0.49511 0.72624 0.0
C1458 C 0.10242 0.50093 0.78099 0.0
C1459 C 0.08837 0.50733 0.81557 0.0
C1460 C 0.07053 0.50786 0.79628 0.0
C1461 C 0.12138 0.50005 0.80345 0.0
C1462 C 0.12415 0.49269 0.85736 0.0
C1463 C 0.13664 0.50641 0.77302 0.0
C1464 C 0.13495 0.51492 0.7168 0.0
C1465 C 0.12393 0.53018 0.70894 0.0
C1466 C 0.12224 0.53797 0.65559 0.0
C1467 C 0.13162 0.53068 0.60987 0.0
C1468 C 0.14277 0.51564 0.61743 0.0
C1469 C 0.1445 0.5078 0.67069 0.0
H1470 H 0.13028 0.53672 0.56859 0.0
H1471 H 0.14707 0.46037 0.08519 0.0
H1472 H 0.99707 0.82715 0.3441 0.0
H1473 H 0.99664 0.85596 0.39353 0.0
H1474 H 0.99695 0.82777 0.55261 0.0
H1475 H 0.99655 0.79876 0.50254 0.0
H1476 H 0.97844 0.85567 0.56814 0.0
H1477 H 0.03624 0.84862 0.48962 0.0
H1478 H 0.05983 0.84257 0.41885 0.0
H1479 H 0.04248 0.88858 0.32294 0.0
H1480 H 0.01862 0.8948 0.39282 0.0
H1481 H 1.00503 0.93982 0.7009 0.0
H1482 H 1.00526 0.90875 0.66543 0.0
H1483 H 0.99154 0.92816 0.49996 0.0
H1484 H 0.99137 0.95919 0.53475 0.0
H1485 H 0.0197 0.90352 0.4982 0.0
H1486 H 0.95949 0.90706 0.58769 0.0
H1487 H 0.94026 0.91241 0.67096 0.0
H1488 H 0.96908 0.87142 0.76214 0.0
H1489 H 0.98851 0.86592 0.67949 0.0
C1490 C 0.99704 0.82709 0.38967 0.0
C1491 C 0.99713 0.81067 0.4194 0.0
C1492 C 0.99693 0.84363 0.41807 0.0
C1493 C 0.9975 0.8443 0.47719 0.0
C1494 C 0.99684 0.82783 0.5071 0.0
C1495 C 0.99659 0.8112 0.4785 0.0
C1496 C 0.999 0.86218 0.50689 0.0
C1497 C 0.98763 0.866 0.55295 0.0
C1498 C 0.01123 0.87579 0.48868 0.0
C1499 C 0.02554 0.87211 0.44635 0.0
C1500 C 0.03738 0.8574 0.45331 0.0
C1501 C 0.05081 0.85394 0.41334 0.0
C1502 C 0.05263 0.86516 0.36637 0.0
C1503 C 0.04105 0.87989 0.35933 0.0
C1504 C 0.02758 0.88341 0.39915 0.0
C1505 C 1.00191 0.93751 0.65701 0.0
C1506 C 0.99808 0.95214 0.62083 0.0
C1507 C 1.00202 0.91967 0.63681 0.0
C1508 C 0.99828 0.916 0.58 0.0
C1509 C 0.99446 0.93057 0.54394 0.0
C1510 C 0.99428 0.94836 0.56405 0.0
C1511 C 0.99864 0.89713 0.5573 0.0
C1512 C 0.01051 0.89312 0.51295 0.0
C1513 C 0.9875 0.88315 0.57872 0.0
C1514 C 0.97546 0.88613 0.62758 0.0
C1515 C 0.96171 0.89921 0.62554 0.0
C1516 C 0.95078 0.90227 0.67261 0.0
C1517 C 0.95345 0.89226 0.72181 0.0
C1518 C 0.967 0.87914 0.72399 0.0
C1519 C 0.97794 0.87601 0.67702 0.0
H1520 H 0.945 0.89468 0.75824 0.0
H1521 H 0.06304 0.86246 0.33548 0.0
H1522 H 0.68835 0.02769 0.38825 0.0
H1523 H 0.65924 0.0256 0.43586 0.0
H1524 H 0.67679 0.97715 0.52056 0.0
H1525 H 0.70612 0.97914 0.47262 0.0
H1526 H 0.64361 0.97264 0.48745 0.0
H1527 H 0.67396 0.0184 0.58759 0.0
H1528 H 0.69079 0.04644 0.60641 0.0
H1529 H 0.64698 0.0778 0.53966 0.0
H1530 H 0.62996 0.04993 0.51966 0.0
H1531 H 0.56946 0.00805 0.69944 0.0
H1532 H 0.60043 0.00805 0.66358 0.0
H1533 H 0.58149 0.98802 0.50404 0.0
H1534 H 0.5506 0.98753 0.54 0.0
H1535 H 0.61691 0.02547 0.58506 0.0
H1536 H 0.613 0.9625 0.43978 0.0
H1537 H 0.59737 0.93308 0.43662 0.0
H1538 H 0.59129 0.93381 0.61622 0.0
H1539 H 0.60708 0.9631 0.62053 0.0
C1540 C 0.68618 0.01669 0.41757 0.0
C1541 C 0.69978 1.00371 0.42698 0.0
C1542 C 0.66943 0.0155 0.4448 0.0
C1543 C 0.66578 1.00137 0.4827 0.0
C1544 C 0.67921 0.98821 0.49166 0.0
C1545 C 0.696 0.98936 0.46414 0.0
C1546 C 0.64786 1.00029 0.51202 0.0
C1547 C 0.63782 0.98421 0.50878 0.0
C1548 C 0.64032 0.0152 0.54127 0.0
C1549 C 0.65076 0.03202 0.55145 0.0
C1550 C 0.66802 0.03125 0.57607 0.0
C1551 C 0.67756 0.04713 0.58723 0.0
C1552 C 0.66998 0.06389 0.57407 0.0
C1553 C 0.65284 0.06481 0.54976 0.0
C1554 C 0.64323 0.04897 0.53855 0.0
C1555 C 0.57185 1.0035 0.65685 0.0
C1556 C 0.55741 0.99763 0.62294 0.0
C1557 C 0.58964 1.00358 0.63624 0.0
C1558 C 0.59349 0.9978 0.58118 0.0
C1559 C 0.57906 0.99215 0.54706 0.0
C1560 C 0.56131 0.99194 0.56773 0.0
C1561 C 0.61248 0.998 0.55905 0.0
C1562 C 0.62271 0.01392 0.56357 0.0
C1563 C 0.62041 0.98279 0.53249 0.0
C1564 C 0.61107 0.96508 0.53036 0.0
C1565 C 0.60839 0.95634 0.4786 0.0
C1566 C 0.59949 0.9397 0.47662 0.0
C1567 C 0.59329 0.93161 0.52617 0.0
C1568 C 0.59603 0.94012 0.57784 0.0
C1569 C 0.60494 0.95675 0.58007 0.0
H1570 H 0.58639 0.91874 0.52453 0.0
H1571 H 0.67738 0.07617 0.58285 0.0
H1572 H 0.52633 0.68196 0.35711 0.0
H1573 H 0.52285 0.65372 0.40839 0.0
H1574 H 0.50831 0.68323 0.55797 0.0
H1575 H 0.51224 0.71179 0.50684 0.0
H1576 H 0.52943 0.65578 0.58634 0.0
H1577 H 0.47582 0.66058 0.48057 0.0
H1578 H 0.45656 0.66588 0.39769 0.0
H1579 H 0.48098 0.62073 0.31369 0.0
H1580 H 0.50059 0.61531 0.39578 0.0
H1581 H 0.50193 0.57096 0.71067 0.0
H1582 H 0.50161 0.60191 0.67395 0.0
H1583 H 0.52063 0.58263 0.5135 0.0
H1584 H 0.52075 0.55171 0.54937 0.0
H1585 H 0.49351 0.60654 0.50019 0.0
H1586 H 0.54902 0.60451 0.61174 0.0
H1587 H 0.5657 0.5998 0.70035 0.0
H1588 H 0.53345 0.64049 0.781 0.0
H1589 H 0.51656 0.64532 0.69296 0.0
C1590 C 0.52256 0.68256 0.40108 0.0
C1591 C 0.51963 0.6993 0.42768 0.0
C1592 C 0.52034 0.66628 0.43033 0.0
C1593 C 0.51493 0.66614 0.48703 0.0
C1594 C 0.51227 0.68283 0.51417 0.0
C1595 C 0.51444 0.6992 0.48473 0.0
C1596 C 0.51218 0.6485 0.51711 0.0
C1597 C 0.52135 0.64513 0.5678 0.0
C1598 C 0.50153 0.63448 0.4937 0.0
C1599 C 0.48978 0.63764 0.44415 0.0
C1600 C 0.47718 0.65187 0.44424 0.0
C1601 C 0.46619 0.65488 0.39744 0.0
C1602 C 0.46757 0.64368 0.35041 0.0
C1603 C 0.47994 0.62941 0.35014 0.0
C1604 C 0.49098 0.62635 0.39682 0.0
C1605 C 0.50611 0.57327 0.66759 0.0
C1606 C 0.51146 0.55871 0.63317 0.0
C1607 C 0.50597 0.59104 0.6467 0.0
C1608 C 0.51129 0.59474 0.59102 0.0
C1609 C 0.51649 0.58022 0.55659 0.0
C1610 C 0.51661 0.56248 0.57734 0.0
C1611 C 0.51135 0.6136 0.56797 0.0
C1612 C 0.50154 0.61723 0.51873 0.0
C1613 C 0.52104 0.62792 0.59351 0.0
C1614 C 0.53146 0.6252 0.64596 0.0
C1615 C 0.54547 0.6124 0.64845 0.0
C1616 C 0.55497 0.60972 0.69854 0.0
C1617 C 0.55064 0.61983 0.74627 0.0
C1618 C 0.53682 0.63267 0.744 0.0
C1619 C 0.5273 0.63542 0.69401 0.0
H1620 H 0.55803 0.61777 0.78495 0.0
H1621 H 0.45904 0.64603 0.31421 0.0
H1622 H 0.81109 0.48711 0.45632 0.0
H1623 H 0.83992 0.48572 0.50642 0.0
H1624 H 0.84949 0.54186 0.46847 0.0
H1625 H 0.8206 0.54347 0.41926 0.0
H1626 H 0.87846 0.52029 0.44073 0.0
H1627 H 0.83912 0.52808 0.60438 0.0
H1628 H 0.8132 0.51919 0.66376 0.0
H1629 H 0.8361 0.46637 0.6857 0.0
H1630 H 0.86226 0.47502 0.62709 0.0
H1631 H 0.9582 0.5358 0.5898 0.0
H1632 H 0.92719 0.53703 0.55545 0.0
H1633 H 0.91617 0.48541 0.6329 0.0
H1634 H 0.94692 0.48479 0.67072 0.0
H1635 H 0.88744 0.50284 0.64022 0.0
H1636 H 0.92569 0.49214 0.48334 0.0
H1637 H 0.95121 0.49683 0.4181 0.0
H1638 H 0.93022 0.54895 0.37313 0.0
H1639 H 0.90469 0.54468 0.4387 0.0
C1640 C 0.81909 0.49929 0.45967 0.0
C1641 C 0.81343 0.51539 0.43328 0.0
C1642 C 0.83567 0.49845 0.48824 0.0
C1643 C 0.84696 0.51369 0.49136 0.0
C1644 C 0.84111 0.52988 0.46645 0.0
C1645 C 0.82456 0.53075 0.43809 0.0
C1646 C 0.86525 0.51264 0.51778 0.0
C1647 C 0.88041 0.51675 0.48459 0.0
C1648 C 0.86794 0.50712 0.57419 0.0
C1649 C 0.85253 0.50214 0.61091 0.0
C1650 C 0.83858 0.51456 0.62175 0.0
C1651 C 0.82389 0.50958 0.65543 0.0
C1652 C 0.82297 0.4922 0.67826 0.0
C1653 C 0.83683 0.47982 0.66797 0.0
C1654 C 0.85165 0.48479 0.63483 0.0
C1655 C 0.94917 0.52473 0.59966 0.0
C1656 C 0.95517 0.51008 0.63232 0.0
C1657 C 0.93139 0.52536 0.5796 0.0
C1658 C 0.91929 0.51101 0.58961 0.0
C1659 C 0.92513 0.49662 0.62386 0.0
C1660 C 0.94279 0.49623 0.64533 0.0
C1661 C 0.90081 0.51093 0.56341 0.0
C1662 C 0.8856 0.50648 0.5964 0.0
C1663 C 0.89807 0.51553 0.50601 0.0
C1664 C 0.91337 0.51815 0.46634 0.0
C1665 C 0.92658 0.50465 0.4598 0.0
C1666 C 0.94104 0.50723 0.42274 0.0
C1667 C 0.94236 0.5232 0.3916 0.0
C1668 C 0.92919 0.5366 0.39734 0.0
C1669 C 0.91471 0.5341 0.43441 0.0
H1670 H 0.95356 0.52517 0.36293 0.0
H1671 H 0.81155 0.48834 0.70415 0.0
loop_
_geom_bond_atom_site_label_1
_geom_bond_atom_site_label_2
_geom_bond_distance
_geom_bond_site_symmetry_2
_ccdc_geom_bond_type
C0 C1 1.386 . S
C0 C2 1.397 . S
C0 H24 0.931 . S
C1 C0 1.386 . S
C1 C5 1.397 . S
C2 C0 1.397 . S
C2 C3 1.384 . S
C2 H25 0.930 . S
C3 C2 1.384 . S
C3 C4 1.377 . S
C3 C6 1.481 . S
C4 C3 1.377 . S
C4 C5 1.389 . S
C4 H26 0.929 . S
C5 C1 1.397 . S
C5 C4 1.389 . S
C5 H27 0.931 . S
C6 C3 1.481 . S
C6 C7 1.387 . S
C6 C11 1.390 . S
C7 C6 1.387 . S
C7 C8 1.401 . S
C7 H28 0.930 . S
C8 C7 1.401 . S
C8 C9 1.376 . S
C8 C17 1.511 . S
C9 C8 1.376 . S
C9 C10 1.392 . S
C9 H30 0.931 . S
C10 C9 1.392 . S
C10 C11 1.361 . S
C10 C12 1.500 . S
C11 C6 1.390 . S
C11 C10 1.361 . S
C11 H29 0.931 . S
C12 C10 1.500 . S
C12 C13 1.371 . S
C12 C14 1.365 . S
C13 C12 1.371 . S
C13 C23 1.386 . S
C13 H31 0.931 . S
C14 C12 1.365 . S
C14 C15 1.409 . S
C14 H32 0.929 . S
C15 C14 1.409 . S
C15 C16 1.380 . S
C15 H33 0.930 . S
C16 C15 1.380 . S
C16 C23 1.357 . S
C17 C8 1.511 . S
C17 C18 1.341 . S
C17 C19 1.371 . S
C18 C17 1.341 . S
C18 C22 1.394 . S
C18 H34 0.930 . S
C19 C17 1.371 . S
C19 C20 1.392 . S
C19 H35 0.931 . S
C20 C19 1.392 . S
C20 C21 1.331 . S
C20 H38 0.932 . S
C21 C20 1.331 . S
C21 C22 1.336 . S
C22 C18 1.394 . S
C22 C21 1.336 . S
C22 H37 0.929 . S
C23 C13 1.386 . S
C23 C16 1.357 . S
C23 H36 0.928 . S
H24 C0 0.931 . S
H25 C2 0.930 . S
H26 C4 0.929 . S
H27 C5 0.931 . S
H28 C7 0.930 . S
H29 C11 0.931 . S
H30 C9 0.931 . S
H31 C13 0.931 . S
H32 C14 0.929 . S
H33 C15 0.930 . S
H34 C18 0.930 . S
H35 C19 0.931 . S
H36 C23 0.928 . S
H37 C22 0.929 . S
H38 C20 0.932 . S
C39 C40 1.394 . S
C39 C41 1.397 . S
C39 H63 0.931 . S
C40 C39 1.394 . S
C40 C44 1.389 1_655 S
C41 C39 1.397 . S
C41 C42 1.389 . S
C41 H64 0.930 . S
C42 C41 1.389 . S
C42 C43 1.373 1_655 S
C42 C45 1.480 . S
C43 C42 1.373 1_455 S
C43 C44 1.389 . S
C43 H65 0.929 . S
C44 C40 1.389 1_455 S
C44 C43 1.389 . S
C44 H66 0.931 . S
C45 C42 1.480 . S
C45 C46 1.388 . S
C45 C50 1.390 . S
C46 C45 1.388 . S
C46 C47 1.402 . S
C46 H67 0.930 . S
C47 C46 1.402 . S
C47 C48 1.376 . S
C47 C56 1.513 . S
C48 C47 1.376 . S
C48 C49 1.392 . S
C48 H69 0.934 . S
C49 C48 1.392 . S
C49 C50 1.361 . S
C49 C51 1.499 1_655 S
C50 C45 1.390 . S
C50 C49 1.361 . S
C50 H68 0.931 . S
C51 C49 1.499 1_455 S
C51 C52 1.364 1_455 S
C51 C53 1.373 . S
C52 C51 1.364 1_655 S
C52 C62 1.386 . S
C52 H70 0.931 . S
C53 C51 1.373 . S
C53 C54 1.409 . S
C53 H71 0.929 . S
C54 C53 1.409 . S
C54 C55 1.378 . S
C54 H72 0.930 . S
C55 C54 1.378 . S
C55 C62 1.360 1_455 S
C56 C47 1.513 . S
C56 C57 1.341 . S
C56 C58 1.371 1_655 S
C57 C56 1.341 . S
C57 C61 1.394 . S
C57 H73 0.930 . S
C58 C56 1.371 1_455 S
C58 C59 1.392 . S
C58 H74 0.931 . S
C59 C58 1.392 . S
C59 C60 1.322 1_455 S
C59 H77 0.932 . S
C60 C59 1.322 1_655 S
C60 C61 1.345 . S
C61 C57 1.394 . S
C61 C60 1.345 . S
C61 H76 0.929 . S
C62 C52 1.386 . S
C62 C55 1.360 1_655 S
C62 H75 0.928 . S
H63 C39 0.931 . S
H64 C41 0.930 . S
H65 C43 0.929 . S
H66 C44 0.931 . S
H67 C46 0.930 . S
H68 C50 0.931 . S
H69 C48 0.934 . S
H70 C52 0.931 . S
H71 C53 0.929 . S
H72 C54 0.930 . S
H73 C57 0.930 . S
H74 C58 0.931 . S
H75 C62 0.928 . S
H76 C61 0.929 . S
H77 C59 0.932 . S
C78 C79 1.394 . S
C78 C80 1.397 . S
C78 H102 0.931 . S
C79 C78 1.394 . S
C79 C83 1.389 1_565 S
C80 C78 1.397 . S
C80 C81 1.389 . S
C80 H103 0.930 . S
C81 C80 1.389 . S
C81 C82 1.373 1_565 S
C81 C84 1.480 . S
C82 C81 1.373 1_545 S
C82 C83 1.389 . S
C82 H104 0.929 . S
C83 C79 1.389 1_545 S
C83 C82 1.389 . S
C83 H105 0.931 . S
C84 C81 1.480 . S
C84 C85 1.388 . S
C84 C89 1.390 . S
C85 C84 1.388 . S
C85 C86 1.402 . S
C85 H106 0.930 . S
C86 C85 1.402 . S
C86 C87 1.376 . S
C86 C95 1.513 . S
C87 C86 1.376 . S
C87 C88 1.392 . S
C87 H108 0.934 . S
C88 C87 1.392 . S
C88 C89 1.361 . S
C88 C90 1.499 1_565 S
C89 C84 1.390 . S
C89 C88 1.361 . S
C89 H107 0.931 . S
C90 C88 1.499 1_545 S
C90 C91 1.364 1_545 S
C90 C92 1.373 . S
C91 C90 1.364 1_565 S
C91 C101 1.386 . S
C91 H109 0.931 . S
C92 C90 1.373 . S
C92 C93 1.409 . S
C92 H110 0.929 . S
C93 C92 1.409 . S
C93 C94 1.378 . S
C93 H111 0.930 . S
C94 C93 1.378 . S
C94 C101 1.360 1_545 S
C95 C86 1.513 . S
C95 C96 1.341 . S
C95 C97 1.371 1_565 S
C96 C95 1.341 . S
C96 C100 1.394 . S
C96 H112 0.930 . S
C97 C95 1.371 1_545 S
C97 C98 1.392 . S
C97 H113 0.931 . S
C98 C97 1.392 . S
C98 C99 1.322 1_545 S
C98 H116 0.932 . S
C99 C98 1.322 1_565 S
C99 C100 1.345 . S
C100 C96 1.394 . S
C100 C99 1.345 . S
C100 H115 0.929 . S
C101 C91 1.386 . S
C101 C94 1.360 1_565 S
C101 H114 0.928 . S
H102 C78 0.931 . S
H103 C80 0.930 . S
H104 C82 0.929 . S
H105 C83 0.931 . S
H106 C85 0.930 . S
H107 C89 0.931 . S
H108 C87 0.934 . S
H109 C91 0.931 . S
H110 C92 0.929 . S
H111 C93 0.930 . S
H112 C96 0.930 . S
H113 C97 0.931 . S
H114 C101 0.928 . S
H115 C100 0.929 . S
H116 C98 0.932 . S
C117 C118 1.386 . S
C117 C119 1.397 . S
C117 H141 0.931 . S
C118 C117 1.386 . S
C118 C122 1.397 . S
C119 C117 1.397 . S
C119 C120 1.384 . S
C119 H142 0.930 . S
C120 C119 1.384 . S
C120 C121 1.377 . S
C120 C123 1.481 . S
C121 C120 1.377 . S
C121 C122 1.389 . S
C121 H143 0.929 . S
C122 C118 1.397 . S
C122 C121 1.389 . S
C122 H144 0.931 . S
C123 C120 1.481 . S
C123 C124 1.387 . S
C123 C128 1.390 . S
C124 C123 1.387 . S
C124 C125 1.401 . S
C124 H145 0.930 . S
C125 C124 1.401 . S
C125 C126 1.376 . S
C125 C134 1.511 . S
C126 C125 1.376 . S
C126 C127 1.392 . S
C126 H147 0.931 . S
C127 C126 1.392 . S
C127 C128 1.361 . S
C127 C129 1.500 . S
C128 C123 1.390 . S
C128 C127 1.361 . S
C128 H146 0.931 . S
C129 C127 1.500 . S
C129 C130 1.371 . S
C129 C131 1.365 . S
C130 C129 1.371 . S
C130 C140 1.386 . S
C130 H148 0.931 . S
C131 C129 1.365 . S
C131 C132 1.409 . S
C131 H149 0.929 . S
C132 C131 1.409 . S
C132 C133 1.380 . S
C132 H150 0.930 . S
C133 C132 1.380 . S
C133 C140 1.357 . S
C134 C125 1.511 . S
C134 C135 1.341 . S
C134 C136 1.371 . S
C135 C134 1.341 . S
C135 C139 1.394 . S
C135 H151 0.930 . S
C136 C134 1.371 . S
C136 C137 1.392 . S
C136 H152 0.931 . S
C137 C136 1.392 . S
C137 C138 1.331 . S
C137 H155 0.932 . S
C138 C137 1.331 . S
C138 C139 1.336 . S
C139 C135 1.394 . S
C139 C138 1.336 . S
C139 H154 0.929 . S
C140 C130 1.386 . S
C140 C133 1.357 . S
C140 H153 0.928 . S
H141 C117 0.931 . S
H142 C119 0.930 . S
H143 C121 0.929 . S
H144 C122 0.931 . S
H145 C124 0.930 . S
H146 C128 0.931 . S
H147 C126 0.931 . S
H148 C130 0.931 . S
H149 C131 0.929 . S
H150 C132 0.930 . S
H151 C135 0.930 . S
H152 C136 0.931 . S
H153 C140 0.928 . S
H154 C139 0.929 . S
H155 C137 0.932 . S
C156 C157 1.386 . S
C156 C158 1.397 . S
C156 H180 0.931 . S
C157 C156 1.386 . S
C157 C161 1.397 . S
C158 C156 1.397 . S
C158 C159 1.384 . S
C158 H181 0.930 . S
C159 C158 1.384 . S
C159 C160 1.377 . S
C159 C162 1.481 . S
C160 C159 1.377 . S
C160 C161 1.389 . S
C160 H182 0.929 . S
C161 C157 1.397 . S
C161 C160 1.389 . S
C161 H183 0.931 . S
C162 C159 1.481 . S
C162 C163 1.387 . S
C162 C167 1.390 . S
C163 C162 1.387 . S
C163 C164 1.401 . S
C163 H184 0.930 . S
C164 C163 1.401 . S
C164 C165 1.376 . S
C164 C173 1.511 . S
C165 C164 1.376 . S
C165 C166 1.392 1_554 S
C165 H186 0.931 1_554 S
C166 C165 1.392 1_556 S
C166 C167 1.361 1_556 S
C166 C168 1.500 . S
C167 C162 1.390 . S
C167 C166 1.361 1_554 S
C167 H185 0.931 . S
C168 C166 1.500 . S
C168 C169 1.371 . S
C168 C170 1.365 . S
C169 C168 1.371 . S
C169 C179 1.386 . S
C169 H187 0.931 . S
C170 C168 1.365 . S
C170 C171 1.409 . S
C170 H188 0.929 . S
C171 C170 1.409 . S
C171 C172 1.380 . S
C171 H189 0.930 . S
C172 C171 1.380 . S
C172 C179 1.357 . S
C173 C164 1.511 . S
C173 C174 1.341 . S
C173 C175 1.371 . S
C174 C173 1.341 . S
C174 C178 1.394 . S
C174 H190 0.930 . S
C175 C173 1.371 . S
C175 C176 1.392 . S
C175 H191 0.931 . S
C176 C175 1.392 . S
C176 C177 1.331 . S
C176 H194 0.932 . S
C177 C176 1.331 . S
C177 C178 1.336 . S
C178 C174 1.394 . S
C178 C177 1.336 . S
C178 H193 0.929 . S
C179 C169 1.386 . S
C179 C172 1.357 . S
C179 H192 0.928 . S
H180 C156 0.931 . S
H181 C158 0.930 . S
H182 C160 0.929 . S
H183 C161 0.931 . S
H184 C163 0.930 . S
H185 C167 0.931 . S
H186 C165 0.931 1_556 S
H187 C169 0.931 . S
H188 C170 0.929 . S
H189 C171 0.930 . S
H190 C174 0.930 . S
H191 C175 0.931 . S
H192 C179 0.928 . S
H193 C178 0.929 . S
H194 C176 0.932 . S
C195 C196 1.386 . S
C195 C197 1.397 . S
C195 H219 0.931 . S
C196 C195 1.386 . S
C196 C200 1.398 1_655 S
C197 C195 1.397 . S
C197 C198 1.389 1_655 S
C197 H220 0.930 . S
C198 C197 1.389 1_455 S
C198 C199 1.373 . S
C198 C201 1.480 1_455 S
C199 C198 1.373 . S
C199 C200 1.389 . S
C199 H221 0.929 . S
C200 C196 1.398 1_455 S
C200 C199 1.389 . S
C200 H222 0.931 . S
C201 C198 1.480 1_655 S
C201 C202 1.386 . S
C201 C206 1.390 . S
C202 C201 1.386 . S
C202 C203 1.400 . S
C202 H223 0.935 . S
C203 C202 1.400 . S
C203 C204 1.376 . S
C203 C212 1.512 . S
C204 C203 1.376 . S
C204 C205 1.392 1_654 S
C204 H225 0.933 1_554 S
C205 C204 1.392 1_456 S
C205 C206 1.361 1_456 S
C205 C207 1.499 . S
C206 C201 1.390 . S
C206 C205 1.361 1_654 S
C206 H224 0.931 1_655 S
C207 C205 1.499 . S
C207 C208 1.357 1_455 S
C207 C209 1.380 . S
C208 C207 1.357 1_655 S
C208 C218 1.386 . S
C208 H226 0.931 . S
C209 C207 1.380 . S
C209 C210 1.409 . S
C209 H227 0.929 . S
C210 C209 1.409 . S
C210 C211 1.384 . S
C210 H228 0.930 . S
C211 C210 1.384 . S
C211 C218 1.353 1_455 S
C212 C203 1.512 . S
C212 C213 1.341 . S
C212 C214 1.371 1_655 S
C213 C212 1.341 . S
C213 C217 1.394 . S
C213 H229 0.930 . S
C214 C212 1.371 1_455 S
C214 C215 1.392 . S
C214 H230 0.931 . S
C215 C214 1.392 . S
C215 C216 1.326 1_455 S
C215 H233 0.932 . S
C216 C215 1.326 1_655 S
C216 C217 1.341 . S
C217 C213 1.394 . S
C217 C216 1.341 . S
C217 H232 0.929 . S
C218 C208 1.386 . S
C218 C211 1.353 1_655 S
C218 H231 0.928 . S
H219 C195 0.931 . S
H220 C197 0.930 . S
H221 C199 0.929 . S
H222 C200 0.931 . S
H223 C202 0.935 . S
H224 C206 0.931 1_455 S
H225 C204 0.933 1_556 S
H226 C208 0.931 . S
H227 C209 0.929 . S
H228 C210 0.930 . S
H229 C213 0.930 . S
H230 C214 0.931 . S
H231 C218 0.928 . S
H232 C217 0.929 . S
H233 C215 0.932 . S
C234 C235 1.386 . S
C234 C236 1.397 . S
C234 H258 0.931 . S
C235 C234 1.386 . S
C235 C239 1.398 1_565 S
C236 C234 1.397 . S
C236 C237 1.389 1_565 S
C236 H259 0.930 . S
C237 C236 1.389 1_545 S
C237 C238 1.373 . S
C237 C240 1.480 1_545 S
C238 C237 1.373 . S
C238 C239 1.389 . S
C238 H260 0.929 . S
C239 C235 1.398 1_545 S
C239 C238 1.389 . S
C239 H261 0.931 . S
C240 C237 1.480 1_565 S
C240 C241 1.386 . S
C240 C245 1.390 . S
C241 C240 1.386 . S
C241 C242 1.400 . S
C241 H262 0.935 . S
C242 C241 1.400 . S
C242 C243 1.376 . S
C242 C251 1.512 . S
C243 C242 1.376 . S
C243 C244 1.392 1_564 S
C243 H264 0.933 1_554 S
C244 C243 1.392 1_546 S
C244 C245 1.361 1_546 S
C244 C246 1.499 . S
C245 C240 1.390 . S
C245 C244 1.361 1_564 S
C245 H263 0.931 1_565 S
C246 C244 1.499 . S
C246 C247 1.357 1_545 S
C246 C248 1.380 . S
C247 C246 1.357 1_565 S
C247 C257 1.386 . S
C247 H265 0.931 . S
C248 C246 1.380 . S
C248 C249 1.409 . S
C248 H266 0.929 . S
C249 C248 1.409 . S
C249 C250 1.384 . S
C249 H267 0.930 . S
C250 C249 1.384 . S
C250 C257 1.353 1_545 S
C251 C242 1.512 . S
C251 C252 1.341 . S
C251 C253 1.371 1_565 S
C252 C251 1.341 . S
C252 C256 1.394 . S
C252 H268 0.930 . S
C253 C251 1.371 1_545 S
C253 C254 1.392 . S
C253 H269 0.931 . S
C254 C253 1.392 . S
C254 C255 1.326 1_545 S
C254 H272 0.932 . S
C255 C254 1.326 1_565 S
C255 C256 1.341 . S
C256 C252 1.394 . S
C256 C255 1.341 . S
C256 H271 0.929 . S
C257 C247 1.386 . S
C257 C250 1.353 1_565 S
C257 H270 0.928 . S
H258 C234 0.931 . S
H259 C236 0.930 . S
H260 C238 0.929 . S
H261 C239 0.931 . S
H262 C241 0.935 . S
H263 C245 0.931 1_545 S
H264 C243 0.933 1_556 S
H265 C247 0.931 . S
H266 C248 0.929 . S
H267 C249 0.930 . S
H268 C252 0.930 . S
H269 C253 0.931 . S
H270 C257 0.928 . S
H271 C256 0.929 . S
H272 C254 0.932 . S
C273 C274 1.386 . S
C273 C275 1.397 . S
C273 H297 0.931 . S
C274 C273 1.386 . S
C274 C278 1.397 . S
C275 C273 1.397 . S
C275 C276 1.384 . S
C275 H298 0.930 . S
C276 C275 1.384 . S
C276 C277 1.377 . S
C276 C279 1.481 . S
C277 C276 1.377 . S
C277 C278 1.389 . S
C277 H299 0.929 . S
C278 C274 1.397 . S
C278 C277 1.389 . S
C278 H300 0.931 . S
C279 C276 1.481 . S
C279 C280 1.387 1_556 S
C279 C284 1.390 1_556 S
C280 C279 1.387 1_554 S
C280 C281 1.401 . S
C280 H301 0.930 1_554 S
C281 C280 1.401 . S
C281 C282 1.376 . S
C281 C290 1.511 . S
C282 C281 1.376 . S
C282 C283 1.392 . S
C282 H303 0.931 . S
C283 C282 1.392 . S
C283 C284 1.361 . S
C283 C285 1.500 . S
C284 C279 1.390 1_554 S
C284 C283 1.361 . S
C284 H302 0.931 . S
C285 C283 1.500 . S
C285 C286 1.371 . S
C285 C287 1.365 . S
C286 C285 1.371 . S
C286 C296 1.386 . S
C286 H304 0.931 . S
C287 C285 1.365 . S
C287 C288 1.409 . S
C287 H305 0.929 . S
C288 C287 1.409 . S
C288 C289 1.380 . S
C288 H306 0.930 . S
C289 C288 1.380 . S
C289 C296 1.357 . S
C290 C281 1.511 . S
C290 C291 1.341 . S
C290 C292 1.371 . S
C291 C290 1.341 . S
C291 C295 1.394 . S
C291 H307 0.930 . S
C292 C290 1.371 . S
C292 C293 1.392 . S
C292 H308 0.931 . S
C293 C292 1.392 . S
C293 C294 1.331 . S
C293 H311 0.932 . S
C294 C293 1.331 . S
C294 C295 1.336 . S
C295 C291 1.394 . S
C295 C294 1.336 . S
C295 H310 0.929 . S
C296 C286 1.386 . S
C296 C289 1.357 . S
C296 H309 0.928 . S
H297 C273 0.931 . S
H298 C275 0.930 . S
H299 C277 0.929 . S
H300 C278 0.931 . S
H301 C280 0.930 1_556 S
H302 C284 0.931 . S
H303 C282 0.931 . S
H304 C286 0.931 . S
H305 C287 0.929 . S
H306 C288 0.930 . S
H307 C291 0.930 . S
H308 C292 0.931 . S
H309 C296 0.928 . S
H310 C295 0.929 . S
H311 C293 0.932 . S
C312 Eu313 2.835 . S
C312 C314 1.500 . S
C312 O332 1.257 . S
C312 O333 1.260 . S
Eu313 C312 2.835 . S
Eu313 O332 2.473 . S
Eu313 O333 2.480 . S
Eu313 O334 2.430 . S
Eu313 O335 2.670 1_545 S
Eu313 O336 2.394 . S
Eu313 O341 2.355 1_655 S
Eu313 O343 2.374 1_545 S
C314 C312 1.500 . S
C314 C315 1.377 . S
C314 C319 1.377 . S
C315 C314 1.377 . S
C315 C316 1.395 . S
C315 H344 0.931 . S
C316 C315 1.395 . S
C316 C317 1.383 . S
C316 H345 0.931 . S
C317 C316 1.383 . S
C317 C318 1.394 . S
C318 C317 1.394 . S
C318 C319 1.378 . S
C318 H346 0.931 1_655 S
C319 C314 1.377 . S
C319 C318 1.378 . S
C319 H347 0.931 1_655 S
C320 O334 1.281 . S
C320 O335 1.255 1_545 S
C321 O336 1.251 1_455 S
C321 O337 1.251 . S
C322 Eu323 2.835 . S
C322 C324 1.500 . S
C322 O338 1.257 . S
C322 O339 1.260 . S
Eu323 C322 2.835 . S
Eu323 O335 2.355 1_455 S
Eu323 O337 2.374 1_565 S
Eu323 O338 2.473 . S
Eu323 O339 2.480 . S
Eu323 O340 2.430 . S
Eu323 O341 2.670 1_565 S
Eu323 O342 2.394 . S
C324 C322 1.500 . S
C324 C325 1.377 . S
C324 C329 1.377 . S
C325 C324 1.377 . S
C325 C326 1.395 . S
C325 H348 0.931 . S
C326 C325 1.395 . S
C326 C327 1.383 . S
C326 H349 0.931 . S
C327 C326 1.383 . S
C327 C328 1.394 . S
C328 C327 1.394 . S
C328 C329 1.378 . S
C328 H350 0.931 1_455 S
C329 C324 1.377 . S
C329 C328 1.378 . S
C329 H351 0.931 1_455 S
C330 O340 1.274 . S
C330 O341 1.260 1_565 S
C331 O342 1.251 1_655 S
C331 O343 1.251 . S
O332 C312 1.257 . S
O332 Eu313 2.473 . S
O333 C312 1.260 . S
O333 Eu313 2.480 . S
O334 Eu313 2.430 . S
O334 C320 1.281 . S
O335 Eu313 2.670 1_565 S
O335 C320 1.255 1_565 S
O335 Eu323 2.355 1_655 S
O336 Eu313 2.394 . S
O336 C321 1.251 1_655 S
O337 C321 1.251 . S
O337 Eu323 2.374 1_545 S
O338 C322 1.257 . S
O338 Eu323 2.473 . S
O339 C322 1.260 . S
O339 Eu323 2.480 . S
O340 Eu323 2.430 . S
O340 C330 1.274 . S
O341 Eu313 2.355 1_455 S
O341 Eu323 2.670 1_545 S
O341 C330 1.260 1_545 S
O342 Eu323 2.394 . S
O342 C331 1.251 1_455 S
O343 Eu313 2.374 1_565 S
O343 C331 1.251 . S
H344 C315 0.931 . S
H345 C316 0.931 . S
H346 C318 0.931 1_455 S
H347 C319 0.931 1_455 S
H348 C325 0.931 . S
H349 C326 0.931 . S
H350 C328 0.931 1_655 S
H351 C329 0.931 1_655 S
C352 Eu353 2.835 . S
C352 C354 1.500 . S
C352 O372 1.257 . S
C352 O373 1.260 . S
Eu353 C352 2.835 . S
Eu353 O372 2.473 . S
Eu353 O373 2.480 . S
Eu353 O374 2.430 . S
Eu353 O375 2.670 . S
Eu353 O376 2.394 . S
Eu353 O381 2.355 1_565 S
Eu353 O383 2.374 . S
C354 C352 1.500 . S
C354 C355 1.377 . S
C354 C359 1.377 . S
C355 C354 1.377 . S
C355 C356 1.395 . S
C355 H384 0.931 . S
C356 C355 1.395 . S
C356 C357 1.383 . S
C356 H385 0.931 . S
C357 C356 1.383 . S
C357 C358 1.394 . S
C358 C357 1.394 . S
C358 C359 1.378 . S
C358 H386 0.931 1_565 S
C359 C354 1.377 . S
C359 C358 1.378 . S
C359 H387 0.931 1_565 S
C360 O374 1.259 . S
C360 O375 1.270 . S
C361 O376 1.251 1_545 S
C361 O377 1.251 . S
C362 Eu363 2.835 . S
C362 C364 1.500 . S
C362 O378 1.257 . S
C362 O379 1.260 . S
Eu363 C362 2.835 . S
Eu363 O375 2.355 1_545 S
Eu363 O377 2.374 . S
Eu363 O378 2.473 . S
Eu363 O379 2.480 . S
Eu363 O380 2.430 . S
Eu363 O381 2.670 . S
Eu363 O382 2.394 . S
C364 C362 1.500 . S
C364 C365 1.377 . S
C364 C369 1.377 . S
C365 C364 1.377 . S
C365 C366 1.395 . S
C365 H388 0.931 . S
C366 C365 1.395 . S
C366 C367 1.383 . S
C366 H389 0.931 . S
C367 C366 1.383 . S
C367 C368 1.394 . S
C368 C367 1.394 . S
C368 C369 1.378 . S
C368 H390 0.931 1_545 S
C369 C364 1.377 . S
C369 C368 1.378 . S
C369 H391 0.931 1_545 S
C370 O380 1.259 . S
C370 O381 1.270 . S
C371 O382 1.251 1_565 S
C371 O383 1.251 . S
O372 C352 1.257 . S
O372 Eu353 2.473 . S
O373 C352 1.260 . S
O373 Eu353 2.480 . S
O374 Eu353 2.430 . S
O374 C360 1.259 . S
O375 Eu353 2.670 . S
O375 C360 1.270 . S
O375 Eu363 2.355 1_565 S
O376 Eu353 2.394 . S
O376 C361 1.251 1_565 S
O377 C361 1.251 . S
O377 Eu363 2.374 . S
O378 C362 1.257 . S
O378 Eu363 2.473 . S
O379 C362 1.260 . S
O379 Eu363 2.480 . S
O380 Eu363 2.430 . S
O380 C370 1.259 . S
O381 Eu353 2.355 1_545 S
O381 Eu363 2.670 . S
O381 C370 1.270 . S
O382 Eu363 2.394 . S
O382 C371 1.251 1_545 S
O383 Eu353 2.374 . S
O383 C371 1.251 . S
H384 C355 0.931 . S
H385 C356 0.931 . S
H386 C358 0.931 1_545 S
H387 C359 0.931 1_545 S
H388 C365 0.931 . S
H389 C366 0.931 . S
H390 C368 0.931 1_565 S
H391 C369 0.931 1_565 S
C392 Eu393 2.835 . S
C392 C394 1.500 . S
C392 O412 1.257 . S
C392 O413 1.260 . S
Eu393 C392 2.835 . S
Eu393 O412 2.473 . S
Eu393 O413 2.480 . S
Eu393 O414 2.430 . S
Eu393 O415 2.670 . S
Eu393 O416 2.394 . S
Eu393 O421 2.355 . S
Eu393 O423 2.374 . S
C394 C392 1.500 . S
C394 C395 1.377 . S
C394 C399 1.377 . S
C395 C394 1.377 . S
C395 C396 1.395 . S
C395 H424 0.931 . S
C396 C395 1.395 . S
C396 C397 1.383 . S
C396 H425 0.931 . S
C397 C396 1.383 . S
C397 C398 1.394 . S
C398 C397 1.394 . S
C398 C399 1.378 . S
C398 H426 0.931 . S
C399 C394 1.377 . S
C399 C398 1.378 . S
C399 H427 0.931 . S
C400 O414 1.259 . S
C400 O415 1.270 . S
C401 O416 1.251 . S
C401 O417 1.251 . S
C402 Eu403 2.835 . S
C402 C404 1.500 . S
C402 O418 1.257 . S
C402 O419 1.260 . S
Eu403 C402 2.835 . S
Eu403 O415 2.355 . S
Eu403 O417 2.374 . S
Eu403 O418 2.473 . S
Eu403 O419 2.480 . S
Eu403 O420 2.430 . S
Eu403 O421 2.670 . S
Eu403 O422 2.394 . S
C404 C402 1.500 . S
C404 C405 1.377 . S
C404 C409 1.377 . S
C405 C404 1.377 . S
C405 C406 1.395 . S
C405 H428 0.931 . S
C406 C405 1.395 . S
C406 C407 1.383 . S
C406 H429 0.931 . S
C407 C406 1.383 . S
C407 C408 1.394 . S
C408 C407 1.394 . S
C408 C409 1.378 . S
C408 H430 0.931 . S
C409 C404 1.377 . S
C409 C408 1.378 . S
C409 H431 0.931 . S
C410 O420 1.259 . S
C410 O421 1.270 . S
C411 O422 1.251 . S
C411 O423 1.251 . S
O412 C392 1.257 . S
O412 Eu393 2.473 . S
O413 C392 1.260 . S
O413 Eu393 2.480 . S
O414 Eu393 2.430 . S
O414 C400 1.259 . S
O415 Eu393 2.670 . S
O415 C400 1.270 . S
O415 Eu403 2.355 . S
O416 Eu393 2.394 . S
O416 C401 1.251 . S
O417 C401 1.251 . S
O417 Eu403 2.374 . S
O418 C402 1.257 . S
O418 Eu403 2.473 . S
O419 C402 1.260 . S
O419 Eu403 2.480 . S
O420 Eu403 2.430 . S
O420 C410 1.259 . S
O421 Eu393 2.355 . S
O421 Eu403 2.670 . S
O421 C410 1.270 . S
O422 Eu403 2.394 . S
O422 C411 1.251 . S
O423 Eu393 2.374 . S
O423 C411 1.251 . S
H424 C395 0.931 . S
H425 C396 0.931 . S
H426 C398 0.931 . S
H427 C399 0.931 . S
H428 C405 0.931 . S
H429 C406 0.931 . S
H430 C408 0.931 . S
H431 C409 0.931 . S
C432 Eu433 2.835 . S
C432 C434 1.500 . S
C432 O452 1.257 . S
C432 O453 1.260 . S
Eu433 C432 2.835 . S
Eu433 O452 2.473 . S
Eu433 O453 2.480 . S
Eu433 O454 2.430 . S
Eu433 O455 2.670 1_455 S
Eu433 O456 2.394 . S
Eu433 O461 2.355 . S
Eu433 O463 2.374 1_455 S
C434 C432 1.500 . S
C434 C435 1.377 . S
C434 C439 1.377 . S
C435 C434 1.377 . S
C435 C436 1.395 . S
C435 H464 0.931 . S
C436 C435 1.395 . S
C436 C437 1.383 . S
C436 H465 0.931 . S
C437 C436 1.383 . S
C437 C438 1.394 . S
C438 C437 1.394 . S
C438 C439 1.378 . S
C438 H466 0.931 . S
C439 C434 1.377 . S
C439 C438 1.378 . S
C439 H467 0.931 . S
C440 O454 1.277 . S
C440 O455 1.257 1_455 S
C441 O456 1.251 . S
C441 O457 1.251 . S
C442 Eu443 2.835 . S
C442 C444 1.500 . S
C442 O458 1.257 . S
C442 O459 1.260 . S
Eu443 C442 2.835 . S
Eu443 O455 2.355 . S
Eu443 O457 2.374 1_655 S
Eu443 O458 2.473 . S
Eu443 O459 2.480 . S
Eu443 O460 2.430 . S
Eu443 O461 2.670 1_655 S
Eu443 O462 2.394 . S
C444 C442 1.500 . S
C444 C445 1.377 . S
C444 C449 1.377 . S
C445 C444 1.377 . S
C445 C446 1.395 . S
C445 H468 0.931 . S
C446 C445 1.395 . S
C446 C447 1.383 . S
C446 H469 0.931 . S
C447 C446 1.383 . S
C447 C448 1.394 . S
C448 C447 1.394 . S
C448 C449 1.378 . S
C448 H470 0.931 . S
C449 C444 1.377 . S
C449 C448 1.378 . S
C449 H471 0.931 . S
C450 O460 1.270 . S
C450 O461 1.262 1_655 S
C451 O462 1.251 . S
C451 O463 1.251 . S
O452 C432 1.257 . S
O452 Eu433 2.473 . S
O453 C432 1.260 . S
O453 Eu433 2.480 . S
O454 Eu433 2.430 . S
O454 C440 1.277 . S
O455 Eu433 2.670 1_655 S
O455 C440 1.257 1_655 S
O455 Eu443 2.355 . S
O456 Eu433 2.394 . S
O456 C441 1.251 . S
O457 C441 1.251 . S
O457 Eu443 2.374 1_455 S
O458 C442 1.257 . S
O458 Eu443 2.473 . S
O459 C442 1.260 . S
O459 Eu443 2.480 . S
O460 Eu443 2.430 . S
O460 C450 1.270 . S
O461 Eu433 2.355 . S
O461 Eu443 2.670 1_455 S
O461 C450 1.262 1_455 S
O462 Eu443 2.394 . S
O462 C451 1.251 . S
O463 Eu433 2.374 1_655 S
O463 C451 1.251 . S
H464 C435 0.931 . S
H465 C436 0.931 . S
H466 C438 0.931 . S
H467 C439 0.931 . S
H468 C445 0.931 . S
H469 C446 0.931 . S
H470 C448 0.931 . S
H471 C449 0.931 . S
H472 C490 0.951 . S
H473 C492 0.951 . S
H474 C494 0.950 . S
H475 C495 0.950 . S
H476 C497 0.950 . S
H477 C500 0.950 . S
H478 C501 0.950 . S
H479 C503 0.950 . S
H480 C504 0.950 . S
H481 C505 0.951 . S
H482 C507 0.951 . S
H483 C509 0.950 . S
H484 C510 0.950 . S
H485 C512 0.950 . S
H486 C515 0.950 . S
H487 C516 0.950 . S
H488 C518 0.950 . S
H489 C519 0.950 . S
C490 H472 0.951 . S
C490 C491 1.361 1_565 S
C490 C492 1.388 . S
C491 C490 1.361 1_545 S
C491 C495 1.389 . S
C492 H473 0.951 . S
C492 C490 1.388 . S
C492 C493 1.371 1_565 S
C493 C492 1.371 1_545 S
C493 C494 1.408 . S
C493 C496 1.498 . S
C494 H474 0.950 . S
C494 C493 1.408 . S
C494 C495 1.374 . S
C495 H475 0.950 . S
C495 C491 1.389 . S
C495 C494 1.374 . S
C496 C493 1.498 . S
C496 C497 1.399 . S
C496 C498 1.364 1_545 S
C497 H476 0.950 . S
C497 C496 1.399 . S
C497 C513 1.377 . S
C498 C496 1.364 1_565 S
C498 C499 1.524 . S
C498 C512 1.377 . S
C499 C498 1.524 . S
C499 C500 1.397 . S
C499 C504 1.363 . S
C500 H477 0.950 . S
C500 C499 1.397 . S
C500 C501 1.334 . S
C501 H478 0.950 . S
C501 C500 1.334 . S
C501 C502 1.287 . S
C502 C501 1.287 . S
C502 C503 1.524 . S
C502 H521 0.913 . S
C503 H479 0.950 . S
C503 C502 1.524 . S
C503 C504 1.415 . S
C504 H480 0.950 . S
C504 C499 1.363 . S
C504 C503 1.415 . S
C505 H481 0.951 . S
C505 C506 1.399 . S
C505 C507 1.388 . S
C506 C505 1.399 . S
C506 C510 1.351 1_545 S
C507 H482 0.951 . S
C507 C505 1.388 . S
C507 C508 1.410 . S
C508 C507 1.410 . S
C508 C509 1.370 1_545 S
C508 C511 1.498 . S
C509 H483 0.950 . S
C509 C508 1.370 1_565 S
C509 C510 1.374 . S
C510 H484 0.950 . S
C510 C506 1.351 1_565 S
C510 C509 1.374 . S
C511 C508 1.498 . S
C511 C512 1.363 1_545 S
C511 C513 1.399 . S
C512 H485 0.950 . S
C512 C498 1.377 . S
C512 C511 1.363 1_565 S
C513 C497 1.377 . S
C513 C511 1.399 . S
C513 C514 1.524 . S
C514 C513 1.524 . S
C514 C515 1.397 . S
C514 C519 1.363 . S
C515 H486 0.950 . S
C515 C514 1.397 . S
C515 C516 1.334 . S
C516 H487 0.950 . S
C516 C515 1.334 . S
C516 C517 1.287 . S
C517 C516 1.287 . S
C517 C518 1.524 . S
C517 H520 0.999 . S
C518 H488 0.950 . S
C518 C517 1.524 . S
C518 C519 1.415 . S
C519 H489 0.950 . S
C519 C514 1.363 . S
C519 C518 1.415 . S
H520 C517 0.999 . S
H521 C502 0.913 . S
H522 C540 0.951 . S
H523 C542 0.951 . S
H524 C544 0.950 . S
H525 C545 0.950 . S
H526 C547 0.950 . S
H527 C550 0.950 . S
H528 C551 0.950 . S
H529 C553 0.950 . S
H530 C554 0.950 . S
H531 C555 0.951 . S
H532 C557 0.951 . S
H533 C559 0.950 . S
H534 C560 0.950 . S
H535 C562 0.950 . S
H536 C565 0.950 . S
H537 C566 0.950 . S
H538 C568 0.950 . S
H539 C569 0.950 . S
C540 H522 0.951 . S
C540 C541 1.366 . S
C540 C542 1.388 . S
C541 C540 1.366 . S
C541 C545 1.385 . S
C542 H523 0.951 . S
C542 C540 1.388 . S
C542 C543 1.366 . S
C543 C542 1.366 . S
C543 C544 1.414 . S
C543 C546 1.499 . S
C544 H524 0.950 . S
C544 C543 1.414 . S
C544 C545 1.374 . S
C545 H525 0.950 . S
C545 C541 1.385 . S
C545 C544 1.374 . S
C546 C543 1.499 . S
C546 C547 1.373 . S
C546 C548 1.389 . S
C547 H526 0.950 . S
C547 C546 1.373 . S
C547 C563 1.377 . S
C548 C546 1.389 . S
C548 C549 1.524 . S
C548 C562 1.377 . S
C549 C548 1.524 . S
C549 C550 1.397 . S
C549 C554 1.363 . S
C550 H527 0.950 . S
C550 C549 1.397 . S
C550 C551 1.334 . S
C551 H528 0.950 . S
C551 C550 1.334 . S
C551 C552 1.287 . S
C552 C551 1.287 . S
C552 C553 1.524 . S
C552 H571 0.913 . S
C553 H529 0.950 . S
C553 C552 1.524 . S
C553 C554 1.415 . S
C554 H530 0.950 . S
C554 C549 1.363 . S
C554 C553 1.415 . S
C555 H531 0.951 . S
C555 C556 1.366 . S
C555 C557 1.388 . S
C556 C555 1.366 . S
C556 C560 1.385 . S
C557 H532 0.951 . S
C557 C555 1.388 . S
C557 C558 1.366 . S
C558 C557 1.366 . S
C558 C559 1.414 . S
C558 C561 1.499 . S
C559 H533 0.950 . S
C559 C558 1.414 . S
C559 C560 1.374 . S
C560 H534 0.950 . S
C560 C556 1.385 . S
C560 C559 1.374 . S
C561 C558 1.499 . S
C561 C562 1.373 . S
C561 C563 1.389 . S
C562 H535 0.950 . S
C562 C548 1.377 . S
C562 C561 1.373 . S
C563 C547 1.377 . S
C563 C561 1.389 . S
C563 C564 1.524 . S
C564 C563 1.524 . S
C564 C565 1.397 . S
C564 C569 1.363 . S
C565 H536 0.950 . S
C565 C564 1.397 . S
C565 C566 1.334 . S
C566 H537 0.950 . S
C566 C565 1.334 . S
C566 C567 1.287 . S
C567 C566 1.287 . S
C567 C568 1.524 . S
C567 H570 0.999 . S
C568 H538 0.950 . S
C568 C567 1.524 . S
C568 C569 1.415 . S
C569 H539 0.950 . S
C569 C564 1.363 . S
C569 C568 1.415 . S
H570 C567 0.999 . S
H571 C552 0.913 . S
H572 C590 0.951 . S
H573 C592 0.951 . S
H574 C594 0.950 . S
H575 C595 0.950 . S
H576 C597 0.950 . S
H577 C600 0.950 . S
H578 C601 0.950 . S
H579 C603 0.950 . S
H580 C604 0.950 . S
H581 C605 0.951 . S
H582 C607 0.951 . S
H583 C609 0.950 . S
H584 C610 0.950 . S
H585 C612 0.950 . S
H586 C615 0.950 . S
H587 C616 0.950 . S
H588 C618 0.950 . S
H589 C619 0.950 . S
C590 H572 0.951 . S
C590 C591 1.366 . S
C590 C592 1.388 . S
C591 C590 1.366 . S
C591 C595 1.385 . S
C592 H573 0.951 . S
C592 C590 1.388 . S
C592 C593 1.366 . S
C593 C592 1.366 . S
C593 C594 1.414 . S
C593 C596 1.499 . S
C594 H574 0.950 . S
C594 C593 1.414 . S
C594 C595 1.374 . S
C595 H575 0.950 . S
C595 C591 1.385 . S
C595 C594 1.374 . S
C596 C593 1.499 . S
C596 C597 1.373 . S
C596 C598 1.389 . S
C597 H576 0.950 . S
C597 C596 1.373 . S
C597 C613 1.377 . S
C598 C596 1.389 . S
C598 C599 1.524 . S
C598 C612 1.377 . S
C599 C598 1.524 . S
C599 C600 1.397 . S
C599 C604 1.363 . S
C600 H577 0.950 . S
C600 C599 1.397 . S
C600 C601 1.334 . S
C601 H578 0.950 . S
C601 C600 1.334 . S
C601 C602 1.287 . S
C602 C601 1.287 . S
C602 C603 1.524 . S
C602 H621 0.913 . S
C603 H579 0.950 . S
C603 C602 1.524 . S
C603 C604 1.415 . S
C604 H580 0.950 . S
C604 C599 1.363 . S
C604 C603 1.415 . S
C605 H581 0.951 . S
C605 C606 1.366 . S
C605 C607 1.388 . S
C606 C605 1.366 . S
C606 C610 1.385 . S
C607 H582 0.951 . S
C607 C605 1.388 . S
C607 C608 1.366 . S
C608 C607 1.366 . S
C608 C609 1.414 . S
C608 C611 1.499 . S
C609 H583 0.950 . S
C609 C608 1.414 . S
C609 C610 1.374 . S
C610 H584 0.950 . S
C610 C606 1.385 . S
C610 C609 1.374 . S
C611 C608 1.499 . S
C611 C612 1.373 . S
C611 C613 1.389 . S
C612 H585 0.950 . S
C612 C598 1.377 . S
C612 C611 1.373 . S
C613 C597 1.377 . S
C613 C611 1.389 . S
C613 C614 1.524 . S
C614 C613 1.524 . S
C614 C615 1.397 . S
C614 C619 1.363 . S
C615 H586 0.950 . S
C615 C614 1.397 . S
C615 C616 1.334 . S
C616 H587 0.950 . S
C616 C615 1.334 . S
C616 C617 1.287 . S
C617 C616 1.287 . S
C617 C618 1.524 . S
C617 H620 0.999 . S
C618 H588 0.950 . S
C618 C617 1.524 . S
C618 C619 1.415 . S
C619 H589 0.950 . S
C619 C614 1.363 . S
C619 C618 1.415 . S
H620 C617 0.999 . S
H621 C602 0.913 . S
H622 C640 0.951 . S
H623 C642 0.951 . S
H624 C644 0.950 . S
H625 C645 0.950 . S
H626 C647 0.950 . S
H627 C650 0.950 . S
H628 C651 0.950 . S
H629 C653 0.950 . S
H630 C654 0.950 1_655 S
H631 C655 0.951 . S
H632 C657 0.951 . S
H633 C659 0.950 . S
H634 C660 0.950 . S
H635 C662 0.950 . S
H636 C665 0.950 . S
H637 C666 0.950 . S
H638 C668 0.950 . S
H639 C669 0.950 1_455 S
C640 H622 0.951 . S
C640 C641 1.364 1_655 S
C640 C642 1.388 . S
C641 C640 1.364 1_455 S
C641 C645 1.386 . S
C642 H623 0.951 . S
C642 C640 1.388 . S
C642 C643 1.366 1_655 S
C643 C642 1.366 1_455 S
C643 C644 1.414 . S
C643 C646 1.499 . S
C644 H624 0.950 . S
C644 C643 1.414 . S
C644 C645 1.374 . S
C645 H625 0.950 . S
C645 C641 1.386 . S
C645 C644 1.374 . S
C646 C643 1.499 . S
C646 C647 1.373 1_455 S
C646 C648 1.389 . S
C647 H626 0.950 . S
C647 C646 1.373 1_655 S
C647 C663 1.377 . S
C648 C646 1.389 . S
C648 C649 1.524 . S
C648 C662 1.377 . S
C649 C648 1.524 . S
C649 C650 1.397 . S
C649 C654 1.363 . S
C650 H627 0.950 . S
C650 C649 1.397 . S
C650 C651 1.334 . S
C651 H628 0.950 . S
C651 C650 1.334 . S
C651 C652 1.287 . S
C652 C651 1.287 . S
C652 C653 1.524 . S
C652 H671 0.913 . S
C653 H629 0.950 . S
C653 C652 1.524 . S
C653 C654 1.415 . S
C654 H630 0.950 1_455 S
C654 C649 1.363 . S
C654 C653 1.415 . S
C655 H631 0.951 . S
C655 C656 1.388 . S
C655 C657 1.388 . S
C656 C655 1.388 . S
C656 C660 1.363 1_455 S
C657 H632 0.951 . S
C657 C655 1.388 . S
C657 C658 1.361 1_455 S
C658 C657 1.361 1_655 S
C658 C659 1.418 . S
C658 C661 1.498 . S
C659 H633 0.950 . S
C659 C658 1.418 . S
C659 C660 1.374 . S
C660 H634 0.950 . S
C660 C656 1.363 1_655 S
C660 C659 1.374 . S
C661 C658 1.498 . S
C661 C662 1.361 1_655 S
C661 C663 1.401 . S
C662 H635 0.950 . S
C662 C648 1.377 . S
C662 C661 1.361 1_455 S
C663 C647 1.377 . S
C663 C661 1.401 . S
C663 C664 1.524 . S
C664 C663 1.524 . S
C664 C665 1.397 . S
C664 C669 1.363 . S
C665 H636 0.950 . S
C665 C664 1.397 . S
C665 C666 1.334 . S
C666 H637 0.950 . S
C666 C665 1.334 . S
C666 C667 1.287 . S
C667 C666 1.287 . S
C667 C668 1.524 . S
C667 H670 0.999 . S
C668 H638 0.950 . S
C668 C667 1.524 . S
C668 C669 1.415 . S
C669 H639 0.950 1_655 S
C669 C664 1.363 . S
C669 C668 1.415 . S
H670 C667 0.999 . S
H671 C652 0.913 . S
H672 C690 0.951 . S
H673 C692 0.951 . S
H674 C694 0.950 . S
H675 C695 0.950 . S
H676 C697 0.950 1_554 S
H677 C700 0.950 . S
H678 C701 0.950 . S
H679 C703 0.950 . S
H680 C704 0.943 1_556 S
H681 C705 0.951 . S
H682 C707 0.951 . S
H683 C709 0.950 . S
H684 C710 0.950 . S
H685 C712 0.950 . S
H686 C715 0.950 . S
H687 C716 0.950 . S
H688 C718 0.950 . S
H689 C719 0.950 . S
C690 H672 0.951 . S
C690 C691 1.368 1_565 S
C690 C692 1.388 . S
C691 C690 1.368 1_545 S
C691 C695 1.382 . S
C692 H673 0.951 . S
C692 C690 1.388 . S
C692 C693 1.383 . S
C693 C692 1.383 . S
C693 C694 1.396 1_565 S
C693 C696 1.498 1_565 S
C694 H674 0.950 . S
C694 C693 1.396 1_545 S
C694 C695 1.374 . S
C695 H675 0.950 . S
C695 C691 1.382 . S
C695 C694 1.374 . S
C696 C693 1.498 1_545 S
C696 C697 1.368 1_554 S
C696 C698 1.395 1_545 S
C697 H676 0.950 1_556 S
C697 C696 1.368 1_556 S
C697 C713 1.377 . S
C698 C696 1.395 1_565 S
C698 C699 1.524 . S
C698 C712 1.377 1_554 S
C699 C698 1.524 . S
C699 C700 1.397 . S
C699 C704 1.363 . S
C700 H677 0.950 . S
C700 C699 1.397 . S
C700 C701 1.334 . S
C701 H678 0.950 . S
C701 C700 1.334 . S
C701 C702 1.287 . S
C702 C701 1.287 . S
C702 C703 1.524 . S
C702 H721 0.913 . S
C703 H679 0.950 . S
C703 C702 1.524 . S
C703 C704 1.415 . S
C704 H680 0.943 1_554 S
C704 C699 1.363 . S
C704 C703 1.415 . S
C705 H681 0.951 . S
C705 C706 1.343 1_545 S
C705 C707 1.388 . S
C706 C705 1.343 1_565 S
C706 C710 1.408 . S
C707 H682 0.951 . S
C707 C705 1.388 . S
C707 C708 1.370 1_545 S
C708 C707 1.370 1_565 S
C708 C709 1.410 . S
C708 C711 1.498 . S
C709 H683 0.950 . S
C709 C708 1.410 . S
C709 C710 1.374 . S
C710 H684 0.950 . S
C710 C706 1.408 . S
C710 C709 1.374 . S
C711 C708 1.498 . S
C711 C712 1.393 . S
C711 C713 1.370 1_565 S
C712 H685 0.950 . S
C712 C698 1.377 1_556 S
C712 C711 1.393 . S
C713 C697 1.377 . S
C713 C711 1.370 1_545 S
C713 C714 1.524 . S
C714 C713 1.524 . S
C714 C715 1.397 . S
C714 C719 1.363 . S
C715 H686 0.950 . S
C715 C714 1.397 . S
C715 C716 1.334 . S
C716 H687 0.950 . S
C716 C715 1.334 . S
C716 C717 1.287 . S
C717 C716 1.287 . S
C717 C718 1.524 . S
C717 H720 0.999 . S
C718 H688 0.950 . S
C718 C717 1.524 . S
C718 C719 1.415 . S
C719 H689 0.950 . S
C719 C714 1.363 . S
C719 C718 1.415 . S
H720 C717 0.999 . S
H721 C702 0.913 . S
H722 C740 0.951 . S
H723 C742 0.951 . S
H724 C744 0.950 . S
H725 C745 0.950 . S
H726 C747 0.950 . S
H727 C750 0.950 . S
H728 C751 0.950 . S
H729 C753 0.950 . S
H730 C754 0.950 . S
H731 C755 0.951 . S
H732 C757 0.951 . S
H733 C759 0.950 . S
H734 C760 0.950 . S
H735 C762 0.950 . S
H736 C765 0.950 . S
H737 C766 0.950 . S
H738 C768 0.950 . S
H739 C769 0.950 . S
C740 H722 0.951 . S
C740 C741 1.366 . S
C740 C742 1.388 . S
C741 C740 1.366 . S
C741 C745 1.385 . S
C742 H723 0.951 . S
C742 C740 1.388 . S
C742 C743 1.366 . S
C743 C742 1.366 . S
C743 C744 1.414 . S
C743 C746 1.499 . S
C744 H724 0.950 . S
C744 C743 1.414 . S
C744 C745 1.374 . S
C745 H725 0.950 . S
C745 C741 1.385 . S
C745 C744 1.374 . S
C746 C743 1.499 . S
C746 C747 1.373 . S
C746 C748 1.389 1_554 S
C747 H726 0.950 . S
C747 C746 1.373 . S
C747 C763 1.377 1_554 S
C748 C746 1.389 1_556 S
C748 C749 1.524 . S
C748 C762 1.377 . S
C749 C748 1.524 . S
C749 C750 1.397 1_556 S
C749 C754 1.363 . S
C750 H727 0.950 . S
C750 C749 1.397 1_554 S
C750 C751 1.334 . S
C751 H728 0.950 . S
C751 C750 1.334 . S
C751 C752 1.287 1_554 S
C752 C751 1.287 1_556 S
C752 C753 1.524 . S
C752 H771 0.913 . S
C753 H729 0.950 . S
C753 C752 1.524 . S
C753 C754 1.415 . S
C754 H730 0.950 . S
C754 C749 1.363 . S
C754 C753 1.415 . S
C755 H731 0.951 . S
C755 C756 1.366 . S
C755 C757 1.388 . S
C756 C755 1.366 . S
C756 C760 1.385 . S
C757 H732 0.951 . S
C757 C755 1.388 . S
C757 C758 1.366 . S
C758 C757 1.366 . S
C758 C759 1.414 . S
C758 C761 1.499 . S
C759 H733 0.950 . S
C759 C758 1.414 . S
C759 C760 1.374 . S
C760 H734 0.950 . S
C760 C756 1.385 . S
C760 C759 1.374 . S
C761 C758 1.499 . S
C761 C762 1.373 . S
C761 C763 1.389 . S
C762 H735 0.950 . S
C762 C748 1.377 . S
C762 C761 1.373 . S
C763 C747 1.377 1_556 S
C763 C761 1.389 . S
C763 C764 1.524 . S
C764 C763 1.524 . S
C764 C765 1.397 . S
C764 C769 1.363 1_556 S
C765 H736 0.950 . S
C765 C764 1.397 . S
C765 C766 1.334 . S
C766 H737 0.950 . S
C766 C765 1.334 . S
C766 C767 1.287 . S
C767 C766 1.287 . S
C767 C768 1.524 1_556 S
C767 H770 0.999 . S
C768 H738 0.950 . S
C768 C767 1.524 1_554 S
C768 C769 1.415 . S
C769 H739 0.950 . S
C769 C764 1.363 1_554 S
C769 C768 1.415 . S
H770 C767 0.999 . S
H771 C752 0.913 . S
H772 C790 0.951 . S
H773 C792 0.951 . S
H774 C794 0.950 . S
H775 C795 0.950 . S
H776 C797 0.950 . S
H777 C800 0.950 . S
H778 C801 0.950 . S
H779 C803 0.950 . S
H780 C804 0.950 . S
H781 C805 0.951 . S
H782 C807 0.951 . S
H783 C809 0.950 . S
H784 C810 0.950 . S
H785 C812 0.950 . S
H786 C815 0.950 . S
H787 C816 0.950 . S
H788 C818 0.950 . S
H789 C819 0.950 . S
C790 H772 0.951 . S
C790 C791 1.366 . S
C790 C792 1.388 . S
C791 C790 1.366 . S
C791 C795 1.385 . S
C792 H773 0.951 . S
C792 C790 1.388 . S
C792 C793 1.366 . S
C793 C792 1.366 . S
C793 C794 1.414 . S
C793 C796 1.499 . S
C794 H774 0.950 . S
C794 C793 1.414 . S
C794 C795 1.374 . S
C795 H775 0.950 . S
C795 C791 1.385 . S
C795 C794 1.374 . S
C796 C793 1.499 . S
C796 C797 1.373 1_554 S
C796 C798 1.389 . S
C797 H776 0.950 . S
C797 C796 1.373 1_556 S
C797 C813 1.377 . S
C798 C796 1.389 . S
C798 C799 1.524 . S
C798 C812 1.377 1_554 S
C799 C798 1.524 . S
C799 C800 1.397 . S
C799 C804 1.363 . S
C800 H777 0.950 . S
C800 C799 1.397 . S
C800 C801 1.334 . S
C801 H778 0.950 . S
C801 C800 1.334 . S
C801 C802 1.287 . S
C802 C801 1.287 . S
C802 C803 1.524 . S
C802 H821 0.913 . S
C803 H779 0.950 . S
C803 C802 1.524 . S
C803 C804 1.415 . S
C804 H780 0.950 . S
C804 C799 1.363 . S
C804 C803 1.415 . S
C805 H781 0.951 . S
C805 C806 1.366 . S
C805 C807 1.388 . S
C806 C805 1.366 . S
C806 C810 1.385 . S
C807 H782 0.951 . S
C807 C805 1.388 . S
C807 C808 1.366 . S
C808 C807 1.366 . S
C808 C809 1.414 . S
C808 C811 1.499 . S
C809 H783 0.950 . S
C809 C808 1.414 . S
C809 C810 1.374 . S
C810 H784 0.950 . S
C810 C806 1.385 . S
C810 C809 1.374 . S
C811 C808 1.499 . S
C811 C812 1.373 . S
C811 C813 1.389 . S
C812 H785 0.950 . S
C812 C798 1.377 1_556 S
C812 C811 1.373 . S
C813 C797 1.377 . S
C813 C811 1.389 . S
C813 C814 1.524 . S
C814 C813 1.524 . S
C814 C815 1.397 . S
C814 C819 1.363 . S
C815 H786 0.950 . S
C815 C814 1.397 . S
C815 C816 1.334 . S
C816 H787 0.950 . S
C816 C815 1.334 . S
C816 C817 1.287 . S
C817 C816 1.287 . S
C817 C818 1.524 . S
C817 H820 0.999 . S
C818 H788 0.950 . S
C818 C817 1.524 . S
C818 C819 1.415 . S
C819 H789 0.950 . S
C819 C814 1.363 . S
C819 C818 1.415 . S
H820 C817 0.999 . S
H821 C802 0.913 . S
H822 C840 0.951 . S
H823 C842 0.951 . S
H824 C844 0.950 . S
H825 C845 0.950 . S
H826 C847 0.950 . S
H827 C850 0.950 . S
H828 C851 0.950 . S
H829 C853 0.950 . S
H830 C854 0.950 1_655 S
H831 C855 0.951 . S
H832 C857 0.951 . S
H833 C859 0.950 . S
H834 C860 0.950 . S
H835 C862 0.950 . S
H836 C865 0.950 . S
H837 C866 0.950 . S
H838 C868 0.950 . S
H839 C869 0.950 1_455 S
C840 H822 0.951 . S
C840 C841 1.369 . S
C840 C842 1.388 . S
C841 C840 1.369 . S
C841 C845 1.381 1_655 S
C842 H823 0.951 . S
C842 C840 1.388 . S
C842 C843 1.351 1_655 S
C843 C842 1.351 1_455 S
C843 C844 1.428 . S
C843 C846 1.498 . S
C844 H824 0.950 . S
C844 C843 1.428 . S
C844 C845 1.374 . S
C845 H825 0.950 . S
C845 C841 1.381 1_455 S
C845 C844 1.374 . S
C846 C843 1.498 . S
C846 C847 1.362 1_454 S
C846 C848 1.399 . S
C847 H826 0.950 . S
C847 C846 1.362 1_656 S
C847 C863 1.377 . S
C848 C846 1.399 . S
C848 C849 1.524 . S
C848 C862 1.377 1_554 S
C849 C848 1.524 . S
C849 C850 1.397 . S
C849 C854 1.363 . S
C850 H827 0.950 . S
C850 C849 1.397 . S
C850 C851 1.334 . S
C851 H828 0.950 . S
C851 C850 1.334 . S
C851 C852 1.287 . S
C852 C851 1.287 . S
C852 C853 1.524 . S
C852 H871 0.913 . S
C853 H829 0.950 . S
C853 C852 1.524 . S
C853 C854 1.415 . S
C854 H830 0.950 1_455 S
C854 C849 1.363 . S
C854 C853 1.415 . S
C855 H831 0.951 . S
C855 C856 1.343 1_455 S
C855 C857 1.388 . S
C856 C855 1.343 1_655 S
C856 C860 1.410 . S
C857 H832 0.951 . S
C857 C855 1.388 . S
C857 C858 1.366 1_455 S
C858 C857 1.366 1_655 S
C858 C859 1.414 . S
C858 C861 1.499 . S
C859 H833 0.950 . S
C859 C858 1.414 . S
C859 C860 1.374 . S
C860 H834 0.950 . S
C860 C856 1.410 . S
C860 C859 1.374 . S
C861 C858 1.499 . S
C861 C862 1.373 1_655 S
C861 C863 1.389 . S
C862 H835 0.950 . S
C862 C848 1.377 1_556 S
C862 C861 1.373 1_455 S
C863 C847 1.377 . S
C863 C861 1.389 . S
C863 C864 1.524 . S
C864 C863 1.524 . S
C864 C865 1.397 . S
C864 C869 1.363 . S
C865 H836 0.950 . S
C865 C864 1.397 . S
C865 C866 1.334 . S
C866 H837 0.950 . S
C866 C865 1.334 . S
C866 C867 1.287 . S
C867 C866 1.287 . S
C867 C868 1.524 . S
C867 H870 0.999 . S
C868 H838 0.950 . S
C868 C867 1.524 . S
C868 C869 1.415 . S
C869 H839 0.950 1_655 S
C869 C864 1.363 . S
C869 C868 1.415 . S
H870 C867 0.999 . S
H871 C852 0.913 . S
H872 C890 0.951 . S
H873 C892 0.951 . S
H874 C894 0.950 . S
H875 C895 0.950 . S
H876 C897 0.950 . S
H877 C900 0.950 . S
H878 C901 0.950 . S
H879 C903 0.950 . S
H880 C904 0.950 . S
H881 C905 0.951 . S
H882 C907 0.951 . S
H883 C909 0.950 . S
H884 C910 0.950 . S
H885 C912 0.950 . S
H886 C915 0.950 . S
H887 C916 0.950 . S
H888 C918 0.950 . S
H889 C919 0.950 . S
C890 H872 0.951 . S
C890 C891 1.366 1_655 S
C890 C892 1.388 . S
C891 C890 1.366 1_455 S
C891 C895 1.385 . S
C892 H873 0.951 . S
C892 C890 1.388 . S
C892 C893 1.366 . S
C893 C892 1.366 . S
C893 C894 1.414 1_655 S
C893 C896 1.499 . S
C894 H874 0.950 . S
C894 C893 1.414 1_455 S
C894 C895 1.374 . S
C895 H875 0.950 . S
C895 C891 1.385 . S
C895 C894 1.374 . S
C896 C893 1.499 . S
C896 C897 1.373 1_655 S
C896 C898 1.389 . S
C897 H876 0.950 . S
C897 C896 1.373 1_455 S
C897 C913 1.377 . S
C898 C896 1.389 . S
C898 C899 1.524 . S
C898 C912 1.377 . S
C899 C898 1.524 . S
C899 C900 1.397 . S
C899 C904 1.363 . S
C900 H877 0.950 . S
C900 C899 1.397 . S
C900 C901 1.334 . S
C901 H878 0.950 . S
C901 C900 1.334 . S
C901 C902 1.287 . S
C902 C901 1.287 . S
C902 C903 1.524 . S
C902 H921 0.913 . S
C903 H879 0.950 . S
C903 C902 1.524 . S
C903 C904 1.415 . S
C904 H880 0.950 . S
C904 C899 1.363 . S
C904 C903 1.415 . S
C905 H881 0.951 . S
C905 C906 1.366 . S
C905 C907 1.388 . S
C906 C905 1.366 . S
C906 C910 1.385 . S
C907 H882 0.951 . S
C907 C905 1.388 . S
C907 C908 1.366 . S
C908 C907 1.366 . S
C908 C909 1.414 . S
C908 C911 1.499 . S
C909 H883 0.950 . S
C909 C908 1.414 . S
C909 C910 1.374 . S
C910 H884 0.950 . S
C910 C906 1.385 . S
C910 C909 1.374 . S
C911 C908 1.499 . S
C911 C912 1.373 . S
C911 C913 1.389 1_655 S
C912 H885 0.950 . S
C912 C898 1.377 . S
C912 C911 1.373 . S
C913 C897 1.377 . S
C913 C911 1.389 1_455 S
C913 C914 1.524 . S
C914 C913 1.524 . S
C914 C915 1.397 . S
C914 C919 1.363 . S
C915 H886 0.950 . S
C915 C914 1.397 . S
C915 C916 1.334 . S
C916 H887 0.950 . S
C916 C915 1.334 . S
C916 C917 1.287 . S
C917 C916 1.287 . S
C917 C918 1.524 . S
C917 H920 0.999 . S
C918 H888 0.950 . S
C918 C917 1.524 . S
C918 C919 1.415 . S
C919 H889 0.950 . S
C919 C914 1.363 . S
C919 C918 1.415 . S
H920 C917 0.999 . S
H921 C902 0.913 . S
H922 C940 0.951 . S
H923 C942 0.951 . S
H924 C944 0.950 . S
H925 C945 0.950 . S
H926 C947 0.950 1_545 S
H927 C950 0.950 . S
H928 C951 0.950 . S
H929 C953 0.950 . S
H930 C954 0.950 . S
H931 C955 0.951 . S
H932 C957 0.951 . S
H933 C959 0.950 . S
H934 C960 0.950 . S
H935 C962 0.950 . S
H936 C965 0.950 . S
H937 C966 0.950 . S
H938 C968 0.950 . S
H939 C969 0.950 . S
C940 H922 0.951 . S
C940 C941 1.366 . S
C940 C942 1.388 . S
C941 C940 1.366 . S
C941 C945 1.385 1_545 S
C942 H923 0.951 . S
C942 C940 1.388 . S
C942 C943 1.366 1_545 S
C943 C942 1.366 1_565 S
C943 C944 1.414 . S
C943 C946 1.499 . S
C944 H924 0.950 . S
C944 C943 1.414 . S
C944 C945 1.374 . S
C945 H925 0.950 . S
C945 C941 1.385 1_565 S
C945 C944 1.374 . S
C946 C943 1.499 . S
C946 C947 1.373 . S
C946 C948 1.389 . S
C947 H926 0.950 1_565 S
C947 C946 1.373 . S
C947 C963 1.377 . S
C948 C946 1.389 . S
C948 C949 1.524 . S
C948 C962 1.377 . S
C949 C948 1.524 . S
C949 C950 1.397 . S
C949 C954 1.363 . S
C950 H927 0.950 . S
C950 C949 1.397 . S
C950 C951 1.334 . S
C951 H928 0.950 . S
C951 C950 1.334 . S
C951 C952 1.287 . S
C952 C951 1.287 . S
C952 C953 1.524 . S
C952 H971 0.913 . S
C953 H929 0.950 . S
C953 C952 1.524 . S
C953 C954 1.415 . S
C954 H930 0.950 . S
C954 C949 1.363 . S
C954 C953 1.415 . S
C955 H931 0.951 . S
C955 C956 1.366 . S
C955 C957 1.388 . S
C956 C955 1.366 . S
C956 C960 1.385 . S
C957 H932 0.951 . S
C957 C955 1.388 . S
C957 C958 1.366 . S
C958 C957 1.366 . S
C958 C959 1.414 . S
C958 C961 1.499 . S
C959 H933 0.950 . S
C959 C958 1.414 . S
C959 C960 1.374 . S
C960 H934 0.950 . S
C960 C956 1.385 . S
C960 C959 1.374 . S
C961 C958 1.499 . S
C961 C962 1.373 . S
C961 C963 1.389 . S
C962 H935 0.950 . S
C962 C948 1.377 . S
C962 C961 1.373 . S
C963 C947 1.377 . S
C963 C961 1.389 . S
C963 C964 1.524 1_565 S
C964 C963 1.524 1_545 S
C964 C965 1.397 . S
C964 C969 1.363 1_545 S
C965 H936 0.950 . S
C965 C964 1.397 . S
C965 C966 1.334 . S
C966 H937 0.950 . S
C966 C965 1.334 . S
C966 C967 1.287 . S
C967 C966 1.287 . S
C967 C968 1.524 . S
C967 H970 0.999 . S
C968 H938 0.950 . S
C968 C967 1.524 . S
C968 C969 1.415 1_545 S
C969 H939 0.950 . S
C969 C964 1.363 1_565 S
C969 C968 1.415 1_565 S
H970 C967 0.999 . S
H971 C952 0.913 . S
H972 C990 0.951 . S
H973 C992 0.951 . S
H974 C994 0.950 . S
H975 C995 0.950 . S
H976 C997 0.950 . S
H977 C1000 0.950 . S
H978 C1001 0.950 . S
H979 C1003 0.950 . S
H980 C1004 0.950 . S
H981 C1005 0.951 . S
H982 C1007 0.951 . S
H983 C1009 0.950 . S
H984 C1010 0.950 . S
H985 C1012 0.950 . S
H986 C1015 0.950 . S
H987 C1016 0.950 . S
H988 C1018 0.950 . S
H989 C1019 0.950 . S
C990 H972 0.951 . S
C990 C991 1.366 . S
C990 C992 1.388 . S
C991 C990 1.366 . S
C991 C995 1.385 . S
C992 H973 0.951 . S
C992 C990 1.388 . S
C992 C993 1.366 . S
C993 C992 1.366 . S
C993 C994 1.414 . S
C993 C996 1.499 . S
C994 H974 0.950 . S
C994 C993 1.414 . S
C994 C995 1.374 . S
C995 H975 0.950 . S
C995 C991 1.385 . S
C995 C994 1.374 . S
C996 C993 1.499 . S
C996 C997 1.373 . S
C996 C998 1.389 . S
C997 H976 0.950 . S
C997 C996 1.373 . S
C997 C1013 1.377 . S
C998 C996 1.389 . S
C998 C999 1.524 . S
C998 C1012 1.377 . S
C999 C998 1.524 . S
C999 C1000 1.397 . S
C999 C1004 1.363 . S
C1000 H977 0.950 . S
C1000 C999 1.397 . S
C1000 C1001 1.334 . S
C1001 H978 0.950 . S
C1001 C1000 1.334 . S
C1001 C1002 1.287 . S
C1002 C1001 1.287 . S
C1002 C1003 1.524 . S
C1002 H1021 0.913 . S
C1003 H979 0.950 . S
C1003 C1002 1.524 . S
C1003 C1004 1.415 . S
C1004 H980 0.950 . S
C1004 C999 1.363 . S
C1004 C1003 1.415 . S
C1005 H981 0.951 . S
C1005 C1006 1.366 . S
C1005 C1007 1.388 . S
C1006 C1005 1.366 . S
C1006 C1010 1.385 . S
C1007 H982 0.951 . S
C1007 C1005 1.388 . S
C1007 C1008 1.366 . S
C1008 C1007 1.366 . S
C1008 C1009 1.414 . S
C1008 C1011 1.499 . S
C1009 H983 0.950 . S
C1009 C1008 1.414 . S
C1009 C1010 1.374 . S
C1010 H984 0.950 . S
C1010 C1006 1.385 . S
C1010 C1009 1.374 . S
C1011 C1008 1.499 . S
C1011 C1012 1.373 . S
C1011 C1013 1.389 . S
C1012 H985 0.950 . S
C1012 C998 1.377 . S
C1012 C1011 1.373 . S
C1013 C997 1.377 . S
C1013 C1011 1.389 . S
C1013 C1014 1.524 . S
C1014 C1013 1.524 . S
C1014 C1015 1.397 . S
C1014 C1019 1.363 . S
C1015 H986 0.950 . S
C1015 C1014 1.397 . S
C1015 C1016 1.334 . S
C1016 H987 0.950 . S
C1016 C1015 1.334 . S
C1016 C1017 1.287 . S
C1017 C1016 1.287 . S
C1017 C1018 1.524 . S
C1017 H1020 0.999 . S
C1018 H988 0.950 . S
C1018 C1017 1.524 . S
C1018 C1019 1.415 . S
C1019 H989 0.950 . S
C1019 C1014 1.363 . S
C1019 C1018 1.415 . S
H1020 C1017 0.999 . S
H1021 C1002 0.913 . S
H1022 C1040 0.951 . S
H1023 C1042 0.951 . S
H1024 C1044 0.950 . S
H1025 C1045 0.950 . S
H1026 C1047 0.950 . S
H1027 C1050 0.950 . S
H1028 C1051 0.950 . S
H1029 C1053 0.950 . S
H1030 C1054 0.950 . S
H1031 C1055 0.951 . S
H1032 C1057 0.951 . S
H1033 C1059 0.950 . S
H1034 C1060 0.950 . S
H1035 C1062 0.950 . S
H1036 C1065 0.950 . S
H1037 C1066 0.950 . S
H1038 C1068 0.950 . S
H1039 C1069 0.950 . S
C1040 H1022 0.951 . S
C1040 C1041 1.366 . S
C1040 C1042 1.388 . S
C1041 C1040 1.366 . S
C1041 C1045 1.385 . S
C1042 H1023 0.951 . S
C1042 C1040 1.388 . S
C1042 C1043 1.366 . S
C1043 C1042 1.366 . S
C1043 C1044 1.414 . S
C1043 C1046 1.499 . S
C1044 H1024 0.950 . S
C1044 C1043 1.414 . S
C1044 C1045 1.374 . S
C1045 H1025 0.950 . S
C1045 C1041 1.385 . S
C1045 C1044 1.374 . S
C1046 C1043 1.499 . S
C1046 C1047 1.373 . S
C1046 C1048 1.389 . S
C1047 H1026 0.950 . S
C1047 C1046 1.373 . S
C1047 C1063 1.377 . S
C1048 C1046 1.389 . S
C1048 C1049 1.524 . S
C1048 C1062 1.377 . S
C1049 C1048 1.524 . S
C1049 C1050 1.397 . S
C1049 C1054 1.363 . S
C1050 H1027 0.950 . S
C1050 C1049 1.397 . S
C1050 C1051 1.334 . S
C1051 H1028 0.950 . S
C1051 C1050 1.334 . S
C1051 C1052 1.287 . S
C1052 C1051 1.287 . S
C1052 C1053 1.524 . S
C1052 H1071 0.913 . S
C1053 H1029 0.950 . S
C1053 C1052 1.524 . S
C1053 C1054 1.415 . S
C1054 H1030 0.950 . S
C1054 C1049 1.363 . S
C1054 C1053 1.415 . S
C1055 H1031 0.951 . S
C1055 C1056 1.366 . S
C1055 C1057 1.388 . S
C1056 C1055 1.366 . S
C1056 C1060 1.385 . S
C1057 H1032 0.951 . S
C1057 C1055 1.388 . S
C1057 C1058 1.366 . S
C1058 C1057 1.366 . S
C1058 C1059 1.414 . S
C1058 C1061 1.499 . S
C1059 H1033 0.950 . S
C1059 C1058 1.414 . S
C1059 C1060 1.374 . S
C1060 H1034 0.950 . S
C1060 C1056 1.385 . S
C1060 C1059 1.374 . S
C1061 C1058 1.499 . S
C1061 C1062 1.373 . S
C1061 C1063 1.389 . S
C1062 H1035 0.950 . S
C1062 C1048 1.377 . S
C1062 C1061 1.373 . S
C1063 C1047 1.377 . S
C1063 C1061 1.389 . S
C1063 C1064 1.524 . S
C1064 C1063 1.524 . S
C1064 C1065 1.397 . S
C1064 C1069 1.363 . S
C1065 H1036 0.950 . S
C1065 C1064 1.397 . S
C1065 C1066 1.334 . S
C1066 H1037 0.950 . S
C1066 C1065 1.334 . S
C1066 C1067 1.287 . S
C1067 C1066 1.287 . S
C1067 C1068 1.524 . S
C1067 H1070 0.999 . S
C1068 H1038 0.950 . S
C1068 C1067 1.524 . S
C1068 C1069 1.415 . S
C1069 H1039 0.950 . S
C1069 C1064 1.363 . S
C1069 C1068 1.415 . S
H1070 C1067 0.999 . S
H1071 C1052 0.913 . S
H1072 C1090 0.951 . S
H1073 C1092 0.951 . S
H1074 C1094 0.950 1_556 S
H1075 C1095 0.950 . S
H1076 C1097 0.950 . S
H1077 C1100 0.950 . S
H1078 C1101 0.950 . S
H1079 C1103 0.950 . S
H1080 C1104 0.950 . S
H1081 C1105 0.951 . S
H1082 C1107 0.981 . S
H1083 C1109 0.950 . S
H1084 C1110 0.950 . S
H1085 C1112 0.950 . S
H1086 C1115 0.950 . S
H1087 C1116 0.950 . S
H1088 C1118 0.950 . S
H1089 C1119 0.912 1_655 S
C1090 H1072 0.951 . S
C1090 C1091 1.366 1_455 S
C1090 C1092 1.388 . S
C1091 C1090 1.366 1_655 S
C1091 C1095 1.385 . S
C1092 H1073 0.951 . S
C1092 C1090 1.388 . S
C1092 C1093 1.366 . S
C1093 C1092 1.366 . S
C1093 C1094 1.414 1_455 S
C1093 C1096 1.499 . S
C1094 H1074 0.950 1_554 S
C1094 C1093 1.414 1_655 S
C1094 C1095 1.374 . S
C1095 H1075 0.950 . S
C1095 C1091 1.385 . S
C1095 C1094 1.374 . S
C1096 C1093 1.499 . S
C1096 C1097 1.373 1_554 S
C1096 C1098 1.389 . S
C1097 H1076 0.950 . S
C1097 C1096 1.373 1_556 S
C1097 C1113 1.377 . S
C1098 C1096 1.389 . S
C1098 C1099 1.524 . S
C1098 C1112 1.377 . S
C1099 C1098 1.524 . S
C1099 C1100 1.397 1_455 S
C1099 C1104 1.363 . S
C1100 H1077 0.950 . S
C1100 C1099 1.397 1_655 S
C1100 C1101 1.334 . S
C1101 H1078 0.950 . S
C1101 C1100 1.334 . S
C1101 C1102 1.287 . S
C1102 C1101 1.287 . S
C1102 C1103 1.524 1_655 S
C1102 H1121 0.913 . S
C1103 H1079 0.950 . S
C1103 C1102 1.524 1_455 S
C1103 C1104 1.415 . S
C1104 H1080 0.950 . S
C1104 C1099 1.363 . S
C1104 C1103 1.415 . S
C1105 H1081 0.951 . S
C1105 C1106 1.366 . S
C1105 C1107 1.388 . S
C1106 C1105 1.366 . S
C1106 C1110 1.385 . S
C1107 H1082 0.981 . S
C1107 C1105 1.388 . S
C1107 C1108 1.366 . S
C1108 C1107 1.366 . S
C1108 C1109 1.414 . S
C1108 C1111 1.499 . S
C1109 H1083 0.950 . S
C1109 C1108 1.414 . S
C1109 C1110 1.374 . S
C1110 H1084 0.950 . S
C1110 C1106 1.385 . S
C1110 C1109 1.374 . S
C1111 C1108 1.499 . S
C1111 C1112 1.373 1_556 S
C1111 C1113 1.389 . S
C1112 H1085 0.950 . S
C1112 C1098 1.377 . S
C1112 C1111 1.373 1_554 S
C1113 C1097 1.377 . S
C1113 C1111 1.389 . S
C1113 C1114 1.524 . S
C1114 C1113 1.524 . S
C1114 C1115 1.397 . S
C1114 C1119 1.363 . S
C1115 H1086 0.950 . S
C1115 C1114 1.397 . S
C1115 C1116 1.334 . S
C1116 H1087 0.950 . S
C1116 C1115 1.334 . S
C1116 C1117 1.287 . S
C1117 C1116 1.287 . S
C1117 C1118 1.524 . S
C1117 H1120 0.999 . S
C1118 H1088 0.950 . S
C1118 C1117 1.524 . S
C1118 C1119 1.415 . S
C1119 H1089 0.912 1_455 S
C1119 C1114 1.363 . S
C1119 C1118 1.415 . S
H1120 C1117 0.999 . S
H1121 C1102 0.913 . S
H1122 C1140 0.951 . S
H1123 C1142 0.951 . S
H1124 C1144 0.950 . S
H1125 C1145 0.950 . S
H1126 C1147 0.950 . S
H1127 C1150 0.950 . S
H1128 C1151 0.950 . S
H1129 C1153 0.950 . S
H1130 C1154 0.950 . S
H1131 C1155 0.935 1_565 S
H1132 C1157 0.951 1_565 S
H1133 C1159 0.950 . S
H1134 C1160 0.950 . S
H1135 C1162 0.950 . S
H1136 C1165 0.930 1_545 S
H1137 C1166 0.950 . S
H1138 C1168 0.950 . S
H1139 C1169 0.950 . S
C1140 H1122 0.951 . S
C1140 C1141 1.366 1_545 S
C1140 C1142 1.388 . S
C1141 C1140 1.366 1_565 S
C1141 C1145 1.385 . S
C1142 H1123 0.951 . S
C1142 C1140 1.388 . S
C1142 C1143 1.366 . S
C1143 C1142 1.366 . S
C1143 C1144 1.414 1_545 S
C1143 C1146 1.499 . S
C1144 H1124 0.950 . S
C1144 C1143 1.414 1_565 S
C1144 C1145 1.374 . S
C1145 H1125 0.950 . S
C1145 C1141 1.385 . S
C1145 C1144 1.374 . S
C1146 C1143 1.499 . S
C1146 C1147 1.373 1_544 S
C1146 C1148 1.389 . S
C1147 H1126 0.950 . S
C1147 C1146 1.373 1_566 S
C1147 C1163 1.377 . S
C1148 C1146 1.389 . S
C1148 C1149 1.524 . S
C1148 C1162 1.377 1_554 S
C1149 C1148 1.524 . S
C1149 C1150 1.397 . S
C1149 C1154 1.363 . S
C1150 H1127 0.950 . S
C1150 C1149 1.397 . S
C1150 C1151 1.334 . S
C1151 H1128 0.950 . S
C1151 C1150 1.334 . S
C1151 C1152 1.287 . S
C1152 C1151 1.287 . S
C1152 C1153 1.524 . S
C1152 H1171 0.913 . S
C1153 H1129 0.950 . S
C1153 C1152 1.524 . S
C1153 C1154 1.415 . S
C1154 H1130 0.950 . S
C1154 C1149 1.363 . S
C1154 C1153 1.415 . S
C1155 H1131 0.935 1_545 S
C1155 C1156 1.366 . S
C1155 C1157 1.388 . S
C1156 C1155 1.366 . S
C1156 C1160 1.385 . S
C1157 H1132 0.951 1_545 S
C1157 C1155 1.388 . S
C1157 C1158 1.366 . S
C1158 C1157 1.366 . S
C1158 C1159 1.414 . S
C1158 C1161 1.499 . S
C1159 H1133 0.950 . S
C1159 C1158 1.414 . S
C1159 C1160 1.374 . S
C1160 H1134 0.950 . S
C1160 C1156 1.385 . S
C1160 C1159 1.374 . S
C1161 C1158 1.499 . S
C1161 C1162 1.373 . S
C1161 C1163 1.389 1_545 S
C1162 H1135 0.950 . S
C1162 C1148 1.377 1_556 S
C1162 C1161 1.373 . S
C1163 C1147 1.377 . S
C1163 C1161 1.389 1_565 S
C1163 C1164 1.524 . S
C1164 C1163 1.524 . S
C1164 C1165 1.397 . S
C1164 C1169 1.363 . S
C1165 H1136 0.930 1_565 S
C1165 C1164 1.397 . S
C1165 C1166 1.334 . S
C1166 H1137 0.950 . S
C1166 C1165 1.334 . S
C1166 C1167 1.287 . S
C1167 C1166 1.287 . S
C1167 C1168 1.524 . S
C1167 H1170 0.999 . S
C1168 H1138 0.950 . S
C1168 C1167 1.524 . S
C1168 C1169 1.415 . S
C1169 H1139 0.950 . S
C1169 C1164 1.363 . S
C1169 C1168 1.415 . S
H1170 C1167 0.999 . S
H1171 C1152 0.913 . S
H1172 C1190 0.951 . S
H1173 C1192 0.951 . S
H1174 C1194 0.950 1_556 S
H1175 C1195 0.950 . S
H1176 C1197 0.950 . S
H1177 C1200 0.950 . S
H1178 C1201 0.950 . S
H1179 C1203 0.950 . S
H1180 C1204 0.950 . S
H1181 C1205 0.951 . S
H1182 C1207 0.951 . S
H1183 C1209 0.950 . S
H1184 C1210 0.950 . S
H1185 C1212 0.950 . S
H1186 C1215 0.950 . S
H1187 C1216 0.950 . S
H1188 C1218 0.950 . S
H1189 C1219 0.950 . S
C1190 H1172 0.951 . S
C1190 C1191 1.366 . S
C1190 C1192 1.388 . S
C1191 C1190 1.366 . S
C1191 C1195 1.385 . S
C1192 H1173 0.951 . S
C1192 C1190 1.388 . S
C1192 C1193 1.366 . S
C1193 C1192 1.366 . S
C1193 C1194 1.414 . S
C1193 C1196 1.499 . S
C1194 H1174 0.950 1_554 S
C1194 C1193 1.414 . S
C1194 C1195 1.374 . S
C1195 H1175 0.950 . S
C1195 C1191 1.385 . S
C1195 C1194 1.374 . S
C1196 C1193 1.499 . S
C1196 C1197 1.373 1_554 S
C1196 C1198 1.389 . S
C1197 H1176 0.950 . S
C1197 C1196 1.373 1_556 S
C1197 C1213 1.377 . S
C1198 C1196 1.389 . S
C1198 C1199 1.524 . S
C1198 C1212 1.377 . S
C1199 C1198 1.524 . S
C1199 C1200 1.397 . S
C1199 C1204 1.363 . S
C1200 H1177 0.950 . S
C1200 C1199 1.397 . S
C1200 C1201 1.334 . S
C1201 H1178 0.950 . S
C1201 C1200 1.334 . S
C1201 C1202 1.287 . S
C1202 C1201 1.287 . S
C1202 C1203 1.524 . S
C1202 H1221 0.913 . S
C1203 H1179 0.950 . S
C1203 C1202 1.524 . S
C1203 C1204 1.415 . S
C1204 H1180 0.950 . S
C1204 C1199 1.363 . S
C1204 C1203 1.415 . S
C1205 H1181 0.951 . S
C1205 C1206 1.366 . S
C1205 C1207 1.388 . S
C1206 C1205 1.366 . S
C1206 C1210 1.385 . S
C1207 H1182 0.951 . S
C1207 C1205 1.388 . S
C1207 C1208 1.366 . S
C1208 C1207 1.366 . S
C1208 C1209 1.414 . S
C1208 C1211 1.499 . S
C1209 H1183 0.950 . S
C1209 C1208 1.414 . S
C1209 C1210 1.374 . S
C1210 H1184 0.950 . S
C1210 C1206 1.385 . S
C1210 C1209 1.374 . S
C1211 C1208 1.499 . S
C1211 C1212 1.373 1_556 S
C1211 C1213 1.389 . S
C1212 H1185 0.950 . S
C1212 C1198 1.377 . S
C1212 C1211 1.373 1_554 S
C1213 C1197 1.377 . S
C1213 C1211 1.389 . S
C1213 C1214 1.524 . S
C1214 C1213 1.524 . S
C1214 C1215 1.397 . S
C1214 C1219 1.363 . S
C1215 H1186 0.950 . S
C1215 C1214 1.397 . S
C1215 C1216 1.334 . S
C1216 H1187 0.950 . S
C1216 C1215 1.334 . S
C1216 C1217 1.287 . S
C1217 C1216 1.287 . S
C1217 C1218 1.524 . S
C1217 H1220 0.999 . S
C1218 H1188 0.950 . S
C1218 C1217 1.524 . S
C1218 C1219 1.415 . S
C1219 H1189 0.950 . S
C1219 C1214 1.363 . S
C1219 C1218 1.415 . S
H1220 C1217 0.999 . S
H1221 C1202 0.913 . S
H1222 C1240 0.951 . S
H1223 C1242 0.951 1_556 S
H1224 C1244 0.950 . S
H1225 C1245 0.950 . S
H1226 C1247 0.950 . S
H1227 C1250 0.950 . S
H1228 C1251 0.950 . S
H1229 C1253 0.950 . S
H1230 C1254 0.950 . S
H1231 C1255 0.951 . S
H1232 C1257 0.951 . S
H1233 C1259 0.950 . S
H1234 C1260 0.950 . S
H1235 C1262 0.950 . S
H1236 C1265 0.950 . S
H1237 C1266 0.950 . S
H1238 C1268 0.950 . S
H1239 C1269 0.950 . S
C1240 H1222 0.951 . S
C1240 C1241 1.366 . S
C1240 C1242 1.388 . S
C1241 C1240 1.366 . S
C1241 C1245 1.385 . S
C1242 H1223 0.951 1_554 S
C1242 C1240 1.388 . S
C1242 C1243 1.366 . S
C1243 C1242 1.366 . S
C1243 C1244 1.414 . S
C1243 C1246 1.499 . S
C1244 H1224 0.950 . S
C1244 C1243 1.414 . S
C1244 C1245 1.374 . S
C1245 H1225 0.950 . S
C1245 C1241 1.385 . S
C1245 C1244 1.374 . S
C1246 C1243 1.499 . S
C1246 C1247 1.373 . S
C1246 C1248 1.389 1_554 S
C1247 H1226 0.950 . S
C1247 C1246 1.373 . S
C1247 C1263 1.377 1_554 S
C1248 C1246 1.389 1_556 S
C1248 C1249 1.524 . S
C1248 C1262 1.377 . S
C1249 C1248 1.524 . S
C1249 C1250 1.397 1_556 S
C1249 C1254 1.363 . S
C1250 H1227 0.950 . S
C1250 C1249 1.397 1_554 S
C1250 C1251 1.334 . S
C1251 H1228 0.950 . S
C1251 C1250 1.334 . S
C1251 C1252 1.287 . S
C1252 C1251 1.287 . S
C1252 C1253 1.524 1_554 S
C1252 H1271 0.913 . S
C1253 H1229 0.950 . S
C1253 C1252 1.524 1_556 S
C1253 C1254 1.415 . S
C1254 H1230 0.950 . S
C1254 C1249 1.363 . S
C1254 C1253 1.415 . S
C1255 H1231 0.951 . S
C1255 C1256 1.366 . S
C1255 C1257 1.388 . S
C1256 C1255 1.366 . S
C1256 C1260 1.385 . S
C1257 H1232 0.951 . S
C1257 C1255 1.388 . S
C1257 C1258 1.366 . S
C1258 C1257 1.366 . S
C1258 C1259 1.414 . S
C1258 C1261 1.499 . S
C1259 H1233 0.950 . S
C1259 C1258 1.414 . S
C1259 C1260 1.374 . S
C1260 H1234 0.950 . S
C1260 C1256 1.385 . S
C1260 C1259 1.374 . S
C1261 C1258 1.499 . S
C1261 C1262 1.373 . S
C1261 C1263 1.389 . S
C1262 H1235 0.950 . S
C1262 C1248 1.377 . S
C1262 C1261 1.373 . S
C1263 C1247 1.377 1_556 S
C1263 C1261 1.389 . S
C1263 C1264 1.524 . S
C1264 C1263 1.524 . S
C1264 C1265 1.397 . S
C1264 C1269 1.363 1_556 S
C1265 H1236 0.950 . S
C1265 C1264 1.397 . S
C1265 C1266 1.334 . S
C1266 H1237 0.950 . S
C1266 C1265 1.334 . S
C1266 C1267 1.287 . S
C1267 C1266 1.287 . S
C1267 C1268 1.524 1_556 S
C1267 H1270 0.999 . S
C1268 H1238 0.950 . S
C1268 C1267 1.524 1_554 S
C1268 C1269 1.415 . S
C1269 H1239 0.950 . S
C1269 C1264 1.363 1_554 S
C1269 C1268 1.415 . S
H1270 C1267 0.999 . S
H1271 C1252 0.913 . S
H1272 C1290 0.951 . S
H1273 C1292 0.951 . S
H1274 C1294 0.950 . S
H1275 C1295 0.950 . S
H1276 C1297 0.969 . S
H1277 C1300 0.950 . S
H1278 C1301 0.950 . S
H1279 C1303 0.950 . S
H1280 C1304 0.950 . S
H1281 C1305 0.951 . S
H1282 C1307 0.951 . S
H1283 C1309 0.950 . S
H1284 C1310 0.950 . S
H1285 C1312 0.950 . S
H1286 C1315 0.950 . S
H1287 C1316 0.950 . S
H1288 C1318 0.950 . S
H1289 C1319 0.950 1_455 S
C1290 H1272 0.951 . S
C1290 C1291 1.366 1_655 S
C1290 C1292 1.388 . S
C1291 C1290 1.366 1_455 S
C1291 C1295 1.385 . S
C1292 H1273 0.951 . S
C1292 C1290 1.388 . S
C1292 C1293 1.366 1_655 S
C1293 C1292 1.366 1_455 S
C1293 C1294 1.414 . S
C1293 C1296 1.499 . S
C1294 H1274 0.950 . S
C1294 C1293 1.414 . S
C1294 C1295 1.374 . S
C1295 H1275 0.950 . S
C1295 C1291 1.385 . S
C1295 C1294 1.374 . S
C1296 C1293 1.499 . S
C1296 C1297 1.356 1_455 S
C1296 C1298 1.389 . S
C1297 H1276 0.969 . S
C1297 C1296 1.356 1_655 S
C1297 C1313 1.380 . S
C1298 C1296 1.389 . S
C1298 C1299 1.524 . S
C1298 C1312 1.377 . S
C1299 C1298 1.524 . S
C1299 C1300 1.397 . S
C1299 C1304 1.363 . S
C1300 H1277 0.950 . S
C1300 C1299 1.397 . S
C1300 C1301 1.334 . S
C1301 H1278 0.950 . S
C1301 C1300 1.334 . S
C1301 C1302 1.287 . S
C1302 C1301 1.287 . S
C1302 C1303 1.524 . S
C1302 H1321 0.913 . S
C1303 H1279 0.950 . S
C1303 C1302 1.524 . S
C1303 C1304 1.415 . S
C1304 H1280 0.950 . S
C1304 C1299 1.363 . S
C1304 C1303 1.415 . S
C1305 H1281 0.951 . S
C1305 C1306 1.366 . S
C1305 C1307 1.388 . S
C1306 C1305 1.366 . S
C1306 C1310 1.385 1_455 S
C1307 H1282 0.951 . S
C1307 C1305 1.388 . S
C1307 C1308 1.366 . S
C1308 C1307 1.366 . S
C1308 C1309 1.414 1_455 S
C1308 C1311 1.499 . S
C1309 H1283 0.950 . S
C1309 C1308 1.414 1_655 S
C1309 C1310 1.374 . S
C1310 H1284 0.950 . S
C1310 C1306 1.385 1_655 S
C1310 C1309 1.374 . S
C1311 C1308 1.499 . S
C1311 C1312 1.373 . S
C1311 C1313 1.389 1_455 S
C1312 H1285 0.950 . S
C1312 C1298 1.377 . S
C1312 C1311 1.373 . S
C1313 C1297 1.380 . S
C1313 C1311 1.389 1_655 S
C1313 C1314 1.524 . S
C1314 C1313 1.524 . S
C1314 C1315 1.397 . S
C1314 C1319 1.363 . S
C1315 H1286 0.950 . S
C1315 C1314 1.397 . S
C1315 C1316 1.334 . S
C1316 H1287 0.950 . S
C1316 C1315 1.334 . S
C1316 C1317 1.287 . S
C1317 C1316 1.287 . S
C1317 C1318 1.524 . S
C1317 H1320 0.999 . S
C1318 H1288 0.950 . S
C1318 C1317 1.524 . S
C1318 C1319 1.415 . S
C1319 H1289 0.950 1_655 S
C1319 C1314 1.363 . S
C1319 C1318 1.415 . S
H1320 C1317 0.999 . S
H1321 C1302 0.913 . S
H1322 C1340 0.951 . S
H1323 C1342 0.951 . S
H1324 C1344 0.950 . S
H1325 C1345 0.950 . S
H1326 C1347 0.950 . S
H1327 C1350 0.950 . S
H1328 C1351 0.950 . S
H1329 C1353 0.950 . S
H1330 C1354 0.950 . S
H1331 C1355 0.951 . S
H1332 C1357 0.951 . S
H1333 C1359 0.950 . S
H1334 C1360 0.950 . S
H1335 C1362 0.950 . S
H1336 C1365 0.950 . S
H1337 C1366 0.950 . S
H1338 C1368 0.950 . S
H1339 C1369 0.950 . S
C1340 H1322 0.951 . S
C1340 C1341 1.366 1_565 S
C1340 C1342 1.388 . S
C1341 C1340 1.366 1_545 S
C1341 C1345 1.385 . S
C1342 H1323 0.951 . S
C1342 C1340 1.388 . S
C1342 C1343 1.366 1_565 S
C1343 C1342 1.366 1_545 S
C1343 C1344 1.414 . S
C1343 C1346 1.499 . S
C1344 H1324 0.950 . S
C1344 C1343 1.414 . S
C1344 C1345 1.374 . S
C1345 H1325 0.950 . S
C1345 C1341 1.385 . S
C1345 C1344 1.374 . S
C1346 C1343 1.499 . S
C1346 C1347 1.373 . S
C1346 C1348 1.389 1_545 S
C1347 H1326 0.950 . S
C1347 C1346 1.373 . S
C1347 C1363 1.377 . S
C1348 C1346 1.389 1_565 S
C1348 C1349 1.524 . S
C1348 C1362 1.377 . S
C1349 C1348 1.524 . S
C1349 C1350 1.397 . S
C1349 C1354 1.363 . S
C1350 H1327 0.950 . S
C1350 C1349 1.397 . S
C1350 C1351 1.334 . S
C1351 H1328 0.950 . S
C1351 C1350 1.334 . S
C1351 C1352 1.287 . S
C1352 C1351 1.287 . S
C1352 C1353 1.524 . S
C1352 H1371 0.913 . S
C1353 H1329 0.950 . S
C1353 C1352 1.524 . S
C1353 C1354 1.415 . S
C1354 H1330 0.950 . S
C1354 C1349 1.363 . S
C1354 C1353 1.415 . S
C1355 H1331 0.951 . S
C1355 C1356 1.366 . S
C1355 C1357 1.388 . S
C1356 C1355 1.366 . S
C1356 C1360 1.385 1_545 S
C1357 H1332 0.951 . S
C1357 C1355 1.388 . S
C1357 C1358 1.366 . S
C1358 C1357 1.366 . S
C1358 C1359 1.414 1_545 S
C1358 C1361 1.499 . S
C1359 H1333 0.950 . S
C1359 C1358 1.414 1_565 S
C1359 C1360 1.374 . S
C1360 H1334 0.950 . S
C1360 C1356 1.385 1_565 S
C1360 C1359 1.374 . S
C1361 C1358 1.499 . S
C1361 C1362 1.373 1_545 S
C1361 C1363 1.389 . S
C1362 H1335 0.950 . S
C1362 C1348 1.377 . S
C1362 C1361 1.373 1_565 S
C1363 C1347 1.377 . S
C1363 C1361 1.389 . S
C1363 C1364 1.524 . S
C1364 C1363 1.524 . S
C1364 C1365 1.397 . S
C1364 C1369 1.363 . S
C1365 H1336 0.950 . S
C1365 C1364 1.397 . S
C1365 C1366 1.334 . S
C1366 H1337 0.950 . S
C1366 C1365 1.334 . S
C1366 C1367 1.287 . S
C1367 C1366 1.287 . S
C1367 C1368 1.524 . S
C1367 H1370 0.999 . S
C1368 H1338 0.950 . S
C1368 C1367 1.524 . S
C1368 C1369 1.415 . S
C1369 H1339 0.950 . S
C1369 C1364 1.363 . S
C1369 C1368 1.415 . S
H1370 C1367 0.999 . S
H1371 C1352 0.913 . S
H1372 C1390 0.951 . S
H1373 C1392 0.951 . S
H1374 C1394 0.950 . S
H1375 C1395 0.950 . S
H1376 C1397 0.950 . S
H1377 C1400 0.950 . S
H1378 C1401 0.950 . S
H1379 C1403 0.950 . S
H1380 C1404 0.950 . S
H1381 C1405 0.951 . S
H1382 C1407 0.951 . S
H1383 C1409 0.950 . S
H1384 C1410 0.950 . S
H1385 C1412 0.950 . S
H1386 C1415 0.950 . S
H1387 C1416 0.950 . S
H1388 C1418 0.950 . S
H1389 C1419 0.950 . S
C1390 H1372 0.951 . S
C1390 C1391 1.366 . S
C1390 C1392 1.388 . S
C1391 C1390 1.366 . S
C1391 C1395 1.385 . S
C1392 H1373 0.951 . S
C1392 C1390 1.388 . S
C1392 C1393 1.366 . S
C1393 C1392 1.366 . S
C1393 C1394 1.414 . S
C1393 C1396 1.499 . S
C1394 H1374 0.950 . S
C1394 C1393 1.414 . S
C1394 C1395 1.374 . S
C1395 H1375 0.950 . S
C1395 C1391 1.385 . S
C1395 C1394 1.374 . S
C1396 C1393 1.499 . S
C1396 C1397 1.373 . S
C1396 C1398 1.389 . S
C1397 H1376 0.950 . S
C1397 C1396 1.373 . S
C1397 C1413 1.377 . S
C1398 C1396 1.389 . S
C1398 C1399 1.524 . S
C1398 C1412 1.377 . S
C1399 C1398 1.524 . S
C1399 C1400 1.397 . S
C1399 C1404 1.363 . S
C1400 H1377 0.950 . S
C1400 C1399 1.397 . S
C1400 C1401 1.334 . S
C1401 H1378 0.950 . S
C1401 C1400 1.334 . S
C1401 C1402 1.287 . S
C1402 C1401 1.287 . S
C1402 C1403 1.524 . S
C1402 H1421 0.913 . S
C1403 H1379 0.950 . S
C1403 C1402 1.524 . S
C1403 C1404 1.415 . S
C1404 H1380 0.950 . S
C1404 C1399 1.363 . S
C1404 C1403 1.415 . S
C1405 H1381 0.951 . S
C1405 C1406 1.366 . S
C1405 C1407 1.388 . S
C1406 C1405 1.366 . S
C1406 C1410 1.385 . S
C1407 H1382 0.951 . S
C1407 C1405 1.388 . S
C1407 C1408 1.366 . S
C1408 C1407 1.366 . S
C1408 C1409 1.414 . S
C1408 C1411 1.499 . S
C1409 H1383 0.950 . S
C1409 C1408 1.414 . S
C1409 C1410 1.374 . S
C1410 H1384 0.950 . S
C1410 C1406 1.385 . S
C1410 C1409 1.374 . S
C1411 C1408 1.499 . S
C1411 C1412 1.373 . S
C1411 C1413 1.389 . S
C1412 H1385 0.950 . S
C1412 C1398 1.377 . S
C1412 C1411 1.373 . S
C1413 C1397 1.377 . S
C1413 C1411 1.389 . S
C1413 C1414 1.524 . S
C1414 C1413 1.524 . S
C1414 C1415 1.397 . S
C1414 C1419 1.363 . S
C1415 H1386 0.950 . S
C1415 C1414 1.397 . S
C1415 C1416 1.334 . S
C1416 H1387 0.950 . S
C1416 C1415 1.334 . S
C1416 C1417 1.287 . S
C1417 C1416 1.287 . S
C1417 C1418 1.524 . S
C1417 H1420 0.999 . S
C1418 H1388 0.950 . S
C1418 C1417 1.524 . S
C1418 C1419 1.415 . S
C1419 H1389 0.950 . S
C1419 C1414 1.363 . S
C1419 C1418 1.415 . S
H1420 C1417 0.999 . S
H1421 C1402 0.913 . S
H1422 C1440 0.951 . S
H1423 C1442 0.951 . S
H1424 C1444 0.950 . S
H1425 C1445 0.950 . S
H1426 C1447 0.950 . S
H1427 C1450 0.950 . S
H1428 C1451 0.950 . S
H1429 C1453 0.950 . S
H1430 C1454 0.950 . S
H1431 C1455 0.951 . S
H1432 C1457 0.951 . S
H1433 C1459 0.950 . S
H1434 C1460 0.950 . S
H1435 C1462 0.950 . S
H1436 C1465 0.950 . S
H1437 C1466 0.950 . S
H1438 C1468 0.950 . S
H1439 C1469 0.950 . S
C1440 H1422 0.951 . S
C1440 C1441 1.366 . S
C1440 C1442 1.388 . S
C1441 C1440 1.366 . S
C1441 C1445 1.385 . S
C1442 H1423 0.951 . S
C1442 C1440 1.388 . S
C1442 C1443 1.366 . S
C1443 C1442 1.366 . S
C1443 C1444 1.414 . S
C1443 C1446 1.499 . S
C1444 H1424 0.950 . S
C1444 C1443 1.414 . S
C1444 C1445 1.374 . S
C1445 H1425 0.950 . S
C1445 C1441 1.385 . S
C1445 C1444 1.374 . S
C1446 C1443 1.499 . S
C1446 C1447 1.373 . S
C1446 C1448 1.389 . S
C1447 H1426 0.950 . S
C1447 C1446 1.373 . S
C1447 C1463 1.377 . S
C1448 C1446 1.389 . S
C1448 C1449 1.524 . S
C1448 C1462 1.377 . S
C1449 C1448 1.524 . S
C1449 C1450 1.397 . S
C1449 C1454 1.363 . S
C1450 H1427 0.950 . S
C1450 C1449 1.397 . S
C1450 C1451 1.334 . S
C1451 H1428 0.950 . S
C1451 C1450 1.334 . S
C1451 C1452 1.287 . S
C1452 C1451 1.287 . S
C1452 C1453 1.524 . S
C1452 H1471 0.913 . S
C1453 H1429 0.950 . S
C1453 C1452 1.524 . S
C1453 C1454 1.415 . S
C1454 H1430 0.950 . S
C1454 C1449 1.363 . S
C1454 C1453 1.415 . S
C1455 H1431 0.951 . S
C1455 C1456 1.366 . S
C1455 C1457 1.388 . S
C1456 C1455 1.366 . S
C1456 C1460 1.385 . S
C1457 H1432 0.951 . S
C1457 C1455 1.388 . S
C1457 C1458 1.366 . S
C1458 C1457 1.366 . S
C1458 C1459 1.414 . S
C1458 C1461 1.499 . S
C1459 H1433 0.950 . S
C1459 C1458 1.414 . S
C1459 C1460 1.374 . S
C1460 H1434 0.950 . S
C1460 C1456 1.385 . S
C1460 C1459 1.374 . S
C1461 C1458 1.499 . S
C1461 C1462 1.373 . S
C1461 C1463 1.389 . S
C1462 H1435 0.950 . S
C1462 C1448 1.377 . S
C1462 C1461 1.373 . S
C1463 C1447 1.377 . S
C1463 C1461 1.389 . S
C1463 C1464 1.524 . S
C1464 C1463 1.524 . S
C1464 C1465 1.397 . S
C1464 C1469 1.363 . S
C1465 H1436 0.950 . S
C1465 C1464 1.397 . S
C1465 C1466 1.334 . S
C1466 H1437 0.950 . S
C1466 C1465 1.334 . S
C1466 C1467 1.287 . S
C1467 C1466 1.287 . S
C1467 C1468 1.524 . S
C1467 H1470 0.999 . S
C1468 H1438 0.950 . S
C1468 C1467 1.524 . S
C1468 C1469 1.415 . S
C1469 H1439 0.950 . S
C1469 C1464 1.363 . S
C1469 C1468 1.415 . S
H1470 C1467 0.999 . S
H1471 C1452 0.913 . S
H1472 C1490 0.957 . S
H1473 C1492 0.953 . S
H1474 C1494 0.950 . S
H1475 C1495 0.950 . S
H1476 C1497 0.950 . S
H1477 C1500 0.950 . S
H1478 C1501 0.950 . S
H1479 C1503 0.950 . S
H1480 C1504 0.950 . S
H1481 C1505 0.951 . S
H1482 C1507 0.951 . S
H1483 C1509 0.950 . S
H1484 C1510 0.950 . S
H1485 C1512 0.950 . S
H1486 C1515 0.950 . S
H1487 C1516 0.950 . S
H1488 C1518 0.950 . S
H1489 C1519 0.950 . S
C1490 H1472 0.957 . S
C1490 C1491 1.362 1_455 S
C1490 C1492 1.388 . S
C1491 C1490 1.362 1_655 S
C1491 C1495 1.385 . S
C1492 H1473 0.953 . S
C1492 C1490 1.388 . S
C1492 C1493 1.363 1_455 S
C1493 C1492 1.363 1_655 S
C1493 C1494 1.414 . S
C1493 C1496 1.499 . S
C1494 H1474 0.950 . S
C1494 C1493 1.414 . S
C1494 C1495 1.374 . S
C1495 H1475 0.950 . S
C1495 C1491 1.385 . S
C1495 C1494 1.374 . S
C1496 C1493 1.499 . S
C1496 C1497 1.373 . S
C1496 C1498 1.389 1_655 S
C1497 H1476 0.950 . S
C1497 C1496 1.373 . S
C1497 C1513 1.377 . S
C1498 C1496 1.389 1_455 S
C1498 C1499 1.524 . S
C1498 C1512 1.377 . S
C1499 C1498 1.524 . S
C1499 C1500 1.397 . S
C1499 C1504 1.363 . S
C1500 H1477 0.950 . S
C1500 C1499 1.397 . S
C1500 C1501 1.334 . S
C1501 H1478 0.950 . S
C1501 C1500 1.334 . S
C1501 C1502 1.287 . S
C1502 C1501 1.287 . S
C1502 C1503 1.524 . S
C1502 H1521 0.913 . S
C1503 H1479 0.950 . S
C1503 C1502 1.524 . S
C1503 C1504 1.415 . S
C1504 H1480 0.950 . S
C1504 C1499 1.363 . S
C1504 C1503 1.415 . S
C1505 H1481 0.951 . S
C1505 C1506 1.366 . S
C1505 C1507 1.388 . S
C1506 C1505 1.366 . S
C1506 C1510 1.385 . S
C1507 H1482 0.951 . S
C1507 C1505 1.388 . S
C1507 C1508 1.366 . S
C1508 C1507 1.366 . S
C1508 C1509 1.414 . S
C1508 C1511 1.499 . S
C1509 H1483 0.950 . S
C1509 C1508 1.414 . S
C1509 C1510 1.374 . S
C1510 H1484 0.950 . S
C1510 C1506 1.385 . S
C1510 C1509 1.374 . S
C1511 C1508 1.499 . S
C1511 C1512 1.373 1_655 S
C1511 C1513 1.389 . S
C1512 H1485 0.950 . S
C1512 C1498 1.377 . S
C1512 C1511 1.373 1_455 S
C1513 C1497 1.377 . S
C1513 C1511 1.389 . S
C1513 C1514 1.524 . S
C1514 C1513 1.524 . S
C1514 C1515 1.397 . S
C1514 C1519 1.363 . S
C1515 H1486 0.950 . S
C1515 C1514 1.397 . S
C1515 C1516 1.334 . S
C1516 H1487 0.950 . S
C1516 C1515 1.334 . S
C1516 C1517 1.287 . S
C1517 C1516 1.287 . S
C1517 C1518 1.524 . S
C1517 H1520 0.999 . S
C1518 H1488 0.950 . S
C1518 C1517 1.524 . S
C1518 C1519 1.415 . S
C1519 H1489 0.950 . S
C1519 C1514 1.363 . S
C1519 C1518 1.415 . S
H1520 C1517 0.999 . S
H1521 C1502 0.913 . S
H1522 C1540 0.949 1_545 S
H1523 C1542 0.950 1_545 S
H1524 C1544 0.950 . S
H1525 C1545 0.950 . S
H1526 C1547 0.950 . S
H1527 C1550 0.950 . S
H1528 C1551 0.950 . S
H1529 C1553 0.950 . S
H1530 C1554 0.950 . S
H1531 C1555 0.951 . S
H1532 C1557 0.951 . S
H1533 C1559 0.950 . S
H1534 C1560 0.950 . S
H1535 C1562 0.950 . S
H1536 C1565 0.950 . S
H1537 C1566 0.950 . S
H1538 C1568 0.950 . S
H1539 C1569 0.950 . S
C1540 H1522 0.949 1_565 S
C1540 C1541 1.364 . S
C1540 C1542 1.388 . S
C1541 C1540 1.364 . S
C1541 C1545 1.391 . S
C1542 H1523 0.950 1_565 S
C1542 C1540 1.388 . S
C1542 C1543 1.367 . S
C1543 C1542 1.367 . S
C1543 C1544 1.414 . S
C1543 C1546 1.499 . S
C1544 H1524 0.950 . S
C1544 C1543 1.414 . S
C1544 C1545 1.374 . S
C1545 H1525 0.950 . S
C1545 C1541 1.391 . S
C1545 C1544 1.374 . S
C1546 C1543 1.499 . S
C1546 C1547 1.373 . S
C1546 C1548 1.389 1_565 S
C1547 H1526 0.950 . S
C1547 C1546 1.373 . S
C1547 C1563 1.377 . S
C1548 C1546 1.389 1_545 S
C1548 C1549 1.524 . S
C1548 C1562 1.377 . S
C1549 C1548 1.524 . S
C1549 C1550 1.397 . S
C1549 C1554 1.363 . S
C1550 H1527 0.950 . S
C1550 C1549 1.397 . S
C1550 C1551 1.334 . S
C1551 H1528 0.950 . S
C1551 C1550 1.334 . S
C1551 C1552 1.287 . S
C1552 C1551 1.287 . S
C1552 C1553 1.524 . S
C1552 H1571 0.913 . S
C1553 H1529 0.950 . S
C1553 C1552 1.524 . S
C1553 C1554 1.415 . S
C1554 H1530 0.950 . S
C1554 C1549 1.363 . S
C1554 C1553 1.415 . S
C1555 H1531 0.951 . S
C1555 C1556 1.366 . S
C1555 C1557 1.388 . S
C1556 C1555 1.366 . S
C1556 C1560 1.385 . S
C1557 H1532 0.951 . S
C1557 C1555 1.388 . S
C1557 C1558 1.366 . S
C1558 C1557 1.366 . S
C1558 C1559 1.414 . S
C1558 C1561 1.499 . S
C1559 H1533 0.950 . S
C1559 C1558 1.414 . S
C1559 C1560 1.374 . S
C1560 H1534 0.950 . S
C1560 C1556 1.385 . S
C1560 C1559 1.374 . S
C1561 C1558 1.499 . S
C1561 C1562 1.373 1_565 S
C1561 C1563 1.389 . S
C1562 H1535 0.950 . S
C1562 C1548 1.377 . S
C1562 C1561 1.373 1_545 S
C1563 C1547 1.377 . S
C1563 C1561 1.389 . S
C1563 C1564 1.524 . S
C1564 C1563 1.524 . S
C1564 C1565 1.397 . S
C1564 C1569 1.363 . S
C1565 H1536 0.950 . S
C1565 C1564 1.397 . S
C1565 C1566 1.334 . S
C1566 H1537 0.950 . S
C1566 C1565 1.334 . S
C1566 C1567 1.287 . S
C1567 C1566 1.287 . S
C1567 C1568 1.524 . S
C1567 H1570 0.999 . S
C1568 H1538 0.950 . S
C1568 C1567 1.524 . S
C1568 C1569 1.415 . S
C1569 H1539 0.950 . S
C1569 C1564 1.363 . S
C1569 C1568 1.415 . S
H1570 C1567 0.999 . S
H1571 C1552 0.913 . S
H1572 C1590 0.951 . S
H1573 C1592 0.951 . S
H1574 C1594 0.950 . S
H1575 C1595 0.950 . S
H1576 C1597 0.950 . S
H1577 C1600 0.950 . S
H1578 C1601 0.950 . S
H1579 C1603 0.950 . S
H1580 C1604 0.950 . S
H1581 C1605 0.951 . S
H1582 C1607 0.951 . S
H1583 C1609 0.950 . S
H1584 C1610 0.950 . S
H1585 C1612 0.950 . S
H1586 C1615 0.950 . S
H1587 C1616 0.950 . S
H1588 C1618 0.950 . S
H1589 C1619 0.950 . S
C1590 H1572 0.951 . S
C1590 C1591 1.366 . S
C1590 C1592 1.388 . S
C1591 C1590 1.366 . S
C1591 C1595 1.385 . S
C1592 H1573 0.951 . S
C1592 C1590 1.388 . S
C1592 C1593 1.366 . S
C1593 C1592 1.366 . S
C1593 C1594 1.414 . S
C1593 C1596 1.499 . S
C1594 H1574 0.950 . S
C1594 C1593 1.414 . S
C1594 C1595 1.374 . S
C1595 H1575 0.950 . S
C1595 C1591 1.385 . S
C1595 C1594 1.374 . S
C1596 C1593 1.499 . S
C1596 C1597 1.373 . S
C1596 C1598 1.389 . S
C1597 H1576 0.950 . S
C1597 C1596 1.373 . S
C1597 C1613 1.377 . S
C1598 C1596 1.389 . S
C1598 C1599 1.524 . S
C1598 C1612 1.377 . S
C1599 C1598 1.524 . S
C1599 C1600 1.397 . S
C1599 C1604 1.363 . S
C1600 H1577 0.950 . S
C1600 C1599 1.397 . S
C1600 C1601 1.334 . S
C1601 H1578 0.950 . S
C1601 C1600 1.334 . S
C1601 C1602 1.287 . S
C1602 C1601 1.287 . S
C1602 C1603 1.524 . S
C1602 H1621 0.913 . S
C1603 H1579 0.950 . S
C1603 C1602 1.524 . S
C1603 C1604 1.415 . S
C1604 H1580 0.950 . S
C1604 C1599 1.363 . S
C1604 C1603 1.415 . S
C1605 H1581 0.951 . S
C1605 C1606 1.366 . S
C1605 C1607 1.388 . S
C1606 C1605 1.366 . S
C1606 C1610 1.385 . S
C1607 H1582 0.951 . S
C1607 C1605 1.388 . S
C1607 C1608 1.366 . S
C1608 C1607 1.366 . S
C1608 C1609 1.414 . S
C1608 C1611 1.499 . S
C1609 H1583 0.950 . S
C1609 C1608 1.414 . S
C1609 C1610 1.374 . S
C1610 H1584 0.950 . S
C1610 C1606 1.385 . S
C1610 C1609 1.374 . S
C1611 C1608 1.499 . S
C1611 C1612 1.373 . S
C1611 C1613 1.389 . S
C1612 H1585 0.950 . S
C1612 C1598 1.377 . S
C1612 C1611 1.373 . S
C1613 C1597 1.377 . S
C1613 C1611 1.389 . S
C1613 C1614 1.524 . S
C1614 C1613 1.524 . S
C1614 C1615 1.397 . S
C1614 C1619 1.363 . S
C1615 H1586 0.950 . S
C1615 C1614 1.397 . S
C1615 C1616 1.334 . S
C1616 H1587 0.950 . S
C1616 C1615 1.334 . S
C1616 C1617 1.287 . S
C1617 C1616 1.287 . S
C1617 C1618 1.524 . S
C1617 H1620 0.999 . S
C1618 H1588 0.950 . S
C1618 C1617 1.524 . S
C1618 C1619 1.415 . S
C1619 H1589 0.950 . S
C1619 C1614 1.363 . S
C1619 C1618 1.415 . S
H1620 C1617 0.999 . S
H1621 C1602 0.913 . S
H1622 C1640 0.951 . S
H1623 C1642 0.951 . S
H1624 C1644 0.950 . S
H1625 C1645 0.950 . S
H1626 C1647 0.950 . S
H1627 C1650 0.950 . S
H1628 C1651 0.950 . S
H1629 C1653 0.950 . S
H1630 C1654 0.950 . S
H1631 C1655 0.951 . S
H1632 C1657 0.951 . S
H1633 C1659 0.950 . S
H1634 C1660 0.950 . S
H1635 C1662 0.950 . S
H1636 C1665 0.950 . S
H1637 C1666 0.950 . S
H1638 C1668 0.950 . S
H1639 C1669 0.950 . S
C1640 H1622 0.951 . S
C1640 C1641 1.366 . S
C1640 C1642 1.388 . S
C1641 C1640 1.366 . S
C1641 C1645 1.385 . S
C1642 H1623 0.951 . S
C1642 C1640 1.388 . S
C1642 C1643 1.366 . S
C1643 C1642 1.366 . S
C1643 C1644 1.414 . S
C1643 C1646 1.499 . S
C1644 H1624 0.950 . S
C1644 C1643 1.414 . S
C1644 C1645 1.374 . S
C1645 H1625 0.950 . S
C1645 C1641 1.385 . S
C1645 C1644 1.374 . S
C1646 C1643 1.499 . S
C1646 C1647 1.373 . S
C1646 C1648 1.389 . S
C1647 H1626 0.950 . S
C1647 C1646 1.373 . S
C1647 C1663 1.377 . S
C1648 C1646 1.389 . S
C1648 C1649 1.524 . S
C1648 C1662 1.377 . S
C1649 C1648 1.524 . S
C1649 C1650 1.397 . S
C1649 C1654 1.363 . S
C1650 H1627 0.950 . S
C1650 C1649 1.397 . S
C1650 C1651 1.334 . S
C1651 H1628 0.950 . S
C1651 C1650 1.334 . S
C1651 C1652 1.287 . S
C1652 C1651 1.287 . S
C1652 C1653 1.524 . S
C1652 H1671 0.913 . S
C1653 H1629 0.950 . S
C1653 C1652 1.524 . S
C1653 C1654 1.415 . S
C1654 H1630 0.950 . S
C1654 C1649 1.363 . S
C1654 C1653 1.415 . S
C1655 H1631 0.951 . S
C1655 C1656 1.366 . S
C1655 C1657 1.388 . S
C1656 C1655 1.366 . S
C1656 C1660 1.385 . S
C1657 H1632 0.951 . S
C1657 C1655 1.388 . S
C1657 C1658 1.366 . S
C1658 C1657 1.366 . S
C1658 C1659 1.414 . S
C1658 C1661 1.499 . S
C1659 H1633 0.950 . S
C1659 C1658 1.414 . S
C1659 C1660 1.374 . S
C1660 H1634 0.950 . S
C1660 C1656 1.385 . S
C1660 C1659 1.374 . S
C1661 C1658 1.499 . S
C1661 C1662 1.373 . S
C1661 C1663 1.389 . S
C1662 H1635 0.950 . S
C1662 C1648 1.377 . S
C1662 C1661 1.373 . S
C1663 C1647 1.377 . S
C1663 C1661 1.389 . S
C1663 C1664 1.524 . S
C1664 C1663 1.524 . S
C1664 C1665 1.397 . S
C1664 C1669 1.363 . S
C1665 H1636 0.950 . S
C1665 C1664 1.397 . S
C1665 C1666 1.334 . S
C1666 H1637 0.950 . S
C1666 C1665 1.334 . S
C1666 C1667 1.287 . S
C1667 C1666 1.287 . S
C1667 C1668 1.524 . S
C1667 H1670 0.999 . S
C1668 H1638 0.950 . S
C1668 C1667 1.524 . S
C1668 C1669 1.415 . S
C1669 H1639 0.950 . S
C1669 C1664 1.363 . S
C1669 C1668 1.415 . S
H1670 C1667 0.999 . S
H1671 C1652 0.913 . S
C491 C255 1.965 1_545 S
C506 C330 2.084 1_545 S
C556 C370 2.099 . S
C541 C294 1.946 . S
C606 C410 2.092 . S
C591 C177 1.968 . S
C656 C450 2.095 1_455 S
C641 C216 1.972 1_455 S
C706 C320 2.088 1_565 S
C691 C99 1.971 1_545 S
C741 C138 1.953 . S
C756 C360 2.103 . S
C791 C21 1.968 . S
C806 C400 2.092 . S
C841 C60 1.972 . S
C856 C440 2.095 1_655 S
C906 C317 0.221 . S
C891 C196 0.237 1_455 S
C956 C357 0.221 . S
C941 C235 0.237 1_545 S
C1006 C397 0.215 . S
C991 C289 0.231 . S
C1041 C157 0.230 . S
C1056 C437 0.216 . S
C1091 C40 0.228 . S
C1106 C327 0.206 . S
C1156 C367 0.220 . S
C1141 C79 0.222 . S
C1206 C407 0.215 . S
C1191 C133 0.226 . S
C1241 C1 0.220 . S
C1256 C447 0.222 . S
C1291 C211 2.520 . S
C1306 C321 2.805 . S
C1341 C250 2.507 . S
C1356 C361 2.799 . S
C1406 C401 2.801 . S
C1391 C274 2.514 . S
C1456 C441 2.801 . S
C1441 C172 2.502 . S
C1491 C55 2.520 1_655 S
C1506 C331 2.820 . S
C1556 C371 2.799 . S
C1541 C94 2.506 1_565 S
C1606 C411 2.801 . S
C1591 C118 2.516 . S
C1641 C16 2.509 . S
C1656 C451 2.809 . S
