# Generated by pormake.
# Topology tsx, (6,3)-cn, num edge types: 1
# Building blocks:
#     Node 0, Type 0, BuildingBlock: VOLQOD_clean_sbu_1, # of connection points: 6
#     Node 1, Type 0, BuildingBlock: VOLQOD_clean_sbu_1, # of connection points: 6
#     Node 2, Type 1, BuildingBlock: BETDIP_clean_linker_0, # of connection points: 3
#     Node 3, Type 1, BuildingBlock: BETDIP_clean_linker_0, # of connection points: 3
#     Node 4, Type 1, BuildingBlock: BETDIP_clean_linker_0, # of connection points: 3
#     Node 5, Type 1, BuildingBlock: BETDIP_clean_linker_0, # of connection points: 3
#     Edge 6, Type (0, 1), BuildingBlock: XUDNAN_clean_linker_2, # of connection points: 2
#     Edge 7, Type (0, 1), BuildingBlock: XUDNAN_clean_linker_2, # of connection points: 2
#     Edge 8, Type (0, 1), BuildingBlock: XUDNAN_clean_linker_2, # of connection points: 2
#     Edge 9, Type (0, 1), BuildingBlock: XUDNAN_clean_linker_2, # of connection points: 2
#     Edge 10, Type (0, 1), BuildingBlock: XUDNAN_clean_linker_2, # of connection points: 2
#     Edge 11, Type (0, 1), BuildingBlock: XUDNAN_clean_linker_2, # of connection points: 2
#     Edge 12, Type (0, 1), BuildingBlock: XUDNAN_clean_linker_2, # of connection points: 2
#     Edge 13, Type (0, 1), BuildingBlock: XUDNAN_clean_linker_2, # of connection points: 2
#     Edge 14, Type (0, 1), BuildingBlock: XUDNAN_clean_linker_2, # of connection points: 2
#     Edge 15, Type (0, 1), BuildingBlock: XUDNAN_clean_linker_2, # of connection points: 2
#     Edge 16, Type (0, 1), BuildingBlock: XUDNAN_clean_linker_2, # of connection points: 2
#     Edge 17, Type (0, 1), BuildingBlock: XUDNAN_clean_linker_2, # of connection points: 2
# Relax obj value: 0.057
# Max RMSD: 0.118
# Mean RMSD: 0.105
data_MOF--net-tsx--node1-VOLQOD_clean_sbu_1--node2-BETDIP_clean_linker_0--edge1-XUDNAN_clean_linker_2
_symmetry_space_group_name_H-M    P1
_symmetry_Int_Tables_number       1
_symmetry_cell_setting            triclinic
loop_
_symmetry_equiv_pos_as_xyz
'x, y, z'
_cell_length_a     21.030228
_cell_length_b     21.641503
_cell_length_c     37.498775
_cell_angle_alpha  89.929503
_cell_angle_beta   98.220076
_cell_angle_gamma 89.649027
loop_
_atom_site_label
_atom_site_type_symbol
_atom_site_fract_x
_atom_site_fract_y
_atom_site_fract_z
_atom_type_partial_charge
O0 O 0.0431 0.99368 0.08811 0.0
Zn1 Zn 0.07153 0.99518 0.03847 0.0
O2 O 0.99846 0.01273 0.00085 0.0
Zn3 Zn 0.97888 0.93833 0.97219 0.0
Zn4 Zn 0.92353 0.03587 0.02294 0.0
Zn5 Zn 0.01926 0.0813 0.97022 0.0
O6 O 0.98787 0.95551 0.92027 0.0
O7 O 0.02165 0.05276 0.91911 0.0
O8 O 0.11686 0.91404 0.02913 0.0
O9 O 0.04467 0.87274 0.98706 0.0
O10 O 0.89105 0.90277 0.97714 0.0
O11 O 0.85315 0.97365 0.0115 0.0
O12 O 0.88815 0.11989 0.00699 0.0
O13 O 0.13389 0.06611 0.0405 0.0
O14 O 0.95455 0.15106 0.96973 0.0
O15 O 0.10381 0.12019 0.99039 0.0
C16 C 0.99335 0.01703 0.09886 0.0
C17 C 0.00695 1.00152 0.90343 0.0
C18 C 0.84661 0.92332 0.99382 0.0
C19 C 0.0975 0.8693 0.00828 0.0
C20 C 0.90605 0.16034 0.98592 0.0
C21 C 0.14205 0.11063 0.01939 0.0
O22 O 0.94651 0.03776 0.07669 0.0
O23 O 0.57653 0.49313 0.58164 0.0
Zn24 Zn 0.59697 0.50206 0.53117 0.0
O25 O 0.51859 0.52247 0.49835 0.0
Zn26 Zn 0.49557 0.45366 0.46485 0.0
Zn27 Zn 0.44871 0.54079 0.52644 0.0
Zn28 Zn 0.53407 0.59539 0.47088 0.0
O29 O 0.49719 0.47905 0.41238 0.0
O30 O 0.52652 0.57718 0.41853 0.0
O31 O 0.6354 0.42061 0.51795 0.0
O32 O 0.56038 0.38451 0.47546 0.0
O33 O 0.40853 0.41883 0.47159 0.0
O34 O 0.37952 0.47715 0.51539 0.0
O35 O 0.40869 0.6255 0.51475 0.0
O36 O 0.66388 0.56928 0.53147 0.0
O37 O 0.47131 0.66303 0.47712 0.0
O38 O 0.62187 0.62895 0.48568 0.0
C39 C 0.52962 0.50987 0.5975 0.0
C40 C 0.51169 0.53029 0.3988 0.0
C41 C 0.36918 0.43228 0.4934 0.0
C42 C 0.61367 0.37812 0.49613 0.0
C43 C 0.42425 0.66893 0.49475 0.0
C44 C 0.66728 0.61522 0.51056 0.0
O45 O 0.47873 0.53363 0.58022 0.0
H46 H 0.04166 0.97304 0.46718 0.0
H47 H 0.92197 0.02734 0.36992 0.0
H48 H 0.11731 0.9692 0.36632 0.0
H49 H 0.97951 0.07362 0.48168 0.0
C50 C 0.93203 0.05821 0.46991 0.0
C51 C 0.03563 0.98073 0.43832 0.0
C52 C 0.08603 0.96711 0.41864 0.0
C53 C 0.97702 1.0035 0.42051 0.0
C54 C 0.96839 0.01148 0.38317 0.0
C55 C 0.01901 1.00077 0.36317 0.0
C56 C 0.07783 0.97837 0.38126 0.0
N57 N 0.92547 0.01893 0.43936 0.0
H58 H 0.95805 0.0103 0.54021 0.0
H59 H 0.05412 0.09087 0.63796 0.0
H60 H 0.9704 0.9112 0.64043 0.0
H61 H 0.04441 0.17908 0.6045 0.0
C62 C 0.05049 0.16343 0.57769 0.0
C63 C 0.97352 0.00708 0.56891 0.0
C64 C 0.95914 0.9544 0.58806 0.0
C65 C 0.00753 0.05648 0.58639 0.0
C66 C 0.02683 0.05375 0.62399 0.0
C67 C 0.0132 1.0012 0.64354 0.0
C68 C 0.98002 0.95189 0.62529 0.0
N69 N 0.02498 0.10579 0.56474 0.0
H70 H 0.54802 0.51376 0.96462 0.0
H71 H 0.44403 0.53759 0.85777 0.0
H72 H 0.63569 0.46186 0.87251 0.0
H73 H 0.48489 0.60324 0.97392 0.0
C74 C 0.43887 0.5898 0.95912 0.0
C75 C 0.54606 0.51135 0.93563 0.0
C76 C 0.59815 0.486 0.92094 0.0
C77 C 0.49097 0.53179 0.9126 0.0
C78 C 0.4876 0.52421 0.87516 0.0
C79 C 0.53941 0.49854 0.86029 0.0
C80 C 0.59498 0.48126 0.88351 0.0
N81 N 0.4367 0.55706 0.92613 0.0
H82 H 0.46407 0.46984 0.03539 0.0
H83 H 0.57943 0.56739 0.12076 0.0
H84 H 0.45365 0.42312 0.14597 0.0
H85 H 0.49124 0.63932 0.06769 0.0
C86 C 0.52986 0.62679 0.05255 0.0
C87 C 0.48131 0.475 0.06387 0.0
C88 C 0.45405 0.44008 0.08946 0.0
C89 C 0.52649 0.52105 0.07534 0.0
C90 C 0.54565 0.53082 0.11234 0.0
C91 C 0.51964 0.49572 0.1382 0.0
C92 C 0.47532 0.44947 0.12633 0.0
N93 N 0.54625 0.56329 0.05017 0.0
H94 H 0.25147 0.1546 0.99451 0.0
H95 H 0.12626 0.18111 0.07571 0.0
H96 H 0.18798 0.27291 0.09835 0.0
H97 H 0.39767 0.19567 0.05385 0.0
H98 H 0.43423 0.23356 0.01913 0.0
H99 H 0.37828 0.1716 0.00758 0.0
H100 H 0.30937 0.24349 0.9619 0.0
H101 H 0.36477 0.30589 0.97369 0.0
H102 H 0.28073 0.31621 0.97706 0.0
H103 H 0.25727 0.36271 0.11042 0.0
H104 H 0.34449 0.43816 0.11969 0.0
H105 H 0.43542 0.35074 0.03559 0.0
C106 C 0.23767 0.17985 0.01714 0.0
C107 C 0.18437 0.16128 0.03356 0.0
C108 C 0.16734 0.19474 0.06313 0.0
C109 C 0.20167 0.24711 0.07592 0.0
C110 C 0.25361 0.2648 0.05917 0.0
C111 C 0.27282 0.23172 0.03102 0.0
C112 C 0.33352 0.2592 0.01994 0.0
C113 C 0.38922 0.21221 0.02546 0.0
C114 C 0.32134 0.28258 0.98082 0.0
C115 C 0.34505 0.31263 0.04633 0.0
C116 C 0.29725 0.31532 0.06803 0.0
C117 C 0.2957 0.36056 0.0941 0.0
C118 C 0.34573 0.40302 0.09925 0.0
C119 C 0.39783 0.39925 0.07913 0.0
C120 C 0.39652 0.35446 0.05153 0.0
H121 H 0.22734 0.85441 0.03221 0.0
H122 H 0.06019 0.75879 0.97772 0.0
H123 H 0.12877 0.67141 0.96517 0.0
H124 H 0.3319 0.81575 0.97303 0.0
H125 H 0.40193 0.80359 0.00612 0.0
H126 H 0.33914 0.85499 0.0158 0.0
H127 H 0.32847 0.79264 0.07345 0.0
H128 H 0.39066 0.73992 0.06415 0.0
H129 H 0.31305 0.71083 0.07035 0.0
H130 H 0.21551 0.60136 0.95087 0.0
H131 H 0.31552 0.5512 0.93805 0.0
H132 H 0.42732 0.68975 0.00198 0.0
C133 C 0.20499 0.81434 0.01856 0.0
C134 C 0.13827 0.81362 0.006 0.0
C135 C 0.11112 0.76066 0.98761 0.0
C136 C 0.14966 0.71055 0.98041 0.0
C137 C 0.2154 0.71352 0.99204 0.0
C138 C 0.24295 0.76363 0.01109 0.0
C139 C 0.3155 0.75664 0.01836 0.0
C140 C 0.34906 0.81096 0.00236 0.0
C141 C 0.33827 0.74961 0.05898 0.0
C142 C 0.3244 0.69677 0.99857 0.0
C143 C 0.2659 0.67217 0.98415 0.0
C144 C 0.26163 0.61952 0.96257 0.0
C145 C 0.31866 0.59157 0.95524 0.0
C146 C 0.3791 0.61645 0.96934 0.0
C147 C 0.38181 0.66909 0.99168 0.0
H148 H 0.82935 0.79714 0.98663 0.0
H149 H 0.73012 0.96838 0.00448 0.0
H150 H 0.63439 0.90966 0.01431 0.0
H151 H 0.6833 0.71067 0.94281 0.0
H152 H 0.71028 0.63923 0.96486 0.0
H153 H 0.76808 0.69435 0.95337 0.0
H154 H 0.82217 0.69591 0.01989 0.0
H155 H 0.76444 0.64118 0.03156 0.0
H156 H 0.77445 0.71408 0.05484 0.0
H157 H 0.55645 0.83503 0.03062 0.0
H158 H 0.49773 0.74697 0.05099 0.0
H159 H 0.6429 0.62094 0.02186 0.0
C160 C 0.78669 0.82219 0.99148 0.0
C161 C 0.78704 0.88744 0.99456 0.0
C162 C 0.73097 0.91853 0.00195 0.0
C163 C 0.6762 0.88558 0.00743 0.0
C164 C 0.67795 0.8214 0.00534 0.0
C165 C 0.73134 0.78974 0.99727 0.0
C166 C 0.72199 0.7203 1.0 0.0
C167 C 0.72084 0.68931 0.96305 0.0
C168 C 0.77384 0.69119 0.02826 0.0
C169 C 0.65619 0.7183 0.01223 0.0
C170 C 0.63165 0.77734 0.01463 0.0
C171 C 0.57434 0.7885 0.02803 0.0
C172 C 0.54131 0.73816 0.03956 0.0
C173 C 0.56496 0.67721 0.03733 0.0
C174 C 0.62294 0.66699 0.02312 0.0
H175 H 0.78097 0.18519 0.99478 0.0
H176 H 0.95268 0.2707 0.96596 0.0
H177 H 0.8954 0.37072 0.95768 0.0
H178 H 0.67442 0.26038 0.92872 0.0
H179 H 0.61041 0.26814 0.95569 0.0
H180 H 0.66777 0.20615 0.96452 0.0
H181 H 0.69366 0.24234 0.0309 0.0
H182 H 0.63697 0.30524 0.02192 0.0
H183 H 0.71921 0.3207 0.04043 0.0
H184 H 0.81785 0.45839 0.94692 0.0
H185 H 0.72222 0.52324 0.92684 0.0
H186 H 0.59978 0.38172 0.9614 0.0
C187 C 0.8068 0.22527 0.98737 0.0
C188 C 0.87144 0.22028 0.98126 0.0
C189 C 0.90315 0.27341 0.97075 0.0
C190 C 0.87122 0.33059 0.96637 0.0
C191 C 0.80745 0.33396 0.97249 0.0
C192 C 0.77531 0.28258 0.98239 0.0
C193 C 0.7048 0.29695 0.98302 0.0
C194 C 0.66185 0.25548 0.95639 0.0
C195 C 0.68768 0.29095 0.02136 0.0
C196 C 0.70189 0.36383 0.97075 0.0
C197 C 0.76203 0.38472 0.96571 0.0
C198 C 0.77076 0.44304 0.95141 0.0
C199 C 0.71637 0.47975 0.94032 0.0
C200 C 0.6542 0.45785 0.94346 0.0
C201 C 0.64711 0.40025 0.96006 0.0
H202 H 0.71412 0.67255 0.57294 0.0
H203 H 0.74007 0.65509 0.46089 0.0
H204 H 0.82331 0.73648 0.46906 0.0
H205 H 0.71958 0.8341 0.57333 0.0
H206 H 0.75944 0.84072 0.61901 0.0
H207 H 0.70987 0.77481 0.6059 0.0
H208 H 0.80533 0.70129 0.62785 0.0
H209 H 0.85512 0.76706 0.64132 0.0
H210 H 0.88053 0.71094 0.61072 0.0
H211 H 0.9005 0.82306 0.48934 0.0
H212 H 0.96165 0.91034 0.51899 0.0
H213 H 0.87267 0.87883 0.61518 0.0
C214 C 0.73897 0.68464 0.55054 0.0
C215 C 0.72246 0.65689 0.51658 0.0
C216 C 0.75341 0.67543 0.48726 0.0
C217 C 0.80051 0.72149 0.49166 0.0
C218 C 0.81483 0.74919 0.52536 0.0
C219 C 0.78462 0.73171 0.55422 0.0
C220 C 0.80338 0.77301 0.58643 0.0
C221 C 0.74457 0.80771 0.59675 0.0
C222 C 0.83817 0.73585 0.61847 0.0
C223 C 0.84871 0.81648 0.5712 0.0
C224 C 0.85557 0.80157 0.53618 0.0
C225 C 0.89534 0.8353 0.51676 0.0
C226 C 0.92937 0.88533 0.53376 0.0
C227 C 0.92246 0.90189 0.56963 0.0
C228 C 0.88079 0.86698 0.58816 0.0
H229 H 0.74209 0.35689 0.52027 0.0
H230 H 0.56916 0.26791 0.46775 0.0
H231 H 0.63052 0.17189 0.46243 0.0
H232 H 0.84569 0.29283 0.46477 0.0
H233 H 0.91337 0.28323 0.49973 0.0
H234 H 0.8547 0.34278 0.50359 0.0
H235 H 0.83662 0.29847 0.56556 0.0
H236 H 0.8951 0.23847 0.56167 0.0
H237 H 0.81495 0.21845 0.56909 0.0
H238 H 0.71064 0.08867 0.45821 0.0
H239 H 0.80625 0.02532 0.45203 0.0
H240 H 0.92881 0.16706 0.50642 0.0
C241 C 0.71694 0.31683 0.50826 0.0
C242 C 0.65066 0.31989 0.49459 0.0
C243 C 0.61982 0.2668 0.4784 0.0
C244 C 0.65418 0.21184 0.47547 0.0
C245 C 0.71944 0.21052 0.48884 0.0
C246 C 0.75073 0.26156 0.50483 0.0
C247 C 0.82236 0.24921 0.5141 0.0
C248 C 0.8613 0.2947 0.49435 0.0
C249 C 0.84348 0.25127 0.55505 0.0
C250 C 0.8265 0.184 0.4998 0.0
C251 C 0.76634 0.1623 0.48593 0.0
C252 C 0.75793 0.10485 0.46929 0.0
C253 C 0.81254 0.06926 0.46584 0.0
C254 C 0.87475 0.09146 0.47874 0.0
C255 C 0.88164 0.14878 0.49679 0.0
H256 H 0.29152 0.43165 0.54605 0.0
H257 H 0.32143 0.34003 0.4468 0.0
H258 H 0.23489 0.26647 0.45455 0.0
H259 H 0.27134 0.29804 0.59422 0.0
H260 H 0.21116 0.32963 0.61887 0.0
H261 H 0.26898 0.37984 0.60302 0.0
H262 H 0.17687 0.44657 0.56902 0.0
H263 H 0.11861 0.39665 0.58493 0.0
H264 H 0.11589 0.41037 0.53732 0.0
H265 H 0.15125 0.19767 0.47599 0.0
H266 H 0.07996 0.13806 0.50991 0.0
H267 H 0.10731 0.27356 0.59581 0.0
C268 C 0.27901 0.3971 0.52541 0.0
C269 C 0.31303 0.39201 0.49562 0.0
C270 C 0.29588 0.34511 0.46974 0.0
C271 C 0.24667 0.30321 0.47388 0.0
C272 C 0.21509 0.30883 0.50401 0.0
C273 C 0.23056 0.35473 0.52929 0.0
C274 C 0.19333 0.34792 0.56076 0.0
C275 C 0.23893 0.33826 0.5963 0.0
C276 C 0.14851 0.4037 0.56313 0.0
C277 C 0.15553 0.29011 0.54973 0.0
C278 C 0.16801 0.26869 0.51668 0.0
C279 C 0.14068 0.2144 0.5017 0.0
C280 C 0.10028 0.1808 0.52122 0.0
C281 C 0.08812 0.20139 0.55549 0.0
C282 C 0.11546 0.25713 0.56955 0.0
H283 H 0.29853 0.68657 0.50521 0.0
H284 H 0.46233 0.78082 0.47237 0.0
H285 H 0.39553 0.87362 0.4572 0.0
H286 H 0.18767 0.73939 0.43516 0.0
H287 H 0.12168 0.74844 0.46059 0.0
H288 H 0.18429 0.6931 0.47485 0.0
H289 H 0.20481 0.74471 0.53773 0.0
H290 H 0.14196 0.80028 0.52363 0.0
H291 H 0.22162 0.82625 0.54107 0.0
H292 H 0.30931 0.95013 0.43769 0.0
H293 H 0.20832 0.00545 0.41517 0.0
H294 H 0.09954 0.86314 0.46047 0.0
C295 C 0.32073 0.72741 0.49589 0.0
C296 C 0.38573 0.7266 0.49018 0.0
C297 C 0.41265 0.78039 0.47699 0.0
C298 C 0.37518 0.83349 0.46846 0.0
C299 C 0.31084 0.83229 0.47338 0.0
C300 C 0.28375 0.78084 0.48697 0.0
C301 C 0.21192 0.78951 0.48609 0.0
C302 C 0.17421 0.73967 0.46278 0.0
C303 C 0.19404 0.79024 0.52442 0.0
C304 C 0.20266 0.85277 0.46864 0.0
C305 C 0.26054 0.87696 0.46203 0.0
C306 C 0.26382 0.93231 0.44335 0.0
C307 C 0.20636 0.96326 0.43054 0.0
C308 C 0.14653 0.93876 0.43646 0.0
C309 C 0.14487 0.88353 0.45641 0.0
H310 H 0.05606 0.94748 0.15511 0.0
H311 H 0.92425 0.10198 0.13067 0.0
H312 H 0.91969 0.11611 0.19541 0.0
H313 H 0.97756 0.88593 0.22684 0.0
H314 H 0.05119 0.86185 0.25408 0.0
H315 H 0.04653 0.86511 0.20578 0.0
H316 H 0.14505 0.93768 0.21231 0.0
H317 H 0.14979 0.93487 0.26064 0.0
H318 H 0.14327 0.00829 0.23762 0.0
H319 H 0.93114 0.11588 0.26221 0.0
H320 H 0.95071 0.09607 0.32741 0.0
H321 H 0.06819 0.93632 0.30925 0.0
C322 C 0.0265 0.98438 0.16347 0.0
C323 C 0.99065 0.02376 0.13786 0.0
C324 C 0.95188 0.07107 0.14978 0.0
C325 C 0.9492 0.07971 0.18651 0.0
C326 C 0.98496 0.04021 0.21104 0.0
C327 C 0.02231 0.99302 0.20014 0.0
C328 C 0.05368 0.95556 0.23221 0.0
C329 C 0.03086 0.88812 0.22956 0.0
C330 C 0.12732 0.95935 0.2359 0.0
C331 C 0.02819 0.98931 0.26272 0.0
C332 C 0.98924 0.03834 0.24982 0.0
C333 C 0.96088 0.07712 0.27265 0.0
C334 C 0.97191 0.06507 0.30971 0.0
C335 C 0.01018 0.01396 0.32372 0.0
C336 C 0.03902 0.97597 0.29968 0.0
H337 H 0.98916 0.08653 0.84818 0.0
H338 H 0.04836 0.89729 0.8737 0.0
H339 H 0.06956 0.88209 0.81128 0.0
H340 H 0.90344 0.05155 0.76184 0.0
H341 H 0.92423 0.12214 0.74084 0.0
H342 H 0.92034 0.1204 0.78845 0.0
H343 H 0.03727 0.16048 0.80104 0.0
H344 H 0.0417 0.16159 0.75338 0.0
H345 H 0.10037 0.1186 0.78352 0.0
H346 H 0.08245 0.88601 0.74674 0.0
H347 H 0.07096 0.90329 0.68119 0.0
H348 H 0.99591 0.08752 0.69525 0.0
C349 C 0.0072 0.04219 0.84058 0.0
C350 C 0.01759 0.99313 0.8657 0.0
C351 C 0.03995 0.93533 0.85477 0.0
C352 C 0.05272 0.92646 0.81951 0.0
C353 C 0.04213 0.97563 0.79537 0.0
C354 C 0.01884 0.03206 0.80514 0.0
C355 C 0.0057 0.07503 0.77287 0.0
C356 C 0.93418 0.09332 0.76557 0.0
C357 C 0.04885 0.13232 0.77802 0.0
C358 C 0.02435 0.03353 0.74342 0.0
C359 C 0.04662 0.97695 0.75729 0.0
C360 C 0.06502 0.93006 0.73551 0.0
C361 C 0.0582 0.94027 0.69832 0.0
C362 C 0.03206 0.99652 0.68315 0.0
C363 C 0.01676 0.04441 0.70616 0.0
H364 H 0.48024 0.57926 0.64891 0.0
H365 H 0.58748 0.41169 0.63373 0.0
H366 H 0.59373 0.38755 0.69841 0.0
H367 H 0.57349 0.61874 0.73334 0.0
H368 H 0.50667 0.65004 0.75282 0.0
H369 H 0.50568 0.65202 0.70474 0.0
H370 H 0.39711 0.59413 0.69596 0.0
H371 H 0.39798 0.59166 0.74407 0.0
H372 H 0.39077 0.52112 0.71834 0.0
H373 H 0.58824 0.3806 0.76365 0.0
H374 H 0.58276 0.39668 0.82798 0.0
H375 H 0.48729 0.57342 0.80332 0.0
C376 C 0.50447 0.53729 0.65928 0.0
C377 C 0.53306 0.49704 0.6364 0.0
C378 C 0.56545 0.44314 0.65088 0.0
C379 C 0.56886 0.42883 0.6875 0.0
C380 C 0.54042 0.46935 0.7094 0.0
C381 C 0.50965 0.52294 0.6961 0.0
C382 C 0.48754 0.5606 0.72626 0.0
C383 C 0.52032 0.6241 0.72947 0.0
C384 C 0.41397 0.56725 0.72082 0.0
C385 C 0.51101 0.5198 0.75848 0.0
C386 C 0.54037 0.46699 0.74787 0.0
C387 C 0.56599 0.42206 0.7724 0.0
C388 C 0.56303 0.43193 0.80895 0.0
C389 C 0.5358 0.48694 0.82092 0.0
C390 C 0.50829 0.53087 0.79512 0.0
H391 H 0.51342 0.43744 0.34827 0.0
H392 H 0.51633 0.63703 0.3607 0.0
H393 H 0.52676 0.64907 0.2966 0.0
H394 H 0.6299 0.43023 0.28588 0.0
H395 H 0.58954 0.3689 0.25933 0.0
H396 H 0.5826 0.37502 0.30654 0.0
H397 H 0.45846 0.37827 0.29132 0.0
H398 H 0.46505 0.37152 0.24414 0.0
H399 H 0.42098 0.43521 0.25984 0.0
H400 H 0.5337 0.64058 0.23117 0.0
H401 H 0.53125 0.61184 0.16758 0.0
H402 H 0.53014 0.41767 0.19725 0.0
C403 C 0.51589 0.48363 0.33744 0.0
C404 C 0.51405 0.53624 0.35962 0.0
C405 C 0.51786 0.59592 0.34439 0.0
C406 C 0.52396 0.60335 0.30797 0.0
C407 C 0.52663 0.5507 0.28702 0.0
C408 C 0.52253 0.49198 0.30104 0.0
C409 C 0.52575 0.44333 0.27229 0.0
C410 C 0.58551 0.40193 0.28157 0.0
C411 C 0.46388 0.40483 0.26656 0.0
C412 C 0.53127 0.48405 0.23993 0.0
C413 C 0.53204 0.54578 0.24913 0.0
C414 C 0.53393 0.59233 0.22364 0.0
C415 C 0.53327 0.57543 0.18753 0.0
C416 C 0.53098 0.51239 0.17716 0.0
C417 C 0.53159 0.46628 0.20408 0.0
loop_
_geom_bond_atom_site_label_1
_geom_bond_atom_site_label_2
_geom_bond_distance
_geom_bond_site_symmetry_2
_ccdc_geom_bond_type
O0 Zn1 1.953 . S
O0 C16 1.225 1_565 S
Zn1 O0 1.953 . S
Zn1 O2 1.949 1_565 S
Zn1 O8 1.919 . S
Zn1 O13 1.924 1_565 S
O2 Zn1 1.949 1_545 S
O2 Zn3 1.923 1_444 S
O2 Zn4 1.950 1_455 S
O2 Zn5 1.945 1_554 S
Zn3 O2 1.923 1_666 S
Zn3 O6 1.933 . S
Zn3 O9 1.941 1_655 S
Zn3 O10 1.965 . S
Zn4 O2 1.950 1_655 S
Zn4 O11 1.938 1_545 S
Zn4 O12 1.906 . S
Zn4 O22 1.953 . S
Zn5 O2 1.945 1_556 S
Zn5 O7 1.932 . S
Zn5 O14 1.977 1_455 S
Zn5 O15 1.910 . S
O6 Zn3 1.933 . S
O6 C17 1.226 1_565 S
O7 Zn5 1.932 . S
O7 C17 1.307 1_455 S
O8 Zn1 1.919 . S
O8 C19 1.253 1_554 S
O9 Zn3 1.941 1_455 S
O9 C19 1.283 . S
O10 Zn3 1.965 . S
O10 C18 1.303 1_556 S
O11 Zn4 1.938 1_565 S
O11 C18 1.247 . S
O12 Zn4 1.906 . S
O12 C20 1.304 1_554 S
O13 Zn1 1.924 1_545 S
O13 C21 1.311 . S
O14 Zn5 1.977 1_655 S
O14 C20 1.272 . S
O15 Zn5 1.910 . S
O15 C21 1.231 1_556 S
C16 O0 1.225 1_545 S
C16 O22 1.298 1_455 S
C17 O6 1.226 1_545 S
C17 O7 1.307 1_655 S
C18 O10 1.303 1_554 S
C18 O11 1.247 . S
C19 O8 1.253 1_556 S
C19 O9 1.283 . S
C20 O12 1.304 1_556 S
C20 O14 1.272 . S
C21 O13 1.311 . S
C21 O15 1.231 1_554 S
O22 Zn4 1.953 . S
O22 C16 1.298 1_655 S
O23 Zn24 1.953 . S
O23 C39 1.225 . S
Zn24 O23 1.953 . S
Zn24 O25 1.949 . S
Zn24 O31 1.919 . S
Zn24 O36 1.924 . S
O25 Zn24 1.949 . S
O25 Zn26 1.923 . S
O25 Zn27 1.950 . S
O25 Zn28 1.945 . S
Zn26 O25 1.923 . S
Zn26 O29 1.933 . S
Zn26 O32 1.941 . S
Zn26 O33 1.965 . S
Zn27 O25 1.950 . S
Zn27 O34 1.938 . S
Zn27 O35 1.906 . S
Zn27 O45 1.953 . S
Zn28 O25 1.945 . S
Zn28 O30 1.932 . S
Zn28 O37 1.977 . S
Zn28 O38 1.910 . S
O29 Zn26 1.933 . S
O29 C40 1.226 . S
O30 Zn28 1.932 . S
O30 C40 1.307 . S
O31 Zn24 1.919 . S
O31 C42 1.253 . S
O32 Zn26 1.941 . S
O32 C42 1.283 . S
O33 Zn26 1.965 . S
O33 C41 1.303 . S
O34 Zn27 1.938 . S
O34 C41 1.247 . S
O35 Zn27 1.906 . S
O35 C43 1.304 . S
O36 Zn24 1.924 . S
O36 C44 1.311 . S
O37 Zn28 1.977 . S
O37 C43 1.272 . S
O38 Zn28 1.910 . S
O38 C44 1.231 . S
C39 O23 1.225 . S
C39 O45 1.298 . S
C40 O29 1.226 . S
C40 O30 1.307 . S
C41 O33 1.303 . S
C41 O34 1.247 . S
C42 O31 1.253 . S
C42 O32 1.283 . S
C43 O35 1.304 . S
C43 O37 1.272 . S
C44 O36 1.311 . S
C44 O38 1.231 . S
O45 Zn27 1.953 . S
O45 C39 1.298 . S
H46 C51 0.930 . S
H47 C54 0.930 . S
H48 C56 0.930 . S
H49 C50 1.016 . S
C50 H49 1.016 . S
C50 N57 1.286 . S
C51 H46 0.930 . S
C51 C52 1.397 . S
C51 C53 1.361 1_465 S
C52 C51 1.397 . S
C52 C56 1.390 . S
C53 C51 1.361 1_645 S
C53 C54 1.393 . S
C53 N57 1.413 . S
C54 H47 0.930 . S
C54 C53 1.393 . S
C54 C55 1.406 1_655 S
C55 C54 1.406 1_455 S
C55 C56 1.371 1_545 S
C56 H48 0.930 . S
C56 C52 1.390 . S
C56 C55 1.371 1_565 S
N57 C50 1.286 . S
N57 C53 1.413 . S
H58 C63 0.930 . S
H59 C66 0.930 . S
H60 C68 0.930 . S
H61 C62 1.016 . S
C62 H61 1.016 . S
C62 N69 1.286 . S
C63 H58 0.930 . S
C63 C64 1.397 . S
C63 C65 1.361 1_665 S
C64 C63 1.397 . S
C64 C68 1.390 . S
C65 C63 1.361 1_445 S
C65 C66 1.393 . S
C65 N69 1.413 . S
C66 H59 0.930 . S
C66 C65 1.393 . S
C66 C67 1.399 1_455 S
C67 C66 1.399 1_655 S
C67 C68 1.381 1_545 S
C68 H60 0.930 . S
C68 C64 1.390 . S
C68 C67 1.381 1_565 S
N69 C62 1.286 . S
N69 C65 1.413 . S
H70 C75 0.930 . S
H71 C78 0.930 . S
H72 C80 0.930 . S
H73 C74 1.016 . S
C74 H73 1.016 . S
C74 N81 1.286 . S
C75 H70 0.930 . S
C75 C76 1.397 . S
C75 C77 1.361 . S
C76 C75 1.397 . S
C76 C80 1.390 . S
C77 C75 1.361 . S
C77 C78 1.393 . S
C77 N81 1.413 . S
C78 H71 0.930 . S
C78 C77 1.393 . S
C78 C79 1.399 . S
C79 C78 1.399 . S
C79 C80 1.381 . S
C80 H72 0.930 . S
C80 C76 1.390 . S
C80 C79 1.381 . S
N81 C74 1.286 . S
N81 C77 1.413 . S
H82 C87 0.930 . S
H83 C90 0.930 . S
H84 C92 0.930 . S
H85 C86 1.016 . S
C86 H85 1.016 . S
C86 N93 1.286 . S
C87 H82 0.930 . S
C87 C88 1.397 . S
C87 C89 1.361 . S
C88 C87 1.397 . S
C88 C92 1.390 . S
C89 C87 1.361 . S
C89 C90 1.393 . S
C89 N93 1.413 . S
C90 H83 0.930 . S
C90 C89 1.393 . S
C90 C91 1.399 . S
C91 C90 1.399 . S
C91 C92 1.381 . S
C92 H84 0.930 . S
C92 C88 1.390 . S
C92 C91 1.381 . S
N93 C86 1.286 . S
N93 C89 1.413 . S
H94 C106 0.930 1_556 S
H95 C108 0.930 . S
H96 C109 0.930 . S
H97 C113 0.959 1_554 S
H98 C113 0.959 . S
H99 C113 0.961 . S
H100 C114 0.960 . S
H101 C114 0.961 . S
H102 C114 0.959 . S
H103 C117 0.929 . S
H104 C118 0.931 . S
H105 C120 0.930 . S
C106 H94 0.930 1_554 S
C106 C107 1.399 . S
C106 C111 1.399 . S
C107 C106 1.399 . S
C107 C108 1.376 . S
C108 H95 0.930 . S
C108 C107 1.376 . S
C108 C109 1.388 . S
C109 H96 0.930 . S
C109 C108 1.388 . S
C109 C110 1.390 . S
C110 C109 1.390 . S
C110 C111 1.394 . S
C110 C116 1.465 . S
C111 C106 1.399 . S
C111 C110 1.394 . S
C111 C112 1.516 . S
C112 C111 1.516 . S
C112 C113 1.502 1_554 S
C112 C114 1.561 1_554 S
C112 C115 1.526 . S
C113 H97 0.959 1_556 S
C113 H98 0.959 . S
C113 H99 0.961 . S
C113 C112 1.502 1_556 S
C114 H100 0.960 . S
C114 H101 0.961 . S
C114 H102 0.959 . S
C114 C112 1.561 1_556 S
C115 C112 1.526 . S
C115 C116 1.396 . S
C115 C120 1.390 . S
C116 C110 1.465 . S
C116 C115 1.396 . S
C116 C117 1.399 . S
C117 H103 0.929 . S
C117 C116 1.399 . S
C117 C118 1.385 . S
C118 H104 0.931 . S
C118 C117 1.385 . S
C118 C119 1.389 . S
C119 C118 1.389 . S
C119 C120 1.387 . S
C120 H105 0.930 . S
C120 C115 1.390 . S
C120 C119 1.387 . S
H121 C133 0.930 . S
H122 C135 0.930 . S
H123 C136 0.930 . S
H124 C140 0.959 . S
H125 C140 0.959 . S
H126 C140 0.961 . S
H127 C141 0.960 . S
H128 C141 0.961 . S
H129 C141 0.959 . S
H130 C144 0.929 . S
H131 C145 0.931 . S
H132 C147 0.930 . S
C133 H121 0.930 . S
C133 C134 1.399 1_554 S
C133 C138 1.399 1_554 S
C134 C133 1.399 1_556 S
C134 C135 1.376 . S
C135 H122 0.930 . S
C135 C134 1.376 . S
C135 C136 1.388 . S
C136 H123 0.930 . S
C136 C135 1.388 . S
C136 C137 1.390 . S
C137 C136 1.390 . S
C137 C138 1.394 . S
C137 C143 1.465 . S
C138 C133 1.399 1_556 S
C138 C137 1.394 . S
C138 C139 1.516 1_556 S
C139 C138 1.516 1_554 S
C139 C140 1.502 . S
C139 C141 1.561 . S
C139 C142 1.526 1_554 S
C140 H124 0.959 . S
C140 H125 0.959 . S
C140 H126 0.961 . S
C140 C139 1.502 . S
C141 H127 0.960 . S
C141 H128 0.961 . S
C141 H129 0.959 . S
C141 C139 1.561 . S
C142 C139 1.526 1_556 S
C142 C143 1.396 . S
C142 C147 1.390 . S
C143 C137 1.465 . S
C143 C142 1.396 . S
C143 C144 1.399 . S
C144 H130 0.929 . S
C144 C143 1.399 . S
C144 C145 1.385 . S
C145 H131 0.931 . S
C145 C144 1.385 . S
C145 C146 1.389 . S
C146 C145 1.389 . S
C146 C147 1.387 . S
C147 H132 0.930 . S
C147 C142 1.390 . S
C147 C146 1.387 . S
H148 C160 0.930 1_556 S
H149 C162 0.930 . S
H150 C163 0.930 . S
H151 C167 0.959 1_554 S
H152 C167 0.959 . S
H153 C167 0.961 . S
H154 C168 0.960 . S
H155 C168 0.961 . S
H156 C168 0.959 . S
H157 C171 0.929 . S
H158 C172 0.931 . S
H159 C174 0.930 . S
C160 H148 0.930 1_554 S
C160 C161 1.399 . S
C160 C165 1.399 . S
C161 C160 1.399 . S
C161 C162 1.376 . S
C162 H149 0.930 . S
C162 C161 1.376 . S
C162 C163 1.388 . S
C163 H150 0.930 . S
C163 C162 1.388 . S
C163 C164 1.390 . S
C164 C163 1.390 . S
C164 C165 1.394 . S
C164 C170 1.465 . S
C165 C160 1.399 . S
C165 C164 1.394 . S
C165 C166 1.517 . S
C166 C165 1.517 . S
C166 C167 1.501 1_554 S
C166 C168 1.557 1_554 S
C166 C169 1.529 . S
C167 H151 0.959 1_556 S
C167 H152 0.959 . S
C167 H153 0.961 . S
C167 C166 1.501 1_556 S
C168 H154 0.960 . S
C168 H155 0.961 . S
C168 H156 0.959 . S
C168 C166 1.557 1_556 S
C169 C166 1.529 . S
C169 C170 1.396 . S
C169 C174 1.390 . S
C170 C164 1.465 . S
C170 C169 1.396 . S
C170 C171 1.399 . S
C171 H157 0.929 . S
C171 C170 1.399 . S
C171 C172 1.385 . S
C172 H158 0.931 . S
C172 C171 1.385 . S
C172 C173 1.389 . S
C173 C172 1.389 . S
C173 C174 1.387 . S
C174 H159 0.930 . S
C174 C169 1.390 . S
C174 C173 1.387 . S
H175 C187 0.930 1_554 S
H176 C189 0.930 . S
H177 C190 0.930 . S
H178 C194 0.959 . S
H179 C194 0.959 1_554 S
H180 C194 0.961 1_554 S
H181 C195 0.960 . S
H182 C195 0.961 . S
H183 C195 0.959 . S
H184 C198 0.929 . S
H185 C199 0.931 . S
H186 C201 0.930 . S
C187 H175 0.930 1_556 S
C187 C188 1.399 . S
C187 C192 1.399 . S
C188 C187 1.399 . S
C188 C189 1.376 . S
C189 H176 0.930 . S
C189 C188 1.376 . S
C189 C190 1.388 . S
C190 H177 0.930 . S
C190 C189 1.388 . S
C190 C191 1.390 . S
C191 C190 1.390 . S
C191 C192 1.394 . S
C191 C197 1.465 . S
C192 C187 1.399 . S
C192 C191 1.394 . S
C192 C193 1.516 . S
C193 C192 1.516 . S
C193 C194 1.502 . S
C193 C195 1.561 1_556 S
C193 C196 1.526 . S
C194 H178 0.959 . S
C194 H179 0.959 1_556 S
C194 H180 0.961 1_556 S
C194 C193 1.502 . S
C195 H181 0.960 . S
C195 H182 0.961 . S
C195 H183 0.959 . S
C195 C193 1.561 1_554 S
C196 C193 1.526 . S
C196 C197 1.396 . S
C196 C201 1.390 . S
C197 C191 1.465 . S
C197 C196 1.396 . S
C197 C198 1.399 . S
C198 H184 0.929 . S
C198 C197 1.399 . S
C198 C199 1.385 . S
C199 H185 0.931 . S
C199 C198 1.385 . S
C199 C200 1.389 . S
C200 C199 1.389 . S
C200 C201 1.387 . S
C201 H186 0.930 . S
C201 C196 1.390 . S
C201 C200 1.387 . S
H202 C214 0.930 . S
H203 C216 0.930 . S
H204 C217 0.930 . S
H205 C221 0.959 . S
H206 C221 0.959 . S
H207 C221 0.961 . S
H208 C222 0.960 . S
H209 C222 0.961 . S
H210 C222 0.959 . S
H211 C225 0.929 . S
H212 C226 0.931 . S
H213 C228 0.930 . S
C214 H202 0.930 . S
C214 C215 1.399 . S
C214 C219 1.399 . S
C215 C214 1.399 . S
C215 C216 1.376 . S
C216 H203 0.930 . S
C216 C215 1.376 . S
C216 C217 1.388 . S
C217 H204 0.930 . S
C217 C216 1.388 . S
C217 C218 1.390 . S
C218 C217 1.390 . S
C218 C219 1.394 . S
C218 C224 1.465 . S
C219 C214 1.399 . S
C219 C218 1.394 . S
C219 C220 1.516 . S
C220 C219 1.516 . S
C220 C221 1.502 . S
C220 C222 1.561 . S
C220 C223 1.526 . S
C221 H205 0.959 . S
C221 H206 0.959 . S
C221 H207 0.961 . S
C221 C220 1.502 . S
C222 H208 0.960 . S
C222 H209 0.961 . S
C222 H210 0.959 . S
C222 C220 1.561 . S
C223 C220 1.526 . S
C223 C224 1.396 . S
C223 C228 1.390 . S
C224 C218 1.465 . S
C224 C223 1.396 . S
C224 C225 1.399 . S
C225 H211 0.929 . S
C225 C224 1.399 . S
C225 C226 1.385 . S
C226 H212 0.931 . S
C226 C225 1.385 . S
C226 C227 1.389 . S
C227 C226 1.389 . S
C227 C228 1.387 . S
C228 H213 0.930 . S
C228 C223 1.390 . S
C228 C227 1.387 . S
H229 C241 0.930 . S
H230 C243 0.930 . S
H231 C244 0.930 . S
H232 C248 0.959 . S
H233 C248 0.959 . S
H234 C248 0.961 . S
H235 C249 0.960 . S
H236 C249 0.961 . S
H237 C249 0.959 . S
H238 C252 0.929 . S
H239 C253 0.931 . S
H240 C255 0.930 . S
C241 H229 0.930 . S
C241 C242 1.399 . S
C241 C246 1.399 . S
C242 C241 1.399 . S
C242 C243 1.376 . S
C243 H230 0.930 . S
C243 C242 1.376 . S
C243 C244 1.388 . S
C244 H231 0.930 . S
C244 C243 1.388 . S
C244 C245 1.390 . S
C245 C244 1.390 . S
C245 C246 1.394 . S
C245 C251 1.465 . S
C246 C241 1.399 . S
C246 C245 1.394 . S
C246 C247 1.516 . S
C247 C246 1.516 . S
C247 C248 1.502 . S
C247 C249 1.561 . S
C247 C250 1.526 . S
C248 H232 0.959 . S
C248 H233 0.959 . S
C248 H234 0.961 . S
C248 C247 1.502 . S
C249 H235 0.960 . S
C249 H236 0.961 . S
C249 H237 0.959 . S
C249 C247 1.561 . S
C250 C247 1.526 . S
C250 C251 1.396 . S
C250 C255 1.390 . S
C251 C245 1.465 . S
C251 C250 1.396 . S
C251 C252 1.399 . S
C252 H238 0.929 . S
C252 C251 1.399 . S
C252 C253 1.385 . S
C253 H239 0.931 . S
C253 C252 1.385 . S
C253 C254 1.389 . S
C254 C253 1.389 . S
C254 C255 1.387 . S
C255 H240 0.930 . S
C255 C250 1.390 . S
C255 C254 1.387 . S
H256 C268 0.930 . S
H257 C270 0.930 . S
H258 C271 0.930 . S
H259 C275 0.959 . S
H260 C275 0.959 . S
H261 C275 0.961 . S
H262 C276 0.960 . S
H263 C276 0.961 . S
H264 C276 0.959 . S
H265 C279 0.929 . S
H266 C280 0.931 . S
H267 C282 0.930 . S
C268 H256 0.930 . S
C268 C269 1.399 . S
C268 C273 1.399 . S
C269 C268 1.399 . S
C269 C270 1.376 . S
C270 H257 0.930 . S
C270 C269 1.376 . S
C270 C271 1.388 . S
C271 H258 0.930 . S
C271 C270 1.388 . S
C271 C272 1.390 . S
C272 C271 1.390 . S
C272 C273 1.394 . S
C272 C278 1.465 . S
C273 C268 1.399 . S
C273 C272 1.394 . S
C273 C274 1.516 . S
C274 C273 1.516 . S
C274 C275 1.502 . S
C274 C276 1.561 . S
C274 C277 1.526 . S
C275 H259 0.959 . S
C275 H260 0.959 . S
C275 H261 0.961 . S
C275 C274 1.502 . S
C276 H262 0.960 . S
C276 H263 0.961 . S
C276 H264 0.959 . S
C276 C274 1.561 . S
C277 C274 1.526 . S
C277 C278 1.396 . S
C277 C282 1.390 . S
C278 C272 1.465 . S
C278 C277 1.396 . S
C278 C279 1.399 . S
C279 H265 0.929 . S
C279 C278 1.399 . S
C279 C280 1.385 . S
C280 H266 0.931 . S
C280 C279 1.385 . S
C280 C281 1.389 . S
C281 C280 1.389 . S
C281 C282 1.387 . S
C282 H267 0.930 . S
C282 C277 1.390 . S
C282 C281 1.387 . S
H283 C295 0.930 . S
H284 C297 0.930 . S
H285 C298 0.930 . S
H286 C302 0.959 . S
H287 C302 0.959 . S
H288 C302 0.961 . S
H289 C303 0.960 . S
H290 C303 0.961 . S
H291 C303 0.959 . S
H292 C306 0.929 . S
H293 C307 0.931 . S
H294 C309 0.930 . S
C295 H283 0.930 . S
C295 C296 1.399 . S
C295 C300 1.399 . S
C296 C295 1.399 . S
C296 C297 1.376 . S
C297 H284 0.930 . S
C297 C296 1.376 . S
C297 C298 1.388 . S
C298 H285 0.930 . S
C298 C297 1.388 . S
C298 C299 1.390 . S
C299 C298 1.390 . S
C299 C300 1.394 . S
C299 C305 1.465 . S
C300 C295 1.399 . S
C300 C299 1.394 . S
C300 C301 1.516 . S
C301 C300 1.516 . S
C301 C302 1.502 . S
C301 C303 1.561 . S
C301 C304 1.526 . S
C302 H286 0.959 . S
C302 H287 0.959 . S
C302 H288 0.961 . S
C302 C301 1.502 . S
C303 H289 0.960 . S
C303 H290 0.961 . S
C303 H291 0.959 . S
C303 C301 1.561 . S
C304 C301 1.526 . S
C304 C305 1.396 . S
C304 C309 1.390 . S
C305 C299 1.465 . S
C305 C304 1.396 . S
C305 C306 1.399 . S
C306 H292 0.929 . S
C306 C305 1.399 . S
C306 C307 1.385 . S
C307 H293 0.931 . S
C307 C306 1.385 . S
C307 C308 1.389 . S
C308 C307 1.389 . S
C308 C309 1.387 . S
C309 H294 0.930 . S
C309 C304 1.390 . S
C309 C308 1.387 . S
H310 C322 0.930 1_655 S
H311 C324 0.930 . S
H312 C325 0.930 . S
H313 C329 0.959 . S
H314 C329 0.959 . S
H315 C329 0.961 . S
H316 C330 0.960 . S
H317 C330 0.961 . S
H318 C330 0.959 . S
H319 C333 0.929 . S
H320 C334 0.931 . S
H321 C336 0.930 1_655 S
C322 H310 0.930 1_455 S
C322 C323 1.399 1_565 S
C322 C327 1.399 . S
C323 C322 1.399 1_545 S
C323 C324 1.376 . S
C324 H311 0.930 . S
C324 C323 1.376 . S
C324 C325 1.388 . S
C325 H312 0.930 . S
C325 C324 1.388 . S
C325 C326 1.390 . S
C326 C325 1.390 . S
C326 C327 1.394 1_545 S
C326 C332 1.465 . S
C327 C322 1.399 . S
C327 C326 1.394 1_565 S
C327 C328 1.516 1_455 S
C328 C327 1.516 1_655 S
C328 C329 1.502 . S
C328 C330 1.561 1_655 S
C328 C331 1.526 1_655 S
C329 H313 0.959 . S
C329 H314 0.959 . S
C329 H315 0.961 . S
C329 C328 1.502 . S
C330 H316 0.960 . S
C330 H317 0.961 . S
C330 H318 0.959 . S
C330 C328 1.561 1_455 S
C331 C328 1.526 1_455 S
C331 C332 1.396 1_565 S
C331 C336 1.390 . S
C332 C326 1.465 . S
C332 C331 1.396 1_545 S
C332 C333 1.399 . S
C333 H319 0.929 . S
C333 C332 1.399 . S
C333 C334 1.385 . S
C334 H320 0.931 . S
C334 C333 1.385 . S
C334 C335 1.389 . S
C335 C334 1.389 . S
C335 C336 1.387 1_545 S
C336 H321 0.930 1_455 S
C336 C331 1.390 . S
C336 C335 1.387 1_565 S
H337 C349 0.930 . S
H338 C351 0.930 . S
H339 C352 0.930 . S
H340 C356 0.959 . S
H341 C356 0.959 . S
H342 C356 0.961 . S
H343 C357 0.960 . S
H344 C357 0.961 . S
H345 C357 0.959 . S
H346 C360 0.929 . S
H347 C361 0.931 . S
H348 C363 0.930 . S
C349 H337 0.930 . S
C349 C350 1.399 1_655 S
C349 C354 1.399 . S
C350 C349 1.399 1_455 S
C350 C351 1.376 1_545 S
C351 H338 0.930 . S
C351 C350 1.376 1_565 S
C351 C352 1.388 . S
C352 H339 0.930 . S
C352 C351 1.388 . S
C352 C353 1.390 . S
C353 C352 1.390 . S
C353 C354 1.394 1_465 S
C353 C359 1.465 . S
C354 C349 1.399 . S
C354 C353 1.394 1_645 S
C354 C355 1.516 . S
C355 C354 1.516 . S
C355 C356 1.502 . S
C355 C357 1.561 1_655 S
C355 C358 1.526 . S
C356 H340 0.959 . S
C356 H341 0.959 . S
C356 H342 0.961 . S
C356 C355 1.502 . S
C357 H343 0.960 . S
C357 H344 0.961 . S
C357 H345 0.959 . S
C357 C355 1.561 1_455 S
C358 C355 1.526 . S
C358 C359 1.396 1_645 S
C358 C363 1.390 . S
C359 C353 1.465 . S
C359 C358 1.396 1_465 S
C359 C360 1.399 . S
C360 H346 0.929 . S
C360 C359 1.399 . S
C360 C361 1.385 . S
C361 H347 0.931 . S
C361 C360 1.385 . S
C361 C362 1.389 1_565 S
C362 C361 1.389 1_545 S
C362 C363 1.387 1_455 S
C363 H348 0.930 . S
C363 C358 1.390 . S
C363 C362 1.387 1_655 S
H364 C376 0.930 . S
H365 C378 0.930 . S
H366 C379 0.930 . S
H367 C383 0.959 . S
H368 C383 0.959 . S
H369 C383 0.961 . S
H370 C384 0.960 . S
H371 C384 0.961 . S
H372 C384 0.959 . S
H373 C387 0.929 . S
H374 C388 0.931 . S
H375 C390 0.930 . S
C376 H364 0.930 . S
C376 C377 1.399 . S
C376 C381 1.399 . S
C377 C376 1.399 . S
C377 C378 1.376 . S
C378 H365 0.930 . S
C378 C377 1.376 . S
C378 C379 1.388 . S
C379 H366 0.930 . S
C379 C378 1.388 . S
C379 C380 1.390 . S
C380 C379 1.390 . S
C380 C381 1.394 . S
C380 C386 1.465 . S
C381 C376 1.399 . S
C381 C380 1.394 . S
C381 C382 1.516 . S
C382 C381 1.516 . S
C382 C383 1.502 . S
C382 C384 1.561 . S
C382 C385 1.526 . S
C383 H367 0.959 . S
C383 H368 0.959 . S
C383 H369 0.961 . S
C383 C382 1.502 . S
C384 H370 0.960 . S
C384 H371 0.961 . S
C384 H372 0.959 . S
C384 C382 1.561 . S
C385 C382 1.526 . S
C385 C386 1.396 . S
C385 C390 1.390 . S
C386 C380 1.465 . S
C386 C385 1.396 . S
C386 C387 1.399 . S
C387 H373 0.929 . S
C387 C386 1.399 . S
C387 C388 1.385 . S
C388 H374 0.931 . S
C388 C387 1.385 . S
C388 C389 1.389 . S
C389 C388 1.389 . S
C389 C390 1.387 . S
C390 H375 0.930 . S
C390 C385 1.390 . S
C390 C389 1.387 . S
H391 C403 0.930 . S
H392 C405 0.930 . S
H393 C406 0.930 . S
H394 C410 0.959 . S
H395 C410 0.959 . S
H396 C410 0.961 . S
H397 C411 0.960 . S
H398 C411 0.961 . S
H399 C411 0.959 . S
H400 C414 0.929 . S
H401 C415 0.931 . S
H402 C417 0.930 . S
C403 H391 0.930 . S
C403 C404 1.399 . S
C403 C408 1.399 . S
C404 C403 1.399 . S
C404 C405 1.376 . S
C405 H392 0.930 . S
C405 C404 1.376 . S
C405 C406 1.388 . S
C406 H393 0.930 . S
C406 C405 1.388 . S
C406 C407 1.390 . S
C407 C406 1.390 . S
C407 C408 1.394 . S
C407 C413 1.465 . S
C408 C403 1.399 . S
C408 C407 1.394 . S
C408 C409 1.516 . S
C409 C408 1.516 . S
C409 C410 1.502 . S
C409 C411 1.561 . S
C409 C412 1.526 . S
C410 H394 0.959 . S
C410 H395 0.959 . S
C410 H396 0.961 . S
C410 C409 1.502 . S
C411 H397 0.960 . S
C411 H398 0.961 . S
C411 H399 0.959 . S
C411 C409 1.561 . S
C412 C409 1.526 . S
C412 C413 1.396 . S
C412 C417 1.390 . S
C413 C407 1.465 . S
C413 C412 1.396 . S
C413 C414 1.399 . S
C414 H400 0.929 . S
C414 C413 1.399 . S
C414 C415 1.385 . S
C415 H401 0.931 . S
C415 C414 1.385 . S
C415 C416 1.389 . S
C416 C415 1.389 . S
C416 C417 1.387 . S
C417 H402 0.930 . S
C417 C412 1.390 . S
C417 C416 1.387 . S
C119 C88 1.499 . S
C107 C21 1.532 . S
C134 C19 1.404 . S
C146 C74 1.356 . S
C161 C18 1.397 . S
C173 C86 1.339 . S
C188 C20 1.491 . S
C200 C76 1.492 . S
C215 C44 1.494 . S
C227 C64 1.528 . S
C242 C42 1.405 . S
C254 C50 1.354 . S
C281 C62 1.393 . S
C269 C41 1.358 . S
C308 C52 1.489 . S
C296 C43 1.495 . S
C323 C16 1.527 . S
C335 C55 1.527 . S
C350 C17 1.486 1_455 S
C362 C67 1.478 1_455 S
C389 C79 1.515 . S
C377 C39 1.520 . S
C404 C40 1.486 . S
C416 C91 1.476 . S
