# Generated by pormake.
# Topology nom, (4,4)-cn, num edge types: 1
# Building blocks:
#     Node 0, Type 0, BuildingBlock: NAWXER_clean_linker_0, # of connection points: 4
#     Node 1, Type 0, BuildingBlock: NAWXER_clean_linker_0, # of connection points: 4
#     Node 2, Type 0, BuildingBlock: NAWXER_clean_linker_0, # of connection points: 4
#     Node 3, Type 0, BuildingBlock: NAWXER_clean_linker_0, # of connection points: 4
#     Node 4, Type 0, BuildingBlock: NAWXER_clean_linker_0, # of connection points: 4
#     Node 5, Type 0, BuildingBlock: NAWXER_clean_linker_0, # of connection points: 4
#     Node 6, Type 1, BuildingBlock: QUQFOY_clean_sbu_3, # of connection points: 4
#     Node 7, Type 1, BuildingBlock: QUQFOY_clean_sbu_3, # of connection points: 4
#     Node 8, Type 1, BuildingBlock: QUQFOY_clean_sbu_3, # of connection points: 4
#     Node 9, Type 1, BuildingBlock: QUQFOY_clean_sbu_3, # of connection points: 4
#     Node 10, Type 1, BuildingBlock: QUQFOY_clean_sbu_3, # of connection points: 4
#     Node 11, Type 1, BuildingBlock: QUQFOY_clean_sbu_3, # of connection points: 4
#     Edge 12, Type (0, 1), BuildingBlock: XIVTED_clean_linker_0, # of connection points: 2
#     Edge 13, Type (0, 1), BuildingBlock: XIVTED_clean_linker_0, # of connection points: 2
#     Edge 14, Type (0, 1), BuildingBlock: XIVTED_clean_linker_0, # of connection points: 2
#     Edge 15, Type (0, 1), BuildingBlock: XIVTED_clean_linker_0, # of connection points: 2
#     Edge 16, Type (0, 1), BuildingBlock: XIVTED_clean_linker_0, # of connection points: 2
#     Edge 17, Type (0, 1), BuildingBlock: XIVTED_clean_linker_0, # of connection points: 2
#     Edge 18, Type (0, 1), BuildingBlock: XIVTED_clean_linker_0, # of connection points: 2
#     Edge 19, Type (0, 1), BuildingBlock: XIVTED_clean_linker_0, # of connection points: 2
#     Edge 20, Type (0, 1), BuildingBlock: XIVTED_clean_linker_0, # of connection points: 2
#     Edge 21, Type (0, 1), BuildingBlock: XIVTED_clean_linker_0, # of connection points: 2
#     Edge 22, Type (0, 1), BuildingBlock: XIVTED_clean_linker_0, # of connection points: 2
#     Edge 23, Type (0, 1), BuildingBlock: XIVTED_clean_linker_0, # of connection points: 2
#     Edge 24, Type (0, 1), BuildingBlock: XIVTED_clean_linker_0, # of connection points: 2
#     Edge 25, Type (0, 1), BuildingBlock: XIVTED_clean_linker_0, # of connection points: 2
#     Edge 26, Type (0, 1), BuildingBlock: XIVTED_clean_linker_0, # of connection points: 2
#     Edge 27, Type (0, 1), BuildingBlock: XIVTED_clean_linker_0, # of connection points: 2
#     Edge 28, Type (0, 1), BuildingBlock: XIVTED_clean_linker_0, # of connection points: 2
#     Edge 29, Type (0, 1), BuildingBlock: XIVTED_clean_linker_0, # of connection points: 2
#     Edge 30, Type (0, 1), BuildingBlock: XIVTED_clean_linker_0, # of connection points: 2
#     Edge 31, Type (0, 1), BuildingBlock: XIVTED_clean_linker_0, # of connection points: 2
#     Edge 32, Type (0, 1), BuildingBlock: XIVTED_clean_linker_0, # of connection points: 2
#     Edge 33, Type (0, 1), BuildingBlock: XIVTED_clean_linker_0, # of connection points: 2
#     Edge 34, Type (0, 1), BuildingBlock: XIVTED_clean_linker_0, # of connection points: 2
#     Edge 35, Type (0, 1), BuildingBlock: XIVTED_clean_linker_0, # of connection points: 2
# Relax obj value: 0.007
# Max RMSD: 0.110
# Mean RMSD: 0.075
data_MOF--net-nom--node1-QUQFOY_clean_sbu_3--node2-NAWXER_clean_linker_0--edge1-XIVTED_clean_linker_0
_symmetry_space_group_name_H-M    P1
_symmetry_Int_Tables_number       1
_symmetry_cell_setting            triclinic
loop_
_symmetry_equiv_pos_as_xyz
'x, y, z'
_cell_length_a     52.72662
_cell_length_b     53.995965
_cell_length_c     58.539713
_cell_angle_alpha  89.844289
_cell_angle_beta   90.207218
_cell_angle_gamma 120.05827
loop_
_atom_site_label
_atom_site_type_symbol
_atom_site_fract_x
_atom_site_fract_y
_atom_site_fract_z
_atom_type_partial_charge
C0 C 0.8991 0.45921 0.32037 0.0
C1 C 0.88759 0.44112 0.33941 0.0
C2 C 0.92601 0.4654 0.31126 0.0
C3 C 0.94181 0.45327 0.32078 0.0
C4 C 0.90269 0.42794 0.34833 0.0
C5 C 0.92975 0.43418 0.33919 0.0
C6 C 0.97274 0.46456 0.31424 0.0
C7 C 0.92125 0.421 0.25083 0.0
C8 C 0.92624 0.43953 0.2323 0.0
C9 C 0.93927 0.43072 0.27021 0.0
C10 C 0.96239 0.45918 0.27141 0.0
C11 C 0.94931 0.46799 0.2337 0.0
C12 C 0.96725 0.47763 0.25295 0.0
C13 C 0.98236 0.47 0.29134 0.0
C14 C 0.11445 0.54623 0.30162 0.0
C15 C 0.11733 0.56831 0.2871 0.0
C16 C 0.0867 0.52315 0.30677 0.0
C17 C 0.06145 0.52205 0.2977 0.0
C18 C 0.09205 0.56633 0.27726 0.0
C19 C 0.06446 0.54348 0.2825 0.0
C20 C 0.03158 0.49955 0.30416 0.0
C21 C 0.07623 0.54737 0.36838 0.0
C22 C 0.08015 0.52991 0.38419 0.0
C23 C 0.05719 0.53524 0.34987 0.0
C24 C 0.042 0.50548 0.3467 0.0
C25 C 0.0643 0.50004 0.38125 0.0
C26 C 0.04525 0.48794 0.36272 0.0
C27 C 0.02221 0.49251 0.32701 0.0
H28 H 0.88782 0.46951 0.31307 0.0
H29 H 0.93518 0.48102 0.29764 0.0
H30 H 0.8944 0.4141 0.36314 0.0
H31 H 0.94181 0.42502 0.34707 0.0
H32 H 0.90381 0.39889 0.25017 0.0
H33 H 0.93543 0.41591 0.28405 0.0
H34 H 0.95338 0.48301 0.21997 0.0
H35 H 0.98482 0.49971 0.25349 0.0
H36 H 0.13354 0.5471 0.3094 0.0
H37 H 0.08496 0.5065 0.31811 0.0
H38 H 0.09353 0.58255 0.26553 0.0
H39 H 0.04534 0.54297 0.27509 0.0
H40 H 0.08821 0.57044 0.37011 0.0
H41 H 0.05448 0.5491 0.33792 0.0
H42 H 0.06644 0.48601 0.39337 0.0
H43 H 0.03333 0.46489 0.36071 0.0
N44 N -0.00686 0.47544 0.33119 0.0
N45 N 0.01132 0.48767 0.28726 0.0
C46 C 0.43304 0.89993 0.48651 0.0
C47 C 0.44298 0.88741 0.50267 0.0
C48 C 0.4513 0.92801 0.47923 0.0
C49 C 0.4799 0.94408 0.4879 0.0
C50 C 0.47182 0.9033 0.51098 0.0
C51 C 0.49003 0.93153 0.50383 0.0
C52 C 0.49794 0.97475 0.48227 0.0
C53 C 0.49195 0.92826 0.41684 0.0
C54 C 0.47651 0.93303 0.39934 0.0
C55 C 0.50023 0.94493 0.43667 0.0
C56 C 0.49316 0.9666 0.43933 0.0
C57 C 0.46933 0.95464 0.40225 0.0
C58 C 0.47778 0.97138 0.42193 0.0
C59 C 0.50263 0.98528 0.45966 0.0
C60 C 0.56735 0.10675 0.44803 0.0
C61 C 0.5527 0.12023 0.4571 0.0
C62 C 0.55813 0.07827 0.45348 0.0
C63 C 0.5346 0.06312 0.46847 0.0
C64 C 0.52886 0.10483 0.47184 0.0
C65 C 0.5199 0.07651 0.47749 0.0
C66 C 0.52447 0.0329 0.47385 0.0
C67 C 0.52017 0.05366 0.55389 0.0
C68 C 0.54772 0.0788 0.5544 0.0
C69 C 0.51189 0.03519 0.53519 0.0
C70 C 0.53088 0.04157 0.51658 0.0
C71 C 0.56702 0.08471 0.53599 0.0
C72 C 0.55877 0.06616 0.51737 0.0
C73 C 0.52128 0.02252 0.49642 0.0
H74 H 0.41096 0.8881 0.47973 0.0
H75 H 0.44272 0.93746 0.46738 0.0
H76 H 0.47992 0.89424 0.52361 0.0
H77 H 0.51189 0.94373 0.51096 0.0
H78 H 0.49817 0.91205 0.41503 0.0
H79 H 0.51263 0.94126 0.4497 0.0
H80 H 0.45693 0.95854 0.38938 0.0
H81 H 0.47204 0.98795 0.42366 0.0
H82 H 0.58563 0.11811 0.43647 0.0
H83 H 0.56949 0.06813 0.44617 0.0
H84 H 0.51732 0.11478 0.47916 0.0
H85 H 0.50133 0.06497 0.48877 0.0
H86 H 0.50502 0.0482 0.56798 0.0
H87 H 0.49038 0.01617 0.53506 0.0
H88 H 0.58833 0.10394 0.53576 0.0
H89 H 0.57413 0.07117 0.5035 0.0
N90 N 0.50777 0.99379 0.49981 0.0
N91 N 0.51543 0.01396 0.45632 0.0
C92 C 0.57002 0.49828 0.60871 0.0
C93 C 0.5501 0.4796 0.59229 0.0
C94 C 0.5601 0.50693 0.62747 0.0
C95 C 0.53011 0.49714 0.63012 0.0
C96 C 0.52013 0.47042 0.59479 0.0
C97 C 0.51029 0.47935 0.61341 0.0
C98 C 0.51919 0.505 0.65044 0.0
C99 C 0.54478 0.44231 0.67322 0.0
C100 C 0.56673 0.45166 0.68995 0.0
C101 C 0.53179 0.45856 0.6679 0.0
C102 C 0.54127 0.4851 0.67853 0.0
C103 C 0.57549 0.47756 0.70137 0.0
C104 C 0.56289 0.49426 0.69562 0.0
C105 C 0.52688 0.50196 0.67299 0.0
C106 C 0.45017 0.52566 0.73244 0.0
C107 C 0.47066 0.54703 0.74702 0.0
C108 C 0.45945 0.51791 0.7128 0.0
C109 C 0.48935 0.53146 0.7074 0.0
C110 C 0.5006 0.56051 0.74155 0.0
C111 C 0.50987 0.5526 0.72199 0.0
C112 C 0.49955 0.52284 0.68715 0.0
C113 C 0.44761 0.5634 0.66119 0.0
C114 C 0.42349 0.5444 0.64773 0.0
C115 C 0.46942 0.55689 0.66696 0.0
C116 C 0.46731 0.53125 0.65939 0.0
C117 C 0.42174 0.51897 0.64005 0.0
C118 C 0.44344 0.51254 0.64576 0.0
C119 C 0.48991 0.5236 0.66476 0.0
H120 H 0.59331 0.50632 0.60708 0.0
H121 H 0.57582 0.52115 0.63997 0.0
H122 H 0.50409 0.45574 0.5827 0.0
H123 H 0.48705 0.47159 0.61516 0.0
H124 H 0.53716 0.42202 0.66464 0.0
H125 H 0.51396 0.45002 0.65568 0.0
H126 H 0.59222 0.48496 0.71452 0.0
H127 H 0.57005 0.5143 0.70446 0.0
H128 H 0.42695 0.51501 0.7362 0.0
H129 H 0.44332 0.50115 0.70195 0.0
H130 H 0.51689 0.57676 0.75265 0.0
H131 H 0.53307 0.56303 0.71819 0.0
H132 H 0.44954 0.58318 0.66733 0.0
H133 H 0.48797 0.57194 0.67711 0.0
H134 H 0.40381 0.50419 0.62925 0.0
H135 H 0.4415 0.49275 0.63958 0.0
N136 N 0.50044 0.515 0.64723 0.0
N137 N 0.51741 0.51174 0.69048 0.0
C138 C 0.91099 0.43724 0.80311 0.0
C139 C 0.8958 0.44364 0.78657 0.0
C140 C 0.93787 0.45852 0.81141 0.0
C141 C 0.95003 0.48685 0.80368 0.0
C142 C 0.90781 0.47203 0.77886 0.0
C143 C 0.93493 0.49346 0.78721 0.0
C144 C 0.97977 0.50844 0.81127 0.0
C145 C 0.9227 0.49123 0.87215 0.0
C146 C 0.92517 0.47316 0.8883 0.0
C147 C 0.94323 0.50373 0.85466 0.0
C148 C 0.96682 0.49874 0.85314 0.0
C149 C 0.94902 0.46838 0.8867 0.0
C150 C 0.96982 0.48134 0.86945 0.0
C151 C 0.98822 0.51132 0.83439 0.0
C152 C 0.12117 0.57962 0.83137 0.0
C153 C 0.12563 0.56024 0.84452 0.0
C154 C 0.09282 0.57266 0.82462 0.0
C155 C 0.06869 0.54615 0.8308 0.0
C156 C 0.10124 0.53429 0.85131 0.0
C157 C 0.07318 0.52736 0.84452 0.0
C158 C 0.03842 0.53689 0.82343 0.0
C159 C 0.0899 0.55057 0.75798 0.0
C160 C 0.08606 0.56774 0.74186 0.0
C161 C 0.07204 0.5406 0.7773 0.0
C162 C 0.0507 0.54843 0.78117 0.0
C163 C 0.06462 0.5754 0.74567 0.0
C164 C 0.04713 0.56585 0.76517 0.0
C165 C 0.02992 0.53634 0.80039 0.0
H166 H 0.90219 0.41564 0.80953 0.0
H167 H 0.94954 0.45259 0.82347 0.0
H168 H 0.89665 0.47748 0.76594 0.0
H169 H 0.94422 0.51508 0.78071 0.0
H170 H 0.9051 0.496 0.8731 0.0
H171 H 0.9408 0.51747 0.84239 0.0
H172 H 0.95144 0.45424 0.89851 0.0
H173 H 0.98784 0.47713 0.86847 0.0
H174 H 0.13957 0.59985 0.82599 0.0
H175 H 0.08979 0.58777 0.81446 0.0
H176 H 0.10377 0.51925 0.86197 0.0
H177 H 0.05491 0.5069 0.84971 0.0
H178 H 0.10591 0.54392 0.75516 0.0
H179 H 0.07441 0.52619 0.78885 0.0
H180 H 0.06122 0.58857 0.73344 0.0
H181 H 0.03046 0.57173 0.76761 0.0
N182 N 0.00085 0.52177 0.79518 0.0
N183 N 0.01716 0.52479 0.83955 0.0
C184 C 0.47473 0.91308 0.95793 0.0
C185 C 0.451 0.89819 0.94292 0.0
C186 C 0.48146 0.93982 0.96632 0.0
C187 C 0.46455 0.95214 0.95992 0.0
C188 C 0.43443 0.91082 0.93614 0.0
C189 C 0.44139 0.93779 0.9444 0.0
C190 C 0.47182 0.98036 0.96905 0.0
C191 C 0.43169 0.91787 0.02655 0.0
C192 C 0.45036 0.92271 0.0453 0.0
C193 C 0.43964 0.93846 0.0094 0.0
C194 C 0.46663 0.96413 0.01045 0.0
C195 C 0.47721 0.94857 0.04642 0.0
C196 C 0.48521 0.96907 0.02921 0.0
C197 C 0.47519 0.98643 0.99265 0.0
C198 C 0.5182 0.1134 -0.00318 0.0
C199 C 0.54223 0.12127 0.01155 0.0
C200 C 0.50247 0.08558 0.98809 0.0
C201 C 0.5107 0.06532 0.99385 0.0
C202 C 0.54979 0.1006 0.01765 0.0
C203 C 0.53408 0.07293 0.00902 0.0
C204 C 0.49545 0.03605 0.98445 0.0
C205 C 0.53891 0.09397 0.9236 0.0
C206 C 0.52016 0.08936 0.90499 0.0
C207 C 0.52928 0.07516 0.94218 0.0
C208 C 0.50046 0.05189 0.94275 0.0
C209 C 0.49127 0.06631 0.9057 0.0
C210 C 0.48153 0.04777 0.92441 0.0
C211 C 0.49085 0.02983 0.96084 0.0
H212 H 0.4877 0.90377 0.96362 0.0
H213 H 0.49984 0.95085 0.97792 0.0
H214 H 0.41615 0.89984 0.92445 0.0
H215 H 0.42837 0.9472 0.93905 0.0
H216 H 0.41092 0.89814 0.02509 0.0
H217 H 0.42449 0.93443 -0.00453 0.0
H218 H 0.49186 0.95324 0.06083 0.0
H219 H 0.506 0.98883 0.03054 0.0
H220 H 0.51157 0.12872 0.99205 0.0
H221 H 0.48406 0.07994 0.97679 0.0
H222 H 0.56846 0.10599 0.02858 0.0
H223 H 0.54077 0.0576 0.01371 0.0
H224 H 0.56146 0.11126 0.92326 0.0
H225 H 0.54476 0.07821 0.95559 0.0
H226 H 0.47639 0.06233 0.89157 0.0
H227 H 0.45934 0.02977 0.92433 0.0
N228 N 0.47927 0.00216 0.95407 0.0
N229 N 0.48726 0.01408 -0.00061 0.0
C230 C 0.4759 0.57738 0.19087 0.0
C231 C 0.44933 0.56584 0.2028 0.0
C232 C 0.486 0.55966 0.18284 0.0
C233 C 0.46974 0.53004 0.18656 0.0
C234 C 0.43302 0.53614 0.20662 0.0
C235 C 0.44339 0.51835 0.19877 0.0
C236 C 0.48147 0.51203 0.17835 0.0
C237 C 0.44309 0.53053 0.1164 0.0
C238 C 0.46447 0.55052 0.10146 0.0
C239 C 0.45099 0.5183 0.13411 0.0
C240 C 0.48035 0.52562 0.13708 0.0
C241 C 0.49393 0.55805 0.1048 0.0
C242 C 0.5017 0.54548 0.12226 0.0
C243 C 0.48896 0.51227 0.15525 0.0
C244 C 0.55685 0.44884 0.15646 0.0
C245 C 0.58019 0.46812 0.14254 0.0
C246 C 0.53564 0.45538 0.16377 0.0
C247 C 0.53765 0.48141 0.15745 0.0
C248 C 0.58159 0.49376 0.13581 0.0
C249 C 0.56056 0.50029 0.14316 0.0
C250 C 0.51624 0.4896 0.16525 0.0
C251 C 0.56188 0.48532 0.22904 0.0
C252 C 0.54315 0.46425 0.24461 0.0
C253 C 0.55041 0.49279 0.21049 0.0
C254 C 0.52001 0.47912 0.20701 0.0
C255 C 0.5127 0.45044 0.24099 0.0
C256 C 0.50122 0.45802 0.22243 0.0
C257 C 0.5078 0.48835 0.18831 0.0
H258 H 0.48873 0.60013 0.18745 0.0
H259 H 0.50667 0.56914 0.17379 0.0
H260 H 0.4125 0.5268 0.21585 0.0
H261 H 0.43077 0.49554 0.20198 0.0
H262 H 0.42015 0.5238 0.11415 0.0
H263 H 0.43411 0.50268 0.14519 0.0
H264 H 0.5111 0.57378 0.094 0.0
H265 H 0.52452 0.55155 0.12437 0.0
H266 H 0.55517 0.42889 0.16191 0.0
H267 H 0.51777 0.44015 0.17434 0.0
H268 H 0.59885 0.50876 0.12466 0.0
H269 H 0.56244 0.52041 0.13788 0.0
H270 H 0.58543 0.49621 0.23131 0.0
H271 H 0.56529 0.50963 0.19908 0.0
H272 H 0.49773 0.43441 0.25288 0.0
H273 H 0.47768 0.44754 0.22019 0.0
N274 N 0.49082 0.49976 0.19403 0.0
N275 N 0.50631 0.50136 0.14961 0.0
C276 C 0.71133 0.43001 0.41371 0.0
O277 O 0.7123 0.45236 0.42156 0.0
Cd278 Cd 0.66939 0.4526 0.43461 0.0
O279 O 0.6873 0.4063 0.41338 0.0
Cd280 Cd 0.63564 0.38564 0.42498 0.0
C281 C 0.62655 0.42677 0.38618 0.0
O282 O 0.64383 0.41283 0.46005 0.0
O283 O 0.59918 0.38944 0.44782 0.0
O284 O 0.64059 0.34599 0.43891 0.0
C285 C 0.61703 0.40482 0.46325 0.0
O286 O 0.64127 0.44742 0.3999 0.0
C287 C 0.61771 0.32656 0.42922 0.0
O288 O 0.6223 0.40182 0.3904 0.0
O289 O 0.60283 0.33456 0.41738 0.0
C290 C 0.27225 0.58204 0.57866 0.0
O291 O 0.24841 0.56055 0.57207 0.0
Cd292 Cd 0.20949 0.56381 0.55353 0.0
O293 O 0.27701 0.60734 0.57542 0.0
Cd294 Cd 0.25151 0.63095 0.5586 0.0
C295 C 0.19601 0.59838 0.59648 0.0
O296 O 0.23164 0.60036 0.52512 0.0
O297 O 0.21519 0.62911 0.53139 0.0
O298 O 0.2995 0.66781 0.54527 0.0
C299 C 0.21606 0.61079 0.51842 0.0
O300 O 0.18632 0.57624 0.58391 0.0
C301 C 0.29699 0.6887 0.55228 0.0
O302 O 0.22049 0.62069 0.59225 0.0
O303 O 0.27345 0.6827 0.56264 0.0
C304 C 0.70444 0.27767 0.73548 0.0
O305 O 0.70247 0.25403 0.73 0.0
Cd306 Cd 0.65737 0.21363 0.71707 0.0
O307 O 0.68211 0.28083 0.7344 0.0
Cd308 Cd 0.62998 0.25439 0.72376 0.0
C309 C 0.61283 0.20225 0.76319 0.0
O310 O 0.63721 0.2326 0.69024 0.0
O311 O 0.59209 0.21811 0.69849 0.0
O312 O 0.63793 0.29902 0.7075 0.0
C313 C 0.61041 0.21718 0.68505 0.0
O314 O 0.62572 0.19309 0.75027 0.0
C315 C 0.61848 0.30042 0.71919 0.0
O316 O 0.6128 0.22528 0.7585 0.0
O317 O 0.60386 0.28005 0.73307 0.0
C318 C 0.31264 0.58859 0.91242 0.0
O319 O 0.31274 0.56761 0.92217 0.0
Cd320 Cd 0.35648 0.5714 0.93826 0.0
O321 O 0.33585 0.61295 0.91158 0.0
Cd322 Cd 0.38735 0.6375 0.92413 0.0
C323 C 0.39927 0.59412 0.88989 0.0
O324 O 0.37944 0.61404 0.96107 0.0
O325 O 0.42444 0.63921 0.95013 0.0
O326 O 0.37816 0.67602 0.93282 0.0
C327 C 0.4064 0.62415 0.96555 0.0
O328 O 0.38534 0.57461 0.90468 0.0
C329 C 0.40064 0.69544 0.92274 0.0
O330 O 0.4022 0.61888 0.89214 0.0
O331 O 0.41748 0.68802 0.9133 0.0
C332 C 0.72946 0.42776 0.07402 0.0
O333 O 0.75315 0.44846 0.0664 0.0
Cd334 Cd 0.7904 0.44142 0.04917 0.0
O335 O 0.7243 0.40218 0.07222 0.0
Cd336 Cd 0.74656 0.37525 0.05692 0.0
C337 C 0.80312 0.4071 0.09359 0.0
O338 O 0.76773 0.40294 0.02236 0.0
O339 O 0.78293 0.37393 0.03211 0.0
O340 O 0.69929 0.34182 0.04081 0.0
C341 C 0.78286 0.39136 0.01758 0.0
O342 O 0.81249 0.42871 0.08039 0.0
C343 C 0.69683 0.31987 0.05083 0.0
O344 O 0.77818 0.38491 0.09028 0.0
O345 O 0.71771 0.32359 0.06397 0.0
C346 C 0.3061 0.73684 0.23594 0.0
O347 O 0.30658 0.75908 0.22821 0.0
Cd348 Cd 0.35003 0.79822 0.21162 0.0
O349 O 0.32886 0.73442 0.23502 0.0
Cd350 Cd 0.37989 0.75993 0.22202 0.0
C351 C 0.39671 0.81565 0.25744 0.0
O352 O 0.3696 0.77683 0.18665 0.0
O353 O 0.41531 0.79247 0.19394 0.0
O354 O 0.37009 0.71222 0.21252 0.0
C355 C 0.39608 0.7916 0.18037 0.0
O356 O 0.38276 0.82288 0.2437 0.0
C357 C 0.39263 0.7146 0.22246 0.0
O358 O 0.39756 0.79275 0.25438 0.0
O359 O 0.40964 0.7384 0.23203 0.0
H360 H 0.16934 0.56979 0.27887 0.0
H361 H 0.25398 0.73511 0.24399 0.0
H362 H 0.13156 0.62438 0.28414 0.0
H363 H 0.29607 0.68429 0.24973 0.0
H364 H 0.20878 0.69466 0.25858 0.0
H365 H 0.21619 0.61154 0.26847 0.0
C366 C 0.17096 0.59058 0.27806 0.0
C367 C 0.14641 0.59353 0.28214 0.0
C368 C 0.22797 0.69243 0.25675 0.0
C369 C 0.19978 0.64129 0.26996 0.0
C370 C 0.25376 0.7155 0.24837 0.0
C371 C 0.27883 0.71307 0.24554 0.0
C372 C 0.22718 0.66668 0.26217 0.0
C373 C 0.27728 0.68715 0.25159 0.0
C374 C 0.19766 0.61438 0.27201 0.0
C375 C 0.14973 0.62098 0.28064 0.0
N376 N 0.25185 0.66492 0.2595 0.0
N377 N 0.17585 0.64374 0.27453 0.0
H378 H 0.51865 0.14264 0.44369 0.0
H379 H 0.64929 0.30432 0.44826 0.0
H380 H 0.60836 0.1661 0.45745 0.0
H381 H 0.56594 0.27951 0.41644 0.0
H382 H 0.63389 0.25389 0.45371 0.0
H383 H 0.53469 0.19287 0.43555 0.0
C384 C 0.54173 0.15842 0.44499 0.0
C385 C 0.56224 0.15032 0.4513 0.0
C386 C 0.61902 0.25946 0.44543 0.0
C387 C 0.5807 0.20765 0.44209 0.0
C388 C 0.62775 0.28824 0.44237 0.0
C389 C 0.60882 0.29609 0.43193 0.0
C390 C 0.59102 0.23835 0.43822 0.0
C391 C 0.58121 0.27437 0.42457 0.0
C392 C 0.55088 0.187 0.44023 0.0
C393 C 0.5919 0.17148 0.45249 0.0
N394 N 0.57305 0.24644 0.42799 0.0
N395 N 0.60024 0.19923 0.4481 0.0
H396 H 0.36424 0.5081 0.6466 0.0
H397 H 0.32807 0.62252 0.59118 0.0
H398 H 0.43023 0.59583 0.63339 0.0
H399 H 0.26715 0.53155 0.59325 0.0
H400 H 0.36452 0.61451 0.61055 0.0
H401 H 0.32702 0.5179 0.63143 0.0
C402 C 0.37089 0.52947 0.64055 0.0
C403 C 0.40045 0.55109 0.64098 0.0
C404 C 0.34315 0.59634 0.60678 0.0
C405 C 0.35788 0.56251 0.62369 0.0
C406 C 0.32232 0.60087 0.59573 0.0
C407 C 0.29453 0.57764 0.59046 0.0
C408 C 0.33608 0.56841 0.61275 0.0
C409 C 0.28832 0.55008 0.59682 0.0
C410 C 0.34961 0.53506 0.63193 0.0
C411 C 0.40769 0.57856 0.63343 0.0
N412 N 0.30893 0.54625 0.60761 0.0
N413 N 0.38656 0.58344 0.62492 0.0
H414 H 0.84464 0.44392 0.77847 0.0
H415 H 0.75712 0.27946 0.73996 0.0
H416 H 0.8836 0.39039 0.77329 0.0
H417 H 0.71682 0.33172 0.74695 0.0
H418 H 0.80406 0.32049 0.751 0.0
H419 H 0.79802 0.40381 0.76515 0.0
C420 C 0.84342 0.42381 0.77434 0.0
C421 C 0.8679 0.42036 0.77718 0.0
C422 C 0.78495 0.32298 0.75012 0.0
C423 C 0.81476 0.37442 0.76218 0.0
C424 C 0.75811 0.29953 0.74384 0.0
C425 C 0.73296 0.30211 0.74256 0.0
C426 C 0.78669 0.34923 0.75514 0.0
C427 C 0.73561 0.3287 0.74776 0.0
C428 C 0.81681 0.40088 0.76689 0.0
C429 C 0.86511 0.3938 0.77174 0.0
N430 N 0.76199 0.35122 0.75382 0.0
N431 N 0.83902 0.37185 0.76458 0.0
H432 H 0.48731 0.87948 0.92724 0.0
H433 H 0.36446 0.71522 0.93586 0.0
H434 H 0.39653 0.8506 0.94178 0.0
H435 H 0.45081 0.74352 0.90886 0.0
H436 H 0.37561 0.7648 0.93712 0.0
H437 H 0.47431 0.83007 0.91916 0.0
C438 C 0.4646 0.86272 0.92855 0.0
C439 C 0.44298 0.86904 0.93535 0.0
C440 C 0.39208 0.7602 0.93075 0.0
C441 C 0.42797 0.81256 0.92626 0.0
C442 C 0.38577 0.73189 0.93012 0.0
C443 C 0.40685 0.72529 0.92241 0.0
C444 C 0.4198 0.78215 0.92387 0.0
C445 C 0.43398 0.74771 0.915 0.0
C446 C 0.45718 0.83457 0.92387 0.0
C447 C 0.41385 0.84664 0.9365 0.0
N448 N 0.43979 0.77521 0.91611 0.0
N449 N 0.40724 0.81934 0.93226 0.0
H450 H 0.63928 0.50484 0.1394 0.0
H451 H 0.67404 0.38835 0.08762 0.0
H452 H 0.57302 0.41676 0.12779 0.0
H453 H 0.735 0.47934 0.0859 0.0
H454 H 0.63809 0.39754 0.10598 0.0
H455 H 0.676 0.4949 0.12363 0.0
C456 C 0.63243 0.4834 0.1335 0.0
C457 C 0.60295 0.46166 0.13468 0.0
C458 C 0.65933 0.41548 0.10158 0.0
C459 C 0.64499 0.45008 0.11686 0.0
C460 C 0.67991 0.41028 0.09112 0.0
C461 C 0.70758 0.43314 0.08514 0.0
C462 C 0.66651 0.44373 0.10625 0.0
C463 C 0.71391 0.46108 0.09011 0.0
C464 C 0.65344 0.47773 0.12457 0.0
C465 C 0.5955 0.43411 0.12733 0.0
N466 N 0.69353 0.46558 0.1004 0.0
N467 N 0.61639 0.42913 0.11863 0.0
H468 H 0.45354 0.84298 0.50859 0.0
H469 H 0.29426 0.7373 0.55957 0.0
H470 H 0.3867 0.86599 0.51712 0.0
H471 H 0.35157 0.70808 0.53425 0.0
H472 H 0.33093 0.78623 0.54918 0.0
H473 H 0.41918 0.79482 0.52284 0.0
C474 C 0.43168 0.8379 0.51356 0.0
C475 C 0.42281 0.85834 0.51152 0.0
C476 C 0.33552 0.76912 0.54598 0.0
C477 C 0.3836 0.80359 0.52786 0.0
C478 C 0.31465 0.7412 0.55199 0.0
C479 C 0.31981 0.71858 0.54763 0.0
C480 C 0.36181 0.77448 0.53569 0.0
C481 C 0.34664 0.72489 0.53778 0.0
C482 C 0.41208 0.81045 0.5216 0.0
C483 C 0.39424 0.85069 0.51811 0.0
N484 N 0.36664 0.75226 0.53209 0.0
N485 N 0.37567 0.82394 0.526 0.0
H486 H 0.59332 0.43263 0.66101 0.0
H487 H 0.58547 0.31474 0.74633 0.0
H488 H 0.56814 0.42909 0.73144 0.0
H489 H 0.63962 0.34131 0.68597 0.0
H490 H 0.57652 0.35476 0.74076 0.0
H491 H 0.60874 0.39769 0.66933 0.0
C492 C 0.59143 0.42467 0.6783 0.0
C493 C 0.57954 0.43361 0.6956 0.0
C494 C 0.59052 0.35189 0.72886 0.0
C495 C 0.59648 0.39335 0.70517 0.0
C496 C 0.59549 0.329 0.73194 0.0
C497 C 0.61317 0.32464 0.71651 0.0
C498 C 0.60299 0.3702 0.71004 0.0
C499 C 0.62578 0.34385 0.69825 0.0
C500 C 0.6002 0.40479 0.68306 0.0
C501 C 0.57742 0.42275 0.71773 0.0
N502 N 0.62023 0.36563 0.69541 0.0
N503 N 0.58545 0.40283 0.72185 0.0
H504 H 0.17173 0.61115 0.85987 0.0
H505 H 0.26267 0.53838 0.90239 0.0
H506 H 0.14719 0.52364 0.84507 0.0
H507 H 0.3011 0.63009 0.89756 0.0
H508 H 0.21852 0.53255 0.88378 0.0
H509 H 0.21855 0.61899 0.87519 0.0
C510 C 0.17632 0.59372 0.85957 0.0
C511 C 0.15535 0.56658 0.8515 0.0
C512 C 0.23666 0.55396 0.88672 0.0
C513 C 0.2084 0.57523 0.86932 0.0
C514 C 0.2618 0.55729 0.89747 0.0
C515 C 0.28559 0.58474 0.90155 0.0
C516 C 0.23514 0.57825 0.88023 0.0
C517 C 0.28328 0.60851 0.89469 0.0
C518 C 0.20293 0.59815 0.86842 0.0
C519 C 0.16239 0.54471 0.85165 0.0
N520 N 0.25841 0.60472 0.88447 0.0
N521 N 0.18816 0.54943 0.86064 0.0
H522 H 0.56737 0.13978 0.0538 0.0
H523 H 0.65369 0.30502 0.019 0.0
H524 H 0.55902 0.17099 0.98781 0.0
H525 H 0.68146 0.26982 0.07345 0.0
H526 H 0.6125 0.25725 0.01119 0.0
H527 H 0.60274 0.18877 0.06502 0.0
C528 C 0.57285 0.15692 0.04169 0.0
C529 C 0.5605 0.15116 0.01968 0.0
C530 C 0.62754 0.26002 0.02491 0.0
C531 C 0.60063 0.20728 0.03258 0.0
C532 C 0.65102 0.28726 0.02941 0.0
C533 C 0.67114 0.29132 0.04679 0.0
C534 C 0.624 0.23672 0.03801 0.0
C535 C 0.66657 0.26758 0.05978 0.0
C536 C 0.59297 0.18486 0.04815 0.0
C537 C 0.56784 0.17436 0.00497 0.0
N538 N 0.64347 0.24123 0.0551 0.0
N539 N 0.58759 0.20139 0.01164 0.0
H540 H 0.48013 0.61636 0.22562 0.0
H541 H 0.35839 0.66056 0.20565 0.0
H542 H 0.39474 0.55925 0.19727 0.0
H543 H 0.44085 0.71442 0.23971 0.0
H544 H 0.36989 0.62204 0.20463 0.0
H545 H 0.46465 0.65117 0.23354 0.0
C546 C 0.458 0.61109 0.22127 0.0
C547 C 0.43875 0.58508 0.21058 0.0
C548 C 0.38538 0.64221 0.21246 0.0
C549 C 0.42091 0.62483 0.21941 0.0
C550 C 0.37888 0.66425 0.21299 0.0
C551 C 0.39883 0.69082 0.2226 0.0
C552 C 0.41211 0.64682 0.22149 0.0
C553 C 0.42493 0.69434 0.23201 0.0
C554 C 0.44914 0.63092 0.22581 0.0
C555 C 0.4102 0.57908 0.20557 0.0
N556 N 0.43091 0.67265 0.23106 0.0
N557 N 0.40223 0.59899 0.20977 0.0
H558 H 0.83957 0.39237 0.35553 0.0
H559 H 0.76481 0.47776 0.40662 0.0
H560 H 0.87663 0.4838 0.3503 0.0
H561 H 0.71879 0.38581 0.39932 0.0
H562 H 0.80804 0.48001 0.38955 0.0
H563 H 0.79686 0.38915 0.37505 0.0
C564 C 0.83869 0.41171 0.35852 0.0
C565 C 0.86144 0.43833 0.3511 0.0
C566 C 0.78849 0.45933 0.39171 0.0
C567 C 0.81304 0.4349 0.37342 0.0
C568 C 0.76382 0.45802 0.40152 0.0
C569 C 0.73807 0.43157 0.40431 0.0
C570 C 0.78753 0.43401 0.38471 0.0
C571 C 0.73811 0.40669 0.39739 0.0
C572 C 0.81435 0.40988 0.36956 0.0
C573 C 0.8593 0.46278 0.35536 0.0
N574 N 0.76247 0.40852 0.38788 0.0
N575 N 0.83556 0.46047 0.36625 0.0
H576 H 0.08826 0.57443 0.4116 0.0
H577 H 0.21087 0.56913 0.48915 0.0
H578 H 0.11904 0.51481 0.40105 0.0
H579 H 0.17872 0.62746 0.50091 0.0
H580 H 0.17853 0.55007 0.456 0.0
H581 H 0.12243 0.59529 0.44356 0.0
C582 C 0.10232 0.56583 0.41593 0.0
C583 C 0.10075 0.5428 0.40366 0.0
C584 C 0.17857 0.56708 0.4658 0.0
C585 C 0.13976 0.56642 0.44034 0.0
C586 C 0.19707 0.578 0.48471 0.0
C587 C 0.19741 0.59985 0.49785 0.0
C588 C 0.16027 0.57809 0.45995 0.0
C589 C 0.1791 0.61055 0.49129 0.0
C590 C 0.12173 0.57765 0.43425 0.0
C591 C 0.11922 0.53227 0.41023 0.0
N592 N 0.16121 0.59952 0.47282 0.0
N593 N 0.13795 0.54416 0.42811 0.0
H594 H 0.51354 0.09507 0.57799 0.0
H595 H 0.64511 0.20661 0.65706 0.0
H596 H 0.6014 0.10852 0.57533 0.0
H597 H 0.5548 0.18259 0.6685 0.0
H598 H 0.62971 0.17295 0.62534 0.0
H599 H 0.52835 0.12876 0.60981 0.0
C600 C 0.53588 0.10493 0.58419 0.0
C601 C 0.55625 0.09892 0.57394 0.0
C602 C 0.61323 0.175 0.63477 0.0
C603 C 0.57343 0.13785 0.61011 0.0
C604 C 0.62202 0.19429 0.65285 0.0
C605 C 0.60118 0.19736 0.66546 0.0
C606 C 0.58339 0.15872 0.62912 0.0
C607 C 0.57157 0.18083 0.65925 0.0
C608 C 0.54435 0.12428 0.60227 0.0
C609 C 0.58505 0.11278 0.58244 0.0
N610 N 0.56353 0.1622 0.64148 0.0
N611 N 0.59276 0.1316 0.59999 0.0
H612 H 0.48839 0.60058 0.76383 0.0
H613 H 0.39149 0.54212 0.87699 0.0
H614 H 0.43096 0.51099 0.77835 0.0
H615 H 0.434 0.63076 0.85615 0.0
H616 H 0.40952 0.53096 0.84251 0.0
H617 H 0.47223 0.61264 0.79915 0.0
C618 C 0.47244 0.58347 0.7745 0.0
C619 C 0.46092 0.55475 0.76816 0.0
C620 C 0.41493 0.55286 0.84548 0.0
C621 C 0.44238 0.56834 0.80848 0.0
C622 C 0.40473 0.55929 0.86522 0.0
C623 C 0.41116 0.58743 0.86947 0.0
C624 C 0.43186 0.57471 0.82986 0.0
C625 C 0.42841 0.60875 0.85354 0.0
C626 C 0.46314 0.59035 0.79457 0.0
C627 C 0.44013 0.53341 0.78247 0.0
N628 N 0.43818 0.60194 0.83443 0.0
N629 N 0.43159 0.54063 0.80199 0.0
H630 H 0.86585 0.45337 0.88632 0.0
H631 H 0.83107 0.38591 0.01092 0.0
H632 H 0.93374 0.4614 0.93252 0.0
H633 H 0.77952 0.41837 0.97919 0.0
H634 H 0.86524 0.40445 0.97875 0.0
H635 H 0.83029 0.43206 0.91722 0.0
C636 C 0.87341 0.45085 0.90291 0.0
C637 C 0.90304 0.45945 0.90674 0.0
C638 C 0.84636 0.40737 0.97885 0.0
C639 C 0.86212 0.43418 0.94189 0.0
C640 C 0.82681 0.3967 -0.00291 0.0
C641 C 0.80256 0.40078 -0.0023 0.0
C642 C 0.84126 0.42169 0.96097 0.0
C643 C 0.79809 0.41498 0.97939 0.0
C644 C 0.85301 0.43849 0.92047 0.0
C645 C 0.91117 0.45477 0.92854 0.0
N646 N 0.81724 0.42488 0.96168 0.0
N647 N 0.89081 0.44237 0.94525 0.0
H648 H 0.3959 0.89012 0.06426 0.0
H649 H 0.45071 0.82411 0.16193 0.0
H650 H 0.48476 0.90655 0.06902 0.0
H651 H 0.35987 0.79866 0.15091 0.0
H652 H 0.46375 0.85443 0.12793 0.0
H653 H 0.38227 0.85629 0.09583 0.0
C654 C 0.41251 0.88641 0.07177 0.0
C655 C 0.44156 0.90129 0.06396 0.0
C656 C 0.44095 0.8421 0.13288 0.0
C657 C 0.42617 0.86287 0.10045 0.0
C658 C 0.4335 0.82482 0.1523 0.0
C659 C 0.40418 0.80894 0.15929 0.0
C660 C 0.41893 0.84364 0.12047 0.0
C661 C 0.38276 0.81058 0.14615 0.0
C662 C 0.40473 0.86719 0.0899 0.0
C663 C 0.46221 0.89594 0.07469 0.0
N664 N 0.39058 0.82776 0.12745 0.0
N665 N 0.45414 0.87725 0.09244 0.0
H666 H 0.52758 0.41168 0.26298 0.0
H667 H 0.63649 0.47818 0.36951 0.0
H668 H 0.58629 0.5021 0.27299 0.0
H669 H 0.58902 0.38764 0.3548 0.0
H670 H 0.61632 0.48687 0.33496 0.0
H671 H 0.5478 0.40194 0.2974 0.0
C672 C 0.54468 0.42945 0.27244 0.0
C673 C 0.55535 0.45773 0.2651 0.0
C674 C 0.61033 0.46509 0.33923 0.0
C675 C 0.57853 0.44679 0.30435 0.0
C676 C 0.6218 0.46008 0.35903 0.0
C677 C 0.61445 0.43211 0.36511 0.0
C678 C 0.59117 0.44198 0.32539 0.0
C679 C 0.59533 0.40955 0.35076 0.0
C680 C 0.5563 0.42389 0.29199 0.0
C681 C 0.5777 0.47996 0.27785 0.0
N682 N 0.58428 0.41498 0.33159 0.0
N683 N 0.58846 0.47401 0.29687 0.0
H684 H 0.45677 0.87549 0.39452 0.0
H685 H 0.41023 0.8709 0.26461 0.0
H686 H 0.47664 0.95112 0.35554 0.0
H687 H 0.4164 0.80169 0.2961 0.0
H688 H 0.4323 0.89988 0.29865 0.0
H689 H 0.44018 0.84729 0.35937 0.0
C690 C 0.45794 0.88625 0.37858 0.0
C691 C 0.46785 0.91572 0.37807 0.0
C692 C 0.42901 0.87842 0.29807 0.0
C693 C 0.44843 0.88346 0.33792 0.0
C694 C 0.4163 0.86181 0.27867 0.0
C695 C 0.41137 0.83379 0.27755 0.0
C696 C 0.43648 0.86682 0.31664 0.0
C697 C 0.41984 0.82321 0.29624 0.0
C698 C 0.44835 0.87009 0.35855 0.0
C699 C 0.46852 0.92837 0.35691 0.0
N700 N 0.43177 0.83966 0.31514 0.0
N701 N 0.45872 0.91214 0.33775 0.0
H702 H 0.52983 0.46945 0.54802 0.0
H703 H 0.64787 0.43114 0.50196 0.0
H704 H 0.59391 0.46609 0.59216 0.0
H705 H 0.5647 0.40299 0.46858 0.0
H706 H 0.63197 0.44983 0.53352 0.0
H707 H 0.5459 0.45073 0.51683 0.0
C708 C 0.54717 0.46468 0.55124 0.0
C709 C 0.56041 0.46928 0.57287 0.0
C710 C 0.61721 0.43947 0.5193 0.0
C711 C 0.57929 0.44841 0.53702 0.0
C712 C 0.62627 0.42887 0.5013 0.0
C713 C 0.60753 0.41548 0.48268 0.0
C714 C 0.58944 0.43702 0.51846 0.0
C715 C 0.57977 0.41307 0.48266 0.0
C716 C 0.55639 0.45411 0.53338 0.0
C717 C 0.58331 0.46333 0.57575 0.0
N718 N 0.57162 0.42391 0.50022 0.0
N719 N 0.59206 0.45326 0.55802 0.0
H720 H 0.14542 0.59255 0.73663 0.0
H721 H 0.13735 0.56437 0.60378 0.0
H722 H 0.06503 0.56125 0.69843 0.0
H723 H 0.21663 0.6296 0.63582 0.0
H724 H 0.11056 0.5599 0.63899 0.0
H725 H 0.17253 0.60338 0.70051 0.0
C726 C 0.13357 0.58811 0.72062 0.0
C727 C 0.10303 0.57603 0.7204 0.0
C728 C 0.13376 0.57538 0.63822 0.0
C729 C 0.13362 0.58797 0.67929 0.0
C730 C 0.14907 0.57788 0.61819 0.0
C731 C 0.17924 0.59733 0.61694 0.0
C732 C 0.14887 0.59201 0.65729 0.0
C733 C 0.19334 0.6144 0.63608 0.0
C734 C 0.14899 0.59441 0.70009 0.0
C735 C 0.08861 0.57076 0.69927 0.0
N736 N 0.1781 0.61107 0.65562 0.0
N737 N 0.104 0.57646 0.67954 0.0
H738 H 0.55198 0.14787 0.90142 0.0
H739 H 0.59332 0.14587 0.7716 0.0
H740 H 0.5146 0.07067 0.86116 0.0
H741 H 0.59777 0.22086 0.80168 0.0
H742 H 0.56889 0.1187 0.80592 0.0
H743 H 0.57321 0.17603 0.86647 0.0
C744 C 0.54814 0.13692 0.88521 0.0
C745 C 0.53149 0.10697 0.88409 0.0
C746 C 0.5751 0.14107 0.80497 0.0
C747 C 0.55588 0.13879 0.84437 0.0
C748 C 0.58918 0.15663 0.78545 0.0
C749 C 0.59762 0.18568 0.78381 0.0
C750 C 0.56986 0.15472 0.82319 0.0
C751 C 0.59153 0.19847 0.80223 0.0
C752 C 0.56012 0.15294 0.86533 0.0
C753 C 0.52706 0.09375 0.8627 0.0
N754 N 0.57823 0.18296 0.8213 0.0
N755 N 0.53943 0.10972 0.84372 0.0
H756 H 0.42141 0.56526 0.10016 0.0
H757 H 0.46027 0.6307 0.97451 0.0
H758 H 0.4883 0.56415 0.05845 0.0
H759 H 0.37449 0.59866 0.00401 0.0
H760 H 0.47503 0.61427 0.0083 0.0
H761 H 0.40755 0.58461 0.0677 0.0
C762 C 0.43314 0.56895 0.08423 0.0
C763 C 0.4561 0.56297 0.08214 0.0
C764 C 0.45301 0.61093 0.00738 0.0
C765 C 0.44075 0.5858 0.04517 0.0
C766 C 0.44461 0.6204 0.98817 0.0
C767 C 0.41606 0.61587 0.98643 0.0
C768 C 0.43285 0.59719 0.0251 0.0
C769 C 0.39666 0.60239 0.00464 0.0
C770 C 0.4253 0.58015 0.06577 0.0
C771 C 0.47086 0.56885 0.06113 0.0
N772 N 0.40542 0.59354 0.02327 0.0
N773 N 0.46299 0.57999 0.04352 0.0
H774 H 0.86641 0.40456 0.22932 0.0
H775 H 0.8618 0.4427 0.09896 0.0
H776 H 0.94367 0.45197 0.18783 0.0
H777 H 0.78634 0.37446 0.13269 0.0
H778 H 0.89172 0.44676 0.13204 0.0
H779 H 0.83614 0.39282 0.19477 0.0
C780 C 0.87704 0.41218 0.21294 0.0
C781 C 0.90761 0.42966 0.21151 0.0
C782 C 0.86867 0.43072 0.13219 0.0
C783 C 0.87316 0.41669 0.1721 0.0
C784 C 0.85153 0.42849 0.11333 0.0
C785 C 0.82149 0.40833 0.11314 0.0
C786 C 0.85568 0.41298 0.15122 0.0
C787 C 0.80944 0.3903 0.13217 0.0
C788 C 0.85974 0.40556 0.19326 0.0
C789 C 0.92016 0.43907 0.18984 0.0
N790 N 0.82653 0.39326 0.1506 0.0
N791 N 0.90289 0.43272 0.17107 0.0
loop_
_geom_bond_atom_site_label_1
_geom_bond_atom_site_label_2
_geom_bond_distance
_geom_bond_site_symmetry_2
_ccdc_geom_bond_type
C0 C1 1.384 . S
C0 C2 1.384 . S
C0 H28 0.931 . S
C1 C0 1.384 . S
C1 C4 1.382 . S
C2 C0 1.384 . S
C2 C3 1.381 . S
C2 H29 0.930 . S
C3 C2 1.381 . S
C3 C5 1.381 . S
C3 C6 1.487 . S
C4 C1 1.382 . S
C4 C5 1.387 . S
C4 H30 0.930 . S
C5 C3 1.381 . S
C5 C4 1.387 . S
C5 H31 0.931 . S
C6 C3 1.487 . S
C6 C13 1.399 . S
C6 N44 1.343 1_655 S
C7 C8 1.384 . S
C7 C9 1.384 . S
C7 H32 0.931 . S
C8 C7 1.384 . S
C8 C11 1.382 . S
C9 C7 1.384 . S
C9 C10 1.381 . S
C9 H33 0.930 . S
C10 C9 1.381 . S
C10 C12 1.381 . S
C10 C13 1.487 . S
C11 C8 1.382 . S
C11 C12 1.387 . S
C11 H34 0.930 . S
C12 C10 1.381 . S
C12 C11 1.387 . S
C12 H35 0.931 . S
C13 C6 1.399 . S
C13 C10 1.487 . S
C13 N45 1.343 1_655 S
C14 C15 1.384 . S
C14 C16 1.384 . S
C14 H36 0.931 . S
C15 C14 1.384 . S
C15 C18 1.382 . S
C16 C14 1.384 . S
C16 C17 1.381 . S
C16 H37 0.930 . S
C17 C16 1.381 . S
C17 C19 1.381 . S
C17 C20 1.487 . S
C18 C15 1.382 . S
C18 C19 1.387 . S
C18 H38 0.930 . S
C19 C17 1.381 . S
C19 C18 1.387 . S
C19 H39 0.931 . S
C20 C17 1.487 . S
C20 C27 1.399 . S
C20 N45 1.343 . S
C21 C22 1.384 . S
C21 C23 1.384 . S
C21 H40 0.931 . S
C22 C21 1.384 . S
C22 C25 1.382 . S
C23 C21 1.384 . S
C23 C24 1.381 . S
C23 H41 0.930 . S
C24 C23 1.381 . S
C24 C26 1.381 . S
C24 C27 1.487 . S
C25 C22 1.382 . S
C25 C26 1.387 . S
C25 H42 0.930 . S
C26 C24 1.381 . S
C26 C25 1.387 . S
C26 H43 0.931 . S
C27 C20 1.399 . S
C27 C24 1.487 . S
C27 N44 1.343 . S
H28 C0 0.931 . S
H29 C2 0.930 . S
H30 C4 0.930 . S
H31 C5 0.931 . S
H32 C7 0.931 . S
H33 C9 0.930 . S
H34 C11 0.930 . S
H35 C12 0.931 . S
H36 C14 0.931 . S
H37 C16 0.930 . S
H38 C18 0.930 . S
H39 C19 0.931 . S
H40 C21 0.931 . S
H41 C23 0.930 . S
H42 C25 0.930 . S
H43 C26 0.931 . S
N44 C6 1.343 1_455 S
N44 C27 1.343 . S
N45 C13 1.343 1_455 S
N45 C20 1.343 . S
C46 C47 1.384 . S
C46 C48 1.384 . S
C46 H74 0.931 . S
C47 C46 1.384 . S
C47 C50 1.382 . S
C48 C46 1.384 . S
C48 C49 1.381 . S
C48 H75 0.930 . S
C49 C48 1.381 . S
C49 C51 1.381 . S
C49 C52 1.487 . S
C50 C47 1.382 . S
C50 C51 1.387 . S
C50 H76 0.930 . S
C51 C49 1.381 . S
C51 C50 1.387 . S
C51 H77 0.931 . S
C52 C49 1.487 . S
C52 C59 1.399 . S
C52 N90 1.343 1_565 S
C53 C54 1.384 . S
C53 C55 1.384 . S
C53 H78 0.931 . S
C54 C53 1.384 . S
C54 C57 1.382 . S
C55 C53 1.384 . S
C55 C56 1.381 . S
C55 H79 0.930 . S
C56 C55 1.381 . S
C56 C58 1.381 . S
C56 C59 1.487 . S
C57 C54 1.382 . S
C57 C58 1.387 . S
C57 H80 0.930 . S
C58 C56 1.381 . S
C58 C57 1.387 . S
C58 H81 0.931 . S
C59 C52 1.399 . S
C59 C56 1.487 . S
C59 N91 1.343 1_565 S
C60 C61 1.384 . S
C60 C62 1.384 . S
C60 H82 0.931 . S
C61 C60 1.384 . S
C61 C64 1.382 . S
C62 C60 1.384 . S
C62 C63 1.381 . S
C62 H83 0.930 . S
C63 C62 1.381 . S
C63 C65 1.381 . S
C63 C66 1.487 . S
C64 C61 1.382 . S
C64 C65 1.387 . S
C64 H84 0.930 . S
C65 C63 1.381 . S
C65 C64 1.387 . S
C65 H85 0.931 . S
C66 C63 1.487 . S
C66 C73 1.399 . S
C66 N91 1.343 . S
C67 C68 1.384 . S
C67 C69 1.384 . S
C67 H86 0.931 . S
C68 C67 1.384 . S
C68 C71 1.382 . S
C69 C67 1.384 . S
C69 C70 1.381 . S
C69 H87 0.930 . S
C70 C69 1.381 . S
C70 C72 1.381 . S
C70 C73 1.487 . S
C71 C68 1.382 . S
C71 C72 1.387 . S
C71 H88 0.930 . S
C72 C70 1.381 . S
C72 C71 1.387 . S
C72 H89 0.931 . S
C73 C66 1.399 . S
C73 C70 1.487 . S
C73 N90 1.343 . S
H74 C46 0.931 . S
H75 C48 0.930 . S
H76 C50 0.930 . S
H77 C51 0.931 . S
H78 C53 0.931 . S
H79 C55 0.930 . S
H80 C57 0.930 . S
H81 C58 0.931 . S
H82 C60 0.931 . S
H83 C62 0.930 . S
H84 C64 0.930 . S
H85 C65 0.931 . S
H86 C67 0.931 . S
H87 C69 0.930 . S
H88 C71 0.930 . S
H89 C72 0.931 . S
N90 C52 1.343 1_545 S
N90 C73 1.343 . S
N91 C59 1.343 1_545 S
N91 C66 1.343 . S
C92 C93 1.384 . S
C92 C94 1.384 . S
C92 H120 0.931 . S
C93 C92 1.384 . S
C93 C96 1.382 . S
C94 C92 1.384 . S
C94 C95 1.381 . S
C94 H121 0.930 . S
C95 C94 1.381 . S
C95 C97 1.381 . S
C95 C98 1.487 . S
C96 C93 1.382 . S
C96 C97 1.387 . S
C96 H122 0.930 . S
C97 C95 1.381 . S
C97 C96 1.387 . S
C97 H123 0.931 . S
C98 C95 1.487 . S
C98 C105 1.399 . S
C98 N136 1.343 . S
C99 C100 1.384 . S
C99 C101 1.384 . S
C99 H124 0.931 . S
C100 C99 1.384 . S
C100 C103 1.382 . S
C101 C99 1.384 . S
C101 C102 1.381 . S
C101 H125 0.930 . S
C102 C101 1.381 . S
C102 C104 1.381 . S
C102 C105 1.487 . S
C103 C100 1.382 . S
C103 C104 1.387 . S
C103 H126 0.930 . S
C104 C102 1.381 . S
C104 C103 1.387 . S
C104 H127 0.931 . S
C105 C98 1.399 . S
C105 C102 1.487 . S
C105 N137 1.343 . S
C106 C107 1.384 . S
C106 C108 1.384 . S
C106 H128 0.931 . S
C107 C106 1.384 . S
C107 C110 1.382 . S
C108 C106 1.384 . S
C108 C109 1.381 . S
C108 H129 0.930 . S
C109 C108 1.381 . S
C109 C111 1.381 . S
C109 C112 1.487 . S
C110 C107 1.382 . S
C110 C111 1.387 . S
C110 H130 0.930 . S
C111 C109 1.381 . S
C111 C110 1.387 . S
C111 H131 0.931 . S
C112 C109 1.487 . S
C112 C119 1.399 . S
C112 N137 1.343 . S
C113 C114 1.384 . S
C113 C115 1.384 . S
C113 H132 0.931 . S
C114 C113 1.384 . S
C114 C117 1.382 . S
C115 C113 1.384 . S
C115 C116 1.381 . S
C115 H133 0.930 . S
C116 C115 1.381 . S
C116 C118 1.381 . S
C116 C119 1.487 . S
C117 C114 1.382 . S
C117 C118 1.387 . S
C117 H134 0.930 . S
C118 C116 1.381 . S
C118 C117 1.387 . S
C118 H135 0.931 . S
C119 C112 1.399 . S
C119 C116 1.487 . S
C119 N136 1.343 . S
H120 C92 0.931 . S
H121 C94 0.930 . S
H122 C96 0.930 . S
H123 C97 0.931 . S
H124 C99 0.931 . S
H125 C101 0.930 . S
H126 C103 0.930 . S
H127 C104 0.931 . S
H128 C106 0.931 . S
H129 C108 0.930 . S
H130 C110 0.930 . S
H131 C111 0.931 . S
H132 C113 0.931 . S
H133 C115 0.930 . S
H134 C117 0.930 . S
H135 C118 0.931 . S
N136 C98 1.343 . S
N136 C119 1.343 . S
N137 C105 1.343 . S
N137 C112 1.343 . S
C138 C139 1.384 . S
C138 C140 1.384 . S
C138 H166 0.931 . S
C139 C138 1.384 . S
C139 C142 1.382 . S
C140 C138 1.384 . S
C140 C141 1.381 . S
C140 H167 0.930 . S
C141 C140 1.381 . S
C141 C143 1.381 . S
C141 C144 1.487 . S
C142 C139 1.382 . S
C142 C143 1.387 . S
C142 H168 0.930 . S
C143 C141 1.381 . S
C143 C142 1.387 . S
C143 H169 0.931 . S
C144 C141 1.487 . S
C144 C151 1.399 . S
C144 N182 1.353 . S
C145 C146 1.384 . S
C145 C147 1.384 . S
C145 H170 0.931 . S
C146 C145 1.384 . S
C146 C149 1.382 . S
C147 C145 1.384 . S
C147 C148 1.381 . S
C147 H171 0.930 . S
C148 C147 1.381 . S
C148 C150 1.381 . S
C148 C151 1.487 . S
C149 C146 1.382 . S
C149 C150 1.387 . S
C149 H172 0.930 . S
C150 C148 1.381 . S
C150 C149 1.387 . S
C150 H173 0.931 . S
C151 C144 1.399 . S
C151 C148 1.487 . S
C151 N183 1.343 1_655 S
C152 C153 1.384 . S
C152 C154 1.384 . S
C152 H174 0.931 . S
C153 C152 1.384 . S
C153 C156 1.382 . S
C154 C152 1.384 . S
C154 C155 1.381 . S
C154 H175 0.930 . S
C155 C154 1.381 . S
C155 C157 1.381 . S
C155 C158 1.487 . S
C156 C153 1.382 . S
C156 C157 1.387 . S
C156 H176 0.930 . S
C157 C155 1.381 . S
C157 C156 1.387 . S
C157 H177 0.931 . S
C158 C155 1.487 . S
C158 C165 1.399 . S
C158 N183 1.343 . S
C159 C160 1.384 . S
C159 C161 1.384 . S
C159 H178 0.931 . S
C160 C159 1.384 . S
C160 C163 1.382 . S
C161 C159 1.384 . S
C161 C162 1.381 . S
C161 H179 0.930 . S
C162 C161 1.381 . S
C162 C164 1.381 . S
C162 C165 1.487 . S
C163 C160 1.382 . S
C163 C164 1.387 . S
C163 H180 0.930 . S
C164 C162 1.381 . S
C164 C163 1.387 . S
C164 H181 0.931 . S
C165 C158 1.399 . S
C165 C162 1.487 . S
C165 N182 1.327 1_455 S
H166 C138 0.931 . S
H167 C140 0.930 . S
H168 C142 0.930 . S
H169 C143 0.931 . S
H170 C145 0.931 . S
H171 C147 0.930 . S
H172 C149 0.930 . S
H173 C150 0.931 . S
H174 C152 0.931 . S
H175 C154 0.930 . S
H176 C156 0.930 . S
H177 C157 0.931 . S
H178 C159 0.931 . S
H179 C161 0.930 . S
H180 C163 0.930 . S
H181 C164 0.931 . S
N182 C144 1.353 . S
N182 C165 1.327 1_655 S
N183 C151 1.343 1_455 S
N183 C158 1.343 . S
C184 C185 1.384 . S
C184 C186 1.384 . S
C184 H212 0.931 . S
C185 C184 1.384 . S
C185 C188 1.382 . S
C186 C184 1.384 . S
C186 C187 1.381 . S
C186 H213 0.930 1_556 S
C187 C186 1.381 . S
C187 C189 1.381 . S
C187 C190 1.487 . S
C188 C185 1.382 . S
C188 C189 1.387 . S
C188 H214 0.930 . S
C189 C187 1.381 . S
C189 C188 1.387 . S
C189 H215 0.931 . S
C190 C187 1.487 . S
C190 C197 1.399 1_556 S
C190 N228 1.365 . S
C191 C192 1.384 . S
C191 C193 1.384 . S
C191 H216 0.931 . S
C192 C191 1.384 . S
C192 C195 1.382 . S
C193 C191 1.384 . S
C193 C194 1.381 . S
C193 H217 0.930 . S
C194 C193 1.381 . S
C194 C196 1.381 . S
C194 C197 1.487 . S
C195 C192 1.382 . S
C195 C196 1.387 . S
C195 H218 0.930 . S
C196 C194 1.381 . S
C196 C195 1.387 . S
C196 H219 0.931 . S
C197 C190 1.399 1_554 S
C197 C194 1.487 . S
C197 N229 1.343 1_565 S
C198 C199 1.384 . S
C198 C200 1.384 1_554 S
C198 H220 0.944 . S
C199 C198 1.384 . S
C199 C202 1.382 . S
C200 C198 1.384 1_556 S
C200 C201 1.381 1_556 S
C200 H221 0.930 . S
C201 C200 1.381 1_554 S
C201 C203 1.381 . S
C201 C204 1.477 1_554 S
C202 C199 1.382 . S
C202 C203 1.387 . S
C202 H222 0.930 . S
C203 C201 1.381 . S
C203 C202 1.387 . S
C203 H223 0.931 . S
C204 C201 1.477 1_556 S
C204 C211 1.433 . S
C204 N229 1.316 1_556 S
C205 C206 1.384 . S
C205 C207 1.384 . S
C205 H224 0.931 . S
C206 C205 1.384 . S
C206 C209 1.382 . S
C207 C205 1.384 . S
C207 C208 1.381 . S
C207 H225 0.930 . S
C208 C207 1.381 . S
C208 C210 1.381 . S
C208 C211 1.487 . S
C209 C206 1.382 . S
C209 C210 1.387 . S
C209 H226 0.930 . S
C210 C208 1.381 . S
C210 C209 1.387 . S
C210 H227 0.931 . S
C211 C204 1.433 . S
C211 C208 1.487 . S
C211 N228 1.313 1_545 S
H212 C184 0.931 . S
H213 C186 0.930 1_554 S
H214 C188 0.930 . S
H215 C189 0.931 . S
H216 C191 0.931 . S
H217 C193 0.930 . S
H218 C195 0.930 . S
H219 C196 0.931 . S
H220 C198 0.944 . S
H221 C200 0.930 . S
H222 C202 0.930 . S
H223 C203 0.931 . S
H224 C205 0.931 . S
H225 C207 0.930 . S
H226 C209 0.930 . S
H227 C210 0.931 . S
N228 C190 1.365 . S
N228 C211 1.313 1_565 S
N229 C197 1.343 1_545 S
N229 C204 1.316 1_554 S
C230 C231 1.384 . S
C230 C232 1.384 . S
C230 H258 0.931 . S
C231 C230 1.384 . S
C231 C234 1.382 . S
C232 C230 1.384 . S
C232 C233 1.381 . S
C232 H259 0.930 . S
C233 C232 1.381 . S
C233 C235 1.381 . S
C233 C236 1.487 . S
C234 C231 1.382 . S
C234 C235 1.387 . S
C234 H260 0.930 . S
C235 C233 1.381 . S
C235 C234 1.387 . S
C235 H261 0.931 . S
C236 C233 1.487 . S
C236 C243 1.399 . S
C236 N274 1.343 . S
C237 C238 1.384 . S
C237 C239 1.384 . S
C237 H262 0.931 . S
C238 C237 1.384 . S
C238 C241 1.382 . S
C239 C237 1.384 . S
C239 C240 1.381 . S
C239 H263 0.930 . S
C240 C239 1.381 . S
C240 C242 1.381 . S
C240 C243 1.487 . S
C241 C238 1.382 . S
C241 C242 1.387 . S
C241 H264 0.930 . S
C242 C240 1.381 . S
C242 C241 1.387 . S
C242 H265 0.931 . S
C243 C236 1.399 . S
C243 C240 1.487 . S
C243 N275 1.343 . S
C244 C245 1.384 . S
C244 C246 1.384 . S
C244 H266 0.931 . S
C245 C244 1.384 . S
C245 C248 1.382 . S
C246 C244 1.384 . S
C246 C247 1.381 . S
C246 H267 0.930 . S
C247 C246 1.381 . S
C247 C249 1.381 . S
C247 C250 1.487 . S
C248 C245 1.382 . S
C248 C249 1.387 . S
C248 H268 0.930 . S
C249 C247 1.381 . S
C249 C248 1.387 . S
C249 H269 0.931 . S
C250 C247 1.487 . S
C250 C257 1.399 . S
C250 N275 1.343 . S
C251 C252 1.384 . S
C251 C253 1.384 . S
C251 H270 0.931 . S
C252 C251 1.384 . S
C252 C255 1.382 . S
C253 C251 1.384 . S
C253 C254 1.381 . S
C253 H271 0.930 . S
C254 C253 1.381 . S
C254 C256 1.381 . S
C254 C257 1.487 . S
C255 C252 1.382 . S
C255 C256 1.387 . S
C255 H272 0.930 . S
C256 C254 1.381 . S
C256 C255 1.387 . S
C256 H273 0.931 . S
C257 C250 1.399 . S
C257 C254 1.487 . S
C257 N274 1.343 . S
H258 C230 0.931 . S
H259 C232 0.930 . S
H260 C234 0.930 . S
H261 C235 0.931 . S
H262 C237 0.931 . S
H263 C239 0.930 . S
H264 C241 0.930 . S
H265 C242 0.931 . S
H266 C244 0.931 . S
H267 C246 0.930 . S
H268 C248 0.930 . S
H269 C249 0.931 . S
H270 C251 0.931 . S
H271 C253 0.930 . S
H272 C255 0.930 . S
H273 C256 0.931 . S
N274 C236 1.343 . S
N274 C257 1.343 . S
N275 C243 1.343 . S
N275 C250 1.343 . S
C276 O277 1.306 . S
C276 O279 1.160 . S
O277 C276 1.306 . S
O277 Cd278 2.228 . S
Cd278 O277 2.228 . S
Cd278 O282 2.273 . S
Cd278 O286 2.277 . S
O279 C276 1.160 . S
O279 Cd280 2.203 . S
Cd280 O279 2.203 . S
Cd280 O282 2.411 . S
Cd280 O283 2.333 . S
Cd280 O284 2.352 . S
Cd280 O288 2.277 . S
Cd280 O289 2.356 . S
C281 O286 1.209 . S
C281 O288 1.226 . S
O282 Cd278 2.273 . S
O282 Cd280 2.411 . S
O282 C285 1.320 . S
O283 Cd280 2.333 . S
O283 C285 1.214 . S
O284 Cd280 2.352 . S
O284 C287 1.258 . S
C285 O282 1.320 . S
C285 O283 1.214 . S
O286 Cd278 2.277 . S
O286 C281 1.209 . S
C287 O284 1.258 . S
C287 O289 1.282 . S
O288 Cd280 2.277 . S
O288 C281 1.226 . S
O289 Cd280 2.356 . S
O289 C287 1.282 . S
C290 O291 1.306 . S
C290 O293 1.160 . S
O291 C290 1.306 . S
O291 Cd292 2.228 . S
Cd292 O291 2.228 . S
Cd292 O296 2.273 . S
Cd292 O300 2.277 . S
O293 C290 1.160 . S
O293 Cd294 2.203 . S
Cd294 O293 2.203 . S
Cd294 O296 2.411 . S
Cd294 O297 2.333 . S
Cd294 O298 2.352 . S
Cd294 O302 2.277 . S
Cd294 O303 2.356 . S
C295 O300 1.209 . S
C295 O302 1.226 . S
O296 Cd292 2.273 . S
O296 Cd294 2.411 . S
O296 C299 1.320 . S
O297 Cd294 2.333 . S
O297 C299 1.214 . S
O298 Cd294 2.352 . S
O298 C301 1.258 . S
C299 O296 1.320 . S
C299 O297 1.214 . S
O300 Cd292 2.277 . S
O300 C295 1.209 . S
C301 O298 1.258 . S
C301 O303 1.282 . S
O302 Cd294 2.277 . S
O302 C295 1.226 . S
O303 Cd294 2.356 . S
O303 C301 1.282 . S
C304 O305 1.306 . S
C304 O307 1.160 . S
O305 C304 1.306 . S
O305 Cd306 2.228 . S
Cd306 O305 2.228 . S
Cd306 O310 2.273 . S
Cd306 O314 2.277 . S
O307 C304 1.160 . S
O307 Cd308 2.203 . S
Cd308 O307 2.203 . S
Cd308 O310 2.411 . S
Cd308 O311 2.333 . S
Cd308 O312 2.352 . S
Cd308 O316 2.277 . S
Cd308 O317 2.356 . S
C309 O314 1.209 . S
C309 O316 1.226 . S
O310 Cd306 2.273 . S
O310 Cd308 2.411 . S
O310 C313 1.320 . S
O311 Cd308 2.333 . S
O311 C313 1.214 . S
O312 Cd308 2.352 . S
O312 C315 1.258 . S
C313 O310 1.320 . S
C313 O311 1.214 . S
O314 Cd306 2.277 . S
O314 C309 1.209 . S
C315 O312 1.258 . S
C315 O317 1.282 . S
O316 Cd308 2.277 . S
O316 C309 1.226 . S
O317 Cd308 2.356 . S
O317 C315 1.282 . S
C318 O319 1.306 . S
C318 O321 1.160 . S
O319 C318 1.306 . S
O319 Cd320 2.228 . S
Cd320 O319 2.228 . S
Cd320 O324 2.273 . S
Cd320 O328 2.277 . S
O321 C318 1.160 . S
O321 Cd322 2.203 . S
Cd322 O321 2.203 . S
Cd322 O324 2.411 . S
Cd322 O325 2.333 . S
Cd322 O326 2.352 . S
Cd322 O330 2.277 . S
Cd322 O331 2.356 . S
C323 O328 1.209 . S
C323 O330 1.226 . S
O324 Cd320 2.273 . S
O324 Cd322 2.411 . S
O324 C327 1.320 . S
O325 Cd322 2.333 . S
O325 C327 1.214 . S
O326 Cd322 2.352 . S
O326 C329 1.258 . S
C327 O324 1.320 . S
C327 O325 1.214 . S
O328 Cd320 2.277 . S
O328 C323 1.209 . S
C329 O326 1.258 . S
C329 O331 1.282 . S
O330 Cd322 2.277 . S
O330 C323 1.226 . S
O331 Cd322 2.356 . S
O331 C329 1.282 . S
C332 O333 1.306 . S
C332 O335 1.160 . S
O333 C332 1.306 . S
O333 Cd334 2.228 . S
Cd334 O333 2.228 . S
Cd334 O338 2.273 . S
Cd334 O342 2.277 . S
O335 C332 1.160 . S
O335 Cd336 2.203 . S
Cd336 O335 2.203 . S
Cd336 O338 2.411 . S
Cd336 O339 2.333 . S
Cd336 O340 2.352 . S
Cd336 O344 2.277 . S
Cd336 O345 2.356 . S
C337 O342 1.209 . S
C337 O344 1.226 . S
O338 Cd334 2.273 . S
O338 Cd336 2.411 . S
O338 C341 1.320 . S
O339 Cd336 2.333 . S
O339 C341 1.214 . S
O340 Cd336 2.352 . S
O340 C343 1.258 . S
C341 O338 1.320 . S
C341 O339 1.214 . S
O342 Cd334 2.277 . S
O342 C337 1.209 . S
C343 O340 1.258 . S
C343 O345 1.282 . S
O344 Cd336 2.277 . S
O344 C337 1.226 . S
O345 Cd336 2.356 . S
O345 C343 1.282 . S
C346 O347 1.306 . S
C346 O349 1.160 . S
O347 C346 1.306 . S
O347 Cd348 2.228 . S
Cd348 O347 2.228 . S
Cd348 O352 2.273 . S
Cd348 O356 2.277 . S
O349 C346 1.160 . S
O349 Cd350 2.203 . S
Cd350 O349 2.203 . S
Cd350 O352 2.411 . S
Cd350 O353 2.333 . S
Cd350 O354 2.352 . S
Cd350 O358 2.277 . S
Cd350 O359 2.356 . S
C351 O356 1.209 . S
C351 O358 1.226 . S
O352 Cd348 2.273 . S
O352 Cd350 2.411 . S
O352 C355 1.320 . S
O353 Cd350 2.333 . S
O353 C355 1.214 . S
O354 Cd350 2.352 . S
O354 C357 1.258 . S
C355 O352 1.320 . S
C355 O353 1.214 . S
O356 Cd348 2.277 . S
O356 C351 1.209 . S
C357 O354 1.258 . S
C357 O359 1.282 . S
O358 Cd350 2.277 . S
O358 C351 1.226 . S
O359 Cd350 2.356 . S
O359 C357 1.282 . S
H360 C366 0.930 . S
H361 C370 0.930 . S
H362 C375 0.929 . S
H363 C373 0.929 . S
H364 C368 0.929 . S
H365 C374 0.929 . S
C366 H360 0.930 . S
C366 C367 1.367 . S
C366 C374 1.378 . S
C367 C366 1.367 . S
C367 C375 1.433 . S
C368 H364 0.929 . S
C368 C370 1.378 . S
C368 C372 1.350 . S
C369 C372 1.463 . S
C369 C374 1.350 . S
C369 N377 1.427 . S
C370 H361 0.930 . S
C370 C368 1.378 . S
C370 C371 1.367 . S
C371 C370 1.367 . S
C371 C373 1.433 . S
C372 C368 1.350 . S
C372 C369 1.463 . S
C372 N376 1.427 . S
C373 H363 0.929 . S
C373 C371 1.433 . S
C373 N376 1.384 . S
C374 H365 0.929 . S
C374 C366 1.378 . S
C374 C369 1.350 . S
C375 H362 0.929 . S
C375 C367 1.433 . S
C375 N377 1.384 . S
N376 C372 1.427 . S
N376 C373 1.384 . S
N377 C369 1.427 . S
N377 C375 1.384 . S
H378 C384 0.930 . S
H379 C388 0.930 . S
H380 C393 0.929 . S
H381 C391 0.929 . S
H382 C386 0.929 . S
H383 C392 0.929 . S
C384 H378 0.930 . S
C384 C385 1.367 . S
C384 C392 1.378 . S
C385 C384 1.367 . S
C385 C393 1.433 . S
C386 H382 0.929 . S
C386 C388 1.378 . S
C386 C390 1.350 . S
C387 C390 1.463 . S
C387 C392 1.350 . S
C387 N395 1.427 . S
C388 H379 0.930 . S
C388 C386 1.378 . S
C388 C389 1.367 . S
C389 C388 1.367 . S
C389 C391 1.433 . S
C390 C386 1.350 . S
C390 C387 1.463 . S
C390 N394 1.427 . S
C391 H381 0.929 . S
C391 C389 1.433 . S
C391 N394 1.384 . S
C392 H383 0.929 . S
C392 C384 1.378 . S
C392 C387 1.350 . S
C393 H380 0.929 . S
C393 C385 1.433 . S
C393 N395 1.384 . S
N394 C390 1.427 . S
N394 C391 1.384 . S
N395 C387 1.427 . S
N395 C393 1.384 . S
H396 C402 0.930 . S
H397 C406 0.930 . S
H398 C411 0.929 . S
H399 C409 0.929 . S
H400 C404 0.929 . S
H401 C410 0.929 . S
C402 H396 0.930 . S
C402 C403 1.367 . S
C402 C410 1.378 . S
C403 C402 1.367 . S
C403 C411 1.433 . S
C404 H400 0.929 . S
C404 C406 1.378 . S
C404 C408 1.350 . S
C405 C408 1.463 . S
C405 C410 1.350 . S
C405 N413 1.427 . S
C406 H397 0.930 . S
C406 C404 1.378 . S
C406 C407 1.367 . S
C407 C406 1.367 . S
C407 C409 1.433 . S
C408 C404 1.350 . S
C408 C405 1.463 . S
C408 N412 1.427 . S
C409 H399 0.929 . S
C409 C407 1.433 . S
C409 N412 1.384 . S
C410 H401 0.929 . S
C410 C402 1.378 . S
C410 C405 1.350 . S
C411 H398 0.929 . S
C411 C403 1.433 . S
C411 N413 1.384 . S
N412 C408 1.427 . S
N412 C409 1.384 . S
N413 C405 1.427 . S
N413 C411 1.384 . S
H414 C420 0.930 . S
H415 C424 0.930 . S
H416 C429 0.929 . S
H417 C427 0.929 . S
H418 C422 0.929 . S
H419 C428 0.929 . S
C420 H414 0.930 . S
C420 C421 1.367 . S
C420 C428 1.378 . S
C421 C420 1.367 . S
C421 C429 1.433 . S
C422 H418 0.929 . S
C422 C424 1.378 . S
C422 C426 1.350 . S
C423 C426 1.463 . S
C423 C428 1.350 . S
C423 N431 1.427 . S
C424 H415 0.930 . S
C424 C422 1.378 . S
C424 C425 1.367 . S
C425 C424 1.367 . S
C425 C427 1.433 . S
C426 C422 1.350 . S
C426 C423 1.463 . S
C426 N430 1.427 . S
C427 H417 0.929 . S
C427 C425 1.433 . S
C427 N430 1.384 . S
C428 H419 0.929 . S
C428 C420 1.378 . S
C428 C423 1.350 . S
C429 H416 0.929 . S
C429 C421 1.433 . S
C429 N431 1.384 . S
N430 C426 1.427 . S
N430 C427 1.384 . S
N431 C423 1.427 . S
N431 C429 1.384 . S
H432 C438 0.930 . S
H433 C442 0.930 . S
H434 C447 0.929 . S
H435 C445 0.929 . S
H436 C440 0.929 . S
H437 C446 0.929 . S
C438 H432 0.930 . S
C438 C439 1.367 . S
C438 C446 1.378 . S
C439 C438 1.367 . S
C439 C447 1.433 . S
C440 H436 0.929 . S
C440 C442 1.378 . S
C440 C444 1.350 . S
C441 C444 1.463 . S
C441 C446 1.350 . S
C441 N449 1.427 . S
C442 H433 0.930 . S
C442 C440 1.378 . S
C442 C443 1.367 . S
C443 C442 1.367 . S
C443 C445 1.433 . S
C444 C440 1.350 . S
C444 C441 1.463 . S
C444 N448 1.427 . S
C445 H435 0.929 . S
C445 C443 1.433 . S
C445 N448 1.384 . S
C446 H437 0.929 . S
C446 C438 1.378 . S
C446 C441 1.350 . S
C447 H434 0.929 . S
C447 C439 1.433 . S
C447 N449 1.384 . S
N448 C444 1.427 . S
N448 C445 1.384 . S
N449 C441 1.427 . S
N449 C447 1.384 . S
H450 C456 0.930 . S
H451 C460 0.930 . S
H452 C465 0.929 . S
H453 C463 0.929 . S
H454 C458 0.929 . S
H455 C464 0.929 . S
C456 H450 0.930 . S
C456 C457 1.367 . S
C456 C464 1.378 . S
C457 C456 1.367 . S
C457 C465 1.433 . S
C458 H454 0.929 . S
C458 C460 1.378 . S
C458 C462 1.350 . S
C459 C462 1.463 . S
C459 C464 1.350 . S
C459 N467 1.427 . S
C460 H451 0.930 . S
C460 C458 1.378 . S
C460 C461 1.367 . S
C461 C460 1.367 . S
C461 C463 1.433 . S
C462 C458 1.350 . S
C462 C459 1.463 . S
C462 N466 1.427 . S
C463 H453 0.929 . S
C463 C461 1.433 . S
C463 N466 1.384 . S
C464 H455 0.929 . S
C464 C456 1.378 . S
C464 C459 1.350 . S
C465 H452 0.929 . S
C465 C457 1.433 . S
C465 N467 1.384 . S
N466 C462 1.427 . S
N466 C463 1.384 . S
N467 C459 1.427 . S
N467 C465 1.384 . S
H468 C474 0.930 . S
H469 C478 0.930 . S
H470 C483 0.929 . S
H471 C481 0.929 . S
H472 C476 0.929 . S
H473 C482 0.929 . S
C474 H468 0.930 . S
C474 C475 1.367 . S
C474 C482 1.378 . S
C475 C474 1.367 . S
C475 C483 1.433 . S
C476 H472 0.929 . S
C476 C478 1.378 . S
C476 C480 1.350 . S
C477 C480 1.463 . S
C477 C482 1.350 . S
C477 N485 1.427 . S
C478 H469 0.930 . S
C478 C476 1.378 . S
C478 C479 1.367 . S
C479 C478 1.367 . S
C479 C481 1.433 . S
C480 C476 1.350 . S
C480 C477 1.463 . S
C480 N484 1.427 . S
C481 H471 0.929 . S
C481 C479 1.433 . S
C481 N484 1.384 . S
C482 H473 0.929 . S
C482 C474 1.378 . S
C482 C477 1.350 . S
C483 H470 0.929 . S
C483 C475 1.433 . S
C483 N485 1.384 . S
N484 C480 1.427 . S
N484 C481 1.384 . S
N485 C477 1.427 . S
N485 C483 1.384 . S
H486 C492 0.930 . S
H487 C496 0.930 . S
H488 C501 0.929 . S
H489 C499 0.929 . S
H490 C494 0.929 . S
H491 C500 0.929 . S
C492 H486 0.930 . S
C492 C493 1.367 . S
C492 C500 1.378 . S
C493 C492 1.367 . S
C493 C501 1.433 . S
C494 H490 0.929 . S
C494 C496 1.378 . S
C494 C498 1.350 . S
C495 C498 1.463 . S
C495 C500 1.350 . S
C495 N503 1.427 . S
C496 H487 0.930 . S
C496 C494 1.378 . S
C496 C497 1.367 . S
C497 C496 1.367 . S
C497 C499 1.433 . S
C498 C494 1.350 . S
C498 C495 1.463 . S
C498 N502 1.427 . S
C499 H489 0.929 . S
C499 C497 1.433 . S
C499 N502 1.384 . S
C500 H491 0.929 . S
C500 C492 1.378 . S
C500 C495 1.350 . S
C501 H488 0.929 . S
C501 C493 1.433 . S
C501 N503 1.384 . S
N502 C498 1.427 . S
N502 C499 1.384 . S
N503 C495 1.427 . S
N503 C501 1.384 . S
H504 C510 0.930 . S
H505 C514 0.930 . S
H506 C519 0.929 . S
H507 C517 0.929 . S
H508 C512 0.929 . S
H509 C518 0.929 . S
C510 H504 0.930 . S
C510 C511 1.367 . S
C510 C518 1.378 . S
C511 C510 1.367 . S
C511 C519 1.433 . S
C512 H508 0.929 . S
C512 C514 1.378 . S
C512 C516 1.350 . S
C513 C516 1.463 . S
C513 C518 1.350 . S
C513 N521 1.427 . S
C514 H505 0.930 . S
C514 C512 1.378 . S
C514 C515 1.367 . S
C515 C514 1.367 . S
C515 C517 1.433 . S
C516 C512 1.350 . S
C516 C513 1.463 . S
C516 N520 1.427 . S
C517 H507 0.929 . S
C517 C515 1.433 . S
C517 N520 1.384 . S
C518 H509 0.929 . S
C518 C510 1.378 . S
C518 C513 1.350 . S
C519 H506 0.929 . S
C519 C511 1.433 . S
C519 N521 1.384 . S
N520 C516 1.427 . S
N520 C517 1.384 . S
N521 C513 1.427 . S
N521 C519 1.384 . S
H522 C528 0.930 . S
H523 C532 0.930 . S
H524 C537 0.929 . S
H525 C535 0.929 . S
H526 C530 0.929 . S
H527 C536 0.929 . S
C528 H522 0.930 . S
C528 C529 1.367 . S
C528 C536 1.378 . S
C529 C528 1.367 . S
C529 C537 1.433 . S
C530 H526 0.929 . S
C530 C532 1.378 . S
C530 C534 1.350 . S
C531 C534 1.463 . S
C531 C536 1.350 . S
C531 N539 1.427 . S
C532 H523 0.930 . S
C532 C530 1.378 . S
C532 C533 1.367 . S
C533 C532 1.367 . S
C533 C535 1.433 . S
C534 C530 1.350 . S
C534 C531 1.463 . S
C534 N538 1.427 . S
C535 H525 0.929 . S
C535 C533 1.433 . S
C535 N538 1.384 . S
C536 H527 0.929 . S
C536 C528 1.378 . S
C536 C531 1.350 . S
C537 H524 0.929 . S
C537 C529 1.433 . S
C537 N539 1.384 . S
N538 C534 1.427 . S
N538 C535 1.384 . S
N539 C531 1.427 . S
N539 C537 1.384 . S
H540 C546 0.930 . S
H541 C550 0.930 . S
H542 C555 0.929 . S
H543 C553 0.929 . S
H544 C548 0.929 . S
H545 C554 0.929 . S
C546 H540 0.930 . S
C546 C547 1.367 . S
C546 C554 1.378 . S
C547 C546 1.367 . S
C547 C555 1.433 . S
C548 H544 0.929 . S
C548 C550 1.378 . S
C548 C552 1.350 . S
C549 C552 1.463 . S
C549 C554 1.350 . S
C549 N557 1.427 . S
C550 H541 0.930 . S
C550 C548 1.378 . S
C550 C551 1.367 . S
C551 C550 1.367 . S
C551 C553 1.433 . S
C552 C548 1.350 . S
C552 C549 1.463 . S
C552 N556 1.427 . S
C553 H543 0.929 . S
C553 C551 1.433 . S
C553 N556 1.384 . S
C554 H545 0.929 . S
C554 C546 1.378 . S
C554 C549 1.350 . S
C555 H542 0.929 . S
C555 C547 1.433 . S
C555 N557 1.384 . S
N556 C552 1.427 . S
N556 C553 1.384 . S
N557 C549 1.427 . S
N557 C555 1.384 . S
H558 C564 0.930 . S
H559 C568 0.930 . S
H560 C573 0.929 . S
H561 C571 0.929 . S
H562 C566 0.929 . S
H563 C572 0.929 . S
C564 H558 0.930 . S
C564 C565 1.367 . S
C564 C572 1.378 . S
C565 C564 1.367 . S
C565 C573 1.433 . S
C566 H562 0.929 . S
C566 C568 1.378 . S
C566 C570 1.350 . S
C567 C570 1.463 . S
C567 C572 1.350 . S
C567 N575 1.427 . S
C568 H559 0.930 . S
C568 C566 1.378 . S
C568 C569 1.367 . S
C569 C568 1.367 . S
C569 C571 1.433 . S
C570 C566 1.350 . S
C570 C567 1.463 . S
C570 N574 1.427 . S
C571 H561 0.929 . S
C571 C569 1.433 . S
C571 N574 1.384 . S
C572 H563 0.929 . S
C572 C564 1.378 . S
C572 C567 1.350 . S
C573 H560 0.929 . S
C573 C565 1.433 . S
C573 N575 1.384 . S
N574 C570 1.427 . S
N574 C571 1.384 . S
N575 C567 1.427 . S
N575 C573 1.384 . S
H576 C582 0.930 . S
H577 C586 0.930 . S
H578 C591 0.929 . S
H579 C589 0.929 . S
H580 C584 0.929 . S
H581 C590 0.929 . S
C582 H576 0.930 . S
C582 C583 1.367 . S
C582 C590 1.378 . S
C583 C582 1.367 . S
C583 C591 1.433 . S
C584 H580 0.929 . S
C584 C586 1.378 . S
C584 C588 1.350 . S
C585 C588 1.463 . S
C585 C590 1.350 . S
C585 N593 1.427 . S
C586 H577 0.930 . S
C586 C584 1.378 . S
C586 C587 1.367 . S
C587 C586 1.367 . S
C587 C589 1.433 . S
C588 C584 1.350 . S
C588 C585 1.463 . S
C588 N592 1.427 . S
C589 H579 0.929 . S
C589 C587 1.433 . S
C589 N592 1.384 . S
C590 H581 0.929 . S
C590 C582 1.378 . S
C590 C585 1.350 . S
C591 H578 0.929 . S
C591 C583 1.433 . S
C591 N593 1.384 . S
N592 C588 1.427 . S
N592 C589 1.384 . S
N593 C585 1.427 . S
N593 C591 1.384 . S
H594 C600 0.930 . S
H595 C604 0.930 . S
H596 C609 0.929 . S
H597 C607 0.929 . S
H598 C602 0.929 . S
H599 C608 0.929 . S
C600 H594 0.930 . S
C600 C601 1.367 . S
C600 C608 1.378 . S
C601 C600 1.367 . S
C601 C609 1.433 . S
C602 H598 0.929 . S
C602 C604 1.378 . S
C602 C606 1.350 . S
C603 C606 1.463 . S
C603 C608 1.350 . S
C603 N611 1.427 . S
C604 H595 0.930 . S
C604 C602 1.378 . S
C604 C605 1.367 . S
C605 C604 1.367 . S
C605 C607 1.433 . S
C606 C602 1.350 . S
C606 C603 1.463 . S
C606 N610 1.427 . S
C607 H597 0.929 . S
C607 C605 1.433 . S
C607 N610 1.384 . S
C608 H599 0.929 . S
C608 C600 1.378 . S
C608 C603 1.350 . S
C609 H596 0.929 . S
C609 C601 1.433 . S
C609 N611 1.384 . S
N610 C606 1.427 . S
N610 C607 1.384 . S
N611 C603 1.427 . S
N611 C609 1.384 . S
H612 C618 0.930 . S
H613 C622 0.930 . S
H614 C627 0.929 . S
H615 C625 0.929 . S
H616 C620 0.929 . S
H617 C626 0.929 . S
C618 H612 0.930 . S
C618 C619 1.367 . S
C618 C626 1.378 . S
C619 C618 1.367 . S
C619 C627 1.433 . S
C620 H616 0.929 . S
C620 C622 1.378 . S
C620 C624 1.350 . S
C621 C624 1.463 . S
C621 C626 1.350 . S
C621 N629 1.427 . S
C622 H613 0.930 . S
C622 C620 1.378 . S
C622 C623 1.367 . S
C623 C622 1.367 . S
C623 C625 1.433 . S
C624 C620 1.350 . S
C624 C621 1.463 . S
C624 N628 1.427 . S
C625 H615 0.929 . S
C625 C623 1.433 . S
C625 N628 1.384 . S
C626 H617 0.929 . S
C626 C618 1.378 . S
C626 C621 1.350 . S
C627 H614 0.929 . S
C627 C619 1.433 . S
C627 N629 1.384 . S
N628 C624 1.427 . S
N628 C625 1.384 . S
N629 C621 1.427 . S
N629 C627 1.384 . S
H630 C636 0.930 . S
H631 C640 0.930 . S
H632 C645 0.929 . S
H633 C643 0.929 . S
H634 C638 0.929 . S
H635 C644 0.929 . S
C636 H630 0.930 . S
C636 C637 1.367 . S
C636 C644 1.378 . S
C637 C636 1.367 . S
C637 C645 1.433 . S
C638 H634 0.929 . S
C638 C640 1.378 . S
C638 C642 1.350 1_554 S
C639 C642 1.463 . S
C639 C644 1.350 . S
C639 N647 1.427 . S
C640 H631 0.930 . S
C640 C638 1.378 . S
C640 C641 1.367 . S
C641 C640 1.367 . S
C641 C643 1.433 . S
C642 C638 1.350 1_556 S
C642 C639 1.463 . S
C642 N646 1.427 . S
C643 H633 0.929 . S
C643 C641 1.433 . S
C643 N646 1.384 1_554 S
C644 H635 0.929 . S
C644 C636 1.378 . S
C644 C639 1.350 . S
C645 H632 0.929 . S
C645 C637 1.433 . S
C645 N647 1.384 . S
N646 C642 1.427 . S
N646 C643 1.384 1_556 S
N647 C639 1.427 . S
N647 C645 1.384 . S
H648 C654 0.930 . S
H649 C658 0.930 . S
H650 C663 0.929 . S
H651 C661 0.929 . S
H652 C656 0.929 . S
H653 C662 0.929 . S
C654 H648 0.930 . S
C654 C655 1.367 . S
C654 C662 1.378 . S
C655 C654 1.367 . S
C655 C663 1.433 . S
C656 H652 0.929 . S
C656 C658 1.378 . S
C656 C660 1.350 . S
C657 C660 1.463 . S
C657 C662 1.350 . S
C657 N665 1.427 . S
C658 H649 0.930 . S
C658 C656 1.378 . S
C658 C659 1.367 . S
C659 C658 1.367 . S
C659 C661 1.433 . S
C660 C656 1.350 . S
C660 C657 1.463 . S
C660 N664 1.427 . S
C661 H651 0.929 . S
C661 C659 1.433 . S
C661 N664 1.384 . S
C662 H653 0.929 . S
C662 C654 1.378 . S
C662 C657 1.350 . S
C663 H650 0.929 . S
C663 C655 1.433 . S
C663 N665 1.384 . S
N664 C660 1.427 . S
N664 C661 1.384 . S
N665 C657 1.427 . S
N665 C663 1.384 . S
H666 C672 0.930 . S
H667 C676 0.930 . S
H668 C681 0.929 . S
H669 C679 0.929 . S
H670 C674 0.929 . S
H671 C680 0.929 . S
C672 H666 0.930 . S
C672 C673 1.367 . S
C672 C680 1.378 . S
C673 C672 1.367 . S
C673 C681 1.433 . S
C674 H670 0.929 . S
C674 C676 1.378 . S
C674 C678 1.350 . S
C675 C678 1.463 . S
C675 C680 1.350 . S
C675 N683 1.427 . S
C676 H667 0.930 . S
C676 C674 1.378 . S
C676 C677 1.367 . S
C677 C676 1.367 . S
C677 C679 1.433 . S
C678 C674 1.350 . S
C678 C675 1.463 . S
C678 N682 1.427 . S
C679 H669 0.929 . S
C679 C677 1.433 . S
C679 N682 1.384 . S
C680 H671 0.929 . S
C680 C672 1.378 . S
C680 C675 1.350 . S
C681 H668 0.929 . S
C681 C673 1.433 . S
C681 N683 1.384 . S
N682 C678 1.427 . S
N682 C679 1.384 . S
N683 C675 1.427 . S
N683 C681 1.384 . S
H684 C690 0.930 . S
H685 C694 0.930 . S
H686 C699 0.929 . S
H687 C697 0.929 . S
H688 C692 0.929 . S
H689 C698 0.929 . S
C690 H684 0.930 . S
C690 C691 1.367 . S
C690 C698 1.378 . S
C691 C690 1.367 . S
C691 C699 1.433 . S
C692 H688 0.929 . S
C692 C694 1.378 . S
C692 C696 1.350 . S
C693 C696 1.463 . S
C693 C698 1.350 . S
C693 N701 1.427 . S
C694 H685 0.930 . S
C694 C692 1.378 . S
C694 C695 1.367 . S
C695 C694 1.367 . S
C695 C697 1.433 . S
C696 C692 1.350 . S
C696 C693 1.463 . S
C696 N700 1.427 . S
C697 H687 0.929 . S
C697 C695 1.433 . S
C697 N700 1.384 . S
C698 H689 0.929 . S
C698 C690 1.378 . S
C698 C693 1.350 . S
C699 H686 0.929 . S
C699 C691 1.433 . S
C699 N701 1.384 . S
N700 C696 1.427 . S
N700 C697 1.384 . S
N701 C693 1.427 . S
N701 C699 1.384 . S
H702 C708 0.930 . S
H703 C712 0.930 . S
H704 C717 0.929 . S
H705 C715 0.929 . S
H706 C710 0.929 . S
H707 C716 0.929 . S
C708 H702 0.930 . S
C708 C709 1.367 . S
C708 C716 1.378 . S
C709 C708 1.367 . S
C709 C717 1.433 . S
C710 H706 0.929 . S
C710 C712 1.378 . S
C710 C714 1.350 . S
C711 C714 1.463 . S
C711 C716 1.350 . S
C711 N719 1.427 . S
C712 H703 0.930 . S
C712 C710 1.378 . S
C712 C713 1.367 . S
C713 C712 1.367 . S
C713 C715 1.433 . S
C714 C710 1.350 . S
C714 C711 1.463 . S
C714 N718 1.427 . S
C715 H705 0.929 . S
C715 C713 1.433 . S
C715 N718 1.384 . S
C716 H707 0.929 . S
C716 C708 1.378 . S
C716 C711 1.350 . S
C717 H704 0.929 . S
C717 C709 1.433 . S
C717 N719 1.384 . S
N718 C714 1.427 . S
N718 C715 1.384 . S
N719 C711 1.427 . S
N719 C717 1.384 . S
H720 C726 0.930 . S
H721 C730 0.930 . S
H722 C735 0.929 . S
H723 C733 0.929 . S
H724 C728 0.929 . S
H725 C734 0.929 . S
C726 H720 0.930 . S
C726 C727 1.367 . S
C726 C734 1.378 . S
C727 C726 1.367 . S
C727 C735 1.433 . S
C728 H724 0.929 . S
C728 C730 1.378 . S
C728 C732 1.350 . S
C729 C732 1.463 . S
C729 C734 1.350 . S
C729 N737 1.427 . S
C730 H721 0.930 . S
C730 C728 1.378 . S
C730 C731 1.367 . S
C731 C730 1.367 . S
C731 C733 1.433 . S
C732 C728 1.350 . S
C732 C729 1.463 . S
C732 N736 1.427 . S
C733 H723 0.929 . S
C733 C731 1.433 . S
C733 N736 1.384 . S
C734 H725 0.929 . S
C734 C726 1.378 . S
C734 C729 1.350 . S
C735 H722 0.929 . S
C735 C727 1.433 . S
C735 N737 1.384 . S
N736 C732 1.427 . S
N736 C733 1.384 . S
N737 C729 1.427 . S
N737 C735 1.384 . S
H738 C744 0.930 . S
H739 C748 0.930 . S
H740 C753 0.929 . S
H741 C751 0.929 . S
H742 C746 0.929 . S
H743 C752 0.929 . S
C744 H738 0.930 . S
C744 C745 1.367 . S
C744 C752 1.378 . S
C745 C744 1.367 . S
C745 C753 1.433 . S
C746 H742 0.929 . S
C746 C748 1.378 . S
C746 C750 1.350 . S
C747 C750 1.463 . S
C747 C752 1.350 . S
C747 N755 1.427 . S
C748 H739 0.930 . S
C748 C746 1.378 . S
C748 C749 1.367 . S
C749 C748 1.367 . S
C749 C751 1.433 . S
C750 C746 1.350 . S
C750 C747 1.463 . S
C750 N754 1.427 . S
C751 H741 0.929 . S
C751 C749 1.433 . S
C751 N754 1.384 . S
C752 H743 0.929 . S
C752 C744 1.378 . S
C752 C747 1.350 . S
C753 H740 0.929 . S
C753 C745 1.433 . S
C753 N755 1.384 . S
N754 C750 1.427 . S
N754 C751 1.384 . S
N755 C747 1.427 . S
N755 C753 1.384 . S
H756 C762 0.930 . S
H757 C766 0.930 . S
H758 C771 0.929 . S
H759 C769 0.929 . S
H760 C764 0.929 . S
H761 C770 0.929 . S
C762 H756 0.930 . S
C762 C763 1.367 . S
C762 C770 1.378 . S
C763 C762 1.367 . S
C763 C771 1.433 . S
C764 H760 0.929 . S
C764 C766 1.378 . S
C764 C768 1.350 . S
C765 C768 1.463 1_554 S
C765 C770 1.350 . S
C765 N773 1.427 . S
C766 H757 0.930 . S
C766 C764 1.378 . S
C766 C767 1.367 . S
C767 C766 1.367 . S
C767 C769 1.433 . S
C768 C764 1.350 . S
C768 C765 1.463 1_556 S
C768 N772 1.427 1_556 S
C769 H759 0.929 . S
C769 C767 1.433 . S
C769 N772 1.384 1_556 S
C770 H761 0.929 . S
C770 C762 1.378 . S
C770 C765 1.350 . S
C771 H758 0.929 . S
C771 C763 1.433 . S
C771 N773 1.384 . S
N772 C768 1.427 1_554 S
N772 C769 1.384 1_554 S
N773 C765 1.427 . S
N773 C771 1.384 . S
H774 C780 0.930 . S
H775 C784 0.930 . S
H776 C789 0.929 . S
H777 C787 0.929 . S
H778 C782 0.929 . S
H779 C788 0.929 . S
C780 H774 0.930 . S
C780 C781 1.367 . S
C780 C788 1.378 . S
C781 C780 1.367 . S
C781 C789 1.433 . S
C782 H778 0.929 . S
C782 C784 1.378 . S
C782 C786 1.350 . S
C783 C786 1.463 . S
C783 C788 1.350 . S
C783 N791 1.427 . S
C784 H775 0.930 . S
C784 C782 1.378 . S
C784 C785 1.367 . S
C785 C784 1.367 . S
C785 C787 1.433 . S
C786 C782 1.350 . S
C786 C783 1.463 . S
C786 N790 1.427 . S
C787 H777 0.929 . S
C787 C785 1.433 . S
C787 N790 1.384 . S
C788 H779 0.929 . S
C788 C780 1.378 . S
C788 C783 1.350 . S
C789 H776 0.929 . S
C789 C781 1.433 . S
C789 N791 1.384 . S
N790 C786 1.427 . S
N790 C787 1.384 . S
N791 C783 1.427 . S
N791 C789 1.384 . S
C371 C346 1.609 . S
C367 C15 1.590 . S
C385 C61 1.589 . S
C389 C287 1.620 . S
C403 C114 1.566 . S
C407 C290 1.598 . S
C421 C139 1.600 . S
C425 C304 1.609 . S
C443 C329 1.620 . S
C439 C185 1.602 . S
C457 C245 1.565 . S
C461 C332 1.598 . S
C475 C47 1.566 . S
C479 C301 1.582 . S
C493 C100 1.580 . S
C497 C315 1.592 . S
C511 C153 1.553 . S
C515 C318 1.571 . S
C533 C343 1.583 . S
C529 C199 1.553 . S
C551 C357 1.594 . S
C547 C231 1.580 . S
C569 C276 1.571 . S
C565 C1 1.561 . S
C583 C22 1.470 . S
C587 C299 1.467 . S
C601 C68 1.483 . S
C605 C313 1.482 . S
C623 C323 1.486 . S
C619 C107 1.483 . S
C637 C146 1.470 . S
C641 C341 1.464 . S
C659 C355 1.478 . S
C655 C192 1.485 . S
C677 C281 1.486 . S
C673 C252 1.483 . S
C695 C351 1.512 . S
C691 C54 1.508 . S
C709 C93 1.493 . S
C713 C285 1.489 . S
C731 C295 1.498 . S
C727 C160 1.493 . S
C745 C206 1.508 . S
C749 C309 1.513 . S
C763 C238 1.490 . S
C767 C327 1.489 . S
C781 C8 1.494 . S
C785 C337 1.498 . S
