# Generated by pormake.
# Topology ptr, (4,4)-cn, num edge types: 1
# Building blocks:
#     Node 0, Type 0, BuildingBlock: CEKHIL_clean_sbu_0, # of connection points: 4
#     Node 1, Type 0, BuildingBlock: CEKHIL_clean_sbu_0, # of connection points: 4
#     Node 2, Type 0, BuildingBlock: CEKHIL_clean_sbu_0, # of connection points: 4
#     Node 3, Type 0, BuildingBlock: CEKHIL_clean_sbu_0, # of connection points: 4
#     Node 4, Type 0, BuildingBlock: CEKHIL_clean_sbu_0, # of connection points: 4
#     Node 5, Type 0, BuildingBlock: CEKHIL_clean_sbu_0, # of connection points: 4
#     Node 6, Type 0, BuildingBlock: CEKHIL_clean_sbu_0, # of connection points: 4
#     Node 7, Type 0, BuildingBlock: CEKHIL_clean_sbu_0, # of connection points: 4
#     Node 8, Type 0, BuildingBlock: CEKHIL_clean_sbu_0, # of connection points: 4
#     Node 9, Type 0, BuildingBlock: CEKHIL_clean_sbu_0, # of connection points: 4
#     Node 10, Type 0, BuildingBlock: CEKHIL_clean_sbu_0, # of connection points: 4
#     Node 11, Type 0, BuildingBlock: CEKHIL_clean_sbu_0, # of connection points: 4
#     Node 12, Type 0, BuildingBlock: CEKHIL_clean_sbu_0, # of connection points: 4
#     Node 13, Type 0, BuildingBlock: CEKHIL_clean_sbu_0, # of connection points: 4
#     Node 14, Type 0, BuildingBlock: CEKHIL_clean_sbu_0, # of connection points: 4
#     Node 15, Type 0, BuildingBlock: CEKHIL_clean_sbu_0, # of connection points: 4
#     Node 16, Type 0, BuildingBlock: CEKHIL_clean_sbu_0, # of connection points: 4
#     Node 17, Type 0, BuildingBlock: CEKHIL_clean_sbu_0, # of connection points: 4
#     Node 18, Type 1, BuildingBlock: MUDLON_clean_linker_0, # of connection points: 4
#     Node 19, Type 1, BuildingBlock: MUDLON_clean_linker_0, # of connection points: 4
#     Node 20, Type 1, BuildingBlock: MUDLON_clean_linker_0, # of connection points: 4
#     Node 21, Type 1, BuildingBlock: MUDLON_clean_linker_0, # of connection points: 4
#     Node 22, Type 1, BuildingBlock: MUDLON_clean_linker_0, # of connection points: 4
#     Node 23, Type 1, BuildingBlock: MUDLON_clean_linker_0, # of connection points: 4
#     Node 24, Type 1, BuildingBlock: MUDLON_clean_linker_0, # of connection points: 4
#     Node 25, Type 1, BuildingBlock: MUDLON_clean_linker_0, # of connection points: 4
#     Node 26, Type 1, BuildingBlock: MUDLON_clean_linker_0, # of connection points: 4
#     Node 27, Type 1, BuildingBlock: MUDLON_clean_linker_0, # of connection points: 4
#     Node 28, Type 1, BuildingBlock: MUDLON_clean_linker_0, # of connection points: 4
#     Node 29, Type 1, BuildingBlock: MUDLON_clean_linker_0, # of connection points: 4
#     Node 30, Type 1, BuildingBlock: MUDLON_clean_linker_0, # of connection points: 4
#     Node 31, Type 1, BuildingBlock: MUDLON_clean_linker_0, # of connection points: 4
#     Node 32, Type 1, BuildingBlock: MUDLON_clean_linker_0, # of connection points: 4
#     Node 33, Type 1, BuildingBlock: MUDLON_clean_linker_0, # of connection points: 4
#     Node 34, Type 1, BuildingBlock: MUDLON_clean_linker_0, # of connection points: 4
#     Node 35, Type 1, BuildingBlock: MUDLON_clean_linker_0, # of connection points: 4
#     Edge 36, Type (0, 1), BuildingBlock: KIFKEQ_clean_linker_1, # of connection points: 2
#     Edge 37, Type (0, 1), BuildingBlock: KIFKEQ_clean_linker_1, # of connection points: 2
#     Edge 38, Type (0, 1), BuildingBlock: KIFKEQ_clean_linker_1, # of connection points: 2
#     Edge 39, Type (0, 1), BuildingBlock: KIFKEQ_clean_linker_1, # of connection points: 2
#     Edge 40, Type (0, 1), BuildingBlock: KIFKEQ_clean_linker_1, # of connection points: 2
#     Edge 41, Type (0, 1), BuildingBlock: KIFKEQ_clean_linker_1, # of connection points: 2
#     Edge 42, Type (0, 1), BuildingBlock: KIFKEQ_clean_linker_1, # of connection points: 2
#     Edge 43, Type (0, 1), BuildingBlock: KIFKEQ_clean_linker_1, # of connection points: 2
#     Edge 44, Type (0, 1), BuildingBlock: KIFKEQ_clean_linker_1, # of connection points: 2
#     Edge 45, Type (0, 1), BuildingBlock: KIFKEQ_clean_linker_1, # of connection points: 2
#     Edge 46, Type (0, 1), BuildingBlock: KIFKEQ_clean_linker_1, # of connection points: 2
#     Edge 47, Type (0, 1), BuildingBlock: KIFKEQ_clean_linker_1, # of connection points: 2
#     Edge 48, Type (0, 1), BuildingBlock: KIFKEQ_clean_linker_1, # of connection points: 2
#     Edge 49, Type (0, 1), BuildingBlock: KIFKEQ_clean_linker_1, # of connection points: 2
#     Edge 50, Type (0, 1), BuildingBlock: KIFKEQ_clean_linker_1, # of connection points: 2
#     Edge 51, Type (0, 1), BuildingBlock: KIFKEQ_clean_linker_1, # of connection points: 2
#     Edge 52, Type (0, 1), BuildingBlock: KIFKEQ_clean_linker_1, # of connection points: 2
#     Edge 53, Type (0, 1), BuildingBlock: KIFKEQ_clean_linker_1, # of connection points: 2
#     Edge 54, Type (0, 1), BuildingBlock: KIFKEQ_clean_linker_1, # of connection points: 2
#     Edge 55, Type (0, 1), BuildingBlock: KIFKEQ_clean_linker_1, # of connection points: 2
#     Edge 56, Type (0, 1), BuildingBlock: KIFKEQ_clean_linker_1, # of connection points: 2
#     Edge 57, Type (0, 1), BuildingBlock: KIFKEQ_clean_linker_1, # of connection points: 2
#     Edge 58, Type (0, 1), BuildingBlock: KIFKEQ_clean_linker_1, # of connection points: 2
#     Edge 59, Type (0, 1), BuildingBlock: KIFKEQ_clean_linker_1, # of connection points: 2
#     Edge 60, Type (0, 1), BuildingBlock: KIFKEQ_clean_linker_1, # of connection points: 2
#     Edge 61, Type (0, 1), BuildingBlock: KIFKEQ_clean_linker_1, # of connection points: 2
#     Edge 62, Type (0, 1), BuildingBlock: KIFKEQ_clean_linker_1, # of connection points: 2
#     Edge 63, Type (0, 1), BuildingBlock: KIFKEQ_clean_linker_1, # of connection points: 2
#     Edge 64, Type (0, 1), BuildingBlock: KIFKEQ_clean_linker_1, # of connection points: 2
#     Edge 65, Type (0, 1), BuildingBlock: KIFKEQ_clean_linker_1, # of connection points: 2
#     Edge 66, Type (0, 1), BuildingBlock: KIFKEQ_clean_linker_1, # of connection points: 2
#     Edge 67, Type (0, 1), BuildingBlock: KIFKEQ_clean_linker_1, # of connection points: 2
#     Edge 68, Type (0, 1), BuildingBlock: KIFKEQ_clean_linker_1, # of connection points: 2
#     Edge 69, Type (0, 1), BuildingBlock: KIFKEQ_clean_linker_1, # of connection points: 2
#     Edge 70, Type (0, 1), BuildingBlock: KIFKEQ_clean_linker_1, # of connection points: 2
#     Edge 71, Type (0, 1), BuildingBlock: KIFKEQ_clean_linker_1, # of connection points: 2
#     Edge 72, Type (0, 1), BuildingBlock: KIFKEQ_clean_linker_1, # of connection points: 2
#     Edge 73, Type (0, 1), BuildingBlock: KIFKEQ_clean_linker_1, # of connection points: 2
#     Edge 74, Type (0, 1), BuildingBlock: KIFKEQ_clean_linker_1, # of connection points: 2
#     Edge 75, Type (0, 1), BuildingBlock: KIFKEQ_clean_linker_1, # of connection points: 2
#     Edge 76, Type (0, 1), BuildingBlock: KIFKEQ_clean_linker_1, # of connection points: 2
#     Edge 77, Type (0, 1), BuildingBlock: KIFKEQ_clean_linker_1, # of connection points: 2
#     Edge 78, Type (0, 1), BuildingBlock: KIFKEQ_clean_linker_1, # of connection points: 2
#     Edge 79, Type (0, 1), BuildingBlock: KIFKEQ_clean_linker_1, # of connection points: 2
#     Edge 80, Type (0, 1), BuildingBlock: KIFKEQ_clean_linker_1, # of connection points: 2
#     Edge 81, Type (0, 1), BuildingBlock: KIFKEQ_clean_linker_1, # of connection points: 2
#     Edge 82, Type (0, 1), BuildingBlock: KIFKEQ_clean_linker_1, # of connection points: 2
#     Edge 83, Type (0, 1), BuildingBlock: KIFKEQ_clean_linker_1, # of connection points: 2
#     Edge 84, Type (0, 1), BuildingBlock: KIFKEQ_clean_linker_1, # of connection points: 2
#     Edge 85, Type (0, 1), BuildingBlock: KIFKEQ_clean_linker_1, # of connection points: 2
#     Edge 86, Type (0, 1), BuildingBlock: KIFKEQ_clean_linker_1, # of connection points: 2
#     Edge 87, Type (0, 1), BuildingBlock: KIFKEQ_clean_linker_1, # of connection points: 2
#     Edge 88, Type (0, 1), BuildingBlock: KIFKEQ_clean_linker_1, # of connection points: 2
#     Edge 89, Type (0, 1), BuildingBlock: KIFKEQ_clean_linker_1, # of connection points: 2
#     Edge 90, Type (0, 1), BuildingBlock: KIFKEQ_clean_linker_1, # of connection points: 2
#     Edge 91, Type (0, 1), BuildingBlock: KIFKEQ_clean_linker_1, # of connection points: 2
#     Edge 92, Type (0, 1), BuildingBlock: KIFKEQ_clean_linker_1, # of connection points: 2
#     Edge 93, Type (0, 1), BuildingBlock: KIFKEQ_clean_linker_1, # of connection points: 2
#     Edge 94, Type (0, 1), BuildingBlock: KIFKEQ_clean_linker_1, # of connection points: 2
#     Edge 95, Type (0, 1), BuildingBlock: KIFKEQ_clean_linker_1, # of connection points: 2
#     Edge 96, Type (0, 1), BuildingBlock: KIFKEQ_clean_linker_1, # of connection points: 2
#     Edge 97, Type (0, 1), BuildingBlock: KIFKEQ_clean_linker_1, # of connection points: 2
#     Edge 98, Type (0, 1), BuildingBlock: KIFKEQ_clean_linker_1, # of connection points: 2
#     Edge 99, Type (0, 1), BuildingBlock: KIFKEQ_clean_linker_1, # of connection points: 2
#     Edge 100, Type (0, 1), BuildingBlock: KIFKEQ_clean_linker_1, # of connection points: 2
#     Edge 101, Type (0, 1), BuildingBlock: KIFKEQ_clean_linker_1, # of connection points: 2
#     Edge 102, Type (0, 1), BuildingBlock: KIFKEQ_clean_linker_1, # of connection points: 2
#     Edge 103, Type (0, 1), BuildingBlock: KIFKEQ_clean_linker_1, # of connection points: 2
#     Edge 104, Type (0, 1), BuildingBlock: KIFKEQ_clean_linker_1, # of connection points: 2
#     Edge 105, Type (0, 1), BuildingBlock: KIFKEQ_clean_linker_1, # of connection points: 2
#     Edge 106, Type (0, 1), BuildingBlock: KIFKEQ_clean_linker_1, # of connection points: 2
#     Edge 107, Type (0, 1), BuildingBlock: KIFKEQ_clean_linker_1, # of connection points: 2
# Relax obj value: 0.033
# Max RMSD: 0.098
# Mean RMSD: 0.064
data_MOF--net-ptr--node1-CEKHIL_clean_sbu_0--node2-MUDLON_clean_linker_0--edge1-KIFKEQ_clean_linker_1
_symmetry_space_group_name_H-M    P1
_symmetry_Int_Tables_number       1
_symmetry_cell_setting            triclinic
loop_
_symmetry_equiv_pos_as_xyz
'x, y, z'
_cell_length_a     106.71849
_cell_length_b     105.6966
_cell_length_c     65.125737
_cell_angle_alpha  90.865738
_cell_angle_beta   89.556463
_cell_angle_gamma 120.89161
loop_
_atom_site_label
_atom_site_type_symbol
_atom_site_fract_x
_atom_site_fract_y
_atom_site_fract_z
_atom_type_partial_charge
Co0 Co 0.00493 0.35712 0.01569 0.0
O1 O 0.01178 0.34708 0.03234 0.0
O2 O 0.0261 0.36725 0.01471 0.0
C3 C 0.98704 0.33669 -0.00013 0.0
O4 O 1.00164 0.37003 0.99613 0.0
Co5 Co 0.97348 0.35109 0.02194 0.0
O6 O 0.97812 0.364 0.99779 0.0
C7 C 0.99624 0.36964 0.05188 0.0
C8 C 0.02488 0.35698 0.0268 0.0
C9 C 0.99091 0.37139 0.99016 0.0
O10 O 0.00595 0.36977 0.0399 0.0
O11 O 0.9825 0.36162 0.04854 0.0
O12 O 1.00043 0.34289 0.99338 0.0
O13 O 0.98516 0.34216 0.01668 0.0
Co14 Co 0.649 0.65055 0.01307 0.0
O15 O 0.66307 0.66003 0.99151 0.0
O16 O 0.65946 0.6403 0.00813 0.0
C17 C 0.65479 0.67146 0.03048 0.0
O18 O 0.63597 0.63804 0.03648 0.0
Co19 Co 0.62386 0.65687 0.02012 0.0
O20 O 0.62085 0.64599 0.04604 0.0
C21 C 0.6228 0.63843 0.98492 0.0
C22 C 0.66679 0.65027 0.9944 0.0
C23 C 0.6263 0.63786 0.04861 0.0
O24 O 0.63357 0.63773 0.99232 0.0
O25 O 0.6183 0.64664 0.99254 0.0
O26 O 0.66248 0.66525 0.03282 0.0
O27 O 0.64469 0.66555 0.01667 0.0
Co28 Co 0.35712 0.00126 0.01024 0.0
O29 O 0.34958 0.00863 0.98983 0.0
O30 O 0.36836 0.02261 0.01022 0.0
C31 C 0.33525 0.98485 0.02384 0.0
O32 O 0.36778 0.9979 0.03352 0.0
Co33 Co 0.34891 0.96851 0.01078 0.0
O34 O 0.35792 0.97362 0.03842 0.0
C35 C 0.37108 0.9891 0.98131 0.0
C36 C 0.35959 0.02175 0.9958 0.0
C37 C 0.36653 0.987 0.04382 0.0
O38 O 0.37044 1.00005 0.98908 0.0
O39 O 0.36291 0.97576 0.98713 0.0
O40 O 0.34187 0.99862 0.02956 0.0
O41 O 0.34143 0.98168 0.00919 0.0
Co42 Co 1.00033 0.6479 0.01053 0.0
O43 O 0.99483 0.65743 0.99082 0.0
O44 O 0.97916 0.63808 0.0089 0.0
C45 C 0.01736 0.66888 0.02624 0.0
O46 O 0.00227 0.63566 0.03285 0.0
Co47 Co 0.03185 0.65356 0.00972 0.0
O48 O 0.02611 0.64341 0.03653 0.0
C49 C 0.01074 0.63405 0.97849 0.0
C50 C 0.98137 0.64798 0.99538 0.0
C51 C 0.01284 0.63566 0.04229 0.0
O52 O 1.00049 0.63441 0.98849 0.0
O53 O 0.02427 0.64201 0.98327 0.0
O54 O 0.00364 0.66293 0.03098 0.0
O55 O 0.02016 0.66273 0.011 0.0
Co56 Co 0.35583 0.35359 0.01439 0.0
O57 O 0.34067 0.34505 0.03479 0.0
O58 O 0.34669 0.36531 0.01755 0.0
C59 C 0.34917 0.33225 0.99752 0.0
O60 O 0.37038 0.36543 0.99185 0.0
Co61 Co 0.37922 0.34459 0.01031 0.0
O62 O 0.38465 0.35605 0.98462 0.0
C63 C 0.38118 0.36451 0.04421 0.0
C64 C 0.33833 0.35569 0.03111 0.0
C65 C 0.38028 0.36497 0.98096 0.0
O66 O 0.37068 0.36551 0.03639 0.0
O67 O 0.38529 0.35588 0.03697 0.0
O68 O 0.34269 0.33954 0.99368 0.0
O69 O 0.35857 0.33746 0.01226 0.0
Co70 Co 0.64566 0.00089 0.01499 0.0
O71 O 0.6547 0.99439 0.03405 0.0
O72 O 0.63589 0.97948 0.01433 0.0
C73 C 0.66666 0.01865 0.0008 0.0
O74 O 0.63392 0.0039 0.99303 0.0
Co75 Co 0.65143 0.03267 0.01923 0.0
O76 O 0.64091 0.02793 0.99265 0.0
C77 C 0.63158 0.01012 0.04826 0.0
C78 C 0.64538 0.98104 0.02811 0.0
C79 C 0.63356 0.01486 0.98528 0.0
O80 O 0.63201 1.00017 0.03716 0.0
O81 O 0.63963 0.02394 0.04487 0.0
O82 O 0.66073 0.00501 0.99471 0.0
O83 O 0.66051 0.02089 0.01649 0.0
Co84 Co 0.6705 0.69096 0.3484 0.0
O85 O 0.67562 0.68152 0.36897 0.0
O86 O 0.69149 0.7014 0.35195 0.0
C87 C 0.65477 0.6699 0.33151 0.0
O88 O 0.66956 0.70353 0.3257 0.0
Co89 Co 0.63885 0.68435 0.34304 0.0
O90 O 0.64621 0.69457 0.3165 0.0
C91 C 0.65709 0.70346 0.3775 0.0
C92 C 0.68914 0.69142 0.36538 0.0
C93 C 0.65985 0.70316 0.31369 0.0
O94 O 0.66836 0.7035 0.37019 0.0
O95 O 0.64429 0.69571 0.36972 0.0
O96 O 0.66871 0.67643 0.32793 0.0
O97 O 0.65092 0.67574 0.34591 0.0
Co98 Co 0.31365 0.9825 0.34695 0.0
O99 O 0.32879 0.99209 0.3268 0.0
O100 O 0.3237 0.97168 0.34281 0.0
C101 C 0.31938 0.00335 0.36457 0.0
O102 O 0.29934 0.96982 0.36932 0.0
Co103 Co 0.28918 0.99004 0.35165 0.0
O104 O 0.28395 0.97788 0.37661 0.0
C105 C 0.28843 0.97137 0.31684 0.0
C106 C 0.33187 0.98188 0.32978 0.0
C107 C 0.28899 0.96949 0.38009 0.0
O108 O 0.29904 0.97055 0.32468 0.0
O109 O 0.28387 0.97954 0.3244 0.0
O110 O 0.32644 0.99657 0.36798 0.0
O111 O 0.30996 0.99793 0.34988 0.0
Co112 Co 0.02475 0.3343 0.3449 0.0
O113 O 0.01615 0.34043 0.32441 0.0
O114 O 0.03587 0.35558 0.34244 0.0
C115 C 0.00346 0.31865 0.36064 0.0
O116 O 0.0364 0.33219 0.36803 0.0
Co117 Co 0.01679 0.30172 0.34775 0.0
O118 O 0.02712 0.30815 0.37442 0.0
C119 C 0.03674 0.32063 0.31505 0.0
C120 C 0.02628 0.35387 0.32876 0.0
C121 C 0.0357 0.32173 0.37886 0.0
O122 O 0.0372 0.33203 0.32326 0.0
O123 O 0.02843 0.30753 0.32166 0.0
O124 O 0.01026 0.33268 0.36488 0.0
O125 O 0.00913 0.31474 0.34613 0.0
Co126 Co 0.66751 0.98026 0.34255 0.0
O127 O 0.66101 0.98955 0.32362 0.0
O128 O 0.64641 0.96926 0.341 0.0
C129 C 0.68391 0.0014 0.35866 0.0
O130 O 0.66993 0.9679 0.36427 0.0
Co131 Co 0.69956 0.98735 0.34376 0.0
O132 O 0.69375 0.97679 0.37017 0.0
C133 C 0.67942 0.96702 0.31176 0.0
C134 C 0.64783 0.97923 0.32819 0.0
C135 C 0.68034 0.9682 0.37458 0.0
O136 O 0.66871 0.96776 0.31968 0.0
O137 O 0.69254 0.97455 0.31846 0.0
O138 O 0.67019 0.99481 0.36368 0.0
O139 O 0.68706 0.99561 0.34337 0.0
Co140 Co 0.02283 0.68611 0.34909 0.0
O141 O 0.00878 0.67745 0.37093 0.0
O142 O 0.01274 0.69685 0.35315 0.0
C143 C 0.01652 0.66459 0.33289 0.0
O144 O 0.03587 0.69786 0.32505 0.0
Co145 Co 0.0474 0.6789 0.34242 0.0
O146 O 0.05025 0.68895 0.31594 0.0
C147 C 0.05049 0.70017 0.37506 0.0
C148 C 0.00533 0.68733 0.36735 0.0
C149 C 0.04524 0.69741 0.31291 0.0
O150 O 0.0385 0.69929 0.36949 0.0
O151 O 0.05535 0.69242 0.36694 0.0
O152 O 0.00908 0.67101 0.32994 0.0
O153 O 0.02671 0.67071 0.34653 0.0
Co154 Co 0.31359 0.33703 0.3465 0.0
O155 O 0.32355 0.33227 0.36658 0.0
O156 O 0.3035 0.31583 0.35023 0.0
C157 C 0.33394 0.35289 0.329 0.0
O158 O 0.30068 0.33781 0.32414 0.0
Co159 Co 0.31999 0.3691 0.34307 0.0
O160 O 0.30757 0.36143 0.31822 0.0
C161 C 0.30198 0.35049 0.37725 0.0
C162 C 0.31378 0.31853 0.3633 0.0
C163 C 0.29975 0.3477 0.31406 0.0
O164 O 0.30146 0.33914 0.36875 0.0
O165 O 0.30987 0.36358 0.37038 0.0
O166 O 0.32759 0.33878 0.32559 0.0
O167 O 0.32852 0.35682 0.34383 0.0
Co168 Co 0.33747 0.02559 0.68082 0.0
O169 O 0.34305 0.01675 0.70172 0.0
O170 O 0.35846 0.03668 0.6844 0.0
C171 C 0.32216 0.00428 0.66412 0.0
O172 O 0.33598 0.03764 0.65787 0.0
Co173 Co 0.30535 0.01791 0.67603 0.0
O174 O 0.31244 0.02894 0.64996 0.0
C175 C 0.32331 0.03674 0.71057 0.0
C176 C 0.35646 0.02699 0.69811 0.0
C177 C 0.32604 0.03745 0.64659 0.0
O178 O 0.33488 0.03806 0.7022 0.0
O179 O 0.3104 0.02807 0.70368 0.0
O180 O 0.33613 0.01099 0.66075 0.0
O181 O 0.31807 0.01 0.67838 0.0
Co182 Co 0.98481 0.3184 0.67965 0.0
O183 O 1.00091 0.32862 0.66107 0.0
O184 O 0.99526 0.30792 0.67674 0.0
C185 C 0.98922 0.33865 0.69783 0.0
O186 O 0.96942 0.30512 0.70049 0.0
Co187 Co 0.95989 0.32553 0.68063 0.0
O188 O 0.9531 0.3124 0.70475 0.0
C189 C 0.96176 0.30812 0.64632 0.0
C190 C 0.00401 0.31848 0.66454 0.0
C191 C 0.95818 0.30422 0.70943 0.0
O192 O 0.9714 0.3067 0.65611 0.0
O193 O 0.95704 0.31648 0.65248 0.0
O194 O 0.99638 0.33208 0.70182 0.0
O195 O 0.98069 0.33358 0.68209 0.0
Co196 Co 0.69252 0.66784 0.67776 0.0
O197 O 0.68256 0.67329 0.65851 0.0
O198 O 0.70223 0.68912 0.67615 0.0
C199 C 0.67205 0.65072 0.69383 0.0
O200 O 0.70539 0.66664 0.69976 0.0
Co201 Co 0.68738 0.63624 0.67933 0.0
O202 O 0.69872 0.64306 0.70518 0.0
C203 C 0.70672 0.65675 0.64739 0.0
C204 C 0.69209 0.68691 0.66312 0.0
C205 C 0.70632 0.65673 0.70977 0.0
O206 O 0.7053 0.66724 0.65512 0.0
O207 O 0.69989 0.64356 0.65415 0.0
O208 O 0.67805 0.66459 0.6988 0.0
O209 O 0.67797 0.64774 0.6786 0.0
Co210 Co 0.3361 0.31519 0.67701 0.0
O211 O 0.3297 0.32335 0.65614 0.0
O212 O 0.31504 0.30378 0.67466 0.0
C213 C 0.35163 0.33687 0.69272 0.0
O214 O 0.33845 0.30379 0.70021 0.0
Co215 Co 0.36849 0.32347 0.68028 0.0
O216 O 0.36222 0.31246 0.70633 0.0
C217 C 0.34958 0.30281 0.64767 0.0
C218 C 0.31648 0.31304 0.66059 0.0
C219 C 0.34876 0.30403 0.7107 0.0
O220 O 0.3383 0.30238 0.65571 0.0
O221 O 0.3626 0.3114 0.65426 0.0
O222 O 0.33774 0.33006 0.69678 0.0
O223 O 0.35546 0.33103 0.67829 0.0
Co224 Co 0.69009 0.0218 0.68052 0.0
O225 O 0.67423 0.01183 0.69964 0.0
O226 O 0.67962 0.03224 0.68326 0.0
C227 C 0.68551 0.00124 0.66302 0.0
O228 O 0.70498 0.03478 0.6589 0.0
Co229 Co 0.71536 0.0153 0.67863 0.0
O230 O 0.72184 0.02822 0.65445 0.0
C231 C 0.71526 0.03493 0.7113 0.0
C232 C 0.67107 0.02189 0.69586 0.0
C233 C 0.71628 0.03596 0.64979 0.0
O234 O 0.70379 0.03408 0.70352 0.0
O235 O 0.72097 0.02765 0.70433 0.0
O236 O 0.67824 0.00771 0.65903 0.0
O237 O 0.69438 0.00665 0.6784 0.0
Co238 Co 0.97914 0.66997 0.68014 0.0
O239 O 0.98837 0.66442 0.7005 0.0
O240 O 0.96855 0.64875 0.68303 0.0
C241 C 1.00005 0.68591 0.66378 0.0
O242 O 0.96686 0.67128 0.65733 0.0
Co243 Co 0.98597 0.70209 0.67608 0.0
O244 O 0.97596 0.69502 0.6492 0.0
C245 C 0.96655 0.68333 0.70942 0.0
C246 C 0.97839 0.65084 0.6965 0.0
C247 C 0.9674 0.68129 0.64569 0.0
O248 O 0.96669 0.67205 0.7019 0.0
O249 O 0.97429 0.69633 0.70217 0.0
O250 O 0.99353 0.67185 0.65976 0.0
O251 O 0.99434 0.68972 0.67836 0.0
H252 H 0.21898 0.34478 0.16976 0.0
N253 N 0.21135 0.32434 0.1388 0.0
H254 H 0.231 0.34554 0.20182 0.0
H255 H 0.21531 0.30335 0.15352 0.0
H256 H 0.22679 0.30363 0.18606 0.0
H257 H 0.21461 0.3121 0.10481 0.0
H258 H 0.23634 0.32201 0.08292 0.0
H259 H 0.23444 0.35288 0.13953 0.0
H260 H 0.25613 0.36277 0.11789 0.0
H261 H 0.21083 0.34998 0.1347 0.0
H262 H 0.18375 0.30285 0.14038 0.0
H263 H 0.18907 0.35198 0.13247 0.0
H264 H 0.16193 0.30474 0.13907 0.0
H265 H 0.12433 0.35279 0.15874 0.0
H266 H 0.11159 0.35255 0.19029 0.0
H267 H 0.09027 0.30502 0.19142 0.0
H268 H 0.10277 0.30543 0.15954 0.0
H269 H 0.09639 0.31142 0.11462 0.0
H270 H 0.08454 0.31892 0.08979 0.0
H271 H 0.1197 0.36422 0.09659 0.0
H272 H 0.13134 0.35644 0.12187 0.0
H273 H 0.1462 0.3503 0.15199 0.0
H274 H 0.16899 0.34997 0.15182 0.0
H275 H 0.14778 0.30935 0.11631 0.0
N276 N 0.11993 0.3287 0.13677 0.0
H277 H 0.12497 0.30948 0.11756 0.0
C278 C 0.21633 0.32401 0.15919 0.0
C279 C 0.22048 0.33567 0.17331 0.0
C280 C 0.22729 0.33603 0.19175 0.0
C281 C 0.23 0.32469 0.19652 0.0
C282 C 0.22515 0.31269 0.18275 0.0
C283 C 0.21845 0.31241 0.16426 0.0
C284 C 0.22288 0.33162 0.12387 0.0
C285 C 0.22346 0.32332 0.10733 0.0
C286 C 0.23588 0.32901 0.09485 0.0
C287 C 0.248 0.34312 0.09885 0.0
C288 C 0.24702 0.3518 0.11461 0.0
C289 C 0.23456 0.34615 0.12695 0.0
C290 C 0.19889 0.32617 0.13741 0.0
C291 C 0.20022 0.34005 0.13545 0.0
C292 C 0.18772 0.34119 0.13435 0.0
C293 C 0.17367 0.32851 0.13538 0.0
C294 C 0.1725 0.31472 0.13767 0.0
C295 C 0.18495 0.3136 0.13859 0.0
C296 C 0.11438 0.32908 0.15681 0.0
C297 C 0.11707 0.34236 0.16597 0.0
C298 C 0.10981 0.3422 0.18404 0.0
C299 C 0.09975 0.32875 0.19324 0.0
C300 C 0.0977 0.31555 0.18451 0.0
C301 C 0.10492 0.31574 0.16645 0.0
C302 C 0.11466 0.33335 0.11999 0.0
C303 C 0.10166 0.32291 0.11037 0.0
C304 C 0.09496 0.32725 0.09612 0.0
C305 C 0.10116 0.34221 0.09112 0.0
C306 C 0.11456 0.35264 0.10023 0.0
C307 C 0.12127 0.34823 0.11456 0.0
C308 C 0.13387 0.32976 0.13503 0.0
C309 C 0.14652 0.34137 0.14415 0.0
C310 C 0.15958 0.34121 0.1439 0.0
C311 C 0.16023 0.3295 0.13432 0.0
C312 C 0.14765 0.31832 0.12433 0.0
C313 C 0.13463 0.31843 0.12482 0.0
H314 H 0.70925 0.79483 0.16343 0.0
N315 N 0.69064 0.80106 0.14645 0.0
H316 H 0.7054 0.78015 0.19381 0.0
H317 H 0.66863 0.79322 0.17483 0.0
H318 H 0.66521 0.77961 0.20603 0.0
H319 H 0.66278 0.77906 0.13762 0.0
H320 H 0.65594 0.75797 0.11453 0.0
H321 H 0.70786 0.79789 0.12007 0.0
H322 H 0.70114 0.7765 0.09755 0.0
H323 H 0.71195 0.82854 0.14067 0.0
H324 H 0.66512 0.80159 0.14475 0.0
H325 H 0.71002 0.85025 0.13536 0.0
H326 H 0.66304 0.82329 0.14134 0.0
H327 H 0.69781 0.9193 0.14471 0.0
H328 H 0.6934 0.92982 0.17578 0.0
H329 H 0.65866 0.88647 0.19301 0.0
H330 H 0.66293 0.87605 0.16159 0.0
H331 H 0.65478 0.88396 0.12711 0.0
H332 H 0.64615 0.89476 0.1022 0.0
H333 H 0.68789 0.91442 0.07122 0.0
H334 H 0.69669 0.90437 0.09718 0.0
H335 H 0.70445 0.88894 0.14828 0.0
H336 H 0.70578 0.86681 0.15206 0.0
H337 H 0.66432 0.84142 0.12063 0.0
N338 N 0.68324 0.89143 0.13187 0.0
H339 H 0.66263 0.86353 0.11849 0.0
C340 C 0.68934 0.79523 0.16674 0.0
C341 C 0.69976 0.79176 0.17293 0.0
C342 C 0.69753 0.78337 0.19042 0.0
C343 C 0.68488 0.77846 0.20245 0.0
C344 C 0.67489 0.78279 0.19692 0.0
C345 C 0.67697 0.79087 0.17911 0.0
C346 C 0.68584 0.79018 0.13024 0.0
C347 C 0.67112 0.77895 0.12824 0.0
C348 C 0.66724 0.76684 0.1152 0.0
C349 C 0.67805 0.76568 0.10441 0.0
C350 C 0.69264 0.77721 0.10575 0.0
C351 C 0.69646 0.78942 0.11844 0.0
C352 C 0.68879 0.81351 0.14362 0.0
C353 C 0.70126 0.82738 0.14078 0.0
C354 C 0.70009 0.8398 0.13794 0.0
C355 C 0.68636 0.83871 0.13829 0.0
C356 C 0.67381 0.82467 0.14081 0.0
C357 C 0.675 0.81218 0.14315 0.0
C358 C 0.68086 0.89694 0.15099 0.0
C359 C 0.6893 0.91208 0.15526 0.0
C360 C 0.68669 0.91806 0.17287 0.0
C361 C 0.67564 0.90894 0.18669 0.0
C362 C 0.66727 0.8937 0.1826 0.0
C363 C 0.66974 0.88775 0.16475 0.0
C364 C 0.67656 0.89375 0.11428 0.0
C365 C 0.66196 0.89034 0.1147 0.0
C366 C 0.657 0.89647 0.10029 0.0
C367 C 0.66646 0.90587 0.08499 0.0
C368 C 0.68046 0.90768 0.08321 0.0
C369 C 0.68548 0.9018 0.09785 0.0
C370 C 0.6836 0.87799 0.13292 0.0
C371 C 0.69566 0.87857 0.14223 0.0
C372 C 0.69644 0.86587 0.14417 0.0
C373 C 0.68526 0.85221 0.1364 0.0
C374 C 0.6731 0.85164 0.12704 0.0
C375 C 0.67218 0.86436 0.12554 0.0
H376 H 0.11817 0.77489 0.15997 0.0
N377 N 0.11255 0.79559 0.14536 0.0
H378 H 0.10783 0.7604 0.19087 0.0
H379 H 0.09769 0.79997 0.17463 0.0
H380 H 0.0874 0.78563 0.20594 0.0
H381 H 0.08641 0.78702 0.13027 0.0
H382 H 0.07248 0.76716 0.10555 0.0
H383 H 0.12328 0.78122 0.12224 0.0
H384 H 0.10973 0.7618 0.09685 0.0
H385 H 0.13878 0.79662 0.14798 0.0
H386 H 0.11912 0.82282 0.13792 0.0
H387 H 0.16297 0.81829 0.14341 0.0
H388 H 0.14325 0.84481 0.13474 0.0
H389 H 0.22866 0.88359 0.1601 0.0
H390 H 0.24173 0.89656 0.19125 0.0
H391 H 0.21806 0.91966 0.19304 0.0
H392 H 0.20526 0.90683 0.16141 0.0
H393 H 0.21441 0.91045 0.11426 0.0
H394 H 0.23472 0.92364 0.09019 0.0
H395 H 0.24871 0.89265 0.10168 0.0
H396 H 0.22786 0.87905 0.125 0.0
H397 H 0.20386 0.86328 0.15834 0.0
H398 H 0.18053 0.84025 0.15895 0.0
H399 H 0.16361 0.85746 0.11409 0.0
N400 N 0.20973 0.88852 0.13847 0.0
H401 H 0.18673 0.8809 0.11485 0.0
C402 C 0.10873 0.78858 0.16506 0.0
C403 C 0.11179 0.77758 0.17015 0.0
C404 C 0.10583 0.76927 0.18787 0.0
C405 C 0.09669 0.77178 0.20082 0.0
C406 C 0.09421 0.78326 0.19614 0.0
C407 C 0.10019 0.79157 0.17842 0.0
C408 C 0.10587 0.7857 0.12809 0.0
C409 C 0.09164 0.78174 0.12267 0.0
C410 C 0.08372 0.7704 0.10846 0.0
C411 C 0.08994 0.76278 0.09918 0.0
C412 C 0.1045 0.76724 0.10392 0.0
C413 C 0.11236 0.77852 0.11833 0.0
C414 C 0.12709 0.80808 0.14294 0.0
C415 C 0.13964 0.80702 0.14471 0.0
C416 C 0.15354 0.81954 0.14233 0.0
C417 C 0.1552 0.83341 0.13854 0.0
C418 C 0.14253 0.83434 0.13705 0.0
C419 C 0.12869 0.82181 0.13908 0.0
C420 C 0.21599 0.89431 0.15839 0.0
C421 C 0.22613 0.8913 0.16728 0.0
C422 C 0.23357 0.89869 0.1852 0.0
C423 C 0.23105 0.90926 0.19451 0.0
C424 C 0.22043 0.91177 0.18604 0.0
C425 C 0.21301 0.90437 0.16813 0.0
C426 C 0.2198 0.89398 0.12156 0.0
C427 C 0.22159 0.90625 0.11103 0.0
C428 C 0.23318 0.91376 0.09738 0.0
C429 C 0.24333 0.90922 0.09432 0.0
C430 C 0.24108 0.89641 0.10398 0.0
C431 C 0.22923 0.88868 0.11729 0.0
C432 C 0.19696 0.87399 0.13683 0.0
C433 C 0.19519 0.86214 0.14861 0.0
C434 C 0.18177 0.84883 0.14878 0.0
C435 C 0.16997 0.84697 0.13685 0.0
C436 C 0.17221 0.85857 0.12402 0.0
C437 C 0.18549 0.87193 0.12419 0.0
H438 H 0.34569 0.22251 0.85652 0.0
N439 N 0.31965 0.20537 0.8764 0.0
H440 H 0.34941 0.23738 0.82628 0.0
H441 H 0.29917 0.20353 0.85148 0.0
H442 H 0.30272 0.21798 0.82063 0.0
H443 H 0.30001 0.20918 0.8964 0.0
H444 H 0.30454 0.22939 0.91978 0.0
H445 H 0.34626 0.22635 0.89176 0.0
H446 H 0.35106 0.24724 0.91366 0.0
H447 H 0.32986 0.19264 0.84855 0.0
H448 H 0.32001 0.19375 0.91293 0.0
H449 H 0.33498 0.17328 0.8553 0.0
H450 H 0.3252 0.17434 0.91945 0.0
H451 H 0.3518 0.11712 0.87411 0.0
H452 H 0.35114 0.10499 0.84213 0.0
H453 H 0.30682 0.09479 0.83198 0.0
H454 H 0.30717 0.10568 0.86544 0.0
H455 H 0.31301 0.09399 0.916 0.0
H456 H 0.32215 0.0826 0.9394 0.0
H457 H 0.3662 0.11846 0.92937 0.0
H458 H 0.35687 0.13016 0.90664 0.0
H459 H 0.35076 0.14277 0.87604 0.0
H460 H 0.35132 0.16624 0.87367 0.0
H461 H 0.31169 0.14797 0.90953 0.0
N462 N 0.32873 0.11738 0.89282 0.0
H463 H 0.31118 0.12464 0.9116 0.0
C464 C 0.3221 0.21192 0.85633 0.0
C465 C 0.33625 0.22133 0.84866 0.0
C466 C 0.33835 0.22976 0.83123 0.0
C467 C 0.32637 0.229 0.82112 0.0
C468 C 0.3122 0.21903 0.82824 0.0
C469 C 0.31013 0.21062 0.84569 0.0
C470 C 0.32274 0.21637 0.89213 0.0
C471 C 0.31114 0.21733 0.90052 0.0
C472 C 0.3138 0.22902 0.91364 0.0
C473 C 0.3282 0.24021 0.91836 0.0
C474 C 0.33982 0.23886 0.91057 0.0
C475 C 0.33712 0.22698 0.89777 0.0
C476 C 0.32511 0.1955 0.88036 0.0
C477 C 0.32933 0.18931 0.8643 0.0
C478 C 0.33225 0.17807 0.86812 0.0
C479 C 0.33062 0.17235 0.88793 0.0
C480 C 0.3266 0.17854 0.90401 0.0
C481 C 0.32378 0.18983 0.90026 0.0
C482 C 0.3293 0.11186 0.87262 0.0
C483 C 0.34185 0.11211 0.86525 0.0
C484 C 0.34152 0.10533 0.84654 0.0
C485 C 0.32884 0.09862 0.8343 0.0
C486 C 0.31664 0.09931 0.84115 0.0
C487 C 0.31684 0.1057 0.86019 0.0
C488 C 0.33425 0.11276 0.90944 0.0
C489 C 0.32458 0.09963 0.91942 0.0
C490 C 0.32981 0.09315 0.93273 0.0
C491 C 0.34488 0.09961 0.93601 0.0
C492 C 0.35454 0.11325 0.92698 0.0
C493 C 0.34923 0.11993 0.91405 0.0
C494 C 0.33082 0.13195 0.8939 0.0
C495 C 0.34235 0.14395 0.88366 0.0
C496 C 0.34262 0.1573 0.88224 0.0
C497 C 0.33151 0.15894 0.89133 0.0
C498 C 0.32049 0.14715 0.90253 0.0
C499 C 0.32015 0.1338 0.90373 0.0
H500 H 0.78681 0.12819 0.86058 0.0
N501 N 0.79443 0.1146 0.88937 0.0
H502 H 0.77258 0.11672 0.82925 0.0
H503 H 0.78562 0.08783 0.87446 0.0
H504 H 0.77108 0.07621 0.84346 0.0
H505 H 0.79473 0.10005 0.92213 0.0
H506 H 0.77497 0.08698 0.94697 0.0
H507 H 0.77069 0.11781 0.8941 0.0
H508 H 0.7507 0.1044 0.91818 0.0
H509 H 0.79491 0.13954 0.90401 0.0
H510 H 0.82099 0.12401 0.87469 0.0
H511 H 0.81549 0.16463 0.90322 0.0
H512 H 0.84145 0.1493 0.87251 0.0
H513 H 0.87079 0.23048 0.84718 0.0
H514 H 0.88438 0.24022 0.81528 0.0
H515 H 0.91393 0.2257 0.8329 0.0
H516 H 0.90016 0.21599 0.86491 0.0
H517 H 0.89644 0.21583 0.90241 0.0
H518 H 0.91328 0.23378 0.92749 0.0
H519 H 0.89542 0.26159 0.91567 0.0
H520 H 0.87825 0.24322 0.89124 0.0
H521 H 0.84919 0.20943 0.87809 0.0
H522 H 0.82895 0.18412 0.88148 0.0
H523 H 0.85987 0.16967 0.88968 0.0
N524 N 0.87747 0.21902 0.87805 0.0
H525 H 0.87992 0.1949 0.88468 0.0
C526 C 0.78745 0.10887 0.86973 0.0
C527 C 0.7837 0.11696 0.85673 0.0
C528 C 0.77552 0.11039 0.83892 0.0
C529 C 0.77066 0.09557 0.83411 0.0
C530 C 0.77457 0.08761 0.84696 0.0
C531 C 0.78296 0.09424 0.86451 0.0
C532 C 0.78418 0.1098 0.90621 0.0
C533 C 0.78533 0.10139 0.92166 0.0
C534 C 0.77395 0.0938 0.93566 0.0
C535 C 0.7611 0.09439 0.93435 0.0
C536 C 0.76043 0.10372 0.91977 0.0
C537 C 0.77186 0.11138 0.90588 0.0
C538 C 0.80641 0.12973 0.88957 0.0
C539 C 0.80504 0.14146 0.89736 0.0
C540 C 0.81687 0.15595 0.89668 0.0
C541 C 0.83025 0.15915 0.88775 0.0
C542 C 0.83151 0.14736 0.87992 0.0
C543 C 0.81977 0.13287 0.88097 0.0
C544 C 0.88448 0.2226 0.85833 0.0
C545 C 0.88001 0.22913 0.84389 0.0
C546 C 0.88778 0.23464 0.82568 0.0
C547 C 0.90027 0.23376 0.82155 0.0
C548 C 0.90443 0.22666 0.83573 0.0
C549 C 0.89654 0.22104 0.85396 0.0
C550 C 0.88598 0.22815 0.89507 0.0
C551 C 0.89587 0.22557 0.90561 0.0
C552 C 0.90564 0.23598 0.9198 0.0
C553 C 0.90583 0.24925 0.92354 0.0
C554 C 0.8955 0.25146 0.91349 0.0
C555 C 0.88568 0.241 0.89946 0.0
C556 C 0.866 0.20407 0.88147 0.0
C557 C 0.85152 0.20075 0.88074 0.0
C558 C 0.83997 0.18626 0.88285 0.0
C559 C 0.84266 0.17471 0.88605 0.0
C560 C 0.85729 0.17816 0.88701 0.0
C561 C 0.86884 0.19267 0.88449 0.0
H562 H 0.79256 0.70641 0.86823 0.0
N563 N 0.79639 0.68613 0.88575 0.0
H564 H 0.78036 0.70434 0.83561 0.0
H565 H 0.78758 0.66376 0.85744 0.0
H566 H 0.77488 0.66126 0.82532 0.0
H567 H 0.77239 0.65822 0.88805 0.0
H568 H 0.75151 0.65058 0.91055 0.0
H569 H 0.79517 0.70058 0.91868 0.0
H570 H 0.77455 0.69276 0.94217 0.0
H571 H 0.82415 0.70692 0.88244 0.0
H572 H 0.79613 0.6604 0.89292 0.0
H573 H 0.84556 0.70438 0.88455 0.0
H574 H 0.81752 0.65777 0.89588 0.0
H575 H 0.90221 0.7015 0.86131 0.0
H576 H 0.9126 0.69984 0.82846 0.0
H577 H 0.89045 0.65248 0.83423 0.0
H578 H 0.88021 0.65432 0.86713 0.0
H579 H 0.87438 0.65263 0.90469 0.0
H580 H 0.88755 0.64431 0.92639 0.0
H581 H 0.92522 0.68837 0.92642 0.0
H582 H 0.91205 0.69655 0.90496 0.0
H583 H 0.88232 0.69969 0.90605 0.0
H584 H 0.85977 0.70029 0.90815 0.0
H585 H 0.83685 0.65828 0.87609 0.0
N586 N 0.88644 0.67978 0.88716 0.0
H587 H 0.85938 0.65752 0.87506 0.0
C588 C 0.79094 0.68528 0.86529 0.0
C589 C 0.78897 0.69668 0.85865 0.0
C590 C 0.78186 0.69539 0.84014 0.0
C591 C 0.77645 0.68255 0.82791 0.0
C592 C 0.779 0.67137 0.8342 0.0
C593 C 0.78622 0.67274 0.85267 0.0
C594 C 0.7853 0.68014 0.90146 0.0
C595 C 0.77308 0.66577 0.89998 0.0
C596 C 0.76112 0.66135 0.91304 0.0
C597 C 0.76119 0.67114 0.92799 0.0
C598 C 0.77394 0.68506 0.93048 0.0
C599 C 0.78581 0.68952 0.91726 0.0
C600 C 0.8086 0.68396 0.88769 0.0
C601 C 0.82267 0.69618 0.88545 0.0
C602 C 0.83488 0.6947 0.88684 0.0
C603 C 0.83332 0.68088 0.89066 0.0
C604 C 0.81914 0.66856 0.89282 0.0
C605 C 0.80688 0.67006 0.89128 0.0
C606 C 0.8905 0.6781 0.86661 0.0
C607 C 0.89938 0.69077 0.85522 0.0
C608 C 0.90526 0.68976 0.83647 0.0
C609 C 0.9024 0.67601 0.82879 0.0
C610 C 0.89299 0.66323 0.83987 0.0
C611 C 0.88705 0.66426 0.8586 0.0
C612 C 0.89234 0.67522 0.90325 0.0
C613 C 0.88531 0.66054 0.90991 0.0
C614 C 0.89281 0.65581 0.92226 0.0
C615 C 0.90741 0.6657 0.92782 0.0
C616 C 0.914 0.68054 0.9222 0.0
C617 C 0.9065 0.68524 0.9101 0.0
C618 C 0.87257 0.67872 0.89019 0.0
C619 C 0.87235 0.69051 0.89983 0.0
C620 C 0.85947 0.69088 0.90079 0.0
C621 C 0.84651 0.67948 0.89187 0.0
C622 C 0.84659 0.66724 0.88314 0.0
C623 C 0.8595 0.66682 0.88241 0.0
H624 H 0.75539 0.63898 0.48158 0.0
N625 N 0.78241 0.65568 0.46769 0.0
H626 H 0.74482 0.64269 0.51298 0.0
H627 H 0.79732 0.67651 0.49758 0.0
H628 H 0.78686 0.68013 0.52934 0.0
H629 H 0.78884 0.68413 0.46405 0.0
H630 H 0.77619 0.69218 0.44155 0.0
H631 H 0.76743 0.64151 0.43417 0.0
H632 H 0.75538 0.6497 0.41061 0.0
H633 H 0.78732 0.63553 0.48275 0.0
H634 H 0.80894 0.67763 0.45286 0.0
H635 H 0.81016 0.63569 0.48373 0.0
H636 H 0.83172 0.67743 0.45227 0.0
H637 H 0.88464 0.63622 0.4851 0.0
H638 H 0.89817 0.63914 0.51654 0.0
H639 H 0.89162 0.67466 0.53596 0.0
H640 H 0.87906 0.67229 0.504 0.0
H641 H 0.89914 0.68138 0.47134 0.0
H642 H 0.92065 0.68958 0.44959 0.0
H643 H 0.89771 0.6488 0.41467 0.0
H644 H 0.87657 0.64045 0.43725 0.0
H645 H 0.84821 0.63128 0.46657 0.0
H646 H 0.82595 0.63223 0.46394 0.0
H647 H 0.85143 0.67975 0.47059 0.0
N648 N 0.87527 0.65349 0.47167 0.0
H649 H 0.87374 0.6786 0.47147 0.0
C650 C 0.77711 0.65733 0.48738 0.0
C651 C 0.76233 0.64788 0.49207 0.0
C652 C 0.75631 0.65009 0.50985 0.0
C653 C 0.76502 0.66176 0.52345 0.0
C654 C 0.77995 0.67103 0.5191 0.0
C655 C 0.78593 0.66894 0.50106 0.0
C656 C 0.77881 0.66208 0.45101 0.0
C657 C 0.78182 0.67668 0.4521 0.0
C658 C 0.77459 0.68129 0.43911 0.0
C659 C 0.76441 0.67146 0.42457 0.0
C660 C 0.76275 0.65742 0.42206 0.0
C661 C 0.7698 0.65276 0.43528 0.0
C662 C 0.7963 0.65641 0.46756 0.0
C663 C 0.79701 0.64473 0.47613 0.0
C664 C 0.8101 0.64479 0.47644 0.0
C665 C 0.82288 0.65644 0.46772 0.0
C666 C 0.8222 0.66829 0.45928 0.0
C667 C 0.80908 0.66836 0.45939 0.0
C668 C 0.88076 0.65393 0.49205 0.0
C669 C 0.88593 0.64446 0.49635 0.0
C670 C 0.89363 0.64613 0.51443 0.0
C671 C 0.89618 0.65725 0.52886 0.0
C672 C 0.89023 0.66621 0.52504 0.0
C673 C 0.88279 0.66471 0.50675 0.0
C674 C 0.88636 0.66016 0.45608 0.0
C675 C 0.89864 0.67437 0.4587 0.0
C676 C 0.91094 0.67906 0.44617 0.0
C677 C 0.91107 0.6697 0.43066 0.0
C678 C 0.89817 0.65612 0.42685 0.0
C679 C 0.88599 0.65138 0.43954 0.0
C680 C 0.86254 0.65478 0.46964 0.0
C681 C 0.84894 0.64188 0.46733 0.0
C682 C 0.83621 0.64248 0.46606 0.0
C683 C 0.83672 0.65606 0.46754 0.0
C684 C 0.8505 0.66908 0.46931 0.0
C685 C 0.86331 0.66846 0.47008 0.0
H686 H 0.37471 0.12667 0.49456 0.0
N687 N 0.35704 0.13451 0.47846 0.0
H688 H 0.37079 0.1125 0.52549 0.0
H689 H 0.33649 0.12923 0.50813 0.0
H690 H 0.333 0.11598 0.53994 0.0
H691 H 0.32989 0.10971 0.47654 0.0
H692 H 0.32272 0.08828 0.45451 0.0
H693 H 0.37155 0.1331 0.44599 0.0
H694 H 0.36427 0.11182 0.42316 0.0
H695 H 0.37654 0.16295 0.48228 0.0
H696 H 0.33106 0.13277 0.46904 0.0
H697 H 0.37296 0.18376 0.47775 0.0
H698 H 0.32745 0.15349 0.46359 0.0
H699 H 0.36816 0.23914 0.49462 0.0
H700 H 0.3664 0.24936 0.52776 0.0
H701 H 0.31941 0.22598 0.52174 0.0
H702 H 0.32135 0.21594 0.48856 0.0
H703 H 0.31961 0.21062 0.45102 0.0
H704 H 0.31137 0.2242 0.42995 0.0
H705 H 0.35528 0.26178 0.42997 0.0
H706 H 0.36335 0.24822 0.45082 0.0
H707 H 0.36724 0.21903 0.45194 0.0
H708 H 0.36888 0.19681 0.45212 0.0
H709 H 0.32638 0.17303 0.4809 0.0
N710 N 0.34658 0.22263 0.4687 0.0
H711 H 0.32461 0.19517 0.4796 0.0
C712 C 0.356 0.12908 0.49899 0.0
C713 C 0.36577 0.12462 0.50468 0.0
C714 C 0.3635 0.11653 0.52248 0.0
C715 C 0.35147 0.11289 0.53532 0.0
C716 C 0.34218 0.11821 0.53025 0.0
C717 C 0.34431 0.12606 0.51215 0.0
C718 C 0.35134 0.12301 0.46295 0.0
C719 C 0.33733 0.1104 0.46464 0.0
C720 C 0.33324 0.09812 0.45195 0.0
C721 C 0.343 0.09822 0.43722 0.0
C722 C 0.35661 0.11124 0.43465 0.0
C723 C 0.36073 0.12348 0.44747 0.0
C724 C 0.35419 0.14634 0.47584 0.0
C725 C 0.36581 0.16085 0.47823 0.0
C726 C 0.36374 0.17271 0.47541 0.0
C727 C 0.34994 0.17036 0.46996 0.0
C728 C 0.33821 0.15575 0.46783 0.0
C729 C 0.34028 0.14384 0.47081 0.0
C730 C 0.34495 0.22686 0.48919 0.0
C731 C 0.3575 0.23604 0.5007 0.0
C732 C 0.35644 0.24181 0.51961 0.0
C733 C 0.34276 0.23851 0.52733 0.0
C734 C 0.33011 0.22885 0.51608 0.0
C735 C 0.3312 0.22303 0.49718 0.0
C736 C 0.3421 0.22851 0.45246 0.0
C737 C 0.3275 0.2216 0.44589 0.0
C738 C 0.32282 0.22935 0.43392 0.0
C739 C 0.33269 0.24407 0.42862 0.0
C740 C 0.34745 0.25049 0.43401 0.0
C741 C 0.3521 0.24274 0.44574 0.0
C742 C 0.34593 0.20879 0.46592 0.0
C743 C 0.35815 0.2089 0.45781 0.0
C744 C 0.35913 0.19623 0.45821 0.0
C745 C 0.34792 0.18318 0.46701 0.0
C746 C 0.33523 0.18285 0.474 0.0
C747 C 0.33421 0.19554 0.47336 0.0
H748 H 0.78955 0.09369 0.49325 0.0
N749 N 0.79494 0.11868 0.47657 0.0
H750 H 0.77508 0.08201 0.52409 0.0
H751 H 0.7849 0.13142 0.50435 0.0
H752 H 0.77089 0.11998 0.5355 0.0
H753 H 0.76832 0.11575 0.47002 0.0
H754 H 0.74973 0.09797 0.44638 0.0
H755 H 0.79959 0.10552 0.44493 0.0
H756 H 0.78142 0.0884 0.4203 0.0
H757 H 0.82327 0.12854 0.47526 0.0
H758 H 0.79211 0.14276 0.47208 0.0
H759 H 0.84329 0.15395 0.47182 0.0
H760 H 0.81199 0.16842 0.47054 0.0
H761 H 0.90075 0.22648 0.48566 0.0
H762 H 0.91487 0.23865 0.51621 0.0
H763 H 0.8801 0.24502 0.53825 0.0
H764 H 0.86655 0.23383 0.50651 0.0
H765 H 0.88389 0.25122 0.45958 0.0
H766 H 0.90398 0.26543 0.43598 0.0
H767 H 0.90832 0.22733 0.42555 0.0
H768 H 0.88859 0.21344 0.44999 0.0
H769 H 0.87615 0.20114 0.48968 0.0
H770 H 0.85651 0.17563 0.48941 0.0
H771 H 0.8305 0.18715 0.45213 0.0
N772 N 0.8752 0.22467 0.474 0.0
H773 H 0.84994 0.21302 0.45407 0.0
C774 C 0.7885 0.11347 0.49652 0.0
C775 C 0.78573 0.0996 0.5026 0.0
C776 C 0.77739 0.09291 0.52005 0.0
C777 C 0.77185 0.10011 0.53198 0.0
C778 C 0.7751 0.11427 0.52649 0.0
C779 C 0.78321 0.12085 0.50873 0.0
C780 C 0.78524 0.11166 0.45945 0.0
C781 C 0.77131 0.11003 0.45891 0.0
C782 C 0.7607 0.09987 0.44531 0.0
C783 C 0.76394 0.09141 0.43179 0.0
C784 C 0.77838 0.09433 0.43097 0.0
C785 C 0.78886 0.10427 0.44479 0.0
C786 C 0.8063 0.13385 0.47443 0.0
C787 C 0.82082 0.13726 0.47413 0.0
C788 C 0.83224 0.15184 0.47235 0.0
C789 C 0.82941 0.16345 0.47126 0.0
C790 C 0.81472 0.15989 0.47115 0.0
C791 C 0.80328 0.14521 0.47239 0.0
C792 C 0.88271 0.22962 0.4935 0.0
C793 C 0.89615 0.23051 0.497 0.0
C794 C 0.90417 0.23734 0.51475 0.0
C795 C 0.89881 0.24311 0.52973 0.0
C796 C 0.88485 0.24118 0.52683 0.0
C797 C 0.87697 0.23463 0.50882 0.0
C798 C 0.8847 0.23131 0.45657 0.0
C799 C 0.88894 0.24584 0.45176 0.0
C800 C 0.90044 0.25394 0.4382 0.0
C801 C 0.90793 0.2476 0.42894 0.0
C802 C 0.90301 0.23267 0.43271 0.0
C803 C 0.89155 0.22461 0.44647 0.0
C804 C 0.86441 0.20914 0.47224 0.0
C805 C 0.86623 0.19826 0.48155 0.0
C806 C 0.85494 0.18351 0.48113 0.0
C807 C 0.84171 0.17915 0.47086 0.0
C808 C 0.84028 0.19001 0.4607 0.0
C809 C 0.85145 0.20482 0.46155 0.0
H810 H 0.01714 0.56465 0.19712 0.0
N811 N 0.99178 0.54064 0.21044 0.0
H812 H 0.01987 0.57969 0.16757 0.0
H813 H 0.97216 0.53449 0.18103 0.0
H814 H 0.97465 0.54978 0.15157 0.0
H815 H 0.97115 0.54538 0.22474 0.0
H816 H 0.9743 0.56495 0.24859 0.0
H817 H 0.01606 0.55792 0.234 0.0
H818 H 0.01925 0.57747 0.25797 0.0
H819 H 0.01402 0.54009 0.18834 0.0
H820 H 0.98371 0.5198 0.23854 0.0
H821 H 0.02287 0.52349 0.1931 0.0
H822 H 0.9931 0.50333 0.24388 0.0
H823 H 0.04693 0.46334 0.20399 0.0
H824 H 0.04267 0.44733 0.17434 0.0
H825 H 0.00241 0.44641 0.16209 0.0
H826 H 0.00615 0.46127 0.19258 0.0
H827 H 0.00375 0.44434 0.22781 0.0
H828 H 1.00168 0.42533 0.25075 0.0
H829 H 0.04528 0.45524 0.27327 0.0
H830 H 0.04717 0.47434 0.2504 0.0
H831 H 0.04477 0.49952 0.21462 0.0
H832 H 0.03672 0.51739 0.21424 0.0
H833 H 0.99285 0.48267 0.22894 0.0
N834 N 0.02872 0.47071 0.22053 0.0
H835 H 1.00117 0.46513 0.23019 0.0
C836 C 0.99442 0.54831 0.19122 0.0
C837 C 0.00789 0.56114 0.18705 0.0
C838 C 0.00938 0.56984 0.17023 0.0
C839 C 0.99741 0.56608 0.15734 0.0
C840 C 0.98412 0.55294 0.16106 0.0
C841 C 0.98267 0.54417 0.17785 0.0
C842 C 0.9933 0.55015 0.22761 0.0
C843 C 0.98156 0.5521 0.23237 0.0
C844 C 0.98342 0.56335 0.24581 0.0
C845 C 0.99706 0.5728 0.25493 0.0
C846 C 0.0086 0.57029 0.25121 0.0
C847 C 0.00678 0.55911 0.23755 0.0
C848 C 0.99811 0.53145 0.21327 0.0
C849 C 0.00935 0.53233 0.2007 0.0
C850 C 0.01456 0.52274 0.2035 0.0
C851 C 0.0088 0.51205 0.21897 0.0
C852 C 0.99771 0.51128 0.23165 0.0
C853 C 0.9924 0.52078 0.22872 0.0
C854 C 0.02699 0.46363 0.20069 0.0
C855 C 0.0373 0.45984 0.19468 0.0
C856 C 0.03484 0.4507 0.1776 0.0
C857 C 0.02208 0.44535 0.16574 0.0
C858 C 0.01216 0.4499 0.17109 0.0
C859 C 0.01444 0.45871 0.18851 0.0
C860 C 0.02566 0.46085 0.23743 0.0
C861 C 0.01264 0.44705 0.23826 0.0
C862 C 0.01155 0.43609 0.25119 0.0
C863 C 0.02342 0.4387 0.26356 0.0
C864 C 0.03593 0.45289 0.26399 0.0
C865 C 0.03702 0.46384 0.25099 0.0
C866 C 0.02365 0.481 0.22235 0.0
C867 C 0.03347 0.49586 0.21807 0.0
C868 C 0.02879 0.50601 0.21765 0.0
C869 C 0.01406 0.50149 0.22129 0.0
C870 C 0.0043 0.48664 0.22627 0.0
C871 C 0.00905 0.47652 0.22691 0.0
H872 H 0.58874 0.54899 0.20086 0.0
N873 N 0.56239 0.53907 0.21661 0.0
H874 H 0.599 0.56375 0.1702 0.0
H875 H 0.54687 0.54381 0.18732 0.0
H876 H 0.55669 0.55763 0.15584 0.0
H877 H 0.55904 0.56301 0.21987 0.0
H878 H 0.57259 0.58406 0.24291 0.0
H879 H 0.57757 0.54015 0.24944 0.0
H880 H 0.59073 0.56094 0.27335 0.0
H881 H 0.55466 0.51121 0.2105 0.0
H882 H 0.53706 0.53877 0.22628 0.0
H883 H 0.53029 0.48936 0.21264 0.0
H884 H 0.51267 0.51693 0.22926 0.0
H885 H 0.46877 0.43044 0.19349 0.0
H886 H 0.45523 0.41827 0.16205 0.0
H887 H 0.43172 0.4414 0.16788 0.0
H888 H 0.44552 0.45368 0.19914 0.0
H889 H 0.44835 0.45816 0.23733 0.0
H890 H 0.42664 0.44376 0.25901 0.0
H891 H 0.43455 0.40759 0.25787 0.0
H892 H 0.45615 0.42203 0.23645 0.0
H893 H 0.48854 0.4516 0.23537 0.0
H894 H 0.51221 0.47449 0.23697 0.0
H895 H 0.49311 0.49762 0.20925 0.0
N896 N 0.4641 0.44744 0.21888 0.0
H897 H 0.46931 0.47471 0.20867 0.0
C898 C 0.56707 0.54523 0.19642 0.0
C899 C 0.58165 0.55063 0.19084 0.0
C900 C 0.58747 0.55904 0.17321 0.0
C901 C 0.57875 0.56205 0.16046 0.0
C902 C 0.56387 0.55587 0.16547 0.0
C903 C 0.55813 0.54771 0.18338 0.0
C904 C 0.56745 0.55005 0.23282 0.0
C905 C 0.56568 0.56233 0.23177 0.0
C906 C 0.57344 0.57438 0.24506 0.0
C907 C 0.58299 0.57434 0.25981 0.0
C908 C 0.58378 0.56152 0.26185 0.0
C909 C 0.57612 0.54954 0.2484 0.0
C910 C 0.54776 0.52657 0.21842 0.0
C911 C 0.54552 0.5125 0.21465 0.0
C912 C 0.53159 0.50003 0.21606 0.0
C913 C 0.51949 0.50133 0.22141 0.0
C914 C 0.52171 0.51551 0.22503 0.0
C915 C 0.53571 0.52803 0.22349 0.0
C916 C 0.45815 0.4429 0.19857 0.0
C917 C 0.46099 0.43316 0.18762 0.0
C918 C 0.45313 0.42613 0.16984 0.0
C919 C 0.44224 0.4287 0.16272 0.0
C920 C 0.44007 0.43923 0.17297 0.0
C921 C 0.44796 0.44627 0.19082 0.0
C922 C 0.45378 0.44107 0.23537 0.0
C923 C 0.44564 0.44732 0.24235 0.0
C924 C 0.43326 0.4391 0.25465 0.0
C925 C 0.42887 0.42452 0.25981 0.0
C926 C 0.43764 0.41875 0.25391 0.0
C927 C 0.45001 0.42699 0.24188 0.0
C928 C 0.47728 0.46144 0.22173 0.0
C929 C 0.48946 0.46169 0.22999 0.0
C930 C 0.50299 0.47476 0.23066 0.0
C931 C 0.50468 0.48788 0.22283 0.0
C932 C 0.49223 0.48775 0.21545 0.0
C933 C 0.47861 0.47464 0.21499 0.0
H934 H 0.54107 0.95713 0.20027 0.0
N935 N 0.53172 0.97403 0.21635 0.0
H936 H 0.55644 0.96197 0.17015 0.0
H937 H 0.53766 0.99511 0.1869 0.0
H938 H 0.55197 0.99935 0.1561 0.0
H939 H 0.55959 0.99777 0.21926 0.0
H940 H 0.57814 1.00014 0.24271 0.0
H941 H 0.52698 0.95944 0.2513 0.0
H942 H 0.54513 0.96267 0.27661 0.0
H943 H 0.50304 0.95578 0.21529 0.0
H944 H 0.53593 0.00154 0.22352 0.0
H945 H 0.48392 0.96188 0.2182 0.0
H946 H 0.51703 0.00805 0.22491 0.0
H947 H 0.4322 0.97847 0.19997 0.0
H948 H 0.4194 0.97726 0.16862 0.0
H949 H 0.45081 0.02314 0.15743 0.0
H950 H 0.46371 0.02426 0.18915 0.0
H951 H 0.45012 0.02244 0.23379 0.0
H952 H 0.42946 0.01722 0.256 0.0
H953 H 0.41755 0.97161 0.25887 0.0
H954 H 0.43832 0.97692 0.2365 0.0
H955 H 0.45444 0.97849 0.19859 0.0
H956 H 0.4729 0.97185 0.20001 0.0
H957 H 0.49808 0.00814 0.24226 0.0
N958 N 0.45576 0.00304 0.21668 0.0
H959 H 0.47983 0.01542 0.23947 0.0
C960 C 0.53815 0.97566 0.19614 0.0
C961 C 0.54322 0.96622 0.19047 0.0
C962 C 0.552 0.96901 0.17312 0.0
C963 C 0.5557 0.98121 0.16064 0.0
C964 C 0.54979 0.99011 0.16559 0.0
C965 C 0.54131 0.98753 0.18324 0.0
C966 C 0.54195 0.97806 0.2331 0.0
C967 C 0.55633 0.99011 0.23181 0.0
C968 C 0.56699 0.99152 0.24554 0.0
C969 C 0.56342 0.98133 0.2615 0.0
C970 C 0.54861 0.97035 0.26407 0.0
C971 C 0.53807 0.96862 0.24983 0.0
C972 C 0.52084 0.97818 0.21887 0.0
C973 C 0.50609 0.96719 0.21758 0.0
C974 C 0.49519 0.97076 0.21905 0.0
C975 C 0.49881 0.98553 0.22145 0.0
C976 C 0.5137 0.99653 0.22329 0.0
C977 C 0.52459 0.99287 0.2223 0.0
C978 C 0.44911 0.00147 0.19682 0.0
C979 C 0.43658 0.98821 0.19062 0.0
C980 C 0.42924 0.98753 0.17263 0.0
C981 C 0.4341 1.0001 0.16052 0.0
C982 C 0.44677 0.01329 0.16651 0.0
C983 C 0.45421 0.01392 0.18447 0.0
C984 C 0.44575 1.00013 0.23345 0.0
C985 C 0.44332 0.01142 0.23972 0.0
C986 C 0.43146 0.00839 0.25223 0.0
C987 C 0.42182 0.99397 0.25887 0.0
C988 C 0.42485 0.98282 0.25395 0.0
C989 C 0.43671 0.98585 0.24121 0.0
C990 C 0.46578 0.99773 0.2187 0.0
C991 C 0.46387 0.98513 0.20815 0.0
C992 C 0.4745 0.98118 0.20918 0.0
C993 C 0.48717 0.98944 0.2212 0.0
C994 C 0.48872 0.00166 0.23243 0.0
C995 C 0.4782 0.00578 0.23105 0.0
H996 H 0.42818 0.97753 0.81461 0.0
N997 N 0.45443 0.99863 0.8027 0.0
H998 H 0.41542 0.97669 0.8463 0.0
H999 H 0.46596 0.01805 0.83502 0.0
H1000 H 0.45367 0.01698 0.86724 0.0
H1001 H 0.45798 0.02604 0.80205 0.0
H1002 H 0.44459 0.03346 0.77979 0.0
H1003 H 0.44136 0.98545 0.76768 0.0
H1004 H 0.42862 0.99307 0.74449 0.0
H1005 H 0.45767 0.9758 0.79528 0.0
H1006 H 0.48188 0.02257 0.80711 0.0
H1007 H 0.48026 0.97528 0.79526 0.0
H1008 H 0.50461 0.02214 0.80865 0.0
H1009 H 0.54921 0.97406 0.82666 0.0
H1010 H 0.56255 0.97696 0.85848 0.0
H1011 H 0.57035 0.02113 0.86605 0.0
H1012 H 0.55696 0.01807 0.83412 0.0
H1013 H 0.56776 0.02265 0.80009 0.0
H1014 H 0.58758 0.0301 0.77558 0.0
H1015 H 0.56893 0.98456 0.75626 0.0
H1016 H 0.54861 0.97748 0.77985 0.0
H1017 H 0.51918 0.97466 0.81964 0.0
H1018 H 0.49728 0.97634 0.81816 0.0
H1019 H 0.52245 0.01948 0.79108 0.0
N1020 N 0.54598 0.99433 0.80799 0.0
H1021 H 0.54439 0.01804 0.79383 0.0
C1022 C 0.44803 0.99769 0.82256 0.0
C1023 C 0.43382 0.98605 0.82621 0.0
C1024 C 0.4266 0.98559 0.84438 0.0
C1025 C 0.43351 0.99675 0.85946 0.0
C1026 C 0.44792 0.0083 0.85591 0.0
C1027 C 0.45508 0.00882 0.83757 0.0
C1028 C 0.45039 0.00505 0.78667 0.0
C1029 C 0.45187 0.01897 0.78922 0.0
C1030 C 0.44422 0.02321 0.77639 0.0
C1031 C 0.43518 0.01368 0.76064 0.0
C1032 C 0.43509 1.00048 0.75686 0.0
C1033 C 0.44253 0.99618 0.76987 0.0
C1034 C 0.46812 0.99912 0.80152 0.0
C1035 C 0.46794 0.98595 0.79798 0.0
C1036 C 0.48087 0.98569 0.79824 0.0
C1037 C 0.49434 0.99862 0.80242 0.0
C1038 C 0.49451 0.01196 0.80533 0.0
C1039 C 0.48151 0.01223 0.8047 0.0
C1040 C 0.55217 0.99583 0.82807 0.0
C1041 C 0.55359 0.98425 0.83544 0.0
C1042 C 0.56118 0.98593 0.85361 0.0
C1043 C 0.56759 0.99931 0.86471 0.0
C1044 C 0.5657 0.01076 0.85767 0.0
C1045 C 0.55801 0.00902 0.83951 0.0
C1046 C 0.5565 0.99947 0.79153 0.0
C1047 C 0.56763 0.01435 0.79004 0.0
C1048 C 0.57916 0.01856 0.7762 0.0
C1049 C 0.58005 0.00795 0.76397 0.0
C1050 C 0.56859 0.99315 0.76505 0.0
C1051 C 0.55694 0.98902 0.7786 0.0
C1052 C 0.53343 0.99605 0.80667 0.0
C1053 C 0.51995 0.98449 0.81344 0.0
C1054 C 0.50741 0.98544 0.81238 0.0
C1055 C 0.50795 0.99797 0.80416 0.0
C1056 C 0.52156 0.0097 0.79763 0.0
C1057 C 0.5342 0.00882 0.79903 0.0
H1058 H 0.95954 0.54409 0.82291 0.0
N1059 N 0.9763 0.53483 0.80638 0.0
H1060 H 0.96461 0.55989 0.853 0.0
H1061 H 0.99846 0.54252 0.83471 0.0
H1062 H 0.00289 0.55712 0.86556 0.0
H1063 H 1.00154 0.56084 0.79867 0.0
H1064 H 0.00393 0.57989 0.77545 0.0
H1065 H 0.95776 0.53148 0.77684 0.0
H1066 H 0.95997 0.55058 0.7537 0.0
H1067 H 0.95898 0.50588 0.80969 0.0
H1068 H 0.00361 0.53947 0.79795 0.0
H1069 H 0.96586 0.48714 0.8093 0.0
H1070 H 0.01088 0.52116 0.79908 0.0
H1071 H 0.98512 0.43658 0.82982 0.0
H1072 H 0.98239 0.42306 0.86092 0.0
H1073 H 0.0242 0.45862 0.88244 0.0
H1074 H 0.0272 0.4717 0.85036 0.0
H1075 H 0.02996 0.45634 0.8065 0.0
H1076 H 0.02706 0.43635 0.78375 0.0
H1077 H 0.98309 0.42534 0.76974 0.0
H1078 H 0.986 0.44527 0.7927 0.0
H1079 H 0.98493 0.4609 0.83469 0.0
H1080 H 0.97696 0.47823 0.82951 0.0
H1081 H 0.0116 0.50142 0.78527 0.0
N1082 N 0.0095 0.46217 0.81783 0.0
H1083 H 0.02028 0.48453 0.79185 0.0
C1084 C 0.97849 0.542 0.82628 0.0
C1085 C 0.96893 0.54677 0.83233 0.0
C1086 C 0.97184 0.55579 0.84968 0.0
C1087 C 0.98428 0.56 0.86183 0.0
C1088 C 0.99344 0.55454 0.85637 0.0
C1089 C 0.99074 0.54587 0.83867 0.0
C1090 C 0.97942 0.54468 0.78945 0.0
C1091 C 0.99262 0.55829 0.78834 0.0
C1092 C 0.9939 0.56926 0.77526 0.0
C1093 C 0.98205 0.56683 0.76299 0.0
C1094 C 0.96932 0.55279 0.76288 0.0
C1095 C 0.96804 0.54185 0.77604 0.0
C1096 C 0.98073 0.52407 0.8041 0.0
C1097 C 0.97028 0.50919 0.80701 0.0
C1098 C 0.97431 0.49852 0.80704 0.0
C1099 C 0.98903 0.50254 0.80457 0.0
C1100 C 0.99942 0.51747 0.80082 0.0
C1101 C 0.99529 0.52808 0.8003 0.0
C1102 C 0.0065 0.45515 0.83763 0.0
C1103 C 0.99368 0.44153 0.84124 0.0
C1104 C 0.99207 0.43384 0.85924 0.0
C1105 C 0.00312 0.43965 0.87428 0.0
C1106 C 0.0156 0.45363 0.87107 0.0
C1107 C 0.01727 0.46124 0.85287 0.0
C1108 C 0.00828 0.45235 0.80127 0.0
C1109 C 0.01984 0.44985 0.79811 0.0
C1110 C 0.01812 0.43836 0.78529 0.0
C1111 C 0.0048 0.42923 0.77518 0.0
C1112 C 0.99349 0.43227 0.77729 0.0
C1113 C 0.99516 0.44369 0.79035 0.0
C1114 C 0.00349 0.47148 0.81389 0.0
C1115 C 0.99094 0.46967 0.82391 0.0
C1116 C 0.9862 0.47961 0.82069 0.0
C1117 C 0.99361 0.49141 0.80698 0.0
C1118 C 0.00577 0.49277 0.79633 0.0
C1119 C 0.01069 0.48302 0.79991 0.0
H1120 H 0.45439 0.4425 0.82758 0.0
N1121 N 0.44833 0.46303 0.81363 0.0
H1122 H 0.44454 0.42799 0.85866 0.0
H1123 H 0.4342 0.46762 0.84374 0.0
H1124 H 0.42439 0.45325 0.87512 0.0
H1125 H 0.42186 0.45498 0.80045 0.0
H1126 H 0.40673 0.43496 0.77653 0.0
H1127 H 0.45777 0.44808 0.78936 0.0
H1128 H 0.44302 0.4285 0.76468 0.0
H1129 H 0.47461 0.46405 0.81391 0.0
H1130 H 0.4546 0.49021 0.80679 0.0
H1131 H 0.4987 0.48589 0.8088 0.0
H1132 H 0.47859 0.51227 0.80286 0.0
H1133 H 0.56758 0.55685 0.82357 0.0
H1134 H 0.57933 0.56868 0.85549 0.0
H1135 H 0.54486 0.57788 0.86824 0.0
H1136 H 0.53406 0.56735 0.8348 0.0
H1137 H 0.55187 0.58105 0.78509 0.0
H1138 H 0.57264 0.59382 0.76157 0.0
H1139 H 0.5815 0.55853 0.76727 0.0
H1140 H 0.5602 0.54544 0.79006 0.0
H1141 H 0.53944 0.53157 0.82457 0.0
H1142 H 0.5164 0.508 0.82479 0.0
H1143 H 0.49847 0.52495 0.78113 0.0
N1144 N 0.54422 0.55681 0.80598 0.0
H1145 H 0.5212 0.54876 0.78224 0.0
C1146 C 0.44504 0.45619 0.83343 0.0
C1147 C 0.44821 0.44519 0.83813 0.0
C1148 C 0.44253 0.43688 0.85593 0.0
C1149 C 0.43356 0.43937 0.86926 0.0
C1150 C 0.43108 0.45091 0.86501 0.0
C1151 C 0.43678 0.45922 0.84725 0.0
C1152 C 0.44092 0.45311 0.79666 0.0
C1153 C 0.4266 0.44942 0.79233 0.0
C1154 C 0.41799 0.43798 0.77858 0.0
C1155 C 0.42359 0.42999 0.76869 0.0
C1156 C 0.43824 0.43421 0.77229 0.0
C1157 C 0.4468 0.44558 0.78625 0.0
C1158 C 0.46276 0.47551 0.81044 0.0
C1159 C 0.47537 0.47448 0.81114 0.0
C1160 C 0.4892 0.48706 0.80842 0.0
C1161 C 0.4907 0.50093 0.80524 0.0
C1162 C 0.47797 0.5018 0.80469 0.0
C1163 C 0.46421 0.48923 0.80713 0.0
C1164 C 0.55017 0.5617 0.82635 0.0
C1165 C 0.5626 0.56155 0.83301 0.0
C1166 C 0.56922 0.56816 0.85169 0.0
C1167 C 0.56328 0.57458 0.8646 0.0
C1168 C 0.55016 0.57362 0.85853 0.0
C1169 C 0.54381 0.56742 0.83951 0.0
C1170 C 0.55465 0.56246 0.78944 0.0
C1171 C 0.55802 0.57588 0.78073 0.0
C1172 C 0.56986 0.58314 0.76738 0.0
C1173 C 0.57868 0.57718 0.76284 0.0
C1174 C 0.57487 0.56334 0.77069 0.0
C1175 C 0.56274 0.55588 0.78363 0.0
C1176 C 0.53188 0.54205 0.80373 0.0
C1177 C 0.53056 0.53017 0.81498 0.0
C1178 C 0.51737 0.51662 0.81495 0.0
C1179 C 0.50537 0.51459 0.80333 0.0
C1180 C 0.50724 0.5262 0.79084 0.0
C1181 C 0.52029 0.53978 0.79121 0.0
H1182 H 0.67953 0.89467 0.52871 0.0
N1183 N 0.65332 0.87349 0.54442 0.0
H1184 H 0.68315 0.9083 0.49718 0.0
H1185 H 0.63366 0.86731 0.51517 0.0
H1186 H 0.63719 0.88087 0.48333 0.0
H1187 H 0.6357 0.88251 0.55785 0.0
H1188 H 0.64167 0.90318 0.581 0.0
H1189 H 0.67855 0.88895 0.56666 0.0
H1190 H 0.68454 0.90934 0.59067 0.0
H1191 H 0.67521 0.8696 0.52804 0.0
H1192 H 0.63896 0.8515 0.57035 0.0
H1193 H 0.6785 0.84888 0.53382 0.0
H1194 H 0.64279 0.83111 0.57726 0.0
H1195 H 0.68788 0.79142 0.53565 0.0
H1196 H 0.68787 0.77872 0.50379 0.0
H1197 H 0.64064 0.75452 0.50396 0.0
H1198 H 0.64089 0.76689 0.53613 0.0
H1199 H 0.64593 0.76173 0.5791 0.0
H1200 H 0.65246 0.74815 0.6023 0.0
H1201 H 0.69783 0.78282 0.5985 0.0
H1202 H 0.69107 0.79596 0.5745 0.0
H1203 H 0.68705 0.81369 0.5561 0.0
H1204 H 0.6857 0.83616 0.55546 0.0
H1205 H 0.63869 0.80954 0.56126 0.0
N1206 N 0.66413 0.78562 0.5582 0.0
H1207 H 0.64041 0.78745 0.56297 0.0
C1208 C 0.65629 0.87984 0.52421 0.0
C1209 C 0.6703 0.89132 0.51866 0.0
C1210 C 0.67235 0.89912 0.50059 0.0
C1211 C 0.66043 0.89572 0.4878 0.0
C1212 C 0.64655 0.88386 0.49297 0.0
C1213 C 0.64454 0.876 0.511 0.0
C1214 C 0.6566 0.88417 0.56063 0.0
C1215 C 0.64627 0.88818 0.5653 0.0
C1216 C 0.64972 0.89998 0.57861 0.0
C1217 C 0.66362 0.90801 0.58776 0.0
C1218 C 0.67381 0.90358 0.58368 0.0
C1219 C 0.67037 0.89181 0.57015 0.0
C1220 C 0.65656 0.86204 0.5485 0.0
C1221 C 0.66802 0.86131 0.53878 0.0
C1222 C 0.67003 0.84943 0.54231 0.0
C1223 C 0.66083 0.83813 0.55588 0.0
C1224 C 0.64986 0.83932 0.56629 0.0
C1225 C 0.64771 0.85105 0.56249 0.0
C1226 C 0.66436 0.77994 0.53817 0.0
C1227 C 0.67757 0.78349 0.52861 0.0
C1228 C 0.67753 0.77627 0.51039 0.0
C1229 C 0.66425 0.76544 0.50148 0.0
C1230 C 0.65106 0.76254 0.51065 0.0
C1231 C 0.65114 0.76968 0.52888 0.0
C1232 C 0.66797 0.77983 0.57524 0.0
C1233 C 0.65722 0.76655 0.58378 0.0
C1234 C 0.66102 0.75883 0.59709 0.0
C1235 C 0.67573 0.7643 0.60227 0.0
C1236 C 0.68643 0.77813 0.5946 0.0
C1237 C 0.68258 0.78578 0.5811 0.0
C1238 C 0.66382 0.799 0.55988 0.0
C1239 C 0.67655 0.81284 0.55776 0.0
C1240 C 0.6757 0.82563 0.55711 0.0
C1241 C 0.66207 0.82476 0.55827 0.0
C1242 C 0.64942 0.8108 0.56076 0.0
C1243 C 0.65033 0.79811 0.56165 0.0
H1244 H 0.25055 0.87777 0.52864 0.0
N1245 N 0.22768 0.87299 0.551 0.0
H1246 H 0.25958 0.89222 0.49723 0.0
H1247 H 0.21322 0.8832 0.52868 0.0
H1248 H 0.22219 0.89776 0.49729 0.0
H1249 H 0.22039 0.89343 0.56277 0.0
H1250 H 0.23403 0.91407 0.5862 0.0
H1251 H 0.2495 0.87756 0.57521 0.0
H1252 H 0.26409 0.89893 0.59742 0.0
H1253 H 0.22007 0.84653 0.53651 0.0
H1254 H 0.20276 0.86979 0.5698 0.0
H1255 H 0.1963 0.82394 0.538 0.0
H1256 H 0.17922 0.84717 0.5723 0.0
H1257 H 0.12465 0.753 0.53869 0.0
H1258 H 0.11207 0.74152 0.50653 0.0
H1259 H 0.11148 0.781 0.49197 0.0
H1260 H 0.12348 0.79207 0.52459 0.0
H1261 H 0.10836 0.78414 0.55741 0.0
H1262 H 0.08684 0.77055 0.57911 0.0
H1263 H 0.10762 0.7499 0.60928 0.0
H1264 H 0.12872 0.76296 0.58661 0.0
H1265 H 0.15699 0.78244 0.55902 0.0
H1266 H 0.18045 0.80552 0.56019 0.0
H1267 H 0.15816 0.8298 0.55396 0.0
N1268 N 0.13078 0.77884 0.55424 0.0
H1269 H 0.13467 0.80653 0.55422 0.0
C1270 C 0.23133 0.87951 0.53098 0.0
C1271 C 0.24418 0.88185 0.52157 0.0
C1272 C 0.24929 0.89008 0.50365 0.0
C1273 C 0.24165 0.89623 0.4949 0.0
C1274 C 0.2284 0.89333 0.50387 0.0
C1275 C 0.22324 0.88498 0.52173 0.0
C1276 C 0.23371 0.88366 0.56759 0.0
C1277 C 0.2295 0.89413 0.57097 0.0
C1278 C 0.23759 0.90621 0.58409 0.0
C1279 C 0.25041 0.90844 0.59356 0.0
C1280 C 0.25422 0.8976 0.59075 0.0
C1281 C 0.2459 0.88533 0.57802 0.0
C1282 C 0.21341 0.85992 0.55308 0.0
C1283 C 0.21118 0.84672 0.54437 0.0
C1284 C 0.19757 0.83378 0.5454 0.0
C1285 C 0.18577 0.8336 0.5555 0.0
C1286 C 0.18797 0.84686 0.56422 0.0
C1287 C 0.2016 0.85991 0.56291 0.0
C1288 C 0.12516 0.7734 0.53395 0.0
C1289 C 0.12199 0.75922 0.52835 0.0
C1290 C 0.11483 0.75272 0.50993 0.0
C1291 C 0.11076 0.76033 0.49656 0.0
C1292 C 0.11428 0.77474 0.50198 0.0
C1293 C 0.12135 0.78118 0.52056 0.0
C1294 C 0.12002 0.77434 0.57025 0.0
C1295 C 0.10839 0.77694 0.569 0.0
C1296 C 0.09608 0.76915 0.5815 0.0
C1297 C 0.09531 0.75881 0.59564 0.0
C1298 C 0.10762 0.7574 0.59813 0.0
C1299 C 0.1198 0.76502 0.58545 0.0
C1300 C 0.14419 0.79278 0.55619 0.0
C1301 C 0.15722 0.79278 0.55813 0.0
C1302 C 0.17062 0.80601 0.55856 0.0
C1303 C 0.17132 0.81961 0.55673 0.0
C1304 C 0.15811 0.81959 0.55547 0.0
C1305 C 0.14465 0.80628 0.55537 0.0
H1306 H 0.20849 0.32071 0.52649 0.0
N1307 N 0.21997 0.34244 0.55592 0.0
H1308 H 0.22017 0.3207 0.49385 0.0
H1309 H 0.244 0.36465 0.53995 0.0
H1310 H 0.25553 0.36492 0.50714 0.0
H1311 H 0.23722 0.35631 0.58779 0.0
H1312 H 0.24929 0.34708 0.60969 0.0
H1313 H 0.21248 0.31355 0.55866 0.0
H1314 H 0.2247 0.30435 0.58014 0.0
H1315 H 0.19238 0.31819 0.55839 0.0
H1316 H 0.21676 0.36558 0.55583 0.0
H1317 H 0.16948 0.31833 0.5592 0.0
H1318 H 0.19412 0.36593 0.55563 0.0
H1319 H 0.10802 0.3208 0.53447 0.0
H1320 H 0.09364 0.31748 0.50384 0.0
H1321 H 0.11864 0.36443 0.49361 0.0
H1322 H 0.13325 0.36761 0.52426 0.0
H1323 H 0.12119 0.36472 0.56989 0.0
H1324 H 0.10165 0.35794 0.59482 0.0
H1325 H 0.09404 0.31364 0.59615 0.0
H1326 H 0.11363 0.32061 0.57084 0.0
H1327 H 0.1319 0.32437 0.53638 0.0
H1328 H 0.15371 0.32259 0.53881 0.0
H1329 H 0.17453 0.36255 0.57574 0.0
N1330 N 0.12872 0.34713 0.55145 0.0
H1331 H 0.15295 0.36468 0.57213 0.0
C1332 C 0.22554 0.34267 0.53568 0.0
C1333 C 0.21874 0.33038 0.52234 0.0
C1334 C 0.2254 0.33039 0.50373 0.0
C1335 C 0.23876 0.34279 0.49804 0.0
C1336 C 0.24518 0.35526 0.51107 0.0
C1337 C 0.23865 0.35513 0.52976 0.0
C1338 C 0.22405 0.33571 0.57153 0.0
C1339 C 0.23407 0.34482 0.58659 0.0
C1340 C 0.24096 0.33953 0.59903 0.0
C1341 C 0.23805 0.32504 0.59643 0.0
C1342 C 0.22726 0.31561 0.5823 0.0
C1343 C 0.22022 0.32086 0.57006 0.0
C1344 C 0.20627 0.34194 0.55736 0.0
C1345 C 0.1928 0.32863 0.55811 0.0
C1346 C 0.1797 0.32874 0.55837 0.0
C1347 C 0.17986 0.34216 0.55763 0.0
C1348 C 0.19346 0.3554 0.55677 0.0
C1349 C 0.20645 0.35525 0.55674 0.0
C1350 C 0.12181 0.3445 0.53162 0.0
C1351 C 0.11068 0.33035 0.52541 0.0
C1352 C 0.10233 0.32849 0.50798 0.0
C1353 C 0.10484 0.34072 0.49644 0.0
C1354 C 0.11646 0.35477 0.50208 0.0
C1355 C 0.12483 0.35661 0.51954 0.0
C1356 C 0.11882 0.34321 0.56855 0.0
C1357 C 0.11551 0.35365 0.57594 0.0
C1358 C 0.10435 0.34973 0.59024 0.0
C1359 C 0.09622 0.33521 0.5975 0.0
C1360 C 0.09998 0.32486 0.5907 0.0
C1361 C 0.11121 0.32884 0.57635 0.0
C1362 C 0.1409 0.34492 0.55371 0.0
C1363 C 0.14114 0.3328 0.54491 0.0
C1364 C 0.15364 0.3317 0.54652 0.0
C1365 C 0.16605 0.34254 0.55723 0.0
C1366 C 0.16541 0.35421 0.56685 0.0
C1367 C 0.15303 0.35541 0.56496 0.0
H1368 H 0.02056 0.39701 0.05435 0.0
H1369 H 0.98271 0.36592 0.08884 0.0
H1370 H 0.02701 0.41542 0.08146 0.0
H1371 H 0.98963 0.38385 0.11673 0.0
H1372 H 0.99522 0.42267 0.15311 0.0
H1373 H 0.98969 0.40485 0.12587 0.0
H1374 H 0.03584 0.42404 0.11386 0.0
H1375 H 0.0413 0.44295 0.13963 0.0
C1376 C 0.01382 0.39401 0.06801 0.0
C1377 C 1.0011 0.38008 0.06947 0.0
C1378 C 0.01754 0.40456 0.08366 0.0
C1379 C 0.0088 0.40129 0.10138 0.0
C1380 C 0.99642 0.38703 0.10313 0.0
C1381 C 0.99251 0.37664 0.08725 0.0
C1382 C 0.00423 0.42341 0.14437 0.0
C1383 C 0.01874 0.43444 0.14869 0.0
C1384 C 1.00105 0.41287 0.12894 0.0
C1385 C 0.01229 0.41276 0.11765 0.0
C1386 C 0.02682 0.42378 0.12196 0.0
C1387 C 0.02998 0.43455 0.13709 0.0
H1388 H 0.61477 0.64014 0.08498 0.0
H1389 H 0.62452 0.61119 0.05007 0.0
H1390 H 0.60377 0.62181 0.11178 0.0
H1391 H 0.61272 0.59241 0.07622 0.0
H1392 H 0.60122 0.56606 0.13497 0.0
H1393 H 0.61364 0.58477 0.10907 0.0
H1394 H 0.58303 0.59954 0.11909 0.0
H1395 H 0.57158 0.58188 0.1463 0.0
C1396 C 0.61449 0.6298 0.08302 0.0
C1397 C 0.62049 0.62709 0.06544 0.0
C1398 C 0.60804 0.61919 0.09829 0.0
C1399 C 0.60711 0.60545 0.09615 0.0
C1400 C 0.61336 0.60288 0.07864 0.0
C1401 C 0.6201 0.61364 0.06357 0.0
C1402 C 0.59724 0.57342 0.13188 0.0
C1403 C 0.5854 0.57243 0.14298 0.0
C1404 C 0.60426 0.58406 0.11673 0.0
C1405 C 0.59947 0.59384 0.11197 0.0
C1406 C 0.58732 0.5925 0.12258 0.0
C1407 C 0.58049 0.58207 0.13798 0.0
H1408 H 0.36466 0.96723 0.07198 0.0
H1409 H 0.39031 0.01334 0.05635 0.0
H1410 H 0.38149 0.97132 0.09964 0.0
H1411 H 0.40741 0.01736 0.08396 0.0
H1412 H 0.42642 0.02008 0.14921 0.0
H1413 H 0.41015 0.0177 0.12126 0.0
H1414 H 0.40611 0.97631 0.10286 0.0
H1415 H 0.42219 0.97863 0.13085 0.0
C1416 C 0.37389 0.97826 0.07443 0.0
C1417 C 0.37617 0.98993 0.06179 0.0
C1418 C 0.38362 0.98058 0.09024 0.0
C1419 C 0.39595 0.99461 0.09381 0.0
C1420 C 0.398 0.00642 0.08165 0.0
C1421 C 0.3882 0.00411 0.06581 0.0
C1422 C 0.42222 0.01059 0.13898 0.0
C1423 C 0.42549 0.99948 0.14232 0.0
C1424 C 0.41288 0.00921 0.12299 0.0
C1425 C 0.40665 0.99671 0.10999 0.0
C1426 C 0.41041 0.9859 0.11289 0.0
C1427 C 0.41967 0.98725 0.12888 0.0
H1428 H 0.38163 0.01038 0.95175 0.0
H1429 H 0.38481 0.9739 0.97415 0.0
H1430 H 0.39755 0.01292 0.9229 0.0
H1431 H 0.40123 0.97685 0.94622 0.0
H1432 H 0.41415 0.97269 0.88167 0.0
H1433 H 0.39986 0.97188 0.91118 0.0
H1434 H 0.42115 0.01943 0.91113 0.0
H1435 H 0.43467 0.02014 0.88044 0.0
C1436 C 0.38594 0.00309 0.95067 0.0
C1437 C 0.38182 0.99181 0.96497 0.0
C1438 C 0.39513 0.00457 0.93422 0.0
C1439 C 0.40054 0.99494 0.93199 0.0
C1440 C 0.39694 0.98417 0.94699 0.0
C1441 C 0.38758 0.98252 0.96312 0.0
C1442 C 0.41569 0.98298 0.88774 0.0
C1443 C 0.42554 0.99646 0.8785 0.0
C1444 C 0.40764 0.98255 0.90497 0.0
C1445 C 0.40937 0.99561 0.91373 0.0
C1446 C 0.41939 0.00914 0.90471 0.0
C1447 C 0.42733 0.00955 0.88726 0.0
H1448 H 0.01146 0.38158 0.95957 0.0
H1449 H 0.97611 0.3857 0.98453 0.0
H1450 H 0.01472 0.39857 0.93226 0.0
H1451 H 0.97983 0.40326 0.95812 0.0
H1452 H 0.97841 0.4209 0.89604 0.0
H1453 H 0.97595 0.40471 0.92366 0.0
H1454 H 0.02265 0.42283 0.92317 0.0
H1455 H 0.02493 0.43811 0.89423 0.0
C1456 C 0.00452 0.38627 0.95936 0.0
C1457 C 0.99344 0.38219 0.97406 0.0
C1458 C 0.00643 0.39611 0.94378 0.0
C1459 C 0.99749 0.4023 0.94279 0.0
C1460 C 0.98669 0.39848 0.95794 0.0
C1461 C 0.9846 0.38845 0.97322 0.0
C1462 C 0.98816 0.42134 0.90161 0.0
C1463 C 1.00185 0.43079 0.89267 0.0
C1464 C 0.98679 0.41218 0.91778 0.0
C1465 C 0.9991 0.41239 0.92581 0.0
C1466 C 0.01286 0.42214 0.91725 0.0
C1467 C 0.01421 0.43114 0.90082 0.0
H1468 H 0.61389 0.60949 0.97886 0.0
H1469 H 0.61366 0.64618 0.95128 0.0
H1470 H 0.59868 0.59333 0.95104 0.0
H1471 H 0.5996 0.63056 0.92248 0.0
H1472 H 0.56357 0.59849 0.88252 0.0
H1473 H 0.57715 0.6128 0.91206 0.0
H1474 H 0.5964 0.58562 0.91782 0.0
H1475 H 0.58128 0.57006 0.88994 0.0
C1476 C 0.61081 0.61412 0.96653 0.0
C1477 C 0.61483 0.629 0.96716 0.0
C1478 C 0.60214 0.6049 0.95048 0.0
C1479 C 0.59768 0.61049 0.93438 0.0
C1480 C 0.60229 0.62561 0.9348 0.0
C1481 C 0.61054 0.63468 0.95118 0.0
C1482 C 0.57031 0.59519 0.89038 0.0
C1483 C 0.57123 0.583 0.88352 0.0
C1484 C 0.57848 0.60373 0.90718 0.0
C1485 C 0.58824 0.6007 0.91729 0.0
C1486 C 0.58899 0.58836 0.91068 0.0
C1487 C 0.58046 0.57953 0.89427 0.0
H1488 H 0.0261 0.63713 0.94337 0.0
H1489 H 0.98617 0.60701 0.97479 0.0
H1490 H 0.01942 0.61951 0.91509 0.0
H1491 H 0.9799 0.58886 0.94741 0.0
H1492 H 0.96559 0.56338 0.88775 0.0
H1493 H 0.97177 0.58172 0.91459 0.0
H1494 H 0.01766 0.59799 0.90448 0.0
H1495 H 0.01154 0.58086 0.87609 0.0
C1496 C 0.01595 0.62664 0.94428 0.0
C1497 C 0.00664 0.62344 0.96121 0.0
C1498 C 0.01215 0.61643 0.92815 0.0
C1499 C 0.99912 0.60259 0.92884 0.0
C1500 C 0.98986 0.59945 0.94595 0.0
C1501 C 0.99349 0.60983 0.96178 0.0
C1502 C 0.97702 0.57104 0.89092 0.0
C1503 C 0.98802 0.57055 0.87948 0.0
C1504 C 0.98059 0.58146 0.9067 0.0
C1505 C 0.99527 0.59147 0.91192 0.0
C1506 C 0.00624 0.59075 0.90078 0.0
C1507 C 0.00268 0.5806 0.88467 0.0
H1508 H 0.37689 0.38819 0.97099 0.0
H1509 H 0.40021 0.3663 0.95307 0.0
H1510 H 0.38999 0.40673 0.94485 0.0
H1511 H 0.41302 0.38461 0.92672 0.0
H1512 H 0.44465 0.42806 0.89645 0.0
H1513 H 0.43161 0.4103 0.92356 0.0
H1514 H 0.39209 0.40985 0.90803 0.0
H1515 H 0.40514 0.42766 0.88109 0.0
C1516 C 0.38469 0.38723 0.96138 0.0
C1517 C 0.38751 0.37575 0.96422 0.0
C1518 C 0.39219 0.39786 0.94634 0.0
C1519 C 0.40265 0.39723 0.93378 0.0
C1520 C 0.40526 0.38561 0.9364 0.0
C1521 C 0.39781 0.37502 0.95143 0.0
C1522 C 0.43318 0.42417 0.89886 0.0
C1523 C 0.42595 0.42929 0.88664 0.0
C1524 C 0.42569 0.41396 0.91434 0.0
C1525 C 0.41077 0.40858 0.91791 0.0
C1526 C 0.40361 0.4139 0.9059 0.0
C1527 C 0.41111 0.42413 0.89047 0.0
H1528 H 0.62783 0.03462 0.9676 0.0
H1529 H 0.61722 0.98933 0.96264 0.0
H1530 H 0.61164 0.03061 0.93915 0.0
H1531 H 0.60122 0.98544 0.93358 0.0
H1532 H 0.56238 0.98013 0.89603 0.0
H1533 H 0.57827 0.98359 0.92502 0.0
H1534 H 0.60999 0.02684 0.90284 0.0
H1535 H 0.59405 0.02344 0.87413 0.0
C1536 C 0.62214 0.02381 0.96034 0.0
C1537 C 0.62389 0.0123 0.96746 0.0
C1538 C 0.61289 0.02154 0.9439 0.0
C1539 C 0.60516 0.00772 0.93397 0.0
C1540 C 0.60688 0.99618 0.94103 0.0
C1541 C 0.61613 0.99844 0.95761 0.0
C1542 C 0.57276 0.99037 0.89738 0.0
C1543 C 0.57691 0.00156 0.88286 0.0
C1544 C 0.5819 0.99233 0.91394 0.0
C1545 C 0.59542 0.0055 0.91631 0.0
C1546 C 0.59955 0.01666 0.90174 0.0
C1547 C 0.59039 0.01473 0.88527 0.0
H1548 H 0.60512 0.98467 0.05042 0.0
H1549 H 0.63355 0.0249 0.08392 0.0
H1550 H 0.58649 0.97764 0.07675 0.0
H1551 H 0.6154 0.01752 0.11103 0.0
H1552 H 0.57587 0.00883 0.14678 0.0
H1553 H 0.59349 0.01533 0.11946 0.0
H1554 H 0.57876 0.96922 0.10944 0.0
H1555 H 0.56003 0.96261 0.1353 0.0
C1556 C 0.60748 0.99188 0.06365 0.0
C1557 C 0.62076 0.00536 0.06508 0.0
C1558 C 0.59681 0.98783 0.07886 0.0
C1559 C 0.59929 0.99701 0.09614 0.0
C1560 C 0.61283 0.01031 0.09777 0.0
C1561 C 0.62334 0.01451 0.08231 0.0
C1562 C 0.57605 0.99999 0.13844 0.0
C1563 C 0.56635 0.98514 0.14338 0.0
C1564 C 0.58648 0.00378 0.12296 0.0
C1565 C 0.5878 0.99286 0.11224 0.0
C1566 C 0.57806 0.97799 0.11709 0.0
C1567 C 0.5674 0.97418 0.13228 0.0
H1568 H 0.98641 0.61205 0.05404 0.0
H1569 H 0.03208 0.63697 0.07073 0.0
H1570 H 0.98177 0.59513 0.08228 0.0
H1571 H 0.02744 0.62011 0.09863 0.0
H1572 H 0.01167 0.59617 0.15902 0.0
H1573 H 0.01445 0.61302 0.13193 0.0
H1574 H 0.9884 0.57608 0.09129 0.0
H1575 H 0.98576 0.55909 0.11838 0.0
C1576 C 0.99542 0.614 0.06379 0.0
C1577 C 0.00962 0.62586 0.06009 0.0
C1578 C 0.99278 0.60424 0.07985 0.0
C1579 C 0.00424 0.60629 0.09266 0.0
C1580 C 0.01835 0.61832 0.08917 0.0
C1581 C 0.02102 0.62794 0.07308 0.0
C1582 C 0.00665 0.5916 0.14426 0.0
C1583 C 0.99867 0.57625 0.14081 0.0
C1584 C 0.00819 0.60127 0.12877 0.0
C1585 C 1.00172 0.59588 0.10945 0.0
C1586 C 0.9934 0.58055 0.1061 0.0
C1587 C 0.99192 0.57083 0.1216 0.0
H1588 H 0.37774 0.38592 0.06362 0.0
H1589 H 0.40321 0.36468 0.06534 0.0
H1590 H 0.39177 0.40165 0.09275 0.0
H1591 H 0.4172 0.38044 0.09387 0.0
H1592 H 0.42927 0.39904 0.15775 0.0
H1593 H 0.4136 0.38365 0.12987 0.0
H1594 H 0.41696 0.42199 0.10156 0.0
H1595 H 0.43268 0.43748 0.1298 0.0
C1596 C 0.38628 0.38457 0.07017 0.0
C1597 C 0.38929 0.37397 0.06213 0.0
C1598 C 0.39437 0.39365 0.08676 0.0
C1599 C 0.40554 0.39223 0.09568 0.0
C1600 C 0.40851 0.38165 0.0876 0.0
C1601 C 0.4005 0.37265 0.07111 0.0
C1602 C 0.42678 0.40423 0.1455 0.0
C1603 C 0.43244 0.41951 0.14575 0.0
C1604 C 0.41776 0.3954 0.12955 0.0
C1605 C 0.41418 0.40162 0.11337 0.0
C1606 C 0.41946 0.41686 0.11388 0.0
C1607 C 0.42849 0.42573 0.12996 0.0
H1608 H 0.68247 0.72379 0.39716 0.0
H1609 H 0.6356 0.70452 0.39904 0.0
H1610 H 0.68491 0.7391 0.4272 0.0
H1611 H 0.63812 0.71983 0.42867 0.0
H1612 H 0.64623 0.73591 0.49483 0.0
H1613 H 0.6452 0.72131 0.46502 0.0
H1614 H 0.681 0.76004 0.43742 0.0
H1615 H 0.68194 0.77484 0.46732 0.0
C1616 C 0.6727 0.72281 0.40392 0.0
C1617 C 0.65883 0.71286 0.39569 0.0
C1618 C 0.67412 0.73164 0.42104 0.0
C1619 C 0.6617 0.7306 0.43034 0.0
C1620 C 0.64788 0.72073 0.42203 0.0
C1621 C 0.64646 0.712 0.40494 0.0
C1622 C 0.65379 0.7414 0.48233 0.0
C1623 C 0.66403 0.75661 0.48334 0.0
C1624 C 0.65323 0.733 0.46528 0.0
C1625 C 0.66294 0.73955 0.44882 0.0
C1626 C 0.67344 0.75468 0.44996 0.0
C1627 C 0.67397 0.76314 0.46706 0.0
H1628 H 0.29836 0.952 0.39676 0.0
H1629 H 0.264 0.96215 0.40115 0.0
H1630 H 0.28686 0.93413 0.42425 0.0
H1631 H 0.25234 0.94407 0.42796 0.0
H1632 H 0.24367 0.92279 0.49045 0.0
H1633 H 0.25537 0.94038 0.46291 0.0
H1634 H 0.26594 0.91049 0.4322 0.0
H1635 H 0.25444 0.89299 0.46012 0.0
C1636 C 0.28834 0.95039 0.40349 0.0
C1637 C 0.28217 0.9586 0.3968 0.0
C1638 C 0.28168 0.94007 0.41917 0.0
C1639 C 0.26867 0.93767 0.4284 0.0
C1640 C 0.26249 0.94581 0.42153 0.0
C1641 C 0.26917 0.95616 0.40603 0.0
C1642 C 0.24832 0.91989 0.47768 0.0
C1643 C 0.24804 0.90646 0.47738 0.0
C1644 C 0.25505 0.92999 0.46187 0.0
C1645 C 0.26159 0.92686 0.44525 0.0
C1646 C 0.26122 0.91336 0.44489 0.0
C1647 C 0.25456 0.90329 0.46082 0.0
H1648 H 0.03569 0.30273 0.40676 0.0
H1649 H 0.05829 0.34896 0.39145 0.0
H1650 H 0.05246 0.30815 0.43495 0.0
H1651 H 0.07504 0.35442 0.42019 0.0
H1652 H 0.11168 0.35386 0.45858 0.0
H1653 H 0.09488 0.35022 0.43066 0.0
H1654 H 0.05845 0.32009 0.46834 0.0
H1655 H 0.07514 0.32366 0.49605 0.0
C1656 C 0.04418 0.31409 0.40946 0.0
C1657 C 0.04561 0.3254 0.39674 0.0
C1658 C 0.05376 0.31721 0.42578 0.0
C1659 C 0.06508 0.33172 0.4299 0.0
C1660 C 0.06651 0.3431 0.41731 0.0
C1661 C 0.05684 0.33998 0.40093 0.0
C1662 C 0.10008 0.34653 0.46091 0.0
C1663 C 0.09478 0.33887 0.47942 0.0
C1664 C 0.09045 0.34449 0.44495 0.0
C1665 C 0.07533 0.33476 0.4472 0.0
C1666 C 0.07005 0.32742 0.46592 0.0
C1667 C 0.07963 0.32943 0.4818 0.0
H1668 H 0.03862 0.29918 0.29389 0.0
H1669 H 0.05673 0.34636 0.29589 0.0
H1670 H 0.05415 0.3019 0.26492 0.0
H1671 H 0.07225 0.34901 0.26641 0.0
H1672 H 0.1083 0.34724 0.22708 0.0
H1673 H 0.0933 0.34606 0.25647 0.0
H1674 H 0.0559 0.30826 0.22882 0.0
H1675 H 0.07075 0.30946 0.19961 0.0
C1676 C 0.04587 0.31016 0.28813 0.0
C1677 C 0.04633 0.32255 0.29725 0.0
C1678 C 0.05474 0.31169 0.2714 0.0
C1679 C 0.06435 0.32565 0.26325 0.0
C1680 C 0.06501 0.33811 0.27243 0.0
C1681 C 0.05606 0.33657 0.28924 0.0
C1682 C 0.09685 0.33875 0.22725 0.0
C1683 C 0.09078 0.32832 0.21112 0.0
C1684 C 0.08826 0.3381 0.24405 0.0
C1685 C 0.07344 0.32698 0.24506 0.0
C1686 C 0.06735 0.31677 0.22873 0.0
C1687 C 0.07589 0.31743 0.212 0.0
H1688 H 0.64648 0.69955 0.27684 0.0
H1689 H 0.6837 0.73098 0.31268 0.0
H1690 H 0.65316 0.71766 0.25 0.0
H1691 H 0.68992 0.74953 0.28654 0.0
H1692 H 0.70421 0.77684 0.22869 0.0
H1693 H 0.69892 0.75827 0.25422 0.0
H1694 H 0.65273 0.73852 0.24224 0.0
H1695 H 0.6581 0.75604 0.2153 0.0
C1696 C 0.65608 0.71039 0.27898 0.0
C1697 C 0.66456 0.71387 0.29683 0.0
C1698 C 0.65985 0.72088 0.26369 0.0
C1699 C 0.67198 0.73525 0.2661 0.0
C1700 C 0.68062 0.73859 0.28388 0.0
C1701 C 0.67703 0.72796 0.29896 0.0
C1702 C 0.69293 0.76841 0.23123 0.0
C1703 C 0.68163 0.76801 0.21967 0.0
C1704 C 0.68986 0.75783 0.2462 0.0
C1705 C 0.67537 0.74672 0.25034 0.0
C1706 C 0.66406 0.74662 0.23924 0.0
C1707 C 0.66714 0.75698 0.224 0.0
H1708 H 0.26657 0.97128 0.29534 0.0
H1709 H 0.29266 0.9507 0.29675 0.0
H1710 H 0.25328 0.9561 0.26597 0.0
H1711 H 0.27933 0.93555 0.26682 0.0
H1712 H 0.23957 0.9001 0.22811 0.0
H1713 H 0.25429 0.91514 0.25725 0.0
H1714 H 0.2577 0.95373 0.22978 0.0
H1715 H 0.24309 0.93881 0.20081 0.0
C1716 C 0.26957 0.96358 0.28934 0.0
C1717 C 0.28074 0.96226 0.29846 0.0
C1718 C 0.26196 0.95492 0.27237 0.0
C1719 C 0.2653 0.94469 0.26399 0.0
C1720 C 0.27645 0.94328 0.27305 0.0
C1721 C 0.28413 0.95203 0.2901 0.0
C1722 C 0.24355 0.91182 0.22827 0.0
C1723 C 0.24 0.91823 0.21228 0.0
C1724 C 0.25202 0.92042 0.24491 0.0
C1725 C 0.25707 0.9356 0.24587 0.0
C1726 C 0.25374 0.94202 0.22969 0.0
C1727 C 0.24531 0.93345 0.21311 0.0
H1728 H 0.65768 0.95694 0.28277 0.0
H1729 H 0.69486 0.95396 0.30134 0.0
H1730 H 0.65429 0.94109 0.25281 0.0
H1731 H 0.69134 0.93809 0.27179 0.0
H1732 H 0.67369 0.89996 0.22623 0.0
H1733 H 0.67228 0.91241 0.25745 0.0
H1734 H 0.6706 0.94507 0.22048 0.0
H1735 H 0.67209 0.93267 0.18931 0.0
C1736 C 0.665 0.95279 0.28058 0.0
C1737 C 0.67661 0.9568 0.29428 0.0
C1738 C 0.66309 0.94377 0.26346 0.0
C1739 C 0.67253 0.93835 0.26008 0.0
C1740 C 0.68381 0.94199 0.27415 0.0
C1741 C 0.6859 0.95119 0.29096 0.0
C1742 C 0.67276 0.90964 0.22482 0.0
C1743 C 0.67311 0.91544 0.20542 0.0
C1744 C 0.67202 0.91678 0.24263 0.0
C1745 C 0.67137 0.9297 0.24133 0.0
C1746 C 0.67098 0.93507 0.2219 0.0
C1747 C 0.67195 0.92806 0.20411 0.0
H1748 H 0.04111 0.72038 0.30392 0.0
H1749 H 0.06361 0.69831 0.2828 0.0
H1750 H 0.05346 0.73898 0.27745 0.0
H1751 H 0.07569 0.71669 0.25639 0.0
H1752 H 0.10774 0.76059 0.22819 0.0
H1753 H 0.09466 0.74271 0.25509 0.0
H1754 H 0.0552 0.74245 0.2399 0.0
H1755 H 0.06827 0.76032 0.21293 0.0
C1756 C 0.04853 0.71938 0.29352 0.0
C1757 C 0.05144 0.70789 0.29564 0.0
C1758 C 0.0556 0.73003 0.27835 0.0
C1759 C 0.06573 0.72943 0.26502 0.0
C1760 C 0.06823 0.71768 0.26672 0.0
C1761 C 0.06119 0.70706 0.2818 0.0
C1762 C 0.09627 0.75671 0.23058 0.0
C1763 C 0.08905 0.76184 0.21834 0.0
C1764 C 0.08876 0.74645 0.24596 0.0
C1765 C 0.07384 0.74103 0.24949 0.0
C1766 C 0.06671 0.74648 0.23768 0.0
C1767 C 0.07423 0.75675 0.22226 0.0
H1768 H 0.28451 0.32075 0.29426 0.0
H1769 H 0.29005 0.36425 0.29618 0.0
H1770 H 0.26639 0.31356 0.26683 0.0
H1771 H 0.27207 0.35705 0.26904 0.0
H1772 H 0.22909 0.33542 0.23484 0.0
H1773 H 0.24512 0.33975 0.26396 0.0
H1774 H 0.26639 0.3208 0.2296 0.0
H1775 H 0.25068 0.3168 0.20026 0.0
C1776 C 0.28186 0.32875 0.2889 0.0
C1777 C 0.28878 0.34309 0.2974 0.0
C1778 C 0.27152 0.32464 0.27318 0.0
C1779 C 0.26775 0.33472 0.26592 0.0
C1780 C 0.27459 0.34898 0.27452 0.0
C1781 C 0.28501 0.35313 0.28997 0.0
C1782 C 0.23719 0.33218 0.23344 0.0
C1783 C 0.23865 0.32588 0.21508 0.0
C1784 C 0.24633 0.33462 0.25016 0.0
C1785 C 0.25706 0.3307 0.24899 0.0
C1786 C 0.25813 0.32381 0.23101 0.0
C1787 C 0.24907 0.32149 0.21421 0.0
H1788 H 0.30463 0.37152 0.40454 0.0
H1789 H 0.27815 0.32488 0.3909 0.0
H1790 H 0.28868 0.36877 0.43299 0.0
H1791 H 0.26178 0.32219 0.41913 0.0
H1792 H 0.24451 0.32162 0.48495 0.0
H1793 H 0.25956 0.32276 0.45574 0.0
H1794 H 0.26504 0.36475 0.43898 0.0
H1795 H 0.25044 0.36375 0.46853 0.0
C1796 C 0.29535 0.36066 0.40756 0.0
C1797 C 0.29263 0.34844 0.39534 0.0
C1798 C 0.2861 0.3591 0.42381 0.0
C1799 C 0.27377 0.3453 0.42819 0.0
C1800 C 0.27121 0.33297 0.41627 0.0
C1801 C 0.28058 0.33452 0.40006 0.0
C1802 C 0.24881 0.33098 0.47482 0.0
C1803 C 0.24642 0.34265 0.47905 0.0
C1804 C 0.25742 0.33164 0.45807 0.0
C1805 C 0.26371 0.34395 0.44513 0.0
C1806 C 0.26073 0.35529 0.44893 0.0
C1807 C 0.25228 0.3547 0.46576 0.0
H1808 H 0.65345 0.94491 0.38545 0.0
H1809 H 0.69913 0.96739 0.40208 0.0
H1810 H 0.64804 0.92664 0.41187 0.0
H1811 H 0.69367 0.94941 0.42864 0.0
H1812 H 0.68246 0.90685 0.45938 0.0
H1813 H 0.68666 0.92399 0.43186 0.0
H1814 H 0.64716 0.92346 0.44873 0.0
H1815 H 0.6429 0.9062 0.47611 0.0
C1816 C 0.66232 0.94606 0.39484 0.0
C1817 C 0.67674 0.9576 0.39152 0.0
C1818 C 0.65921 0.93559 0.41003 0.0
C1819 C 0.67044 0.93645 0.42226 0.0
C1820 C 0.68479 0.94819 0.41921 0.0
C1821 C 0.6879 0.9586 0.40404 0.0
C1822 C 0.67466 0.91037 0.45717 0.0
C1823 C 0.66237 0.90519 0.46996 0.0
C1824 C 0.67709 0.92024 0.44144 0.0
C1825 C 0.66732 0.92523 0.43819 0.0
C1826 C 0.65482 0.91974 0.45065 0.0
C1827 C 0.65237 0.90982 0.46634 0.0
H1828 H 0.04124 0.70989 0.40786 0.0
H1829 H 0.0799 0.7144 0.37913 0.0
H1830 H 0.0561 0.72553 0.4365 0.0
H1831 H 0.0948 0.73054 0.40695 0.0
H1832 H 0.11432 0.74184 0.47057 0.0
H1833 H 0.09962 0.72826 0.44108 0.0
H1834 H 0.07419 0.7493 0.44864 0.0
H1835 H 0.0883 0.76213 0.47922 0.0
C1836 C 0.05294 0.71443 0.40753 0.0
C1837 C 0.05939 0.71074 0.39147 0.0
C1838 C 0.06148 0.72346 0.42386 0.0
C1839 C 0.07667 0.72915 0.42425 0.0
C1840 C 0.08312 0.72601 0.40757 0.0
C1841 C 0.07458 0.71682 0.39152 0.0
C1842 C 0.10552 0.74349 0.46611 0.0
C1843 C 0.10247 0.75302 0.47743 0.0
C1844 C 0.09719 0.73586 0.44892 0.0
C1845 C 0.0857 0.73769 0.44232 0.0
C1846 C 0.08283 0.74747 0.45338 0.0
C1847 C 0.09108 0.75501 0.47076 0.0
H1848 H 0.30675 0.02822 0.74502 0.0
H1849 H 0.34326 0.06585 0.71678 0.0
H1850 H 0.30857 0.0433 0.77466 0.0
H1851 H 0.34443 0.08144 0.74554 0.0
H1852 H 0.3512 0.10383 0.80754 0.0
H1853 H 0.35045 0.08875 0.77877 0.0
H1854 H 0.30379 0.06051 0.7868 0.0
H1855 H 0.30487 0.07437 0.81711 0.0
C1856 C 0.31509 0.03981 0.74516 0.0
C1857 C 0.32488 0.0459 0.72873 0.0
C1858 C 0.31605 0.04856 0.76204 0.0
C1859 C 0.32652 0.06377 0.7626 0.0
C1860 C 0.33637 0.06979 0.74602 0.0
C1861 C 0.33568 0.06089 0.72943 0.0
C1862 C 0.3408 0.09422 0.80352 0.0
C1863 C 0.32814 0.09033 0.81508 0.0
C1864 C 0.34031 0.08567 0.7866 0.0
C1865 C 0.32707 0.07321 0.78032 0.0
C1866 C 0.31431 0.06971 0.79136 0.0
C1867 C 0.31488 0.07798 0.80862 0.0
H1868 H 0.93162 0.2958 0.72632 0.0
H1869 H 0.96677 0.28675 0.72843 0.0
H1870 H 0.91828 0.27705 0.7518 0.0
H1871 H 0.9532 0.26777 0.75418 0.0
H1872 H 0.93011 0.25084 0.81941 0.0
H1873 H 0.94468 0.26657 0.7911 0.0
H1874 H 0.90567 0.24975 0.75437 0.0
H1875 H 0.89113 0.23395 0.78252 0.0
C1876 C 0.93654 0.28982 0.7322 0.0
C1877 C 0.95031 0.29284 0.72528 0.0
C1878 C 0.92879 0.27895 0.7467 0.0
C1879 C 0.93462 0.27082 0.75483 0.0
C1880 C 0.94845 0.27387 0.74816 0.0
C1881 C 0.95619 0.28471 0.7334 0.0
C1882 C 0.9247 0.2502 0.8051 0.0
C1883 C 0.90942 0.2413 0.80331 0.0
C1884 C 0.93305 0.25924 0.7889 0.0
C1885 C 0.92628 0.25957 0.77067 0.0
C1886 C 0.91115 0.24995 0.76842 0.0
C1887 C 0.90282 0.24091 0.78453 0.0
H1888 H 0.72187 0.68392 0.72865 0.0
H1889 H 0.71516 0.63995 0.72933 0.0
H1890 H 0.73981 0.69133 0.75629 0.0
H1891 H 0.73296 0.64738 0.75683 0.0
H1892 H 0.77623 0.66946 0.79104 0.0
H1893 H 0.75984 0.66403 0.762 0.0
H1894 H 0.7399 0.68545 0.79365 0.0
H1895 H 0.75601 0.69061 0.82288 0.0
C1896 C 0.7242 0.67584 0.73466 0.0
C1897 C 0.71704 0.66133 0.72676 0.0
C1898 C 0.73444 0.68009 0.75052 0.0
C1899 C 0.73785 0.66996 0.75862 0.0
C1900 C 0.73072 0.65549 0.7507 0.0
C1901 C 0.72041 0.65121 0.73504 0.0
C1902 C 0.76834 0.67299 0.79186 0.0
C1903 C 0.76742 0.6804 0.8094 0.0
C1904 C 0.75897 0.66991 0.7752 0.0
C1905 C 0.74854 0.67425 0.77561 0.0
C1906 C 0.74793 0.6821 0.7928 0.0
C1907 C 0.75722 0.68509 0.80953 0.0
H1908 H 0.72131 0.64265 0.63802 0.0
H1909 H 0.7153 0.67794 0.61786 0.0
H1910 H 0.73718 0.64658 0.60876 0.0
H1911 H 0.73117 0.68174 0.58818 0.0
H1912 H 0.74048 0.66354 0.5256 0.0
H1913 H 0.72801 0.66489 0.5565 0.0
H1914 H 0.76197 0.66649 0.59405 0.0
H1915 H 0.7745 0.66523 0.56308 0.0
C1916 C 0.72343 0.6513 0.62735 0.0
C1917 C 0.71696 0.65991 0.63013 0.0
C1918 C 0.73263 0.65363 0.61071 0.0
C1919 C 0.73542 0.66448 0.59626 0.0
C1920 C 0.72916 0.67329 0.59913 0.0
C1921 C 0.72013 0.67114 0.61608 0.0
C1922 C 0.74535 0.66436 0.54047 0.0
C1923 C 0.75837 0.66415 0.54202 0.0
C1924 C 0.73829 0.66526 0.5581 0.0
C1925 C 0.74402 0.66576 0.57762 0.0
C1926 C 0.75731 0.66607 0.57915 0.0
C1927 C 0.76449 0.6654 0.56149 0.0
H1928 H 0.35055 0.06475 0.64465 0.0
H1929 H 0.31143 0.03467 0.61106 0.0
H1930 H 0.35672 0.0835 0.61888 0.0
H1931 H 0.31798 0.05299 0.58452 0.0
H1932 H 0.32449 0.09213 0.55008 0.0
H1933 H 0.31885 0.07464 0.57723 0.0
H1934 H 0.36495 0.09165 0.58617 0.0
H1935 H 0.37063 0.11019 0.56048 0.0
C1936 C 0.34342 0.06206 0.6315 0.0
C1937 C 0.33048 0.04827 0.6299 0.0
C1938 C 0.34698 0.0728 0.61662 0.0
C1939 C 0.33783 0.06991 0.59953 0.0
C1940 C 0.32512 0.05587 0.59768 0.0
C1941 C 0.32141 0.04526 0.61279 0.0
C1942 C 0.33348 0.09247 0.55817 0.0
C1943 C 0.34806 0.10268 0.5529 0.0
C1944 C 0.33022 0.08214 0.57354 0.0
C1945 C 0.3414 0.08145 0.58382 0.0
C1946 C 0.35598 0.09182 0.57881 0.0
C1947 C 0.35926 0.10237 0.56374 0.0
H1948 H 0.95406 0.27948 0.63953 0.0
H1949 H 0.95362 0.31606 0.61182 0.0
H1950 H 0.93893 0.26328 0.6116 0.0
H1951 H 0.93941 0.30029 0.5832 0.0
H1952 H 0.89999 0.26704 0.54871 0.0
H1953 H 0.9157 0.28212 0.5764 0.0
H1954 H 0.93595 0.25566 0.57736 0.0
H1955 H 0.91911 0.23957 0.55095 0.0
C1956 C 0.95104 0.28412 0.62712 0.0
C1957 C 0.95487 0.29896 0.62786 0.0
C1958 C 0.94238 0.27486 0.61107 0.0
C1959 C 0.93764 0.28035 0.59522 0.0
C1960 C 0.94235 0.29548 0.59543 0.0
C1961 C 0.95066 0.3046 0.6117 0.0
C1962 C 0.90749 0.26412 0.55511 0.0
C1963 C 0.90816 0.25197 0.54745 0.0
C1964 C 0.91682 0.27306 0.57077 0.0
C1965 C 0.92738 0.27037 0.57898 0.0
C1966 C 0.92795 0.2581 0.57156 0.0
C1967 C 0.91838 0.24895 0.55613 0.0
H1968 H 0.3707 0.30049 0.62705 0.0
H1969 H 0.32396 0.28209 0.62891 0.0
H1970 H 0.36772 0.28375 0.59914 0.0
H1971 H 0.321 0.26505 0.60096 0.0
H1972 H 0.32595 0.25081 0.5343 0.0
H1973 H 0.32653 0.2654 0.56408 0.0
H1974 H 0.35822 0.25763 0.59306 0.0
H1975 H 0.35767 0.24311 0.56326 0.0
C1976 C 0.35976 0.29284 0.62158 0.0
C1977 C 0.34757 0.29266 0.63032 0.0
C1978 C 0.35805 0.28313 0.60565 0.0
C1979 C 0.34411 0.27295 0.59797 0.0
C1980 C 0.33189 0.27282 0.6065 0.0
C1981 C 0.3336 0.28256 0.62254 0.0
C1982 C 0.33282 0.25198 0.54721 0.0
C1983 C 0.34186 0.24591 0.54637 0.0
C1984 C 0.33316 0.26035 0.56427 0.0
C1985 C 0.34254 0.26281 0.58083 0.0
C1986 C 0.35109 0.25619 0.58035 0.0
C1987 C 0.35077 0.24786 0.56331 0.0
H1988 H 0.70391 0.04525 0.62148 0.0
H1989 H 0.74528 0.05177 0.64179 0.0
H1990 H 0.71642 0.06251 0.59324 0.0
H1991 H 0.7577 0.06917 0.61411 0.0
H1992 H 0.77617 0.10919 0.57203 0.0
H1993 H 0.7617 0.09513 0.60181 0.0
H1994 H 0.73164 0.06002 0.56132 0.0
H1995 H 0.74628 0.07391 0.53168 0.0
C1996 C 0.71566 0.05053 0.62008 0.0
C1997 C 0.72363 0.0471 0.63367 0.0
C1998 C 0.72278 0.06035 0.60397 0.0
C1999 C 0.738 0.06717 0.60164 0.0
C2000 C 0.74598 0.06416 0.61571 0.0
C2001 C 0.73886 0.05411 0.63142 0.0
C2002 C 0.76635 0.09857 0.56958 0.0
C2003 C 0.76235 0.09252 0.54971 0.0
C2004 C 0.75811 0.09055 0.58652 0.0
C2005 C 0.74557 0.07654 0.58377 0.0
C2006 C 0.74118 0.07086 0.5638 0.0
C2007 C 0.74958 0.07872 0.54692 0.0
H2008 H 0.94081 0.65598 0.64105 0.0
H2009 H 0.97083 0.69665 0.61083 0.0
H2010 H 0.9231 0.64983 0.61359 0.0
H2011 H 0.95357 0.69023 0.58287 0.0
H2012 H 0.91534 0.68394 0.54687 0.0
H2013 H 0.93178 0.68899 0.57527 0.0
H2014 H 0.91671 0.64253 0.57926 0.0
H2015 H 0.89923 0.6373 0.55195 0.0
C2016 C 0.94371 0.66348 0.62835 0.0
C2017 C 0.95716 0.67686 0.62818 0.0
C2018 C 0.93358 0.65994 0.61253 0.0
C2019 C 0.93676 0.6696 0.59602 0.0
C2020 C 0.95048 0.68271 0.59557 0.0
C2021 C 0.96048 0.68635 0.61153 0.0
C2022 C 0.9152 0.67471 0.55407 0.0
C2023 C 0.90584 0.66018 0.54698 0.0
C2024 C 0.92492 0.67766 0.57018 0.0
C2025 C 0.92582 0.66622 0.57947 0.0
C2026 C 0.91632 0.65165 0.57263 0.0
C2027 C 0.9064 0.64866 0.5567 0.0
H2028 H 0.94676 0.65755 0.72857 0.0
H2029 H 0.96393 0.70457 0.72994 0.0
H2030 H 0.92996 0.65451 0.75641 0.0
H2031 H 0.94743 0.70153 0.75775 0.0
H2032 H 0.9069 0.69083 0.79285 0.0
H2033 H 0.92159 0.69155 0.76353 0.0
H2034 H 0.93001 0.66034 0.79312 0.0
H2035 H 0.91525 0.65957 0.82242 0.0
C2036 C 0.94702 0.66723 0.73483 0.0
C2037 C 0.95669 0.6813 0.7269 0.0
C2038 C 0.93742 0.66549 0.75081 0.0
C2039 C 0.93725 0.67776 0.75915 0.0
C2040 C 0.94704 0.6918 0.75139 0.0
C2041 C 0.95661 0.69355 0.7355 0.0
C2042 C 0.91184 0.68408 0.79305 0.0
C2043 C 0.90999 0.67523 0.81002 0.0
C2044 C 0.92028 0.6845 0.77628 0.0
C2045 C 0.92712 0.67613 0.7761 0.0
C2046 C 0.9248 0.66683 0.7927 0.0
C2047 C 0.91632 0.66638 0.80948 0.0
H2048 H 0.32147 0.28296 0.7241 0.0
H2049 H 0.36744 0.30088 0.7357 0.0
H2050 H 0.31548 0.26434 0.75022 0.0
H2051 H 0.36141 0.28244 0.76183 0.0
H2052 H 0.34625 0.23763 0.78969 0.0
H2053 H 0.35119 0.25574 0.76329 0.0
H2054 H 0.31679 0.26173 0.78761 0.0
H2055 H 0.31191 0.24372 0.81411 0.0
C2056 C 0.3303 0.28304 0.73231 0.0
C2057 C 0.34495 0.29342 0.72768 0.0
C2058 C 0.32685 0.27238 0.74731 0.0
C2059 C 0.33798 0.27182 0.75794 0.0
C2060 C 0.35259 0.28239 0.75363 0.0
C2061 C 0.35603 0.29305 0.73873 0.0
C2062 C 0.33976 0.24283 0.78944 0.0
C2063 C 0.32871 0.23922 0.80407 0.0
C2064 C 0.3426 0.25322 0.77433 0.0
C2065 C 0.33445 0.26026 0.77344 0.0
C2066 C 0.32317 0.2564 0.78774 0.0
C2067 C 0.32035 0.24603 0.8029 0.0
H2068 H 0.70313 0.04346 0.74179 0.0
H2069 H 0.74421 0.04963 0.71996 0.0
H2070 H 0.71576 0.05962 0.77147 0.0
H2071 H 0.75673 0.06591 0.74916 0.0
H2072 H 0.77593 0.10486 0.79444 0.0
H2073 H 0.76165 0.09145 0.76394 0.0
H2074 H 0.7302 0.05647 0.80245 0.0
H2075 H 0.74457 0.06976 0.83286 0.0
C2076 C 0.71484 0.04838 0.74323 0.0
C2077 C 0.72268 0.04519 0.72871 0.0
C2078 C 0.72203 0.05758 0.76016 0.0
C2079 C 0.7372 0.06402 0.76248 0.0
C2080 C 0.74506 0.06118 0.74762 0.0
C2081 C 0.73786 0.05177 0.73102 0.0
C2082 C 0.76586 0.09441 0.79635 0.0
C2083 C 0.76138 0.08825 0.8159 0.0
C2084 C 0.75774 0.08674 0.77896 0.0
C2085 C 0.74485 0.07295 0.78092 0.0
C2086 C 0.74003 0.06714 0.80057 0.0
C2087 C 0.74829 0.07466 0.8179 0.0
H2088 H 0.05385 0.37894 0.02782 0.0
H2089 H 0.02451 0.33299 0.04156 0.0
H2090 H 0.07446 0.37706 0.04069 0.0
H2091 H 0.04493 0.33112 0.05395 0.0
H2092 H 0.08533 0.32827 0.0565 0.0
H2093 H 0.06825 0.33311 0.03861 0.0
H2094 H 0.08134 0.37145 0.07716 0.0
H2095 H 0.09816 0.36642 0.09559 0.0
C2096 C 0.05184 0.36845 0.03341 0.0
C2097 C 0.03759 0.35612 0.03374 0.0
C2098 C 0.06359 0.3674 0.0408 0.0
C2099 C 0.06128 0.35392 0.04815 0.0
C2100 C 0.04706 0.34159 0.04812 0.0
C2101 C 0.03535 0.34271 0.04116 0.0
C2102 C 0.08467 0.3378 0.06111 0.0
C2103 C 0.09294 0.34679 0.07775 0.0
C2104 C 0.07493 0.3406 0.05079 0.0
C2105 C 0.07338 0.35255 0.05667 0.0
C2106 C 0.08239 0.3622 0.07226 0.0
C2107 C 0.09205 0.35931 0.08277 0.0
H2108 H 0.63632 0.68171 0.03745 0.0
H2109 H 0.68009 0.69134 0.04948 0.0
H2110 H 0.64151 0.70411 0.0559 0.0
H2111 H 0.6857 0.71422 0.06673 0.0
H2112 H 0.68848 0.74781 0.11261 0.0
H2113 H 0.68225 0.72458 0.09586 0.0
H2114 H 0.65365 0.72958 0.05431 0.0
H2115 H 0.65929 0.75241 0.07224 0.0
C2116 C 0.64709 0.6887 0.04396 0.0
C2117 C 0.65778 0.68479 0.04214 0.0
C2118 C 0.65014 0.70163 0.05438 0.0
C2119 C 0.66407 0.71112 0.06283 0.0
C2120 C 0.67475 0.70712 0.06089 0.0
C2121 C 0.67158 0.69402 0.05087 0.0
C2122 C 0.68087 0.74388 0.09987 0.0
C2123 C 0.67441 0.75184 0.09357 0.0
C2124 C 0.67735 0.7306 0.09014 0.0
C2125 C 0.6675 0.72513 0.07354 0.0
C2126 C 0.66108 0.73324 0.06723 0.0
C2127 C 0.66438 0.74638 0.07732 0.0
H2128 H 0.31557 0.95767 0.00865 0.0
H2129 H 0.32482 0.98604 0.06182 0.0
H2130 H 0.29327 0.93853 0.02515 0.0
H2131 H 0.30267 0.9667 0.0785 0.0
H2132 H 0.27118 0.92072 0.10771 0.0
H2133 H 0.2937 0.9389 0.09048 0.0
H2134 H 0.26861 0.93757 0.03798 0.0
H2135 H 0.24602 0.91962 0.05542 0.0
C2136 C 0.31286 0.95978 0.02389 0.0
C2137 C 0.32188 0.97334 0.03396 0.0
C2138 C 0.30011 0.94885 0.03327 0.0
C2139 C 0.29633 0.95117 0.05306 0.0
C2140 C 0.30543 0.96465 0.06326 0.0
C2141 C 0.31803 0.97571 0.05369 0.0
C2142 C 0.27053 0.92416 0.09236 0.0
C2143 C 0.25692 0.91875 0.08279 0.0
C2144 C 0.28336 0.93463 0.08262 0.0
C2145 C 0.28282 0.93962 0.06298 0.0
C2146 C 0.26927 0.93383 0.0531 0.0
C2147 C 0.2564 0.9236 0.06303 0.0
H2148 H 0.35087 0.0245 0.95789 0.0
H2149 H 0.36969 0.04865 0.01436 0.0
H2150 H 0.35005 0.04555 0.94444 0.0
H2151 H 0.36841 0.0696 0.00105 0.0
H2152 H 0.33748 0.08757 0.97425 0.0
H2153 H 0.3437 0.07037 0.98947 0.0
H2154 H 0.37001 0.07461 0.93646 0.0
H2155 H 0.36412 0.09208 0.92149 0.0
C2156 C 0.35494 0.03436 0.96734 0.0
C2157 C 0.36036 0.03497 0.98714 0.0
C2158 C 0.35452 0.0464 0.95962 0.0
C2159 C 0.35918 0.05915 0.97174 0.0
C2160 C 0.36477 0.05987 0.99145 0.0
C2161 C 0.36556 0.04794 0.99899 0.0
C2162 C 0.34488 0.08509 0.96614 0.0
C2163 C 0.35039 0.09117 0.94678 0.0
C2164 C 0.34846 0.07531 0.97483 0.0
C2165 C 0.3573 0.0712 0.96407 0.0
C2166 C 0.36319 0.07765 0.94503 0.0
C2167 C 0.35989 0.08768 0.93656 0.0
H2168 H 0.95904 0.31904 0.01335 0.0
H2169 H 0.98761 0.32542 0.96221 0.0
H2170 H 0.93933 0.29725 0.99628 0.0
H2171 H 0.96781 0.30402 0.94475 0.0
H2172 H 0.93466 0.25747 0.92649 0.0
H2173 H 0.95388 0.27798 0.94591 0.0
H2174 H 0.92271 0.28943 0.96841 0.0
H2175 H 0.90328 0.2683 0.95005 0.0
C2176 C 0.96106 0.31586 0.99836 0.0
C2177 C 0.97488 0.32391 0.98914 0.0
C2178 C 0.94974 0.3034 0.98852 0.0
C2179 C 0.95195 0.29878 0.96914 0.0
C2180 C 0.96576 0.30702 0.95984 0.0
C2181 C 0.9771 0.31938 0.96976 0.0
C2182 C 0.9318 0.26413 0.93594 0.0
C2183 C 0.91737 0.26119 0.93663 0.0
C2184 C 0.94291 0.27609 0.94683 0.0
C2185 C 0.93993 0.28553 0.95855 0.0
C2186 C 0.92543 0.28237 0.95967 0.0
C2187 C 0.91429 0.27033 0.94891 0.0
H2188 H 0.68186 0.63649 0.0037 0.0
H2189 H 0.68067 0.6667 0.96096 0.0
H2190 H 0.70479 0.641 0.98844 0.0
H2191 H 0.70319 0.67083 0.94532 0.0
H2192 H 0.7512 0.6896 0.93819 0.0
H2193 H 0.72832 0.68353 0.9544 0.0
H2194 H 0.71663 0.63798 0.95846 0.0
H2195 H 0.74009 0.64425 0.94327 0.0
C2196 C 0.68635 0.64388 0.99081 0.0
C2197 C 0.67954 0.65135 0.98364 0.0
C2198 C 0.69948 0.64645 0.98205 0.0
C2199 C 0.70599 0.65648 0.96587 0.0
C2200 C 0.69873 0.66336 0.95813 0.0
C2201 C 0.68573 0.66089 0.96697 0.0
C2202 C 0.74397 0.67834 0.94295 0.0
C2203 C 0.74758 0.66743 0.9394 0.0
C2204 C 0.73066 0.67479 0.95193 0.0
C2205 C 0.72048 0.6602 0.95742 0.0
C2206 C 0.72421 0.64933 0.95444 0.0
C2207 C 0.73762 0.65291 0.94554 0.0
H2208 H 0.9516 0.6286 0.99775 0.0
H2209 H 0.98419 0.67008 0.97172 0.0
H2210 H 0.93234 0.63101 0.98109 0.0
H2211 H 0.96526 0.67268 0.95587 0.0
H2212 H 0.93189 0.66805 0.91209 0.0
H2213 H 0.94851 0.66186 0.92814 0.0
H2214 H 0.92033 0.64583 0.98131 0.0
H2215 H 0.9033 0.65161 0.9646 0.0
C2216 C 0.95463 0.63821 0.98854 0.0
C2217 C 0.96941 0.64906 0.98585 0.0
C2218 C 0.94363 0.63963 0.97911 0.0
C2219 C 0.94726 0.65193 0.96687 0.0
C2220 C 0.96204 0.66285 0.96466 0.0
C2221 C 0.97294 0.6614 0.9739 0.0
C2222 C 0.9292 0.66308 0.92713 0.0
C2223 C 0.91648 0.6605 0.93728 0.0
C2224 C 0.93874 0.65959 0.9364 0.0
C2225 C 0.93594 0.65365 0.95623 0.0
C2226 C 0.92281 0.65038 0.96602 0.0
C2227 C 0.9131 0.65373 0.95655 0.0
H2228 H 0.33673 0.32332 0.95955 0.0
H2229 H 0.35473 0.3111 0.00928 0.0
H2230 H 0.33201 0.30133 0.94031 0.0
H2231 H 0.34924 0.28868 0.99081 0.0
H2232 H 0.35051 0.25661 0.94573 0.0
H2233 H 0.35598 0.27912 0.96373 0.0
H2234 H 0.31719 0.27592 0.93806 0.0
H2235 H 0.31253 0.25427 0.91851 0.0
C2236 C 0.33953 0.31583 0.96642 0.0
C2237 C 0.34612 0.31891 0.98584 0.0
C2238 C 0.33674 0.30314 0.95549 0.0
C2239 C 0.34019 0.2931 0.96394 0.0
C2240 C 0.34669 0.29623 0.98352 0.0
C2241 C 0.34975 0.30905 0.99423 0.0
C2242 C 0.34326 0.26081 0.94363 0.0
C2243 C 0.33107 0.25352 0.93055 0.0
C2244 C 0.34627 0.27365 0.95428 0.0
C2245 C 0.33703 0.27943 0.95247 0.0
C2246 C 0.32472 0.27201 0.93964 0.0
C2247 C 0.32187 0.25934 0.92869 0.0
H2248 H 0.68031 0.01649 0.96671 0.0
H2249 H 0.68343 0.04755 0.01321 0.0
H2250 H 0.70321 0.03536 0.95182 0.0
H2251 H 0.70667 0.06647 0.99853 0.0
H2252 H 0.74079 0.09979 0.95229 0.0
H2253 H 0.71774 0.08195 0.96846 0.0
H2254 H 0.72872 0.04814 0.96039 0.0
H2255 H 0.75127 0.06564 0.94343 0.0
C2256 C 0.6859 0.02737 0.97376 0.0
C2257 C 0.68011 0.03051 0.9912 0.0
C2258 C 0.6991 0.03817 0.96532 0.0
C2259 C 0.7069 0.05238 0.97415 0.0
C2260 C 0.70092 0.05565 0.9913 0.0
C2261 C 0.68763 0.04482 -0.00025 0.0
C2262 C 0.73827 0.08854 0.95398 0.0
C2263 C 0.74791 0.08417 0.94648 0.0
C2264 C 0.72511 0.07835 0.96341 0.0
C2265 C 0.7213 0.06357 0.96551 0.0
C2266 C 0.73118 0.05936 0.95868 0.0
C2267 C 0.74426 0.0695 0.94924 0.0
H2268 H 0.63228 0.95242 0.01339 0.0
H2269 H 0.66072 0.98151 0.06126 0.0
H2270 H 0.63663 0.933 0.02519 0.0
H2271 H 0.6648 0.9623 0.0731 0.0
H2272 H 0.68459 0.93456 0.07428 0.0
H2273 H 0.67828 0.95128 0.05913 0.0
H2274 H 0.63316 0.91631 0.05498 0.0
H2275 H 0.63961 0.8991 0.06935 0.0
C2276 C 0.63927 0.95459 0.02656 0.0
C2277 C 0.64631 0.96854 0.03623 0.0
C2278 C 0.64175 0.9435 0.03331 0.0
C2279 C 0.65131 0.94623 0.0498 0.0
C2280 C 0.65771 0.95996 0.05999 0.0
C2281 C 0.65529 0.97096 0.05327 0.0
C2282 C 0.67338 0.93019 0.06961 0.0
C2283 C 0.66263 0.91539 0.07313 0.0
C2284 C 0.66971 0.93991 0.06122 0.0
C2285 C 0.65516 0.93521 0.05626 0.0
C2286 C 0.64446 0.92027 0.05872 0.0
C2287 C 0.64815 0.91045 0.06711 0.0
H2288 H 0.04703 0.68128 0.02416 0.0
H2289 H 0.01333 0.68726 0.05129 0.0
H2290 H 0.06573 0.70447 0.04028 0.0
H2291 H 0.03194 0.7104 0.06705 0.0
H2292 H 0.06885 0.75852 0.07139 0.0
H2293 H 0.05188 0.73578 0.05314 0.0
H2294 H 0.07361 0.71446 0.078 0.0
H2295 H 0.09027 0.73698 0.09698 0.0
C2296 C 0.04364 0.68753 0.03356 0.0
C2297 C 0.02874 0.68249 0.03648 0.0
C2298 C 0.05431 0.70075 0.04278 0.0
C2299 C 0.05025 0.70925 0.05471 0.0
C2300 C 0.03536 0.70415 0.05768 0.0
C2301 C 0.02472 0.69085 0.04879 0.0
C2302 C 0.07002 0.749 0.07305 0.0
C2303 C 0.08086 0.74959 0.08589 0.0
C2304 C 0.06033 0.73601 0.06253 0.0
C2305 C 0.06139 0.72337 0.06432 0.0
C2306 C 0.07263 0.7241 0.07627 0.0
C2307 C 0.08222 0.73705 0.08705 0.0
H2308 H 0.32507 0.34275 0.06689 0.0
H2309 H 0.32424 0.36979 0.01849 0.0
H2310 H 0.30399 0.34202 0.08296 0.0
H2311 H 0.30285 0.36883 0.03451 0.0
H2312 H 0.25291 0.34176 0.05765 0.0
H2313 H 0.27584 0.34704 0.04119 0.0
H2314 H 0.29764 0.36029 0.0999 0.0
H2315 H 0.27486 0.35506 0.11631 0.0
C2316 C 0.32043 0.34863 0.05977 0.0
C2317 C 0.32629 0.35633 0.04145 0.0
C2318 C 0.30841 0.34826 0.06902 0.0
C2319 C 0.30182 0.35538 0.05997 0.0
C2320 C 0.30773 0.36322 0.04175 0.0
C2321 C 0.31998 0.36384 0.03267 0.0
C2322 C 0.26267 0.346 0.06694 0.0
C2323 C 0.2621 0.348 0.08825 0.0
C2324 C 0.27578 0.3491 0.05753 0.0
C2325 C 0.28847 0.35402 0.06932 0.0
C2326 C 0.288 0.35646 0.09048 0.0
C2327 C 0.27498 0.35357 0.09983 0.0
H2328 H 0.68735 0.67518 0.3984 0.0
H2329 H 0.71798 0.70544 0.35407 0.0
H2330 H 0.70622 0.67137 0.41227 0.0
H2331 H 0.73687 0.70123 0.36753 0.0
H2332 H 0.77019 0.69829 0.40965 0.0
H2333 H 0.75264 0.7044 0.39621 0.0
H2334 H 0.71832 0.65882 0.4016 0.0
H2335 H 0.73547 0.65292 0.41609 0.0
C2336 C 0.69816 0.68106 0.39165 0.0
C2337 C 0.70115 0.69053 0.37505 0.0
C2338 C 0.70896 0.67878 0.39948 0.0
C2339 C 0.72301 0.68576 0.39076 0.0
C2340 C 0.72619 0.69571 0.37466 0.0
C2341 C 0.71537 0.69811 0.36692 0.0
C2342 C 0.75889 0.68959 0.40802 0.0
C2343 C 0.75431 0.6751 0.41401 0.0
C2344 C 0.74885 0.69308 0.40014 0.0
C2345 C 0.73401 0.68215 0.39807 0.0
C2346 C 0.72958 0.6676 0.40339 0.0
C2347 C 0.73954 0.66415 0.41136 0.0
H2348 H 0.33735 0.01639 0.3977 0.0
H2349 H 0.30802 0.02068 0.35699 0.0
H2350 H 0.34273 0.03917 0.41543 0.0
H2351 H 0.31375 0.04362 0.3741 0.0
H2352 H 0.31652 0.07704 0.42135 0.0
H2353 H 0.3104 0.05367 0.40507 0.0
H2354 H 0.35542 0.06517 0.41013 0.0
H2355 H 0.36134 0.08809 0.42752 0.0
C2356 C 0.33207 0.0222 0.39255 0.0
C2357 C 0.32227 0.01676 0.37598 0.0
C2358 C 0.33523 0.03532 0.40258 0.0
C2359 C 0.32873 0.04329 0.39614 0.0
C2360 C 0.3188 0.03769 0.37969 0.0
C2361 C 0.31558 0.02456 0.36979 0.0
C2362 C 0.3251 0.07454 0.41912 0.0
C2363 C 0.33943 0.08448 0.42575 0.0
C2364 C 0.32162 0.06119 0.40959 0.0
C2365 C 0.33241 0.0575 0.40631 0.0
C2366 C 0.34678 0.06754 0.41267 0.0
C2367 C 0.35024 0.08083 0.42233 0.0
H2368 H 0.9899 0.28865 0.35942 0.0
H2369 H 0.98595 0.32443 0.38483 0.0
H2370 H 0.96654 0.27085 0.37496 0.0
H2371 H 0.96252 0.30661 0.40019 0.0
H2372 H 0.91387 0.27022 0.40277 0.0
H2373 H 0.93713 0.28727 0.38652 0.0
H2374 H 0.95605 0.26317 0.41124 0.0
H2375 H 0.93303 0.24642 0.42819 0.0
C2376 C 0.98407 0.2927 0.36838 0.0
C2377 C 0.98974 0.30792 0.37092 0.0
C2378 C 0.97072 0.28252 0.37729 0.0
C2379 C 0.96269 0.28736 0.38864 0.0
C2380 C 0.96842 0.30258 0.3913 0.0
C2381 C 0.98186 0.31277 0.38265 0.0
C2382 C 0.92298 0.26856 0.40485 0.0
C2383 C 0.92153 0.25694 0.41694 0.0
C2384 C 0.93629 0.27833 0.39551 0.0
C2385 C 0.9484 0.27659 0.39776 0.0
C2386 C 0.94685 0.2647 0.40915 0.0
C2387 C 0.9336 0.25504 0.41874 0.0
H2388 H 0.0468 0.38338 0.3325 0.0
H2389 H 0.00548 0.35292 0.30387 0.0
H2390 H 0.04612 0.40402 0.31721 0.0
H2391 H 0.00452 0.37339 0.28929 0.0
H2392 H 0.01439 0.41136 0.24783 0.0
H2393 H 0.01556 0.39132 0.26355 0.0
H2394 H 0.03382 0.4178 0.31859 0.0
H2395 H 0.03291 0.4381 0.30251 0.0
C2396 C 0.03758 0.3811 0.32298 0.0
C2397 C 0.02626 0.36651 0.31927 0.0
C2398 C 0.03711 0.39293 0.31436 0.0
C2399 C 0.02527 0.39041 0.30194 0.0
C2400 C 0.01395 0.37579 0.29841 0.0
C2401 C 0.01447 0.36401 0.30687 0.0
C2402 C 0.01845 0.41285 0.26341 0.0
C2403 C 0.02339 0.42627 0.27401 0.0
C2404 C 0.01915 0.40134 0.27245 0.0
C2405 C 0.02471 0.40286 0.29242 0.0
C2406 C 0.02964 0.41629 0.30309 0.0
C2407 C 0.02903 0.42789 0.29394 0.0
H2408 H 0.62573 0.65257 0.3397 0.0
H2409 H 0.65948 0.65655 0.29859 0.0
H2410 H 0.60819 0.62934 0.32314 0.0
H2411 H 0.64183 0.63356 0.28146 0.0
H2412 H 0.61154 0.58482 0.26988 0.0
H2413 H 0.62845 0.60775 0.28738 0.0
H2414 H 0.59457 0.61854 0.29252 0.0
H2415 H 0.57735 0.59509 0.27612 0.0
C2416 C 0.62936 0.64855 0.32695 0.0
C2417 C 0.64399 0.65634 0.32049 0.0
C2418 C 0.61928 0.63526 0.31737 0.0
C2419 C 0.62358 0.62949 0.30101 0.0
C2420 C 0.63818 0.6375 0.29428 0.0
C2421 C 0.64829 0.65074 0.30397 0.0
C2422 C 0.60756 0.5919 0.27514 0.0
C2423 C 0.59302 0.58802 0.27163 0.0
C2424 C 0.61737 0.60522 0.28486 0.0
C2425 C 0.61295 0.61511 0.29119 0.0
C2426 C 0.59835 0.61115 0.28799 0.0
C2427 C 0.58849 0.59776 0.27838 0.0
H2428 H 0.35237 0.00414 0.30674 0.0
H2429 H 0.34018 0.96111 0.32943 0.0
H2430 H 0.37358 0.00597 0.29014 0.0
H2431 H 0.36138 0.9627 0.31197 0.0
H2432 H 0.41013 0.97926 0.29496 0.0
H2433 H 0.38786 0.97527 0.31222 0.0
H2434 H 0.37974 0.99624 0.26177 0.0
H2435 H 0.40208 1.00064 0.24521 0.0
C2436 C 0.35412 0.99495 0.30798 0.0
C2437 C 0.34451 0.98243 0.3193 0.0
C2438 C 0.36629 0.99596 0.29831 0.0
C2439 C 0.36915 0.9844 0.29943 0.0
C2440 C 0.35957 0.97185 0.31088 0.0
C2441 C 0.34738 0.97089 0.32076 0.0
C2442 C 0.40349 0.98294 0.28765 0.0
C2443 C 0.40794 0.99051 0.26899 0.0
C2444 C 0.39072 0.98061 0.29744 0.0
C2445 C 0.3821 0.98566 0.28857 0.0
C2446 C 0.3863 0.9926 0.2694 0.0
C2447 C 0.39908 0.99509 0.25984 0.0
H2448 H 0.62332 0.95636 0.31098 0.0
H2449 H 0.64383 0.00245 0.32704 0.0
H2450 H 0.6029 0.95705 0.29585 0.0
H2451 H 0.62287 0.00304 0.31405 0.0
H2452 H 0.5909 0.00483 0.27147 0.0
H2453 H 0.61085 0.00406 0.28703 0.0
H2454 H 0.58231 0.95754 0.29869 0.0
H2455 H 0.56302 0.95784 0.28034 0.0
C2456 C 0.62326 0.96658 0.31157 0.0
C2457 C 0.63511 0.97937 0.31995 0.0
C2458 C 0.61146 0.967 0.3031 0.0
C2459 C 0.61099 0.98013 0.30356 0.0
C2460 C 0.62282 0.9928 0.31267 0.0
C2461 C 0.63484 0.99248 0.32037 0.0
C2462 C 0.58886 0.99432 0.27689 0.0
C2463 C 0.57517 0.98137 0.27411 0.0
C2464 C 0.60037 0.99393 0.28639 0.0
C2465 C 0.59847 0.98069 0.29419 0.0
C2466 C 0.58454 0.96792 0.29244 0.0
C2467 C 0.5732 0.96819 0.28226 0.0
H2468 H 0.03373 0.65251 0.33059 0.0
H2469 H 0.99279 0.64647 0.30926 0.0
H2470 H 0.02899 0.63037 0.31185 0.0
H2471 H 0.98763 0.62391 0.29127 0.0
H2472 H 0.9896 0.59282 0.24415 0.0
H2473 H 0.9944 0.615 0.26273 0.0
H2474 H 0.01464 0.60448 0.31158 0.0
H2475 H 0.01029 0.58253 0.29242 0.0
C2476 C 0.02366 0.64638 0.32198 0.0
C2477 C 0.01365 0.65124 0.32132 0.0
C2478 C 0.02086 0.63359 0.31136 0.0
C2479 C 0.00788 0.62525 0.30005 0.0
C2480 C 0.99786 0.63014 0.2995 0.0
C2481 C 1.00076 0.64305 0.3099 0.0
C2482 C 0.99497 0.5952 0.25895 0.0
C2483 C 0.99951 0.58593 0.26691 0.0
C2484 C 0.99769 0.60791 0.26966 0.0
C2485 C 0.00489 0.61159 0.28875 0.0
C2486 C 0.00931 0.60218 0.29678 0.0
C2487 C 0.00674 0.58955 0.2859 0.0
H2488 H 0.34646 0.38284 0.32833 0.0
H2489 H 0.35132 0.34724 0.30456 0.0
H2490 H 0.36888 0.40064 0.31087 0.0
H2491 H 0.37403 0.36494 0.28798 0.0
H2492 H 0.40748 0.39809 0.24539 0.0
H2493 H 0.38398 0.38132 0.26093 0.0
H2494 H 0.39453 0.41189 0.31189 0.0
H2495 H 0.41786 0.42901 0.29555 0.0
C2496 C 0.35235 0.37883 0.31939 0.0
C2497 C 0.34713 0.36366 0.31773 0.0
C2498 C 0.36527 0.38904 0.30951 0.0
C2499 C 0.37335 0.3843 0.29798 0.0
C2500 C 0.36801 0.36905 0.29633 0.0
C2501 C 0.355 0.35887 0.30594 0.0
C2502 C 0.40473 0.4012 0.25991 0.0
C2503 C 0.4145 0.41473 0.26942 0.0
C2504 C 0.39129 0.39156 0.26891 0.0
C2505 C 0.38735 0.39509 0.28786 0.0
C2506 C 0.39708 0.40883 0.29719 0.0
C2507 C 0.41048 0.41861 0.28795 0.0
H2508 H 0.3359 0.32189 0.38739 0.0
H2509 H 0.29461 0.28847 0.36165 0.0
H2510 H 0.33897 0.30303 0.40294 0.0
H2511 H 0.29745 0.26932 0.37802 0.0
H2512 H 0.31776 0.24 0.39254 0.0
H2513 H 0.31179 0.25729 0.37689 0.0
H2514 H 0.32967 0.28608 0.43002 0.0
H2515 H 0.33606 0.26921 0.44496 0.0
C2516 C 0.32735 0.31048 0.38527 0.0
C2517 C 0.31496 0.3067 0.37337 0.0
C2518 C 0.32907 0.29961 0.39433 0.0
C2519 C 0.31837 0.28461 0.392 0.0
C2520 C 0.30594 0.28076 0.38005 0.0
C2521 C 0.30426 0.29172 0.37079 0.0
C2522 C 0.32027 0.25001 0.4008 0.0
C2523 C 0.32759 0.25345 0.41973 0.0
C2524 C 0.31682 0.25987 0.39194 0.0
C2525 C 0.32049 0.27324 0.40202 0.0
C2526 C 0.32707 0.27615 0.4215 0.0
C2527 C 0.33068 0.26645 0.43015 0.0
H2528 H 0.71328 0.01438 0.35405 0.0
H2529 H 0.68041 0.01847 0.38756 0.0
H2530 H 0.73236 0.03649 0.37118 0.0
H2531 H 0.69966 0.04076 0.4048 0.0
H2532 H 0.7396 0.08891 0.41312 0.0
H2533 H 0.71979 0.06716 0.39578 0.0
H2534 H 0.74172 0.04319 0.40723 0.0
H2535 H 0.76118 0.06455 0.42494 0.0
C2536 C 0.71013 0.01999 0.36512 0.0
C2537 C 0.69535 0.01465 0.36954 0.0
C2538 C 0.72107 0.03264 0.37496 0.0
C2539 C 0.71749 0.04033 0.38933 0.0
C2540 C 0.70271 0.0351 0.39366 0.0
C2541 C 0.69172 0.0223 0.38393 0.0
C2542 C 0.74016 0.07898 0.41202 0.0
C2543 C 0.75213 0.0786 0.42023 0.0
C2544 C 0.72881 0.06654 0.40211 0.0
C2545 C 0.72927 0.05353 0.40008 0.0
C2546 C 0.7412 0.05315 0.40826 0.0
C2547 C 0.75242 0.06547 0.41829 0.0
H2548 H 0.99142 0.70227 0.35775 0.0
H2549 H 0.99072 0.67118 0.4007 0.0
H2550 H 0.96878 0.69885 0.37272 0.0
H2551 H 0.96847 0.66808 0.41595 0.0
H2552 H 0.92042 0.65071 0.4207 0.0
H2553 H 0.94344 0.65622 0.4056 0.0
H2554 H 0.95701 0.70234 0.40302 0.0
H2555 H 0.93344 0.69669 0.41733 0.0
C2556 C 0.98658 0.69492 0.37061 0.0
C2557 C 0.99277 0.68688 0.37791 0.0
C2558 C 0.97362 0.69298 0.37921 0.0
C2559 C 0.96666 0.683 0.39531 0.0
C2560 C 0.97331 0.67556 0.40321 0.0
C2561 C 0.98615 0.67742 0.39457 0.0
C2562 C 0.92812 0.66201 0.41653 0.0
C2563 C 0.92496 0.67323 0.42016 0.0
C2564 C 0.94149 0.66521 0.40818 0.0
C2565 C 0.95221 0.67976 0.40337 0.0
C2566 C 0.949 0.691 0.40653 0.0
C2567 C 0.93553 0.68778 0.41488 0.0
H2568 H 0.38561 0.04318 0.68851 0.0
H2569 H 0.35508 0.01047 0.73057 0.0
H2570 H 0.40534 0.04074 0.70306 0.0
H2571 H 0.37472 0.00834 0.74543 0.0
H2572 H 0.40706 0.99358 0.74992 0.0
H2573 H 0.38901 0.99792 0.73475 0.0
H2574 H 0.42045 0.04466 0.73335 0.0
H2575 H 0.43897 0.04021 0.74767 0.0
C2576 C 0.38316 0.03565 0.70107 0.0
C2577 C 0.36877 0.02691 0.70826 0.0
C2578 C 0.39446 0.03428 0.70944 0.0
C2579 C 0.39158 0.02417 0.7252 0.0
C2580 C 0.37728 0.01595 0.73295 0.0
C2581 C 0.36602 0.01725 0.72453 0.0
C2582 C 0.41032 0.00478 0.74597 0.0
C2583 C 0.42457 0.01653 0.74995 0.0
C2584 C 0.39983 0.0073 0.73759 0.0
C2585 C 0.40318 0.02167 0.73312 0.0
C2586 C 0.41751 0.03344 0.73659 0.0
C2587 C 0.42809 0.03091 0.74495 0.0
H2588 H 0.97187 0.3506 0.69744 0.0
H2589 H 0.01074 0.35558 0.72534 0.0
H2590 H 0.97526 0.37215 0.71646 0.0
H2591 H 0.01462 0.37758 0.74363 0.0
H2592 H 0.01043 0.40839 0.7884 0.0
H2593 H 0.00612 0.38615 0.77043 0.0
H2594 H 0.98977 0.39799 0.71803 0.0
H2595 H 0.99357 0.41996 0.73655 0.0
C2596 C 0.98118 0.35636 0.7076 0.0
C2597 C 0.99103 0.3514 0.70995 0.0
C2598 C 0.98321 0.36881 0.71838 0.0
C2599 C 0.99527 0.37673 0.73155 0.0
C2600 C 0.00507 0.37167 0.73392 0.0
C2601 C 0.00291 0.35908 0.72336 0.0
C2602 C 0.00599 0.40625 0.77298 0.0
C2603 C 0.00242 0.41592 0.76379 0.0
C2604 C 0.00355 0.39352 0.76263 0.0
C2605 C 0.99765 0.39023 0.74268 0.0
C2606 C 0.9941 0.39999 0.73348 0.0
C2607 C 0.99636 0.41263 0.744 0.0
H2608 H 0.66181 0.65193 0.73194 0.0
H2609 H 0.6526 0.62332 0.67906 0.0
H2610 H 0.6394 0.63281 0.74845 0.0
H2611 H 0.63003 0.60444 0.69535 0.0
H2612 H 0.58245 0.58856 0.72447 0.0
H2613 H 0.60568 0.60566 0.7076 0.0
H2614 H 0.62924 0.60388 0.75994 0.0
H2615 H 0.60604 0.58645 0.77653 0.0
C2616 C 0.65502 0.64157 0.72389 0.0
C2617 C 0.65892 0.63909 0.70425 0.0
C2618 C 0.64227 0.63064 0.73334 0.0
C2619 C 0.63306 0.61722 0.72309 0.0
C2620 C 0.63697 0.61473 0.70349 0.0
C2621 C 0.64988 0.6255 0.69425 0.0
C2622 C 0.59262 0.59164 0.73213 0.0
C2623 C 0.59254 0.58615 0.75165 0.0
C2624 C 0.60585 0.60138 0.72254 0.0
C2625 C 0.61916 0.60606 0.73257 0.0
C2626 C 0.61908 0.60043 0.75198 0.0
C2627 C 0.60587 0.59041 0.76135 0.0
H2628 H 0.71274 0.71646 0.663 0.0
H2629 H 0.66845 0.685 0.64462 0.0
H2630 H 0.70994 0.73658 0.64997 0.0
H2631 H 0.66563 0.70501 0.63207 0.0
H2632 H 0.66085 0.74552 0.634 0.0
H2633 H 0.66562 0.72753 0.6494 0.0
H2634 H 0.70492 0.74403 0.61337 0.0
H2635 H 0.6999 0.76163 0.59716 0.0
C2636 C 0.70244 0.71385 0.6562 0.0
C2637 C 0.69083 0.69916 0.65479 0.0
C2638 C 0.70086 0.72534 0.64875 0.0
C2639 C 0.68753 0.72233 0.6402 0.0
C2640 C 0.67596 0.70765 0.63881 0.0
C2641 C 0.67762 0.69619 0.64587 0.0
C2642 C 0.67051 0.74535 0.62928 0.0
C2643 C 0.67986 0.75496 0.61407 0.0
C2644 C 0.67326 0.73508 0.6382 0.0
C2645 C 0.68557 0.73432 0.63243 0.0
C2646 C 0.69539 0.74444 0.61816 0.0
C2647 C 0.69253 0.75459 0.60897 0.0
H2648 H 0.29295 0.99301 0.65934 0.0
H2649 H 0.32756 0.98459 0.64451 0.0
H2650 H 0.27525 0.96973 0.64254 0.0
H2651 H 0.30973 0.96109 0.62822 0.0
H2652 H 0.26805 0.9128 0.62695 0.0
H2653 H 0.28567 0.93618 0.64336 0.0
H2654 H 0.27253 0.95932 0.60313 0.0
H2655 H 0.25562 0.93625 0.58572 0.0
C2656 C 0.29676 0.98619 0.65248 0.0
C2657 C 0.31162 0.9906 0.65316 0.0
C2658 C 0.28665 0.97291 0.64289 0.0
C2659 C 0.29116 0.96365 0.63425 0.0
C2660 C 0.306 0.96803 0.63492 0.0
C2661 C 0.31618 0.98149 0.64409 0.0
C2662 C 0.26898 0.92284 0.62136 0.0
C2663 C 0.26031 0.92249 0.6049 0.0
C2664 C 0.27904 0.93621 0.63086 0.0
C2665 C 0.28041 0.94948 0.62444 0.0
C2666 C 0.27156 0.94918 0.60844 0.0
C2667 C 0.26175 0.93589 0.59862 0.0
H2668 H 0.02623 0.34204 0.64547 0.0
H2669 H 0.0121 0.29757 0.6639 0.0
H2670 H 0.04871 0.3447 0.63188 0.0
H2671 H 0.03481 0.30026 0.64993 0.0
H2672 H 0.06944 0.30968 0.59566 0.0
H2673 H 0.04714 0.30437 0.6138 0.0
H2674 H 0.07117 0.34568 0.647 0.0
H2675 H 0.09351 0.35087 0.62933 0.0
C2676 C 0.02789 0.33279 0.64657 0.0
C2677 C 0.01737 0.31958 0.65577 0.0
C2678 C 0.04085 0.33438 0.63892 0.0
C2679 C 0.04357 0.32275 0.64005 0.0
C2680 C 0.03297 0.3094 0.64891 0.0
C2681 C 0.02002 0.30788 0.65689 0.0
C2682 C 0.07007 0.31744 0.60725 0.0
C2683 C 0.08324 0.33081 0.61082 0.0
C2684 C 0.05727 0.3144 0.61759 0.0
C2685 C 0.0574 0.32472 0.63156 0.0
C2686 C 0.07072 0.33765 0.63602 0.0
C2687 C 0.0835 0.34063 0.62585 0.0
H2688 H 0.28844 0.29999 0.67492 0.0
H2689 H 0.31591 0.32504 0.62422 0.0
H2690 H 0.26798 0.30102 0.6598 0.0
H2691 H 0.29545 0.32578 0.609 0.0
H2692 H 0.2517 0.3119 0.57865 0.0
H2693 H 0.26962 0.30709 0.59414 0.0
H2694 H 0.26389 0.3233 0.65255 0.0
H2695 H 0.246 0.32826 0.63699 0.0
C2696 C 0.29004 0.30551 0.66042 0.0
C2697 C 0.30376 0.31245 0.65074 0.0
C2698 C 0.27837 0.30616 0.65186 0.0
C2699 C 0.28016 0.31346 0.63325 0.0
C2700 C 0.29375 0.31999 0.62328 0.0
C2701 C 0.30546 0.3196 0.63203 0.0
C2702 C 0.25404 0.31416 0.59489 0.0
C2703 C 0.24743 0.32043 0.60664 0.0
C2704 C 0.26436 0.31151 0.6037 0.0
C2705 C 0.26814 0.31486 0.6245 0.0
C2706 C 0.26109 0.32053 0.6365 0.0
C2707 C 0.25093 0.32342 0.62759 0.0
H2708 H 0.70243 0.98875 0.66334 0.0
H2709 H 0.66309 0.98381 0.63706 0.0
H2710 H 0.69768 0.96606 0.64577 0.0
H2711 H 0.65827 0.96106 0.61976 0.0
H2712 H 0.64631 0.91252 0.61468 0.0
H2713 H 0.65208 0.93534 0.63246 0.0
H2714 H 0.69584 0.95668 0.60804 0.0
H2715 H 0.68999 0.93407 0.58947 0.0
C2716 C 0.69281 0.98285 0.65376 0.0
C2717 C 0.68312 0.98802 0.65157 0.0
C2718 C 0.69012 0.9699 0.64369 0.0
C2719 C 0.67756 0.96178 0.63156 0.0
C2720 C 0.66795 0.96704 0.62922 0.0
C2721 C 0.67076 0.9801 0.639 0.0
C2722 C 0.65714 0.92207 0.61293 0.0
C2723 C 0.66763 0.92143 0.60044 0.0
C2724 C 0.66044 0.93513 0.62318 0.0
C2725 C 0.67436 0.94778 0.62146 0.0
C2726 C 0.68504 0.94704 0.60968 0.0
C2727 C 0.68169 0.93404 0.59917 0.0
H2728 H 0.01288 0.68142 0.63021 0.0
H2729 H 0.01733 0.71517 0.67287 0.0
H2730 H 0.03549 0.69936 0.61335 0.0
H2731 H 0.04019 0.73299 0.65657 0.0
H2732 H 0.07471 0.76462 0.61147 0.0
H2733 H 0.05114 0.74718 0.6266 0.0
H2734 H 0.06097 0.71245 0.61958 0.0
H2735 H 0.08397 0.72956 0.60338 0.0
C2736 C 0.0187 0.69267 0.63599 0.0
C2737 C 0.01337 0.69687 0.6529 0.0
C2738 C 0.03173 0.70295 0.62643 0.0
C2739 C 0.03978 0.71763 0.63369 0.0
C2740 C 0.03424 0.72185 0.65039 0.0
C2741 C 0.02116 0.71161 0.65983 0.0
C2742 C 0.07179 0.75324 0.61303 0.0
C2743 C 0.08133 0.74856 0.60626 0.0
C2744 C 0.05832 0.74325 0.62189 0.0
C2745 C 0.05409 0.72836 0.62427 0.0
C2746 C 0.06371 0.72376 0.61772 0.0
C2747 C 0.07709 0.73368 0.60875 0.0
H2748 H 0.95802 0.62129 0.69383 0.0
H2749 H 0.99982 0.65237 0.7207 0.0
H2750 H 0.95916 0.60099 0.70935 0.0
H2751 H 1.00123 0.63219 0.73553 0.0
H2752 H 0.99195 0.59459 0.77788 0.0
H2753 H 0.99085 0.61457 0.76179 0.0
H2754 H 0.97143 0.5873 0.70769 0.0
H2755 H 0.97229 0.56711 0.72413 0.0
C2756 C 0.96746 0.62378 0.703 0.0
C2757 C 0.97877 0.63844 0.70615 0.0
C2758 C 0.96818 0.61214 0.71176 0.0
C2759 C 0.98029 0.61491 0.72374 0.0
C2760 C 0.99161 0.62961 0.72674 0.0
C2761 C 0.99083 0.64121 0.71814 0.0
C2762 C 0.98767 0.59292 0.76241 0.0
C2763 C 0.98233 0.57929 0.75222 0.0
C2764 C 0.98701 0.6044 0.75316 0.0
C2765 C 0.98108 0.60262 0.73338 0.0
C2766 C 0.97587 0.58902 0.72306 0.0
C2767 C 0.97644 0.57747 0.73241 0.0
H2768 H 0.34627 0.3544 0.71798 0.0
H2769 H 0.38129 0.35001 0.69221 0.0
H2770 H 0.36418 0.37728 0.73534 0.0
H2771 H 0.39916 0.37279 0.70972 0.0
H2772 H 0.42333 0.40392 0.76591 0.0
H2773 H 0.4063 0.38161 0.74696 0.0
H2774 H 0.38421 0.40322 0.72437 0.0
H2775 H 0.40157 0.4258 0.74265 0.0
C2776 C 0.35778 0.35829 0.7161 0.0
C2777 C 0.36239 0.35043 0.70375 0.0
C2778 C 0.36802 0.37142 0.72591 0.0
C2779 C 0.38304 0.37682 0.72379 0.0
C2780 C 0.38764 0.36884 0.71168 0.0
C2781 C 0.37741 0.35583 0.70163 0.0
C2782 C 0.41509 0.4041 0.75654 0.0
C2783 C 0.41386 0.41673 0.75588 0.0
C2784 C 0.40526 0.39125 0.74579 0.0
C2785 C 0.39388 0.39067 0.73435 0.0
C2786 C 0.39277 0.40332 0.73335 0.0
C2787 C 0.4027 0.41623 0.74387 0.0
H2788 H 0.66519 0.04414 0.70119 0.0
H2789 H 0.64704 0.99752 0.7103 0.0
H2790 H 0.64299 0.04216 0.71603 0.0
H2791 H 0.62487 0.99553 0.72448 0.0
H2792 H 0.58196 0.99606 0.72694 0.0
H2793 H 0.60405 1.00031 0.70936 0.0
H2794 H 0.63052 0.03368 0.75433 0.0
H2795 H 0.6086 0.02895 0.77274 0.0
C2796 C 0.65645 0.0335 0.70625 0.0
C2797 C 0.65785 0.021 0.70471 0.0
C2798 C 0.6438 0.03237 0.71472 0.0
C2799 C 0.63224 0.01867 0.72121 0.0
C2800 C 0.63359 0.00618 0.71939 0.0
C2801 C 0.64632 0.00736 0.71142 0.0
C2802 C 0.59245 0.00428 0.73321 0.0
C2803 C 0.59338 0.01201 0.75149 0.0
C2804 C 0.60508 0.00677 0.72301 0.0
C2805 C 0.61892 0.01729 0.73057 0.0
C2806 C 0.61994 0.02561 0.74812 0.0
C2807 C 0.60732 0.02291 0.75858 0.0
loop_
_geom_bond_atom_site_label_1
_geom_bond_atom_site_label_2
_geom_bond_distance
_geom_bond_site_symmetry_2
_ccdc_geom_bond_type
Co0 O1 2.216 . S
Co0 O2 2.091 . S
Co0 O4 2.004 1_554 S
Co0 O10 2.021 . S
Co0 O12 2.137 1_454 S
Co0 O13 2.244 1_455 S
O1 Co0 2.216 . S
O1 C8 1.247 . S
O2 Co0 2.091 . S
O2 C8 1.261 . S
C3 O12 1.251 . S
C3 O13 1.264 1_556 S
O4 Co0 2.004 1_556 S
O4 C9 1.213 1_455 S
Co5 O6 2.061 1_554 S
Co5 O11 2.052 . S
Co5 O13 2.135 . S
O6 Co5 2.061 1_556 S
O6 C9 1.280 . S
C7 O10 1.238 1_655 S
C7 O11 1.241 . S
C8 O1 1.247 . S
C8 O2 1.261 . S
C9 O4 1.213 1_655 S
C9 O6 1.280 . S
O10 Co0 2.021 . S
O10 C7 1.238 1_455 S
O11 Co5 2.052 . S
O11 C7 1.241 . S
O12 Co0 2.137 1_656 S
O12 C3 1.251 . S
O13 Co0 2.244 1_655 S
O13 C3 1.264 1_554 S
O13 Co5 2.135 . S
Co14 O15 2.216 1_554 S
Co14 O16 2.091 . S
Co14 O18 2.004 . S
Co14 O24 2.021 1_554 S
Co14 O26 2.137 . S
Co14 O27 2.244 . S
O15 Co14 2.216 1_556 S
O15 C22 1.265 . S
O16 Co14 2.091 . S
O16 C22 1.222 1_554 S
C17 O26 1.247 . S
C17 O27 1.272 . S
O18 Co14 2.004 . S
O18 C23 1.259 . S
Co19 O20 2.061 . S
Co19 O25 2.052 1_554 S
Co19 O27 2.135 . S
O20 Co19 2.061 . S
O20 C23 1.235 . S
C21 O24 1.238 . S
C21 O25 1.241 . S
C22 O15 1.265 . S
C22 O16 1.222 1_556 S
C23 O18 1.259 . S
C23 O20 1.235 . S
O24 Co14 2.021 1_556 S
O24 C21 1.238 . S
O25 Co19 2.052 1_556 S
O25 C21 1.241 . S
O26 Co14 2.137 . S
O26 C17 1.247 . S
O27 Co14 2.244 . S
O27 C17 1.272 . S
O27 Co19 2.135 . S
Co28 O29 2.216 1_554 S
Co28 O30 2.091 . S
Co28 O32 2.004 . S
Co28 O38 2.021 1_554 S
Co28 O40 2.137 1_545 S
Co28 O41 2.244 1_545 S
O29 Co28 2.216 1_556 S
O29 C36 1.235 1_556 S
O30 Co28 2.091 . S
O30 C36 1.289 . S
C31 O40 1.247 . S
C31 O41 1.272 . S
O32 Co28 2.004 . S
O32 C37 1.259 . S
Co33 O34 2.061 . S
Co33 O39 2.052 1_554 S
Co33 O41 2.135 . S
O34 Co33 2.061 . S
O34 C37 1.235 1_565 S
C35 O38 1.196 1_565 S
C35 O39 1.283 . S
C36 O29 1.235 1_554 S
C36 O30 1.289 . S
C37 O32 1.259 . S
C37 O34 1.235 1_545 S
O38 Co28 2.021 1_556 S
O38 C35 1.196 1_545 S
O39 Co33 2.052 1_556 S
O39 C35 1.283 . S
O40 Co28 2.137 1_565 S
O40 C31 1.247 . S
O41 Co28 2.244 1_565 S
O41 C31 1.272 . S
O41 Co33 2.135 . S
Co42 O43 2.216 1_554 S
Co42 O44 2.091 . S
Co42 O46 2.004 . S
Co42 O52 2.021 1_554 S
Co42 O54 2.137 1_655 S
Co42 O55 2.244 1_655 S
O43 Co42 2.216 1_556 S
O43 C50 1.247 . S
O44 Co42 2.091 . S
O44 C50 1.261 1_554 S
C45 O54 1.247 . S
C45 O55 1.272 . S
O46 Co42 2.004 . S
O46 C51 1.259 1_655 S
Co47 O48 2.061 . S
Co47 O53 2.052 1_554 S
Co47 O55 2.135 . S
O48 Co47 2.061 . S
O48 C51 1.235 . S
C49 O52 1.238 1_455 S
C49 O53 1.241 . S
C50 O43 1.247 . S
C50 O44 1.261 1_556 S
C51 O46 1.259 1_455 S
C51 O48 1.235 . S
O52 Co42 2.021 1_556 S
O52 C49 1.238 1_655 S
O53 Co47 2.052 1_556 S
O53 C49 1.241 . S
O54 Co42 2.137 1_455 S
O54 C45 1.247 . S
O55 Co42 2.244 1_455 S
O55 C45 1.272 . S
O55 Co47 2.135 . S
Co56 O57 2.216 . S
Co56 O58 2.091 . S
Co56 O60 2.004 1_554 S
Co56 O66 2.021 . S
Co56 O68 2.137 1_554 S
Co56 O69 2.244 . S
O57 Co56 2.216 . S
O57 C64 1.247 . S
O58 Co56 2.091 . S
O58 C64 1.261 . S
C59 O68 1.247 . S
C59 O69 1.272 1_556 S
O60 Co56 2.004 1_556 S
O60 C65 1.259 . S
Co61 O62 2.061 1_554 S
Co61 O67 2.052 . S
Co61 O69 2.135 . S
O62 Co61 2.061 1_556 S
O62 C65 1.235 . S
C63 O66 1.238 . S
C63 O67 1.241 . S
C64 O57 1.247 . S
C64 O58 1.261 . S
C65 O60 1.259 . S
C65 O62 1.235 . S
O66 Co56 2.021 . S
O66 C63 1.238 . S
O67 Co61 2.052 . S
O67 C63 1.241 . S
O68 Co56 2.137 1_556 S
O68 C59 1.247 . S
O69 Co56 2.244 . S
O69 C59 1.272 1_554 S
O69 Co61 2.135 . S
Co70 O71 2.216 . S
Co70 O72 2.091 . S
Co70 O74 2.004 1_554 S
Co70 O80 2.021 . S
Co70 O82 2.137 1_564 S
Co70 O83 2.244 1_565 S
O71 Co70 2.216 . S
O71 C78 1.247 . S
O72 Co70 2.091 . S
O72 C78 1.261 . S
C73 O82 1.247 . S
C73 O83 1.272 1_556 S
O74 Co70 2.004 1_556 S
O74 C79 1.259 1_565 S
Co75 O76 2.061 1_554 S
Co75 O81 2.052 . S
Co75 O83 2.135 . S
O76 Co75 2.061 1_556 S
O76 C79 1.235 . S
C77 O80 1.238 1_545 S
C77 O81 1.241 . S
C78 O71 1.247 . S
C78 O72 1.261 . S
C79 O74 1.259 1_545 S
C79 O76 1.235 . S
O80 Co70 2.021 . S
O80 C77 1.238 1_565 S
O81 Co75 2.052 . S
O81 C77 1.241 . S
O82 Co70 2.137 1_546 S
O82 C73 1.247 . S
O83 Co70 2.244 1_545 S
O83 C73 1.272 1_554 S
O83 Co75 2.135 . S
Co84 O85 2.216 . S
Co84 O86 2.091 . S
Co84 O88 2.004 . S
Co84 O94 2.021 . S
Co84 O96 2.137 . S
Co84 O97 2.244 . S
O85 Co84 2.216 . S
O85 C92 1.247 . S
O86 Co84 2.091 . S
O86 C92 1.261 . S
C87 O96 1.247 . S
C87 O97 1.272 . S
O88 Co84 2.004 . S
O88 C93 1.259 . S
Co89 O90 2.061 . S
Co89 O95 2.052 . S
Co89 O97 2.135 . S
O90 Co89 2.061 . S
O90 C93 1.235 . S
C91 O94 1.238 . S
C91 O95 1.241 . S
C92 O85 1.247 . S
C92 O86 1.261 . S
C93 O88 1.259 . S
C93 O90 1.235 . S
O94 Co84 2.021 . S
O94 C91 1.238 . S
O95 Co89 2.052 . S
O95 C91 1.241 . S
O96 Co84 2.137 . S
O96 C87 1.247 . S
O97 Co84 2.244 . S
O97 C87 1.272 . S
O97 Co89 2.135 . S
Co98 O99 2.216 . S
Co98 O100 2.091 . S
Co98 O102 2.004 . S
Co98 O108 2.021 . S
Co98 O110 2.137 . S
Co98 O111 2.244 . S
O99 Co98 2.216 . S
O99 C106 1.247 . S
O100 Co98 2.091 . S
O100 C106 1.261 . S
C101 O110 1.283 . S
C101 O111 1.284 . S
O102 Co98 2.004 . S
O102 C107 1.259 . S
Co103 O104 2.061 . S
Co103 O109 2.052 . S
Co103 O111 2.135 . S
O104 Co103 2.061 . S
O104 C107 1.235 . S
C105 O108 1.238 . S
C105 O109 1.241 . S
C106 O99 1.247 . S
C106 O100 1.261 . S
C107 O102 1.259 . S
C107 O104 1.235 . S
O108 Co98 2.021 . S
O108 C105 1.238 . S
O109 Co103 2.052 . S
O109 C105 1.241 . S
O110 Co98 2.137 . S
O110 C101 1.283 . S
O111 Co98 2.244 . S
O111 C101 1.284 . S
O111 Co103 2.135 . S
Co112 O113 2.216 . S
Co112 O114 2.091 . S
Co112 O116 2.004 . S
Co112 O122 2.021 . S
Co112 O124 2.137 . S
Co112 O125 2.244 . S
O113 Co112 2.216 . S
O113 C120 1.247 . S
O114 Co112 2.091 . S
O114 C120 1.261 . S
C115 O124 1.247 . S
C115 O125 1.272 . S
O116 Co112 2.004 . S
O116 C121 1.259 . S
Co117 O118 2.061 . S
Co117 O123 2.052 . S
Co117 O125 2.135 . S
O118 Co117 2.061 . S
O118 C121 1.235 . S
C119 O122 1.238 . S
C119 O123 1.241 . S
C120 O113 1.247 . S
C120 O114 1.261 . S
C121 O116 1.259 . S
C121 O118 1.235 . S
O122 Co112 2.021 . S
O122 C119 1.238 . S
O123 Co117 2.052 . S
O123 C119 1.241 . S
O124 Co112 2.137 . S
O124 C115 1.247 . S
O125 Co112 2.244 . S
O125 C115 1.272 . S
O125 Co117 2.135 . S
Co126 O127 2.216 . S
Co126 O128 2.091 . S
Co126 O130 2.004 . S
Co126 O136 2.021 . S
Co126 O138 2.137 . S
Co126 O139 2.244 . S
O127 Co126 2.216 . S
O127 C134 1.247 . S
O128 Co126 2.091 . S
O128 C134 1.261 . S
C129 O138 1.242 . S
C129 O139 1.288 . S
O130 Co126 2.004 . S
O130 C135 1.259 . S
Co131 O132 2.061 . S
Co131 O137 2.052 . S
Co131 O139 2.135 . S
O132 Co131 2.061 . S
O132 C135 1.235 . S
C133 O136 1.238 . S
C133 O137 1.241 . S
C134 O127 1.247 . S
C134 O128 1.261 . S
C135 O130 1.259 . S
C135 O132 1.235 . S
O136 Co126 2.021 . S
O136 C133 1.238 . S
O137 Co131 2.052 . S
O137 C133 1.241 . S
O138 Co126 2.137 . S
O138 C129 1.242 . S
O139 Co126 2.244 . S
O139 C129 1.288 . S
O139 Co131 2.135 . S
Co140 O141 2.216 . S
Co140 O142 2.127 . S
Co140 O144 2.004 . S
Co140 O150 2.021 . S
Co140 O152 2.137 . S
Co140 O153 2.244 . S
O141 Co140 2.216 . S
O141 C148 1.247 1_455 S
O142 Co140 2.127 . S
O142 C148 1.262 1_455 S
C143 O152 1.247 . S
C143 O153 1.272 . S
O144 Co140 2.004 . S
O144 C149 1.259 . S
Co145 O146 2.061 . S
Co145 O151 2.052 . S
Co145 O153 2.135 . S
O146 Co145 2.061 . S
O146 C149 1.235 . S
C147 O150 1.238 . S
C147 O151 1.241 . S
C148 O141 1.247 1_655 S
C148 O142 1.262 1_655 S
C149 O144 1.259 . S
C149 O146 1.235 . S
O150 Co140 2.021 . S
O150 C147 1.238 . S
O151 Co145 2.052 . S
O151 C147 1.241 . S
O152 Co140 2.137 . S
O152 C143 1.247 . S
O153 Co140 2.244 . S
O153 C143 1.272 . S
O153 Co145 2.135 . S
Co154 O155 2.216 . S
Co154 O156 2.091 . S
Co154 O158 2.004 . S
Co154 O164 2.021 . S
Co154 O166 2.137 . S
Co154 O167 2.244 . S
O155 Co154 2.216 . S
O155 C162 1.247 . S
O156 Co154 2.091 . S
O156 C162 1.261 . S
C157 O166 1.247 . S
C157 O167 1.272 . S
O158 Co154 2.004 . S
O158 C163 1.259 . S
Co159 O160 2.061 . S
Co159 O165 2.052 . S
Co159 O167 2.135 . S
O160 Co159 2.061 . S
O160 C163 1.235 . S
C161 O164 1.238 . S
C161 O165 1.241 . S
C162 O155 1.247 . S
C162 O156 1.261 . S
C163 O158 1.259 . S
C163 O160 1.235 . S
O164 Co154 2.021 . S
O164 C161 1.238 . S
O165 Co159 2.052 . S
O165 C161 1.241 . S
O166 Co154 2.137 . S
O166 C157 1.247 . S
O167 Co154 2.244 . S
O167 C157 1.272 . S
O167 Co159 2.135 . S
Co168 O169 2.216 . S
Co168 O170 2.091 . S
Co168 O172 2.004 . S
Co168 O178 2.021 . S
Co168 O180 2.137 . S
Co168 O181 2.244 . S
O169 Co168 2.216 . S
O169 C176 1.247 . S
O170 Co168 2.091 . S
O170 C176 1.261 . S
C171 O180 1.247 . S
C171 O181 1.272 . S
O172 Co168 2.004 . S
O172 C177 1.259 . S
Co173 O174 2.061 . S
Co173 O179 2.052 . S
Co173 O181 2.135 . S
O174 Co173 2.061 . S
O174 C177 1.235 . S
C175 O178 1.238 . S
C175 O179 1.241 . S
C176 O169 1.247 . S
C176 O170 1.261 . S
C177 O172 1.259 . S
C177 O174 1.235 . S
O178 Co168 2.021 . S
O178 C175 1.238 . S
O179 Co173 2.052 . S
O179 C175 1.241 . S
O180 Co168 2.137 . S
O180 C171 1.247 . S
O181 Co168 2.244 . S
O181 C171 1.272 . S
O181 Co173 2.135 . S
Co182 O183 2.216 . S
Co182 O184 2.117 . S
Co182 O186 2.004 . S
Co182 O192 2.021 . S
Co182 O194 2.137 . S
Co182 O195 2.244 . S
O183 Co182 2.216 . S
O183 C190 1.247 1_655 S
O184 Co182 2.117 . S
O184 C190 1.262 1_655 S
C185 O194 1.247 . S
C185 O195 1.272 . S
O186 Co182 2.004 . S
O186 C191 1.259 . S
Co187 O188 2.061 . S
Co187 O193 2.052 . S
Co187 O195 2.135 . S
O188 Co187 2.061 . S
O188 C191 1.235 . S
C189 O192 1.238 . S
C189 O193 1.241 . S
C190 O183 1.247 1_455 S
C190 O184 1.262 1_455 S
C191 O186 1.259 . S
C191 O188 1.235 . S
O192 Co182 2.021 . S
O192 C189 1.238 . S
O193 Co187 2.052 . S
O193 C189 1.241 . S
O194 Co182 2.137 . S
O194 C185 1.247 . S
O195 Co182 2.244 . S
O195 C185 1.272 . S
O195 Co187 2.135 . S
Co196 O197 2.216 . S
Co196 O198 2.091 . S
Co196 O200 2.004 . S
Co196 O206 2.021 . S
Co196 O208 2.137 . S
Co196 O209 2.244 . S
O197 Co196 2.216 . S
O197 C204 1.247 . S
O198 Co196 2.091 . S
O198 C204 1.261 . S
C199 O208 1.247 . S
C199 O209 1.272 . S
O200 Co196 2.004 . S
O200 C205 1.259 . S
Co201 O202 2.061 . S
Co201 O207 2.052 . S
Co201 O209 2.135 . S
O202 Co201 2.061 . S
O202 C205 1.235 . S
C203 O206 1.238 . S
C203 O207 1.241 . S
C204 O197 1.247 . S
C204 O198 1.261 . S
C205 O200 1.259 . S
C205 O202 1.235 . S
O206 Co196 2.021 . S
O206 C203 1.238 . S
O207 Co201 2.052 . S
O207 C203 1.241 . S
O208 Co196 2.137 . S
O208 C199 1.247 . S
O209 Co196 2.244 . S
O209 C199 1.272 . S
O209 Co201 2.135 . S
Co210 O211 2.216 . S
Co210 O212 2.091 . S
Co210 O214 2.004 . S
Co210 O220 2.021 . S
Co210 O222 2.137 . S
Co210 O223 2.244 . S
O211 Co210 2.216 . S
O211 C218 1.247 . S
O212 Co210 2.091 . S
O212 C218 1.261 . S
C213 O222 1.247 . S
C213 O223 1.272 . S
O214 Co210 2.004 . S
O214 C219 1.259 . S
Co215 O216 2.061 . S
Co215 O221 2.052 . S
Co215 O223 2.135 . S
O216 Co215 2.061 . S
O216 C219 1.235 . S
C217 O220 1.238 . S
C217 O221 1.241 . S
C218 O211 1.247 . S
C218 O212 1.261 . S
C219 O214 1.259 . S
C219 O216 1.235 . S
O220 Co210 2.021 . S
O220 C217 1.238 . S
O221 Co215 2.052 . S
O221 C217 1.241 . S
O222 Co210 2.137 . S
O222 C213 1.247 . S
O223 Co210 2.244 . S
O223 C213 1.272 . S
O223 Co215 2.135 . S
Co224 O225 2.216 . S
Co224 O226 2.091 . S
Co224 O228 2.004 . S
Co224 O234 2.021 . S
Co224 O236 2.137 . S
Co224 O237 2.244 . S
O225 Co224 2.216 . S
O225 C232 1.247 . S
O226 Co224 2.091 . S
O226 C232 1.261 . S
C227 O236 1.247 . S
C227 O237 1.272 . S
O228 Co224 2.004 . S
O228 C233 1.259 . S
Co229 O230 2.061 . S
Co229 O235 2.052 . S
Co229 O237 2.135 . S
O230 Co229 2.061 . S
O230 C233 1.235 . S
C231 O234 1.238 . S
C231 O235 1.241 . S
C232 O225 1.247 . S
C232 O226 1.261 . S
C233 O228 1.259 . S
C233 O230 1.235 . S
O234 Co224 2.021 . S
O234 C231 1.238 . S
O235 Co229 2.052 . S
O235 C231 1.241 . S
O236 Co224 2.137 . S
O236 C227 1.247 . S
O237 Co224 2.244 . S
O237 C227 1.272 . S
O237 Co229 2.135 . S
Co238 O239 2.216 . S
Co238 O240 2.091 . S
Co238 O242 2.004 . S
Co238 O248 2.021 . S
Co238 O250 2.137 . S
Co238 O251 2.244 . S
O239 Co238 2.216 . S
O239 C246 1.247 . S
O240 Co238 2.091 . S
O240 C246 1.261 . S
C241 O250 1.247 . S
C241 O251 1.272 . S
O242 Co238 2.004 . S
O242 C247 1.259 . S
Co243 O244 2.061 . S
Co243 O249 2.052 . S
Co243 O251 2.135 . S
O244 Co243 2.061 . S
O244 C247 1.235 . S
C245 O248 1.238 . S
C245 O249 1.241 . S
C246 O239 1.247 . S
C246 O240 1.261 . S
C247 O242 1.259 . S
C247 O244 1.235 . S
O248 Co238 2.021 . S
O248 C245 1.238 . S
O249 Co243 2.052 . S
O249 C245 1.241 . S
O250 Co238 2.137 . S
O250 C241 1.247 . S
O251 Co238 2.244 . S
O251 C241 1.272 . S
O251 Co243 2.135 . S
H252 C279 0.929 . S
N253 C278 1.433 . S
N253 C284 1.435 . S
N253 C290 1.423 . S
H254 C280 0.930 . S
H255 C283 0.931 . S
H256 C282 0.929 . S
H257 C285 0.930 . S
H258 C286 0.932 . S
H259 C289 0.929 . S
H260 C288 0.931 . S
H261 C291 0.929 . S
H262 C295 0.932 . S
H263 C292 0.931 . S
H264 C294 0.929 . S
H265 C297 0.929 . S
H266 C298 0.930 . S
H267 C300 0.929 . S
H268 C301 0.931 . S
H269 C303 0.930 . S
H270 C304 0.932 . S
H271 C306 0.931 . S
H272 C307 0.929 . S
H273 C309 0.929 . S
H274 C310 0.931 . S
H275 C312 0.929 . S
N276 C296 1.433 . S
N276 C302 1.435 . S
N276 C308 1.423 . S
H277 C313 0.932 . S
C278 N253 1.433 . S
C278 C279 1.363 . S
C278 C283 1.370 . S
C279 H252 0.929 . S
C279 C278 1.363 . S
C279 C280 1.385 . S
C280 H254 0.930 . S
C280 C279 1.385 . S
C280 C281 1.357 . S
C281 C280 1.357 . S
C281 C282 1.406 . S
C282 H256 0.929 . S
C282 C281 1.406 . S
C282 C283 1.391 . S
C283 H255 0.931 . S
C283 C278 1.370 . S
C283 C282 1.391 . S
C284 N253 1.435 . S
C284 C285 1.358 . S
C284 C289 1.371 . S
C285 H257 0.930 . S
C285 C284 1.358 . S
C285 C286 1.405 . S
C286 H258 0.932 . S
C286 C285 1.405 . S
C286 C287 1.383 . S
C287 C286 1.383 . S
C287 C288 1.393 . S
C288 H260 0.931 . S
C288 C287 1.393 . S
C288 C289 1.382 . S
C289 H259 0.929 . S
C289 C284 1.371 . S
C289 C288 1.382 . S
C290 N253 1.423 . S
C290 C291 1.362 . S
C290 C295 1.388 . S
C291 H261 0.929 . S
C291 C290 1.362 . S
C291 C292 1.376 . S
C292 H263 0.931 . S
C292 C291 1.376 . S
C292 C293 1.396 . S
C293 C292 1.396 . S
C293 C294 1.348 . S
C293 C311 1.472 . S
C294 H264 0.929 . S
C294 C293 1.348 . S
C294 C295 1.443 . S
C295 H262 0.932 . S
C295 C290 1.388 . S
C295 C294 1.443 . S
C296 N276 1.433 . S
C296 C297 1.363 . S
C296 C301 1.370 . S
C297 H265 0.929 . S
C297 C296 1.363 . S
C297 C298 1.385 . S
C298 H266 0.930 . S
C298 C297 1.385 . S
C298 C299 1.357 . S
C299 C298 1.357 . S
C299 C300 1.406 . S
C300 H267 0.929 . S
C300 C299 1.406 . S
C300 C301 1.391 . S
C301 H268 0.931 . S
C301 C296 1.370 . S
C301 C300 1.391 . S
C302 N276 1.435 . S
C302 C303 1.358 . S
C302 C307 1.371 . S
C303 H269 0.930 . S
C303 C302 1.358 . S
C303 C304 1.405 . S
C304 H270 0.932 . S
C304 C303 1.405 . S
C304 C305 1.383 . S
C305 C304 1.383 . S
C305 C306 1.393 . S
C306 H271 0.931 . S
C306 C305 1.393 . S
C306 C307 1.382 . S
C307 H272 0.929 . S
C307 C302 1.371 . S
C307 C306 1.382 . S
C308 N276 1.423 . S
C308 C309 1.362 . S
C308 C313 1.388 . S
C309 H273 0.929 . S
C309 C308 1.362 . S
C309 C310 1.376 . S
C310 H274 0.931 . S
C310 C309 1.376 . S
C310 C311 1.396 . S
C311 C293 1.472 . S
C311 C310 1.396 . S
C311 C312 1.348 . S
C312 H275 0.929 . S
C312 C311 1.348 . S
C312 C313 1.443 . S
C313 H277 0.932 . S
C313 C308 1.388 . S
C313 C312 1.443 . S
H314 C341 0.929 . S
N315 C340 1.433 . S
N315 C346 1.435 . S
N315 C352 1.423 . S
H316 C342 0.930 . S
H317 C345 0.931 . S
H318 C344 0.929 . S
H319 C347 0.930 . S
H320 C348 0.932 . S
H321 C351 0.929 . S
H322 C350 0.931 . S
H323 C353 0.929 . S
H324 C357 0.932 . S
H325 C354 0.931 . S
H326 C356 0.929 . S
H327 C359 0.929 . S
H328 C360 0.930 . S
H329 C362 0.929 . S
H330 C363 0.931 . S
H331 C365 0.930 . S
H332 C366 0.932 . S
H333 C368 0.931 . S
H334 C369 0.929 . S
H335 C371 0.929 . S
H336 C372 0.931 . S
H337 C374 0.929 . S
N338 C358 1.433 . S
N338 C364 1.435 . S
N338 C370 1.423 . S
H339 C375 0.932 . S
C340 N315 1.433 . S
C340 C341 1.363 . S
C340 C345 1.370 . S
C341 H314 0.929 . S
C341 C340 1.363 . S
C341 C342 1.385 . S
C342 H316 0.930 . S
C342 C341 1.385 . S
C342 C343 1.357 . S
C343 C342 1.357 . S
C343 C344 1.406 . S
C344 H318 0.929 . S
C344 C343 1.406 . S
C344 C345 1.391 . S
C345 H317 0.931 . S
C345 C340 1.370 . S
C345 C344 1.391 . S
C346 N315 1.435 . S
C346 C347 1.358 . S
C346 C351 1.371 . S
C347 H319 0.930 . S
C347 C346 1.358 . S
C347 C348 1.405 . S
C348 H320 0.932 . S
C348 C347 1.405 . S
C348 C349 1.383 . S
C349 C348 1.383 . S
C349 C350 1.393 . S
C350 H322 0.931 . S
C350 C349 1.393 . S
C350 C351 1.382 . S
C351 H321 0.929 . S
C351 C346 1.371 . S
C351 C350 1.382 . S
C352 N315 1.423 . S
C352 C353 1.362 . S
C352 C357 1.388 . S
C353 H323 0.929 . S
C353 C352 1.362 . S
C353 C354 1.376 . S
C354 H325 0.931 . S
C354 C353 1.376 . S
C354 C355 1.396 . S
C355 C354 1.396 . S
C355 C356 1.348 . S
C355 C373 1.472 . S
C356 H326 0.929 . S
C356 C355 1.348 . S
C356 C357 1.443 . S
C357 H324 0.932 . S
C357 C352 1.388 . S
C357 C356 1.443 . S
C358 N338 1.433 . S
C358 C359 1.363 . S
C358 C363 1.370 . S
C359 H327 0.929 . S
C359 C358 1.363 . S
C359 C360 1.385 . S
C360 H328 0.930 . S
C360 C359 1.385 . S
C360 C361 1.357 . S
C361 C360 1.357 . S
C361 C362 1.406 . S
C362 H329 0.929 . S
C362 C361 1.406 . S
C362 C363 1.391 . S
C363 H330 0.931 . S
C363 C358 1.370 . S
C363 C362 1.391 . S
C364 N338 1.435 . S
C364 C365 1.358 . S
C364 C369 1.371 . S
C365 H331 0.930 . S
C365 C364 1.358 . S
C365 C366 1.405 . S
C366 H332 0.932 . S
C366 C365 1.405 . S
C366 C367 1.383 . S
C367 C366 1.383 . S
C367 C368 1.393 . S
C368 H333 0.931 . S
C368 C367 1.393 . S
C368 C369 1.382 . S
C369 H334 0.929 . S
C369 C364 1.371 . S
C369 C368 1.382 . S
C370 N338 1.423 . S
C370 C371 1.362 . S
C370 C375 1.388 . S
C371 H335 0.929 . S
C371 C370 1.362 . S
C371 C372 1.376 . S
C372 H336 0.931 . S
C372 C371 1.376 . S
C372 C373 1.396 . S
C373 C355 1.472 . S
C373 C372 1.396 . S
C373 C374 1.348 . S
C374 H337 0.929 . S
C374 C373 1.348 . S
C374 C375 1.443 . S
C375 H339 0.932 . S
C375 C370 1.388 . S
C375 C374 1.443 . S
H376 C403 0.929 . S
N377 C402 1.433 . S
N377 C408 1.435 . S
N377 C414 1.423 . S
H378 C404 0.930 . S
H379 C407 0.931 . S
H380 C406 0.929 . S
H381 C409 0.930 . S
H382 C410 0.932 . S
H383 C413 0.929 . S
H384 C412 0.931 . S
H385 C415 0.929 . S
H386 C419 0.932 . S
H387 C416 0.931 . S
H388 C418 0.929 . S
H389 C421 0.929 . S
H390 C422 0.930 . S
H391 C424 0.929 . S
H392 C425 0.931 . S
H393 C427 0.930 . S
H394 C428 0.932 . S
H395 C430 0.931 . S
H396 C431 0.929 . S
H397 C433 0.929 . S
H398 C434 0.931 . S
H399 C436 0.929 . S
N400 C420 1.433 . S
N400 C426 1.435 . S
N400 C432 1.423 . S
H401 C437 0.932 . S
C402 N377 1.433 . S
C402 C403 1.363 . S
C402 C407 1.370 . S
C403 H376 0.929 . S
C403 C402 1.363 . S
C403 C404 1.385 . S
C404 H378 0.930 . S
C404 C403 1.385 . S
C404 C405 1.357 . S
C405 C404 1.357 . S
C405 C406 1.406 . S
C406 H380 0.929 . S
C406 C405 1.406 . S
C406 C407 1.391 . S
C407 H379 0.931 . S
C407 C402 1.370 . S
C407 C406 1.391 . S
C408 N377 1.435 . S
C408 C409 1.358 . S
C408 C413 1.371 . S
C409 H381 0.930 . S
C409 C408 1.358 . S
C409 C410 1.405 . S
C410 H382 0.932 . S
C410 C409 1.405 . S
C410 C411 1.383 . S
C411 C410 1.383 . S
C411 C412 1.393 . S
C412 H384 0.931 . S
C412 C411 1.393 . S
C412 C413 1.382 . S
C413 H383 0.929 . S
C413 C408 1.371 . S
C413 C412 1.382 . S
C414 N377 1.423 . S
C414 C415 1.362 . S
C414 C419 1.388 . S
C415 H385 0.929 . S
C415 C414 1.362 . S
C415 C416 1.376 . S
C416 H387 0.931 . S
C416 C415 1.376 . S
C416 C417 1.396 . S
C417 C416 1.396 . S
C417 C418 1.348 . S
C417 C435 1.472 . S
C418 H388 0.929 . S
C418 C417 1.348 . S
C418 C419 1.443 . S
C419 H386 0.932 . S
C419 C414 1.388 . S
C419 C418 1.443 . S
C420 N400 1.433 . S
C420 C421 1.363 . S
C420 C425 1.370 . S
C421 H389 0.929 . S
C421 C420 1.363 . S
C421 C422 1.385 . S
C422 H390 0.930 . S
C422 C421 1.385 . S
C422 C423 1.357 . S
C423 C422 1.357 . S
C423 C424 1.406 . S
C424 H391 0.929 . S
C424 C423 1.406 . S
C424 C425 1.391 . S
C425 H392 0.931 . S
C425 C420 1.370 . S
C425 C424 1.391 . S
C426 N400 1.435 . S
C426 C427 1.358 . S
C426 C431 1.371 . S
C427 H393 0.930 . S
C427 C426 1.358 . S
C427 C428 1.405 . S
C428 H394 0.932 . S
C428 C427 1.405 . S
C428 C429 1.383 . S
C429 C428 1.383 . S
C429 C430 1.393 . S
C430 H395 0.931 . S
C430 C429 1.393 . S
C430 C431 1.382 . S
C431 H396 0.929 . S
C431 C426 1.371 . S
C431 C430 1.382 . S
C432 N400 1.423 . S
C432 C433 1.362 . S
C432 C437 1.388 . S
C433 H397 0.929 . S
C433 C432 1.362 . S
C433 C434 1.376 . S
C434 H398 0.931 . S
C434 C433 1.376 . S
C434 C435 1.396 . S
C435 C417 1.472 . S
C435 C434 1.396 . S
C435 C436 1.348 . S
C436 H399 0.929 . S
C436 C435 1.348 . S
C436 C437 1.443 . S
C437 H401 0.932 . S
C437 C432 1.388 . S
C437 C436 1.443 . S
H438 C465 0.929 . S
N439 C464 1.433 . S
N439 C470 1.435 . S
N439 C476 1.423 . S
H440 C466 0.930 . S
H441 C469 0.931 . S
H442 C468 0.929 . S
H443 C471 0.930 . S
H444 C472 0.932 . S
H445 C475 0.929 . S
H446 C474 0.931 . S
H447 C477 0.929 . S
H448 C481 0.932 . S
H449 C478 0.931 . S
H450 C480 0.929 . S
H451 C483 0.929 . S
H452 C484 0.930 . S
H453 C486 0.929 . S
H454 C487 0.931 . S
H455 C489 0.930 . S
H456 C490 0.932 . S
H457 C492 0.931 . S
H458 C493 0.929 . S
H459 C495 0.929 . S
H460 C496 0.931 . S
H461 C498 0.929 . S
N462 C482 1.433 . S
N462 C488 1.435 . S
N462 C494 1.423 . S
H463 C499 0.932 . S
C464 N439 1.433 . S
C464 C465 1.363 . S
C464 C469 1.370 . S
C465 H438 0.929 . S
C465 C464 1.363 . S
C465 C466 1.385 . S
C466 H440 0.930 . S
C466 C465 1.385 . S
C466 C467 1.357 . S
C467 C466 1.357 . S
C467 C468 1.406 . S
C468 H442 0.929 . S
C468 C467 1.406 . S
C468 C469 1.391 . S
C469 H441 0.931 . S
C469 C464 1.370 . S
C469 C468 1.391 . S
C470 N439 1.435 . S
C470 C471 1.358 . S
C470 C475 1.371 . S
C471 H443 0.930 . S
C471 C470 1.358 . S
C471 C472 1.405 . S
C472 H444 0.932 . S
C472 C471 1.405 . S
C472 C473 1.383 . S
C473 C472 1.383 . S
C473 C474 1.393 . S
C474 H446 0.931 . S
C474 C473 1.393 . S
C474 C475 1.382 . S
C475 H445 0.929 . S
C475 C470 1.371 . S
C475 C474 1.382 . S
C476 N439 1.423 . S
C476 C477 1.362 . S
C476 C481 1.388 . S
C477 H447 0.929 . S
C477 C476 1.362 . S
C477 C478 1.376 . S
C478 H449 0.931 . S
C478 C477 1.376 . S
C478 C479 1.396 . S
C479 C478 1.396 . S
C479 C480 1.348 . S
C479 C497 1.472 . S
C480 H450 0.929 . S
C480 C479 1.348 . S
C480 C481 1.443 . S
C481 H448 0.932 . S
C481 C476 1.388 . S
C481 C480 1.443 . S
C482 N462 1.433 . S
C482 C483 1.363 . S
C482 C487 1.370 . S
C483 H451 0.929 . S
C483 C482 1.363 . S
C483 C484 1.385 . S
C484 H452 0.930 . S
C484 C483 1.385 . S
C484 C485 1.357 . S
C485 C484 1.357 . S
C485 C486 1.406 . S
C486 H453 0.929 . S
C486 C485 1.406 . S
C486 C487 1.391 . S
C487 H454 0.931 . S
C487 C482 1.370 . S
C487 C486 1.391 . S
C488 N462 1.435 . S
C488 C489 1.358 . S
C488 C493 1.371 . S
C489 H455 0.930 . S
C489 C488 1.358 . S
C489 C490 1.405 . S
C490 H456 0.932 . S
C490 C489 1.405 . S
C490 C491 1.383 . S
C491 C490 1.383 . S
C491 C492 1.393 . S
C492 H457 0.931 . S
C492 C491 1.393 . S
C492 C493 1.382 . S
C493 H458 0.929 . S
C493 C488 1.371 . S
C493 C492 1.382 . S
C494 N462 1.423 . S
C494 C495 1.362 . S
C494 C499 1.388 . S
C495 H459 0.929 . S
C495 C494 1.362 . S
C495 C496 1.376 . S
C496 H460 0.931 . S
C496 C495 1.376 . S
C496 C497 1.396 . S
C497 C479 1.472 . S
C497 C496 1.396 . S
C497 C498 1.348 . S
C498 H461 0.929 . S
C498 C497 1.348 . S
C498 C499 1.443 . S
C499 H463 0.932 . S
C499 C494 1.388 . S
C499 C498 1.443 . S
H500 C527 0.929 . S
N501 C526 1.433 . S
N501 C532 1.435 . S
N501 C538 1.423 . S
H502 C528 0.930 . S
H503 C531 0.931 . S
H504 C530 0.929 . S
H505 C533 0.930 . S
H506 C534 0.932 . S
H507 C537 0.929 . S
H508 C536 0.931 . S
H509 C539 0.929 . S
H510 C543 0.932 . S
H511 C540 0.931 . S
H512 C542 0.929 . S
H513 C545 0.929 . S
H514 C546 0.930 . S
H515 C548 0.929 . S
H516 C549 0.931 . S
H517 C551 0.930 . S
H518 C552 0.932 . S
H519 C554 0.931 . S
H520 C555 0.929 . S
H521 C557 0.929 . S
H522 C558 0.931 . S
H523 C560 0.929 . S
N524 C544 1.433 . S
N524 C550 1.435 . S
N524 C556 1.423 . S
H525 C561 0.932 . S
C526 N501 1.433 . S
C526 C527 1.363 . S
C526 C531 1.370 . S
C527 H500 0.929 . S
C527 C526 1.363 . S
C527 C528 1.385 . S
C528 H502 0.930 . S
C528 C527 1.385 . S
C528 C529 1.357 . S
C529 C528 1.357 . S
C529 C530 1.406 . S
C530 H504 0.929 . S
C530 C529 1.406 . S
C530 C531 1.391 . S
C531 H503 0.931 . S
C531 C526 1.370 . S
C531 C530 1.391 . S
C532 N501 1.435 . S
C532 C533 1.358 . S
C532 C537 1.371 . S
C533 H505 0.930 . S
C533 C532 1.358 . S
C533 C534 1.405 . S
C534 H506 0.932 . S
C534 C533 1.405 . S
C534 C535 1.383 . S
C535 C534 1.383 . S
C535 C536 1.393 . S
C536 H508 0.931 . S
C536 C535 1.393 . S
C536 C537 1.382 . S
C537 H507 0.929 . S
C537 C532 1.371 . S
C537 C536 1.382 . S
C538 N501 1.423 . S
C538 C539 1.362 . S
C538 C543 1.388 . S
C539 H509 0.929 . S
C539 C538 1.362 . S
C539 C540 1.376 . S
C540 H511 0.931 . S
C540 C539 1.376 . S
C540 C541 1.396 . S
C541 C540 1.396 . S
C541 C542 1.348 . S
C541 C559 1.472 . S
C542 H512 0.929 . S
C542 C541 1.348 . S
C542 C543 1.443 . S
C543 H510 0.932 . S
C543 C538 1.388 . S
C543 C542 1.443 . S
C544 N524 1.433 . S
C544 C545 1.363 . S
C544 C549 1.370 . S
C545 H513 0.929 . S
C545 C544 1.363 . S
C545 C546 1.385 . S
C546 H514 0.930 . S
C546 C545 1.385 . S
C546 C547 1.357 . S
C547 C546 1.357 . S
C547 C548 1.406 . S
C548 H515 0.929 . S
C548 C547 1.406 . S
C548 C549 1.391 . S
C549 H516 0.931 . S
C549 C544 1.370 . S
C549 C548 1.391 . S
C550 N524 1.435 . S
C550 C551 1.358 . S
C550 C555 1.371 . S
C551 H517 0.930 . S
C551 C550 1.358 . S
C551 C552 1.405 . S
C552 H518 0.932 . S
C552 C551 1.405 . S
C552 C553 1.383 . S
C553 C552 1.383 . S
C553 C554 1.393 . S
C554 H519 0.931 . S
C554 C553 1.393 . S
C554 C555 1.382 . S
C555 H520 0.929 . S
C555 C550 1.371 . S
C555 C554 1.382 . S
C556 N524 1.423 . S
C556 C557 1.362 . S
C556 C561 1.388 . S
C557 H521 0.929 . S
C557 C556 1.362 . S
C557 C558 1.376 . S
C558 H522 0.931 . S
C558 C557 1.376 . S
C558 C559 1.396 . S
C559 C541 1.472 . S
C559 C558 1.396 . S
C559 C560 1.348 . S
C560 H523 0.929 . S
C560 C559 1.348 . S
C560 C561 1.443 . S
C561 H525 0.932 . S
C561 C556 1.388 . S
C561 C560 1.443 . S
H562 C589 0.929 . S
N563 C588 1.433 . S
N563 C594 1.435 . S
N563 C600 1.423 . S
H564 C590 0.930 . S
H565 C593 0.931 . S
H566 C592 0.929 . S
H567 C595 0.930 . S
H568 C596 0.932 . S
H569 C599 0.929 . S
H570 C598 0.931 . S
H571 C601 0.929 . S
H572 C605 0.932 . S
H573 C602 0.931 . S
H574 C604 0.929 . S
H575 C607 0.929 . S
H576 C608 0.930 . S
H577 C610 0.929 . S
H578 C611 0.931 . S
H579 C613 0.930 . S
H580 C614 0.932 . S
H581 C616 0.931 . S
H582 C617 0.929 . S
H583 C619 0.929 . S
H584 C620 0.931 . S
H585 C622 0.929 . S
N586 C606 1.433 . S
N586 C612 1.435 . S
N586 C618 1.423 . S
H587 C623 0.932 . S
C588 N563 1.433 . S
C588 C589 1.363 . S
C588 C593 1.370 . S
C589 H562 0.929 . S
C589 C588 1.363 . S
C589 C590 1.385 . S
C590 H564 0.930 . S
C590 C589 1.385 . S
C590 C591 1.357 . S
C591 C590 1.357 . S
C591 C592 1.406 . S
C592 H566 0.929 . S
C592 C591 1.406 . S
C592 C593 1.391 . S
C593 H565 0.931 . S
C593 C588 1.370 . S
C593 C592 1.391 . S
C594 N563 1.435 . S
C594 C595 1.358 . S
C594 C599 1.371 . S
C595 H567 0.930 . S
C595 C594 1.358 . S
C595 C596 1.405 . S
C596 H568 0.932 . S
C596 C595 1.405 . S
C596 C597 1.383 . S
C597 C596 1.383 . S
C597 C598 1.393 . S
C598 H570 0.931 . S
C598 C597 1.393 . S
C598 C599 1.382 . S
C599 H569 0.929 . S
C599 C594 1.371 . S
C599 C598 1.382 . S
C600 N563 1.423 . S
C600 C601 1.362 . S
C600 C605 1.388 . S
C601 H571 0.929 . S
C601 C600 1.362 . S
C601 C602 1.376 . S
C602 H573 0.931 . S
C602 C601 1.376 . S
C602 C603 1.396 . S
C603 C602 1.396 . S
C603 C604 1.348 . S
C603 C621 1.472 . S
C604 H574 0.929 . S
C604 C603 1.348 . S
C604 C605 1.443 . S
C605 H572 0.932 . S
C605 C600 1.388 . S
C605 C604 1.443 . S
C606 N586 1.433 . S
C606 C607 1.363 . S
C606 C611 1.370 . S
C607 H575 0.929 . S
C607 C606 1.363 . S
C607 C608 1.385 . S
C608 H576 0.930 . S
C608 C607 1.385 . S
C608 C609 1.357 . S
C609 C608 1.357 . S
C609 C610 1.406 . S
C610 H577 0.929 . S
C610 C609 1.406 . S
C610 C611 1.391 . S
C611 H578 0.931 . S
C611 C606 1.370 . S
C611 C610 1.391 . S
C612 N586 1.435 . S
C612 C613 1.358 . S
C612 C617 1.371 . S
C613 H579 0.930 . S
C613 C612 1.358 . S
C613 C614 1.405 . S
C614 H580 0.932 . S
C614 C613 1.405 . S
C614 C615 1.383 . S
C615 C614 1.383 . S
C615 C616 1.393 . S
C616 H581 0.931 . S
C616 C615 1.393 . S
C616 C617 1.382 . S
C617 H582 0.929 . S
C617 C612 1.371 . S
C617 C616 1.382 . S
C618 N586 1.423 . S
C618 C619 1.362 . S
C618 C623 1.388 . S
C619 H583 0.929 . S
C619 C618 1.362 . S
C619 C620 1.376 . S
C620 H584 0.931 . S
C620 C619 1.376 . S
C620 C621 1.396 . S
C621 C603 1.472 . S
C621 C620 1.396 . S
C621 C622 1.348 . S
C622 H585 0.929 . S
C622 C621 1.348 . S
C622 C623 1.443 . S
C623 H587 0.932 . S
C623 C618 1.388 . S
C623 C622 1.443 . S
H624 C651 0.929 . S
N625 C650 1.433 . S
N625 C656 1.435 . S
N625 C662 1.423 . S
H626 C652 0.930 . S
H627 C655 0.931 . S
H628 C654 0.929 . S
H629 C657 0.930 . S
H630 C658 0.932 . S
H631 C661 0.929 . S
H632 C660 0.931 . S
H633 C663 0.929 . S
H634 C667 0.932 . S
H635 C664 0.931 . S
H636 C666 0.929 . S
H637 C669 0.929 . S
H638 C670 0.930 . S
H639 C672 0.929 . S
H640 C673 0.931 . S
H641 C675 0.930 . S
H642 C676 0.932 . S
H643 C678 0.931 . S
H644 C679 0.929 . S
H645 C681 0.929 . S
H646 C682 0.931 . S
H647 C684 0.929 . S
N648 C668 1.433 . S
N648 C674 1.435 . S
N648 C680 1.423 . S
H649 C685 0.932 . S
C650 N625 1.433 . S
C650 C651 1.363 . S
C650 C655 1.370 . S
C651 H624 0.929 . S
C651 C650 1.363 . S
C651 C652 1.385 . S
C652 H626 0.930 . S
C652 C651 1.385 . S
C652 C653 1.357 . S
C653 C652 1.357 . S
C653 C654 1.406 . S
C654 H628 0.929 . S
C654 C653 1.406 . S
C654 C655 1.391 . S
C655 H627 0.931 . S
C655 C650 1.370 . S
C655 C654 1.391 . S
C656 N625 1.435 . S
C656 C657 1.358 . S
C656 C661 1.371 . S
C657 H629 0.930 . S
C657 C656 1.358 . S
C657 C658 1.405 . S
C658 H630 0.932 . S
C658 C657 1.405 . S
C658 C659 1.383 . S
C659 C658 1.383 . S
C659 C660 1.393 . S
C660 H632 0.931 . S
C660 C659 1.393 . S
C660 C661 1.382 . S
C661 H631 0.929 . S
C661 C656 1.371 . S
C661 C660 1.382 . S
C662 N625 1.423 . S
C662 C663 1.362 . S
C662 C667 1.388 . S
C663 H633 0.929 . S
C663 C662 1.362 . S
C663 C664 1.376 . S
C664 H635 0.931 . S
C664 C663 1.376 . S
C664 C665 1.396 . S
C665 C664 1.396 . S
C665 C666 1.348 . S
C665 C683 1.472 . S
C666 H636 0.929 . S
C666 C665 1.348 . S
C666 C667 1.443 . S
C667 H634 0.932 . S
C667 C662 1.388 . S
C667 C666 1.443 . S
C668 N648 1.433 . S
C668 C669 1.363 . S
C668 C673 1.370 . S
C669 H637 0.929 . S
C669 C668 1.363 . S
C669 C670 1.385 . S
C670 H638 0.930 . S
C670 C669 1.385 . S
C670 C671 1.357 . S
C671 C670 1.357 . S
C671 C672 1.406 . S
C672 H639 0.929 . S
C672 C671 1.406 . S
C672 C673 1.391 . S
C673 H640 0.931 . S
C673 C668 1.370 . S
C673 C672 1.391 . S
C674 N648 1.435 . S
C674 C675 1.358 . S
C674 C679 1.371 . S
C675 H641 0.930 . S
C675 C674 1.358 . S
C675 C676 1.405 . S
C676 H642 0.932 . S
C676 C675 1.405 . S
C676 C677 1.383 . S
C677 C676 1.383 . S
C677 C678 1.393 . S
C678 H643 0.931 . S
C678 C677 1.393 . S
C678 C679 1.382 . S
C679 H644 0.929 . S
C679 C674 1.371 . S
C679 C678 1.382 . S
C680 N648 1.423 . S
C680 C681 1.362 . S
C680 C685 1.388 . S
C681 H645 0.929 . S
C681 C680 1.362 . S
C681 C682 1.376 . S
C682 H646 0.931 . S
C682 C681 1.376 . S
C682 C683 1.396 . S
C683 C665 1.472 . S
C683 C682 1.396 . S
C683 C684 1.348 . S
C684 H647 0.929 . S
C684 C683 1.348 . S
C684 C685 1.443 . S
C685 H649 0.932 . S
C685 C680 1.388 . S
C685 C684 1.443 . S
H686 C713 0.929 . S
N687 C712 1.433 . S
N687 C718 1.435 . S
N687 C724 1.423 . S
H688 C714 0.930 . S
H689 C717 0.931 . S
H690 C716 0.929 . S
H691 C719 0.930 . S
H692 C720 0.932 . S
H693 C723 0.929 . S
H694 C722 0.931 . S
H695 C725 0.929 . S
H696 C729 0.932 . S
H697 C726 0.931 . S
H698 C728 0.929 . S
H699 C731 0.929 . S
H700 C732 0.930 . S
H701 C734 0.929 . S
H702 C735 0.931 . S
H703 C737 0.930 . S
H704 C738 0.932 . S
H705 C740 0.931 . S
H706 C741 0.929 . S
H707 C743 0.929 . S
H708 C744 0.931 . S
H709 C746 0.929 . S
N710 C730 1.433 . S
N710 C736 1.435 . S
N710 C742 1.423 . S
H711 C747 0.932 . S
C712 N687 1.433 . S
C712 C713 1.363 . S
C712 C717 1.370 . S
C713 H686 0.929 . S
C713 C712 1.363 . S
C713 C714 1.385 . S
C714 H688 0.930 . S
C714 C713 1.385 . S
C714 C715 1.357 . S
C715 C714 1.357 . S
C715 C716 1.406 . S
C716 H690 0.929 . S
C716 C715 1.406 . S
C716 C717 1.391 . S
C717 H689 0.931 . S
C717 C712 1.370 . S
C717 C716 1.391 . S
C718 N687 1.435 . S
C718 C719 1.358 . S
C718 C723 1.371 . S
C719 H691 0.930 . S
C719 C718 1.358 . S
C719 C720 1.405 . S
C720 H692 0.932 . S
C720 C719 1.405 . S
C720 C721 1.383 . S
C721 C720 1.383 . S
C721 C722 1.393 . S
C722 H694 0.931 . S
C722 C721 1.393 . S
C722 C723 1.382 . S
C723 H693 0.929 . S
C723 C718 1.371 . S
C723 C722 1.382 . S
C724 N687 1.423 . S
C724 C725 1.362 . S
C724 C729 1.388 . S
C725 H695 0.929 . S
C725 C724 1.362 . S
C725 C726 1.376 . S
C726 H697 0.931 . S
C726 C725 1.376 . S
C726 C727 1.396 . S
C727 C726 1.396 . S
C727 C728 1.348 . S
C727 C745 1.472 . S
C728 H698 0.929 . S
C728 C727 1.348 . S
C728 C729 1.443 . S
C729 H696 0.932 . S
C729 C724 1.388 . S
C729 C728 1.443 . S
C730 N710 1.433 . S
C730 C731 1.363 . S
C730 C735 1.370 . S
C731 H699 0.929 . S
C731 C730 1.363 . S
C731 C732 1.385 . S
C732 H700 0.930 . S
C732 C731 1.385 . S
C732 C733 1.357 . S
C733 C732 1.357 . S
C733 C734 1.406 . S
C734 H701 0.929 . S
C734 C733 1.406 . S
C734 C735 1.391 . S
C735 H702 0.931 . S
C735 C730 1.370 . S
C735 C734 1.391 . S
C736 N710 1.435 . S
C736 C737 1.358 . S
C736 C741 1.371 . S
C737 H703 0.930 . S
C737 C736 1.358 . S
C737 C738 1.405 . S
C738 H704 0.932 . S
C738 C737 1.405 . S
C738 C739 1.383 . S
C739 C738 1.383 . S
C739 C740 1.393 . S
C740 H705 0.931 . S
C740 C739 1.393 . S
C740 C741 1.382 . S
C741 H706 0.929 . S
C741 C736 1.371 . S
C741 C740 1.382 . S
C742 N710 1.423 . S
C742 C743 1.362 . S
C742 C747 1.388 . S
C743 H707 0.929 . S
C743 C742 1.362 . S
C743 C744 1.376 . S
C744 H708 0.931 . S
C744 C743 1.376 . S
C744 C745 1.396 . S
C745 C727 1.472 . S
C745 C744 1.396 . S
C745 C746 1.348 . S
C746 H709 0.929 . S
C746 C745 1.348 . S
C746 C747 1.443 . S
C747 H711 0.932 . S
C747 C742 1.388 . S
C747 C746 1.443 . S
H748 C775 0.929 . S
N749 C774 1.433 . S
N749 C780 1.435 . S
N749 C786 1.423 . S
H750 C776 0.930 . S
H751 C779 0.931 . S
H752 C778 0.929 . S
H753 C781 0.930 . S
H754 C782 0.932 . S
H755 C785 0.929 . S
H756 C784 0.931 . S
H757 C787 0.929 . S
H758 C791 0.932 . S
H759 C788 0.931 . S
H760 C790 0.929 . S
H761 C793 0.929 . S
H762 C794 0.930 . S
H763 C796 0.929 . S
H764 C797 0.931 . S
H765 C799 0.930 . S
H766 C800 0.932 . S
H767 C802 0.931 . S
H768 C803 0.929 . S
H769 C805 0.929 . S
H770 C806 0.931 . S
H771 C808 0.929 . S
N772 C792 1.433 . S
N772 C798 1.435 . S
N772 C804 1.423 . S
H773 C809 0.932 . S
C774 N749 1.433 . S
C774 C775 1.363 . S
C774 C779 1.370 . S
C775 H748 0.929 . S
C775 C774 1.363 . S
C775 C776 1.385 . S
C776 H750 0.930 . S
C776 C775 1.385 . S
C776 C777 1.357 . S
C777 C776 1.357 . S
C777 C778 1.406 . S
C778 H752 0.929 . S
C778 C777 1.406 . S
C778 C779 1.391 . S
C779 H751 0.931 . S
C779 C774 1.370 . S
C779 C778 1.391 . S
C780 N749 1.435 . S
C780 C781 1.358 . S
C780 C785 1.371 . S
C781 H753 0.930 . S
C781 C780 1.358 . S
C781 C782 1.405 . S
C782 H754 0.932 . S
C782 C781 1.405 . S
C782 C783 1.383 . S
C783 C782 1.383 . S
C783 C784 1.393 . S
C784 H756 0.931 . S
C784 C783 1.393 . S
C784 C785 1.382 . S
C785 H755 0.929 . S
C785 C780 1.371 . S
C785 C784 1.382 . S
C786 N749 1.423 . S
C786 C787 1.362 . S
C786 C791 1.388 . S
C787 H757 0.929 . S
C787 C786 1.362 . S
C787 C788 1.376 . S
C788 H759 0.931 . S
C788 C787 1.376 . S
C788 C789 1.396 . S
C789 C788 1.396 . S
C789 C790 1.348 . S
C789 C807 1.472 . S
C790 H760 0.929 . S
C790 C789 1.348 . S
C790 C791 1.443 . S
C791 H758 0.932 . S
C791 C786 1.388 . S
C791 C790 1.443 . S
C792 N772 1.433 . S
C792 C793 1.363 . S
C792 C797 1.370 . S
C793 H761 0.929 . S
C793 C792 1.363 . S
C793 C794 1.385 . S
C794 H762 0.930 . S
C794 C793 1.385 . S
C794 C795 1.357 . S
C795 C794 1.357 . S
C795 C796 1.406 . S
C796 H763 0.929 . S
C796 C795 1.406 . S
C796 C797 1.391 . S
C797 H764 0.931 . S
C797 C792 1.370 . S
C797 C796 1.391 . S
C798 N772 1.435 . S
C798 C799 1.358 . S
C798 C803 1.371 . S
C799 H765 0.930 . S
C799 C798 1.358 . S
C799 C800 1.405 . S
C800 H766 0.932 . S
C800 C799 1.405 . S
C800 C801 1.383 . S
C801 C800 1.383 . S
C801 C802 1.393 . S
C802 H767 0.931 . S
C802 C801 1.393 . S
C802 C803 1.382 . S
C803 H768 0.929 . S
C803 C798 1.371 . S
C803 C802 1.382 . S
C804 N772 1.423 . S
C804 C805 1.362 . S
C804 C809 1.388 . S
C805 H769 0.929 . S
C805 C804 1.362 . S
C805 C806 1.376 . S
C806 H770 0.931 . S
C806 C805 1.376 . S
C806 C807 1.396 . S
C807 C789 1.472 . S
C807 C806 1.396 . S
C807 C808 1.348 . S
C808 H771 0.929 . S
C808 C807 1.348 . S
C808 C809 1.443 . S
C809 H773 0.932 . S
C809 C804 1.388 . S
C809 C808 1.443 . S
H810 C837 0.929 . S
N811 C836 1.433 . S
N811 C842 1.435 . S
N811 C848 1.423 . S
H812 C838 0.930 . S
H813 C841 0.931 . S
H814 C840 0.929 . S
H815 C843 0.930 . S
H816 C844 0.932 . S
H817 C847 0.929 . S
H818 C846 0.931 . S
H819 C849 0.929 . S
H820 C853 0.932 1_655 S
H821 C850 0.931 . S
H822 C852 0.936 . S
H823 C855 0.929 . S
H824 C856 0.930 . S
H825 C858 0.929 . S
H826 C859 0.931 . S
H827 C861 0.930 . S
H828 C862 0.932 . S
H829 C864 0.931 . S
H830 C865 0.929 . S
H831 C867 0.929 . S
H832 C868 0.931 . S
H833 C870 0.978 . S
N834 C854 1.433 . S
N834 C860 1.435 . S
N834 C866 1.423 . S
H835 C871 0.932 1_655 S
C836 N811 1.433 . S
C836 C837 1.363 . S
C836 C841 1.370 1_455 S
C837 H810 0.929 . S
C837 C836 1.363 . S
C837 C838 1.385 . S
C838 H812 0.930 . S
C838 C837 1.385 . S
C838 C839 1.357 1_455 S
C839 C838 1.357 1_655 S
C839 C840 1.406 . S
C840 H814 0.929 . S
C840 C839 1.406 . S
C840 C841 1.391 . S
C841 H813 0.931 . S
C841 C836 1.370 1_655 S
C841 C840 1.391 . S
C842 N811 1.435 . S
C842 C843 1.358 1_455 S
C842 C847 1.371 . S
C843 H815 0.930 . S
C843 C842 1.358 1_655 S
C843 C844 1.405 . S
C844 H816 0.932 . S
C844 C843 1.405 . S
C844 C845 1.383 1_655 S
C845 C844 1.383 1_455 S
C845 C846 1.393 . S
C846 H818 0.931 . S
C846 C845 1.393 . S
C846 C847 1.382 . S
C847 H817 0.929 . S
C847 C842 1.371 . S
C847 C846 1.382 . S
C848 N811 1.423 . S
C848 C849 1.362 . S
C848 C853 1.388 . S
C849 H819 0.929 . S
C849 C848 1.362 . S
C849 C850 1.376 . S
C850 H821 0.931 . S
C850 C849 1.376 . S
C850 C851 1.396 . S
C851 C850 1.396 . S
C851 C852 1.348 . S
C851 C869 1.472 . S
C852 H822 0.936 . S
C852 C851 1.348 . S
C852 C853 1.443 . S
C853 H820 0.932 1_455 S
C853 C848 1.388 . S
C853 C852 1.443 . S
C854 N834 1.433 . S
C854 C855 1.363 . S
C854 C859 1.370 1_455 S
C855 H823 0.929 . S
C855 C854 1.363 . S
C855 C856 1.385 . S
C856 H824 0.930 . S
C856 C855 1.385 . S
C856 C857 1.357 1_455 S
C857 C856 1.357 1_655 S
C857 C858 1.406 . S
C858 H825 0.929 . S
C858 C857 1.406 . S
C858 C859 1.391 . S
C859 H826 0.931 . S
C859 C854 1.370 1_655 S
C859 C858 1.391 . S
C860 N834 1.435 . S
C860 C861 1.358 1_455 S
C860 C865 1.371 . S
C861 H827 0.930 . S
C861 C860 1.358 1_655 S
C861 C862 1.405 . S
C862 H828 0.932 . S
C862 C861 1.405 . S
C862 C863 1.383 1_655 S
C863 C862 1.383 1_455 S
C863 C864 1.393 . S
C864 H829 0.931 . S
C864 C863 1.393 . S
C864 C865 1.382 . S
C865 H830 0.929 . S
C865 C860 1.371 . S
C865 C864 1.382 . S
C866 N834 1.423 . S
C866 C867 1.362 . S
C866 C871 1.388 . S
C867 H831 0.929 . S
C867 C866 1.362 . S
C867 C868 1.376 . S
C868 H832 0.931 . S
C868 C867 1.376 . S
C868 C869 1.396 . S
C869 C851 1.472 . S
C869 C868 1.396 . S
C869 C870 1.348 . S
C870 H833 0.978 . S
C870 C869 1.348 . S
C870 C871 1.443 . S
C871 H835 0.932 1_455 S
C871 C866 1.388 . S
C871 C870 1.443 . S
H872 C899 0.929 . S
N873 C898 1.433 . S
N873 C904 1.435 . S
N873 C910 1.423 . S
H874 C900 0.930 . S
H875 C903 0.931 . S
H876 C902 0.929 . S
H877 C905 0.930 . S
H878 C906 0.932 . S
H879 C909 0.929 . S
H880 C908 0.931 . S
H881 C911 0.929 . S
H882 C915 0.932 . S
H883 C912 0.931 . S
H884 C914 0.929 . S
H885 C917 0.929 . S
H886 C918 0.930 . S
H887 C920 0.929 . S
H888 C921 0.931 . S
H889 C923 0.930 . S
H890 C924 0.932 . S
H891 C926 0.931 . S
H892 C927 0.929 . S
H893 C929 0.929 . S
H894 C930 0.931 . S
H895 C932 0.929 . S
N896 C916 1.433 . S
N896 C922 1.435 . S
N896 C928 1.423 . S
H897 C933 0.932 . S
C898 N873 1.433 . S
C898 C899 1.363 . S
C898 C903 1.370 . S
C899 H872 0.929 . S
C899 C898 1.363 . S
C899 C900 1.385 . S
C900 H874 0.930 . S
C900 C899 1.385 . S
C900 C901 1.357 . S
C901 C900 1.357 . S
C901 C902 1.406 . S
C902 H876 0.929 . S
C902 C901 1.406 . S
C902 C903 1.391 . S
C903 H875 0.931 . S
C903 C898 1.370 . S
C903 C902 1.391 . S
C904 N873 1.435 . S
C904 C905 1.358 . S
C904 C909 1.371 . S
C905 H877 0.930 . S
C905 C904 1.358 . S
C905 C906 1.405 . S
C906 H878 0.932 . S
C906 C905 1.405 . S
C906 C907 1.383 . S
C907 C906 1.383 . S
C907 C908 1.393 . S
C908 H880 0.931 . S
C908 C907 1.393 . S
C908 C909 1.382 . S
C909 H879 0.929 . S
C909 C904 1.371 . S
C909 C908 1.382 . S
C910 N873 1.423 . S
C910 C911 1.362 . S
C910 C915 1.388 . S
C911 H881 0.929 . S
C911 C910 1.362 . S
C911 C912 1.376 . S
C912 H883 0.931 . S
C912 C911 1.376 . S
C912 C913 1.396 . S
C913 C912 1.396 . S
C913 C914 1.348 . S
C913 C931 1.472 . S
C914 H884 0.929 . S
C914 C913 1.348 . S
C914 C915 1.443 . S
C915 H882 0.932 . S
C915 C910 1.388 . S
C915 C914 1.443 . S
C916 N896 1.433 . S
C916 C917 1.363 . S
C916 C921 1.370 . S
C917 H885 0.929 . S
C917 C916 1.363 . S
C917 C918 1.385 . S
C918 H886 0.930 . S
C918 C917 1.385 . S
C918 C919 1.357 . S
C919 C918 1.357 . S
C919 C920 1.406 . S
C920 H887 0.929 . S
C920 C919 1.406 . S
C920 C921 1.391 . S
C921 H888 0.931 . S
C921 C916 1.370 . S
C921 C920 1.391 . S
C922 N896 1.435 . S
C922 C923 1.358 . S
C922 C927 1.371 . S
C923 H889 0.930 . S
C923 C922 1.358 . S
C923 C924 1.405 . S
C924 H890 0.932 . S
C924 C923 1.405 . S
C924 C925 1.383 . S
C925 C924 1.383 . S
C925 C926 1.393 . S
C926 H891 0.931 . S
C926 C925 1.393 . S
C926 C927 1.382 . S
C927 H892 0.929 . S
C927 C922 1.371 . S
C927 C926 1.382 . S
C928 N896 1.423 . S
C928 C929 1.362 . S
C928 C933 1.388 . S
C929 H893 0.929 . S
C929 C928 1.362 . S
C929 C930 1.376 . S
C930 H894 0.931 . S
C930 C929 1.376 . S
C930 C931 1.396 . S
C931 C913 1.472 . S
C931 C930 1.396 . S
C931 C932 1.348 . S
C932 H895 0.929 . S
C932 C931 1.348 . S
C932 C933 1.443 . S
C933 H897 0.932 . S
C933 C928 1.388 . S
C933 C932 1.443 . S
H934 C961 0.929 . S
N935 C960 1.433 . S
N935 C966 1.435 . S
N935 C972 1.423 . S
H936 C962 0.930 . S
H937 C965 0.931 . S
H938 C964 0.929 . S
H939 C967 0.930 . S
H940 C968 0.932 . S
H941 C971 0.929 . S
H942 C970 0.931 . S
H943 C973 0.929 . S
H944 C977 0.932 1_545 S
H945 C974 0.931 . S
H946 C976 0.983 . S
H947 C979 0.929 . S
H948 C980 0.930 . S
H949 C982 0.929 . S
H950 C983 0.931 . S
H951 C985 0.930 . S
H952 C986 0.932 . S
H953 C988 0.931 . S
H954 C989 0.929 . S
H955 C991 0.929 . S
H956 C992 0.931 . S
H957 C994 0.937 . S
N958 C978 1.433 . S
N958 C984 1.435 . S
N958 C990 1.423 . S
H959 C995 0.932 1_545 S
C960 N935 1.433 . S
C960 C961 1.363 . S
C960 C965 1.370 1_565 S
C961 H934 0.929 . S
C961 C960 1.363 . S
C961 C962 1.385 . S
C962 H936 0.930 . S
C962 C961 1.385 . S
C962 C963 1.357 1_565 S
C963 C962 1.357 1_545 S
C963 C964 1.406 . S
C964 H938 0.929 . S
C964 C963 1.406 . S
C964 C965 1.391 . S
C965 H937 0.931 . S
C965 C960 1.370 1_545 S
C965 C964 1.391 . S
C966 N935 1.435 . S
C966 C967 1.358 1_565 S
C966 C971 1.371 . S
C967 H939 0.930 . S
C967 C966 1.358 1_545 S
C967 C968 1.405 . S
C968 H940 0.932 . S
C968 C967 1.405 . S
C968 C969 1.383 1_545 S
C969 C968 1.383 1_565 S
C969 C970 1.393 . S
C970 H942 0.931 . S
C970 C969 1.393 . S
C970 C971 1.382 . S
C971 H941 0.929 . S
C971 C966 1.371 . S
C971 C970 1.382 . S
C972 N935 1.423 . S
C972 C973 1.362 . S
C972 C977 1.388 . S
C973 H943 0.929 . S
C973 C972 1.362 . S
C973 C974 1.376 . S
C974 H945 0.931 . S
C974 C973 1.376 . S
C974 C975 1.396 . S
C975 C974 1.396 . S
C975 C976 1.348 . S
C975 C993 1.472 . S
C976 H946 0.983 . S
C976 C975 1.348 . S
C976 C977 1.443 . S
C977 H944 0.932 1_565 S
C977 C972 1.388 . S
C977 C976 1.443 . S
C978 N958 1.433 . S
C978 C979 1.363 . S
C978 C983 1.370 1_565 S
C979 H947 0.929 . S
C979 C978 1.363 . S
C979 C980 1.385 . S
C980 H948 0.930 . S
C980 C979 1.385 . S
C980 C981 1.357 1_565 S
C981 C980 1.357 1_545 S
C981 C982 1.406 . S
C982 H949 0.929 . S
C982 C981 1.406 . S
C982 C983 1.391 . S
C983 H950 0.931 . S
C983 C978 1.370 1_545 S
C983 C982 1.391 . S
C984 N958 1.435 . S
C984 C985 1.358 1_565 S
C984 C989 1.371 . S
C985 H951 0.930 . S
C985 C984 1.358 1_545 S
C985 C986 1.405 . S
C986 H952 0.932 . S
C986 C985 1.405 . S
C986 C987 1.383 1_545 S
C987 C986 1.383 1_565 S
C987 C988 1.393 . S
C988 H953 0.931 . S
C988 C987 1.393 . S
C988 C989 1.382 . S
C989 H954 0.929 . S
C989 C984 1.371 . S
C989 C988 1.382 . S
C990 N958 1.423 . S
C990 C991 1.362 . S
C990 C995 1.388 . S
C991 H955 0.929 . S
C991 C990 1.362 . S
C991 C992 1.376 . S
C992 H956 0.931 . S
C992 C991 1.376 . S
C992 C993 1.396 . S
C993 C975 1.472 . S
C993 C992 1.396 . S
C993 C994 1.348 . S
C994 H957 0.937 . S
C994 C993 1.348 . S
C994 C995 1.443 . S
C995 H959 0.932 1_565 S
C995 C990 1.388 . S
C995 C994 1.443 . S
H996 C1023 0.929 . S
N997 C1022 1.433 . S
N997 C1028 1.435 . S
N997 C1034 1.423 . S
H998 C1024 0.930 . S
H999 C1027 0.931 . S
H1000 C1026 0.929 . S
H1001 C1029 0.930 . S
H1002 C1030 0.932 . S
H1003 C1033 0.929 . S
H1004 C1032 0.931 . S
H1005 C1035 0.929 . S
H1006 C1039 0.932 . S
H1007 C1036 0.931 . S
H1008 C1038 0.918 1_545 S
H1009 C1041 0.929 . S
H1010 C1042 0.930 . S
H1011 C1044 0.929 . S
H1012 C1045 0.990 . S
H1013 C1047 0.930 . S
H1014 C1048 0.932 . S
H1015 C1050 0.931 . S
H1016 C1051 0.929 . S
H1017 C1053 0.929 . S
H1018 C1054 0.931 . S
H1019 C1056 0.875 1_545 S
N1020 C1040 1.433 . S
N1020 C1046 1.435 . S
N1020 C1052 1.423 . S
H1021 C1057 0.956 . S
C1022 N997 1.433 . S
C1022 C1023 1.363 . S
C1022 C1027 1.370 1_565 S
C1023 H996 0.929 . S
C1023 C1022 1.363 . S
C1023 C1024 1.385 . S
C1024 H998 0.930 . S
C1024 C1023 1.385 . S
C1024 C1025 1.357 . S
C1025 C1024 1.357 . S
C1025 C1026 1.406 1_565 S
C1026 H1000 0.929 . S
C1026 C1025 1.406 1_545 S
C1026 C1027 1.391 . S
C1027 H999 0.931 . S
C1027 C1022 1.370 1_545 S
C1027 C1026 1.391 . S
C1028 N997 1.435 . S
C1028 C1029 1.358 1_565 S
C1028 C1033 1.371 . S
C1029 H1001 0.930 . S
C1029 C1028 1.358 1_545 S
C1029 C1030 1.405 . S
C1030 H1002 0.932 . S
C1030 C1029 1.405 . S
C1030 C1031 1.383 . S
C1031 C1030 1.383 . S
C1031 C1032 1.393 1_545 S
C1032 H1004 0.931 . S
C1032 C1031 1.393 1_565 S
C1032 C1033 1.382 . S
C1033 H1003 0.929 . S
C1033 C1028 1.371 . S
C1033 C1032 1.382 . S
C1034 N997 1.423 . S
C1034 C1035 1.362 . S
C1034 C1039 1.388 1_565 S
C1035 H1005 0.929 . S
C1035 C1034 1.362 . S
C1035 C1036 1.376 . S
C1036 H1007 0.931 . S
C1036 C1035 1.376 . S
C1036 C1037 1.396 . S
C1037 C1036 1.396 . S
C1037 C1038 1.398 . S
C1037 C1055 1.472 . S
C1038 H1008 0.918 1_565 S
C1038 C1037 1.398 . S
C1038 C1039 1.407 1_565 S
C1039 H1006 0.932 . S
C1039 C1034 1.388 1_545 S
C1039 C1038 1.407 1_545 S
C1040 N1020 1.433 . S
C1040 C1041 1.363 . S
C1040 C1045 1.325 1_565 S
C1041 H1009 0.929 . S
C1041 C1040 1.363 . S
C1041 C1042 1.385 . S
C1042 H1010 0.930 . S
C1042 C1041 1.385 . S
C1042 C1043 1.357 . S
C1043 C1042 1.357 . S
C1043 C1044 1.406 1_565 S
C1044 H1011 0.929 . S
C1044 C1043 1.406 1_545 S
C1044 C1045 1.381 . S
C1045 H1012 0.990 . S
C1045 C1040 1.325 1_545 S
C1045 C1044 1.381 . S
C1046 N1020 1.435 . S
C1046 C1047 1.358 1_565 S
C1046 C1051 1.371 . S
C1047 H1013 0.930 . S
C1047 C1046 1.358 1_545 S
C1047 C1048 1.405 . S
C1048 H1014 0.932 . S
C1048 C1047 1.405 . S
C1048 C1049 1.383 . S
C1049 C1048 1.383 . S
C1049 C1050 1.393 1_545 S
C1050 H1015 0.931 . S
C1050 C1049 1.393 1_565 S
C1050 C1051 1.382 . S
C1051 H1016 0.929 . S
C1051 C1046 1.371 . S
C1051 C1050 1.382 . S
C1052 N1020 1.423 . S
C1052 C1053 1.362 . S
C1052 C1057 1.337 1_565 S
C1053 H1017 0.929 . S
C1053 C1052 1.362 . S
C1053 C1054 1.376 . S
C1054 H1018 0.931 . S
C1054 C1053 1.376 . S
C1054 C1055 1.396 . S
C1055 C1037 1.472 . S
C1055 C1054 1.396 . S
C1055 C1056 1.370 . S
C1056 H1019 0.875 1_565 S
C1056 C1055 1.370 . S
C1056 C1057 1.510 1_565 S
C1057 H1021 0.956 . S
C1057 C1052 1.337 1_545 S
C1057 C1056 1.510 1_545 S
H1058 C1085 0.929 . S
N1059 C1084 1.433 . S
N1059 C1090 1.435 . S
N1059 C1096 1.423 . S
H1060 C1086 0.930 . S
H1061 C1089 0.931 . S
H1062 C1088 0.929 . S
H1063 C1091 0.930 . S
H1064 C1092 0.932 . S
H1065 C1095 0.929 . S
H1066 C1094 0.931 . S
H1067 C1097 0.929 . S
H1068 C1101 0.932 1_455 S
H1069 C1098 0.931 . S
H1070 C1100 0.984 . S
H1071 C1103 0.929 . S
H1072 C1104 0.930 . S
H1073 C1106 0.929 . S
H1074 C1107 0.931 . S
H1075 C1109 0.930 . S
H1076 C1110 0.932 . S
H1077 C1112 0.931 . S
H1078 C1113 0.929 . S
H1079 C1115 0.929 . S
H1080 C1116 0.931 . S
H1081 C1118 0.938 . S
N1082 C1102 1.433 . S
N1082 C1108 1.435 . S
N1082 C1114 1.423 . S
H1083 C1119 0.932 1_455 S
C1084 N1059 1.433 . S
C1084 C1085 1.363 . S
C1084 C1089 1.370 1_655 S
C1085 H1058 0.929 . S
C1085 C1084 1.363 . S
C1085 C1086 1.385 . S
C1086 H1060 0.930 . S
C1086 C1085 1.385 . S
C1086 C1087 1.357 1_655 S
C1087 C1086 1.357 1_455 S
C1087 C1088 1.406 . S
C1088 H1062 0.929 . S
C1088 C1087 1.406 . S
C1088 C1089 1.391 . S
C1089 H1061 0.931 . S
C1089 C1084 1.370 1_455 S
C1089 C1088 1.391 . S
C1090 N1059 1.435 . S
C1090 C1091 1.358 1_655 S
C1090 C1095 1.371 . S
C1091 H1063 0.930 . S
C1091 C1090 1.358 1_455 S
C1091 C1092 1.405 . S
C1092 H1064 0.932 . S
C1092 C1091 1.405 . S
C1092 C1093 1.383 1_455 S
C1093 C1092 1.383 1_655 S
C1093 C1094 1.393 . S
C1094 H1066 0.931 . S
C1094 C1093 1.393 . S
C1094 C1095 1.382 . S
C1095 H1065 0.929 . S
C1095 C1090 1.371 . S
C1095 C1094 1.382 . S
C1096 N1059 1.423 . S
C1096 C1097 1.362 . S
C1096 C1101 1.388 . S
C1097 H1067 0.929 . S
C1097 C1096 1.362 . S
C1097 C1098 1.376 . S
C1098 H1069 0.931 . S
C1098 C1097 1.376 . S
C1098 C1099 1.396 . S
C1099 C1098 1.396 . S
C1099 C1100 1.348 . S
C1099 C1117 1.472 . S
C1100 H1070 0.984 . S
C1100 C1099 1.348 . S
C1100 C1101 1.443 . S
C1101 H1068 0.932 1_655 S
C1101 C1096 1.388 . S
C1101 C1100 1.443 . S
C1102 N1082 1.433 . S
C1102 C1103 1.363 . S
C1102 C1107 1.370 1_655 S
C1103 H1071 0.929 . S
C1103 C1102 1.363 . S
C1103 C1104 1.385 . S
C1104 H1072 0.930 . S
C1104 C1103 1.385 . S
C1104 C1105 1.357 1_655 S
C1105 C1104 1.357 1_455 S
C1105 C1106 1.406 . S
C1106 H1073 0.929 . S
C1106 C1105 1.406 . S
C1106 C1107 1.391 . S
C1107 H1074 0.931 . S
C1107 C1102 1.370 1_455 S
C1107 C1106 1.391 . S
C1108 N1082 1.435 . S
C1108 C1109 1.358 1_655 S
C1108 C1113 1.371 . S
C1109 H1075 0.930 . S
C1109 C1108 1.358 1_455 S
C1109 C1110 1.405 . S
C1110 H1076 0.932 . S
C1110 C1109 1.405 . S
C1110 C1111 1.383 1_455 S
C1111 C1110 1.383 1_655 S
C1111 C1112 1.393 . S
C1112 H1077 0.931 . S
C1112 C1111 1.393 . S
C1112 C1113 1.382 . S
C1113 H1078 0.929 . S
C1113 C1108 1.371 . S
C1113 C1112 1.382 . S
C1114 N1082 1.423 . S
C1114 C1115 1.362 . S
C1114 C1119 1.388 . S
C1115 H1079 0.929 . S
C1115 C1114 1.362 . S
C1115 C1116 1.376 . S
C1116 H1080 0.931 . S
C1116 C1115 1.376 . S
C1116 C1117 1.396 . S
C1117 C1099 1.472 . S
C1117 C1116 1.396 . S
C1117 C1118 1.348 . S
C1118 H1081 0.938 . S
C1118 C1117 1.348 . S
C1118 C1119 1.443 . S
C1119 H1083 0.932 1_655 S
C1119 C1114 1.388 . S
C1119 C1118 1.443 . S
H1120 C1147 0.929 . S
N1121 C1146 1.433 . S
N1121 C1152 1.435 . S
N1121 C1158 1.423 . S
H1122 C1148 0.930 . S
H1123 C1151 0.931 . S
H1124 C1150 0.929 . S
H1125 C1153 0.930 . S
H1126 C1154 0.932 . S
H1127 C1157 0.929 . S
H1128 C1156 0.931 . S
H1129 C1159 0.929 . S
H1130 C1163 0.932 . S
H1131 C1160 0.931 . S
H1132 C1162 0.929 . S
H1133 C1165 0.929 . S
H1134 C1166 0.930 . S
H1135 C1168 0.929 . S
H1136 C1169 0.931 . S
H1137 C1171 0.930 . S
H1138 C1172 0.932 . S
H1139 C1174 0.931 . S
H1140 C1175 0.929 . S
H1141 C1177 0.929 . S
H1142 C1178 0.931 . S
H1143 C1180 0.929 . S
N1144 C1164 1.433 . S
N1144 C1170 1.435 . S
N1144 C1176 1.423 . S
H1145 C1181 0.932 . S
C1146 N1121 1.433 . S
C1146 C1147 1.363 . S
C1146 C1151 1.370 . S
C1147 H1120 0.929 . S
C1147 C1146 1.363 . S
C1147 C1148 1.385 . S
C1148 H1122 0.930 . S
C1148 C1147 1.385 . S
C1148 C1149 1.357 . S
C1149 C1148 1.357 . S
C1149 C1150 1.406 . S
C1150 H1124 0.929 . S
C1150 C1149 1.406 . S
C1150 C1151 1.391 . S
C1151 H1123 0.931 . S
C1151 C1146 1.370 . S
C1151 C1150 1.391 . S
C1152 N1121 1.435 . S
C1152 C1153 1.358 . S
C1152 C1157 1.371 . S
C1153 H1125 0.930 . S
C1153 C1152 1.358 . S
C1153 C1154 1.405 . S
C1154 H1126 0.932 . S
C1154 C1153 1.405 . S
C1154 C1155 1.383 . S
C1155 C1154 1.383 . S
C1155 C1156 1.393 . S
C1156 H1128 0.931 . S
C1156 C1155 1.393 . S
C1156 C1157 1.382 . S
C1157 H1127 0.929 . S
C1157 C1152 1.371 . S
C1157 C1156 1.382 . S
C1158 N1121 1.423 . S
C1158 C1159 1.362 . S
C1158 C1163 1.388 . S
C1159 H1129 0.929 . S
C1159 C1158 1.362 . S
C1159 C1160 1.376 . S
C1160 H1131 0.931 . S
C1160 C1159 1.376 . S
C1160 C1161 1.396 . S
C1161 C1160 1.396 . S
C1161 C1162 1.348 . S
C1161 C1179 1.472 . S
C1162 H1132 0.929 . S
C1162 C1161 1.348 . S
C1162 C1163 1.443 . S
C1163 H1130 0.932 . S
C1163 C1158 1.388 . S
C1163 C1162 1.443 . S
C1164 N1144 1.433 . S
C1164 C1165 1.363 . S
C1164 C1169 1.370 . S
C1165 H1133 0.929 . S
C1165 C1164 1.363 . S
C1165 C1166 1.385 . S
C1166 H1134 0.930 . S
C1166 C1165 1.385 . S
C1166 C1167 1.357 . S
C1167 C1166 1.357 . S
C1167 C1168 1.406 . S
C1168 H1135 0.929 . S
C1168 C1167 1.406 . S
C1168 C1169 1.391 . S
C1169 H1136 0.931 . S
C1169 C1164 1.370 . S
C1169 C1168 1.391 . S
C1170 N1144 1.435 . S
C1170 C1171 1.358 . S
C1170 C1175 1.371 . S
C1171 H1137 0.930 . S
C1171 C1170 1.358 . S
C1171 C1172 1.405 . S
C1172 H1138 0.932 . S
C1172 C1171 1.405 . S
C1172 C1173 1.383 . S
C1173 C1172 1.383 . S
C1173 C1174 1.393 . S
C1174 H1139 0.931 . S
C1174 C1173 1.393 . S
C1174 C1175 1.382 . S
C1175 H1140 0.929 . S
C1175 C1170 1.371 . S
C1175 C1174 1.382 . S
C1176 N1144 1.423 . S
C1176 C1177 1.362 . S
C1176 C1181 1.388 . S
C1177 H1141 0.929 . S
C1177 C1176 1.362 . S
C1177 C1178 1.376 . S
C1178 H1142 0.931 . S
C1178 C1177 1.376 . S
C1178 C1179 1.396 . S
C1179 C1161 1.472 . S
C1179 C1178 1.396 . S
C1179 C1180 1.348 . S
C1180 H1143 0.929 . S
C1180 C1179 1.348 . S
C1180 C1181 1.443 . S
C1181 H1145 0.932 . S
C1181 C1176 1.388 . S
C1181 C1180 1.443 . S
H1182 C1209 0.929 . S
N1183 C1208 1.433 . S
N1183 C1214 1.435 . S
N1183 C1220 1.423 . S
H1184 C1210 0.930 . S
H1185 C1213 0.931 . S
H1186 C1212 0.929 . S
H1187 C1215 0.930 . S
H1188 C1216 0.932 . S
H1189 C1219 0.929 . S
H1190 C1218 0.931 . S
H1191 C1221 0.929 . S
H1192 C1225 0.932 . S
H1193 C1222 0.931 . S
H1194 C1224 0.929 . S
H1195 C1227 0.929 . S
H1196 C1228 0.930 . S
H1197 C1230 0.929 . S
H1198 C1231 0.931 . S
H1199 C1233 0.930 . S
H1200 C1234 0.932 . S
H1201 C1236 0.931 . S
H1202 C1237 0.929 . S
H1203 C1239 0.929 . S
H1204 C1240 0.931 . S
H1205 C1242 0.929 . S
N1206 C1226 1.433 . S
N1206 C1232 1.435 . S
N1206 C1238 1.423 . S
H1207 C1243 0.932 . S
C1208 N1183 1.433 . S
C1208 C1209 1.363 . S
C1208 C1213 1.370 . S
C1209 H1182 0.929 . S
C1209 C1208 1.363 . S
C1209 C1210 1.385 . S
C1210 H1184 0.930 . S
C1210 C1209 1.385 . S
C1210 C1211 1.357 . S
C1211 C1210 1.357 . S
C1211 C1212 1.406 . S
C1212 H1186 0.929 . S
C1212 C1211 1.406 . S
C1212 C1213 1.391 . S
C1213 H1185 0.931 . S
C1213 C1208 1.370 . S
C1213 C1212 1.391 . S
C1214 N1183 1.435 . S
C1214 C1215 1.358 . S
C1214 C1219 1.371 . S
C1215 H1187 0.930 . S
C1215 C1214 1.358 . S
C1215 C1216 1.405 . S
C1216 H1188 0.932 . S
C1216 C1215 1.405 . S
C1216 C1217 1.383 . S
C1217 C1216 1.383 . S
C1217 C1218 1.393 . S
C1218 H1190 0.931 . S
C1218 C1217 1.393 . S
C1218 C1219 1.382 . S
C1219 H1189 0.929 . S
C1219 C1214 1.371 . S
C1219 C1218 1.382 . S
C1220 N1183 1.423 . S
C1220 C1221 1.362 . S
C1220 C1225 1.388 . S
C1221 H1191 0.929 . S
C1221 C1220 1.362 . S
C1221 C1222 1.376 . S
C1222 H1193 0.931 . S
C1222 C1221 1.376 . S
C1222 C1223 1.396 . S
C1223 C1222 1.396 . S
C1223 C1224 1.348 . S
C1223 C1241 1.472 . S
C1224 H1194 0.929 . S
C1224 C1223 1.348 . S
C1224 C1225 1.443 . S
C1225 H1192 0.932 . S
C1225 C1220 1.388 . S
C1225 C1224 1.443 . S
C1226 N1206 1.433 . S
C1226 C1227 1.363 . S
C1226 C1231 1.370 . S
C1227 H1195 0.929 . S
C1227 C1226 1.363 . S
C1227 C1228 1.385 . S
C1228 H1196 0.930 . S
C1228 C1227 1.385 . S
C1228 C1229 1.357 . S
C1229 C1228 1.357 . S
C1229 C1230 1.406 . S
C1230 H1197 0.929 . S
C1230 C1229 1.406 . S
C1230 C1231 1.391 . S
C1231 H1198 0.931 . S
C1231 C1226 1.370 . S
C1231 C1230 1.391 . S
C1232 N1206 1.435 . S
C1232 C1233 1.358 . S
C1232 C1237 1.371 . S
C1233 H1199 0.930 . S
C1233 C1232 1.358 . S
C1233 C1234 1.405 . S
C1234 H1200 0.932 . S
C1234 C1233 1.405 . S
C1234 C1235 1.383 . S
C1235 C1234 1.383 . S
C1235 C1236 1.393 . S
C1236 H1201 0.931 . S
C1236 C1235 1.393 . S
C1236 C1237 1.382 . S
C1237 H1202 0.929 . S
C1237 C1232 1.371 . S
C1237 C1236 1.382 . S
C1238 N1206 1.423 . S
C1238 C1239 1.362 . S
C1238 C1243 1.388 . S
C1239 H1203 0.929 . S
C1239 C1238 1.362 . S
C1239 C1240 1.376 . S
C1240 H1204 0.931 . S
C1240 C1239 1.376 . S
C1240 C1241 1.396 . S
C1241 C1223 1.472 . S
C1241 C1240 1.396 . S
C1241 C1242 1.348 . S
C1242 H1205 0.929 . S
C1242 C1241 1.348 . S
C1242 C1243 1.443 . S
C1243 H1207 0.932 . S
C1243 C1238 1.388 . S
C1243 C1242 1.443 . S
H1244 C1271 0.929 . S
N1245 C1270 1.433 . S
N1245 C1276 1.435 . S
N1245 C1282 1.423 . S
H1246 C1272 0.930 . S
H1247 C1275 0.931 . S
H1248 C1274 0.929 . S
H1249 C1277 0.930 . S
H1250 C1278 0.932 . S
H1251 C1281 0.929 . S
H1252 C1280 0.931 . S
H1253 C1283 0.929 . S
H1254 C1287 0.932 . S
H1255 C1284 0.931 . S
H1256 C1286 0.929 . S
H1257 C1289 0.929 . S
H1258 C1290 0.930 . S
H1259 C1292 0.929 . S
H1260 C1293 0.931 . S
H1261 C1295 0.930 . S
H1262 C1296 0.932 . S
H1263 C1298 0.931 . S
H1264 C1299 0.929 . S
H1265 C1301 0.929 . S
H1266 C1302 0.931 . S
H1267 C1304 0.929 . S
N1268 C1288 1.433 . S
N1268 C1294 1.435 . S
N1268 C1300 1.423 . S
H1269 C1305 0.932 . S
C1270 N1245 1.433 . S
C1270 C1271 1.363 . S
C1270 C1275 1.370 . S
C1271 H1244 0.929 . S
C1271 C1270 1.363 . S
C1271 C1272 1.385 . S
C1272 H1246 0.930 . S
C1272 C1271 1.385 . S
C1272 C1273 1.357 . S
C1273 C1272 1.357 . S
C1273 C1274 1.406 . S
C1274 H1248 0.929 . S
C1274 C1273 1.406 . S
C1274 C1275 1.391 . S
C1275 H1247 0.931 . S
C1275 C1270 1.370 . S
C1275 C1274 1.391 . S
C1276 N1245 1.435 . S
C1276 C1277 1.358 . S
C1276 C1281 1.371 . S
C1277 H1249 0.930 . S
C1277 C1276 1.358 . S
C1277 C1278 1.405 . S
C1278 H1250 0.932 . S
C1278 C1277 1.405 . S
C1278 C1279 1.383 . S
C1279 C1278 1.383 . S
C1279 C1280 1.393 . S
C1280 H1252 0.931 . S
C1280 C1279 1.393 . S
C1280 C1281 1.382 . S
C1281 H1251 0.929 . S
C1281 C1276 1.371 . S
C1281 C1280 1.382 . S
C1282 N1245 1.423 . S
C1282 C1283 1.362 . S
C1282 C1287 1.388 . S
C1283 H1253 0.929 . S
C1283 C1282 1.362 . S
C1283 C1284 1.376 . S
C1284 H1255 0.931 . S
C1284 C1283 1.376 . S
C1284 C1285 1.396 . S
C1285 C1284 1.396 . S
C1285 C1286 1.348 . S
C1285 C1303 1.472 . S
C1286 H1256 0.929 . S
C1286 C1285 1.348 . S
C1286 C1287 1.443 . S
C1287 H1254 0.932 . S
C1287 C1282 1.388 . S
C1287 C1286 1.443 . S
C1288 N1268 1.433 . S
C1288 C1289 1.363 . S
C1288 C1293 1.370 . S
C1289 H1257 0.929 . S
C1289 C1288 1.363 . S
C1289 C1290 1.385 . S
C1290 H1258 0.930 . S
C1290 C1289 1.385 . S
C1290 C1291 1.357 . S
C1291 C1290 1.357 . S
C1291 C1292 1.406 . S
C1292 H1259 0.929 . S
C1292 C1291 1.406 . S
C1292 C1293 1.391 . S
C1293 H1260 0.931 . S
C1293 C1288 1.370 . S
C1293 C1292 1.391 . S
C1294 N1268 1.435 . S
C1294 C1295 1.358 . S
C1294 C1299 1.371 . S
C1295 H1261 0.930 . S
C1295 C1294 1.358 . S
C1295 C1296 1.405 . S
C1296 H1262 0.932 . S
C1296 C1295 1.405 . S
C1296 C1297 1.383 . S
C1297 C1296 1.383 . S
C1297 C1298 1.393 . S
C1298 H1263 0.931 . S
C1298 C1297 1.393 . S
C1298 C1299 1.382 . S
C1299 H1264 0.929 . S
C1299 C1294 1.371 . S
C1299 C1298 1.382 . S
C1300 N1268 1.423 . S
C1300 C1301 1.362 . S
C1300 C1305 1.388 . S
C1301 H1265 0.929 . S
C1301 C1300 1.362 . S
C1301 C1302 1.376 . S
C1302 H1266 0.931 . S
C1302 C1301 1.376 . S
C1302 C1303 1.396 . S
C1303 C1285 1.472 . S
C1303 C1302 1.396 . S
C1303 C1304 1.348 . S
C1304 H1267 0.929 . S
C1304 C1303 1.348 . S
C1304 C1305 1.443 . S
C1305 H1269 0.932 . S
C1305 C1300 1.388 . S
C1305 C1304 1.443 . S
H1306 C1333 0.929 . S
N1307 C1332 1.433 . S
N1307 C1338 1.435 . S
N1307 C1344 1.423 . S
H1308 C1334 0.930 . S
H1309 C1337 0.931 . S
H1310 C1336 0.929 . S
H1311 C1339 0.930 . S
H1312 C1340 0.932 . S
H1313 C1343 0.929 . S
H1314 C1342 0.931 . S
H1315 C1345 0.929 . S
H1316 C1349 0.932 . S
H1317 C1346 0.931 . S
H1318 C1348 0.929 . S
H1319 C1351 0.929 . S
H1320 C1352 0.930 . S
H1321 C1354 0.929 . S
H1322 C1355 0.931 . S
H1323 C1357 0.930 . S
H1324 C1358 0.932 . S
H1325 C1360 0.931 . S
H1326 C1361 0.929 . S
H1327 C1363 0.929 . S
H1328 C1364 0.931 . S
H1329 C1366 0.929 . S
N1330 C1350 1.433 . S
N1330 C1356 1.435 . S
N1330 C1362 1.423 . S
H1331 C1367 0.932 . S
C1332 N1307 1.433 . S
C1332 C1333 1.363 . S
C1332 C1337 1.370 . S
C1333 H1306 0.929 . S
C1333 C1332 1.363 . S
C1333 C1334 1.385 . S
C1334 H1308 0.930 . S
C1334 C1333 1.385 . S
C1334 C1335 1.357 . S
C1335 C1334 1.357 . S
C1335 C1336 1.406 . S
C1336 H1310 0.929 . S
C1336 C1335 1.406 . S
C1336 C1337 1.391 . S
C1337 H1309 0.931 . S
C1337 C1332 1.370 . S
C1337 C1336 1.391 . S
C1338 N1307 1.435 . S
C1338 C1339 1.358 . S
C1338 C1343 1.371 . S
C1339 H1311 0.930 . S
C1339 C1338 1.358 . S
C1339 C1340 1.405 . S
C1340 H1312 0.932 . S
C1340 C1339 1.405 . S
C1340 C1341 1.383 . S
C1341 C1340 1.383 . S
C1341 C1342 1.393 . S
C1342 H1314 0.931 . S
C1342 C1341 1.393 . S
C1342 C1343 1.382 . S
C1343 H1313 0.929 . S
C1343 C1338 1.371 . S
C1343 C1342 1.382 . S
C1344 N1307 1.423 . S
C1344 C1345 1.362 . S
C1344 C1349 1.388 . S
C1345 H1315 0.929 . S
C1345 C1344 1.362 . S
C1345 C1346 1.376 . S
C1346 H1317 0.931 . S
C1346 C1345 1.376 . S
C1346 C1347 1.396 . S
C1347 C1346 1.396 . S
C1347 C1348 1.348 . S
C1347 C1365 1.472 . S
C1348 H1318 0.929 . S
C1348 C1347 1.348 . S
C1348 C1349 1.443 . S
C1349 H1316 0.932 . S
C1349 C1344 1.388 . S
C1349 C1348 1.443 . S
C1350 N1330 1.433 . S
C1350 C1351 1.363 . S
C1350 C1355 1.370 . S
C1351 H1319 0.929 . S
C1351 C1350 1.363 . S
C1351 C1352 1.385 . S
C1352 H1320 0.930 . S
C1352 C1351 1.385 . S
C1352 C1353 1.357 . S
C1353 C1352 1.357 . S
C1353 C1354 1.406 . S
C1354 H1321 0.929 . S
C1354 C1353 1.406 . S
C1354 C1355 1.391 . S
C1355 H1322 0.931 . S
C1355 C1350 1.370 . S
C1355 C1354 1.391 . S
C1356 N1330 1.435 . S
C1356 C1357 1.358 . S
C1356 C1361 1.371 . S
C1357 H1323 0.930 . S
C1357 C1356 1.358 . S
C1357 C1358 1.405 . S
C1358 H1324 0.932 . S
C1358 C1357 1.405 . S
C1358 C1359 1.383 . S
C1359 C1358 1.383 . S
C1359 C1360 1.393 . S
C1360 H1325 0.931 . S
C1360 C1359 1.393 . S
C1360 C1361 1.382 . S
C1361 H1326 0.929 . S
C1361 C1356 1.371 . S
C1361 C1360 1.382 . S
C1362 N1330 1.423 . S
C1362 C1363 1.362 . S
C1362 C1367 1.388 . S
C1363 H1327 0.929 . S
C1363 C1362 1.362 . S
C1363 C1364 1.376 . S
C1364 H1328 0.931 . S
C1364 C1363 1.376 . S
C1364 C1365 1.396 . S
C1365 C1347 1.472 . S
C1365 C1364 1.396 . S
C1365 C1366 1.348 . S
C1366 H1329 0.929 . S
C1366 C1365 1.348 . S
C1366 C1367 1.443 . S
C1367 H1331 0.932 . S
C1367 C1362 1.388 . S
C1367 C1366 1.443 . S
H1368 C1376 0.950 . S
H1369 C1381 0.950 . S
H1370 C1378 0.950 . S
H1371 C1380 0.950 . S
H1372 C1382 0.950 . S
H1373 C1384 0.950 . S
H1374 C1386 0.950 . S
H1375 C1387 0.950 . S
C1376 H1368 0.950 . S
C1376 C1377 1.386 1_455 S
C1376 C1378 1.391 . S
C1377 C1376 1.386 1_655 S
C1377 C1381 1.393 . S
C1378 H1370 0.950 . S
C1378 C1376 1.391 . S
C1378 C1379 1.400 1_455 S
C1379 C1378 1.400 1_655 S
C1379 C1380 1.398 . S
C1379 C1385 1.491 . S
C1380 H1371 0.950 . S
C1380 C1379 1.398 . S
C1380 C1381 1.391 . S
C1381 H1369 0.950 . S
C1381 C1377 1.393 . S
C1381 C1380 1.391 . S
C1382 H1372 0.950 . S
C1382 C1383 1.386 . S
C1382 C1384 1.391 . S
C1383 C1382 1.386 . S
C1383 C1387 1.393 1_655 S
C1384 H1373 0.950 . S
C1384 C1382 1.391 . S
C1384 C1385 1.400 . S
C1385 C1379 1.491 . S
C1385 C1384 1.400 . S
C1385 C1386 1.398 1_655 S
C1386 H1374 0.950 . S
C1386 C1385 1.398 1_455 S
C1386 C1387 1.391 . S
C1387 H1375 0.950 . S
C1387 C1383 1.393 1_455 S
C1387 C1386 1.391 . S
H1388 C1396 0.950 . S
H1389 C1401 0.950 . S
H1390 C1398 0.950 . S
H1391 C1400 0.950 . S
H1392 C1402 0.950 . S
H1393 C1404 0.950 . S
H1394 C1406 0.950 . S
H1395 C1407 0.950 . S
C1396 H1388 0.950 . S
C1396 C1397 1.386 . S
C1396 C1398 1.391 . S
C1397 C1396 1.386 . S
C1397 C1401 1.393 . S
C1398 H1390 0.950 . S
C1398 C1396 1.391 . S
C1398 C1399 1.400 . S
C1399 C1398 1.400 . S
C1399 C1400 1.398 . S
C1399 C1405 1.491 . S
C1400 H1391 0.950 . S
C1400 C1399 1.398 . S
C1400 C1401 1.391 . S
C1401 H1389 0.950 . S
C1401 C1397 1.393 . S
C1401 C1400 1.391 . S
C1402 H1392 0.950 . S
C1402 C1403 1.386 . S
C1402 C1404 1.391 . S
C1403 C1402 1.386 . S
C1403 C1407 1.393 . S
C1404 H1393 0.950 . S
C1404 C1402 1.391 . S
C1404 C1405 1.400 . S
C1405 C1399 1.491 . S
C1405 C1404 1.400 . S
C1405 C1406 1.398 . S
C1406 H1394 0.950 . S
C1406 C1405 1.398 . S
C1406 C1407 1.391 . S
C1407 H1395 0.950 . S
C1407 C1403 1.393 . S
C1407 C1406 1.391 . S
H1408 C1416 0.950 . S
H1409 C1421 0.950 . S
H1410 C1418 0.950 . S
H1411 C1420 0.950 . S
H1412 C1422 0.950 . S
H1413 C1424 0.950 . S
H1414 C1426 0.950 . S
H1415 C1427 0.950 . S
C1416 H1408 0.950 . S
C1416 C1417 1.386 1_565 S
C1416 C1418 1.391 . S
C1417 C1416 1.386 1_545 S
C1417 C1421 1.393 . S
C1418 H1410 0.950 . S
C1418 C1416 1.391 . S
C1418 C1419 1.400 1_565 S
C1419 C1418 1.400 1_545 S
C1419 C1420 1.398 . S
C1419 C1425 1.491 . S
C1420 H1411 0.950 . S
C1420 C1419 1.398 . S
C1420 C1421 1.391 . S
C1421 H1409 0.950 . S
C1421 C1417 1.393 . S
C1421 C1420 1.391 . S
C1422 H1412 0.950 . S
C1422 C1423 1.386 . S
C1422 C1424 1.391 . S
C1423 C1422 1.386 . S
C1423 C1427 1.393 1_545 S
C1424 H1413 0.950 . S
C1424 C1422 1.391 . S
C1424 C1425 1.400 . S
C1425 C1419 1.491 . S
C1425 C1424 1.400 . S
C1425 C1426 1.398 1_545 S
C1426 H1414 0.950 . S
C1426 C1425 1.398 1_565 S
C1426 C1427 1.391 . S
C1427 H1415 0.950 . S
C1427 C1423 1.393 1_565 S
C1427 C1426 1.391 . S
H1428 C1436 0.950 . S
H1429 C1441 0.950 . S
H1430 C1438 0.950 . S
H1431 C1440 0.950 . S
H1432 C1442 0.950 . S
H1433 C1444 0.950 . S
H1434 C1446 0.950 . S
H1435 C1447 0.950 . S
C1436 H1428 0.950 . S
C1436 C1437 1.386 . S
C1436 C1438 1.391 . S
C1437 C1436 1.386 . S
C1437 C1441 1.393 1_545 S
C1438 H1430 0.950 . S
C1438 C1436 1.391 . S
C1438 C1439 1.311 1_545 S
C1439 C1438 1.311 1_565 S
C1439 C1440 1.452 . S
C1439 C1445 1.529 . S
C1440 H1431 0.950 . S
C1440 C1439 1.452 . S
C1440 C1441 1.391 . S
C1441 H1429 0.950 . S
C1441 C1437 1.393 1_565 S
C1441 C1440 1.391 . S
C1442 H1432 0.950 . S
C1442 C1443 1.386 . S
C1442 C1444 1.391 . S
C1443 C1442 1.386 . S
C1443 C1447 1.393 1_565 S
C1444 H1433 0.950 . S
C1444 C1442 1.391 . S
C1444 C1445 1.400 . S
C1445 C1439 1.529 . S
C1445 C1444 1.400 . S
C1445 C1446 1.398 1_565 S
C1446 H1434 0.950 . S
C1446 C1445 1.398 1_545 S
C1446 C1447 1.391 . S
C1447 H1435 0.950 . S
C1447 C1443 1.393 1_545 S
C1447 C1446 1.391 . S
H1448 C1456 0.950 . S
H1449 C1461 0.952 . S
H1450 C1458 0.950 . S
H1451 C1460 0.936 1_655 S
H1452 C1462 0.950 . S
H1453 C1464 0.950 . S
H1454 C1466 0.950 . S
H1455 C1467 0.950 . S
C1456 H1448 0.950 . S
C1456 C1457 1.386 . S
C1456 C1458 1.391 . S
C1457 C1456 1.386 . S
C1457 C1461 1.388 1_455 S
C1458 H1450 0.950 . S
C1458 C1456 1.391 . S
C1458 C1459 1.400 . S
C1459 C1458 1.400 . S
C1459 C1460 1.405 . S
C1459 C1465 1.491 . S
C1460 H1451 0.936 1_455 S
C1460 C1459 1.405 . S
C1460 C1461 1.401 1_455 S
C1461 H1449 0.952 . S
C1461 C1457 1.388 1_655 S
C1461 C1460 1.401 1_655 S
C1462 H1452 0.950 . S
C1462 C1463 1.386 . S
C1462 C1464 1.391 . S
C1463 C1462 1.386 . S
C1463 C1467 1.393 . S
C1464 H1453 0.950 . S
C1464 C1462 1.391 . S
C1464 C1465 1.400 . S
C1465 C1459 1.491 . S
C1465 C1464 1.400 . S
C1465 C1466 1.398 . S
C1466 H1454 0.950 . S
C1466 C1465 1.398 . S
C1466 C1467 1.391 . S
C1467 H1455 0.950 . S
C1467 C1463 1.393 . S
C1467 C1466 1.391 . S
H1468 C1476 0.950 . S
H1469 C1481 0.950 . S
H1470 C1478 0.950 . S
H1471 C1480 0.950 . S
H1472 C1482 0.950 . S
H1473 C1484 0.950 . S
H1474 C1486 0.950 . S
H1475 C1487 0.950 . S
C1476 H1468 0.950 . S
C1476 C1477 1.386 . S
C1476 C1478 1.391 . S
C1477 C1476 1.386 . S
C1477 C1481 1.393 . S
C1478 H1470 0.950 . S
C1478 C1476 1.391 . S
C1478 C1479 1.400 . S
C1479 C1478 1.400 . S
C1479 C1480 1.398 . S
C1479 C1485 1.491 . S
C1480 H1471 0.950 . S
C1480 C1479 1.398 . S
C1480 C1481 1.391 . S
C1481 H1469 0.950 . S
C1481 C1477 1.393 . S
C1481 C1480 1.391 . S
C1482 H1472 0.950 . S
C1482 C1483 1.386 . S
C1482 C1484 1.391 . S
C1483 C1482 1.386 . S
C1483 C1487 1.393 . S
C1484 H1473 0.950 . S
C1484 C1482 1.391 . S
C1484 C1485 1.400 . S
C1485 C1479 1.491 . S
C1485 C1484 1.400 . S
C1485 C1486 1.398 . S
C1486 H1474 0.950 . S
C1486 C1485 1.398 . S
C1486 C1487 1.391 . S
C1487 H1475 0.950 . S
C1487 C1483 1.393 . S
C1487 C1486 1.391 . S
H1488 C1496 0.950 . S
H1489 C1501 0.950 . S
H1490 C1498 0.950 . S
H1491 C1500 0.950 . S
H1492 C1502 0.950 . S
H1493 C1504 0.950 . S
H1494 C1506 0.950 . S
H1495 C1507 0.950 . S
C1496 H1488 0.950 . S
C1496 C1497 1.386 . S
C1496 C1498 1.391 . S
C1497 C1496 1.386 . S
C1497 C1501 1.393 1_455 S
C1498 H1490 0.950 . S
C1498 C1496 1.391 . S
C1498 C1499 1.400 . S
C1499 C1498 1.400 . S
C1499 C1500 1.398 1_455 S
C1499 C1505 1.491 . S
C1500 H1491 0.950 . S
C1500 C1499 1.398 1_655 S
C1500 C1501 1.391 . S
C1501 H1489 0.950 . S
C1501 C1497 1.393 1_655 S
C1501 C1500 1.391 . S
C1502 H1492 0.950 . S
C1502 C1503 1.386 1_655 S
C1502 C1504 1.391 . S
C1503 C1502 1.386 1_455 S
C1503 C1507 1.393 . S
C1504 H1493 0.950 . S
C1504 C1502 1.391 . S
C1504 C1505 1.400 1_655 S
C1505 C1499 1.491 . S
C1505 C1504 1.400 1_455 S
C1505 C1506 1.398 . S
C1506 H1494 0.950 . S
C1506 C1505 1.398 . S
C1506 C1507 1.391 . S
C1507 H1495 0.950 . S
C1507 C1503 1.393 . S
C1507 C1506 1.391 . S
H1508 C1516 0.950 . S
H1509 C1521 0.950 . S
H1510 C1518 0.950 . S
H1511 C1520 0.950 . S
H1512 C1522 0.950 . S
H1513 C1524 0.950 . S
H1514 C1526 0.950 . S
H1515 C1527 0.950 . S
C1516 H1508 0.950 . S
C1516 C1517 1.386 . S
C1516 C1518 1.391 . S
C1517 C1516 1.386 . S
C1517 C1521 1.393 . S
C1518 H1510 0.950 . S
C1518 C1516 1.391 . S
C1518 C1519 1.400 . S
C1519 C1518 1.400 . S
C1519 C1520 1.398 . S
C1519 C1525 1.491 . S
C1520 H1511 0.950 . S
C1520 C1519 1.398 . S
C1520 C1521 1.391 . S
C1521 H1509 0.950 . S
C1521 C1517 1.393 . S
C1521 C1520 1.391 . S
C1522 H1512 0.950 . S
C1522 C1523 1.386 . S
C1522 C1524 1.391 . S
C1523 C1522 1.386 . S
C1523 C1527 1.393 . S
C1524 H1513 0.950 . S
C1524 C1522 1.391 . S
C1524 C1525 1.400 . S
C1525 C1519 1.491 . S
C1525 C1524 1.400 . S
C1525 C1526 1.398 . S
C1526 H1514 0.950 . S
C1526 C1525 1.398 . S
C1526 C1527 1.391 . S
C1527 H1515 0.950 . S
C1527 C1523 1.393 . S
C1527 C1526 1.391 . S
H1528 C1536 0.950 . S
H1529 C1541 0.950 . S
H1530 C1538 0.950 . S
H1531 C1540 0.950 . S
H1532 C1542 0.950 . S
H1533 C1544 0.950 . S
H1534 C1546 0.950 . S
H1535 C1547 0.950 . S
C1536 H1528 0.950 . S
C1536 C1537 1.314 1_545 S
C1536 C1538 1.391 . S
C1537 C1536 1.314 1_565 S
C1537 C1541 1.436 . S
C1538 H1530 0.950 . S
C1538 C1536 1.391 . S
C1538 C1539 1.400 1_545 S
C1539 C1538 1.400 1_565 S
C1539 C1540 1.398 . S
C1539 C1545 1.491 . S
C1540 H1531 0.950 . S
C1540 C1539 1.398 . S
C1540 C1541 1.391 . S
C1541 H1529 0.950 . S
C1541 C1537 1.436 . S
C1541 C1540 1.391 . S
C1542 H1532 0.950 . S
C1542 C1543 1.386 . S
C1542 C1544 1.391 . S
C1543 C1542 1.386 . S
C1543 C1547 1.393 1_565 S
C1544 H1533 0.950 . S
C1544 C1542 1.391 . S
C1544 C1545 1.400 . S
C1545 C1539 1.491 . S
C1545 C1544 1.400 . S
C1545 C1546 1.398 1_565 S
C1546 H1534 0.950 . S
C1546 C1545 1.398 1_545 S
C1546 C1547 1.391 . S
C1547 H1535 0.950 . S
C1547 C1543 1.393 1_545 S
C1547 C1546 1.391 . S
H1548 C1556 0.950 . S
H1549 C1561 0.950 . S
H1550 C1558 0.950 . S
H1551 C1560 0.950 . S
H1552 C1562 0.950 . S
H1553 C1564 0.950 . S
H1554 C1566 0.950 . S
H1555 C1567 0.950 . S
C1556 H1548 0.950 . S
C1556 C1557 1.386 1_565 S
C1556 C1558 1.391 . S
C1557 C1556 1.386 1_545 S
C1557 C1561 1.393 . S
C1558 H1550 0.950 . S
C1558 C1556 1.391 . S
C1558 C1559 1.400 1_565 S
C1559 C1558 1.400 1_545 S
C1559 C1560 1.398 . S
C1559 C1565 1.491 . S
C1560 H1551 0.950 . S
C1560 C1559 1.398 . S
C1560 C1561 1.391 . S
C1561 H1549 0.950 . S
C1561 C1557 1.393 . S
C1561 C1560 1.391 . S
C1562 H1552 0.950 . S
C1562 C1563 1.386 . S
C1562 C1564 1.391 . S
C1563 C1562 1.386 . S
C1563 C1567 1.393 1_545 S
C1564 H1553 0.950 . S
C1564 C1562 1.391 . S
C1564 C1565 1.400 . S
C1565 C1559 1.491 . S
C1565 C1564 1.400 . S
C1565 C1566 1.398 1_545 S
C1566 H1554 0.950 . S
C1566 C1565 1.398 1_565 S
C1566 C1567 1.391 . S
C1567 H1555 0.950 . S
C1567 C1563 1.393 1_565 S
C1567 C1566 1.391 . S
H1568 C1576 0.950 . S
H1569 C1581 0.950 . S
H1570 C1578 0.950 . S
H1571 C1580 0.950 . S
H1572 C1582 0.950 . S
H1573 C1584 0.950 . S
H1574 C1586 0.950 . S
H1575 C1587 0.950 . S
C1576 H1568 0.950 . S
C1576 C1577 1.391 . S
C1576 C1578 1.391 . S
C1577 C1576 1.391 . S
C1577 C1581 1.365 1_655 S
C1578 H1570 0.950 . S
C1578 C1576 1.391 . S
C1578 C1579 1.400 . S
C1579 C1578 1.400 . S
C1579 C1580 1.398 1_655 S
C1579 C1585 1.491 . S
C1580 H1571 0.950 . S
C1580 C1579 1.398 1_455 S
C1580 C1581 1.391 . S
C1581 H1569 0.950 . S
C1581 C1577 1.365 1_455 S
C1581 C1580 1.391 . S
C1582 H1572 0.950 . S
C1582 C1583 1.386 1_455 S
C1582 C1584 1.391 . S
C1583 C1582 1.386 1_655 S
C1583 C1587 1.393 . S
C1584 H1573 0.950 . S
C1584 C1582 1.391 . S
C1584 C1585 1.400 1_455 S
C1585 C1579 1.491 . S
C1585 C1584 1.400 1_655 S
C1585 C1586 1.398 . S
C1586 H1574 0.950 . S
C1586 C1585 1.398 . S
C1586 C1587 1.391 . S
C1587 H1575 0.950 . S
C1587 C1583 1.393 . S
C1587 C1586 1.391 . S
H1588 C1596 0.950 . S
H1589 C1601 0.950 . S
H1590 C1598 0.950 . S
H1591 C1600 0.950 . S
H1592 C1602 0.950 . S
H1593 C1604 0.950 . S
H1594 C1606 0.950 . S
H1595 C1607 0.950 . S
C1596 H1588 0.950 . S
C1596 C1597 1.386 . S
C1596 C1598 1.391 . S
C1597 C1596 1.386 . S
C1597 C1601 1.393 . S
C1598 H1590 0.950 . S
C1598 C1596 1.391 . S
C1598 C1599 1.400 . S
C1599 C1598 1.400 . S
C1599 C1600 1.398 . S
C1599 C1605 1.491 . S
C1600 H1591 0.950 . S
C1600 C1599 1.398 . S
C1600 C1601 1.391 . S
C1601 H1589 0.950 . S
C1601 C1597 1.393 . S
C1601 C1600 1.391 . S
C1602 H1592 0.950 . S
C1602 C1603 1.386 . S
C1602 C1604 1.391 . S
C1603 C1602 1.386 . S
C1603 C1607 1.393 . S
C1604 H1593 0.950 . S
C1604 C1602 1.391 . S
C1604 C1605 1.400 . S
C1605 C1599 1.491 . S
C1605 C1604 1.400 . S
C1605 C1606 1.398 . S
C1606 H1594 0.950 . S
C1606 C1605 1.398 . S
C1606 C1607 1.391 . S
C1607 H1595 0.950 . S
C1607 C1603 1.393 . S
C1607 C1606 1.391 . S
H1608 C1616 0.950 . S
H1609 C1621 0.950 . S
H1610 C1618 0.950 . S
H1611 C1620 0.950 . S
H1612 C1622 0.950 . S
H1613 C1624 0.950 . S
H1614 C1626 0.950 . S
H1615 C1627 0.950 . S
C1616 H1608 0.950 . S
C1616 C1617 1.386 . S
C1616 C1618 1.391 . S
C1617 C1616 1.386 . S
C1617 C1621 1.393 . S
C1618 H1610 0.950 . S
C1618 C1616 1.391 . S
C1618 C1619 1.400 . S
C1619 C1618 1.400 . S
C1619 C1620 1.398 . S
C1619 C1625 1.491 . S
C1620 H1611 0.950 . S
C1620 C1619 1.398 . S
C1620 C1621 1.391 . S
C1621 H1609 0.950 . S
C1621 C1617 1.393 . S
C1621 C1620 1.391 . S
C1622 H1612 0.950 . S
C1622 C1623 1.386 . S
C1622 C1624 1.391 . S
C1623 C1622 1.386 . S
C1623 C1627 1.393 . S
C1624 H1613 0.950 . S
C1624 C1622 1.391 . S
C1624 C1625 1.400 . S
C1625 C1619 1.491 . S
C1625 C1624 1.400 . S
C1625 C1626 1.398 . S
C1626 H1614 0.950 . S
C1626 C1625 1.398 . S
C1626 C1627 1.391 . S
C1627 H1615 0.950 . S
C1627 C1623 1.393 . S
C1627 C1626 1.391 . S
H1628 C1636 0.950 . S
H1629 C1641 0.950 . S
H1630 C1638 0.950 . S
H1631 C1640 0.950 . S
H1632 C1642 0.950 . S
H1633 C1644 0.950 . S
H1634 C1646 0.950 . S
H1635 C1647 0.950 . S
C1636 H1628 0.950 . S
C1636 C1637 1.386 . S
C1636 C1638 1.391 . S
C1637 C1636 1.386 . S
C1637 C1641 1.393 . S
C1638 H1630 0.950 . S
C1638 C1636 1.391 . S
C1638 C1639 1.400 . S
C1639 C1638 1.400 . S
C1639 C1640 1.398 . S
C1639 C1645 1.491 . S
C1640 H1631 0.950 . S
C1640 C1639 1.398 . S
C1640 C1641 1.391 . S
C1641 H1629 0.950 . S
C1641 C1637 1.393 . S
C1641 C1640 1.391 . S
C1642 H1632 0.950 . S
C1642 C1643 1.386 . S
C1642 C1644 1.391 . S
C1643 C1642 1.386 . S
C1643 C1647 1.393 . S
C1644 H1633 0.950 . S
C1644 C1642 1.391 . S
C1644 C1645 1.400 . S
C1645 C1639 1.491 . S
C1645 C1644 1.400 . S
C1645 C1646 1.398 . S
C1646 H1634 0.950 . S
C1646 C1645 1.398 . S
C1646 C1647 1.391 . S
C1647 H1635 0.950 . S
C1647 C1643 1.393 . S
C1647 C1646 1.391 . S
H1648 C1656 0.950 . S
H1649 C1661 0.950 . S
H1650 C1658 0.950 . S
H1651 C1660 0.950 . S
H1652 C1662 0.950 . S
H1653 C1664 0.950 . S
H1654 C1666 0.950 . S
H1655 C1667 0.950 . S
C1656 H1648 0.950 . S
C1656 C1657 1.386 . S
C1656 C1658 1.391 . S
C1657 C1656 1.386 . S
C1657 C1661 1.393 . S
C1658 H1650 0.950 . S
C1658 C1656 1.391 . S
C1658 C1659 1.400 . S
C1659 C1658 1.400 . S
C1659 C1660 1.398 . S
C1659 C1665 1.491 . S
C1660 H1651 0.950 . S
C1660 C1659 1.398 . S
C1660 C1661 1.391 . S
C1661 H1649 0.950 . S
C1661 C1657 1.393 . S
C1661 C1660 1.391 . S
C1662 H1652 0.950 . S
C1662 C1663 1.386 . S
C1662 C1664 1.391 . S
C1663 C1662 1.386 . S
C1663 C1667 1.393 . S
C1664 H1653 0.950 . S
C1664 C1662 1.391 . S
C1664 C1665 1.400 . S
C1665 C1659 1.491 . S
C1665 C1664 1.400 . S
C1665 C1666 1.398 . S
C1666 H1654 0.950 . S
C1666 C1665 1.398 . S
C1666 C1667 1.391 . S
C1667 H1655 0.950 . S
C1667 C1663 1.393 . S
C1667 C1666 1.391 . S
H1668 C1676 0.950 . S
H1669 C1681 0.950 . S
H1670 C1678 0.950 . S
H1671 C1680 0.950 . S
H1672 C1682 0.950 . S
H1673 C1684 0.950 . S
H1674 C1686 0.950 . S
H1675 C1687 0.950 . S
C1676 H1668 0.950 . S
C1676 C1677 1.386 . S
C1676 C1678 1.391 . S
C1677 C1676 1.386 . S
C1677 C1681 1.393 . S
C1678 H1670 0.950 . S
C1678 C1676 1.391 . S
C1678 C1679 1.400 . S
C1679 C1678 1.400 . S
C1679 C1680 1.398 . S
C1679 C1685 1.491 . S
C1680 H1671 0.950 . S
C1680 C1679 1.398 . S
C1680 C1681 1.391 . S
C1681 H1669 0.950 . S
C1681 C1677 1.393 . S
C1681 C1680 1.391 . S
C1682 H1672 0.950 . S
C1682 C1683 1.386 . S
C1682 C1684 1.391 . S
C1683 C1682 1.386 . S
C1683 C1687 1.393 . S
C1684 H1673 0.950 . S
C1684 C1682 1.391 . S
C1684 C1685 1.400 . S
C1685 C1679 1.491 . S
C1685 C1684 1.400 . S
C1685 C1686 1.398 . S
C1686 H1674 0.950 . S
C1686 C1685 1.398 . S
C1686 C1687 1.391 . S
C1687 H1675 0.950 . S
C1687 C1683 1.393 . S
C1687 C1686 1.391 . S
H1688 C1696 0.950 . S
H1689 C1701 0.950 . S
H1690 C1698 0.950 . S
H1691 C1700 0.950 . S
H1692 C1702 0.950 . S
H1693 C1704 0.950 . S
H1694 C1706 0.950 . S
H1695 C1707 0.950 . S
C1696 H1688 0.950 . S
C1696 C1697 1.386 . S
C1696 C1698 1.391 . S
C1697 C1696 1.386 . S
C1697 C1701 1.393 . S
C1698 H1690 0.950 . S
C1698 C1696 1.391 . S
C1698 C1699 1.400 . S
C1699 C1698 1.400 . S
C1699 C1700 1.398 . S
C1699 C1705 1.491 . S
C1700 H1691 0.950 . S
C1700 C1699 1.398 . S
C1700 C1701 1.391 . S
C1701 H1689 0.950 . S
C1701 C1697 1.393 . S
C1701 C1700 1.391 . S
C1702 H1692 0.950 . S
C1702 C1703 1.386 . S
C1702 C1704 1.391 . S
C1703 C1702 1.386 . S
C1703 C1707 1.393 . S
C1704 H1693 0.950 . S
C1704 C1702 1.391 . S
C1704 C1705 1.400 . S
C1705 C1699 1.491 . S
C1705 C1704 1.400 . S
C1705 C1706 1.398 . S
C1706 H1694 0.950 . S
C1706 C1705 1.398 . S
C1706 C1707 1.391 . S
C1707 H1695 0.950 . S
C1707 C1703 1.393 . S
C1707 C1706 1.391 . S
H1708 C1716 0.950 . S
H1709 C1721 0.950 . S
H1710 C1718 0.950 . S
H1711 C1720 0.950 . S
H1712 C1722 0.950 . S
H1713 C1724 0.950 . S
H1714 C1726 0.950 . S
H1715 C1727 0.950 . S
C1716 H1708 0.950 . S
C1716 C1717 1.386 . S
C1716 C1718 1.391 . S
C1717 C1716 1.386 . S
C1717 C1721 1.393 . S
C1718 H1710 0.950 . S
C1718 C1716 1.391 . S
C1718 C1719 1.400 . S
C1719 C1718 1.400 . S
C1719 C1720 1.398 . S
C1719 C1725 1.491 . S
C1720 H1711 0.950 . S
C1720 C1719 1.398 . S
C1720 C1721 1.391 . S
C1721 H1709 0.950 . S
C1721 C1717 1.393 . S
C1721 C1720 1.391 . S
C1722 H1712 0.950 . S
C1722 C1723 1.386 . S
C1722 C1724 1.391 . S
C1723 C1722 1.386 . S
C1723 C1727 1.393 . S
C1724 H1713 0.950 . S
C1724 C1722 1.391 . S
C1724 C1725 1.400 . S
C1725 C1719 1.491 . S
C1725 C1724 1.400 . S
C1725 C1726 1.398 . S
C1726 H1714 0.950 . S
C1726 C1725 1.398 . S
C1726 C1727 1.391 . S
C1727 H1715 0.950 . S
C1727 C1723 1.393 . S
C1727 C1726 1.391 . S
H1728 C1736 0.950 . S
H1729 C1741 0.950 . S
H1730 C1738 0.950 . S
H1731 C1740 0.950 . S
H1732 C1742 0.950 . S
H1733 C1744 0.950 . S
H1734 C1746 0.950 . S
H1735 C1747 0.950 . S
C1736 H1728 0.950 . S
C1736 C1737 1.386 . S
C1736 C1738 1.391 . S
C1737 C1736 1.386 . S
C1737 C1741 1.393 . S
C1738 H1730 0.950 . S
C1738 C1736 1.391 . S
C1738 C1739 1.400 . S
C1739 C1738 1.400 . S
C1739 C1740 1.398 . S
C1739 C1745 1.491 . S
C1740 H1731 0.950 . S
C1740 C1739 1.398 . S
C1740 C1741 1.391 . S
C1741 H1729 0.950 . S
C1741 C1737 1.393 . S
C1741 C1740 1.391 . S
C1742 H1732 0.950 . S
C1742 C1743 1.386 . S
C1742 C1744 1.391 . S
C1743 C1742 1.386 . S
C1743 C1747 1.393 . S
C1744 H1733 0.950 . S
C1744 C1742 1.391 . S
C1744 C1745 1.400 . S
C1745 C1739 1.491 . S
C1745 C1744 1.400 . S
C1745 C1746 1.398 . S
C1746 H1734 0.950 . S
C1746 C1745 1.398 . S
C1746 C1747 1.391 . S
C1747 H1735 0.950 . S
C1747 C1743 1.393 . S
C1747 C1746 1.391 . S
H1748 C1756 0.950 . S
H1749 C1761 0.950 . S
H1750 C1758 0.950 . S
H1751 C1760 0.950 . S
H1752 C1762 0.950 . S
H1753 C1764 0.950 . S
H1754 C1766 0.950 . S
H1755 C1767 0.950 . S
C1756 H1748 0.950 . S
C1756 C1757 1.386 . S
C1756 C1758 1.391 . S
C1757 C1756 1.386 . S
C1757 C1761 1.393 . S
C1758 H1750 0.950 . S
C1758 C1756 1.391 . S
C1758 C1759 1.400 . S
C1759 C1758 1.400 . S
C1759 C1760 1.398 . S
C1759 C1765 1.491 . S
C1760 H1751 0.950 . S
C1760 C1759 1.398 . S
C1760 C1761 1.391 . S
C1761 H1749 0.950 . S
C1761 C1757 1.393 . S
C1761 C1760 1.391 . S
C1762 H1752 0.950 . S
C1762 C1763 1.386 . S
C1762 C1764 1.391 . S
C1763 C1762 1.386 . S
C1763 C1767 1.393 . S
C1764 H1753 0.950 . S
C1764 C1762 1.391 . S
C1764 C1765 1.400 . S
C1765 C1759 1.491 . S
C1765 C1764 1.400 . S
C1765 C1766 1.398 . S
C1766 H1754 0.950 . S
C1766 C1765 1.398 . S
C1766 C1767 1.391 . S
C1767 H1755 0.950 . S
C1767 C1763 1.393 . S
C1767 C1766 1.391 . S
H1768 C1776 0.950 . S
H1769 C1781 0.950 . S
H1770 C1778 0.950 . S
H1771 C1780 0.950 . S
H1772 C1782 0.950 . S
H1773 C1784 0.950 . S
H1774 C1786 0.950 . S
H1775 C1787 0.950 . S
C1776 H1768 0.950 . S
C1776 C1777 1.386 . S
C1776 C1778 1.391 . S
C1777 C1776 1.386 . S
C1777 C1781 1.393 . S
C1778 H1770 0.950 . S
C1778 C1776 1.391 . S
C1778 C1779 1.400 . S
C1779 C1778 1.400 . S
C1779 C1780 1.398 . S
C1779 C1785 1.491 . S
C1780 H1771 0.950 . S
C1780 C1779 1.398 . S
C1780 C1781 1.391 . S
C1781 H1769 0.950 . S
C1781 C1777 1.393 . S
C1781 C1780 1.391 . S
C1782 H1772 0.950 . S
C1782 C1783 1.386 . S
C1782 C1784 1.391 . S
C1783 C1782 1.386 . S
C1783 C1787 1.393 . S
C1784 H1773 0.950 . S
C1784 C1782 1.391 . S
C1784 C1785 1.400 . S
C1785 C1779 1.491 . S
C1785 C1784 1.400 . S
C1785 C1786 1.398 . S
C1786 H1774 0.950 . S
C1786 C1785 1.398 . S
C1786 C1787 1.391 . S
C1787 H1775 0.950 . S
C1787 C1783 1.393 . S
C1787 C1786 1.391 . S
H1788 C1796 0.950 . S
H1789 C1801 0.950 . S
H1790 C1798 0.950 . S
H1791 C1800 0.950 . S
H1792 C1802 0.950 . S
H1793 C1804 0.950 . S
H1794 C1806 0.950 . S
H1795 C1807 0.950 . S
C1796 H1788 0.950 . S
C1796 C1797 1.386 . S
C1796 C1798 1.391 . S
C1797 C1796 1.386 . S
C1797 C1801 1.393 . S
C1798 H1790 0.950 . S
C1798 C1796 1.391 . S
C1798 C1799 1.400 . S
C1799 C1798 1.400 . S
C1799 C1800 1.398 . S
C1799 C1805 1.491 . S
C1800 H1791 0.950 . S
C1800 C1799 1.398 . S
C1800 C1801 1.391 . S
C1801 H1789 0.950 . S
C1801 C1797 1.393 . S
C1801 C1800 1.391 . S
C1802 H1792 0.950 . S
C1802 C1803 1.386 . S
C1802 C1804 1.391 . S
C1803 C1802 1.386 . S
C1803 C1807 1.393 . S
C1804 H1793 0.950 . S
C1804 C1802 1.391 . S
C1804 C1805 1.400 . S
C1805 C1799 1.491 . S
C1805 C1804 1.400 . S
C1805 C1806 1.398 . S
C1806 H1794 0.950 . S
C1806 C1805 1.398 . S
C1806 C1807 1.391 . S
C1807 H1795 0.950 . S
C1807 C1803 1.393 . S
C1807 C1806 1.391 . S
H1808 C1816 0.950 . S
H1809 C1821 0.950 . S
H1810 C1818 0.950 . S
H1811 C1820 0.950 . S
H1812 C1822 0.950 . S
H1813 C1824 0.950 . S
H1814 C1826 0.950 . S
H1815 C1827 0.950 . S
C1816 H1808 0.950 . S
C1816 C1817 1.386 . S
C1816 C1818 1.391 . S
C1817 C1816 1.386 . S
C1817 C1821 1.393 . S
C1818 H1810 0.950 . S
C1818 C1816 1.391 . S
C1818 C1819 1.400 . S
C1819 C1818 1.400 . S
C1819 C1820 1.398 . S
C1819 C1825 1.491 . S
C1820 H1811 0.950 . S
C1820 C1819 1.398 . S
C1820 C1821 1.391 . S
C1821 H1809 0.950 . S
C1821 C1817 1.393 . S
C1821 C1820 1.391 . S
C1822 H1812 0.950 . S
C1822 C1823 1.386 . S
C1822 C1824 1.391 . S
C1823 C1822 1.386 . S
C1823 C1827 1.393 . S
C1824 H1813 0.950 . S
C1824 C1822 1.391 . S
C1824 C1825 1.400 . S
C1825 C1819 1.491 . S
C1825 C1824 1.400 . S
C1825 C1826 1.398 . S
C1826 H1814 0.950 . S
C1826 C1825 1.398 . S
C1826 C1827 1.391 . S
C1827 H1815 0.950 . S
C1827 C1823 1.393 . S
C1827 C1826 1.391 . S
H1828 C1836 0.950 . S
H1829 C1841 0.950 . S
H1830 C1838 0.950 . S
H1831 C1840 0.950 . S
H1832 C1842 0.950 . S
H1833 C1844 0.950 . S
H1834 C1846 0.950 . S
H1835 C1847 0.950 . S
C1836 H1828 0.950 . S
C1836 C1837 1.386 . S
C1836 C1838 1.391 . S
C1837 C1836 1.386 . S
C1837 C1841 1.393 . S
C1838 H1830 0.950 . S
C1838 C1836 1.391 . S
C1838 C1839 1.400 . S
C1839 C1838 1.400 . S
C1839 C1840 1.398 . S
C1839 C1845 1.491 . S
C1840 H1831 0.950 . S
C1840 C1839 1.398 . S
C1840 C1841 1.391 . S
C1841 H1829 0.950 . S
C1841 C1837 1.393 . S
C1841 C1840 1.391 . S
C1842 H1832 0.950 . S
C1842 C1843 1.386 . S
C1842 C1844 1.391 . S
C1843 C1842 1.386 . S
C1843 C1847 1.393 . S
C1844 H1833 0.950 . S
C1844 C1842 1.391 . S
C1844 C1845 1.400 . S
C1845 C1839 1.491 . S
C1845 C1844 1.400 . S
C1845 C1846 1.398 . S
C1846 H1834 0.950 . S
C1846 C1845 1.398 . S
C1846 C1847 1.391 . S
C1847 H1835 0.950 . S
C1847 C1843 1.393 . S
C1847 C1846 1.391 . S
H1848 C1856 0.950 . S
H1849 C1861 0.950 . S
H1850 C1858 0.950 . S
H1851 C1860 0.950 . S
H1852 C1862 0.950 . S
H1853 C1864 0.950 . S
H1854 C1866 0.950 . S
H1855 C1867 0.950 . S
C1856 H1848 0.950 . S
C1856 C1857 1.386 . S
C1856 C1858 1.391 . S
C1857 C1856 1.386 . S
C1857 C1861 1.393 . S
C1858 H1850 0.950 . S
C1858 C1856 1.391 . S
C1858 C1859 1.400 . S
C1859 C1858 1.400 . S
C1859 C1860 1.398 . S
C1859 C1865 1.491 . S
C1860 H1851 0.950 . S
C1860 C1859 1.398 . S
C1860 C1861 1.391 . S
C1861 H1849 0.950 . S
C1861 C1857 1.393 . S
C1861 C1860 1.391 . S
C1862 H1852 0.950 . S
C1862 C1863 1.386 . S
C1862 C1864 1.391 . S
C1863 C1862 1.386 . S
C1863 C1867 1.393 . S
C1864 H1853 0.950 . S
C1864 C1862 1.391 . S
C1864 C1865 1.400 . S
C1865 C1859 1.491 . S
C1865 C1864 1.400 . S
C1865 C1866 1.398 . S
C1866 H1854 0.950 . S
C1866 C1865 1.398 . S
C1866 C1867 1.391 . S
C1867 H1855 0.950 . S
C1867 C1863 1.393 . S
C1867 C1866 1.391 . S
H1868 C1876 0.950 . S
H1869 C1881 0.950 . S
H1870 C1878 0.950 . S
H1871 C1880 0.950 . S
H1872 C1882 0.950 . S
H1873 C1884 0.950 . S
H1874 C1886 0.950 . S
H1875 C1887 0.950 . S
C1876 H1868 0.950 . S
C1876 C1877 1.386 . S
C1876 C1878 1.391 . S
C1877 C1876 1.386 . S
C1877 C1881 1.393 . S
C1878 H1870 0.950 . S
C1878 C1876 1.391 . S
C1878 C1879 1.400 . S
C1879 C1878 1.400 . S
C1879 C1880 1.398 . S
C1879 C1885 1.491 . S
C1880 H1871 0.950 . S
C1880 C1879 1.398 . S
C1880 C1881 1.391 . S
C1881 H1869 0.950 . S
C1881 C1877 1.393 . S
C1881 C1880 1.391 . S
C1882 H1872 0.950 . S
C1882 C1883 1.386 . S
C1882 C1884 1.391 . S
C1883 C1882 1.386 . S
C1883 C1887 1.393 . S
C1884 H1873 0.950 . S
C1884 C1882 1.391 . S
C1884 C1885 1.400 . S
C1885 C1879 1.491 . S
C1885 C1884 1.400 . S
C1885 C1886 1.398 . S
C1886 H1874 0.950 . S
C1886 C1885 1.398 . S
C1886 C1887 1.391 . S
C1887 H1875 0.950 . S
C1887 C1883 1.393 . S
C1887 C1886 1.391 . S
H1888 C1896 0.950 . S
H1889 C1901 0.950 . S
H1890 C1898 0.950 . S
H1891 C1900 0.950 . S
H1892 C1902 0.950 . S
H1893 C1904 0.950 . S
H1894 C1906 0.950 . S
H1895 C1907 0.950 . S
C1896 H1888 0.950 . S
C1896 C1897 1.386 . S
C1896 C1898 1.391 . S
C1897 C1896 1.386 . S
C1897 C1901 1.393 . S
C1898 H1890 0.950 . S
C1898 C1896 1.391 . S
C1898 C1899 1.400 . S
C1899 C1898 1.400 . S
C1899 C1900 1.398 . S
C1899 C1905 1.491 . S
C1900 H1891 0.950 . S
C1900 C1899 1.398 . S
C1900 C1901 1.391 . S
C1901 H1889 0.950 . S
C1901 C1897 1.393 . S
C1901 C1900 1.391 . S
C1902 H1892 0.950 . S
C1902 C1903 1.386 . S
C1902 C1904 1.391 . S
C1903 C1902 1.386 . S
C1903 C1907 1.393 . S
C1904 H1893 0.950 . S
C1904 C1902 1.391 . S
C1904 C1905 1.400 . S
C1905 C1899 1.491 . S
C1905 C1904 1.400 . S
C1905 C1906 1.398 . S
C1906 H1894 0.950 . S
C1906 C1905 1.398 . S
C1906 C1907 1.391 . S
C1907 H1895 0.950 . S
C1907 C1903 1.393 . S
C1907 C1906 1.391 . S
H1908 C1916 0.950 . S
H1909 C1921 0.950 . S
H1910 C1918 0.950 . S
H1911 C1920 0.950 . S
H1912 C1922 0.950 . S
H1913 C1924 0.950 . S
H1914 C1926 0.950 . S
H1915 C1927 0.950 . S
C1916 H1908 0.950 . S
C1916 C1917 1.386 . S
C1916 C1918 1.391 . S
C1917 C1916 1.386 . S
C1917 C1921 1.393 . S
C1918 H1910 0.950 . S
C1918 C1916 1.391 . S
C1918 C1919 1.400 . S
C1919 C1918 1.400 . S
C1919 C1920 1.398 . S
C1919 C1925 1.491 . S
C1920 H1911 0.950 . S
C1920 C1919 1.398 . S
C1920 C1921 1.391 . S
C1921 H1909 0.950 . S
C1921 C1917 1.393 . S
C1921 C1920 1.391 . S
C1922 H1912 0.950 . S
C1922 C1923 1.386 . S
C1922 C1924 1.391 . S
C1923 C1922 1.386 . S
C1923 C1927 1.393 . S
C1924 H1913 0.950 . S
C1924 C1922 1.391 . S
C1924 C1925 1.400 . S
C1925 C1919 1.491 . S
C1925 C1924 1.400 . S
C1925 C1926 1.398 . S
C1926 H1914 0.950 . S
C1926 C1925 1.398 . S
C1926 C1927 1.391 . S
C1927 H1915 0.950 . S
C1927 C1923 1.393 . S
C1927 C1926 1.391 . S
H1928 C1936 0.950 . S
H1929 C1941 0.950 . S
H1930 C1938 0.950 . S
H1931 C1940 0.950 . S
H1932 C1942 0.950 . S
H1933 C1944 0.950 . S
H1934 C1946 0.950 . S
H1935 C1947 0.950 . S
C1936 H1928 0.950 . S
C1936 C1937 1.386 . S
C1936 C1938 1.391 . S
C1937 C1936 1.386 . S
C1937 C1941 1.393 . S
C1938 H1930 0.950 . S
C1938 C1936 1.391 . S
C1938 C1939 1.400 . S
C1939 C1938 1.400 . S
C1939 C1940 1.398 . S
C1939 C1945 1.491 . S
C1940 H1931 0.950 . S
C1940 C1939 1.398 . S
C1940 C1941 1.391 . S
C1941 H1929 0.950 . S
C1941 C1937 1.393 . S
C1941 C1940 1.391 . S
C1942 H1932 0.950 . S
C1942 C1943 1.386 . S
C1942 C1944 1.391 . S
C1943 C1942 1.386 . S
C1943 C1947 1.393 . S
C1944 H1933 0.950 . S
C1944 C1942 1.391 . S
C1944 C1945 1.400 . S
C1945 C1939 1.491 . S
C1945 C1944 1.400 . S
C1945 C1946 1.398 . S
C1946 H1934 0.950 . S
C1946 C1945 1.398 . S
C1946 C1947 1.391 . S
C1947 H1935 0.950 . S
C1947 C1943 1.393 . S
C1947 C1946 1.391 . S
H1948 C1956 0.950 . S
H1949 C1961 0.950 . S
H1950 C1958 0.950 . S
H1951 C1960 0.950 . S
H1952 C1962 0.950 . S
H1953 C1964 0.950 . S
H1954 C1966 0.950 . S
H1955 C1967 0.950 . S
C1956 H1948 0.950 . S
C1956 C1957 1.386 . S
C1956 C1958 1.391 . S
C1957 C1956 1.386 . S
C1957 C1961 1.393 . S
C1958 H1950 0.950 . S
C1958 C1956 1.391 . S
C1958 C1959 1.400 . S
C1959 C1958 1.400 . S
C1959 C1960 1.398 . S
C1959 C1965 1.491 . S
C1960 H1951 0.950 . S
C1960 C1959 1.398 . S
C1960 C1961 1.391 . S
C1961 H1949 0.950 . S
C1961 C1957 1.393 . S
C1961 C1960 1.391 . S
C1962 H1952 0.950 . S
C1962 C1963 1.386 . S
C1962 C1964 1.391 . S
C1963 C1962 1.386 . S
C1963 C1967 1.393 . S
C1964 H1953 0.950 . S
C1964 C1962 1.391 . S
C1964 C1965 1.400 . S
C1965 C1959 1.491 . S
C1965 C1964 1.400 . S
C1965 C1966 1.398 . S
C1966 H1954 0.950 . S
C1966 C1965 1.398 . S
C1966 C1967 1.391 . S
C1967 H1955 0.950 . S
C1967 C1963 1.393 . S
C1967 C1966 1.391 . S
H1968 C1976 0.950 . S
H1969 C1981 0.950 . S
H1970 C1978 0.950 . S
H1971 C1980 0.950 . S
H1972 C1982 0.950 . S
H1973 C1984 0.950 . S
H1974 C1986 0.950 . S
H1975 C1987 0.950 . S
C1976 H1968 0.950 . S
C1976 C1977 1.386 . S
C1976 C1978 1.391 . S
C1977 C1976 1.386 . S
C1977 C1981 1.393 . S
C1978 H1970 0.950 . S
C1978 C1976 1.391 . S
C1978 C1979 1.400 . S
C1979 C1978 1.400 . S
C1979 C1980 1.398 . S
C1979 C1985 1.491 . S
C1980 H1971 0.950 . S
C1980 C1979 1.398 . S
C1980 C1981 1.391 . S
C1981 H1969 0.950 . S
C1981 C1977 1.393 . S
C1981 C1980 1.391 . S
C1982 H1972 0.950 . S
C1982 C1983 1.386 . S
C1982 C1984 1.391 . S
C1983 C1982 1.386 . S
C1983 C1987 1.393 . S
C1984 H1973 0.950 . S
C1984 C1982 1.391 . S
C1984 C1985 1.400 . S
C1985 C1979 1.491 . S
C1985 C1984 1.400 . S
C1985 C1986 1.398 . S
C1986 H1974 0.950 . S
C1986 C1985 1.398 . S
C1986 C1987 1.391 . S
C1987 H1975 0.950 . S
C1987 C1983 1.393 . S
C1987 C1986 1.391 . S
H1988 C1996 0.950 . S
H1989 C2001 0.950 . S
H1990 C1998 0.950 . S
H1991 C2000 0.950 . S
H1992 C2002 0.950 . S
H1993 C2004 0.950 . S
H1994 C2006 0.950 . S
H1995 C2007 0.950 . S
C1996 H1988 0.950 . S
C1996 C1997 1.386 . S
C1996 C1998 1.391 . S
C1997 C1996 1.386 . S
C1997 C2001 1.393 . S
C1998 H1990 0.950 . S
C1998 C1996 1.391 . S
C1998 C1999 1.400 . S
C1999 C1998 1.400 . S
C1999 C2000 1.398 . S
C1999 C2005 1.491 . S
C2000 H1991 0.950 . S
C2000 C1999 1.398 . S
C2000 C2001 1.391 . S
C2001 H1989 0.950 . S
C2001 C1997 1.393 . S
C2001 C2000 1.391 . S
C2002 H1992 0.950 . S
C2002 C2003 1.386 . S
C2002 C2004 1.391 . S
C2003 C2002 1.386 . S
C2003 C2007 1.393 . S
C2004 H1993 0.950 . S
C2004 C2002 1.391 . S
C2004 C2005 1.400 . S
C2005 C1999 1.491 . S
C2005 C2004 1.400 . S
C2005 C2006 1.398 . S
C2006 H1994 0.950 . S
C2006 C2005 1.398 . S
C2006 C2007 1.391 . S
C2007 H1995 0.950 . S
C2007 C2003 1.393 . S
C2007 C2006 1.391 . S
H2008 C2016 0.950 . S
H2009 C2021 0.950 . S
H2010 C2018 0.950 . S
H2011 C2020 0.950 . S
H2012 C2022 0.950 . S
H2013 C2024 0.950 . S
H2014 C2026 0.950 . S
H2015 C2027 0.950 . S
C2016 H2008 0.950 . S
C2016 C2017 1.386 . S
C2016 C2018 1.391 . S
C2017 C2016 1.386 . S
C2017 C2021 1.393 . S
C2018 H2010 0.950 . S
C2018 C2016 1.391 . S
C2018 C2019 1.400 . S
C2019 C2018 1.400 . S
C2019 C2020 1.398 . S
C2019 C2025 1.491 . S
C2020 H2011 0.950 . S
C2020 C2019 1.398 . S
C2020 C2021 1.391 . S
C2021 H2009 0.950 . S
C2021 C2017 1.393 . S
C2021 C2020 1.391 . S
C2022 H2012 0.950 . S
C2022 C2023 1.386 . S
C2022 C2024 1.391 . S
C2023 C2022 1.386 . S
C2023 C2027 1.393 . S
C2024 H2013 0.950 . S
C2024 C2022 1.391 . S
C2024 C2025 1.400 . S
C2025 C2019 1.491 . S
C2025 C2024 1.400 . S
C2025 C2026 1.398 . S
C2026 H2014 0.950 . S
C2026 C2025 1.398 . S
C2026 C2027 1.391 . S
C2027 H2015 0.950 . S
C2027 C2023 1.393 . S
C2027 C2026 1.391 . S
H2028 C2036 0.950 . S
H2029 C2041 0.950 . S
H2030 C2038 0.950 . S
H2031 C2040 0.950 . S
H2032 C2042 0.950 . S
H2033 C2044 0.950 . S
H2034 C2046 0.950 . S
H2035 C2047 0.950 . S
C2036 H2028 0.950 . S
C2036 C2037 1.386 . S
C2036 C2038 1.391 . S
C2037 C2036 1.386 . S
C2037 C2041 1.393 . S
C2038 H2030 0.950 . S
C2038 C2036 1.391 . S
C2038 C2039 1.400 . S
C2039 C2038 1.400 . S
C2039 C2040 1.398 . S
C2039 C2045 1.491 . S
C2040 H2031 0.950 . S
C2040 C2039 1.398 . S
C2040 C2041 1.391 . S
C2041 H2029 0.950 . S
C2041 C2037 1.393 . S
C2041 C2040 1.391 . S
C2042 H2032 0.950 . S
C2042 C2043 1.386 . S
C2042 C2044 1.391 . S
C2043 C2042 1.386 . S
C2043 C2047 1.393 . S
C2044 H2033 0.950 . S
C2044 C2042 1.391 . S
C2044 C2045 1.400 . S
C2045 C2039 1.491 . S
C2045 C2044 1.400 . S
C2045 C2046 1.398 . S
C2046 H2034 0.950 . S
C2046 C2045 1.398 . S
C2046 C2047 1.391 . S
C2047 H2035 0.950 . S
C2047 C2043 1.393 . S
C2047 C2046 1.391 . S
H2048 C2056 0.950 . S
H2049 C2061 0.950 . S
H2050 C2058 0.950 . S
H2051 C2060 0.950 . S
H2052 C2062 0.950 . S
H2053 C2064 0.950 . S
H2054 C2066 0.950 . S
H2055 C2067 0.950 . S
C2056 H2048 0.950 . S
C2056 C2057 1.386 . S
C2056 C2058 1.391 . S
C2057 C2056 1.386 . S
C2057 C2061 1.393 . S
C2058 H2050 0.950 . S
C2058 C2056 1.391 . S
C2058 C2059 1.400 . S
C2059 C2058 1.400 . S
C2059 C2060 1.398 . S
C2059 C2065 1.491 . S
C2060 H2051 0.950 . S
C2060 C2059 1.398 . S
C2060 C2061 1.391 . S
C2061 H2049 0.950 . S
C2061 C2057 1.393 . S
C2061 C2060 1.391 . S
C2062 H2052 0.950 . S
C2062 C2063 1.386 . S
C2062 C2064 1.391 . S
C2063 C2062 1.386 . S
C2063 C2067 1.393 . S
C2064 H2053 0.950 . S
C2064 C2062 1.391 . S
C2064 C2065 1.400 . S
C2065 C2059 1.491 . S
C2065 C2064 1.400 . S
C2065 C2066 1.398 . S
C2066 H2054 0.950 . S
C2066 C2065 1.398 . S
C2066 C2067 1.391 . S
C2067 H2055 0.950 . S
C2067 C2063 1.393 . S
C2067 C2066 1.391 . S
H2068 C2076 0.950 . S
H2069 C2081 0.950 . S
H2070 C2078 0.950 . S
H2071 C2080 0.950 . S
H2072 C2082 0.950 . S
H2073 C2084 0.950 . S
H2074 C2086 0.950 . S
H2075 C2087 0.950 . S
C2076 H2068 0.950 . S
C2076 C2077 1.386 . S
C2076 C2078 1.391 . S
C2077 C2076 1.386 . S
C2077 C2081 1.393 . S
C2078 H2070 0.950 . S
C2078 C2076 1.391 . S
C2078 C2079 1.400 . S
C2079 C2078 1.400 . S
C2079 C2080 1.398 . S
C2079 C2085 1.491 . S
C2080 H2071 0.950 . S
C2080 C2079 1.398 . S
C2080 C2081 1.391 . S
C2081 H2069 0.950 . S
C2081 C2077 1.393 . S
C2081 C2080 1.391 . S
C2082 H2072 0.950 . S
C2082 C2083 1.386 . S
C2082 C2084 1.391 . S
C2083 C2082 1.386 . S
C2083 C2087 1.393 . S
C2084 H2073 0.950 . S
C2084 C2082 1.391 . S
C2084 C2085 1.400 . S
C2085 C2079 1.491 . S
C2085 C2084 1.400 . S
C2085 C2086 1.398 . S
C2086 H2074 0.950 . S
C2086 C2085 1.398 . S
C2086 C2087 1.391 . S
C2087 H2075 0.950 . S
C2087 C2083 1.393 . S
C2087 C2086 1.391 . S
H2088 C2096 0.950 . S
H2089 C2101 0.950 . S
H2090 C2098 0.950 . S
H2091 C2100 0.950 . S
H2092 C2102 0.950 . S
H2093 C2104 0.950 . S
H2094 C2106 0.950 . S
H2095 C2107 0.950 . S
C2096 H2088 0.950 . S
C2096 C2097 1.386 . S
C2096 C2098 1.391 . S
C2097 C2096 1.386 . S
C2097 C2101 1.393 . S
C2098 H2090 0.950 . S
C2098 C2096 1.391 . S
C2098 C2099 1.400 . S
C2099 C2098 1.400 . S
C2099 C2100 1.398 . S
C2099 C2105 1.491 . S
C2100 H2091 0.950 . S
C2100 C2099 1.398 . S
C2100 C2101 1.391 . S
C2101 H2089 0.950 . S
C2101 C2097 1.393 . S
C2101 C2100 1.391 . S
C2102 H2092 0.950 . S
C2102 C2103 1.386 . S
C2102 C2104 1.391 . S
C2103 C2102 1.386 . S
C2103 C2107 1.393 . S
C2104 H2093 0.950 . S
C2104 C2102 1.391 . S
C2104 C2105 1.400 . S
C2105 C2099 1.491 . S
C2105 C2104 1.400 . S
C2105 C2106 1.398 . S
C2106 H2094 0.950 . S
C2106 C2105 1.398 . S
C2106 C2107 1.391 . S
C2107 H2095 0.950 . S
C2107 C2103 1.393 . S
C2107 C2106 1.391 . S
H2108 C2116 0.950 . S
H2109 C2121 0.950 . S
H2110 C2118 0.950 . S
H2111 C2120 0.950 . S
H2112 C2122 0.950 . S
H2113 C2124 0.950 . S
H2114 C2126 0.950 . S
H2115 C2127 0.950 . S
C2116 H2108 0.950 . S
C2116 C2117 1.386 . S
C2116 C2118 1.391 . S
C2117 C2116 1.386 . S
C2117 C2121 1.393 . S
C2118 H2110 0.950 . S
C2118 C2116 1.391 . S
C2118 C2119 1.400 . S
C2119 C2118 1.400 . S
C2119 C2120 1.398 . S
C2119 C2125 1.491 . S
C2120 H2111 0.950 . S
C2120 C2119 1.398 . S
C2120 C2121 1.391 . S
C2121 H2109 0.950 . S
C2121 C2117 1.393 . S
C2121 C2120 1.391 . S
C2122 H2112 0.950 . S
C2122 C2123 1.386 . S
C2122 C2124 1.391 . S
C2123 C2122 1.386 . S
C2123 C2127 1.393 . S
C2124 H2113 0.950 . S
C2124 C2122 1.391 . S
C2124 C2125 1.400 . S
C2125 C2119 1.491 . S
C2125 C2124 1.400 . S
C2125 C2126 1.398 . S
C2126 H2114 0.950 . S
C2126 C2125 1.398 . S
C2126 C2127 1.391 . S
C2127 H2115 0.950 . S
C2127 C2123 1.393 . S
C2127 C2126 1.391 . S
H2128 C2136 0.950 . S
H2129 C2141 0.950 . S
H2130 C2138 0.950 . S
H2131 C2140 0.950 . S
H2132 C2142 0.950 . S
H2133 C2144 0.950 . S
H2134 C2146 0.950 . S
H2135 C2147 0.950 . S
C2136 H2128 0.950 . S
C2136 C2137 1.386 . S
C2136 C2138 1.391 . S
C2137 C2136 1.386 . S
C2137 C2141 1.393 . S
C2138 H2130 0.950 . S
C2138 C2136 1.391 . S
C2138 C2139 1.400 . S
C2139 C2138 1.400 . S
C2139 C2140 1.398 . S
C2139 C2145 1.491 . S
C2140 H2131 0.950 . S
C2140 C2139 1.398 . S
C2140 C2141 1.391 . S
C2141 H2129 0.950 . S
C2141 C2137 1.393 . S
C2141 C2140 1.391 . S
C2142 H2132 0.950 . S
C2142 C2143 1.386 . S
C2142 C2144 1.391 . S
C2143 C2142 1.386 . S
C2143 C2147 1.393 . S
C2144 H2133 0.950 . S
C2144 C2142 1.391 . S
C2144 C2145 1.400 . S
C2145 C2139 1.491 . S
C2145 C2144 1.400 . S
C2145 C2146 1.398 . S
C2146 H2134 0.950 . S
C2146 C2145 1.398 . S
C2146 C2147 1.391 . S
C2147 H2135 0.950 . S
C2147 C2143 1.393 . S
C2147 C2146 1.391 . S
H2148 C2156 0.950 . S
H2149 C2161 0.950 . S
H2150 C2158 0.950 . S
H2151 C2160 0.950 1_554 S
H2152 C2162 0.950 . S
H2153 C2164 0.950 . S
H2154 C2166 0.950 . S
H2155 C2167 0.950 . S
C2156 H2148 0.950 . S
C2156 C2157 1.386 . S
C2156 C2158 1.391 . S
C2157 C2156 1.386 . S
C2157 C2161 1.393 1_556 S
C2158 H2150 0.950 . S
C2158 C2156 1.391 . S
C2158 C2159 1.400 . S
C2159 C2158 1.400 . S
C2159 C2160 1.398 . S
C2159 C2165 1.491 . S
C2160 H2151 0.950 1_556 S
C2160 C2159 1.398 . S
C2160 C2161 1.391 1_556 S
C2161 H2149 0.950 . S
C2161 C2157 1.393 1_554 S
C2161 C2160 1.391 1_554 S
C2162 H2152 0.950 . S
C2162 C2163 1.386 . S
C2162 C2164 1.391 . S
C2163 C2162 1.386 . S
C2163 C2167 1.393 . S
C2164 H2153 0.950 . S
C2164 C2162 1.391 . S
C2164 C2165 1.400 . S
C2165 C2159 1.491 . S
C2165 C2164 1.400 . S
C2165 C2166 1.398 . S
C2166 H2154 0.950 . S
C2166 C2165 1.398 . S
C2166 C2167 1.391 . S
C2167 H2155 0.950 . S
C2167 C2163 1.393 . S
C2167 C2166 1.391 . S
H2168 C2176 0.950 . S
H2169 C2181 0.950 . S
H2170 C2178 0.950 1_554 S
H2171 C2180 0.950 . S
H2172 C2182 0.950 . S
H2173 C2184 0.950 . S
H2174 C2186 0.950 . S
H2175 C2187 0.950 . S
C2176 H2168 0.950 . S
C2176 C2177 1.386 1_554 S
C2176 C2178 1.391 1_554 S
C2177 C2176 1.386 1_556 S
C2177 C2181 1.393 . S
C2178 H2170 0.950 1_556 S
C2178 C2176 1.391 1_556 S
C2178 C2179 1.400 . S
C2179 C2178 1.400 . S
C2179 C2180 1.398 . S
C2179 C2185 1.491 . S
C2180 H2171 0.950 . S
C2180 C2179 1.398 . S
C2180 C2181 1.391 . S
C2181 H2169 0.950 . S
C2181 C2177 1.393 . S
C2181 C2180 1.391 . S
C2182 H2172 0.950 . S
C2182 C2183 1.386 . S
C2182 C2184 1.391 . S
C2183 C2182 1.386 . S
C2183 C2187 1.393 . S
C2184 H2173 0.950 . S
C2184 C2182 1.391 . S
C2184 C2185 1.400 . S
C2185 C2179 1.491 . S
C2185 C2184 1.400 . S
C2185 C2186 1.398 . S
C2186 H2174 0.950 . S
C2186 C2185 1.398 . S
C2186 C2187 1.391 . S
C2187 H2175 0.950 . S
C2187 C2183 1.393 . S
C2187 C2186 1.391 . S
H2188 C2196 0.950 . S
H2189 C2201 0.950 . S
H2190 C2198 0.950 . S
H2191 C2200 0.950 . S
H2192 C2202 0.950 . S
H2193 C2204 0.950 . S
H2194 C2206 0.950 . S
H2195 C2207 0.950 . S
C2196 H2188 0.950 . S
C2196 C2197 1.386 . S
C2196 C2198 1.391 . S
C2197 C2196 1.386 . S
C2197 C2201 1.393 . S
C2198 H2190 0.950 . S
C2198 C2196 1.391 . S
C2198 C2199 1.400 . S
C2199 C2198 1.400 . S
C2199 C2200 1.398 . S
C2199 C2205 1.491 . S
C2200 H2191 0.950 . S
C2200 C2199 1.398 . S
C2200 C2201 1.391 . S
C2201 H2189 0.950 . S
C2201 C2197 1.393 . S
C2201 C2200 1.391 . S
C2202 H2192 0.950 . S
C2202 C2203 1.386 . S
C2202 C2204 1.391 . S
C2203 C2202 1.386 . S
C2203 C2207 1.393 . S
C2204 H2193 0.950 . S
C2204 C2202 1.391 . S
C2204 C2205 1.400 . S
C2205 C2199 1.491 . S
C2205 C2204 1.400 . S
C2205 C2206 1.398 . S
C2206 H2194 0.950 . S
C2206 C2205 1.398 . S
C2206 C2207 1.391 . S
C2207 H2195 0.950 . S
C2207 C2203 1.393 . S
C2207 C2206 1.391 . S
H2208 C2216 0.950 . S
H2209 C2221 0.950 1_554 S
H2210 C2218 0.950 . S
H2211 C2220 0.950 . S
H2212 C2222 0.950 . S
H2213 C2224 0.950 . S
H2214 C2226 0.950 . S
H2215 C2227 0.950 . S
C2216 H2208 0.950 . S
C2216 C2217 1.386 . S
C2216 C2218 1.391 . S
C2217 C2216 1.386 . S
C2217 C2221 1.393 . S
C2218 H2210 0.950 . S
C2218 C2216 1.391 . S
C2218 C2219 1.400 . S
C2219 C2218 1.400 . S
C2219 C2220 1.398 . S
C2219 C2225 1.491 . S
C2220 H2211 0.950 . S
C2220 C2219 1.398 . S
C2220 C2221 1.391 . S
C2221 H2209 0.950 1_556 S
C2221 C2217 1.393 . S
C2221 C2220 1.391 . S
C2222 H2212 0.950 . S
C2222 C2223 1.386 . S
C2222 C2224 1.391 . S
C2223 C2222 1.386 . S
C2223 C2227 1.393 . S
C2224 H2213 0.950 . S
C2224 C2222 1.391 . S
C2224 C2225 1.400 . S
C2225 C2219 1.491 . S
C2225 C2224 1.400 . S
C2225 C2226 1.398 . S
C2226 H2214 0.950 . S
C2226 C2225 1.398 . S
C2226 C2227 1.391 . S
C2227 H2215 0.950 . S
C2227 C2223 1.393 . S
C2227 C2226 1.391 . S
H2228 C2236 0.950 . S
H2229 C2241 0.950 1_554 S
H2230 C2238 0.950 . S
H2231 C2240 0.950 . S
H2232 C2242 0.950 . S
H2233 C2244 0.950 . S
H2234 C2246 0.950 . S
H2235 C2247 0.950 . S
C2236 H2228 0.950 . S
C2236 C2237 1.386 . S
C2236 C2238 1.391 . S
C2237 C2236 1.386 . S
C2237 C2241 1.393 . S
C2238 H2230 0.950 . S
C2238 C2236 1.391 . S
C2238 C2239 1.400 . S
C2239 C2238 1.400 . S
C2239 C2240 1.398 . S
C2239 C2245 1.491 . S
C2240 H2231 0.950 . S
C2240 C2239 1.398 . S
C2240 C2241 1.391 . S
C2241 H2229 0.950 1_556 S
C2241 C2237 1.393 . S
C2241 C2240 1.391 . S
C2242 H2232 0.950 . S
C2242 C2243 1.386 . S
C2242 C2244 1.391 . S
C2243 C2242 1.386 . S
C2243 C2247 1.393 . S
C2244 H2233 0.950 . S
C2244 C2242 1.391 . S
C2244 C2245 1.400 . S
C2245 C2239 1.491 . S
C2245 C2244 1.400 . S
C2245 C2246 1.398 . S
C2246 H2234 0.950 . S
C2246 C2245 1.398 . S
C2246 C2247 1.391 . S
C2247 H2235 0.950 . S
C2247 C2243 1.393 . S
C2247 C2246 1.391 . S
H2248 C2256 0.950 . S
H2249 C2261 0.915 1_554 S
H2250 C2258 0.950 . S
H2251 C2260 0.950 . S
H2252 C2262 0.950 . S
H2253 C2264 0.950 . S
H2254 C2266 0.950 . S
H2255 C2267 0.950 . S
C2256 H2248 0.950 . S
C2256 C2257 1.386 . S
C2256 C2258 1.391 . S
C2257 C2256 1.386 . S
C2257 C2261 1.411 . S
C2258 H2250 0.950 . S
C2258 C2256 1.391 . S
C2258 C2259 1.400 . S
C2259 C2258 1.400 . S
C2259 C2260 1.398 . S
C2259 C2265 1.491 . S
C2260 H2251 0.950 . S
C2260 C2259 1.398 . S
C2260 C2261 1.408 . S
C2261 H2249 0.915 1_556 S
C2261 C2257 1.411 . S
C2261 C2260 1.408 . S
C2262 H2252 0.950 . S
C2262 C2263 1.386 . S
C2262 C2264 1.391 . S
C2263 C2262 1.386 . S
C2263 C2267 1.393 . S
C2264 H2253 0.950 . S
C2264 C2262 1.391 . S
C2264 C2265 1.400 . S
C2265 C2259 1.491 . S
C2265 C2264 1.400 . S
C2265 C2266 1.398 . S
C2266 H2254 0.950 . S
C2266 C2265 1.398 . S
C2266 C2267 1.391 . S
C2267 H2255 0.950 . S
C2267 C2263 1.393 . S
C2267 C2266 1.391 . S
H2268 C2276 0.950 . S
H2269 C2281 0.950 . S
H2270 C2278 0.950 . S
H2271 C2280 0.950 . S
H2272 C2282 0.950 . S
H2273 C2284 0.950 . S
H2274 C2286 0.950 . S
H2275 C2287 0.950 . S
C2276 H2268 0.950 . S
C2276 C2277 1.386 . S
C2276 C2278 1.391 . S
C2277 C2276 1.386 . S
C2277 C2281 1.393 . S
C2278 H2270 0.950 . S
C2278 C2276 1.391 . S
C2278 C2279 1.400 . S
C2279 C2278 1.400 . S
C2279 C2280 1.398 . S
C2279 C2285 1.491 . S
C2280 H2271 0.950 . S
C2280 C2279 1.398 . S
C2280 C2281 1.391 . S
C2281 H2269 0.950 . S
C2281 C2277 1.393 . S
C2281 C2280 1.391 . S
C2282 H2272 0.950 . S
C2282 C2283 1.386 . S
C2282 C2284 1.391 . S
C2283 C2282 1.386 . S
C2283 C2287 1.393 . S
C2284 H2273 0.950 . S
C2284 C2282 1.391 . S
C2284 C2285 1.400 . S
C2285 C2279 1.491 . S
C2285 C2284 1.400 . S
C2285 C2286 1.398 . S
C2286 H2274 0.950 . S
C2286 C2285 1.398 . S
C2286 C2287 1.391 . S
C2287 H2275 0.950 . S
C2287 C2283 1.393 . S
C2287 C2286 1.391 . S
H2288 C2296 0.950 . S
H2289 C2301 0.950 . S
H2290 C2298 0.950 . S
H2291 C2300 0.950 . S
H2292 C2302 0.950 . S
H2293 C2304 0.950 . S
H2294 C2306 0.950 . S
H2295 C2307 0.950 . S
C2296 H2288 0.950 . S
C2296 C2297 1.386 . S
C2296 C2298 1.391 . S
C2297 C2296 1.386 . S
C2297 C2301 1.393 . S
C2298 H2290 0.950 . S
C2298 C2296 1.391 . S
C2298 C2299 1.400 . S
C2299 C2298 1.400 . S
C2299 C2300 1.398 . S
C2299 C2305 1.491 . S
C2300 H2291 0.950 . S
C2300 C2299 1.398 . S
C2300 C2301 1.391 . S
C2301 H2289 0.950 . S
C2301 C2297 1.393 . S
C2301 C2300 1.391 . S
C2302 H2292 0.950 . S
C2302 C2303 1.386 . S
C2302 C2304 1.391 . S
C2303 C2302 1.386 . S
C2303 C2307 1.393 . S
C2304 H2293 0.950 . S
C2304 C2302 1.391 . S
C2304 C2305 1.400 . S
C2305 C2299 1.491 . S
C2305 C2304 1.400 . S
C2305 C2306 1.398 . S
C2306 H2294 0.950 . S
C2306 C2305 1.398 . S
C2306 C2307 1.391 . S
C2307 H2295 0.950 . S
C2307 C2303 1.393 . S
C2307 C2306 1.391 . S
H2308 C2316 0.950 . S
H2309 C2321 0.950 . S
H2310 C2318 0.950 . S
H2311 C2320 0.950 . S
H2312 C2322 0.950 . S
H2313 C2324 0.950 . S
H2314 C2326 0.950 . S
H2315 C2327 0.950 . S
C2316 H2308 0.950 . S
C2316 C2317 1.386 . S
C2316 C2318 1.391 . S
C2317 C2316 1.386 . S
C2317 C2321 1.393 . S
C2318 H2310 0.950 . S
C2318 C2316 1.391 . S
C2318 C2319 1.400 . S
C2319 C2318 1.400 . S
C2319 C2320 1.398 . S
C2319 C2325 1.491 . S
C2320 H2311 0.950 . S
C2320 C2319 1.398 . S
C2320 C2321 1.391 . S
C2321 H2309 0.950 . S
C2321 C2317 1.393 . S
C2321 C2320 1.391 . S
C2322 H2312 0.950 . S
C2322 C2323 1.386 . S
C2322 C2324 1.391 . S
C2323 C2322 1.386 . S
C2323 C2327 1.393 . S
C2324 H2313 0.950 . S
C2324 C2322 1.391 . S
C2324 C2325 1.400 . S
C2325 C2319 1.491 . S
C2325 C2324 1.400 . S
C2325 C2326 1.398 . S
C2326 H2314 0.950 . S
C2326 C2325 1.398 . S
C2326 C2327 1.391 . S
C2327 H2315 0.950 . S
C2327 C2323 1.393 . S
C2327 C2326 1.391 . S
H2328 C2336 0.950 . S
H2329 C2341 0.950 . S
H2330 C2338 0.950 . S
H2331 C2340 0.950 . S
H2332 C2342 0.950 . S
H2333 C2344 0.950 . S
H2334 C2346 0.950 . S
H2335 C2347 0.950 . S
C2336 H2328 0.950 . S
C2336 C2337 1.386 . S
C2336 C2338 1.391 . S
C2337 C2336 1.386 . S
C2337 C2341 1.393 . S
C2338 H2330 0.950 . S
C2338 C2336 1.391 . S
C2338 C2339 1.400 . S
C2339 C2338 1.400 . S
C2339 C2340 1.398 . S
C2339 C2345 1.491 . S
C2340 H2331 0.950 . S
C2340 C2339 1.398 . S
C2340 C2341 1.391 . S
C2341 H2329 0.950 . S
C2341 C2337 1.393 . S
C2341 C2340 1.391 . S
C2342 H2332 0.950 . S
C2342 C2343 1.386 . S
C2342 C2344 1.391 . S
C2343 C2342 1.386 . S
C2343 C2347 1.393 . S
C2344 H2333 0.950 . S
C2344 C2342 1.391 . S
C2344 C2345 1.400 . S
C2345 C2339 1.491 . S
C2345 C2344 1.400 . S
C2345 C2346 1.398 . S
C2346 H2334 0.950 . S
C2346 C2345 1.398 . S
C2346 C2347 1.391 . S
C2347 H2335 0.950 . S
C2347 C2343 1.393 . S
C2347 C2346 1.391 . S
H2348 C2356 0.950 . S
H2349 C2361 0.950 . S
H2350 C2358 0.950 . S
H2351 C2360 0.950 . S
H2352 C2362 0.950 . S
H2353 C2364 0.950 . S
H2354 C2366 0.950 . S
H2355 C2367 0.950 . S
C2356 H2348 0.950 . S
C2356 C2357 1.386 . S
C2356 C2358 1.391 . S
C2357 C2356 1.386 . S
C2357 C2361 1.393 . S
C2358 H2350 0.950 . S
C2358 C2356 1.391 . S
C2358 C2359 1.400 . S
C2359 C2358 1.400 . S
C2359 C2360 1.398 . S
C2359 C2365 1.491 . S
C2360 H2351 0.950 . S
C2360 C2359 1.398 . S
C2360 C2361 1.391 . S
C2361 H2349 0.950 . S
C2361 C2357 1.393 . S
C2361 C2360 1.391 . S
C2362 H2352 0.950 . S
C2362 C2363 1.386 . S
C2362 C2364 1.391 . S
C2363 C2362 1.386 . S
C2363 C2367 1.393 . S
C2364 H2353 0.950 . S
C2364 C2362 1.391 . S
C2364 C2365 1.400 . S
C2365 C2359 1.491 . S
C2365 C2364 1.400 . S
C2365 C2366 1.398 . S
C2366 H2354 0.950 . S
C2366 C2365 1.398 . S
C2366 C2367 1.391 . S
C2367 H2355 0.950 . S
C2367 C2363 1.393 . S
C2367 C2366 1.391 . S
H2368 C2376 0.950 . S
H2369 C2381 0.950 . S
H2370 C2378 0.950 . S
H2371 C2380 0.950 . S
H2372 C2382 0.950 . S
H2373 C2384 0.950 . S
H2374 C2386 0.950 . S
H2375 C2387 0.950 . S
C2376 H2368 0.950 . S
C2376 C2377 1.386 . S
C2376 C2378 1.391 . S
C2377 C2376 1.386 . S
C2377 C2381 1.393 . S
C2378 H2370 0.950 . S
C2378 C2376 1.391 . S
C2378 C2379 1.400 . S
C2379 C2378 1.400 . S
C2379 C2380 1.398 . S
C2379 C2385 1.491 . S
C2380 H2371 0.950 . S
C2380 C2379 1.398 . S
C2380 C2381 1.391 . S
C2381 H2369 0.950 . S
C2381 C2377 1.393 . S
C2381 C2380 1.391 . S
C2382 H2372 0.950 . S
C2382 C2383 1.386 . S
C2382 C2384 1.391 . S
C2383 C2382 1.386 . S
C2383 C2387 1.393 . S
C2384 H2373 0.950 . S
C2384 C2382 1.391 . S
C2384 C2385 1.400 . S
C2385 C2379 1.491 . S
C2385 C2384 1.400 . S
C2385 C2386 1.398 . S
C2386 H2374 0.950 . S
C2386 C2385 1.398 . S
C2386 C2387 1.391 . S
C2387 H2375 0.950 . S
C2387 C2383 1.393 . S
C2387 C2386 1.391 . S
H2388 C2396 0.950 . S
H2389 C2401 0.950 . S
H2390 C2398 0.950 . S
H2391 C2400 0.950 . S
H2392 C2402 0.950 . S
H2393 C2404 0.950 . S
H2394 C2406 0.950 . S
H2395 C2407 0.950 . S
C2396 H2388 0.950 . S
C2396 C2397 1.386 . S
C2396 C2398 1.391 . S
C2397 C2396 1.386 . S
C2397 C2401 1.393 . S
C2398 H2390 0.950 . S
C2398 C2396 1.391 . S
C2398 C2399 1.400 . S
C2399 C2398 1.400 . S
C2399 C2400 1.398 . S
C2399 C2405 1.491 . S
C2400 H2391 0.950 . S
C2400 C2399 1.398 . S
C2400 C2401 1.391 . S
C2401 H2389 0.950 . S
C2401 C2397 1.393 . S
C2401 C2400 1.391 . S
C2402 H2392 0.950 . S
C2402 C2403 1.386 . S
C2402 C2404 1.391 . S
C2403 C2402 1.386 . S
C2403 C2407 1.393 . S
C2404 H2393 0.950 . S
C2404 C2402 1.391 . S
C2404 C2405 1.400 . S
C2405 C2399 1.491 . S
C2405 C2404 1.400 . S
C2405 C2406 1.398 . S
C2406 H2394 0.950 . S
C2406 C2405 1.398 . S
C2406 C2407 1.391 . S
C2407 H2395 0.950 . S
C2407 C2403 1.393 . S
C2407 C2406 1.391 . S
H2408 C2416 0.950 . S
H2409 C2421 0.950 . S
H2410 C2418 0.950 . S
H2411 C2420 0.950 . S
H2412 C2422 0.950 . S
H2413 C2424 0.950 . S
H2414 C2426 0.950 . S
H2415 C2427 0.950 . S
C2416 H2408 0.950 . S
C2416 C2417 1.386 . S
C2416 C2418 1.391 . S
C2417 C2416 1.386 . S
C2417 C2421 1.393 . S
C2418 H2410 0.950 . S
C2418 C2416 1.391 . S
C2418 C2419 1.400 . S
C2419 C2418 1.400 . S
C2419 C2420 1.398 . S
C2419 C2425 1.491 . S
C2420 H2411 0.950 . S
C2420 C2419 1.398 . S
C2420 C2421 1.391 . S
C2421 H2409 0.950 . S
C2421 C2417 1.393 . S
C2421 C2420 1.391 . S
C2422 H2412 0.950 . S
C2422 C2423 1.386 . S
C2422 C2424 1.391 . S
C2423 C2422 1.386 . S
C2423 C2427 1.393 . S
C2424 H2413 0.950 . S
C2424 C2422 1.391 . S
C2424 C2425 1.400 . S
C2425 C2419 1.491 . S
C2425 C2424 1.400 . S
C2425 C2426 1.398 . S
C2426 H2414 0.950 . S
C2426 C2425 1.398 . S
C2426 C2427 1.391 . S
C2427 H2415 0.950 . S
C2427 C2423 1.393 . S
C2427 C2426 1.391 . S
H2428 C2436 0.950 1_545 S
H2429 C2441 0.950 . S
H2430 C2438 0.950 1_545 S
H2431 C2440 0.950 . S
H2432 C2442 0.950 . S
H2433 C2444 0.950 . S
H2434 C2446 1.004 . S
H2435 C2447 0.950 . S
C2436 H2428 0.950 1_565 S
C2436 C2437 1.386 . S
C2436 C2438 1.391 . S
C2437 C2436 1.386 . S
C2437 C2441 1.393 . S
C2438 H2430 0.950 1_565 S
C2438 C2436 1.391 . S
C2438 C2439 1.400 . S
C2439 C2438 1.400 . S
C2439 C2440 1.398 . S
C2439 C2445 1.491 . S
C2440 H2431 0.950 . S
C2440 C2439 1.398 . S
C2440 C2441 1.391 . S
C2441 H2429 0.950 . S
C2441 C2437 1.393 . S
C2441 C2440 1.391 . S
C2442 H2432 0.950 . S
C2442 C2443 1.386 . S
C2442 C2444 1.391 . S
C2443 C2442 1.386 . S
C2443 C2447 1.393 1_565 S
C2444 H2433 0.950 . S
C2444 C2442 1.391 . S
C2444 C2445 1.400 . S
C2445 C2439 1.491 . S
C2445 C2444 1.400 . S
C2445 C2446 1.368 1_565 S
C2446 H2434 1.004 . S
C2446 C2445 1.368 1_545 S
C2446 C2447 1.371 . S
C2447 H2435 0.950 . S
C2447 C2443 1.393 1_545 S
C2447 C2446 1.371 . S
H2448 C2456 0.950 . S
H2449 C2461 0.950 1_545 S
H2450 C2458 0.950 . S
H2451 C2460 0.950 1_545 S
H2452 C2462 0.950 . S
H2453 C2464 0.950 . S
H2454 C2466 0.950 . S
H2455 C2467 0.950 . S
C2456 H2448 0.950 . S
C2456 C2457 1.386 . S
C2456 C2458 1.391 . S
C2457 C2456 1.386 . S
C2457 C2461 1.393 . S
C2458 H2450 0.950 . S
C2458 C2456 1.391 . S
C2458 C2459 1.400 . S
C2459 C2458 1.400 . S
C2459 C2460 1.398 . S
C2459 C2465 1.491 . S
C2460 H2451 0.950 1_565 S
C2460 C2459 1.398 . S
C2460 C2461 1.391 . S
C2461 H2449 0.950 1_565 S
C2461 C2457 1.393 . S
C2461 C2460 1.391 . S
C2462 H2452 0.950 . S
C2462 C2463 1.386 1_545 S
C2462 C2464 1.391 . S
C2463 C2462 1.386 1_565 S
C2463 C2467 1.393 . S
C2464 H2453 0.950 . S
C2464 C2462 1.391 . S
C2464 C2465 1.400 1_545 S
C2465 C2459 1.491 . S
C2465 C2464 1.400 1_565 S
C2465 C2466 1.398 . S
C2466 H2454 0.950 . S
C2466 C2465 1.398 . S
C2466 C2467 1.391 . S
C2467 H2455 0.950 . S
C2467 C2463 1.393 . S
C2467 C2466 1.391 . S
H2468 C2476 0.950 . S
H2469 C2481 1.011 . S
H2470 C2478 0.950 . S
H2471 C2480 0.950 1_655 S
H2472 C2482 0.950 . S
H2473 C2484 0.925 1_655 S
H2474 C2486 0.950 . S
H2475 C2487 0.950 . S
C2476 H2468 0.950 . S
C2476 C2477 1.386 . S
C2476 C2478 1.391 . S
C2477 C2476 1.386 . S
C2477 C2481 1.393 . S
C2478 H2470 0.950 . S
C2478 C2476 1.391 . S
C2478 C2479 1.400 . S
C2479 C2478 1.400 . S
C2479 C2480 1.398 . S
C2479 C2485 1.491 . S
C2480 H2471 0.950 1_455 S
C2480 C2479 1.398 . S
C2480 C2481 1.391 . S
C2481 H2469 1.011 . S
C2481 C2477 1.393 . S
C2481 C2480 1.391 . S
C2482 H2472 0.950 . S
C2482 C2483 1.386 1_655 S
C2482 C2484 1.402 1_655 S
C2483 C2482 1.386 1_455 S
C2483 C2487 1.393 . S
C2484 H2473 0.925 1_455 S
C2484 C2482 1.402 1_455 S
C2484 C2485 1.414 . S
C2485 C2479 1.491 . S
C2485 C2484 1.414 . S
C2485 C2486 1.398 . S
C2486 H2474 0.950 . S
C2486 C2485 1.398 . S
C2486 C2487 1.391 . S
C2487 H2475 0.950 . S
C2487 C2483 1.393 . S
C2487 C2486 1.391 . S
H2488 C2496 0.950 . S
H2489 C2501 0.950 . S
H2490 C2498 0.950 . S
H2491 C2500 0.950 . S
H2492 C2502 0.950 . S
H2493 C2504 0.950 . S
H2494 C2506 0.950 . S
H2495 C2507 0.950 . S
C2496 H2488 0.950 . S
C2496 C2497 1.386 . S
C2496 C2498 1.391 . S
C2497 C2496 1.386 . S
C2497 C2501 1.393 . S
C2498 H2490 0.950 . S
C2498 C2496 1.391 . S
C2498 C2499 1.400 . S
C2499 C2498 1.400 . S
C2499 C2500 1.398 . S
C2499 C2505 1.491 . S
C2500 H2491 0.950 . S
C2500 C2499 1.398 . S
C2500 C2501 1.391 . S
C2501 H2489 0.950 . S
C2501 C2497 1.393 . S
C2501 C2500 1.391 . S
C2502 H2492 0.950 . S
C2502 C2503 1.386 . S
C2502 C2504 1.391 . S
C2503 C2502 1.386 . S
C2503 C2507 1.393 . S
C2504 H2493 0.950 . S
C2504 C2502 1.391 . S
C2504 C2505 1.400 . S
C2505 C2499 1.491 . S
C2505 C2504 1.400 . S
C2505 C2506 1.398 . S
C2506 H2494 0.950 . S
C2506 C2505 1.398 . S
C2506 C2507 1.391 . S
C2507 H2495 0.950 . S
C2507 C2503 1.393 . S
C2507 C2506 1.391 . S
H2508 C2516 0.950 . S
H2509 C2521 0.950 . S
H2510 C2518 0.950 . S
H2511 C2520 0.950 . S
H2512 C2522 0.950 . S
H2513 C2524 0.950 . S
H2514 C2526 0.950 . S
H2515 C2527 0.950 . S
C2516 H2508 0.950 . S
C2516 C2517 1.386 . S
C2516 C2518 1.391 . S
C2517 C2516 1.386 . S
C2517 C2521 1.393 . S
C2518 H2510 0.950 . S
C2518 C2516 1.391 . S
C2518 C2519 1.400 . S
C2519 C2518 1.400 . S
C2519 C2520 1.398 . S
C2519 C2525 1.491 . S
C2520 H2511 0.950 . S
C2520 C2519 1.398 . S
C2520 C2521 1.391 . S
C2521 H2509 0.950 . S
C2521 C2517 1.393 . S
C2521 C2520 1.391 . S
C2522 H2512 0.950 . S
C2522 C2523 1.386 . S
C2522 C2524 1.391 . S
C2523 C2522 1.386 . S
C2523 C2527 1.393 . S
C2524 H2513 0.950 . S
C2524 C2522 1.391 . S
C2524 C2525 1.400 . S
C2525 C2519 1.491 . S
C2525 C2524 1.400 . S
C2525 C2526 1.398 . S
C2526 H2514 0.950 . S
C2526 C2525 1.398 . S
C2526 C2527 1.391 . S
C2527 H2515 0.950 . S
C2527 C2523 1.393 . S
C2527 C2526 1.391 . S
H2528 C2536 0.950 . S
H2529 C2541 0.950 . S
H2530 C2538 0.950 . S
H2531 C2540 0.950 . S
H2532 C2542 0.950 . S
H2533 C2544 0.950 . S
H2534 C2546 0.950 . S
H2535 C2547 0.950 . S
C2536 H2528 0.950 . S
C2536 C2537 1.386 . S
C2536 C2538 1.391 . S
C2537 C2536 1.386 . S
C2537 C2541 1.393 . S
C2538 H2530 0.950 . S
C2538 C2536 1.391 . S
C2538 C2539 1.400 . S
C2539 C2538 1.400 . S
C2539 C2540 1.398 . S
C2539 C2545 1.491 . S
C2540 H2531 0.950 . S
C2540 C2539 1.398 . S
C2540 C2541 1.391 . S
C2541 H2529 0.950 . S
C2541 C2537 1.393 . S
C2541 C2540 1.391 . S
C2542 H2532 0.950 . S
C2542 C2543 1.386 . S
C2542 C2544 1.391 . S
C2543 C2542 1.386 . S
C2543 C2547 1.393 . S
C2544 H2533 0.950 . S
C2544 C2542 1.391 . S
C2544 C2545 1.400 . S
C2545 C2539 1.491 . S
C2545 C2544 1.400 . S
C2545 C2546 1.398 . S
C2546 H2534 0.950 . S
C2546 C2545 1.398 . S
C2546 C2547 1.391 . S
C2547 H2535 0.950 . S
C2547 C2543 1.393 . S
C2547 C2546 1.391 . S
H2548 C2556 0.950 . S
H2549 C2561 0.950 . S
H2550 C2558 0.950 . S
H2551 C2560 0.950 . S
H2552 C2562 0.950 . S
H2553 C2564 0.950 . S
H2554 C2566 0.950 . S
H2555 C2567 0.950 . S
C2556 H2548 0.950 . S
C2556 C2557 1.386 . S
C2556 C2558 1.391 . S
C2557 C2556 1.386 . S
C2557 C2561 1.393 . S
C2558 H2550 0.950 . S
C2558 C2556 1.391 . S
C2558 C2559 1.400 . S
C2559 C2558 1.400 . S
C2559 C2560 1.398 . S
C2559 C2565 1.491 . S
C2560 H2551 0.950 . S
C2560 C2559 1.398 . S
C2560 C2561 1.391 . S
C2561 H2549 0.950 . S
C2561 C2557 1.393 . S
C2561 C2560 1.391 . S
C2562 H2552 0.950 . S
C2562 C2563 1.386 . S
C2562 C2564 1.391 . S
C2563 C2562 1.386 . S
C2563 C2567 1.393 . S
C2564 H2553 0.950 . S
C2564 C2562 1.391 . S
C2564 C2565 1.400 . S
C2565 C2559 1.491 . S
C2565 C2564 1.400 . S
C2565 C2566 1.398 . S
C2566 H2554 0.950 . S
C2566 C2565 1.398 . S
C2566 C2567 1.391 . S
C2567 H2555 0.950 . S
C2567 C2563 1.393 . S
C2567 C2566 1.391 . S
H2568 C2576 0.950 . S
H2569 C2581 0.950 . S
H2570 C2578 0.950 . S
H2571 C2580 0.950 . S
H2572 C2582 0.952 . S
H2573 C2584 0.950 1_565 S
H2574 C2586 0.950 . S
H2575 C2587 0.950 . S
C2576 H2568 0.950 . S
C2576 C2577 1.386 . S
C2576 C2578 1.391 . S
C2577 C2576 1.386 . S
C2577 C2581 1.393 . S
C2578 H2570 0.950 . S
C2578 C2576 1.391 . S
C2578 C2579 1.400 . S
C2579 C2578 1.400 . S
C2579 C2580 1.398 . S
C2579 C2585 1.491 . S
C2580 H2571 0.950 . S
C2580 C2579 1.398 . S
C2580 C2581 1.391 . S
C2581 H2569 0.950 . S
C2581 C2577 1.393 . S
C2581 C2580 1.391 . S
C2582 H2572 0.952 . S
C2582 C2583 1.386 1_565 S
C2582 C2584 1.389 1_565 S
C2583 C2582 1.386 1_545 S
C2583 C2587 1.393 . S
C2584 H2573 0.950 1_545 S
C2584 C2582 1.389 1_545 S
C2584 C2585 1.400 . S
C2585 C2579 1.491 . S
C2585 C2584 1.400 . S
C2585 C2586 1.398 . S
C2586 H2574 0.950 . S
C2586 C2585 1.398 . S
C2586 C2587 1.391 . S
C2587 H2575 0.950 . S
C2587 C2583 1.393 . S
C2587 C2586 1.391 . S
H2588 C2596 0.950 . S
H2589 C2601 0.950 . S
H2590 C2598 0.950 . S
H2591 C2600 0.950 . S
H2592 C2602 0.954 . S
H2593 C2604 0.950 1_455 S
H2594 C2606 0.950 . S
H2595 C2607 0.950 . S
C2596 H2588 0.950 . S
C2596 C2597 1.386 . S
C2596 C2598 1.391 . S
C2597 C2596 1.386 . S
C2597 C2601 1.393 . S
C2598 H2590 0.950 . S
C2598 C2596 1.391 . S
C2598 C2599 1.400 . S
C2599 C2598 1.400 . S
C2599 C2600 1.398 . S
C2599 C2605 1.491 . S
C2600 H2591 0.950 . S
C2600 C2599 1.398 . S
C2600 C2601 1.391 . S
C2601 H2589 0.950 . S
C2601 C2597 1.393 . S
C2601 C2600 1.391 . S
C2602 H2592 0.954 . S
C2602 C2603 1.377 1_455 S
C2602 C2604 1.395 1_455 S
C2603 C2602 1.377 1_655 S
C2603 C2607 1.393 . S
C2604 H2593 0.950 1_655 S
C2604 C2602 1.395 1_655 S
C2604 C2605 1.400 . S
C2605 C2599 1.491 . S
C2605 C2604 1.400 . S
C2605 C2606 1.398 . S
C2606 H2594 0.950 . S
C2606 C2605 1.398 . S
C2606 C2607 1.391 . S
C2607 H2595 0.950 . S
C2607 C2603 1.393 . S
C2607 C2606 1.391 . S
H2608 C2616 0.950 . S
H2609 C2621 0.950 . S
H2610 C2618 0.950 . S
H2611 C2620 0.950 . S
H2612 C2622 0.950 . S
H2613 C2624 0.950 . S
H2614 C2626 0.950 . S
H2615 C2627 0.950 . S
C2616 H2608 0.950 . S
C2616 C2617 1.386 . S
C2616 C2618 1.391 . S
C2617 C2616 1.386 . S
C2617 C2621 1.393 . S
C2618 H2610 0.950 . S
C2618 C2616 1.391 . S
C2618 C2619 1.400 . S
C2619 C2618 1.400 . S
C2619 C2620 1.398 . S
C2619 C2625 1.491 . S
C2620 H2611 0.950 . S
C2620 C2619 1.398 . S
C2620 C2621 1.391 . S
C2621 H2609 0.950 . S
C2621 C2617 1.393 . S
C2621 C2620 1.391 . S
C2622 H2612 0.950 . S
C2622 C2623 1.386 . S
C2622 C2624 1.391 . S
C2623 C2622 1.386 . S
C2623 C2627 1.393 . S
C2624 H2613 0.950 . S
C2624 C2622 1.391 . S
C2624 C2625 1.400 . S
C2625 C2619 1.491 . S
C2625 C2624 1.400 . S
C2625 C2626 1.398 . S
C2626 H2614 0.950 . S
C2626 C2625 1.398 . S
C2626 C2627 1.391 . S
C2627 H2615 0.950 . S
C2627 C2623 1.393 . S
C2627 C2626 1.391 . S
H2628 C2636 0.950 . S
H2629 C2641 0.950 . S
H2630 C2638 0.950 . S
H2631 C2640 0.950 . S
H2632 C2642 0.950 . S
H2633 C2644 0.950 . S
H2634 C2646 0.950 . S
H2635 C2647 0.950 . S
C2636 H2628 0.950 . S
C2636 C2637 1.386 . S
C2636 C2638 1.391 . S
C2637 C2636 1.386 . S
C2637 C2641 1.393 . S
C2638 H2630 0.950 . S
C2638 C2636 1.391 . S
C2638 C2639 1.400 . S
C2639 C2638 1.400 . S
C2639 C2640 1.398 . S
C2639 C2645 1.491 . S
C2640 H2631 0.950 . S
C2640 C2639 1.398 . S
C2640 C2641 1.391 . S
C2641 H2629 0.950 . S
C2641 C2637 1.393 . S
C2641 C2640 1.391 . S
C2642 H2632 0.950 . S
C2642 C2643 1.386 . S
C2642 C2644 1.391 . S
C2643 C2642 1.386 . S
C2643 C2647 1.393 . S
C2644 H2633 0.950 . S
C2644 C2642 1.391 . S
C2644 C2645 1.400 . S
C2645 C2639 1.491 . S
C2645 C2644 1.400 . S
C2645 C2646 1.398 . S
C2646 H2634 0.950 . S
C2646 C2645 1.398 . S
C2646 C2647 1.391 . S
C2647 H2635 0.950 . S
C2647 C2643 1.393 . S
C2647 C2646 1.391 . S
H2648 C2656 0.950 . S
H2649 C2661 0.950 . S
H2650 C2658 0.950 . S
H2651 C2660 0.950 . S
H2652 C2662 0.950 . S
H2653 C2664 0.950 . S
H2654 C2666 0.950 . S
H2655 C2667 0.950 . S
C2656 H2648 0.950 . S
C2656 C2657 1.386 . S
C2656 C2658 1.391 . S
C2657 C2656 1.386 . S
C2657 C2661 1.393 . S
C2658 H2650 0.950 . S
C2658 C2656 1.391 . S
C2658 C2659 1.400 . S
C2659 C2658 1.400 . S
C2659 C2660 1.398 . S
C2659 C2665 1.491 . S
C2660 H2651 0.950 . S
C2660 C2659 1.398 . S
C2660 C2661 1.391 . S
C2661 H2649 0.950 . S
C2661 C2657 1.393 . S
C2661 C2660 1.391 . S
C2662 H2652 0.950 . S
C2662 C2663 1.386 . S
C2662 C2664 1.391 . S
C2663 C2662 1.386 . S
C2663 C2667 1.393 . S
C2664 H2653 0.950 . S
C2664 C2662 1.391 . S
C2664 C2665 1.400 . S
C2665 C2659 1.491 . S
C2665 C2664 1.400 . S
C2665 C2666 1.398 . S
C2666 H2654 0.950 . S
C2666 C2665 1.398 . S
C2666 C2667 1.391 . S
C2667 H2655 0.950 . S
C2667 C2663 1.393 . S
C2667 C2666 1.391 . S
H2668 C2676 0.950 . S
H2669 C2681 0.950 . S
H2670 C2678 0.950 . S
H2671 C2680 0.950 . S
H2672 C2682 0.950 . S
H2673 C2684 0.950 . S
H2674 C2686 0.950 . S
H2675 C2687 0.950 . S
C2676 H2668 0.950 . S
C2676 C2677 1.386 . S
C2676 C2678 1.391 . S
C2677 C2676 1.386 . S
C2677 C2681 1.393 . S
C2678 H2670 0.950 . S
C2678 C2676 1.391 . S
C2678 C2679 1.400 . S
C2679 C2678 1.400 . S
C2679 C2680 1.398 . S
C2679 C2685 1.491 . S
C2680 H2671 0.950 . S
C2680 C2679 1.398 . S
C2680 C2681 1.391 . S
C2681 H2669 0.950 . S
C2681 C2677 1.393 . S
C2681 C2680 1.391 . S
C2682 H2672 0.950 . S
C2682 C2683 1.386 . S
C2682 C2684 1.391 . S
C2683 C2682 1.386 . S
C2683 C2687 1.393 . S
C2684 H2673 0.950 . S
C2684 C2682 1.391 . S
C2684 C2685 1.400 . S
C2685 C2679 1.491 . S
C2685 C2684 1.400 . S
C2685 C2686 1.398 . S
C2686 H2674 0.950 . S
C2686 C2685 1.398 . S
C2686 C2687 1.391 . S
C2687 H2675 0.950 . S
C2687 C2683 1.393 . S
C2687 C2686 1.391 . S
H2688 C2696 0.950 . S
H2689 C2701 0.950 . S
H2690 C2698 0.950 . S
H2691 C2700 0.950 . S
H2692 C2702 0.950 . S
H2693 C2704 0.950 . S
H2694 C2706 0.950 . S
H2695 C2707 0.950 . S
C2696 H2688 0.950 . S
C2696 C2697 1.386 . S
C2696 C2698 1.391 . S
C2697 C2696 1.386 . S
C2697 C2701 1.393 . S
C2698 H2690 0.950 . S
C2698 C2696 1.391 . S
C2698 C2699 1.400 . S
C2699 C2698 1.400 . S
C2699 C2700 1.398 . S
C2699 C2705 1.491 . S
C2700 H2691 0.950 . S
C2700 C2699 1.398 . S
C2700 C2701 1.391 . S
C2701 H2689 0.950 . S
C2701 C2697 1.393 . S
C2701 C2700 1.391 . S
C2702 H2692 0.950 . S
C2702 C2703 1.386 . S
C2702 C2704 1.391 . S
C2703 C2702 1.386 . S
C2703 C2707 1.393 . S
C2704 H2693 0.950 . S
C2704 C2702 1.391 . S
C2704 C2705 1.400 . S
C2705 C2699 1.491 . S
C2705 C2704 1.400 . S
C2705 C2706 1.398 . S
C2706 H2694 0.950 . S
C2706 C2705 1.398 . S
C2706 C2707 1.391 . S
C2707 H2695 0.950 . S
C2707 C2703 1.393 . S
C2707 C2706 1.391 . S
H2708 C2716 0.950 . S
H2709 C2721 0.950 . S
H2710 C2718 0.950 . S
H2711 C2720 0.950 . S
H2712 C2722 0.950 . S
H2713 C2724 0.950 . S
H2714 C2726 0.950 . S
H2715 C2727 0.950 . S
C2716 H2708 0.950 . S
C2716 C2717 1.386 . S
C2716 C2718 1.391 . S
C2717 C2716 1.386 . S
C2717 C2721 1.393 . S
C2718 H2710 0.950 . S
C2718 C2716 1.391 . S
C2718 C2719 1.400 . S
C2719 C2718 1.400 . S
C2719 C2720 1.398 . S
C2719 C2725 1.491 . S
C2720 H2711 0.950 . S
C2720 C2719 1.398 . S
C2720 C2721 1.391 . S
C2721 H2709 0.950 . S
C2721 C2717 1.393 . S
C2721 C2720 1.391 . S
C2722 H2712 0.950 . S
C2722 C2723 1.386 . S
C2722 C2724 1.391 . S
C2723 C2722 1.386 . S
C2723 C2727 1.393 . S
C2724 H2713 0.950 . S
C2724 C2722 1.391 . S
C2724 C2725 1.400 . S
C2725 C2719 1.491 . S
C2725 C2724 1.400 . S
C2725 C2726 1.398 . S
C2726 H2714 0.950 . S
C2726 C2725 1.398 . S
C2726 C2727 1.391 . S
C2727 H2715 0.950 . S
C2727 C2723 1.393 . S
C2727 C2726 1.391 . S
H2728 C2736 0.950 . S
H2729 C2741 0.950 . S
H2730 C2738 0.950 . S
H2731 C2740 0.950 . S
H2732 C2742 0.950 . S
H2733 C2744 0.950 . S
H2734 C2746 0.950 . S
H2735 C2747 0.950 . S
C2736 H2728 0.950 . S
C2736 C2737 1.386 . S
C2736 C2738 1.391 . S
C2737 C2736 1.386 . S
C2737 C2741 1.393 . S
C2738 H2730 0.950 . S
C2738 C2736 1.391 . S
C2738 C2739 1.400 . S
C2739 C2738 1.400 . S
C2739 C2740 1.398 . S
C2739 C2745 1.491 . S
C2740 H2731 0.950 . S
C2740 C2739 1.398 . S
C2740 C2741 1.391 . S
C2741 H2729 0.950 . S
C2741 C2737 1.393 . S
C2741 C2740 1.391 . S
C2742 H2732 0.950 . S
C2742 C2743 1.386 . S
C2742 C2744 1.391 . S
C2743 C2742 1.386 . S
C2743 C2747 1.393 . S
C2744 H2733 0.950 . S
C2744 C2742 1.391 . S
C2744 C2745 1.400 . S
C2745 C2739 1.491 . S
C2745 C2744 1.400 . S
C2745 C2746 1.398 . S
C2746 H2734 0.950 . S
C2746 C2745 1.398 . S
C2746 C2747 1.391 . S
C2747 H2735 0.950 . S
C2747 C2743 1.393 . S
C2747 C2746 1.391 . S
H2748 C2756 0.950 . S
H2749 C2761 0.950 . S
H2750 C2758 0.950 . S
H2751 C2760 0.950 1_455 S
H2752 C2762 1.010 . S
H2753 C2764 0.950 1_455 S
H2754 C2766 0.950 . S
H2755 C2767 0.950 . S
C2756 H2748 0.950 . S
C2756 C2757 1.386 . S
C2756 C2758 1.391 . S
C2757 C2756 1.386 . S
C2757 C2761 1.393 . S
C2758 H2750 0.950 . S
C2758 C2756 1.391 . S
C2758 C2759 1.400 . S
C2759 C2758 1.400 . S
C2759 C2760 1.398 . S
C2759 C2765 1.491 . S
C2760 H2751 0.950 1_655 S
C2760 C2759 1.398 . S
C2760 C2761 1.391 . S
C2761 H2749 0.950 . S
C2761 C2757 1.393 . S
C2761 C2760 1.391 . S
C2762 H2752 1.010 . S
C2762 C2763 1.381 1_455 S
C2762 C2764 1.342 1_455 S
C2763 C2762 1.381 1_655 S
C2763 C2767 1.393 . S
C2764 H2753 0.950 1_655 S
C2764 C2762 1.342 1_655 S
C2764 C2765 1.400 . S
C2765 C2759 1.491 . S
C2765 C2764 1.400 . S
C2765 C2766 1.398 . S
C2766 H2754 0.950 . S
C2766 C2765 1.398 . S
C2766 C2767 1.391 . S
C2767 H2755 0.950 . S
C2767 C2763 1.393 . S
C2767 C2766 1.391 . S
H2768 C2776 0.950 . S
H2769 C2781 0.950 . S
H2770 C2778 0.950 . S
H2771 C2780 0.950 . S
H2772 C2782 0.950 . S
H2773 C2784 0.950 . S
H2774 C2786 0.950 . S
H2775 C2787 0.950 . S
C2776 H2768 0.950 . S
C2776 C2777 1.386 . S
C2776 C2778 1.391 . S
C2777 C2776 1.386 . S
C2777 C2781 1.393 . S
C2778 H2770 0.950 . S
C2778 C2776 1.391 . S
C2778 C2779 1.400 . S
C2779 C2778 1.400 . S
C2779 C2780 1.398 . S
C2779 C2785 1.491 . S
C2780 H2771 0.950 . S
C2780 C2779 1.398 . S
C2780 C2781 1.391 . S
C2781 H2769 0.950 . S
C2781 C2777 1.393 . S
C2781 C2780 1.391 . S
C2782 H2772 0.950 . S
C2782 C2783 1.386 . S
C2782 C2784 1.391 . S
C2783 C2782 1.386 . S
C2783 C2787 1.393 . S
C2784 H2773 0.950 . S
C2784 C2782 1.391 . S
C2784 C2785 1.400 . S
C2785 C2779 1.491 . S
C2785 C2784 1.400 . S
C2785 C2786 1.398 . S
C2786 H2774 0.950 . S
C2786 C2785 1.398 . S
C2786 C2787 1.391 . S
C2787 H2775 0.950 . S
C2787 C2783 1.393 . S
C2787 C2786 1.391 . S
H2788 C2796 0.950 . S
H2789 C2801 0.950 . S
H2790 C2798 0.950 . S
H2791 C2800 0.950 . S
H2792 C2802 0.948 1_565 S
H2793 C2804 0.934 1_565 S
H2794 C2806 0.950 . S
H2795 C2807 0.950 . S
C2796 H2788 0.950 . S
C2796 C2797 1.386 . S
C2796 C2798 1.391 . S
C2797 C2796 1.386 . S
C2797 C2801 1.393 . S
C2798 H2790 0.950 . S
C2798 C2796 1.391 . S
C2798 C2799 1.400 . S
C2799 C2798 1.400 . S
C2799 C2800 1.398 . S
C2799 C2805 1.491 . S
C2800 H2791 0.950 . S
C2800 C2799 1.398 . S
C2800 C2801 1.391 . S
C2801 H2789 0.950 . S
C2801 C2797 1.393 . S
C2801 C2800 1.391 . S
C2802 H2792 0.948 1_545 S
C2802 C2803 1.397 . S
C2802 C2804 1.382 . S
C2803 C2802 1.397 . S
C2803 C2807 1.393 . S
C2804 H2793 0.934 1_545 S
C2804 C2802 1.382 . S
C2804 C2805 1.400 . S
C2805 C2799 1.491 . S
C2805 C2804 1.400 . S
C2805 C2806 1.398 . S
C2806 H2794 0.950 . S
C2806 C2805 1.398 . S
C2806 C2807 1.391 . S
C2807 H2795 0.950 . S
C2807 C2803 1.393 . S
C2807 C2806 1.391 . S
C1377 C7 1.540 . S
C1383 C857 1.510 . S
C1397 C23 1.622 . S
C1403 C901 1.579 . S
C1423 C981 1.517 . S
C1417 C37 1.575 . S
C1437 C35 1.572 1_545 S
C1443 C1025 1.542 . S
C1457 C9 1.591 1_455 S
C1463 C1105 1.549 . S
C1477 C21 1.595 . S
C1483 C1167 1.563 . S
C1497 C49 1.536 . S
C1503 C1087 1.503 . S
C1523 C1149 1.557 . S
C1517 C65 1.620 . S
C1543 C1043 1.572 . S
C1537 C79 1.617 1_565 S
C1557 C77 1.557 . S
C1563 C963 1.529 . S
C1583 C839 1.546 . S
C1577 C51 1.607 1_655 S
C1597 C63 1.609 . S
C1603 C919 1.605 . S
C1617 C91 1.640 . S
C1623 C1229 1.607 . S
C1637 C107 1.667 . S
C1643 C1273 1.640 . S
C1663 C1353 1.612 . S
C1657 C121 1.687 . S
C1677 C119 1.647 . S
C1683 C299 1.612 . S
C1697 C93 1.687 . S
C1703 C343 1.643 . S
C1717 C105 1.633 . S
C1723 C423 1.605 . S
C1737 C133 1.593 . S
C1743 C361 1.598 . S
C1757 C149 1.654 . S
C1763 C405 1.592 . S
C1783 C281 1.600 . S
C1777 C163 1.686 . S
C1803 C1335 1.659 . S
C1797 C161 1.693 . S
C1823 C1211 1.606 . S
C1817 C135 1.676 . S
C1843 C1291 1.666 . S
C1837 C147 1.650 . S
C1857 C175 1.618 . S
C1863 C485 1.589 . S
C1877 C191 1.653 . S
C1883 C547 1.574 . S
C1897 C205 1.683 . S
C1903 C591 1.650 . S
C1917 C203 1.673 . S
C1923 C653 1.683 . S
C1943 C715 1.660 . S
C1937 C177 1.691 . S
C1963 C795 1.614 . S
C1957 C189 1.642 . S
C1983 C733 1.647 . S
C1977 C217 1.647 . S
C2003 C777 1.593 . S
C1997 C233 1.676 . S
C2017 C247 1.686 . S
C2023 C671 1.647 . S
C2043 C609 1.654 . S
C2037 C245 1.646 . S
C2057 C219 1.681 . S
C2063 C467 1.611 . S
C2083 C529 1.595 . S
C2077 C231 1.627 . S
C2103 C305 1.521 . S
C2097 C8 1.584 . S
C2117 C17 1.536 . S
C2123 C349 1.488 . S
C2143 C429 1.500 . S
C2137 C31 1.582 . S
C2163 C491 1.515 . S
C2157 C36 1.577 1_556 S
C2183 C553 1.491 . S
C2177 C3 1.570 . S
C2203 C597 1.502 . S
C2197 C22 1.574 . S
C2217 C50 1.584 . S
C2223 C615 1.526 . S
C2237 C59 1.536 . S
C2243 C473 1.469 . S
C2257 C73 1.560 . S
C2263 C535 1.497 . S
C2277 C78 1.610 . S
C2283 C367 1.548 . S
C2303 C411 1.468 . S
C2297 C45 1.556 . S
C2317 C64 1.551 . S
C2323 C287 1.472 . S
C2343 C659 1.517 . S
C2337 C92 1.576 . S
C2357 C101 1.563 1_545 S
C2363 C721 1.541 . S
C2377 C115 1.622 1_655 S
C2383 C801 1.556 . S
C2403 C863 1.446 . S
C2397 C120 1.495 . S
C2417 C87 1.561 . S
C2423 C907 1.514 . S
C2437 C106 1.453 . S
C2443 C987 1.385 . S
C2457 C134 1.467 . S
C2463 C969 1.396 . S
C2477 C143 1.481 . S
C2483 C845 1.409 . S
C2503 C925 1.502 . S
C2497 C157 1.573 . S
C2517 C162 1.592 . S
C2523 C739 1.541 . S
C2537 C129 1.606 1_545 S
C2543 C783 1.522 . S
C2563 C677 1.549 . S
C2557 C148 1.611 . S
C2583 C1031 1.440 . S
C2577 C176 1.480 . S
C2597 C185 1.479 . S
C2603 C1111 1.429 . S
C2617 C199 1.565 . S
C2623 C1173 1.494 . S
C2643 C1235 1.512 . S
C2637 C204 1.581 . S
C2663 C1279 1.555 . S
C2657 C171 1.616 1_565 S
C2677 C190 1.611 . S
C2683 C1359 1.525 . S
C2697 C218 1.583 . S
C2703 C1341 1.509 . S
C2717 C227 1.607 1_565 S
C2723 C1217 1.513 . S
C2743 C1297 1.561 . S
C2737 C241 1.613 1_455 S
C2763 C1093 1.419 . S
C2757 C246 1.484 . S
C2783 C1155 1.503 . S
C2777 C213 1.566 . S
C2797 C232 1.467 . S
C2803 C1049 1.410 . S
