# Generated by pormake.
# Topology ptr, (4,4)-cn, num edge types: 1
# Building blocks:
#     Node 0, Type 0, BuildingBlock: TATPOV_clean_sbu_0, # of connection points: 4
#     Node 1, Type 0, BuildingBlock: TATPOV_clean_sbu_0, # of connection points: 4
#     Node 2, Type 0, BuildingBlock: TATPOV_clean_sbu_0, # of connection points: 4
#     Node 3, Type 0, BuildingBlock: TATPOV_clean_sbu_0, # of connection points: 4
#     Node 4, Type 0, BuildingBlock: TATPOV_clean_sbu_0, # of connection points: 4
#     Node 5, Type 0, BuildingBlock: TATPOV_clean_sbu_0, # of connection points: 4
#     Node 6, Type 0, BuildingBlock: TATPOV_clean_sbu_0, # of connection points: 4
#     Node 7, Type 0, BuildingBlock: TATPOV_clean_sbu_0, # of connection points: 4
#     Node 8, Type 0, BuildingBlock: TATPOV_clean_sbu_0, # of connection points: 4
#     Node 9, Type 0, BuildingBlock: TATPOV_clean_sbu_0, # of connection points: 4
#     Node 10, Type 0, BuildingBlock: TATPOV_clean_sbu_0, # of connection points: 4
#     Node 11, Type 0, BuildingBlock: TATPOV_clean_sbu_0, # of connection points: 4
#     Node 12, Type 0, BuildingBlock: TATPOV_clean_sbu_0, # of connection points: 4
#     Node 13, Type 0, BuildingBlock: TATPOV_clean_sbu_0, # of connection points: 4
#     Node 14, Type 0, BuildingBlock: TATPOV_clean_sbu_0, # of connection points: 4
#     Node 15, Type 0, BuildingBlock: TATPOV_clean_sbu_0, # of connection points: 4
#     Node 16, Type 0, BuildingBlock: TATPOV_clean_sbu_0, # of connection points: 4
#     Node 17, Type 0, BuildingBlock: TATPOV_clean_sbu_0, # of connection points: 4
#     Node 18, Type 1, BuildingBlock: MUDLON_clean_linker_0, # of connection points: 4
#     Node 19, Type 1, BuildingBlock: MUDLON_clean_linker_0, # of connection points: 4
#     Node 20, Type 1, BuildingBlock: MUDLON_clean_linker_0, # of connection points: 4
#     Node 21, Type 1, BuildingBlock: MUDLON_clean_linker_0, # of connection points: 4
#     Node 22, Type 1, BuildingBlock: MUDLON_clean_linker_0, # of connection points: 4
#     Node 23, Type 1, BuildingBlock: MUDLON_clean_linker_0, # of connection points: 4
#     Node 24, Type 1, BuildingBlock: MUDLON_clean_linker_0, # of connection points: 4
#     Node 25, Type 1, BuildingBlock: MUDLON_clean_linker_0, # of connection points: 4
#     Node 26, Type 1, BuildingBlock: MUDLON_clean_linker_0, # of connection points: 4
#     Node 27, Type 1, BuildingBlock: MUDLON_clean_linker_0, # of connection points: 4
#     Node 28, Type 1, BuildingBlock: MUDLON_clean_linker_0, # of connection points: 4
#     Node 29, Type 1, BuildingBlock: MUDLON_clean_linker_0, # of connection points: 4
#     Node 30, Type 1, BuildingBlock: MUDLON_clean_linker_0, # of connection points: 4
#     Node 31, Type 1, BuildingBlock: MUDLON_clean_linker_0, # of connection points: 4
#     Node 32, Type 1, BuildingBlock: MUDLON_clean_linker_0, # of connection points: 4
#     Node 33, Type 1, BuildingBlock: MUDLON_clean_linker_0, # of connection points: 4
#     Node 34, Type 1, BuildingBlock: MUDLON_clean_linker_0, # of connection points: 4
#     Node 35, Type 1, BuildingBlock: MUDLON_clean_linker_0, # of connection points: 4
#     Edge 36, Type (0, 1), BuildingBlock: KIFKEQ_clean_linker_1, # of connection points: 2
#     Edge 37, Type (0, 1), BuildingBlock: KIFKEQ_clean_linker_1, # of connection points: 2
#     Edge 38, Type (0, 1), BuildingBlock: KIFKEQ_clean_linker_1, # of connection points: 2
#     Edge 39, Type (0, 1), BuildingBlock: KIFKEQ_clean_linker_1, # of connection points: 2
#     Edge 40, Type (0, 1), BuildingBlock: KIFKEQ_clean_linker_1, # of connection points: 2
#     Edge 41, Type (0, 1), BuildingBlock: KIFKEQ_clean_linker_1, # of connection points: 2
#     Edge 42, Type (0, 1), BuildingBlock: KIFKEQ_clean_linker_1, # of connection points: 2
#     Edge 43, Type (0, 1), BuildingBlock: KIFKEQ_clean_linker_1, # of connection points: 2
#     Edge 44, Type (0, 1), BuildingBlock: KIFKEQ_clean_linker_1, # of connection points: 2
#     Edge 45, Type (0, 1), BuildingBlock: KIFKEQ_clean_linker_1, # of connection points: 2
#     Edge 46, Type (0, 1), BuildingBlock: KIFKEQ_clean_linker_1, # of connection points: 2
#     Edge 47, Type (0, 1), BuildingBlock: KIFKEQ_clean_linker_1, # of connection points: 2
#     Edge 48, Type (0, 1), BuildingBlock: KIFKEQ_clean_linker_1, # of connection points: 2
#     Edge 49, Type (0, 1), BuildingBlock: KIFKEQ_clean_linker_1, # of connection points: 2
#     Edge 50, Type (0, 1), BuildingBlock: KIFKEQ_clean_linker_1, # of connection points: 2
#     Edge 51, Type (0, 1), BuildingBlock: KIFKEQ_clean_linker_1, # of connection points: 2
#     Edge 52, Type (0, 1), BuildingBlock: KIFKEQ_clean_linker_1, # of connection points: 2
#     Edge 53, Type (0, 1), BuildingBlock: KIFKEQ_clean_linker_1, # of connection points: 2
#     Edge 54, Type (0, 1), BuildingBlock: KIFKEQ_clean_linker_1, # of connection points: 2
#     Edge 55, Type (0, 1), BuildingBlock: KIFKEQ_clean_linker_1, # of connection points: 2
#     Edge 56, Type (0, 1), BuildingBlock: KIFKEQ_clean_linker_1, # of connection points: 2
#     Edge 57, Type (0, 1), BuildingBlock: KIFKEQ_clean_linker_1, # of connection points: 2
#     Edge 58, Type (0, 1), BuildingBlock: KIFKEQ_clean_linker_1, # of connection points: 2
#     Edge 59, Type (0, 1), BuildingBlock: KIFKEQ_clean_linker_1, # of connection points: 2
#     Edge 60, Type (0, 1), BuildingBlock: KIFKEQ_clean_linker_1, # of connection points: 2
#     Edge 61, Type (0, 1), BuildingBlock: KIFKEQ_clean_linker_1, # of connection points: 2
#     Edge 62, Type (0, 1), BuildingBlock: KIFKEQ_clean_linker_1, # of connection points: 2
#     Edge 63, Type (0, 1), BuildingBlock: KIFKEQ_clean_linker_1, # of connection points: 2
#     Edge 64, Type (0, 1), BuildingBlock: KIFKEQ_clean_linker_1, # of connection points: 2
#     Edge 65, Type (0, 1), BuildingBlock: KIFKEQ_clean_linker_1, # of connection points: 2
#     Edge 66, Type (0, 1), BuildingBlock: KIFKEQ_clean_linker_1, # of connection points: 2
#     Edge 67, Type (0, 1), BuildingBlock: KIFKEQ_clean_linker_1, # of connection points: 2
#     Edge 68, Type (0, 1), BuildingBlock: KIFKEQ_clean_linker_1, # of connection points: 2
#     Edge 69, Type (0, 1), BuildingBlock: KIFKEQ_clean_linker_1, # of connection points: 2
#     Edge 70, Type (0, 1), BuildingBlock: KIFKEQ_clean_linker_1, # of connection points: 2
#     Edge 71, Type (0, 1), BuildingBlock: KIFKEQ_clean_linker_1, # of connection points: 2
#     Edge 72, Type (0, 1), BuildingBlock: KIFKEQ_clean_linker_1, # of connection points: 2
#     Edge 73, Type (0, 1), BuildingBlock: KIFKEQ_clean_linker_1, # of connection points: 2
#     Edge 74, Type (0, 1), BuildingBlock: KIFKEQ_clean_linker_1, # of connection points: 2
#     Edge 75, Type (0, 1), BuildingBlock: KIFKEQ_clean_linker_1, # of connection points: 2
#     Edge 76, Type (0, 1), BuildingBlock: KIFKEQ_clean_linker_1, # of connection points: 2
#     Edge 77, Type (0, 1), BuildingBlock: KIFKEQ_clean_linker_1, # of connection points: 2
#     Edge 78, Type (0, 1), BuildingBlock: KIFKEQ_clean_linker_1, # of connection points: 2
#     Edge 79, Type (0, 1), BuildingBlock: KIFKEQ_clean_linker_1, # of connection points: 2
#     Edge 80, Type (0, 1), BuildingBlock: KIFKEQ_clean_linker_1, # of connection points: 2
#     Edge 81, Type (0, 1), BuildingBlock: KIFKEQ_clean_linker_1, # of connection points: 2
#     Edge 82, Type (0, 1), BuildingBlock: KIFKEQ_clean_linker_1, # of connection points: 2
#     Edge 83, Type (0, 1), BuildingBlock: KIFKEQ_clean_linker_1, # of connection points: 2
#     Edge 84, Type (0, 1), BuildingBlock: KIFKEQ_clean_linker_1, # of connection points: 2
#     Edge 85, Type (0, 1), BuildingBlock: KIFKEQ_clean_linker_1, # of connection points: 2
#     Edge 86, Type (0, 1), BuildingBlock: KIFKEQ_clean_linker_1, # of connection points: 2
#     Edge 87, Type (0, 1), BuildingBlock: KIFKEQ_clean_linker_1, # of connection points: 2
#     Edge 88, Type (0, 1), BuildingBlock: KIFKEQ_clean_linker_1, # of connection points: 2
#     Edge 89, Type (0, 1), BuildingBlock: KIFKEQ_clean_linker_1, # of connection points: 2
#     Edge 90, Type (0, 1), BuildingBlock: KIFKEQ_clean_linker_1, # of connection points: 2
#     Edge 91, Type (0, 1), BuildingBlock: KIFKEQ_clean_linker_1, # of connection points: 2
#     Edge 92, Type (0, 1), BuildingBlock: KIFKEQ_clean_linker_1, # of connection points: 2
#     Edge 93, Type (0, 1), BuildingBlock: KIFKEQ_clean_linker_1, # of connection points: 2
#     Edge 94, Type (0, 1), BuildingBlock: KIFKEQ_clean_linker_1, # of connection points: 2
#     Edge 95, Type (0, 1), BuildingBlock: KIFKEQ_clean_linker_1, # of connection points: 2
#     Edge 96, Type (0, 1), BuildingBlock: KIFKEQ_clean_linker_1, # of connection points: 2
#     Edge 97, Type (0, 1), BuildingBlock: KIFKEQ_clean_linker_1, # of connection points: 2
#     Edge 98, Type (0, 1), BuildingBlock: KIFKEQ_clean_linker_1, # of connection points: 2
#     Edge 99, Type (0, 1), BuildingBlock: KIFKEQ_clean_linker_1, # of connection points: 2
#     Edge 100, Type (0, 1), BuildingBlock: KIFKEQ_clean_linker_1, # of connection points: 2
#     Edge 101, Type (0, 1), BuildingBlock: KIFKEQ_clean_linker_1, # of connection points: 2
#     Edge 102, Type (0, 1), BuildingBlock: KIFKEQ_clean_linker_1, # of connection points: 2
#     Edge 103, Type (0, 1), BuildingBlock: KIFKEQ_clean_linker_1, # of connection points: 2
#     Edge 104, Type (0, 1), BuildingBlock: KIFKEQ_clean_linker_1, # of connection points: 2
#     Edge 105, Type (0, 1), BuildingBlock: KIFKEQ_clean_linker_1, # of connection points: 2
#     Edge 106, Type (0, 1), BuildingBlock: KIFKEQ_clean_linker_1, # of connection points: 2
#     Edge 107, Type (0, 1), BuildingBlock: KIFKEQ_clean_linker_1, # of connection points: 2
# Relax obj value: 0.059
# Max RMSD: 0.186
# Mean RMSD: 0.100
data_MOF--net-ptr--node1-TATPOV_clean_sbu_0--node2-MUDLON_clean_linker_0--edge1-KIFKEQ_clean_linker_1
_symmetry_space_group_name_H-M    P1
_symmetry_Int_Tables_number       1
_symmetry_cell_setting            triclinic
loop_
_symmetry_equiv_pos_as_xyz
'x, y, z'
_cell_length_a     106.08421
_cell_length_b     107.54039
_cell_length_c     62.19353
_cell_angle_alpha  89.520031
_cell_angle_beta   90.956638
_cell_angle_gamma 121.33023
loop_
_atom_site_label
_atom_site_type_symbol
_atom_site_fract_x
_atom_site_fract_y
_atom_site_fract_z
_atom_type_partial_charge
Zn0 Zn 0.96798 0.37194 0.02373 0.0
Zn1 Zn 0.99328 0.37228 0.02271 0.0
O2 O 0.97714 0.35032 0.02023 0.0
O3 O 0.9564 0.35007 0.02371 0.0
O4 O 0.01225 0.37221 0.02551 0.0
O5 O 0.97349 0.38302 0.05163 0.0
O6 O 0.99419 0.38301 0.05073 0.0
C7 C 0.96308 0.34328 0.02129 0.0
C8 C 0.98606 0.38694 0.98655 0.0
O9 O 0.99523 0.38405 0.99523 0.0
O10 O 0.97379 0.38275 0.99538 0.0
C11 C 0.01601 0.36496 0.01403 0.0
O12 O 0.00734 0.35702 0.99807 0.0
C13 C 0.98587 0.38655 0.05999 0.0
Zn14 Zn 0.64447 0.60666 0.01493 0.0
Zn15 Zn 0.64426 0.63133 0.02165 0.0
O16 O 0.66605 0.63844 0.01503 0.0
O17 O 0.66619 0.61844 0.00838 0.0
O18 O 0.64455 0.64998 0.02793 0.0
O19 O 0.63794 0.6002 0.04525 0.0
O20 O 0.63605 0.61946 0.04973 0.0
C21 C 0.673 0.63218 0.00987 0.0
C22 C 0.62494 0.61026 0.9859 0.0
O23 O 0.63012 0.6224 0.9956 0.0
O24 O 0.62907 0.60154 0.99144 0.0
C25 C 0.6534 0.66199 0.01875 0.0
O26 O 0.66245 0.66234 0.00426 0.0
C27 C 0.63451 0.60759 0.05684 0.0
Zn28 Zn 0.36645 0.97136 0.02084 0.0
Zn29 Zn 0.36954 0.99729 0.01546 0.0
O30 O 0.34715 0.9835 0.02123 0.0
O31 O 0.3445 0.96184 0.02324 0.0
O32 O 0.3712 0.0166 0.00925 0.0
O33 O 0.37557 0.97258 0.99233 0.0
O34 O 0.37726 0.99365 0.98719 0.0
C35 C 0.33891 0.96974 0.02351 0.0
C36 C 0.3857 0.99227 0.0527 0.0
O37 O 0.3833 1.001 0.04189 0.0
O38 O 0.37943 0.97902 0.04724 0.0
C39 C 0.36548 0.02208 0.02076 0.0
O40 O 0.3585 0.01527 0.03832 0.0
C41 C 0.37922 0.98358 0.9806 0.0
Zn42 Zn 0.03447 0.63462 0.00915 0.0
Zn43 Zn 0.00934 0.63486 0.01245 0.0
O44 O 0.02617 0.65658 0.01439 0.0
O45 O 0.04675 0.6564 0.01236 0.0
O46 O 0.99077 0.6359 0.01176 0.0
O47 O 0.0284 0.62542 0.97971 0.0
O48 O 0.00708 0.62387 0.98415 0.0
C49 C 0.04024 0.66338 0.01445 0.0
C50 C 0.01649 0.61865 0.04615 0.0
O51 O 0.00796 0.62294 0.03938 0.0
O52 O 0.02809 0.62199 0.03593 0.0
C53 C 0.99003 0.64622 0.0203 0.0
O54 O 1.00142 0.65623 0.03139 0.0
C55 C 0.01546 0.62126 0.97307 0.0
Zn56 Zn 0.36222 0.39373 0.01702 0.0
Zn57 Zn 0.3623 0.36908 0.0121 0.0
O58 O 0.3402 0.36225 0.01593 0.0
O59 O 0.34009 0.38265 0.01695 0.0
O60 O 0.36153 0.35025 0.00601 0.0
O61 O 0.37308 0.40177 0.98928 0.0
O62 O 0.37259 0.38123 0.98505 0.0
C63 C 0.33315 0.36888 0.01708 0.0
C64 C 0.37819 0.38853 0.05079 0.0
O65 O 0.37517 0.37743 0.03953 0.0
O66 O 0.37351 0.39678 0.045 0.0
C67 C 0.35523 0.3391 0.0181 0.0
O68 O 0.34927 0.33979 0.03606 0.0
C69 C 0.37622 0.39389 0.97835 0.0
Zn70 Zn 0.63529 0.02782 0.01739 0.0
Zn71 Zn 0.63332 1.00183 0.01751 0.0
O72 O 0.65555 0.01723 0.01379 0.0
O73 O 0.65736 0.03853 0.01496 0.0
O74 O 0.63399 0.98358 0.02236 0.0
O75 O 0.62615 0.02419 0.04671 0.0
O76 O 0.6231 0.00233 0.04516 0.0
C77 C 0.66341 0.03109 0.01327 0.0
C78 C 0.61757 0.00792 0.98193 0.0
O79 O 0.62072 0.99902 0.99045 0.0
O80 O 0.62239 0.02035 0.99033 0.0
C81 C 0.63108 0.97311 0.00981 0.0
O82 O 0.62644 0.97305 0.99008 0.0
C83 C 0.62134 0.01171 0.0548 0.0
Zn84 Zn 0.63647 0.70592 0.35472 0.0
Zn85 Zn 0.66256 0.70692 0.35487 0.0
O86 O 0.64635 0.68526 0.35151 0.0
O87 O 0.62496 0.68387 0.35344 0.0
O88 O 0.68113 0.70598 0.35709 0.0
O89 O 0.64186 0.71628 0.38335 0.0
O90 O 0.66313 0.71731 0.38302 0.0
C91 C 0.63229 0.67771 0.35145 0.0
C92 C 0.65599 0.72218 0.31896 0.0
O93 O 0.66482 0.71894 0.32787 0.0
O94 O 0.64348 0.71784 0.32712 0.0
C95 C 0.68282 0.69747 0.34503 0.0
O96 O 0.67278 0.68999 0.33015 0.0
C97 C 0.65426 0.72021 0.39207 0.0
Zn98 Zn 0.30342 0.94182 0.34147 0.0
Zn99 Zn 0.30544 0.96693 0.3516 0.0
O100 O 0.32689 0.97293 0.34416 0.0
O101 O 0.32488 0.95249 0.33357 0.0
O102 O 0.30723 0.98607 0.35956 0.0
O103 O 0.29757 0.93465 0.37165 0.0
O104 O 0.29733 0.95449 0.3793 0.0
C105 C 0.33276 0.96607 0.33691 0.0
C106 C 0.28442 0.94755 0.31536 0.0
O107 O 0.29071 0.9595 0.32582 0.0
O108 O 0.28765 0.93797 0.31944 0.0
C109 C 0.31585 0.99776 0.3495 0.0
O110 O 0.32355 0.99731 0.33351 0.0
C111 C 0.2952 0.94209 0.38483 0.0
Zn112 Zn 0.03784 0.31109 0.3529 0.0
Zn113 Zn 0.04088 0.33773 0.3522 0.0
O114 O 0.01878 0.3238 0.35816 0.0
O115 O 0.01596 0.30201 0.35797 0.0
O116 O 0.0427 0.35728 0.34796 0.0
O117 O 0.04541 0.31353 0.32274 0.0
O118 O 0.04857 0.33543 0.32313 0.0
C119 C 0.01054 0.31001 0.35986 0.0
C120 C 0.05796 0.33131 0.38581 0.0
O121 O 0.05434 0.34005 0.37801 0.0
O122 O 0.0526 0.31869 0.37785 0.0
C123 C 0.03621 0.36224 0.35883 0.0
O124 O 0.02802 0.35465 0.37513 0.0
C125 C 0.04968 0.32561 0.31357 0.0
Zn126 Zn 0.70447 0.97008 0.34678 0.0
Zn127 Zn 0.67917 0.96928 0.34125 0.0
O128 O 0.69492 0.9913 0.34385 0.0
O129 O 0.71599 0.99195 0.34533 0.0
O130 O 0.6603 0.96923 0.33539 0.0
O131 O 0.70067 0.95798 0.3203 0.0
O132 O 0.68051 0.95864 0.31442 0.0
C133 C 0.70899 0.99856 0.34492 0.0
C134 C 0.68424 0.95576 0.38156 0.0
O135 O 0.67554 0.9579 0.36988 0.0
O136 O 0.69726 0.9603 0.37546 0.0
C137 C 0.65643 0.97654 0.34653 0.0
O138 O 0.66474 0.98416 0.36297 0.0
C139 C 0.68942 0.9547 0.30875 0.0
Zn140 Zn 0.03115 0.73281 0.35829 0.0
Zn141 Zn 0.03039 0.70799 0.34955 0.0
O142 O 0.00862 0.70155 0.35517 0.0
O143 O 0.00896 0.72203 0.35933 0.0
O144 O 0.02888 0.68914 0.3408 0.0
O145 O 0.04194 0.74174 0.33062 0.0
O146 O 0.03985 0.72082 0.32285 0.0
C147 C 1.00181 0.70826 0.3583 0.0
C148 C 0.0474 0.72593 0.38912 0.0
O149 O 0.04409 0.71536 0.37643 0.0
O150 O 0.04271 0.73444 0.38536 0.0
C151 C 0.03025 0.68041 0.35316 0.0
O152 O 0.03302 0.68348 0.37373 0.0
C153 C 0.04408 0.73393 0.31786 0.0
Zn154 Zn 0.29837 0.36196 0.34576 0.0
Zn155 Zn 0.29817 0.33667 0.34602 0.0
O156 O 0.32003 0.35257 0.34122 0.0
O157 O 0.32045 0.37326 0.34175 0.0
O158 O 0.29844 0.31796 0.34889 0.0
O159 O 0.29013 0.35816 0.37554 0.0
O160 O 0.28924 0.33726 0.37511 0.0
C161 C 0.32715 0.36643 0.34003 0.0
C162 C 0.28015 0.34161 0.31191 0.0
O163 O 0.28472 0.33363 0.31979 0.0
O164 O 0.28427 0.35391 0.32017 0.0
C165 C 0.30807 0.31599 0.34029 0.0
O166 O 0.31809 0.32622 0.32797 0.0
C167 C 0.28685 0.34629 0.38461 0.0
Zn168 Zn 0.30246 0.0359 0.68346 0.0
Zn169 Zn 0.32923 0.03832 0.68382 0.0
O170 O 0.31408 0.0163 0.6811 0.0
O171 O 0.29221 0.01397 0.68076 0.0
O172 O 0.34872 0.03914 0.6865 0.0
O173 O 0.30693 0.04558 0.71268 0.0
O174 O 0.32888 0.04813 0.71192 0.0
C175 C 0.30005 0.00827 0.67998 0.0
C176 C 0.32168 0.05315 0.64818 0.0
O177 O 0.33078 0.05011 0.65668 0.0
O178 O 0.30918 0.04844 0.65658 0.0
C179 C 0.35119 0.03037 0.67648 0.0
O180 O 0.34113 0.02101 0.66296 0.0
C181 C 0.31949 0.05014 0.72129 0.0
Zn182 Zn 0.9758 0.27791 0.68133 0.0
Zn183 Zn 0.97723 0.30321 0.6877 0.0
O184 O 0.99884 0.30939 0.68096 0.0
O185 O 0.99742 0.28859 0.67457 0.0
O186 O 0.97888 0.32225 0.69549 0.0
O187 O 0.96873 0.27113 0.71145 0.0
O188 O 0.96841 0.29127 0.71543 0.0
C189 C 0.00499 0.30234 0.6758 0.0
C190 C 0.95707 0.28274 0.65216 0.0
O191 O 0.96269 0.29497 0.66178 0.0
O192 O 0.96081 0.27373 0.65775 0.0
C193 C 0.97886 0.33146 0.68253 0.0
O194 O 0.97755 0.32882 0.66177 0.0
C195 C 0.96587 0.27907 0.72274 0.0
Zn196 Zn 0.70273 0.64428 0.68815 0.0
Zn197 Zn 0.70419 0.66941 0.68166 0.0
O198 O 0.68235 0.65514 0.68968 0.0
O199 O 0.68182 0.63499 0.69827 0.0
O200 O 0.70425 0.6878 0.6743 0.0
O201 O 0.70676 0.64292 0.65708 0.0
O202 O 0.71108 0.66516 0.65312 0.0
C203 C 0.67533 0.64204 0.69648 0.0
C204 C 0.72462 0.66766 0.715 0.0
O205 O 0.7192 0.67485 0.70685 0.0
O206 O 0.71988 0.65472 0.70899 0.0
C207 C 0.70139 0.69497 0.68747 0.0
O208 O 0.69875 0.69073 0.70762 0.0
C209 C 0.71095 0.65411 0.64554 0.0
Zn210 Zn 0.37151 0.30104 0.68046 0.0
Zn211 Zn 0.34654 0.30084 0.6789 0.0
O212 O 0.36262 0.32282 0.68162 0.0
O213 O 0.38329 0.32286 0.67886 0.0
O214 O 0.32758 0.30087 0.67469 0.0
O215 O 0.36651 0.28894 0.65378 0.0
O216 O 0.34659 0.29034 0.65102 0.0
C217 C 0.37668 0.32977 0.68069 0.0
C218 C 0.35303 0.28682 0.71705 0.0
O219 O 0.34387 0.28912 0.70693 0.0
O220 O 0.36567 0.29128 0.70936 0.0
C221 C 0.32357 0.30806 0.68582 0.0
O222 O 0.33189 0.3159 0.7021 0.0
C223 C 0.35487 0.28608 0.64363 0.0
Zn224 Zn 0.69917 0.06706 0.68124 0.0
Zn225 Zn 0.69805 0.04163 0.67726 0.0
O226 O 0.67645 0.03568 0.68291 0.0
O227 O 0.67726 0.05643 0.68642 0.0
O228 O 0.69623 0.02236 0.67071 0.0
O229 O 0.70708 0.07331 0.65141 0.0
O230 O 0.70754 0.05313 0.64935 0.0
C231 C 0.66994 0.04264 0.68631 0.0
C232 C 0.71704 0.06249 0.71291 0.0
O233 O 0.71171 0.05009 0.70395 0.0
O234 O 0.71354 0.07143 0.70598 0.0
C235 C 0.69458 0.01264 0.68413 0.0
O236 O 0.69432 0.01495 0.70479 0.0
C237 C 0.71023 0.06518 0.64117 0.0
Zn238 Zn 0.97209 0.70094 0.67387 0.0
Zn239 Zn 0.96958 0.67513 0.67925 0.0
O240 O 0.99188 0.68935 0.67308 0.0
O241 O 0.99366 0.71048 0.66802 0.0
O242 O 0.96835 0.656 0.68547 0.0
O243 O 0.96524 0.70053 0.70393 0.0
O244 O 0.96186 0.67862 0.70758 0.0
C245 C 0.99964 0.70293 0.66879 0.0
C246 C 0.95188 0.67923 0.6434 0.0
O247 O 0.95547 0.67101 0.65317 0.0
O248 O 0.95742 0.69232 0.64935 0.0
C249 C 0.97553 0.65143 0.67543 0.0
O250 O 0.98393 0.65915 0.65938 0.0
C251 C 0.96105 0.68918 0.71509 0.0
H252 H 0.22389 0.33796 0.12917 0.0
N253 N 0.19663 0.31531 0.11672 0.0
H254 H 0.23664 0.34025 0.16327 0.0
H255 H 0.18609 0.29786 0.15092 0.0
H256 H 0.19881 0.30028 0.18545 0.0
H257 H 0.2076 0.29891 0.10604 0.0
H258 H 0.22822 0.30544 0.0822 0.0
H259 H 0.20787 0.33767 0.08626 0.0
H260 H 0.22791 0.34385 0.06229 0.0
H261 H 0.20449 0.34368 0.12317 0.0
H262 H 0.16776 0.30088 0.10806 0.0
H263 H 0.18847 0.35348 0.12105 0.0
H264 H 0.15119 0.31033 0.10758 0.0
H265 H 0.12779 0.37464 0.14179 0.0
H266 H 0.11361 0.36967 0.17472 0.0
H267 H 0.10018 0.32428 0.1705 0.0
H268 H 0.11407 0.32934 0.1373 0.0
H269 H 0.10293 0.33302 0.10356 0.0
H270 H 0.08608 0.33487 0.07865 0.0
H271 H 0.12021 0.37904 0.06351 0.0
H272 H 0.13671 0.37729 0.08963 0.0
H273 H 0.15487 0.36505 0.13863 0.0
H274 H 0.17089 0.35516 0.1387 0.0
H275 H 0.14277 0.32374 0.09036 0.0
N276 N 0.1298 0.35569 0.11716 0.0
H277 H 0.12619 0.333 0.09181 0.0
C278 C 0.20401 0.31759 0.13737 0.0
C279 C 0.21827 0.32969 0.14132 0.0
C280 C 0.2256 0.33096 0.16078 0.0
C281 C 0.21876 0.32036 0.17687 0.0
C282 C 0.20432 0.30859 0.17329 0.0
C283 C 0.19706 0.3072 0.15364 0.0
C284 C 0.20626 0.31786 0.09872 0.0
C285 C 0.21177 0.30858 0.09618 0.0
C286 C 0.22356 0.31232 0.08249 0.0
C287 C 0.22997 0.32537 0.07074 0.0
C288 C 0.22354 0.33395 0.07167 0.0
C289 C 0.21191 0.33033 0.08554 0.0
C290 C 0.18736 0.3215 0.11547 0.0
C291 C 0.19291 0.33633 0.11956 0.0
C292 C 0.18361 0.34191 0.11855 0.0
C293 C 0.16837 0.33274 0.11428 0.0
C294 C 0.16285 0.31786 0.11047 0.0
C295 C 0.17228 0.31237 0.11091 0.0
C296 C 0.12206 0.35243 0.13722 0.0
C297 C 0.12185 0.36366 0.14813 0.0
C298 C 0.11379 0.36079 0.16695 0.0
C299 C 0.10576 0.34657 0.17527 0.0
C300 C 0.10609 0.33532 0.16439 0.0
C301 C 0.11412 0.33821 0.14551 0.0
C302 C 0.12105 0.35516 0.09876 0.0
C303 C 0.10689 0.34302 0.09463 0.0
C304 C 0.09725 0.34408 0.08018 0.0
C305 C 0.10162 0.35723 0.0693 0.0
C306 C 0.11628 0.36888 0.07203 0.0
C307 C 0.12583 0.36786 0.08672 0.0
C308 C 0.1394 0.34996 0.11516 0.0
C309 C 0.15221 0.35605 0.128 0.0
C310 C 0.16145 0.35041 0.12784 0.0
C311 C 0.15834 0.33867 0.11435 0.0
C312 C 0.14551 0.33264 0.10123 0.0
C313 C 0.13604 0.33808 0.10182 0.0
H314 H 0.70207 0.78964 0.13645 0.0
N315 N 0.68251 0.79344 0.11486 0.0
H316 H 0.69987 0.77988 0.17285 0.0
H317 H 0.6602 0.78664 0.14286 0.0
H318 H 0.65773 0.77663 0.179 0.0
H319 H 0.65432 0.76974 0.11232 0.0
H320 H 0.64637 0.74775 0.09128 0.0
H321 H 0.69724 0.79014 0.08351 0.0
H322 H 0.68934 0.76812 0.06228 0.0
H323 H 0.70293 0.82121 0.11993 0.0
H324 H 0.65729 0.79292 0.1016 0.0
H325 H 0.7002 0.84226 0.11659 0.0
H326 H 0.65456 0.81398 0.09709 0.0
H327 H 0.69732 0.90508 0.12472 0.0
H328 H 0.69957 0.91698 0.15908 0.0
H329 H 0.65525 0.88272 0.17486 0.0
H330 H 0.65296 0.87141 0.13999 0.0
H331 H 0.64517 0.87394 0.10271 0.0
H332 H 0.63673 0.88704 0.07999 0.0
H333 H 0.68077 0.91348 0.055 0.0
H334 H 0.68909 0.90058 0.07825 0.0
H335 H 0.69598 0.87939 0.09461 0.0
H336 H 0.69756 0.85756 0.09279 0.0
H337 H 0.653 0.8319 0.11643 0.0
N338 N 0.67368 0.88146 0.10876 0.0
H339 H 0.65131 0.85374 0.1167 0.0
C340 C 0.68138 0.7889 0.13698 0.0
C341 C 0.69248 0.78699 0.14584 0.0
C342 C 0.69114 0.78132 0.16653 0.0
C343 C 0.67859 0.7774 0.1788 0.0
C344 C 0.66762 0.77968 0.17009 0.0
C345 C 0.66898 0.78536 0.14937 0.0
C346 C 0.67647 0.78162 0.09955 0.0
C347 C 0.66194 0.76965 0.10109 0.0
C348 C 0.65743 0.75701 0.08915 0.0
C349 C 0.66728 0.75613 0.07531 0.0
C350 C 0.68145 0.76848 0.0727 0.0
C351 C 0.68599 0.78107 0.08478 0.0
C352 C 0.68045 0.80551 0.11083 0.0
C353 C 0.69239 0.8196 0.11474 0.0
C354 C 0.69079 0.83164 0.11266 0.0
C355 C 0.67717 0.82994 0.10635 0.0
C356 C 0.66518 0.81576 0.10218 0.0
C357 C 0.66677 0.80365 0.10453 0.0
C358 C 0.6751 0.88731 0.12996 0.0
C359 C 0.68819 0.90011 0.13577 0.0
C360 C 0.68944 0.90684 0.15546 0.0
C361 C 0.6776 0.90082 0.16989 0.0
C362 C 0.66453 0.8878 0.1641 0.0
C363 C 0.66326 0.88117 0.14426 0.0
C364 C 0.66777 0.88642 0.09218 0.0
C365 C 0.65286 0.8823 0.09191 0.0
C366 C 0.64807 0.88979 0.07888 0.0
C367 C 0.65814 0.90148 0.06595 0.0
C368 C 0.6728 0.90473 0.06508 0.0
C369 C 0.67755 0.89729 0.07814 0.0
C370 C 0.67367 0.8682 0.10611 0.0
C371 C 0.68651 0.86898 0.09908 0.0
C372 C 0.68742 0.85649 0.09829 0.0
C373 C 0.67552 0.84291 0.1049 0.0
C374 C 0.66238 0.84209 0.11113 0.0
C375 C 0.66143 0.85461 0.11157 0.0
H376 H 0.13489 0.78671 0.16064 0.0
N377 N 0.12626 0.79394 0.12477 0.0
H378 H 0.12104 0.77717 0.19407 0.0
H379 H 0.09955 0.79084 0.13363 0.0
H380 H 0.0856 0.78109 0.16664 0.0
H381 H 0.13117 0.77372 0.11057 0.0
H382 H 0.11703 0.75524 0.08304 0.0
H383 H 0.10548 0.79353 0.09755 0.0
H384 H 0.09077 0.77461 0.07063 0.0
H385 H 0.15501 0.80707 0.1185 0.0
H386 H 0.11957 0.81532 0.12372 0.0
H387 H 0.17283 0.83321 0.11631 0.0
H388 H 0.13735 0.84158 0.12246 0.0
H389 H 0.22562 0.90407 0.13816 0.0
H390 H 0.23793 0.91478 0.17223 0.0
H391 H 0.20231 0.92095 0.18941 0.0
H392 H 0.19005 0.91053 0.15457 0.0
H393 H 0.2128 0.92779 0.10594 0.0
H394 H 0.23444 0.93927 0.08292 0.0
H395 H 0.23175 0.89796 0.07672 0.0
H396 H 0.21079 0.8868 0.10033 0.0
H397 H 0.2018 0.87897 0.14155 0.0
H398 H 0.18338 0.85321 0.14044 0.0
H399 H 0.15494 0.86208 0.10118 0.0
N400 N 0.19975 0.90117 0.12279 0.0
H401 H 0.1734 0.88821 0.10312 0.0
C402 C 0.11824 0.78934 0.14459 0.0
C403 C 0.1242 0.78564 0.16199 0.0
C404 C 0.11631 0.78022 0.18101 0.0
C405 C 0.10221 0.77829 0.18283 0.0
C406 C 0.09637 0.78229 0.16553 0.0
C407 C 0.10436 0.78789 0.14664 0.0
C408 C 0.11922 0.7848 0.10632 0.0
C409 C 0.12262 0.77418 0.1015 0.0
C410 C 0.11455 0.76368 0.0858 0.0
C411 C 0.10276 0.76347 0.07485 0.0
C412 C 0.09974 0.7745 0.079 0.0
C413 C 0.10808 0.78524 0.09441 0.0
C414 C 0.13606 0.80929 0.12147 0.0
C415 C 0.15111 0.81458 0.11906 0.0
C416 C 0.16127 0.82953 0.11804 0.0
C417 C 0.15659 0.83956 0.11961 0.0
C418 C 0.14136 0.83419 0.12114 0.0
C419 C 0.13116 0.81917 0.12198 0.0
C420 C 0.20693 0.90671 0.14351 0.0
C421 C 0.22043 0.90782 0.14901 0.0
C422 C 0.22751 0.91398 0.16853 0.0
C423 C 0.22116 0.91887 0.18325 0.0
C424 C 0.20745 0.91732 0.17822 0.0
C425 C 0.20046 0.91138 0.15842 0.0
C426 C 0.2101 0.90647 0.10519 0.0
C427 C 0.21668 0.92115 0.09916 0.0
C428 C 0.22906 0.92769 0.08597 0.0
C429 C 0.23504 0.91961 0.07831 0.0
C430 C 0.22768 0.90461 0.08283 0.0
C431 C 0.21547 0.89814 0.09624 0.0
C432 C 0.18895 0.88569 0.12259 0.0
C433 C 0.19158 0.87551 0.1329 0.0
C434 C 0.18104 0.86065 0.13199 0.0
C435 C 0.16766 0.85549 0.12058 0.0
C436 C 0.16504 0.86566 0.11029 0.0
C437 C 0.17559 0.88058 0.1113 0.0
H438 H 0.35544 0.23338 0.89883 0.0
N439 N 0.33053 0.21049 0.91621 0.0
H440 H 0.35746 0.24431 0.86361 0.0
H441 H 0.30943 0.20218 0.88625 0.0
H442 H 0.31129 0.21346 0.85094 0.0
H443 H 0.31102 0.2165 0.93095 0.0
H444 H 0.31574 0.23685 0.95383 0.0
H445 H 0.35625 0.22802 0.93964 0.0
H446 H 0.3609 0.24793 0.96299 0.0
H447 H 0.35878 0.21566 0.91288 0.0
H448 H 0.3136 0.18222 0.92441 0.0
H449 H 0.36617 0.19794 0.9156 0.0
H450 H 0.3207 0.16393 0.92524 0.0
H451 H 0.37826 0.13279 0.88745 0.0
H452 H 0.37105 0.11819 0.85458 0.0
H453 H 0.32612 0.10775 0.86218 0.0
H454 H 0.33344 0.12209 0.89536 0.0
H455 H 0.33742 0.11104 0.9288 0.0
H456 H 0.33881 0.09392 0.95313 0.0
H457 H 0.38515 0.12514 0.96455 0.0
H458 H 0.38373 0.1419 0.9392 0.0
H459 H 0.37308 0.16196 0.89449 0.0
H460 H 0.36579 0.17993 0.89612 0.0
H461 H 0.33219 0.15305 0.94213 0.0
N462 N 0.361 0.1364 0.91383 0.0
H463 H 0.33893 0.13464 0.93904 0.0
C464 C 0.33231 0.21669 0.89501 0.0
C465 C 0.34583 0.22866 0.88835 0.0
C466 C 0.34696 0.23499 0.86823 0.0
C467 C 0.33454 0.22969 0.85453 0.0
C468 C 0.32102 0.21777 0.86122 0.0
C469 C 0.31996 0.21128 0.88124 0.0
C470 C 0.33316 0.22059 0.93338 0.0
C471 C 0.32183 0.22311 0.93834 0.0
C472 C 0.32457 0.23477 0.95148 0.0
C473 C 0.33878 0.24419 0.96012 0.0
C474 C 0.34991 0.2411 0.95625 0.0
C475 C 0.34718 0.22951 0.94294 0.0
C476 C 0.33557 0.20039 0.91893 0.0
C477 C 0.35039 0.20453 0.91625 0.0
C478 C 0.3546 0.1942 0.91737 0.0
C479 C 0.34406 0.17932 0.92039 0.0
C480 C 0.32924 0.17524 0.92325 0.0
C481 C 0.32511 0.18568 0.92266 0.0
C482 C 0.35645 0.12858 0.89372 0.0
C483 C 0.3669 0.12744 0.88185 0.0
C484 C 0.36275 0.11914 0.86305 0.0
C485 C 0.34799 0.11179 0.8557 0.0
C486 C 0.33754 0.11311 0.86752 0.0
C487 C 0.34171 0.1214 0.88638 0.0
C488 C 0.36057 0.12772 0.93196 0.0
C489 C 0.34781 0.11432 0.93685 0.0
C490 C 0.34862 0.10453 0.95092 0.0
C491 C 0.36218 0.10799 0.96057 0.0
C492 C 0.37462 0.12192 0.957 0.0
C493 C 0.37381 0.13162 0.94276 0.0
C494 C 0.35675 0.14704 0.91675 0.0
C495 C 0.36418 0.16001 0.905 0.0
C496 C 0.36004 0.17035 0.90615 0.0
C497 C 0.34847 0.16817 0.91951 0.0
C498 C 0.34105 0.15514 0.93148 0.0
C499 C 0.34502 0.1446 0.92993 0.0
H500 H 0.77467 0.10564 0.89964 0.0
N501 N 0.80063 0.10733 0.91091 0.0
H502 H 0.7615 0.09747 0.86549 0.0
H503 H 0.80875 0.09902 0.87607 0.0
H504 H 0.79581 0.09127 0.8412 0.0
H505 H 0.78692 0.07939 0.92202 0.0
H506 H 0.7661 0.06648 0.94628 0.0
H507 H 0.792 0.12025 0.94155 0.0
H508 H 0.77167 0.1075 0.96582 0.0
H509 H 0.796 0.12998 0.90486 0.0
H510 H 0.82953 0.1197 0.91849 0.0
H511 H 0.81443 0.15571 0.90546 0.0
H512 H 0.84846 0.14567 0.91769 0.0
H513 H 0.87854 0.23661 0.88378 0.0
H514 H 0.89464 0.24785 0.85301 0.0
H515 H 0.90795 0.21611 0.85774 0.0
H516 H 0.89218 0.20534 0.88912 0.0
H517 H 0.90254 0.22204 0.92379 0.0
H518 H 0.9165 0.24072 0.95086 0.0
H519 H 0.87779 0.24303 0.96353 0.0
H520 H 0.86432 0.22511 0.93521 0.0
H521 H 0.85066 0.19968 0.8848 0.0
H522 H 0.83298 0.1736 0.88534 0.0
H523 H 0.85935 0.16846 0.9344 0.0
N524 N 0.87534 0.21463 0.90762 0.0
H525 H 0.87756 0.19456 0.93245 0.0
C526 C 0.79275 0.1029 0.8905 0.0
C527 C 0.77941 0.10253 0.88704 0.0
C528 C 0.7719 0.09792 0.86736 0.0
C529 C 0.7776 0.09375 0.85049 0.0
C530 C 0.79099 0.09422 0.85391 0.0
C531 C 0.79847 0.09874 0.87373 0.0
C532 C 0.79096 0.10079 0.92918 0.0
C533 C 0.78387 0.08563 0.93191 0.0
C534 C 0.77196 0.07825 0.94583 0.0
C535 C 0.76698 0.08593 0.95759 0.0
C536 C 0.77494 0.10121 0.95645 0.0
C537 C 0.78673 0.10857 0.94241 0.0
C538 C 0.81133 0.12281 0.91188 0.0
C539 C 0.80737 0.13325 0.90787 0.0
C540 C 0.81805 0.14807 0.908 0.0
C541 C 0.83308 0.15293 0.91137 0.0
C542 C 0.83702 0.14245 0.91534 0.0
C543 C 0.82623 0.12758 0.91569 0.0
C544 C 0.88408 0.22013 0.88852 0.0
C545 C 0.88486 0.23204 0.87799 0.0
C546 C 0.89402 0.23839 0.86036 0.0
C547 C 0.90258 0.23286 0.85279 0.0
C548 C 0.90166 0.22076 0.86328 0.0
C549 C 0.89253 0.21447 0.88106 0.0
C550 C 0.88249 0.22252 0.92709 0.0
C551 C 0.89701 0.22644 0.93261 0.0
C552 C 0.90497 0.23708 0.94828 0.0
C553 C 0.89844 0.24376 0.95903 0.0
C554 C 0.88338 0.23855 0.95506 0.0
C555 C 0.87556 0.22816 0.93909 0.0
C556 C 0.86527 0.19911 0.90875 0.0
C557 C 0.85262 0.19288 0.89561 0.0
C558 C 0.84243 0.17795 0.89614 0.0
C559 C 0.84448 0.16881 0.91025 0.0
C560 C 0.85737 0.17506 0.92324 0.0
C561 C 0.86776 0.19005 0.92233 0.0
H562 H 0.81873 0.71876 0.87664 0.0
N563 N 0.81101 0.69895 0.9077 0.0
H564 H 0.80696 0.71558 0.84116 0.0
H565 H 0.78862 0.67336 0.89046 0.0
H566 H 0.77647 0.67024 0.8559 0.0
H567 H 0.79658 0.67251 0.92809 0.0
H568 H 0.77553 0.66383 0.95177 0.0
H569 H 0.80089 0.71459 0.92475 0.0
H570 H 0.78005 0.70615 0.94902 0.0
H571 H 0.83537 0.7152 0.93083 0.0
H572 H 0.81308 0.67593 0.89291 0.0
H573 H 0.85613 0.71168 0.93672 0.0
H574 H 0.83406 0.67279 0.89756 0.0
H575 H 0.92228 0.70932 0.89902 0.0
H576 H 0.93168 0.70869 0.8635 0.0
H577 H 0.89566 0.66438 0.85492 0.0
H578 H 0.88602 0.66528 0.89009 0.0
H579 H 0.88821 0.65888 0.92498 0.0
H580 H 0.8992 0.64869 0.94855 0.0
H581 H 0.93017 0.69173 0.97295 0.0
H582 H 0.91906 0.70184 0.94924 0.0
H583 H 0.89784 0.71192 0.91915 0.0
H584 H 0.87603 0.714 0.91786 0.0
H585 H 0.84824 0.66706 0.92045 0.0
N586 N 0.89892 0.68794 0.91857 0.0
H587 H 0.87025 0.6652 0.92065 0.0
C588 C 0.80462 0.69639 0.88628 0.0
C589 C 0.80965 0.70811 0.87197 0.0
C590 C 0.8028 0.7063 0.85182 0.0
C591 C 0.7907 0.69266 0.84562 0.0
C592 C 0.78588 0.68085 0.85988 0.0
C593 C 0.79279 0.68266 0.87987 0.0
C594 C 0.80028 0.69423 0.92456 0.0
C595 C 0.79324 0.68001 0.9329 0.0
C596 C 0.7812 0.67507 0.94654 0.0
C597 C 0.77599 0.68425 0.95216 0.0
C598 C 0.7836 0.69871 0.94473 0.0
C599 C 0.79559 0.70361 0.93104 0.0
C600 C 0.82278 0.69608 0.91112 0.0
C601 C 0.83502 0.70588 0.92366 0.0
C602 C 0.84692 0.70388 0.92686 0.0
C603 C 0.84696 0.69206 0.91736 0.0
C604 C 0.83444 0.68196 0.9053 0.0
C605 C 0.82243 0.68387 0.90237 0.0
C606 C 0.90361 0.68735 0.89725 0.0
C607 C 0.91637 0.69955 0.88935 0.0
C608 C 0.92169 0.69916 0.86914 0.0
C609 C 0.91442 0.68645 0.85661 0.0
C610 C 0.90153 0.67424 0.86442 0.0
C611 C 0.89605 0.67474 0.8845 0.0
C612 C 0.90288 0.6812 0.93529 0.0
C613 C 0.8971 0.66611 0.93573 0.0
C614 C 0.90348 0.66028 0.94915 0.0
C615 C 0.91567 0.66942 0.96245 0.0
C616 C 0.92073 0.68437 0.96304 0.0
C617 C 0.91441 0.69018 0.94952 0.0
C618 C 0.88571 0.68848 0.92023 0.0
C619 C 0.88702 0.70211 0.91971 0.0
C620 C 0.8745 0.70325 0.91909 0.0
C621 C 0.86026 0.6907 0.91916 0.0
C622 C 0.85898 0.67697 0.92011 0.0
C623 C 0.87158 0.67587 0.92049 0.0
H624 H 0.74644 0.62991 0.46105 0.0
N625 N 0.77103 0.65034 0.44262 0.0
H626 H 0.73689 0.631 0.49622 0.0
H627 H 0.78505 0.6723 0.47211 0.0
H628 H 0.7753 0.6737 0.50693 0.0
H629 H 0.77889 0.67896 0.43942 0.0
H630 H 0.76699 0.68827 0.4163 0.0
H631 H 0.75413 0.63713 0.40837 0.0
H632 H 0.74283 0.64663 0.38394 0.0
H633 H 0.77359 0.62724 0.44527 0.0
H634 H 0.79909 0.6738 0.4377 0.0
H635 H 0.79615 0.62648 0.44651 0.0
H636 H 0.82186 0.6732 0.43796 0.0
H637 H 0.8568 0.62391 0.48284 0.0
H638 H 0.86895 0.62693 0.5181 0.0
H639 H 0.89337 0.67352 0.50911 0.0
H640 H 0.88165 0.67046 0.47403 0.0
H641 H 0.87762 0.67153 0.43561 0.0
H642 H 0.89913 0.68016 0.41275 0.0
H643 H 0.89265 0.63701 0.41301 0.0
H644 H 0.8714 0.62863 0.43644 0.0
H645 H 0.83741 0.62663 0.43286 0.0
H646 H 0.8158 0.62877 0.42674 0.0
H647 H 0.83745 0.66957 0.46143 0.0
N648 N 0.86202 0.6446 0.45432 0.0
H649 H 0.85917 0.66773 0.46634 0.0
C650 C 0.76632 0.65103 0.46392 0.0
C651 C 0.75285 0.63941 0.47113 0.0
C652 C 0.74744 0.64006 0.49113 0.0
C653 C 0.75533 0.65249 0.50412 0.0
C654 C 0.76895 0.66408 0.49705 0.0
C655 C 0.7745 0.66329 0.4772 0.0
C656 C 0.76715 0.65719 0.42593 0.0
C657 C 0.7712 0.67186 0.42721 0.0
C658 C 0.76441 0.67724 0.41375 0.0
C659 C 0.75363 0.66813 0.39846 0.0
C660 C 0.7507 0.65385 0.39595 0.0
C661 C 0.7573 0.64844 0.40967 0.0
C662 C 0.78463 0.65049 0.44122 0.0
C663 C 0.78411 0.63727 0.44343 0.0
C664 C 0.79705 0.63688 0.444 0.0
C665 C 0.81093 0.64977 0.4422 0.0
C666 C 0.81142 0.66306 0.43963 0.0
C667 C 0.79839 0.66344 0.43926 0.0
C668 C 0.86802 0.6469 0.47593 0.0
C669 C 0.86459 0.63476 0.48871 0.0
C670 C 0.87159 0.63649 0.5087 0.0
C671 C 0.88202 0.65046 0.51636 0.0
C672 C 0.88519 0.66264 0.50377 0.0
C673 C 0.8784 0.66089 0.48369 0.0
C674 C 0.87297 0.64942 0.43782 0.0
C675 C 0.88068 0.66388 0.43045 0.0
C676 C 0.89295 0.66878 0.41728 0.0
C677 C 0.89772 0.65931 0.41124 0.0
C678 C 0.88944 0.64465 0.41767 0.0
C679 C 0.87723 0.6398 0.43086 0.0
C680 C 0.84984 0.64679 0.4504 0.0
C681 C 0.8375 0.63608 0.43898 0.0
C682 C 0.82511 0.63729 0.43564 0.0
C683 C 0.82471 0.64924 0.44389 0.0
C684 C 0.83733 0.66025 0.45471 0.0
C685 C 0.8498 0.65911 0.45779 0.0
H686 H 0.36706 0.1263 0.46995 0.0
N687 N 0.34711 0.12951 0.44831 0.0
H688 H 0.36425 0.11479 0.50517 0.0
H689 H 0.32418 0.12116 0.47602 0.0
H690 H 0.32145 0.11007 0.51115 0.0
H691 H 0.31941 0.10541 0.44403 0.0
H692 H 0.31287 0.08397 0.42258 0.0
H693 H 0.36281 0.12802 0.41675 0.0
H694 H 0.35611 0.107 0.39399 0.0
H695 H 0.36933 0.15636 0.44188 0.0
H696 H 0.32193 0.13067 0.44415 0.0
H697 H 0.36841 0.17836 0.43693 0.0
H698 H 0.3208 0.15275 0.44145 0.0
H699 H 0.3621 0.24783 0.45554 0.0
H700 H 0.36065 0.25735 0.49046 0.0
H701 H 0.32297 0.21532 0.5064 0.0
H702 H 0.32444 0.20592 0.47124 0.0
H703 H 0.31525 0.21275 0.43674 0.0
H704 H 0.30505 0.22416 0.4139 0.0
H705 H 0.34733 0.24999 0.38341 0.0
H706 H 0.35737 0.23849 0.40631 0.0
H707 H 0.3651 0.21679 0.45509 0.0
H708 H 0.36516 0.19427 0.45613 0.0
H709 H 0.323 0.17233 0.42251 0.0
N710 N 0.3444 0.22128 0.43983 0.0
H711 H 0.32257 0.19478 0.42318 0.0
C712 C 0.34593 0.12468 0.47029 0.0
C713 C 0.35721 0.12301 0.4791 0.0
C714 C 0.35558 0.11644 0.49921 0.0
C715 C 0.34256 0.11138 0.51089 0.0
C716 C 0.33152 0.11362 0.50241 0.0
C717 C 0.33315 0.12015 0.48232 0.0
C718 C 0.34174 0.11823 0.43227 0.0
C719 C 0.3274 0.10591 0.43294 0.0
C720 C 0.32365 0.09363 0.4205 0.0
C721 C 0.33407 0.09354 0.40683 0.0
C722 C 0.34794 0.10643 0.40483 0.0
C723 C 0.35175 0.11857 0.41756 0.0
C724 C 0.34579 0.14198 0.44401 0.0
C725 C 0.35871 0.15554 0.44155 0.0
C726 C 0.35812 0.16814 0.43901 0.0
C727 C 0.34454 0.16756 0.43944 0.0
C728 C 0.33149 0.15378 0.44104 0.0
C729 C 0.3321 0.14109 0.44298 0.0
C730 C 0.34352 0.2262 0.46094 0.0
C731 C 0.35358 0.24069 0.46664 0.0
C732 C 0.35265 0.24611 0.48646 0.0
C733 C 0.34165 0.23708 0.50109 0.0
C734 C 0.3316 0.22249 0.49547 0.0
C735 C 0.33243 0.21711 0.47545 0.0
C736 C 0.33713 0.22484 0.42322 0.0
C737 C 0.32218 0.22054 0.42469 0.0
C738 C 0.3164 0.22717 0.41175 0.0
C739 C 0.32543 0.23813 0.39703 0.0
C740 C 0.34003 0.24152 0.39445 0.0
C741 C 0.34581 0.23495 0.40747 0.0
C742 C 0.34397 0.20763 0.43897 0.0
C743 C 0.35587 0.2071 0.44794 0.0
C744 C 0.35593 0.19417 0.44827 0.0
C745 C 0.34419 0.18133 0.43907 0.0
C746 C 0.33221 0.18187 0.42996 0.0
C747 C 0.332 0.19483 0.43012 0.0
H748 H 0.79563 0.10414 0.47666 0.0
N749 N 0.7986 0.12622 0.45326 0.0
H750 H 0.78013 0.09305 0.50812 0.0
H751 H 0.78268 0.13602 0.47354 0.0
H752 H 0.76754 0.12536 0.50535 0.0
H753 H 0.77261 0.12291 0.43806 0.0
H754 H 0.75661 0.10566 0.41035 0.0
H755 H 0.80571 0.11216 0.42587 0.0
H756 H 0.78977 0.09484 0.39817 0.0
H757 H 0.82607 0.13992 0.46815 0.0
H758 H 0.79426 0.14744 0.43627 0.0
H759 H 0.84387 0.16608 0.46899 0.0
H760 H 0.81216 0.17362 0.43625 0.0
H761 H 0.87599 0.21867 0.49419 0.0
H762 H 0.88634 0.22805 0.52962 0.0
H763 H 0.88659 0.26757 0.51549 0.0
H764 H 0.87614 0.25805 0.47966 0.0
H765 H 0.89815 0.23552 0.46814 0.0
H766 H 0.92024 0.24963 0.44687 0.0
H767 H 0.89609 0.26089 0.40243 0.0
H768 H 0.87382 0.24699 0.42434 0.0
H769 H 0.87738 0.21213 0.45182 0.0
H770 H 0.85952 0.18636 0.44738 0.0
H771 H 0.82417 0.19401 0.46014 0.0
N772 N 0.87147 0.23357 0.46172 0.0
H773 H 0.84223 0.22009 0.46362 0.0
C774 C 0.79041 0.12093 0.47288 0.0
C775 C 0.78963 0.10888 0.48305 0.0
C776 C 0.7808 0.10261 0.50104 0.0
C777 C 0.77256 0.1083 0.50928 0.0
C778 C 0.77357 0.12057 0.49926 0.0
C779 C 0.78236 0.12679 0.48118 0.0
C780 C 0.79037 0.11875 0.43411 0.0
C781 C 0.77662 0.11714 0.42904 0.0
C782 C 0.76742 0.10719 0.41327 0.0
C783 C 0.77185 0.09876 0.40221 0.0
C784 C 0.78606 0.10124 0.40622 0.0
C785 C 0.79519 0.11111 0.42206 0.0
C786 C 0.80892 0.14169 0.45203 0.0
C787 C 0.82304 0.14725 0.46102 0.0
C788 C 0.83321 0.16221 0.46135 0.0
C789 C 0.82952 0.17203 0.45255 0.0
C790 C 0.81535 0.16642 0.44336 0.0
C791 C 0.80511 0.15139 0.44317 0.0
C792 C 0.87515 0.23763 0.48412 0.0
C793 C 0.87781 0.22916 0.49877 0.0
C794 C 0.88378 0.23457 0.51916 0.0
C795 C 0.88734 0.24859 0.52537 0.0
C796 C 0.88409 0.25679 0.51111 0.0
C797 C 0.87801 0.25132 0.49074 0.0
C798 C 0.88427 0.24038 0.44805 0.0
C799 C 0.89748 0.24098 0.45389 0.0
C800 C 0.91015 0.24906 0.44172 0.0
C801 C 0.90987 0.25647 0.42323 0.0
C802 C 0.89655 0.25528 0.41669 0.0
C803 C 0.88387 0.24737 0.42913 0.0
C804 C 0.86117 0.21822 0.45789 0.0
C805 C 0.86582 0.20842 0.45332 0.0
C806 C 0.85553 0.19355 0.45102 0.0
C807 C 0.84036 0.18802 0.45351 0.0
C808 C 0.83572 0.19786 0.45779 0.0
C809 C 0.84603 0.21277 0.45992 0.0
H810 H 0.02412 0.55859 0.21912 0.0
N811 N 0.00293 0.55034 0.24981 0.0
H812 H 0.02371 0.56756 0.18312 0.0
H813 H 0.98095 0.55155 0.23084 0.0
H814 H 0.98043 0.56053 0.19464 0.0
H815 H 0.98814 0.55245 0.28223 0.0
H816 H 0.99468 0.57423 0.30312 0.0
H817 H 0.02972 0.57601 0.24966 0.0
H818 H 0.03663 0.59754 0.27101 0.0
H819 H 0.03084 0.55565 0.25955 0.0
H820 H 0.98573 0.52162 0.24729 0.0
H821 H 0.03806 0.53765 0.2623 0.0
H822 H 0.99298 0.50345 0.24934 0.0
H823 H 0.05016 0.47223 0.22281 0.0
H824 H 0.04251 0.45713 0.1904 0.0
H825 H 0.99803 0.44803 0.19777 0.0
H826 H 0.00569 0.46272 0.23042 0.0
H827 H 0.00967 0.45064 0.26306 0.0
H828 H 0.01081 0.43374 0.28804 0.0
H829 H 0.05666 0.46559 0.30181 0.0
H830 H 0.05555 0.48215 0.27571 0.0
H831 H 0.0483 0.50392 0.23641 0.0
H832 H 0.0412 0.52213 0.23871 0.0
H833 H 1.00156 0.49108 0.27199 0.0
N834 N 0.03328 0.47645 0.24917 0.0
H835 H 0.0086 0.47284 0.26902 0.0
C836 C 1.00246 0.55426 0.22767 0.0
C837 C 0.01443 0.55871 0.21383 0.0
C838 C 0.01417 0.56384 0.1932 0.0
C839 C 1.00204 0.56477 0.18604 0.0
C840 C 0.98998 0.56006 0.19976 0.0
C841 C 0.9902 0.55483 0.22033 0.0
C842 C 0.00839 0.56247 0.2645 0.0
C843 C 0.99887 0.56218 0.2801 0.0
C844 C 1.00266 0.57466 0.29204 0.0
C845 C 0.01615 0.58774 0.28863 0.0
C846 C 0.02604 0.58777 0.2738 0.0
C847 C 0.02218 0.57533 0.26175 0.0
C848 C 0.00761 0.54002 0.2533 0.0
C849 C 0.02241 0.54433 0.25762 0.0
C850 C 0.02659 0.53395 0.25901 0.0
C851 C 0.01614 0.51905 0.25594 0.0
C852 C 1.00131 0.51478 0.25211 0.0
C853 C 0.99714 0.52515 0.25082 0.0
C854 C 0.0286 0.46872 0.22896 0.0
C855 C 0.03881 0.4671 0.21722 0.0
C856 C 0.03441 0.4585 0.19868 0.0
C857 C 0.01963 0.45131 0.19148 0.0
C858 C 0.00945 0.45322 0.20303 0.0
C859 C 0.01386 0.46178 0.22161 0.0
C860 C 0.03265 0.46764 0.26725 0.0
C861 C 0.01991 0.45411 0.27169 0.0
C862 C 0.02057 0.44444 0.28617 0.0
C863 C 0.03392 0.44814 0.29675 0.0
C864 C 0.0463 0.46217 0.29355 0.0
C865 C 0.04566 0.47176 0.27886 0.0
C866 C 0.0291 0.48708 0.25259 0.0
C867 C 0.03816 0.50113 0.2444 0.0
C868 C 0.0341 0.51154 0.24585 0.0
C869 C 0.0208 0.50813 0.25561 0.0
C870 C 0.0118 0.49406 0.26417 0.0
C871 C 0.01588 0.48362 0.26265 0.0
H872 H 0.58104 0.53675 0.23368 0.0
N873 N 0.56038 0.53943 0.25287 0.0
H874 H 0.59373 0.54827 0.20006 0.0
H875 H 0.55396 0.55557 0.2253 0.0
H876 H 0.56666 0.56719 0.1922 0.0
H877 H 0.54869 0.5565 0.25996 0.0
H878 H 0.55946 0.57781 0.28296 0.0
H879 H 0.58004 0.54569 0.28422 0.0
H880 H 0.58988 0.566 0.30939 0.0
H881 H 0.55542 0.51446 0.26902 0.0
H882 H 0.53363 0.53421 0.2377 0.0
H883 H 0.53241 0.49081 0.268 0.0
H884 H 0.51074 0.51055 0.23557 0.0
H885 H 0.45473 0.41476 0.22653 0.0
H886 H 0.44159 0.40559 0.1924 0.0
H887 H 0.45546 0.44962 0.17321 0.0
H888 H 0.46747 0.45846 0.20797 0.0
H889 H 0.44414 0.44596 0.23853 0.0
H890 H 0.4224 0.43492 0.26089 0.0
H891 H 0.44236 0.41712 0.30229 0.0
H892 H 0.46385 0.42766 0.27887 0.0
H893 H 0.4952 0.44861 0.2392 0.0
H894 H 0.51753 0.47265 0.24265 0.0
H895 H 0.49077 0.49136 0.25459 0.0
N896 N 0.46736 0.44168 0.24185 0.0
H897 H 0.46855 0.46743 0.25009 0.0
C898 C 0.56664 0.54532 0.23217 0.0
C899 C 0.57775 0.54324 0.22451 0.0
C900 C 0.58496 0.54981 0.20537 0.0
C901 C 0.58126 0.55873 0.19367 0.0
C902 C 0.56988 0.56055 0.20108 0.0
C903 C 0.56256 0.55383 0.22006 0.0
C904 C 0.56398 0.54985 0.26979 0.0
C905 C 0.55775 0.55858 0.27056 0.0
C906 C 0.56383 0.57071 0.28415 0.0
C907 C 0.57594 0.57406 0.29786 0.0
C908 C 0.58105 0.5643 0.29851 0.0
C909 C 0.57528 0.55249 0.28439 0.0
C910 C 0.5463 0.52603 0.25328 0.0
C911 C 0.54563 0.51365 0.26194 0.0
C912 C 0.53249 0.50013 0.26112 0.0
C913 C 0.51971 0.49866 0.25139 0.0
C914 C 0.5203 0.51123 0.2433 0.0
C915 C 0.53346 0.52481 0.24435 0.0
C916 C 0.46213 0.43725 0.21998 0.0
C917 C 0.4551 0.42243 0.21478 0.0
C918 C 0.44763 0.41722 0.19513 0.0
C919 C 0.44726 0.4268 0.17992 0.0
C920 C 0.45511 0.44181 0.18465 0.0
C921 C 0.46225 0.44696 0.20454 0.0
C922 C 0.45558 0.43748 0.25691 0.0
C923 C 0.44394 0.43984 0.25256 0.0
C924 C 0.4315 0.43356 0.26554 0.0
C925 C 0.43048 0.42495 0.28339 0.0
C926 C 0.44257 0.42338 0.28843 0.0
C927 C 0.45495 0.42953 0.27525 0.0
C928 C 0.48021 0.4561 0.24463 0.0
C929 C 0.49419 0.45792 0.24262 0.0
C930 C 0.50694 0.47167 0.24477 0.0
C931 C 0.50602 0.484 0.24914 0.0
C932 C 0.49194 0.48217 0.25107 0.0
C933 C 0.47917 0.4684 0.24873 0.0
H934 H 0.54549 0.9648 0.2299 0.0
N935 N 0.53824 0.98218 0.24902 0.0
H936 H 0.55934 0.96928 0.19711 0.0
H937 H 0.54662 0.00519 0.2211 0.0
H938 H 0.55897 0.009 0.18718 0.0
H939 H 0.56599 0.00534 0.25726 0.0
H940 H 0.58451 0.00489 0.28045 0.0
H941 H 0.53316 0.96262 0.2794 0.0
H942 H 0.55148 0.96224 0.30339 0.0
H943 H 0.51022 0.96932 0.23659 0.0
H944 H 0.54488 0.00821 0.2673 0.0
H945 H 0.49409 0.97919 0.23704 0.0
H946 H 0.52863 0.01791 0.26885 0.0
H947 H 0.45261 0.9981 0.22353 0.0
H948 H 0.44198 0.99524 0.18768 0.0
H949 H 0.4703 0.0414 0.17663 0.0
H950 H 0.48133 0.04415 0.2127 0.0
H951 H 0.45048 0.02881 0.23664 0.0
H952 H 0.42971 0.02208 0.25922 0.0
H953 H 0.4482 0.00722 0.30813 0.0
H954 H 0.46913 0.01375 0.28527 0.0
H955 H 0.46401 0.99531 0.25306 0.0
H956 H 0.47984 0.98529 0.25756 0.0
H957 H 0.51815 0.02793 0.24624 0.0
N958 N 0.47287 0.02372 0.24304 0.0
H959 H 0.50217 0.03796 0.24264 0.0
C960 C 0.54486 0.98451 0.22806 0.0
C961 C 0.54837 0.97444 0.22054 0.0
C962 C 0.55623 0.977 0.20158 0.0
C963 C 0.56041 0.98956 0.18917 0.0
C964 C 0.55638 0.9994 0.19638 0.0
C965 C 0.54899 0.99708 0.21577 0.0
C966 C 0.54818 0.98392 0.26649 0.0
C967 C 0.56264 0.99609 0.26776 0.0
C968 C 0.57324 0.9958 0.28108 0.0
C969 C 0.56959 0.9834 0.29353 0.0
C970 C 0.55479 0.97182 0.29363 0.0
C971 C 0.54423 0.97208 0.28017 0.0
C972 C 0.52868 0.98787 0.25204 0.0
C973 C 0.51421 0.97986 0.24391 0.0
C974 C 0.50498 0.98553 0.24429 0.0
C975 C 0.50998 0.99939 0.25304 0.0
C976 C 0.52442 0.0073 0.26172 0.0
C977 C 0.53372 1.00166 0.2611 0.0
C978 C 0.46802 0.02136 0.22075 0.0
C979 C 0.45702 0.00753 0.2132 0.0
C980 C 0.45084 0.00593 0.19269 0.0
C981 C 0.45531 0.0181 0.17937 0.0
C982 C 0.46662 0.03185 0.18661 0.0
C983 C 0.47299 0.03342 0.20707 0.0
C984 C 0.46098 0.02051 0.2579 0.0
C985 C 0.45012 0.02381 0.25196 0.0
C986 C 0.43824 0.02022 0.26521 0.0
C987 C 0.43703 0.01373 0.28534 0.0
C988 C 0.44851 0.01169 0.29235 0.0
C989 C 0.46047 0.0153 0.27901 0.0
C990 C 0.48191 0.01751 0.24764 0.0
C991 C 0.47581 0.00255 0.25168 0.0
C992 C 0.48493 0.9968 0.25418 0.0
C993 C 0.50035 0.00574 0.25218 0.0
C994 C 0.5064 0.02071 0.24832 0.0
C995 C 0.49727 0.02648 0.24613 0.0
H996 H 0.41427 0.96935 0.78852 0.0
N997 N 0.44148 0.98757 0.77523 0.0
H998 H 0.40368 0.96925 0.82316 0.0
H999 H 0.45626 0.0057 0.80917 0.0
H1000 H 0.44598 0.00539 0.8442 0.0
H1001 H 0.45062 0.01651 0.77659 0.0
H1002 H 0.44077 0.02843 0.75428 0.0
H1003 H 0.42571 0.97728 0.73921 0.0
H1004 H 0.41572 0.98906 0.71685 0.0
H1005 H 0.44367 0.96424 0.77802 0.0
H1006 H 0.46989 0.01087 0.77148 0.0
H1007 H 0.46602 0.96312 0.78004 0.0
H1008 H 0.4924 0.00988 0.77247 0.0
H1009 H 0.52732 0.96038 0.81671 0.0
H1010 H 0.54093 0.96356 0.85047 0.0
H1011 H 0.565 0.01017 0.84088 0.0
H1012 H 0.55202 0.00683 0.80695 0.0
H1013 H 0.54725 0.00754 0.76874 0.0
H1014 H 0.56841 0.01597 0.74521 0.0
H1015 H 0.56182 0.97277 0.74558 0.0
H1016 H 0.54095 0.96461 0.76969 0.0
H1017 H 0.50731 0.96302 0.76661 0.0
H1018 H 0.48581 0.96534 0.76065 0.0
H1019 H 0.50752 0.00578 0.79624 0.0
N1020 N 0.53199 0.9808 0.78803 0.0
H1021 H 0.52914 0.00376 0.80103 0.0
C1022 C 0.43602 0.98737 0.79636 0.0
C1023 C 0.42123 0.97716 0.80071 0.0
C1024 C 0.41525 0.97711 0.82054 0.0
C1025 C 0.42399 0.98728 0.83656 0.0
C1026 C 0.43888 0.99752 0.83217 0.0
C1027 C 0.44483 0.99761 0.81222 0.0
C1028 C 0.43883 0.99594 0.75956 0.0
C1029 C 0.44338 0.01059 0.76319 0.0
C1030 C 0.43763 0.01736 0.75052 0.0
C1031 C 0.42731 0.00964 0.73396 0.0
C1032 C 0.42372 0.99537 0.72935 0.0
C1033 C 0.42941 0.9886 0.74209 0.0
C1034 C 0.45504 0.98754 0.77439 0.0
C1035 C 0.45429 0.97421 0.77658 0.0
C1036 C 0.46712 0.97362 0.7776 0.0
C1037 C 0.48111 0.98641 0.77628 0.0
C1038 C 0.48185 0.99982 0.77378 0.0
C1039 C 0.46895 1.0004 0.77297 0.0
C1040 C 0.53846 0.9833 0.80936 0.0
C1041 C 0.53536 0.97128 0.82217 0.0
C1042 C 0.54315 0.97313 0.84146 0.0
C1043 C 0.55421 0.98712 0.84834 0.0
C1044 C 0.55681 0.99921 0.8359 0.0
C1045 C 0.54916 0.99732 0.81656 0.0
C1046 C 0.5426 0.98543 0.77107 0.0
C1047 C 0.5502 0.99984 0.76345 0.0
C1048 C 0.56228 0.00462 0.74991 0.0
C1049 C 0.56694 0.99508 0.74372 0.0
C1050 C 0.55871 0.98047 0.75036 0.0
C1051 C 0.5467 0.97573 0.76393 0.0
C1052 C 0.51977 0.98299 0.78457 0.0
C1053 C 0.50742 0.97241 0.773 0.0
C1054 C 0.4951 0.97373 0.76975 0.0
C1055 C 0.49476 0.98566 0.77823 0.0
C1056 C 0.50736 0.9965 0.78932 0.0
C1057 C 0.51977 0.99525 0.79232 0.0
H1058 H 0.95955 0.54744 0.79694 0.0
N1059 N 0.97161 0.53279 0.78201 0.0
H1060 H 0.96586 0.56181 0.82957 0.0
H1061 H 0.98973 0.53351 0.81574 0.0
H1062 H 0.99518 0.54691 0.84885 0.0
H1063 H 0.9963 0.55926 0.77414 0.0
H1064 H 0.9976 0.57778 0.74974 0.0
H1065 H 0.95258 0.52849 0.75039 0.0
H1066 H 0.95395 0.54671 0.72516 0.0
H1067 H 0.95385 0.50408 0.78042 0.0
H1068 H 0.99947 0.53809 0.77562 0.0
H1069 H 0.96065 0.48572 0.77739 0.0
H1070 H 0.00666 0.51995 0.77427 0.0
H1071 H 0.98002 0.43717 0.80519 0.0
H1072 H 0.97934 0.42741 0.84087 0.0
H1073 H 0.02524 0.46014 0.85107 0.0
H1074 H 0.02577 0.47035 0.81523 0.0
H1075 H 0.02428 0.45672 0.76834 0.0
H1076 H 0.02031 0.43642 0.74585 0.0
H1077 H 0.97338 0.41954 0.74524 0.0
H1078 H 0.97758 0.44023 0.76712 0.0
H1079 H 0.97799 0.4574 0.80084 0.0
H1080 H 0.97045 0.47492 0.79739 0.0
H1081 H 0.00814 0.50182 0.7574 0.0
N1082 N 0.00391 0.46037 0.78609 0.0
H1083 H 0.01633 0.48453 0.76254 0.0
C1084 C 0.97445 0.53969 0.80304 0.0
C1085 C 0.9674 0.5473 0.80815 0.0
C1086 C 0.97093 0.55544 0.82706 0.0
C1087 C 0.98127 0.55581 0.84191 0.0
C1088 C 0.9876 0.5474 0.83752 0.0
C1089 C 0.98435 0.53955 0.81833 0.0
C1090 C 0.97423 0.54253 0.76422 0.0
C1091 C 0.9872 0.55633 0.76305 0.0
C1092 C 0.9879 0.56693 0.74904 0.0
C1093 C 0.97574 0.56387 0.73575 0.0
C1094 C 0.96336 0.5496 0.73558 0.0
C1095 C 0.96261 0.53909 0.74976 0.0
C1096 C 0.97611 0.52239 0.77857 0.0
C1097 C 0.96537 0.50755 0.77875 0.0
C1098 C 0.96935 0.49707 0.77727 0.0
C1099 C 0.9843 0.50121 0.77605 0.0
C1100 C 0.99503 0.5162 0.77496 0.0
C1101 C 0.99097 0.52667 0.77587 0.0
C1102 C 0.00292 0.4548 0.80764 0.0
C1103 C 0.98989 0.44253 0.81513 0.0
C1104 C 0.98951 0.43688 0.83554 0.0
C1105 C 1.00221 0.44309 0.84871 0.0
C1106 C 0.0153 0.4552 0.84119 0.0
C1107 C 0.01559 0.46107 0.82087 0.0
C1108 C 1.00128 0.44994 0.76953 0.0
C1109 C 0.0132 0.44884 0.76283 0.0
C1110 C 0.01087 0.43714 0.75021 0.0
C1111 C 0.99649 0.42617 0.74411 0.0
C1112 C 0.9846 0.42779 0.74962 0.0
C1113 C 0.98697 0.4396 0.76221 0.0
C1114 C 0.99804 0.46973 0.78234 0.0
C1115 C 0.98478 0.46702 0.7914 0.0
C1116 C 0.98029 0.47711 0.78912 0.0
C1117 C 0.98867 0.49 0.77718 0.0
C1118 C 1.00154 0.49228 0.76719 0.0
C1119 C 0.00618 0.48231 0.7699 0.0
H1120 H 0.46477 0.43614 0.8176 0.0
N1121 N 0.4675 0.45793 0.79368 0.0
H1122 H 0.4491 0.42502 0.84886 0.0
H1123 H 0.4511 0.46744 0.8132 0.0
H1124 H 0.43585 0.45683 0.84497 0.0
H1125 H 0.43982 0.45037 0.77935 0.0
H1126 H 0.42522 0.43183 0.75243 0.0
H1127 H 0.47767 0.44728 0.76497 0.0
H1128 H 0.4635 0.42945 0.73683 0.0
H1129 H 0.49417 0.47341 0.81116 0.0
H1130 H 0.46233 0.47749 0.77282 0.0
H1131 H 0.51092 0.49972 0.81033 0.0
H1132 H 0.47934 0.50385 0.7708 0.0
H1133 H 0.56268 0.56789 0.80456 0.0
H1134 H 0.57592 0.57578 0.83893 0.0
H1135 H 0.54067 0.57971 0.86492 0.0
H1136 H 0.52745 0.57199 0.8301 0.0
H1137 H 0.55509 0.59508 0.79217 0.0
H1138 H 0.57575 0.60862 0.76842 0.0
H1139 H 0.5606 0.56994 0.72997 0.0
H1140 H 0.54042 0.55626 0.75429 0.0
H1141 H 0.54389 0.54523 0.79047 0.0
H1142 H 0.52689 0.51907 0.78844 0.0
H1143 H 0.49003 0.52563 0.79094 0.0
N1144 N 0.53665 0.56618 0.79388 0.0
H1145 H 0.5073 0.55199 0.7919 0.0
C1146 C 0.45921 0.45264 0.81323 0.0
C1147 C 0.45858 0.44076 0.8237 0.0
C1148 C 0.44966 0.43448 0.8416 0.0
C1149 C 0.44119 0.44002 0.84949 0.0
C1150 C 0.44206 0.45215 0.83917 0.0
C1151 C 0.45092 0.45836 0.82114 0.0
C1152 C 0.45976 0.44989 0.77457 0.0
C1153 C 0.44512 0.44599 0.76996 0.0
C1154 C 0.43679 0.43543 0.75436 0.0
C1155 C 0.44303 0.42879 0.74278 0.0
C1156 C 0.45815 0.43391 0.74594 0.0
C1157 C 0.46635 0.44425 0.76181 0.0
C1158 C 0.47714 0.47348 0.79189 0.0
C1159 C 0.49093 0.48003 0.80227 0.0
C1160 C 0.50053 0.49508 0.8016 0.0
C1161 C 0.49662 0.50401 0.79026 0.0
C1162 C 0.48271 0.49739 0.77983 0.0
C1163 C 0.473 0.48227 0.78077 0.0
C1164 C 0.54406 0.56948 0.81467 0.0
C1165 C 0.55767 0.57028 0.81765 0.0
C1166 C 0.5653 0.5749 0.83724 0.0
C1167 C 0.55937 0.5785 0.85442 0.0
C1168 C 0.54547 0.57702 0.85185 0.0
C1169 C 0.53793 0.57263 0.83207 0.0
C1170 C 0.54669 0.5743 0.77641 0.0
C1171 C 0.55616 0.58946 0.7786 0.0
C1172 C 0.56797 0.59729 0.76475 0.0
C1173 C 0.57028 0.59029 0.74761 0.0
C1174 C 0.55966 0.57555 0.74364 0.0
C1175 C 0.548 0.56763 0.75781 0.0
C1176 C 0.52686 0.55064 0.79115 0.0
C1177 C 0.53217 0.54108 0.7904 0.0
C1178 C 0.52237 0.52604 0.78939 0.0
C1179 C 0.507 0.52012 0.78972 0.0
C1180 C 0.50174 0.52973 0.79031 0.0
C1181 C 0.51158 0.54481 0.79097 0.0
H1182 H 0.68584 0.90499 0.56378 0.0
N1183 N 0.66175 0.8813 0.58149 0.0
H1184 H 0.6866 0.91671 0.52995 0.0
H1185 H 0.64019 0.87227 0.55192 0.0
H1186 H 0.64073 0.88429 0.51787 0.0
H1187 H 0.64219 0.88607 0.59956 0.0
H1188 H 0.64728 0.90656 0.62255 0.0
H1189 H 0.68826 0.89983 0.60152 0.0
H1190 H 0.69357 0.92063 0.62406 0.0
H1191 H 0.68553 0.88247 0.56143 0.0
H1192 H 0.65138 0.85857 0.60788 0.0
H1193 H 0.6929 0.86479 0.56418 0.0
H1194 H 0.65949 0.84117 0.61198 0.0
H1195 H 0.71139 0.80597 0.55723 0.0
H1196 H 0.70571 0.79155 0.52432 0.0
H1197 H 0.66 0.77912 0.5288 0.0
H1198 H 0.66566 0.79307 0.56177 0.0
H1199 H 0.66773 0.78274 0.59653 0.0
H1200 H 0.66735 0.7644 0.6203 0.0
H1201 H 0.71429 0.79229 0.63149 0.0
H1202 H 0.71451 0.8107 0.60783 0.0
H1203 H 0.71048 0.83617 0.58016 0.0
H1204 H 0.70433 0.85502 0.58314 0.0
H1205 H 0.65893 0.82179 0.59541 0.0
N1206 N 0.69253 0.80761 0.58287 0.0
H1207 H 0.66556 0.80331 0.59423 0.0
C1208 C 0.66292 0.88763 0.56044 0.0
C1209 C 0.67596 0.90026 0.55387 0.0
C1210 C 0.67633 0.90707 0.53451 0.0
C1211 C 0.66366 0.90159 0.52131 0.0
C1212 C 0.65071 0.88876 0.5276 0.0
C1213 C 0.65037 0.88188 0.54701 0.0
C1214 C 0.66479 0.89147 0.59869 0.0
C1215 C 0.65335 0.89334 0.60541 0.0
C1216 C 0.65632 0.90514 0.61833 0.0
C1217 C 0.67088 0.9154 0.62478 0.0
C1218 C 0.68223 0.91292 0.61941 0.0
C1219 C 0.67922 0.90104 0.60647 0.0
C1220 C 0.66759 0.87182 0.58423 0.0
C1221 C 0.67967 0.87357 0.57252 0.0
C1222 C 0.68406 0.86339 0.57432 0.0
C1223 C 0.67681 0.85136 0.58826 0.0
C1224 C 0.66517 0.85002 0.60067 0.0
C1225 C 0.66059 0.86006 0.59853 0.0
C1226 C 0.68906 0.80075 0.56199 0.0
C1227 C 0.70021 0.80032 0.55085 0.0
C1228 C 0.69693 0.79208 0.53205 0.0
C1229 C 0.68236 0.78406 0.52399 0.0
C1230 C 0.67129 0.78494 0.53476 0.0
C1231 C 0.67457 0.79312 0.55359 0.0
C1232 C 0.69121 0.79816 0.60039 0.0
C1233 C 0.67785 0.78516 0.60462 0.0
C1234 C 0.67768 0.77457 0.61806 0.0
C1235 C 0.69082 0.77679 0.62756 0.0
C1236 C 0.70394 0.79026 0.62457 0.0
C1237 C 0.70411 0.80081 0.61107 0.0
C1238 C 0.68851 0.81833 0.58654 0.0
C1239 C 0.69926 0.83304 0.58381 0.0
C1240 C 0.69564 0.84378 0.58527 0.0
C1241 C 0.68101 0.84003 0.58907 0.0
C1242 C 0.67033 0.82524 0.5926 0.0
C1243 C 0.67407 0.81453 0.59162 0.0
H1244 H 0.2512 0.86539 0.55721 0.0
N1245 N 0.23492 0.86956 0.58485 0.0
H1246 H 0.26098 0.87787 0.52297 0.0
H1247 H 0.22852 0.88861 0.56514 0.0
H1248 H 0.23867 0.90153 0.53161 0.0
H1249 H 0.21984 0.88142 0.60211 0.0
H1250 H 0.23054 0.90283 0.62537 0.0
H1251 H 0.26037 0.88132 0.60617 0.0
H1252 H 0.27104 0.90246 0.63003 0.0
H1253 H 0.23012 0.84463 0.6011 0.0
H1254 H 0.20781 0.8644 0.57137 0.0
H1255 H 0.20696 0.82104 0.6011 0.0
H1256 H 0.18477 0.84087 0.57061 0.0
H1257 H 0.12861 0.74654 0.55819 0.0
H1258 H 0.11468 0.73852 0.52446 0.0
H1259 H 0.12647 0.78284 0.51118 0.0
H1260 H 0.13928 0.79043 0.54564 0.0
H1261 H 0.11959 0.77974 0.57901 0.0
H1262 H 0.09833 0.76856 0.60257 0.0
H1263 H 0.11357 0.74189 0.63105 0.0
H1264 H 0.13534 0.75364 0.60787 0.0
H1265 H 0.16839 0.77905 0.57204 0.0
H1266 H 0.19111 0.80283 0.57552 0.0
H1267 H 0.16548 0.82208 0.59171 0.0
N1268 N 0.1408 0.77261 0.57633 0.0
H1269 H 0.14296 0.79855 0.58751 0.0
C1270 C 0.23923 0.87607 0.56382 0.0
C1271 C 0.24827 0.87311 0.55148 0.0
C1272 C 0.25396 0.88038 0.53206 0.0
C1273 C 0.25079 0.89088 0.52464 0.0
C1274 C 0.24127 0.89346 0.5367 0.0
C1275 C 0.2355 0.8861 0.55603 0.0
C1276 C 0.23941 0.87985 0.60224 0.0
C1277 C 0.23089 0.88573 0.60852 0.0
C1278 C 0.23703 0.89798 0.6219 0.0
C1279 C 0.25175 0.90452 0.62927 0.0
C1280 C 0.25979 0.89789 0.62427 0.0
C1281 C 0.25367 0.88572 0.61085 0.0
C1282 C 0.22076 0.85625 0.58619 0.0
C1283 C 0.22018 0.84387 0.5947 0.0
C1284 C 0.20697 0.83039 0.59448 0.0
C1285 C 0.194 0.82898 0.58563 0.0
C1286 C 0.19449 0.84154 0.57772 0.0
C1287 C 0.20773 0.85505 0.57804 0.0
C1288 C 0.13505 0.76904 0.55456 0.0
C1289 C 0.12834 0.75453 0.54779 0.0
C1290 C 0.12043 0.75 0.52837 0.0
C1291 C 0.11924 0.75997 0.51497 0.0
C1292 C 0.12674 0.77472 0.52123 0.0
C1293 C 0.13434 0.77917 0.54092 0.0
C1294 C 0.12932 0.76779 0.59208 0.0
C1295 C 0.11876 0.77196 0.59091 0.0
C1296 C 0.10652 0.76547 0.60427 0.0
C1297 C 0.10437 0.75442 0.61866 0.0
C1298 C 0.11502 0.75042 0.62012 0.0
C1299 C 0.12746 0.75716 0.60704 0.0
C1300 C 0.15391 0.78682 0.57963 0.0
C1301 C 0.16771 0.7884 0.57646 0.0
C1302 C 0.18069 0.802 0.57859 0.0
C1303 C 0.18016 0.81441 0.584 0.0
C1304 C 0.16631 0.81281 0.58732 0.0
C1305 C 0.15333 0.79921 0.5851 0.0
H1306 H 0.20941 0.296 0.55769 0.0
N1307 N 0.20799 0.31528 0.58238 0.0
H1308 H 0.22316 0.30062 0.52438 0.0
H1309 H 0.22313 0.34135 0.56122 0.0
H1310 H 0.23652 0.34601 0.5277 0.0
H1311 H 0.23525 0.33816 0.59431 0.0
H1312 H 0.25268 0.33677 0.61857 0.0
H1313 H 0.20189 0.29413 0.61037 0.0
H1314 H 0.21907 0.29283 0.63568 0.0
H1315 H 0.18095 0.30373 0.56629 0.0
H1316 H 0.21374 0.3402 0.6036 0.0
H1317 H 0.16497 0.31373 0.56656 0.0
H1318 H 0.19751 0.3499 0.60513 0.0
H1319 H 0.11657 0.33369 0.56669 0.0
H1320 H 0.10379 0.33039 0.53225 0.0
H1321 H 0.1409 0.37058 0.50917 0.0
H1322 H 0.15363 0.374 0.54401 0.0
H1323 H 0.12604 0.36921 0.57975 0.0
H1324 H 0.10572 0.36317 0.60329 0.0
H1325 H 0.11796 0.33782 0.64305 0.0
H1326 H 0.13773 0.34316 0.61884 0.0
H1327 H 0.13381 0.32853 0.58263 0.0
H1328 H 0.14944 0.31822 0.58617 0.0
H1329 H 0.18818 0.36158 0.58439 0.0
N1330 N 0.14299 0.35748 0.57914 0.0
H1331 H 0.17228 0.37176 0.58207 0.0
C1332 C 0.21516 0.31825 0.56185 0.0
C1333 C 0.21521 0.3069 0.55105 0.0
C1334 C 0.22303 0.30956 0.53201 0.0
C1335 C 0.23099 0.3237 0.52338 0.0
C1336 C 0.2307 0.33504 0.53406 0.0
C1337 C 0.22292 0.33236 0.55314 0.0
C1338 C 0.21724 0.31612 0.60029 0.0
C1339 C 0.23151 0.32832 0.60357 0.0
C1340 C 0.2415 0.32753 0.61762 0.0
C1341 C 0.23742 0.31458 0.62888 0.0
C1342 C 0.22275 0.30284 0.62689 0.0
C1343 C 0.21282 0.30361 0.61266 0.0
C1344 C 0.19847 0.32104 0.58504 0.0
C1345 C 0.18454 0.31375 0.57497 0.0
C1346 C 0.17538 0.31948 0.57528 0.0
C1347 C 0.17983 0.33266 0.58597 0.0
C1348 C 0.19373 0.33985 0.59646 0.0
C1349 C 0.20302 0.3342 0.59584 0.0
C1350 C 0.13608 0.35421 0.55799 0.0
C1351 C 0.12211 0.34168 0.55415 0.0
C1352 C 0.11474 0.33986 0.53454 0.0
C1353 C 0.12131 0.35032 0.5182 0.0
C1354 C 0.13561 0.36238 0.52154 0.0
C1355 C 0.14288 0.36433 0.54135 0.0
C1356 C 0.1329 0.3558 0.59616 0.0
C1357 C 0.12437 0.36229 0.5935 0.0
C1358 C 0.11277 0.35896 0.60727 0.0
C1359 C 0.10975 0.34953 0.62483 0.0
C1360 C 0.11944 0.34451 0.6291 0.0
C1361 C 0.13086 0.34758 0.61501 0.0
C1362 C 0.1519 0.35099 0.58231 0.0
C1363 C 0.14566 0.33582 0.58318 0.0
C1364 C 0.15468 0.32993 0.58507 0.0
C1365 C 0.17018 0.33901 0.58548 0.0
C1366 C 0.17634 0.35419 0.58458 0.0
C1367 C 0.16728 0.36007 0.5831 0.0
H1368 H 0.96982 0.39359 0.08558 0.0
H1369 H 0.01311 0.39939 0.07976 0.0
H1370 H 0.97814 0.40896 0.11746 0.0
H1371 H 0.02138 0.41471 0.11191 0.0
H1372 H 0.0343 0.45533 0.15369 0.0
H1373 H 0.02632 0.43911 0.12264 0.0
H1374 H 0.98595 0.40892 0.15499 0.0
H1375 H 0.99397 0.425 0.18613 0.0
C1376 C 0.98109 0.39806 0.09117 0.0
C1377 C 0.9908 0.39527 0.08007 0.0
C1378 C 0.98583 0.40682 0.10953 0.0
C1379 C 1.00042 0.41307 0.1172 0.0
C1380 C 0.01012 0.41017 0.10625 0.0
C1381 C 0.00534 0.40131 0.08793 0.0
C1382 C 0.02379 0.44517 0.15428 0.0
C1383 C 0.01475 0.44152 0.1724 0.0
C1384 C 0.01922 0.43587 0.13649 0.0
C1385 C 0.0055 0.42274 0.13635 0.0
C1386 C 0.9965 0.41906 0.15448 0.0
C1387 C 1.00108 0.42831 0.1723 0.0
H1388 H 0.61737 0.61434 0.08065 0.0
H1389 H 0.63694 0.58776 0.08113 0.0
H1390 H 0.60463 0.60281 0.11394 0.0
H1391 H 0.62483 0.57673 0.11477 0.0
H1392 H 0.5879 0.54733 0.15976 0.0
H1393 H 0.60121 0.55982 0.12737 0.0
H1394 H 0.60684 0.60008 0.15132 0.0
H1395 H 0.59302 0.58735 0.18333 0.0
C1396 C 0.61916 0.60623 0.08808 0.0
C1397 C 0.62805 0.60187 0.07818 0.0
C1398 C 0.61189 0.59963 0.10722 0.0
C1399 C 0.61354 0.58868 0.11699 0.0
C1400 C 0.62295 0.58481 0.10746 0.0
C1401 C 0.63001 0.59124 0.08823 0.0
C1402 C 0.59203 0.55885 0.15807 0.0
C1403 C 0.58942 0.56637 0.17401 0.0
C1404 C 0.59974 0.56606 0.13957 0.0
C1405 C 0.60522 0.58103 0.13671 0.0
C1406 C 0.60261 0.58853 0.15276 0.0
C1407 C 0.59473 0.58126 0.17115 0.0
H1408 H 0.38868 0.97551 0.08278 0.0
H1409 H 0.40635 0.02043 0.06471 0.0
H1410 H 0.40659 0.98312 0.11192 0.0
H1411 H 0.42474 0.02813 0.09392 0.0
H1412 H 0.44404 0.03438 0.16435 0.0
H1413 H 0.42776 0.02928 0.13308 0.0
H1414 H 0.43248 0.99294 0.11662 0.0
H1415 H 0.44839 0.99787 0.14808 0.0
C1416 C 0.39645 0.98706 0.08498 0.0
C1417 C 0.39614 0.99736 0.07127 0.0
C1418 C 0.40683 0.99142 0.10163 0.0
C1419 C 0.41732 0.00623 0.10503 0.0
C1420 C 0.41681 0.01663 0.09174 0.0
C1421 C 0.40629 0.01223 0.07501 0.0
C1422 C 0.44179 0.02548 0.15378 0.0
C1423 C 0.44735 0.01642 0.15874 0.0
C1424 C 0.43247 0.02255 0.13588 0.0
C1425 C 0.42859 0.01054 0.12255 0.0
C1426 C 0.4349 0.00204 0.12688 0.0
C1427 C 0.44409 0.00489 0.14482 0.0
H1428 H 0.38872 0.96626 0.96528 0.0
H1429 H 0.38516 0.00337 0.9482 0.0
H1430 H 0.39984 0.96772 0.93091 0.0
H1431 H 0.39594 0.00454 0.91323 0.0
H1432 H 0.42902 0.0106 0.86114 0.0
H1433 H 0.41854 0.01013 0.89598 0.0
H1434 H 0.39323 0.96311 0.89398 0.0
H1435 H 0.4043 0.96355 0.85993 0.0
C1436 C 0.39019 0.97468 0.9541 0.0
C1437 C 0.38596 0.98466 0.95947 0.0
C1438 C 0.39652 0.97547 0.93428 0.0
C1439 C 0.39867 0.98616 0.91917 0.0
C1440 C 0.39456 0.99625 0.92457 0.0
C1441 C 0.38831 0.99553 0.94456 0.0
C1442 C 0.42136 1.00016 0.86828 0.0
C1443 C 0.41754 0.98711 0.85772 0.0
C1444 C 0.4152 0.9999 0.88813 0.0
C1445 C 0.40505 0.98659 0.89784 0.0
C1446 C 0.40116 0.97357 0.88716 0.0
C1447 C 0.40738 0.97382 0.86744 0.0
H1448 H 0.9665 0.38729 0.95831 0.0
H1449 H 0.0132 0.40529 0.96869 0.0
H1450 H 0.97151 0.40146 0.9257 0.0
H1451 H 0.01836 0.42015 0.93623 0.0
H1452 H 0.01987 0.43347 0.86443 0.0
H1453 H 0.01681 0.42009 0.8979 0.0
H1454 H 0.98045 0.42538 0.91463 0.0
H1455 H 0.98315 0.43805 0.88083 0.0
C1456 C 0.97789 0.3944 0.95369 0.0
C1457 C 0.98946 0.39524 0.96618 0.0
C1458 C 0.98079 0.40266 0.93502 0.0
C1459 C 0.99537 0.41223 0.92845 0.0
C1460 C 0.00699 0.41286 0.94071 0.0
C1461 C 0.00405 0.40439 0.95934 0.0
C1462 C 0.01135 0.43186 0.87546 0.0
C1463 C 1.00165 0.43663 0.87004 0.0
C1464 C 0.0096 0.42423 0.89465 0.0
C1465 C 0.99821 0.4214 0.90888 0.0
C1466 C 0.98904 0.42692 0.90382 0.0
C1467 C 0.99065 0.4343 0.88454 0.0
H1468 H 0.62011 0.62826 0.96023 0.0
H1469 H 0.60537 0.58299 0.97113 0.0
H1470 H 0.60319 0.62129 0.92919 0.0
H1471 H 0.58841 0.5761 0.94047 0.0
H1472 H 0.55036 0.56875 0.89527 0.0
H1473 H 0.56529 0.57713 0.92848 0.0
H1474 H 0.60256 0.6094 0.89229 0.0
H1475 H 0.58772 0.60092 0.85916 0.0
C1476 C 0.61315 0.61684 0.95616 0.0
C1477 C 0.61413 0.60618 0.96801 0.0
C1478 C 0.60353 0.61287 0.9384 0.0
C1479 C 0.5945 0.59816 0.93251 0.0
C1480 C 0.59515 0.5875 0.94479 0.0
C1481 C 0.60494 0.59147 0.96223 0.0
C1482 C 0.56169 0.57773 0.89452 0.0
C1483 C 0.56795 0.58414 0.87472 0.0
C1484 C 0.57023 0.58248 0.91344 0.0
C1485 C 0.58506 0.59391 0.91289 0.0
C1486 C 0.59113 0.60065 0.89317 0.0
C1487 C 0.58269 0.59573 0.87424 0.0
H1488 H 0.03125 0.62333 0.93782 0.0
H1489 H 0.98725 0.59971 0.96332 0.0
H1490 H 0.02266 0.60817 0.90578 0.0
H1491 H 0.97873 0.58374 0.93205 0.0
H1492 H 0.96461 0.56334 0.86606 0.0
H1493 H 0.97265 0.58012 0.89608 0.0
H1494 H 0.01597 0.58556 0.89358 0.0
H1495 H 0.00843 0.57013 0.8622 0.0
C1496 C 0.01972 0.61481 0.93655 0.0
C1497 C 0.00992 0.61268 0.95303 0.0
C1498 C 0.01479 0.60597 0.91828 0.0
C1499 C 0.99999 0.59446 0.91627 0.0
C1500 C 0.99014 0.59255 0.9327 0.0
C1501 C 0.99502 0.60167 0.95074 0.0
C1502 C 0.97594 0.56832 0.8716 0.0
C1503 C 0.98584 0.56532 0.86142 0.0
C1504 C 0.98051 0.57781 0.88918 0.0
C1505 C 0.99503 0.58435 0.89743 0.0
C1506 C 0.0048 0.58108 0.88753 0.0
C1507 C 1.00034 0.57188 0.86968 0.0
H1508 H 0.38171 0.41825 0.95638 0.0
H1509 H 0.39001 0.38294 0.95509 0.0
H1510 H 0.39697 0.42892 0.92479 0.0
H1511 H 0.4053 0.39368 0.92336 0.0
H1512 H 0.44629 0.42847 0.88574 0.0
H1513 H 0.42978 0.41642 0.91577 0.0
H1514 H 0.39719 0.42368 0.88567 0.0
H1515 H 0.4135 0.43542 0.85533 0.0
C1516 C 0.3867 0.4127 0.94927 0.0
C1517 C 0.38467 0.39976 0.9583 0.0
C1518 C 0.39539 0.41879 0.93111 0.0
C1519 C 0.40237 0.41216 0.92166 0.0
C1520 C 0.40017 0.3991 0.93045 0.0
C1521 C 0.39134 0.39291 0.94852 0.0
C1522 C 0.43554 0.42735 0.88536 0.0
C1523 C 0.43126 0.43295 0.86808 0.0
C1524 C 0.42609 0.42044 0.90258 0.0
C1525 C 0.41219 0.41909 0.90304 0.0
C1526 C 0.40791 0.4247 0.88585 0.0
C1527 C 0.4173 0.4315 0.86853 0.0
H1528 H 0.59971 0.98083 0.96388 0.0
H1529 H 0.61446 0.0263 0.95518 0.0
H1530 H 0.58417 0.97487 0.93135 0.0
H1531 H 0.59913 0.02035 0.92294 0.0
H1532 H 0.5838 0.00645 0.85382 0.0
H1533 H 0.59897 0.01065 0.88584 0.0
H1534 H 0.56132 0.97624 0.91878 0.0
H1535 H 0.54586 0.97224 0.88682 0.0
C1536 C 0.59969 0.98953 0.95502 0.0
C1537 C 0.60833 0.00404 0.96212 0.0
C1538 C 0.59074 0.98611 0.93652 0.0
C1539 C 0.5905 0.99716 0.92461 0.0
C1540 C 0.59921 0.01163 0.93166 0.0
C1541 C 0.60794 0.01501 0.95022 0.0
C1542 C 0.57864 0.99987 0.86792 0.0
C1543 C 0.56351 0.98916 0.86779 0.0
C1544 C 0.58739 0.00223 0.88623 0.0
C1545 C 0.5813 0.99383 0.90482 0.0
C1546 C 0.56631 0.9828 0.90459 0.0
C1547 C 0.55748 0.98052 0.88628 0.0
H1548 H 0.5957 0.98674 0.06392 0.0
H1549 H 0.62834 0.02825 0.09079 0.0
H1550 H 0.58071 0.98136 0.09576 0.0
H1551 H 0.61425 0.02249 0.12365 0.0
H1552 H 0.58065 0.01616 0.17164 0.0
H1553 H 0.59464 0.02103 0.13933 0.0
H1554 H 0.57623 0.97482 0.13049 0.0
H1555 H 0.56064 0.96987 0.16109 0.0
C1556 C 0.59979 0.99455 0.07698 0.0
C1557 C 0.61309 0.0079 0.07498 0.0
C1558 C 0.59127 0.99147 0.09539 0.0
C1559 C 0.5961 1.00148 0.11257 0.0
C1560 C 0.60979 0.01464 0.11069 0.0
C1561 C 0.61803 0.01791 0.09196 0.0
C1562 C 0.57918 0.00695 0.16256 0.0
C1563 C 0.5693 0.99257 0.16925 0.0
C1564 C 0.5876 0.00979 0.14412 0.0
C1565 C 0.58684 0.99837 0.1321 0.0
C1566 C 0.57707 0.98399 0.13891 0.0
C1567 C 0.56827 0.98113 0.15694 0.0
H1568 H 0.03326 0.60918 0.06542 0.0
H1569 H 0.99229 0.60826 0.07216 0.0
H1570 H 0.0285 0.59537 0.09839 0.0
H1571 H 0.98732 0.59399 0.10516 0.0
H1572 H 0.99393 0.58452 0.17628 0.0
H1573 H 0.99623 0.59664 0.14197 0.0
H1574 H 0.01294 0.57167 0.11327 0.0
H1575 H 0.01085 0.55975 0.14768 0.0
C1576 C 0.02315 0.60593 0.07383 0.0
C1577 C 0.01317 0.60987 0.06609 0.0
C1578 C 0.02036 0.59788 0.09272 0.0
C1579 C 0.00747 0.59346 0.10441 0.0
C1580 C 0.99742 0.59732 0.09666 0.0
C1581 C 1.00024 0.60545 0.0777 0.0
C1582 C 0.99789 0.58148 0.16255 0.0
C1583 C 1.00231 0.57125 0.16472 0.0
C1584 C 0.99919 0.58841 0.14286 0.0
C1585 C 0.00488 0.58523 0.12487 0.0
C1586 C 0.00881 0.57462 0.1269 0.0
C1587 C 0.00759 0.56776 0.1466 0.0
H1588 H 0.4012 0.38437 0.05874 0.0
H1589 H 0.37634 0.40144 0.08679 0.0
H1590 H 0.41846 0.39359 0.08931 0.0
H1591 H 0.39282 0.40979 0.1179 0.0
H1592 H 0.43208 0.43773 0.15898 0.0
H1593 H 0.41608 0.42811 0.12779 0.0
H1594 H 0.42343 0.39219 0.12561 0.0
H1595 H 0.44076 0.40269 0.15565 0.0
C1596 C 0.39927 0.38982 0.0717 0.0
C1597 C 0.38755 0.39233 0.07035 0.0
C1598 C 0.40912 0.39509 0.08928 0.0
C1599 C 0.40726 0.40271 0.10605 0.0
C1600 C 0.395 0.40447 0.10504 0.0
C1601 C 0.38542 0.39953 0.0873 0.0
C1602 C 0.43068 0.428 0.1516 0.0
C1603 C 0.43785 0.42107 0.16004 0.0
C1604 C 0.42114 0.42224 0.13387 0.0
C1605 C 0.41813 0.40915 0.12427 0.0
C1606 C 0.42547 0.40231 0.13243 0.0
C1607 C 0.43528 0.40825 0.14995 0.0
H1608 H 0.63688 0.7256 0.41742 0.0
H1609 H 0.68135 0.73428 0.41246 0.0
H1610 H 0.64404 0.74074 0.44943 0.0
H1611 H 0.68848 0.74939 0.4448 0.0
H1612 H 0.69813 0.78917 0.48695 0.0
H1613 H 0.69169 0.77313 0.45585 0.0
H1614 H 0.65166 0.74094 0.48701 0.0
H1615 H 0.65813 0.75682 0.51812 0.0
C1616 C 0.64817 0.73065 0.42324 0.0
C1617 C 0.65854 0.72872 0.41233 0.0
C1618 C 0.65226 0.73928 0.44168 0.0
C1619 C 0.66683 0.74627 0.44966 0.0
C1620 C 0.6772 0.74426 0.43892 0.0
C1621 C 0.67308 0.73551 0.42049 0.0
C1622 C 0.68803 0.77862 0.48725 0.0
C1623 C 0.67858 0.77436 0.50497 0.0
C1624 C 0.68435 0.76942 0.46944 0.0
C1625 C 0.67114 0.75579 0.46893 0.0
C1626 C 0.6618 0.75147 0.48675 0.0
C1627 C 0.66549 0.76062 0.50455 0.0
H1628 H 0.29633 0.92005 0.40457 0.0
H1629 H 0.28146 0.95016 0.41382 0.0
H1630 H 0.28604 0.90873 0.43899 0.0
H1631 H 0.27106 0.93868 0.44855 0.0
H1632 H 0.23848 0.89977 0.49343 0.0
H1633 H 0.25005 0.91364 0.46084 0.0
H1634 H 0.29035 0.9151 0.47824 0.0
H1635 H 0.27901 0.9016 0.51102 0.0
C1636 C 0.29093 0.92431 0.41402 0.0
C1637 C 0.28968 0.93599 0.40644 0.0
C1638 C 0.2851 0.91787 0.4338 0.0
C1639 C 0.27776 0.92283 0.44644 0.0
C1640 C 0.2766 0.9346 0.43904 0.0
C1641 C 0.28263 0.94121 0.41927 0.0
C1642 C 0.24987 0.90321 0.49048 0.0
C1643 C 0.25776 0.89942 0.5048 0.0
C1644 C 0.25649 0.91117 0.47182 0.0
C1645 C 0.27107 0.9154 0.46699 0.0
C1646 C 0.27902 0.91182 0.48142 0.0
C1647 C 0.27247 0.90398 0.50013 0.0
H1648 H 0.07491 0.32007 0.39722 0.0
H1649 H 0.06459 0.35232 0.41611 0.0
H1650 H 0.09125 0.32619 0.42853 0.0
H1651 H 0.08083 0.35826 0.44778 0.0
H1652 H 0.09369 0.34593 0.51471 0.0
H1653 H 0.07938 0.34295 0.48184 0.0
H1654 H 0.1156 0.34853 0.44372 0.0
H1655 H 0.13003 0.35171 0.47669 0.0
C1656 C 0.07617 0.32851 0.40803 0.0
C1657 C 0.06841 0.33568 0.40426 0.0
C1658 C 0.0856 0.33206 0.42586 0.0
C1659 C 0.08729 0.34268 0.44054 0.0
C1660 C 0.07967 0.34999 0.43671 0.0
C1661 C 0.07044 0.34663 0.41858 0.0
C1662 C 0.09859 0.34656 0.49929 0.0
C1663 C 0.11291 0.34894 0.49818 0.0
C1664 C 0.09047 0.34499 0.48052 0.0
C1665 C 0.09641 0.34553 0.46029 0.0
C1666 C 0.11078 0.34804 0.45915 0.0
C1667 C 0.11902 0.34989 0.47794 0.0
H1668 H 0.05217 0.30656 0.28779 0.0
H1669 H 0.06309 0.35124 0.29106 0.0
H1670 H 0.06519 0.3117 0.25395 0.0
H1671 H 0.076 0.35631 0.257 0.0
H1672 H 0.1133 0.36307 0.21188 0.0
H1673 H 0.09885 0.35806 0.24433 0.0
H1674 H 0.0639 0.31805 0.21613 0.0
H1675 H 0.07827 0.32312 0.18354 0.0
C1676 C 0.05723 0.31745 0.2812 0.0
C1677 C 0.05664 0.32851 0.2922 0.0
C1678 C 0.06463 0.32037 0.26173 0.0
C1679 C 0.07167 0.33442 0.25285 0.0
C1680 C 0.07083 0.34542 0.2636 0.0
C1681 C 0.06336 0.34248 0.28303 0.0
C1682 C 0.10246 0.35328 0.21248 0.0
C1683 C 0.09696 0.34349 0.1951 0.0
C1684 C 0.09418 0.35042 0.23108 0.0
C1685 C 0.08023 0.33767 0.23278 0.0
C1686 C 0.0747 0.32789 0.2154 0.0
C1687 C 0.08295 0.33077 0.19676 0.0
H1688 H 0.64 0.73152 0.29682 0.0
H1689 H 0.68142 0.73284 0.29585 0.0
H1690 H 0.64643 0.74557 0.26374 0.0
H1691 H 0.68797 0.74719 0.26278 0.0
H1692 H 0.68474 0.7565 0.19048 0.0
H1693 H 0.68024 0.74399 0.22489 0.0
H1694 H 0.6634 0.76983 0.24994 0.0
H1695 H 0.66791 0.78236 0.21549 0.0
C1696 C 0.65053 0.73488 0.28963 0.0
C1697 C 0.66018 0.73101 0.299 0.0
C1698 C 0.65427 0.74304 0.27072 0.0
C1699 C 0.66774 0.74755 0.26065 0.0
C1700 C 0.67744 0.74376 0.27004 0.0
C1701 C 0.67372 0.7356 0.28904 0.0
C1702 C 0.68029 0.75968 0.20343 0.0
C1703 C 0.67664 0.7704 0.2002 0.0
C1704 C 0.67771 0.7525 0.22317 0.0
C1705 C 0.6714 0.75586 0.24014 0.0
C1706 C 0.66805 0.76681 0.23707 0.0
C1707 C 0.67063 0.77399 0.21733 0.0
H1708 H 0.28188 0.96733 0.2904 0.0
H1709 H 0.26221 0.9212 0.30144 0.0
H1710 H 0.26508 0.96203 0.25953 0.0
H1711 H 0.24541 0.91598 0.27104 0.0
H1712 H 0.2103 0.91108 0.22381 0.0
H1713 H 0.22425 0.91949 0.25782 0.0
H1714 H 0.26344 0.94955 0.22296 0.0
H1715 H 0.24955 0.94105 0.18906 0.0
C1716 C 0.27382 0.9561 0.28646 0.0
C1717 C 0.27343 0.94467 0.29818 0.0
C1718 C 0.26426 0.95307 0.26882 0.0
C1719 C 0.25394 0.9386 0.26297 0.0
C1720 C 0.25313 0.92723 0.27532 0.0
C1721 C 0.26284 0.93023 0.29261 0.0
C1722 C 0.22181 0.91969 0.22352 0.0
C1723 C 0.22891 0.92535 0.20388 0.0
C1724 C 0.22979 0.92445 0.24291 0.0
C1725 C 0.24492 0.93514 0.24298 0.0
C1726 C 0.25177 0.94139 0.22339 0.0
C1727 C 0.24387 0.93646 0.20402 0.0
H1728 H 0.70136 0.93852 0.29826 0.0
H1729 H 0.67152 0.95156 0.2742 0.0
H1730 H 0.69776 0.92493 0.26548 0.0
H1731 H 0.66839 0.93844 0.24073 0.0
H1732 H 0.65613 0.90312 0.19048 0.0
H1733 H 0.65824 0.91529 0.22434 0.0
H1734 H 0.70428 0.92856 0.22931 0.0
H1735 H 0.70188 0.91552 0.19642 0.0
C1736 C 0.6941 0.93858 0.28585 0.0
C1737 C 0.68679 0.9462 0.28879 0.0
C1738 C 0.6921 0.93084 0.26694 0.0
C1739 C 0.68291 0.93068 0.25024 0.0
C1740 C 0.67543 0.93816 0.2533 0.0
C1741 C 0.67727 0.94576 0.27243 0.0
C1742 C 0.66664 0.9084 0.19899 0.0
C1743 C 0.67882 0.90826 0.19064 0.0
C1744 C 0.66791 0.9156 0.21828 0.0
C1745 C 0.68143 0.92295 0.22967 0.0
C1746 C 0.69361 0.92284 0.22125 0.0
C1747 C 0.6923 0.91552 0.20212 0.0
H1748 H 0.06025 0.76266 0.30687 0.0
H1749 H 0.04604 0.71961 0.28304 0.0
H1750 H 0.07417 0.7733 0.27409 0.0
H1751 H 0.05993 0.73034 0.25011 0.0
H1752 H 0.07351 0.75613 0.18541 0.0
H1753 H 0.05911 0.74521 0.2179 0.0
H1754 H 0.09683 0.77485 0.25705 0.0
H1755 H 0.11124 0.78575 0.22456 0.0
C1756 C 0.06002 0.75545 0.2946 0.0
C1757 C 0.05204 0.74027 0.29757 0.0
C1758 C 0.06807 0.76157 0.2759 0.0
C1759 C 0.06815 0.75264 0.25963 0.0
C1760 C 0.05998 0.73746 0.26238 0.0
C1761 C 0.05209 0.73133 0.28125 0.0
C1762 C 0.07868 0.76034 0.20097 0.0
C1763 C 0.09347 0.7718 0.20251 0.0
C1764 C 0.07049 0.75403 0.21952 0.0
C1765 C 0.07687 0.7592 0.23995 0.0
C1766 C 0.09162 0.77072 0.24148 0.0
C1767 C 0.09988 0.77689 0.22294 0.0
H1768 H 0.27553 0.32112 0.28171 0.0
H1769 H 0.26192 0.35114 0.29935 0.0
H1770 H 0.25975 0.31434 0.24938 0.0
H1771 H 0.24612 0.34424 0.26737 0.0
H1772 H 0.20911 0.3182 0.21796 0.0
H1773 H 0.22305 0.32167 0.25148 0.0
H1774 H 0.26047 0.32866 0.21503 0.0
H1775 H 0.24659 0.32528 0.18157 0.0
C1776 C 0.26907 0.32615 0.27881 0.0
C1777 C 0.27003 0.33672 0.29301 0.0
C1778 C 0.2601 0.32231 0.26031 0.0
C1779 C 0.25171 0.32876 0.25593 0.0
C1780 C 0.25236 0.339 0.27044 0.0
C1781 C 0.2615 0.34302 0.28868 0.0
C1782 C 0.22026 0.32033 0.21717 0.0
C1783 C 0.22682 0.32158 0.19721 0.0
C1784 C 0.22824 0.32236 0.2363 0.0
C1785 C 0.24283 0.32543 0.23581 0.0
C1786 C 0.24921 0.32619 0.21587 0.0
C1787 C 0.24132 0.3244 0.19675 0.0
H1788 H 0.27404 0.32032 0.40645 0.0
H1789 H 0.28344 0.36445 0.41092 0.0
H1790 H 0.26112 0.31454 0.44069 0.0
H1791 H 0.27048 0.35864 0.44482 0.0
H1792 H 0.25841 0.34713 0.51498 0.0
H1793 H 0.27264 0.3523 0.48228 0.0
H1794 H 0.23793 0.31205 0.45435 0.0
H1795 H 0.22356 0.30693 0.48698 0.0
C1796 C 0.27344 0.3288 0.41477 0.0
C1797 C 0.27975 0.34284 0.40591 0.0
C1798 C 0.26596 0.32547 0.43429 0.0
C1799 C 0.26477 0.33613 0.44543 0.0
C1800 C 0.27134 0.35022 0.43676 0.0
C1801 C 0.2787 0.35352 0.41724 0.0
C1802 C 0.25373 0.33944 0.50181 0.0
C1803 C 0.23978 0.32667 0.50356 0.0
C1804 C 0.26193 0.34238 0.4831 0.0
C1805 C 0.2564 0.3326 0.46572 0.0
C1806 C 0.24257 0.31971 0.46758 0.0
C1807 C 0.23434 0.31679 0.48627 0.0
H1808 H 0.7019 0.95796 0.41509 0.0
H1809 H 0.65605 0.9363 0.39528 0.0
H1810 H 0.69489 0.94491 0.44903 0.0
H1811 H 0.649 0.92296 0.42961 0.0
H1812 H 0.65102 0.89017 0.48174 0.0
H1813 H 0.65405 0.90353 0.44821 0.0
H1814 H 0.6804 0.94417 0.48213 0.0
H1815 H 0.67713 0.93098 0.51558 0.0
C1816 C 0.69029 0.95042 0.41801 0.0
C1817 C 0.67952 0.94815 0.40248 0.0
C1818 C 0.68628 0.94301 0.43753 0.0
C1819 C 0.67141 0.93297 0.44197 0.0
C1820 C 0.66056 0.93064 0.42653 0.0
C1821 C 0.66457 0.93831 0.407 0.0
C1822 C 0.6572 0.90195 0.48212 0.0
C1823 C 0.66409 0.90949 0.50128 0.0
C1824 C 0.6589 0.90958 0.46294 0.0
C1825 C 0.66759 0.92486 0.46258 0.0
C1826 C 0.67383 0.93238 0.4819 0.0
C1827 C 0.67204 0.9248 0.50102 0.0
H1828 H 0.04568 0.7363 0.42771 0.0
H1829 H 0.07102 0.72226 0.39312 0.0
H1830 H 0.06281 0.74353 0.45797 0.0
H1831 H 0.08892 0.73043 0.4229 0.0
H1832 H 0.11303 0.73733 0.48746 0.0
H1833 H 0.09502 0.72764 0.45814 0.0
H1834 H 0.08602 0.76206 0.4677 0.0
H1835 H 0.10274 0.77077 0.49819 0.0
C1836 C 0.055 0.73481 0.42662 0.0
C1837 C 0.05709 0.72881 0.40808 0.0
C1838 C 0.06495 0.73912 0.44388 0.0
C1839 C 0.07755 0.73795 0.44282 0.0
C1840 C 0.07935 0.73145 0.42445 0.0
C1841 C 0.06913 0.72679 0.40733 0.0
C1842 C 0.10705 0.74272 0.48355 0.0
C1843 C 0.10938 0.75483 0.49549 0.0
C1844 C 0.09683 0.73726 0.46643 0.0
C1845 C 0.08883 0.7439 0.46057 0.0
C1846 C 0.09159 0.75633 0.47201 0.0
C1847 C 0.10154 0.76159 0.48933 0.0
H1848 H 0.34626 0.06399 0.74232 0.0
H1849 H 0.30165 0.05502 0.74661 0.0
H1850 H 0.35298 0.07855 0.77508 0.0
H1851 H 0.30844 0.0697 0.77918 0.0
H1852 H 0.36306 0.11745 0.81801 0.0
H1853 H 0.35612 0.10201 0.78623 0.0
H1854 H 0.31589 0.06984 0.81698 0.0
H1855 H 0.32288 0.08519 0.84891 0.0
C1856 C 0.33787 0.06507 0.75028 0.0
C1857 C 0.32343 0.05836 0.74179 0.0
C1858 C 0.34175 0.07349 0.76897 0.0
C1859 C 0.33126 0.07534 0.77966 0.0
C1860 C 0.31675 0.06839 0.77142 0.0
C1861 C 0.31288 0.06003 0.75269 0.0
C1862 C 0.35279 0.10703 0.81809 0.0
C1863 C 0.34354 0.10256 0.83605 0.0
C1864 C 0.34883 0.09818 0.79987 0.0
C1865 C 0.33548 0.08468 0.79912 0.0
C1866 C 0.32617 0.08025 0.81698 0.0
C1867 C 0.33016 0.08908 0.83525 0.0
H1868 H 0.95276 0.2901 0.74731 0.0
H1869 H 0.96201 0.25544 0.74529 0.0
H1870 H 0.93823 0.27941 0.77965 0.0
H1871 H 0.94746 0.24478 0.77756 0.0
H1872 H 0.93038 0.23761 0.84717 0.0
H1873 H 0.94683 0.24959 0.81696 0.0
H1874 H 0.91401 0.25637 0.78653 0.0
H1875 H 0.89742 0.24412 0.81634 0.0
C1876 C 0.95186 0.28031 0.7539 0.0
C1877 C 0.95847 0.27357 0.74364 0.0
C1878 C 0.94345 0.27414 0.77232 0.0
C1879 C 0.94162 0.2612 0.781 0.0
C1880 C 0.94874 0.2548 0.77129 0.0
C1881 C 0.95702 0.26088 0.75276 0.0
C1882 C 0.92659 0.24148 0.83393 0.0
C1883 C 0.91256 0.2399 0.83424 0.0
C1884 C 0.93605 0.24842 0.81669 0.0
C1885 C 0.93175 0.25402 0.7995 0.0
C1886 C 0.91774 0.25241 0.79977 0.0
C1887 C 0.90824 0.24538 0.81687 0.0
H1888 H 0.72884 0.68708 0.74676 0.0
H1889 H 0.74679 0.66249 0.72095 0.0
H1890 H 0.74616 0.69451 0.77726 0.0
H1891 H 0.76459 0.67048 0.75045 0.0
H1892 H 0.77892 0.66909 0.81872 0.0
H1893 H 0.7641 0.66473 0.78653 0.0
H1894 H 0.77052 0.70774 0.7916 0.0
H1895 H 0.78453 0.71169 0.82497 0.0
C1896 C 0.73673 0.68357 0.74738 0.0
C1897 C 0.73635 0.67405 0.73172 0.0
C1898 C 0.74671 0.68785 0.7648 0.0
C1899 C 0.75664 0.68288 0.76663 0.0
C1900 C 0.75681 0.67414 0.75007 0.0
C1901 C 0.74668 0.66964 0.73301 0.0
C1902 C 0.7771 0.6776 0.81315 0.0
C1903 C 0.78283 0.69069 0.82466 0.0
C1904 C 0.76876 0.6752 0.79437 0.0
C1905 C 0.76611 0.6859 0.78626 0.0
C1906 C 0.77217 0.69917 0.79744 0.0
C1907 C 0.7804 0.70152 0.81645 0.0
H1908 H 0.73102 0.67785 0.62253 0.0
H1909 H 0.70331 0.63103 0.61947 0.0
H1910 H 0.74207 0.6779 0.5884 0.0
H1911 H 0.71363 0.63105 0.58489 0.0
H1912 H 0.74578 0.63291 0.53686 0.0
H1913 H 0.73497 0.63384 0.57059 0.0
H1914 H 0.73944 0.67465 0.55111 0.0
H1915 H 0.75099 0.67397 0.51786 0.0
C1916 C 0.72709 0.6676 0.61431 0.0
C1917 C 0.71641 0.65443 0.62372 0.0
C1918 C 0.73338 0.66761 0.5947 0.0
C1919 C 0.72892 0.65445 0.5839 0.0
C1920 C 0.71772 0.64137 0.59296 0.0
C1921 C 0.71166 0.64135 0.61272 0.0
C1922 C 0.74448 0.64208 0.53991 0.0
C1923 C 0.74919 0.65336 0.52484 0.0
C1924 C 0.73816 0.64259 0.55915 0.0
C1925 C 0.73611 0.65424 0.56359 0.0
C1926 C 0.74097 0.6656 0.54846 0.0
C1927 C 0.74755 0.6652 0.52937 0.0
H1928 H 0.34704 0.06483 0.62444 0.0
H1929 H 0.30488 0.0619 0.62711 0.0
H1930 H 0.35263 0.07911 0.59131 0.0
H1931 H 0.31056 0.07626 0.59449 0.0
H1932 H 0.31731 0.08684 0.52345 0.0
H1933 H 0.31292 0.07308 0.55654 0.0
H1934 H 0.35784 0.10298 0.57739 0.0
H1935 H 0.36226 0.11686 0.54408 0.0
C1936 C 0.339 0.06727 0.61805 0.0
C1937 C 0.32547 0.06213 0.62838 0.0
C1938 C 0.34224 0.07551 0.59914 0.0
C1939 C 0.33199 0.07873 0.59017 0.0
C1940 C 0.31859 0.07376 0.60073 0.0
C1941 C 0.31536 0.06557 0.61954 0.0
C1942 C 0.32622 0.09061 0.53518 0.0
C1943 C 0.34008 0.10306 0.53121 0.0
C1944 C 0.32371 0.08269 0.55415 0.0
C1945 C 0.335 0.087 0.5697 0.0
C1946 C 0.34896 0.09932 0.56565 0.0
C1947 C 0.35147 0.10727 0.54659 0.0
H1948 H 0.94776 0.29965 0.6322 0.0
H1949 H 0.94106 0.25641 0.63247 0.0
H1950 H 0.92933 0.29231 0.60309 0.0
H1951 H 0.92299 0.24925 0.60364 0.0
H1952 H 0.88236 0.23547 0.56478 0.0
H1953 H 0.89811 0.24463 0.59684 0.0
H1954 H 0.92683 0.28521 0.56431 0.0
H1955 H 0.91106 0.27606 0.53222 0.0
C1956 C 0.94236 0.28861 0.62612 0.0
C1957 C 0.94592 0.27864 0.63466 0.0
C1958 C 0.93185 0.28442 0.60945 0.0
C1959 C 0.9246 0.27015 0.6012 0.0
C1960 C 0.92813 0.26023 0.60988 0.0
C1961 C 0.93864 0.26441 0.62633 0.0
C1962 C 0.89195 0.2464 0.56454 0.0
C1963 C 0.89554 0.25496 0.54587 0.0
C1964 C 0.90098 0.25165 0.58289 0.0
C1965 C 0.91383 0.26557 0.583 0.0
C1966 C 0.91695 0.27448 0.56479 0.0
C1967 C 0.9079 0.26923 0.5464 0.0
H1968 H 0.33491 0.2831 0.61231 0.0
H1969 H 0.36619 0.27016 0.62893 0.0
H1970 H 0.3296 0.27003 0.57807 0.0
H1971 H 0.36084 0.25716 0.59499 0.0
H1972 H 0.3388 0.22474 0.54065 0.0
H1973 H 0.34 0.23547 0.57573 0.0
H1974 H 0.34438 0.27346 0.54432 0.0
H1975 H 0.34307 0.26269 0.50927 0.0
C1976 C 0.34056 0.2774 0.60874 0.0
C1977 C 0.35103 0.27773 0.62328 0.0
C1978 C 0.33755 0.26997 0.58915 0.0
C1979 C 0.34478 0.26255 0.58392 0.0
C1980 C 0.35497 0.26263 0.59868 0.0
C1981 C 0.35812 0.27019 0.61806 0.0
C1982 C 0.33977 0.23527 0.54127 0.0
C1983 C 0.34095 0.24294 0.52227 0.0
C1984 C 0.34055 0.24145 0.56131 0.0
C1985 C 0.34236 0.25533 0.56274 0.0
C1986 C 0.34289 0.26271 0.54372 0.0
C1987 C 0.34228 0.25661 0.52368 0.0
H1988 H 0.72333 0.05343 0.61807 0.0
H1989 H 0.71461 0.08847 0.61727 0.0
H1990 H 0.73771 0.0631 0.58533 0.0
H1991 H 0.72903 0.09813 0.58475 0.0
H1992 H 0.74496 0.10377 0.5155 0.0
H1993 H 0.72895 0.09238 0.54625 0.0
H1994 H 0.76175 0.08525 0.57594 0.0
H1995 H 0.77789 0.09684 0.5454 0.0
C1996 C 0.72436 0.0631 0.61083 0.0
C1997 C 0.71787 0.07021 0.62034 0.0
C1998 C 0.73268 0.06869 0.59216 0.0
C1999 C 0.73456 0.08142 0.58254 0.0
C2000 C 0.72768 0.08825 0.59168 0.0
C2001 C 0.71948 0.08274 0.6104 0.0
C2002 C 0.74884 0.09991 0.52867 0.0
C2003 C 0.76276 0.10129 0.52799 0.0
C2004 C 0.73962 0.09333 0.54624 0.0
C2005 C 0.74407 0.08789 0.56348 0.0
C2006 C 0.75791 0.08912 0.56274 0.0
C2007 C 0.76716 0.09578 0.54523 0.0
H2008 H 0.946 0.6953 0.61572 0.0
H2009 H 0.93351 0.65092 0.62964 0.0
H2010 H 0.92815 0.68696 0.58647 0.0
H2011 H 0.91511 0.64243 0.60037 0.0
H2012 H 0.89617 0.63654 0.52992 0.0
H2013 H 0.91241 0.64235 0.56144 0.0
H2014 H 0.90222 0.67466 0.58068 0.0
H2015 H 0.88643 0.66912 0.54892 0.0
C2016 C 0.93936 0.68371 0.61264 0.0
C2017 C 0.94115 0.67378 0.62515 0.0
C2018 C 0.92899 0.6789 0.59591 0.0
C2019 C 0.91997 0.66399 0.59125 0.0
C2020 C 0.9219 0.654 0.6035 0.0
C2021 C 0.93241 0.65885 0.62028 0.0
C2022 C 0.89726 0.64471 0.54112 0.0
C2023 C 0.8902 0.65251 0.53689 0.0
C2024 C 0.90654 0.64803 0.55919 0.0
C2025 C 0.90884 0.65915 0.57343 0.0
C2026 C 0.90105 0.66632 0.56975 0.0
C2027 C 0.89194 0.66311 0.55163 0.0
H2028 H 0.96615 0.71158 0.74102 0.0
H2029 H 0.94183 0.66464 0.73754 0.0
H2030 H 0.95495 0.71038 0.77528 0.0
H2031 H 0.92991 0.66336 0.77144 0.0
H2032 H 0.9208 0.66639 0.84256 0.0
H2033 H 0.93252 0.66669 0.80891 0.0
H2034 H 0.9327 0.7055 0.78941 0.0
H2035 H 0.92172 0.7055 0.82347 0.0
C2036 C 0.95833 0.70098 0.74758 0.0
C2037 C 0.95482 0.68821 0.73656 0.0
C2038 C 0.95177 0.70028 0.76716 0.0
C2039 C 0.94129 0.68678 0.77608 0.0
C2040 C 0.93802 0.67396 0.76523 0.0
C2041 C 0.9448 0.67467 0.74575 0.0
C2042 C 0.92332 0.67491 0.83095 0.0
C2043 C 0.92047 0.68597 0.83558 0.0
C2044 C 0.92998 0.67508 0.81163 0.0
C2045 C 0.93374 0.6862 0.79641 0.0
C2046 C 0.93039 0.69699 0.80091 0.0
C2047 C 0.92398 0.69695 0.82035 0.0
H2048 H 0.32551 0.26745 0.7331 0.0
H2049 H 0.37209 0.28812 0.74773 0.0
H2050 H 0.31996 0.25272 0.76583 0.0
H2051 H 0.36664 0.274 0.78047 0.0
H2052 H 0.3552 0.23661 0.82398 0.0
H2053 H 0.35853 0.24988 0.79062 0.0
H2054 H 0.32032 0.25273 0.80463 0.0
H2055 H 0.31674 0.23891 0.83779 0.0
C2056 C 0.33453 0.26899 0.74344 0.0
C2057 C 0.34923 0.2788 0.7377 0.0
C2058 C 0.33136 0.26057 0.7622 0.0
C2059 C 0.34286 0.26195 0.77563 0.0
C2060 C 0.3575 0.27226 0.77023 0.0
C2061 C 0.36064 0.28047 0.75148 0.0
C2062 C 0.34749 0.24002 0.81986 0.0
C2063 C 0.3358 0.23685 0.83353 0.0
C2064 C 0.34942 0.24771 0.8008 0.0
C2065 C 0.33986 0.25265 0.79506 0.0
C2066 C 0.32785 0.24905 0.80844 0.0
C2067 C 0.32581 0.24116 0.82745 0.0
H2068 H 0.72068 0.04476 0.74119 0.0
H2069 H 0.73657 0.08988 0.72683 0.0
H2070 H 0.73602 0.05217 0.77394 0.0
H2071 H 0.75223 0.09729 0.75877 0.0
H2072 H 0.77399 0.07182 0.82374 0.0
H2073 H 0.76058 0.06422 0.78941 0.0
H2074 H 0.74897 0.09701 0.79612 0.0
H2075 H 0.76304 0.10513 0.82947 0.0
C2076 C 0.72761 0.05625 0.74486 0.0
C2077 C 0.72726 0.06672 0.73163 0.0
C2078 C 0.73645 0.06052 0.76356 0.0
C2079 C 0.74521 0.07534 0.76922 0.0
C2080 C 0.74532 0.08577 0.75532 0.0
C2081 C 0.73639 0.08152 0.7369 0.0
C2082 C 0.76876 0.07754 0.81768 0.0
C2083 C 0.76959 0.08909 0.82943 0.0
C2084 C 0.76091 0.07306 0.79813 0.0
C2085 C 0.7537 0.08001 0.7899 0.0
C2086 C 0.75457 0.09154 0.8017 0.0
C2087 C 0.76247 0.09607 0.82108 0.0
H2088 H 0.02818 0.3516 0.99246 0.0
H2089 H 0.03448 0.37781 0.04851 0.0
H2090 H 0.04996 0.3506 0.00286 0.0
H2091 H 0.0558 0.37643 0.05921 0.0
H2092 H 0.09986 0.38175 0.06708 0.0
H2093 H 0.08053 0.38449 0.05086 0.0
H2094 H 0.05803 0.33978 0.02935 0.0
H2095 H 0.07799 0.33731 0.04435 0.0
C2096 C 0.03421 0.35717 0.00697 0.0
C2097 C 0.02957 0.36479 0.01963 0.0
C2098 C 0.04665 0.35652 0.013 0.0
C2099 C 0.05471 0.36346 0.03187 0.0
C2100 C 0.0501 0.37119 0.04436 0.0
C2101 C 0.03776 0.3719 0.03828 0.0
C2102 C 0.09106 0.37259 0.05836 0.0
C2103 C 0.09054 0.35926 0.05717 0.0
C2104 C 0.07978 0.3741 0.04935 0.0
C2105 C 0.06754 0.36229 0.0391 0.0
C2106 C 0.06729 0.34914 0.03705 0.0
C2107 C 0.07868 0.34767 0.04592 0.0
H2108 H 0.67443 0.68993 0.00841 0.0
H2109 H 0.63399 0.66486 0.04362 0.0
H2110 H 0.67656 0.71235 0.0208 0.0
H2111 H 0.63577 0.68729 0.05536 0.0
H2112 H 0.65405 0.72943 0.09432 0.0
H2113 H 0.64971 0.70669 0.07942 0.0
H2114 H 0.66728 0.7281 0.01863 0.0
H2115 H 0.67199 0.75102 0.03391 0.0
C2116 C 0.66586 0.6892 0.01856 0.0
C2117 C 0.65409 0.67559 0.02514 0.0
C2118 C 0.66703 0.70209 0.02556 0.0
C2119 C 0.65637 0.70171 0.03918 0.0
C2120 C 0.64436 0.68806 0.04524 0.0
C2121 C 0.64328 0.67516 0.03841 0.0
C2122 C 0.65675 0.72922 0.07766 0.0
C2123 C 0.66335 0.74203 0.06529 0.0
C2124 C 0.65424 0.71615 0.06906 0.0
C2125 C 0.65816 0.71548 0.04777 0.0
C2126 C 0.66437 0.72823 0.03519 0.0
C2127 C 0.66701 0.74136 0.04389 0.0
H2128 H 0.32338 0.9829 0.03366 0.0
H2129 H 0.31818 0.94084 0.02258 0.0
H2130 H 0.29754 0.97084 0.04461 0.0
H2131 H 0.29254 0.92894 0.03311 0.0
H2132 H 0.24625 0.9421 0.04882 0.0
H2133 H 0.27087 0.95466 0.03299 0.0
H2134 H 0.28143 0.92642 0.0683 0.0
H2135 H 0.25721 0.91413 0.08423 0.0
C2136 C 0.31669 0.97112 0.03322 0.0
C2137 C 0.32291 0.96283 0.02758 0.0
C2138 C 0.30188 0.96423 0.03941 0.0
C2139 C 0.29308 0.94894 0.04003 0.0
C2140 C 0.29912 0.94073 0.03325 0.0
C2141 C 0.31383 0.94757 0.02715 0.0
C2142 C 0.25385 0.93859 0.05318 0.0
C2143 C 0.24964 0.92695 0.0676 0.0
C2144 C 0.26793 0.94579 0.04412 0.0
C2145 C 0.27803 0.94143 0.04921 0.0
C2146 C 0.2738 0.92983 0.06362 0.0
C2147 C 0.25984 0.92273 0.07271 0.0
H2148 H 0.37672 0.03729 0.98351 0.0
H2149 H 0.35524 0.03731 0.04191 0.0
H2150 H 0.37641 0.05857 0.97091 0.0
H2151 H 0.35531 0.05896 0.02953 0.0
H2152 H 0.34226 0.08651 0.98763 0.0
H2153 H 0.34363 0.06636 0.00321 0.0
H2154 H 0.38704 0.08393 0.97663 0.0
H2155 H 0.38533 0.1035 0.96004 0.0
C2156 C 0.37208 0.04194 0.9938 0.0
C2157 C 0.36599 0.03556 0.01372 0.0
C2158 C 0.37198 0.05424 0.98662 0.0
C2159 C 0.36587 0.06056 0.99921 0.0
C2160 C 0.35995 0.05429 0.01929 0.0
C2161 C 0.35999 0.04192 0.02645 0.0
C2162 C 0.35209 0.08607 0.98507 0.0
C2163 C 0.36364 0.09665 0.97243 0.0
C2164 C 0.35295 0.07458 0.99424 0.0
C2165 C 0.3654 0.07341 0.99105 0.0
C2166 C 0.37717 0.08431 0.97912 0.0
C2167 C 0.37627 0.09571 0.96987 0.0
H2168 H 0.93386 0.32499 0.02901 0.0
H2169 H 0.97219 0.32543 0.00545 0.0
H2170 H 0.91825 0.29978 0.01775 0.0
H2171 H 0.95639 0.30006 0.99391 0.0
H2172 H 0.92225 0.25058 0.98595 0.0
H2173 H 0.93836 0.27365 0.0047 0.0
H2174 H 0.91147 0.29019 0.98061 0.0
H2175 H 0.89581 0.26764 0.96152 0.0
C2176 C 0.939 0.31965 0.02168 0.0
C2177 C 0.95425 0.32732 0.0178 0.0
C2178 C 0.93003 0.3052 0.01519 0.0
C2179 C 0.93605 0.29803 0.00461 0.0
C2180 C 0.95144 0.30531 0.00207 0.0
C2181 C 0.96047 0.31985 0.00862 0.0
C2182 C 0.91977 0.25913 0.98468 0.0
C2183 C 0.90759 0.25711 0.97231 0.0
C2184 C 0.92899 0.27232 0.99546 0.0
C2185 C 0.9261 0.28368 0.99429 0.0
C2186 C 0.91382 0.28155 0.98225 0.0
C2187 C 0.90475 0.26851 0.97136 0.0
H2188 H 0.69137 0.62211 0.00212 0.0
H2189 H 0.69071 0.66187 0.00606 0.0
H2190 H 0.71698 0.63594 0.99113 0.0
H2191 H 0.71654 0.67578 0.99525 0.0
H2192 H 0.75386 0.68978 0.94491 0.0
H2193 H 0.72988 0.67839 0.96188 0.0
H2194 H 0.74213 0.65378 0.00322 0.0
H2195 H 0.76626 0.66529 0.98631 0.0
C2196 C 0.69673 0.63383 0.00086 0.0
C2197 C 0.68893 0.64086 0.00482 0.0
C2198 C 0.71148 0.64178 0.99472 0.0
C2199 C 0.71881 0.65696 0.9923 0.0
C2200 C 0.71114 0.66407 0.99679 0.0
C2201 C 0.69637 0.65611 0.00306 0.0
C2202 C 0.75161 0.68221 0.95797 0.0
C2203 C 0.762 0.67841 0.96417 0.0
C2204 C 0.73783 0.67566 0.9677 0.0
C2205 C 0.73406 0.66512 0.98382 0.0
C2206 C 0.74462 0.66171 0.9906 0.0
C2207 C 0.75844 0.66828 0.9809 0.0
H2208 H 0.98749 0.66971 0.02872 0.0
H2209 H 0.96367 0.62659 0.00101 0.0
H2210 H 0.96791 0.67373 0.01705 0.0
H2211 H 0.94376 0.63039 0.99001 0.0
H2212 H 0.92362 0.65092 0.94681 0.0
H2213 H 0.93995 0.64395 0.96335 0.0
H2214 H 0.94326 0.66814 0.02051 0.0
H2215 H 0.9271 0.67539 0.00359 0.0
C2216 C 0.97793 0.66096 0.02051 0.0
C2217 C 0.97723 0.64788 0.01561 0.0
C2218 C 0.96662 0.66324 0.01391 0.0
C2219 C 0.95424 0.65244 0.0024 0.0
C2220 C 0.95324 0.63908 0.99843 0.0
C2221 C 0.96463 0.63686 0.00487 0.0
C2222 C 0.92757 0.6545 0.96309 0.0
C2223 C 0.92408 0.66373 0.97387 0.0
C2224 C 0.93696 0.65048 0.97263 0.0
C2225 C 0.94303 0.65552 0.99329 0.0
C2226 C 0.93903 0.66427 0.00443 0.0
C2227 C 0.92972 0.66839 0.99479 0.0
H2228 H 0.34329 0.3134 0.04041 0.0
H2229 H 0.36406 0.33343 0.98032 0.0
H2230 H 0.3403 0.29043 0.02849 0.0
H2231 H 0.3607 0.31046 0.96819 0.0
H2232 H 0.3639 0.27115 0.9575 0.0
H2233 H 0.36886 0.2938 0.97352 0.0
H2234 H 0.32605 0.27114 0.00321 0.0
H2235 H 0.32141 0.24825 0.98817 0.0
C2236 C 0.34724 0.31292 0.02467 0.0
C2237 C 0.35392 0.32527 0.01133 0.0
C2238 C 0.34543 0.29972 0.01778 0.0
C2239 C 0.35024 0.29855 0.99736 0.0
C2240 C 0.35708 0.31098 0.98416 0.0
C2241 C 0.35893 0.32416 0.99107 0.0
C2242 C 0.35566 0.27088 0.96787 0.0
C2243 C 0.34222 0.2578 0.97147 0.0
C2244 C 0.35843 0.28396 0.97681 0.0
C2245 C 0.34779 0.28438 0.98946 0.0
C2246 C 0.33454 0.27125 0.99366 0.0
C2247 C 0.3318 0.25812 0.9848 0.0
H2248 H 0.67945 0.01949 0.99878 0.0
H2249 H 0.68376 0.05989 0.01895 0.0
H2250 H 0.7053 0.03277 0.98802 0.0
H2251 H 0.70956 0.07303 0.00883 0.0
H2252 H 0.74563 0.09276 0.95834 0.0
H2253 H 0.72158 0.07938 0.97473 0.0
H2254 H 0.7314 0.04749 0.99883 0.0
H2255 H 0.75573 0.06103 0.98225 0.0
C2256 C 0.68598 0.03115 0.00129 0.0
C2257 C 0.67949 0.03866 0.00941 0.0
C2258 C 0.70081 0.03876 0.99522 0.0
C2259 C 0.70945 0.054 0.99726 0.0
C2260 C 0.70314 0.06134 0.00655 0.0
C2261 C 0.68834 0.05379 0.01244 0.0
C2262 C 0.74285 0.08309 0.96753 0.0
C2263 C 0.75271 0.07807 0.96914 0.0
C2264 C 0.729 0.07538 0.97693 0.0
C2265 C 0.72457 0.0624 0.98826 0.0
C2266 C 0.73443 0.05739 0.99008 0.0
C2267 C 0.74837 0.06515 0.98061 0.0
H2268 H 0.62624 0.94875 0.98809 0.0
H2269 H 0.64226 0.97141 0.04873 0.0
H2270 H 0.63232 0.93072 0.00039 0.0
H2271 H 0.6482 0.95351 0.06085 0.0
H2272 H 0.67412 0.93108 0.06509 0.0
H2273 H 0.66697 0.94756 0.05037 0.0
H2274 H 0.62522 0.91091 0.02912 0.0
H2275 H 0.63253 0.89422 0.0436 0.0
C2276 C 0.63095 0.94985 0.00404 0.0
C2277 C 0.63386 0.9616 0.01734 0.0
C2278 C 0.63438 0.9395 0.0111 0.0
C2279 C 0.64088 0.94081 0.03149 0.0
C2280 C 0.64344 0.95235 0.04491 0.0
C2281 C 0.63995 0.96258 0.03797 0.0
C2282 C 0.66352 0.92648 0.05693 0.0
C2283 C 0.65392 0.91131 0.05545 0.0
C2284 C 0.65935 0.93594 0.04872 0.0
C2285 C 0.64548 0.93053 0.03877 0.0
C2286 C 0.636 0.91538 0.03667 0.0
C2287 C 0.64014 0.90585 0.04507 0.0
H2288 H 0.03065 0.68264 0.01798 0.0
H2289 H 0.07 0.68014 0.02058 0.0
H2290 H 0.04533 0.70835 0.02798 0.0
H2291 H 0.08444 0.7054 0.03136 0.0
H2292 H 0.11057 0.75272 0.04143 0.0
H2293 H 0.09501 0.72987 0.02224 0.0
H2294 H 0.05741 0.72263 0.05874 0.0
H2295 H 0.07292 0.74584 0.07702 0.0
C2296 C 0.04243 0.68758 0.02055 0.0
C2297 C 0.04912 0.67929 0.01856 0.0
C2298 C 0.05084 0.70231 0.02642 0.0
C2299 C 0.06612 0.70904 0.03057 0.0
C2300 C 0.0728 0.70078 0.02792 0.0
C2301 C 0.06445 0.68617 0.02189 0.0
C2302 C 0.0989 0.74635 0.04494 0.0
C2303 C 0.09294 0.75097 0.06074 0.0
C2304 C 0.08998 0.73319 0.03411 0.0
C2305 C 0.07496 0.72419 0.03919 0.0
C2306 C 0.06886 0.72927 0.05419 0.0
C2307 C 0.07775 0.74257 0.06475 0.0
H2308 H 0.31453 0.37871 0.00945 0.0
H2309 H 0.31519 0.34083 0.0314 0.0
H2310 H 0.2887 0.3671 0.01896 0.0
H2311 H 0.28926 0.32928 0.04153 0.0
H2312 H 0.25344 0.35318 0.06995 0.0
H2313 H 0.27723 0.36233 0.05366 0.0
H2314 H 0.26312 0.31923 0.0303 0.0
H2315 H 0.23897 0.30996 0.04669 0.0
C2316 C 0.30912 0.36783 0.01617 0.0
C2317 C 0.31697 0.36078 0.01998 0.0
C2318 C 0.29431 0.3612 0.0217 0.0
C2319 C 0.287 0.34739 0.03142 0.0
C2320 C 0.29457 0.33992 0.03403 0.0
C2321 C 0.30943 0.34654 0.02829 0.0
C2322 C 0.2552 0.34566 0.06093 0.0
C2323 C 0.24417 0.33085 0.05942 0.0
C2324 C 0.26891 0.35092 0.0516 0.0
C2325 C 0.27205 0.34155 0.04047 0.0
C2326 C 0.26106 0.32672 0.03885 0.0
C2327 C 0.24724 0.32142 0.04822 0.0
H2328 H 0.68648 0.67639 0.32742 0.0
H2329 H 0.70655 0.71219 0.37252 0.0
H2330 H 0.70479 0.67006 0.33735 0.0
H2331 H 0.7249 0.70581 0.38239 0.0
H2332 H 0.76203 0.6956 0.38333 0.0
H2333 H 0.74615 0.70374 0.36801 0.0
H2334 H 0.7087 0.65986 0.3717 0.0
H2335 H 0.72424 0.65179 0.38768 0.0
C2336 C 0.69491 0.68304 0.33924 0.0
C2337 C 0.69496 0.69473 0.34931 0.0
C2338 C 0.70536 0.67936 0.34498 0.0
C2339 C 0.71622 0.68738 0.36074 0.0
C2340 C 0.71672 0.69949 0.37009 0.0
C2341 C 0.70616 0.70309 0.36451 0.0
C2342 C 0.75041 0.68767 0.38092 0.0
C2343 C 0.7445 0.673 0.38682 0.0
C2344 C 0.74134 0.69235 0.37207 0.0
C2345 C 0.7262 0.68243 0.36862 0.0
C2346 C 0.72038 0.66772 0.37384 0.0
C2347 C 0.72936 0.66309 0.38292 0.0
H2348 H 0.29901 0.00235 0.37759 0.0
H2349 H 0.33695 0.02506 0.33662 0.0
H2350 H 0.30287 0.0257 0.38967 0.0
H2351 H 0.3408 0.04831 0.34878 0.0
H2352 H 0.35343 0.08438 0.3999 0.0
H2353 H 0.34844 0.06159 0.38439 0.0
H2354 H 0.30263 0.04803 0.37529 0.0
H2355 H 0.30766 0.07119 0.3901 0.0
C2356 C 0.30812 0.0123 0.37108 0.0
C2357 C 0.31771 0.01183 0.35621 0.0
C2358 C 0.31027 0.02566 0.3779 0.0
C2359 C 0.32216 0.03882 0.37021 0.0
C2360 C 0.33161 0.03834 0.35512 0.0
C2361 C 0.32936 0.02501 0.34811 0.0
C2362 C 0.34235 0.07678 0.39412 0.0
C2363 C 0.33099 0.07979 0.39618 0.0
C2364 C 0.33948 0.06363 0.38534 0.0
C2365 C 0.32515 0.05302 0.37862 0.0
C2366 C 0.31377 0.05596 0.38052 0.0
C2367 C 0.31667 0.06924 0.38907 0.0
H2368 H 0.98857 0.28164 0.35466 0.0
H2369 H 0.99692 0.32312 0.37762 0.0
H2370 H 0.96325 0.26991 0.36735 0.0
H2371 H 0.97157 0.31127 0.39053 0.0
H2372 H 0.93578 0.27836 0.43952 0.0
H2373 H 0.95931 0.29255 0.42117 0.0
H2374 H 0.93874 0.26958 0.36208 0.0
H2375 H 0.91504 0.25545 0.38053 0.0
C2376 C 0.98494 0.28828 0.36218 0.0
C2377 C 0.99478 0.30329 0.3653 0.0
C2378 C 0.97042 0.28157 0.3693 0.0
C2379 C 0.96549 0.28968 0.37997 0.0
C2380 C 0.97514 0.30477 0.38243 0.0
C2381 C 0.98961 0.31154 0.37499 0.0
C2382 C 0.93627 0.27648 0.42255 0.0
C2383 C 0.92368 0.26579 0.41142 0.0
C2384 C 0.94969 0.28466 0.41202 0.0
C2385 C 0.95083 0.28216 0.39022 0.0
C2386 C 0.93814 0.27168 0.37892 0.0
C2387 C 0.92462 0.26367 0.3894 0.0
H2388 H 0.02473 0.37676 0.37888 0.0
H2389 H 0.04939 0.37856 0.32314 0.0
H2390 H 0.02513 0.39858 0.36647 0.0
H2391 H 0.04937 0.39994 0.31042 0.0
H2392 H 0.05754 0.44434 0.29895 0.0
H2393 H 0.05912 0.42498 0.31649 0.0
H2394 H 0.01456 0.40634 0.33915 0.0
H2395 H 0.01332 0.42634 0.32277 0.0
C2396 C 0.03026 0.38182 0.36401 0.0
C2397 C 0.03703 0.3759 0.35203 0.0
C2398 C 0.03041 0.39428 0.35682 0.0
C2399 C 0.03729 0.40108 0.33742 0.0
C2400 C 0.04421 0.39522 0.32563 0.0
C2401 C 0.04413 0.38285 0.33287 0.0
C2402 C 0.04819 0.43638 0.30815 0.0
C2403 C 0.03527 0.43697 0.30932 0.0
C2404 C 0.04902 0.42508 0.31795 0.0
C2405 C 0.0369 0.41392 0.329 0.0
C2406 C 0.02416 0.41477 0.33088 0.0
C2407 C 0.02337 0.42616 0.32122 0.0
H2408 H 0.64213 0.66302 0.3287 0.0
H2409 H 0.60478 0.65675 0.36453 0.0
H2410 H 0.62846 0.63762 0.31817 0.0
H2411 H 0.59132 0.63094 0.35549 0.0
H2412 H 0.56485 0.59034 0.31405 0.0
H2413 H 0.57858 0.61476 0.3285 0.0
H2414 H 0.61879 0.6138 0.32608 0.0
H2415 H 0.60545 0.59026 0.30911 0.0
C2416 C 0.63109 0.65607 0.33479 0.0
C2417 C 0.6245 0.66187 0.34734 0.0
C2418 C 0.62321 0.6414 0.32888 0.0
C2419 C 0.60865 0.63201 0.33588 0.0
C2420 C 0.60233 0.63778 0.34926 0.0
C2421 C 0.61009 0.65257 0.35467 0.0
C2422 C 0.57665 0.59537 0.31624 0.0
C2423 C 0.58393 0.58818 0.30992 0.0
C2424 C 0.58456 0.60939 0.32503 0.0
C2425 C 0.59995 0.61653 0.32834 0.0
C2426 C 0.60706 0.60897 0.32326 0.0
C2427 C 0.59924 0.59516 0.3139 0.0
H2428 H 0.34783 0.95476 0.31871 0.0
H2429 H 0.35393 0.99478 0.3444 0.0
H2430 H 0.37376 0.96715 0.30996 0.0
H2431 H 0.38021 0.00719 0.33616 0.0
H2432 H 0.4207 0.02661 0.29078 0.0
H2433 H 0.3961 0.0156 0.30566 0.0
H2434 H 0.39802 0.97787 0.32463 0.0
H2435 H 0.42224 0.98849 0.30857 0.0
C2436 C 0.35475 0.9662 0.32272 0.0
C2437 C 0.34875 0.97378 0.33222 0.0
C2438 C 0.36971 0.97329 0.31787 0.0
C2439 C 0.37917 0.98816 0.3225 0.0
C2440 C 0.37323 0.99575 0.33222 0.0
C2441 C 0.35817 0.98864 0.337 0.0
C2442 C 0.41589 0.01597 0.29817 0.0
C2443 C 0.42337 0.00833 0.29807 0.0
C2444 C 0.40183 0.00973 0.30697 0.0
C2445 C 0.39493 0.99572 0.31605 0.0
C2446 C 0.40285 0.98853 0.31731 0.0
C2447 C 0.41686 0.99473 0.30837 0.0
H2448 H 0.63776 0.9633 0.31223 0.0
H2449 H 0.64486 0.99081 0.36695 0.0
H2450 H 0.61645 0.96475 0.30132 0.0
H2451 H 0.62324 0.99198 0.35629 0.0
H2452 H 0.59459 0.00439 0.31488 0.0
H2453 H 0.61514 0.0024 0.3287 0.0
H2454 H 0.59167 0.9569 0.31113 0.0
H2455 H 0.57156 0.95905 0.29638 0.0
C2456 C 0.6347 0.96955 0.32207 0.0
C2457 C 0.64306 0.97695 0.34046 0.0
C2458 C 0.62239 0.97031 0.31588 0.0
C2459 C 0.61806 0.97845 0.32795 0.0
C2460 C 0.62635 0.98575 0.34648 0.0
C2461 C 0.6387 0.985 0.35265 0.0
C2462 C 0.59382 0.99396 0.31397 0.0
C2463 C 0.58139 0.98191 0.30442 0.0
C2464 C 0.60555 0.99278 0.3221 0.0
C2465 C 0.60514 0.97951 0.32089 0.0
C2466 C 0.59249 0.96735 0.31203 0.0
C2467 C 0.58081 0.96854 0.30386 0.0
H2468 H 0.02246 0.66997 0.31215 0.0
H2469 H 0.03423 0.6601 0.37408 0.0
H2470 H 0.01952 0.64772 0.29749 0.0
H2471 H 0.03167 0.63794 0.3592 0.0
H2472 H 0.00993 0.59174 0.32995 0.0
H2473 H 0.01348 0.61403 0.34586 0.0
H2474 H 0.03368 0.63736 0.28731 0.0
H2475 H 0.02945 0.61503 0.27107 0.0
C2476 C 0.02452 0.6631 0.32263 0.0
C2477 C 0.0286 0.66686 0.34431 0.0
C2478 C 0.02293 0.65036 0.31416 0.0
C2479 C 0.02545 0.64104 0.3271 0.0
C2480 C 0.02949 0.64477 0.34882 0.0
C2481 C 0.03104 0.65753 0.35733 0.0
C2482 C 0.01507 0.60161 0.32044 0.0
C2483 C 0.01937 0.60153 0.29918 0.0
C2484 C 0.01726 0.61445 0.32966 0.0
C2485 C 0.02379 0.62751 0.31784 0.0
C2486 C 0.0284 0.62747 0.29679 0.0
C2487 C 0.02617 0.61467 0.28757 0.0
H2488 H 0.3433 0.35662 0.32066 0.0
H2489 H 0.34708 0.39489 0.34918 0.0
H2490 H 0.36893 0.37095 0.30957 0.0
H2491 H 0.37292 0.4091 0.33924 0.0
H2492 H 0.41122 0.43386 0.29328 0.0
H2493 H 0.38697 0.41954 0.30886 0.0
H2494 H 0.39401 0.38372 0.31851 0.0
H2495 H 0.41777 0.39762 0.30119 0.0
C2496 C 0.34972 0.36804 0.32496 0.0
C2497 C 0.34314 0.37466 0.33558 0.0
C2498 C 0.36448 0.37628 0.31872 0.0
C2499 C 0.37307 0.39129 0.32329 0.0
C2500 C 0.36661 0.39769 0.33489 0.0
C2501 C 0.3518 0.38952 0.34075 0.0
C2502 C 0.40758 0.42289 0.29856 0.0
C2503 C 0.41647 0.4169 0.29566 0.0
C2504 C 0.3937 0.41471 0.30788 0.0
C2505 C 0.38838 0.40037 0.31493 0.0
C2506 C 0.39756 0.39461 0.31293 0.0
C2507 C 0.41136 0.40272 0.30329 0.0
H2508 H 0.32977 0.31057 0.33025 0.0
H2509 H 0.28808 0.29181 0.36274 0.0
H2510 H 0.33223 0.29032 0.34208 0.0
H2511 H 0.29028 0.27123 0.37398 0.0
H2512 H 0.31007 0.2493 0.41481 0.0
H2513 H 0.30445 0.26666 0.39913 0.0
H2514 H 0.32369 0.26508 0.33926 0.0
H2515 H 0.32958 0.24783 0.35524 0.0
C2516 C 0.32099 0.302 0.33962 0.0
C2517 C 0.30879 0.3029 0.3457 0.0
C2518 C 0.32236 0.29029 0.34631 0.0
C2519 C 0.3115 0.27911 0.35911 0.0
C2520 C 0.29901 0.27976 0.36448 0.0
C2521 C 0.2977 0.29152 0.35793 0.0
C2522 C 0.31281 0.25239 0.39814 0.0
C2523 C 0.32029 0.24718 0.38629 0.0
C2524 C 0.30958 0.26238 0.38911 0.0
C2525 C 0.31367 0.26738 0.36791 0.0
C2526 C 0.32062 0.2617 0.35575 0.0
C2527 C 0.32394 0.25176 0.36486 0.0
H2528 H 0.7388 0.01704 0.34392 0.0
H2529 H 0.6981 0.01642 0.35212 0.0
H2530 H 0.75281 0.04261 0.35346 0.0
H2531 H 0.71226 0.04233 0.36126 0.0
H2532 H 0.74303 0.0788 0.41072 0.0
H2533 H 0.72693 0.05591 0.39226 0.0
H2534 H 0.76039 0.06724 0.34456 0.0
H2535 H 0.77662 0.09015 0.36331 0.0
C2536 C 0.73282 0.02243 0.34736 0.0
C2537 C 0.71731 0.01461 0.34751 0.0
C2538 C 0.74089 0.03719 0.35266 0.0
C2539 C 0.73369 0.04456 0.35824 0.0
C2540 C 0.71816 0.03693 0.35731 0.0
C2541 C 0.71004 0.02211 0.35195 0.0
C2542 C 0.74681 0.07662 0.39595 0.0
C2543 C 0.76118 0.08625 0.3886 0.0
C2544 C 0.73755 0.06346 0.38532 0.0
C2545 C 0.74241 0.05962 0.36704 0.0
C2546 C 0.7564 0.06972 0.35885 0.0
C2547 C 0.7657 0.08286 0.36955 0.0
H2548 H 0.98294 0.67867 0.36135 0.0
H2549 H 0.98412 0.71942 0.36386 0.0
H2550 H 0.95685 0.66565 0.37074 0.0
H2551 H 0.95828 0.7065 0.37362 0.0
H2552 H 0.90882 0.67898 0.378 0.0
H2553 H 0.93313 0.68974 0.3618 0.0
H2554 H 0.9431 0.66329 0.40293 0.0
H2555 H 0.91892 0.65259 0.41903 0.0
C2556 C 0.97763 0.68484 0.36371 0.0
C2557 C 0.98567 0.7001 0.362 0.0
C2558 C 0.96269 0.67739 0.3692 0.0
C2559 C 0.95548 0.68503 0.37304 0.0
C2560 C 0.96341 0.70023 0.37053 0.0
C2561 C 0.9783 0.70767 0.36509 0.0
C2562 C 0.91619 0.67543 0.38349 0.0
C2563 C 0.91192 0.66494 0.39985 0.0
C2564 C 0.93011 0.68158 0.37421 0.0
C2565 C 0.9401 0.67741 0.3811 0.0
C2566 C 0.93562 0.66659 0.39697 0.0
C2567 C 0.92172 0.66045 0.40622 0.0
H2568 H 0.37502 0.04906 0.70159 0.0
H2569 H 0.35736 0.0099 0.66352 0.0
H2570 H 0.39561 0.04644 0.71306 0.0
H2571 H 0.37761 0.007 0.67552 0.0
H2572 H 0.41977 0.00843 0.69121 0.0
H2573 H 0.40333 0.01554 0.67493 0.0
H2574 H 0.39902 0.03095 0.73674 0.0
H2575 H 0.41557 0.0241 0.75277 0.0
C2576 C 0.37557 0.03994 0.69556 0.0
C2577 C 0.36447 0.02963 0.68176 0.0
C2578 C 0.38734 0.03838 0.70224 0.0
C2579 C 0.38825 0.02642 0.69541 0.0
C2580 C 0.37743 0.01644 0.68093 0.0
C2581 C 0.36572 0.01806 0.67414 0.0
C2582 C 0.41544 0.01351 0.70121 0.0
C2583 C 0.41898 0.01569 0.72328 0.0
C2584 C 0.40596 0.01753 0.69192 0.0
C2585 C 0.39972 0.02374 0.70452 0.0
C2586 C 0.40376 0.02643 0.72641 0.0
C2587 C 0.41328 0.02249 0.73565 0.0
H2588 H 0.97969 0.35387 0.65976 0.0
H2589 H 0.98221 0.3402 0.72441 0.0
H2590 H 0.98373 0.37686 0.67383 0.0
H2591 H 0.98601 0.36297 0.73838 0.0
H2592 H 0.00994 0.41102 0.75389 0.0
H2593 H 0.00549 0.38846 0.73819 0.0
H2594 H 0.97217 0.38731 0.69594 0.0
H2595 H 0.97701 0.41033 0.71126 0.0
C2596 C 0.98102 0.35572 0.67696 0.0
C2597 C 0.98072 0.34521 0.69093 0.0
C2598 C 0.98326 0.36886 0.68502 0.0
C2599 C 0.98531 0.37181 0.70722 0.0
C2600 C 0.98473 0.36117 0.72117 0.0
C2601 C 0.98247 0.34806 0.71314 0.0
C2602 C 1.00183 0.40613 0.74101 0.0
C2603 C 0.99391 0.41257 0.73376 0.0
C2604 C 0.99913 0.39305 0.7322 0.0
C2605 C 0.98839 0.386 0.71592 0.0
C2606 C 0.98058 0.39251 0.70839 0.0
C2607 C 0.98326 0.40562 0.71728 0.0
H2608 H 0.65545 0.65034 0.686 0.0
H2609 H 0.6596 0.61753 0.72035 0.0
H2610 H 0.62926 0.63772 0.69493 0.0
H2611 H 0.63386 0.60537 0.73003 0.0
H2612 H 0.58559 0.57846 0.73124 0.0
H2613 H 0.60999 0.59097 0.71608 0.0
H2614 H 0.61249 0.63213 0.72338 0.0
H2615 H 0.58742 0.61944 0.73681 0.0
C2616 C 0.6508 0.64051 0.69558 0.0
C2617 C 0.65958 0.63489 0.70234 0.0
C2618 C 0.6358 0.63329 0.70077 0.0
C2619 C 0.62932 0.62039 0.71301 0.0
C2620 C 0.63826 0.615 0.72004 0.0
C2621 C 0.65312 0.62207 0.71465 0.0
C2622 C 0.59105 0.59012 0.72901 0.0
C2623 C 0.58444 0.59788 0.73557 0.0
C2624 C 0.60526 0.59737 0.72067 0.0
C2625 C 0.61345 0.61264 0.71902 0.0
C2626 C 0.60658 0.62037 0.72444 0.0
C2627 C 0.59222 0.61307 0.73246 0.0
H2628 H 0.69707 0.71378 0.7113 0.0
H2629 H 0.70284 0.70427 0.64608 0.0
H2630 H 0.69393 0.73352 0.6981 0.0
H2631 H 0.69977 0.72395 0.63303 0.0
H2632 H 0.67711 0.74845 0.61469 0.0
H2633 H 0.67945 0.72888 0.63023 0.0
H2634 H 0.7083 0.75798 0.68004 0.0
H2635 H 0.70571 0.7776 0.66469 0.0
C2636 C 0.69774 0.71593 0.69419 0.0
C2637 C 0.70016 0.7074 0.67975 0.0
C2638 C 0.69599 0.72727 0.68665 0.0
C2639 C 0.69648 0.73022 0.66451 0.0
C2640 C 0.6991 0.72181 0.65015 0.0
C2641 C 0.70096 0.71058 0.65766 0.0
C2642 C 0.68372 0.75064 0.62921 0.0
C2643 C 0.6912 0.7646 0.63847 0.0
C2644 C 0.68521 0.73946 0.63795 0.0
C2645 C 0.69418 0.74192 0.65623 0.0
C2646 C 0.70128 0.75574 0.66597 0.0
C2647 C 0.69987 0.76699 0.65711 0.0
H2648 H 0.31324 0.99214 0.67822 0.0
H2649 H 0.27068 0.98835 0.67357 0.0
H2650 H 0.30171 0.9664 0.66935 0.0
H2651 H 0.25925 0.96277 0.66415 0.0
H2652 H 0.24076 0.91422 0.66044 0.0
H2653 H 0.25252 0.93866 0.67592 0.0
H2654 H 0.29109 0.9519 0.63756 0.0
H2655 H 0.27945 0.92764 0.62231 0.0
C2656 C 0.30142 0.98581 0.67543 0.0
C2657 C 0.29292 0.99236 0.67645 0.0
C2658 C 0.29482 0.97106 0.67023 0.0
C2659 C 0.27956 0.96252 0.66585 0.0
C2660 C 0.27099 0.96895 0.66765 0.0
C2661 C 0.27758 0.98368 0.67291 0.0
C2662 C 0.25178 0.92235 0.65544 0.0
C2663 C 0.25917 0.91894 0.6402 0.0
C2664 C 0.25852 0.93635 0.66428 0.0
C2665 C 0.27277 0.94727 0.658 0.0
C2666 C 0.28024 0.94373 0.64311 0.0
C2667 C 0.27354 0.92977 0.63434 0.0
H2668 H 0.01926 0.29137 0.6546 0.0
H2669 H 0.0267 0.33061 0.68514 0.0
H2670 H 0.04503 0.3035 0.64529 0.0
H2671 H 0.05294 0.34272 0.67667 0.0
H2672 H 0.0948 0.36353 0.63449 0.0
H2673 H 0.06997 0.35262 0.64834 0.0
H2674 H 0.06864 0.31218 0.65884 0.0
H2675 H 0.09273 0.32255 0.64312 0.0
C2676 C 0.02647 0.30257 0.65962 0.0
C2677 C 0.02091 0.31001 0.67067 0.0
C2678 C 0.04136 0.30953 0.65444 0.0
C2679 C 0.05124 0.32409 0.66046 0.0
C2680 C 0.04568 0.33155 0.6716 0.0
C2681 C 0.03065 0.32461 0.67654 0.0
C2682 C 0.0892 0.35227 0.63959 0.0
C2683 C 0.09581 0.3439 0.63715 0.0
C2684 C 0.07498 0.34606 0.64789 0.0
C2685 C 0.06708 0.33138 0.65433 0.0
C2686 C 0.07415 0.32338 0.65343 0.0
C2687 C 0.0882 0.32947 0.64476 0.0
H2688 H 0.31106 0.3214 0.70649 0.0
H2689 H 0.30554 0.2951 0.6509 0.0
H2690 H 0.28932 0.32222 0.69531 0.0
H2691 H 0.2842 0.29628 0.63944 0.0
H2692 H 0.23965 0.29033 0.63124 0.0
H2693 H 0.25927 0.28801 0.64744 0.0
H2694 H 0.28137 0.33285 0.66822 0.0
H2695 H 0.26119 0.33493 0.65313 0.0
C2696 C 0.30521 0.31578 0.69191 0.0
C2697 C 0.31006 0.30818 0.67961 0.0
C2698 C 0.29279 0.31633 0.68542 0.0
C2699 C 0.28494 0.3093 0.66647 0.0
C2700 C 0.28975 0.3016 0.65433 0.0
C2701 C 0.3021 0.301 0.66085 0.0
C2702 C 0.24845 0.29962 0.63976 0.0
C2703 C 0.24878 0.31285 0.64077 0.0
C2704 C 0.25988 0.29834 0.64877 0.0
C2705 C 0.27207 0.3103 0.65888 0.0
C2706 C 0.27215 0.32338 0.66065 0.0
C2707 C 0.26064 0.32463 0.65174 0.0
H2708 H 0.69267 0.00398 0.64247 0.0
H2709 H 0.69092 0.98934 0.70788 0.0
H2710 H 0.68738 0.98051 0.62924 0.0
H2711 H 0.68548 0.96567 0.6945 0.0
H2712 H 0.69012 0.93011 0.65842 0.0
H2713 H 0.69654 0.95374 0.67348 0.0
H2714 H 0.66573 0.95558 0.62928 0.0
H2715 H 0.65961 0.93234 0.61401 0.0
C2716 C 0.6912 0.99578 0.65406 0.0
C2717 C 0.69213 0.99854 0.67626 0.0
C2718 C 0.68808 0.98227 0.64645 0.0
C2719 C 0.68586 0.97117 0.66082 0.0
C2720 C 0.68719 0.97403 0.68303 0.0
C2721 C 0.69024 0.98756 0.69068 0.0
C2722 C 0.68474 0.93559 0.65197 0.0
C2723 C 0.67431 0.9293 0.63508 0.0
C2724 C 0.68833 0.94906 0.66068 0.0
C2725 C 0.68171 0.95657 0.65247 0.0
C2726 C 0.67117 0.95017 0.63578 0.0
C2727 C 0.66752 0.93673 0.62722 0.0
H2728 H 0.0177 0.7304 0.65393 0.0
H2729 H 0.01772 0.69166 0.67289 0.0
H2730 H 0.04349 0.74224 0.645 0.0
H2731 H 0.04401 0.70385 0.66461 0.0
H2732 H 0.09201 0.76572 0.64388 0.0
H2733 H 0.06747 0.75287 0.65945 0.0
H2734 H 0.06033 0.7122 0.63471 0.0
H2735 H 0.08518 0.72508 0.62001 0.0
C2736 C 0.02327 0.72444 0.65648 0.0
C2737 C 0.0156 0.71005 0.66415 0.0
C2738 C 0.03818 0.73133 0.65153 0.0
C2739 C 0.04596 0.7241 0.65429 0.0
C2740 C 0.03835 0.70971 0.66214 0.0
C2741 C 0.0233 0.70274 0.66696 0.0
C2742 C 0.08525 0.754 0.64214 0.0
C2743 C 0.09041 0.74639 0.63067 0.0
C2744 C 0.07115 0.74663 0.6509 0.0
C2745 C 0.06175 0.7315 0.64799 0.0
C2746 C 0.06725 0.72381 0.63743 0.0
C2747 C 0.08148 0.73118 0.62895 0.0
H2748 H 0.98922 0.63837 0.65754 0.0
H2749 H 0.96072 0.63402 0.70959 0.0
H2750 H 0.98888 0.6166 0.67005 0.0
H2751 H 0.96069 0.61258 0.72236 0.0
H2752 H 0.95219 0.5675 0.73031 0.0
H2753 H 0.95167 0.58773 0.71377 0.0
H2754 H 0.99799 0.60827 0.69929 0.0
H2755 H 0.99833 0.58754 0.71487 0.0
C2756 C 0.98288 0.63277 0.67164 0.0
C2757 C 0.97498 0.63795 0.68253 0.0
C2758 C 0.98276 0.62034 0.67889 0.0
C2759 C 0.97474 0.61279 0.69721 0.0
C2760 C 0.96678 0.61794 0.70798 0.0
C2761 C 0.96687 0.63032 0.70072 0.0
C2762 C 0.96221 0.57611 0.72314 0.0
C2763 C 0.97531 0.5758 0.72394 0.0
C2764 C 0.96196 0.58788 0.71394 0.0
C2765 C 0.97482 0.59975 0.7054 0.0
C2766 C 0.98784 0.59929 0.7056 0.0
C2767 C 0.98808 0.58745 0.71475 0.0
H2768 H 0.36804 0.3478 0.6972 0.0
H2769 H 0.40567 0.34787 0.6715 0.0
H2770 H 0.38423 0.37315 0.70861 0.0
H2771 H 0.42166 0.37308 0.68257 0.0
H2772 H 0.44538 0.40482 0.73882 0.0
H2773 H 0.42923 0.38247 0.71957 0.0
H2774 H 0.40224 0.39953 0.69814 0.0
H2775 H 0.41881 0.42239 0.71708 0.0
C2776 C 0.37967 0.35332 0.6935 0.0
C2777 C 0.38562 0.34575 0.68381 0.0
C2778 C 0.38893 0.36784 0.69998 0.0
C2779 C 0.40426 0.375 0.69683 0.0
C2780 C 0.40995 0.36775 0.68563 0.0
C2781 C 0.40076 0.35331 0.67925 0.0
C2782 C 0.4363 0.4041 0.72953 0.0
C2783 C 0.43357 0.41558 0.72939 0.0
C2784 C 0.42696 0.39119 0.71854 0.0
C2785 C 0.41451 0.38926 0.7072 0.0
C2786 C 0.41173 0.4007 0.70682 0.0
C2787 C 0.42122 0.41377 0.71771 0.0
H2788 H 0.65088 0.01318 0.69058 0.0
H2789 H 0.65282 0.0543 0.69321 0.0
H2790 H 0.62507 1.00059 0.70132 0.0
H2791 H 0.62724 0.04179 0.70431 0.0
H2792 H 0.57773 0.01462 0.71027 0.0
H2793 H 0.6018 0.02514 0.69337 0.0
H2794 H 0.61205 0.99874 0.73412 0.0
H2795 H 0.58812 0.98828 0.75093 0.0
C2796 C 0.64579 0.01953 0.69329 0.0
C2797 C 0.65397 0.03476 0.69117 0.0
C2798 C 0.63102 0.01232 0.69955 0.0
C2799 C 0.62409 0.02019 0.70377 0.0
C2800 C 0.63215 0.03536 0.70094 0.0
C2801 C 0.64689 0.04255 0.69473 0.0
C2802 C 0.58511 0.01103 0.71554 0.0
C2803 C 0.58098 1.00061 0.73197 0.0
C2804 C 0.59889 0.01705 0.70586 0.0
C2805 C 0.60888 0.01281 0.71242 0.0
C2806 C 0.60456 0.00208 0.7284 0.0
C2807 C 0.5908 0.99608 0.73806 0.0
loop_
_geom_bond_atom_site_label_1
_geom_bond_atom_site_label_2
_geom_bond_distance
_geom_bond_site_symmetry_2
_ccdc_geom_bond_type
Zn0 O3 2.031 1_554 S
Zn0 O5 2.049 . S
Zn0 O10 2.067 1_554 S
Zn1 O2 1.962 1_455 S
Zn1 O4 1.986 . S
Zn1 O6 1.996 1_455 S
Zn1 O9 1.943 1_554 S
O2 Zn1 1.962 1_655 S
O2 C7 1.254 . S
O3 Zn0 2.031 1_556 S
O3 C7 1.269 1_556 S
O4 Zn1 1.986 . S
O4 C11 1.262 . S
O5 Zn0 2.049 . S
O5 C13 1.260 . S
O6 Zn1 1.996 1_655 S
O6 C13 1.257 . S
C7 O2 1.254 . S
C7 O3 1.269 1_554 S
C8 O9 1.249 . S
C8 O10 1.270 1_455 S
O9 Zn1 1.943 1_556 S
O9 C8 1.249 . S
O10 Zn0 2.067 1_556 S
O10 C8 1.270 1_655 S
C11 O4 1.262 . S
C11 O12 1.232 . S
O12 C11 1.232 . S
C13 O5 1.260 . S
C13 O6 1.257 . S
Zn14 O17 2.011 1_554 S
Zn14 O19 2.049 . S
Zn14 O24 2.067 1_554 S
Zn15 O16 1.962 . S
Zn15 O18 1.986 . S
Zn15 O20 1.996 . S
Zn15 O23 1.943 1_554 S
O16 Zn15 1.962 . S
O16 C21 1.254 . S
O17 Zn14 2.011 1_556 S
O17 C21 1.257 1_556 S
O18 Zn15 1.986 . S
O18 C25 1.262 . S
O19 Zn14 2.049 . S
O19 C27 1.260 . S
O20 Zn15 1.996 . S
O20 C27 1.257 . S
C21 O16 1.254 . S
C21 O17 1.257 1_554 S
C22 O23 1.249 . S
C22 O24 1.270 . S
O23 Zn15 1.943 1_556 S
O23 C22 1.249 . S
O24 Zn14 2.067 1_556 S
O24 C22 1.270 . S
C25 O18 1.262 . S
C25 O26 1.232 . S
O26 C25 1.232 . S
C27 O19 1.260 . S
C27 O20 1.257 . S
Zn28 O31 2.031 . S
Zn28 O33 2.049 1_554 S
Zn28 O38 2.067 . S
Zn29 O30 1.962 1_545 S
Zn29 O32 1.986 1_554 S
Zn29 O34 1.996 1_544 S
Zn29 O37 1.943 . S
O30 Zn29 1.962 1_565 S
O30 C35 1.254 . S
O31 Zn28 2.031 . S
O31 C35 1.269 . S
O32 Zn29 1.986 1_556 S
O32 C39 1.262 1_556 S
O33 Zn28 2.049 1_556 S
O33 C41 1.260 . S
O34 Zn29 1.996 1_566 S
O34 C41 1.257 . S
C35 O30 1.254 . S
C35 O31 1.269 . S
C36 O37 1.249 . S
C36 O38 1.270 1_545 S
O37 Zn29 1.943 . S
O37 C36 1.249 . S
O38 Zn28 2.067 . S
O38 C36 1.270 1_565 S
C39 O32 1.262 1_554 S
C39 O40 1.232 . S
O40 C39 1.232 . S
C41 O33 1.260 . S
C41 O34 1.257 . S
Zn42 O45 2.031 . S
Zn42 O47 2.049 1_554 S
Zn42 O52 2.067 . S
Zn43 O44 1.962 1_655 S
Zn43 O46 1.986 1_554 S
Zn43 O48 1.996 1_654 S
Zn43 O51 1.943 . S
O44 Zn43 1.962 1_455 S
O44 C49 1.254 . S
O45 Zn42 2.031 . S
O45 C49 1.269 . S
O46 Zn43 1.986 1_556 S
O46 C53 1.262 1_556 S
O47 Zn42 2.049 1_556 S
O47 C55 1.260 . S
O48 Zn43 1.996 1_456 S
O48 C55 1.257 . S
C49 O44 1.254 . S
C49 O45 1.269 . S
C50 O51 1.249 . S
C50 O52 1.270 1_655 S
O51 Zn43 1.943 . S
O51 C50 1.249 . S
O52 Zn42 2.067 . S
O52 C50 1.270 1_455 S
C53 O46 1.262 1_554 S
C53 O54 1.232 . S
O54 C53 1.232 . S
C55 O47 1.260 . S
C55 O48 1.257 . S
Zn56 O59 2.031 . S
Zn56 O61 2.049 1_554 S
Zn56 O66 2.067 . S
Zn57 O58 1.962 . S
Zn57 O60 1.986 1_554 S
Zn57 O62 1.996 1_554 S
Zn57 O65 1.943 . S
O58 Zn57 1.962 . S
O58 C63 1.254 . S
O59 Zn56 2.031 . S
O59 C63 1.269 . S
O60 Zn57 1.986 1_556 S
O60 C67 1.262 1_556 S
O61 Zn56 2.049 1_556 S
O61 C69 1.260 . S
O62 Zn57 1.996 1_556 S
O62 C69 1.257 . S
C63 O58 1.254 . S
C63 O59 1.269 . S
C64 O65 1.249 . S
C64 O66 1.270 . S
O65 Zn57 1.943 . S
O65 C64 1.249 . S
O66 Zn56 2.067 . S
O66 C64 1.270 . S
C67 O60 1.262 1_554 S
C67 O68 1.232 . S
O68 C67 1.232 . S
C69 O61 1.260 . S
C69 O62 1.257 . S
Zn70 O73 2.031 . S
Zn70 O75 2.049 . S
Zn70 O80 2.065 1_554 S
Zn71 O72 1.962 1_565 S
Zn71 O74 1.986 . S
Zn71 O76 1.996 1_565 S
Zn71 O79 1.943 . S
O72 Zn71 1.962 1_545 S
O72 C77 1.254 . S
O73 Zn70 2.031 . S
O73 C77 1.269 . S
O74 Zn71 1.986 . S
O74 C81 1.262 . S
O75 Zn70 2.049 . S
O75 C83 1.260 . S
O76 Zn71 1.996 1_545 S
O76 C83 1.257 . S
C77 O72 1.254 . S
C77 O73 1.269 . S
C78 O79 1.249 1_556 S
C78 O80 1.272 1_565 S
O79 Zn71 1.943 . S
O79 C78 1.249 1_554 S
O80 Zn70 2.065 1_556 S
O80 C78 1.272 1_545 S
C81 O74 1.262 . S
C81 O82 1.232 . S
O82 C81 1.232 . S
C83 O75 1.260 . S
C83 O76 1.257 . S
Zn84 O87 2.031 . S
Zn84 O89 2.049 . S
Zn84 O94 2.067 . S
Zn85 O86 1.962 . S
Zn85 O88 1.986 . S
Zn85 O90 1.996 . S
Zn85 O93 1.943 . S
O86 Zn85 1.962 . S
O86 C91 1.254 . S
O87 Zn84 2.031 . S
O87 C91 1.269 . S
O88 Zn85 1.986 . S
O88 C95 1.262 . S
O89 Zn84 2.049 . S
O89 C97 1.260 . S
O90 Zn85 1.996 . S
O90 C97 1.257 . S
C91 O86 1.254 . S
C91 O87 1.269 . S
C92 O93 1.249 . S
C92 O94 1.270 . S
O93 Zn85 1.943 . S
O93 C92 1.249 . S
O94 Zn84 2.067 . S
O94 C92 1.270 . S
C95 O88 1.262 . S
C95 O96 1.232 . S
O96 C95 1.232 . S
C97 O89 1.260 . S
C97 O90 1.257 . S
Zn98 O101 2.031 . S
Zn98 O103 2.049 . S
Zn98 O108 2.067 . S
Zn99 O100 1.962 . S
Zn99 O102 1.986 . S
Zn99 O104 1.996 . S
Zn99 O107 1.943 . S
O100 Zn99 1.962 . S
O100 C105 1.254 . S
O101 Zn98 2.031 . S
O101 C105 1.269 . S
O102 Zn99 1.986 . S
O102 C109 1.262 1_565 S
O103 Zn98 2.049 . S
O103 C111 1.260 . S
O104 Zn99 1.996 . S
O104 C111 1.257 . S
C105 O100 1.254 . S
C105 O101 1.269 . S
C106 O107 1.249 . S
C106 O108 1.270 . S
O107 Zn99 1.943 . S
O107 C106 1.249 . S
O108 Zn98 2.067 . S
O108 C106 1.270 . S
C109 O102 1.262 1_545 S
C109 O110 1.232 . S
O110 C109 1.232 . S
C111 O103 1.260 . S
C111 O104 1.257 . S
Zn112 O115 2.031 . S
Zn112 O117 2.049 . S
Zn112 O122 2.067 . S
Zn113 O114 1.962 . S
Zn113 O116 1.986 . S
Zn113 O118 1.996 . S
Zn113 O121 1.943 . S
O114 Zn113 1.962 . S
O114 C119 1.254 . S
O115 Zn112 2.031 . S
O115 C119 1.269 . S
O116 Zn113 1.986 . S
O116 C123 1.262 . S
O117 Zn112 2.049 . S
O117 C125 1.260 . S
O118 Zn113 1.996 . S
O118 C125 1.257 . S
C119 O114 1.254 . S
C119 O115 1.269 . S
C120 O121 1.249 . S
C120 O122 1.270 . S
O121 Zn113 1.943 . S
O121 C120 1.249 . S
O122 Zn112 2.067 . S
O122 C120 1.270 . S
C123 O116 1.262 . S
C123 O124 1.232 . S
O124 C123 1.232 . S
C125 O117 1.260 . S
C125 O118 1.257 . S
Zn126 O129 2.031 . S
Zn126 O131 2.049 . S
Zn126 O136 2.067 . S
Zn127 O128 1.962 . S
Zn127 O130 1.986 . S
Zn127 O132 1.996 . S
Zn127 O135 1.943 . S
O128 Zn127 1.962 . S
O128 C133 1.254 . S
O129 Zn126 2.031 . S
O129 C133 1.269 . S
O130 Zn127 1.986 . S
O130 C137 1.262 . S
O131 Zn126 2.049 . S
O131 C139 1.260 . S
O132 Zn127 1.996 . S
O132 C139 1.257 . S
C133 O128 1.254 . S
C133 O129 1.269 . S
C134 O135 1.249 . S
C134 O136 1.270 . S
O135 Zn127 1.943 . S
O135 C134 1.249 . S
O136 Zn126 2.067 . S
O136 C134 1.270 . S
C137 O130 1.262 . S
C137 O138 1.232 . S
O138 C137 1.232 . S
C139 O131 1.260 . S
C139 O132 1.257 . S
Zn140 O143 2.031 . S
Zn140 O145 2.049 . S
Zn140 O150 2.067 . S
Zn141 O142 1.962 . S
Zn141 O144 1.986 . S
Zn141 O146 1.996 . S
Zn141 O149 1.943 . S
O142 Zn141 1.962 . S
O142 C147 1.254 . S
O143 Zn140 2.031 . S
O143 C147 1.269 . S
O144 Zn141 1.986 . S
O144 C151 1.262 . S
O145 Zn140 2.049 . S
O145 C153 1.260 . S
O146 Zn141 1.996 . S
O146 C153 1.257 . S
C147 O142 1.254 . S
C147 O143 1.269 . S
C148 O149 1.249 . S
C148 O150 1.270 . S
O149 Zn141 1.943 . S
O149 C148 1.249 . S
O150 Zn140 2.067 . S
O150 C148 1.270 . S
C151 O144 1.262 . S
C151 O152 1.232 . S
O152 C151 1.232 . S
C153 O145 1.260 . S
C153 O146 1.257 . S
Zn154 O157 2.031 . S
Zn154 O159 2.049 . S
Zn154 O164 2.067 . S
Zn155 O156 1.962 . S
Zn155 O158 1.986 . S
Zn155 O160 1.996 . S
Zn155 O163 1.943 . S
O156 Zn155 1.962 . S
O156 C161 1.254 . S
O157 Zn154 2.031 . S
O157 C161 1.269 . S
O158 Zn155 1.986 . S
O158 C165 1.262 . S
O159 Zn154 2.049 . S
O159 C167 1.260 . S
O160 Zn155 1.996 . S
O160 C167 1.257 . S
C161 O156 1.254 . S
C161 O157 1.269 . S
C162 O163 1.249 . S
C162 O164 1.270 . S
O163 Zn155 1.943 . S
O163 C162 1.249 . S
O164 Zn154 2.067 . S
O164 C162 1.270 . S
C165 O158 1.262 . S
C165 O166 1.232 . S
O166 C165 1.232 . S
C167 O159 1.260 . S
C167 O160 1.257 . S
Zn168 O171 2.031 . S
Zn168 O173 2.049 . S
Zn168 O178 2.067 . S
Zn169 O170 1.962 . S
Zn169 O172 1.986 . S
Zn169 O174 1.996 . S
Zn169 O177 1.943 . S
O170 Zn169 1.962 . S
O170 C175 1.254 . S
O171 Zn168 2.031 . S
O171 C175 1.269 . S
O172 Zn169 1.986 . S
O172 C179 1.262 . S
O173 Zn168 2.049 . S
O173 C181 1.260 . S
O174 Zn169 1.996 . S
O174 C181 1.257 . S
C175 O170 1.254 . S
C175 O171 1.269 . S
C176 O177 1.249 . S
C176 O178 1.270 . S
O177 Zn169 1.943 . S
O177 C176 1.249 . S
O178 Zn168 2.067 . S
O178 C176 1.270 . S
C179 O172 1.262 . S
C179 O180 1.232 . S
O180 C179 1.232 . S
C181 O173 1.260 . S
C181 O174 1.257 . S
Zn182 O185 2.031 . S
Zn182 O187 2.049 . S
Zn182 O192 2.067 . S
Zn183 O184 1.962 . S
Zn183 O186 1.986 . S
Zn183 O188 1.996 . S
Zn183 O191 1.943 . S
O184 Zn183 1.962 . S
O184 C189 1.254 . S
O185 Zn182 2.031 . S
O185 C189 1.269 . S
O186 Zn183 1.986 . S
O186 C193 1.262 . S
O187 Zn182 2.049 . S
O187 C195 1.260 . S
O188 Zn183 1.996 . S
O188 C195 1.257 . S
C189 O184 1.254 . S
C189 O185 1.269 . S
C190 O191 1.249 . S
C190 O192 1.270 . S
O191 Zn183 1.943 . S
O191 C190 1.249 . S
O192 Zn182 2.067 . S
O192 C190 1.270 . S
C193 O186 1.262 . S
C193 O194 1.232 . S
O194 C193 1.232 . S
C195 O187 1.260 . S
C195 O188 1.257 . S
Zn196 O199 2.031 . S
Zn196 O201 2.049 . S
Zn196 O206 2.067 . S
Zn197 O198 1.962 . S
Zn197 O200 1.986 . S
Zn197 O202 1.996 . S
Zn197 O205 1.943 . S
O198 Zn197 1.962 . S
O198 C203 1.254 . S
O199 Zn196 2.031 . S
O199 C203 1.269 . S
O200 Zn197 1.986 . S
O200 C207 1.262 . S
O201 Zn196 2.049 . S
O201 C209 1.260 . S
O202 Zn197 1.996 . S
O202 C209 1.257 . S
C203 O198 1.254 . S
C203 O199 1.269 . S
C204 O205 1.249 . S
C204 O206 1.270 . S
O205 Zn197 1.943 . S
O205 C204 1.249 . S
O206 Zn196 2.067 . S
O206 C204 1.270 . S
C207 O200 1.262 . S
C207 O208 1.232 . S
O208 C207 1.232 . S
C209 O201 1.260 . S
C209 O202 1.257 . S
Zn210 O213 2.031 . S
Zn210 O215 2.049 . S
Zn210 O220 2.067 . S
Zn211 O212 1.962 . S
Zn211 O214 1.986 . S
Zn211 O216 1.996 . S
Zn211 O219 1.943 . S
O212 Zn211 1.962 . S
O212 C217 1.254 . S
O213 Zn210 2.031 . S
O213 C217 1.269 . S
O214 Zn211 1.986 . S
O214 C221 1.262 . S
O215 Zn210 2.049 . S
O215 C223 1.260 . S
O216 Zn211 1.996 . S
O216 C223 1.257 . S
C217 O212 1.254 . S
C217 O213 1.269 . S
C218 O219 1.249 . S
C218 O220 1.270 . S
O219 Zn211 1.943 . S
O219 C218 1.249 . S
O220 Zn210 2.067 . S
O220 C218 1.270 . S
C221 O214 1.262 . S
C221 O222 1.232 . S
O222 C221 1.232 . S
C223 O215 1.260 . S
C223 O216 1.257 . S
Zn224 O227 2.031 . S
Zn224 O229 2.049 . S
Zn224 O234 2.067 . S
Zn225 O226 1.962 . S
Zn225 O228 1.986 . S
Zn225 O230 1.996 . S
Zn225 O233 1.943 . S
O226 Zn225 1.962 . S
O226 C231 1.254 . S
O227 Zn224 2.031 . S
O227 C231 1.269 . S
O228 Zn225 1.986 . S
O228 C235 1.262 1_545 S
O229 Zn224 2.049 . S
O229 C237 1.260 . S
O230 Zn225 1.996 . S
O230 C237 1.257 . S
C231 O226 1.254 . S
C231 O227 1.269 . S
C232 O233 1.249 . S
C232 O234 1.270 . S
O233 Zn225 1.943 . S
O233 C232 1.249 . S
O234 Zn224 2.067 . S
O234 C232 1.270 . S
C235 O228 1.262 1_565 S
C235 O236 1.232 . S
O236 C235 1.232 . S
C237 O229 1.260 . S
C237 O230 1.257 . S
Zn238 O241 2.031 . S
Zn238 O243 2.049 . S
Zn238 O248 2.067 . S
Zn239 O240 1.962 . S
Zn239 O242 1.986 . S
Zn239 O244 1.996 . S
Zn239 O247 1.943 . S
O240 Zn239 1.962 . S
O240 C245 1.254 . S
O241 Zn238 2.031 . S
O241 C245 1.269 . S
O242 Zn239 1.986 . S
O242 C249 1.262 . S
O243 Zn238 2.049 . S
O243 C251 1.260 . S
O244 Zn239 1.996 . S
O244 C251 1.257 . S
C245 O240 1.254 . S
C245 O241 1.269 . S
C246 O247 1.249 . S
C246 O248 1.270 . S
O247 Zn239 1.943 . S
O247 C246 1.249 . S
O248 Zn238 2.067 . S
O248 C246 1.270 . S
C249 O242 1.262 . S
C249 O250 1.232 . S
O250 C249 1.232 . S
C251 O243 1.260 . S
C251 O244 1.257 . S
H252 C279 0.929 . S
N253 C278 1.433 . S
N253 C284 1.435 . S
N253 C290 1.423 . S
H254 C280 0.930 . S
H255 C283 0.931 . S
H256 C282 0.929 . S
H257 C285 0.930 . S
H258 C286 0.932 . S
H259 C289 0.929 . S
H260 C288 0.931 . S
H261 C291 0.929 . S
H262 C295 0.932 . S
H263 C292 0.931 . S
H264 C294 0.929 . S
H265 C297 0.929 . S
H266 C298 0.930 . S
H267 C300 0.929 . S
H268 C301 0.931 . S
H269 C303 0.930 . S
H270 C304 0.932 . S
H271 C306 0.931 . S
H272 C307 0.929 . S
H273 C309 0.929 . S
H274 C310 0.931 . S
H275 C312 0.929 . S
N276 C296 1.433 . S
N276 C302 1.435 . S
N276 C308 1.423 . S
H277 C313 0.932 . S
C278 N253 1.433 . S
C278 C279 1.363 . S
C278 C283 1.370 . S
C279 H252 0.929 . S
C279 C278 1.363 . S
C279 C280 1.385 . S
C280 H254 0.930 . S
C280 C279 1.385 . S
C280 C281 1.357 . S
C281 C280 1.357 . S
C281 C282 1.406 . S
C282 H256 0.929 . S
C282 C281 1.406 . S
C282 C283 1.391 . S
C283 H255 0.931 . S
C283 C278 1.370 . S
C283 C282 1.391 . S
C284 N253 1.435 . S
C284 C285 1.358 . S
C284 C289 1.371 . S
C285 H257 0.930 . S
C285 C284 1.358 . S
C285 C286 1.405 . S
C286 H258 0.932 . S
C286 C285 1.405 . S
C286 C287 1.383 . S
C287 C286 1.383 . S
C287 C288 1.393 . S
C288 H260 0.931 . S
C288 C287 1.393 . S
C288 C289 1.382 . S
C289 H259 0.929 . S
C289 C284 1.371 . S
C289 C288 1.382 . S
C290 N253 1.423 . S
C290 C291 1.362 . S
C290 C295 1.388 . S
C291 H261 0.929 . S
C291 C290 1.362 . S
C291 C292 1.376 . S
C292 H263 0.931 . S
C292 C291 1.376 . S
C292 C293 1.396 . S
C293 C292 1.396 . S
C293 C294 1.348 . S
C293 C311 1.472 . S
C294 H264 0.929 . S
C294 C293 1.348 . S
C294 C295 1.443 . S
C295 H262 0.932 . S
C295 C290 1.388 . S
C295 C294 1.443 . S
C296 N276 1.433 . S
C296 C297 1.363 . S
C296 C301 1.370 . S
C297 H265 0.929 . S
C297 C296 1.363 . S
C297 C298 1.385 . S
C298 H266 0.930 . S
C298 C297 1.385 . S
C298 C299 1.357 . S
C299 C298 1.357 . S
C299 C300 1.406 . S
C300 H267 0.929 . S
C300 C299 1.406 . S
C300 C301 1.391 . S
C301 H268 0.931 . S
C301 C296 1.370 . S
C301 C300 1.391 . S
C302 N276 1.435 . S
C302 C303 1.358 . S
C302 C307 1.371 . S
C303 H269 0.930 . S
C303 C302 1.358 . S
C303 C304 1.405 . S
C304 H270 0.932 . S
C304 C303 1.405 . S
C304 C305 1.383 . S
C305 C304 1.383 . S
C305 C306 1.393 . S
C306 H271 0.931 . S
C306 C305 1.393 . S
C306 C307 1.382 . S
C307 H272 0.929 . S
C307 C302 1.371 . S
C307 C306 1.382 . S
C308 N276 1.423 . S
C308 C309 1.362 . S
C308 C313 1.388 . S
C309 H273 0.929 . S
C309 C308 1.362 . S
C309 C310 1.376 . S
C310 H274 0.931 . S
C310 C309 1.376 . S
C310 C311 1.396 . S
C311 C293 1.472 . S
C311 C310 1.396 . S
C311 C312 1.348 . S
C312 H275 0.929 . S
C312 C311 1.348 . S
C312 C313 1.443 . S
C313 H277 0.932 . S
C313 C308 1.388 . S
C313 C312 1.443 . S
H314 C341 0.929 . S
N315 C340 1.433 . S
N315 C346 1.435 . S
N315 C352 1.423 . S
H316 C342 0.930 . S
H317 C345 0.931 . S
H318 C344 0.929 . S
H319 C347 0.930 . S
H320 C348 0.932 . S
H321 C351 0.929 . S
H322 C350 0.931 . S
H323 C353 0.929 . S
H324 C357 0.932 . S
H325 C354 0.931 . S
H326 C356 0.929 . S
H327 C359 0.929 . S
H328 C360 0.930 . S
H329 C362 0.929 . S
H330 C363 0.931 . S
H331 C365 0.930 . S
H332 C366 0.932 . S
H333 C368 0.931 . S
H334 C369 0.929 . S
H335 C371 0.929 . S
H336 C372 0.931 . S
H337 C374 0.929 . S
N338 C358 1.433 . S
N338 C364 1.435 . S
N338 C370 1.423 . S
H339 C375 0.932 . S
C340 N315 1.433 . S
C340 C341 1.363 . S
C340 C345 1.370 . S
C341 H314 0.929 . S
C341 C340 1.363 . S
C341 C342 1.385 . S
C342 H316 0.930 . S
C342 C341 1.385 . S
C342 C343 1.357 . S
C343 C342 1.357 . S
C343 C344 1.406 . S
C344 H318 0.929 . S
C344 C343 1.406 . S
C344 C345 1.391 . S
C345 H317 0.931 . S
C345 C340 1.370 . S
C345 C344 1.391 . S
C346 N315 1.435 . S
C346 C347 1.358 . S
C346 C351 1.371 . S
C347 H319 0.930 . S
C347 C346 1.358 . S
C347 C348 1.405 . S
C348 H320 0.932 . S
C348 C347 1.405 . S
C348 C349 1.383 . S
C349 C348 1.383 . S
C349 C350 1.393 . S
C350 H322 0.931 . S
C350 C349 1.393 . S
C350 C351 1.382 . S
C351 H321 0.929 . S
C351 C346 1.371 . S
C351 C350 1.382 . S
C352 N315 1.423 . S
C352 C353 1.362 . S
C352 C357 1.388 . S
C353 H323 0.929 . S
C353 C352 1.362 . S
C353 C354 1.376 . S
C354 H325 0.931 . S
C354 C353 1.376 . S
C354 C355 1.396 . S
C355 C354 1.396 . S
C355 C356 1.348 . S
C355 C373 1.472 . S
C356 H326 0.929 . S
C356 C355 1.348 . S
C356 C357 1.443 . S
C357 H324 0.932 . S
C357 C352 1.388 . S
C357 C356 1.443 . S
C358 N338 1.433 . S
C358 C359 1.363 . S
C358 C363 1.370 . S
C359 H327 0.929 . S
C359 C358 1.363 . S
C359 C360 1.385 . S
C360 H328 0.930 . S
C360 C359 1.385 . S
C360 C361 1.357 . S
C361 C360 1.357 . S
C361 C362 1.406 . S
C362 H329 0.929 . S
C362 C361 1.406 . S
C362 C363 1.391 . S
C363 H330 0.931 . S
C363 C358 1.370 . S
C363 C362 1.391 . S
C364 N338 1.435 . S
C364 C365 1.358 . S
C364 C369 1.371 . S
C365 H331 0.930 . S
C365 C364 1.358 . S
C365 C366 1.405 . S
C366 H332 0.932 . S
C366 C365 1.405 . S
C366 C367 1.383 . S
C367 C366 1.383 . S
C367 C368 1.393 . S
C368 H333 0.931 . S
C368 C367 1.393 . S
C368 C369 1.382 . S
C369 H334 0.929 . S
C369 C364 1.371 . S
C369 C368 1.382 . S
C370 N338 1.423 . S
C370 C371 1.362 . S
C370 C375 1.388 . S
C371 H335 0.929 . S
C371 C370 1.362 . S
C371 C372 1.376 . S
C372 H336 0.931 . S
C372 C371 1.376 . S
C372 C373 1.396 . S
C373 C355 1.472 . S
C373 C372 1.396 . S
C373 C374 1.348 . S
C374 H337 0.929 . S
C374 C373 1.348 . S
C374 C375 1.443 . S
C375 H339 0.932 . S
C375 C370 1.388 . S
C375 C374 1.443 . S
H376 C403 0.929 . S
N377 C402 1.433 . S
N377 C408 1.435 . S
N377 C414 1.423 . S
H378 C404 0.930 . S
H379 C407 0.931 . S
H380 C406 0.929 . S
H381 C409 0.930 . S
H382 C410 0.932 . S
H383 C413 0.929 . S
H384 C412 0.931 . S
H385 C415 0.929 . S
H386 C419 0.932 . S
H387 C416 0.931 . S
H388 C418 0.929 . S
H389 C421 0.929 . S
H390 C422 0.930 . S
H391 C424 0.929 . S
H392 C425 0.931 . S
H393 C427 0.930 . S
H394 C428 0.932 . S
H395 C430 0.931 . S
H396 C431 0.929 . S
H397 C433 0.929 . S
H398 C434 0.931 . S
H399 C436 0.929 . S
N400 C420 1.433 . S
N400 C426 1.435 . S
N400 C432 1.423 . S
H401 C437 0.932 . S
C402 N377 1.433 . S
C402 C403 1.363 . S
C402 C407 1.370 . S
C403 H376 0.929 . S
C403 C402 1.363 . S
C403 C404 1.385 . S
C404 H378 0.930 . S
C404 C403 1.385 . S
C404 C405 1.357 . S
C405 C404 1.357 . S
C405 C406 1.406 . S
C406 H380 0.929 . S
C406 C405 1.406 . S
C406 C407 1.391 . S
C407 H379 0.931 . S
C407 C402 1.370 . S
C407 C406 1.391 . S
C408 N377 1.435 . S
C408 C409 1.358 . S
C408 C413 1.371 . S
C409 H381 0.930 . S
C409 C408 1.358 . S
C409 C410 1.405 . S
C410 H382 0.932 . S
C410 C409 1.405 . S
C410 C411 1.383 . S
C411 C410 1.383 . S
C411 C412 1.393 . S
C412 H384 0.931 . S
C412 C411 1.393 . S
C412 C413 1.382 . S
C413 H383 0.929 . S
C413 C408 1.371 . S
C413 C412 1.382 . S
C414 N377 1.423 . S
C414 C415 1.362 . S
C414 C419 1.388 . S
C415 H385 0.929 . S
C415 C414 1.362 . S
C415 C416 1.376 . S
C416 H387 0.931 . S
C416 C415 1.376 . S
C416 C417 1.396 . S
C417 C416 1.396 . S
C417 C418 1.348 . S
C417 C435 1.472 . S
C418 H388 0.929 . S
C418 C417 1.348 . S
C418 C419 1.443 . S
C419 H386 0.932 . S
C419 C414 1.388 . S
C419 C418 1.443 . S
C420 N400 1.433 . S
C420 C421 1.363 . S
C420 C425 1.370 . S
C421 H389 0.929 . S
C421 C420 1.363 . S
C421 C422 1.385 . S
C422 H390 0.930 . S
C422 C421 1.385 . S
C422 C423 1.357 . S
C423 C422 1.357 . S
C423 C424 1.406 . S
C424 H391 0.929 . S
C424 C423 1.406 . S
C424 C425 1.391 . S
C425 H392 0.931 . S
C425 C420 1.370 . S
C425 C424 1.391 . S
C426 N400 1.435 . S
C426 C427 1.358 . S
C426 C431 1.371 . S
C427 H393 0.930 . S
C427 C426 1.358 . S
C427 C428 1.405 . S
C428 H394 0.932 . S
C428 C427 1.405 . S
C428 C429 1.383 . S
C429 C428 1.383 . S
C429 C430 1.393 . S
C430 H395 0.931 . S
C430 C429 1.393 . S
C430 C431 1.382 . S
C431 H396 0.929 . S
C431 C426 1.371 . S
C431 C430 1.382 . S
C432 N400 1.423 . S
C432 C433 1.362 . S
C432 C437 1.388 . S
C433 H397 0.929 . S
C433 C432 1.362 . S
C433 C434 1.376 . S
C434 H398 0.931 . S
C434 C433 1.376 . S
C434 C435 1.396 . S
C435 C417 1.472 . S
C435 C434 1.396 . S
C435 C436 1.348 . S
C436 H399 0.929 . S
C436 C435 1.348 . S
C436 C437 1.443 . S
C437 H401 0.932 . S
C437 C432 1.388 . S
C437 C436 1.443 . S
H438 C465 0.929 . S
N439 C464 1.433 . S
N439 C470 1.435 . S
N439 C476 1.423 . S
H440 C466 0.930 . S
H441 C469 0.931 . S
H442 C468 0.929 . S
H443 C471 0.930 . S
H444 C472 0.932 . S
H445 C475 0.929 . S
H446 C474 0.931 . S
H447 C477 0.929 . S
H448 C481 0.932 . S
H449 C478 0.931 . S
H450 C480 0.929 . S
H451 C483 0.929 . S
H452 C484 0.930 . S
H453 C486 0.929 . S
H454 C487 0.931 . S
H455 C489 0.930 . S
H456 C490 0.932 . S
H457 C492 0.931 . S
H458 C493 0.929 . S
H459 C495 0.929 . S
H460 C496 0.931 . S
H461 C498 0.929 . S
N462 C482 1.433 . S
N462 C488 1.435 . S
N462 C494 1.423 . S
H463 C499 0.932 . S
C464 N439 1.433 . S
C464 C465 1.363 . S
C464 C469 1.370 . S
C465 H438 0.929 . S
C465 C464 1.363 . S
C465 C466 1.385 . S
C466 H440 0.930 . S
C466 C465 1.385 . S
C466 C467 1.357 . S
C467 C466 1.357 . S
C467 C468 1.406 . S
C468 H442 0.929 . S
C468 C467 1.406 . S
C468 C469 1.391 . S
C469 H441 0.931 . S
C469 C464 1.370 . S
C469 C468 1.391 . S
C470 N439 1.435 . S
C470 C471 1.358 . S
C470 C475 1.371 . S
C471 H443 0.930 . S
C471 C470 1.358 . S
C471 C472 1.405 . S
C472 H444 0.932 . S
C472 C471 1.405 . S
C472 C473 1.383 . S
C473 C472 1.383 . S
C473 C474 1.393 . S
C474 H446 0.931 . S
C474 C473 1.393 . S
C474 C475 1.382 . S
C475 H445 0.929 . S
C475 C470 1.371 . S
C475 C474 1.382 . S
C476 N439 1.423 . S
C476 C477 1.362 . S
C476 C481 1.388 . S
C477 H447 0.929 . S
C477 C476 1.362 . S
C477 C478 1.376 . S
C478 H449 0.931 . S
C478 C477 1.376 . S
C478 C479 1.396 . S
C479 C478 1.396 . S
C479 C480 1.348 . S
C479 C497 1.472 . S
C480 H450 0.929 . S
C480 C479 1.348 . S
C480 C481 1.443 . S
C481 H448 0.932 . S
C481 C476 1.388 . S
C481 C480 1.443 . S
C482 N462 1.433 . S
C482 C483 1.363 . S
C482 C487 1.370 . S
C483 H451 0.929 . S
C483 C482 1.363 . S
C483 C484 1.385 . S
C484 H452 0.930 . S
C484 C483 1.385 . S
C484 C485 1.357 . S
C485 C484 1.357 . S
C485 C486 1.406 . S
C486 H453 0.929 . S
C486 C485 1.406 . S
C486 C487 1.391 . S
C487 H454 0.931 . S
C487 C482 1.370 . S
C487 C486 1.391 . S
C488 N462 1.435 . S
C488 C489 1.358 . S
C488 C493 1.371 . S
C489 H455 0.930 . S
C489 C488 1.358 . S
C489 C490 1.405 . S
C490 H456 0.932 . S
C490 C489 1.405 . S
C490 C491 1.383 . S
C491 C490 1.383 . S
C491 C492 1.393 . S
C492 H457 0.931 . S
C492 C491 1.393 . S
C492 C493 1.382 . S
C493 H458 0.929 . S
C493 C488 1.371 . S
C493 C492 1.382 . S
C494 N462 1.423 . S
C494 C495 1.362 . S
C494 C499 1.388 . S
C495 H459 0.929 . S
C495 C494 1.362 . S
C495 C496 1.376 . S
C496 H460 0.931 . S
C496 C495 1.376 . S
C496 C497 1.396 . S
C497 C479 1.472 . S
C497 C496 1.396 . S
C497 C498 1.348 . S
C498 H461 0.929 . S
C498 C497 1.348 . S
C498 C499 1.443 . S
C499 H463 0.932 . S
C499 C494 1.388 . S
C499 C498 1.443 . S
H500 C527 0.929 . S
N501 C526 1.433 . S
N501 C532 1.435 . S
N501 C538 1.423 . S
H502 C528 0.930 . S
H503 C531 0.931 . S
H504 C530 0.929 . S
H505 C533 0.930 . S
H506 C534 0.932 . S
H507 C537 0.929 . S
H508 C536 0.931 . S
H509 C539 0.929 . S
H510 C543 0.932 . S
H511 C540 0.931 . S
H512 C542 0.929 . S
H513 C545 0.929 . S
H514 C546 0.930 . S
H515 C548 0.929 . S
H516 C549 0.931 . S
H517 C551 0.930 . S
H518 C552 0.932 . S
H519 C554 0.931 . S
H520 C555 0.929 . S
H521 C557 0.929 . S
H522 C558 0.931 . S
H523 C560 0.929 . S
N524 C544 1.433 . S
N524 C550 1.435 . S
N524 C556 1.423 . S
H525 C561 0.932 . S
C526 N501 1.433 . S
C526 C527 1.363 . S
C526 C531 1.370 . S
C527 H500 0.929 . S
C527 C526 1.363 . S
C527 C528 1.385 . S
C528 H502 0.930 . S
C528 C527 1.385 . S
C528 C529 1.357 . S
C529 C528 1.357 . S
C529 C530 1.406 . S
C530 H504 0.929 . S
C530 C529 1.406 . S
C530 C531 1.391 . S
C531 H503 0.931 . S
C531 C526 1.370 . S
C531 C530 1.391 . S
C532 N501 1.435 . S
C532 C533 1.358 . S
C532 C537 1.371 . S
C533 H505 0.930 . S
C533 C532 1.358 . S
C533 C534 1.405 . S
C534 H506 0.932 . S
C534 C533 1.405 . S
C534 C535 1.383 . S
C535 C534 1.383 . S
C535 C536 1.393 . S
C536 H508 0.931 . S
C536 C535 1.393 . S
C536 C537 1.382 . S
C537 H507 0.929 . S
C537 C532 1.371 . S
C537 C536 1.382 . S
C538 N501 1.423 . S
C538 C539 1.362 . S
C538 C543 1.388 . S
C539 H509 0.929 . S
C539 C538 1.362 . S
C539 C540 1.376 . S
C540 H511 0.931 . S
C540 C539 1.376 . S
C540 C541 1.396 . S
C541 C540 1.396 . S
C541 C542 1.348 . S
C541 C559 1.472 . S
C542 H512 0.929 . S
C542 C541 1.348 . S
C542 C543 1.443 . S
C543 H510 0.932 . S
C543 C538 1.388 . S
C543 C542 1.443 . S
C544 N524 1.433 . S
C544 C545 1.363 . S
C544 C549 1.370 . S
C545 H513 0.929 . S
C545 C544 1.363 . S
C545 C546 1.385 . S
C546 H514 0.930 . S
C546 C545 1.385 . S
C546 C547 1.357 . S
C547 C546 1.357 . S
C547 C548 1.406 . S
C548 H515 0.929 . S
C548 C547 1.406 . S
C548 C549 1.391 . S
C549 H516 0.931 . S
C549 C544 1.370 . S
C549 C548 1.391 . S
C550 N524 1.435 . S
C550 C551 1.358 . S
C550 C555 1.371 . S
C551 H517 0.930 . S
C551 C550 1.358 . S
C551 C552 1.405 . S
C552 H518 0.932 . S
C552 C551 1.405 . S
C552 C553 1.383 . S
C553 C552 1.383 . S
C553 C554 1.393 . S
C554 H519 0.931 . S
C554 C553 1.393 . S
C554 C555 1.382 . S
C555 H520 0.929 . S
C555 C550 1.371 . S
C555 C554 1.382 . S
C556 N524 1.423 . S
C556 C557 1.362 . S
C556 C561 1.388 . S
C557 H521 0.929 . S
C557 C556 1.362 . S
C557 C558 1.376 . S
C558 H522 0.931 . S
C558 C557 1.376 . S
C558 C559 1.396 . S
C559 C541 1.472 . S
C559 C558 1.396 . S
C559 C560 1.348 . S
C560 H523 0.929 . S
C560 C559 1.348 . S
C560 C561 1.443 . S
C561 H525 0.932 . S
C561 C556 1.388 . S
C561 C560 1.443 . S
H562 C589 0.929 . S
N563 C588 1.433 . S
N563 C594 1.435 . S
N563 C600 1.423 . S
H564 C590 0.930 . S
H565 C593 0.931 . S
H566 C592 0.929 . S
H567 C595 0.930 . S
H568 C596 0.932 . S
H569 C599 0.929 . S
H570 C598 0.931 . S
H571 C601 0.929 . S
H572 C605 0.932 . S
H573 C602 0.931 . S
H574 C604 0.929 . S
H575 C607 0.929 . S
H576 C608 0.930 . S
H577 C610 0.929 . S
H578 C611 0.931 . S
H579 C613 0.930 . S
H580 C614 0.932 . S
H581 C616 0.931 . S
H582 C617 0.929 . S
H583 C619 0.929 . S
H584 C620 0.931 . S
H585 C622 0.929 . S
N586 C606 1.433 . S
N586 C612 1.435 . S
N586 C618 1.423 . S
H587 C623 0.932 . S
C588 N563 1.433 . S
C588 C589 1.363 . S
C588 C593 1.370 . S
C589 H562 0.929 . S
C589 C588 1.363 . S
C589 C590 1.385 . S
C590 H564 0.930 . S
C590 C589 1.385 . S
C590 C591 1.357 . S
C591 C590 1.357 . S
C591 C592 1.406 . S
C592 H566 0.929 . S
C592 C591 1.406 . S
C592 C593 1.391 . S
C593 H565 0.931 . S
C593 C588 1.370 . S
C593 C592 1.391 . S
C594 N563 1.435 . S
C594 C595 1.358 . S
C594 C599 1.371 . S
C595 H567 0.930 . S
C595 C594 1.358 . S
C595 C596 1.405 . S
C596 H568 0.932 . S
C596 C595 1.405 . S
C596 C597 1.383 . S
C597 C596 1.383 . S
C597 C598 1.393 . S
C598 H570 0.931 . S
C598 C597 1.393 . S
C598 C599 1.382 . S
C599 H569 0.929 . S
C599 C594 1.371 . S
C599 C598 1.382 . S
C600 N563 1.423 . S
C600 C601 1.362 . S
C600 C605 1.388 . S
C601 H571 0.929 . S
C601 C600 1.362 . S
C601 C602 1.376 . S
C602 H573 0.931 . S
C602 C601 1.376 . S
C602 C603 1.396 . S
C603 C602 1.396 . S
C603 C604 1.348 . S
C603 C621 1.472 . S
C604 H574 0.929 . S
C604 C603 1.348 . S
C604 C605 1.443 . S
C605 H572 0.932 . S
C605 C600 1.388 . S
C605 C604 1.443 . S
C606 N586 1.433 . S
C606 C607 1.363 . S
C606 C611 1.370 . S
C607 H575 0.929 . S
C607 C606 1.363 . S
C607 C608 1.385 . S
C608 H576 0.930 . S
C608 C607 1.385 . S
C608 C609 1.357 . S
C609 C608 1.357 . S
C609 C610 1.406 . S
C610 H577 0.929 . S
C610 C609 1.406 . S
C610 C611 1.391 . S
C611 H578 0.931 . S
C611 C606 1.370 . S
C611 C610 1.391 . S
C612 N586 1.435 . S
C612 C613 1.358 . S
C612 C617 1.371 . S
C613 H579 0.930 . S
C613 C612 1.358 . S
C613 C614 1.405 . S
C614 H580 0.932 . S
C614 C613 1.405 . S
C614 C615 1.383 . S
C615 C614 1.383 . S
C615 C616 1.393 . S
C616 H581 0.931 . S
C616 C615 1.393 . S
C616 C617 1.382 . S
C617 H582 0.929 . S
C617 C612 1.371 . S
C617 C616 1.382 . S
C618 N586 1.423 . S
C618 C619 1.362 . S
C618 C623 1.388 . S
C619 H583 0.929 . S
C619 C618 1.362 . S
C619 C620 1.376 . S
C620 H584 0.931 . S
C620 C619 1.376 . S
C620 C621 1.396 . S
C621 C603 1.472 . S
C621 C620 1.396 . S
C621 C622 1.348 . S
C622 H585 0.929 . S
C622 C621 1.348 . S
C622 C623 1.443 . S
C623 H587 0.932 . S
C623 C618 1.388 . S
C623 C622 1.443 . S
H624 C651 0.929 . S
N625 C650 1.433 . S
N625 C656 1.435 . S
N625 C662 1.423 . S
H626 C652 0.930 . S
H627 C655 0.931 . S
H628 C654 0.929 . S
H629 C657 0.930 . S
H630 C658 0.932 . S
H631 C661 0.929 . S
H632 C660 0.931 . S
H633 C663 0.929 . S
H634 C667 0.932 . S
H635 C664 0.931 . S
H636 C666 0.929 . S
H637 C669 0.929 . S
H638 C670 0.930 . S
H639 C672 0.929 . S
H640 C673 0.931 . S
H641 C675 0.930 . S
H642 C676 0.932 . S
H643 C678 0.931 . S
H644 C679 0.929 . S
H645 C681 0.929 . S
H646 C682 0.931 . S
H647 C684 0.929 . S
N648 C668 1.433 . S
N648 C674 1.435 . S
N648 C680 1.423 . S
H649 C685 0.932 . S
C650 N625 1.433 . S
C650 C651 1.363 . S
C650 C655 1.370 . S
C651 H624 0.929 . S
C651 C650 1.363 . S
C651 C652 1.385 . S
C652 H626 0.930 . S
C652 C651 1.385 . S
C652 C653 1.357 . S
C653 C652 1.357 . S
C653 C654 1.406 . S
C654 H628 0.929 . S
C654 C653 1.406 . S
C654 C655 1.391 . S
C655 H627 0.931 . S
C655 C650 1.370 . S
C655 C654 1.391 . S
C656 N625 1.435 . S
C656 C657 1.358 . S
C656 C661 1.371 . S
C657 H629 0.930 . S
C657 C656 1.358 . S
C657 C658 1.405 . S
C658 H630 0.932 . S
C658 C657 1.405 . S
C658 C659 1.383 . S
C659 C658 1.383 . S
C659 C660 1.393 . S
C660 H632 0.931 . S
C660 C659 1.393 . S
C660 C661 1.382 . S
C661 H631 0.929 . S
C661 C656 1.371 . S
C661 C660 1.382 . S
C662 N625 1.423 . S
C662 C663 1.362 . S
C662 C667 1.388 . S
C663 H633 0.929 . S
C663 C662 1.362 . S
C663 C664 1.376 . S
C664 H635 0.931 . S
C664 C663 1.376 . S
C664 C665 1.396 . S
C665 C664 1.396 . S
C665 C666 1.348 . S
C665 C683 1.472 . S
C666 H636 0.929 . S
C666 C665 1.348 . S
C666 C667 1.443 . S
C667 H634 0.932 . S
C667 C662 1.388 . S
C667 C666 1.443 . S
C668 N648 1.433 . S
C668 C669 1.363 . S
C668 C673 1.370 . S
C669 H637 0.929 . S
C669 C668 1.363 . S
C669 C670 1.385 . S
C670 H638 0.930 . S
C670 C669 1.385 . S
C670 C671 1.357 . S
C671 C670 1.357 . S
C671 C672 1.406 . S
C672 H639 0.929 . S
C672 C671 1.406 . S
C672 C673 1.391 . S
C673 H640 0.931 . S
C673 C668 1.370 . S
C673 C672 1.391 . S
C674 N648 1.435 . S
C674 C675 1.358 . S
C674 C679 1.371 . S
C675 H641 0.930 . S
C675 C674 1.358 . S
C675 C676 1.405 . S
C676 H642 0.932 . S
C676 C675 1.405 . S
C676 C677 1.383 . S
C677 C676 1.383 . S
C677 C678 1.393 . S
C678 H643 0.931 . S
C678 C677 1.393 . S
C678 C679 1.382 . S
C679 H644 0.929 . S
C679 C674 1.371 . S
C679 C678 1.382 . S
C680 N648 1.423 . S
C680 C681 1.362 . S
C680 C685 1.388 . S
C681 H645 0.929 . S
C681 C680 1.362 . S
C681 C682 1.376 . S
C682 H646 0.931 . S
C682 C681 1.376 . S
C682 C683 1.396 . S
C683 C665 1.472 . S
C683 C682 1.396 . S
C683 C684 1.348 . S
C684 H647 0.929 . S
C684 C683 1.348 . S
C684 C685 1.443 . S
C685 H649 0.932 . S
C685 C680 1.388 . S
C685 C684 1.443 . S
H686 C713 0.929 . S
N687 C712 1.433 . S
N687 C718 1.435 . S
N687 C724 1.423 . S
H688 C714 0.930 . S
H689 C717 0.931 . S
H690 C716 0.929 . S
H691 C719 0.930 . S
H692 C720 0.932 . S
H693 C723 0.929 . S
H694 C722 0.931 . S
H695 C725 0.929 . S
H696 C729 0.932 . S
H697 C726 0.931 . S
H698 C728 0.929 . S
H699 C731 0.929 . S
H700 C732 0.930 . S
H701 C734 0.929 . S
H702 C735 0.931 . S
H703 C737 0.930 . S
H704 C738 0.932 . S
H705 C740 0.931 . S
H706 C741 0.929 . S
H707 C743 0.929 . S
H708 C744 0.931 . S
H709 C746 0.929 . S
N710 C730 1.433 . S
N710 C736 1.435 . S
N710 C742 1.423 . S
H711 C747 0.932 . S
C712 N687 1.433 . S
C712 C713 1.363 . S
C712 C717 1.370 . S
C713 H686 0.929 . S
C713 C712 1.363 . S
C713 C714 1.385 . S
C714 H688 0.930 . S
C714 C713 1.385 . S
C714 C715 1.357 . S
C715 C714 1.357 . S
C715 C716 1.406 . S
C716 H690 0.929 . S
C716 C715 1.406 . S
C716 C717 1.391 . S
C717 H689 0.931 . S
C717 C712 1.370 . S
C717 C716 1.391 . S
C718 N687 1.435 . S
C718 C719 1.358 . S
C718 C723 1.371 . S
C719 H691 0.930 . S
C719 C718 1.358 . S
C719 C720 1.405 . S
C720 H692 0.932 . S
C720 C719 1.405 . S
C720 C721 1.383 . S
C721 C720 1.383 . S
C721 C722 1.393 . S
C722 H694 0.931 . S
C722 C721 1.393 . S
C722 C723 1.382 . S
C723 H693 0.929 . S
C723 C718 1.371 . S
C723 C722 1.382 . S
C724 N687 1.423 . S
C724 C725 1.362 . S
C724 C729 1.388 . S
C725 H695 0.929 . S
C725 C724 1.362 . S
C725 C726 1.376 . S
C726 H697 0.931 . S
C726 C725 1.376 . S
C726 C727 1.396 . S
C727 C726 1.396 . S
C727 C728 1.348 . S
C727 C745 1.472 . S
C728 H698 0.929 . S
C728 C727 1.348 . S
C728 C729 1.443 . S
C729 H696 0.932 . S
C729 C724 1.388 . S
C729 C728 1.443 . S
C730 N710 1.433 . S
C730 C731 1.363 . S
C730 C735 1.370 . S
C731 H699 0.929 . S
C731 C730 1.363 . S
C731 C732 1.385 . S
C732 H700 0.930 . S
C732 C731 1.385 . S
C732 C733 1.357 . S
C733 C732 1.357 . S
C733 C734 1.406 . S
C734 H701 0.929 . S
C734 C733 1.406 . S
C734 C735 1.391 . S
C735 H702 0.931 . S
C735 C730 1.370 . S
C735 C734 1.391 . S
C736 N710 1.435 . S
C736 C737 1.358 . S
C736 C741 1.371 . S
C737 H703 0.930 . S
C737 C736 1.358 . S
C737 C738 1.405 . S
C738 H704 0.932 . S
C738 C737 1.405 . S
C738 C739 1.383 . S
C739 C738 1.383 . S
C739 C740 1.393 . S
C740 H705 0.931 . S
C740 C739 1.393 . S
C740 C741 1.382 . S
C741 H706 0.929 . S
C741 C736 1.371 . S
C741 C740 1.382 . S
C742 N710 1.423 . S
C742 C743 1.362 . S
C742 C747 1.388 . S
C743 H707 0.929 . S
C743 C742 1.362 . S
C743 C744 1.376 . S
C744 H708 0.931 . S
C744 C743 1.376 . S
C744 C745 1.396 . S
C745 C727 1.472 . S
C745 C744 1.396 . S
C745 C746 1.348 . S
C746 H709 0.929 . S
C746 C745 1.348 . S
C746 C747 1.443 . S
C747 H711 0.932 . S
C747 C742 1.388 . S
C747 C746 1.443 . S
H748 C775 0.929 . S
N749 C774 1.433 . S
N749 C780 1.435 . S
N749 C786 1.423 . S
H750 C776 0.930 . S
H751 C779 0.931 . S
H752 C778 0.929 . S
H753 C781 0.930 . S
H754 C782 0.932 . S
H755 C785 0.929 . S
H756 C784 0.931 . S
H757 C787 0.929 . S
H758 C791 0.932 . S
H759 C788 0.931 . S
H760 C790 0.929 . S
H761 C793 0.929 . S
H762 C794 0.930 . S
H763 C796 0.929 . S
H764 C797 0.931 . S
H765 C799 0.930 . S
H766 C800 0.932 . S
H767 C802 0.931 . S
H768 C803 0.929 . S
H769 C805 0.929 . S
H770 C806 0.931 . S
H771 C808 0.929 . S
N772 C792 1.433 . S
N772 C798 1.435 . S
N772 C804 1.423 . S
H773 C809 0.932 . S
C774 N749 1.433 . S
C774 C775 1.363 . S
C774 C779 1.370 . S
C775 H748 0.929 . S
C775 C774 1.363 . S
C775 C776 1.385 . S
C776 H750 0.930 . S
C776 C775 1.385 . S
C776 C777 1.357 . S
C777 C776 1.357 . S
C777 C778 1.406 . S
C778 H752 0.929 . S
C778 C777 1.406 . S
C778 C779 1.391 . S
C779 H751 0.931 . S
C779 C774 1.370 . S
C779 C778 1.391 . S
C780 N749 1.435 . S
C780 C781 1.358 . S
C780 C785 1.371 . S
C781 H753 0.930 . S
C781 C780 1.358 . S
C781 C782 1.405 . S
C782 H754 0.932 . S
C782 C781 1.405 . S
C782 C783 1.383 . S
C783 C782 1.383 . S
C783 C784 1.393 . S
C784 H756 0.931 . S
C784 C783 1.393 . S
C784 C785 1.382 . S
C785 H755 0.929 . S
C785 C780 1.371 . S
C785 C784 1.382 . S
C786 N749 1.423 . S
C786 C787 1.362 . S
C786 C791 1.388 . S
C787 H757 0.929 . S
C787 C786 1.362 . S
C787 C788 1.376 . S
C788 H759 0.931 . S
C788 C787 1.376 . S
C788 C789 1.396 . S
C789 C788 1.396 . S
C789 C790 1.348 . S
C789 C807 1.472 . S
C790 H760 0.929 . S
C790 C789 1.348 . S
C790 C791 1.443 . S
C791 H758 0.932 . S
C791 C786 1.388 . S
C791 C790 1.443 . S
C792 N772 1.433 . S
C792 C793 1.363 . S
C792 C797 1.370 . S
C793 H761 0.929 . S
C793 C792 1.363 . S
C793 C794 1.385 . S
C794 H762 0.930 . S
C794 C793 1.385 . S
C794 C795 1.357 . S
C795 C794 1.357 . S
C795 C796 1.406 . S
C796 H763 0.929 . S
C796 C795 1.406 . S
C796 C797 1.391 . S
C797 H764 0.931 . S
C797 C792 1.370 . S
C797 C796 1.391 . S
C798 N772 1.435 . S
C798 C799 1.358 . S
C798 C803 1.371 . S
C799 H765 0.930 . S
C799 C798 1.358 . S
C799 C800 1.405 . S
C800 H766 0.932 . S
C800 C799 1.405 . S
C800 C801 1.383 . S
C801 C800 1.383 . S
C801 C802 1.393 . S
C802 H767 0.931 . S
C802 C801 1.393 . S
C802 C803 1.382 . S
C803 H768 0.929 . S
C803 C798 1.371 . S
C803 C802 1.382 . S
C804 N772 1.423 . S
C804 C805 1.362 . S
C804 C809 1.388 . S
C805 H769 0.929 . S
C805 C804 1.362 . S
C805 C806 1.376 . S
C806 H770 0.931 . S
C806 C805 1.376 . S
C806 C807 1.396 . S
C807 C789 1.472 . S
C807 C806 1.396 . S
C807 C808 1.348 . S
C808 H771 0.929 . S
C808 C807 1.348 . S
C808 C809 1.443 . S
C809 H773 0.932 . S
C809 C804 1.388 . S
C809 C808 1.443 . S
H810 C837 0.929 . S
N811 C836 1.433 . S
N811 C842 1.435 . S
N811 C848 1.423 . S
H812 C838 0.930 . S
H813 C841 0.931 . S
H814 C840 0.929 . S
H815 C843 0.930 . S
H816 C844 0.932 . S
H817 C847 0.929 . S
H818 C846 0.931 . S
H819 C849 0.929 . S
H820 C853 0.932 1_655 S
H821 C850 0.931 . S
H822 C852 0.929 . S
H823 C855 0.929 . S
H824 C856 0.930 . S
H825 C858 0.929 . S
H826 C859 0.931 . S
H827 C861 0.930 . S
H828 C862 0.932 . S
H829 C864 0.931 . S
H830 C865 0.929 . S
H831 C867 0.929 . S
H832 C868 0.931 . S
H833 C870 0.929 . S
N834 C854 1.433 . S
N834 C860 1.435 . S
N834 C866 1.423 . S
H835 C871 0.932 1_655 S
C836 N811 1.433 . S
C836 C837 1.363 . S
C836 C841 1.370 1_455 S
C837 H810 0.929 . S
C837 C836 1.363 . S
C837 C838 1.385 . S
C838 H812 0.930 . S
C838 C837 1.385 . S
C838 C839 1.357 1_455 S
C839 C838 1.357 1_655 S
C839 C840 1.406 . S
C840 H814 0.929 . S
C840 C839 1.406 . S
C840 C841 1.391 . S
C841 H813 0.931 . S
C841 C836 1.370 1_655 S
C841 C840 1.391 . S
C842 N811 1.435 . S
C842 C843 1.358 1_455 S
C842 C847 1.371 . S
C843 H815 0.930 . S
C843 C842 1.358 1_655 S
C843 C844 1.405 . S
C844 H816 0.932 . S
C844 C843 1.405 . S
C844 C845 1.383 1_655 S
C845 C844 1.383 1_455 S
C845 C846 1.393 . S
C846 H818 0.931 . S
C846 C845 1.393 . S
C846 C847 1.382 . S
C847 H817 0.929 . S
C847 C842 1.371 . S
C847 C846 1.382 . S
C848 N811 1.423 . S
C848 C849 1.362 . S
C848 C853 1.388 . S
C849 H819 0.929 . S
C849 C848 1.362 . S
C849 C850 1.376 . S
C850 H821 0.931 . S
C850 C849 1.376 . S
C850 C851 1.396 . S
C851 C850 1.396 . S
C851 C852 1.348 . S
C851 C869 1.472 . S
C852 H822 0.929 . S
C852 C851 1.348 . S
C852 C853 1.443 . S
C853 H820 0.932 1_455 S
C853 C848 1.388 . S
C853 C852 1.443 . S
C854 N834 1.433 . S
C854 C855 1.363 . S
C854 C859 1.370 1_455 S
C855 H823 0.929 . S
C855 C854 1.363 . S
C855 C856 1.385 . S
C856 H824 0.930 . S
C856 C855 1.385 . S
C856 C857 1.357 1_455 S
C857 C856 1.357 1_655 S
C857 C858 1.406 . S
C858 H825 0.929 . S
C858 C857 1.406 . S
C858 C859 1.391 . S
C859 H826 0.931 . S
C859 C854 1.370 1_655 S
C859 C858 1.391 . S
C860 N834 1.435 . S
C860 C861 1.358 1_455 S
C860 C865 1.371 . S
C861 H827 0.930 . S
C861 C860 1.358 1_655 S
C861 C862 1.405 . S
C862 H828 0.932 . S
C862 C861 1.405 . S
C862 C863 1.383 1_655 S
C863 C862 1.383 1_455 S
C863 C864 1.393 . S
C864 H829 0.931 . S
C864 C863 1.393 . S
C864 C865 1.382 . S
C865 H830 0.929 . S
C865 C860 1.371 . S
C865 C864 1.382 . S
C866 N834 1.423 . S
C866 C867 1.362 . S
C866 C871 1.388 . S
C867 H831 0.929 . S
C867 C866 1.362 . S
C867 C868 1.376 . S
C868 H832 0.931 . S
C868 C867 1.376 . S
C868 C869 1.396 . S
C869 C851 1.472 . S
C869 C868 1.396 . S
C869 C870 1.348 . S
C870 H833 0.929 . S
C870 C869 1.348 . S
C870 C871 1.443 . S
C871 H835 0.932 1_455 S
C871 C866 1.388 . S
C871 C870 1.443 . S
H872 C899 0.929 . S
N873 C898 1.433 . S
N873 C904 1.435 . S
N873 C910 1.423 . S
H874 C900 0.930 . S
H875 C903 0.931 . S
H876 C902 0.929 . S
H877 C905 0.930 . S
H878 C906 0.932 . S
H879 C909 0.929 . S
H880 C908 0.931 . S
H881 C911 0.929 . S
H882 C915 0.932 . S
H883 C912 0.931 . S
H884 C914 0.929 . S
H885 C917 0.929 . S
H886 C918 0.930 . S
H887 C920 0.929 . S
H888 C921 0.931 . S
H889 C923 0.930 . S
H890 C924 0.932 . S
H891 C926 0.931 . S
H892 C927 0.929 . S
H893 C929 0.929 . S
H894 C930 0.931 . S
H895 C932 0.929 . S
N896 C916 1.433 . S
N896 C922 1.435 . S
N896 C928 1.423 . S
H897 C933 0.932 . S
C898 N873 1.433 . S
C898 C899 1.363 . S
C898 C903 1.370 . S
C899 H872 0.929 . S
C899 C898 1.363 . S
C899 C900 1.385 . S
C900 H874 0.930 . S
C900 C899 1.385 . S
C900 C901 1.357 . S
C901 C900 1.357 . S
C901 C902 1.406 . S
C902 H876 0.929 . S
C902 C901 1.406 . S
C902 C903 1.391 . S
C903 H875 0.931 . S
C903 C898 1.370 . S
C903 C902 1.391 . S
C904 N873 1.435 . S
C904 C905 1.358 . S
C904 C909 1.371 . S
C905 H877 0.930 . S
C905 C904 1.358 . S
C905 C906 1.405 . S
C906 H878 0.932 . S
C906 C905 1.405 . S
C906 C907 1.383 . S
C907 C906 1.383 . S
C907 C908 1.393 . S
C908 H880 0.931 . S
C908 C907 1.393 . S
C908 C909 1.382 . S
C909 H879 0.929 . S
C909 C904 1.371 . S
C909 C908 1.382 . S
C910 N873 1.423 . S
C910 C911 1.362 . S
C910 C915 1.388 . S
C911 H881 0.929 . S
C911 C910 1.362 . S
C911 C912 1.376 . S
C912 H883 0.931 . S
C912 C911 1.376 . S
C912 C913 1.396 . S
C913 C912 1.396 . S
C913 C914 1.348 . S
C913 C931 1.472 . S
C914 H884 0.929 . S
C914 C913 1.348 . S
C914 C915 1.443 . S
C915 H882 0.932 . S
C915 C910 1.388 . S
C915 C914 1.443 . S
C916 N896 1.433 . S
C916 C917 1.363 . S
C916 C921 1.370 . S
C917 H885 0.929 . S
C917 C916 1.363 . S
C917 C918 1.385 . S
C918 H886 0.930 . S
C918 C917 1.385 . S
C918 C919 1.357 . S
C919 C918 1.357 . S
C919 C920 1.406 . S
C920 H887 0.929 . S
C920 C919 1.406 . S
C920 C921 1.391 . S
C921 H888 0.931 . S
C921 C916 1.370 . S
C921 C920 1.391 . S
C922 N896 1.435 . S
C922 C923 1.358 . S
C922 C927 1.371 . S
C923 H889 0.930 . S
C923 C922 1.358 . S
C923 C924 1.405 . S
C924 H890 0.932 . S
C924 C923 1.405 . S
C924 C925 1.383 . S
C925 C924 1.383 . S
C925 C926 1.393 . S
C926 H891 0.931 . S
C926 C925 1.393 . S
C926 C927 1.382 . S
C927 H892 0.929 . S
C927 C922 1.371 . S
C927 C926 1.382 . S
C928 N896 1.423 . S
C928 C929 1.362 . S
C928 C933 1.388 . S
C929 H893 0.929 . S
C929 C928 1.362 . S
C929 C930 1.376 . S
C930 H894 0.931 . S
C930 C929 1.376 . S
C930 C931 1.396 . S
C931 C913 1.472 . S
C931 C930 1.396 . S
C931 C932 1.348 . S
C932 H895 0.929 . S
C932 C931 1.348 . S
C932 C933 1.443 . S
C933 H897 0.932 . S
C933 C928 1.388 . S
C933 C932 1.443 . S
H934 C961 0.929 . S
N935 C960 1.433 . S
N935 C966 1.435 . S
N935 C972 1.423 . S
H936 C962 0.930 . S
H937 C965 0.931 . S
H938 C964 0.929 . S
H939 C967 0.930 . S
H940 C968 0.932 . S
H941 C971 0.929 . S
H942 C970 0.931 . S
H943 C973 0.929 . S
H944 C977 0.932 1_545 S
H945 C974 0.931 . S
H946 C976 0.929 . S
H947 C979 0.929 . S
H948 C980 0.930 . S
H949 C982 0.929 . S
H950 C983 0.931 . S
H951 C985 0.930 . S
H952 C986 0.932 . S
H953 C988 0.931 . S
H954 C989 0.929 . S
H955 C991 0.929 . S
H956 C992 0.931 . S
H957 C994 0.940 . S
N958 C978 1.433 . S
N958 C984 1.435 . S
N958 C990 1.423 . S
H959 C995 0.932 1_545 S
C960 N935 1.433 . S
C960 C961 1.363 . S
C960 C965 1.370 1_565 S
C961 H934 0.929 . S
C961 C960 1.363 . S
C961 C962 1.385 . S
C962 H936 0.930 . S
C962 C961 1.385 . S
C962 C963 1.357 1_565 S
C963 C962 1.357 1_545 S
C963 C964 1.406 . S
C964 H938 0.929 . S
C964 C963 1.406 . S
C964 C965 1.391 . S
C965 H937 0.931 . S
C965 C960 1.370 1_545 S
C965 C964 1.391 . S
C966 N935 1.435 . S
C966 C967 1.358 1_565 S
C966 C971 1.371 . S
C967 H939 0.930 . S
C967 C966 1.358 1_545 S
C967 C968 1.405 . S
C968 H940 0.932 . S
C968 C967 1.405 . S
C968 C969 1.383 1_545 S
C969 C968 1.383 1_565 S
C969 C970 1.393 . S
C970 H942 0.931 . S
C970 C969 1.393 . S
C970 C971 1.382 . S
C971 H941 0.929 . S
C971 C966 1.371 . S
C971 C970 1.382 . S
C972 N935 1.423 . S
C972 C973 1.362 . S
C972 C977 1.388 . S
C973 H943 0.929 . S
C973 C972 1.362 . S
C973 C974 1.376 . S
C974 H945 0.931 . S
C974 C973 1.376 . S
C974 C975 1.396 . S
C975 C974 1.396 . S
C975 C976 1.348 . S
C975 C993 1.472 . S
C976 H946 0.929 . S
C976 C975 1.348 . S
C976 C977 1.443 . S
C977 H944 0.932 1_565 S
C977 C972 1.388 . S
C977 C976 1.443 . S
C978 N958 1.433 . S
C978 C979 1.363 . S
C978 C983 1.370 1_565 S
C979 H947 0.929 . S
C979 C978 1.363 . S
C979 C980 1.385 . S
C980 H948 0.930 . S
C980 C979 1.385 . S
C980 C981 1.357 1_565 S
C981 C980 1.357 1_545 S
C981 C982 1.406 . S
C982 H949 0.929 . S
C982 C981 1.406 . S
C982 C983 1.391 . S
C983 H950 0.931 . S
C983 C978 1.370 1_545 S
C983 C982 1.391 . S
C984 N958 1.435 . S
C984 C985 1.358 1_565 S
C984 C989 1.371 . S
C985 H951 0.930 . S
C985 C984 1.358 1_545 S
C985 C986 1.405 . S
C986 H952 0.932 . S
C986 C985 1.405 . S
C986 C987 1.383 1_545 S
C987 C986 1.383 1_565 S
C987 C988 1.393 . S
C988 H953 0.931 . S
C988 C987 1.393 . S
C988 C989 1.382 . S
C989 H954 0.929 . S
C989 C984 1.371 . S
C989 C988 1.382 . S
C990 N958 1.423 . S
C990 C991 1.362 . S
C990 C995 1.388 . S
C991 H955 0.929 . S
C991 C990 1.362 . S
C991 C992 1.376 . S
C992 H956 0.931 . S
C992 C991 1.376 . S
C992 C993 1.396 . S
C993 C975 1.472 . S
C993 C992 1.396 . S
C993 C994 1.348 . S
C994 H957 0.940 . S
C994 C993 1.348 . S
C994 C995 1.443 . S
C995 H959 0.932 1_565 S
C995 C990 1.388 . S
C995 C994 1.443 . S
H996 C1023 0.929 . S
N997 C1022 1.433 . S
N997 C1028 1.435 . S
N997 C1034 1.423 . S
H998 C1024 0.930 . S
H999 C1027 0.931 . S
H1000 C1026 0.929 . S
H1001 C1029 0.930 . S
H1002 C1030 0.932 . S
H1003 C1033 0.929 . S
H1004 C1032 0.931 . S
H1005 C1035 0.929 . S
H1006 C1039 0.932 . S
H1007 C1036 0.931 . S
H1008 C1038 0.923 1_545 S
H1009 C1041 0.929 . S
H1010 C1042 0.930 . S
H1011 C1044 0.959 . S
H1012 C1045 0.943 . S
H1013 C1047 0.930 . S
H1014 C1048 0.932 . S
H1015 C1050 0.931 . S
H1016 C1051 0.929 . S
H1017 C1053 0.929 . S
H1018 C1054 0.931 . S
H1019 C1056 0.876 1_545 S
N1020 C1040 1.433 . S
N1020 C1046 1.435 . S
N1020 C1052 1.423 . S
H1021 C1057 0.951 . S
C1022 N997 1.433 . S
C1022 C1023 1.363 . S
C1022 C1027 1.370 1_565 S
C1023 H996 0.929 . S
C1023 C1022 1.363 . S
C1023 C1024 1.385 . S
C1024 H998 0.930 . S
C1024 C1023 1.385 . S
C1024 C1025 1.357 . S
C1025 C1024 1.357 . S
C1025 C1026 1.406 1_565 S
C1026 H1000 0.929 . S
C1026 C1025 1.406 1_545 S
C1026 C1027 1.391 . S
C1027 H999 0.931 . S
C1027 C1022 1.370 1_545 S
C1027 C1026 1.391 . S
C1028 N997 1.435 . S
C1028 C1029 1.358 1_565 S
C1028 C1033 1.371 . S
C1029 H1001 0.930 . S
C1029 C1028 1.358 1_545 S
C1029 C1030 1.405 . S
C1030 H1002 0.932 . S
C1030 C1029 1.405 . S
C1030 C1031 1.383 . S
C1031 C1030 1.383 . S
C1031 C1032 1.393 1_545 S
C1032 H1004 0.931 . S
C1032 C1031 1.393 1_565 S
C1032 C1033 1.382 . S
C1033 H1003 0.929 . S
C1033 C1028 1.371 . S
C1033 C1032 1.382 . S
C1034 N997 1.423 . S
C1034 C1035 1.362 . S
C1034 C1039 1.388 1_565 S
C1035 H1005 0.929 . S
C1035 C1034 1.362 . S
C1035 C1036 1.376 . S
C1036 H1007 0.931 . S
C1036 C1035 1.376 . S
C1036 C1037 1.396 . S
C1037 C1036 1.396 . S
C1037 C1038 1.377 . S
C1037 C1055 1.472 . S
C1038 H1008 0.923 1_565 S
C1038 C1037 1.377 . S
C1038 C1039 1.421 1_565 S
C1039 H1006 0.932 . S
C1039 C1034 1.388 1_545 S
C1039 C1038 1.421 1_545 S
C1040 N1020 1.433 . S
C1040 C1041 1.363 . S
C1040 C1045 1.360 1_565 S
C1041 H1009 0.929 . S
C1041 C1040 1.363 . S
C1041 C1042 1.385 . S
C1042 H1010 0.930 . S
C1042 C1041 1.385 . S
C1042 C1043 1.357 . S
C1043 C1042 1.357 . S
C1043 C1044 1.370 1_565 S
C1044 H1011 0.959 . S
C1044 C1043 1.370 1_545 S
C1044 C1045 1.396 . S
C1045 H1012 0.943 . S
C1045 C1040 1.360 1_545 S
C1045 C1044 1.396 . S
C1046 N1020 1.435 . S
C1046 C1047 1.358 1_565 S
C1046 C1051 1.371 . S
C1047 H1013 0.930 . S
C1047 C1046 1.358 1_545 S
C1047 C1048 1.405 . S
C1048 H1014 0.932 . S
C1048 C1047 1.405 . S
C1048 C1049 1.383 . S
C1049 C1048 1.383 . S
C1049 C1050 1.393 1_545 S
C1050 H1015 0.931 . S
C1050 C1049 1.393 1_565 S
C1050 C1051 1.382 . S
C1051 H1016 0.929 . S
C1051 C1046 1.371 . S
C1051 C1050 1.382 . S
C1052 N1020 1.423 . S
C1052 C1053 1.362 . S
C1052 C1057 1.347 1_565 S
C1053 H1017 0.929 . S
C1053 C1052 1.362 . S
C1053 C1054 1.376 . S
C1054 H1018 0.931 . S
C1054 C1053 1.376 . S
C1054 C1055 1.396 . S
C1055 C1037 1.472 . S
C1055 C1054 1.396 . S
C1055 C1056 1.368 . S
C1056 H1019 0.876 1_565 S
C1056 C1055 1.368 . S
C1056 C1057 1.505 1_565 S
C1057 H1021 0.951 . S
C1057 C1052 1.347 1_545 S
C1057 C1056 1.505 1_545 S
H1058 C1085 0.929 . S
N1059 C1084 1.433 . S
N1059 C1090 1.435 . S
N1059 C1096 1.423 . S
H1060 C1086 0.930 . S
H1061 C1089 0.931 . S
H1062 C1088 0.929 . S
H1063 C1091 0.930 . S
H1064 C1092 0.932 . S
H1065 C1095 0.929 . S
H1066 C1094 0.931 . S
H1067 C1097 0.929 . S
H1068 C1101 0.932 1_455 S
H1069 C1098 0.931 . S
H1070 C1100 0.929 . S
H1071 C1103 0.929 . S
H1072 C1104 0.930 . S
H1073 C1106 0.929 . S
H1074 C1107 0.931 . S
H1075 C1109 0.930 . S
H1076 C1110 0.932 . S
H1077 C1112 0.931 . S
H1078 C1113 0.929 . S
H1079 C1115 0.929 . S
H1080 C1116 0.931 . S
H1081 C1118 0.929 . S
N1082 C1102 1.433 . S
N1082 C1108 1.435 . S
N1082 C1114 1.423 . S
H1083 C1119 0.932 1_455 S
C1084 N1059 1.433 . S
C1084 C1085 1.363 . S
C1084 C1089 1.370 1_655 S
C1085 H1058 0.929 . S
C1085 C1084 1.363 . S
C1085 C1086 1.385 . S
C1086 H1060 0.930 . S
C1086 C1085 1.385 . S
C1086 C1087 1.357 1_655 S
C1087 C1086 1.357 1_455 S
C1087 C1088 1.406 . S
C1088 H1062 0.929 . S
C1088 C1087 1.406 . S
C1088 C1089 1.391 . S
C1089 H1061 0.931 . S
C1089 C1084 1.370 1_455 S
C1089 C1088 1.391 . S
C1090 N1059 1.435 . S
C1090 C1091 1.358 1_655 S
C1090 C1095 1.371 . S
C1091 H1063 0.930 . S
C1091 C1090 1.358 1_455 S
C1091 C1092 1.405 . S
C1092 H1064 0.932 . S
C1092 C1091 1.405 . S
C1092 C1093 1.383 1_455 S
C1093 C1092 1.383 1_655 S
C1093 C1094 1.393 . S
C1094 H1066 0.931 . S
C1094 C1093 1.393 . S
C1094 C1095 1.382 . S
C1095 H1065 0.929 . S
C1095 C1090 1.371 . S
C1095 C1094 1.382 . S
C1096 N1059 1.423 . S
C1096 C1097 1.362 . S
C1096 C1101 1.388 . S
C1097 H1067 0.929 . S
C1097 C1096 1.362 . S
C1097 C1098 1.376 . S
C1098 H1069 0.931 . S
C1098 C1097 1.376 . S
C1098 C1099 1.396 . S
C1099 C1098 1.396 . S
C1099 C1100 1.348 . S
C1099 C1117 1.472 . S
C1100 H1070 0.929 . S
C1100 C1099 1.348 . S
C1100 C1101 1.443 . S
C1101 H1068 0.932 1_655 S
C1101 C1096 1.388 . S
C1101 C1100 1.443 . S
C1102 N1082 1.433 . S
C1102 C1103 1.363 . S
C1102 C1107 1.370 1_655 S
C1103 H1071 0.929 . S
C1103 C1102 1.363 . S
C1103 C1104 1.385 . S
C1104 H1072 0.930 . S
C1104 C1103 1.385 . S
C1104 C1105 1.357 1_655 S
C1105 C1104 1.357 1_455 S
C1105 C1106 1.406 . S
C1106 H1073 0.929 . S
C1106 C1105 1.406 . S
C1106 C1107 1.391 . S
C1107 H1074 0.931 . S
C1107 C1102 1.370 1_455 S
C1107 C1106 1.391 . S
C1108 N1082 1.435 . S
C1108 C1109 1.358 1_655 S
C1108 C1113 1.371 . S
C1109 H1075 0.930 . S
C1109 C1108 1.358 1_455 S
C1109 C1110 1.405 . S
C1110 H1076 0.932 . S
C1110 C1109 1.405 . S
C1110 C1111 1.383 1_455 S
C1111 C1110 1.383 1_655 S
C1111 C1112 1.393 . S
C1112 H1077 0.931 . S
C1112 C1111 1.393 . S
C1112 C1113 1.382 . S
C1113 H1078 0.929 . S
C1113 C1108 1.371 . S
C1113 C1112 1.382 . S
C1114 N1082 1.423 . S
C1114 C1115 1.362 . S
C1114 C1119 1.388 . S
C1115 H1079 0.929 . S
C1115 C1114 1.362 . S
C1115 C1116 1.376 . S
C1116 H1080 0.931 . S
C1116 C1115 1.376 . S
C1116 C1117 1.396 . S
C1117 C1099 1.472 . S
C1117 C1116 1.396 . S
C1117 C1118 1.348 . S
C1118 H1081 0.929 . S
C1118 C1117 1.348 . S
C1118 C1119 1.443 . S
C1119 H1083 0.932 1_655 S
C1119 C1114 1.388 . S
C1119 C1118 1.443 . S
H1120 C1147 0.929 . S
N1121 C1146 1.433 . S
N1121 C1152 1.435 . S
N1121 C1158 1.423 . S
H1122 C1148 0.930 . S
H1123 C1151 0.931 . S
H1124 C1150 0.929 . S
H1125 C1153 0.930 . S
H1126 C1154 0.932 . S
H1127 C1157 0.929 . S
H1128 C1156 0.931 . S
H1129 C1159 0.929 . S
H1130 C1163 0.932 . S
H1131 C1160 0.931 . S
H1132 C1162 0.929 . S
H1133 C1165 0.929 . S
H1134 C1166 0.930 . S
H1135 C1168 0.929 . S
H1136 C1169 0.931 . S
H1137 C1171 0.930 . S
H1138 C1172 0.932 . S
H1139 C1174 0.931 . S
H1140 C1175 0.929 . S
H1141 C1177 0.929 . S
H1142 C1178 0.931 . S
H1143 C1180 0.929 . S
N1144 C1164 1.433 . S
N1144 C1170 1.435 . S
N1144 C1176 1.423 . S
H1145 C1181 0.932 . S
C1146 N1121 1.433 . S
C1146 C1147 1.363 . S
C1146 C1151 1.370 . S
C1147 H1120 0.929 . S
C1147 C1146 1.363 . S
C1147 C1148 1.385 . S
C1148 H1122 0.930 . S
C1148 C1147 1.385 . S
C1148 C1149 1.357 . S
C1149 C1148 1.357 . S
C1149 C1150 1.406 . S
C1150 H1124 0.929 . S
C1150 C1149 1.406 . S
C1150 C1151 1.391 . S
C1151 H1123 0.931 . S
C1151 C1146 1.370 . S
C1151 C1150 1.391 . S
C1152 N1121 1.435 . S
C1152 C1153 1.358 . S
C1152 C1157 1.371 . S
C1153 H1125 0.930 . S
C1153 C1152 1.358 . S
C1153 C1154 1.405 . S
C1154 H1126 0.932 . S
C1154 C1153 1.405 . S
C1154 C1155 1.383 . S
C1155 C1154 1.383 . S
C1155 C1156 1.393 . S
C1156 H1128 0.931 . S
C1156 C1155 1.393 . S
C1156 C1157 1.382 . S
C1157 H1127 0.929 . S
C1157 C1152 1.371 . S
C1157 C1156 1.382 . S
C1158 N1121 1.423 . S
C1158 C1159 1.362 . S
C1158 C1163 1.388 . S
C1159 H1129 0.929 . S
C1159 C1158 1.362 . S
C1159 C1160 1.376 . S
C1160 H1131 0.931 . S
C1160 C1159 1.376 . S
C1160 C1161 1.396 . S
C1161 C1160 1.396 . S
C1161 C1162 1.348 . S
C1161 C1179 1.472 . S
C1162 H1132 0.929 . S
C1162 C1161 1.348 . S
C1162 C1163 1.443 . S
C1163 H1130 0.932 . S
C1163 C1158 1.388 . S
C1163 C1162 1.443 . S
C1164 N1144 1.433 . S
C1164 C1165 1.363 . S
C1164 C1169 1.370 . S
C1165 H1133 0.929 . S
C1165 C1164 1.363 . S
C1165 C1166 1.385 . S
C1166 H1134 0.930 . S
C1166 C1165 1.385 . S
C1166 C1167 1.357 . S
C1167 C1166 1.357 . S
C1167 C1168 1.406 . S
C1168 H1135 0.929 . S
C1168 C1167 1.406 . S
C1168 C1169 1.391 . S
C1169 H1136 0.931 . S
C1169 C1164 1.370 . S
C1169 C1168 1.391 . S
C1170 N1144 1.435 . S
C1170 C1171 1.358 . S
C1170 C1175 1.371 . S
C1171 H1137 0.930 . S
C1171 C1170 1.358 . S
C1171 C1172 1.405 . S
C1172 H1138 0.932 . S
C1172 C1171 1.405 . S
C1172 C1173 1.383 . S
C1173 C1172 1.383 . S
C1173 C1174 1.393 . S
C1174 H1139 0.931 . S
C1174 C1173 1.393 . S
C1174 C1175 1.382 . S
C1175 H1140 0.929 . S
C1175 C1170 1.371 . S
C1175 C1174 1.382 . S
C1176 N1144 1.423 . S
C1176 C1177 1.362 . S
C1176 C1181 1.388 . S
C1177 H1141 0.929 . S
C1177 C1176 1.362 . S
C1177 C1178 1.376 . S
C1178 H1142 0.931 . S
C1178 C1177 1.376 . S
C1178 C1179 1.396 . S
C1179 C1161 1.472 . S
C1179 C1178 1.396 . S
C1179 C1180 1.348 . S
C1180 H1143 0.929 . S
C1180 C1179 1.348 . S
C1180 C1181 1.443 . S
C1181 H1145 0.932 . S
C1181 C1176 1.388 . S
C1181 C1180 1.443 . S
H1182 C1209 0.929 . S
N1183 C1208 1.433 . S
N1183 C1214 1.435 . S
N1183 C1220 1.423 . S
H1184 C1210 0.930 . S
H1185 C1213 0.931 . S
H1186 C1212 0.929 . S
H1187 C1215 0.930 . S
H1188 C1216 0.932 . S
H1189 C1219 0.929 . S
H1190 C1218 0.931 . S
H1191 C1221 0.929 . S
H1192 C1225 0.932 . S
H1193 C1222 0.931 . S
H1194 C1224 0.929 . S
H1195 C1227 0.929 . S
H1196 C1228 0.930 . S
H1197 C1230 0.929 . S
H1198 C1231 0.931 . S
H1199 C1233 0.930 . S
H1200 C1234 0.932 . S
H1201 C1236 0.931 . S
H1202 C1237 0.929 . S
H1203 C1239 0.929 . S
H1204 C1240 0.931 . S
H1205 C1242 0.929 . S
N1206 C1226 1.433 . S
N1206 C1232 1.435 . S
N1206 C1238 1.423 . S
H1207 C1243 0.932 . S
C1208 N1183 1.433 . S
C1208 C1209 1.363 . S
C1208 C1213 1.370 . S
C1209 H1182 0.929 . S
C1209 C1208 1.363 . S
C1209 C1210 1.385 . S
C1210 H1184 0.930 . S
C1210 C1209 1.385 . S
C1210 C1211 1.357 . S
C1211 C1210 1.357 . S
C1211 C1212 1.406 . S
C1212 H1186 0.929 . S
C1212 C1211 1.406 . S
C1212 C1213 1.391 . S
C1213 H1185 0.931 . S
C1213 C1208 1.370 . S
C1213 C1212 1.391 . S
C1214 N1183 1.435 . S
C1214 C1215 1.358 . S
C1214 C1219 1.371 . S
C1215 H1187 0.930 . S
C1215 C1214 1.358 . S
C1215 C1216 1.405 . S
C1216 H1188 0.932 . S
C1216 C1215 1.405 . S
C1216 C1217 1.383 . S
C1217 C1216 1.383 . S
C1217 C1218 1.393 . S
C1218 H1190 0.931 . S
C1218 C1217 1.393 . S
C1218 C1219 1.382 . S
C1219 H1189 0.929 . S
C1219 C1214 1.371 . S
C1219 C1218 1.382 . S
C1220 N1183 1.423 . S
C1220 C1221 1.362 . S
C1220 C1225 1.388 . S
C1221 H1191 0.929 . S
C1221 C1220 1.362 . S
C1221 C1222 1.376 . S
C1222 H1193 0.931 . S
C1222 C1221 1.376 . S
C1222 C1223 1.396 . S
C1223 C1222 1.396 . S
C1223 C1224 1.348 . S
C1223 C1241 1.472 . S
C1224 H1194 0.929 . S
C1224 C1223 1.348 . S
C1224 C1225 1.443 . S
C1225 H1192 0.932 . S
C1225 C1220 1.388 . S
C1225 C1224 1.443 . S
C1226 N1206 1.433 . S
C1226 C1227 1.363 . S
C1226 C1231 1.370 . S
C1227 H1195 0.929 . S
C1227 C1226 1.363 . S
C1227 C1228 1.385 . S
C1228 H1196 0.930 . S
C1228 C1227 1.385 . S
C1228 C1229 1.357 . S
C1229 C1228 1.357 . S
C1229 C1230 1.406 . S
C1230 H1197 0.929 . S
C1230 C1229 1.406 . S
C1230 C1231 1.391 . S
C1231 H1198 0.931 . S
C1231 C1226 1.370 . S
C1231 C1230 1.391 . S
C1232 N1206 1.435 . S
C1232 C1233 1.358 . S
C1232 C1237 1.371 . S
C1233 H1199 0.930 . S
C1233 C1232 1.358 . S
C1233 C1234 1.405 . S
C1234 H1200 0.932 . S
C1234 C1233 1.405 . S
C1234 C1235 1.383 . S
C1235 C1234 1.383 . S
C1235 C1236 1.393 . S
C1236 H1201 0.931 . S
C1236 C1235 1.393 . S
C1236 C1237 1.382 . S
C1237 H1202 0.929 . S
C1237 C1232 1.371 . S
C1237 C1236 1.382 . S
C1238 N1206 1.423 . S
C1238 C1239 1.362 . S
C1238 C1243 1.388 . S
C1239 H1203 0.929 . S
C1239 C1238 1.362 . S
C1239 C1240 1.376 . S
C1240 H1204 0.931 . S
C1240 C1239 1.376 . S
C1240 C1241 1.396 . S
C1241 C1223 1.472 . S
C1241 C1240 1.396 . S
C1241 C1242 1.348 . S
C1242 H1205 0.929 . S
C1242 C1241 1.348 . S
C1242 C1243 1.443 . S
C1243 H1207 0.932 . S
C1243 C1238 1.388 . S
C1243 C1242 1.443 . S
H1244 C1271 0.929 . S
N1245 C1270 1.433 . S
N1245 C1276 1.435 . S
N1245 C1282 1.423 . S
H1246 C1272 0.930 . S
H1247 C1275 0.931 . S
H1248 C1274 0.929 . S
H1249 C1277 0.930 . S
H1250 C1278 0.932 . S
H1251 C1281 0.929 . S
H1252 C1280 0.931 . S
H1253 C1283 0.929 . S
H1254 C1287 0.932 . S
H1255 C1284 0.931 . S
H1256 C1286 0.929 . S
H1257 C1289 0.929 . S
H1258 C1290 0.930 . S
H1259 C1292 0.929 . S
H1260 C1293 0.931 . S
H1261 C1295 0.930 . S
H1262 C1296 0.932 . S
H1263 C1298 0.931 . S
H1264 C1299 0.929 . S
H1265 C1301 0.929 . S
H1266 C1302 0.931 . S
H1267 C1304 0.929 . S
N1268 C1288 1.433 . S
N1268 C1294 1.435 . S
N1268 C1300 1.423 . S
H1269 C1305 0.932 . S
C1270 N1245 1.433 . S
C1270 C1271 1.363 . S
C1270 C1275 1.370 . S
C1271 H1244 0.929 . S
C1271 C1270 1.363 . S
C1271 C1272 1.385 . S
C1272 H1246 0.930 . S
C1272 C1271 1.385 . S
C1272 C1273 1.357 . S
C1273 C1272 1.357 . S
C1273 C1274 1.406 . S
C1274 H1248 0.929 . S
C1274 C1273 1.406 . S
C1274 C1275 1.391 . S
C1275 H1247 0.931 . S
C1275 C1270 1.370 . S
C1275 C1274 1.391 . S
C1276 N1245 1.435 . S
C1276 C1277 1.358 . S
C1276 C1281 1.371 . S
C1277 H1249 0.930 . S
C1277 C1276 1.358 . S
C1277 C1278 1.405 . S
C1278 H1250 0.932 . S
C1278 C1277 1.405 . S
C1278 C1279 1.383 . S
C1279 C1278 1.383 . S
C1279 C1280 1.393 . S
C1280 H1252 0.931 . S
C1280 C1279 1.393 . S
C1280 C1281 1.382 . S
C1281 H1251 0.929 . S
C1281 C1276 1.371 . S
C1281 C1280 1.382 . S
C1282 N1245 1.423 . S
C1282 C1283 1.362 . S
C1282 C1287 1.388 . S
C1283 H1253 0.929 . S
C1283 C1282 1.362 . S
C1283 C1284 1.376 . S
C1284 H1255 0.931 . S
C1284 C1283 1.376 . S
C1284 C1285 1.396 . S
C1285 C1284 1.396 . S
C1285 C1286 1.348 . S
C1285 C1303 1.472 . S
C1286 H1256 0.929 . S
C1286 C1285 1.348 . S
C1286 C1287 1.443 . S
C1287 H1254 0.932 . S
C1287 C1282 1.388 . S
C1287 C1286 1.443 . S
C1288 N1268 1.433 . S
C1288 C1289 1.363 . S
C1288 C1293 1.370 . S
C1289 H1257 0.929 . S
C1289 C1288 1.363 . S
C1289 C1290 1.385 . S
C1290 H1258 0.930 . S
C1290 C1289 1.385 . S
C1290 C1291 1.357 . S
C1291 C1290 1.357 . S
C1291 C1292 1.406 . S
C1292 H1259 0.929 . S
C1292 C1291 1.406 . S
C1292 C1293 1.391 . S
C1293 H1260 0.931 . S
C1293 C1288 1.370 . S
C1293 C1292 1.391 . S
C1294 N1268 1.435 . S
C1294 C1295 1.358 . S
C1294 C1299 1.371 . S
C1295 H1261 0.930 . S
C1295 C1294 1.358 . S
C1295 C1296 1.405 . S
C1296 H1262 0.932 . S
C1296 C1295 1.405 . S
C1296 C1297 1.383 . S
C1297 C1296 1.383 . S
C1297 C1298 1.393 . S
C1298 H1263 0.931 . S
C1298 C1297 1.393 . S
C1298 C1299 1.382 . S
C1299 H1264 0.929 . S
C1299 C1294 1.371 . S
C1299 C1298 1.382 . S
C1300 N1268 1.423 . S
C1300 C1301 1.362 . S
C1300 C1305 1.388 . S
C1301 H1265 0.929 . S
C1301 C1300 1.362 . S
C1301 C1302 1.376 . S
C1302 H1266 0.931 . S
C1302 C1301 1.376 . S
C1302 C1303 1.396 . S
C1303 C1285 1.472 . S
C1303 C1302 1.396 . S
C1303 C1304 1.348 . S
C1304 H1267 0.929 . S
C1304 C1303 1.348 . S
C1304 C1305 1.443 . S
C1305 H1269 0.932 . S
C1305 C1300 1.388 . S
C1305 C1304 1.443 . S
H1306 C1333 0.929 . S
N1307 C1332 1.433 . S
N1307 C1338 1.435 . S
N1307 C1344 1.423 . S
H1308 C1334 0.930 . S
H1309 C1337 0.931 . S
H1310 C1336 0.929 . S
H1311 C1339 0.930 . S
H1312 C1340 0.932 . S
H1313 C1343 0.929 . S
H1314 C1342 0.931 . S
H1315 C1345 0.929 . S
H1316 C1349 0.932 . S
H1317 C1346 0.931 . S
H1318 C1348 0.929 . S
H1319 C1351 0.929 . S
H1320 C1352 0.930 . S
H1321 C1354 0.929 . S
H1322 C1355 0.931 . S
H1323 C1357 0.930 . S
H1324 C1358 0.932 . S
H1325 C1360 0.931 . S
H1326 C1361 0.929 . S
H1327 C1363 0.929 . S
H1328 C1364 0.931 . S
H1329 C1366 0.929 . S
N1330 C1350 1.433 . S
N1330 C1356 1.435 . S
N1330 C1362 1.423 . S
H1331 C1367 0.932 . S
C1332 N1307 1.433 . S
C1332 C1333 1.363 . S
C1332 C1337 1.370 . S
C1333 H1306 0.929 . S
C1333 C1332 1.363 . S
C1333 C1334 1.385 . S
C1334 H1308 0.930 . S
C1334 C1333 1.385 . S
C1334 C1335 1.357 . S
C1335 C1334 1.357 . S
C1335 C1336 1.406 . S
C1336 H1310 0.929 . S
C1336 C1335 1.406 . S
C1336 C1337 1.391 . S
C1337 H1309 0.931 . S
C1337 C1332 1.370 . S
C1337 C1336 1.391 . S
C1338 N1307 1.435 . S
C1338 C1339 1.358 . S
C1338 C1343 1.371 . S
C1339 H1311 0.930 . S
C1339 C1338 1.358 . S
C1339 C1340 1.405 . S
C1340 H1312 0.932 . S
C1340 C1339 1.405 . S
C1340 C1341 1.383 . S
C1341 C1340 1.383 . S
C1341 C1342 1.393 . S
C1342 H1314 0.931 . S
C1342 C1341 1.393 . S
C1342 C1343 1.382 . S
C1343 H1313 0.929 . S
C1343 C1338 1.371 . S
C1343 C1342 1.382 . S
C1344 N1307 1.423 . S
C1344 C1345 1.362 . S
C1344 C1349 1.388 . S
C1345 H1315 0.929 . S
C1345 C1344 1.362 . S
C1345 C1346 1.376 . S
C1346 H1317 0.931 . S
C1346 C1345 1.376 . S
C1346 C1347 1.396 . S
C1347 C1346 1.396 . S
C1347 C1348 1.348 . S
C1347 C1365 1.472 . S
C1348 H1318 0.929 . S
C1348 C1347 1.348 . S
C1348 C1349 1.443 . S
C1349 H1316 0.932 . S
C1349 C1344 1.388 . S
C1349 C1348 1.443 . S
C1350 N1330 1.433 . S
C1350 C1351 1.363 . S
C1350 C1355 1.370 . S
C1351 H1319 0.929 . S
C1351 C1350 1.363 . S
C1351 C1352 1.385 . S
C1352 H1320 0.930 . S
C1352 C1351 1.385 . S
C1352 C1353 1.357 . S
C1353 C1352 1.357 . S
C1353 C1354 1.406 . S
C1354 H1321 0.929 . S
C1354 C1353 1.406 . S
C1354 C1355 1.391 . S
C1355 H1322 0.931 . S
C1355 C1350 1.370 . S
C1355 C1354 1.391 . S
C1356 N1330 1.435 . S
C1356 C1357 1.358 . S
C1356 C1361 1.371 . S
C1357 H1323 0.930 . S
C1357 C1356 1.358 . S
C1357 C1358 1.405 . S
C1358 H1324 0.932 . S
C1358 C1357 1.405 . S
C1358 C1359 1.383 . S
C1359 C1358 1.383 . S
C1359 C1360 1.393 . S
C1360 H1325 0.931 . S
C1360 C1359 1.393 . S
C1360 C1361 1.382 . S
C1361 H1326 0.929 . S
C1361 C1356 1.371 . S
C1361 C1360 1.382 . S
C1362 N1330 1.423 . S
C1362 C1363 1.362 . S
C1362 C1367 1.388 . S
C1363 H1327 0.929 . S
C1363 C1362 1.362 . S
C1363 C1364 1.376 . S
C1364 H1328 0.931 . S
C1364 C1363 1.376 . S
C1364 C1365 1.396 . S
C1365 C1347 1.472 . S
C1365 C1364 1.396 . S
C1365 C1366 1.348 . S
C1366 H1329 0.929 . S
C1366 C1365 1.348 . S
C1366 C1367 1.443 . S
C1367 H1331 0.932 . S
C1367 C1362 1.388 . S
C1367 C1366 1.443 . S
H1368 C1376 0.950 . S
H1369 C1381 0.950 . S
H1370 C1378 0.950 . S
H1371 C1380 0.950 . S
H1372 C1382 0.950 . S
H1373 C1384 0.950 . S
H1374 C1386 0.950 . S
H1375 C1387 0.950 . S
C1376 H1368 0.950 . S
C1376 C1377 1.386 . S
C1376 C1378 1.391 . S
C1377 C1376 1.386 . S
C1377 C1381 1.393 1_655 S
C1378 H1370 0.950 . S
C1378 C1376 1.391 . S
C1378 C1379 1.400 . S
C1379 C1378 1.400 . S
C1379 C1380 1.398 1_655 S
C1379 C1385 1.491 . S
C1380 H1371 0.950 . S
C1380 C1379 1.398 1_455 S
C1380 C1381 1.391 . S
C1381 H1369 0.950 . S
C1381 C1377 1.393 1_455 S
C1381 C1380 1.391 . S
C1382 H1372 0.950 . S
C1382 C1383 1.386 1_455 S
C1382 C1384 1.391 . S
C1383 C1382 1.386 1_655 S
C1383 C1387 1.393 . S
C1384 H1373 0.950 . S
C1384 C1382 1.391 . S
C1384 C1385 1.400 1_455 S
C1385 C1379 1.491 . S
C1385 C1384 1.400 1_655 S
C1385 C1386 1.398 . S
C1386 H1374 0.950 . S
C1386 C1385 1.398 . S
C1386 C1387 1.391 . S
C1387 H1375 0.950 . S
C1387 C1383 1.393 . S
C1387 C1386 1.391 . S
H1388 C1396 0.950 . S
H1389 C1401 0.950 . S
H1390 C1398 0.950 . S
H1391 C1400 0.950 . S
H1392 C1402 0.950 . S
H1393 C1404 0.950 . S
H1394 C1406 0.950 . S
H1395 C1407 0.950 . S
C1396 H1388 0.950 . S
C1396 C1397 1.386 . S
C1396 C1398 1.391 . S
C1397 C1396 1.386 . S
C1397 C1401 1.393 . S
C1398 H1390 0.950 . S
C1398 C1396 1.391 . S
C1398 C1399 1.400 . S
C1399 C1398 1.400 . S
C1399 C1400 1.398 . S
C1399 C1405 1.491 . S
C1400 H1391 0.950 . S
C1400 C1399 1.398 . S
C1400 C1401 1.391 . S
C1401 H1389 0.950 . S
C1401 C1397 1.393 . S
C1401 C1400 1.391 . S
C1402 H1392 0.950 . S
C1402 C1403 1.386 . S
C1402 C1404 1.391 . S
C1403 C1402 1.386 . S
C1403 C1407 1.393 . S
C1404 H1393 0.950 . S
C1404 C1402 1.391 . S
C1404 C1405 1.400 . S
C1405 C1399 1.491 . S
C1405 C1404 1.400 . S
C1405 C1406 1.398 . S
C1406 H1394 0.950 . S
C1406 C1405 1.398 . S
C1406 C1407 1.391 . S
C1407 H1395 0.950 . S
C1407 C1403 1.393 . S
C1407 C1406 1.391 . S
H1408 C1416 0.950 . S
H1409 C1421 0.950 . S
H1410 C1418 0.950 . S
H1411 C1420 0.950 . S
H1412 C1422 0.950 . S
H1413 C1424 0.950 . S
H1414 C1426 0.950 . S
H1415 C1427 0.950 . S
C1416 H1408 0.950 . S
C1416 C1417 1.386 1_565 S
C1416 C1418 1.391 . S
C1417 C1416 1.386 1_545 S
C1417 C1421 1.393 . S
C1418 H1410 0.950 . S
C1418 C1416 1.391 . S
C1418 C1419 1.400 1_565 S
C1419 C1418 1.400 1_545 S
C1419 C1420 1.398 . S
C1419 C1425 1.491 . S
C1420 H1411 0.950 . S
C1420 C1419 1.398 . S
C1420 C1421 1.391 . S
C1421 H1409 0.950 . S
C1421 C1417 1.393 . S
C1421 C1420 1.391 . S
C1422 H1412 0.950 . S
C1422 C1423 1.386 . S
C1422 C1424 1.391 . S
C1423 C1422 1.386 . S
C1423 C1427 1.393 1_545 S
C1424 H1413 0.950 . S
C1424 C1422 1.391 . S
C1424 C1425 1.400 . S
C1425 C1419 1.491 . S
C1425 C1424 1.400 . S
C1425 C1426 1.398 1_545 S
C1426 H1414 0.950 . S
C1426 C1425 1.398 1_565 S
C1426 C1427 1.391 . S
C1427 H1415 0.950 . S
C1427 C1423 1.393 1_565 S
C1427 C1426 1.391 . S
H1428 C1436 0.950 . S
H1429 C1441 0.950 . S
H1430 C1438 0.950 . S
H1431 C1440 0.950 . S
H1432 C1442 0.950 . S
H1433 C1444 0.950 . S
H1434 C1446 0.950 . S
H1435 C1447 0.950 . S
C1436 H1428 0.950 . S
C1436 C1437 1.386 . S
C1436 C1438 1.391 . S
C1437 C1436 1.386 . S
C1437 C1441 1.393 . S
C1438 H1430 0.950 . S
C1438 C1436 1.391 . S
C1438 C1439 1.400 . S
C1439 C1438 1.400 . S
C1439 C1440 1.398 . S
C1439 C1445 1.491 . S
C1440 H1431 0.950 . S
C1440 C1439 1.398 . S
C1440 C1441 1.391 . S
C1441 H1429 0.950 . S
C1441 C1437 1.393 . S
C1441 C1440 1.391 . S
C1442 H1432 0.950 . S
C1442 C1443 1.386 . S
C1442 C1444 1.391 . S
C1443 C1442 1.386 . S
C1443 C1447 1.393 . S
C1444 H1433 0.950 . S
C1444 C1442 1.391 . S
C1444 C1445 1.400 . S
C1445 C1439 1.491 . S
C1445 C1444 1.400 . S
C1445 C1446 1.398 . S
C1446 H1434 0.950 . S
C1446 C1445 1.398 . S
C1446 C1447 1.391 . S
C1447 H1435 0.950 . S
C1447 C1443 1.393 . S
C1447 C1446 1.391 . S
H1448 C1456 0.950 . S
H1449 C1461 0.950 . S
H1450 C1458 0.950 . S
H1451 C1460 0.950 . S
H1452 C1462 0.950 . S
H1453 C1464 0.950 . S
H1454 C1466 0.950 . S
H1455 C1467 0.950 . S
C1456 H1448 0.950 . S
C1456 C1457 1.386 1_655 S
C1456 C1458 1.391 . S
C1457 C1456 1.386 1_455 S
C1457 C1461 1.393 . S
C1458 H1450 0.950 . S
C1458 C1456 1.391 . S
C1458 C1459 1.400 1_655 S
C1459 C1458 1.400 1_455 S
C1459 C1460 1.398 . S
C1459 C1465 1.491 . S
C1460 H1451 0.950 . S
C1460 C1459 1.398 . S
C1460 C1461 1.391 . S
C1461 H1449 0.950 . S
C1461 C1457 1.393 . S
C1461 C1460 1.391 . S
C1462 H1452 0.950 . S
C1462 C1463 1.386 . S
C1462 C1464 1.391 . S
C1463 C1462 1.386 . S
C1463 C1467 1.393 1_455 S
C1464 H1453 0.950 . S
C1464 C1462 1.391 . S
C1464 C1465 1.400 . S
C1465 C1459 1.491 . S
C1465 C1464 1.400 . S
C1465 C1466 1.398 1_455 S
C1466 H1454 0.950 . S
C1466 C1465 1.398 1_655 S
C1466 C1467 1.391 . S
C1467 H1455 0.950 . S
C1467 C1463 1.393 1_655 S
C1467 C1466 1.391 . S
H1468 C1476 0.950 . S
H1469 C1481 0.950 . S
H1470 C1478 0.950 . S
H1471 C1480 0.950 . S
H1472 C1482 0.950 . S
H1473 C1484 0.950 . S
H1474 C1486 0.950 . S
H1475 C1487 0.950 . S
C1476 H1468 0.950 . S
C1476 C1477 1.386 . S
C1476 C1478 1.391 . S
C1477 C1476 1.386 . S
C1477 C1481 1.393 . S
C1478 H1470 0.950 . S
C1478 C1476 1.391 . S
C1478 C1479 1.400 . S
C1479 C1478 1.400 . S
C1479 C1480 1.398 . S
C1479 C1485 1.491 . S
C1480 H1471 0.950 . S
C1480 C1479 1.398 . S
C1480 C1481 1.391 . S
C1481 H1469 0.950 . S
C1481 C1477 1.393 . S
C1481 C1480 1.391 . S
C1482 H1472 0.950 . S
C1482 C1483 1.386 . S
C1482 C1484 1.391 . S
C1483 C1482 1.386 . S
C1483 C1487 1.393 . S
C1484 H1473 0.950 . S
C1484 C1482 1.391 . S
C1484 C1485 1.400 . S
C1485 C1479 1.491 . S
C1485 C1484 1.400 . S
C1485 C1486 1.398 . S
C1486 H1474 0.950 . S
C1486 C1485 1.398 . S
C1486 C1487 1.391 . S
C1487 H1475 0.950 . S
C1487 C1483 1.393 . S
C1487 C1486 1.391 . S
H1488 C1496 0.950 . S
H1489 C1501 0.950 . S
H1490 C1498 0.950 . S
H1491 C1500 0.950 . S
H1492 C1502 0.950 . S
H1493 C1504 0.950 . S
H1494 C1506 0.950 . S
H1495 C1507 0.950 . S
C1496 H1488 0.950 . S
C1496 C1497 1.386 . S
C1496 C1498 1.391 . S
C1497 C1496 1.386 . S
C1497 C1501 1.393 1_455 S
C1498 H1490 0.950 . S
C1498 C1496 1.391 . S
C1498 C1499 1.400 . S
C1499 C1498 1.400 . S
C1499 C1500 1.398 1_455 S
C1499 C1505 1.491 . S
C1500 H1491 0.950 . S
C1500 C1499 1.398 1_655 S
C1500 C1501 1.391 . S
C1501 H1489 0.950 . S
C1501 C1497 1.393 1_655 S
C1501 C1500 1.391 . S
C1502 H1492 0.950 . S
C1502 C1503 1.386 1_655 S
C1502 C1504 1.391 . S
C1503 C1502 1.386 1_455 S
C1503 C1507 1.393 . S
C1504 H1493 0.950 . S
C1504 C1502 1.391 . S
C1504 C1505 1.400 1_655 S
C1505 C1499 1.491 . S
C1505 C1504 1.400 1_455 S
C1505 C1506 1.398 . S
C1506 H1494 0.950 . S
C1506 C1505 1.398 . S
C1506 C1507 1.391 . S
C1507 H1495 0.950 . S
C1507 C1503 1.393 . S
C1507 C1506 1.391 . S
H1508 C1516 0.950 . S
H1509 C1521 0.950 . S
H1510 C1518 0.950 . S
H1511 C1520 0.950 . S
H1512 C1522 0.950 . S
H1513 C1524 0.950 . S
H1514 C1526 0.950 . S
H1515 C1527 0.950 . S
C1516 H1508 0.950 . S
C1516 C1517 1.386 . S
C1516 C1518 1.391 . S
C1517 C1516 1.386 . S
C1517 C1521 1.393 . S
C1518 H1510 0.950 . S
C1518 C1516 1.391 . S
C1518 C1519 1.400 . S
C1519 C1518 1.400 . S
C1519 C1520 1.398 . S
C1519 C1525 1.491 . S
C1520 H1511 0.950 . S
C1520 C1519 1.398 . S
C1520 C1521 1.391 . S
C1521 H1509 0.950 . S
C1521 C1517 1.393 . S
C1521 C1520 1.391 . S
C1522 H1512 0.950 . S
C1522 C1523 1.386 . S
C1522 C1524 1.391 . S
C1523 C1522 1.386 . S
C1523 C1527 1.393 . S
C1524 H1513 0.950 . S
C1524 C1522 1.391 . S
C1524 C1525 1.400 . S
C1525 C1519 1.491 . S
C1525 C1524 1.400 . S
C1525 C1526 1.398 . S
C1526 H1514 0.950 . S
C1526 C1525 1.398 . S
C1526 C1527 1.391 . S
C1527 H1515 0.950 . S
C1527 C1523 1.393 . S
C1527 C1526 1.391 . S
H1528 C1536 0.950 . S
H1529 C1541 0.950 . S
H1530 C1538 0.950 . S
H1531 C1540 0.950 . S
H1532 C1542 0.950 . S
H1533 C1544 0.950 . S
H1534 C1546 0.950 . S
H1535 C1547 0.950 . S
C1536 H1528 0.950 . S
C1536 C1537 1.386 . S
C1536 C1538 1.391 . S
C1537 C1536 1.386 . S
C1537 C1541 1.393 1_565 S
C1538 H1530 0.950 . S
C1538 C1536 1.391 . S
C1538 C1539 1.400 . S
C1539 C1538 1.400 . S
C1539 C1540 1.398 1_565 S
C1539 C1545 1.491 . S
C1540 H1531 0.950 . S
C1540 C1539 1.398 1_545 S
C1540 C1541 1.391 . S
C1541 H1529 0.950 . S
C1541 C1537 1.393 1_545 S
C1541 C1540 1.391 . S
C1542 H1532 0.950 . S
C1542 C1543 1.386 1_545 S
C1542 C1544 1.391 . S
C1543 C1542 1.386 1_565 S
C1543 C1547 1.393 . S
C1544 H1533 0.950 . S
C1544 C1542 1.391 . S
C1544 C1545 1.400 1_545 S
C1545 C1539 1.491 . S
C1545 C1544 1.400 1_565 S
C1545 C1546 1.398 . S
C1546 H1534 0.950 . S
C1546 C1545 1.398 . S
C1546 C1547 1.391 . S
C1547 H1535 0.950 . S
C1547 C1543 1.393 . S
C1547 C1546 1.391 . S
H1548 C1556 0.950 . S
H1549 C1561 0.950 . S
H1550 C1558 0.950 . S
H1551 C1560 0.950 . S
H1552 C1562 0.950 . S
H1553 C1564 0.950 . S
H1554 C1566 0.950 . S
H1555 C1567 0.950 . S
C1556 H1548 0.950 . S
C1556 C1557 1.386 1_565 S
C1556 C1558 1.391 . S
C1557 C1556 1.386 1_545 S
C1557 C1561 1.393 . S
C1558 H1550 0.950 . S
C1558 C1556 1.391 . S
C1558 C1559 1.400 1_565 S
C1559 C1558 1.400 1_545 S
C1559 C1560 1.398 . S
C1559 C1565 1.491 . S
C1560 H1551 0.950 . S
C1560 C1559 1.398 . S
C1560 C1561 1.391 . S
C1561 H1549 0.950 . S
C1561 C1557 1.393 . S
C1561 C1560 1.391 . S
C1562 H1552 0.950 . S
C1562 C1563 1.386 . S
C1562 C1564 1.391 . S
C1563 C1562 1.386 . S
C1563 C1567 1.393 1_545 S
C1564 H1553 0.950 . S
C1564 C1562 1.391 . S
C1564 C1565 1.400 . S
C1565 C1559 1.491 . S
C1565 C1564 1.400 . S
C1565 C1566 1.398 1_545 S
C1566 H1554 0.950 . S
C1566 C1565 1.398 1_565 S
C1566 C1567 1.391 . S
C1567 H1555 0.950 . S
C1567 C1563 1.393 1_565 S
C1567 C1566 1.391 . S
H1568 C1576 0.950 . S
H1569 C1581 0.950 . S
H1570 C1578 0.950 . S
H1571 C1580 0.950 . S
H1572 C1582 0.950 . S
H1573 C1584 0.950 . S
H1574 C1586 0.950 . S
H1575 C1587 0.950 . S
C1576 H1568 0.950 . S
C1576 C1577 1.386 1_455 S
C1576 C1578 1.391 . S
C1577 C1576 1.386 1_655 S
C1577 C1581 1.393 . S
C1578 H1570 0.950 . S
C1578 C1576 1.391 . S
C1578 C1579 1.400 1_455 S
C1579 C1578 1.400 1_655 S
C1579 C1580 1.398 . S
C1579 C1585 1.491 . S
C1580 H1571 0.950 . S
C1580 C1579 1.398 . S
C1580 C1581 1.391 . S
C1581 H1569 0.950 . S
C1581 C1577 1.393 . S
C1581 C1580 1.391 . S
C1582 H1572 0.950 . S
C1582 C1583 1.386 . S
C1582 C1584 1.391 . S
C1583 C1582 1.386 . S
C1583 C1587 1.393 1_655 S
C1584 H1573 0.950 . S
C1584 C1582 1.391 . S
C1584 C1585 1.400 . S
C1585 C1579 1.491 . S
C1585 C1584 1.400 . S
C1585 C1586 1.398 1_655 S
C1586 H1574 0.950 . S
C1586 C1585 1.398 1_455 S
C1586 C1587 1.391 . S
C1587 H1575 0.950 . S
C1587 C1583 1.393 1_455 S
C1587 C1586 1.391 . S
H1588 C1596 0.950 . S
H1589 C1601 0.950 . S
H1590 C1598 0.950 . S
H1591 C1600 0.950 . S
H1592 C1602 0.950 . S
H1593 C1604 0.950 . S
H1594 C1606 0.950 . S
H1595 C1607 0.950 . S
C1596 H1588 0.950 . S
C1596 C1597 1.386 . S
C1596 C1598 1.391 . S
C1597 C1596 1.386 . S
C1597 C1601 1.393 . S
C1598 H1590 0.950 . S
C1598 C1596 1.391 . S
C1598 C1599 1.400 . S
C1599 C1598 1.400 . S
C1599 C1600 1.398 . S
C1599 C1605 1.491 . S
C1600 H1591 0.950 . S
C1600 C1599 1.398 . S
C1600 C1601 1.391 . S
C1601 H1589 0.950 . S
C1601 C1597 1.393 . S
C1601 C1600 1.391 . S
C1602 H1592 0.950 . S
C1602 C1603 1.386 . S
C1602 C1604 1.391 . S
C1603 C1602 1.386 . S
C1603 C1607 1.393 . S
C1604 H1593 0.950 . S
C1604 C1602 1.391 . S
C1604 C1605 1.400 . S
C1605 C1599 1.491 . S
C1605 C1604 1.400 . S
C1605 C1606 1.398 . S
C1606 H1594 0.950 . S
C1606 C1605 1.398 . S
C1606 C1607 1.391 . S
C1607 H1595 0.950 . S
C1607 C1603 1.393 . S
C1607 C1606 1.391 . S
H1608 C1616 0.950 . S
H1609 C1621 0.950 . S
H1610 C1618 0.950 . S
H1611 C1620 0.950 . S
H1612 C1622 0.950 . S
H1613 C1624 0.950 . S
H1614 C1626 0.950 . S
H1615 C1627 0.950 . S
C1616 H1608 0.950 . S
C1616 C1617 1.386 . S
C1616 C1618 1.391 . S
C1617 C1616 1.386 . S
C1617 C1621 1.393 . S
C1618 H1610 0.950 . S
C1618 C1616 1.391 . S
C1618 C1619 1.400 . S
C1619 C1618 1.400 . S
C1619 C1620 1.398 . S
C1619 C1625 1.491 . S
C1620 H1611 0.950 . S
C1620 C1619 1.398 . S
C1620 C1621 1.391 . S
C1621 H1609 0.950 . S
C1621 C1617 1.393 . S
C1621 C1620 1.391 . S
C1622 H1612 0.950 . S
C1622 C1623 1.386 . S
C1622 C1624 1.391 . S
C1623 C1622 1.386 . S
C1623 C1627 1.393 . S
C1624 H1613 0.950 . S
C1624 C1622 1.391 . S
C1624 C1625 1.400 . S
C1625 C1619 1.491 . S
C1625 C1624 1.400 . S
C1625 C1626 1.398 . S
C1626 H1614 0.950 . S
C1626 C1625 1.398 . S
C1626 C1627 1.391 . S
C1627 H1615 0.950 . S
C1627 C1623 1.393 . S
C1627 C1626 1.391 . S
H1628 C1636 0.950 . S
H1629 C1641 0.950 . S
H1630 C1638 0.950 . S
H1631 C1640 0.950 . S
H1632 C1642 0.950 . S
H1633 C1644 0.950 . S
H1634 C1646 0.950 . S
H1635 C1647 0.950 . S
C1636 H1628 0.950 . S
C1636 C1637 1.386 . S
C1636 C1638 1.391 . S
C1637 C1636 1.386 . S
C1637 C1641 1.393 . S
C1638 H1630 0.950 . S
C1638 C1636 1.391 . S
C1638 C1639 1.400 . S
C1639 C1638 1.400 . S
C1639 C1640 1.398 . S
C1639 C1645 1.491 . S
C1640 H1631 0.950 . S
C1640 C1639 1.398 . S
C1640 C1641 1.391 . S
C1641 H1629 0.950 . S
C1641 C1637 1.393 . S
C1641 C1640 1.391 . S
C1642 H1632 0.950 . S
C1642 C1643 1.386 . S
C1642 C1644 1.391 . S
C1643 C1642 1.386 . S
C1643 C1647 1.393 . S
C1644 H1633 0.950 . S
C1644 C1642 1.391 . S
C1644 C1645 1.400 . S
C1645 C1639 1.491 . S
C1645 C1644 1.400 . S
C1645 C1646 1.398 . S
C1646 H1634 0.950 . S
C1646 C1645 1.398 . S
C1646 C1647 1.391 . S
C1647 H1635 0.950 . S
C1647 C1643 1.393 . S
C1647 C1646 1.391 . S
H1648 C1656 0.950 . S
H1649 C1661 0.950 . S
H1650 C1658 0.950 . S
H1651 C1660 0.950 . S
H1652 C1662 0.950 . S
H1653 C1664 0.950 . S
H1654 C1666 0.950 . S
H1655 C1667 0.950 . S
C1656 H1648 0.950 . S
C1656 C1657 1.386 . S
C1656 C1658 1.391 . S
C1657 C1656 1.386 . S
C1657 C1661 1.393 . S
C1658 H1650 0.950 . S
C1658 C1656 1.391 . S
C1658 C1659 1.400 . S
C1659 C1658 1.400 . S
C1659 C1660 1.398 . S
C1659 C1665 1.491 . S
C1660 H1651 0.950 . S
C1660 C1659 1.398 . S
C1660 C1661 1.391 . S
C1661 H1649 0.950 . S
C1661 C1657 1.393 . S
C1661 C1660 1.391 . S
C1662 H1652 0.950 . S
C1662 C1663 1.386 . S
C1662 C1664 1.391 . S
C1663 C1662 1.386 . S
C1663 C1667 1.393 . S
C1664 H1653 0.950 . S
C1664 C1662 1.391 . S
C1664 C1665 1.400 . S
C1665 C1659 1.491 . S
C1665 C1664 1.400 . S
C1665 C1666 1.398 . S
C1666 H1654 0.950 . S
C1666 C1665 1.398 . S
C1666 C1667 1.391 . S
C1667 H1655 0.950 . S
C1667 C1663 1.393 . S
C1667 C1666 1.391 . S
H1668 C1676 0.950 . S
H1669 C1681 0.950 . S
H1670 C1678 0.950 . S
H1671 C1680 0.950 . S
H1672 C1682 0.950 . S
H1673 C1684 0.950 . S
H1674 C1686 0.950 . S
H1675 C1687 0.950 . S
C1676 H1668 0.950 . S
C1676 C1677 1.386 . S
C1676 C1678 1.391 . S
C1677 C1676 1.386 . S
C1677 C1681 1.393 . S
C1678 H1670 0.950 . S
C1678 C1676 1.391 . S
C1678 C1679 1.400 . S
C1679 C1678 1.400 . S
C1679 C1680 1.398 . S
C1679 C1685 1.491 . S
C1680 H1671 0.950 . S
C1680 C1679 1.398 . S
C1680 C1681 1.391 . S
C1681 H1669 0.950 . S
C1681 C1677 1.393 . S
C1681 C1680 1.391 . S
C1682 H1672 0.950 . S
C1682 C1683 1.386 . S
C1682 C1684 1.391 . S
C1683 C1682 1.386 . S
C1683 C1687 1.393 . S
C1684 H1673 0.950 . S
C1684 C1682 1.391 . S
C1684 C1685 1.400 . S
C1685 C1679 1.491 . S
C1685 C1684 1.400 . S
C1685 C1686 1.398 . S
C1686 H1674 0.950 . S
C1686 C1685 1.398 . S
C1686 C1687 1.391 . S
C1687 H1675 0.950 . S
C1687 C1683 1.393 . S
C1687 C1686 1.391 . S
H1688 C1696 0.950 . S
H1689 C1701 0.950 . S
H1690 C1698 0.950 . S
H1691 C1700 0.950 . S
H1692 C1702 0.950 . S
H1693 C1704 0.950 . S
H1694 C1706 0.950 . S
H1695 C1707 0.950 . S
C1696 H1688 0.950 . S
C1696 C1697 1.386 . S
C1696 C1698 1.391 . S
C1697 C1696 1.386 . S
C1697 C1701 1.393 . S
C1698 H1690 0.950 . S
C1698 C1696 1.391 . S
C1698 C1699 1.400 . S
C1699 C1698 1.400 . S
C1699 C1700 1.398 . S
C1699 C1705 1.491 . S
C1700 H1691 0.950 . S
C1700 C1699 1.398 . S
C1700 C1701 1.391 . S
C1701 H1689 0.950 . S
C1701 C1697 1.393 . S
C1701 C1700 1.391 . S
C1702 H1692 0.950 . S
C1702 C1703 1.386 . S
C1702 C1704 1.391 . S
C1703 C1702 1.386 . S
C1703 C1707 1.393 . S
C1704 H1693 0.950 . S
C1704 C1702 1.391 . S
C1704 C1705 1.400 . S
C1705 C1699 1.491 . S
C1705 C1704 1.400 . S
C1705 C1706 1.398 . S
C1706 H1694 0.950 . S
C1706 C1705 1.398 . S
C1706 C1707 1.391 . S
C1707 H1695 0.950 . S
C1707 C1703 1.393 . S
C1707 C1706 1.391 . S
H1708 C1716 0.950 . S
H1709 C1721 0.950 . S
H1710 C1718 0.950 . S
H1711 C1720 0.950 . S
H1712 C1722 0.950 . S
H1713 C1724 0.950 . S
H1714 C1726 0.950 . S
H1715 C1727 0.950 . S
C1716 H1708 0.950 . S
C1716 C1717 1.386 . S
C1716 C1718 1.391 . S
C1717 C1716 1.386 . S
C1717 C1721 1.393 . S
C1718 H1710 0.950 . S
C1718 C1716 1.391 . S
C1718 C1719 1.400 . S
C1719 C1718 1.400 . S
C1719 C1720 1.398 . S
C1719 C1725 1.491 . S
C1720 H1711 0.950 . S
C1720 C1719 1.398 . S
C1720 C1721 1.391 . S
C1721 H1709 0.950 . S
C1721 C1717 1.393 . S
C1721 C1720 1.391 . S
C1722 H1712 0.950 . S
C1722 C1723 1.386 . S
C1722 C1724 1.391 . S
C1723 C1722 1.386 . S
C1723 C1727 1.393 . S
C1724 H1713 0.950 . S
C1724 C1722 1.391 . S
C1724 C1725 1.400 . S
C1725 C1719 1.491 . S
C1725 C1724 1.400 . S
C1725 C1726 1.398 . S
C1726 H1714 0.950 . S
C1726 C1725 1.398 . S
C1726 C1727 1.391 . S
C1727 H1715 0.950 . S
C1727 C1723 1.393 . S
C1727 C1726 1.391 . S
H1728 C1736 0.950 . S
H1729 C1741 0.950 . S
H1730 C1738 0.950 . S
H1731 C1740 0.950 . S
H1732 C1742 0.950 . S
H1733 C1744 0.950 . S
H1734 C1746 0.950 . S
H1735 C1747 0.950 . S
C1736 H1728 0.950 . S
C1736 C1737 1.386 . S
C1736 C1738 1.391 . S
C1737 C1736 1.386 . S
C1737 C1741 1.393 . S
C1738 H1730 0.950 . S
C1738 C1736 1.391 . S
C1738 C1739 1.400 . S
C1739 C1738 1.400 . S
C1739 C1740 1.398 . S
C1739 C1745 1.491 . S
C1740 H1731 0.950 . S
C1740 C1739 1.398 . S
C1740 C1741 1.391 . S
C1741 H1729 0.950 . S
C1741 C1737 1.393 . S
C1741 C1740 1.391 . S
C1742 H1732 0.950 . S
C1742 C1743 1.386 . S
C1742 C1744 1.391 . S
C1743 C1742 1.386 . S
C1743 C1747 1.393 . S
C1744 H1733 0.950 . S
C1744 C1742 1.391 . S
C1744 C1745 1.400 . S
C1745 C1739 1.491 . S
C1745 C1744 1.400 . S
C1745 C1746 1.398 . S
C1746 H1734 0.950 . S
C1746 C1745 1.398 . S
C1746 C1747 1.391 . S
C1747 H1735 0.950 . S
C1747 C1743 1.393 . S
C1747 C1746 1.391 . S
H1748 C1756 0.950 . S
H1749 C1761 0.950 . S
H1750 C1758 0.950 . S
H1751 C1760 0.950 . S
H1752 C1762 0.950 . S
H1753 C1764 0.950 . S
H1754 C1766 0.950 . S
H1755 C1767 0.950 . S
C1756 H1748 0.950 . S
C1756 C1757 1.386 . S
C1756 C1758 1.391 . S
C1757 C1756 1.386 . S
C1757 C1761 1.393 . S
C1758 H1750 0.950 . S
C1758 C1756 1.391 . S
C1758 C1759 1.400 . S
C1759 C1758 1.400 . S
C1759 C1760 1.398 . S
C1759 C1765 1.491 . S
C1760 H1751 0.950 . S
C1760 C1759 1.398 . S
C1760 C1761 1.391 . S
C1761 H1749 0.950 . S
C1761 C1757 1.393 . S
C1761 C1760 1.391 . S
C1762 H1752 0.950 . S
C1762 C1763 1.386 . S
C1762 C1764 1.391 . S
C1763 C1762 1.386 . S
C1763 C1767 1.393 . S
C1764 H1753 0.950 . S
C1764 C1762 1.391 . S
C1764 C1765 1.400 . S
C1765 C1759 1.491 . S
C1765 C1764 1.400 . S
C1765 C1766 1.398 . S
C1766 H1754 0.950 . S
C1766 C1765 1.398 . S
C1766 C1767 1.391 . S
C1767 H1755 0.950 . S
C1767 C1763 1.393 . S
C1767 C1766 1.391 . S
H1768 C1776 0.950 . S
H1769 C1781 0.950 . S
H1770 C1778 0.950 . S
H1771 C1780 0.950 . S
H1772 C1782 0.950 . S
H1773 C1784 0.950 . S
H1774 C1786 0.950 . S
H1775 C1787 0.950 . S
C1776 H1768 0.950 . S
C1776 C1777 1.386 . S
C1776 C1778 1.391 . S
C1777 C1776 1.386 . S
C1777 C1781 1.393 . S
C1778 H1770 0.950 . S
C1778 C1776 1.391 . S
C1778 C1779 1.400 . S
C1779 C1778 1.400 . S
C1779 C1780 1.398 . S
C1779 C1785 1.491 . S
C1780 H1771 0.950 . S
C1780 C1779 1.398 . S
C1780 C1781 1.391 . S
C1781 H1769 0.950 . S
C1781 C1777 1.393 . S
C1781 C1780 1.391 . S
C1782 H1772 0.950 . S
C1782 C1783 1.386 . S
C1782 C1784 1.391 . S
C1783 C1782 1.386 . S
C1783 C1787 1.393 . S
C1784 H1773 0.950 . S
C1784 C1782 1.391 . S
C1784 C1785 1.400 . S
C1785 C1779 1.491 . S
C1785 C1784 1.400 . S
C1785 C1786 1.398 . S
C1786 H1774 0.950 . S
C1786 C1785 1.398 . S
C1786 C1787 1.391 . S
C1787 H1775 0.950 . S
C1787 C1783 1.393 . S
C1787 C1786 1.391 . S
H1788 C1796 0.950 . S
H1789 C1801 0.950 . S
H1790 C1798 0.950 . S
H1791 C1800 0.950 . S
H1792 C1802 0.950 . S
H1793 C1804 0.950 . S
H1794 C1806 0.950 . S
H1795 C1807 0.950 . S
C1796 H1788 0.950 . S
C1796 C1797 1.386 . S
C1796 C1798 1.391 . S
C1797 C1796 1.386 . S
C1797 C1801 1.393 . S
C1798 H1790 0.950 . S
C1798 C1796 1.391 . S
C1798 C1799 1.400 . S
C1799 C1798 1.400 . S
C1799 C1800 1.398 . S
C1799 C1805 1.491 . S
C1800 H1791 0.950 . S
C1800 C1799 1.398 . S
C1800 C1801 1.391 . S
C1801 H1789 0.950 . S
C1801 C1797 1.393 . S
C1801 C1800 1.391 . S
C1802 H1792 0.950 . S
C1802 C1803 1.386 . S
C1802 C1804 1.391 . S
C1803 C1802 1.386 . S
C1803 C1807 1.393 . S
C1804 H1793 0.950 . S
C1804 C1802 1.391 . S
C1804 C1805 1.400 . S
C1805 C1799 1.491 . S
C1805 C1804 1.400 . S
C1805 C1806 1.398 . S
C1806 H1794 0.950 . S
C1806 C1805 1.398 . S
C1806 C1807 1.391 . S
C1807 H1795 0.950 . S
C1807 C1803 1.393 . S
C1807 C1806 1.391 . S
H1808 C1816 0.950 . S
H1809 C1821 0.950 . S
H1810 C1818 0.950 . S
H1811 C1820 0.950 . S
H1812 C1822 0.950 . S
H1813 C1824 0.950 . S
H1814 C1826 0.950 . S
H1815 C1827 0.950 . S
C1816 H1808 0.950 . S
C1816 C1817 1.386 . S
C1816 C1818 1.391 . S
C1817 C1816 1.386 . S
C1817 C1821 1.393 . S
C1818 H1810 0.950 . S
C1818 C1816 1.391 . S
C1818 C1819 1.400 . S
C1819 C1818 1.400 . S
C1819 C1820 1.398 . S
C1819 C1825 1.491 . S
C1820 H1811 0.950 . S
C1820 C1819 1.398 . S
C1820 C1821 1.391 . S
C1821 H1809 0.950 . S
C1821 C1817 1.393 . S
C1821 C1820 1.391 . S
C1822 H1812 0.950 . S
C1822 C1823 1.386 . S
C1822 C1824 1.391 . S
C1823 C1822 1.386 . S
C1823 C1827 1.393 . S
C1824 H1813 0.950 . S
C1824 C1822 1.391 . S
C1824 C1825 1.400 . S
C1825 C1819 1.491 . S
C1825 C1824 1.400 . S
C1825 C1826 1.398 . S
C1826 H1814 0.950 . S
C1826 C1825 1.398 . S
C1826 C1827 1.391 . S
C1827 H1815 0.950 . S
C1827 C1823 1.393 . S
C1827 C1826 1.391 . S
H1828 C1836 0.950 . S
H1829 C1841 0.950 . S
H1830 C1838 0.950 . S
H1831 C1840 0.950 . S
H1832 C1842 0.950 . S
H1833 C1844 0.950 . S
H1834 C1846 0.950 . S
H1835 C1847 0.950 . S
C1836 H1828 0.950 . S
C1836 C1837 1.386 . S
C1836 C1838 1.391 . S
C1837 C1836 1.386 . S
C1837 C1841 1.393 . S
C1838 H1830 0.950 . S
C1838 C1836 1.391 . S
C1838 C1839 1.400 . S
C1839 C1838 1.400 . S
C1839 C1840 1.398 . S
C1839 C1845 1.491 . S
C1840 H1831 0.950 . S
C1840 C1839 1.398 . S
C1840 C1841 1.391 . S
C1841 H1829 0.950 . S
C1841 C1837 1.393 . S
C1841 C1840 1.391 . S
C1842 H1832 0.950 . S
C1842 C1843 1.386 . S
C1842 C1844 1.391 . S
C1843 C1842 1.386 . S
C1843 C1847 1.393 . S
C1844 H1833 0.950 . S
C1844 C1842 1.391 . S
C1844 C1845 1.400 . S
C1845 C1839 1.491 . S
C1845 C1844 1.400 . S
C1845 C1846 1.398 . S
C1846 H1834 0.950 . S
C1846 C1845 1.398 . S
C1846 C1847 1.391 . S
C1847 H1835 0.950 . S
C1847 C1843 1.393 . S
C1847 C1846 1.391 . S
H1848 C1856 0.950 . S
H1849 C1861 0.950 . S
H1850 C1858 0.950 . S
H1851 C1860 0.950 . S
H1852 C1862 0.950 . S
H1853 C1864 0.950 . S
H1854 C1866 0.950 . S
H1855 C1867 0.950 . S
C1856 H1848 0.950 . S
C1856 C1857 1.386 . S
C1856 C1858 1.391 . S
C1857 C1856 1.386 . S
C1857 C1861 1.393 . S
C1858 H1850 0.950 . S
C1858 C1856 1.391 . S
C1858 C1859 1.400 . S
C1859 C1858 1.400 . S
C1859 C1860 1.398 . S
C1859 C1865 1.491 . S
C1860 H1851 0.950 . S
C1860 C1859 1.398 . S
C1860 C1861 1.391 . S
C1861 H1849 0.950 . S
C1861 C1857 1.393 . S
C1861 C1860 1.391 . S
C1862 H1852 0.950 . S
C1862 C1863 1.386 . S
C1862 C1864 1.391 . S
C1863 C1862 1.386 . S
C1863 C1867 1.393 . S
C1864 H1853 0.950 . S
C1864 C1862 1.391 . S
C1864 C1865 1.400 . S
C1865 C1859 1.491 . S
C1865 C1864 1.400 . S
C1865 C1866 1.398 . S
C1866 H1854 0.950 . S
C1866 C1865 1.398 . S
C1866 C1867 1.391 . S
C1867 H1855 0.950 . S
C1867 C1863 1.393 . S
C1867 C1866 1.391 . S
H1868 C1876 0.950 . S
H1869 C1881 0.950 . S
H1870 C1878 0.950 . S
H1871 C1880 0.950 . S
H1872 C1882 0.950 . S
H1873 C1884 0.950 . S
H1874 C1886 0.950 . S
H1875 C1887 0.950 . S
C1876 H1868 0.950 . S
C1876 C1877 1.386 . S
C1876 C1878 1.391 . S
C1877 C1876 1.386 . S
C1877 C1881 1.393 . S
C1878 H1870 0.950 . S
C1878 C1876 1.391 . S
C1878 C1879 1.400 . S
C1879 C1878 1.400 . S
C1879 C1880 1.398 . S
C1879 C1885 1.491 . S
C1880 H1871 0.950 . S
C1880 C1879 1.398 . S
C1880 C1881 1.391 . S
C1881 H1869 0.950 . S
C1881 C1877 1.393 . S
C1881 C1880 1.391 . S
C1882 H1872 0.950 . S
C1882 C1883 1.386 . S
C1882 C1884 1.391 . S
C1883 C1882 1.386 . S
C1883 C1887 1.393 . S
C1884 H1873 0.950 . S
C1884 C1882 1.391 . S
C1884 C1885 1.400 . S
C1885 C1879 1.491 . S
C1885 C1884 1.400 . S
C1885 C1886 1.398 . S
C1886 H1874 0.950 . S
C1886 C1885 1.398 . S
C1886 C1887 1.391 . S
C1887 H1875 0.950 . S
C1887 C1883 1.393 . S
C1887 C1886 1.391 . S
H1888 C1896 0.950 . S
H1889 C1901 0.950 . S
H1890 C1898 0.950 . S
H1891 C1900 0.950 . S
H1892 C1902 0.950 . S
H1893 C1904 0.950 . S
H1894 C1906 0.950 . S
H1895 C1907 0.950 . S
C1896 H1888 0.950 . S
C1896 C1897 1.386 . S
C1896 C1898 1.391 . S
C1897 C1896 1.386 . S
C1897 C1901 1.393 . S
C1898 H1890 0.950 . S
C1898 C1896 1.391 . S
C1898 C1899 1.400 . S
C1899 C1898 1.400 . S
C1899 C1900 1.398 . S
C1899 C1905 1.491 . S
C1900 H1891 0.950 . S
C1900 C1899 1.398 . S
C1900 C1901 1.391 . S
C1901 H1889 0.950 . S
C1901 C1897 1.393 . S
C1901 C1900 1.391 . S
C1902 H1892 0.950 . S
C1902 C1903 1.386 . S
C1902 C1904 1.391 . S
C1903 C1902 1.386 . S
C1903 C1907 1.393 . S
C1904 H1893 0.950 . S
C1904 C1902 1.391 . S
C1904 C1905 1.400 . S
C1905 C1899 1.491 . S
C1905 C1904 1.400 . S
C1905 C1906 1.398 . S
C1906 H1894 0.950 . S
C1906 C1905 1.398 . S
C1906 C1907 1.391 . S
C1907 H1895 0.950 . S
C1907 C1903 1.393 . S
C1907 C1906 1.391 . S
H1908 C1916 0.950 . S
H1909 C1921 0.950 . S
H1910 C1918 0.950 . S
H1911 C1920 0.950 . S
H1912 C1922 0.950 . S
H1913 C1924 0.950 . S
H1914 C1926 0.950 . S
H1915 C1927 0.950 . S
C1916 H1908 0.950 . S
C1916 C1917 1.386 . S
C1916 C1918 1.391 . S
C1917 C1916 1.386 . S
C1917 C1921 1.393 . S
C1918 H1910 0.950 . S
C1918 C1916 1.391 . S
C1918 C1919 1.400 . S
C1919 C1918 1.400 . S
C1919 C1920 1.398 . S
C1919 C1925 1.491 . S
C1920 H1911 0.950 . S
C1920 C1919 1.398 . S
C1920 C1921 1.391 . S
C1921 H1909 0.950 . S
C1921 C1917 1.393 . S
C1921 C1920 1.391 . S
C1922 H1912 0.950 . S
C1922 C1923 1.386 . S
C1922 C1924 1.391 . S
C1923 C1922 1.386 . S
C1923 C1927 1.393 . S
C1924 H1913 0.950 . S
C1924 C1922 1.391 . S
C1924 C1925 1.400 . S
C1925 C1919 1.491 . S
C1925 C1924 1.400 . S
C1925 C1926 1.398 . S
C1926 H1914 0.950 . S
C1926 C1925 1.398 . S
C1926 C1927 1.391 . S
C1927 H1915 0.950 . S
C1927 C1923 1.393 . S
C1927 C1926 1.391 . S
H1928 C1936 0.950 . S
H1929 C1941 0.950 . S
H1930 C1938 0.950 . S
H1931 C1940 0.950 . S
H1932 C1942 0.950 . S
H1933 C1944 0.950 . S
H1934 C1946 0.950 . S
H1935 C1947 0.950 . S
C1936 H1928 0.950 . S
C1936 C1937 1.386 . S
C1936 C1938 1.391 . S
C1937 C1936 1.386 . S
C1937 C1941 1.393 . S
C1938 H1930 0.950 . S
C1938 C1936 1.391 . S
C1938 C1939 1.400 . S
C1939 C1938 1.400 . S
C1939 C1940 1.398 . S
C1939 C1945 1.491 . S
C1940 H1931 0.950 . S
C1940 C1939 1.398 . S
C1940 C1941 1.391 . S
C1941 H1929 0.950 . S
C1941 C1937 1.393 . S
C1941 C1940 1.391 . S
C1942 H1932 0.950 . S
C1942 C1943 1.386 . S
C1942 C1944 1.391 . S
C1943 C1942 1.386 . S
C1943 C1947 1.393 . S
C1944 H1933 0.950 . S
C1944 C1942 1.391 . S
C1944 C1945 1.400 . S
C1945 C1939 1.491 . S
C1945 C1944 1.400 . S
C1945 C1946 1.398 . S
C1946 H1934 0.950 . S
C1946 C1945 1.398 . S
C1946 C1947 1.391 . S
C1947 H1935 0.950 . S
C1947 C1943 1.393 . S
C1947 C1946 1.391 . S
H1948 C1956 0.950 . S
H1949 C1961 0.950 . S
H1950 C1958 0.950 . S
H1951 C1960 0.950 . S
H1952 C1962 0.950 . S
H1953 C1964 0.950 . S
H1954 C1966 0.950 . S
H1955 C1967 0.950 . S
C1956 H1948 0.950 . S
C1956 C1957 1.386 . S
C1956 C1958 1.391 . S
C1957 C1956 1.386 . S
C1957 C1961 1.393 . S
C1958 H1950 0.950 . S
C1958 C1956 1.391 . S
C1958 C1959 1.400 . S
C1959 C1958 1.400 . S
C1959 C1960 1.398 . S
C1959 C1965 1.491 . S
C1960 H1951 0.950 . S
C1960 C1959 1.398 . S
C1960 C1961 1.391 . S
C1961 H1949 0.950 . S
C1961 C1957 1.393 . S
C1961 C1960 1.391 . S
C1962 H1952 0.950 . S
C1962 C1963 1.386 . S
C1962 C1964 1.391 . S
C1963 C1962 1.386 . S
C1963 C1967 1.393 . S
C1964 H1953 0.950 . S
C1964 C1962 1.391 . S
C1964 C1965 1.400 . S
C1965 C1959 1.491 . S
C1965 C1964 1.400 . S
C1965 C1966 1.398 . S
C1966 H1954 0.950 . S
C1966 C1965 1.398 . S
C1966 C1967 1.391 . S
C1967 H1955 0.950 . S
C1967 C1963 1.393 . S
C1967 C1966 1.391 . S
H1968 C1976 0.950 . S
H1969 C1981 0.950 . S
H1970 C1978 0.950 . S
H1971 C1980 0.950 . S
H1972 C1982 0.950 . S
H1973 C1984 0.950 . S
H1974 C1986 0.950 . S
H1975 C1987 0.950 . S
C1976 H1968 0.950 . S
C1976 C1977 1.386 . S
C1976 C1978 1.391 . S
C1977 C1976 1.386 . S
C1977 C1981 1.393 . S
C1978 H1970 0.950 . S
C1978 C1976 1.391 . S
C1978 C1979 1.400 . S
C1979 C1978 1.400 . S
C1979 C1980 1.398 . S
C1979 C1985 1.491 . S
C1980 H1971 0.950 . S
C1980 C1979 1.398 . S
C1980 C1981 1.391 . S
C1981 H1969 0.950 . S
C1981 C1977 1.393 . S
C1981 C1980 1.391 . S
C1982 H1972 0.950 . S
C1982 C1983 1.386 . S
C1982 C1984 1.391 . S
C1983 C1982 1.386 . S
C1983 C1987 1.393 . S
C1984 H1973 0.950 . S
C1984 C1982 1.391 . S
C1984 C1985 1.400 . S
C1985 C1979 1.491 . S
C1985 C1984 1.400 . S
C1985 C1986 1.398 . S
C1986 H1974 0.950 . S
C1986 C1985 1.398 . S
C1986 C1987 1.391 . S
C1987 H1975 0.950 . S
C1987 C1983 1.393 . S
C1987 C1986 1.391 . S
H1988 C1996 0.950 . S
H1989 C2001 0.950 . S
H1990 C1998 0.950 . S
H1991 C2000 0.950 . S
H1992 C2002 0.950 . S
H1993 C2004 0.950 . S
H1994 C2006 0.950 . S
H1995 C2007 0.950 . S
C1996 H1988 0.950 . S
C1996 C1997 1.386 . S
C1996 C1998 1.391 . S
C1997 C1996 1.386 . S
C1997 C2001 1.393 . S
C1998 H1990 0.950 . S
C1998 C1996 1.391 . S
C1998 C1999 1.400 . S
C1999 C1998 1.400 . S
C1999 C2000 1.398 . S
C1999 C2005 1.491 . S
C2000 H1991 0.950 . S
C2000 C1999 1.398 . S
C2000 C2001 1.391 . S
C2001 H1989 0.950 . S
C2001 C1997 1.393 . S
C2001 C2000 1.391 . S
C2002 H1992 0.950 . S
C2002 C2003 1.386 . S
C2002 C2004 1.391 . S
C2003 C2002 1.386 . S
C2003 C2007 1.393 . S
C2004 H1993 0.950 . S
C2004 C2002 1.391 . S
C2004 C2005 1.400 . S
C2005 C1999 1.491 . S
C2005 C2004 1.400 . S
C2005 C2006 1.398 . S
C2006 H1994 0.950 . S
C2006 C2005 1.398 . S
C2006 C2007 1.391 . S
C2007 H1995 0.950 . S
C2007 C2003 1.393 . S
C2007 C2006 1.391 . S
H2008 C2016 0.950 . S
H2009 C2021 0.950 . S
H2010 C2018 0.950 . S
H2011 C2020 0.950 . S
H2012 C2022 0.950 . S
H2013 C2024 0.950 . S
H2014 C2026 0.950 . S
H2015 C2027 0.950 . S
C2016 H2008 0.950 . S
C2016 C2017 1.386 . S
C2016 C2018 1.391 . S
C2017 C2016 1.386 . S
C2017 C2021 1.393 . S
C2018 H2010 0.950 . S
C2018 C2016 1.391 . S
C2018 C2019 1.400 . S
C2019 C2018 1.400 . S
C2019 C2020 1.398 . S
C2019 C2025 1.491 . S
C2020 H2011 0.950 . S
C2020 C2019 1.398 . S
C2020 C2021 1.391 . S
C2021 H2009 0.950 . S
C2021 C2017 1.393 . S
C2021 C2020 1.391 . S
C2022 H2012 0.950 . S
C2022 C2023 1.386 . S
C2022 C2024 1.391 . S
C2023 C2022 1.386 . S
C2023 C2027 1.393 . S
C2024 H2013 0.950 . S
C2024 C2022 1.391 . S
C2024 C2025 1.400 . S
C2025 C2019 1.491 . S
C2025 C2024 1.400 . S
C2025 C2026 1.398 . S
C2026 H2014 0.950 . S
C2026 C2025 1.398 . S
C2026 C2027 1.391 . S
C2027 H2015 0.950 . S
C2027 C2023 1.393 . S
C2027 C2026 1.391 . S
H2028 C2036 0.950 . S
H2029 C2041 0.950 . S
H2030 C2038 0.950 . S
H2031 C2040 0.950 . S
H2032 C2042 0.950 . S
H2033 C2044 0.950 . S
H2034 C2046 0.950 . S
H2035 C2047 0.950 . S
C2036 H2028 0.950 . S
C2036 C2037 1.386 . S
C2036 C2038 1.391 . S
C2037 C2036 1.386 . S
C2037 C2041 1.393 . S
C2038 H2030 0.950 . S
C2038 C2036 1.391 . S
C2038 C2039 1.400 . S
C2039 C2038 1.400 . S
C2039 C2040 1.398 . S
C2039 C2045 1.491 . S
C2040 H2031 0.950 . S
C2040 C2039 1.398 . S
C2040 C2041 1.391 . S
C2041 H2029 0.950 . S
C2041 C2037 1.393 . S
C2041 C2040 1.391 . S
C2042 H2032 0.950 . S
C2042 C2043 1.386 . S
C2042 C2044 1.391 . S
C2043 C2042 1.386 . S
C2043 C2047 1.393 . S
C2044 H2033 0.950 . S
C2044 C2042 1.391 . S
C2044 C2045 1.400 . S
C2045 C2039 1.491 . S
C2045 C2044 1.400 . S
C2045 C2046 1.398 . S
C2046 H2034 0.950 . S
C2046 C2045 1.398 . S
C2046 C2047 1.391 . S
C2047 H2035 0.950 . S
C2047 C2043 1.393 . S
C2047 C2046 1.391 . S
H2048 C2056 0.950 . S
H2049 C2061 0.950 . S
H2050 C2058 0.950 . S
H2051 C2060 0.950 . S
H2052 C2062 0.950 . S
H2053 C2064 0.950 . S
H2054 C2066 0.950 . S
H2055 C2067 0.950 . S
C2056 H2048 0.950 . S
C2056 C2057 1.386 . S
C2056 C2058 1.391 . S
C2057 C2056 1.386 . S
C2057 C2061 1.393 . S
C2058 H2050 0.950 . S
C2058 C2056 1.391 . S
C2058 C2059 1.400 . S
C2059 C2058 1.400 . S
C2059 C2060 1.398 . S
C2059 C2065 1.491 . S
C2060 H2051 0.950 . S
C2060 C2059 1.398 . S
C2060 C2061 1.391 . S
C2061 H2049 0.950 . S
C2061 C2057 1.393 . S
C2061 C2060 1.391 . S
C2062 H2052 0.950 . S
C2062 C2063 1.386 . S
C2062 C2064 1.391 . S
C2063 C2062 1.386 . S
C2063 C2067 1.393 . S
C2064 H2053 0.950 . S
C2064 C2062 1.391 . S
C2064 C2065 1.400 . S
C2065 C2059 1.491 . S
C2065 C2064 1.400 . S
C2065 C2066 1.398 . S
C2066 H2054 0.950 . S
C2066 C2065 1.398 . S
C2066 C2067 1.391 . S
C2067 H2055 0.950 . S
C2067 C2063 1.393 . S
C2067 C2066 1.391 . S
H2068 C2076 0.950 . S
H2069 C2081 0.950 . S
H2070 C2078 0.950 . S
H2071 C2080 0.950 . S
H2072 C2082 0.950 . S
H2073 C2084 0.950 . S
H2074 C2086 0.950 . S
H2075 C2087 0.950 . S
C2076 H2068 0.950 . S
C2076 C2077 1.386 . S
C2076 C2078 1.391 . S
C2077 C2076 1.386 . S
C2077 C2081 1.393 . S
C2078 H2070 0.950 . S
C2078 C2076 1.391 . S
C2078 C2079 1.400 . S
C2079 C2078 1.400 . S
C2079 C2080 1.398 . S
C2079 C2085 1.491 . S
C2080 H2071 0.950 . S
C2080 C2079 1.398 . S
C2080 C2081 1.391 . S
C2081 H2069 0.950 . S
C2081 C2077 1.393 . S
C2081 C2080 1.391 . S
C2082 H2072 0.950 . S
C2082 C2083 1.386 . S
C2082 C2084 1.391 . S
C2083 C2082 1.386 . S
C2083 C2087 1.393 . S
C2084 H2073 0.950 . S
C2084 C2082 1.391 . S
C2084 C2085 1.400 . S
C2085 C2079 1.491 . S
C2085 C2084 1.400 . S
C2085 C2086 1.398 . S
C2086 H2074 0.950 . S
C2086 C2085 1.398 . S
C2086 C2087 1.391 . S
C2087 H2075 0.950 . S
C2087 C2083 1.393 . S
C2087 C2086 1.391 . S
H2088 C2096 0.950 . S
H2089 C2101 0.950 . S
H2090 C2098 0.950 . S
H2091 C2100 0.950 . S
H2092 C2102 0.950 . S
H2093 C2104 0.950 . S
H2094 C2106 0.950 . S
H2095 C2107 0.950 . S
C2096 H2088 0.950 . S
C2096 C2097 1.386 . S
C2096 C2098 1.391 . S
C2097 C2096 1.386 . S
C2097 C2101 1.393 . S
C2098 H2090 0.950 . S
C2098 C2096 1.391 . S
C2098 C2099 1.400 . S
C2099 C2098 1.400 . S
C2099 C2100 1.398 . S
C2099 C2105 1.491 . S
C2100 H2091 0.950 . S
C2100 C2099 1.398 . S
C2100 C2101 1.391 . S
C2101 H2089 0.950 . S
C2101 C2097 1.393 . S
C2101 C2100 1.391 . S
C2102 H2092 0.950 . S
C2102 C2103 1.386 . S
C2102 C2104 1.391 . S
C2103 C2102 1.386 . S
C2103 C2107 1.393 . S
C2104 H2093 0.950 . S
C2104 C2102 1.391 . S
C2104 C2105 1.400 . S
C2105 C2099 1.491 . S
C2105 C2104 1.400 . S
C2105 C2106 1.398 . S
C2106 H2094 0.950 . S
C2106 C2105 1.398 . S
C2106 C2107 1.391 . S
C2107 H2095 0.950 . S
C2107 C2103 1.393 . S
C2107 C2106 1.391 . S
H2108 C2116 0.950 . S
H2109 C2121 0.950 . S
H2110 C2118 0.950 . S
H2111 C2120 0.950 . S
H2112 C2122 0.950 . S
H2113 C2124 0.950 . S
H2114 C2126 0.950 . S
H2115 C2127 0.950 . S
C2116 H2108 0.950 . S
C2116 C2117 1.386 . S
C2116 C2118 1.391 . S
C2117 C2116 1.386 . S
C2117 C2121 1.393 . S
C2118 H2110 0.950 . S
C2118 C2116 1.391 . S
C2118 C2119 1.400 . S
C2119 C2118 1.400 . S
C2119 C2120 1.398 . S
C2119 C2125 1.491 . S
C2120 H2111 0.950 . S
C2120 C2119 1.398 . S
C2120 C2121 1.391 . S
C2121 H2109 0.950 . S
C2121 C2117 1.393 . S
C2121 C2120 1.391 . S
C2122 H2112 0.950 . S
C2122 C2123 1.386 . S
C2122 C2124 1.391 . S
C2123 C2122 1.386 . S
C2123 C2127 1.393 . S
C2124 H2113 0.950 . S
C2124 C2122 1.391 . S
C2124 C2125 1.400 . S
C2125 C2119 1.491 . S
C2125 C2124 1.400 . S
C2125 C2126 1.398 . S
C2126 H2114 0.950 . S
C2126 C2125 1.398 . S
C2126 C2127 1.391 . S
C2127 H2115 0.950 . S
C2127 C2123 1.393 . S
C2127 C2126 1.391 . S
H2128 C2136 0.950 . S
H2129 C2141 0.950 . S
H2130 C2138 0.950 . S
H2131 C2140 0.950 . S
H2132 C2142 0.950 . S
H2133 C2144 0.950 . S
H2134 C2146 0.950 . S
H2135 C2147 0.950 . S
C2136 H2128 0.950 . S
C2136 C2137 1.386 . S
C2136 C2138 1.391 . S
C2137 C2136 1.386 . S
C2137 C2141 1.393 . S
C2138 H2130 0.950 . S
C2138 C2136 1.391 . S
C2138 C2139 1.400 . S
C2139 C2138 1.400 . S
C2139 C2140 1.398 . S
C2139 C2145 1.491 . S
C2140 H2131 0.950 . S
C2140 C2139 1.398 . S
C2140 C2141 1.391 . S
C2141 H2129 0.950 . S
C2141 C2137 1.393 . S
C2141 C2140 1.391 . S
C2142 H2132 0.950 . S
C2142 C2143 1.386 . S
C2142 C2144 1.391 . S
C2143 C2142 1.386 . S
C2143 C2147 1.393 . S
C2144 H2133 0.950 . S
C2144 C2142 1.391 . S
C2144 C2145 1.400 . S
C2145 C2139 1.491 . S
C2145 C2144 1.400 . S
C2145 C2146 1.398 . S
C2146 H2134 0.950 . S
C2146 C2145 1.398 . S
C2146 C2147 1.391 . S
C2147 H2135 0.950 . S
C2147 C2143 1.393 . S
C2147 C2146 1.391 . S
H2148 C2156 0.950 . S
H2149 C2161 0.950 . S
H2150 C2158 0.950 . S
H2151 C2160 0.950 . S
H2152 C2162 0.950 . S
H2153 C2164 0.950 1_554 S
H2154 C2166 0.950 . S
H2155 C2167 0.950 . S
C2156 H2148 0.950 . S
C2156 C2157 1.386 . S
C2156 C2158 1.391 . S
C2157 C2156 1.386 . S
C2157 C2161 1.393 1_556 S
C2158 H2150 0.950 . S
C2158 C2156 1.391 . S
C2158 C2159 1.400 . S
C2159 C2158 1.400 . S
C2159 C2160 1.398 1_556 S
C2159 C2165 1.491 . S
C2160 H2151 0.950 . S
C2160 C2159 1.398 1_554 S
C2160 C2161 1.391 . S
C2161 H2149 0.950 . S
C2161 C2157 1.393 1_554 S
C2161 C2160 1.391 . S
C2162 H2152 0.950 . S
C2162 C2163 1.386 . S
C2162 C2164 1.391 . S
C2163 C2162 1.386 . S
C2163 C2167 1.393 . S
C2164 H2153 0.950 1_556 S
C2164 C2162 1.391 . S
C2164 C2165 1.400 . S
C2165 C2159 1.491 . S
C2165 C2164 1.400 . S
C2165 C2166 1.398 . S
C2166 H2154 0.950 . S
C2166 C2165 1.398 . S
C2166 C2167 1.391 . S
C2167 H2155 0.950 . S
C2167 C2163 1.393 . S
C2167 C2166 1.391 . S
H2168 C2176 0.950 1_554 S
H2169 C2181 0.950 . S
H2170 C2178 0.950 . S
H2171 C2180 0.950 . S
H2172 C2182 0.950 . S
H2173 C2184 0.950 . S
H2174 C2186 0.950 . S
H2175 C2187 0.950 . S
C2176 H2168 0.950 1_556 S
C2176 C2177 1.386 . S
C2176 C2178 1.391 . S
C2177 C2176 1.386 . S
C2177 C2181 1.393 . S
C2178 H2170 0.950 . S
C2178 C2176 1.391 . S
C2178 C2179 1.400 . S
C2179 C2178 1.400 . S
C2179 C2180 1.398 . S
C2179 C2185 1.491 . S
C2180 H2171 0.950 . S
C2180 C2179 1.398 . S
C2180 C2181 1.391 . S
C2181 H2169 0.950 . S
C2181 C2177 1.393 . S
C2181 C2180 1.391 . S
C2182 H2172 0.950 . S
C2182 C2183 1.386 . S
C2182 C2184 1.391 . S
C2183 C2182 1.386 . S
C2183 C2187 1.393 . S
C2184 H2173 0.950 . S
C2184 C2182 1.391 . S
C2184 C2185 1.400 . S
C2185 C2179 1.491 . S
C2185 C2184 1.400 . S
C2185 C2186 1.398 . S
C2186 H2174 0.950 . S
C2186 C2185 1.398 . S
C2186 C2187 1.391 . S
C2187 H2175 0.950 . S
C2187 C2183 1.393 . S
C2187 C2186 1.391 . S
H2188 C2196 0.950 . S
H2189 C2201 0.937 1_554 S
H2190 C2198 0.950 . S
H2191 C2200 0.950 . S
H2192 C2202 0.950 . S
H2193 C2204 0.950 . S
H2194 C2206 0.950 . S
H2195 C2207 0.950 . S
C2196 H2188 0.950 . S
C2196 C2197 1.386 . S
C2196 C2198 1.391 . S
C2197 C2196 1.386 . S
C2197 C2201 1.395 . S
C2198 H2190 0.950 . S
C2198 C2196 1.391 . S
C2198 C2199 1.400 . S
C2199 C2198 1.400 . S
C2199 C2200 1.398 . S
C2199 C2205 1.491 . S
C2200 H2191 0.950 . S
C2200 C2199 1.398 . S
C2200 C2201 1.403 . S
C2201 H2189 0.937 1_556 S
C2201 C2197 1.395 . S
C2201 C2200 1.403 . S
C2202 H2192 0.950 . S
C2202 C2203 1.386 . S
C2202 C2204 1.391 . S
C2203 C2202 1.386 . S
C2203 C2207 1.393 . S
C2204 H2193 0.950 . S
C2204 C2202 1.391 . S
C2204 C2205 1.400 . S
C2205 C2199 1.491 . S
C2205 C2204 1.400 . S
C2205 C2206 1.398 . S
C2206 H2194 0.950 . S
C2206 C2205 1.398 . S
C2206 C2207 1.391 . S
C2207 H2195 0.950 . S
C2207 C2203 1.393 . S
C2207 C2206 1.391 . S
H2208 C2216 0.950 . S
H2209 C2221 0.950 . S
H2210 C2218 0.950 . S
H2211 C2220 0.950 . S
H2212 C2222 0.950 . S
H2213 C2224 0.950 . S
H2214 C2226 0.950 1_554 S
H2215 C2227 0.950 . S
C2216 H2208 0.950 . S
C2216 C2217 1.386 1_554 S
C2216 C2218 1.391 . S
C2217 C2216 1.386 1_556 S
C2217 C2221 1.393 . S
C2218 H2210 0.950 . S
C2218 C2216 1.391 . S
C2218 C2219 1.400 1_554 S
C2219 C2218 1.400 1_556 S
C2219 C2220 1.398 . S
C2219 C2225 1.491 . S
C2220 H2211 0.950 . S
C2220 C2219 1.398 . S
C2220 C2221 1.391 . S
C2221 H2209 0.950 . S
C2221 C2217 1.393 . S
C2221 C2220 1.391 . S
C2222 H2212 0.950 . S
C2222 C2223 1.386 . S
C2222 C2224 1.391 . S
C2223 C2222 1.386 . S
C2223 C2227 1.393 . S
C2224 H2213 0.950 . S
C2224 C2222 1.391 . S
C2224 C2225 1.400 . S
C2225 C2219 1.491 . S
C2225 C2224 1.400 . S
C2225 C2226 1.398 . S
C2226 H2214 0.950 1_556 S
C2226 C2225 1.398 . S
C2226 C2227 1.391 . S
C2227 H2215 0.950 . S
C2227 C2223 1.393 . S
C2227 C2226 1.391 . S
H2228 C2236 0.950 . S
H2229 C2241 0.950 . S
H2230 C2238 0.950 1_554 S
H2231 C2240 0.950 . S
H2232 C2242 0.950 . S
H2233 C2244 0.950 . S
H2234 C2246 0.950 . S
H2235 C2247 0.950 . S
C2236 H2228 0.950 . S
C2236 C2237 1.386 1_554 S
C2236 C2238 1.391 1_554 S
C2237 C2236 1.386 1_556 S
C2237 C2241 1.393 . S
C2238 H2230 0.950 1_556 S
C2238 C2236 1.391 1_556 S
C2238 C2239 1.400 . S
C2239 C2238 1.400 . S
C2239 C2240 1.398 . S
C2239 C2245 1.491 . S
C2240 H2231 0.950 . S
C2240 C2239 1.398 . S
C2240 C2241 1.391 . S
C2241 H2229 0.950 . S
C2241 C2237 1.393 . S
C2241 C2240 1.391 . S
C2242 H2232 0.950 . S
C2242 C2243 1.386 . S
C2242 C2244 1.391 . S
C2243 C2242 1.386 . S
C2243 C2247 1.393 . S
C2244 H2233 0.950 . S
C2244 C2242 1.391 . S
C2244 C2245 1.400 . S
C2245 C2239 1.491 . S
C2245 C2244 1.400 . S
C2245 C2246 1.398 . S
C2246 H2234 0.950 . S
C2246 C2245 1.398 . S
C2246 C2247 1.391 . S
C2247 H2235 0.950 . S
C2247 C2243 1.393 . S
C2247 C2246 1.391 . S
H2248 C2256 0.950 . S
H2249 C2261 0.951 . S
H2250 C2258 0.950 . S
H2251 C2260 0.950 . S
H2252 C2262 0.950 . S
H2253 C2264 0.950 . S
H2254 C2266 0.950 . S
H2255 C2267 0.950 . S
C2256 H2248 0.950 . S
C2256 C2257 1.376 1_556 S
C2256 C2258 1.391 . S
C2257 C2256 1.376 1_554 S
C2257 C2261 1.393 . S
C2258 H2250 0.950 . S
C2258 C2256 1.391 . S
C2258 C2259 1.400 . S
C2259 C2258 1.400 . S
C2259 C2260 1.398 . S
C2259 C2265 1.491 . S
C2260 H2251 0.950 . S
C2260 C2259 1.398 . S
C2260 C2261 1.390 1_556 S
C2261 H2249 0.951 . S
C2261 C2257 1.393 . S
C2261 C2260 1.390 1_554 S
C2262 H2252 0.950 . S
C2262 C2263 1.386 . S
C2262 C2264 1.391 . S
C2263 C2262 1.386 . S
C2263 C2267 1.393 . S
C2264 H2253 0.950 . S
C2264 C2262 1.391 . S
C2264 C2265 1.400 . S
C2265 C2259 1.491 . S
C2265 C2264 1.400 . S
C2265 C2266 1.398 . S
C2266 H2254 0.950 . S
C2266 C2265 1.398 . S
C2266 C2267 1.391 . S
C2267 H2255 0.950 . S
C2267 C2263 1.393 . S
C2267 C2266 1.391 . S
H2268 C2276 0.950 . S
H2269 C2281 0.950 . S
H2270 C2278 0.950 . S
H2271 C2280 0.950 . S
H2272 C2282 0.950 . S
H2273 C2284 0.950 . S
H2274 C2286 0.950 . S
H2275 C2287 0.950 . S
C2276 H2268 0.950 . S
C2276 C2277 1.386 . S
C2276 C2278 1.391 . S
C2277 C2276 1.386 . S
C2277 C2281 1.393 . S
C2278 H2270 0.950 . S
C2278 C2276 1.391 . S
C2278 C2279 1.400 . S
C2279 C2278 1.400 . S
C2279 C2280 1.398 . S
C2279 C2285 1.491 . S
C2280 H2271 0.950 . S
C2280 C2279 1.398 . S
C2280 C2281 1.391 . S
C2281 H2269 0.950 . S
C2281 C2277 1.393 . S
C2281 C2280 1.391 . S
C2282 H2272 0.950 . S
C2282 C2283 1.386 . S
C2282 C2284 1.391 . S
C2283 C2282 1.386 . S
C2283 C2287 1.393 . S
C2284 H2273 0.950 . S
C2284 C2282 1.391 . S
C2284 C2285 1.400 . S
C2285 C2279 1.491 . S
C2285 C2284 1.400 . S
C2285 C2286 1.398 . S
C2286 H2274 0.950 . S
C2286 C2285 1.398 . S
C2286 C2287 1.391 . S
C2287 H2275 0.950 . S
C2287 C2283 1.393 . S
C2287 C2286 1.391 . S
H2288 C2296 0.950 . S
H2289 C2301 0.950 . S
H2290 C2298 0.950 . S
H2291 C2300 0.950 . S
H2292 C2302 0.950 . S
H2293 C2304 0.950 . S
H2294 C2306 0.950 . S
H2295 C2307 0.950 . S
C2296 H2288 0.950 . S
C2296 C2297 1.386 . S
C2296 C2298 1.391 . S
C2297 C2296 1.386 . S
C2297 C2301 1.393 . S
C2298 H2290 0.950 . S
C2298 C2296 1.391 . S
C2298 C2299 1.400 . S
C2299 C2298 1.400 . S
C2299 C2300 1.398 . S
C2299 C2305 1.491 . S
C2300 H2291 0.950 . S
C2300 C2299 1.398 . S
C2300 C2301 1.391 . S
C2301 H2289 0.950 . S
C2301 C2297 1.393 . S
C2301 C2300 1.391 . S
C2302 H2292 0.950 . S
C2302 C2303 1.386 . S
C2302 C2304 1.391 . S
C2303 C2302 1.386 . S
C2303 C2307 1.393 . S
C2304 H2293 0.950 . S
C2304 C2302 1.391 . S
C2304 C2305 1.400 . S
C2305 C2299 1.491 . S
C2305 C2304 1.400 . S
C2305 C2306 1.398 . S
C2306 H2294 0.950 . S
C2306 C2305 1.398 . S
C2306 C2307 1.391 . S
C2307 H2295 0.950 . S
C2307 C2303 1.393 . S
C2307 C2306 1.391 . S
H2308 C2316 0.950 . S
H2309 C2321 0.950 . S
H2310 C2318 0.950 . S
H2311 C2320 0.950 . S
H2312 C2322 0.950 . S
H2313 C2324 0.950 . S
H2314 C2326 0.950 . S
H2315 C2327 0.950 . S
C2316 H2308 0.950 . S
C2316 C2317 1.386 . S
C2316 C2318 1.391 . S
C2317 C2316 1.386 . S
C2317 C2321 1.393 . S
C2318 H2310 0.950 . S
C2318 C2316 1.391 . S
C2318 C2319 1.400 . S
C2319 C2318 1.400 . S
C2319 C2320 1.398 . S
C2319 C2325 1.491 . S
C2320 H2311 0.950 . S
C2320 C2319 1.398 . S
C2320 C2321 1.391 . S
C2321 H2309 0.950 . S
C2321 C2317 1.393 . S
C2321 C2320 1.391 . S
C2322 H2312 0.950 . S
C2322 C2323 1.386 . S
C2322 C2324 1.391 . S
C2323 C2322 1.386 . S
C2323 C2327 1.393 . S
C2324 H2313 0.950 . S
C2324 C2322 1.391 . S
C2324 C2325 1.400 . S
C2325 C2319 1.491 . S
C2325 C2324 1.400 . S
C2325 C2326 1.398 . S
C2326 H2314 0.950 . S
C2326 C2325 1.398 . S
C2326 C2327 1.391 . S
C2327 H2315 0.950 . S
C2327 C2323 1.393 . S
C2327 C2326 1.391 . S
H2328 C2336 0.950 . S
H2329 C2341 0.950 . S
H2330 C2338 0.950 . S
H2331 C2340 0.950 . S
H2332 C2342 0.950 . S
H2333 C2344 0.950 . S
H2334 C2346 0.950 . S
H2335 C2347 0.950 . S
C2336 H2328 0.950 . S
C2336 C2337 1.386 . S
C2336 C2338 1.391 . S
C2337 C2336 1.386 . S
C2337 C2341 1.393 . S
C2338 H2330 0.950 . S
C2338 C2336 1.391 . S
C2338 C2339 1.400 . S
C2339 C2338 1.400 . S
C2339 C2340 1.398 . S
C2339 C2345 1.491 . S
C2340 H2331 0.950 . S
C2340 C2339 1.398 . S
C2340 C2341 1.391 . S
C2341 H2329 0.950 . S
C2341 C2337 1.393 . S
C2341 C2340 1.391 . S
C2342 H2332 0.950 . S
C2342 C2343 1.386 . S
C2342 C2344 1.391 . S
C2343 C2342 1.386 . S
C2343 C2347 1.393 . S
C2344 H2333 0.950 . S
C2344 C2342 1.391 . S
C2344 C2345 1.400 . S
C2345 C2339 1.491 . S
C2345 C2344 1.400 . S
C2345 C2346 1.398 . S
C2346 H2334 0.950 . S
C2346 C2345 1.398 . S
C2346 C2347 1.391 . S
C2347 H2335 0.950 . S
C2347 C2343 1.393 . S
C2347 C2346 1.391 . S
H2348 C2356 0.950 . S
H2349 C2361 0.950 . S
H2350 C2358 0.950 . S
H2351 C2360 0.950 . S
H2352 C2362 0.950 . S
H2353 C2364 0.950 . S
H2354 C2366 0.950 . S
H2355 C2367 0.950 . S
C2356 H2348 0.950 . S
C2356 C2357 1.386 . S
C2356 C2358 1.391 . S
C2357 C2356 1.386 . S
C2357 C2361 1.393 . S
C2358 H2350 0.950 . S
C2358 C2356 1.391 . S
C2358 C2359 1.400 . S
C2359 C2358 1.400 . S
C2359 C2360 1.398 . S
C2359 C2365 1.491 . S
C2360 H2351 0.950 . S
C2360 C2359 1.398 . S
C2360 C2361 1.391 . S
C2361 H2349 0.950 . S
C2361 C2357 1.393 . S
C2361 C2360 1.391 . S
C2362 H2352 0.950 . S
C2362 C2363 1.386 . S
C2362 C2364 1.391 . S
C2363 C2362 1.386 . S
C2363 C2367 1.393 . S
C2364 H2353 0.950 . S
C2364 C2362 1.391 . S
C2364 C2365 1.400 . S
C2365 C2359 1.491 . S
C2365 C2364 1.400 . S
C2365 C2366 1.398 . S
C2366 H2354 0.950 . S
C2366 C2365 1.398 . S
C2366 C2367 1.391 . S
C2367 H2355 0.950 . S
C2367 C2363 1.393 . S
C2367 C2366 1.391 . S
H2368 C2376 0.950 . S
H2369 C2381 0.950 . S
H2370 C2378 0.950 . S
H2371 C2380 0.950 . S
H2372 C2382 0.950 . S
H2373 C2384 0.950 . S
H2374 C2386 0.950 . S
H2375 C2387 0.950 . S
C2376 H2368 0.950 . S
C2376 C2377 1.386 . S
C2376 C2378 1.391 . S
C2377 C2376 1.386 . S
C2377 C2381 1.393 . S
C2378 H2370 0.950 . S
C2378 C2376 1.391 . S
C2378 C2379 1.400 . S
C2379 C2378 1.400 . S
C2379 C2380 1.398 . S
C2379 C2385 1.491 . S
C2380 H2371 0.950 . S
C2380 C2379 1.398 . S
C2380 C2381 1.391 . S
C2381 H2369 0.950 . S
C2381 C2377 1.393 . S
C2381 C2380 1.391 . S
C2382 H2372 0.950 . S
C2382 C2383 1.386 . S
C2382 C2384 1.391 . S
C2383 C2382 1.386 . S
C2383 C2387 1.393 . S
C2384 H2373 0.950 . S
C2384 C2382 1.391 . S
C2384 C2385 1.400 . S
C2385 C2379 1.491 . S
C2385 C2384 1.400 . S
C2385 C2386 1.398 . S
C2386 H2374 0.950 . S
C2386 C2385 1.398 . S
C2386 C2387 1.391 . S
C2387 H2375 0.950 . S
C2387 C2383 1.393 . S
C2387 C2386 1.391 . S
H2388 C2396 0.950 . S
H2389 C2401 0.950 . S
H2390 C2398 0.950 . S
H2391 C2400 0.950 . S
H2392 C2402 0.950 . S
H2393 C2404 0.950 . S
H2394 C2406 0.950 . S
H2395 C2407 0.950 1_655 S
C2396 H2388 0.950 . S
C2396 C2397 1.386 . S
C2396 C2398 1.391 . S
C2397 C2396 1.386 . S
C2397 C2401 1.393 . S
C2398 H2390 0.950 . S
C2398 C2396 1.391 . S
C2398 C2399 1.400 . S
C2399 C2398 1.400 . S
C2399 C2400 1.398 . S
C2399 C2405 1.491 . S
C2400 H2391 0.950 . S
C2400 C2399 1.398 . S
C2400 C2401 1.391 . S
C2401 H2389 0.950 . S
C2401 C2397 1.393 . S
C2401 C2400 1.391 . S
C2402 H2392 0.950 . S
C2402 C2403 1.386 . S
C2402 C2404 1.391 . S
C2403 C2402 1.386 . S
C2403 C2407 1.393 . S
C2404 H2393 0.950 . S
C2404 C2402 1.391 . S
C2404 C2405 1.400 . S
C2405 C2399 1.491 . S
C2405 C2404 1.400 . S
C2405 C2406 1.398 . S
C2406 H2394 0.950 . S
C2406 C2405 1.398 . S
C2406 C2407 1.391 . S
C2407 H2395 0.950 1_455 S
C2407 C2403 1.393 . S
C2407 C2406 1.391 . S
H2408 C2416 0.950 . S
H2409 C2421 0.950 . S
H2410 C2418 0.950 . S
H2411 C2420 0.950 . S
H2412 C2422 0.950 . S
H2413 C2424 0.950 . S
H2414 C2426 0.950 . S
H2415 C2427 0.950 . S
C2416 H2408 0.950 . S
C2416 C2417 1.386 . S
C2416 C2418 1.391 . S
C2417 C2416 1.386 . S
C2417 C2421 1.393 . S
C2418 H2410 0.950 . S
C2418 C2416 1.391 . S
C2418 C2419 1.400 . S
C2419 C2418 1.400 . S
C2419 C2420 1.398 . S
C2419 C2425 1.491 . S
C2420 H2411 0.950 . S
C2420 C2419 1.398 . S
C2420 C2421 1.391 . S
C2421 H2409 0.950 . S
C2421 C2417 1.393 . S
C2421 C2420 1.391 . S
C2422 H2412 0.950 . S
C2422 C2423 1.386 . S
C2422 C2424 1.391 . S
C2423 C2422 1.386 . S
C2423 C2427 1.393 . S
C2424 H2413 0.950 . S
C2424 C2422 1.391 . S
C2424 C2425 1.400 . S
C2425 C2419 1.491 . S
C2425 C2424 1.400 . S
C2425 C2426 1.398 . S
C2426 H2414 0.950 . S
C2426 C2425 1.398 . S
C2426 C2427 1.391 . S
C2427 H2415 0.950 . S
C2427 C2423 1.393 . S
C2427 C2426 1.391 . S
H2428 C2436 0.950 . S
H2429 C2441 0.950 . S
H2430 C2438 0.950 . S
H2431 C2440 0.950 1_545 S
H2432 C2442 0.950 . S
H2433 C2444 0.941 1_545 S
H2434 C2446 0.950 . S
H2435 C2447 0.950 . S
C2436 H2428 0.950 . S
C2436 C2437 1.386 . S
C2436 C2438 1.391 . S
C2437 C2436 1.386 . S
C2437 C2441 1.393 . S
C2438 H2430 0.950 . S
C2438 C2436 1.391 . S
C2438 C2439 1.400 . S
C2439 C2438 1.400 . S
C2439 C2440 1.398 . S
C2439 C2445 1.491 . S
C2440 H2431 0.950 1_565 S
C2440 C2439 1.398 . S
C2440 C2441 1.391 . S
C2441 H2429 0.950 . S
C2441 C2437 1.393 . S
C2441 C2440 1.391 . S
C2442 H2432 0.950 . S
C2442 C2443 1.386 1_545 S
C2442 C2444 1.396 1_545 S
C2443 C2442 1.386 1_565 S
C2443 C2447 1.393 . S
C2444 H2433 0.941 1_565 S
C2444 C2442 1.396 1_565 S
C2444 C2445 1.405 . S
C2445 C2439 1.491 . S
C2445 C2444 1.405 . S
C2445 C2446 1.398 . S
C2446 H2434 0.950 . S
C2446 C2445 1.398 . S
C2446 C2447 1.391 . S
C2447 H2435 0.950 . S
C2447 C2443 1.393 . S
C2447 C2446 1.391 . S
H2448 C2456 0.950 . S
H2449 C2461 0.950 . S
H2450 C2458 0.950 . S
H2451 C2460 0.959 . S
H2452 C2462 0.950 . S
H2453 C2464 0.950 1_545 S
H2454 C2466 0.950 . S
H2455 C2467 0.950 . S
C2456 H2448 0.950 . S
C2456 C2457 1.386 . S
C2456 C2458 1.391 . S
C2457 C2456 1.386 . S
C2457 C2461 1.393 . S
C2458 H2450 0.950 . S
C2458 C2456 1.391 . S
C2458 C2459 1.400 . S
C2459 C2458 1.400 . S
C2459 C2460 1.398 . S
C2459 C2465 1.491 . S
C2460 H2451 0.959 . S
C2460 C2459 1.398 . S
C2460 C2461 1.391 . S
C2461 H2449 0.950 . S
C2461 C2457 1.393 . S
C2461 C2460 1.391 . S
C2462 H2452 0.950 . S
C2462 C2463 1.386 1_545 S
C2462 C2464 1.391 1_545 S
C2463 C2462 1.386 1_565 S
C2463 C2467 1.393 . S
C2464 H2453 0.950 1_565 S
C2464 C2462 1.391 1_565 S
C2464 C2465 1.400 . S
C2465 C2459 1.491 . S
C2465 C2464 1.400 . S
C2465 C2466 1.398 . S
C2466 H2454 0.950 . S
C2466 C2465 1.398 . S
C2466 C2467 1.391 . S
C2467 H2455 0.950 . S
C2467 C2463 1.393 . S
C2467 C2466 1.391 . S
H2468 C2476 0.950 . S
H2469 C2481 0.950 . S
H2470 C2478 0.950 . S
H2471 C2480 0.950 . S
H2472 C2482 0.944 1_655 S
H2473 C2484 0.950 . S
H2474 C2486 0.950 . S
H2475 C2487 0.950 . S
C2476 H2468 0.950 . S
C2476 C2477 1.386 . S
C2476 C2478 1.391 . S
C2477 C2476 1.386 . S
C2477 C2481 1.393 . S
C2478 H2470 0.950 . S
C2478 C2476 1.391 . S
C2478 C2479 1.400 . S
C2479 C2478 1.400 . S
C2479 C2480 1.398 . S
C2479 C2485 1.491 . S
C2480 H2471 0.950 . S
C2480 C2479 1.398 . S
C2480 C2481 1.391 . S
C2481 H2469 0.950 . S
C2481 C2477 1.393 . S
C2481 C2480 1.391 . S
C2482 H2472 0.944 1_455 S
C2482 C2483 1.405 . S
C2482 C2484 1.379 . S
C2483 C2482 1.405 . S
C2483 C2487 1.393 . S
C2484 H2473 0.950 . S
C2484 C2482 1.379 . S
C2484 C2485 1.400 . S
C2485 C2479 1.491 . S
C2485 C2484 1.400 . S
C2485 C2486 1.398 . S
C2486 H2474 0.950 . S
C2486 C2485 1.398 . S
C2486 C2487 1.391 . S
C2487 H2475 0.950 . S
C2487 C2483 1.393 . S
C2487 C2486 1.391 . S
H2488 C2496 0.950 . S
H2489 C2501 0.950 . S
H2490 C2498 0.950 . S
H2491 C2500 0.950 . S
H2492 C2502 0.950 . S
H2493 C2504 0.950 . S
H2494 C2506 0.950 . S
H2495 C2507 0.950 . S
C2496 H2488 0.950 . S
C2496 C2497 1.386 . S
C2496 C2498 1.391 . S
C2497 C2496 1.386 . S
C2497 C2501 1.393 . S
C2498 H2490 0.950 . S
C2498 C2496 1.391 . S
C2498 C2499 1.400 . S
C2499 C2498 1.400 . S
C2499 C2500 1.398 . S
C2499 C2505 1.491 . S
C2500 H2491 0.950 . S
C2500 C2499 1.398 . S
C2500 C2501 1.391 . S
C2501 H2489 0.950 . S
C2501 C2497 1.393 . S
C2501 C2500 1.391 . S
C2502 H2492 0.950 . S
C2502 C2503 1.386 . S
C2502 C2504 1.391 . S
C2503 C2502 1.386 . S
C2503 C2507 1.393 . S
C2504 H2493 0.950 . S
C2504 C2502 1.391 . S
C2504 C2505 1.400 . S
C2505 C2499 1.491 . S
C2505 C2504 1.400 . S
C2505 C2506 1.398 . S
C2506 H2494 0.950 . S
C2506 C2505 1.398 . S
C2506 C2507 1.391 . S
C2507 H2495 0.950 . S
C2507 C2503 1.393 . S
C2507 C2506 1.391 . S
H2508 C2516 0.950 . S
H2509 C2521 0.950 . S
H2510 C2518 0.950 . S
H2511 C2520 0.950 . S
H2512 C2522 0.950 . S
H2513 C2524 0.950 . S
H2514 C2526 0.950 . S
H2515 C2527 0.950 . S
C2516 H2508 0.950 . S
C2516 C2517 1.386 . S
C2516 C2518 1.391 . S
C2517 C2516 1.386 . S
C2517 C2521 1.393 . S
C2518 H2510 0.950 . S
C2518 C2516 1.391 . S
C2518 C2519 1.400 . S
C2519 C2518 1.400 . S
C2519 C2520 1.398 . S
C2519 C2525 1.491 . S
C2520 H2511 0.950 . S
C2520 C2519 1.398 . S
C2520 C2521 1.391 . S
C2521 H2509 0.950 . S
C2521 C2517 1.393 . S
C2521 C2520 1.391 . S
C2522 H2512 0.950 . S
C2522 C2523 1.386 . S
C2522 C2524 1.391 . S
C2523 C2522 1.386 . S
C2523 C2527 1.393 . S
C2524 H2513 0.950 . S
C2524 C2522 1.391 . S
C2524 C2525 1.400 . S
C2525 C2519 1.491 . S
C2525 C2524 1.400 . S
C2525 C2526 1.398 . S
C2526 H2514 0.950 . S
C2526 C2525 1.398 . S
C2526 C2527 1.391 . S
C2527 H2515 0.950 . S
C2527 C2523 1.393 . S
C2527 C2526 1.391 . S
H2528 C2536 0.950 . S
H2529 C2541 0.950 . S
H2530 C2538 0.950 . S
H2531 C2540 0.950 . S
H2532 C2542 0.950 . S
H2533 C2544 0.950 . S
H2534 C2546 0.950 . S
H2535 C2547 0.950 . S
C2536 H2528 0.950 . S
C2536 C2537 1.386 . S
C2536 C2538 1.391 . S
C2537 C2536 1.386 . S
C2537 C2541 1.393 . S
C2538 H2530 0.950 . S
C2538 C2536 1.391 . S
C2538 C2539 1.400 . S
C2539 C2538 1.400 . S
C2539 C2540 1.398 . S
C2539 C2545 1.491 . S
C2540 H2531 0.950 . S
C2540 C2539 1.398 . S
C2540 C2541 1.391 . S
C2541 H2529 0.950 . S
C2541 C2537 1.393 . S
C2541 C2540 1.391 . S
C2542 H2532 0.950 . S
C2542 C2543 1.386 . S
C2542 C2544 1.391 . S
C2543 C2542 1.386 . S
C2543 C2547 1.393 . S
C2544 H2533 0.950 . S
C2544 C2542 1.391 . S
C2544 C2545 1.400 . S
C2545 C2539 1.491 . S
C2545 C2544 1.400 . S
C2545 C2546 1.398 . S
C2546 H2534 0.950 . S
C2546 C2545 1.398 . S
C2546 C2547 1.391 . S
C2547 H2535 0.950 . S
C2547 C2543 1.393 . S
C2547 C2546 1.391 . S
H2548 C2556 0.950 . S
H2549 C2561 0.950 . S
H2550 C2558 0.950 . S
H2551 C2560 0.950 . S
H2552 C2562 0.950 . S
H2553 C2564 0.950 . S
H2554 C2566 0.950 . S
H2555 C2567 0.950 . S
C2556 H2548 0.950 . S
C2556 C2557 1.386 . S
C2556 C2558 1.391 . S
C2557 C2556 1.386 . S
C2557 C2561 1.393 . S
C2558 H2550 0.950 . S
C2558 C2556 1.391 . S
C2558 C2559 1.400 . S
C2559 C2558 1.400 . S
C2559 C2560 1.398 . S
C2559 C2565 1.491 . S
C2560 H2551 0.950 . S
C2560 C2559 1.398 . S
C2560 C2561 1.391 . S
C2561 H2549 0.950 . S
C2561 C2557 1.393 . S
C2561 C2560 1.391 . S
C2562 H2552 0.950 . S
C2562 C2563 1.386 . S
C2562 C2564 1.391 . S
C2563 C2562 1.386 . S
C2563 C2567 1.393 . S
C2564 H2553 0.950 . S
C2564 C2562 1.391 . S
C2564 C2565 1.400 . S
C2565 C2559 1.491 . S
C2565 C2564 1.400 . S
C2565 C2566 1.398 . S
C2566 H2554 0.950 . S
C2566 C2565 1.398 . S
C2566 C2567 1.391 . S
C2567 H2555 0.950 . S
C2567 C2563 1.393 . S
C2567 C2566 1.391 . S
H2568 C2576 0.950 . S
H2569 C2581 0.950 . S
H2570 C2578 0.950 . S
H2571 C2580 0.950 . S
H2572 C2582 0.950 . S
H2573 C2584 0.950 . S
H2574 C2586 0.950 . S
H2575 C2587 0.950 . S
C2576 H2568 0.950 . S
C2576 C2577 1.386 . S
C2576 C2578 1.391 . S
C2577 C2576 1.386 . S
C2577 C2581 1.393 . S
C2578 H2570 0.950 . S
C2578 C2576 1.391 . S
C2578 C2579 1.400 . S
C2579 C2578 1.400 . S
C2579 C2580 1.398 . S
C2579 C2585 1.491 . S
C2580 H2571 0.950 . S
C2580 C2579 1.398 . S
C2580 C2581 1.391 . S
C2581 H2569 0.950 . S
C2581 C2577 1.393 . S
C2581 C2580 1.391 . S
C2582 H2572 0.950 . S
C2582 C2583 1.386 . S
C2582 C2584 1.391 . S
C2583 C2582 1.386 . S
C2583 C2587 1.393 . S
C2584 H2573 0.950 . S
C2584 C2582 1.391 . S
C2584 C2585 1.400 . S
C2585 C2579 1.491 . S
C2585 C2584 1.400 . S
C2585 C2586 1.398 . S
C2586 H2574 0.950 . S
C2586 C2585 1.398 . S
C2586 C2587 1.391 . S
C2587 H2575 0.950 . S
C2587 C2583 1.393 . S
C2587 C2586 1.391 . S
H2588 C2596 0.950 . S
H2589 C2601 0.950 . S
H2590 C2598 0.950 . S
H2591 C2600 0.950 . S
H2592 C2602 0.950 . S
H2593 C2604 0.950 . S
H2594 C2606 0.950 . S
H2595 C2607 0.950 . S
C2596 H2588 0.950 . S
C2596 C2597 1.386 . S
C2596 C2598 1.391 . S
C2597 C2596 1.386 . S
C2597 C2601 1.393 . S
C2598 H2590 0.950 . S
C2598 C2596 1.391 . S
C2598 C2599 1.400 . S
C2599 C2598 1.400 . S
C2599 C2600 1.398 . S
C2599 C2605 1.491 . S
C2600 H2591 0.950 . S
C2600 C2599 1.398 . S
C2600 C2601 1.391 . S
C2601 H2589 0.950 . S
C2601 C2597 1.393 . S
C2601 C2600 1.391 . S
C2602 H2592 0.950 . S
C2602 C2603 1.386 . S
C2602 C2604 1.391 . S
C2603 C2602 1.386 . S
C2603 C2607 1.393 . S
C2604 H2593 0.950 . S
C2604 C2602 1.391 . S
C2604 C2605 1.400 . S
C2605 C2599 1.491 . S
C2605 C2604 1.400 . S
C2605 C2606 1.398 . S
C2606 H2594 0.950 . S
C2606 C2605 1.398 . S
C2606 C2607 1.391 . S
C2607 H2595 0.950 . S
C2607 C2603 1.393 . S
C2607 C2606 1.391 . S
H2608 C2616 0.950 . S
H2609 C2621 0.950 . S
H2610 C2618 0.950 . S
H2611 C2620 0.950 . S
H2612 C2622 0.950 . S
H2613 C2624 0.950 . S
H2614 C2626 0.950 . S
H2615 C2627 0.950 . S
C2616 H2608 0.950 . S
C2616 C2617 1.386 . S
C2616 C2618 1.391 . S
C2617 C2616 1.386 . S
C2617 C2621 1.393 . S
C2618 H2610 0.950 . S
C2618 C2616 1.391 . S
C2618 C2619 1.400 . S
C2619 C2618 1.400 . S
C2619 C2620 1.398 . S
C2619 C2625 1.491 . S
C2620 H2611 0.950 . S
C2620 C2619 1.398 . S
C2620 C2621 1.391 . S
C2621 H2609 0.950 . S
C2621 C2617 1.393 . S
C2621 C2620 1.391 . S
C2622 H2612 0.950 . S
C2622 C2623 1.386 . S
C2622 C2624 1.391 . S
C2623 C2622 1.386 . S
C2623 C2627 1.393 . S
C2624 H2613 0.950 . S
C2624 C2622 1.391 . S
C2624 C2625 1.400 . S
C2625 C2619 1.491 . S
C2625 C2624 1.400 . S
C2625 C2626 1.398 . S
C2626 H2614 0.950 . S
C2626 C2625 1.398 . S
C2626 C2627 1.391 . S
C2627 H2615 0.950 . S
C2627 C2623 1.393 . S
C2627 C2626 1.391 . S
H2628 C2636 0.950 . S
H2629 C2641 0.950 . S
H2630 C2638 0.950 . S
H2631 C2640 0.950 . S
H2632 C2642 0.950 . S
H2633 C2644 0.950 . S
H2634 C2646 0.950 . S
H2635 C2647 0.950 . S
C2636 H2628 0.950 . S
C2636 C2637 1.386 . S
C2636 C2638 1.391 . S
C2637 C2636 1.386 . S
C2637 C2641 1.393 . S
C2638 H2630 0.950 . S
C2638 C2636 1.391 . S
C2638 C2639 1.400 . S
C2639 C2638 1.400 . S
C2639 C2640 1.398 . S
C2639 C2645 1.491 . S
C2640 H2631 0.950 . S
C2640 C2639 1.398 . S
C2640 C2641 1.391 . S
C2641 H2629 0.950 . S
C2641 C2637 1.393 . S
C2641 C2640 1.391 . S
C2642 H2632 0.950 . S
C2642 C2643 1.386 . S
C2642 C2644 1.391 . S
C2643 C2642 1.386 . S
C2643 C2647 1.393 . S
C2644 H2633 0.950 . S
C2644 C2642 1.391 . S
C2644 C2645 1.400 . S
C2645 C2639 1.491 . S
C2645 C2644 1.400 . S
C2645 C2646 1.398 . S
C2646 H2634 0.950 . S
C2646 C2645 1.398 . S
C2646 C2647 1.391 . S
C2647 H2635 0.950 . S
C2647 C2643 1.393 . S
C2647 C2646 1.391 . S
H2648 C2656 0.950 . S
H2649 C2661 0.950 . S
H2650 C2658 0.950 . S
H2651 C2660 0.950 . S
H2652 C2662 0.950 . S
H2653 C2664 0.950 . S
H2654 C2666 0.950 . S
H2655 C2667 0.950 . S
C2656 H2648 0.950 . S
C2656 C2657 1.386 . S
C2656 C2658 1.391 . S
C2657 C2656 1.386 . S
C2657 C2661 1.393 . S
C2658 H2650 0.950 . S
C2658 C2656 1.391 . S
C2658 C2659 1.400 . S
C2659 C2658 1.400 . S
C2659 C2660 1.398 . S
C2659 C2665 1.491 . S
C2660 H2651 0.950 . S
C2660 C2659 1.398 . S
C2660 C2661 1.391 . S
C2661 H2649 0.950 . S
C2661 C2657 1.393 . S
C2661 C2660 1.391 . S
C2662 H2652 0.950 . S
C2662 C2663 1.386 . S
C2662 C2664 1.391 . S
C2663 C2662 1.386 . S
C2663 C2667 1.393 . S
C2664 H2653 0.950 . S
C2664 C2662 1.391 . S
C2664 C2665 1.400 . S
C2665 C2659 1.491 . S
C2665 C2664 1.400 . S
C2665 C2666 1.398 . S
C2666 H2654 0.950 . S
C2666 C2665 1.398 . S
C2666 C2667 1.391 . S
C2667 H2655 0.950 . S
C2667 C2663 1.393 . S
C2667 C2666 1.391 . S
H2668 C2676 0.950 . S
H2669 C2681 0.950 . S
H2670 C2678 0.950 . S
H2671 C2680 0.950 . S
H2672 C2682 0.950 . S
H2673 C2684 0.950 . S
H2674 C2686 0.950 . S
H2675 C2687 0.950 . S
C2676 H2668 0.950 . S
C2676 C2677 1.386 . S
C2676 C2678 1.391 . S
C2677 C2676 1.386 . S
C2677 C2681 1.393 . S
C2678 H2670 0.950 . S
C2678 C2676 1.391 . S
C2678 C2679 1.400 . S
C2679 C2678 1.400 . S
C2679 C2680 1.398 . S
C2679 C2685 1.491 . S
C2680 H2671 0.950 . S
C2680 C2679 1.398 . S
C2680 C2681 1.391 . S
C2681 H2669 0.950 . S
C2681 C2677 1.393 . S
C2681 C2680 1.391 . S
C2682 H2672 0.950 . S
C2682 C2683 1.386 . S
C2682 C2684 1.391 . S
C2683 C2682 1.386 . S
C2683 C2687 1.393 . S
C2684 H2673 0.950 . S
C2684 C2682 1.391 . S
C2684 C2685 1.400 . S
C2685 C2679 1.491 . S
C2685 C2684 1.400 . S
C2685 C2686 1.398 . S
C2686 H2674 0.950 . S
C2686 C2685 1.398 . S
C2686 C2687 1.391 . S
C2687 H2675 0.950 . S
C2687 C2683 1.393 . S
C2687 C2686 1.391 . S
H2688 C2696 0.950 . S
H2689 C2701 0.950 . S
H2690 C2698 0.950 . S
H2691 C2700 0.950 . S
H2692 C2702 0.950 . S
H2693 C2704 0.950 . S
H2694 C2706 0.950 . S
H2695 C2707 0.950 . S
C2696 H2688 0.950 . S
C2696 C2697 1.386 . S
C2696 C2698 1.391 . S
C2697 C2696 1.386 . S
C2697 C2701 1.393 . S
C2698 H2690 0.950 . S
C2698 C2696 1.391 . S
C2698 C2699 1.400 . S
C2699 C2698 1.400 . S
C2699 C2700 1.398 . S
C2699 C2705 1.491 . S
C2700 H2691 0.950 . S
C2700 C2699 1.398 . S
C2700 C2701 1.391 . S
C2701 H2689 0.950 . S
C2701 C2697 1.393 . S
C2701 C2700 1.391 . S
C2702 H2692 0.950 . S
C2702 C2703 1.386 . S
C2702 C2704 1.391 . S
C2703 C2702 1.386 . S
C2703 C2707 1.393 . S
C2704 H2693 0.950 . S
C2704 C2702 1.391 . S
C2704 C2705 1.400 . S
C2705 C2699 1.491 . S
C2705 C2704 1.400 . S
C2705 C2706 1.398 . S
C2706 H2694 0.950 . S
C2706 C2705 1.398 . S
C2706 C2707 1.391 . S
C2707 H2695 0.950 . S
C2707 C2703 1.393 . S
C2707 C2706 1.391 . S
H2708 C2716 0.950 . S
H2709 C2721 0.950 . S
H2710 C2718 0.950 . S
H2711 C2720 0.950 . S
H2712 C2722 0.950 . S
H2713 C2724 0.950 . S
H2714 C2726 0.950 . S
H2715 C2727 0.950 . S
C2716 H2708 0.950 . S
C2716 C2717 1.386 . S
C2716 C2718 1.391 . S
C2717 C2716 1.386 . S
C2717 C2721 1.393 . S
C2718 H2710 0.950 . S
C2718 C2716 1.391 . S
C2718 C2719 1.400 . S
C2719 C2718 1.400 . S
C2719 C2720 1.398 . S
C2719 C2725 1.491 . S
C2720 H2711 0.950 . S
C2720 C2719 1.398 . S
C2720 C2721 1.391 . S
C2721 H2709 0.950 . S
C2721 C2717 1.393 . S
C2721 C2720 1.391 . S
C2722 H2712 0.950 . S
C2722 C2723 1.386 . S
C2722 C2724 1.391 . S
C2723 C2722 1.386 . S
C2723 C2727 1.393 . S
C2724 H2713 0.950 . S
C2724 C2722 1.391 . S
C2724 C2725 1.400 . S
C2725 C2719 1.491 . S
C2725 C2724 1.400 . S
C2725 C2726 1.398 . S
C2726 H2714 0.950 . S
C2726 C2725 1.398 . S
C2726 C2727 1.391 . S
C2727 H2715 0.950 . S
C2727 C2723 1.393 . S
C2727 C2726 1.391 . S
H2728 C2736 0.950 . S
H2729 C2741 0.950 . S
H2730 C2738 0.950 . S
H2731 C2740 0.950 . S
H2732 C2742 0.950 . S
H2733 C2744 0.950 . S
H2734 C2746 0.950 . S
H2735 C2747 0.950 . S
C2736 H2728 0.950 . S
C2736 C2737 1.386 . S
C2736 C2738 1.391 . S
C2737 C2736 1.386 . S
C2737 C2741 1.393 . S
C2738 H2730 0.950 . S
C2738 C2736 1.391 . S
C2738 C2739 1.400 . S
C2739 C2738 1.400 . S
C2739 C2740 1.398 . S
C2739 C2745 1.491 . S
C2740 H2731 0.950 . S
C2740 C2739 1.398 . S
C2740 C2741 1.391 . S
C2741 H2729 0.950 . S
C2741 C2737 1.393 . S
C2741 C2740 1.391 . S
C2742 H2732 0.950 . S
C2742 C2743 1.386 . S
C2742 C2744 1.391 . S
C2743 C2742 1.386 . S
C2743 C2747 1.393 . S
C2744 H2733 0.950 . S
C2744 C2742 1.391 . S
C2744 C2745 1.400 . S
C2745 C2739 1.491 . S
C2745 C2744 1.400 . S
C2745 C2746 1.398 . S
C2746 H2734 0.950 . S
C2746 C2745 1.398 . S
C2746 C2747 1.391 . S
C2747 H2735 0.950 . S
C2747 C2743 1.393 . S
C2747 C2746 1.391 . S
H2748 C2756 0.950 . S
H2749 C2761 0.950 . S
H2750 C2758 0.950 1_455 S
H2751 C2760 0.950 . S
H2752 C2762 0.950 . S
H2753 C2764 0.950 . S
H2754 C2766 0.928 1_455 S
H2755 C2767 0.950 . S
C2756 H2748 0.950 . S
C2756 C2757 1.386 . S
C2756 C2758 1.391 . S
C2757 C2756 1.386 . S
C2757 C2761 1.393 . S
C2758 H2750 0.950 1_655 S
C2758 C2756 1.391 . S
C2758 C2759 1.400 . S
C2759 C2758 1.400 . S
C2759 C2760 1.398 . S
C2759 C2765 1.491 . S
C2760 H2751 0.950 . S
C2760 C2759 1.398 . S
C2760 C2761 1.391 . S
C2761 H2749 0.950 . S
C2761 C2757 1.393 . S
C2761 C2760 1.391 . S
C2762 H2752 0.950 . S
C2762 C2763 1.386 . S
C2762 C2764 1.391 . S
C2763 C2762 1.386 . S
C2763 C2767 1.393 1_655 S
C2764 H2753 0.950 . S
C2764 C2762 1.391 . S
C2764 C2765 1.400 . S
C2765 C2759 1.491 . S
C2765 C2764 1.400 . S
C2765 C2766 1.479 . S
C2766 H2754 0.928 1_655 S
C2766 C2765 1.479 . S
C2766 C2767 1.337 1_655 S
C2767 H2755 0.950 . S
C2767 C2763 1.393 1_455 S
C2767 C2766 1.337 1_455 S
H2768 C2776 0.950 . S
H2769 C2781 0.950 . S
H2770 C2778 0.950 . S
H2771 C2780 0.950 . S
H2772 C2782 0.950 . S
H2773 C2784 0.950 . S
H2774 C2786 0.950 . S
H2775 C2787 0.950 . S
C2776 H2768 0.950 . S
C2776 C2777 1.386 . S
C2776 C2778 1.391 . S
C2777 C2776 1.386 . S
C2777 C2781 1.393 . S
C2778 H2770 0.950 . S
C2778 C2776 1.391 . S
C2778 C2779 1.400 . S
C2779 C2778 1.400 . S
C2779 C2780 1.398 . S
C2779 C2785 1.491 . S
C2780 H2771 0.950 . S
C2780 C2779 1.398 . S
C2780 C2781 1.391 . S
C2781 H2769 0.950 . S
C2781 C2777 1.393 . S
C2781 C2780 1.391 . S
C2782 H2772 0.950 . S
C2782 C2783 1.386 . S
C2782 C2784 1.391 . S
C2783 C2782 1.386 . S
C2783 C2787 1.393 . S
C2784 H2773 0.950 . S
C2784 C2782 1.391 . S
C2784 C2785 1.400 . S
C2785 C2779 1.491 . S
C2785 C2784 1.400 . S
C2785 C2786 1.398 . S
C2786 H2774 0.950 . S
C2786 C2785 1.398 . S
C2786 C2787 1.391 . S
C2787 H2775 0.950 . S
C2787 C2783 1.393 . S
C2787 C2786 1.391 . S
H2788 C2796 0.950 . S
H2789 C2801 0.950 . S
H2790 C2798 0.957 . S
H2791 C2800 0.950 . S
H2792 C2802 0.950 . S
H2793 C2804 0.950 . S
H2794 C2806 0.950 1_565 S
H2795 C2807 0.950 . S
C2796 H2788 0.950 . S
C2796 C2797 1.386 . S
C2796 C2798 1.391 . S
C2797 C2796 1.386 . S
C2797 C2801 1.393 . S
C2798 H2790 0.957 . S
C2798 C2796 1.391 . S
C2798 C2799 1.400 . S
C2799 C2798 1.400 . S
C2799 C2800 1.398 . S
C2799 C2805 1.491 . S
C2800 H2791 0.950 . S
C2800 C2799 1.398 . S
C2800 C2801 1.391 . S
C2801 H2789 0.950 . S
C2801 C2797 1.393 . S
C2801 C2800 1.391 . S
C2802 H2792 0.950 . S
C2802 C2803 1.386 . S
C2802 C2804 1.391 . S
C2803 C2802 1.386 . S
C2803 C2807 1.393 1_545 S
C2804 H2793 0.950 . S
C2804 C2802 1.391 . S
C2804 C2805 1.400 . S
C2805 C2799 1.491 . S
C2805 C2804 1.400 . S
C2805 C2806 1.398 . S
C2806 H2794 0.950 1_545 S
C2806 C2805 1.398 . S
C2806 C2807 1.391 1_545 S
C2807 H2795 0.950 . S
C2807 C2803 1.393 1_565 S
C2807 C2806 1.391 1_565 S
C1377 C13 1.533 . S
C1383 C857 1.559 . S
C1397 C27 1.378 . S
C1403 C901 1.417 . S
C1423 C981 1.537 . S
C1417 C36 1.510 . S
C1437 C41 1.477 . S
C1443 C1025 1.531 . S
C1457 C8 1.619 . S
C1463 C1105 1.645 . S
C1477 C22 1.499 . S
C1483 C1167 1.531 . S
C1497 C55 1.504 . S
C1503 C1087 1.527 . S
C1523 C1149 1.410 . S
C1517 C69 1.391 . S
C1543 C1043 1.575 . S
C1537 C78 1.544 . S
C1557 C83 1.488 . S
C1563 C963 1.512 . S
C1583 C839 1.671 . S
C1577 C50 1.656 . S
C1597 C64 1.480 . S
C1603 C919 1.516 . S
C1617 C97 1.564 . S
C1623 C1229 1.597 . S
C1637 C111 1.425 . S
C1643 C1273 1.451 . S
C1663 C1353 1.566 . S
C1657 C120 1.567 . S
C1677 C125 1.519 . S
C1683 C299 1.550 . S
C1697 C92 1.715 . S
C1703 C343 1.733 . S
C1717 C106 1.529 . S
C1723 C423 1.551 . S
C1737 C139 1.549 . S
C1743 C361 1.598 . S
C1757 C153 1.425 . S
C1763 C405 1.443 . S
C1783 C281 1.574 . S
C1777 C162 1.570 . S
C1803 C1335 1.570 . S
C1797 C167 1.536 . S
C1823 C1211 1.692 . S
C1817 C134 1.716 . S
C1843 C1291 1.561 . S
C1837 C148 1.535 . S
C1857 C181 1.566 . S
C1863 C485 1.591 . S
C1877 C195 1.395 . S
C1883 C547 1.414 . S
C1897 C204 1.572 . S
C1903 C591 1.609 . S
C1917 C209 1.517 . S
C1923 C653 1.569 . S
C1943 C715 1.750 . S
C1937 C176 1.723 . S
C1963 C795 1.551 . S
C1957 C190 1.533 . S
C1983 C733 1.625 . S
C1977 C223 1.555 . S
C2003 C777 1.450 . S
C1997 C237 1.420 . S
C2017 C246 1.559 . S
C2023 C671 1.594 . S
C2043 C609 1.546 . S
C2037 C251 1.499 . S
C2057 C218 1.698 . S
C2063 C467 1.696 . S
C2083 C529 1.553 . S
C2077 C232 1.542 . S
C2103 C305 1.332 . S
C2097 C11 1.414 . S
C2117 C25 1.318 . S
C2123 C349 1.264 . S
C2143 C429 1.311 . S
C2137 C35 1.378 . S
C2163 C491 1.350 . S
C2157 C39 1.408 1_556 S
C2183 C553 1.430 . S
C2177 C7 1.496 1_556 S
C2203 C597 1.345 . S
C2197 C21 1.393 1_556 S
C2217 C53 1.415 1_556 S
C2223 C615 1.382 . S
C2237 C67 1.297 1_556 S
C2243 C473 1.258 . S
C2257 C77 1.362 . S
C2263 C535 1.299 . S
C2277 C81 1.435 . S
C2283 C367 1.385 . S
C2303 C411 1.422 . S
C2297 C49 1.486 . S
C2317 C63 1.393 . S
C2323 C287 1.320 . S
C2343 C659 1.334 . S
C2337 C95 1.405 . S
C2357 C109 1.326 . S
C2363 C721 1.299 . S
C2377 C119 1.434 1_655 S
C2383 C801 1.367 . S
C2403 C863 1.268 . S
C2397 C123 1.338 . S
C2417 C91 1.482 . S
C2423 C907 1.403 . S
C2437 C105 1.326 . S
C2443 C987 1.272 . S
C2457 C137 1.357 . S
C2463 C969 1.271 . S
C2477 C151 1.224 . S
C2483 C845 1.162 . S
C2503 C925 1.335 . S
C2497 C161 1.378 . S
C2517 C165 1.424 . S
C2523 C739 1.380 . S
C2537 C133 1.513 1_545 S
C2543 C783 1.419 . S
C2563 C677 1.383 . S
C2557 C147 1.433 1_655 S
C2583 C1031 1.320 . S
C2577 C179 1.365 . S
C2597 C193 1.214 . S
C2603 C1111 1.169 . S
C2617 C203 1.371 . S
C2623 C1173 1.294 . S
C2643 C1235 1.353 . S
C2637 C207 1.425 . S
C2663 C1279 1.433 . S
C2657 C175 1.515 1_565 S
C2677 C189 1.437 1_455 S
C2683 C1359 1.365 . S
C2697 C221 1.413 . S
C2703 C1341 1.360 . S
C2717 C235 1.337 . S
C2723 C1217 1.279 . S
C2743 C1297 1.358 . S
C2737 C245 1.416 1_455 S
C2763 C1093 1.270 . S
C2757 C249 1.312 . S
C2783 C1155 1.424 . S
C2777 C217 1.489 . S
C2797 C231 1.352 . S
C2803 C1049 1.309 . S
