# Generated by pormake.
# Topology tbo, (3,4)-cn, num edge types: 1
# Building blocks:
#     Node 0, Type 0, BuildingBlock: OLANEW_clean_sbu_2, # of connection points: 3
#     Node 1, Type 0, BuildingBlock: OLANEW_clean_sbu_2, # of connection points: 3
#     Node 2, Type 0, BuildingBlock: OLANEW_clean_sbu_2, # of connection points: 3
#     Node 3, Type 0, BuildingBlock: OLANEW_clean_sbu_2, # of connection points: 3
#     Node 4, Type 0, BuildingBlock: OLANEW_clean_sbu_2, # of connection points: 3
#     Node 5, Type 0, BuildingBlock: OLANEW_clean_sbu_2, # of connection points: 3
#     Node 6, Type 0, BuildingBlock: OLANEW_clean_sbu_2, # of connection points: 3
#     Node 7, Type 0, BuildingBlock: OLANEW_clean_sbu_2, # of connection points: 3
#     Node 8, Type 0, BuildingBlock: OLANEW_clean_sbu_2, # of connection points: 3
#     Node 9, Type 0, BuildingBlock: OLANEW_clean_sbu_2, # of connection points: 3
#     Node 10, Type 0, BuildingBlock: OLANEW_clean_sbu_2, # of connection points: 3
#     Node 11, Type 0, BuildingBlock: OLANEW_clean_sbu_2, # of connection points: 3
#     Node 12, Type 0, BuildingBlock: OLANEW_clean_sbu_2, # of connection points: 3
#     Node 13, Type 0, BuildingBlock: OLANEW_clean_sbu_2, # of connection points: 3
#     Node 14, Type 0, BuildingBlock: OLANEW_clean_sbu_2, # of connection points: 3
#     Node 15, Type 0, BuildingBlock: OLANEW_clean_sbu_2, # of connection points: 3
#     Node 16, Type 0, BuildingBlock: OLANEW_clean_sbu_2, # of connection points: 3
#     Node 17, Type 0, BuildingBlock: OLANEW_clean_sbu_2, # of connection points: 3
#     Node 18, Type 0, BuildingBlock: OLANEW_clean_sbu_2, # of connection points: 3
#     Node 19, Type 0, BuildingBlock: OLANEW_clean_sbu_2, # of connection points: 3
#     Node 20, Type 0, BuildingBlock: OLANEW_clean_sbu_2, # of connection points: 3
#     Node 21, Type 0, BuildingBlock: OLANEW_clean_sbu_2, # of connection points: 3
#     Node 22, Type 0, BuildingBlock: OLANEW_clean_sbu_2, # of connection points: 3
#     Node 23, Type 0, BuildingBlock: OLANEW_clean_sbu_2, # of connection points: 3
#     Node 24, Type 0, BuildingBlock: OLANEW_clean_sbu_2, # of connection points: 3
#     Node 25, Type 0, BuildingBlock: OLANEW_clean_sbu_2, # of connection points: 3
#     Node 26, Type 0, BuildingBlock: OLANEW_clean_sbu_2, # of connection points: 3
#     Node 27, Type 0, BuildingBlock: OLANEW_clean_sbu_2, # of connection points: 3
#     Node 28, Type 0, BuildingBlock: OLANEW_clean_sbu_2, # of connection points: 3
#     Node 29, Type 0, BuildingBlock: OLANEW_clean_sbu_2, # of connection points: 3
#     Node 30, Type 0, BuildingBlock: OLANEW_clean_sbu_2, # of connection points: 3
#     Node 31, Type 0, BuildingBlock: OLANEW_clean_sbu_2, # of connection points: 3
#     Node 32, Type 1, BuildingBlock: MUDLON_clean_linker_0, # of connection points: 4
#     Node 33, Type 1, BuildingBlock: MUDLON_clean_linker_0, # of connection points: 4
#     Node 34, Type 1, BuildingBlock: MUDLON_clean_linker_0, # of connection points: 4
#     Node 35, Type 1, BuildingBlock: MUDLON_clean_linker_0, # of connection points: 4
#     Node 36, Type 1, BuildingBlock: MUDLON_clean_linker_0, # of connection points: 4
#     Node 37, Type 1, BuildingBlock: MUDLON_clean_linker_0, # of connection points: 4
#     Node 38, Type 1, BuildingBlock: MUDLON_clean_linker_0, # of connection points: 4
#     Node 39, Type 1, BuildingBlock: MUDLON_clean_linker_0, # of connection points: 4
#     Node 40, Type 1, BuildingBlock: MUDLON_clean_linker_0, # of connection points: 4
#     Node 41, Type 1, BuildingBlock: MUDLON_clean_linker_0, # of connection points: 4
#     Node 42, Type 1, BuildingBlock: MUDLON_clean_linker_0, # of connection points: 4
#     Node 43, Type 1, BuildingBlock: MUDLON_clean_linker_0, # of connection points: 4
#     Node 44, Type 1, BuildingBlock: MUDLON_clean_linker_0, # of connection points: 4
#     Node 45, Type 1, BuildingBlock: MUDLON_clean_linker_0, # of connection points: 4
#     Node 46, Type 1, BuildingBlock: MUDLON_clean_linker_0, # of connection points: 4
#     Node 47, Type 1, BuildingBlock: MUDLON_clean_linker_0, # of connection points: 4
#     Node 48, Type 1, BuildingBlock: MUDLON_clean_linker_0, # of connection points: 4
#     Node 49, Type 1, BuildingBlock: MUDLON_clean_linker_0, # of connection points: 4
#     Node 50, Type 1, BuildingBlock: MUDLON_clean_linker_0, # of connection points: 4
#     Node 51, Type 1, BuildingBlock: MUDLON_clean_linker_0, # of connection points: 4
#     Node 52, Type 1, BuildingBlock: MUDLON_clean_linker_0, # of connection points: 4
#     Node 53, Type 1, BuildingBlock: MUDLON_clean_linker_0, # of connection points: 4
#     Node 54, Type 1, BuildingBlock: MUDLON_clean_linker_0, # of connection points: 4
#     Node 55, Type 1, BuildingBlock: MUDLON_clean_linker_0, # of connection points: 4
#     Edge 56, Type (0, 1), BuildingBlock: UVAHIK_clean_linker_0, # of connection points: 2
#     Edge 57, Type (0, 1), BuildingBlock: UVAHIK_clean_linker_0, # of connection points: 2
#     Edge 58, Type (0, 1), BuildingBlock: UVAHIK_clean_linker_0, # of connection points: 2
#     Edge 59, Type (0, 1), BuildingBlock: UVAHIK_clean_linker_0, # of connection points: 2
#     Edge 60, Type (0, 1), BuildingBlock: UVAHIK_clean_linker_0, # of connection points: 2
#     Edge 61, Type (0, 1), BuildingBlock: UVAHIK_clean_linker_0, # of connection points: 2
#     Edge 62, Type (0, 1), BuildingBlock: UVAHIK_clean_linker_0, # of connection points: 2
#     Edge 63, Type (0, 1), BuildingBlock: UVAHIK_clean_linker_0, # of connection points: 2
#     Edge 64, Type (0, 1), BuildingBlock: UVAHIK_clean_linker_0, # of connection points: 2
#     Edge 65, Type (0, 1), BuildingBlock: UVAHIK_clean_linker_0, # of connection points: 2
#     Edge 66, Type (0, 1), BuildingBlock: UVAHIK_clean_linker_0, # of connection points: 2
#     Edge 67, Type (0, 1), BuildingBlock: UVAHIK_clean_linker_0, # of connection points: 2
#     Edge 68, Type (0, 1), BuildingBlock: UVAHIK_clean_linker_0, # of connection points: 2
#     Edge 69, Type (0, 1), BuildingBlock: UVAHIK_clean_linker_0, # of connection points: 2
#     Edge 70, Type (0, 1), BuildingBlock: UVAHIK_clean_linker_0, # of connection points: 2
#     Edge 71, Type (0, 1), BuildingBlock: UVAHIK_clean_linker_0, # of connection points: 2
#     Edge 72, Type (0, 1), BuildingBlock: UVAHIK_clean_linker_0, # of connection points: 2
#     Edge 73, Type (0, 1), BuildingBlock: UVAHIK_clean_linker_0, # of connection points: 2
#     Edge 74, Type (0, 1), BuildingBlock: UVAHIK_clean_linker_0, # of connection points: 2
#     Edge 75, Type (0, 1), BuildingBlock: UVAHIK_clean_linker_0, # of connection points: 2
#     Edge 76, Type (0, 1), BuildingBlock: UVAHIK_clean_linker_0, # of connection points: 2
#     Edge 77, Type (0, 1), BuildingBlock: UVAHIK_clean_linker_0, # of connection points: 2
#     Edge 78, Type (0, 1), BuildingBlock: UVAHIK_clean_linker_0, # of connection points: 2
#     Edge 79, Type (0, 1), BuildingBlock: UVAHIK_clean_linker_0, # of connection points: 2
#     Edge 80, Type (0, 1), BuildingBlock: UVAHIK_clean_linker_0, # of connection points: 2
#     Edge 81, Type (0, 1), BuildingBlock: UVAHIK_clean_linker_0, # of connection points: 2
#     Edge 82, Type (0, 1), BuildingBlock: UVAHIK_clean_linker_0, # of connection points: 2
#     Edge 83, Type (0, 1), BuildingBlock: UVAHIK_clean_linker_0, # of connection points: 2
#     Edge 84, Type (0, 1), BuildingBlock: UVAHIK_clean_linker_0, # of connection points: 2
#     Edge 85, Type (0, 1), BuildingBlock: UVAHIK_clean_linker_0, # of connection points: 2
#     Edge 86, Type (0, 1), BuildingBlock: UVAHIK_clean_linker_0, # of connection points: 2
#     Edge 87, Type (0, 1), BuildingBlock: UVAHIK_clean_linker_0, # of connection points: 2
#     Edge 88, Type (0, 1), BuildingBlock: UVAHIK_clean_linker_0, # of connection points: 2
#     Edge 89, Type (0, 1), BuildingBlock: UVAHIK_clean_linker_0, # of connection points: 2
#     Edge 90, Type (0, 1), BuildingBlock: UVAHIK_clean_linker_0, # of connection points: 2
#     Edge 91, Type (0, 1), BuildingBlock: UVAHIK_clean_linker_0, # of connection points: 2
#     Edge 92, Type (0, 1), BuildingBlock: UVAHIK_clean_linker_0, # of connection points: 2
#     Edge 93, Type (0, 1), BuildingBlock: UVAHIK_clean_linker_0, # of connection points: 2
#     Edge 94, Type (0, 1), BuildingBlock: UVAHIK_clean_linker_0, # of connection points: 2
#     Edge 95, Type (0, 1), BuildingBlock: UVAHIK_clean_linker_0, # of connection points: 2
#     Edge 96, Type (0, 1), BuildingBlock: UVAHIK_clean_linker_0, # of connection points: 2
#     Edge 97, Type (0, 1), BuildingBlock: UVAHIK_clean_linker_0, # of connection points: 2
#     Edge 98, Type (0, 1), BuildingBlock: UVAHIK_clean_linker_0, # of connection points: 2
#     Edge 99, Type (0, 1), BuildingBlock: UVAHIK_clean_linker_0, # of connection points: 2
#     Edge 100, Type (0, 1), BuildingBlock: UVAHIK_clean_linker_0, # of connection points: 2
#     Edge 101, Type (0, 1), BuildingBlock: UVAHIK_clean_linker_0, # of connection points: 2
#     Edge 102, Type (0, 1), BuildingBlock: UVAHIK_clean_linker_0, # of connection points: 2
#     Edge 103, Type (0, 1), BuildingBlock: UVAHIK_clean_linker_0, # of connection points: 2
#     Edge 104, Type (0, 1), BuildingBlock: UVAHIK_clean_linker_0, # of connection points: 2
#     Edge 105, Type (0, 1), BuildingBlock: UVAHIK_clean_linker_0, # of connection points: 2
#     Edge 106, Type (0, 1), BuildingBlock: UVAHIK_clean_linker_0, # of connection points: 2
#     Edge 107, Type (0, 1), BuildingBlock: UVAHIK_clean_linker_0, # of connection points: 2
#     Edge 108, Type (0, 1), BuildingBlock: UVAHIK_clean_linker_0, # of connection points: 2
#     Edge 109, Type (0, 1), BuildingBlock: UVAHIK_clean_linker_0, # of connection points: 2
#     Edge 110, Type (0, 1), BuildingBlock: UVAHIK_clean_linker_0, # of connection points: 2
#     Edge 111, Type (0, 1), BuildingBlock: UVAHIK_clean_linker_0, # of connection points: 2
#     Edge 112, Type (0, 1), BuildingBlock: UVAHIK_clean_linker_0, # of connection points: 2
#     Edge 113, Type (0, 1), BuildingBlock: UVAHIK_clean_linker_0, # of connection points: 2
#     Edge 114, Type (0, 1), BuildingBlock: UVAHIK_clean_linker_0, # of connection points: 2
#     Edge 115, Type (0, 1), BuildingBlock: UVAHIK_clean_linker_0, # of connection points: 2
#     Edge 116, Type (0, 1), BuildingBlock: UVAHIK_clean_linker_0, # of connection points: 2
#     Edge 117, Type (0, 1), BuildingBlock: UVAHIK_clean_linker_0, # of connection points: 2
#     Edge 118, Type (0, 1), BuildingBlock: UVAHIK_clean_linker_0, # of connection points: 2
#     Edge 119, Type (0, 1), BuildingBlock: UVAHIK_clean_linker_0, # of connection points: 2
#     Edge 120, Type (0, 1), BuildingBlock: UVAHIK_clean_linker_0, # of connection points: 2
#     Edge 121, Type (0, 1), BuildingBlock: UVAHIK_clean_linker_0, # of connection points: 2
#     Edge 122, Type (0, 1), BuildingBlock: UVAHIK_clean_linker_0, # of connection points: 2
#     Edge 123, Type (0, 1), BuildingBlock: UVAHIK_clean_linker_0, # of connection points: 2
#     Edge 124, Type (0, 1), BuildingBlock: UVAHIK_clean_linker_0, # of connection points: 2
#     Edge 125, Type (0, 1), BuildingBlock: UVAHIK_clean_linker_0, # of connection points: 2
#     Edge 126, Type (0, 1), BuildingBlock: UVAHIK_clean_linker_0, # of connection points: 2
#     Edge 127, Type (0, 1), BuildingBlock: UVAHIK_clean_linker_0, # of connection points: 2
#     Edge 128, Type (0, 1), BuildingBlock: UVAHIK_clean_linker_0, # of connection points: 2
#     Edge 129, Type (0, 1), BuildingBlock: UVAHIK_clean_linker_0, # of connection points: 2
#     Edge 130, Type (0, 1), BuildingBlock: UVAHIK_clean_linker_0, # of connection points: 2
#     Edge 131, Type (0, 1), BuildingBlock: UVAHIK_clean_linker_0, # of connection points: 2
#     Edge 132, Type (0, 1), BuildingBlock: UVAHIK_clean_linker_0, # of connection points: 2
#     Edge 133, Type (0, 1), BuildingBlock: UVAHIK_clean_linker_0, # of connection points: 2
#     Edge 134, Type (0, 1), BuildingBlock: UVAHIK_clean_linker_0, # of connection points: 2
#     Edge 135, Type (0, 1), BuildingBlock: UVAHIK_clean_linker_0, # of connection points: 2
#     Edge 136, Type (0, 1), BuildingBlock: UVAHIK_clean_linker_0, # of connection points: 2
#     Edge 137, Type (0, 1), BuildingBlock: UVAHIK_clean_linker_0, # of connection points: 2
#     Edge 138, Type (0, 1), BuildingBlock: UVAHIK_clean_linker_0, # of connection points: 2
#     Edge 139, Type (0, 1), BuildingBlock: UVAHIK_clean_linker_0, # of connection points: 2
#     Edge 140, Type (0, 1), BuildingBlock: UVAHIK_clean_linker_0, # of connection points: 2
#     Edge 141, Type (0, 1), BuildingBlock: UVAHIK_clean_linker_0, # of connection points: 2
#     Edge 142, Type (0, 1), BuildingBlock: UVAHIK_clean_linker_0, # of connection points: 2
#     Edge 143, Type (0, 1), BuildingBlock: UVAHIK_clean_linker_0, # of connection points: 2
#     Edge 144, Type (0, 1), BuildingBlock: UVAHIK_clean_linker_0, # of connection points: 2
#     Edge 145, Type (0, 1), BuildingBlock: UVAHIK_clean_linker_0, # of connection points: 2
#     Edge 146, Type (0, 1), BuildingBlock: UVAHIK_clean_linker_0, # of connection points: 2
#     Edge 147, Type (0, 1), BuildingBlock: UVAHIK_clean_linker_0, # of connection points: 2
#     Edge 148, Type (0, 1), BuildingBlock: UVAHIK_clean_linker_0, # of connection points: 2
#     Edge 149, Type (0, 1), BuildingBlock: UVAHIK_clean_linker_0, # of connection points: 2
#     Edge 150, Type (0, 1), BuildingBlock: UVAHIK_clean_linker_0, # of connection points: 2
#     Edge 151, Type (0, 1), BuildingBlock: UVAHIK_clean_linker_0, # of connection points: 2
# Relax obj value: 0.017
# Max RMSD: 0.139
# Mean RMSD: 0.100
data_MOF--net-tbo--node1-OLANEW_clean_sbu_2--node2-MUDLON_clean_linker_0--edge1-UVAHIK_clean_linker_0
_symmetry_space_group_name_H-M    P1
_symmetry_Int_Tables_number       1
_symmetry_cell_setting            triclinic
loop_
_symmetry_equiv_pos_as_xyz
'x, y, z'
_cell_length_a     120.23103
_cell_length_b     123.1227
_cell_length_c     119.46203
_cell_angle_alpha  97.113345
_cell_angle_beta   87.27957
_cell_angle_gamma 99.052385
loop_
_atom_site_label
_atom_site_type_symbol
_atom_site_fract_x
_atom_site_fract_y
_atom_site_fract_z
_atom_type_partial_charge
O0 O 0.19881 0.16877 0.17629 0.0
Cd1 Cd 0.18629 0.15793 0.18895 0.0
O2 O 0.19091 0.1839 0.17941 0.0
Cd3 Cd 0.17683 0.1779 0.19046 0.0
O4 O 0.16061 0.18008 0.19891 0.0
C5 C 0.15382 0.18411 0.19333 0.0
O6 O 0.15677 0.18615 0.18297 0.0
C7 C 0.19851 0.17871 0.17458 0.0
C8 C 0.1973 0.14186 0.19642 0.0
O9 O 0.19177 0.13984 0.18729 0.0
O10 O 0.19752 0.15144 0.20208 0.0
O11 O 0.84264 0.18966 0.17346 0.0
Cd12 Cd 0.82602 0.17818 0.1651 0.0
O13 O 0.84658 0.17441 0.17871 0.0
Cd14 Cd 0.854 0.16318 0.18785 0.0
O15 O 0.84966 0.14819 0.19606 0.0
C16 C 0.84188 0.14857 0.2036 0.0
O17 O 0.83791 0.15793 0.20632 0.0
C18 C 0.84906 0.18482 0.17861 0.0
C19 C 0.82116 0.18519 0.14492 0.0
O20 O 0.81737 0.18947 0.15439 0.0
O21 O 0.82722 0.17752 0.145 0.0
O22 O 0.88576 0.84846 0.18505 0.0
Cd23 Cd 0.89183 0.86142 0.20164 0.0
O24 O 0.88134 0.86169 0.17608 0.0
Cd25 Cd 0.884 0.8747 0.19029 0.0
O26 O 0.87719 0.88732 0.20194 0.0
C27 C 0.86697 0.88801 0.20026 0.0
O28 O 0.86178 0.88135 0.19203 0.0
C29 C 0.88219 0.85154 0.17628 0.0
C30 C 0.91068 0.8567 0.2118 0.0
O31 O 0.90071 0.85217 0.21442 0.0
O32 O 0.91177 0.86337 0.20425 0.0
O33 O 0.27548 0.83175 0.19595 0.0
Cd34 Cd 0.27929 0.81286 0.19086 0.0
O35 O 0.26118 0.82498 0.20636 0.0
Cd36 Cd 0.2462 0.82653 0.21716 0.0
O37 O 0.23143 0.82935 0.22777 0.0
C38 C 0.22169 0.82707 0.22362 0.0
O39 O 0.22073 0.82299 0.21295 0.0
C40 C 0.26725 0.83329 0.2027 0.0
C41 C 0.27559 0.80559 0.16815 0.0
O42 O 0.26766 0.804 0.1756 0.0
O43 O 0.28523 0.81064 0.17147 0.0
O44 O 0.19553 0.8436 0.84474 0.0
Cd45 Cd 0.18432 0.82643 0.84976 0.0
O46 O 0.19256 0.85301 0.86123 0.0
Cd47 Cd 0.17857 0.84027 0.86495 0.0
O48 O 0.16245 0.82995 0.86081 0.0
C49 C 0.15592 0.83432 0.85526 0.0
O50 O 0.15913 0.84451 0.85291 0.0
C51 C 0.19755 0.85241 0.85159 0.0
C52 C 0.19673 0.81606 0.86329 0.0
O53 O 0.1967 0.81354 0.85255 0.0
O54 O 0.19079 0.82338 0.86762 0.0
O55 O 0.19563 0.17759 0.89498 0.0
Cd56 Cd 0.18261 0.16665 0.88125 0.0
O57 O 0.18681 0.19207 0.89594 0.0
Cd58 Cd 0.17466 0.18604 0.88272 0.0
O59 O 0.16275 0.1913 0.87202 0.0
C60 C 0.16171 0.20146 0.87432 0.0
O61 O 0.16757 0.20738 0.88257 0.0
C62 C 0.19455 0.18737 0.89924 0.0
C63 C 0.19209 0.1498 0.86825 0.0
O64 O 0.19182 0.15905 0.86447 0.0
O65 O 0.18793 0.14854 0.87817 0.0
O66 O 0.84265 0.22381 0.82255 0.0
Cd67 Cd 0.8543 0.22792 0.80596 0.0
O68 O 0.85432 0.21266 0.82591 0.0
Cd69 Cd 0.85859 0.19962 0.835 0.0
O70 O 0.85569 0.18265 0.83912 0.0
C71 C 0.846 0.17907 0.8431 0.0
O72 O 0.83867 0.18597 0.84534 0.0
C73 C 0.84563 0.21717 0.82874 0.0
C74 C 0.87625 0.23571 0.81267 0.0
O75 O 0.8691 0.24236 0.81235 0.0
O76 O 0.87305 0.22538 0.80963 0.0
O77 O 0.87639 0.86992 0.85685 0.0
Cd78 Cd 0.86449 0.87975 0.87049 0.0
O79 O 0.87272 0.85458 0.86498 0.0
Cd80 Cd 0.86182 0.86003 0.87903 0.0
O81 O 0.85242 0.85537 0.89429 0.0
C82 C 0.85406 0.84611 0.89705 0.0
O83 O 0.86106 0.84057 0.89078 0.0
C84 C 0.87766 0.8599 0.85722 0.0
C85 C 0.8526 0.89372 0.86061 0.0
O86 O 0.86246 0.89724 0.86445 0.0
O87 O 0.8484 0.8836 0.8614 0.0
O88 O 0.19186 0.66171 0.66878 0.0
Cd89 Cd 0.18331 0.65091 0.68374 0.0
O90 O 0.17925 0.67245 0.67392 0.0
Cd91 Cd 0.16899 0.6857 0.67412 0.0
O92 O 0.15518 0.69504 0.67937 0.0
C93 C 0.14577 0.68948 0.68194 0.0
O94 O 0.14483 0.67862 0.68094 0.0
C95 C 0.18762 0.6703 0.66757 0.0
C96 C 0.19543 0.63497 0.6896 0.0
O97 O 0.18759 0.63238 0.68239 0.0
O98 O 0.1977 0.64513 0.69381 0.0
O99 O 0.83256 0.69652 0.68697 0.0
Cd100 Cd 0.81567 0.68731 0.67712 0.0
O101 O 0.83785 0.68023 0.68614 0.0
Cd102 Cd 0.8478 0.66822 0.69089 0.0
O103 O 0.84986 0.65346 0.69846 0.0
C104 C 0.8534 0.65426 0.70843 0.0
O105 O 0.85659 0.66415 0.71382 0.0
C106 C 0.83974 0.6906 0.68918 0.0
C107 C 0.81494 0.69434 0.65593 0.0
O108 O 0.81041 0.69927 0.66465 0.0
O109 O 0.81976 0.68603 0.65722 0.0
O110 O 0.87825 0.33552 0.69579 0.0
Cd111 Cd 0.88286 0.34623 0.71407 0.0
O112 O 0.88242 0.34973 0.68607 0.0
Cd113 Cd 0.88445 0.36167 0.7012 0.0
O114 O 0.87769 0.37425 0.7129 0.0
C115 C 0.87735 0.3836 0.70957 0.0
O116 O 0.88183 0.38555 0.69963 0.0
C117 C 0.87925 0.33942 0.68636 0.0
C118 C 0.9032 0.34242 0.722 0.0
O119 O 0.89398 0.33592 0.72359 0.0
O120 O 0.90282 0.35073 0.71662 0.0
O121 O 0.28483 0.33127 0.70849 0.0
Cd122 Cd 0.28767 0.31238 0.70182 0.0
O123 O 0.26829 0.32395 0.71477 0.0
Cd124 Cd 0.25152 0.32462 0.72247 0.0
O125 O 0.23553 0.32594 0.73153 0.0
C126 C 0.22853 0.33144 0.72811 0.0
O127 O 0.23102 0.33636 0.71896 0.0
C128 C 0.2755 0.33249 0.71355 0.0
C129 C 0.28078 0.30658 0.67968 0.0
O130 O 0.27379 0.30509 0.68799 0.0
O131 O 0.29101 0.31075 0.68188 0.0
O132 O 0.20997 0.32305 0.32719 0.0
Cd133 Cd 0.19964 0.30524 0.33147 0.0
O134 O 0.19467 0.32925 0.33384 0.0
Cd135 Cd 0.182 0.34028 0.33679 0.0
O136 O 0.16423 0.34164 0.33599 0.0
C137 C 0.16048 0.34273 0.3265 0.0
O138 O 0.16765 0.34409 0.31795 0.0
C139 C 0.20449 0.33111 0.32937 0.0
C140 C 0.20628 0.29852 0.35119 0.0
O141 O 0.21029 0.29496 0.34153 0.0
O142 O 0.19921 0.30534 0.35153 0.0
O143 O 0.19023 0.67048 0.38624 0.0
Cd144 Cd 0.17928 0.65731 0.37235 0.0
O145 O 0.17913 0.68227 0.38348 0.0
Cd146 Cd 0.17084 0.69705 0.38518 0.0
O147 O 0.16109 0.7099 0.38207 0.0
C148 C 0.16586 0.71817 0.37733 0.0
O149 O 0.17669 0.71902 0.3748 0.0
C150 C 0.18738 0.68003 0.38863 0.0
C151 C 0.19154 0.64222 0.35995 0.0
O152 O 0.19065 0.65145 0.35639 0.0
O153 O 0.18678 0.64022 0.36946 0.0
O154 O 0.84977 0.72545 0.30858 0.0
Cd155 Cd 0.85881 0.72954 0.29061 0.0
O156 O 0.8616 0.71366 0.30886 0.0
Cd157 Cd 0.86759 0.7001 0.31578 0.0
O158 O 0.86628 0.68303 0.31929 0.0
C159 C 0.85761 0.67911 0.32483 0.0
O160 O 0.85041 0.68573 0.32883 0.0
C161 C 0.85371 0.71846 0.31364 0.0
C162 C 0.88026 0.741 0.29522 0.0
O163 O 0.87188 0.74616 0.29465 0.0
O164 O 0.87855 0.7304 0.29327 0.0
O165 O 0.88432 0.36994 0.35679 0.0
Cd166 Cd 0.87185 0.37939 0.37013 0.0
O167 O 0.88796 0.35918 0.36914 0.0
Cd168 Cd 0.87627 0.36415 0.38267 0.0
O169 O 0.86562 0.35977 0.39731 0.0
C170 C 0.87031 0.35938 0.40654 0.0
O171 O 0.88126 0.3624 0.40717 0.0
C172 C 0.88952 0.36241 0.35939 0.0
C173 C 0.86026 0.39348 0.36009 0.0
O174 O 0.86998 0.39699 0.36426 0.0
O175 O 0.85607 0.38331 0.36062 0.0
O176 O 0.69902 0.1731 0.68572 0.0
Cd177 Cd 0.68949 0.16701 0.70295 0.0
O178 O 0.68562 0.18198 0.68121 0.0
Cd179 Cd 0.67362 0.17908 0.69529 0.0
O180 O 0.65842 0.18402 0.70403 0.0
C181 C 0.65807 0.19437 0.70515 0.0
O182 O 0.66684 0.20102 0.70166 0.0
C183 C 0.69521 0.17891 0.67913 0.0
C184 C 0.69991 0.15089 0.71112 0.0
O185 O 0.69118 0.14814 0.70503 0.0
O186 O 0.70367 0.16123 0.71336 0.0
O187 O 0.35542 0.17063 0.66747 0.0
Cd188 Cd 0.33948 0.15638 0.66172 0.0
O189 O 0.36493 0.15928 0.67443 0.0
Cd190 Cd 0.35154 0.14515 0.67172 0.0
O191 O 0.33878 0.13161 0.67618 0.0
C192 C 0.34207 0.12322 0.67943 0.0
O193 O 0.35292 0.1228 0.67933 0.0
C194 C 0.36416 0.16895 0.67217 0.0
C195 C 0.32963 0.1618 0.64291 0.0
O196 O 0.3267 0.16552 0.65293 0.0
O197 O 0.33712 0.15537 0.64177 0.0
O198 O 0.37845 0.83625 0.68963 0.0
Cd199 Cd 0.38444 0.84741 0.70735 0.0
O200 O 0.37452 0.85049 0.68195 0.0
Cd201 Cd 0.37827 0.86266 0.69672 0.0
O202 O 0.37395 0.87653 0.70848 0.0
C203 C 0.36402 0.87856 0.70748 0.0
O204 O 0.35757 0.87226 0.6999 0.0
C205 C 0.375 0.84019 0.68131 0.0
C206 C 0.40443 0.84263 0.71518 0.0
O207 O 0.39494 0.8367 0.7171 0.0
O208 O 0.4045 0.8508 0.70947 0.0
O209 O 0.78115 0.84759 0.70223 0.0
Cd210 Cd 0.78986 0.83198 0.69346 0.0
O211 O 0.76599 0.83623 0.70631 0.0
Cd212 Cd 0.7487 0.83226 0.71272 0.0
O213 O 0.73217 0.82925 0.72098 0.0
C214 C 0.72608 0.83687 0.72287 0.0
O215 O 0.72981 0.84664 0.71965 0.0
C216 C 0.77128 0.84605 0.70661 0.0
C217 C 0.78766 0.82937 0.67016 0.0
O218 O 0.79588 0.83598 0.67489 0.0
O219 O 0.78047 0.82394 0.67647 0.0
O220 O 0.69121 0.85556 0.36378 0.0
Cd221 Cd 0.68224 0.84219 0.37619 0.0
O222 O 0.67423 0.85807 0.36007 0.0
Cd223 Cd 0.66177 0.86402 0.3506 0.0
O224 O 0.64708 0.86199 0.3401 0.0
C225 C 0.64793 0.85738 0.33004 0.0
O226 O 0.65775 0.85485 0.32625 0.0
C227 C 0.68483 0.86041 0.35859 0.0
C228 C 0.69783 0.83198 0.38592 0.0
O229 O 0.69332 0.82769 0.37656 0.0
O230 O 0.69498 0.8411 0.39063 0.0
O231 O 0.69999 0.18582 0.37728 0.0
Cd232 Cd 0.68755 0.17925 0.36144 0.0
O233 O 0.68587 0.18749 0.38945 0.0
Cd234 Cd 0.67348 0.18615 0.37636 0.0
O235 O 0.66265 0.1943 0.367 0.0
C236 C 0.66725 0.20336 0.36358 0.0
O237 O 0.67804 0.20668 0.36528 0.0
C238 C 0.69639 0.18781 0.3874 0.0
C239 C 0.6937 0.16004 0.34944 0.0
O240 O 0.69738 0.1696 0.34637 0.0
O241 O 0.68704 0.15956 0.35812 0.0
O242 O 0.34999 0.21846 0.32032 0.0
Cd243 Cd 0.36188 0.22048 0.30341 0.0
O244 O 0.36081 0.20692 0.32463 0.0
Cd245 Cd 0.36424 0.1938 0.33408 0.0
O246 O 0.36149 0.1761 0.33535 0.0
C247 C 0.35162 0.17165 0.33804 0.0
O248 O 0.34394 0.17806 0.34097 0.0
C249 C 0.35245 0.21203 0.32705 0.0
C250 C 0.38331 0.2309 0.30959 0.0
O251 O 0.37572 0.2365 0.30738 0.0
O252 O 0.38081 0.22033 0.30872 0.0
O253 O 0.37848 0.86264 0.34482 0.0
Cd254 Cd 0.36539 0.87286 0.35654 0.0
O255 O 0.37619 0.84923 0.35573 0.0
Cd256 Cd 0.36456 0.85571 0.36855 0.0
O257 O 0.35398 0.8525 0.38357 0.0
C258 C 0.3534 0.84267 0.38606 0.0
O259 O 0.35892 0.83577 0.37958 0.0
C260 C 0.38068 0.85337 0.34705 0.0
C261 C 0.3566 0.88798 0.34512 0.0
O262 O 0.36533 0.89104 0.35115 0.0
O263 O 0.3521 0.87777 0.34444 0.0
O264 O 0.69741 0.66483 0.18324 0.0
Cd265 Cd 0.68519 0.65542 0.19721 0.0
O266 O 0.69633 0.68151 0.19191 0.0
Cd267 Cd 0.68253 0.67641 0.20366 0.0
O268 O 0.66614 0.67896 0.21148 0.0
C269 C 0.66203 0.68685 0.2081 0.0
O270 O 0.66779 0.69249 0.20052 0.0
C271 C 0.70044 0.67527 0.18402 0.0
C272 C 0.69578 0.63986 0.20615 0.0
O273 O 0.68989 0.63717 0.19728 0.0
O274 O 0.69662 0.64989 0.21082 0.0
O275 O 0.33004 0.69974 0.18815 0.0
Cd276 Cd 0.31297 0.70007 0.17808 0.0
O277 O 0.3296 0.68192 0.18328 0.0
Cd278 Cd 0.33449 0.66575 0.18443 0.0
O279 O 0.33226 0.64853 0.18787 0.0
C280 C 0.33845 0.64509 0.19458 0.0
O281 O 0.34688 0.65199 0.19926 0.0
C282 C 0.33431 0.69099 0.18848 0.0
C283 C 0.3168 0.69947 0.15486 0.0
O284 O 0.31892 0.70855 0.16143 0.0
O285 O 0.31294 0.69061 0.15928 0.0
O286 O 0.38406 0.34621 0.20368 0.0
Cd287 Cd 0.38957 0.35949 0.22021 0.0
O288 O 0.39386 0.35581 0.19122 0.0
Cd289 Cd 0.39723 0.37003 0.20408 0.0
O290 O 0.38999 0.38312 0.21458 0.0
C291 C 0.37967 0.38309 0.2127 0.0
O292 O 0.37474 0.37552 0.20502 0.0
C293 C 0.38744 0.34708 0.19353 0.0
C294 C 0.40917 0.35568 0.22971 0.0
O295 O 0.39948 0.35054 0.23241 0.0
O296 O 0.40961 0.36261 0.22247 0.0
O297 O 0.77805 0.33642 0.20944 0.0
Cd298 Cd 0.78247 0.31844 0.20122 0.0
O299 O 0.76143 0.32794 0.21424 0.0
Cd300 Cd 0.74426 0.3274 0.22123 0.0
O301 O 0.72854 0.32805 0.23096 0.0
C302 C 0.72401 0.33679 0.23229 0.0
O303 O 0.72879 0.34547 0.22751 0.0
C304 C 0.76839 0.33685 0.2141 0.0
C305 C 0.77542 0.31375 0.17905 0.0
O306 O 0.76878 0.31098 0.18728 0.0
O307 O 0.7854 0.31867 0.18132 0.0
O308 O 0.69476 0.36261 0.85724 0.0
Cd309 Cd 0.68728 0.34976 0.87069 0.0
O310 O 0.67755 0.36617 0.85669 0.0
Cd311 Cd 0.66404 0.37246 0.84916 0.0
O312 O 0.64949 0.37036 0.83851 0.0
C313 C 0.65117 0.36921 0.82788 0.0
O314 O 0.66159 0.3702 0.82383 0.0
C315 C 0.68779 0.36779 0.8533 0.0
C316 C 0.70418 0.34311 0.88214 0.0
O317 O 0.70071 0.33778 0.87273 0.0
O318 O 0.69968 0.35162 0.88609 0.0
O319 O 0.69569 0.68002 0.87809 0.0
Cd320 Cd 0.68446 0.67228 0.86159 0.0
O321 O 0.68127 0.67718 0.88997 0.0
Cd322 Cd 0.66922 0.67402 0.87642 0.0
O323 O 0.65893 0.68069 0.86514 0.0
C324 C 0.66315 0.69009 0.86222 0.0
O325 O 0.67322 0.69459 0.8657 0.0
C326 C 0.69175 0.68021 0.88818 0.0
C327 C 0.69307 0.65428 0.84973 0.0
O328 O 0.69575 0.66404 0.84679 0.0
O329 O 0.68628 0.65303 0.85823 0.0
O330 O 0.34155 0.71796 0.80953 0.0
Cd331 Cd 0.35257 0.72436 0.79338 0.0
O332 O 0.35416 0.70718 0.81101 0.0
Cd333 Cd 0.35971 0.69346 0.81805 0.0
O334 O 0.35799 0.67576 0.81911 0.0
C335 C 0.35081 0.67137 0.82602 0.0
O336 O 0.34529 0.67781 0.83308 0.0
C337 C 0.34521 0.71087 0.81467 0.0
C338 C 0.37474 0.73112 0.79991 0.0
O339 O 0.36761 0.73793 0.80096 0.0
O340 O 0.37142 0.72115 0.79555 0.0
O341 O 0.37666 0.36941 0.85085 0.0
Cd342 Cd 0.36449 0.37828 0.86502 0.0
O343 O 0.37338 0.35367 0.85826 0.0
Cd344 Cd 0.36246 0.35872 0.87248 0.0
O345 O 0.35323 0.35494 0.8881 0.0
C346 C 0.35326 0.34511 0.8903 0.0
O347 O 0.35855 0.33848 0.88321 0.0
C348 C 0.37818 0.35941 0.85074 0.0
C349 C 0.35231 0.3927 0.85625 0.0
O350 O 0.36209 0.39616 0.8603 0.0
O351 O 0.34834 0.38241 0.85628 0.0
H352 H 0.29004 0.26151 0.99319 0.0
N353 N 0.28212 0.2764 0.00942 0.0
H354 H 0.27872 0.24791 0.98009 0.0
H355 H 0.25984 0.27126 0.00957 0.0
H356 H 0.24837 0.25749 0.99656 0.0
H357 H 0.27595 0.29369 0.00155 0.0
H358 H 0.28643 0.30534 0.98822 0.0
H359 H 0.30451 0.27671 0.00297 0.0
H360 H 0.31507 0.28842 0.98997 0.0
H361 H 0.29646 0.2615 0.0116 0.0
H362 H 0.27675 0.28437 0.03025 0.0
H363 H 0.30282 0.25679 0.02911 0.0
H364 H 0.28235 0.27909 0.04795 0.0
H365 H 0.30678 0.23551 0.09087 0.0
H366 H 0.2922 0.22497 0.10188 0.0
H367 H 0.26892 0.24694 0.09594 0.0
H368 H 0.28367 0.25764 0.08533 0.0
H369 H 0.29889 0.269 0.09846 0.0
H370 H 0.31097 0.28099 0.11221 0.0
H371 H 0.34016 0.26882 0.09589 0.0
H372 H 0.32792 0.25663 0.08214 0.0
H373 H 0.30282 0.24162 0.0618 0.0
H374 H 0.2972 0.24701 0.04419 0.0
H375 H 0.29657 0.28029 0.06058 0.0
N376 N 0.30551 0.25383 0.08167 0.0
H377 H 0.30134 0.2746 0.07823 0.0
C378 C 0.27575 0.26745 0.00236 0.0
C379 C 0.28097 0.26058 0.99413 0.0
C380 C 0.27447 0.25276 0.98664 0.0
C381 C 0.26264 0.25167 0.98723 0.0
C382 C 0.25746 0.25825 0.99577 0.0
C383 C 0.26397 0.26605 0.00325 0.0
C384 C 0.28934 0.2843 0.0033 0.0
C385 C 0.28458 0.29269 0.99924 0.0
C386 C 0.2906 0.29935 0.99164 0.0
C387 C 0.30156 0.29774 0.98794 0.0
C388 C 0.30657 0.28975 0.99251 0.0
C389 C 0.30053 0.28307 7e-05 0.0
C390 C 0.28627 0.2735 0.0196 0.0
C391 C 0.29353 0.26557 0.01946 0.0
C392 C 0.29703 0.26274 0.02957 0.0
C393 C 0.29312 0.26751 0.04005 0.0
C394 C 0.28577 0.27538 0.04011 0.0
C395 C 0.28248 0.27838 0.03 0.0
C396 C 0.29634 0.24729 0.08721 0.0
C397 C 0.29848 0.23795 0.09186 0.0
C398 C 0.29011 0.23192 0.09811 0.0
C399 C 0.27936 0.23509 0.09982 0.0
C400 C 0.27714 0.24434 0.09493 0.0
C401 C 0.28555 0.25041 0.08874 0.0
C402 C 0.31251 0.26175 0.08932 0.0
C403 C 0.30787 0.26886 0.0978 0.0
C404 C 0.31479 0.27573 0.10567 0.0
C405 C 0.32649 0.27574 0.10518 0.0
C406 C 0.33117 0.26899 0.09645 0.0
C407 C 0.32422 0.26202 0.08862 0.0
C408 C 0.30266 0.25765 0.07134 0.0
C409 C 0.30147 0.25007 0.06155 0.0
C410 C 0.29835 0.25323 0.05146 0.0
C411 C 0.29649 0.26415 0.05085 0.0
C412 C 0.29775 0.27177 0.06069 0.0
C413 C 0.30065 0.26854 0.07085 0.0
H414 H 0.81097 0.26919 0.94793 0.0
N415 N 0.79188 0.26873 0.96002 0.0
H416 H 0.81619 0.25498 0.93334 0.0
H417 H 0.78019 0.24779 0.95515 0.0
H418 H 0.78533 0.23351 0.94055 0.0
H419 H 0.77314 0.26265 0.94707 0.0
H420 H 0.76336 0.27484 0.93797 0.0
H421 H 0.79696 0.29063 0.96052 0.0
H422 H 0.78702 0.30302 0.9514 0.0
H423 H 0.80395 0.26463 0.9766 0.0
H424 H 0.76974 0.26618 0.96821 0.0
H425 H 0.79733 0.25959 0.99515 0.0
H426 H 0.76325 0.26208 0.98685 0.0
H427 H 0.78236 0.2573 0.05006 0.0
H428 H 0.79305 0.24603 0.05938 0.0
H429 H 0.77294 0.21637 0.04357 0.0
H430 H 0.76202 0.22785 0.03441 0.0
H431 H 0.74883 0.246 0.0532 0.0
H432 H 0.74531 0.25851 0.06999 0.0
H433 H 0.76677 0.28529 0.05585 0.0
H434 H 0.77059 0.27279 0.03941 0.0
H435 H 0.78442 0.2618 0.03119 0.0
H436 H 0.79076 0.26648 0.01259 0.0
H437 H 0.75952 0.24858 0.99886 0.0
N438 N 0.76408 0.24986 0.03684 0.0
H439 H 0.75293 0.24466 0.01781 0.0
C440 C 0.79521 0.25961 0.95254 0.0
C441 C 0.80546 0.26133 0.94649 0.0
C442 C 0.80844 0.25318 0.93822 0.0
C443 C 0.80115 0.24313 0.9358 0.0
C444 C 0.79107 0.2412 0.94219 0.0
C445 C 0.78814 0.24935 0.95054 0.0
C446 C 0.78585 0.27574 0.95452 0.0
C447 C 0.77632 0.27142 0.94804 0.0
C448 C 0.77065 0.27842 0.94291 0.0
C449 C 0.77439 0.28988 0.94403 0.0
C450 C 0.78399 0.2942 0.95036 0.0
C451 C 0.78963 0.28718 0.95559 0.0
C452 C 0.78749 0.26594 0.97096 0.0
C453 C 0.79504 0.26403 0.97881 0.0
C454 C 0.79124 0.26125 0.98945 0.0
C455 C 0.77973 0.26052 0.99262 0.0
C456 C 0.77214 0.26239 0.98472 0.0
C457 C 0.77592 0.26491 0.97398 0.0
C458 C 0.7713 0.24338 0.04158 0.0
C459 C 0.78033 0.24838 0.04844 0.0
C460 C 0.78651 0.2419 0.05372 0.0
C461 C 0.78384 0.23029 0.05224 0.0
C462 C 0.77511 0.2253 0.045 0.0
C463 C 0.7689 0.23181 0.03973 0.0
C464 C 0.76017 0.25821 0.04505 0.0
C465 C 0.75256 0.25464 0.0536 0.0
C466 C 0.75053 0.26184 0.0632 0.0
C467 C 0.75596 0.27288 0.0644 0.0
C468 C 0.76272 0.27675 0.05536 0.0
C469 C 0.76488 0.26951 0.04583 0.0
C470 C 0.76805 0.25304 0.02594 0.0
C471 C 0.77885 0.259 0.02423 0.0
C472 C 0.78254 0.26156 0.01349 0.0
C473 C 0.77569 0.25791 0.00412 0.0
C474 C 0.76496 0.25177 0.00585 0.0
C475 C 0.76118 0.24945 0.01667 0.0
H476 H 0.76163 0.78938 0.99329 0.0
N477 N 0.76535 0.77281 0.00408 0.0
H478 H 0.77503 0.80061 0.98176 0.0
H479 H 0.78802 0.7722 0.00189 0.0
H480 H 0.80162 0.7836 0.99062 0.0
H481 H 0.77512 0.7563 0.99182 0.0
H482 H 0.76585 0.74178 0.97804 0.0
H483 H 0.74351 0.76813 4e-05 0.0
H484 H 0.73411 0.75355 0.98628 0.0
H485 H 0.76093 0.78639 0.0221 0.0
H486 H 0.77465 0.75626 0.01199 0.0
H487 H 0.76382 0.78469 0.04184 0.0
H488 H 0.77698 0.75411 0.03171 0.0
H489 H 0.78017 0.78777 0.09476 0.0
H490 H 0.79742 0.79731 0.10385 0.0
H491 H 0.81264 0.76762 0.096 0.0
H492 H 0.79533 0.75815 0.08709 0.0
H493 H 0.7792 0.74521 0.08186 0.0
H494 H 0.77 0.73009 0.09231 0.0
H495 H 0.75024 0.75265 0.11163 0.0
H496 H 0.75967 0.76772 0.10136 0.0
H497 H 0.75903 0.77356 0.07633 0.0
H498 H 0.75636 0.77436 0.05634 0.0
H499 H 0.78728 0.76089 0.04814 0.0
N500 N 0.77589 0.76684 0.08564 0.0
H501 H 0.78945 0.75955 0.06813 0.0
C502 C 0.77381 0.78001 0.99844 0.0
C503 C 0.7704 0.78821 0.99285 0.0
C504 C 0.77809 0.79465 0.98632 0.0
C505 C 0.78943 0.79302 0.98525 0.0
C506 C 0.79293 0.78498 0.99115 0.0
C507 C 0.78518 0.77851 0.99767 0.0
C508 C 0.75996 0.76331 0.99697 0.0
C509 C 0.76614 0.75564 0.99083 0.0
C510 C 0.76082 0.74732 0.98296 0.0
C511 C 0.74927 0.74657 0.98102 0.0
C512 C 0.74305 0.754 0.98749 0.0
C513 C 0.74836 0.76227 0.99539 0.0
C514 C 0.76739 0.77143 0.01557 0.0
C515 C 0.76447 0.77935 0.02418 0.0
C516 C 0.76604 0.77829 0.03546 0.0
C517 C 0.77047 0.76915 0.03845 0.0
C518 C 0.77361 0.76129 0.02977 0.0
C519 C 0.77217 0.76245 0.01843 0.0
C520 C 0.78643 0.77229 0.0903 0.0
C521 C 0.78728 0.78338 0.09494 0.0
C522 C 0.79716 0.78881 0.10007 0.0
C523 C 0.80642 0.78322 0.10065 0.0
C524 C 0.80562 0.77212 0.0958 0.0
C525 C 0.79572 0.7667 0.09065 0.0
C526 C 0.77017 0.7576 0.09098 0.0
C527 C 0.77293 0.74688 0.08838 0.0
C528 C 0.76766 0.73826 0.09432 0.0
C529 C 0.75941 0.74021 0.10277 0.0
C530 C 0.75648 0.75088 0.10509 0.0
C531 C 0.76186 0.75949 0.09928 0.0
C532 C 0.77447 0.76666 0.07373 0.0
C533 C 0.76516 0.77071 0.07017 0.0
C534 C 0.76373 0.77126 0.05875 0.0
C535 C 0.77172 0.76788 0.05057 0.0
C536 C 0.78093 0.76352 0.05415 0.0
C537 C 0.78225 0.76283 0.06562 0.0
H538 H 0.30626 0.75394 0.93499 0.0
N539 N 0.28798 0.75002 0.94808 0.0
H540 H 0.3133 0.7412 0.91992 0.0
H541 H 0.28009 0.72787 0.94354 0.0
H542 H 0.28698 0.71508 0.92835 0.0
H543 H 0.2685 0.74015 0.93758 0.0
H544 H 0.25609 0.7492 0.92756 0.0
H545 H 0.28892 0.77167 0.94728 0.0
H546 H 0.27636 0.78087 0.93728 0.0
H547 H 0.30316 0.74742 0.96253 0.0
H548 H 0.26726 0.74539 0.95919 0.0
H549 H 0.30001 0.74193 0.98145 0.0
H550 H 0.26414 0.74079 0.97828 0.0
H551 H 0.29229 0.74163 0.03853 0.0
H552 H 0.30422 0.73348 0.04981 0.0
H553 H 0.28695 0.70082 0.038 0.0
H554 H 0.27455 0.70923 0.02708 0.0
H555 H 0.25935 0.72652 0.04433 0.0
H556 H 0.2555 0.73938 0.06076 0.0
H557 H 0.27383 0.76652 0.04451 0.0
H558 H 0.27799 0.75371 0.02843 0.0
H559 H 0.29226 0.74355 0.01889 0.0
H560 H 0.29535 0.74814 -0.00027 0.0
H561 H 0.26391 0.72741 0.99027 0.0
N562 N 0.27367 0.73074 0.02727 0.0
H563 H 0.26054 0.72355 0.00982 0.0
C564 C 0.29263 0.7419 0.94026 0.0
C565 C 0.30217 0.7454 0.93371 0.0
C566 C 0.30619 0.7381 0.92517 0.0
C567 C 0.30066 0.72716 0.92296 0.0
C568 C 0.29135 0.7235 0.92983 0.0
C569 C 0.28741 0.73079 0.93849 0.0
C570 C 0.27977 0.75524 0.9431 0.0
C571 C 0.27033 0.74902 0.93758 0.0
C572 C 0.26322 0.75421 0.93184 0.0
C573 C 0.26532 0.76572 0.93154 0.0
C574 C 0.2745 0.77199 0.93741 0.0
C575 C 0.28168 0.76677 0.9431 0.0
C576 C 0.28555 0.74689 0.95933 0.0
C577 C 0.29461 0.7459 0.96591 0.0
C578 C 0.29278 0.74286 0.9768 0.0
C579 C 0.2818 0.74098 0.98153 0.0
C580 C 0.2727 0.74197 0.97492 0.0
C581 C 0.27452 0.74475 0.96392 0.0
C582 C 0.28236 0.72602 0.03207 0.0
C583 C 0.29119 0.7327 0.03814 0.0
C584 C 0.29811 0.72798 0.04458 0.0
C585 C 0.29649 0.71646 0.04498 0.0
C586 C 0.28828 0.70974 0.03812 0.0
C587 C 0.28125 0.7145 0.03179 0.0
C588 C 0.26911 0.73896 0.03514 0.0
C589 C 0.26225 0.73529 0.04418 0.0
C590 C 0.26005 0.74268 0.05357 0.0
C591 C 0.26457 0.75397 0.05406 0.0
C592 C 0.27048 0.75783 0.04454 0.0
C593 C 0.2728 0.75042 0.03521 0.0
C594 C 0.27604 0.7333 0.01585 0.0
C595 C 0.286 0.74003 0.01274 0.0
C596 C 0.28781 0.74256 0.00167 0.0
C597 C 0.27989 0.73817 0.99334 0.0
C598 C 0.27009 0.73118 0.99645 0.0
C599 C 0.26817 0.72887 0.0076 0.0
H600 H 0.95492 0.2705 0.27172 0.0
N601 N 0.96796 0.27647 0.25337 0.0
H602 H 0.94577 0.28273 0.28554 0.0
H603 H 0.97016 0.29846 0.255 0.0
H604 H 0.96088 0.31084 0.26878 0.0
H605 H 0.9571 0.27984 0.23557 0.0
H606 H 0.94211 0.26716 0.22545 0.0
H607 H 0.95962 0.25539 0.25783 0.0
H608 H 0.94453 0.24272 0.2479 0.0
H609 H 0.97682 0.27488 0.27414 0.0
H610 H 0.98199 0.26795 0.23808 0.0
H611 H 0.99378 0.26765 0.2772 0.0
H612 H 0.9987 0.25993 0.24117 0.0
H613 H 0.04974 0.25126 0.2893 0.0
H614 H 0.06213 0.2667 0.29941 0.0
H615 H 0.05714 0.28744 0.27399 0.0
H616 H 0.04526 0.27201 0.26381 0.0
H617 H 0.05393 0.25735 0.25218 0.0
H618 H 0.06622 0.24619 0.24074 0.0
H619 H 0.05305 0.21814 0.25841 0.0
H620 H 0.04072 0.22946 0.26994 0.0
H621 H 0.0205 0.24715 0.28118 0.0
H622 H 0.00237 0.25206 0.27694 0.0
H623 H 0.01722 0.26441 0.24638 0.0
N624 N 0.0399 0.25086 0.26976 0.0
H625 H 0.0349 0.25873 0.25029 0.0
C626 C 0.96322 0.28358 0.26226 0.0
C627 C 0.9563 0.27928 0.27102 0.0
C628 C 0.95104 0.2863 0.2789 0.0
C629 C 0.9525 0.29776 0.2782 0.0
C630 C 0.95965 0.30207 0.26962 0.0
C631 C 0.96493 0.29503 0.26173 0.0
C632 C 0.95946 0.26857 0.24739 0.0
C633 C 0.95441 0.27172 0.23823 0.0
C634 C 0.94582 0.2645 0.23253 0.0
C635 C 0.94211 0.25395 0.23591 0.0
C636 C 0.94728 0.25074 0.24503 0.0
C637 C 0.95586 0.25799 0.25075 0.0
C638 C 0.97796 0.27201 0.25577 0.0
C639 C 0.98143 0.27168 0.26681 0.0
C640 C 0.9912 0.26738 0.2686 0.0
C641 C 0.99767 0.2631 0.25945 0.0
C642 C 0.9941 0.2633 0.24845 0.0
C643 C 0.98447 0.26781 0.24665 0.0
C644 C 0.04651 0.26039 0.27583 0.0
C645 C 0.05128 0.25917 0.28599 0.0
C646 C 0.05829 0.26803 0.29178 0.0
C647 C 0.06064 0.27831 0.2875 0.0
C648 C 0.05564 0.27959 0.27744 0.0
C649 C 0.04871 0.27073 0.27163 0.0
C650 C 0.04632 0.24421 0.26193 0.0
C651 C 0.05347 0.24875 0.25347 0.0
C652 C 0.06052 0.24234 0.2469 0.0
C653 C 0.06065 0.23128 0.24868 0.0
C654 C 0.05324 0.22667 0.25691 0.0
C655 C 0.04614 0.23308 0.26344 0.0
C656 C 0.0291 0.25264 0.26617 0.0
C657 C 0.01972 0.25071 0.27346 0.0
C658 C 0.00941 0.25367 0.27108 0.0
C659 C 0.0083 0.25885 0.26141 0.0
C660 C 0.01763 0.26036 0.25386 0.0
C661 C 0.02787 0.25718 0.25615 0.0
H662 H 0.76397 0.05677 0.2757 0.0
N663 N 0.74778 0.03959 0.26786 0.0
H664 H 0.77808 0.06733 0.26448 0.0
H665 H 0.75144 0.03635 0.2456 0.0
H666 H 0.76585 0.04687 0.2342 0.0
H667 H 0.73073 0.04889 0.26223 0.0
H668 H 0.72161 0.06312 0.27363 0.0
H669 H 0.75085 0.04642 0.29048 0.0
H670 H 0.74173 0.06058 0.30191 0.0
H671 H 0.76767 0.03786 0.27766 0.0
H672 H 0.73501 0.01995 0.26833 0.0
H673 H 0.77318 0.02119 0.28286 0.0
H674 H 0.74014 0.00325 0.2745 0.0
H675 H 0.79064 0.96419 0.29594 0.0
H676 H 0.80496 0.9556 0.2843 0.0
H677 H 0.78869 0.96058 0.25425 0.0
H678 H 0.77433 0.96869 0.26582 0.0
H679 H 0.76132 0.95305 0.27609 0.0
H680 H 0.74733 0.93845 0.28282 0.0
H681 H 0.7498 0.95549 0.31664 0.0
H682 H 0.76404 0.96997 0.30992 0.0
H683 H 0.77861 0.99151 0.29898 0.0
H684 H 0.77182 0.00837 0.29535 0.0
H685 H 0.75073 0.98934 0.26919 0.0
N686 N 0.77253 0.97106 0.28911 0.0
H687 H 0.75688 0.97251 0.27363 0.0
C688 C 0.75654 0.04577 0.26145 0.0
C689 C 0.76427 0.0545 0.26666 0.0
C690 C 0.77246 0.06048 0.26023 0.0
C691 C 0.77313 0.0579 0.24845 0.0
C692 C 0.76549 0.0491 0.24326 0.0
C693 C 0.7573 0.04307 0.24973 0.0
C694 C 0.74141 0.04654 0.27545 0.0
C695 C 0.73298 0.05124 0.27096 0.0
C696 C 0.72786 0.05941 0.27745 0.0
C697 C 0.73103 0.06301 0.28863 0.0
C698 C 0.73907 0.05791 0.29335 0.0
C699 C 0.74427 0.04978 0.28681 0.0
C700 C 0.75094 0.03013 0.27228 0.0
C701 C 0.76159 0.03037 0.27682 0.0
C702 C 0.76471 0.02076 0.27999 0.0
C703 C 0.75717 0.01073 0.27904 0.0
C704 C 0.74632 0.01069 0.27506 0.0
C705 C 0.7433 0.02026 0.27165 0.0
C706 C 0.78141 0.96716 0.28186 0.0
C707 C 0.79027 0.96353 0.28683 0.0
C708 C 0.79846 0.95866 0.28016 0.0
C709 C 0.79795 0.95734 0.26832 0.0
C710 C 0.78924 0.9613 0.26334 0.0
C711 C 0.78103 0.96609 0.27001 0.0
C712 C 0.76389 0.96253 0.29259 0.0
C713 C 0.75892 0.95365 0.28495 0.0
C714 C 0.75091 0.94531 0.28879 0.0
C715 C 0.74753 0.94586 0.30024 0.0
C716 C 0.75222 0.95492 0.30776 0.0
C717 C 0.76036 0.96314 0.30396 0.0
C718 C 0.76847 0.98082 0.28644 0.0
C719 C 0.77251 0.99104 0.29248 0.0
C720 C 0.76865 0.00068 0.29032 0.0
C721 C 0.76078 0.00034 0.28185 0.0
C722 C 0.75666 0.99 0.27587 0.0
C723 C 0.76032 0.98033 0.27826 0.0
H724 H 0.1092 0.82431 0.33711 0.0
N725 N 0.09622 0.82221 0.3194 0.0
H726 H 0.11518 0.80955 0.34618 0.0
H727 H 0.08819 0.80007 0.31503 0.0
H728 H 0.09396 0.78518 0.32418 0.0
H729 H 0.10196 0.80822 0.30115 0.0
H730 H 0.1175 0.81209 0.28768 0.0
H731 H 0.10948 0.84147 0.31794 0.0
H732 H 0.12503 0.84553 0.30427 0.0
H733 H 0.08001 0.82588 0.33461 0.0
H734 H 0.08582 0.81884 0.29868 0.0
H735 H 0.06035 0.82691 0.33145 0.0
H736 H 0.06657 0.82065 0.29544 0.0
H737 H 0.99985 0.83316 0.32205 0.0
H738 H 0.98312 0.82039 0.32702 0.0
H739 H 0.99575 0.7938 0.3056 0.0
H740 H 0.01249 0.80642 0.30113 0.0
H741 H 0.01095 0.81721 0.28605 0.0
H742 H 0.00105 0.82323 0.27126 0.0
H743 H 0.0036 0.856 0.2897 0.0
H744 H 0.01306 0.84966 0.30481 0.0
H745 H 0.02938 0.83997 0.32242 0.0
H746 H 0.04896 0.83824 0.32523 0.0
H747 H 0.04773 0.81311 0.29639 0.0
N748 N 0.0158 0.82901 0.30673 0.0
H749 H 0.0285 0.8156 0.29319 0.0
C750 C 0.09829 0.81331 0.32544 0.0
C751 C 0.1057 0.81579 0.33441 0.0
C752 C 0.10907 0.80733 0.33959 0.0
C753 C 0.10507 0.79616 0.33589 0.0
C754 C 0.0973 0.79369 0.32714 0.0
C755 C 0.09393 0.80218 0.32195 0.0
C756 C 0.10458 0.82459 0.3106 0.0
C757 C 0.10689 0.8164 0.30187 0.0
C758 C 0.11573 0.81866 0.29409 0.0
C759 C 0.1225 0.82912 0.29492 0.0
C760 C 0.12002 0.83736 0.30349 0.0
C761 C 0.11112 0.8351 0.31124 0.0
C762 C 0.08455 0.82234 0.317 0.0
C763 C 0.07708 0.82461 0.32605 0.0
C764 C 0.06585 0.82533 0.32419 0.0
C765 C 0.06181 0.82402 0.31315 0.0
C766 C 0.06926 0.82158 0.30407 0.0
C767 C 0.08044 0.82063 0.30595 0.0
C768 C 0.00739 0.82083 0.31117 0.0
C769 C 0.99913 0.82449 0.31873 0.0
C770 C 0.98954 0.81721 0.32145 0.0
C771 C 0.98798 0.8061 0.31655 0.0
C772 C 0.99667 0.80227 0.3096 0.0
C773 C 0.00629 0.80955 0.30696 0.0
C774 C 0.01263 0.83297 0.29666 0.0
C775 C 0.00964 0.82575 0.28684 0.0
C776 C 0.00398 0.82925 0.2783 0.0
C777 C 0.0013 0.84007 0.27935 0.0
C778 C 0.00524 0.84753 0.28873 0.0
C779 C 0.01078 0.84398 0.29731 0.0
C780 C 0.02742 0.82785 0.30774 0.0
C781 C 0.03341 0.83416 0.31668 0.0
C782 C 0.04457 0.83304 0.31834 0.0
C783 C 0.04997 0.82539 0.31115 0.0
C784 C 0.04395 0.81915 0.30206 0.0
C785 C 0.03283 0.82046 0.30029 0.0
H786 H 0.29785 0.96574 0.2627 0.0
N787 N 0.27846 0.97382 0.27027 0.0
H788 H 0.31011 0.95783 0.27393 0.0
H789 H 0.27868 0.9755 0.29263 0.0
H790 H 0.29138 0.96816 0.30415 0.0
H791 H 0.26011 0.9598 0.27468 0.0
H792 H 0.2525 0.94256 0.26327 0.0
H793 H 0.28496 0.9672 0.2484 0.0
H794 H 0.27784 0.94995 0.23726 0.0
H795 H 0.29537 0.98307 0.25651 0.0
H796 H 0.26559 0.98925 0.2762 0.0
H797 H 0.29703 0.00116 0.24992 0.0
H798 H 0.26775 0.00787 0.27059 0.0
H799 H 0.30658 0.06596 0.24648 0.0
H800 H 0.3164 0.07871 0.26154 0.0
H801 H 0.29235 0.06507 0.28609 0.0
H802 H 0.28262 0.05238 0.27099 0.0
H803 H 0.26964 0.05824 0.25913 0.0
H804 H 0.25641 0.06789 0.251 0.0
H805 H 0.27355 0.06327 0.21852 0.0
H806 H 0.28709 0.05393 0.22691 0.0
H807 H 0.30415 0.03836 0.24922 0.0
H808 H 0.30207 0.0197 0.2545 0.0
H809 H 0.26587 0.01853 0.25665 0.0
N810 N 0.28833 0.05098 0.24847 0.0
H811 H 0.26812 0.03745 0.25233 0.0
C812 C 0.28718 0.97107 0.27682 0.0
C813 C 0.29642 0.96645 0.27173 0.0
C814 C 0.30353 0.96197 0.27823 0.0
C815 C 0.30167 0.96216 0.28998 0.0
C816 C 0.29291 0.96756 0.29511 0.0
C817 C 0.28572 0.9719 0.28857 0.0
C818 C 0.27313 0.96479 0.26251 0.0
C819 C 0.2638 0.9578 0.26638 0.0
C820 C 0.25955 0.94791 0.25989 0.0
C821 C 0.26465 0.94476 0.2494 0.0
C822 C 0.2736 0.95212 0.24523 0.0
C823 C 0.27777 0.96204 0.25169 0.0
C824 C 0.28017 0.98471 0.26667 0.0
C825 C 0.28917 0.98832 0.25943 0.0
C826 C 0.29021 0.99883 0.25581 0.0
C827 C 0.2825 0.0061 0.25964 0.0
C828 C 0.27369 0.00249 0.26714 0.0
C829 C 0.2725 0.99188 0.2705 0.0
C830 C 0.29388 0.0583 0.25759 0.0
C831 C 0.30348 0.06574 0.25512 0.0
C832 C 0.30909 0.07294 0.26373 0.0
C833 C 0.30515 0.07285 0.27499 0.0
C834 C 0.29552 0.06538 0.27748 0.0
C835 C 0.28995 0.05813 0.26886 0.0
C836 C 0.27946 0.05541 0.24362 0.0
C837 C 0.27055 0.05923 0.25025 0.0
C838 C 0.2629 0.06469 0.24554 0.0
C839 C 0.26394 0.06644 0.2341 0.0
C840 C 0.2726 0.06224 0.2274 0.0
C841 C 0.28028 0.05681 0.23214 0.0
C842 C 0.28638 0.03944 0.25036 0.0
C843 C 0.29576 0.03403 0.25079 0.0
C844 C 0.29452 0.02328 0.25374 0.0
C845 C 0.28378 0.01747 0.25607 0.0
C846 C 0.27432 0.02276 0.25522 0.0
C847 C 0.27559 0.03365 0.25257 0.0
H848 H 0.04522 0.73472 0.77034 0.0
N849 N 0.03846 0.75428 0.77108 0.0
H850 H 0.0572 0.72609 0.75586 0.0
H851 H 0.04506 0.76172 0.75059 0.0
H852 H 0.0568 0.75311 0.73607 0.0
H853 H 0.0537 0.7726 0.76737 0.0
H854 H 0.06694 0.78332 0.78085 0.0
H855 H 0.0398 0.75188 0.79273 0.0
H856 H 0.05298 0.76273 0.80643 0.0
H857 H 0.0181 0.74386 0.77577 0.0
H858 H 0.03514 0.77309 0.76227 0.0
H859 H -7e-05 0.74959 0.77321 0.0
H860 H 0.01715 0.77845 0.75881 0.0
H861 H 0.94926 0.76359 0.7676 0.0
H862 H 0.93371 0.75042 0.75915 0.0
H863 H 0.94467 0.75949 0.72618 0.0
H864 H 0.96012 0.77297 0.73476 0.0
H865 H 0.95631 0.7958 0.75268 0.0
H866 H 0.94667 0.80809 0.76613 0.0
H867 H 0.95323 0.78973 0.79306 0.0
H868 H 0.96259 0.77734 0.77949 0.0
H869 H 0.96916 0.75639 0.75666 0.0
H870 H 0.98702 0.75107 0.76002 0.0
H871 H 0.00161 0.78556 0.7668 0.0
N872 N 0.96455 0.77787 0.7566 0.0
H873 H 0.98378 0.79093 0.76258 0.0
C874 C 0.04419 0.74884 0.76162 0.0
C875 C 0.04756 0.73866 0.76277 0.0
C876 C 0.05439 0.73374 0.75447 0.0
C877 C 0.05802 0.73894 0.74482 0.0
C878 C 0.05429 0.74896 0.74348 0.0
C879 C 0.04746 0.75387 0.75179 0.0
C880 C 0.04573 0.7614 0.77907 0.0
C881 C 0.05335 0.77046 0.77589 0.0
C882 C 0.06092 0.77662 0.78365 0.0
C883 C 0.06105 0.77386 0.79472 0.0
C884 C 0.0532 0.76498 0.79793 0.0
C885 C 0.04563 0.75883 0.79017 0.0
C886 C 0.02797 0.75788 0.76905 0.0
C887 C 0.01789 0.75142 0.77207 0.0
C888 C 0.00751 0.75469 0.77051 0.0
C889 C 0.00697 0.76447 0.76569 0.0
C890 C 0.01715 0.77095 0.76268 0.0
C891 C 0.02753 0.76778 0.76447 0.0
C892 C 0.95575 0.76944 0.75179 0.0
C893 C 0.94829 0.76284 0.75858 0.0
C894 C 0.93943 0.75528 0.75374 0.0
C895 C 0.93796 0.75401 0.74203 0.0
C896 C 0.94565 0.7603 0.73522 0.0
C897 C 0.95443 0.76799 0.74009 0.0
C898 C 0.96017 0.78569 0.76504 0.0
C899 C 0.95579 0.79456 0.76152 0.0
C900 C 0.95033 0.80159 0.76923 0.0
C901 C 0.94912 0.79987 0.78068 0.0
C902 C 0.95386 0.79119 0.78428 0.0
C903 C 0.9593 0.78414 0.77655 0.0
C904 C 0.97489 0.77421 0.75947 0.0
C905 C 0.97607 0.76292 0.7589 0.0
C906 C 0.98641 0.75982 0.76093 0.0
C907 C 0.99587 0.76784 0.76374 0.0
C908 C 0.99464 0.77909 0.76447 0.0
C909 C 0.98436 0.7822 0.7622 0.0
H910 H 0.27567 0.04647 0.77704 0.0
N911 N 0.25314 0.03835 0.7772 0.0
H912 H 0.28634 0.05596 0.76222 0.0
H913 H 0.24562 0.04194 0.75766 0.0
H914 H 0.25629 0.05117 0.7426 0.0
H915 H 0.2313 0.03867 0.78144 0.0
H916 H 0.22251 0.05241 0.79412 0.0
H917 H 0.26416 0.05568 0.79121 0.0
H918 H 0.25545 0.0691 0.80412 0.0
H919 H 0.26514 0.03812 0.7964 0.0
H920 H 0.25148 0.01799 0.76659 0.0
H921 H 0.2728 0.02257 0.8018 0.0
H922 H 0.25975 0.00244 0.77162 0.0
H923 H 0.306 0.96816 0.80427 0.0
H924 H 0.31889 0.95885 0.7914 0.0
H925 H 0.29986 0.96373 0.7631 0.0
H926 H 0.28679 0.97251 0.776 0.0
H927 H 0.27684 0.95544 0.78762 0.0
H928 H 0.26509 0.9403 0.79554 0.0
H929 H 0.26722 0.95928 0.82858 0.0
H930 H 0.27979 0.9742 0.82059 0.0
H931 H 0.29534 0.99628 0.80254 0.0
H932 H 0.28716 0.01183 0.79728 0.0
H933 H 0.25844 0.989 0.78397 0.0
N934 N 0.28707 0.97485 0.79923 0.0
H935 H 0.26699 0.97358 0.78859 0.0
C936 C 0.25982 0.04354 0.76843 0.0
C937 C 0.27139 0.04746 0.76955 0.0
C938 C 0.2775 0.05281 0.76103 0.0
C939 C 0.27216 0.05434 0.75123 0.0
C940 C 0.26062 0.05027 0.7501 0.0
C941 C 0.25453 0.04494 0.75863 0.0
C942 C 0.24834 0.04599 0.78549 0.0
C943 C 0.23659 0.04522 0.78647 0.0
C944 C 0.23161 0.05308 0.79364 0.0
C945 C 0.23833 0.06174 0.80011 0.0
C946 C 0.2501 0.06241 0.79931 0.0
C947 C 0.25508 0.05471 0.79195 0.0
C948 C 0.25752 0.02924 0.78108 0.0
C949 C 0.26372 0.03039 0.79097 0.0
C950 C 0.26828 0.02144 0.79402 0.0
C951 C 0.26695 0.01119 0.78716 0.0
C952 C 0.26078 0.0101 0.77726 0.0
C953 C 0.25608 0.019 0.77432 0.0
C954 C 0.29545 0.97108 0.79119 0.0
C955 C 0.30476 0.96739 0.79527 0.0
C956 C 0.31213 0.9621 0.78788 0.0
C957 C 0.31037 0.96044 0.7762 0.0
C958 C 0.30136 0.96467 0.77206 0.0
C959 C 0.29393 0.96986 0.77946 0.0
C960 C 0.27944 0.96594 0.80358 0.0
C961 C 0.27492 0.95635 0.79659 0.0
C962 C 0.268 0.9477 0.80114 0.0
C963 C 0.26515 0.94849 0.81275 0.0
C964 C 0.2694 0.95824 0.81966 0.0
C965 C 0.27651 0.96683 0.81511 0.0
C966 C 0.28178 0.98378 0.79614 0.0
C967 C 0.28729 0.99468 0.79848 0.0
C968 C 0.28253 0.00355 0.79554 0.0
C969 C 0.27206 0.00172 0.79026 0.0
C970 C 0.26656 0.99076 0.78789 0.0
C971 C 0.27141 0.98189 0.79068 0.0
H972 H 0.00216 0.28889 0.79365 0.0
N973 N 0.01497 0.30782 0.80348 0.0
H974 H 0.98677 0.2775 0.80248 0.0
H975 H 0.00799 0.31005 0.82507 0.0
H976 H 0.99208 0.29868 0.83395 0.0
H977 H 0.00573 0.32621 0.8055 0.0
H978 H 0.99499 0.33261 0.79136 0.0
H979 H 0.0141 0.29973 0.78102 0.0
H980 H 0.00323 0.30598 0.76691 0.0
H981 H 0.02039 0.28669 0.7973 0.0
H982 H 0.0346 0.3212 0.80444 0.0
H983 H 0.03894 0.28182 0.79401 0.0
H984 H 0.05348 0.31633 0.80049 0.0
H985 H 0.09878 0.26609 0.78185 0.0
H986 H 0.10539 0.25346 0.79343 0.0
H987 H 0.09678 0.27411 0.82354 0.0
H988 H 0.09061 0.28681 0.81195 0.0
H989 H 0.10582 0.29964 0.80251 0.0
H990 H 0.12257 0.31169 0.79641 0.0
H991 H 0.11457 0.30046 0.7616 0.0
H992 H 0.09778 0.28848 0.76779 0.0
H993 H 0.0726 0.27667 0.77804 0.0
H994 H 0.05409 0.28252 0.78104 0.0
H995 H 0.06748 0.3077 0.80756 0.0
N996 N 0.09135 0.28504 0.78874 0.0
H997 H 0.08606 0.30218 0.80399 0.0
C998 C 0.00645 0.30029 0.80876 0.0
C999 C 0.00031 0.29101 0.80252 0.0
C1000 C 0.99148 0.28444 0.80759 0.0
C1001 C 0.98835 0.28715 0.81892 0.0
C1002 C 0.99443 0.29638 0.82522 0.0
C1003 C 0.00349 0.30284 0.82018 0.0
C1004 C 0.01063 0.31248 0.79438 0.0
C1005 C 0.00548 0.32196 0.797 0.0
C1006 C 0.99936 0.3256 0.78892 0.0
C1007 C 0.9982 0.31972 0.77807 0.0
C1008 C 0.0039 0.31058 0.77525 0.0
C1009 C 0.01014 0.30703 0.7833 0.0
C1010 C 0.02595 0.30443 0.80128 0.0
C1011 C 0.02741 0.29332 0.79813 0.0
C1012 C 0.03817 0.29049 0.7961 0.0
C1013 C 0.04777 0.29866 0.79692 0.0
C1014 C 0.04631 0.30977 0.79994 0.0
C1015 C 0.03552 0.31259 0.80213 0.0
C1016 C 0.09415 0.27735 0.79596 0.0
C1017 C 0.09822 0.26779 0.79096 0.0
C1018 C 0.10194 0.26057 0.7976 0.0
C1019 C 0.10164 0.26277 0.80944 0.0
C1020 C 0.09729 0.27224 0.81445 0.0
C1021 C 0.09363 0.27948 0.8078 0.0
C1022 C 0.10061 0.29308 0.78554 0.0
C1023 C 0.10758 0.29987 0.79357 0.0
C1024 C 0.11718 0.30673 0.79008 0.0
C1025 C 0.11992 0.30698 0.77853 0.0
C1026 C 0.11263 0.30055 0.77055 0.0
C1027 C 0.10308 0.29366 0.77405 0.0
C1028 C 0.08064 0.28885 0.79085 0.0
C1029 C 0.0715 0.28347 0.78447 0.0
C1030 C 0.06092 0.28679 0.78627 0.0
C1031 C 0.05921 0.29552 0.79465 0.0
C1032 C 0.06847 0.30102 0.80096 0.0
C1033 C 0.0791 0.29778 0.79902 0.0
H1034 H 0.78774 0.97887 0.79009 0.0
N1035 N 0.76457 0.97533 0.79104 0.0
H1036 H 0.79994 0.97048 0.80114 0.0
H1037 H 0.75873 0.96517 0.8092 0.0
H1038 H 0.77091 0.957 0.82054 0.0
H1039 H 0.74367 0.96535 0.7866 0.0
H1040 H 0.73789 0.94905 0.77287 0.0
H1041 H 0.77831 0.96506 0.77556 0.0
H1042 H 0.77265 0.9491 0.76193 0.0
H1043 H 0.77717 0.98312 0.77292 0.0
H1044 H 0.75692 0.99282 0.80213 0.0
H1045 H 0.7794 0.0017 0.76767 0.0
H1046 H 0.7597 0.0118 0.79726 0.0
H1047 H 0.79738 0.06544 0.7694 0.0
H1048 H 0.80782 0.07832 0.7839 0.0
H1049 H 0.78104 0.07022 0.80831 0.0
H1050 H 0.77066 0.05738 0.7937 0.0
H1051 H 0.75799 0.06094 0.78021 0.0
H1052 H 0.74647 0.0715 0.77075 0.0
H1053 H 0.76787 0.06844 0.74084 0.0
H1054 H 0.77921 0.05754 0.75027 0.0
H1055 H 0.79126 0.03865 0.76766 0.0
H1056 H 0.78851 0.01971 0.77246 0.0
H1057 H 0.7546 0.02316 0.78448 0.0
N1058 N 0.7773 0.05334 0.77157 0.0
H1059 H 0.75767 0.04223 0.78021 0.0
C1060 C 0.77226 0.97257 0.79878 0.0
C1061 C 0.78401 0.97431 0.79686 0.0
C1062 C 0.79101 0.96952 0.80322 0.0
C1063 C 0.78638 0.96291 0.81161 0.0
C1064 C 0.77472 0.96184 0.81399 0.0
C1065 C 0.76776 0.9666 0.80762 0.0
C1066 C 0.76136 0.96654 0.78208 0.0
C1067 C 0.74998 0.96193 0.78109 0.0
C1068 C 0.74671 0.95262 0.7733 0.0
C1069 C 0.75482 0.94787 0.76628 0.0
C1070 C 0.76618 0.9527 0.76706 0.0
C1071 C 0.76944 0.96187 0.77491 0.0
C1072 C 0.7667 0.98645 0.78792 0.0
C1073 C 0.77322 0.98922 0.77829 0.0
C1074 C 0.7746 -2e-05 0.77532 0.0
C1075 C 0.76971 0.00832 0.782 0.0
C1076 C 0.7634 0.00558 0.79176 0.0
C1077 C 0.76189 0.99476 0.79464 0.0
C1078 C 0.78327 0.06055 0.78045 0.0
C1079 C 0.79383 0.06643 0.7779 0.0
C1080 C 0.79979 0.07369 0.78621 0.0
C1081 C 0.79527 0.07525 0.79726 0.0
C1082 C 0.7847 0.06925 0.79985 0.0
C1083 C 0.77875 0.06193 0.79152 0.0
C1084 C 0.76939 0.05824 0.76585 0.0
C1085 C 0.76001 0.06217 0.7715 0.0
C1086 C 0.75344 0.06828 0.7661 0.0
C1087 C 0.7563 0.07079 0.75507 0.0
C1088 C 0.76551 0.06664 0.74935 0.0
C1089 C 0.77193 0.06037 0.75469 0.0
C1090 C 0.77469 0.04186 0.77341 0.0
C1091 C 0.7832 0.03525 0.77121 0.0
C1092 C 0.78158 0.0244 0.77394 0.0
C1093 C 0.77131 0.01983 0.77886 0.0
C1094 C 0.76268 0.02643 0.78088 0.0
C1095 C 0.76438 0.03736 0.77828 0.0
H1096 H 0.27438 0.76194 0.48468 0.0
N1097 N 0.2667 0.77806 0.49963 0.0
H1098 H 0.26318 0.7487 0.47116 0.0
H1099 H 0.24456 0.7754 0.49719 0.0
H1100 H 0.23325 0.76218 0.4835 0.0
H1101 H 0.26325 0.79612 0.49118 0.0
H1102 H 0.27591 0.80702 0.47869 0.0
H1103 H 0.28913 0.77637 0.49498 0.0
H1104 H 0.30185 0.78735 0.48286 0.0
H1105 H 0.2791 0.76185 0.50318 0.0
H1106 H 0.26019 0.7864 0.51998 0.0
H1107 H 0.28321 0.75655 0.5212 0.0
H1108 H 0.26353 0.78056 0.5382 0.0
H1109 H 0.28233 0.73401 0.58092 0.0
H1110 H 0.26723 0.72388 0.59169 0.0
H1111 H 0.24697 0.74968 0.59009 0.0
H1112 H 0.26228 0.75986 0.5795 0.0
H1113 H 0.27901 0.77045 0.58975 0.0
H1114 H 0.29279 0.78148 0.60254 0.0
H1115 H 0.31859 0.76338 0.58685 0.0
H1116 H 0.30471 0.75254 0.57387 0.0
H1117 H 0.27974 0.74127 0.55379 0.0
H1118 H 0.2755 0.74706 0.53587 0.0
H1119 H 0.27646 0.78065 0.55201 0.0
N1120 N 0.28281 0.75352 0.57357 0.0
H1121 H 0.27985 0.77458 0.56995 0.0
C1122 C 0.26026 0.76961 0.49208 0.0
C1123 C 0.26539 0.76193 0.48469 0.0
C1124 C 0.25898 0.75436 0.47691 0.0
C1125 C 0.24734 0.75441 0.47627 0.0
C1126 C 0.24221 0.76201 0.48375 0.0
C1127 C 0.24862 0.7695 0.4916 0.0
C1128 C 0.27513 0.78541 0.49406 0.0
C1129 C 0.27176 0.79434 0.48958 0.0
C1130 C 0.27903 0.80057 0.48247 0.0
C1131 C 0.28988 0.798 0.47968 0.0
C1132 C 0.29348 0.78943 0.48467 0.0
C1133 C 0.28618 0.78316 0.49173 0.0
C1134 C 0.26948 0.77473 0.5102 0.0
C1135 C 0.27584 0.76617 0.51074 0.0
C1136 C 0.27804 0.76299 0.52114 0.0
C1137 C 0.27368 0.76806 0.53127 0.0
C1138 C 0.26724 0.77658 0.53067 0.0
C1139 C 0.26524 0.7799 0.52025 0.0
C1140 C 0.27342 0.74761 0.57938 0.0
C1141 C 0.27458 0.73741 0.58284 0.0
C1142 C 0.26591 0.73162 0.58894 0.0
C1143 C 0.25584 0.73593 0.59172 0.0
C1144 C 0.25465 0.74617 0.58818 0.0
C1145 C 0.26336 0.75197 0.58206 0.0
C1146 C 0.29086 0.76064 0.58083 0.0
C1147 C 0.28763 0.7689 0.58899 0.0
C1148 C 0.29553 0.77516 0.59637 0.0
C1149 C 0.3068 0.77327 0.59579 0.0
C1150 C 0.31003 0.76514 0.58746 0.0
C1151 C 0.30212 0.75891 0.58007 0.0
C1152 C 0.2803 0.75744 0.5632 0.0
C1153 C 0.27898 0.74986 0.55342 0.0
C1154 C 0.27667 0.75325 0.54316 0.0
C1155 C 0.27578 0.7644 0.54236 0.0
C1156 C 0.27696 0.77198 0.55224 0.0
C1157 C 0.27906 0.76852 0.56257 0.0
H1158 H 0.82548 0.78497 0.54568 0.0
N1159 N 0.81447 0.7684 0.53236 0.0
H1160 H 0.81746 0.79793 0.55974 0.0
H1161 H 0.7922 0.77076 0.53461 0.0
H1162 H 0.78401 0.78367 0.54879 0.0
H1163 H 0.79699 0.75415 0.54048 0.0
H1164 H 0.79859 0.74056 0.55321 0.0
H1165 H 0.83315 0.76094 0.53677 0.0
H1166 H 0.83487 0.74697 0.54924 0.0
H1167 H 0.82443 0.78163 0.51791 0.0
H1168 H 0.79958 0.75258 0.52005 0.0
H1169 H 0.82155 0.78041 0.49774 0.0
H1170 H 0.79716 0.75081 0.49972 0.0
H1171 H 0.80554 0.78612 0.44607 0.0
H1172 H 0.79088 0.79488 0.43873 0.0
H1173 H 0.76823 0.76382 0.43732 0.0
H1174 H 0.78288 0.7552 0.4446 0.0
H1175 H 0.79563 0.74311 0.44538 0.0
H1176 H 0.80181 0.72972 0.43023 0.0
H1177 H 0.82901 0.75467 0.42115 0.0
H1178 H 0.82244 0.76811 0.43585 0.0
H1179 H 0.82322 0.77046 0.46073 0.0
H1180 H 0.82561 0.77025 0.48083 0.0
H1181 H 0.79001 0.75818 0.4848 0.0
N1182 N 0.80444 0.76504 0.44935 0.0
H1183 H 0.78796 0.75765 0.4645 0.0
C1184 C 0.80946 0.77689 0.53924 0.0
C1185 C 0.81645 0.78484 0.54616 0.0
C1186 C 0.81184 0.79226 0.55413 0.0
C1187 C 0.80009 0.7918 0.55539 0.0
C1188 C 0.79308 0.78415 0.54806 0.0
C1189 C 0.79774 0.77679 0.53998 0.0
C1190 C 0.815 0.75867 0.53776 0.0
C1191 C 0.80528 0.75249 0.54214 0.0
C1192 C 0.80622 0.74464 0.54939 0.0
C1193 C 0.81688 0.74277 0.55239 0.0
C1194 C 0.82654 0.74836 0.54729 0.0
C1195 C 0.82559 0.75626 0.54008 0.0
C1196 C 0.8124 0.76715 0.52047 0.0
C1197 C 0.81845 0.7749 0.51396 0.0
C1198 C 0.81686 0.7741 0.50241 0.0
C1199 C 0.80926 0.76538 0.49699 0.0
C1200 C 0.80303 0.75767 0.50358 0.0
C1201 C 0.8045 0.75861 0.51524 0.0
C1202 C 0.79535 0.77004 0.44582 0.0
C1203 C 0.79736 0.78127 0.44427 0.0
C1204 C 0.78898 0.78624 0.44012 0.0
C1205 C 0.77843 0.78001 0.4374 0.0
C1206 C 0.77634 0.76879 0.43919 0.0
C1207 C 0.78471 0.76385 0.44339 0.0
C1208 C 0.80847 0.75665 0.44148 0.0
C1209 C 0.80286 0.74568 0.44006 0.0
C1210 C 0.80644 0.73804 0.43151 0.0
C1211 C 0.81587 0.74121 0.42459 0.0
C1212 C 0.82177 0.75202 0.42645 0.0
C1213 C 0.81803 0.75969 0.43477 0.0
C1214 C 0.80543 0.76428 0.46116 0.0
C1215 C 0.81598 0.76767 0.46595 0.0
C1216 C 0.81727 0.76766 0.47748 0.0
C1217 C 0.80795 0.76444 0.48455 0.0
C1218 C 0.7974 0.76068 0.47965 0.0
C1219 C 0.79617 0.76048 0.46802 0.0
H1220 H 0.79918 0.25169 0.5884 0.0
N1221 N 0.783 0.26151 0.5798 0.0
H1222 H 0.81499 0.26104 0.59976 0.0
H1223 H 0.78863 0.28312 0.58568 0.0
H1224 H 0.80441 0.29257 0.5972 0.0
H1225 H 0.76557 0.26444 0.59362 0.0
H1226 H 0.75374 0.25069 0.60387 0.0
H1227 H 0.7842 0.23928 0.5777 0.0
H1228 H 0.77236 0.2254 0.58786 0.0
H1229 H 0.79988 0.25218 0.56778 0.0
H1230 H 0.77001 0.26672 0.56457 0.0
H1231 H 0.80327 0.25101 0.54747 0.0
H1232 H 0.77293 0.26497 0.54407 0.0
H1233 H 0.81997 0.26312 0.49265 0.0
H1234 H 0.82904 0.27925 0.48373 0.0
H1235 H 0.79651 0.28933 0.48113 0.0
H1236 H 0.78756 0.27315 0.48978 0.0
H1237 H 0.77538 0.25727 0.49617 0.0
H1238 H 0.76198 0.24635 0.48288 0.0
H1239 H 0.78862 0.22949 0.46701 0.0
H1240 H 0.80204 0.24079 0.48014 0.0
H1241 H 0.80183 0.24209 0.50954 0.0
H1242 H 0.7975 0.24217 0.52975 0.0
H1243 H 0.78451 0.27303 0.53008 0.0
N1244 N 0.79807 0.25673 0.49621 0.0
H1245 H 0.78825 0.27251 0.5099 0.0
C1246 C 0.79265 0.26674 0.58624 0.0
C1247 C 0.80024 0.26061 0.59024 0.0
C1248 C 0.80928 0.26596 0.59678 0.0
C1249 C 0.81094 0.27754 0.59941 0.0
C1250 C 0.80345 0.28366 0.59521 0.0
C1251 C 0.7944 0.27829 0.5887 0.0
C1252 C 0.77572 0.25291 0.58492 0.0
C1253 C 0.76698 0.2559 0.59224 0.0
C1254 C 0.76023 0.24802 0.59804 0.0
C1255 C 0.7621 0.23694 0.59667 0.0
C1256 C 0.77077 0.23389 0.58917 0.0
C1257 C 0.77751 0.2418 0.58331 0.0
C1258 C 0.78476 0.25974 0.56773 0.0
C1259 C 0.79397 0.25503 0.5627 0.0
C1260 C 0.79584 0.25426 0.55101 0.0
C1261 C 0.78844 0.25798 0.54406 0.0
C1262 C 0.77898 0.26227 0.54913 0.0
C1263 C 0.77722 0.26318 0.56083 0.0
C1264 C 0.80313 0.26686 0.49187 0.0
C1265 C 0.81485 0.26889 0.49025 0.0
C1266 C 0.82 0.27813 0.4852 0.0
C1267 C 0.81349 0.28556 0.48165 0.0
C1268 C 0.80175 0.28369 0.48359 0.0
C1269 C 0.79662 0.27443 0.48862 0.0
C1270 C 0.78975 0.24985 0.48909 0.0
C1271 C 0.77833 0.2512 0.48987 0.0
C1272 C 0.77065 0.24488 0.48229 0.0
C1273 C 0.77422 0.23706 0.47383 0.0
C1274 C 0.78561 0.23556 0.47329 0.0
C1275 C 0.79327 0.24193 0.48082 0.0
C1276 C 0.79555 0.25732 0.50818 0.0
C1277 C 0.79804 0.24885 0.51402 0.0
C1278 C 0.79561 0.24896 0.52559 0.0
C1279 C 0.79071 0.25765 0.53164 0.0
C1280 C 0.78814 0.26612 0.52573 0.0
C1281 C 0.79043 0.26591 0.51412 0.0
H1282 H 0.30181 0.25607 0.44973 0.0
N1283 N 0.28146 0.25108 0.45899 0.0
H1284 H 0.31066 0.24526 0.43418 0.0
H1285 H 0.27351 0.22985 0.45009 0.0
H1286 H 0.28221 0.21905 0.43453 0.0
H1287 H 0.25978 0.24053 0.45643 0.0
H1288 H 0.24516 0.24684 0.44637 0.0
H1289 H 0.28199 0.27097 0.45252 0.0
H1290 H 0.26727 0.27751 0.44279 0.0
H1291 H 0.29248 0.26537 0.47446 0.0
H1292 H 0.27092 0.23382 0.46986 0.0
H1293 H 0.29402 0.26349 0.49443 0.0
H1294 H 0.27262 0.23168 0.4898 0.0
H1295 H 0.30735 0.24539 0.55307 0.0
H1296 H 0.31206 0.23019 0.56229 0.0
H1297 H 0.28414 0.2083 0.5462 0.0
H1298 H 0.2793 0.22377 0.53731 0.0
H1299 H 0.26927 0.23763 0.54996 0.0
H1300 H 0.25957 0.24734 0.56568 0.0
H1301 H 0.28493 0.27626 0.5644 0.0
H1302 H 0.29457 0.26646 0.54872 0.0
H1303 H 0.3054 0.25145 0.5254 0.0
H1304 H 0.30301 0.25225 0.50533 0.0
H1305 H 0.26762 0.23937 0.50912 0.0
N1306 N 0.28977 0.24529 0.54059 0.0
H1307 H 0.27021 0.23834 0.52917 0.0
C1308 C 0.287 0.24385 0.45099 0.0
C1309 C 0.29763 0.24789 0.44659 0.0
C1310 C 0.30266 0.24169 0.43775 0.0
C1311 C 0.29708 0.23133 0.43311 0.0
C1312 C 0.28664 0.22705 0.43788 0.0
C1313 C 0.28166 0.23323 0.4468 0.0
C1314 C 0.27205 0.25525 0.45502 0.0
C1315 C 0.26146 0.24863 0.45358 0.0
C1316 C 0.25309 0.25226 0.44787 0.0
C1317 C 0.25513 0.26263 0.44377 0.0
C1318 C 0.26545 0.26952 0.44594 0.0
C1319 C 0.27386 0.26581 0.45145 0.0
C1320 C 0.28168 0.24975 0.47072 0.0
C1321 C 0.28809 0.25803 0.47781 0.0
C1322 C 0.28902 0.25689 0.48917 0.0
C1323 C 0.28356 0.24736 0.49367 0.0
C1324 C 0.27688 0.23913 0.48659 0.0
C1325 C 0.27594 0.24032 0.47518 0.0
C1326 C 0.29306 0.23571 0.54451 0.0
C1327 C 0.30239 0.23725 0.55139 0.0
C1328 C 0.30508 0.22852 0.5566 0.0
C1329 C 0.29849 0.21798 0.55499 0.0
C1330 C 0.28932 0.21634 0.54773 0.0
C1331 C 0.2866 0.22514 0.54256 0.0
C1332 C 0.28274 0.25133 0.54831 0.0
C1333 C 0.2726 0.24613 0.5529 0.0
C1334 C 0.26707 0.25168 0.56189 0.0
C1335 C 0.27153 0.26253 0.56632 0.0
C1336 C 0.28121 0.26795 0.56111 0.0
C1337 C 0.28677 0.26237 0.5522 0.0
C1338 C 0.28801 0.24495 0.52874 0.0
C1339 C 0.29716 0.24873 0.52185 0.0
C1340 C 0.29575 0.24925 0.51043 0.0
C1341 C 0.28509 0.24603 0.50567 0.0
C1342 C 0.27595 0.24188 0.51253 0.0
C1343 C 0.2774 0.24133 0.524 0.0
H1344 H 0.76081 0.46812 0.78459 0.0
N1345 N 0.76516 0.46606 0.76164 0.0
H1346 H 0.74742 0.45566 0.79482 0.0
H1347 H 0.75074 0.44876 0.75308 0.0
H1348 H 0.73742 0.43606 0.7634 0.0
H1349 H 0.77506 0.46285 0.74137 0.0
H1350 H 0.79147 0.45355 0.73625 0.0
H1351 H 0.77806 0.45815 0.7762 0.0
H1352 H 0.79459 0.44921 0.77127 0.0
H1353 H 0.78041 0.47818 0.77669 0.0
H1354 H 0.75342 0.48058 0.75504 0.0
H1355 H 0.7826 0.49794 0.78243 0.0
H1356 H 0.75523 0.5005 0.76118 0.0
H1357 H 0.77591 0.55904 0.80668 0.0
H1358 H 0.76171 0.57055 0.81407 0.0
H1359 H 0.74348 0.561 0.78323 0.0
H1360 H 0.75755 0.54929 0.77602 0.0
H1361 H 0.7744 0.55704 0.76719 0.0
H1362 H 0.78893 0.56829 0.75704 0.0
H1363 H 0.81359 0.56372 0.78051 0.0
H1364 H 0.79881 0.55248 0.7908 0.0
H1365 H 0.77718 0.5316 0.79916 0.0
H1366 H 0.77363 0.51162 0.79346 0.0
H1367 H 0.7674 0.5176 0.75957 0.0
N1368 N 0.77701 0.5477 0.78643 0.0
H1369 H 0.77047 0.53746 0.76548 0.0
C1370 C 0.75669 0.45946 0.76797 0.0
C1371 C 0.7556 0.46132 0.77982 0.0
C1372 C 0.74793 0.45418 0.78569 0.0
C1373 C 0.74139 0.44493 0.77988 0.0
C1374 C 0.7424 0.44313 0.76807 0.0
C1375 C 0.74993 0.45037 0.76218 0.0
C1376 C 0.7753 0.46119 0.75911 0.0
C1377 C 0.77936 0.45994 0.74792 0.0
C1378 C 0.78877 0.45468 0.74504 0.0
C1379 C 0.79434 0.45059 0.75335 0.0
C1380 C 0.7904 0.45208 0.76462 0.0
C1381 C 0.78097 0.45728 0.76748 0.0
C1382 C 0.7668 0.47784 0.76524 0.0
C1383 C 0.77494 0.48292 0.77312 0.0
C1384 C 0.77609 0.49429 0.77654 0.0
C1385 C 0.76906 0.50085 0.77231 0.0
C1386 C 0.76089 0.49574 0.7645 0.0
C1387 C 0.7598 0.48436 0.76101 0.0
C1388 C 0.76786 0.55341 0.79081 0.0
C1389 C 0.76874 0.5593 0.80162 0.0
C1390 C 0.76063 0.56583 0.80581 0.0
C1391 C 0.75154 0.5667 0.79919 0.0
C1392 C 0.75047 0.56055 0.78846 0.0
C1393 C 0.75851 0.55386 0.78434 0.0
C1394 C 0.78552 0.55391 0.77983 0.0
C1395 C 0.78291 0.55833 0.77015 0.0
C1396 C 0.79128 0.56474 0.76428 0.0
C1397 C 0.80243 0.56689 0.76795 0.0
C1398 C 0.80506 0.56229 0.77752 0.0
C1399 C 0.79667 0.55585 0.78337 0.0
C1400 C 0.77423 0.53603 0.78278 0.0
C1401 C 0.77494 0.52855 0.79054 0.0
C1402 C 0.77301 0.51715 0.78722 0.0
C1403 C 0.77038 0.51298 0.776 0.0
C1404 C 0.76933 0.5205 0.76829 0.0
C1405 C 0.77118 0.53192 0.77165 0.0
H1406 H 0.25386 0.56603 0.79145 0.0
N1407 N 0.25491 0.54786 0.77722 0.0
H1408 H 0.26951 0.5793 0.7996 0.0
H1409 H 0.27738 0.54638 0.77391 0.0
H1410 H 0.29307 0.55928 0.7824 0.0
H1411 H 0.26713 0.55368 0.7583 0.0
H1412 H 0.26025 0.56185 0.74282 0.0
H1413 H 0.23369 0.54947 0.77341 0.0
H1414 H 0.22669 0.55745 0.7578 0.0
H1415 H 0.24909 0.53695 0.79484 0.0
H1416 H 0.26179 0.53269 0.76049 0.0
H1417 H 0.25078 0.51782 0.79681 0.0
H1418 H 0.26291 0.51333 0.76212 0.0
H1419 H 0.25647 0.45788 0.80351 0.0
H1420 H 0.26962 0.45161 0.81538 0.0
H1421 H 0.29745 0.47056 0.7987 0.0
H1422 H 0.28428 0.47664 0.78682 0.0
H1423 H 0.27753 0.46405 0.77021 0.0
H1424 H 0.27604 0.44738 0.75679 0.0
H1425 H 0.24103 0.43892 0.76683 0.0
H1426 H 0.24275 0.45554 0.78058 0.0
H1427 H 0.24553 0.48067 0.79468 0.0
H1428 H 0.24309 0.49941 0.79171 0.0
H1429 H 0.27328 0.50188 0.77039 0.0
N1430 N 0.26146 0.46932 0.7861 0.0
H1431 H 0.27515 0.48291 0.77285 0.0
C1432 C 0.26441 0.55521 0.78217 0.0
C1433 C 0.26242 0.56452 0.78951 0.0
C1434 C 0.27138 0.57203 0.79421 0.0
C1435 C 0.28259 0.57033 0.79173 0.0
C1436 C 0.28457 0.56092 0.78442 0.0
C1437 C 0.27559 0.55347 0.77962 0.0
C1438 C 0.25091 0.55111 0.76712 0.0
C1439 C 0.25828 0.55436 0.75822 0.0
C1440 C 0.25435 0.55904 0.74937 0.0
C1441 C 0.24296 0.56036 0.74916 0.0
C1442 C 0.23549 0.55648 0.75771 0.0
C1443 C 0.23946 0.55195 0.76662 0.0
C1444 C 0.25515 0.53623 0.77753 0.0
C1445 C 0.25202 0.53178 0.78765 0.0
C1446 C 0.25294 0.52081 0.78872 0.0
C1447 C 0.25692 0.51393 0.7796 0.0
C1448 C 0.25994 0.51838 0.76937 0.0
C1449 C 0.25916 0.52945 0.76837 0.0
C1450 C 0.26931 0.46771 0.79428 0.0
C1451 C 0.26539 0.4609 0.80264 0.0
C1452 C 0.27293 0.45733 0.80941 0.0
C1453 C 0.28461 0.4605 0.80792 0.0
C1454 C 0.28852 0.46783 0.79994 0.0
C1455 C 0.28095 0.4714 0.79318 0.0
C1456 C 0.26024 0.46096 0.7765 0.0
C1457 C 0.26946 0.45878 0.76936 0.0
C1458 C 0.26857 0.44923 0.76161 0.0
C1459 C 0.25845 0.44172 0.76084 0.0
C1460 C 0.24901 0.44442 0.76737 0.0
C1461 C 0.24993 0.45394 0.77515 0.0
C1462 C 0.26059 0.48046 0.7842 0.0
C1463 C 0.25159 0.4853 0.78937 0.0
C1464 C 0.25028 0.49603 0.7877 0.0
C1465 C 0.25806 0.50227 0.7809 0.0
C1466 C 0.26705 0.49733 0.7756 0.0
C1467 C 0.26825 0.48649 0.77714 0.0
H1468 H 0.27639 0.55189 0.27482 0.0
N1469 N 0.25897 0.53571 0.26762 0.0
H1470 H 0.28995 0.56241 0.26299 0.0
H1471 H 0.26123 0.53271 0.24523 0.0
H1472 H 0.27508 0.54307 0.23322 0.0
H1473 H 0.24153 0.54515 0.26328 0.0
H1474 H 0.23233 0.55857 0.27582 0.0
H1475 H 0.26366 0.54263 0.28989 0.0
H1476 H 0.25456 0.55604 0.30243 0.0
H1477 H 0.27859 0.53259 0.27694 0.0
H1478 H 0.24522 0.5166 0.26768 0.0
H1479 H 0.2827 0.51549 0.28273 0.0
H1480 H 0.24904 0.49948 0.27411 0.0
H1481 H 0.29643 0.45966 0.29906 0.0
H1482 H 0.31188 0.45168 0.28874 0.0
H1483 H 0.29793 0.45613 0.25723 0.0
H1484 H 0.28245 0.46371 0.26752 0.0
H1485 H 0.26746 0.44959 0.27526 0.0
H1486 H 0.25481 0.4331 0.27965 0.0
H1487 H 0.25809 0.4442 0.31526 0.0
H1488 H 0.27058 0.4609 0.31075 0.0
H1489 H 0.28446 0.48589 0.30093 0.0
H1490 H 0.27913 0.50316 0.29637 0.0
H1491 H 0.25931 0.48482 0.26897 0.0
N1492 N 0.27861 0.46562 0.29055 0.0
H1493 H 0.26416 0.46768 0.274 0.0
C1494 C 0.26768 0.54154 0.26089 0.0
C1495 C 0.27604 0.54985 0.26577 0.0
C1496 C 0.28389 0.55581 0.25897 0.0
C1497 C 0.28361 0.5536 0.24714 0.0
C1498 C 0.27544 0.54508 0.24229 0.0
C1499 C 0.26757 0.53912 0.24912 0.0
C1500 C 0.2532 0.54282 0.27562 0.0
C1501 C 0.2443 0.54741 0.27186 0.0
C1502 C 0.23914 0.55512 0.279 0.0
C1503 C 0.24276 0.5584 0.29009 0.0
C1504 C 0.25151 0.5536 0.29397 0.0
C1505 C 0.25672 0.54592 0.28679 0.0
C1506 C 0.26161 0.52584 0.27163 0.0
C1507 C 0.2721 0.52542 0.27618 0.0
C1508 C 0.2744 0.5156 0.27965 0.0
C1509 C 0.26623 0.50602 0.27887 0.0
C1510 C 0.25564 0.50659 0.27462 0.0
C1511 C 0.2534 0.51638 0.27101 0.0
C1512 C 0.28828 0.46234 0.28415 0.0
C1513 C 0.29684 0.45906 0.28993 0.0
C1514 C 0.30567 0.45454 0.28401 0.0
C1515 C 0.30611 0.4532 0.27215 0.0
C1516 C 0.29775 0.45687 0.26637 0.0
C1517 C 0.28891 0.46134 0.27228 0.0
C1518 C 0.26999 0.45652 0.29273 0.0
C1519 C 0.26528 0.44864 0.28401 0.0
C1520 C 0.25811 0.43913 0.28653 0.0
C1521 C 0.25552 0.43727 0.29781 0.0
C1522 C 0.25982 0.44542 0.30649 0.0
C1523 C 0.26698 0.45494 0.30395 0.0
C1524 C 0.27481 0.4755 0.28781 0.0
C1525 C 0.27887 0.48564 0.29401 0.0
C1526 C 0.27589 0.4955 0.29132 0.0
C1527 C 0.26886 0.49545 0.28222 0.0
C1528 C 0.26462 0.48522 0.27612 0.0
C1529 C 0.26749 0.47535 0.27894 0.0
H1530 H 0.79479 0.47775 0.28913 0.0
N1531 N 0.77164 0.47397 0.29049 0.0
H1532 H 0.80733 0.46988 0.30032 0.0
H1533 H 0.76628 0.46475 0.3093 0.0
H1534 H 0.77878 0.4571 0.32075 0.0
H1535 H 0.75068 0.46378 0.28668 0.0
H1536 H 0.74478 0.44673 0.27402 0.0
H1537 H 0.78522 0.46286 0.27557 0.0
H1538 H 0.77945 0.44607 0.26306 0.0
H1539 H 0.78322 0.48041 0.27126 0.0
H1540 H 0.76487 0.49216 0.30103 0.0
H1541 H 0.78522 0.49845 0.26478 0.0
H1542 H 0.7675 0.51066 0.29493 0.0
H1543 H 0.80186 0.56229 0.25865 0.0
H1544 H 0.81419 0.57616 0.27072 0.0
H1545 H 0.79298 0.56825 0.29973 0.0
H1546 H 0.78065 0.55448 0.28756 0.0
H1547 H 0.76676 0.56009 0.27611 0.0
H1548 H 0.75351 0.56967 0.26785 0.0
H1549 H 0.76588 0.55857 0.23449 0.0
H1550 H 0.77941 0.54927 0.24292 0.0
H1551 H 0.79692 0.53465 0.2612 0.0
H1552 H 0.79461 0.51643 0.26774 0.0
H1553 H 0.76171 0.52128 0.28191 0.0
N1554 N 0.78318 0.54958 0.26468 0.0
H1555 H 0.76445 0.53974 0.27592 0.0
C1556 C 0.77954 0.47175 0.29834 0.0
C1557 C 0.79126 0.47349 0.29617 0.0
C1558 C 0.79843 0.46899 0.30261 0.0
C1559 C 0.79403 0.46269 0.31131 0.0
C1560 C 0.78242 0.4617 0.31396 0.0
C1561 C 0.77527 0.46617 0.30752 0.0
C1562 C 0.76834 0.46469 0.28206 0.0
C1563 C 0.75694 0.46003 0.28138 0.0
C1564 C 0.7536 0.45029 0.27421 0.0
C1565 C 0.76165 0.4451 0.26752 0.0
C1566 C 0.77302 0.44997 0.26795 0.0
C1567 C 0.77634 0.4596 0.27517 0.0
C1568 C 0.77369 0.4848 0.28664 0.0
C1569 C 0.77966 0.48685 0.27649 0.0
C1570 C 0.78092 0.49732 0.27282 0.0
C1571 C 0.7765 0.50609 0.27928 0.0
C1572 C 0.7708 0.50408 0.28957 0.0
C1573 C 0.76939 0.49355 0.29315 0.0
C1574 C 0.79037 0.55741 0.27217 0.0
C1575 C 0.79994 0.56354 0.26762 0.0
C1576 C 0.807 0.57138 0.27454 0.0
C1577 C 0.80458 0.57327 0.28619 0.0
C1578 C 0.79501 0.56704 0.29078 0.0
C1579 C 0.78797 0.55916 0.28384 0.0
C1580 C 0.77416 0.55399 0.2601 0.0
C1581 C 0.76656 0.55959 0.26703 0.0
C1582 C 0.75892 0.56504 0.26226 0.0
C1583 C 0.75869 0.56499 0.25049 0.0
C1584 C 0.76597 0.55896 0.24359 0.0
C1585 C 0.77362 0.55354 0.24837 0.0
C1586 C 0.78085 0.53852 0.26789 0.0
C1587 C 0.78918 0.53171 0.26564 0.0
C1588 C 0.7878 0.52127 0.26936 0.0
C1589 C 0.77793 0.51728 0.27533 0.0
C1590 C 0.7695 0.52409 0.27749 0.0
C1591 C 0.77098 0.53465 0.27391 0.0
H1592 H 0.55524 0.2969 0.73456 0.0
N1593 N 0.54519 0.27713 0.7392 0.0
H1594 H 0.56724 0.3109 0.74689 0.0
H1595 H 0.54945 0.27597 0.76126 0.0
H1596 H 0.56128 0.28989 0.77366 0.0
H1597 H 0.54318 0.2588 0.75046 0.0
H1598 H 0.55389 0.24332 0.7461 0.0
H1599 H 0.55791 0.27301 0.721 0.0
H1600 H 0.56855 0.25761 0.7165 0.0
H1601 H 0.53336 0.28164 0.72273 0.0
H1602 H 0.53008 0.27207 0.75635 0.0
H1603 H 0.51337 0.28346 0.7233 0.0
H1604 H 0.51014 0.27419 0.75718 0.0
H1605 H 0.45419 0.30416 0.73908 0.0
H1606 H 0.44453 0.31467 0.75419 0.0
H1607 H 0.45361 0.29408 0.77805 0.0
H1608 H 0.46298 0.28348 0.76281 0.0
H1609 H 0.45196 0.26903 0.74946 0.0
H1610 H 0.43948 0.25379 0.7393 0.0
H1611 H 0.44716 0.26868 0.70839 0.0
H1612 H 0.45964 0.28396 0.71868 0.0
H1613 H 0.48225 0.29929 0.73291 0.0
H1614 H 0.50189 0.29629 0.73283 0.0
H1615 H 0.49162 0.267 0.74957 0.0
N1616 N 0.46422 0.28673 0.74044 0.0
H1617 H 0.47209 0.27026 0.74989 0.0
C1618 C 0.55154 0.28541 0.74695 0.0
C1619 C 0.55647 0.29541 0.74313 0.0
C1620 C 0.56325 0.30339 0.75019 0.0
C1621 C 0.56523 0.30147 0.76123 0.0
C1622 C 0.56002 0.29154 0.76515 0.0
C1623 C 0.55321 0.28359 0.75808 0.0
C1624 C 0.54984 0.26708 0.73605 0.0
C1625 C 0.54859 0.25851 0.74297 0.0
C1626 C 0.55473 0.24969 0.74048 0.0
C1627 C 0.5621 0.24925 0.73097 0.0
C1628 C 0.56286 0.25759 0.7238 0.0
C1629 C 0.55681 0.26641 0.72635 0.0
C1630 C 0.53318 0.27677 0.73946 0.0
C1631 C 0.52826 0.27983 0.73019 0.0
C1632 C 0.51689 0.28099 0.7306 0.0
C1633 C 0.51019 0.27917 0.74037 0.0
C1634 C 0.51505 0.27563 0.74952 0.0
C1635 C 0.52646 0.27443 0.74907 0.0
C1636 C 0.45933 0.2931 0.74979 0.0
C1637 C 0.45416 0.302 0.7476 0.0
C1638 C 0.4487 0.30802 0.75626 0.0
C1639 C 0.4483 0.30524 0.76736 0.0
C1640 C 0.45364 0.29637 0.76958 0.0
C1641 C 0.45908 0.29033 0.76088 0.0
C1642 C 0.45675 0.27763 0.73477 0.0
C1643 C 0.451 0.26901 0.7405 0.0
C1644 C 0.44389 0.26028 0.73468 0.0
C1645 C 0.44235 0.26003 0.72304 0.0
C1646 C 0.44809 0.26869 0.71737 0.0
C1647 C 0.45524 0.27738 0.72319 0.0
C1648 C 0.47571 0.28502 0.74133 0.0
C1649 C 0.48429 0.29229 0.73665 0.0
C1650 C 0.49547 0.29048 0.73651 0.0
C1651 C 0.49832 0.2813 0.74104 0.0
C1652 C 0.48973 0.27417 0.74605 0.0
C1653 C 0.47852 0.27601 0.7462 0.0
H1654 H 0.50134 0.78336 0.7837 0.0
N1655 N 0.51427 0.80155 0.79483 0.0
H1656 H 0.48601 0.77127 0.79169 0.0
H1657 H 0.50722 0.80222 0.81637 0.0
H1658 H 0.49129 0.79018 0.82441 0.0
H1659 H 0.5054 0.82014 0.79821 0.0
H1660 H 0.49479 0.82773 0.78479 0.0
H1661 H 0.51354 0.79509 0.77191 0.0
H1662 H 0.50284 0.80249 0.7586 0.0
H1663 H 0.51979 0.78221 0.7831 0.0
H1664 H 0.53368 0.81318 0.80193 0.0
H1665 H 0.53831 0.77689 0.78062 0.0
H1666 H 0.55257 0.80795 0.79915 0.0
H1667 H 0.58774 0.75576 0.78036 0.0
H1668 H 0.59526 0.74383 0.79213 0.0
H1669 H 0.60801 0.77265 0.81498 0.0
H1670 H 0.60073 0.78446 0.80307 0.0
H1671 H 0.59833 0.79897 0.79177 0.0
H1672 H 0.61452 0.81102 0.78453 0.0
H1673 H 0.61874 0.78556 0.757 0.0
H1674 H 0.60247 0.77364 0.76426 0.0
H1675 H 0.5742 0.77525 0.76807 0.0
H1676 H 0.55584 0.78151 0.77058 0.0
H1677 H 0.56381 0.79487 0.80495 0.0
N1678 N 0.59029 0.77771 0.78291 0.0
H1679 H 0.58225 0.78886 0.80223 0.0
C1680 C 0.50568 0.79365 0.7995 0.0
C1681 C 0.49958 0.78478 0.79266 0.0
C1682 C 0.49074 0.77782 0.79724 0.0
C1683 C 0.48757 0.77972 0.80868 0.0
C1684 C 0.49366 0.78851 0.81557 0.0
C1685 C 0.50272 0.79536 0.81101 0.0
C1686 C 0.51021 0.80702 0.78617 0.0
C1687 C 0.50515 0.81647 0.78949 0.0
C1688 C 0.4991 0.82078 0.78182 0.0
C1689 C 0.49789 0.81561 0.7707 0.0
C1690 C 0.50353 0.80655 0.76717 0.0
C1691 C 0.5097 0.80234 0.7748 0.0
C1692 C 0.52523 0.79817 0.7928 0.0
C1693 C 0.52677 0.78795 0.78669 0.0
C1694 C 0.53748 0.78491 0.78518 0.0
C1695 C 0.54695 0.792 0.78966 0.0
C1696 C 0.54544 0.80224 0.7957 0.0
C1697 C 0.53468 0.80527 0.79723 0.0
C1698 C 0.59366 0.77096 0.79078 0.0
C1699 C 0.59202 0.75945 0.78801 0.0
C1700 C 0.59629 0.75266 0.79476 0.0
C1701 C 0.60231 0.7573 0.80446 0.0
C1702 C 0.60357 0.76883 0.80747 0.0
C1703 C 0.59931 0.7756 0.8007 0.0
C1704 C 0.59923 0.78538 0.77851 0.0
C1705 C 0.60267 0.79603 0.78413 0.0
C1706 C 0.61195 0.80289 0.78 0.0
C1707 C 0.6179 0.79925 0.77019 0.0
C1708 C 0.61424 0.78869 0.76448 0.0
C1709 C 0.60501 0.78184 0.76863 0.0
C1710 C 0.57954 0.78145 0.78494 0.0
C1711 C 0.57195 0.77952 0.77613 0.0
C1712 C 0.56146 0.78307 0.77762 0.0
C1713 C 0.55831 0.78863 0.788 0.0
C1714 C 0.56601 0.7907 0.79682 0.0
C1715 C 0.57654 0.78716 0.7953 0.0
H1716 H 0.55378 0.7636 0.25746 0.0
N1717 N 0.53968 0.74952 0.26975 0.0
H1718 H 0.56505 0.78106 0.26481 0.0
H1719 H 0.5399 0.75929 0.29083 0.0
H1720 H 0.55096 0.77692 0.29826 0.0
H1721 H 0.55099 0.73648 0.27928 0.0
H1722 H 0.56461 0.72513 0.27029 0.0
H1723 H 0.54362 0.74499 0.24677 0.0
H1724 H 0.55685 0.73345 0.23773 0.0
H1725 H 0.53428 0.75966 0.25196 0.0
H1726 H 0.52026 0.7413 0.2791 0.0
H1727 H 0.5155 0.76161 0.24674 0.0
H1728 H 0.50138 0.74403 0.27461 0.0
H1729 H 0.45302 0.77877 0.24579 0.0
H1730 H 0.4441 0.79207 0.2587 0.0
H1731 H 0.45406 0.77748 0.28705 0.0
H1732 H 0.4626 0.76401 0.27404 0.0
H1733 H 0.44796 0.74916 0.26379 0.0
H1734 H 0.43276 0.73468 0.25689 0.0
H1735 H 0.4431 0.73973 0.22256 0.0
H1736 H 0.45836 0.75429 0.22957 0.0
H1737 H 0.48237 0.77484 0.24809 0.0
H1738 H 0.50107 0.77142 0.25228 0.0
H1739 H 0.48635 0.73979 0.26285 0.0
N1740 N 0.46271 0.76215 0.25093 0.0
H1741 H 0.46775 0.7437 0.25953 0.0
C1742 C 0.54607 0.76009 0.27367 0.0
C1743 C 0.55307 0.76646 0.26636 0.0
C1744 C 0.55946 0.7765 0.27056 0.0
C1745 C 0.55895 0.78036 0.28213 0.0
C1746 C 0.55169 0.7741 0.28934 0.0
C1747 C 0.54533 0.76406 0.28513 0.0
C1748 C 0.54622 0.74161 0.26381 0.0
C1749 C 0.5521 0.73567 0.27018 0.0
C1750 C 0.55986 0.72916 0.26501 0.0
C1751 C 0.56191 0.72842 0.25327 0.0
C1752 C 0.55564 0.73399 0.24681 0.0
C1753 C 0.54793 0.74055 0.25201 0.0
C1754 C 0.52867 0.75004 0.26578 0.0
C1755 C 0.52714 0.75588 0.25671 0.0
C1756 C 0.51633 0.7572 0.25388 0.0
C1757 C 0.5068 0.75307 0.26028 0.0
C1758 C 0.50841 0.74716 0.2693 0.0
C1759 C 0.51921 0.74561 0.27194 0.0
C1760 C 0.4585 0.77045 0.25891 0.0
C1761 C 0.45337 0.77855 0.2548 0.0
C1762 C 0.44833 0.78617 0.26221 0.0
C1763 C 0.44834 0.78586 0.27394 0.0
C1764 C 0.45375 0.77788 0.27807 0.0
C1765 C 0.45874 0.77022 0.27064 0.0
C1766 C 0.45423 0.75293 0.24715 0.0
C1767 C 0.447 0.74716 0.25478 0.0
C1768 C 0.43831 0.73886 0.25083 0.0
C1769 C 0.43669 0.73612 0.23919 0.0
C1770 C 0.44419 0.74159 0.23157 0.0
C1771 C 0.45286 0.74994 0.23554 0.0
C1772 C 0.47361 0.75956 0.25334 0.0
C1773 C 0.48322 0.76719 0.25134 0.0
C1774 C 0.49393 0.76513 0.25364 0.0
C1775 C 0.49534 0.75524 0.25781 0.0
C1776 C 0.48567 0.74757 0.25979 0.0
C1777 C 0.47493 0.74976 0.25775 0.0
H1778 H 0.61082 0.31467 0.34148 0.0
N1779 N 0.59777 0.3164 0.32474 0.0
H1780 H 0.61659 0.29788 0.34675 0.0
H1781 H 0.58993 0.29517 0.31571 0.0
H1782 H 0.59551 0.27823 0.32102 0.0
H1783 H 0.60359 0.30638 0.30401 0.0
H1784 H 0.61898 0.31329 0.29154 0.0
H1785 H 0.61054 0.33621 0.32715 0.0
H1786 H 0.62592 0.34337 0.31453 0.0
H1787 H 0.58206 0.31762 0.341 0.0
H1788 H 0.58678 0.31655 0.30485 0.0
H1789 H 0.5622 0.31883 0.33928 0.0
H1790 H 0.56729 0.31861 0.30316 0.0
H1791 H 0.49817 0.32363 0.33231 0.0
H1792 H 0.48305 0.30864 0.33602 0.0
H1793 H 0.50179 0.28501 0.31694 0.0
H1794 H 0.51659 0.29995 0.31301 0.0
H1795 H 0.50938 0.31087 0.29821 0.0
H1796 H 0.49929 0.31761 0.28403 0.0
H1797 H 0.50382 0.35024 0.30291 0.0
H1798 H 0.51347 0.34318 0.31743 0.0
H1799 H 0.52985 0.33156 0.33487 0.0
H1800 H 0.54986 0.33056 0.33604 0.0
H1801 H 0.54877 0.31021 0.30373 0.0
N1802 N 0.51603 0.32231 0.31859 0.0
H1803 H 0.52906 0.31203 0.30232 0.0
C1804 C 0.59998 0.30618 0.32826 0.0
C1805 C 0.60734 0.30672 0.33711 0.0
C1806 C 0.61058 0.2971 0.34012 0.0
C1807 C 0.6065 0.28669 0.33431 0.0
C1808 C 0.59889 0.28612 0.32558 0.0
C1809 C 0.59564 0.29578 0.32259 0.0
C1810 C 0.60595 0.32079 0.31657 0.0
C1811 C 0.60834 0.31449 0.30634 0.0
C1812 C 0.61709 0.31851 0.29915 0.0
C1813 C 0.62369 0.32888 0.30205 0.0
C1814 C 0.62106 0.33531 0.31212 0.0
C1815 C 0.61226 0.33128 0.31929 0.0
C1816 C 0.58604 0.31706 0.32316 0.0
C1817 C 0.57884 0.31775 0.3327 0.0
C1818 C 0.56749 0.31857 0.33169 0.0
C1819 C 0.56307 0.31896 0.32107 0.0
C1820 C 0.57029 0.31819 0.31147 0.0
C1821 C 0.58159 0.31712 0.31247 0.0
C1822 C 0.50853 0.31303 0.32238 0.0
C1823 C 0.49912 0.31518 0.32918 0.0
C1824 C 0.49051 0.30659 0.33131 0.0
C1825 C 0.49117 0.29564 0.32667 0.0
C1826 C 0.50095 0.29339 0.32048 0.0
C1827 C 0.50951 0.30198 0.3183 0.0
C1828 C 0.51206 0.32652 0.30901 0.0
C1829 C 0.50839 0.31951 0.29924 0.0
C1830 C 0.50264 0.32343 0.29106 0.0
C1831 C 0.50056 0.33446 0.29237 0.0
C1832 C 0.505 0.34163 0.30175 0.0
C1833 C 0.51063 0.33767 0.30999 0.0
C1834 C 0.52792 0.3218 0.31862 0.0
C1835 C 0.53401 0.32698 0.32802 0.0
C1836 C 0.54543 0.32628 0.3287 0.0
C1837 C 0.551 0.32015 0.32006 0.0
C1838 C 0.54488 0.31511 0.31052 0.0
C1839 C 0.53351 0.31604 0.30974 0.0
C1840 C 0.20748 0.19566 0.16602 0.0
C1841 C 0.20696 0.1843 0.16688 0.0
C1842 C 0.21536 0.20096 0.15872 0.0
C1843 C 0.23292 0.19581 0.13319 0.0
H1844 H 0.24967 0.22457 0.14355 0.0
C1845 C 0.26952 0.21746 0.10676 0.0
C1846 C 0.27066 0.22904 0.10702 0.0
C1847 C 0.2617 0.21186 0.11391 0.0
C1848 C 0.24495 0.21662 0.14045 0.0
H1849 H 0.21431 0.16961 0.16071 0.0
H1850 H 0.22806 0.1789 0.14793 0.0
H1851 H 0.23622 0.21508 0.15635 0.0
H1852 H 0.26437 0.24377 0.11503 0.0
H1853 H 0.25049 0.23398 0.12717 0.0
H1854 H 0.24153 0.19739 0.11724 0.0
C1855 C 0.22232 0.18367 0.15288 0.0
C1856 C 0.23727 0.21116 0.14781 0.0
C1857 C 0.21449 0.17837 0.16026 0.0
C1858 C 0.26365 0.23484 0.11448 0.0
C1859 C 0.25579 0.22924 0.12159 0.0
C1860 C 0.24056 0.2013 0.12579 0.0
C1861 C 0.22285 0.19503 0.15206 0.0
C1862 C 0.23115 0.20071 0.14426 0.0
C1863 C 0.25478 0.21769 0.12147 0.0
C1864 C 0.24666 0.21179 0.12932 0.0
H1865 H 0.20181 0.20049 0.17098 0.0
H1866 H 0.21548 0.2097 0.15818 0.0
H1867 H 0.22823 0.18782 0.13017 0.0
H1868 H 0.27469 0.2127 0.10103 0.0
H1869 H 0.26123 0.20298 0.11365 0.0
C1870 C 0.81362 0.19864 0.1344 0.0
C1871 C 0.81865 0.18907 0.13423 0.0
C1872 C 0.8113 0.20238 0.12433 0.0
C1873 C 0.80547 0.19313 0.09473 0.0
H1874 H 0.81212 0.2245 0.09164 0.0
C1875 C 0.80107 0.22646 0.06123 0.0
C1876 C 0.78954 0.22355 0.059 0.0
C1877 C 0.80602 0.22117 0.06895 0.0
C1878 C 0.81035 0.21569 0.09229 0.0
H1879 H 0.82514 0.17586 0.1234 0.0
H1880 H 0.82092 0.18237 0.10576 0.0
H1881 H 0.81818 0.21763 0.10828 0.0
H1882 H 0.7743 0.21244 0.06273 0.0
H1883 H 0.78297 0.20316 0.07608 0.0
H1884 H 0.7974 0.19124 0.07884 0.0
C1885 C 0.81883 0.18696 0.1137 0.0
C1886 C 0.81372 0.21179 0.10187 0.0
C1887 C 0.82127 0.18328 0.12379 0.0
C1888 C 0.78323 0.2148 0.06414 0.0
C1889 C 0.7882 0.20948 0.07181 0.0
C1890 C 0.80201 0.19705 0.08517 0.0
C1891 C 0.81386 0.19658 0.11389 0.0
C1892 C 0.81114 0.20051 0.10327 0.0
C1893 C 0.79956 0.21283 0.07454 0.0
C1894 C 0.80428 0.2084 0.08395 0.0
H1895 H 0.81151 0.20328 0.1423 0.0
H1896 H 0.80733 0.20974 0.12472 0.0
H1897 H 0.80335 0.18439 0.09563 0.0
H1898 H 0.80621 0.23302 0.05724 0.0
H1899 H 0.81484 0.22381 0.07077 0.0
C1900 C 0.87395 0.84678 0.15712 0.0
C1901 C 0.87794 0.84328 0.16674 0.0
C1902 C 0.86847 0.83909 0.1488 0.0
C1903 C 0.85155 0.81148 0.14581 0.0
H1904 H 0.85295 0.81551 0.11407 0.0
C1905 C 0.82197 0.7833 0.11401 0.0
C1906 C 0.81667 0.78885 0.10668 0.0
C1907 C 0.83106 0.78886 0.12036 0.0
C1908 C 0.85245 0.81429 0.12291 0.0
H1909 H 0.87987 0.82888 0.17483 0.0
H1910 H 0.87036 0.81544 0.16024 0.0
H1911 H 0.86641 0.82711 0.12687 0.0
H1912 H 0.81711 0.80446 0.0999 0.0
H1913 H 0.83284 0.81421 0.11111 0.0
H1914 H 0.83742 0.79889 0.14195 0.0
C1915 C 0.87134 0.82416 0.15923 0.0
C1916 C 0.86016 0.82093 0.13024 0.0
C1917 C 0.87685 0.83187 0.16756 0.0
C1918 C 0.82092 0.79998 0.10557 0.0
C1919 C 0.83003 0.80553 0.1119 0.0
C1920 C 0.84386 0.80484 0.13849 0.0
C1921 C 0.86684 0.82771 0.1499 0.0
C1922 C 0.85965 0.81976 0.14183 0.0
C1923 C 0.8351 0.80009 0.1195 0.0
C1924 C 0.84406 0.80632 0.12699 0.0
H1925 H 0.87467 0.85551 0.15619 0.0
H1926 H 0.86502 0.84214 0.14179 0.0
H1927 H 0.8508 0.81046 0.15471 0.0
H1928 H 0.81885 0.77474 0.11513 0.0
H1929 H 0.83486 0.78439 0.12605 0.0
C1930 C 0.26335 0.79549 0.15256 0.0
C1931 C 0.27375 0.80155 0.15609 0.0
C1932 C 0.2618 0.79131 0.14122 0.0
C1933 C 0.27801 0.78333 0.11543 0.0
H1934 H 0.25018 0.78334 0.10029 0.0
C1935 C 0.27416 0.76872 0.06827 0.0
C1936 C 0.26441 0.76134 0.06491 0.0
C1937 C 0.27472 0.77459 0.07903 0.0
C1938 C 0.25796 0.78321 0.10444 0.0
H1939 H 0.29057 0.80825 0.15044 0.0
H1940 H 0.28782 0.80106 0.13069 0.0
H1941 H 0.25231 0.79175 0.11989 0.0
H1942 H 0.24739 0.75482 0.07011 0.0
H1943 H 0.24847 0.76495 0.08906 0.0
H1944 H 0.28366 0.77473 0.10011 0.0
C1945 C 0.28092 0.79938 0.1367 0.0
C1946 C 0.25918 0.78802 0.11565 0.0
C1947 C 0.28248 0.80354 0.14802 0.0
C1948 C 0.25506 0.76035 0.07246 0.0
C1949 C 0.25565 0.76622 0.08328 0.0
C1950 C 0.2768 0.77855 0.10426 0.0
C1951 C 0.27061 0.7931 0.13319 0.0
C1952 C 0.26924 0.78814 0.12126 0.0
C1953 C 0.2656 0.7732 0.08677 0.0
C1954 C 0.26679 0.77846 0.09862 0.0
H1955 H 0.25646 0.79381 0.15858 0.0
H1956 H 0.25379 0.78642 0.13881 0.0
H1957 H 0.28577 0.78306 0.11956 0.0
H1958 H 0.28159 0.76961 0.06277 0.0
H1959 H 0.28245 0.78004 0.08139 0.0
C1960 C 0.20883 0.8018 0.86591 0.0
C1961 C 0.20354 0.81082 0.87046 0.0
C1962 C 0.21535 0.79693 0.87268 0.0
C1963 C 0.23171 0.80262 0.89849 0.0
H1964 H 0.22806 0.77064 0.89722 0.0
C1965 C 0.25423 0.78092 0.92911 0.0
C1966 C 0.25819 0.77106 0.92474 0.0
C1967 C 0.24744 0.78583 0.92265 0.0
C1968 C 0.22931 0.77958 0.89758 0.0
H1969 H 0.20096 0.82184 0.88568 0.0
H1970 H 0.21242 0.81338 0.89746 0.0
H1971 H 0.21655 0.77906 0.88552 0.0
H1972 H 0.25845 0.75881 0.91009 0.0
H1973 H 0.24683 0.76745 0.89876 0.0
H1974 H 0.24461 0.80317 0.91037 0.0
C1975 C 0.21153 0.81009 0.88865 0.0
C1976 C 0.22268 0.7844 0.89089 0.0
C1977 C 0.20492 0.81489 0.88192 0.0
C1978 C 0.25535 0.7663 0.91375 0.0
C1979 C 0.24866 0.77125 0.90727 0.0
C1980 C 0.23842 0.7978 0.90511 0.0
C1981 C 0.2168 0.80106 0.88411 0.0
C1982 C 0.22381 0.79596 0.89126 0.0
C1983 C 0.24456 0.78105 0.91165 0.0
C1984 C 0.23732 0.78622 0.90473 0.0
H1985 H 0.20794 0.79847 0.85712 0.0
H1986 H 0.2194 0.79004 0.86893 0.0
H1987 H 0.23285 0.81156 0.89885 0.0
H1988 H 0.25623 0.78472 0.93759 0.0
H1989 H 0.24432 0.79329 0.92636 0.0
C1990 C 0.20086 0.20421 0.9127 0.0
C1991 C 0.20221 0.19341 0.90809 0.0
C1992 C 0.20796 0.21 0.92104 0.0
C1993 C 0.22717 0.20638 0.94294 0.0
H1994 H 0.23713 0.23776 0.94177 0.0
C1995 C 0.25843 0.23369 0.97452 0.0
C1996 C 0.25578 0.24424 0.97851 0.0
C1997 C 0.25228 0.22702 0.96587 0.0
C1998 C 0.23434 0.22903 0.94227 0.0
H1999 H 0.21212 0.18022 0.90869 0.0
H2000 H 0.22463 0.19043 0.92327 0.0
H2001 H 0.22596 0.22698 0.9266 0.0
H2002 H 0.24458 0.25604 0.97655 0.0
H2003 H 0.23377 0.24437 0.96165 0.0
H2004 H 0.23556 0.2085 0.95869 0.0
C2005 C 0.21797 0.19435 0.92045 0.0
C2006 C 0.22794 0.22284 0.93357 0.0
C2007 C 0.21085 0.18852 0.91206 0.0
C2008 C 0.24676 0.24791 0.97377 0.0
C2009 C 0.24066 0.24128 0.96512 0.0
C2010 C 0.23361 0.21258 0.95166 0.0
C2011 C 0.21663 0.20517 0.925 0.0
C2012 C 0.22413 0.21149 0.93388 0.0
C2013 C 0.24341 0.23081 0.96099 0.0
C2014 C 0.23711 0.22401 0.95149 0.0
H2015 H 0.19427 0.20823 0.9099 0.0
H2016 H 0.20655 0.21825 0.9245 0.0
H2017 H 0.22429 0.19767 0.94347 0.0
H2018 H 0.26528 0.2306 0.97806 0.0
H2019 H 0.25462 0.21901 0.96283 0.0
C2020 C 0.82748 0.2146 0.83984 0.0
C2021 C 0.83922 0.21501 0.83926 0.0
C2022 C 0.82157 0.21382 0.85014 0.0
C2023 C 0.82464 0.2097 0.88034 0.0
H2024 H 0.80289 0.23005 0.88562 0.0
C2025 C 0.81462 0.23298 0.92353 0.0
C2026 C 0.80361 0.23527 0.92589 0.0
C2027 C 0.81733 0.22718 0.91322 0.0
C2028 C 0.80875 0.22414 0.88425 0.0
H2029 H 0.854 0.21494 0.84891 0.0
H2030 H 0.8438 0.21384 0.86689 0.0
H2031 H 0.81062 0.22601 0.86674 0.0
H2032 H 0.78666 0.23271 0.91958 0.0
H2033 H 0.7914 0.22255 0.90159 0.0
H2034 H 0.82318 0.20843 0.89812 0.0
C2035 C 0.83904 0.2137 0.85939 0.0
C2036 C 0.81319 0.22179 0.87338 0.0
C2037 C 0.84491 0.21434 0.84907 0.0
C2038 C 0.79521 0.23102 0.91804 0.0
C2039 C 0.79793 0.22528 0.9077 0.0
C2040 C 0.82026 0.21214 0.89127 0.0
C2041 C 0.82732 0.21369 0.86011 0.0
C2042 C 0.8214 0.21476 0.87133 0.0
C2043 C 0.8091 0.22363 0.90504 0.0
C2044 C 0.81247 0.21959 0.89336 0.0
H2045 H 0.82291 0.21509 0.83236 0.0
H2046 H 0.81253 0.21363 0.85033 0.0
H2047 H 0.83078 0.20408 0.87903 0.0
H2048 H 0.82124 0.23606 0.92948 0.0
H2049 H 0.82603 0.22609 0.91138 0.0
C2050 C 0.84961 0.83084 0.90928 0.0
C2051 C 0.84803 0.84137 0.90686 0.0
C2052 C 0.84372 0.82609 0.91826 0.0
C2053 C 0.82818 0.83241 0.945 0.0
H2054 H 0.81502 0.80145 0.93953 0.0
C2055 C 0.79679 0.81041 0.97644 0.0
C2056 C 0.79734 0.79924 0.97747 0.0
C2057 C 0.80348 0.81592 0.96836 0.0
C2058 C 0.81878 0.81005 0.94128 0.0
H2059 H 0.83917 0.85527 0.91214 0.0
H2060 H 0.82884 0.84692 0.92789 0.0
H2061 H 0.82556 0.81041 0.92443 0.0
H2062 H 0.80565 0.78524 0.97097 0.0
H2063 H 0.81756 0.79494 0.95718 0.0
H2064 H 0.82141 0.83202 0.96189 0.0
C2065 C 0.83469 0.84238 0.92282 0.0
C2066 C 0.8248 0.8152 0.93259 0.0
C2067 C 0.84056 0.84714 0.91378 0.0
C2068 C 0.80505 0.79386 0.9705 0.0
C2069 C 0.81178 0.79938 0.96246 0.0
C2070 C 0.82219 0.82723 0.95372 0.0
C2071 C 0.83613 0.83175 0.92509 0.0
C2072 C 0.8296 0.82642 0.93435 0.0
C2073 C 0.81092 0.81041 0.96114 0.0
C2074 C 0.81744 0.81598 0.95197 0.0
H2075 H 0.85533 0.82618 0.90417 0.0
H2076 H 0.84515 0.81796 0.91989 0.0
H2077 H 0.83188 0.84103 0.94664 0.0
H2078 H 0.79105 0.81486 0.98177 0.0
H2079 H 0.80256 0.82439 0.96755 0.0
C2080 C 0.14029 0.18598 0.20993 0.0
C2081 C 0.14319 0.18727 0.19857 0.0
C2082 C 0.13062 0.18972 0.215 0.0
C2083 C 0.1117 0.20996 0.21212 0.0
H2084 H 0.09205 0.19367 0.23302 0.0
C2085 C 0.07124 0.22548 0.23085 0.0
C2086 C 0.06893 0.22483 0.24241 0.0
C2087 C 0.07962 0.22006 0.22517 0.0
C2088 C 0.09751 0.19836 0.22728 0.0
H2089 H 0.13797 0.19315 0.18355 0.0
H2090 H 0.12115 0.19958 0.19235 0.0
H2091 H 0.10799 0.1857 0.22381 0.0
H2092 H 0.07353 0.21788 0.25704 0.0
H2093 H 0.08819 0.2085 0.24716 0.0
H2094 H 0.1014 0.22269 0.21567 0.0
C2095 C 0.12642 0.19584 0.1974 0.0
C2096 C 0.10664 0.19379 0.222 0.0
C2097 C 0.13605 0.19209 0.19233 0.0
C2098 C 0.075 0.21842 0.24809 0.0
C2099 C 0.08341 0.21304 0.24242 0.0
C2100 C 0.10261 0.21453 0.21741 0.0
C2101 C 0.12368 0.19485 0.20883 0.0
C2102 C 0.11384 0.19955 0.21436 0.0
C2103 C 0.08593 0.21391 0.23092 0.0
C2104 C 0.0954 0.20881 0.22507 0.0
H2105 H 0.14561 0.1823 0.21497 0.0
H2106 H 0.12879 0.1889 0.22384 0.0
H2107 H 0.11721 0.2147 0.20644 0.0
H2108 H 0.0666 0.23022 0.2262 0.0
H2109 H 0.08118 0.22073 0.21626 0.0
C2110 C 0.83927 0.12799 0.20405 0.0
C2111 C 0.83636 0.13839 0.20821 0.0
C2112 C 0.83316 0.1183 0.20758 0.0
C2113 C 0.80519 0.10795 0.21926 0.0
H2114 H 0.81918 0.08353 0.22663 0.0
C2115 C 0.77818 0.06843 0.23178 0.0
C2116 C 0.78142 0.06482 0.24167 0.0
C2117 C 0.78552 0.07613 0.22624 0.0
C2118 C 0.81516 0.09028 0.22458 0.0
H2119 H 0.82511 0.14683 0.21971 0.0
H2120 H 0.81459 0.13 0.22594 0.0
H2121 H 0.83094 0.09993 0.22051 0.0
H2122 H 0.79518 0.06583 0.25304 0.0
H2123 H 0.80789 0.07944 0.24353 0.0
H2124 H 0.78946 0.09855 0.22366 0.0
C2125 C 0.82143 0.12929 0.21978 0.0
C2126 C 0.82188 0.09963 0.22101 0.0
C2127 C 0.82752 0.13894 0.21627 0.0
C2128 C 0.79238 0.06859 0.24554 0.0
C2129 C 0.79971 0.0763 0.24001 0.0
C2130 C 0.79848 0.09862 0.2228 0.0
C2131 C 0.82403 0.11886 0.2153 0.0
C2132 C 0.81697 0.10864 0.2185 0.0
C2133 C 0.79625 0.08038 0.23048 0.0
C2134 C 0.80339 0.08974 0.22565 0.0
H2135 H 0.84605 0.12729 0.19782 0.0
H2136 H 0.83535 0.11038 0.20396 0.0
H2137 H 0.80113 0.11467 0.21719 0.0
H2138 H 0.76979 0.06571 0.22861 0.0
H2139 H 0.78267 0.079 0.21882 0.0
C2140 C 0.93129 0.86076 0.21597 0.0
C2141 C 0.9206 0.85455 0.2176 0.0
C2142 C 0.9405 0.85917 0.22197 0.0
C2143 C 0.9599 0.85069 0.23199 0.0
H2144 H 0.95423 0.84574 0.2633 0.0
C2145 C 0.99344 0.83892 0.25992 0.0
C2146 C 0.9934 0.84311 0.27143 0.0
C2147 C 0.98509 0.84073 0.25288 0.0
C2148 C 0.95601 0.84723 0.25461 0.0
H2149 H 0.91131 0.84153 0.22652 0.0
H2150 H 0.92738 0.83858 0.23679 0.0
H2151 H 0.93871 0.84791 0.25193 0.0
H2152 H 0.98462 0.85279 0.28441 0.0
H2153 H 0.97047 0.8563 0.2721 0.0
H2154 H 0.9773 0.85032 0.23482 0.0
C2155 C 0.92861 0.84488 0.23108 0.0
C2156 C 0.94705 0.8483 0.24802 0.0
C2157 C 0.9194 0.84652 0.22514 0.0
C2158 C 0.98506 0.84953 0.27559 0.0
C2159 C 0.97679 0.85139 0.26855 0.0
C2160 C 0.96889 0.84966 0.23861 0.0
C2161 C 0.93925 0.85129 0.22971 0.0
C2162 C 0.94886 0.85003 0.23662 0.0
C2163 C 0.97653 0.8468 0.25717 0.0
C2164 C 0.96706 0.84795 0.25002 0.0
H2165 H 0.93249 0.86703 0.21024 0.0
H2166 H 0.94853 0.86434 0.22078 0.0
H2167 H 0.96159 0.85191 0.22321 0.0
H2168 H 0.99979 0.83405 0.25639 0.0
H2169 H 0.98514 0.83703 0.24417 0.0
C2170 C 0.26134 0.84769 0.21739 0.0
C2171 C 0.26486 0.84462 0.20624 0.0
C2172 C 0.25946 0.85852 0.22087 0.0
C2173 C 0.2673 0.88703 0.2136 0.0
H2174 H 0.2438 0.89304 0.23584 0.0
C2175 C 0.26182 0.93161 0.23148 0.0
C2176 C 0.26149 0.93345 0.24335 0.0
C2177 C 0.26038 0.92084 0.22589 0.0
C2178 C 0.25039 0.89148 0.22961 0.0
H2179 H 0.26928 0.85042 0.18999 0.0
H2180 H 0.26582 0.86934 0.19599 0.0
H2181 H 0.24488 0.87398 0.22788 0.0
H2182 H 0.259 0.9253 0.25859 0.0
H2183 H 0.25626 0.90661 0.24885 0.0
H2184 H 0.27289 0.90452 0.21546 0.0
C2185 C 0.26458 0.86342 0.20209 0.0
C2186 C 0.25104 0.88057 0.22509 0.0
C2187 C 0.26652 0.85259 0.19863 0.0
C2188 C 0.25912 0.92425 0.24945 0.0
C2189 C 0.25758 0.9135 0.24387 0.0
C2190 C 0.26659 0.89794 0.21807 0.0
C2191 C 0.26108 0.86653 0.21327 0.0
C2192 C 0.25966 0.87819 0.21721 0.0
C2193 C 0.25846 0.91167 0.23204 0.0
C2194 C 0.25828 0.90026 0.2263 0.0
H2195 H 0.26043 0.84184 0.22355 0.0
H2196 H 0.25707 0.86068 0.22962 0.0
H2197 H 0.27414 0.88551 0.20767 0.0
H2198 H 0.26344 0.9385 0.2265 0.0
H2199 H 0.26096 0.91966 0.21675 0.0
C2200 C 0.14217 0.81666 0.85235 0.0
C2201 C 0.1452 0.82792 0.85093 0.0
C2202 C 0.13233 0.81055 0.84764 0.0
C2203 C 0.10516 0.81353 0.83577 0.0
H2204 H 0.1072 0.78457 0.81958 0.0
C2205 C 0.07265 0.79149 0.80319 0.0
C2206 C 0.06964 0.77994 0.80269 0.0
C2207 C 0.08119 0.7971 0.81021 0.0
C2208 C 0.10642 0.79257 0.82421 0.0
H2209 H 0.14015 0.84163 0.84366 0.0
H2210 H 0.12311 0.83099 0.83542 0.0
H2211 H 0.12331 0.79476 0.82996 0.0
H2212 H 0.07321 0.76525 0.8093 0.0
H2213 H 0.08799 0.77508 0.8217 0.0
H2214 H 0.08833 0.81141 0.82986 0.0
C2215 C 0.12824 0.82689 0.84025 0.0
C2216 C 0.11566 0.79841 0.83017 0.0
C2217 C 0.13807 0.83298 0.84492 0.0
C2218 C 0.07524 0.77416 0.80956 0.0
C2219 C 0.0838 0.77978 0.81657 0.0
C2220 C 0.09592 0.80769 0.82981 0.0
C2221 C 0.12531 0.81558 0.84146 0.0
C2222 C 0.11519 0.80902 0.83589 0.0
C2223 C 0.08696 0.7913 0.8169 0.0
C2224 C 0.09649 0.7972 0.82385 0.0
H2225 H 0.14747 0.81252 0.85695 0.0
H2226 H 0.13024 0.80188 0.84883 0.0
H2227 H 0.10446 0.82161 0.84024 0.0
H2228 H 0.06842 0.7962 0.79809 0.0
H2229 H 0.08349 0.80597 0.81018 0.0
C2230 C 0.19789 0.14048 0.84954 0.0
C2231 C 0.19695 0.14079 0.86134 0.0
C2232 C 0.2022 0.13178 0.84299 0.0
C2233 C 0.22112 0.11176 0.84334 0.0
H2234 H 0.20323 0.09411 0.81952 0.0
C2235 C 0.23576 0.0729 0.81877 0.0
C2236 C 0.23314 0.07035 0.80733 0.0
C2237 C 0.2311 0.08126 0.8255 0.0
C2238 C 0.20846 0.09905 0.82599 0.0
H2239 H 0.19999 0.13239 0.87556 0.0
H2240 H 0.20788 0.11737 0.86409 0.0
H2241 H 0.19589 0.10948 0.83075 0.0
H2242 H 0.22378 0.07455 0.79388 0.0
H2243 H 0.21603 0.08948 0.80542 0.0
H2244 H 0.2339 0.10176 0.83839 0.0
C2245 C 0.20513 0.12378 0.85994 0.0
C2246 C 0.20419 0.10781 0.83246 0.0
C2247 C 0.20058 0.13234 0.86648 0.0
C2248 C 0.22581 0.07629 0.80273 0.0
C2249 C 0.22132 0.08481 0.80939 0.0
C2250 C 0.2255 0.10315 0.83673 0.0
C2251 C 0.20589 0.12339 0.84814 0.0
C2252 C 0.21047 0.1142 0.84122 0.0
C2253 C 0.2239 0.08743 0.82088 0.0
C2254 C 0.21922 0.09663 0.82797 0.0
H2255 H 0.19512 0.14686 0.84535 0.0
H2256 H 0.20276 0.13166 0.8339 0.0
H2257 H 0.22615 0.11666 0.85 0.0
H2258 H 0.24135 0.06835 0.82251 0.0
H2259 H 0.23311 0.08282 0.83435 0.0
C2260 C 0.89585 0.23261 0.81607 0.0
C2261 C 0.88788 0.23986 0.81636 0.0
C2262 C 0.90695 0.23662 0.81913 0.0
C2263 C 0.93077 0.24892 0.81731 0.0
H2264 H 0.93862 0.27209 0.84197 0.0
C2265 C 0.96912 0.28634 0.82788 0.0
C2266 C 0.97807 0.28084 0.8236 0.0
C2267 C 0.95848 0.28031 0.8298 0.0
C2268 C 0.93657 0.26563 0.83505 0.0
H2269 H 0.88521 0.25694 0.82043 0.0
H2270 H 0.9046 0.26394 0.82565 0.0
H2271 H 0.91899 0.26343 0.83973 0.0
H2272 H 0.98331 0.26482 0.819 0.0
H2273 H 0.96485 0.25424 0.82273 0.0
H2274 H 0.94814 0.25138 0.81227 0.0
C2275 C 0.90225 0.25515 0.82317 0.0
C2276 C 0.92533 0.26067 0.83377 0.0
C2277 C 0.89116 0.25115 0.82007 0.0
C2278 C 0.97648 0.26922 0.8222 0.0
C2279 C 0.9659 0.2632 0.82425 0.0
C2280 C 0.94196 0.2539 0.81855 0.0
C2281 C 0.9103 0.24795 0.82258 0.0
C2282 C 0.9223 0.25241 0.82476 0.0
C2283 C 0.95664 0.26868 0.82756 0.0
C2284 C 0.94498 0.26246 0.8273 0.0
H2285 H 0.89357 0.22385 0.81333 0.0
H2286 H 0.91295 0.23086 0.81869 0.0
H2287 H 0.92869 0.24269 0.81019 0.0
H2288 H 0.97012 0.2953 0.82893 0.0
H2289 H 0.95155 0.28483 0.83227 0.0
C2290 C 0.85091 0.9122 0.85455 0.0
C2291 C 0.84622 0.90113 0.8555 0.0
C2292 C 0.84483 0.91919 0.84977 0.0
C2293 C 0.82085 0.91858 0.83124 0.0
H2294 H 0.82122 0.94898 0.84465 0.0
C2295 C 0.78943 0.94533 0.81875 0.0
C2296 C 0.79349 0.95641 0.81719 0.0
C2297 C 0.79618 0.93893 0.82344 0.0
C2298 C 0.82113 0.94055 0.84073 0.0
H2299 H 0.83142 0.88876 0.85221 0.0
H2300 H 0.8208 0.90095 0.84401 0.0
H2301 H 0.83242 0.93712 0.85273 0.0
H2302 H 0.80783 0.96947 0.81951 0.0
H2303 H 0.8197 0.95822 0.82765 0.0
H2304 H 0.80951 0.92196 0.8193 0.0
C2305 C 0.82924 0.9042 0.8468 0.0
C2306 C 0.82756 0.93375 0.84535 0.0
C2307 C 0.83531 0.89722 0.85157 0.0
C2308 C 0.80447 0.96096 0.82055 0.0
C2309 C 0.81123 0.95454 0.82529 0.0
C2310 C 0.81442 0.92536 0.82664 0.0
C2311 C 0.83392 0.91527 0.84583 0.0
C2312 C 0.82741 0.92265 0.84072 0.0
C2313 C 0.80719 0.94341 0.82669 0.0
C2314 C 0.8144 0.93639 0.83138 0.0
H2315 H 0.8593 0.91547 0.85747 0.0
H2316 H 0.84874 0.92762 0.84904 0.0
H2317 H 0.82072 0.91015 0.82731 0.0
H2318 H 0.78108 0.9415 0.81611 0.0
H2319 H 0.79274 0.93044 0.82453 0.0
C2320 C 0.20887 0.13552 0.21057 0.0
C2321 C 0.2034 0.13346 0.20021 0.0
C2322 C 0.21484 0.1277 0.21403 0.0
C2323 C 0.22929 0.10419 0.20297 0.0
H2324 H 0.22736 0.09806 0.23413 0.0
C2325 C 0.26067 0.08077 0.22182 0.0
C2326 C 0.25637 0.07311 0.22935 0.0
C2327 C 0.25376 0.08752 0.21787 0.0
C2328 C 0.22792 0.0996 0.22538 0.0
H2329 H 0.19986 0.12153 0.18539 0.0
H2330 H 0.21029 0.10789 0.19143 0.0
H2331 H 0.21599 0.11095 0.22813 0.0
H2332 H 0.24125 0.06633 0.23833 0.0
H2333 H 0.22923 0.0782 0.23153 0.0
H2334 H 0.24122 0.09284 0.20022 0.0
C2335 C 0.21002 0.11559 0.19684 0.0
C2336 C 0.2215 0.10708 0.22197 0.0
C2337 C 0.20399 0.12338 0.19341 0.0
C2338 C 0.24491 0.07226 0.23269 0.0
C2339 C 0.23801 0.07905 0.22878 0.0
C2340 C 0.23577 0.09676 0.2064 0.0
C2341 C 0.21554 0.11767 0.20718 0.0
C2342 C 0.22214 0.10949 0.21074 0.0
C2343 C 0.24238 0.08683 0.2214 0.0
C2344 C 0.2352 0.09442 0.21765 0.0
H2345 H 0.2086 0.1432 0.21601 0.0
H2346 H 0.2191 0.12961 0.22198 0.0
H2347 H 0.23005 0.10594 0.19428 0.0
H2348 H 0.26949 0.08181 0.21922 0.0
H2349 H 0.25743 0.09353 0.21232 0.0
C2350 C 0.2103 0.87042 0.85624 0.0
C2351 C 0.2053 0.86205 0.84815 0.0
C2352 C 0.21732 0.87971 0.85291 0.0
C2353 C 0.23304 0.8904 0.82771 0.0
H2354 H 0.23254 0.91893 0.84545 0.0
C2355 C 0.24947 0.93224 0.81119 0.0
C2356 C 0.25801 0.93905 0.81758 0.0
C2357 C 0.24332 0.92293 0.81536 0.0
C2358 C 0.23278 0.91099 0.84047 0.0
H2359 H 0.20365 0.85687 0.83021 0.0
H2360 H 0.21541 0.87321 0.82438 0.0
H2361 H 0.22133 0.90239 0.85179 0.0
H2362 H 0.26649 0.94142 0.83357 0.0
H2363 H 0.25529 0.92544 0.84102 0.0
H2364 H 0.24409 0.89921 0.81614 0.0
C2365 C 0.21431 0.8725 0.83332 0.0
C2366 C 0.22643 0.90148 0.84412 0.0
C2367 C 0.20748 0.86313 0.83666 0.0
C2368 C 0.2599 0.93651 0.82845 0.0
C2369 C 0.25356 0.92731 0.83271 0.0
C2370 C 0.23917 0.89993 0.82396 0.0
C2371 C 0.21934 0.88094 0.84138 0.0
C2372 C 0.22643 0.89104 0.83775 0.0
C2373 C 0.24535 0.92036 0.82611 0.0
C2374 C 0.23906 0.91029 0.83029 0.0
H2375 H 0.20883 0.86977 0.86517 0.0
H2376 H 0.2212 0.88589 0.85938 0.0
H2377 H 0.23351 0.88252 0.8227 0.0
H2378 H 0.24753 0.93405 0.80293 0.0
H2379 H 0.23691 0.91775 0.81019 0.0
C2380 C 0.14793 0.20059 0.8589 0.0
C2381 C 0.15425 0.20669 0.86782 0.0
C2382 C 0.14106 0.20574 0.85274 0.0
C2383 C 0.12719 0.2308 0.85422 0.0
H2384 H 0.12754 0.22491 0.82157 0.0
C2385 C 0.11262 0.26015 0.826 0.0
C2386 C 0.10631 0.25551 0.81649 0.0
C2387 C 0.11737 0.25342 0.83243 0.0
C2388 C 0.12722 0.22652 0.83069 0.0
H2389 H 0.15828 0.22296 0.87728 0.0
H2390 H 0.14649 0.2319 0.86652 0.0
H2391 H 0.13783 0.21445 0.83248 0.0
H2392 H 0.09986 0.24008 0.80645 0.0
H2393 H 0.10831 0.22834 0.81763 0.0
H2394 H 0.1168 0.24305 0.85241 0.0
C2395 C 0.14666 0.22312 0.86436 0.0
C2396 C 0.13311 0.22052 0.83695 0.0
C2397 C 0.1535 0.21799 0.87049 0.0
C2398 C 0.1048 0.24394 0.81362 0.0
C2399 C 0.10962 0.23721 0.82003 0.0
C2400 C 0.12135 0.23681 0.84797 0.0
C2401 C 0.14035 0.21707 0.85541 0.0
C2402 C 0.13332 0.22273 0.84878 0.0
C2403 C 0.11598 0.24189 0.82949 0.0
C2404 C 0.12144 0.23487 0.83613 0.0
H2405 H 0.14831 0.19186 0.85664 0.0
H2406 H 0.13624 0.20082 0.84595 0.0
H2407 H 0.12698 0.23254 0.86333 0.0
H2408 H 0.11416 0.26902 0.82834 0.0
H2409 H 0.1224 0.2573 0.83955 0.0
C2410 C 0.85002 0.15953 0.84024 0.0
C2411 C 0.8424 0.16703 0.8433 0.0
C2412 C 0.84619 0.14815 0.83849 0.0
C2413 C 0.82104 0.12647 0.84128 0.0
H2414 H 0.83238 0.11356 0.81258 0.0
C2415 C 0.7956 0.09108 0.81267 0.0
C2416 C 0.80136 0.08353 0.80582 0.0
C2417 C 0.80153 0.09978 0.81968 0.0
C2418 C 0.82927 0.1169 0.82074 0.0
H2419 H 0.82494 0.16841 0.84779 0.0
H2420 H 0.81824 0.14864 0.84452 0.0
H2421 H 0.84135 0.13158 0.82086 0.0
H2422 H 0.81775 0.07867 0.8016 0.0
H2423 H 0.82811 0.09385 0.81387 0.0
H2424 H 0.80861 0.1119 0.84082 0.0
C2425 C 0.82718 0.15149 0.84357 0.0
C2426 C 0.83444 0.12726 0.82551 0.0
C2427 C 0.83102 0.16286 0.84537 0.0
C2428 C 0.81311 0.08449 0.80662 0.0
C2429 C 0.81903 0.09317 0.81365 0.0
C2430 C 0.81584 0.11608 0.83647 0.0
C2431 C 0.83465 0.14404 0.83971 0.0
C2432 C 0.83022 0.13231 0.8357 0.0
C2433 C 0.81334 0.1011 0.82001 0.0
C2434 C 0.81973 0.1113 0.82601 0.0
H2435 H 0.85887 0.16247 0.83871 0.0
H2436 H 0.8522 0.14261 0.83575 0.0
H2437 H 0.81769 0.13005 0.84922 0.0
H2438 H 0.78656 0.09061 0.81217 0.0
H2439 H 0.79689 0.10581 0.82436 0.0
C2440 C 0.89154 0.86016 0.84073 0.0
C2441 C 0.88495 0.85432 0.84873 0.0
C2442 C 0.89854 0.85478 0.83292 0.0
C2443 C 0.90249 0.82692 0.81946 0.0
H2444 H 0.93332 0.84041 0.81394 0.0
C2445 C 0.93492 0.80172 0.79662 0.0
C2446 C 0.94239 0.80671 0.78866 0.0
C2447 C 0.92808 0.80795 0.80369 0.0
C2448 C 0.92469 0.83658 0.81528 0.0
H2449 H 0.88052 0.8382 0.85473 0.0
H2450 H 0.89266 0.82891 0.84121 0.0
H2451 H 0.92085 0.85061 0.82645 0.0
H2452 H 0.94871 0.82226 0.78213 0.0
H2453 H 0.93659 0.83309 0.79436 0.0
H2454 H 0.90627 0.81291 0.80835 0.0
C2455 C 0.89237 0.83761 0.84088 0.0
C2456 C 0.91755 0.84244 0.82244 0.0
C2457 C 0.88546 0.84298 0.84869 0.0
C2458 C 0.94297 0.81813 0.78809 0.0
C2459 C 0.9361 0.82437 0.79517 0.0
C2460 C 0.9096 0.8211 0.8123 0.0
C2461 C 0.899 0.84343 0.83291 0.0
C2462 C 0.90641 0.8376 0.82472 0.0
C2463 C 0.92848 0.81932 0.80297 0.0
C2464 C 0.92084 0.82579 0.81024 0.0
H2465 H 0.89135 0.8689 0.84053 0.0
H2466 H 0.90349 0.85947 0.82683 0.0
H2467 H 0.89389 0.82305 0.82087 0.0
H2468 H 0.93414 0.79293 0.79721 0.0
H2469 H 0.92244 0.80382 0.80972 0.0
C2470 C 0.86626 0.90332 0.21621 0.0
C2471 C 0.86094 0.89611 0.20732 0.0
C2472 C 0.8604 0.91091 0.2228 0.0
C2473 C 0.83533 0.92494 0.22249 0.0
H2474 H 0.83742 0.92876 0.25507 0.0
C2475 C 0.8024 0.94399 0.25171 0.0
C2476 C 0.8061 0.95138 0.2612 0.0
C2477 C 0.80991 0.93818 0.2451 0.0
C2478 C 0.83687 0.92791 0.24597 0.0
H2479 H 0.84527 0.8912 0.19843 0.0
H2480 H 0.83509 0.90427 0.20994 0.0
H2481 H 0.84914 0.91689 0.24359 0.0
H2482 H 0.8207 0.9585 0.27111 0.0
H2483 H 0.83383 0.94822 0.25959 0.0
H2484 H 0.82292 0.93577 0.22486 0.0
C2485 C 0.84383 0.90422 0.21173 0.0
C2486 C 0.84359 0.92111 0.23939 0.0
C2487 C 0.84966 0.89666 0.20517 0.0
C2488 C 0.81754 0.95279 0.26393 0.0
C2489 C 0.82507 0.94692 0.25733 0.0
C2490 C 0.82862 0.9317 0.22905 0.0
C2491 C 0.84912 0.91146 0.22061 0.0
C2492 C 0.84274 0.9194 0.22758 0.0
C2493 C 0.82132 0.93955 0.24784 0.0
C2494 C 0.82916 0.93311 0.24087 0.0
H2495 H 0.87495 0.90311 0.21807 0.0
H2496 H 0.86473 0.91643 0.22953 0.0
H2497 H 0.83465 0.924 0.2134 0.0
H2498 H 0.79361 0.9425 0.24949 0.0
H2499 H 0.80671 0.93241 0.23797 0.0
C2500 C 0.20074 0.82532 0.22647 0.0
C2501 C 0.21157 0.82877 0.23075 0.0
C2502 C 0.19117 0.82664 0.23331 0.0
C2503 C 0.18195 0.83013 0.26326 0.0
H2504 H 0.15522 0.83794 0.2513 0.0
C2505 C 0.14288 0.8365 0.29155 0.0
C2506 C 0.1325 0.83113 0.28724 0.0
C2507 C 0.15255 0.83746 0.28456 0.0
C2508 C 0.16261 0.8357 0.25474 0.0
H2509 H 0.22086 0.83657 0.24551 0.0
H2510 H 0.20419 0.839 0.25739 0.0
H2511 H 0.17216 0.83726 0.23928 0.0
H2512 H 0.12402 0.82301 0.27214 0.0
H2513 H 0.14094 0.8246 0.25996 0.0
H2514 H 0.1724 0.82847 0.27867 0.0
C2515 C 0.20308 0.83509 0.2488 0.0
C2516 C 0.17231 0.83529 0.24785 0.0
C2517 C 0.21264 0.83374 0.24197 0.0
C2518 C 0.13192 0.82709 0.27572 0.0
C2519 C 0.14159 0.8281 0.26873 0.0
C2520 C 0.17229 0.83057 0.27014 0.0
C2521 C 0.19223 0.83147 0.24458 0.0
C2522 C 0.18206 0.83241 0.25201 0.0
C2523 C 0.15205 0.83311 0.27312 0.0
C2524 C 0.16248 0.83328 0.26594 0.0
H2525 H 0.19962 0.82145 0.21787 0.0
H2526 H 0.18295 0.82362 0.22983 0.0
H2527 H 0.18925 0.82769 0.26668 0.0
H2528 H 0.14362 0.83961 0.30041 0.0
H2529 H 0.16046 0.84149 0.28816 0.0
C2530 C 0.86814 0.18656 0.18701 0.0
C2531 C 0.85879 0.19138 0.18469 0.0
C2532 C 0.87737 0.19298 0.19255 0.0
C2533 C 0.89131 0.22189 0.19831 0.0
H2534 H 0.90546 0.21122 0.22244 0.0
C2535 C 0.9232 0.25062 0.22709 0.0
C2536 C 0.93273 0.24644 0.23006 0.0
C2537 C 0.91439 0.24363 0.2215 0.0
C2538 C 0.90169 0.21426 0.21563 0.0
H2539 H 0.85179 0.20672 0.18633 0.0
H2540 H 0.86782 0.21788 0.196 0.0
H2541 H 0.8897 0.19944 0.21274 0.0
H2542 H 0.94051 0.23164 0.22946 0.0
H2543 H 0.92511 0.21939 0.21963 0.0
H2544 H 0.90325 0.23669 0.20115 0.0
C2545 C 0.86808 0.20916 0.19348 0.0
C2546 C 0.89266 0.20751 0.21008 0.0
C2547 C 0.85888 0.20275 0.18797 0.0
C2548 C 0.93322 0.23508 0.22739 0.0
C2549 C 0.9244 0.22807 0.22177 0.0
C2550 C 0.90033 0.22861 0.20383 0.0
C2551 C 0.87745 0.20436 0.19579 0.0
C2552 C 0.88731 0.2113 0.20143 0.0
C2553 C 0.91491 0.23228 0.21872 0.0
C2554 C 0.90556 0.22493 0.21262 0.0
H2555 H 0.86851 0.17792 0.18426 0.0
H2556 H 0.88455 0.18909 0.19406 0.0
H2557 H 0.8875 0.22496 0.19154 0.0
H2558 H 0.92247 0.2593 0.22922 0.0
H2559 H 0.9071 0.2471 0.21947 0.0
C2560 C 0.19199 0.68895 0.66051 0.0
C2561 C 0.19246 0.67753 0.65897 0.0
C2562 C 0.19731 0.69581 0.65271 0.0
C2563 C 0.20921 0.69549 0.62353 0.0
H2564 H 0.2283 0.72243 0.63541 0.0
C2565 C 0.24431 0.71822 0.59665 0.0
C2566 C 0.24679 0.72983 0.59851 0.0
C2567 C 0.23641 0.71238 0.60353 0.0
C2568 C 0.22285 0.71505 0.63191 0.0
H2569 H 0.19876 0.66432 0.64801 0.0
H2570 H 0.20801 0.67627 0.6344 0.0
H2571 H 0.21666 0.71127 0.64831 0.0
H2572 H 0.24263 0.74443 0.60896 0.0
H2573 H 0.22862 0.73427 0.62079 0.0
H2574 H 0.21547 0.69919 0.60714 0.0
C2575 C 0.20345 0.67992 0.64156 0.0
C2576 C 0.21619 0.70864 0.63933 0.0
C2577 C 0.19821 0.67309 0.6494 0.0
C2578 C 0.24089 0.73549 0.60723 0.0
C2579 C 0.23295 0.72965 0.6141 0.0
C2580 C 0.21583 0.70192 0.61611 0.0
C2581 C 0.20316 0.69138 0.64318 0.0
C2582 C 0.20944 0.69869 0.63523 0.0
C2583 C 0.23071 0.71801 0.61243 0.0
C2584 C 0.22289 0.71169 0.62022 0.0
H2585 H 0.18789 0.69267 0.66794 0.0
H2586 H 0.19693 0.70461 0.65418 0.0
H2587 H 0.20396 0.68795 0.6201 0.0
H2588 H 0.24857 0.71359 0.58991 0.0
H2589 H 0.23501 0.70342 0.60205 0.0
C2590 C 0.82021 0.69318 0.6353 0.0
C2591 C 0.8148 0.6983 0.64474 0.0
C2592 C 0.82045 0.69722 0.62484 0.0
C2593 C 0.81813 0.72268 0.61247 0.0
H2594 H 0.81437 0.70317 0.58437 0.0
C2595 C 0.81013 0.72647 0.56312 0.0
C2596 C 0.81788 0.73607 0.56172 0.0
C2597 C 0.81024 0.72108 0.57275 0.0
C2598 C 0.81539 0.70872 0.59215 0.0
H2599 H 0.80515 0.7115 0.65055 0.0
H2600 H 0.80547 0.71847 0.63231 0.0
H2601 H 0.81297 0.69529 0.60229 0.0
H2602 H 0.83207 0.74727 0.56924 0.0
H2603 H 0.83245 0.73771 0.58577 0.0
H2604 H 0.82032 0.7361 0.60244 0.0
C2605 C 0.80969 0.71144 0.63302 0.0
C2606 C 0.81469 0.70421 0.60241 0.0
C2607 C 0.80945 0.70741 0.64346 0.0
C2608 C 0.82605 0.73984 0.56994 0.0
C2609 C 0.82617 0.73445 0.57952 0.0
C2610 C 0.81885 0.72717 0.60226 0.0
C2611 C 0.81529 0.70647 0.62361 0.0
C2612 C 0.81602 0.71115 0.61268 0.0
C2613 C 0.8181 0.72518 0.58118 0.0
C2614 C 0.8175 0.72025 0.59197 0.0
H2615 H 0.82441 0.68614 0.63601 0.0
H2616 H 0.82492 0.69327 0.61779 0.0
H2617 H 0.81934 0.72825 0.62022 0.0
H2618 H 0.80381 0.72328 0.55689 0.0
H2619 H 0.80389 0.71397 0.57379 0.0
C2620 C 0.87604 0.3366 0.66554 0.0
C2621 C 0.87563 0.33219 0.67589 0.0
C2622 C 0.87113 0.33024 0.65602 0.0
C2623 C 0.85908 0.30167 0.64418 0.0
H2624 H 0.83985 0.31689 0.62845 0.0
C2625 C 0.82255 0.27873 0.61656 0.0
C2626 C 0.82021 0.28321 0.60682 0.0
C2627 C 0.8308 0.28438 0.62391 0.0
C2628 C 0.84533 0.31254 0.63259 0.0
H2629 H 0.87031 0.31742 0.68416 0.0
H2630 H 0.86167 0.3064 0.66759 0.0
H2631 H 0.85197 0.32725 0.64307 0.0
H2632 H 0.82504 0.2969 0.59691 0.0
H2633 H 0.83946 0.30676 0.60973 0.0
H2634 H 0.8522 0.28689 0.63384 0.0
C2635 C 0.86584 0.31474 0.6668 0.0
C2636 C 0.85229 0.31849 0.64099 0.0
C2637 C 0.87076 0.32109 0.67633 0.0
C2638 C 0.82651 0.29333 0.60444 0.0
C2639 C 0.83478 0.29897 0.61179 0.0
C2640 C 0.85211 0.2957 0.63577 0.0
C2641 C 0.8657 0.31934 0.65662 0.0
C2642 C 0.85914 0.31311 0.64699 0.0
C2643 C 0.83692 0.29463 0.62169 0.0
C2644 C 0.84503 0.30105 0.62998 0.0
H2645 H 0.8798 0.34509 0.66487 0.0
H2646 H 0.87135 0.33396 0.64824 0.0
H2647 H 0.86437 0.29731 0.64855 0.0
H2648 H 0.81775 0.27103 0.61871 0.0
H2649 H 0.8321 0.28089 0.63154 0.0
C2650 C 0.28521 0.30421 0.65896 0.0
C2651 C 0.27721 0.30349 0.66789 0.0
C2652 C 0.28197 0.30102 0.64783 0.0
C2653 C 0.27269 0.29858 0.62455 0.0
H2654 H 0.25202 0.27122 0.61813 0.0
C2655 C 0.26632 0.27897 0.57892 0.0
C2656 C 0.26719 0.26763 0.57722 0.0
C2657 C 0.26439 0.28417 0.58976 0.0
C2658 C 0.25779 0.27889 0.61977 0.0
H2659 H 0.25946 0.29908 0.67213 0.0
H2660 H 0.25376 0.29364 0.65264 0.0
H2661 H 0.25543 0.27898 0.63764 0.0
H2662 H 0.26609 0.25274 0.58543 0.0
H2663 H 0.26293 0.26177 0.60427 0.0
H2664 H 0.27567 0.29813 0.60677 0.0
C2665 C 0.26258 0.29652 0.65427 0.0
C2666 C 0.25965 0.28341 0.63097 0.0
C2667 C 0.26584 0.29967 0.66543 0.0
C2668 C 0.26533 0.26146 0.58644 0.0
C2669 C 0.2635 0.26667 0.59728 0.0
C2670 C 0.2709 0.29402 0.61337 0.0
C2671 C 0.27062 0.2971 0.64533 0.0
C2672 C 0.26739 0.29314 0.63349 0.0
C2673 C 0.2634 0.27816 0.59913 0.0
C2674 C 0.26368 0.28394 0.61085 0.0
H2675 H 0.29405 0.30708 0.66056 0.0
H2676 H 0.28843 0.30137 0.6412 0.0
H2677 H 0.27852 0.30622 0.62618 0.0
H2678 H 0.26758 0.2839 0.57192 0.0
H2679 H 0.26411 0.29299 0.59085 0.0
C2680 C 0.20806 0.3009 0.37218 0.0
C2681 C 0.20967 0.29481 0.36163 0.0
C2682 C 0.21142 0.29744 0.38203 0.0
C2683 C 0.21684 0.27326 0.39438 0.0
H2684 H 0.23799 0.29372 0.41328 0.0
C2685 C 0.24338 0.25857 0.42668 0.0
C2686 C 0.2471 0.26582 0.43623 0.0
C2687 C 0.23717 0.26207 0.41859 0.0
C2688 C 0.23188 0.28795 0.40829 0.0
H2689 H 0.21585 0.28022 0.35315 0.0
H2690 H 0.2215 0.27406 0.37042 0.0
H2691 H 0.23017 0.29997 0.3972 0.0
H2692 H 0.24675 0.28216 0.44518 0.0
H2693 H 0.23546 0.28817 0.43131 0.0
H2694 H 0.21836 0.26126 0.40547 0.0
C2695 C 0.2177 0.28154 0.37102 0.0
C2696 C 0.22747 0.29154 0.39903 0.0
C2697 C 0.21454 0.2851 0.36115 0.0
C2698 C 0.24403 0.27645 0.43784 0.0
C2699 C 0.23765 0.2799 0.42983 0.0
C2700 C 0.22109 0.26971 0.40376 0.0
C2701 C 0.21624 0.28772 0.38153 0.0
C2702 C 0.2201 0.28417 0.39188 0.0
C2703 C 0.2344 0.27286 0.41994 0.0
C2704 C 0.22887 0.27694 0.41071 0.0
H2705 H 0.20434 0.30842 0.3728 0.0
H2706 H 0.21021 0.30233 0.39006 0.0
H2707 H 0.21106 0.26747 0.38904 0.0
H2708 H 0.24578 0.25039 0.42516 0.0
H2709 H 0.23503 0.25645 0.41103 0.0
C2710 C 0.19964 0.68412 0.4054 0.0
C2711 C 0.19338 0.688 0.39751 0.0
C2712 C 0.20527 0.69143 0.41392 0.0
C2713 C 0.21602 0.7212 0.42204 0.0
H2714 H 0.21697 0.71172 0.45171 0.0
C2715 C 0.23316 0.75079 0.461 0.0
C2716 C 0.24067 0.74681 0.46757 0.0
C2717 C 0.22718 0.74373 0.45251 0.0
C2718 C 0.21684 0.71445 0.44345 0.0
H2719 H 0.18874 0.70279 0.39206 0.0
H2720 H 0.19804 0.71548 0.40722 0.0
H2721 H 0.20685 0.69931 0.43679 0.0
H2722 H 0.24767 0.73227 0.47055 0.0
H2723 H 0.23714 0.7199 0.45576 0.0
H2724 H 0.22589 0.73642 0.42883 0.0
C2725 C 0.19864 0.70675 0.40681 0.0
C2726 C 0.21107 0.70733 0.43487 0.0
C2727 C 0.19308 0.69943 0.39821 0.0
C2728 C 0.24198 0.73558 0.46557 0.0
C2729 C 0.2359 0.72849 0.45718 0.0
C2730 C 0.2217 0.72836 0.43066 0.0
C2731 C 0.20476 0.70284 0.41481 0.0
C2732 C 0.21066 0.71057 0.42402 0.0
C2733 C 0.22849 0.73251 0.45051 0.0
C2734 C 0.22223 0.72503 0.44143 0.0
H2735 H 0.20016 0.67538 0.40505 0.0
H2736 H 0.21011 0.68812 0.41975 0.0
H2737 H 0.21605 0.72393 0.41376 0.0
H2738 H 0.23207 0.75943 0.46227 0.0
H2739 H 0.22146 0.74704 0.44756 0.0
C2740 C 0.8381 0.71695 0.32822 0.0
C2741 C 0.8494 0.7163 0.32504 0.0
C2742 C 0.83436 0.71618 0.3394 0.0
C2743 C 0.84525 0.72308 0.36756 0.0
H2744 H 0.81621 0.70818 0.37728 0.0
C2745 C 0.83031 0.73171 0.4133 0.0
C2746 C 0.81914 0.7337 0.4148 0.0
C2747 C 0.83396 0.72646 0.40306 0.0
C2748 C 0.82433 0.71242 0.3747 0.0
H2749 H 0.86563 0.71441 0.33106 0.0
H2750 H 0.85907 0.7129 0.3505 0.0
H2751 H 0.82259 0.70483 0.35757 0.0
H2752 H 0.80286 0.73133 0.40714 0.0
H2753 H 0.80927 0.72255 0.38909 0.0
H2754 H 0.84683 0.73119 0.38433 0.0
C2755 C 0.85308 0.71388 0.34434 0.0
C2756 C 0.82799 0.71047 0.36343 0.0
C2757 C 0.85681 0.71459 0.33317 0.0
C2758 C 0.8115 0.72979 0.40617 0.0
C2759 C 0.81519 0.72472 0.39584 0.0
C2760 C 0.84157 0.72513 0.37875 0.0
C2761 C 0.84189 0.71491 0.34762 0.0
C2762 C 0.83841 0.71591 0.35973 0.0
C2763 C 0.82658 0.72336 0.39402 0.0
C2764 C 0.83098 0.71998 0.38245 0.0
H2765 H 0.83224 0.71834 0.32212 0.0
H2766 H 0.82571 0.71714 0.34171 0.0
H2767 H 0.85325 0.72754 0.36492 0.0
H2768 H 0.83632 0.73461 0.4199 0.0
H2769 H 0.8427 0.72527 0.40209 0.0
C2770 C 0.86912 0.35357 0.42599 0.0
C2771 C 0.86381 0.3543 0.41593 0.0
C2772 C 0.8634 0.3477 0.43436 0.0
C2773 C 0.83501 0.33492 0.44401 0.0
H2774 H 0.85185 0.31513 0.45658 0.0
C2775 C 0.81369 0.29756 0.46608 0.0
C2776 C 0.81886 0.29492 0.4755 0.0
C2777 C 0.81897 0.30594 0.4599 0.0
C2778 C 0.84706 0.32073 0.45331 0.0
H2779 H 0.84815 0.34983 0.40701 0.0
H2780 H 0.83821 0.33948 0.42154 0.0
H2781 H 0.86135 0.32791 0.44395 0.0
H2782 H 0.83348 0.29932 0.48601 0.0
H2783 H 0.84272 0.31394 0.47518 0.0
H2784 H 0.82065 0.32752 0.45321 0.0
C2785 C 0.84677 0.34353 0.42302 0.0
C2786 C 0.85252 0.32808 0.44606 0.0
C2787 C 0.85249 0.34943 0.41465 0.0
C2788 C 0.82935 0.30102 0.4787 0.0
C2789 C 0.83464 0.3094 0.4725 0.0
C2790 C 0.82955 0.32755 0.45126 0.0
C2791 C 0.85223 0.3424 0.43287 0.0
C2792 C 0.84654 0.33518 0.44122 0.0
C2793 C 0.82956 0.31189 0.46295 0.0
C2794 C 0.83548 0.32028 0.45589 0.0
H2795 H 0.87781 0.3573 0.4273 0.0
H2796 H 0.86779 0.34717 0.44194 0.0
H2797 H 0.83019 0.34039 0.44056 0.0
H2798 H 0.8057 0.29292 0.46326 0.0
H2799 H 0.8149 0.30752 0.45249 0.0
C2800 C 0.13727 0.70668 0.68829 0.0
C2801 C 0.13622 0.69507 0.68663 0.0
C2802 C 0.12843 0.71188 0.69334 0.0
C2803 C 0.09781 0.7069 0.70069 0.0
H2804 H 0.10549 0.73174 0.7237 0.0
C2805 C 0.06529 0.72279 0.73342 0.0
C2806 C 0.06619 0.73428 0.73657 0.0
C2807 C 0.07345 0.71839 0.72629 0.0
C2808 C 0.10319 0.72492 0.71718 0.0
H2809 H 0.12495 0.67981 0.68872 0.0
H2810 H 0.10965 0.68885 0.6976 0.0
H2811 H 0.12044 0.72346 0.71305 0.0
H2812 H 0.07635 0.75015 0.73454 0.0
H2813 H 0.09046 0.7425 0.72195 0.0
H2814 H 0.08054 0.70827 0.70499 0.0
C2815 C 0.11723 0.69397 0.6949 0.0
C2816 C 0.11178 0.72018 0.71106 0.0
C2817 C 0.12605 0.68878 0.68987 0.0
C2818 C 0.07532 0.74128 0.7322 0.0
C2819 C 0.08349 0.73688 0.72509 0.0
C2820 C 0.08922 0.71165 0.70683 0.0
C2821 C 0.11835 0.70558 0.69681 0.0
C2822 C 0.10919 0.71104 0.70281 0.0
C2823 C 0.08273 0.72538 0.72216 0.0
C2824 C 0.09181 0.72065 0.71521 0.0
H2825 H 0.14497 0.71178 0.68585 0.0
H2826 H 0.12952 0.72084 0.69454 0.0
H2827 H 0.09552 0.69998 0.69428 0.0
H2828 H 0.05831 0.71718 0.73655 0.0
H2829 H 0.07265 0.70949 0.72428 0.0
C2830 C 0.85529 0.64519 0.72576 0.0
C2831 C 0.85235 0.64428 0.7144 0.0
C2832 C 0.85282 0.63607 0.73185 0.0
C2833 C 0.84335 0.60554 0.72905 0.0
H2834 H 0.82859 0.61228 0.75808 0.0
C2835 C 0.8115 0.57379 0.75028 0.0
C2836 C 0.8111 0.57436 0.76211 0.0
C2837 C 0.81884 0.58157 0.74484 0.0
C2838 C 0.83289 0.61024 0.7501 0.0
H2839 H 0.84515 0.63291 0.70033 0.0
H2840 H 0.84069 0.6171 0.71096 0.0
H2841 H 0.8376 0.6273 0.74783 0.0
H2842 H 0.8184 0.58329 0.77749 0.0
H2843 H 0.83133 0.59678 0.76799 0.0
H2844 H 0.83823 0.58843 0.73119 0.0
C2845 C 0.845 0.6248 0.71517 0.0
C2846 C 0.83807 0.61887 0.74422 0.0
C2847 C 0.84749 0.63391 0.70909 0.0
C2848 C 0.81855 0.58259 0.76836 0.0
C2849 C 0.82588 0.59038 0.76292 0.0
C2850 C 0.83813 0.59689 0.73494 0.0
C2851 C 0.84735 0.62585 0.72671 0.0
C2852 C 0.84317 0.61664 0.73351 0.0
C2853 C 0.82594 0.5901 0.75112 0.0
C2854 C 0.83265 0.59915 0.74543 0.0
H2855 H 0.85914 0.65304 0.73009 0.0
H2856 H 0.85493 0.63709 0.74067 0.0
H2857 H 0.84735 0.60354 0.7209 0.0
H2858 H 0.80597 0.56746 0.74522 0.0
H2859 H 0.81861 0.58117 0.73575 0.0
C2860 C 0.91482 0.33006 0.72973 0.0
C2861 C 0.91391 0.34041 0.72636 0.0
C2862 C 0.92487 0.32819 0.73403 0.0
C2863 C 0.94957 0.34224 0.74911 0.0
H2864 H 0.96253 0.31579 0.73848 0.0
C2865 C 0.98988 0.33347 0.76844 0.0
C2866 C 0.99016 0.32245 0.7702 0.0
C2867 C 0.98155 0.33604 0.76185 0.0
C2868 C 0.95897 0.32316 0.74165 0.0
H2869 H 0.92283 0.35693 0.72483 0.0
H2870 H 0.94035 0.3537 0.7326 0.0
H2871 H 0.9459 0.31946 0.72954 0.0
H2872 H 0.98198 0.30548 0.76644 0.0
H2873 H 0.96733 0.30994 0.75525 0.0
H2874 H 0.96224 0.34575 0.76155 0.0
C2875 C 0.93328 0.34704 0.73182 0.0
C2876 C 0.94948 0.32528 0.73648 0.0
C2877 C 0.92328 0.34885 0.72735 0.0
C2878 C 0.98209 0.31403 0.76507 0.0
C2879 C 0.97369 0.31661 0.75862 0.0
C2880 C 0.95897 0.34006 0.7544 0.0
C2881 C 0.93417 0.33668 0.7352 0.0
C2882 C 0.94463 0.33478 0.74022 0.0
C2883 C 0.97321 0.32766 0.75702 0.0
C2884 C 0.96373 0.33042 0.75083 0.0
H2885 H 0.90776 0.32338 0.72905 0.0
H2886 H 0.92531 0.32016 0.73666 0.0
H2887 H 0.94593 0.34959 0.75223 0.0
H2888 H 0.99605 0.3401 0.77224 0.0
H2889 H 0.9816 0.34462 0.76064 0.0
C2890 C 0.26677 0.34548 0.72781 0.0
C2891 C 0.27308 0.34368 0.71776 0.0
C2892 C 0.26449 0.35607 0.73179 0.0
C2893 C 0.26388 0.38381 0.72313 0.0
H2894 H 0.26568 0.39299 0.75531 0.0
C2895 C 0.26412 0.42912 0.74399 0.0
C2896 C 0.2582 0.43057 0.75437 0.0
C2897 C 0.2651 0.41848 0.73876 0.0
C2898 C 0.26499 0.39051 0.74632 0.0
H2899 H 0.28227 0.35157 0.70414 0.0
H2900 H 0.2785 0.37018 0.71122 0.0
H2901 H 0.2693 0.37458 0.7478 0.0
H2902 H 0.24837 0.42193 0.76721 0.0
H2903 H 0.24986 0.40347 0.75799 0.0
H2904 H 0.25971 0.39989 0.72171 0.0
C2905 C 0.27504 0.36334 0.71587 0.0
C2906 C 0.26707 0.37995 0.74201 0.0
C2907 C 0.27729 0.35272 0.71187 0.0
C2908 C 0.25288 0.42115 0.75915 0.0
C2909 C 0.25386 0.41055 0.75395 0.0
C2910 C 0.26183 0.39443 0.72746 0.0
C2911 C 0.26863 0.36513 0.72589 0.0
C2912 C 0.26649 0.37644 0.73038 0.0
C2913 C 0.26022 0.4091 0.74386 0.0
C2914 C 0.2623 0.39786 0.73912 0.0
H2915 H 0.26381 0.33877 0.73278 0.0
H2916 H 0.25949 0.35714 0.73952 0.0
H2917 H 0.26325 0.38132 0.71414 0.0
H2918 H 0.26822 0.43621 0.74003 0.0
H2919 H 0.27007 0.41762 0.73099 0.0
C2920 C 0.14058 0.33737 0.33335 0.0
C2921 C 0.14822 0.34042 0.3246 0.0
C2922 C 0.12929 0.33327 0.33108 0.0
C2923 C 0.10773 0.32922 0.3089 0.0
H2924 H 0.09781 0.30144 0.32113 0.0
C2925 C 0.07656 0.29404 0.28668 0.0
C2926 C 0.06874 0.2875 0.29315 0.0
C2927 C 0.08459 0.30229 0.2919 0.0
C2928 C 0.10031 0.30929 0.31781 0.0
H2929 H 0.14981 0.34238 0.30677 0.0
H2930 H 0.13024 0.33512 0.30279 0.0
H2931 H 0.11485 0.31324 0.32801 0.0
H2932 H 0.063 0.28479 0.31022 0.0
H2933 H 0.07719 0.29917 0.31935 0.0
H2934 H 0.09342 0.32497 0.29834 0.0
C2935 C 0.1329 0.33594 0.31143 0.0
C2936 C 0.11009 0.31608 0.32178 0.0
C2937 C 0.14417 0.34005 0.3137 0.0
C2938 C 0.06901 0.28957 0.30499 0.0
C2939 C 0.0771 0.29782 0.31022 0.0
C2940 C 0.09797 0.3224 0.30492 0.0
C2941 C 0.12542 0.33215 0.32001 0.0
C2942 C 0.11409 0.32597 0.31714 0.0
C2943 C 0.08505 0.30419 0.30372 0.0
C2944 C 0.09434 0.31222 0.30911 0.0
H2945 H 0.1434 0.33766 0.34188 0.0
H2946 H 0.12369 0.3306 0.33792 0.0
H2947 H 0.11049 0.33688 0.3053 0.0
H2948 H 0.07674 0.29254 0.27755 0.0
H2949 H 0.09073 0.3069 0.28664 0.0
C2950 C 0.20166 0.63571 0.34216 0.0
C2951 C 0.19759 0.63399 0.35313 0.0
C2952 C 0.20688 0.62769 0.3355 0.0
C2953 C 0.22127 0.60358 0.33685 0.0
H2954 H 0.21243 0.5958 0.30573 0.0
C2955 C 0.2349 0.56587 0.30884 0.0
C2956 C 0.23768 0.56706 0.29746 0.0
C2957 C 0.23015 0.57407 0.31573 0.0
C2958 C 0.21512 0.59797 0.31435 0.0
H2959 H 0.19604 0.6226 0.36579 0.0
H2960 H 0.20518 0.60862 0.35417 0.0
H2961 H 0.2042 0.61022 0.31758 0.0
H2962 H 0.23792 0.57791 0.28444 0.0
H2963 H 0.22978 0.59226 0.29646 0.0
H2964 H 0.23226 0.59139 0.33361 0.0
C2965 C 0.20436 0.61619 0.35074 0.0
C2966 C 0.21038 0.60623 0.32114 0.0
C2967 C 0.19907 0.62418 0.35737 0.0
C2968 C 0.23568 0.57666 0.29313 0.0
C2969 C 0.231 0.58488 0.30003 0.0
C2970 C 0.22606 0.59535 0.33003 0.0
C2971 C 0.20822 0.61781 0.33969 0.0
C2972 C 0.21339 0.60912 0.33247 0.0
C2973 C 0.22813 0.58369 0.31141 0.0
C2974 C 0.22304 0.59243 0.3187 0.0
H2975 H 0.20067 0.64318 0.33863 0.0
H2976 H 0.20989 0.62923 0.32707 0.0
H2977 H 0.22385 0.60571 0.34551 0.0
H2978 H 0.23624 0.55851 0.31238 0.0
H2979 H 0.22789 0.5728 0.32441 0.0
C2980 C 0.89326 0.7587 0.30037 0.0
C2981 C 0.89149 0.74708 0.2984 0.0
C2982 C 0.90374 0.76445 0.30376 0.0
C2983 C 0.93383 0.76175 0.30383 0.0
H2984 H 0.93521 0.7878 0.32591 0.0
C2985 C 0.97622 0.78746 0.31802 0.0
C2986 C 0.9769 0.79891 0.31757 0.0
C2987 C 0.9658 0.78055 0.3174 0.0
C2988 C 0.93495 0.78055 0.31973 0.0
H2989 H 0.89933 0.73237 0.29843 0.0
H2990 H 0.91762 0.74243 0.30444 0.0
H2991 H 0.917 0.77678 0.32116 0.0
H2992 H 0.96707 0.81207 0.3164 0.0
H2993 H 0.94899 0.80009 0.3155 0.0
H2994 H 0.95178 0.76564 0.30228 0.0
C2995 C 0.91093 0.7471 0.30324 0.0
C2996 C 0.92453 0.77426 0.31697 0.0
C2997 C 0.90045 0.74133 0.29983 0.0
C2998 C 0.96688 0.80334 0.317 0.0
C2999 C 0.95648 0.79645 0.31644 0.0
C3000 C 0.94427 0.76803 0.30661 0.0
C3001 C 0.91268 0.75872 0.30529 0.0
C3002 C 0.92383 0.76491 0.30884 0.0
C3003 C 0.95585 0.78496 0.31638 0.0
C3004 C 0.94492 0.77761 0.31444 0.0
H3005 H 0.88655 0.76338 0.29932 0.0
H3006 H 0.90486 0.77342 0.30507 0.0
H3007 H 0.93358 0.75466 0.29745 0.0
H3008 H 0.98376 0.7838 0.31862 0.0
H3009 H 0.96555 0.77173 0.31752 0.0
C3010 C 0.85877 0.41202 0.35405 0.0
C3011 C 0.85401 0.40095 0.35491 0.0
C3012 C 0.85279 0.41906 0.34923 0.0
C3013 C 0.82893 0.41862 0.33055 0.0
H3014 H 0.82935 0.449 0.34402 0.0
C3015 C 0.79723 0.44526 0.31861 0.0
C3016 C 0.80125 0.4563 0.31686 0.0
C3017 C 0.80408 0.43891 0.32322 0.0
C3018 C 0.82925 0.44058 0.34009 0.0
H3019 H 0.8392 0.38864 0.35142 0.0
H3020 H 0.82875 0.40093 0.34317 0.0
H3021 H 0.84055 0.4371 0.35206 0.0
H3022 H 0.81564 0.46935 0.31876 0.0
H3023 H 0.8277 0.45819 0.32681 0.0
H3024 H 0.81755 0.42203 0.31867 0.0
C3025 C 0.83718 0.40414 0.34605 0.0
C3026 C 0.83568 0.43375 0.34468 0.0
C3027 C 0.84315 0.3971 0.35085 0.0
C3028 C 0.8123 0.46087 0.31996 0.0
C3029 C 0.81917 0.45451 0.32464 0.0
C3030 C 0.8225 0.42541 0.32599 0.0
C3031 C 0.84192 0.41521 0.34516 0.0
C3032 C 0.8355 0.42265 0.34003 0.0
C3033 C 0.81517 0.44341 0.3262 0.0
C3034 C 0.82248 0.43643 0.33078 0.0
H3035 H 0.86713 0.41525 0.35708 0.0
H3036 H 0.85676 0.4275 0.34857 0.0
H3037 H 0.82878 0.41019 0.32659 0.0
H3038 H 0.78883 0.44141 0.31617 0.0
H3039 H 0.80069 0.43045 0.32444 0.0
C3040 C 0.19684 0.61512 0.69116 0.0
C3041 C 0.2013 0.62641 0.69336 0.0
C3042 C 0.20184 0.6071 0.69556 0.0
C3043 C 0.22799 0.60167 0.70703 0.0
H3044 H 0.20824 0.58153 0.72436 0.0
C3045 C 0.24503 0.57691 0.73858 0.0
C3046 C 0.23902 0.56657 0.74062 0.0
C3047 C 0.2408 0.58335 0.73143 0.0
C3048 C 0.21388 0.5869 0.71937 0.0
H3049 H 0.21474 0.6381 0.70152 0.0
H3050 H 0.22357 0.62406 0.70903 0.0
H3051 H 0.20029 0.59427 0.71415 0.0
H3052 H 0.22415 0.55464 0.73641 0.0
H3053 H 0.21692 0.56569 0.7236 0.0
H3054 H 0.24159 0.59428 0.71213 0.0
C3055 C 0.21618 0.62144 0.70395 0.0
C3056 C 0.20931 0.59424 0.71355 0.0
C3057 C 0.21109 0.62947 0.6997 0.0
C3058 C 0.22889 0.56263 0.73505 0.0
C3059 C 0.22473 0.56901 0.72777 0.0
C3060 C 0.23257 0.59421 0.71272 0.0
C3061 C 0.21149 0.61019 0.70209 0.0
C3062 C 0.21632 0.60182 0.70747 0.0
C3063 C 0.23052 0.57956 0.72603 0.0
C3064 C 0.2256 0.58685 0.71914 0.0
H3065 H 0.1893 0.61249 0.68632 0.0
H3066 H 0.1981 0.59848 0.69394 0.0
H3067 H 0.23358 0.60734 0.70229 0.0
H3068 H 0.25278 0.58023 0.74288 0.0
H3069 H 0.24542 0.59149 0.7305 0.0
C3070 C 0.20598 0.35183 0.33196 0.0
C3071 C 0.20924 0.34215 0.32615 0.0
C3072 C 0.21057 0.36223 0.32884 0.0
C3073 C 0.2351 0.37637 0.3137 0.0
H3074 H 0.21634 0.39914 0.31287 0.0
C3075 C 0.25146 0.41656 0.29445 0.0
C3076 C 0.24913 0.42652 0.30051 0.0
C3077 C 0.24613 0.40637 0.29744 0.0
C3078 C 0.2217 0.3929 0.31316 0.0
H3079 H 0.21991 0.33574 0.31258 0.0
H3080 H 0.22781 0.35383 0.30706 0.0
H3081 H 0.20799 0.38113 0.31845 0.0
H3082 H 0.23909 0.43358 0.31427 0.0
H3083 H 0.22984 0.41573 0.31959 0.0
H3084 H 0.24879 0.38808 0.3084 0.0
C3085 C 0.22181 0.35344 0.3141 0.0
C3086 C 0.21693 0.38258 0.31637 0.0
C3087 C 0.21725 0.34307 0.31723 0.0
C3088 C 0.24114 0.42605 0.30949 0.0
C3089 C 0.23577 0.41584 0.31247 0.0
C3090 C 0.23985 0.38664 0.31047 0.0
C3091 C 0.21854 0.36315 0.31987 0.0
C3092 C 0.22357 0.37418 0.31663 0.0
C3093 C 0.23833 0.40588 0.30658 0.0
C3094 C 0.2332 0.39501 0.31011 0.0
H3095 H 0.20013 0.35143 0.3391 0.0
H3096 H 0.20804 0.36955 0.33361 0.0
H3097 H 0.24051 0.37017 0.31402 0.0
H3098 H 0.25767 0.4166 0.28758 0.0
H3099 H 0.24818 0.39886 0.29264 0.0
C3100 C 0.16446 0.73541 0.36865 0.0
C3101 C 0.15918 0.72635 0.37403 0.0
C3102 C 0.15811 0.74279 0.36495 0.0
C3103 C 0.13036 0.75248 0.36845 0.0
H3104 H 0.13837 0.76252 0.33921 0.0
C3105 C 0.11255 0.77805 0.33354 0.0
C3106 C 0.10962 0.78721 0.34066 0.0
C3107 C 0.11784 0.77018 0.33781 0.0
C3108 C 0.13594 0.75971 0.34734 0.0
H3109 H 0.14308 0.71808 0.37993 0.0
H3110 H 0.132 0.73091 0.37339 0.0
H3111 H 0.14915 0.74984 0.34634 0.0
H3112 H 0.10951 0.79496 0.35798 0.0
H3113 H 0.11894 0.78134 0.3654 0.0
H3114 H 0.11702 0.76224 0.36933 0.0
C3115 C 0.14107 0.73237 0.37212 0.0
C3116 C 0.14222 0.75256 0.3515 0.0
C3117 C 0.14742 0.72498 0.37583 0.0
C3118 C 0.11177 0.78808 0.35224 0.0
C3119 C 0.11708 0.78021 0.35651 0.0
C3120 C 0.12407 0.75965 0.36427 0.0
C3121 C 0.14633 0.74129 0.36653 0.0
C3122 C 0.13955 0.74888 0.36213 0.0
C3123 C 0.12035 0.77126 0.34931 0.0
C3124 C 0.12679 0.76337 0.35367 0.0
H3125 H 0.1735 0.73675 0.36717 0.0
H3126 H 0.16246 0.74969 0.36085 0.0
H3127 H 0.12813 0.74987 0.3767 0.0
H3128 H 0.11111 0.77717 0.32456 0.0
H3129 H 0.12009 0.7633 0.33206 0.0
C3130 C 0.86209 0.65983 0.32027 0.0
C3131 C 0.85469 0.66701 0.32507 0.0
C3132 C 0.85857 0.64839 0.31876 0.0
C3133 C 0.83539 0.62594 0.32538 0.0
H3134 H 0.84187 0.61348 0.2948 0.0
C3135 C 0.80683 0.58947 0.30128 0.0
C3136 C 0.81175 0.58208 0.29337 0.0
C3137 C 0.81349 0.59851 0.30714 0.0
C3138 C 0.84015 0.61671 0.30345 0.0
H3139 H 0.8381 0.66776 0.33283 0.0
H3140 H 0.8319 0.64788 0.32999 0.0
H3141 H 0.85128 0.63177 0.30183 0.0
H3142 H 0.82759 0.57793 0.28599 0.0
H3143 H 0.83925 0.59372 0.29623 0.0
H3144 H 0.82386 0.61097 0.32676 0.0
C3145 C 0.84046 0.65103 0.32748 0.0
C3146 C 0.84557 0.62722 0.3075 0.0
C3147 C 0.84399 0.66247 0.32905 0.0
C3148 C 0.82354 0.58361 0.29187 0.0
C3149 C 0.83021 0.59264 0.29774 0.0
C3150 C 0.82993 0.6154 0.32131 0.0
C3151 C 0.84757 0.6439 0.32197 0.0
C3152 C 0.84306 0.63208 0.31842 0.0
C3153 C 0.82523 0.60034 0.30524 0.0
C3154 C 0.83207 0.61079 0.3102 0.0
H3155 H 0.87044 0.66306 0.31725 0.0
H3156 H 0.86434 0.6431 0.31469 0.0
H3157 H 0.83339 0.62939 0.33389 0.0
H3158 H 0.79776 0.58858 0.30254 0.0
H3159 H 0.80938 0.60436 0.31274 0.0
C3160 C 0.903 0.34894 0.35417 0.0
C3161 C 0.89704 0.35699 0.35103 0.0
C3162 C 0.9095 0.34321 0.34623 0.0
C3163 C 0.9234 0.3436 0.31797 0.0
H3164 H 0.92068 0.31194 0.31911 0.0
C3165 C 0.95161 0.31559 0.29084 0.0
C3166 C 0.94633 0.30509 0.28622 0.0
C3167 C 0.94577 0.32235 0.29851 0.0
C3168 C 0.92148 0.32076 0.31862 0.0
H3169 H 0.89355 0.36556 0.33709 0.0
H3170 H 0.90488 0.35546 0.32315 0.0
H3171 H 0.91028 0.32306 0.33284 0.0
H3172 H 0.93062 0.29365 0.28573 0.0
H3173 H 0.92048 0.30538 0.2991 0.0
H3174 H 0.93448 0.3412 0.30357 0.0
C3175 C 0.90455 0.35365 0.33181 0.0
C3176 C 0.91562 0.32716 0.32658 0.0
C3177 C 0.89802 0.35941 0.33979 0.0
C3178 C 0.93502 0.30158 0.28931 0.0
C3179 C 0.9292 0.30832 0.29697 0.0
C3180 C 0.9293 0.33718 0.30999 0.0
C3181 C 0.91022 0.34536 0.33492 0.0
C3182 C 0.91651 0.33866 0.32637 0.0
C3183 C 0.93452 0.31875 0.30173 0.0
C3184 C 0.92838 0.32567 0.31021 0.0
H3185 H 0.90253 0.34692 0.36277 0.0
H3186 H 0.91393 0.33703 0.34895 0.0
H3187 H 0.92432 0.35245 0.31762 0.0
H3188 H 0.96033 0.3185 0.2887 0.0
H3189 H 0.95014 0.33029 0.30212 0.0
C3190 C 0.87003 0.40173 0.71209 0.0
C3191 C 0.87078 0.39159 0.71607 0.0
C3192 C 0.86282 0.40873 0.71747 0.0
C3193 C 0.83673 0.40751 0.73471 0.0
H3194 H 0.84394 0.43955 0.73832 0.0
C3195 C 0.80503 0.43501 0.75534 0.0
C3196 C 0.80398 0.44447 0.75023 0.0
C3197 C 0.81384 0.429 0.75216 0.0
C3198 C 0.84177 0.43061 0.73728 0.0
H3199 H 0.86493 0.38112 0.72915 0.0
H3200 H 0.85238 0.39338 0.73855 0.0
H3201 H 0.85843 0.42837 0.73126 0.0
H3202 H 0.81157 0.45518 0.73792 0.0
H3203 H 0.82675 0.44452 0.73214 0.0
H3204 H 0.82003 0.40969 0.74045 0.0
C3205 C 0.85727 0.39582 0.73118 0.0
C3206 C 0.85007 0.42421 0.73326 0.0
C3207 C 0.86451 0.38884 0.72583 0.0
C3208 C 0.81205 0.44786 0.74194 0.0
C3209 C 0.82085 0.44182 0.73873 0.0
C3210 C 0.82842 0.41389 0.73868 0.0
C3211 C 0.85617 0.40574 0.72692 0.0
C3212 C 0.84762 0.41259 0.73186 0.0
C3213 C 0.8218 0.43227 0.74374 0.0
C3214 C 0.83081 0.42552 0.73994 0.0
H3215 H 0.87476 0.40411 0.70461 0.0
H3216 H 0.86211 0.41626 0.71392 0.0
H3217 H 0.8345 0.39858 0.73353 0.0
H3218 H 0.79891 0.43207 0.76166 0.0
H3219 H 0.81439 0.42176 0.7563 0.0
C3220 C 0.20903 0.33643 0.72947 0.0
C3221 C 0.21753 0.33188 0.73412 0.0
C3222 C 0.19843 0.33625 0.73485 0.0
C3223 C 0.18314 0.33266 0.76208 0.0
H3224 H 0.15749 0.32092 0.74342 0.0
C3225 C 0.1408 0.31239 0.78002 0.0
C3226 C 0.13079 0.31315 0.77476 0.0
C3227 C 0.15122 0.31699 0.77566 0.0
C3228 C 0.1645 0.32444 0.74875 0.0
H3229 H 0.22168 0.32392 0.74826 0.0
H3230 H 0.20321 0.32359 0.75761 0.0
H3231 H 0.17612 0.3248 0.73463 0.0
H3232 H 0.12379 0.31989 0.76122 0.0
H3233 H 0.14201 0.32806 0.75365 0.0
H3234 H 0.17155 0.3321 0.77624 0.0
C3235 C 0.20475 0.32735 0.74984 0.0
C3236 C 0.1752 0.32665 0.7437 0.0
C3237 C 0.21531 0.32746 0.74443 0.0
C3238 C 0.13139 0.31905 0.76535 0.0
C3239 C 0.14181 0.3237 0.76101 0.0
C3240 C 0.17243 0.33051 0.76714 0.0
C3241 C 0.19615 0.3316 0.74504 0.0
C3242 C 0.18467 0.33054 0.75033 0.0
C3243 C 0.15187 0.32249 0.76596 0.0
C3244 C 0.16301 0.32613 0.76055 0.0
H3245 H 0.21049 0.33994 0.72155 0.0
H3246 H 0.19199 0.33967 0.731 0.0
H3247 H 0.19027 0.33582 0.76739 0.0
H3248 H 0.14063 0.30777 0.78719 0.0
H3249 H 0.15878 0.31574 0.77959 0.0
C3250 C 0.86027 0.69192 0.69282 0.0
C3251 C 0.84993 0.69575 0.69538 0.0
C3252 C 0.87004 0.6973 0.69821 0.0
C3253 C 0.88034 0.71509 0.72353 0.0
H3254 H 0.90604 0.7254 0.70471 0.0
C3255 C 0.91731 0.74695 0.7416 0.0
C3256 C 0.9282 0.74642 0.73701 0.0
C3257 C 0.90801 0.74006 0.73673 0.0
C3258 C 0.89906 0.72241 0.71014 0.0
H3259 H 0.84163 0.70805 0.70566 0.0
H3260 H 0.85869 0.71729 0.71529 0.0
H3261 H 0.88939 0.7143 0.69602 0.0
H3262 H 0.93798 0.73813 0.7239 0.0
H3263 H 0.9218 0.72577 0.71559 0.0
H3264 H 0.88997 0.72296 0.73768 0.0
C3265 C 0.85922 0.71016 0.7091 0.0
C3266 C 0.8895 0.71608 0.70513 0.0
C3267 C 0.8495 0.70492 0.70356 0.0
C3268 C 0.92964 0.73876 0.72753 0.0
C3269 C 0.92035 0.73173 0.72276 0.0
C3270 C 0.88996 0.72126 0.72857 0.0
C3271 C 0.86961 0.70648 0.70638 0.0
C3272 C 0.88 0.7125 0.71177 0.0
C3273 C 0.90939 0.73233 0.72724 0.0
C3274 C 0.8994 0.72516 0.72193 0.0
H3275 H 0.86087 0.68502 0.68638 0.0
H3276 H 0.87796 0.69431 0.69598 0.0
H3277 H 0.87315 0.71231 0.72884 0.0
H3278 H 0.91595 0.7529 0.74882 0.0
H3279 H 0.89971 0.74098 0.7403 0.0
C3280 C 0.71318 0.18035 0.66733 0.0
C3281 C 0.70209 0.1826 0.66926 0.0
C3282 C 0.71985 0.18453 0.65844 0.0
C3283 C 0.7184 0.19675 0.6317 0.0
H3284 H 0.74898 0.21063 0.63836 0.0
C3285 C 0.74363 0.22873 0.60512 0.0
C3286 C 0.75528 0.22876 0.6034 0.0
C3287 C 0.73734 0.22166 0.61217 0.0
C3288 C 0.74053 0.20663 0.63628 0.0
H3289 H 0.68925 0.19079 0.66313 0.0
H3290 H 0.70087 0.1981 0.64777 0.0
H3291 H 0.73764 0.20077 0.65246 0.0
H3292 H 0.76942 0.22119 0.60758 0.0
H3293 H 0.7584 0.20872 0.61979 0.0
H3294 H 0.72121 0.20282 0.61561 0.0
C3295 C 0.7044 0.19302 0.65303 0.0
C3296 C 0.73402 0.20097 0.64437 0.0
C3297 C 0.69775 0.18888 0.66191 0.0
C3298 C 0.76044 0.22132 0.60866 0.0
C3299 C 0.75415 0.21426 0.61575 0.0
C3300 C 0.7249 0.20241 0.62361 0.0
C3301 C 0.71557 0.19101 0.65125 0.0
C3302 C 0.72282 0.19612 0.64226 0.0
C3303 C 0.74255 0.21445 0.6177 0.0
C3304 C 0.73598 0.20758 0.62587 0.0
H3305 H 0.71678 0.17553 0.67281 0.0
H3306 H 0.72839 0.18272 0.65722 0.0
H3307 H 0.70987 0.19294 0.62972 0.0
H3308 H 0.73937 0.23428 0.6011 0.0
H3309 H 0.72845 0.22211 0.61356 0.0
C3310 C 0.32667 0.15986 0.62207 0.0
C3311 C 0.3248 0.16517 0.63295 0.0
C3312 C 0.3226 0.16347 0.61262 0.0
C3313 C 0.30307 0.18159 0.6041 0.0
H3314 H 0.32277 0.18262 0.57749 0.0
C3315 C 0.3119 0.20805 0.56384 0.0
C3316 C 0.30078 0.20906 0.56151 0.0
C3317 C 0.31405 0.20078 0.57128 0.0
C3318 C 0.31718 0.18244 0.58486 0.0
H3319 H 0.31709 0.17835 0.64245 0.0
H3320 H 0.31035 0.18489 0.62603 0.0
H3321 H 0.32786 0.17398 0.59334 0.0
H3322 H 0.2832 0.20267 0.56472 0.0
H3323 H 0.28695 0.18964 0.57728 0.0
H3324 H 0.29278 0.19071 0.59595 0.0
C3325 C 0.31467 0.17774 0.62475 0.0
C3326 C 0.32002 0.17733 0.59392 0.0
C3327 C 0.31862 0.17404 0.63419 0.0
C3328 C 0.29187 0.2021 0.56627 0.0
C3329 C 0.29403 0.19473 0.57362 0.0
C3330 C 0.3003 0.18682 0.59511 0.0
C3331 C 0.31669 0.17256 0.61382 0.0
C3332 C 0.31311 0.17702 0.60375 0.0
C3333 C 0.30514 0.1942 0.57648 0.0
C3334 C 0.30743 0.18751 0.58545 0.0
H3335 H 0.33133 0.15294 0.62085 0.0
H3336 H 0.32415 0.15915 0.60437 0.0
H3337 H 0.29741 0.18132 0.61142 0.0
H3338 H 0.31899 0.21312 0.56016 0.0
H3339 H 0.32272 0.20071 0.57331 0.0
C3340 C 0.36606 0.83704 0.66243 0.0
C3341 C 0.37062 0.83273 0.67124 0.0
C3342 C 0.36073 0.82999 0.65355 0.0
C3343 C 0.34588 0.80154 0.64721 0.0
H3344 H 0.34652 0.80954 0.61677 0.0
C3345 C 0.31184 0.78185 0.61543 0.0
C3346 C 0.31507 0.77956 0.60402 0.0
C3347 C 0.31955 0.78772 0.62321 0.0
C3348 C 0.34634 0.80709 0.62519 0.0
H3349 H 0.37363 0.81758 0.67732 0.0
H3350 H 0.36446 0.80527 0.66171 0.0
H3351 H 0.35901 0.8207 0.63072 0.0
H3352 H 0.32899 0.78169 0.59187 0.0
H3353 H 0.34253 0.79174 0.60551 0.0
H3354 H 0.33327 0.78789 0.64168 0.0
C3355 C 0.36483 0.81413 0.66179 0.0
C3356 C 0.35342 0.81357 0.63322 0.0
C3357 C 0.37015 0.82119 0.6707 0.0
C3358 C 0.32624 0.78323 0.60061 0.0
C3359 C 0.33398 0.78909 0.6084 0.0
C3360 C 0.33882 0.79505 0.63917 0.0
C3361 C 0.35985 0.81844 0.65323 0.0
C3362 C 0.35315 0.81097 0.64438 0.0
C3363 C 0.33072 0.79142 0.61981 0.0
C3364 C 0.33882 0.79785 0.62811 0.0
H3365 H 0.36625 0.84588 0.66255 0.0
H3366 H 0.35689 0.83361 0.64718 0.0
H3367 H 0.34535 0.79934 0.65574 0.0
H3368 H 0.30335 0.77902 0.6184 0.0
H3369 H 0.3167 0.78948 0.63189 0.0
C3370 C 0.79358 0.83501 0.65111 0.0
C3371 C 0.78671 0.82786 0.65776 0.0
C3372 C 0.79321 0.8332 0.63935 0.0
C3373 C 0.77694 0.81699 0.61534 0.0
H3374 H 0.80627 0.81985 0.60011 0.0
C3375 C 0.78685 0.79339 0.57212 0.0
C3376 C 0.79533 0.79846 0.56512 0.0
C3377 C 0.78401 0.7989 0.58255 0.0
C3378 C 0.79798 0.81922 0.60416 0.0
H3379 H 0.77378 0.81339 0.65732 0.0
H3380 H 0.77339 0.81001 0.6368 0.0
H3381 H 0.80484 0.82579 0.62017 0.0
H3382 H 0.80669 0.81364 0.56305 0.0
H3383 H 0.80169 0.82328 0.58125 0.0
H3384 H 0.7702 0.80994 0.59929 0.0
C3385 C 0.77891 0.81716 0.64064 0.0
C3386 C 0.79715 0.82263 0.6157 0.0
C3387 C 0.7792 0.81905 0.65242 0.0
C3388 C 0.80026 0.80946 0.56836 0.0
C3389 C 0.79741 0.81497 0.57878 0.0
C3390 C 0.77778 0.81351 0.60376 0.0
C3391 C 0.78606 0.82411 0.63396 0.0
C3392 C 0.78666 0.82141 0.62148 0.0
C3393 C 0.7896 0.80958 0.58618 0.0
C3394 C 0.78834 0.81445 0.59809 0.0
H3395 H 0.79936 0.84196 0.65498 0.0
H3396 H 0.79867 0.83884 0.63448 0.0
H3397 H 0.76871 0.81608 0.6195 0.0
H3398 H 0.78297 0.78489 0.5699 0.0
H3399 H 0.77801 0.79448 0.58809 0.0
C3400 C 0.7085 0.81613 0.38641 0.0
C3401 C 0.70605 0.82654 0.39116 0.0
C3402 C 0.71617 0.81095 0.39145 0.0
C3403 C 0.73001 0.81115 0.41854 0.0
H3404 H 0.751 0.79542 0.39986 0.0
C3405 C 0.76764 0.79577 0.43667 0.0
C3406 C 0.76975 0.78511 0.43239 0.0
C3407 C 0.75966 0.80067 0.43174 0.0
C3408 C 0.74511 0.79968 0.40518 0.0
H3409 H 0.70983 0.83974 0.40486 0.0
H3410 H 0.72336 0.83081 0.41353 0.0
H3411 H 0.73756 0.80433 0.39098 0.0
H3412 H 0.7652 0.77125 0.41954 0.0
H3413 H 0.7512 0.77976 0.41099 0.0
H3414 H 0.73766 0.80659 0.43274 0.0
C3415 C 0.71919 0.82653 0.40603 0.0
C3416 C 0.7374 0.80478 0.4001 0.0
C3417 C 0.71149 0.83169 0.40102 0.0
C3418 C 0.76368 0.77943 0.4231 0.0
C3419 C 0.75575 0.78435 0.41813 0.0
C3420 C 0.73775 0.8061 0.42362 0.0
C3421 C 0.72161 0.81609 0.40133 0.0
C3422 C 0.72976 0.81059 0.40672 0.0
C3423 C 0.75368 0.79503 0.42238 0.0
C3424 C 0.74539 0.80032 0.41699 0.0
H3425 H 0.70442 0.81192 0.37884 0.0
H3426 H 0.71772 0.80284 0.38769 0.0
H3427 H 0.72412 0.81539 0.42389 0.0
H3428 H 0.77213 0.80032 0.44386 0.0
H3429 H 0.75831 0.80894 0.43514 0.0
C3430 C 0.70045 0.19253 0.40797 0.0
C3431 C 0.70441 0.19107 0.3967 0.0
C3432 C 0.70793 0.19637 0.41669 0.0
C3433 C 0.73826 0.20078 0.42362 0.0
H3434 H 0.72922 0.22279 0.44692 0.0
C3435 C 0.76963 0.22874 0.45399 0.0
C3436 C 0.7662 0.23073 0.46539 0.0
C3437 C 0.76205 0.22307 0.44598 0.0
C3438 C 0.73182 0.21655 0.44056 0.0
H3439 H 0.71941 0.1923 0.38581 0.0
H3440 H 0.73243 0.1992 0.40098 0.0
H3441 H 0.71612 0.21431 0.43226 0.0
H3442 H 0.75213 0.22806 0.4773 0.0
H3443 H 0.73886 0.21828 0.46326 0.0
H3444 H 0.75407 0.20324 0.43183 0.0
C3445 C 0.72355 0.1972 0.40311 0.0
C3446 C 0.7243 0.21166 0.43216 0.0
C3447 C 0.71607 0.19329 0.39439 0.0
C3448 C 0.75501 0.22683 0.46858 0.0
C3449 C 0.74741 0.22121 0.46054 0.0
C3450 C 0.74581 0.20572 0.432 0.0
C3451 C 0.71956 0.19892 0.41436 0.0
C3452 C 0.72744 0.20376 0.42355 0.0
C3453 C 0.75084 0.2193 0.44915 0.0
C3454 C 0.74269 0.2137 0.44052 0.0
H3455 H 0.69153 0.19082 0.41006 0.0
H3456 H 0.70459 0.1974 0.42526 0.0
H3457 H 0.7409 0.1946 0.41723 0.0
H3458 H 0.77811 0.23179 0.45119 0.0
H3459 H 0.7649 0.22188 0.43724 0.0
C3460 C 0.33403 0.21087 0.3377 0.0
C3461 C 0.34565 0.21058 0.3375 0.0
C3462 C 0.32774 0.21049 0.34782 0.0
C3463 C 0.32916 0.20564 0.37804 0.0
H3464 H 0.30689 0.22551 0.38238 0.0
C3465 C 0.31319 0.22481 0.42142 0.0
C3466 C 0.30165 0.22558 0.42267 0.0
C3467 C 0.3177 0.22069 0.41105 0.0
C3468 C 0.31296 0.21979 0.38125 0.0
H3469 H 0.35986 0.20971 0.34765 0.0
H3470 H 0.34902 0.20936 0.36536 0.0
H3471 H 0.31633 0.22263 0.36409 0.0
H3472 H 0.28572 0.22232 0.41417 0.0
H3473 H 0.29361 0.21518 0.39604 0.0
H3474 H 0.3261 0.20334 0.3955 0.0
C3475 C 0.34461 0.20948 0.3577 0.0
C3476 C 0.31835 0.21809 0.37073 0.0
C3477 C 0.35085 0.20968 0.34754 0.0
C3478 C 0.29463 0.22173 0.41349 0.0
C3479 C 0.29915 0.21773 0.40309 0.0
C3480 C 0.32385 0.20747 0.38863 0.0
C3481 C 0.333 0.21007 0.35801 0.0
C3482 C 0.32662 0.21108 0.36899 0.0
C3483 C 0.31076 0.2174 0.40171 0.0
C3484 C 0.31577 0.21465 0.39035 0.0
H3485 H 0.32982 0.21151 0.33004 0.0
H3486 H 0.31878 0.21071 0.34767 0.0
H3487 H 0.33533 0.20004 0.37698 0.0
H3488 H 0.31878 0.22766 0.42839 0.0
H3489 H 0.32669 0.22059 0.41019 0.0
C3490 C 0.34587 0.82786 0.39814 0.0
C3491 C 0.34668 0.83893 0.39597 0.0
C3492 C 0.33954 0.82414 0.40739 0.0
C3493 C 0.32756 0.83336 0.43521 0.0
H3494 H 0.30908 0.80445 0.4309 0.0
C3495 C 0.29741 0.81492 0.47009 0.0
C3496 C 0.29701 0.80355 0.47087 0.0
C3497 C 0.30345 0.81984 0.46123 0.0
C3498 C 0.31429 0.81248 0.43229 0.0
H3499 H 0.34153 0.8548 0.40192 0.0
H3500 H 0.33039 0.84825 0.41815 0.0
H3501 H 0.3194 0.81197 0.41488 0.0
H3502 H 0.30276 0.7885 0.46296 0.0
H3503 H 0.31346 0.7971 0.44777 0.0
H3504 H 0.32247 0.83379 0.4527 0.0
C3505 C 0.33474 0.84249 0.41267 0.0
C3506 C 0.32019 0.81681 0.42309 0.0
C3507 C 0.34106 0.84622 0.40335 0.0
C3508 C 0.30299 0.79729 0.46273 0.0
C3509 C 0.309 0.8022 0.45391 0.0
C3510 C 0.32165 0.82901 0.44446 0.0
C3511 C 0.33385 0.83138 0.41474 0.0
C3512 C 0.32703 0.82721 0.42446 0.0
C3513 C 0.30917 0.81349 0.45294 0.0
C3514 C 0.31507 0.81845 0.44312 0.0
H3515 H 0.35012 0.82202 0.39267 0.0
H3516 H 0.3392 0.81558 0.40884 0.0
H3517 H 0.33282 0.84137 0.43655 0.0
H3518 H 0.29299 0.81999 0.47627 0.0
H3519 H 0.30339 0.82855 0.4607 0.0
C3520 C 0.63784 0.19185 0.71221 0.0
C3521 C 0.64769 0.19886 0.70929 0.0
C3522 C 0.62784 0.19615 0.71517 0.0
C3523 C 0.61393 0.21966 0.71053 0.0
H3524 H 0.59402 0.21153 0.73564 0.0
C3525 C 0.57182 0.23594 0.71784 0.0
C3526 C 0.56967 0.2407 0.72889 0.0
C3527 C 0.58024 0.22928 0.71563 0.0
C3528 C 0.5995 0.21386 0.72859 0.0
H3529 H 0.65482 0.21594 0.70766 0.0
H3530 H 0.63747 0.22336 0.71282 0.0
H3531 H 0.61131 0.2033 0.73182 0.0
H3532 H 0.5743 0.24171 0.74635 0.0
H3533 H 0.58902 0.23006 0.74248 0.0
H3534 H 0.60236 0.23037 0.70739 0.0
C3535 C 0.63742 0.21454 0.71266 0.0
C3536 C 0.60935 0.2091 0.72637 0.0
C3537 C 0.64739 0.21027 0.70976 0.0
C3538 C 0.57568 0.23809 0.73776 0.0
C3539 C 0.58413 0.23142 0.73554 0.0
C3540 C 0.60409 0.22435 0.7127 0.0
C3541 C 0.62748 0.20752 0.7152 0.0
C3542 C 0.61674 0.21208 0.71739 0.0
C3543 C 0.58674 0.22722 0.7244 0.0
C3544 C 0.59679 0.22158 0.7218 0.0
H3545 H 0.63779 0.18302 0.71195 0.0
H3546 H 0.6203 0.19053 0.71706 0.0
H3547 H 0.61937 0.22202 0.70346 0.0
H3548 H 0.5672 0.23763 0.71085 0.0
H3549 H 0.58188 0.22597 0.70698 0.0
C3550 C 0.3377 0.10586 0.68874 0.0
C3551 C 0.33393 0.1147 0.68441 0.0
C3552 C 0.33023 0.09845 0.69451 0.0
C3553 C 0.3037 0.09719 0.71111 0.0
H3554 H 0.30548 0.06582 0.70909 0.0
C3555 C 0.27367 0.06802 0.73709 0.0
C3556 C 0.27855 0.06038 0.74234 0.0
C3557 C 0.27978 0.074 0.72901 0.0
C3558 C 0.30494 0.07458 0.7098 0.0
H3559 H 0.31923 0.12239 0.68228 0.0
H3560 H 0.30619 0.10939 0.69226 0.0
H3561 H 0.31721 0.07729 0.69643 0.0
H3562 H 0.29359 0.05282 0.74297 0.0
H3563 H 0.30435 0.06343 0.72906 0.0
H3564 H 0.29162 0.09456 0.72459 0.0
C3565 C 0.31496 0.1083 0.69135 0.0
C3566 C 0.31164 0.08114 0.70254 0.0
C3567 C 0.32243 0.11571 0.68557 0.0
C3568 C 0.28963 0.05873 0.73919 0.0
C3569 C 0.29575 0.06472 0.73111 0.0
C3570 C 0.29702 0.09064 0.71836 0.0
C3571 C 0.31882 0.09972 0.69607 0.0
C3572 C 0.31117 0.09254 0.70319 0.0
C3573 C 0.29092 0.07249 0.726 0.0
C3574 C 0.29763 0.07928 0.71787 0.0
H3575 H 0.34649 0.10483 0.68798 0.0
H3576 H 0.33349 0.09199 0.69812 0.0
H3577 H 0.30327 0.10597 0.71196 0.0
H3578 H 0.26519 0.06957 0.7394 0.0
H3579 H 0.27577 0.07983 0.72515 0.0
C3580 C 0.42457 0.84835 0.72064 0.0
C3581 C 0.41495 0.8402 0.71959 0.0
C3582 C 0.43437 0.84616 0.72521 0.0
C3583 C 0.44972 0.82384 0.7297 0.0
H3584 H 0.46248 0.84336 0.75542 0.0
C3585 C 0.4817 0.81081 0.75774 0.0
C3586 C 0.48985 0.8189 0.7632 0.0
C3587 C 0.47339 0.81383 0.7515 0.0
C3588 C 0.45921 0.83793 0.7481 0.0
H3589 H 0.40813 0.82331 0.72227 0.0
H3590 H 0.42536 0.81941 0.73 0.0
H3591 H 0.4465 0.8479 0.74608 0.0
H3592 H 0.49593 0.83649 0.76614 0.0
H3593 H 0.48167 0.84182 0.75486 0.0
H3594 H 0.46247 0.81395 0.73149 0.0
C3595 C 0.42526 0.82751 0.72736 0.0
C3596 C 0.45001 0.84052 0.74279 0.0
C3597 C 0.4154 0.82976 0.723 0.0
C3598 C 0.4897 0.83009 0.76205 0.0
C3599 C 0.48148 0.83313 0.75565 0.0
C3600 C 0.45904 0.82134 0.73487 0.0
C3601 C 0.4348 0.83571 0.7286 0.0
C3602 C 0.44507 0.8334 0.73367 0.0
C3603 C 0.47309 0.82504 0.75042 0.0
C3604 C 0.4638 0.82823 0.74429 0.0
H3605 H 0.42447 0.85648 0.71811 0.0
H3606 H 0.44164 0.8526 0.72605 0.0
H3607 H 0.44614 0.81829 0.72258 0.0
H3608 H 0.48148 0.80213 0.75866 0.0
H3609 H 0.46698 0.80737 0.74785 0.0
C3610 C 0.75904 0.85491 0.72147 0.0
C3611 C 0.76614 0.85564 0.71184 0.0
C3612 C 0.75468 0.86421 0.72667 0.0
C3613 C 0.75082 0.89288 0.72253 0.0
H3614 H 0.7528 0.89809 0.7551 0.0
C3615 C 0.75654 0.93606 0.74785 0.0
C3616 C 0.75175 0.9374 0.75879 0.0
C3617 C 0.75525 0.92567 0.74148 0.0
C3618 C 0.75194 0.89668 0.74603 0.0
H3619 H 0.77435 0.86667 0.70013 0.0
H3620 H 0.76701 0.88297 0.70933 0.0
H3621 H 0.75643 0.88048 0.7452 0.0
H3622 H 0.7413 0.92906 0.7714 0.0
H3623 H 0.73898 0.91087 0.76022 0.0
H3624 H 0.74682 0.90932 0.72338 0.0
C3625 C 0.7645 0.87516 0.71271 0.0
C3626 C 0.75403 0.88656 0.74034 0.0
C3627 C 0.76882 0.86585 0.7075 0.0
C3628 C 0.74505 0.92828 0.76297 0.0
C3629 C 0.74381 0.91786 0.75662 0.0
C3630 C 0.74877 0.90302 0.72823 0.0
C3631 C 0.75746 0.87448 0.72241 0.0
C3632 C 0.75377 0.88464 0.7285 0.0
C3633 C 0.74919 0.91639 0.74595 0.0
C3634 C 0.74958 0.90512 0.74002 0.0
H3635 H 0.75718 0.84727 0.72528 0.0
H3636 H 0.74927 0.8634 0.73413 0.0
H3637 H 0.75033 0.89157 0.71342 0.0
H3638 H 0.76166 0.94298 0.74439 0.0
H3639 H 0.75957 0.92481 0.73333 0.0
C3640 C 0.63838 0.84638 0.3132 0.0
C3641 C 0.63771 0.85331 0.3234 0.0
C3642 C 0.6286 0.84105 0.30783 0.0
C3643 C 0.59926 0.83075 0.31525 0.0
H3644 H 0.59747 0.82174 0.28304 0.0
C3645 C 0.57181 0.79087 0.29697 0.0
C3646 C 0.56635 0.79059 0.28677 0.0
C3647 C 0.57919 0.80023 0.30116 0.0
C3648 C 0.59773 0.82431 0.29204 0.0
H3649 H 0.62626 0.86079 0.33548 0.0
H3650 H 0.60918 0.85163 0.326 0.0
H3651 H 0.61279 0.83591 0.29028 0.0
H3652 H 0.56417 0.80007 0.27311 0.0
H3653 H 0.57714 0.81648 0.28044 0.0
H3654 H 0.58428 0.8191 0.31703 0.0
C3655 C 0.61727 0.8501 0.32229 0.0
C3656 C 0.60657 0.83235 0.2962 0.0
C3657 C 0.62706 0.8554 0.3277 0.0
C3658 C 0.56834 0.79998 0.28093 0.0
C3659 C 0.57576 0.80938 0.28512 0.0
C3660 C 0.59041 0.82275 0.31109 0.0
C3661 C 0.61792 0.84257 0.31251 0.0
C3662 C 0.60762 0.83543 0.30788 0.0
C3663 C 0.58131 0.80957 0.29526 0.0
C3664 C 0.58974 0.81919 0.29947 0.0
H3665 H 0.64644 0.84463 0.30963 0.0
H3666 H 0.62943 0.83524 0.30036 0.0
H3667 H 0.59983 0.83283 0.3243 0.0
H3668 H 0.57064 0.78371 0.30157 0.0
H3669 H 0.58351 0.8 0.30886 0.0
C3670 C 0.70275 0.15021 0.33265 0.0
C3671 C 0.69715 0.14988 0.34323 0.0
C3672 C 0.70614 0.14065 0.32685 0.0
C3673 C 0.70152 0.1099 0.32587 0.0
H3674 H 0.72968 0.11264 0.30848 0.0
C3675 C 0.72281 0.07238 0.30632 0.0
C3676 C 0.72659 0.07261 0.29502 0.0
C3677 C 0.71896 0.08162 0.31234 0.0
C3678 C 0.72176 0.11176 0.31325 0.0
H3679 H 0.69078 0.13928 0.35604 0.0
H3680 H 0.69699 0.1227 0.3461 0.0
H3681 H 0.72357 0.1291 0.31879 0.0
H3682 H 0.72942 0.08272 0.28123 0.0
H3683 H 0.72277 0.09885 0.29176 0.0
H3684 H 0.69992 0.09246 0.32045 0.0
C3685 C 0.69853 0.13026 0.34213 0.0
C3686 C 0.71822 0.1212 0.31912 0.0
C3687 C 0.69502 0.13979 0.34787 0.0
C3688 C 0.72644 0.08225 0.28988 0.0
C3689 C 0.72274 0.09152 0.29594 0.0
C3690 C 0.70515 0.10043 0.32009 0.0
C3691 C 0.70415 0.13055 0.33154 0.0
C3692 C 0.708 0.12043 0.32545 0.0
C3693 C 0.71899 0.09132 0.30723 0.0
C3694 C 0.71526 0.10128 0.31365 0.0
H3695 H 0.70445 0.15784 0.32881 0.0
H3696 H 0.71024 0.14118 0.31863 0.0
H3697 H 0.69353 0.10897 0.33049 0.0
H3698 H 0.72281 0.06504 0.31047 0.0
H3699 H 0.71616 0.08127 0.32106 0.0
C3700 C 0.40276 0.23039 0.31603 0.0
C3701 C 0.39461 0.23651 0.31311 0.0
C3702 C 0.41345 0.23573 0.3193 0.0
C3703 C 0.42922 0.26336 0.32934 0.0
H3704 H 0.45524 0.25071 0.31659 0.0
C3705 C 0.47804 0.27957 0.31747 0.0
C3706 C 0.48121 0.28686 0.32719 0.0
C3707 C 0.46799 0.27216 0.3174 0.0
C3708 C 0.44806 0.25434 0.32024 0.0
H3709 H 0.39128 0.25303 0.31142 0.0
H3710 H 0.40994 0.26231 0.31692 0.0
H3711 H 0.4364 0.24052 0.3132 0.0
H3712 H 0.47657 0.29169 0.34465 0.0
H3713 H 0.45896 0.27869 0.34453 0.0
H3714 H 0.44083 0.27742 0.33589 0.0
C3715 C 0.40803 0.25341 0.31688 0.0
C3716 C 0.43726 0.24845 0.31839 0.0
C3717 C 0.39735 0.24808 0.31363 0.0
C3718 C 0.47429 0.28627 0.33699 0.0
C3719 C 0.46421 0.27884 0.33692 0.0
C3720 C 0.44001 0.26926 0.33117 0.0
C3721 C 0.41621 0.2473 0.31973 0.0
C3722 C 0.4277 0.25301 0.3227 0.0
C3723 C 0.46084 0.27185 0.32705 0.0
C3724 C 0.44954 0.26493 0.32642 0.0
H3725 H 0.40089 0.22147 0.31578 0.0
H3726 H 0.41953 0.23081 0.32155 0.0
H3727 H 0.42203 0.26702 0.33294 0.0
H3728 H 0.48304 0.27994 0.30971 0.0
H3729 H 0.46557 0.26705 0.30959 0.0
C3730 C 0.35516 0.90745 0.34185 0.0
C3731 C 0.35173 0.89599 0.33928 0.0
C3732 C 0.35021 0.91501 0.33665 0.0
C3733 C 0.32465 0.91694 0.32111 0.0
H3734 H 0.34194 0.9446 0.31378 0.0
C3735 C 0.30279 0.95019 0.30537 0.0
C3736 C 0.30817 0.95595 0.29665 0.0
C3737 C 0.30849 0.94354 0.31099 0.0
C3738 C 0.337 0.93687 0.31568 0.0
H3739 H 0.34068 0.88348 0.32897 0.0
H3740 H 0.33231 0.89659 0.31965 0.0
H3741 H 0.35125 0.93145 0.32208 0.0
H3742 H 0.32404 0.9595 0.28739 0.0
H3743 H 0.33384 0.94753 0.29686 0.0
H3744 H 0.31051 0.9221 0.31431 0.0
C3745 C 0.33857 0.89979 0.32593 0.0
C3746 C 0.34232 0.92938 0.32059 0.0
C3747 C 0.34343 0.89225 0.33122 0.0
C3748 C 0.31954 0.95507 0.29393 0.0
C3749 C 0.32522 0.9483 0.29948 0.0
C3750 C 0.31937 0.92437 0.31612 0.0
C3751 C 0.34179 0.91128 0.32866 0.0
C3752 C 0.33621 0.9193 0.32338 0.0
C3753 C 0.31971 0.9423 0.30797 0.0
C3754 C 0.32544 0.93446 0.31337 0.0
H3755 H 0.36151 0.9106 0.34807 0.0
H3756 H 0.35281 0.92377 0.3391 0.0
H3757 H 0.3196 0.90936 0.32329 0.0
H3758 H 0.29401 0.95049 0.30765 0.0
H3759 H 0.30402 0.93924 0.31764 0.0
C3760 C 0.69974 0.13164 0.71603 0.0
C3761 C 0.70549 0.14241 0.71543 0.0
C3762 C 0.70499 0.1237 0.72027 0.0
C3763 C 0.72985 0.12098 0.73685 0.0
H3764 H 0.72274 0.08999 0.72501 0.0
C3765 C 0.75627 0.08773 0.74551 0.0
C3766 C 0.75022 0.0784 0.74989 0.0
C3767 C 0.75062 0.09533 0.74122 0.0
C3768 C 0.72475 0.09862 0.72842 0.0
H3769 H 0.72134 0.15324 0.71855 0.0
H3770 H 0.73068 0.13933 0.72543 0.0
H3771 H 0.71345 0.1037 0.71752 0.0
H3772 H 0.73354 0.06954 0.75301 0.0
H3773 H 0.72361 0.08273 0.74516 0.0
H3774 H 0.74148 0.11585 0.74744 0.0
C3775 C 0.72197 0.13705 0.72305 0.0
C3776 C 0.71939 0.10649 0.72419 0.0
C3777 C 0.71665 0.14504 0.71902 0.0
C3778 C 0.73839 0.07668 0.74968 0.0
C3779 C 0.73273 0.08418 0.74517 0.0
C3780 C 0.73536 0.11314 0.74091 0.0
C3781 C 0.7162 0.12627 0.72383 0.0
C3782 C 0.72186 0.11781 0.72835 0.0
C3783 C 0.7388 0.09364 0.74103 0.0
C3784 C 0.73285 0.10189 0.73674 0.0
H3785 H 0.6911 0.12939 0.71339 0.0
H3786 H 0.70016 0.11559 0.7209 0.0
H3787 H 0.73182 0.12953 0.7405 0.0
H3788 H 0.76539 0.0893 0.74567 0.0
H3789 H 0.75548 0.10253 0.73802 0.0
C3790 C 0.6848 0.87806 0.35029 0.0
C3791 C 0.68973 0.86856 0.35096 0.0
C3792 C 0.68991 0.88618 0.3437 0.0
C3793 C 0.70978 0.89148 0.3201 0.0
H3794 H 0.71578 0.92136 0.33542 0.0
C3795 C 0.74131 0.92579 0.30204 0.0
C3796 C 0.73947 0.93682 0.30446 0.0
C3797 C 0.73426 0.91733 0.30682 0.0
C3798 C 0.71398 0.91313 0.33089 0.0
H3799 H 0.7037 0.85996 0.34515 0.0
H3800 H 0.71255 0.8741 0.33344 0.0
H3801 H 0.70503 0.90674 0.34519 0.0
H3802 H 0.72854 0.94765 0.31327 0.0
H3803 H 0.71593 0.93287 0.32128 0.0
H3804 H 0.71858 0.89783 0.30575 0.0
C3805 C 0.70474 0.87524 0.33801 0.0
C3806 C 0.70786 0.90475 0.33654 0.0
C3807 C 0.69973 0.8672 0.34474 0.0
C3808 C 0.7302 0.93921 0.3114 0.0
C3809 C 0.72304 0.93074 0.31603 0.0
C3810 C 0.71576 0.8999 0.31438 0.0
C3811 C 0.69996 0.88487 0.33756 0.0
C3812 C 0.70582 0.89382 0.33125 0.0
C3813 C 0.7251 0.91971 0.31399 0.0
C3814 C 0.71807 0.91083 0.31975 0.0
H3815 H 0.67724 0.87943 0.3552 0.0
H3816 H 0.68607 0.89354 0.3435 0.0
H3817 H 0.70822 0.88312 0.31581 0.0
H3818 H 0.74847 0.92375 0.2968 0.0
H3819 H 0.73625 0.90899 0.30519 0.0
C3820 C 0.66555 0.22112 0.35614 0.0
C3821 C 0.66044 0.21068 0.35889 0.0
C3822 C 0.65907 0.22855 0.3528 0.0
C3823 C 0.63157 0.23119 0.34189 0.0
H3824 H 0.63828 0.26128 0.35659 0.0
C3825 C 0.61367 0.26865 0.32838 0.0
C3826 C 0.61069 0.27661 0.33704 0.0
C3827 C 0.61875 0.25981 0.33091 0.0
C3828 C 0.63623 0.2529 0.35248 0.0
H3829 H 0.64454 0.19966 0.3598 0.0
H3830 H 0.63319 0.21269 0.35392 0.0
H3831 H 0.64928 0.24739 0.36084 0.0
H3832 H 0.61005 0.28108 0.35517 0.0
H3833 H 0.61897 0.26571 0.35956 0.0
H3834 H 0.61847 0.23678 0.33355 0.0
C3835 C 0.64224 0.2151 0.35436 0.0
C3836 C 0.64262 0.24497 0.35481 0.0
C3837 C 0.64874 0.20766 0.35776 0.0
C3838 C 0.61246 0.27524 0.34829 0.0
C3839 C 0.61756 0.26643 0.35081 0.0
C3840 C 0.62521 0.23917 0.33949 0.0
C3841 C 0.64732 0.22571 0.35209 0.0
C3842 C 0.6404 0.23404 0.34952 0.0
C3843 C 0.62098 0.25875 0.34214 0.0
C3844 C 0.62747 0.25011 0.34478 0.0
H3845 H 0.67456 0.2237 0.35683 0.0
H3846 H 0.66325 0.2366 0.35091 0.0
H3847 H 0.6297 0.22283 0.33766 0.0
H3848 H 0.61254 0.26952 0.31962 0.0
H3849 H 0.62137 0.25407 0.32404 0.0
C3850 C 0.35622 0.15275 0.33127 0.0
C3851 C 0.34832 0.15951 0.33579 0.0
C3852 C 0.35272 0.14167 0.32716 0.0
C3853 C 0.32831 0.11884 0.3255 0.0
H3854 H 0.34016 0.11215 0.2951 0.0
C3855 C 0.30467 0.08673 0.29216 0.0
C3856 C 0.31092 0.08077 0.28404 0.0
C3857 C 0.31012 0.09486 0.30013 0.0
C3858 C 0.33691 0.11373 0.30366 0.0
H3859 H 0.33066 0.15969 0.34038 0.0
H3860 H 0.32455 0.14044 0.3331 0.0
H3861 H 0.34832 0.12886 0.30662 0.0
H3862 H 0.32778 0.07818 0.2783 0.0
H3863 H 0.33732 0.09229 0.29227 0.0
H3864 H 0.31665 0.10382 0.32235 0.0
C3865 C 0.33346 0.14366 0.33277 0.0
C3866 C 0.34161 0.12334 0.31028 0.0
C3867 C 0.33696 0.15473 0.33689 0.0
C3868 C 0.32274 0.08279 0.28433 0.0
C3869 C 0.3282 0.09086 0.29233 0.0
C3870 C 0.32362 0.10919 0.31886 0.0
C3871 C 0.34124 0.13712 0.32748 0.0
C3872 C 0.33722 0.12613 0.32119 0.0
C3873 C 0.32195 0.09716 0.30018 0.0
C3874 C 0.32771 0.10665 0.30777 0.0
H3875 H 0.36506 0.15613 0.33041 0.0
H3876 H 0.35894 0.13678 0.32333 0.0
H3877 H 0.32483 0.12071 0.33392 0.0
H3878 H 0.29555 0.08543 0.29208 0.0
H3879 H 0.30504 0.09965 0.30593 0.0
C3880 C 0.38977 0.83649 0.34155 0.0
C3881 C 0.38824 0.84714 0.33948 0.0
C3882 C 0.39656 0.83035 0.33434 0.0
C3883 C 0.41965 0.83255 0.31307 0.0
H3884 H 0.40831 0.80151 0.30451 0.0
C3885 C 0.44235 0.80451 0.27976 0.0
C3886 C 0.44227 0.79347 0.28176 0.0
C3887 C 0.43607 0.81143 0.28674 0.0
C3888 C 0.41169 0.81012 0.30692 0.0
H3889 H 0.39286 0.85977 0.32824 0.0
H3890 H 0.4048 0.84901 0.31559 0.0
H3891 H 0.39679 0.81293 0.31665 0.0
H3892 H 0.43557 0.78114 0.29281 0.0
H3893 H 0.42496 0.79326 0.30516 0.0
H3894 H 0.43462 0.82969 0.30342 0.0
C3895 C 0.40072 0.84545 0.32286 0.0
C3896 C 0.40506 0.81668 0.31386 0.0
C3897 C 0.39384 0.8516 0.33007 0.0
C3898 C 0.43595 0.78961 0.29107 0.0
C3899 C 0.42971 0.79653 0.29806 0.0
C3900 C 0.42633 0.82596 0.30615 0.0
C3901 C 0.40205 0.83472 0.32487 0.0
C3902 C 0.40899 0.82794 0.31709 0.0
C3903 C 0.42957 0.80749 0.29591 0.0
C3904 C 0.42246 0.81463 0.30307 0.0
H3905 H 0.38563 0.83278 0.34874 0.0
H3906 H 0.39756 0.82218 0.33621 0.0
H3907 H 0.42294 0.84119 0.31549 0.0
H3908 H 0.44723 0.80781 0.27275 0.0
H3909 H 0.43611 0.81979 0.28478 0.0
C3910 C 0.34873 0.88987 0.71317 0.0
C3911 C 0.35977 0.8879 0.7145 0.0
C3912 C 0.34462 0.89872 0.71958 0.0
C3913 C 0.34887 0.91769 0.74589 0.0
H3914 H 0.32954 0.93407 0.73168 0.0
C3915 C 0.32893 0.9541 0.77011 0.0
C3916 C 0.31733 0.9536 0.76847 0.0
C3917 C 0.33522 0.9471 0.76322 0.0
C3918 C 0.33489 0.92955 0.73577 0.0
H3919 H 0.37514 0.89367 0.72366 0.0
H3920 H 0.36794 0.90924 0.73487 0.0
H3921 H 0.33856 0.9199 0.72029 0.0
H3922 H 0.3033 0.94526 0.75831 0.0
H3923 H 0.31427 0.93328 0.74626 0.0
H3924 H 0.34504 0.92728 0.76142 0.0
C3925 C 0.36246 0.90385 0.7289 0.0
C3926 C 0.34005 0.92142 0.72926 0.0
C3927 C 0.36659 0.89497 0.72245 0.0
C3928 C 0.31224 0.94608 0.75967 0.0
C3929 C 0.31853 0.93917 0.75277 0.0
C3930 C 0.34372 0.92586 0.75241 0.0
C3931 C 0.35144 0.90586 0.72748 0.0
C3932 C 0.34689 0.91522 0.73427 0.0
C3933 C 0.33006 0.93953 0.75451 0.0
C3934 C 0.33649 0.93171 0.74746 0.0
H3935 H 0.34322 0.88457 0.70717 0.0
H3936 H 0.33602 0.89988 0.71844 0.0
H3937 H 0.35402 0.91301 0.75003 0.0
H3938 H 0.33315 0.95988 0.77671 0.0
H3939 H 0.34412 0.94763 0.7647 0.0
C3940 C 0.70781 0.84284 0.7302 0.0
C3941 C 0.71492 0.83471 0.72864 0.0
C3942 C 0.69722 0.84069 0.73556 0.0
C3943 C 0.68088 0.82218 0.75455 0.0
H3944 H 0.65476 0.82966 0.74111 0.0
C3945 C 0.63643 0.81145 0.77392 0.0
C3946 C 0.62827 0.8061 0.76621 0.0
C3947 C 0.64675 0.81683 0.77008 0.0
C3948 C 0.66198 0.82754 0.74497 0.0
H3949 H 0.71654 0.81798 0.73156 0.0
H3950 H 0.69812 0.81424 0.74082 0.0
H3951 H 0.67355 0.83514 0.73299 0.0
H3952 H 0.62428 0.80275 0.74849 0.0
H3953 H 0.64236 0.81197 0.74178 0.0
H3954 H 0.66935 0.81422 0.76625 0.0
C3955 C 0.70074 0.82231 0.73802 0.0
C3956 C 0.67274 0.83077 0.74039 0.0
C3957 C 0.71128 0.82443 0.73263 0.0
C3958 C 0.63046 0.80668 0.75462 0.0
C3959 C 0.64077 0.81207 0.75079 0.0
C3960 C 0.67015 0.81899 0.75914 0.0
C3961 C 0.69359 0.8304 0.73953 0.0
C3962 C 0.68228 0.82792 0.745 0.0
C3963 C 0.64913 0.81699 0.75846 0.0
C3964 C 0.66056 0.82146 0.75428 0.0
H3965 H 0.71038 0.85085 0.72725 0.0
H3966 H 0.69192 0.84711 0.73668 0.0
H3967 H 0.68809 0.82 0.75838 0.0
H3968 H 0.63503 0.8111 0.7829 0.0
H3969 H 0.65298 0.82066 0.7762 0.0
C3970 C 0.37246 0.18905 0.67307 0.0
C3971 C 0.37312 0.17832 0.67561 0.0
C3972 C 0.38048 0.19802 0.67707 0.0
C3973 C 0.40885 0.20527 0.68947 0.0
H3974 H 0.39781 0.23236 0.70175 0.0
C3975 C 0.43501 0.23979 0.71872 0.0
C3976 C 0.43477 0.25079 0.71685 0.0
C3977 C 0.42785 0.23109 0.71291 0.0
C3978 C 0.40104 0.2249 0.69823 0.0
H3979 H 0.38289 0.16859 0.68413 0.0
H3980 H 0.39672 0.18422 0.69124 0.0
H3981 H 0.38479 0.21692 0.69275 0.0
H3982 H 0.42678 0.26132 0.7075 0.0
H3983 H 0.41429 0.24611 0.69732 0.0
H3984 H 0.42507 0.21321 0.69519 0.0
C3985 C 0.39012 0.1857 0.68602 0.0
C3986 C 0.39359 0.21606 0.69305 0.0
C3987 C 0.38214 0.17673 0.68199 0.0
C3988 C 0.42722 0.25292 0.70905 0.0
C3989 C 0.42001 0.24422 0.70329 0.0
C3990 C 0.41629 0.2141 0.69471 0.0
C3991 C 0.38931 0.19648 0.68373 0.0
C3992 C 0.39738 0.20609 0.68868 0.0
C3993 C 0.42024 0.23321 0.70516 0.0
C3994 C 0.41245 0.22398 0.69922 0.0
H3995 H 0.36566 0.19056 0.66812 0.0
H3996 H 0.37971 0.20618 0.67499 0.0
H3997 H 0.41209 0.19779 0.68604 0.0
H3998 H 0.4408 0.23789 0.7246 0.0
H3999 H 0.42814 0.2227 0.71461 0.0
C4000 C 0.71331 0.69142 0.17744 0.0
C4001 C 0.70827 0.68028 0.17545 0.0
C4002 C 0.72001 0.69645 0.16907 0.0
C4003 C 0.7235 0.69509 0.13853 0.0
H4004 H 0.7514 0.71494 0.14515 0.0
C4005 C 0.74238 0.72961 0.11149 0.0
C4006 C 0.7541 0.73132 0.10949 0.0
C4007 C 0.73744 0.72193 0.11864 0.0
C4008 C 0.74369 0.70933 0.14314 0.0
H4009 H 0.7065 0.66562 0.16318 0.0
H4010 H 0.7181 0.67449 0.14848 0.0
H4011 H 0.74195 0.70419 0.15971 0.0
H4012 H 0.76982 0.72618 0.1132 0.0
H4013 H 0.76117 0.7128 0.12584 0.0
H4014 H 0.72507 0.70049 0.12206 0.0
C4015 C 0.71687 0.67929 0.15655 0.0
C4016 C 0.73825 0.70325 0.15149 0.0
C4017 C 0.71028 0.67421 0.16499 0.0
C4018 C 0.76075 0.72498 0.11455 0.0
C4019 C 0.75583 0.71739 0.12183 0.0
C4020 C 0.72887 0.70128 0.13022 0.0
C4021 C 0.72171 0.69049 0.15847 0.0
C4022 C 0.72802 0.69618 0.14932 0.0
C4023 C 0.74413 0.71589 0.12405 0.0
C4024 C 0.73895 0.70857 0.13248 0.0
H4025 H 0.71195 0.69632 0.18542 0.0
H4026 H 0.72355 0.70512 0.17076 0.0
H4027 H 0.71558 0.68977 0.13665 0.0
H4028 H 0.73705 0.73435 0.10765 0.0
H4029 H 0.72842 0.72102 0.12027 0.0
C4030 C 0.32547 0.7079 0.13791 0.0
C4031 C 0.31827 0.69936 0.14251 0.0
C4032 C 0.32614 0.70832 0.12626 0.0
C4033 C 0.31676 0.69236 0.09856 0.0
H4034 H 0.31816 0.72185 0.08982 0.0
C4035 C 0.29647 0.70332 0.05949 0.0
C4036 C 0.30234 0.71176 0.05356 0.0
C4037 C 0.30108 0.70032 0.06896 0.0
C4038 C 0.31798 0.71357 0.09209 0.0
H4039 H 0.30637 0.68438 0.13856 0.0
H4040 H 0.30705 0.68538 0.11833 0.0
H4041 H 0.3211 0.71966 0.1093 0.0
H4042 H 0.31817 0.72289 0.05241 0.0
H4043 H 0.32597 0.71793 0.06925 0.0
H4044 H 0.31279 0.68637 0.08134 0.0
C4045 C 0.3125 0.69159 0.12359 0.0
C4046 C 0.3197 0.71228 0.10328 0.0
C4047 C 0.31202 0.69104 0.13523 0.0
C4048 C 0.31327 0.71657 0.05692 0.0
C4049 C 0.31779 0.71369 0.06651 0.0
C4050 C 0.31483 0.69366 0.08738 0.0
C4051 C 0.31941 0.70035 0.11896 0.0
C4052 C 0.3189 0.70166 0.10675 0.0
C4053 C 0.31158 0.70579 0.07281 0.0
C4054 C 0.31524 0.70428 0.0841 0.0
H4055 H 0.33051 0.71434 0.14333 0.0
H4056 H 0.3318 0.71503 0.12302 0.0
H4057 H 0.31633 0.68405 0.10082 0.0
H4058 H 0.28799 0.69951 0.05731 0.0
H4059 H 0.29606 0.69428 0.07373 0.0
C4060 C 0.37462 0.32969 0.1868 0.0
C4061 C 0.38305 0.33844 0.18437 0.0
C4062 C 0.36939 0.32232 0.1781 0.0
C4063 C 0.37167 0.31139 0.14813 0.0
H4064 H 0.33901 0.30699 0.15019 0.0
C4065 C 0.34378 0.28911 0.11122 0.0
C4066 C 0.33367 0.28249 0.11405 0.0
C4067 C 0.35033 0.29566 0.11967 0.0
C4068 C 0.34812 0.30796 0.14954 0.0
H4069 H 0.39299 0.34594 0.1709 0.0
H4070 H 0.38388 0.33295 0.15569 0.0
H4071 H 0.34977 0.31846 0.16522 0.0
H4072 H 0.32271 0.27716 0.12789 0.0
H4073 H 0.33419 0.28832 0.1426 0.0
H4074 H 0.37001 0.30076 0.13249 0.0
C4075 C 0.38132 0.33185 0.16434 0.0
C4076 C 0.35429 0.31457 0.15816 0.0
C4077 C 0.38651 0.33931 0.17306 0.0
C4078 C 0.33036 0.28235 0.12546 0.0
C4079 C 0.33694 0.28878 0.13389 0.0
C4080 C 0.36549 0.30466 0.13953 0.0
C4081 C 0.37252 0.32346 0.16677 0.0
C4082 C 0.36611 0.31633 0.15757 0.0
C4083 C 0.34694 0.29563 0.13111 0.0
C4084 C 0.35362 0.30284 0.14015 0.0
H4085 H 0.37177 0.32873 0.19541 0.0
H4086 H 0.36274 0.31582 0.18022 0.0
H4087 H 0.38078 0.31257 0.1475 0.0
H4088 H 0.3465 0.28941 0.10248 0.0
H4089 H 0.3579 0.30092 0.1172 0.0
C4090 C 0.77928 0.3138 0.15829 0.0
C4091 C 0.77171 0.31127 0.16725 0.0
C4092 C 0.7759 0.3112 0.14713 0.0
C4093 C 0.75502 0.29234 0.1296 0.0
H4094 H 0.76658 0.31124 0.10669 0.0
C4095 C 0.74592 0.27911 0.08253 0.0
C4096 C 0.75566 0.27987 0.07547 0.0
C4097 C 0.74625 0.28448 0.09357 0.0
C4098 C 0.76327 0.30589 0.113 0.0
H4099 H 0.75456 0.30426 0.17155 0.0
H4100 H 0.74863 0.29982 0.15205 0.0
H4101 H 0.77024 0.31767 0.12652 0.0
H4102 H 0.77329 0.2872 0.07448 0.0
H4103 H 0.77377 0.29665 0.09353 0.0
H4104 H 0.74828 0.28046 0.11606 0.0
C4105 C 0.75723 0.30367 0.15365 0.0
C4106 C 0.7654 0.30955 0.12435 0.0
C4107 C 0.76062 0.30625 0.16482 0.0
C4108 C 0.76556 0.28658 0.07954 0.0
C4109 C 0.76585 0.29199 0.09052 0.0
C4110 C 0.75286 0.2887 0.11826 0.0
C4111 C 0.76485 0.30604 0.14467 0.0
C4112 C 0.76153 0.3027 0.13276 0.0
C4113 C 0.75629 0.29079 0.09774 0.0
C4114 C 0.75719 0.29533 0.10982 0.0
H4115 H 0.78789 0.31765 0.15987 0.0
H4116 H 0.78205 0.31297 0.14042 0.0
H4117 H 0.75202 0.2868 0.13584 0.0
H4118 H 0.73812 0.27416 0.07962 0.0
H4119 H 0.73871 0.28353 0.09891 0.0
C4120 C 0.71605 0.34479 0.89911 0.0
C4121 C 0.71289 0.33936 0.88843 0.0
C4122 C 0.72382 0.34089 0.90533 0.0
C4123 C 0.74593 0.3229 0.90305 0.0
H4124 H 0.73779 0.31996 0.93446 0.0
C4125 C 0.75637 0.29579 0.93935 0.0
C4126 C 0.76819 0.29722 0.93861 0.0
C4127 C 0.75042 0.30222 0.93375 0.0
C4128 C 0.74018 0.32075 0.9257 0.0
H4129 H 0.71565 0.32576 0.87575 0.0
H4130 H 0.72916 0.31891 0.88664 0.0
H4131 H 0.72606 0.32874 0.92331 0.0
H4132 H 0.78308 0.30663 0.93158 0.0
H4133 H 0.77263 0.31796 0.92176 0.0
H4134 H 0.75986 0.31458 0.90538 0.0
C4135 C 0.7257 0.32624 0.89017 0.0
C4136 C 0.73353 0.32587 0.91935 0.0
C4137 C 0.71789 0.33012 0.88397 0.0
C4138 C 0.77397 0.3054 0.93234 0.0
C4139 C 0.76799 0.3118 0.92665 0.0
C4140 C 0.75262 0.31782 0.90943 0.0
C4141 C 0.72863 0.3315 0.90098 0.0
C4142 C 0.73623 0.32685 0.90791 0.0
C4143 C 0.75615 0.31022 0.92724 0.0
C4144 C 0.7497 0.31653 0.92077 0.0
H4145 H 0.71239 0.35197 0.90277 0.0
H4146 H 0.72602 0.34519 0.91358 0.0
H4147 H 0.74828 0.32364 0.89428 0.0
H4148 H 0.75171 0.28962 0.94422 0.0
H4149 H 0.74129 0.30073 0.93427 0.0
C4150 C 0.71027 0.6898 0.89588 0.0
C4151 C 0.69913 0.68474 0.89779 0.0
C4152 C 0.71679 0.69521 0.90488 0.0
C4153 C 0.72423 0.71316 0.92402 0.0
H4154 H 0.72396 0.70236 0.9532 0.0
C4155 C 0.73681 0.74209 0.96436 0.0
C4156 C 0.74389 0.73859 0.97177 0.0
C4157 C 0.7321 0.73483 0.95532 0.0
C4158 C 0.7242 0.70544 0.94507 0.0
H4159 H 0.68633 0.6809 0.91074 0.0
H4160 H 0.69771 0.69034 0.92642 0.0
H4161 H 0.71479 0.69035 0.93732 0.0
H4162 H 0.75143 0.72466 0.9756 0.0
H4163 H 0.74312 0.71189 0.95975 0.0
H4164 H 0.73349 0.72828 0.93176 0.0
C4165 C 0.70141 0.69011 0.91796 0.0
C4166 C 0.71888 0.6986 0.93601 0.0
C4167 C 0.69486 0.68475 0.90895 0.0
C4168 C 0.74605 0.7276 0.97 0.0
C4169 C 0.74124 0.72028 0.96098 0.0
C4170 C 0.72945 0.72001 0.93308 0.0
C4171 C 0.71235 0.69562 0.916 0.0
C4172 C 0.71874 0.70244 0.92541 0.0
C4173 C 0.7343 0.72387 0.95349 0.0
C4174 C 0.72937 0.71628 0.94374 0.0
H4175 H 0.71384 0.68991 0.88739 0.0
H4176 H 0.72525 0.69926 0.90312 0.0
H4177 H 0.72418 0.71641 0.916 0.0
H4178 H 0.73509 0.75054 0.96541 0.0
H4179 H 0.72668 0.73779 0.94976 0.0
C4180 C 0.34549 0.70629 0.83438 0.0
C4181 C 0.33931 0.70733 0.825 0.0
C4182 C 0.34001 0.70461 0.84473 0.0
C4183 C 0.31355 0.70982 0.85995 0.0
H4184 H 0.32617 0.69689 0.88352 0.0
C4185 C 0.29573 0.71475 0.90515 0.0
C4186 C 0.30395 0.72005 0.9128 0.0
C4187 C 0.29891 0.7098 0.89457 0.0
C4188 C 0.32251 0.70044 0.87698 0.0
H4189 H 0.32258 0.70674 0.8188 0.0
H4190 H 0.3129 0.70326 0.83672 0.0
H4191 H 0.33355 0.69402 0.86412 0.0
H4192 H 0.32186 0.72357 0.91581 0.0
H4193 H 0.32743 0.71486 0.89732 0.0
H4194 H 0.30261 0.71633 0.87281 0.0
C4195 C 0.32201 0.70412 0.83625 0.0
C4196 C 0.32677 0.69888 0.86588 0.0
C4197 C 0.32752 0.70604 0.82596 0.0
C4198 C 0.31537 0.7196 0.91002 0.0
C4199 C 0.31854 0.71455 0.89948 0.0
C4200 C 0.30919 0.71122 0.87097 0.0
C4201 C 0.3282 0.70379 0.84589 0.0
C4202 C 0.32257 0.70384 0.85728 0.0
C4203 C 0.31036 0.70996 0.89151 0.0
C4204 C 0.31383 0.70682 0.87964 0.0
H4205 H 0.35461 0.70748 0.83391 0.0
H4206 H 0.34512 0.70459 0.85195 0.0
H4207 H 0.3102 0.71397 0.85368 0.0
H4208 H 0.28687 0.71503 0.90704 0.0
H4209 H 0.29245 0.70626 0.88859 0.0
C4210 C 0.34751 0.33004 0.90256 0.0
C4211 C 0.34754 0.34106 0.90059 0.0
C4212 C 0.34216 0.32607 0.91218 0.0
C4213 C 0.33214 0.33475 0.94099 0.0
H4214 H 0.31511 0.30509 0.93789 0.0
C4215 C 0.3066 0.31484 0.97798 0.0
C4216 C 0.30732 0.30364 0.97863 0.0
C4217 C 0.31134 0.32004 0.96871 0.0
C4218 C 0.31992 0.31335 0.93893 0.0
H4219 H 0.342 0.35659 0.90725 0.0
H4220 H 0.33257 0.34959 0.92413 0.0
H4221 H 0.3234 0.31304 0.92119 0.0
H4222 H 0.31366 0.28917 0.97003 0.0
H4223 H 0.3221 0.29827 0.95409 0.0
H4224 H 0.32868 0.33498 0.9588 0.0
C4225 C 0.33677 0.34406 0.91821 0.0
C4226 C 0.32466 0.31791 0.92935 0.0
C4227 C 0.34212 0.34805 0.90852 0.0
C4228 C 0.31307 0.29784 0.96991 0.0
C4229 C 0.31777 0.30302 0.96067 0.0
C4230 C 0.32737 0.33017 0.95061 0.0
C4231 C 0.33669 0.333 0.9201 0.0
C4232 C 0.33098 0.32858 0.93027 0.0
C4233 C 0.31683 0.31413 0.95987 0.0
C4234 C 0.32137 0.31934 0.94969 0.0
H4235 H 0.35164 0.32444 0.89666 0.0
H4236 H 0.34243 0.31756 0.91348 0.0
H4237 H 0.33702 0.34296 0.94199 0.0
H4238 H 0.30229 0.31956 0.9846 0.0
H4239 H 0.31045 0.32861 0.96833 0.0
C4240 C 0.64465 0.68389 0.22065 0.0
C4241 C 0.65103 0.68978 0.21256 0.0
C4242 C 0.63429 0.68682 0.2248 0.0
C4243 C 0.61185 0.70237 0.21812 0.0
H4244 H 0.60462 0.70384 0.25019 0.0
C4245 C 0.57809 0.72699 0.23935 0.0
C4246 C 0.57106 0.7225 0.24791 0.0
C4247 C 0.5871 0.72186 0.23473 0.0
C4248 C 0.60643 0.70332 0.24119 0.0
H4249 H 0.65153 0.70341 0.20253 0.0
H4250 H 0.63367 0.70857 0.20984 0.0
H4251 H 0.6218 0.69696 0.24278 0.0
H4252 H 0.56788 0.70887 0.25811 0.0
H4253 H 0.58372 0.69996 0.25009 0.0
H4254 H 0.59662 0.70894 0.21655 0.0
C4255 C 0.63652 0.70157 0.21285 0.0
C4256 C 0.61628 0.69937 0.23694 0.0
C4257 C 0.64683 0.69864 0.20872 0.0
C4258 C 0.57321 0.71264 0.25163 0.0
C4259 C 0.58227 0.70753 0.24704 0.0
C4260 C 0.60204 0.70634 0.22237 0.0
C4261 C 0.6301 0.69569 0.22093 0.0
C4262 C 0.6192 0.69902 0.22537 0.0
C4263 C 0.58936 0.71212 0.23858 0.0
C4264 C 0.5993 0.70703 0.23397 0.0
H4265 H 0.64764 0.677 0.22377 0.0
H4266 H 0.62952 0.68207 0.23096 0.0
H4267 H 0.61371 0.70199 0.20913 0.0
H4268 H 0.57686 0.73469 0.23643 0.0
H4269 H 0.59251 0.72572 0.22836 0.0
C4270 C 0.34169 0.63011 0.20596 0.0
C4271 C 0.33539 0.63381 0.19798 0.0
C4272 C 0.33808 0.61992 0.21002 0.0
C4273 C 0.31786 0.59364 0.20498 0.0
H4274 H 0.31836 0.59446 0.2375 0.0
C4275 C 0.28743 0.56423 0.23038 0.0
C4276 C 0.29139 0.56062 0.23996 0.0
C4277 C 0.29439 0.57174 0.22428 0.0
C4278 C 0.31833 0.594 0.22839 0.0
H4279 H 0.32061 0.62948 0.18765 0.0
H4280 H 0.31423 0.61189 0.19486 0.0
H4281 H 0.32785 0.6102 0.22852 0.0
H4282 H 0.30601 0.56158 0.25021 0.0
H4283 H 0.31813 0.57477 0.2396 0.0
H4284 H 0.30795 0.57757 0.20495 0.0
C4285 C 0.32204 0.61675 0.19789 0.0
C4286 C 0.32379 0.60303 0.22322 0.0
C4287 C 0.32566 0.6269 0.19381 0.0
C4288 C 0.30263 0.56436 0.24301 0.0
C4289 C 0.30958 0.5719 0.23692 0.0
C4290 C 0.31235 0.58462 0.21016 0.0
C4291 C 0.32807 0.61323 0.20622 0.0
C4292 C 0.32343 0.60307 0.21148 0.0
C4293 C 0.30546 0.57583 0.22762 0.0
C4294 C 0.31235 0.58479 0.22194 0.0
H4295 H 0.34927 0.63519 0.20928 0.0
H4296 H 0.34302 0.61738 0.2163 0.0
H4297 H 0.31758 0.59332 0.19589 0.0
H4298 H 0.27878 0.56165 0.22788 0.0
H4299 H 0.29091 0.57472 0.21725 0.0
C4300 C 0.41919 0.34486 0.24133 0.0
C4301 C 0.41951 0.35374 0.23491 0.0
C4302 C 0.42889 0.34313 0.24642 0.0
C4303 C 0.45573 0.35764 0.25741 0.0
H4304 H 0.46346 0.3281 0.2564 0.0
C4305 C 0.48523 0.34522 0.28878 0.0
C4306 C 0.49298 0.33815 0.28455 0.0
C4307 C 0.47732 0.34784 0.28175 0.0
C4308 C 0.46148 0.33641 0.25666 0.0
H4309 H 0.43027 0.36774 0.22877 0.0
H4310 H 0.4472 0.36478 0.23781 0.0
H4311 H 0.44748 0.33101 0.24582 0.0
H4312 H 0.49874 0.32871 0.26942 0.0
H4313 H 0.48472 0.33309 0.25723 0.0
H4314 H 0.46958 0.36299 0.26845 0.0
C4315 C 0.43943 0.35916 0.23887 0.0
C4316 C 0.45228 0.33806 0.25069 0.0
C4317 C 0.42975 0.36082 0.23366 0.0
C4318 C 0.49279 0.33402 0.27302 0.0
C4319 C 0.48478 0.33655 0.26602 0.0
C4320 C 0.46485 0.35597 0.26348 0.0
C4321 C 0.43909 0.3503 0.2453 0.0
C4322 C 0.44924 0.34867 0.2511 0.0
C4323 C 0.47688 0.34336 0.27036 0.0
C4324 C 0.46776 0.34532 0.26325 0.0
H4325 H 0.41143 0.33925 0.24245 0.0
H4326 H 0.42835 0.3363 0.25143 0.0
H4327 H 0.45354 0.36589 0.25793 0.0
H4328 H 0.48493 0.34839 0.29764 0.0
H4329 H 0.47124 0.353 0.28537 0.0
C4330 C 0.76955 0.35725 0.21411 0.0
C4331 C 0.76533 0.34761 0.21905 0.0
C4332 C 0.76687 0.36751 0.21883 0.0
C4333 C 0.7581 0.38201 0.24578 0.0
H4334 H 0.75311 0.40427 0.22704 0.0
C4335 C 0.75154 0.42557 0.26552 0.0
C4336 C 0.75849 0.43419 0.26075 0.0
C4337 C 0.75005 0.41482 0.25988 0.0
C4338 C 0.75449 0.39814 0.23238 0.0
H4339 H 0.75548 0.34122 0.23312 0.0
H4340 H 0.75046 0.35904 0.24116 0.0
H4341 H 0.7551 0.38564 0.2183 0.0
H4342 H 0.76866 0.4385 0.24602 0.0
H4343 H 0.76617 0.41974 0.23623 0.0
H4344 H 0.75777 0.39455 0.25982 0.0
C4345 C 0.75579 0.35868 0.2336 0.0
C4346 C 0.75566 0.38748 0.22738 0.0
C4347 C 0.75849 0.34843 0.22887 0.0
C4348 C 0.76335 0.43198 0.24995 0.0
C4349 C 0.76184 0.42125 0.2443 0.0
C4350 C 0.75691 0.39265 0.25078 0.0
C4351 C 0.75998 0.36835 0.22865 0.0
C4352 C 0.75769 0.37936 0.23401 0.0
C4353 C 0.75544 0.41249 0.24935 0.0
C4354 C 0.7553 0.40089 0.24412 0.0
H4355 H 0.77493 0.35686 0.20657 0.0
H4356 H 0.77043 0.37481 0.21493 0.0
H4357 H 0.75981 0.37601 0.25113 0.0
H4358 H 0.74773 0.42701 0.27387 0.0
H4359 H 0.74495 0.40826 0.26392 0.0
C4360 C 0.64364 0.36256 0.80866 0.0
C4361 C 0.64165 0.36513 0.8203 0.0
C4362 C 0.63492 0.3572 0.80172 0.0
C4363 C 0.60394 0.34923 0.80011 0.0
H4364 H 0.61182 0.32376 0.78067 0.0
C4365 C 0.58124 0.30577 0.77451 0.0
C4366 C 0.5732 0.30952 0.76839 0.0
C4367 C 0.58924 0.31331 0.78068 0.0
C4368 C 0.60948 0.33082 0.78608 0.0
H4369 H 0.62876 0.36472 0.83366 0.0
H4370 H 0.61357 0.3553 0.82156 0.0
H4371 H 0.62639 0.33616 0.79139 0.0
H4372 H 0.567 0.32411 0.76425 0.0
H4373 H 0.58105 0.33732 0.77505 0.0
H4374 H 0.58695 0.34367 0.79495 0.0
C4375 C 0.62187 0.35747 0.81779 0.0
C4376 C 0.61785 0.33801 0.79211 0.0
C4377 C 0.6306 0.36282 0.82473 0.0
C4378 C 0.57316 0.32098 0.7688 0.0
C4379 C 0.58114 0.32853 0.77505 0.0
C4380 C 0.59556 0.34205 0.79401 0.0
C4381 C 0.62401 0.35431 0.80627 0.0
C4382 C 0.61517 0.34724 0.79927 0.0
C4383 C 0.58936 0.32476 0.78092 0.0
C4384 C 0.59823 0.3327 0.78705 0.0
H4385 H 0.65203 0.36432 0.80495 0.0
H4386 H 0.63679 0.35505 0.79284 0.0
H4387 H 0.60164 0.35631 0.80552 0.0
H4388 H 0.58156 0.29701 0.77427 0.0
H4389 H 0.59538 0.31015 0.78525 0.0
C4390 C 0.70321 0.64558 0.833 0.0
C4391 C 0.69783 0.64477 0.84362 0.0
C4392 C 0.70793 0.63668 0.82735 0.0
C4393 C 0.70842 0.6064 0.82748 0.0
H4394 H 0.73659 0.61291 0.81069 0.0
C4395 C 0.73901 0.57479 0.8143 0.0
C4396 C 0.74362 0.57451 0.80325 0.0
C4397 C 0.73235 0.58282 0.81844 0.0
C4398 C 0.72865 0.61097 0.81524 0.0
H4399 H 0.69316 0.63399 0.85666 0.0
H4400 H 0.70173 0.61863 0.84706 0.0
H4401 H 0.72721 0.62805 0.81952 0.0
H4402 H 0.74475 0.58228 0.78784 0.0
H4403 H 0.7332 0.59642 0.79515 0.0
H4404 H 0.71022 0.58927 0.82353 0.0
C4405 C 0.70205 0.626 0.84289 0.0
C4406 C 0.72323 0.61965 0.82028 0.0
C4407 C 0.6972 0.63485 0.84845 0.0
C4408 C 0.74123 0.58225 0.79635 0.0
C4409 C 0.73471 0.59038 0.80056 0.0
C4410 C 0.71394 0.59772 0.82257 0.0
C4411 C 0.70753 0.6268 0.83227 0.0
C4412 C 0.71306 0.6175 0.82653 0.0
C4413 C 0.73031 0.59082 0.81168 0.0
C4414 C 0.72413 0.59993 0.81644 0.0
H4415 H 0.70375 0.65309 0.82901 0.0
H4416 H 0.71186 0.63755 0.8191 0.0
H4417 H 0.7005 0.60438 0.83202 0.0
H4418 H 0.7407 0.56889 0.81977 0.0
H4419 H 0.72912 0.58301 0.82708 0.0
C4420 C 0.39428 0.72721 0.80216 0.0
C4421 C 0.38645 0.73467 0.80359 0.0
C4422 C 0.40544 0.73068 0.80531 0.0
C4423 C 0.42942 0.7427 0.80443 0.0
H4424 H 0.43779 0.76332 0.83101 0.0
C4425 C 0.4684 0.77847 0.81786 0.0
C4426 C 0.47721 0.77313 0.8129 0.0
C4427 C 0.45769 0.77245 0.81939 0.0
C4428 C 0.43559 0.75756 0.82355 0.0
H4429 H 0.38411 0.75151 0.80976 0.0
H4430 H 0.40362 0.75758 0.81512 0.0
H4431 H 0.41804 0.75526 0.82833 0.0
H4432 H 0.48212 0.75725 0.80668 0.0
H4433 H 0.46352 0.74664 0.80967 0.0
H4434 H 0.44678 0.74529 0.79935 0.0
C4435 C 0.4011 0.74903 0.81168 0.0
C4436 C 0.42428 0.75296 0.82202 0.0
C4437 C 0.38995 0.74557 0.80851 0.0
C4438 C 0.47541 0.76156 0.81041 0.0
C4439 C 0.46474 0.75551 0.81205 0.0
C4440 C 0.44068 0.74732 0.80593 0.0
C4441 C 0.40901 0.74166 0.80998 0.0
C4442 C 0.42107 0.74564 0.81232 0.0
C4443 C 0.45563 0.76095 0.81606 0.0
C4444 C 0.44389 0.75497 0.8154 0.0
H4445 H 0.39183 0.71873 0.79849 0.0
H4446 H 0.41131 0.72478 0.80401 0.0
H4447 H 0.42721 0.73722 0.79679 0.0
H4448 H 0.46957 0.78741 0.81976 0.0
H4449 H 0.45087 0.77693 0.82243 0.0
C4450 C 0.33506 0.39645 0.84732 0.0
C4451 C 0.34576 0.40037 0.85177 0.0
C4452 C 0.32882 0.40369 0.8432 0.0
C4453 C 0.33169 0.43093 0.83249 0.0
H4454 H 0.29937 0.42746 0.83817 0.0
C4455 C 0.30201 0.45164 0.80814 0.0
C4456 C 0.29264 0.45541 0.81396 0.0
C4457 C 0.30897 0.44585 0.81342 0.0
C4458 C 0.3084 0.42864 0.83661 0.0
H4459 H 0.35829 0.41498 0.85537 0.0
H4460 H 0.34735 0.42762 0.84825 0.0
H4461 H 0.31046 0.41553 0.84618 0.0
H4462 H 0.28354 0.45646 0.83006 0.0
H4463 H 0.29571 0.44639 0.83931 0.0
H4464 H 0.32963 0.44411 0.823 0.0
C4465 C 0.34384 0.41892 0.84784 0.0
C4466 C 0.31474 0.4217 0.84108 0.0
C4467 C 0.35009 0.41168 0.85197 0.0
C4468 C 0.2906 0.45354 0.8253 0.0
C4469 C 0.29756 0.44775 0.83059 0.0
C4470 C 0.32534 0.43787 0.82801 0.0
C4471 C 0.33312 0.41502 0.84342 0.0
C4472 C 0.32645 0.42269 0.83899 0.0
C4473 C 0.30672 0.44368 0.82465 0.0
C4474 C 0.3136 0.43676 0.82994 0.0
H4475 H 0.3315 0.38778 0.84701 0.0
H4476 H 0.32067 0.40036 0.83969 0.0
H4477 H 0.34067 0.43187 0.83064 0.0
H4478 H 0.30373 0.45276 0.79934 0.0
H4479 H 0.31585 0.44271 0.80854 0.0
C4480 C 0.7009 0.62078 0.20533 0.0
C4481 C 0.70151 0.63164 0.21079 0.0
C4482 C 0.70648 0.61309 0.20959 0.0
C4483 C 0.71907 0.60726 0.23547 0.0
H4484 H 0.73542 0.58838 0.21458 0.0
C4485 C 0.74044 0.57257 0.24991 0.0
C4486 C 0.75136 0.57172 0.24548 0.0
C4487 C 0.73384 0.57936 0.24554 0.0
C4488 C 0.73093 0.59361 0.22053 0.0
H4489 H 0.7084 0.64291 0.22506 0.0
H4490 H 0.71818 0.62952 0.23244 0.0
H4491 H 0.72502 0.6014 0.20738 0.0
H4492 H 0.76389 0.57745 0.23298 0.0
H4493 H 0.75237 0.58919 0.22533 0.0
H4494 H 0.72519 0.59965 0.24863 0.0
C4495 C 0.71329 0.62691 0.22493 0.0
C4496 C 0.72487 0.601 0.21639 0.0
C4497 C 0.70774 0.63461 0.22066 0.0
C4498 C 0.75545 0.57772 0.23647 0.0
C4499 C 0.74884 0.58448 0.23208 0.0
C4500 C 0.7251 0.59984 0.2396 0.0
C4501 C 0.71277 0.61607 0.21942 0.0
C4502 C 0.71893 0.60797 0.22381 0.0
C4503 C 0.73799 0.58545 0.23661 0.0
C4504 C 0.73117 0.59299 0.23218 0.0
H4505 H 0.69614 0.61821 0.19772 0.0
H4506 H 0.70579 0.60477 0.20521 0.0
H4507 H 0.71449 0.61243 0.24141 0.0
H4508 H 0.73696 0.56795 0.25675 0.0
H4509 H 0.72545 0.5798 0.24911 0.0
C4510 C 0.68703 0.38513 0.84467 0.0
C4511 C 0.69153 0.37529 0.84468 0.0
C4512 C 0.69109 0.39255 0.83693 0.0
C4513 C 0.70587 0.39501 0.80966 0.0
H4514 H 0.71642 0.42528 0.8221 0.0
C4515 C 0.73472 0.42554 0.78408 0.0
C4516 C 0.73399 0.43688 0.78622 0.0
C4517 C 0.7284 0.418 0.79061 0.0
C4518 C 0.71331 0.41694 0.8184 0.0
H4519 H 0.70365 0.36534 0.83657 0.0
H4520 H 0.71062 0.37823 0.82287 0.0
H4521 H 0.70719 0.41209 0.83445 0.0
H4522 H 0.72578 0.4492 0.79652 0.0
H4523 H 0.7144 0.43601 0.8077 0.0
H4524 H 0.71183 0.39982 0.79359 0.0
C4525 C 0.70395 0.3802 0.82884 0.0
C4526 C 0.70807 0.40938 0.82552 0.0
C4527 C 0.70002 0.37288 0.8367 0.0
C4528 C 0.72657 0.4405 0.79479 0.0
C4529 C 0.72011 0.43294 0.80122 0.0
C4530 C 0.71096 0.40262 0.80249 0.0
C4531 C 0.69962 0.39017 0.82898 0.0
C4532 C 0.70444 0.39831 0.82124 0.0
C4533 C 0.72108 0.4216 0.79936 0.0
C4534 C 0.71491 0.41366 0.8068 0.0
H4535 H 0.68065 0.38729 0.85088 0.0
H4536 H 0.68762 0.40019 0.8372 0.0
H4537 H 0.70304 0.38653 0.80615 0.0
H4538 H 0.74049 0.42255 0.7776 0.0
H4539 H 0.72955 0.40939 0.78903 0.0
C4540 C 0.66128 0.70687 0.85305 0.0
C4541 C 0.65659 0.69629 0.85575 0.0
C4542 C 0.65496 0.7131 0.84759 0.0
C4543 C 0.63002 0.71122 0.83024 0.0
H4544 H 0.63209 0.74248 0.84108 0.0
C4545 C 0.60233 0.73969 0.81316 0.0
C4546 C 0.6078 0.75022 0.81103 0.0
C4547 C 0.60777 0.7329 0.81894 0.0
C4548 C 0.63149 0.73379 0.83788 0.0
H4549 H 0.64164 0.68384 0.85456 0.0
H4550 H 0.63055 0.69477 0.84502 0.0
H4551 H 0.64264 0.7309 0.85024 0.0
H4552 H 0.62334 0.76181 0.81318 0.0
H4553 H 0.63277 0.75004 0.82325 0.0
H4554 H 0.61893 0.71417 0.8178 0.0
C4555 C 0.63916 0.69821 0.84711 0.0
C4556 C 0.63754 0.72715 0.84313 0.0
C4557 C 0.6455 0.69196 0.8526 0.0
C4558 C 0.61879 0.75384 0.81488 0.0
C4559 C 0.62421 0.74708 0.82064 0.0
C4560 C 0.62397 0.71788 0.82497 0.0
C4561 C 0.64378 0.70891 0.84468 0.0
C4562 C 0.63697 0.71582 0.8393 0.0
C4563 C 0.61878 0.73651 0.82272 0.0
C4564 C 0.62473 0.72927 0.82866 0.0
H4565 H 0.66982 0.71043 0.85528 0.0
H4566 H 0.65883 0.72123 0.84565 0.0
H4567 H 0.62948 0.70254 0.82704 0.0
H4568 H 0.59383 0.7367 0.81041 0.0
H4569 H 0.6033 0.72487 0.82053 0.0
C4570 C 0.33844 0.65438 0.83146 0.0
C4571 C 0.34731 0.65921 0.82472 0.0
C4572 C 0.33383 0.64323 0.82897 0.0
C4573 C 0.32928 0.62281 0.80432 0.0
H4574 H 0.31736 0.60264 0.82597 0.0
C4575 C 0.30188 0.58141 0.78979 0.0
C4576 C 0.29212 0.5786 0.79643 0.0
C4577 C 0.31042 0.58983 0.79387 0.0
C4578 C 0.32059 0.6082 0.81982 0.0
H4579 H 0.35888 0.65592 0.81065 0.0
H4580 H 0.3508 0.63649 0.80633 0.0
H4581 H 0.32937 0.62003 0.83235 0.0
H4582 H 0.28402 0.58204 0.81283 0.0
H4583 H 0.29862 0.59702 0.81972 0.0
H4584 H 0.32014 0.61138 0.79188 0.0
C4585 C 0.34733 0.64136 0.81343 0.0
C4586 C 0.3275 0.61813 0.82348 0.0
C4587 C 0.35197 0.65248 0.81594 0.0
C4588 C 0.29131 0.58413 0.8074 0.0
C4589 C 0.2998 0.59262 0.81143 0.0
C4590 C 0.32231 0.61296 0.80068 0.0
C4591 C 0.33797 0.63672 0.81968 0.0
C4592 C 0.33177 0.62561 0.81578 0.0
C4593 C 0.30936 0.59573 0.80463 0.0
C4594 C 0.31772 0.6056 0.80841 0.0
H4595 H 0.3347 0.65932 0.83833 0.0
H4596 H 0.32659 0.63991 0.83391 0.0
H4597 H 0.33227 0.62849 0.79821 0.0
H4598 H 0.30278 0.5774 0.78128 0.0
H4599 H 0.31775 0.59186 0.78847 0.0
C4600 C 0.38664 0.34308 0.84159 0.0
C4601 C 0.38565 0.35435 0.84204 0.0
C4602 C 0.39385 0.33826 0.83364 0.0
C4603 C 0.40908 0.34197 0.80642 0.0
H4604 H 0.42608 0.3204 0.81551 0.0
C4605 C 0.44235 0.32289 0.77693 0.0
C4606 C 0.44203 0.31137 0.77646 0.0
C4607 C 0.436 0.32855 0.78513 0.0
C4608 C 0.42133 0.32634 0.81282 0.0
H4609 H 0.39145 0.3694 0.8344 0.0
H4610 H 0.40417 0.361 0.82057 0.0
H4611 H 0.41402 0.32959 0.82933 0.0
H4612 H 0.43475 0.2968 0.7843 0.0
H4613 H 0.42377 0.30669 0.79865 0.0
H4614 H 0.41642 0.33869 0.7899 0.0
C4615 C 0.39925 0.35586 0.82631 0.0
C4616 C 0.41439 0.33161 0.82073 0.0
C4617 C 0.39199 0.36069 0.83427 0.0
C4618 C 0.43535 0.30569 0.78452 0.0
C4619 C 0.42903 0.31136 0.79274 0.0
C4620 C 0.41605 0.33672 0.79851 0.0
C4621 C 0.40031 0.3446 0.82595 0.0
C4622 C 0.40808 0.3394 0.81761 0.0
C4623 C 0.42921 0.32284 0.79309 0.0
C4624 C 0.42218 0.32877 0.8016 0.0
H4625 H 0.38184 0.33792 0.84739 0.0
H4626 H 0.39427 0.32952 0.83347 0.0
H4627 H 0.40424 0.34782 0.80369 0.0
H4628 H 0.44754 0.32756 0.77098 0.0
H4629 H 0.43645 0.33743 0.78528 0.0
C4630 C 0.37809 0.39921 0.22754 0.0
C4631 C 0.37322 0.39137 0.21888 0.0
C4632 C 0.37184 0.40696 0.2333 0.0
C4633 C 0.34674 0.42025 0.2305 0.0
H4634 H 0.34682 0.42566 0.26318 0.0
C4635 C 0.31189 0.43974 0.25628 0.0
C4636 C 0.31484 0.44739 0.26581 0.0
C4637 C 0.3199 0.43394 0.25049 0.0
C4638 C 0.34684 0.42438 0.25404 0.0
H4639 H 0.35798 0.3855 0.20951 0.0
H4640 H 0.34714 0.3989 0.21954 0.0
H4641 H 0.35932 0.41361 0.2532 0.0
H4642 H 0.32859 0.45503 0.27663 0.0
H4643 H 0.34261 0.44482 0.26651 0.0
H4644 H 0.33416 0.43084 0.23132 0.0
C4645 C 0.35581 0.39919 0.22181 0.0
C4646 C 0.35399 0.41747 0.24833 0.0
C4647 C 0.36201 0.39144 0.21611 0.0
C4648 C 0.32602 0.44912 0.26939 0.0
C4649 C 0.33405 0.44328 0.2636 0.0
C4650 C 0.33961 0.42714 0.2362 0.0
C4651 C 0.36064 0.40706 0.23045 0.0
C4652 C 0.35385 0.41517 0.23651 0.0
C4653 C 0.33107 0.43561 0.25409 0.0
C4654 C 0.33941 0.42911 0.24804 0.0
H4655 H 0.38671 0.39937 0.22988 0.0
H4656 H 0.37581 0.41296 0.23989 0.0
H4657 H 0.34661 0.41882 0.22138 0.0
H4658 H 0.30331 0.43801 0.25343 0.0
H4659 H 0.31726 0.42793 0.24334 0.0
C4660 C 0.70904 0.32819 0.24514 0.0
C4661 C 0.71364 0.33723 0.23941 0.0
C4662 C 0.69941 0.32864 0.25207 0.0
C4663 C 0.67454 0.34264 0.25743 0.0
H4664 H 0.67353 0.33088 0.28619 0.0
C4665 C 0.6334 0.33071 0.28314 0.0
C4666 C 0.63375 0.33254 0.29497 0.0
C4667 C 0.64321 0.33295 0.27652 0.0
C4668 C 0.67371 0.33433 0.27826 0.0
H4669 H 0.71165 0.35383 0.23638 0.0
H4670 H 0.69477 0.3546 0.24852 0.0
H4671 H 0.69063 0.33147 0.27439 0.0
H4672 H 0.6446 0.33856 0.30913 0.0
H4673 H 0.66166 0.34264 0.29759 0.0
H4674 H 0.65756 0.34544 0.26132 0.0
C4675 C 0.69863 0.34715 0.24759 0.0
C4676 C 0.68347 0.33454 0.27143 0.0
C4677 C 0.70831 0.34672 0.24068 0.0
C4678 C 0.64402 0.33712 0.30004 0.0
C4679 C 0.65382 0.33934 0.29343 0.0
C4680 C 0.66474 0.34238 0.26425 0.0
C4681 C 0.69412 0.33814 0.25341 0.0
C4682 C 0.68395 0.33856 0.26089 0.0
C4683 C 0.65357 0.33705 0.28161 0.0
C4684 C 0.66419 0.33813 0.27469 0.0
H4685 H 0.7129 0.32074 0.24433 0.0
H4686 H 0.69604 0.3215 0.25631 0.0
H4687 H 0.67465 0.34574 0.24933 0.0
H4688 H 0.62559 0.3273 0.27898 0.0
H4689 H 0.64274 0.33103 0.26745 0.0
C4690 C 0.35315 0.68547 0.19097 0.0
C4691 C 0.34454 0.69156 0.195 0.0
C4692 C 0.36344 0.68725 0.19644 0.0
C4693 C 0.37746 0.69925 0.22295 0.0
H4694 H 0.40323 0.7085 0.20373 0.0
C4695 C 0.4161 0.7288 0.2401 0.0
C4696 C 0.42678 0.72812 0.23502 0.0
C4697 C 0.40657 0.7219 0.23574 0.0
C4698 C 0.39622 0.7057 0.20923 0.0
H4699 H 0.33967 0.70386 0.2081 0.0
H4700 H 0.3575 0.7068 0.21776 0.0
H4701 H 0.38538 0.70021 0.19527 0.0
H4702 H 0.43593 0.71939 0.22167 0.0
H4703 H 0.41927 0.70716 0.21412 0.0
H4704 H 0.38819 0.70489 0.23693 0.0
C4705 C 0.35635 0.70068 0.21041 0.0
C4706 C 0.38598 0.70096 0.20436 0.0
C4707 C 0.34618 0.69906 0.20484 0.0
C4708 C 0.42778 0.72017 0.22567 0.0
C4709 C 0.41823 0.71319 0.22135 0.0
C4710 C 0.38772 0.70387 0.22782 0.0
C4711 C 0.36518 0.69499 0.20612 0.0
C4712 C 0.37641 0.69803 0.21119 0.0
C4713 C 0.40748 0.71408 0.22623 0.0
C4714 C 0.39713 0.70752 0.22104 0.0
H4715 H 0.35216 0.67978 0.18329 0.0
H4716 H 0.37013 0.68277 0.19297 0.0
H4717 H 0.37023 0.69694 0.22839 0.0
H4718 H 0.41503 0.73496 0.2472 0.0
H4719 H 0.39843 0.72302 0.23959 0.0
loop_
_geom_bond_atom_site_label_1
_geom_bond_atom_site_label_2
_geom_bond_distance
_geom_bond_site_symmetry_2
_ccdc_geom_bond_type
O0 Cd1 2.300 . S
O0 C7 1.275 . S
Cd1 O0 2.300 . S
Cd1 O9 2.381 . S
Cd1 O10 2.378 . S
O2 Cd3 2.385 . S
O2 C7 1.255 . S
Cd3 O2 2.385 . S
Cd3 O4 2.317 . S
O4 Cd3 2.317 . S
O4 C5 1.232 . S
C5 O4 1.232 . S
C5 O6 1.218 . S
O6 C5 1.218 . S
C7 O0 1.275 . S
C7 O2 1.255 . S
C8 O9 1.258 . S
C8 O10 1.256 . S
O9 Cd1 2.381 . S
O9 C8 1.258 . S
O10 Cd1 2.378 . S
O10 C8 1.256 . S
O11 Cd12 2.300 . S
O11 C18 1.275 . S
Cd12 O11 2.300 . S
Cd12 O20 2.381 . S
Cd12 O21 2.378 . S
O13 Cd14 2.385 . S
O13 C18 1.255 . S
Cd14 O13 2.385 . S
Cd14 O15 2.317 . S
O15 Cd14 2.317 . S
O15 C16 1.232 . S
C16 O15 1.232 . S
C16 O17 1.218 . S
O17 C16 1.218 . S
C18 O11 1.275 . S
C18 O13 1.255 . S
C19 O20 1.258 . S
C19 O21 1.256 . S
O20 Cd12 2.381 . S
O20 C19 1.258 . S
O21 Cd12 2.378 . S
O21 C19 1.256 . S
O22 Cd23 2.300 . S
O22 C29 1.275 . S
Cd23 O22 2.300 . S
Cd23 O31 2.381 . S
Cd23 O32 2.378 . S
O24 Cd25 2.385 . S
O24 C29 1.255 . S
Cd25 O24 2.385 . S
Cd25 O26 2.317 . S
O26 Cd25 2.317 . S
O26 C27 1.232 . S
C27 O26 1.232 . S
C27 O28 1.218 . S
O28 C27 1.218 . S
C29 O22 1.275 . S
C29 O24 1.255 . S
C30 O31 1.258 . S
C30 O32 1.256 . S
O31 Cd23 2.381 . S
O31 C30 1.258 . S
O32 Cd23 2.378 . S
O32 C30 1.256 . S
O33 Cd34 2.300 . S
O33 C40 1.275 . S
Cd34 O33 2.300 . S
Cd34 O42 2.381 . S
Cd34 O43 2.378 . S
O35 Cd36 2.385 . S
O35 C40 1.255 . S
Cd36 O35 2.385 . S
Cd36 O37 2.317 . S
O37 Cd36 2.317 . S
O37 C38 1.232 . S
C38 O37 1.232 . S
C38 O39 1.218 . S
O39 C38 1.218 . S
C40 O33 1.275 . S
C40 O35 1.255 . S
C41 O42 1.258 . S
C41 O43 1.256 . S
O42 Cd34 2.381 . S
O42 C41 1.258 . S
O43 Cd34 2.378 . S
O43 C41 1.256 . S
O44 Cd45 2.300 . S
O44 C51 1.275 . S
Cd45 O44 2.300 . S
Cd45 O53 2.381 . S
Cd45 O54 2.378 . S
O46 Cd47 2.385 . S
O46 C51 1.255 . S
Cd47 O46 2.385 . S
Cd47 O48 2.317 . S
O48 Cd47 2.317 . S
O48 C49 1.232 . S
C49 O48 1.232 . S
C49 O50 1.218 . S
O50 C49 1.218 . S
C51 O44 1.275 . S
C51 O46 1.255 . S
C52 O53 1.258 . S
C52 O54 1.256 . S
O53 Cd45 2.381 . S
O53 C52 1.258 . S
O54 Cd45 2.378 . S
O54 C52 1.256 . S
O55 Cd56 2.300 . S
O55 C62 1.275 . S
Cd56 O55 2.300 . S
Cd56 O64 2.381 . S
Cd56 O65 2.378 . S
O57 Cd58 2.385 . S
O57 C62 1.255 . S
Cd58 O57 2.385 . S
Cd58 O59 2.317 . S
O59 Cd58 2.317 . S
O59 C60 1.232 . S
C60 O59 1.232 . S
C60 O61 1.218 . S
O61 C60 1.218 . S
C62 O55 1.275 . S
C62 O57 1.255 . S
C63 O64 1.258 . S
C63 O65 1.256 . S
O64 Cd56 2.381 . S
O64 C63 1.258 . S
O65 Cd56 2.378 . S
O65 C63 1.256 . S
O66 Cd67 2.300 . S
O66 C73 1.275 . S
Cd67 O66 2.300 . S
Cd67 O75 2.381 . S
Cd67 O76 2.378 . S
O68 Cd69 2.385 . S
O68 C73 1.255 . S
Cd69 O68 2.385 . S
Cd69 O70 2.317 . S
O70 Cd69 2.317 . S
O70 C71 1.232 . S
C71 O70 1.232 . S
C71 O72 1.218 . S
O72 C71 1.218 . S
C73 O66 1.275 . S
C73 O68 1.255 . S
C74 O75 1.258 . S
C74 O76 1.256 . S
O75 Cd67 2.381 . S
O75 C74 1.258 . S
O76 Cd67 2.378 . S
O76 C74 1.256 . S
O77 Cd78 2.300 . S
O77 C84 1.275 . S
Cd78 O77 2.300 . S
Cd78 O86 2.381 . S
Cd78 O87 2.378 . S
O79 Cd80 2.385 . S
O79 C84 1.255 . S
Cd80 O79 2.385 . S
Cd80 O81 2.317 . S
O81 Cd80 2.317 . S
O81 C82 1.232 . S
C82 O81 1.232 . S
C82 O83 1.218 . S
O83 C82 1.218 . S
C84 O77 1.275 . S
C84 O79 1.255 . S
C85 O86 1.258 . S
C85 O87 1.256 . S
O86 Cd78 2.381 . S
O86 C85 1.258 . S
O87 Cd78 2.378 . S
O87 C85 1.256 . S
O88 Cd89 2.300 . S
O88 C95 1.275 . S
Cd89 O88 2.300 . S
Cd89 O97 2.381 . S
Cd89 O98 2.378 . S
O90 Cd91 2.385 . S
O90 C95 1.255 . S
Cd91 O90 2.385 . S
Cd91 O92 2.317 . S
O92 Cd91 2.317 . S
O92 C93 1.232 . S
C93 O92 1.232 . S
C93 O94 1.218 . S
O94 C93 1.218 . S
C95 O88 1.275 . S
C95 O90 1.255 . S
C96 O97 1.258 . S
C96 O98 1.256 . S
O97 Cd89 2.381 . S
O97 C96 1.258 . S
O98 Cd89 2.378 . S
O98 C96 1.256 . S
O99 Cd100 2.300 . S
O99 C106 1.275 . S
Cd100 O99 2.300 . S
Cd100 O108 2.381 . S
Cd100 O109 2.378 . S
O101 Cd102 2.385 . S
O101 C106 1.255 . S
Cd102 O101 2.385 . S
Cd102 O103 2.317 . S
O103 Cd102 2.317 . S
O103 C104 1.232 . S
C104 O103 1.232 . S
C104 O105 1.218 . S
O105 C104 1.218 . S
C106 O99 1.275 . S
C106 O101 1.255 . S
C107 O108 1.258 . S
C107 O109 1.256 . S
O108 Cd100 2.381 . S
O108 C107 1.258 . S
O109 Cd100 2.378 . S
O109 C107 1.256 . S
O110 Cd111 2.300 . S
O110 C117 1.275 . S
Cd111 O110 2.300 . S
Cd111 O119 2.381 . S
Cd111 O120 2.378 . S
O112 Cd113 2.385 . S
O112 C117 1.255 . S
Cd113 O112 2.385 . S
Cd113 O114 2.317 . S
O114 Cd113 2.317 . S
O114 C115 1.232 . S
C115 O114 1.232 . S
C115 O116 1.218 . S
O116 C115 1.218 . S
C117 O110 1.275 . S
C117 O112 1.255 . S
C118 O119 1.258 . S
C118 O120 1.256 . S
O119 Cd111 2.381 . S
O119 C118 1.258 . S
O120 Cd111 2.378 . S
O120 C118 1.256 . S
O121 Cd122 2.300 . S
O121 C128 1.275 . S
Cd122 O121 2.300 . S
Cd122 O130 2.381 . S
Cd122 O131 2.378 . S
O123 Cd124 2.385 . S
O123 C128 1.255 . S
Cd124 O123 2.385 . S
Cd124 O125 2.317 . S
O125 Cd124 2.317 . S
O125 C126 1.232 . S
C126 O125 1.232 . S
C126 O127 1.218 . S
O127 C126 1.218 . S
C128 O121 1.275 . S
C128 O123 1.255 . S
C129 O130 1.258 . S
C129 O131 1.256 . S
O130 Cd122 2.381 . S
O130 C129 1.258 . S
O131 Cd122 2.378 . S
O131 C129 1.256 . S
O132 Cd133 2.300 . S
O132 C139 1.275 . S
Cd133 O132 2.300 . S
Cd133 O141 2.381 . S
Cd133 O142 2.378 . S
O134 Cd135 2.385 . S
O134 C139 1.255 . S
Cd135 O134 2.385 . S
Cd135 O136 2.317 . S
O136 Cd135 2.317 . S
O136 C137 1.232 . S
C137 O136 1.232 . S
C137 O138 1.218 . S
O138 C137 1.218 . S
C139 O132 1.275 . S
C139 O134 1.255 . S
C140 O141 1.258 . S
C140 O142 1.256 . S
O141 Cd133 2.381 . S
O141 C140 1.258 . S
O142 Cd133 2.378 . S
O142 C140 1.256 . S
O143 Cd144 2.300 . S
O143 C150 1.275 . S
Cd144 O143 2.300 . S
Cd144 O152 2.381 . S
Cd144 O153 2.378 . S
O145 Cd146 2.385 . S
O145 C150 1.255 . S
Cd146 O145 2.385 . S
Cd146 O147 2.317 . S
O147 Cd146 2.317 . S
O147 C148 1.232 . S
C148 O147 1.232 . S
C148 O149 1.218 . S
O149 C148 1.218 . S
C150 O143 1.275 . S
C150 O145 1.255 . S
C151 O152 1.258 . S
C151 O153 1.256 . S
O152 Cd144 2.381 . S
O152 C151 1.258 . S
O153 Cd144 2.378 . S
O153 C151 1.256 . S
O154 Cd155 2.300 . S
O154 C161 1.275 . S
Cd155 O154 2.300 . S
Cd155 O163 2.381 . S
Cd155 O164 2.378 . S
O156 Cd157 2.385 . S
O156 C161 1.255 . S
Cd157 O156 2.385 . S
Cd157 O158 2.317 . S
O158 Cd157 2.317 . S
O158 C159 1.232 . S
C159 O158 1.232 . S
C159 O160 1.218 . S
O160 C159 1.218 . S
C161 O154 1.275 . S
C161 O156 1.255 . S
C162 O163 1.258 . S
C162 O164 1.256 . S
O163 Cd155 2.381 . S
O163 C162 1.258 . S
O164 Cd155 2.378 . S
O164 C162 1.256 . S
O165 Cd166 2.300 . S
O165 C172 1.275 . S
Cd166 O165 2.300 . S
Cd166 O174 2.381 . S
Cd166 O175 2.378 . S
O167 Cd168 2.385 . S
O167 C172 1.255 . S
Cd168 O167 2.385 . S
Cd168 O169 2.317 . S
O169 Cd168 2.317 . S
O169 C170 1.232 . S
C170 O169 1.232 . S
C170 O171 1.218 . S
O171 C170 1.218 . S
C172 O165 1.275 . S
C172 O167 1.255 . S
C173 O174 1.258 . S
C173 O175 1.256 . S
O174 Cd166 2.381 . S
O174 C173 1.258 . S
O175 Cd166 2.378 . S
O175 C173 1.256 . S
O176 Cd177 2.300 . S
O176 C183 1.275 . S
Cd177 O176 2.300 . S
Cd177 O185 2.381 . S
Cd177 O186 2.378 . S
O178 Cd179 2.385 . S
O178 C183 1.255 . S
Cd179 O178 2.385 . S
Cd179 O180 2.317 . S
O180 Cd179 2.317 . S
O180 C181 1.232 . S
C181 O180 1.232 . S
C181 O182 1.218 . S
O182 C181 1.218 . S
C183 O176 1.275 . S
C183 O178 1.255 . S
C184 O185 1.258 . S
C184 O186 1.256 . S
O185 Cd177 2.381 . S
O185 C184 1.258 . S
O186 Cd177 2.378 . S
O186 C184 1.256 . S
O187 Cd188 2.300 . S
O187 C194 1.275 . S
Cd188 O187 2.300 . S
Cd188 O196 2.381 . S
Cd188 O197 2.378 . S
O189 Cd190 2.385 . S
O189 C194 1.255 . S
Cd190 O189 2.385 . S
Cd190 O191 2.317 . S
O191 Cd190 2.317 . S
O191 C192 1.232 . S
C192 O191 1.232 . S
C192 O193 1.218 . S
O193 C192 1.218 . S
C194 O187 1.275 . S
C194 O189 1.255 . S
C195 O196 1.258 . S
C195 O197 1.256 . S
O196 Cd188 2.381 . S
O196 C195 1.258 . S
O197 Cd188 2.378 . S
O197 C195 1.256 . S
O198 Cd199 2.300 . S
O198 C205 1.275 . S
Cd199 O198 2.300 . S
Cd199 O207 2.381 . S
Cd199 O208 2.378 . S
O200 Cd201 2.385 . S
O200 C205 1.255 . S
Cd201 O200 2.385 . S
Cd201 O202 2.317 . S
O202 Cd201 2.317 . S
O202 C203 1.232 . S
C203 O202 1.232 . S
C203 O204 1.218 . S
O204 C203 1.218 . S
C205 O198 1.275 . S
C205 O200 1.255 . S
C206 O207 1.258 . S
C206 O208 1.256 . S
O207 Cd199 2.381 . S
O207 C206 1.258 . S
O208 Cd199 2.378 . S
O208 C206 1.256 . S
O209 Cd210 2.300 . S
O209 C216 1.275 . S
Cd210 O209 2.300 . S
Cd210 O218 2.381 . S
Cd210 O219 2.378 . S
O211 Cd212 2.385 . S
O211 C216 1.255 . S
Cd212 O211 2.385 . S
Cd212 O213 2.317 . S
O213 Cd212 2.317 . S
O213 C214 1.232 . S
C214 O213 1.232 . S
C214 O215 1.218 . S
O215 C214 1.218 . S
C216 O209 1.275 . S
C216 O211 1.255 . S
C217 O218 1.258 . S
C217 O219 1.256 . S
O218 Cd210 2.381 . S
O218 C217 1.258 . S
O219 Cd210 2.378 . S
O219 C217 1.256 . S
O220 Cd221 2.300 . S
O220 C227 1.275 . S
Cd221 O220 2.300 . S
Cd221 O229 2.381 . S
Cd221 O230 2.378 . S
O222 Cd223 2.385 . S
O222 C227 1.255 . S
Cd223 O222 2.385 . S
Cd223 O224 2.317 . S
O224 Cd223 2.317 . S
O224 C225 1.232 . S
C225 O224 1.232 . S
C225 O226 1.218 . S
O226 C225 1.218 . S
C227 O220 1.275 . S
C227 O222 1.255 . S
C228 O229 1.258 . S
C228 O230 1.256 . S
O229 Cd221 2.381 . S
O229 C228 1.258 . S
O230 Cd221 2.378 . S
O230 C228 1.256 . S
O231 Cd232 2.300 . S
O231 C238 1.275 . S
Cd232 O231 2.300 . S
Cd232 O240 2.381 . S
Cd232 O241 2.378 . S
O233 Cd234 2.385 . S
O233 C238 1.255 . S
Cd234 O233 2.385 . S
Cd234 O235 2.317 . S
O235 Cd234 2.317 . S
O235 C236 1.232 . S
C236 O235 1.232 . S
C236 O237 1.218 . S
O237 C236 1.218 . S
C238 O231 1.275 . S
C238 O233 1.255 . S
C239 O240 1.258 . S
C239 O241 1.256 . S
O240 Cd232 2.381 . S
O240 C239 1.258 . S
O241 Cd232 2.378 . S
O241 C239 1.256 . S
O242 Cd243 2.300 . S
O242 C249 1.275 . S
Cd243 O242 2.300 . S
Cd243 O251 2.381 . S
Cd243 O252 2.378 . S
O244 Cd245 2.385 . S
O244 C249 1.255 . S
Cd245 O244 2.385 . S
Cd245 O246 2.317 . S
O246 Cd245 2.317 . S
O246 C247 1.232 . S
C247 O246 1.232 . S
C247 O248 1.218 . S
O248 C247 1.218 . S
C249 O242 1.275 . S
C249 O244 1.255 . S
C250 O251 1.258 . S
C250 O252 1.256 . S
O251 Cd243 2.381 . S
O251 C250 1.258 . S
O252 Cd243 2.378 . S
O252 C250 1.256 . S
O253 Cd254 2.300 . S
O253 C260 1.275 . S
Cd254 O253 2.300 . S
Cd254 O262 2.381 . S
Cd254 O263 2.378 . S
O255 Cd256 2.385 . S
O255 C260 1.255 . S
Cd256 O255 2.385 . S
Cd256 O257 2.317 . S
O257 Cd256 2.317 . S
O257 C258 1.232 . S
C258 O257 1.232 . S
C258 O259 1.218 . S
O259 C258 1.218 . S
C260 O253 1.275 . S
C260 O255 1.255 . S
C261 O262 1.258 . S
C261 O263 1.256 . S
O262 Cd254 2.381 . S
O262 C261 1.258 . S
O263 Cd254 2.378 . S
O263 C261 1.256 . S
O264 Cd265 2.300 . S
O264 C271 1.275 . S
Cd265 O264 2.300 . S
Cd265 O273 2.381 . S
Cd265 O274 2.378 . S
O266 Cd267 2.385 . S
O266 C271 1.255 . S
Cd267 O266 2.385 . S
Cd267 O268 2.317 . S
O268 Cd267 2.317 . S
O268 C269 1.232 . S
C269 O268 1.232 . S
C269 O270 1.218 . S
O270 C269 1.218 . S
C271 O264 1.275 . S
C271 O266 1.255 . S
C272 O273 1.258 . S
C272 O274 1.256 . S
O273 Cd265 2.381 . S
O273 C272 1.258 . S
O274 Cd265 2.378 . S
O274 C272 1.256 . S
O275 Cd276 2.300 . S
O275 C282 1.275 . S
Cd276 O275 2.300 . S
Cd276 O284 2.381 . S
Cd276 O285 2.378 . S
O277 Cd278 2.385 . S
O277 C282 1.255 . S
Cd278 O277 2.385 . S
Cd278 O279 2.317 . S
O279 Cd278 2.317 . S
O279 C280 1.232 . S
C280 O279 1.232 . S
C280 O281 1.218 . S
O281 C280 1.218 . S
C282 O275 1.275 . S
C282 O277 1.255 . S
C283 O284 1.258 . S
C283 O285 1.256 . S
O284 Cd276 2.381 . S
O284 C283 1.258 . S
O285 Cd276 2.378 . S
O285 C283 1.256 . S
O286 Cd287 2.300 . S
O286 C293 1.275 . S
Cd287 O286 2.300 . S
Cd287 O295 2.381 . S
Cd287 O296 2.378 . S
O288 Cd289 2.385 . S
O288 C293 1.255 . S
Cd289 O288 2.385 . S
Cd289 O290 2.317 . S
O290 Cd289 2.317 . S
O290 C291 1.232 . S
C291 O290 1.232 . S
C291 O292 1.218 . S
O292 C291 1.218 . S
C293 O286 1.275 . S
C293 O288 1.255 . S
C294 O295 1.258 . S
C294 O296 1.256 . S
O295 Cd287 2.381 . S
O295 C294 1.258 . S
O296 Cd287 2.378 . S
O296 C294 1.256 . S
O297 Cd298 2.300 . S
O297 C304 1.275 . S
Cd298 O297 2.300 . S
Cd298 O306 2.381 . S
Cd298 O307 2.378 . S
O299 Cd300 2.385 . S
O299 C304 1.255 . S
Cd300 O299 2.385 . S
Cd300 O301 2.317 . S
O301 Cd300 2.317 . S
O301 C302 1.232 . S
C302 O301 1.232 . S
C302 O303 1.218 . S
O303 C302 1.218 . S
C304 O297 1.275 . S
C304 O299 1.255 . S
C305 O306 1.258 . S
C305 O307 1.256 . S
O306 Cd298 2.381 . S
O306 C305 1.258 . S
O307 Cd298 2.378 . S
O307 C305 1.256 . S
O308 Cd309 2.300 . S
O308 C315 1.275 . S
Cd309 O308 2.300 . S
Cd309 O317 2.381 . S
Cd309 O318 2.378 . S
O310 Cd311 2.385 . S
O310 C315 1.255 . S
Cd311 O310 2.385 . S
Cd311 O312 2.317 . S
O312 Cd311 2.317 . S
O312 C313 1.232 . S
C313 O312 1.232 . S
C313 O314 1.218 . S
O314 C313 1.218 . S
C315 O308 1.275 . S
C315 O310 1.255 . S
C316 O317 1.258 . S
C316 O318 1.256 . S
O317 Cd309 2.381 . S
O317 C316 1.258 . S
O318 Cd309 2.378 . S
O318 C316 1.256 . S
O319 Cd320 2.300 . S
O319 C326 1.275 . S
Cd320 O319 2.300 . S
Cd320 O328 2.381 . S
Cd320 O329 2.378 . S
O321 Cd322 2.385 . S
O321 C326 1.255 . S
Cd322 O321 2.385 . S
Cd322 O323 2.317 . S
O323 Cd322 2.317 . S
O323 C324 1.232 . S
C324 O323 1.232 . S
C324 O325 1.218 . S
O325 C324 1.218 . S
C326 O319 1.275 . S
C326 O321 1.255 . S
C327 O328 1.258 . S
C327 O329 1.256 . S
O328 Cd320 2.381 . S
O328 C327 1.258 . S
O329 Cd320 2.378 . S
O329 C327 1.256 . S
O330 Cd331 2.300 . S
O330 C337 1.275 . S
Cd331 O330 2.300 . S
Cd331 O339 2.381 . S
Cd331 O340 2.378 . S
O332 Cd333 2.385 . S
O332 C337 1.255 . S
Cd333 O332 2.385 . S
Cd333 O334 2.317 . S
O334 Cd333 2.317 . S
O334 C335 1.232 . S
C335 O334 1.232 . S
C335 O336 1.218 . S
O336 C335 1.218 . S
C337 O330 1.275 . S
C337 O332 1.255 . S
C338 O339 1.258 . S
C338 O340 1.256 . S
O339 Cd331 2.381 . S
O339 C338 1.258 . S
O340 Cd331 2.378 . S
O340 C338 1.256 . S
O341 Cd342 2.300 . S
O341 C348 1.275 . S
Cd342 O341 2.300 . S
Cd342 O350 2.381 . S
Cd342 O351 2.378 . S
O343 Cd344 2.385 . S
O343 C348 1.255 . S
Cd344 O343 2.385 . S
Cd344 O345 2.317 . S
O345 Cd344 2.317 . S
O345 C346 1.232 . S
C346 O345 1.232 . S
C346 O347 1.218 . S
O347 C346 1.218 . S
C348 O341 1.275 . S
C348 O343 1.255 . S
C349 O350 1.258 . S
C349 O351 1.256 . S
O350 Cd342 2.381 . S
O350 C349 1.258 . S
O351 Cd342 2.378 . S
O351 C349 1.256 . S
H352 C379 0.929 . S
N353 C378 1.433 . S
N353 C384 1.435 . S
N353 C390 1.423 1_556 S
H354 C380 0.930 . S
H355 C383 0.885 1_554 S
H356 C382 0.976 . S
H357 C385 0.930 . S
H358 C386 0.932 . S
H359 C389 0.929 . S
H360 C388 0.931 . S
H361 C391 0.929 . S
H362 C395 0.932 . S
H363 C392 0.931 . S
H364 C394 0.929 . S
H365 C397 0.929 . S
H366 C398 0.930 . S
H367 C400 0.929 . S
H368 C401 0.931 . S
H369 C403 0.930 . S
H370 C404 0.932 . S
H371 C406 0.931 . S
H372 C407 0.929 . S
H373 C409 0.929 . S
H374 C410 0.931 . S
H375 C412 0.929 . S
N376 C396 1.433 . S
N376 C402 1.435 . S
N376 C408 1.423 . S
H377 C413 0.932 . S
C378 N353 1.433 . S
C378 C379 1.363 . S
C378 C383 1.399 . S
C379 H352 0.929 . S
C379 C378 1.363 . S
C379 C380 1.385 . S
C380 H354 0.930 . S
C380 C379 1.385 . S
C380 C381 1.357 . S
C381 C380 1.357 . S
C381 C382 1.406 . S
C382 H356 0.976 . S
C382 C381 1.406 . S
C382 C383 1.410 . S
C383 H355 0.885 1_556 S
C383 C378 1.399 . S
C383 C382 1.410 . S
C384 N353 1.435 . S
C384 C385 1.358 . S
C384 C389 1.371 . S
C385 H357 0.930 . S
C385 C384 1.358 . S
C385 C386 1.405 . S
C386 H358 0.932 . S
C386 C385 1.405 . S
C386 C387 1.383 . S
C387 C386 1.383 . S
C387 C388 1.393 . S
C388 H360 0.931 . S
C388 C387 1.393 . S
C388 C389 1.382 . S
C389 H359 0.929 . S
C389 C384 1.371 . S
C389 C388 1.382 . S
C390 N353 1.423 1_554 S
C390 C391 1.362 . S
C390 C395 1.388 . S
C391 H361 0.929 . S
C391 C390 1.362 . S
C391 C392 1.376 . S
C392 H363 0.931 . S
C392 C391 1.376 . S
C392 C393 1.396 . S
C393 C392 1.396 . S
C393 C394 1.348 . S
C393 C411 1.472 . S
C394 H364 0.929 . S
C394 C393 1.348 . S
C394 C395 1.443 . S
C395 H362 0.932 . S
C395 C390 1.388 . S
C395 C394 1.443 . S
C396 N376 1.433 . S
C396 C397 1.363 . S
C396 C401 1.370 . S
C397 H365 0.929 . S
C397 C396 1.363 . S
C397 C398 1.385 . S
C398 H366 0.930 . S
C398 C397 1.385 . S
C398 C399 1.357 . S
C399 C398 1.357 . S
C399 C400 1.406 . S
C400 H367 0.929 . S
C400 C399 1.406 . S
C400 C401 1.391 . S
C401 H368 0.931 . S
C401 C396 1.370 . S
C401 C400 1.391 . S
C402 N376 1.435 . S
C402 C403 1.358 . S
C402 C407 1.371 . S
C403 H369 0.930 . S
C403 C402 1.358 . S
C403 C404 1.405 . S
C404 H370 0.932 . S
C404 C403 1.405 . S
C404 C405 1.383 . S
C405 C404 1.383 . S
C405 C406 1.393 . S
C406 H371 0.931 . S
C406 C405 1.393 . S
C406 C407 1.382 . S
C407 H372 0.929 . S
C407 C402 1.371 . S
C407 C406 1.382 . S
C408 N376 1.423 . S
C408 C409 1.362 . S
C408 C413 1.388 . S
C409 H373 0.929 . S
C409 C408 1.362 . S
C409 C410 1.376 . S
C410 H374 0.931 . S
C410 C409 1.376 . S
C410 C411 1.396 . S
C411 C393 1.472 . S
C411 C410 1.396 . S
C411 C412 1.348 . S
C412 H375 0.929 . S
C412 C411 1.348 . S
C412 C413 1.443 . S
C413 H377 0.932 . S
C413 C408 1.388 . S
C413 C412 1.443 . S
H414 C441 0.929 . S
N415 C440 1.433 . S
N415 C446 1.435 . S
N415 C452 1.423 . S
H416 C442 0.930 . S
H417 C445 0.931 . S
H418 C444 0.929 . S
H419 C447 0.930 . S
H420 C448 0.932 . S
H421 C451 0.929 . S
H422 C450 0.931 . S
H423 C453 0.929 . S
H424 C457 0.932 . S
H425 C454 0.931 . S
H426 C456 0.954 . S
H427 C459 0.929 . S
H428 C460 0.930 . S
H429 C462 0.929 . S
H430 C463 0.931 . S
H431 C465 0.930 . S
H432 C466 0.932 . S
H433 C468 0.931 . S
H434 C469 0.929 . S
H435 C471 0.929 . S
H436 C472 0.931 . S
H437 C474 0.929 . S
N438 C458 1.433 . S
N438 C464 1.435 . S
N438 C470 1.423 . S
H439 C475 0.932 . S
C440 N415 1.433 . S
C440 C441 1.363 . S
C440 C445 1.370 . S
C441 H414 0.929 . S
C441 C440 1.363 . S
C441 C442 1.385 . S
C442 H416 0.930 . S
C442 C441 1.385 . S
C442 C443 1.357 . S
C443 C442 1.357 . S
C443 C444 1.406 . S
C444 H418 0.929 . S
C444 C443 1.406 . S
C444 C445 1.391 . S
C445 H417 0.931 . S
C445 C440 1.370 . S
C445 C444 1.391 . S
C446 N415 1.435 . S
C446 C447 1.358 . S
C446 C451 1.371 . S
C447 H419 0.930 . S
C447 C446 1.358 . S
C447 C448 1.405 . S
C448 H420 0.932 . S
C448 C447 1.405 . S
C448 C449 1.383 . S
C449 C448 1.383 . S
C449 C450 1.393 . S
C450 H422 0.931 . S
C450 C449 1.393 . S
C450 C451 1.382 . S
C451 H421 0.929 . S
C451 C446 1.371 . S
C451 C450 1.382 . S
C452 N415 1.423 . S
C452 C453 1.362 . S
C452 C457 1.388 . S
C453 H423 0.929 . S
C453 C452 1.362 . S
C453 C454 1.376 . S
C454 H425 0.931 . S
C454 C453 1.376 . S
C454 C455 1.378 1_556 S
C455 C454 1.378 1_554 S
C455 C456 1.331 1_554 S
C455 C473 1.505 . S
C456 H426 0.954 . S
C456 C455 1.331 1_556 S
C456 C457 1.443 . S
C457 H424 0.932 . S
C457 C452 1.388 . S
C457 C456 1.443 . S
C458 N438 1.433 . S
C458 C459 1.363 . S
C458 C463 1.370 . S
C459 H427 0.929 . S
C459 C458 1.363 . S
C459 C460 1.385 . S
C460 H428 0.930 . S
C460 C459 1.385 . S
C460 C461 1.357 . S
C461 C460 1.357 . S
C461 C462 1.406 . S
C462 H429 0.929 . S
C462 C461 1.406 . S
C462 C463 1.391 . S
C463 H430 0.931 . S
C463 C458 1.370 . S
C463 C462 1.391 . S
C464 N438 1.435 . S
C464 C465 1.358 . S
C464 C469 1.371 . S
C465 H431 0.930 . S
C465 C464 1.358 . S
C465 C466 1.405 . S
C466 H432 0.932 . S
C466 C465 1.405 . S
C466 C467 1.383 . S
C467 C466 1.383 . S
C467 C468 1.393 . S
C468 H433 0.931 . S
C468 C467 1.393 . S
C468 C469 1.382 . S
C469 H434 0.929 . S
C469 C464 1.371 . S
C469 C468 1.382 . S
C470 N438 1.423 . S
C470 C471 1.362 . S
C470 C475 1.388 . S
C471 H435 0.929 . S
C471 C470 1.362 . S
C471 C472 1.376 . S
C472 H436 0.931 . S
C472 C471 1.376 . S
C472 C473 1.396 . S
C473 C455 1.505 . S
C473 C472 1.396 . S
C473 C474 1.348 . S
C474 H437 0.929 . S
C474 C473 1.348 . S
C474 C475 1.443 . S
C475 H439 0.932 . S
C475 C470 1.388 . S
C475 C474 1.443 . S
H476 C503 0.929 . S
N477 C502 1.433 . S
N477 C508 1.435 . S
N477 C514 1.423 1_556 S
H478 C504 0.930 . S
H479 C507 0.881 1_554 S
H480 C506 0.968 . S
H481 C509 0.930 . S
H482 C510 0.932 . S
H483 C513 0.929 . S
H484 C512 0.931 . S
H485 C515 0.929 . S
H486 C519 0.932 . S
H487 C516 0.931 . S
H488 C518 0.929 . S
H489 C521 0.929 . S
H490 C522 0.930 . S
H491 C524 0.929 . S
H492 C525 0.931 . S
H493 C527 0.930 . S
H494 C528 0.932 . S
H495 C530 0.931 . S
H496 C531 0.929 . S
H497 C533 0.929 . S
H498 C534 0.931 . S
H499 C536 0.929 . S
N500 C520 1.433 . S
N500 C526 1.435 . S
N500 C532 1.423 . S
H501 C537 0.932 . S
C502 N477 1.433 . S
C502 C503 1.363 . S
C502 C507 1.400 . S
C503 H476 0.929 . S
C503 C502 1.363 . S
C503 C504 1.385 . S
C504 H478 0.930 . S
C504 C503 1.385 . S
C504 C505 1.357 . S
C505 C504 1.357 . S
C505 C506 1.406 . S
C506 H480 0.968 . S
C506 C505 1.406 . S
C506 C507 1.414 . S
C507 H479 0.881 1_556 S
C507 C502 1.400 . S
C507 C506 1.414 . S
C508 N477 1.435 . S
C508 C509 1.358 . S
C508 C513 1.371 . S
C509 H481 0.930 . S
C509 C508 1.358 . S
C509 C510 1.405 . S
C510 H482 0.932 . S
C510 C509 1.405 . S
C510 C511 1.383 . S
C511 C510 1.383 . S
C511 C512 1.393 . S
C512 H484 0.931 . S
C512 C511 1.393 . S
C512 C513 1.382 . S
C513 H483 0.929 . S
C513 C508 1.371 . S
C513 C512 1.382 . S
C514 N477 1.423 1_554 S
C514 C515 1.362 . S
C514 C519 1.388 . S
C515 H485 0.929 . S
C515 C514 1.362 . S
C515 C516 1.376 . S
C516 H487 0.931 . S
C516 C515 1.376 . S
C516 C517 1.396 . S
C517 C516 1.396 . S
C517 C518 1.348 . S
C517 C535 1.472 . S
C518 H488 0.929 . S
C518 C517 1.348 . S
C518 C519 1.443 . S
C519 H486 0.932 . S
C519 C514 1.388 . S
C519 C518 1.443 . S
C520 N500 1.433 . S
C520 C521 1.363 . S
C520 C525 1.370 . S
C521 H489 0.929 . S
C521 C520 1.363 . S
C521 C522 1.385 . S
C522 H490 0.930 . S
C522 C521 1.385 . S
C522 C523 1.357 . S
C523 C522 1.357 . S
C523 C524 1.406 . S
C524 H491 0.929 . S
C524 C523 1.406 . S
C524 C525 1.391 . S
C525 H492 0.931 . S
C525 C520 1.370 . S
C525 C524 1.391 . S
C526 N500 1.435 . S
C526 C527 1.358 . S
C526 C531 1.371 . S
C527 H493 0.930 . S
C527 C526 1.358 . S
C527 C528 1.405 . S
C528 H494 0.932 . S
C528 C527 1.405 . S
C528 C529 1.383 . S
C529 C528 1.383 . S
C529 C530 1.393 . S
C530 H495 0.931 . S
C530 C529 1.393 . S
C530 C531 1.382 . S
C531 H496 0.929 . S
C531 C526 1.371 . S
C531 C530 1.382 . S
C532 N500 1.423 . S
C532 C533 1.362 . S
C532 C537 1.388 . S
C533 H497 0.929 . S
C533 C532 1.362 . S
C533 C534 1.376 . S
C534 H498 0.931 . S
C534 C533 1.376 . S
C534 C535 1.396 . S
C535 C517 1.472 . S
C535 C534 1.396 . S
C535 C536 1.348 . S
C536 H499 0.929 . S
C536 C535 1.348 . S
C536 C537 1.443 . S
C537 H501 0.932 . S
C537 C532 1.388 . S
C537 C536 1.443 . S
H538 C565 0.929 . S
N539 C564 1.433 . S
N539 C570 1.435 . S
N539 C576 1.423 . S
H540 C566 0.930 . S
H541 C569 0.931 . S
H542 C568 0.929 . S
H543 C571 0.930 . S
H544 C572 0.932 . S
H545 C575 0.929 . S
H546 C574 0.931 . S
H547 C577 0.929 . S
H548 C581 0.932 . S
H549 C578 0.931 . S
H550 C580 0.929 . S
H551 C583 0.929 . S
H552 C584 0.930 . S
H553 C586 0.929 . S
H554 C587 0.931 . S
H555 C589 0.930 . S
H556 C590 0.932 . S
H557 C592 0.931 . S
H558 C593 0.929 . S
H559 C595 0.929 . S
H560 C596 0.931 . S
H561 C598 0.929 . S
N562 C582 1.433 . S
N562 C588 1.435 . S
N562 C594 1.423 . S
H563 C599 0.932 . S
C564 N539 1.433 . S
C564 C565 1.363 . S
C564 C569 1.370 . S
C565 H538 0.929 . S
C565 C564 1.363 . S
C565 C566 1.385 . S
C566 H540 0.930 . S
C566 C565 1.385 . S
C566 C567 1.357 . S
C567 C566 1.357 . S
C567 C568 1.406 . S
C568 H542 0.929 . S
C568 C567 1.406 . S
C568 C569 1.391 . S
C569 H541 0.931 . S
C569 C564 1.370 . S
C569 C568 1.391 . S
C570 N539 1.435 . S
C570 C571 1.358 . S
C570 C575 1.371 . S
C571 H543 0.930 . S
C571 C570 1.358 . S
C571 C572 1.405 . S
C572 H544 0.932 . S
C572 C571 1.405 . S
C572 C573 1.383 . S
C573 C572 1.383 . S
C573 C574 1.393 . S
C574 H546 0.931 . S
C574 C573 1.393 . S
C574 C575 1.382 . S
C575 H545 0.929 . S
C575 C570 1.371 . S
C575 C574 1.382 . S
C576 N539 1.423 . S
C576 C577 1.362 . S
C576 C581 1.388 . S
C577 H547 0.929 . S
C577 C576 1.362 . S
C577 C578 1.376 . S
C578 H549 0.931 . S
C578 C577 1.376 . S
C578 C579 1.396 . S
C579 C578 1.396 . S
C579 C580 1.348 . S
C579 C597 1.472 1_556 S
C580 H550 0.929 . S
C580 C579 1.348 . S
C580 C581 1.443 . S
C581 H548 0.932 . S
C581 C576 1.388 . S
C581 C580 1.443 . S
C582 N562 1.433 . S
C582 C583 1.363 . S
C582 C587 1.370 . S
C583 H551 0.929 . S
C583 C582 1.363 . S
C583 C584 1.385 . S
C584 H552 0.930 . S
C584 C583 1.385 . S
C584 C585 1.357 . S
C585 C584 1.357 . S
C585 C586 1.406 . S
C586 H553 0.929 . S
C586 C585 1.406 . S
C586 C587 1.391 . S
C587 H554 0.931 . S
C587 C582 1.370 . S
C587 C586 1.391 . S
C588 N562 1.435 . S
C588 C589 1.358 . S
C588 C593 1.371 . S
C589 H555 0.930 . S
C589 C588 1.358 . S
C589 C590 1.405 . S
C590 H556 0.932 . S
C590 C589 1.405 . S
C590 C591 1.383 . S
C591 C590 1.383 . S
C591 C592 1.393 . S
C592 H557 0.931 . S
C592 C591 1.393 . S
C592 C593 1.382 . S
C593 H558 0.929 . S
C593 C588 1.371 . S
C593 C592 1.382 . S
C594 N562 1.423 . S
C594 C595 1.362 . S
C594 C599 1.388 . S
C595 H559 0.929 . S
C595 C594 1.362 . S
C595 C596 1.376 . S
C596 H560 0.931 . S
C596 C595 1.376 . S
C596 C597 1.396 . S
C597 C579 1.472 1_554 S
C597 C596 1.396 . S
C597 C598 1.348 . S
C598 H561 0.929 . S
C598 C597 1.348 . S
C598 C599 1.443 . S
C599 H563 0.932 . S
C599 C594 1.388 . S
C599 C598 1.443 . S
H600 C627 0.929 . S
N601 C626 1.433 . S
N601 C632 1.435 . S
N601 C638 1.423 . S
H602 C628 0.930 . S
H603 C631 0.931 . S
H604 C630 0.929 . S
H605 C633 0.930 . S
H606 C634 0.932 . S
H607 C637 0.929 . S
H608 C636 0.931 . S
H609 C639 0.929 . S
H610 C643 0.932 . S
H611 C640 0.931 . S
H612 C642 0.929 . S
H613 C645 0.929 . S
H614 C646 0.930 . S
H615 C648 0.929 . S
H616 C649 0.931 . S
H617 C651 0.930 . S
H618 C652 0.932 . S
H619 C654 0.931 . S
H620 C655 0.929 . S
H621 C657 0.929 . S
H622 C658 0.931 . S
H623 C660 0.929 . S
N624 C644 1.433 . S
N624 C650 1.435 . S
N624 C656 1.423 . S
H625 C661 0.932 . S
C626 N601 1.433 . S
C626 C627 1.363 . S
C626 C631 1.370 . S
C627 H600 0.929 . S
C627 C626 1.363 . S
C627 C628 1.385 . S
C628 H602 0.930 . S
C628 C627 1.385 . S
C628 C629 1.357 . S
C629 C628 1.357 . S
C629 C630 1.406 . S
C630 H604 0.929 . S
C630 C629 1.406 . S
C630 C631 1.391 . S
C631 H603 0.931 . S
C631 C626 1.370 . S
C631 C630 1.391 . S
C632 N601 1.435 . S
C632 C633 1.358 . S
C632 C637 1.371 . S
C633 H605 0.930 . S
C633 C632 1.358 . S
C633 C634 1.405 . S
C634 H606 0.932 . S
C634 C633 1.405 . S
C634 C635 1.383 . S
C635 C634 1.383 . S
C635 C636 1.393 . S
C636 H608 0.931 . S
C636 C635 1.393 . S
C636 C637 1.382 . S
C637 H607 0.929 . S
C637 C632 1.371 . S
C637 C636 1.382 . S
C638 N601 1.423 . S
C638 C639 1.362 . S
C638 C643 1.388 . S
C639 H609 0.929 . S
C639 C638 1.362 . S
C639 C640 1.376 . S
C640 H611 0.931 . S
C640 C639 1.376 . S
C640 C641 1.396 . S
C641 C640 1.396 . S
C641 C642 1.348 . S
C641 C659 1.472 1_655 S
C642 H612 0.929 . S
C642 C641 1.348 . S
C642 C643 1.443 . S
C643 H610 0.932 . S
C643 C638 1.388 . S
C643 C642 1.443 . S
C644 N624 1.433 . S
C644 C645 1.363 . S
C644 C649 1.370 . S
C645 H613 0.929 . S
C645 C644 1.363 . S
C645 C646 1.385 . S
C646 H614 0.930 . S
C646 C645 1.385 . S
C646 C647 1.357 . S
C647 C646 1.357 . S
C647 C648 1.406 . S
C648 H615 0.929 . S
C648 C647 1.406 . S
C648 C649 1.391 . S
C649 H616 0.931 . S
C649 C644 1.370 . S
C649 C648 1.391 . S
C650 N624 1.435 . S
C650 C651 1.358 . S
C650 C655 1.371 . S
C651 H617 0.930 . S
C651 C650 1.358 . S
C651 C652 1.405 . S
C652 H618 0.932 . S
C652 C651 1.405 . S
C652 C653 1.383 . S
C653 C652 1.383 . S
C653 C654 1.393 . S
C654 H619 0.931 . S
C654 C653 1.393 . S
C654 C655 1.382 . S
C655 H620 0.929 . S
C655 C650 1.371 . S
C655 C654 1.382 . S
C656 N624 1.423 . S
C656 C657 1.362 . S
C656 C661 1.388 . S
C657 H621 0.929 . S
C657 C656 1.362 . S
C657 C658 1.376 . S
C658 H622 0.931 . S
C658 C657 1.376 . S
C658 C659 1.396 . S
C659 C641 1.472 1_455 S
C659 C658 1.396 . S
C659 C660 1.348 . S
C660 H623 0.929 . S
C660 C659 1.348 . S
C660 C661 1.443 . S
C661 H625 0.932 . S
C661 C656 1.388 . S
C661 C660 1.443 . S
H662 C689 0.929 . S
N663 C688 1.433 . S
N663 C694 1.435 . S
N663 C700 1.423 . S
H664 C690 0.930 . S
H665 C693 0.931 . S
H666 C692 0.929 . S
H667 C695 0.930 . S
H668 C696 0.932 . S
H669 C699 0.929 . S
H670 C698 0.931 . S
H671 C701 0.929 . S
H672 C705 0.932 . S
H673 C702 0.931 . S
H674 C704 0.929 . S
H675 C707 0.929 . S
H676 C708 0.930 . S
H677 C710 0.929 . S
H678 C711 0.931 . S
H679 C713 0.930 . S
H680 C714 0.932 . S
H681 C716 0.931 . S
H682 C717 0.929 . S
H683 C719 0.929 . S
H684 C720 0.901 1_545 S
H685 C722 0.929 . S
N686 C706 1.433 . S
N686 C712 1.435 . S
N686 C718 1.423 . S
H687 C723 0.932 . S
C688 N663 1.433 . S
C688 C689 1.363 . S
C688 C693 1.370 . S
C689 H662 0.929 . S
C689 C688 1.363 . S
C689 C690 1.385 . S
C690 H664 0.930 . S
C690 C689 1.385 . S
C690 C691 1.357 . S
C691 C690 1.357 . S
C691 C692 1.406 . S
C692 H666 0.929 . S
C692 C691 1.406 . S
C692 C693 1.391 . S
C693 H665 0.931 . S
C693 C688 1.370 . S
C693 C692 1.391 . S
C694 N663 1.435 . S
C694 C695 1.358 . S
C694 C699 1.371 . S
C695 H667 0.930 . S
C695 C694 1.358 . S
C695 C696 1.405 . S
C696 H668 0.932 . S
C696 C695 1.405 . S
C696 C697 1.383 . S
C697 C696 1.383 . S
C697 C698 1.393 . S
C698 H670 0.931 . S
C698 C697 1.393 . S
C698 C699 1.382 . S
C699 H669 0.929 . S
C699 C694 1.371 . S
C699 C698 1.382 . S
C700 N663 1.423 . S
C700 C701 1.362 . S
C700 C705 1.388 . S
C701 H671 0.929 . S
C701 C700 1.362 . S
C701 C702 1.376 . S
C702 H673 0.931 . S
C702 C701 1.376 . S
C702 C703 1.396 . S
C703 C702 1.396 . S
C703 C704 1.348 . S
C703 C721 1.461 1_545 S
C704 H674 0.929 . S
C704 C703 1.348 . S
C704 C705 1.443 . S
C705 H672 0.932 . S
C705 C700 1.388 . S
C705 C704 1.443 . S
C706 N686 1.433 . S
C706 C707 1.363 . S
C706 C711 1.370 . S
C707 H675 0.929 . S
C707 C706 1.363 . S
C707 C708 1.385 . S
C708 H676 0.930 . S
C708 C707 1.385 . S
C708 C709 1.357 . S
C709 C708 1.357 . S
C709 C710 1.406 . S
C710 H677 0.929 . S
C710 C709 1.406 . S
C710 C711 1.391 . S
C711 H678 0.931 . S
C711 C706 1.370 . S
C711 C710 1.391 . S
C712 N686 1.435 . S
C712 C713 1.358 . S
C712 C717 1.371 . S
C713 H679 0.930 . S
C713 C712 1.358 . S
C713 C714 1.405 . S
C714 H680 0.932 . S
C714 C713 1.405 . S
C714 C715 1.383 . S
C715 C714 1.383 . S
C715 C716 1.393 . S
C716 H681 0.931 . S
C716 C715 1.393 . S
C716 C717 1.382 . S
C717 H682 0.929 . S
C717 C712 1.371 . S
C717 C716 1.382 . S
C718 N686 1.423 . S
C718 C719 1.362 . S
C718 C723 1.388 . S
C719 H683 0.929 . S
C719 C718 1.362 . S
C719 C720 1.376 . S
C720 H684 0.901 1_565 S
C720 C719 1.376 . S
C720 C721 1.402 . S
C721 C703 1.461 1_565 S
C721 C720 1.402 . S
C721 C722 1.354 . S
C722 H685 0.929 . S
C722 C721 1.354 . S
C722 C723 1.443 . S
C723 H687 0.932 . S
C723 C718 1.388 . S
C723 C722 1.443 . S
H724 C751 0.929 . S
N725 C750 1.433 . S
N725 C756 1.435 . S
N725 C762 1.423 . S
H726 C752 0.930 . S
H727 C755 0.931 . S
H728 C754 0.929 . S
H729 C757 0.930 . S
H730 C758 0.932 . S
H731 C761 0.929 . S
H732 C760 0.931 . S
H733 C763 0.929 . S
H734 C767 0.932 . S
H735 C764 0.931 . S
H736 C766 0.929 . S
H737 C769 0.891 1_655 S
H738 C770 0.930 . S
H739 C772 0.929 . S
H740 C773 0.931 . S
H741 C775 0.930 . S
H742 C776 0.932 . S
H743 C778 0.931 . S
H744 C779 0.929 . S
H745 C781 0.929 . S
H746 C782 0.931 . S
H747 C784 0.929 . S
N748 C768 1.433 . S
N748 C774 1.435 . S
N748 C780 1.423 . S
H749 C785 0.932 . S
C750 N725 1.433 . S
C750 C751 1.363 . S
C750 C755 1.370 . S
C751 H724 0.929 . S
C751 C750 1.363 . S
C751 C752 1.385 . S
C752 H726 0.930 . S
C752 C751 1.385 . S
C752 C753 1.357 . S
C753 C752 1.357 . S
C753 C754 1.406 . S
C754 H728 0.929 . S
C754 C753 1.406 . S
C754 C755 1.391 . S
C755 H727 0.931 . S
C755 C750 1.370 . S
C755 C754 1.391 . S
C756 N725 1.435 . S
C756 C757 1.358 . S
C756 C761 1.371 . S
C757 H729 0.930 . S
C757 C756 1.358 . S
C757 C758 1.405 . S
C758 H730 0.932 . S
C758 C757 1.405 . S
C758 C759 1.383 . S
C759 C758 1.383 . S
C759 C760 1.393 . S
C760 H732 0.931 . S
C760 C759 1.393 . S
C760 C761 1.382 . S
C761 H731 0.929 . S
C761 C756 1.371 . S
C761 C760 1.382 . S
C762 N725 1.423 . S
C762 C763 1.362 . S
C762 C767 1.388 . S
C763 H733 0.929 . S
C763 C762 1.362 . S
C763 C764 1.376 . S
C764 H735 0.931 . S
C764 C763 1.376 . S
C764 C765 1.396 . S
C765 C764 1.396 . S
C765 C766 1.348 . S
C765 C783 1.472 . S
C766 H736 0.929 . S
C766 C765 1.348 . S
C766 C767 1.443 . S
C767 H734 0.932 . S
C767 C762 1.388 . S
C767 C766 1.443 . S
C768 N748 1.433 . S
C768 C769 1.363 . S
C768 C773 1.370 . S
C769 H737 0.891 1_455 S
C769 C768 1.363 . S
C769 C770 1.385 1_455 S
C770 H738 0.930 . S
C770 C769 1.385 1_655 S
C770 C771 1.357 . S
C771 C770 1.357 . S
C771 C772 1.406 1_655 S
C772 H739 0.929 . S
C772 C771 1.406 1_455 S
C772 C773 1.391 . S
C773 H740 0.931 . S
C773 C768 1.370 . S
C773 C772 1.391 . S
C774 N748 1.435 . S
C774 C775 1.358 . S
C774 C779 1.371 . S
C775 H741 0.930 . S
C775 C774 1.358 . S
C775 C776 1.405 1_455 S
C776 H742 0.932 . S
C776 C775 1.405 1_655 S
C776 C777 1.383 1_655 S
C777 C776 1.383 1_455 S
C777 C778 1.393 . S
C778 H743 0.931 . S
C778 C777 1.393 . S
C778 C779 1.382 . S
C779 H744 0.929 . S
C779 C774 1.371 . S
C779 C778 1.382 . S
C780 N748 1.423 . S
C780 C781 1.362 . S
C780 C785 1.388 . S
C781 H745 0.929 . S
C781 C780 1.362 . S
C781 C782 1.376 . S
C782 H746 0.931 . S
C782 C781 1.376 . S
C782 C783 1.396 . S
C783 C765 1.472 . S
C783 C782 1.396 . S
C783 C784 1.348 . S
C784 H747 0.929 . S
C784 C783 1.348 . S
C784 C785 1.443 . S
C785 H749 0.932 . S
C785 C780 1.388 . S
C785 C784 1.443 . S
H786 C813 0.929 . S
N787 C812 1.433 . S
N787 C818 1.435 . S
N787 C824 1.423 . S
H788 C814 0.930 . S
H789 C817 0.931 . S
H790 C816 0.929 . S
H791 C819 0.930 . S
H792 C820 0.932 . S
H793 C823 0.929 . S
H794 C822 0.931 . S
H795 C825 0.929 . S
H796 C829 0.932 . S
H797 C826 0.931 . S
H798 C828 0.938 . S
H799 C831 0.929 . S
H800 C832 0.930 . S
H801 C834 0.929 . S
H802 C835 0.931 . S
H803 C837 0.930 . S
H804 C838 0.932 . S
H805 C840 0.931 . S
H806 C841 0.929 . S
H807 C843 0.929 . S
H808 C844 0.931 . S
H809 C846 0.929 . S
N810 C830 1.433 . S
N810 C836 1.435 . S
N810 C842 1.423 . S
H811 C847 0.932 . S
C812 N787 1.433 . S
C812 C813 1.363 . S
C812 C817 1.370 . S
C813 H786 0.929 . S
C813 C812 1.363 . S
C813 C814 1.385 . S
C814 H788 0.930 . S
C814 C813 1.385 . S
C814 C815 1.357 . S
C815 C814 1.357 . S
C815 C816 1.406 . S
C816 H790 0.929 . S
C816 C815 1.406 . S
C816 C817 1.391 . S
C817 H789 0.931 . S
C817 C812 1.370 . S
C817 C816 1.391 . S
C818 N787 1.435 . S
C818 C819 1.358 . S
C818 C823 1.371 . S
C819 H791 0.930 . S
C819 C818 1.358 . S
C819 C820 1.405 . S
C820 H792 0.932 . S
C820 C819 1.405 . S
C820 C821 1.383 . S
C821 C820 1.383 . S
C821 C822 1.393 . S
C822 H794 0.931 . S
C822 C821 1.393 . S
C822 C823 1.382 . S
C823 H793 0.929 . S
C823 C818 1.371 . S
C823 C822 1.382 . S
C824 N787 1.423 . S
C824 C825 1.362 . S
C824 C829 1.388 . S
C825 H795 0.929 . S
C825 C824 1.362 . S
C825 C826 1.376 1_565 S
C826 H797 0.931 . S
C826 C825 1.376 1_545 S
C826 C827 1.396 . S
C827 C826 1.396 . S
C827 C828 1.358 . S
C827 C845 1.472 . S
C828 H798 0.938 . S
C828 C827 1.358 . S
C828 C829 1.424 1_545 S
C829 H796 0.932 . S
C829 C824 1.388 . S
C829 C828 1.424 1_565 S
C830 N810 1.433 . S
C830 C831 1.363 . S
C830 C835 1.370 . S
C831 H799 0.929 . S
C831 C830 1.363 . S
C831 C832 1.385 . S
C832 H800 0.930 . S
C832 C831 1.385 . S
C832 C833 1.357 . S
C833 C832 1.357 . S
C833 C834 1.406 . S
C834 H801 0.929 . S
C834 C833 1.406 . S
C834 C835 1.391 . S
C835 H802 0.931 . S
C835 C830 1.370 . S
C835 C834 1.391 . S
C836 N810 1.435 . S
C836 C837 1.358 . S
C836 C841 1.371 . S
C837 H803 0.930 . S
C837 C836 1.358 . S
C837 C838 1.405 . S
C838 H804 0.932 . S
C838 C837 1.405 . S
C838 C839 1.383 . S
C839 C838 1.383 . S
C839 C840 1.393 . S
C840 H805 0.931 . S
C840 C839 1.393 . S
C840 C841 1.382 . S
C841 H806 0.929 . S
C841 C836 1.371 . S
C841 C840 1.382 . S
C842 N810 1.423 . S
C842 C843 1.362 . S
C842 C847 1.388 . S
C843 H807 0.929 . S
C843 C842 1.362 . S
C843 C844 1.376 . S
C844 H808 0.931 . S
C844 C843 1.376 . S
C844 C845 1.396 . S
C845 C827 1.472 . S
C845 C844 1.396 . S
C845 C846 1.348 . S
C846 H809 0.929 . S
C846 C845 1.348 . S
C846 C847 1.443 . S
C847 H811 0.932 . S
C847 C842 1.388 . S
C847 C846 1.443 . S
H848 C875 0.929 . S
N849 C874 1.433 . S
N849 C880 1.435 . S
N849 C886 1.423 . S
H850 C876 0.930 . S
H851 C879 0.931 . S
H852 C878 0.929 . S
H853 C881 0.930 . S
H854 C882 0.932 . S
H855 C885 0.929 . S
H856 C884 0.931 . S
H857 C887 0.929 . S
H858 C891 0.932 . S
H859 C888 0.931 . S
H860 C890 0.929 . S
H861 C893 0.929 . S
H862 C894 0.930 . S
H863 C896 0.929 . S
H864 C897 0.931 . S
H865 C899 0.930 . S
H866 C900 0.932 . S
H867 C902 0.931 . S
H868 C903 0.929 . S
H869 C905 0.929 . S
H870 C906 0.931 . S
H871 C908 0.929 1_455 S
N872 C892 1.433 . S
N872 C898 1.435 . S
N872 C904 1.423 . S
H873 C909 0.932 . S
C874 N849 1.433 . S
C874 C875 1.363 . S
C874 C879 1.370 . S
C875 H848 0.929 . S
C875 C874 1.363 . S
C875 C876 1.385 . S
C876 H850 0.930 . S
C876 C875 1.385 . S
C876 C877 1.357 . S
C877 C876 1.357 . S
C877 C878 1.406 . S
C878 H852 0.929 . S
C878 C877 1.406 . S
C878 C879 1.391 . S
C879 H851 0.931 . S
C879 C874 1.370 . S
C879 C878 1.391 . S
C880 N849 1.435 . S
C880 C881 1.358 . S
C880 C885 1.371 . S
C881 H853 0.930 . S
C881 C880 1.358 . S
C881 C882 1.405 . S
C882 H854 0.932 . S
C882 C881 1.405 . S
C882 C883 1.383 . S
C883 C882 1.383 . S
C883 C884 1.393 . S
C884 H856 0.931 . S
C884 C883 1.393 . S
C884 C885 1.382 . S
C885 H855 0.929 . S
C885 C880 1.371 . S
C885 C884 1.382 . S
C886 N849 1.423 . S
C886 C887 1.362 . S
C886 C891 1.388 . S
C887 H857 0.929 . S
C887 C886 1.362 . S
C887 C888 1.376 . S
C888 H859 0.931 . S
C888 C887 1.376 . S
C888 C889 1.396 . S
C889 C888 1.396 . S
C889 C890 1.348 . S
C889 C907 1.470 1_455 S
C890 H860 0.929 . S
C890 C889 1.348 . S
C890 C891 1.443 . S
C891 H858 0.932 . S
C891 C886 1.388 . S
C891 C890 1.443 . S
C892 N872 1.433 . S
C892 C893 1.363 . S
C892 C897 1.370 . S
C893 H861 0.929 . S
C893 C892 1.363 . S
C893 C894 1.385 . S
C894 H862 0.930 . S
C894 C893 1.385 . S
C894 C895 1.357 . S
C895 C894 1.357 . S
C895 C896 1.406 . S
C896 H863 0.929 . S
C896 C895 1.406 . S
C896 C897 1.391 . S
C897 H864 0.931 . S
C897 C892 1.370 . S
C897 C896 1.391 . S
C898 N872 1.435 . S
C898 C899 1.358 . S
C898 C903 1.371 . S
C899 H865 0.930 . S
C899 C898 1.358 . S
C899 C900 1.405 . S
C900 H866 0.932 . S
C900 C899 1.405 . S
C900 C901 1.383 . S
C901 C900 1.383 . S
C901 C902 1.393 . S
C902 H867 0.931 . S
C902 C901 1.393 . S
C902 C903 1.382 . S
C903 H868 0.929 . S
C903 C898 1.371 . S
C903 C902 1.382 . S
C904 N872 1.423 . S
C904 C905 1.362 . S
C904 C909 1.388 . S
C905 H869 0.929 . S
C905 C904 1.362 . S
C905 C906 1.376 . S
C906 H870 0.931 . S
C906 C905 1.376 . S
C906 C907 1.398 . S
C907 C889 1.470 1_655 S
C907 C906 1.398 . S
C907 C908 1.349 . S
C908 H871 0.929 1_655 S
C908 C907 1.349 . S
C908 C909 1.443 . S
C909 H873 0.932 . S
C909 C904 1.388 . S
C909 C908 1.443 . S
H910 C937 0.929 . S
N911 C936 1.433 . S
N911 C942 1.435 . S
N911 C948 1.423 . S
H912 C938 0.930 . S
H913 C941 0.931 . S
H914 C940 0.929 . S
H915 C943 0.930 . S
H916 C944 0.932 . S
H917 C947 0.929 . S
H918 C946 0.931 . S
H919 C949 0.929 . S
H920 C953 0.932 . S
H921 C950 0.931 . S
H922 C952 0.929 . S
H923 C955 0.929 . S
H924 C956 0.930 . S
H925 C958 0.929 . S
H926 C959 0.931 . S
H927 C961 0.930 . S
H928 C962 0.932 . S
H929 C964 0.931 . S
H930 C965 0.929 . S
H931 C967 0.929 . S
H932 C968 0.931 . S
H933 C970 0.929 . S
N934 C954 1.433 . S
N934 C960 1.435 . S
N934 C966 1.423 . S
H935 C971 0.932 . S
C936 N911 1.433 . S
C936 C937 1.363 . S
C936 C941 1.370 . S
C937 H910 0.929 . S
C937 C936 1.363 . S
C937 C938 1.385 . S
C938 H912 0.930 . S
C938 C937 1.385 . S
C938 C939 1.357 . S
C939 C938 1.357 . S
C939 C940 1.406 . S
C940 H914 0.929 . S
C940 C939 1.406 . S
C940 C941 1.391 . S
C941 H913 0.931 . S
C941 C936 1.370 . S
C941 C940 1.391 . S
C942 N911 1.435 . S
C942 C943 1.358 . S
C942 C947 1.371 . S
C943 H915 0.930 . S
C943 C942 1.358 . S
C943 C944 1.405 . S
C944 H916 0.932 . S
C944 C943 1.405 . S
C944 C945 1.383 . S
C945 C944 1.383 . S
C945 C946 1.393 . S
C946 H918 0.931 . S
C946 C945 1.393 . S
C946 C947 1.382 . S
C947 H917 0.929 . S
C947 C942 1.371 . S
C947 C946 1.382 . S
C948 N911 1.423 . S
C948 C949 1.362 . S
C948 C953 1.388 . S
C949 H919 0.929 . S
C949 C948 1.362 . S
C949 C950 1.376 . S
C950 H921 0.931 . S
C950 C949 1.376 . S
C950 C951 1.396 . S
C951 C950 1.396 . S
C951 C952 1.348 . S
C951 C969 1.472 1_545 S
C952 H922 0.929 . S
C952 C951 1.348 . S
C952 C953 1.443 . S
C953 H920 0.932 . S
C953 C948 1.388 . S
C953 C952 1.443 . S
C954 N934 1.433 . S
C954 C955 1.363 . S
C954 C959 1.370 . S
C955 H923 0.929 . S
C955 C954 1.363 . S
C955 C956 1.385 . S
C956 H924 0.930 . S
C956 C955 1.385 . S
C956 C957 1.357 . S
C957 C956 1.357 . S
C957 C958 1.406 . S
C958 H925 0.929 . S
C958 C957 1.406 . S
C958 C959 1.391 . S
C959 H926 0.931 . S
C959 C954 1.370 . S
C959 C958 1.391 . S
C960 N934 1.435 . S
C960 C961 1.358 . S
C960 C965 1.371 . S
C961 H927 0.930 . S
C961 C960 1.358 . S
C961 C962 1.405 . S
C962 H928 0.932 . S
C962 C961 1.405 . S
C962 C963 1.383 . S
C963 C962 1.383 . S
C963 C964 1.393 . S
C964 H929 0.931 . S
C964 C963 1.393 . S
C964 C965 1.382 . S
C965 H930 0.929 . S
C965 C960 1.371 . S
C965 C964 1.382 . S
C966 N934 1.423 . S
C966 C967 1.362 . S
C966 C971 1.388 . S
C967 H931 0.929 . S
C967 C966 1.362 . S
C967 C968 1.376 . S
C968 H932 0.931 . S
C968 C967 1.376 . S
C968 C969 1.396 . S
C969 C951 1.472 1_565 S
C969 C968 1.396 . S
C969 C970 1.348 . S
C970 H933 0.929 . S
C970 C969 1.348 . S
C970 C971 1.443 . S
C971 H935 0.932 . S
C971 C966 1.388 . S
C971 C970 1.443 . S
H972 C999 0.929 . S
N973 C998 1.433 . S
N973 C1004 1.435 . S
N973 C1010 1.423 . S
H974 C1000 0.930 . S
H975 C1003 0.931 . S
H976 C1002 0.929 . S
H977 C1005 0.930 . S
H978 C1006 0.932 . S
H979 C1009 0.929 . S
H980 C1008 0.931 . S
H981 C1011 0.929 . S
H982 C1015 0.932 . S
H983 C1012 0.931 . S
H984 C1014 0.929 . S
H985 C1017 0.929 . S
H986 C1018 0.930 . S
H987 C1020 0.929 . S
H988 C1021 0.931 . S
H989 C1023 0.930 . S
H990 C1024 0.932 . S
H991 C1026 0.931 . S
H992 C1027 0.929 . S
H993 C1029 0.929 . S
H994 C1030 0.931 . S
H995 C1032 0.929 . S
N996 C1016 1.433 . S
N996 C1022 1.435 . S
N996 C1028 1.423 . S
H997 C1033 0.932 . S
C998 N973 1.433 . S
C998 C999 1.363 1_455 S
C998 C1003 1.370 . S
C999 H972 0.929 . S
C999 C998 1.363 1_655 S
C999 C1000 1.385 . S
C1000 H974 0.930 . S
C1000 C999 1.385 . S
C1000 C1001 1.357 . S
C1001 C1000 1.357 . S
C1001 C1002 1.406 1_655 S
C1002 H976 0.929 . S
C1002 C1001 1.406 1_455 S
C1002 C1003 1.391 . S
C1003 H975 0.931 . S
C1003 C998 1.370 . S
C1003 C1002 1.391 . S
C1004 N973 1.435 . S
C1004 C1005 1.358 . S
C1004 C1009 1.371 . S
C1005 H977 0.930 . S
C1005 C1004 1.358 . S
C1005 C1006 1.405 1_455 S
C1006 H978 0.932 . S
C1006 C1005 1.405 1_655 S
C1006 C1007 1.393 . S
C1007 C1006 1.393 . S
C1007 C1008 1.345 1_655 S
C1008 H980 0.931 . S
C1008 C1007 1.345 1_455 S
C1008 C1009 1.382 . S
C1009 H979 0.929 . S
C1009 C1004 1.371 . S
C1009 C1008 1.382 . S
C1010 N973 1.423 . S
C1010 C1011 1.362 . S
C1010 C1015 1.388 . S
C1011 H981 0.929 . S
C1011 C1010 1.362 . S
C1011 C1012 1.376 . S
C1012 H983 0.931 . S
C1012 C1011 1.376 . S
C1012 C1013 1.396 . S
C1013 C1012 1.396 . S
C1013 C1014 1.348 . S
C1013 C1031 1.472 . S
C1014 H984 0.929 . S
C1014 C1013 1.348 . S
C1014 C1015 1.443 . S
C1015 H982 0.932 . S
C1015 C1010 1.388 . S
C1015 C1014 1.443 . S
C1016 N996 1.433 . S
C1016 C1017 1.363 . S
C1016 C1021 1.370 . S
C1017 H985 0.929 . S
C1017 C1016 1.363 . S
C1017 C1018 1.385 . S
C1018 H986 0.930 . S
C1018 C1017 1.385 . S
C1018 C1019 1.357 . S
C1019 C1018 1.357 . S
C1019 C1020 1.406 . S
C1020 H987 0.929 . S
C1020 C1019 1.406 . S
C1020 C1021 1.391 . S
C1021 H988 0.931 . S
C1021 C1016 1.370 . S
C1021 C1020 1.391 . S
C1022 N996 1.435 . S
C1022 C1023 1.358 . S
C1022 C1027 1.371 . S
C1023 H989 0.930 . S
C1023 C1022 1.358 . S
C1023 C1024 1.405 . S
C1024 H990 0.932 . S
C1024 C1023 1.405 . S
C1024 C1025 1.383 . S
C1025 C1024 1.383 . S
C1025 C1026 1.393 . S
C1026 H991 0.931 . S
C1026 C1025 1.393 . S
C1026 C1027 1.382 . S
C1027 H992 0.929 . S
C1027 C1022 1.371 . S
C1027 C1026 1.382 . S
C1028 N996 1.423 . S
C1028 C1029 1.362 . S
C1028 C1033 1.388 . S
C1029 H993 0.929 . S
C1029 C1028 1.362 . S
C1029 C1030 1.376 . S
C1030 H994 0.931 . S
C1030 C1029 1.376 . S
C1030 C1031 1.396 . S
C1031 C1013 1.472 . S
C1031 C1030 1.396 . S
C1031 C1032 1.348 . S
C1032 H995 0.929 . S
C1032 C1031 1.348 . S
C1032 C1033 1.443 . S
C1033 H997 0.932 . S
C1033 C1028 1.388 . S
C1033 C1032 1.443 . S
H1034 C1061 0.929 . S
N1035 C1060 1.433 . S
N1035 C1066 1.435 . S
N1035 C1072 1.423 . S
H1036 C1062 0.930 . S
H1037 C1065 0.931 . S
H1038 C1064 0.929 . S
H1039 C1067 0.930 . S
H1040 C1068 0.932 . S
H1041 C1071 0.929 . S
H1042 C1070 0.931 . S
H1043 C1073 0.929 . S
H1044 C1077 0.932 . S
H1045 C1074 0.931 . S
H1046 C1076 0.929 . S
H1047 C1079 0.929 . S
H1048 C1080 0.930 . S
H1049 C1082 0.929 . S
H1050 C1083 0.931 . S
H1051 C1085 0.930 . S
H1052 C1086 0.932 . S
H1053 C1088 0.931 . S
H1054 C1089 0.929 . S
H1055 C1091 0.929 . S
H1056 C1092 0.931 . S
H1057 C1094 0.929 . S
N1058 C1078 1.433 . S
N1058 C1084 1.435 . S
N1058 C1090 1.423 . S
H1059 C1095 0.932 . S
C1060 N1035 1.433 . S
C1060 C1061 1.363 . S
C1060 C1065 1.370 . S
C1061 H1034 0.929 . S
C1061 C1060 1.363 . S
C1061 C1062 1.385 . S
C1062 H1036 0.930 . S
C1062 C1061 1.385 . S
C1062 C1063 1.357 . S
C1063 C1062 1.357 . S
C1063 C1064 1.406 . S
C1064 H1038 0.929 . S
C1064 C1063 1.406 . S
C1064 C1065 1.391 . S
C1065 H1037 0.931 . S
C1065 C1060 1.370 . S
C1065 C1064 1.391 . S
C1066 N1035 1.435 . S
C1066 C1067 1.358 . S
C1066 C1071 1.371 . S
C1067 H1039 0.930 . S
C1067 C1066 1.358 . S
C1067 C1068 1.405 . S
C1068 H1040 0.932 . S
C1068 C1067 1.405 . S
C1068 C1069 1.383 . S
C1069 C1068 1.383 . S
C1069 C1070 1.393 . S
C1070 H1042 0.931 . S
C1070 C1069 1.393 . S
C1070 C1071 1.382 . S
C1071 H1041 0.929 . S
C1071 C1066 1.371 . S
C1071 C1070 1.382 . S
C1072 N1035 1.423 . S
C1072 C1073 1.362 . S
C1072 C1077 1.388 . S
C1073 H1043 0.929 . S
C1073 C1072 1.362 . S
C1073 C1074 1.376 1_565 S
C1074 H1045 0.931 . S
C1074 C1073 1.376 1_545 S
C1074 C1075 1.396 . S
C1075 C1074 1.396 . S
C1075 C1076 1.348 . S
C1075 C1093 1.472 . S
C1076 H1046 0.929 . S
C1076 C1075 1.348 . S
C1076 C1077 1.443 1_545 S
C1077 H1044 0.932 . S
C1077 C1072 1.388 . S
C1077 C1076 1.443 1_565 S
C1078 N1058 1.433 . S
C1078 C1079 1.363 . S
C1078 C1083 1.370 . S
C1079 H1047 0.929 . S
C1079 C1078 1.363 . S
C1079 C1080 1.385 . S
C1080 H1048 0.930 . S
C1080 C1079 1.385 . S
C1080 C1081 1.357 . S
C1081 C1080 1.357 . S
C1081 C1082 1.406 . S
C1082 H1049 0.929 . S
C1082 C1081 1.406 . S
C1082 C1083 1.391 . S
C1083 H1050 0.931 . S
C1083 C1078 1.370 . S
C1083 C1082 1.391 . S
C1084 N1058 1.435 . S
C1084 C1085 1.358 . S
C1084 C1089 1.371 . S
C1085 H1051 0.930 . S
C1085 C1084 1.358 . S
C1085 C1086 1.405 . S
C1086 H1052 0.932 . S
C1086 C1085 1.405 . S
C1086 C1087 1.383 . S
C1087 C1086 1.383 . S
C1087 C1088 1.393 . S
C1088 H1053 0.931 . S
C1088 C1087 1.393 . S
C1088 C1089 1.382 . S
C1089 H1054 0.929 . S
C1089 C1084 1.371 . S
C1089 C1088 1.382 . S
C1090 N1058 1.423 . S
C1090 C1091 1.362 . S
C1090 C1095 1.388 . S
C1091 H1055 0.929 . S
C1091 C1090 1.362 . S
C1091 C1092 1.376 . S
C1092 H1056 0.931 . S
C1092 C1091 1.376 . S
C1092 C1093 1.396 . S
C1093 C1075 1.472 . S
C1093 C1092 1.396 . S
C1093 C1094 1.348 . S
C1094 H1057 0.929 . S
C1094 C1093 1.348 . S
C1094 C1095 1.443 . S
C1095 H1059 0.932 . S
C1095 C1090 1.388 . S
C1095 C1094 1.443 . S
H1096 C1123 0.929 . S
N1097 C1122 1.433 . S
N1097 C1128 1.435 . S
N1097 C1134 1.423 . S
H1098 C1124 0.930 . S
H1099 C1127 0.931 . S
H1100 C1126 0.929 . S
H1101 C1129 0.930 . S
H1102 C1130 0.932 . S
H1103 C1133 0.929 . S
H1104 C1132 0.931 . S
H1105 C1135 0.929 . S
H1106 C1139 0.932 . S
H1107 C1136 0.931 . S
H1108 C1138 0.929 . S
H1109 C1141 0.929 . S
H1110 C1142 0.930 . S
H1111 C1144 0.929 . S
H1112 C1145 0.931 . S
H1113 C1147 0.930 . S
H1114 C1148 0.932 . S
H1115 C1150 0.931 . S
H1116 C1151 0.929 . S
H1117 C1153 0.929 . S
H1118 C1154 0.931 . S
H1119 C1156 0.929 . S
N1120 C1140 1.433 . S
N1120 C1146 1.435 . S
N1120 C1152 1.423 . S
H1121 C1157 0.932 . S
C1122 N1097 1.433 . S
C1122 C1123 1.363 . S
C1122 C1127 1.370 . S
C1123 H1096 0.929 . S
C1123 C1122 1.363 . S
C1123 C1124 1.385 . S
C1124 H1098 0.930 . S
C1124 C1123 1.385 . S
C1124 C1125 1.357 . S
C1125 C1124 1.357 . S
C1125 C1126 1.406 . S
C1126 H1100 0.929 . S
C1126 C1125 1.406 . S
C1126 C1127 1.391 . S
C1127 H1099 0.931 . S
C1127 C1122 1.370 . S
C1127 C1126 1.391 . S
C1128 N1097 1.435 . S
C1128 C1129 1.358 . S
C1128 C1133 1.371 . S
C1129 H1101 0.930 . S
C1129 C1128 1.358 . S
C1129 C1130 1.405 . S
C1130 H1102 0.932 . S
C1130 C1129 1.405 . S
C1130 C1131 1.383 . S
C1131 C1130 1.383 . S
C1131 C1132 1.393 . S
C1132 H1104 0.931 . S
C1132 C1131 1.393 . S
C1132 C1133 1.382 . S
C1133 H1103 0.929 . S
C1133 C1128 1.371 . S
C1133 C1132 1.382 . S
C1134 N1097 1.423 . S
C1134 C1135 1.362 . S
C1134 C1139 1.388 . S
C1135 H1105 0.929 . S
C1135 C1134 1.362 . S
C1135 C1136 1.376 . S
C1136 H1107 0.931 . S
C1136 C1135 1.376 . S
C1136 C1137 1.396 . S
C1137 C1136 1.396 . S
C1137 C1138 1.348 . S
C1137 C1155 1.472 . S
C1138 H1108 0.929 . S
C1138 C1137 1.348 . S
C1138 C1139 1.443 . S
C1139 H1106 0.932 . S
C1139 C1134 1.388 . S
C1139 C1138 1.443 . S
C1140 N1120 1.433 . S
C1140 C1141 1.363 . S
C1140 C1145 1.370 . S
C1141 H1109 0.929 . S
C1141 C1140 1.363 . S
C1141 C1142 1.385 . S
C1142 H1110 0.930 . S
C1142 C1141 1.385 . S
C1142 C1143 1.357 . S
C1143 C1142 1.357 . S
C1143 C1144 1.406 . S
C1144 H1111 0.929 . S
C1144 C1143 1.406 . S
C1144 C1145 1.391 . S
C1145 H1112 0.931 . S
C1145 C1140 1.370 . S
C1145 C1144 1.391 . S
C1146 N1120 1.435 . S
C1146 C1147 1.358 . S
C1146 C1151 1.371 . S
C1147 H1113 0.930 . S
C1147 C1146 1.358 . S
C1147 C1148 1.405 . S
C1148 H1114 0.932 . S
C1148 C1147 1.405 . S
C1148 C1149 1.383 . S
C1149 C1148 1.383 . S
C1149 C1150 1.393 . S
C1150 H1115 0.931 . S
C1150 C1149 1.393 . S
C1150 C1151 1.382 . S
C1151 H1116 0.929 . S
C1151 C1146 1.371 . S
C1151 C1150 1.382 . S
C1152 N1120 1.423 . S
C1152 C1153 1.362 . S
C1152 C1157 1.388 . S
C1153 H1117 0.929 . S
C1153 C1152 1.362 . S
C1153 C1154 1.376 . S
C1154 H1118 0.931 . S
C1154 C1153 1.376 . S
C1154 C1155 1.396 . S
C1155 C1137 1.472 . S
C1155 C1154 1.396 . S
C1155 C1156 1.348 . S
C1156 H1119 0.929 . S
C1156 C1155 1.348 . S
C1156 C1157 1.443 . S
C1157 H1121 0.932 . S
C1157 C1152 1.388 . S
C1157 C1156 1.443 . S
H1158 C1185 0.929 . S
N1159 C1184 1.433 . S
N1159 C1190 1.435 . S
N1159 C1196 1.423 . S
H1160 C1186 0.930 . S
H1161 C1189 0.931 . S
H1162 C1188 0.929 . S
H1163 C1191 0.930 . S
H1164 C1192 0.932 . S
H1165 C1195 0.929 . S
H1166 C1194 0.931 . S
H1167 C1197 0.929 . S
H1168 C1201 0.932 . S
H1169 C1198 0.931 . S
H1170 C1200 0.929 . S
H1171 C1203 0.929 . S
H1172 C1204 0.930 . S
H1173 C1206 0.929 . S
H1174 C1207 0.931 . S
H1175 C1209 0.930 . S
H1176 C1210 0.932 . S
H1177 C1212 0.931 . S
H1178 C1213 0.929 . S
H1179 C1215 0.929 . S
H1180 C1216 0.931 . S
H1181 C1218 0.929 . S
N1182 C1202 1.433 . S
N1182 C1208 1.435 . S
N1182 C1214 1.423 . S
H1183 C1219 0.932 . S
C1184 N1159 1.433 . S
C1184 C1185 1.363 . S
C1184 C1189 1.370 . S
C1185 H1158 0.929 . S
C1185 C1184 1.363 . S
C1185 C1186 1.385 . S
C1186 H1160 0.930 . S
C1186 C1185 1.385 . S
C1186 C1187 1.357 . S
C1187 C1186 1.357 . S
C1187 C1188 1.406 . S
C1188 H1162 0.929 . S
C1188 C1187 1.406 . S
C1188 C1189 1.391 . S
C1189 H1161 0.931 . S
C1189 C1184 1.370 . S
C1189 C1188 1.391 . S
C1190 N1159 1.435 . S
C1190 C1191 1.358 . S
C1190 C1195 1.371 . S
C1191 H1163 0.930 . S
C1191 C1190 1.358 . S
C1191 C1192 1.405 . S
C1192 H1164 0.932 . S
C1192 C1191 1.405 . S
C1192 C1193 1.383 . S
C1193 C1192 1.383 . S
C1193 C1194 1.393 . S
C1194 H1166 0.931 . S
C1194 C1193 1.393 . S
C1194 C1195 1.382 . S
C1195 H1165 0.929 . S
C1195 C1190 1.371 . S
C1195 C1194 1.382 . S
C1196 N1159 1.423 . S
C1196 C1197 1.362 . S
C1196 C1201 1.388 . S
C1197 H1167 0.929 . S
C1197 C1196 1.362 . S
C1197 C1198 1.376 . S
C1198 H1169 0.931 . S
C1198 C1197 1.376 . S
C1198 C1199 1.396 . S
C1199 C1198 1.396 . S
C1199 C1200 1.348 . S
C1199 C1217 1.472 . S
C1200 H1170 0.929 . S
C1200 C1199 1.348 . S
C1200 C1201 1.443 . S
C1201 H1168 0.932 . S
C1201 C1196 1.388 . S
C1201 C1200 1.443 . S
C1202 N1182 1.433 . S
C1202 C1203 1.363 . S
C1202 C1207 1.370 . S
C1203 H1171 0.929 . S
C1203 C1202 1.363 . S
C1203 C1204 1.385 . S
C1204 H1172 0.930 . S
C1204 C1203 1.385 . S
C1204 C1205 1.357 . S
C1205 C1204 1.357 . S
C1205 C1206 1.406 . S
C1206 H1173 0.929 . S
C1206 C1205 1.406 . S
C1206 C1207 1.391 . S
C1207 H1174 0.931 . S
C1207 C1202 1.370 . S
C1207 C1206 1.391 . S
C1208 N1182 1.435 . S
C1208 C1209 1.358 . S
C1208 C1213 1.371 . S
C1209 H1175 0.930 . S
C1209 C1208 1.358 . S
C1209 C1210 1.405 . S
C1210 H1176 0.932 . S
C1210 C1209 1.405 . S
C1210 C1211 1.383 . S
C1211 C1210 1.383 . S
C1211 C1212 1.393 . S
C1212 H1177 0.931 . S
C1212 C1211 1.393 . S
C1212 C1213 1.382 . S
C1213 H1178 0.929 . S
C1213 C1208 1.371 . S
C1213 C1212 1.382 . S
C1214 N1182 1.423 . S
C1214 C1215 1.362 . S
C1214 C1219 1.388 . S
C1215 H1179 0.929 . S
C1215 C1214 1.362 . S
C1215 C1216 1.376 . S
C1216 H1180 0.931 . S
C1216 C1215 1.376 . S
C1216 C1217 1.396 . S
C1217 C1199 1.472 . S
C1217 C1216 1.396 . S
C1217 C1218 1.348 . S
C1218 H1181 0.929 . S
C1218 C1217 1.348 . S
C1218 C1219 1.443 . S
C1219 H1183 0.932 . S
C1219 C1214 1.388 . S
C1219 C1218 1.443 . S
H1220 C1247 0.929 . S
N1221 C1246 1.433 . S
N1221 C1252 1.435 . S
N1221 C1258 1.423 . S
H1222 C1248 0.930 . S
H1223 C1251 0.931 . S
H1224 C1250 0.929 . S
H1225 C1253 0.930 . S
H1226 C1254 0.932 . S
H1227 C1257 0.929 . S
H1228 C1256 0.931 . S
H1229 C1259 0.929 . S
H1230 C1263 0.932 . S
H1231 C1260 0.931 . S
H1232 C1262 0.929 . S
H1233 C1265 0.929 . S
H1234 C1266 0.930 . S
H1235 C1268 0.929 . S
H1236 C1269 0.931 . S
H1237 C1271 0.930 . S
H1238 C1272 0.932 . S
H1239 C1274 0.931 . S
H1240 C1275 0.929 . S
H1241 C1277 0.929 . S
H1242 C1278 0.931 . S
H1243 C1280 0.929 . S
N1244 C1264 1.433 . S
N1244 C1270 1.435 . S
N1244 C1276 1.423 . S
H1245 C1281 0.932 . S
C1246 N1221 1.433 . S
C1246 C1247 1.363 . S
C1246 C1251 1.370 . S
C1247 H1220 0.929 . S
C1247 C1246 1.363 . S
C1247 C1248 1.385 . S
C1248 H1222 0.930 . S
C1248 C1247 1.385 . S
C1248 C1249 1.357 . S
C1249 C1248 1.357 . S
C1249 C1250 1.406 . S
C1250 H1224 0.929 . S
C1250 C1249 1.406 . S
C1250 C1251 1.391 . S
C1251 H1223 0.931 . S
C1251 C1246 1.370 . S
C1251 C1250 1.391 . S
C1252 N1221 1.435 . S
C1252 C1253 1.358 . S
C1252 C1257 1.371 . S
C1253 H1225 0.930 . S
C1253 C1252 1.358 . S
C1253 C1254 1.405 . S
C1254 H1226 0.932 . S
C1254 C1253 1.405 . S
C1254 C1255 1.383 . S
C1255 C1254 1.383 . S
C1255 C1256 1.393 . S
C1256 H1228 0.931 . S
C1256 C1255 1.393 . S
C1256 C1257 1.382 . S
C1257 H1227 0.929 . S
C1257 C1252 1.371 . S
C1257 C1256 1.382 . S
C1258 N1221 1.423 . S
C1258 C1259 1.362 . S
C1258 C1263 1.388 . S
C1259 H1229 0.929 . S
C1259 C1258 1.362 . S
C1259 C1260 1.376 . S
C1260 H1231 0.931 . S
C1260 C1259 1.376 . S
C1260 C1261 1.396 . S
C1261 C1260 1.396 . S
C1261 C1262 1.348 . S
C1261 C1279 1.472 . S
C1262 H1232 0.929 . S
C1262 C1261 1.348 . S
C1262 C1263 1.443 . S
C1263 H1230 0.932 . S
C1263 C1258 1.388 . S
C1263 C1262 1.443 . S
C1264 N1244 1.433 . S
C1264 C1265 1.363 . S
C1264 C1269 1.370 . S
C1265 H1233 0.929 . S
C1265 C1264 1.363 . S
C1265 C1266 1.385 . S
C1266 H1234 0.930 . S
C1266 C1265 1.385 . S
C1266 C1267 1.357 . S
C1267 C1266 1.357 . S
C1267 C1268 1.406 . S
C1268 H1235 0.929 . S
C1268 C1267 1.406 . S
C1268 C1269 1.391 . S
C1269 H1236 0.931 . S
C1269 C1264 1.370 . S
C1269 C1268 1.391 . S
C1270 N1244 1.435 . S
C1270 C1271 1.358 . S
C1270 C1275 1.371 . S
C1271 H1237 0.930 . S
C1271 C1270 1.358 . S
C1271 C1272 1.405 . S
C1272 H1238 0.932 . S
C1272 C1271 1.405 . S
C1272 C1273 1.383 . S
C1273 C1272 1.383 . S
C1273 C1274 1.393 . S
C1274 H1239 0.931 . S
C1274 C1273 1.393 . S
C1274 C1275 1.382 . S
C1275 H1240 0.929 . S
C1275 C1270 1.371 . S
C1275 C1274 1.382 . S
C1276 N1244 1.423 . S
C1276 C1277 1.362 . S
C1276 C1281 1.388 . S
C1277 H1241 0.929 . S
C1277 C1276 1.362 . S
C1277 C1278 1.376 . S
C1278 H1242 0.931 . S
C1278 C1277 1.376 . S
C1278 C1279 1.396 . S
C1279 C1261 1.472 . S
C1279 C1278 1.396 . S
C1279 C1280 1.348 . S
C1280 H1243 0.929 . S
C1280 C1279 1.348 . S
C1280 C1281 1.443 . S
C1281 H1245 0.932 . S
C1281 C1276 1.388 . S
C1281 C1280 1.443 . S
H1282 C1309 0.929 . S
N1283 C1308 1.433 . S
N1283 C1314 1.435 . S
N1283 C1320 1.423 . S
H1284 C1310 0.930 . S
H1285 C1313 0.931 . S
H1286 C1312 0.929 . S
H1287 C1315 0.930 . S
H1288 C1316 0.932 . S
H1289 C1319 0.929 . S
H1290 C1318 0.931 . S
H1291 C1321 0.929 . S
H1292 C1325 0.932 . S
H1293 C1322 0.931 . S
H1294 C1324 0.929 . S
H1295 C1327 0.929 . S
H1296 C1328 0.930 . S
H1297 C1330 0.929 . S
H1298 C1331 0.931 . S
H1299 C1333 0.930 . S
H1300 C1334 0.932 . S
H1301 C1336 0.931 . S
H1302 C1337 0.929 . S
H1303 C1339 0.929 . S
H1304 C1340 0.931 . S
H1305 C1342 0.929 . S
N1306 C1326 1.433 . S
N1306 C1332 1.435 . S
N1306 C1338 1.423 . S
H1307 C1343 0.932 . S
C1308 N1283 1.433 . S
C1308 C1309 1.363 . S
C1308 C1313 1.370 . S
C1309 H1282 0.929 . S
C1309 C1308 1.363 . S
C1309 C1310 1.385 . S
C1310 H1284 0.930 . S
C1310 C1309 1.385 . S
C1310 C1311 1.357 . S
C1311 C1310 1.357 . S
C1311 C1312 1.406 . S
C1312 H1286 0.929 . S
C1312 C1311 1.406 . S
C1312 C1313 1.391 . S
C1313 H1285 0.931 . S
C1313 C1308 1.370 . S
C1313 C1312 1.391 . S
C1314 N1283 1.435 . S
C1314 C1315 1.358 . S
C1314 C1319 1.371 . S
C1315 H1287 0.930 . S
C1315 C1314 1.358 . S
C1315 C1316 1.405 . S
C1316 H1288 0.932 . S
C1316 C1315 1.405 . S
C1316 C1317 1.383 . S
C1317 C1316 1.383 . S
C1317 C1318 1.393 . S
C1318 H1290 0.931 . S
C1318 C1317 1.393 . S
C1318 C1319 1.382 . S
C1319 H1289 0.929 . S
C1319 C1314 1.371 . S
C1319 C1318 1.382 . S
C1320 N1283 1.423 . S
C1320 C1321 1.362 . S
C1320 C1325 1.388 . S
C1321 H1291 0.929 . S
C1321 C1320 1.362 . S
C1321 C1322 1.376 . S
C1322 H1293 0.931 . S
C1322 C1321 1.376 . S
C1322 C1323 1.396 . S
C1323 C1322 1.396 . S
C1323 C1324 1.348 . S
C1323 C1341 1.472 . S
C1324 H1294 0.929 . S
C1324 C1323 1.348 . S
C1324 C1325 1.443 . S
C1325 H1292 0.932 . S
C1325 C1320 1.388 . S
C1325 C1324 1.443 . S
C1326 N1306 1.433 . S
C1326 C1327 1.363 . S
C1326 C1331 1.370 . S
C1327 H1295 0.929 . S
C1327 C1326 1.363 . S
C1327 C1328 1.385 . S
C1328 H1296 0.930 . S
C1328 C1327 1.385 . S
C1328 C1329 1.357 . S
C1329 C1328 1.357 . S
C1329 C1330 1.406 . S
C1330 H1297 0.929 . S
C1330 C1329 1.406 . S
C1330 C1331 1.391 . S
C1331 H1298 0.931 . S
C1331 C1326 1.370 . S
C1331 C1330 1.391 . S
C1332 N1306 1.435 . S
C1332 C1333 1.358 . S
C1332 C1337 1.371 . S
C1333 H1299 0.930 . S
C1333 C1332 1.358 . S
C1333 C1334 1.405 . S
C1334 H1300 0.932 . S
C1334 C1333 1.405 . S
C1334 C1335 1.383 . S
C1335 C1334 1.383 . S
C1335 C1336 1.393 . S
C1336 H1301 0.931 . S
C1336 C1335 1.393 . S
C1336 C1337 1.382 . S
C1337 H1302 0.929 . S
C1337 C1332 1.371 . S
C1337 C1336 1.382 . S
C1338 N1306 1.423 . S
C1338 C1339 1.362 . S
C1338 C1343 1.388 . S
C1339 H1303 0.929 . S
C1339 C1338 1.362 . S
C1339 C1340 1.376 . S
C1340 H1304 0.931 . S
C1340 C1339 1.376 . S
C1340 C1341 1.396 . S
C1341 C1323 1.472 . S
C1341 C1340 1.396 . S
C1341 C1342 1.348 . S
C1342 H1305 0.929 . S
C1342 C1341 1.348 . S
C1342 C1343 1.443 . S
C1343 H1307 0.932 . S
C1343 C1338 1.388 . S
C1343 C1342 1.443 . S
H1344 C1371 0.929 . S
N1345 C1370 1.433 . S
N1345 C1376 1.435 . S
N1345 C1382 1.423 . S
H1346 C1372 0.930 . S
H1347 C1375 0.931 . S
H1348 C1374 0.929 . S
H1349 C1377 0.930 . S
H1350 C1378 0.932 . S
H1351 C1381 0.929 . S
H1352 C1380 0.931 . S
H1353 C1383 0.929 . S
H1354 C1387 0.932 . S
H1355 C1384 0.931 . S
H1356 C1386 0.929 . S
H1357 C1389 0.929 . S
H1358 C1390 0.930 . S
H1359 C1392 0.929 . S
H1360 C1393 0.931 . S
H1361 C1395 0.930 . S
H1362 C1396 0.932 . S
H1363 C1398 0.931 . S
H1364 C1399 0.929 . S
H1365 C1401 0.929 . S
H1366 C1402 0.931 . S
H1367 C1404 0.929 . S
N1368 C1388 1.433 . S
N1368 C1394 1.435 . S
N1368 C1400 1.423 . S
H1369 C1405 0.932 . S
C1370 N1345 1.433 . S
C1370 C1371 1.363 . S
C1370 C1375 1.370 . S
C1371 H1344 0.929 . S
C1371 C1370 1.363 . S
C1371 C1372 1.385 . S
C1372 H1346 0.930 . S
C1372 C1371 1.385 . S
C1372 C1373 1.357 . S
C1373 C1372 1.357 . S
C1373 C1374 1.406 . S
C1374 H1348 0.929 . S
C1374 C1373 1.406 . S
C1374 C1375 1.391 . S
C1375 H1347 0.931 . S
C1375 C1370 1.370 . S
C1375 C1374 1.391 . S
C1376 N1345 1.435 . S
C1376 C1377 1.358 . S
C1376 C1381 1.371 . S
C1377 H1349 0.930 . S
C1377 C1376 1.358 . S
C1377 C1378 1.405 . S
C1378 H1350 0.932 . S
C1378 C1377 1.405 . S
C1378 C1379 1.383 . S
C1379 C1378 1.383 . S
C1379 C1380 1.393 . S
C1380 H1352 0.931 . S
C1380 C1379 1.393 . S
C1380 C1381 1.382 . S
C1381 H1351 0.929 . S
C1381 C1376 1.371 . S
C1381 C1380 1.382 . S
C1382 N1345 1.423 . S
C1382 C1383 1.362 . S
C1382 C1387 1.388 . S
C1383 H1353 0.929 . S
C1383 C1382 1.362 . S
C1383 C1384 1.376 . S
C1384 H1355 0.931 . S
C1384 C1383 1.376 . S
C1384 C1385 1.396 . S
C1385 C1384 1.396 . S
C1385 C1386 1.348 . S
C1385 C1403 1.472 . S
C1386 H1356 0.929 . S
C1386 C1385 1.348 . S
C1386 C1387 1.443 . S
C1387 H1354 0.932 . S
C1387 C1382 1.388 . S
C1387 C1386 1.443 . S
C1388 N1368 1.433 . S
C1388 C1389 1.363 . S
C1388 C1393 1.370 . S
C1389 H1357 0.929 . S
C1389 C1388 1.363 . S
C1389 C1390 1.385 . S
C1390 H1358 0.930 . S
C1390 C1389 1.385 . S
C1390 C1391 1.357 . S
C1391 C1390 1.357 . S
C1391 C1392 1.406 . S
C1392 H1359 0.929 . S
C1392 C1391 1.406 . S
C1392 C1393 1.391 . S
C1393 H1360 0.931 . S
C1393 C1388 1.370 . S
C1393 C1392 1.391 . S
C1394 N1368 1.435 . S
C1394 C1395 1.358 . S
C1394 C1399 1.371 . S
C1395 H1361 0.930 . S
C1395 C1394 1.358 . S
C1395 C1396 1.405 . S
C1396 H1362 0.932 . S
C1396 C1395 1.405 . S
C1396 C1397 1.383 . S
C1397 C1396 1.383 . S
C1397 C1398 1.393 . S
C1398 H1363 0.931 . S
C1398 C1397 1.393 . S
C1398 C1399 1.382 . S
C1399 H1364 0.929 . S
C1399 C1394 1.371 . S
C1399 C1398 1.382 . S
C1400 N1368 1.423 . S
C1400 C1401 1.362 . S
C1400 C1405 1.388 . S
C1401 H1365 0.929 . S
C1401 C1400 1.362 . S
C1401 C1402 1.376 . S
C1402 H1366 0.931 . S
C1402 C1401 1.376 . S
C1402 C1403 1.396 . S
C1403 C1385 1.472 . S
C1403 C1402 1.396 . S
C1403 C1404 1.348 . S
C1404 H1367 0.929 . S
C1404 C1403 1.348 . S
C1404 C1405 1.443 . S
C1405 H1369 0.932 . S
C1405 C1400 1.388 . S
C1405 C1404 1.443 . S
H1406 C1433 0.929 . S
N1407 C1432 1.433 . S
N1407 C1438 1.435 . S
N1407 C1444 1.423 . S
H1408 C1434 0.930 . S
H1409 C1437 0.931 . S
H1410 C1436 0.929 . S
H1411 C1439 0.930 . S
H1412 C1440 0.932 . S
H1413 C1443 0.929 . S
H1414 C1442 0.931 . S
H1415 C1445 0.929 . S
H1416 C1449 0.932 . S
H1417 C1446 0.931 . S
H1418 C1448 0.929 . S
H1419 C1451 0.929 . S
H1420 C1452 0.930 . S
H1421 C1454 0.929 . S
H1422 C1455 0.931 . S
H1423 C1457 0.930 . S
H1424 C1458 0.932 . S
H1425 C1460 0.931 . S
H1426 C1461 0.929 . S
H1427 C1463 0.929 . S
H1428 C1464 0.931 . S
H1429 C1466 0.929 . S
N1430 C1450 1.433 . S
N1430 C1456 1.435 . S
N1430 C1462 1.423 . S
H1431 C1467 0.932 . S
C1432 N1407 1.433 . S
C1432 C1433 1.363 . S
C1432 C1437 1.370 . S
C1433 H1406 0.929 . S
C1433 C1432 1.363 . S
C1433 C1434 1.385 . S
C1434 H1408 0.930 . S
C1434 C1433 1.385 . S
C1434 C1435 1.357 . S
C1435 C1434 1.357 . S
C1435 C1436 1.406 . S
C1436 H1410 0.929 . S
C1436 C1435 1.406 . S
C1436 C1437 1.391 . S
C1437 H1409 0.931 . S
C1437 C1432 1.370 . S
C1437 C1436 1.391 . S
C1438 N1407 1.435 . S
C1438 C1439 1.358 . S
C1438 C1443 1.371 . S
C1439 H1411 0.930 . S
C1439 C1438 1.358 . S
C1439 C1440 1.405 . S
C1440 H1412 0.932 . S
C1440 C1439 1.405 . S
C1440 C1441 1.383 . S
C1441 C1440 1.383 . S
C1441 C1442 1.393 . S
C1442 H1414 0.931 . S
C1442 C1441 1.393 . S
C1442 C1443 1.382 . S
C1443 H1413 0.929 . S
C1443 C1438 1.371 . S
C1443 C1442 1.382 . S
C1444 N1407 1.423 . S
C1444 C1445 1.362 . S
C1444 C1449 1.388 . S
C1445 H1415 0.929 . S
C1445 C1444 1.362 . S
C1445 C1446 1.376 . S
C1446 H1417 0.931 . S
C1446 C1445 1.376 . S
C1446 C1447 1.396 . S
C1447 C1446 1.396 . S
C1447 C1448 1.348 . S
C1447 C1465 1.472 . S
C1448 H1418 0.929 . S
C1448 C1447 1.348 . S
C1448 C1449 1.443 . S
C1449 H1416 0.932 . S
C1449 C1444 1.388 . S
C1449 C1448 1.443 . S
C1450 N1430 1.433 . S
C1450 C1451 1.363 . S
C1450 C1455 1.370 . S
C1451 H1419 0.929 . S
C1451 C1450 1.363 . S
C1451 C1452 1.385 . S
C1452 H1420 0.930 . S
C1452 C1451 1.385 . S
C1452 C1453 1.357 . S
C1453 C1452 1.357 . S
C1453 C1454 1.406 . S
C1454 H1421 0.929 . S
C1454 C1453 1.406 . S
C1454 C1455 1.391 . S
C1455 H1422 0.931 . S
C1455 C1450 1.370 . S
C1455 C1454 1.391 . S
C1456 N1430 1.435 . S
C1456 C1457 1.358 . S
C1456 C1461 1.371 . S
C1457 H1423 0.930 . S
C1457 C1456 1.358 . S
C1457 C1458 1.405 . S
C1458 H1424 0.932 . S
C1458 C1457 1.405 . S
C1458 C1459 1.383 . S
C1459 C1458 1.383 . S
C1459 C1460 1.393 . S
C1460 H1425 0.931 . S
C1460 C1459 1.393 . S
C1460 C1461 1.382 . S
C1461 H1426 0.929 . S
C1461 C1456 1.371 . S
C1461 C1460 1.382 . S
C1462 N1430 1.423 . S
C1462 C1463 1.362 . S
C1462 C1467 1.388 . S
C1463 H1427 0.929 . S
C1463 C1462 1.362 . S
C1463 C1464 1.376 . S
C1464 H1428 0.931 . S
C1464 C1463 1.376 . S
C1464 C1465 1.396 . S
C1465 C1447 1.472 . S
C1465 C1464 1.396 . S
C1465 C1466 1.348 . S
C1466 H1429 0.929 . S
C1466 C1465 1.348 . S
C1466 C1467 1.443 . S
C1467 H1431 0.932 . S
C1467 C1462 1.388 . S
C1467 C1466 1.443 . S
H1468 C1495 0.929 . S
N1469 C1494 1.433 . S
N1469 C1500 1.435 . S
N1469 C1506 1.423 . S
H1470 C1496 0.930 . S
H1471 C1499 0.931 . S
H1472 C1498 0.929 . S
H1473 C1501 0.930 . S
H1474 C1502 0.932 . S
H1475 C1505 0.929 . S
H1476 C1504 0.931 . S
H1477 C1507 0.929 . S
H1478 C1511 0.932 . S
H1479 C1508 0.931 . S
H1480 C1510 0.929 . S
H1481 C1513 0.929 . S
H1482 C1514 0.930 . S
H1483 C1516 0.929 . S
H1484 C1517 0.931 . S
H1485 C1519 0.930 . S
H1486 C1520 0.932 . S
H1487 C1522 0.931 . S
H1488 C1523 0.929 . S
H1489 C1525 0.929 . S
H1490 C1526 0.931 . S
H1491 C1528 0.929 . S
N1492 C1512 1.433 . S
N1492 C1518 1.435 . S
N1492 C1524 1.423 . S
H1493 C1529 0.932 . S
C1494 N1469 1.433 . S
C1494 C1495 1.363 . S
C1494 C1499 1.370 . S
C1495 H1468 0.929 . S
C1495 C1494 1.363 . S
C1495 C1496 1.385 . S
C1496 H1470 0.930 . S
C1496 C1495 1.385 . S
C1496 C1497 1.357 . S
C1497 C1496 1.357 . S
C1497 C1498 1.406 . S
C1498 H1472 0.929 . S
C1498 C1497 1.406 . S
C1498 C1499 1.391 . S
C1499 H1471 0.931 . S
C1499 C1494 1.370 . S
C1499 C1498 1.391 . S
C1500 N1469 1.435 . S
C1500 C1501 1.358 . S
C1500 C1505 1.371 . S
C1501 H1473 0.930 . S
C1501 C1500 1.358 . S
C1501 C1502 1.405 . S
C1502 H1474 0.932 . S
C1502 C1501 1.405 . S
C1502 C1503 1.383 . S
C1503 C1502 1.383 . S
C1503 C1504 1.393 . S
C1504 H1476 0.931 . S
C1504 C1503 1.393 . S
C1504 C1505 1.382 . S
C1505 H1475 0.929 . S
C1505 C1500 1.371 . S
C1505 C1504 1.382 . S
C1506 N1469 1.423 . S
C1506 C1507 1.362 . S
C1506 C1511 1.388 . S
C1507 H1477 0.929 . S
C1507 C1506 1.362 . S
C1507 C1508 1.376 . S
C1508 H1479 0.931 . S
C1508 C1507 1.376 . S
C1508 C1509 1.396 . S
C1509 C1508 1.396 . S
C1509 C1510 1.348 . S
C1509 C1527 1.472 . S
C1510 H1480 0.929 . S
C1510 C1509 1.348 . S
C1510 C1511 1.443 . S
C1511 H1478 0.932 . S
C1511 C1506 1.388 . S
C1511 C1510 1.443 . S
C1512 N1492 1.433 . S
C1512 C1513 1.363 . S
C1512 C1517 1.370 . S
C1513 H1481 0.929 . S
C1513 C1512 1.363 . S
C1513 C1514 1.385 . S
C1514 H1482 0.930 . S
C1514 C1513 1.385 . S
C1514 C1515 1.357 . S
C1515 C1514 1.357 . S
C1515 C1516 1.406 . S
C1516 H1483 0.929 . S
C1516 C1515 1.406 . S
C1516 C1517 1.391 . S
C1517 H1484 0.931 . S
C1517 C1512 1.370 . S
C1517 C1516 1.391 . S
C1518 N1492 1.435 . S
C1518 C1519 1.358 . S
C1518 C1523 1.371 . S
C1519 H1485 0.930 . S
C1519 C1518 1.358 . S
C1519 C1520 1.405 . S
C1520 H1486 0.932 . S
C1520 C1519 1.405 . S
C1520 C1521 1.383 . S
C1521 C1520 1.383 . S
C1521 C1522 1.393 . S
C1522 H1487 0.931 . S
C1522 C1521 1.393 . S
C1522 C1523 1.382 . S
C1523 H1488 0.929 . S
C1523 C1518 1.371 . S
C1523 C1522 1.382 . S
C1524 N1492 1.423 . S
C1524 C1525 1.362 . S
C1524 C1529 1.388 . S
C1525 H1489 0.929 . S
C1525 C1524 1.362 . S
C1525 C1526 1.376 . S
C1526 H1490 0.931 . S
C1526 C1525 1.376 . S
C1526 C1527 1.396 . S
C1527 C1509 1.472 . S
C1527 C1526 1.396 . S
C1527 C1528 1.348 . S
C1528 H1491 0.929 . S
C1528 C1527 1.348 . S
C1528 C1529 1.443 . S
C1529 H1493 0.932 . S
C1529 C1524 1.388 . S
C1529 C1528 1.443 . S
H1530 C1557 0.929 . S
N1531 C1556 1.433 . S
N1531 C1562 1.435 . S
N1531 C1568 1.423 . S
H1532 C1558 0.930 . S
H1533 C1561 0.931 . S
H1534 C1560 0.929 . S
H1535 C1563 0.930 . S
H1536 C1564 0.932 . S
H1537 C1567 0.929 . S
H1538 C1566 0.931 . S
H1539 C1569 0.929 . S
H1540 C1573 0.932 . S
H1541 C1570 0.931 . S
H1542 C1572 0.929 . S
H1543 C1575 0.929 . S
H1544 C1576 0.930 . S
H1545 C1578 0.929 . S
H1546 C1579 0.931 . S
H1547 C1581 0.930 . S
H1548 C1582 0.932 . S
H1549 C1584 0.931 . S
H1550 C1585 0.929 . S
H1551 C1587 0.929 . S
H1552 C1588 0.931 . S
H1553 C1590 0.929 . S
N1554 C1574 1.433 . S
N1554 C1580 1.435 . S
N1554 C1586 1.423 . S
H1555 C1591 0.932 . S
C1556 N1531 1.433 . S
C1556 C1557 1.363 . S
C1556 C1561 1.370 . S
C1557 H1530 0.929 . S
C1557 C1556 1.363 . S
C1557 C1558 1.385 . S
C1558 H1532 0.930 . S
C1558 C1557 1.385 . S
C1558 C1559 1.357 . S
C1559 C1558 1.357 . S
C1559 C1560 1.406 . S
C1560 H1534 0.929 . S
C1560 C1559 1.406 . S
C1560 C1561 1.391 . S
C1561 H1533 0.931 . S
C1561 C1556 1.370 . S
C1561 C1560 1.391 . S
C1562 N1531 1.435 . S
C1562 C1563 1.358 . S
C1562 C1567 1.371 . S
C1563 H1535 0.930 . S
C1563 C1562 1.358 . S
C1563 C1564 1.405 . S
C1564 H1536 0.932 . S
C1564 C1563 1.405 . S
C1564 C1565 1.383 . S
C1565 C1564 1.383 . S
C1565 C1566 1.393 . S
C1566 H1538 0.931 . S
C1566 C1565 1.393 . S
C1566 C1567 1.382 . S
C1567 H1537 0.929 . S
C1567 C1562 1.371 . S
C1567 C1566 1.382 . S
C1568 N1531 1.423 . S
C1568 C1569 1.362 . S
C1568 C1573 1.388 . S
C1569 H1539 0.929 . S
C1569 C1568 1.362 . S
C1569 C1570 1.376 . S
C1570 H1541 0.931 . S
C1570 C1569 1.376 . S
C1570 C1571 1.396 . S
C1571 C1570 1.396 . S
C1571 C1572 1.348 . S
C1571 C1589 1.472 . S
C1572 H1542 0.929 . S
C1572 C1571 1.348 . S
C1572 C1573 1.443 . S
C1573 H1540 0.932 . S
C1573 C1568 1.388 . S
C1573 C1572 1.443 . S
C1574 N1554 1.433 . S
C1574 C1575 1.363 . S
C1574 C1579 1.370 . S
C1575 H1543 0.929 . S
C1575 C1574 1.363 . S
C1575 C1576 1.385 . S
C1576 H1544 0.930 . S
C1576 C1575 1.385 . S
C1576 C1577 1.357 . S
C1577 C1576 1.357 . S
C1577 C1578 1.406 . S
C1578 H1545 0.929 . S
C1578 C1577 1.406 . S
C1578 C1579 1.391 . S
C1579 H1546 0.931 . S
C1579 C1574 1.370 . S
C1579 C1578 1.391 . S
C1580 N1554 1.435 . S
C1580 C1581 1.358 . S
C1580 C1585 1.371 . S
C1581 H1547 0.930 . S
C1581 C1580 1.358 . S
C1581 C1582 1.405 . S
C1582 H1548 0.932 . S
C1582 C1581 1.405 . S
C1582 C1583 1.383 . S
C1583 C1582 1.383 . S
C1583 C1584 1.393 . S
C1584 H1549 0.931 . S
C1584 C1583 1.393 . S
C1584 C1585 1.382 . S
C1585 H1550 0.929 . S
C1585 C1580 1.371 . S
C1585 C1584 1.382 . S
C1586 N1554 1.423 . S
C1586 C1587 1.362 . S
C1586 C1591 1.388 . S
C1587 H1551 0.929 . S
C1587 C1586 1.362 . S
C1587 C1588 1.376 . S
C1588 H1552 0.931 . S
C1588 C1587 1.376 . S
C1588 C1589 1.396 . S
C1589 C1571 1.472 . S
C1589 C1588 1.396 . S
C1589 C1590 1.348 . S
C1590 H1553 0.929 . S
C1590 C1589 1.348 . S
C1590 C1591 1.443 . S
C1591 H1555 0.932 . S
C1591 C1586 1.388 . S
C1591 C1590 1.443 . S
H1592 C1619 0.929 . S
N1593 C1618 1.433 . S
N1593 C1624 1.435 . S
N1593 C1630 1.423 . S
H1594 C1620 0.930 . S
H1595 C1623 0.931 . S
H1596 C1622 0.929 . S
H1597 C1625 0.930 . S
H1598 C1626 0.932 . S
H1599 C1629 0.929 . S
H1600 C1628 0.931 . S
H1601 C1631 0.929 . S
H1602 C1635 0.932 . S
H1603 C1632 0.931 . S
H1604 C1634 0.929 . S
H1605 C1637 0.929 . S
H1606 C1638 0.930 . S
H1607 C1640 0.929 . S
H1608 C1641 0.931 . S
H1609 C1643 0.930 . S
H1610 C1644 0.932 . S
H1611 C1646 0.931 . S
H1612 C1647 0.929 . S
H1613 C1649 0.929 . S
H1614 C1650 0.931 . S
H1615 C1652 0.929 . S
N1616 C1636 1.433 . S
N1616 C1642 1.435 . S
N1616 C1648 1.423 . S
H1617 C1653 0.932 . S
C1618 N1593 1.433 . S
C1618 C1619 1.363 . S
C1618 C1623 1.370 . S
C1619 H1592 0.929 . S
C1619 C1618 1.363 . S
C1619 C1620 1.385 . S
C1620 H1594 0.930 . S
C1620 C1619 1.385 . S
C1620 C1621 1.357 . S
C1621 C1620 1.357 . S
C1621 C1622 1.406 . S
C1622 H1596 0.929 . S
C1622 C1621 1.406 . S
C1622 C1623 1.391 . S
C1623 H1595 0.931 . S
C1623 C1618 1.370 . S
C1623 C1622 1.391 . S
C1624 N1593 1.435 . S
C1624 C1625 1.358 . S
C1624 C1629 1.371 . S
C1625 H1597 0.930 . S
C1625 C1624 1.358 . S
C1625 C1626 1.405 . S
C1626 H1598 0.932 . S
C1626 C1625 1.405 . S
C1626 C1627 1.383 . S
C1627 C1626 1.383 . S
C1627 C1628 1.393 . S
C1628 H1600 0.931 . S
C1628 C1627 1.393 . S
C1628 C1629 1.382 . S
C1629 H1599 0.929 . S
C1629 C1624 1.371 . S
C1629 C1628 1.382 . S
C1630 N1593 1.423 . S
C1630 C1631 1.362 . S
C1630 C1635 1.388 . S
C1631 H1601 0.929 . S
C1631 C1630 1.362 . S
C1631 C1632 1.376 . S
C1632 H1603 0.931 . S
C1632 C1631 1.376 . S
C1632 C1633 1.396 . S
C1633 C1632 1.396 . S
C1633 C1634 1.348 . S
C1633 C1651 1.472 . S
C1634 H1604 0.929 . S
C1634 C1633 1.348 . S
C1634 C1635 1.443 . S
C1635 H1602 0.932 . S
C1635 C1630 1.388 . S
C1635 C1634 1.443 . S
C1636 N1616 1.433 . S
C1636 C1637 1.363 . S
C1636 C1641 1.370 . S
C1637 H1605 0.929 . S
C1637 C1636 1.363 . S
C1637 C1638 1.385 . S
C1638 H1606 0.930 . S
C1638 C1637 1.385 . S
C1638 C1639 1.357 . S
C1639 C1638 1.357 . S
C1639 C1640 1.406 . S
C1640 H1607 0.929 . S
C1640 C1639 1.406 . S
C1640 C1641 1.391 . S
C1641 H1608 0.931 . S
C1641 C1636 1.370 . S
C1641 C1640 1.391 . S
C1642 N1616 1.435 . S
C1642 C1643 1.358 . S
C1642 C1647 1.371 . S
C1643 H1609 0.930 . S
C1643 C1642 1.358 . S
C1643 C1644 1.405 . S
C1644 H1610 0.932 . S
C1644 C1643 1.405 . S
C1644 C1645 1.383 . S
C1645 C1644 1.383 . S
C1645 C1646 1.393 . S
C1646 H1611 0.931 . S
C1646 C1645 1.393 . S
C1646 C1647 1.382 . S
C1647 H1612 0.929 . S
C1647 C1642 1.371 . S
C1647 C1646 1.382 . S
C1648 N1616 1.423 . S
C1648 C1649 1.362 . S
C1648 C1653 1.388 . S
C1649 H1613 0.929 . S
C1649 C1648 1.362 . S
C1649 C1650 1.376 . S
C1650 H1614 0.931 . S
C1650 C1649 1.376 . S
C1650 C1651 1.396 . S
C1651 C1633 1.472 . S
C1651 C1650 1.396 . S
C1651 C1652 1.348 . S
C1652 H1615 0.929 . S
C1652 C1651 1.348 . S
C1652 C1653 1.443 . S
C1653 H1617 0.932 . S
C1653 C1648 1.388 . S
C1653 C1652 1.443 . S
H1654 C1681 0.929 . S
N1655 C1680 1.433 . S
N1655 C1686 1.435 . S
N1655 C1692 1.423 . S
H1656 C1682 0.930 . S
H1657 C1685 0.931 . S
H1658 C1684 0.929 . S
H1659 C1687 0.930 . S
H1660 C1688 0.932 . S
H1661 C1691 0.929 . S
H1662 C1690 0.931 . S
H1663 C1693 0.929 . S
H1664 C1697 0.932 . S
H1665 C1694 0.931 . S
H1666 C1696 0.929 . S
H1667 C1699 0.929 . S
H1668 C1700 0.930 . S
H1669 C1702 0.929 . S
H1670 C1703 0.931 . S
H1671 C1705 0.930 . S
H1672 C1706 0.932 . S
H1673 C1708 0.931 . S
H1674 C1709 0.929 . S
H1675 C1711 0.929 . S
H1676 C1712 0.931 . S
H1677 C1714 0.929 . S
N1678 C1698 1.433 . S
N1678 C1704 1.435 . S
N1678 C1710 1.423 . S
H1679 C1715 0.932 . S
C1680 N1655 1.433 . S
C1680 C1681 1.363 . S
C1680 C1685 1.370 . S
C1681 H1654 0.929 . S
C1681 C1680 1.363 . S
C1681 C1682 1.385 . S
C1682 H1656 0.930 . S
C1682 C1681 1.385 . S
C1682 C1683 1.357 . S
C1683 C1682 1.357 . S
C1683 C1684 1.406 . S
C1684 H1658 0.929 . S
C1684 C1683 1.406 . S
C1684 C1685 1.391 . S
C1685 H1657 0.931 . S
C1685 C1680 1.370 . S
C1685 C1684 1.391 . S
C1686 N1655 1.435 . S
C1686 C1687 1.358 . S
C1686 C1691 1.371 . S
C1687 H1659 0.930 . S
C1687 C1686 1.358 . S
C1687 C1688 1.405 . S
C1688 H1660 0.932 . S
C1688 C1687 1.405 . S
C1688 C1689 1.383 . S
C1689 C1688 1.383 . S
C1689 C1690 1.393 . S
C1690 H1662 0.931 . S
C1690 C1689 1.393 . S
C1690 C1691 1.382 . S
C1691 H1661 0.929 . S
C1691 C1686 1.371 . S
C1691 C1690 1.382 . S
C1692 N1655 1.423 . S
C1692 C1693 1.362 . S
C1692 C1697 1.388 . S
C1693 H1663 0.929 . S
C1693 C1692 1.362 . S
C1693 C1694 1.376 . S
C1694 H1665 0.931 . S
C1694 C1693 1.376 . S
C1694 C1695 1.396 . S
C1695 C1694 1.396 . S
C1695 C1696 1.348 . S
C1695 C1713 1.472 . S
C1696 H1666 0.929 . S
C1696 C1695 1.348 . S
C1696 C1697 1.443 . S
C1697 H1664 0.932 . S
C1697 C1692 1.388 . S
C1697 C1696 1.443 . S
C1698 N1678 1.433 . S
C1698 C1699 1.363 . S
C1698 C1703 1.370 . S
C1699 H1667 0.929 . S
C1699 C1698 1.363 . S
C1699 C1700 1.385 . S
C1700 H1668 0.930 . S
C1700 C1699 1.385 . S
C1700 C1701 1.357 . S
C1701 C1700 1.357 . S
C1701 C1702 1.406 . S
C1702 H1669 0.929 . S
C1702 C1701 1.406 . S
C1702 C1703 1.391 . S
C1703 H1670 0.931 . S
C1703 C1698 1.370 . S
C1703 C1702 1.391 . S
C1704 N1678 1.435 . S
C1704 C1705 1.358 . S
C1704 C1709 1.371 . S
C1705 H1671 0.930 . S
C1705 C1704 1.358 . S
C1705 C1706 1.405 . S
C1706 H1672 0.932 . S
C1706 C1705 1.405 . S
C1706 C1707 1.383 . S
C1707 C1706 1.383 . S
C1707 C1708 1.393 . S
C1708 H1673 0.931 . S
C1708 C1707 1.393 . S
C1708 C1709 1.382 . S
C1709 H1674 0.929 . S
C1709 C1704 1.371 . S
C1709 C1708 1.382 . S
C1710 N1678 1.423 . S
C1710 C1711 1.362 . S
C1710 C1715 1.388 . S
C1711 H1675 0.929 . S
C1711 C1710 1.362 . S
C1711 C1712 1.376 . S
C1712 H1676 0.931 . S
C1712 C1711 1.376 . S
C1712 C1713 1.396 . S
C1713 C1695 1.472 . S
C1713 C1712 1.396 . S
C1713 C1714 1.348 . S
C1714 H1677 0.929 . S
C1714 C1713 1.348 . S
C1714 C1715 1.443 . S
C1715 H1679 0.932 . S
C1715 C1710 1.388 . S
C1715 C1714 1.443 . S
H1716 C1743 0.929 . S
N1717 C1742 1.433 . S
N1717 C1748 1.435 . S
N1717 C1754 1.423 . S
H1718 C1744 0.930 . S
H1719 C1747 0.931 . S
H1720 C1746 0.929 . S
H1721 C1749 0.930 . S
H1722 C1750 0.932 . S
H1723 C1753 0.929 . S
H1724 C1752 0.931 . S
H1725 C1755 0.929 . S
H1726 C1759 0.932 . S
H1727 C1756 0.931 . S
H1728 C1758 0.929 . S
H1729 C1761 0.929 . S
H1730 C1762 0.930 . S
H1731 C1764 0.929 . S
H1732 C1765 0.931 . S
H1733 C1767 0.930 . S
H1734 C1768 0.932 . S
H1735 C1770 0.931 . S
H1736 C1771 0.929 . S
H1737 C1773 0.929 . S
H1738 C1774 0.931 . S
H1739 C1776 0.929 . S
N1740 C1760 1.433 . S
N1740 C1766 1.435 . S
N1740 C1772 1.423 . S
H1741 C1777 0.932 . S
C1742 N1717 1.433 . S
C1742 C1743 1.363 . S
C1742 C1747 1.370 . S
C1743 H1716 0.929 . S
C1743 C1742 1.363 . S
C1743 C1744 1.385 . S
C1744 H1718 0.930 . S
C1744 C1743 1.385 . S
C1744 C1745 1.357 . S
C1745 C1744 1.357 . S
C1745 C1746 1.406 . S
C1746 H1720 0.929 . S
C1746 C1745 1.406 . S
C1746 C1747 1.391 . S
C1747 H1719 0.931 . S
C1747 C1742 1.370 . S
C1747 C1746 1.391 . S
C1748 N1717 1.435 . S
C1748 C1749 1.358 . S
C1748 C1753 1.371 . S
C1749 H1721 0.930 . S
C1749 C1748 1.358 . S
C1749 C1750 1.405 . S
C1750 H1722 0.932 . S
C1750 C1749 1.405 . S
C1750 C1751 1.383 . S
C1751 C1750 1.383 . S
C1751 C1752 1.393 . S
C1752 H1724 0.931 . S
C1752 C1751 1.393 . S
C1752 C1753 1.382 . S
C1753 H1723 0.929 . S
C1753 C1748 1.371 . S
C1753 C1752 1.382 . S
C1754 N1717 1.423 . S
C1754 C1755 1.362 . S
C1754 C1759 1.388 . S
C1755 H1725 0.929 . S
C1755 C1754 1.362 . S
C1755 C1756 1.376 . S
C1756 H1727 0.931 . S
C1756 C1755 1.376 . S
C1756 C1757 1.396 . S
C1757 C1756 1.396 . S
C1757 C1758 1.348 . S
C1757 C1775 1.472 . S
C1758 H1728 0.929 . S
C1758 C1757 1.348 . S
C1758 C1759 1.443 . S
C1759 H1726 0.932 . S
C1759 C1754 1.388 . S
C1759 C1758 1.443 . S
C1760 N1740 1.433 . S
C1760 C1761 1.363 . S
C1760 C1765 1.370 . S
C1761 H1729 0.929 . S
C1761 C1760 1.363 . S
C1761 C1762 1.385 . S
C1762 H1730 0.930 . S
C1762 C1761 1.385 . S
C1762 C1763 1.357 . S
C1763 C1762 1.357 . S
C1763 C1764 1.406 . S
C1764 H1731 0.929 . S
C1764 C1763 1.406 . S
C1764 C1765 1.391 . S
C1765 H1732 0.931 . S
C1765 C1760 1.370 . S
C1765 C1764 1.391 . S
C1766 N1740 1.435 . S
C1766 C1767 1.358 . S
C1766 C1771 1.371 . S
C1767 H1733 0.930 . S
C1767 C1766 1.358 . S
C1767 C1768 1.405 . S
C1768 H1734 0.932 . S
C1768 C1767 1.405 . S
C1768 C1769 1.383 . S
C1769 C1768 1.383 . S
C1769 C1770 1.393 . S
C1770 H1735 0.931 . S
C1770 C1769 1.393 . S
C1770 C1771 1.382 . S
C1771 H1736 0.929 . S
C1771 C1766 1.371 . S
C1771 C1770 1.382 . S
C1772 N1740 1.423 . S
C1772 C1773 1.362 . S
C1772 C1777 1.388 . S
C1773 H1737 0.929 . S
C1773 C1772 1.362 . S
C1773 C1774 1.376 . S
C1774 H1738 0.931 . S
C1774 C1773 1.376 . S
C1774 C1775 1.396 . S
C1775 C1757 1.472 . S
C1775 C1774 1.396 . S
C1775 C1776 1.348 . S
C1776 H1739 0.929 . S
C1776 C1775 1.348 . S
C1776 C1777 1.443 . S
C1777 H1741 0.932 . S
C1777 C1772 1.388 . S
C1777 C1776 1.443 . S
H1778 C1805 0.929 . S
N1779 C1804 1.433 . S
N1779 C1810 1.435 . S
N1779 C1816 1.423 . S
H1780 C1806 0.930 . S
H1781 C1809 0.931 . S
H1782 C1808 0.929 . S
H1783 C1811 0.930 . S
H1784 C1812 0.932 . S
H1785 C1815 0.929 . S
H1786 C1814 0.931 . S
H1787 C1817 0.929 . S
H1788 C1821 0.932 . S
H1789 C1818 0.931 . S
H1790 C1820 0.929 . S
H1791 C1823 0.929 . S
H1792 C1824 0.930 . S
H1793 C1826 0.929 . S
H1794 C1827 0.931 . S
H1795 C1829 0.930 . S
H1796 C1830 0.932 . S
H1797 C1832 0.931 . S
H1798 C1833 0.929 . S
H1799 C1835 0.929 . S
H1800 C1836 0.931 . S
H1801 C1838 0.929 . S
N1802 C1822 1.433 . S
N1802 C1828 1.435 . S
N1802 C1834 1.423 . S
H1803 C1839 0.932 . S
C1804 N1779 1.433 . S
C1804 C1805 1.363 . S
C1804 C1809 1.370 . S
C1805 H1778 0.929 . S
C1805 C1804 1.363 . S
C1805 C1806 1.385 . S
C1806 H1780 0.930 . S
C1806 C1805 1.385 . S
C1806 C1807 1.357 . S
C1807 C1806 1.357 . S
C1807 C1808 1.406 . S
C1808 H1782 0.929 . S
C1808 C1807 1.406 . S
C1808 C1809 1.391 . S
C1809 H1781 0.931 . S
C1809 C1804 1.370 . S
C1809 C1808 1.391 . S
C1810 N1779 1.435 . S
C1810 C1811 1.358 . S
C1810 C1815 1.371 . S
C1811 H1783 0.930 . S
C1811 C1810 1.358 . S
C1811 C1812 1.405 . S
C1812 H1784 0.932 . S
C1812 C1811 1.405 . S
C1812 C1813 1.383 . S
C1813 C1812 1.383 . S
C1813 C1814 1.393 . S
C1814 H1786 0.931 . S
C1814 C1813 1.393 . S
C1814 C1815 1.382 . S
C1815 H1785 0.929 . S
C1815 C1810 1.371 . S
C1815 C1814 1.382 . S
C1816 N1779 1.423 . S
C1816 C1817 1.362 . S
C1816 C1821 1.388 . S
C1817 H1787 0.929 . S
C1817 C1816 1.362 . S
C1817 C1818 1.376 . S
C1818 H1789 0.931 . S
C1818 C1817 1.376 . S
C1818 C1819 1.396 . S
C1819 C1818 1.396 . S
C1819 C1820 1.348 . S
C1819 C1837 1.472 . S
C1820 H1790 0.929 . S
C1820 C1819 1.348 . S
C1820 C1821 1.443 . S
C1821 H1788 0.932 . S
C1821 C1816 1.388 . S
C1821 C1820 1.443 . S
C1822 N1802 1.433 . S
C1822 C1823 1.363 . S
C1822 C1827 1.370 . S
C1823 H1791 0.929 . S
C1823 C1822 1.363 . S
C1823 C1824 1.385 . S
C1824 H1792 0.930 . S
C1824 C1823 1.385 . S
C1824 C1825 1.357 . S
C1825 C1824 1.357 . S
C1825 C1826 1.406 . S
C1826 H1793 0.929 . S
C1826 C1825 1.406 . S
C1826 C1827 1.391 . S
C1827 H1794 0.931 . S
C1827 C1822 1.370 . S
C1827 C1826 1.391 . S
C1828 N1802 1.435 . S
C1828 C1829 1.358 . S
C1828 C1833 1.371 . S
C1829 H1795 0.930 . S
C1829 C1828 1.358 . S
C1829 C1830 1.405 . S
C1830 H1796 0.932 . S
C1830 C1829 1.405 . S
C1830 C1831 1.383 . S
C1831 C1830 1.383 . S
C1831 C1832 1.393 . S
C1832 H1797 0.931 . S
C1832 C1831 1.393 . S
C1832 C1833 1.382 . S
C1833 H1798 0.929 . S
C1833 C1828 1.371 . S
C1833 C1832 1.382 . S
C1834 N1802 1.423 . S
C1834 C1835 1.362 . S
C1834 C1839 1.388 . S
C1835 H1799 0.929 . S
C1835 C1834 1.362 . S
C1835 C1836 1.376 . S
C1836 H1800 0.931 . S
C1836 C1835 1.376 . S
C1836 C1837 1.396 . S
C1837 C1819 1.472 . S
C1837 C1836 1.396 . S
C1837 C1838 1.348 . S
C1838 H1801 0.929 . S
C1838 C1837 1.348 . S
C1838 C1839 1.443 . S
C1839 H1803 0.932 . S
C1839 C1834 1.388 . S
C1839 C1838 1.443 . S
C1840 C1841 1.349 . S
C1840 C1842 1.327 . S
C1840 H1865 0.950 . S
C1841 C1840 1.349 . S
C1841 C1857 1.349 . S
C1842 C1840 1.327 . S
C1842 C1861 1.429 . S
C1842 H1866 0.950 . S
C1843 C1860 1.574 . S
C1843 C1862 1.368 . S
C1843 H1867 0.949 . S
H1844 C1848 0.949 . S
C1845 C1846 1.349 . S
C1845 C1847 1.327 . S
C1845 H1868 0.950 . S
C1846 C1845 1.349 . S
C1846 C1858 1.349 . S
C1847 C1845 1.327 . S
C1847 C1863 1.429 . S
C1847 H1869 0.950 . S
C1848 H1844 0.949 . S
C1848 C1856 1.574 . S
C1848 C1864 1.368 . S
H1849 C1857 0.950 . S
H1850 C1855 0.950 . S
H1851 C1856 0.949 . S
H1852 C1858 0.950 . S
H1853 C1859 0.950 . S
H1854 C1860 0.949 . S
C1855 H1850 0.950 . S
C1855 C1857 1.327 . S
C1855 C1861 1.429 . S
C1856 C1848 1.574 . S
C1856 H1851 0.949 . S
C1856 C1862 1.368 . S
C1857 C1841 1.349 . S
C1857 H1849 0.950 . S
C1857 C1855 1.327 . S
C1858 C1846 1.349 . S
C1858 H1852 0.950 . S
C1858 C1859 1.327 . S
C1859 H1853 0.950 . S
C1859 C1858 1.327 . S
C1859 C1863 1.429 . S
C1860 C1843 1.574 . S
C1860 H1854 0.949 . S
C1860 C1864 1.368 . S
C1861 C1842 1.429 . S
C1861 C1855 1.429 . S
C1861 C1862 1.523 . S
C1862 C1843 1.368 . S
C1862 C1856 1.368 . S
C1862 C1861 1.523 . S
C1863 C1847 1.429 . S
C1863 C1859 1.429 . S
C1863 C1864 1.523 . S
C1864 C1848 1.368 . S
C1864 C1860 1.368 . S
C1864 C1863 1.523 . S
H1865 C1840 0.950 . S
H1866 C1842 0.950 . S
H1867 C1843 0.949 . S
H1868 C1845 0.950 . S
H1869 C1847 0.950 . S
C1870 C1871 1.349 . S
C1870 C1872 1.327 . S
C1870 H1895 0.950 . S
C1871 C1870 1.349 . S
C1871 C1887 1.349 . S
C1872 C1870 1.327 . S
C1872 C1891 1.429 . S
C1872 H1896 0.950 . S
C1873 C1890 1.574 . S
C1873 C1892 1.368 . S
C1873 H1897 0.949 . S
H1874 C1878 0.949 . S
C1875 C1876 1.349 . S
C1875 C1877 1.327 . S
C1875 H1898 0.950 . S
C1876 C1875 1.349 . S
C1876 C1888 1.349 . S
C1877 C1875 1.327 . S
C1877 C1893 1.429 . S
C1877 H1899 0.950 . S
C1878 H1874 0.949 . S
C1878 C1886 1.574 . S
C1878 C1894 1.368 . S
H1879 C1887 0.950 . S
H1880 C1885 0.950 . S
H1881 C1886 0.949 . S
H1882 C1888 0.950 . S
H1883 C1889 0.950 . S
H1884 C1890 0.949 . S
C1885 H1880 0.950 . S
C1885 C1887 1.327 . S
C1885 C1891 1.429 . S
C1886 C1878 1.574 . S
C1886 H1881 0.949 . S
C1886 C1892 1.368 . S
C1887 C1871 1.349 . S
C1887 H1879 0.950 . S
C1887 C1885 1.327 . S
C1888 C1876 1.349 . S
C1888 H1882 0.950 . S
C1888 C1889 1.327 . S
C1889 H1883 0.950 . S
C1889 C1888 1.327 . S
C1889 C1893 1.429 . S
C1890 C1873 1.574 . S
C1890 H1884 0.949 . S
C1890 C1894 1.368 . S
C1891 C1872 1.429 . S
C1891 C1885 1.429 . S
C1891 C1892 1.523 . S
C1892 C1873 1.368 . S
C1892 C1886 1.368 . S
C1892 C1891 1.523 . S
C1893 C1877 1.429 . S
C1893 C1889 1.429 . S
C1893 C1894 1.523 . S
C1894 C1878 1.368 . S
C1894 C1890 1.368 . S
C1894 C1893 1.523 . S
H1895 C1870 0.950 . S
H1896 C1872 0.950 . S
H1897 C1873 0.949 . S
H1898 C1875 0.950 . S
H1899 C1877 0.950 . S
C1900 C1901 1.349 . S
C1900 C1902 1.327 . S
C1900 H1925 0.950 . S
C1901 C1900 1.349 . S
C1901 C1917 1.349 . S
C1902 C1900 1.327 . S
C1902 C1921 1.429 . S
C1902 H1926 0.950 . S
C1903 C1920 1.574 . S
C1903 C1922 1.368 . S
C1903 H1927 0.949 . S
H1904 C1908 0.949 . S
C1905 C1906 1.349 . S
C1905 C1907 1.327 . S
C1905 H1928 0.950 . S
C1906 C1905 1.349 . S
C1906 C1918 1.349 . S
C1907 C1905 1.327 . S
C1907 C1923 1.429 . S
C1907 H1929 0.950 . S
C1908 H1904 0.949 . S
C1908 C1916 1.574 . S
C1908 C1924 1.368 . S
H1909 C1917 0.950 . S
H1910 C1915 0.950 . S
H1911 C1916 0.949 . S
H1912 C1918 0.950 . S
H1913 C1919 0.950 . S
H1914 C1920 0.949 . S
C1915 H1910 0.950 . S
C1915 C1917 1.327 . S
C1915 C1921 1.429 . S
C1916 C1908 1.574 . S
C1916 H1911 0.949 . S
C1916 C1922 1.368 . S
C1917 C1901 1.349 . S
C1917 H1909 0.950 . S
C1917 C1915 1.327 . S
C1918 C1906 1.349 . S
C1918 H1912 0.950 . S
C1918 C1919 1.327 . S
C1919 H1913 0.950 . S
C1919 C1918 1.327 . S
C1919 C1923 1.429 . S
C1920 C1903 1.574 . S
C1920 H1914 0.949 . S
C1920 C1924 1.368 . S
C1921 C1902 1.429 . S
C1921 C1915 1.429 . S
C1921 C1922 1.523 . S
C1922 C1903 1.368 . S
C1922 C1916 1.368 . S
C1922 C1921 1.523 . S
C1923 C1907 1.429 . S
C1923 C1919 1.429 . S
C1923 C1924 1.523 . S
C1924 C1908 1.368 . S
C1924 C1920 1.368 . S
C1924 C1923 1.523 . S
H1925 C1900 0.950 . S
H1926 C1902 0.950 . S
H1927 C1903 0.949 . S
H1928 C1905 0.950 . S
H1929 C1907 0.950 . S
C1930 C1931 1.349 . S
C1930 C1932 1.327 . S
C1930 H1955 0.950 . S
C1931 C1930 1.349 . S
C1931 C1947 1.349 . S
C1932 C1930 1.327 . S
C1932 C1951 1.429 . S
C1932 H1956 0.950 . S
C1933 C1950 1.574 . S
C1933 C1952 1.368 . S
C1933 H1957 0.949 . S
H1934 C1938 0.949 . S
C1935 C1936 1.349 . S
C1935 C1937 1.327 . S
C1935 H1958 0.950 . S
C1936 C1935 1.349 . S
C1936 C1948 1.349 . S
C1937 C1935 1.327 . S
C1937 C1953 1.429 . S
C1937 H1959 0.950 . S
C1938 H1934 0.949 . S
C1938 C1946 1.574 . S
C1938 C1954 1.368 . S
H1939 C1947 0.950 . S
H1940 C1945 0.950 . S
H1941 C1946 0.949 . S
H1942 C1948 0.950 . S
H1943 C1949 0.950 . S
H1944 C1950 0.949 . S
C1945 H1940 0.950 . S
C1945 C1947 1.327 . S
C1945 C1951 1.429 . S
C1946 C1938 1.574 . S
C1946 H1941 0.949 . S
C1946 C1952 1.368 . S
C1947 C1931 1.349 . S
C1947 H1939 0.950 . S
C1947 C1945 1.327 . S
C1948 C1936 1.349 . S
C1948 H1942 0.950 . S
C1948 C1949 1.327 . S
C1949 H1943 0.950 . S
C1949 C1948 1.327 . S
C1949 C1953 1.429 . S
C1950 C1933 1.574 . S
C1950 H1944 0.949 . S
C1950 C1954 1.368 . S
C1951 C1932 1.429 . S
C1951 C1945 1.429 . S
C1951 C1952 1.523 . S
C1952 C1933 1.368 . S
C1952 C1946 1.368 . S
C1952 C1951 1.523 . S
C1953 C1937 1.429 . S
C1953 C1949 1.429 . S
C1953 C1954 1.523 . S
C1954 C1938 1.368 . S
C1954 C1950 1.368 . S
C1954 C1953 1.523 . S
H1955 C1930 0.950 . S
H1956 C1932 0.950 . S
H1957 C1933 0.949 . S
H1958 C1935 0.950 . S
H1959 C1937 0.950 . S
C1960 C1961 1.349 . S
C1960 C1962 1.327 . S
C1960 H1985 0.950 . S
C1961 C1960 1.349 . S
C1961 C1977 1.349 . S
C1962 C1960 1.327 . S
C1962 C1981 1.429 . S
C1962 H1986 0.950 . S
C1963 C1980 1.574 . S
C1963 C1982 1.368 . S
C1963 H1987 0.949 . S
H1964 C1968 0.949 . S
C1965 C1966 1.349 . S
C1965 C1967 1.327 . S
C1965 H1988 0.950 . S
C1966 C1965 1.349 . S
C1966 C1978 1.349 . S
C1967 C1965 1.327 . S
C1967 C1983 1.429 . S
C1967 H1989 0.950 . S
C1968 H1964 0.949 . S
C1968 C1976 1.574 . S
C1968 C1984 1.368 . S
H1969 C1977 0.950 . S
H1970 C1975 0.950 . S
H1971 C1976 0.949 . S
H1972 C1978 0.950 . S
H1973 C1979 0.950 . S
H1974 C1980 0.949 . S
C1975 H1970 0.950 . S
C1975 C1977 1.327 . S
C1975 C1981 1.429 . S
C1976 C1968 1.574 . S
C1976 H1971 0.949 . S
C1976 C1982 1.368 . S
C1977 C1961 1.349 . S
C1977 H1969 0.950 . S
C1977 C1975 1.327 . S
C1978 C1966 1.349 . S
C1978 H1972 0.950 . S
C1978 C1979 1.327 . S
C1979 H1973 0.950 . S
C1979 C1978 1.327 . S
C1979 C1983 1.429 . S
C1980 C1963 1.574 . S
C1980 H1974 0.949 . S
C1980 C1984 1.368 . S
C1981 C1962 1.429 . S
C1981 C1975 1.429 . S
C1981 C1982 1.523 . S
C1982 C1963 1.368 . S
C1982 C1976 1.368 . S
C1982 C1981 1.523 . S
C1983 C1967 1.429 . S
C1983 C1979 1.429 . S
C1983 C1984 1.523 . S
C1984 C1968 1.368 . S
C1984 C1980 1.368 . S
C1984 C1983 1.523 . S
H1985 C1960 0.950 . S
H1986 C1962 0.950 . S
H1987 C1963 0.949 . S
H1988 C1965 0.950 . S
H1989 C1967 0.950 . S
C1990 C1991 1.349 . S
C1990 C1992 1.327 . S
C1990 H2015 0.950 . S
C1991 C1990 1.349 . S
C1991 C2007 1.349 . S
C1992 C1990 1.327 . S
C1992 C2011 1.429 . S
C1992 H2016 0.950 . S
C1993 C2010 1.574 . S
C1993 C2012 1.368 . S
C1993 H2017 0.949 . S
H1994 C1998 0.949 . S
C1995 C1996 1.349 . S
C1995 C1997 1.327 . S
C1995 H2018 0.950 . S
C1996 C1995 1.349 . S
C1996 C2008 1.349 . S
C1997 C1995 1.327 . S
C1997 C2013 1.429 . S
C1997 H2019 0.950 . S
C1998 H1994 0.949 . S
C1998 C2006 1.574 . S
C1998 C2014 1.368 . S
H1999 C2007 0.950 . S
H2000 C2005 0.950 . S
H2001 C2006 0.949 . S
H2002 C2008 0.950 . S
H2003 C2009 0.950 . S
H2004 C2010 0.949 . S
C2005 H2000 0.950 . S
C2005 C2007 1.327 . S
C2005 C2011 1.429 . S
C2006 C1998 1.574 . S
C2006 H2001 0.949 . S
C2006 C2012 1.368 . S
C2007 C1991 1.349 . S
C2007 H1999 0.950 . S
C2007 C2005 1.327 . S
C2008 C1996 1.349 . S
C2008 H2002 0.950 . S
C2008 C2009 1.327 . S
C2009 H2003 0.950 . S
C2009 C2008 1.327 . S
C2009 C2013 1.429 . S
C2010 C1993 1.574 . S
C2010 H2004 0.949 . S
C2010 C2014 1.368 . S
C2011 C1992 1.429 . S
C2011 C2005 1.429 . S
C2011 C2012 1.523 . S
C2012 C1993 1.368 . S
C2012 C2006 1.368 . S
C2012 C2011 1.523 . S
C2013 C1997 1.429 . S
C2013 C2009 1.429 . S
C2013 C2014 1.523 . S
C2014 C1998 1.368 . S
C2014 C2010 1.368 . S
C2014 C2013 1.523 . S
H2015 C1990 0.950 . S
H2016 C1992 0.950 . S
H2017 C1993 0.949 . S
H2018 C1995 0.950 . S
H2019 C1997 0.950 . S
C2020 C2021 1.349 . S
C2020 C2022 1.327 . S
C2020 H2045 0.950 . S
C2021 C2020 1.349 . S
C2021 C2037 1.349 . S
C2022 C2020 1.327 . S
C2022 C2041 1.429 . S
C2022 H2046 0.950 . S
C2023 C2040 1.574 . S
C2023 C2042 1.368 . S
C2023 H2047 0.949 . S
H2024 C2028 0.949 . S
C2025 C2026 1.349 . S
C2025 C2027 1.327 . S
C2025 H2048 0.950 . S
C2026 C2025 1.349 . S
C2026 C2038 1.349 . S
C2027 C2025 1.327 . S
C2027 C2043 1.429 . S
C2027 H2049 0.950 . S
C2028 H2024 0.949 . S
C2028 C2036 1.574 . S
C2028 C2044 1.368 . S
H2029 C2037 0.950 . S
H2030 C2035 0.950 . S
H2031 C2036 0.949 . S
H2032 C2038 0.950 . S
H2033 C2039 0.950 . S
H2034 C2040 0.949 . S
C2035 H2030 0.950 . S
C2035 C2037 1.327 . S
C2035 C2041 1.429 . S
C2036 C2028 1.574 . S
C2036 H2031 0.949 . S
C2036 C2042 1.368 . S
C2037 C2021 1.349 . S
C2037 H2029 0.950 . S
C2037 C2035 1.327 . S
C2038 C2026 1.349 . S
C2038 H2032 0.950 . S
C2038 C2039 1.327 . S
C2039 H2033 0.950 . S
C2039 C2038 1.327 . S
C2039 C2043 1.429 . S
C2040 C2023 1.574 . S
C2040 H2034 0.949 . S
C2040 C2044 1.368 . S
C2041 C2022 1.429 . S
C2041 C2035 1.429 . S
C2041 C2042 1.523 . S
C2042 C2023 1.368 . S
C2042 C2036 1.368 . S
C2042 C2041 1.523 . S
C2043 C2027 1.429 . S
C2043 C2039 1.429 . S
C2043 C2044 1.523 . S
C2044 C2028 1.368 . S
C2044 C2040 1.368 . S
C2044 C2043 1.523 . S
H2045 C2020 0.950 . S
H2046 C2022 0.950 . S
H2047 C2023 0.949 . S
H2048 C2025 0.950 . S
H2049 C2027 0.950 . S
C2050 C2051 1.349 . S
C2050 C2052 1.327 . S
C2050 H2075 0.950 . S
C2051 C2050 1.349 . S
C2051 C2067 1.349 . S
C2052 C2050 1.327 . S
C2052 C2071 1.429 . S
C2052 H2076 0.950 . S
C2053 C2070 1.574 . S
C2053 C2072 1.368 . S
C2053 H2077 0.949 . S
H2054 C2058 0.949 . S
C2055 C2056 1.349 . S
C2055 C2057 1.327 . S
C2055 H2078 0.950 . S
C2056 C2055 1.349 . S
C2056 C2068 1.349 . S
C2057 C2055 1.327 . S
C2057 C2073 1.429 . S
C2057 H2079 0.950 . S
C2058 H2054 0.949 . S
C2058 C2066 1.574 . S
C2058 C2074 1.368 . S
H2059 C2067 0.950 . S
H2060 C2065 0.950 . S
H2061 C2066 0.949 . S
H2062 C2068 0.950 . S
H2063 C2069 0.950 . S
H2064 C2070 0.949 . S
C2065 H2060 0.950 . S
C2065 C2067 1.327 . S
C2065 C2071 1.429 . S
C2066 C2058 1.574 . S
C2066 H2061 0.949 . S
C2066 C2072 1.368 . S
C2067 C2051 1.349 . S
C2067 H2059 0.950 . S
C2067 C2065 1.327 . S
C2068 C2056 1.349 . S
C2068 H2062 0.950 . S
C2068 C2069 1.327 . S
C2069 H2063 0.950 . S
C2069 C2068 1.327 . S
C2069 C2073 1.429 . S
C2070 C2053 1.574 . S
C2070 H2064 0.949 . S
C2070 C2074 1.368 . S
C2071 C2052 1.429 . S
C2071 C2065 1.429 . S
C2071 C2072 1.523 . S
C2072 C2053 1.368 . S
C2072 C2066 1.368 . S
C2072 C2071 1.523 . S
C2073 C2057 1.429 . S
C2073 C2069 1.429 . S
C2073 C2074 1.523 . S
C2074 C2058 1.368 . S
C2074 C2070 1.368 . S
C2074 C2073 1.523 . S
H2075 C2050 0.950 . S
H2076 C2052 0.950 . S
H2077 C2053 0.949 . S
H2078 C2055 0.950 . S
H2079 C2057 0.950 . S
C2080 C2081 1.349 . S
C2080 C2082 1.327 . S
C2080 H2105 0.950 . S
C2081 C2080 1.349 . S
C2081 C2097 1.349 . S
C2082 C2080 1.327 . S
C2082 C2101 1.429 . S
C2082 H2106 0.950 . S
C2083 C2100 1.574 . S
C2083 C2102 1.368 . S
C2083 H2107 0.949 . S
H2084 C2088 0.949 . S
C2085 C2086 1.349 . S
C2085 C2087 1.327 . S
C2085 H2108 0.950 . S
C2086 C2085 1.349 . S
C2086 C2098 1.349 . S
C2087 C2085 1.327 . S
C2087 C2103 1.429 . S
C2087 H2109 0.950 . S
C2088 H2084 0.949 . S
C2088 C2096 1.574 . S
C2088 C2104 1.368 . S
H2089 C2097 0.950 . S
H2090 C2095 0.950 . S
H2091 C2096 0.949 . S
H2092 C2098 0.950 . S
H2093 C2099 0.950 . S
H2094 C2100 0.949 . S
C2095 H2090 0.950 . S
C2095 C2097 1.327 . S
C2095 C2101 1.429 . S
C2096 C2088 1.574 . S
C2096 H2091 0.949 . S
C2096 C2102 1.368 . S
C2097 C2081 1.349 . S
C2097 H2089 0.950 . S
C2097 C2095 1.327 . S
C2098 C2086 1.349 . S
C2098 H2092 0.950 . S
C2098 C2099 1.327 . S
C2099 H2093 0.950 . S
C2099 C2098 1.327 . S
C2099 C2103 1.429 . S
C2100 C2083 1.574 . S
C2100 H2094 0.949 . S
C2100 C2104 1.368 . S
C2101 C2082 1.429 . S
C2101 C2095 1.429 . S
C2101 C2102 1.523 . S
C2102 C2083 1.368 . S
C2102 C2096 1.368 . S
C2102 C2101 1.523 . S
C2103 C2087 1.429 . S
C2103 C2099 1.429 . S
C2103 C2104 1.523 . S
C2104 C2088 1.368 . S
C2104 C2100 1.368 . S
C2104 C2103 1.523 . S
H2105 C2080 0.950 . S
H2106 C2082 0.950 . S
H2107 C2083 0.949 . S
H2108 C2085 0.950 . S
H2109 C2087 0.950 . S
C2110 C2111 1.349 . S
C2110 C2112 1.327 . S
C2110 H2135 0.950 . S
C2111 C2110 1.349 . S
C2111 C2127 1.349 . S
C2112 C2110 1.327 . S
C2112 C2131 1.429 . S
C2112 H2136 0.950 . S
C2113 C2130 1.574 . S
C2113 C2132 1.368 . S
C2113 H2137 0.949 . S
H2114 C2118 0.949 . S
C2115 C2116 1.349 . S
C2115 C2117 1.327 . S
C2115 H2138 0.950 . S
C2116 C2115 1.349 . S
C2116 C2128 1.349 . S
C2117 C2115 1.327 . S
C2117 C2133 1.429 . S
C2117 H2139 0.950 . S
C2118 H2114 0.949 . S
C2118 C2126 1.574 . S
C2118 C2134 1.368 . S
H2119 C2127 0.950 . S
H2120 C2125 0.950 . S
H2121 C2126 0.949 . S
H2122 C2128 0.950 . S
H2123 C2129 0.950 . S
H2124 C2130 0.949 . S
C2125 H2120 0.950 . S
C2125 C2127 1.327 . S
C2125 C2131 1.429 . S
C2126 C2118 1.574 . S
C2126 H2121 0.949 . S
C2126 C2132 1.368 . S
C2127 C2111 1.349 . S
C2127 H2119 0.950 . S
C2127 C2125 1.327 . S
C2128 C2116 1.349 . S
C2128 H2122 0.950 . S
C2128 C2129 1.327 . S
C2129 H2123 0.950 . S
C2129 C2128 1.327 . S
C2129 C2133 1.429 . S
C2130 C2113 1.574 . S
C2130 H2124 0.949 . S
C2130 C2134 1.368 . S
C2131 C2112 1.429 . S
C2131 C2125 1.429 . S
C2131 C2132 1.523 . S
C2132 C2113 1.368 . S
C2132 C2126 1.368 . S
C2132 C2131 1.523 . S
C2133 C2117 1.429 . S
C2133 C2129 1.429 . S
C2133 C2134 1.523 . S
C2134 C2118 1.368 . S
C2134 C2130 1.368 . S
C2134 C2133 1.523 . S
H2135 C2110 0.950 . S
H2136 C2112 0.950 . S
H2137 C2113 0.949 . S
H2138 C2115 0.950 . S
H2139 C2117 0.950 . S
C2140 C2141 1.349 . S
C2140 C2142 1.327 . S
C2140 H2165 0.950 . S
C2141 C2140 1.349 . S
C2141 C2157 1.349 . S
C2142 C2140 1.327 . S
C2142 C2161 1.429 . S
C2142 H2166 0.950 . S
C2143 C2160 1.574 . S
C2143 C2162 1.368 . S
C2143 H2167 0.949 . S
H2144 C2148 0.949 . S
C2145 C2146 1.349 . S
C2145 C2147 1.327 . S
C2145 H2168 0.950 . S
C2146 C2145 1.349 . S
C2146 C2158 1.349 . S
C2147 C2145 1.327 . S
C2147 C2163 1.429 . S
C2147 H2169 0.950 . S
C2148 H2144 0.949 . S
C2148 C2156 1.574 . S
C2148 C2164 1.368 . S
H2149 C2157 0.950 . S
H2150 C2155 0.950 . S
H2151 C2156 0.949 . S
H2152 C2158 0.950 . S
H2153 C2159 0.950 . S
H2154 C2160 0.949 . S
C2155 H2150 0.950 . S
C2155 C2157 1.327 . S
C2155 C2161 1.429 . S
C2156 C2148 1.574 . S
C2156 H2151 0.949 . S
C2156 C2162 1.368 . S
C2157 C2141 1.349 . S
C2157 H2149 0.950 . S
C2157 C2155 1.327 . S
C2158 C2146 1.349 . S
C2158 H2152 0.950 . S
C2158 C2159 1.327 . S
C2159 H2153 0.950 . S
C2159 C2158 1.327 . S
C2159 C2163 1.429 . S
C2160 C2143 1.574 . S
C2160 H2154 0.949 . S
C2160 C2164 1.368 . S
C2161 C2142 1.429 . S
C2161 C2155 1.429 . S
C2161 C2162 1.523 . S
C2162 C2143 1.368 . S
C2162 C2156 1.368 . S
C2162 C2161 1.523 . S
C2163 C2147 1.429 . S
C2163 C2159 1.429 . S
C2163 C2164 1.523 . S
C2164 C2148 1.368 . S
C2164 C2160 1.368 . S
C2164 C2163 1.523 . S
H2165 C2140 0.950 . S
H2166 C2142 0.950 . S
H2167 C2143 0.949 . S
H2168 C2145 0.950 . S
H2169 C2147 0.950 . S
C2170 C2171 1.349 . S
C2170 C2172 1.327 . S
C2170 H2195 0.950 . S
C2171 C2170 1.349 . S
C2171 C2187 1.349 . S
C2172 C2170 1.327 . S
C2172 C2191 1.429 . S
C2172 H2196 0.950 . S
C2173 C2190 1.574 . S
C2173 C2192 1.368 . S
C2173 H2197 0.949 . S
H2174 C2178 0.949 . S
C2175 C2176 1.349 . S
C2175 C2177 1.327 . S
C2175 H2198 0.950 . S
C2176 C2175 1.349 . S
C2176 C2188 1.349 . S
C2177 C2175 1.327 . S
C2177 C2193 1.429 . S
C2177 H2199 0.950 . S
C2178 H2174 0.949 . S
C2178 C2186 1.574 . S
C2178 C2194 1.368 . S
H2179 C2187 0.950 . S
H2180 C2185 0.950 . S
H2181 C2186 0.949 . S
H2182 C2188 0.950 . S
H2183 C2189 0.950 . S
H2184 C2190 0.949 . S
C2185 H2180 0.950 . S
C2185 C2187 1.327 . S
C2185 C2191 1.429 . S
C2186 C2178 1.574 . S
C2186 H2181 0.949 . S
C2186 C2192 1.368 . S
C2187 C2171 1.349 . S
C2187 H2179 0.950 . S
C2187 C2185 1.327 . S
C2188 C2176 1.349 . S
C2188 H2182 0.950 . S
C2188 C2189 1.327 . S
C2189 H2183 0.950 . S
C2189 C2188 1.327 . S
C2189 C2193 1.429 . S
C2190 C2173 1.574 . S
C2190 H2184 0.949 . S
C2190 C2194 1.368 . S
C2191 C2172 1.429 . S
C2191 C2185 1.429 . S
C2191 C2192 1.523 . S
C2192 C2173 1.368 . S
C2192 C2186 1.368 . S
C2192 C2191 1.523 . S
C2193 C2177 1.429 . S
C2193 C2189 1.429 . S
C2193 C2194 1.523 . S
C2194 C2178 1.368 . S
C2194 C2190 1.368 . S
C2194 C2193 1.523 . S
H2195 C2170 0.950 . S
H2196 C2172 0.950 . S
H2197 C2173 0.949 . S
H2198 C2175 0.950 . S
H2199 C2177 0.950 . S
C2200 C2201 1.349 . S
C2200 C2202 1.327 . S
C2200 H2225 0.950 . S
C2201 C2200 1.349 . S
C2201 C2217 1.349 . S
C2202 C2200 1.327 . S
C2202 C2221 1.429 . S
C2202 H2226 0.950 . S
C2203 C2220 1.574 . S
C2203 C2222 1.368 . S
C2203 H2227 0.949 . S
H2204 C2208 0.949 . S
C2205 C2206 1.349 . S
C2205 C2207 1.327 . S
C2205 H2228 0.950 . S
C2206 C2205 1.349 . S
C2206 C2218 1.349 . S
C2207 C2205 1.327 . S
C2207 C2223 1.429 . S
C2207 H2229 0.950 . S
C2208 H2204 0.949 . S
C2208 C2216 1.574 . S
C2208 C2224 1.368 . S
H2209 C2217 0.950 . S
H2210 C2215 0.950 . S
H2211 C2216 0.949 . S
H2212 C2218 0.950 . S
H2213 C2219 0.950 . S
H2214 C2220 0.949 . S
C2215 H2210 0.950 . S
C2215 C2217 1.327 . S
C2215 C2221 1.429 . S
C2216 C2208 1.574 . S
C2216 H2211 0.949 . S
C2216 C2222 1.368 . S
C2217 C2201 1.349 . S
C2217 H2209 0.950 . S
C2217 C2215 1.327 . S
C2218 C2206 1.349 . S
C2218 H2212 0.950 . S
C2218 C2219 1.327 . S
C2219 H2213 0.950 . S
C2219 C2218 1.327 . S
C2219 C2223 1.429 . S
C2220 C2203 1.574 . S
C2220 H2214 0.949 . S
C2220 C2224 1.368 . S
C2221 C2202 1.429 . S
C2221 C2215 1.429 . S
C2221 C2222 1.523 . S
C2222 C2203 1.368 . S
C2222 C2216 1.368 . S
C2222 C2221 1.523 . S
C2223 C2207 1.429 . S
C2223 C2219 1.429 . S
C2223 C2224 1.523 . S
C2224 C2208 1.368 . S
C2224 C2220 1.368 . S
C2224 C2223 1.523 . S
H2225 C2200 0.950 . S
H2226 C2202 0.950 . S
H2227 C2203 0.949 . S
H2228 C2205 0.950 . S
H2229 C2207 0.950 . S
C2230 C2231 1.349 . S
C2230 C2232 1.327 . S
C2230 H2255 0.950 . S
C2231 C2230 1.349 . S
C2231 C2247 1.349 . S
C2232 C2230 1.327 . S
C2232 C2251 1.429 . S
C2232 H2256 0.950 . S
C2233 C2250 1.574 . S
C2233 C2252 1.368 . S
C2233 H2257 0.949 . S
H2234 C2238 0.949 . S
C2235 C2236 1.349 . S
C2235 C2237 1.327 . S
C2235 H2258 0.950 . S
C2236 C2235 1.349 . S
C2236 C2248 1.349 . S
C2237 C2235 1.327 . S
C2237 C2253 1.429 . S
C2237 H2259 0.950 . S
C2238 H2234 0.949 . S
C2238 C2246 1.574 . S
C2238 C2254 1.368 . S
H2239 C2247 0.950 . S
H2240 C2245 0.950 . S
H2241 C2246 0.949 . S
H2242 C2248 0.950 . S
H2243 C2249 0.950 . S
H2244 C2250 0.949 . S
C2245 H2240 0.950 . S
C2245 C2247 1.327 . S
C2245 C2251 1.429 . S
C2246 C2238 1.574 . S
C2246 H2241 0.949 . S
C2246 C2252 1.368 . S
C2247 C2231 1.349 . S
C2247 H2239 0.950 . S
C2247 C2245 1.327 . S
C2248 C2236 1.349 . S
C2248 H2242 0.950 . S
C2248 C2249 1.327 . S
C2249 H2243 0.950 . S
C2249 C2248 1.327 . S
C2249 C2253 1.429 . S
C2250 C2233 1.574 . S
C2250 H2244 0.949 . S
C2250 C2254 1.368 . S
C2251 C2232 1.429 . S
C2251 C2245 1.429 . S
C2251 C2252 1.523 . S
C2252 C2233 1.368 . S
C2252 C2246 1.368 . S
C2252 C2251 1.523 . S
C2253 C2237 1.429 . S
C2253 C2249 1.429 . S
C2253 C2254 1.523 . S
C2254 C2238 1.368 . S
C2254 C2250 1.368 . S
C2254 C2253 1.523 . S
H2255 C2230 0.950 . S
H2256 C2232 0.950 . S
H2257 C2233 0.949 . S
H2258 C2235 0.950 . S
H2259 C2237 0.950 . S
C2260 C2261 1.349 . S
C2260 C2262 1.327 . S
C2260 H2285 0.950 . S
C2261 C2260 1.349 . S
C2261 C2277 1.349 . S
C2262 C2260 1.327 . S
C2262 C2281 1.429 . S
C2262 H2286 0.950 . S
C2263 C2280 1.574 . S
C2263 C2282 1.368 . S
C2263 H2287 0.949 . S
H2264 C2268 0.949 . S
C2265 C2266 1.349 . S
C2265 C2267 1.327 . S
C2265 H2288 0.950 . S
C2266 C2265 1.349 . S
C2266 C2278 1.349 . S
C2267 C2265 1.327 . S
C2267 C2283 1.429 . S
C2267 H2289 0.950 . S
C2268 H2264 0.949 . S
C2268 C2276 1.574 . S
C2268 C2284 1.368 . S
H2269 C2277 0.950 . S
H2270 C2275 0.950 . S
H2271 C2276 0.949 . S
H2272 C2278 0.950 . S
H2273 C2279 0.950 . S
H2274 C2280 0.949 . S
C2275 H2270 0.950 . S
C2275 C2277 1.327 . S
C2275 C2281 1.429 . S
C2276 C2268 1.574 . S
C2276 H2271 0.949 . S
C2276 C2282 1.368 . S
C2277 C2261 1.349 . S
C2277 H2269 0.950 . S
C2277 C2275 1.327 . S
C2278 C2266 1.349 . S
C2278 H2272 0.950 . S
C2278 C2279 1.327 . S
C2279 H2273 0.950 . S
C2279 C2278 1.327 . S
C2279 C2283 1.429 . S
C2280 C2263 1.574 . S
C2280 H2274 0.949 . S
C2280 C2284 1.368 . S
C2281 C2262 1.429 . S
C2281 C2275 1.429 . S
C2281 C2282 1.523 . S
C2282 C2263 1.368 . S
C2282 C2276 1.368 . S
C2282 C2281 1.523 . S
C2283 C2267 1.429 . S
C2283 C2279 1.429 . S
C2283 C2284 1.523 . S
C2284 C2268 1.368 . S
C2284 C2280 1.368 . S
C2284 C2283 1.523 . S
H2285 C2260 0.950 . S
H2286 C2262 0.950 . S
H2287 C2263 0.949 . S
H2288 C2265 0.950 . S
H2289 C2267 0.950 . S
C2290 C2291 1.349 . S
C2290 C2292 1.327 . S
C2290 H2315 0.950 . S
C2291 C2290 1.349 . S
C2291 C2307 1.349 . S
C2292 C2290 1.327 . S
C2292 C2311 1.429 . S
C2292 H2316 0.950 . S
C2293 C2310 1.574 . S
C2293 C2312 1.368 . S
C2293 H2317 0.949 . S
H2294 C2298 0.949 . S
C2295 C2296 1.349 . S
C2295 C2297 1.327 . S
C2295 H2318 0.950 . S
C2296 C2295 1.349 . S
C2296 C2308 1.349 . S
C2297 C2295 1.327 . S
C2297 C2313 1.429 . S
C2297 H2319 0.950 . S
C2298 H2294 0.949 . S
C2298 C2306 1.574 . S
C2298 C2314 1.368 . S
H2299 C2307 0.950 . S
H2300 C2305 0.950 . S
H2301 C2306 0.949 . S
H2302 C2308 0.950 . S
H2303 C2309 0.950 . S
H2304 C2310 0.949 . S
C2305 H2300 0.950 . S
C2305 C2307 1.327 . S
C2305 C2311 1.429 . S
C2306 C2298 1.574 . S
C2306 H2301 0.949 . S
C2306 C2312 1.368 . S
C2307 C2291 1.349 . S
C2307 H2299 0.950 . S
C2307 C2305 1.327 . S
C2308 C2296 1.349 . S
C2308 H2302 0.950 . S
C2308 C2309 1.327 . S
C2309 H2303 0.950 . S
C2309 C2308 1.327 . S
C2309 C2313 1.429 . S
C2310 C2293 1.574 . S
C2310 H2304 0.949 . S
C2310 C2314 1.368 . S
C2311 C2292 1.429 . S
C2311 C2305 1.429 . S
C2311 C2312 1.523 . S
C2312 C2293 1.368 . S
C2312 C2306 1.368 . S
C2312 C2311 1.523 . S
C2313 C2297 1.429 . S
C2313 C2309 1.429 . S
C2313 C2314 1.523 . S
C2314 C2298 1.368 . S
C2314 C2310 1.368 . S
C2314 C2313 1.523 . S
H2315 C2290 0.950 . S
H2316 C2292 0.950 . S
H2317 C2293 0.949 . S
H2318 C2295 0.950 . S
H2319 C2297 0.950 . S
C2320 C2321 1.349 . S
C2320 C2322 1.327 . S
C2320 H2345 0.950 . S
C2321 C2320 1.349 . S
C2321 C2337 1.349 . S
C2322 C2320 1.327 . S
C2322 C2341 1.429 . S
C2322 H2346 0.950 . S
C2323 C2340 1.574 . S
C2323 C2342 1.368 . S
C2323 H2347 0.949 . S
H2324 C2328 0.949 . S
C2325 C2326 1.349 . S
C2325 C2327 1.327 . S
C2325 H2348 0.950 . S
C2326 C2325 1.349 . S
C2326 C2338 1.349 . S
C2327 C2325 1.327 . S
C2327 C2343 1.429 . S
C2327 H2349 0.950 . S
C2328 H2324 0.949 . S
C2328 C2336 1.574 . S
C2328 C2344 1.368 . S
H2329 C2337 0.950 . S
H2330 C2335 0.950 . S
H2331 C2336 0.949 . S
H2332 C2338 0.950 . S
H2333 C2339 0.950 . S
H2334 C2340 0.949 . S
C2335 H2330 0.950 . S
C2335 C2337 1.327 . S
C2335 C2341 1.429 . S
C2336 C2328 1.574 . S
C2336 H2331 0.949 . S
C2336 C2342 1.368 . S
C2337 C2321 1.349 . S
C2337 H2329 0.950 . S
C2337 C2335 1.327 . S
C2338 C2326 1.349 . S
C2338 H2332 0.950 . S
C2338 C2339 1.327 . S
C2339 H2333 0.950 . S
C2339 C2338 1.327 . S
C2339 C2343 1.429 . S
C2340 C2323 1.574 . S
C2340 H2334 0.949 . S
C2340 C2344 1.368 . S
C2341 C2322 1.429 . S
C2341 C2335 1.429 . S
C2341 C2342 1.523 . S
C2342 C2323 1.368 . S
C2342 C2336 1.368 . S
C2342 C2341 1.523 . S
C2343 C2327 1.429 . S
C2343 C2339 1.429 . S
C2343 C2344 1.523 . S
C2344 C2328 1.368 . S
C2344 C2340 1.368 . S
C2344 C2343 1.523 . S
H2345 C2320 0.950 . S
H2346 C2322 0.950 . S
H2347 C2323 0.949 . S
H2348 C2325 0.950 . S
H2349 C2327 0.950 . S
C2350 C2351 1.349 . S
C2350 C2352 1.327 . S
C2350 H2375 0.950 . S
C2351 C2350 1.349 . S
C2351 C2367 1.349 . S
C2352 C2350 1.327 . S
C2352 C2371 1.429 . S
C2352 H2376 0.950 . S
C2353 C2370 1.574 . S
C2353 C2372 1.368 . S
C2353 H2377 0.949 . S
H2354 C2358 0.949 . S
C2355 C2356 1.349 . S
C2355 C2357 1.327 . S
C2355 H2378 0.950 . S
C2356 C2355 1.349 . S
C2356 C2368 1.349 . S
C2357 C2355 1.327 . S
C2357 C2373 1.429 . S
C2357 H2379 0.950 . S
C2358 H2354 0.949 . S
C2358 C2366 1.574 . S
C2358 C2374 1.368 . S
H2359 C2367 0.950 . S
H2360 C2365 0.950 . S
H2361 C2366 0.949 . S
H2362 C2368 0.950 . S
H2363 C2369 0.950 . S
H2364 C2370 0.949 . S
C2365 H2360 0.950 . S
C2365 C2367 1.327 . S
C2365 C2371 1.429 . S
C2366 C2358 1.574 . S
C2366 H2361 0.949 . S
C2366 C2372 1.368 . S
C2367 C2351 1.349 . S
C2367 H2359 0.950 . S
C2367 C2365 1.327 . S
C2368 C2356 1.349 . S
C2368 H2362 0.950 . S
C2368 C2369 1.327 . S
C2369 H2363 0.950 . S
C2369 C2368 1.327 . S
C2369 C2373 1.429 . S
C2370 C2353 1.574 . S
C2370 H2364 0.949 . S
C2370 C2374 1.368 . S
C2371 C2352 1.429 . S
C2371 C2365 1.429 . S
C2371 C2372 1.523 . S
C2372 C2353 1.368 . S
C2372 C2366 1.368 . S
C2372 C2371 1.523 . S
C2373 C2357 1.429 . S
C2373 C2369 1.429 . S
C2373 C2374 1.523 . S
C2374 C2358 1.368 . S
C2374 C2370 1.368 . S
C2374 C2373 1.523 . S
H2375 C2350 0.950 . S
H2376 C2352 0.950 . S
H2377 C2353 0.949 . S
H2378 C2355 0.950 . S
H2379 C2357 0.950 . S
C2380 C2381 1.349 . S
C2380 C2382 1.327 . S
C2380 H2405 0.950 . S
C2381 C2380 1.349 . S
C2381 C2397 1.349 . S
C2382 C2380 1.327 . S
C2382 C2401 1.429 . S
C2382 H2406 0.950 . S
C2383 C2400 1.574 . S
C2383 C2402 1.368 . S
C2383 H2407 0.949 . S
H2384 C2388 0.949 . S
C2385 C2386 1.349 . S
C2385 C2387 1.327 . S
C2385 H2408 0.950 . S
C2386 C2385 1.349 . S
C2386 C2398 1.349 . S
C2387 C2385 1.327 . S
C2387 C2403 1.429 . S
C2387 H2409 0.950 . S
C2388 H2384 0.949 . S
C2388 C2396 1.574 . S
C2388 C2404 1.368 . S
H2389 C2397 0.950 . S
H2390 C2395 0.950 . S
H2391 C2396 0.949 . S
H2392 C2398 0.950 . S
H2393 C2399 0.950 . S
H2394 C2400 0.949 . S
C2395 H2390 0.950 . S
C2395 C2397 1.327 . S
C2395 C2401 1.429 . S
C2396 C2388 1.574 . S
C2396 H2391 0.949 . S
C2396 C2402 1.368 . S
C2397 C2381 1.349 . S
C2397 H2389 0.950 . S
C2397 C2395 1.327 . S
C2398 C2386 1.349 . S
C2398 H2392 0.950 . S
C2398 C2399 1.327 . S
C2399 H2393 0.950 . S
C2399 C2398 1.327 . S
C2399 C2403 1.429 . S
C2400 C2383 1.574 . S
C2400 H2394 0.949 . S
C2400 C2404 1.368 . S
C2401 C2382 1.429 . S
C2401 C2395 1.429 . S
C2401 C2402 1.523 . S
C2402 C2383 1.368 . S
C2402 C2396 1.368 . S
C2402 C2401 1.523 . S
C2403 C2387 1.429 . S
C2403 C2399 1.429 . S
C2403 C2404 1.523 . S
C2404 C2388 1.368 . S
C2404 C2400 1.368 . S
C2404 C2403 1.523 . S
H2405 C2380 0.950 . S
H2406 C2382 0.950 . S
H2407 C2383 0.949 . S
H2408 C2385 0.950 . S
H2409 C2387 0.950 . S
C2410 C2411 1.349 . S
C2410 C2412 1.327 . S
C2410 H2435 0.950 . S
C2411 C2410 1.349 . S
C2411 C2427 1.349 . S
C2412 C2410 1.327 . S
C2412 C2431 1.429 . S
C2412 H2436 0.950 . S
C2413 C2430 1.574 . S
C2413 C2432 1.368 . S
C2413 H2437 0.949 . S
H2414 C2418 0.949 . S
C2415 C2416 1.349 . S
C2415 C2417 1.327 . S
C2415 H2438 0.950 . S
C2416 C2415 1.349 . S
C2416 C2428 1.349 . S
C2417 C2415 1.327 . S
C2417 C2433 1.429 . S
C2417 H2439 0.950 . S
C2418 H2414 0.949 . S
C2418 C2426 1.574 . S
C2418 C2434 1.368 . S
H2419 C2427 0.950 . S
H2420 C2425 0.950 . S
H2421 C2426 0.949 . S
H2422 C2428 0.950 . S
H2423 C2429 0.950 . S
H2424 C2430 0.949 . S
C2425 H2420 0.950 . S
C2425 C2427 1.327 . S
C2425 C2431 1.429 . S
C2426 C2418 1.574 . S
C2426 H2421 0.949 . S
C2426 C2432 1.368 . S
C2427 C2411 1.349 . S
C2427 H2419 0.950 . S
C2427 C2425 1.327 . S
C2428 C2416 1.349 . S
C2428 H2422 0.950 . S
C2428 C2429 1.327 . S
C2429 H2423 0.950 . S
C2429 C2428 1.327 . S
C2429 C2433 1.429 . S
C2430 C2413 1.574 . S
C2430 H2424 0.949 . S
C2430 C2434 1.368 . S
C2431 C2412 1.429 . S
C2431 C2425 1.429 . S
C2431 C2432 1.523 . S
C2432 C2413 1.368 . S
C2432 C2426 1.368 . S
C2432 C2431 1.523 . S
C2433 C2417 1.429 . S
C2433 C2429 1.429 . S
C2433 C2434 1.523 . S
C2434 C2418 1.368 . S
C2434 C2430 1.368 . S
C2434 C2433 1.523 . S
H2435 C2410 0.950 . S
H2436 C2412 0.950 . S
H2437 C2413 0.949 . S
H2438 C2415 0.950 . S
H2439 C2417 0.950 . S
C2440 C2441 1.349 . S
C2440 C2442 1.327 . S
C2440 H2465 0.950 . S
C2441 C2440 1.349 . S
C2441 C2457 1.349 . S
C2442 C2440 1.327 . S
C2442 C2461 1.429 . S
C2442 H2466 0.950 . S
C2443 C2460 1.574 . S
C2443 C2462 1.368 . S
C2443 H2467 0.949 . S
H2444 C2448 0.949 . S
C2445 C2446 1.349 . S
C2445 C2447 1.327 . S
C2445 H2468 0.950 . S
C2446 C2445 1.349 . S
C2446 C2458 1.349 . S
C2447 C2445 1.327 . S
C2447 C2463 1.429 . S
C2447 H2469 0.950 . S
C2448 H2444 0.949 . S
C2448 C2456 1.574 . S
C2448 C2464 1.368 . S
H2449 C2457 0.950 . S
H2450 C2455 0.950 . S
H2451 C2456 0.949 . S
H2452 C2458 0.950 . S
H2453 C2459 0.950 . S
H2454 C2460 0.949 . S
C2455 H2450 0.950 . S
C2455 C2457 1.327 . S
C2455 C2461 1.429 . S
C2456 C2448 1.574 . S
C2456 H2451 0.949 . S
C2456 C2462 1.368 . S
C2457 C2441 1.349 . S
C2457 H2449 0.950 . S
C2457 C2455 1.327 . S
C2458 C2446 1.349 . S
C2458 H2452 0.950 . S
C2458 C2459 1.327 . S
C2459 H2453 0.950 . S
C2459 C2458 1.327 . S
C2459 C2463 1.429 . S
C2460 C2443 1.574 . S
C2460 H2454 0.949 . S
C2460 C2464 1.368 . S
C2461 C2442 1.429 . S
C2461 C2455 1.429 . S
C2461 C2462 1.523 . S
C2462 C2443 1.368 . S
C2462 C2456 1.368 . S
C2462 C2461 1.523 . S
C2463 C2447 1.429 . S
C2463 C2459 1.429 . S
C2463 C2464 1.523 . S
C2464 C2448 1.368 . S
C2464 C2460 1.368 . S
C2464 C2463 1.523 . S
H2465 C2440 0.950 . S
H2466 C2442 0.950 . S
H2467 C2443 0.949 . S
H2468 C2445 0.950 . S
H2469 C2447 0.950 . S
C2470 C2471 1.349 . S
C2470 C2472 1.327 . S
C2470 H2495 0.950 . S
C2471 C2470 1.349 . S
C2471 C2487 1.349 . S
C2472 C2470 1.327 . S
C2472 C2491 1.429 . S
C2472 H2496 0.950 . S
C2473 C2490 1.574 . S
C2473 C2492 1.368 . S
C2473 H2497 0.949 . S
H2474 C2478 0.949 . S
C2475 C2476 1.349 . S
C2475 C2477 1.327 . S
C2475 H2498 0.950 . S
C2476 C2475 1.349 . S
C2476 C2488 1.349 . S
C2477 C2475 1.327 . S
C2477 C2493 1.429 . S
C2477 H2499 0.950 . S
C2478 H2474 0.949 . S
C2478 C2486 1.574 . S
C2478 C2494 1.368 . S
H2479 C2487 0.950 . S
H2480 C2485 0.950 . S
H2481 C2486 0.949 . S
H2482 C2488 0.950 . S
H2483 C2489 0.950 . S
H2484 C2490 0.949 . S
C2485 H2480 0.950 . S
C2485 C2487 1.327 . S
C2485 C2491 1.429 . S
C2486 C2478 1.574 . S
C2486 H2481 0.949 . S
C2486 C2492 1.368 . S
C2487 C2471 1.349 . S
C2487 H2479 0.950 . S
C2487 C2485 1.327 . S
C2488 C2476 1.349 . S
C2488 H2482 0.950 . S
C2488 C2489 1.327 . S
C2489 H2483 0.950 . S
C2489 C2488 1.327 . S
C2489 C2493 1.429 . S
C2490 C2473 1.574 . S
C2490 H2484 0.949 . S
C2490 C2494 1.368 . S
C2491 C2472 1.429 . S
C2491 C2485 1.429 . S
C2491 C2492 1.523 . S
C2492 C2473 1.368 . S
C2492 C2486 1.368 . S
C2492 C2491 1.523 . S
C2493 C2477 1.429 . S
C2493 C2489 1.429 . S
C2493 C2494 1.523 . S
C2494 C2478 1.368 . S
C2494 C2490 1.368 . S
C2494 C2493 1.523 . S
H2495 C2470 0.950 . S
H2496 C2472 0.950 . S
H2497 C2473 0.949 . S
H2498 C2475 0.950 . S
H2499 C2477 0.950 . S
C2500 C2501 1.349 . S
C2500 C2502 1.327 . S
C2500 H2525 0.950 . S
C2501 C2500 1.349 . S
C2501 C2517 1.349 . S
C2502 C2500 1.327 . S
C2502 C2521 1.429 . S
C2502 H2526 0.950 . S
C2503 C2520 1.574 . S
C2503 C2522 1.368 . S
C2503 H2527 0.949 . S
H2504 C2508 0.949 . S
C2505 C2506 1.349 . S
C2505 C2507 1.327 . S
C2505 H2528 0.950 . S
C2506 C2505 1.349 . S
C2506 C2518 1.349 . S
C2507 C2505 1.327 . S
C2507 C2523 1.429 . S
C2507 H2529 0.950 . S
C2508 H2504 0.949 . S
C2508 C2516 1.574 . S
C2508 C2524 1.368 . S
H2509 C2517 0.950 . S
H2510 C2515 0.950 . S
H2511 C2516 0.949 . S
H2512 C2518 0.950 . S
H2513 C2519 0.950 . S
H2514 C2520 0.949 . S
C2515 H2510 0.950 . S
C2515 C2517 1.327 . S
C2515 C2521 1.429 . S
C2516 C2508 1.574 . S
C2516 H2511 0.949 . S
C2516 C2522 1.368 . S
C2517 C2501 1.349 . S
C2517 H2509 0.950 . S
C2517 C2515 1.327 . S
C2518 C2506 1.349 . S
C2518 H2512 0.950 . S
C2518 C2519 1.327 . S
C2519 H2513 0.950 . S
C2519 C2518 1.327 . S
C2519 C2523 1.429 . S
C2520 C2503 1.574 . S
C2520 H2514 0.949 . S
C2520 C2524 1.368 . S
C2521 C2502 1.429 . S
C2521 C2515 1.429 . S
C2521 C2522 1.523 . S
C2522 C2503 1.368 . S
C2522 C2516 1.368 . S
C2522 C2521 1.523 . S
C2523 C2507 1.429 . S
C2523 C2519 1.429 . S
C2523 C2524 1.523 . S
C2524 C2508 1.368 . S
C2524 C2520 1.368 . S
C2524 C2523 1.523 . S
H2525 C2500 0.950 . S
H2526 C2502 0.950 . S
H2527 C2503 0.949 . S
H2528 C2505 0.950 . S
H2529 C2507 0.950 . S
C2530 C2531 1.349 . S
C2530 C2532 1.327 . S
C2530 H2555 0.950 . S
C2531 C2530 1.349 . S
C2531 C2547 1.349 . S
C2532 C2530 1.327 . S
C2532 C2551 1.429 . S
C2532 H2556 0.950 . S
C2533 C2550 1.574 . S
C2533 C2552 1.368 . S
C2533 H2557 0.949 . S
H2534 C2538 0.949 . S
C2535 C2536 1.349 . S
C2535 C2537 1.327 . S
C2535 H2558 0.950 . S
C2536 C2535 1.349 . S
C2536 C2548 1.349 . S
C2537 C2535 1.327 . S
C2537 C2553 1.429 . S
C2537 H2559 0.950 . S
C2538 H2534 0.949 . S
C2538 C2546 1.574 . S
C2538 C2554 1.368 . S
H2539 C2547 0.950 . S
H2540 C2545 0.950 . S
H2541 C2546 0.949 . S
H2542 C2548 0.950 . S
H2543 C2549 0.950 . S
H2544 C2550 0.949 . S
C2545 H2540 0.950 . S
C2545 C2547 1.327 . S
C2545 C2551 1.429 . S
C2546 C2538 1.574 . S
C2546 H2541 0.949 . S
C2546 C2552 1.368 . S
C2547 C2531 1.349 . S
C2547 H2539 0.950 . S
C2547 C2545 1.327 . S
C2548 C2536 1.349 . S
C2548 H2542 0.950 . S
C2548 C2549 1.327 . S
C2549 H2543 0.950 . S
C2549 C2548 1.327 . S
C2549 C2553 1.429 . S
C2550 C2533 1.574 . S
C2550 H2544 0.949 . S
C2550 C2554 1.368 . S
C2551 C2532 1.429 . S
C2551 C2545 1.429 . S
C2551 C2552 1.523 . S
C2552 C2533 1.368 . S
C2552 C2546 1.368 . S
C2552 C2551 1.523 . S
C2553 C2537 1.429 . S
C2553 C2549 1.429 . S
C2553 C2554 1.523 . S
C2554 C2538 1.368 . S
C2554 C2550 1.368 . S
C2554 C2553 1.523 . S
H2555 C2530 0.950 . S
H2556 C2532 0.950 . S
H2557 C2533 0.949 . S
H2558 C2535 0.950 . S
H2559 C2537 0.950 . S
C2560 C2561 1.349 . S
C2560 C2562 1.327 . S
C2560 H2585 0.950 . S
C2561 C2560 1.349 . S
C2561 C2577 1.349 . S
C2562 C2560 1.327 . S
C2562 C2581 1.429 . S
C2562 H2586 0.950 . S
C2563 C2580 1.574 . S
C2563 C2582 1.368 . S
C2563 H2587 0.949 . S
H2564 C2568 0.949 . S
C2565 C2566 1.349 . S
C2565 C2567 1.327 . S
C2565 H2588 0.950 . S
C2566 C2565 1.349 . S
C2566 C2578 1.349 . S
C2567 C2565 1.327 . S
C2567 C2583 1.429 . S
C2567 H2589 0.950 . S
C2568 H2564 0.949 . S
C2568 C2576 1.574 . S
C2568 C2584 1.368 . S
H2569 C2577 0.950 . S
H2570 C2575 0.950 . S
H2571 C2576 0.949 . S
H2572 C2578 0.950 . S
H2573 C2579 0.950 . S
H2574 C2580 0.949 . S
C2575 H2570 0.950 . S
C2575 C2577 1.327 . S
C2575 C2581 1.429 . S
C2576 C2568 1.574 . S
C2576 H2571 0.949 . S
C2576 C2582 1.368 . S
C2577 C2561 1.349 . S
C2577 H2569 0.950 . S
C2577 C2575 1.327 . S
C2578 C2566 1.349 . S
C2578 H2572 0.950 . S
C2578 C2579 1.327 . S
C2579 H2573 0.950 . S
C2579 C2578 1.327 . S
C2579 C2583 1.429 . S
C2580 C2563 1.574 . S
C2580 H2574 0.949 . S
C2580 C2584 1.368 . S
C2581 C2562 1.429 . S
C2581 C2575 1.429 . S
C2581 C2582 1.523 . S
C2582 C2563 1.368 . S
C2582 C2576 1.368 . S
C2582 C2581 1.523 . S
C2583 C2567 1.429 . S
C2583 C2579 1.429 . S
C2583 C2584 1.523 . S
C2584 C2568 1.368 . S
C2584 C2580 1.368 . S
C2584 C2583 1.523 . S
H2585 C2560 0.950 . S
H2586 C2562 0.950 . S
H2587 C2563 0.949 . S
H2588 C2565 0.950 . S
H2589 C2567 0.950 . S
C2590 C2591 1.349 . S
C2590 C2592 1.327 . S
C2590 H2615 0.950 . S
C2591 C2590 1.349 . S
C2591 C2607 1.349 . S
C2592 C2590 1.327 . S
C2592 C2611 1.429 . S
C2592 H2616 0.950 . S
C2593 C2610 1.574 . S
C2593 C2612 1.368 . S
C2593 H2617 0.949 . S
H2594 C2598 0.949 . S
C2595 C2596 1.349 . S
C2595 C2597 1.327 . S
C2595 H2618 0.950 . S
C2596 C2595 1.349 . S
C2596 C2608 1.349 . S
C2597 C2595 1.327 . S
C2597 C2613 1.429 . S
C2597 H2619 0.950 . S
C2598 H2594 0.949 . S
C2598 C2606 1.574 . S
C2598 C2614 1.368 . S
H2599 C2607 0.950 . S
H2600 C2605 0.950 . S
H2601 C2606 0.949 . S
H2602 C2608 0.950 . S
H2603 C2609 0.950 . S
H2604 C2610 0.949 . S
C2605 H2600 0.950 . S
C2605 C2607 1.327 . S
C2605 C2611 1.429 . S
C2606 C2598 1.574 . S
C2606 H2601 0.949 . S
C2606 C2612 1.368 . S
C2607 C2591 1.349 . S
C2607 H2599 0.950 . S
C2607 C2605 1.327 . S
C2608 C2596 1.349 . S
C2608 H2602 0.950 . S
C2608 C2609 1.327 . S
C2609 H2603 0.950 . S
C2609 C2608 1.327 . S
C2609 C2613 1.429 . S
C2610 C2593 1.574 . S
C2610 H2604 0.949 . S
C2610 C2614 1.368 . S
C2611 C2592 1.429 . S
C2611 C2605 1.429 . S
C2611 C2612 1.523 . S
C2612 C2593 1.368 . S
C2612 C2606 1.368 . S
C2612 C2611 1.523 . S
C2613 C2597 1.429 . S
C2613 C2609 1.429 . S
C2613 C2614 1.523 . S
C2614 C2598 1.368 . S
C2614 C2610 1.368 . S
C2614 C2613 1.523 . S
H2615 C2590 0.950 . S
H2616 C2592 0.950 . S
H2617 C2593 0.949 . S
H2618 C2595 0.950 . S
H2619 C2597 0.950 . S
C2620 C2621 1.349 . S
C2620 C2622 1.327 . S
C2620 H2645 0.950 . S
C2621 C2620 1.349 . S
C2621 C2637 1.349 . S
C2622 C2620 1.327 . S
C2622 C2641 1.429 . S
C2622 H2646 0.950 . S
C2623 C2640 1.574 . S
C2623 C2642 1.368 . S
C2623 H2647 0.949 . S
H2624 C2628 0.949 . S
C2625 C2626 1.349 . S
C2625 C2627 1.327 . S
C2625 H2648 0.950 . S
C2626 C2625 1.349 . S
C2626 C2638 1.349 . S
C2627 C2625 1.327 . S
C2627 C2643 1.429 . S
C2627 H2649 0.950 . S
C2628 H2624 0.949 . S
C2628 C2636 1.574 . S
C2628 C2644 1.368 . S
H2629 C2637 0.950 . S
H2630 C2635 0.950 . S
H2631 C2636 0.949 . S
H2632 C2638 0.950 . S
H2633 C2639 0.950 . S
H2634 C2640 0.949 . S
C2635 H2630 0.950 . S
C2635 C2637 1.327 . S
C2635 C2641 1.429 . S
C2636 C2628 1.574 . S
C2636 H2631 0.949 . S
C2636 C2642 1.368 . S
C2637 C2621 1.349 . S
C2637 H2629 0.950 . S
C2637 C2635 1.327 . S
C2638 C2626 1.349 . S
C2638 H2632 0.950 . S
C2638 C2639 1.327 . S
C2639 H2633 0.950 . S
C2639 C2638 1.327 . S
C2639 C2643 1.429 . S
C2640 C2623 1.574 . S
C2640 H2634 0.949 . S
C2640 C2644 1.368 . S
C2641 C2622 1.429 . S
C2641 C2635 1.429 . S
C2641 C2642 1.523 . S
C2642 C2623 1.368 . S
C2642 C2636 1.368 . S
C2642 C2641 1.523 . S
C2643 C2627 1.429 . S
C2643 C2639 1.429 . S
C2643 C2644 1.523 . S
C2644 C2628 1.368 . S
C2644 C2640 1.368 . S
C2644 C2643 1.523 . S
H2645 C2620 0.950 . S
H2646 C2622 0.950 . S
H2647 C2623 0.949 . S
H2648 C2625 0.950 . S
H2649 C2627 0.950 . S
C2650 C2651 1.349 . S
C2650 C2652 1.327 . S
C2650 H2675 0.950 . S
C2651 C2650 1.349 . S
C2651 C2667 1.349 . S
C2652 C2650 1.327 . S
C2652 C2671 1.429 . S
C2652 H2676 0.950 . S
C2653 C2670 1.574 . S
C2653 C2672 1.368 . S
C2653 H2677 0.949 . S
H2654 C2658 0.949 . S
C2655 C2656 1.349 . S
C2655 C2657 1.327 . S
C2655 H2678 0.950 . S
C2656 C2655 1.349 . S
C2656 C2668 1.349 . S
C2657 C2655 1.327 . S
C2657 C2673 1.429 . S
C2657 H2679 0.950 . S
C2658 H2654 0.949 . S
C2658 C2666 1.574 . S
C2658 C2674 1.368 . S
H2659 C2667 0.950 . S
H2660 C2665 0.950 . S
H2661 C2666 0.949 . S
H2662 C2668 0.950 . S
H2663 C2669 0.950 . S
H2664 C2670 0.949 . S
C2665 H2660 0.950 . S
C2665 C2667 1.327 . S
C2665 C2671 1.429 . S
C2666 C2658 1.574 . S
C2666 H2661 0.949 . S
C2666 C2672 1.368 . S
C2667 C2651 1.349 . S
C2667 H2659 0.950 . S
C2667 C2665 1.327 . S
C2668 C2656 1.349 . S
C2668 H2662 0.950 . S
C2668 C2669 1.327 . S
C2669 H2663 0.950 . S
C2669 C2668 1.327 . S
C2669 C2673 1.429 . S
C2670 C2653 1.574 . S
C2670 H2664 0.949 . S
C2670 C2674 1.368 . S
C2671 C2652 1.429 . S
C2671 C2665 1.429 . S
C2671 C2672 1.523 . S
C2672 C2653 1.368 . S
C2672 C2666 1.368 . S
C2672 C2671 1.523 . S
C2673 C2657 1.429 . S
C2673 C2669 1.429 . S
C2673 C2674 1.523 . S
C2674 C2658 1.368 . S
C2674 C2670 1.368 . S
C2674 C2673 1.523 . S
H2675 C2650 0.950 . S
H2676 C2652 0.950 . S
H2677 C2653 0.949 . S
H2678 C2655 0.950 . S
H2679 C2657 0.950 . S
C2680 C2681 1.349 . S
C2680 C2682 1.327 . S
C2680 H2705 0.950 . S
C2681 C2680 1.349 . S
C2681 C2697 1.349 . S
C2682 C2680 1.327 . S
C2682 C2701 1.429 . S
C2682 H2706 0.950 . S
C2683 C2700 1.574 . S
C2683 C2702 1.368 . S
C2683 H2707 0.949 . S
H2684 C2688 0.949 . S
C2685 C2686 1.349 . S
C2685 C2687 1.327 . S
C2685 H2708 0.950 . S
C2686 C2685 1.349 . S
C2686 C2698 1.349 . S
C2687 C2685 1.327 . S
C2687 C2703 1.429 . S
C2687 H2709 0.950 . S
C2688 H2684 0.949 . S
C2688 C2696 1.574 . S
C2688 C2704 1.368 . S
H2689 C2697 0.950 . S
H2690 C2695 0.950 . S
H2691 C2696 0.949 . S
H2692 C2698 0.950 . S
H2693 C2699 0.950 . S
H2694 C2700 0.949 . S
C2695 H2690 0.950 . S
C2695 C2697 1.327 . S
C2695 C2701 1.429 . S
C2696 C2688 1.574 . S
C2696 H2691 0.949 . S
C2696 C2702 1.368 . S
C2697 C2681 1.349 . S
C2697 H2689 0.950 . S
C2697 C2695 1.327 . S
C2698 C2686 1.349 . S
C2698 H2692 0.950 . S
C2698 C2699 1.327 . S
C2699 H2693 0.950 . S
C2699 C2698 1.327 . S
C2699 C2703 1.429 . S
C2700 C2683 1.574 . S
C2700 H2694 0.949 . S
C2700 C2704 1.368 . S
C2701 C2682 1.429 . S
C2701 C2695 1.429 . S
C2701 C2702 1.523 . S
C2702 C2683 1.368 . S
C2702 C2696 1.368 . S
C2702 C2701 1.523 . S
C2703 C2687 1.429 . S
C2703 C2699 1.429 . S
C2703 C2704 1.523 . S
C2704 C2688 1.368 . S
C2704 C2700 1.368 . S
C2704 C2703 1.523 . S
H2705 C2680 0.950 . S
H2706 C2682 0.950 . S
H2707 C2683 0.949 . S
H2708 C2685 0.950 . S
H2709 C2687 0.950 . S
C2710 C2711 1.349 . S
C2710 C2712 1.327 . S
C2710 H2735 0.950 . S
C2711 C2710 1.349 . S
C2711 C2727 1.349 . S
C2712 C2710 1.327 . S
C2712 C2731 1.429 . S
C2712 H2736 0.950 . S
C2713 C2730 1.574 . S
C2713 C2732 1.368 . S
C2713 H2737 0.949 . S
H2714 C2718 0.949 . S
C2715 C2716 1.349 . S
C2715 C2717 1.327 . S
C2715 H2738 0.950 . S
C2716 C2715 1.349 . S
C2716 C2728 1.349 . S
C2717 C2715 1.327 . S
C2717 C2733 1.429 . S
C2717 H2739 0.950 . S
C2718 H2714 0.949 . S
C2718 C2726 1.574 . S
C2718 C2734 1.368 . S
H2719 C2727 0.950 . S
H2720 C2725 0.950 . S
H2721 C2726 0.949 . S
H2722 C2728 0.950 . S
H2723 C2729 0.950 . S
H2724 C2730 0.949 . S
C2725 H2720 0.950 . S
C2725 C2727 1.327 . S
C2725 C2731 1.429 . S
C2726 C2718 1.574 . S
C2726 H2721 0.949 . S
C2726 C2732 1.368 . S
C2727 C2711 1.349 . S
C2727 H2719 0.950 . S
C2727 C2725 1.327 . S
C2728 C2716 1.349 . S
C2728 H2722 0.950 . S
C2728 C2729 1.327 . S
C2729 H2723 0.950 . S
C2729 C2728 1.327 . S
C2729 C2733 1.429 . S
C2730 C2713 1.574 . S
C2730 H2724 0.949 . S
C2730 C2734 1.368 . S
C2731 C2712 1.429 . S
C2731 C2725 1.429 . S
C2731 C2732 1.523 . S
C2732 C2713 1.368 . S
C2732 C2726 1.368 . S
C2732 C2731 1.523 . S
C2733 C2717 1.429 . S
C2733 C2729 1.429 . S
C2733 C2734 1.523 . S
C2734 C2718 1.368 . S
C2734 C2730 1.368 . S
C2734 C2733 1.523 . S
H2735 C2710 0.950 . S
H2736 C2712 0.950 . S
H2737 C2713 0.949 . S
H2738 C2715 0.950 . S
H2739 C2717 0.950 . S
C2740 C2741 1.349 . S
C2740 C2742 1.327 . S
C2740 H2765 0.950 . S
C2741 C2740 1.349 . S
C2741 C2757 1.349 . S
C2742 C2740 1.327 . S
C2742 C2761 1.429 . S
C2742 H2766 0.950 . S
C2743 C2760 1.574 . S
C2743 C2762 1.368 . S
C2743 H2767 0.949 . S
H2744 C2748 0.949 . S
C2745 C2746 1.349 . S
C2745 C2747 1.327 . S
C2745 H2768 0.950 . S
C2746 C2745 1.349 . S
C2746 C2758 1.349 . S
C2747 C2745 1.327 . S
C2747 C2763 1.429 . S
C2747 H2769 0.950 . S
C2748 H2744 0.949 . S
C2748 C2756 1.574 . S
C2748 C2764 1.368 . S
H2749 C2757 0.950 . S
H2750 C2755 0.950 . S
H2751 C2756 0.949 . S
H2752 C2758 0.950 . S
H2753 C2759 0.950 . S
H2754 C2760 0.949 . S
C2755 H2750 0.950 . S
C2755 C2757 1.327 . S
C2755 C2761 1.429 . S
C2756 C2748 1.574 . S
C2756 H2751 0.949 . S
C2756 C2762 1.368 . S
C2757 C2741 1.349 . S
C2757 H2749 0.950 . S
C2757 C2755 1.327 . S
C2758 C2746 1.349 . S
C2758 H2752 0.950 . S
C2758 C2759 1.327 . S
C2759 H2753 0.950 . S
C2759 C2758 1.327 . S
C2759 C2763 1.429 . S
C2760 C2743 1.574 . S
C2760 H2754 0.949 . S
C2760 C2764 1.368 . S
C2761 C2742 1.429 . S
C2761 C2755 1.429 . S
C2761 C2762 1.523 . S
C2762 C2743 1.368 . S
C2762 C2756 1.368 . S
C2762 C2761 1.523 . S
C2763 C2747 1.429 . S
C2763 C2759 1.429 . S
C2763 C2764 1.523 . S
C2764 C2748 1.368 . S
C2764 C2760 1.368 . S
C2764 C2763 1.523 . S
H2765 C2740 0.950 . S
H2766 C2742 0.950 . S
H2767 C2743 0.949 . S
H2768 C2745 0.950 . S
H2769 C2747 0.950 . S
C2770 C2771 1.349 . S
C2770 C2772 1.327 . S
C2770 H2795 0.950 . S
C2771 C2770 1.349 . S
C2771 C2787 1.349 . S
C2772 C2770 1.327 . S
C2772 C2791 1.429 . S
C2772 H2796 0.950 . S
C2773 C2790 1.574 . S
C2773 C2792 1.368 . S
C2773 H2797 0.949 . S
H2774 C2778 0.949 . S
C2775 C2776 1.349 . S
C2775 C2777 1.327 . S
C2775 H2798 0.950 . S
C2776 C2775 1.349 . S
C2776 C2788 1.349 . S
C2777 C2775 1.327 . S
C2777 C2793 1.429 . S
C2777 H2799 0.950 . S
C2778 H2774 0.949 . S
C2778 C2786 1.574 . S
C2778 C2794 1.368 . S
H2779 C2787 0.950 . S
H2780 C2785 0.950 . S
H2781 C2786 0.949 . S
H2782 C2788 0.950 . S
H2783 C2789 0.950 . S
H2784 C2790 0.949 . S
C2785 H2780 0.950 . S
C2785 C2787 1.327 . S
C2785 C2791 1.429 . S
C2786 C2778 1.574 . S
C2786 H2781 0.949 . S
C2786 C2792 1.368 . S
C2787 C2771 1.349 . S
C2787 H2779 0.950 . S
C2787 C2785 1.327 . S
C2788 C2776 1.349 . S
C2788 H2782 0.950 . S
C2788 C2789 1.327 . S
C2789 H2783 0.950 . S
C2789 C2788 1.327 . S
C2789 C2793 1.429 . S
C2790 C2773 1.574 . S
C2790 H2784 0.949 . S
C2790 C2794 1.368 . S
C2791 C2772 1.429 . S
C2791 C2785 1.429 . S
C2791 C2792 1.523 . S
C2792 C2773 1.368 . S
C2792 C2786 1.368 . S
C2792 C2791 1.523 . S
C2793 C2777 1.429 . S
C2793 C2789 1.429 . S
C2793 C2794 1.523 . S
C2794 C2778 1.368 . S
C2794 C2790 1.368 . S
C2794 C2793 1.523 . S
H2795 C2770 0.950 . S
H2796 C2772 0.950 . S
H2797 C2773 0.949 . S
H2798 C2775 0.950 . S
H2799 C2777 0.950 . S
C2800 C2801 1.349 . S
C2800 C2802 1.327 . S
C2800 H2825 0.950 . S
C2801 C2800 1.349 . S
C2801 C2817 1.349 . S
C2802 C2800 1.327 . S
C2802 C2821 1.429 . S
C2802 H2826 0.950 . S
C2803 C2820 1.574 . S
C2803 C2822 1.368 . S
C2803 H2827 0.949 . S
H2804 C2808 0.949 . S
C2805 C2806 1.349 . S
C2805 C2807 1.327 . S
C2805 H2828 0.950 . S
C2806 C2805 1.349 . S
C2806 C2818 1.349 . S
C2807 C2805 1.327 . S
C2807 C2823 1.429 . S
C2807 H2829 0.950 . S
C2808 H2804 0.949 . S
C2808 C2816 1.574 . S
C2808 C2824 1.368 . S
H2809 C2817 0.950 . S
H2810 C2815 0.950 . S
H2811 C2816 0.949 . S
H2812 C2818 0.950 . S
H2813 C2819 0.950 . S
H2814 C2820 0.949 . S
C2815 H2810 0.950 . S
C2815 C2817 1.327 . S
C2815 C2821 1.429 . S
C2816 C2808 1.574 . S
C2816 H2811 0.949 . S
C2816 C2822 1.368 . S
C2817 C2801 1.349 . S
C2817 H2809 0.950 . S
C2817 C2815 1.327 . S
C2818 C2806 1.349 . S
C2818 H2812 0.950 . S
C2818 C2819 1.327 . S
C2819 H2813 0.950 . S
C2819 C2818 1.327 . S
C2819 C2823 1.429 . S
C2820 C2803 1.574 . S
C2820 H2814 0.949 . S
C2820 C2824 1.368 . S
C2821 C2802 1.429 . S
C2821 C2815 1.429 . S
C2821 C2822 1.523 . S
C2822 C2803 1.368 . S
C2822 C2816 1.368 . S
C2822 C2821 1.523 . S
C2823 C2807 1.429 . S
C2823 C2819 1.429 . S
C2823 C2824 1.523 . S
C2824 C2808 1.368 . S
C2824 C2820 1.368 . S
C2824 C2823 1.523 . S
H2825 C2800 0.950 . S
H2826 C2802 0.950 . S
H2827 C2803 0.949 . S
H2828 C2805 0.950 . S
H2829 C2807 0.950 . S
C2830 C2831 1.349 . S
C2830 C2832 1.327 . S
C2830 H2855 0.950 . S
C2831 C2830 1.349 . S
C2831 C2847 1.349 . S
C2832 C2830 1.327 . S
C2832 C2851 1.429 . S
C2832 H2856 0.950 . S
C2833 C2850 1.574 . S
C2833 C2852 1.368 . S
C2833 H2857 0.949 . S
H2834 C2838 0.949 . S
C2835 C2836 1.349 . S
C2835 C2837 1.327 . S
C2835 H2858 0.950 . S
C2836 C2835 1.349 . S
C2836 C2848 1.349 . S
C2837 C2835 1.327 . S
C2837 C2853 1.429 . S
C2837 H2859 0.950 . S
C2838 H2834 0.949 . S
C2838 C2846 1.574 . S
C2838 C2854 1.368 . S
H2839 C2847 0.950 . S
H2840 C2845 0.950 . S
H2841 C2846 0.949 . S
H2842 C2848 0.950 . S
H2843 C2849 0.950 . S
H2844 C2850 0.949 . S
C2845 H2840 0.950 . S
C2845 C2847 1.327 . S
C2845 C2851 1.429 . S
C2846 C2838 1.574 . S
C2846 H2841 0.949 . S
C2846 C2852 1.368 . S
C2847 C2831 1.349 . S
C2847 H2839 0.950 . S
C2847 C2845 1.327 . S
C2848 C2836 1.349 . S
C2848 H2842 0.950 . S
C2848 C2849 1.327 . S
C2849 H2843 0.950 . S
C2849 C2848 1.327 . S
C2849 C2853 1.429 . S
C2850 C2833 1.574 . S
C2850 H2844 0.949 . S
C2850 C2854 1.368 . S
C2851 C2832 1.429 . S
C2851 C2845 1.429 . S
C2851 C2852 1.523 . S
C2852 C2833 1.368 . S
C2852 C2846 1.368 . S
C2852 C2851 1.523 . S
C2853 C2837 1.429 . S
C2853 C2849 1.429 . S
C2853 C2854 1.523 . S
C2854 C2838 1.368 . S
C2854 C2850 1.368 . S
C2854 C2853 1.523 . S
H2855 C2830 0.950 . S
H2856 C2832 0.950 . S
H2857 C2833 0.949 . S
H2858 C2835 0.950 . S
H2859 C2837 0.950 . S
C2860 C2861 1.349 . S
C2860 C2862 1.327 . S
C2860 H2885 0.950 . S
C2861 C2860 1.349 . S
C2861 C2877 1.349 . S
C2862 C2860 1.327 . S
C2862 C2881 1.429 . S
C2862 H2886 0.950 . S
C2863 C2880 1.574 . S
C2863 C2882 1.368 . S
C2863 H2887 0.949 . S
H2864 C2868 0.949 . S
C2865 C2866 1.349 . S
C2865 C2867 1.327 . S
C2865 H2888 0.950 . S
C2866 C2865 1.349 . S
C2866 C2878 1.349 . S
C2867 C2865 1.327 . S
C2867 C2883 1.429 . S
C2867 H2889 0.950 . S
C2868 H2864 0.949 . S
C2868 C2876 1.574 . S
C2868 C2884 1.368 . S
H2869 C2877 0.950 . S
H2870 C2875 0.950 . S
H2871 C2876 0.949 . S
H2872 C2878 0.950 . S
H2873 C2879 0.950 . S
H2874 C2880 0.949 . S
C2875 H2870 0.950 . S
C2875 C2877 1.327 . S
C2875 C2881 1.429 . S
C2876 C2868 1.574 . S
C2876 H2871 0.949 . S
C2876 C2882 1.368 . S
C2877 C2861 1.349 . S
C2877 H2869 0.950 . S
C2877 C2875 1.327 . S
C2878 C2866 1.349 . S
C2878 H2872 0.950 . S
C2878 C2879 1.327 . S
C2879 H2873 0.950 . S
C2879 C2878 1.327 . S
C2879 C2883 1.429 . S
C2880 C2863 1.574 . S
C2880 H2874 0.949 . S
C2880 C2884 1.368 . S
C2881 C2862 1.429 . S
C2881 C2875 1.429 . S
C2881 C2882 1.523 . S
C2882 C2863 1.368 . S
C2882 C2876 1.368 . S
C2882 C2881 1.523 . S
C2883 C2867 1.429 . S
C2883 C2879 1.429 . S
C2883 C2884 1.523 . S
C2884 C2868 1.368 . S
C2884 C2880 1.368 . S
C2884 C2883 1.523 . S
H2885 C2860 0.950 . S
H2886 C2862 0.950 . S
H2887 C2863 0.949 . S
H2888 C2865 0.950 . S
H2889 C2867 0.950 . S
C2890 C2891 1.349 . S
C2890 C2892 1.327 . S
C2890 H2915 0.950 . S
C2891 C2890 1.349 . S
C2891 C2907 1.349 . S
C2892 C2890 1.327 . S
C2892 C2911 1.429 . S
C2892 H2916 0.950 . S
C2893 C2910 1.574 . S
C2893 C2912 1.368 . S
C2893 H2917 0.949 . S
H2894 C2898 0.949 . S
C2895 C2896 1.349 . S
C2895 C2897 1.327 . S
C2895 H2918 0.950 . S
C2896 C2895 1.349 . S
C2896 C2908 1.349 . S
C2897 C2895 1.327 . S
C2897 C2913 1.429 . S
C2897 H2919 0.950 . S
C2898 H2894 0.949 . S
C2898 C2906 1.574 . S
C2898 C2914 1.368 . S
H2899 C2907 0.950 . S
H2900 C2905 0.950 . S
H2901 C2906 0.949 . S
H2902 C2908 0.950 . S
H2903 C2909 0.950 . S
H2904 C2910 0.949 . S
C2905 H2900 0.950 . S
C2905 C2907 1.327 . S
C2905 C2911 1.429 . S
C2906 C2898 1.574 . S
C2906 H2901 0.949 . S
C2906 C2912 1.368 . S
C2907 C2891 1.349 . S
C2907 H2899 0.950 . S
C2907 C2905 1.327 . S
C2908 C2896 1.349 . S
C2908 H2902 0.950 . S
C2908 C2909 1.327 . S
C2909 H2903 0.950 . S
C2909 C2908 1.327 . S
C2909 C2913 1.429 . S
C2910 C2893 1.574 . S
C2910 H2904 0.949 . S
C2910 C2914 1.368 . S
C2911 C2892 1.429 . S
C2911 C2905 1.429 . S
C2911 C2912 1.523 . S
C2912 C2893 1.368 . S
C2912 C2906 1.368 . S
C2912 C2911 1.523 . S
C2913 C2897 1.429 . S
C2913 C2909 1.429 . S
C2913 C2914 1.523 . S
C2914 C2898 1.368 . S
C2914 C2910 1.368 . S
C2914 C2913 1.523 . S
H2915 C2890 0.950 . S
H2916 C2892 0.950 . S
H2917 C2893 0.949 . S
H2918 C2895 0.950 . S
H2919 C2897 0.950 . S
C2920 C2921 1.349 . S
C2920 C2922 1.327 . S
C2920 H2945 0.950 . S
C2921 C2920 1.349 . S
C2921 C2937 1.349 . S
C2922 C2920 1.327 . S
C2922 C2941 1.429 . S
C2922 H2946 0.950 . S
C2923 C2940 1.574 . S
C2923 C2942 1.368 . S
C2923 H2947 0.949 . S
H2924 C2928 0.949 . S
C2925 C2926 1.349 . S
C2925 C2927 1.327 . S
C2925 H2948 0.950 . S
C2926 C2925 1.349 . S
C2926 C2938 1.349 . S
C2927 C2925 1.327 . S
C2927 C2943 1.429 . S
C2927 H2949 0.950 . S
C2928 H2924 0.949 . S
C2928 C2936 1.574 . S
C2928 C2944 1.368 . S
H2929 C2937 0.950 . S
H2930 C2935 0.950 . S
H2931 C2936 0.949 . S
H2932 C2938 0.950 . S
H2933 C2939 0.950 . S
H2934 C2940 0.949 . S
C2935 H2930 0.950 . S
C2935 C2937 1.327 . S
C2935 C2941 1.429 . S
C2936 C2928 1.574 . S
C2936 H2931 0.949 . S
C2936 C2942 1.368 . S
C2937 C2921 1.349 . S
C2937 H2929 0.950 . S
C2937 C2935 1.327 . S
C2938 C2926 1.349 . S
C2938 H2932 0.950 . S
C2938 C2939 1.327 . S
C2939 H2933 0.950 . S
C2939 C2938 1.327 . S
C2939 C2943 1.429 . S
C2940 C2923 1.574 . S
C2940 H2934 0.949 . S
C2940 C2944 1.368 . S
C2941 C2922 1.429 . S
C2941 C2935 1.429 . S
C2941 C2942 1.523 . S
C2942 C2923 1.368 . S
C2942 C2936 1.368 . S
C2942 C2941 1.523 . S
C2943 C2927 1.429 . S
C2943 C2939 1.429 . S
C2943 C2944 1.523 . S
C2944 C2928 1.368 . S
C2944 C2940 1.368 . S
C2944 C2943 1.523 . S
H2945 C2920 0.950 . S
H2946 C2922 0.950 . S
H2947 C2923 0.949 . S
H2948 C2925 0.950 . S
H2949 C2927 0.950 . S
C2950 C2951 1.349 . S
C2950 C2952 1.327 . S
C2950 H2975 0.950 . S
C2951 C2950 1.349 . S
C2951 C2967 1.349 . S
C2952 C2950 1.327 . S
C2952 C2971 1.429 . S
C2952 H2976 0.950 . S
C2953 C2970 1.574 . S
C2953 C2972 1.368 . S
C2953 H2977 0.949 . S
H2954 C2958 0.949 . S
C2955 C2956 1.349 . S
C2955 C2957 1.327 . S
C2955 H2978 0.950 . S
C2956 C2955 1.349 . S
C2956 C2968 1.349 . S
C2957 C2955 1.327 . S
C2957 C2973 1.429 . S
C2957 H2979 0.950 . S
C2958 H2954 0.949 . S
C2958 C2966 1.574 . S
C2958 C2974 1.368 . S
H2959 C2967 0.950 . S
H2960 C2965 0.950 . S
H2961 C2966 0.949 . S
H2962 C2968 0.950 . S
H2963 C2969 0.950 . S
H2964 C2970 0.949 . S
C2965 H2960 0.950 . S
C2965 C2967 1.327 . S
C2965 C2971 1.429 . S
C2966 C2958 1.574 . S
C2966 H2961 0.949 . S
C2966 C2972 1.368 . S
C2967 C2951 1.349 . S
C2967 H2959 0.950 . S
C2967 C2965 1.327 . S
C2968 C2956 1.349 . S
C2968 H2962 0.950 . S
C2968 C2969 1.327 . S
C2969 H2963 0.950 . S
C2969 C2968 1.327 . S
C2969 C2973 1.429 . S
C2970 C2953 1.574 . S
C2970 H2964 0.949 . S
C2970 C2974 1.368 . S
C2971 C2952 1.429 . S
C2971 C2965 1.429 . S
C2971 C2972 1.523 . S
C2972 C2953 1.368 . S
C2972 C2966 1.368 . S
C2972 C2971 1.523 . S
C2973 C2957 1.429 . S
C2973 C2969 1.429 . S
C2973 C2974 1.523 . S
C2974 C2958 1.368 . S
C2974 C2970 1.368 . S
C2974 C2973 1.523 . S
H2975 C2950 0.950 . S
H2976 C2952 0.950 . S
H2977 C2953 0.949 . S
H2978 C2955 0.950 . S
H2979 C2957 0.950 . S
C2980 C2981 1.349 . S
C2980 C2982 1.327 . S
C2980 H3005 0.950 . S
C2981 C2980 1.349 . S
C2981 C2997 1.349 . S
C2982 C2980 1.327 . S
C2982 C3001 1.429 . S
C2982 H3006 0.950 . S
C2983 C3000 1.574 . S
C2983 C3002 1.368 . S
C2983 H3007 0.949 . S
H2984 C2988 0.949 . S
C2985 C2986 1.349 . S
C2985 C2987 1.327 . S
C2985 H3008 0.950 . S
C2986 C2985 1.349 . S
C2986 C2998 1.349 . S
C2987 C2985 1.327 . S
C2987 C3003 1.429 . S
C2987 H3009 0.950 . S
C2988 H2984 0.949 . S
C2988 C2996 1.574 . S
C2988 C3004 1.368 . S
H2989 C2997 0.950 . S
H2990 C2995 0.950 . S
H2991 C2996 0.949 . S
H2992 C2998 0.950 . S
H2993 C2999 0.950 . S
H2994 C3000 0.949 . S
C2995 H2990 0.950 . S
C2995 C2997 1.327 . S
C2995 C3001 1.429 . S
C2996 C2988 1.574 . S
C2996 H2991 0.949 . S
C2996 C3002 1.368 . S
C2997 C2981 1.349 . S
C2997 H2989 0.950 . S
C2997 C2995 1.327 . S
C2998 C2986 1.349 . S
C2998 H2992 0.950 . S
C2998 C2999 1.327 . S
C2999 H2993 0.950 . S
C2999 C2998 1.327 . S
C2999 C3003 1.429 . S
C3000 C2983 1.574 . S
C3000 H2994 0.949 . S
C3000 C3004 1.368 . S
C3001 C2982 1.429 . S
C3001 C2995 1.429 . S
C3001 C3002 1.523 . S
C3002 C2983 1.368 . S
C3002 C2996 1.368 . S
C3002 C3001 1.523 . S
C3003 C2987 1.429 . S
C3003 C2999 1.429 . S
C3003 C3004 1.523 . S
C3004 C2988 1.368 . S
C3004 C3000 1.368 . S
C3004 C3003 1.523 . S
H3005 C2980 0.950 . S
H3006 C2982 0.950 . S
H3007 C2983 0.949 . S
H3008 C2985 0.950 . S
H3009 C2987 0.950 . S
C3010 C3011 1.349 . S
C3010 C3012 1.327 . S
C3010 H3035 0.950 . S
C3011 C3010 1.349 . S
C3011 C3027 1.349 . S
C3012 C3010 1.327 . S
C3012 C3031 1.429 . S
C3012 H3036 0.950 . S
C3013 C3030 1.574 . S
C3013 C3032 1.368 . S
C3013 H3037 0.949 . S
H3014 C3018 0.949 . S
C3015 C3016 1.349 . S
C3015 C3017 1.327 . S
C3015 H3038 0.950 . S
C3016 C3015 1.349 . S
C3016 C3028 1.349 . S
C3017 C3015 1.327 . S
C3017 C3033 1.429 . S
C3017 H3039 0.950 . S
C3018 H3014 0.949 . S
C3018 C3026 1.574 . S
C3018 C3034 1.368 . S
H3019 C3027 0.950 . S
H3020 C3025 0.950 . S
H3021 C3026 0.949 . S
H3022 C3028 0.950 . S
H3023 C3029 0.950 . S
H3024 C3030 0.949 . S
C3025 H3020 0.950 . S
C3025 C3027 1.327 . S
C3025 C3031 1.429 . S
C3026 C3018 1.574 . S
C3026 H3021 0.949 . S
C3026 C3032 1.368 . S
C3027 C3011 1.349 . S
C3027 H3019 0.950 . S
C3027 C3025 1.327 . S
C3028 C3016 1.349 . S
C3028 H3022 0.950 . S
C3028 C3029 1.327 . S
C3029 H3023 0.950 . S
C3029 C3028 1.327 . S
C3029 C3033 1.429 . S
C3030 C3013 1.574 . S
C3030 H3024 0.949 . S
C3030 C3034 1.368 . S
C3031 C3012 1.429 . S
C3031 C3025 1.429 . S
C3031 C3032 1.523 . S
C3032 C3013 1.368 . S
C3032 C3026 1.368 . S
C3032 C3031 1.523 . S
C3033 C3017 1.429 . S
C3033 C3029 1.429 . S
C3033 C3034 1.523 . S
C3034 C3018 1.368 . S
C3034 C3030 1.368 . S
C3034 C3033 1.523 . S
H3035 C3010 0.950 . S
H3036 C3012 0.950 . S
H3037 C3013 0.949 . S
H3038 C3015 0.950 . S
H3039 C3017 0.950 . S
C3040 C3041 1.349 . S
C3040 C3042 1.327 . S
C3040 H3065 0.950 . S
C3041 C3040 1.349 . S
C3041 C3057 1.349 . S
C3042 C3040 1.327 . S
C3042 C3061 1.429 . S
C3042 H3066 0.950 . S
C3043 C3060 1.574 . S
C3043 C3062 1.368 . S
C3043 H3067 0.949 . S
H3044 C3048 0.949 . S
C3045 C3046 1.349 . S
C3045 C3047 1.327 . S
C3045 H3068 0.950 . S
C3046 C3045 1.349 . S
C3046 C3058 1.349 . S
C3047 C3045 1.327 . S
C3047 C3063 1.429 . S
C3047 H3069 0.950 . S
C3048 H3044 0.949 . S
C3048 C3056 1.574 . S
C3048 C3064 1.368 . S
H3049 C3057 0.950 . S
H3050 C3055 0.950 . S
H3051 C3056 0.949 . S
H3052 C3058 0.950 . S
H3053 C3059 0.950 . S
H3054 C3060 0.949 . S
C3055 H3050 0.950 . S
C3055 C3057 1.327 . S
C3055 C3061 1.429 . S
C3056 C3048 1.574 . S
C3056 H3051 0.949 . S
C3056 C3062 1.368 . S
C3057 C3041 1.349 . S
C3057 H3049 0.950 . S
C3057 C3055 1.327 . S
C3058 C3046 1.349 . S
C3058 H3052 0.950 . S
C3058 C3059 1.327 . S
C3059 H3053 0.950 . S
C3059 C3058 1.327 . S
C3059 C3063 1.429 . S
C3060 C3043 1.574 . S
C3060 H3054 0.949 . S
C3060 C3064 1.368 . S
C3061 C3042 1.429 . S
C3061 C3055 1.429 . S
C3061 C3062 1.523 . S
C3062 C3043 1.368 . S
C3062 C3056 1.368 . S
C3062 C3061 1.523 . S
C3063 C3047 1.429 . S
C3063 C3059 1.429 . S
C3063 C3064 1.523 . S
C3064 C3048 1.368 . S
C3064 C3060 1.368 . S
C3064 C3063 1.523 . S
H3065 C3040 0.950 . S
H3066 C3042 0.950 . S
H3067 C3043 0.949 . S
H3068 C3045 0.950 . S
H3069 C3047 0.950 . S
C3070 C3071 1.349 . S
C3070 C3072 1.327 . S
C3070 H3095 0.950 . S
C3071 C3070 1.349 . S
C3071 C3087 1.349 . S
C3072 C3070 1.327 . S
C3072 C3091 1.429 . S
C3072 H3096 0.950 . S
C3073 C3090 1.574 . S
C3073 C3092 1.368 . S
C3073 H3097 0.949 . S
H3074 C3078 0.949 . S
C3075 C3076 1.349 . S
C3075 C3077 1.327 . S
C3075 H3098 0.950 . S
C3076 C3075 1.349 . S
C3076 C3088 1.349 . S
C3077 C3075 1.327 . S
C3077 C3093 1.429 . S
C3077 H3099 0.950 . S
C3078 H3074 0.949 . S
C3078 C3086 1.574 . S
C3078 C3094 1.368 . S
H3079 C3087 0.950 . S
H3080 C3085 0.950 . S
H3081 C3086 0.949 . S
H3082 C3088 0.950 . S
H3083 C3089 0.950 . S
H3084 C3090 0.949 . S
C3085 H3080 0.950 . S
C3085 C3087 1.327 . S
C3085 C3091 1.429 . S
C3086 C3078 1.574 . S
C3086 H3081 0.949 . S
C3086 C3092 1.368 . S
C3087 C3071 1.349 . S
C3087 H3079 0.950 . S
C3087 C3085 1.327 . S
C3088 C3076 1.349 . S
C3088 H3082 0.950 . S
C3088 C3089 1.327 . S
C3089 H3083 0.950 . S
C3089 C3088 1.327 . S
C3089 C3093 1.429 . S
C3090 C3073 1.574 . S
C3090 H3084 0.949 . S
C3090 C3094 1.368 . S
C3091 C3072 1.429 . S
C3091 C3085 1.429 . S
C3091 C3092 1.523 . S
C3092 C3073 1.368 . S
C3092 C3086 1.368 . S
C3092 C3091 1.523 . S
C3093 C3077 1.429 . S
C3093 C3089 1.429 . S
C3093 C3094 1.523 . S
C3094 C3078 1.368 . S
C3094 C3090 1.368 . S
C3094 C3093 1.523 . S
H3095 C3070 0.950 . S
H3096 C3072 0.950 . S
H3097 C3073 0.949 . S
H3098 C3075 0.950 . S
H3099 C3077 0.950 . S
C3100 C3101 1.349 . S
C3100 C3102 1.327 . S
C3100 H3125 0.950 . S
C3101 C3100 1.349 . S
C3101 C3117 1.349 . S
C3102 C3100 1.327 . S
C3102 C3121 1.429 . S
C3102 H3126 0.950 . S
C3103 C3120 1.574 . S
C3103 C3122 1.368 . S
C3103 H3127 0.949 . S
H3104 C3108 0.949 . S
C3105 C3106 1.349 . S
C3105 C3107 1.327 . S
C3105 H3128 0.950 . S
C3106 C3105 1.349 . S
C3106 C3118 1.349 . S
C3107 C3105 1.327 . S
C3107 C3123 1.429 . S
C3107 H3129 0.950 . S
C3108 H3104 0.949 . S
C3108 C3116 1.574 . S
C3108 C3124 1.368 . S
H3109 C3117 0.950 . S
H3110 C3115 0.950 . S
H3111 C3116 0.949 . S
H3112 C3118 0.950 . S
H3113 C3119 0.950 . S
H3114 C3120 0.949 . S
C3115 H3110 0.950 . S
C3115 C3117 1.327 . S
C3115 C3121 1.429 . S
C3116 C3108 1.574 . S
C3116 H3111 0.949 . S
C3116 C3122 1.368 . S
C3117 C3101 1.349 . S
C3117 H3109 0.950 . S
C3117 C3115 1.327 . S
C3118 C3106 1.349 . S
C3118 H3112 0.950 . S
C3118 C3119 1.327 . S
C3119 H3113 0.950 . S
C3119 C3118 1.327 . S
C3119 C3123 1.429 . S
C3120 C3103 1.574 . S
C3120 H3114 0.949 . S
C3120 C3124 1.368 . S
C3121 C3102 1.429 . S
C3121 C3115 1.429 . S
C3121 C3122 1.523 . S
C3122 C3103 1.368 . S
C3122 C3116 1.368 . S
C3122 C3121 1.523 . S
C3123 C3107 1.429 . S
C3123 C3119 1.429 . S
C3123 C3124 1.523 . S
C3124 C3108 1.368 . S
C3124 C3120 1.368 . S
C3124 C3123 1.523 . S
H3125 C3100 0.950 . S
H3126 C3102 0.950 . S
H3127 C3103 0.949 . S
H3128 C3105 0.950 . S
H3129 C3107 0.950 . S
C3130 C3131 1.349 . S
C3130 C3132 1.327 . S
C3130 H3155 0.950 . S
C3131 C3130 1.349 . S
C3131 C3147 1.349 . S
C3132 C3130 1.327 . S
C3132 C3151 1.429 . S
C3132 H3156 0.950 . S
C3133 C3150 1.574 . S
C3133 C3152 1.368 . S
C3133 H3157 0.949 . S
H3134 C3138 0.949 . S
C3135 C3136 1.349 . S
C3135 C3137 1.327 . S
C3135 H3158 0.950 . S
C3136 C3135 1.349 . S
C3136 C3148 1.349 . S
C3137 C3135 1.327 . S
C3137 C3153 1.429 . S
C3137 H3159 0.950 . S
C3138 H3134 0.949 . S
C3138 C3146 1.574 . S
C3138 C3154 1.368 . S
H3139 C3147 0.950 . S
H3140 C3145 0.950 . S
H3141 C3146 0.949 . S
H3142 C3148 0.950 . S
H3143 C3149 0.950 . S
H3144 C3150 0.949 . S
C3145 H3140 0.950 . S
C3145 C3147 1.327 . S
C3145 C3151 1.429 . S
C3146 C3138 1.574 . S
C3146 H3141 0.949 . S
C3146 C3152 1.368 . S
C3147 C3131 1.349 . S
C3147 H3139 0.950 . S
C3147 C3145 1.327 . S
C3148 C3136 1.349 . S
C3148 H3142 0.950 . S
C3148 C3149 1.327 . S
C3149 H3143 0.950 . S
C3149 C3148 1.327 . S
C3149 C3153 1.429 . S
C3150 C3133 1.574 . S
C3150 H3144 0.949 . S
C3150 C3154 1.368 . S
C3151 C3132 1.429 . S
C3151 C3145 1.429 . S
C3151 C3152 1.523 . S
C3152 C3133 1.368 . S
C3152 C3146 1.368 . S
C3152 C3151 1.523 . S
C3153 C3137 1.429 . S
C3153 C3149 1.429 . S
C3153 C3154 1.523 . S
C3154 C3138 1.368 . S
C3154 C3150 1.368 . S
C3154 C3153 1.523 . S
H3155 C3130 0.950 . S
H3156 C3132 0.950 . S
H3157 C3133 0.949 . S
H3158 C3135 0.950 . S
H3159 C3137 0.950 . S
C3160 C3161 1.349 . S
C3160 C3162 1.327 . S
C3160 H3185 0.950 . S
C3161 C3160 1.349 . S
C3161 C3177 1.349 . S
C3162 C3160 1.327 . S
C3162 C3181 1.429 . S
C3162 H3186 0.950 . S
C3163 C3180 1.574 . S
C3163 C3182 1.368 . S
C3163 H3187 0.949 . S
H3164 C3168 0.949 . S
C3165 C3166 1.349 . S
C3165 C3167 1.327 . S
C3165 H3188 0.950 . S
C3166 C3165 1.349 . S
C3166 C3178 1.349 . S
C3167 C3165 1.327 . S
C3167 C3183 1.429 . S
C3167 H3189 0.950 . S
C3168 H3164 0.949 . S
C3168 C3176 1.574 . S
C3168 C3184 1.368 . S
H3169 C3177 0.950 . S
H3170 C3175 0.950 . S
H3171 C3176 0.949 . S
H3172 C3178 0.950 . S
H3173 C3179 0.950 . S
H3174 C3180 0.949 . S
C3175 H3170 0.950 . S
C3175 C3177 1.327 . S
C3175 C3181 1.429 . S
C3176 C3168 1.574 . S
C3176 H3171 0.949 . S
C3176 C3182 1.368 . S
C3177 C3161 1.349 . S
C3177 H3169 0.950 . S
C3177 C3175 1.327 . S
C3178 C3166 1.349 . S
C3178 H3172 0.950 . S
C3178 C3179 1.327 . S
C3179 H3173 0.950 . S
C3179 C3178 1.327 . S
C3179 C3183 1.429 . S
C3180 C3163 1.574 . S
C3180 H3174 0.949 . S
C3180 C3184 1.368 . S
C3181 C3162 1.429 . S
C3181 C3175 1.429 . S
C3181 C3182 1.523 . S
C3182 C3163 1.368 . S
C3182 C3176 1.368 . S
C3182 C3181 1.523 . S
C3183 C3167 1.429 . S
C3183 C3179 1.429 . S
C3183 C3184 1.523 . S
C3184 C3168 1.368 . S
C3184 C3180 1.368 . S
C3184 C3183 1.523 . S
H3185 C3160 0.950 . S
H3186 C3162 0.950 . S
H3187 C3163 0.949 . S
H3188 C3165 0.950 . S
H3189 C3167 0.950 . S
C3190 C3191 1.349 . S
C3190 C3192 1.327 . S
C3190 H3215 0.950 . S
C3191 C3190 1.349 . S
C3191 C3207 1.349 . S
C3192 C3190 1.327 . S
C3192 C3211 1.429 . S
C3192 H3216 0.950 . S
C3193 C3210 1.574 . S
C3193 C3212 1.368 . S
C3193 H3217 0.949 . S
H3194 C3198 0.949 . S
C3195 C3196 1.349 . S
C3195 C3197 1.327 . S
C3195 H3218 0.950 . S
C3196 C3195 1.349 . S
C3196 C3208 1.349 . S
C3197 C3195 1.327 . S
C3197 C3213 1.429 . S
C3197 H3219 0.950 . S
C3198 H3194 0.949 . S
C3198 C3206 1.574 . S
C3198 C3214 1.368 . S
H3199 C3207 0.950 . S
H3200 C3205 0.950 . S
H3201 C3206 0.949 . S
H3202 C3208 0.950 . S
H3203 C3209 0.950 . S
H3204 C3210 0.949 . S
C3205 H3200 0.950 . S
C3205 C3207 1.327 . S
C3205 C3211 1.429 . S
C3206 C3198 1.574 . S
C3206 H3201 0.949 . S
C3206 C3212 1.368 . S
C3207 C3191 1.349 . S
C3207 H3199 0.950 . S
C3207 C3205 1.327 . S
C3208 C3196 1.349 . S
C3208 H3202 0.950 . S
C3208 C3209 1.327 . S
C3209 H3203 0.950 . S
C3209 C3208 1.327 . S
C3209 C3213 1.429 . S
C3210 C3193 1.574 . S
C3210 H3204 0.949 . S
C3210 C3214 1.368 . S
C3211 C3192 1.429 . S
C3211 C3205 1.429 . S
C3211 C3212 1.523 . S
C3212 C3193 1.368 . S
C3212 C3206 1.368 . S
C3212 C3211 1.523 . S
C3213 C3197 1.429 . S
C3213 C3209 1.429 . S
C3213 C3214 1.523 . S
C3214 C3198 1.368 . S
C3214 C3210 1.368 . S
C3214 C3213 1.523 . S
H3215 C3190 0.950 . S
H3216 C3192 0.950 . S
H3217 C3193 0.949 . S
H3218 C3195 0.950 . S
H3219 C3197 0.950 . S
C3220 C3221 1.349 . S
C3220 C3222 1.327 . S
C3220 H3245 0.950 . S
C3221 C3220 1.349 . S
C3221 C3237 1.349 . S
C3222 C3220 1.327 . S
C3222 C3241 1.429 . S
C3222 H3246 0.950 . S
C3223 C3240 1.574 . S
C3223 C3242 1.368 . S
C3223 H3247 0.949 . S
H3224 C3228 0.949 . S
C3225 C3226 1.349 . S
C3225 C3227 1.327 . S
C3225 H3248 0.950 . S
C3226 C3225 1.349 . S
C3226 C3238 1.349 . S
C3227 C3225 1.327 . S
C3227 C3243 1.429 . S
C3227 H3249 0.950 . S
C3228 H3224 0.949 . S
C3228 C3236 1.574 . S
C3228 C3244 1.368 . S
H3229 C3237 0.950 . S
H3230 C3235 0.950 . S
H3231 C3236 0.949 . S
H3232 C3238 0.950 . S
H3233 C3239 0.950 . S
H3234 C3240 0.949 . S
C3235 H3230 0.950 . S
C3235 C3237 1.327 . S
C3235 C3241 1.429 . S
C3236 C3228 1.574 . S
C3236 H3231 0.949 . S
C3236 C3242 1.368 . S
C3237 C3221 1.349 . S
C3237 H3229 0.950 . S
C3237 C3235 1.327 . S
C3238 C3226 1.349 . S
C3238 H3232 0.950 . S
C3238 C3239 1.327 . S
C3239 H3233 0.950 . S
C3239 C3238 1.327 . S
C3239 C3243 1.429 . S
C3240 C3223 1.574 . S
C3240 H3234 0.949 . S
C3240 C3244 1.368 . S
C3241 C3222 1.429 . S
C3241 C3235 1.429 . S
C3241 C3242 1.523 . S
C3242 C3223 1.368 . S
C3242 C3236 1.368 . S
C3242 C3241 1.523 . S
C3243 C3227 1.429 . S
C3243 C3239 1.429 . S
C3243 C3244 1.523 . S
C3244 C3228 1.368 . S
C3244 C3240 1.368 . S
C3244 C3243 1.523 . S
H3245 C3220 0.950 . S
H3246 C3222 0.950 . S
H3247 C3223 0.949 . S
H3248 C3225 0.950 . S
H3249 C3227 0.950 . S
C3250 C3251 1.349 . S
C3250 C3252 1.327 . S
C3250 H3275 0.950 . S
C3251 C3250 1.349 . S
C3251 C3267 1.349 . S
C3252 C3250 1.327 . S
C3252 C3271 1.429 . S
C3252 H3276 0.950 . S
C3253 C3270 1.574 . S
C3253 C3272 1.368 . S
C3253 H3277 0.949 . S
H3254 C3258 0.949 . S
C3255 C3256 1.349 . S
C3255 C3257 1.327 . S
C3255 H3278 0.950 . S
C3256 C3255 1.349 . S
C3256 C3268 1.349 . S
C3257 C3255 1.327 . S
C3257 C3273 1.429 . S
C3257 H3279 0.950 . S
C3258 H3254 0.949 . S
C3258 C3266 1.574 . S
C3258 C3274 1.368 . S
H3259 C3267 0.950 . S
H3260 C3265 0.950 . S
H3261 C3266 0.949 . S
H3262 C3268 0.950 . S
H3263 C3269 0.950 . S
H3264 C3270 0.949 . S
C3265 H3260 0.950 . S
C3265 C3267 1.327 . S
C3265 C3271 1.429 . S
C3266 C3258 1.574 . S
C3266 H3261 0.949 . S
C3266 C3272 1.368 . S
C3267 C3251 1.349 . S
C3267 H3259 0.950 . S
C3267 C3265 1.327 . S
C3268 C3256 1.349 . S
C3268 H3262 0.950 . S
C3268 C3269 1.327 . S
C3269 H3263 0.950 . S
C3269 C3268 1.327 . S
C3269 C3273 1.429 . S
C3270 C3253 1.574 . S
C3270 H3264 0.949 . S
C3270 C3274 1.368 . S
C3271 C3252 1.429 . S
C3271 C3265 1.429 . S
C3271 C3272 1.523 . S
C3272 C3253 1.368 . S
C3272 C3266 1.368 . S
C3272 C3271 1.523 . S
C3273 C3257 1.429 . S
C3273 C3269 1.429 . S
C3273 C3274 1.523 . S
C3274 C3258 1.368 . S
C3274 C3270 1.368 . S
C3274 C3273 1.523 . S
H3275 C3250 0.950 . S
H3276 C3252 0.950 . S
H3277 C3253 0.949 . S
H3278 C3255 0.950 . S
H3279 C3257 0.950 . S
C3280 C3281 1.349 . S
C3280 C3282 1.327 . S
C3280 H3305 0.950 . S
C3281 C3280 1.349 . S
C3281 C3297 1.349 . S
C3282 C3280 1.327 . S
C3282 C3301 1.429 . S
C3282 H3306 0.950 . S
C3283 C3300 1.574 . S
C3283 C3302 1.368 . S
C3283 H3307 0.949 . S
H3284 C3288 0.949 . S
C3285 C3286 1.349 . S
C3285 C3287 1.327 . S
C3285 H3308 0.950 . S
C3286 C3285 1.349 . S
C3286 C3298 1.349 . S
C3287 C3285 1.327 . S
C3287 C3303 1.429 . S
C3287 H3309 0.950 . S
C3288 H3284 0.949 . S
C3288 C3296 1.574 . S
C3288 C3304 1.368 . S
H3289 C3297 0.950 . S
H3290 C3295 0.950 . S
H3291 C3296 0.949 . S
H3292 C3298 0.950 . S
H3293 C3299 0.950 . S
H3294 C3300 0.949 . S
C3295 H3290 0.950 . S
C3295 C3297 1.327 . S
C3295 C3301 1.429 . S
C3296 C3288 1.574 . S
C3296 H3291 0.949 . S
C3296 C3302 1.368 . S
C3297 C3281 1.349 . S
C3297 H3289 0.950 . S
C3297 C3295 1.327 . S
C3298 C3286 1.349 . S
C3298 H3292 0.950 . S
C3298 C3299 1.327 . S
C3299 H3293 0.950 . S
C3299 C3298 1.327 . S
C3299 C3303 1.429 . S
C3300 C3283 1.574 . S
C3300 H3294 0.949 . S
C3300 C3304 1.368 . S
C3301 C3282 1.429 . S
C3301 C3295 1.429 . S
C3301 C3302 1.523 . S
C3302 C3283 1.368 . S
C3302 C3296 1.368 . S
C3302 C3301 1.523 . S
C3303 C3287 1.429 . S
C3303 C3299 1.429 . S
C3303 C3304 1.523 . S
C3304 C3288 1.368 . S
C3304 C3300 1.368 . S
C3304 C3303 1.523 . S
H3305 C3280 0.950 . S
H3306 C3282 0.950 . S
H3307 C3283 0.949 . S
H3308 C3285 0.950 . S
H3309 C3287 0.950 . S
C3310 C3311 1.349 . S
C3310 C3312 1.327 . S
C3310 H3335 0.950 . S
C3311 C3310 1.349 . S
C3311 C3327 1.349 . S
C3312 C3310 1.327 . S
C3312 C3331 1.429 . S
C3312 H3336 0.950 . S
C3313 C3330 1.574 . S
C3313 C3332 1.368 . S
C3313 H3337 0.949 . S
H3314 C3318 0.949 . S
C3315 C3316 1.349 . S
C3315 C3317 1.327 . S
C3315 H3338 0.950 . S
C3316 C3315 1.349 . S
C3316 C3328 1.349 . S
C3317 C3315 1.327 . S
C3317 C3333 1.429 . S
C3317 H3339 0.950 . S
C3318 H3314 0.949 . S
C3318 C3326 1.574 . S
C3318 C3334 1.368 . S
H3319 C3327 0.950 . S
H3320 C3325 0.950 . S
H3321 C3326 0.949 . S
H3322 C3328 0.950 . S
H3323 C3329 0.950 . S
H3324 C3330 0.949 . S
C3325 H3320 0.950 . S
C3325 C3327 1.327 . S
C3325 C3331 1.429 . S
C3326 C3318 1.574 . S
C3326 H3321 0.949 . S
C3326 C3332 1.368 . S
C3327 C3311 1.349 . S
C3327 H3319 0.950 . S
C3327 C3325 1.327 . S
C3328 C3316 1.349 . S
C3328 H3322 0.950 . S
C3328 C3329 1.327 . S
C3329 H3323 0.950 . S
C3329 C3328 1.327 . S
C3329 C3333 1.429 . S
C3330 C3313 1.574 . S
C3330 H3324 0.949 . S
C3330 C3334 1.368 . S
C3331 C3312 1.429 . S
C3331 C3325 1.429 . S
C3331 C3332 1.523 . S
C3332 C3313 1.368 . S
C3332 C3326 1.368 . S
C3332 C3331 1.523 . S
C3333 C3317 1.429 . S
C3333 C3329 1.429 . S
C3333 C3334 1.523 . S
C3334 C3318 1.368 . S
C3334 C3330 1.368 . S
C3334 C3333 1.523 . S
H3335 C3310 0.950 . S
H3336 C3312 0.950 . S
H3337 C3313 0.949 . S
H3338 C3315 0.950 . S
H3339 C3317 0.950 . S
C3340 C3341 1.349 . S
C3340 C3342 1.327 . S
C3340 H3365 0.950 . S
C3341 C3340 1.349 . S
C3341 C3357 1.349 . S
C3342 C3340 1.327 . S
C3342 C3361 1.429 . S
C3342 H3366 0.950 . S
C3343 C3360 1.574 . S
C3343 C3362 1.368 . S
C3343 H3367 0.949 . S
H3344 C3348 0.949 . S
C3345 C3346 1.349 . S
C3345 C3347 1.327 . S
C3345 H3368 0.950 . S
C3346 C3345 1.349 . S
C3346 C3358 1.349 . S
C3347 C3345 1.327 . S
C3347 C3363 1.429 . S
C3347 H3369 0.950 . S
C3348 H3344 0.949 . S
C3348 C3356 1.574 . S
C3348 C3364 1.368 . S
H3349 C3357 0.950 . S
H3350 C3355 0.950 . S
H3351 C3356 0.949 . S
H3352 C3358 0.950 . S
H3353 C3359 0.950 . S
H3354 C3360 0.949 . S
C3355 H3350 0.950 . S
C3355 C3357 1.327 . S
C3355 C3361 1.429 . S
C3356 C3348 1.574 . S
C3356 H3351 0.949 . S
C3356 C3362 1.368 . S
C3357 C3341 1.349 . S
C3357 H3349 0.950 . S
C3357 C3355 1.327 . S
C3358 C3346 1.349 . S
C3358 H3352 0.950 . S
C3358 C3359 1.327 . S
C3359 H3353 0.950 . S
C3359 C3358 1.327 . S
C3359 C3363 1.429 . S
C3360 C3343 1.574 . S
C3360 H3354 0.949 . S
C3360 C3364 1.368 . S
C3361 C3342 1.429 . S
C3361 C3355 1.429 . S
C3361 C3362 1.523 . S
C3362 C3343 1.368 . S
C3362 C3356 1.368 . S
C3362 C3361 1.523 . S
C3363 C3347 1.429 . S
C3363 C3359 1.429 . S
C3363 C3364 1.523 . S
C3364 C3348 1.368 . S
C3364 C3360 1.368 . S
C3364 C3363 1.523 . S
H3365 C3340 0.950 . S
H3366 C3342 0.950 . S
H3367 C3343 0.949 . S
H3368 C3345 0.950 . S
H3369 C3347 0.950 . S
C3370 C3371 1.349 . S
C3370 C3372 1.327 . S
C3370 H3395 0.950 . S
C3371 C3370 1.349 . S
C3371 C3387 1.349 . S
C3372 C3370 1.327 . S
C3372 C3391 1.429 . S
C3372 H3396 0.950 . S
C3373 C3390 1.574 . S
C3373 C3392 1.368 . S
C3373 H3397 0.949 . S
H3374 C3378 0.949 . S
C3375 C3376 1.349 . S
C3375 C3377 1.327 . S
C3375 H3398 0.950 . S
C3376 C3375 1.349 . S
C3376 C3388 1.349 . S
C3377 C3375 1.327 . S
C3377 C3393 1.429 . S
C3377 H3399 0.950 . S
C3378 H3374 0.949 . S
C3378 C3386 1.574 . S
C3378 C3394 1.368 . S
H3379 C3387 0.950 . S
H3380 C3385 0.950 . S
H3381 C3386 0.949 . S
H3382 C3388 0.950 . S
H3383 C3389 0.950 . S
H3384 C3390 0.949 . S
C3385 H3380 0.950 . S
C3385 C3387 1.327 . S
C3385 C3391 1.429 . S
C3386 C3378 1.574 . S
C3386 H3381 0.949 . S
C3386 C3392 1.368 . S
C3387 C3371 1.349 . S
C3387 H3379 0.950 . S
C3387 C3385 1.327 . S
C3388 C3376 1.349 . S
C3388 H3382 0.950 . S
C3388 C3389 1.327 . S
C3389 H3383 0.950 . S
C3389 C3388 1.327 . S
C3389 C3393 1.429 . S
C3390 C3373 1.574 . S
C3390 H3384 0.949 . S
C3390 C3394 1.368 . S
C3391 C3372 1.429 . S
C3391 C3385 1.429 . S
C3391 C3392 1.523 . S
C3392 C3373 1.368 . S
C3392 C3386 1.368 . S
C3392 C3391 1.523 . S
C3393 C3377 1.429 . S
C3393 C3389 1.429 . S
C3393 C3394 1.523 . S
C3394 C3378 1.368 . S
C3394 C3390 1.368 . S
C3394 C3393 1.523 . S
H3395 C3370 0.950 . S
H3396 C3372 0.950 . S
H3397 C3373 0.949 . S
H3398 C3375 0.950 . S
H3399 C3377 0.950 . S
C3400 C3401 1.349 . S
C3400 C3402 1.327 . S
C3400 H3425 0.950 . S
C3401 C3400 1.349 . S
C3401 C3417 1.349 . S
C3402 C3400 1.327 . S
C3402 C3421 1.429 . S
C3402 H3426 0.950 . S
C3403 C3420 1.574 . S
C3403 C3422 1.368 . S
C3403 H3427 0.949 . S
H3404 C3408 0.949 . S
C3405 C3406 1.349 . S
C3405 C3407 1.327 . S
C3405 H3428 0.950 . S
C3406 C3405 1.349 . S
C3406 C3418 1.349 . S
C3407 C3405 1.327 . S
C3407 C3423 1.429 . S
C3407 H3429 0.950 . S
C3408 H3404 0.949 . S
C3408 C3416 1.574 . S
C3408 C3424 1.368 . S
H3409 C3417 0.950 . S
H3410 C3415 0.950 . S
H3411 C3416 0.949 . S
H3412 C3418 0.950 . S
H3413 C3419 0.950 . S
H3414 C3420 0.949 . S
C3415 H3410 0.950 . S
C3415 C3417 1.327 . S
C3415 C3421 1.429 . S
C3416 C3408 1.574 . S
C3416 H3411 0.949 . S
C3416 C3422 1.368 . S
C3417 C3401 1.349 . S
C3417 H3409 0.950 . S
C3417 C3415 1.327 . S
C3418 C3406 1.349 . S
C3418 H3412 0.950 . S
C3418 C3419 1.327 . S
C3419 H3413 0.950 . S
C3419 C3418 1.327 . S
C3419 C3423 1.429 . S
C3420 C3403 1.574 . S
C3420 H3414 0.949 . S
C3420 C3424 1.368 . S
C3421 C3402 1.429 . S
C3421 C3415 1.429 . S
C3421 C3422 1.523 . S
C3422 C3403 1.368 . S
C3422 C3416 1.368 . S
C3422 C3421 1.523 . S
C3423 C3407 1.429 . S
C3423 C3419 1.429 . S
C3423 C3424 1.523 . S
C3424 C3408 1.368 . S
C3424 C3420 1.368 . S
C3424 C3423 1.523 . S
H3425 C3400 0.950 . S
H3426 C3402 0.950 . S
H3427 C3403 0.949 . S
H3428 C3405 0.950 . S
H3429 C3407 0.950 . S
C3430 C3431 1.349 . S
C3430 C3432 1.327 . S
C3430 H3455 0.950 . S
C3431 C3430 1.349 . S
C3431 C3447 1.349 . S
C3432 C3430 1.327 . S
C3432 C3451 1.429 . S
C3432 H3456 0.950 . S
C3433 C3450 1.574 . S
C3433 C3452 1.368 . S
C3433 H3457 0.949 . S
H3434 C3438 0.949 . S
C3435 C3436 1.349 . S
C3435 C3437 1.327 . S
C3435 H3458 0.950 . S
C3436 C3435 1.349 . S
C3436 C3448 1.349 . S
C3437 C3435 1.327 . S
C3437 C3453 1.429 . S
C3437 H3459 0.950 . S
C3438 H3434 0.949 . S
C3438 C3446 1.574 . S
C3438 C3454 1.368 . S
H3439 C3447 0.950 . S
H3440 C3445 0.950 . S
H3441 C3446 0.949 . S
H3442 C3448 0.950 . S
H3443 C3449 0.950 . S
H3444 C3450 0.949 . S
C3445 H3440 0.950 . S
C3445 C3447 1.327 . S
C3445 C3451 1.429 . S
C3446 C3438 1.574 . S
C3446 H3441 0.949 . S
C3446 C3452 1.368 . S
C3447 C3431 1.349 . S
C3447 H3439 0.950 . S
C3447 C3445 1.327 . S
C3448 C3436 1.349 . S
C3448 H3442 0.950 . S
C3448 C3449 1.327 . S
C3449 H3443 0.950 . S
C3449 C3448 1.327 . S
C3449 C3453 1.429 . S
C3450 C3433 1.574 . S
C3450 H3444 0.949 . S
C3450 C3454 1.368 . S
C3451 C3432 1.429 . S
C3451 C3445 1.429 . S
C3451 C3452 1.523 . S
C3452 C3433 1.368 . S
C3452 C3446 1.368 . S
C3452 C3451 1.523 . S
C3453 C3437 1.429 . S
C3453 C3449 1.429 . S
C3453 C3454 1.523 . S
C3454 C3438 1.368 . S
C3454 C3450 1.368 . S
C3454 C3453 1.523 . S
H3455 C3430 0.950 . S
H3456 C3432 0.950 . S
H3457 C3433 0.949 . S
H3458 C3435 0.950 . S
H3459 C3437 0.950 . S
C3460 C3461 1.349 . S
C3460 C3462 1.327 . S
C3460 H3485 0.950 . S
C3461 C3460 1.349 . S
C3461 C3477 1.349 . S
C3462 C3460 1.327 . S
C3462 C3481 1.429 . S
C3462 H3486 0.950 . S
C3463 C3480 1.574 . S
C3463 C3482 1.368 . S
C3463 H3487 0.949 . S
H3464 C3468 0.949 . S
C3465 C3466 1.349 . S
C3465 C3467 1.327 . S
C3465 H3488 0.950 . S
C3466 C3465 1.349 . S
C3466 C3478 1.349 . S
C3467 C3465 1.327 . S
C3467 C3483 1.429 . S
C3467 H3489 0.950 . S
C3468 H3464 0.949 . S
C3468 C3476 1.574 . S
C3468 C3484 1.368 . S
H3469 C3477 0.950 . S
H3470 C3475 0.950 . S
H3471 C3476 0.949 . S
H3472 C3478 0.950 . S
H3473 C3479 0.950 . S
H3474 C3480 0.949 . S
C3475 H3470 0.950 . S
C3475 C3477 1.327 . S
C3475 C3481 1.429 . S
C3476 C3468 1.574 . S
C3476 H3471 0.949 . S
C3476 C3482 1.368 . S
C3477 C3461 1.349 . S
C3477 H3469 0.950 . S
C3477 C3475 1.327 . S
C3478 C3466 1.349 . S
C3478 H3472 0.950 . S
C3478 C3479 1.327 . S
C3479 H3473 0.950 . S
C3479 C3478 1.327 . S
C3479 C3483 1.429 . S
C3480 C3463 1.574 . S
C3480 H3474 0.949 . S
C3480 C3484 1.368 . S
C3481 C3462 1.429 . S
C3481 C3475 1.429 . S
C3481 C3482 1.523 . S
C3482 C3463 1.368 . S
C3482 C3476 1.368 . S
C3482 C3481 1.523 . S
C3483 C3467 1.429 . S
C3483 C3479 1.429 . S
C3483 C3484 1.523 . S
C3484 C3468 1.368 . S
C3484 C3480 1.368 . S
C3484 C3483 1.523 . S
H3485 C3460 0.950 . S
H3486 C3462 0.950 . S
H3487 C3463 0.949 . S
H3488 C3465 0.950 . S
H3489 C3467 0.950 . S
C3490 C3491 1.349 . S
C3490 C3492 1.327 . S
C3490 H3515 0.950 . S
C3491 C3490 1.349 . S
C3491 C3507 1.349 . S
C3492 C3490 1.327 . S
C3492 C3511 1.429 . S
C3492 H3516 0.950 . S
C3493 C3510 1.574 . S
C3493 C3512 1.368 . S
C3493 H3517 0.949 . S
H3494 C3498 0.949 . S
C3495 C3496 1.349 . S
C3495 C3497 1.327 . S
C3495 H3518 0.950 . S
C3496 C3495 1.349 . S
C3496 C3508 1.349 . S
C3497 C3495 1.327 . S
C3497 C3513 1.429 . S
C3497 H3519 0.950 . S
C3498 H3494 0.949 . S
C3498 C3506 1.574 . S
C3498 C3514 1.368 . S
H3499 C3507 0.950 . S
H3500 C3505 0.950 . S
H3501 C3506 0.949 . S
H3502 C3508 0.950 . S
H3503 C3509 0.950 . S
H3504 C3510 0.949 . S
C3505 H3500 0.950 . S
C3505 C3507 1.327 . S
C3505 C3511 1.429 . S
C3506 C3498 1.574 . S
C3506 H3501 0.949 . S
C3506 C3512 1.368 . S
C3507 C3491 1.349 . S
C3507 H3499 0.950 . S
C3507 C3505 1.327 . S
C3508 C3496 1.349 . S
C3508 H3502 0.950 . S
C3508 C3509 1.327 . S
C3509 H3503 0.950 . S
C3509 C3508 1.327 . S
C3509 C3513 1.429 . S
C3510 C3493 1.574 . S
C3510 H3504 0.949 . S
C3510 C3514 1.368 . S
C3511 C3492 1.429 . S
C3511 C3505 1.429 . S
C3511 C3512 1.523 . S
C3512 C3493 1.368 . S
C3512 C3506 1.368 . S
C3512 C3511 1.523 . S
C3513 C3497 1.429 . S
C3513 C3509 1.429 . S
C3513 C3514 1.523 . S
C3514 C3498 1.368 . S
C3514 C3510 1.368 . S
C3514 C3513 1.523 . S
H3515 C3490 0.950 . S
H3516 C3492 0.950 . S
H3517 C3493 0.949 . S
H3518 C3495 0.950 . S
H3519 C3497 0.950 . S
C3520 C3521 1.349 . S
C3520 C3522 1.327 . S
C3520 H3545 0.950 . S
C3521 C3520 1.349 . S
C3521 C3537 1.349 . S
C3522 C3520 1.327 . S
C3522 C3541 1.429 . S
C3522 H3546 0.950 . S
C3523 C3540 1.574 . S
C3523 C3542 1.368 . S
C3523 H3547 0.949 . S
H3524 C3528 0.949 . S
C3525 C3526 1.349 . S
C3525 C3527 1.327 . S
C3525 H3548 0.950 . S
C3526 C3525 1.349 . S
C3526 C3538 1.349 . S
C3527 C3525 1.327 . S
C3527 C3543 1.429 . S
C3527 H3549 0.950 . S
C3528 H3524 0.949 . S
C3528 C3536 1.574 . S
C3528 C3544 1.368 . S
H3529 C3537 0.950 . S
H3530 C3535 0.950 . S
H3531 C3536 0.949 . S
H3532 C3538 0.950 . S
H3533 C3539 0.950 . S
H3534 C3540 0.949 . S
C3535 H3530 0.950 . S
C3535 C3537 1.327 . S
C3535 C3541 1.429 . S
C3536 C3528 1.574 . S
C3536 H3531 0.949 . S
C3536 C3542 1.368 . S
C3537 C3521 1.349 . S
C3537 H3529 0.950 . S
C3537 C3535 1.327 . S
C3538 C3526 1.349 . S
C3538 H3532 0.950 . S
C3538 C3539 1.327 . S
C3539 H3533 0.950 . S
C3539 C3538 1.327 . S
C3539 C3543 1.429 . S
C3540 C3523 1.574 . S
C3540 H3534 0.949 . S
C3540 C3544 1.368 . S
C3541 C3522 1.429 . S
C3541 C3535 1.429 . S
C3541 C3542 1.523 . S
C3542 C3523 1.368 . S
C3542 C3536 1.368 . S
C3542 C3541 1.523 . S
C3543 C3527 1.429 . S
C3543 C3539 1.429 . S
C3543 C3544 1.523 . S
C3544 C3528 1.368 . S
C3544 C3540 1.368 . S
C3544 C3543 1.523 . S
H3545 C3520 0.950 . S
H3546 C3522 0.950 . S
H3547 C3523 0.949 . S
H3548 C3525 0.950 . S
H3549 C3527 0.950 . S
C3550 C3551 1.349 . S
C3550 C3552 1.327 . S
C3550 H3575 0.950 . S
C3551 C3550 1.349 . S
C3551 C3567 1.349 . S
C3552 C3550 1.327 . S
C3552 C3571 1.429 . S
C3552 H3576 0.950 . S
C3553 C3570 1.574 . S
C3553 C3572 1.368 . S
C3553 H3577 0.949 . S
H3554 C3558 0.949 . S
C3555 C3556 1.349 . S
C3555 C3557 1.327 . S
C3555 H3578 0.950 . S
C3556 C3555 1.349 . S
C3556 C3568 1.349 . S
C3557 C3555 1.327 . S
C3557 C3573 1.429 . S
C3557 H3579 0.950 . S
C3558 H3554 0.949 . S
C3558 C3566 1.574 . S
C3558 C3574 1.368 . S
H3559 C3567 0.950 . S
H3560 C3565 0.950 . S
H3561 C3566 0.949 . S
H3562 C3568 0.950 . S
H3563 C3569 0.950 . S
H3564 C3570 0.949 . S
C3565 H3560 0.950 . S
C3565 C3567 1.327 . S
C3565 C3571 1.429 . S
C3566 C3558 1.574 . S
C3566 H3561 0.949 . S
C3566 C3572 1.368 . S
C3567 C3551 1.349 . S
C3567 H3559 0.950 . S
C3567 C3565 1.327 . S
C3568 C3556 1.349 . S
C3568 H3562 0.950 . S
C3568 C3569 1.327 . S
C3569 H3563 0.950 . S
C3569 C3568 1.327 . S
C3569 C3573 1.429 . S
C3570 C3553 1.574 . S
C3570 H3564 0.949 . S
C3570 C3574 1.368 . S
C3571 C3552 1.429 . S
C3571 C3565 1.429 . S
C3571 C3572 1.523 . S
C3572 C3553 1.368 . S
C3572 C3566 1.368 . S
C3572 C3571 1.523 . S
C3573 C3557 1.429 . S
C3573 C3569 1.429 . S
C3573 C3574 1.523 . S
C3574 C3558 1.368 . S
C3574 C3570 1.368 . S
C3574 C3573 1.523 . S
H3575 C3550 0.950 . S
H3576 C3552 0.950 . S
H3577 C3553 0.949 . S
H3578 C3555 0.950 . S
H3579 C3557 0.950 . S
C3580 C3581 1.349 . S
C3580 C3582 1.327 . S
C3580 H3605 0.950 . S
C3581 C3580 1.349 . S
C3581 C3597 1.349 . S
C3582 C3580 1.327 . S
C3582 C3601 1.429 . S
C3582 H3606 0.950 . S
C3583 C3600 1.574 . S
C3583 C3602 1.368 . S
C3583 H3607 0.949 . S
H3584 C3588 0.949 . S
C3585 C3586 1.349 . S
C3585 C3587 1.327 . S
C3585 H3608 0.950 . S
C3586 C3585 1.349 . S
C3586 C3598 1.349 . S
C3587 C3585 1.327 . S
C3587 C3603 1.429 . S
C3587 H3609 0.950 . S
C3588 H3584 0.949 . S
C3588 C3596 1.574 . S
C3588 C3604 1.368 . S
H3589 C3597 0.950 . S
H3590 C3595 0.950 . S
H3591 C3596 0.949 . S
H3592 C3598 0.950 . S
H3593 C3599 0.950 . S
H3594 C3600 0.949 . S
C3595 H3590 0.950 . S
C3595 C3597 1.327 . S
C3595 C3601 1.429 . S
C3596 C3588 1.574 . S
C3596 H3591 0.949 . S
C3596 C3602 1.368 . S
C3597 C3581 1.349 . S
C3597 H3589 0.950 . S
C3597 C3595 1.327 . S
C3598 C3586 1.349 . S
C3598 H3592 0.950 . S
C3598 C3599 1.327 . S
C3599 H3593 0.950 . S
C3599 C3598 1.327 . S
C3599 C3603 1.429 . S
C3600 C3583 1.574 . S
C3600 H3594 0.949 . S
C3600 C3604 1.368 . S
C3601 C3582 1.429 . S
C3601 C3595 1.429 . S
C3601 C3602 1.523 . S
C3602 C3583 1.368 . S
C3602 C3596 1.368 . S
C3602 C3601 1.523 . S
C3603 C3587 1.429 . S
C3603 C3599 1.429 . S
C3603 C3604 1.523 . S
C3604 C3588 1.368 . S
C3604 C3600 1.368 . S
C3604 C3603 1.523 . S
H3605 C3580 0.950 . S
H3606 C3582 0.950 . S
H3607 C3583 0.949 . S
H3608 C3585 0.950 . S
H3609 C3587 0.950 . S
C3610 C3611 1.349 . S
C3610 C3612 1.327 . S
C3610 H3635 0.950 . S
C3611 C3610 1.349 . S
C3611 C3627 1.349 . S
C3612 C3610 1.327 . S
C3612 C3631 1.429 . S
C3612 H3636 0.950 . S
C3613 C3630 1.574 . S
C3613 C3632 1.368 . S
C3613 H3637 0.949 . S
H3614 C3618 0.949 . S
C3615 C3616 1.349 . S
C3615 C3617 1.327 . S
C3615 H3638 0.950 . S
C3616 C3615 1.349 . S
C3616 C3628 1.349 . S
C3617 C3615 1.327 . S
C3617 C3633 1.429 . S
C3617 H3639 0.950 . S
C3618 H3614 0.949 . S
C3618 C3626 1.574 . S
C3618 C3634 1.368 . S
H3619 C3627 0.950 . S
H3620 C3625 0.950 . S
H3621 C3626 0.949 . S
H3622 C3628 0.950 . S
H3623 C3629 0.950 . S
H3624 C3630 0.949 . S
C3625 H3620 0.950 . S
C3625 C3627 1.327 . S
C3625 C3631 1.429 . S
C3626 C3618 1.574 . S
C3626 H3621 0.949 . S
C3626 C3632 1.368 . S
C3627 C3611 1.349 . S
C3627 H3619 0.950 . S
C3627 C3625 1.327 . S
C3628 C3616 1.349 . S
C3628 H3622 0.950 . S
C3628 C3629 1.327 . S
C3629 H3623 0.950 . S
C3629 C3628 1.327 . S
C3629 C3633 1.429 . S
C3630 C3613 1.574 . S
C3630 H3624 0.949 . S
C3630 C3634 1.368 . S
C3631 C3612 1.429 . S
C3631 C3625 1.429 . S
C3631 C3632 1.523 . S
C3632 C3613 1.368 . S
C3632 C3626 1.368 . S
C3632 C3631 1.523 . S
C3633 C3617 1.429 . S
C3633 C3629 1.429 . S
C3633 C3634 1.523 . S
C3634 C3618 1.368 . S
C3634 C3630 1.368 . S
C3634 C3633 1.523 . S
H3635 C3610 0.950 . S
H3636 C3612 0.950 . S
H3637 C3613 0.949 . S
H3638 C3615 0.950 . S
H3639 C3617 0.950 . S
C3640 C3641 1.349 . S
C3640 C3642 1.327 . S
C3640 H3665 0.950 . S
C3641 C3640 1.349 . S
C3641 C3657 1.349 . S
C3642 C3640 1.327 . S
C3642 C3661 1.429 . S
C3642 H3666 0.950 . S
C3643 C3660 1.574 . S
C3643 C3662 1.368 . S
C3643 H3667 0.949 . S
H3644 C3648 0.949 . S
C3645 C3646 1.349 . S
C3645 C3647 1.327 . S
C3645 H3668 0.950 . S
C3646 C3645 1.349 . S
C3646 C3658 1.349 . S
C3647 C3645 1.327 . S
C3647 C3663 1.429 . S
C3647 H3669 0.950 . S
C3648 H3644 0.949 . S
C3648 C3656 1.574 . S
C3648 C3664 1.368 . S
H3649 C3657 0.950 . S
H3650 C3655 0.950 . S
H3651 C3656 0.949 . S
H3652 C3658 0.950 . S
H3653 C3659 0.950 . S
H3654 C3660 0.949 . S
C3655 H3650 0.950 . S
C3655 C3657 1.327 . S
C3655 C3661 1.429 . S
C3656 C3648 1.574 . S
C3656 H3651 0.949 . S
C3656 C3662 1.368 . S
C3657 C3641 1.349 . S
C3657 H3649 0.950 . S
C3657 C3655 1.327 . S
C3658 C3646 1.349 . S
C3658 H3652 0.950 . S
C3658 C3659 1.327 . S
C3659 H3653 0.950 . S
C3659 C3658 1.327 . S
C3659 C3663 1.429 . S
C3660 C3643 1.574 . S
C3660 H3654 0.949 . S
C3660 C3664 1.368 . S
C3661 C3642 1.429 . S
C3661 C3655 1.429 . S
C3661 C3662 1.523 . S
C3662 C3643 1.368 . S
C3662 C3656 1.368 . S
C3662 C3661 1.523 . S
C3663 C3647 1.429 . S
C3663 C3659 1.429 . S
C3663 C3664 1.523 . S
C3664 C3648 1.368 . S
C3664 C3660 1.368 . S
C3664 C3663 1.523 . S
H3665 C3640 0.950 . S
H3666 C3642 0.950 . S
H3667 C3643 0.949 . S
H3668 C3645 0.950 . S
H3669 C3647 0.950 . S
C3670 C3671 1.349 . S
C3670 C3672 1.327 . S
C3670 H3695 0.950 . S
C3671 C3670 1.349 . S
C3671 C3687 1.349 . S
C3672 C3670 1.327 . S
C3672 C3691 1.429 . S
C3672 H3696 0.950 . S
C3673 C3690 1.574 . S
C3673 C3692 1.368 . S
C3673 H3697 0.949 . S
H3674 C3678 0.949 . S
C3675 C3676 1.349 . S
C3675 C3677 1.327 . S
C3675 H3698 0.950 . S
C3676 C3675 1.349 . S
C3676 C3688 1.349 . S
C3677 C3675 1.327 . S
C3677 C3693 1.429 . S
C3677 H3699 0.950 . S
C3678 H3674 0.949 . S
C3678 C3686 1.574 . S
C3678 C3694 1.368 . S
H3679 C3687 0.950 . S
H3680 C3685 0.950 . S
H3681 C3686 0.949 . S
H3682 C3688 0.950 . S
H3683 C3689 0.950 . S
H3684 C3690 0.949 . S
C3685 H3680 0.950 . S
C3685 C3687 1.327 . S
C3685 C3691 1.429 . S
C3686 C3678 1.574 . S
C3686 H3681 0.949 . S
C3686 C3692 1.368 . S
C3687 C3671 1.349 . S
C3687 H3679 0.950 . S
C3687 C3685 1.327 . S
C3688 C3676 1.349 . S
C3688 H3682 0.950 . S
C3688 C3689 1.327 . S
C3689 H3683 0.950 . S
C3689 C3688 1.327 . S
C3689 C3693 1.429 . S
C3690 C3673 1.574 . S
C3690 H3684 0.949 . S
C3690 C3694 1.368 . S
C3691 C3672 1.429 . S
C3691 C3685 1.429 . S
C3691 C3692 1.523 . S
C3692 C3673 1.368 . S
C3692 C3686 1.368 . S
C3692 C3691 1.523 . S
C3693 C3677 1.429 . S
C3693 C3689 1.429 . S
C3693 C3694 1.523 . S
C3694 C3678 1.368 . S
C3694 C3690 1.368 . S
C3694 C3693 1.523 . S
H3695 C3670 0.950 . S
H3696 C3672 0.950 . S
H3697 C3673 0.949 . S
H3698 C3675 0.950 . S
H3699 C3677 0.950 . S
C3700 C3701 1.349 . S
C3700 C3702 1.327 . S
C3700 H3725 0.950 . S
C3701 C3700 1.349 . S
C3701 C3717 1.349 . S
C3702 C3700 1.327 . S
C3702 C3721 1.429 . S
C3702 H3726 0.950 . S
C3703 C3720 1.574 . S
C3703 C3722 1.368 . S
C3703 H3727 0.949 . S
H3704 C3708 0.949 . S
C3705 C3706 1.349 . S
C3705 C3707 1.327 . S
C3705 H3728 0.950 . S
C3706 C3705 1.349 . S
C3706 C3718 1.349 . S
C3707 C3705 1.327 . S
C3707 C3723 1.429 . S
C3707 H3729 0.950 . S
C3708 H3704 0.949 . S
C3708 C3716 1.574 . S
C3708 C3724 1.368 . S
H3709 C3717 0.950 . S
H3710 C3715 0.950 . S
H3711 C3716 0.949 . S
H3712 C3718 0.950 . S
H3713 C3719 0.950 . S
H3714 C3720 0.949 . S
C3715 H3710 0.950 . S
C3715 C3717 1.327 . S
C3715 C3721 1.429 . S
C3716 C3708 1.574 . S
C3716 H3711 0.949 . S
C3716 C3722 1.368 . S
C3717 C3701 1.349 . S
C3717 H3709 0.950 . S
C3717 C3715 1.327 . S
C3718 C3706 1.349 . S
C3718 H3712 0.950 . S
C3718 C3719 1.327 . S
C3719 H3713 0.950 . S
C3719 C3718 1.327 . S
C3719 C3723 1.429 . S
C3720 C3703 1.574 . S
C3720 H3714 0.949 . S
C3720 C3724 1.368 . S
C3721 C3702 1.429 . S
C3721 C3715 1.429 . S
C3721 C3722 1.523 . S
C3722 C3703 1.368 . S
C3722 C3716 1.368 . S
C3722 C3721 1.523 . S
C3723 C3707 1.429 . S
C3723 C3719 1.429 . S
C3723 C3724 1.523 . S
C3724 C3708 1.368 . S
C3724 C3720 1.368 . S
C3724 C3723 1.523 . S
H3725 C3700 0.950 . S
H3726 C3702 0.950 . S
H3727 C3703 0.949 . S
H3728 C3705 0.950 . S
H3729 C3707 0.950 . S
C3730 C3731 1.349 . S
C3730 C3732 1.327 . S
C3730 H3755 0.950 . S
C3731 C3730 1.349 . S
C3731 C3747 1.349 . S
C3732 C3730 1.327 . S
C3732 C3751 1.429 . S
C3732 H3756 0.950 . S
C3733 C3750 1.574 . S
C3733 C3752 1.368 . S
C3733 H3757 0.949 . S
H3734 C3738 0.949 . S
C3735 C3736 1.349 . S
C3735 C3737 1.327 . S
C3735 H3758 0.950 . S
C3736 C3735 1.349 . S
C3736 C3748 1.349 . S
C3737 C3735 1.327 . S
C3737 C3753 1.429 . S
C3737 H3759 0.950 . S
C3738 H3734 0.949 . S
C3738 C3746 1.574 . S
C3738 C3754 1.368 . S
H3739 C3747 0.950 . S
H3740 C3745 0.950 . S
H3741 C3746 0.949 . S
H3742 C3748 0.950 . S
H3743 C3749 0.950 . S
H3744 C3750 0.949 . S
C3745 H3740 0.950 . S
C3745 C3747 1.327 . S
C3745 C3751 1.429 . S
C3746 C3738 1.574 . S
C3746 H3741 0.949 . S
C3746 C3752 1.368 . S
C3747 C3731 1.349 . S
C3747 H3739 0.950 . S
C3747 C3745 1.327 . S
C3748 C3736 1.349 . S
C3748 H3742 0.950 . S
C3748 C3749 1.327 . S
C3749 H3743 0.950 . S
C3749 C3748 1.327 . S
C3749 C3753 1.429 . S
C3750 C3733 1.574 . S
C3750 H3744 0.949 . S
C3750 C3754 1.368 . S
C3751 C3732 1.429 . S
C3751 C3745 1.429 . S
C3751 C3752 1.523 . S
C3752 C3733 1.368 . S
C3752 C3746 1.368 . S
C3752 C3751 1.523 . S
C3753 C3737 1.429 . S
C3753 C3749 1.429 . S
C3753 C3754 1.523 . S
C3754 C3738 1.368 . S
C3754 C3750 1.368 . S
C3754 C3753 1.523 . S
H3755 C3730 0.950 . S
H3756 C3732 0.950 . S
H3757 C3733 0.949 . S
H3758 C3735 0.950 . S
H3759 C3737 0.950 . S
C3760 C3761 1.349 . S
C3760 C3762 1.327 . S
C3760 H3785 0.950 . S
C3761 C3760 1.349 . S
C3761 C3777 1.349 . S
C3762 C3760 1.327 . S
C3762 C3781 1.429 . S
C3762 H3786 0.950 . S
C3763 C3780 1.574 . S
C3763 C3782 1.368 . S
C3763 H3787 0.949 . S
H3764 C3768 0.949 . S
C3765 C3766 1.349 . S
C3765 C3767 1.327 . S
C3765 H3788 0.950 . S
C3766 C3765 1.349 . S
C3766 C3778 1.349 . S
C3767 C3765 1.327 . S
C3767 C3783 1.429 . S
C3767 H3789 0.950 . S
C3768 H3764 0.949 . S
C3768 C3776 1.574 . S
C3768 C3784 1.368 . S
H3769 C3777 0.950 . S
H3770 C3775 0.950 . S
H3771 C3776 0.949 . S
H3772 C3778 0.950 . S
H3773 C3779 0.950 . S
H3774 C3780 0.949 . S
C3775 H3770 0.950 . S
C3775 C3777 1.327 . S
C3775 C3781 1.429 . S
C3776 C3768 1.574 . S
C3776 H3771 0.949 . S
C3776 C3782 1.368 . S
C3777 C3761 1.349 . S
C3777 H3769 0.950 . S
C3777 C3775 1.327 . S
C3778 C3766 1.349 . S
C3778 H3772 0.950 . S
C3778 C3779 1.327 . S
C3779 H3773 0.950 . S
C3779 C3778 1.327 . S
C3779 C3783 1.429 . S
C3780 C3763 1.574 . S
C3780 H3774 0.949 . S
C3780 C3784 1.368 . S
C3781 C3762 1.429 . S
C3781 C3775 1.429 . S
C3781 C3782 1.523 . S
C3782 C3763 1.368 . S
C3782 C3776 1.368 . S
C3782 C3781 1.523 . S
C3783 C3767 1.429 . S
C3783 C3779 1.429 . S
C3783 C3784 1.523 . S
C3784 C3768 1.368 . S
C3784 C3780 1.368 . S
C3784 C3783 1.523 . S
H3785 C3760 0.950 . S
H3786 C3762 0.950 . S
H3787 C3763 0.949 . S
H3788 C3765 0.950 . S
H3789 C3767 0.950 . S
C3790 C3791 1.349 . S
C3790 C3792 1.327 . S
C3790 H3815 0.950 . S
C3791 C3790 1.349 . S
C3791 C3807 1.349 . S
C3792 C3790 1.327 . S
C3792 C3811 1.429 . S
C3792 H3816 0.950 . S
C3793 C3810 1.574 . S
C3793 C3812 1.368 . S
C3793 H3817 0.949 . S
H3794 C3798 0.949 . S
C3795 C3796 1.349 . S
C3795 C3797 1.327 . S
C3795 H3818 0.950 . S
C3796 C3795 1.349 . S
C3796 C3808 1.349 . S
C3797 C3795 1.327 . S
C3797 C3813 1.429 . S
C3797 H3819 0.950 . S
C3798 H3794 0.949 . S
C3798 C3806 1.574 . S
C3798 C3814 1.368 . S
H3799 C3807 0.950 . S
H3800 C3805 0.950 . S
H3801 C3806 0.949 . S
H3802 C3808 0.950 . S
H3803 C3809 0.950 . S
H3804 C3810 0.949 . S
C3805 H3800 0.950 . S
C3805 C3807 1.327 . S
C3805 C3811 1.429 . S
C3806 C3798 1.574 . S
C3806 H3801 0.949 . S
C3806 C3812 1.368 . S
C3807 C3791 1.349 . S
C3807 H3799 0.950 . S
C3807 C3805 1.327 . S
C3808 C3796 1.349 . S
C3808 H3802 0.950 . S
C3808 C3809 1.327 . S
C3809 H3803 0.950 . S
C3809 C3808 1.327 . S
C3809 C3813 1.429 . S
C3810 C3793 1.574 . S
C3810 H3804 0.949 . S
C3810 C3814 1.368 . S
C3811 C3792 1.429 . S
C3811 C3805 1.429 . S
C3811 C3812 1.523 . S
C3812 C3793 1.368 . S
C3812 C3806 1.368 . S
C3812 C3811 1.523 . S
C3813 C3797 1.429 . S
C3813 C3809 1.429 . S
C3813 C3814 1.523 . S
C3814 C3798 1.368 . S
C3814 C3810 1.368 . S
C3814 C3813 1.523 . S
H3815 C3790 0.950 . S
H3816 C3792 0.950 . S
H3817 C3793 0.949 . S
H3818 C3795 0.950 . S
H3819 C3797 0.950 . S
C3820 C3821 1.349 . S
C3820 C3822 1.327 . S
C3820 H3845 0.950 . S
C3821 C3820 1.349 . S
C3821 C3837 1.349 . S
C3822 C3820 1.327 . S
C3822 C3841 1.429 . S
C3822 H3846 0.950 . S
C3823 C3840 1.574 . S
C3823 C3842 1.368 . S
C3823 H3847 0.949 . S
H3824 C3828 0.949 . S
C3825 C3826 1.349 . S
C3825 C3827 1.327 . S
C3825 H3848 0.950 . S
C3826 C3825 1.349 . S
C3826 C3838 1.349 . S
C3827 C3825 1.327 . S
C3827 C3843 1.429 . S
C3827 H3849 0.950 . S
C3828 H3824 0.949 . S
C3828 C3836 1.574 . S
C3828 C3844 1.368 . S
H3829 C3837 0.950 . S
H3830 C3835 0.950 . S
H3831 C3836 0.949 . S
H3832 C3838 0.950 . S
H3833 C3839 0.950 . S
H3834 C3840 0.949 . S
C3835 H3830 0.950 . S
C3835 C3837 1.327 . S
C3835 C3841 1.429 . S
C3836 C3828 1.574 . S
C3836 H3831 0.949 . S
C3836 C3842 1.368 . S
C3837 C3821 1.349 . S
C3837 H3829 0.950 . S
C3837 C3835 1.327 . S
C3838 C3826 1.349 . S
C3838 H3832 0.950 . S
C3838 C3839 1.327 . S
C3839 H3833 0.950 . S
C3839 C3838 1.327 . S
C3839 C3843 1.429 . S
C3840 C3823 1.574 . S
C3840 H3834 0.949 . S
C3840 C3844 1.368 . S
C3841 C3822 1.429 . S
C3841 C3835 1.429 . S
C3841 C3842 1.523 . S
C3842 C3823 1.368 . S
C3842 C3836 1.368 . S
C3842 C3841 1.523 . S
C3843 C3827 1.429 . S
C3843 C3839 1.429 . S
C3843 C3844 1.523 . S
C3844 C3828 1.368 . S
C3844 C3840 1.368 . S
C3844 C3843 1.523 . S
H3845 C3820 0.950 . S
H3846 C3822 0.950 . S
H3847 C3823 0.949 . S
H3848 C3825 0.950 . S
H3849 C3827 0.950 . S
C3850 C3851 1.349 . S
C3850 C3852 1.327 . S
C3850 H3875 0.950 . S
C3851 C3850 1.349 . S
C3851 C3867 1.349 . S
C3852 C3850 1.327 . S
C3852 C3871 1.429 . S
C3852 H3876 0.950 . S
C3853 C3870 1.574 . S
C3853 C3872 1.368 . S
C3853 H3877 0.949 . S
H3854 C3858 0.949 . S
C3855 C3856 1.349 . S
C3855 C3857 1.327 . S
C3855 H3878 0.950 . S
C3856 C3855 1.349 . S
C3856 C3868 1.349 . S
C3857 C3855 1.327 . S
C3857 C3873 1.429 . S
C3857 H3879 0.950 . S
C3858 H3854 0.949 . S
C3858 C3866 1.574 . S
C3858 C3874 1.368 . S
H3859 C3867 0.950 . S
H3860 C3865 0.950 . S
H3861 C3866 0.949 . S
H3862 C3868 0.950 . S
H3863 C3869 0.950 . S
H3864 C3870 0.949 . S
C3865 H3860 0.950 . S
C3865 C3867 1.327 . S
C3865 C3871 1.429 . S
C3866 C3858 1.574 . S
C3866 H3861 0.949 . S
C3866 C3872 1.368 . S
C3867 C3851 1.349 . S
C3867 H3859 0.950 . S
C3867 C3865 1.327 . S
C3868 C3856 1.349 . S
C3868 H3862 0.950 . S
C3868 C3869 1.327 . S
C3869 H3863 0.950 . S
C3869 C3868 1.327 . S
C3869 C3873 1.429 . S
C3870 C3853 1.574 . S
C3870 H3864 0.949 . S
C3870 C3874 1.368 . S
C3871 C3852 1.429 . S
C3871 C3865 1.429 . S
C3871 C3872 1.523 . S
C3872 C3853 1.368 . S
C3872 C3866 1.368 . S
C3872 C3871 1.523 . S
C3873 C3857 1.429 . S
C3873 C3869 1.429 . S
C3873 C3874 1.523 . S
C3874 C3858 1.368 . S
C3874 C3870 1.368 . S
C3874 C3873 1.523 . S
H3875 C3850 0.950 . S
H3876 C3852 0.950 . S
H3877 C3853 0.949 . S
H3878 C3855 0.950 . S
H3879 C3857 0.950 . S
C3880 C3881 1.349 . S
C3880 C3882 1.327 . S
C3880 H3905 0.950 . S
C3881 C3880 1.349 . S
C3881 C3897 1.349 . S
C3882 C3880 1.327 . S
C3882 C3901 1.429 . S
C3882 H3906 0.950 . S
C3883 C3900 1.574 . S
C3883 C3902 1.368 . S
C3883 H3907 0.949 . S
H3884 C3888 0.949 . S
C3885 C3886 1.349 . S
C3885 C3887 1.327 . S
C3885 H3908 0.950 . S
C3886 C3885 1.349 . S
C3886 C3898 1.349 . S
C3887 C3885 1.327 . S
C3887 C3903 1.429 . S
C3887 H3909 0.950 . S
C3888 H3884 0.949 . S
C3888 C3896 1.574 . S
C3888 C3904 1.368 . S
H3889 C3897 0.950 . S
H3890 C3895 0.950 . S
H3891 C3896 0.949 . S
H3892 C3898 0.950 . S
H3893 C3899 0.950 . S
H3894 C3900 0.949 . S
C3895 H3890 0.950 . S
C3895 C3897 1.327 . S
C3895 C3901 1.429 . S
C3896 C3888 1.574 . S
C3896 H3891 0.949 . S
C3896 C3902 1.368 . S
C3897 C3881 1.349 . S
C3897 H3889 0.950 . S
C3897 C3895 1.327 . S
C3898 C3886 1.349 . S
C3898 H3892 0.950 . S
C3898 C3899 1.327 . S
C3899 H3893 0.950 . S
C3899 C3898 1.327 . S
C3899 C3903 1.429 . S
C3900 C3883 1.574 . S
C3900 H3894 0.949 . S
C3900 C3904 1.368 . S
C3901 C3882 1.429 . S
C3901 C3895 1.429 . S
C3901 C3902 1.523 . S
C3902 C3883 1.368 . S
C3902 C3896 1.368 . S
C3902 C3901 1.523 . S
C3903 C3887 1.429 . S
C3903 C3899 1.429 . S
C3903 C3904 1.523 . S
C3904 C3888 1.368 . S
C3904 C3900 1.368 . S
C3904 C3903 1.523 . S
H3905 C3880 0.950 . S
H3906 C3882 0.950 . S
H3907 C3883 0.949 . S
H3908 C3885 0.950 . S
H3909 C3887 0.950 . S
C3910 C3911 1.349 . S
C3910 C3912 1.327 . S
C3910 H3935 0.950 . S
C3911 C3910 1.349 . S
C3911 C3927 1.349 . S
C3912 C3910 1.327 . S
C3912 C3931 1.429 . S
C3912 H3936 0.950 . S
C3913 C3930 1.574 . S
C3913 C3932 1.368 . S
C3913 H3937 0.949 . S
H3914 C3918 0.949 . S
C3915 C3916 1.349 . S
C3915 C3917 1.327 . S
C3915 H3938 0.950 . S
C3916 C3915 1.349 . S
C3916 C3928 1.349 . S
C3917 C3915 1.327 . S
C3917 C3933 1.429 . S
C3917 H3939 0.950 . S
C3918 H3914 0.949 . S
C3918 C3926 1.574 . S
C3918 C3934 1.368 . S
H3919 C3927 0.950 . S
H3920 C3925 0.950 . S
H3921 C3926 0.949 . S
H3922 C3928 0.950 . S
H3923 C3929 0.950 . S
H3924 C3930 0.949 . S
C3925 H3920 0.950 . S
C3925 C3927 1.327 . S
C3925 C3931 1.429 . S
C3926 C3918 1.574 . S
C3926 H3921 0.949 . S
C3926 C3932 1.368 . S
C3927 C3911 1.349 . S
C3927 H3919 0.950 . S
C3927 C3925 1.327 . S
C3928 C3916 1.349 . S
C3928 H3922 0.950 . S
C3928 C3929 1.327 . S
C3929 H3923 0.950 . S
C3929 C3928 1.327 . S
C3929 C3933 1.429 . S
C3930 C3913 1.574 . S
C3930 H3924 0.949 . S
C3930 C3934 1.368 . S
C3931 C3912 1.429 . S
C3931 C3925 1.429 . S
C3931 C3932 1.523 . S
C3932 C3913 1.368 . S
C3932 C3926 1.368 . S
C3932 C3931 1.523 . S
C3933 C3917 1.429 . S
C3933 C3929 1.429 . S
C3933 C3934 1.523 . S
C3934 C3918 1.368 . S
C3934 C3930 1.368 . S
C3934 C3933 1.523 . S
H3935 C3910 0.950 . S
H3936 C3912 0.950 . S
H3937 C3913 0.949 . S
H3938 C3915 0.950 . S
H3939 C3917 0.950 . S
C3940 C3941 1.349 . S
C3940 C3942 1.327 . S
C3940 H3965 0.950 . S
C3941 C3940 1.349 . S
C3941 C3957 1.349 . S
C3942 C3940 1.327 . S
C3942 C3961 1.429 . S
C3942 H3966 0.950 . S
C3943 C3960 1.574 . S
C3943 C3962 1.368 . S
C3943 H3967 0.949 . S
H3944 C3948 0.949 . S
C3945 C3946 1.349 . S
C3945 C3947 1.327 . S
C3945 H3968 0.950 . S
C3946 C3945 1.349 . S
C3946 C3958 1.349 . S
C3947 C3945 1.327 . S
C3947 C3963 1.429 . S
C3947 H3969 0.950 . S
C3948 H3944 0.949 . S
C3948 C3956 1.574 . S
C3948 C3964 1.368 . S
H3949 C3957 0.950 . S
H3950 C3955 0.950 . S
H3951 C3956 0.949 . S
H3952 C3958 0.950 . S
H3953 C3959 0.950 . S
H3954 C3960 0.949 . S
C3955 H3950 0.950 . S
C3955 C3957 1.327 . S
C3955 C3961 1.429 . S
C3956 C3948 1.574 . S
C3956 H3951 0.949 . S
C3956 C3962 1.368 . S
C3957 C3941 1.349 . S
C3957 H3949 0.950 . S
C3957 C3955 1.327 . S
C3958 C3946 1.349 . S
C3958 H3952 0.950 . S
C3958 C3959 1.327 . S
C3959 H3953 0.950 . S
C3959 C3958 1.327 . S
C3959 C3963 1.429 . S
C3960 C3943 1.574 . S
C3960 H3954 0.949 . S
C3960 C3964 1.368 . S
C3961 C3942 1.429 . S
C3961 C3955 1.429 . S
C3961 C3962 1.523 . S
C3962 C3943 1.368 . S
C3962 C3956 1.368 . S
C3962 C3961 1.523 . S
C3963 C3947 1.429 . S
C3963 C3959 1.429 . S
C3963 C3964 1.523 . S
C3964 C3948 1.368 . S
C3964 C3960 1.368 . S
C3964 C3963 1.523 . S
H3965 C3940 0.950 . S
H3966 C3942 0.950 . S
H3967 C3943 0.949 . S
H3968 C3945 0.950 . S
H3969 C3947 0.950 . S
C3970 C3971 1.349 . S
C3970 C3972 1.327 . S
C3970 H3995 0.950 . S
C3971 C3970 1.349 . S
C3971 C3987 1.349 . S
C3972 C3970 1.327 . S
C3972 C3991 1.429 . S
C3972 H3996 0.950 . S
C3973 C3990 1.574 . S
C3973 C3992 1.368 . S
C3973 H3997 0.949 . S
H3974 C3978 0.949 . S
C3975 C3976 1.349 . S
C3975 C3977 1.327 . S
C3975 H3998 0.950 . S
C3976 C3975 1.349 . S
C3976 C3988 1.349 . S
C3977 C3975 1.327 . S
C3977 C3993 1.429 . S
C3977 H3999 0.950 . S
C3978 H3974 0.949 . S
C3978 C3986 1.574 . S
C3978 C3994 1.368 . S
H3979 C3987 0.950 . S
H3980 C3985 0.950 . S
H3981 C3986 0.949 . S
H3982 C3988 0.950 . S
H3983 C3989 0.950 . S
H3984 C3990 0.949 . S
C3985 H3980 0.950 . S
C3985 C3987 1.327 . S
C3985 C3991 1.429 . S
C3986 C3978 1.574 . S
C3986 H3981 0.949 . S
C3986 C3992 1.368 . S
C3987 C3971 1.349 . S
C3987 H3979 0.950 . S
C3987 C3985 1.327 . S
C3988 C3976 1.349 . S
C3988 H3982 0.950 . S
C3988 C3989 1.327 . S
C3989 H3983 0.950 . S
C3989 C3988 1.327 . S
C3989 C3993 1.429 . S
C3990 C3973 1.574 . S
C3990 H3984 0.949 . S
C3990 C3994 1.368 . S
C3991 C3972 1.429 . S
C3991 C3985 1.429 . S
C3991 C3992 1.523 . S
C3992 C3973 1.368 . S
C3992 C3986 1.368 . S
C3992 C3991 1.523 . S
C3993 C3977 1.429 . S
C3993 C3989 1.429 . S
C3993 C3994 1.523 . S
C3994 C3978 1.368 . S
C3994 C3990 1.368 . S
C3994 C3993 1.523 . S
H3995 C3970 0.950 . S
H3996 C3972 0.950 . S
H3997 C3973 0.949 . S
H3998 C3975 0.950 . S
H3999 C3977 0.950 . S
C4000 C4001 1.349 . S
C4000 C4002 1.327 . S
C4000 H4025 0.950 . S
C4001 C4000 1.349 . S
C4001 C4017 1.349 . S
C4002 C4000 1.327 . S
C4002 C4021 1.429 . S
C4002 H4026 0.950 . S
C4003 C4020 1.574 . S
C4003 C4022 1.368 . S
C4003 H4027 0.949 . S
H4004 C4008 0.949 . S
C4005 C4006 1.349 . S
C4005 C4007 1.327 . S
C4005 H4028 0.950 . S
C4006 C4005 1.349 . S
C4006 C4018 1.349 . S
C4007 C4005 1.327 . S
C4007 C4023 1.429 . S
C4007 H4029 0.950 . S
C4008 H4004 0.949 . S
C4008 C4016 1.574 . S
C4008 C4024 1.368 . S
H4009 C4017 0.950 . S
H4010 C4015 0.950 . S
H4011 C4016 0.949 . S
H4012 C4018 0.950 . S
H4013 C4019 0.950 . S
H4014 C4020 0.949 . S
C4015 H4010 0.950 . S
C4015 C4017 1.327 . S
C4015 C4021 1.429 . S
C4016 C4008 1.574 . S
C4016 H4011 0.949 . S
C4016 C4022 1.368 . S
C4017 C4001 1.349 . S
C4017 H4009 0.950 . S
C4017 C4015 1.327 . S
C4018 C4006 1.349 . S
C4018 H4012 0.950 . S
C4018 C4019 1.327 . S
C4019 H4013 0.950 . S
C4019 C4018 1.327 . S
C4019 C4023 1.429 . S
C4020 C4003 1.574 . S
C4020 H4014 0.949 . S
C4020 C4024 1.368 . S
C4021 C4002 1.429 . S
C4021 C4015 1.429 . S
C4021 C4022 1.523 . S
C4022 C4003 1.368 . S
C4022 C4016 1.368 . S
C4022 C4021 1.523 . S
C4023 C4007 1.429 . S
C4023 C4019 1.429 . S
C4023 C4024 1.523 . S
C4024 C4008 1.368 . S
C4024 C4020 1.368 . S
C4024 C4023 1.523 . S
H4025 C4000 0.950 . S
H4026 C4002 0.950 . S
H4027 C4003 0.949 . S
H4028 C4005 0.950 . S
H4029 C4007 0.950 . S
C4030 C4031 1.349 . S
C4030 C4032 1.327 . S
C4030 H4055 0.950 . S
C4031 C4030 1.349 . S
C4031 C4047 1.349 . S
C4032 C4030 1.327 . S
C4032 C4051 1.429 . S
C4032 H4056 0.950 . S
C4033 C4050 1.574 . S
C4033 C4052 1.368 . S
C4033 H4057 0.949 . S
H4034 C4038 0.949 . S
C4035 C4036 1.349 . S
C4035 C4037 1.327 . S
C4035 H4058 0.950 . S
C4036 C4035 1.349 . S
C4036 C4048 1.349 . S
C4037 C4035 1.327 . S
C4037 C4053 1.429 . S
C4037 H4059 0.950 . S
C4038 H4034 0.949 . S
C4038 C4046 1.574 . S
C4038 C4054 1.368 . S
H4039 C4047 0.950 . S
H4040 C4045 0.950 . S
H4041 C4046 0.949 . S
H4042 C4048 0.950 . S
H4043 C4049 0.950 . S
H4044 C4050 0.949 . S
C4045 H4040 0.950 . S
C4045 C4047 1.327 . S
C4045 C4051 1.429 . S
C4046 C4038 1.574 . S
C4046 H4041 0.949 . S
C4046 C4052 1.368 . S
C4047 C4031 1.349 . S
C4047 H4039 0.950 . S
C4047 C4045 1.327 . S
C4048 C4036 1.349 . S
C4048 H4042 0.950 . S
C4048 C4049 1.327 . S
C4049 H4043 0.950 . S
C4049 C4048 1.327 . S
C4049 C4053 1.429 . S
C4050 C4033 1.574 . S
C4050 H4044 0.949 . S
C4050 C4054 1.368 . S
C4051 C4032 1.429 . S
C4051 C4045 1.429 . S
C4051 C4052 1.523 . S
C4052 C4033 1.368 . S
C4052 C4046 1.368 . S
C4052 C4051 1.523 . S
C4053 C4037 1.429 . S
C4053 C4049 1.429 . S
C4053 C4054 1.523 . S
C4054 C4038 1.368 . S
C4054 C4050 1.368 . S
C4054 C4053 1.523 . S
H4055 C4030 0.950 . S
H4056 C4032 0.950 . S
H4057 C4033 0.949 . S
H4058 C4035 0.950 . S
H4059 C4037 0.950 . S
C4060 C4061 1.349 . S
C4060 C4062 1.327 . S
C4060 H4085 0.950 . S
C4061 C4060 1.349 . S
C4061 C4077 1.349 . S
C4062 C4060 1.327 . S
C4062 C4081 1.429 . S
C4062 H4086 0.950 . S
C4063 C4080 1.574 . S
C4063 C4082 1.368 . S
C4063 H4087 0.949 . S
H4064 C4068 0.949 . S
C4065 C4066 1.349 . S
C4065 C4067 1.327 . S
C4065 H4088 0.950 . S
C4066 C4065 1.349 . S
C4066 C4078 1.349 . S
C4067 C4065 1.327 . S
C4067 C4083 1.429 . S
C4067 H4089 0.950 . S
C4068 H4064 0.949 . S
C4068 C4076 1.574 . S
C4068 C4084 1.368 . S
H4069 C4077 0.950 . S
H4070 C4075 0.950 . S
H4071 C4076 0.949 . S
H4072 C4078 0.950 . S
H4073 C4079 0.950 . S
H4074 C4080 0.949 . S
C4075 H4070 0.950 . S
C4075 C4077 1.327 . S
C4075 C4081 1.429 . S
C4076 C4068 1.574 . S
C4076 H4071 0.949 . S
C4076 C4082 1.368 . S
C4077 C4061 1.349 . S
C4077 H4069 0.950 . S
C4077 C4075 1.327 . S
C4078 C4066 1.349 . S
C4078 H4072 0.950 . S
C4078 C4079 1.327 . S
C4079 H4073 0.950 . S
C4079 C4078 1.327 . S
C4079 C4083 1.429 . S
C4080 C4063 1.574 . S
C4080 H4074 0.949 . S
C4080 C4084 1.368 . S
C4081 C4062 1.429 . S
C4081 C4075 1.429 . S
C4081 C4082 1.523 . S
C4082 C4063 1.368 . S
C4082 C4076 1.368 . S
C4082 C4081 1.523 . S
C4083 C4067 1.429 . S
C4083 C4079 1.429 . S
C4083 C4084 1.523 . S
C4084 C4068 1.368 . S
C4084 C4080 1.368 . S
C4084 C4083 1.523 . S
H4085 C4060 0.950 . S
H4086 C4062 0.950 . S
H4087 C4063 0.949 . S
H4088 C4065 0.950 . S
H4089 C4067 0.950 . S
C4090 C4091 1.349 . S
C4090 C4092 1.327 . S
C4090 H4115 0.950 . S
C4091 C4090 1.349 . S
C4091 C4107 1.349 . S
C4092 C4090 1.327 . S
C4092 C4111 1.429 . S
C4092 H4116 0.950 . S
C4093 C4110 1.574 . S
C4093 C4112 1.368 . S
C4093 H4117 0.949 . S
H4094 C4098 0.949 . S
C4095 C4096 1.349 . S
C4095 C4097 1.327 . S
C4095 H4118 0.950 . S
C4096 C4095 1.349 . S
C4096 C4108 1.349 . S
C4097 C4095 1.327 . S
C4097 C4113 1.429 . S
C4097 H4119 0.950 . S
C4098 H4094 0.949 . S
C4098 C4106 1.574 . S
C4098 C4114 1.368 . S
H4099 C4107 0.950 . S
H4100 C4105 0.950 . S
H4101 C4106 0.949 . S
H4102 C4108 0.950 . S
H4103 C4109 0.950 . S
H4104 C4110 0.949 . S
C4105 H4100 0.950 . S
C4105 C4107 1.327 . S
C4105 C4111 1.429 . S
C4106 C4098 1.574 . S
C4106 H4101 0.949 . S
C4106 C4112 1.368 . S
C4107 C4091 1.349 . S
C4107 H4099 0.950 . S
C4107 C4105 1.327 . S
C4108 C4096 1.349 . S
C4108 H4102 0.950 . S
C4108 C4109 1.327 . S
C4109 H4103 0.950 . S
C4109 C4108 1.327 . S
C4109 C4113 1.429 . S
C4110 C4093 1.574 . S
C4110 H4104 0.949 . S
C4110 C4114 1.368 . S
C4111 C4092 1.429 . S
C4111 C4105 1.429 . S
C4111 C4112 1.523 . S
C4112 C4093 1.368 . S
C4112 C4106 1.368 . S
C4112 C4111 1.523 . S
C4113 C4097 1.429 . S
C4113 C4109 1.429 . S
C4113 C4114 1.523 . S
C4114 C4098 1.368 . S
C4114 C4110 1.368 . S
C4114 C4113 1.523 . S
H4115 C4090 0.950 . S
H4116 C4092 0.950 . S
H4117 C4093 0.949 . S
H4118 C4095 0.950 . S
H4119 C4097 0.950 . S
C4120 C4121 1.349 . S
C4120 C4122 1.327 . S
C4120 H4145 0.950 . S
C4121 C4120 1.349 . S
C4121 C4137 1.349 . S
C4122 C4120 1.327 . S
C4122 C4141 1.429 . S
C4122 H4146 0.950 . S
C4123 C4140 1.574 . S
C4123 C4142 1.368 . S
C4123 H4147 0.949 . S
H4124 C4128 0.949 . S
C4125 C4126 1.349 . S
C4125 C4127 1.327 . S
C4125 H4148 0.950 . S
C4126 C4125 1.349 . S
C4126 C4138 1.349 . S
C4127 C4125 1.327 . S
C4127 C4143 1.429 . S
C4127 H4149 0.950 . S
C4128 H4124 0.949 . S
C4128 C4136 1.574 . S
C4128 C4144 1.368 . S
H4129 C4137 0.950 . S
H4130 C4135 0.950 . S
H4131 C4136 0.949 . S
H4132 C4138 0.950 . S
H4133 C4139 0.950 . S
H4134 C4140 0.949 . S
C4135 H4130 0.950 . S
C4135 C4137 1.327 . S
C4135 C4141 1.429 . S
C4136 C4128 1.574 . S
C4136 H4131 0.949 . S
C4136 C4142 1.368 . S
C4137 C4121 1.349 . S
C4137 H4129 0.950 . S
C4137 C4135 1.327 . S
C4138 C4126 1.349 . S
C4138 H4132 0.950 . S
C4138 C4139 1.327 . S
C4139 H4133 0.950 . S
C4139 C4138 1.327 . S
C4139 C4143 1.429 . S
C4140 C4123 1.574 . S
C4140 H4134 0.949 . S
C4140 C4144 1.368 . S
C4141 C4122 1.429 . S
C4141 C4135 1.429 . S
C4141 C4142 1.523 . S
C4142 C4123 1.368 . S
C4142 C4136 1.368 . S
C4142 C4141 1.523 . S
C4143 C4127 1.429 . S
C4143 C4139 1.429 . S
C4143 C4144 1.523 . S
C4144 C4128 1.368 . S
C4144 C4140 1.368 . S
C4144 C4143 1.523 . S
H4145 C4120 0.950 . S
H4146 C4122 0.950 . S
H4147 C4123 0.949 . S
H4148 C4125 0.950 . S
H4149 C4127 0.950 . S
C4150 C4151 1.349 . S
C4150 C4152 1.327 . S
C4150 H4175 0.950 . S
C4151 C4150 1.349 . S
C4151 C4167 1.349 . S
C4152 C4150 1.327 . S
C4152 C4171 1.429 . S
C4152 H4176 0.950 . S
C4153 C4170 1.574 . S
C4153 C4172 1.368 . S
C4153 H4177 0.949 . S
H4154 C4158 0.949 . S
C4155 C4156 1.349 . S
C4155 C4157 1.327 . S
C4155 H4178 0.950 . S
C4156 C4155 1.349 . S
C4156 C4168 1.349 . S
C4157 C4155 1.327 . S
C4157 C4173 1.429 . S
C4157 H4179 0.950 . S
C4158 H4154 0.949 . S
C4158 C4166 1.574 . S
C4158 C4174 1.368 . S
H4159 C4167 0.950 . S
H4160 C4165 0.950 . S
H4161 C4166 0.949 . S
H4162 C4168 0.950 . S
H4163 C4169 0.950 . S
H4164 C4170 0.949 . S
C4165 H4160 0.950 . S
C4165 C4167 1.327 . S
C4165 C4171 1.429 . S
C4166 C4158 1.574 . S
C4166 H4161 0.949 . S
C4166 C4172 1.368 . S
C4167 C4151 1.349 . S
C4167 H4159 0.950 . S
C4167 C4165 1.327 . S
C4168 C4156 1.349 . S
C4168 H4162 0.950 . S
C4168 C4169 1.327 . S
C4169 H4163 0.950 . S
C4169 C4168 1.327 . S
C4169 C4173 1.429 . S
C4170 C4153 1.574 . S
C4170 H4164 0.949 . S
C4170 C4174 1.368 . S
C4171 C4152 1.429 . S
C4171 C4165 1.429 . S
C4171 C4172 1.523 . S
C4172 C4153 1.368 . S
C4172 C4166 1.368 . S
C4172 C4171 1.523 . S
C4173 C4157 1.429 . S
C4173 C4169 1.429 . S
C4173 C4174 1.523 . S
C4174 C4158 1.368 . S
C4174 C4170 1.368 . S
C4174 C4173 1.523 . S
H4175 C4150 0.950 . S
H4176 C4152 0.950 . S
H4177 C4153 0.949 . S
H4178 C4155 0.950 . S
H4179 C4157 0.950 . S
C4180 C4181 1.349 . S
C4180 C4182 1.327 . S
C4180 H4205 0.950 . S
C4181 C4180 1.349 . S
C4181 C4197 1.349 . S
C4182 C4180 1.327 . S
C4182 C4201 1.429 . S
C4182 H4206 0.950 . S
C4183 C4200 1.574 . S
C4183 C4202 1.368 . S
C4183 H4207 0.949 . S
H4184 C4188 0.949 . S
C4185 C4186 1.349 . S
C4185 C4187 1.327 . S
C4185 H4208 0.950 . S
C4186 C4185 1.349 . S
C4186 C4198 1.349 . S
C4187 C4185 1.327 . S
C4187 C4203 1.429 . S
C4187 H4209 0.950 . S
C4188 H4184 0.949 . S
C4188 C4196 1.574 . S
C4188 C4204 1.368 . S
H4189 C4197 0.950 . S
H4190 C4195 0.950 . S
H4191 C4196 0.949 . S
H4192 C4198 0.950 . S
H4193 C4199 0.950 . S
H4194 C4200 0.949 . S
C4195 H4190 0.950 . S
C4195 C4197 1.327 . S
C4195 C4201 1.429 . S
C4196 C4188 1.574 . S
C4196 H4191 0.949 . S
C4196 C4202 1.368 . S
C4197 C4181 1.349 . S
C4197 H4189 0.950 . S
C4197 C4195 1.327 . S
C4198 C4186 1.349 . S
C4198 H4192 0.950 . S
C4198 C4199 1.327 . S
C4199 H4193 0.950 . S
C4199 C4198 1.327 . S
C4199 C4203 1.429 . S
C4200 C4183 1.574 . S
C4200 H4194 0.949 . S
C4200 C4204 1.368 . S
C4201 C4182 1.429 . S
C4201 C4195 1.429 . S
C4201 C4202 1.523 . S
C4202 C4183 1.368 . S
C4202 C4196 1.368 . S
C4202 C4201 1.523 . S
C4203 C4187 1.429 . S
C4203 C4199 1.429 . S
C4203 C4204 1.523 . S
C4204 C4188 1.368 . S
C4204 C4200 1.368 . S
C4204 C4203 1.523 . S
H4205 C4180 0.950 . S
H4206 C4182 0.950 . S
H4207 C4183 0.949 . S
H4208 C4185 0.950 . S
H4209 C4187 0.950 . S
C4210 C4211 1.349 . S
C4210 C4212 1.327 . S
C4210 H4235 0.950 . S
C4211 C4210 1.349 . S
C4211 C4227 1.349 . S
C4212 C4210 1.327 . S
C4212 C4231 1.429 . S
C4212 H4236 0.950 . S
C4213 C4230 1.574 . S
C4213 C4232 1.368 . S
C4213 H4237 0.949 . S
H4214 C4218 0.949 . S
C4215 C4216 1.349 . S
C4215 C4217 1.327 . S
C4215 H4238 0.950 . S
C4216 C4215 1.349 . S
C4216 C4228 1.349 . S
C4217 C4215 1.327 . S
C4217 C4233 1.429 . S
C4217 H4239 0.950 . S
C4218 H4214 0.949 . S
C4218 C4226 1.574 . S
C4218 C4234 1.368 . S
H4219 C4227 0.950 . S
H4220 C4225 0.950 . S
H4221 C4226 0.949 . S
H4222 C4228 0.950 . S
H4223 C4229 0.950 . S
H4224 C4230 0.949 . S
C4225 H4220 0.950 . S
C4225 C4227 1.327 . S
C4225 C4231 1.429 . S
C4226 C4218 1.574 . S
C4226 H4221 0.949 . S
C4226 C4232 1.368 . S
C4227 C4211 1.349 . S
C4227 H4219 0.950 . S
C4227 C4225 1.327 . S
C4228 C4216 1.349 . S
C4228 H4222 0.950 . S
C4228 C4229 1.327 . S
C4229 H4223 0.950 . S
C4229 C4228 1.327 . S
C4229 C4233 1.429 . S
C4230 C4213 1.574 . S
C4230 H4224 0.949 . S
C4230 C4234 1.368 . S
C4231 C4212 1.429 . S
C4231 C4225 1.429 . S
C4231 C4232 1.523 . S
C4232 C4213 1.368 . S
C4232 C4226 1.368 . S
C4232 C4231 1.523 . S
C4233 C4217 1.429 . S
C4233 C4229 1.429 . S
C4233 C4234 1.523 . S
C4234 C4218 1.368 . S
C4234 C4230 1.368 . S
C4234 C4233 1.523 . S
H4235 C4210 0.950 . S
H4236 C4212 0.950 . S
H4237 C4213 0.949 . S
H4238 C4215 0.950 . S
H4239 C4217 0.950 . S
C4240 C4241 1.349 . S
C4240 C4242 1.327 . S
C4240 H4265 0.950 . S
C4241 C4240 1.349 . S
C4241 C4257 1.349 . S
C4242 C4240 1.327 . S
C4242 C4261 1.429 . S
C4242 H4266 0.950 . S
C4243 C4260 1.574 . S
C4243 C4262 1.368 . S
C4243 H4267 0.949 . S
H4244 C4248 0.949 . S
C4245 C4246 1.349 . S
C4245 C4247 1.327 . S
C4245 H4268 0.950 . S
C4246 C4245 1.349 . S
C4246 C4258 1.349 . S
C4247 C4245 1.327 . S
C4247 C4263 1.429 . S
C4247 H4269 0.950 . S
C4248 H4244 0.949 . S
C4248 C4256 1.574 . S
C4248 C4264 1.368 . S
H4249 C4257 0.950 . S
H4250 C4255 0.950 . S
H4251 C4256 0.949 . S
H4252 C4258 0.950 . S
H4253 C4259 0.950 . S
H4254 C4260 0.949 . S
C4255 H4250 0.950 . S
C4255 C4257 1.327 . S
C4255 C4261 1.429 . S
C4256 C4248 1.574 . S
C4256 H4251 0.949 . S
C4256 C4262 1.368 . S
C4257 C4241 1.349 . S
C4257 H4249 0.950 . S
C4257 C4255 1.327 . S
C4258 C4246 1.349 . S
C4258 H4252 0.950 . S
C4258 C4259 1.327 . S
C4259 H4253 0.950 . S
C4259 C4258 1.327 . S
C4259 C4263 1.429 . S
C4260 C4243 1.574 . S
C4260 H4254 0.949 . S
C4260 C4264 1.368 . S
C4261 C4242 1.429 . S
C4261 C4255 1.429 . S
C4261 C4262 1.523 . S
C4262 C4243 1.368 . S
C4262 C4256 1.368 . S
C4262 C4261 1.523 . S
C4263 C4247 1.429 . S
C4263 C4259 1.429 . S
C4263 C4264 1.523 . S
C4264 C4248 1.368 . S
C4264 C4260 1.368 . S
C4264 C4263 1.523 . S
H4265 C4240 0.950 . S
H4266 C4242 0.950 . S
H4267 C4243 0.949 . S
H4268 C4245 0.950 . S
H4269 C4247 0.950 . S
C4270 C4271 1.349 . S
C4270 C4272 1.327 . S
C4270 H4295 0.950 . S
C4271 C4270 1.349 . S
C4271 C4287 1.349 . S
C4272 C4270 1.327 . S
C4272 C4291 1.429 . S
C4272 H4296 0.950 . S
C4273 C4290 1.574 . S
C4273 C4292 1.368 . S
C4273 H4297 0.949 . S
H4274 C4278 0.949 . S
C4275 C4276 1.349 . S
C4275 C4277 1.327 . S
C4275 H4298 0.950 . S
C4276 C4275 1.349 . S
C4276 C4288 1.349 . S
C4277 C4275 1.327 . S
C4277 C4293 1.429 . S
C4277 H4299 0.950 . S
C4278 H4274 0.949 . S
C4278 C4286 1.574 . S
C4278 C4294 1.368 . S
H4279 C4287 0.950 . S
H4280 C4285 0.950 . S
H4281 C4286 0.949 . S
H4282 C4288 0.950 . S
H4283 C4289 0.950 . S
H4284 C4290 0.949 . S
C4285 H4280 0.950 . S
C4285 C4287 1.327 . S
C4285 C4291 1.429 . S
C4286 C4278 1.574 . S
C4286 H4281 0.949 . S
C4286 C4292 1.368 . S
C4287 C4271 1.349 . S
C4287 H4279 0.950 . S
C4287 C4285 1.327 . S
C4288 C4276 1.349 . S
C4288 H4282 0.950 . S
C4288 C4289 1.327 . S
C4289 H4283 0.950 . S
C4289 C4288 1.327 . S
C4289 C4293 1.429 . S
C4290 C4273 1.574 . S
C4290 H4284 0.949 . S
C4290 C4294 1.368 . S
C4291 C4272 1.429 . S
C4291 C4285 1.429 . S
C4291 C4292 1.523 . S
C4292 C4273 1.368 . S
C4292 C4286 1.368 . S
C4292 C4291 1.523 . S
C4293 C4277 1.429 . S
C4293 C4289 1.429 . S
C4293 C4294 1.523 . S
C4294 C4278 1.368 . S
C4294 C4290 1.368 . S
C4294 C4293 1.523 . S
H4295 C4270 0.950 . S
H4296 C4272 0.950 . S
H4297 C4273 0.949 . S
H4298 C4275 0.950 . S
H4299 C4277 0.950 . S
C4300 C4301 1.349 . S
C4300 C4302 1.327 . S
C4300 H4325 0.950 . S
C4301 C4300 1.349 . S
C4301 C4317 1.349 . S
C4302 C4300 1.327 . S
C4302 C4321 1.429 . S
C4302 H4326 0.950 . S
C4303 C4320 1.574 . S
C4303 C4322 1.368 . S
C4303 H4327 0.949 . S
H4304 C4308 0.949 . S
C4305 C4306 1.349 . S
C4305 C4307 1.327 . S
C4305 H4328 0.950 . S
C4306 C4305 1.349 . S
C4306 C4318 1.349 . S
C4307 C4305 1.327 . S
C4307 C4323 1.429 . S
C4307 H4329 0.950 . S
C4308 H4304 0.949 . S
C4308 C4316 1.574 . S
C4308 C4324 1.368 . S
H4309 C4317 0.950 . S
H4310 C4315 0.950 . S
H4311 C4316 0.949 . S
H4312 C4318 0.950 . S
H4313 C4319 0.950 . S
H4314 C4320 0.949 . S
C4315 H4310 0.950 . S
C4315 C4317 1.327 . S
C4315 C4321 1.429 . S
C4316 C4308 1.574 . S
C4316 H4311 0.949 . S
C4316 C4322 1.368 . S
C4317 C4301 1.349 . S
C4317 H4309 0.950 . S
C4317 C4315 1.327 . S
C4318 C4306 1.349 . S
C4318 H4312 0.950 . S
C4318 C4319 1.327 . S
C4319 H4313 0.950 . S
C4319 C4318 1.327 . S
C4319 C4323 1.429 . S
C4320 C4303 1.574 . S
C4320 H4314 0.949 . S
C4320 C4324 1.368 . S
C4321 C4302 1.429 . S
C4321 C4315 1.429 . S
C4321 C4322 1.523 . S
C4322 C4303 1.368 . S
C4322 C4316 1.368 . S
C4322 C4321 1.523 . S
C4323 C4307 1.429 . S
C4323 C4319 1.429 . S
C4323 C4324 1.523 . S
C4324 C4308 1.368 . S
C4324 C4320 1.368 . S
C4324 C4323 1.523 . S
H4325 C4300 0.950 . S
H4326 C4302 0.950 . S
H4327 C4303 0.949 . S
H4328 C4305 0.950 . S
H4329 C4307 0.950 . S
C4330 C4331 1.349 . S
C4330 C4332 1.327 . S
C4330 H4355 0.950 . S
C4331 C4330 1.349 . S
C4331 C4347 1.349 . S
C4332 C4330 1.327 . S
C4332 C4351 1.429 . S
C4332 H4356 0.950 . S
C4333 C4350 1.574 . S
C4333 C4352 1.368 . S
C4333 H4357 0.949 . S
H4334 C4338 0.949 . S
C4335 C4336 1.349 . S
C4335 C4337 1.327 . S
C4335 H4358 0.950 . S
C4336 C4335 1.349 . S
C4336 C4348 1.349 . S
C4337 C4335 1.327 . S
C4337 C4353 1.429 . S
C4337 H4359 0.950 . S
C4338 H4334 0.949 . S
C4338 C4346 1.574 . S
C4338 C4354 1.368 . S
H4339 C4347 0.950 . S
H4340 C4345 0.950 . S
H4341 C4346 0.949 . S
H4342 C4348 0.950 . S
H4343 C4349 0.950 . S
H4344 C4350 0.949 . S
C4345 H4340 0.950 . S
C4345 C4347 1.327 . S
C4345 C4351 1.429 . S
C4346 C4338 1.574 . S
C4346 H4341 0.949 . S
C4346 C4352 1.368 . S
C4347 C4331 1.349 . S
C4347 H4339 0.950 . S
C4347 C4345 1.327 . S
C4348 C4336 1.349 . S
C4348 H4342 0.950 . S
C4348 C4349 1.327 . S
C4349 H4343 0.950 . S
C4349 C4348 1.327 . S
C4349 C4353 1.429 . S
C4350 C4333 1.574 . S
C4350 H4344 0.949 . S
C4350 C4354 1.368 . S
C4351 C4332 1.429 . S
C4351 C4345 1.429 . S
C4351 C4352 1.523 . S
C4352 C4333 1.368 . S
C4352 C4346 1.368 . S
C4352 C4351 1.523 . S
C4353 C4337 1.429 . S
C4353 C4349 1.429 . S
C4353 C4354 1.523 . S
C4354 C4338 1.368 . S
C4354 C4350 1.368 . S
C4354 C4353 1.523 . S
H4355 C4330 0.950 . S
H4356 C4332 0.950 . S
H4357 C4333 0.949 . S
H4358 C4335 0.950 . S
H4359 C4337 0.950 . S
C4360 C4361 1.349 . S
C4360 C4362 1.327 . S
C4360 H4385 0.950 . S
C4361 C4360 1.349 . S
C4361 C4377 1.349 . S
C4362 C4360 1.327 . S
C4362 C4381 1.429 . S
C4362 H4386 0.950 . S
C4363 C4380 1.574 . S
C4363 C4382 1.368 . S
C4363 H4387 0.949 . S
H4364 C4368 0.949 . S
C4365 C4366 1.349 . S
C4365 C4367 1.327 . S
C4365 H4388 0.950 . S
C4366 C4365 1.349 . S
C4366 C4378 1.349 . S
C4367 C4365 1.327 . S
C4367 C4383 1.429 . S
C4367 H4389 0.950 . S
C4368 H4364 0.949 . S
C4368 C4376 1.574 . S
C4368 C4384 1.368 . S
H4369 C4377 0.950 . S
H4370 C4375 0.950 . S
H4371 C4376 0.949 . S
H4372 C4378 0.950 . S
H4373 C4379 0.950 . S
H4374 C4380 0.949 . S
C4375 H4370 0.950 . S
C4375 C4377 1.327 . S
C4375 C4381 1.429 . S
C4376 C4368 1.574 . S
C4376 H4371 0.949 . S
C4376 C4382 1.368 . S
C4377 C4361 1.349 . S
C4377 H4369 0.950 . S
C4377 C4375 1.327 . S
C4378 C4366 1.349 . S
C4378 H4372 0.950 . S
C4378 C4379 1.327 . S
C4379 H4373 0.950 . S
C4379 C4378 1.327 . S
C4379 C4383 1.429 . S
C4380 C4363 1.574 . S
C4380 H4374 0.949 . S
C4380 C4384 1.368 . S
C4381 C4362 1.429 . S
C4381 C4375 1.429 . S
C4381 C4382 1.523 . S
C4382 C4363 1.368 . S
C4382 C4376 1.368 . S
C4382 C4381 1.523 . S
C4383 C4367 1.429 . S
C4383 C4379 1.429 . S
C4383 C4384 1.523 . S
C4384 C4368 1.368 . S
C4384 C4380 1.368 . S
C4384 C4383 1.523 . S
H4385 C4360 0.950 . S
H4386 C4362 0.950 . S
H4387 C4363 0.949 . S
H4388 C4365 0.950 . S
H4389 C4367 0.950 . S
C4390 C4391 1.349 . S
C4390 C4392 1.327 . S
C4390 H4415 0.950 . S
C4391 C4390 1.349 . S
C4391 C4407 1.349 . S
C4392 C4390 1.327 . S
C4392 C4411 1.429 . S
C4392 H4416 0.950 . S
C4393 C4410 1.574 . S
C4393 C4412 1.368 . S
C4393 H4417 0.949 . S
H4394 C4398 0.949 . S
C4395 C4396 1.349 . S
C4395 C4397 1.327 . S
C4395 H4418 0.950 . S
C4396 C4395 1.349 . S
C4396 C4408 1.349 . S
C4397 C4395 1.327 . S
C4397 C4413 1.429 . S
C4397 H4419 0.950 . S
C4398 H4394 0.949 . S
C4398 C4406 1.574 . S
C4398 C4414 1.368 . S
H4399 C4407 0.950 . S
H4400 C4405 0.950 . S
H4401 C4406 0.949 . S
H4402 C4408 0.950 . S
H4403 C4409 0.950 . S
H4404 C4410 0.949 . S
C4405 H4400 0.950 . S
C4405 C4407 1.327 . S
C4405 C4411 1.429 . S
C4406 C4398 1.574 . S
C4406 H4401 0.949 . S
C4406 C4412 1.368 . S
C4407 C4391 1.349 . S
C4407 H4399 0.950 . S
C4407 C4405 1.327 . S
C4408 C4396 1.349 . S
C4408 H4402 0.950 . S
C4408 C4409 1.327 . S
C4409 H4403 0.950 . S
C4409 C4408 1.327 . S
C4409 C4413 1.429 . S
C4410 C4393 1.574 . S
C4410 H4404 0.949 . S
C4410 C4414 1.368 . S
C4411 C4392 1.429 . S
C4411 C4405 1.429 . S
C4411 C4412 1.523 . S
C4412 C4393 1.368 . S
C4412 C4406 1.368 . S
C4412 C4411 1.523 . S
C4413 C4397 1.429 . S
C4413 C4409 1.429 . S
C4413 C4414 1.523 . S
C4414 C4398 1.368 . S
C4414 C4410 1.368 . S
C4414 C4413 1.523 . S
H4415 C4390 0.950 . S
H4416 C4392 0.950 . S
H4417 C4393 0.949 . S
H4418 C4395 0.950 . S
H4419 C4397 0.950 . S
C4420 C4421 1.349 . S
C4420 C4422 1.327 . S
C4420 H4445 0.950 . S
C4421 C4420 1.349 . S
C4421 C4437 1.349 . S
C4422 C4420 1.327 . S
C4422 C4441 1.429 . S
C4422 H4446 0.950 . S
C4423 C4440 1.574 . S
C4423 C4442 1.368 . S
C4423 H4447 0.949 . S
H4424 C4428 0.949 . S
C4425 C4426 1.349 . S
C4425 C4427 1.327 . S
C4425 H4448 0.950 . S
C4426 C4425 1.349 . S
C4426 C4438 1.349 . S
C4427 C4425 1.327 . S
C4427 C4443 1.429 . S
C4427 H4449 0.950 . S
C4428 H4424 0.949 . S
C4428 C4436 1.574 . S
C4428 C4444 1.368 . S
H4429 C4437 0.950 . S
H4430 C4435 0.950 . S
H4431 C4436 0.949 . S
H4432 C4438 0.950 . S
H4433 C4439 0.950 . S
H4434 C4440 0.949 . S
C4435 H4430 0.950 . S
C4435 C4437 1.327 . S
C4435 C4441 1.429 . S
C4436 C4428 1.574 . S
C4436 H4431 0.949 . S
C4436 C4442 1.368 . S
C4437 C4421 1.349 . S
C4437 H4429 0.950 . S
C4437 C4435 1.327 . S
C4438 C4426 1.349 . S
C4438 H4432 0.950 . S
C4438 C4439 1.327 . S
C4439 H4433 0.950 . S
C4439 C4438 1.327 . S
C4439 C4443 1.429 . S
C4440 C4423 1.574 . S
C4440 H4434 0.949 . S
C4440 C4444 1.368 . S
C4441 C4422 1.429 . S
C4441 C4435 1.429 . S
C4441 C4442 1.523 . S
C4442 C4423 1.368 . S
C4442 C4436 1.368 . S
C4442 C4441 1.523 . S
C4443 C4427 1.429 . S
C4443 C4439 1.429 . S
C4443 C4444 1.523 . S
C4444 C4428 1.368 . S
C4444 C4440 1.368 . S
C4444 C4443 1.523 . S
H4445 C4420 0.950 . S
H4446 C4422 0.950 . S
H4447 C4423 0.949 . S
H4448 C4425 0.950 . S
H4449 C4427 0.950 . S
C4450 C4451 1.349 . S
C4450 C4452 1.327 . S
C4450 H4475 0.950 . S
C4451 C4450 1.349 . S
C4451 C4467 1.349 . S
C4452 C4450 1.327 . S
C4452 C4471 1.429 . S
C4452 H4476 0.950 . S
C4453 C4470 1.574 . S
C4453 C4472 1.368 . S
C4453 H4477 0.949 . S
H4454 C4458 0.949 . S
C4455 C4456 1.349 . S
C4455 C4457 1.327 . S
C4455 H4478 0.950 . S
C4456 C4455 1.349 . S
C4456 C4468 1.349 . S
C4457 C4455 1.327 . S
C4457 C4473 1.429 . S
C4457 H4479 0.950 . S
C4458 H4454 0.949 . S
C4458 C4466 1.574 . S
C4458 C4474 1.368 . S
H4459 C4467 0.950 . S
H4460 C4465 0.950 . S
H4461 C4466 0.949 . S
H4462 C4468 0.950 . S
H4463 C4469 0.950 . S
H4464 C4470 0.949 . S
C4465 H4460 0.950 . S
C4465 C4467 1.327 . S
C4465 C4471 1.429 . S
C4466 C4458 1.574 . S
C4466 H4461 0.949 . S
C4466 C4472 1.368 . S
C4467 C4451 1.349 . S
C4467 H4459 0.950 . S
C4467 C4465 1.327 . S
C4468 C4456 1.349 . S
C4468 H4462 0.950 . S
C4468 C4469 1.327 . S
C4469 H4463 0.950 . S
C4469 C4468 1.327 . S
C4469 C4473 1.429 . S
C4470 C4453 1.574 . S
C4470 H4464 0.949 . S
C4470 C4474 1.368 . S
C4471 C4452 1.429 . S
C4471 C4465 1.429 . S
C4471 C4472 1.523 . S
C4472 C4453 1.368 . S
C4472 C4466 1.368 . S
C4472 C4471 1.523 . S
C4473 C4457 1.429 . S
C4473 C4469 1.429 . S
C4473 C4474 1.523 . S
C4474 C4458 1.368 . S
C4474 C4470 1.368 . S
C4474 C4473 1.523 . S
H4475 C4450 0.950 . S
H4476 C4452 0.950 . S
H4477 C4453 0.949 . S
H4478 C4455 0.950 . S
H4479 C4457 0.950 . S
C4480 C4481 1.349 . S
C4480 C4482 1.327 . S
C4480 H4505 0.950 . S
C4481 C4480 1.349 . S
C4481 C4497 1.349 . S
C4482 C4480 1.327 . S
C4482 C4501 1.429 . S
C4482 H4506 0.950 . S
C4483 C4500 1.574 . S
C4483 C4502 1.368 . S
C4483 H4507 0.949 . S
H4484 C4488 0.949 . S
C4485 C4486 1.349 . S
C4485 C4487 1.327 . S
C4485 H4508 0.950 . S
C4486 C4485 1.349 . S
C4486 C4498 1.349 . S
C4487 C4485 1.327 . S
C4487 C4503 1.429 . S
C4487 H4509 0.950 . S
C4488 H4484 0.949 . S
C4488 C4496 1.574 . S
C4488 C4504 1.368 . S
H4489 C4497 0.950 . S
H4490 C4495 0.950 . S
H4491 C4496 0.949 . S
H4492 C4498 0.950 . S
H4493 C4499 0.950 . S
H4494 C4500 0.949 . S
C4495 H4490 0.950 . S
C4495 C4497 1.327 . S
C4495 C4501 1.429 . S
C4496 C4488 1.574 . S
C4496 H4491 0.949 . S
C4496 C4502 1.368 . S
C4497 C4481 1.349 . S
C4497 H4489 0.950 . S
C4497 C4495 1.327 . S
C4498 C4486 1.349 . S
C4498 H4492 0.950 . S
C4498 C4499 1.327 . S
C4499 H4493 0.950 . S
C4499 C4498 1.327 . S
C4499 C4503 1.429 . S
C4500 C4483 1.574 . S
C4500 H4494 0.949 . S
C4500 C4504 1.368 . S
C4501 C4482 1.429 . S
C4501 C4495 1.429 . S
C4501 C4502 1.523 . S
C4502 C4483 1.368 . S
C4502 C4496 1.368 . S
C4502 C4501 1.523 . S
C4503 C4487 1.429 . S
C4503 C4499 1.429 . S
C4503 C4504 1.523 . S
C4504 C4488 1.368 . S
C4504 C4500 1.368 . S
C4504 C4503 1.523 . S
H4505 C4480 0.950 . S
H4506 C4482 0.950 . S
H4507 C4483 0.949 . S
H4508 C4485 0.950 . S
H4509 C4487 0.950 . S
C4510 C4511 1.349 . S
C4510 C4512 1.327 . S
C4510 H4535 0.950 . S
C4511 C4510 1.349 . S
C4511 C4527 1.349 . S
C4512 C4510 1.327 . S
C4512 C4531 1.429 . S
C4512 H4536 0.950 . S
C4513 C4530 1.574 . S
C4513 C4532 1.368 . S
C4513 H4537 0.949 . S
H4514 C4518 0.949 . S
C4515 C4516 1.349 . S
C4515 C4517 1.327 . S
C4515 H4538 0.950 . S
C4516 C4515 1.349 . S
C4516 C4528 1.349 . S
C4517 C4515 1.327 . S
C4517 C4533 1.429 . S
C4517 H4539 0.950 . S
C4518 H4514 0.949 . S
C4518 C4526 1.574 . S
C4518 C4534 1.368 . S
H4519 C4527 0.950 . S
H4520 C4525 0.950 . S
H4521 C4526 0.949 . S
H4522 C4528 0.950 . S
H4523 C4529 0.950 . S
H4524 C4530 0.949 . S
C4525 H4520 0.950 . S
C4525 C4527 1.327 . S
C4525 C4531 1.429 . S
C4526 C4518 1.574 . S
C4526 H4521 0.949 . S
C4526 C4532 1.368 . S
C4527 C4511 1.349 . S
C4527 H4519 0.950 . S
C4527 C4525 1.327 . S
C4528 C4516 1.349 . S
C4528 H4522 0.950 . S
C4528 C4529 1.327 . S
C4529 H4523 0.950 . S
C4529 C4528 1.327 . S
C4529 C4533 1.429 . S
C4530 C4513 1.574 . S
C4530 H4524 0.949 . S
C4530 C4534 1.368 . S
C4531 C4512 1.429 . S
C4531 C4525 1.429 . S
C4531 C4532 1.523 . S
C4532 C4513 1.368 . S
C4532 C4526 1.368 . S
C4532 C4531 1.523 . S
C4533 C4517 1.429 . S
C4533 C4529 1.429 . S
C4533 C4534 1.523 . S
C4534 C4518 1.368 . S
C4534 C4530 1.368 . S
C4534 C4533 1.523 . S
H4535 C4510 0.950 . S
H4536 C4512 0.950 . S
H4537 C4513 0.949 . S
H4538 C4515 0.950 . S
H4539 C4517 0.950 . S
C4540 C4541 1.349 . S
C4540 C4542 1.327 . S
C4540 H4565 0.950 . S
C4541 C4540 1.349 . S
C4541 C4557 1.349 . S
C4542 C4540 1.327 . S
C4542 C4561 1.429 . S
C4542 H4566 0.950 . S
C4543 C4560 1.574 . S
C4543 C4562 1.368 . S
C4543 H4567 0.949 . S
H4544 C4548 0.949 . S
C4545 C4546 1.349 . S
C4545 C4547 1.327 . S
C4545 H4568 0.950 . S
C4546 C4545 1.349 . S
C4546 C4558 1.349 . S
C4547 C4545 1.327 . S
C4547 C4563 1.429 . S
C4547 H4569 0.950 . S
C4548 H4544 0.949 . S
C4548 C4556 1.574 . S
C4548 C4564 1.368 . S
H4549 C4557 0.950 . S
H4550 C4555 0.950 . S
H4551 C4556 0.949 . S
H4552 C4558 0.950 . S
H4553 C4559 0.950 . S
H4554 C4560 0.949 . S
C4555 H4550 0.950 . S
C4555 C4557 1.327 . S
C4555 C4561 1.429 . S
C4556 C4548 1.574 . S
C4556 H4551 0.949 . S
C4556 C4562 1.368 . S
C4557 C4541 1.349 . S
C4557 H4549 0.950 . S
C4557 C4555 1.327 . S
C4558 C4546 1.349 . S
C4558 H4552 0.950 . S
C4558 C4559 1.327 . S
C4559 H4553 0.950 . S
C4559 C4558 1.327 . S
C4559 C4563 1.429 . S
C4560 C4543 1.574 . S
C4560 H4554 0.949 . S
C4560 C4564 1.368 . S
C4561 C4542 1.429 . S
C4561 C4555 1.429 . S
C4561 C4562 1.523 . S
C4562 C4543 1.368 . S
C4562 C4556 1.368 . S
C4562 C4561 1.523 . S
C4563 C4547 1.429 . S
C4563 C4559 1.429 . S
C4563 C4564 1.523 . S
C4564 C4548 1.368 . S
C4564 C4560 1.368 . S
C4564 C4563 1.523 . S
H4565 C4540 0.950 . S
H4566 C4542 0.950 . S
H4567 C4543 0.949 . S
H4568 C4545 0.950 . S
H4569 C4547 0.950 . S
C4570 C4571 1.349 . S
C4570 C4572 1.327 . S
C4570 H4595 0.950 . S
C4571 C4570 1.349 . S
C4571 C4587 1.349 . S
C4572 C4570 1.327 . S
C4572 C4591 1.429 . S
C4572 H4596 0.950 . S
C4573 C4590 1.574 . S
C4573 C4592 1.368 . S
C4573 H4597 0.949 . S
H4574 C4578 0.949 . S
C4575 C4576 1.349 . S
C4575 C4577 1.327 . S
C4575 H4598 0.950 . S
C4576 C4575 1.349 . S
C4576 C4588 1.349 . S
C4577 C4575 1.327 . S
C4577 C4593 1.429 . S
C4577 H4599 0.950 . S
C4578 H4574 0.949 . S
C4578 C4586 1.574 . S
C4578 C4594 1.368 . S
H4579 C4587 0.950 . S
H4580 C4585 0.950 . S
H4581 C4586 0.949 . S
H4582 C4588 0.950 . S
H4583 C4589 0.950 . S
H4584 C4590 0.949 . S
C4585 H4580 0.950 . S
C4585 C4587 1.327 . S
C4585 C4591 1.429 . S
C4586 C4578 1.574 . S
C4586 H4581 0.949 . S
C4586 C4592 1.368 . S
C4587 C4571 1.349 . S
C4587 H4579 0.950 . S
C4587 C4585 1.327 . S
C4588 C4576 1.349 . S
C4588 H4582 0.950 . S
C4588 C4589 1.327 . S
C4589 H4583 0.950 . S
C4589 C4588 1.327 . S
C4589 C4593 1.429 . S
C4590 C4573 1.574 . S
C4590 H4584 0.949 . S
C4590 C4594 1.368 . S
C4591 C4572 1.429 . S
C4591 C4585 1.429 . S
C4591 C4592 1.523 . S
C4592 C4573 1.368 . S
C4592 C4586 1.368 . S
C4592 C4591 1.523 . S
C4593 C4577 1.429 . S
C4593 C4589 1.429 . S
C4593 C4594 1.523 . S
C4594 C4578 1.368 . S
C4594 C4590 1.368 . S
C4594 C4593 1.523 . S
H4595 C4570 0.950 . S
H4596 C4572 0.950 . S
H4597 C4573 0.949 . S
H4598 C4575 0.950 . S
H4599 C4577 0.950 . S
C4600 C4601 1.349 . S
C4600 C4602 1.327 . S
C4600 H4625 0.950 . S
C4601 C4600 1.349 . S
C4601 C4617 1.349 . S
C4602 C4600 1.327 . S
C4602 C4621 1.429 . S
C4602 H4626 0.950 . S
C4603 C4620 1.574 . S
C4603 C4622 1.368 . S
C4603 H4627 0.949 . S
H4604 C4608 0.949 . S
C4605 C4606 1.349 . S
C4605 C4607 1.327 . S
C4605 H4628 0.950 . S
C4606 C4605 1.349 . S
C4606 C4618 1.349 . S
C4607 C4605 1.327 . S
C4607 C4623 1.429 . S
C4607 H4629 0.950 . S
C4608 H4604 0.949 . S
C4608 C4616 1.574 . S
C4608 C4624 1.368 . S
H4609 C4617 0.950 . S
H4610 C4615 0.950 . S
H4611 C4616 0.949 . S
H4612 C4618 0.950 . S
H4613 C4619 0.950 . S
H4614 C4620 0.949 . S
C4615 H4610 0.950 . S
C4615 C4617 1.327 . S
C4615 C4621 1.429 . S
C4616 C4608 1.574 . S
C4616 H4611 0.949 . S
C4616 C4622 1.368 . S
C4617 C4601 1.349 . S
C4617 H4609 0.950 . S
C4617 C4615 1.327 . S
C4618 C4606 1.349 . S
C4618 H4612 0.950 . S
C4618 C4619 1.327 . S
C4619 H4613 0.950 . S
C4619 C4618 1.327 . S
C4619 C4623 1.429 . S
C4620 C4603 1.574 . S
C4620 H4614 0.949 . S
C4620 C4624 1.368 . S
C4621 C4602 1.429 . S
C4621 C4615 1.429 . S
C4621 C4622 1.523 . S
C4622 C4603 1.368 . S
C4622 C4616 1.368 . S
C4622 C4621 1.523 . S
C4623 C4607 1.429 . S
C4623 C4619 1.429 . S
C4623 C4624 1.523 . S
C4624 C4608 1.368 . S
C4624 C4620 1.368 . S
C4624 C4623 1.523 . S
H4625 C4600 0.950 . S
H4626 C4602 0.950 . S
H4627 C4603 0.949 . S
H4628 C4605 0.950 . S
H4629 C4607 0.950 . S
C4630 C4631 1.349 . S
C4630 C4632 1.327 . S
C4630 H4655 0.950 . S
C4631 C4630 1.349 . S
C4631 C4647 1.349 . S
C4632 C4630 1.327 . S
C4632 C4651 1.429 . S
C4632 H4656 0.950 . S
C4633 C4650 1.574 . S
C4633 C4652 1.368 . S
C4633 H4657 0.949 . S
H4634 C4638 0.949 . S
C4635 C4636 1.349 . S
C4635 C4637 1.327 . S
C4635 H4658 0.950 . S
C4636 C4635 1.349 . S
C4636 C4648 1.349 . S
C4637 C4635 1.327 . S
C4637 C4653 1.429 . S
C4637 H4659 0.950 . S
C4638 H4634 0.949 . S
C4638 C4646 1.574 . S
C4638 C4654 1.368 . S
H4639 C4647 0.950 . S
H4640 C4645 0.950 . S
H4641 C4646 0.949 . S
H4642 C4648 0.950 . S
H4643 C4649 0.950 . S
H4644 C4650 0.949 . S
C4645 H4640 0.950 . S
C4645 C4647 1.327 . S
C4645 C4651 1.429 . S
C4646 C4638 1.574 . S
C4646 H4641 0.949 . S
C4646 C4652 1.368 . S
C4647 C4631 1.349 . S
C4647 H4639 0.950 . S
C4647 C4645 1.327 . S
C4648 C4636 1.349 . S
C4648 H4642 0.950 . S
C4648 C4649 1.327 . S
C4649 H4643 0.950 . S
C4649 C4648 1.327 . S
C4649 C4653 1.429 . S
C4650 C4633 1.574 . S
C4650 H4644 0.949 . S
C4650 C4654 1.368 . S
C4651 C4632 1.429 . S
C4651 C4645 1.429 . S
C4651 C4652 1.523 . S
C4652 C4633 1.368 . S
C4652 C4646 1.368 . S
C4652 C4651 1.523 . S
C4653 C4637 1.429 . S
C4653 C4649 1.429 . S
C4653 C4654 1.523 . S
C4654 C4638 1.368 . S
C4654 C4650 1.368 . S
C4654 C4653 1.523 . S
H4655 C4630 0.950 . S
H4656 C4632 0.950 . S
H4657 C4633 0.949 . S
H4658 C4635 0.950 . S
H4659 C4637 0.950 . S
C4660 C4661 1.349 . S
C4660 C4662 1.327 . S
C4660 H4685 0.950 . S
C4661 C4660 1.349 . S
C4661 C4677 1.349 . S
C4662 C4660 1.327 . S
C4662 C4681 1.429 . S
C4662 H4686 0.950 . S
C4663 C4680 1.574 . S
C4663 C4682 1.368 . S
C4663 H4687 0.949 . S
H4664 C4668 0.949 . S
C4665 C4666 1.349 . S
C4665 C4667 1.327 . S
C4665 H4688 0.950 . S
C4666 C4665 1.349 . S
C4666 C4678 1.349 . S
C4667 C4665 1.327 . S
C4667 C4683 1.429 . S
C4667 H4689 0.950 . S
C4668 H4664 0.949 . S
C4668 C4676 1.574 . S
C4668 C4684 1.368 . S
H4669 C4677 0.950 . S
H4670 C4675 0.950 . S
H4671 C4676 0.949 . S
H4672 C4678 0.950 . S
H4673 C4679 0.950 . S
H4674 C4680 0.949 . S
C4675 H4670 0.950 . S
C4675 C4677 1.327 . S
C4675 C4681 1.429 . S
C4676 C4668 1.574 . S
C4676 H4671 0.949 . S
C4676 C4682 1.368 . S
C4677 C4661 1.349 . S
C4677 H4669 0.950 . S
C4677 C4675 1.327 . S
C4678 C4666 1.349 . S
C4678 H4672 0.950 . S
C4678 C4679 1.327 . S
C4679 H4673 0.950 . S
C4679 C4678 1.327 . S
C4679 C4683 1.429 . S
C4680 C4663 1.574 . S
C4680 H4674 0.949 . S
C4680 C4684 1.368 . S
C4681 C4662 1.429 . S
C4681 C4675 1.429 . S
C4681 C4682 1.523 . S
C4682 C4663 1.368 . S
C4682 C4676 1.368 . S
C4682 C4681 1.523 . S
C4683 C4667 1.429 . S
C4683 C4679 1.429 . S
C4683 C4684 1.523 . S
C4684 C4668 1.368 . S
C4684 C4680 1.368 . S
C4684 C4683 1.523 . S
H4685 C4660 0.950 . S
H4686 C4662 0.950 . S
H4687 C4663 0.949 . S
H4688 C4665 0.950 . S
H4689 C4667 0.950 . S
C4690 C4691 1.349 . S
C4690 C4692 1.327 . S
C4690 H4715 0.950 . S
C4691 C4690 1.349 . S
C4691 C4707 1.349 . S
C4692 C4690 1.327 . S
C4692 C4711 1.429 . S
C4692 H4716 0.950 . S
C4693 C4710 1.574 . S
C4693 C4712 1.368 . S
C4693 H4717 0.949 . S
H4694 C4698 0.949 . S
C4695 C4696 1.349 . S
C4695 C4697 1.327 . S
C4695 H4718 0.950 . S
C4696 C4695 1.349 . S
C4696 C4708 1.349 . S
C4697 C4695 1.327 . S
C4697 C4713 1.429 . S
C4697 H4719 0.950 . S
C4698 H4694 0.949 . S
C4698 C4706 1.574 . S
C4698 C4714 1.368 . S
H4699 C4707 0.950 . S
H4700 C4705 0.950 . S
H4701 C4706 0.949 . S
H4702 C4708 0.950 . S
H4703 C4709 0.950 . S
H4704 C4710 0.949 . S
C4705 H4700 0.950 . S
C4705 C4707 1.327 . S
C4705 C4711 1.429 . S
C4706 C4698 1.574 . S
C4706 H4701 0.949 . S
C4706 C4712 1.368 . S
C4707 C4691 1.349 . S
C4707 H4699 0.950 . S
C4707 C4705 1.327 . S
C4708 C4696 1.349 . S
C4708 H4702 0.950 . S
C4708 C4709 1.327 . S
C4709 H4703 0.950 . S
C4709 C4708 1.327 . S
C4709 C4713 1.429 . S
C4710 C4693 1.574 . S
C4710 H4704 0.949 . S
C4710 C4714 1.368 . S
C4711 C4692 1.429 . S
C4711 C4705 1.429 . S
C4711 C4712 1.523 . S
C4712 C4693 1.368 . S
C4712 C4706 1.368 . S
C4712 C4711 1.523 . S
C4713 C4697 1.429 . S
C4713 C4709 1.429 . S
C4713 C4714 1.523 . S
C4714 C4698 1.368 . S
C4714 C4710 1.368 . S
C4714 C4713 1.523 . S
H4715 C4690 0.950 . S
H4716 C4692 0.950 . S
H4717 C4693 0.949 . S
H4718 C4695 0.950 . S
H4719 C4697 0.950 . S
C1846 C399 1.981 . S
C1841 C7 1.992 . S
C1876 C461 1.192 . S
C1871 C19 1.297 . S
C1901 C29 1.909 . S
C1906 C523 1.853 . S
C1936 C591 1.203 . S
C1931 C41 1.249 . S
C1961 C52 1.364 . S
C1966 C573 1.369 . S
C1991 C62 1.666 . S
C1996 C381 1.616 . S
C2021 C73 1.236 . S
C2026 C443 1.213 . S
C2056 C505 1.782 . S
C2051 C82 1.688 . S
C2086 C653 1.834 . S
C2081 C5 1.703 . S
C2111 C16 1.399 . S
C2116 C691 1.530 . S
C2141 C30 1.883 . S
C2146 C777 1.825 1_655 S
C2176 C821 1.118 . S
C2171 C40 1.175 . S
C2201 C49 1.049 . S
C2206 C883 1.215 . S
C2236 C945 1.462 . S
C2231 C63 1.505 . S
C2261 C74 1.288 . S
C2266 C1001 1.156 . S
C2296 C1063 1.514 . S
C2291 C85 1.627 . S
C2321 C8 1.713 . S
C2326 C839 1.680 . S
C2351 C51 1.500 . S
C2356 C963 1.529 . S
C2386 C1019 1.777 . S
C2381 C60 1.672 . S
C2411 C71 1.164 . S
C2416 C1081 1.318 . S
C2446 C901 2.142 . S
C2441 C84 2.081 . S
C2476 C709 1.570 . S
C2471 C27 1.469 . S
C2501 C38 1.359 . S
C2506 C759 1.427 . S
C2536 C635 1.796 . S
C2531 C18 1.739 . S
C2566 C1143 2.103 . S
C2561 C95 2.100 . S
C2591 C107 1.226 . S
C2596 C1193 1.196 . S
C2621 C117 1.811 . S
C2626 C1249 1.738 . S
C2656 C1335 1.291 . S
C2651 C129 1.366 . S
C2681 C140 1.428 . S
C2686 C1317 1.422 . S
C2711 C150 1.688 . S
C2716 C1125 1.628 . S
C2741 C161 1.141 . S
C2746 C1211 1.184 . S
C2771 C170 1.772 . S
C2776 C1267 1.894 . S
C2806 C877 1.840 . S
C2801 C93 1.781 . S
C2831 C104 1.310 . S
C2836 C1397 1.513 . S
C2866 C1007 1.809 . S
C2861 C118 1.825 . S
C2891 C128 1.257 . S
C2896 C1459 1.192 . S
C2921 C137 1.081 . S
C2926 C647 1.177 . S
C2956 C1503 1.518 . S
C2951 C151 1.570 . S
C2981 C162 1.260 . S
C2986 C771 1.203 . S
C3016 C1559 1.592 . S
C3011 C173 1.710 . S
C3041 C96 1.808 . S
C3046 C1441 1.777 . S
C3076 C1521 1.595 . S
C3071 C139 1.568 . S
C3101 C148 1.703 . S
C3106 C753 1.858 . S
C3136 C1577 1.273 . S
C3131 C159 1.102 . S
C3161 C172 2.302 . S
C3166 C629 2.321 . S
C3191 C115 1.277 . S
C3196 C1379 1.451 . S
C3221 C126 1.342 . S
C3226 C1025 1.393 . S
C3251 C106 1.595 . S
C3256 C895 1.587 . S
C3281 C183 1.885 . S
C3286 C1255 1.927 . S
C3316 C1329 1.149 . S
C3311 C195 1.258 . S
C3341 C205 1.869 . S
C3346 C1149 1.879 . S
C3371 C217 1.241 . S
C3376 C1187 1.101 . S
C3401 C228 1.492 . S
C3406 C1205 1.427 . S
C3431 C238 1.590 . S
C3436 C1273 1.622 . S
C3466 C1311 1.187 . S
C3461 C249 1.236 . S
C3491 C258 1.651 . S
C3496 C1131 1.821 . S
C3526 C1627 1.767 . S
C3521 C181 1.640 . S
C3551 C192 1.482 . S
C3556 C939 1.631 . S
C3586 C1689 1.692 . S
C3581 C206 1.760 . S
C3611 C216 1.323 . S
C3616 C1069 1.255 . S
C3641 C225 1.194 . S
C3646 C1745 1.280 . S
C3671 C239 1.523 . S
C3676 C697 1.471 . S
C3706 C1825 1.273 . S
C3701 C250 1.349 . S
C3731 C261 1.624 . S
C3736 C815 1.499 . S
C3766 C1087 1.542 . S
C3761 C184 1.585 . S
C3796 C715 1.653 . S
C3791 C227 1.626 . S
C3821 C236 1.590 . S
C3826 C1807 1.762 . S
C3851 C247 1.127 . S
C3856 C833 1.285 . S
C3886 C1763 2.143 . S
C3881 C260 2.150 . S
C3916 C957 1.316 . S
C3911 C203 1.213 . S
C3946 C1707 1.378 . S
C3941 C214 1.303 . S
C3976 C1645 1.783 . S
C3971 C194 1.721 . S
C4001 C271 1.927 . S
C4006 C529 1.965 . S
C4031 C283 1.285 . S
C4036 C585 1.163 . S
C4066 C405 1.842 . S
C4061 C293 1.834 . S
C4096 C467 1.219 . S
C4091 C305 1.288 . S
C4126 C449 1.526 . S
C4121 C316 1.536 . S
C4156 C511 1.695 . S
C4151 C326 1.672 . S
C4186 C567 1.092 . S
C4181 C337 1.141 . S
C4211 C346 1.665 . S
C4216 C387 1.833 . S
C4241 C269 1.609 . S
C4246 C1751 1.730 . S
C4276 C1497 1.604 . S
C4271 C280 1.457 . S
C4306 C1831 1.823 . S
C4301 C294 1.873 . S
C4336 C1565 1.166 . S
C4331 C304 1.222 . S
C4361 C313 1.197 . S
C4366 C1621 1.282 . S
C4396 C1391 1.376 . S
C4391 C327 1.514 . S
C4426 C1683 1.100 . S
C4421 C338 1.214 . S
C4451 C349 1.611 . S
C4456 C1453 1.477 . S
C4486 C1583 1.529 . S
C4481 C272 1.574 . S
C4516 C1373 1.585 . S
C4511 C315 1.634 . S
C4546 C1701 1.798 . S
C4541 C324 1.671 . S
C4571 C335 1.160 . S
C4576 C1435 1.346 . S
C4601 C348 2.191 . S
C4606 C1639 2.194 . S
C4631 C291 1.278 . S
C4636 C1515 1.386 . S
C4661 C302 1.399 . S
C4666 C1813 1.460 . S
C4696 C1769 1.752 . S
C4691 C282 1.698 . S
