# Generated by pormake.
# Topology zzz, (3,6)-cn, num edge types: 1
# Building blocks:
#     Node 0, Type 0, BuildingBlock: BELTOD_clean_linker_0, # of connection points: 3
#     Node 1, Type 0, BuildingBlock: BELTOD_clean_linker_0, # of connection points: 3
#     Node 2, Type 0, BuildingBlock: BELTOD_clean_linker_0, # of connection points: 3
#     Node 3, Type 0, BuildingBlock: BELTOD_clean_linker_0, # of connection points: 3
#     Node 4, Type 0, BuildingBlock: BELTOD_clean_linker_0, # of connection points: 3
#     Node 5, Type 0, BuildingBlock: BELTOD_clean_linker_0, # of connection points: 3
#     Node 6, Type 0, BuildingBlock: BELTOD_clean_linker_0, # of connection points: 3
#     Node 7, Type 0, BuildingBlock: BELTOD_clean_linker_0, # of connection points: 3
#     Node 8, Type 1, BuildingBlock: JUFBIX_clean_sbu_0, # of connection points: 6
#     Node 9, Type 1, BuildingBlock: JUFBIX_clean_sbu_0, # of connection points: 6
#     Node 10, Type 1, BuildingBlock: JUFBIX_clean_sbu_0, # of connection points: 6
#     Node 11, Type 1, BuildingBlock: JUFBIX_clean_sbu_0, # of connection points: 6
#     Edge 12, Type (0, 1), BuildingBlock: ZUJKAS_clean_linker_0, # of connection points: 2
#     Edge 13, Type (0, 1), BuildingBlock: ZUJKAS_clean_linker_0, # of connection points: 2
#     Edge 14, Type (0, 1), BuildingBlock: ZUJKAS_clean_linker_0, # of connection points: 2
#     Edge 15, Type (0, 1), BuildingBlock: ZUJKAS_clean_linker_0, # of connection points: 2
#     Edge 16, Type (0, 1), BuildingBlock: ZUJKAS_clean_linker_0, # of connection points: 2
#     Edge 17, Type (0, 1), BuildingBlock: ZUJKAS_clean_linker_0, # of connection points: 2
#     Edge 18, Type (0, 1), BuildingBlock: ZUJKAS_clean_linker_0, # of connection points: 2
#     Edge 19, Type (0, 1), BuildingBlock: ZUJKAS_clean_linker_0, # of connection points: 2
#     Edge 20, Type (0, 1), BuildingBlock: ZUJKAS_clean_linker_0, # of connection points: 2
#     Edge 21, Type (0, 1), BuildingBlock: ZUJKAS_clean_linker_0, # of connection points: 2
#     Edge 22, Type (0, 1), BuildingBlock: ZUJKAS_clean_linker_0, # of connection points: 2
#     Edge 23, Type (0, 1), BuildingBlock: ZUJKAS_clean_linker_0, # of connection points: 2
#     Edge 24, Type (0, 1), BuildingBlock: ZUJKAS_clean_linker_0, # of connection points: 2
#     Edge 25, Type (0, 1), BuildingBlock: ZUJKAS_clean_linker_0, # of connection points: 2
#     Edge 26, Type (0, 1), BuildingBlock: ZUJKAS_clean_linker_0, # of connection points: 2
#     Edge 27, Type (0, 1), BuildingBlock: ZUJKAS_clean_linker_0, # of connection points: 2
#     Edge 28, Type (0, 1), BuildingBlock: ZUJKAS_clean_linker_0, # of connection points: 2
#     Edge 29, Type (0, 1), BuildingBlock: ZUJKAS_clean_linker_0, # of connection points: 2
#     Edge 30, Type (0, 1), BuildingBlock: ZUJKAS_clean_linker_0, # of connection points: 2
#     Edge 31, Type (0, 1), BuildingBlock: ZUJKAS_clean_linker_0, # of connection points: 2
#     Edge 32, Type (0, 1), BuildingBlock: ZUJKAS_clean_linker_0, # of connection points: 2
#     Edge 33, Type (0, 1), BuildingBlock: ZUJKAS_clean_linker_0, # of connection points: 2
#     Edge 34, Type (0, 1), BuildingBlock: ZUJKAS_clean_linker_0, # of connection points: 2
#     Edge 35, Type (0, 1), BuildingBlock: ZUJKAS_clean_linker_0, # of connection points: 2
# Relax obj value: 0.271
# Max RMSD: 0.211
# Mean RMSD: 0.178
data_MOF--net-zzz--node1-JUFBIX_clean_sbu_0--node2-BELTOD_clean_linker_0--edge1-ZUJKAS_clean_linker_0
_symmetry_space_group_name_H-M    P1
_symmetry_Int_Tables_number       1
_symmetry_cell_setting            triclinic
loop_
_symmetry_equiv_pos_as_xyz
'x, y, z'
_cell_length_a     67.474112
_cell_length_b     69.540962
_cell_length_c     26.480974
_cell_angle_alpha  83.609553
_cell_angle_beta   90.182181
_cell_angle_gamma 86.879032
loop_
_atom_site_label
_atom_site_type_symbol
_atom_site_fract_x
_atom_site_fract_y
_atom_site_fract_z
_atom_type_partial_charge
P0 P 0.76019 0.53372 0.29 0.0
H1 H 0.75113 0.53461 0.3975 0.0
H2 H 0.77005 0.54629 0.46557 0.0
H3 H 0.80769 0.57575 0.35359 0.0
H4 H 0.78805 0.5649 0.28609 0.0
H5 H 0.72477 0.51453 0.26612 0.0
H6 H 0.69628 0.52447 0.21161 0.0
H7 H 0.71704 0.58242 0.18561 0.0
H8 H 0.74598 0.57215 0.24083 0.0
H9 H 0.80063 0.51792 0.30417 0.0
H10 H 0.76357 0.54327 0.17834 0.0
O11 O 0.75679 0.51174 0.31991 0.0
H12 H 0.82865 0.51515 0.24673 0.0
H13 H 0.79157 0.54079 0.12092 0.0
C14 C 0.7686 0.54837 0.33691 0.0
C15 C 0.76299 0.54419 0.38763 0.0
C16 C 0.77399 0.55072 0.42656 0.0
C17 C 0.79089 0.56138 0.41526 0.0
C18 C 0.79489 0.56749 0.36399 0.0
C19 C 0.7837 0.56117 0.32512 0.0
C20 C 0.73737 0.54266 0.25807 0.0
C21 C 0.72301 0.52952 0.24993 0.0
C22 C 0.70661 0.53527 0.2187 0.0
C23 C 0.70427 0.55429 0.19436 0.0
C24 C 0.71843 0.56765 0.20373 0.0
C25 C 0.73486 0.56188 0.23555 0.0
C26 C 0.78003 0.53082 0.24569 0.0
C27 C 0.79852 0.52284 0.26415 0.0
C28 C 0.81455 0.52143 0.23138 0.0
C29 C 0.81235 0.52789 0.17936 0.0
C30 C 0.79369 0.5356 0.16077 0.0
C31 C 0.77766 0.53708 0.19371 0.0
P32 P 0.0566 0.75564 0.2823 0.0
H33 H 0.06763 0.76644 0.38135 0.0
H34 H 0.05031 0.78622 0.43893 0.0
H35 H 0.99618 0.78478 0.35196 0.0
H36 H 0.01395 0.76545 0.29325 0.0
H37 H 0.06847 0.71435 0.28837 0.0
H38 H 0.05912 0.68893 0.23782 0.0
H39 H 0.01313 0.72777 0.16351 0.0
H40 H 0.02252 0.75314 0.21439 0.0
H41 H 0.0555 0.79779 0.2848 0.0
H42 H 0.06375 0.75768 0.17243 0.0
O43 O 0.07945 0.74879 0.30394 0.0
H44 H 0.05617 0.82487 0.21845 0.0
H45 H 0.06368 0.7848 0.10545 0.0
C46 C 0.04208 0.76425 0.33314 0.0
C47 C 0.05188 0.76979 0.37553 0.0
C48 C 0.04188 0.78116 0.40866 0.0
C49 C 0.02182 0.78731 0.40003 0.0
C50 C 0.01169 0.7806 0.35937 0.0
C51 C 0.02178 0.76928 0.32605 0.0
C52 C 0.04629 0.7357 0.25496 0.0
C53 C 0.05609 0.7173 0.26206 0.0
C54 C 0.05082 0.7028 0.23283 0.0
C55 C 0.0356 0.70644 0.19605 0.0
C56 C 0.02485 0.72447 0.19166 0.0
C57 C 0.03017 0.73898 0.2209 0.0
C58 C 0.05872 0.77564 0.23345 0.0
C59 C 0.05726 0.79474 0.24584 0.0
C60 C 0.05761 0.81028 0.20774 0.0
C61 C 0.05954 0.80703 0.15646 0.0
C62 C 0.06214 0.78785 0.1445 0.0
C63 C 0.06193 0.7723 0.18278 0.0
P64 P 0.75524 0.99377 0.24352 0.0
H65 H 0.75137 0.99991 0.35056 0.0
H66 H 0.73078 0.98496 0.41739 0.0
H67 H 0.71769 0.94026 0.3231 0.0
H68 H 0.73788 0.95579 0.2555 0.0
H69 H 0.7943 0.00954 0.23049 0.0
H70 H 0.82299 0.00034 0.18173 0.0
H71 H 0.79558 0.94786 0.15254 0.0
H72 H 0.76649 0.9575 0.2008 0.0
H73 H 0.71213 0.99843 0.24776 0.0
H74 H 0.75659 0.99553 0.13161 0.0
O75 O 0.75842 0.01597 0.2594 0.0
H76 H 0.68606 0.00077 0.18307 0.0
H77 H 0.73055 0.99734 0.06685 0.0
C78 C 0.74605 0.97907 0.29785 0.0
C79 C 0.74457 0.98658 0.34471 0.0
C80 C 0.7328 0.97791 0.38316 0.0
C81 C 0.7223 0.96153 0.37543 0.0
C82 C 0.72528 0.95306 0.32998 0.0
C83 C 0.73705 0.96178 0.29149 0.0
C84 C 0.77823 0.98421 0.21937 0.0
C85 C 0.7946 0.99581 0.21477 0.0
C86 C 0.81111 0.99047 0.18688 0.0
C87 C 0.81158 0.97339 0.16287 0.0
C88 C 0.79559 0.96122 0.17003 0.0
C89 C 0.77905 0.96659 0.19815 0.0
C90 C 0.7363 0.99611 0.19481 0.0
C91 C 0.7163 0.99806 0.2084 0.0
C92 C 0.70139 0.99934 0.17137 0.0
C93 C 0.70622 0.9989 0.11988 0.0
C94 C 0.72633 0.99769 0.10617 0.0
C95 C 0.74125 0.99644 0.14333 0.0
P96 P 0.44165 0.74234 0.21365 0.0
H97 H 0.4403 0.74649 0.32252 0.0
H98 H 0.45801 0.72849 0.39507 0.0
H99 H 0.49606 0.69987 0.29197 0.0
H100 H 0.47885 0.7185 0.22007 0.0
H101 H 0.41981 0.77062 0.14344 0.0
H102 H 0.4293 0.79913 0.08866 0.0
H103 H 0.4894 0.7901 0.14678 0.0
H104 H 0.47965 0.76155 0.20217 0.0
H105 H 0.42393 0.70502 0.22779 0.0
H106 H 0.45827 0.73691 0.11313 0.0
O107 O 0.41893 0.74651 0.23614 0.0
H108 H 0.4257 0.67704 0.17908 0.0
H109 H 0.46012 0.70908 0.06451 0.0
C110 C 0.45798 0.73348 0.266 0.0
C111 C 0.45281 0.73672 0.31564 0.0
C112 C 0.46286 0.72628 0.3571 0.0
C113 C 0.47818 0.71234 0.34949 0.0
C114 C 0.48441 0.71047 0.2995 0.0
C115 C 0.47446 0.72105 0.25816 0.0
C116 C 0.44892 0.76422 0.17746 0.0
C117 C 0.43497 0.77491 0.14487 0.0
C118 C 0.44048 0.79109 0.11317 0.0
C119 C 0.46013 0.79683 0.11318 0.0
C120 C 0.4741 0.78614 0.14627 0.0
C121 C 0.46856 0.76984 0.17795 0.0
C122 C 0.44062 0.72314 0.17364 0.0
C123 C 0.43151 0.70611 0.19167 0.0
C124 C 0.43269 0.6901 0.16408 0.0
C125 C 0.44303 0.69088 0.11795 0.0
C126 C 0.45179 0.70814 0.09952 0.0
C127 C 0.45073 0.72409 0.12733 0.0
P128 P 0.22029 0.41619 0.3145 0.0
H129 H 0.21862 0.39789 0.22022 0.0
H130 H 0.1994 0.40659 0.14187 0.0
H131 H 0.1812 0.46161 0.19371 0.0
H132 H 0.20108 0.45312 0.27055 0.0
H133 H 0.25061 0.39803 0.38419 0.0
H134 H 0.28128 0.40916 0.41619 0.0
H135 H 0.27435 0.46134 0.31113 0.0
H136 H 0.24326 0.45006 0.2796 0.0
H137 H 0.18199 0.40354 0.35113 0.0
H138 H 0.22002 0.4499 0.37267 0.0
O139 O 0.22027 0.39203 0.32219 0.0
H140 H 0.15668 0.41779 0.40373 0.0
H141 H 0.19471 0.46443 0.42416 0.0
C142 C 0.21099 0.4247 0.25164 0.0
C143 C 0.21091 0.41203 0.21405 0.0
C144 C 0.19971 0.41695 0.16945 0.0
C145 C 0.18832 0.43463 0.16179 0.0
C146 C 0.18977 0.4479 0.19795 0.0
C147 C 0.2011 0.44301 0.24227 0.0
C148 C 0.24485 0.42304 0.32888 0.0
C149 C 0.25594 0.41162 0.36698 0.0
C150 C 0.27355 0.41802 0.38526 0.0
C151 C 0.28037 0.43613 0.36617 0.0
C152 C 0.26946 0.44736 0.32685 0.0
C153 C 0.25181 0.44085 0.30839 0.0
C154 C 0.20304 0.4254 0.35883 0.0
C155 C 0.18501 0.41661 0.36783 0.0
C156 C 0.17048 0.4249 0.39742 0.0
C157 C 0.17366 0.44229 0.41806 0.0
C158 C 0.1919 0.45089 0.40952 0.0
C159 C 0.20642 0.44256 0.37999 0.0
P160 P 0.06442 0.24424 0.27679 0.0
H161 H 0.0815 0.24795 0.17491 0.0
H162 H 0.07268 0.23335 0.09883 0.0
H163 H 0.0176 0.21629 0.16915 0.0
H164 H 0.02604 0.23197 0.2433 0.0
H165 H 0.0888 0.26878 0.32982 0.0
H166 H 0.081 0.29774 0.37137 0.0
H167 H 0.02124 0.30069 0.31098 0.0
H168 H 0.02929 0.27155 0.26865 0.0
H169 H 0.06314 0.20246 0.28098 0.0
H170 H 0.04357 0.24671 0.37455 0.0
O171 O 0.08893 0.23949 0.27614 0.0
H172 H 0.04785 0.17806 0.33927 0.0
H173 H 0.0289 0.22232 0.43391 0.0
C174 C 0.05469 0.24053 0.2153 0.0
C175 C 0.0672 0.24169 0.17309 0.0
C176 C 0.06223 0.23308 0.1298 0.0
C177 C 0.04474 0.22294 0.12832 0.0
C178 C 0.03123 0.22384 0.16858 0.0
C179 C 0.03609 0.23276 0.21142 0.0
C180 C 0.05972 0.26818 0.29545 0.0
C181 C 0.07418 0.27593 0.32413 0.0
C182 C 0.06964 0.29239 0.3484 0.0
C183 C 0.05046 0.30137 0.34491 0.0
C184 C 0.03621 0.29416 0.31403 0.0
C185 C 0.04079 0.27757 0.28971 0.0
C186 C 0.05436 0.22643 0.32297 0.0
C187 C 0.05572 0.20689 0.31435 0.0
C188 C 0.04704 0.19294 0.34791 0.0
C189 C 0.03705 0.19821 0.39129 0.0
C190 C 0.03612 0.2178 0.4004 0.0
C191 C 0.04468 0.23178 0.36651 0.0
P192 P 0.24535 0.09923 0.30169 0.0
H193 H 0.24286 0.10797 0.19071 0.0
H194 H 0.26198 0.09493 0.12282 0.0
H195 H 0.28932 0.05069 0.2331 0.0
H196 H 0.26912 0.06292 0.29924 0.0
H197 H 0.21315 0.11822 0.35279 0.0
H198 H 0.18416 0.10615 0.39788 0.0
H199 H 0.19756 0.04949 0.34976 0.0
H200 H 0.22702 0.06166 0.30599 0.0
H201 H 0.28721 0.10666 0.30288 0.0
H202 H 0.24434 0.08323 0.41007 0.0
O203 O 0.24274 0.12291 0.28228 0.0
H204 H 0.31382 0.09648 0.364 0.0
H205 H 0.27067 0.07391 0.47229 0.0
C206 C 0.25499 0.08673 0.25015 0.0
C207 C 0.25257 0.09512 0.19981 0.0
C208 C 0.26374 0.08776 0.16111 0.0
C209 C 0.27776 0.07205 0.17234 0.0
C210 C 0.27875 0.06273 0.2224 0.0
C211 C 0.26727 0.06985 0.26069 0.0
C212 C 0.22197 0.09095 0.32517 0.0
C213 C 0.20957 0.10332 0.3509 0.0
C214 C 0.19295 0.09637 0.3767 0.0
C215 C 0.18844 0.07682 0.37746 0.0
C216 C 0.20069 0.06457 0.35042 0.0
C217 C 0.21741 0.07155 0.3248 0.0
C218 C 0.26383 0.09557 0.35157 0.0
C219 C 0.28347 0.0998 0.34012 0.0
C220 C 0.29868 0.09402 0.3753 0.0
C221 C 0.29447 0.08413 0.42305 0.0
C222 C 0.27454 0.08104 0.43548 0.0
C223 C 0.25937 0.08658 0.39994 0.0
P224 P 0.46265 0.28652 0.32671 0.0
H225 H 0.4407 0.28485 0.23192 0.0
H226 H 0.44592 0.3007 0.14647 0.0
H227 H 0.50423 0.31557 0.19234 0.0
H228 H 0.49929 0.29864 0.27635 0.0
H229 H 0.44214 0.26069 0.39971 0.0
H230 H 0.45154 0.22945 0.44675 0.0
H231 H 0.5074 0.22815 0.36753 0.0
H232 H 0.49766 0.25964 0.31964 0.0
H233 H 0.46533 0.32808 0.30389 0.0
H234 H 0.48426 0.28409 0.42502 0.0
O235 O 0.43812 0.2906 0.33055 0.0
H236 H 0.4811 0.35252 0.34728 0.0
H237 H 0.49971 0.30868 0.46909 0.0
C238 C 0.46937 0.29111 0.26082 0.0
C239 C 0.45488 0.29091 0.22295 0.0
C240 C 0.45781 0.30023 0.1742 0.0
C241 C 0.47519 0.31013 0.1628 0.0
C242 C 0.49059 0.30826 0.19939 0.0
C243 C 0.48776 0.2986 0.24781 0.0
C244 C 0.46903 0.26229 0.35546 0.0
C245 C 0.45627 0.25358 0.39167 0.0
C246 C 0.46177 0.23579 0.41905 0.0
C247 C 0.48029 0.22639 0.41121 0.0
C248 C 0.49297 0.23498 0.37414 0.0
C249 C 0.48743 0.25292 0.34671 0.0
C250 C 0.47396 0.3042 0.36062 0.0
C251 C 0.47298 0.32365 0.33967 0.0
C252 C 0.48205 0.33759 0.36434 0.0
C253 C 0.49184 0.3324 0.41112 0.0
C254 C 0.49234 0.313 0.43287 0.0
C255 C 0.48352 0.29896 0.40766 0.0
Co256 Co 0.00547 0.01398 0.79218 0.0
C257 C 0.96885 0.99746 0.81063 0.0
Co258 Co 0.99488 0.99754 0.73128 0.0
C259 C 0.01602 0.04642 0.84593 0.0
C260 C 0.01437 0.01989 0.89483 0.0
N261 N 0.01312 0.02732 0.84558 0.0
N262 N 0.01871 0.05117 0.89352 0.0
C263 C 0.01782 0.03445 0.92425 0.0
H264 H 0.01511 0.05681 0.81227 0.0
H265 H 0.01207 0.00497 0.90879 0.0
C266 C 0.03157 0.01391 0.71303 0.0
N267 N 0.98714 0.98411 0.67798 0.0
C268 C 0.98489 0.9649 0.67787 0.0
C269 C 0.98476 0.99154 0.62895 0.0
N270 N 0.98133 0.96006 0.63071 0.0
C271 C 0.98114 0.97688 0.59998 0.0
C272 C 0.9835 0.03684 0.71792 0.0
O273 O 0.02885 0.02046 0.75563 0.0
O274 O 0.01873 0.00337 0.69649 0.0
O275 O 0.98248 0.02099 0.69854 0.0
O276 O 0.99229 0.03678 0.76035 0.0
O277 O 0.97105 0.99174 0.76688 0.0
H278 H 0.98651 0.00651 0.6146 0.0
H279 H 0.98638 0.95457 0.71155 0.0
O280 O 0.98208 0.00737 0.82789 0.0
O281 O 0.01874 0.99093 0.82348 0.0
O282 O 0.00758 0.9745 0.76449 0.0
C283 C 0.01745 0.97491 0.80522 0.0
H284 H 0.01912 0.0329 0.96527 0.0
H285 H 0.97965 0.97839 0.559 0.0
Co286 Co 0.49211 0.0161 0.79351 0.0
C287 C 0.49401 0.97578 0.80761 0.0
Co288 Co 0.50625 0.00241 0.73012 0.0
C289 C 0.46086 0.02522 0.86248 0.0
C290 C 0.48741 0.0392 0.87736 0.0
N291 N 0.47973 0.02719 0.84666 0.0
N292 N 0.45647 0.0355 0.90165 0.0
C293 C 0.47316 0.04424 0.91139 0.0
H294 H 0.4505 0.01636 0.84573 0.0
H295 H 0.50231 0.0442 0.87477 0.0
C296 C 0.50412 0.04278 0.71592 0.0
N297 N 0.5186 0.99153 0.67655 0.0
C298 C 0.53599 0.98089 0.67711 0.0
C299 C 0.51332 0.99484 0.62709 0.0
N300 N 0.54195 0.97768 0.62991 0.0
C301 C 0.52756 0.98635 0.59844 0.0
C302 C 0.46577 0.00963 0.71724 0.0
O303 O 0.49608 0.04113 0.75948 0.0
O304 O 0.50985 0.02756 0.69637 0.0
O305 O 0.4811 0.00239 0.69712 0.0
O306 O 0.46739 0.01621 0.75973 0.0
O307 O 0.50247 0.9773 0.76452 0.0
H308 H 0.50051 0.00377 0.61242 0.0
H309 H 0.54446 0.9762 0.71143 0.0
O310 O 0.48819 0.99107 0.8268 0.0
O311 O 0.51703 0.01593 0.82667 0.0
O312 O 0.53119 0.0028 0.76356 0.0
C313 C 0.5326 0.00936 0.80623 0.0
H314 H 0.47476 0.05402 0.94004 0.0
H315 H 0.52786 0.98761 0.55736 0.0
Co316 Co 0.51216 0.5117 0.76619 0.0
C317 C 0.49088 0.48123 0.8131 0.0
Co318 Co 0.48058 0.5123 0.74274 0.0
C319 C 0.54795 0.52305 0.81362 0.0
C320 C 0.55168 0.49524 0.78646 0.0
N321 N 0.53843 0.51036 0.78834 0.0
N322 N 0.56651 0.51632 0.82811 0.0
C323 C 0.5689 0.49886 0.81067 0.0
H324 H 0.54107 0.53658 0.82318 0.0
H325 H 0.54881 0.4821 0.77001 0.0
C326 C 0.50188 0.54263 0.69543 0.0
N327 N 0.45433 0.51368 0.72033 0.0
C328 C 0.44482 0.50081 0.69571 0.0
C329 C 0.44123 0.52902 0.72056 0.0
N330 N 0.42638 0.50758 0.6802 0.0
C331 C 0.42407 0.5253 0.69613 0.0
C332 C 0.48667 0.53278 0.82455 0.0
O333 O 0.51638 0.53471 0.72237 0.0
O334 O 0.48516 0.53499 0.69858 0.0
O335 O 0.4735 0.52775 0.79508 0.0
O336 O 0.50465 0.52702 0.81911 0.0
O337 O 0.4763 0.4895 0.78707 0.0
H338 H 0.44424 0.54241 0.73562 0.0
H339 H 0.45148 0.4869 0.68834 0.0
O340 O 0.50769 0.4887 0.80971 0.0
O341 O 0.51926 0.49634 0.71281 0.0
O342 O 0.48791 0.49692 0.69083 0.0
C343 C 0.5058 0.49123 0.68424 0.0
H344 H 0.58204 0.48918 0.81572 0.0
H345 H 0.41129 0.53531 0.68854 0.0
Co346 Co 0.99403 0.52332 0.79868 0.0
C347 C 0.02147 0.4905 0.83177 0.0
Co348 Co 0.98791 0.48628 0.762 0.0
C349 C 0.00285 0.55836 0.83048 0.0
C350 C 0.01735 0.55688 0.75923 0.0
N351 N 0.00546 0.54703 0.79273 0.0
N352 N 0.01266 0.57479 0.82257 0.0
C353 C 0.02189 0.57392 0.77776 0.0
H354 H 0.99432 0.55424 0.86413 0.0
H355 H 0.02265 0.55202 0.72405 0.0
C356 C 0.9618 0.52004 0.72568 0.0
N357 N 0.9849 0.46313 0.73454 0.0
C358 C 0.99813 0.4525 0.70931 0.0
C359 C 0.96763 0.45445 0.73112 0.0
N360 N 0.98973 0.4376 0.69033 0.0
C361 C 0.97057 0.43871 0.70437 0.0
C362 C 0.9701 0.49162 0.837 0.0
O363 O 0.97174 0.53122 0.75224 0.0
O364 O 0.96592 0.50138 0.72574 0.0
O365 O 0.97021 0.47624 0.81749 0.0
O366 O 0.98152 0.50323 0.81529 0.0
O367 O 0.01196 0.47895 0.80508 0.0
H368 H 0.95358 0.45968 0.74543 0.0
H369 H 0.01346 0.45598 0.7036 0.0
O370 O 0.01599 0.50879 0.8344 0.0
O371 O 0.00977 0.51894 0.7396 0.0
O372 O 0.00346 0.4928 0.70771 0.0
C373 C 0.0126 0.50786 0.70552 0.0
H374 H 0.03126 0.58478 0.75972 0.0
H375 H 0.95925 0.42943 0.69373 0.0
H376 H 0.18732 0.04175 0.43575 0.0
H377 H 0.16063 0.02994 0.49095 0.0
H378 H 0.12571 0.08313 0.44869 0.0
H379 H 0.15185 0.09464 0.39134 0.0
H380 H 0.1457 0.04492 0.57311 0.0
H381 H 0.08578 0.04348 0.4303 0.0
H382 H 0.11137 0.04625 0.41275 0.0
H383 H 0.09613 0.06676 0.42847 0.0
C384 C 0.17377 0.05076 0.43714 0.0
C385 C 0.17173 0.06913 0.40878 0.0
C386 C 0.1586 0.04406 0.46918 0.0
C387 C 0.14107 0.05554 0.47356 0.0
C388 C 0.13893 0.07384 0.4452 0.0
H389 H 0.05711 0.04259 0.72325 0.0
H390 H 0.0842 0.05246 0.66645 0.0
C391 C 0.15402 0.0805 0.41286 0.0
C392 C 0.1254 0.04872 0.50938 0.0
H393 H 0.0761 0.04022 0.51715 0.0
C394 C 0.1305 0.04378 0.56085 0.0
C395 C 0.10562 0.04703 0.49327 0.0
C396 C 0.09941 0.05097 0.43811 0.0
C397 C 0.11631 0.03743 0.59674 0.0
C398 C 0.09638 0.03644 0.58093 0.0
C399 C 0.09134 0.04116 0.52936 0.0
C400 C 0.08053 0.03014 0.61683 0.0
C401 C 0.12293 0.03147 0.65098 0.0
C402 C 0.06922 0.01455 0.60738 0.0
C403 C 0.05359 0.00908 0.63927 0.0
C404 C 0.04897 0.01904 0.68148 0.0
C405 C 0.06047 0.03449 0.69139 0.0
C406 C 0.07601 0.04009 0.65907 0.0
H407 H 0.13915 0.02775 0.65368 0.0
H408 H 0.11967 0.0437 0.67378 0.0
H409 H 0.11497 0.0188 0.66807 0.0
H410 H 0.0724 0.00668 0.57499 0.0
H411 H 0.04502 0.99712 0.63056 0.0
H412 H 0.49822 0.19325 0.38055 0.0
H413 H 0.50526 0.16206 0.43249 0.0
H414 H 0.48295 0.18683 0.56472 0.0
H415 H 0.47599 0.21789 0.51345 0.0
H416 H 0.5286 0.15171 0.52469 0.0
H417 H 0.44844 0.14017 0.553 0.0
H418 H 0.45734 0.15794 0.50468 0.0
H419 H 0.45603 0.16301 0.56972 0.0
C420 C 0.49505 0.19208 0.42081 0.0
C421 C 0.48624 0.20793 0.44274 0.0
C422 C 0.49903 0.17427 0.45036 0.0
C423 C 0.49425 0.17207 0.50218 0.0
C424 C 0.48633 0.18811 0.52455 0.0
H425 H 0.49234 0.07817 0.74496 0.0
H426 H 0.49185 0.10965 0.69341 0.0
C427 C 0.48233 0.20584 0.49516 0.0
C428 C 0.49684 0.15292 0.53285 0.0
H429 H 0.47105 0.11847 0.60241 0.0
C430 C 0.51604 0.14435 0.5415 0.0
C431 C 0.48041 0.14338 0.55461 0.0
C432 C 0.45936 0.15147 0.54475 0.0
C433 C 0.51928 0.12669 0.5726 0.0
C434 C 0.50284 0.11729 0.59486 0.0
C435 C 0.48364 0.12579 0.58566 0.0
C436 C 0.50502 0.09849 0.62742 0.0
C437 C 0.54027 0.11849 0.58239 0.0
C438 C 0.51271 0.08178 0.60754 0.0
C439 C 0.51304 0.06376 0.63693 0.0
C440 C 0.50554 0.06209 0.68667 0.0
C441 C 0.49825 0.07894 0.70685 0.0
C442 C 0.49794 0.09694 0.67743 0.0
H443 H 0.55126 0.1297 0.57373 0.0
H444 H 0.54232 0.11213 0.62255 0.0
H445 H 0.54347 0.10683 0.5577 0.0
H446 H 0.51787 0.08256 0.56872 0.0
H447 H 0.51866 0.05108 0.62009 0.0
H448 H 0.31526 0.41635 0.39829 0.0
H449 H 0.34185 0.42777 0.44864 0.0
H450 H 0.31183 0.48436 0.43921 0.0
H451 H 0.2849 0.47301 0.38995 0.0
H452 H 0.36035 0.47703 0.42083 0.0
H453 H 0.32568 0.44657 0.60107 0.0
H454 H 0.32619 0.43294 0.54691 0.0
H455 H 0.31089 0.45488 0.54509 0.0
C456 C 0.31434 0.43126 0.40666 0.0
C457 C 0.29785 0.44373 0.39033 0.0
C458 C 0.32959 0.43776 0.43518 0.0
C459 C 0.32869 0.45685 0.44767 0.0
C460 C 0.31277 0.46959 0.4297 0.0
H461 H 0.3864 0.51384 0.67516 0.0
H462 H 0.3635 0.50091 0.61754 0.0
C463 C 0.29746 0.46309 0.40129 0.0
C464 C 0.34368 0.46315 0.48224 0.0
H465 H 0.35519 0.46259 0.60802 0.0
C466 C 0.35935 0.47384 0.46175 0.0
C467 C 0.34214 0.459 0.53547 0.0
C468 C 0.32533 0.44776 0.55889 0.0
C469 C 0.37356 0.48063 0.4934 0.0
C470 C 0.37207 0.47643 0.5468 0.0
C471 C 0.35636 0.46569 0.56711 0.0
C472 C 0.38614 0.48377 0.58236 0.0
C473 C 0.38971 0.49269 0.46953 0.0
C474 C 0.40643 0.47813 0.58247 0.0
C475 C 0.41961 0.48559 0.61526 0.0
C476 C 0.41271 0.4988 0.64872 0.0
C477 C 0.39227 0.50397 0.64939 0.0
C478 C 0.37914 0.4965 0.61665 0.0
H479 H 0.38618 0.49824 0.42935 0.0
H480 H 0.39213 0.50519 0.49107 0.0
H481 H 0.40379 0.48365 0.47021 0.0
H482 H 0.4121 0.46803 0.55697 0.0
H483 H 0.43524 0.48137 0.61341 0.0
H484 H 0.05927 0.30218 0.44494 0.0
H485 H 0.0501 0.32737 0.49899 0.0
H486 H 0.02049 0.36144 0.37182 0.0
H487 H 0.02936 0.33594 0.31748 0.0
H488 H 0.05886 0.36477 0.49473 0.0
H489 H 0.97734 0.35955 0.47698 0.0
H490 H 0.99487 0.342 0.45451 0.0
H491 H 0.98967 0.36504 0.41758 0.0
C492 C 0.05092 0.31509 0.42832 0.0
C493 C 0.04506 0.31709 0.37689 0.0
C494 C 0.04565 0.32948 0.45932 0.0
C495 C 0.03441 0.34623 0.43972 0.0
C496 C 0.0288 0.34846 0.38811 0.0
H497 H 0.01731 0.44557 0.61779 0.0
H498 H 0.0292 0.42436 0.55503 0.0
C499 C 0.03391 0.33393 0.35706 0.0
C500 C 0.02853 0.36108 0.47393 0.0
H501 H 0.98833 0.38373 0.52445 0.0
C502 C 0.04343 0.36898 0.50115 0.0
C503 C 0.0084 0.3664 0.48269 0.0
C504 C 0.99162 0.3577 0.45681 0.0
C505 C 0.03877 0.38179 0.53743 0.0
C506 C 0.01864 0.38723 0.54584 0.0
C507 C 0.00377 0.3796 0.51792 0.0
C508 C 0.01246 0.4 0.58514 0.0
C509 C 0.05543 0.38873 0.56769 0.0
C510 C 0.99895 0.39351 0.62267 0.0
C511 C 0.99196 0.40568 0.65797 0.0
C512 C 0.99841 0.42459 0.6568 0.0
C513 C 0.01233 0.43096 0.62009 0.0
C514 C 0.01915 0.41883 0.58424 0.0
H515 H 0.06918 0.37924 0.56656 0.0
H516 H 0.05889 0.40354 0.55132 0.0
H517 H 0.05118 0.38928 0.608 0.0
H518 H 0.99362 0.37904 0.6243 0.0
H519 H 0.98136 0.40037 0.68605 0.0
H520 H 0.85132 0.97862 0.17333 0.0
H521 H 0.87675 0.97756 0.10811 0.0
H522 H 0.83435 0.95776 0.00602 0.0
H523 H 0.80856 0.95964 0.0702 0.0
H524 H 0.89294 0.94914 0.05333 0.0
H525 H 0.85196 0.0071 0.92593 0.0
H526 H 0.8451 0.00096 0.99126 0.0
H527 H 0.83858 0.98581 0.94374 0.0
C528 C 0.84739 0.97399 0.13705 0.0
C529 C 0.82781 0.9695 0.1268 0.0
C530 C 0.86198 0.97327 0.09992 0.0
C531 C 0.85733 0.96801 0.05181 0.0
C532 C 0.83815 0.96229 0.04251 0.0
H533 H 0.93588 0.9789 0.78503 0.0
H534 H 0.90814 0.96926 0.84052 0.0
C535 C 0.82349 0.96311 0.07956 0.0
C536 C 0.87234 0.96961 0.01095 0.0
H537 H 0.88279 0.99538 0.89748 0.0
C538 C 0.89064 0.9591 0.01902 0.0
C539 C 0.86932 0.98263 0.96613 0.0
C540 C 0.85026 0.99491 0.95621 0.0
C541 C 0.90616 0.96161 0.98415 0.0
C542 C 0.90334 0.97509 0.94035 0.0
C543 C 0.88482 0.98501 0.9311 0.0
C544 C 0.92002 0.98055 0.90653 0.0
C545 C 0.92561 0.95011 0.99483 0.0
C546 C 0.93558 0.99038 0.92513 0.0
C547 C 0.95123 0.99605 0.89364 0.0
C548 C 0.95169 0.99197 0.84278 0.0
C549 C 0.93597 0.98223 0.82401 0.0
C550 C 0.92016 0.97669 0.85562 0.0
H551 H 0.92381 0.93698 0.02207 0.0
H552 H 0.93216 0.94563 0.95924 0.0
H553 H 0.93623 0.95928 0.01174 0.0
H554 H 0.93556 0.99378 0.96408 0.0
H555 H 0.96308 0.00351 0.90943 0.0
H556 H 0.44967 0.8061 0.01333 0.0
H557 H 0.45721 0.8351 0.95739 0.0
H558 H 0.4909 0.85515 0.078 0.0
H559 H 0.48342 0.8261 0.13428 0.0
H560 H 0.44665 0.87251 0.97205 0.0
H561 H 0.52846 0.86254 0.95787 0.0
H562 H 0.51311 0.84314 0.98181 0.0
H563 H 0.51971 0.86102 0.02208 0.0
C564 C 0.45873 0.81666 0.02795 0.0
C565 C 0.46588 0.81384 0.07834 0.0
C566 C 0.4631 0.83317 0.99584 0.0
C567 C 0.47478 0.8472 0.01331 0.0
C568 C 0.48222 0.84432 0.06335 0.0
H569 H 0.4762 0.96806 0.89945 0.0
H570 H 0.4717 0.93649 0.9469 0.0
C571 C 0.4779 0.82773 0.09551 0.0
C572 C 0.47805 0.86537 0.98014 0.0
H573 H 0.51397 0.89374 0.927 0.0
C574 C 0.46137 0.87709 0.96194 0.0
C575 C 0.49725 0.87121 0.96643 0.0
C576 C 0.51567 0.85875 0.98262 0.0
C577 C 0.46337 0.8947 0.93148 0.0
C578 C 0.48258 0.90094 0.91958 0.0
C579 C 0.49927 0.889 0.93659 0.0
C580 C 0.48559 0.92004 0.89062 0.0
C581 C 0.44488 0.90642 0.91203 0.0
C582 C 0.49532 0.92129 0.84369 0.0
C583 C 0.49801 0.93939 0.81639 0.0
C584 C 0.49112 0.95653 0.83582 0.0
C585 C 0.48158 0.95517 0.88316 0.0
C586 C 0.47891 0.93712 0.9103 0.0
H587 H 0.43182 0.89734 0.91244 0.0
H588 H 0.44155 0.91802 0.93683 0.0
H589 H 0.44694 0.91336 0.8727 0.0
H590 H 0.50068 0.90827 0.82799 0.0
H591 H 0.5055 0.93993 0.78019 0.0
H592 H 0.70636 0.5751 0.10052 0.0
H593 H 0.68152 0.57789 0.03219 0.0
H594 H 0.64136 0.5462 0.13218 0.0
H595 H 0.66566 0.54417 0.20102 0.0
H596 H 0.66971 0.54788 0.99105 0.0
H597 H 0.60299 0.58568 0.05999 0.0
H598 H 0.62699 0.58615 0.09007 0.0
H599 H 0.61137 0.56619 0.1064 0.0
C600 C 0.69195 0.56939 0.10851 0.0
C601 C 0.68805 0.55928 0.15615 0.0
C602 C 0.6778 0.57087 0.06927 0.0
C603 C 0.65947 0.56238 0.07698 0.0
C604 C 0.65516 0.55325 0.12538 0.0
H605 H 0.59479 0.49762 0.89109 0.0
H606 H 0.61763 0.51193 0.9455 0.0
C607 C 0.66922 0.55186 0.16461 0.0
C608 C 0.64605 0.56053 0.03331 0.0
H609 H 0.59714 0.563 0.99807 0.0
C610 C 0.6539 0.55161 0.99213 0.0
C611 C 0.62545 0.56562 0.03399 0.0
C612 C 0.61628 0.57664 0.07478 0.0
C613 C 0.64159 0.54645 0.95363 0.0
C614 C 0.6208 0.54986 0.95696 0.0
C615 C 0.61305 0.56004 0.99605 0.0
C616 C 0.60689 0.54153 0.92283 0.0
C617 C 0.65097 0.53697 0.91033 0.0
C618 C 0.59281 0.55336 0.89295 0.0
C619 C 0.5796 0.54516 0.86158 0.0
C620 C 0.5802 0.52497 0.85979 0.0
C621 C 0.59419 0.51323 0.89037 0.0
C622 C 0.6073 0.5214 0.92163 0.0
H623 H 0.66644 0.54134 0.90387 0.0
H624 H 0.65153 0.521 0.91982 0.0
H625 H 0.64232 0.54074 0.87451 0.0
H626 H 0.59213 0.56893 0.89363 0.0
H627 H 0.56907 0.55463 0.83843 0.0
H628 H 1.00003 0.69511 0.1616 0.0
H629 H 0.9949 0.67251 0.09846 0.0
H630 H 0.05828 0.66373 0.08336 0.0
H631 H 0.06348 0.686 0.14646 0.0
H632 H 0.00607 0.67456 0.9993 0.0
H633 H 0.04181 0.6086 0.10569 0.0
H634 H 0.03545 0.63023 0.13531 0.0
H635 H 0.05788 0.62842 0.09909 0.0
C636 C 0.01285 0.68825 0.14501 0.0
C637 C 0.03216 0.69214 0.15956 0.0
C638 C 0.00991 0.67534 0.109 0.0
C639 C 0.02621 0.66612 0.08689 0.0
C640 C 0.04547 0.67019 0.10097 0.0
H641 H 0.04392 0.59645 0.83747 0.0
H642 H 0.04648 0.61962 0.90039 0.0
C643 C 0.04842 0.68294 0.13711 0.0
C644 C 0.0232 0.65279 0.04777 0.0
H645 H 0.03573 0.60724 0.01719 0.0
C646 C 0.0124 0.65979 0.00344 0.0
C647 C 0.03141 0.63347 0.05323 0.0
C648 C 0.04211 0.62466 0.10112 0.0
C649 C 0.01005 0.64815 0.96395 0.0
C650 C 0.01874 0.6291 0.96896 0.0
C651 C 0.02929 0.62198 0.01339 0.0
C652 C 0.01673 0.61614 0.9288 0.0
C653 C 0.99858 0.65627 0.91669 0.0
C654 C 0.99914 0.60667 0.92399 0.0
C655 C 0.99768 0.5934 0.88839 0.0
C656 C 0.01378 0.58944 0.85679 0.0
C657 C 0.03123 0.59934 0.8609 0.0
C658 C 0.03274 0.61249 0.89692 0.0
H659 H 0.99429 0.67193 0.9166 0.0
H660 H 0.00758 0.65423 0.88244 0.0
H661 H 0.9849 0.64827 0.91392 0.0
H662 H 0.98666 0.60929 0.94843 0.0
H663 H 0.98398 0.58615 0.8857 0.0
H664 H 0.05139 0.16118 0.42198 0.0
H665 H 0.03589 0.13649 0.47879 0.0
H666 H 0.98672 0.17692 0.50063 0.0
H667 H 0.00165 0.20149 0.44153 0.0
H668 H 0.02722 0.13721 0.5776 0.0
H669 H 0.95828 0.12984 0.46772 0.0
H670 H 0.97907 0.14249 0.44062 0.0
H671 H 0.96227 0.154 0.48198 0.0
C672 C 0.03711 0.16477 0.43805 0.0
C673 C 0.02772 0.18331 0.42682 0.0
C674 C 0.02833 0.15066 0.47087 0.0
C675 C 0.01001 0.15477 0.49341 0.0
C676 C 0.00066 0.17331 0.48287 0.0
H677 H 0.97902 0.07264 0.75099 0.0
H678 H 0.98074 0.10371 0.69839 0.0
C679 C 0.00938 0.18742 0.44965 0.0
C680 C 0.00129 0.13971 0.52934 0.0
H681 H 0.96161 0.11131 0.54806 0.0
C682 C 0.01282 0.13163 0.57136 0.0
C683 C 0.98254 0.1324 0.52083 0.0
C684 C 0.96985 0.13998 0.47514 0.0
C685 C 0.00643 0.11608 0.60435 0.0
C686 C 0.98762 0.10879 0.59609 0.0
C687 C 0.97586 0.11713 0.55469 0.0
C688 C 0.98107 0.09125 0.62706 0.0
C689 C 0.02037 0.10698 0.64618 0.0
C690 C 0.97888 0.07423 0.60414 0.0
C691 C 0.97746 0.0565 0.63404 0.0
C692 C 0.97845 0.05555 0.68731 0.0
C693 C 0.97849 0.07289 0.71002 0.0
C694 C 0.9796 0.09064 0.68005 0.0
H695 H 0.03579 0.11153 0.64016 0.0
H696 H 0.01526 0.11152 0.68307 0.0
H697 H 0.0206 0.09092 0.64888 0.0
H698 H 0.97979 0.07441 0.56325 0.0
H699 H 0.97737 0.04342 0.61536 0.0
H700 H 0.32988 0.10002 0.44107 0.0
H701 H 0.35793 0.08501 0.49216 0.0
H702 H 0.32395 0.03536 0.53809 0.0
H703 H 0.29636 0.04959 0.48443 0.0
H704 H 0.36241 0.07416 0.5906 0.0
H705 H 0.37326 0.00941 0.4872 0.0
H706 H 0.35693 0.0299 0.46409 0.0
H707 H 0.34879 0.01194 0.51271 0.0
C708 C 0.32842 0.0858 0.46149 0.0
C709 C 0.31087 0.07597 0.45807 0.0
C710 C 0.34444 0.0773 0.49104 0.0
C711 C 0.34321 0.05886 0.51803 0.0
C712 C 0.32544 0.04936 0.51648 0.0
H713 H 0.42902 0.01604 0.75641 0.0
H714 H 0.39833 0.02613 0.70918 0.0
C715 C 0.30952 0.05772 0.48643 0.0
C716 C 0.3605 0.0497 0.548 0.0
H717 H 0.39193 0.00924 0.56355 0.0
C718 C 0.36889 0.05998 0.58464 0.0
C719 C 0.36913 0.03131 0.5396 0.0
C720 C 0.3617 0.02008 0.49841 0.0
C721 C 0.38562 0.0524 0.61322 0.0
C722 C 0.39378 0.03369 0.60621 0.0
C723 C 0.38546 0.02343 0.56941 0.0
C724 C 0.41152 0.02497 0.63507 0.0
C725 C 0.39473 0.06483 0.6494 0.0
C726 C 0.42875 0.01966 0.60918 0.0
C727 C 0.44619 0.01342 0.63613 0.0
C728 C 0.44669 0.01257 0.68938 0.0
C729 C 0.42912 0.01678 0.71532 0.0
C730 C 0.41162 0.02271 0.68839 0.0
H731 H 0.39027 0.08042 0.6397 0.0
H732 H 0.38958 0.06042 0.68851 0.0
H733 H 0.41119 0.06312 0.6492 0.0
H734 H 0.42894 0.02113 0.56802 0.0
H735 H 0.45952 0.0103 0.61514 0.0
H736 H 0.517 0.35955 0.37223 0.0
H737 H 0.52886 0.38665 0.41349 0.0
H738 H 0.49757 0.36688 0.5498 0.0
H739 H 0.48633 0.33948 0.50926 0.0
H740 H 0.50724 0.41503 0.44217 0.0
H741 H 0.54792 0.38041 0.61181 0.0
H742 H 0.54119 0.36693 0.56048 0.0
H743 H 0.52376 0.37103 0.61022 0.0
C744 C 0.51301 0.36084 0.41136 0.0
C745 C 0.50079 0.34747 0.43768 0.0
C746 C 0.51981 0.37627 0.43491 0.0
C747 C 0.51438 0.37869 0.48507 0.0
C748 C 0.50252 0.36504 0.51171 0.0
H749 H 0.4799 0.47745 0.61998 0.0
H750 H 0.48613 0.45175 0.56614 0.0
C751 C 0.49597 0.34944 0.48842 0.0
C752 C 0.51901 0.39657 0.5075 0.0
H753 H 0.533 0.41286 0.61841 0.0
C754 C 0.51331 0.41454 0.48029 0.0
C755 C 0.52739 0.39612 0.55672 0.0
C756 C 0.53562 0.37756 0.58613 0.0
C757 C 0.51432 0.43186 0.50242 0.0
C758 C 0.52061 0.43114 0.55362 0.0
C759 C 0.52781 0.41339 0.57944 0.0
C760 C 0.51764 0.44806 0.58272 0.0
C761 C 0.50815 0.45069 0.471 0.0
C762 C 0.53325 0.45442 0.61075 0.0
C763 C 0.52966 0.46906 0.64238 0.0
C764 C 0.51038 0.47746 0.64664 0.0
C765 C 0.49495 0.47139 0.61743 0.0
C766 C 0.49852 0.45677 0.58618 0.0
H767 H 0.51134 0.44987 0.43013 0.0
H768 H 0.49191 0.45359 0.47451 0.0
H769 H 0.51587 0.46304 0.48367 0.0
H770 H 0.54809 0.44777 0.60897 0.0
H771 H 0.54184 0.47336 0.6646 0.0
H772 H 0.13396 0.44606 0.39586 0.0
H773 H 0.10765 0.46161 0.44278 0.0
H774 H 0.15081 0.47598 0.55099 0.0
H775 H 0.17727 0.46019 0.50464 0.0
H776 H 0.09832 0.45125 0.54657 0.0
H777 H 0.11861 0.52799 0.50948 0.0
H778 H 0.12782 0.50946 0.47151 0.0
H779 H 0.13814 0.51074 0.53352 0.0
C780 C 0.13787 0.4524 0.42983 0.0
C781 C 0.15772 0.45181 0.44662 0.0
C782 C 0.12284 0.46142 0.45632 0.0
C783 C 0.12735 0.47017 0.49986 0.0
C784 C 0.1471 0.46967 0.51682 0.0
H785 H 0.05001 0.51919 0.7209 0.0
H786 H 0.07888 0.51234 0.66807 0.0
C787 C 0.16218 0.4606 0.49036 0.0
C788 C 0.11113 0.47884 0.52886 0.0
H789 H 0.09175 0.52156 0.56511 0.0
C790 C 0.09686 0.46662 0.55058 0.0
C791 C 0.10942 0.49887 0.53431 0.0
C792 C 0.1242 0.51262 0.51073 0.0
C793 C 0.08086 0.47387 0.57767 0.0
C794 C 0.07883 0.49399 0.5821 0.0
C795 C 0.0933 0.5062 0.56123 0.0
C796 C 0.06158 0.50237 0.60812 0.0
C797 C 0.06639 0.45982 0.60181 0.0
C798 C 0.04234 0.50024 0.59018 0.0
C799 C 0.02599 0.50395 0.62029 0.0
C800 C 0.0286 0.51029 0.66826 0.0
C801 C 0.04765 0.51451 0.68375 0.0
C802 C 0.06412 0.51048 0.65383 0.0
H803 H 0.07295 0.44471 0.60684 0.0
H804 H 0.06149 0.46381 0.63944 0.0
H805 H 0.0531 0.4601 0.57688 0.0
H806 H 0.04007 0.49439 0.55447 0.0
H807 H 0.01141 0.50059 0.60763 0.0
H808 H 0.08089 0.81229 0.06809 0.0
H809 H 0.07678 0.83908 0.99985 0.0
H810 H 0.03069 0.86599 0.08495 0.0
H811 H 0.03405 0.839 0.15199 0.0
H812 H 0.0203 0.8645 0.98529 0.0
H813 H 0.09465 0.89435 1.0001 0.0
H814 H 0.09472 0.86911 0.99109 0.0
H815 H 0.08509 0.87714 0.04879 0.0
C816 C 0.06983 0.82388 0.07215 0.0
C817 C 0.05788 0.82355 0.11569 0.0
C818 C 0.06766 0.83928 0.03339 0.0
C819 C 0.05362 0.85463 0.03771 0.0
C820 C 0.0417 0.85432 0.08103 0.0
H821 H 0.03522 0.97033 0.8988 0.0
H822 H 0.04567 0.93996 0.94936 0.0
C823 C 0.04378 0.83896 0.11957 0.0
C824 C 0.05073 0.87088 0.99677 0.0
H825 H 0.073 0.90981 0.93613 0.0
C826 C 0.03185 0.87434 0.97418 0.0
C827 C 0.06583 0.88371 0.98273 0.0
C828 C 0.08618 0.88106 0.00713 0.0
C829 C 0.02745 0.89059 0.93893 0.0
C830 C 0.04252 0.90349 0.92498 0.0
C831 C 0.06156 0.89978 0.94662 0.0
C832 C 0.03825 0.92178 0.8916 0.0
C833 C 0.00646 0.89429 0.91884 0.0
C834 C 0.03118 0.92165 0.84175 0.0
C835 C 0.025 0.93901 0.81283 0.0
C836 C 0.02603 0.95678 0.83317 0.0
C837 C 0.03416 0.9569 0.88208 0.0
C838 C 0.04019 0.93955 0.91102 0.0
H839 H 0.99581 0.88538 0.94173 0.0
H840 H 0.00155 0.9098 0.91858 0.0
H841 H 0.00581 0.89055 0.87923 0.0
H842 H 0.02997 0.9081 0.8257 0.0
H843 H 0.01899 0.93845 0.77508 0.0
H844 H 0.67169 0.98007 0.12666 0.0
H845 H 0.6448 0.98212 0.06413 0.0
H846 H 0.67788 0.02069 0.96171 0.0
H847 H 0.70463 0.01929 0.025 0.0
H848 H 0.63934 0.03394 0.9716 0.0
H849 H 0.64205 0.9573 0.93274 0.0
H850 H 0.64023 0.95969 0.99934 0.0
H851 H 0.66191 0.96746 0.96509 0.0
C852 C 0.67324 0.98905 0.09092 0.0
C853 C 0.69028 0.99957 0.08086 0.0
C854 C 0.65797 0.98998 0.05493 0.0
C855 C 0.65951 0.00127 0.00794 0.0
C856 C 0.67651 0.01174 0.99759 0.0
H857 H 0.56884 0.99686 0.77238 0.0
H858 H 0.6009 0.99607 0.81632 0.0
C859 C 0.69181 0.01084 0.03366 0.0
C860 C 0.6428 0.00298 0.97108 0.0
H861 H 0.61196 0.97622 0.90835 0.0
C862 C 0.6335 0.02136 0.95719 0.0
C863 C 0.63542 0.9866 0.95167 0.0
C864 C 0.64555 0.96668 0.96253 0.0
C865 C 0.61642 0.02368 0.92634 0.0
C866 C 0.60825 0.00712 0.90983 0.0
C867 C 0.61811 0.98886 0.92164 0.0
C868 C 0.58903 0.00828 0.8823 0.0
C869 C 0.60722 0.04382 0.91197 0.0
C870 C 0.57173 0.01523 0.90512 0.0
C871 C 0.55344 0.01575 0.88016 0.0
C872 C 0.55206 0.00915 0.83207 0.0
C873 C 0.56941 0.0021 0.80935 0.0
C874 C 0.58773 0.00163 0.83436 0.0
H875 H 0.6183 0.05499 0.91375 0.0
H876 H 0.60069 0.04533 0.87309 0.0
H877 H 0.59523 0.04675 0.93911 0.0
H878 H 0.57234 0.01999 0.94265 0.0
H879 H 0.54035 0.02115 0.89885 0.0
H880 H 0.43934 0.68899 0.01579 0.0
H881 H 0.44531 0.66056 0.96995 0.0
H882 H 0.45888 0.62531 0.11162 0.0
H883 H 0.45276 0.65361 0.15766 0.0
H884 H 0.47973 0.63869 0.96608 0.0
H885 H 0.42012 0.59283 0.0459 0.0
H886 H 0.42057 0.61828 0.05348 0.0
H887 H 0.43586 0.60076 0.09338 0.0
C888 C 0.44348 0.67515 0.03715 0.0
C889 C 0.4455 0.6735 0.09031 0.0
C890 C 0.44684 0.65893 0.01097 0.0
C891 C 0.45227 0.64077 0.03744 0.0
C892 C 0.45421 0.63906 0.09054 0.0
H893 H 0.51092 0.54623 0.89433 0.0
H894 H 0.50264 0.57148 0.94938 0.0
C895 C 0.45074 0.65526 0.11679 0.0
C896 C 0.45697 0.6239 0.00913 0.0
H897 H 0.44454 0.57772 0.99645 0.0
C898 C 0.472 0.62537 0.97262 0.0
C899 C 0.44675 0.60661 0.01746 0.0
C900 C 0.4298 0.60453 0.05432 0.0
C901 C 0.47718 0.61 0.94432 0.0
C902 C 0.46737 0.5925 0.95367 0.0
C903 C 0.45222 0.59106 0.9899 0.0
C904 C 0.47199 0.5759 0.92438 0.0
C905 C 0.49276 0.61283 0.90377 0.0
C906 C 0.45727 0.56939 0.89393 0.0
C907 C 0.46188 0.55483 0.8629 0.0
C908 C 0.48132 0.54651 0.86177 0.0
C909 C 0.49584 0.55246 0.89403 0.0
C910 C 0.49117 0.56696 0.92527 0.0
H911 H 0.49514 0.62842 0.89281 0.0
H912 H 0.50707 0.6057 0.91845 0.0
H913 H 0.48856 0.60623 0.86923 0.0
H914 H 0.44235 0.57603 0.89293 0.0
H915 H 0.45033 0.55055 0.83863 0.0
H916 H 0.81276 0.51591 0.08441 0.0
H917 H 0.8414 0.51214 0.02917 0.0
H918 H 0.87921 0.53293 0.14055 0.0
H919 H 0.85065 0.53675 0.19602 0.0
H920 H 0.86817 0.53916 0.98763 0.0
H921 H 0.90593 0.48012 0.11802 0.0
H922 H 0.88027 0.48799 0.12527 0.0
H923 H 0.89971 0.50209 0.14569 0.0
C924 C 0.82714 0.51986 0.09692 0.0
C925 C 0.82949 0.52645 0.14476 0.0
C926 C 0.84348 0.51765 0.06541 0.0
C927 C 0.86245 0.52197 0.08119 0.0
C928 C 0.86476 0.52912 0.1282 0.0
H929 H 0.96498 0.52596 0.87757 0.0
H930 H 0.93993 0.5345 0.93948 0.0
C931 C 0.84844 0.53127 0.15981 0.0
C932 C 0.87981 0.5186 0.0487 0.0
H933 H 0.92301 0.49097 0.0435 0.0
C934 C 0.88023 0.52872 0.99985 0.0
C935 C 0.89541 0.50483 0.06476 0.0
C936 C 0.89532 0.49298 0.11611 0.0
C937 C 0.89578 0.5253 0.96634 0.0
C938 C 0.9114 0.51158 0.98251 0.0
C939 C 0.91108 0.50161 0.03152 0.0
C940 C 0.92743 0.50632 0.9478 0.0
C941 C 0.89503 0.53587 0.91335 0.0
C942 C 0.92908 0.48749 0.93344 0.0
C943 C 0.94338 0.48256 0.89846 0.0
C944 C 0.95634 0.49637 0.87745 0.0
C945 C 0.95513 0.51505 0.89316 0.0
C946 C 0.94078 0.51998 0.92818 0.0
H947 H 0.88015 0.543 0.90373 0.0
H948 H 0.90603 0.54723 0.91045 0.0
H949 H 0.89888 0.52577 0.88478 0.0
H950 H 0.91895 0.47674 0.94835 0.0
H951 H 0.94399 0.46806 0.88704 0.0
H952 H 0.00988 0.21342 0.0843 0.0
H953 H 0.00544 0.18627 0.03468 0.0
H954 H 0.06881 0.1747 0.03278 0.0
H955 H 0.07341 0.20086 0.0846 0.0
H956 H 0.01907 0.17484 0.94164 0.0
H957 H 0.04896 0.12473 0.10526 0.0
H958 H 0.04249 0.14996 0.11004 0.0
H959 H 0.06568 0.14286 0.08227 0.0
C960 C 0.02291 0.20516 0.07324 0.0
C961 C 0.04199 0.20927 0.08941 0.0
C962 C 0.02033 0.18974 0.04444 0.0
C963 C 0.03677 0.17819 0.03106 0.0
C964 C 0.05588 0.18319 0.04357 0.0
H965 H 0.03588 0.08188 0.84233 0.0
H966 H 0.03987 0.1137 0.87196 0.0
C967 C 0.05848 0.19842 0.07274 0.0
C968 C 0.03393 0.15999 0.00801 0.0
H969 H 0.04259 0.11094 0.02974 0.0
C970 C 0.0242 0.16085 0.96079 0.0
C971 C 0.04035 0.14172 0.03349 0.0
C972 C 0.04977 0.13967 0.08577 0.0
C973 C 0.02087 0.14389 0.93818 0.0
C974 C 0.02776 0.12568 0.96315 0.0
C975 C 0.03744 0.1249 0.01039 0.0
C976 C 0.02437 0.10704 0.94272 0.0
C977 C 0.00954 0.1456 0.88853 0.0
C978 C 0.01457 0.09265 0.97273 0.0
C979 C 0.01256 0.07448 0.95625 0.0
C980 C 0.02026 0.07024 0.90923 0.0
C981 C 0.02969 0.08478 0.87854 0.0
C982 C 0.03187 0.10299 0.89534 0.0
H983 H 0.00098 0.15975 0.88117 0.0
H984 H 0.02018 0.14446 0.857 0.0
H985 H 0.99914 0.13378 0.88811 0.0
H986 H 0.0086 0.09542 0.00933 0.0
H987 H 0.00489 0.06375 0.98036 0.0
H988 H 0.29451 0.0962 0.09699 0.0
H989 H 0.32194 0.08867 0.04217 0.0
H990 H 0.32449 0.02917 0.10947 0.0
H991 H 0.29577 0.03611 0.16117 0.0
H992 H 0.35744 0.07901 0.07133 0.0
H993 H 0.33271 0.02023 0.96612 0.0
H994 H 0.31576 0.03423 0.00203 0.0
H995 H 0.33059 0.01399 0.03328 0.0
C996 C 0.30025 0.0813 0.09889 0.0
C997 C 0.29276 0.06681 0.13399 0.0
C998 C 0.31622 0.07707 0.06779 0.0
C999 C 0.32533 0.05833 0.07132 0.0
C1000 C 0.31754 0.04367 0.10505 0.0
H1001 H 0.44997 0.03827 0.00112 0.0
H1002 H 0.41786 0.04311 0.04199 0.0
C1003 C 0.30126 0.04778 0.13543 0.0
C1004 C 0.34408 0.05471 0.04354 0.0
H1005 H 0.36791 0.02397 0.96869 0.0
C1006 C 0.35959 0.06708 0.04842 0.0
C1007 C 0.34695 0.0393 0.0131 0.0
C1008 C 0.33052 0.02633 0.00287 0.0
C1009 C 0.37788 0.06437 0.02448 0.0
C1010 C 0.38116 0.04829 0.99657 0.0
C1011 C 0.36555 0.0361 0.99079 0.0
C1012 C 0.40058 0.04406 0.97255 0.0
C1013 C 0.39329 0.07909 0.02857 0.0
C1014 C 0.40154 0.04193 0.92046 0.0
C1015 C 0.41986 0.03867 0.8974 0.0
C1016 C 0.43756 0.03768 0.92592 0.0
C1017 C 0.43656 0.03934 0.97821 0.0
C1018 C 0.41823 0.04221 0.00144 0.0
H1019 H 0.38636 0.09333 0.03621 0.0
H1020 H 0.40353 0.07396 0.06073 0.0
H1021 H 0.40211 0.08128 0.99328 0.0
H1022 H 0.38815 0.04319 0.89738 0.0
H1023 H 0.42024 0.03753 0.85697 0.0
H1024 H 0.44483 0.33375 0.11778 0.0
H1025 H 0.44687 0.36031 0.05056 0.0
H1026 H 0.50981 0.34739 0.03886 0.0
H1027 H 0.50773 0.31985 0.1041 0.0
H1028 H 0.46696 0.39151 0.05862 0.0
H1029 H 0.49452 0.3573 0.89114 0.0
H1030 H 0.48499 0.34343 0.94658 0.0
H1031 H 0.51003 0.35112 0.94632 0.0
C1032 C 0.45902 0.33596 0.09975 0.0
C1033 C 0.47612 0.32448 0.11661 0.0
C1034 C 0.46018 0.35139 0.06156 0.0
C1035 C 0.47845 0.35584 0.03935 0.0
C1036 C 0.49546 0.34406 0.05468 0.0
H1037 H 0.52012 0.45761 0.86263 0.0
H1038 H 0.51655 0.42698 0.91606 0.0
C1039 C 0.49428 0.32844 0.09259 0.0
C1040 C 0.47988 0.37387 0.00397 0.0
H1041 H 0.49575 0.39179 0.88645 0.0
C1042 C 0.47307 0.39151 0.02078 0.0
C1043 C 0.48793 0.37391 0.95464 0.0
C1044 C 0.49461 0.3554 0.93336 0.0
C1045 C 0.47436 0.40917 0.99003 0.0
C1046 C 0.48263 0.40921 0.94113 0.0
C1047 C 0.48943 0.39164 0.92409 0.0
C1048 C 0.48464 0.42748 0.90763 0.0
C1049 C 0.46725 0.42775 0.01033 0.0
C1050 C 0.46785 0.43781 0.88506 0.0
C1051 C 0.46981 0.45531 0.85433 0.0
C1052 C 0.48862 0.46281 0.84594 0.0
C1053 C 0.5054 0.45233 0.86856 0.0
C1054 C 0.50343 0.43478 0.89891 0.0
H1055 H 0.46398 0.42553 0.05159 0.0
H1056 H 0.47856 0.43876 0.00378 0.0
H1057 H 0.4535 0.43364 0.98977 0.0
H1058 H 0.45323 0.43232 0.89124 0.0
H1059 H 0.45661 0.46299 0.83735 0.0
H1060 H 0.1779 0.4693 0.10469 0.0
H1061 H 0.15063 0.47603 0.04316 0.0
H1062 H 0.13854 0.41543 0.05911 0.0
H1063 H 0.16499 0.40869 0.12257 0.0
H1064 H 0.14252 0.4632 0.95153 0.0
H1065 H 0.08525 0.44013 0.09238 0.0
H1066 H 0.1105 0.44352 0.11053 0.0
H1067 H 0.10435 0.42175 0.08452 0.0
C1068 C 0.16941 0.45739 0.09533 0.0
C1069 C 0.17358 0.43847 0.11921 0.0
C1070 C 0.1539 0.46125 0.05982 0.0
C1071 C 0.14224 0.4463 0.04736 0.0
C1072 C 0.14702 0.42727 0.06902 0.0
H1073 H 0.0349 0.45242 0.8553 0.0
H1074 H 0.0649 0.44023 0.90404 0.0
C1075 C 0.16241 0.42341 0.1048 0.0
C1076 C 0.12476 0.45078 0.01293 0.0
H1077 H 0.07425 0.44902 0.00783 0.0
C1078 C 0.12761 0.46004 0.9638 0.0
C1079 C 0.10527 0.44666 0.02897 0.0
C1080 C 0.10106 0.43764 0.0821 0.0
C1081 C 0.11151 0.46538 0.93046 0.0
C1082 C 0.09206 0.46148 0.94679 0.0
C1083 C 0.08922 0.45184 0.99538 0.0
C1084 C 0.07435 0.46866 0.91559 0.0
C1085 C 0.11538 0.47526 0.87806 0.0
C1086 C 0.06968 0.48862 0.90648 0.0
C1087 C 0.05256 0.49561 0.87922 0.0
C1088 C 0.03969 0.48276 0.86032 0.0
C1089 C 0.04448 0.46271 0.86919 0.0
C1090 C 0.0616 0.45572 0.89701 0.0
H1091 H 0.13111 0.47291 0.86686 0.0
H1092 H 0.10563 0.46994 0.84934 0.0
H1093 H 0.11208 0.49109 0.87762 0.0
H1094 H 0.07917 0.49883 0.92114 0.0
H1095 H 0.04945 0.51114 0.87297 0.0
H1096 H 0.99626 0.81794 0.36504 0.0
H1097 H 0.98484 0.8452 0.40977 0.0
H1098 H 0.01556 0.8192 0.5455 0.0
H1099 H 0.02625 0.79125 0.50181 0.0
H1100 H 0.9792 0.83783 0.56602 0.0
H1101 H 0.02422 0.88542 0.43509 0.0
H1102 H 0.00619 0.87294 0.40318 0.0
H1103 H 0.02631 0.85936 0.43785 0.0
C1104 C 1.00015 0.81765 0.40482 0.0
C1105 C 0.01241 0.8024 0.42956 0.0
C1106 C 0.99381 0.83343 0.43016 0.0
C1107 C 0.9998 0.83449 0.48053 0.0
C1108 C 0.01096 0.81879 0.50641 0.0
H1109 H 0.99826 0.92635 0.67799 0.0
H1110 H 0.00062 0.89487 0.6448 0.0
C1111 C 0.01719 0.80289 0.48122 0.0
C1112 C 0.99555 0.85248 0.50493 0.0
H1113 H 0.0036 0.90083 0.49229 0.0
C1114 C 0.98455 0.85161 0.55001 0.0
C1115 C 0.00272 0.87042 0.48423 0.0
C1116 C 0.01568 0.87213 0.43773 0.0
C1117 C 0.98015 0.86833 0.57427 0.0
C1118 C 0.98709 0.88626 0.55306 0.0
C1119 C 0.99815 0.88708 0.5082 0.0
C1120 C 0.98339 0.90446 0.57674 0.0
C1121 C 0.96788 0.86678 0.62188 0.0
C1122 C 0.97278 0.92025 0.54974 0.0
C1123 C 0.97136 0.93824 0.56863 0.0
C1124 C 0.9807 0.9409 0.61473 0.0
C1125 C 0.99069 0.92482 0.64271 0.0
C1126 C 0.99206 0.90678 0.62378 0.0
H1127 H 0.9601 0.85303 0.62711 0.0
H1128 H 0.97774 0.86724 0.6553 0.0
H1129 H 0.95671 0.87915 0.62099 0.0
H1130 H 0.966 0.91877 0.51333 0.0
H1131 H 0.96329 0.9502 0.54651 0.0
H1132 H 0.72267 0.95901 0.47995 0.0
H1133 H 0.69419 0.95469 0.5364 0.0
H1134 H 0.65735 0.94585 0.40861 0.0
H1135 H 0.68546 0.95041 0.35205 0.0
H1136 H 0.66088 0.97975 0.52386 0.0
H1137 H 0.63942 0.90437 0.51761 0.0
H1138 H 0.66366 0.91224 0.49877 0.0
H1139 H 0.64287 0.91696 0.45562 0.0
C1140 C 0.70859 0.9558 0.464 0.0
C1141 C 0.70639 0.95513 0.41135 0.0
C1142 C 0.69236 0.95324 0.49636 0.0
C1143 C 0.67369 0.94975 0.47682 0.0
C1144 C 0.6717 0.94805 0.42478 0.0
H1145 H 0.55089 0.96292 0.54152 0.0
H1146 H 0.58391 0.9541 0.51123 0.0
C1147 C 0.68787 0.95066 0.39241 0.0
C1148 C 0.65575 0.95064 0.50888 0.0
H1149 H 0.61416 0.92683 0.54417 0.0
C1150 C 0.65084 0.96804 0.52925 0.0
C1151 C 0.64261 0.9354 0.51542 0.0
C1152 C 0.64748 0.91612 0.4961 0.0
C1153 C 0.63269 0.97104 0.55363 0.0
C1154 C 0.61925 0.95601 0.55892 0.0
C1155 C 0.62447 0.93833 0.54014 0.0
C1156 C 0.59915 0.95902 0.58023 0.0
C1157 C 0.62762 0.99068 0.57091 0.0
C1158 C 0.59665 0.96406 0.62977 0.0
C1159 C 0.57779 0.96944 0.64696 0.0
C1160 C 0.561 0.9697 0.61507 0.0
C1161 C 0.56348 0.96337 0.56669 0.0
C1162 C 0.58235 0.95813 0.54945 0.0
H1163 H 0.63751 0.00185 0.55378 0.0
H1164 H 0.61202 0.99559 0.56094 0.0
H1165 H 0.62933 0.98972 0.61281 0.0
H1166 H 0.60938 0.96445 0.65458 0.0
H1167 H 0.57659 0.9742 0.68439 0.0
H1168 H 0.51634 0.69658 0.36664 0.0
H1169 H 0.52714 0.66946 0.42967 0.0
H1170 H 0.46825 0.66887 0.49216 0.0
H1171 H 0.4572 0.69547 0.42908 0.0
H1172 H 0.50078 0.66339 0.56659 0.0
H1173 H 0.50704 0.61448 0.41359 0.0
H1174 H 0.52054 0.63621 0.40573 0.0
H1175 H 0.49392 0.63793 0.40404 0.0
C1176 C 0.50572 0.69078 0.39404 0.0
C1177 C 0.48585 0.69818 0.39243 0.0
C1178 C 0.51195 0.67533 0.43009 0.0
C1179 C 0.49842 0.66707 0.46514 0.0
C1180 C 0.47893 0.6751 0.4655 0.0
H1181 H 0.47524 0.55999 0.62497 0.0
H1182 H 0.47798 0.59034 0.57031 0.0
C1183 C 0.47268 0.69044 0.42947 0.0
C1184 C 0.50382 0.64908 0.49882 0.0
H1185 H 0.51091 0.60013 0.49766 0.0
C1186 C 0.5034 0.64958 0.55166 0.0
C1187 C 0.507 0.6311 0.47902 0.0
C1188 C 0.50707 0.62971 0.42253 0.0
C1189 C 0.50546 0.63245 0.58525 0.0
C1190 C 0.50798 0.61445 0.56535 0.0
C1191 C 0.5091 0.61401 0.51263 0.0
C1192 C 0.50705 0.59587 0.59816 0.0
C1193 C 0.50386 0.63354 0.64167 0.0
C1194 C 0.52264 0.58885 0.63157 0.0
C1195 C 0.52118 0.57136 0.66286 0.0
C1196 C 0.50406 0.56074 0.66128 0.0
C1197 C 0.48861 0.56781 0.6273 0.0
C1198 C 0.49014 0.58514 0.59594 0.0
H1199 H 0.50032 0.64855 0.65079 0.0
H1200 H 0.49218 0.62409 0.65787 0.0
H1201 H 0.51813 0.62818 0.66052 0.0
H1202 H 0.53586 0.59691 0.63348 0.0
H1203 H 0.53332 0.5663 0.68867 0.0
H1204 H 0.81448 0.59202 0.4256 0.0
H1205 H 0.84319 0.592 0.48269 0.0
H1206 H 0.83024 0.53513 0.55238 0.0
H1207 H 0.80202 0.53475 0.49539 0.0
H1208 H 0.84269 0.5611 0.62231 0.0
H1209 H 0.89307 0.55655 0.45714 0.0
H1210 H 0.87487 0.57656 0.45345 0.0
H1211 H 0.86699 0.55233 0.4533 0.0
C1212 C 0.81762 0.57959 0.45344 0.0
C1213 C 0.80592 0.56334 0.45552 0.0
C1214 C 0.83401 0.57963 0.48606 0.0
C1215 C 0.83896 0.56345 0.52127 0.0
C1216 C 0.82664 0.54778 0.52556 0.0
H1217 H 0.94046 0.50331 0.65607 0.0
H1218 H 0.91129 0.51706 0.60754 0.0
C1219 C 0.81037 0.54768 0.49301 0.0
C1220 C 0.8578 0.56178 0.55076 0.0
H1221 H 0.90773 0.5529 0.53821 0.0
C1222 C 0.85698 0.55969 0.60404 0.0
C1223 C 0.87636 0.55971 0.52664 0.0
C1224 C 0.87803 0.56126 0.46951 0.0
C1225 C 0.87417 0.55491 0.63389 0.0
C1226 C 0.89262 0.55226 0.6097 0.0
C1227 C 0.89354 0.55505 0.5565 0.0
C1228 C 0.9107 0.54455 0.63859 0.0
C1229 C 0.8724 0.5517 0.69095 0.0
C1230 C 0.92018 0.55558 0.67174 0.0
C1231 C 0.93698 0.54778 0.69961 0.0
C1232 C 0.94451 0.52877 0.69487 0.0
C1233 C 0.93506 0.51793 0.66098 0.0
C1234 C 0.91839 0.52578 0.63304 0.0
H1235 H 0.85669 0.55201 0.70341 0.0
H1236 H 0.8798 0.53755 0.70591 0.0
H1237 H 0.87997 0.56321 0.70808 0.0
H1238 H 0.91456 0.57019 0.67612 0.0
H1239 H 0.94388 0.55655 0.72531 0.0
loop_
_geom_bond_atom_site_label_1
_geom_bond_atom_site_label_2
_geom_bond_distance
_geom_bond_site_symmetry_2
_ccdc_geom_bond_type
P0 O11 1.490 . S
P0 C14 1.812 . S
P0 C20 1.803 . S
P0 C26 1.819 . S
H1 C15 0.941 . S
H2 C16 0.939 . S
H3 C18 0.940 . S
H4 C19 0.940 . S
H5 C21 0.939 . S
H6 C22 0.942 . S
H7 C24 0.940 . S
H8 C25 0.939 . S
H9 C27 0.941 . S
H10 C31 0.939 . S
O11 P0 1.490 . S
H12 C28 0.939 . S
H13 C30 0.940 1_556 S
C14 P0 1.812 . S
C14 C15 1.389 . S
C14 C19 1.391 . S
C15 H1 0.941 . S
C15 C14 1.389 . S
C15 C16 1.397 . S
C16 H2 0.939 . S
C16 C15 1.397 . S
C16 C17 1.378 . S
C17 C16 1.378 . S
C17 C18 1.378 . S
C18 H3 0.940 . S
C18 C17 1.378 . S
C18 C19 1.396 . S
C19 H4 0.940 . S
C19 C14 1.391 . S
C19 C18 1.396 . S
C20 P0 1.803 . S
C20 C21 1.378 . S
C20 C25 1.400 . S
C21 H5 0.939 . S
C21 C20 1.378 . S
C21 C22 1.361 . S
C22 H6 0.942 . S
C22 C21 1.361 . S
C22 C23 1.369 . S
C23 C22 1.369 . S
C23 C24 1.404 . S
C24 H7 0.940 . S
C24 C23 1.404 . S
C24 C25 1.389 . S
C25 H8 0.939 . S
C25 C20 1.400 . S
C25 C24 1.389 . S
C26 P0 1.819 . S
C26 C27 1.391 . S
C26 C31 1.391 . S
C27 H9 0.941 . S
C27 C26 1.391 . S
C27 C28 1.396 . S
C28 H12 0.939 . S
C28 C27 1.396 . S
C28 C29 1.397 . S
C29 C28 1.397 . S
C29 C30 1.385 . S
C30 H13 0.940 1_554 S
C30 C29 1.385 . S
C30 C31 1.388 . S
C31 H10 0.939 . S
C31 C26 1.391 . S
C31 C30 1.388 . S
P32 O43 1.490 . S
P32 C46 1.812 . S
P32 C52 1.803 . S
P32 C58 1.819 . S
H33 C47 0.941 . S
H34 C48 0.939 . S
H35 C50 0.940 . S
H36 C51 0.950 . S
H37 C53 0.939 . S
H38 C54 0.942 . S
H39 C56 0.940 . S
H40 C57 0.958 . S
H41 C59 0.941 . S
H42 C63 0.928 1_655 S
O43 P32 1.490 . S
H44 C60 0.939 . S
H45 C62 0.940 1_556 S
C46 P32 1.812 . S
C46 C47 1.389 . S
C46 C51 1.376 1_455 S
C47 H33 0.941 . S
C47 C46 1.389 . S
C47 C48 1.397 . S
C48 H34 0.939 . S
C48 C47 1.397 . S
C48 C49 1.378 . S
C49 C48 1.378 . S
C49 C50 1.378 1_455 S
C50 H35 0.940 . S
C50 C49 1.378 1_655 S
C50 C51 1.402 . S
C51 H36 0.950 . S
C51 C46 1.376 1_655 S
C51 C50 1.402 . S
C52 P32 1.803 . S
C52 C53 1.378 . S
C52 C57 1.368 1_455 S
C53 H37 0.939 . S
C53 C52 1.378 . S
C53 C54 1.361 . S
C54 H38 0.942 . S
C54 C53 1.361 . S
C54 C55 1.369 . S
C55 C54 1.369 . S
C55 C56 1.404 1_455 S
C56 H39 0.940 . S
C56 C55 1.404 1_655 S
C56 C57 1.403 . S
C57 H40 0.958 . S
C57 C52 1.368 1_655 S
C57 C56 1.403 . S
C58 P32 1.819 . S
C58 C59 1.391 . S
C58 C63 1.391 . S
C59 H41 0.941 . S
C59 C58 1.391 . S
C59 C60 1.396 . S
C60 H44 0.939 . S
C60 C59 1.396 . S
C60 C61 1.397 . S
C61 C60 1.397 . S
C61 C62 1.385 1_455 S
C62 H45 0.940 1_554 S
C62 C61 1.385 1_655 S
C62 C63 1.388 1_655 S
C63 H42 0.928 1_455 S
C63 C58 1.391 . S
C63 C62 1.388 1_455 S
P64 O75 1.490 . S
P64 C78 1.812 . S
P64 C84 1.803 . S
P64 C90 1.819 . S
H65 C79 0.941 . S
H66 C80 0.939 . S
H67 C82 0.940 . S
H68 C83 0.940 . S
H69 C85 0.939 . S
H70 C86 0.942 . S
H71 C88 0.940 . S
H72 C89 0.939 . S
H73 C91 0.941 . S
H74 C95 0.939 . S
O75 P64 1.490 . S
H76 C92 0.939 . S
H77 C94 0.940 . S
C78 P64 1.812 . S
C78 C79 1.389 . S
C78 C83 1.391 . S
C79 H65 0.941 . S
C79 C78 1.389 . S
C79 C80 1.397 . S
C80 H66 0.939 . S
C80 C79 1.397 . S
C80 C81 1.378 . S
C81 C80 1.378 . S
C81 C82 1.378 . S
C82 H67 0.940 . S
C82 C81 1.378 . S
C82 C83 1.396 . S
C83 H68 0.940 . S
C83 C78 1.391 . S
C83 C82 1.396 . S
C84 P64 1.803 . S
C84 C85 1.378 . S
C84 C89 1.400 . S
C85 H69 0.939 . S
C85 C84 1.378 . S
C85 C86 1.361 . S
C86 H70 0.942 . S
C86 C85 1.361 . S
C86 C87 1.369 . S
C87 C86 1.369 . S
C87 C88 1.404 . S
C88 H71 0.940 . S
C88 C87 1.404 . S
C88 C89 1.389 . S
C89 H72 0.939 . S
C89 C84 1.400 . S
C89 C88 1.389 . S
C90 P64 1.819 . S
C90 C91 1.391 . S
C90 C95 1.391 . S
C91 H73 0.941 . S
C91 C90 1.391 . S
C91 C92 1.396 . S
C92 H76 0.939 . S
C92 C91 1.396 . S
C92 C93 1.397 1_554 S
C93 C92 1.397 1_556 S
C93 C94 1.385 . S
C94 H77 0.940 . S
C94 C93 1.385 . S
C94 C95 1.388 1_556 S
C95 H74 0.939 . S
C95 C90 1.391 . S
C95 C94 1.388 1_554 S
P96 O107 1.490 . S
P96 C110 1.812 . S
P96 C116 1.803 . S
P96 C122 1.819 . S
H97 C111 0.941 . S
H98 C112 0.939 . S
H99 C114 0.940 . S
H100 C115 0.940 . S
H101 C117 0.939 . S
H102 C118 0.942 . S
H103 C120 0.940 . S
H104 C121 0.939 . S
H105 C123 0.941 . S
H106 C127 0.939 . S
O107 P96 1.490 . S
H108 C124 0.939 . S
H109 C126 0.940 1_556 S
C110 P96 1.812 . S
C110 C111 1.389 . S
C110 C115 1.391 . S
C111 H97 0.941 . S
C111 C110 1.389 . S
C111 C112 1.397 . S
C112 H98 0.939 . S
C112 C111 1.397 . S
C112 C113 1.378 . S
C113 C112 1.378 . S
C113 C114 1.378 . S
C114 H99 0.940 . S
C114 C113 1.378 . S
C114 C115 1.396 . S
C115 H100 0.940 . S
C115 C110 1.391 . S
C115 C114 1.396 . S
C116 P96 1.803 . S
C116 C117 1.378 . S
C116 C121 1.400 . S
C117 H101 0.939 . S
C117 C116 1.378 . S
C117 C118 1.361 . S
C118 H102 0.942 . S
C118 C117 1.361 . S
C118 C119 1.369 . S
C119 C118 1.369 . S
C119 C120 1.404 . S
C120 H103 0.940 . S
C120 C119 1.404 . S
C120 C121 1.389 . S
C121 H104 0.939 . S
C121 C116 1.400 . S
C121 C120 1.389 . S
C122 P96 1.819 . S
C122 C123 1.391 . S
C122 C127 1.391 . S
C123 H105 0.941 . S
C123 C122 1.391 . S
C123 C124 1.396 . S
C124 H108 0.939 . S
C124 C123 1.396 . S
C124 C125 1.397 . S
C125 C124 1.397 . S
C125 C126 1.385 . S
C126 H109 0.940 1_554 S
C126 C125 1.385 . S
C126 C127 1.388 . S
C127 H106 0.939 . S
C127 C122 1.391 . S
C127 C126 1.388 . S
P128 O139 1.490 . S
P128 C142 1.812 . S
P128 C148 1.803 . S
P128 C154 1.819 . S
H129 C143 0.941 . S
H130 C144 0.939 . S
H131 C146 0.940 . S
H132 C147 0.940 . S
H133 C149 0.939 . S
H134 C150 0.942 . S
H135 C152 0.940 . S
H136 C153 0.939 . S
H137 C155 0.941 . S
H138 C159 0.939 . S
O139 P128 1.490 . S
H140 C156 0.939 . S
H141 C158 0.940 . S
C142 P128 1.812 . S
C142 C143 1.389 . S
C142 C147 1.391 . S
C143 H129 0.941 . S
C143 C142 1.389 . S
C143 C144 1.397 . S
C144 H130 0.939 . S
C144 C143 1.397 . S
C144 C145 1.378 . S
C145 C144 1.378 . S
C145 C146 1.378 . S
C146 H131 0.940 . S
C146 C145 1.378 . S
C146 C147 1.396 . S
C147 H132 0.940 . S
C147 C142 1.391 . S
C147 C146 1.396 . S
C148 P128 1.803 . S
C148 C149 1.378 . S
C148 C153 1.400 . S
C149 H133 0.939 . S
C149 C148 1.378 . S
C149 C150 1.361 . S
C150 H134 0.942 . S
C150 C149 1.361 . S
C150 C151 1.369 . S
C151 C150 1.369 . S
C151 C152 1.404 . S
C152 H135 0.940 . S
C152 C151 1.404 . S
C152 C153 1.389 . S
C153 H136 0.939 . S
C153 C148 1.400 . S
C153 C152 1.389 . S
C154 P128 1.819 . S
C154 C155 1.391 . S
C154 C159 1.391 . S
C155 H137 0.941 . S
C155 C154 1.391 . S
C155 C156 1.396 . S
C156 H140 0.939 . S
C156 C155 1.396 . S
C156 C157 1.397 . S
C157 C156 1.397 . S
C157 C158 1.385 . S
C158 H141 0.940 . S
C158 C157 1.385 . S
C158 C159 1.388 . S
C159 H138 0.939 . S
C159 C154 1.391 . S
C159 C158 1.388 . S
P160 O171 1.490 . S
P160 C174 1.812 . S
P160 C180 1.803 . S
P160 C186 1.819 . S
H161 C175 0.941 . S
H162 C176 0.939 . S
H163 C178 0.940 . S
H164 C179 0.943 . S
H165 C181 0.939 . S
H166 C182 0.942 . S
H167 C184 0.940 . S
H168 C185 0.952 . S
H169 C187 0.941 . S
H170 C191 0.934 1_655 S
O171 P160 1.490 . S
H172 C188 0.939 . S
H173 C190 0.940 . S
C174 P160 1.812 . S
C174 C175 1.389 . S
C174 C179 1.387 1_455 S
C175 H161 0.941 . S
C175 C174 1.389 . S
C175 C176 1.397 . S
C176 H162 0.939 . S
C176 C175 1.397 . S
C176 C177 1.378 . S
C177 C176 1.378 . S
C177 C178 1.378 1_455 S
C178 H163 0.940 . S
C178 C177 1.378 1_655 S
C178 C179 1.398 . S
C179 H164 0.943 . S
C179 C174 1.387 1_655 S
C179 C178 1.398 . S
C180 P160 1.803 . S
C180 C181 1.378 . S
C180 C185 1.381 1_455 S
C181 H165 0.939 . S
C181 C180 1.378 . S
C181 C182 1.361 . S
C182 H166 0.942 . S
C182 C181 1.361 . S
C182 C183 1.369 . S
C183 C182 1.369 . S
C183 C184 1.404 1_455 S
C184 H167 0.940 . S
C184 C183 1.404 1_655 S
C184 C185 1.396 . S
C185 H168 0.952 . S
C185 C180 1.381 1_655 S
C185 C184 1.396 . S
C186 P160 1.819 . S
C186 C187 1.391 . S
C186 C191 1.391 . S
C187 H169 0.941 . S
C187 C186 1.391 . S
C187 C188 1.396 . S
C188 H172 0.939 . S
C188 C187 1.396 . S
C188 C189 1.397 . S
C189 C188 1.397 . S
C189 C190 1.385 1_455 S
C190 H173 0.940 . S
C190 C189 1.385 1_655 S
C190 C191 1.388 1_655 S
C191 H170 0.934 1_455 S
C191 C186 1.391 . S
C191 C190 1.388 1_455 S
P192 O203 1.490 . S
P192 C206 1.812 . S
P192 C212 1.803 . S
P192 C218 1.819 . S
H193 C207 0.941 . S
H194 C208 0.939 . S
H195 C210 0.940 . S
H196 C211 0.940 . S
H197 C213 0.939 . S
H198 C214 0.942 . S
H199 C216 0.940 . S
H200 C217 0.939 . S
H201 C219 0.941 . S
H202 C223 0.939 . S
O203 P192 1.490 . S
H204 C220 0.939 . S
H205 C222 0.940 . S
C206 P192 1.812 . S
C206 C207 1.389 . S
C206 C211 1.391 . S
C207 H193 0.941 . S
C207 C206 1.389 . S
C207 C208 1.397 . S
C208 H194 0.939 . S
C208 C207 1.397 . S
C208 C209 1.378 . S
C209 C208 1.378 . S
C209 C210 1.378 . S
C210 H195 0.940 . S
C210 C209 1.378 . S
C210 C211 1.396 . S
C211 H196 0.940 . S
C211 C206 1.391 . S
C211 C210 1.396 . S
C212 P192 1.803 . S
C212 C213 1.378 . S
C212 C217 1.400 . S
C213 H197 0.939 . S
C213 C212 1.378 . S
C213 C214 1.361 . S
C214 H198 0.942 . S
C214 C213 1.361 . S
C214 C215 1.369 . S
C215 C214 1.369 . S
C215 C216 1.404 . S
C216 H199 0.940 . S
C216 C215 1.404 . S
C216 C217 1.389 . S
C217 H200 0.939 . S
C217 C212 1.400 . S
C217 C216 1.389 . S
C218 P192 1.819 . S
C218 C219 1.391 . S
C218 C223 1.391 . S
C219 H201 0.941 . S
C219 C218 1.391 . S
C219 C220 1.396 . S
C220 H204 0.939 . S
C220 C219 1.396 . S
C220 C221 1.397 . S
C221 C220 1.397 . S
C221 C222 1.385 . S
C222 H205 0.940 . S
C222 C221 1.385 . S
C222 C223 1.388 . S
C223 H202 0.939 . S
C223 C218 1.391 . S
C223 C222 1.388 . S
P224 O235 1.490 . S
P224 C238 1.812 . S
P224 C244 1.803 . S
P224 C250 1.819 . S
H225 C239 0.941 . S
H226 C240 0.939 . S
H227 C242 0.940 . S
H228 C243 0.940 . S
H229 C245 0.939 . S
H230 C246 0.942 . S
H231 C248 0.940 . S
H232 C249 0.939 . S
H233 C251 0.941 . S
H234 C255 0.939 . S
O235 P224 1.490 . S
H236 C252 0.939 . S
H237 C254 0.940 . S
C238 P224 1.812 . S
C238 C239 1.389 . S
C238 C243 1.391 . S
C239 H225 0.941 . S
C239 C238 1.389 . S
C239 C240 1.397 . S
C240 H226 0.939 . S
C240 C239 1.397 . S
C240 C241 1.378 . S
C241 C240 1.378 . S
C241 C242 1.378 . S
C242 H227 0.940 . S
C242 C241 1.378 . S
C242 C243 1.396 . S
C243 H228 0.940 . S
C243 C238 1.391 . S
C243 C242 1.396 . S
C244 P224 1.803 . S
C244 C245 1.378 . S
C244 C249 1.400 . S
C245 H229 0.939 . S
C245 C244 1.378 . S
C245 C246 1.361 . S
C246 H230 0.942 . S
C246 C245 1.361 . S
C246 C247 1.369 . S
C247 C246 1.369 . S
C247 C248 1.404 . S
C248 H231 0.940 . S
C248 C247 1.404 . S
C248 C249 1.389 . S
C249 H232 0.939 . S
C249 C244 1.400 . S
C249 C248 1.389 . S
C250 P224 1.819 . S
C250 C251 1.391 . S
C250 C255 1.391 . S
C251 H233 0.941 . S
C251 C250 1.391 . S
C251 C252 1.396 . S
C252 H236 0.939 . S
C252 C251 1.396 . S
C252 C253 1.397 . S
C253 C252 1.397 . S
C253 C254 1.385 . S
C254 H237 0.940 . S
C254 C253 1.385 . S
C254 C255 1.388 . S
C255 H234 0.939 . S
C255 C250 1.391 . S
C255 C254 1.388 . S
Co256 N261 2.057 . S
Co256 O273 2.021 . S
Co256 O276 2.062 1_455 S
Co256 O280 2.117 1_455 S
Co256 O281 2.020 1_545 S
C257 O277 1.259 1_545 S
C257 O280 1.258 . S
Co258 N267 2.057 . S
Co258 O274 2.117 1_665 S
Co258 O275 2.020 1_565 S
Co258 O277 2.021 . S
Co258 O282 2.062 1_655 S
C259 N261 1.316 . S
C259 N262 1.347 . S
C259 H264 0.931 . S
C260 N261 1.375 1_655 S
C260 C263 1.350 . S
C260 H265 0.930 . S
N261 Co256 2.057 . S
N261 C259 1.316 . S
N261 C260 1.375 1_455 S
N262 C259 1.347 . S
N262 C263 1.373 1_455 S
C263 C260 1.350 . S
C263 N262 1.373 1_655 S
C263 H284 0.931 . S
H264 C259 0.931 . S
H265 C260 0.930 . S
C266 O273 1.259 . S
C266 O274 1.258 . S
N267 Co258 2.057 . S
N267 C268 1.316 . S
N267 C269 1.375 1_655 S
C268 N267 1.316 . S
C268 N270 1.347 . S
C268 H279 0.931 . S
C269 N267 1.375 1_455 S
C269 C271 1.350 . S
C269 H278 0.930 . S
N270 C268 1.347 . S
N270 C271 1.373 1_655 S
C271 C269 1.350 . S
C271 N270 1.373 1_455 S
C271 H285 0.931 . S
C272 O275 1.256 . S
C272 O276 1.255 . S
O273 Co256 2.021 . S
O273 C266 1.259 . S
O274 Co258 2.117 1_445 S
O274 C266 1.258 . S
O275 Co258 2.020 1_545 S
O275 C272 1.256 . S
O276 Co256 2.062 1_655 S
O276 C272 1.255 . S
O277 C257 1.259 1_565 S
O277 Co258 2.021 . S
H278 C269 0.930 . S
H279 C268 0.931 . S
O280 Co256 2.117 1_655 S
O280 C257 1.258 . S
O281 Co256 2.020 1_565 S
O281 C283 1.256 . S
O282 Co258 2.062 1_455 S
O282 C283 1.255 . S
C283 O281 1.256 . S
C283 O282 1.255 . S
H284 C263 0.931 . S
H285 C271 0.931 . S
Co286 N291 2.057 . S
Co286 O303 2.021 . S
Co286 O306 2.062 . S
Co286 O310 2.117 1_545 S
Co286 O311 2.020 . S
C287 O307 1.259 . S
C287 O310 1.258 . S
Co288 N297 2.053 1_545 S
Co288 O304 2.155 . S
Co288 O305 2.024 . S
Co288 O307 1.986 1_545 S
Co288 O312 2.063 1_545 S
C289 N291 1.316 . S
C289 N292 1.347 . S
C289 H294 0.931 . S
C290 N291 1.375 . S
C290 C293 1.350 . S
C290 H295 0.930 1_545 S
N291 Co286 2.057 . S
N291 C289 1.316 . S
N291 C290 1.375 . S
N292 C289 1.347 . S
N292 C293 1.373 . S
C293 C290 1.350 . S
C293 N292 1.373 . S
C293 H314 0.931 . S
H294 C289 0.931 . S
H295 C290 0.930 1_565 S
C296 O303 1.259 . S
C296 O304 1.258 . S
N297 Co288 2.053 1_565 S
N297 C298 1.316 . S
N297 C299 1.375 1_565 S
C298 N297 1.316 . S
C298 N300 1.347 . S
C298 H309 0.931 . S
C299 N297 1.375 1_545 S
C299 C301 1.350 . S
C299 H308 0.930 . S
N300 C298 1.347 . S
N300 C301 1.373 1_565 S
C301 C299 1.350 . S
C301 N300 1.373 1_545 S
C301 H315 0.931 . S
C302 O305 1.256 . S
C302 O306 1.255 . S
O303 Co286 2.021 . S
O303 C296 1.259 . S
O304 Co288 2.155 . S
O304 C296 1.258 . S
O305 Co288 2.024 . S
O305 C302 1.256 . S
O306 Co286 2.062 . S
O306 C302 1.255 . S
O307 C287 1.259 . S
O307 Co288 1.986 1_565 S
H308 C299 0.930 . S
H309 C298 0.931 . S
O310 Co286 2.117 1_565 S
O310 C287 1.258 . S
O311 Co286 2.020 . S
O311 C313 1.256 . S
O312 Co288 2.063 1_565 S
O312 C313 1.255 1_565 S
C313 O311 1.256 . S
C313 O312 1.255 1_545 S
H314 C293 0.931 . S
H315 C301 0.931 . S
Co316 N321 2.057 . S
Co316 O333 2.021 . S
Co316 O336 2.062 . S
Co316 O340 2.117 . S
Co316 O341 2.020 . S
C317 O337 1.259 . S
C317 O340 1.258 . S
Co318 N327 2.057 . S
Co318 O334 2.117 . S
Co318 O335 2.020 . S
Co318 O337 2.021 . S
Co318 O342 2.062 . S
C319 N321 1.316 . S
C319 N322 1.347 . S
C319 H324 0.931 . S
C320 N321 1.375 . S
C320 C323 1.350 . S
C320 H325 0.930 . S
N321 Co316 2.057 . S
N321 C319 1.316 . S
N321 C320 1.375 . S
N322 C319 1.347 . S
N322 C323 1.373 . S
C323 C320 1.350 . S
C323 N322 1.373 . S
C323 H344 0.931 . S
H324 C319 0.931 . S
H325 C320 0.930 . S
C326 O333 1.259 . S
C326 O334 1.258 . S
N327 Co318 2.057 . S
N327 C328 1.316 . S
N327 C329 1.375 . S
C328 N327 1.316 . S
C328 N330 1.347 . S
C328 H339 0.931 . S
C329 N327 1.375 . S
C329 C331 1.350 . S
C329 H338 0.930 . S
N330 C328 1.347 . S
N330 C331 1.373 . S
C331 C329 1.350 . S
C331 N330 1.373 . S
C331 H345 0.931 . S
C332 O335 1.256 . S
C332 O336 1.255 . S
O333 Co316 2.021 . S
O333 C326 1.259 . S
O334 Co318 2.117 . S
O334 C326 1.258 . S
O335 Co318 2.020 . S
O335 C332 1.256 . S
O336 Co316 2.062 . S
O336 C332 1.255 . S
O337 C317 1.259 . S
O337 Co318 2.021 . S
H338 C329 0.930 . S
H339 C328 0.931 . S
O340 Co316 2.117 . S
O340 C317 1.258 . S
O341 Co316 2.020 . S
O341 C343 1.256 . S
O342 Co318 2.062 . S
O342 C343 1.255 . S
C343 O341 1.256 . S
C343 O342 1.255 . S
H344 C323 0.931 . S
H345 C331 0.931 . S
Co346 N351 2.057 . S
Co346 O363 2.021 1_455 S
Co346 O366 2.062 1_455 S
Co346 O370 2.117 . S
Co346 O371 2.020 . S
C347 O367 1.259 . S
C347 O370 1.258 . S
Co348 N357 2.057 . S
Co348 O364 2.117 . S
Co348 O365 2.020 . S
Co348 O367 2.021 1_655 S
Co348 O372 2.062 1_655 S
C349 N351 1.316 . S
C349 N352 1.347 . S
C349 H354 0.931 1_455 S
C350 N351 1.375 . S
C350 C353 1.350 . S
C350 H355 0.930 . S
N351 Co346 2.057 . S
N351 C349 1.316 . S
N351 C350 1.375 . S
N352 C349 1.347 . S
N352 C353 1.373 . S
C353 C350 1.350 . S
C353 N352 1.373 . S
C353 H374 0.931 . S
H354 C349 0.931 1_655 S
H355 C350 0.930 . S
C356 O363 1.259 . S
C356 O364 1.258 . S
N357 Co348 2.057 . S
N357 C358 1.316 . S
N357 C359 1.375 . S
C358 N357 1.316 . S
C358 N360 1.347 . S
C358 H369 0.931 1_655 S
C359 N357 1.375 . S
C359 C361 1.350 . S
C359 H368 0.930 . S
N360 C358 1.347 . S
N360 C361 1.373 . S
C361 C359 1.350 . S
C361 N360 1.373 . S
C361 H375 0.931 . S
C362 O365 1.256 . S
C362 O366 1.255 . S
O363 Co346 2.021 1_655 S
O363 C356 1.259 . S
O364 Co348 2.117 . S
O364 C356 1.258 . S
O365 Co348 2.020 . S
O365 C362 1.256 . S
O366 Co346 2.062 1_655 S
O366 C362 1.255 . S
O367 C347 1.259 . S
O367 Co348 2.021 1_455 S
H368 C359 0.930 . S
H369 C358 0.931 1_455 S
O370 Co346 2.117 . S
O370 C347 1.258 . S
O371 Co346 2.020 . S
O371 C373 1.256 . S
O372 Co348 2.062 1_455 S
O372 C373 1.255 . S
C373 O371 1.256 . S
C373 O372 1.255 . S
H374 C353 0.931 . S
H375 C361 0.931 . S
H376 C384 0.929 . S
H377 C386 0.930 . S
H378 C388 0.930 . S
H379 C391 0.929 . S
H380 C394 0.930 . S
H381 C396 0.960 . S
H382 C396 0.960 . S
H383 C396 0.960 . S
C384 H376 0.929 . S
C384 C385 1.377 . S
C384 C386 1.384 . S
C385 C384 1.377 . S
C385 C391 1.390 . S
C386 H377 0.930 . S
C386 C384 1.384 . S
C386 C387 1.372 . S
C387 C386 1.372 . S
C387 C388 1.400 . S
C387 C392 1.490 . S
C388 H378 0.930 . S
C388 C387 1.400 . S
C388 C391 1.386 . S
H389 C405 0.930 . S
H390 C406 0.931 . S
C391 H379 0.929 . S
C391 C385 1.390 . S
C391 C388 1.386 . S
C392 C387 1.490 . S
C392 C394 1.395 . S
C392 C395 1.403 . S
H393 C399 0.930 . S
C394 H380 0.930 . S
C394 C392 1.395 . S
C394 C397 1.403 . S
C395 C392 1.403 . S
C395 C396 1.524 . S
C395 C399 1.400 . S
C396 H381 0.960 . S
C396 H382 0.960 . S
C396 H383 0.960 . S
C396 C395 1.524 . S
C397 C394 1.403 . S
C397 C398 1.392 . S
C397 C401 1.495 . S
C398 C397 1.392 . S
C398 C399 1.385 . S
C398 C400 1.478 . S
C399 H393 0.930 . S
C399 C395 1.400 . S
C399 C398 1.385 . S
C400 C398 1.478 . S
C400 C402 1.381 . S
C400 C406 1.383 . S
C401 C397 1.495 . S
C401 H407 0.959 . S
C401 H408 0.961 . S
C401 H409 0.960 . S
C402 C400 1.381 . S
C402 C403 1.394 . S
C402 H410 0.930 . S
C403 C402 1.394 . S
C403 C404 1.383 . S
C403 H411 0.929 1_545 S
C404 C403 1.383 . S
C404 C405 1.377 . S
C405 H389 0.930 . S
C405 C404 1.377 . S
C405 C406 1.379 . S
C406 H390 0.931 . S
C406 C400 1.383 . S
C406 C405 1.379 . S
H407 C401 0.959 . S
H408 C401 0.961 . S
H409 C401 0.960 . S
H410 C402 0.930 . S
H411 C403 0.929 1_565 S
H412 C420 0.929 . S
H413 C422 0.930 . S
H414 C424 0.930 . S
H415 C427 0.929 . S
H416 C430 0.930 . S
H417 C432 0.960 . S
H418 C432 0.960 . S
H419 C432 0.960 . S
C420 H412 0.929 . S
C420 C421 1.377 . S
C420 C422 1.384 . S
C421 C420 1.377 . S
C421 C427 1.390 . S
C422 H413 0.930 . S
C422 C420 1.384 . S
C422 C423 1.372 . S
C423 C422 1.372 . S
C423 C424 1.400 . S
C423 C428 1.490 . S
C424 H414 0.930 . S
C424 C423 1.400 . S
C424 C427 1.386 . S
H425 C441 0.930 . S
H426 C442 0.931 . S
C427 H415 0.929 . S
C427 C421 1.390 . S
C427 C424 1.386 . S
C428 C423 1.490 . S
C428 C430 1.395 . S
C428 C431 1.403 . S
H429 C435 0.930 . S
C430 H416 0.930 . S
C430 C428 1.395 . S
C430 C433 1.403 . S
C431 C428 1.403 . S
C431 C432 1.524 . S
C431 C435 1.400 . S
C432 H417 0.960 . S
C432 H418 0.960 . S
C432 H419 0.960 . S
C432 C431 1.524 . S
C433 C430 1.403 . S
C433 C434 1.392 . S
C433 C437 1.495 . S
C434 C433 1.392 . S
C434 C435 1.385 . S
C434 C436 1.478 . S
C435 H429 0.930 . S
C435 C431 1.400 . S
C435 C434 1.385 . S
C436 C434 1.478 . S
C436 C438 1.381 . S
C436 C442 1.383 . S
C437 C433 1.495 . S
C437 H443 0.959 . S
C437 H444 0.961 . S
C437 H445 0.960 . S
C438 C436 1.381 . S
C438 C439 1.394 . S
C438 H446 0.930 . S
C439 C438 1.394 . S
C439 C440 1.383 . S
C439 H447 0.929 . S
C440 C439 1.383 . S
C440 C441 1.377 . S
C441 H425 0.930 . S
C441 C440 1.377 . S
C441 C442 1.379 . S
C442 H426 0.931 . S
C442 C436 1.383 . S
C442 C441 1.379 . S
H443 C437 0.959 . S
H444 C437 0.961 . S
H445 C437 0.960 . S
H446 C438 0.930 . S
H447 C439 0.929 . S
H448 C456 0.929 . S
H449 C458 0.930 . S
H450 C460 0.930 . S
H451 C463 0.929 . S
H452 C466 0.930 . S
H453 C468 0.960 . S
H454 C468 0.960 . S
H455 C468 0.960 . S
C456 H448 0.929 . S
C456 C457 1.377 . S
C456 C458 1.384 . S
C457 C456 1.377 . S
C457 C463 1.390 . S
C458 H449 0.930 . S
C458 C456 1.384 . S
C458 C459 1.372 . S
C459 C458 1.372 . S
C459 C460 1.400 . S
C459 C464 1.490 . S
C460 H450 0.930 . S
C460 C459 1.400 . S
C460 C463 1.386 . S
H461 C477 0.930 . S
H462 C478 0.931 . S
C463 H451 0.929 . S
C463 C457 1.390 . S
C463 C460 1.386 . S
C464 C459 1.490 . S
C464 C466 1.395 . S
C464 C467 1.403 . S
H465 C471 0.930 . S
C466 H452 0.930 . S
C466 C464 1.395 . S
C466 C469 1.403 . S
C467 C464 1.403 . S
C467 C468 1.524 . S
C467 C471 1.400 . S
C468 H453 0.960 . S
C468 H454 0.960 . S
C468 H455 0.960 . S
C468 C467 1.524 . S
C469 C466 1.403 . S
C469 C470 1.392 . S
C469 C473 1.495 . S
C470 C469 1.392 . S
C470 C471 1.385 . S
C470 C472 1.478 . S
C471 H465 0.930 . S
C471 C467 1.400 . S
C471 C470 1.385 . S
C472 C470 1.478 . S
C472 C474 1.381 . S
C472 C478 1.383 . S
C473 C469 1.495 . S
C473 H479 0.959 . S
C473 H480 0.961 . S
C473 H481 0.960 . S
C474 C472 1.381 . S
C474 C475 1.394 . S
C474 H482 0.930 . S
C475 C474 1.394 . S
C475 C476 1.383 . S
C475 H483 0.929 . S
C476 C475 1.383 . S
C476 C477 1.377 . S
C477 H461 0.930 . S
C477 C476 1.377 . S
C477 C478 1.379 . S
C478 H462 0.931 . S
C478 C472 1.383 . S
C478 C477 1.379 . S
H479 C473 0.959 . S
H480 C473 0.961 . S
H481 C473 0.960 . S
H482 C474 0.930 . S
H483 C475 0.929 . S
H484 C492 0.929 . S
H485 C494 0.930 . S
H486 C496 0.930 . S
H487 C499 0.929 . S
H488 C502 0.930 . S
H489 C504 0.960 . S
H490 C504 0.960 . S
H491 C504 0.960 . S
C492 H484 0.929 . S
C492 C493 1.368 1_455 S
C492 C494 1.384 . S
C493 C492 1.368 1_655 S
C493 C499 1.400 . S
C494 H485 0.930 . S
C494 C492 1.384 . S
C494 C495 1.372 1_455 S
C495 C494 1.372 1_655 S
C495 C496 1.400 . S
C495 C500 1.490 . S
C496 H486 0.930 . S
C496 C495 1.400 . S
C496 C499 1.386 . S
H497 C513 0.930 . S
H498 C514 0.931 . S
C499 H487 0.929 . S
C499 C493 1.400 . S
C499 C496 1.386 . S
C500 C495 1.490 . S
C500 C502 1.395 1_655 S
C500 C503 1.403 . S
H501 C507 0.930 . S
C502 H488 0.930 . S
C502 C500 1.395 1_455 S
C502 C505 1.403 . S
C503 C500 1.403 . S
C503 C504 1.524 . S
C503 C507 1.400 . S
C504 H489 0.960 . S
C504 H490 0.960 . S
C504 H491 0.960 . S
C504 C503 1.524 . S
C505 C502 1.403 . S
C505 C506 1.392 1_455 S
C505 C509 1.495 . S
C506 C505 1.392 1_655 S
C506 C507 1.385 . S
C506 C508 1.478 . S
C507 H501 0.930 . S
C507 C503 1.400 . S
C507 C506 1.385 . S
C508 C506 1.478 . S
C508 C510 1.381 1_655 S
C508 C514 1.383 . S
C509 C505 1.495 . S
C509 H515 0.959 . S
C509 H516 0.961 . S
C509 H517 0.960 . S
C510 C508 1.381 1_455 S
C510 C511 1.394 . S
C510 H518 0.930 . S
C511 C510 1.394 . S
C511 C512 1.383 1_455 S
C511 H519 0.930 . S
C512 C511 1.383 1_655 S
C512 C513 1.377 . S
C513 H497 0.930 . S
C513 C512 1.377 . S
C513 C514 1.379 . S
C514 H498 0.931 . S
C514 C508 1.383 . S
C514 C513 1.379 . S
H515 C509 0.959 . S
H516 C509 0.961 . S
H517 C509 0.960 . S
H518 C510 0.930 . S
H519 C511 0.930 . S
H520 C528 0.929 . S
H521 C530 0.930 . S
H522 C532 0.930 . S
H523 C535 0.929 . S
H524 C538 0.930 1_554 S
H525 C540 0.960 . S
H526 C540 0.960 . S
H527 C540 0.960 . S
C528 H520 0.929 . S
C528 C529 1.377 . S
C528 C530 1.384 . S
C529 C528 1.377 . S
C529 C535 1.390 1_554 S
C530 H521 0.930 . S
C530 C528 1.384 . S
C530 C531 1.372 1_554 S
C531 C530 1.372 1_556 S
C531 C532 1.400 . S
C531 C536 1.490 . S
C532 H522 0.930 . S
C532 C531 1.400 . S
C532 C535 1.386 . S
H533 C549 0.930 . S
H534 C550 0.931 . S
C535 H523 0.929 . S
C535 C529 1.390 1_556 S
C535 C532 1.386 . S
C536 C531 1.490 . S
C536 C538 1.395 . S
C536 C539 1.403 . S
H537 C543 0.930 . S
C538 H524 0.930 1_556 S
C538 C536 1.395 . S
C538 C541 1.403 . S
C539 C536 1.403 . S
C539 C540 1.524 . S
C539 C543 1.400 . S
C540 H525 0.960 . S
C540 H526 0.960 . S
C540 H527 0.960 . S
C540 C539 1.524 . S
C541 C538 1.403 . S
C541 C542 1.392 . S
C541 C545 1.495 . S
C542 C541 1.392 . S
C542 C543 1.385 . S
C542 C544 1.478 . S
C543 H537 0.930 . S
C543 C539 1.400 . S
C543 C542 1.385 . S
C544 C542 1.478 . S
C544 C546 1.381 . S
C544 C550 1.383 . S
C545 C541 1.495 . S
C545 H551 0.959 1_556 S
C545 H552 0.961 . S
C545 H553 0.960 . S
C546 C544 1.381 . S
C546 C547 1.394 1_565 S
C546 H554 0.930 1_565 S
C547 C546 1.394 1_545 S
C547 C548 1.383 1_545 S
C547 H555 0.929 . S
C548 C547 1.383 1_565 S
C548 C549 1.377 . S
C549 H533 0.930 . S
C549 C548 1.377 . S
C549 C550 1.379 . S
C550 H534 0.931 . S
C550 C544 1.383 . S
C550 C549 1.379 . S
H551 C545 0.959 1_554 S
H552 C545 0.961 . S
H553 C545 0.960 . S
H554 C546 0.930 1_545 S
H555 C547 0.929 . S
H556 C564 0.933 . S
H557 C566 0.930 . S
H558 C568 0.930 . S
H559 C571 0.929 . S
H560 C574 0.930 . S
H561 C576 0.960 . S
H562 C576 0.960 . S
H563 C576 0.960 1_554 S
C564 H556 0.933 . S
C564 C565 1.371 1_556 S
C564 C566 1.387 . S
C565 C564 1.371 1_554 S
C565 C571 1.390 . S
C566 H557 0.930 . S
C566 C564 1.387 . S
C566 C567 1.372 . S
C567 C566 1.372 . S
C567 C568 1.400 1_556 S
C567 C572 1.490 . S
C568 H558 0.930 . S
C568 C567 1.400 1_554 S
C568 C571 1.386 . S
H569 C585 0.930 . S
H570 C586 0.931 . S
C571 H559 0.929 . S
C571 C565 1.390 . S
C571 C568 1.386 . S
C572 C567 1.490 . S
C572 C574 1.395 . S
C572 C575 1.403 . S
H573 C579 0.930 . S
C574 H560 0.930 . S
C574 C572 1.395 . S
C574 C577 1.403 . S
C575 C572 1.403 . S
C575 C576 1.524 . S
C575 C579 1.400 . S
C576 H561 0.960 . S
C576 H562 0.960 . S
C576 H563 0.960 1_556 S
C576 C575 1.524 . S
C577 C574 1.403 . S
C577 C578 1.392 . S
C577 C581 1.495 . S
C578 C577 1.392 . S
C578 C579 1.385 . S
C578 C580 1.478 . S
C579 H573 0.930 . S
C579 C575 1.400 . S
C579 C578 1.385 . S
C580 C578 1.478 . S
C580 C582 1.381 . S
C580 C586 1.383 . S
C581 C577 1.495 . S
C581 H587 0.959 . S
C581 H588 0.961 . S
C581 H589 0.960 . S
C582 C580 1.381 . S
C582 C583 1.394 . S
C582 H590 0.930 . S
C583 C582 1.394 . S
C583 C584 1.383 . S
C583 H591 0.929 . S
C584 C583 1.383 . S
C584 C585 1.377 . S
C585 H569 0.930 . S
C585 C584 1.377 . S
C585 C586 1.379 . S
C586 H570 0.931 . S
C586 C580 1.383 . S
C586 C585 1.379 . S
H587 C581 0.959 . S
H588 C581 0.961 . S
H589 C581 0.960 . S
H590 C582 0.930 . S
H591 C583 0.929 . S
H592 C600 0.929 1_556 S
H593 C602 0.930 . S
H594 C604 0.930 . S
H595 C607 0.929 . S
H596 C610 0.930 . S
H597 C612 0.960 . S
H598 C612 0.960 . S
H599 C612 0.960 . S
C600 H592 0.929 1_554 S
C600 C601 1.377 . S
C600 C602 1.384 1_554 S
C601 C600 1.377 . S
C601 C607 1.390 . S
C602 H593 0.930 . S
C602 C600 1.384 1_556 S
C602 C603 1.372 1_556 S
C603 C602 1.372 1_554 S
C603 C604 1.400 . S
C603 C608 1.490 1_554 S
C604 H594 0.930 . S
C604 C603 1.400 . S
C604 C607 1.386 . S
H605 C621 0.930 . S
H606 C622 0.931 . S
C607 H595 0.929 . S
C607 C601 1.390 . S
C607 C604 1.386 . S
C608 C603 1.490 1_556 S
C608 C610 1.395 . S
C608 C611 1.403 . S
H609 C615 0.930 . S
C610 H596 0.930 . S
C610 C608 1.395 . S
C610 C613 1.403 . S
C611 C608 1.403 . S
C611 C612 1.524 1_556 S
C611 C615 1.400 . S
C612 H597 0.960 . S
C612 H598 0.960 . S
C612 H599 0.960 . S
C612 C611 1.524 1_554 S
C613 C610 1.403 . S
C613 C614 1.392 . S
C613 C617 1.495 . S
C614 C613 1.392 . S
C614 C615 1.385 . S
C614 C616 1.478 . S
C615 H609 0.930 . S
C615 C611 1.400 . S
C615 C614 1.385 . S
C616 C614 1.478 . S
C616 C618 1.381 . S
C616 C622 1.383 . S
C617 C613 1.495 . S
C617 H623 0.959 . S
C617 H624 0.961 . S
C617 H625 0.960 . S
C618 C616 1.381 . S
C618 C619 1.394 . S
C618 H626 0.930 . S
C619 C618 1.394 . S
C619 C620 1.383 . S
C619 H627 0.929 . S
C620 C619 1.383 . S
C620 C621 1.377 . S
C621 H605 0.930 . S
C621 C620 1.377 . S
C621 C622 1.379 . S
C622 H606 0.931 . S
C622 C616 1.383 . S
C622 C621 1.379 . S
H623 C617 0.959 . S
H624 C617 0.961 . S
H625 C617 0.960 . S
H626 C618 0.930 . S
H627 C619 0.929 . S
H628 C636 0.929 . S
H629 C638 0.930 . S
H630 C640 0.930 1_556 S
H631 C643 0.929 . S
H632 C646 0.930 . S
H633 C648 0.965 . S
H634 C648 0.948 1_554 S
H635 C648 0.962 . S
C636 H628 0.929 . S
C636 C637 1.365 1_655 S
C636 C638 1.384 . S
C637 C636 1.365 1_455 S
C637 C643 1.402 . S
C638 H629 0.930 . S
C638 C636 1.384 . S
C638 C639 1.372 1_655 S
C639 C638 1.372 1_455 S
C639 C640 1.400 . S
C639 C644 1.490 1_554 S
C640 H630 0.930 1_554 S
C640 C639 1.400 . S
C640 C643 1.386 . S
H641 C657 0.930 . S
H642 C658 0.931 . S
C643 H631 0.929 . S
C643 C637 1.402 . S
C643 C640 1.386 . S
C644 C639 1.490 1_556 S
C644 C646 1.395 1_455 S
C644 C647 1.403 . S
H645 C651 0.930 . S
C646 H632 0.930 . S
C646 C644 1.395 1_655 S
C646 C649 1.403 . S
C647 C644 1.403 . S
C647 C648 1.529 . S
C647 C651 1.400 . S
C648 H633 0.965 . S
C648 H634 0.948 1_556 S
C648 H635 0.962 . S
C648 C647 1.529 . S
C649 C646 1.403 . S
C649 C650 1.392 1_655 S
C649 C653 1.495 . S
C650 C649 1.392 1_455 S
C650 C651 1.385 . S
C650 C652 1.478 . S
C651 H645 0.930 . S
C651 C647 1.400 . S
C651 C650 1.385 . S
C652 C650 1.478 . S
C652 C654 1.381 1_455 S
C652 C658 1.383 . S
C653 C649 1.495 . S
C653 H659 0.959 . S
C653 H660 0.961 . S
C653 H661 0.960 . S
C654 C652 1.381 1_655 S
C654 C655 1.394 . S
C654 H662 0.930 . S
C655 C654 1.394 . S
C655 C656 1.383 1_655 S
C655 H663 0.929 . S
C656 C655 1.383 1_455 S
C656 C657 1.377 . S
C657 H641 0.930 . S
C657 C656 1.377 . S
C657 C658 1.379 . S
C658 H642 0.931 . S
C658 C652 1.383 . S
C658 C657 1.379 . S
H659 C653 0.959 . S
H660 C653 0.961 . S
H661 C653 0.960 . S
H662 C654 0.930 . S
H663 C655 0.929 . S
H664 C672 0.929 . S
H665 C674 0.930 . S
H666 C676 0.930 . S
H667 C679 0.929 . S
H668 C682 0.923 1_455 S
H669 C684 0.960 . S
H670 C684 0.960 1_455 S
H671 C684 0.960 . S
C672 H664 0.929 . S
C672 C673 1.377 . S
C672 C674 1.384 . S
C673 C672 1.377 . S
C673 C679 1.390 1_455 S
C674 H665 0.930 . S
C674 C672 1.384 . S
C674 C675 1.341 1_455 S
C675 C674 1.341 1_655 S
C675 C676 1.426 . S
C675 C680 1.495 . S
C676 H666 0.930 . S
C676 C675 1.426 . S
C676 C679 1.386 . S
H677 C693 0.930 . S
H678 C694 0.931 . S
C679 H667 0.929 . S
C679 C673 1.390 1_655 S
C679 C676 1.386 . S
C680 C675 1.495 . S
C680 C682 1.398 . S
C680 C683 1.403 . S
H681 C687 0.930 . S
C682 H668 0.923 1_655 S
C682 C680 1.398 . S
C682 C685 1.409 . S
C683 C680 1.403 . S
C683 C684 1.524 . S
C683 C687 1.400 . S
C684 H669 0.960 . S
C684 H670 0.960 1_655 S
C684 H671 0.960 . S
C684 C683 1.524 . S
C685 C682 1.409 . S
C685 C686 1.392 . S
C685 C689 1.500 . S
C686 C685 1.392 . S
C686 C687 1.385 . S
C686 C688 1.478 . S
C687 H681 0.930 . S
C687 C683 1.400 . S
C687 C686 1.385 . S
C688 C686 1.478 . S
C688 C690 1.381 1_655 S
C688 C694 1.383 . S
C689 C685 1.500 . S
C689 H695 0.949 1_655 S
C689 H696 1.009 . S
C689 H697 0.921 1_655 S
C690 C688 1.381 1_455 S
C690 C691 1.394 . S
C690 H698 0.930 . S
C691 C690 1.394 . S
C691 C692 1.383 1_455 S
C691 H699 0.929 . S
C692 C691 1.383 1_655 S
C692 C693 1.377 . S
C693 H677 0.930 . S
C693 C692 1.377 . S
C693 C694 1.379 . S
C694 H678 0.931 . S
C694 C688 1.383 . S
C694 C693 1.379 . S
H695 C689 0.949 1_455 S
H696 C689 1.009 . S
H697 C689 0.921 1_455 S
H698 C690 0.930 . S
H699 C691 0.929 . S
H700 C708 0.929 . S
H701 C710 0.930 . S
H702 C712 0.930 . S
H703 C715 0.929 . S
H704 C718 0.930 . S
H705 C720 0.960 . S
H706 C720 0.960 . S
H707 C720 0.960 . S
C708 H700 0.929 . S
C708 C709 1.377 . S
C708 C710 1.384 . S
C709 C708 1.377 . S
C709 C715 1.390 . S
C710 H701 0.930 . S
C710 C708 1.384 . S
C710 C711 1.372 . S
C711 C710 1.372 . S
C711 C712 1.400 . S
C711 C716 1.490 . S
C712 H702 0.930 . S
C712 C711 1.400 . S
C712 C715 1.386 . S
H713 C729 0.930 1_565 S
H714 C730 0.931 . S
C715 H703 0.929 . S
C715 C709 1.390 . S
C715 C712 1.386 . S
C716 C711 1.490 . S
C716 C718 1.395 . S
C716 C719 1.403 . S
H717 C723 0.930 . S
C718 H704 0.930 . S
C718 C716 1.395 . S
C718 C721 1.403 . S
C719 C716 1.403 . S
C719 C720 1.524 . S
C719 C723 1.400 . S
C720 H705 0.960 . S
C720 H706 0.960 . S
C720 H707 0.960 . S
C720 C719 1.524 . S
C721 C718 1.403 . S
C721 C722 1.392 . S
C721 C725 1.495 . S
C722 C721 1.392 . S
C722 C723 1.385 . S
C722 C724 1.478 . S
C723 H717 0.930 . S
C723 C719 1.400 . S
C723 C722 1.385 . S
C724 C722 1.478 . S
C724 C726 1.381 . S
C724 C730 1.383 . S
C725 C721 1.495 . S
C725 H731 0.959 . S
C725 H732 0.961 . S
C725 H733 0.960 . S
C726 C724 1.381 . S
C726 C727 1.394 . S
C726 H734 0.930 . S
C727 C726 1.394 . S
C727 C728 1.383 . S
C727 H735 0.929 . S
C728 C727 1.383 . S
C728 C729 1.377 . S
C729 H713 0.930 1_545 S
C729 C728 1.377 . S
C729 C730 1.379 . S
C730 H714 0.931 . S
C730 C724 1.383 . S
C730 C729 1.379 . S
H731 C725 0.959 . S
H732 C725 0.961 . S
H733 C725 0.960 . S
H734 C726 0.930 . S
H735 C727 0.929 . S
H736 C744 0.929 . S
H737 C746 0.930 . S
H738 C748 0.930 . S
H739 C751 0.929 . S
H740 C754 0.930 . S
H741 C756 0.960 . S
H742 C756 0.960 . S
H743 C756 0.960 . S
C744 H736 0.929 . S
C744 C745 1.377 . S
C744 C746 1.384 . S
C745 C744 1.377 . S
C745 C751 1.390 . S
C746 H737 0.930 . S
C746 C744 1.384 . S
C746 C747 1.372 . S
C747 C746 1.372 . S
C747 C748 1.400 . S
C747 C752 1.490 . S
C748 H738 0.930 . S
C748 C747 1.400 . S
C748 C751 1.386 . S
H749 C765 0.930 . S
H750 C766 0.931 . S
C751 H739 0.929 . S
C751 C745 1.390 . S
C751 C748 1.386 . S
C752 C747 1.490 . S
C752 C754 1.395 . S
C752 C755 1.403 . S
H753 C759 0.930 . S
C754 H740 0.930 . S
C754 C752 1.395 . S
C754 C757 1.403 . S
C755 C752 1.403 . S
C755 C756 1.524 . S
C755 C759 1.400 . S
C756 H741 0.960 . S
C756 H742 0.960 . S
C756 H743 0.960 . S
C756 C755 1.524 . S
C757 C754 1.403 . S
C757 C758 1.392 . S
C757 C761 1.495 . S
C758 C757 1.392 . S
C758 C759 1.385 . S
C758 C760 1.478 . S
C759 H753 0.930 . S
C759 C755 1.400 . S
C759 C758 1.385 . S
C760 C758 1.478 . S
C760 C762 1.381 . S
C760 C766 1.383 . S
C761 C757 1.495 . S
C761 H767 0.959 . S
C761 H768 0.961 . S
C761 H769 0.960 . S
C762 C760 1.381 . S
C762 C763 1.394 . S
C762 H770 0.930 . S
C763 C762 1.394 . S
C763 C764 1.383 . S
C763 H771 0.929 . S
C764 C763 1.383 . S
C764 C765 1.377 . S
C765 H749 0.930 . S
C765 C764 1.377 . S
C765 C766 1.379 . S
C766 H750 0.931 . S
C766 C760 1.383 . S
C766 C765 1.379 . S
H767 C761 0.959 . S
H768 C761 0.961 . S
H769 C761 0.960 . S
H770 C762 0.930 . S
H771 C763 0.929 . S
H772 C780 0.929 . S
H773 C782 0.930 . S
H774 C784 0.930 . S
H775 C787 0.929 . S
H776 C790 0.930 . S
H777 C792 0.960 . S
H778 C792 0.960 . S
H779 C792 0.960 . S
C780 H772 0.929 . S
C780 C781 1.377 . S
C780 C782 1.384 . S
C781 C780 1.377 . S
C781 C787 1.390 . S
C782 H773 0.930 . S
C782 C780 1.384 . S
C782 C783 1.372 . S
C783 C782 1.372 . S
C783 C784 1.400 . S
C783 C788 1.490 . S
C784 H774 0.930 . S
C784 C783 1.400 . S
C784 C787 1.386 . S
H785 C801 0.930 . S
H786 C802 0.931 . S
C787 H775 0.929 . S
C787 C781 1.390 . S
C787 C784 1.386 . S
C788 C783 1.490 . S
C788 C790 1.395 . S
C788 C791 1.403 . S
H789 C795 0.930 . S
C790 H776 0.930 . S
C790 C788 1.395 . S
C790 C793 1.403 . S
C791 C788 1.403 . S
C791 C792 1.524 . S
C791 C795 1.400 . S
C792 H777 0.960 . S
C792 H778 0.960 . S
C792 H779 0.960 . S
C792 C791 1.524 . S
C793 C790 1.403 . S
C793 C794 1.392 . S
C793 C797 1.495 . S
C794 C793 1.392 . S
C794 C795 1.385 . S
C794 C796 1.478 . S
C795 H789 0.930 . S
C795 C791 1.400 . S
C795 C794 1.385 . S
C796 C794 1.478 . S
C796 C798 1.381 . S
C796 C802 1.383 . S
C797 C793 1.495 . S
C797 H803 0.959 . S
C797 H804 0.961 . S
C797 H805 0.960 . S
C798 C796 1.381 . S
C798 C799 1.394 . S
C798 H806 0.930 . S
C799 C798 1.394 . S
C799 C800 1.383 . S
C799 H807 0.929 . S
C800 C799 1.383 . S
C800 C801 1.377 . S
C801 H785 0.930 . S
C801 C800 1.377 . S
C801 C802 1.379 . S
C802 H786 0.931 . S
C802 C796 1.383 . S
C802 C801 1.379 . S
H803 C797 0.959 . S
H804 C797 0.961 . S
H805 C797 0.960 . S
H806 C798 0.930 . S
H807 C799 0.929 . S
H808 C816 0.929 . S
H809 C818 0.930 . S
H810 C820 0.930 . S
H811 C823 0.929 . S
H812 C826 0.930 . S
H813 C828 0.960 . S
H814 C828 0.960 . S
H815 C828 0.960 . S
C816 H808 0.929 . S
C816 C817 1.377 1_455 S
C816 C818 1.384 1_554 S
C817 C816 1.377 1_655 S
C817 C823 1.390 . S
C818 H809 0.930 . S
C818 C816 1.384 1_556 S
C818 C819 1.372 . S
C819 C818 1.372 . S
C819 C820 1.400 1_455 S
C819 C824 1.490 . S
C820 H810 0.930 . S
C820 C819 1.400 1_655 S
C820 C823 1.386 1_556 S
H821 C837 0.930 . S
H822 C838 0.931 . S
C823 H811 0.929 . S
C823 C817 1.390 . S
C823 C820 1.386 1_554 S
C824 C819 1.490 . S
C824 C826 1.395 . S
C824 C827 1.403 1_455 S
H825 C831 0.932 1_655 S
C826 H812 0.930 . S
C826 C824 1.395 . S
C826 C829 1.403 . S
C827 C824 1.403 1_655 S
C827 C828 1.524 1_556 S
C827 C831 1.401 1_655 S
C828 H813 0.960 . S
C828 H814 0.960 . S
C828 H815 0.960 . S
C828 C827 1.524 1_554 S
C829 C826 1.403 . S
C829 C830 1.392 . S
C829 C833 1.495 . S
C830 C829 1.392 . S
C830 C831 1.382 . S
C830 C832 1.478 . S
C831 H825 0.932 1_455 S
C831 C827 1.401 1_455 S
C831 C830 1.382 . S
C832 C830 1.478 . S
C832 C834 1.381 . S
C832 C838 1.383 1_455 S
C833 C829 1.495 . S
C833 H839 0.959 . S
C833 H840 0.961 . S
C833 H841 0.960 . S
C834 C832 1.381 . S
C834 C835 1.394 . S
C834 H842 0.930 . S
C835 C834 1.394 . S
C835 C836 1.383 . S
C835 H843 0.929 . S
C836 C835 1.383 . S
C836 C837 1.377 1_455 S
C837 H821 0.930 . S
C837 C836 1.377 1_655 S
C837 C838 1.379 . S
C838 H822 0.931 . S
C838 C832 1.383 1_655 S
C838 C837 1.379 . S
H839 C833 0.959 . S
H840 C833 0.961 . S
H841 C833 0.960 . S
H842 C834 0.930 . S
H843 C835 0.929 . S
H844 C852 0.916 1_554 S
H845 C854 0.930 . S
H846 C856 0.930 . S
H847 C859 0.929 . S
H848 C862 0.930 . S
H849 C864 0.960 . S
H850 C864 0.960 . S
H851 C864 0.960 . S
C852 H844 0.916 1_556 S
C852 C853 1.384 . S
C852 C854 1.391 . S
C853 C852 1.384 . S
C853 C859 1.390 . S
C854 H845 0.930 . S
C854 C852 1.391 . S
C854 C855 1.372 . S
C855 C854 1.372 . S
C855 C856 1.400 . S
C855 C860 1.490 . S
C856 H846 0.930 . S
C856 C855 1.400 . S
C856 C859 1.386 . S
H857 C873 0.930 . S
H858 C874 0.931 . S
C859 H847 0.929 . S
C859 C853 1.390 . S
C859 C856 1.386 . S
C860 C855 1.490 . S
C860 C862 1.395 . S
C860 C863 1.403 . S
H861 C867 0.930 . S
C862 H848 0.930 . S
C862 C860 1.395 . S
C862 C865 1.403 . S
C863 C860 1.403 . S
C863 C864 1.524 . S
C863 C867 1.400 . S
C864 H849 0.960 . S
C864 H850 0.960 . S
C864 H851 0.960 . S
C864 C863 1.524 . S
C865 C862 1.403 . S
C865 C866 1.392 . S
C865 C869 1.495 . S
C866 C865 1.392 . S
C866 C867 1.385 . S
C866 C868 1.478 . S
C867 H861 0.930 . S
C867 C863 1.400 . S
C867 C866 1.385 . S
C868 C866 1.478 . S
C868 C870 1.381 . S
C868 C874 1.383 1_565 S
C869 C865 1.495 . S
C869 H875 0.959 1_556 S
C869 H876 0.961 . S
C869 H877 0.960 . S
C870 C868 1.381 . S
C870 C871 1.394 . S
C870 H878 0.930 . S
C871 C870 1.394 . S
C871 C872 1.383 1_565 S
C871 H879 0.929 . S
C872 C871 1.383 1_545 S
C872 C873 1.377 . S
C873 H857 0.930 . S
C873 C872 1.377 . S
C873 C874 1.379 . S
C874 H858 0.931 . S
C874 C868 1.383 1_545 S
C874 C873 1.379 . S
H875 C869 0.959 1_554 S
H876 C869 0.961 . S
H877 C869 0.960 . S
H878 C870 0.930 . S
H879 C871 0.929 . S
H880 C888 0.929 . S
H881 C890 0.930 . S
H882 C892 0.930 . S
H883 C895 0.929 . S
H884 C898 0.930 . S
H885 C900 0.960 . S
H886 C900 0.960 . S
H887 C900 0.960 1_554 S
C888 H880 0.929 . S
C888 C889 1.377 1_556 S
C888 C890 1.384 . S
C889 C888 1.377 1_554 S
C889 C895 1.390 . S
C890 H881 0.930 . S
C890 C888 1.384 . S
C890 C891 1.372 . S
C891 C890 1.372 . S
C891 C892 1.400 1_556 S
C891 C896 1.490 . S
C892 H882 0.930 . S
C892 C891 1.400 1_554 S
C892 C895 1.386 . S
H893 C909 0.930 . S
H894 C910 0.931 . S
C895 H883 0.929 . S
C895 C889 1.390 . S
C895 C892 1.386 . S
C896 C891 1.490 . S
C896 C898 1.395 . S
C896 C899 1.403 . S
H897 C903 0.930 . S
C898 H884 0.930 . S
C898 C896 1.395 . S
C898 C901 1.403 . S
C899 C896 1.403 . S
C899 C900 1.524 . S
C899 C903 1.400 . S
C900 H885 0.960 . S
C900 H886 0.960 . S
C900 H887 0.960 1_556 S
C900 C899 1.524 . S
C901 C898 1.403 . S
C901 C902 1.392 . S
C901 C905 1.495 . S
C902 C901 1.392 . S
C902 C903 1.385 . S
C902 C904 1.478 . S
C903 H897 0.930 . S
C903 C899 1.400 . S
C903 C902 1.385 . S
C904 C902 1.478 . S
C904 C906 1.381 . S
C904 C910 1.383 . S
C905 C901 1.495 . S
C905 H911 0.959 . S
C905 H912 0.961 . S
C905 H913 0.960 . S
C906 C904 1.381 . S
C906 C907 1.394 . S
C906 H914 0.930 . S
C907 C906 1.394 . S
C907 C908 1.383 . S
C907 H915 0.929 . S
C908 C907 1.383 . S
C908 C909 1.377 . S
C909 H893 0.930 . S
C909 C908 1.377 . S
C909 C910 1.379 . S
C910 H894 0.931 . S
C910 C904 1.383 . S
C910 C909 1.379 . S
H911 C905 0.959 . S
H912 C905 0.961 . S
H913 C905 0.960 . S
H914 C906 0.930 . S
H915 C907 0.929 . S
H916 C924 0.929 . S
H917 C926 0.930 . S
H918 C928 0.930 . S
H919 C931 0.929 . S
H920 C934 0.930 . S
H921 C936 0.960 . S
H922 C936 0.960 . S
H923 C936 0.960 . S
C924 H916 0.929 . S
C924 C925 1.377 . S
C924 C926 1.384 1_554 S
C925 C924 1.377 . S
C925 C931 1.390 . S
C926 H917 0.930 . S
C926 C924 1.384 1_556 S
C926 C927 1.372 . S
C927 C926 1.372 . S
C927 C928 1.400 . S
C927 C932 1.490 . S
C928 H918 0.930 . S
C928 C927 1.400 . S
C928 C931 1.386 1_556 S
H929 C945 0.930 . S
H930 C946 0.931 . S
C931 H919 0.929 . S
C931 C925 1.390 . S
C931 C928 1.386 1_554 S
C932 C927 1.490 . S
C932 C934 1.395 . S
C932 C935 1.403 . S
H933 C939 0.930 . S
C934 H920 0.930 . S
C934 C932 1.395 . S
C934 C937 1.403 . S
C935 C932 1.403 . S
C935 C936 1.524 1_556 S
C935 C939 1.400 . S
C936 H921 0.960 . S
C936 H922 0.960 . S
C936 H923 0.960 . S
C936 C935 1.524 1_554 S
C937 C934 1.403 . S
C937 C938 1.392 . S
C937 C941 1.495 . S
C938 C937 1.392 . S
C938 C939 1.385 . S
C938 C940 1.478 . S
C939 H933 0.930 . S
C939 C935 1.400 . S
C939 C938 1.385 . S
C940 C938 1.478 . S
C940 C942 1.381 . S
C940 C946 1.383 . S
C941 C937 1.495 . S
C941 H947 0.959 . S
C941 H948 0.961 . S
C941 H949 0.960 . S
C942 C940 1.381 . S
C942 C943 1.394 . S
C942 H950 0.930 . S
C943 C942 1.394 . S
C943 C944 1.383 . S
C943 H951 0.929 . S
C944 C943 1.383 . S
C944 C945 1.377 . S
C945 H929 0.930 . S
C945 C944 1.377 . S
C945 C946 1.379 . S
C946 H930 0.931 . S
C946 C940 1.383 . S
C946 C945 1.379 . S
H947 C941 0.959 . S
H948 C941 0.961 . S
H949 C941 0.960 . S
H950 C942 0.930 . S
H951 C943 0.929 . S
H952 C960 0.929 . S
H953 C962 0.930 . S
H954 C964 0.930 . S
H955 C967 0.929 . S
H956 C970 0.930 . S
H957 C972 0.960 . S
H958 C972 0.960 . S
H959 C972 0.960 . S
C960 H952 0.929 . S
C960 C961 1.350 1_655 S
C960 C962 1.384 . S
C961 C960 1.350 1_455 S
C961 C967 1.418 . S
C962 H953 0.930 . S
C962 C960 1.384 . S
C962 C963 1.372 1_655 S
C963 C962 1.372 1_455 S
C963 C964 1.400 . S
C963 C968 1.490 . S
C964 H954 0.930 . S
C964 C963 1.400 . S
C964 C967 1.386 . S
H965 C981 0.930 . S
H966 C982 0.931 . S
C967 H955 0.929 . S
C967 C961 1.418 . S
C967 C964 1.386 . S
C968 C963 1.490 . S
C968 C970 1.395 1_455 S
C968 C971 1.403 . S
H969 C975 0.930 . S
C970 H956 0.930 . S
C970 C968 1.395 1_655 S
C970 C973 1.403 . S
C971 C968 1.403 . S
C971 C972 1.524 . S
C971 C975 1.400 . S
C972 H957 0.960 . S
C972 H958 0.960 . S
C972 H959 0.960 . S
C972 C971 1.524 . S
C973 C970 1.403 . S
C973 C974 1.392 1_655 S
C973 C977 1.495 1_554 S
C974 C973 1.392 1_455 S
C974 C975 1.385 . S
C974 C976 1.478 . S
C975 H969 0.930 . S
C975 C971 1.400 . S
C975 C974 1.385 . S
C976 C974 1.478 . S
C976 C978 1.381 1_454 S
C976 C982 1.383 1_554 S
C977 C973 1.495 1_556 S
C977 H983 0.959 . S
C977 H984 0.961 . S
C977 H985 0.960 . S
C978 C976 1.381 1_656 S
C978 C979 1.394 . S
C978 H986 0.930 1_556 S
C979 C978 1.394 . S
C979 C980 1.383 1_655 S
C979 H987 0.929 . S
C980 C979 1.383 1_455 S
C980 C981 1.377 . S
C981 H965 0.930 . S
C981 C980 1.377 . S
C981 C982 1.379 . S
C982 H966 0.931 . S
C982 C976 1.383 1_556 S
C982 C981 1.379 . S
H983 C977 0.959 . S
H984 C977 0.961 . S
H985 C977 0.960 . S
H986 C978 0.930 1_554 S
H987 C979 0.929 . S
H988 C996 0.929 . S
H989 C998 0.930 . S
H990 C1000 0.930 . S
H991 C1003 0.929 . S
H992 C1006 0.930 . S
H993 C1008 0.960 . S
H994 C1008 0.960 . S
H995 C1008 0.960 . S
C996 H988 0.929 . S
C996 C997 1.377 . S
C996 C998 1.384 . S
C997 C996 1.377 . S
C997 C1003 1.390 . S
C998 H989 0.930 . S
C998 C996 1.384 . S
C998 C999 1.372 . S
C999 C998 1.372 . S
C999 C1000 1.400 . S
C999 C1004 1.490 . S
C1000 H990 0.930 . S
C1000 C999 1.400 . S
C1000 C1003 1.386 . S
H1001 C1017 0.930 . S
H1002 C1018 0.931 . S
C1003 H991 0.929 . S
C1003 C997 1.390 . S
C1003 C1000 1.386 . S
C1004 C999 1.490 . S
C1004 C1006 1.395 . S
C1004 C1007 1.403 . S
H1005 C1011 0.930 . S
C1006 H992 0.930 . S
C1006 C1004 1.395 . S
C1006 C1009 1.403 . S
C1007 C1004 1.403 . S
C1007 C1008 1.524 . S
C1007 C1011 1.400 . S
C1008 H993 0.960 . S
C1008 H994 0.960 . S
C1008 H995 0.960 . S
C1008 C1007 1.524 . S
C1009 C1006 1.403 . S
C1009 C1010 1.392 . S
C1009 C1013 1.495 . S
C1010 C1009 1.392 . S
C1010 C1011 1.385 . S
C1010 C1012 1.478 . S
C1011 H1005 0.930 . S
C1011 C1007 1.400 . S
C1011 C1010 1.385 . S
C1012 C1010 1.478 . S
C1012 C1014 1.381 . S
C1012 C1018 1.383 . S
C1013 C1009 1.495 . S
C1013 H1019 0.959 . S
C1013 H1020 0.961 . S
C1013 H1021 0.960 . S
C1014 C1012 1.381 . S
C1014 C1015 1.394 1_554 S
C1014 H1022 0.930 . S
C1015 C1014 1.394 1_556 S
C1015 C1016 1.383 . S
C1015 H1023 0.929 . S
C1016 C1015 1.383 . S
C1016 C1017 1.377 . S
C1017 H1001 0.930 . S
C1017 C1016 1.377 . S
C1017 C1018 1.379 1_556 S
C1018 H1002 0.931 . S
C1018 C1012 1.383 . S
C1018 C1017 1.379 1_554 S
H1019 C1013 0.959 . S
H1020 C1013 0.961 . S
H1021 C1013 0.960 . S
H1022 C1014 0.930 . S
H1023 C1015 0.929 . S
H1024 C1032 0.929 . S
H1025 C1034 0.930 . S
H1026 C1036 0.930 . S
H1027 C1039 0.929 . S
H1028 C1042 0.930 . S
H1029 C1044 0.960 1_556 S
H1030 C1044 0.960 . S
H1031 C1044 0.960 . S
C1032 H1024 0.929 . S
C1032 C1033 1.377 . S
C1032 C1034 1.384 . S
C1033 C1032 1.377 . S
C1033 C1039 1.390 . S
C1034 H1025 0.930 . S
C1034 C1032 1.384 . S
C1034 C1035 1.372 . S
C1035 C1034 1.372 . S
C1035 C1036 1.400 . S
C1035 C1040 1.490 . S
C1036 H1026 0.930 . S
C1036 C1035 1.400 . S
C1036 C1039 1.386 . S
H1037 C1053 0.930 . S
H1038 C1054 0.931 . S
C1039 H1027 0.929 . S
C1039 C1033 1.390 . S
C1039 C1036 1.386 . S
C1040 C1035 1.490 . S
C1040 C1042 1.395 . S
C1040 C1043 1.403 . S
H1041 C1047 0.930 . S
C1042 H1028 0.930 . S
C1042 C1040 1.395 . S
C1042 C1045 1.403 . S
C1043 C1040 1.403 . S
C1043 C1044 1.524 . S
C1043 C1047 1.400 1_554 S
C1044 H1029 0.960 1_554 S
C1044 H1030 0.960 . S
C1044 H1031 0.960 . S
C1044 C1043 1.524 . S
C1045 C1042 1.403 . S
C1045 C1046 1.392 . S
C1045 C1049 1.495 . S
C1046 C1045 1.392 . S
C1046 C1047 1.385 1_554 S
C1046 C1048 1.478 1_554 S
C1047 H1041 0.930 . S
C1047 C1043 1.400 1_556 S
C1047 C1046 1.385 1_556 S
C1048 C1046 1.478 1_556 S
C1048 C1050 1.381 . S
C1048 C1054 1.383 . S
C1049 C1045 1.495 . S
C1049 H1055 0.959 . S
C1049 H1056 0.961 . S
C1049 H1057 0.960 . S
C1050 C1048 1.381 . S
C1050 C1051 1.394 . S
C1050 H1058 0.930 . S
C1051 C1050 1.394 . S
C1051 C1052 1.383 . S
C1051 H1059 0.929 . S
C1052 C1051 1.383 . S
C1052 C1053 1.377 . S
C1053 H1037 0.930 . S
C1053 C1052 1.377 . S
C1053 C1054 1.379 . S
C1054 H1038 0.931 . S
C1054 C1048 1.383 . S
C1054 C1053 1.379 . S
H1055 C1049 0.959 . S
H1056 C1049 0.961 . S
H1057 C1049 0.960 . S
H1058 C1050 0.930 . S
H1059 C1051 0.929 . S
H1060 C1068 0.929 . S
H1061 C1070 0.930 . S
H1062 C1072 0.930 . S
H1063 C1075 0.929 . S
H1064 C1078 0.930 . S
H1065 C1080 0.960 . S
H1066 C1080 0.960 . S
H1067 C1080 0.960 . S
C1068 H1060 0.929 . S
C1068 C1069 1.377 . S
C1068 C1070 1.384 . S
C1069 C1068 1.377 . S
C1069 C1075 1.390 . S
C1070 H1061 0.930 . S
C1070 C1068 1.384 . S
C1070 C1071 1.372 . S
C1071 C1070 1.372 . S
C1071 C1072 1.400 . S
C1071 C1076 1.490 . S
C1072 H1062 0.930 . S
C1072 C1071 1.400 . S
C1072 C1075 1.386 . S
H1073 C1089 0.930 . S
H1074 C1090 0.931 . S
C1075 H1063 0.929 . S
C1075 C1069 1.390 . S
C1075 C1072 1.386 . S
C1076 C1071 1.490 . S
C1076 C1078 1.395 . S
C1076 C1079 1.403 . S
H1077 C1083 0.930 . S
C1078 H1064 0.930 . S
C1078 C1076 1.395 . S
C1078 C1081 1.403 1_554 S
C1079 C1076 1.403 . S
C1079 C1080 1.524 . S
C1079 C1083 1.400 . S
C1080 H1065 0.960 . S
C1080 H1066 0.960 . S
C1080 H1067 0.960 . S
C1080 C1079 1.524 . S
C1081 C1078 1.403 1_556 S
C1081 C1082 1.392 1_556 S
C1081 C1085 1.495 . S
C1082 C1081 1.392 1_554 S
C1082 C1083 1.385 . S
C1082 C1084 1.478 1_554 S
C1083 H1077 0.930 . S
C1083 C1079 1.400 . S
C1083 C1082 1.385 . S
C1084 C1082 1.478 1_556 S
C1084 C1086 1.381 . S
C1084 C1090 1.383 . S
C1085 C1081 1.495 . S
C1085 H1091 0.959 . S
C1085 H1092 0.961 . S
C1085 H1093 0.960 . S
C1086 C1084 1.381 . S
C1086 C1087 1.394 . S
C1086 H1094 0.930 . S
C1087 C1086 1.394 . S
C1087 C1088 1.383 . S
C1087 H1095 0.929 . S
C1088 C1087 1.383 . S
C1088 C1089 1.377 . S
C1089 H1073 0.930 . S
C1089 C1088 1.377 . S
C1089 C1090 1.379 . S
C1090 H1074 0.931 . S
C1090 C1084 1.383 . S
C1090 C1089 1.379 . S
H1091 C1085 0.959 . S
H1092 C1085 0.961 . S
H1093 C1085 0.960 . S
H1094 C1086 0.930 . S
H1095 C1087 0.929 . S
H1096 C1104 0.929 . S
H1097 C1106 0.930 . S
H1098 C1108 0.930 . S
H1099 C1111 0.929 . S
H1100 C1114 0.930 . S
H1101 C1116 0.960 . S
H1102 C1116 0.960 . S
H1103 C1116 0.960 . S
C1104 H1096 0.929 . S
C1104 C1105 1.408 . S
C1104 C1106 1.384 . S
C1105 C1104 1.408 . S
C1105 C1111 1.361 1_655 S
C1106 H1097 0.930 . S
C1106 C1104 1.384 . S
C1106 C1107 1.372 . S
C1107 C1106 1.372 . S
C1107 C1108 1.400 1_655 S
C1107 C1112 1.490 . S
C1108 H1098 0.930 . S
C1108 C1107 1.400 1_455 S
C1108 C1111 1.386 . S
H1109 C1125 0.930 . S
H1110 C1126 0.931 . S
C1111 H1099 0.929 . S
C1111 C1105 1.361 1_455 S
C1111 C1108 1.386 . S
C1112 C1107 1.490 . S
C1112 C1114 1.395 . S
C1112 C1115 1.403 1_655 S
H1113 C1119 0.930 . S
C1114 H1100 0.930 . S
C1114 C1112 1.395 . S
C1114 C1117 1.403 . S
C1115 C1112 1.403 1_455 S
C1115 C1116 1.524 . S
C1115 C1119 1.400 . S
C1116 H1101 0.960 . S
C1116 H1102 0.960 . S
C1116 H1103 0.960 . S
C1116 C1115 1.524 . S
C1117 C1114 1.403 . S
C1117 C1118 1.392 . S
C1117 C1121 1.495 . S
C1118 C1117 1.392 . S
C1118 C1119 1.385 1_655 S
C1118 C1120 1.478 . S
C1119 H1113 0.930 . S
C1119 C1115 1.400 . S
C1119 C1118 1.385 1_455 S
C1120 C1118 1.478 . S
C1120 C1122 1.381 . S
C1120 C1126 1.383 1_655 S
C1121 C1117 1.495 . S
C1121 H1127 0.959 . S
C1121 H1128 0.961 . S
C1121 H1129 0.960 . S
C1122 C1120 1.381 . S
C1122 C1123 1.394 . S
C1122 H1130 0.930 . S
C1123 C1122 1.394 . S
C1123 C1124 1.383 . S
C1123 H1131 0.929 . S
C1124 C1123 1.383 . S
C1124 C1125 1.377 1_655 S
C1125 H1109 0.930 . S
C1125 C1124 1.377 1_455 S
C1125 C1126 1.379 . S
C1126 H1110 0.931 . S
C1126 C1120 1.383 1_455 S
C1126 C1125 1.379 . S
H1127 C1121 0.959 . S
H1128 C1121 0.961 . S
H1129 C1121 0.960 . S
H1130 C1122 0.930 . S
H1131 C1123 0.929 . S
H1132 C1140 0.929 . S
H1133 C1142 0.930 . S
H1134 C1144 0.930 . S
H1135 C1147 0.929 . S
H1136 C1150 0.930 . S
H1137 C1152 0.960 . S
H1138 C1152 0.960 . S
H1139 C1152 0.960 . S
C1140 H1132 0.929 . S
C1140 C1141 1.377 . S
C1140 C1142 1.384 . S
C1141 C1140 1.377 . S
C1141 C1147 1.390 . S
C1142 H1133 0.930 . S
C1142 C1140 1.384 . S
C1142 C1143 1.372 . S
C1143 C1142 1.372 . S
C1143 C1144 1.400 . S
C1143 C1148 1.490 . S
C1144 H1134 0.930 . S
C1144 C1143 1.400 . S
C1144 C1147 1.386 . S
H1145 C1161 0.930 . S
H1146 C1162 0.931 . S
C1147 H1135 0.929 . S
C1147 C1141 1.390 . S
C1147 C1144 1.386 . S
C1148 C1143 1.490 . S
C1148 C1150 1.395 . S
C1148 C1151 1.403 . S
H1149 C1155 0.930 . S
C1150 H1136 0.930 . S
C1150 C1148 1.395 . S
C1150 C1153 1.403 . S
C1151 C1148 1.403 . S
C1151 C1152 1.524 . S
C1151 C1155 1.400 . S
C1152 H1137 0.960 . S
C1152 H1138 0.960 . S
C1152 H1139 0.960 . S
C1152 C1151 1.524 . S
C1153 C1150 1.403 . S
C1153 C1154 1.392 . S
C1153 C1157 1.495 . S
C1154 C1153 1.392 . S
C1154 C1155 1.385 . S
C1154 C1156 1.478 . S
C1155 H1149 0.930 . S
C1155 C1151 1.400 . S
C1155 C1154 1.385 . S
C1156 C1154 1.478 . S
C1156 C1158 1.381 . S
C1156 C1162 1.383 . S
C1157 C1153 1.495 . S
C1157 H1163 0.959 1_565 S
C1157 H1164 0.961 1_565 S
C1157 H1165 0.960 . S
C1158 C1156 1.381 . S
C1158 C1159 1.394 . S
C1158 H1166 0.930 . S
C1159 C1158 1.394 . S
C1159 C1160 1.383 . S
C1159 H1167 0.929 . S
C1160 C1159 1.383 . S
C1160 C1161 1.377 . S
C1161 H1145 0.930 . S
C1161 C1160 1.377 . S
C1161 C1162 1.379 . S
C1162 H1146 0.931 . S
C1162 C1156 1.383 . S
C1162 C1161 1.379 . S
H1163 C1157 0.959 1_545 S
H1164 C1157 0.961 1_545 S
H1165 C1157 0.960 . S
H1166 C1158 0.930 . S
H1167 C1159 0.929 . S
H1168 C1176 0.929 . S
H1169 C1178 0.930 . S
H1170 C1180 0.930 . S
H1171 C1183 0.929 . S
H1172 C1186 0.930 . S
H1173 C1188 0.960 . S
H1174 C1188 0.960 . S
H1175 C1188 0.960 . S
C1176 H1168 0.929 . S
C1176 C1177 1.377 . S
C1176 C1178 1.384 . S
C1177 C1176 1.377 . S
C1177 C1183 1.390 . S
C1178 H1169 0.930 . S
C1178 C1176 1.384 . S
C1178 C1179 1.372 . S
C1179 C1178 1.372 . S
C1179 C1180 1.400 . S
C1179 C1184 1.490 . S
C1180 H1170 0.930 . S
C1180 C1179 1.400 . S
C1180 C1183 1.386 . S
H1181 C1197 0.930 . S
H1182 C1198 0.931 . S
C1183 H1171 0.929 . S
C1183 C1177 1.390 . S
C1183 C1180 1.386 . S
C1184 C1179 1.490 . S
C1184 C1186 1.395 . S
C1184 C1187 1.403 . S
H1185 C1191 0.930 . S
C1186 H1172 0.930 . S
C1186 C1184 1.395 . S
C1186 C1189 1.403 . S
C1187 C1184 1.403 . S
C1187 C1188 1.524 . S
C1187 C1191 1.400 . S
C1188 H1173 0.960 . S
C1188 H1174 0.960 . S
C1188 H1175 0.960 . S
C1188 C1187 1.524 . S
C1189 C1186 1.403 . S
C1189 C1190 1.392 . S
C1189 C1193 1.495 . S
C1190 C1189 1.392 . S
C1190 C1191 1.385 . S
C1190 C1192 1.478 . S
C1191 H1185 0.930 . S
C1191 C1187 1.400 . S
C1191 C1190 1.385 . S
C1192 C1190 1.478 . S
C1192 C1194 1.381 . S
C1192 C1198 1.383 . S
C1193 C1189 1.495 . S
C1193 H1199 0.959 . S
C1193 H1200 0.961 . S
C1193 H1201 0.960 . S
C1194 C1192 1.381 . S
C1194 C1195 1.394 . S
C1194 H1202 0.930 . S
C1195 C1194 1.394 . S
C1195 C1196 1.383 . S
C1195 H1203 0.929 . S
C1196 C1195 1.383 . S
C1196 C1197 1.377 . S
C1197 H1181 0.930 . S
C1197 C1196 1.377 . S
C1197 C1198 1.379 . S
C1198 H1182 0.931 . S
C1198 C1192 1.383 . S
C1198 C1197 1.379 . S
H1199 C1193 0.959 . S
H1200 C1193 0.961 . S
H1201 C1193 0.960 . S
H1202 C1194 0.930 . S
H1203 C1195 0.929 . S
H1204 C1212 0.929 . S
H1205 C1214 0.930 . S
H1206 C1216 0.930 . S
H1207 C1219 0.929 . S
H1208 C1222 0.930 . S
H1209 C1224 0.960 . S
H1210 C1224 0.960 . S
H1211 C1224 0.960 . S
C1212 H1204 0.929 . S
C1212 C1213 1.377 . S
C1212 C1214 1.384 . S
C1213 C1212 1.377 . S
C1213 C1219 1.390 . S
C1214 H1205 0.930 . S
C1214 C1212 1.384 . S
C1214 C1215 1.372 . S
C1215 C1214 1.372 . S
C1215 C1216 1.400 . S
C1215 C1220 1.490 . S
C1216 H1206 0.930 . S
C1216 C1215 1.400 . S
C1216 C1219 1.386 . S
H1217 C1233 0.930 . S
H1218 C1234 0.931 . S
C1219 H1207 0.929 . S
C1219 C1213 1.390 . S
C1219 C1216 1.386 . S
C1220 C1215 1.490 . S
C1220 C1222 1.395 . S
C1220 C1223 1.403 . S
H1221 C1227 0.930 . S
C1222 H1208 0.930 . S
C1222 C1220 1.395 . S
C1222 C1225 1.403 . S
C1223 C1220 1.403 . S
C1223 C1224 1.524 . S
C1223 C1227 1.400 . S
C1224 H1209 0.960 . S
C1224 H1210 0.960 . S
C1224 H1211 0.960 . S
C1224 C1223 1.524 . S
C1225 C1222 1.403 . S
C1225 C1226 1.392 . S
C1225 C1229 1.495 . S
C1226 C1225 1.392 . S
C1226 C1227 1.385 . S
C1226 C1228 1.478 . S
C1227 H1221 0.930 . S
C1227 C1223 1.400 . S
C1227 C1226 1.385 . S
C1228 C1226 1.478 . S
C1228 C1230 1.381 . S
C1228 C1234 1.383 . S
C1229 C1225 1.495 . S
C1229 H1235 0.959 . S
C1229 H1236 0.961 . S
C1229 H1237 0.960 . S
C1230 C1228 1.381 . S
C1230 C1231 1.394 . S
C1230 H1238 0.930 . S
C1231 C1230 1.394 . S
C1231 C1232 1.383 . S
C1231 H1239 0.929 . S
C1232 C1231 1.383 . S
C1232 C1233 1.377 . S
C1233 H1217 0.930 . S
C1233 C1232 1.377 . S
C1233 C1234 1.379 . S
C1234 H1218 0.931 . S
C1234 C1228 1.383 . S
C1234 C1233 1.379 . S
H1235 C1229 0.959 . S
H1236 C1229 0.961 . S
H1237 C1229 0.960 . S
H1238 C1230 0.930 . S
H1239 C1231 0.929 . S
C385 C215 1.731 . S
C404 C266 1.718 . S
C440 C296 1.671 . S
C421 C247 1.624 . S
C476 N330 1.579 . S
C457 C151 1.640 . S
C512 N360 1.229 . S
C493 C183 1.244 1_655 S
C548 C257 1.706 1_565 S
C529 C87 1.623 . S
C565 C119 1.647 . S
C584 C287 1.669 . S
C601 C23 1.545 . S
C620 N322 1.605 . S
C637 C55 1.246 . S
C656 N352 1.244 . S
C692 C272 0.598 . S
C673 C189 0.635 . S
C728 C302 0.199 . S
C709 C221 0.237 . S
C764 C343 0.288 . S
C745 C253 0.418 . S
C781 C157 0.142 . S
C800 C373 0.259 . S
C817 C61 0.720 1_655 S
C836 C283 0.607 . S
C872 C313 0.354 . S
C853 C93 0.632 . S
C908 C332 0.234 . S
C889 C125 0.340 . S
C925 C29 0.645 . S
C944 C362 0.337 . S
C961 C177 1.472 . S
C980 N262 1.488 . S
C997 C209 1.645 . S
C1016 N292 1.636 . S
C1052 C317 1.705 . S
C1033 C241 1.624 . S
C1088 C347 1.938 . S
C1069 C145 1.908 . S
C1105 C49 1.471 1_655 S
C1124 N270 1.518 . S
C1160 N300 1.618 . S
C1141 C81 1.586 . S
C1196 C326 1.695 . S
C1177 C113 1.663 . S
C1213 C17 1.811 . S
C1232 C356 1.942 . S
