# Generated by pormake.
# Topology nom, (4,4)-cn, num edge types: 1
# Building blocks:
#     Node 0, Type 0, BuildingBlock: AZAVOO_clean_linker_0, # of connection points: 4
#     Node 1, Type 0, BuildingBlock: AZAVOO_clean_linker_0, # of connection points: 4
#     Node 2, Type 0, BuildingBlock: AZAVOO_clean_linker_0, # of connection points: 4
#     Node 3, Type 0, BuildingBlock: AZAVOO_clean_linker_0, # of connection points: 4
#     Node 4, Type 0, BuildingBlock: AZAVOO_clean_linker_0, # of connection points: 4
#     Node 5, Type 0, BuildingBlock: AZAVOO_clean_linker_0, # of connection points: 4
#     Node 6, Type 1, BuildingBlock: QUQFOY_clean_sbu_3, # of connection points: 4
#     Node 7, Type 1, BuildingBlock: QUQFOY_clean_sbu_3, # of connection points: 4
#     Node 8, Type 1, BuildingBlock: QUQFOY_clean_sbu_3, # of connection points: 4
#     Node 9, Type 1, BuildingBlock: QUQFOY_clean_sbu_3, # of connection points: 4
#     Node 10, Type 1, BuildingBlock: QUQFOY_clean_sbu_3, # of connection points: 4
#     Node 11, Type 1, BuildingBlock: QUQFOY_clean_sbu_3, # of connection points: 4
#     Edge 12, Type (0, 1), BuildingBlock: MIFKUJ_clean_linker_0, # of connection points: 2
#     Edge 13, Type (0, 1), BuildingBlock: MIFKUJ_clean_linker_0, # of connection points: 2
#     Edge 14, Type (0, 1), BuildingBlock: MIFKUJ_clean_linker_0, # of connection points: 2
#     Edge 15, Type (0, 1), BuildingBlock: MIFKUJ_clean_linker_0, # of connection points: 2
#     Edge 16, Type (0, 1), BuildingBlock: MIFKUJ_clean_linker_0, # of connection points: 2
#     Edge 17, Type (0, 1), BuildingBlock: MIFKUJ_clean_linker_0, # of connection points: 2
#     Edge 18, Type (0, 1), BuildingBlock: MIFKUJ_clean_linker_0, # of connection points: 2
#     Edge 19, Type (0, 1), BuildingBlock: MIFKUJ_clean_linker_0, # of connection points: 2
#     Edge 20, Type (0, 1), BuildingBlock: MIFKUJ_clean_linker_0, # of connection points: 2
#     Edge 21, Type (0, 1), BuildingBlock: MIFKUJ_clean_linker_0, # of connection points: 2
#     Edge 22, Type (0, 1), BuildingBlock: MIFKUJ_clean_linker_0, # of connection points: 2
#     Edge 23, Type (0, 1), BuildingBlock: MIFKUJ_clean_linker_0, # of connection points: 2
#     Edge 24, Type (0, 1), BuildingBlock: MIFKUJ_clean_linker_0, # of connection points: 2
#     Edge 25, Type (0, 1), BuildingBlock: MIFKUJ_clean_linker_0, # of connection points: 2
#     Edge 26, Type (0, 1), BuildingBlock: MIFKUJ_clean_linker_0, # of connection points: 2
#     Edge 27, Type (0, 1), BuildingBlock: MIFKUJ_clean_linker_0, # of connection points: 2
#     Edge 28, Type (0, 1), BuildingBlock: MIFKUJ_clean_linker_0, # of connection points: 2
#     Edge 29, Type (0, 1), BuildingBlock: MIFKUJ_clean_linker_0, # of connection points: 2
#     Edge 30, Type (0, 1), BuildingBlock: MIFKUJ_clean_linker_0, # of connection points: 2
#     Edge 31, Type (0, 1), BuildingBlock: MIFKUJ_clean_linker_0, # of connection points: 2
#     Edge 32, Type (0, 1), BuildingBlock: MIFKUJ_clean_linker_0, # of connection points: 2
#     Edge 33, Type (0, 1), BuildingBlock: MIFKUJ_clean_linker_0, # of connection points: 2
#     Edge 34, Type (0, 1), BuildingBlock: MIFKUJ_clean_linker_0, # of connection points: 2
#     Edge 35, Type (0, 1), BuildingBlock: MIFKUJ_clean_linker_0, # of connection points: 2
# Relax obj value: 0.136
# Max RMSD: 0.228
# Mean RMSD: 0.148
data_MOF--net-nom--node1-QUQFOY_clean_sbu_3--node2-AZAVOO_clean_linker_0--edge1-MIFKUJ_clean_linker_0
_symmetry_space_group_name_H-M    P1
_symmetry_Int_Tables_number       1
_symmetry_cell_setting            triclinic
loop_
_symmetry_equiv_pos_as_xyz
'x, y, z'
_cell_length_a     59.661805
_cell_length_b     62.856641
_cell_length_c     75.975664
_cell_angle_alpha  89.70747
_cell_angle_beta   89.899573
_cell_angle_gamma 121.27727
loop_
_atom_site_label
_atom_site_type_symbol
_atom_site_fract_x
_atom_site_fract_y
_atom_site_fract_z
_atom_type_partial_charge
H0 H 0.06187 0.47142 0.19773 0.0
H1 H 0.175 0.60914 0.37171 0.0
H2 H 0.99446 0.4451 0.28322 0.0
H3 H 0.96114 0.42513 0.26034 0.0
H4 H 0.94816 0.48664 0.26153 0.0
H5 H 0.98171 0.50659 0.28435 0.0
H6 H 0.05932 0.47605 0.27454 0.0
H7 H 0.06388 0.47005 0.24322 0.0
H8 H 0.03057 0.51493 0.23004 0.0
H9 H 0.0265 0.52107 0.26137 0.0
H10 H 0.10644 0.51453 0.30363 0.0
H11 H 0.15079 0.54651 0.29401 0.0
H12 H 0.11872 0.58556 0.26716 0.0
H13 H 0.07502 0.55446 0.27751 0.0
H14 H 0.07764 0.49997 0.3425 0.0
H15 H 0.11436 0.52354 0.3626 0.0
H16 H 0.12828 0.59226 0.33919 0.0
H17 H 0.09125 0.56848 0.31938 0.0
H18 H 0.01718 0.47184 0.3508 0.0
H19 H 0.022 0.47836 0.38269 0.0
H20 H 0.04933 0.55626 0.37449 0.0
H21 H 0.04382 0.54938 0.34281 0.0
H22 H 0.9668 0.44892 0.32035 0.0
H23 H 0.92418 0.44006 0.3319 0.0
H24 H 0.95492 0.51906 0.336 0.0
H25 H -0.00301 0.52765 0.32448 0.0
O26 O 0.0601 0.47419 0.21003 0.0
O27 O 0.04283 0.49736 0.20397 0.0
O28 O 0.1517 0.56355 0.37599 0.0
O29 O 0.16062 0.59935 0.36376 0.0
C30 C 0.01374 0.49119 0.29676 0.0
C31 C 0.03912 0.50184 0.28927 0.0
C32 C 0.06151 0.51617 0.29977 0.0
C33 C 0.05857 0.51811 0.31804 0.0
C34 C 0.03321 0.50749 0.32546 0.0
C35 C 0.01085 0.49498 0.31471 0.0
C36 C 0.99045 0.47725 0.28539 0.0
C37 C 0.98393 0.45392 0.27884 0.0
C38 C 0.96487 0.44254 0.26583 0.0
C39 C 0.95218 0.45442 0.25912 0.0
C40 C 0.9578 0.47719 0.26639 0.0
C41 C 0.97675 0.48849 0.27948 0.0
C42 C 0.04232 0.49874 0.27022 0.0
C43 C 0.05309 0.48461 0.26486 0.0
C44 C 0.05562 0.48119 0.24696 0.0
C45 C 0.04747 0.49191 0.23412 0.0
C46 C 0.03694 0.50632 0.23957 0.0
C47 C 0.03449 0.50977 0.25746 0.0
C48 C 0.08753 0.53224 0.29134 0.0
C49 C 0.10904 0.52981 0.29544 0.0
C50 C 0.1343 0.54802 0.28989 0.0
C51 C 0.13826 0.56876 0.28009 0.0
C52 C 0.11638 0.57011 0.27504 0.0
C53 C 0.09133 0.55215 0.28071 0.0
C54 C 0.08194 0.53251 0.3294 0.0
C55 C 0.08876 0.52011 0.34168 0.0
C56 C 0.1097 0.53362 0.35315 0.0
C57 C 0.12428 0.5598 0.35249 0.0
C58 C 0.11751 0.57213 0.34003 0.0
C59 C 0.09646 0.5586 0.32864 0.0
C60 C 0.03043 0.5102 0.34457 0.0
C61 C 0.02339 0.4901 0.35599 0.0
C62 C 0.02634 0.4939 0.37415 0.0
C63 C 0.03632 0.51787 0.38108 0.0
C64 C 0.04135 0.53753 0.36962 0.0
C65 C 0.03836 0.53369 0.3515 0.0
C66 C 0.985 0.48891 0.32178 0.0
C67 C 0.96422 0.46423 0.32379 0.0
C68 C 0.93997 0.45923 0.33033 0.0
C69 C 0.93636 0.47889 0.33503 0.0
C70 C 0.95726 0.50353 0.33285 0.0
C71 C 0.98127 0.50847 0.32624 0.0
C72 C 0.04996 0.48805 0.21512 0.0
C73 C 0.14634 0.57424 0.3648 0.0
H74 H 0.5082 0.08649 0.36924 0.0
H75 H 0.44292 0.15876 0.54617 0.0
H76 H 0.4845 0.02609 0.45667 0.0
H77 H 0.48902 -3e-05 0.43497 0.0
H78 H 0.40472 0.95543 0.43015 0.0
H79 H 0.40035 0.98182 0.45198 0.0
H80 H 0.49768 0.07845 0.44593 0.0
H81 H 0.50987 0.08666 0.41478 0.0
H82 H 0.42868 0.03744 0.40049 0.0
H83 H 0.41672 0.02969 0.43169 0.0
H84 H 0.49753 0.10854 0.47925 0.0
H85 H 0.51611 0.15046 0.46722 0.0
H86 H 0.448 0.12457 0.43407 0.0
H87 H 0.42891 0.08291 0.44701 0.0
H88 H 0.48132 0.08366 0.51486 0.0
H89 H 0.48626 0.11481 0.53615 0.0
H90 H 0.42232 0.11723 0.51154 0.0
H91 H 0.41717 0.08558 0.49053 0.0
H92 H 0.46306 0.02749 0.51844 0.0
H93 H 0.46445 0.03167 0.55032 0.0
H94 H 0.39897 0.04298 0.54838 0.0
H95 H 0.39762 0.03859 0.51629 0.0
H96 H 0.45689 0.99281 0.49047 0.0
H97 H 0.43764 0.95065 0.50264 0.0
H98 H 0.3624 0.94499 0.50643 0.0
H99 H 0.38193 0.98719 0.49453 0.0
O100 O 0.50293 0.08313 0.38148 0.0
O101 O 0.461 0.05723 0.37485 0.0
O102 O 0.4737 0.14399 0.55029 0.0
O103 O 0.44154 0.1466 0.53777 0.0
C104 C 0.44024 0.02422 0.46687 0.0
C105 C 0.44893 0.04824 0.45997 0.0
C106 C 0.45108 0.06714 0.47112 0.0
C107 C 0.44462 0.06198 0.48915 0.0
C108 C 0.43485 0.03762 0.49584 0.0
C109 C 0.43225 0.01865 0.48462 0.0
C110 C 0.44212 0.00592 0.45574 0.0
C111 C 0.46699 0.01044 0.45113 0.0
C112 C 0.46955 0.9956 0.43873 0.0
C113 C 0.44723 0.97586 0.43078 0.0
C114 C 0.42222 0.97045 0.43617 0.0
C115 C 0.41968 0.98547 0.44856 0.0
C116 C 0.4563 0.05361 0.44106 0.0
C117 C 0.48254 0.06964 0.43605 0.0
C118 C 0.48945 0.07421 0.41824 0.0
C119 C 0.47024 0.06271 0.40514 0.0
C120 C 0.44395 0.04662 0.41024 0.0
C121 C 0.43707 0.04214 0.42804 0.0
C122 C 0.4618 0.09274 0.4641 0.0
C123 C 0.48645 0.11203 0.4696 0.0
C124 C 0.49719 0.1359 0.46251 0.0
C125 C 0.48366 0.14089 0.44955 0.0
C126 C 0.45882 0.12149 0.44416 0.0
C127 C 0.44795 0.09764 0.45144 0.0
C128 C 0.44876 0.08225 0.50123 0.0
C129 C 0.4684 0.09095 0.51408 0.0
C130 C 0.47121 0.10877 0.52622 0.0
C131 C 0.45464 0.11847 0.52558 0.0
C132 C 0.43536 0.1101 0.51242 0.0
C133 C 0.43244 0.09212 0.50036 0.0
C134 C 0.43042 0.033 0.51506 0.0
C135 C 0.44827 0.02977 0.52495 0.0
C136 C 0.44903 0.03218 0.5432 0.0
C137 C 0.43201 0.03796 0.55182 0.0
C138 C 0.4125 0.03881 0.54203 0.0
C139 C 0.41162 0.0362 0.52375 0.0
C140 C 0.42074 0.99294 0.49153 0.0
C141 C 0.43623 0.98235 0.49384 0.0
C142 C 0.42519 0.95829 0.50077 0.0
C143 C 0.39848 0.94448 0.50554 0.0
C144 C 0.38309 0.95524 0.50316 0.0
C145 C 0.39414 0.97926 0.49625 0.0
C146 C 0.47767 0.06746 0.38624 0.0
C147 C 0.4573 0.13712 0.53864 0.0
H148 H 0.58352 0.56258 0.76219 0.0
H149 H 0.56862 0.45311 0.56825 0.0
H150 H 0.56831 0.60607 0.66553 0.0
H151 H 0.56162 0.63 0.68812 0.0
H152 H 0.48802 0.56417 0.70265 0.0
H153 H 0.49478 0.54057 0.6799 0.0
H154 H 0.58767 0.57899 0.68608 0.0
H155 H 0.59277 0.5789 0.71805 0.0
H156 H 0.52278 0.50565 0.72112 0.0
H157 H 0.51784 0.50612 0.68916 0.0
H158 H 0.60133 0.53978 0.66896 0.0
H159 H 0.61264 0.51009 0.68094 0.0
H160 H 0.53487 0.44932 0.6684 0.0
H161 H 0.52381 0.47897 0.65661 0.0
H162 H 0.60064 0.542 0.62786 0.0
H163 H 0.61404 0.52155 0.60655 0.0
H164 H 0.53251 0.46751 0.59616 0.0
H165 H 0.51943 0.48788 0.61772 0.0
H166 H 0.57883 0.57463 0.60772 0.0
H167 H 0.57998 0.57079 0.5759 0.0
H168 H 0.49812 0.51242 0.57674 0.0
H169 H 0.49761 0.51567 0.60876 0.0
H170 H 0.54334 0.60319 0.63387 0.0
H171 H 0.51194 0.61554 0.62535 0.0
H172 H 0.44977 0.53803 0.62571 0.0
H173 H 0.48077 0.52631 0.63524 0.0
O174 O 0.58127 0.56214 0.74956 0.0
O175 O 0.54523 0.52446 0.75042 0.0
O176 O 0.60548 0.48868 0.58348 0.0
O177 O 0.56387 0.4612 0.57705 0.0
C178 C 0.53792 0.55678 0.65929 0.0
C179 C 0.54876 0.54313 0.66612 0.0
C180 C 0.55448 0.52892 0.65472 0.0
C181 C 0.55114 0.52984 0.63642 0.0
C182 C 0.54006 0.54336 0.62971 0.0
C183 C 0.53221 0.55574 0.64124 0.0
C184 C 0.53202 0.57169 0.67122 0.0
C185 C 0.55049 0.59705 0.67337 0.0
C186 C 0.54669 0.61061 0.68626 0.0
C187 C 0.52431 0.59894 0.6971 0.0
C188 C 0.50524 0.57375 0.69429 0.0
C189 C 0.50911 0.56021 0.68143 0.0
C190 C 0.55247 0.54254 0.68537 0.0
C191 C 0.57354 0.56293 0.6937 0.0
C192 C 0.57638 0.56282 0.71195 0.0
C193 C 0.55818 0.54227 0.72215 0.0
C194 C 0.53716 0.52177 0.71367 0.0
C195 C 0.53433 0.52194 0.69543 0.0
C196 C 0.56178 0.51144 0.66195 0.0
C197 C 0.58682 0.52005 0.66886 0.0
C198 C 0.59323 0.50312 0.67561 0.0
C199 C 0.57456 0.47744 0.67569 0.0
C200 C 0.54952 0.46901 0.66875 0.0
C201 C 0.54322 0.48587 0.66192 0.0
C202 C 0.55909 0.51651 0.62422 0.0
C203 C 0.58573 0.52562 0.62107 0.0
C204 C 0.59331 0.51396 0.60885 0.0
C205 C 0.57433 0.49297 0.59957 0.0
C206 C 0.54763 0.48368 0.60301 0.0
C207 C 0.5401 0.49529 0.61529 0.0
C208 C 0.53817 0.54545 0.61048 0.0
C209 C 0.56093 0.56164 0.60093 0.0
C210 C 0.56148 0.55947 0.58272 0.0
C211 C 0.53919 0.54109 0.5738 0.0
C212 C 0.51569 0.52652 0.58329 0.0
C213 C 0.51525 0.52855 0.60154 0.0
C214 C 0.51429 0.56386 0.63501 0.0
C215 C 0.5229 0.58901 0.6321 0.0
C216 C 0.50496 0.59597 0.62715 0.0
C217 C 0.47821 0.57781 0.62496 0.0
C218 C 0.47 0.55262 0.62766 0.0
C219 C 0.48777 0.5458 0.63284 0.0
C220 C 0.56108 0.54232 0.74155 0.0
C221 C 0.58227 0.48087 0.58626 0.0
H222 H 0.02179 0.44071 0.93266 0.0
H223 H 0.17228 0.50246 0.75346 0.0
H224 H 0.97735 0.4471 0.84352 0.0
H225 H 0.94239 0.42618 0.86543 0.0
H226 H 0.93418 0.35574 0.85208 0.0
H227 H 0.96922 0.37695 0.82995 0.0
H228 H 0.03615 0.47138 0.85867 0.0
H229 H 0.0333 0.46597 0.89069 0.0
H230 H 0.00935 0.38867 0.88429 0.0
H231 H 0.01252 0.39442 0.8523 0.0
H232 H 0.0873 0.497 0.83039 0.0
H233 H 0.12968 0.51112 0.84411 0.0
H234 H 0.10695 0.43451 0.85363 0.0
H235 H 0.06522 0.42065 0.83891 0.0
H236 H 0.0724 0.50175 0.7938 0.0
H237 H 0.11243 0.52358 0.77597 0.0
H238 H 0.11994 0.4588 0.77867 0.0
H239 H 0.07964 0.43706 0.79626 0.0
H240 H 0.01617 0.48155 0.7855 0.0
H241 H 0.02766 0.50113 0.75624 0.0
H242 H 0.04498 0.44588 0.73883 0.0
H243 H 0.03381 0.42661 0.7682 0.0
H244 H 0.961 0.44159 0.80842 0.0
H245 H 0.91711 0.41735 0.79564 0.0
H246 H 0.93938 0.36949 0.77038 0.0
H247 H 0.98279 0.39327 0.78373 0.0
O248 O 0.0234 0.44258 0.91999 0.0
O249 O 0.01182 0.40313 0.91602 0.0
O250 O 0.15173 0.52713 0.7596 0.0
O251 O 0.15653 0.49434 0.76062 0.0
C252 C 0.00035 0.427 0.82494 0.0
C253 C 0.0244 0.43632 0.83383 0.0
C254 C 0.04821 0.44929 0.8244 0.0
C255 C 0.04805 0.4541 0.80624 0.0
C256 C 0.02395 0.44537 0.79747 0.0
C257 C 8e-05 0.43117 0.8067 0.0
C258 C 0.97564 0.41348 0.83516 0.0
C259 C 0.96738 0.42704 0.84492 0.0
C260 C 0.94743 0.41506 0.8574 0.0
C261 C 0.93563 0.38934 0.86044 0.0
C262 C 0.94304 0.37558 0.85 0.0
C263 C 0.96283 0.38758 0.83731 0.0
C264 C 0.02451 0.43329 0.85322 0.0
C265 C 0.03056 0.45337 0.86424 0.0
C266 C 0.0288 0.45019 0.88251 0.0
C267 C 0.02098 0.42685 0.89005 0.0
C268 C 0.01537 0.40687 0.87892 0.0
C269 C 0.01718 0.4101 0.86066 0.0
C270 C 0.07333 0.45784 0.83357 0.0
C271 C 0.09158 0.48332 0.83539 0.0
C272 C 0.11564 0.49131 0.84343 0.0
C273 C 0.12173 0.47393 0.85002 0.0
C274 C 0.10307 0.44838 0.84849 0.0
C275 C 0.07914 0.44042 0.84024 0.0
C276 C 0.0731 0.46781 0.79623 0.0
C277 C 0.08272 0.49232 0.7905 0.0
C278 C 0.1056 0.50474 0.78035 0.0
C279 C 0.11936 0.4929 0.77586 0.0
C280 C 0.10982 0.46845 0.78186 0.0
C281 C 0.08686 0.45601 0.79196 0.0
C282 C 0.02417 0.45271 0.7789 0.0
C283 C 0.0216 0.47321 0.77519 0.0
C284 C 0.02837 0.48447 0.75858 0.0
C285 C 0.03735 0.47507 0.74539 0.0
C286 C 0.03792 0.45334 0.74875 0.0
C287 C 0.03151 0.44231 0.76545 0.0
C288 C 0.97491 0.419 0.79711 0.0
C289 C 0.9564 0.42599 0.8 0.0
C290 C 0.93144 0.41223 0.7926 0.0
C291 C 0.92471 0.39135 0.78214 0.0
C292 C 0.94381 0.3852 0.77863 0.0
C293 C 0.96867 0.39888 0.78609 0.0
C294 C 0.01846 0.42338 0.90945 0.0
C295 C 0.1435 0.50591 0.76489 0.0
H296 H 0.38376 0.95962 0.86805 0.0
H297 H 0.42556 0.86305 0.04274 0.0
H298 H 0.42204 0.02832 0.9518 0.0
H299 H 0.43722 0.05926 0.92796 0.0
H300 H 0.51575 0.07309 0.93401 0.0
H301 H 0.49999 0.04093 0.95654 0.0
H302 H 0.38862 0.96554 0.94491 0.0
H303 H 0.37867 0.95974 0.91343 0.0
H304 H 0.4614 0.99442 0.90169 0.0
H305 H 0.47102 -0.00027 0.93317 0.0
H306 H 0.38301 0.92033 0.97231 0.0
H307 H 0.3756 0.88034 0.96162 0.0
H308 H 0.45387 0.9184 0.93943 0.0
H309 H 0.46153 0.95759 0.95102 0.0
H310 H 0.38901 0.93754 0.00688 0.0
H311 H 0.37887 0.90166 0.02551 0.0
H312 H 0.45605 0.91412 0.01479 0.0
H313 H 0.46584 0.94992 -0.00381 0.0
H314 H 0.4171 0.98227 0.02568 0.0
H315 H 0.42754 0.97743 0.0559 0.0
H316 H 0.50752 0.00364 0.03997 0.0
H317 H 0.49597 0.00581 0.00963 0.0
H318 H 0.44348 0.04435 0.00229 0.0
H319 H 0.47388 0.08578 0.01468 0.0
H320 H 0.53946 0.07904 -0.00127 0.0
H321 H 0.50926 0.03803 0.98666 0.0
O322 O 0.38813 0.96211 0.88042 0.0
O323 O 0.4309 0.98028 0.8751 0.0
O324 O 0.38945 0.8713 0.04032 0.0
O325 O 0.42898 0.87705 0.03537 0.0
C326 C 0.45007 0.01066 0.96792 0.0
C327 C 0.43634 0.98661 0.96046 0.0
C328 C 0.42947 0.96552 0.971 0.0
C329 C 0.43437 0.96822 0.98925 0.0
C330 C 0.44797 0.99218 -0.00324 0.0
C331 C 0.45648 0.01344 0.98601 0.0
C332 C 0.46003 0.03275 0.95622 0.0
C333 C 0.44262 0.03849 0.94819 0.0
C334 C 0.45135 0.0562 0.93461 0.0
C335 C 0.47766 0.06849 0.92895 0.0
C336 C 0.49527 0.06368 0.93781 0.0
C337 C 0.48644 0.04572 0.95107 0.0
C338 C 0.43055 0.98341 0.9413 0.0
C339 C 0.40455 0.97191 0.9355 0.0
C340 C 0.39893 0.96863 0.91752 0.0
C341 C 0.41925 0.97672 0.90503 0.0
C342 C 0.4453 0.98809 0.91094 0.0
C343 C 0.45087 0.99129 0.92891 0.0
C344 C 0.42283 0.9418 0.96248 0.0
C345 C 0.39841 0.91992 0.96504 0.0
C346 C 0.39418 0.89718 0.95885 0.0
C347 C 0.41431 0.89617 0.94993 0.0
C348 C 0.43819 0.91842 0.94663 0.0
C349 C 0.44248 0.94091 0.953 0.0
C350 C 0.42809 0.94619 0.00021 0.0
C351 C 0.40362 0.9324 0.00855 0.0
C352 C 0.39792 0.91196 0.01918 0.0
C353 C 0.41667 0.90503 0.02164 0.0
C354 C 0.44118 0.91894 0.01318 0.0
C355 C 0.44683 0.93936 0.00255 0.0
C356 C 0.45584 0.99468 0.01549 0.0
C357 C 0.43698 0.98738 0.02885 0.0
C358 C 0.4431 0.98479 0.04616 0.0
C359 C 0.4684 0.98992 0.05048 0.0
C360 C 0.48769 -0.00107 0.03716 0.0
C361 C 0.48131 0.00079 0.01981 0.0
C362 C 0.47426 0.03847 -0.00665 0.0
C363 C 0.46443 0.05198 0.00145 0.0
C364 C 0.48173 0.07547 0.00855 0.0
C365 C 0.50898 0.08567 0.00743 0.0
C366 C 0.51858 0.07186 -0.00055 0.0
C367 C 0.50138 0.04845 -0.00743 0.0
C368 C 0.41322 0.9732 0.88595 0.0
C369 C 0.41078 0.88344 0.03301 0.0
H370 H 0.63554 0.58929 0.0232 0.0
H371 H 0.69074 0.52881 0.20531 0.0
H372 H 0.57773 0.59469 0.10877 0.0
H373 H 0.55942 0.61336 0.08988 0.0
H374 H 0.62302 0.68675 0.10374 0.0
H375 H 0.64126 0.66771 0.12295 0.0
H376 H 0.60665 0.56768 0.09759 0.0
H377 H 0.61325 0.56939 0.0657 0.0
H378 H 0.67396 0.6471 0.06955 0.0
H379 H 0.66732 0.64504 0.10147 0.0
H380 H 0.61427 0.54108 0.12764 0.0
H381 H 0.63284 0.51706 0.1163 0.0
H382 H 0.70696 0.58535 0.10744 0.0
H383 H 0.68823 0.60921 0.11902 0.0
H384 H 0.60068 0.54489 0.16581 0.0
H385 H 0.61158 0.51985 0.18463 0.0
H386 H 0.69403 0.57515 0.17863 0.0
H387 H 0.6828 0.60014 0.16001 0.0
H388 H 0.57466 0.57352 0.17205 0.0
H389 H 0.56369 0.56343 0.20333 0.0
H390 H 0.64494 0.6137 0.21672 0.0
H391 H 0.65578 0.62342 0.18544 0.0
H392 H 0.56701 0.60805 0.14333 0.0
H393 H 0.54907 0.6319 0.15566 0.0
H394 H 0.62241 0.67913 0.18255 0.0
H395 H 0.64072 0.65629 0.16897 0.0
O396 O 0.63336 0.58899 0.03585 0.0
O397 O 0.66442 0.62889 0.03854 0.0
O398 O 0.64323 0.51059 0.20072 0.0
O399 O 0.68587 0.53838 0.19797 0.0
C400 C 0.621 0.61792 0.12866 0.0
C401 C 0.63237 0.60518 0.12115 0.0
C402 C 0.63903 0.59102 0.132 0.0
C403 C 0.63428 0.58956 0.15029 0.0
C404 C 0.62295 0.60236 0.15772 0.0
C405 C 0.61663 0.61682 0.14699 0.0
C406 C 0.61079 0.62989 0.1171 0.0
C407 C 0.58768 0.61479 0.10776 0.0
C408 C 0.57713 0.62548 0.09717 0.0
C409 C 0.58965 0.65148 0.09561 0.0
C410 C 0.61298 0.66666 0.10487 0.0
C411 C 0.6234 0.65589 0.11572 0.0
C412 C 0.63664 0.60619 0.10183 0.0
C413 C 0.6215 0.58499 0.09153 0.0
C414 C 0.62525 0.58606 0.07331 0.0
C415 C 0.64415 0.60838 0.06507 0.0
C416 C 0.65925 0.6296 0.07548 0.0
C417 C 0.65551 0.62849 0.0937 0.0
C418 C 0.64999 0.5768 0.12418 0.0
C419 C 0.63447 0.5508 0.12316 0.0
C420 C 0.64505 0.53717 0.1166 0.0
C421 C 0.67135 0.54936 0.11103 0.0
C422 C 0.68671 0.57548 0.11182 0.0
C423 C 0.67606 0.58912 0.11831 0.0
C424 C 0.64095 0.57436 0.16166 0.0
C425 C 0.62106 0.55161 0.16867 0.0
C426 C 0.62736 0.53732 0.17937 0.0
C427 C 0.6537 0.54551 0.18315 0.0
C428 C 0.67357 0.56831 0.176 0.0
C429 C 0.66722 0.58261 0.16535 0.0
C430 C 0.616 0.59908 0.17661 0.0
C431 C 0.58994 0.58268 0.18181 0.0
C432 C 0.58373 0.57694 0.19958 0.0
C433 C 0.60348 0.58786 0.21234 0.0
C434 C 0.62933 0.60531 0.20712 0.0
C435 C 0.63558 0.61076 0.18933 0.0
C436 C 0.60529 0.63069 0.15503 0.0
C437 C 0.57928 0.62378 0.15168 0.0
C438 C 0.56895 0.63724 0.15899 0.0
C439 C 0.58426 0.65754 0.17015 0.0
C440 C 0.61018 0.66399 0.17376 0.0
C441 C 0.62063 0.6508 0.16616 0.0
C442 C 0.648 0.60947 0.04571 0.0
C443 C 0.6605 0.53038 0.19448 0.0
C444 C 0.70774 0.48012 0.39017 0.0
O445 O 0.71138 0.49908 0.39857 0.0
Cd446 Cd 0.67612 0.50425 0.40846 0.0
O447 O 0.68462 0.46194 0.38738 0.0
Cd448 Cd 0.63874 0.44832 0.3945 0.0
C449 C 0.64129 0.49403 0.36995 0.0
O450 O 0.64492 0.4672 0.42355 0.0
O451 O 0.6071 0.45276 0.41133 0.0
O452 O 0.63458 0.40898 0.40192 0.0
C453 C 0.62171 0.46301 0.4245 0.0
O454 O 0.65494 0.50847 0.38239 0.0
C455 C 0.61322 0.3955 0.3938 0.0
O456 O 0.63434 0.47112 0.3701 0.0
O457 O 0.60379 0.40664 0.38544 0.0
C458 C 0.26378 0.60161 0.56717 0.0
O459 O 0.24435 0.58159 0.56137 0.0
Cd460 Cd 0.20428 0.57731 0.55089 0.0
O461 O 0.26302 0.62146 0.56801 0.0
Cd462 Cd 0.23175 0.63526 0.56152 0.0
C463 C 0.18495 0.59259 0.58907 0.0
O464 O 0.21549 0.61336 0.53377 0.0
O465 O 0.19514 0.63073 0.54392 0.0
O466 O 0.26948 0.67344 0.55069 0.0
C467 C 0.19769 0.61844 0.53174 0.0
O468 O 0.18098 0.57683 0.57717 0.0
C469 C 0.26524 0.68815 0.55943 0.0
O470 O 0.2037 0.6152 0.58767 0.0
O471 O 0.24553 0.67826 0.56976 0.0
C472 C 0.65527 0.22779 0.73382 0.0
O473 O 0.6468 0.20491 0.73118 0.0
Cd474 Cd 0.60156 0.17533 0.7252 0.0
O475 O 0.63981 0.23606 0.73306 0.0
Cd476 Cd 0.5932 0.22148 0.72723 0.0
C477 C 0.57349 0.18256 0.76244 0.0
O478 O 0.58793 0.19379 0.70315 0.0
O479 O 0.55264 0.19193 0.71219 0.0
O480 O 0.61005 0.26168 0.71265 0.0
C481 C 0.56353 0.18487 0.70129 0.0
O482 O 0.57956 0.16917 0.75352 0.0
C483 C 0.595 0.26711 0.72065 0.0
O484 O 0.57735 0.20308 0.75631 0.0
O485 O 0.57892 0.25119 0.73167 0.0
C486 C 0.38987 0.58747 0.90144 0.0
O487 O 0.40219 0.57648 0.90484 0.0
Cd488 Cd 0.44804 0.6013 0.91166 0.0
O489 O 0.40181 0.61112 0.90112 0.0
Cd490 Cd 0.44545 0.64823 0.90514 0.0
C491 C 0.47219 0.63224 0.87275 0.0
O492 O 0.45174 0.63212 0.93249 0.0
O493 O 0.48524 0.66643 0.92302 0.0
O494 O 0.4175 0.66463 0.91235 0.0
C495 C 0.47434 0.65076 0.93542 0.0
O496 O 0.47085 0.61584 0.88331 0.0
C497 C 0.43349 0.68649 0.90681 0.0
O498 O 0.46306 0.64575 0.87715 0.0
O499 O 0.45502 0.69056 0.90038 0.0
C500 C 0.79026 0.4095 0.06284 0.0
O501 O 0.81394 0.42206 0.05766 0.0
Cd502 Cd 0.83778 0.40301 0.04898 0.0
O503 O 0.77827 0.38584 0.06413 0.0
Cd504 Cd 0.78745 0.35182 0.05994 0.0
C505 C 0.83705 0.37833 0.08939 0.0
O506 O 0.80687 0.36834 0.03144 0.0
O507 O 0.81033 0.33758 0.04033 0.0
O508 O 0.74017 0.32896 0.05561 0.0
C509 C 0.81313 0.35243 0.028 0.0
O510 O 0.85022 0.39429 0.07743 0.0
C511 C 0.73617 0.30838 0.06157 0.0
O512 O 0.81337 0.36124 0.08673 0.0
O513 O 0.75604 0.30793 0.06699 0.0
C514 C 0.38066 0.79402 0.24257 0.0
O515 O 0.37814 0.81263 0.23983 0.0
Cd516 Cd 0.41353 0.85354 0.23196 0.0
O517 O 0.4031 0.79624 0.24162 0.0
Cd518 Cd 0.44941 0.82856 0.23577 0.0
C519 C 0.4505 0.8648 0.2691 0.0
O520 O 0.43835 0.84597 0.21124 0.0
O521 O 0.47946 0.86543 0.21754 0.0
O522 O 0.44957 0.79276 0.22409 0.0
C523 C 0.46137 0.86353 0.20772 0.0
O524 O 0.43789 0.87105 0.25896 0.0
C525 C 0.47207 0.79888 0.22985 0.0
O526 O 0.45547 0.84812 0.26473 0.0
O527 O 0.48417 0.81886 0.23866 0.0
H528 H 0.15579 0.61804 0.283 0.0
H529 H 0.19894 0.65329 0.27546 0.0
H530 H 0.22509 0.60319 0.26153 0.0
H531 H 0.18141 0.56743 0.26883 0.0
H532 H 0.2617 0.64527 0.28199 0.0
H533 H 0.21153 0.62797 0.2293 0.0
H534 H 0.17281 0.61879 0.21177 0.0
H535 H 0.1824 0.68888 0.22655 0.0
H536 H 0.22095 0.69833 0.2444 0.0
H537 H 0.37678 0.74865 0.24301 0.0
H538 H 0.33753 0.70791 0.24852 0.0
H539 H 0.2926 0.74302 0.25702 0.0
H540 H 0.33149 0.78368 0.25105 0.0
H541 H 0.26693 0.70453 0.23639 0.0
H542 H 0.31348 0.72008 0.29137 0.0
H543 H 0.35122 0.72939 0.31007 0.0
H544 H 0.34801 0.66327 0.29194 0.0
H545 H 0.31043 0.65373 0.27295 0.0
C546 C 0.17058 0.61443 0.27815 0.0
C547 C 0.16504 0.58993 0.27616 0.0
C548 C 0.19528 0.63461 0.27396 0.0
C549 C 0.215 0.63078 0.26769 0.0
C550 C 0.20999 0.60644 0.26628 0.0
C551 C 0.18511 0.5861 0.27046 0.0
C552 C 0.24054 0.65251 0.26231 0.0
C553 C 0.26306 0.65803 0.27178 0.0
C554 C 0.24205 0.66925 0.2492 0.0
C555 C 0.21905 0.66378 0.23828 0.0
C556 C 0.20529 0.64136 0.22891 0.0
C557 C 0.18338 0.63612 0.2189 0.0
C558 C 0.17513 0.65323 0.21807 0.0
C559 C 0.18881 0.67565 0.22721 0.0
C560 C 0.21071 0.68097 0.23726 0.0
C561 C 0.35856 0.74771 0.24613 0.0
C562 C 0.35724 0.76941 0.24658 0.0
C563 C 0.33616 0.7244 0.24934 0.0
C564 C 0.31217 0.72242 0.25332 0.0
C565 C 0.31089 0.74409 0.25392 0.0
C566 C 0.33317 0.76734 0.25054 0.0
C567 C 0.28809 0.69783 0.25645 0.0
C568 C 0.26578 0.69169 0.24646 0.0
C569 C 0.28681 0.68065 0.26916 0.0
C570 C 0.30935 0.68635 0.28059 0.0
C571 C 0.32096 0.70763 0.29127 0.0
C572 C 0.34229 0.71293 0.30194 0.0
C573 C 0.35206 0.69698 0.30215 0.0
C574 C 0.34046 0.67564 0.29173 0.0
C575 C 0.31913 0.67027 0.28103 0.0
H576 H 0.36857 0.70111 0.31042 0.0
H577 H 0.15815 0.64913 0.21031 0.0
H578 H 0.45941 0.16633 0.44015 0.0
H579 H 0.47982 0.20846 0.42782 0.0
H580 H 0.5554 0.21502 0.42912 0.0
H581 H 0.53519 0.17273 0.44081 0.0
H582 H 0.5537 0.25485 0.4451 0.0
H583 H 0.52728 0.20725 0.39123 0.0
H584 H 0.49528 0.17501 0.37125 0.0
H585 H 0.45091 0.21119 0.36995 0.0
H586 H 0.48247 0.24347 0.39014 0.0
H587 H 0.63397 0.36717 0.402 0.0
H588 H 0.61027 0.32265 0.40858 0.0
H589 H 0.53704 0.31775 0.39661 0.0
H590 H 0.56089 0.36225 0.38926 0.0
H591 H 0.53495 0.27678 0.38635 0.0
H592 H 0.55876 0.32365 0.43936 0.0
H593 H 0.5882 0.35585 0.46038 0.0
H594 H 0.63374 0.3211 0.46509 0.0
H595 H 0.60478 0.28888 0.4439 0.0
C596 C 0.48031 0.17656 0.43754 0.0
C597 C 0.49568 0.16617 0.44159 0.0
C598 C 0.49192 0.20065 0.43056 0.0
C599 C 0.51907 0.21476 0.42758 0.0
C600 C 0.53441 0.20441 0.43143 0.0
C601 C 0.52283 0.1803 0.43823 0.0
C602 C 0.53182 0.24073 0.42114 0.0
C603 C 0.54988 0.25966 0.43217 0.0
C604 C 0.52596 0.24694 0.40456 0.0
C605 C 0.50708 0.22762 0.39235 0.0
C606 C 0.51058 0.20821 0.38681 0.0
C607 C 0.49254 0.18995 0.37542 0.0
C608 C 0.47103 0.19101 0.36938 0.0
C609 C 0.46756 0.21037 0.37467 0.0
C610 C 0.48552 0.22866 0.38607 0.0
C611 C 0.61285 0.35651 0.4005 0.0
C612 C 0.59921 0.36816 0.39531 0.0
C613 C 0.59931 0.33111 0.40435 0.0
C614 C 0.57181 0.31701 0.40358 0.0
C615 C 0.55824 0.3283 0.39742 0.0
C616 C 0.57187 0.3537 0.39323 0.0
C617 C 0.55733 0.29096 0.41019 0.0
C618 C 0.53881 0.27203 0.39928 0.0
C619 C 0.56235 0.28472 0.42707 0.0
C620 C 0.57973 0.30398 0.43992 0.0
C621 C 0.57516 0.32297 0.44479 0.0
C622 C 0.59174 0.34121 0.45674 0.0
C623 C 0.61286 0.34055 0.46403 0.0
C624 C 0.61739 0.3216 0.45942 0.0
C625 C 0.60088 0.30333 0.44745 0.0
H626 H 0.62568 0.35469 0.47328 0.0
H627 H 0.4571 0.17686 0.36056 0.0
H628 H 0.48456 0.61469 0.60203 0.0
H629 H 0.45092 0.62337 0.5922 0.0
H630 H 0.39396 0.56455 0.62579 0.0
H631 H 0.42747 0.55662 0.63646 0.0
H632 H 0.38474 0.56559 0.58467 0.0
H633 H 0.40592 0.61101 0.64044 0.0
H634 H 0.43694 0.6433 0.66081 0.0
H635 H 0.45694 0.69941 0.62117 0.0
H636 H 0.4263 0.66733 0.60047 0.0
H637 H 0.2665 0.56265 0.58021 0.0
H638 H 0.30543 0.56254 0.58974 0.0
H639 H 0.35367 0.64047 0.57613 0.0
H640 H 0.31436 0.64095 0.56755 0.0
H641 H 0.37155 0.63346 0.60445 0.0
H642 H 0.34932 0.59184 0.54948 0.0
H643 H 0.32113 0.56158 0.52702 0.0
H644 H 0.30704 0.5012 0.56121 0.0
H645 H 0.33487 0.53109 0.58398 0.0
C646 C 0.46505 0.60398 0.60765 0.0
C647 C 0.45869 0.58471 0.61988 0.0
C648 C 0.44586 0.60888 0.60193 0.0
C649 C 0.42006 0.59446 0.60823 0.0
C650 C 0.41379 0.57573 0.62072 0.0
C651 C 0.43296 0.57111 0.62667 0.0
C652 C 0.39903 0.59775 0.60115 0.0
C653 C 0.38165 0.5803 0.58902 0.0
C654 C 0.39584 0.61752 0.60638 0.0
C655 C 0.41411 0.63675 0.61885 0.0
C656 C 0.41716 0.63019 0.63601 0.0
C657 C 0.43461 0.64846 0.64763 0.0
C658 C 0.44898 0.67338 0.64227 0.0
C659 C 0.44585 0.68009 0.62529 0.0
C660 C 0.42844 0.66188 0.61362 0.0
C661 C 0.28541 0.57976 0.57925 0.0
C662 C 0.28745 0.60176 0.57301 0.0
C663 C 0.30771 0.57966 0.58459 0.0
C664 C 0.33267 0.60134 0.58322 0.0
C665 C 0.33469 0.62347 0.57724 0.0
C666 C 0.31224 0.62372 0.5723 0.0
C667 C 0.35649 0.6008 0.58818 0.0
C668 C 0.37457 0.61881 0.59986 0.0
C669 C 0.3607 0.5818 0.58219 0.0
C670 C 0.34405 0.56372 0.56849 0.0
C671 C 0.34009 0.57211 0.55226 0.0
C672 C 0.32419 0.55502 0.53946 0.0
C673 C 0.31226 0.52949 0.5427 0.0
C674 C 0.31628 0.52099 0.55872 0.0
C675 C 0.33214 0.53799 0.57157 0.0
H676 H 0.29995 0.51629 0.53278 0.0
H677 H 0.46248 0.6875 0.65128 0.0
H678 H 0.89192 0.40545 0.76825 0.0
H679 H 0.84634 0.37833 0.75901 0.0
H680 H 0.8505 0.31371 0.77249 0.0
H681 H 0.89585 0.34059 0.78187 0.0
H682 H 0.82664 0.30818 0.74113 0.0
H683 H 0.82079 0.33364 0.79976 0.0
H684 H 0.82981 0.36398 0.82323 0.0
H685 H 0.7931 0.39525 0.79282 0.0
H686 H 0.7842 0.3653 0.76904 0.0
H687 H 0.69161 0.21588 0.74343 0.0
H688 H 0.73763 0.24441 0.75068 0.0
H689 H 0.72848 0.30706 0.74032 0.0
H690 H 0.68221 0.27863 0.73362 0.0
H691 H 0.7553 0.31469 0.76921 0.0
H692 H 0.76001 0.28825 0.71078 0.0
H693 H 0.75119 0.25786 0.68737 0.0
H694 H 0.79014 0.22841 0.71729 0.0
H695 H 0.7989 0.25842 0.74099 0.0
C696 C 0.88308 0.38546 0.76929 0.0
C697 C 0.89749 0.37516 0.77577 0.0
C698 C 0.85708 0.37001 0.76398 0.0
C699 C 0.84502 0.34403 0.7652 0.0
C700 C 0.85949 0.33371 0.77138 0.0
C701 C 0.88543 0.34912 0.77667 0.0
C702 C 0.81719 0.32748 0.7603 0.0
C703 C 0.81099 0.30942 0.74737 0.0
C704 C 0.79689 0.32949 0.76821 0.0
C705 C 0.80208 0.3474 0.78254 0.0
C706 C 0.81483 0.34711 0.79802 0.0
C707 C 0.81989 0.36422 0.81139 0.0
C708 C 0.8121 0.38158 0.8095 0.0
C709 C 0.79916 0.38182 0.79426 0.0
C710 C 0.79409 0.36477 0.78083 0.0
C711 C 0.69941 0.23573 0.74264 0.0
C712 C 0.68328 0.245 0.7379 0.0
C713 C 0.72577 0.25203 0.74671 0.0
C714 C 0.73663 0.2779 0.74577 0.0
C715 C 0.72054 0.28718 0.74111 0.0
C716 C 0.6941 0.2709 0.73725 0.0
C717 C 0.76465 0.29529 0.75 0.0
C718 C 0.77092 0.31351 0.76285 0.0
C719 C 0.78502 0.29341 0.74201 0.0
C720 C 0.77991 0.27545 0.72772 0.0
C721 C 0.76654 0.27519 0.71242 0.0
C722 C 0.76158 0.25805 0.69909 0.0
C723 C 0.77005 0.24118 0.70086 0.0
C724 C 0.78357 0.24147 0.71595 0.0
C725 C 0.78856 0.25856 0.72932 0.0
H726 H 0.76618 0.22792 0.69053 0.0
H727 H 0.81604 0.3948 0.81987 0.0
H728 H 0.4506 0.88251 0.95279 0.0
H729 H 0.44736 0.84438 0.94255 0.0
H730 H 0.36778 0.8164 0.92602 0.0
H731 H 0.37111 0.85519 0.93575 0.0
H732 H 0.37968 0.78184 0.9466 0.0
H733 H 0.40638 0.83476 0.89503 0.0
H734 H 0.43349 0.87454 0.87919 0.0
H735 H 0.50288 0.87293 0.89126 0.0
H736 H 0.47622 0.83332 0.90741 0.0
H737 H 0.3855 0.68188 0.90815 0.0
H738 H 0.37618 0.71515 0.91224 0.0
H739 H 0.45931 0.76901 0.91451 0.0
H740 H 0.46859 0.73606 0.9093 0.0
H741 H 0.4382 0.78853 0.89761 0.0
H742 H 0.41661 0.74254 0.95251 0.0
H743 H 0.39345 0.70513 0.97142 0.0
H744 H 0.31945 0.69583 0.95664 0.0
H745 H 0.34218 0.73304 0.93748 0.0
C746 C 0.43246 0.86842 0.94681 0.0
C747 C 0.41127 0.87209 0.94475 0.0
C748 C 0.4306 0.84658 0.9411 0.0
C749 C 0.40746 0.82784 0.93337 0.0
C750 C 0.38581 0.83081 0.93193 0.0
C751 C 0.38773 0.85289 0.93752 0.0
C752 C 0.40664 0.80557 0.92648 0.0
C753 C 0.39195 0.783 0.93563 0.0
C754 C 0.42327 0.80753 0.91251 0.0
C755 C 0.43929 0.83112 0.9025 0.0
C756 C 0.42743 0.84296 0.8944 0.0
C757 C 0.44272 0.86547 0.88535 0.0
C758 C 0.46989 0.87627 0.88424 0.0
C759 C 0.48183 0.86454 0.89213 0.0
C760 C 0.46663 0.84204 0.9012 0.0
C761 C 0.40172 0.70089 0.90938 0.0
C762 C 0.42775 0.70649 0.90849 0.0
C763 C 0.3964 0.71985 0.91183 0.0
C764 C 0.41702 0.74457 0.91405 0.0
C765 C 0.44303 0.75013 0.9128 0.0
C766 C 0.44835 0.7313 0.90988 0.0
C767 C 0.41184 0.76472 0.91807 0.0
C768 C 0.42543 0.787 0.90836 0.0
C769 C 0.39472 0.76265 0.93185 0.0
C770 C 0.38106 0.74037 0.94341 0.0
C771 C 0.39539 0.73241 0.95321 0.0
C772 C 0.38234 0.71127 0.96398 0.0
C773 C 0.35499 0.69807 0.96518 0.0
C774 C 0.34063 0.70604 0.95566 0.0
C775 C 0.35358 0.72716 0.94485 0.0
H776 H 0.34493 0.6817 0.97353 0.0
H777 H 0.4817 0.89371 0.87724 0.0
H778 H 0.71855 0.55561 0.12016 0.0
H779 H 0.73728 0.53094 0.11077 0.0
H780 H 0.66899 0.48536 0.079 0.0
H781 H 0.65004 0.50993 0.08846 0.0
H782 H 0.6829 0.45743 0.0978 0.0
H783 H 0.72673 0.52962 0.06002 0.0
H784 H 0.75243 0.57465 0.05353 0.0
H785 H 0.81634 0.58192 0.08428 0.0
H786 H 0.79088 0.53698 0.09115 0.0
H787 H 0.73988 0.39572 0.05545 0.0
H788 H 0.71818 0.41883 0.06205 0.0
H789 H 0.78806 0.47491 0.08847 0.0
H790 H 0.81028 0.45278 0.08065 0.0
H791 H 0.77128 0.49701 0.07045 0.0
H792 H 0.72761 0.42635 0.11017 0.0
H793 H 0.70222 0.38167 0.11789 0.0
H794 H 0.63885 0.37177 0.08524 0.0
H795 H 0.66399 0.41634 0.07718 0.0
C796 C 0.70767 0.54052 0.11101 0.0
C797 C 0.68293 0.53477 0.10495 0.0
C798 C 0.71836 0.52642 0.10568 0.0
C799 C 0.70466 0.50653 0.09401 0.0
C800 C 0.67987 0.50065 0.088 0.0
C801 C 0.66909 0.51467 0.09342 0.0
C802 C 0.71613 0.4917 0.08828 0.0
C803 C 0.70209 0.46598 0.09159 0.0
C804 C 0.74135 0.50299 0.08053 0.0
C805 C 0.75682 0.52996 0.07619 0.0
C806 C 0.7462 0.54085 0.06548 0.0
C807 C 0.76074 0.56635 0.06172 0.0
C808 C 0.78598 0.58114 0.06851 0.0
C809 C 0.79678 0.57044 0.07903 0.0
C810 C 0.78232 0.54495 0.08284 0.0
C811 C 0.75047 0.41297 0.0627 0.0
C812 C 0.77666 0.42257 0.06756 0.0
C813 C 0.73804 0.42608 0.06659 0.0
C814 C 0.75127 0.44846 0.07606 0.0
C815 C 0.7774 0.45778 0.08111 0.0
C816 C 0.79008 0.44512 0.0767 0.0
C817 C 0.7384 0.46268 0.08036 0.0
C818 C 0.7521 0.48834 0.07666 0.0
C819 C 0.71299 0.45135 0.08795 0.0
C820 C 0.69778 0.42462 0.09295 0.0
C821 C 0.70832 0.41461 0.10457 0.0
C822 C 0.69396 0.38931 0.10901 0.0
C823 C 0.66897 0.37388 0.10202 0.0
C824 C 0.65823 0.38374 0.09063 0.0
C825 C 0.6725 0.40901 0.08613 0.0
H826 H 0.6579 0.3543 0.10546 0.0
H827 H 0.79719 0.60089 0.0656 0.0
H828 H 0.40683 0.90761 0.49487 0.0
H829 H 0.38593 0.86499 0.50613 0.0
H830 H 0.34163 0.8804 0.54342 0.0
H831 H 0.36321 0.92337 0.53269 0.0
H832 H 0.35901 0.85281 0.5584 0.0
H833 H 0.31342 0.84958 0.50577 0.0
H834 H 0.30902 0.85723 0.47446 0.0
H835 H 0.34294 0.81422 0.4593 0.0
H836 H 0.34789 0.8066 0.49054 0.0
H837 H 0.25957 0.7246 0.57462 0.0
H838 H 0.28418 0.76919 0.56753 0.0
H839 H 0.33213 0.75765 0.53089 0.0
H840 H 0.30766 0.71325 0.53779 0.0
H841 H 0.31209 0.78351 0.51617 0.0
H842 H 0.35707 0.78664 0.56954 0.0
H843 H 0.36052 0.77906 0.60102 0.0
H844 H 0.32595 0.82194 0.61499 0.0
H845 H 0.32197 0.8295 0.58357 0.0
C846 C 0.39294 0.90206 0.50565 0.0
C847 C 0.38656 0.91884 0.5128 0.0
C848 C 0.38083 0.87762 0.51196 0.0
C849 C 0.36193 0.86942 0.52543 0.0
C850 C 0.35606 0.8863 0.53296 0.0
C851 C 0.36822 0.91077 0.52669 0.0
C852 C 0.3478 0.84305 0.53134 0.0
C853 C 0.34847 0.83764 0.54921 0.0
C854 C 0.33432 0.82327 0.51931 0.0
C855 C 0.33126 0.82772 0.5005 0.0
C856 C 0.32013 0.84191 0.49576 0.0
C857 C 0.3175 0.84622 0.47803 0.0
C858 C 0.32575 0.83627 0.4649 0.0
C859 C 0.33659 0.82194 0.46948 0.0
C860 C 0.33929 0.8176 0.4872 0.0
C861 C 0.27559 0.73164 0.56523 0.0
C862 C 0.2816 0.71539 0.55671 0.0
C863 C 0.28966 0.75711 0.56123 0.0
C864 C 0.31 0.76671 0.54869 0.0
C865 C 0.31647 0.75061 0.54056 0.0
C866 C 0.30249 0.72524 0.54456 0.0
C867 C 0.32358 0.79322 0.5432 0.0
C868 C 0.32267 0.79866 0.52537 0.0
C869 C 0.33662 0.81295 0.5553 0.0
C870 C 0.33897 0.80841 0.57419 0.0
C871 C 0.34999 0.79426 0.57932 0.0
C872 C 0.35208 0.79001 0.59715 0.0
C873 C 0.34339 0.79995 0.60999 0.0
C874 C 0.33264 0.81422 0.60503 0.0
C875 C 0.33048 0.81851 0.58721 0.0
H876 H 0.34504 0.79665 0.62379 0.0
H877 H 0.3237 0.83962 0.45118 0.0
H878 H 0.61859 0.47547 0.66931 0.0
H879 H 0.62713 0.44298 0.67877 0.0
H880 H 0.55346 0.40569 0.70693 0.0
H881 H 0.54501 0.43823 0.69774 0.0
H882 H 0.59341 0.40582 0.72551 0.0
H883 H 0.55695 0.38699 0.66672 0.0
H884 H 0.55577 0.39624 0.63527 0.0
H885 H 0.63172 0.40561 0.62755 0.0
H886 H 0.6335 0.39677 0.65904 0.0
H887 H 0.56158 0.28122 0.73284 0.0
H888 H 0.56297 0.32006 0.72669 0.0
H889 H 0.63261 0.34568 0.69502 0.0
H890 H 0.63092 0.30654 0.70074 0.0
H891 H 0.59984 0.35456 0.67861 0.0
H892 H 0.6351 0.36966 0.73656 0.0
H893 H 0.63704 0.36092 0.76801 0.0
H894 H 0.56528 0.35941 0.77758 0.0
H895 H 0.56271 0.36781 0.74613 0.0
C896 C 0.60446 0.46056 0.67777 0.0
C897 C 0.58103 0.45922 0.68267 0.0
C898 C 0.60928 0.44197 0.68307 0.0
C899 C 0.59077 0.42182 0.69338 0.0
C900 C 0.56795 0.42106 0.69894 0.0
C901 C 0.56306 0.43953 0.69357 0.0
C902 C 0.5943 0.40071 0.69758 0.0
C903 C 0.59468 0.39449 0.71529 0.0
C904 C 0.59664 0.38639 0.68421 0.0
C905 C 0.59549 0.39151 0.66526 0.0
C906 C 0.57348 0.39122 0.65834 0.0
C907 C 0.57269 0.39635 0.64051 0.0
C908 C 0.59369 0.40158 0.62942 0.0
C909 C 0.61549 0.40161 0.63615 0.0
C910 C 0.6164 0.39653 0.65399 0.0
C911 C 0.57725 0.29516 0.72462 0.0
C912 C 0.59614 0.29083 0.71727 0.0
C913 C 0.57813 0.31744 0.72121 0.0
C914 C 0.59813 0.33597 0.71061 0.0
C915 C 0.61704 0.33168 0.70328 0.0
C916 C 0.61605 0.30932 0.70657 0.0
C917 C 0.59865 0.35936 0.7066 0.0
C918 C 0.59897 0.36602 0.6889 0.0
C919 C 0.59711 0.37416 0.72 0.0
C920 C 0.59862 0.36918 0.73895 0.0
C921 C 0.61963 0.36729 0.74534 0.0
C922 C 0.62086 0.36242 0.76318 0.0
C923 C 0.60127 0.35956 0.77478 0.0
C924 C 0.58043 0.36162 0.76857 0.0
C925 C 0.5791 0.36646 0.75075 0.0
H926 H 0.60225 0.35579 0.78858 0.0
H927 H 0.59305 0.40555 0.61562 0.0
H928 H 0.15216 0.45325 0.84641 0.0
H929 H 0.19645 0.46926 0.85759 0.0
H930 H 0.19516 0.53051 0.88179 0.0
H931 H 0.15047 0.51416 0.87132 0.0
H932 H 0.2384 0.54387 0.85859 0.0
H933 H 0.19259 0.48895 0.90754 0.0
H934 H 0.16152 0.44861 0.92152 0.0
H935 H 0.20484 0.41715 0.9006 0.0
H936 H 0.23597 0.45723 0.88628 0.0
H937 H 0.35577 0.60356 0.9044 0.0
H938 H 0.30927 0.58101 0.89737 0.0
H939 H 0.31314 0.51661 0.88311 0.0
H940 H 0.35983 0.53894 0.8908 0.0
H941 H 0.26849 0.50281 0.90022 0.0
H942 H 0.31412 0.55607 0.85138 0.0
H943 H 0.34533 0.59545 0.83632 0.0
H944 H 0.30243 0.62855 0.85497 0.0
H945 H 0.27115 0.58946 0.87035 0.0
C946 C 0.16099 0.46978 0.85448 0.0
C947 C 0.1478 0.48252 0.85787 0.0
C948 C 0.18633 0.47893 0.86078 0.0
C949 C 0.19893 0.50102 0.87047 0.0
C950 C 0.18568 0.51345 0.87426 0.0
C951 C 0.16025 0.50418 0.86815 0.0
C952 C 0.22664 0.5122 0.87553 0.0
C953 C 0.24499 0.53509 0.86787 0.0
C954 C 0.23515 0.50013 0.88707 0.0
C955 C 0.21644 0.47602 0.89567 0.0
C956 C 0.19535 0.47336 0.90577 0.0
C957 C 0.17776 0.45056 0.91379 0.0
C958 C 0.18116 0.43031 0.91191 0.0
C959 C 0.2022 0.43284 0.90203 0.0
C960 C 0.21984 0.45561 0.89397 0.0
C961 C 0.34675 0.58457 0.89982 0.0
C962 C 0.36148 0.57309 0.89791 0.0
C963 C 0.32017 0.57172 0.89577 0.0
C964 C 0.30791 0.54736 0.88932 0.0
C965 C 0.32231 0.53548 0.88797 0.0
C966 C 0.34893 0.54824 0.89231 0.0
C967 C 0.28028 0.53479 0.88352 0.0
C968 C 0.26196 0.51159 0.89091 0.0
C969 C 0.27176 0.54638 0.87149 0.0
C970 C 0.2904 0.56988 0.86213 0.0
C971 C 0.31143 0.57179 0.85236 0.0
C972 C 0.32913 0.59406 0.84376 0.0
C973 C 0.3259 0.6145 0.84472 0.0
C974 C 0.30492 0.6127 0.85425 0.0
C975 C 0.28718 0.59049 0.86289 0.0
H976 H 0.33963 0.63173 0.83806 0.0
H977 H 0.16752 0.41267 0.91813 0.0
H978 H 0.55223 0.12301 0.99117 0.0
H979 H 0.58643 0.16199 0.00396 0.0
H980 H 0.54245 0.14373 0.05255 0.0
H981 H 0.5082 0.10425 0.03981 0.0
H982 H 0.58859 0.2021 0.01721 0.0
H983 H 0.58825 0.16397 0.08639 0.0
H984 H 0.57499 0.12389 0.10096 0.0
H985 H 0.58655 0.0958 0.05255 0.0
H986 H 0.60021 0.13579 0.03779 0.0
H987 H 0.68903 0.30553 0.06134 0.0
H988 H 0.64575 0.26836 0.05695 0.0
H989 H 0.681 0.22332 0.05511 0.0
H990 H 0.72404 0.26023 0.0605 0.0
H991 H 0.63544 0.19731 0.06956 0.0
H992 H 0.66826 0.24835 0.01689 0.0
H993 H 0.68495 0.28699 -0.00051 0.0
H994 H 0.61411 0.28678 0.01009 0.0
H995 H 0.59713 0.24826 0.02772 0.0
C996 C 0.54977 0.12739 0.00454 0.0
C997 C 0.52775 0.11055 0.01458 0.0
C998 C 0.56921 0.14972 0.0118 0.0
C999 C 0.5671 0.15562 0.02926 0.0
C1000 C 0.54455 0.13938 0.0391 0.0
C1001 C 0.52496 0.11697 0.03179 0.0
C1002 C 0.58936 0.17814 0.03723 0.0
C1003 C 0.59864 0.20113 0.02879 0.0
C1004 C 0.60273 0.17675 0.05215 0.0
C1005 C 0.59488 0.15274 0.06096 0.0
C1006 C 0.588 0.14924 0.07889 0.0
C1007 C 0.58043 0.12655 0.08717 0.0
C1008 C 0.57982 0.10727 0.07767 0.0
C1009 C 0.58691 0.1107 0.05988 0.0
C1010 C 0.59454 0.13336 0.05155 0.0
C1011 C 0.68742 0.28761 0.0603 0.0
C1012 C 0.70985 0.28573 0.06104 0.0
C1013 C 0.66271 0.2664 0.05773 0.0
C1014 C 0.66017 0.24311 0.05523 0.0
C1015 C 0.68243 0.24107 0.05694 0.0
C1016 C 0.70704 0.26218 0.05996 0.0
C1017 C 0.63494 0.22131 0.04939 0.0
C1018 C 0.62506 0.19844 0.05823 0.0
C1019 C 0.62148 0.22261 0.03445 0.0
C1020 C 0.63157 0.24562 0.02376 0.0
C1021 C 0.65632 0.25663 0.01558 0.0
C1022 C 0.66582 0.27849 0.00567 0.0
C1023 C 0.65063 0.28937 0.00373 0.0
C1024 C 0.62587 0.27836 0.01164 0.0
C1025 C 0.6163 0.25652 0.02157 0.0
H1026 H 0.65802 0.3063 -0.00394 0.0
H1027 H 0.57391 0.08971 0.08411 0.0
H1028 H 0.53383 0.64026 0.18143 0.0
H1029 H 0.51559 0.66453 0.1926 0.0
H1030 H 0.59157 0.73162 0.18841 0.0
H1031 H 0.60983 0.70786 0.1763 0.0
H1032 H 0.56147 0.7232 0.22202 0.0
H1033 H 0.55465 0.72596 0.15869 0.0
H1034 H 0.54187 0.70703 0.12928 0.0
H1035 H 0.46119 0.66503 0.14565 0.0
H1036 H 0.47356 0.68342 0.17527 0.0
H1037 H 0.52367 0.81281 0.2319 0.0
H1038 H 0.54325 0.78857 0.22317 0.0
H1039 H 0.46644 0.72637 0.21064 0.0
H1040 H 0.44698 0.7509 0.21862 0.0
H1041 H 0.49776 0.73209 0.18566 0.0
H1042 H 0.50247 0.72821 0.24835 0.0
H1043 H 0.51361 0.74445 0.27857 0.0
H1044 H 0.59544 0.78524 0.26494 0.0
H1045 H 0.58476 0.76949 0.23456 0.0
C1046 C 0.54668 0.66021 0.18265 0.0
C1047 C 0.57333 0.67206 0.17781 0.0
C1048 C 0.53623 0.67398 0.1892 0.0
C1049 C 0.55228 0.69979 0.19129 0.0
C1050 C 0.57897 0.71166 0.18697 0.0
C1051 C 0.58936 0.69798 0.18013 0.0
C1052 C 0.54093 0.71449 0.19739 0.0
C1053 C 0.54777 0.72547 0.21405 0.0
C1054 C 0.52257 0.71674 0.1871 0.0
C1055 C 0.51507 0.70586 0.16925 0.0
C1056 C 0.53421 0.71251 0.15607 0.0
C1057 C 0.52704 0.70192 0.13935 0.0
C1058 C 0.50075 0.68478 0.13561 0.0
C1059 C 0.48156 0.67827 0.14857 0.0
C1060 C 0.48863 0.68878 0.16532 0.0
C1061 C 0.51097 0.79389 0.22742 0.0
C1062 C 0.48381 0.78374 0.22592 0.0
C1063 C 0.52216 0.77999 0.22251 0.0
C1064 C 0.50631 0.7555 0.21641 0.0
C1065 C 0.47911 0.74523 0.21525 0.0
C1066 C 0.46799 0.75924 0.21986 0.0
C1067 C 0.51809 0.7409 0.21049 0.0
C1068 C 0.51138 0.7299 0.19377 0.0
C1069 C 0.53629 0.73835 0.22087 0.0
C1070 C 0.54279 0.74787 0.23913 0.0
C1071 C 0.52282 0.7408 0.25176 0.0
C1072 C 0.52906 0.74989 0.26892 0.0
C1073 C 0.55521 0.76592 0.27366 0.0
C1074 C 0.57519 0.77285 0.26125 0.0
C1075 C 0.56906 0.76383 0.24406 0.0
H1076 H 0.56 0.77293 0.28696 0.0
H1077 H 0.49523 0.6766 0.12266 0.0
H1078 H 0.92823 0.50121 0.36288 0.0
H1079 H 0.88702 0.49696 0.37236 0.0
H1080 H 0.84563 0.44141 0.33254 0.0
H1081 H 0.88715 0.44613 0.32264 0.0
H1082 H 0.83229 0.47605 0.33193 0.0
H1083 H 0.83801 0.42497 0.37584 0.0
H1084 H 0.85857 0.41332 0.39904 0.0
H1085 H 0.86881 0.47396 0.43088 0.0
H1086 H 0.84864 0.48622 0.40776 0.0
H1087 H 0.70768 0.44742 0.3666 0.0
H1088 H 0.74496 0.44411 0.35717 0.0
H1089 H 0.79619 0.50573 0.39051 0.0
H1090 H 0.75906 0.50936 0.39994 0.0
H1091 H 0.80172 0.46372 0.39399 0.0
H1092 H 0.79869 0.5161 0.34862 0.0
H1093 H 0.77775 0.52712 0.32528 0.0
H1094 H 0.76157 0.46233 0.29613 0.0
H1095 H 0.78209 0.45072 0.31945 0.0
C1096 C 0.91033 0.48799 0.3562 0.0
C1097 C 0.9109 0.4741 0.34195 0.0
C1098 C 0.88676 0.48542 0.36173 0.0
C1099 C 0.86321 0.46873 0.35325 0.0
C1100 C 0.86358 0.45435 0.33929 0.0
C1101 C 0.88724 0.45691 0.33374 0.0
C1102 C 0.83863 0.46762 0.35833 0.0
C1103 C 0.82529 0.47283 0.34544 0.0
C1104 C 0.82982 0.46392 0.37602 0.0
C1105 C 0.84198 0.45663 0.38998 0.0
C1106 C 0.84483 0.43596 0.38772 0.0
C1107 C 0.85638 0.42921 0.40088 0.0
C1108 C 0.86504 0.44292 0.41641 0.0
C1109 C 0.86211 0.46337 0.41883 0.0
C1110 C 0.85059 0.4702 0.40572 0.0
C1111 C 0.72689 0.46034 0.37189 0.0
C1112 C 0.73043 0.47867 0.38402 0.0
C1113 C 0.74815 0.45844 0.36646 0.0
C1114 C 0.77326 0.4747 0.37314 0.0
C1115 C 0.7769 0.493 0.38524 0.0
C1116 C 0.7557 0.49511 0.39054 0.0
C1117 C 0.79574 0.47248 0.36765 0.0
C1118 C 0.80863 0.46665 0.38047 0.0
C1119 C 0.80402 0.47545 0.34989 0.0
C1120 C 0.79164 0.48238 0.33588 0.0
C1121 C 0.79043 0.50407 0.33732 0.0
C1122 C 0.77869 0.51045 0.32408 0.0
C1123 C 0.76826 0.49539 0.30926 0.0
C1124 C 0.76961 0.47395 0.30764 0.0
C1125 C 0.78131 0.46747 0.32086 0.0
H1126 H 0.75919 0.50038 0.29902 0.0
H1127 H 0.87397 0.43767 0.42658 0.0
H1128 H 0.03035 0.54803 0.40415 0.0
H1129 H 0.05227 0.56302 0.43253 0.0
H1130 H 0.08409 0.51536 0.4281 0.0
H1131 H 0.06252 0.50049 0.39977 0.0
H1132 H 0.07106 0.51852 0.46222 0.0
H1133 H 0.1187 0.57333 0.41371 0.0
H1134 H 0.12373 0.5994 0.3879 0.0
H1135 H 0.10861 0.64645 0.42025 0.0
H1136 H 0.10286 0.62028 0.44622 0.0
H1137 H 0.19083 0.58239 0.50874 0.0
H1138 H 0.15815 0.56373 0.4854 0.0
H1139 H 0.12939 0.61212 0.4983 0.0
H1140 H 0.16191 0.63076 0.52182 0.0
H1141 H 0.13743 0.60904 0.4617 0.0
H1142 H 0.09428 0.5552 0.51112 0.0
H1143 H 0.09039 0.52863 0.53634 0.0
H1144 H 0.09923 0.47967 0.50169 0.0
H1145 H 0.1036 0.50618 0.47628 0.0
C1146 C 0.04165 0.54045 0.40939 0.0
C1147 C 0.04488 0.52324 0.39966 0.0
C1148 C 0.0541 0.54898 0.42559 0.0
C1149 C 0.0701 0.54056 0.43224 0.0
C1150 C 0.07179 0.52205 0.4232 0.0
C1151 C 0.05935 0.51351 0.40702 0.0
C1152 C 0.08732 0.55283 0.44753 0.0
C1153 C 0.08562 0.53828 0.46211 0.0
C1154 C 0.10613 0.57867 0.4474 0.0
C1155 C 0.11004 0.59468 0.43187 0.0
C1156 C 0.11625 0.58913 0.4153 0.0
C1157 C 0.11925 0.60392 0.40064 0.0
C1158 C 0.11646 0.62455 0.40243 0.0
C1159 C 0.11072 0.63044 0.41889 0.0
C1160 C 0.10756 0.61562 0.43358 0.0
C1161 C 0.17761 0.58914 0.50657 0.0
C1162 C 0.17885 0.608 0.51712 0.0
C1163 C 0.1589 0.57837 0.4933 0.0
C1164 C 0.14125 0.5864 0.49029 0.0
C1165 C 0.14281 0.60563 0.5005 0.0
C1166 C 0.16134 0.61623 0.51393 0.0
C1167 C 0.12127 0.5747 0.47635 0.0
C1168 C 0.12258 0.58935 0.46196 0.0
C1169 C 0.10233 0.54892 0.47658 0.0
C1170 C 0.09949 0.53281 0.49181 0.0
C1171 C 0.09561 0.53888 0.50889 0.0
C1172 C 0.09328 0.52381 0.52322 0.0
C1173 C 0.09462 0.5025 0.52063 0.0
C1174 C 0.09822 0.49619 0.50369 0.0
C1175 C 0.1006 0.51122 0.48931 0.0
H1176 H 0.09282 0.49086 0.53174 0.0
H1177 H 0.1188 0.63599 0.39106 0.0
H1178 H 0.43385 0.0791 0.56469 0.0
H1179 H 0.45246 0.09957 0.59262 0.0
H1180 H 0.46355 0.03948 0.60788 0.0
H1181 H 0.44432 0.01847 0.57998 0.0
H1182 H 0.45009 0.05942 0.63641 0.0
H1183 H 0.51175 0.08634 0.58878 0.0
H1184 H 0.52817 0.10181 0.55879 0.0
H1185 H 0.52814 0.1688 0.56949 0.0
H1186 H 0.51113 0.15347 0.59944 0.0
H1187 H 0.58187 0.16634 0.67646 0.0
H1188 H 0.55691 0.13665 0.65319 0.0
H1189 H 0.48626 0.13259 0.67145 0.0
H1190 H 0.51101 0.16205 0.69486 0.0
H1191 H 0.53116 0.14164 0.62659 0.0
H1192 H 0.43383 0.07424 0.66351 0.0
H1193 H 0.41912 0.05699 0.69341 0.0
H1194 H 0.49508 0.06822 0.70445 0.0
H1195 H 0.51013 0.0852 0.67455 0.0
C1196 C 0.43928 0.06971 0.57425 0.0
C1197 C 0.43771 0.04719 0.57013 0.0
C1198 C 0.45013 0.08156 0.59013 0.0
C1199 C 0.45972 0.07119 0.60213 0.0
C1200 C 0.45631 0.04778 0.59873 0.0
C1201 C 0.44547 0.03589 0.58278 0.0
C1202 C 0.47597 0.08614 0.6171 0.0
C1203 C 0.46778 0.07742 0.63433 0.0
C1204 C 0.49946 0.10926 0.61427 0.0
C1205 C 0.50995 0.11866 0.59631 0.0
C1206 C 0.51504 0.10428 0.5847 0.0
C1207 C 0.52447 0.11303 0.56771 0.0
C1208 C 0.52921 0.13628 0.56224 0.0
C1209 C 0.52449 0.15081 0.57375 0.0
C1210 C 0.51493 0.14209 0.59073 0.0
C1211 C 0.56099 0.15902 0.67558 0.0
C1212 C 0.5484 0.16656 0.68746 0.0
C1213 C 0.54678 0.14208 0.66228 0.0
C1214 C 0.51971 0.13227 0.66069 0.0
C1215 C 0.50706 0.13964 0.67261 0.0
C1216 C 0.52126 0.15659 0.68591 0.0
C1217 C 0.50496 0.11532 0.64603 0.0
C1218 C 0.51348 0.12366 0.62877 0.0
C1219 C 0.48212 0.09166 0.64888 0.0
C1220 C 0.47316 0.08122 0.66684 0.0
C1221 C 0.44736 0.07293 0.67229 0.0
C1222 C 0.43897 0.06322 0.68925 0.0
C1223 C 0.45618 0.06159 0.70084 0.0
C1224 C 0.4818 0.06959 0.69549 0.0
C1225 C 0.49028 0.0793 0.67854 0.0
H1226 H 0.44965 0.05407 0.71396 0.0
H1227 H 0.53651 0.14303 0.54909 0.0
H1228 H 0.56249 0.6267 0.7208 0.0
H1229 H 0.55672 0.64014 0.74965 0.0
H1230 H 0.4757 0.61333 0.73764 0.0
H1231 H 0.48132 0.59969 0.7087 0.0
H1232 H 0.53941 0.66881 0.76526 0.0
H1233 H 0.43992 0.57757 0.77205 0.0
H1234 H 0.41579 0.53612 0.75826 0.0
H1235 H 0.48857 0.54107 0.74566 0.0
H1236 H 0.51306 0.58231 0.75964 0.0
H1237 H 0.47536 0.66339 0.84631 0.0
H1238 H 0.48822 0.66387 0.81575 0.0
H1239 H 0.50577 0.60691 0.82779 0.0
H1240 H 0.49253 0.60598 0.85836 0.0
H1241 H 0.47505 0.59469 0.79992 0.0
H1242 H 0.55458 0.66676 0.81905 0.0
H1243 H 0.58188 0.70789 0.83274 0.0
H1244 H 0.55481 0.74037 0.79487 0.0
H1245 H 0.52705 0.69935 0.78109 0.0
C1246 C 0.54369 0.62445 0.72405 0.0
C1247 C 0.52222 0.61185 0.71264 0.0
C1248 C 0.54044 0.63216 0.74054 0.0
C1249 C 0.51571 0.62734 0.74583 0.0
C1250 C 0.49487 0.61691 0.73382 0.0
C1251 C 0.49806 0.60905 0.71737 0.0
C1252 C 0.51082 0.62954 0.7646 0.0
C1253 C 0.52521 0.65271 0.77286 0.0
C1254 C 0.49284 0.60832 0.77454 0.0
C1255 C 0.47828 0.5831 0.76674 0.0
C1256 C 0.45074 0.56971 0.76644 0.0
C1257 C 0.43701 0.54628 0.75858 0.0
C1258 C 0.45064 0.53601 0.75104 0.0
C1259 C 0.47803 0.54907 0.75146 0.0
C1260 C 0.49184 0.57246 0.75936 0.0
C1261 C 0.48226 0.65116 0.84254 0.0
C1262 C 0.48275 0.6345 0.85476 0.0
C1263 C 0.48971 0.65155 0.82506 0.0
C1264 C 0.498 0.63547 0.81953 0.0
C1265 C 0.49935 0.61942 0.83181 0.0
C1266 C 0.49184 0.61896 0.84928 0.0
C1267 C 0.50347 0.63408 0.80071 0.0
C1268 C 0.48913 0.61093 0.79239 0.0
C1269 C 0.5219 0.65524 0.79087 0.0
C1270 C 0.53853 0.67992 0.79915 0.0
C1271 C 0.55427 0.68263 0.81374 0.0
C1272 C 0.56987 0.70593 0.82149 0.0
C1273 C 0.57003 0.72672 0.81471 0.0
C1274 C 0.55464 0.72425 0.80013 0.0
C1275 C 0.53899 0.70098 0.79233 0.0
H1276 H 0.58212 0.74474 0.82073 0.0
H1277 H 0.43998 0.5179 0.7449 0.0
H1278 H 0.89431 0.39399 0.87003 0.0
H1279 H 0.871 0.38194 0.89826 0.0
H1280 H 0.91438 0.3475 0.91394 0.0
H1281 H 0.93772 0.35944 0.88567 0.0
H1282 H 0.86224 0.32156 0.92635 0.0
H1283 H 0.9373 0.40442 0.92588 0.0
H1284 H 0.96568 0.44677 0.91385 0.0
H1285 H 0.90314 0.46117 0.91974 0.0
H1286 H 0.87422 0.41871 0.93152 0.0
H1287 H 0.8402 0.32973 0.01876 0.0
H1288 H 0.85981 0.33138 0.98999 0.0
H1289 H 0.82935 0.37545 0.96929 0.0
H1290 H 0.81073 0.37465 -0.002 0.0
H1291 H 0.87808 0.39543 0.96017 0.0
H1292 H 0.80238 0.31119 0.95993 0.0
H1293 H 0.77453 0.26849 0.97157 0.0
H1294 H 0.83906 0.25667 0.96752 0.0
H1295 H 0.86738 0.29941 0.95604 0.0
C1296 C 0.89846 0.3834 0.87936 0.0
C1297 C 0.91793 0.37782 0.87576 0.0
C1298 C 0.88515 0.37652 0.89544 0.0
C1299 C 0.89133 0.36422 0.90826 0.0
C1300 C 0.90936 0.35699 0.90421 0.0
C1301 C 0.92262 0.36377 0.88806 0.0
C1302 C 0.88116 0.3615 0.92642 0.0
C1303 C 0.86586 0.33767 0.93387 0.0
C1304 C 0.886 0.38257 0.93617 0.0
C1305 C 0.90353 0.40831 0.92945 0.0
C1306 C 0.92955 0.41657 0.92451 0.0
C1307 C 0.94574 0.44059 0.91774 0.0
C1308 C 0.9362 0.45664 0.916 0.0
C1309 C 0.91049 0.44871 0.92108 0.0
C1310 C 0.89419 0.42467 0.92782 0.0
C1311 C 0.83765 0.33966 0.00802 0.0
C1312 C 0.82407 0.35216 0.01062 0.0
C1313 C 0.84872 0.34048 -0.00843 0.0
C1314 C 0.84588 0.35338 0.97741 0.0
C1315 C 0.83192 0.36548 0.98001 0.0
C1316 C 0.82125 0.36498 -0.00357 0.0
C1317 C 0.8582 0.35535 0.96001 0.0
C1318 C 0.8743 0.37921 0.95273 0.0
C1319 C 0.85414 0.33429 0.95053 0.0
C1320 C 0.83705 0.30856 0.9573 0.0
C1321 C 0.81067 0.29953 0.96164 0.0
C1322 C 0.7948 0.27532 0.96819 0.0
C1323 C 0.80504 0.2599 0.97033 0.0
C1324 C 0.83116 0.26864 0.96588 0.0
C1325 C 0.84712 0.29284 0.95934 0.0
H1326 H 0.79272 0.24116 0.97541 0.0
H1327 H 0.94876 0.47523 0.91075 0.0
H1328 H 0.44836 0.99255 0.08261 0.0
H1329 H 0.45261 0.97624 0.11074 0.0
H1330 H 0.50641 0.95807 0.08717 0.0
H1331 H 0.50038 0.97204 0.05875 0.0
H1332 H 0.47327 0.9208 0.10429 0.0
H1333 H 0.52504 0.00668 0.11857 0.0
H1334 H 0.53615 0.05016 0.12137 0.0
H1335 H 0.47192 0.02712 0.15739 0.0
H1336 H 0.46015 0.98343 0.15462 0.0
H1337 H 0.50648 0.89136 0.18876 0.0
H1338 H 0.51316 0.91874 0.16353 0.0
H1339 H 0.43462 0.90422 0.17005 0.0
H1340 H 0.42746 0.87621 0.1948 0.0
H1341 H 0.4848 0.96027 0.16263 0.0
H1342 H 0.43056 0.87303 0.14244 0.0
H1343 H 0.42247 0.83048 0.13986 0.0
H1344 H 0.49761 0.85942 0.11498 0.0
H1345 H 0.50625 0.90219 0.11768 0.0
C1346 C 0.46105 0.98503 0.08335 0.0
C1347 C 0.47388 0.98356 0.06825 0.0
C1348 C 0.46383 0.97608 0.09958 0.0
C1349 C 0.48005 0.96611 0.10118 0.0
C1350 C 0.49378 0.96567 0.08631 0.0
C1351 C 0.49056 0.97405 0.07004 0.0
C1352 C 0.48088 0.95405 0.11784 0.0
C1353 C 0.47632 0.92978 0.11695 0.0
C1354 C 0.48453 0.96545 0.1345 0.0
C1355 C 0.49158 0.99173 0.13627 0.0
C1356 C 0.51315 0.01085 0.12699 0.0
C1357 C 0.51959 0.03554 0.12859 0.0
C1358 C 0.50472 0.04139 0.13952 0.0
C1359 C 0.48341 0.02256 0.14892 0.0
C1360 C 0.47686 0.99783 0.14735 0.0
C1361 C 0.49078 0.89425 0.18489 0.0
C1362 C 0.4664 0.88156 0.19356 0.0
C1363 C 0.49465 0.9099 0.17058 0.0
C1364 C 0.47439 0.91348 0.1651 0.0
C1365 C 0.45047 0.90174 0.17424 0.0
C1366 C 0.44638 0.88564 0.18823 0.0
C1367 C 0.47712 0.92741 0.14878 0.0
C1368 C 0.4822 0.95178 0.14981 0.0
C1369 C 0.47445 0.9164 0.1322 0.0
C1370 C 0.46918 0.89075 0.13047 0.0
C1371 C 0.44545 0.87031 0.13659 0.0
C1372 C 0.44074 0.84617 0.13507 0.0
C1373 C 0.45956 0.84226 0.12732 0.0
C1374 C 0.48308 0.86248 0.12102 0.0
C1375 C 0.48789 0.88667 0.12254 0.0
H1376 H 0.45587 0.82355 0.12614 0.0
H1377 H 0.50974 0.06052 0.14074 0.0
H1378 H 0.57928 0.54005 0.22369 0.0
H1379 H 0.5781 0.52549 0.25365 0.0
H1380 H 0.6144 0.60099 0.27244 0.0
H1381 H 0.61645 0.6157 0.2422 0.0
H1382 H 0.64107 0.58201 0.28259 0.0
H1383 H 0.55022 0.55347 0.28506 0.0
H1384 H 0.50436 0.5323 0.27501 0.0
H1385 H 0.50066 0.46223 0.27527 0.0
H1386 H 0.54662 0.48302 0.28507 0.0
H1387 H 0.64687 0.53988 0.3678 0.0
H1388 H 0.63344 0.55673 0.34384 0.0
H1389 H 0.60333 0.48803 0.31537 0.0
H1390 H 0.61624 0.47073 0.33948 0.0
H1391 H 0.57072 0.50674 0.31309 0.0
H1392 H 0.66354 0.5373 0.306 0.0
H1393 H 0.70959 0.55873 0.31574 0.0
H1394 H 0.70873 0.62582 0.32409 0.0
H1395 H 0.66255 0.60467 0.3146 0.0
C1396 C 0.58624 0.55342 0.2343 0.0
C1397 C 0.59801 0.57897 0.23073 0.0
C1398 C 0.58546 0.54508 0.25145 0.0
C1399 C 0.59597 0.56211 0.26536 0.0
C1400 C 0.60619 0.58752 0.26191 0.0
C1401 C 0.60735 0.59591 0.2447 0.0
C1402 C 0.59988 0.55385 0.28277 0.0
C1403 C 0.62546 0.56595 0.28949 0.0
C1404 C 0.5797 0.5325 0.29156 0.0
C1405 C 0.55197 0.51986 0.28573 0.0
C1406 C 0.5397 0.53358 0.28286 0.0
C1407 C 0.51367 0.52163 0.27723 0.0
C1408 C 0.49962 0.49595 0.27448 0.0
C1409 C 0.51156 0.48213 0.2774 0.0
C1410 C 0.5376 0.49398 0.28303 0.0
C1411 C 0.63736 0.52829 0.35646 0.0
C1412 C 0.63291 0.50405 0.35545 0.0
C1413 C 0.62964 0.53795 0.34281 0.0
C1414 C 0.61766 0.52371 0.32779 0.0
C1415 C 0.61254 0.49928 0.3269 0.0
C1416 C 0.6201 0.48951 0.34062 0.0
C1417 C 0.61184 0.53475 0.31257 0.0
C1418 C 0.58603 0.52312 0.30631 0.0
C1419 C 0.63174 0.5566 0.30417 0.0
C1420 C 0.65953 0.56933 0.30979 0.0
C1421 C 0.67312 0.55657 0.31004 0.0
C1422 C 0.69925 0.56867 0.31549 0.0
C1423 C 0.71206 0.5936 0.32058 0.0
C1424 C 0.69878 0.6065 0.32018 0.0
C1425 C 0.67264 0.59447 0.31475 0.0
H1426 H 0.73228 0.60294 0.3248 0.0
H1427 H 0.47947 0.48674 0.27011 0.0
H1428 H 0.47947 0.99647 0.40254 0.0
H1429 H 0.48296 0.97532 0.37674 0.0
H1430 H 0.4252 0.90434 0.39907 0.0
H1431 H 0.42156 0.92551 0.42511 0.0
H1432 H 0.47343 0.90847 0.3815 0.0
H1433 H 0.40213 0.92317 0.3718 0.0
H1434 H 0.38294 0.94973 0.37157 0.0
H1435 H 0.44134 -0.00086 0.33432 0.0
H1436 H 0.46112 0.97306 0.33453 0.0
H1437 H 0.44237 0.84084 0.30051 0.0
H1438 H 0.44504 0.85827 0.32971 0.0
H1439 H 0.47721 0.93133 0.30636 0.0
H1440 H 0.47272 0.91349 0.27715 0.0
H1441 H 0.4405 0.92414 0.32599 0.0
H1442 H 0.51275 0.91202 0.3347 0.0
H1443 H 0.53577 0.88887 0.33544 0.0
H1444 H 0.48111 0.83861 0.37415 0.0
H1445 H 0.45755 0.86128 0.37347 0.0
C1446 C 0.46785 0.97633 0.40212 0.0
C1447 C 0.45028 0.96259 0.41582 0.0
C1448 C 0.46983 0.96431 0.38737 0.0
C1449 C 0.45436 0.93834 0.38608 0.0
C1450 C 0.43738 0.92442 0.39994 0.0
C1451 C 0.43517 0.9365 0.41468 0.0
C1452 C 0.45459 0.9262 0.36956 0.0
C1453 C 0.46594 0.9115 0.36934 0.0
C1454 C 0.44546 0.93089 0.35374 0.0
C1455 C 0.43322 0.94627 0.3533 0.0
C1456 C 0.41098 0.93979 0.36365 0.0
C1457 C 0.39998 0.95474 0.36351 0.0
C1458 C 0.41095 0.97614 0.35297 0.0
C1459 C 0.43288 0.98257 0.34249 0.0
C1460 C 0.44397 0.96769 0.3426 0.0
C1461 C 0.45057 0.8607 0.30175 0.0
C1462 C 0.45734 0.8759 0.2867 0.0
C1463 C 0.45218 0.8707 0.31844 0.0
C1464 C 0.46142 0.89621 0.32033 0.0
C1465 C 0.46979 0.91158 0.30528 0.0
C1466 C 0.46741 0.90146 0.28861 0.0
C1467 C 0.45995 0.90656 0.33758 0.0
C1468 C 0.44813 0.92092 0.33801 0.0
C1469 C 0.46912 0.90188 0.35349 0.0
C1470 C 0.48323 0.8882 0.35389 0.0
C1471 C 0.50551 0.89591 0.34326 0.0
C1472 C 0.51869 0.8829 0.34369 0.0
C1473 C 0.50987 0.86224 0.3548 0.0
C1474 C 0.4879 0.85459 0.36553 0.0
C1475 C 0.47464 0.86753 0.36514 0.0
H1476 H 0.52009 0.8522 0.35511 0.0
H1477 H 0.40243 0.98772 0.35289 0.0
H1478 H 0.5668 0.57231 0.54616 0.0
H1479 H 0.57898 0.56055 0.5187 0.0
H1480 H 0.53 0.483 0.53294 0.0
H1481 H 0.51874 0.49451 0.56058 0.0
H1482 H 0.57855 0.49457 0.5259 0.0
H1483 H 0.51433 0.50853 0.49871 0.0
H1484 H 0.49376 0.5327 0.49109 0.0
H1485 H 0.56476 0.58799 0.46543 0.0
H1486 H 0.58588 0.56429 0.4731 0.0
H1487 H 0.57316 0.45598 0.42941 0.0
H1488 H 0.55843 0.47165 0.4533 0.0
H1489 H 0.63562 0.50725 0.47623 0.0
H1490 H 0.65049 0.49128 0.45243 0.0
H1491 H 0.57376 0.51807 0.46421 0.0
H1492 H 0.62794 0.50325 0.52108 0.0
H1493 H 0.64615 0.47701 0.5287 0.0
H1494 H 0.58999 0.41922 0.49506 0.0
H1495 H 0.57122 0.44498 0.48744 0.0
C1496 C 0.55832 0.55275 0.54328 0.0
C1497 C 0.5419 0.53437 0.55559 0.0
C1498 C 0.56515 0.54606 0.52755 0.0
C1499 C 0.55546 0.52091 0.52386 0.0
C1500 C 0.53774 0.50252 0.53559 0.0
C1501 C 0.53105 0.50916 0.5513 0.0
C1502 C 0.56573 0.51366 0.50881 0.0
C1503 C 0.57748 0.49972 0.51241 0.0
C1504 C 0.56445 0.5205 0.49126 0.0
C1505 C 0.55176 0.53475 0.48664 0.0
C1506 C 0.52563 0.52594 0.49157 0.0
C1507 C 0.51385 0.53954 0.48722 0.0
C1508 C 0.52796 0.5619 0.47782 0.0
C1509 C 0.55386 0.57068 0.47273 0.0
C1510 C 0.56574 0.55716 0.47706 0.0
C1511 C 0.58703 0.46711 0.43955 0.0
C1512 C 0.61293 0.47225 0.43915 0.0
C1513 C 0.57861 0.4762 0.4531 0.0
C1514 C 0.59591 0.49052 0.46652 0.0
C1515 C 0.62192 0.49602 0.46605 0.0
C1516 C 0.63035 0.48685 0.4525 0.0
C1517 C 0.58623 0.49875 0.48134 0.0
C1518 C 0.57486 0.51304 0.47773 0.0
C1519 C 0.58751 0.49197 0.49891 0.0
C1520 C 0.59841 0.47617 0.50353 0.0
C1521 C 0.61944 0.48492 0.51535 0.0
C1522 C 0.62986 0.47013 0.51967 0.0
C1523 C 0.6193 0.44651 0.51232 0.0
C1524 C 0.59822 0.43757 0.50069 0.0
C1525 C 0.58771 0.45226 0.49635 0.0
H1526 H 0.62741 0.4351 0.51566 0.0
H1527 H 0.51881 0.57239 0.47446 0.0
H1528 H 0.02647 0.45803 0.71164 0.0
H1529 H 0.0493 0.48083 0.68478 0.0
H1530 H 0.09809 0.5466 0.7155 0.0
H1531 H 0.07469 0.52407 0.74224 0.0
H1532 H 0.08733 0.55968 0.68513 0.0
H1533 H 0.11897 0.50682 0.70327 0.0
H1534 H 0.11511 0.46723 0.71209 0.0
H1535 H 0.08111 0.43558 0.66205 0.0
H1536 H 0.08442 0.47489 0.65303 0.0
H1537 H 0.19263 0.61598 0.62098 0.0
H1538 H 0.16566 0.59877 0.64766 0.0
H1539 H 0.11159 0.53234 0.6193 0.0
H1540 H 0.13839 0.54906 0.59289 0.0
H1541 H 0.1264 0.52121 0.64926 0.0
H1542 H 0.09598 0.57591 0.63135 0.0
H1543 H 0.10139 0.61639 0.62328 0.0
H1544 H 0.13587 0.64592 0.67361 0.0
H1545 H 0.13096 0.6057 0.6819 0.0
C1546 C 0.04181 0.47745 0.71256 0.0
C1547 C 0.04888 0.48932 0.72894 0.0
C1548 C 0.05491 0.49044 0.69726 0.0
C1549 C 0.07578 0.5153 0.69818 0.0
C1550 C 0.08208 0.52746 0.71446 0.0
C1551 C 0.0687 0.51459 0.72971 0.0
C1552 C 0.09204 0.5281 0.68239 0.0
C1553 C 0.09609 0.55139 0.67737 0.0
C1554 C 0.10344 0.51728 0.67223 0.0
C1555 C 0.10174 0.49372 0.67754 0.0
C1556 C 0.11054 0.49137 0.69419 0.0
C1557 C 0.10845 0.46898 0.69922 0.0
C1558 C 0.09782 0.44888 0.68765 0.0
C1559 C 0.08931 0.45115 0.671 0.0
C1560 C 0.09131 0.47349 0.66592 0.0
C1561 C 0.17483 0.59784 0.62041 0.0
C1562 C 0.16781 0.58379 0.60486 0.0
C1563 C 0.1594 0.58807 0.63564 0.0
C1564 C 0.13661 0.56425 0.63546 0.0
C1565 C 0.12917 0.55067 0.61978 0.0
C1566 C 0.14456 0.56029 0.60467 0.0
C1567 C 0.12123 0.55254 0.65174 0.0
C1568 C 0.11756 0.52948 0.65696 0.0
C1569 C 0.1105 0.56374 0.66213 0.0
C1570 C 0.11334 0.58787 0.65717 0.0
C1571 C 0.1049 0.5911 0.64064 0.0
C1572 C 0.10784 0.61398 0.63604 0.0
C1573 C 0.11903 0.63373 0.64791 0.0
C1574 C 0.12724 0.63062 0.66442 0.0
C1575 C 0.12436 0.60778 0.66909 0.0
H1576 H 0.12129 0.65143 0.64432 0.0
H1577 H 0.09621 0.43156 0.69157 0.0
H1578 H 0.51053 0.07044 0.90323 0.0
H1579 H 0.52558 0.09659 0.87704 0.0
H1580 H 0.47867 0.12792 0.89113 0.0
H1581 H 0.46399 0.10217 0.91802 0.0
H1582 H 0.47435 0.11247 0.85495 0.0
H1583 H 0.53992 0.16445 0.89568 0.0
H1584 H 0.57206 0.17512 0.91944 0.0
H1585 H 0.61652 0.15472 0.88664 0.0
H1586 H 0.58442 0.14353 0.86276 0.0
H1587 H 0.54472 0.19698 0.78162 0.0
H1588 H 0.52656 0.18299 0.81137 0.0
H1589 H 0.55964 0.1362 0.81332 0.0
H1590 H 0.57734 0.14959 0.78363 0.0
H1591 H 0.56976 0.16808 0.84369 0.0
H1592 H 0.49942 0.10895 0.80576 0.0
H1593 H 0.46684 0.09722 0.78215 0.0
H1594 H 0.43139 0.13164 0.81009 0.0
H1595 H 0.46406 0.1439 0.83377 0.0
C1596 C 0.50376 0.08323 0.90106 0.0
C1597 C 0.48643 0.08454 0.91295 0.0
C1598 C 0.51226 0.09804 0.88598 0.0
C1599 C 0.50351 0.1144 0.88232 0.0
C1600 C 0.48572 0.11546 0.89384 0.0
C1601 C 0.47732 0.10071 0.90912 0.0
C1602 C 0.51301 0.12987 0.86618 0.0
C1603 C 0.49513 0.1252 0.85261 0.0
C1604 C 0.54015 0.14623 0.86315 0.0
C1605 C 0.55966 0.15303 0.87744 0.0
C1606 C 0.55644 0.16206 0.89356 0.0
C1607 C 0.57467 0.16823 0.90706 0.0
C1608 C 0.5963 0.16558 0.90456 0.0
C1609 C 0.59976 0.15678 0.88855 0.0
C1610 C 0.58157 0.15055 0.87502 0.0
C1611 C 0.54809 0.18371 0.78842 0.0
C1612 C 0.5624 0.17433 0.78031 0.0
C1613 C 0.53769 0.17574 0.80535 0.0
C1614 C 0.54186 0.15865 0.81446 0.0
C1615 C 0.55632 0.14948 0.80646 0.0
C1616 C 0.56629 0.15705 0.78948 0.0
C1617 C 0.53119 0.15001 0.83235 0.0
C1618 C 0.54891 0.15597 0.84621 0.0
C1619 C 0.50394 0.13494 0.83563 0.0
C1620 C 0.48441 0.12767 0.82139 0.0
C1621 C 0.48487 0.11427 0.80677 0.0
C1622 C 0.46634 0.10746 0.7934 0.0
C1623 C 0.44712 0.11377 0.79458 0.0
C1624 C 0.44634 0.12683 0.80916 0.0
C1625 C 0.46485 0.13371 0.82256 0.0
H1626 H 0.43277 0.10846 0.78422 0.0
H1627 H 0.6104 0.17037 0.91502 0.0
H1628 H 0.6156 0.68539 0.06942 0.0
H1629 H 0.59537 0.69336 0.04422 0.0
H1630 H 0.5192 0.64856 0.06849 0.0
H1631 H 0.53933 0.64064 0.0937 0.0
H1632 H 0.52531 0.63 0.03711 0.0
H1633 H 0.54046 0.70733 0.05973 0.0
H1634 H 0.56669 0.74951 0.07205 0.0
H1635 H 0.61505 0.77425 0.02562 0.0
H1636 H 0.58934 0.73211 0.01311 0.0
H1637 H 0.45025 0.62841 0.96619 0.0
H1638 H 0.46992 0.63516 -0.00474 0.0
H1639 H 0.54564 0.68838 0.97319 0.0
H1640 H 0.52573 0.68245 0.94404 0.0
H1641 H 0.5395 0.70427 0.00403 0.0
H1642 H 0.52839 0.62783 0.98248 0.0
H1643 H 0.50454 0.58566 0.96987 0.0
H1644 H 0.4518 0.55929 0.01411 0.0
H1645 H 0.47514 0.60139 0.02688 0.0
C1646 C 0.5947 0.67815 0.06968 0.0
C1647 C 0.5789 0.66209 0.08327 0.0
C1648 C 0.58317 0.6827 0.05531 0.0
C1649 C 0.5558 0.67134 0.05449 0.0
C1650 C 0.54035 0.65739 0.0689 0.0
C1651 C 0.55183 0.65283 0.08323 0.0
C1652 C 0.54307 0.66984 0.03753 0.0
C1653 C 0.52795 0.6462 0.03003 0.0
C1654 C 0.54758 0.69111 0.02805 0.0
C1655 C 0.5631 0.71647 0.03555 0.0
C1656 C 0.55684 0.72169 0.05221 0.0
C1657 C 0.57158 0.74562 0.05921 0.0
C1658 C 0.59257 0.76453 0.04964 0.0
C1659 C 0.59881 0.75957 0.03302 0.0
C1660 C 0.58413 0.73568 0.02596 0.0
C1661 C 0.4711 0.64153 0.96751 0.0
C1662 C 0.48656 0.65469 0.95285 0.0
C1663 C 0.48231 0.64537 0.98413 0.0
C1664 C 0.50932 0.66194 0.98633 0.0
C1665 C 0.52476 0.67548 0.97176 0.0
C1666 C 0.51342 0.67197 0.95513 0.0
C1667 C 0.52147 0.66436 0.00374 0.0
C1668 C 0.53665 0.68809 0.01121 0.0
C1669 C 0.51742 0.64318 0.01319 0.0
C1670 C 0.50336 0.61782 0.00554 0.0
C1671 C 0.51159 0.61308 0.98945 0.0
C1672 C 0.49818 0.58918 0.98229 0.0
C1673 C 0.47662 0.56982 0.99116 0.0
C1674 C 0.46847 0.57431 0.00724 0.0
C1675 C 0.4818 0.59818 0.01445 0.0
H1676 H 0.46627 0.55134 0.98559 0.0
H1677 H 0.60395 0.78304 0.05508 0.0
H1678 H 0.91321 0.40624 0.25292 0.0
H1679 H 0.88894 0.38926 0.22548 0.0
H1680 H 0.9298 0.46283 0.20228 0.0
H1681 H 0.95365 0.47985 0.22967 0.0
H1682 H 0.88071 0.43914 0.1923 0.0
H1683 H 0.94931 0.42048 0.19526 0.0
H1684 H 0.97397 0.403 0.20866 0.0
H1685 H 0.90515 0.32976 0.20727 0.0
H1686 H 0.87997 0.34689 0.19408 0.0
H1687 H 0.88172 0.41867 0.10175 0.0
H1688 H 0.89698 0.42701 0.1321 0.0
H1689 H 0.8337 0.35434 0.14788 0.0
H1690 H 0.81782 0.34585 0.11744 0.0
H1691 H 0.88852 0.37296 0.16278 0.0
H1692 H 0.82167 0.39392 0.1565 0.0
H1693 H 0.80043 0.41373 0.14152 0.0
H1694 H 0.87022 0.48552 0.14769 0.0
H1695 H 0.89204 0.46608 0.16245 0.0
C1696 C 0.91675 0.41876 0.242 0.0
C1697 C 0.9353 0.44434 0.2434 0.0
C1698 C 0.90295 0.40907 0.22634 0.0
C1699 C 0.90785 0.42473 0.21173 0.0
C1700 C 0.92564 0.4504 0.21337 0.0
C1701 C 0.93921 0.46012 0.22905 0.0
C1702 C 0.89555 0.41444 0.19445 0.0
C1703 C 0.88248 0.42471 0.18586 0.0
C1704 C 0.89754 0.39536 0.1861 0.0
C1705 C 0.91269 0.385 0.19388 0.0
C1706 C 0.93939 0.40067 0.19793 0.0
C1707 C 0.95347 0.39083 0.20547 0.0
C1708 C 0.94111 0.3653 0.20887 0.0
C1709 C 0.91467 0.34955 0.20467 0.0
C1710 C 0.90049 0.35931 0.19715 0.0
C1711 C 0.87122 0.40423 0.11156 0.0
C1712 C 0.84842 0.38164 0.10718 0.0
C1713 C 0.87996 0.40909 0.12891 0.0
C1714 C 0.86628 0.39137 0.14216 0.0
C1715 C 0.84442 0.36823 0.13777 0.0
C1716 C 0.8354 0.36345 0.1204 0.0
C1717 C 0.87408 0.39791 0.1607 0.0
C1718 C 0.88635 0.38703 0.16943 0.0
C1719 C 0.87177 0.41672 0.16908 0.0
C1720 C 0.85856 0.42851 0.16044 0.0
C1721 C 0.83257 0.41391 0.15453 0.0
C1722 C 0.82041 0.42507 0.14611 0.0
C1723 C 0.83398 0.45086 0.14362 0.0
C1724 C 0.85973 0.46554 0.14961 0.0
C1725 C 0.87199 0.45446 0.15802 0.0
H1726 H 0.82454 0.45947 0.13708 0.0
H1727 H 0.95204 0.35771 0.21471 0.0
loop_
_geom_bond_atom_site_label_1
_geom_bond_atom_site_label_2
_geom_bond_distance
_geom_bond_site_symmetry_2
_ccdc_geom_bond_type
H0 O26 0.856 . S
H1 O29 0.854 . S
H2 C37 0.930 . S
H3 C38 0.930 . S
H4 C40 0.930 . S
H5 C41 0.930 . S
H6 C43 0.931 . S
H7 C44 0.930 . S
H8 C46 0.930 . S
H9 C47 0.929 . S
H10 C49 0.930 . S
H11 C50 0.931 . S
H12 C52 0.930 . S
H13 C53 0.929 . S
H14 C55 0.931 . S
H15 C56 0.930 . S
H16 C58 0.930 . S
H17 C59 0.932 . S
H18 C61 0.930 . S
H19 C62 0.929 . S
H20 C64 0.931 . S
H21 C65 0.930 . S
H22 C67 0.929 . S
H23 C68 0.931 . S
H24 C70 0.930 . S
H25 C71 0.929 1_455 S
O26 H0 0.856 . S
O26 C72 1.300 . S
O27 C72 1.209 . S
O28 C73 1.199 . S
O29 H1 0.854 . S
O29 C73 1.297 . S
C30 C31 1.404 . S
C30 C35 1.397 . S
C30 C36 1.492 . S
C31 C30 1.404 . S
C31 C32 1.396 . S
C31 C42 1.492 . S
C32 C31 1.396 . S
C32 C33 1.397 . S
C32 C48 1.509 . S
C33 C32 1.397 . S
C33 C34 1.412 . S
C33 C54 1.485 . S
C34 C33 1.412 . S
C34 C35 1.388 . S
C34 C60 1.490 . S
C35 C30 1.397 . S
C35 C34 1.388 . S
C35 C66 1.519 1_455 S
C36 C30 1.492 . S
C36 C37 1.363 . S
C36 C41 1.390 1_455 S
C37 H2 0.930 . S
C37 C36 1.363 . S
C37 C38 1.372 1_455 S
C38 H3 0.930 . S
C38 C37 1.372 1_655 S
C38 C39 1.383 . S
C39 C38 1.383 . S
C39 C40 1.395 . S
C40 H4 0.930 . S
C40 C39 1.395 . S
C40 C41 1.362 . S
C41 H5 0.930 . S
C41 C36 1.390 1_655 S
C41 C40 1.362 . S
C42 C31 1.492 . S
C42 C43 1.377 . S
C42 C47 1.397 . S
C43 H6 0.931 . S
C43 C42 1.377 . S
C43 C44 1.376 . S
C44 H7 0.930 . S
C44 C43 1.376 . S
C44 C45 1.376 . S
C45 C44 1.376 . S
C45 C46 1.378 . S
C45 C72 1.486 . S
C46 H8 0.930 . S
C46 C45 1.378 . S
C46 C47 1.376 . S
C47 H9 0.929 . S
C47 C42 1.397 . S
C47 C46 1.376 . S
C48 C32 1.509 . S
C48 C49 1.391 . S
C48 C53 1.386 . S
C49 H10 0.930 . S
C49 C48 1.391 . S
C49 C50 1.375 . S
C50 H11 0.931 . S
C50 C49 1.375 . S
C50 C51 1.375 . S
C51 C50 1.375 . S
C51 C52 1.361 . S
C52 H12 0.930 . S
C52 C51 1.361 . S
C52 C53 1.399 . S
C53 H13 0.929 . S
C53 C48 1.386 . S
C53 C52 1.399 . S
C54 C33 1.485 . S
C54 C55 1.394 . S
C54 C59 1.360 . S
C55 H14 0.931 . S
C55 C54 1.394 . S
C55 C56 1.372 . S
C56 H15 0.930 . S
C56 C55 1.372 . S
C56 C57 1.397 . S
C57 C56 1.397 . S
C57 C58 1.390 . S
C57 C73 1.476 . S
C58 H16 0.930 . S
C58 C57 1.390 . S
C58 C59 1.366 . S
C59 H17 0.932 . S
C59 C54 1.360 . S
C59 C58 1.366 . S
C60 C34 1.490 . S
C60 C61 1.380 . S
C60 C65 1.386 . S
C61 H18 0.930 . S
C61 C60 1.380 . S
C61 C62 1.381 . S
C62 H19 0.929 . S
C62 C61 1.381 . S
C62 C63 1.371 . S
C63 C62 1.371 . S
C63 C64 1.380 . S
C64 H20 0.931 . S
C64 C63 1.380 . S
C64 C65 1.387 . S
C65 H21 0.930 . S
C65 C60 1.386 . S
C65 C64 1.387 . S
C66 C35 1.519 1_655 S
C66 C67 1.377 . S
C66 C71 1.361 . S
C67 H22 0.929 . S
C67 C66 1.377 . S
C67 C68 1.386 . S
C68 H23 0.931 . S
C68 C67 1.386 . S
C68 C69 1.363 . S
C69 C68 1.363 . S
C69 C70 1.385 . S
C70 H24 0.930 . S
C70 C69 1.385 . S
C70 C71 1.396 . S
C71 H25 0.929 1_655 S
C71 C66 1.361 . S
C71 C70 1.396 . S
C72 O26 1.300 . S
C72 O27 1.209 . S
C72 C45 1.486 . S
C73 O28 1.199 . S
C73 O29 1.297 . S
C73 C57 1.476 . S
H74 O100 0.856 . S
H75 O103 0.854 . S
H76 C111 0.930 . S
H77 C112 0.927 . S
H78 C114 0.930 . S
H79 C115 0.930 . S
H80 C117 0.931 . S
H81 C118 0.930 . S
H82 C120 0.930 . S
H83 C121 0.929 . S
H84 C123 0.930 . S
H85 C124 0.931 . S
H86 C126 0.930 . S
H87 C127 0.929 . S
H88 C129 0.931 . S
H89 C130 0.930 . S
H90 C132 0.930 . S
H91 C133 0.932 . S
H92 C135 0.930 . S
H93 C136 0.929 . S
H94 C138 0.931 . S
H95 C139 0.930 . S
H96 C141 0.928 . S
H97 C142 0.931 . S
H98 C144 0.930 . S
H99 C145 0.929 . S
O100 H74 0.856 . S
O100 C146 1.300 . S
O101 C146 1.209 . S
O102 C147 1.199 . S
O103 H75 0.854 . S
O103 C147 1.297 . S
C104 C105 1.404 . S
C104 C109 1.397 . S
C104 C110 1.492 . S
C105 C104 1.404 . S
C105 C106 1.396 . S
C105 C116 1.492 . S
C106 C105 1.396 . S
C106 C107 1.397 . S
C106 C122 1.509 . S
C107 C106 1.397 . S
C107 C108 1.412 . S
C107 C128 1.485 . S
C108 C107 1.412 . S
C108 C109 1.388 . S
C108 C134 1.490 . S
C109 C104 1.397 . S
C109 C108 1.388 . S
C109 C140 1.519 . S
C110 C104 1.492 . S
C110 C111 1.363 . S
C110 C115 1.390 . S
C111 H76 0.930 . S
C111 C110 1.363 . S
C111 C112 1.376 1_545 S
C112 H77 0.927 . S
C112 C111 1.376 1_565 S
C112 C113 1.382 . S
C113 C112 1.382 . S
C113 C114 1.395 . S
C114 H78 0.930 . S
C114 C113 1.395 . S
C114 C115 1.362 1_565 S
C115 H79 0.930 . S
C115 C110 1.390 . S
C115 C114 1.362 1_545 S
C116 C105 1.492 . S
C116 C117 1.377 . S
C116 C121 1.397 . S
C117 H80 0.931 . S
C117 C116 1.377 . S
C117 C118 1.376 . S
C118 H81 0.930 . S
C118 C117 1.376 . S
C118 C119 1.376 . S
C119 C118 1.376 . S
C119 C120 1.378 . S
C119 C146 1.486 . S
C120 H82 0.930 . S
C120 C119 1.378 . S
C120 C121 1.376 . S
C121 H83 0.929 . S
C121 C116 1.397 . S
C121 C120 1.376 . S
C122 C106 1.509 . S
C122 C123 1.391 . S
C122 C127 1.386 . S
C123 H84 0.930 . S
C123 C122 1.391 . S
C123 C124 1.375 . S
C124 H85 0.931 . S
C124 C123 1.375 . S
C124 C125 1.375 . S
C125 C124 1.375 . S
C125 C126 1.361 . S
C126 H86 0.930 . S
C126 C125 1.361 . S
C126 C127 1.399 . S
C127 H87 0.929 . S
C127 C122 1.386 . S
C127 C126 1.399 . S
C128 C107 1.485 . S
C128 C129 1.394 . S
C128 C133 1.360 . S
C129 H88 0.931 . S
C129 C128 1.394 . S
C129 C130 1.372 . S
C130 H89 0.930 . S
C130 C129 1.372 . S
C130 C131 1.397 . S
C131 C130 1.397 . S
C131 C132 1.390 . S
C131 C147 1.476 . S
C132 H90 0.930 . S
C132 C131 1.390 . S
C132 C133 1.366 . S
C133 H91 0.932 . S
C133 C128 1.360 . S
C133 C132 1.366 . S
C134 C108 1.490 . S
C134 C135 1.380 . S
C134 C139 1.386 . S
C135 H92 0.930 . S
C135 C134 1.380 . S
C135 C136 1.381 . S
C136 H93 0.929 . S
C136 C135 1.381 . S
C136 C137 1.371 . S
C137 C136 1.371 . S
C137 C138 1.380 . S
C138 H94 0.931 . S
C138 C137 1.380 . S
C138 C139 1.387 . S
C139 H95 0.930 . S
C139 C134 1.386 . S
C139 C138 1.387 . S
C140 C109 1.519 . S
C140 C141 1.388 . S
C140 C145 1.361 . S
C141 H96 0.928 . S
C141 C140 1.388 . S
C141 C142 1.376 1_545 S
C142 H97 0.931 . S
C142 C141 1.376 1_565 S
C142 C143 1.363 . S
C143 C142 1.363 . S
C143 C144 1.385 . S
C144 H98 0.930 . S
C144 C143 1.385 . S
C144 C145 1.396 1_565 S
C145 H99 0.929 . S
C145 C140 1.361 . S
C145 C144 1.396 1_545 S
C146 O100 1.300 . S
C146 O101 1.209 . S
C146 C119 1.486 . S
C147 O102 1.199 . S
C147 O103 1.297 . S
C147 C131 1.476 . S
H148 O174 0.856 . S
H149 O177 0.854 . S
H150 C185 0.930 . S
H151 C186 0.930 . S
H152 C188 0.930 . S
H153 C189 0.930 . S
H154 C191 0.931 . S
H155 C192 0.930 . S
H156 C194 0.930 . S
H157 C195 0.929 . S
H158 C197 0.930 . S
H159 C198 0.931 . S
H160 C200 0.930 . S
H161 C201 0.929 . S
H162 C203 0.931 . S
H163 C204 0.930 . S
H164 C206 0.930 . S
H165 C207 0.932 . S
H166 C209 0.930 . S
H167 C210 0.929 . S
H168 C212 0.931 . S
H169 C213 0.930 . S
H170 C215 0.929 . S
H171 C216 0.931 . S
H172 C218 0.930 . S
H173 C219 0.929 . S
O174 H148 0.856 . S
O174 C220 1.300 . S
O175 C220 1.209 . S
O176 C221 1.199 . S
O177 H149 0.854 . S
O177 C221 1.297 . S
C178 C179 1.404 . S
C178 C183 1.397 . S
C178 C184 1.492 . S
C179 C178 1.404 . S
C179 C180 1.396 . S
C179 C190 1.492 . S
C180 C179 1.396 . S
C180 C181 1.397 . S
C180 C196 1.509 . S
C181 C180 1.397 . S
C181 C182 1.412 . S
C181 C202 1.485 . S
C182 C181 1.412 . S
C182 C183 1.388 . S
C182 C208 1.490 . S
C183 C178 1.397 . S
C183 C182 1.388 . S
C183 C214 1.519 . S
C184 C178 1.492 . S
C184 C185 1.363 . S
C184 C189 1.390 . S
C185 H150 0.930 . S
C185 C184 1.363 . S
C185 C186 1.372 . S
C186 H151 0.930 . S
C186 C185 1.372 . S
C186 C187 1.383 . S
C187 C186 1.383 . S
C187 C188 1.395 . S
C188 H152 0.930 . S
C188 C187 1.395 . S
C188 C189 1.362 . S
C189 H153 0.930 . S
C189 C184 1.390 . S
C189 C188 1.362 . S
C190 C179 1.492 . S
C190 C191 1.377 . S
C190 C195 1.397 . S
C191 H154 0.931 . S
C191 C190 1.377 . S
C191 C192 1.376 . S
C192 H155 0.930 . S
C192 C191 1.376 . S
C192 C193 1.376 . S
C193 C192 1.376 . S
C193 C194 1.378 . S
C193 C220 1.486 . S
C194 H156 0.930 . S
C194 C193 1.378 . S
C194 C195 1.376 . S
C195 H157 0.929 . S
C195 C190 1.397 . S
C195 C194 1.376 . S
C196 C180 1.509 . S
C196 C197 1.391 . S
C196 C201 1.386 . S
C197 H158 0.930 . S
C197 C196 1.391 . S
C197 C198 1.375 . S
C198 H159 0.931 . S
C198 C197 1.375 . S
C198 C199 1.375 . S
C199 C198 1.375 . S
C199 C200 1.361 . S
C200 H160 0.930 . S
C200 C199 1.361 . S
C200 C201 1.399 . S
C201 H161 0.929 . S
C201 C196 1.386 . S
C201 C200 1.399 . S
C202 C181 1.485 . S
C202 C203 1.394 . S
C202 C207 1.360 . S
C203 H162 0.931 . S
C203 C202 1.394 . S
C203 C204 1.372 . S
C204 H163 0.930 . S
C204 C203 1.372 . S
C204 C205 1.397 . S
C205 C204 1.397 . S
C205 C206 1.390 . S
C205 C221 1.476 . S
C206 H164 0.930 . S
C206 C205 1.390 . S
C206 C207 1.366 . S
C207 H165 0.932 . S
C207 C202 1.360 . S
C207 C206 1.366 . S
C208 C182 1.490 . S
C208 C209 1.380 . S
C208 C213 1.386 . S
C209 H166 0.930 . S
C209 C208 1.380 . S
C209 C210 1.381 . S
C210 H167 0.929 . S
C210 C209 1.381 . S
C210 C211 1.371 . S
C211 C210 1.371 . S
C211 C212 1.380 . S
C212 H168 0.931 . S
C212 C211 1.380 . S
C212 C213 1.387 . S
C213 H169 0.930 . S
C213 C208 1.386 . S
C213 C212 1.387 . S
C214 C183 1.519 . S
C214 C215 1.377 . S
C214 C219 1.361 . S
C215 H170 0.929 . S
C215 C214 1.377 . S
C215 C216 1.386 . S
C216 H171 0.931 . S
C216 C215 1.386 . S
C216 C217 1.363 . S
C217 C216 1.363 . S
C217 C218 1.385 . S
C218 H172 0.930 . S
C218 C217 1.385 . S
C218 C219 1.396 . S
C219 H173 0.929 . S
C219 C214 1.361 . S
C219 C218 1.396 . S
C220 O174 1.300 . S
C220 O175 1.209 . S
C220 C193 1.486 . S
C221 O176 1.199 . S
C221 O177 1.297 . S
C221 C205 1.476 . S
H222 O248 0.856 . S
H223 O251 0.854 . S
H224 C259 0.930 1_455 S
H225 C260 0.930 . S
H226 C262 0.930 . S
H227 C263 0.930 . S
H228 C265 0.931 . S
H229 C266 0.930 . S
H230 C268 0.930 . S
H231 C269 0.929 . S
H232 C271 0.930 . S
H233 C272 0.931 . S
H234 C274 0.930 . S
H235 C275 0.929 . S
H236 C277 0.931 . S
H237 C278 0.930 . S
H238 C280 0.930 . S
H239 C281 0.932 . S
H240 C283 0.930 . S
H241 C284 0.929 . S
H242 C286 0.931 . S
H243 C287 0.930 . S
H244 C289 0.929 . S
H245 C290 0.931 . S
H246 C292 0.930 . S
H247 C293 0.929 . S
O248 H222 0.856 . S
O248 C294 1.300 . S
O249 C294 1.209 . S
O250 C295 1.199 . S
O251 H223 0.854 . S
O251 C295 1.297 . S
C252 C253 1.404 . S
C252 C257 1.397 . S
C252 C258 1.492 1_455 S
C253 C252 1.404 . S
C253 C254 1.396 . S
C253 C264 1.492 . S
C254 C253 1.396 . S
C254 C255 1.397 . S
C254 C270 1.509 . S
C255 C254 1.397 . S
C255 C256 1.412 . S
C255 C276 1.485 . S
C256 C255 1.412 . S
C256 C257 1.388 . S
C256 C282 1.490 . S
C257 C252 1.397 . S
C257 C256 1.388 . S
C257 C288 1.519 1_455 S
C258 C252 1.492 1_655 S
C258 C259 1.363 . S
C258 C263 1.390 . S
C259 H224 0.930 1_655 S
C259 C258 1.363 . S
C259 C260 1.372 . S
C260 H225 0.930 . S
C260 C259 1.372 . S
C260 C261 1.383 . S
C261 C260 1.383 . S
C261 C262 1.395 . S
C262 H226 0.930 . S
C262 C261 1.395 . S
C262 C263 1.362 . S
C263 H227 0.930 . S
C263 C258 1.390 . S
C263 C262 1.362 . S
C264 C253 1.492 . S
C264 C265 1.377 . S
C264 C269 1.397 . S
C265 H228 0.931 . S
C265 C264 1.377 . S
C265 C266 1.376 . S
C266 H229 0.930 . S
C266 C265 1.376 . S
C266 C267 1.376 . S
C267 C266 1.376 . S
C267 C268 1.378 . S
C267 C294 1.486 . S
C268 H230 0.930 . S
C268 C267 1.378 . S
C268 C269 1.376 . S
C269 H231 0.929 . S
C269 C264 1.397 . S
C269 C268 1.376 . S
C270 C254 1.509 . S
C270 C271 1.391 . S
C270 C275 1.386 . S
C271 H232 0.930 . S
C271 C270 1.391 . S
C271 C272 1.375 . S
C272 H233 0.931 . S
C272 C271 1.375 . S
C272 C273 1.375 . S
C273 C272 1.375 . S
C273 C274 1.361 . S
C274 H234 0.930 . S
C274 C273 1.361 . S
C274 C275 1.399 . S
C275 H235 0.929 . S
C275 C270 1.386 . S
C275 C274 1.399 . S
C276 C255 1.485 . S
C276 C277 1.394 . S
C276 C281 1.360 . S
C277 H236 0.931 . S
C277 C276 1.394 . S
C277 C278 1.372 . S
C278 H237 0.930 . S
C278 C277 1.372 . S
C278 C279 1.397 . S
C279 C278 1.397 . S
C279 C280 1.390 . S
C279 C295 1.476 . S
C280 H238 0.930 . S
C280 C279 1.390 . S
C280 C281 1.366 . S
C281 H239 0.932 . S
C281 C276 1.360 . S
C281 C280 1.366 . S
C282 C256 1.490 . S
C282 C283 1.380 . S
C282 C287 1.386 . S
C283 H240 0.930 . S
C283 C282 1.380 . S
C283 C284 1.381 . S
C284 H241 0.929 . S
C284 C283 1.381 . S
C284 C285 1.371 . S
C285 C284 1.371 . S
C285 C286 1.380 . S
C286 H242 0.931 . S
C286 C285 1.380 . S
C286 C287 1.387 . S
C287 H243 0.930 . S
C287 C282 1.386 . S
C287 C286 1.387 . S
C288 C257 1.519 1_655 S
C288 C289 1.377 . S
C288 C293 1.361 . S
C289 H244 0.929 . S
C289 C288 1.377 . S
C289 C290 1.386 . S
C290 H245 0.931 . S
C290 C289 1.386 . S
C290 C291 1.363 . S
C291 C290 1.363 . S
C291 C292 1.385 . S
C292 H246 0.930 . S
C292 C291 1.385 . S
C292 C293 1.396 . S
C293 H247 0.929 . S
C293 C288 1.361 . S
C293 C292 1.396 . S
C294 O248 1.300 . S
C294 O249 1.209 . S
C294 C267 1.486 . S
C295 O250 1.199 . S
C295 O251 1.297 . S
C295 C279 1.476 . S
H296 O322 0.856 . S
H297 O325 0.854 . S
H298 C333 0.930 . S
H299 C334 0.930 . S
H300 C336 0.930 . S
H301 C337 0.930 . S
H302 C339 0.931 . S
H303 C340 0.930 . S
H304 C342 0.930 . S
H305 C343 0.929 . S
H306 C345 0.930 . S
H307 C346 0.931 . S
H308 C348 0.930 . S
H309 C349 0.929 . S
H310 C351 0.931 . S
H311 C352 0.930 . S
H312 C354 0.930 . S
H313 C355 0.932 . S
H314 C357 0.930 . S
H315 C358 0.928 . S
H316 C360 0.931 . S
H317 C361 0.930 . S
H318 C363 0.906 1_556 S
H319 C364 0.931 . S
H320 C366 0.930 . S
H321 C367 0.929 . S
O322 H296 0.856 . S
O322 C368 1.300 . S
O323 C368 1.209 . S
O324 C369 1.199 . S
O325 H297 0.854 . S
O325 C369 1.297 . S
C326 C327 1.404 . S
C326 C331 1.397 1_565 S
C326 C332 1.492 1_565 S
C327 C326 1.404 . S
C327 C328 1.396 . S
C327 C338 1.492 . S
C328 C327 1.396 . S
C328 C329 1.397 . S
C328 C344 1.509 . S
C329 C328 1.397 . S
C329 C330 1.412 1_556 S
C329 C350 1.485 1_556 S
C330 C329 1.412 1_554 S
C330 C331 1.388 1_564 S
C330 C356 1.490 . S
C331 C326 1.397 1_545 S
C331 C330 1.388 1_546 S
C331 C362 1.519 1_556 S
C332 C326 1.492 1_545 S
C332 C333 1.363 . S
C332 C337 1.390 . S
C333 H298 0.930 . S
C333 C332 1.363 . S
C333 C334 1.372 . S
C334 H299 0.930 . S
C334 C333 1.372 . S
C334 C335 1.383 . S
C335 C334 1.383 . S
C335 C336 1.395 . S
C336 H300 0.930 . S
C336 C335 1.395 . S
C336 C337 1.362 . S
C337 H301 0.930 . S
C337 C332 1.390 . S
C337 C336 1.362 . S
C338 C327 1.492 . S
C338 C339 1.377 . S
C338 C343 1.397 . S
C339 H302 0.931 . S
C339 C338 1.377 . S
C339 C340 1.376 . S
C340 H303 0.930 . S
C340 C339 1.376 . S
C340 C341 1.376 . S
C341 C340 1.376 . S
C341 C342 1.378 . S
C341 C368 1.486 . S
C342 H304 0.930 . S
C342 C341 1.378 . S
C342 C343 1.376 . S
C343 H305 0.929 . S
C343 C338 1.397 . S
C343 C342 1.376 . S
C344 C328 1.509 . S
C344 C345 1.391 . S
C344 C349 1.386 . S
C345 H306 0.930 . S
C345 C344 1.391 . S
C345 C346 1.375 . S
C346 H307 0.931 . S
C346 C345 1.375 . S
C346 C347 1.375 . S
C347 C346 1.375 . S
C347 C348 1.361 . S
C348 H308 0.930 . S
C348 C347 1.361 . S
C348 C349 1.399 . S
C349 H309 0.929 . S
C349 C344 1.386 . S
C349 C348 1.399 . S
C350 C329 1.485 1_554 S
C350 C351 1.394 . S
C350 C355 1.360 . S
C351 H310 0.931 . S
C351 C350 1.394 . S
C351 C352 1.372 . S
C352 H311 0.930 . S
C352 C351 1.372 . S
C352 C353 1.397 . S
C353 C352 1.397 . S
C353 C354 1.390 . S
C353 C369 1.476 . S
C354 H312 0.930 . S
C354 C353 1.390 . S
C354 C355 1.366 . S
C355 H313 0.932 . S
C355 C350 1.360 . S
C355 C354 1.366 . S
C356 C330 1.490 . S
C356 C357 1.380 . S
C356 C361 1.386 . S
C357 H314 0.930 . S
C357 C356 1.380 . S
C357 C358 1.381 . S
C358 H315 0.928 . S
C358 C357 1.381 . S
C358 C359 1.371 . S
C359 C358 1.371 . S
C359 C360 1.380 . S
C360 H316 0.931 . S
C360 C359 1.380 . S
C360 C361 1.387 . S
C361 H317 0.930 . S
C361 C356 1.386 . S
C361 C360 1.387 . S
C362 C331 1.519 1_554 S
C362 C363 1.380 . S
C362 C367 1.361 . S
C363 H318 0.906 1_554 S
C363 C362 1.380 . S
C363 C364 1.410 . S
C364 H319 0.931 . S
C364 C363 1.410 . S
C364 C365 1.363 . S
C365 C364 1.363 . S
C365 C366 1.385 . S
C366 H320 0.930 . S
C366 C365 1.385 . S
C366 C367 1.396 . S
C367 H321 0.929 . S
C367 C362 1.361 . S
C367 C366 1.396 . S
C368 O322 1.300 . S
C368 O323 1.209 . S
C368 C341 1.486 . S
C369 O324 1.199 . S
C369 O325 1.297 . S
C369 C353 1.476 . S
H370 O396 0.856 . S
H371 O399 0.854 . S
H372 C407 0.930 . S
H373 C408 0.930 . S
H374 C410 0.930 . S
H375 C411 0.930 . S
H376 C413 0.931 . S
H377 C414 0.930 . S
H378 C416 0.930 . S
H379 C417 0.929 . S
H380 C419 0.930 . S
H381 C420 0.931 . S
H382 C422 0.930 . S
H383 C423 0.929 . S
H384 C425 0.931 . S
H385 C426 0.930 . S
H386 C428 0.930 . S
H387 C429 0.932 . S
H388 C431 0.930 . S
H389 C432 0.929 . S
H390 C434 0.931 . S
H391 C435 0.930 . S
H392 C437 0.929 . S
H393 C438 0.931 . S
H394 C440 0.930 . S
H395 C441 0.929 . S
O396 H370 0.856 . S
O396 C442 1.300 . S
O397 C442 1.209 . S
O398 C443 1.199 . S
O399 H371 0.854 . S
O399 C443 1.297 . S
C400 C401 1.404 . S
C400 C405 1.397 . S
C400 C406 1.492 . S
C401 C400 1.404 . S
C401 C402 1.396 . S
C401 C412 1.492 . S
C402 C401 1.396 . S
C402 C403 1.397 . S
C402 C418 1.509 . S
C403 C402 1.397 . S
C403 C404 1.412 . S
C403 C424 1.485 . S
C404 C403 1.412 . S
C404 C405 1.388 . S
C404 C430 1.490 . S
C405 C400 1.397 . S
C405 C404 1.388 . S
C405 C436 1.519 . S
C406 C400 1.492 . S
C406 C407 1.363 . S
C406 C411 1.390 . S
C407 H372 0.930 . S
C407 C406 1.363 . S
C407 C408 1.372 . S
C408 H373 0.930 . S
C408 C407 1.372 . S
C408 C409 1.383 . S
C409 C408 1.383 . S
C409 C410 1.395 . S
C410 H374 0.930 . S
C410 C409 1.395 . S
C410 C411 1.362 . S
C411 H375 0.930 . S
C411 C406 1.390 . S
C411 C410 1.362 . S
C412 C401 1.492 . S
C412 C413 1.377 . S
C412 C417 1.397 . S
C413 H376 0.931 . S
C413 C412 1.377 . S
C413 C414 1.376 . S
C414 H377 0.930 . S
C414 C413 1.376 . S
C414 C415 1.376 . S
C415 C414 1.376 . S
C415 C416 1.378 . S
C415 C442 1.486 . S
C416 H378 0.930 . S
C416 C415 1.378 . S
C416 C417 1.376 . S
C417 H379 0.929 . S
C417 C412 1.397 . S
C417 C416 1.376 . S
C418 C402 1.509 . S
C418 C419 1.391 . S
C418 C423 1.386 . S
C419 H380 0.930 . S
C419 C418 1.391 . S
C419 C420 1.375 . S
C420 H381 0.931 . S
C420 C419 1.375 . S
C420 C421 1.375 . S
C421 C420 1.375 . S
C421 C422 1.361 . S
C422 H382 0.930 . S
C422 C421 1.361 . S
C422 C423 1.399 . S
C423 H383 0.929 . S
C423 C418 1.386 . S
C423 C422 1.399 . S
C424 C403 1.485 . S
C424 C425 1.394 . S
C424 C429 1.360 . S
C425 H384 0.931 . S
C425 C424 1.394 . S
C425 C426 1.372 . S
C426 H385 0.930 . S
C426 C425 1.372 . S
C426 C427 1.397 . S
C427 C426 1.397 . S
C427 C428 1.390 . S
C427 C443 1.476 . S
C428 H386 0.930 . S
C428 C427 1.390 . S
C428 C429 1.366 . S
C429 H387 0.932 . S
C429 C424 1.360 . S
C429 C428 1.366 . S
C430 C404 1.490 . S
C430 C431 1.380 . S
C430 C435 1.386 . S
C431 H388 0.930 . S
C431 C430 1.380 . S
C431 C432 1.381 . S
C432 H389 0.929 . S
C432 C431 1.381 . S
C432 C433 1.371 . S
C433 C432 1.371 . S
C433 C434 1.380 . S
C434 H390 0.931 . S
C434 C433 1.380 . S
C434 C435 1.387 . S
C435 H391 0.930 . S
C435 C430 1.386 . S
C435 C434 1.387 . S
C436 C405 1.519 . S
C436 C437 1.377 . S
C436 C441 1.361 . S
C437 H392 0.929 . S
C437 C436 1.377 . S
C437 C438 1.386 . S
C438 H393 0.931 . S
C438 C437 1.386 . S
C438 C439 1.363 . S
C439 C438 1.363 . S
C439 C440 1.385 . S
C440 H394 0.930 . S
C440 C439 1.385 . S
C440 C441 1.396 . S
C441 H395 0.929 . S
C441 C436 1.361 . S
C441 C440 1.396 . S
C442 O396 1.300 . S
C442 O397 1.209 . S
C442 C415 1.486 . S
C443 O398 1.199 . S
C443 O399 1.297 . S
C443 C427 1.476 . S
C444 O445 1.306 . S
C444 O447 1.160 . S
O445 C444 1.306 . S
O445 Cd446 2.228 . S
Cd446 O445 2.228 . S
Cd446 O450 2.273 . S
Cd446 O454 2.277 . S
O447 C444 1.160 . S
O447 Cd448 2.203 . S
Cd448 O447 2.203 . S
Cd448 O450 2.411 . S
Cd448 O451 2.333 . S
Cd448 O452 2.352 . S
Cd448 O456 2.277 . S
Cd448 O457 2.356 . S
C449 O454 1.209 . S
C449 O456 1.226 . S
O450 Cd446 2.273 . S
O450 Cd448 2.411 . S
O450 C453 1.320 . S
O451 Cd448 2.333 . S
O451 C453 1.214 . S
O452 Cd448 2.352 . S
O452 C455 1.258 . S
C453 O450 1.320 . S
C453 O451 1.214 . S
O454 Cd446 2.277 . S
O454 C449 1.209 . S
C455 O452 1.258 . S
C455 O457 1.282 . S
O456 Cd448 2.277 . S
O456 C449 1.226 . S
O457 Cd448 2.356 . S
O457 C455 1.282 . S
C458 O459 1.306 . S
C458 O461 1.160 . S
O459 C458 1.306 . S
O459 Cd460 2.228 . S
Cd460 O459 2.228 . S
Cd460 O464 2.273 . S
Cd460 O468 2.277 . S
O461 C458 1.160 . S
O461 Cd462 2.203 . S
Cd462 O461 2.203 . S
Cd462 O464 2.411 . S
Cd462 O465 2.333 . S
Cd462 O466 2.352 . S
Cd462 O470 2.277 . S
Cd462 O471 2.356 . S
C463 O468 1.209 . S
C463 O470 1.226 . S
O464 Cd460 2.273 . S
O464 Cd462 2.411 . S
O464 C467 1.320 . S
O465 Cd462 2.333 . S
O465 C467 1.214 . S
O466 Cd462 2.352 . S
O466 C469 1.258 . S
C467 O464 1.320 . S
C467 O465 1.214 . S
O468 Cd460 2.277 . S
O468 C463 1.209 . S
C469 O466 1.258 . S
C469 O471 1.282 . S
O470 Cd462 2.277 . S
O470 C463 1.226 . S
O471 Cd462 2.356 . S
O471 C469 1.282 . S
C472 O473 1.306 . S
C472 O475 1.160 . S
O473 C472 1.306 . S
O473 Cd474 2.228 . S
Cd474 O473 2.228 . S
Cd474 O478 2.273 . S
Cd474 O482 2.277 . S
O475 C472 1.160 . S
O475 Cd476 2.203 . S
Cd476 O475 2.203 . S
Cd476 O478 2.411 . S
Cd476 O479 2.333 . S
Cd476 O480 2.352 . S
Cd476 O484 2.277 . S
Cd476 O485 2.356 . S
C477 O482 1.209 . S
C477 O484 1.226 . S
O478 Cd474 2.273 . S
O478 Cd476 2.411 . S
O478 C481 1.320 . S
O479 Cd476 2.333 . S
O479 C481 1.214 . S
O480 Cd476 2.352 . S
O480 C483 1.258 . S
C481 O478 1.320 . S
C481 O479 1.214 . S
O482 Cd474 2.277 . S
O482 C477 1.209 . S
C483 O480 1.258 . S
C483 O485 1.282 . S
O484 Cd476 2.277 . S
O484 C477 1.226 . S
O485 Cd476 2.356 . S
O485 C483 1.282 . S
C486 O487 1.306 . S
C486 O489 1.160 . S
O487 C486 1.306 . S
O487 Cd488 2.228 . S
Cd488 O487 2.228 . S
Cd488 O492 2.273 . S
Cd488 O496 2.277 . S
O489 C486 1.160 . S
O489 Cd490 2.203 . S
Cd490 O489 2.203 . S
Cd490 O492 2.411 . S
Cd490 O493 2.333 . S
Cd490 O494 2.352 . S
Cd490 O498 2.277 . S
Cd490 O499 2.356 . S
C491 O496 1.209 . S
C491 O498 1.226 . S
O492 Cd488 2.273 . S
O492 Cd490 2.411 . S
O492 C495 1.320 . S
O493 Cd490 2.333 . S
O493 C495 1.214 . S
O494 Cd490 2.352 . S
O494 C497 1.258 . S
C495 O492 1.320 . S
C495 O493 1.214 . S
O496 Cd488 2.277 . S
O496 C491 1.209 . S
C497 O494 1.258 . S
C497 O499 1.282 . S
O498 Cd490 2.277 . S
O498 C491 1.226 . S
O499 Cd490 2.356 . S
O499 C497 1.282 . S
C500 O501 1.306 . S
C500 O503 1.160 . S
O501 C500 1.306 . S
O501 Cd502 2.228 . S
Cd502 O501 2.228 . S
Cd502 O506 2.273 . S
Cd502 O510 2.277 . S
O503 C500 1.160 . S
O503 Cd504 2.203 . S
Cd504 O503 2.203 . S
Cd504 O506 2.411 . S
Cd504 O507 2.333 . S
Cd504 O508 2.352 . S
Cd504 O512 2.277 . S
Cd504 O513 2.356 . S
C505 O510 1.209 . S
C505 O512 1.226 . S
O506 Cd502 2.273 . S
O506 Cd504 2.411 . S
O506 C509 1.320 . S
O507 Cd504 2.333 . S
O507 C509 1.214 . S
O508 Cd504 2.352 . S
O508 C511 1.258 . S
C509 O506 1.320 . S
C509 O507 1.214 . S
O510 Cd502 2.277 . S
O510 C505 1.209 . S
C511 O508 1.258 . S
C511 O513 1.282 . S
O512 Cd504 2.277 . S
O512 C505 1.226 . S
O513 Cd504 2.356 . S
O513 C511 1.282 . S
C514 O515 1.306 . S
C514 O517 1.160 . S
O515 C514 1.306 . S
O515 Cd516 2.228 . S
Cd516 O515 2.228 . S
Cd516 O520 2.273 . S
Cd516 O524 2.277 . S
O517 C514 1.160 . S
O517 Cd518 2.203 . S
Cd518 O517 2.203 . S
Cd518 O520 2.411 . S
Cd518 O521 2.333 . S
Cd518 O522 2.352 . S
Cd518 O526 2.277 . S
Cd518 O527 2.356 . S
C519 O524 1.209 . S
C519 O526 1.226 . S
O520 Cd516 2.273 . S
O520 Cd518 2.411 . S
O520 C523 1.320 . S
O521 Cd518 2.333 . S
O521 C523 1.214 . S
O522 Cd518 2.352 . S
O522 C525 1.258 . S
C523 O520 1.320 . S
C523 O521 1.214 . S
O524 Cd516 2.277 . S
O524 C519 1.209 . S
C525 O522 1.258 . S
C525 O527 1.282 . S
O526 Cd518 2.277 . S
O526 C519 1.226 . S
O527 Cd518 2.356 . S
O527 C525 1.282 . S
H528 C546 0.951 . S
H529 C548 0.951 . S
H530 C550 0.950 . S
H531 C551 0.950 . S
H532 C553 0.950 . S
H533 C556 0.950 . S
H534 C557 0.950 . S
H535 C559 0.950 . S
H536 C560 0.950 . S
H537 C561 0.951 . S
H538 C563 0.951 . S
H539 C565 0.950 . S
H540 C566 0.950 . S
H541 C568 0.950 . S
H542 C571 0.950 . S
H543 C572 0.950 . S
H544 C574 0.950 . S
H545 C575 0.950 . S
C546 H528 0.951 . S
C546 C547 1.366 . S
C546 C548 1.388 . S
C547 C546 1.366 . S
C547 C551 1.385 . S
C548 H529 0.951 . S
C548 C546 1.388 . S
C548 C549 1.366 . S
C549 C548 1.366 . S
C549 C550 1.414 . S
C549 C552 1.499 . S
C550 H530 0.950 . S
C550 C549 1.414 . S
C550 C551 1.374 . S
C551 H531 0.950 . S
C551 C547 1.385 . S
C551 C550 1.374 . S
C552 C549 1.499 . S
C552 C553 1.373 . S
C552 C554 1.389 . S
C553 H532 0.950 . S
C553 C552 1.373 . S
C553 C569 1.377 . S
C554 C552 1.389 . S
C554 C555 1.524 . S
C554 C568 1.377 . S
C555 C554 1.524 . S
C555 C556 1.397 . S
C555 C560 1.363 . S
C556 H533 0.950 . S
C556 C555 1.397 . S
C556 C557 1.334 . S
C557 H534 0.950 . S
C557 C556 1.334 . S
C557 C558 1.287 . S
C558 C557 1.287 . S
C558 C559 1.524 . S
C558 H577 0.913 . S
C559 H535 0.950 . S
C559 C558 1.524 . S
C559 C560 1.415 . S
C560 H536 0.950 . S
C560 C555 1.363 . S
C560 C559 1.415 . S
C561 H537 0.951 . S
C561 C562 1.366 . S
C561 C563 1.388 . S
C562 C561 1.366 . S
C562 C566 1.385 . S
C563 H538 0.951 . S
C563 C561 1.388 . S
C563 C564 1.366 . S
C564 C563 1.366 . S
C564 C565 1.414 . S
C564 C567 1.499 . S
C565 H539 0.950 . S
C565 C564 1.414 . S
C565 C566 1.374 . S
C566 H540 0.950 . S
C566 C562 1.385 . S
C566 C565 1.374 . S
C567 C564 1.499 . S
C567 C568 1.373 . S
C567 C569 1.389 . S
C568 H541 0.950 . S
C568 C554 1.377 . S
C568 C567 1.373 . S
C569 C553 1.377 . S
C569 C567 1.389 . S
C569 C570 1.524 . S
C570 C569 1.524 . S
C570 C571 1.397 . S
C570 C575 1.363 . S
C571 H542 0.950 . S
C571 C570 1.397 . S
C571 C572 1.334 . S
C572 H543 0.950 . S
C572 C571 1.334 . S
C572 C573 1.287 . S
C573 C572 1.287 . S
C573 C574 1.524 . S
C573 H576 0.999 . S
C574 H544 0.950 . S
C574 C573 1.524 . S
C574 C575 1.415 . S
C575 H545 0.950 . S
C575 C570 1.363 . S
C575 C574 1.415 . S
H576 C573 0.999 . S
H577 C558 0.913 . S
H578 C596 0.951 . S
H579 C598 0.951 . S
H580 C600 0.950 . S
H581 C601 0.950 . S
H582 C603 0.950 . S
H583 C606 0.950 . S
H584 C607 0.950 . S
H585 C609 0.950 . S
H586 C610 0.950 . S
H587 C611 0.951 . S
H588 C613 0.951 . S
H589 C615 0.950 . S
H590 C616 0.950 . S
H591 C618 0.950 . S
H592 C621 0.950 . S
H593 C622 0.950 . S
H594 C624 0.950 . S
H595 C625 0.950 . S
C596 H578 0.951 . S
C596 C597 1.366 . S
C596 C598 1.388 . S
C597 C596 1.366 . S
C597 C601 1.385 . S
C598 H579 0.951 . S
C598 C596 1.388 . S
C598 C599 1.366 . S
C599 C598 1.366 . S
C599 C600 1.414 . S
C599 C602 1.499 . S
C600 H580 0.950 . S
C600 C599 1.414 . S
C600 C601 1.374 . S
C601 H581 0.950 . S
C601 C597 1.385 . S
C601 C600 1.374 . S
C602 C599 1.499 . S
C602 C603 1.373 . S
C602 C604 1.389 . S
C603 H582 0.950 . S
C603 C602 1.373 . S
C603 C619 1.377 . S
C604 C602 1.389 . S
C604 C605 1.524 . S
C604 C618 1.377 . S
C605 C604 1.524 . S
C605 C606 1.397 . S
C605 C610 1.363 . S
C606 H583 0.950 . S
C606 C605 1.397 . S
C606 C607 1.334 . S
C607 H584 0.950 . S
C607 C606 1.334 . S
C607 C608 1.287 . S
C608 C607 1.287 . S
C608 C609 1.524 . S
C608 H627 0.913 . S
C609 H585 0.950 . S
C609 C608 1.524 . S
C609 C610 1.415 . S
C610 H586 0.950 . S
C610 C605 1.363 . S
C610 C609 1.415 . S
C611 H587 0.951 . S
C611 C612 1.366 . S
C611 C613 1.388 . S
C612 C611 1.366 . S
C612 C616 1.385 . S
C613 H588 0.951 . S
C613 C611 1.388 . S
C613 C614 1.366 . S
C614 C613 1.366 . S
C614 C615 1.414 . S
C614 C617 1.499 . S
C615 H589 0.950 . S
C615 C614 1.414 . S
C615 C616 1.374 . S
C616 H590 0.950 . S
C616 C612 1.385 . S
C616 C615 1.374 . S
C617 C614 1.499 . S
C617 C618 1.373 . S
C617 C619 1.389 . S
C618 H591 0.950 . S
C618 C604 1.377 . S
C618 C617 1.373 . S
C619 C603 1.377 . S
C619 C617 1.389 . S
C619 C620 1.524 . S
C620 C619 1.524 . S
C620 C621 1.397 . S
C620 C625 1.363 . S
C621 H592 0.950 . S
C621 C620 1.397 . S
C621 C622 1.334 . S
C622 H593 0.950 . S
C622 C621 1.334 . S
C622 C623 1.287 . S
C623 C622 1.287 . S
C623 C624 1.524 . S
C623 H626 0.999 . S
C624 H594 0.950 . S
C624 C623 1.524 . S
C624 C625 1.415 . S
C625 H595 0.950 . S
C625 C620 1.363 . S
C625 C624 1.415 . S
H626 C623 0.999 . S
H627 C608 0.913 . S
H628 C646 0.951 . S
H629 C648 0.951 . S
H630 C650 0.950 . S
H631 C651 0.950 . S
H632 C653 0.950 . S
H633 C656 0.950 . S
H634 C657 0.950 . S
H635 C659 0.950 . S
H636 C660 0.950 . S
H637 C661 0.951 . S
H638 C663 0.951 . S
H639 C665 0.950 . S
H640 C666 0.950 . S
H641 C668 0.950 . S
H642 C671 0.950 . S
H643 C672 0.950 . S
H644 C674 0.950 . S
H645 C675 0.950 . S
C646 H628 0.951 . S
C646 C647 1.366 . S
C646 C648 1.388 . S
C647 C646 1.366 . S
C647 C651 1.385 . S
C648 H629 0.951 . S
C648 C646 1.388 . S
C648 C649 1.366 . S
C649 C648 1.366 . S
C649 C650 1.414 . S
C649 C652 1.499 . S
C650 H630 0.950 . S
C650 C649 1.414 . S
C650 C651 1.374 . S
C651 H631 0.950 . S
C651 C647 1.385 . S
C651 C650 1.374 . S
C652 C649 1.499 . S
C652 C653 1.373 . S
C652 C654 1.389 . S
C653 H632 0.950 . S
C653 C652 1.373 . S
C653 C669 1.377 . S
C654 C652 1.389 . S
C654 C655 1.524 . S
C654 C668 1.377 . S
C655 C654 1.524 . S
C655 C656 1.397 . S
C655 C660 1.363 . S
C656 H633 0.950 . S
C656 C655 1.397 . S
C656 C657 1.334 . S
C657 H634 0.950 . S
C657 C656 1.334 . S
C657 C658 1.287 . S
C658 C657 1.287 . S
C658 C659 1.524 . S
C658 H677 0.913 . S
C659 H635 0.950 . S
C659 C658 1.524 . S
C659 C660 1.415 . S
C660 H636 0.950 . S
C660 C655 1.363 . S
C660 C659 1.415 . S
C661 H637 0.951 . S
C661 C662 1.366 . S
C661 C663 1.388 . S
C662 C661 1.366 . S
C662 C666 1.385 . S
C663 H638 0.951 . S
C663 C661 1.388 . S
C663 C664 1.366 . S
C664 C663 1.366 . S
C664 C665 1.414 . S
C664 C667 1.499 . S
C665 H639 0.950 . S
C665 C664 1.414 . S
C665 C666 1.374 . S
C666 H640 0.950 . S
C666 C662 1.385 . S
C666 C665 1.374 . S
C667 C664 1.499 . S
C667 C668 1.373 . S
C667 C669 1.389 . S
C668 H641 0.950 . S
C668 C654 1.377 . S
C668 C667 1.373 . S
C669 C653 1.377 . S
C669 C667 1.389 . S
C669 C670 1.524 . S
C670 C669 1.524 . S
C670 C671 1.397 . S
C670 C675 1.363 . S
C671 H642 0.950 . S
C671 C670 1.397 . S
C671 C672 1.334 . S
C672 H643 0.950 . S
C672 C671 1.334 . S
C672 C673 1.287 . S
C673 C672 1.287 . S
C673 C674 1.524 . S
C673 H676 0.999 . S
C674 H644 0.950 . S
C674 C673 1.524 . S
C674 C675 1.415 . S
C675 H645 0.950 . S
C675 C670 1.363 . S
C675 C674 1.415 . S
H676 C673 0.999 . S
H677 C658 0.913 . S
H678 C696 0.951 . S
H679 C698 0.951 . S
H680 C700 0.950 . S
H681 C701 0.950 . S
H682 C703 0.950 . S
H683 C706 0.950 . S
H684 C707 0.950 . S
H685 C709 0.950 . S
H686 C710 0.950 . S
H687 C711 0.951 . S
H688 C713 0.951 . S
H689 C715 0.950 . S
H690 C716 0.950 . S
H691 C718 0.950 . S
H692 C721 0.950 . S
H693 C722 0.950 . S
H694 C724 0.950 . S
H695 C725 0.950 . S
C696 H678 0.951 . S
C696 C697 1.366 . S
C696 C698 1.388 . S
C697 C696 1.366 . S
C697 C701 1.385 . S
C698 H679 0.951 . S
C698 C696 1.388 . S
C698 C699 1.366 . S
C699 C698 1.366 . S
C699 C700 1.414 . S
C699 C702 1.499 . S
C700 H680 0.950 . S
C700 C699 1.414 . S
C700 C701 1.374 . S
C701 H681 0.950 . S
C701 C697 1.385 . S
C701 C700 1.374 . S
C702 C699 1.499 . S
C702 C703 1.373 . S
C702 C704 1.389 . S
C703 H682 0.950 . S
C703 C702 1.373 . S
C703 C719 1.377 . S
C704 C702 1.389 . S
C704 C705 1.524 . S
C704 C718 1.377 . S
C705 C704 1.524 . S
C705 C706 1.397 . S
C705 C710 1.363 . S
C706 H683 0.950 . S
C706 C705 1.397 . S
C706 C707 1.334 . S
C707 H684 0.950 . S
C707 C706 1.334 . S
C707 C708 1.287 . S
C708 C707 1.287 . S
C708 C709 1.524 . S
C708 H727 0.913 . S
C709 H685 0.950 . S
C709 C708 1.524 . S
C709 C710 1.415 . S
C710 H686 0.950 . S
C710 C705 1.363 . S
C710 C709 1.415 . S
C711 H687 0.951 . S
C711 C712 1.366 . S
C711 C713 1.388 . S
C712 C711 1.366 . S
C712 C716 1.385 . S
C713 H688 0.951 . S
C713 C711 1.388 . S
C713 C714 1.366 . S
C714 C713 1.366 . S
C714 C715 1.414 . S
C714 C717 1.499 . S
C715 H689 0.950 . S
C715 C714 1.414 . S
C715 C716 1.374 . S
C716 H690 0.950 . S
C716 C712 1.385 . S
C716 C715 1.374 . S
C717 C714 1.499 . S
C717 C718 1.373 . S
C717 C719 1.389 . S
C718 H691 0.950 . S
C718 C704 1.377 . S
C718 C717 1.373 . S
C719 C703 1.377 . S
C719 C717 1.389 . S
C719 C720 1.524 . S
C720 C719 1.524 . S
C720 C721 1.397 . S
C720 C725 1.363 . S
C721 H692 0.950 . S
C721 C720 1.397 . S
C721 C722 1.334 . S
C722 H693 0.950 . S
C722 C721 1.334 . S
C722 C723 1.287 . S
C723 C722 1.287 . S
C723 C724 1.524 . S
C723 H726 0.999 . S
C724 H694 0.950 . S
C724 C723 1.524 . S
C724 C725 1.415 . S
C725 H695 0.950 . S
C725 C720 1.363 . S
C725 C724 1.415 . S
H726 C723 0.999 . S
H727 C708 0.913 . S
H728 C746 0.951 . S
H729 C748 0.951 . S
H730 C750 0.950 . S
H731 C751 0.950 . S
H732 C753 0.950 . S
H733 C756 0.950 . S
H734 C757 0.950 . S
H735 C759 0.950 . S
H736 C760 0.950 . S
H737 C761 0.951 . S
H738 C763 0.951 . S
H739 C765 0.950 . S
H740 C766 0.950 . S
H741 C768 0.950 . S
H742 C771 0.950 . S
H743 C772 0.950 . S
H744 C774 0.950 . S
H745 C775 0.950 . S
C746 H728 0.951 . S
C746 C747 1.366 . S
C746 C748 1.388 . S
C747 C746 1.366 . S
C747 C751 1.385 . S
C748 H729 0.951 . S
C748 C746 1.388 . S
C748 C749 1.366 . S
C749 C748 1.366 . S
C749 C750 1.414 . S
C749 C752 1.499 . S
C750 H730 0.950 . S
C750 C749 1.414 . S
C750 C751 1.374 . S
C751 H731 0.950 . S
C751 C747 1.385 . S
C751 C750 1.374 . S
C752 C749 1.499 . S
C752 C753 1.373 . S
C752 C754 1.389 . S
C753 H732 0.950 . S
C753 C752 1.373 . S
C753 C769 1.377 . S
C754 C752 1.389 . S
C754 C755 1.524 . S
C754 C768 1.377 . S
C755 C754 1.524 . S
C755 C756 1.397 . S
C755 C760 1.363 . S
C756 H733 0.950 . S
C756 C755 1.397 . S
C756 C757 1.334 . S
C757 H734 0.950 . S
C757 C756 1.334 . S
C757 C758 1.287 . S
C758 C757 1.287 . S
C758 C759 1.524 . S
C758 H777 0.913 . S
C759 H735 0.950 . S
C759 C758 1.524 . S
C759 C760 1.415 . S
C760 H736 0.950 . S
C760 C755 1.363 . S
C760 C759 1.415 . S
C761 H737 0.951 . S
C761 C762 1.366 . S
C761 C763 1.388 . S
C762 C761 1.366 . S
C762 C766 1.385 . S
C763 H738 0.951 . S
C763 C761 1.388 . S
C763 C764 1.366 . S
C764 C763 1.366 . S
C764 C765 1.414 . S
C764 C767 1.499 . S
C765 H739 0.950 . S
C765 C764 1.414 . S
C765 C766 1.374 . S
C766 H740 0.950 . S
C766 C762 1.385 . S
C766 C765 1.374 . S
C767 C764 1.499 . S
C767 C768 1.373 . S
C767 C769 1.389 . S
C768 H741 0.950 . S
C768 C754 1.377 . S
C768 C767 1.373 . S
C769 C753 1.377 . S
C769 C767 1.389 . S
C769 C770 1.524 . S
C770 C769 1.524 . S
C770 C771 1.397 . S
C770 C775 1.363 . S
C771 H742 0.950 . S
C771 C770 1.397 . S
C771 C772 1.334 . S
C772 H743 0.950 . S
C772 C771 1.334 . S
C772 C773 1.287 . S
C773 C772 1.287 . S
C773 C774 1.524 . S
C773 H776 0.999 . S
C774 H744 0.950 . S
C774 C773 1.524 . S
C774 C775 1.415 . S
C775 H745 0.950 . S
C775 C770 1.363 . S
C775 C774 1.415 . S
H776 C773 0.999 . S
H777 C758 0.913 . S
H778 C796 0.951 . S
H779 C798 0.951 . S
H780 C800 0.950 . S
H781 C801 0.950 . S
H782 C803 0.950 . S
H783 C806 0.950 . S
H784 C807 0.950 . S
H785 C809 0.950 . S
H786 C810 0.950 . S
H787 C811 0.951 . S
H788 C813 0.951 . S
H789 C815 0.950 . S
H790 C816 0.950 . S
H791 C818 0.950 . S
H792 C821 0.950 . S
H793 C822 0.950 . S
H794 C824 0.950 . S
H795 C825 0.950 . S
C796 H778 0.951 . S
C796 C797 1.366 . S
C796 C798 1.388 . S
C797 C796 1.366 . S
C797 C801 1.385 . S
C798 H779 0.951 . S
C798 C796 1.388 . S
C798 C799 1.366 . S
C799 C798 1.366 . S
C799 C800 1.414 . S
C799 C802 1.499 . S
C800 H780 0.950 . S
C800 C799 1.414 . S
C800 C801 1.374 . S
C801 H781 0.950 . S
C801 C797 1.385 . S
C801 C800 1.374 . S
C802 C799 1.499 . S
C802 C803 1.373 . S
C802 C804 1.389 . S
C803 H782 0.950 . S
C803 C802 1.373 . S
C803 C819 1.377 . S
C804 C802 1.389 . S
C804 C805 1.524 . S
C804 C818 1.377 . S
C805 C804 1.524 . S
C805 C806 1.397 . S
C805 C810 1.363 . S
C806 H783 0.950 . S
C806 C805 1.397 . S
C806 C807 1.334 . S
C807 H784 0.950 . S
C807 C806 1.334 . S
C807 C808 1.287 . S
C808 C807 1.287 . S
C808 C809 1.524 . S
C808 H827 0.913 . S
C809 H785 0.950 . S
C809 C808 1.524 . S
C809 C810 1.415 . S
C810 H786 0.950 . S
C810 C805 1.363 . S
C810 C809 1.415 . S
C811 H787 0.951 . S
C811 C812 1.366 . S
C811 C813 1.388 . S
C812 C811 1.366 . S
C812 C816 1.385 . S
C813 H788 0.951 . S
C813 C811 1.388 . S
C813 C814 1.366 . S
C814 C813 1.366 . S
C814 C815 1.414 . S
C814 C817 1.499 . S
C815 H789 0.950 . S
C815 C814 1.414 . S
C815 C816 1.374 . S
C816 H790 0.950 . S
C816 C812 1.385 . S
C816 C815 1.374 . S
C817 C814 1.499 . S
C817 C818 1.373 . S
C817 C819 1.389 . S
C818 H791 0.950 . S
C818 C804 1.377 . S
C818 C817 1.373 . S
C819 C803 1.377 . S
C819 C817 1.389 . S
C819 C820 1.524 . S
C820 C819 1.524 . S
C820 C821 1.397 . S
C820 C825 1.363 . S
C821 H792 0.950 . S
C821 C820 1.397 . S
C821 C822 1.334 . S
C822 H793 0.950 . S
C822 C821 1.334 . S
C822 C823 1.287 . S
C823 C822 1.287 . S
C823 C824 1.524 . S
C823 H826 0.999 . S
C824 H794 0.950 . S
C824 C823 1.524 . S
C824 C825 1.415 . S
C825 H795 0.950 . S
C825 C820 1.363 . S
C825 C824 1.415 . S
H826 C823 0.999 . S
H827 C808 0.913 . S
H828 C846 0.951 . S
H829 C848 0.951 . S
H830 C850 0.950 . S
H831 C851 0.950 . S
H832 C853 0.950 . S
H833 C856 0.950 . S
H834 C857 0.950 . S
H835 C859 0.950 . S
H836 C860 0.950 . S
H837 C861 0.951 . S
H838 C863 0.951 . S
H839 C865 0.950 . S
H840 C866 0.950 . S
H841 C868 0.950 . S
H842 C871 0.950 . S
H843 C872 0.950 . S
H844 C874 0.950 . S
H845 C875 0.950 . S
C846 H828 0.951 . S
C846 C847 1.366 . S
C846 C848 1.388 . S
C847 C846 1.366 . S
C847 C851 1.385 . S
C848 H829 0.951 . S
C848 C846 1.388 . S
C848 C849 1.366 . S
C849 C848 1.366 . S
C849 C850 1.414 . S
C849 C852 1.499 . S
C850 H830 0.950 . S
C850 C849 1.414 . S
C850 C851 1.374 . S
C851 H831 0.950 . S
C851 C847 1.385 . S
C851 C850 1.374 . S
C852 C849 1.499 . S
C852 C853 1.373 . S
C852 C854 1.389 . S
C853 H832 0.950 . S
C853 C852 1.373 . S
C853 C869 1.377 . S
C854 C852 1.389 . S
C854 C855 1.524 . S
C854 C868 1.377 . S
C855 C854 1.524 . S
C855 C856 1.397 . S
C855 C860 1.363 . S
C856 H833 0.950 . S
C856 C855 1.397 . S
C856 C857 1.334 . S
C857 H834 0.950 . S
C857 C856 1.334 . S
C857 C858 1.287 . S
C858 C857 1.287 . S
C858 C859 1.524 . S
C858 H877 0.913 . S
C859 H835 0.950 . S
C859 C858 1.524 . S
C859 C860 1.415 . S
C860 H836 0.950 . S
C860 C855 1.363 . S
C860 C859 1.415 . S
C861 H837 0.951 . S
C861 C862 1.366 . S
C861 C863 1.388 . S
C862 C861 1.366 . S
C862 C866 1.385 . S
C863 H838 0.951 . S
C863 C861 1.388 . S
C863 C864 1.366 . S
C864 C863 1.366 . S
C864 C865 1.414 . S
C864 C867 1.499 . S
C865 H839 0.950 . S
C865 C864 1.414 . S
C865 C866 1.374 . S
C866 H840 0.950 . S
C866 C862 1.385 . S
C866 C865 1.374 . S
C867 C864 1.499 . S
C867 C868 1.373 . S
C867 C869 1.389 . S
C868 H841 0.950 . S
C868 C854 1.377 . S
C868 C867 1.373 . S
C869 C853 1.377 . S
C869 C867 1.389 . S
C869 C870 1.524 . S
C870 C869 1.524 . S
C870 C871 1.397 . S
C870 C875 1.363 . S
C871 H842 0.950 . S
C871 C870 1.397 . S
C871 C872 1.334 . S
C872 H843 0.950 . S
C872 C871 1.334 . S
C872 C873 1.287 . S
C873 C872 1.287 . S
C873 C874 1.524 . S
C873 H876 0.999 . S
C874 H844 0.950 . S
C874 C873 1.524 . S
C874 C875 1.415 . S
C875 H845 0.950 . S
C875 C870 1.363 . S
C875 C874 1.415 . S
H876 C873 0.999 . S
H877 C858 0.913 . S
H878 C896 0.951 . S
H879 C898 0.951 . S
H880 C900 0.950 . S
H881 C901 0.950 . S
H882 C903 0.950 . S
H883 C906 0.950 . S
H884 C907 0.950 . S
H885 C909 0.950 . S
H886 C910 0.950 . S
H887 C911 0.951 . S
H888 C913 0.951 . S
H889 C915 0.950 . S
H890 C916 0.950 . S
H891 C918 0.950 . S
H892 C921 0.950 . S
H893 C922 0.950 . S
H894 C924 0.950 . S
H895 C925 0.950 . S
C896 H878 0.951 . S
C896 C897 1.366 . S
C896 C898 1.388 . S
C897 C896 1.366 . S
C897 C901 1.385 . S
C898 H879 0.951 . S
C898 C896 1.388 . S
C898 C899 1.366 . S
C899 C898 1.366 . S
C899 C900 1.414 . S
C899 C902 1.499 . S
C900 H880 0.950 . S
C900 C899 1.414 . S
C900 C901 1.374 . S
C901 H881 0.950 . S
C901 C897 1.385 . S
C901 C900 1.374 . S
C902 C899 1.499 . S
C902 C903 1.373 . S
C902 C904 1.389 . S
C903 H882 0.950 . S
C903 C902 1.373 . S
C903 C919 1.377 . S
C904 C902 1.389 . S
C904 C905 1.524 . S
C904 C918 1.377 . S
C905 C904 1.524 . S
C905 C906 1.397 . S
C905 C910 1.363 . S
C906 H883 0.950 . S
C906 C905 1.397 . S
C906 C907 1.334 . S
C907 H884 0.950 . S
C907 C906 1.334 . S
C907 C908 1.287 . S
C908 C907 1.287 . S
C908 C909 1.524 . S
C908 H927 0.913 . S
C909 H885 0.950 . S
C909 C908 1.524 . S
C909 C910 1.415 . S
C910 H886 0.950 . S
C910 C905 1.363 . S
C910 C909 1.415 . S
C911 H887 0.951 . S
C911 C912 1.366 . S
C911 C913 1.388 . S
C912 C911 1.366 . S
C912 C916 1.385 . S
C913 H888 0.951 . S
C913 C911 1.388 . S
C913 C914 1.366 . S
C914 C913 1.366 . S
C914 C915 1.414 . S
C914 C917 1.499 . S
C915 H889 0.950 . S
C915 C914 1.414 . S
C915 C916 1.374 . S
C916 H890 0.950 . S
C916 C912 1.385 . S
C916 C915 1.374 . S
C917 C914 1.499 . S
C917 C918 1.373 . S
C917 C919 1.389 . S
C918 H891 0.950 . S
C918 C904 1.377 . S
C918 C917 1.373 . S
C919 C903 1.377 . S
C919 C917 1.389 . S
C919 C920 1.524 . S
C920 C919 1.524 . S
C920 C921 1.397 . S
C920 C925 1.363 . S
C921 H892 0.950 . S
C921 C920 1.397 . S
C921 C922 1.334 . S
C922 H893 0.950 . S
C922 C921 1.334 . S
C922 C923 1.287 . S
C923 C922 1.287 . S
C923 C924 1.524 . S
C923 H926 0.999 . S
C924 H894 0.950 . S
C924 C923 1.524 . S
C924 C925 1.415 . S
C925 H895 0.950 . S
C925 C920 1.363 . S
C925 C924 1.415 . S
H926 C923 0.999 . S
H927 C908 0.913 . S
H928 C946 0.951 . S
H929 C948 0.951 . S
H930 C950 0.950 . S
H931 C951 0.950 . S
H932 C953 0.950 . S
H933 C956 0.950 . S
H934 C957 0.950 . S
H935 C959 0.950 . S
H936 C960 0.950 . S
H937 C961 0.951 . S
H938 C963 0.951 . S
H939 C965 0.950 . S
H940 C966 0.950 . S
H941 C968 0.950 . S
H942 C971 0.950 . S
H943 C972 0.950 . S
H944 C974 0.950 . S
H945 C975 0.950 . S
C946 H928 0.951 . S
C946 C947 1.366 . S
C946 C948 1.388 . S
C947 C946 1.366 . S
C947 C951 1.385 . S
C948 H929 0.951 . S
C948 C946 1.388 . S
C948 C949 1.366 . S
C949 C948 1.366 . S
C949 C950 1.414 . S
C949 C952 1.499 . S
C950 H930 0.950 . S
C950 C949 1.414 . S
C950 C951 1.374 . S
C951 H931 0.950 . S
C951 C947 1.385 . S
C951 C950 1.374 . S
C952 C949 1.499 . S
C952 C953 1.373 . S
C952 C954 1.389 . S
C953 H932 0.950 . S
C953 C952 1.373 . S
C953 C969 1.377 . S
C954 C952 1.389 . S
C954 C955 1.524 . S
C954 C968 1.377 . S
C955 C954 1.524 . S
C955 C956 1.397 . S
C955 C960 1.363 . S
C956 H933 0.950 . S
C956 C955 1.397 . S
C956 C957 1.334 . S
C957 H934 0.950 . S
C957 C956 1.334 . S
C957 C958 1.287 . S
C958 C957 1.287 . S
C958 C959 1.524 . S
C958 H977 0.913 . S
C959 H935 0.950 . S
C959 C958 1.524 . S
C959 C960 1.415 . S
C960 H936 0.950 . S
C960 C955 1.363 . S
C960 C959 1.415 . S
C961 H937 0.951 . S
C961 C962 1.366 . S
C961 C963 1.388 . S
C962 C961 1.366 . S
C962 C966 1.385 . S
C963 H938 0.951 . S
C963 C961 1.388 . S
C963 C964 1.366 . S
C964 C963 1.366 . S
C964 C965 1.414 . S
C964 C967 1.499 . S
C965 H939 0.950 . S
C965 C964 1.414 . S
C965 C966 1.374 . S
C966 H940 0.950 . S
C966 C962 1.385 . S
C966 C965 1.374 . S
C967 C964 1.499 . S
C967 C968 1.373 . S
C967 C969 1.389 . S
C968 H941 0.950 . S
C968 C954 1.377 . S
C968 C967 1.373 . S
C969 C953 1.377 . S
C969 C967 1.389 . S
C969 C970 1.524 . S
C970 C969 1.524 . S
C970 C971 1.397 . S
C970 C975 1.363 . S
C971 H942 0.950 . S
C971 C970 1.397 . S
C971 C972 1.334 . S
C972 H943 0.950 . S
C972 C971 1.334 . S
C972 C973 1.287 . S
C973 C972 1.287 . S
C973 C974 1.524 . S
C973 H976 0.999 . S
C974 H944 0.950 . S
C974 C973 1.524 . S
C974 C975 1.415 . S
C975 H945 0.950 . S
C975 C970 1.363 . S
C975 C974 1.415 . S
H976 C973 0.999 . S
H977 C958 0.913 . S
H978 C996 0.951 . S
H979 C998 0.951 . S
H980 C1000 0.950 . S
H981 C1001 0.950 . S
H982 C1003 0.950 . S
H983 C1006 0.950 . S
H984 C1007 0.950 . S
H985 C1009 0.950 . S
H986 C1010 0.950 . S
H987 C1011 0.951 . S
H988 C1013 0.951 . S
H989 C1015 0.950 . S
H990 C1016 0.950 . S
H991 C1018 0.950 . S
H992 C1021 0.950 . S
H993 C1022 0.927 1_556 S
H994 C1024 0.950 . S
H995 C1025 0.950 . S
C996 H978 0.951 . S
C996 C997 1.366 . S
C996 C998 1.388 . S
C997 C996 1.366 . S
C997 C1001 1.385 . S
C998 H979 0.951 . S
C998 C996 1.388 . S
C998 C999 1.366 . S
C999 C998 1.366 . S
C999 C1000 1.414 . S
C999 C1002 1.499 . S
C1000 H980 0.950 . S
C1000 C999 1.414 . S
C1000 C1001 1.374 . S
C1001 H981 0.950 . S
C1001 C997 1.385 . S
C1001 C1000 1.374 . S
C1002 C999 1.499 . S
C1002 C1003 1.373 . S
C1002 C1004 1.389 . S
C1003 H982 0.950 . S
C1003 C1002 1.373 . S
C1003 C1019 1.377 . S
C1004 C1002 1.389 . S
C1004 C1005 1.524 . S
C1004 C1018 1.377 . S
C1005 C1004 1.524 . S
C1005 C1006 1.397 . S
C1005 C1010 1.363 . S
C1006 H983 0.950 . S
C1006 C1005 1.397 . S
C1006 C1007 1.334 . S
C1007 H984 0.950 . S
C1007 C1006 1.334 . S
C1007 C1008 1.287 . S
C1008 C1007 1.287 . S
C1008 C1009 1.524 . S
C1008 H1027 0.913 . S
C1009 H985 0.950 . S
C1009 C1008 1.524 . S
C1009 C1010 1.415 . S
C1010 H986 0.950 . S
C1010 C1005 1.363 . S
C1010 C1009 1.415 . S
C1011 H987 0.951 . S
C1011 C1012 1.366 . S
C1011 C1013 1.388 . S
C1012 C1011 1.366 . S
C1012 C1016 1.385 . S
C1013 H988 0.951 . S
C1013 C1011 1.388 . S
C1013 C1014 1.366 . S
C1014 C1013 1.366 . S
C1014 C1015 1.414 . S
C1014 C1017 1.499 . S
C1015 H989 0.950 . S
C1015 C1014 1.414 . S
C1015 C1016 1.374 . S
C1016 H990 0.950 . S
C1016 C1012 1.385 . S
C1016 C1015 1.374 . S
C1017 C1014 1.499 . S
C1017 C1018 1.373 . S
C1017 C1019 1.389 . S
C1018 H991 0.950 . S
C1018 C1004 1.377 . S
C1018 C1017 1.373 . S
C1019 C1003 1.377 . S
C1019 C1017 1.389 . S
C1019 C1020 1.524 . S
C1020 C1019 1.524 . S
C1020 C1021 1.397 . S
C1020 C1025 1.363 . S
C1021 H992 0.950 . S
C1021 C1020 1.397 . S
C1021 C1022 1.334 . S
C1022 H993 0.927 1_554 S
C1022 C1021 1.334 . S
C1022 C1023 1.287 . S
C1023 C1022 1.287 . S
C1023 C1024 1.524 . S
C1023 H1026 0.999 . S
C1024 H994 0.950 . S
C1024 C1023 1.524 . S
C1024 C1025 1.415 . S
C1025 H995 0.950 . S
C1025 C1020 1.363 . S
C1025 C1024 1.415 . S
H1026 C1023 0.999 . S
H1027 C1008 0.913 . S
H1028 C1046 0.951 . S
H1029 C1048 0.951 . S
H1030 C1050 0.950 . S
H1031 C1051 0.950 . S
H1032 C1053 0.950 . S
H1033 C1056 0.950 . S
H1034 C1057 0.950 . S
H1035 C1059 0.950 . S
H1036 C1060 0.950 . S
H1037 C1061 0.951 . S
H1038 C1063 0.951 . S
H1039 C1065 0.950 . S
H1040 C1066 0.950 . S
H1041 C1068 0.950 . S
H1042 C1071 0.950 . S
H1043 C1072 0.950 . S
H1044 C1074 0.950 . S
H1045 C1075 0.950 . S
C1046 H1028 0.951 . S
C1046 C1047 1.366 . S
C1046 C1048 1.388 . S
C1047 C1046 1.366 . S
C1047 C1051 1.385 . S
C1048 H1029 0.951 . S
C1048 C1046 1.388 . S
C1048 C1049 1.366 . S
C1049 C1048 1.366 . S
C1049 C1050 1.414 . S
C1049 C1052 1.499 . S
C1050 H1030 0.950 . S
C1050 C1049 1.414 . S
C1050 C1051 1.374 . S
C1051 H1031 0.950 . S
C1051 C1047 1.385 . S
C1051 C1050 1.374 . S
C1052 C1049 1.499 . S
C1052 C1053 1.373 . S
C1052 C1054 1.389 . S
C1053 H1032 0.950 . S
C1053 C1052 1.373 . S
C1053 C1069 1.377 . S
C1054 C1052 1.389 . S
C1054 C1055 1.524 . S
C1054 C1068 1.377 . S
C1055 C1054 1.524 . S
C1055 C1056 1.397 . S
C1055 C1060 1.363 . S
C1056 H1033 0.950 . S
C1056 C1055 1.397 . S
C1056 C1057 1.334 . S
C1057 H1034 0.950 . S
C1057 C1056 1.334 . S
C1057 C1058 1.287 . S
C1058 C1057 1.287 . S
C1058 C1059 1.524 . S
C1058 H1077 0.913 . S
C1059 H1035 0.950 . S
C1059 C1058 1.524 . S
C1059 C1060 1.415 . S
C1060 H1036 0.950 . S
C1060 C1055 1.363 . S
C1060 C1059 1.415 . S
C1061 H1037 0.951 . S
C1061 C1062 1.366 . S
C1061 C1063 1.388 . S
C1062 C1061 1.366 . S
C1062 C1066 1.385 . S
C1063 H1038 0.951 . S
C1063 C1061 1.388 . S
C1063 C1064 1.366 . S
C1064 C1063 1.366 . S
C1064 C1065 1.414 . S
C1064 C1067 1.499 . S
C1065 H1039 0.950 . S
C1065 C1064 1.414 . S
C1065 C1066 1.374 . S
C1066 H1040 0.950 . S
C1066 C1062 1.385 . S
C1066 C1065 1.374 . S
C1067 C1064 1.499 . S
C1067 C1068 1.373 . S
C1067 C1069 1.389 . S
C1068 H1041 0.950 . S
C1068 C1054 1.377 . S
C1068 C1067 1.373 . S
C1069 C1053 1.377 . S
C1069 C1067 1.389 . S
C1069 C1070 1.524 . S
C1070 C1069 1.524 . S
C1070 C1071 1.397 . S
C1070 C1075 1.363 . S
C1071 H1042 0.950 . S
C1071 C1070 1.397 . S
C1071 C1072 1.334 . S
C1072 H1043 0.950 . S
C1072 C1071 1.334 . S
C1072 C1073 1.287 . S
C1073 C1072 1.287 . S
C1073 C1074 1.524 . S
C1073 H1076 0.999 . S
C1074 H1044 0.950 . S
C1074 C1073 1.524 . S
C1074 C1075 1.415 . S
C1075 H1045 0.950 . S
C1075 C1070 1.363 . S
C1075 C1074 1.415 . S
H1076 C1073 0.999 . S
H1077 C1058 0.913 . S
H1078 C1096 0.951 . S
H1079 C1098 0.951 . S
H1080 C1100 0.950 . S
H1081 C1101 0.950 . S
H1082 C1103 0.950 . S
H1083 C1106 0.950 . S
H1084 C1107 0.950 . S
H1085 C1109 0.950 . S
H1086 C1110 0.950 . S
H1087 C1111 0.951 . S
H1088 C1113 0.951 . S
H1089 C1115 0.950 . S
H1090 C1116 0.950 . S
H1091 C1118 0.950 . S
H1092 C1121 0.950 . S
H1093 C1122 0.950 . S
H1094 C1124 0.950 . S
H1095 C1125 0.950 . S
C1096 H1078 0.951 . S
C1096 C1097 1.366 . S
C1096 C1098 1.388 . S
C1097 C1096 1.366 . S
C1097 C1101 1.385 . S
C1098 H1079 0.951 . S
C1098 C1096 1.388 . S
C1098 C1099 1.366 . S
C1099 C1098 1.366 . S
C1099 C1100 1.414 . S
C1099 C1102 1.499 . S
C1100 H1080 0.950 . S
C1100 C1099 1.414 . S
C1100 C1101 1.374 . S
C1101 H1081 0.950 . S
C1101 C1097 1.385 . S
C1101 C1100 1.374 . S
C1102 C1099 1.499 . S
C1102 C1103 1.373 . S
C1102 C1104 1.389 . S
C1103 H1082 0.950 . S
C1103 C1102 1.373 . S
C1103 C1119 1.377 . S
C1104 C1102 1.389 . S
C1104 C1105 1.524 . S
C1104 C1118 1.377 . S
C1105 C1104 1.524 . S
C1105 C1106 1.397 . S
C1105 C1110 1.363 . S
C1106 H1083 0.950 . S
C1106 C1105 1.397 . S
C1106 C1107 1.334 . S
C1107 H1084 0.950 . S
C1107 C1106 1.334 . S
C1107 C1108 1.287 . S
C1108 C1107 1.287 . S
C1108 C1109 1.524 . S
C1108 H1127 0.913 . S
C1109 H1085 0.950 . S
C1109 C1108 1.524 . S
C1109 C1110 1.415 . S
C1110 H1086 0.950 . S
C1110 C1105 1.363 . S
C1110 C1109 1.415 . S
C1111 H1087 0.951 . S
C1111 C1112 1.366 . S
C1111 C1113 1.388 . S
C1112 C1111 1.366 . S
C1112 C1116 1.385 . S
C1113 H1088 0.951 . S
C1113 C1111 1.388 . S
C1113 C1114 1.366 . S
C1114 C1113 1.366 . S
C1114 C1115 1.414 . S
C1114 C1117 1.499 . S
C1115 H1089 0.950 . S
C1115 C1114 1.414 . S
C1115 C1116 1.374 . S
C1116 H1090 0.950 . S
C1116 C1112 1.385 . S
C1116 C1115 1.374 . S
C1117 C1114 1.499 . S
C1117 C1118 1.373 . S
C1117 C1119 1.389 . S
C1118 H1091 0.950 . S
C1118 C1104 1.377 . S
C1118 C1117 1.373 . S
C1119 C1103 1.377 . S
C1119 C1117 1.389 . S
C1119 C1120 1.524 . S
C1120 C1119 1.524 . S
C1120 C1121 1.397 . S
C1120 C1125 1.363 . S
C1121 H1092 0.950 . S
C1121 C1120 1.397 . S
C1121 C1122 1.334 . S
C1122 H1093 0.950 . S
C1122 C1121 1.334 . S
C1122 C1123 1.287 . S
C1123 C1122 1.287 . S
C1123 C1124 1.524 . S
C1123 H1126 0.999 . S
C1124 H1094 0.950 . S
C1124 C1123 1.524 . S
C1124 C1125 1.415 . S
C1125 H1095 0.950 . S
C1125 C1120 1.363 . S
C1125 C1124 1.415 . S
H1126 C1123 0.999 . S
H1127 C1108 0.913 . S
H1128 C1146 0.951 . S
H1129 C1148 0.951 . S
H1130 C1150 0.950 . S
H1131 C1151 0.950 . S
H1132 C1153 0.950 . S
H1133 C1156 0.950 . S
H1134 C1157 0.950 . S
H1135 C1159 0.950 . S
H1136 C1160 0.950 . S
H1137 C1161 0.951 . S
H1138 C1163 0.951 . S
H1139 C1165 0.950 . S
H1140 C1166 0.950 . S
H1141 C1168 0.950 . S
H1142 C1171 0.950 . S
H1143 C1172 0.950 . S
H1144 C1174 0.950 . S
H1145 C1175 0.950 . S
C1146 H1128 0.951 . S
C1146 C1147 1.366 . S
C1146 C1148 1.388 . S
C1147 C1146 1.366 . S
C1147 C1151 1.385 . S
C1148 H1129 0.951 . S
C1148 C1146 1.388 . S
C1148 C1149 1.366 . S
C1149 C1148 1.366 . S
C1149 C1150 1.414 . S
C1149 C1152 1.499 . S
C1150 H1130 0.950 . S
C1150 C1149 1.414 . S
C1150 C1151 1.374 . S
C1151 H1131 0.950 . S
C1151 C1147 1.385 . S
C1151 C1150 1.374 . S
C1152 C1149 1.499 . S
C1152 C1153 1.373 . S
C1152 C1154 1.389 . S
C1153 H1132 0.950 . S
C1153 C1152 1.373 . S
C1153 C1169 1.377 . S
C1154 C1152 1.389 . S
C1154 C1155 1.524 . S
C1154 C1168 1.377 . S
C1155 C1154 1.524 . S
C1155 C1156 1.397 . S
C1155 C1160 1.363 . S
C1156 H1133 0.950 . S
C1156 C1155 1.397 . S
C1156 C1157 1.334 . S
C1157 H1134 0.950 . S
C1157 C1156 1.334 . S
C1157 C1158 1.287 . S
C1158 C1157 1.287 . S
C1158 C1159 1.524 . S
C1158 H1177 0.913 . S
C1159 H1135 0.950 . S
C1159 C1158 1.524 . S
C1159 C1160 1.415 . S
C1160 H1136 0.950 . S
C1160 C1155 1.363 . S
C1160 C1159 1.415 . S
C1161 H1137 0.951 . S
C1161 C1162 1.366 . S
C1161 C1163 1.388 . S
C1162 C1161 1.366 . S
C1162 C1166 1.385 . S
C1163 H1138 0.951 . S
C1163 C1161 1.388 . S
C1163 C1164 1.366 . S
C1164 C1163 1.366 . S
C1164 C1165 1.414 . S
C1164 C1167 1.499 . S
C1165 H1139 0.950 . S
C1165 C1164 1.414 . S
C1165 C1166 1.374 . S
C1166 H1140 0.950 . S
C1166 C1162 1.385 . S
C1166 C1165 1.374 . S
C1167 C1164 1.499 . S
C1167 C1168 1.373 . S
C1167 C1169 1.389 . S
C1168 H1141 0.950 . S
C1168 C1154 1.377 . S
C1168 C1167 1.373 . S
C1169 C1153 1.377 . S
C1169 C1167 1.389 . S
C1169 C1170 1.524 . S
C1170 C1169 1.524 . S
C1170 C1171 1.397 . S
C1170 C1175 1.363 . S
C1171 H1142 0.950 . S
C1171 C1170 1.397 . S
C1171 C1172 1.334 . S
C1172 H1143 0.950 . S
C1172 C1171 1.334 . S
C1172 C1173 1.287 . S
C1173 C1172 1.287 . S
C1173 C1174 1.524 . S
C1173 H1176 0.999 . S
C1174 H1144 0.950 . S
C1174 C1173 1.524 . S
C1174 C1175 1.415 . S
C1175 H1145 0.950 . S
C1175 C1170 1.363 . S
C1175 C1174 1.415 . S
H1176 C1173 0.999 . S
H1177 C1158 0.913 . S
H1178 C1196 0.951 . S
H1179 C1198 0.951 . S
H1180 C1200 0.950 . S
H1181 C1201 0.950 . S
H1182 C1203 0.950 . S
H1183 C1206 0.950 . S
H1184 C1207 0.950 . S
H1185 C1209 0.950 . S
H1186 C1210 0.950 . S
H1187 C1211 0.951 . S
H1188 C1213 0.951 . S
H1189 C1215 0.950 . S
H1190 C1216 0.950 . S
H1191 C1218 0.950 . S
H1192 C1221 0.950 . S
H1193 C1222 0.950 . S
H1194 C1224 0.950 . S
H1195 C1225 0.950 . S
C1196 H1178 0.951 . S
C1196 C1197 1.366 . S
C1196 C1198 1.388 . S
C1197 C1196 1.366 . S
C1197 C1201 1.385 . S
C1198 H1179 0.951 . S
C1198 C1196 1.388 . S
C1198 C1199 1.366 . S
C1199 C1198 1.366 . S
C1199 C1200 1.414 . S
C1199 C1202 1.499 . S
C1200 H1180 0.950 . S
C1200 C1199 1.414 . S
C1200 C1201 1.374 . S
C1201 H1181 0.950 . S
C1201 C1197 1.385 . S
C1201 C1200 1.374 . S
C1202 C1199 1.499 . S
C1202 C1203 1.373 . S
C1202 C1204 1.389 . S
C1203 H1182 0.950 . S
C1203 C1202 1.373 . S
C1203 C1219 1.377 . S
C1204 C1202 1.389 . S
C1204 C1205 1.524 . S
C1204 C1218 1.377 . S
C1205 C1204 1.524 . S
C1205 C1206 1.397 . S
C1205 C1210 1.363 . S
C1206 H1183 0.950 . S
C1206 C1205 1.397 . S
C1206 C1207 1.334 . S
C1207 H1184 0.950 . S
C1207 C1206 1.334 . S
C1207 C1208 1.287 . S
C1208 C1207 1.287 . S
C1208 C1209 1.524 . S
C1208 H1227 0.913 . S
C1209 H1185 0.950 . S
C1209 C1208 1.524 . S
C1209 C1210 1.415 . S
C1210 H1186 0.950 . S
C1210 C1205 1.363 . S
C1210 C1209 1.415 . S
C1211 H1187 0.951 . S
C1211 C1212 1.366 . S
C1211 C1213 1.388 . S
C1212 C1211 1.366 . S
C1212 C1216 1.385 . S
C1213 H1188 0.951 . S
C1213 C1211 1.388 . S
C1213 C1214 1.366 . S
C1214 C1213 1.366 . S
C1214 C1215 1.414 . S
C1214 C1217 1.499 . S
C1215 H1189 0.950 . S
C1215 C1214 1.414 . S
C1215 C1216 1.374 . S
C1216 H1190 0.950 . S
C1216 C1212 1.385 . S
C1216 C1215 1.374 . S
C1217 C1214 1.499 . S
C1217 C1218 1.373 . S
C1217 C1219 1.389 . S
C1218 H1191 0.950 . S
C1218 C1204 1.377 . S
C1218 C1217 1.373 . S
C1219 C1203 1.377 . S
C1219 C1217 1.389 . S
C1219 C1220 1.524 . S
C1220 C1219 1.524 . S
C1220 C1221 1.397 . S
C1220 C1225 1.363 . S
C1221 H1192 0.950 . S
C1221 C1220 1.397 . S
C1221 C1222 1.334 . S
C1222 H1193 0.950 . S
C1222 C1221 1.334 . S
C1222 C1223 1.287 . S
C1223 C1222 1.287 . S
C1223 C1224 1.524 . S
C1223 H1226 0.999 . S
C1224 H1194 0.950 . S
C1224 C1223 1.524 . S
C1224 C1225 1.415 . S
C1225 H1195 0.950 . S
C1225 C1220 1.363 . S
C1225 C1224 1.415 . S
H1226 C1223 0.999 . S
H1227 C1208 0.913 . S
H1228 C1246 0.951 . S
H1229 C1248 0.951 . S
H1230 C1250 0.950 . S
H1231 C1251 0.950 . S
H1232 C1253 0.950 . S
H1233 C1256 0.950 . S
H1234 C1257 0.950 . S
H1235 C1259 0.950 . S
H1236 C1260 0.950 . S
H1237 C1261 0.951 . S
H1238 C1263 0.951 . S
H1239 C1265 0.950 . S
H1240 C1266 0.950 . S
H1241 C1268 0.950 . S
H1242 C1271 0.950 . S
H1243 C1272 0.950 . S
H1244 C1274 0.950 . S
H1245 C1275 0.950 . S
C1246 H1228 0.951 . S
C1246 C1247 1.366 . S
C1246 C1248 1.388 . S
C1247 C1246 1.366 . S
C1247 C1251 1.385 . S
C1248 H1229 0.951 . S
C1248 C1246 1.388 . S
C1248 C1249 1.366 . S
C1249 C1248 1.366 . S
C1249 C1250 1.414 . S
C1249 C1252 1.499 . S
C1250 H1230 0.950 . S
C1250 C1249 1.414 . S
C1250 C1251 1.374 . S
C1251 H1231 0.950 . S
C1251 C1247 1.385 . S
C1251 C1250 1.374 . S
C1252 C1249 1.499 . S
C1252 C1253 1.373 . S
C1252 C1254 1.389 . S
C1253 H1232 0.950 . S
C1253 C1252 1.373 . S
C1253 C1269 1.377 . S
C1254 C1252 1.389 . S
C1254 C1255 1.524 . S
C1254 C1268 1.377 . S
C1255 C1254 1.524 . S
C1255 C1256 1.397 . S
C1255 C1260 1.363 . S
C1256 H1233 0.950 . S
C1256 C1255 1.397 . S
C1256 C1257 1.334 . S
C1257 H1234 0.950 . S
C1257 C1256 1.334 . S
C1257 C1258 1.287 . S
C1258 C1257 1.287 . S
C1258 C1259 1.524 . S
C1258 H1277 0.913 . S
C1259 H1235 0.950 . S
C1259 C1258 1.524 . S
C1259 C1260 1.415 . S
C1260 H1236 0.950 . S
C1260 C1255 1.363 . S
C1260 C1259 1.415 . S
C1261 H1237 0.951 . S
C1261 C1262 1.366 . S
C1261 C1263 1.388 . S
C1262 C1261 1.366 . S
C1262 C1266 1.385 . S
C1263 H1238 0.951 . S
C1263 C1261 1.388 . S
C1263 C1264 1.366 . S
C1264 C1263 1.366 . S
C1264 C1265 1.414 . S
C1264 C1267 1.499 . S
C1265 H1239 0.950 . S
C1265 C1264 1.414 . S
C1265 C1266 1.374 . S
C1266 H1240 0.950 . S
C1266 C1262 1.385 . S
C1266 C1265 1.374 . S
C1267 C1264 1.499 . S
C1267 C1268 1.373 . S
C1267 C1269 1.389 . S
C1268 H1241 0.950 . S
C1268 C1254 1.377 . S
C1268 C1267 1.373 . S
C1269 C1253 1.377 . S
C1269 C1267 1.389 . S
C1269 C1270 1.524 . S
C1270 C1269 1.524 . S
C1270 C1271 1.397 . S
C1270 C1275 1.363 . S
C1271 H1242 0.950 . S
C1271 C1270 1.397 . S
C1271 C1272 1.334 . S
C1272 H1243 0.950 . S
C1272 C1271 1.334 . S
C1272 C1273 1.287 . S
C1273 C1272 1.287 . S
C1273 C1274 1.524 . S
C1273 H1276 0.999 . S
C1274 H1244 0.950 . S
C1274 C1273 1.524 . S
C1274 C1275 1.415 . S
C1275 H1245 0.950 . S
C1275 C1270 1.363 . S
C1275 C1274 1.415 . S
H1276 C1273 0.999 . S
H1277 C1258 0.913 . S
H1278 C1296 0.951 . S
H1279 C1298 0.951 . S
H1280 C1300 0.950 . S
H1281 C1301 0.950 . S
H1282 C1303 0.950 . S
H1283 C1306 0.950 . S
H1284 C1307 0.950 . S
H1285 C1309 0.950 . S
H1286 C1310 0.950 . S
H1287 C1311 0.951 . S
H1288 C1313 0.951 . S
H1289 C1315 0.950 . S
H1290 C1316 0.950 . S
H1291 C1318 0.950 . S
H1292 C1321 0.950 . S
H1293 C1322 0.952 1_554 S
H1294 C1324 0.949 1_554 S
H1295 C1325 0.950 . S
C1296 H1278 0.951 . S
C1296 C1297 1.366 . S
C1296 C1298 1.388 . S
C1297 C1296 1.366 . S
C1297 C1301 1.385 . S
C1298 H1279 0.951 . S
C1298 C1296 1.388 . S
C1298 C1299 1.366 . S
C1299 C1298 1.366 . S
C1299 C1300 1.414 . S
C1299 C1302 1.499 . S
C1300 H1280 0.950 . S
C1300 C1299 1.414 . S
C1300 C1301 1.374 . S
C1301 H1281 0.950 . S
C1301 C1297 1.385 . S
C1301 C1300 1.374 . S
C1302 C1299 1.499 . S
C1302 C1303 1.373 . S
C1302 C1304 1.389 . S
C1303 H1282 0.950 . S
C1303 C1302 1.373 . S
C1303 C1319 1.377 . S
C1304 C1302 1.389 . S
C1304 C1305 1.524 . S
C1304 C1318 1.377 . S
C1305 C1304 1.524 . S
C1305 C1306 1.397 . S
C1305 C1310 1.363 . S
C1306 H1283 0.950 . S
C1306 C1305 1.397 . S
C1306 C1307 1.334 . S
C1307 H1284 0.950 . S
C1307 C1306 1.334 . S
C1307 C1308 1.287 . S
C1308 C1307 1.287 . S
C1308 C1309 1.524 . S
C1308 H1327 0.913 . S
C1309 H1285 0.950 . S
C1309 C1308 1.524 . S
C1309 C1310 1.415 . S
C1310 H1286 0.950 . S
C1310 C1305 1.363 . S
C1310 C1309 1.415 . S
C1311 H1287 0.951 . S
C1311 C1312 1.366 . S
C1311 C1313 1.388 . S
C1312 C1311 1.366 . S
C1312 C1316 1.385 . S
C1313 H1288 0.951 . S
C1313 C1311 1.388 . S
C1313 C1314 1.366 1_554 S
C1314 C1313 1.366 1_556 S
C1314 C1315 1.414 . S
C1314 C1317 1.499 . S
C1315 H1289 0.950 . S
C1315 C1314 1.414 . S
C1315 C1316 1.374 1_556 S
C1316 H1290 0.950 . S
C1316 C1312 1.385 . S
C1316 C1315 1.374 1_554 S
C1317 C1314 1.499 . S
C1317 C1318 1.373 . S
C1317 C1319 1.389 . S
C1318 H1291 0.950 . S
C1318 C1304 1.377 . S
C1318 C1317 1.373 . S
C1319 C1303 1.377 . S
C1319 C1317 1.389 . S
C1319 C1320 1.524 . S
C1320 C1319 1.524 . S
C1320 C1321 1.397 . S
C1320 C1325 1.363 . S
C1321 H1292 0.950 . S
C1321 C1320 1.397 . S
C1321 C1322 1.332 . S
C1322 H1293 0.952 1_556 S
C1322 C1321 1.332 . S
C1322 C1323 1.288 1_556 S
C1323 C1322 1.288 1_554 S
C1323 C1324 1.524 1_554 S
C1323 H1326 0.999 . S
C1324 H1294 0.949 1_556 S
C1324 C1323 1.524 1_556 S
C1324 C1325 1.416 . S
C1325 H1295 0.950 . S
C1325 C1320 1.363 . S
C1325 C1324 1.416 . S
H1326 C1323 0.999 . S
H1327 C1308 0.913 . S
H1328 C1346 0.951 . S
H1329 C1348 0.951 . S
H1330 C1350 0.950 . S
H1331 C1351 0.950 . S
H1332 C1353 0.950 . S
H1333 C1356 0.950 1_565 S
H1334 C1357 0.950 . S
H1335 C1359 0.950 . S
H1336 C1360 0.950 . S
H1337 C1361 0.951 . S
H1338 C1363 0.951 . S
H1339 C1365 0.950 . S
H1340 C1366 0.950 . S
H1341 C1368 0.950 . S
H1342 C1371 0.950 . S
H1343 C1372 0.950 . S
H1344 C1374 0.950 . S
H1345 C1375 0.950 . S
C1346 H1328 0.951 . S
C1346 C1347 1.366 . S
C1346 C1348 1.388 . S
C1347 C1346 1.366 . S
C1347 C1351 1.385 . S
C1348 H1329 0.951 . S
C1348 C1346 1.388 . S
C1348 C1349 1.366 . S
C1349 C1348 1.366 . S
C1349 C1350 1.414 . S
C1349 C1352 1.499 . S
C1350 H1330 0.950 . S
C1350 C1349 1.414 . S
C1350 C1351 1.374 . S
C1351 H1331 0.950 . S
C1351 C1347 1.385 . S
C1351 C1350 1.374 . S
C1352 C1349 1.499 . S
C1352 C1353 1.373 . S
C1352 C1354 1.389 . S
C1353 H1332 0.950 . S
C1353 C1352 1.373 . S
C1353 C1369 1.377 . S
C1354 C1352 1.389 . S
C1354 C1355 1.524 . S
C1354 C1368 1.377 . S
C1355 C1354 1.524 . S
C1355 C1356 1.397 1_565 S
C1355 C1360 1.363 . S
C1356 H1333 0.950 1_545 S
C1356 C1355 1.397 1_545 S
C1356 C1357 1.334 . S
C1357 H1334 0.950 . S
C1357 C1356 1.334 . S
C1357 C1358 1.287 . S
C1358 C1357 1.287 . S
C1358 C1359 1.524 . S
C1358 H1377 0.913 . S
C1359 H1335 0.950 . S
C1359 C1358 1.524 . S
C1359 C1360 1.415 1_545 S
C1360 H1336 0.950 . S
C1360 C1355 1.363 . S
C1360 C1359 1.415 1_565 S
C1361 H1337 0.951 . S
C1361 C1362 1.366 . S
C1361 C1363 1.388 . S
C1362 C1361 1.366 . S
C1362 C1366 1.385 . S
C1363 H1338 0.951 . S
C1363 C1361 1.388 . S
C1363 C1364 1.366 . S
C1364 C1363 1.366 . S
C1364 C1365 1.414 . S
C1364 C1367 1.499 . S
C1365 H1339 0.950 . S
C1365 C1364 1.414 . S
C1365 C1366 1.374 . S
C1366 H1340 0.950 . S
C1366 C1362 1.385 . S
C1366 C1365 1.374 . S
C1367 C1364 1.499 . S
C1367 C1368 1.373 . S
C1367 C1369 1.389 . S
C1368 H1341 0.950 . S
C1368 C1354 1.377 . S
C1368 C1367 1.373 . S
C1369 C1353 1.377 . S
C1369 C1367 1.389 . S
C1369 C1370 1.524 . S
C1370 C1369 1.524 . S
C1370 C1371 1.397 . S
C1370 C1375 1.363 . S
C1371 H1342 0.950 . S
C1371 C1370 1.397 . S
C1371 C1372 1.334 . S
C1372 H1343 0.950 . S
C1372 C1371 1.334 . S
C1372 C1373 1.287 . S
C1373 C1372 1.287 . S
C1373 C1374 1.524 . S
C1373 H1376 0.999 . S
C1374 H1344 0.950 . S
C1374 C1373 1.524 . S
C1374 C1375 1.415 . S
C1375 H1345 0.950 . S
C1375 C1370 1.363 . S
C1375 C1374 1.415 . S
H1376 C1373 0.999 . S
H1377 C1358 0.913 . S
H1378 C1396 0.951 . S
H1379 C1398 0.951 . S
H1380 C1400 0.950 . S
H1381 C1401 0.950 . S
H1382 C1403 0.950 . S
H1383 C1406 0.950 . S
H1384 C1407 0.950 . S
H1385 C1409 0.950 . S
H1386 C1410 0.950 . S
H1387 C1411 0.951 . S
H1388 C1413 0.951 . S
H1389 C1415 0.950 . S
H1390 C1416 0.950 . S
H1391 C1418 0.950 . S
H1392 C1421 0.950 . S
H1393 C1422 0.950 . S
H1394 C1424 0.950 . S
H1395 C1425 0.950 . S
C1396 H1378 0.951 . S
C1396 C1397 1.366 . S
C1396 C1398 1.388 . S
C1397 C1396 1.366 . S
C1397 C1401 1.385 . S
C1398 H1379 0.951 . S
C1398 C1396 1.388 . S
C1398 C1399 1.366 . S
C1399 C1398 1.366 . S
C1399 C1400 1.414 . S
C1399 C1402 1.499 . S
C1400 H1380 0.950 . S
C1400 C1399 1.414 . S
C1400 C1401 1.374 . S
C1401 H1381 0.950 . S
C1401 C1397 1.385 . S
C1401 C1400 1.374 . S
C1402 C1399 1.499 . S
C1402 C1403 1.373 . S
C1402 C1404 1.389 . S
C1403 H1382 0.950 . S
C1403 C1402 1.373 . S
C1403 C1419 1.377 . S
C1404 C1402 1.389 . S
C1404 C1405 1.524 . S
C1404 C1418 1.377 . S
C1405 C1404 1.524 . S
C1405 C1406 1.397 . S
C1405 C1410 1.363 . S
C1406 H1383 0.950 . S
C1406 C1405 1.397 . S
C1406 C1407 1.334 . S
C1407 H1384 0.950 . S
C1407 C1406 1.334 . S
C1407 C1408 1.287 . S
C1408 C1407 1.287 . S
C1408 C1409 1.524 . S
C1408 H1427 0.913 . S
C1409 H1385 0.950 . S
C1409 C1408 1.524 . S
C1409 C1410 1.415 . S
C1410 H1386 0.950 . S
C1410 C1405 1.363 . S
C1410 C1409 1.415 . S
C1411 H1387 0.951 . S
C1411 C1412 1.366 . S
C1411 C1413 1.388 . S
C1412 C1411 1.366 . S
C1412 C1416 1.385 . S
C1413 H1388 0.951 . S
C1413 C1411 1.388 . S
C1413 C1414 1.366 . S
C1414 C1413 1.366 . S
C1414 C1415 1.414 . S
C1414 C1417 1.499 . S
C1415 H1389 0.950 . S
C1415 C1414 1.414 . S
C1415 C1416 1.374 . S
C1416 H1390 0.950 . S
C1416 C1412 1.385 . S
C1416 C1415 1.374 . S
C1417 C1414 1.499 . S
C1417 C1418 1.373 . S
C1417 C1419 1.389 . S
C1418 H1391 0.950 . S
C1418 C1404 1.377 . S
C1418 C1417 1.373 . S
C1419 C1403 1.377 . S
C1419 C1417 1.389 . S
C1419 C1420 1.524 . S
C1420 C1419 1.524 . S
C1420 C1421 1.397 . S
C1420 C1425 1.363 . S
C1421 H1392 0.950 . S
C1421 C1420 1.397 . S
C1421 C1422 1.334 . S
C1422 H1393 0.950 . S
C1422 C1421 1.334 . S
C1422 C1423 1.287 . S
C1423 C1422 1.287 . S
C1423 C1424 1.524 . S
C1423 H1426 0.999 . S
C1424 H1394 0.950 . S
C1424 C1423 1.524 . S
C1424 C1425 1.415 . S
C1425 H1395 0.950 . S
C1425 C1420 1.363 . S
C1425 C1424 1.415 . S
H1426 C1423 0.999 . S
H1427 C1408 0.913 . S
H1428 C1446 0.951 . S
H1429 C1448 0.951 . S
H1430 C1450 0.950 . S
H1431 C1451 0.950 . S
H1432 C1453 0.950 . S
H1433 C1456 0.950 . S
H1434 C1457 0.950 . S
H1435 C1459 0.927 1_545 S
H1436 C1460 0.950 . S
H1437 C1461 0.951 . S
H1438 C1463 0.951 . S
H1439 C1465 0.950 . S
H1440 C1466 0.950 . S
H1441 C1468 0.950 . S
H1442 C1471 0.950 . S
H1443 C1472 0.950 . S
H1444 C1474 0.950 . S
H1445 C1475 0.950 . S
C1446 H1428 0.951 . S
C1446 C1447 1.366 . S
C1446 C1448 1.388 . S
C1447 C1446 1.366 . S
C1447 C1451 1.385 . S
C1448 H1429 0.951 . S
C1448 C1446 1.388 . S
C1448 C1449 1.366 . S
C1449 C1448 1.366 . S
C1449 C1450 1.414 . S
C1449 C1452 1.499 . S
C1450 H1430 0.950 . S
C1450 C1449 1.414 . S
C1450 C1451 1.374 . S
C1451 H1431 0.950 . S
C1451 C1447 1.385 . S
C1451 C1450 1.374 . S
C1452 C1449 1.499 . S
C1452 C1453 1.373 . S
C1452 C1454 1.389 . S
C1453 H1432 0.950 . S
C1453 C1452 1.373 . S
C1453 C1469 1.377 . S
C1454 C1452 1.389 . S
C1454 C1455 1.524 . S
C1454 C1468 1.377 . S
C1455 C1454 1.524 . S
C1455 C1456 1.397 . S
C1455 C1460 1.363 . S
C1456 H1433 0.950 . S
C1456 C1455 1.397 . S
C1456 C1457 1.334 . S
C1457 H1434 0.950 . S
C1457 C1456 1.334 . S
C1457 C1458 1.287 . S
C1458 C1457 1.287 . S
C1458 C1459 1.518 . S
C1458 H1477 0.913 1_565 S
C1459 H1435 0.927 1_565 S
C1459 C1458 1.518 . S
C1459 C1460 1.447 . S
C1460 H1436 0.950 . S
C1460 C1455 1.363 . S
C1460 C1459 1.447 . S
C1461 H1437 0.951 . S
C1461 C1462 1.366 . S
C1461 C1463 1.388 . S
C1462 C1461 1.366 . S
C1462 C1466 1.385 . S
C1463 H1438 0.951 . S
C1463 C1461 1.388 . S
C1463 C1464 1.366 . S
C1464 C1463 1.366 . S
C1464 C1465 1.414 . S
C1464 C1467 1.499 . S
C1465 H1439 0.950 . S
C1465 C1464 1.414 . S
C1465 C1466 1.374 . S
C1466 H1440 0.950 . S
C1466 C1462 1.385 . S
C1466 C1465 1.374 . S
C1467 C1464 1.499 . S
C1467 C1468 1.373 . S
C1467 C1469 1.389 . S
C1468 H1441 0.950 . S
C1468 C1454 1.377 . S
C1468 C1467 1.373 . S
C1469 C1453 1.377 . S
C1469 C1467 1.389 . S
C1469 C1470 1.524 . S
C1470 C1469 1.524 . S
C1470 C1471 1.397 . S
C1470 C1475 1.363 . S
C1471 H1442 0.950 . S
C1471 C1470 1.397 . S
C1471 C1472 1.334 . S
C1472 H1443 0.950 . S
C1472 C1471 1.334 . S
C1472 C1473 1.287 . S
C1473 C1472 1.287 . S
C1473 C1474 1.524 . S
C1473 H1476 0.999 . S
C1474 H1444 0.950 . S
C1474 C1473 1.524 . S
C1474 C1475 1.415 . S
C1475 H1445 0.950 . S
C1475 C1470 1.363 . S
C1475 C1474 1.415 . S
H1476 C1473 0.999 . S
H1477 C1458 0.913 1_545 S
H1478 C1496 0.951 . S
H1479 C1498 0.951 . S
H1480 C1500 0.950 . S
H1481 C1501 0.950 . S
H1482 C1503 0.950 . S
H1483 C1506 0.950 . S
H1484 C1507 0.950 . S
H1485 C1509 0.950 . S
H1486 C1510 0.950 . S
H1487 C1511 0.951 . S
H1488 C1513 0.951 . S
H1489 C1515 0.950 . S
H1490 C1516 0.950 . S
H1491 C1518 0.950 . S
H1492 C1521 0.950 . S
H1493 C1522 0.950 . S
H1494 C1524 0.950 . S
H1495 C1525 0.950 . S
C1496 H1478 0.951 . S
C1496 C1497 1.366 . S
C1496 C1498 1.388 . S
C1497 C1496 1.366 . S
C1497 C1501 1.385 . S
C1498 H1479 0.951 . S
C1498 C1496 1.388 . S
C1498 C1499 1.366 . S
C1499 C1498 1.366 . S
C1499 C1500 1.414 . S
C1499 C1502 1.499 . S
C1500 H1480 0.950 . S
C1500 C1499 1.414 . S
C1500 C1501 1.374 . S
C1501 H1481 0.950 . S
C1501 C1497 1.385 . S
C1501 C1500 1.374 . S
C1502 C1499 1.499 . S
C1502 C1503 1.373 . S
C1502 C1504 1.389 . S
C1503 H1482 0.950 . S
C1503 C1502 1.373 . S
C1503 C1519 1.377 . S
C1504 C1502 1.389 . S
C1504 C1505 1.524 . S
C1504 C1518 1.377 . S
C1505 C1504 1.524 . S
C1505 C1506 1.397 . S
C1505 C1510 1.363 . S
C1506 H1483 0.950 . S
C1506 C1505 1.397 . S
C1506 C1507 1.334 . S
C1507 H1484 0.950 . S
C1507 C1506 1.334 . S
C1507 C1508 1.287 . S
C1508 C1507 1.287 . S
C1508 C1509 1.524 . S
C1508 H1527 0.913 . S
C1509 H1485 0.950 . S
C1509 C1508 1.524 . S
C1509 C1510 1.415 . S
C1510 H1486 0.950 . S
C1510 C1505 1.363 . S
C1510 C1509 1.415 . S
C1511 H1487 0.951 . S
C1511 C1512 1.366 . S
C1511 C1513 1.388 . S
C1512 C1511 1.366 . S
C1512 C1516 1.385 . S
C1513 H1488 0.951 . S
C1513 C1511 1.388 . S
C1513 C1514 1.366 . S
C1514 C1513 1.366 . S
C1514 C1515 1.414 . S
C1514 C1517 1.499 . S
C1515 H1489 0.950 . S
C1515 C1514 1.414 . S
C1515 C1516 1.374 . S
C1516 H1490 0.950 . S
C1516 C1512 1.385 . S
C1516 C1515 1.374 . S
C1517 C1514 1.499 . S
C1517 C1518 1.373 . S
C1517 C1519 1.389 . S
C1518 H1491 0.950 . S
C1518 C1504 1.377 . S
C1518 C1517 1.373 . S
C1519 C1503 1.377 . S
C1519 C1517 1.389 . S
C1519 C1520 1.524 . S
C1520 C1519 1.524 . S
C1520 C1521 1.397 . S
C1520 C1525 1.363 . S
C1521 H1492 0.950 . S
C1521 C1520 1.397 . S
C1521 C1522 1.334 . S
C1522 H1493 0.950 . S
C1522 C1521 1.334 . S
C1522 C1523 1.287 . S
C1523 C1522 1.287 . S
C1523 C1524 1.524 . S
C1523 H1526 0.999 . S
C1524 H1494 0.950 . S
C1524 C1523 1.524 . S
C1524 C1525 1.415 . S
C1525 H1495 0.950 . S
C1525 C1520 1.363 . S
C1525 C1524 1.415 . S
H1526 C1523 0.999 . S
H1527 C1508 0.913 . S
H1528 C1546 0.951 . S
H1529 C1548 0.951 . S
H1530 C1550 0.950 . S
H1531 C1551 0.950 . S
H1532 C1553 0.950 . S
H1533 C1556 0.950 . S
H1534 C1557 0.950 . S
H1535 C1559 0.950 . S
H1536 C1560 0.950 . S
H1537 C1561 0.951 . S
H1538 C1563 0.951 . S
H1539 C1565 0.950 . S
H1540 C1566 0.950 . S
H1541 C1568 0.950 . S
H1542 C1571 0.950 . S
H1543 C1572 0.950 . S
H1544 C1574 0.950 . S
H1545 C1575 0.950 . S
C1546 H1528 0.951 . S
C1546 C1547 1.366 . S
C1546 C1548 1.388 . S
C1547 C1546 1.366 . S
C1547 C1551 1.385 . S
C1548 H1529 0.951 . S
C1548 C1546 1.388 . S
C1548 C1549 1.366 . S
C1549 C1548 1.366 . S
C1549 C1550 1.414 . S
C1549 C1552 1.499 . S
C1550 H1530 0.950 . S
C1550 C1549 1.414 . S
C1550 C1551 1.374 . S
C1551 H1531 0.950 . S
C1551 C1547 1.385 . S
C1551 C1550 1.374 . S
C1552 C1549 1.499 . S
C1552 C1553 1.373 . S
C1552 C1554 1.389 . S
C1553 H1532 0.950 . S
C1553 C1552 1.373 . S
C1553 C1569 1.377 . S
C1554 C1552 1.389 . S
C1554 C1555 1.524 . S
C1554 C1568 1.377 . S
C1555 C1554 1.524 . S
C1555 C1556 1.397 . S
C1555 C1560 1.363 . S
C1556 H1533 0.950 . S
C1556 C1555 1.397 . S
C1556 C1557 1.334 . S
C1557 H1534 0.950 . S
C1557 C1556 1.334 . S
C1557 C1558 1.287 . S
C1558 C1557 1.287 . S
C1558 C1559 1.524 . S
C1558 H1577 0.913 . S
C1559 H1535 0.950 . S
C1559 C1558 1.524 . S
C1559 C1560 1.415 . S
C1560 H1536 0.950 . S
C1560 C1555 1.363 . S
C1560 C1559 1.415 . S
C1561 H1537 0.951 . S
C1561 C1562 1.366 . S
C1561 C1563 1.388 . S
C1562 C1561 1.366 . S
C1562 C1566 1.385 . S
C1563 H1538 0.951 . S
C1563 C1561 1.388 . S
C1563 C1564 1.366 . S
C1564 C1563 1.366 . S
C1564 C1565 1.414 . S
C1564 C1567 1.499 . S
C1565 H1539 0.950 . S
C1565 C1564 1.414 . S
C1565 C1566 1.374 . S
C1566 H1540 0.950 . S
C1566 C1562 1.385 . S
C1566 C1565 1.374 . S
C1567 C1564 1.499 . S
C1567 C1568 1.373 . S
C1567 C1569 1.389 . S
C1568 H1541 0.950 . S
C1568 C1554 1.377 . S
C1568 C1567 1.373 . S
C1569 C1553 1.377 . S
C1569 C1567 1.389 . S
C1569 C1570 1.524 . S
C1570 C1569 1.524 . S
C1570 C1571 1.397 . S
C1570 C1575 1.363 . S
C1571 H1542 0.950 . S
C1571 C1570 1.397 . S
C1571 C1572 1.334 . S
C1572 H1543 0.950 . S
C1572 C1571 1.334 . S
C1572 C1573 1.287 . S
C1573 C1572 1.287 . S
C1573 C1574 1.524 . S
C1573 H1576 0.999 . S
C1574 H1544 0.950 . S
C1574 C1573 1.524 . S
C1574 C1575 1.415 . S
C1575 H1545 0.950 . S
C1575 C1570 1.363 . S
C1575 C1574 1.415 . S
H1576 C1573 0.999 . S
H1577 C1558 0.913 . S
H1578 C1596 0.951 . S
H1579 C1598 0.951 . S
H1580 C1600 0.950 . S
H1581 C1601 0.950 . S
H1582 C1603 0.950 . S
H1583 C1606 0.950 . S
H1584 C1607 0.950 . S
H1585 C1609 0.950 . S
H1586 C1610 0.950 . S
H1587 C1611 0.951 . S
H1588 C1613 0.951 . S
H1589 C1615 0.950 . S
H1590 C1616 0.950 . S
H1591 C1618 0.950 . S
H1592 C1621 0.950 . S
H1593 C1622 0.950 . S
H1594 C1624 0.950 . S
H1595 C1625 0.950 . S
C1596 H1578 0.951 . S
C1596 C1597 1.366 . S
C1596 C1598 1.388 . S
C1597 C1596 1.366 . S
C1597 C1601 1.385 . S
C1598 H1579 0.951 . S
C1598 C1596 1.388 . S
C1598 C1599 1.366 . S
C1599 C1598 1.366 . S
C1599 C1600 1.414 . S
C1599 C1602 1.499 . S
C1600 H1580 0.950 . S
C1600 C1599 1.414 . S
C1600 C1601 1.374 . S
C1601 H1581 0.950 . S
C1601 C1597 1.385 . S
C1601 C1600 1.374 . S
C1602 C1599 1.499 . S
C1602 C1603 1.373 . S
C1602 C1604 1.389 . S
C1603 H1582 0.950 . S
C1603 C1602 1.373 . S
C1603 C1619 1.377 . S
C1604 C1602 1.389 . S
C1604 C1605 1.524 . S
C1604 C1618 1.377 . S
C1605 C1604 1.524 . S
C1605 C1606 1.397 . S
C1605 C1610 1.363 . S
C1606 H1583 0.950 . S
C1606 C1605 1.397 . S
C1606 C1607 1.334 . S
C1607 H1584 0.950 . S
C1607 C1606 1.334 . S
C1607 C1608 1.287 . S
C1608 C1607 1.287 . S
C1608 C1609 1.524 . S
C1608 H1627 0.913 . S
C1609 H1585 0.950 . S
C1609 C1608 1.524 . S
C1609 C1610 1.415 . S
C1610 H1586 0.950 . S
C1610 C1605 1.363 . S
C1610 C1609 1.415 . S
C1611 H1587 0.951 . S
C1611 C1612 1.366 . S
C1611 C1613 1.388 . S
C1612 C1611 1.366 . S
C1612 C1616 1.385 . S
C1613 H1588 0.951 . S
C1613 C1611 1.388 . S
C1613 C1614 1.366 . S
C1614 C1613 1.366 . S
C1614 C1615 1.414 . S
C1614 C1617 1.499 . S
C1615 H1589 0.950 . S
C1615 C1614 1.414 . S
C1615 C1616 1.374 . S
C1616 H1590 0.950 . S
C1616 C1612 1.385 . S
C1616 C1615 1.374 . S
C1617 C1614 1.499 . S
C1617 C1618 1.373 . S
C1617 C1619 1.389 . S
C1618 H1591 0.950 . S
C1618 C1604 1.377 . S
C1618 C1617 1.373 . S
C1619 C1603 1.377 . S
C1619 C1617 1.389 . S
C1619 C1620 1.524 . S
C1620 C1619 1.524 . S
C1620 C1621 1.397 . S
C1620 C1625 1.363 . S
C1621 H1592 0.950 . S
C1621 C1620 1.397 . S
C1621 C1622 1.334 . S
C1622 H1593 0.950 . S
C1622 C1621 1.334 . S
C1622 C1623 1.287 . S
C1623 C1622 1.287 . S
C1623 C1624 1.524 . S
C1623 H1626 0.999 . S
C1624 H1594 0.950 . S
C1624 C1623 1.524 . S
C1624 C1625 1.415 . S
C1625 H1595 0.950 . S
C1625 C1620 1.363 . S
C1625 C1624 1.415 . S
H1626 C1623 0.999 . S
H1627 C1608 0.913 . S
H1628 C1646 0.951 . S
H1629 C1648 0.951 . S
H1630 C1650 0.950 . S
H1631 C1651 0.950 . S
H1632 C1653 0.950 . S
H1633 C1656 0.950 . S
H1634 C1657 0.950 . S
H1635 C1659 0.950 . S
H1636 C1660 0.950 . S
H1637 C1661 0.951 . S
H1638 C1663 0.951 . S
H1639 C1665 0.950 . S
H1640 C1666 0.950 . S
H1641 C1668 0.950 1_556 S
H1642 C1671 0.950 . S
H1643 C1672 0.950 . S
H1644 C1674 0.950 . S
H1645 C1675 0.950 . S
C1646 H1628 0.951 . S
C1646 C1647 1.366 . S
C1646 C1648 1.388 . S
C1647 C1646 1.366 . S
C1647 C1651 1.385 . S
C1648 H1629 0.951 . S
C1648 C1646 1.388 . S
C1648 C1649 1.366 . S
C1649 C1648 1.366 . S
C1649 C1650 1.414 . S
C1649 C1652 1.499 . S
C1650 H1630 0.950 . S
C1650 C1649 1.414 . S
C1650 C1651 1.374 . S
C1651 H1631 0.950 . S
C1651 C1647 1.385 . S
C1651 C1650 1.374 . S
C1652 C1649 1.499 . S
C1652 C1653 1.373 . S
C1652 C1654 1.389 . S
C1653 H1632 0.950 . S
C1653 C1652 1.373 . S
C1653 C1669 1.377 . S
C1654 C1652 1.389 . S
C1654 C1655 1.524 . S
C1654 C1668 1.377 . S
C1655 C1654 1.524 . S
C1655 C1656 1.397 . S
C1655 C1660 1.363 . S
C1656 H1633 0.950 . S
C1656 C1655 1.397 . S
C1656 C1657 1.334 . S
C1657 H1634 0.950 . S
C1657 C1656 1.334 . S
C1657 C1658 1.287 . S
C1658 C1657 1.287 . S
C1658 C1659 1.524 . S
C1658 H1677 0.913 . S
C1659 H1635 0.950 . S
C1659 C1658 1.524 . S
C1659 C1660 1.415 . S
C1660 H1636 0.950 . S
C1660 C1655 1.363 . S
C1660 C1659 1.415 . S
C1661 H1637 0.951 . S
C1661 C1662 1.366 . S
C1661 C1663 1.388 . S
C1662 C1661 1.366 . S
C1662 C1666 1.385 . S
C1663 H1638 0.951 . S
C1663 C1661 1.388 . S
C1663 C1664 1.366 . S
C1664 C1663 1.366 . S
C1664 C1665 1.414 . S
C1664 C1667 1.499 . S
C1665 H1639 0.950 . S
C1665 C1664 1.414 . S
C1665 C1666 1.374 . S
C1666 H1640 0.950 . S
C1666 C1662 1.385 . S
C1666 C1665 1.374 . S
C1667 C1664 1.499 . S
C1667 C1668 1.373 1_556 S
C1667 C1669 1.389 1_556 S
C1668 H1641 0.950 1_554 S
C1668 C1654 1.377 . S
C1668 C1667 1.373 1_554 S
C1669 C1653 1.377 . S
C1669 C1667 1.389 1_554 S
C1669 C1670 1.524 . S
C1670 C1669 1.524 . S
C1670 C1671 1.397 1_554 S
C1670 C1675 1.363 . S
C1671 H1642 0.950 . S
C1671 C1670 1.397 1_556 S
C1671 C1672 1.334 . S
C1672 H1643 0.950 . S
C1672 C1671 1.334 . S
C1672 C1673 1.287 . S
C1673 C1672 1.287 . S
C1673 C1674 1.524 1_556 S
C1673 H1676 0.999 . S
C1674 H1644 0.950 . S
C1674 C1673 1.524 1_554 S
C1674 C1675 1.415 . S
C1675 H1645 0.950 . S
C1675 C1670 1.363 . S
C1675 C1674 1.415 . S
H1676 C1673 0.999 . S
H1677 C1658 0.913 . S
H1678 C1696 0.951 . S
H1679 C1698 0.951 . S
H1680 C1700 0.950 . S
H1681 C1701 0.950 . S
H1682 C1703 0.950 . S
H1683 C1706 0.950 . S
H1684 C1707 0.950 . S
H1685 C1709 0.950 . S
H1686 C1710 0.950 . S
H1687 C1711 0.951 . S
H1688 C1713 0.951 . S
H1689 C1715 0.950 . S
H1690 C1716 0.950 . S
H1691 C1718 0.950 . S
H1692 C1721 0.950 . S
H1693 C1722 0.950 . S
H1694 C1724 0.950 . S
H1695 C1725 0.950 . S
C1696 H1678 0.951 . S
C1696 C1697 1.366 . S
C1696 C1698 1.388 . S
C1697 C1696 1.366 . S
C1697 C1701 1.385 . S
C1698 H1679 0.951 . S
C1698 C1696 1.388 . S
C1698 C1699 1.366 . S
C1699 C1698 1.366 . S
C1699 C1700 1.414 . S
C1699 C1702 1.499 . S
C1700 H1680 0.950 . S
C1700 C1699 1.414 . S
C1700 C1701 1.374 . S
C1701 H1681 0.950 . S
C1701 C1697 1.385 . S
C1701 C1700 1.374 . S
C1702 C1699 1.499 . S
C1702 C1703 1.373 . S
C1702 C1704 1.389 . S
C1703 H1682 0.950 . S
C1703 C1702 1.373 . S
C1703 C1719 1.377 . S
C1704 C1702 1.389 . S
C1704 C1705 1.524 . S
C1704 C1718 1.377 . S
C1705 C1704 1.524 . S
C1705 C1706 1.397 . S
C1705 C1710 1.363 . S
C1706 H1683 0.950 . S
C1706 C1705 1.397 . S
C1706 C1707 1.334 . S
C1707 H1684 0.950 . S
C1707 C1706 1.334 . S
C1707 C1708 1.287 . S
C1708 C1707 1.287 . S
C1708 C1709 1.524 . S
C1708 H1727 0.913 . S
C1709 H1685 0.950 . S
C1709 C1708 1.524 . S
C1709 C1710 1.415 . S
C1710 H1686 0.950 . S
C1710 C1705 1.363 . S
C1710 C1709 1.415 . S
C1711 H1687 0.951 . S
C1711 C1712 1.366 . S
C1711 C1713 1.388 . S
C1712 C1711 1.366 . S
C1712 C1716 1.385 . S
C1713 H1688 0.951 . S
C1713 C1711 1.388 . S
C1713 C1714 1.366 . S
C1714 C1713 1.366 . S
C1714 C1715 1.414 . S
C1714 C1717 1.499 . S
C1715 H1689 0.950 . S
C1715 C1714 1.414 . S
C1715 C1716 1.374 . S
C1716 H1690 0.950 . S
C1716 C1712 1.385 . S
C1716 C1715 1.374 . S
C1717 C1714 1.499 . S
C1717 C1718 1.373 . S
C1717 C1719 1.389 . S
C1718 H1691 0.950 . S
C1718 C1704 1.377 . S
C1718 C1717 1.373 . S
C1719 C1703 1.377 . S
C1719 C1717 1.389 . S
C1719 C1720 1.524 . S
C1720 C1719 1.524 . S
C1720 C1721 1.397 . S
C1720 C1725 1.363 . S
C1721 H1692 0.950 . S
C1721 C1720 1.397 . S
C1721 C1722 1.334 . S
C1722 H1693 0.950 . S
C1722 C1721 1.334 . S
C1722 C1723 1.287 . S
C1723 C1722 1.287 . S
C1723 C1724 1.524 . S
C1723 H1726 0.999 . S
C1724 H1694 0.950 . S
C1724 C1723 1.524 . S
C1724 C1725 1.415 . S
C1725 H1695 0.950 . S
C1725 C1720 1.363 . S
C1725 C1724 1.415 . S
H1726 C1723 0.999 . S
H1727 C1708 0.913 . S
C562 C514 1.425 . S
C547 C51 1.396 . S
C597 C125 1.368 . S
C612 C455 1.374 . S
C647 C217 2.811 . S
C662 C458 2.846 . S
C697 C291 1.518 . S
C712 C472 1.519 . S
C762 C497 0.877 . S
C747 C347 0.867 . S
C797 C421 0.800 . S
C812 C500 0.800 . S
C847 C143 2.291 . S
C862 C469 2.293 . S
C897 C199 1.569 . S
C912 C483 1.591 . S
C947 C273 0.337 . S
C962 C486 0.318 . S
C1012 C511 1.765 . S
C997 C365 1.732 . S
C1062 C525 1.785 . S
C1047 C439 1.785 . S
C1112 C444 2.650 . S
C1097 C69 2.604 . S
C1147 C63 1.331 . S
C1162 C467 1.407 . S
C1197 C137 1.550 . S
C1212 C481 1.610 . S
C1262 C491 1.319 . S
C1247 C187 1.277 . S
C1297 C261 1.479 . S
C1312 C509 1.499 . S
C1362 C523 1.509 . S
C1347 C359 1.397 . S
C1412 C449 1.075 . S
C1397 C433 1.040 . S
C1462 C519 1.688 . S
C1447 C113 1.666 . S
C1497 C211 1.264 . S
C1512 C453 1.327 . S
C1562 C463 1.565 . S
C1547 C285 1.489 . S
C1597 C335 1.374 . S
C1612 C477 1.433 . S
C1647 C409 1.325 . S
C1662 C495 1.338 . S
C1697 C39 1.628 . S
C1712 C505 1.663 . S
