# Generated by pormake.
# Topology rtl, (3,6)-cn, num edge types: 1
# Building blocks:
#     Node 0, Type 0, BuildingBlock: ESEHIV_clean_linker_0, # of connection points: 3
#     Node 1, Type 0, BuildingBlock: ESEHIV_clean_linker_0, # of connection points: 3
#     Node 2, Type 0, BuildingBlock: ESEHIV_clean_linker_0, # of connection points: 3
#     Node 3, Type 0, BuildingBlock: ESEHIV_clean_linker_0, # of connection points: 3
#     Node 4, Type 1, BuildingBlock: VOLQOD_clean_sbu_1, # of connection points: 6
#     Node 5, Type 1, BuildingBlock: VOLQOD_clean_sbu_1, # of connection points: 6
#     Edge 6, Type (0, 1), BuildingBlock: CIFDUS_clean_linker_0, # of connection points: 2
#     Edge 7, Type (0, 1), BuildingBlock: CIFDUS_clean_linker_0, # of connection points: 2
#     Edge 8, Type (0, 1), BuildingBlock: CIFDUS_clean_linker_0, # of connection points: 2
#     Edge 9, Type (0, 1), BuildingBlock: CIFDUS_clean_linker_0, # of connection points: 2
#     Edge 10, Type (0, 1), BuildingBlock: CIFDUS_clean_linker_0, # of connection points: 2
#     Edge 11, Type (0, 1), BuildingBlock: CIFDUS_clean_linker_0, # of connection points: 2
#     Edge 12, Type (0, 1), BuildingBlock: CIFDUS_clean_linker_0, # of connection points: 2
#     Edge 13, Type (0, 1), BuildingBlock: CIFDUS_clean_linker_0, # of connection points: 2
#     Edge 14, Type (0, 1), BuildingBlock: CIFDUS_clean_linker_0, # of connection points: 2
#     Edge 15, Type (0, 1), BuildingBlock: CIFDUS_clean_linker_0, # of connection points: 2
#     Edge 16, Type (0, 1), BuildingBlock: CIFDUS_clean_linker_0, # of connection points: 2
#     Edge 17, Type (0, 1), BuildingBlock: CIFDUS_clean_linker_0, # of connection points: 2
# Relax obj value: 0.079
# Max RMSD: 0.156
# Mean RMSD: 0.088
data_MOF--net-rtl--node1-VOLQOD_clean_sbu_1--node2-ESEHIV_clean_linker_0--edge1-CIFDUS_clean_linker_0
_symmetry_space_group_name_H-M    P1
_symmetry_Int_Tables_number       1
_symmetry_cell_setting            triclinic
loop_
_symmetry_equiv_pos_as_xyz
'x, y, z'
_cell_length_a     30.589937
_cell_length_b     26.427906
_cell_length_c     19.701193
_cell_angle_alpha  89.752306
_cell_angle_beta   90.487369
_cell_angle_gamma 90.745764
loop_
_atom_site_label
_atom_site_type_symbol
_atom_site_fract_x
_atom_site_fract_y
_atom_site_fract_z
_atom_type_partial_charge
H0 H 0.06019 0.78061 0.04464 0.0
H1 H 0.15285 0.68195 0.1384 0.0
H2 H 0.13434 0.67964 0.92134 0.0
C3 C 0.08267 0.74937 0.04047 0.0
C4 C 0.09406 0.73138 0.97621 0.0
C5 C 0.10338 0.73086 0.09884 0.0
C6 C 0.13486 0.69329 0.0933 0.0
C7 C 0.14615 0.67412 0.02948 0.0
C8 C 0.12473 0.69258 0.9711 0.0
H9 H 0.55047 0.75214 0.52643 0.0
H10 H 0.65472 0.82569 0.4164 0.0
H11 H 0.64822 0.83905 0.63309 0.0
C12 C 0.57938 0.77614 0.52526 0.0
C13 C 0.59714 0.79369 0.58688 0.0
C14 C 0.60004 0.78644 0.46303 0.0
C15 C 0.63726 0.81838 0.46308 0.0
C16 C 0.65434 0.83806 0.52407 0.0
C17 C 0.63436 0.82517 0.58577 0.0
H18 H 0.92281 0.21043 0.00796 0.0
H19 H 0.82299 0.2807 0.12739 0.0
H20 H 0.81767 0.28965 0.91053 0.0
C21 C 0.89366 0.23297 0.01154 0.0
C22 C 0.87227 0.24819 0.9515 0.0
C23 C 0.87634 0.2441 0.07584 0.0
C24 C 0.8382 0.27324 0.07905 0.0
C25 C 0.81738 0.28972 0.01951 0.0
C26 C 0.83455 0.27741 0.95623 0.0
H27 H 0.45784 0.28318 0.49833 0.0
H28 H 0.36548 0.20814 0.62842 0.0
H29 H 0.34671 0.20638 0.4112 0.0
C30 C 0.42915 0.25914 0.50464 0.0
C31 C 0.40514 0.24372 0.44732 0.0
C32 C 0.41434 0.24752 0.57013 0.0
C33 C 0.37668 0.21722 0.57776 0.0
C34 C 0.35172 0.20191 0.52087 0.0
C35 C 0.36632 0.21559 0.45562 0.0
O36 O 0.90139 0.99753 0.52964 0.0
Zn37 Zn 0.95583 0.04209 0.52106 0.0
O38 O 0.00925 0.00166 0.5271 0.0
Zn39 Zn 0.04643 0.02603 0.6012 0.0
Zn40 Zn 0.99362 0.93063 0.54298 0.0
Zn41 Zn 0.04198 0.00708 0.44305 0.0
O42 O 0.10453 0.05203 0.56797 0.0
O43 O 0.10218 0.0372 0.45722 0.0
O44 O 0.95422 0.09281 0.59755 0.0
O45 O 0.01777 0.08231 0.65083 0.0
O46 O 0.05714 0.97078 0.66969 0.0
O47 O 0.02159 0.90392 0.62809 0.0
O48 O 0.01066 0.88616 0.46499 0.0
O49 O 0.95233 0.0792 0.43113 0.0
O50 O 0.04916 0.93931 0.40066 0.0
O51 O 0.0096 0.04985 0.37535 0.0
C52 C 0.8966 0.95102 0.54567 0.0
C53 C 0.12224 0.05353 0.50974 0.0
C54 C 0.0454 0.92446 0.6738 0.0
C55 C 0.9813 0.10453 0.64464 0.0
C56 C 0.03407 0.89524 0.41319 0.0
C57 C 0.97548 0.07686 0.37778 0.0
O58 O 0.92926 0.92237 0.55429 0.0
O59 O 0.60409 0.51006 0.04062 0.0
Zn60 Zn 0.55302 0.55787 0.03266 0.0
O61 O 0.49814 0.51974 0.01722 0.0
Zn62 Zn 0.47213 0.54288 0.9324 0.0
Zn63 Zn 0.50881 0.44686 0.01193 0.0
Zn64 Zn 0.45746 0.53154 0.09081 0.0
O65 O 0.41093 0.56672 0.94494 0.0
O66 O 0.40109 0.56024 0.05619 0.0
O67 O 0.56562 0.60763 0.9564 0.0
O68 O 0.50617 0.60028 0.89176 0.0
O69 O 0.47015 0.48703 0.86414 0.0
O70 O 0.49109 0.41838 0.9203 0.0
O71 O 0.47795 0.40707 0.08613 0.0
O72 O 0.54978 0.59818 0.11916 0.0
O73 O 0.44104 0.46717 0.13814 0.0
O74 O 0.4844 0.57791 0.16092 0.0
C75 C 0.60646 0.46214 0.03487 0.0
C76 C 0.38714 0.57146 0.99706 0.0
C77 C 0.47759 0.43977 0.86611 0.0
C78 C 0.54285 0.62125 0.90521 0.0
C79 C 0.45153 0.42107 0.13176 0.0
C80 C 0.52079 0.60176 0.16485 0.0
O81 O 0.57264 0.43484 0.02341 0.0
H82 H 0.31342 0.12912 0.44062 0.0
H83 H 0.29153 0.21776 0.62078 0.0
H84 H 0.22049 0.17734 0.63514 0.0
H85 H 0.16303 0.11947 0.59477 0.0
H86 H 0.18118 0.03662 0.40912 0.0
H87 H 0.25467 0.07314 0.39791 0.0
C88 C 0.29306 0.13999 0.48275 0.0
C89 C 0.30848 0.17611 0.52992 0.0
C90 C 0.25126 0.11796 0.48951 0.0
C91 C 0.28149 0.18909 0.5846 0.0
C92 C 0.24043 0.16642 0.59254 0.0
C93 C 0.18314 0.10919 0.55202 0.0
C94 C 0.16676 0.07528 0.50301 0.0
C95 C 0.2249 0.13104 0.54517 0.0
C96 C 0.19301 0.06281 0.44744 0.0
C97 C 0.23505 0.08358 0.44108 0.0
H98 H 0.21102 0.68278 0.93684 0.0
H99 H 0.1703 0.59497 0.11103 0.0
H100 H 0.2416 0.55443 0.11554 0.0
H101 H 0.31734 0.54957 0.07577 0.0
H102 H 0.35671 0.63493 0.89889 0.0
H103 H 0.28353 0.67039 0.88899 0.0
C104 C 0.2171 0.65364 0.97454 0.0
C105 C 0.18545 0.6422 0.02386 0.0
C106 C 0.25807 0.63063 0.9769 0.0
C107 C 0.19436 0.60493 0.07305 0.0
C108 C 0.23509 0.58182 0.07573 0.0
C109 C 0.30976 0.57583 0.03498 0.0
C110 C 0.34237 0.59036 0.9888 0.0
C111 C 0.26757 0.59549 0.02911 0.0
C112 C 0.33208 0.62349 0.93526 0.0
C113 C 0.29032 0.64375 0.9296 0.0
H114 H 0.7265 0.82143 0.60019 0.0
H115 H 0.67464 0.92078 0.44622 0.0
H116 H 0.74436 0.96758 0.44267 0.0
H117 H 0.82133 0.97752 0.48028 0.0
H118 H 0.87339 0.87388 0.62928 0.0
H119 H 0.80224 0.83191 0.63865 0.0
C120 C 0.73034 0.85377 0.56656 0.0
C121 C 0.6956 0.86797 0.52387 0.0
C122 C 0.77057 0.87964 0.56391 0.0
C123 C 0.70113 0.90924 0.47944 0.0
C124 C 0.74088 0.93597 0.47752 0.0
C125 C 0.81682 0.94614 0.51529 0.0
C126 C 0.85245 0.9288 0.55404 0.0
C127 C 0.77601 0.92119 0.51909 0.0
C128 C 0.84645 0.8877 0.59864 0.0
C129 C 0.80581 0.86368 0.60407 0.0
H130 H 0.79995 0.38305 0.0688 0.0
H131 H 0.74022 0.25187 0.9755 0.0
H132 H 0.66922 0.29325 0.97425 0.0
H133 H 0.62505 0.36704 0.99621 0.0
H134 H 0.68414 0.50099 0.08419 0.0
H135 H 0.75472 0.4584 0.0908 0.0
C136 C 0.77115 0.36373 0.04877 0.0
C137 C 0.77478 0.31472 0.02243 0.0
C138 C 0.73067 0.38825 0.04688 0.0
C139 C 0.73775 0.28973 0.9959 0.0
C140 C 0.69734 0.31333 0.99514 0.0
C141 C 0.65324 0.387 0.01723 0.0
C142 C 0.6493 0.43707 0.03984 0.0
C143 C 0.69353 0.36267 0.01996 0.0
C144 C 0.68634 0.46243 0.06625 0.0
C145 C 0.72665 0.43809 0.07017 0.0
H146 H 0.03386 0.7305 0.18361 0.0
H147 H 0.16315 0.79324 0.15528 0.0
H148 H 0.15425 0.84797 0.25383 0.0
H149 H 0.1075 0.88252 0.34182 0.0
H150 H 0.97923 0.81808 0.37487 0.0
H151 H 0.98991 0.75866 0.28138 0.0
C152 C 0.0601 0.75571 0.20004 0.0
C153 C 0.09897 0.75838 0.16294 0.0
C154 C 0.05486 0.78663 0.2571 0.0
C155 C 0.13307 0.79082 0.18387 0.0
C156 C 0.12793 0.82211 0.23982 0.0
C157 C 0.08214 0.85502 0.32894 0.0
C158 C 0.04253 0.85482 0.36421 0.0
C159 C 0.08867 0.82103 0.27589 0.0
C160 C 0.01004 0.8187 0.34813 0.0
C161 C 0.01603 0.78503 0.29454 0.0
H162 H 0.64358 0.75771 0.69449 0.0
H163 H 0.51161 0.78321 0.62437 0.0
H164 H 0.48306 0.73484 0.72053 0.0
H165 H 0.49594 0.67797 0.81686 0.0
H166 H 0.62772 0.65249 0.88782 0.0
H167 H 0.65601 0.70919 0.79959 0.0
C168 C 0.60854 0.75391 0.70126 0.0
C169 C 0.57976 0.77353 0.65189 0.0
C170 C 0.59237 0.72564 0.75631 0.0
C171 C 0.53445 0.76779 0.66109 0.0
C172 C 0.51811 0.74013 0.716 0.0
C173 C 0.53085 0.68516 0.81345 0.0
C174 C 0.55975 0.66041 0.85807 0.0
C175 C 0.54683 0.71754 0.76259 0.0
C176 C 0.6048 0.67088 0.85385 0.0
C177 C 0.621 0.70315 0.80328 0.0
H178 H 0.91546 0.15213 0.08983 0.0
H179 H 0.88011 0.28412 0.20496 0.0
H180 H 0.90602 0.24346 0.30887 0.0
H181 H 0.93808 0.16953 0.36754 0.0
H182 H 0.98081 0.04289 0.24893 0.0
H183 H 0.95389 0.08331 0.14536 0.0
C184 C 0.91441 0.17303 0.13695 0.0
C185 C 0.89555 0.22137 0.1388 0.0
C186 C 0.93078 0.1503 0.19614 0.0
C187 C 0.89354 0.24653 0.2016 0.0
C188 C 0.90867 0.22345 0.2612 0.0
C189 C 0.94155 0.15104 0.31886 0.0
C190 C 0.96105 0.10326 0.31567 0.0
C191 C 0.92704 0.17514 0.25916 0.0
C192 C 0.96598 0.07979 0.25244 0.0
C193 C 0.95049 0.10278 0.1933 0.0
H194 H 0.43245 0.34714 0.58004 0.0
H195 H 0.43664 0.20796 0.69473 0.0
H196 H 0.45901 0.25503 0.79659 0.0
H197 H 0.47279 0.33671 0.85409 0.0
H198 H 0.46537 0.47534 0.73772 0.0
H199 H 0.44928 0.42734 0.6353 0.0
C200 C 0.43928 0.32691 0.6269 0.0
C201 C 0.43334 0.27414 0.62979 0.0
C202 C 0.45111 0.3542 0.68511 0.0
C203 C 0.44109 0.24862 0.69137 0.0
C204 C 0.45376 0.27552 0.74951 0.0
C205 C 0.46799 0.35635 0.80622 0.0
C206 C 0.47 0.40961 0.80385 0.0
C207 C 0.45811 0.32848 0.74725 0.0
C208 C 0.46361 0.43445 0.74133 0.0
C209 C 0.4545 0.40704 0.68255 0.0
H210 H 0.5629 0.69197 0.45172 0.0
H211 H 0.60415 0.82037 0.33018 0.0
H212 H 0.58497 0.77393 0.22723 0.0
H213 H 0.55697 0.69603 0.17141 0.0
H214 H 0.50678 0.57373 0.29488 0.0
H215 H 0.52748 0.61973 0.39787 0.0
C216 C 0.56657 0.71098 0.40326 0.0
C217 C 0.58517 0.76003 0.39967 0.0
C218 C 0.55371 0.68506 0.34437 0.0
C219 C 0.59085 0.7824 0.33523 0.0
C220 C 0.57952 0.75601 0.27607 0.0
C221 C 0.55043 0.6798 0.22103 0.0
C222 C 0.53076 0.63159 0.22602 0.0
C223 C 0.5612 0.70716 0.28004 0.0
C224 C 0.52183 0.61092 0.29017 0.0
C225 C 0.53378 0.63708 0.34891 0.0
H226 H 0.95559 0.23726 0.90517 0.0
H227 H 0.82029 0.21412 0.84748 0.0
H228 H 0.84247 0.17386 0.74276 0.0
H229 H 0.8997 0.13687 0.67348 0.0
H230 H 0.03485 0.1536 0.73511 0.0
H231 H 0.01327 0.20428 0.83224 0.0
C232 C 0.93096 0.22349 0.86965 0.0
C233 C 0.88637 0.22873 0.88454 0.0
C234 C 0.94387 0.19875 0.81032 0.0
C235 C 0.8549 0.21143 0.83717 0.0
C236 C 0.86751 0.18786 0.77739 0.0
C237 C 0.92451 0.15232 0.70746 0.0
C238 C 0.96875 0.14114 0.69732 0.0
C239 C 0.91184 0.18026 0.76422 0.0
C240 C 0.00048 0.16129 0.74208 0.0
C241 C 0.98819 0.19021 0.79773 0.0
H242 H 0.35651 0.30317 0.36636 0.0
H243 H 0.48198 0.23167 0.38043 0.0
H244 H 0.50586 0.27579 0.27709 0.0
H245 H 0.4933 0.3416 0.18992 0.0
H246 H 0.37017 0.41919 0.18467 0.0
H247 H 0.34274 0.36557 0.27662 0.0
C248 C 0.38868 0.29647 0.3457 0.0
C249 C 0.41739 0.26406 0.38007 0.0
C250 C 0.40263 0.32345 0.28821 0.0
C251 C 0.45939 0.25638 0.35419 0.0
C252 C 0.47302 0.2817 0.29543 0.0
C253 C 0.46021 0.34594 0.20819 0.0
C254 C 0.4337 0.38408 0.18077 0.0
C255 C 0.44529 0.31631 0.26297 0.0
C256 C 0.39113 0.39009 0.20536 0.0
C257 C 0.37547 0.35953 0.25791 0.0
H258 H 0.10313 0.83129 0.95488 0.0
H259 H 0.05668 0.69411 0.85956 0.0
H260 H 0.03771 0.74188 0.75646 0.0
H261 H 0.03476 0.82288 0.69423 0.0
H262 H 0.08397 0.95914 0.79019 0.0
H263 H 0.10161 0.91131 0.8925 0.0
C264 C 0.08828 0.81202 0.91178 0.0
C265 C 0.08048 0.75959 0.91484 0.0
C266 C 0.07834 0.83945 0.85287 0.0
C267 C 0.06251 0.73462 0.85821 0.0
C268 C 0.05181 0.76187 0.79946 0.0
C269 C 0.04941 0.84213 0.73746 0.0
C270 C 0.05792 0.89461 0.73446 0.0
C271 C 0.05969 0.81433 0.79624 0.0
C272 C 0.07716 0.91882 0.79088 0.0
C273 C 0.08713 0.89155 0.84959 0.0
loop_
_geom_bond_atom_site_label_1
_geom_bond_atom_site_label_2
_geom_bond_distance
_geom_bond_site_symmetry_2
_ccdc_geom_bond_type
H0 C3 0.931 . S
H1 C6 0.928 . S
H2 C8 0.930 . S
C3 H0 0.931 . S
C3 C4 1.413 1_554 S
C3 C5 1.360 . S
C4 C3 1.413 1_556 S
C4 C8 1.429 . S
C5 C3 1.360 . S
C5 C6 1.372 . S
C6 H1 0.928 . S
C6 C5 1.372 . S
C6 C7 1.404 . S
C7 C6 1.404 . S
C7 C8 1.391 1_554 S
C8 H2 0.930 . S
C8 C4 1.429 . S
C8 C7 1.391 1_556 S
H9 C12 0.931 . S
H10 C15 0.928 . S
H11 C17 0.930 . S
C12 H9 0.931 . S
C12 C13 1.413 . S
C12 C14 1.360 . S
C13 C12 1.413 . S
C13 C17 1.429 . S
C14 C12 1.360 . S
C14 C15 1.372 . S
C15 H10 0.928 . S
C15 C14 1.372 . S
C15 C16 1.404 . S
C16 C15 1.404 . S
C16 C17 1.391 . S
C17 H11 0.930 . S
C17 C13 1.429 . S
C17 C16 1.391 . S
H18 C21 0.931 . S
H19 C24 0.928 . S
H20 C26 0.930 . S
C21 H18 0.931 . S
C21 C22 1.413 1_554 S
C21 C23 1.360 . S
C22 C21 1.413 1_556 S
C22 C26 1.429 . S
C23 C21 1.360 . S
C23 C24 1.372 . S
C24 H19 0.928 . S
C24 C23 1.372 . S
C24 C25 1.404 . S
C25 C24 1.404 . S
C25 C26 1.391 1_554 S
C26 H20 0.930 . S
C26 C22 1.429 . S
C26 C25 1.391 1_556 S
H27 C30 0.931 . S
H28 C33 0.928 . S
H29 C35 0.930 . S
C30 H27 0.931 . S
C30 C31 1.413 . S
C30 C32 1.360 . S
C31 C30 1.413 . S
C31 C35 1.429 . S
C32 C30 1.360 . S
C32 C33 1.372 . S
C33 H28 0.928 . S
C33 C32 1.372 . S
C33 C34 1.404 . S
C34 C33 1.404 . S
C34 C35 1.391 . S
C35 H29 0.930 . S
C35 C31 1.429 . S
C35 C34 1.391 . S
O36 Zn37 1.953 1_565 S
O36 C52 1.225 . S
Zn37 O36 1.953 1_545 S
Zn37 O38 1.949 1_655 S
Zn37 O44 1.919 . S
Zn37 O49 1.924 . S
O38 Zn37 1.949 1_455 S
O38 Zn39 1.923 . S
O38 Zn40 1.950 1_445 S
O38 Zn41 1.945 . S
Zn39 O38 1.923 . S
Zn39 O42 1.933 . S
Zn39 O45 1.941 . S
Zn39 O46 1.965 1_545 S
Zn40 O38 1.950 1_665 S
Zn40 O47 1.938 1_655 S
Zn40 O48 1.906 1_655 S
Zn40 O58 1.953 . S
Zn41 O38 1.945 . S
Zn41 O43 1.932 . S
Zn41 O50 1.977 1_545 S
Zn41 O51 1.910 1_455 S
O42 Zn39 1.933 . S
O42 C53 1.226 . S
O43 Zn41 1.932 . S
O43 C53 1.307 . S
O44 Zn37 1.919 . S
O44 C55 1.253 . S
O45 Zn39 1.941 . S
O45 C55 1.283 1_455 S
O46 Zn39 1.965 1_565 S
O46 C54 1.303 . S
O47 Zn40 1.938 1_455 S
O47 C54 1.247 . S
O48 Zn40 1.906 1_455 S
O48 C56 1.304 . S
O49 Zn37 1.924 . S
O49 C57 1.311 . S
O50 Zn41 1.977 1_565 S
O50 C56 1.272 . S
O51 Zn41 1.910 1_655 S
O51 C57 1.231 . S
C52 O36 1.225 . S
C52 O58 1.298 . S
C53 O42 1.226 . S
C53 O43 1.307 . S
C54 O46 1.303 . S
C54 O47 1.247 . S
C55 O44 1.253 . S
C55 O45 1.283 1_655 S
C56 O48 1.304 . S
C56 O50 1.272 . S
C57 O49 1.311 . S
C57 O51 1.231 . S
O58 Zn40 1.953 . S
O58 C52 1.298 . S
O59 Zn60 1.953 . S
O59 C75 1.225 . S
Zn60 O59 1.953 . S
Zn60 O61 1.949 . S
Zn60 O67 1.919 1_554 S
Zn60 O72 1.924 . S
O61 Zn60 1.949 . S
O61 Zn62 1.923 1_554 S
O61 Zn63 1.950 . S
O61 Zn64 1.945 . S
Zn62 O61 1.923 1_556 S
Zn62 O65 1.933 . S
Zn62 O68 1.941 . S
Zn62 O69 1.965 . S
Zn63 O61 1.950 . S
Zn63 O70 1.938 1_554 S
Zn63 O71 1.906 . S
Zn63 O81 1.953 . S
Zn64 O61 1.945 . S
Zn64 O66 1.932 . S
Zn64 O73 1.977 . S
Zn64 O74 1.910 . S
O65 Zn62 1.933 . S
O65 C76 1.226 1_556 S
O66 Zn64 1.932 . S
O66 C76 1.307 . S
O67 Zn60 1.919 1_556 S
O67 C78 1.253 . S
O68 Zn62 1.941 . S
O68 C78 1.283 . S
O69 Zn62 1.965 . S
O69 C77 1.303 . S
O70 Zn63 1.938 1_556 S
O70 C77 1.247 . S
O71 Zn63 1.906 . S
O71 C79 1.304 . S
O72 Zn60 1.924 . S
O72 C80 1.311 . S
O73 Zn64 1.977 . S
O73 C79 1.272 . S
O74 Zn64 1.910 . S
O74 C80 1.231 . S
C75 O59 1.225 . S
C75 O81 1.298 . S
C76 O65 1.226 1_554 S
C76 O66 1.307 . S
C77 O69 1.303 . S
C77 O70 1.247 . S
C78 O67 1.253 . S
C78 O68 1.283 . S
C79 O71 1.304 . S
C79 O73 1.272 . S
C80 O72 1.311 . S
C80 O74 1.231 . S
O81 Zn63 1.953 . S
O81 C75 1.298 . S
H82 C88 0.930 . S
H83 C91 0.930 . S
H84 C92 0.930 . S
H85 C93 0.930 . S
H86 C96 0.930 . S
H87 C97 0.930 . S
C88 H82 0.930 . S
C88 C89 1.355 . S
C88 C90 1.415 . S
C89 C88 1.355 . S
C89 C91 1.419 . S
C90 C88 1.415 . S
C90 C95 1.425 . S
C90 C97 1.409 . S
C91 H83 0.930 . S
C91 C89 1.419 . S
C91 C92 1.362 . S
C92 H84 0.930 . S
C92 C91 1.362 . S
C92 C95 1.409 . S
C93 H85 0.930 . S
C93 C94 1.355 . S
C93 C95 1.415 . S
C94 C93 1.355 . S
C94 C96 1.419 . S
C95 C90 1.425 . S
C95 C92 1.409 . S
C95 C93 1.415 . S
C96 H86 0.930 . S
C96 C94 1.419 . S
C96 C97 1.362 . S
C97 H87 0.930 . S
C97 C90 1.409 . S
C97 C96 1.362 . S
H98 C104 0.930 1_556 S
H99 C107 0.930 . S
H100 C108 0.930 . S
H101 C109 0.930 . S
H102 C112 0.930 . S
H103 C113 0.930 . S
C104 H98 0.930 1_554 S
C104 C105 1.355 . S
C104 C106 1.415 . S
C105 C104 1.355 . S
C105 C107 1.419 . S
C106 C104 1.415 . S
C106 C111 1.425 . S
C106 C113 1.409 1_554 S
C107 H99 0.930 . S
C107 C105 1.419 . S
C107 C108 1.362 . S
C108 H100 0.930 . S
C108 C107 1.362 . S
C108 C111 1.409 . S
C109 H101 0.930 . S
C109 C110 1.355 . S
C109 C111 1.415 . S
C110 C109 1.355 . S
C110 C112 1.419 1_554 S
C111 C106 1.425 . S
C111 C108 1.409 . S
C111 C109 1.415 . S
C112 H102 0.930 . S
C112 C110 1.419 1_556 S
C112 C113 1.362 . S
C113 H103 0.930 . S
C113 C106 1.409 1_556 S
C113 C112 1.362 . S
H114 C120 0.930 . S
H115 C123 0.930 . S
H116 C124 0.930 . S
H117 C125 0.930 . S
H118 C128 0.930 . S
H119 C129 0.930 . S
C120 H114 0.930 . S
C120 C121 1.355 . S
C120 C122 1.415 . S
C121 C120 1.355 . S
C121 C123 1.419 . S
C122 C120 1.415 . S
C122 C127 1.425 . S
C122 C129 1.409 . S
C123 H115 0.930 . S
C123 C121 1.419 . S
C123 C124 1.362 . S
C124 H116 0.930 . S
C124 C123 1.362 . S
C124 C127 1.409 . S
C125 H117 0.930 . S
C125 C126 1.355 . S
C125 C127 1.415 . S
C126 C125 1.355 . S
C126 C128 1.419 . S
C127 C122 1.425 . S
C127 C124 1.409 . S
C127 C125 1.415 . S
C128 H118 0.930 . S
C128 C126 1.419 . S
C128 C129 1.362 . S
C129 H119 0.930 . S
C129 C122 1.409 . S
C129 C128 1.362 . S
H130 C136 0.930 . S
H131 C139 0.930 . S
H132 C140 0.930 . S
H133 C141 0.923 1_556 S
H134 C144 0.930 . S
H135 C145 0.930 . S
C136 H130 0.930 . S
C136 C137 1.355 . S
C136 C138 1.415 . S
C137 C136 1.355 . S
C137 C139 1.419 1_554 S
C138 C136 1.415 . S
C138 C143 1.425 . S
C138 C145 1.409 . S
C139 H131 0.930 . S
C139 C137 1.419 1_556 S
C139 C140 1.362 . S
C140 H132 0.930 . S
C140 C139 1.362 . S
C140 C143 1.409 1_556 S
C141 H133 0.923 1_554 S
C141 C142 1.360 . S
C141 C143 1.416 . S
C142 C141 1.360 . S
C142 C144 1.419 . S
C143 C138 1.425 . S
C143 C140 1.409 1_554 S
C143 C141 1.416 . S
C144 H134 0.930 . S
C144 C142 1.419 . S
C144 C145 1.362 . S
C145 H135 0.930 . S
C145 C138 1.409 . S
C145 C144 1.362 . S
H146 C152 0.930 . S
H147 C155 0.930 . S
H148 C156 0.930 . S
H149 C157 0.930 . S
H150 C160 0.930 . S
H151 C161 0.930 . S
C152 H146 0.930 . S
C152 C153 1.355 . S
C152 C154 1.415 . S
C153 C152 1.355 . S
C153 C155 1.419 . S
C154 C152 1.415 . S
C154 C159 1.425 . S
C154 C161 1.409 . S
C155 H147 0.930 . S
C155 C153 1.419 . S
C155 C156 1.362 . S
C156 H148 0.930 . S
C156 C155 1.362 . S
C156 C159 1.409 . S
C157 H149 0.930 . S
C157 C158 1.355 . S
C157 C159 1.415 . S
C158 C157 1.355 . S
C158 C160 1.419 . S
C159 C154 1.425 . S
C159 C156 1.409 . S
C159 C157 1.415 . S
C160 H150 0.930 . S
C160 C158 1.419 . S
C160 C161 1.362 . S
C161 H151 0.930 . S
C161 C154 1.409 . S
C161 C160 1.362 . S
H162 C168 0.930 . S
H163 C171 0.930 . S
H164 C172 0.930 . S
H165 C173 0.930 . S
H166 C176 0.930 . S
H167 C177 0.930 . S
C168 H162 0.930 . S
C168 C169 1.355 . S
C168 C170 1.415 . S
C169 C168 1.355 . S
C169 C171 1.419 . S
C170 C168 1.415 . S
C170 C175 1.425 . S
C170 C177 1.409 . S
C171 H163 0.930 . S
C171 C169 1.419 . S
C171 C172 1.362 . S
C172 H164 0.930 . S
C172 C171 1.362 . S
C172 C175 1.409 . S
C173 H165 0.930 . S
C173 C174 1.355 . S
C173 C175 1.415 . S
C174 C173 1.355 . S
C174 C176 1.419 . S
C175 C170 1.425 . S
C175 C172 1.409 . S
C175 C173 1.415 . S
C176 H166 0.930 . S
C176 C174 1.419 . S
C176 C177 1.362 . S
C177 H167 0.930 . S
C177 C170 1.409 . S
C177 C176 1.362 . S
H178 C184 0.930 . S
H179 C187 0.930 . S
H180 C188 0.930 . S
H181 C189 0.930 . S
H182 C192 0.930 . S
H183 C193 0.930 . S
C184 H178 0.930 . S
C184 C185 1.355 . S
C184 C186 1.415 . S
C185 C184 1.355 . S
C185 C187 1.419 . S
C186 C184 1.415 . S
C186 C191 1.425 . S
C186 C193 1.409 . S
C187 H179 0.930 . S
C187 C185 1.419 . S
C187 C188 1.362 . S
C188 H180 0.930 . S
C188 C187 1.362 . S
C188 C191 1.409 . S
C189 H181 0.930 . S
C189 C190 1.355 . S
C189 C191 1.415 . S
C190 C189 1.355 . S
C190 C192 1.419 . S
C191 C186 1.425 . S
C191 C188 1.409 . S
C191 C189 1.415 . S
C192 H182 0.930 . S
C192 C190 1.419 . S
C192 C193 1.362 . S
C193 H183 0.930 . S
C193 C186 1.409 . S
C193 C192 1.362 . S
H194 C200 0.930 . S
H195 C203 0.930 . S
H196 C204 0.930 . S
H197 C205 0.930 . S
H198 C208 0.930 . S
H199 C209 0.930 . S
C200 H194 0.930 . S
C200 C201 1.355 . S
C200 C202 1.415 . S
C201 C200 1.355 . S
C201 C203 1.419 . S
C202 C200 1.415 . S
C202 C207 1.425 . S
C202 C209 1.409 . S
C203 H195 0.930 . S
C203 C201 1.419 . S
C203 C204 1.362 . S
C204 H196 0.930 . S
C204 C203 1.362 . S
C204 C207 1.409 . S
C205 H197 0.930 . S
C205 C206 1.355 . S
C205 C207 1.415 . S
C206 C205 1.355 . S
C206 C208 1.419 . S
C207 C202 1.425 . S
C207 C204 1.409 . S
C207 C205 1.415 . S
C208 H198 0.930 . S
C208 C206 1.419 . S
C208 C209 1.362 . S
C209 H199 0.930 . S
C209 C202 1.409 . S
C209 C208 1.362 . S
H210 C216 0.930 . S
H211 C219 0.930 . S
H212 C220 0.930 . S
H213 C221 0.930 . S
H214 C224 0.930 . S
H215 C225 0.930 . S
C216 H210 0.930 . S
C216 C217 1.355 . S
C216 C218 1.415 . S
C217 C216 1.355 . S
C217 C219 1.419 . S
C218 C216 1.415 . S
C218 C223 1.425 . S
C218 C225 1.409 . S
C219 H211 0.930 . S
C219 C217 1.419 . S
C219 C220 1.362 . S
C220 H212 0.930 . S
C220 C219 1.362 . S
C220 C223 1.409 . S
C221 H213 0.930 . S
C221 C222 1.355 . S
C221 C223 1.415 . S
C222 C221 1.355 . S
C222 C224 1.419 . S
C223 C218 1.425 . S
C223 C220 1.409 . S
C223 C221 1.415 . S
C224 H214 0.930 . S
C224 C222 1.419 . S
C224 C225 1.362 . S
C225 H215 0.930 . S
C225 C218 1.409 . S
C225 C224 1.362 . S
H226 C232 0.930 . S
H227 C235 0.930 . S
H228 C236 0.930 . S
H229 C237 0.930 . S
H230 C240 0.930 . S
H231 C241 0.930 . S
C232 H226 0.930 . S
C232 C233 1.355 . S
C232 C234 1.415 . S
C233 C232 1.355 . S
C233 C235 1.419 . S
C234 C232 1.415 . S
C234 C239 1.425 . S
C234 C241 1.409 1_655 S
C235 H227 0.930 . S
C235 C233 1.419 . S
C235 C236 1.362 . S
C236 H228 0.930 . S
C236 C235 1.362 . S
C236 C239 1.409 . S
C237 H229 0.930 . S
C237 C238 1.355 . S
C237 C239 1.415 . S
C238 C237 1.355 . S
C238 C240 1.419 1_655 S
C239 C234 1.425 . S
C239 C236 1.409 . S
C239 C237 1.415 . S
C240 H230 0.930 . S
C240 C238 1.419 1_455 S
C240 C241 1.362 . S
C241 H231 0.930 . S
C241 C234 1.409 1_455 S
C241 C240 1.362 . S
H242 C248 0.930 . S
H243 C251 0.930 . S
H244 C252 0.930 . S
H245 C253 0.930 . S
H246 C256 0.930 . S
H247 C257 0.930 . S
C248 H242 0.930 . S
C248 C249 1.355 . S
C248 C250 1.415 . S
C249 C248 1.355 . S
C249 C251 1.419 . S
C250 C248 1.415 . S
C250 C255 1.425 . S
C250 C257 1.409 . S
C251 H243 0.930 . S
C251 C249 1.419 . S
C251 C252 1.362 . S
C252 H244 0.930 . S
C252 C251 1.362 . S
C252 C255 1.409 . S
C253 H245 0.930 . S
C253 C254 1.355 . S
C253 C255 1.415 . S
C254 C253 1.355 . S
C254 C256 1.419 . S
C255 C250 1.425 . S
C255 C252 1.409 . S
C255 C253 1.415 . S
C256 H246 0.930 . S
C256 C254 1.419 . S
C256 C257 1.362 . S
C257 H247 0.930 . S
C257 C250 1.409 . S
C257 C256 1.362 . S
H258 C264 0.930 . S
H259 C267 0.930 . S
H260 C268 0.930 . S
H261 C269 0.930 . S
H262 C272 0.930 . S
H263 C273 0.930 . S
C264 H258 0.930 . S
C264 C265 1.355 . S
C264 C266 1.415 . S
C265 C264 1.355 . S
C265 C267 1.419 . S
C266 C264 1.415 . S
C266 C271 1.425 . S
C266 C273 1.409 . S
C267 H259 0.930 . S
C267 C265 1.419 . S
C267 C268 1.362 . S
C268 H260 0.930 . S
C268 C267 1.362 . S
C268 C271 1.409 . S
C269 H261 0.930 . S
C269 C270 1.355 . S
C269 C271 1.415 . S
C270 C269 1.355 . S
C270 C272 1.419 . S
C271 C266 1.425 . S
C271 C268 1.409 . S
C271 C269 1.415 . S
C272 H262 0.930 . S
C272 C270 1.419 . S
C272 C273 1.362 . S
C273 H263 0.930 . S
C273 C266 1.409 . S
C273 C272 1.362 . S
C94 C53 1.520 . S
C89 C34 1.497 . S
C105 C7 1.530 . S
C110 C76 1.537 . S
C121 C16 1.542 . S
C126 C52 1.547 . S
C137 C25 1.499 . S
C142 C75 1.533 . S
C158 C56 1.454 . S
C153 C5 1.515 . S
C174 C78 1.488 . S
C169 C13 1.548 . S
C185 C23 1.554 . S
C190 C57 1.516 . S
C201 C32 1.552 . S
C206 C77 1.513 . S
C222 C80 1.510 . S
C217 C14 1.549 . S
C238 C55 1.510 . S
C233 C22 1.551 . S
C254 C79 1.472 . S
C249 C31 1.541 . S
C265 C4 1.546 . S
C270 C54 1.476 . S
