# Generated by pormake.
# Topology zzz, (3,6)-cn, num edge types: 1
# Building blocks:
#     Node 0, Type 0, BuildingBlock: MIDCAF_clean_linker_0, # of connection points: 3
#     Node 1, Type 0, BuildingBlock: MIDCAF_clean_linker_0, # of connection points: 3
#     Node 2, Type 0, BuildingBlock: MIDCAF_clean_linker_0, # of connection points: 3
#     Node 3, Type 0, BuildingBlock: MIDCAF_clean_linker_0, # of connection points: 3
#     Node 4, Type 0, BuildingBlock: MIDCAF_clean_linker_0, # of connection points: 3
#     Node 5, Type 0, BuildingBlock: MIDCAF_clean_linker_0, # of connection points: 3
#     Node 6, Type 0, BuildingBlock: MIDCAF_clean_linker_0, # of connection points: 3
#     Node 7, Type 0, BuildingBlock: MIDCAF_clean_linker_0, # of connection points: 3
#     Node 8, Type 1, BuildingBlock: MIFKUJ_clean_sbu_0, # of connection points: 6
#     Node 9, Type 1, BuildingBlock: MIFKUJ_clean_sbu_0, # of connection points: 6
#     Node 10, Type 1, BuildingBlock: MIFKUJ_clean_sbu_0, # of connection points: 6
#     Node 11, Type 1, BuildingBlock: MIFKUJ_clean_sbu_0, # of connection points: 6
#     Edge 12, Type (0, 1), BuildingBlock: OJICUG_clean_linker_0, # of connection points: 2
#     Edge 13, Type (0, 1), BuildingBlock: OJICUG_clean_linker_0, # of connection points: 2
#     Edge 14, Type (0, 1), BuildingBlock: OJICUG_clean_linker_0, # of connection points: 2
#     Edge 15, Type (0, 1), BuildingBlock: OJICUG_clean_linker_0, # of connection points: 2
#     Edge 16, Type (0, 1), BuildingBlock: OJICUG_clean_linker_0, # of connection points: 2
#     Edge 17, Type (0, 1), BuildingBlock: OJICUG_clean_linker_0, # of connection points: 2
#     Edge 18, Type (0, 1), BuildingBlock: OJICUG_clean_linker_0, # of connection points: 2
#     Edge 19, Type (0, 1), BuildingBlock: OJICUG_clean_linker_0, # of connection points: 2
#     Edge 20, Type (0, 1), BuildingBlock: OJICUG_clean_linker_0, # of connection points: 2
#     Edge 21, Type (0, 1), BuildingBlock: OJICUG_clean_linker_0, # of connection points: 2
#     Edge 22, Type (0, 1), BuildingBlock: OJICUG_clean_linker_0, # of connection points: 2
#     Edge 23, Type (0, 1), BuildingBlock: OJICUG_clean_linker_0, # of connection points: 2
#     Edge 24, Type (0, 1), BuildingBlock: OJICUG_clean_linker_0, # of connection points: 2
#     Edge 25, Type (0, 1), BuildingBlock: OJICUG_clean_linker_0, # of connection points: 2
#     Edge 26, Type (0, 1), BuildingBlock: OJICUG_clean_linker_0, # of connection points: 2
#     Edge 27, Type (0, 1), BuildingBlock: OJICUG_clean_linker_0, # of connection points: 2
#     Edge 28, Type (0, 1), BuildingBlock: OJICUG_clean_linker_0, # of connection points: 2
#     Edge 29, Type (0, 1), BuildingBlock: OJICUG_clean_linker_0, # of connection points: 2
#     Edge 30, Type (0, 1), BuildingBlock: OJICUG_clean_linker_0, # of connection points: 2
#     Edge 31, Type (0, 1), BuildingBlock: OJICUG_clean_linker_0, # of connection points: 2
#     Edge 32, Type (0, 1), BuildingBlock: OJICUG_clean_linker_0, # of connection points: 2
#     Edge 33, Type (0, 1), BuildingBlock: OJICUG_clean_linker_0, # of connection points: 2
#     Edge 34, Type (0, 1), BuildingBlock: OJICUG_clean_linker_0, # of connection points: 2
#     Edge 35, Type (0, 1), BuildingBlock: OJICUG_clean_linker_0, # of connection points: 2
# Relax obj value: 0.326
# Max RMSD: 0.209
# Mean RMSD: 0.192
data_MOF--net-zzz--node1-MIFKUJ_clean_sbu_0--node2-MIDCAF_clean_linker_0--edge1-OJICUG_clean_linker_0
_symmetry_space_group_name_H-M    P1
_symmetry_Int_Tables_number       1
_symmetry_cell_setting            triclinic
loop_
_symmetry_equiv_pos_as_xyz
'x, y, z'
_cell_length_a     43.424247
_cell_length_b     45.246609
_cell_length_c     16.704996
_cell_angle_alpha  89.287432
_cell_angle_beta   89.767738
_cell_angle_gamma 91.736601
loop_
_atom_site_label
_atom_site_type_symbol
_atom_site_fract_x
_atom_site_fract_y
_atom_site_fract_z
_atom_type_partial_charge
C0 C 0.8011 0.59488 0.2811 0.0
C1 C 0.80055 0.5657 0.31151 0.0
C2 C 0.77726 0.5459 0.28397 0.0
C3 C 0.75723 0.55415 0.22248 0.0
H4 H 0.66013 0.56283 0.07532 0.0
H5 H 0.61091 0.54804 0.01227 0.0
H6 H 0.65027 0.56879 0.77972 0.0
H7 H 0.6978 0.58409 0.84073 0.0
H8 H 0.76502 0.56719 0.81783 0.0
H9 H 0.80727 0.54676 0.74523 0.0
H10 H 0.87167 0.58486 0.91492 0.0
H11 H 0.82873 0.60405 0.99064 0.0
H12 H 0.78447 0.62466 0.19148 0.0
H13 H 0.81793 0.61111 0.30202 0.0
H14 H 0.77599 0.52316 0.30489 0.0
H15 H 0.74172 0.53753 0.19743 0.0
N16 N 0.72087 0.58073 0.07725 0.0
N17 N 0.73823 0.58513 0.94401 0.0
N18 N 0.77337 0.59046 0.04784 0.0
C19 C 0.71459 0.5811 0.99691 0.0
C20 C 0.76759 0.58968 0.96853 0.0
C21 C 0.75047 0.58624 0.10254 0.0
C22 C 0.68326 0.57452 0.96357 0.0
C23 C 0.65798 0.56465 0.01091 0.0
C24 C 0.62983 0.55606 0.97472 0.0
C25 C 0.62645 0.55741 0.8907 0.0
C26 C 0.65151 0.56806 0.84445 0.0
C27 C 0.6792 0.57657 0.88004 0.0
C28 C 0.7934 0.58647 0.91152 0.0
C29 C 0.7882 0.572 0.83868 0.0
C30 C 0.8127 0.56031 0.7965 0.0
C31 C 0.84308 0.56334 0.82525 0.0
C32 C 0.84853 0.58113 0.89256 0.0
C33 C 0.82392 0.59241 0.9356 0.0
C34 C 0.76028 0.58223 0.18644 0.0
C35 C 0.78141 0.60292 0.21885 0.0
C36 C 0.96076 0.77411 0.31492 0.0
C37 C 0.98713 0.78357 0.35681 0.0
C38 C 0.01293 0.76554 0.35772 0.0
C39 C 0.01399 0.7409 0.30824 0.0
H40 H 0.97395 0.63981 0.12889 0.0
H41 H 0.97076 0.5916 0.06089 0.0
H42 H 0.03606 0.62444 0.88347 0.0
H43 H 0.03924 0.67163 0.94876 0.0
H44 H 0.02056 0.73969 0.88555 0.0
H45 H 0.02901 0.78217 0.79521 0.0
H46 H 0.04262 0.83899 -0.00154 0.0
H47 H 0.03411 0.79695 0.08879 0.0
H48 H 0.943 0.74531 0.22417 0.0
H49 H 0.94063 0.78767 0.31315 0.0
H50 H 0.03351 0.77232 0.38999 0.0
H51 H 0.03566 0.72988 0.30179 0.0
N52 N 0.99714 0.69636 0.15133 0.0
N53 N 0.01574 0.71253 0.02494 0.0
N54 N 0.00758 0.74687 0.12449 0.0
C55 C 0.00634 0.69012 0.0751 0.0
C56 C 0.01659 0.74084 0.04928 0.0
C57 C 0.9978 0.72508 0.17549 0.0
C58 C 0.00659 0.65966 0.0439 0.0
C59 C 0.98797 0.63642 0.07623 0.0
C60 C 0.98611 0.60899 0.03758 0.0
C61 C 0.00346 0.60453 0.96777 0.0
C62 C 0.02292 0.62728 0.93803 0.0
C63 C 0.02445 0.65444 0.97536 0.0
C64 C 0.0261 0.76513 0.99423 0.0
C65 C 0.02605 0.76112 0.91087 0.0
C66 C 0.03109 0.7853 0.85919 0.0
C67 C 0.03632 0.81366 0.8904 0.0
C68 C 0.03844 0.81726 0.97338 0.0
C69 C 0.03337 0.79323 0.02488 0.0
C70 C 0.98949 0.73432 0.25631 0.0
C71 C 0.96197 0.74958 0.26479 0.0
C72 C 0.70435 0.89532 0.29822 0.0
C73 C 0.70549 0.92461 0.32529 0.0
C74 C 0.73094 0.94301 0.30239 0.0
C75 C 0.75219 0.93371 0.24519 0.0
H76 H 0.85228 0.91646 0.09104 0.0
H77 H 0.90103 0.93099 0.02163 0.0
H78 H 0.85164 0.93813 0.7989 0.0
H79 H 0.80455 0.92428 0.86504 0.0
H80 H 0.74522 0.91374 0.83629 0.0
H81 H 0.70438 0.93617 0.76186 0.0
H82 H 0.63871 0.90734 0.94401 0.0
H83 H 0.68018 0.88615 0.02132 0.0
H84 H 0.72206 0.86445 0.2151 0.0
H85 H 0.68531 0.88041 0.3145 0.0
H86 H 0.73309 0.96545 0.32394 0.0
H87 H 0.76929 0.94953 0.22189 0.0
N88 N 0.78796 0.90912 0.10039 0.0
N89 N 0.77093 0.90259 0.96832 0.0
N90 N 0.73617 0.89574 0.07301 0.0
C91 C 0.79417 0.90884 0.01992 0.0
C92 C 0.74193 0.89641 0.99358 0.0
C93 C 0.75877 0.90164 0.12689 0.0
C94 C 0.82437 0.9185 0.98389 0.0
C95 C 0.85206 0.9211 0.0273 0.0
C96 C 0.87988 0.92932 0.98763 0.0
C97 C 0.88027 0.93475 0.90422 0.0
C98 C 0.85247 0.93299 0.86239 0.0
C99 C 0.82518 0.92508 0.90119 0.0
C100 C 0.7162 0.89916 0.93649 0.0
C101 C 0.72199 0.91139 0.85984 0.0
C102 C 0.69839 0.92429 0.81666 0.0
C103 C 0.66838 0.92461 0.8484 0.0
C104 C 0.66185 0.90859 0.91952 0.0
C105 C 0.68557 0.89609 0.96341 0.0
C106 C 0.74837 0.90583 0.2102 0.0
C107 C 0.72561 0.88605 0.24141 0.0
C108 C 0.43249 0.67071 0.96751 0.0
C109 C 0.4394 0.67376 0.88589 0.0
C110 C 0.44603 0.70187 0.85289 0.0
C111 C 0.44812 0.72646 0.90253 0.0
H112 H 0.48723 0.80829 0.90993 0.0
H113 H 0.48987 0.85572 0.84053 0.0
H114 H 0.46573 0.89978 0.0584 0.0
H115 H 0.46257 0.85142 0.12956 0.0
H116 H 0.44025 0.75751 0.3022 0.0
H117 H 0.44673 0.71794 0.40081 0.0
H118 H 0.53494 0.69903 0.29633 0.0
H119 H 0.52855 0.73907 0.19907 0.0
H120 H 0.43079 0.6919 0.08079 0.0
H121 H 0.42763 0.64904 0.99377 0.0
H122 H 0.45197 0.70442 0.79005 0.0
H123 H 0.45536 0.74761 0.87655 0.0
N124 N 0.4573 0.77499 0.01299 0.0
N125 N 0.4773 0.78984 0.13765 0.0
N126 N 0.46129 0.7404 0.11634 0.0
C127 C 0.469 0.79657 0.06091 0.0
C128 C 0.47326 0.76146 0.16508 0.0
C129 C 0.45311 0.74697 0.04042 0.0
C130 C 0.4744 0.82619 0.02496 0.0
C131 C 0.48247 0.82799 0.94352 0.0
C132 C 0.48387 0.85504 0.90361 0.0
C133 C 0.47734 0.88099 0.94404 0.0
C134 C 0.47046 0.87976 0.0263 0.0
C135 C 0.46898 0.85232 0.06684 0.0
C136 C 0.48398 0.7514 0.24365 0.0
C137 C 0.4619 0.74624 0.30396 0.0
C138 C 0.46543 0.72322 0.35945 0.0
C139 C 0.49094 0.70482 0.35467 0.0
C140 C 0.51503 0.71274 0.30153 0.0
C141 C 0.51151 0.73589 0.24623 0.0
C142 C 0.44386 0.72301 0.98573 0.0
C143 C 0.43459 0.69517 0.01713 0.0
C144 C 0.19452 0.39065 0.91561 0.0
C145 C 0.1994 0.41881 0.88069 0.0
C146 C 0.22642 0.43515 0.9005 0.0
C147 C 0.24614 0.42509 0.96059 0.0
H148 H 0.33664 0.43045 0.1146 0.0
H149 H 0.384 0.44721 0.18178 0.0
H150 H 0.35875 0.39225 0.3872 0.0
H151 H 0.31367 0.37443 0.31835 0.0
H152 H 0.24353 0.41819 0.36693 0.0
H153 H 0.20325 0.44128 0.44301 0.0
H154 H 0.13439 0.40016 0.29116 0.0
H155 H 0.17492 0.37805 0.21274 0.0
H156 H 0.20796 0.3603 0.0075 0.0
H157 H 0.17404 0.37746 0.90191 0.0
H158 H 0.23114 0.45672 0.87356 0.0
H159 H 0.26498 0.43947 0.9801 0.0
N160 N 0.28078 0.39791 0.10492 0.0
N161 N 0.26662 0.39438 0.241 0.0
N162 N 0.22871 0.39156 0.14313 0.0
C163 C 0.28896 0.39681 0.18392 0.0
C164 C 0.2365 0.39193 0.22138 0.0
C165 C 0.2504 0.39432 0.08462 0.0
C166 C 0.32113 0.40155 0.21178 0.0
C167 C 0.34203 0.42124 0.17286 0.0
C168 C 0.36893 0.43122 0.21226 0.0
C169 C 0.37523 0.42185 0.29151 0.0
C170 C 0.35542 0.40013 0.32658 0.0
C171 C 0.32906 0.38999 0.28708 0.0
C172 C 0.21244 0.39699 0.28226 0.0
C173 C 0.21977 0.41328 0.35117 0.0
C174 C 0.19656 0.42657 0.39509 0.0
C175 C 0.16555 0.42343 0.37163 0.0
C176 C 0.15811 0.40392 0.3091 0.0
C177 C 0.18132 0.39101 0.26451 0.0
C178 C 0.23903 0.39861 0.00213 0.0
C179 C 0.21406 0.38075 0.976 0.0
C180 C 0.98465 0.21475 0.87834 0.0
C181 C 0.01032 0.2066 0.83279 0.0
C182 C 0.03844 0.22243 0.84267 0.0
C183 C 0.04163 0.24353 0.90293 0.0
H184 H 0.03541 0.34859 0.06967 0.0
H185 H 0.0305 0.39734 0.13224 0.0
H186 H 0.97643 0.35675 0.32333 0.0
H187 H 0.98196 0.3085 0.26323 0.0
H188 H 0.99902 0.24508 0.31755 0.0
H189 H 0.98389 0.20121 0.39549 0.0
H190 H 0.03575 0.14731 0.2345 0.0
H191 H 0.04983 0.19101 0.15486 0.0
H192 H 0.96843 0.23966 0.97704 0.0
H193 H 0.96273 0.20285 0.8737 0.0
H194 H 0.05849 0.2171 0.80759 0.0
H195 H 0.06421 0.25324 0.91504 0.0
N196 N 0.01668 0.28818 0.05584 0.0
N197 N 0.02056 0.27363 0.19122 0.0
N198 N 0.02665 0.23897 0.09086 0.0
C199 C 0.01641 0.2951 0.13504 0.0
C200 C 0.02602 0.24558 0.16947 0.0
C201 C 0.02217 0.25994 0.03402 0.0
C202 C 0.00931 0.32492 0.16221 0.0
C203 C 0.0219 0.35036 0.12395 0.0
C204 C 0.0191 0.37807 0.15942 0.0
C205 C 0.00284 0.3805 0.23176 0.0
C206 C 0.98863 0.35533 0.26681 0.0
C207 C 0.99203 0.32777 0.23276 0.0
C208 C 0.0249 0.22129 0.22894 0.0
C209 C 0.00782 0.22397 0.29998 0.0
C210 C 0.99908 0.19878 0.34458 0.0
C211 C 0.00763 0.17066 0.31924 0.0
C212 C 0.02769 0.16855 0.25348 0.0
C213 C 0.03607 0.19361 0.20843 0.0
C214 C 0.0166 0.24949 0.95277 0.0
C215 C 0.98778 0.23606 0.93749 0.0
C216 C 0.30786 0.09782 0.90578 0.0
C217 C 0.30401 0.07014 0.86937 0.0
C218 C 0.27644 0.0536 0.88425 0.0
C219 C 0.25492 0.06306 0.94066 0.0
H220 H 0.16984 0.04093 0.12024 0.0
H221 H 0.1245 0.02337 0.19473 0.0
H222 H 0.1205 0.10801 0.31177 0.0
H223 H 0.16716 0.12442 0.24064 0.0
H224 H 0.24422 0.06959 0.34646 0.0
H225 H 0.28279 0.04395 0.42431 0.0
H226 H 0.35489 0.0858 0.28036 0.0
H227 H 0.31647 0.11121 0.20187 0.0
H228 H 0.29156 0.12732 0.99451 0.0
H229 H 0.32869 0.11118 0.89618 0.0
H230 H 0.2724 0.03244 0.85595 0.0
H231 H 0.23544 0.04857 0.95634 0.0
N232 N 0.21533 0.08885 0.07665 0.0
N233 N 0.22447 0.09365 0.21502 0.0
N234 N 0.26555 0.09709 0.125 0.0
C235 C 0.2044 0.09031 0.15344 0.0
C236 C 0.25511 0.09684 0.20133 0.0
C237 C 0.24617 0.09333 0.06243 0.0
C238 C 0.17184 0.08401 0.17451 0.0
C239 C 0.1585 0.05605 0.15969 0.0
C240 C 0.13244 0.04601 0.20305 0.0
C241 C 0.11887 0.06394 0.26138 0.0
C242 C 0.13068 0.09307 0.2698 0.0
C243 C 0.1571 0.10279 0.22779 0.0
C244 C 0.27731 0.09168 0.26635 0.0
C245 C 0.26833 0.0743 0.33341 0.0
C246 C 0.29042 0.05945 0.37789 0.0
C247 C 0.32165 0.06203 0.35607 0.0
C248 C 0.33081 0.08269 0.29652 0.0
C249 C 0.30883 0.09744 0.25209 0.0
C250 C 0.26064 0.08918 0.9832 0.0
C251 C 0.28648 0.10715 0.96214 0.0
C252 C 0.57852 0.32088 0.22864 0.0
C253 C 0.57015 0.31674 0.3091 0.0
C254 C 0.56645 0.288 0.3407 0.0
C255 C 0.56872 0.26365 0.29056 0.0
H256 H 0.53346 0.18262 0.27887 0.0
H257 H 0.52403 0.13508 0.34409 0.0
H258 H 0.54445 0.09053 0.12436 0.0
H259 H 0.55438 0.13897 0.05713 0.0
H260 H 0.49919 0.22548 0.95551 0.0
H261 H 0.48045 0.26246 0.86014 0.0
H262 H 0.57386 0.29372 0.81649 0.0
H263 H 0.59241 0.25764 0.91343 0.0
H264 H 0.586 0.30071 0.11586 0.0
H265 H 0.58141 0.34298 0.20343 0.0
H266 H 0.55963 0.28447 0.40265 0.0
H267 H 0.5637 0.24179 0.31535 0.0
N268 N 0.56317 0.21556 0.17873 0.0
N269 N 0.54915 0.20049 0.04915 0.0
N270 N 0.56618 0.24941 0.07281 0.0
C271 C 0.55338 0.19393 0.12827 0.0
C272 C 0.55613 0.22837 0.02132 0.0
C273 C 0.56967 0.24332 0.15156 0.0
C274 C 0.54508 0.16455 0.163 0.0
C275 C 0.53608 0.16285 0.24387 0.0
C276 C 0.53064 0.13567 0.28142 0.0
C277 C 0.53401 0.10947 0.23931 0.0
C278 C 0.542 0.1107 0.15774 0.0
C279 C 0.54746 0.13825 0.1195 0.0
C280 C 0.54723 0.23866 0.94119 0.0
C281 C 0.51579 0.2391 0.922 0.0
C282 C 0.50503 0.26045 0.86835 0.0
C283 C 0.52577 0.28089 0.83182 0.0
C284 C 0.55751 0.27797 0.84352 0.0
C285 C 0.56815 0.25716 0.89836 0.0
C286 C 0.5747 0.26785 0.2082 0.0
C287 C 0.58102 0.29665 0.17869 0.0
Zn288 Zn 0.99299 0.04059 0.61161 0.0
Zn289 Zn 0.01129 0.95018 0.56216 0.0
C290 C 0.99349 0.0914 0.69487 0.0
O291 O 0.96476 0.08142 0.69462 0.0
C292 C 0.00658 0.90441 0.4568 0.0
O293 O 0.03536 0.91412 0.45198 0.0
O294 O 0.96269 0.06064 0.54186 0.0
O295 O 0.01981 0.0156 0.54134 0.0
O296 O 0.0386 0.9759 0.48907 0.0
C297 C 0.96654 0.06121 0.46673 0.0
O298 O 0.97806 0.03809 0.4321 0.0
O299 O 0.01424 0.07531 0.66582 0.0
C300 C 0.01686 0.90964 0.67462 0.0
O301 O 0.98741 0.91305 0.66202 0.0
O302 O 0.03639 0.92506 0.63421 0.0
O303 O 0.98657 0.97566 0.63809 0.0
O304 O 0.96958 0.01572 0.69286 0.0
O305 O 0.98772 0.91905 0.49799 0.0
C306 C 0.03801 0.00394 0.49188 0.0
C307 C 0.96984 0.98772 0.69056 0.0
Zn308 Zn 0.45306 0.00593 0.59804 0.0
Zn309 Zn 0.55056 0.98529 0.58305 0.0
C310 C 0.40918 0.01794 0.71413 0.0
O311 O 0.41066 0.98898 0.71601 0.0
C312 C 0.59738 0.97448 0.47213 0.0
O313 O 0.59588 0.00342 0.47086 0.0
O314 O 0.41876 0.98238 0.5471 0.0
O315 O 0.47459 0.02845 0.50763 0.0
O316 O 0.52082 0.01025 0.52153 0.0
C317 C 0.41564 0.98545 0.47203 0.0
O318 O 0.44051 0.98573 0.42694 0.0
O319 O 0.42851 0.03257 0.67047 0.0
C320 C 0.58211 0.00706 0.71603 0.0
O321 O 0.55676 0.01114 0.75711 0.0
O322 O 0.58134 0.01089 0.64068 0.0
O323 O 0.52875 0.96193 0.67046 0.0
O324 O 0.48226 0.98011 0.65904 0.0
O325 O 0.57758 0.95964 0.51373 0.0
C326 C 0.50212 0.026 0.48268 0.0
C327 C 0.50125 0.96406 0.69593 0.0
Zn328 Zn 0.50936 0.44694 0.61824 0.0
Zn329 Zn 0.48465 0.53739 0.58214 0.0
C330 C 0.51266 0.39728 0.71104 0.0
O331 O 0.54113 0.40766 0.70429 0.0
C332 C 0.48091 0.58551 0.48439 0.0
O333 O 0.45289 0.57391 0.49121 0.0
O334 O 0.53739 0.42717 0.54129 0.0
O335 O 0.4787 0.47011 0.55179 0.0
O336 O 0.45774 0.51127 0.512 0.0
C337 C 0.52205 0.40925 0.4981 0.0
O338 O 0.49202 0.40758 0.5058 0.0
O339 O 0.491 0.41211 0.68115 0.0
C340 C 0.47644 0.57571 0.70013 0.0
O341 O 0.50626 0.57467 0.68837 0.0
O342 O 0.45868 0.55879 0.6601 0.0
O343 O 0.51441 0.51353 0.64884 0.0
O344 O 0.53514 0.47277 0.6916 0.0
O345 O 0.503 0.5716 0.51576 0.0
C346 C 0.45909 0.48329 0.50864 0.0
C347 C 0.53383 0.50075 0.6933 0.0
Zn348 Zn 0.04953 0.48714 0.61229 0.0
Zn349 Zn 0.95496 0.50074 0.57976 0.0
C350 C 0.09736 0.47422 0.71927 0.0
O351 O 0.09384 0.50268 0.72928 0.0
C352 C 0.90106 0.51215 0.48276 0.0
O353 O 0.89945 0.48312 0.48455 0.0
O354 O 0.07406 0.5178 0.54991 0.0
O355 O 0.02777 0.4667 0.52271 0.0
O356 O 0.97919 0.47859 0.49798 0.0
C357 C 0.08326 0.51347 0.47864 0.0
O358 O 0.07527 0.53239 0.42281 0.0
O359 O 0.07955 0.4607 0.67071 0.0
C360 C 0.91959 0.47115 0.7148 0.0
O361 O 0.91463 0.44756 0.76011 0.0
O362 O 0.93515 0.46875 0.65043 0.0
O363 O 0.97662 0.52464 0.66352 0.0
O364 O 0.0243 0.51023 0.69128 0.0
O365 O 0.92289 0.52541 0.51997 0.0
C366 C 0.00378 0.46567 0.47931 0.0
C367 C 1.00022 0.52435 0.70847 0.0
C368 C 0.07476 0.02803 0.29519 0.0
C369 C 0.09492 0.05132 0.31835 0.0
H370 H 0.04138 -0.00531 0.33228 0.0
C371 C 0.09372 0.06066 0.39875 0.0
H372 H 0.07407 0.02065 0.23383 0.0
C373 C 0.07396 0.04637 0.45455 0.0
C374 C 0.05562 0.02191 0.43187 0.0
H375 H 0.10906 0.07811 0.42005 0.0
H376 H 0.07429 0.0534 0.51631 0.0
C377 C 0.05577 0.01324 0.35148 0.0
C378 C 0.55101 0.07241 0.33871 0.0
C379 C 0.52873 0.08152 0.28374 0.0
H380 H 0.55987 0.04776 0.446 0.0
C381 C 0.49879 0.0692 0.28839 0.0
H382 H 0.57405 0.08229 0.33709 0.0
C383 C 0.49056 0.04983 0.35117 0.0
C384 C 0.51222 0.04244 0.4099 0.0
H385 H 0.48117 0.07642 0.24742 0.0
H386 H 0.46685 0.0418 0.35595 0.0
C387 C 0.54285 0.05283 0.40119 0.0
C388 C 0.40788 0.46678 0.32966 0.0
C389 C 0.39991 0.4366 0.3412 0.0
H390 H 0.43285 0.50491 0.37258 0.0
C391 C 0.41309 0.42169 0.40684 0.0
H392 H 0.39805 0.47944 0.28126 0.0
C393 C 0.43187 0.43684 0.46162 0.0
C394 C 0.43943 0.46693 0.45035 0.0
H395 H 0.4083 0.39839 0.41774 0.0
H396 H 0.43948 0.42519 0.51446 0.0
C397 C 0.4275 0.48164 0.38315 0.0
C398 C 0.03189 0.41507 0.31824 0.0
C399 C 0.00437 0.40766 0.27887 0.0
H400 H 0.05299 0.43841 0.41453 0.0
C401 C 0.97724 0.42183 0.29953 0.0
H402 H 0.05291 0.40387 0.30418 0.0
C403 C 0.9773 0.44208 0.362 0.0
C404 C 0.00436 0.44777 0.40592 0.0
H405 H 0.95571 0.41597 0.27035 0.0
H406 H 0.9558 0.45192 0.37864 0.0
C407 C 0.03182 0.43472 0.38176 0.0
C408 C 0.92726 0.96774 0.88282 0.0
C409 C 0.90858 0.94367 0.85849 0.0
H410 H 0.96161 0.00055 0.84796 0.0
C411 C 0.91356 0.93168 0.78221 0.0
H412 H 0.9238 0.97762 0.94077 0.0
C413 C 0.93461 0.94512 0.72867 0.0
C414 C 0.95182 0.97032 0.75098 0.0
H415 H 0.89953 0.91306 0.76183 0.0
H416 H 0.93572 0.93704 0.66803 0.0
C417 C 0.94862 0.98102 0.82934 0.0
C418 C 0.50717 0.92481 0.8948 0.0
C419 C 0.47909 0.90879 0.89774 0.0
H420 H 0.53627 0.95487 0.82703 0.0
C421 C 0.45646 0.91432 0.84002 0.0
H422 H 0.52506 0.92043 0.93802 0.0
C423 C 0.46275 0.93409 0.77661 0.0
C424 C 0.49201 0.94789 0.7695 0.0
H425 H 0.43489 0.90163 0.84057 0.0
H426 H 0.44572 0.93672 0.73005 0.0
C427 C 0.51368 0.94409 0.83076 0.0
C428 C 0.58816 0.55948 0.7779 0.0
C429 C 0.59833 0.54572 0.84887 0.0
H430 H 0.56083 0.55561 0.67174 0.0
C431 C 0.58428 0.51857 0.87235 0.0
H432 H 0.59813 0.5806 0.75838 0.0
C433 C 0.56236 0.50456 0.82313 0.0
C434 C 0.5538 0.5175 0.74976 0.0
H435 H 0.59155 0.50723 0.9262 0.0
H436 H 0.55283 0.48309 0.84127 0.0
C437 C 0.56642 0.54539 0.72858 0.0
C438 C 0.02545 0.5614 0.90038 0.0
C439 C 0.99959 0.57799 0.91848 0.0
H440 H 0.04604 0.53142 0.81965 0.0
C441 C 0.97282 0.57439 0.87267 0.0
H442 H 0.04646 0.56425 0.93457 0.0
C443 C 0.9728 0.55636 0.80546 0.0
C444 C 0.99944 0.54131 0.78365 0.0
H445 H 0.95283 0.58742 0.88479 0.0
H446 H 0.95234 0.55535 0.76863 0.0
C447 C 0.02533 0.54306 0.83382 0.0
C448 C 0.98558 0.11909 0.30959 0.0
C449 C 0.99408 0.14349 0.35707 0.0
H450 H 0.96968 0.07385 0.30725 0.0
C451 C 0.98937 0.14164 0.44012 0.0
H452 H 0.98786 0.12017 0.24503 0.0
C453 C 0.97788 0.11545 0.47523 0.0
C454 C 0.97147 0.09041 0.42815 0.0
H455 H 0.99563 0.15999 0.47841 0.0
H456 H 0.97576 0.11444 0.53975 0.0
C457 C 0.97466 0.09272 0.34488 0.0
C458 C 0.34575 0.0336 0.46867 0.0
C459 C 0.34403 0.04069 0.38685 0.0
H460 H 0.36951 0.01006 0.56016 0.0
C461 C 0.36357 0.02669 0.33282 0.0
H462 H 0.33075 0.04388 0.51144 0.0
C463 C 0.38558 0.00726 0.36027 0.0
C464 C 0.38855 0.00131 0.44243 0.0
H465 H 0.36204 0.03101 0.26903 0.0
H466 H 0.40096 -0.00237 0.31723 0.0
C467 C 0.36784 0.01408 0.4963 0.0
C468 C 0.53403 0.35705 0.32962 0.0
C469 C 0.56008 0.3421 0.35536 0.0
H470 H 0.50161 0.39027 0.35554 0.0
C471 C 0.57497 0.35062 0.42614 0.0
H472 H 0.52205 0.35048 0.27558 0.0
C473 C 0.56373 0.37394 0.4709 0.0
C474 C 0.53706 0.38823 0.4461 0.0
H475 H 0.59496 0.33907 0.44701 0.0
H476 H 0.57492 0.37984 0.52655 0.0
C477 C 0.52241 0.37972 0.3751 0.0
C478 C 0.12086 0.45632 0.35041 0.0
C479 C 0.14196 0.44361 0.4034 0.0
H480 H 0.08576 0.48781 0.33285 0.0
C481 C 0.14211 0.45278 0.48367 0.0
H482 H 0.12055 0.45058 0.28768 0.0
C483 C 0.12203 0.47452 0.50954 0.0
C484 C 0.10128 0.48741 0.45596 0.0
H485 H 0.15823 0.44372 0.52605 0.0
H486 H 0.12395 0.48236 0.57018 0.0
C487 C 0.101 0.47798 0.37619 0.0
C488 C 0.01291 0.86118 0.85632 0.0
C489 C 0.03461 0.83991 0.83818 0.0
H490 H 0.99061 0.90023 0.81785 0.0
C491 C 0.05261 0.84309 0.76837 0.0
H492 H 0.99843 0.85888 0.90916 0.0
C493 C 0.04851 0.86721 0.71668 0.0
C494 C 0.02588 0.8877 0.73385 0.0
H495 H 0.06931 0.82673 0.75333 0.0
H496 H 0.06172 0.86896 0.66157 0.0
C497 C 0.00842 0.88474 0.80425 0.0
C498 C 0.64416 0.94999 0.73033 0.0
C499 C 0.64531 0.94461 0.81333 0.0
H500 H 0.62405 0.9744 0.63466 0.0
C501 C 0.62595 0.96051 0.86384 0.0
H502 H 0.65854 0.93806 0.6895 0.0
C503 C 0.60584 0.98108 0.83225 0.0
C504 C 0.60482 0.98656 0.74947 0.0
H505 H 0.62678 0.95766 0.92823 0.0
H506 H 0.59118 -0.00719 0.87286 0.0
C507 C 0.62434 0.97089 0.69884 0.0
C508 C 0.47473 0.63387 0.85719 0.0
C509 C 0.44686 0.64741 0.84068 0.0
H510 H 0.5057 0.60019 0.82561 0.0
C511 C 0.42746 0.6362 0.78072 0.0
H512 H 0.49 0.64247 0.90312 0.0
C513 C 0.43618 0.61159 0.737 0.0
C514 C 0.4646 0.59858 0.75225 0.0
H515 H 0.40592 0.64663 0.76731 0.0
H516 H 0.42141 0.60354 0.6894 0.0
C517 C 0.48362 0.60976 0.81306 0.0
C518 C 0.88901 0.53135 0.84436 0.0
C519 C 0.8677 0.54453 0.79246 0.0
H520 H 0.92269 0.49799 0.85969 0.0
C521 C 0.86719 0.53586 0.71188 0.0
H522 H 0.88984 0.53686 0.90719 0.0
C523 C 0.88549 0.513 0.68588 0.0
C524 C 0.90571 0.49913 0.73821 0.0
H525 H 0.85129 0.54541 0.6698 0.0
H526 H 0.88164 0.50431 0.62708 0.0
C527 C 0.90773 0.50882 0.81749 0.0
C528 C 0.03256 0.15888 0.78647 0.0
C529 C 0.00847 0.17912 0.78466 0.0
H530 H 0.04687 0.11505 0.75899 0.0
C531 C 0.98099 0.17103 0.74548 0.0
H532 H 0.05396 0.1642 0.81683 0.0
C533 C 0.97674 0.14273 0.71475 0.0
C534 C 1.00007 0.12198 0.72083 0.0
H535 H 0.96224 0.18621 0.74113 0.0
H536 H 0.95484 0.13691 0.68738 0.0
C537 C 0.02847 0.1306 0.75414 0.0
C538 C 0.33713 0.02717 0.83888 0.0
C539 C 0.33031 0.057 0.82559 0.0
H540 H 0.36733 -0.00811 0.81591 0.0
C541 C 0.3503 0.07434 0.77608 0.0
H542 H 0.32287 0.01327 0.87817 0.0
C543 C 0.37634 0.06205 0.74083 0.0
C544 C 0.383 0.03218 0.75453 0.0
H545 H 0.34576 0.09739 0.76435 0.0
H546 H 0.39103 0.07583 0.70229 0.0
C547 C 0.36301 0.01497 0.80391 0.0
C548 C 0.5219 0.31537 0.71471 0.0
C549 C 0.51487 0.30843 0.79483 0.0
H550 H 0.52553 0.3495 0.62465 0.0
C551 C 0.50252 0.33019 0.84398 0.0
H552 H 0.53184 0.29903 0.67628 0.0
C553 C 0.49919 0.35906 0.81481 0.0
C554 C 0.50785 0.3663 0.73596 0.0
H555 H 0.49768 0.32542 0.90658 0.0
H556 H 0.49191 0.37606 0.85523 0.0
C557 C 0.51828 0.34411 0.68539 0.0
C558 C 0.16626 0.46195 0.85247 0.0
C559 C 0.17421 0.43288 0.8347 0.0
H560 H 0.13581 0.49732 0.83152 0.0
C561 C 0.15625 0.41705 0.77866 0.0
H562 H 0.17893 0.47454 0.89691 0.0
C563 C 0.13108 0.43018 0.74111 0.0
C564 C 0.12326 0.45931 0.75939 0.0
H565 H 0.16169 0.39455 0.76386 0.0
H566 H 0.11786 0.41759 0.69772 0.0
C567 C 0.1412 0.47494 0.81549 0.0
C568 C 0.01404 0.83265 0.34754 0.0
C569 C 0.99053 0.81475 0.38234 0.0
H570 H 0.03677 0.87512 0.34195 0.0
C571 C 0.97018 0.82729 0.43705 0.0
H572 H 0.02948 0.82375 0.30342 0.0
C573 C 0.97429 0.85704 0.45918 0.0
C574 C 0.99858 0.87461 0.42606 0.0
H575 H 0.95167 0.81395 0.46391 0.0
H576 H 0.9592 0.86593 0.50407 0.0
C577 C 0.01799 0.86216 0.36901 0.0
C578 C 0.66001 0.92036 0.42152 0.0
C579 C 0.67815 0.9371 0.36617 0.0
H580 H 0.62003 0.91879 0.49816 0.0
C581 C 0.66849 0.96546 0.34432 0.0
H582 H 0.66666 0.89842 0.43975 0.0
C583 C 0.64193 0.97698 0.37743 0.0
C584 C 0.62396 0.96049 0.4331 0.0
H585 H 0.68111 0.97871 0.30004 0.0
H586 H 0.63545 -0.00102 0.35912 0.0
C587 C 0.63317 0.93193 0.45463 0.0
C588 C 0.51465 0.66183 0.42846 0.0
C589 C 0.48918 0.67467 0.39124 0.0
H590 H 0.53222 0.62333 0.4876 0.0
C591 C 0.46199 0.65746 0.3822 0.0
H592 H 0.53602 0.67449 0.4355 0.0
C593 C 0.45998 0.62842 0.41051 0.0
C594 C 0.48508 0.61558 0.44901 0.0
H595 H 0.44227 0.66626 0.3515 0.0
H596 H 0.43851 0.61604 0.40229 0.0
C597 C 0.51257 0.63253 0.45757 0.0
C598 C 0.8566 0.56594 0.35444 0.0
C599 C 0.82596 0.55496 0.36425 0.0
H600 H 0.90434 0.56135 0.38515 0.0
C601 C 0.82047 0.53169 0.41971 0.0
H602 H 0.86211 0.58351 0.31173 0.0
C603 C 0.8449 0.51847 0.45953 0.0
C604 C 0.87542 0.52862 0.44688 0.0
H605 H 0.79732 0.52309 0.4311 0.0
H606 H 0.83992 0.49994 0.49971 0.0
C607 C 0.88099 0.55313 0.39604 0.0
loop_
_geom_bond_atom_site_label_1
_geom_bond_atom_site_label_2
_geom_bond_distance
_geom_bond_site_symmetry_2
_ccdc_geom_bond_type
C0 C1 1.384 . S
C0 H13 0.947 . S
C0 C35 1.382 . S
C1 C0 1.384 . S
C1 C2 1.378 . S
C2 C1 1.378 . S
C2 C3 1.378 . S
C2 H14 0.952 . S
C3 C2 1.378 . S
C3 H15 0.950 . S
C3 C34 1.383 . S
H4 C23 0.947 . S
H5 C24 0.946 . S
H6 C26 0.953 . S
H7 C27 0.945 . S
H8 C29 0.952 . S
H9 C30 0.949 . S
H10 C32 0.950 . S
H11 C33 0.948 . S
H12 C35 0.951 . S
H13 C0 0.947 . S
H14 C2 0.952 . S
H15 C3 0.950 . S
N16 C19 1.382 1_554 S
N16 C21 1.363 . S
N17 C19 1.371 . S
N17 C20 1.372 . S
N18 C20 1.361 1_554 S
N18 C21 1.377 . S
C19 N16 1.382 1_556 S
C19 N17 1.371 . S
C19 C22 1.480 . S
C20 N17 1.372 . S
C20 N18 1.361 1_556 S
C20 C28 1.457 . S
C21 N16 1.363 . S
C21 N18 1.377 . S
C21 C34 1.479 . S
C22 C19 1.480 . S
C22 C23 1.383 1_556 S
C22 C27 1.385 . S
C23 H4 0.947 . S
C23 C22 1.383 1_554 S
C23 C24 1.388 . S
C24 H5 0.946 . S
C24 C23 1.388 . S
C24 C25 1.384 1_554 S
C25 C24 1.384 1_556 S
C25 C26 1.377 . S
C26 H6 0.953 . S
C26 C25 1.377 . S
C26 C27 1.369 . S
C27 H7 0.945 . S
C27 C22 1.385 . S
C27 C26 1.369 . S
C28 C20 1.457 . S
C28 C29 1.372 . S
C28 C33 1.364 . S
C29 H8 0.952 . S
C29 C28 1.372 . S
C29 C30 1.389 . S
C30 H9 0.949 . S
C30 C29 1.389 . S
C30 C31 1.387 . S
C31 C30 1.387 . S
C31 C32 1.372 . S
C32 H10 0.950 . S
C32 C31 1.372 . S
C32 C33 1.379 . S
C33 H11 0.948 . S
C33 C28 1.364 . S
C33 C32 1.379 . S
C34 C3 1.383 . S
C34 C21 1.479 . S
C34 C35 1.398 . S
C35 C0 1.382 . S
C35 H12 0.951 . S
C35 C34 1.398 . S
C36 C37 1.383 1_655 S
C36 H49 0.948 . S
C36 C71 1.382 1_655 S
C37 C36 1.383 1_455 S
C37 C38 1.378 . S
C38 C37 1.378 . S
C38 C39 1.378 . S
C38 H50 0.952 . S
C39 C38 1.378 . S
C39 H51 0.950 . S
C39 C70 1.383 . S
H40 C59 0.947 . S
H41 C60 0.951 . S
H42 C62 0.953 . S
H43 C63 0.945 . S
H44 C65 0.949 1_655 S
H45 C66 0.949 . S
H46 C68 0.950 . S
H47 C69 0.948 . S
H48 C71 0.951 1_655 S
H49 C36 0.948 . S
H50 C38 0.952 . S
H51 C39 0.950 . S
N52 C55 1.382 . S
N52 C57 1.363 . S
N53 C55 1.371 1_556 S
N53 C56 1.372 . S
N54 C56 1.361 1_554 S
N54 C57 1.377 . S
C55 N52 1.382 . S
C55 N53 1.371 1_554 S
C55 C58 1.480 . S
C56 N53 1.372 . S
C56 N54 1.361 1_556 S
C56 C64 1.457 . S
C57 N52 1.363 . S
C57 N54 1.377 . S
C57 C70 1.479 . S
C58 C55 1.480 . S
C58 C59 1.383 . S
C58 C63 1.385 1_554 S
C59 H40 0.947 . S
C59 C58 1.383 . S
C59 C60 1.386 1_455 S
C60 H41 0.951 . S
C60 C59 1.386 1_655 S
C60 C61 1.381 1_654 S
C61 C60 1.381 1_456 S
C61 C62 1.377 . S
C62 H42 0.953 . S
C62 C61 1.377 . S
C62 C63 1.369 . S
C63 H43 0.945 . S
C63 C58 1.385 1_556 S
C63 C62 1.369 . S
C64 C56 1.457 . S
C64 C65 1.377 . S
C64 C69 1.364 . S
C65 H44 0.949 1_455 S
C65 C64 1.377 . S
C65 C66 1.387 1_455 S
C66 H45 0.949 . S
C66 C65 1.387 1_655 S
C66 C67 1.387 1_655 S
C67 C66 1.387 1_455 S
C67 C68 1.372 . S
C68 H46 0.950 . S
C68 C67 1.372 . S
C68 C69 1.379 . S
C69 H47 0.948 . S
C69 C64 1.364 . S
C69 C68 1.379 . S
C70 C39 1.383 . S
C70 C57 1.479 . S
C70 C71 1.398 . S
C71 C36 1.382 1_455 S
C71 H48 0.951 1_455 S
C71 C70 1.398 . S
C72 C73 1.384 . S
C72 H85 0.947 . S
C72 C107 1.382 . S
C73 C72 1.384 . S
C73 C74 1.378 . S
C74 C73 1.378 . S
C74 C75 1.378 . S
C74 H86 0.952 . S
C75 C74 1.378 . S
C75 H87 0.950 . S
C75 C106 1.383 . S
H76 C95 0.947 . S
H77 C96 0.946 . S
H78 C98 0.953 . S
H79 C99 0.945 . S
H80 C101 0.952 . S
H81 C102 0.949 . S
H82 C104 0.950 . S
H83 C105 0.948 . S
H84 C107 0.951 . S
H85 C72 0.947 . S
H86 C74 0.952 . S
H87 C75 0.950 . S
N88 C91 1.382 . S
N88 C93 1.363 . S
N89 C91 1.371 1_556 S
N89 C92 1.372 . S
N90 C92 1.361 1_554 S
N90 C93 1.377 . S
C91 N88 1.382 . S
C91 N89 1.371 1_554 S
C91 C94 1.480 1_554 S
C92 N89 1.372 . S
C92 N90 1.361 1_556 S
C92 C100 1.457 . S
C93 N88 1.363 . S
C93 N90 1.377 . S
C93 C106 1.479 . S
C94 C91 1.480 1_556 S
C94 C95 1.383 1_556 S
C94 C99 1.385 . S
C95 H76 0.947 . S
C95 C94 1.383 1_554 S
C95 C96 1.388 . S
C96 H77 0.946 . S
C96 C95 1.388 . S
C96 C97 1.384 1_554 S
C97 C96 1.384 1_556 S
C97 C98 1.377 . S
C98 H78 0.953 . S
C98 C97 1.377 . S
C98 C99 1.369 . S
C99 H79 0.945 . S
C99 C94 1.385 . S
C99 C98 1.369 . S
C100 C92 1.457 . S
C100 C101 1.372 . S
C100 C105 1.364 . S
C101 H80 0.952 . S
C101 C100 1.372 . S
C101 C102 1.389 . S
C102 H81 0.949 . S
C102 C101 1.389 . S
C102 C103 1.387 . S
C103 C102 1.387 . S
C103 C104 1.372 . S
C104 H82 0.950 . S
C104 C103 1.372 . S
C104 C105 1.379 . S
C105 H83 0.948 . S
C105 C100 1.364 . S
C105 C104 1.379 . S
C106 C75 1.383 . S
C106 C93 1.479 . S
C106 C107 1.398 . S
C107 C72 1.382 . S
C107 H84 0.951 . S
C107 C106 1.398 . S
C108 C109 1.384 . S
C108 H121 0.947 . S
C108 C143 1.382 . S
C109 C108 1.384 . S
C109 C110 1.378 . S
C110 C109 1.378 . S
C110 C111 1.378 . S
C110 H122 0.952 . S
C111 C110 1.378 . S
C111 H123 0.950 . S
C111 C142 1.383 . S
H112 C131 0.947 . S
H113 C132 0.946 . S
H114 C134 0.953 . S
H115 C135 0.945 . S
H116 C137 0.952 . S
H117 C138 0.949 . S
H118 C140 0.950 . S
H119 C141 0.948 . S
H120 C143 0.951 . S
H121 C108 0.947 . S
H122 C110 0.952 . S
H123 C111 0.950 . S
N124 C127 1.382 1_556 S
N124 C129 1.363 . S
N125 C127 1.371 . S
N125 C128 1.372 . S
N126 C128 1.361 . S
N126 C129 1.377 1_554 S
C127 N124 1.382 1_554 S
C127 N125 1.371 . S
C127 C130 1.480 . S
C128 N125 1.372 . S
C128 N126 1.361 . S
C128 C136 1.457 . S
C129 N124 1.363 . S
C129 N126 1.377 1_556 S
C129 C142 1.479 . S
C130 C127 1.480 . S
C130 C131 1.383 1_554 S
C130 C135 1.385 . S
C131 H112 0.947 . S
C131 C130 1.383 1_556 S
C131 C132 1.388 . S
C132 H113 0.946 . S
C132 C131 1.388 . S
C132 C133 1.384 . S
C133 C132 1.384 . S
C133 C134 1.377 1_556 S
C134 H114 0.953 . S
C134 C133 1.377 1_554 S
C134 C135 1.369 . S
C135 H115 0.945 . S
C135 C130 1.385 . S
C135 C134 1.369 . S
C136 C128 1.457 . S
C136 C137 1.372 . S
C136 C141 1.364 . S
C137 H116 0.952 . S
C137 C136 1.372 . S
C137 C138 1.389 . S
C138 H117 0.949 . S
C138 C137 1.389 . S
C138 C139 1.387 . S
C139 C138 1.387 . S
C139 C140 1.372 . S
C140 H118 0.950 . S
C140 C139 1.372 . S
C140 C141 1.379 . S
C141 H119 0.948 . S
C141 C136 1.364 . S
C141 C140 1.379 . S
C142 C111 1.383 . S
C142 C129 1.479 . S
C142 C143 1.398 . S
C143 C108 1.382 . S
C143 H120 0.951 . S
C143 C142 1.398 . S
C144 C145 1.384 . S
C144 H157 0.947 . S
C144 C179 1.382 . S
C145 C144 1.384 . S
C145 C146 1.378 . S
C146 C145 1.378 . S
C146 C147 1.378 . S
C146 H158 0.952 . S
C147 C146 1.378 . S
C147 H159 0.950 . S
C147 C178 1.383 1_556 S
H148 C167 0.947 . S
H149 C168 0.946 . S
H150 C170 0.953 . S
H151 C171 0.945 . S
H152 C173 0.952 . S
H153 C174 0.949 . S
H154 C176 0.950 . S
H155 C177 0.948 . S
H156 C179 0.951 1_554 S
H157 C144 0.947 . S
H158 C146 0.952 . S
H159 C147 0.950 . S
N160 C163 1.382 . S
N160 C165 1.363 . S
N161 C163 1.371 . S
N161 C164 1.372 . S
N162 C164 1.361 . S
N162 C165 1.377 . S
C163 N160 1.382 . S
C163 N161 1.371 . S
C163 C166 1.480 . S
C164 N161 1.372 . S
C164 N162 1.361 . S
C164 C172 1.457 . S
C165 N160 1.363 . S
C165 N162 1.377 . S
C165 C178 1.479 . S
C166 C163 1.480 . S
C166 C167 1.383 . S
C166 C171 1.385 . S
C167 H148 0.947 . S
C167 C166 1.383 . S
C167 C168 1.388 . S
C168 H149 0.946 . S
C168 C167 1.388 . S
C168 C169 1.384 . S
C169 C168 1.384 . S
C169 C170 1.377 . S
C170 H150 0.953 . S
C170 C169 1.377 . S
C170 C171 1.369 . S
C171 H151 0.945 . S
C171 C166 1.385 . S
C171 C170 1.369 . S
C172 C164 1.457 . S
C172 C173 1.372 . S
C172 C177 1.364 . S
C173 H152 0.952 . S
C173 C172 1.372 . S
C173 C174 1.389 . S
C174 H153 0.949 . S
C174 C173 1.389 . S
C174 C175 1.387 . S
C175 C174 1.387 . S
C175 C176 1.372 . S
C176 H154 0.950 . S
C176 C175 1.372 . S
C176 C177 1.379 . S
C177 H155 0.948 . S
C177 C172 1.364 . S
C177 C176 1.379 . S
C178 C147 1.383 1_554 S
C178 C165 1.479 . S
C178 C179 1.398 1_554 S
C179 C144 1.382 . S
C179 H156 0.951 1_556 S
C179 C178 1.398 1_556 S
C180 C181 1.384 1_655 S
C180 H193 0.947 . S
C180 C215 1.382 1_655 S
C181 C180 1.384 1_455 S
C181 C182 1.378 . S
C182 C181 1.378 . S
C182 C183 1.378 . S
C182 H194 0.952 . S
C183 C182 1.378 . S
C183 H195 0.950 . S
C183 C214 1.383 . S
H184 C203 0.947 . S
H185 C204 0.950 . S
H186 C206 0.953 . S
H187 C207 0.945 . S
H188 C209 0.947 1_655 S
H189 C210 0.955 . S
H190 C212 0.950 . S
H191 C213 0.948 . S
H192 C215 0.950 1_654 S
H193 C180 0.947 . S
H194 C182 0.952 . S
H195 C183 0.950 . S
N196 C199 1.382 . S
N196 C201 1.363 . S
N197 C199 1.371 . S
N197 C200 1.372 . S
N198 C200 1.361 . S
N198 C201 1.377 . S
C199 N196 1.382 . S
C199 N197 1.371 . S
C199 C202 1.480 . S
C200 N197 1.372 . S
C200 N198 1.361 . S
C200 C208 1.457 . S
C201 N196 1.363 . S
C201 N198 1.377 . S
C201 C214 1.479 1_554 S
C202 C199 1.480 . S
C202 C203 1.383 . S
C202 C207 1.385 . S
C203 H184 0.947 . S
C203 C202 1.383 . S
C203 C204 1.386 1_455 S
C204 H185 0.950 . S
C204 C203 1.386 1_655 S
C204 C205 1.382 1_655 S
C205 C204 1.382 1_455 S
C205 C206 1.377 . S
C206 H186 0.953 . S
C206 C205 1.377 . S
C206 C207 1.369 . S
C207 H187 0.945 . S
C207 C202 1.385 . S
C207 C206 1.369 . S
C208 C200 1.457 . S
C208 C209 1.379 . S
C208 C213 1.364 . S
C209 H188 0.947 1_455 S
C209 C208 1.379 . S
C209 C210 1.388 1_455 S
C210 H189 0.955 . S
C210 C209 1.388 1_655 S
C210 C211 1.382 1_655 S
C211 C210 1.382 1_455 S
C211 C212 1.372 . S
C212 H190 0.950 . S
C212 C211 1.372 . S
C212 C213 1.379 . S
C213 H191 0.948 . S
C213 C208 1.364 . S
C213 C212 1.379 . S
C214 C183 1.383 . S
C214 C201 1.479 1_556 S
C214 C215 1.399 . S
C215 C180 1.382 1_455 S
C215 H192 0.950 1_456 S
C215 C214 1.399 . S
C216 C217 1.384 . S
C216 H229 0.947 . S
C216 C251 1.382 . S
C217 C216 1.384 . S
C217 C218 1.378 . S
C218 C217 1.378 . S
C218 C219 1.378 . S
C218 H230 0.952 . S
C219 C218 1.378 . S
C219 H231 0.950 . S
C219 C250 1.383 . S
H220 C239 0.947 . S
H221 C240 0.946 . S
H222 C242 0.953 . S
H223 C243 0.945 . S
H224 C245 0.952 . S
H225 C246 0.949 . S
H226 C248 0.950 . S
H227 C249 0.948 . S
H228 C251 0.951 1_554 S
H229 C216 0.947 . S
H230 C218 0.952 . S
H231 C219 0.950 . S
N232 C235 1.382 . S
N232 C237 1.363 . S
N233 C235 1.371 . S
N233 C236 1.372 . S
N234 C236 1.361 . S
N234 C237 1.377 . S
C235 N232 1.382 . S
C235 N233 1.371 . S
C235 C238 1.480 . S
C236 N233 1.372 . S
C236 N234 1.361 . S
C236 C244 1.457 . S
C237 N232 1.363 . S
C237 N234 1.377 . S
C237 C250 1.479 1_554 S
C238 C235 1.480 . S
C238 C239 1.383 . S
C238 C243 1.385 . S
C239 H220 0.947 . S
C239 C238 1.383 . S
C239 C240 1.388 . S
C240 H221 0.946 . S
C240 C239 1.388 . S
C240 C241 1.384 . S
C241 C240 1.384 . S
C241 C242 1.377 . S
C242 H222 0.953 . S
C242 C241 1.377 . S
C242 C243 1.369 . S
C243 H223 0.945 . S
C243 C238 1.385 . S
C243 C242 1.369 . S
C244 C236 1.457 . S
C244 C245 1.372 . S
C244 C249 1.364 . S
C245 H224 0.952 . S
C245 C244 1.372 . S
C245 C246 1.389 . S
C246 H225 0.949 . S
C246 C245 1.389 . S
C246 C247 1.387 . S
C247 C246 1.387 . S
C247 C248 1.372 . S
C248 H226 0.950 . S
C248 C247 1.372 . S
C248 C249 1.379 . S
C249 H227 0.948 . S
C249 C244 1.364 . S
C249 C248 1.379 . S
C250 C219 1.383 . S
C250 C237 1.479 1_556 S
C250 C251 1.398 . S
C251 C216 1.382 . S
C251 H228 0.951 1_556 S
C251 C250 1.398 . S
C252 C253 1.384 . S
C252 H265 0.947 . S
C252 C287 1.382 . S
C253 C252 1.384 . S
C253 C254 1.378 . S
C254 C253 1.378 . S
C254 C255 1.378 . S
C254 H266 0.952 . S
C255 C254 1.378 . S
C255 H267 0.950 . S
C255 C286 1.383 . S
H256 C275 0.947 . S
H257 C276 0.946 . S
H258 C278 0.953 . S
H259 C279 0.945 . S
H260 C281 0.952 . S
H261 C282 0.949 . S
H262 C284 0.950 . S
H263 C285 0.948 1_554 S
H264 C287 0.951 . S
H265 C252 0.947 . S
H266 C254 0.952 . S
H267 C255 0.950 . S
N268 C271 1.382 . S
N268 C273 1.363 . S
N269 C271 1.371 . S
N269 C272 1.372 . S
N270 C272 1.361 . S
N270 C273 1.377 . S
C271 N268 1.382 . S
C271 N269 1.371 . S
C271 C274 1.480 . S
C272 N269 1.372 . S
C272 N270 1.361 . S
C272 C280 1.457 1_554 S
C273 N268 1.363 . S
C273 N270 1.377 . S
C273 C286 1.479 . S
C274 C271 1.480 . S
C274 C275 1.383 . S
C274 C279 1.385 . S
C275 H256 0.947 . S
C275 C274 1.383 . S
C275 C276 1.388 . S
C276 H257 0.946 . S
C276 C275 1.388 . S
C276 C277 1.384 . S
C277 C276 1.384 . S
C277 C278 1.377 . S
C278 H258 0.953 . S
C278 C277 1.377 . S
C278 C279 1.369 . S
C279 H259 0.945 . S
C279 C274 1.385 . S
C279 C278 1.369 . S
C280 C272 1.457 1_556 S
C280 C281 1.372 . S
C280 C285 1.364 . S
C281 H260 0.952 . S
C281 C280 1.372 . S
C281 C282 1.389 . S
C282 H261 0.949 . S
C282 C281 1.389 . S
C282 C283 1.387 . S
C283 C282 1.387 . S
C283 C284 1.372 . S
C284 H262 0.950 . S
C284 C283 1.372 . S
C284 C285 1.379 . S
C285 H263 0.948 1_556 S
C285 C280 1.364 . S
C285 C284 1.379 . S
C286 C255 1.383 . S
C286 C273 1.479 . S
C286 C287 1.398 . S
C287 C252 1.382 . S
C287 H264 0.951 . S
C287 C286 1.398 . S
Zn288 O294 1.969 . S
Zn288 O295 1.965 1_655 S
Zn288 O299 2.024 1_655 S
Zn288 O304 1.969 . S
Zn289 O296 1.969 . S
Zn289 O302 1.969 . S
Zn289 O303 1.965 1_455 S
Zn289 O305 2.024 1_455 S
C290 O291 1.229 1_455 S
C290 O299 1.058 . S
O291 C290 1.229 1_655 S
C292 O293 1.229 1_655 S
C292 O305 1.058 . S
O293 C292 1.229 1_455 S
O294 Zn288 1.969 . S
O294 C297 1.267 . S
O295 Zn288 1.965 1_455 S
O295 C306 1.260 . S
O296 Zn289 1.969 . S
O296 C306 1.258 1_565 S
C297 O294 1.267 . S
C297 O298 1.228 1_655 S
O298 C297 1.228 1_455 S
O299 Zn288 2.024 1_455 S
O299 C290 1.058 . S
C300 O301 1.228 1_455 S
C300 O302 1.267 . S
O301 C300 1.228 1_655 S
O302 Zn289 1.969 . S
O302 C300 1.267 . S
O303 Zn289 1.965 1_655 S
O303 C307 1.260 . S
O304 Zn288 1.969 . S
O304 C307 1.258 1_545 S
O305 Zn289 2.024 1_655 S
O305 C292 1.058 . S
C306 O295 1.260 . S
C306 O296 1.258 1_545 S
C307 O303 1.260 . S
C307 O304 1.258 1_565 S
Zn308 O314 1.969 1_545 S
Zn308 O315 1.965 . S
Zn308 O319 2.024 . S
Zn308 O324 1.969 1_545 S
Zn309 O316 1.969 1_565 S
Zn309 O322 1.969 1_565 S
Zn309 O323 1.965 . S
Zn309 O325 2.024 . S
C310 O311 1.229 . S
C310 O319 1.058 . S
O311 C310 1.229 . S
C312 O313 1.229 . S
C312 O325 1.058 . S
O313 C312 1.229 . S
O314 Zn308 1.969 1_565 S
O314 C317 1.267 1_565 S
O315 Zn308 1.965 . S
O315 C326 1.260 . S
O316 Zn309 1.969 1_545 S
O316 C326 1.258 . S
C317 O314 1.267 1_545 S
C317 O318 1.228 . S
O318 C317 1.228 . S
O319 Zn308 2.024 . S
O319 C310 1.058 . S
C320 O321 1.228 . S
C320 O322 1.267 1_565 S
O321 C320 1.228 . S
O322 Zn309 1.969 1_545 S
O322 C320 1.267 1_545 S
O323 Zn309 1.965 . S
O323 C327 1.260 . S
O324 Zn308 1.969 1_565 S
O324 C327 1.258 . S
O325 Zn309 2.024 . S
O325 C312 1.058 . S
C326 O315 1.260 . S
C326 O316 1.258 . S
C327 O323 1.260 . S
C327 O324 1.258 . S
Zn328 O334 1.969 . S
Zn328 O335 1.965 . S
Zn328 O339 2.024 . S
Zn328 O344 1.969 . S
Zn329 O336 1.969 . S
Zn329 O342 1.969 . S
Zn329 O343 1.965 . S
Zn329 O345 2.024 . S
C330 O331 1.229 . S
C330 O339 1.058 . S
O331 C330 1.229 . S
C332 O333 1.229 . S
C332 O345 1.058 . S
O333 C332 1.229 . S
O334 Zn328 1.969 . S
O334 C337 1.267 . S
O335 Zn328 1.965 . S
O335 C346 1.260 . S
O336 Zn329 1.969 . S
O336 C346 1.258 . S
C337 O334 1.267 . S
C337 O338 1.228 . S
O338 C337 1.228 . S
O339 Zn328 2.024 . S
O339 C330 1.058 . S
C340 O341 1.228 . S
C340 O342 1.267 . S
O341 C340 1.228 . S
O342 Zn329 1.969 . S
O342 C340 1.267 . S
O343 Zn329 1.965 . S
O343 C347 1.260 . S
O344 Zn328 1.969 . S
O344 C347 1.258 . S
O345 Zn329 2.024 . S
O345 C332 1.058 . S
C346 O335 1.260 . S
C346 O336 1.258 . S
C347 O343 1.260 . S
C347 O344 1.258 . S
Zn348 O354 1.969 . S
Zn348 O355 1.965 . S
Zn348 O359 2.024 . S
Zn348 O364 1.969 . S
Zn349 O356 1.969 . S
Zn349 O362 1.969 . S
Zn349 O363 1.965 . S
Zn349 O365 2.024 . S
C350 O351 1.229 . S
C350 O359 1.058 . S
O351 C350 1.229 . S
C352 O353 1.229 . S
C352 O365 1.058 . S
O353 C352 1.229 . S
O354 Zn348 1.969 . S
O354 C357 1.267 . S
O355 Zn348 1.965 . S
O355 C366 1.260 1_455 S
O356 Zn349 1.969 . S
O356 C366 1.258 . S
C357 O354 1.267 . S
C357 O358 1.228 . S
O358 C357 1.228 . S
O359 Zn348 2.024 . S
O359 C350 1.058 . S
C360 O361 1.228 . S
C360 O362 1.267 . S
O361 C360 1.228 . S
O362 Zn349 1.969 . S
O362 C360 1.267 . S
O363 Zn349 1.965 . S
O363 C367 1.260 1_655 S
O364 Zn348 1.969 . S
O364 C367 1.258 . S
O365 Zn349 2.024 . S
O365 C352 1.058 . S
C366 O355 1.260 1_655 S
C366 O356 1.258 . S
C367 O363 1.260 1_455 S
C367 O364 1.258 . S
C368 C369 1.387 . S
C368 H372 0.950 . S
C368 C377 1.390 . S
C369 C368 1.387 . S
C369 C371 1.387 . S
H370 C377 0.950 . S
C371 C369 1.387 . S
C371 C373 1.390 . S
C371 H375 0.950 . S
H372 C368 0.950 . S
C373 C371 1.390 . S
C373 C374 1.387 . S
C373 H376 0.950 . S
C374 C373 1.387 . S
C374 C377 1.387 . S
H375 C371 0.950 . S
H376 C373 0.950 . S
C377 C368 1.390 . S
C377 H370 0.950 . S
C377 C374 1.387 . S
C378 C379 1.387 . S
C378 H382 0.950 . S
C378 C387 1.390 . S
C379 C378 1.387 . S
C379 C381 1.387 . S
H380 C387 0.950 . S
C381 C379 1.387 . S
C381 C383 1.390 . S
C381 H385 0.950 . S
H382 C378 0.950 . S
C383 C381 1.390 . S
C383 C384 1.387 . S
C383 H386 0.950 . S
C384 C383 1.387 . S
C384 C387 1.387 . S
H385 C381 0.950 . S
H386 C383 0.950 . S
C387 C378 1.390 . S
C387 H380 0.950 . S
C387 C384 1.387 . S
C388 C389 1.387 . S
C388 H392 0.950 . S
C388 C397 1.390 . S
C389 C388 1.387 . S
C389 C391 1.387 . S
H390 C397 0.950 . S
C391 C389 1.387 . S
C391 C393 1.390 . S
C391 H395 0.950 . S
H392 C388 0.950 . S
C393 C391 1.390 . S
C393 C394 1.387 . S
C393 H396 0.950 . S
C394 C393 1.387 . S
C394 C397 1.387 . S
H395 C391 0.950 . S
H396 C393 0.950 . S
C397 C388 1.390 . S
C397 H390 0.950 . S
C397 C394 1.387 . S
C398 C399 1.387 1_455 S
C398 H402 0.950 . S
C398 C407 1.390 . S
C399 C398 1.387 1_655 S
C399 C401 1.387 . S
H400 C407 0.950 . S
C401 C399 1.387 . S
C401 C403 1.390 . S
C401 H405 0.950 . S
H402 C398 0.950 . S
C403 C401 1.390 . S
C403 C404 1.387 . S
C403 H406 0.950 . S
C404 C403 1.387 . S
C404 C407 1.387 1_655 S
H405 C401 0.950 . S
H406 C403 0.950 . S
C407 C398 1.390 . S
C407 H400 0.950 . S
C407 C404 1.387 1_455 S
C408 C409 1.387 . S
C408 H412 0.950 . S
C408 C417 1.390 . S
C409 C408 1.387 . S
C409 C411 1.387 . S
H410 C417 0.950 1_545 S
C411 C409 1.387 . S
C411 C413 1.390 . S
C411 H415 0.950 . S
H412 C408 0.950 . S
C413 C411 1.390 . S
C413 C414 1.387 . S
C413 H416 0.950 . S
C414 C413 1.387 . S
C414 C417 1.387 . S
H415 C411 0.950 . S
H416 C413 0.950 . S
C417 C408 1.390 . S
C417 H410 0.950 1_565 S
C417 C414 1.387 . S
C418 C419 1.387 . S
C418 H422 0.950 . S
C418 C427 1.390 . S
C419 C418 1.387 . S
C419 C421 1.387 . S
H420 C427 0.950 . S
C421 C419 1.387 . S
C421 C423 1.390 . S
C421 H425 0.950 . S
H422 C418 0.950 . S
C423 C421 1.390 . S
C423 C424 1.387 . S
C423 H426 0.950 . S
C424 C423 1.387 . S
C424 C427 1.387 . S
H425 C421 0.950 . S
H426 C423 0.950 . S
C427 C418 1.390 . S
C427 H420 0.950 . S
C427 C424 1.387 . S
C428 C429 1.387 . S
C428 H432 0.950 . S
C428 C437 1.390 . S
C429 C428 1.387 . S
C429 C431 1.387 . S
H430 C437 0.950 . S
C431 C429 1.387 . S
C431 C433 1.390 . S
C431 H435 0.950 . S
H432 C428 0.950 . S
C433 C431 1.390 . S
C433 C434 1.387 . S
C433 H436 0.950 . S
C434 C433 1.387 . S
C434 C437 1.387 . S
H435 C431 0.950 . S
H436 C433 0.950 . S
C437 C428 1.390 . S
C437 H430 0.950 . S
C437 C434 1.387 . S
C438 C439 1.387 . S
C438 H442 0.950 . S
C438 C447 1.390 . S
C439 C438 1.387 . S
C439 C441 1.387 1_455 S
H440 C447 0.950 . S
C441 C439 1.387 1_655 S
C441 C443 1.390 . S
C441 H445 0.950 . S
H442 C438 0.950 . S
C443 C441 1.390 . S
C443 C444 1.387 1_655 S
C443 H446 0.950 . S
C444 C443 1.387 1_455 S
C444 C447 1.387 . S
H445 C441 0.950 . S
H446 C443 0.950 . S
C447 C438 1.390 . S
C447 H440 0.950 . S
C447 C444 1.387 . S
C448 C449 1.387 . S
C448 H452 0.950 . S
C448 C457 1.390 . S
C449 C448 1.387 . S
C449 C451 1.389 . S
H450 C457 0.950 . S
C451 C449 1.389 . S
C451 C453 1.397 . S
C451 H455 0.943 1_655 S
H452 C448 0.950 . S
C453 C451 1.397 . S
C453 C454 1.387 . S
C453 H456 0.950 . S
C454 C453 1.387 . S
C454 C457 1.387 . S
H455 C451 0.943 1_455 S
H456 C453 0.950 . S
C457 C448 1.390 . S
C457 H450 0.950 . S
C457 C454 1.387 . S
C458 C459 1.387 . S
C458 H462 0.950 . S
C458 C467 1.390 . S
C459 C458 1.387 . S
C459 C461 1.387 . S
H460 C467 0.950 . S
C461 C459 1.387 . S
C461 C463 1.390 . S
C461 H465 0.950 . S
H462 C458 0.950 . S
C463 C461 1.390 . S
C463 C464 1.387 . S
C463 H466 0.950 . S
C464 C463 1.387 . S
C464 C467 1.387 . S
H465 C461 0.950 . S
H466 C463 0.950 . S
C467 C458 1.390 . S
C467 H460 0.950 . S
C467 C464 1.387 . S
C468 C469 1.387 . S
C468 H472 0.950 . S
C468 C477 1.390 . S
C469 C468 1.387 . S
C469 C471 1.387 . S
H470 C477 0.950 . S
C471 C469 1.387 . S
C471 C473 1.390 . S
C471 H475 0.950 . S
H472 C468 0.950 . S
C473 C471 1.390 . S
C473 C474 1.387 . S
C473 H476 0.950 . S
C474 C473 1.387 . S
C474 C477 1.387 . S
H475 C471 0.950 . S
H476 C473 0.950 . S
C477 C468 1.390 . S
C477 H470 0.950 . S
C477 C474 1.387 . S
C478 C479 1.387 . S
C478 H482 0.950 . S
C478 C487 1.390 . S
C479 C478 1.387 . S
C479 C481 1.387 . S
H480 C487 0.950 . S
C481 C479 1.387 . S
C481 C483 1.390 . S
C481 H485 0.950 . S
H482 C478 0.950 . S
C483 C481 1.390 . S
C483 C484 1.387 . S
C483 H486 0.950 . S
C484 C483 1.387 . S
C484 C487 1.387 . S
H485 C481 0.950 . S
H486 C483 0.950 . S
C487 C478 1.390 . S
C487 H480 0.950 . S
C487 C484 1.387 . S
C488 C489 1.387 1_655 S
C488 H492 0.950 . S
C488 C497 1.390 1_655 S
C489 C488 1.387 1_455 S
C489 C491 1.387 . S
H490 C497 0.950 1_655 S
C491 C489 1.387 . S
C491 C493 1.390 . S
C491 H495 0.950 . S
H492 C488 0.950 . S
C493 C491 1.390 . S
C493 C494 1.387 . S
C493 H496 0.950 . S
C494 C493 1.387 . S
C494 C497 1.387 . S
H495 C491 0.950 . S
H496 C493 0.950 . S
C497 C488 1.390 1_455 S
C497 H490 0.950 1_455 S
C497 C494 1.387 . S
C498 C499 1.387 . S
C498 H502 0.950 . S
C498 C507 1.390 . S
C499 C498 1.387 . S
C499 C501 1.387 . S
H500 C507 0.950 . S
C501 C499 1.387 . S
C501 C503 1.390 . S
C501 H505 0.950 . S
H502 C498 0.950 . S
C503 C501 1.390 . S
C503 C504 1.387 . S
C503 H506 0.950 . S
C504 C503 1.387 . S
C504 C507 1.387 . S
H505 C501 0.950 . S
H506 C503 0.950 . S
C507 C498 1.390 . S
C507 H500 0.950 . S
C507 C504 1.387 . S
C508 C509 1.387 . S
C508 H512 0.950 . S
C508 C517 1.390 . S
C509 C508 1.387 . S
C509 C511 1.387 . S
H510 C517 0.950 . S
C511 C509 1.387 . S
C511 C513 1.390 . S
C511 H515 0.950 . S
H512 C508 0.950 . S
C513 C511 1.390 . S
C513 C514 1.387 . S
C513 H516 0.950 . S
C514 C513 1.387 . S
C514 C517 1.387 . S
H515 C511 0.950 . S
H516 C513 0.950 . S
C517 C508 1.390 . S
C517 H510 0.950 . S
C517 C514 1.387 . S
C518 C519 1.387 . S
C518 H522 0.950 . S
C518 C527 1.390 . S
C519 C518 1.387 . S
C519 C521 1.387 . S
H520 C527 0.950 . S
C521 C519 1.387 . S
C521 C523 1.390 . S
C521 H525 0.950 . S
H522 C518 0.950 . S
C523 C521 1.390 . S
C523 C524 1.387 . S
C523 H526 0.950 . S
C524 C523 1.387 . S
C524 C527 1.387 . S
H525 C521 0.950 . S
H526 C523 0.950 . S
C527 C518 1.390 . S
C527 H520 0.950 . S
C527 C524 1.387 . S
C528 C529 1.387 . S
C528 H532 0.950 . S
C528 C537 1.390 . S
C529 C528 1.387 . S
C529 C531 1.387 1_455 S
H530 C537 0.950 . S
C531 C529 1.387 1_655 S
C531 C533 1.390 . S
C531 H535 0.950 . S
H532 C528 0.950 . S
C533 C531 1.390 . S
C533 C534 1.387 1_655 S
C533 H536 0.950 . S
C534 C533 1.387 1_455 S
C534 C537 1.387 . S
H535 C531 0.950 . S
H536 C533 0.950 . S
C537 C528 1.390 . S
C537 H530 0.950 . S
C537 C534 1.387 . S
C538 C539 1.387 . S
C538 H542 0.950 . S
C538 C547 1.390 . S
C539 C538 1.387 . S
C539 C541 1.387 . S
H540 C547 0.950 . S
C541 C539 1.387 . S
C541 C543 1.390 . S
C541 H545 0.950 . S
H542 C538 0.950 . S
C543 C541 1.390 . S
C543 C544 1.387 . S
C543 H546 0.950 . S
C544 C543 1.387 . S
C544 C547 1.387 . S
H545 C541 0.950 . S
H546 C543 0.950 . S
C547 C538 1.390 . S
C547 H540 0.950 . S
C547 C544 1.387 . S
C548 C549 1.387 . S
C548 H552 0.950 . S
C548 C557 1.390 . S
C549 C548 1.387 . S
C549 C551 1.387 . S
H550 C557 0.950 . S
C551 C549 1.387 . S
C551 C553 1.390 . S
C551 H555 0.950 . S
H552 C548 0.950 . S
C553 C551 1.390 . S
C553 C554 1.387 . S
C553 H556 0.950 . S
C554 C553 1.387 . S
C554 C557 1.387 . S
H555 C551 0.950 . S
H556 C553 0.950 . S
C557 C548 1.390 . S
C557 H550 0.950 . S
C557 C554 1.387 . S
C558 C559 1.387 . S
C558 H562 0.950 . S
C558 C567 1.390 . S
C559 C558 1.387 . S
C559 C561 1.387 . S
H560 C567 0.950 . S
C561 C559 1.387 . S
C561 C563 1.390 . S
C561 H565 0.950 . S
H562 C558 0.950 . S
C563 C561 1.390 . S
C563 C564 1.387 . S
C563 H566 0.950 . S
C564 C563 1.387 . S
C564 C567 1.387 . S
H565 C561 0.950 . S
H566 C563 0.950 . S
C567 C558 1.390 . S
C567 H560 0.950 . S
C567 C564 1.387 . S
C568 C569 1.387 . S
C568 H572 0.950 1_655 S
C568 C577 1.390 . S
C569 C568 1.387 . S
C569 C571 1.387 . S
H570 C577 0.950 . S
C571 C569 1.387 . S
C571 C573 1.390 . S
C571 H575 0.950 . S
H572 C568 0.950 1_455 S
C573 C571 1.390 . S
C573 C574 1.387 . S
C573 H576 0.950 . S
C574 C573 1.387 . S
C574 C577 1.387 . S
H575 C571 0.950 . S
H576 C573 0.950 . S
C577 C568 1.390 . S
C577 H570 0.950 . S
C577 C574 1.387 . S
C578 C579 1.387 . S
C578 H582 0.950 . S
C578 C587 1.390 . S
C579 C578 1.387 . S
C579 C581 1.387 . S
H580 C587 0.950 . S
C581 C579 1.387 . S
C581 C583 1.390 . S
C581 H585 0.950 . S
H582 C578 0.950 . S
C583 C581 1.390 . S
C583 C584 1.387 . S
C583 H586 0.950 . S
C584 C583 1.387 . S
C584 C587 1.387 . S
H585 C581 0.950 . S
H586 C583 0.950 . S
C587 C578 1.390 . S
C587 H580 0.950 . S
C587 C584 1.387 . S
C588 C589 1.387 . S
C588 H592 0.950 . S
C588 C597 1.390 . S
C589 C588 1.387 . S
C589 C591 1.387 . S
H590 C597 0.950 . S
C591 C589 1.387 . S
C591 C593 1.390 . S
C591 H595 0.950 . S
H592 C588 0.950 . S
C593 C591 1.390 . S
C593 C594 1.387 . S
C593 H596 0.950 . S
C594 C593 1.387 . S
C594 C597 1.387 . S
H595 C591 0.950 . S
H596 C593 0.950 . S
C597 C588 1.390 . S
C597 H590 0.950 . S
C597 C594 1.387 . S
C598 C599 1.387 . S
C598 H602 0.950 . S
C598 C607 1.390 . S
C599 C598 1.387 . S
C599 C601 1.387 . S
H600 C607 0.950 . S
C601 C599 1.387 . S
C601 C603 1.390 . S
C601 H605 0.950 . S
H602 C598 0.950 . S
C603 C601 1.390 . S
C603 C604 1.387 . S
C603 H606 0.950 . S
C604 C603 1.387 . S
C604 C607 1.387 . S
H605 C601 0.950 . S
H606 C603 0.950 . S
C607 C598 1.390 . S
C607 H600 0.950 . S
C607 C604 1.387 . S
C369 C241 1.975 . S
C374 C306 2.049 . S
C384 C326 1.750 . S
C379 C277 1.807 . S
C394 C346 2.013 . S
C389 C169 1.932 . S
C404 C366 1.737 . S
C399 C205 1.716 1_655 S
C414 C307 2.050 . S
C409 C97 1.895 . S
C419 C133 1.776 . S
C424 C327 1.749 . S
C429 C25 1.855 . S
C434 C347 2.012 . S
C439 C61 1.706 . S
C444 C367 1.737 . S
C454 C297 0.851 . S
C449 C211 0.894 1_655 S
C464 C317 1.048 . S
C459 C247 1.145 . S
C474 C337 0.863 . S
C469 C253 0.893 . S
C479 C175 1.169 . S
C484 C357 1.041 . S
C489 C67 0.885 . S
C494 C300 0.855 . S
C504 C320 1.043 . S
C499 C103 1.070 . S
C514 C340 0.869 . S
C509 C109 0.892 . S
C519 C31 1.090 . S
C524 C360 1.052 . S
C529 C181 2.183 . S
C534 C290 2.134 . S
C539 C217 2.224 . S
C544 C310 2.168 . S
C554 C330 2.082 . S
C549 C283 2.101 . S
C564 C350 2.227 . S
C559 C145 2.279 . S
C569 C37 2.192 1_655 S
C574 C292 2.135 . S
C584 C312 2.168 . S
C579 C73 2.192 . S
C594 C332 2.079 . S
C589 C139 2.056 . S
C599 C1 2.244 . S
C604 C352 2.231 . S
