# Generated by pormake.
# Topology apo, (3,6)-cn, num edge types: 1
# Building blocks:
#     Node 0, Type 0, BuildingBlock: ESEHIV_clean_linker_0, # of connection points: 3
#     Node 1, Type 0, BuildingBlock: ESEHIV_clean_linker_0, # of connection points: 3
#     Node 2, Type 0, BuildingBlock: ESEHIV_clean_linker_0, # of connection points: 3
#     Node 3, Type 0, BuildingBlock: ESEHIV_clean_linker_0, # of connection points: 3
#     Node 4, Type 0, BuildingBlock: ESEHIV_clean_linker_0, # of connection points: 3
#     Node 5, Type 0, BuildingBlock: ESEHIV_clean_linker_0, # of connection points: 3
#     Node 6, Type 0, BuildingBlock: ESEHIV_clean_linker_0, # of connection points: 3
#     Node 7, Type 0, BuildingBlock: ESEHIV_clean_linker_0, # of connection points: 3
#     Node 8, Type 1, BuildingBlock: KUMBOL_clean_sbu_1, # of connection points: 6
#     Node 9, Type 1, BuildingBlock: KUMBOL_clean_sbu_1, # of connection points: 6
#     Node 10, Type 1, BuildingBlock: KUMBOL_clean_sbu_1, # of connection points: 6
#     Node 11, Type 1, BuildingBlock: KUMBOL_clean_sbu_1, # of connection points: 6
#     Edge 12, Type (0, 1), BuildingBlock: MIFKUJ_clean_linker_0, # of connection points: 2
#     Edge 13, Type (0, 1), BuildingBlock: MIFKUJ_clean_linker_0, # of connection points: 2
#     Edge 14, Type (0, 1), BuildingBlock: MIFKUJ_clean_linker_0, # of connection points: 2
#     Edge 15, Type (0, 1), BuildingBlock: MIFKUJ_clean_linker_0, # of connection points: 2
#     Edge 16, Type (0, 1), BuildingBlock: MIFKUJ_clean_linker_0, # of connection points: 2
#     Edge 17, Type (0, 1), BuildingBlock: MIFKUJ_clean_linker_0, # of connection points: 2
#     Edge 18, Type (0, 1), BuildingBlock: MIFKUJ_clean_linker_0, # of connection points: 2
#     Edge 19, Type (0, 1), BuildingBlock: MIFKUJ_clean_linker_0, # of connection points: 2
#     Edge 20, Type (0, 1), BuildingBlock: MIFKUJ_clean_linker_0, # of connection points: 2
#     Edge 21, Type (0, 1), BuildingBlock: MIFKUJ_clean_linker_0, # of connection points: 2
#     Edge 22, Type (0, 1), BuildingBlock: MIFKUJ_clean_linker_0, # of connection points: 2
#     Edge 23, Type (0, 1), BuildingBlock: MIFKUJ_clean_linker_0, # of connection points: 2
#     Edge 24, Type (0, 1), BuildingBlock: MIFKUJ_clean_linker_0, # of connection points: 2
#     Edge 25, Type (0, 1), BuildingBlock: MIFKUJ_clean_linker_0, # of connection points: 2
#     Edge 26, Type (0, 1), BuildingBlock: MIFKUJ_clean_linker_0, # of connection points: 2
#     Edge 27, Type (0, 1), BuildingBlock: MIFKUJ_clean_linker_0, # of connection points: 2
#     Edge 28, Type (0, 1), BuildingBlock: MIFKUJ_clean_linker_0, # of connection points: 2
#     Edge 29, Type (0, 1), BuildingBlock: MIFKUJ_clean_linker_0, # of connection points: 2
#     Edge 30, Type (0, 1), BuildingBlock: MIFKUJ_clean_linker_0, # of connection points: 2
#     Edge 31, Type (0, 1), BuildingBlock: MIFKUJ_clean_linker_0, # of connection points: 2
#     Edge 32, Type (0, 1), BuildingBlock: MIFKUJ_clean_linker_0, # of connection points: 2
#     Edge 33, Type (0, 1), BuildingBlock: MIFKUJ_clean_linker_0, # of connection points: 2
#     Edge 34, Type (0, 1), BuildingBlock: MIFKUJ_clean_linker_0, # of connection points: 2
#     Edge 35, Type (0, 1), BuildingBlock: MIFKUJ_clean_linker_0, # of connection points: 2
# Relax obj value: 0.010
# Max RMSD: 0.098
# Mean RMSD: 0.076
data_MOF--net-apo--node1-KUMBOL_clean_sbu_1--node2-ESEHIV_clean_linker_0--edge1-MIFKUJ_clean_linker_0
_symmetry_space_group_name_H-M    P1
_symmetry_Int_Tables_number       1
_symmetry_cell_setting            triclinic
loop_
_symmetry_equiv_pos_as_xyz
'x, y, z'
_cell_length_a     29.764402
_cell_length_b     52.919689
_cell_length_c     64.716077
_cell_angle_alpha  90.012718
_cell_angle_beta   89.989498
_cell_angle_gamma 90.352457
loop_
_atom_site_label
_atom_site_type_symbol
_atom_site_fract_x
_atom_site_fract_y
_atom_site_fract_z
_atom_type_partial_charge
H0 H 0.32273 0.41401 0.43436 0.0
H1 H 0.26734 0.3825 0.37873 0.0
H2 H 0.25665 0.34118 0.43574 0.0
C3 C 0.30514 0.39873 0.4266 0.0
C4 C 0.29095 0.37731 0.43786 0.0
C5 C 0.29721 0.40053 0.40528 0.0
C6 C 0.27366 0.38109 0.39519 0.0
C7 C 0.25839 0.3598 0.40614 0.0
C8 C 0.26764 0.35786 0.4274 0.0
H9 H 0.15916 0.09771 0.92986 0.0
H10 H 0.21234 0.12747 0.87305 0.0
H11 H 0.22618 0.17001 0.92945 0.0
C12 C 0.17634 0.11266 0.92148 0.0
C13 C 0.19156 0.13419 0.93215 0.0
C14 C 0.18365 0.11011 0.90017 0.0
C15 C 0.20684 0.12929 0.88955 0.0
C16 C 0.22214 0.15104 0.8999 0.0
C17 C 0.21377 0.15355 0.92122 0.0
H18 H 0.8429 0.09542 0.58462 0.0
H19 H 0.78361 0.12809 0.63879 0.0
H20 H 0.76775 0.16431 0.57974 0.0
C21 C 0.82273 0.11003 0.59172 0.0
C22 C 0.80703 0.13026 0.57967 0.0
C23 C 0.81415 0.1091 0.61308 0.0
C24 C 0.78952 0.12866 0.6223 0.0
C25 C 0.77252 0.1488 0.61052 0.0
C26 C 0.78141 0.1493 0.58916 0.0
H27 H 0.67865 0.40992 0.08082 0.0
H28 H 0.74014 0.38359 0.13685 0.0
H29 H 0.74375 0.33766 0.08202 0.0
C30 C 0.69784 0.39584 0.0891 0.0
C31 C 0.71121 0.37374 0.0788 0.0
C32 C 0.70724 0.3993 0.1102 0.0
C33 C 0.73123 0.38055 0.12081 0.0
C34 C 0.74436 0.35812 0.11091 0.0
C35 C 0.73411 0.35489 0.08985 0.0
H36 H 0.6588 0.59748 0.58404 0.0
H37 H 0.7399 0.66495 0.57849 0.0
H38 H 0.72099 0.62942 0.63773 0.0
C39 C 0.6797 0.61205 0.5909 0.0
C40 C 0.68893 0.61092 0.61213 0.0
C41 C 0.69794 0.63143 0.57846 0.0
C42 C 0.72468 0.6503 0.58789 0.0
C43 C 0.73344 0.64975 0.60931 0.0
C44 C 0.7153 0.62993 0.6212 0.0
H45 H 0.83247 0.91172 0.08159 0.0
H46 H 0.77017 0.88213 0.13634 0.0
H47 H 0.76576 0.83925 0.07978 0.0
C48 C 0.81403 0.89668 0.08926 0.0
C49 C 0.79986 0.87533 0.07797 0.0
C50 C 0.80309 0.89925 0.11025 0.0
C51 C 0.77853 0.88005 0.12013 0.0
C52 C 0.76524 0.85812 0.1094 0.0
C53 C 0.77552 0.85611 0.0882 0.0
H54 H 0.16794 0.90722 0.4312 0.0
H55 H 0.22064 0.83164 0.42889 0.0
H56 H 0.228 0.87956 0.37542 0.0
C57 C 0.1843 0.89213 0.42284 0.0
C58 C 0.19525 0.89568 0.40191 0.0
C59 C 0.19394 0.86919 0.43293 0.0
C60 C 0.21488 0.84976 0.42163 0.0
C61 C 0.22733 0.85323 0.40086 0.0
C62 C 0.21757 0.87635 0.39125 0.0
H63 H 0.32993 0.59102 0.9309 0.0
H64 H 0.27577 0.62176 0.87493 0.0
H65 H 0.26544 0.66381 0.93142 0.0
C66 C 0.31302 0.60622 0.92291 0.0
C67 C 0.29933 0.62786 0.93393 0.0
C68 C 0.30409 0.60377 0.90167 0.0
C69 C 0.28112 0.62315 0.89145 0.0
C70 C 0.26642 0.6447 0.90206 0.0
C71 C 0.27603 0.647 0.92326 0.0
C72 C 0.86821 0.10498 0.26419 0.0
C73 C 0.87851 0.06319 0.2787 0.0
C74 C 0.89403 0.08815 0.27552 0.0
C75 C 0.83819 0.05512 0.26947 0.0
C76 C 0.82714 0.09715 0.25533 0.0
C77 C 0.81257 0.07206 0.25782 0.0
N78 N 0.88384 0.12894 0.26145 0.0
C79 C 0.85945 0.14629 0.25072 0.0
C80 C 0.80219 0.11475 0.24404 0.0
C81 C 0.81833 0.13946 0.24181 0.0
Gd82 Gd 0.06099 0.1354 0.23813 0.0
Gd83 Gd 0.95336 0.13867 0.27653 0.0
N84 N 0.93317 0.09646 0.28417 0.0
C85 C 0.90322 0.04732 0.29162 0.0
C86 C 0.95454 0.08181 0.29845 0.0
C87 C 0.94096 0.05682 0.3018 0.0
H88 H 0.98113 0.08942 0.30788 0.0
H89 H 0.95896 0.04506 0.3126 0.0
H90 H 0.04346 0.19611 0.2241 0.0
H91 H 0.87185 0.16537 0.24903 0.0
H92 H 0.08307 0.2369 0.22602 0.0
H93 H 0.8923 0.0281 0.29461 0.0
H94 H 0.82612 0.03593 0.27156 0.0
H95 H 0.13175 0.09241 0.25704 0.0
H96 H 0.77048 0.10947 0.23699 0.0
H97 H 0.79919 0.15321 0.23319 0.0
H98 H 0.22538 0.21676 0.25652 0.0
H99 H 0.78134 0.06562 0.25095 0.0
H100 H 0.25324 0.13044 0.27468 0.0
H101 H 0.20812 0.09114 0.27197 0.0
N102 N 0.13338 0.13205 0.25193 0.0
C103 C 0.1578 0.15382 0.25297 0.0
C104 C 0.15095 0.1097 0.25846 0.0
C105 C 0.21969 0.13112 0.26821 0.0
C106 C 0.19429 0.1089 0.26676 0.0
C107 C 0.20159 0.15395 0.26125 0.0
H108 H 0.2594 0.17728 0.26881 0.0
N109 N 0.09562 0.17548 0.23867 0.0
C110 C 0.13854 0.17615 0.246 0.0
C111 C 0.1422 0.22119 0.24012 0.0
C112 C 0.16271 0.19909 0.24718 0.0
C113 C 0.07618 0.1968 0.23106 0.0
C114 C 0.0989 0.21999 0.23187 0.0
O115 O 0.94438 0.12061 0.24477 0.0
O116 O 0.013 0.10252 0.23992 0.0
O117 O 0.06126 0.14062 0.20473 0.0
O118 O 0.10437 0.11271 0.21873 0.0
O119 O 0.01875 0.12166 0.28818 0.0
O120 O 0.04848 0.10237 0.25935 0.0
O121 O 0.06984 0.15562 0.26875 0.0
O122 O 0.00035 0.1723 0.27526 0.0
O123 O 0.94617 0.14108 0.31037 0.0
O124 O 0.90206 0.16235 0.28984 0.0
O125 O 0.99915 0.15585 0.22636 0.0
O126 O 0.96041 0.17156 0.25468 0.0
C127 C 0.96995 0.10361 0.23591 0.0
C128 C 0.04444 0.10442 0.27952 0.0
C129 C 0.13073 0.13255 0.18823 0.0
C130 C 0.16137 0.13813 0.15351 0.0
C131 C 0.20802 0.14646 0.18357 0.0
C132 C 0.17234 0.14 0.19656 0.0
C133 C 0.20276 0.14534 0.16216 0.0
C134 C 0.1252 0.13199 0.16663 0.0
C135 C 0.09348 0.12445 0.20181 0.0
C136 C 0.20635 0.19929 0.25544 0.0
C137 C 0.22573 0.17679 0.26245 0.0
H138 H 0.15965 0.2392 0.24077 0.0
C139 C 0.04393 0.172 0.27808 0.0
C140 C 0.96978 0.17134 0.23478 0.0
C141 C 0.88941 0.16846 0.32644 0.0
C142 C 0.87502 0.17228 0.36353 0.0
C143 C 0.83999 0.20128 0.33937 0.0
C144 C 0.86102 0.18916 0.32293 0.0
C145 C 0.84697 0.19299 0.35953 0.0
C146 C 0.89608 0.1599 0.34686 0.0
C147 C 0.91325 0.15705 0.30872 0.0
H148 H 0.24001 0.15208 0.19012 0.0
H149 H 0.17757 0.14048 0.21306 0.0
H150 H 0.23097 0.15019 0.15231 0.0
H151 H 0.09329 0.12613 0.16005 0.0
H152 H 0.81828 0.21723 0.33649 0.0
H153 H 0.85544 0.19626 0.30745 0.0
H154 H 0.82996 0.20263 0.37203 0.0
H155 H 0.91804 0.14404 0.34982 0.0
C156 C 0.66161 0.35473 0.75999 0.0
C157 C 0.69748 0.39584 0.7571 0.0
C158 C 0.65929 0.38078 0.76127 0.0
C159 C 0.73736 0.38427 0.75054 0.0
C160 C 0.70223 0.34293 0.7545 0.0
C161 C 0.73979 0.35787 0.74933 0.0
N162 N 0.62528 0.34092 0.7659 0.0
C163 C 0.62802 0.31532 0.76792 0.0
C164 C 0.70442 0.31652 0.75531 0.0
C165 C 0.66727 0.30268 0.76226 0.0
Gd166 Gd 0.44597 0.35934 0.73818 0.0
Gd167 Gd 0.56047 0.36354 0.77457 0.0
N168 N 0.62076 0.39126 0.76829 0.0
C169 C 0.69504 0.42191 0.76063 0.0
C170 C 0.61922 0.41634 0.77327 0.0
C171 C 0.65594 0.43215 0.76907 0.0
H172 H 0.58902 0.42419 0.77991 0.0
H173 H 0.65414 0.45215 0.77242 0.0
H174 H 0.48357 0.31198 0.70703 0.0
H175 H 0.59961 0.3046 0.77365 0.0
H176 H 0.48046 0.2656 0.7059 0.0
H177 H 0.72362 0.43413 0.75759 0.0
H178 H 0.76699 0.39551 0.74713 0.0
H179 H 0.36065 0.37768 0.76744 0.0
H180 H 0.73503 0.30669 0.75131 0.0
H181 H 0.66897 0.2823 0.76343 0.0
H182 H 0.3698 0.24379 0.7568 0.0
H183 H 0.77137 0.34921 0.74511 0.0
H184 H 0.29102 0.31177 0.7894 0.0
H185 H 0.29916 0.35835 0.78801 0.0
N186 N 0.38635 0.3424 0.75741 0.0
C187 C 0.38157 0.3169 0.75736 0.0
C188 C 0.35679 0.35736 0.76783 0.0
C189 C 0.31763 0.32018 0.78022 0.0
C190 C 0.32212 0.34648 0.77948 0.0
C191 C 0.34743 0.30503 0.76902 0.0
H192 H 0.31853 0.26905 0.77817 0.0
N193 N 0.44199 0.31499 0.73372 0.0
C194 C 0.41085 0.30274 0.74548 0.0
C195 C 0.4331 0.26266 0.73096 0.0
C196 C 0.40613 0.27621 0.74471 0.0
C197 C 0.46428 0.3021 0.71861 0.0
C198 C 0.46147 0.27574 0.71748 0.0
O199 O 0.55733 0.39322 0.74948 0.0
O200 O 0.49684 0.38772 0.72661 0.0
O201 O 0.41442 0.35333 0.70806 0.0
O202 O 0.39187 0.38341 0.7277 0.0
O203 O 0.51122 0.39546 0.77844 0.0
O204 O 0.44554 0.39411 0.75822 0.0
O205 O 0.45026 0.35148 0.77267 0.0
O206 O 0.5151 0.32956 0.77532 0.0
O207 O 0.53299 0.36407 0.80586 0.0
O208 O 0.60469 0.36259 0.80104 0.0
O209 O 0.51312 0.349 0.72401 0.0
O210 O 0.54508 0.33183 0.75257 0.0
C211 C 0.53418 0.39903 0.73278 0.0
C212 C 0.472 0.40444 0.77236 0.0
C213 C 0.39133 0.39116 0.69159 0.0
C214 C 0.38733 0.39904 0.6543 0.0
C215 C 0.40287 0.4336 0.67807 0.0
C216 C 0.39986 0.41705 0.69477 0.0
C217 C 0.39684 0.4247 0.65799 0.0
C218 C 0.38443 0.38231 0.67125 0.0
C219 C 0.38984 0.37347 0.70937 0.0
C220 C 0.37348 0.26417 0.757 0.0
C221 C 0.34413 0.27856 0.7691 0.0
H222 H 0.43055 0.24227 0.72989 0.0
C223 C 0.47295 0.33251 0.78039 0.0
C224 C 0.54495 0.33549 0.73259 0.0
C225 C 0.57717 0.34162 0.83005 0.0
C226 C 0.59822 0.32932 0.86513 0.0
C227 C 0.5886 0.29748 0.83822 0.0
C228 C 0.57708 0.31617 0.82406 0.0
C229 C 0.59993 0.304 0.85848 0.0
C230 C 0.58698 0.34812 0.85062 0.0
C231 C 0.57229 0.36154 0.81446 0.0
H232 H 0.40983 0.45344 0.68072 0.0
H233 H 0.40461 0.42459 0.71018 0.0
H234 H 0.3988 0.43804 0.64532 0.0
H235 H 0.37744 0.36244 0.66861 0.0
H236 H 0.58954 0.2779 0.83341 0.0
H237 H 0.56946 0.31088 0.80828 0.0
H238 H 0.61038 0.28919 0.86891 0.0
H239 H 0.58627 0.36782 0.85516 0.0
C240 C 0.87115 0.82512 0.76088 0.0
C241 C 0.88679 0.78317 0.77387 0.0
C242 C 0.89812 0.80902 0.77225 0.0
C243 C 0.84936 0.77366 0.76306 0.0
C244 C 0.83243 0.81593 0.75078 0.0
C245 C 0.82219 0.79002 0.75158 0.0
N246 N 0.88272 0.84993 0.75983 0.0
C247 C 0.8554 0.86702 0.75039 0.0
C248 C 0.80504 0.83316 0.74031 0.0
C249 C 0.81628 0.85887 0.74035 0.0
Gd250 Gd 0.05498 0.86511 0.7369 0.0
Gd251 Gd 0.94877 0.8622 0.77673 0.0
N252 N 0.93394 0.81888 0.78261 0.0
C253 C 0.91252 0.76783 0.78683 0.0
C254 C 0.95636 0.80446 0.79671 0.0
C255 C 0.94687 0.77865 0.79862 0.0
H256 H 0.9811 0.81275 0.80687 0.0
H257 H 0.9656 0.76721 0.80943 0.0
H258 H 0.05059 0.92519 0.7215 0.0
H259 H 0.86442 0.88684 0.75034 0.0
H260 H 0.09763 0.96386 0.72379 0.0
H261 H 0.90495 0.74788 0.78849 0.0
H262 H 0.84048 0.7538 0.76393 0.0
H263 H 0.12209 0.81708 0.75183 0.0
H264 H 0.77494 0.82686 0.73237 0.0
H265 H 0.79502 0.87235 0.73254 0.0
H266 H 0.23085 0.93684 0.7589 0.0
H267 H 0.79294 0.7825 0.74366 0.0
H268 H 0.24332 0.84908 0.776 0.0
H269 H 0.19501 0.81189 0.76913 0.0
N270 N 0.12579 0.85729 0.7516 0.0
C271 C 0.15287 0.87785 0.75411 0.0
C272 C 0.14152 0.83367 0.75581 0.0
C273 C 0.21058 0.85162 0.76902 0.0
C274 C 0.18344 0.83056 0.76516 0.0
C275 C 0.19596 0.87558 0.76297 0.0
H276 H 0.25658 0.89571 0.7719 0.0
N277 N 0.09693 0.90265 0.73823 0.0
C278 C 0.13845 0.90107 0.74679 0.0
C279 C 0.15137 0.94541 0.73994 0.0
C280 C 0.16663 0.92254 0.74811 0.0
C281 C 0.08284 0.92452 0.72916 0.0
C282 C 0.10942 0.94635 0.73031 0.0
O283 O 0.94296 0.85035 0.74305 0.0
O284 O 0.00983 0.83083 0.73772 0.0
O285 O 0.0406 0.86772 0.70401 0.0
O286 O 0.1047 0.8537 0.71434 0.0
O287 O 0.01553 0.8462 0.78748 0.0
O288 O 0.04574 0.83064 0.75731 0.0
O289 O 0.04715 0.89685 0.76039 0.0
O290 O 0.01406 0.87786 0.7886 0.0
O291 O 0.91545 0.85805 0.80681 0.0
O292 O 0.91173 0.89364 0.7897 0.0
O293 O 0.99288 0.88662 0.72761 0.0
O294 O 0.95401 0.89806 0.75749 0.0
C295 C 0.96674 0.83271 0.734 0.0
C296 C 0.04303 0.83099 0.77757 0.0
C297 C 0.07688 0.83777 0.68297 0.0
C298 C 0.08723 0.82441 0.64722 0.0
C299 C 0.06769 0.79365 0.67376 0.0
C300 C 0.06754 0.81273 0.68865 0.0
C301 C 0.07789 0.79936 0.65321 0.0
C302 C 0.08628 0.84359 0.66226 0.0
C303 C 0.07874 0.85785 0.69857 0.0
C304 C 0.20895 0.92049 0.75753 0.0
C305 C 0.22353 0.89709 0.76499 0.0
H306 H 0.172 0.96231 0.74071 0.0
C307 C 0.03715 0.89632 0.78019 0.0
C308 C 0.96536 0.90143 0.73793 0.0
C309 C 0.87232 0.89232 0.82257 0.0
C310 C 0.84592 0.89419 0.85838 0.0
C311 C 0.81483 0.92237 0.83245 0.0
C312 C 0.8427 0.91189 0.81745 0.0
C313 C 0.81625 0.91357 0.85274 0.0
C314 C 0.87408 0.88359 0.84317 0.0
C315 C 0.90046 0.88106 0.8062 0.0
H316 H 0.06037 0.77434 0.6782 0.0
H317 H 0.06085 0.80797 0.70462 0.0
H318 H 0.0781 0.78421 0.64195 0.0
H319 H 0.09406 0.86295 0.65799 0.0
H320 H 0.792 0.9374 0.82833 0.0
H321 H 0.84068 0.91891 0.80175 0.0
H322 H 0.79456 0.92221 0.86415 0.0
H323 H 0.89695 0.86856 0.84732 0.0
C324 C 0.6442 0.66349 0.26624 0.0
C325 C 0.64215 0.70292 0.28539 0.0
C326 C 0.62155 0.67999 0.27931 0.0
C327 C 0.68475 0.70938 0.2776 0.0
C328 C 0.68717 0.66981 0.25858 0.0
C329 C 0.70715 0.69291 0.2642 0.0
N330 N 0.62375 0.64148 0.26067 0.0
C331 C 0.64491 0.62452 0.24818 0.0
C332 C 0.70881 0.6527 0.2455 0.0
C333 C 0.68761 0.62995 0.24028 0.0
Gd334 Gd 0.44614 0.63969 0.23666 0.0
Gd335 Gd 0.55308 0.63387 0.2753 0.0
N336 N 0.57988 0.67351 0.2863 0.0
C337 C 0.61964 0.71849 0.2994 0.0
C338 C 0.5596 0.68769 0.3012 0.0
C339 C 0.57857 0.71059 0.30761 0.0
H340 H 0.52974 0.68106 0.30886 0.0
H341 H 0.56197 0.72181 0.31926 0.0
H342 H 0.46561 0.57876 0.2233 0.0
H343 H 0.6291 0.60668 0.2445 0.0
H344 H 0.42466 0.53843 0.2233 0.0
H345 H 0.63436 0.7362 0.30451 0.0
H346 H 0.70087 0.727 0.28199 0.0
H347 H 0.37592 0.68207 0.25725 0.0
H348 H 0.74208 0.65674 0.23954 0.0
H349 H 0.70431 0.61652 0.23033 0.0
H350 H 0.27728 0.55984 0.24707 0.0
H351 H 0.74005 0.69814 0.25837 0.0
H352 H 0.25173 0.64435 0.27054 0.0
H353 H 0.29858 0.68313 0.27103 0.0
N354 N 0.37403 0.64282 0.2507 0.0
C355 C 0.34885 0.6213 0.25011 0.0
C356 C 0.35647 0.66487 0.2579 0.0
C357 C 0.28602 0.64367 0.26495 0.0
C358 C 0.3124 0.66559 0.26533 0.0
C359 C 0.30401 0.62121 0.25716 0.0
H360 H 0.24377 0.59851 0.2611 0.0
N361 N 0.41212 0.59955 0.23662 0.0
C362 C 0.36825 0.59913 0.24273 0.0
C363 C 0.36361 0.5545 0.23507 0.0
C364 C 0.34287 0.57657 0.24205 0.0
C365 C 0.43198 0.57826 0.2292 0.0
C366 C 0.4084 0.55536 0.22875 0.0
O367 O 0.56433 0.65618 0.24564 0.0
O368 O 0.49513 0.67231 0.2361 0.0
O369 O 0.44249 0.63423 0.20329 0.0
O370 O 0.39832 0.66074 0.21836 0.0
O371 O 0.48908 0.65288 0.28639 0.0
O372 O 0.45983 0.67278 0.25767 0.0
O373 O 0.43653 0.6189 0.2672 0.0
O374 O 0.50538 0.60106 0.27165 0.0
O375 O 0.5566 0.6283 0.30909 0.0
O376 O 0.60306 0.60916 0.28816 0.0
O377 O 0.5086 0.62073 0.224 0.0
O378 O 0.54428 0.60256 0.25204 0.0
C379 C 0.53919 0.67164 0.23473 0.0
C380 C 0.46584 0.67125 0.27778 0.0
C381 C 0.4178 0.66937 0.18366 0.0
C382 C 0.41002 0.67904 0.14694 0.0
C383 C 0.43393 0.71168 0.17105 0.0
C384 C 0.43087 0.69452 0.18738 0.0
C385 C 0.42316 0.7041 0.15097 0.0
C386 C 0.40793 0.66164 0.16335 0.0
C387 C 0.41173 0.65139 0.20085 0.0
C388 C 0.29772 0.57673 0.2483 0.0
C389 C 0.2785 0.59886 0.25607 0.0
H390 H 0.34534 0.53676 0.23442 0.0
C391 C 0.46238 0.60178 0.27568 0.0
C392 C 0.53734 0.60465 0.23203 0.0
C393 C 0.61278 0.59974 0.3244 0.0
C394 C 0.63068 0.59486 0.36114 0.0
C395 C 0.66069 0.56545 0.3358 0.0
C396 C 0.63891 0.57836 0.32002 0.0
C397 C 0.65676 0.5736 0.35616 0.0
C398 C 0.60875 0.60802 0.34507 0.0
C399 C 0.59037 0.61292 0.30711 0.0
H400 H 0.44419 0.73101 0.17401 0.0
H401 H 0.43864 0.70089 0.20289 0.0
H402 H 0.4252 0.71779 0.13855 0.0
H403 H 0.39722 0.64234 0.16042 0.0
H404 H 0.68089 0.54908 0.33221 0.0
H405 H 0.64251 0.57151 0.30433 0.0
H406 H 0.67479 0.5634 0.36802 0.0
H407 H 0.58861 0.62444 0.34862 0.0
H408 H 0.16028 0.89983 0.36312 0.0
H409 H 0.14106 0.9382 0.34435 0.0
H410 H 0.18092 0.98334 0.3968 0.0
H411 H 0.2009 0.94483 0.41573 0.0
H412 H 0.10092 0.99916 0.37977 0.0
H413 H 0.2489 0.98071 0.35599 0.0
H414 H 0.30946 0.95402 0.34212 0.0
H415 H 0.23322 0.94138 0.28672 0.0
H416 H 0.17188 0.96769 0.30038 0.0
H417 H 0.07523 0.11051 0.31892 0.0
H418 H 0.10747 0.07819 0.34149 0.0
H419 H 0.09197 0.02287 0.29291 0.0
H420 H 0.06182 0.05538 0.2701 0.0
H421 H 0.1677 0.01567 0.31079 0.0
H422 H 0.01606 0.029 0.33657 0.0
H423 H 0.9542 0.05492 0.35051 0.0
H424 H 0.03677 0.07662 0.40199 0.0
H425 H 0.09911 0.05103 0.38826 0.0
C426 C 0.16547 0.91791 0.37063 0.0
C427 C 0.18263 0.91926 0.39086 0.0
C428 C 0.15434 0.93984 0.35989 0.0
C429 C 0.16021 0.96365 0.36906 0.0
C430 C 0.17629 0.96514 0.38942 0.0
C431 C 0.18755 0.94313 0.40022 0.0
C432 C 0.14925 0.98682 0.35722 0.0
C433 C 0.11605 0.00306 0.36484 0.0
C434 C 0.16862 0.99171 0.33764 0.0
C435 C 0.20564 0.97604 0.32928 0.0
C436 C 0.24491 0.9721 0.34091 0.0
C437 C 0.2794 0.95705 0.33308 0.0
C438 C 0.27516 0.94597 0.31357 0.0
C439 C 0.23645 0.94996 0.30183 0.0
C440 C 0.20183 0.96497 0.3096 0.0
C441 C 0.07906 0.09146 0.31308 0.0
C442 C 0.06602 0.08537 0.29282 0.0
C443 C 0.09717 0.07296 0.32602 0.0
C444 C 0.10138 0.0479 0.31909 0.0
C445 C 0.08911 0.04202 0.29867 0.0
C446 C 0.07189 0.0606 0.28562 0.0
C447 C 0.11817 0.02762 0.33297 0.0
C448 C 0.15275 0.01196 0.32578 0.0
C449 C 0.0999 0.02323 0.3529 0.0
C450 C 0.06232 0.03838 0.36126 0.0
C451 C 0.02102 0.03947 0.35078 0.0
C452 C 0.98592 0.05406 0.35864 0.0
C453 C 0.99165 0.0675 0.37705 0.0
C454 C 0.03241 0.06626 0.3877 0.0
C455 C 0.06761 0.05169 0.3799 0.0
H456 H 0.96446 0.0788 0.38309 0.0
H457 H 0.3019 0.93433 0.30754 0.0
H458 H 0.38564 0.58004 0.90368 0.0
H459 H 0.41306 0.54602 0.88144 0.0
H460 H 0.28541 0.54365 0.84992 0.0
H461 H 0.25734 0.577 0.87252 0.0
H462 H 0.31667 0.49691 0.85555 0.0
H463 H 0.37481 0.57541 0.82929 0.0
H464 H 0.41503 0.61622 0.8311 0.0
H465 H 0.53657 0.57799 0.8478 0.0
H466 H 0.49688 0.53695 0.84637 0.0
H467 H 0.39075 0.42837 0.76792 0.0
H468 H 0.36162 0.46321 0.78871 0.0
H469 H 0.48639 0.4668 0.82248 0.0
H470 H 0.51612 0.43245 0.80169 0.0
H471 H 0.45505 0.51338 0.81479 0.0
H472 H 0.39595 0.43478 0.84149 0.0
H473 H 0.35594 0.394 0.83837 0.0
H474 H 0.23587 0.43262 0.82011 0.0
H475 H 0.27542 0.47362 0.82276 0.0
C476 C 0.36315 0.57194 0.89228 0.0
C477 C 0.31948 0.58141 0.88973 0.0
C478 C 0.379 0.55267 0.87943 0.0
C479 C 0.35156 0.54262 0.86373 0.0
C480 C 0.30729 0.55123 0.86181 0.0
C481 C 0.29142 0.57042 0.87465 0.0
C482 C 0.36937 0.52379 0.84884 0.0
C483 C 0.34664 0.50063 0.84647 0.0
C484 C 0.40876 0.52849 0.83714 0.0
C485 C 0.43275 0.55313 0.83792 0.0
C486 C 0.41002 0.57572 0.8335 0.0
C487 C 0.43274 0.59889 0.83444 0.0
C488 C 0.4783 0.5997 0.83962 0.0
C489 C 0.50126 0.57733 0.84382 0.0
C490 C 0.47868 0.55411 0.84293 0.0
C491 C 0.41227 0.43675 0.77958 0.0
C492 C 0.45567 0.42732 0.78322 0.0
C493 C 0.39545 0.45661 0.79152 0.0
C494 C 0.42156 0.46729 0.8074 0.0
C495 C 0.46558 0.45878 0.81038 0.0
C496 C 0.48245 0.43901 0.79846 0.0
C497 C 0.40257 0.48647 0.82162 0.0
C498 C 0.42505 0.50969 0.82386 0.0
C499 C 0.36294 0.48183 0.83317 0.0
C500 C 0.33876 0.45725 0.83214 0.0
C501 C 0.36107 0.43457 0.83671 0.0
C502 C 0.33849 0.41141 0.83502 0.0
C503 C 0.29342 0.41072 0.82899 0.0
C504 C 0.2708 0.43319 0.82474 0.0
C505 C 0.29328 0.45639 0.82634 0.0
H506 H 0.27602 0.39277 0.82765 0.0
H507 H 0.49583 0.61766 0.84033 0.0
H508 H 0.73688 0.5823 0.63918 0.0
H509 H 0.71051 0.54622 0.65962 0.0
H510 H 0.57761 0.55469 0.63412 0.0
H511 H 0.60387 0.59089 0.61357 0.0
H512 H 0.57928 0.5473 0.67774 0.0
H513 H 0.63943 0.50987 0.6159 0.0
H514 H 0.69723 0.50226 0.58937 0.0
H515 H 0.78665 0.47369 0.63576 0.0
H516 H 0.72959 0.4815 0.66264 0.0
H517 H 0.48553 0.43049 0.70836 0.0
H518 H 0.51246 0.46612 0.68777 0.0
H519 H 0.64802 0.45156 0.70796 0.0
H520 H 0.62117 0.41513 0.72785 0.0
H521 H 0.64583 0.46244 0.66742 0.0
H522 H 0.58814 0.49903 0.72923 0.0
H523 H 0.53202 0.50636 0.75657 0.0
H524 H 0.44085 0.53691 0.71179 0.0
H525 H 0.49616 0.52935 0.68409 0.0
C526 C 0.70196 0.57658 0.63805 0.0
C527 C 0.6724 0.58938 0.62479 0.0
C528 C 0.68703 0.5559 0.64963 0.0
C529 C 0.64219 0.54772 0.64828 0.0
C530 C 0.61236 0.56072 0.63534 0.0
C531 C 0.62742 0.58125 0.62355 0.0
C532 C 0.62669 0.52541 0.66024 0.0
C533 C 0.59335 0.52866 0.67531 0.0
C534 C 0.64608 0.50129 0.65746 0.0
C535 C 0.6804 0.49653 0.64131 0.0
C536 C 0.67157 0.50219 0.62048 0.0
C537 C 0.70417 0.49779 0.60537 0.0
C538 C 0.74564 0.48756 0.61088 0.0
C539 C 0.75454 0.48165 0.63152 0.0
C540 C 0.72207 0.48604 0.64669 0.0
C541 C 0.52105 0.43471 0.70824 0.0
C542 C 0.55106 0.42022 0.71997 0.0
C543 C 0.53642 0.45524 0.69662 0.0
C544 C 0.58218 0.46181 0.69661 0.0
C545 C 0.6125 0.44698 0.70788 0.0
C546 C 0.59706 0.42637 0.71947 0.0
C547 C 0.5982 0.48425 0.6849 0.0
C548 C 0.63172 0.48105 0.66989 0.0
C549 C 0.57929 0.50848 0.68789 0.0
C550 C 0.54616 0.51341 0.70455 0.0
C551 C 0.556 0.50715 0.72518 0.0
C552 C 0.52435 0.51136 0.74075 0.0
C553 C 0.48286 0.52204 0.73592 0.0
C554 C 0.47299 0.52861 0.71551 0.0
C555 C 0.50449 0.52438 0.69986 0.0
H556 H 0.45838 0.52527 0.74799 0.0
H557 H 0.77083 0.48416 0.59916 0.0
H558 H 0.75094 0.93163 0.13247 0.0
H559 H 0.77583 0.96801 0.15327 0.0
H560 H 0.91321 0.95332 0.1362 0.0
H561 H 0.88835 0.91741 0.11489 0.0
H562 H 0.88607 0.95912 0.18287 0.0
H563 H 0.88064 0.99831 0.11469 0.0
H564 H 0.84242 0.0098 0.08225 0.0
H565 H 0.74164 0.04956 0.1166 0.0
H566 H 0.77893 0.03794 0.14928 0.0
H567 H 0.01003 0.06092 0.22149 0.0
H568 H 0.97745 0.0278 0.2001 0.0
H569 H 0.85102 0.06726 0.19923 0.0
H570 H 0.88466 0.10153 0.21958 0.0
H571 H 0.86573 0.04881 0.16272 0.0
H572 H 0.86702 0.01327 0.2299 0.0
H573 H 0.89763 1.00128 0.26385 0.0
H574 H 0.99597 0.9545 0.23436 0.0
H575 H 0.96594 0.96618 0.20016 0.0
C576 C 0.78639 0.93635 0.13306 0.0
C577 C 0.81779 0.92183 0.12209 0.0
C578 C 0.80051 0.95707 0.14489 0.0
C579 C 0.8463 0.96328 0.14623 0.0
C580 C 0.87772 0.9488 0.1353 0.0
C581 C 0.86352 0.92842 0.12311 0.0
C582 C 0.86159 0.98444 0.15952 0.0
C583 C 0.88218 0.97875 0.17841 0.0
C584 C 0.85454 0.00996 0.15405 0.0
C585 C 0.83223 0.01698 0.13443 0.0
C586 C 0.85005 0.00925 0.11534 0.0
C587 C 0.82863 0.01585 0.0969 0.0
C588 C 0.78953 0.03033 0.09737 0.0
C589 C 0.77186 0.0383 0.11627 0.0
C590 C 0.79314 0.03173 0.13474 0.0
C591 C 0.97529 0.06268 0.21675 0.0
C592 C 0.9496 0.08367 0.22272 0.0
C593 C 0.95653 0.04353 0.20463 0.0
C594 C 0.91134 0.04458 0.19846 0.0
C595 C 0.88581 0.06581 0.20397 0.0
C596 C 0.90487 0.08524 0.21587 0.0
C597 C 0.89142 0.02361 0.18603 0.0
C598 C 0.86964 0.02924 0.16734 0.0
C599 C 0.89635 0.99797 0.19193 0.0
C600 C 0.91444 0.99075 0.21245 0.0
C601 C 0.89535 1.00053 0.23064 0.0
C602 C 0.91258 0.99379 0.24993 0.0
C603 C 0.9489 0.97728 0.25127 0.0
C604 C 0.96788 0.96733 0.2333 0.0
C605 C 0.95068 0.97393 0.21395 0.0
H606 H 0.96222 0.97212 0.26624 0.0
H607 H 0.77301 0.03543 0.08308 0.0
H608 H 0.81232 0.05851 0.60398 0.0
H609 H 0.83611 0.02342 0.62599 0.0
H610 H 0.87558 0.0763 0.67347 0.0
H611 H 0.85333 0.11143 0.65131 0.0
H612 H 0.93724 0.04064 0.669 0.0
H613 H 0.777 0.0423 0.67688 0.0
H614 H 0.69829 0.04216 0.66501 0.0
H615 H 0.71702 0.96939 0.63706 0.0
H616 H 0.79608 0.96925 0.64851 0.0
H617 H 0.949 0.9494 0.75158 0.0
H618 H 0.92208 0.98531 0.7309 0.0
H619 H 0.90965 0.93669 0.6777 0.0
H620 H 0.93773 0.90109 0.69804 0.0
H621 H 0.83266 0.97038 0.68627 0.0
H622 H 0.99205 0.9702 0.67484 0.0
H623 H 0.07286 0.97111 0.68315 0.0
H624 H 0.05578 0.04061 0.71641 0.0
H625 H 0.97467 0.04005 0.70835 0.0
C626 C 0.82656 0.06266 0.61901 0.0
C627 C 0.83063 0.08776 0.62594 0.0
C628 C 0.83966 0.04258 0.63167 0.0
C629 C 0.85688 0.0472 0.65155 0.0
C630 C 0.86205 0.07226 0.65827 0.0
C631 C 0.84903 0.09231 0.64563 0.0
C632 C 0.87005 0.02598 0.66528 0.0
C633 C 0.91404 0.02555 0.67307 0.0
C634 C 0.84018 0.00591 0.67021 0.0
C635 C 0.79259 0.00588 0.66339 0.0
C636 C 0.76444 0.02635 0.66807 0.0
C637 C 0.71974 0.02631 0.66143 0.0
C638 C 0.7027 0.00581 0.65024 0.0
C639 C 0.73029 0.98527 0.64571 0.0
C640 C 0.77503 0.98523 0.65228 0.0
C641 C 0.94003 0.94641 0.73554 0.0
C642 C 0.94538 0.92257 0.72636 0.0
C643 C 0.92493 0.96688 0.72374 0.0
C644 C 0.91401 0.96358 0.70279 0.0
C645 C 0.91789 0.93957 0.69384 0.0
C646 C 0.934 0.91932 0.70545 0.0
C647 C 0.89963 0.98525 0.68996 0.0
C648 C 0.85551 0.9857 0.68236 0.0
C649 C 0.92932 0.00533 0.68514 0.0
C650 C 0.97727 0.00492 0.69121 0.0
C651 C 0.00539 0.98547 0.6842 0.0
C652 C 0.05128 0.98603 0.68871 0.0
C653 C 0.06944 0.00598 0.7002 0.0
C654 C 0.04166 0.02524 0.70743 0.0
C655 C 0.99574 0.02482 0.70288 0.0
H656 H 0.10508 0.0065 0.70344 0.0
H657 H 0.66808 0.00581 0.64512 0.0
H658 H 0.70456 0.44861 0.09673 0.0
H659 H 0.67567 0.48539 0.11531 0.0
H660 H 0.64494 0.43816 0.16784 0.0
H661 H 0.67162 0.40127 0.14909 0.0
H662 H 0.57772 0.46835 0.1605 0.0
H663 H 0.73802 0.47847 0.1664 0.0
H664 H 0.81569 0.48256 0.1535 0.0
H665 H 0.77963 0.54934 0.11983 0.0
H666 H 0.70155 0.54545 0.13232 0.0
H667 H 0.56505 0.55727 0.24226 0.0
H668 H 0.59328 0.52449 0.21908 0.0
H669 H 0.58285 0.57561 0.16746 0.0
H670 H 0.55352 0.60848 0.19054 0.0
H671 H 0.66851 0.54612 0.17165 0.0
H672 H 0.50829 0.5362 0.16724 0.0
H673 H 0.4308 0.53111 0.18011 0.0
H674 H 0.4684 0.46332 0.21201 0.0
H675 H 0.54628 0.46813 0.19946 0.0
C676 C 0.69133 0.44603 0.11218 0.0
C677 C 0.69068 0.42197 0.12145 0.0
C678 C 0.67526 0.46713 0.12287 0.0
C679 C 0.65862 0.46462 0.14309 0.0
C680 C 0.65774 0.44061 0.15229 0.0
C681 C 0.67349 0.41955 0.14161 0.0
C682 C 0.64126 0.48676 0.15468 0.0
C683 C 0.59784 0.48522 0.16308 0.0
C684 C 0.66693 0.50912 0.1576 0.0
C685 C 0.71384 0.5115 0.1501 0.0
C686 C 0.74657 0.49391 0.15611 0.0
C687 C 0.79068 0.49621 0.14889 0.0
C688 C 0.80256 0.51615 0.1358 0.0
C689 C 0.77037 0.53388 0.12994 0.0
C690 C 0.72619 0.53164 0.13709 0.0
C691 C 0.56907 0.56163 0.22601 0.0
C692 C 0.55705 0.58543 0.21819 0.0
C693 C 0.58501 0.54286 0.21279 0.0
C694 C 0.58991 0.54765 0.1916 0.0
C695 C 0.5792 0.5716 0.18379 0.0
C696 C 0.56239 0.59028 0.19696 0.0
C697 C 0.60553 0.52734 0.17768 0.0
C698 C 0.64848 0.52925 0.16888 0.0
C699 C 0.57964 0.50522 0.17449 0.0
C700 C 0.5332 0.50266 0.18256 0.0
C701 C 0.50016 0.52036 0.17718 0.0
C702 C 0.45611 0.51744 0.18432 0.0
C703 C 0.44467 0.49687 0.19684 0.0
C704 C 0.47729 0.47922 0.20229 0.0
C705 C 0.52137 0.48201 0.19514 0.0
H706 H 0.41054 0.49466 0.20235 0.0
H707 H 0.83673 0.51791 0.13024 0.0
H708 H 0.35311 0.39988 0.37205 0.0
H709 H 0.38044 0.43608 0.35179 0.0
H710 H 0.30565 0.48667 0.39086 0.0
H711 H 0.27932 0.4505 0.41161 0.0
H712 H 0.29587 0.48861 0.34228 0.0
H713 H 0.40035 0.49305 0.39948 0.0
H714 H 0.45585 0.47522 0.42361 0.0
H715 H 0.54095 0.45526 0.37265 0.0
H716 H 0.48556 0.47259 0.34818 0.0
H717 H 0.3809 0.60153 0.29548 0.0
H718 H 0.35042 0.56872 0.31824 0.0
H719 H 0.46644 0.52241 0.30611 0.0
H720 H 0.49787 0.55561 0.28431 0.0
H721 H 0.45317 0.51995 0.34384 0.0
H722 H 0.35097 0.50655 0.28691 0.0
H723 H 0.2936 0.51537 0.26043 0.0
H724 H 0.20682 0.54653 0.3068 0.0
H725 H 0.26329 0.53723 0.33365 0.0
C726 C 0.34275 0.41876 0.37635 0.0
C727 C 0.31418 0.4225 0.39334 0.0
C728 C 0.35842 0.43936 0.36484 0.0
C729 C 0.34511 0.46398 0.3699 0.0
C730 C 0.31635 0.46778 0.38679 0.0
C731 C 0.30147 0.4472 0.39862 0.0
C732 C 0.36025 0.48555 0.35702 0.0
C733 C 0.33002 0.49589 0.34283 0.0
C734 C 0.40519 0.49423 0.35729 0.0
C735 C 0.43857 0.48387 0.37199 0.0
C736 C 0.43066 0.48461 0.3934 0.0
C737 C 0.46215 0.47465 0.40715 0.0
C738 C 0.50184 0.46405 0.39967 0.0
C739 C 0.51016 0.46344 0.37842 0.0
C740 C 0.47875 0.47335 0.36461 0.0
C741 C 0.39972 0.58427 0.29761 0.0
C742 C 0.442 0.58129 0.28826 0.0
C743 C 0.38209 0.56537 0.31051 0.0
C744 C 0.40584 0.54281 0.31392 0.0
C745 C 0.44747 0.53962 0.30401 0.0
C746 C 0.46545 0.55866 0.29147 0.0
C747 C 0.38891 0.52308 0.32858 0.0
C748 C 0.41883 0.51301 0.34324 0.0
C749 C 0.3439 0.51415 0.32837 0.0
C750 C 0.31147 0.5215 0.31219 0.0
C751 C 0.31985 0.51553 0.2914 0.0
C752 C 0.28735 0.52041 0.27637 0.0
C753 C 0.24666 0.53159 0.28192 0.0
C754 C 0.23835 0.53788 0.30253 0.0
C755 C 0.27045 0.53267 0.31767 0.0
H756 H 0.22154 0.53536 0.27025 0.0
H757 H 0.5262 0.45636 0.41034 0.0
H758 H 0.10054 0.08799 0.90216 0.0
H759 H 0.07325 0.05125 0.88276 0.0
H760 H 0.20326 0.04395 0.85388 0.0
H761 H 0.23023 0.08101 0.87287 0.0
H762 H 0.14088 0.03939 0.82609 0.0
H763 H 0.16428 0.00384 0.89366 0.0
H764 H 0.15481 1.00038 0.93142 0.0
H765 H 0.01274 0.98952 0.92363 0.0
H766 H 0.02125 0.9933 0.88583 0.0
H767 H 0.12081 0.91642 0.7849 0.0
H768 H 0.14282 0.95297 0.80564 0.0
H769 H 0.00663 0.95942 0.82783 0.0
H770 H 0.98457 0.92297 0.80653 0.0
H771 H 0.06768 0.96506 0.85882 0.0
H772 H 0.04541 0.99921 0.79096 0.0
H773 H 0.05578 0.00241 0.75323 0.0
H774 H 0.1971 0.0153 0.76179 0.0
H775 H 0.18776 0.01174 0.79955 0.0
C776 C 0.12333 0.07838 0.89179 0.0
C777 C 0.16747 0.08734 0.88899 0.0
C778 C 0.10777 0.05736 0.88075 0.0
C779 C 0.13632 0.04461 0.86701 0.0
C780 C 0.18054 0.05348 0.86434 0.0
C781 C 0.19592 0.07465 0.87517 0.0
C782 C 0.11996 0.02255 0.85486 0.0
C783 C 0.12542 0.02301 0.83331 0.0
C784 C 0.0985 1.00145 0.86418 0.0
C785 C 0.09335 0.99915 0.88692 0.0
C786 C 0.13096 1.00093 0.90001 0.0
C787 C 0.12577 0.99888 0.92142 0.0
C788 C 0.08318 0.99481 0.92992 0.0
C789 C 0.0457 0.99272 0.91702 0.0
C790 C 0.05069 0.99481 0.89561 0.0
C791 C 0.09543 0.92612 0.79364 0.0
C792 C 0.0508 0.9176 0.79346 0.0
C793 C 0.10806 0.94677 0.80575 0.0
C794 C 0.07614 0.95928 0.81796 0.0
C795 C 0.03172 0.95018 0.8184 0.0
C796 C 0.01916 0.92944 0.80625 0.0
C797 C 0.08935 0.98184 0.83018 0.0
C798 C 0.0831 0.9815 0.85167 0.0
C799 C 0.11024 0.00303 0.82084 0.0
C800 C 0.1159 0.00508 0.7981 0.0
C801 C 0.07875 0.00255 0.7848 0.0
C802 C 0.08443 0.00448 0.76341 0.0
C803 C 0.12704 0.00917 0.75516 0.0
C804 C 0.1641 0.01178 0.76824 0.0
C805 C 0.15863 0.0098 0.78963 0.0
H806 H 0.13146 0.01072 0.73863 0.0
H807 H 0.07924 0.99322 0.9465 0.0
H808 H 0.21653 0.09945 0.96075 0.0
H809 H 0.2055 0.10094 0.99812 0.0
H810 H 0.14089 0.1734 0.99216 0.0
H811 H 0.1539 0.17238 0.95469 0.0
H812 H 0.19087 0.17469 0.02434 0.0
H813 H 0.08086 0.11603 1.0006 0.0
H814 H 0.05135 0.07919 0.9815 0.0
H815 H 0.13418 0.02982 0.01757 0.0
H816 H 0.16473 0.06642 0.03669 0.0
H817 H 0.1055 0.16511 0.1285 0.0
H818 H 0.10392 0.16506 0.09044 0.0
H819 H 0.20544 0.10727 0.0896 0.0
H820 H 0.20795 0.10782 0.1275 0.0
H821 H 0.12798 0.10011 0.06104 0.0
H822 H 0.24126 0.16151 0.08234 0.0
H823 H 0.26711 0.19926 0.10137 0.0
H824 H 0.17009 0.24459 0.06948 0.0
H825 H 0.14316 0.20697 0.0505 0.0
C826 C 0.19996 0.11568 0.96745 0.0
C827 C 0.18571 0.1357 0.95487 0.0
C828 C 0.19338 0.11647 0.9888 0.0
C829 C 0.17123 0.13698 0.99802 0.0
C830 C 0.15778 0.15728 0.98547 0.0
C831 C 0.16518 0.15671 0.96409 0.0
C832 C 0.16284 0.13726 0.02074 0.0
C833 C 0.1763 0.15852 0.03224 0.0
C834 C 0.14407 0.11615 0.03125 0.0
C835 C 0.12534 0.09402 0.01998 0.0
C836 C 0.09298 0.09734 1.00438 0.0
C837 C 0.07606 0.07649 0.99356 0.0
C838 C 0.09095 0.05219 0.99829 0.0
C839 C 0.1227 0.04867 0.01391 0.0
C840 C 0.1398 0.06945 0.02477 0.0
C841 C 0.12702 0.15224 0.12011 0.0
C842 C 0.15689 0.13649 0.13078 0.0
C843 C 0.12618 0.15225 0.09846 0.0
C844 C 0.15463 0.13618 0.08726 0.0
C845 C 0.18317 0.11975 0.09797 0.0
C846 C 0.18468 0.12012 0.11955 0.0
C847 C 0.15657 0.13729 0.06438 0.0
C848 C 0.14192 0.11631 0.05295 0.0
C849 C 0.17345 0.15878 0.0539 0.0
C850 C 0.18981 0.18139 0.06521 0.0
C851 C 0.22513 0.17948 0.07954 0.0
C852 C 0.24004 0.20086 0.09029 0.0
C853 C 0.22016 0.2243 0.08668 0.0
C854 C 0.1854 0.22641 0.07229 0.0
C855 C 0.1703 0.20507 0.06153 0.0
H856 H 0.23176 0.24083 0.09501 0.0
H857 H 0.07784 0.03607 0.98987 0.0
H858 H 0.36792 0.39131 0.4583 0.0
H859 H 0.38294 0.38971 0.4953 0.0
H860 H 0.25234 0.3563 0.50572 0.0
H861 H 0.23621 0.35892 0.46871 0.0
H862 H 0.26741 0.39184 0.53328 0.0
H863 H 0.35036 0.3211 0.50904 0.0
H864 H 0.40388 0.29808 0.48699 0.0
H865 H 0.51138 0.34599 0.50813 0.0
H866 H 0.45839 0.36954 0.53009 0.0
H867 H 0.31855 0.36952 0.6394 0.0
H868 H 0.30156 0.3599 0.60309 0.0
H869 H 0.42156 0.39976 0.58424 0.0
H870 H 0.43876 0.40923 0.62039 0.0
H871 H 0.40818 0.35608 0.56168 0.0
H872 H 0.32271 0.42905 0.58306 0.0
H873 H 0.26886 0.45191 0.60505 0.0
H874 H 0.16531 0.39848 0.58918 0.0
H875 H 0.21879 0.37509 0.5673 0.0
C876 C 0.34218 0.38378 0.46843 0.0
C877 C 0.30075 0.37531 0.46044 0.0
C878 C 0.35108 0.38256 0.48962 0.0
C879 C 0.31907 0.37253 0.50336 0.0
C880 C 0.27771 0.36399 0.49546 0.0
C881 C 0.26868 0.36531 0.47424 0.0
C882 C 0.32828 0.37186 0.52601 0.0
C883 C 0.29778 0.38354 0.53949 0.0
C884 C 0.36823 0.36141 0.53421 0.0
C885 C 0.4003 0.34721 0.5211 0.0
C886 C 0.38535 0.32685 0.50888 0.0
C887 C 0.41561 0.31368 0.49641 0.0
C888 C 0.46098 0.3206 0.49613 0.0
C889 C 0.47621 0.34066 0.50835 0.0
C890 C 0.44609 0.35391 0.52084 0.0
C891 C 0.3417 0.37579 0.62752 0.0
C892 C 0.37978 0.3903 0.63272 0.0
C893 C 0.33183 0.37043 0.60679 0.0
C894 C 0.36001 0.37938 0.59091 0.0
C895 C 0.39926 0.39272 0.59619 0.0
C896 C 0.40891 0.39824 0.61684 0.0
C897 C 0.34758 0.37628 0.56878 0.0
C898 C 0.37753 0.36399 0.55542 0.0
C899 C 0.30705 0.38605 0.56069 0.0
C900 C 0.27486 0.40016 0.57375 0.0
C901 C 0.28855 0.42206 0.5844 0.0
C902 C 0.25809 0.43513 0.59682 0.0
C903 C 0.21372 0.4266 0.59856 0.0
C904 C 0.19971 0.40503 0.58784 0.0
C905 C 0.23008 0.39186 0.57543 0.0
H906 H 0.19018 0.43675 0.60818 0.0
H907 H 0.48435 0.31039 0.48646 0.0
H908 H 0.72265 0.40746 0.04724 0.0
H909 H 0.7044 0.40157 0.01067 0.0
H910 H 0.656 0.32621 0.02378 0.0
H911 H 0.67514 0.33187 0.06026 0.0
H912 H 0.70407 0.32542 0.99023 0.0
H913 H 0.58414 0.37757 0.01503 0.0
H914 H 0.55058 0.41462 0.03208 0.0
H915 H 0.61273 0.4637 0.98749 0.0
H916 H 0.64718 0.42695 0.97033 0.0
H917 H 0.57724 0.30238 0.90009 0.0
H918 H 0.59779 0.31179 0.93568 0.0
H919 H 0.66298 0.38064 0.916 0.0
H920 H 0.64361 0.37109 0.88007 0.0
H921 H 0.60907 0.38626 0.95192 0.0
H922 H 0.72657 0.33273 0.92659 0.0
H923 H 0.75727 0.29492 0.90953 0.0
H924 H 0.69599 0.24752 0.95557 0.0
H925 H 0.66435 0.28505 0.97274 0.0
C926 C 0.70793 0.38969 0.0423 0.0
C927 C 0.70026 0.37013 0.0566 0.0
C928 C 0.6974 0.38636 0.02141 0.0
C929 C 0.6782 0.36356 0.01446 0.0
C930 C 0.67081 0.34396 0.02873 0.0
C931 C 0.68181 0.34719 0.04957 0.0
C932 C 0.66628 0.35994 0.99231 0.0
C933 C 0.68284 0.3386 0.98197 0.0
C934 C 0.63945 0.37742 0.98129 0.0
C935 C 0.61861 0.39953 0.99152 0.0
C936 C 0.59092 0.39628 0.00895 0.0
C937 C 0.5717 0.41722 0.01862 0.0
C938 C 0.57962 0.4415 0.01091 0.0
C939 C 0.60668 0.44488 0.99347 0.0
C940 C 0.62603 0.424 0.98375 0.0
C941 C 0.5962 0.31947 0.90318 0.0
C942 C 0.60894 0.33586 0.88703 0.0
C943 C 0.60775 0.32486 0.92362 0.0
C944 C 0.63225 0.34679 0.92846 0.0
C945 C 0.64399 0.36362 0.91257 0.0
C946 C 0.63268 0.35816 0.89204 0.0
C947 C 0.64643 0.35165 0.95008 0.0
C948 C 0.6304 0.3732 0.96025 0.0
C949 C 0.6734 0.33428 0.96102 0.0
C950 C 0.69278 0.31169 0.95085 0.0
C951 C 0.71937 0.31423 0.93299 0.0
C952 C 0.73698 0.29285 0.92331 0.0
C953 C 0.7285 0.26883 0.93143 0.0
C954 C 0.70249 0.26614 0.94929 0.0
C955 C 0.68475 0.28746 0.95901 0.0
H956 H 0.74216 0.2523 0.92391 0.0
H957 H 0.5647 0.45769 0.01841 0.0
H958 H 0.80577 0.09232 0.55061 0.0
H959 H 0.8229 0.09573 0.51366 0.0
H960 H 0.85078 0.17529 0.52123 0.0
H961 H 0.83368 0.17202 0.55802 0.0
H962 H 0.79822 0.16769 0.48891 0.0
H963 H 0.93509 0.13089 0.51465 0.0
H964 H 0.98021 0.09895 0.53288 0.0
H965 H 0.93285 0.04162 0.49113 0.0
H966 H 0.88693 0.07317 0.47281 0.0
H967 H 0.89862 0.20119 0.39654 0.0
H968 H 0.89381 0.18982 0.43303 0.0
H969 H 0.85829 0.11336 0.41633 0.0
H970 H 0.86379 0.12467 0.37953 0.0
H971 H 0.91176 0.11597 0.45228 0.0
H972 H 0.77669 0.15288 0.42606 0.0
H973 H 0.73243 0.18487 0.40746 0.0
H974 H 0.7761 0.2418 0.4504 0.0
H975 H 0.82127 0.21021 0.46906 0.0
C976 C 0.81597 0.11048 0.54442 0.0
C977 C 0.81814 0.13193 0.55726 0.0
C978 C 0.8258 0.1124 0.52329 0.0
C979 C 0.83845 0.13575 0.51464 0.0
C980 C 0.84093 0.1571 0.52749 0.0
C981 C 0.83096 0.15522 0.54853 0.0
C982 C 0.84762 0.13837 0.49212 0.0
C983 C 0.82344 0.15654 0.48101 0.0
C984 C 0.87946 0.12328 0.48157 0.0
C985 C 0.9072 0.10434 0.4925 0.0
C986 C 0.93401 0.11143 0.50946 0.0
C987 C 0.95978 0.09341 0.51979 0.0
C988 C 0.9593 0.06826 0.5132 0.0
C989 C 0.93313 0.0611 0.49623 0.0
C990 C 0.90725 0.07905 0.48586 0.0
C991 C 0.89071 0.18182 0.40063 0.0
C992 C 0.88097 0.16389 0.38523 0.0
C993 C 0.88791 0.17535 0.42148 0.0
C994 C 0.87466 0.1509 0.4274 0.0
C995 C 0.86832 0.13238 0.41209 0.0
C996 C 0.87151 0.13883 0.39111 0.0
C997 C 0.86316 0.1457 0.44936 0.0
C998 C 0.88653 0.12701 0.46026 0.0
C999 C 0.83046 0.16025 0.4598 0.0
C1000 C 0.80264 0.17921 0.44886 0.0
C1001 C 0.77707 0.17225 0.43146 0.0
C1002 C 0.75181 0.19031 0.42091 0.0
C1003 C 0.75152 0.21536 0.42772 0.0
C1004 C 0.77639 0.22239 0.44514 0.0
C1005 C 0.8018 0.20441 0.45571 0.0
H1006 H 0.73196 0.22932 0.41953 0.0
H1007 H 0.97927 0.05433 0.52122 0.0
H1008 H 0.74325 0.86064 0.04684 0.0
H1009 H 0.75863 0.85938 0.00977 0.0
H1010 H 0.89481 0.88421 0.02101 0.0
H1011 H 0.87924 0.88595 0.05813 0.0
H1012 H 0.86357 0.90928 0.99012 0.0
H1013 H 0.86826 0.82202 1.00628 0.0
H1014 H 0.84297 0.78145 0.0211 0.0
H1015 H 0.72594 0.78243 0.98234 0.0
H1016 H 0.75018 0.82321 0.96748 0.0
H1017 H 0.9193 0.8902 0.8837 0.0
H1018 H 0.9194 0.88217 0.92113 0.0
H1019 H 0.77564 0.87164 0.91979 0.0
H1020 H 0.7754 0.87977 0.88255 0.0
H1021 H 0.82037 0.83669 0.94568 0.0
H1022 H 0.81618 0.92731 0.93262 0.0
H1023 H 0.84592 0.96683 0.91756 0.0
H1024 H 0.9695 0.95726 0.95081 0.0
H1025 H 0.94065 0.91747 0.96586 0.0
C1026 C 0.77665 0.86552 0.04144 0.0
C1027 C 0.81002 0.87335 0.05546 0.0
C1028 C 0.78548 0.86475 0.02021 0.0
C1029 C 0.82814 0.87136 0.01248 0.0
C1030 C 0.86163 0.87902 0.0265 0.0
C1031 C 0.85267 0.88003 0.04773 0.0
C1032 C 0.83709 0.87125 0.98977 0.0
C1033 C 0.85491 0.89317 0.98052 0.0
C1034 C 0.82564 0.85037 0.97703 0.0
C1035 C 0.81088 0.8258 0.98588 0.0
C1036 C 0.83695 0.81369 1.00102 0.0
C1037 C 0.82283 0.79063 0.00941 0.0
C1038 C 0.78282 0.7794 1.0027 0.0
C1039 C 0.7569 0.79117 0.98754 0.0
C1040 C 0.77085 0.81424 0.9791 0.0
C1041 C 0.88792 0.88566 0.89136 0.0
C1042 C 0.84731 0.88574 0.88027 0.0
C1043 C 0.88795 0.88122 0.91273 0.0
C1044 C 0.84744 0.87653 0.92328 0.0
C1045 C 0.80726 0.87523 0.91199 0.0
C1046 C 0.80714 0.87997 0.89074 0.0
C1047 C 0.84605 0.87477 0.94622 0.0
C1048 C 0.82958 0.85257 0.95544 0.0
C1049 C 0.85943 0.89521 0.95897 0.0
C1050 C 0.87646 0.9193 0.95018 0.0
C1051 C 0.84981 0.93355 0.93661 0.0
C1052 C 0.86648 0.956 0.92809 0.0
C1053 C 0.90962 0.96451 0.93318 0.0
C1054 C 0.93612 0.95062 0.94686 0.0
C1055 C 0.91961 0.92813 0.95539 0.0
H1056 H 0.92248 0.98189 0.92656 0.0
H1057 H 0.77195 0.76154 0.00922 0.0
H1058 H 0.69319 0.59034 0.55267 0.0
H1059 H 0.67859 0.58949 0.51581 0.0
H1060 H 0.67391 0.67093 0.51467 0.0
H1061 H 0.68531 0.67192 0.55217 0.0
H1062 H 0.61127 0.65323 0.49016 0.0
H1063 H 0.76723 0.6376 0.49666 0.0
H1064 H 0.83624 0.61789 0.50999 0.0
H1065 H 0.79214 0.54568 0.48722 0.0
H1066 H 0.72255 0.56488 0.47399 0.0
H1067 H 0.63788 0.64297 0.37719 0.0
H1068 H 0.64574 0.65464 0.41383 0.0
H1069 H 0.62666 0.57667 0.4312 0.0
H1070 H 0.6178 0.56504 0.39496 0.0
H1071 H 0.70726 0.5991 0.44608 0.0
H1072 H 0.54742 0.61714 0.44155 0.0
H1073 H 0.48161 0.63925 0.42735 0.0
H1074 H 0.53917 0.71069 0.44492 0.0
H1075 H 0.60565 0.689 0.45898 0.0
C1076 C 0.68831 0.60815 0.54479 0.0
C1077 C 0.69027 0.63122 0.55561 0.0
C1078 C 0.68065 0.60763 0.52352 0.0
C1079 C 0.67604 0.63016 0.51226 0.0
C1080 C 0.67764 0.65327 0.52294 0.0
C1081 C 0.68468 0.65381 0.54438 0.0
C1082 C 0.66954 0.62921 0.4894 0.0
C1083 C 0.63278 0.64175 0.48048 0.0
C1084 C 0.69756 0.61433 0.47661 0.0
C1085 C 0.73951 0.60267 0.48445 0.0
C1086 C 0.77211 0.61749 0.49461 0.0
C1087 C 0.81135 0.60641 0.50213 0.0
C1088 C 0.81854 0.58054 0.49949 0.0
C1089 C 0.78652 0.56571 0.48926 0.0
C1090 C 0.7472 0.57669 0.48172 0.0
C1091 C 0.63421 0.62846 0.38887 0.0
C1092 C 0.62791 0.60302 0.38315 0.0
C1093 C 0.6389 0.63513 0.40978 0.0
C1094 C 0.63729 0.61645 0.42521 0.0
C1095 C 0.62851 0.59133 0.41954 0.0
C1096 C 0.62357 0.58472 0.3988 0.0
C1097 C 0.6482 0.6223 0.4471 0.0
C1098 C 0.68609 0.61078 0.45578 0.0
C1099 C 0.62179 0.63849 0.45947 0.0
C1100 C 0.58175 0.65147 0.45109 0.0
C1101 C 0.54625 0.63757 0.44221 0.0
C1102 C 0.50877 0.65003 0.43422 0.0
C1103 C 0.50628 0.67636 0.43516 0.0
C1104 C 0.54119 0.69029 0.44416 0.0
C1105 C 0.57875 0.67793 0.45216 0.0
H1106 H 0.47724 0.68597 0.42897 0.0
H1107 H 0.84894 0.572 0.50533 0.0
H1108 H 0.24721 0.64947 0.96426 0.0
H1109 H 0.26632 0.65628 1.00053 0.0
H1110 H 0.39252 0.6184 0.99152 0.0
H1111 H 0.37495 0.61257 0.95492 0.0
H1112 H 0.34044 0.604 0.02902 0.0
H1113 H 0.39938 0.67707 0.99272 0.0
H1114 H 0.39351 0.71337 0.96901 0.0
H1115 H 0.29016 0.74536 0.00702 0.0
H1116 H 0.29496 0.70902 0.0308 0.0
H1117 H 0.44555 0.6413 0.12333 0.0
H1118 H 0.42673 0.63059 0.08749 0.0
H1119 H 0.32496 0.68843 0.08739 0.0
H1120 H 0.34571 0.69999 0.12273 0.0
H1121 H 0.3655 0.6917 0.05373 0.0
H1122 H 0.30294 0.62089 0.08991 0.0
H1123 H 0.30209 0.58436 0.11356 0.0
H1124 H 0.40259 0.54778 0.07674 0.0
H1125 H 0.40447 0.58425 0.05301 0.0
C1126 C 0.27932 0.6428 0.96982 0.0
C1127 C 0.30966 0.63065 0.95644 0.0
C1128 C 0.28995 0.64652 0.99066 0.0
C1129 C 0.33086 0.63789 0.99867 0.0
C1130 C 0.36066 0.62507 0.98563 0.0
C1131 C 0.35038 0.62167 0.9647 0.0
C1132 C 0.34322 0.64323 0.02046 0.0
C1133 C 0.34649 0.62311 0.03446 0.0
C1134 C 0.34977 0.66823 0.02758 0.0
C1135 C 0.34723 0.69021 0.01342 0.0
C1136 C 0.37515 0.69174 0.99592 0.0
C1137 C 0.37206 0.71234 0.98249 0.0
C1138 C 0.3414 0.73162 0.98647 0.0
C1139 C 0.31385 0.73039 1.00394 0.0
C1140 C 0.31677 0.70981 0.0174 0.0
C1141 C 0.41904 0.65156 0.1156 0.0
C1142 C 0.39708 0.67146 0.1257 0.0
C1143 C 0.40804 0.64536 0.09516 0.0
C1144 C 0.37387 0.65842 0.08466 0.0
C1145 C 0.35153 0.67807 0.09499 0.0
C1146 C 0.36326 0.68464 0.11521 0.0
C1147 C 0.36242 0.65245 0.0627 0.0
C1148 C 0.35942 0.6725 0.04852 0.0
C1149 C 0.35521 0.62738 0.05555 0.0
C1150 C 0.35419 0.60543 0.0698 0.0
C1151 C 0.32512 0.60514 0.08694 0.0
C1152 C 0.3244 0.58443 0.10035 0.0
C1153 C 0.35236 0.56379 0.09669 0.0
C1154 C 0.38101 0.5638 0.07958 0.0
C1155 C 0.38189 0.58447 0.06614 0.0
H1156 H 0.35176 0.54777 0.10708 0.0
H1157 H 0.33905 0.74756 0.97605 0.0
H1158 H 0.12016 0.88704 0.45411 0.0
H1159 H 0.10178 0.88111 0.4906 0.0
H1160 H 0.22008 0.83564 0.49852 0.0
H1161 H 0.24048 0.84265 0.46243 0.0
H1162 H 0.1315 0.81485 0.51427 0.0
H1163 H 0.22964 0.88872 0.51642 0.0
H1164 H 0.2521 0.93181 0.50603 0.0
H1165 H 0.12591 0.96047 0.52768 0.0
H1166 H 0.10243 0.91745 0.53791 0.0
H1167 H 0.14439 0.79916 0.62162 0.0
H1168 H 0.16121 0.80818 0.58544 0.0
H1169 H 0.07144 0.87189 0.5871 0.0
H1170 H 0.05564 0.86337 0.62359 0.0
H1171 H 0.14122 0.88433 0.56563 0.0
H1172 H 0.04106 0.81427 0.56445 0.0
H1173 H 0.01145 0.77223 0.57389 0.0
H1174 H 0.12992 0.73742 0.54929 0.0
H1175 H 0.16049 0.77931 0.53987 0.0
C1176 C 0.14285 0.87615 0.46361 0.0
C1177 C 0.18197 0.86538 0.45515 0.0
C1178 C 0.13198 0.87261 0.48444 0.0
C1179 C 0.15956 0.85792 0.49717 0.0
C1180 C 0.19825 0.84692 0.48886 0.0
C1181 C 0.20964 0.85082 0.46815 0.0
C1182 C 0.14813 0.854 0.51921 0.0
C1183 C 0.13408 0.82991 0.52559 0.0
C1184 C 0.14982 0.87396 0.5337 0.0
C1185 C 0.16409 0.89983 0.52771 0.0
C1186 C 0.20651 0.90417 0.51878 0.0
C1187 C 0.21947 0.92859 0.51296 0.0
C1188 C 0.1904 0.94885 0.51613 0.0
C1189 C 0.14836 0.94475 0.5252 0.0
C1190 C 0.13523 0.92036 0.53102 0.0
C1191 C 0.12817 0.81506 0.61426 0.0
C1192 C 0.09839 0.83042 0.62539 0.0
C1193 C 0.13771 0.82018 0.59355 0.0
C1194 C 0.11686 0.84041 0.58334 0.0
C1195 C 0.08789 0.85615 0.59458 0.0
C1196 C 0.07894 0.85129 0.61543 0.0
C1197 C 0.12517 0.84494 0.56095 0.0
C1198 C 0.13845 0.86918 0.55441 0.0
C1199 C 0.12165 0.82523 0.54618 0.0
C1200 C 0.10323 0.79996 0.5516 0.0
C1201 C 0.06093 0.79766 0.56116 0.0
C1202 C 0.04396 0.77386 0.5665 0.0
C1203 C 0.06886 0.75218 0.56226 0.0
C1204 C 0.1107 0.75424 0.55259 0.0
C1205 C 0.12783 0.77801 0.54721 0.0
H1206 H 0.05568 0.73376 0.56643 0.0
H1207 H 0.20048 0.96775 0.51162 0.0
H1208 H 0.27614 0.30919 0.40522 0.0
H1209 H 0.2376 0.27654 0.38468 0.0
H1210 H 0.14508 0.33235 0.36186 0.0
H1211 H 0.18401 0.36509 0.38203 0.0
H1212 H 0.10491 0.2833 0.37457 0.0
H1213 H 0.22276 0.31929 0.33184 0.0
H1214 H 0.30094 0.33189 0.32428 0.0
H1215 H 0.34346 0.25502 0.33163 0.0
H1216 H 0.26556 0.24204 0.33958 0.0
H1217 H 0.01029 0.21792 0.28953 0.0
H1218 H 0.04562 0.24952 0.3119 0.0
H1219 H 0.16018 0.20084 0.31987 0.0
H1220 H 0.12587 0.16975 0.2968 0.0
H1221 H 0.18904 0.24593 0.31595 0.0
H1222 H 0.07343 0.20843 0.35754 0.0
H1223 H 0.99597 0.19435 0.36514 0.0
H1224 H 0.95028 0.27101 0.36164 0.0
H1225 H 0.0273 0.28552 0.35369 0.0
C1226 C 0.24726 0.31437 0.396 0.0
C1227 C 0.23311 0.33963 0.39512 0.0
C1228 C 0.22537 0.29577 0.38427 0.0
C1229 C 0.18855 0.30207 0.37174 0.0
C1230 C 0.17333 0.3271 0.37146 0.0
C1231 C 0.1957 0.34577 0.38288 0.0
C1232 C 0.16757 0.2829 0.35798 0.0
C1233 C 0.12306 0.27523 0.36165 0.0
C1234 C 0.19168 0.27199 0.34144 0.0
C1235 C 0.23845 0.27976 0.33655 0.0
C1236 C 0.24885 0.30512 0.33205 0.0
C1237 C 0.2931 0.31232 0.32765 0.0
C1238 C 0.32717 0.29428 0.32754 0.0
C1239 C 0.31704 0.26898 0.33176 0.0
C1240 C 0.27285 0.26169 0.33621 0.0
C1241 C 0.04299 0.21397 0.29608 0.0
C1242 C 0.06516 0.19129 0.29152 0.0
C1243 C 0.0631 0.232 0.30897 0.0
C1244 C 0.10522 0.2274 0.31804 0.0
C1245 C 0.12764 0.20487 0.31319 0.0
C1246 C 0.10793 0.18707 0.30001 0.0
C1247 C 0.1261 0.24605 0.33246 0.0
C1248 C 0.17072 0.25374 0.32893 0.0
C1249 C 0.10221 0.25662 0.34934 0.0
C1250 C 0.05612 0.24805 0.35484 0.0
C1251 C 0.04684 0.22228 0.35833 0.0
C1252 C 0.00301 0.21422 0.36268 0.0
C1253 C 0.96823 0.23177 0.3638 0.0
C1254 C 0.97726 0.25744 0.36073 0.0
C1255 C 0.021 0.2656 0.35632 0.0
H1256 H 0.93429 0.2255 0.36705 0.0
H1257 H 0.36141 0.29989 0.32412 0.0
H1258 H 0.21136 0.20249 0.90059 0.0
H1259 H 0.25397 0.23431 0.88092 0.0
H1260 H 0.33395 0.17533 0.8537 0.0
H1261 H 0.29172 0.14358 0.87328 0.0
H1262 H 0.38488 0.21505 0.86877 0.0
H1263 H 0.25519 0.20257 0.82569 0.0
H1264 H 0.17423 0.20093 0.81774 0.0
H1265 H 0.16174 0.27925 0.83396 0.0
H1266 H 0.24256 0.28127 0.84232 0.0
H1267 H 0.49207 0.28286 0.78718 0.0
H1268 H 0.45085 0.2531 0.80927 0.0
H1269 H 0.36423 0.31336 0.82946 0.0
H1270 H 0.40533 0.34308 0.80736 0.0
H1271 H 0.3153 0.27379 0.81855 0.0
H1272 H 0.43916 0.28657 0.86429 0.0
H1273 H 0.51655 0.28867 0.87748 0.0
H1274 H 0.53853 0.2119 0.8586 0.0
H1275 H 0.4607 0.20926 0.84555 0.0
C1276 C 0.23814 0.19638 0.89045 0.0
C1277 C 0.24812 0.17056 0.8884 0.0
C1278 C 0.26218 0.21452 0.87912 0.0
C1279 C 0.29684 0.20714 0.8657 0.0
C1280 C 0.30721 0.18142 0.86388 0.0
C1281 C 0.28294 0.1633 0.875 0.0
C1282 C 0.32339 0.22619 0.85399 0.0
C1283 C 0.36978 0.22764 0.85754 0.0
C1284 C 0.30342 0.24317 0.83987 0.0
C1285 C 0.25483 0.24198 0.83488 0.0
C1286 C 0.2351 0.21938 0.82777 0.0
C1287 C 0.18925 0.21839 0.82314 0.0
C1288 C 0.16283 0.23995 0.82541 0.0
C1289 C 0.18223 0.26256 0.83225 0.0
C1290 C 0.22807 0.26364 0.83693 0.0
C1291 C 0.46472 0.28979 0.79662 0.0
C1292 C 0.45149 0.31517 0.7954 0.0
C1293 C 0.44118 0.2728 0.80925 0.0
C1294 C 0.40438 0.28096 0.82108 0.0
C1295 C 0.3923 0.30655 0.82042 0.0
C1296 C 0.41576 0.32352 0.80778 0.0
C1297 C 0.37705 0.26258 0.83324 0.0
C1298 C 0.33048 0.26119 0.82974 0.0
C1299 C 0.3967 0.24577 0.84757 0.0
C1300 C 0.44439 0.24782 0.85377 0.0
C1301 C 0.46071 0.27026 0.8627 0.0
C1302 C 0.50457 0.27147 0.87029 0.0
C1303 C 0.53258 0.25043 0.86885 0.0
C1304 C 0.51681 0.22817 0.85971 0.0
C1305 C 0.47277 0.22678 0.85229 0.0
H1306 H 0.56641 0.25128 0.87492 0.0
H1307 H 0.12734 0.23915 0.82181 0.0
H1308 H 0.71448 0.14482 0.64355 0.0
H1309 H 0.67644 0.17844 0.6618 0.0
H1310 H 0.72756 0.2328 0.61785 0.0
H1311 H 0.77004 0.19957 0.60079 0.0
H1312 H 0.73315 0.25311 0.6523 0.0
H1313 H 0.61159 0.21066 0.61992 0.0
H1314 H 0.56335 0.17499 0.60914 0.0
H1315 H 0.53234 0.1588 0.67258 0.0
H1316 H 0.5809 0.19416 0.68379 0.0
H1317 H 0.57868 0.34555 0.69425 0.0
H1318 H 0.6173 0.31607 0.67096 0.0
H1319 H 0.6072 0.25761 0.71719 0.0
H1320 H 0.56842 0.28677 0.74028 0.0
H1321 H 0.57715 0.24264 0.67797 0.0
H1322 H 0.71035 0.28414 0.7082 0.0
H1323 H 0.75833 0.32101 0.71626 0.0
H1324 H 0.75971 0.34225 0.6523 0.0
H1325 H 0.71264 0.30511 0.64373 0.0
C1326 C 0.71845 0.16393 0.63785 0.0
C1327 C 0.74595 0.16928 0.62067 0.0
C1328 C 0.69565 0.18319 0.64812 0.0
C1329 C 0.6981 0.20825 0.64102 0.0
C1330 C 0.72482 0.21365 0.62365 0.0
C1331 C 0.7487 0.19447 0.61369 0.0
C1332 C 0.67454 0.22886 0.65237 0.0
C1333 C 0.69871 0.2509 0.6575 0.0
C1334 C 0.62955 0.22626 0.65935 0.0
C1335 C 0.60019 0.20497 0.6527 0.0
C1336 C 0.59473 0.1994 0.63159 0.0
C1337 C 0.56729 0.17924 0.6254 0.0
C1338 C 0.54487 0.16461 0.64016 0.0
C1339 C 0.54976 0.17014 0.66116 0.0
C1340 C 0.57719 0.19026 0.66744 0.0
C1341 C 0.58528 0.32648 0.69946 0.0
C1342 C 0.57134 0.31855 0.71917 0.0
C1343 C 0.60737 0.30971 0.68621 0.0
C1344 C 0.61535 0.2847 0.69242 0.0
C1345 C 0.60159 0.27685 0.71214 0.0
C1346 C 0.57992 0.29362 0.72542 0.0
C1347 C 0.63624 0.26624 0.67815 0.0
C1348 C 0.6114 0.24473 0.67246 0.0
C1349 C 0.68002 0.26964 0.67017 0.0
C1350 C 0.7077 0.29206 0.67537 0.0
C1351 C 0.72067 0.29678 0.69589 0.0
C1352 C 0.74773 0.31769 0.70054 0.0
C1353 C 0.7616 0.33414 0.68488 0.0
C1354 C 0.74882 0.32955 0.66444 0.0
C1355 C 0.72219 0.3085 0.65965 0.0
H1356 H 0.78246 0.35034 0.68857 0.0
H1357 H 0.52364 0.14902 0.63534 0.0
H1358 H 0.81358 0.32769 0.09796 0.0
H1359 H 0.85286 0.29527 0.11786 0.0
H1360 H 0.76956 0.31126 0.17071 0.0
H1361 H 0.72904 0.34296 0.15082 0.0
H1362 H 0.86202 0.30935 0.17988 0.0
H1363 H 0.74902 0.26008 0.14415 0.0
H1364 H 0.70841 0.24457 0.11342 0.0
H1365 H 0.83091 0.21417 0.08905 0.0
H1366 H 0.87239 0.22984 0.11952 0.0
H1367 H 0.90905 0.20759 0.24596 0.0
H1368 H 0.87233 0.23838 0.22381 0.0
H1369 H 0.94491 0.20986 0.17111 0.0
H1370 H 0.98044 0.17815 0.19302 0.0
H1371 H 0.86166 0.21864 0.16046 0.0
H1372 H 0.97511 0.2657 0.19575 0.0
H1373 H 0.01793 0.28107 0.22589 0.0
H1374 H 0.89935 0.31635 0.24992 0.0
H1375 H 0.8556 0.30081 0.22009 0.0
C1376 C 0.80313 0.32409 0.11371 0.0
C1377 C 0.76817 0.33808 0.12277 0.0
C1378 C 0.82581 0.30564 0.1251 0.0
C1379 C 0.81411 0.30091 0.14575 0.0
C1380 C 0.77931 0.31477 0.15483 0.0
C1381 C 0.75635 0.33299 0.14343 0.0
C1382 C 0.83825 0.28164 0.15806 0.0
C1383 C 0.86162 0.28947 0.17578 0.0
C1384 C 0.83883 0.25587 0.1523 0.0
C1385 C 0.81389 0.24638 0.13401 0.0
C1386 C 0.76737 0.2503 0.13215 0.0
C1387 C 0.74418 0.24144 0.11479 0.0
C1388 C 0.76708 0.22846 0.09926 0.0
C1389 C 0.81322 0.22426 0.10107 0.0
C1390 C 0.83658 0.23312 0.11839 0.0
C1391 C 0.91711 0.20769 0.22964 0.0
C1392 C 0.94772 0.19028 0.22131 0.0
C1393 C 0.89628 0.2255 0.217 0.0
C1394 C 0.90636 0.22676 0.19582 0.0
C1395 C 0.93663 0.20931 0.1874 0.0
C1396 C 0.95706 0.19124 0.2 0.0
C1397 C 0.88518 0.24625 0.18251 0.0
C1398 C 0.8624 0.23852 0.16456 0.0
C1399 C 0.88563 0.2722 0.18792 0.0
C1400 C 0.91198 0.28191 0.20575 0.0
C1401 C 0.95809 0.2766 0.20752 0.0
C1402 C 0.98254 0.28535 0.22455 0.0
C1403 C 0.96136 0.29964 0.23983 0.0
C1404 C 0.9157 0.30526 0.23808 0.0
C1405 C 0.89107 0.2965 0.22111 0.0
H1406 H 0.98033 0.30639 0.25301 0.0
H1407 H 0.74907 0.22161 0.08583 0.0
H1408 H 0.79539 0.64388 0.64032 0.0
H1409 H 0.83533 0.6768 0.65944 0.0
H1410 H 0.77682 0.73368 0.62032 0.0
H1411 H 0.73516 0.70089 0.60149 0.0
H1412 H 0.87108 0.74059 0.62847 0.0
H1413 H 0.73216 0.72601 0.66481 0.0
H1414 H 0.67468 0.69983 0.68216 0.0
H1415 H 0.77213 0.67586 0.72685 0.0
H1416 H 0.83041 0.70159 0.70955 0.0
H1417 H 0.88788 0.83992 0.71337 0.0
H1418 H 0.84945 0.81055 0.69001 0.0
H1419 H 0.95975 0.75858 0.69519 0.0
H1420 H 0.99684 0.78702 0.71991 0.0
H1421 H 0.83688 0.75161 0.70298 0.0
H1422 H 0.96006 0.74499 0.6347 0.0
H1423 H 0.01346 0.77081 0.61446 0.0
H1424 H 0.94492 0.83829 0.63288 0.0
H1425 H 0.89036 0.81286 0.65275 0.0
C1426 C 0.79062 0.66338 0.63581 0.0
C1427 C 0.76137 0.6697 0.61952 0.0
C1428 C 0.81376 0.68216 0.64671 0.0
C1429 C 0.80862 0.70768 0.64145 0.0
C1430 C 0.78117 0.71407 0.62463 0.0
C1431 C 0.75755 0.69528 0.61382 0.0
C1432 C 0.83081 0.72763 0.654 0.0
C1433 C 0.86364 0.74303 0.64475 0.0
C1434 C 0.82084 0.73085 0.67523 0.0
C1435 C 0.78575 0.71553 0.68575 0.0
C1436 C 0.74143 0.71499 0.67823 0.0
C1437 C 0.70869 0.70026 0.68807 0.0
C1438 C 0.71977 0.68614 0.70557 0.0
C1439 C 0.76361 0.68678 0.71328 0.0
C1440 C 0.7965 0.70145 0.70347 0.0
C1441 C 0.90373 0.82212 0.70977 0.0
C1442 C 0.94517 0.8157 0.71869 0.0
C1443 C 0.88198 0.80551 0.69622 0.0
C1444 C 0.90207 0.7826 0.69072 0.0
C1445 C 0.94403 0.77637 0.69908 0.0
C1446 C 0.96525 0.79269 0.7131 0.0
C1447 C 0.87756 0.76434 0.67749 0.0
C1448 C 0.84442 0.74914 0.6867 0.0
C1449 C 0.88729 0.76134 0.65624 0.0
C1450 C 0.92153 0.77701 0.64551 0.0
C1451 C 0.95651 0.76535 0.63452 0.0
C1452 C 0.98678 0.7799 0.62299 0.0
C1453 C 0.98245 0.80614 0.62234 0.0
C1454 C 0.94824 0.81794 0.63344 0.0
C1455 C 0.91768 0.80346 0.6449 0.0
H1456 H 0.00541 0.81729 0.6131 0.0
H1457 H 0.69437 0.67475 0.71317 0.0
H1458 H 0.69391 0.82895 0.09613 0.0
H1459 H 0.65477 0.79534 0.11513 0.0
H1460 H 0.74322 0.80696 0.1671 0.0
H1461 H 0.78338 0.83977 0.148 0.0
H1462 H 0.73137 0.75808 0.16064 0.0
H1463 H 0.63488 0.83054 0.16591 0.0
H1464 H 0.58887 0.86557 0.15264 0.0
H1465 H 0.50433 0.81266 0.12039 0.0
H1466 H 0.55025 0.77732 0.13325 0.0
H1467 H 0.60971 0.70331 0.24295 0.0
H1468 H 0.64726 0.73253 0.2194 0.0
H1469 H 0.55525 0.71091 0.17091 0.0
H1470 H 0.51877 0.68078 0.19456 0.0
H1471 H 0.56703 0.76234 0.17288 0.0
H1472 H 0.66092 0.68961 0.1699 0.0
H1473 H 0.707 0.65484 0.18356 0.0
H1474 H 0.79616 0.70848 0.21214 0.0
H1475 H 0.75022 0.74361 0.19892 0.0
C1476 C 0.7053 0.82416 0.11152 0.0
C1477 C 0.74159 0.83726 0.12059 0.0
C1478 C 0.68262 0.80509 0.12245 0.0
C1479 C 0.6956 0.7988 0.14269 0.0
C1480 C 0.73238 0.81149 0.15156 0.0
C1481 C 0.75507 0.83047 0.14067 0.0
C1482 C 0.671 0.77915 0.1548 0.0
C1483 C 0.6955 0.75917 0.16346 0.0
C1484 C 0.62395 0.78011 0.15807 0.0
C1485 C 0.59632 0.80132 0.15034 0.0
C1486 C 0.60671 0.8264 0.15585 0.0
C1487 C 0.58061 0.8463 0.14843 0.0
C1488 C 0.54379 0.84135 0.13563 0.0
C1489 C 0.53292 0.81647 0.13027 0.0
C1490 C 0.55896 0.7965 0.13763 0.0
C1491 C 0.5981 0.70437 0.22724 0.0
C1492 C 0.56151 0.68969 0.22058 0.0
C1493 C 0.61933 0.72126 0.21376 0.0
C1494 C 0.60441 0.72378 0.19328 0.0
C1495 C 0.56734 0.70935 0.18664 0.0
C1496 C 0.54628 0.69233 0.20017 0.0
C1497 C 0.62758 0.74158 0.17896 0.0
C1498 C 0.60283 0.76116 0.1699 0.0
C1499 C 0.67443 0.74032 0.17537 0.0
C1500 C 0.702 0.71925 0.18348 0.0
C1501 C 0.69016 0.694 0.17923 0.0
C1502 C 0.7163 0.67423 0.18685 0.0
C1503 C 0.75459 0.67947 0.19861 0.0
C1504 C 0.7666 0.70447 0.20294 0.0
C1505 C 0.74054 0.72432 0.19537 0.0
H1506 H 0.77497 0.66414 0.20437 0.0
H1507 H 0.52361 0.85679 0.1299 0.0
H1508 H 0.21651 0.84021 0.36005 0.0
H1509 H 0.25749 0.80865 0.34041 0.0
H1510 H 0.32962 0.78708 0.39542 0.0
H1511 H 0.29107 0.81998 0.4149 0.0
H1512 H 0.38558 0.78909 0.36543 0.0
H1513 H 0.24204 0.75008 0.37351 0.0
H1514 H 0.15947 0.74633 0.37231 0.0
H1515 H 0.16189 0.75644 0.30649 0.0
H1516 H 0.24446 0.7606 0.30732 0.0
H1517 H 0.44966 0.66801 0.31941 0.0
H1518 H 0.41048 0.69861 0.34128 0.0
H1519 H 0.38929 0.74657 0.28843 0.0
H1520 H 0.43036 0.71681 0.2666 0.0
H1521 H 0.30809 0.7289 0.31843 0.0
H1522 H 0.45352 0.77209 0.31272 0.0
H1523 H 0.53613 0.77411 0.31543 0.0
H1524 H 0.52837 0.75215 0.37921 0.0
H1525 H 0.44564 0.74983 0.37681 0.0
C1526 C 0.24143 0.82899 0.36799 0.0
C1527 C 0.2505 0.83282 0.38912 0.0
C1528 C 0.2644 0.8106 0.35676 0.0
C1529 C 0.29621 0.79511 0.36645 0.0
C1530 C 0.30511 0.7987 0.38757 0.0
C1531 C 0.28262 0.81737 0.39877 0.0
C1532 C 0.32122 0.7758 0.35437 0.0
C1533 C 0.3684 0.77573 0.35542 0.0
C1534 C 0.29913 0.75839 0.34109 0.0
C1535 C 0.24944 0.75588 0.34051 0.0
C1536 C 0.22495 0.75169 0.3588 0.0
C1537 C 0.17814 0.74947 0.35818 0.0
C1538 C 0.15544 0.75121 0.33935 0.0
C1539 C 0.17952 0.75512 0.32108 0.0
C1540 C 0.22633 0.75739 0.32161 0.0
C1541 C 0.43718 0.68521 0.31246 0.0
C1542 C 0.44302 0.68992 0.29122 0.0
C1543 C 0.41469 0.70259 0.32497 0.0
C1544 C 0.39703 0.72472 0.31639 0.0
C1545 C 0.40268 0.72951 0.29526 0.0
C1546 C 0.42603 0.71245 0.28283 0.0
C1547 C 0.37185 0.74266 0.32942 0.0
C1548 C 0.32483 0.7423 0.32857 0.0
C1549 C 0.39391 0.75937 0.34311 0.0
C1550 C 0.44353 0.7605 0.34452 0.0
C1551 C 0.46948 0.76745 0.32726 0.0
C1552 C 0.51628 0.76879 0.32877 0.0
C1553 C 0.53748 0.76325 0.34748 0.0
C1554 C 0.5119 0.75642 0.36473 0.0
C1555 C 0.46507 0.75514 0.36331 0.0
H1556 H 0.57373 0.76422 0.3486 0.0
H1557 H 0.1192 0.74948 0.3389 0.0
H1558 H 0.27408 0.69637 0.90612 0.0
H1559 H 0.23608 0.72886 0.88571 0.0
H1560 H 0.16611 0.67096 0.85138 0.0
H1561 H 0.20244 0.63845 0.8721 0.0
H1562 H 0.20948 0.70737 0.82642 0.0
H1563 H 0.10946 0.70313 0.88494 0.0
H1564 H 0.09021 0.70464 0.92198 0.0
H1565 H 0.13976 0.78088 0.92564 0.0
H1566 H 0.15991 0.7797 0.88866 0.0
H1567 H 0.05499 0.78107 0.7694 0.0
H1568 H 0.09436 0.75011 0.79071 0.0
H1569 H 0.13108 0.8092 0.83371 0.0
H1570 H 0.08881 0.83969 0.81309 0.0
H1571 H 0.10733 0.77243 0.85476 0.0
H1572 H 0.21293 0.7768 0.79774 0.0
H1573 H 0.23909 0.77494 0.76151 0.0
H1574 H 0.18382 0.70024 0.75535 0.0
H1575 H 0.15813 0.70144 0.79159 0.0
C1576 C 0.24997 0.69054 0.89451 0.0
C1577 C 0.24162 0.66474 0.89068 0.0
C1578 C 0.22849 0.70913 0.88278 0.0
C1579 C 0.19845 0.70227 0.867 0.0
C1580 C 0.18947 0.67662 0.86338 0.0
C1581 C 0.21048 0.65808 0.8752 0.0
C1582 C 0.17731 0.72169 0.85375 0.0
C1583 C 0.18681 0.72152 0.83254 0.0
C1584 C 0.14882 0.74049 0.86187 0.0
C1585 C 0.13665 0.74123 0.88409 0.0
C1586 C 0.11664 0.72014 0.89369 0.0
C1587 C 0.10549 0.72095 0.91466 0.0
C1588 C 0.11388 0.74281 0.92617 0.0
C1589 C 0.13335 0.76394 0.91671 0.0
C1590 C 0.14462 0.76322 0.89574 0.0
C1591 C 0.0718 0.78735 0.78335 0.0
C1592 C 0.06903 0.81263 0.78969 0.0
C1593 C 0.09472 0.76973 0.79545 0.0
C1594 C 0.11671 0.77727 0.81372 0.0
C1595 C 0.11447 0.80277 0.81976 0.0
C1596 C 0.0904 0.82021 0.80799 0.0
C1597 C 0.13964 0.75843 0.82718 0.0
C1598 C 0.13035 0.75857 0.84851 0.0
C1599 C 0.16892 0.73978 0.8192 0.0
C1600 C 0.1832 0.73933 0.79727 0.0
C1601 C 0.20608 0.76007 0.78859 0.0
C1602 C 0.22095 0.7591 0.76809 0.0
C1603 C 0.21274 0.73761 0.7561 0.0
C1604 C 0.19002 0.71692 0.76463 0.0
C1605 C 0.17553 0.71767 0.78516 0.0
H1606 H 0.22419 0.73694 0.74024 0.0
H1607 H 0.10521 0.74341 0.9424 0.0
loop_
_geom_bond_atom_site_label_1
_geom_bond_atom_site_label_2
_geom_bond_distance
_geom_bond_site_symmetry_2
_ccdc_geom_bond_type
H0 C3 0.931 . S
H1 C6 0.928 . S
H2 C8 0.930 . S
C3 H0 0.931 . S
C3 C4 1.413 . S
C3 C5 1.360 . S
C4 C3 1.413 . S
C4 C8 1.429 . S
C5 C3 1.360 . S
C5 C6 1.372 . S
C6 H1 0.928 . S
C6 C5 1.372 . S
C6 C7 1.404 . S
C7 C6 1.404 . S
C7 C8 1.391 . S
C8 H2 0.930 . S
C8 C4 1.429 . S
C8 C7 1.391 . S
H9 C12 0.931 . S
H10 C15 0.928 . S
H11 C17 0.930 . S
C12 H9 0.931 . S
C12 C13 1.413 . S
C12 C14 1.360 . S
C13 C12 1.413 . S
C13 C17 1.429 . S
C14 C12 1.360 . S
C14 C15 1.372 . S
C15 H10 0.928 . S
C15 C14 1.372 . S
C15 C16 1.404 . S
C16 C15 1.404 . S
C16 C17 1.391 . S
C17 H11 0.930 . S
C17 C13 1.429 . S
C17 C16 1.391 . S
H18 C21 0.931 . S
H19 C24 0.928 . S
H20 C26 0.930 . S
C21 H18 0.931 . S
C21 C22 1.413 . S
C21 C23 1.360 . S
C22 C21 1.413 . S
C22 C26 1.429 . S
C23 C21 1.360 . S
C23 C24 1.372 . S
C24 H19 0.928 . S
C24 C23 1.372 . S
C24 C25 1.404 . S
C25 C24 1.404 . S
C25 C26 1.391 . S
C26 H20 0.930 . S
C26 C22 1.429 . S
C26 C25 1.391 . S
H27 C30 0.931 . S
H28 C33 0.928 . S
H29 C35 0.930 . S
C30 H27 0.931 . S
C30 C31 1.413 . S
C30 C32 1.360 . S
C31 C30 1.413 . S
C31 C35 1.429 . S
C32 C30 1.360 . S
C32 C33 1.372 . S
C33 H28 0.928 . S
C33 C32 1.372 . S
C33 C34 1.404 . S
C34 C33 1.404 . S
C34 C35 1.391 . S
C35 H29 0.930 . S
C35 C31 1.429 . S
C35 C34 1.391 . S
H36 C39 0.931 . S
H37 C42 0.928 . S
H38 C44 0.930 . S
C39 H36 0.931 . S
C39 C40 1.413 . S
C39 C41 1.360 . S
C40 C39 1.413 . S
C40 C44 1.429 . S
C41 C39 1.360 . S
C41 C42 1.372 . S
C42 H37 0.928 . S
C42 C41 1.372 . S
C42 C43 1.404 . S
C43 C42 1.404 . S
C43 C44 1.391 . S
C44 H38 0.930 . S
C44 C40 1.429 . S
C44 C43 1.391 . S
H45 C48 0.931 . S
H46 C51 0.928 . S
H47 C53 0.930 . S
C48 H45 0.931 . S
C48 C49 1.413 . S
C48 C50 1.360 . S
C49 C48 1.413 . S
C49 C53 1.429 . S
C50 C48 1.360 . S
C50 C51 1.372 . S
C51 H46 0.928 . S
C51 C50 1.372 . S
C51 C52 1.404 . S
C52 C51 1.404 . S
C52 C53 1.391 . S
C53 H47 0.930 . S
C53 C49 1.429 . S
C53 C52 1.391 . S
H54 C57 0.931 . S
H55 C60 0.928 . S
H56 C62 0.930 . S
C57 H54 0.931 . S
C57 C58 1.413 . S
C57 C59 1.360 . S
C58 C57 1.413 . S
C58 C62 1.429 . S
C59 C57 1.360 . S
C59 C60 1.372 . S
C60 H55 0.928 . S
C60 C59 1.372 . S
C60 C61 1.404 . S
C61 C60 1.404 . S
C61 C62 1.391 . S
C62 H56 0.930 . S
C62 C58 1.429 . S
C62 C61 1.391 . S
H63 C66 0.931 . S
H64 C69 0.928 . S
H65 C71 0.930 . S
C66 H63 0.931 . S
C66 C67 1.413 . S
C66 C68 1.360 . S
C67 C66 1.413 . S
C67 C71 1.429 . S
C68 C66 1.360 . S
C68 C69 1.372 . S
C69 H64 0.928 . S
C69 C68 1.372 . S
C69 C70 1.404 . S
C70 C69 1.404 . S
C70 C71 1.391 . S
C71 H65 0.930 . S
C71 C67 1.429 . S
C71 C70 1.391 . S
C72 C74 1.422 . S
C72 C76 1.415 . S
C72 N78 1.369 . S
C73 C74 1.421 . S
C73 C75 1.417 . S
C73 C85 1.422 . S
C74 C72 1.422 . S
C74 C73 1.421 . S
C74 N84 1.359 . S
C75 C73 1.417 . S
C75 C77 1.329 . S
C75 H94 0.930 . S
C76 C72 1.415 . S
C76 C77 1.437 . S
C76 C80 1.413 . S
C77 C75 1.329 . S
C77 C76 1.437 . S
C77 H99 0.929 . S
N78 C72 1.369 . S
N78 C79 1.338 . S
N78 Gd83 2.622 . S
C79 N78 1.338 . S
C79 C81 1.378 . S
C79 H91 0.929 . S
C80 C76 1.413 . S
C80 C81 1.348 . S
C80 H96 0.931 . S
C81 C79 1.378 . S
C81 C80 1.348 . S
C81 H97 0.930 . S
Gd82 N102 2.622 . S
Gd82 N109 2.570 . S
Gd82 O116 2.353 . S
Gd82 O117 2.468 . S
Gd82 O118 2.427 . S
Gd82 O120 2.388 . S
Gd82 O121 2.386 . S
Gd82 O125 2.307 . S
Gd82 C135 2.805 . S
Gd83 N78 2.622 . S
Gd83 N84 2.570 . S
Gd83 O115 2.386 . S
Gd83 O119 2.307 1_655 S
Gd83 O122 2.348 1_655 S
Gd83 O123 2.468 . S
Gd83 O124 2.427 . S
Gd83 O126 2.388 . S
Gd83 C147 2.805 . S
N84 C74 1.359 . S
N84 Gd83 2.570 . S
N84 C86 1.343 . S
C85 C73 1.422 . S
C85 C87 1.321 . S
C85 H93 0.931 . S
C86 N84 1.343 . S
C86 C87 1.390 . S
C86 H88 0.931 . S
C87 C85 1.321 . S
C87 C86 1.390 . S
C87 H89 0.930 . S
H88 C86 0.931 . S
H89 C87 0.930 . S
H90 C113 0.931 . S
H91 C79 0.929 . S
H92 C114 0.930 . S
H93 C85 0.931 . S
H94 C75 0.930 . S
H95 C104 0.929 . S
H96 C80 0.931 . S
H97 C81 0.930 . S
H98 C136 0.930 . S
H99 C77 0.929 . S
H100 C105 0.931 . S
H101 C106 0.930 . S
N102 Gd82 2.622 . S
N102 C103 1.369 . S
N102 C104 1.338 . S
C103 N102 1.369 . S
C103 C107 1.415 . S
C103 C110 1.422 . S
C104 H95 0.929 . S
C104 N102 1.338 . S
C104 C106 1.378 . S
C105 H100 0.931 . S
C105 C106 1.348 . S
C105 C107 1.413 . S
C106 H101 0.930 . S
C106 C104 1.378 . S
C106 C105 1.348 . S
C107 C103 1.415 . S
C107 C105 1.413 . S
C107 C137 1.437 . S
H108 C137 0.929 . S
N109 Gd82 2.570 . S
N109 C110 1.359 . S
N109 C113 1.343 . S
C110 C103 1.422 . S
C110 N109 1.359 . S
C110 C112 1.421 . S
C111 C112 1.422 . S
C111 C114 1.321 . S
C111 H138 0.931 . S
C112 C110 1.421 . S
C112 C111 1.422 . S
C112 C136 1.417 . S
C113 H90 0.931 . S
C113 N109 1.343 . S
C113 C114 1.390 . S
C114 H92 0.930 . S
C114 C111 1.321 . S
C114 C113 1.390 . S
O115 Gd83 2.386 . S
O115 C127 1.265 . S
O116 Gd82 2.353 . S
O116 C127 1.242 1_455 S
O117 Gd82 2.468 . S
O117 C135 1.263 . S
O118 Gd82 2.427 . S
O118 C135 1.252 . S
O119 Gd83 2.307 1_455 S
O119 C128 1.261 . S
O120 Gd82 2.388 . S
O120 C128 1.252 . S
O121 Gd82 2.386 . S
O121 C139 1.265 . S
O122 Gd83 2.348 1_455 S
O122 C139 1.249 . S
O123 Gd83 2.468 . S
O123 C147 1.263 . S
O124 Gd83 2.427 . S
O124 C147 1.252 . S
O125 Gd82 2.307 . S
O125 C140 1.262 1_455 S
O126 Gd83 2.388 . S
O126 C140 1.252 . S
C127 O115 1.265 . S
C127 O116 1.242 1_655 S
C128 O119 1.261 . S
C128 O120 1.252 . S
C129 C132 1.394 . S
C129 C134 1.370 . S
C129 C135 1.500 . S
C130 C133 1.383 . S
C130 C134 1.395 . S
C131 C132 1.396 . S
C131 C133 1.365 . S
C131 H148 0.929 . S
C132 C129 1.394 . S
C132 C131 1.396 . S
C132 H149 0.930 . S
C133 C130 1.383 . S
C133 C131 1.365 . S
C133 H150 0.931 . S
C134 C129 1.370 . S
C134 C130 1.395 . S
C134 H151 0.930 . S
C135 Gd82 2.805 . S
C135 O117 1.263 . S
C135 O118 1.252 . S
C135 C129 1.500 . S
C136 H98 0.930 . S
C136 C112 1.417 . S
C136 C137 1.329 . S
C137 C107 1.437 . S
C137 H108 0.929 . S
C137 C136 1.329 . S
H138 C111 0.931 . S
C139 O121 1.265 . S
C139 O122 1.249 . S
C140 O125 1.262 1_655 S
C140 O126 1.252 . S
C141 C144 1.394 . S
C141 C146 1.370 . S
C141 C147 1.500 . S
C142 C145 1.383 . S
C142 C146 1.395 . S
C143 C144 1.396 . S
C143 C145 1.365 . S
C143 H152 0.929 . S
C144 C141 1.394 . S
C144 C143 1.396 . S
C144 H153 0.930 . S
C145 C142 1.383 . S
C145 C143 1.365 . S
C145 H154 0.931 . S
C146 C141 1.370 . S
C146 C142 1.395 . S
C146 H155 0.930 . S
C147 Gd83 2.805 . S
C147 O123 1.263 . S
C147 O124 1.252 . S
C147 C141 1.500 . S
H148 C131 0.929 . S
H149 C132 0.930 . S
H150 C133 0.931 . S
H151 C134 0.930 . S
H152 C143 0.929 . S
H153 C144 0.930 . S
H154 C145 0.931 . S
H155 C146 0.930 . S
C156 C158 1.422 . S
C156 C160 1.415 . S
C156 N162 1.369 . S
C157 C158 1.421 . S
C157 C159 1.417 . S
C157 C169 1.422 . S
C158 C156 1.422 . S
C158 C157 1.421 . S
C158 N168 1.359 . S
C159 C157 1.417 . S
C159 C161 1.329 . S
C159 H178 0.930 . S
C160 C156 1.415 . S
C160 C161 1.437 . S
C160 C164 1.413 . S
C161 C159 1.329 . S
C161 C160 1.437 . S
C161 H183 0.929 . S
N162 C156 1.369 . S
N162 C163 1.338 . S
N162 Gd167 2.622 . S
C163 N162 1.338 . S
C163 C165 1.378 . S
C163 H175 0.929 . S
C164 C160 1.413 . S
C164 C165 1.348 . S
C164 H180 0.931 . S
C165 C163 1.378 . S
C165 C164 1.348 . S
C165 H181 0.930 . S
Gd166 N186 2.622 . S
Gd166 N193 2.570 . S
Gd166 O200 2.353 . S
Gd166 O201 2.468 . S
Gd166 O202 2.427 . S
Gd166 O204 2.388 . S
Gd166 O205 2.386 . S
Gd166 O209 2.307 . S
Gd166 C219 2.805 . S
Gd167 N162 2.622 . S
Gd167 N168 2.570 . S
Gd167 O199 2.386 . S
Gd167 O203 2.307 . S
Gd167 O206 2.353 . S
Gd167 O207 2.468 . S
Gd167 O208 2.427 . S
Gd167 O210 2.388 . S
Gd167 C231 2.805 . S
N168 C158 1.359 . S
N168 Gd167 2.570 . S
N168 C170 1.343 . S
C169 C157 1.422 . S
C169 C171 1.321 . S
C169 H177 0.931 . S
C170 N168 1.343 . S
C170 C171 1.390 . S
C170 H172 0.931 . S
C171 C169 1.321 . S
C171 C170 1.390 . S
C171 H173 0.930 . S
H172 C170 0.931 . S
H173 C171 0.930 . S
H174 C197 0.931 . S
H175 C163 0.929 . S
H176 C198 0.930 . S
H177 C169 0.931 . S
H178 C159 0.930 . S
H179 C188 0.929 . S
H180 C164 0.931 . S
H181 C165 0.930 . S
H182 C220 0.930 . S
H183 C161 0.929 . S
H184 C189 0.931 . S
H185 C190 0.930 . S
N186 Gd166 2.622 . S
N186 C187 1.369 . S
N186 C188 1.338 . S
C187 N186 1.369 . S
C187 C191 1.415 . S
C187 C194 1.422 . S
C188 H179 0.929 . S
C188 N186 1.338 . S
C188 C190 1.378 . S
C189 H184 0.931 . S
C189 C190 1.348 . S
C189 C191 1.413 . S
C190 H185 0.930 . S
C190 C188 1.378 . S
C190 C189 1.348 . S
C191 C187 1.415 . S
C191 C189 1.413 . S
C191 C221 1.437 . S
H192 C221 0.929 . S
N193 Gd166 2.570 . S
N193 C194 1.359 . S
N193 C197 1.343 . S
C194 C187 1.422 . S
C194 N193 1.359 . S
C194 C196 1.421 . S
C195 C196 1.422 . S
C195 C198 1.321 . S
C195 H222 0.931 . S
C196 C194 1.421 . S
C196 C195 1.422 . S
C196 C220 1.417 . S
C197 H174 0.931 . S
C197 N193 1.343 . S
C197 C198 1.390 . S
C198 H176 0.930 . S
C198 C195 1.321 . S
C198 C197 1.390 . S
O199 Gd167 2.386 . S
O199 C211 1.265 . S
O200 Gd166 2.353 . S
O200 C211 1.242 . S
O201 Gd166 2.468 . S
O201 C219 1.263 . S
O202 Gd166 2.427 . S
O202 C219 1.252 . S
O203 Gd167 2.307 . S
O203 C212 1.261 . S
O204 Gd166 2.388 . S
O204 C212 1.252 . S
O205 Gd166 2.386 . S
O205 C223 1.265 . S
O206 Gd167 2.353 . S
O206 C223 1.242 . S
O207 Gd167 2.468 . S
O207 C231 1.263 . S
O208 Gd167 2.427 . S
O208 C231 1.252 . S
O209 Gd166 2.307 . S
O209 C224 1.261 . S
O210 Gd167 2.388 . S
O210 C224 1.252 . S
C211 O199 1.265 . S
C211 O200 1.242 . S
C212 O203 1.261 . S
C212 O204 1.252 . S
C213 C216 1.394 . S
C213 C218 1.370 . S
C213 C219 1.500 . S
C214 C217 1.383 . S
C214 C218 1.395 . S
C215 C216 1.396 . S
C215 C217 1.365 . S
C215 H232 0.929 . S
C216 C213 1.394 . S
C216 C215 1.396 . S
C216 H233 0.930 . S
C217 C214 1.383 . S
C217 C215 1.365 . S
C217 H234 0.931 . S
C218 C213 1.370 . S
C218 C214 1.395 . S
C218 H235 0.930 . S
C219 Gd166 2.805 . S
C219 O201 1.263 . S
C219 O202 1.252 . S
C219 C213 1.500 . S
C220 H182 0.930 . S
C220 C196 1.417 . S
C220 C221 1.329 . S
C221 C191 1.437 . S
C221 H192 0.929 . S
C221 C220 1.329 . S
H222 C195 0.931 . S
C223 O205 1.265 . S
C223 O206 1.242 . S
C224 O209 1.261 . S
C224 O210 1.252 . S
C225 C228 1.394 . S
C225 C230 1.370 . S
C225 C231 1.500 . S
C226 C229 1.383 . S
C226 C230 1.395 . S
C227 C228 1.396 . S
C227 C229 1.365 . S
C227 H236 0.929 . S
C228 C225 1.394 . S
C228 C227 1.396 . S
C228 H237 0.930 . S
C229 C226 1.383 . S
C229 C227 1.365 . S
C229 H238 0.931 . S
C230 C225 1.370 . S
C230 C226 1.395 . S
C230 H239 0.930 . S
C231 Gd167 2.805 . S
C231 O207 1.263 . S
C231 O208 1.252 . S
C231 C225 1.500 . S
H232 C215 0.929 . S
H233 C216 0.930 . S
H234 C217 0.931 . S
H235 C218 0.930 . S
H236 C227 0.929 . S
H237 C228 0.930 . S
H238 C229 0.931 . S
H239 C230 0.930 . S
C240 C242 1.422 . S
C240 C244 1.415 . S
C240 N246 1.369 . S
C241 C242 1.421 . S
C241 C243 1.417 . S
C241 C253 1.422 . S
C242 C240 1.422 . S
C242 C241 1.421 . S
C242 N252 1.359 . S
C243 C241 1.417 . S
C243 C245 1.329 . S
C243 H262 0.930 . S
C244 C240 1.415 . S
C244 C245 1.437 . S
C244 C248 1.413 . S
C245 C243 1.329 . S
C245 C244 1.437 . S
C245 H267 0.929 . S
N246 C240 1.369 . S
N246 C247 1.338 . S
N246 Gd251 2.622 . S
C247 N246 1.338 . S
C247 C249 1.378 . S
C247 H259 0.929 . S
C248 C244 1.413 . S
C248 C249 1.348 . S
C248 H264 0.931 . S
C249 C247 1.378 . S
C249 C248 1.348 . S
C249 H265 0.930 . S
Gd250 N270 2.622 . S
Gd250 N277 2.570 . S
Gd250 O284 2.353 . S
Gd250 O285 2.468 . S
Gd250 O286 2.427 . S
Gd250 O288 2.388 . S
Gd250 O289 2.386 . S
Gd250 O293 2.307 . S
Gd250 C303 2.805 . S
Gd251 N246 2.622 . S
Gd251 N252 2.570 . S
Gd251 O283 2.386 . S
Gd251 O287 2.307 1_655 S
Gd251 O290 2.353 1_655 S
Gd251 O291 2.468 . S
Gd251 O292 2.427 . S
Gd251 O294 2.388 . S
Gd251 C315 2.805 . S
N252 C242 1.359 . S
N252 Gd251 2.570 . S
N252 C254 1.343 . S
C253 C241 1.422 . S
C253 C255 1.321 . S
C253 H261 0.931 . S
C254 N252 1.343 . S
C254 C255 1.390 . S
C254 H256 0.931 . S
C255 C253 1.321 . S
C255 C254 1.390 . S
C255 H257 0.930 . S
H256 C254 0.931 . S
H257 C255 0.930 . S
H258 C281 0.931 . S
H259 C247 0.929 . S
H260 C282 0.930 . S
H261 C253 0.931 . S
H262 C243 0.930 . S
H263 C272 0.929 . S
H264 C248 0.931 . S
H265 C249 0.930 . S
H266 C304 0.930 . S
H267 C245 0.929 . S
H268 C273 0.931 . S
H269 C274 0.930 . S
N270 Gd250 2.622 . S
N270 C271 1.369 . S
N270 C272 1.338 . S
C271 N270 1.369 . S
C271 C275 1.415 . S
C271 C278 1.422 . S
C272 H263 0.929 . S
C272 N270 1.338 . S
C272 C274 1.378 . S
C273 H268 0.931 . S
C273 C274 1.348 . S
C273 C275 1.413 . S
C274 H269 0.930 . S
C274 C272 1.378 . S
C274 C273 1.348 . S
C275 C271 1.415 . S
C275 C273 1.413 . S
C275 C305 1.437 . S
H276 C305 0.929 . S
N277 Gd250 2.570 . S
N277 C278 1.359 . S
N277 C281 1.343 . S
C278 C271 1.422 . S
C278 N277 1.359 . S
C278 C280 1.421 . S
C279 C280 1.422 . S
C279 C282 1.321 . S
C279 H306 0.931 . S
C280 C278 1.421 . S
C280 C279 1.422 . S
C280 C304 1.417 . S
C281 H258 0.931 . S
C281 N277 1.343 . S
C281 C282 1.390 . S
C282 H260 0.930 . S
C282 C279 1.321 . S
C282 C281 1.390 . S
O283 Gd251 2.386 . S
O283 C295 1.265 . S
O284 Gd250 2.353 . S
O284 C295 1.242 1_455 S
O285 Gd250 2.468 . S
O285 C303 1.263 . S
O286 Gd250 2.427 . S
O286 C303 1.252 . S
O287 Gd251 2.307 1_455 S
O287 C296 1.261 . S
O288 Gd250 2.388 . S
O288 C296 1.252 . S
O289 Gd250 2.386 . S
O289 C307 1.265 . S
O290 Gd251 2.353 1_455 S
O290 C307 1.242 . S
O291 Gd251 2.468 . S
O291 C315 1.263 . S
O292 Gd251 2.427 . S
O292 C315 1.252 . S
O293 Gd250 2.307 . S
O293 C308 1.261 1_455 S
O294 Gd251 2.388 . S
O294 C308 1.252 . S
C295 O283 1.265 . S
C295 O284 1.242 1_655 S
C296 O287 1.261 . S
C296 O288 1.252 . S
C297 C300 1.394 . S
C297 C302 1.370 . S
C297 C303 1.500 . S
C298 C301 1.383 . S
C298 C302 1.395 . S
C299 C300 1.396 . S
C299 C301 1.365 . S
C299 H316 0.929 . S
C300 C297 1.394 . S
C300 C299 1.396 . S
C300 H317 0.930 . S
C301 C298 1.383 . S
C301 C299 1.365 . S
C301 H318 0.931 . S
C302 C297 1.370 . S
C302 C298 1.395 . S
C302 H319 0.930 . S
C303 Gd250 2.805 . S
C303 O285 1.263 . S
C303 O286 1.252 . S
C303 C297 1.500 . S
C304 H266 0.930 . S
C304 C280 1.417 . S
C304 C305 1.329 . S
C305 C275 1.437 . S
C305 H276 0.929 . S
C305 C304 1.329 . S
H306 C279 0.931 . S
C307 O289 1.265 . S
C307 O290 1.242 . S
C308 O293 1.261 1_655 S
C308 O294 1.252 . S
C309 C312 1.394 . S
C309 C314 1.370 . S
C309 C315 1.500 . S
C310 C313 1.383 . S
C310 C314 1.395 . S
C311 C312 1.396 . S
C311 C313 1.365 . S
C311 H320 0.929 . S
C312 C309 1.394 . S
C312 C311 1.396 . S
C312 H321 0.930 . S
C313 C310 1.383 . S
C313 C311 1.365 . S
C313 H322 0.931 . S
C314 C309 1.370 . S
C314 C310 1.395 . S
C314 H323 0.930 . S
C315 Gd251 2.805 . S
C315 O291 1.263 . S
C315 O292 1.252 . S
C315 C309 1.500 . S
H316 C299 0.929 . S
H317 C300 0.930 . S
H318 C301 0.931 . S
H319 C302 0.930 . S
H320 C311 0.929 . S
H321 C312 0.930 . S
H322 C313 0.931 . S
H323 C314 0.930 . S
C324 C326 1.422 . S
C324 C328 1.415 . S
C324 N330 1.369 . S
C325 C326 1.421 . S
C325 C327 1.417 . S
C325 C337 1.422 . S
C326 C324 1.422 . S
C326 C325 1.421 . S
C326 N336 1.359 . S
C327 C325 1.417 . S
C327 C329 1.329 . S
C327 H346 0.930 . S
C328 C324 1.415 . S
C328 C329 1.437 . S
C328 C332 1.413 . S
C329 C327 1.329 . S
C329 C328 1.437 . S
C329 H351 0.929 . S
N330 C324 1.369 . S
N330 C331 1.338 . S
N330 Gd335 2.622 . S
C331 N330 1.338 . S
C331 C333 1.378 . S
C331 H343 0.929 . S
C332 C328 1.413 . S
C332 C333 1.348 . S
C332 H348 0.931 . S
C333 C331 1.378 . S
C333 C332 1.348 . S
C333 H349 0.930 . S
Gd334 N354 2.622 . S
Gd334 N361 2.570 . S
Gd334 O368 2.353 . S
Gd334 O369 2.468 . S
Gd334 O370 2.427 . S
Gd334 O372 2.388 . S
Gd334 O373 2.386 . S
Gd334 O377 2.307 . S
Gd334 C387 2.805 . S
Gd335 N330 2.622 . S
Gd335 N336 2.570 . S
Gd335 O367 2.386 . S
Gd335 O371 2.307 . S
Gd335 O374 2.353 . S
Gd335 O375 2.468 . S
Gd335 O376 2.427 . S
Gd335 O378 2.388 . S
Gd335 C399 2.805 . S
N336 C326 1.359 . S
N336 Gd335 2.570 . S
N336 C338 1.343 . S
C337 C325 1.422 . S
C337 C339 1.321 . S
C337 H345 0.931 . S
C338 N336 1.343 . S
C338 C339 1.390 . S
C338 H340 0.931 . S
C339 C337 1.321 . S
C339 C338 1.390 . S
C339 H341 0.930 . S
H340 C338 0.931 . S
H341 C339 0.930 . S
H342 C365 0.931 . S
H343 C331 0.929 . S
H344 C366 0.930 . S
H345 C337 0.931 . S
H346 C327 0.930 . S
H347 C356 0.929 . S
H348 C332 0.931 . S
H349 C333 0.930 . S
H350 C388 0.930 . S
H351 C329 0.929 . S
H352 C357 0.931 . S
H353 C358 0.930 . S
N354 Gd334 2.622 . S
N354 C355 1.369 . S
N354 C356 1.338 . S
C355 N354 1.369 . S
C355 C359 1.415 . S
C355 C362 1.422 . S
C356 H347 0.929 . S
C356 N354 1.338 . S
C356 C358 1.378 . S
C357 H352 0.931 . S
C357 C358 1.348 . S
C357 C359 1.413 . S
C358 H353 0.930 . S
C358 C356 1.378 . S
C358 C357 1.348 . S
C359 C355 1.415 . S
C359 C357 1.413 . S
C359 C389 1.437 . S
H360 C389 0.929 . S
N361 Gd334 2.570 . S
N361 C362 1.359 . S
N361 C365 1.343 . S
C362 C355 1.422 . S
C362 N361 1.359 . S
C362 C364 1.421 . S
C363 C364 1.422 . S
C363 C366 1.321 . S
C363 H390 0.931 . S
C364 C362 1.421 . S
C364 C363 1.422 . S
C364 C388 1.417 . S
C365 H342 0.931 . S
C365 N361 1.343 . S
C365 C366 1.390 . S
C366 H344 0.930 . S
C366 C363 1.321 . S
C366 C365 1.390 . S
O367 Gd335 2.386 . S
O367 C379 1.265 . S
O368 Gd334 2.353 . S
O368 C379 1.242 . S
O369 Gd334 2.468 . S
O369 C387 1.263 . S
O370 Gd334 2.427 . S
O370 C387 1.252 . S
O371 Gd335 2.307 . S
O371 C380 1.261 . S
O372 Gd334 2.388 . S
O372 C380 1.252 . S
O373 Gd334 2.386 . S
O373 C391 1.265 . S
O374 Gd335 2.353 . S
O374 C391 1.242 . S
O375 Gd335 2.468 . S
O375 C399 1.263 . S
O376 Gd335 2.427 . S
O376 C399 1.252 . S
O377 Gd334 2.307 . S
O377 C392 1.261 . S
O378 Gd335 2.388 . S
O378 C392 1.252 . S
C379 O367 1.265 . S
C379 O368 1.242 . S
C380 O371 1.261 . S
C380 O372 1.252 . S
C381 C384 1.394 . S
C381 C386 1.370 . S
C381 C387 1.500 . S
C382 C385 1.383 . S
C382 C386 1.395 . S
C383 C384 1.396 . S
C383 C385 1.365 . S
C383 H400 0.929 . S
C384 C381 1.394 . S
C384 C383 1.396 . S
C384 H401 0.930 . S
C385 C382 1.383 . S
C385 C383 1.365 . S
C385 H402 0.931 . S
C386 C381 1.370 . S
C386 C382 1.395 . S
C386 H403 0.930 . S
C387 Gd334 2.805 . S
C387 O369 1.263 . S
C387 O370 1.252 . S
C387 C381 1.500 . S
C388 H350 0.930 . S
C388 C364 1.417 . S
C388 C389 1.329 . S
C389 C359 1.437 . S
C389 H360 0.929 . S
C389 C388 1.329 . S
H390 C363 0.931 . S
C391 O373 1.265 . S
C391 O374 1.242 . S
C392 O377 1.261 . S
C392 O378 1.252 . S
C393 C396 1.394 . S
C393 C398 1.370 . S
C393 C399 1.500 . S
C394 C397 1.383 . S
C394 C398 1.395 . S
C395 C396 1.396 . S
C395 C397 1.365 . S
C395 H404 0.929 . S
C396 C393 1.394 . S
C396 C395 1.396 . S
C396 H405 0.930 . S
C397 C394 1.383 . S
C397 C395 1.365 . S
C397 H406 0.931 . S
C398 C393 1.370 . S
C398 C394 1.395 . S
C398 H407 0.930 . S
C399 Gd335 2.805 . S
C399 O375 1.263 . S
C399 O376 1.252 . S
C399 C393 1.500 . S
H400 C383 0.929 . S
H401 C384 0.930 . S
H402 C385 0.931 . S
H403 C386 0.930 . S
H404 C395 0.929 . S
H405 C396 0.930 . S
H406 C397 0.931 . S
H407 C398 0.930 . S
H408 C426 0.951 . S
H409 C428 0.951 . S
H410 C430 0.950 . S
H411 C431 0.950 . S
H412 C433 0.951 1_565 S
H413 C436 0.950 . S
H414 C437 0.950 . S
H415 C439 0.950 . S
H416 C440 0.950 . S
H417 C441 0.951 . S
H418 C443 0.951 . S
H419 C445 0.950 . S
H420 C446 0.950 . S
H421 C448 0.950 . S
H422 C451 0.950 . S
H423 C452 0.950 . S
H424 C454 0.950 . S
H425 C455 0.950 . S
C426 H408 0.951 . S
C426 C427 1.366 . S
C426 C428 1.388 . S
C427 C426 1.366 . S
C427 C431 1.385 . S
C428 H409 0.951 . S
C428 C426 1.388 . S
C428 C429 1.366 . S
C429 C428 1.366 . S
C429 C430 1.414 . S
C429 C432 1.499 . S
C430 H410 0.950 . S
C430 C429 1.414 . S
C430 C431 1.374 . S
C431 H411 0.950 . S
C431 C427 1.385 . S
C431 C430 1.374 . S
C432 C429 1.499 . S
C432 C433 1.373 1_565 S
C432 C434 1.389 . S
C433 H412 0.951 1_545 S
C433 C432 1.373 1_545 S
C433 C449 1.377 . S
C434 C432 1.389 . S
C434 C435 1.524 . S
C434 C448 1.377 1_565 S
C435 C434 1.524 . S
C435 C436 1.397 . S
C435 C440 1.363 . S
C436 H413 0.950 . S
C436 C435 1.397 . S
C436 C437 1.334 . S
C437 H414 0.950 . S
C437 C436 1.334 . S
C437 C438 1.287 . S
C438 C437 1.287 . S
C438 C439 1.524 . S
C438 H457 0.913 . S
C439 H415 0.950 . S
C439 C438 1.524 . S
C439 C440 1.415 . S
C440 H416 0.950 . S
C440 C435 1.363 . S
C440 C439 1.415 . S
C441 H417 0.951 . S
C441 C442 1.366 . S
C441 C443 1.388 . S
C442 C441 1.366 . S
C442 C446 1.385 . S
C443 H418 0.951 . S
C443 C441 1.388 . S
C443 C444 1.366 . S
C444 C443 1.366 . S
C444 C445 1.414 . S
C444 C447 1.499 . S
C445 H419 0.950 . S
C445 C444 1.414 . S
C445 C446 1.374 . S
C446 H420 0.950 . S
C446 C442 1.385 . S
C446 C445 1.374 . S
C447 C444 1.499 . S
C447 C448 1.373 . S
C447 C449 1.389 . S
C448 H421 0.950 . S
C448 C434 1.377 1_545 S
C448 C447 1.373 . S
C449 C433 1.377 . S
C449 C447 1.389 . S
C449 C450 1.524 . S
C450 C449 1.524 . S
C450 C451 1.397 . S
C450 C455 1.363 . S
C451 H422 0.950 . S
C451 C450 1.397 . S
C451 C452 1.334 1_455 S
C452 H423 0.950 . S
C452 C451 1.334 1_655 S
C452 C453 1.287 . S
C453 C452 1.287 . S
C453 C454 1.524 1_655 S
C453 H456 0.999 . S
C454 H424 0.950 . S
C454 C453 1.524 1_455 S
C454 C455 1.415 . S
C455 H425 0.950 . S
C455 C450 1.363 . S
C455 C454 1.415 . S
H456 C453 0.999 . S
H457 C438 0.913 . S
H458 C476 0.951 . S
H459 C478 0.951 . S
H460 C480 0.950 . S
H461 C481 0.950 . S
H462 C483 0.950 . S
H463 C486 0.950 . S
H464 C487 0.950 . S
H465 C489 0.950 . S
H466 C490 0.950 . S
H467 C491 0.951 . S
H468 C493 0.951 . S
H469 C495 0.950 . S
H470 C496 0.950 . S
H471 C498 0.950 . S
H472 C501 0.950 . S
H473 C502 0.950 . S
H474 C504 0.950 . S
H475 C505 0.950 . S
C476 H458 0.951 . S
C476 C477 1.366 . S
C476 C478 1.388 . S
C477 C476 1.366 . S
C477 C481 1.385 . S
C478 H459 0.951 . S
C478 C476 1.388 . S
C478 C479 1.366 . S
C479 C478 1.366 . S
C479 C480 1.414 . S
C479 C482 1.499 . S
C480 H460 0.950 . S
C480 C479 1.414 . S
C480 C481 1.374 . S
C481 H461 0.950 . S
C481 C477 1.385 . S
C481 C480 1.374 . S
C482 C479 1.499 . S
C482 C483 1.373 . S
C482 C484 1.389 . S
C483 H462 0.950 . S
C483 C482 1.373 . S
C483 C499 1.377 . S
C484 C482 1.389 . S
C484 C485 1.524 . S
C484 C498 1.377 . S
C485 C484 1.524 . S
C485 C486 1.397 . S
C485 C490 1.363 . S
C486 H463 0.950 . S
C486 C485 1.397 . S
C486 C487 1.334 . S
C487 H464 0.950 . S
C487 C486 1.334 . S
C487 C488 1.287 . S
C488 C487 1.287 . S
C488 C489 1.524 . S
C488 H507 0.913 . S
C489 H465 0.950 . S
C489 C488 1.524 . S
C489 C490 1.415 . S
C490 H466 0.950 . S
C490 C485 1.363 . S
C490 C489 1.415 . S
C491 H467 0.951 . S
C491 C492 1.366 . S
C491 C493 1.388 . S
C492 C491 1.366 . S
C492 C496 1.385 . S
C493 H468 0.951 . S
C493 C491 1.388 . S
C493 C494 1.366 . S
C494 C493 1.366 . S
C494 C495 1.414 . S
C494 C497 1.499 . S
C495 H469 0.950 . S
C495 C494 1.414 . S
C495 C496 1.374 . S
C496 H470 0.950 . S
C496 C492 1.385 . S
C496 C495 1.374 . S
C497 C494 1.499 . S
C497 C498 1.373 . S
C497 C499 1.389 . S
C498 H471 0.950 . S
C498 C484 1.377 . S
C498 C497 1.373 . S
C499 C483 1.377 . S
C499 C497 1.389 . S
C499 C500 1.524 . S
C500 C499 1.524 . S
C500 C501 1.397 . S
C500 C505 1.363 . S
C501 H472 0.950 . S
C501 C500 1.397 . S
C501 C502 1.334 . S
C502 H473 0.950 . S
C502 C501 1.334 . S
C502 C503 1.287 . S
C503 C502 1.287 . S
C503 C504 1.524 . S
C503 H506 0.999 . S
C504 H474 0.950 . S
C504 C503 1.524 . S
C504 C505 1.415 . S
C505 H475 0.950 . S
C505 C500 1.363 . S
C505 C504 1.415 . S
H506 C503 0.999 . S
H507 C488 0.913 . S
H508 C526 0.951 . S
H509 C528 0.951 . S
H510 C530 0.950 . S
H511 C531 0.950 . S
H512 C533 0.950 . S
H513 C536 0.950 . S
H514 C537 0.950 . S
H515 C539 0.950 . S
H516 C540 0.950 . S
H517 C541 0.951 . S
H518 C543 0.951 . S
H519 C545 0.950 . S
H520 C546 0.950 . S
H521 C548 0.950 . S
H522 C551 0.950 . S
H523 C552 0.950 . S
H524 C554 0.950 . S
H525 C555 0.950 . S
C526 H508 0.951 . S
C526 C527 1.366 . S
C526 C528 1.388 . S
C527 C526 1.366 . S
C527 C531 1.385 . S
C528 H509 0.951 . S
C528 C526 1.388 . S
C528 C529 1.366 . S
C529 C528 1.366 . S
C529 C530 1.414 . S
C529 C532 1.499 . S
C530 H510 0.950 . S
C530 C529 1.414 . S
C530 C531 1.374 . S
C531 H511 0.950 . S
C531 C527 1.385 . S
C531 C530 1.374 . S
C532 C529 1.499 . S
C532 C533 1.373 . S
C532 C534 1.389 . S
C533 H512 0.950 . S
C533 C532 1.373 . S
C533 C549 1.377 . S
C534 C532 1.389 . S
C534 C535 1.524 . S
C534 C548 1.377 . S
C535 C534 1.524 . S
C535 C536 1.397 . S
C535 C540 1.363 . S
C536 H513 0.950 . S
C536 C535 1.397 . S
C536 C537 1.334 . S
C537 H514 0.950 . S
C537 C536 1.334 . S
C537 C538 1.287 . S
C538 C537 1.287 . S
C538 C539 1.524 . S
C538 H557 0.913 . S
C539 H515 0.950 . S
C539 C538 1.524 . S
C539 C540 1.415 . S
C540 H516 0.950 . S
C540 C535 1.363 . S
C540 C539 1.415 . S
C541 H517 0.951 . S
C541 C542 1.366 . S
C541 C543 1.388 . S
C542 C541 1.366 . S
C542 C546 1.385 . S
C543 H518 0.951 . S
C543 C541 1.388 . S
C543 C544 1.366 . S
C544 C543 1.366 . S
C544 C545 1.414 . S
C544 C547 1.499 . S
C545 H519 0.950 . S
C545 C544 1.414 . S
C545 C546 1.374 . S
C546 H520 0.950 . S
C546 C542 1.385 . S
C546 C545 1.374 . S
C547 C544 1.499 . S
C547 C548 1.373 . S
C547 C549 1.389 . S
C548 H521 0.950 . S
C548 C534 1.377 . S
C548 C547 1.373 . S
C549 C533 1.377 . S
C549 C547 1.389 . S
C549 C550 1.524 . S
C550 C549 1.524 . S
C550 C551 1.397 . S
C550 C555 1.363 . S
C551 H522 0.950 . S
C551 C550 1.397 . S
C551 C552 1.334 . S
C552 H523 0.950 . S
C552 C551 1.334 . S
C552 C553 1.287 . S
C553 C552 1.287 . S
C553 C554 1.524 . S
C553 H556 0.999 . S
C554 H524 0.950 . S
C554 C553 1.524 . S
C554 C555 1.415 . S
C555 H525 0.950 . S
C555 C550 1.363 . S
C555 C554 1.415 . S
H556 C553 0.999 . S
H557 C538 0.913 . S
H558 C576 0.951 . S
H559 C578 0.951 . S
H560 C580 0.950 . S
H561 C581 0.950 . S
H562 C583 0.950 . S
H563 C586 0.950 1_565 S
H564 C587 0.950 . S
H565 C589 0.950 . S
H566 C590 0.950 . S
H567 C591 0.951 . S
H568 C593 0.951 . S
H569 C595 0.950 . S
H570 C596 0.950 . S
H571 C598 0.950 . S
H572 C601 0.950 . S
H573 C602 0.950 1_545 S
H574 C604 0.950 . S
H575 C605 0.950 . S
C576 H558 0.951 . S
C576 C577 1.366 . S
C576 C578 1.388 . S
C577 C576 1.366 . S
C577 C581 1.385 . S
C578 H559 0.951 . S
C578 C576 1.388 . S
C578 C579 1.366 . S
C579 C578 1.366 . S
C579 C580 1.414 . S
C579 C582 1.499 . S
C580 H560 0.950 . S
C580 C579 1.414 . S
C580 C581 1.374 . S
C581 H561 0.950 . S
C581 C577 1.385 . S
C581 C580 1.374 . S
C582 C579 1.499 . S
C582 C583 1.373 . S
C582 C584 1.389 1_565 S
C583 H562 0.950 . S
C583 C582 1.373 . S
C583 C599 1.406 . S
C584 C582 1.389 1_545 S
C584 C585 1.524 . S
C584 C598 1.377 . S
C585 C584 1.524 . S
C585 C586 1.397 . S
C585 C590 1.363 . S
C586 H563 0.950 1_545 S
C586 C585 1.397 . S
C586 C587 1.334 . S
C587 H564 0.950 . S
C587 C586 1.334 . S
C587 C588 1.287 . S
C588 C587 1.287 . S
C588 C589 1.524 . S
C588 H607 0.913 . S
C589 H565 0.950 . S
C589 C588 1.524 . S
C589 C590 1.415 . S
C590 H566 0.950 . S
C590 C585 1.363 . S
C590 C589 1.415 . S
C591 H567 0.951 . S
C591 C592 1.366 . S
C591 C593 1.388 . S
C592 C591 1.366 . S
C592 C596 1.385 . S
C593 H568 0.951 . S
C593 C591 1.388 . S
C593 C594 1.366 . S
C594 C593 1.366 . S
C594 C595 1.414 . S
C594 C597 1.499 . S
C595 H569 0.950 . S
C595 C594 1.414 . S
C595 C596 1.374 . S
C596 H570 0.950 . S
C596 C592 1.385 . S
C596 C595 1.374 . S
C597 C594 1.499 . S
C597 C598 1.373 . S
C597 C599 1.351 1_545 S
C598 H571 0.950 . S
C598 C584 1.377 . S
C598 C597 1.373 . S
C599 C583 1.406 . S
C599 C597 1.351 1_565 S
C599 C600 1.537 . S
C600 C599 1.537 . S
C600 C601 1.397 1_565 S
C600 C605 1.363 . S
C601 H572 0.950 . S
C601 C600 1.397 1_545 S
C601 C602 1.334 1_545 S
C602 H573 0.950 1_565 S
C602 C601 1.334 1_565 S
C602 C603 1.287 . S
C603 C602 1.287 . S
C603 C604 1.524 . S
C603 H606 0.999 . S
C604 H574 0.950 . S
C604 C603 1.524 . S
C604 C605 1.415 . S
C605 H575 0.950 . S
C605 C600 1.363 . S
C605 C604 1.415 . S
H606 C603 0.999 . S
H607 C588 0.913 . S
H608 C626 0.951 . S
H609 C628 0.951 . S
H610 C630 0.950 . S
H611 C631 0.950 . S
H612 C633 0.950 . S
H613 C636 0.986 . S
H614 C637 0.950 1_545 S
H615 C639 0.950 . S
H616 C640 0.950 . S
H617 C641 0.951 . S
H618 C643 0.951 . S
H619 C645 0.950 . S
H620 C646 0.950 . S
H621 C648 0.950 . S
H622 C651 0.950 . S
H623 C652 0.950 . S
H624 C654 0.950 . S
H625 C655 0.950 . S
C626 H608 0.951 . S
C626 C627 1.366 . S
C626 C628 1.388 . S
C627 C626 1.366 . S
C627 C631 1.385 . S
C628 H609 0.951 . S
C628 C626 1.388 . S
C628 C629 1.366 . S
C629 C628 1.366 . S
C629 C630 1.414 . S
C629 C632 1.499 . S
C630 H610 0.950 . S
C630 C629 1.414 . S
C630 C631 1.374 . S
C631 H611 0.950 . S
C631 C627 1.385 . S
C631 C630 1.374 . S
C632 C629 1.499 . S
C632 C633 1.373 . S
C632 C634 1.389 1_545 S
C633 H612 0.950 . S
C633 C632 1.373 . S
C633 C649 1.375 . S
C634 C632 1.389 1_565 S
C634 C635 1.524 . S
C634 C648 1.377 . S
C635 C634 1.524 . S
C635 C636 1.370 1_565 S
C635 C640 1.363 . S
C636 H613 0.986 . S
C636 C635 1.370 1_545 S
C636 C637 1.327 1_545 S
C637 H614 0.950 1_565 S
C637 C636 1.327 1_565 S
C637 C638 1.287 . S
C638 C637 1.287 . S
C638 C639 1.524 . S
C638 H657 0.913 . S
C639 H615 0.950 . S
C639 C638 1.524 . S
C639 C640 1.415 . S
C640 H616 0.950 . S
C640 C635 1.363 . S
C640 C639 1.415 . S
C641 H617 0.951 . S
C641 C642 1.366 . S
C641 C643 1.388 . S
C642 C641 1.366 . S
C642 C646 1.385 . S
C643 H618 0.951 . S
C643 C641 1.388 . S
C643 C644 1.366 . S
C644 C643 1.366 . S
C644 C645 1.414 . S
C644 C647 1.499 . S
C645 H619 0.950 . S
C645 C644 1.414 . S
C645 C646 1.374 . S
C646 H620 0.950 . S
C646 C642 1.385 . S
C646 C645 1.374 . S
C647 C644 1.499 . S
C647 C648 1.373 . S
C647 C649 1.391 1_565 S
C648 H621 0.950 . S
C648 C634 1.377 . S
C648 C647 1.373 . S
C649 C633 1.375 . S
C649 C647 1.391 1_545 S
C649 C650 1.524 . S
C650 C649 1.524 . S
C650 C651 1.397 1_545 S
C650 C655 1.363 . S
C651 H622 0.950 . S
C651 C650 1.397 1_565 S
C651 C652 1.334 1_655 S
C652 H623 0.950 . S
C652 C651 1.334 1_455 S
C652 C653 1.287 1_565 S
C653 C652 1.287 1_545 S
C653 C654 1.524 . S
C653 H656 0.999 . S
C654 H624 0.950 . S
C654 C653 1.524 . S
C654 C655 1.415 1_455 S
C655 H625 0.950 . S
C655 C650 1.363 . S
C655 C654 1.415 1_655 S
H656 C653 0.999 . S
H657 C638 0.913 . S
H658 C676 0.951 . S
H659 C678 0.951 . S
H660 C680 0.950 . S
H661 C681 0.950 . S
H662 C683 0.950 . S
H663 C686 0.950 . S
H664 C687 0.950 . S
H665 C689 0.950 . S
H666 C690 0.950 . S
H667 C691 0.951 . S
H668 C693 0.951 . S
H669 C695 0.950 . S
H670 C696 0.950 . S
H671 C698 0.950 . S
H672 C701 0.950 . S
H673 C702 0.950 . S
H674 C704 0.950 . S
H675 C705 0.950 . S
C676 H658 0.951 . S
C676 C677 1.366 . S
C676 C678 1.388 . S
C677 C676 1.366 . S
C677 C681 1.385 . S
C678 H659 0.951 . S
C678 C676 1.388 . S
C678 C679 1.366 . S
C679 C678 1.366 . S
C679 C680 1.414 . S
C679 C682 1.499 . S
C680 H660 0.950 . S
C680 C679 1.414 . S
C680 C681 1.374 . S
C681 H661 0.950 . S
C681 C677 1.385 . S
C681 C680 1.374 . S
C682 C679 1.499 . S
C682 C683 1.373 . S
C682 C684 1.389 . S
C683 H662 0.950 . S
C683 C682 1.373 . S
C683 C699 1.377 . S
C684 C682 1.389 . S
C684 C685 1.524 . S
C684 C698 1.377 . S
C685 C684 1.524 . S
C685 C686 1.397 . S
C685 C690 1.363 . S
C686 H663 0.950 . S
C686 C685 1.397 . S
C686 C687 1.334 . S
C687 H664 0.950 . S
C687 C686 1.334 . S
C687 C688 1.287 . S
C688 C687 1.287 . S
C688 C689 1.524 . S
C688 H707 0.913 . S
C689 H665 0.950 . S
C689 C688 1.524 . S
C689 C690 1.415 . S
C690 H666 0.950 . S
C690 C685 1.363 . S
C690 C689 1.415 . S
C691 H667 0.951 . S
C691 C692 1.366 . S
C691 C693 1.388 . S
C692 C691 1.366 . S
C692 C696 1.385 . S
C693 H668 0.951 . S
C693 C691 1.388 . S
C693 C694 1.366 . S
C694 C693 1.366 . S
C694 C695 1.414 . S
C694 C697 1.499 . S
C695 H669 0.950 . S
C695 C694 1.414 . S
C695 C696 1.374 . S
C696 H670 0.950 . S
C696 C692 1.385 . S
C696 C695 1.374 . S
C697 C694 1.499 . S
C697 C698 1.373 . S
C697 C699 1.389 . S
C698 H671 0.950 . S
C698 C684 1.377 . S
C698 C697 1.373 . S
C699 C683 1.377 . S
C699 C697 1.389 . S
C699 C700 1.524 . S
C700 C699 1.524 . S
C700 C701 1.397 . S
C700 C705 1.363 . S
C701 H672 0.950 . S
C701 C700 1.397 . S
C701 C702 1.334 . S
C702 H673 0.950 . S
C702 C701 1.334 . S
C702 C703 1.287 . S
C703 C702 1.287 . S
C703 C704 1.524 . S
C703 H706 0.999 . S
C704 H674 0.950 . S
C704 C703 1.524 . S
C704 C705 1.415 . S
C705 H675 0.950 . S
C705 C700 1.363 . S
C705 C704 1.415 . S
H706 C703 0.999 . S
H707 C688 0.913 . S
H708 C726 0.951 . S
H709 C728 0.951 . S
H710 C730 0.950 . S
H711 C731 0.950 . S
H712 C733 0.950 . S
H713 C736 0.950 . S
H714 C737 0.950 . S
H715 C739 0.950 . S
H716 C740 0.950 . S
H717 C741 0.951 . S
H718 C743 0.951 . S
H719 C745 0.950 . S
H720 C746 0.950 . S
H721 C748 0.950 . S
H722 C751 0.950 . S
H723 C752 0.950 . S
H724 C754 0.950 . S
H725 C755 0.950 . S
C726 H708 0.951 . S
C726 C727 1.366 . S
C726 C728 1.388 . S
C727 C726 1.366 . S
C727 C731 1.385 . S
C728 H709 0.951 . S
C728 C726 1.388 . S
C728 C729 1.366 . S
C729 C728 1.366 . S
C729 C730 1.414 . S
C729 C732 1.499 . S
C730 H710 0.950 . S
C730 C729 1.414 . S
C730 C731 1.374 . S
C731 H711 0.950 . S
C731 C727 1.385 . S
C731 C730 1.374 . S
C732 C729 1.499 . S
C732 C733 1.373 . S
C732 C734 1.389 . S
C733 H712 0.950 . S
C733 C732 1.373 . S
C733 C749 1.377 . S
C734 C732 1.389 . S
C734 C735 1.524 . S
C734 C748 1.377 . S
C735 C734 1.524 . S
C735 C736 1.397 . S
C735 C740 1.363 . S
C736 H713 0.950 . S
C736 C735 1.397 . S
C736 C737 1.334 . S
C737 H714 0.950 . S
C737 C736 1.334 . S
C737 C738 1.287 . S
C738 C737 1.287 . S
C738 C739 1.524 . S
C738 H757 0.913 . S
C739 H715 0.950 . S
C739 C738 1.524 . S
C739 C740 1.415 . S
C740 H716 0.950 . S
C740 C735 1.363 . S
C740 C739 1.415 . S
C741 H717 0.951 . S
C741 C742 1.366 . S
C741 C743 1.388 . S
C742 C741 1.366 . S
C742 C746 1.385 . S
C743 H718 0.951 . S
C743 C741 1.388 . S
C743 C744 1.366 . S
C744 C743 1.366 . S
C744 C745 1.414 . S
C744 C747 1.499 . S
C745 H719 0.950 . S
C745 C744 1.414 . S
C745 C746 1.374 . S
C746 H720 0.950 . S
C746 C742 1.385 . S
C746 C745 1.374 . S
C747 C744 1.499 . S
C747 C748 1.373 . S
C747 C749 1.389 . S
C748 H721 0.950 . S
C748 C734 1.377 . S
C748 C747 1.373 . S
C749 C733 1.377 . S
C749 C747 1.389 . S
C749 C750 1.524 . S
C750 C749 1.524 . S
C750 C751 1.397 . S
C750 C755 1.363 . S
C751 H722 0.950 . S
C751 C750 1.397 . S
C751 C752 1.334 . S
C752 H723 0.950 . S
C752 C751 1.334 . S
C752 C753 1.287 . S
C753 C752 1.287 . S
C753 C754 1.524 . S
C753 H756 0.999 . S
C754 H724 0.950 . S
C754 C753 1.524 . S
C754 C755 1.415 . S
C755 H725 0.950 . S
C755 C750 1.363 . S
C755 C754 1.415 . S
H756 C753 0.999 . S
H757 C738 0.913 . S
H758 C776 0.951 . S
H759 C778 0.951 . S
H760 C780 0.950 . S
H761 C781 0.950 . S
H762 C783 0.950 . S
H763 C786 0.950 . S
H764 C787 0.950 . S
H765 C789 0.950 . S
H766 C790 0.950 . S
H767 C791 0.951 . S
H768 C793 0.951 . S
H769 C795 0.950 . S
H770 C796 0.950 . S
H771 C798 0.950 . S
H772 C801 0.950 1_565 S
H773 C802 0.950 . S
H774 C804 0.950 . S
H775 C805 0.950 . S
C776 H758 0.951 . S
C776 C777 1.366 . S
C776 C778 1.388 . S
C777 C776 1.366 . S
C777 C781 1.385 . S
C778 H759 0.951 . S
C778 C776 1.388 . S
C778 C779 1.366 . S
C779 C778 1.366 . S
C779 C780 1.414 . S
C779 C782 1.499 . S
C780 H760 0.950 . S
C780 C779 1.414 . S
C780 C781 1.374 . S
C781 H761 0.950 . S
C781 C777 1.385 . S
C781 C780 1.374 . S
C782 C779 1.499 . S
C782 C783 1.373 . S
C782 C784 1.389 1_545 S
C783 H762 0.950 . S
C783 C782 1.373 . S
C783 C799 1.397 . S
C784 C782 1.389 1_565 S
C784 C785 1.524 . S
C784 C798 1.377 . S
C785 C784 1.524 . S
C785 C786 1.397 . S
C785 C790 1.363 . S
C786 H763 0.950 . S
C786 C785 1.397 . S
C786 C787 1.334 . S
C787 H764 0.950 . S
C787 C786 1.334 . S
C787 C788 1.287 . S
C788 C787 1.287 . S
C788 C789 1.524 . S
C788 H807 0.913 . S
C789 H765 0.950 . S
C789 C788 1.524 . S
C789 C790 1.415 . S
C790 H766 0.950 . S
C790 C785 1.363 . S
C790 C789 1.415 . S
C791 H767 0.951 . S
C791 C792 1.366 . S
C791 C793 1.388 . S
C792 C791 1.366 . S
C792 C796 1.385 . S
C793 H768 0.951 . S
C793 C791 1.388 . S
C793 C794 1.366 . S
C794 C793 1.366 . S
C794 C795 1.414 . S
C794 C797 1.499 . S
C795 H769 0.950 . S
C795 C794 1.414 . S
C795 C796 1.374 . S
C796 H770 0.950 . S
C796 C792 1.385 . S
C796 C795 1.374 . S
C797 C794 1.499 . S
C797 C798 1.373 . S
C797 C799 1.363 1_565 S
C798 H771 0.950 . S
C798 C784 1.377 . S
C798 C797 1.373 . S
C799 C783 1.397 . S
C799 C797 1.363 1_545 S
C799 C800 1.534 . S
C800 C799 1.534 . S
C800 C801 1.397 . S
C800 C805 1.363 . S
C801 H772 0.950 1_545 S
C801 C800 1.397 . S
C801 C802 1.334 . S
C802 H773 0.950 . S
C802 C801 1.334 . S
C802 C803 1.287 . S
C803 C802 1.287 . S
C803 C804 1.524 . S
C803 H806 0.999 . S
C804 H774 0.950 . S
C804 C803 1.524 . S
C804 C805 1.415 . S
C805 H775 0.950 . S
C805 C800 1.363 . S
C805 C804 1.415 . S
H806 C803 0.999 . S
H807 C788 0.913 . S
H808 C826 0.951 . S
H809 C828 0.951 . S
H810 C830 0.950 . S
H811 C831 0.950 . S
H812 C833 0.950 . S
H813 C836 0.950 . S
H814 C837 0.950 . S
H815 C839 0.950 . S
H816 C840 0.950 . S
H817 C841 0.951 . S
H818 C843 0.951 . S
H819 C845 0.950 . S
H820 C846 0.950 . S
H821 C848 0.950 . S
H822 C851 0.950 . S
H823 C852 0.950 . S
H824 C854 0.950 . S
H825 C855 0.950 . S
C826 H808 0.951 . S
C826 C827 1.366 . S
C826 C828 1.388 . S
C827 C826 1.366 . S
C827 C831 1.385 . S
C828 H809 0.951 . S
C828 C826 1.388 . S
C828 C829 1.366 . S
C829 C828 1.366 . S
C829 C830 1.414 . S
C829 C832 1.499 1_556 S
C830 H810 0.950 . S
C830 C829 1.414 . S
C830 C831 1.374 . S
C831 H811 0.950 . S
C831 C827 1.385 . S
C831 C830 1.374 . S
C832 C829 1.499 1_554 S
C832 C833 1.373 . S
C832 C834 1.389 . S
C833 H812 0.950 . S
C833 C832 1.373 . S
C833 C849 1.377 . S
C834 C832 1.389 . S
C834 C835 1.524 . S
C834 C848 1.377 . S
C835 C834 1.524 . S
C835 C836 1.397 1_554 S
C835 C840 1.363 . S
C836 H813 0.950 . S
C836 C835 1.397 1_556 S
C836 C837 1.334 . S
C837 H814 0.950 . S
C837 C836 1.334 . S
C837 C838 1.287 . S
C838 C837 1.287 . S
C838 C839 1.524 1_556 S
C838 H857 0.913 . S
C839 H815 0.950 . S
C839 C838 1.524 1_554 S
C839 C840 1.415 . S
C840 H816 0.950 . S
C840 C835 1.363 . S
C840 C839 1.415 . S
C841 H817 0.951 . S
C841 C842 1.366 . S
C841 C843 1.388 . S
C842 C841 1.366 . S
C842 C846 1.385 . S
C843 H818 0.951 . S
C843 C841 1.388 . S
C843 C844 1.366 . S
C844 C843 1.366 . S
C844 C845 1.414 . S
C844 C847 1.499 . S
C845 H819 0.950 . S
C845 C844 1.414 . S
C845 C846 1.374 . S
C846 H820 0.950 . S
C846 C842 1.385 . S
C846 C845 1.374 . S
C847 C844 1.499 . S
C847 C848 1.373 . S
C847 C849 1.389 . S
C848 H821 0.950 . S
C848 C834 1.377 . S
C848 C847 1.373 . S
C849 C833 1.377 . S
C849 C847 1.389 . S
C849 C850 1.524 . S
C850 C849 1.524 . S
C850 C851 1.397 . S
C850 C855 1.363 . S
C851 H822 0.950 . S
C851 C850 1.397 . S
C851 C852 1.334 . S
C852 H823 0.950 . S
C852 C851 1.334 . S
C852 C853 1.287 . S
C853 C852 1.287 . S
C853 C854 1.524 . S
C853 H856 0.999 . S
C854 H824 0.950 . S
C854 C853 1.524 . S
C854 C855 1.415 . S
C855 H825 0.950 . S
C855 C850 1.363 . S
C855 C854 1.415 . S
H856 C853 0.999 . S
H857 C838 0.913 . S
H858 C876 0.951 . S
H859 C878 0.951 . S
H860 C880 0.950 . S
H861 C881 0.950 . S
H862 C883 0.950 . S
H863 C886 0.950 . S
H864 C887 0.950 . S
H865 C889 0.950 . S
H866 C890 0.950 . S
H867 C891 0.951 . S
H868 C893 0.951 . S
H869 C895 0.950 . S
H870 C896 0.950 . S
H871 C898 0.950 . S
H872 C901 0.950 . S
H873 C902 0.950 . S
H874 C904 0.950 . S
H875 C905 0.950 . S
C876 H858 0.951 . S
C876 C877 1.366 . S
C876 C878 1.388 . S
C877 C876 1.366 . S
C877 C881 1.385 . S
C878 H859 0.951 . S
C878 C876 1.388 . S
C878 C879 1.366 . S
C879 C878 1.366 . S
C879 C880 1.414 . S
C879 C882 1.499 . S
C880 H860 0.950 . S
C880 C879 1.414 . S
C880 C881 1.374 . S
C881 H861 0.950 . S
C881 C877 1.385 . S
C881 C880 1.374 . S
C882 C879 1.499 . S
C882 C883 1.373 . S
C882 C884 1.389 . S
C883 H862 0.950 . S
C883 C882 1.373 . S
C883 C899 1.377 . S
C884 C882 1.389 . S
C884 C885 1.524 . S
C884 C898 1.377 . S
C885 C884 1.524 . S
C885 C886 1.397 . S
C885 C890 1.363 . S
C886 H863 0.950 . S
C886 C885 1.397 . S
C886 C887 1.334 . S
C887 H864 0.950 . S
C887 C886 1.334 . S
C887 C888 1.287 . S
C888 C887 1.287 . S
C888 C889 1.524 . S
C888 H907 0.913 . S
C889 H865 0.950 . S
C889 C888 1.524 . S
C889 C890 1.415 . S
C890 H866 0.950 . S
C890 C885 1.363 . S
C890 C889 1.415 . S
C891 H867 0.951 . S
C891 C892 1.366 . S
C891 C893 1.388 . S
C892 C891 1.366 . S
C892 C896 1.385 . S
C893 H868 0.951 . S
C893 C891 1.388 . S
C893 C894 1.366 . S
C894 C893 1.366 . S
C894 C895 1.414 . S
C894 C897 1.499 . S
C895 H869 0.950 . S
C895 C894 1.414 . S
C895 C896 1.374 . S
C896 H870 0.950 . S
C896 C892 1.385 . S
C896 C895 1.374 . S
C897 C894 1.499 . S
C897 C898 1.373 . S
C897 C899 1.389 . S
C898 H871 0.950 . S
C898 C884 1.377 . S
C898 C897 1.373 . S
C899 C883 1.377 . S
C899 C897 1.389 . S
C899 C900 1.524 . S
C900 C899 1.524 . S
C900 C901 1.397 . S
C900 C905 1.363 . S
C901 H872 0.950 . S
C901 C900 1.397 . S
C901 C902 1.334 . S
C902 H873 0.950 . S
C902 C901 1.334 . S
C902 C903 1.287 . S
C903 C902 1.287 . S
C903 C904 1.524 . S
C903 H906 0.999 . S
C904 H874 0.950 . S
C904 C903 1.524 . S
C904 C905 1.415 . S
C905 H875 0.950 . S
C905 C900 1.363 . S
C905 C904 1.415 . S
H906 C903 0.999 . S
H907 C888 0.913 . S
H908 C926 0.951 . S
H909 C928 0.951 . S
H910 C930 0.950 . S
H911 C931 0.950 . S
H912 C933 0.950 . S
H913 C936 0.950 . S
H914 C937 0.950 . S
H915 C939 0.950 . S
H916 C940 0.950 . S
H917 C941 0.951 . S
H918 C943 0.951 . S
H919 C945 0.950 . S
H920 C946 0.950 . S
H921 C948 0.950 . S
H922 C951 0.950 . S
H923 C952 0.950 . S
H924 C954 0.950 . S
H925 C955 0.950 . S
C926 H908 0.951 . S
C926 C927 1.366 . S
C926 C928 1.388 . S
C927 C926 1.366 . S
C927 C931 1.385 . S
C928 H909 0.951 . S
C928 C926 1.388 . S
C928 C929 1.366 . S
C929 C928 1.366 . S
C929 C930 1.414 . S
C929 C932 1.499 1_554 S
C930 H910 0.950 . S
C930 C929 1.414 . S
C930 C931 1.374 . S
C931 H911 0.950 . S
C931 C927 1.385 . S
C931 C930 1.374 . S
C932 C929 1.499 1_556 S
C932 C933 1.373 . S
C932 C934 1.389 . S
C933 H912 0.950 . S
C933 C932 1.373 . S
C933 C949 1.377 . S
C934 C932 1.389 . S
C934 C935 1.524 . S
C934 C948 1.377 . S
C935 C934 1.524 . S
C935 C936 1.397 1_556 S
C935 C940 1.363 . S
C936 H913 0.950 . S
C936 C935 1.397 1_554 S
C936 C937 1.334 . S
C937 H914 0.950 . S
C937 C936 1.334 . S
C937 C938 1.287 . S
C938 C937 1.287 . S
C938 C939 1.524 1_554 S
C938 H957 0.913 . S
C939 H915 0.950 . S
C939 C938 1.524 1_556 S
C939 C940 1.415 . S
C940 H916 0.950 . S
C940 C935 1.363 . S
C940 C939 1.415 . S
C941 H917 0.951 . S
C941 C942 1.366 . S
C941 C943 1.388 . S
C942 C941 1.366 . S
C942 C946 1.385 . S
C943 H918 0.951 . S
C943 C941 1.388 . S
C943 C944 1.366 . S
C944 C943 1.366 . S
C944 C945 1.414 . S
C944 C947 1.499 . S
C945 H919 0.950 . S
C945 C944 1.414 . S
C945 C946 1.374 . S
C946 H920 0.950 . S
C946 C942 1.385 . S
C946 C945 1.374 . S
C947 C944 1.499 . S
C947 C948 1.373 . S
C947 C949 1.389 . S
C948 H921 0.950 . S
C948 C934 1.377 . S
C948 C947 1.373 . S
C949 C933 1.377 . S
C949 C947 1.389 . S
C949 C950 1.524 . S
C950 C949 1.524 . S
C950 C951 1.397 . S
C950 C955 1.363 . S
C951 H922 0.950 . S
C951 C950 1.397 . S
C951 C952 1.334 . S
C952 H923 0.950 . S
C952 C951 1.334 . S
C952 C953 1.287 . S
C953 C952 1.287 . S
C953 C954 1.524 . S
C953 H956 0.999 . S
C954 H924 0.950 . S
C954 C953 1.524 . S
C954 C955 1.415 . S
C955 H925 0.950 . S
C955 C950 1.363 . S
C955 C954 1.415 . S
H956 C953 0.999 . S
H957 C938 0.913 . S
H958 C976 0.951 . S
H959 C978 0.951 . S
H960 C980 0.950 . S
H961 C981 0.950 . S
H962 C983 0.950 . S
H963 C986 0.950 . S
H964 C987 0.950 . S
H965 C989 0.950 . S
H966 C990 0.950 . S
H967 C991 0.951 . S
H968 C993 0.951 . S
H969 C995 0.950 . S
H970 C996 0.950 . S
H971 C998 0.950 . S
H972 C1001 0.950 . S
H973 C1002 0.950 . S
H974 C1004 0.950 . S
H975 C1005 0.950 . S
C976 H958 0.951 . S
C976 C977 1.366 . S
C976 C978 1.388 . S
C977 C976 1.366 . S
C977 C981 1.385 . S
C978 H959 0.951 . S
C978 C976 1.388 . S
C978 C979 1.366 . S
C979 C978 1.366 . S
C979 C980 1.414 . S
C979 C982 1.499 . S
C980 H960 0.950 . S
C980 C979 1.414 . S
C980 C981 1.374 . S
C981 H961 0.950 . S
C981 C977 1.385 . S
C981 C980 1.374 . S
C982 C979 1.499 . S
C982 C983 1.373 . S
C982 C984 1.389 . S
C983 H962 0.950 . S
C983 C982 1.373 . S
C983 C999 1.377 . S
C984 C982 1.389 . S
C984 C985 1.524 . S
C984 C998 1.377 . S
C985 C984 1.524 . S
C985 C986 1.397 . S
C985 C990 1.363 . S
C986 H963 0.950 . S
C986 C985 1.397 . S
C986 C987 1.334 . S
C987 H964 0.950 . S
C987 C986 1.334 . S
C987 C988 1.287 . S
C988 C987 1.287 . S
C988 C989 1.524 . S
C988 H1007 0.913 . S
C989 H965 0.950 . S
C989 C988 1.524 . S
C989 C990 1.415 . S
C990 H966 0.950 . S
C990 C985 1.363 . S
C990 C989 1.415 . S
C991 H967 0.951 . S
C991 C992 1.366 . S
C991 C993 1.388 . S
C992 C991 1.366 . S
C992 C996 1.385 . S
C993 H968 0.951 . S
C993 C991 1.388 . S
C993 C994 1.366 . S
C994 C993 1.366 . S
C994 C995 1.414 . S
C994 C997 1.499 . S
C995 H969 0.950 . S
C995 C994 1.414 . S
C995 C996 1.374 . S
C996 H970 0.950 . S
C996 C992 1.385 . S
C996 C995 1.374 . S
C997 C994 1.499 . S
C997 C998 1.373 . S
C997 C999 1.389 . S
C998 H971 0.950 . S
C998 C984 1.377 . S
C998 C997 1.373 . S
C999 C983 1.377 . S
C999 C997 1.389 . S
C999 C1000 1.524 . S
C1000 C999 1.524 . S
C1000 C1001 1.397 . S
C1000 C1005 1.363 . S
C1001 H972 0.950 . S
C1001 C1000 1.397 . S
C1001 C1002 1.334 . S
C1002 H973 0.950 . S
C1002 C1001 1.334 . S
C1002 C1003 1.287 . S
C1003 C1002 1.287 . S
C1003 C1004 1.524 . S
C1003 H1006 0.999 . S
C1004 H974 0.950 . S
C1004 C1003 1.524 . S
C1004 C1005 1.415 . S
C1005 H975 0.950 . S
C1005 C1000 1.363 . S
C1005 C1004 1.415 . S
H1006 C1003 0.999 . S
H1007 C988 0.913 . S
H1008 C1026 0.951 . S
H1009 C1028 0.951 . S
H1010 C1030 0.950 . S
H1011 C1031 0.950 . S
H1012 C1033 0.950 . S
H1013 C1036 0.950 . S
H1014 C1037 0.950 . S
H1015 C1039 0.950 . S
H1016 C1040 0.950 . S
H1017 C1041 0.951 . S
H1018 C1043 0.951 . S
H1019 C1045 0.950 . S
H1020 C1046 0.950 . S
H1021 C1048 0.950 . S
H1022 C1051 0.950 . S
H1023 C1052 0.950 . S
H1024 C1054 0.950 . S
H1025 C1055 0.950 . S
C1026 H1008 0.951 . S
C1026 C1027 1.366 . S
C1026 C1028 1.388 . S
C1027 C1026 1.366 . S
C1027 C1031 1.385 . S
C1028 H1009 0.951 . S
C1028 C1026 1.388 . S
C1028 C1029 1.366 . S
C1029 C1028 1.366 . S
C1029 C1030 1.414 . S
C1029 C1032 1.499 1_554 S
C1030 H1010 0.950 . S
C1030 C1029 1.414 . S
C1030 C1031 1.374 . S
C1031 H1011 0.950 . S
C1031 C1027 1.385 . S
C1031 C1030 1.374 . S
C1032 C1029 1.499 1_556 S
C1032 C1033 1.373 . S
C1032 C1034 1.389 . S
C1033 H1012 0.950 . S
C1033 C1032 1.373 . S
C1033 C1049 1.377 . S
C1034 C1032 1.389 . S
C1034 C1035 1.524 . S
C1034 C1048 1.377 . S
C1035 C1034 1.524 . S
C1035 C1036 1.397 1_556 S
C1035 C1040 1.363 . S
C1036 H1013 0.950 . S
C1036 C1035 1.397 1_554 S
C1036 C1037 1.334 . S
C1037 H1014 0.950 . S
C1037 C1036 1.334 . S
C1037 C1038 1.287 . S
C1038 C1037 1.287 . S
C1038 C1039 1.524 1_554 S
C1038 H1057 0.913 . S
C1039 H1015 0.950 . S
C1039 C1038 1.524 1_556 S
C1039 C1040 1.415 . S
C1040 H1016 0.950 . S
C1040 C1035 1.363 . S
C1040 C1039 1.415 . S
C1041 H1017 0.951 . S
C1041 C1042 1.366 . S
C1041 C1043 1.388 . S
C1042 C1041 1.366 . S
C1042 C1046 1.385 . S
C1043 H1018 0.951 . S
C1043 C1041 1.388 . S
C1043 C1044 1.366 . S
C1044 C1043 1.366 . S
C1044 C1045 1.414 . S
C1044 C1047 1.499 . S
C1045 H1019 0.950 . S
C1045 C1044 1.414 . S
C1045 C1046 1.374 . S
C1046 H1020 0.950 . S
C1046 C1042 1.385 . S
C1046 C1045 1.374 . S
C1047 C1044 1.499 . S
C1047 C1048 1.373 . S
C1047 C1049 1.389 . S
C1048 H1021 0.950 . S
C1048 C1034 1.377 . S
C1048 C1047 1.373 . S
C1049 C1033 1.377 . S
C1049 C1047 1.389 . S
C1049 C1050 1.524 . S
C1050 C1049 1.524 . S
C1050 C1051 1.397 . S
C1050 C1055 1.363 . S
C1051 H1022 0.950 . S
C1051 C1050 1.397 . S
C1051 C1052 1.334 . S
C1052 H1023 0.950 . S
C1052 C1051 1.334 . S
C1052 C1053 1.287 . S
C1053 C1052 1.287 . S
C1053 C1054 1.524 . S
C1053 H1056 0.999 . S
C1054 H1024 0.950 . S
C1054 C1053 1.524 . S
C1054 C1055 1.415 . S
C1055 H1025 0.950 . S
C1055 C1050 1.363 . S
C1055 C1054 1.415 . S
H1056 C1053 0.999 . S
H1057 C1038 0.913 . S
H1058 C1076 0.951 . S
H1059 C1078 0.951 . S
H1060 C1080 0.950 . S
H1061 C1081 0.950 . S
H1062 C1083 0.950 . S
H1063 C1086 0.950 . S
H1064 C1087 0.950 . S
H1065 C1089 0.950 . S
H1066 C1090 0.950 . S
H1067 C1091 0.951 . S
H1068 C1093 0.951 . S
H1069 C1095 0.950 . S
H1070 C1096 0.950 . S
H1071 C1098 0.950 . S
H1072 C1101 0.950 . S
H1073 C1102 0.950 . S
H1074 C1104 0.950 . S
H1075 C1105 0.950 . S
C1076 H1058 0.951 . S
C1076 C1077 1.366 . S
C1076 C1078 1.388 . S
C1077 C1076 1.366 . S
C1077 C1081 1.385 . S
C1078 H1059 0.951 . S
C1078 C1076 1.388 . S
C1078 C1079 1.366 . S
C1079 C1078 1.366 . S
C1079 C1080 1.414 . S
C1079 C1082 1.499 . S
C1080 H1060 0.950 . S
C1080 C1079 1.414 . S
C1080 C1081 1.374 . S
C1081 H1061 0.950 . S
C1081 C1077 1.385 . S
C1081 C1080 1.374 . S
C1082 C1079 1.499 . S
C1082 C1083 1.373 . S
C1082 C1084 1.389 . S
C1083 H1062 0.950 . S
C1083 C1082 1.373 . S
C1083 C1099 1.377 . S
C1084 C1082 1.389 . S
C1084 C1085 1.524 . S
C1084 C1098 1.377 . S
C1085 C1084 1.524 . S
C1085 C1086 1.397 . S
C1085 C1090 1.363 . S
C1086 H1063 0.950 . S
C1086 C1085 1.397 . S
C1086 C1087 1.334 . S
C1087 H1064 0.950 . S
C1087 C1086 1.334 . S
C1087 C1088 1.287 . S
C1088 C1087 1.287 . S
C1088 C1089 1.524 . S
C1088 H1107 0.913 . S
C1089 H1065 0.950 . S
C1089 C1088 1.524 . S
C1089 C1090 1.415 . S
C1090 H1066 0.950 . S
C1090 C1085 1.363 . S
C1090 C1089 1.415 . S
C1091 H1067 0.951 . S
C1091 C1092 1.366 . S
C1091 C1093 1.388 . S
C1092 C1091 1.366 . S
C1092 C1096 1.385 . S
C1093 H1068 0.951 . S
C1093 C1091 1.388 . S
C1093 C1094 1.366 . S
C1094 C1093 1.366 . S
C1094 C1095 1.414 . S
C1094 C1097 1.499 . S
C1095 H1069 0.950 . S
C1095 C1094 1.414 . S
C1095 C1096 1.374 . S
C1096 H1070 0.950 . S
C1096 C1092 1.385 . S
C1096 C1095 1.374 . S
C1097 C1094 1.499 . S
C1097 C1098 1.373 . S
C1097 C1099 1.389 . S
C1098 H1071 0.950 . S
C1098 C1084 1.377 . S
C1098 C1097 1.373 . S
C1099 C1083 1.377 . S
C1099 C1097 1.389 . S
C1099 C1100 1.524 . S
C1100 C1099 1.524 . S
C1100 C1101 1.397 . S
C1100 C1105 1.363 . S
C1101 H1072 0.950 . S
C1101 C1100 1.397 . S
C1101 C1102 1.334 . S
C1102 H1073 0.950 . S
C1102 C1101 1.334 . S
C1102 C1103 1.287 . S
C1103 C1102 1.287 . S
C1103 C1104 1.524 . S
C1103 H1106 0.999 . S
C1104 H1074 0.950 . S
C1104 C1103 1.524 . S
C1104 C1105 1.415 . S
C1105 H1075 0.950 . S
C1105 C1100 1.363 . S
C1105 C1104 1.415 . S
H1106 C1103 0.999 . S
H1107 C1088 0.913 . S
H1108 C1126 0.951 . S
H1109 C1128 0.951 . S
H1110 C1130 0.950 . S
H1111 C1131 0.950 . S
H1112 C1133 0.950 . S
H1113 C1136 0.950 . S
H1114 C1137 0.950 . S
H1115 C1139 0.950 . S
H1116 C1140 0.950 . S
H1117 C1141 0.951 . S
H1118 C1143 0.951 . S
H1119 C1145 0.950 . S
H1120 C1146 0.950 . S
H1121 C1148 0.950 . S
H1122 C1151 0.950 . S
H1123 C1152 0.950 . S
H1124 C1154 0.950 . S
H1125 C1155 0.950 . S
C1126 H1108 0.951 . S
C1126 C1127 1.366 . S
C1126 C1128 1.388 . S
C1127 C1126 1.366 . S
C1127 C1131 1.385 . S
C1128 H1109 0.951 . S
C1128 C1126 1.388 . S
C1128 C1129 1.366 . S
C1129 C1128 1.366 . S
C1129 C1130 1.414 . S
C1129 C1132 1.499 1_556 S
C1130 H1110 0.950 . S
C1130 C1129 1.414 . S
C1130 C1131 1.374 . S
C1131 H1111 0.950 . S
C1131 C1127 1.385 . S
C1131 C1130 1.374 . S
C1132 C1129 1.499 1_554 S
C1132 C1133 1.373 . S
C1132 C1134 1.389 . S
C1133 H1112 0.950 . S
C1133 C1132 1.373 . S
C1133 C1149 1.377 . S
C1134 C1132 1.389 . S
C1134 C1135 1.524 . S
C1134 C1148 1.377 . S
C1135 C1134 1.524 . S
C1135 C1136 1.397 1_554 S
C1135 C1140 1.363 . S
C1136 H1113 0.950 . S
C1136 C1135 1.397 1_556 S
C1136 C1137 1.334 . S
C1137 H1114 0.950 . S
C1137 C1136 1.334 . S
C1137 C1138 1.287 . S
C1138 C1137 1.287 . S
C1138 C1139 1.524 1_556 S
C1138 H1157 0.913 . S
C1139 H1115 0.950 . S
C1139 C1138 1.524 1_554 S
C1139 C1140 1.415 . S
C1140 H1116 0.950 . S
C1140 C1135 1.363 . S
C1140 C1139 1.415 . S
C1141 H1117 0.951 . S
C1141 C1142 1.366 . S
C1141 C1143 1.388 . S
C1142 C1141 1.366 . S
C1142 C1146 1.385 . S
C1143 H1118 0.951 . S
C1143 C1141 1.388 . S
C1143 C1144 1.366 . S
C1144 C1143 1.366 . S
C1144 C1145 1.414 . S
C1144 C1147 1.499 . S
C1145 H1119 0.950 . S
C1145 C1144 1.414 . S
C1145 C1146 1.374 . S
C1146 H1120 0.950 . S
C1146 C1142 1.385 . S
C1146 C1145 1.374 . S
C1147 C1144 1.499 . S
C1147 C1148 1.373 . S
C1147 C1149 1.389 . S
C1148 H1121 0.950 . S
C1148 C1134 1.377 . S
C1148 C1147 1.373 . S
C1149 C1133 1.377 . S
C1149 C1147 1.389 . S
C1149 C1150 1.524 . S
C1150 C1149 1.524 . S
C1150 C1151 1.397 . S
C1150 C1155 1.363 . S
C1151 H1122 0.950 . S
C1151 C1150 1.397 . S
C1151 C1152 1.334 . S
C1152 H1123 0.950 . S
C1152 C1151 1.334 . S
C1152 C1153 1.287 . S
C1153 C1152 1.287 . S
C1153 C1154 1.524 . S
C1153 H1156 0.999 . S
C1154 H1124 0.950 . S
C1154 C1153 1.524 . S
C1154 C1155 1.415 . S
C1155 H1125 0.950 . S
C1155 C1150 1.363 . S
C1155 C1154 1.415 . S
H1156 C1153 0.999 . S
H1157 C1138 0.913 . S
H1158 C1176 0.951 . S
H1159 C1178 0.951 . S
H1160 C1180 0.950 . S
H1161 C1181 0.950 . S
H1162 C1183 0.950 . S
H1163 C1186 0.950 . S
H1164 C1187 0.950 . S
H1165 C1189 0.950 . S
H1166 C1190 0.950 . S
H1167 C1191 0.951 . S
H1168 C1193 0.951 . S
H1169 C1195 0.950 . S
H1170 C1196 0.950 . S
H1171 C1198 0.950 . S
H1172 C1201 0.950 . S
H1173 C1202 0.950 . S
H1174 C1204 0.950 . S
H1175 C1205 0.950 . S
C1176 H1158 0.951 . S
C1176 C1177 1.366 . S
C1176 C1178 1.388 . S
C1177 C1176 1.366 . S
C1177 C1181 1.385 . S
C1178 H1159 0.951 . S
C1178 C1176 1.388 . S
C1178 C1179 1.366 . S
C1179 C1178 1.366 . S
C1179 C1180 1.414 . S
C1179 C1182 1.499 . S
C1180 H1160 0.950 . S
C1180 C1179 1.414 . S
C1180 C1181 1.374 . S
C1181 H1161 0.950 . S
C1181 C1177 1.385 . S
C1181 C1180 1.374 . S
C1182 C1179 1.499 . S
C1182 C1183 1.373 . S
C1182 C1184 1.389 . S
C1183 H1162 0.950 . S
C1183 C1182 1.373 . S
C1183 C1199 1.377 . S
C1184 C1182 1.389 . S
C1184 C1185 1.524 . S
C1184 C1198 1.377 . S
C1185 C1184 1.524 . S
C1185 C1186 1.397 . S
C1185 C1190 1.363 . S
C1186 H1163 0.950 . S
C1186 C1185 1.397 . S
C1186 C1187 1.334 . S
C1187 H1164 0.950 . S
C1187 C1186 1.334 . S
C1187 C1188 1.287 . S
C1188 C1187 1.287 . S
C1188 C1189 1.524 . S
C1188 H1207 0.913 . S
C1189 H1165 0.950 . S
C1189 C1188 1.524 . S
C1189 C1190 1.415 . S
C1190 H1166 0.950 . S
C1190 C1185 1.363 . S
C1190 C1189 1.415 . S
C1191 H1167 0.951 . S
C1191 C1192 1.366 . S
C1191 C1193 1.388 . S
C1192 C1191 1.366 . S
C1192 C1196 1.385 . S
C1193 H1168 0.951 . S
C1193 C1191 1.388 . S
C1193 C1194 1.366 . S
C1194 C1193 1.366 . S
C1194 C1195 1.414 . S
C1194 C1197 1.499 . S
C1195 H1169 0.950 . S
C1195 C1194 1.414 . S
C1195 C1196 1.374 . S
C1196 H1170 0.950 . S
C1196 C1192 1.385 . S
C1196 C1195 1.374 . S
C1197 C1194 1.499 . S
C1197 C1198 1.373 . S
C1197 C1199 1.389 . S
C1198 H1171 0.950 . S
C1198 C1184 1.377 . S
C1198 C1197 1.373 . S
C1199 C1183 1.377 . S
C1199 C1197 1.389 . S
C1199 C1200 1.524 . S
C1200 C1199 1.524 . S
C1200 C1201 1.397 . S
C1200 C1205 1.363 . S
C1201 H1172 0.950 . S
C1201 C1200 1.397 . S
C1201 C1202 1.334 . S
C1202 H1173 0.950 . S
C1202 C1201 1.334 . S
C1202 C1203 1.287 . S
C1203 C1202 1.287 . S
C1203 C1204 1.524 . S
C1203 H1206 0.999 . S
C1204 H1174 0.950 . S
C1204 C1203 1.524 . S
C1204 C1205 1.415 . S
C1205 H1175 0.950 . S
C1205 C1200 1.363 . S
C1205 C1204 1.415 . S
H1206 C1203 0.999 . S
H1207 C1188 0.913 . S
H1208 C1226 0.951 . S
H1209 C1228 0.951 . S
H1210 C1230 0.950 . S
H1211 C1231 0.950 . S
H1212 C1233 0.950 . S
H1213 C1236 0.950 . S
H1214 C1237 0.950 . S
H1215 C1239 0.950 . S
H1216 C1240 0.950 . S
H1217 C1241 0.951 . S
H1218 C1243 0.951 . S
H1219 C1245 0.950 . S
H1220 C1246 0.950 . S
H1221 C1248 0.950 . S
H1222 C1251 0.950 . S
H1223 C1252 0.950 . S
H1224 C1254 0.950 . S
H1225 C1255 0.950 . S
C1226 H1208 0.951 . S
C1226 C1227 1.366 . S
C1226 C1228 1.388 . S
C1227 C1226 1.366 . S
C1227 C1231 1.385 . S
C1228 H1209 0.951 . S
C1228 C1226 1.388 . S
C1228 C1229 1.366 . S
C1229 C1228 1.366 . S
C1229 C1230 1.414 . S
C1229 C1232 1.499 . S
C1230 H1210 0.950 . S
C1230 C1229 1.414 . S
C1230 C1231 1.374 . S
C1231 H1211 0.950 . S
C1231 C1227 1.385 . S
C1231 C1230 1.374 . S
C1232 C1229 1.499 . S
C1232 C1233 1.373 . S
C1232 C1234 1.389 . S
C1233 H1212 0.950 . S
C1233 C1232 1.373 . S
C1233 C1249 1.377 . S
C1234 C1232 1.389 . S
C1234 C1235 1.524 . S
C1234 C1248 1.377 . S
C1235 C1234 1.524 . S
C1235 C1236 1.397 . S
C1235 C1240 1.363 . S
C1236 H1213 0.950 . S
C1236 C1235 1.397 . S
C1236 C1237 1.334 . S
C1237 H1214 0.950 . S
C1237 C1236 1.334 . S
C1237 C1238 1.287 . S
C1238 C1237 1.287 . S
C1238 C1239 1.524 . S
C1238 H1257 0.913 . S
C1239 H1215 0.950 . S
C1239 C1238 1.524 . S
C1239 C1240 1.415 . S
C1240 H1216 0.950 . S
C1240 C1235 1.363 . S
C1240 C1239 1.415 . S
C1241 H1217 0.951 . S
C1241 C1242 1.366 . S
C1241 C1243 1.388 . S
C1242 C1241 1.366 . S
C1242 C1246 1.385 . S
C1243 H1218 0.951 . S
C1243 C1241 1.388 . S
C1243 C1244 1.366 . S
C1244 C1243 1.366 . S
C1244 C1245 1.414 . S
C1244 C1247 1.499 . S
C1245 H1219 0.950 . S
C1245 C1244 1.414 . S
C1245 C1246 1.374 . S
C1246 H1220 0.950 . S
C1246 C1242 1.385 . S
C1246 C1245 1.374 . S
C1247 C1244 1.499 . S
C1247 C1248 1.373 . S
C1247 C1249 1.389 . S
C1248 H1221 0.950 . S
C1248 C1234 1.377 . S
C1248 C1247 1.373 . S
C1249 C1233 1.377 . S
C1249 C1247 1.389 . S
C1249 C1250 1.524 . S
C1250 C1249 1.524 . S
C1250 C1251 1.397 . S
C1250 C1255 1.363 . S
C1251 H1222 0.950 . S
C1251 C1250 1.397 . S
C1251 C1252 1.334 1_455 S
C1252 H1223 0.950 . S
C1252 C1251 1.334 1_655 S
C1252 C1253 1.287 . S
C1253 C1252 1.287 . S
C1253 C1254 1.524 . S
C1253 H1256 0.999 . S
C1254 H1224 0.950 . S
C1254 C1253 1.524 . S
C1254 C1255 1.415 1_655 S
C1255 H1225 0.950 . S
C1255 C1250 1.363 . S
C1255 C1254 1.415 1_455 S
H1256 C1253 0.999 . S
H1257 C1238 0.913 . S
H1258 C1276 0.951 . S
H1259 C1278 0.951 . S
H1260 C1280 0.950 . S
H1261 C1281 0.950 . S
H1262 C1283 0.950 . S
H1263 C1286 0.950 . S
H1264 C1287 0.950 . S
H1265 C1289 0.950 . S
H1266 C1290 0.950 . S
H1267 C1291 0.951 . S
H1268 C1293 0.951 . S
H1269 C1295 0.950 . S
H1270 C1296 0.950 . S
H1271 C1298 0.950 . S
H1272 C1301 0.950 . S
H1273 C1302 0.950 . S
H1274 C1304 0.950 . S
H1275 C1305 0.950 . S
C1276 H1258 0.951 . S
C1276 C1277 1.366 . S
C1276 C1278 1.388 . S
C1277 C1276 1.366 . S
C1277 C1281 1.385 . S
C1278 H1259 0.951 . S
C1278 C1276 1.388 . S
C1278 C1279 1.366 . S
C1279 C1278 1.366 . S
C1279 C1280 1.414 . S
C1279 C1282 1.499 . S
C1280 H1260 0.950 . S
C1280 C1279 1.414 . S
C1280 C1281 1.374 . S
C1281 H1261 0.950 . S
C1281 C1277 1.385 . S
C1281 C1280 1.374 . S
C1282 C1279 1.499 . S
C1282 C1283 1.373 . S
C1282 C1284 1.389 . S
C1283 H1262 0.950 . S
C1283 C1282 1.373 . S
C1283 C1299 1.377 . S
C1284 C1282 1.389 . S
C1284 C1285 1.524 . S
C1284 C1298 1.377 . S
C1285 C1284 1.524 . S
C1285 C1286 1.397 . S
C1285 C1290 1.363 . S
C1286 H1263 0.950 . S
C1286 C1285 1.397 . S
C1286 C1287 1.334 . S
C1287 H1264 0.950 . S
C1287 C1286 1.334 . S
C1287 C1288 1.287 . S
C1288 C1287 1.287 . S
C1288 C1289 1.524 . S
C1288 H1307 0.913 . S
C1289 H1265 0.950 . S
C1289 C1288 1.524 . S
C1289 C1290 1.415 . S
C1290 H1266 0.950 . S
C1290 C1285 1.363 . S
C1290 C1289 1.415 . S
C1291 H1267 0.951 . S
C1291 C1292 1.366 . S
C1291 C1293 1.388 . S
C1292 C1291 1.366 . S
C1292 C1296 1.385 . S
C1293 H1268 0.951 . S
C1293 C1291 1.388 . S
C1293 C1294 1.366 . S
C1294 C1293 1.366 . S
C1294 C1295 1.414 . S
C1294 C1297 1.499 . S
C1295 H1269 0.950 . S
C1295 C1294 1.414 . S
C1295 C1296 1.374 . S
C1296 H1270 0.950 . S
C1296 C1292 1.385 . S
C1296 C1295 1.374 . S
C1297 C1294 1.499 . S
C1297 C1298 1.373 . S
C1297 C1299 1.389 . S
C1298 H1271 0.950 . S
C1298 C1284 1.377 . S
C1298 C1297 1.373 . S
C1299 C1283 1.377 . S
C1299 C1297 1.389 . S
C1299 C1300 1.524 . S
C1300 C1299 1.524 . S
C1300 C1301 1.397 . S
C1300 C1305 1.363 . S
C1301 H1272 0.950 . S
C1301 C1300 1.397 . S
C1301 C1302 1.334 . S
C1302 H1273 0.950 . S
C1302 C1301 1.334 . S
C1302 C1303 1.287 . S
C1303 C1302 1.287 . S
C1303 C1304 1.524 . S
C1303 H1306 0.999 . S
C1304 H1274 0.950 . S
C1304 C1303 1.524 . S
C1304 C1305 1.415 . S
C1305 H1275 0.950 . S
C1305 C1300 1.363 . S
C1305 C1304 1.415 . S
H1306 C1303 0.999 . S
H1307 C1288 0.913 . S
H1308 C1326 0.951 . S
H1309 C1328 0.951 . S
H1310 C1330 0.950 . S
H1311 C1331 0.950 . S
H1312 C1333 0.950 . S
H1313 C1336 0.950 . S
H1314 C1337 0.950 . S
H1315 C1339 0.950 . S
H1316 C1340 0.950 . S
H1317 C1341 0.951 . S
H1318 C1343 0.951 . S
H1319 C1345 0.950 . S
H1320 C1346 0.950 . S
H1321 C1348 0.950 . S
H1322 C1351 0.950 . S
H1323 C1352 0.950 . S
H1324 C1354 0.950 . S
H1325 C1355 0.950 . S
C1326 H1308 0.951 . S
C1326 C1327 1.366 . S
C1326 C1328 1.388 . S
C1327 C1326 1.366 . S
C1327 C1331 1.385 . S
C1328 H1309 0.951 . S
C1328 C1326 1.388 . S
C1328 C1329 1.366 . S
C1329 C1328 1.366 . S
C1329 C1330 1.414 . S
C1329 C1332 1.499 . S
C1330 H1310 0.950 . S
C1330 C1329 1.414 . S
C1330 C1331 1.374 . S
C1331 H1311 0.950 . S
C1331 C1327 1.385 . S
C1331 C1330 1.374 . S
C1332 C1329 1.499 . S
C1332 C1333 1.373 . S
C1332 C1334 1.389 . S
C1333 H1312 0.950 . S
C1333 C1332 1.373 . S
C1333 C1349 1.377 . S
C1334 C1332 1.389 . S
C1334 C1335 1.524 . S
C1334 C1348 1.377 . S
C1335 C1334 1.524 . S
C1335 C1336 1.397 . S
C1335 C1340 1.363 . S
C1336 H1313 0.950 . S
C1336 C1335 1.397 . S
C1336 C1337 1.334 . S
C1337 H1314 0.950 . S
C1337 C1336 1.334 . S
C1337 C1338 1.287 . S
C1338 C1337 1.287 . S
C1338 C1339 1.524 . S
C1338 H1357 0.913 . S
C1339 H1315 0.950 . S
C1339 C1338 1.524 . S
C1339 C1340 1.415 . S
C1340 H1316 0.950 . S
C1340 C1335 1.363 . S
C1340 C1339 1.415 . S
C1341 H1317 0.951 . S
C1341 C1342 1.366 . S
C1341 C1343 1.388 . S
C1342 C1341 1.366 . S
C1342 C1346 1.385 . S
C1343 H1318 0.951 . S
C1343 C1341 1.388 . S
C1343 C1344 1.366 . S
C1344 C1343 1.366 . S
C1344 C1345 1.414 . S
C1344 C1347 1.499 . S
C1345 H1319 0.950 . S
C1345 C1344 1.414 . S
C1345 C1346 1.374 . S
C1346 H1320 0.950 . S
C1346 C1342 1.385 . S
C1346 C1345 1.374 . S
C1347 C1344 1.499 . S
C1347 C1348 1.373 . S
C1347 C1349 1.389 . S
C1348 H1321 0.950 . S
C1348 C1334 1.377 . S
C1348 C1347 1.373 . S
C1349 C1333 1.377 . S
C1349 C1347 1.389 . S
C1349 C1350 1.524 . S
C1350 C1349 1.524 . S
C1350 C1351 1.397 . S
C1350 C1355 1.363 . S
C1351 H1322 0.950 . S
C1351 C1350 1.397 . S
C1351 C1352 1.334 . S
C1352 H1323 0.950 . S
C1352 C1351 1.334 . S
C1352 C1353 1.287 . S
C1353 C1352 1.287 . S
C1353 C1354 1.524 . S
C1353 H1356 0.999 . S
C1354 H1324 0.950 . S
C1354 C1353 1.524 . S
C1354 C1355 1.415 . S
C1355 H1325 0.950 . S
C1355 C1350 1.363 . S
C1355 C1354 1.415 . S
H1356 C1353 0.999 . S
H1357 C1338 0.913 . S
H1358 C1376 0.951 . S
H1359 C1378 0.951 . S
H1360 C1380 0.950 . S
H1361 C1381 0.950 . S
H1362 C1383 0.950 . S
H1363 C1386 0.950 . S
H1364 C1387 0.950 . S
H1365 C1389 0.950 . S
H1366 C1390 0.950 . S
H1367 C1391 0.951 . S
H1368 C1393 0.951 . S
H1369 C1395 0.950 . S
H1370 C1396 0.950 . S
H1371 C1398 0.950 . S
H1372 C1401 0.950 . S
H1373 C1402 0.950 . S
H1374 C1404 0.950 . S
H1375 C1405 0.950 . S
C1376 H1358 0.951 . S
C1376 C1377 1.366 . S
C1376 C1378 1.388 . S
C1377 C1376 1.366 . S
C1377 C1381 1.385 . S
C1378 H1359 0.951 . S
C1378 C1376 1.388 . S
C1378 C1379 1.366 . S
C1379 C1378 1.366 . S
C1379 C1380 1.414 . S
C1379 C1382 1.499 . S
C1380 H1360 0.950 . S
C1380 C1379 1.414 . S
C1380 C1381 1.374 . S
C1381 H1361 0.950 . S
C1381 C1377 1.385 . S
C1381 C1380 1.374 . S
C1382 C1379 1.499 . S
C1382 C1383 1.373 . S
C1382 C1384 1.389 . S
C1383 H1362 0.950 . S
C1383 C1382 1.373 . S
C1383 C1399 1.377 . S
C1384 C1382 1.389 . S
C1384 C1385 1.524 . S
C1384 C1398 1.377 . S
C1385 C1384 1.524 . S
C1385 C1386 1.397 . S
C1385 C1390 1.363 . S
C1386 H1363 0.950 . S
C1386 C1385 1.397 . S
C1386 C1387 1.334 . S
C1387 H1364 0.950 . S
C1387 C1386 1.334 . S
C1387 C1388 1.287 . S
C1388 C1387 1.287 . S
C1388 C1389 1.524 . S
C1388 H1407 0.913 . S
C1389 H1365 0.950 . S
C1389 C1388 1.524 . S
C1389 C1390 1.415 . S
C1390 H1366 0.950 . S
C1390 C1385 1.363 . S
C1390 C1389 1.415 . S
C1391 H1367 0.951 . S
C1391 C1392 1.366 . S
C1391 C1393 1.388 . S
C1392 C1391 1.366 . S
C1392 C1396 1.385 . S
C1393 H1368 0.951 . S
C1393 C1391 1.388 . S
C1393 C1394 1.366 . S
C1394 C1393 1.366 . S
C1394 C1395 1.414 . S
C1394 C1397 1.499 . S
C1395 H1369 0.950 . S
C1395 C1394 1.414 . S
C1395 C1396 1.374 . S
C1396 H1370 0.950 . S
C1396 C1392 1.385 . S
C1396 C1395 1.374 . S
C1397 C1394 1.499 . S
C1397 C1398 1.373 . S
C1397 C1399 1.389 . S
C1398 H1371 0.950 . S
C1398 C1384 1.377 . S
C1398 C1397 1.373 . S
C1399 C1383 1.377 . S
C1399 C1397 1.389 . S
C1399 C1400 1.524 . S
C1400 C1399 1.524 . S
C1400 C1401 1.397 . S
C1400 C1405 1.363 . S
C1401 H1372 0.950 . S
C1401 C1400 1.397 . S
C1401 C1402 1.334 . S
C1402 H1373 0.950 . S
C1402 C1401 1.334 . S
C1402 C1403 1.287 . S
C1403 C1402 1.287 . S
C1403 C1404 1.524 . S
C1403 H1406 0.999 . S
C1404 H1374 0.950 . S
C1404 C1403 1.524 . S
C1404 C1405 1.415 . S
C1405 H1375 0.950 . S
C1405 C1400 1.363 . S
C1405 C1404 1.415 . S
H1406 C1403 0.999 . S
H1407 C1388 0.913 . S
H1408 C1426 0.951 . S
H1409 C1428 0.951 . S
H1410 C1430 0.950 . S
H1411 C1431 0.950 . S
H1412 C1433 0.950 . S
H1413 C1436 0.950 . S
H1414 C1437 0.950 . S
H1415 C1439 0.950 . S
H1416 C1440 0.950 . S
H1417 C1441 0.951 . S
H1418 C1443 0.951 . S
H1419 C1445 0.950 . S
H1420 C1446 0.950 . S
H1421 C1448 0.950 . S
H1422 C1451 0.950 . S
H1423 C1452 0.950 . S
H1424 C1454 0.950 . S
H1425 C1455 0.950 . S
C1426 H1408 0.951 . S
C1426 C1427 1.366 . S
C1426 C1428 1.388 . S
C1427 C1426 1.366 . S
C1427 C1431 1.385 . S
C1428 H1409 0.951 . S
C1428 C1426 1.388 . S
C1428 C1429 1.366 . S
C1429 C1428 1.366 . S
C1429 C1430 1.414 . S
C1429 C1432 1.499 . S
C1430 H1410 0.950 . S
C1430 C1429 1.414 . S
C1430 C1431 1.374 . S
C1431 H1411 0.950 . S
C1431 C1427 1.385 . S
C1431 C1430 1.374 . S
C1432 C1429 1.499 . S
C1432 C1433 1.373 . S
C1432 C1434 1.389 . S
C1433 H1412 0.950 . S
C1433 C1432 1.373 . S
C1433 C1449 1.377 . S
C1434 C1432 1.389 . S
C1434 C1435 1.524 . S
C1434 C1448 1.377 . S
C1435 C1434 1.524 . S
C1435 C1436 1.397 . S
C1435 C1440 1.363 . S
C1436 H1413 0.950 . S
C1436 C1435 1.397 . S
C1436 C1437 1.334 . S
C1437 H1414 0.950 . S
C1437 C1436 1.334 . S
C1437 C1438 1.287 . S
C1438 C1437 1.287 . S
C1438 C1439 1.524 . S
C1438 H1457 0.913 . S
C1439 H1415 0.950 . S
C1439 C1438 1.524 . S
C1439 C1440 1.415 . S
C1440 H1416 0.950 . S
C1440 C1435 1.363 . S
C1440 C1439 1.415 . S
C1441 H1417 0.951 . S
C1441 C1442 1.366 . S
C1441 C1443 1.388 . S
C1442 C1441 1.366 . S
C1442 C1446 1.385 . S
C1443 H1418 0.951 . S
C1443 C1441 1.388 . S
C1443 C1444 1.366 . S
C1444 C1443 1.366 . S
C1444 C1445 1.414 . S
C1444 C1447 1.499 . S
C1445 H1419 0.950 . S
C1445 C1444 1.414 . S
C1445 C1446 1.374 . S
C1446 H1420 0.950 . S
C1446 C1442 1.385 . S
C1446 C1445 1.374 . S
C1447 C1444 1.499 . S
C1447 C1448 1.373 . S
C1447 C1449 1.389 . S
C1448 H1421 0.950 . S
C1448 C1434 1.377 . S
C1448 C1447 1.373 . S
C1449 C1433 1.377 . S
C1449 C1447 1.389 . S
C1449 C1450 1.524 . S
C1450 C1449 1.524 . S
C1450 C1451 1.397 . S
C1450 C1455 1.363 . S
C1451 H1422 0.950 . S
C1451 C1450 1.397 . S
C1451 C1452 1.334 1_655 S
C1452 H1423 0.950 . S
C1452 C1451 1.334 1_455 S
C1452 C1453 1.287 . S
C1453 C1452 1.287 . S
C1453 C1454 1.524 1_455 S
C1453 H1456 0.999 . S
C1454 H1424 0.950 . S
C1454 C1453 1.524 1_655 S
C1454 C1455 1.415 . S
C1455 H1425 0.950 . S
C1455 C1450 1.363 . S
C1455 C1454 1.415 . S
H1456 C1453 0.999 . S
H1457 C1438 0.913 . S
H1458 C1476 0.951 . S
H1459 C1478 0.951 . S
H1460 C1480 0.950 . S
H1461 C1481 0.950 . S
H1462 C1483 0.950 . S
H1463 C1486 0.950 . S
H1464 C1487 0.950 . S
H1465 C1489 0.950 . S
H1466 C1490 0.950 . S
H1467 C1491 0.951 . S
H1468 C1493 0.951 . S
H1469 C1495 0.950 . S
H1470 C1496 0.950 . S
H1471 C1498 0.950 . S
H1472 C1501 0.950 . S
H1473 C1502 0.950 . S
H1474 C1504 0.950 . S
H1475 C1505 0.950 . S
C1476 H1458 0.951 . S
C1476 C1477 1.366 . S
C1476 C1478 1.388 . S
C1477 C1476 1.366 . S
C1477 C1481 1.385 . S
C1478 H1459 0.951 . S
C1478 C1476 1.388 . S
C1478 C1479 1.366 . S
C1479 C1478 1.366 . S
C1479 C1480 1.414 . S
C1479 C1482 1.499 . S
C1480 H1460 0.950 . S
C1480 C1479 1.414 . S
C1480 C1481 1.374 . S
C1481 H1461 0.950 . S
C1481 C1477 1.385 . S
C1481 C1480 1.374 . S
C1482 C1479 1.499 . S
C1482 C1483 1.373 . S
C1482 C1484 1.389 . S
C1483 H1462 0.950 . S
C1483 C1482 1.373 . S
C1483 C1499 1.377 . S
C1484 C1482 1.389 . S
C1484 C1485 1.524 . S
C1484 C1498 1.377 . S
C1485 C1484 1.524 . S
C1485 C1486 1.397 . S
C1485 C1490 1.363 . S
C1486 H1463 0.950 . S
C1486 C1485 1.397 . S
C1486 C1487 1.334 . S
C1487 H1464 0.950 . S
C1487 C1486 1.334 . S
C1487 C1488 1.287 . S
C1488 C1487 1.287 . S
C1488 C1489 1.524 . S
C1488 H1507 0.913 . S
C1489 H1465 0.950 . S
C1489 C1488 1.524 . S
C1489 C1490 1.415 . S
C1490 H1466 0.950 . S
C1490 C1485 1.363 . S
C1490 C1489 1.415 . S
C1491 H1467 0.951 . S
C1491 C1492 1.366 . S
C1491 C1493 1.388 . S
C1492 C1491 1.366 . S
C1492 C1496 1.385 . S
C1493 H1468 0.951 . S
C1493 C1491 1.388 . S
C1493 C1494 1.366 . S
C1494 C1493 1.366 . S
C1494 C1495 1.414 . S
C1494 C1497 1.499 . S
C1495 H1469 0.950 . S
C1495 C1494 1.414 . S
C1495 C1496 1.374 . S
C1496 H1470 0.950 . S
C1496 C1492 1.385 . S
C1496 C1495 1.374 . S
C1497 C1494 1.499 . S
C1497 C1498 1.373 . S
C1497 C1499 1.389 . S
C1498 H1471 0.950 . S
C1498 C1484 1.377 . S
C1498 C1497 1.373 . S
C1499 C1483 1.377 . S
C1499 C1497 1.389 . S
C1499 C1500 1.524 . S
C1500 C1499 1.524 . S
C1500 C1501 1.397 . S
C1500 C1505 1.363 . S
C1501 H1472 0.950 . S
C1501 C1500 1.397 . S
C1501 C1502 1.334 . S
C1502 H1473 0.950 . S
C1502 C1501 1.334 . S
C1502 C1503 1.287 . S
C1503 C1502 1.287 . S
C1503 C1504 1.524 . S
C1503 H1506 0.999 . S
C1504 H1474 0.950 . S
C1504 C1503 1.524 . S
C1504 C1505 1.415 . S
C1505 H1475 0.950 . S
C1505 C1500 1.363 . S
C1505 C1504 1.415 . S
H1506 C1503 0.999 . S
H1507 C1488 0.913 . S
H1508 C1526 0.951 . S
H1509 C1528 0.951 . S
H1510 C1530 0.950 . S
H1511 C1531 0.950 . S
H1512 C1533 0.950 . S
H1513 C1536 0.950 . S
H1514 C1537 0.950 . S
H1515 C1539 0.950 . S
H1516 C1540 0.950 . S
H1517 C1541 0.951 . S
H1518 C1543 0.951 . S
H1519 C1545 0.950 . S
H1520 C1546 0.950 . S
H1521 C1548 0.950 . S
H1522 C1551 0.950 . S
H1523 C1552 0.950 . S
H1524 C1554 0.950 . S
H1525 C1555 0.950 . S
C1526 H1508 0.951 . S
C1526 C1527 1.366 . S
C1526 C1528 1.388 . S
C1527 C1526 1.366 . S
C1527 C1531 1.385 . S
C1528 H1509 0.951 . S
C1528 C1526 1.388 . S
C1528 C1529 1.366 . S
C1529 C1528 1.366 . S
C1529 C1530 1.414 . S
C1529 C1532 1.499 . S
C1530 H1510 0.950 . S
C1530 C1529 1.414 . S
C1530 C1531 1.374 . S
C1531 H1511 0.950 . S
C1531 C1527 1.385 . S
C1531 C1530 1.374 . S
C1532 C1529 1.499 . S
C1532 C1533 1.373 . S
C1532 C1534 1.389 . S
C1533 H1512 0.950 . S
C1533 C1532 1.373 . S
C1533 C1549 1.377 . S
C1534 C1532 1.389 . S
C1534 C1535 1.524 . S
C1534 C1548 1.377 . S
C1535 C1534 1.524 . S
C1535 C1536 1.397 . S
C1535 C1540 1.363 . S
C1536 H1513 0.950 . S
C1536 C1535 1.397 . S
C1536 C1537 1.334 . S
C1537 H1514 0.950 . S
C1537 C1536 1.334 . S
C1537 C1538 1.287 . S
C1538 C1537 1.287 . S
C1538 C1539 1.524 . S
C1538 H1557 0.913 . S
C1539 H1515 0.950 . S
C1539 C1538 1.524 . S
C1539 C1540 1.415 . S
C1540 H1516 0.950 . S
C1540 C1535 1.363 . S
C1540 C1539 1.415 . S
C1541 H1517 0.951 . S
C1541 C1542 1.366 . S
C1541 C1543 1.388 . S
C1542 C1541 1.366 . S
C1542 C1546 1.385 . S
C1543 H1518 0.951 . S
C1543 C1541 1.388 . S
C1543 C1544 1.366 . S
C1544 C1543 1.366 . S
C1544 C1545 1.414 . S
C1544 C1547 1.499 . S
C1545 H1519 0.950 . S
C1545 C1544 1.414 . S
C1545 C1546 1.374 . S
C1546 H1520 0.950 . S
C1546 C1542 1.385 . S
C1546 C1545 1.374 . S
C1547 C1544 1.499 . S
C1547 C1548 1.373 . S
C1547 C1549 1.389 . S
C1548 H1521 0.950 . S
C1548 C1534 1.377 . S
C1548 C1547 1.373 . S
C1549 C1533 1.377 . S
C1549 C1547 1.389 . S
C1549 C1550 1.524 . S
C1550 C1549 1.524 . S
C1550 C1551 1.397 . S
C1550 C1555 1.363 . S
C1551 H1522 0.950 . S
C1551 C1550 1.397 . S
C1551 C1552 1.334 . S
C1552 H1523 0.950 . S
C1552 C1551 1.334 . S
C1552 C1553 1.287 . S
C1553 C1552 1.287 . S
C1553 C1554 1.524 . S
C1553 H1556 0.999 . S
C1554 H1524 0.950 . S
C1554 C1553 1.524 . S
C1554 C1555 1.415 . S
C1555 H1525 0.950 . S
C1555 C1550 1.363 . S
C1555 C1554 1.415 . S
H1556 C1553 0.999 . S
H1557 C1538 0.913 . S
H1558 C1576 0.951 . S
H1559 C1578 0.951 . S
H1560 C1580 0.950 . S
H1561 C1581 0.950 . S
H1562 C1583 0.950 . S
H1563 C1586 0.950 . S
H1564 C1587 0.950 . S
H1565 C1589 0.950 . S
H1566 C1590 0.950 . S
H1567 C1591 0.951 . S
H1568 C1593 0.951 . S
H1569 C1595 0.950 . S
H1570 C1596 0.950 . S
H1571 C1598 0.950 . S
H1572 C1601 0.950 . S
H1573 C1602 0.950 . S
H1574 C1604 0.950 . S
H1575 C1605 0.950 . S
C1576 H1558 0.951 . S
C1576 C1577 1.366 . S
C1576 C1578 1.388 . S
C1577 C1576 1.366 . S
C1577 C1581 1.385 . S
C1578 H1559 0.951 . S
C1578 C1576 1.388 . S
C1578 C1579 1.366 . S
C1579 C1578 1.366 . S
C1579 C1580 1.414 . S
C1579 C1582 1.499 . S
C1580 H1560 0.950 . S
C1580 C1579 1.414 . S
C1580 C1581 1.374 . S
C1581 H1561 0.950 . S
C1581 C1577 1.385 . S
C1581 C1580 1.374 . S
C1582 C1579 1.499 . S
C1582 C1583 1.373 . S
C1582 C1584 1.389 . S
C1583 H1562 0.950 . S
C1583 C1582 1.373 . S
C1583 C1599 1.377 . S
C1584 C1582 1.389 . S
C1584 C1585 1.524 . S
C1584 C1598 1.377 . S
C1585 C1584 1.524 . S
C1585 C1586 1.397 . S
C1585 C1590 1.363 . S
C1586 H1563 0.950 . S
C1586 C1585 1.397 . S
C1586 C1587 1.334 . S
C1587 H1564 0.950 . S
C1587 C1586 1.334 . S
C1587 C1588 1.287 . S
C1588 C1587 1.287 . S
C1588 C1589 1.524 . S
C1588 H1607 0.913 . S
C1589 H1565 0.950 . S
C1589 C1588 1.524 . S
C1589 C1590 1.415 . S
C1590 H1566 0.950 . S
C1590 C1585 1.363 . S
C1590 C1589 1.415 . S
C1591 H1567 0.951 . S
C1591 C1592 1.366 . S
C1591 C1593 1.388 . S
C1592 C1591 1.366 . S
C1592 C1596 1.385 . S
C1593 H1568 0.951 . S
C1593 C1591 1.388 . S
C1593 C1594 1.366 . S
C1594 C1593 1.366 . S
C1594 C1595 1.414 . S
C1594 C1597 1.499 . S
C1595 H1569 0.950 . S
C1595 C1594 1.414 . S
C1595 C1596 1.374 . S
C1596 H1570 0.950 . S
C1596 C1592 1.385 . S
C1596 C1595 1.374 . S
C1597 C1594 1.499 . S
C1597 C1598 1.373 . S
C1597 C1599 1.389 . S
C1598 H1571 0.950 . S
C1598 C1584 1.377 . S
C1598 C1597 1.373 . S
C1599 C1583 1.377 . S
C1599 C1597 1.389 . S
C1599 C1600 1.524 . S
C1600 C1599 1.524 . S
C1600 C1601 1.397 . S
C1600 C1605 1.363 . S
C1601 H1572 0.950 . S
C1601 C1600 1.397 . S
C1601 C1602 1.334 . S
C1602 H1573 0.950 . S
C1602 C1601 1.334 . S
C1602 C1603 1.287 . S
C1603 C1602 1.287 . S
C1603 C1604 1.524 . S
C1603 H1606 0.999 . S
C1604 H1574 0.950 . S
C1604 C1603 1.524 . S
C1604 C1605 1.415 . S
C1605 H1575 0.950 . S
C1605 C1600 1.363 . S
C1605 C1604 1.415 . S
H1606 C1603 0.999 . S
H1607 C1588 0.913 . S
C427 C58 1.466 . S
C442 C128 1.445 . S
C492 C212 1.446 . S
C477 C68 1.466 . S
C542 C211 1.451 . S
C527 C40 1.451 . S
C577 C50 1.451 . S
C592 C127 1.452 . S
C642 C308 1.447 . S
C627 C23 1.469 . S
C692 C392 1.446 . S
C677 C32 1.467 . S
C727 C5 1.454 . S
C742 C391 1.453 . S
C777 C14 1.453 . S
C792 C307 1.452 . S
C842 C130 1.333 . S
C827 C13 1.499 . S
C892 C214 1.334 . S
C877 C4 1.499 . S
C942 C226 1.399 . S
C927 C31 1.527 . S
C992 C142 1.399 . S
C977 C22 1.527 . S
C1042 C310 1.336 . S
C1027 C49 1.500 . S
C1077 C41 1.501 . S
C1092 C394 1.333 . S
C1142 C382 1.400 . S
C1127 C67 1.528 . S
C1177 C59 1.529 . S
C1192 C298 1.400 . S
C1242 C139 1.549 . S
C1227 C7 1.547 . S
C1292 C223 1.546 . S
C1277 C16 1.544 . S
C1327 C25 1.539 . S
C1342 C224 1.522 . S
C1392 C140 1.520 . S
C1377 C34 1.537 . S
C1442 C295 1.548 . S
C1427 C43 1.548 . S
C1477 C52 1.546 . S
C1492 C379 1.550 . S
C1527 C61 1.541 . S
C1542 C380 1.522 . S
C1577 C70 1.539 . S
C1592 C296 1.524 . S
