# Generated by pormake.
# Topology the, (3,8)-cn, num edge types: 1
# Building blocks:
#     Node 0, Type 0, BuildingBlock: BELTOD_clean_linker_0, # of connection points: 3
#     Node 1, Type 0, BuildingBlock: BELTOD_clean_linker_0, # of connection points: 3
#     Node 2, Type 0, BuildingBlock: BELTOD_clean_linker_0, # of connection points: 3
#     Node 3, Type 0, BuildingBlock: BELTOD_clean_linker_0, # of connection points: 3
#     Node 4, Type 0, BuildingBlock: BELTOD_clean_linker_0, # of connection points: 3
#     Node 5, Type 0, BuildingBlock: BELTOD_clean_linker_0, # of connection points: 3
#     Node 6, Type 0, BuildingBlock: BELTOD_clean_linker_0, # of connection points: 3
#     Node 7, Type 0, BuildingBlock: BELTOD_clean_linker_0, # of connection points: 3
#     Node 8, Type 1, BuildingBlock: GIZVER_clean_sbu_0, # of connection points: 8
#     Node 9, Type 1, BuildingBlock: GIZVER_clean_sbu_0, # of connection points: 8
#     Node 10, Type 1, BuildingBlock: GIZVER_clean_sbu_0, # of connection points: 8
#     Edge 11, Type (0, 1), BuildingBlock: XIVTED_clean_linker_0, # of connection points: 2
#     Edge 12, Type (0, 1), BuildingBlock: XIVTED_clean_linker_0, # of connection points: 2
#     Edge 13, Type (0, 1), BuildingBlock: XIVTED_clean_linker_0, # of connection points: 2
#     Edge 14, Type (0, 1), BuildingBlock: XIVTED_clean_linker_0, # of connection points: 2
#     Edge 15, Type (0, 1), BuildingBlock: XIVTED_clean_linker_0, # of connection points: 2
#     Edge 16, Type (0, 1), BuildingBlock: XIVTED_clean_linker_0, # of connection points: 2
#     Edge 17, Type (0, 1), BuildingBlock: XIVTED_clean_linker_0, # of connection points: 2
#     Edge 18, Type (0, 1), BuildingBlock: XIVTED_clean_linker_0, # of connection points: 2
#     Edge 19, Type (0, 1), BuildingBlock: XIVTED_clean_linker_0, # of connection points: 2
#     Edge 20, Type (0, 1), BuildingBlock: XIVTED_clean_linker_0, # of connection points: 2
#     Edge 21, Type (0, 1), BuildingBlock: XIVTED_clean_linker_0, # of connection points: 2
#     Edge 22, Type (0, 1), BuildingBlock: XIVTED_clean_linker_0, # of connection points: 2
#     Edge 23, Type (0, 1), BuildingBlock: XIVTED_clean_linker_0, # of connection points: 2
#     Edge 24, Type (0, 1), BuildingBlock: XIVTED_clean_linker_0, # of connection points: 2
#     Edge 25, Type (0, 1), BuildingBlock: XIVTED_clean_linker_0, # of connection points: 2
#     Edge 26, Type (0, 1), BuildingBlock: XIVTED_clean_linker_0, # of connection points: 2
#     Edge 27, Type (0, 1), BuildingBlock: XIVTED_clean_linker_0, # of connection points: 2
#     Edge 28, Type (0, 1), BuildingBlock: XIVTED_clean_linker_0, # of connection points: 2
#     Edge 29, Type (0, 1), BuildingBlock: XIVTED_clean_linker_0, # of connection points: 2
#     Edge 30, Type (0, 1), BuildingBlock: XIVTED_clean_linker_0, # of connection points: 2
#     Edge 31, Type (0, 1), BuildingBlock: XIVTED_clean_linker_0, # of connection points: 2
#     Edge 32, Type (0, 1), BuildingBlock: XIVTED_clean_linker_0, # of connection points: 2
#     Edge 33, Type (0, 1), BuildingBlock: XIVTED_clean_linker_0, # of connection points: 2
#     Edge 34, Type (0, 1), BuildingBlock: XIVTED_clean_linker_0, # of connection points: 2
# Relax obj value: 0.046
# Max RMSD: 0.141
# Mean RMSD: 0.071
data_MOF--net-the--node1-GIZVER_clean_sbu_0--node2-BELTOD_clean_linker_0--edge1-XIVTED_clean_linker_0
_symmetry_space_group_name_H-M    P1
_symmetry_Int_Tables_number       1
_symmetry_cell_setting            triclinic
loop_
_symmetry_equiv_pos_as_xyz
'x, y, z'
_cell_length_a     46.988621
_cell_length_b     44.604507
_cell_length_c     40.658245
_cell_angle_alpha  86.333162
_cell_angle_beta   94.250582
_cell_angle_gamma 102.29199
loop_
_atom_site_label
_atom_site_type_symbol
_atom_site_fract_x
_atom_site_fract_y
_atom_site_fract_z
_atom_type_partial_charge
P0 P 0.3543 0.37221 0.43693 0.0
H1 H 0.32766 0.40818 0.47841 0.0
H2 H 0.27733 0.4065 0.49001 0.0
H3 H 0.2487 0.32931 0.42768 0.0
H4 H 0.2994 0.33209 0.41515 0.0
H5 H 0.40212 0.34904 0.41375 0.0
H6 H 0.41659 0.29951 0.42144 0.0
H7 H 0.34389 0.26536 0.4823 0.0
H8 H 0.32953 0.31504 0.47458 0.0
H9 H 0.37102 0.43442 0.40784 0.0
H10 H 0.34483 0.34252 0.37364 0.0
O11 O 0.3767 0.39617 0.46195 0.0
H12 H 0.37823 0.45466 0.35112 0.0
H13 H 0.35303 0.36232 0.31696 0.0
C14 C 0.31719 0.36998 0.44632 0.0
C15 C 0.31059 0.39076 0.46742 0.0
C16 C 0.28174 0.38956 0.47427 0.0
C17 C 0.2589 0.36744 0.46018 0.0
C18 C 0.26569 0.34669 0.43886 0.0
C19 C 0.29463 0.34813 0.4318 0.0
C20 C 0.36426 0.33541 0.44269 0.0
C21 C 0.38916 0.33083 0.42854 0.0
C22 C 0.39753 0.30261 0.43316 0.0
C23 C 0.38123 0.27854 0.45232 0.0
C24 C 0.35653 0.28335 0.46696 0.0
C25 C 0.3483 0.31173 0.46248 0.0
C26 C 0.35831 0.38694 0.39496 0.0
C27 C 0.36702 0.41859 0.38809 0.0
C28 C 0.37119 0.43009 0.35564 0.0
C29 C 0.36664 0.41009 0.32945 0.0
C30 C 0.35661 0.37843 0.33642 0.0
C31 C 0.35225 0.36701 0.36888 0.0
P32 P 0.71815 0.29515 0.26372 0.0
H33 H 0.77984 0.29509 0.27753 0.0
H34 H 0.81794 0.32427 0.31366 0.0
H35 H 0.75625 0.37482 0.34417 0.0
H36 H 0.71782 0.34444 0.3086 0.0
H37 H 0.7246 0.23221 0.28146 0.0
H38 H 0.6941 0.18905 0.31103 0.0
H39 H 0.6359 0.24773 0.33127 0.0
H40 H 0.6666 0.29083 0.30171 0.0
H41 H 0.72159 0.361 0.24394 0.0
H42 H 0.66172 0.27448 0.22942 0.0
O43 O 0.73434 0.27951 0.23603 0.0
H44 H 0.68844 0.38755 0.20983 0.0
H45 H 0.62906 0.30046 0.19476 0.0
C46 C 0.74616 0.31818 0.28967 0.0
C47 C 0.77452 0.31265 0.29174 0.0
C48 C 0.79641 0.32951 0.31241 0.0
C49 C 0.79043 0.3523 0.33165 0.0
C50 C 0.76172 0.3574 0.3299 0.0
C51 C 0.73975 0.34028 0.30931 0.0
C52 C 0.69744 0.26447 0.2887 0.0
C53 C 0.70538 0.23582 0.29243 0.0
C54 C 0.68799 0.2112 0.30949 0.0
C55 C 0.66234 0.21485 0.32309 0.0
C56 C 0.6552 0.24403 0.3205 0.0
C57 C 0.67277 0.2687 0.30372 0.0
C58 C 0.69361 0.31587 0.24034 0.0
C59 C 0.70116 0.34775 0.23386 0.0
C60 C 0.68232 0.36286 0.21395 0.0
C61 C 0.65582 0.34624 0.1998 0.0
C62 C 0.64882 0.31419 0.20589 0.0
C63 C 0.66755 0.29924 0.22576 0.0
P64 P 0.73743 0.7545 0.27949 0.0
H65 H 0.7207 0.81386 0.2683 0.0
H66 H 0.69608 0.84324 0.30144 0.0
H67 H 0.68887 0.77105 0.37839 0.0
H68 H 0.71323 0.74162 0.34479 0.0
H69 H 0.742 0.68942 0.28259 0.0
H70 H 0.77431 0.66123 0.31486 0.0
H71 H 0.815 0.74355 0.36495 0.0
H72 H 0.78271 0.77195 0.3319 0.0
H73 H 0.74007 0.73527 0.21269 0.0
H74 H 0.67829 0.71803 0.28845 0.0
O75 O 0.75971 0.77962 0.25587 0.0
H76 H 0.70669 0.69919 0.1777 0.0
H77 H 0.64439 0.6824 0.25332 0.0
C78 C 0.71923 0.77582 0.30433 0.0
C79 C 0.71397 0.80444 0.29239 0.0
C80 C 0.70001 0.8213 0.31145 0.0
C81 C 0.69072 0.80967 0.34274 0.0
C82 C 0.69562 0.78065 0.35437 0.0
C83 C 0.7097 0.76387 0.33528 0.0
C84 C 0.75972 0.7328 0.30504 0.0
C85 C 0.75764 0.70148 0.30064 0.0
C86 C 0.77615 0.68527 0.31927 0.0
C87 C 0.79724 0.70007 0.34263 0.0
C88 C 0.79922 0.73151 0.34698 0.0
C89 C 0.78063 0.7477 0.32831 0.0
C90 C 0.71142 0.72983 0.25289 0.0
C91 C 0.71906 0.72412 0.22156 0.0
C92 C 0.69988 0.70349 0.20151 0.0
C93 C 0.67272 0.68791 0.21255 0.0
C94 C 0.6652 0.69374 0.24409 0.0
C95 C 0.68445 0.71438 0.26412 0.0
P96 P 0.28564 0.71972 0.28268 0.0
H97 H 0.32629 0.77656 0.2663 0.0
H98 H 0.35856 0.81507 0.29961 0.0
H99 H 0.33118 0.76131 0.38833 0.0
H100 H 0.29941 0.72254 0.35465 0.0
H101 H 0.2818 0.69959 0.21519 0.0
H102 H 0.30821 0.66811 0.18747 0.0
H103 H 0.35866 0.65547 0.27874 0.0
H104 H 0.3327 0.68813 0.30595 0.0
H105 H 0.23847 0.7346 0.31673 0.0
H106 H 0.2691 0.65295 0.29875 0.0
O107 O 0.2697 0.73991 0.25365 0.0
H108 H 0.19647 0.70303 0.34337 0.0
H109 H 0.2277 0.62138 0.32587 0.0
C110 C 0.31012 0.74698 0.308 0.0
C111 C 0.32725 0.77309 0.29293 0.0
C112 C 0.34555 0.79521 0.31205 0.0
C113 C 0.34724 0.79156 0.34673 0.0
C114 C 0.33053 0.76485 0.36171 0.0
C115 C 0.31219 0.74271 0.34249 0.0
C116 C 0.30568 0.69667 0.26246 0.0
C117 C 0.29873 0.69028 0.22918 0.0
C118 C 0.31367 0.67191 0.21342 0.0
C119 C 0.33567 0.65914 0.23076 0.0
C120 C 0.34226 0.66531 0.26438 0.0
C121 C 0.32739 0.68391 0.28005 0.0
C122 C 0.25685 0.6962 0.30559 0.0
C123 C 0.23634 0.7099 0.31889 0.0
C124 C 0.2124 0.69181 0.33424 0.0
C125 C 0.20851 0.65959 0.33652 0.0
C126 C 0.22967 0.64606 0.32398 0.0
C127 C 0.25358 0.66418 0.30865 0.0
P128 P 0.34152 0.67255 0.68632 0.0
H129 H 0.31528 0.65703 0.6216 0.0
H130 H 0.26538 0.6409 0.59929 0.0
H131 H 0.23391 0.65094 0.69441 0.0
H132 H 0.28467 0.66651 0.71691 0.0
H133 H 0.39966 0.70155 0.66692 0.0
H134 H 0.4232 0.75452 0.65293 0.0
H135 H 0.34268 0.78344 0.66496 0.0
H136 H 0.31908 0.7299 0.67928 0.0
H137 H 0.31718 0.62302 0.73402 0.0
H138 H 0.38497 0.70508 0.73433 0.0
O139 O 0.35888 0.65 0.66773 0.0
H140 H 0.33511 0.60773 0.78919 0.0
H141 H 0.4041 0.68928 0.78775 0.0
C142 C 0.30375 0.66241 0.67105 0.0
C143 C 0.29769 0.65579 0.63775 0.0
C144 C 0.26897 0.64683 0.62489 0.0
C145 C 0.24535 0.64465 0.64492 0.0
C146 C 0.25148 0.65199 0.67832 0.0
C147 C 0.28048 0.66099 0.69123 0.0
C148 C 0.35751 0.7117 0.6737 0.0
C149 C 0.38691 0.71917 0.66627 0.0
C150 C 0.40045 0.74955 0.65858 0.0
C151 C 0.38485 0.77321 0.65802 0.0
C152 C 0.3552 0.76567 0.66503 0.0
C153 C 0.34171 0.73513 0.67318 0.0
C154 C 0.34923 0.66553 0.73006 0.0
C155 C 0.33545 0.63816 0.74624 0.0
C156 C 0.34616 0.62917 0.77766 0.0
C157 C 0.37144 0.64699 0.79321 0.0
C158 C 0.38436 0.67502 0.77729 0.0
C159 C 0.37338 0.68414 0.74625 0.0
P160 P 0.32789 0.31665 0.6775 0.0
H161 H 0.38533 0.31363 0.70701 0.0
H162 H 0.41061 0.33087 0.75921 0.0
H163 H 0.33044 0.34834 0.7917 0.0
H164 H 0.30502 0.32996 0.73989 0.0
H165 H 0.32292 0.29885 0.60982 0.0
H166 H 0.33579 0.25618 0.58363 0.0
H167 H 0.35527 0.2156 0.6798 0.0
H168 H 0.34176 0.25818 0.70587 0.0
H169 H 0.30375 0.37021 0.68362 0.0
H170 H 0.27099 0.27572 0.66001 0.0
O171 O 0.34764 0.34543 0.65541 0.0
H172 H 0.25524 0.38088 0.67193 0.0
H173 H 0.22193 0.28622 0.64829 0.0
C174 C 0.34336 0.32068 0.71936 0.0
C175 C 0.37296 0.3202 0.72578 0.0
C176 C 0.38744 0.33033 0.75556 0.0
C177 C 0.37267 0.34158 0.77936 0.0
C178 C 0.34245 0.33978 0.77394 0.0
C179 C 0.32791 0.32944 0.74411 0.0
C180 C 0.33198 0.28197 0.6597 0.0
C181 C 0.32949 0.28049 0.62527 0.0
C182 C 0.33697 0.25616 0.61034 0.0
C183 C 0.34704 0.23278 0.62962 0.0
C184 C 0.34756 0.23324 0.66426 0.0
C185 C 0.34004 0.25769 0.67921 0.0
C186 C 0.29097 0.32226 0.67262 0.0
C187 C 0.28594 0.35163 0.67637 0.0
C188 C 0.2581 0.35763 0.66984 0.0
C189 C 0.23463 0.33436 0.65926 0.0
C190 C 0.2396 0.30466 0.65619 0.0
C191 C 0.26759 0.29861 0.663 0.0
P192 P 0.72914 0.29697 0.73743 0.0
H193 H 0.73341 0.2351 0.72269 0.0
H194 H 0.70437 0.19671 0.68677 0.0
H195 H 0.64785 0.25948 0.65592 0.0
H196 H 0.67769 0.29812 0.69131 0.0
H197 H 0.78867 0.32284 0.76173 0.0
H198 H 0.83117 0.35325 0.73526 0.0
H199 H 0.78069 0.35076 0.64185 0.0
H200 H 0.73818 0.32009 0.66861 0.0
H201 H 0.6697 0.28665 0.75941 0.0
H202 H 0.74435 0.36183 0.75451 0.0
O203 O 0.74142 0.27731 0.76975 0.0
H204 H 0.644 0.31847 0.78813 0.0
H205 H 0.71886 0.39364 0.78322 0.0
C206 C 0.70731 0.2692 0.71029 0.0
C207 C 0.71469 0.24056 0.70828 0.0
C208 C 0.69793 0.21852 0.68781 0.0
C209 C 0.67346 0.22472 0.66864 0.0
C210 C 0.66659 0.25386 0.67014 0.0
C211 C 0.68347 0.27594 0.69062 0.0
C212 C 0.76041 0.31875 0.71704 0.0
C213 C 0.78679 0.32862 0.7355 0.0
C214 C 0.81103 0.34624 0.72037 0.0
C215 C 0.80939 0.35439 0.6864 0.0
C216 C 0.78282 0.34451 0.66796 0.0
C217 C 0.75847 0.32703 0.68323 0.0
C218 C 0.70868 0.32202 0.75392 0.0
C219 C 0.68033 0.31021 0.7638 0.0
C220 C 0.66568 0.32842 0.78034 0.0
C221 C 0.67936 0.35865 0.78798 0.0
C222 C 0.70777 0.37041 0.77796 0.0
C223 C 0.72227 0.35226 0.76117 0.0
P224 P 0.76141 0.73425 0.68686 0.0
H225 H 0.82145 0.726 0.69126 0.0
H226 H 0.84889 0.70253 0.65519 0.0
H227 H 0.77174 0.67801 0.58971 0.0
H228 H 0.74434 0.70154 0.62604 0.0
H229 H 0.77312 0.77469 0.62875 0.0
H230 H 0.74375 0.80485 0.59413 0.0
H231 H 0.67061 0.76994 0.65424 0.0
H232 H 0.69998 0.73931 0.68838 0.0
H233 H 0.71978 0.67617 0.67598 0.0
H234 H 0.75786 0.73051 0.75838 0.0
O235 O 0.78512 0.76003 0.70864 0.0
H236 H 0.69277 0.63735 0.71386 0.0
H237 H 0.73056 0.69237 0.79617 0.0
C238 C 0.78106 0.71582 0.66103 0.0
C239 C 0.81047 0.71566 0.66912 0.0
C240 C 0.82613 0.70241 0.6484 0.0
C241 C 0.8125 0.68886 0.61942 0.0
C242 C 0.78276 0.68831 0.61187 0.0
C243 C 0.76714 0.70175 0.63256 0.0
C244 C 0.73861 0.7546 0.66085 0.0
C245 C 0.75063 0.77323 0.63419 0.0
C246 C 0.73388 0.79053 0.61452 0.0
C247 C 0.70488 0.78974 0.62146 0.0
C248 C 0.69274 0.77062 0.64796 0.0
C249 C 0.70957 0.75325 0.66763 0.0
C250 C 0.74109 0.70597 0.71444 0.0
C251 C 0.72238 0.6797 0.70221 0.0
C252 C 0.70683 0.65763 0.72385 0.0
C253 C 0.70977 0.66161 0.75806 0.0
C254 C 0.72833 0.68824 0.77005 0.0
C255 C 0.74381 0.71022 0.74842 0.0
Co256 Co 0.06012 0.46671 0.53323 0.0
Co257 Co 0.03829 0.45536 0.47299 0.0
Co258 Co 0.00658 0.50284 0.50495 0.0
O259 O 0.02264 0.46475 0.51092 0.0
H260 H 0.00835 0.44729 0.51865 0.0
O261 O 0.99047 0.54075 0.49856 0.0
Co262 Co 0.95084 0.53911 0.48202 0.0
Co263 Co 0.97968 0.54932 0.5394 0.0
H264 H 0.00408 0.55808 0.48938 0.0
O265 O 0.04693 0.41684 0.4667 0.0
O266 O 0.07547 0.45628 0.49264 0.0
O267 O 0.04301 0.48698 0.43829 0.0
O268 O 0.03406 0.52276 0.46964 0.0
O269 O 0.97697 0.48198 0.47101 0.0
O270 O 0.91527 0.54066 0.46585 0.0
O271 O 0.955 0.57913 0.46711 0.0
O272 O 0.94124 0.49669 0.49356 0.0
O273 O 0.97926 0.48281 0.54019 0.0
O274 O 0.97771 0.51845 0.57518 0.0
O275 O 0.94139 0.55 0.52588 0.0
O276 O 0.9759 0.58832 0.54711 0.0
C277 C 0.07991 0.43688 0.56189 0.0
C278 C 0.06288 0.52761 0.53651 0.0
C279 C 0.04457 0.51493 0.44407 0.0
C280 C 0.07185 0.42917 0.48113 0.0
C281 C 0.92727 0.5692 0.45901 0.0
C282 C 0.94969 0.47927 0.47444 0.0
C283 C 0.97232 0.49055 0.56776 0.0
C284 C 0.94904 0.57759 0.53681 0.0
O285 O 0.09327 0.46516 0.55593 0.0
O286 O 0.05368 0.42691 0.54865 0.0
O287 O 0.03559 0.52439 0.53941 0.0
O288 O 0.07207 0.5086 0.52047 0.0
Co289 Co 0.54767 0.94988 0.48585 0.0
Co290 Co 0.56049 0.97533 0.54276 0.0
Co291 Co 0.51468 0.00751 0.50311 0.0
O292 O 0.55001 0.99006 0.50097 0.0
H293 H 0.56621 0.00491 0.49243 0.0
O294 O 0.47961 0.02585 0.50484 0.0
Co295 Co 0.48441 0.06716 0.51883 0.0
Co296 Co 0.46819 0.03998 0.46199 0.0
H297 H 0.46352 0.01179 0.51463 0.0
O298 O 0.59821 0.97111 0.55326 0.0
O299 O 0.56114 0.93626 0.53061 0.0
O300 O 0.53271 0.96982 0.57628 0.0
O301 O 0.4972 0.97783 0.53984 0.0
O302 O 0.53755 0.03671 0.53605 0.0
O303 O 0.48514 0.10424 0.53245 0.0
O304 O 0.44721 0.06373 0.53032 0.0
O305 O 0.52406 0.0763 0.50979 0.0
O306 O 0.53174 0.03691 0.46603 0.0
O307 O 0.49572 0.04145 0.42856 0.0
O308 O 0.47457 0.08048 0.4734 0.0
O309 O 0.4326 0.05383 0.45143 0.0
C310 C 0.57503 0.92751 0.46448 0.0
C311 C 0.4896 0.94856 0.47666 0.0
C312 C 0.50579 0.96688 0.56776 0.0
C313 C 0.5879 0.94366 0.5431 0.0
C314 C 0.45799 0.09221 0.53753 0.0
C315 C 0.54126 0.06569 0.53061 0.0
C316 C 0.52275 0.04555 0.43721 0.0
C317 C 0.44827 0.07964 0.46116 0.0
O318 O 0.54859 0.9137 0.4708 0.0
O319 O 0.58457 0.95604 0.47232 0.0
O320 O 0.49211 0.97753 0.47093 0.0
O321 O 0.50821 0.93847 0.49627 0.0
Co322 Co 0.47534 0.52149 0.07939 0.0
Co323 Co 0.46114 0.46509 0.06022 0.0
Co324 Co 0.5082 0.50661 0.01262 0.0
O325 O 0.47224 0.5029 0.03748 0.0
H326 H 0.456 0.50728 0.02338 0.0
O327 O 0.54451 0.51053 0.98859 0.0
Co328 Co 0.54285 0.49482 0.94583 0.0
Co329 Co 0.55448 0.54927 0.96828 0.0
H330 H 0.56068 0.50607 1.00277 0.0
O331 O 0.42404 0.45085 0.0772 0.0
O332 O 0.46314 0.48087 0.10174 0.0
O333 O 0.48932 0.43947 0.0628 0.0
O334 O 0.52518 0.47567 0.04278 0.0
O335 O 0.4865 0.47342 0.98312 0.0
O336 O 0.54362 0.4791 0.90706 0.0
O337 O 0.57917 0.4863 0.94777 0.0
O338 O 0.50439 0.5001 0.93909 0.0
O339 O 0.49085 0.53711 0.98255 0.0
O340 O 0.52569 0.57472 0.96353 0.0
O341 O 0.55813 0.53681 0.92653 0.0
O342 O 0.5927 0.56505 0.96007 0.0
C343 C 0.4485 0.54069 0.10539 0.0
C344 C 0.53308 0.53749 0.07181 0.0
C345 C 0.51616 0.4498 0.05827 0.0
C346 C 0.4367 0.46491 0.10303 0.0
C347 C 0.56941 0.47606 0.91874 0.0
C348 C 0.48565 0.47841 0.95173 0.0
C349 C 0.49896 0.56307 0.96708 0.0
C350 C 0.58446 0.55315 0.93169 0.0
O351 O 0.47488 0.53964 0.11684 0.0
O352 O 0.43854 0.52827 0.07743 0.0
O353 O 0.53034 0.54052 0.04048 0.0
O354 O 0.51446 0.51771 0.08692 0.0
H355 H 0.21038 0.35659 0.41686 0.0
H356 H 0.12461 0.44612 0.51495 0.0
H357 H 0.23714 0.37824 0.51807 0.0
H358 H 0.0768 0.37815 0.44911 0.0
H359 H 0.16681 0.42294 0.51463 0.0
H360 H 0.16164 0.36436 0.42596 0.0
C361 C 0.20593 0.36234 0.44117 0.0
C362 C 0.22816 0.3674 0.46655 0.0
C363 C 0.14694 0.41277 0.50066 0.0
C364 C 0.17272 0.37695 0.4767 0.0
C365 C 0.12273 0.42598 0.50083 0.0
C366 C 0.0969 0.41387 0.48235 0.0
C367 C 0.14584 0.38799 0.4808 0.0
C368 C 0.09623 0.38815 0.46385 0.0
C369 C 0.17811 0.36682 0.44627 0.0
C370 C 0.22103 0.37508 0.49744 0.0
N371 N 0.1206 0.37635 0.46303 0.0
N372 N 0.1941 0.38022 0.50146 0.0
H373 H 0.67687 0.16984 0.36648 0.0
H374 H 0.51141 0.07829 0.37997 0.0
H375 H 0.60279 0.19867 0.31515 0.0
H376 H 0.58251 0.0603 0.44654 0.0
H377 H 0.54584 0.11783 0.35059 0.0
H378 H 0.64368 0.12565 0.39135 0.0
C379 C 0.65364 0.16682 0.36035 0.0
C380 C 0.64258 0.1881 0.33884 0.0
C381 C 0.55395 0.10505 0.37146 0.0
C382 C 0.6045 0.13751 0.36707 0.0
C383 C 0.53431 0.08225 0.38815 0.0
C384 C 0.54397 0.06595 0.41598 0.0
C385 C 0.58355 0.11162 0.3825 0.0
C386 C 0.57398 0.07232 0.42534 0.0
C387 C 0.63471 0.14165 0.37462 0.0
C388 C 0.61225 0.18313 0.33197 0.0
N389 N 0.59265 0.09474 0.40877 0.0
N390 N 0.59431 0.15837 0.34597 0.0
H391 H 0.85605 0.71869 0.35938 0.0
H392 H 0.86869 0.55492 0.44465 0.0
H393 H 0.78368 0.64163 0.37036 0.0
H394 H 0.94301 0.63052 0.43827 0.0
H395 H 0.83762 0.58766 0.41861 0.0
H396 H 0.88832 0.68835 0.38953 0.0
C397 C 0.84688 0.69551 0.36834 0.0
C398 C 0.81708 0.68264 0.36209 0.0
C399 C 0.86069 0.59726 0.42284 0.0
C400 C 0.85396 0.64775 0.39631 0.0
C401 C 0.87858 0.57848 0.43773 0.0
C402 C 0.90867 0.58986 0.44346 0.0
C403 C 0.87277 0.62784 0.41334 0.0
C404 C 0.91998 0.62073 0.43413 0.0
C405 C 0.86536 0.67816 0.38539 0.0
C406 C 0.80654 0.65238 0.37401 0.0
N407 N 0.90202 0.63866 0.41938 0.0
N408 N 0.82493 0.63604 0.3904 0.0
H409 H 0.35655 0.85443 0.33702 0.0
H410 H 0.47513 0.88658 0.48939 0.0
H411 H 0.38178 0.78345 0.40282 0.0
H412 H 0.45065 0.95898 0.42511 0.0
H413 H 0.43921 0.84898 0.45924 0.0
H414 H 0.38933 0.89321 0.36968 0.0
C415 C 0.36903 0.84694 0.35827 0.0
C416 C 0.36643 0.8155 0.36702 0.0
C417 C 0.44154 0.87307 0.45172 0.0
C418 C 0.40385 0.85996 0.4048 0.0
C419 C 0.4621 0.89465 0.46898 0.0
C420 C 0.46611 0.92609 0.45968 0.0
C421 C 0.42476 0.88277 0.42473 0.0
C422 C 0.44836 0.93502 0.43313 0.0
C423 C 0.38761 0.86916 0.37703 0.0
C424 C 0.38277 0.80733 0.39523 0.0
N425 N 0.42858 0.91345 0.41645 0.0
N426 N 0.40081 0.82937 0.41296 0.0
H427 H 0.22221 0.65774 0.58292 0.0
H428 H 0.0662 0.54491 0.60064 0.0
H429 H 0.19842 0.60697 0.67429 0.0
H430 H 0.10998 0.56406 0.50984 0.0
H431 H 0.10834 0.57826 0.62911 0.0
H432 H 0.17481 0.63423 0.55732 0.0
C433 C 0.20705 0.64172 0.59772 0.0
C434 C 0.21481 0.63385 0.63072 0.0
C435 C 0.1084 0.57552 0.60285 0.0
C436 C 0.1599 0.60729 0.60147 0.0
C437 C 0.08431 0.55681 0.58658 0.0
C438 C 0.0847 0.55188 0.55288 0.0
C439 C 0.13261 0.58978 0.58502 0.0
C440 C 0.10888 0.56731 0.53585 0.0
C441 C 0.17987 0.62843 0.58306 0.0
C442 C 0.19358 0.61374 0.64881 0.0
N443 N 0.13181 0.58552 0.55206 0.0
N444 N 0.16719 0.60094 0.63388 0.0
H445 H 0.34 0.17042 0.64408 0.0
H446 H 0.46878 0.15455 0.5354 0.0
H447 H 0.38355 0.24346 0.57917 0.0
H448 H 0.40508 0.07476 0.56602 0.0
H449 H 0.43909 0.18739 0.55495 0.0
H450 H 0.36471 0.13466 0.61951 0.0
C451 C 0.35457 0.17887 0.62456 0.0
C452 C 0.35968 0.20997 0.61364 0.0
C453 C 0.43149 0.16271 0.55738 0.0
C454 C 0.38804 0.16942 0.58577 0.0
C455 C 0.44852 0.14389 0.54635 0.0
C456 C 0.43946 0.11182 0.54922 0.0
C457 C 0.40543 0.1495 0.57221 0.0
C458 C 0.41286 0.09938 0.56338 0.0
C459 C 0.3685 0.15846 0.61046 0.0
C460 C 0.37864 0.21966 0.58813 0.0
N461 N 0.39687 0.11828 0.57476 0.0
N462 N 0.3923 0.19956 0.57534 0.0
H463 H 0.84766 0.40484 0.71011 0.0
H464 H 0.94529 0.43167 0.55313 0.0
H465 H 0.83009 0.34736 0.62647 0.0
H466 H 0.95349 0.49719 0.6288 0.0
H467 H 0.90721 0.39721 0.58317 0.0
H468 H 0.89002 0.43582 0.68374 0.0
C469 C 0.85282 0.39859 0.68628 0.0
C470 C 0.83522 0.37343 0.67049 0.0
C471 C 0.91752 0.41901 0.59334 0.0
C472 C 0.88377 0.40896 0.64004 0.0
C473 C 0.93948 0.43865 0.57633 0.0
C474 C 0.95263 0.46754 0.58833 0.0
C475 C 0.90866 0.42815 0.6227 0.0
C476 C 0.94395 0.47526 0.61848 0.0
C477 C 0.87696 0.41639 0.67117 0.0
C478 C 0.8428 0.36674 0.6394 0.0
N479 N 0.92244 0.45578 0.6345 0.0
N480 N 0.8665 0.38435 0.62523 0.0
H481 H 0.6473 0.77724 0.5985 0.0
H482 H 0.64663 0.95361 0.557 0.0
H483 H 0.72441 0.84989 0.60239 0.0
H484 H 0.57107 0.88125 0.53827 0.0
H485 H 0.6761 0.91512 0.56934 0.0
H486 H 0.61938 0.81396 0.57261 0.0
C487 C 0.65837 0.80084 0.59369 0.0
C488 C 0.68815 0.81059 0.6028 0.0
C489 C 0.65313 0.90758 0.56227 0.0
C490 C 0.65649 0.85257 0.57326 0.0
C491 C 0.63626 0.92958 0.55533 0.0
C492 C 0.60627 0.92056 0.54723 0.0
C493 C 0.63986 0.87627 0.56154 0.0
C494 C 0.59408 0.88914 0.54484 0.0
C495 C 0.6425 0.82172 0.57875 0.0
C496 C 0.70155 0.8413 0.59557 0.0
N497 N 0.61087 0.86803 0.55245 0.0
N498 N 0.68556 0.86123 0.58155 0.0
H499 H 0.43606 0.26855 0.46715 0.0
H500 H 0.39096 0.08582 0.45453 0.0
H501 H 0.34694 0.22065 0.44821 0.0
H502 H 0.47947 0.13796 0.46487 0.0
H503 H 0.37337 0.13389 0.45525 0.0
H504 H 0.45143 0.21959 0.47072 0.0
C505 C 0.41973 0.24765 0.46369 0.0
C506 C 0.39026 0.24865 0.45695 0.0
C507 C 0.39662 0.1347 0.45729 0.0
C508 C 0.40765 0.19237 0.46092 0.0
C509 C 0.40663 0.10735 0.45668 0.0
C510 C 0.43668 0.10796 0.45961 0.0
C511 C 0.41688 0.16266 0.4607 0.0
C512 C 0.4561 0.13639 0.46263 0.0
C513 C 0.42848 0.21967 0.4658 0.0
C514 C 0.3699 0.22082 0.45345 0.0
N515 N 0.44587 0.16251 0.46309 0.0
N516 N 0.37901 0.19375 0.45521 0.0
H517 H 0.78642 0.37255 0.39344 0.0
H518 H 0.95697 0.44778 0.42052 0.0
H519 H 0.84858 0.37315 0.32017 0.0
H520 H 0.8913 0.46231 0.48305 0.0
H521 H 0.91852 0.41585 0.38616 0.0
H522 H 0.82543 0.40175 0.42884 0.0
C523 C 0.80818 0.37895 0.38461 0.0
C524 C 0.81403 0.37031 0.35358 0.0
C525 C 0.9126 0.42597 0.40749 0.0
C526 C 0.85913 0.40339 0.39452 0.0
C527 C 0.93455 0.44406 0.4272 0.0
C528 C 0.92738 0.45789 0.45464 0.0
C529 C 0.8833 0.42146 0.41544 0.0
C530 C 0.8979 0.45231 0.46203 0.0
C531 C 0.83054 0.39547 0.40501 0.0
C532 C 0.84296 0.37882 0.34401 0.0
N533 N 0.87702 0.43461 0.44258 0.0
N534 N 0.86437 0.39483 0.36435 0.0
H535 H 0.70353 0.87183 0.35177 0.0
H536 H 0.56477 0.86586 0.4567 0.0
H537 H 0.64317 0.78832 0.37945 0.0
H538 H 0.62822 0.94943 0.43764 0.0
H539 H 0.5941 0.83736 0.42926 0.0
H540 H 0.67702 0.90082 0.38327 0.0
C541 C 0.68469 0.85957 0.36442 0.0
C542 C 0.67554 0.82754 0.36282 0.0
C543 C 0.60175 0.86191 0.43109 0.0
C544 C 0.6452 0.86064 0.39914 0.0
C545 C 0.58494 0.87828 0.44674 0.0
C546 C 0.59389 0.91021 0.44922 0.0
C547 C 0.62776 0.87747 0.41751 0.0
C548 C 0.62043 0.92488 0.43617 0.0
C549 C 0.66968 0.87614 0.38257 0.0
C550 C 0.65124 0.81289 0.38019 0.0
N551 N 0.63634 0.90842 0.42064 0.0
N552 N 0.63689 0.82955 0.39743 0.0
H553 H 0.18078 0.6697 0.39089 0.0
H554 H 0.06639 0.50888 0.38472 0.0
H555 H 0.17577 0.60508 0.31498 0.0
H556 H 0.06729 0.57514 0.4579 0.0
H557 H 0.1042 0.54556 0.35678 0.0
H558 H 0.13761 0.63694 0.41414 0.0
C559 C 0.17053 0.64875 0.37896 0.0
C560 C 0.18214 0.64009 0.35101 0.0
C561 C 0.09594 0.55224 0.37875 0.0
C562 C 0.13271 0.60234 0.37767 0.0
C563 C 0.07421 0.53131 0.39468 0.0
C564 C 0.06366 0.5388 0.42386 0.0
C565 C 0.10749 0.58089 0.39215 0.0
C566 C 0.07467 0.56831 0.43547 0.0
C567 C 0.1459 0.63 0.39232 0.0
C568 C 0.16802 0.61246 0.33689 0.0
N569 N 0.09619 0.58813 0.4198 0.0
N570 N 0.14418 0.59459 0.3504 0.0
H571 H 0.43821 0.80336 0.68263 0.0
H572 H 0.44712 0.94616 0.55269 0.0
H573 H 0.36587 0.81648 0.6156 0.0
H574 H 0.51566 0.93599 0.62672 0.0
H575 H 0.41505 0.90212 0.57889 0.0
H576 H 0.46499 0.85444 0.66571 0.0
C577 C 0.42791 0.81711 0.66442 0.0
C578 C 0.39989 0.80549 0.65021 0.0
C579 C 0.43695 0.90983 0.58971 0.0
C580 C 0.43052 0.86421 0.63059 0.0
C581 C 0.45529 0.93515 0.57485 0.0
C582 C 0.48435 0.94474 0.58725 0.0
C583 C 0.44773 0.89384 0.6171 0.0
C584 C 0.49358 0.92938 0.61603 0.0
C585 C 0.44316 0.84637 0.65486 0.0
C586 C 0.38741 0.82454 0.62717 0.0
N587 N 0.47549 0.90453 0.62967 0.0
N588 N 0.40295 0.85281 0.61776 0.0
H589 H 0.19726 0.31592 0.60557 0.0
H590 H 0.11572 0.45119 0.61614 0.0
H591 H 0.20633 0.37061 0.69102 0.0
H592 H 0.08126 0.3768 0.55222 0.0
H593 H 0.14842 0.42081 0.64435 0.0
H594 H 0.15388 0.33579 0.58596 0.0
C595 C 0.18979 0.33156 0.62058 0.0
C596 C 0.20574 0.342 0.64975 0.0
C597 C 0.1334 0.41079 0.62455 0.0
C598 C 0.1565 0.36509 0.6272 0.0
C599 C 0.11476 0.42816 0.60845 0.0
C600 C 0.09582 0.41638 0.58196 0.0
C601 C 0.13373 0.38169 0.6135 0.0
C602 C 0.09543 0.38649 0.57281 0.0
C603 C 0.16509 0.34296 0.6093 0.0
C604 C 0.19516 0.3625 0.66801 0.0
N605 N 0.11458 0.3703 0.58818 0.0
N606 N 0.1715 0.37368 0.65621 0.0
H607 H 0.64744 0.23275 0.60674 0.0
H608 H 0.57517 0.05415 0.5866 0.0
H609 H 0.65798 0.1621 0.68153 0.0
H610 H 0.55791 0.12757 0.51877 0.0
H611 H 0.60876 0.09233 0.61979 0.0
H612 H 0.61722 0.19363 0.5726 0.0
C613 C 0.64332 0.20906 0.61613 0.0
C614 C 0.65528 0.20089 0.64726 0.0
C615 C 0.59768 0.09999 0.59754 0.0
C616 C 0.62082 0.15562 0.60783 0.0
C617 C 0.57861 0.07819 0.57852 0.0
C618 C 0.56354 0.08761 0.54992 0.0
C619 C 0.60183 0.1314 0.58776 0.0
C620 C 0.56884 0.11914 0.54071 0.0
C621 C 0.62617 0.18663 0.59647 0.0
C622 C 0.64956 0.16956 0.65761 0.0
N623 N 0.58741 0.13979 0.55955 0.0
N624 N 0.63273 0.14813 0.63802 0.0
H625 H 0.79659 0.63335 0.59064 0.0
H626 H 0.95894 0.63915 0.54453 0.0
H627 H 0.8668 0.71303 0.59859 0.0
H628 H 0.88942 0.55923 0.5329 0.0
H629 H 0.92323 0.66909 0.55502 0.0
H630 H 0.82767 0.60844 0.56052 0.0
C631 C 0.81838 0.64577 0.58555 0.0
C632 C 0.82942 0.67501 0.59764 0.0
C633 C 0.91566 0.64507 0.54988 0.0
C634 C 0.86503 0.6467 0.56358 0.0
C635 C 0.93608 0.62794 0.544 0.0
C636 C 0.92716 0.5965 0.53875 0.0
C637 C 0.88611 0.63057 0.55101 0.0
C638 C 0.89723 0.58333 0.53746 0.0
C639 C 0.83612 0.63153 0.56847 0.0
C640 C 0.85775 0.69013 0.59041 0.0
N641 N 0.87775 0.60033 0.54417 0.0
N642 N 0.87468 0.67566 0.57418 0.0
H643 H 0.41268 0.45523 0.31094 0.0
H644 H 0.38363 0.42852 0.1177 0.0
H645 H 0.33768 0.39184 0.2702 0.0
H646 H 0.45793 0.49095 0.1612 0.0
H647 H 0.36362 0.41814 0.17226 0.0
H648 H 0.42653 0.47217 0.25528 0.0
C649 C 0.39883 0.44514 0.2903 0.0
C650 C 0.37397 0.42196 0.29541 0.0
C651 C 0.38417 0.43432 0.16972 0.0
C652 C 0.3902 0.44088 0.23122 0.0
C653 C 0.39558 0.44029 0.13859 0.0
C654 C 0.42263 0.46045 0.13487 0.0
C655 C 0.39993 0.44865 0.19724 0.0
C656 C 0.4371 0.47512 0.1628 0.0
C657 C 0.40692 0.45469 0.25842 0.0
C658 C 0.35728 0.4094 0.26751 0.0
N659 N 0.42567 0.46878 0.19274 0.0
N660 N 0.3658 0.41888 0.23662 0.0
H661 H 0.40387 0.68031 0.84361 0.0
H662 H 0.44335 0.53496 0.94722 0.0
H663 H 0.37262 0.58701 0.81406 0.0
H664 H 0.50355 0.62271 0.94223 0.0
H665 H 0.40915 0.55592 0.90873 0.0
H666 H 0.43272 0.66115 0.88957 0.0
C667 C 0.40287 0.65583 0.84664 0.0
C668 C 0.38589 0.63542 0.8242 0.0
C669 C 0.42969 0.57066 0.91643 0.0
C670 C 0.41833 0.61337 0.87779 0.0
C671 C 0.44917 0.55884 0.93862 0.0
C672 C 0.47648 0.57709 0.94796 0.0
C673 C 0.43726 0.60114 0.90388 0.0
C674 C 0.48283 0.60778 0.93561 0.0
C675 C 0.41928 0.64497 0.8731 0.0
C676 C 0.38496 0.60382 0.83055 0.0
N677 N 0.46339 0.61885 0.91418 0.0
N678 N 0.40097 0.59384 0.85662 0.0
H679 H 0.42396 0.38324 0.77673 0.0
H680 H 0.44551 0.42444 0.96609 0.0
H681 H 0.35935 0.34045 0.84485 0.0
H682 H 0.48132 0.48437 0.88487 0.0
H683 H 0.41698 0.38892 0.92566 0.0
H684 H 0.45008 0.41482 0.82025 0.0
C685 C 0.41546 0.3801 0.80104 0.0
C686 C 0.38947 0.35895 0.80712 0.0
C687 C 0.43105 0.40999 0.91697 0.0
C688 C 0.41917 0.39586 0.85726 0.0
C689 C 0.44727 0.43023 0.93994 0.0
C690 C 0.4661 0.45732 0.92894 0.0
C691 C 0.43412 0.41686 0.883 0.0
C692 C 0.46744 0.4637 0.89474 0.0
C693 C 0.43024 0.39847 0.82585 0.0
C694 C 0.37925 0.35657 0.83907 0.0
N695 N 0.45196 0.44359 0.87318 0.0
N696 N 0.39417 0.37482 0.86308 0.0
H697 H 0.7021 0.39565 0.83924 0.0
H698 H 0.55269 0.44959 0.85988 0.0
H699 H 0.6223 0.36459 0.78026 0.0
H700 H 0.62583 0.46735 0.9318 0.0
H701 H 0.57994 0.42244 0.82789 0.0
H702 H 0.67657 0.42575 0.87074 0.0
C703 C 0.67927 0.39532 0.83275 0.0
C704 C 0.66433 0.37752 0.80702 0.0
C705 C 0.59013 0.43226 0.85063 0.0
C706 C 0.63496 0.41185 0.84311 0.0
C707 C 0.57458 0.44792 0.86897 0.0
C708 C 0.5869 0.46074 0.89878 0.0
C709 C 0.61842 0.42936 0.8619 0.0
C710 C 0.61541 0.45775 0.90907 0.0
C711 C 0.66468 0.41236 0.8509 0.0
C712 C 0.63465 0.37768 0.80006 0.0
N713 N 0.63022 0.44234 0.89066 0.0
N714 N 0.62102 0.39459 0.8179 0.0
H715 H 0.72896 0.64036 0.81846 0.0
H716 H 0.57104 0.54695 0.86522 0.0
H717 H 0.65275 0.63044 0.75068 0.0
H718 H 0.64284 0.57744 0.93608 0.0
H719 H 0.60315 0.56718 0.82049 0.0
H720 H 0.6999 0.60724 0.85916 0.0
C721 C 0.70612 0.63111 0.81209 0.0
C722 C 0.69314 0.63865 0.78134 0.0
C723 C 0.61188 0.56911 0.84585 0.0
C724 C 0.65979 0.60045 0.82774 0.0
C725 C 0.59363 0.55751 0.87136 0.0
C726 C 0.60417 0.56109 0.90439 0.0
C727 C 0.64086 0.58406 0.85355 0.0
C728 C 0.63365 0.5747 0.91096 0.0
C729 C 0.68958 0.61208 0.83528 0.0
C730 C 0.66364 0.62528 0.77409 0.0
N731 N 0.65089 0.58589 0.88579 0.0
N732 N 0.64785 0.60707 0.79729 0.0
H733 H 0.6389 0.63241 0.23199 0.0
H734 H 0.57215 0.58872 0.04963 0.0
H735 H 0.66097 0.69128 0.14514 0.0
H736 H 0.54545 0.53513 0.13852 0.0
H737 H 0.60701 0.62513 0.08336 0.0
H738 H 0.60626 0.59545 0.19742 0.0
C739 C 0.63675 0.63772 0.20568 0.0
C740 C 0.65268 0.66518 0.19158 0.0
C741 C 0.59356 0.60533 0.09542 0.0
C742 C 0.61549 0.6225 0.15156 0.0
C743 C 0.57373 0.58448 0.07616 0.0
C744 C 0.55573 0.55885 0.09122 0.0
C745 C 0.59548 0.60046 0.12997 0.0
C746 C 0.55874 0.55459 0.12575 0.0
C747 C 0.61822 0.61645 0.18587 0.0
C748 C 0.64939 0.67033 0.15713 0.0
N749 N 0.57812 0.57515 0.14387 0.0
N750 N 0.63116 0.64925 0.13834 0.0
H751 H 0.39381 0.65688 0.23937 0.0
H752 H 0.39093 0.54475 0.09248 0.0
H753 H 0.31471 0.61749 0.18286 0.0
H754 H 0.46471 0.5713 0.162 0.0
H755 H 0.36262 0.57204 0.12393 0.0
H756 H 0.42017 0.62635 0.21019 0.0
C757 C 0.38185 0.64162 0.22108 0.0
C758 C 0.35188 0.63991 0.21367 0.0
C759 C 0.38498 0.57175 0.13232 0.0
C760 C 0.38227 0.60512 0.17951 0.0
C761 C 0.40116 0.55621 0.11435 0.0
C762 C 0.43031 0.55585 0.12447 0.0
C763 C 0.39813 0.58719 0.16045 0.0
C764 C 0.44236 0.57101 0.15312 0.0
C765 C 0.39701 0.62429 0.20423 0.0
C766 C 0.33786 0.62006 0.18911 0.0
N767 N 0.42631 0.58615 0.16992 0.0
N768 N 0.35316 0.60356 0.17286 0.0
H769 H 0.596 0.33366 0.19739 0.0
H770 H 0.57627 0.46632 0.06077 0.0
H771 H 0.66905 0.39455 0.15365 0.0
H772 H 0.5055 0.39565 0.09553 0.0
H773 H 0.61086 0.44127 0.09441 0.0
H774 H 0.56283 0.35746 0.16086 0.0
C775 C 0.60514 0.35193 0.17997 0.0
C776 C 0.63549 0.36186 0.17853 0.0
C777 C 0.58777 0.43118 0.09444 0.0
C778 C 0.59732 0.38969 0.13661 0.0
C779 C 0.56798 0.44539 0.07513 0.0
C780 C 0.53781 0.4332 0.07531 0.0
C781 C 0.57734 0.40466 0.11423 0.0
C782 C 0.52846 0.40605 0.09456 0.0
C783 C 0.58611 0.36563 0.15913 0.0
C784 C 0.64586 0.38625 0.15591 0.0
N785 N 0.54809 0.39289 0.11332 0.0
N786 N 0.62683 0.3993 0.13583 0.0
loop_
_geom_bond_atom_site_label_1
_geom_bond_atom_site_label_2
_geom_bond_distance
_geom_bond_site_symmetry_2
_ccdc_geom_bond_type
P0 O11 1.490 . S
P0 C14 1.812 . S
P0 C20 1.803 . S
P0 C26 1.819 . S
H1 C15 0.941 . S
H2 C16 0.939 . S
H3 C18 0.940 . S
H4 C19 0.940 . S
H5 C21 0.939 . S
H6 C22 0.942 . S
H7 C24 0.940 . S
H8 C25 0.939 . S
H9 C27 0.941 . S
H10 C31 0.939 . S
O11 P0 1.490 . S
H12 C28 0.939 . S
H13 C30 0.940 . S
C14 P0 1.812 . S
C14 C15 1.389 . S
C14 C19 1.391 . S
C15 H1 0.941 . S
C15 C14 1.389 . S
C15 C16 1.397 . S
C16 H2 0.939 . S
C16 C15 1.397 . S
C16 C17 1.378 . S
C17 C16 1.378 . S
C17 C18 1.378 . S
C18 H3 0.940 . S
C18 C17 1.378 . S
C18 C19 1.396 . S
C19 H4 0.940 . S
C19 C14 1.391 . S
C19 C18 1.396 . S
C20 P0 1.803 . S
C20 C21 1.378 . S
C20 C25 1.400 . S
C21 H5 0.939 . S
C21 C20 1.378 . S
C21 C22 1.361 . S
C22 H6 0.942 . S
C22 C21 1.361 . S
C22 C23 1.369 . S
C23 C22 1.369 . S
C23 C24 1.404 . S
C24 H7 0.940 . S
C24 C23 1.404 . S
C24 C25 1.389 . S
C25 H8 0.939 . S
C25 C20 1.400 . S
C25 C24 1.389 . S
C26 P0 1.819 . S
C26 C27 1.391 . S
C26 C31 1.391 . S
C27 H9 0.941 . S
C27 C26 1.391 . S
C27 C28 1.396 . S
C28 H12 0.939 . S
C28 C27 1.396 . S
C28 C29 1.397 . S
C29 C28 1.397 . S
C29 C30 1.385 . S
C30 H13 0.940 . S
C30 C29 1.385 . S
C30 C31 1.388 . S
C31 H10 0.939 . S
C31 C26 1.391 . S
C31 C30 1.388 . S
P32 O43 1.490 . S
P32 C46 1.812 . S
P32 C52 1.803 . S
P32 C58 1.819 . S
H33 C47 0.941 . S
H34 C48 0.939 . S
H35 C50 0.940 . S
H36 C51 0.940 . S
H37 C53 0.939 . S
H38 C54 0.942 . S
H39 C56 0.940 . S
H40 C57 0.939 . S
H41 C59 0.941 . S
H42 C63 0.939 . S
O43 P32 1.490 . S
H44 C60 0.939 . S
H45 C62 0.940 . S
C46 P32 1.812 . S
C46 C47 1.389 . S
C46 C51 1.391 . S
C47 H33 0.941 . S
C47 C46 1.389 . S
C47 C48 1.397 . S
C48 H34 0.939 . S
C48 C47 1.397 . S
C48 C49 1.378 . S
C49 C48 1.378 . S
C49 C50 1.378 . S
C50 H35 0.940 . S
C50 C49 1.378 . S
C50 C51 1.396 . S
C51 H36 0.940 . S
C51 C46 1.391 . S
C51 C50 1.396 . S
C52 P32 1.803 . S
C52 C53 1.378 . S
C52 C57 1.400 . S
C53 H37 0.939 . S
C53 C52 1.378 . S
C53 C54 1.361 . S
C54 H38 0.942 . S
C54 C53 1.361 . S
C54 C55 1.369 . S
C55 C54 1.369 . S
C55 C56 1.404 . S
C56 H39 0.940 . S
C56 C55 1.404 . S
C56 C57 1.389 . S
C57 H40 0.939 . S
C57 C52 1.400 . S
C57 C56 1.389 . S
C58 P32 1.819 . S
C58 C59 1.391 . S
C58 C63 1.391 . S
C59 H41 0.941 . S
C59 C58 1.391 . S
C59 C60 1.396 . S
C60 H44 0.939 . S
C60 C59 1.396 . S
C60 C61 1.397 . S
C61 C60 1.397 . S
C61 C62 1.385 . S
C62 H45 0.940 . S
C62 C61 1.385 . S
C62 C63 1.388 . S
C63 H42 0.939 . S
C63 C58 1.391 . S
C63 C62 1.388 . S
P64 O75 1.490 . S
P64 C78 1.812 . S
P64 C84 1.803 . S
P64 C90 1.819 . S
H65 C79 0.941 . S
H66 C80 0.939 . S
H67 C82 0.940 . S
H68 C83 0.940 . S
H69 C85 0.939 . S
H70 C86 0.942 . S
H71 C88 0.940 . S
H72 C89 0.939 . S
H73 C91 0.941 . S
H74 C95 0.939 . S
O75 P64 1.490 . S
H76 C92 0.939 . S
H77 C94 0.940 . S
C78 P64 1.812 . S
C78 C79 1.389 . S
C78 C83 1.391 . S
C79 H65 0.941 . S
C79 C78 1.389 . S
C79 C80 1.397 . S
C80 H66 0.939 . S
C80 C79 1.397 . S
C80 C81 1.378 . S
C81 C80 1.378 . S
C81 C82 1.378 . S
C82 H67 0.940 . S
C82 C81 1.378 . S
C82 C83 1.396 . S
C83 H68 0.940 . S
C83 C78 1.391 . S
C83 C82 1.396 . S
C84 P64 1.803 . S
C84 C85 1.378 . S
C84 C89 1.400 . S
C85 H69 0.939 . S
C85 C84 1.378 . S
C85 C86 1.361 . S
C86 H70 0.942 . S
C86 C85 1.361 . S
C86 C87 1.369 . S
C87 C86 1.369 . S
C87 C88 1.404 . S
C88 H71 0.940 . S
C88 C87 1.404 . S
C88 C89 1.389 . S
C89 H72 0.939 . S
C89 C84 1.400 . S
C89 C88 1.389 . S
C90 P64 1.819 . S
C90 C91 1.391 . S
C90 C95 1.391 . S
C91 H73 0.941 . S
C91 C90 1.391 . S
C91 C92 1.396 . S
C92 H76 0.939 . S
C92 C91 1.396 . S
C92 C93 1.397 . S
C93 C92 1.397 . S
C93 C94 1.385 . S
C94 H77 0.940 . S
C94 C93 1.385 . S
C94 C95 1.388 . S
C95 H74 0.939 . S
C95 C90 1.391 . S
C95 C94 1.388 . S
P96 O107 1.490 . S
P96 C110 1.812 . S
P96 C116 1.803 . S
P96 C122 1.819 . S
H97 C111 0.941 . S
H98 C112 0.939 . S
H99 C114 0.940 . S
H100 C115 0.940 . S
H101 C117 0.939 . S
H102 C118 0.942 . S
H103 C120 0.940 . S
H104 C121 0.939 . S
H105 C123 0.941 . S
H106 C127 0.939 . S
O107 P96 1.490 . S
H108 C124 0.939 . S
H109 C126 0.940 . S
C110 P96 1.812 . S
C110 C111 1.389 . S
C110 C115 1.391 . S
C111 H97 0.941 . S
C111 C110 1.389 . S
C111 C112 1.397 . S
C112 H98 0.939 . S
C112 C111 1.397 . S
C112 C113 1.378 . S
C113 C112 1.378 . S
C113 C114 1.378 . S
C114 H99 0.940 . S
C114 C113 1.378 . S
C114 C115 1.396 . S
C115 H100 0.940 . S
C115 C110 1.391 . S
C115 C114 1.396 . S
C116 P96 1.803 . S
C116 C117 1.378 . S
C116 C121 1.400 . S
C117 H101 0.939 . S
C117 C116 1.378 . S
C117 C118 1.361 . S
C118 H102 0.942 . S
C118 C117 1.361 . S
C118 C119 1.369 . S
C119 C118 1.369 . S
C119 C120 1.404 . S
C120 H103 0.940 . S
C120 C119 1.404 . S
C120 C121 1.389 . S
C121 H104 0.939 . S
C121 C116 1.400 . S
C121 C120 1.389 . S
C122 P96 1.819 . S
C122 C123 1.391 . S
C122 C127 1.391 . S
C123 H105 0.941 . S
C123 C122 1.391 . S
C123 C124 1.396 . S
C124 H108 0.939 . S
C124 C123 1.396 . S
C124 C125 1.397 . S
C125 C124 1.397 . S
C125 C126 1.385 . S
C126 H109 0.940 . S
C126 C125 1.385 . S
C126 C127 1.388 . S
C127 H106 0.939 . S
C127 C122 1.391 . S
C127 C126 1.388 . S
P128 O139 1.490 . S
P128 C142 1.812 . S
P128 C148 1.803 . S
P128 C154 1.819 . S
H129 C143 0.941 . S
H130 C144 0.939 . S
H131 C146 0.940 . S
H132 C147 0.940 . S
H133 C149 0.939 . S
H134 C150 0.942 . S
H135 C152 0.940 . S
H136 C153 0.939 . S
H137 C155 0.941 . S
H138 C159 0.939 . S
O139 P128 1.490 . S
H140 C156 0.939 . S
H141 C158 0.940 . S
C142 P128 1.812 . S
C142 C143 1.389 . S
C142 C147 1.391 . S
C143 H129 0.941 . S
C143 C142 1.389 . S
C143 C144 1.397 . S
C144 H130 0.939 . S
C144 C143 1.397 . S
C144 C145 1.378 . S
C145 C144 1.378 . S
C145 C146 1.378 . S
C146 H131 0.940 . S
C146 C145 1.378 . S
C146 C147 1.396 . S
C147 H132 0.940 . S
C147 C142 1.391 . S
C147 C146 1.396 . S
C148 P128 1.803 . S
C148 C149 1.378 . S
C148 C153 1.400 . S
C149 H133 0.939 . S
C149 C148 1.378 . S
C149 C150 1.361 . S
C150 H134 0.942 . S
C150 C149 1.361 . S
C150 C151 1.369 . S
C151 C150 1.369 . S
C151 C152 1.404 . S
C152 H135 0.940 . S
C152 C151 1.404 . S
C152 C153 1.389 . S
C153 H136 0.939 . S
C153 C148 1.400 . S
C153 C152 1.389 . S
C154 P128 1.819 . S
C154 C155 1.391 . S
C154 C159 1.391 . S
C155 H137 0.941 . S
C155 C154 1.391 . S
C155 C156 1.396 . S
C156 H140 0.939 . S
C156 C155 1.396 . S
C156 C157 1.397 . S
C157 C156 1.397 . S
C157 C158 1.385 . S
C158 H141 0.940 . S
C158 C157 1.385 . S
C158 C159 1.388 . S
C159 H138 0.939 . S
C159 C154 1.391 . S
C159 C158 1.388 . S
P160 O171 1.490 . S
P160 C174 1.812 . S
P160 C180 1.803 . S
P160 C186 1.819 . S
H161 C175 0.941 . S
H162 C176 0.939 . S
H163 C178 0.940 . S
H164 C179 0.940 . S
H165 C181 0.939 . S
H166 C182 0.942 . S
H167 C184 0.940 . S
H168 C185 0.939 . S
H169 C187 0.941 . S
H170 C191 0.939 . S
O171 P160 1.490 . S
H172 C188 0.939 . S
H173 C190 0.940 . S
C174 P160 1.812 . S
C174 C175 1.389 . S
C174 C179 1.391 . S
C175 H161 0.941 . S
C175 C174 1.389 . S
C175 C176 1.397 . S
C176 H162 0.939 . S
C176 C175 1.397 . S
C176 C177 1.378 . S
C177 C176 1.378 . S
C177 C178 1.378 . S
C178 H163 0.940 . S
C178 C177 1.378 . S
C178 C179 1.396 . S
C179 H164 0.940 . S
C179 C174 1.391 . S
C179 C178 1.396 . S
C180 P160 1.803 . S
C180 C181 1.378 . S
C180 C185 1.400 . S
C181 H165 0.939 . S
C181 C180 1.378 . S
C181 C182 1.361 . S
C182 H166 0.942 . S
C182 C181 1.361 . S
C182 C183 1.369 . S
C183 C182 1.369 . S
C183 C184 1.404 . S
C184 H167 0.940 . S
C184 C183 1.404 . S
C184 C185 1.389 . S
C185 H168 0.939 . S
C185 C180 1.400 . S
C185 C184 1.389 . S
C186 P160 1.819 . S
C186 C187 1.391 . S
C186 C191 1.391 . S
C187 H169 0.941 . S
C187 C186 1.391 . S
C187 C188 1.396 . S
C188 H172 0.939 . S
C188 C187 1.396 . S
C188 C189 1.397 . S
C189 C188 1.397 . S
C189 C190 1.385 . S
C190 H173 0.940 . S
C190 C189 1.385 . S
C190 C191 1.388 . S
C191 H170 0.939 . S
C191 C186 1.391 . S
C191 C190 1.388 . S
P192 O203 1.490 . S
P192 C206 1.812 . S
P192 C212 1.803 . S
P192 C218 1.819 . S
H193 C207 0.941 . S
H194 C208 0.939 . S
H195 C210 0.940 . S
H196 C211 0.940 . S
H197 C213 0.939 . S
H198 C214 0.942 . S
H199 C216 0.940 . S
H200 C217 0.939 . S
H201 C219 0.941 . S
H202 C223 0.939 . S
O203 P192 1.490 . S
H204 C220 0.939 . S
H205 C222 0.940 . S
C206 P192 1.812 . S
C206 C207 1.389 . S
C206 C211 1.391 . S
C207 H193 0.941 . S
C207 C206 1.389 . S
C207 C208 1.397 . S
C208 H194 0.939 . S
C208 C207 1.397 . S
C208 C209 1.378 . S
C209 C208 1.378 . S
C209 C210 1.378 . S
C210 H195 0.940 . S
C210 C209 1.378 . S
C210 C211 1.396 . S
C211 H196 0.940 . S
C211 C206 1.391 . S
C211 C210 1.396 . S
C212 P192 1.803 . S
C212 C213 1.378 . S
C212 C217 1.400 . S
C213 H197 0.939 . S
C213 C212 1.378 . S
C213 C214 1.361 . S
C214 H198 0.942 . S
C214 C213 1.361 . S
C214 C215 1.369 . S
C215 C214 1.369 . S
C215 C216 1.404 . S
C216 H199 0.940 . S
C216 C215 1.404 . S
C216 C217 1.389 . S
C217 H200 0.939 . S
C217 C212 1.400 . S
C217 C216 1.389 . S
C218 P192 1.819 . S
C218 C219 1.391 . S
C218 C223 1.391 . S
C219 H201 0.941 . S
C219 C218 1.391 . S
C219 C220 1.396 . S
C220 H204 0.939 . S
C220 C219 1.396 . S
C220 C221 1.397 . S
C221 C220 1.397 . S
C221 C222 1.385 . S
C222 H205 0.940 . S
C222 C221 1.385 . S
C222 C223 1.388 . S
C223 H202 0.939 . S
C223 C218 1.391 . S
C223 C222 1.388 . S
P224 O235 1.490 . S
P224 C238 1.812 . S
P224 C244 1.803 . S
P224 C250 1.819 . S
H225 C239 0.941 . S
H226 C240 0.939 . S
H227 C242 0.940 . S
H228 C243 0.940 . S
H229 C245 0.939 . S
H230 C246 0.942 . S
H231 C248 0.940 . S
H232 C249 0.939 . S
H233 C251 0.941 . S
H234 C255 0.939 . S
O235 P224 1.490 . S
H236 C252 0.939 . S
H237 C254 0.940 . S
C238 P224 1.812 . S
C238 C239 1.389 . S
C238 C243 1.391 . S
C239 H225 0.941 . S
C239 C238 1.389 . S
C239 C240 1.397 . S
C240 H226 0.939 . S
C240 C239 1.397 . S
C240 C241 1.378 . S
C241 C240 1.378 . S
C241 C242 1.378 . S
C242 H227 0.940 . S
C242 C241 1.378 . S
C242 C243 1.396 . S
C243 H228 0.940 . S
C243 C238 1.391 . S
C243 C242 1.396 . S
C244 P224 1.803 . S
C244 C245 1.378 . S
C244 C249 1.400 . S
C245 H229 0.939 . S
C245 C244 1.378 . S
C245 C246 1.361 . S
C246 H230 0.942 . S
C246 C245 1.361 . S
C246 C247 1.369 . S
C247 C246 1.369 . S
C247 C248 1.404 . S
C248 H231 0.940 . S
C248 C247 1.404 . S
C248 C249 1.389 . S
C249 H232 0.939 . S
C249 C244 1.400 . S
C249 C248 1.389 . S
C250 P224 1.819 . S
C250 C251 1.391 . S
C250 C255 1.391 . S
C251 H233 0.941 . S
C251 C250 1.391 . S
C251 C252 1.396 . S
C252 H236 0.939 . S
C252 C251 1.396 . S
C252 C253 1.397 . S
C253 C252 1.397 . S
C253 C254 1.385 . S
C254 H237 0.940 . S
C254 C253 1.385 . S
C254 C255 1.388 . S
C255 H234 0.939 . S
C255 C250 1.391 . S
C255 C254 1.388 . S
Co256 O259 2.042 . S
Co256 O266 2.264 . S
Co256 O285 2.286 . S
Co256 O286 2.069 . S
Co256 O288 2.015 . S
Co257 O259 2.122 . S
Co257 O265 2.073 . S
Co257 O266 2.327 . S
Co257 O267 1.976 . S
Co258 O259 2.087 . S
Co258 O261 2.087 1_455 S
Co258 O268 2.111 . S
Co258 O269 2.143 1_455 S
Co258 O273 2.111 1_455 S
Co258 O287 2.143 . S
O259 Co256 2.042 . S
O259 Co257 2.122 . S
O259 Co258 2.087 . S
O259 H260 0.980 . S
H260 O259 0.980 . S
O261 Co258 2.087 1_655 S
O261 Co262 2.042 . S
O261 Co263 2.122 . S
O261 H264 0.980 . S
Co262 O261 2.042 . S
Co262 O270 2.286 . S
Co262 O271 2.069 . S
Co262 O272 2.015 . S
Co262 O275 2.264 . S
Co263 O261 2.122 . S
Co263 O274 1.976 . S
Co263 O275 2.327 . S
Co263 O276 2.073 . S
H264 O261 0.980 . S
O265 Co257 2.073 . S
O265 C280 1.245 . S
O266 Co256 2.264 . S
O266 Co257 2.327 . S
O266 C280 1.257 . S
O267 Co257 1.976 . S
O267 C279 1.251 . S
O268 Co258 2.111 . S
O268 C279 1.274 . S
O269 Co258 2.143 1_655 S
O269 C282 1.246 . S
O270 Co262 2.286 . S
O270 C281 1.259 . S
O271 Co262 2.069 . S
O271 C281 1.289 . S
O272 Co262 2.015 . S
O272 C282 1.257 . S
O273 Co258 2.111 1_655 S
O273 C283 1.274 . S
O274 Co263 1.976 . S
O274 C283 1.251 . S
O275 Co262 2.264 . S
O275 Co263 2.327 . S
O275 C284 1.257 . S
O276 Co263 2.073 . S
O276 C284 1.245 . S
C277 O285 1.259 . S
C277 O286 1.289 . S
C278 O287 1.246 . S
C278 O288 1.257 . S
C279 O267 1.251 . S
C279 O268 1.274 . S
C280 O265 1.245 . S
C280 O266 1.257 . S
C281 O270 1.259 . S
C281 O271 1.289 . S
C282 O269 1.246 . S
C282 O272 1.257 . S
C283 O273 1.274 . S
C283 O274 1.251 . S
C284 O275 1.257 . S
C284 O276 1.245 . S
O285 Co256 2.286 . S
O285 C277 1.259 . S
O286 Co256 2.069 . S
O286 C277 1.289 . S
O287 Co258 2.143 . S
O287 C278 1.246 . S
O288 Co256 2.015 . S
O288 C278 1.257 . S
Co289 O292 2.042 . S
Co289 O299 2.264 . S
Co289 O318 2.286 . S
Co289 O319 2.069 . S
Co289 O321 2.015 . S
Co290 O292 2.122 . S
Co290 O298 2.073 . S
Co290 O299 2.327 . S
Co290 O300 1.976 . S
Co291 O292 2.087 1_545 S
Co291 O294 2.087 . S
Co291 O301 2.111 1_545 S
Co291 O302 2.143 . S
Co291 O306 2.111 . S
Co291 O320 2.143 1_545 S
O292 Co289 2.042 . S
O292 Co290 2.122 . S
O292 Co291 2.087 1_565 S
O292 H293 0.980 . S
H293 O292 0.980 . S
O294 Co291 2.087 . S
O294 Co295 2.042 . S
O294 Co296 2.122 . S
O294 H297 0.980 . S
Co295 O294 2.042 . S
Co295 O303 2.286 . S
Co295 O304 2.069 . S
Co295 O305 2.015 . S
Co295 O308 2.264 . S
Co296 O294 2.122 . S
Co296 O307 1.976 . S
Co296 O308 2.327 . S
Co296 O309 2.073 . S
H297 O294 0.980 . S
O298 Co290 2.073 . S
O298 C313 1.245 . S
O299 Co289 2.264 . S
O299 Co290 2.327 . S
O299 C313 1.257 . S
O300 Co290 1.976 . S
O300 C312 1.251 . S
O301 Co291 2.111 1_565 S
O301 C312 1.274 . S
O302 Co291 2.143 . S
O302 C315 1.246 . S
O303 Co295 2.286 . S
O303 C314 1.259 . S
O304 Co295 2.069 . S
O304 C314 1.289 . S
O305 Co295 2.015 . S
O305 C315 1.257 . S
O306 Co291 2.111 . S
O306 C316 1.274 . S
O307 Co296 1.976 . S
O307 C316 1.251 . S
O308 Co295 2.264 . S
O308 Co296 2.327 . S
O308 C317 1.257 . S
O309 Co296 2.073 . S
O309 C317 1.245 . S
C310 O318 1.259 . S
C310 O319 1.289 . S
C311 O320 1.246 . S
C311 O321 1.257 . S
C312 O300 1.251 . S
C312 O301 1.274 . S
C313 O298 1.245 . S
C313 O299 1.257 . S
C314 O303 1.259 . S
C314 O304 1.289 . S
C315 O302 1.246 . S
C315 O305 1.257 . S
C316 O306 1.274 . S
C316 O307 1.251 . S
C317 O308 1.257 . S
C317 O309 1.245 . S
O318 Co289 2.286 . S
O318 C310 1.259 . S
O319 Co289 2.069 . S
O319 C310 1.289 . S
O320 Co291 2.143 1_565 S
O320 C311 1.246 . S
O321 Co289 2.015 . S
O321 C311 1.257 . S
Co322 O325 2.042 . S
Co322 O332 2.264 . S
Co322 O351 2.286 . S
Co322 O352 2.069 . S
Co322 O354 2.015 . S
Co323 O325 2.122 . S
Co323 O331 2.073 . S
Co323 O332 2.327 . S
Co323 O333 1.976 . S
Co324 O325 2.087 . S
Co324 O327 2.087 1_554 S
Co324 O334 2.111 . S
Co324 O335 2.143 1_554 S
Co324 O339 2.111 1_554 S
Co324 O353 2.143 . S
O325 Co322 2.042 . S
O325 Co323 2.122 . S
O325 Co324 2.087 . S
O325 H326 0.980 . S
H326 O325 0.980 . S
O327 Co324 2.087 1_556 S
O327 Co328 2.042 . S
O327 Co329 2.122 . S
O327 H330 0.980 . S
Co328 O327 2.042 . S
Co328 O336 2.286 . S
Co328 O337 2.069 . S
Co328 O338 2.015 . S
Co328 O341 2.264 . S
Co329 O327 2.122 . S
Co329 O340 1.976 . S
Co329 O341 2.327 . S
Co329 O342 2.073 . S
H330 O327 0.980 . S
O331 Co323 2.073 . S
O331 C346 1.245 . S
O332 Co322 2.264 . S
O332 Co323 2.327 . S
O332 C346 1.257 . S
O333 Co323 1.976 . S
O333 C345 1.251 . S
O334 Co324 2.111 . S
O334 C345 1.274 . S
O335 Co324 2.143 1_556 S
O335 C348 1.246 . S
O336 Co328 2.286 . S
O336 C347 1.259 . S
O337 Co328 2.069 . S
O337 C347 1.289 . S
O338 Co328 2.015 . S
O338 C348 1.257 . S
O339 Co324 2.111 1_556 S
O339 C349 1.274 . S
O340 Co329 1.976 . S
O340 C349 1.251 . S
O341 Co328 2.264 . S
O341 Co329 2.327 . S
O341 C350 1.257 . S
O342 Co329 2.073 . S
O342 C350 1.245 . S
C343 O351 1.259 . S
C343 O352 1.289 . S
C344 O353 1.246 . S
C344 O354 1.257 . S
C345 O333 1.251 . S
C345 O334 1.274 . S
C346 O331 1.245 . S
C346 O332 1.257 . S
C347 O336 1.259 . S
C347 O337 1.289 . S
C348 O335 1.246 . S
C348 O338 1.257 . S
C349 O339 1.274 . S
C349 O340 1.251 . S
C350 O341 1.257 . S
C350 O342 1.245 . S
O351 Co322 2.286 . S
O351 C343 1.259 . S
O352 Co322 2.069 . S
O352 C343 1.289 . S
O353 Co324 2.143 . S
O353 C344 1.246 . S
O354 Co322 2.015 . S
O354 C344 1.257 . S
H355 C361 0.930 . S
H356 C365 0.930 . S
H357 C370 0.929 . S
H358 C368 0.929 . S
H359 C363 0.929 . S
H360 C369 0.929 . S
C361 H355 0.930 . S
C361 C362 1.367 . S
C361 C369 1.378 . S
C362 C361 1.367 . S
C362 C370 1.433 . S
C363 H359 0.929 . S
C363 C365 1.378 . S
C363 C367 1.350 . S
C364 C367 1.463 . S
C364 C369 1.350 . S
C364 N372 1.427 . S
C365 H356 0.930 . S
C365 C363 1.378 . S
C365 C366 1.367 . S
C366 C365 1.367 . S
C366 C368 1.433 . S
C367 C363 1.350 . S
C367 C364 1.463 . S
C367 N371 1.427 . S
C368 H358 0.929 . S
C368 C366 1.433 . S
C368 N371 1.384 . S
C369 H360 0.929 . S
C369 C361 1.378 . S
C369 C364 1.350 . S
C370 H357 0.929 . S
C370 C362 1.433 . S
C370 N372 1.384 . S
N371 C367 1.427 . S
N371 C368 1.384 . S
N372 C364 1.427 . S
N372 C370 1.384 . S
H373 C379 0.930 . S
H374 C383 0.930 . S
H375 C388 0.929 . S
H376 C386 0.929 . S
H377 C381 0.929 . S
H378 C387 0.929 . S
C379 H373 0.930 . S
C379 C380 1.367 . S
C379 C387 1.378 . S
C380 C379 1.367 . S
C380 C388 1.433 . S
C381 H377 0.929 . S
C381 C383 1.378 . S
C381 C385 1.350 . S
C382 C385 1.463 . S
C382 C387 1.350 . S
C382 N390 1.427 . S
C383 H374 0.930 . S
C383 C381 1.378 . S
C383 C384 1.367 . S
C384 C383 1.367 . S
C384 C386 1.433 . S
C385 C381 1.350 . S
C385 C382 1.463 . S
C385 N389 1.427 . S
C386 H376 0.929 . S
C386 C384 1.433 . S
C386 N389 1.384 . S
C387 H378 0.929 . S
C387 C379 1.378 . S
C387 C382 1.350 . S
C388 H375 0.929 . S
C388 C380 1.433 . S
C388 N390 1.384 . S
N389 C385 1.427 . S
N389 C386 1.384 . S
N390 C382 1.427 . S
N390 C388 1.384 . S
H391 C397 0.930 . S
H392 C401 0.930 . S
H393 C406 0.929 . S
H394 C404 0.929 . S
H395 C399 0.929 . S
H396 C405 0.929 . S
C397 H391 0.930 . S
C397 C398 1.367 . S
C397 C405 1.378 . S
C398 C397 1.367 . S
C398 C406 1.433 . S
C399 H395 0.929 . S
C399 C401 1.378 . S
C399 C403 1.350 . S
C400 C403 1.463 . S
C400 C405 1.350 . S
C400 N408 1.427 . S
C401 H392 0.930 . S
C401 C399 1.378 . S
C401 C402 1.367 . S
C402 C401 1.367 . S
C402 C404 1.433 . S
C403 C399 1.350 . S
C403 C400 1.463 . S
C403 N407 1.427 . S
C404 H394 0.929 . S
C404 C402 1.433 . S
C404 N407 1.384 . S
C405 H396 0.929 . S
C405 C397 1.378 . S
C405 C400 1.350 . S
C406 H393 0.929 . S
C406 C398 1.433 . S
C406 N408 1.384 . S
N407 C403 1.427 . S
N407 C404 1.384 . S
N408 C400 1.427 . S
N408 C406 1.384 . S
H409 C415 0.930 . S
H410 C419 0.930 . S
H411 C424 0.929 . S
H412 C422 0.929 . S
H413 C417 0.929 . S
H414 C423 0.929 . S
C415 H409 0.930 . S
C415 C416 1.367 . S
C415 C423 1.378 . S
C416 C415 1.367 . S
C416 C424 1.433 . S
C417 H413 0.929 . S
C417 C419 1.378 . S
C417 C421 1.350 . S
C418 C421 1.463 . S
C418 C423 1.350 . S
C418 N426 1.427 . S
C419 H410 0.930 . S
C419 C417 1.378 . S
C419 C420 1.367 . S
C420 C419 1.367 . S
C420 C422 1.433 . S
C421 C417 1.350 . S
C421 C418 1.463 . S
C421 N425 1.427 . S
C422 H412 0.929 . S
C422 C420 1.433 . S
C422 N425 1.384 . S
C423 H414 0.929 . S
C423 C415 1.378 . S
C423 C418 1.350 . S
C424 H411 0.929 . S
C424 C416 1.433 . S
C424 N426 1.384 . S
N425 C421 1.427 . S
N425 C422 1.384 . S
N426 C418 1.427 . S
N426 C424 1.384 . S
H427 C433 0.930 . S
H428 C437 0.930 . S
H429 C442 0.929 . S
H430 C440 0.929 . S
H431 C435 0.929 . S
H432 C441 0.929 . S
C433 H427 0.930 . S
C433 C434 1.367 . S
C433 C441 1.378 . S
C434 C433 1.367 . S
C434 C442 1.433 . S
C435 H431 0.929 . S
C435 C437 1.378 . S
C435 C439 1.350 . S
C436 C439 1.463 . S
C436 C441 1.350 . S
C436 N444 1.427 . S
C437 H428 0.930 . S
C437 C435 1.378 . S
C437 C438 1.367 . S
C438 C437 1.367 . S
C438 C440 1.433 . S
C439 C435 1.350 . S
C439 C436 1.463 . S
C439 N443 1.427 . S
C440 H430 0.929 . S
C440 C438 1.433 . S
C440 N443 1.384 . S
C441 H432 0.929 . S
C441 C433 1.378 . S
C441 C436 1.350 . S
C442 H429 0.929 . S
C442 C434 1.433 . S
C442 N444 1.384 . S
N443 C439 1.427 . S
N443 C440 1.384 . S
N444 C436 1.427 . S
N444 C442 1.384 . S
H445 C451 0.930 . S
H446 C455 0.930 . S
H447 C460 0.929 . S
H448 C458 0.929 . S
H449 C453 0.929 . S
H450 C459 0.929 . S
C451 H445 0.930 . S
C451 C452 1.367 . S
C451 C459 1.378 . S
C452 C451 1.367 . S
C452 C460 1.433 . S
C453 H449 0.929 . S
C453 C455 1.378 . S
C453 C457 1.350 . S
C454 C457 1.463 . S
C454 C459 1.350 . S
C454 N462 1.427 . S
C455 H446 0.930 . S
C455 C453 1.378 . S
C455 C456 1.367 . S
C456 C455 1.367 . S
C456 C458 1.433 . S
C457 C453 1.350 . S
C457 C454 1.463 . S
C457 N461 1.427 . S
C458 H448 0.929 . S
C458 C456 1.433 . S
C458 N461 1.384 . S
C459 H450 0.929 . S
C459 C451 1.378 . S
C459 C454 1.350 . S
C460 H447 0.929 . S
C460 C452 1.433 . S
C460 N462 1.384 . S
N461 C457 1.427 . S
N461 C458 1.384 . S
N462 C454 1.427 . S
N462 C460 1.384 . S
H463 C469 0.930 . S
H464 C473 0.930 . S
H465 C478 0.929 . S
H466 C476 0.929 . S
H467 C471 0.929 . S
H468 C477 0.929 . S
C469 H463 0.930 . S
C469 C470 1.367 . S
C469 C477 1.378 . S
C470 C469 1.367 . S
C470 C478 1.433 . S
C471 H467 0.929 . S
C471 C473 1.378 . S
C471 C475 1.350 . S
C472 C475 1.463 . S
C472 C477 1.350 . S
C472 N480 1.427 . S
C473 H464 0.930 . S
C473 C471 1.378 . S
C473 C474 1.367 . S
C474 C473 1.367 . S
C474 C476 1.433 . S
C475 C471 1.350 . S
C475 C472 1.463 . S
C475 N479 1.427 . S
C476 H466 0.929 . S
C476 C474 1.433 . S
C476 N479 1.384 . S
C477 H468 0.929 . S
C477 C469 1.378 . S
C477 C472 1.350 . S
C478 H465 0.929 . S
C478 C470 1.433 . S
C478 N480 1.384 . S
N479 C475 1.427 . S
N479 C476 1.384 . S
N480 C472 1.427 . S
N480 C478 1.384 . S
H481 C487 0.930 . S
H482 C491 0.930 . S
H483 C496 0.929 . S
H484 C494 0.929 . S
H485 C489 0.929 . S
H486 C495 0.929 . S
C487 H481 0.930 . S
C487 C488 1.367 . S
C487 C495 1.378 . S
C488 C487 1.367 . S
C488 C496 1.433 . S
C489 H485 0.929 . S
C489 C491 1.378 . S
C489 C493 1.350 . S
C490 C493 1.463 . S
C490 C495 1.350 . S
C490 N498 1.427 . S
C491 H482 0.930 . S
C491 C489 1.378 . S
C491 C492 1.367 . S
C492 C491 1.367 . S
C492 C494 1.433 . S
C493 C489 1.350 . S
C493 C490 1.463 . S
C493 N497 1.427 . S
C494 H484 0.929 . S
C494 C492 1.433 . S
C494 N497 1.384 . S
C495 H486 0.929 . S
C495 C487 1.378 . S
C495 C490 1.350 . S
C496 H483 0.929 . S
C496 C488 1.433 . S
C496 N498 1.384 . S
N497 C493 1.427 . S
N497 C494 1.384 . S
N498 C490 1.427 . S
N498 C496 1.384 . S
H499 C505 0.930 . S
H500 C509 0.930 . S
H501 C514 0.929 . S
H502 C512 0.929 . S
H503 C507 0.929 . S
H504 C513 0.929 . S
C505 H499 0.930 . S
C505 C506 1.367 . S
C505 C513 1.378 . S
C506 C505 1.367 . S
C506 C514 1.433 . S
C507 H503 0.929 . S
C507 C509 1.378 . S
C507 C511 1.350 . S
C508 C511 1.463 . S
C508 C513 1.350 . S
C508 N516 1.427 . S
C509 H500 0.930 . S
C509 C507 1.378 . S
C509 C510 1.367 . S
C510 C509 1.367 . S
C510 C512 1.433 . S
C511 C507 1.350 . S
C511 C508 1.463 . S
C511 N515 1.427 . S
C512 H502 0.929 . S
C512 C510 1.433 . S
C512 N515 1.384 . S
C513 H504 0.929 . S
C513 C505 1.378 . S
C513 C508 1.350 . S
C514 H501 0.929 . S
C514 C506 1.433 . S
C514 N516 1.384 . S
N515 C511 1.427 . S
N515 C512 1.384 . S
N516 C508 1.427 . S
N516 C514 1.384 . S
H517 C523 0.930 . S
H518 C527 0.930 . S
H519 C532 0.929 . S
H520 C530 0.929 . S
H521 C525 0.929 . S
H522 C531 0.929 . S
C523 H517 0.930 . S
C523 C524 1.367 . S
C523 C531 1.378 . S
C524 C523 1.367 . S
C524 C532 1.433 . S
C525 H521 0.929 . S
C525 C527 1.378 . S
C525 C529 1.350 . S
C526 C529 1.463 . S
C526 C531 1.350 . S
C526 N534 1.427 . S
C527 H518 0.930 . S
C527 C525 1.378 . S
C527 C528 1.367 . S
C528 C527 1.367 . S
C528 C530 1.433 . S
C529 C525 1.350 . S
C529 C526 1.463 . S
C529 N533 1.427 . S
C530 H520 0.929 . S
C530 C528 1.433 . S
C530 N533 1.384 . S
C531 H522 0.929 . S
C531 C523 1.378 . S
C531 C526 1.350 . S
C532 H519 0.929 . S
C532 C524 1.433 . S
C532 N534 1.384 . S
N533 C529 1.427 . S
N533 C530 1.384 . S
N534 C526 1.427 . S
N534 C532 1.384 . S
H535 C541 0.930 . S
H536 C545 0.930 . S
H537 C550 0.929 . S
H538 C548 0.929 . S
H539 C543 0.929 . S
H540 C549 0.929 . S
C541 H535 0.930 . S
C541 C542 1.367 . S
C541 C549 1.378 . S
C542 C541 1.367 . S
C542 C550 1.433 . S
C543 H539 0.929 . S
C543 C545 1.378 . S
C543 C547 1.350 . S
C544 C547 1.463 . S
C544 C549 1.350 . S
C544 N552 1.427 . S
C545 H536 0.930 . S
C545 C543 1.378 . S
C545 C546 1.367 . S
C546 C545 1.367 . S
C546 C548 1.433 . S
C547 C543 1.350 . S
C547 C544 1.463 . S
C547 N551 1.427 . S
C548 H538 0.929 . S
C548 C546 1.433 . S
C548 N551 1.384 . S
C549 H540 0.929 . S
C549 C541 1.378 . S
C549 C544 1.350 . S
C550 H537 0.929 . S
C550 C542 1.433 . S
C550 N552 1.384 . S
N551 C547 1.427 . S
N551 C548 1.384 . S
N552 C544 1.427 . S
N552 C550 1.384 . S
H553 C559 0.930 . S
H554 C563 0.930 . S
H555 C568 0.929 . S
H556 C566 0.929 . S
H557 C561 0.929 . S
H558 C567 0.929 . S
C559 H553 0.930 . S
C559 C560 1.367 . S
C559 C567 1.378 . S
C560 C559 1.367 . S
C560 C568 1.433 . S
C561 H557 0.929 . S
C561 C563 1.378 . S
C561 C565 1.350 . S
C562 C565 1.463 . S
C562 C567 1.350 . S
C562 N570 1.427 . S
C563 H554 0.930 . S
C563 C561 1.378 . S
C563 C564 1.367 . S
C564 C563 1.367 . S
C564 C566 1.433 . S
C565 C561 1.350 . S
C565 C562 1.463 . S
C565 N569 1.427 . S
C566 H556 0.929 . S
C566 C564 1.433 . S
C566 N569 1.384 . S
C567 H558 0.929 . S
C567 C559 1.378 . S
C567 C562 1.350 . S
C568 H555 0.929 . S
C568 C560 1.433 . S
C568 N570 1.384 . S
N569 C565 1.427 . S
N569 C566 1.384 . S
N570 C562 1.427 . S
N570 C568 1.384 . S
H571 C577 0.930 . S
H572 C581 0.930 . S
H573 C586 0.929 . S
H574 C584 0.929 . S
H575 C579 0.929 . S
H576 C585 0.929 . S
C577 H571 0.930 . S
C577 C578 1.367 . S
C577 C585 1.378 . S
C578 C577 1.367 . S
C578 C586 1.433 . S
C579 H575 0.929 . S
C579 C581 1.378 . S
C579 C583 1.350 . S
C580 C583 1.463 . S
C580 C585 1.350 . S
C580 N588 1.427 . S
C581 H572 0.930 . S
C581 C579 1.378 . S
C581 C582 1.367 . S
C582 C581 1.367 . S
C582 C584 1.433 . S
C583 C579 1.350 . S
C583 C580 1.463 . S
C583 N587 1.427 . S
C584 H574 0.929 . S
C584 C582 1.433 . S
C584 N587 1.384 . S
C585 H576 0.929 . S
C585 C577 1.378 . S
C585 C580 1.350 . S
C586 H573 0.929 . S
C586 C578 1.433 . S
C586 N588 1.384 . S
N587 C583 1.427 . S
N587 C584 1.384 . S
N588 C580 1.427 . S
N588 C586 1.384 . S
H589 C595 0.930 . S
H590 C599 0.930 . S
H591 C604 0.929 . S
H592 C602 0.929 . S
H593 C597 0.929 . S
H594 C603 0.929 . S
C595 H589 0.930 . S
C595 C596 1.367 . S
C595 C603 1.378 . S
C596 C595 1.367 . S
C596 C604 1.433 . S
C597 H593 0.929 . S
C597 C599 1.378 . S
C597 C601 1.350 . S
C598 C601 1.463 . S
C598 C603 1.350 . S
C598 N606 1.427 . S
C599 H590 0.930 . S
C599 C597 1.378 . S
C599 C600 1.367 . S
C600 C599 1.367 . S
C600 C602 1.433 . S
C601 C597 1.350 . S
C601 C598 1.463 . S
C601 N605 1.427 . S
C602 H592 0.929 . S
C602 C600 1.433 . S
C602 N605 1.384 . S
C603 H594 0.929 . S
C603 C595 1.378 . S
C603 C598 1.350 . S
C604 H591 0.929 . S
C604 C596 1.433 . S
C604 N606 1.384 . S
N605 C601 1.427 . S
N605 C602 1.384 . S
N606 C598 1.427 . S
N606 C604 1.384 . S
H607 C613 0.930 . S
H608 C617 0.930 . S
H609 C622 0.929 . S
H610 C620 0.929 . S
H611 C615 0.929 . S
H612 C621 0.929 . S
C613 H607 0.930 . S
C613 C614 1.367 . S
C613 C621 1.378 . S
C614 C613 1.367 . S
C614 C622 1.433 . S
C615 H611 0.929 . S
C615 C617 1.378 . S
C615 C619 1.350 . S
C616 C619 1.463 . S
C616 C621 1.350 . S
C616 N624 1.427 . S
C617 H608 0.930 . S
C617 C615 1.378 . S
C617 C618 1.367 . S
C618 C617 1.367 . S
C618 C620 1.433 . S
C619 C615 1.350 . S
C619 C616 1.463 . S
C619 N623 1.427 . S
C620 H610 0.929 . S
C620 C618 1.433 . S
C620 N623 1.384 . S
C621 H612 0.929 . S
C621 C613 1.378 . S
C621 C616 1.350 . S
C622 H609 0.929 . S
C622 C614 1.433 . S
C622 N624 1.384 . S
N623 C619 1.427 . S
N623 C620 1.384 . S
N624 C616 1.427 . S
N624 C622 1.384 . S
H625 C631 0.930 . S
H626 C635 0.930 . S
H627 C640 0.929 . S
H628 C638 0.929 . S
H629 C633 0.929 . S
H630 C639 0.929 . S
C631 H625 0.930 . S
C631 C632 1.367 . S
C631 C639 1.378 . S
C632 C631 1.367 . S
C632 C640 1.433 . S
C633 H629 0.929 . S
C633 C635 1.378 . S
C633 C637 1.350 . S
C634 C637 1.463 . S
C634 C639 1.350 . S
C634 N642 1.427 . S
C635 H626 0.930 . S
C635 C633 1.378 . S
C635 C636 1.367 . S
C636 C635 1.367 . S
C636 C638 1.433 . S
C637 C633 1.350 . S
C637 C634 1.463 . S
C637 N641 1.427 . S
C638 H628 0.929 . S
C638 C636 1.433 . S
C638 N641 1.384 . S
C639 H630 0.929 . S
C639 C631 1.378 . S
C639 C634 1.350 . S
C640 H627 0.929 . S
C640 C632 1.433 . S
C640 N642 1.384 . S
N641 C637 1.427 . S
N641 C638 1.384 . S
N642 C634 1.427 . S
N642 C640 1.384 . S
H643 C649 0.930 . S
H644 C653 0.930 . S
H645 C658 0.929 . S
H646 C656 0.929 . S
H647 C651 0.929 . S
H648 C657 0.929 . S
C649 H643 0.930 . S
C649 C650 1.367 . S
C649 C657 1.378 . S
C650 C649 1.367 . S
C650 C658 1.433 . S
C651 H647 0.929 . S
C651 C653 1.378 . S
C651 C655 1.350 . S
C652 C655 1.463 . S
C652 C657 1.350 . S
C652 N660 1.427 . S
C653 H644 0.930 . S
C653 C651 1.378 . S
C653 C654 1.367 . S
C654 C653 1.367 . S
C654 C656 1.433 . S
C655 C651 1.350 . S
C655 C652 1.463 . S
C655 N659 1.427 . S
C656 H646 0.929 . S
C656 C654 1.433 . S
C656 N659 1.384 . S
C657 H648 0.929 . S
C657 C649 1.378 . S
C657 C652 1.350 . S
C658 H645 0.929 . S
C658 C650 1.433 . S
C658 N660 1.384 . S
N659 C655 1.427 . S
N659 C656 1.384 . S
N660 C652 1.427 . S
N660 C658 1.384 . S
H661 C667 0.930 . S
H662 C671 0.930 . S
H663 C676 0.929 . S
H664 C674 0.929 . S
H665 C669 0.929 . S
H666 C675 0.929 . S
C667 H661 0.930 . S
C667 C668 1.367 . S
C667 C675 1.378 . S
C668 C667 1.367 . S
C668 C676 1.433 . S
C669 H665 0.929 . S
C669 C671 1.378 . S
C669 C673 1.350 . S
C670 C673 1.463 . S
C670 C675 1.350 . S
C670 N678 1.427 . S
C671 H662 0.930 . S
C671 C669 1.378 . S
C671 C672 1.367 . S
C672 C671 1.367 . S
C672 C674 1.433 . S
C673 C669 1.350 . S
C673 C670 1.463 . S
C673 N677 1.427 . S
C674 H664 0.929 . S
C674 C672 1.433 . S
C674 N677 1.384 . S
C675 H666 0.929 . S
C675 C667 1.378 . S
C675 C670 1.350 . S
C676 H663 0.929 . S
C676 C668 1.433 . S
C676 N678 1.384 . S
N677 C673 1.427 . S
N677 C674 1.384 . S
N678 C670 1.427 . S
N678 C676 1.384 . S
H679 C685 0.930 . S
H680 C689 0.930 . S
H681 C694 0.929 . S
H682 C692 0.929 . S
H683 C687 0.929 . S
H684 C693 0.929 . S
C685 H679 0.930 . S
C685 C686 1.367 . S
C685 C693 1.378 . S
C686 C685 1.367 . S
C686 C694 1.433 . S
C687 H683 0.929 . S
C687 C689 1.378 . S
C687 C691 1.350 . S
C688 C691 1.463 . S
C688 C693 1.350 . S
C688 N696 1.427 . S
C689 H680 0.930 . S
C689 C687 1.378 . S
C689 C690 1.367 . S
C690 C689 1.367 . S
C690 C692 1.433 . S
C691 C687 1.350 . S
C691 C688 1.463 . S
C691 N695 1.427 . S
C692 H682 0.929 . S
C692 C690 1.433 . S
C692 N695 1.384 . S
C693 H684 0.929 . S
C693 C685 1.378 . S
C693 C688 1.350 . S
C694 H681 0.929 . S
C694 C686 1.433 . S
C694 N696 1.384 . S
N695 C691 1.427 . S
N695 C692 1.384 . S
N696 C688 1.427 . S
N696 C694 1.384 . S
H697 C703 0.930 . S
H698 C707 0.930 . S
H699 C712 0.929 . S
H700 C710 0.929 . S
H701 C705 0.929 . S
H702 C711 0.929 . S
C703 H697 0.930 . S
C703 C704 1.367 . S
C703 C711 1.378 . S
C704 C703 1.367 . S
C704 C712 1.433 . S
C705 H701 0.929 . S
C705 C707 1.378 . S
C705 C709 1.350 . S
C706 C709 1.463 . S
C706 C711 1.350 . S
C706 N714 1.427 . S
C707 H698 0.930 . S
C707 C705 1.378 . S
C707 C708 1.367 . S
C708 C707 1.367 . S
C708 C710 1.433 . S
C709 C705 1.350 . S
C709 C706 1.463 . S
C709 N713 1.427 . S
C710 H700 0.929 . S
C710 C708 1.433 . S
C710 N713 1.384 . S
C711 H702 0.929 . S
C711 C703 1.378 . S
C711 C706 1.350 . S
C712 H699 0.929 . S
C712 C704 1.433 . S
C712 N714 1.384 . S
N713 C709 1.427 . S
N713 C710 1.384 . S
N714 C706 1.427 . S
N714 C712 1.384 . S
H715 C721 0.930 . S
H716 C725 0.930 . S
H717 C730 0.929 . S
H718 C728 0.929 . S
H719 C723 0.929 . S
H720 C729 0.929 . S
C721 H715 0.930 . S
C721 C722 1.367 . S
C721 C729 1.378 . S
C722 C721 1.367 . S
C722 C730 1.433 . S
C723 H719 0.929 . S
C723 C725 1.378 . S
C723 C727 1.350 . S
C724 C727 1.463 . S
C724 C729 1.350 . S
C724 N732 1.427 . S
C725 H716 0.930 . S
C725 C723 1.378 . S
C725 C726 1.367 . S
C726 C725 1.367 . S
C726 C728 1.433 . S
C727 C723 1.350 . S
C727 C724 1.463 . S
C727 N731 1.427 . S
C728 H718 0.929 . S
C728 C726 1.433 . S
C728 N731 1.384 . S
C729 H720 0.929 . S
C729 C721 1.378 . S
C729 C724 1.350 . S
C730 H717 0.929 . S
C730 C722 1.433 . S
C730 N732 1.384 . S
N731 C727 1.427 . S
N731 C728 1.384 . S
N732 C724 1.427 . S
N732 C730 1.384 . S
H733 C739 0.930 . S
H734 C743 0.930 . S
H735 C748 0.929 . S
H736 C746 0.929 . S
H737 C741 0.929 . S
H738 C747 0.929 . S
C739 H733 0.930 . S
C739 C740 1.367 . S
C739 C747 1.378 . S
C740 C739 1.367 . S
C740 C748 1.433 . S
C741 H737 0.929 . S
C741 C743 1.378 . S
C741 C745 1.350 . S
C742 C745 1.463 . S
C742 C747 1.350 . S
C742 N750 1.427 . S
C743 H734 0.930 . S
C743 C741 1.378 . S
C743 C744 1.367 . S
C744 C743 1.367 . S
C744 C746 1.433 . S
C745 C741 1.350 . S
C745 C742 1.463 . S
C745 N749 1.427 . S
C746 H736 0.929 . S
C746 C744 1.433 . S
C746 N749 1.384 . S
C747 H738 0.929 . S
C747 C739 1.378 . S
C747 C742 1.350 . S
C748 H735 0.929 . S
C748 C740 1.433 . S
C748 N750 1.384 . S
N749 C745 1.427 . S
N749 C746 1.384 . S
N750 C742 1.427 . S
N750 C748 1.384 . S
H751 C757 0.930 . S
H752 C761 0.930 . S
H753 C766 0.929 . S
H754 C764 0.929 . S
H755 C759 0.929 . S
H756 C765 0.929 . S
C757 H751 0.930 . S
C757 C758 1.367 . S
C757 C765 1.378 . S
C758 C757 1.367 . S
C758 C766 1.433 . S
C759 H755 0.929 . S
C759 C761 1.378 . S
C759 C763 1.350 . S
C760 C763 1.463 . S
C760 C765 1.350 . S
C760 N768 1.427 . S
C761 H752 0.930 . S
C761 C759 1.378 . S
C761 C762 1.367 . S
C762 C761 1.367 . S
C762 C764 1.433 . S
C763 C759 1.350 . S
C763 C760 1.463 . S
C763 N767 1.427 . S
C764 H754 0.929 . S
C764 C762 1.433 . S
C764 N767 1.384 . S
C765 H756 0.929 . S
C765 C757 1.378 . S
C765 C760 1.350 . S
C766 H753 0.929 . S
C766 C758 1.433 . S
C766 N768 1.384 . S
N767 C763 1.427 . S
N767 C764 1.384 . S
N768 C760 1.427 . S
N768 C766 1.384 . S
H769 C775 0.930 . S
H770 C779 0.930 . S
H771 C784 0.929 . S
H772 C782 0.929 . S
H773 C777 0.929 . S
H774 C783 0.929 . S
C775 H769 0.930 . S
C775 C776 1.367 . S
C775 C783 1.378 . S
C776 C775 1.367 . S
C776 C784 1.433 . S
C777 H773 0.929 . S
C777 C779 1.378 . S
C777 C781 1.350 . S
C778 C781 1.463 . S
C778 C783 1.350 . S
C778 N786 1.427 . S
C779 H770 0.930 . S
C779 C777 1.378 . S
C779 C780 1.367 . S
C780 C779 1.367 . S
C780 C782 1.433 . S
C781 C777 1.350 . S
C781 C778 1.463 . S
C781 N785 1.427 . S
C782 H772 0.929 . S
C782 C780 1.433 . S
C782 N785 1.384 . S
C783 H774 0.929 . S
C783 C775 1.378 . S
C783 C778 1.350 . S
C784 H771 0.929 . S
C784 C776 1.433 . S
C784 N786 1.384 . S
N785 C781 1.427 . S
N785 C782 1.384 . S
N786 C778 1.427 . S
N786 C784 1.384 . S
C366 C280 1.092 . S
C362 C17 1.115 . S
C384 C316 1.617 . S
C380 C55 1.730 . S
C402 C281 1.350 . S
C398 C87 1.372 . S
C420 C311 1.490 . S
C416 C113 1.532 . S
C438 C278 1.415 . S
C434 C145 1.407 . S
C452 C183 1.548 . S
C456 C314 1.628 . S
C470 C215 1.202 . S
C474 C283 1.114 . S
C492 C313 1.389 . S
C488 C247 1.423 . S
C510 C317 1.355 . S
C506 C23 1.352 . S
C528 C282 1.496 . S
C524 C49 1.564 . S
C546 C310 1.683 . S
C542 C81 1.697 . S
C564 C279 1.122 . S
C560 C125 1.239 . S
C582 C312 1.577 . S
C578 C151 1.600 . S
C596 C189 1.341 . S
C600 C277 1.400 . S
C614 C209 1.587 . S
C618 C315 1.526 . S
C636 C284 1.119 . S
C632 C241 1.160 . S
C654 C346 1.674 . S
C650 C29 1.715 . S
C668 C157 1.923 . S
C672 C349 1.891 . S
C690 C348 1.628 . S
C686 C177 1.586 . S
C704 C221 2.095 . S
C708 C347 2.067 . S
C726 C350 1.684 . S
C722 C253 1.761 . S
C740 C93 1.774 . S
C744 C344 1.695 . S
C762 C343 1.970 . S
C758 C119 1.991 . S
C776 C61 2.054 . S
C780 C345 1.926 . S
