# Generated by pormake.
# Topology nom, (4,4)-cn, num edge types: 1
# Building blocks:
#     Node 0, Type 0, BuildingBlock: NAWXER_clean_linker_0, # of connection points: 4
#     Node 1, Type 0, BuildingBlock: NAWXER_clean_linker_0, # of connection points: 4
#     Node 2, Type 0, BuildingBlock: NAWXER_clean_linker_0, # of connection points: 4
#     Node 3, Type 0, BuildingBlock: NAWXER_clean_linker_0, # of connection points: 4
#     Node 4, Type 0, BuildingBlock: NAWXER_clean_linker_0, # of connection points: 4
#     Node 5, Type 0, BuildingBlock: NAWXER_clean_linker_0, # of connection points: 4
#     Node 6, Type 1, BuildingBlock: QUQFOY_clean_sbu_3, # of connection points: 4
#     Node 7, Type 1, BuildingBlock: QUQFOY_clean_sbu_3, # of connection points: 4
#     Node 8, Type 1, BuildingBlock: QUQFOY_clean_sbu_3, # of connection points: 4
#     Node 9, Type 1, BuildingBlock: QUQFOY_clean_sbu_3, # of connection points: 4
#     Node 10, Type 1, BuildingBlock: QUQFOY_clean_sbu_3, # of connection points: 4
#     Node 11, Type 1, BuildingBlock: QUQFOY_clean_sbu_3, # of connection points: 4
#     Edge 12, Type (0, 1), BuildingBlock: TEMPAE_clean_linker_10, # of connection points: 2
#     Edge 13, Type (0, 1), BuildingBlock: TEMPAE_clean_linker_10, # of connection points: 2
#     Edge 14, Type (0, 1), BuildingBlock: TEMPAE_clean_linker_10, # of connection points: 2
#     Edge 15, Type (0, 1), BuildingBlock: TEMPAE_clean_linker_10, # of connection points: 2
#     Edge 16, Type (0, 1), BuildingBlock: TEMPAE_clean_linker_10, # of connection points: 2
#     Edge 17, Type (0, 1), BuildingBlock: TEMPAE_clean_linker_10, # of connection points: 2
#     Edge 18, Type (0, 1), BuildingBlock: TEMPAE_clean_linker_10, # of connection points: 2
#     Edge 19, Type (0, 1), BuildingBlock: TEMPAE_clean_linker_10, # of connection points: 2
#     Edge 20, Type (0, 1), BuildingBlock: TEMPAE_clean_linker_10, # of connection points: 2
#     Edge 21, Type (0, 1), BuildingBlock: TEMPAE_clean_linker_10, # of connection points: 2
#     Edge 22, Type (0, 1), BuildingBlock: TEMPAE_clean_linker_10, # of connection points: 2
#     Edge 23, Type (0, 1), BuildingBlock: TEMPAE_clean_linker_10, # of connection points: 2
#     Edge 24, Type (0, 1), BuildingBlock: TEMPAE_clean_linker_10, # of connection points: 2
#     Edge 25, Type (0, 1), BuildingBlock: TEMPAE_clean_linker_10, # of connection points: 2
#     Edge 26, Type (0, 1), BuildingBlock: TEMPAE_clean_linker_10, # of connection points: 2
#     Edge 27, Type (0, 1), BuildingBlock: TEMPAE_clean_linker_10, # of connection points: 2
#     Edge 28, Type (0, 1), BuildingBlock: TEMPAE_clean_linker_10, # of connection points: 2
#     Edge 29, Type (0, 1), BuildingBlock: TEMPAE_clean_linker_10, # of connection points: 2
#     Edge 30, Type (0, 1), BuildingBlock: TEMPAE_clean_linker_10, # of connection points: 2
#     Edge 31, Type (0, 1), BuildingBlock: TEMPAE_clean_linker_10, # of connection points: 2
#     Edge 32, Type (0, 1), BuildingBlock: TEMPAE_clean_linker_10, # of connection points: 2
#     Edge 33, Type (0, 1), BuildingBlock: TEMPAE_clean_linker_10, # of connection points: 2
#     Edge 34, Type (0, 1), BuildingBlock: TEMPAE_clean_linker_10, # of connection points: 2
#     Edge 35, Type (0, 1), BuildingBlock: TEMPAE_clean_linker_10, # of connection points: 2
# Relax obj value: 0.007
# Max RMSD: 0.110
# Mean RMSD: 0.075
data_MOF--net-nom--node1-QUQFOY_clean_sbu_3--node2-NAWXER_clean_linker_0--edge1-TEMPAE_clean_linker_10
_symmetry_space_group_name_H-M    P1
_symmetry_Int_Tables_number       1
_symmetry_cell_setting            triclinic
loop_
_symmetry_equiv_pos_as_xyz
'x, y, z'
_cell_length_a     53.025888
_cell_length_b     54.336732
_cell_length_c     58.798395
_cell_angle_alpha  89.872562
_cell_angle_beta   90.107467
_cell_angle_gamma 119.98575
loop_
_atom_site_label
_atom_site_type_symbol
_atom_site_fract_x
_atom_site_fract_y
_atom_site_fract_z
_atom_type_partial_charge
C0 C 0.90196 0.45421 0.32033 0.0
C1 C 0.88964 0.4359 0.33906 0.0
C2 C 0.92923 0.46066 0.31208 0.0
C3 C 0.94466 0.44875 0.32225 0.0
C4 C 0.90484 0.42347 0.34887 0.0
C5 C 0.93222 0.43003 0.34064 0.0
C6 C 0.97517 0.45886 0.31574 0.0
C7 C 0.91963 0.41244 0.25577 0.0
C8 C 0.92616 0.42861 0.23574 0.0
C9 C 0.93876 0.42247 0.2743 0.0
C10 C 0.96425 0.44925 0.27331 0.0
C11 C 0.95214 0.4548 0.23447 0.0
C12 C 0.97094 0.46502 0.25305 0.0
C13 C 0.98445 0.46111 0.29293 0.0
C14 C 0.11665 0.52848 0.30297 0.0
C15 C 0.12194 0.54816 0.28548 0.0
C16 C 0.08809 0.5083 0.3089 0.0
C17 C 0.06443 0.50806 0.29785 0.0
C18 C 0.09826 0.54686 0.2737 0.0
C19 C 0.06983 0.52702 0.27981 0.0
C20 C 0.03392 0.48906 0.30503 0.0
C21 C 0.07962 0.54347 0.36626 0.0
C22 C 0.08085 0.52749 0.38464 0.0
C23 C 0.06146 0.52994 0.34769 0.0
C24 C 0.04445 0.50019 0.34708 0.0
C25 C 0.06347 0.4977 0.38403 0.0
C26 C 0.04528 0.48421 0.36549 0.0
C27 C 0.02461 0.4857 0.32788 0.0
H28 H 0.89116 0.46463 0.31268 0.0
H29 H 0.9388 0.47594 0.29838 0.0
H30 H 0.89582 0.40908 0.36318 0.0
H31 H 0.94396 0.42093 0.34891 0.0
H32 H 0.89984 0.39203 0.25703 0.0
H33 H 0.93354 0.4093 0.28935 0.0
H34 H 0.95753 0.46779 0.21928 0.0
H35 H 0.99048 0.48563 0.25171 0.0
H36 H 0.13459 0.52884 0.3121 0.0
H37 H 0.08454 0.49327 0.32235 0.0
H38 H 0.10168 0.56193 0.2603 0.0
H39 H 0.05201 0.52721 0.27092 0.0
H40 H 0.09234 0.56646 0.36638 0.0
H41 H 0.06053 0.5427 0.33388 0.0
H42 H 0.06416 0.48474 0.39777 0.0
H43 H 0.03207 0.46125 0.3654 0.0
N44 N -0.00436 0.47076 0.33233 0.0
N45 N 0.01346 0.47642 0.28853 0.0
C46 C 0.4273 0.90391 0.49072 0.0
C47 C 0.43406 0.89335 0.51028 0.0
C48 C 0.44521 0.93198 0.48379 0.0
C49 C 0.47095 0.9499 0.4957 0.0
C50 C 0.45951 0.91157 0.5225 0.0
C51 C 0.47776 0.93951 0.51525 0.0
C52 C 0.48954 0.98008 0.48905 0.0
C53 C 0.48728 0.92826 0.42915 0.0
C54 C 0.47592 0.93322 0.40919 0.0
C55 C 0.49469 0.94679 0.44762 0.0
C56 C 0.48995 0.97004 0.44666 0.0
C57 C 0.47235 0.9571 0.4079 0.0
C58 C 0.47928 0.97531 0.42646 0.0
C59 C 0.49657 0.98942 0.46626 0.0
C60 C 0.56949 0.11688 0.47352 0.0
C61 C 0.55262 0.12486 0.46029 0.0
C62 C 0.55869 0.08833 0.47928 0.0
C63 C 0.53102 0.06751 0.47173 0.0
C64 C 0.52536 0.10383 0.45222 0.0
C65 C 0.51479 0.07537 0.45771 0.0
C66 C 0.51814 0.03754 0.47866 0.0
C67 C 0.52396 0.08881 0.54057 0.0
C68 C 0.53633 0.08353 0.55987 0.0
C69 C 0.51562 0.07074 0.52176 0.0
C70 C 0.52069 0.04772 0.52133 0.0
C71 C 0.53992 0.05955 0.55979 0.0
C72 C 0.53241 0.04204 0.54072 0.0
C73 C 0.51255 0.02833 0.50154 0.0
H74 H 0.40813 0.89052 0.48068 0.0
H75 H 0.43867 0.93969 0.46922 0.0
H76 H 0.46514 0.90447 0.53791 0.0
H77 H 0.49715 0.95309 0.52503 0.0
H78 H 0.49056 0.91016 0.4304 0.0
H79 H 0.50393 0.94282 0.46266 0.0
H80 H 0.46348 0.96128 0.39272 0.0
H81 H 0.47572 0.99324 0.42518 0.0
H82 H 0.59058 0.13278 0.47992 0.0
H83 H 0.57164 0.08256 0.48992 0.0
H84 H 0.51214 0.10947 0.44179 0.0
H85 H 0.49347 0.05953 0.4516 0.0
H86 H 0.52088 0.10704 0.5398 0.0
H87 H 0.5051 0.07484 0.50765 0.0
H88 H 0.54838 0.05407 0.57452 0.0
H89 H 0.53586 0.024 0.54112 0.0
N90 N 0.49837 -6e-05 0.50575 0.0
N91 N 0.51005 0.01777 0.46198 0.0
C92 C 0.56855 0.48943 0.6084 0.0
C93 C 0.54902 0.47102 0.592 0.0
C94 C 0.55832 0.49792 0.62695 0.0
C95 C 0.52847 0.48846 0.62912 0.0
C96 C 0.51917 0.46138 0.59425 0.0
C97 C 0.50901 0.47038 0.61252 0.0
C98 C 0.51767 0.49818 0.64824 0.0
C99 C 0.53465 0.43259 0.67768 0.0
C100 C 0.55456 0.44078 0.69579 0.0
C101 C 0.52528 0.45077 0.66958 0.0
C102 C 0.53636 0.4781 0.67876 0.0
C103 C 0.56549 0.46807 0.70519 0.0
C104 C 0.55641 0.48652 0.69677 0.0
C105 C 0.5246 0.49645 0.6712 0.0
C106 C 0.45555 0.53592 0.72423 0.0
C107 C 0.47708 0.55689 0.73823 0.0
C108 C 0.46328 0.52483 0.70587 0.0
C109 C 0.49269 0.53458 0.70108 0.0
C110 C 0.50655 0.56661 0.73333 0.0
C111 C 0.51425 0.55539 0.71501 0.0
C112 C 0.5011 0.52217 0.6823 0.0
C113 C 0.46092 0.56953 0.64741 0.0
C114 C 0.43326 0.54976 0.63903 0.0
C115 C 0.48015 0.56046 0.65457 0.0
C116 C 0.47203 0.53167 0.65293 0.0
C117 C 0.42516 0.52098 0.63767 0.0
C118 C 0.44455 0.51206 0.64431 0.0
C119 C 0.49202 0.52156 0.65966 0.0
H120 H 0.59167 0.49709 0.60691 0.0
H121 H 0.57373 0.5122 0.63942 0.0
H122 H 0.50382 0.44731 0.58165 0.0
H123 H 0.48593 0.46298 0.61386 0.0
H124 H 0.52605 0.41196 0.66975 0.0
H125 H 0.50872 0.44297 0.65648 0.0
H126 H 0.58057 0.47495 0.71935 0.0
H127 H 0.5648 0.50725 0.7045 0.0
H128 H 0.43265 0.52747 0.72783 0.0
H129 H 0.44625 0.50816 0.69575 0.0
H130 H 0.52367 0.58289 0.74366 0.0
H131 H 0.53707 0.56304 0.71165 0.0
H132 H 0.4675 0.59184 0.64851 0.0
H133 H 0.5014 0.57587 0.66107 0.0
H134 H 0.404 0.50548 0.63107 0.0
H135 H 0.43803 0.48977 0.64291 0.0
N136 N 0.50098 0.50997 0.6434 0.0
N137 N 0.51671 0.50923 0.68733 0.0
C138 C 0.91297 0.44266 0.80785 0.0
C139 C 0.89851 0.44704 0.7896 0.0
C140 C 0.93991 0.46448 0.81525 0.0
C141 C 0.95287 0.49123 0.80467 0.0
C142 C 0.91161 0.47384 0.77895 0.0
C143 C 0.93869 0.49568 0.78633 0.0
C144 C 0.98224 0.51363 0.81162 0.0
C145 C 0.92232 0.50155 0.86929 0.0
C146 C 0.92844 0.49173 0.88952 0.0
C147 C 0.94241 0.51152 0.85146 0.0
C148 C 0.96875 0.51134 0.85339 0.0
C149 C 0.95509 0.49225 0.89164 0.0
C150 C 0.97507 0.50202 0.87377 0.0
C151 C 0.9901 0.52125 0.83454 0.0
C152 C 0.12166 0.59881 0.8293 0.0
C153 C 0.12852 0.58586 0.84712 0.0
C154 C 0.09276 0.58742 0.82207 0.0
C155 C 0.07059 0.56237 0.83205 0.0
C156 C 0.10606 0.56183 0.85786 0.0
C157 C 0.07746 0.55022 0.8504 0.0
C158 C 0.04016 0.54781 0.82375 0.0
C159 C 0.09527 0.55307 0.76298 0.0
C160 C 0.08991 0.56447 0.74323 0.0
C161 C 0.07665 0.54553 0.78172 0.0
C162 C 0.05296 0.55033 0.7815 0.0
C163 C 0.06568 0.56853 0.74294 0.0
C164 C 0.04754 0.56164 0.76187 0.0
C165 C 0.03208 0.54142 0.80061 0.0
H166 H 0.90383 0.42211 0.81608 0.0
H167 H 0.95093 0.46023 0.82892 0.0
H168 H 0.90093 0.47794 0.76494 0.0
H169 H 0.94854 0.51607 0.77776 0.0
H170 H 0.90214 0.50182 0.86736 0.0
H171 H 0.93739 0.51946 0.83621 0.0
H172 H 0.96029 0.48459 0.90697 0.0
H173 H -0.00472 0.5018 0.87573 0.0
H174 H 0.13865 0.61753 0.8209 0.0
H175 H 0.08788 0.59775 0.80838 0.0
H176 H 0.11078 0.55125 0.87148 0.0
H177 H 0.06079 0.53103 0.85852 0.0
H178 H 0.11376 0.54979 0.764 0.0
H179 H 0.08066 0.53572 0.79627 0.0
H180 H 0.0602 0.57641 0.7279 0.0
H181 H 0.02898 0.56488 0.76107 0.0
N182 N 0.00341 0.5245 0.79553 0.0
N183 N 0.01875 0.53764 0.83969 0.0
C184 C 0.48306 0.91241 0.97864 0.0
C185 C 0.46043 0.89746 0.96294 0.0
C186 C 0.49083 0.93999 0.98504 0.0
C187 C 0.47614 0.95322 0.97592 0.0
C188 C 0.44598 0.91094 0.95359 0.0
C189 C 0.45396 0.9387 0.95991 0.0
C190 C 0.48499 0.98266 0.98237 0.0
C191 C 0.439 0.9293 0.04358 0.0
C192 C 0.45876 0.93219 0.06069 0.0
C193 C 0.44816 0.94838 0.02536 0.0
C194 C 0.47707 0.9708 0.02428 0.0
C195 C 0.48766 0.95453 0.05958 0.0
C196 C 0.49666 0.97395 0.04163 0.0
C197 C 0.48696 0.99115 0.00521 0.0
C198 C 0.53061 0.11759 -0.00405 0.0
C199 C 0.55135 0.12705 0.01351 0.0
C200 C 0.51546 0.08886 0.98993 0.0
C201 C 0.52166 0.06943 0.00084 0.0
C202 C 0.55609 0.10729 0.02537 0.0
C203 C 0.54141 0.07876 0.01907 0.0
C204 C 0.50831 0.03947 0.99348 0.0
C205 C 0.55787 0.09296 0.9332 0.0
C206 C 0.54131 0.08778 0.91321 0.0
C207 C 0.54673 0.07451 0.95176 0.0
C208 C 0.51833 0.05107 0.95113 0.0
C209 C 0.51319 0.06376 0.91243 0.0
C210 C 0.50185 0.04569 0.93119 0.0
C211 C 0.5063 0.03095 0.97046 0.0
H212 H 0.49512 0.90297 0.98575 0.0
H213 H 0.50864 0.95116 -0.00309 0.0
H214 H 0.42829 0.89994 0.94161 0.0
H215 H 0.44259 0.94871 0.95252 0.0
H216 H 0.4166 0.91216 0.04425 0.0
H217 H 0.43268 0.9458 0.01222 0.0
H218 H 0.50312 0.9571 0.07274 0.0
H219 H 0.51903 0.99118 0.04106 0.0
H220 H 0.5264 0.13247 0.98676 0.0
H221 H 0.49951 0.082 0.97638 0.0
H222 H 0.5721 0.11411 0.03889 0.0
H223 H 0.54632 0.06415 0.02795 0.0
H224 H 0.57949 0.11129 0.93459 0.0
H225 H 0.56043 0.07856 0.96657 0.0
H226 H 0.50004 0.05855 0.89718 0.0
H227 H 0.48014 0.02738 0.93009 0.0
N228 N 0.4945 0.0028 0.96583 0.0
N229 N 0.49867 0.01918 0.00993 0.0
C230 C 0.47388 0.57573 0.17375 0.0
C231 C 0.45672 0.57157 0.19314 0.0
C232 C 0.47989 0.55477 0.16661 0.0
C233 C 0.46808 0.52871 0.17819 0.0
C234 C 0.44541 0.54568 0.20505 0.0
C235 C 0.45111 0.52448 0.19765 0.0
C236 C 0.4757 0.50708 0.17121 0.0
C237 C 0.42761 0.51744 0.11268 0.0
C238 C 0.44381 0.52735 0.0925 0.0
C239 C 0.4378 0.50798 0.13072 0.0
C240 C 0.46474 0.50894 0.12909 0.0
C241 C 0.47025 0.52744 0.09064 0.0
C242 C 0.48059 0.51832 0.10874 0.0
C243 C 0.47658 0.49994 0.14822 0.0
C244 C 0.53741 0.43009 0.15401 0.0
C245 C 0.55769 0.44456 0.13661 0.0
C246 C 0.5184 0.43942 0.16111 0.0
C247 C 0.52 0.4638 0.15131 0.0
C248 C 0.55839 0.46819 0.12628 0.0
C249 C 0.53976 0.47768 0.13354 0.0
C250 C 0.50194 0.47583 0.15923 0.0
C251 C 0.55334 0.47639 0.22115 0.0
C252 C 0.53505 0.45774 0.23814 0.0
C253 C 0.54165 0.48383 0.20285 0.0
C254 C 0.51148 0.47267 0.20116 0.0
C255 C 0.5048 0.44663 0.2363 0.0
C256 C 0.49317 0.45424 0.21807 0.0
C257 C 0.49896 0.48102 0.18231 0.0
H258 H 0.48269 0.5952 0.16397 0.0
H259 H 0.49411 0.55917 0.15212 0.0
H260 H 0.43253 0.54194 0.22028 0.0
H261 H 0.44235 0.50482 0.20719 0.0
H262 H 0.40695 0.5168 0.1144 0.0
H263 H 0.42465 0.49998 0.14593 0.0
H264 H 0.48329 0.53517 0.07534 0.0
H265 H 0.50133 0.51915 0.10696 0.0
H266 H 0.53627 0.41161 0.16205 0.0
H267 H 0.5027 0.42775 0.17432 0.0
H268 H 0.57401 0.47994 0.11301 0.0
H269 H 0.54142 0.49647 0.12564 0.0
H270 H 0.57675 0.48577 0.22225 0.0
H271 H 0.55617 0.49854 0.19014 0.0
H272 H 0.49006 0.43196 0.24891 0.0
H273 H 0.46983 0.44556 0.21707 0.0
N274 N 0.48619 0.49665 0.18741 0.0
N275 N 0.49021 0.48513 0.14317 0.0
C276 C 0.71157 0.42952 0.40582 0.0
O277 O 0.71319 0.45271 0.41175 0.0
Cd278 Cd 0.67081 0.45422 0.424 0.0
O279 O 0.68744 0.40633 0.40703 0.0
Cd280 Cd 0.63667 0.38858 0.41894 0.0
C281 C 0.6264 0.42574 0.37748 0.0
O282 O 0.64537 0.41816 0.45248 0.0
O283 O 0.60111 0.3956 0.43989 0.0
O284 O 0.63729 0.34976 0.4389 0.0
C285 C 0.61877 0.4107 0.45535 0.0
O286 O 0.64204 0.44751 0.38968 0.0
C287 C 0.61735 0.33002 0.42721 0.0
O288 O 0.62183 0.40133 0.3835 0.0
O289 O 0.606 0.33742 0.4115 0.0
C290 C 0.27947 0.58421 0.57192 0.0
O291 O 0.25655 0.5623 0.56501 0.0
Cd292 Cd 0.21428 0.56334 0.55148 0.0
O293 O 0.28173 0.60865 0.57094 0.0
Cd294 Cd 0.25328 0.63054 0.55759 0.0
C295 C 0.20173 0.59448 0.59749 0.0
O296 O 0.23183 0.60098 0.52428 0.0
O297 O 0.21413 0.62779 0.53336 0.0
O298 O 0.2964 0.66877 0.53981 0.0
C299 C 0.2149 0.61039 0.51941 0.0
O300 O 0.1927 0.57272 0.58478 0.0
C301 C 0.2963 0.68862 0.55107 0.0
O302 O 0.22442 0.61782 0.59238 0.0
O303 O 0.27628 0.68146 0.56577 0.0
C304 C 0.70779 0.2812 0.7377 0.0
O305 O 0.70621 0.25815 0.73138 0.0
Cd306 Cd 0.66046 0.21747 0.72081 0.0
O307 O 0.68494 0.28324 0.73865 0.0
Cd308 Cd 0.63237 0.2543 0.73153 0.0
C309 C 0.62241 0.2046 0.77043 0.0
O310 O 0.63486 0.23286 0.69601 0.0
O311 O 0.59248 0.21355 0.71197 0.0
O312 O 0.63251 0.2947 0.71394 0.0
C313 C 0.60775 0.21547 0.69475 0.0
O314 O 0.63342 0.19554 0.75572 0.0
C315 C 0.6156 0.29654 0.72817 0.0
O316 O 0.62144 0.22723 0.7669 0.0
O317 O 0.60613 0.2785 0.74426 0.0
C318 C 0.31266 0.5972 0.9011 0.0
O319 O 0.30959 0.57347 0.9074 0.0
Cd320 Cd 0.349 0.56913 0.92325 0.0
O321 O 0.33696 0.61995 0.90366 0.0
Cd322 Cd 0.38628 0.63706 0.91895 0.0
C323 C 0.39855 0.59886 0.87954 0.0
O324 O 0.37089 0.60529 0.95178 0.0
O325 O 0.41726 0.63108 0.94656 0.0
O326 O 0.37933 0.67553 0.93176 0.0
C327 C 0.39645 0.613 0.95868 0.0
O328 O 0.38119 0.57705 0.8911 0.0
C329 C 0.40394 0.69545 0.92525 0.0
O330 O 0.40353 0.6235 0.88526 0.0
O331 O 0.42082 0.68828 0.91574 0.0
C332 C 0.72636 0.42646 0.08116 0.0
O333 O 0.74929 0.44953 0.07615 0.0
Cd334 Cd 0.79102 0.44978 0.06 0.0
O335 O 0.72455 0.40269 0.07685 0.0
Cd336 Cd 0.75227 0.38242 0.0594 0.0
C337 C 0.80314 0.41118 0.10073 0.0
O338 O 0.77382 0.41709 0.0286 0.0
O339 O 0.78903 0.3871 0.03226 0.0
O340 O 0.70458 0.34865 0.04452 0.0
C341 C 0.78955 0.40737 0.02115 0.0
O342 O 0.81104 0.43493 0.09106 0.0
C343 C 0.70608 0.32669 0.04946 0.0
O344 O 0.78145 0.38843 0.09329 0.0
O345 O 0.72935 0.33061 0.05897 0.0
C346 C 0.30749 0.72527 0.24369 0.0
O347 O 0.30497 0.74652 0.23811 0.0
Cd348 Cd 0.34619 0.79065 0.22644 0.0
O349 O 0.33216 0.72671 0.24265 0.0
Cd350 Cd 0.3829 0.76051 0.23166 0.0
C351 C 0.39115 0.80716 0.2728 0.0
O352 O 0.37273 0.78066 0.19821 0.0
O353 O 0.41729 0.80252 0.21016 0.0
O354 O 0.38577 0.72297 0.21181 0.0
C355 C 0.399 0.79983 0.19503 0.0
O356 O 0.37444 0.81253 0.26082 0.0
C357 C 0.40486 0.72276 0.2247 0.0
O358 O 0.39704 0.78815 0.26668 0.0
O359 O 0.41434 0.7406 0.24089 0.0
C360 C 0.16087 0.57789 0.25755 0.0
C361 C 0.15182 0.57119 0.28022 0.0
C362 C 0.18754 0.60194 0.25212 0.0
C363 C 0.20548 0.61978 0.26979 0.0
C364 C 0.19706 0.61243 0.29277 0.0
C365 C 0.1703 0.58812 0.29772 0.0
C366 C 0.19594 0.6089 0.22743 0.0
C367 C 0.2156 0.63097 0.31206 0.0
C368 C 0.28364 0.67404 0.25507 0.0
C369 C 0.28161 0.6985 0.25111 0.0
C370 C 0.25913 0.64832 0.26149 0.0
C371 C 0.232 0.64708 0.2641 0.0
C372 C 0.2299 0.67177 0.26052 0.0
C373 C 0.25471 0.69716 0.25401 0.0
C374 C 0.26214 0.62238 0.2651 0.0
C375 C 0.20132 0.67127 0.26325 0.0
H376 H 0.14671 0.56461 0.24403 0.0
H377 H 0.1632 0.58312 0.31524 0.0
H378 H 0.1961 0.62879 0.22279 0.0
H379 H 0.21824 0.61259 0.22456 0.0
H380 H 0.18068 0.59172 0.21586 0.0
H381 H 0.2072 0.62105 0.32895 0.0
H382 H 0.23834 0.63548 0.31027 0.0
H383 H 0.21618 0.65167 0.31149 0.0
H384 H 0.30433 0.67486 0.25288 0.0
H385 H 0.25296 0.71595 0.2511 0.0
H386 H 0.24831 0.60567 0.25268 0.0
H387 H 0.25439 0.61349 0.28234 0.0
H388 H 0.28498 0.62714 0.26315 0.0
H389 H 0.18521 0.65624 0.25085 0.0
H390 H 0.20358 0.69253 0.26062 0.0
H391 H 0.19238 0.66361 0.28051 0.0
C392 C 0.54468 0.16632 0.46026 0.0
C393 C 0.56281 0.1551 0.45546 0.0
C394 C 0.55366 0.19484 0.45563 0.0
C395 C 0.58125 0.2124 0.44561 0.0
C396 C 0.59963 0.20113 0.44064 0.0
C397 C 0.59027 0.1726 0.44585 0.0
C398 C 0.53371 0.20622 0.4616 0.0
C399 C 0.62902 0.21913 0.42967 0.0
C400 C 0.59203 0.27893 0.41556 0.0
C401 C 0.60805 0.29992 0.43177 0.0
C402 C 0.58362 0.25037 0.41966 0.0
C403 C 0.59096 0.24265 0.44063 0.0
C404 C 0.60696 0.26376 0.45709 0.0
C405 C 0.61554 0.29218 0.45238 0.0
C406 C 0.56693 0.22848 0.40157 0.0
C407 C 0.61473 0.25627 0.47981 0.0
H408 H 0.52355 0.15279 0.46792 0.0
H409 H 0.60416 0.1638 0.44202 0.0
H410 H 0.5449 0.22441 0.47348 0.0
H411 H 0.52824 0.21423 0.44608 0.0
H412 H 0.51314 0.18985 0.46963 0.0
H413 H 0.6404 0.20698 0.4265 0.0
H414 H 0.62643 0.22772 0.41324 0.0
H415 H 0.64298 0.23754 0.44069 0.0
H416 H 0.58637 0.28487 0.39955 0.0
H417 H 0.62783 0.30833 0.465 0.0
H418 H 0.54521 0.21251 0.40816 0.0
H419 H 0.57859 0.21697 0.39708 0.0
H420 H 0.56385 0.2381 0.38588 0.0
H421 H 0.5946 0.24094 0.48892 0.0
H422 H 0.62722 0.27522 0.49078 0.0
H423 H 0.62787 0.24579 0.47727 0.0
C424 C 0.42003 0.57692 0.61214 0.0
C425 C 0.41289 0.55887 0.63098 0.0
C426 C 0.39942 0.58286 0.60251 0.0
C427 C 0.37134 0.57087 0.61233 0.0
C428 C 0.36457 0.55366 0.63202 0.0
C429 C 0.38536 0.54756 0.64095 0.0
C430 C 0.40724 0.60087 0.58128 0.0
C431 C 0.33509 0.54102 0.64327 0.0
C432 C 0.32314 0.60166 0.597 0.0
C433 C 0.30355 0.58131 0.58166 0.0
C434 C 0.3454 0.5986 0.60712 0.0
C435 C 0.34848 0.57497 0.60133 0.0
C436 C 0.32919 0.55473 0.58544 0.0
C437 C 0.30672 0.55797 0.57599 0.0
C438 C 0.36518 0.62025 0.62436 0.0
C439 C 0.33217 0.52955 0.57852 0.0
H440 H 0.44132 0.58536 0.60438 0.0
H441 H 0.38003 0.53362 0.65557 0.0
H442 H 0.39334 0.58787 0.56695 0.0
H443 H 0.40299 0.61871 0.58372 0.0
H444 H 0.43043 0.60971 0.57643 0.0
H445 H 0.33421 0.53018 0.65954 0.0
H446 H 0.32955 0.55784 0.64668 0.0
H447 H 0.31814 0.52535 0.6317 0.0
H448 H 0.32062 0.61964 0.60155 0.0
H449 H 0.29174 0.54233 0.56401 0.0
H450 H 0.38822 0.62974 0.61899 0.0
H451 H 0.36305 0.6097 0.641 0.0
H452 H 0.36012 0.63761 0.62675 0.0
H453 H 0.35452 0.53689 0.57217 0.0
H454 H 0.31635 0.51659 0.56507 0.0
H455 H 0.32869 0.51576 0.59349 0.0
C456 C 0.84918 0.40509 0.79703 0.0
C457 C 0.87023 0.42342 0.78143 0.0
C458 C 0.82288 0.38194 0.78961 0.0
C459 C 0.81738 0.37716 0.76601 0.0
C460 C 0.83833 0.39577 0.75015 0.0
C461 C 0.86457 0.41864 0.75805 0.0
C462 C 0.80103 0.36253 0.80702 0.0
C463 C 0.83311 0.3914 0.72485 0.0
C464 C 0.76078 0.30295 0.74714 0.0
C465 C 0.73614 0.30586 0.74424 0.0
C466 C 0.78748 0.32607 0.75405 0.0
C467 C 0.78958 0.35273 0.75796 0.0
C468 C 0.76494 0.35593 0.75471 0.0
C469 C 0.7385 0.33244 0.74798 0.0
C470 C 0.8133 0.32186 0.75752 0.0
C471 C 0.76644 0.38412 0.75853 0.0
H472 H 0.85323 0.4089 0.81511 0.0
H473 H 0.8809 0.43248 0.7459 0.0
H474 H 0.78018 0.3624 0.80483 0.0
H475 H 0.7964 0.34043 0.80448 0.0
H476 H 0.80879 0.36904 0.82474 0.0
H477 H 0.85137 0.40811 0.71477 0.0
H478 H 0.83012 0.37039 0.71996 0.0
H479 H 0.81281 0.39139 0.72021 0.0
H480 H 0.75913 0.28248 0.74433 0.0
H481 H 0.71962 0.33494 0.74565 0.0
H482 H 0.82064 0.32635 0.77548 0.0
H483 H 0.83177 0.33701 0.74677 0.0
H484 H 0.80821 0.29992 0.75333 0.0
H485 H 0.77218 0.39074 0.77651 0.0
H486 H 0.74552 0.38326 0.75457 0.0
H487 H 0.78379 0.40076 0.74779 0.0
C488 C 0.44513 0.85888 0.93376 0.0
C489 C 0.45208 0.86794 0.9564 0.0
C490 C 0.43746 0.8311 0.92744 0.0
C491 C 0.43701 0.81206 0.94412 0.0
C492 C 0.44413 0.8211 0.96695 0.0
C493 C 0.45137 0.84884 0.97283 0.0
C494 C 0.42974 0.82208 0.90296 0.0
C495 C 0.44394 0.80141 0.98521 0.0
C496 C 0.39134 0.7325 0.93546 0.0
C497 C 0.4124 0.7255 0.92891 0.0
C498 C 0.39896 0.76072 0.93984 0.0
C499 C 0.42841 0.78241 0.9379 0.0
C500 C 0.44973 0.77556 0.93096 0.0
C501 C 0.44142 0.74714 0.9264 0.0
C502 C 0.37556 0.76726 0.94692 0.0
C503 C 0.48139 0.79814 0.92892 0.0
H504 H 0.44602 0.8736 0.9209 0.0
H505 H 0.45621 0.8555 0.99043 0.0
H506 H 0.4446 0.81516 0.89597 0.0
H507 H 0.4073 0.80364 0.90192 0.0
H508 H 0.43107 0.83944 0.89208 0.0
H509 H 0.45099 0.81205 0.002 0.0
H510 H 0.42172 0.78281 0.98699 0.0
H511 H 0.4586 0.79321 0.98035 0.0
H512 H 0.36882 0.71587 0.93725 0.0
H513 H 0.45776 0.74181 0.92136 0.0
H514 H 0.3758 0.78373 0.9356 0.0
H515 H 0.37988 0.77593 0.96446 0.0
H516 H 0.35347 0.74817 0.94645 0.0
H517 H 0.48378 0.81525 0.91726 0.0
H518 H 0.49509 0.78947 0.92253 0.0
H519 H 0.48981 0.80801 0.94579 0.0
C520 C 0.58458 0.43475 0.10655 0.0
C521 C 0.57916 0.4362 0.12968 0.0
C522 C 0.6076 0.43089 0.09956 0.0
C523 C 0.62566 0.42853 0.11614 0.0
C524 C 0.61945 0.42862 0.13954 0.0
C525 C 0.59616 0.43241 0.14606 0.0
C526 C 0.61333 0.43059 0.07444 0.0
C527 C 0.63823 0.4261 0.15768 0.0
C528 C 0.67507 0.40146 0.09548 0.0
C529 C 0.70114 0.42696 0.09142 0.0
C530 C 0.6505 0.40158 0.10412 0.0
C531 C 0.65206 0.4278 0.10885 0.0
C532 C 0.6785 0.45358 0.10539 0.0
C533 C 0.70272 0.45285 0.09669 0.0
C534 C 0.62266 0.37369 0.10759 0.0
C535 C 0.68098 0.48198 0.11033 0.0
H536 H 0.5712 0.43736 0.09389 0.0
H537 H 0.59212 0.43376 0.16395 0.0
H538 H 0.63449 0.44952 0.06999 0.0
H539 H 0.61489 0.41154 0.0701 0.0
H540 H 0.59606 0.43069 0.06378 0.0
H541 H 0.62894 0.42396 0.17498 0.0
H542 H 0.64096 0.40749 0.15434 0.0
H543 H 0.66023 0.44527 0.15734 0.0
H544 H 0.67364 0.38132 0.09153 0.0
H545 H 0.72279 0.47263 0.09373 0.0
H546 H 0.6056 0.37242 0.0959 0.0
H547 H 0.61453 0.37228 0.12519 0.0
H548 H 0.62556 0.3551 0.10443 0.0
H549 H 0.66613 0.48518 0.09897 0.0
H550 H 0.70348 0.49996 0.10786 0.0
H551 H 0.67421 0.48249 0.12808 0.0
C552 C 0.42582 0.84757 0.5277 0.0
C553 C 0.41441 0.86359 0.51799 0.0
C554 C 0.40748 0.81937 0.53465 0.0
C555 C 0.37708 0.80664 0.53129 0.0
C556 C 0.36538 0.82266 0.52165 0.0
C557 C 0.38412 0.85102 0.51542 0.0
C558 C 0.42068 0.80306 0.54526 0.0
C559 C 0.33307 0.80969 0.51749 0.0
C560 C 0.33249 0.72652 0.52568 0.0
C561 C 0.31792 0.71867 0.5466 0.0
C562 C 0.35197 0.75509 0.52056 0.0
C563 C 0.3575 0.77622 0.53698 0.0
C564 C 0.34351 0.76833 0.5584 0.0
C565 C 0.32354 0.73962 0.56286 0.0
C566 C 0.36599 0.76272 0.49733 0.0
C567 C 0.34944 0.79023 0.57652 0.0
H568 H 0.44916 0.85685 0.52953 0.0
H569 H 0.37493 0.86332 0.5085 0.0
H570 H 0.40985 0.79363 0.56169 0.0
H571 H 0.41716 0.78528 0.53398 0.0
H572 H 0.44444 0.81668 0.54831 0.0
H573 H 0.32748 0.82503 0.50976 0.0
H574 H 0.32538 0.79113 0.50598 0.0
H575 H 0.32099 0.80184 0.53371 0.0
H576 H 0.32805 0.71037 0.51302 0.0
H577 H 0.31244 0.73355 0.57912 0.0
H578 H 0.39004 0.77455 0.49902 0.0
H579 H 0.3597 0.77689 0.48843 0.0
H580 H 0.35956 0.74371 0.48658 0.0
H581 H 0.37319 0.80308 0.57981 0.0
H582 H 0.33818 0.78042 0.59276 0.0
H583 H 0.34212 0.80503 0.57057 0.0
C584 C 0.59245 0.43018 0.71112 0.0
C585 C 0.56351 0.42063 0.7047 0.0
C586 C 0.60147 0.41087 0.71758 0.0
C587 C 0.58121 0.38136 0.71718 0.0
C588 C 0.55177 0.37168 0.71161 0.0
C589 C 0.54322 0.39143 0.70575 0.0
C590 C 0.63294 0.422 0.72392 0.0
C591 C 0.52954 0.34036 0.71072 0.0
C592 C 0.60945 0.33115 0.70448 0.0
C593 C 0.60724 0.31855 0.72575 0.0
C594 C 0.60121 0.35174 0.70155 0.0
C595 C 0.59117 0.36045 0.72049 0.0
C596 C 0.58952 0.3483 0.74216 0.0
C597 C 0.59723 0.32715 0.74448 0.0
C598 C 0.60266 0.36373 0.67807 0.0
C599 C 0.57957 0.35758 0.76281 0.0
H600 H 0.60833 0.45264 0.71031 0.0
H601 H 0.52062 0.38388 0.70151 0.0
H602 H 0.63448 0.4118 0.73983 0.0
H603 H 0.64387 0.41665 0.71032 0.0
H604 H 0.64496 0.44542 0.72628 0.0
H605 H 0.50722 0.3364 0.70721 0.0
H606 H 0.53556 0.33005 0.69717 0.0
H607 H 0.52927 0.32993 0.72703 0.0
H608 H 0.61706 0.32444 0.68995 0.0
H609 H 0.59577 0.31761 0.76099 0.0
H610 H 0.61701 0.38714 0.67822 0.0
H611 H 0.58066 0.35925 0.67277 0.0
H612 H 0.61098 0.35467 0.66515 0.0
H613 H 0.59292 0.38097 0.76486 0.0
H614 H 0.58113 0.34723 0.77865 0.0
H615 H 0.55666 0.35237 0.76055 0.0
C616 C 0.17929 0.59831 0.83727 0.0
C617 C 0.159 0.59565 0.85373 0.0
C618 C 0.20641 0.60183 0.8437 0.0
C619 C 0.21326 0.60282 0.86709 0.0
C620 C 0.19364 0.60218 0.88368 0.0
C621 C 0.16668 0.59851 0.87679 0.0
C622 C 0.22682 0.60251 0.82552 0.0
C623 C 0.2003 0.60355 0.90878 0.0
C624 C 0.26134 0.57373 0.88688 0.0
C625 C 0.2877 0.59867 0.89129 0.0
C626 C 0.2372 0.57486 0.87843 0.0
C627 C 0.23943 0.60158 0.87439 0.0
C628 C 0.26611 0.62684 0.87836 0.0
C629 C 0.28996 0.62509 0.88673 0.0
C630 C 0.2091 0.54742 0.87427 0.0
C631 C 0.26923 0.65569 0.8743 0.0
H632 H 0.17326 0.59587 0.81944 0.0
H633 H 0.15103 0.5967 0.88949 0.0
H634 H 0.24932 0.62005 0.82869 0.0
H635 H 0.22732 0.58234 0.82596 0.0
H636 H 0.22 0.60515 0.80824 0.0
H637 H 0.18421 0.60583 0.91931 0.0
H638 H 0.2001 0.58382 0.91404 0.0
H639 H 0.22235 0.62163 0.91244 0.0
H640 H 0.25943 0.55324 0.89022 0.0
H641 H 0.31026 0.64451 0.89007 0.0
H642 H 0.20167 0.54675 0.85651 0.0
H643 H 0.19184 0.54621 0.88565 0.0
H644 H 0.21134 0.52842 0.8773 0.0
H645 H 0.26251 0.65712 0.8567 0.0
H646 H 0.29191 0.67325 0.87701 0.0
H647 H 0.25465 0.65878 0.88599 0.0
C648 C 0.58567 0.17655 0.00094 0.0
C649 C 0.56981 0.15764 0.01847 0.0
C650 C 0.60657 0.20481 0.00573 0.0
C651 C 0.61131 0.21435 0.02855 0.0
C652 C 0.59421 0.19569 0.04618 0.0
C653 C 0.57381 0.16742 0.04094 0.0
C654 C 0.6246 0.224 0.98651 0.0
C655 C 0.59826 0.20527 0.07066 0.0
C656 C 0.68617 0.27457 0.04464 0.0
C657 C 0.6818 0.29794 0.04434 0.0
C658 C 0.66339 0.24725 0.03941 0.0
C659 C 0.63549 0.24321 0.03415 0.0
C660 C 0.63084 0.26667 0.03413 0.0
C661 C 0.65415 0.29384 0.03905 0.0
C662 C 0.66925 0.22275 0.03931 0.0
C663 C 0.60126 0.26305 0.02899 0.0
H664 H 0.58277 0.16884 0.98359 0.0
H665 H 0.56136 0.15275 0.05445 0.0
H666 H 0.62407 0.24414 0.98681 0.0
H667 H 0.64765 0.22957 0.98868 0.0
H668 H 0.61692 0.21388 0.9696 0.0
H669 H 0.58135 0.18902 0.08198 0.0
H670 H 0.61994 0.20972 0.07678 0.0
H671 H 0.59758 0.22528 0.07217 0.0
H672 H 0.70754 0.27769 0.04864 0.0
H673 H 0.65063 0.31185 0.03895 0.0
H674 H 0.66403 0.21246 0.02234 0.0
H675 H 0.65499 0.20645 0.05186 0.0
H676 H 0.69227 0.22956 0.04345 0.0
H677 H 0.59428 0.25431 0.01162 0.0
H678 H 0.60114 0.28339 0.03018 0.0
H679 H 0.58489 0.24759 0.04103 0.0
C680 C 0.42305 0.58727 0.20889 0.0
C681 C 0.45066 0.59421 0.20068 0.0
C682 C 0.41656 0.60856 0.21459 0.0
C683 C 0.43804 0.63745 0.21163 0.0
C684 C 0.46617 0.64464 0.20398 0.0
C685 C 0.47223 0.62295 0.19884 0.0
C686 C 0.38642 0.60011 0.22303 0.0
C687 C 0.48956 0.67521 0.20042 0.0
C688 C 0.41039 0.68849 0.20018 0.0
C689 C 0.41474 0.70203 0.22125 0.0
C690 C 0.41838 0.6678 0.19675 0.0
C691 C 0.43046 0.66006 0.215 0.0
C692 C 0.43503 0.67373 0.23631 0.0
C693 C 0.42738 0.69482 0.23913 0.0
C694 C 0.41371 0.65409 0.17363 0.0
C695 C 0.44741 0.66564 0.25624 0.0
H696 H 0.40616 0.56518 0.2102 0.0
H697 H 0.49385 0.62856 0.19306 0.0
H698 H 0.38779 0.61183 0.23884 0.0
H699 H 0.37492 0.60585 0.21014 0.0
H700 H 0.37317 0.57695 0.22648 0.0
H701 H 0.51071 0.67726 0.19538 0.0
H702 H 0.48263 0.6849 0.18692 0.0
H703 H 0.49284 0.68764 0.21617 0.0
H704 H 0.40076 0.69414 0.18629 0.0
H705 H 0.43055 0.70512 0.25549 0.0
H706 H 0.39818 0.63095 0.175 0.0
H707 H 0.43454 0.65671 0.16711 0.0
H708 H 0.40507 0.66328 0.16102 0.0
H709 H 0.43292 0.64288 0.26046 0.0
H710 H 0.44991 0.67854 0.27161 0.0
H711 H 0.46897 0.66838 0.25176 0.0
C712 C 0.83928 0.42871 0.33527 0.0
C713 C 0.86207 0.43155 0.34922 0.0
C714 C 0.81427 0.42727 0.34464 0.0
C715 C 0.81191 0.42845 0.36854 0.0
C716 C 0.83438 0.43036 0.38275 0.0
C717 C 0.85925 0.43201 0.37292 0.0
C718 C 0.79072 0.42522 0.32895 0.0
C719 C 0.83252 0.43148 0.40832 0.0
C720 C 0.76292 0.45488 0.39159 0.0
C721 C 0.73759 0.42933 0.39696 0.0
C722 C 0.7873 0.45487 0.38236 0.0
C723 C 0.78639 0.42871 0.37863 0.0
C724 C 0.76108 0.40288 0.38432 0.0
C725 C 0.73693 0.40349 0.39333 0.0
C726 C 0.8139 0.48285 0.37636 0.0
C727 C 0.75946 0.3746 0.38078 0.0
H728 H 0.84113 0.42793 0.31697 0.0
H729 H 0.87693 0.43462 0.38382 0.0
H730 H 0.7695 0.40639 0.33339 0.0
H731 H 0.78831 0.44424 0.33106 0.0
H732 H 0.79549 0.42364 0.31079 0.0
H733 H 0.85099 0.43118 0.417 0.0
H734 H 0.83246 0.45112 0.41334 0.0
H735 H 0.81186 0.4132 0.41451 0.0
H736 H 0.76358 0.47492 0.39426 0.0
H737 H 0.71749 0.38364 0.39752 0.0
H738 H 0.81861 0.48339 0.35793 0.0
H739 H 0.83315 0.48516 0.3857 0.0
H740 H 0.81115 0.50133 0.38044 0.0
H741 H 0.76236 0.37167 0.36249 0.0
H742 H 0.73838 0.35646 0.38655 0.0
H743 H 0.77735 0.37408 0.39017 0.0
C744 C 0.1285 0.56459 0.40109 0.0
C745 C 0.1002 0.54174 0.40439 0.0
C746 C 0.14735 0.57747 0.41956 0.0
C747 C 0.13772 0.56712 0.44183 0.0
C748 C 0.10901 0.54446 0.44533 0.0
C749 C 0.09057 0.53213 0.42658 0.0
C750 C 0.1778 0.60168 0.4152 0.0
C751 C 0.09797 0.53283 0.46883 0.0
C752 C 0.19406 0.5776 0.48632 0.0
C753 C 0.19558 0.59991 0.49932 0.0
C754 C 0.17545 0.5669 0.46748 0.0
C755 C 0.15811 0.57894 0.46138 0.0
C756 C 0.15982 0.60174 0.47423 0.0
C757 C 0.17848 0.61189 0.49313 0.0
C758 C 0.17408 0.54243 0.45428 0.0
C759 C 0.1418 0.61524 0.46808 0.0
H760 H 0.1362 0.57195 0.38399 0.0
H761 H 0.06855 0.51484 0.4293 0.0
H762 H 0.18229 0.62023 0.4259 0.0
H763 H 0.19388 0.59517 0.41997 0.0
H764 H 0.18128 0.60842 0.39708 0.0
H765 H 0.07475 0.51579 0.46873 0.0
H766 H 0.11115 0.52407 0.47616 0.0
H767 H 0.1004 0.5501 0.48026 0.0
H768 H 0.20719 0.56821 0.49102 0.0
H769 H 0.17967 0.62923 0.50307 0.0
H770 H 0.17949 0.54848 0.43616 0.0
H771 H 0.15163 0.52396 0.45482 0.0
H772 H 0.18926 0.5357 0.46109 0.0
H773 H 0.14627 0.623 0.45026 0.0
H774 H 0.14628 0.63332 0.47941 0.0
H775 H 0.1183 0.59921 0.46917 0.0
C776 C 0.53039 0.11694 0.5861 0.0
C777 C 0.54556 0.1029 0.57995 0.0
C778 C 0.5394 0.13574 0.60461 0.0
C779 C 0.56354 0.13986 0.6178 0.0
C780 C 0.57858 0.12537 0.61206 0.0
C781 C 0.56978 0.10754 0.59299 0.0
C782 C 0.5233 0.15141 0.60989 0.0
C783 C 0.60408 0.12876 0.62601 0.0
C784 C 0.60709 0.20614 0.65333 0.0
C785 C 0.59525 0.19658 0.67499 0.0
C786 C 0.59613 0.1882 0.63438 0.0
C787 C 0.57355 0.15974 0.63739 0.0
C788 C 0.56146 0.15002 0.65927 0.0
C789 C 0.57215 0.16876 0.67779 0.0
C790 C 0.60893 0.1996 0.6112 0.0
C791 C 0.538 0.11959 0.66325 0.0
H792 H 0.51131 0.11321 0.57656 0.0
H793 H 0.5822 0.09748 0.58822 0.0
H794 H 0.5138 0.1458 0.6272 0.0
H795 H 0.53867 0.17467 0.60969 0.0
H796 H 0.50552 0.14651 0.59754 0.0
H797 H 0.61213 0.11447 0.62021 0.0
H798 H 0.62226 0.15101 0.62495 0.0
H799 H 0.59778 0.12419 0.64418 0.0
H800 H 0.6248 0.22777 0.65119 0.0
H801 H 0.56318 0.16136 0.69461 0.0
H802 H 0.59135 0.19543 0.5989 0.0
H803 H 0.62032 0.18855 0.60483 0.0
H804 H 0.62467 0.2228 0.61151 0.0
H805 H 0.51896 0.11406 0.65216 0.0
H806 H 0.53056 0.11556 0.68122 0.0
H807 H 0.54633 0.10514 0.65871 0.0
C808 C 0.48322 0.57144 0.77922 0.0
C809 C 0.46866 0.56755 0.75843 0.0
C810 C 0.47398 0.57922 0.79889 0.0
C811 C 0.44944 0.58296 0.79778 0.0
C812 C 0.4353 0.5801 0.7767 0.0
C813 C 0.44515 0.57253 0.75727 0.0
C814 C 0.48971 0.58223 0.82105 0.0
C815 C 0.40904 0.58391 0.77485 0.0
C816 C 0.404 0.56772 0.85113 0.0
C817 C 0.41229 0.59515 0.85889 0.0
C818 C 0.41601 0.56356 0.83132 0.0
C819 C 0.43702 0.5874 0.81898 0.0
C820 C 0.44579 0.61516 0.82679 0.0
C821 C 0.43324 0.61873 0.84663 0.0
C822 C 0.40598 0.5336 0.82347 0.0
C823 C 0.46833 0.64105 0.81413 0.0
H824 H 0.50121 0.56736 0.78035 0.0
H825 H 0.43414 0.57008 0.74117 0.0
H826 H 0.49519 0.60257 0.82944 0.0
H827 H 0.47529 0.56482 0.83278 0.0
H828 H 0.51007 0.58144 0.81861 0.0
H829 H 0.40182 0.58293 0.75696 0.0
H830 H 0.39074 0.56701 0.78473 0.0
H831 H 0.41392 0.60459 0.78224 0.0
H832 H 0.3878 0.54935 0.86041 0.0
H833 H 0.43984 0.63999 0.85252 0.0
H834 H 0.42482 0.53007 0.82237 0.0
H835 H 0.39638 0.53032 0.80619 0.0
H836 H 0.38951 0.51736 0.83505 0.0
H837 H 0.48882 0.64037 0.81262 0.0
H838 H 0.47319 0.66117 0.82268 0.0
H839 H 0.4606 0.64119 0.79661 0.0
C840 C 0.91616 0.48869 0.93085 0.0
C841 C 0.90701 0.48065 0.90835 0.0
C842 C 0.8964 0.47742 0.94895 0.0
C843 C 0.86683 0.45753 0.94442 0.0
C844 C 0.85735 0.44969 0.9217 0.0
C845 C 0.87758 0.46142 0.90391 0.0
C846 C 0.90727 0.48644 0.97295 0.0
C847 C 0.82602 0.42841 0.91624 0.0
C848 C 0.8241 0.40724 0.99244 0.0
C849 C 0.80854 0.41977 0.00107 0.0
C850 C 0.84278 0.41909 0.97376 0.0
C851 C 0.8461 0.44415 0.96356 0.0
C852 C 0.83024 0.45675 0.97203 0.0
C853 C 0.81155 0.44435 0.99067 0.0
C854 C 0.85923 0.40495 0.96512 0.0
C855 C 0.83334 0.48355 0.96161 0.0
H856 H 0.93884 0.50384 0.9343 0.0
H857 H 0.87051 0.45496 0.88654 0.0
H858 H 0.89449 0.49488 0.98143 0.0
H859 H 0.90417 0.46779 0.98294 0.0
H860 H 0.93068 0.50296 0.97349 0.0
H861 H 0.82195 0.42547 0.89764 0.0
H862 H 0.82009 0.40756 0.92396 0.0
H863 H 0.81138 0.43535 0.92368 0.0
H864 H 0.82177 0.38817 0.00034 0.0
H865 H 0.79959 0.45414 -0.00272 0.0
H866 H 0.883 0.41969 0.96682 0.0
H867 H 0.8546 0.39987 0.94679 0.0
H868 H 0.85349 0.38505 0.97449 0.0
H869 H 0.85622 0.50105 0.96316 0.0
H870 H 0.81893 0.4903 0.96985 0.0
H871 H 0.82809 0.48032 0.9432 0.0
C872 C 0.42978 0.91192 0.09593 0.0
C873 C 0.44926 0.91207 0.07985 0.0
C874 C 0.42139 0.89363 0.11477 0.0
C875 C 0.43229 0.87468 0.11715 0.0
C876 C 0.45155 0.87444 0.10061 0.0
C877 C 0.46012 0.89346 0.08226 0.0
C878 C 0.4013 0.89491 0.13229 0.0
C879 C 0.46309 0.8541 0.10231 0.0
C880 C 0.43317 0.8454 0.17562 0.0
C881 C 0.40759 0.81889 0.17511 0.0
C882 C 0.44132 0.86392 0.15694 0.0
C883 C 0.42381 0.85536 0.13711 0.0
C884 C 0.39816 0.82843 0.13639 0.0
C885 C 0.39016 0.81064 0.15553 0.0
C886 C 0.46849 0.89273 0.1585 0.0
C887 C 0.37931 0.81833 0.11535 0.0
H888 H 0.42162 0.92655 0.09397 0.0
H889 H 0.47513 0.89369 0.06965 0.0
H890 H 0.38122 0.8739 0.13378 0.0
H891 H 0.41204 0.90005 0.1492 0.0
H892 H 0.39505 0.91108 0.12802 0.0
H893 H 0.4769 0.85583 0.08753 0.0
H894 H 0.47617 0.85836 0.11806 0.0
H895 H 0.44472 0.83193 0.10341 0.0
H896 H 0.44658 0.8519 0.19081 0.0
H897 H 0.37047 0.79005 0.15504 0.0
H898 H 0.46297 0.90967 0.1555 0.0
H899 H 0.48418 0.89487 0.14513 0.0
H900 H 0.47935 0.89638 0.17533 0.0
H901 H 0.37088 0.83287 0.11137 0.0
H902 H 0.36052 0.79647 0.11734 0.0
H903 H 0.39244 0.81869 0.10055 0.0
C904 C 0.57123 0.44607 0.25536 0.0
C905 C 0.54757 0.45061 0.25805 0.0
C906 C 0.58406 0.44068 0.27419 0.0
C907 C 0.57281 0.43955 0.29622 0.0
C908 C 0.54849 0.44339 0.29901 0.0
C909 C 0.53628 0.44903 0.27992 0.0
C910 C 0.61004 0.43678 0.27058 0.0
C911 C 0.53578 0.44221 0.32222 0.0
C912 C 0.59167 0.40516 0.3447 0.0
C913 C 0.61327 0.42902 0.35623 0.0
C914 C 0.57847 0.4082 0.32498 0.0
C915 C 0.58727 0.43574 0.31652 0.0
C916 C 0.60943 0.45987 0.32783 0.0
C917 C 0.62205 0.45622 0.34759 0.0
C918 C 0.55473 0.38201 0.31346 0.0
C919 C 0.6196 0.48958 0.3192 0.0
H920 H 0.57978 0.44679 0.2385 0.0
H921 H 0.51829 0.45291 0.28224 0.0
H922 H 0.62928 0.45384 0.27952 0.0
H923 H 0.60578 0.41624 0.27794 0.0
H924 H 0.6155 0.43728 0.25229 0.0
H925 H 0.51578 0.4439 0.32133 0.0
H926 H 0.53044 0.42203 0.33091 0.0
H927 H 0.55207 0.45983 0.3329 0.0
H928 H 0.58471 0.38407 0.35128 0.0
H929 H 0.63885 0.47479 0.35629 0.0
H930 H 0.5604 0.38157 0.29537 0.0
H931 H 0.53408 0.38253 0.3137 0.0
H932 H 0.55096 0.36209 0.32181 0.0
H933 H 0.62692 0.49158 0.30128 0.0
H934 H 0.63778 0.50604 0.32951 0.0
H935 H 0.60128 0.49395 0.31951 0.0
C936 C 0.44756 0.88411 0.39348 0.0
C937 C 0.46679 0.91313 0.38991 0.0
C938 C 0.43615 0.86529 0.37505 0.0
C939 C 0.44454 0.8758 0.35264 0.0
C940 C 0.46506 0.90487 0.34907 0.0
C941 C 0.47576 0.92326 0.36777 0.0
C942 C 0.41408 0.8345 0.3795 0.0
C943 C 0.4749 0.91678 0.32545 0.0
C944 C 0.42867 0.82445 0.30374 0.0
C945 C 0.40416 0.82362 0.29383 0.0
C946 C 0.44197 0.84115 0.32306 0.0
C947 C 0.43018 0.85699 0.33282 0.0
C948 C 0.40503 0.85566 0.32322 0.0
C949 C 0.39246 0.83916 0.30375 0.0
C950 C 0.46898 0.84237 0.33269 0.0
C951 C 0.39158 0.87195 0.33335 0.0
H952 H 0.44047 0.87636 0.41062 0.0
H953 H 0.49087 0.94568 0.36508 0.0
H954 H 0.39259 0.82971 0.37263 0.0
H955 H 0.42042 0.82042 0.37065 0.0
H956 H 0.41161 0.82928 0.39793 0.0
H957 H 0.4929 0.93921 0.32575 0.0
H958 H 0.48227 0.90386 0.31601 0.0
H959 H 0.45636 0.91577 0.31588 0.0
H960 H 0.4379 0.81258 0.2961 0.0
H961 H 0.37339 0.83843 0.29629 0.0
H962 H 0.46578 0.83639 0.35094 0.0
H963 H 0.48757 0.86443 0.33158 0.0
H964 H 0.47486 0.82807 0.32355 0.0
H965 H 0.38658 0.86643 0.35159 0.0
H966 H 0.37123 0.86755 0.32447 0.0
H967 H 0.40725 0.8951 0.33238 0.0
C968 C 0.57961 0.48275 0.5572 0.0
C969 C 0.55982 0.46228 0.57229 0.0
C970 C 0.58943 0.47473 0.53801 0.0
C971 C 0.57973 0.4456 0.53423 0.0
C972 C 0.5601 0.42489 0.54972 0.0
C973 C 0.55006 0.43349 0.56845 0.0
C974 C 0.60981 0.49734 0.5216 0.0
C975 C 0.5498 0.39371 0.54654 0.0
C976 C 0.58287 0.42049 0.47468 0.0
C977 C 0.60896 0.41986 0.47543 0.0
C978 C 0.5733 0.42921 0.49362 0.0
C979 C 0.58986 0.43676 0.51394 0.0
C980 C 0.61607 0.43586 0.51485 0.0
C981 C 0.62551 0.42776 0.49546 0.0
C982 C 0.54558 0.43054 0.49185 0.0
C983 C 0.63396 0.44315 0.53638 0.0
H984 H 0.58691 0.505 0.56021 0.0
H985 H 0.53484 0.41776 0.58029 0.0
H986 H 0.63047 0.49695 0.52027 0.0
H987 H 0.59992 0.49299 0.50437 0.0
H988 H 0.61494 0.51898 0.52684 0.0
H989 H 0.53543 0.38047 0.56061 0.0
H990 H 0.53768 0.38616 0.53029 0.0
H991 H 0.56878 0.39038 0.54552 0.0
H992 H 0.57013 0.41455 0.45915 0.0
H993 H 0.64559 0.42708 0.49611 0.0
H994 H 0.55006 0.45229 0.49595 0.0
H995 H 0.52943 0.41588 0.50439 0.0
H996 H 0.53572 0.42478 0.47461 0.0
H997 H 0.64122 0.46536 0.54143 0.0
H998 H 0.65345 0.44075 0.53442 0.0
H999 H 0.62044 0.4292 0.55048 0.0
C1000 C 0.11382 0.59391 0.70837 0.0
C1001 C 0.1087 0.57112 0.72268 0.0
C1002 C 0.12954 0.59906 0.68807 0.0
C1003 C 0.14126 0.58157 0.68222 0.0
C1004 C 0.13727 0.55929 0.69697 0.0
C1005 C 0.1207 0.55407 0.71682 0.0
C1006 C 0.13294 0.62275 0.67258 0.0
C1007 C 0.14998 0.54055 0.69154 0.0
C1008 C 0.15613 0.57321 0.62046 0.0
C1009 C 0.18612 0.5922 0.61885 0.0
C1010 C 0.14114 0.57013 0.64085 0.0
C1011 C 0.15671 0.58581 0.66024 0.0
C1012 C 0.18702 0.60503 0.65871 0.0
C1013 C 0.20131 0.6083 0.6379 0.0
C1014 C 0.10867 0.55 0.64166 0.0
C1015 C 0.20447 0.62154 0.67917 0.0
H1016 H 0.10532 0.60769 0.71292 0.0
H1017 H 0.1166 0.53612 0.72742 0.0
H1018 H 0.15634 0.63795 0.66951 0.0
H1019 H 0.12285 0.61387 0.65583 0.0
H1020 H 0.1227 0.63458 0.6797 0.0
H1021 H 0.14703 0.52576 0.70568 0.0
H1022 H 0.1394 0.52783 0.67609 0.0
H1023 H 0.17359 0.55376 0.68784 0.0
H1024 H 0.14433 0.5609 0.60569 0.0
H1025 H 0.22457 0.62281 0.63672 0.0
H1026 H 0.09745 0.56132 0.64784 0.0
H1027 H 0.10364 0.5325 0.65381 0.0
H1028 H 0.09958 0.54061 0.62476 0.0
H1029 H 0.19554 0.63454 0.68616 0.0
H1030 H 0.22784 0.63579 0.67508 0.0
H1031 H 0.2028 0.60658 0.69276 0.0
C1032 C 0.53544 0.11216 0.87886 0.0
C1033 C 0.55352 0.10681 0.89304 0.0
C1034 C 0.54633 0.12874 0.85913 0.0
C1035 C 0.57621 0.14093 0.85372 0.0
C1036 C 0.59481 0.13646 0.86829 0.0
C1037 C 0.58319 0.11918 0.88759 0.0
C1038 C 0.52573 0.1327 0.84381 0.0
C1039 C 0.62691 0.14951 0.86329 0.0
C1040 C 0.60045 0.1592 0.79234 0.0
C1041 C 0.61043 0.18843 0.79172 0.0
C1042 C 0.58881 0.14342 0.81232 0.0
C1043 C 0.5878 0.15737 0.83232 0.0
C1044 C 0.59806 0.18695 0.83186 0.0
C1045 C 0.60893 0.20208 0.81146 0.0
C1046 C 0.57746 0.1118 0.81201 0.0
C1047 C 0.59794 0.20264 0.85298 0.0
H1048 H 0.51265 0.10329 0.8831 0.0
H1049 H 0.59735 0.11489 0.89811 0.0
H1050 H 0.53331 0.15564 0.84167 0.0
H1051 H 0.52544 0.12403 0.82667 0.0
H1052 H 0.50313 0.12197 0.85053 0.0
H1053 H 0.6388 0.14582 0.87723 0.0
H1054 H 0.62998 0.14037 0.84739 0.0
H1055 H 0.63684 0.17275 0.86059 0.0
H1056 H 0.60133 0.14853 0.77705 0.0
H1057 H 0.6168 0.22473 0.81107 0.0
H1058 H 0.55438 0.1002 0.81758 0.0
H1059 H 0.59 0.1064 0.82414 0.0
H1060 H 0.57892 0.10405 0.79486 0.0
H1061 H 0.57542 0.19358 0.85952 0.0
H1062 H 0.60697 0.22571 0.84982 0.0
H1063 H 0.61099 0.2 0.86654 0.0
C1064 C 0.42468 0.55802 0.07758 0.0
C1065 C 0.43365 0.53814 0.0735 0.0
C1066 C 0.41714 0.57003 0.05952 0.0
C1067 C 0.41835 0.56171 0.03692 0.0
C1068 C 0.42651 0.54098 0.0328 0.0
C1069 C 0.4342 0.52955 0.05115 0.0
C1070 C 0.4088 0.59227 0.06455 0.0
C1071 C 0.42771 0.53131 0.00896 0.0
C1072 C 0.37876 0.57671 0.9898 0.0
C1073 C 0.40175 0.60048 0.97921 0.0
C1074 C 0.38375 0.56401 0.00878 0.0
C1075 C 0.41236 0.57556 0.01747 0.0
C1076 C 0.43555 0.5999 0.00713 0.0
C1077 C 0.42998 0.61198 0.98805 0.0
C1078 C 0.35855 0.53792 0.01925 0.0
C1079 C 0.46631 0.61298 0.01606 0.0
H1080 H 0.42451 0.56487 0.09485 0.0
H1081 H 0.44082 0.51393 0.04801 0.0
H1082 H 0.42502 0.61285 0.05688 0.0
H1083 H 0.38739 0.58618 0.05677 0.0
H1084 H 0.4076 0.5954 0.08309 0.0
H1085 H 0.43294 0.5139 0.00877 0.0
H1086 H 0.40654 0.52384 0.00025 0.0
H1087 H 0.4445 0.54942 -0.00104 0.0
H1088 H 0.35689 0.5677 0.983 0.0
H1089 H 0.44781 0.63044 0.98001 0.0
H1090 H 0.35676 0.54153 0.03759 0.0
H1091 H 0.36241 0.5197 0.01798 0.0
H1092 H 0.33751 0.53204 0.01084 0.0
H1093 H 0.46693 0.61827 0.03435 0.0
H1094 H 0.48165 0.63259 0.00668 0.0
H1095 H 0.47407 0.59749 0.01465 0.0
C1096 C 0.9155 0.41986 0.19427 0.0
C1097 C 0.90552 0.41915 0.21644 0.0
C1098 C 0.89726 0.41484 0.17549 0.0
C1099 C 0.86852 0.40942 0.17901 0.0
C1100 C 0.85787 0.40724 0.20143 0.0
C1101 C 0.87651 0.41198 0.21993 0.0
C1102 C 0.90927 0.4169 0.15186 0.0
C1103 C 0.82745 0.40175 0.20586 0.0
C1104 C 0.83835 0.43555 0.13235 0.0
C1105 C 0.81928 0.41029 0.12099 0.0
C1106 C 0.85405 0.43538 0.15147 0.0
C1107 C 0.85092 0.40935 0.15929 0.0
C1108 C 0.83167 0.38372 0.148 0.0
C1109 C 0.8159 0.38447 0.12903 0.0
C1110 C 0.87415 0.46316 0.16321 0.0
C1111 C 0.82808 0.35564 0.15574 0.0
H1112 H 0.93789 0.42512 0.19163 0.0
H1113 H 0.86888 0.41162 0.23709 0.0
H1114 H 0.89384 0.39846 0.14142 0.0
H1115 H 0.91207 0.43636 0.14336 0.0
H1116 H 0.93066 0.41779 0.1521 0.0
H1117 H 0.82146 0.39755 0.22413 0.0
H1118 H 0.82591 0.42054 0.20049 0.0
H1119 H 0.81132 0.38338 0.19573 0.0
H1120 H 0.84092 0.45557 0.12638 0.0
H1121 H 0.80126 0.36487 0.12029 0.0
H1122 H 0.8969 0.46747 0.16238 0.0
H1123 H 0.86827 0.46182 0.18145 0.0
H1124 H 0.87331 0.48139 0.15545 0.0
H1125 H 0.84925 0.35622 0.15459 0.0
H1126 H 0.81176 0.33755 0.14542 0.0
H1127 H 0.82126 0.35177 0.17383 0.0
loop_
_geom_bond_atom_site_label_1
_geom_bond_atom_site_label_2
_geom_bond_distance
_geom_bond_site_symmetry_2
_ccdc_geom_bond_type
C0 C1 1.384 . S
C0 C2 1.384 . S
C0 H28 0.931 . S
C1 C0 1.384 . S
C1 C4 1.382 . S
C2 C0 1.384 . S
C2 C3 1.381 . S
C2 H29 0.930 . S
C3 C2 1.381 . S
C3 C5 1.381 . S
C3 C6 1.487 . S
C4 C1 1.382 . S
C4 C5 1.387 . S
C4 H30 0.930 . S
C5 C3 1.381 . S
C5 C4 1.387 . S
C5 H31 0.931 . S
C6 C3 1.487 . S
C6 C13 1.399 . S
C6 N44 1.343 1_655 S
C7 C8 1.384 . S
C7 C9 1.384 . S
C7 H32 0.931 . S
C8 C7 1.384 . S
C8 C11 1.382 . S
C9 C7 1.384 . S
C9 C10 1.381 . S
C9 H33 0.930 . S
C10 C9 1.381 . S
C10 C12 1.381 . S
C10 C13 1.487 . S
C11 C8 1.382 . S
C11 C12 1.387 . S
C11 H34 0.930 . S
C12 C10 1.381 . S
C12 C11 1.387 . S
C12 H35 0.931 . S
C13 C6 1.399 . S
C13 C10 1.487 . S
C13 N45 1.343 1_655 S
C14 C15 1.384 . S
C14 C16 1.384 . S
C14 H36 0.931 . S
C15 C14 1.384 . S
C15 C18 1.382 . S
C16 C14 1.384 . S
C16 C17 1.381 . S
C16 H37 0.930 . S
C17 C16 1.381 . S
C17 C19 1.381 . S
C17 C20 1.487 . S
C18 C15 1.382 . S
C18 C19 1.387 . S
C18 H38 0.930 . S
C19 C17 1.381 . S
C19 C18 1.387 . S
C19 H39 0.931 . S
C20 C17 1.487 . S
C20 C27 1.399 . S
C20 N45 1.343 . S
C21 C22 1.384 . S
C21 C23 1.384 . S
C21 H40 0.931 . S
C22 C21 1.384 . S
C22 C25 1.382 . S
C23 C21 1.384 . S
C23 C24 1.381 . S
C23 H41 0.930 . S
C24 C23 1.381 . S
C24 C26 1.381 . S
C24 C27 1.487 . S
C25 C22 1.382 . S
C25 C26 1.387 . S
C25 H42 0.930 . S
C26 C24 1.381 . S
C26 C25 1.387 . S
C26 H43 0.931 . S
C27 C20 1.399 . S
C27 C24 1.487 . S
C27 N44 1.343 . S
H28 C0 0.931 . S
H29 C2 0.930 . S
H30 C4 0.930 . S
H31 C5 0.931 . S
H32 C7 0.931 . S
H33 C9 0.930 . S
H34 C11 0.930 . S
H35 C12 0.931 . S
H36 C14 0.931 . S
H37 C16 0.930 . S
H38 C18 0.930 . S
H39 C19 0.931 . S
H40 C21 0.931 . S
H41 C23 0.930 . S
H42 C25 0.930 . S
H43 C26 0.931 . S
N44 C6 1.343 1_455 S
N44 C27 1.343 . S
N45 C13 1.343 1_455 S
N45 C20 1.343 . S
C46 C47 1.384 . S
C46 C48 1.384 . S
C46 H74 0.931 . S
C47 C46 1.384 . S
C47 C50 1.382 . S
C48 C46 1.384 . S
C48 C49 1.381 . S
C48 H75 0.930 . S
C49 C48 1.381 . S
C49 C51 1.381 . S
C49 C52 1.487 . S
C50 C47 1.382 . S
C50 C51 1.387 . S
C50 H76 0.930 . S
C51 C49 1.381 . S
C51 C50 1.387 . S
C51 H77 0.931 . S
C52 C49 1.487 . S
C52 C59 1.399 . S
C52 N90 1.343 1_565 S
C53 C54 1.384 . S
C53 C55 1.384 . S
C53 H78 0.931 . S
C54 C53 1.384 . S
C54 C57 1.382 . S
C55 C53 1.384 . S
C55 C56 1.381 . S
C55 H79 0.930 . S
C56 C55 1.381 . S
C56 C58 1.381 . S
C56 C59 1.487 . S
C57 C54 1.382 . S
C57 C58 1.387 . S
C57 H80 0.930 . S
C58 C56 1.381 . S
C58 C57 1.387 . S
C58 H81 0.931 . S
C59 C52 1.399 . S
C59 C56 1.487 . S
C59 N91 1.343 1_565 S
C60 C61 1.384 . S
C60 C62 1.384 . S
C60 H82 0.931 . S
C61 C60 1.384 . S
C61 C64 1.382 . S
C62 C60 1.384 . S
C62 C63 1.381 . S
C62 H83 0.930 . S
C63 C62 1.381 . S
C63 C65 1.381 . S
C63 C66 1.487 . S
C64 C61 1.382 . S
C64 C65 1.387 . S
C64 H84 0.930 . S
C65 C63 1.381 . S
C65 C64 1.387 . S
C65 H85 0.931 . S
C66 C63 1.487 . S
C66 C73 1.399 . S
C66 N91 1.343 . S
C67 C68 1.384 . S
C67 C69 1.384 . S
C67 H86 0.931 . S
C68 C67 1.384 . S
C68 C71 1.382 . S
C69 C67 1.384 . S
C69 C70 1.381 . S
C69 H87 0.930 . S
C70 C69 1.381 . S
C70 C72 1.381 . S
C70 C73 1.487 . S
C71 C68 1.382 . S
C71 C72 1.387 . S
C71 H88 0.930 . S
C72 C70 1.381 . S
C72 C71 1.387 . S
C72 H89 0.931 . S
C73 C66 1.399 . S
C73 C70 1.487 . S
C73 N90 1.343 . S
H74 C46 0.931 . S
H75 C48 0.930 . S
H76 C50 0.930 . S
H77 C51 0.931 . S
H78 C53 0.931 . S
H79 C55 0.930 . S
H80 C57 0.930 . S
H81 C58 0.931 . S
H82 C60 0.931 . S
H83 C62 0.930 . S
H84 C64 0.930 . S
H85 C65 0.931 . S
H86 C67 0.931 . S
H87 C69 0.930 . S
H88 C71 0.930 . S
H89 C72 0.931 . S
N90 C52 1.343 1_545 S
N90 C73 1.343 . S
N91 C59 1.343 1_545 S
N91 C66 1.343 . S
C92 C93 1.384 . S
C92 C94 1.384 . S
C92 H120 0.931 . S
C93 C92 1.384 . S
C93 C96 1.382 . S
C94 C92 1.384 . S
C94 C95 1.381 . S
C94 H121 0.930 . S
C95 C94 1.381 . S
C95 C97 1.381 . S
C95 C98 1.487 . S
C96 C93 1.382 . S
C96 C97 1.387 . S
C96 H122 0.930 . S
C97 C95 1.381 . S
C97 C96 1.387 . S
C97 H123 0.931 . S
C98 C95 1.487 . S
C98 C105 1.399 . S
C98 N136 1.343 . S
C99 C100 1.384 . S
C99 C101 1.384 . S
C99 H124 0.931 . S
C100 C99 1.384 . S
C100 C103 1.382 . S
C101 C99 1.384 . S
C101 C102 1.381 . S
C101 H125 0.930 . S
C102 C101 1.381 . S
C102 C104 1.381 . S
C102 C105 1.487 . S
C103 C100 1.382 . S
C103 C104 1.387 . S
C103 H126 0.930 . S
C104 C102 1.381 . S
C104 C103 1.387 . S
C104 H127 0.931 . S
C105 C98 1.399 . S
C105 C102 1.487 . S
C105 N137 1.343 . S
C106 C107 1.384 . S
C106 C108 1.384 . S
C106 H128 0.931 . S
C107 C106 1.384 . S
C107 C110 1.382 . S
C108 C106 1.384 . S
C108 C109 1.381 . S
C108 H129 0.930 . S
C109 C108 1.381 . S
C109 C111 1.381 . S
C109 C112 1.487 . S
C110 C107 1.382 . S
C110 C111 1.387 . S
C110 H130 0.930 . S
C111 C109 1.381 . S
C111 C110 1.387 . S
C111 H131 0.931 . S
C112 C109 1.487 . S
C112 C119 1.399 . S
C112 N137 1.343 . S
C113 C114 1.384 . S
C113 C115 1.384 . S
C113 H132 0.931 . S
C114 C113 1.384 . S
C114 C117 1.382 . S
C115 C113 1.384 . S
C115 C116 1.381 . S
C115 H133 0.930 . S
C116 C115 1.381 . S
C116 C118 1.381 . S
C116 C119 1.487 . S
C117 C114 1.382 . S
C117 C118 1.387 . S
C117 H134 0.930 . S
C118 C116 1.381 . S
C118 C117 1.387 . S
C118 H135 0.931 . S
C119 C112 1.399 . S
C119 C116 1.487 . S
C119 N136 1.343 . S
H120 C92 0.931 . S
H121 C94 0.930 . S
H122 C96 0.930 . S
H123 C97 0.931 . S
H124 C99 0.931 . S
H125 C101 0.930 . S
H126 C103 0.930 . S
H127 C104 0.931 . S
H128 C106 0.931 . S
H129 C108 0.930 . S
H130 C110 0.930 . S
H131 C111 0.931 . S
H132 C113 0.931 . S
H133 C115 0.930 . S
H134 C117 0.930 . S
H135 C118 0.931 . S
N136 C98 1.343 . S
N136 C119 1.343 . S
N137 C105 1.343 . S
N137 C112 1.343 . S
C138 C139 1.384 . S
C138 C140 1.384 . S
C138 H166 0.931 . S
C139 C138 1.384 . S
C139 C142 1.382 . S
C140 C138 1.384 . S
C140 C141 1.381 . S
C140 H167 0.930 . S
C141 C140 1.381 . S
C141 C143 1.381 . S
C141 C144 1.487 . S
C142 C139 1.382 . S
C142 C143 1.387 . S
C142 H168 0.930 . S
C143 C141 1.381 . S
C143 C142 1.387 . S
C143 H169 0.931 . S
C144 C141 1.487 . S
C144 C151 1.399 . S
C144 N182 1.351 . S
C145 C146 1.384 . S
C145 C147 1.384 . S
C145 H170 0.931 . S
C146 C145 1.384 . S
C146 C149 1.382 . S
C147 C145 1.384 . S
C147 C148 1.381 . S
C147 H171 0.930 . S
C148 C147 1.381 . S
C148 C150 1.381 . S
C148 C151 1.487 . S
C149 C146 1.382 . S
C149 C150 1.387 . S
C149 H172 0.930 . S
C150 C148 1.381 . S
C150 C149 1.387 . S
C150 H173 0.931 . S
C151 C144 1.399 . S
C151 C148 1.487 . S
C151 N183 1.343 1_655 S
C152 C153 1.384 . S
C152 C154 1.384 . S
C152 H174 0.931 . S
C153 C152 1.384 . S
C153 C156 1.382 . S
C154 C152 1.384 . S
C154 C155 1.381 . S
C154 H175 0.930 . S
C155 C154 1.381 . S
C155 C157 1.381 . S
C155 C158 1.487 . S
C156 C153 1.382 . S
C156 C157 1.387 . S
C156 H176 0.930 . S
C157 C155 1.381 . S
C157 C156 1.387 . S
C157 H177 0.931 . S
C158 C155 1.487 . S
C158 C165 1.399 . S
C158 N183 1.343 . S
C159 C160 1.384 . S
C159 C161 1.384 . S
C159 H178 0.931 . S
C160 C159 1.384 . S
C160 C163 1.382 . S
C161 C159 1.384 . S
C161 C162 1.381 . S
C161 H179 0.930 . S
C162 C161 1.381 . S
C162 C164 1.381 . S
C162 C165 1.487 . S
C163 C160 1.382 . S
C163 C164 1.387 . S
C163 H180 0.930 . S
C164 C162 1.381 . S
C164 C163 1.387 . S
C164 H181 0.931 . S
C165 C158 1.399 . S
C165 C162 1.487 . S
C165 N182 1.330 1_455 S
H166 C138 0.931 . S
H167 C140 0.930 . S
H168 C142 0.930 . S
H169 C143 0.931 . S
H170 C145 0.931 . S
H171 C147 0.930 . S
H172 C149 0.930 . S
H173 C150 0.931 . S
H174 C152 0.931 . S
H175 C154 0.930 . S
H176 C156 0.930 . S
H177 C157 0.931 . S
H178 C159 0.931 . S
H179 C161 0.930 . S
H180 C163 0.930 . S
H181 C164 0.931 . S
N182 C144 1.351 . S
N182 C165 1.330 1_655 S
N183 C151 1.343 1_455 S
N183 C158 1.343 . S
C184 C185 1.384 . S
C184 C186 1.384 . S
C184 H212 0.931 . S
C185 C184 1.384 . S
C185 C188 1.382 . S
C186 C184 1.384 . S
C186 C187 1.381 . S
C186 H213 0.930 1_556 S
C187 C186 1.381 . S
C187 C189 1.381 . S
C187 C190 1.487 . S
C188 C185 1.382 . S
C188 C189 1.387 . S
C188 H214 0.930 . S
C189 C187 1.381 . S
C189 C188 1.387 . S
C189 H215 0.931 . S
C190 C187 1.487 . S
C190 C197 1.399 1_556 S
C190 N228 1.363 . S
C191 C192 1.384 . S
C191 C193 1.384 . S
C191 H216 0.931 . S
C192 C191 1.384 . S
C192 C195 1.382 . S
C193 C191 1.384 . S
C193 C194 1.381 . S
C193 H217 0.930 . S
C194 C193 1.381 . S
C194 C196 1.381 . S
C194 C197 1.487 . S
C195 C192 1.382 . S
C195 C196 1.387 . S
C195 H218 0.930 . S
C196 C194 1.381 . S
C196 C195 1.387 . S
C196 H219 0.931 . S
C197 C190 1.399 1_554 S
C197 C194 1.487 . S
C197 N229 1.343 1_565 S
C198 C199 1.384 . S
C198 C200 1.384 1_554 S
C198 H220 0.942 . S
C199 C198 1.384 . S
C199 C202 1.382 . S
C200 C198 1.384 1_556 S
C200 C201 1.381 1_556 S
C200 H221 0.930 . S
C201 C200 1.381 1_554 S
C201 C203 1.381 . S
C201 C204 1.476 1_554 S
C202 C199 1.382 . S
C202 C203 1.387 . S
C202 H222 0.930 . S
C203 C201 1.381 . S
C203 C202 1.387 . S
C203 H223 0.931 . S
C204 C201 1.476 1_556 S
C204 C211 1.436 . S
C204 N229 1.314 1_556 S
C205 C206 1.384 . S
C205 C207 1.384 . S
C205 H224 0.931 . S
C206 C205 1.384 . S
C206 C209 1.382 . S
C207 C205 1.384 . S
C207 C208 1.381 . S
C207 H225 0.930 . S
C208 C207 1.381 . S
C208 C210 1.381 . S
C208 C211 1.487 . S
C209 C206 1.382 . S
C209 C210 1.387 . S
C209 H226 0.930 . S
C210 C208 1.381 . S
C210 C209 1.387 . S
C210 H227 0.931 . S
C211 C204 1.436 . S
C211 C208 1.487 . S
C211 N228 1.316 1_545 S
H212 C184 0.931 . S
H213 C186 0.930 1_554 S
H214 C188 0.930 . S
H215 C189 0.931 . S
H216 C191 0.931 . S
H217 C193 0.930 . S
H218 C195 0.930 . S
H219 C196 0.931 . S
H220 C198 0.942 . S
H221 C200 0.930 . S
H222 C202 0.930 . S
H223 C203 0.931 . S
H224 C205 0.931 . S
H225 C207 0.930 . S
H226 C209 0.930 . S
H227 C210 0.931 . S
N228 C190 1.363 . S
N228 C211 1.316 1_565 S
N229 C197 1.343 1_545 S
N229 C204 1.314 1_554 S
C230 C231 1.384 . S
C230 C232 1.384 . S
C230 H258 0.931 . S
C231 C230 1.384 . S
C231 C234 1.382 . S
C232 C230 1.384 . S
C232 C233 1.381 . S
C232 H259 0.930 . S
C233 C232 1.381 . S
C233 C235 1.381 . S
C233 C236 1.487 . S
C234 C231 1.382 . S
C234 C235 1.387 . S
C234 H260 0.930 . S
C235 C233 1.381 . S
C235 C234 1.387 . S
C235 H261 0.931 . S
C236 C233 1.487 . S
C236 C243 1.399 . S
C236 N274 1.343 . S
C237 C238 1.384 . S
C237 C239 1.384 . S
C237 H262 0.931 . S
C238 C237 1.384 . S
C238 C241 1.382 . S
C239 C237 1.384 . S
C239 C240 1.381 . S
C239 H263 0.930 . S
C240 C239 1.381 . S
C240 C242 1.381 . S
C240 C243 1.487 . S
C241 C238 1.382 . S
C241 C242 1.387 . S
C241 H264 0.930 . S
C242 C240 1.381 . S
C242 C241 1.387 . S
C242 H265 0.931 . S
C243 C236 1.399 . S
C243 C240 1.487 . S
C243 N275 1.343 . S
C244 C245 1.384 . S
C244 C246 1.384 . S
C244 H266 0.931 . S
C245 C244 1.384 . S
C245 C248 1.382 . S
C246 C244 1.384 . S
C246 C247 1.381 . S
C246 H267 0.930 . S
C247 C246 1.381 . S
C247 C249 1.381 . S
C247 C250 1.487 . S
C248 C245 1.382 . S
C248 C249 1.387 . S
C248 H268 0.930 . S
C249 C247 1.381 . S
C249 C248 1.387 . S
C249 H269 0.931 . S
C250 C247 1.487 . S
C250 C257 1.399 . S
C250 N275 1.343 . S
C251 C252 1.384 . S
C251 C253 1.384 . S
C251 H270 0.931 . S
C252 C251 1.384 . S
C252 C255 1.382 . S
C253 C251 1.384 . S
C253 C254 1.381 . S
C253 H271 0.930 . S
C254 C253 1.381 . S
C254 C256 1.381 . S
C254 C257 1.487 . S
C255 C252 1.382 . S
C255 C256 1.387 . S
C255 H272 0.930 . S
C256 C254 1.381 . S
C256 C255 1.387 . S
C256 H273 0.931 . S
C257 C250 1.399 . S
C257 C254 1.487 . S
C257 N274 1.343 . S
H258 C230 0.931 . S
H259 C232 0.930 . S
H260 C234 0.930 . S
H261 C235 0.931 . S
H262 C237 0.931 . S
H263 C239 0.930 . S
H264 C241 0.930 . S
H265 C242 0.931 . S
H266 C244 0.931 . S
H267 C246 0.930 . S
H268 C248 0.930 . S
H269 C249 0.931 . S
H270 C251 0.931 . S
H271 C253 0.930 . S
H272 C255 0.930 . S
H273 C256 0.931 . S
N274 C236 1.343 . S
N274 C257 1.343 . S
N275 C243 1.343 . S
N275 C250 1.343 . S
C276 O277 1.306 . S
C276 O279 1.160 . S
O277 C276 1.306 . S
O277 Cd278 2.228 . S
Cd278 O277 2.228 . S
Cd278 O282 2.273 . S
Cd278 O286 2.277 . S
O279 C276 1.160 . S
O279 Cd280 2.203 . S
Cd280 O279 2.203 . S
Cd280 O282 2.411 . S
Cd280 O283 2.333 . S
Cd280 O284 2.352 . S
Cd280 O288 2.277 . S
Cd280 O289 2.356 . S
C281 O286 1.209 . S
C281 O288 1.226 . S
O282 Cd278 2.273 . S
O282 Cd280 2.411 . S
O282 C285 1.320 . S
O283 Cd280 2.333 . S
O283 C285 1.214 . S
O284 Cd280 2.352 . S
O284 C287 1.258 . S
C285 O282 1.320 . S
C285 O283 1.214 . S
O286 Cd278 2.277 . S
O286 C281 1.209 . S
C287 O284 1.258 . S
C287 O289 1.282 . S
O288 Cd280 2.277 . S
O288 C281 1.226 . S
O289 Cd280 2.356 . S
O289 C287 1.282 . S
C290 O291 1.306 . S
C290 O293 1.160 . S
O291 C290 1.306 . S
O291 Cd292 2.228 . S
Cd292 O291 2.228 . S
Cd292 O296 2.273 . S
Cd292 O300 2.277 . S
O293 C290 1.160 . S
O293 Cd294 2.203 . S
Cd294 O293 2.203 . S
Cd294 O296 2.411 . S
Cd294 O297 2.333 . S
Cd294 O298 2.352 . S
Cd294 O302 2.277 . S
Cd294 O303 2.356 . S
C295 O300 1.209 . S
C295 O302 1.226 . S
O296 Cd292 2.273 . S
O296 Cd294 2.411 . S
O296 C299 1.320 . S
O297 Cd294 2.333 . S
O297 C299 1.214 . S
O298 Cd294 2.352 . S
O298 C301 1.258 . S
C299 O296 1.320 . S
C299 O297 1.214 . S
O300 Cd292 2.277 . S
O300 C295 1.209 . S
C301 O298 1.258 . S
C301 O303 1.282 . S
O302 Cd294 2.277 . S
O302 C295 1.226 . S
O303 Cd294 2.356 . S
O303 C301 1.282 . S
C304 O305 1.306 . S
C304 O307 1.160 . S
O305 C304 1.306 . S
O305 Cd306 2.228 . S
Cd306 O305 2.228 . S
Cd306 O310 2.273 . S
Cd306 O314 2.277 . S
O307 C304 1.160 . S
O307 Cd308 2.203 . S
Cd308 O307 2.203 . S
Cd308 O310 2.411 . S
Cd308 O311 2.333 . S
Cd308 O312 2.352 . S
Cd308 O316 2.277 . S
Cd308 O317 2.356 . S
C309 O314 1.209 . S
C309 O316 1.226 . S
O310 Cd306 2.273 . S
O310 Cd308 2.411 . S
O310 C313 1.320 . S
O311 Cd308 2.333 . S
O311 C313 1.214 . S
O312 Cd308 2.352 . S
O312 C315 1.258 . S
C313 O310 1.320 . S
C313 O311 1.214 . S
O314 Cd306 2.277 . S
O314 C309 1.209 . S
C315 O312 1.258 . S
C315 O317 1.282 . S
O316 Cd308 2.277 . S
O316 C309 1.226 . S
O317 Cd308 2.356 . S
O317 C315 1.282 . S
C318 O319 1.306 . S
C318 O321 1.160 . S
O319 C318 1.306 . S
O319 Cd320 2.228 . S
Cd320 O319 2.228 . S
Cd320 O324 2.273 . S
Cd320 O328 2.277 . S
O321 C318 1.160 . S
O321 Cd322 2.203 . S
Cd322 O321 2.203 . S
Cd322 O324 2.411 . S
Cd322 O325 2.333 . S
Cd322 O326 2.352 . S
Cd322 O330 2.277 . S
Cd322 O331 2.356 . S
C323 O328 1.209 . S
C323 O330 1.226 . S
O324 Cd320 2.273 . S
O324 Cd322 2.411 . S
O324 C327 1.320 . S
O325 Cd322 2.333 . S
O325 C327 1.214 . S
O326 Cd322 2.352 . S
O326 C329 1.258 . S
C327 O324 1.320 . S
C327 O325 1.214 . S
O328 Cd320 2.277 . S
O328 C323 1.209 . S
C329 O326 1.258 . S
C329 O331 1.282 . S
O330 Cd322 2.277 . S
O330 C323 1.226 . S
O331 Cd322 2.356 . S
O331 C329 1.282 . S
C332 O333 1.306 . S
C332 O335 1.160 . S
O333 C332 1.306 . S
O333 Cd334 2.228 . S
Cd334 O333 2.228 . S
Cd334 O338 2.273 . S
Cd334 O342 2.277 . S
O335 C332 1.160 . S
O335 Cd336 2.203 . S
Cd336 O335 2.203 . S
Cd336 O338 2.411 . S
Cd336 O339 2.333 . S
Cd336 O340 2.352 . S
Cd336 O344 2.277 . S
Cd336 O345 2.356 . S
C337 O342 1.209 . S
C337 O344 1.226 . S
O338 Cd334 2.273 . S
O338 Cd336 2.411 . S
O338 C341 1.320 . S
O339 Cd336 2.333 . S
O339 C341 1.214 . S
O340 Cd336 2.352 . S
O340 C343 1.258 . S
C341 O338 1.320 . S
C341 O339 1.214 . S
O342 Cd334 2.277 . S
O342 C337 1.209 . S
C343 O340 1.258 . S
C343 O345 1.282 . S
O344 Cd336 2.277 . S
O344 C337 1.226 . S
O345 Cd336 2.356 . S
O345 C343 1.282 . S
C346 O347 1.306 . S
C346 O349 1.160 . S
O347 C346 1.306 . S
O347 Cd348 2.228 . S
Cd348 O347 2.228 . S
Cd348 O352 2.273 . S
Cd348 O356 2.277 . S
O349 C346 1.160 . S
O349 Cd350 2.203 . S
Cd350 O349 2.203 . S
Cd350 O352 2.411 . S
Cd350 O353 2.333 . S
Cd350 O354 2.352 . S
Cd350 O358 2.277 . S
Cd350 O359 2.356 . S
C351 O356 1.209 . S
C351 O358 1.226 . S
O352 Cd348 2.273 . S
O352 Cd350 2.411 . S
O352 C355 1.320 . S
O353 Cd350 2.333 . S
O353 C355 1.214 . S
O354 Cd350 2.352 . S
O354 C357 1.258 . S
C355 O352 1.320 . S
C355 O353 1.214 . S
O356 Cd348 2.277 . S
O356 C351 1.209 . S
C357 O354 1.258 . S
C357 O359 1.282 . S
O358 Cd350 2.277 . S
O358 C351 1.226 . S
O359 Cd350 2.356 . S
O359 C357 1.282 . S
C360 C361 1.391 . S
C360 C362 1.394 . S
C360 H376 0.931 . S
C361 C360 1.391 . S
C361 C365 1.376 . S
C362 C360 1.394 . S
C362 C363 1.369 . S
C362 C366 1.531 . S
C363 C362 1.369 . S
C363 C364 1.410 . S
C363 C371 1.503 . S
C364 C363 1.410 . S
C364 C365 1.392 . S
C364 C367 1.511 . S
C365 C361 1.376 . S
C365 C364 1.392 . S
C365 H377 0.929 . S
C366 C362 1.531 . S
C366 H378 0.960 . S
C366 H379 0.962 . S
C366 H380 0.960 . S
C367 C364 1.511 . S
C367 H381 0.961 . S
C367 H382 0.961 . S
C367 H383 0.961 . S
C368 C369 1.370 . S
C368 C370 1.363 . S
C368 H384 0.931 . S
C369 C368 1.370 . S
C369 C373 1.408 . S
C370 C368 1.363 . S
C370 C371 1.370 . S
C370 C374 1.524 . S
C371 C363 1.503 . S
C371 C370 1.370 . S
C371 C372 1.403 . S
C372 C371 1.403 . S
C372 C373 1.404 . S
C372 C375 1.539 . S
C373 C369 1.408 . S
C373 C372 1.404 . S
C373 H385 0.930 . S
C374 C370 1.524 . S
C374 H386 0.956 . S
C374 H387 0.961 . S
C374 H388 0.961 . S
C375 C372 1.539 . S
C375 H389 0.958 . S
C375 H390 0.961 . S
C375 H391 0.960 . S
H376 C360 0.931 . S
H377 C365 0.929 . S
H378 C366 0.960 . S
H379 C366 0.962 . S
H380 C366 0.960 . S
H381 C367 0.961 . S
H382 C367 0.961 . S
H383 C367 0.961 . S
H384 C368 0.931 . S
H385 C373 0.930 . S
H386 C374 0.956 . S
H387 C374 0.961 . S
H388 C374 0.961 . S
H389 C375 0.958 . S
H390 C375 0.961 . S
H391 C375 0.960 . S
C392 C393 1.391 . S
C392 C394 1.394 . S
C392 H408 0.931 . S
C393 C392 1.391 . S
C393 C397 1.376 . S
C394 C392 1.394 . S
C394 C395 1.369 . S
C394 C398 1.531 . S
C395 C394 1.369 . S
C395 C396 1.410 . S
C395 C403 1.503 . S
C396 C395 1.410 . S
C396 C397 1.392 . S
C396 C399 1.511 . S
C397 C393 1.376 . S
C397 C396 1.392 . S
C397 H409 0.929 . S
C398 C394 1.531 . S
C398 H410 0.960 . S
C398 H411 0.962 . S
C398 H412 0.960 . S
C399 C396 1.511 . S
C399 H413 0.961 . S
C399 H414 0.961 . S
C399 H415 0.961 . S
C400 C401 1.370 . S
C400 C402 1.363 . S
C400 H416 0.931 . S
C401 C400 1.370 . S
C401 C405 1.408 . S
C402 C400 1.363 . S
C402 C403 1.370 . S
C402 C406 1.524 . S
C403 C395 1.503 . S
C403 C402 1.370 . S
C403 C404 1.403 . S
C404 C403 1.403 . S
C404 C405 1.404 . S
C404 C407 1.539 . S
C405 C401 1.408 . S
C405 C404 1.404 . S
C405 H417 0.930 . S
C406 C402 1.524 . S
C406 H418 0.956 . S
C406 H419 0.961 . S
C406 H420 0.961 . S
C407 C404 1.539 . S
C407 H421 0.958 . S
C407 H422 0.961 . S
C407 H423 0.960 . S
H408 C392 0.931 . S
H409 C397 0.929 . S
H410 C398 0.960 . S
H411 C398 0.962 . S
H412 C398 0.960 . S
H413 C399 0.961 . S
H414 C399 0.961 . S
H415 C399 0.961 . S
H416 C400 0.931 . S
H417 C405 0.930 . S
H418 C406 0.956 . S
H419 C406 0.961 . S
H420 C406 0.961 . S
H421 C407 0.958 . S
H422 C407 0.961 . S
H423 C407 0.960 . S
C424 C425 1.391 . S
C424 C426 1.394 . S
C424 H440 0.931 . S
C425 C424 1.391 . S
C425 C429 1.376 . S
C426 C424 1.394 . S
C426 C427 1.369 . S
C426 C430 1.531 . S
C427 C426 1.369 . S
C427 C428 1.410 . S
C427 C435 1.503 . S
C428 C427 1.410 . S
C428 C429 1.392 . S
C428 C431 1.511 . S
C429 C425 1.376 . S
C429 C428 1.392 . S
C429 H441 0.929 . S
C430 C426 1.531 . S
C430 H442 0.960 . S
C430 H443 0.962 . S
C430 H444 0.960 . S
C431 C428 1.511 . S
C431 H445 0.961 . S
C431 H446 0.961 . S
C431 H447 0.961 . S
C432 C433 1.370 . S
C432 C434 1.363 . S
C432 H448 0.931 . S
C433 C432 1.370 . S
C433 C437 1.408 . S
C434 C432 1.363 . S
C434 C435 1.370 . S
C434 C438 1.524 . S
C435 C427 1.503 . S
C435 C434 1.370 . S
C435 C436 1.403 . S
C436 C435 1.403 . S
C436 C437 1.404 . S
C436 C439 1.539 . S
C437 C433 1.408 . S
C437 C436 1.404 . S
C437 H449 0.930 . S
C438 C434 1.524 . S
C438 H450 0.956 . S
C438 H451 0.961 . S
C438 H452 0.961 . S
C439 C436 1.539 . S
C439 H453 0.958 . S
C439 H454 0.961 . S
C439 H455 0.960 . S
H440 C424 0.931 . S
H441 C429 0.929 . S
H442 C430 0.960 . S
H443 C430 0.962 . S
H444 C430 0.960 . S
H445 C431 0.961 . S
H446 C431 0.961 . S
H447 C431 0.961 . S
H448 C432 0.931 . S
H449 C437 0.930 . S
H450 C438 0.956 . S
H451 C438 0.961 . S
H452 C438 0.961 . S
H453 C439 0.958 . S
H454 C439 0.961 . S
H455 C439 0.960 . S
C456 C457 1.391 . S
C456 C458 1.394 . S
C456 H472 0.931 . S
C457 C456 1.391 . S
C457 C461 1.376 . S
C458 C456 1.394 . S
C458 C459 1.369 . S
C458 C462 1.531 . S
C459 C458 1.369 . S
C459 C460 1.410 . S
C459 C467 1.503 . S
C460 C459 1.410 . S
C460 C461 1.392 . S
C460 C463 1.511 . S
C461 C457 1.376 . S
C461 C460 1.392 . S
C461 H473 0.929 . S
C462 C458 1.531 . S
C462 H474 0.960 . S
C462 H475 0.962 . S
C462 H476 0.960 . S
C463 C460 1.511 . S
C463 H477 0.961 . S
C463 H478 0.961 . S
C463 H479 0.961 . S
C464 C465 1.370 . S
C464 C466 1.363 . S
C464 H480 0.931 . S
C465 C464 1.370 . S
C465 C469 1.408 . S
C466 C464 1.363 . S
C466 C467 1.370 . S
C466 C470 1.524 . S
C467 C459 1.503 . S
C467 C466 1.370 . S
C467 C468 1.403 . S
C468 C467 1.403 . S
C468 C469 1.404 . S
C468 C471 1.539 . S
C469 C465 1.408 . S
C469 C468 1.404 . S
C469 H481 0.930 . S
C470 C466 1.524 . S
C470 H482 0.956 . S
C470 H483 0.961 . S
C470 H484 0.961 . S
C471 C468 1.539 . S
C471 H485 0.958 . S
C471 H486 0.961 . S
C471 H487 0.960 . S
H472 C456 0.931 . S
H473 C461 0.929 . S
H474 C462 0.960 . S
H475 C462 0.962 . S
H476 C462 0.960 . S
H477 C463 0.961 . S
H478 C463 0.961 . S
H479 C463 0.961 . S
H480 C464 0.931 . S
H481 C469 0.930 . S
H482 C470 0.956 . S
H483 C470 0.961 . S
H484 C470 0.961 . S
H485 C471 0.958 . S
H486 C471 0.961 . S
H487 C471 0.960 . S
C488 C489 1.391 . S
C488 C490 1.394 . S
C488 H504 0.931 . S
C489 C488 1.391 . S
C489 C493 1.376 . S
C490 C488 1.394 . S
C490 C491 1.369 . S
C490 C494 1.531 . S
C491 C490 1.369 . S
C491 C492 1.410 . S
C491 C499 1.503 . S
C492 C491 1.410 . S
C492 C493 1.392 . S
C492 C495 1.511 . S
C493 C489 1.376 . S
C493 C492 1.392 . S
C493 H505 0.929 . S
C494 C490 1.531 . S
C494 H506 0.960 . S
C494 H507 0.962 . S
C494 H508 0.960 . S
C495 C492 1.511 . S
C495 H509 0.961 . S
C495 H510 0.961 . S
C495 H511 0.961 . S
C496 C497 1.370 . S
C496 C498 1.363 . S
C496 H512 0.931 . S
C497 C496 1.370 . S
C497 C501 1.408 . S
C498 C496 1.363 . S
C498 C499 1.370 . S
C498 C502 1.524 . S
C499 C491 1.503 . S
C499 C498 1.370 . S
C499 C500 1.403 . S
C500 C499 1.403 . S
C500 C501 1.404 . S
C500 C503 1.539 . S
C501 C497 1.408 . S
C501 C500 1.404 . S
C501 H513 0.930 . S
C502 C498 1.524 . S
C502 H514 0.956 . S
C502 H515 0.961 . S
C502 H516 0.961 . S
C503 C500 1.539 . S
C503 H517 0.958 . S
C503 H518 0.961 . S
C503 H519 0.960 . S
H504 C488 0.931 . S
H505 C493 0.929 . S
H506 C494 0.960 . S
H507 C494 0.962 . S
H508 C494 0.960 . S
H509 C495 0.961 . S
H510 C495 0.961 . S
H511 C495 0.961 . S
H512 C496 0.931 . S
H513 C501 0.930 . S
H514 C502 0.956 . S
H515 C502 0.961 . S
H516 C502 0.961 . S
H517 C503 0.958 . S
H518 C503 0.961 . S
H519 C503 0.960 . S
C520 C521 1.391 . S
C520 C522 1.394 . S
C520 H536 0.931 . S
C521 C520 1.391 . S
C521 C525 1.376 . S
C522 C520 1.394 . S
C522 C523 1.369 . S
C522 C526 1.531 . S
C523 C522 1.369 . S
C523 C524 1.410 . S
C523 C531 1.503 . S
C524 C523 1.410 . S
C524 C525 1.392 . S
C524 C527 1.511 . S
C525 C521 1.376 . S
C525 C524 1.392 . S
C525 H537 0.929 . S
C526 C522 1.531 . S
C526 H538 0.960 . S
C526 H539 0.962 . S
C526 H540 0.960 . S
C527 C524 1.511 . S
C527 H541 0.961 . S
C527 H542 0.961 . S
C527 H543 0.961 . S
C528 C529 1.370 . S
C528 C530 1.363 . S
C528 H544 0.931 . S
C529 C528 1.370 . S
C529 C533 1.408 . S
C530 C528 1.363 . S
C530 C531 1.370 . S
C530 C534 1.524 . S
C531 C523 1.503 . S
C531 C530 1.370 . S
C531 C532 1.403 . S
C532 C531 1.403 . S
C532 C533 1.404 . S
C532 C535 1.539 . S
C533 C529 1.408 . S
C533 C532 1.404 . S
C533 H545 0.930 . S
C534 C530 1.524 . S
C534 H546 0.956 . S
C534 H547 0.961 . S
C534 H548 0.961 . S
C535 C532 1.539 . S
C535 H549 0.958 . S
C535 H550 0.961 . S
C535 H551 0.960 . S
H536 C520 0.931 . S
H537 C525 0.929 . S
H538 C526 0.960 . S
H539 C526 0.962 . S
H540 C526 0.960 . S
H541 C527 0.961 . S
H542 C527 0.961 . S
H543 C527 0.961 . S
H544 C528 0.931 . S
H545 C533 0.930 . S
H546 C534 0.956 . S
H547 C534 0.961 . S
H548 C534 0.961 . S
H549 C535 0.958 . S
H550 C535 0.961 . S
H551 C535 0.960 . S
C552 C553 1.391 . S
C552 C554 1.394 . S
C552 H568 0.931 . S
C553 C552 1.391 . S
C553 C557 1.376 . S
C554 C552 1.394 . S
C554 C555 1.369 . S
C554 C558 1.531 . S
C555 C554 1.369 . S
C555 C556 1.410 . S
C555 C563 1.503 . S
C556 C555 1.410 . S
C556 C557 1.392 . S
C556 C559 1.511 . S
C557 C553 1.376 . S
C557 C556 1.392 . S
C557 H569 0.929 . S
C558 C554 1.531 . S
C558 H570 0.960 . S
C558 H571 0.962 . S
C558 H572 0.960 . S
C559 C556 1.511 . S
C559 H573 0.961 . S
C559 H574 0.961 . S
C559 H575 0.961 . S
C560 C561 1.370 . S
C560 C562 1.363 . S
C560 H576 0.931 . S
C561 C560 1.370 . S
C561 C565 1.408 . S
C562 C560 1.363 . S
C562 C563 1.370 . S
C562 C566 1.524 . S
C563 C555 1.503 . S
C563 C562 1.370 . S
C563 C564 1.403 . S
C564 C563 1.403 . S
C564 C565 1.404 . S
C564 C567 1.539 . S
C565 C561 1.408 . S
C565 C564 1.404 . S
C565 H577 0.930 . S
C566 C562 1.524 . S
C566 H578 0.956 . S
C566 H579 0.961 . S
C566 H580 0.961 . S
C567 C564 1.539 . S
C567 H581 0.958 . S
C567 H582 0.961 . S
C567 H583 0.960 . S
H568 C552 0.931 . S
H569 C557 0.929 . S
H570 C558 0.960 . S
H571 C558 0.962 . S
H572 C558 0.960 . S
H573 C559 0.961 . S
H574 C559 0.961 . S
H575 C559 0.961 . S
H576 C560 0.931 . S
H577 C565 0.930 . S
H578 C566 0.956 . S
H579 C566 0.961 . S
H580 C566 0.961 . S
H581 C567 0.958 . S
H582 C567 0.961 . S
H583 C567 0.960 . S
C584 C585 1.391 . S
C584 C586 1.394 . S
C584 H600 0.931 . S
C585 C584 1.391 . S
C585 C589 1.376 . S
C586 C584 1.394 . S
C586 C587 1.369 . S
C586 C590 1.531 . S
C587 C586 1.369 . S
C587 C588 1.410 . S
C587 C595 1.503 . S
C588 C587 1.410 . S
C588 C589 1.392 . S
C588 C591 1.511 . S
C589 C585 1.376 . S
C589 C588 1.392 . S
C589 H601 0.929 . S
C590 C586 1.531 . S
C590 H602 0.960 . S
C590 H603 0.962 . S
C590 H604 0.960 . S
C591 C588 1.511 . S
C591 H605 0.961 . S
C591 H606 0.961 . S
C591 H607 0.961 . S
C592 C593 1.370 . S
C592 C594 1.363 . S
C592 H608 0.931 . S
C593 C592 1.370 . S
C593 C597 1.408 . S
C594 C592 1.363 . S
C594 C595 1.370 . S
C594 C598 1.524 . S
C595 C587 1.503 . S
C595 C594 1.370 . S
C595 C596 1.403 . S
C596 C595 1.403 . S
C596 C597 1.404 . S
C596 C599 1.539 . S
C597 C593 1.408 . S
C597 C596 1.404 . S
C597 H609 0.930 . S
C598 C594 1.524 . S
C598 H610 0.956 . S
C598 H611 0.961 . S
C598 H612 0.961 . S
C599 C596 1.539 . S
C599 H613 0.958 . S
C599 H614 0.961 . S
C599 H615 0.960 . S
H600 C584 0.931 . S
H601 C589 0.929 . S
H602 C590 0.960 . S
H603 C590 0.962 . S
H604 C590 0.960 . S
H605 C591 0.961 . S
H606 C591 0.961 . S
H607 C591 0.961 . S
H608 C592 0.931 . S
H609 C597 0.930 . S
H610 C598 0.956 . S
H611 C598 0.961 . S
H612 C598 0.961 . S
H613 C599 0.958 . S
H614 C599 0.961 . S
H615 C599 0.960 . S
C616 C617 1.391 . S
C616 C618 1.394 . S
C616 H632 0.931 . S
C617 C616 1.391 . S
C617 C621 1.376 . S
C618 C616 1.394 . S
C618 C619 1.369 . S
C618 C622 1.531 . S
C619 C618 1.369 . S
C619 C620 1.410 . S
C619 C627 1.503 . S
C620 C619 1.410 . S
C620 C621 1.392 . S
C620 C623 1.511 . S
C621 C617 1.376 . S
C621 C620 1.392 . S
C621 H633 0.929 . S
C622 C618 1.531 . S
C622 H634 0.960 . S
C622 H635 0.962 . S
C622 H636 0.960 . S
C623 C620 1.511 . S
C623 H637 0.961 . S
C623 H638 0.961 . S
C623 H639 0.961 . S
C624 C625 1.370 . S
C624 C626 1.363 . S
C624 H640 0.931 . S
C625 C624 1.370 . S
C625 C629 1.408 . S
C626 C624 1.363 . S
C626 C627 1.370 . S
C626 C630 1.524 . S
C627 C619 1.503 . S
C627 C626 1.370 . S
C627 C628 1.403 . S
C628 C627 1.403 . S
C628 C629 1.404 . S
C628 C631 1.539 . S
C629 C625 1.408 . S
C629 C628 1.404 . S
C629 H641 0.930 . S
C630 C626 1.524 . S
C630 H642 0.956 . S
C630 H643 0.961 . S
C630 H644 0.961 . S
C631 C628 1.539 . S
C631 H645 0.958 . S
C631 H646 0.961 . S
C631 H647 0.960 . S
H632 C616 0.931 . S
H633 C621 0.929 . S
H634 C622 0.960 . S
H635 C622 0.962 . S
H636 C622 0.960 . S
H637 C623 0.961 . S
H638 C623 0.961 . S
H639 C623 0.961 . S
H640 C624 0.931 . S
H641 C629 0.930 . S
H642 C630 0.956 . S
H643 C630 0.961 . S
H644 C630 0.961 . S
H645 C631 0.958 . S
H646 C631 0.961 . S
H647 C631 0.960 . S
C648 C649 1.391 . S
C648 C650 1.394 . S
C648 H664 0.931 1_554 S
C649 C648 1.391 . S
C649 C653 1.376 . S
C650 C648 1.394 . S
C650 C651 1.369 . S
C650 C654 1.531 1_554 S
C651 C650 1.369 . S
C651 C652 1.410 . S
C651 C659 1.503 . S
C652 C651 1.410 . S
C652 C653 1.392 . S
C652 C655 1.511 . S
C653 C649 1.376 . S
C653 C652 1.392 . S
C653 H665 0.929 . S
C654 C650 1.531 1_556 S
C654 H666 0.960 1_556 S
C654 H667 0.962 . S
C654 H668 0.960 . S
C655 C652 1.511 . S
C655 H669 0.961 . S
C655 H670 0.961 . S
C655 H671 0.961 . S
C656 C657 1.370 . S
C656 C658 1.363 . S
C656 H672 0.931 . S
C657 C656 1.370 . S
C657 C661 1.408 . S
C658 C656 1.363 . S
C658 C659 1.370 . S
C658 C662 1.524 . S
C659 C651 1.503 . S
C659 C658 1.370 . S
C659 C660 1.403 . S
C660 C659 1.403 . S
C660 C661 1.404 . S
C660 C663 1.539 . S
C661 C657 1.408 . S
C661 C660 1.404 . S
C661 H673 0.930 . S
C662 C658 1.524 . S
C662 H674 0.956 . S
C662 H675 0.961 . S
C662 H676 0.961 . S
C663 C660 1.539 . S
C663 H677 0.958 . S
C663 H678 0.961 . S
C663 H679 0.960 . S
H664 C648 0.931 1_556 S
H665 C653 0.929 . S
H666 C654 0.960 1_554 S
H667 C654 0.962 . S
H668 C654 0.960 . S
H669 C655 0.961 . S
H670 C655 0.961 . S
H671 C655 0.961 . S
H672 C656 0.931 . S
H673 C661 0.930 . S
H674 C662 0.956 . S
H675 C662 0.961 . S
H676 C662 0.961 . S
H677 C663 0.958 . S
H678 C663 0.961 . S
H679 C663 0.960 . S
C680 C681 1.391 . S
C680 C682 1.394 . S
C680 H696 0.931 . S
C681 C680 1.391 . S
C681 C685 1.376 . S
C682 C680 1.394 . S
C682 C683 1.369 . S
C682 C686 1.531 . S
C683 C682 1.369 . S
C683 C684 1.410 . S
C683 C691 1.503 . S
C684 C683 1.410 . S
C684 C685 1.392 . S
C684 C687 1.511 . S
C685 C681 1.376 . S
C685 C684 1.392 . S
C685 H697 0.929 . S
C686 C682 1.531 . S
C686 H698 0.960 . S
C686 H699 0.962 . S
C686 H700 0.960 . S
C687 C684 1.511 . S
C687 H701 0.961 . S
C687 H702 0.961 . S
C687 H703 0.961 . S
C688 C689 1.370 . S
C688 C690 1.363 . S
C688 H704 0.931 . S
C689 C688 1.370 . S
C689 C693 1.408 . S
C690 C688 1.363 . S
C690 C691 1.370 . S
C690 C694 1.524 . S
C691 C683 1.503 . S
C691 C690 1.370 . S
C691 C692 1.403 . S
C692 C691 1.403 . S
C692 C693 1.404 . S
C692 C695 1.539 . S
C693 C689 1.408 . S
C693 C692 1.404 . S
C693 H705 0.930 . S
C694 C690 1.524 . S
C694 H706 0.956 . S
C694 H707 0.961 . S
C694 H708 0.961 . S
C695 C692 1.539 . S
C695 H709 0.958 . S
C695 H710 0.961 . S
C695 H711 0.960 . S
H696 C680 0.931 . S
H697 C685 0.929 . S
H698 C686 0.960 . S
H699 C686 0.962 . S
H700 C686 0.960 . S
H701 C687 0.961 . S
H702 C687 0.961 . S
H703 C687 0.961 . S
H704 C688 0.931 . S
H705 C693 0.930 . S
H706 C694 0.956 . S
H707 C694 0.961 . S
H708 C694 0.961 . S
H709 C695 0.958 . S
H710 C695 0.961 . S
H711 C695 0.960 . S
C712 C713 1.391 . S
C712 C714 1.394 . S
C712 H728 0.931 . S
C713 C712 1.391 . S
C713 C717 1.376 . S
C714 C712 1.394 . S
C714 C715 1.369 . S
C714 C718 1.531 . S
C715 C714 1.369 . S
C715 C716 1.410 . S
C715 C723 1.503 . S
C716 C715 1.410 . S
C716 C717 1.392 . S
C716 C719 1.511 . S
C717 C713 1.376 . S
C717 C716 1.392 . S
C717 H729 0.929 . S
C718 C714 1.531 . S
C718 H730 0.960 . S
C718 H731 0.962 . S
C718 H732 0.960 . S
C719 C716 1.511 . S
C719 H733 0.961 . S
C719 H734 0.961 . S
C719 H735 0.961 . S
C720 C721 1.370 . S
C720 C722 1.363 . S
C720 H736 0.931 . S
C721 C720 1.370 . S
C721 C725 1.408 . S
C722 C720 1.363 . S
C722 C723 1.370 . S
C722 C726 1.524 . S
C723 C715 1.503 . S
C723 C722 1.370 . S
C723 C724 1.403 . S
C724 C723 1.403 . S
C724 C725 1.404 . S
C724 C727 1.539 . S
C725 C721 1.408 . S
C725 C724 1.404 . S
C725 H737 0.930 . S
C726 C722 1.524 . S
C726 H738 0.956 . S
C726 H739 0.961 . S
C726 H740 0.961 . S
C727 C724 1.539 . S
C727 H741 0.958 . S
C727 H742 0.961 . S
C727 H743 0.960 . S
H728 C712 0.931 . S
H729 C717 0.929 . S
H730 C718 0.960 . S
H731 C718 0.962 . S
H732 C718 0.960 . S
H733 C719 0.961 . S
H734 C719 0.961 . S
H735 C719 0.961 . S
H736 C720 0.931 . S
H737 C725 0.930 . S
H738 C726 0.956 . S
H739 C726 0.961 . S
H740 C726 0.961 . S
H741 C727 0.958 . S
H742 C727 0.961 . S
H743 C727 0.960 . S
C744 C745 1.391 . S
C744 C746 1.394 . S
C744 H760 0.931 . S
C745 C744 1.391 . S
C745 C749 1.376 . S
C746 C744 1.394 . S
C746 C747 1.369 . S
C746 C750 1.531 . S
C747 C746 1.369 . S
C747 C748 1.410 . S
C747 C755 1.503 . S
C748 C747 1.410 . S
C748 C749 1.392 . S
C748 C751 1.511 . S
C749 C745 1.376 . S
C749 C748 1.392 . S
C749 H761 0.929 . S
C750 C746 1.531 . S
C750 H762 0.960 . S
C750 H763 0.962 . S
C750 H764 0.960 . S
C751 C748 1.511 . S
C751 H765 0.961 . S
C751 H766 0.961 . S
C751 H767 0.961 . S
C752 C753 1.370 . S
C752 C754 1.363 . S
C752 H768 0.931 . S
C753 C752 1.370 . S
C753 C757 1.408 . S
C754 C752 1.363 . S
C754 C755 1.370 . S
C754 C758 1.524 . S
C755 C747 1.503 . S
C755 C754 1.370 . S
C755 C756 1.403 . S
C756 C755 1.403 . S
C756 C757 1.404 . S
C756 C759 1.539 . S
C757 C753 1.408 . S
C757 C756 1.404 . S
C757 H769 0.930 . S
C758 C754 1.524 . S
C758 H770 0.956 . S
C758 H771 0.961 . S
C758 H772 0.961 . S
C759 C756 1.539 . S
C759 H773 0.958 . S
C759 H774 0.961 . S
C759 H775 0.960 . S
H760 C744 0.931 . S
H761 C749 0.929 . S
H762 C750 0.960 . S
H763 C750 0.962 . S
H764 C750 0.960 . S
H765 C751 0.961 . S
H766 C751 0.961 . S
H767 C751 0.961 . S
H768 C752 0.931 . S
H769 C757 0.930 . S
H770 C758 0.956 . S
H771 C758 0.961 . S
H772 C758 0.961 . S
H773 C759 0.958 . S
H774 C759 0.961 . S
H775 C759 0.960 . S
C776 C777 1.391 . S
C776 C778 1.394 . S
C776 H792 0.931 . S
C777 C776 1.391 . S
C777 C781 1.376 . S
C778 C776 1.394 . S
C778 C779 1.369 . S
C778 C782 1.531 . S
C779 C778 1.369 . S
C779 C780 1.410 . S
C779 C787 1.503 . S
C780 C779 1.410 . S
C780 C781 1.392 . S
C780 C783 1.511 . S
C781 C777 1.376 . S
C781 C780 1.392 . S
C781 H793 0.929 . S
C782 C778 1.531 . S
C782 H794 0.960 . S
C782 H795 0.962 . S
C782 H796 0.960 . S
C783 C780 1.511 . S
C783 H797 0.961 . S
C783 H798 0.961 . S
C783 H799 0.961 . S
C784 C785 1.370 . S
C784 C786 1.363 . S
C784 H800 0.931 . S
C785 C784 1.370 . S
C785 C789 1.408 . S
C786 C784 1.363 . S
C786 C787 1.370 . S
C786 C790 1.524 . S
C787 C779 1.503 . S
C787 C786 1.370 . S
C787 C788 1.403 . S
C788 C787 1.403 . S
C788 C789 1.404 . S
C788 C791 1.539 . S
C789 C785 1.408 . S
C789 C788 1.404 . S
C789 H801 0.930 . S
C790 C786 1.524 . S
C790 H802 0.956 . S
C790 H803 0.961 . S
C790 H804 0.961 . S
C791 C788 1.539 . S
C791 H805 0.958 . S
C791 H806 0.961 . S
C791 H807 0.960 . S
H792 C776 0.931 . S
H793 C781 0.929 . S
H794 C782 0.960 . S
H795 C782 0.962 . S
H796 C782 0.960 . S
H797 C783 0.961 . S
H798 C783 0.961 . S
H799 C783 0.961 . S
H800 C784 0.931 . S
H801 C789 0.930 . S
H802 C790 0.956 . S
H803 C790 0.961 . S
H804 C790 0.961 . S
H805 C791 0.958 . S
H806 C791 0.961 . S
H807 C791 0.960 . S
C808 C809 1.391 . S
C808 C810 1.394 . S
C808 H824 0.931 . S
C809 C808 1.391 . S
C809 C813 1.376 . S
C810 C808 1.394 . S
C810 C811 1.369 . S
C810 C814 1.531 . S
C811 C810 1.369 . S
C811 C812 1.410 . S
C811 C819 1.503 . S
C812 C811 1.410 . S
C812 C813 1.392 . S
C812 C815 1.511 . S
C813 C809 1.376 . S
C813 C812 1.392 . S
C813 H825 0.929 . S
C814 C810 1.531 . S
C814 H826 0.960 . S
C814 H827 0.962 . S
C814 H828 0.960 . S
C815 C812 1.511 . S
C815 H829 0.961 . S
C815 H830 0.961 . S
C815 H831 0.961 . S
C816 C817 1.370 . S
C816 C818 1.363 . S
C816 H832 0.931 . S
C817 C816 1.370 . S
C817 C821 1.408 . S
C818 C816 1.363 . S
C818 C819 1.370 . S
C818 C822 1.524 . S
C819 C811 1.503 . S
C819 C818 1.370 . S
C819 C820 1.403 . S
C820 C819 1.403 . S
C820 C821 1.404 . S
C820 C823 1.539 . S
C821 C817 1.408 . S
C821 C820 1.404 . S
C821 H833 0.930 . S
C822 C818 1.524 . S
C822 H834 0.956 . S
C822 H835 0.961 . S
C822 H836 0.961 . S
C823 C820 1.539 . S
C823 H837 0.958 . S
C823 H838 0.961 . S
C823 H839 0.960 . S
H824 C808 0.931 . S
H825 C813 0.929 . S
H826 C814 0.960 . S
H827 C814 0.962 . S
H828 C814 0.960 . S
H829 C815 0.961 . S
H830 C815 0.961 . S
H831 C815 0.961 . S
H832 C816 0.931 . S
H833 C821 0.930 . S
H834 C822 0.956 . S
H835 C822 0.961 . S
H836 C822 0.961 . S
H837 C823 0.958 . S
H838 C823 0.961 . S
H839 C823 0.960 . S
C840 C841 1.391 . S
C840 C842 1.394 . S
C840 H856 0.931 . S
C841 C840 1.391 . S
C841 C845 1.376 . S
C842 C840 1.394 . S
C842 C843 1.369 . S
C842 C846 1.531 . S
C843 C842 1.369 . S
C843 C844 1.410 . S
C843 C851 1.503 . S
C844 C843 1.410 . S
C844 C845 1.392 . S
C844 C847 1.511 . S
C845 C841 1.376 . S
C845 C844 1.392 . S
C845 H857 0.929 . S
C846 C842 1.531 . S
C846 H858 0.970 . S
C846 H859 0.962 . S
C846 H860 0.960 . S
C847 C844 1.511 . S
C847 H861 0.961 . S
C847 H862 0.961 . S
C847 H863 0.961 . S
C848 C849 1.370 . S
C848 C850 1.363 1_554 S
C848 H864 0.931 . S
C849 C848 1.370 . S
C849 C853 1.408 . S
C850 C848 1.363 1_556 S
C850 C851 1.370 . S
C850 C854 1.524 . S
C851 C843 1.503 . S
C851 C850 1.370 . S
C851 C852 1.403 . S
C852 C851 1.403 . S
C852 C853 1.404 1_556 S
C852 C855 1.539 . S
C853 C849 1.408 . S
C853 C852 1.404 1_554 S
C853 H865 0.930 . S
C854 C850 1.524 . S
C854 H866 0.956 . S
C854 H867 0.961 . S
C854 H868 0.961 . S
C855 C852 1.539 . S
C855 H869 0.958 . S
C855 H870 0.961 . S
C855 H871 0.960 . S
H856 C840 0.931 . S
H857 C845 0.929 . S
H858 C846 0.970 . S
H859 C846 0.962 . S
H860 C846 0.960 . S
H861 C847 0.961 . S
H862 C847 0.961 . S
H863 C847 0.961 . S
H864 C848 0.931 . S
H865 C853 0.930 . S
H866 C854 0.956 . S
H867 C854 0.961 . S
H868 C854 0.961 . S
H869 C855 0.958 . S
H870 C855 0.961 . S
H871 C855 0.960 . S
C872 C873 1.391 . S
C872 C874 1.394 . S
C872 H888 0.931 . S
C873 C872 1.391 . S
C873 C877 1.376 . S
C874 C872 1.394 . S
C874 C875 1.369 . S
C874 C878 1.531 . S
C875 C874 1.369 . S
C875 C876 1.410 . S
C875 C883 1.503 . S
C876 C875 1.410 . S
C876 C877 1.392 . S
C876 C879 1.511 . S
C877 C873 1.376 . S
C877 C876 1.392 . S
C877 H889 0.929 . S
C878 C874 1.531 . S
C878 H890 0.960 . S
C878 H891 0.962 . S
C878 H892 0.960 . S
C879 C876 1.511 . S
C879 H893 0.961 . S
C879 H894 0.961 . S
C879 H895 0.961 . S
C880 C881 1.370 . S
C880 C882 1.363 . S
C880 H896 0.931 . S
C881 C880 1.370 . S
C881 C885 1.408 . S
C882 C880 1.363 . S
C882 C883 1.370 . S
C882 C886 1.524 . S
C883 C875 1.503 . S
C883 C882 1.370 . S
C883 C884 1.403 . S
C884 C883 1.403 . S
C884 C885 1.404 . S
C884 C887 1.539 . S
C885 C881 1.408 . S
C885 C884 1.404 . S
C885 H897 0.930 . S
C886 C882 1.524 . S
C886 H898 0.956 . S
C886 H899 0.961 . S
C886 H900 0.961 . S
C887 C884 1.539 . S
C887 H901 0.958 . S
C887 H902 0.961 . S
C887 H903 0.960 . S
H888 C872 0.931 . S
H889 C877 0.929 . S
H890 C878 0.960 . S
H891 C878 0.962 . S
H892 C878 0.960 . S
H893 C879 0.961 . S
H894 C879 0.961 . S
H895 C879 0.961 . S
H896 C880 0.931 . S
H897 C885 0.930 . S
H898 C886 0.956 . S
H899 C886 0.961 . S
H900 C886 0.961 . S
H901 C887 0.958 . S
H902 C887 0.961 . S
H903 C887 0.960 . S
C904 C905 1.391 . S
C904 C906 1.394 . S
C904 H920 0.931 . S
C905 C904 1.391 . S
C905 C909 1.376 . S
C906 C904 1.394 . S
C906 C907 1.369 . S
C906 C910 1.531 . S
C907 C906 1.369 . S
C907 C908 1.410 . S
C907 C915 1.503 . S
C908 C907 1.410 . S
C908 C909 1.392 . S
C908 C911 1.511 . S
C909 C905 1.376 . S
C909 C908 1.392 . S
C909 H921 0.929 . S
C910 C906 1.531 . S
C910 H922 0.960 . S
C910 H923 0.962 . S
C910 H924 0.960 . S
C911 C908 1.511 . S
C911 H925 0.961 . S
C911 H926 0.961 . S
C911 H927 0.961 . S
C912 C913 1.370 . S
C912 C914 1.363 . S
C912 H928 0.931 . S
C913 C912 1.370 . S
C913 C917 1.408 . S
C914 C912 1.363 . S
C914 C915 1.370 . S
C914 C918 1.524 . S
C915 C907 1.503 . S
C915 C914 1.370 . S
C915 C916 1.403 . S
C916 C915 1.403 . S
C916 C917 1.404 . S
C916 C919 1.539 . S
C917 C913 1.408 . S
C917 C916 1.404 . S
C917 H929 0.930 . S
C918 C914 1.524 . S
C918 H930 0.956 . S
C918 H931 0.961 . S
C918 H932 0.961 . S
C919 C916 1.539 . S
C919 H933 0.958 . S
C919 H934 0.961 . S
C919 H935 0.960 . S
H920 C904 0.931 . S
H921 C909 0.929 . S
H922 C910 0.960 . S
H923 C910 0.962 . S
H924 C910 0.960 . S
H925 C911 0.961 . S
H926 C911 0.961 . S
H927 C911 0.961 . S
H928 C912 0.931 . S
H929 C917 0.930 . S
H930 C918 0.956 . S
H931 C918 0.961 . S
H932 C918 0.961 . S
H933 C919 0.958 . S
H934 C919 0.961 . S
H935 C919 0.960 . S
C936 C937 1.391 . S
C936 C938 1.394 . S
C936 H952 0.931 . S
C937 C936 1.391 . S
C937 C941 1.376 . S
C938 C936 1.394 . S
C938 C939 1.369 . S
C938 C942 1.531 . S
C939 C938 1.369 . S
C939 C940 1.410 . S
C939 C947 1.503 . S
C940 C939 1.410 . S
C940 C941 1.392 . S
C940 C943 1.511 . S
C941 C937 1.376 . S
C941 C940 1.392 . S
C941 H953 0.929 . S
C942 C938 1.531 . S
C942 H954 0.960 . S
C942 H955 0.962 . S
C942 H956 0.960 . S
C943 C940 1.511 . S
C943 H957 0.961 . S
C943 H958 0.961 . S
C943 H959 0.961 . S
C944 C945 1.370 . S
C944 C946 1.363 . S
C944 H960 0.931 . S
C945 C944 1.370 . S
C945 C949 1.408 . S
C946 C944 1.363 . S
C946 C947 1.370 . S
C946 C950 1.524 . S
C947 C939 1.503 . S
C947 C946 1.370 . S
C947 C948 1.403 . S
C948 C947 1.403 . S
C948 C949 1.404 . S
C948 C951 1.539 . S
C949 C945 1.408 . S
C949 C948 1.404 . S
C949 H961 0.930 . S
C950 C946 1.524 . S
C950 H962 0.956 . S
C950 H963 0.961 . S
C950 H964 0.961 . S
C951 C948 1.539 . S
C951 H965 0.958 . S
C951 H966 0.961 . S
C951 H967 0.960 . S
H952 C936 0.931 . S
H953 C941 0.929 . S
H954 C942 0.960 . S
H955 C942 0.962 . S
H956 C942 0.960 . S
H957 C943 0.961 . S
H958 C943 0.961 . S
H959 C943 0.961 . S
H960 C944 0.931 . S
H961 C949 0.930 . S
H962 C950 0.956 . S
H963 C950 0.961 . S
H964 C950 0.961 . S
H965 C951 0.958 . S
H966 C951 0.961 . S
H967 C951 0.960 . S
C968 C969 1.391 . S
C968 C970 1.394 . S
C968 H984 0.931 . S
C969 C968 1.391 . S
C969 C973 1.376 . S
C970 C968 1.394 . S
C970 C971 1.369 . S
C970 C974 1.531 . S
C971 C970 1.369 . S
C971 C972 1.410 . S
C971 C979 1.503 . S
C972 C971 1.410 . S
C972 C973 1.392 . S
C972 C975 1.511 . S
C973 C969 1.376 . S
C973 C972 1.392 . S
C973 H985 0.929 . S
C974 C970 1.531 . S
C974 H986 0.960 . S
C974 H987 0.962 . S
C974 H988 0.960 . S
C975 C972 1.511 . S
C975 H989 0.961 . S
C975 H990 0.961 . S
C975 H991 0.961 . S
C976 C977 1.370 . S
C976 C978 1.363 . S
C976 H992 0.931 . S
C977 C976 1.370 . S
C977 C981 1.408 . S
C978 C976 1.363 . S
C978 C979 1.370 . S
C978 C982 1.524 . S
C979 C971 1.503 . S
C979 C978 1.370 . S
C979 C980 1.403 . S
C980 C979 1.403 . S
C980 C981 1.404 . S
C980 C983 1.539 . S
C981 C977 1.408 . S
C981 C980 1.404 . S
C981 H993 0.930 . S
C982 C978 1.524 . S
C982 H994 0.956 . S
C982 H995 0.961 . S
C982 H996 0.961 . S
C983 C980 1.539 . S
C983 H997 0.958 . S
C983 H998 0.961 . S
C983 H999 0.960 . S
H984 C968 0.931 . S
H985 C973 0.929 . S
H986 C974 0.960 . S
H987 C974 0.962 . S
H988 C974 0.960 . S
H989 C975 0.961 . S
H990 C975 0.961 . S
H991 C975 0.961 . S
H992 C976 0.931 . S
H993 C981 0.930 . S
H994 C982 0.956 . S
H995 C982 0.961 . S
H996 C982 0.961 . S
H997 C983 0.958 . S
H998 C983 0.961 . S
H999 C983 0.960 . S
C1000 C1001 1.391 . S
C1000 C1002 1.394 . S
C1000 H1016 0.931 . S
C1001 C1000 1.391 . S
C1001 C1005 1.376 . S
C1002 C1000 1.394 . S
C1002 C1003 1.369 . S
C1002 C1006 1.531 . S
C1003 C1002 1.369 . S
C1003 C1004 1.410 . S
C1003 C1011 1.503 . S
C1004 C1003 1.410 . S
C1004 C1005 1.392 . S
C1004 C1007 1.511 . S
C1005 C1001 1.376 . S
C1005 C1004 1.392 . S
C1005 H1017 0.929 . S
C1006 C1002 1.531 . S
C1006 H1018 0.960 . S
C1006 H1019 0.962 . S
C1006 H1020 0.960 . S
C1007 C1004 1.511 . S
C1007 H1021 0.961 . S
C1007 H1022 0.961 . S
C1007 H1023 0.961 . S
C1008 C1009 1.370 . S
C1008 C1010 1.363 . S
C1008 H1024 0.931 . S
C1009 C1008 1.370 . S
C1009 C1013 1.408 . S
C1010 C1008 1.363 . S
C1010 C1011 1.370 . S
C1010 C1014 1.524 . S
C1011 C1003 1.503 . S
C1011 C1010 1.370 . S
C1011 C1012 1.403 . S
C1012 C1011 1.403 . S
C1012 C1013 1.404 . S
C1012 C1015 1.539 . S
C1013 C1009 1.408 . S
C1013 C1012 1.404 . S
C1013 H1025 0.930 . S
C1014 C1010 1.524 . S
C1014 H1026 0.956 . S
C1014 H1027 0.961 . S
C1014 H1028 0.961 . S
C1015 C1012 1.539 . S
C1015 H1029 0.958 . S
C1015 H1030 0.961 . S
C1015 H1031 0.960 . S
H1016 C1000 0.931 . S
H1017 C1005 0.929 . S
H1018 C1006 0.960 . S
H1019 C1006 0.962 . S
H1020 C1006 0.960 . S
H1021 C1007 0.961 . S
H1022 C1007 0.961 . S
H1023 C1007 0.961 . S
H1024 C1008 0.931 . S
H1025 C1013 0.930 . S
H1026 C1014 0.956 . S
H1027 C1014 0.961 . S
H1028 C1014 0.961 . S
H1029 C1015 0.958 . S
H1030 C1015 0.961 . S
H1031 C1015 0.960 . S
C1032 C1033 1.391 . S
C1032 C1034 1.394 . S
C1032 H1048 0.931 . S
C1033 C1032 1.391 . S
C1033 C1037 1.376 . S
C1034 C1032 1.394 . S
C1034 C1035 1.369 . S
C1034 C1038 1.531 . S
C1035 C1034 1.369 . S
C1035 C1036 1.410 . S
C1035 C1043 1.503 . S
C1036 C1035 1.410 . S
C1036 C1037 1.392 . S
C1036 C1039 1.511 . S
C1037 C1033 1.376 . S
C1037 C1036 1.392 . S
C1037 H1049 0.929 . S
C1038 C1034 1.531 . S
C1038 H1050 0.960 . S
C1038 H1051 0.962 . S
C1038 H1052 0.960 . S
C1039 C1036 1.511 . S
C1039 H1053 0.961 . S
C1039 H1054 0.961 . S
C1039 H1055 0.961 . S
C1040 C1041 1.370 . S
C1040 C1042 1.363 . S
C1040 H1056 0.931 . S
C1041 C1040 1.370 . S
C1041 C1045 1.408 . S
C1042 C1040 1.363 . S
C1042 C1043 1.370 . S
C1042 C1046 1.524 . S
C1043 C1035 1.503 . S
C1043 C1042 1.370 . S
C1043 C1044 1.403 . S
C1044 C1043 1.403 . S
C1044 C1045 1.404 . S
C1044 C1047 1.539 . S
C1045 C1041 1.408 . S
C1045 C1044 1.404 . S
C1045 H1057 0.930 . S
C1046 C1042 1.524 . S
C1046 H1058 0.956 . S
C1046 H1059 0.961 . S
C1046 H1060 0.961 . S
C1047 C1044 1.539 . S
C1047 H1061 0.958 . S
C1047 H1062 0.961 . S
C1047 H1063 0.960 . S
H1048 C1032 0.931 . S
H1049 C1037 0.929 . S
H1050 C1038 0.960 . S
H1051 C1038 0.962 . S
H1052 C1038 0.960 . S
H1053 C1039 0.961 . S
H1054 C1039 0.961 . S
H1055 C1039 0.961 . S
H1056 C1040 0.931 . S
H1057 C1045 0.930 . S
H1058 C1046 0.956 . S
H1059 C1046 0.961 . S
H1060 C1046 0.961 . S
H1061 C1047 0.958 . S
H1062 C1047 0.961 . S
H1063 C1047 0.960 . S
C1064 C1065 1.391 . S
C1064 C1066 1.394 . S
C1064 H1080 0.931 . S
C1065 C1064 1.391 . S
C1065 C1069 1.376 . S
C1066 C1064 1.394 . S
C1066 C1067 1.369 . S
C1066 C1070 1.531 . S
C1067 C1066 1.369 . S
C1067 C1068 1.410 . S
C1067 C1075 1.503 1_554 S
C1068 C1067 1.410 . S
C1068 C1069 1.392 . S
C1068 C1071 1.511 1_554 S
C1069 C1065 1.376 . S
C1069 C1068 1.392 . S
C1069 H1081 0.929 . S
C1070 C1066 1.531 . S
C1070 H1082 0.960 . S
C1070 H1083 0.962 . S
C1070 H1084 0.960 . S
C1071 C1068 1.511 1_556 S
C1071 H1085 0.961 . S
C1071 H1086 0.961 . S
C1071 H1087 0.961 . S
C1072 C1073 1.370 . S
C1072 C1074 1.363 . S
C1072 H1088 0.931 . S
C1073 C1072 1.370 . S
C1073 C1077 1.408 . S
C1074 C1072 1.363 . S
C1074 C1075 1.370 . S
C1074 C1078 1.524 1_556 S
C1075 C1067 1.503 1_556 S
C1075 C1074 1.370 . S
C1075 C1076 1.403 . S
C1076 C1075 1.403 . S
C1076 C1077 1.404 . S
C1076 C1079 1.539 . S
C1077 C1073 1.408 . S
C1077 C1076 1.404 . S
C1077 H1089 0.930 . S
C1078 C1074 1.524 1_554 S
C1078 H1090 0.956 . S
C1078 H1091 0.961 . S
C1078 H1092 0.961 . S
C1079 C1076 1.539 . S
C1079 H1093 0.958 . S
C1079 H1094 0.961 . S
C1079 H1095 0.960 . S
H1080 C1064 0.931 . S
H1081 C1069 0.929 . S
H1082 C1070 0.960 . S
H1083 C1070 0.962 . S
H1084 C1070 0.960 . S
H1085 C1071 0.961 . S
H1086 C1071 0.961 . S
H1087 C1071 0.961 . S
H1088 C1072 0.931 . S
H1089 C1077 0.930 . S
H1090 C1078 0.956 . S
H1091 C1078 0.961 . S
H1092 C1078 0.961 . S
H1093 C1079 0.958 . S
H1094 C1079 0.961 . S
H1095 C1079 0.960 . S
C1096 C1097 1.391 . S
C1096 C1098 1.394 . S
C1096 H1112 0.931 . S
C1097 C1096 1.391 . S
C1097 C1101 1.376 . S
C1098 C1096 1.394 . S
C1098 C1099 1.369 . S
C1098 C1102 1.531 . S
C1099 C1098 1.369 . S
C1099 C1100 1.410 . S
C1099 C1107 1.503 . S
C1100 C1099 1.410 . S
C1100 C1101 1.392 . S
C1100 C1103 1.511 . S
C1101 C1097 1.376 . S
C1101 C1100 1.392 . S
C1101 H1113 0.929 . S
C1102 C1098 1.531 . S
C1102 H1114 0.960 . S
C1102 H1115 0.962 . S
C1102 H1116 0.960 . S
C1103 C1100 1.511 . S
C1103 H1117 0.961 . S
C1103 H1118 0.961 . S
C1103 H1119 0.961 . S
C1104 C1105 1.370 . S
C1104 C1106 1.363 . S
C1104 H1120 0.931 . S
C1105 C1104 1.370 . S
C1105 C1109 1.408 . S
C1106 C1104 1.363 . S
C1106 C1107 1.370 . S
C1106 C1110 1.524 . S
C1107 C1099 1.503 . S
C1107 C1106 1.370 . S
C1107 C1108 1.403 . S
C1108 C1107 1.403 . S
C1108 C1109 1.404 . S
C1108 C1111 1.539 . S
C1109 C1105 1.408 . S
C1109 C1108 1.404 . S
C1109 H1121 0.930 . S
C1110 C1106 1.524 . S
C1110 H1122 0.956 . S
C1110 H1123 0.961 . S
C1110 H1124 0.961 . S
C1111 C1108 1.539 . S
C1111 H1125 0.958 . S
C1111 H1126 0.961 . S
C1111 H1127 0.960 . S
H1112 C1096 0.931 . S
H1113 C1101 0.929 . S
H1114 C1102 0.960 . S
H1115 C1102 0.962 . S
H1116 C1102 0.960 . S
H1117 C1103 0.961 . S
H1118 C1103 0.961 . S
H1119 C1103 0.961 . S
H1120 C1104 0.931 . S
H1121 C1109 0.930 . S
H1122 C1110 0.956 . S
H1123 C1110 0.961 . S
H1124 C1110 0.961 . S
H1125 C1111 0.958 . S
H1126 C1111 0.961 . S
H1127 C1111 0.960 . S
C369 C346 1.608 . S
C361 C15 1.579 . S
C393 C61 1.592 . S
C401 C287 1.618 . S
C425 C114 1.559 . S
C433 C290 1.594 . S
C457 C139 1.604 . S
C465 C304 1.608 . S
C497 C329 1.620 . S
C489 C185 1.581 . S
C521 C245 1.578 . S
C529 C332 1.595 . S
C553 C47 1.560 . S
C561 C301 1.580 . S
C585 C100 1.586 . S
C593 C315 1.590 . S
C617 C153 1.534 . S
C625 C318 1.572 . S
C657 C343 1.580 . S
C649 C199 1.569 . S
C689 C357 1.590 . S
C681 C231 1.589 . S
C721 C276 1.572 . S
C713 C1 1.569 . S
C745 C22 1.473 . S
C753 C299 1.461 . S
C777 C68 1.482 . S
C785 C313 1.483 . S
C817 C323 1.486 . S
C809 C107 1.472 . S
C841 C146 1.463 . S
C849 C341 1.468 . S
C881 C355 1.476 . S
C873 C192 1.473 . S
C913 C281 1.486 . S
C905 C252 1.487 . S
C945 C351 1.511 . S
C937 C54 1.501 . S
C969 C93 1.481 . S
C977 C285 1.487 . S
C1009 C295 1.496 . S
C1001 C160 1.481 . S
C1033 C206 1.501 . S
C1041 C309 1.511 . S
C1065 C238 1.490 . S
C1073 C327 1.485 . S
C1097 C8 1.487 . S
C1105 C337 1.497 . S
